# generated using pymatgen
data_Ca4Si6AgPd
_symmetry_space_group_name_H-M   'P 1'
_cell_length_a   8.34037188
_cell_length_b   8.25290698
_cell_length_c   5.95853504
_cell_angle_alpha   69.74252650
_cell_angle_beta   68.17257165
_cell_angle_gamma   42.08491231
_symmetry_Int_Tables_number   1
_chemical_formula_structural   Ca4Si6AgPd
_chemical_formula_sum   'Ca4 Si6 Ag1 Pd1'
_cell_volume   253.54709455
_cell_formula_units_Z   1
loop_
 _symmetry_equiv_pos_site_id
 _symmetry_equiv_pos_as_xyz
  1  'x, y, z'
loop_
 _atom_site_type_symbol
 _atom_site_label
 _atom_site_symmetry_multiplicity
 _atom_site_fract_x
 _atom_site_fract_y
 _atom_site_fract_z
 _atom_site_occupancy
  Ca  Ca0  1  0.74763369  0.74763369  0.75236631  1
  Ca  Ca1  1  0.75056719  0.25366564  0.74633436  1
  Ca  Ca2  1  0.24763369  0.24763369  0.25236631  1
  Ca  Ca3  1  0.25366564  0.75056719  0.24943281  1
  Si  Si0  1  0.83279005  0.33334158  0.16720995  1
  Si  Si1  1  0.67880103  0.16090429  0.32119897  1
  Si  Si2  1  0.16090429  0.67880103  0.83909571  1
  Si  Si3  1  0.33334158  0.83279005  0.66665842  1
  Si  Si4  1  0.16058988  0.16058988  0.83941012  1
  Si  Si5  1  0.83351668  0.83351668  0.16648332  1
  Ag  Ag0  1  0.33341492  0.33341492  0.66658508  1
  Pd  Pd0  1  0.66714336  0.66714336  0.33285664  1
loop_
_geom_bond_atom_site_label_1
_geom_bond_atom_site_label_2
_geom_bond_distance
_geom_bond_site_symmetry_2
Ca0 Si0 3.186439 1_556
Ca0 Si3 3.186439 1_555
Ca0 Pd0 3.193723 1_555
Ca0 Pd0 3.193723 1_556
Ca0 Si5 3.222297 1_556
Ca0 Si5 3.222297 1_555
Ca0 Si4 3.228656 1_655
Ca0 Si4 3.228656 1_565
Ca0 Si1 3.268849 1_565
Ca0 Si2 3.268849 1_655
Ca1 Si4 3.131858 1_655
Ca1 Si1 3.164966 1_556
Ca1 Si2 3.164967 1_645
Ca1 Pd0 3.182331 1_555
Ca1 Si0 3.185679 1_555
Ca1 Si3 3.185679 1_555
Ca1 Si0 3.206530 1_556
Ca1 Si3 3.206531 1_645
Ca1 Si5 3.238101 1_546
Ca1 Si1 3.242212 1_555
Ca1 Si2 3.242213 1_555
Ca2 Si3 3.186439 1_545
Ca2 Si0 3.186439 1_455
Ca2 Pd0 3.193723 1_545
Ca2 Pd0 3.193723 1_455
Ca2 Si5 3.222297 1_455
Ca2 Si5 3.222297 1_545
Ca2 Si4 3.228655 1_554
Ca2 Si4 3.228655 1_555
Ca2 Si2 3.268849 1_554
Ca2 Si1 3.268849 1_555
Ca3 Si4 3.131858 1_564
Ca3 Si2 3.164966 1_554
Ca3 Si1 3.164967 1_465
Ca3 Pd0 3.182331 1_555
Ca3 Si3 3.185679 1_555
Ca3 Si0 3.185679 1_555
Ca3 Si3 3.206530 1_554
Ca3 Si0 3.206531 1_465
Ca3 Si5 3.238101 1_455
Ca3 Si2 3.242212 1_555
Ca3 Si1 3.242213 1_555
Si0 Si1 2.334312 1_555
Si0 Si4 2.343940 1_654
Si1 Si5 2.341034 1_545
Si2 Si3 2.334312 1_555
Si2 Si5 2.341034 1_456
Si3 Si4 2.343940 1_565
Ag0 Si2 2.468495 1_555
Ag0 Si1 2.468495 1_555
Ag0 Si4 2.470469 1_555
Ag0 Ca3 3.221461 1_555
Ag0 Ca1 3.221461 1_555
Ag0 Ca2 3.221743 1_555
Ag0 Ca2 3.221743 1_556
Ag0 Ca0 3.221743 1_545
Ag0 Ca0 3.221743 1_455
Pd0 Si5 2.378244 1_555
Pd0 Si0 2.385724 1_555
Pd0 Si3 2.385724 1_555
