# generated using pymatgen
data_Ag2TeIrO7
_symmetry_space_group_name_H-M   'P 1'
_cell_length_a   7.16984118
_cell_length_b   7.16984076
_cell_length_c   7.16984164
_cell_angle_alpha   118.85125466
_cell_angle_beta   119.60092830
_cell_angle_gamma   91.34695253
_symmetry_Int_Tables_number   1
_chemical_formula_structural   Ag2TeIrO7
_chemical_formula_sum   'Ag4 Te2 Ir2 O14'
_cell_volume   263.57967101
_cell_formula_units_Z   2
loop_
 _symmetry_equiv_pos_site_id
 _symmetry_equiv_pos_as_xyz
  1  'x, y, z'
loop_
 _atom_site_type_symbol
 _atom_site_label
 _atom_site_symmetry_multiplicity
 _atom_site_fract_x
 _atom_site_fract_y
 _atom_site_fract_z
 _atom_site_occupancy
  Ag  Ag0  1  0.00000000  0.50000000  0.50000000  1
  Ag  Ag1  1  0.50000000  0.00000000  0.50000000  1
  Ag  Ag2  1  0.00000000  0.50000000  0.00000000  1
  Ag  Ag3  1  0.00000000  0.00000000  0.50000000  1
  Te  Te0  1  0.50000000  0.50000000  0.50000000  1
  Te  Te1  1  0.50000000  0.00000000  0.00000000  1
  Ir  Ir0  1  0.50000000  0.50000000  0.00000000  1
  Ir  Ir1  1  0.00000000  0.00000000  0.00000000  1
  O  O0  1  0.55082092  0.40232219  0.72117902  1
  O  O1  1  0.44917908  0.17035810  0.85150127  1
  O  O2  1  0.81885683  0.09767781  0.14849873  1
  O  O3  1  0.18114317  0.32964190  0.27882098  1
  O  O4  1  0.44917908  0.59767781  0.27882098  1
  O  O5  1  0.55082092  0.82964190  0.14849873  1
  O  O6  1  0.18114317  0.90232219  0.85150127  1
  O  O7  1  0.81885683  0.67035810  0.72117902  1
  O  O8  1  0.58494433  0.25000000  0.33494433  1
  O  O9  1  0.41505567  0.75000000  0.66505567  1
  O  O10  1  0.17567259  0.40461359  0.77105900  1
  O  O11  1  0.82432741  0.59538641  0.22894100  1
  O  O12  1  0.86644541  0.09538641  0.77105900  1
  O  O13  1  0.13355459  0.90461359  0.22894100  1
loop_
_geom_bond_atom_site_label_1
_geom_bond_atom_site_label_2
_geom_bond_distance
_geom_bond_site_symmetry_2
Ag0 O10 2.176263 1_555
Ag0 O11 2.176263 1_455
Ag0 O3 2.435877 1_555
Ag0 O7 2.435877 1_455
Ag0 O6 2.435877 1_555
Ag0 O2 2.435877 1_455
Ag1 O12 2.176263 1_555
Ag1 O13 2.176263 1_545
Ag1 O0 2.435877 1_555
Ag1 O4 2.435877 1_545
Ag1 O1 2.435877 1_555
Ag1 O5 2.435877 1_545
Ag2 O13 2.397543 1_555
Ag2 O12 2.397543 1_454
Ag2 O10 2.397543 1_554
Ag2 O11 2.397543 1_455
Ag2 O3 2.653531 1_555
Ag2 O7 2.653531 1_454
Ag2 O4 2.653531 1_555
Ag2 O0 2.653531 1_454
Ag3 O10 2.397543 1_555
Ag3 O11 2.397543 1_445
Ag3 O13 2.397543 1_545
Ag3 O12 2.397543 1_455
Ag3 O6 2.653531 1_545
Ag3 O2 2.653531 1_455
Ag3 O1 2.653531 1_555
Ag3 O5 2.653531 1_445
Ir0 O11 1.907999 1_555
Ir0 O10 1.907999 1_554
Ir0 O5 2.000031 1_555
Ir0 O1 2.000031 1_554
Ir0 O4 2.000032 1_555
Ir0 O0 2.000032 1_554
Ir1 O13 1.907999 1_545
Ir1 O12 1.907999 1_454
Ir1 O6 2.000032 1_544
Ir1 O2 2.000032 1_455
Ir1 O3 2.000032 1_555
Ir1 O7 2.000032 1_444
O0 Te0 1.910764 1_555
O1 Te1 1.910764 1_556
O2 Te1 1.910764 1_555
O3 Te0 1.910764 1_555
O4 Te0 1.910764 1_555
O5 Te1 1.910764 1_565
O6 Te1 1.910764 1_566
O7 Te0 1.910764 1_555
O8 Te0 1.923678 1_555
O8 Te1 1.923678 1_555
O9 Te0 1.923678 1_555
O9 Te1 1.923678 1_566
