# generated using pymatgen
data_NaTiCuAs2
_symmetry_space_group_name_H-M   'P 1'
_cell_length_a   3.99957660
_cell_length_b   3.99957719
_cell_length_c   6.99188377
_cell_angle_alpha   106.61955946
_cell_angle_beta   106.61956288
_cell_angle_gamma   89.99999215
_symmetry_Int_Tables_number   1
_chemical_formula_structural   NaTiCuAs2
_chemical_formula_sum   'Na1 Ti1 Cu1 As2'
_cell_volume   102.28849395
_cell_formula_units_Z   1
loop_
 _symmetry_equiv_pos_site_id
 _symmetry_equiv_pos_as_xyz
  1  'x, y, z'
loop_
 _atom_site_type_symbol
 _atom_site_label
 _atom_site_symmetry_multiplicity
 _atom_site_fract_x
 _atom_site_fract_y
 _atom_site_fract_z
 _atom_site_occupancy
  Na  Na0  1  0.00000000  0.00000000  0.00000000  1
  Ti  Ti0  1  0.24999700  0.74999900  0.49999800  1
  Cu  Cu0  1  0.74999900  0.24999700  0.49999800  1
  As  As0  1  0.63638785  0.63638785  0.27277470  1
  As  As1  1  0.36361215  0.36361215  0.72722530  1
loop_
_geom_bond_atom_site_label_1
_geom_bond_atom_site_label_2
_geom_bond_distance
_geom_bond_site_symmetry_2
Cu0 Ti0 2.828116 1_645
Cu0 Ti0 2.828128 1_545
Cu0 Ti0 2.828128 1_655
Cu0 Ti0 2.828139 1_555
As0 Ti0 2.471879 1_655
As0 Cu0 2.471880 1_565
As0 Ti0 2.471895 1_555
As0 Cu0 2.471895 1_555
As0 Na0 3.322742 1_665
As0 Na0 3.322744 1_565
As0 Na0 3.322745 1_655
As0 Na0 3.322748 1_555
As1 Cu0 2.471901 1_455
As1 Ti0 2.471901 1_545
As1 Cu0 2.471904 1_555
As1 Ti0 2.471904 1_555
As1 Na0 3.322742 1_556
As1 Na0 3.322744 1_656
As1 Na0 3.322745 1_566
As1 Na0 3.322748 1_666
