# generated using pymatgen
data_Sr5Bi3F
_symmetry_space_group_name_H-M   'P 1'
_cell_length_a   9.84215823
_cell_length_b   9.84216933
_cell_length_c   9.84656921
_cell_angle_alpha   124.66873597
_cell_angle_beta   124.66874616
_cell_angle_gamma   82.05809689
_symmetry_Int_Tables_number   1
_chemical_formula_structural   Sr5Bi3F
_chemical_formula_sum   'Sr10 Bi6 F2'
_cell_volume   620.48597292
_cell_formula_units_Z   2
loop_
 _symmetry_equiv_pos_site_id
 _symmetry_equiv_pos_as_xyz
  1  'x, y, z'
loop_
 _atom_site_type_symbol
 _atom_site_label
 _atom_site_symmetry_multiplicity
 _atom_site_fract_x
 _atom_site_fract_y
 _atom_site_fract_z
 _atom_site_occupancy
  Sr  Sr0  1  0.50000000  0.50000000  0.00000000  1
  Sr  Sr1  1  0.00000000  0.00000000  0.00000000  1
  Sr  Sr2  1  0.50620686  0.00620486  0.79653049  1
  Sr  Sr3  1  0.20967633  0.70967633  0.20347319  1
  Sr  Sr4  1  0.00654349  0.20999093  0.49999368  1
  Sr  Sr5  1  0.70998993  0.50654649  0.49999668  1
  Sr  Sr6  1  0.49379314  0.99379514  0.20346951  1
  Sr  Sr7  1  0.79032367  0.29032367  0.79652681  1
  Sr  Sr8  1  0.99345651  0.79000907  0.50000632  1
  Sr  Sr9  1  0.29001007  0.49345351  0.50000332  1
  Bi  Bi0  1  0.25000199  0.24999801  0.00000000  1
  Bi  Bi1  1  0.74999801  0.75000199  0.00000000  1
  Bi  Bi2  1  0.84468448  0.34468448  0.18936615  1
  Bi  Bi3  1  0.15531552  0.65531552  0.81063485  1
  Bi  Bi4  1  0.34500805  0.15499095  0.50000100  1
  Bi  Bi5  1  0.65499195  0.84500905  0.49999900  1
  F  F0  1  0.24976041  0.74975741  0.50000132  1
  F  F1  1  0.75023959  0.25024259  0.49999868  1
loop_
_geom_bond_atom_site_label_1
_geom_bond_atom_site_label_2
_geom_bond_distance
_geom_bond_site_symmetry_2
Bi0 Sr1 3.712350 1_555
Bi0 Sr0 3.712350 1_555
Bi0 Sr6 3.838763 1_545
Bi0 Sr2 3.838783 1_554
Bi0 Sr7 3.838814 1_454
Bi0 Sr3 3.838819 1_555
Bi0 Sr8 3.843096 1_444
Bi0 Sr5 3.843098 1_555
Bi0 Sr9 3.843159 1_555
Bi0 Sr4 3.843187 1_554
Bi1 Sr1 3.712350 1_665
Bi1 Sr0 3.712350 1_555
Bi1 Sr2 3.838763 1_564
Bi1 Sr6 3.838783 1_555
Bi1 Sr3 3.838814 1_655
Bi1 Sr7 3.838819 1_554
Bi1 Sr4 3.843096 1_665
Bi1 Sr9 3.843098 1_554
Bi1 Sr5 3.843159 1_554
Bi1 Sr8 3.843187 1_555
Bi2 Sr2 3.302275 1_554
Bi2 Sr7 3.302281 1_554
Bi2 Sr0 3.454772 1_555
Bi2 Sr1 3.454773 1_655
Bi2 Sr4 3.483734 1_655
Bi2 Sr8 3.483752 1_555
Bi2 Sr9 3.483755 1_655
Bi2 Sr5 3.483762 1_555
Bi3 Sr3 3.302272 1_556
Bi3 Sr6 3.302274 1_556
Bi3 Sr0 3.454770 1_556
Bi3 Sr1 3.454771 1_566
Bi3 Sr8 3.483742 1_455
Bi3 Sr4 3.483751 1_555
Bi3 Sr5 3.483754 1_455
Bi3 Sr9 3.483771 1_555
Bi4 Sr4 3.300232 1_555
Bi4 Sr9 3.300239 1_555
Bi4 Sr0 3.458939 1_556
Bi4 Sr1 3.458949 1_555
Bi4 Sr3 3.484087 1_545
Bi4 Sr7 3.484094 1_555
Bi4 Sr2 3.484096 1_555
Bi4 Sr6 3.484105 1_545
Bi5 Sr8 3.300232 1_555
Bi5 Sr5 3.300239 1_555
Bi5 Sr0 3.458939 1_555
Bi5 Sr1 3.458949 1_666
Bi5 Sr7 3.484087 1_565
Bi5 Sr3 3.484094 1_555
Bi5 Sr6 3.484096 1_555
Bi5 Sr2 3.484105 1_565
F0 Sr9 2.498854 1_555
F0 Sr8 2.498866 1_455
F0 Sr3 2.501713 1_555
F0 Sr2 2.501722 1_565
F1 Sr5 2.498854 1_555
F1 Sr4 2.498866 1_655
F1 Sr7 2.501713 1_555
F1 Sr6 2.501722 1_545
