# generated using pymatgen
data_K4Ba2ZrSb4
_symmetry_space_group_name_H-M   'P 1'
_cell_length_a   11.17942180
_cell_length_b   11.17942175
_cell_length_c   8.61470918
_cell_angle_alpha   89.04870014
_cell_angle_beta   89.04869489
_cell_angle_gamma   119.96105404
_symmetry_Int_Tables_number   1
_chemical_formula_structural   K4Ba2ZrSb4
_chemical_formula_sum   'K8 Ba4 Zr2 Sb8'
_cell_volume   932.26840323
_cell_formula_units_Z   2
loop_
 _symmetry_equiv_pos_site_id
 _symmetry_equiv_pos_as_xyz
  1  'x, y, z'
loop_
 _atom_site_type_symbol
 _atom_site_label
 _atom_site_symmetry_multiplicity
 _atom_site_fract_x
 _atom_site_fract_y
 _atom_site_fract_z
 _atom_site_occupancy
  K  K0  1  0.05471612  0.52524833  0.62392607  1
  K  K1  1  0.52524833  0.05471612  0.12392607  1
  K  K2  1  0.27848897  0.13588805  0.82181644  1
  K  K3  1  0.86952855  0.72541970  0.77857866  1
  K  K4  1  0.86086214  0.14614102  0.80194709  1
  K  K5  1  0.72541970  0.86952855  0.27857866  1
  K  K6  1  0.13588805  0.27848897  0.32181644  1
  K  K7  1  0.14614102  0.86086214  0.30194709  1
  Ba  Ba0  1  0.46940150  0.94177300  0.61774082  1
  Ba  Ba1  1  0.46931611  0.52229095  0.62625183  1
  Ba  Ba2  1  0.94177300  0.46940150  0.11774082  1
  Ba  Ba3  1  0.52229095  0.46931611  0.12625183  1
  Zr  Zr0  1  0.66793635  0.33545356  0.51381622  1
  Zr  Zr1  1  0.33545356  0.66793635  0.01381622  1
  Sb  Sb0  1  0.60769291  0.79816366  0.88909637  1
  Sb  Sb1  1  0.19727074  0.38887694  0.92219063  1
  Sb  Sb2  1  0.19369351  0.79927292  0.90772298  1
  Sb  Sb3  1  0.38887694  0.19727074  0.42219063  1
  Sb  Sb4  1  0.79816366  0.60769291  0.38909637  1
  Sb  Sb5  1  0.79927292  0.19369351  0.40772298  1
  Sb  Sb6  1  0.66696089  0.34516408  0.84254889  1
  Sb  Sb7  1  0.34516408  0.66696089  0.34254889  1
loop_
_geom_bond_atom_site_label_1
_geom_bond_atom_site_label_2
_geom_bond_distance
_geom_bond_site_symmetry_2
K0 Sb2 3.660133 1_555
K0 Sb7 3.660857 1_555
K0 Sb1 3.728122 1_555
K0 Zr0 3.890730 1_455
K0 Sb5 3.898238 1_455
K0 Sb4 3.992387 1_455
K1 Sb5 3.660133 1_555
K1 Sb6 3.660857 1_554
K1 Sb3 3.728122 1_555
K1 Zr1 3.890730 1_545
K1 Sb2 3.898238 1_544
K1 Sb0 3.992387 1_544
K2 Sb2 3.453810 1_545
K2 Sb1 3.491608 1_555
K2 Sb3 3.574966 1_555
K2 Sb6 3.775883 1_555
K3 Sb2 3.496919 1_655
K3 Sb0 3.528028 1_555
K3 Sb4 3.579566 1_555
K3 Sb6 3.710611 1_555
K4 Sb0 3.541582 1_545
K4 Sb1 3.551056 1_655
K4 Sb5 3.560007 1_555
K4 Sb6 3.819658 1_555
K5 Sb5 3.496919 1_565
K5 Sb4 3.528028 1_555
K5 Sb0 3.579566 1_554
K5 Sb7 3.710611 1_555
K6 Sb5 3.453810 1_455
K6 Sb3 3.491608 1_555
K6 Sb1 3.574966 1_554
K6 Sb7 3.775883 1_555
K7 Sb4 3.541582 1_455
K7 Sb3 3.551056 1_565
K7 Sb2 3.560007 1_554
K7 Sb7 3.819658 1_555
Ba0 Sb0 3.592611 1_555
Ba0 Sb2 3.603672 1_555
Ba0 Sb7 3.616225 1_555
Ba0 Sb5 3.747030 1_565
Ba0 Sb3 3.776997 1_565
Ba1 Sb0 3.551728 1_555
Ba1 Sb7 3.569156 1_555
Ba1 Sb1 3.613755 1_555
Ba1 Sb3 3.755331 1_555
Ba1 Sb4 3.844590 1_555
Ba2 Sb4 3.592611 1_555
Ba2 Sb5 3.603672 1_555
Ba2 Sb6 3.616225 1_554
Ba2 Sb2 3.747030 1_654
Ba2 Sb1 3.776997 1_654
Ba3 Sb4 3.551728 1_555
Ba3 Sb6 3.569156 1_554
Ba3 Sb3 3.613755 1_555
Ba3 Sb1 3.755331 1_554
Ba3 Sb0 3.844590 1_554
Sb0 Zr1 2.819663 1_556
Sb1 Zr1 2.837375 1_556
Sb2 Zr1 2.798287 1_556
Sb3 Zr0 2.837375 1_555
Sb4 Zr0 2.819663 1_555
Sb5 Zr0 2.798287 1_555
Sb6 Zr0 2.835865 1_555
Sb7 Zr1 2.835865 1_555
