# generated using pymatgen
data_Hf6AlSnC2
_symmetry_space_group_name_H-M   'P 1'
_cell_length_a   6.03058221
_cell_length_b   6.03058115
_cell_length_c   9.01388206
_cell_angle_alpha   90.00000000
_cell_angle_beta   90.00000000
_cell_angle_gamma   147.47487463
_symmetry_Int_Tables_number   1
_chemical_formula_structural   Hf6AlSnC2
_chemical_formula_sum   'Hf6 Al1 Sn1 C2'
_cell_volume   176.25668628
_cell_formula_units_Z   1
loop_
 _symmetry_equiv_pos_site_id
 _symmetry_equiv_pos_as_xyz
  1  'x, y, z'
loop_
 _atom_site_type_symbol
 _atom_site_label
 _atom_site_symmetry_multiplicity
 _atom_site_fract_x
 _atom_site_fract_y
 _atom_site_fract_z
 _atom_site_occupancy
  Hf  Hf0  1  0.62544824  0.37455176  0.46450747  1
  Hf  Hf1  1  0.37275491  0.62724509  0.54654006  1
  Hf  Hf2  1  0.62544824  0.37455176  0.03549253  1
  Hf  Hf3  1  0.37275491  0.62724509  0.95345994  1
  Hf  Hf4  1  0.96360239  0.03639761  0.25000000  1
  Hf  Hf5  1  0.04247364  0.95752636  0.75000000  1
  Al  Al0  1  0.74782283  0.25217717  0.75000000  1
  Sn  Sn0  1  0.25253448  0.74746552  0.25000000  1
  C  C0  1  0.99858068  0.00141932  0.50090794  1
  C  C1  1  0.99858068  0.00141932  0.99909206  1
loop_
_geom_bond_atom_site_label_1
_geom_bond_atom_site_label_2
_geom_bond_distance
_geom_bond_site_symmetry_2
Hf0 Sn0 2.959036 1_545
Hf0 Sn0 2.959036 1_655
Hf1 Sn0 3.013705 1_555
Hf2 Sn0 2.959036 1_545
Hf2 Sn0 2.959036 1_655
Hf3 Sn0 3.013705 1_556
Hf4 Sn0 2.970611 1_655
Hf4 Sn0 2.970612 1_545
Al0 Hf3 2.882349 1_545
Al0 Hf1 2.882349 1_545
Al0 Hf3 2.882350 1_655
Al0 Hf1 2.882350 1_655
Al0 Hf5 2.916380 1_655
Al0 Hf5 2.916381 1_545
Al0 Hf2 2.937693 1_556
Al0 Hf0 2.937693 1_555
C0 Hf0 2.262190 1_545
C0 Hf0 2.262191 1_655
C0 Hf1 2.267982 1_655
C0 Hf1 2.267983 1_545
C0 Hf4 2.297630 1_555
C0 Hf5 2.302085 1_645
C1 Hf2 2.262190 1_546
C1 Hf2 2.262191 1_656
C1 Hf3 2.267982 1_655
C1 Hf3 2.267983 1_545
C1 Hf4 2.297630 1_556
C1 Hf5 2.302085 1_645
