# generated using pymatgen
data_Zr9Ta4Se
_symmetry_space_group_name_H-M   'P 1'
_cell_length_a   8.86599141
_cell_length_b   8.86599253
_cell_length_c   8.97383735
_cell_angle_alpha   90.00000000
_cell_angle_beta   90.00000000
_cell_angle_gamma   120.00000697
_symmetry_Int_Tables_number   1
_chemical_formula_structural   Zr9Ta4Se
_chemical_formula_sum   'Zr18 Ta8 Se2'
_cell_volume   610.89062755
_cell_formula_units_Z   2
loop_
 _symmetry_equiv_pos_site_id
 _symmetry_equiv_pos_as_xyz
  1  'x, y, z'
loop_
 _atom_site_type_symbol
 _atom_site_label
 _atom_site_symmetry_multiplicity
 _atom_site_fract_x
 _atom_site_fract_y
 _atom_site_fract_z
 _atom_site_occupancy
  Zr  Zr0  1  0.54177903  0.08355906  0.25000000  1
  Zr  Zr1  1  0.45822097  0.91644094  0.75000000  1
  Zr  Zr2  1  0.91644094  0.45822097  0.25000000  1
  Zr  Zr3  1  0.08355906  0.54177903  0.75000000  1
  Zr  Zr4  1  0.54177903  0.45822097  0.25000000  1
  Zr  Zr5  1  0.45822097  0.54177903  0.75000000  1
  Zr  Zr6  1  0.19628819  0.39257838  0.04818581  1
  Zr  Zr7  1  0.80371181  0.60742162  0.95181419  1
  Zr  Zr8  1  0.60742162  0.80371181  0.04818581  1
  Zr  Zr9  1  0.80371181  0.60742162  0.54818581  1
  Zr  Zr10  1  0.39257838  0.19628819  0.95181419  1
  Zr  Zr11  1  0.19628819  0.39257838  0.45181419  1
  Zr  Zr12  1  0.19628819  0.80371181  0.04818581  1
  Zr  Zr13  1  0.39257838  0.19628819  0.54818581  1
  Zr  Zr14  1  0.80371181  0.19628819  0.95181419  1
  Zr  Zr15  1  0.60742162  0.80371181  0.45181419  1
  Zr  Zr16  1  0.80371181  0.19628819  0.54818581  1
  Zr  Zr17  1  0.19628819  0.80371181  0.45181419  1
  Ta  Ta0  1  0.00000000  0.00000000  0.00000000  1
  Ta  Ta1  1  0.00000000  0.00000000  0.50000000  1
  Ta  Ta2  1  0.88884437  0.77768873  0.25000000  1
  Ta  Ta3  1  0.11115563  0.22231127  0.75000000  1
  Ta  Ta4  1  0.22231127  0.11115563  0.25000000  1
  Ta  Ta5  1  0.77768873  0.88884437  0.75000000  1
  Ta  Ta6  1  0.88884437  0.11115563  0.25000000  1
  Ta  Ta7  1  0.11115563  0.88884437  0.75000000  1
  Se  Se0  1  0.33333300  0.66666700  0.25000000  1
  Se  Se1  1  0.66666700  0.33333300  0.75000000  1
loop_
_geom_bond_atom_site_label_1
_geom_bond_atom_site_label_2
_geom_bond_distance
_geom_bond_site_symmetry_2
Ta0 Ta4 2.819001 1_555
Ta0 Ta5 2.819001 1_444
Ta0 Ta3 2.819002 1_554
Ta0 Ta2 2.819002 1_445
Ta0 Ta7 2.819002 1_544
Ta0 Ta6 2.819002 1_455
Ta0 Zr12 3.045128 1_545
Ta0 Zr14 3.045128 1_454
Ta0 Zr10 3.045142 1_554
Ta0 Zr8 3.045142 1_445
Ta0 Zr6 3.045143 1_555
Ta0 Zr7 3.045143 1_444
Ta1 Ta4 2.819001 1_555
Ta1 Ta5 2.819001 1_445
Ta1 Ta3 2.819002 1_555
Ta1 Ta2 2.819002 1_445
Ta1 Ta7 2.819002 1_545
Ta1 Ta6 2.819002 1_455
Ta1 Zr16 3.045128 1_455
Ta1 Zr17 3.045128 1_545
Ta1 Zr13 3.045142 1_555
Ta1 Zr15 3.045142 1_445
Ta1 Zr11 3.045143 1_555
Ta1 Zr9 3.045143 1_445
Ta2 Ta4 2.956515 1_665
Ta2 Ta6 2.956515 1_565
Ta2 Zr2 2.962322 1_555
Ta2 Zr4 2.962327 1_555
Ta2 Zr9 2.978158 1_555
Ta2 Zr7 2.978158 1_554
Ta2 Zr17 3.183423 1_655
Ta2 Zr12 3.183423 1_655
Ta2 Zr15 3.183438 1_555
Ta2 Zr8 3.183438 1_555
Ta3 Ta5 2.956515 1_445
Ta3 Ta7 2.956515 1_545
Ta3 Zr3 2.962322 1_555
Ta3 Zr5 2.962327 1_555
Ta3 Zr6 2.978158 1_556
Ta3 Zr11 2.978158 1_555
Ta3 Zr14 3.183423 1_455
Ta3 Zr16 3.183423 1_455
Ta3 Zr10 3.183438 1_555
Ta3 Zr13 3.183438 1_555
Ta4 Ta6 2.956515 1_455
Ta4 Zr0 2.962322 1_555
Ta4 Zr4 2.962327 1_555
Ta4 Zr13 2.978158 1_555
Ta4 Zr10 2.978158 1_554
Ta4 Zr17 3.183424 1_545
Ta4 Zr12 3.183424 1_545
Ta4 Zr11 3.183438 1_555
Ta4 Zr6 3.183438 1_555
Ta5 Ta7 2.956515 1_655
Ta5 Zr1 2.962322 1_555
Ta5 Zr5 2.962327 1_555
Ta5 Zr8 2.978158 1_556
Ta5 Zr15 2.978158 1_555
Ta5 Zr14 3.183424 1_565
Ta5 Zr16 3.183424 1_565
Ta5 Zr7 3.183438 1_555
Ta5 Zr9 3.183438 1_555
Ta6 Zr0 2.962331 1_555
Ta6 Zr2 2.962331 1_555
Ta6 Zr16 2.978151 1_555
Ta6 Zr14 2.978151 1_554
Ta6 Zr11 3.183430 1_655
Ta6 Zr6 3.183430 1_655
Ta6 Zr15 3.183430 1_545
Ta6 Zr8 3.183430 1_545
Ta7 Zr1 2.962331 1_555
Ta7 Zr3 2.962331 1_555
Ta7 Zr12 2.978151 1_556
Ta7 Zr17 2.978151 1_555
Ta7 Zr7 3.183430 1_455
Ta7 Zr9 3.183430 1_455
Ta7 Zr10 3.183430 1_565
Ta7 Zr13 3.183430 1_565
Se0 Zr15 2.776475 1_555
Se0 Zr8 2.776475 1_555
Se0 Zr11 2.776475 1_555
Se0 Zr6 2.776475 1_555
Se0 Zr17 2.776481 1_555
Se0 Zr12 2.776481 1_555
Se0 Zr2 3.200969 1_455
Se0 Zr0 3.200970 1_565
Se0 Zr4 3.200970 1_555
Se1 Zr10 2.776475 1_555
Se1 Zr13 2.776475 1_555
Se1 Zr7 2.776475 1_555
Se1 Zr9 2.776475 1_555
Se1 Zr14 2.776481 1_555
Se1 Zr16 2.776481 1_555
Se1 Zr3 3.200969 1_655
Se1 Zr1 3.200970 1_545
Se1 Zr5 3.200970 1_555
