# generated using pymatgen
data_In11Hg(IrRh)2
_symmetry_space_group_name_H-M   'P 1'
_cell_length_a   7.06785424
_cell_length_b   7.10462342
_cell_length_c   7.14324265
_cell_angle_alpha   90.00000000
_cell_angle_beta   90.00000000
_cell_angle_gamma   89.58584803
_symmetry_Int_Tables_number   1
_chemical_formula_structural   In11Hg(IrRh)2
_chemical_formula_sum   'In11 Hg1 Ir2 Rh2'
_cell_volume   358.68457871
_cell_formula_units_Z   1
loop_
 _symmetry_equiv_pos_site_id
 _symmetry_equiv_pos_as_xyz
  1  'x, y, z'
loop_
 _atom_site_type_symbol
 _atom_site_label
 _atom_site_symmetry_multiplicity
 _atom_site_fract_x
 _atom_site_fract_y
 _atom_site_fract_z
 _atom_site_occupancy
  In  In0  1  0.50000000  0.00000000  0.00000000  1
  In  In1  1  0.50000000  0.00000000  0.50000000  1
  In  In2  1  0.00000000  0.50000000  0.00000000  1
  In  In3  1  0.34837623  0.65022122  0.24530444  1
  In  In4  1  0.65162377  0.34977878  0.24530444  1
  In  In5  1  0.14724474  0.15687881  0.73577369  1
  In  In6  1  0.85275526  0.84312119  0.73577369  1
  In  In7  1  0.65162377  0.34977878  0.75469556  1
  In  In8  1  0.34837623  0.65022122  0.75469556  1
  In  In9  1  0.85275526  0.84312119  0.26422631  1
  In  In10  1  0.14724474  0.15687881  0.26422631  1
  Hg  Hg0  1  0.00000000  0.50000000  0.50000000  1
  Ir  Ir0  1  0.34145682  0.34214217  0.00000000  1
  Ir  Ir1  1  0.65854318  0.65785783  0.00000000  1
  Rh  Rh0  1  0.16179637  0.85032179  0.50000000  1
  Rh  Rh1  1  0.83820363  0.14967821  0.50000000  1
loop_
_geom_bond_atom_site_label_1
_geom_bond_atom_site_label_2
_geom_bond_distance
_geom_bond_site_symmetry_2
In0 Ir0 2.669274 1_555
In0 Ir1 2.669274 1_545
In0 In4 3.229992 1_555
In0 In7 3.229992 1_554
In0 In3 3.229992 1_545
In0 In8 3.229992 1_544
In0 In9 3.313705 1_545
In0 In10 3.313705 1_555
In0 In6 3.313705 1_544
In0 In5 3.313705 1_554
In1 Rh1 2.623256 1_555
In1 Rh0 2.623256 1_545
In1 In6 3.202301 1_545
In1 In5 3.202301 1_555
In1 In9 3.202301 1_545
In1 In10 3.202301 1_555
In1 In7 3.266870 1_555
In1 In4 3.266870 1_555
In1 In8 3.266870 1_545
In1 In3 3.266870 1_545
In2 Ir1 2.653869 1_455
In2 Ir0 2.653869 1_555
In2 In3 3.210962 1_555
In2 In8 3.210962 1_554
In2 In4 3.210962 1_455
In2 In7 3.210962 1_454
In2 In9 3.248292 1_455
In2 In6 3.248292 1_454
In2 In5 3.248292 1_554
In3 Rh0 2.653869 1_555
In3 Ir0 2.804491 1_555
In3 Ir1 2.807297 1_555
In3 In4 3.013944 1_555
In4 Rh1 2.653869 1_555
In4 Ir1 2.804491 1_555
In4 Ir0 2.807297 1_555
In5 Ir0 2.684246 1_556
In5 Rh0 2.754522 1_545
In5 Rh1 2.758932 1_455
In5 In6 3.060777 1_445
In6 Ir1 2.684246 1_556
In6 Rh1 2.754522 1_565
In6 Rh0 2.758932 1_655
In6 In9 3.368377 1_555
In7 Rh1 2.653869 1_555
In7 Ir1 2.804491 1_556
In7 Ir0 2.807297 1_556
In7 In8 3.013944 1_555
In8 Rh0 2.653869 1_555
In8 Ir0 2.804491 1_556
In8 Ir1 2.807297 1_556
In9 Ir1 2.684246 1_555
In9 Rh1 2.754522 1_565
In9 Rh0 2.758932 1_655
In10 Ir0 2.684246 1_555
In10 Rh0 2.754522 1_545
In10 Rh1 2.758932 1_455
In10 In9 3.060777 1_445
In10 In2 3.248292 1_555
In10 In5 3.368377 1_555
Hg0 Rh0 2.746544 1_555
Hg0 Rh1 2.746544 1_455
Hg0 In6 3.134564 1_455
Hg0 In5 3.134564 1_555
Hg0 In9 3.134564 1_455
Hg0 In10 3.134564 1_555
Hg0 In8 3.248057 1_555
Hg0 In3 3.248057 1_555
Hg0 In7 3.248057 1_455
Hg0 In4 3.248057 1_455
