# generated using pymatgen
data_ScOs3Pb4O13
_symmetry_space_group_name_H-M   'P 1'
_cell_length_a   7.41403107
_cell_length_b   7.41403098
_cell_length_c   7.41402968
_cell_angle_alpha   59.32826368
_cell_angle_beta   59.32826619
_cell_angle_gamma   59.32826657
_symmetry_Int_Tables_number   1
_chemical_formula_structural   ScOs3Pb4O13
_chemical_formula_sum   'Sc1 Os3 Pb4 O13'
_cell_volume   283.76263252
_cell_formula_units_Z   1
loop_
 _symmetry_equiv_pos_site_id
 _symmetry_equiv_pos_as_xyz
  1  'x, y, z'
loop_
 _atom_site_type_symbol
 _atom_site_label
 _atom_site_symmetry_multiplicity
 _atom_site_fract_x
 _atom_site_fract_y
 _atom_site_fract_z
 _atom_site_occupancy
  Sc  Sc0  1  0.50113365  0.50113365  0.50113365  1
  Os  Os0  1  0.00067853  0.50093852  0.50093852  1
  Os  Os1  1  0.50093852  0.50093852  0.00067853  1
  Os  Os2  1  0.50093852  0.00067853  0.50093852  1
  Pb  Pb0  1  0.99875358  0.99875358  0.99875358  1
  Pb  Pb1  1  0.50513059  0.00253017  0.00253017  1
  Pb  Pb2  1  0.00253017  0.00253017  0.50513059  1
  Pb  Pb3  1  0.00253017  0.50513059  0.00253017  1
  O  O0  1  0.84946248  0.41510213  0.41510213  1
  O  O1  1  0.42120868  0.81037460  0.81037460  1
  O  O2  1  0.41510213  0.41510213  0.84946248  1
  O  O3  1  0.81037460  0.81037460  0.42120868  1
  O  O4  1  0.81037460  0.42120868  0.81037460  1
  O  O5  1  0.41510213  0.84946248  0.41510213  1
  O  O6  1  0.15974404  0.57762368  0.57762368  1
  O  O7  1  0.58073019  0.18662086  0.18662086  1
  O  O8  1  0.57762368  0.57762368  0.15974404  1
  O  O9  1  0.18662086  0.18662086  0.58073019  1
  O  O10  1  0.18662086  0.58073019  0.18662086  1
  O  O11  1  0.57762368  0.15974404  0.57762368  1
  O  O12  1  0.12177734  0.12177734  0.12177734  1
loop_
_geom_bond_atom_site_label_1
_geom_bond_atom_site_label_2
_geom_bond_distance
_geom_bond_site_symmetry_2
O0 Os0 1.983916 1_655
O0 Sc0 2.130029 1_555
O0 Pb3 2.497609 1_655
O0 Pb2 2.497609 1_655
O1 Os2 1.941201 1_565
O1 Os1 1.941201 1_556
O1 Pb0 2.602969 1_455
O2 Os1 1.983916 1_556
O2 Sc0 2.130029 1_555
O2 Pb1 2.497609 1_556
O2 Pb3 2.497609 1_556
O3 Os0 1.941201 1_655
O3 Os2 1.941201 1_565
O3 Pb0 2.602969 1_554
O4 Os0 1.941201 1_655
O4 Os1 1.941201 1_556
O4 Pb0 2.602969 1_545
O5 Os2 1.983916 1_565
O5 Sc0 2.130029 1_555
O5 Pb1 2.497609 1_565
O5 Pb2 2.497609 1_565
O6 Os0 1.932665 1_555
O6 Sc0 2.109220 1_555
O6 Pb3 2.595602 1_556
O6 Pb2 2.595603 1_565
O7 Os2 1.956778 1_555
O7 Os1 1.956778 1_555
O7 Pb0 2.579995 1_544
O7 Pb1 2.738849 1_555
O8 Os1 1.932665 1_555
O8 Sc0 2.109219 1_555
O8 Pb1 2.595603 1_565
O8 Pb3 2.595603 1_655
O9 Os0 1.956778 1_555
O9 Os2 1.956778 1_555
O9 Pb0 2.579994 1_445
O9 Pb2 2.738849 1_555
O10 Os0 1.956778 1_555
O10 Os1 1.956778 1_555
O10 Pb0 2.579995 1_454
O10 Pb3 2.738849 1_555
O11 Os2 1.932665 1_555
O11 Sc0 2.109220 1_555
O11 Pb1 2.595602 1_556
O11 Pb2 2.595603 1_655
O12 Pb0 2.245459 1_444
O12 Pb2 2.304670 1_555
O12 Pb3 2.304671 1_555
O12 Pb1 2.304671 1_555
