# generated using pymatgen
data_YBiPd2O7
_symmetry_space_group_name_H-M   'P 1'
_cell_length_a   7.25861576
_cell_length_b   7.25861645
_cell_length_c   7.25861670
_cell_angle_alpha   120.28246932
_cell_angle_beta   119.88851632
_cell_angle_gamma   89.85232338
_symmetry_Int_Tables_number   1
_chemical_formula_structural   YBiPd2O7
_chemical_formula_sum   'Y2 Bi2 Pd4 O14'
_cell_volume   270.07038314
_cell_formula_units_Z   2
loop_
 _symmetry_equiv_pos_site_id
 _symmetry_equiv_pos_as_xyz
  1  'x, y, z'
loop_
 _atom_site_type_symbol
 _atom_site_label
 _atom_site_symmetry_multiplicity
 _atom_site_fract_x
 _atom_site_fract_y
 _atom_site_fract_z
 _atom_site_occupancy
  Y  Y0  1  0.00000000  0.50000000  0.50000000  1
  Y  Y1  1  0.50000000  0.50000000  0.00000000  1
  Bi  Bi0  1  0.00000000  0.50000000  0.00000000  1
  Bi  Bi1  1  0.00000000  0.00000000  0.50000000  1
  Pd  Pd0  1  0.50000000  0.00000000  0.00000000  1
  Pd  Pd1  1  0.50000000  0.50000000  0.50000000  1
  Pd  Pd2  1  0.50000000  0.00000000  0.50000000  1
  Pd  Pd3  1  0.00000000  0.00000000  0.00000000  1
  O  O0  1  0.86587990  0.61587990  0.25000000  1
  O  O1  1  0.13412010  0.38412010  0.75000000  1
  O  O2  1  0.83229598  0.08229598  0.75000000  1
  O  O3  1  0.41354595  0.66354595  0.75000000  1
  O  O4  1  0.83412722  0.66444983  0.74353344  1
  O  O5  1  0.42091639  0.09059478  0.75646656  1
  O  O6  1  0.83412722  0.09059478  0.16967839  1
  O  O7  1  0.42091639  0.66444983  0.33032161  1
  O  O8  1  0.16770402  0.91770402  0.25000000  1
  O  O9  1  0.58645405  0.33645405  0.25000000  1
  O  O10  1  0.16587278  0.33555017  0.25646656  1
  O  O11  1  0.57908361  0.90940522  0.24353344  1
  O  O12  1  0.16587278  0.90940522  0.83032161  1
  O  O13  1  0.57908361  0.33555017  0.66967839  1
loop_
_geom_bond_atom_site_label_1
_geom_bond_atom_site_label_2
_geom_bond_distance
_geom_bond_site_symmetry_2
Bi0 O1 2.272726 1_554
Bi0 O0 2.272726 1_455
Bi0 O8 2.497231 1_555
Bi0 O2 2.497231 1_454
Bi0 O7 2.517914 1_555
Bi0 O13 2.517914 1_454
Bi0 O4 2.517915 1_454
Bi0 O10 2.517915 1_555
Bi1 O1 2.272726 1_555
Bi1 O0 2.272726 1_445
Bi1 O8 2.497231 1_545
Bi1 O2 2.497231 1_455
Bi1 O5 2.517914 1_555
Bi1 O11 2.517914 1_445
Bi1 O12 2.517914 1_545
Bi1 O6 2.517914 1_455
O0 Y1 2.173180 1_555
O0 Y0 2.173180 1_655
O1 Y1 2.173180 1_556
O1 Y0 2.173180 1_555
O2 Pd2 2.004889 1_555
O2 Pd3 2.004889 1_656
O3 Pd1 2.013585 1_555
O3 Pd0 2.013585 1_566
O3 Y0 2.475850 1_555
O3 Y1 2.475850 1_556
O4 Pd1 2.011426 1_555
O4 Pd3 2.013938 1_666
O4 Y0 2.446426 1_655
O5 Pd0 2.011431 1_556
O5 Pd2 2.013937 1_555
O5 Y1 2.446420 1_556
O6 Pd0 2.011425 1_555
O6 Pd3 2.013943 1_655
O6 Y0 2.446420 1_655
O7 Pd1 2.011431 1_555
O7 Pd2 2.013937 1_565
O7 Y1 2.446420 1_555
O8 Pd2 2.004889 1_565
O8 Pd3 2.004889 1_565
O9 Pd1 2.013585 1_555
O9 Pd0 2.013585 1_555
O9 Y0 2.475850 1_655
O9 Y1 2.475850 1_555
O10 Pd1 2.011426 1_555
O10 Pd3 2.013938 1_555
O10 Y0 2.446426 1_555
O11 Pd0 2.011431 1_565
O11 Pd2 2.013937 1_565
O11 Y1 2.446420 1_555
O12 Pd0 2.011425 1_566
O12 Pd3 2.013943 1_566
O12 Y0 2.446420 1_555
O13 Pd1 2.011431 1_555
O13 Pd2 2.013937 1_555
O13 Y1 2.446420 1_556
