# generated using pymatgen
data_SrCa3(NbN3)2
_symmetry_space_group_name_H-M   'P 1'
_cell_length_a   6.14321418
_cell_length_b   6.14321461
_cell_length_c   12.33031446
_cell_angle_alpha   87.61487756
_cell_angle_beta   92.38511895
_cell_angle_gamma   58.10557216
_symmetry_Int_Tables_number   1
_chemical_formula_structural   SrCa3(NbN3)2
_chemical_formula_sum   'Sr2 Ca6 Nb4 N12'
_cell_volume   393.62651898
_cell_formula_units_Z   2
loop_
 _symmetry_equiv_pos_site_id
 _symmetry_equiv_pos_as_xyz
  1  'x, y, z'
loop_
 _atom_site_type_symbol
 _atom_site_label
 _atom_site_symmetry_multiplicity
 _atom_site_fract_x
 _atom_site_fract_y
 _atom_site_fract_z
 _atom_site_occupancy
  Sr  Sr0  1  0.61530696  0.14908604  0.92116376  1
  Sr  Sr1  1  0.14908704  0.61530596  0.57883624  1
  Ca  Ca0  1  0.53338057  0.06014654  0.36200904  1
  Ca  Ca1  1  0.06014654  0.53338057  0.13799096  1
  Ca  Ca2  1  0.46888247  0.93454107  0.62934654  1
  Ca  Ca3  1  0.93454107  0.46888347  0.87065346  1
  Ca  Ca4  1  0.39825566  0.83527924  0.07919132  1
  Ca  Ca5  1  0.83528024  0.39825466  0.42080868  1
  Nb  Nb0  1  0.22939501  0.76785038  0.33519929  1
  Nb  Nb1  1  0.76785038  0.22939501  0.16480071  1
  Nb  Nb2  1  0.77351277  0.23289960  0.66112065  1
  Nb  Nb3  1  0.23290060  0.77351177  0.83887935  1
  N  N0  1  0.41563386  0.78110838  0.45928995  1
  N  N1  1  0.78110838  0.41563386  0.04071005  1
  N  N2  1  0.60280120  0.20061780  0.53640096  1
  N  N3  1  0.20061880  0.60280020  0.96359904  1
  N  N4  1  0.69848144  0.97377848  0.12176839  1
  N  N5  1  0.97378048  0.69848044  0.37823061  1
  N  N6  1  0.28286588  0.03340826  0.89065062  1
  N  N7  1  0.03340926  0.28286588  0.60934838  1
  N  N8  1  0.10799998  0.10799898  0.25000000  1
  N  N9  1  0.89713812  0.89713712  0.75000000  1
  N  N10  1  0.48017554  0.48017454  0.25000000  1
  N  N11  1  0.52745475  0.52745375  0.75000000  1
loop_
_geom_bond_atom_site_label_1
_geom_bond_atom_site_label_2
_geom_bond_distance
_geom_bond_site_symmetry_2
Ca0 N5 2.421162 1_545
Ca0 N2 2.453034 1_555
Ca0 N0 2.472212 1_545
Ca0 N10 2.728911 1_555
Ca0 N8 2.770696 1_555
Ca1 N4 2.421152 1_455
Ca1 N3 2.453035 1_554
Ca1 N1 2.472212 1_455
Ca1 N10 2.728913 1_555
Ca1 N8 2.770699 1_555
Ca2 N7 2.376648 1_565
Ca2 N0 2.413599 1_555
Ca2 N2 2.450636 1_565
Ca2 N11 2.700321 1_555
Ca2 N9 2.862598 1_555
Ca3 N6 2.376655 1_655
Ca3 N1 2.413600 1_556
Ca3 N3 2.450633 1_655
Ca3 N11 2.700320 1_555
Ca3 N9 2.862591 1_555
Ca4 N4 2.452747 1_555
Ca4 N6 2.470643 1_564
Ca4 N1 2.488034 1_555
Ca4 N3 2.720831 1_554
Ca4 N10 2.795921 1_555
Ca4 N8 2.805634 1_565
Ca5 N5 2.452754 1_555
Ca5 N7 2.470632 1_655
Ca5 N0 2.488040 1_555
Ca5 N2 2.720831 1_555
Ca5 N10 2.795921 1_555
Ca5 N8 2.805634 1_655
N0 Nb0 1.902599 1_555
N0 Sr1 2.780267 1_555
N1 Nb1 1.902599 1_555
N1 Sr0 2.780268 1_554
N2 Nb2 1.901312 1_555
N2 Sr1 2.694719 1_555
N3 Nb3 1.901312 1_555
N3 Sr0 2.694719 1_555
N4 Nb1 1.920070 1_565
N4 Sr0 2.575033 1_564
N5 Nb0 1.920059 1_655
N5 Sr1 2.575043 1_655
N6 Nb3 1.907153 1_545
N6 Sr0 2.511826 1_555
N7 Nb2 1.907161 1_455
N7 Sr1 2.511818 1_555
N8 Nb0 2.032633 1_545
N8 Nb1 2.032636 1_455
N9 Nb3 2.029681 1_655
N9 Nb2 2.029681 1_565
N9 Sr0 2.755306 1_565
N9 Sr1 2.755306 1_655
N10 Nb1 2.003106 1_555
N10 Nb0 2.003111 1_555
N11 Nb3 2.042749 1_555
N11 Nb2 2.042749 1_555
N11 Sr1 2.884369 1_555
N11 Sr0 2.884369 1_555
