# generated using pymatgen
data_GaSCl7
_symmetry_space_group_name_H-M   'P 1'
_cell_length_a   6.33445088
_cell_length_b   6.68486162
_cell_length_c   12.83092162
_cell_angle_alpha   76.68069280
_cell_angle_beta   90.00000000
_cell_angle_gamma   90.00000000
_symmetry_Int_Tables_number   1
_chemical_formula_structural   GaSCl7
_chemical_formula_sum   'Ga2 S2 Cl14'
_cell_volume   528.70972362
_cell_formula_units_Z   2
loop_
 _symmetry_equiv_pos_site_id
 _symmetry_equiv_pos_as_xyz
  1  'x, y, z'
loop_
 _atom_site_type_symbol
 _atom_site_label
 _atom_site_symmetry_multiplicity
 _atom_site_fract_x
 _atom_site_fract_y
 _atom_site_fract_z
 _atom_site_occupancy
  Ga  Ga0  1  0.49054067  0.54395203  0.85436387  1
  Ga  Ga1  1  0.50945933  0.54395203  0.35436387  1
  S  S0  1  0.07877038  0.88507244  0.69207979  1
  S  S1  1  0.92122962  0.88507244  0.19207979  1
  Cl  Cl0  1  0.70534125  0.05755484  0.09855347  1
  Cl  Cl1  1  0.11581134  0.81556246  0.08294568  1
  Cl  Cl2  1  0.34837556  0.31057839  0.98162880  1
  Cl  Cl3  1  0.29465875  0.05755484  0.59855347  1
  Cl  Cl4  1  0.91702155  0.09820887  0.74597138  1
  Cl  Cl5  1  0.65162444  0.31057839  0.48162880  1
  Cl  Cl6  1  0.16577313  0.51369621  0.35786038  1
  Cl  Cl7  1  0.40480092  0.85023035  0.87653097  1
  Cl  Cl8  1  0.83422687  0.51369621  0.85786038  1
  Cl  Cl9  1  0.59519908  0.85023035  0.37653097  1
  Cl  Cl10  1  0.62924926  0.51684340  0.19796567  1
  Cl  Cl11  1  0.88418866  0.81556246  0.58294568  1
  Cl  Cl12  1  0.37075074  0.51684340  0.69796567  1
  Cl  Cl13  1  0.08297845  0.09820887  0.24597138  1
loop_
_geom_bond_atom_site_label_1
_geom_bond_atom_site_label_2
_geom_bond_distance
_geom_bond_site_symmetry_2
Cl0 S1 2.000537 1_545
Cl1 S1 1.998938 1_455
Cl2 Ga0 2.176573 1_555
Cl3 S0 2.000537 1_545
Cl4 S0 2.002970 1_645
Cl5 Ga1 2.176573 1_555
Cl6 Ga1 2.185942 1_555
Cl7 Ga0 2.199124 1_555
Cl8 Ga0 2.185942 1_555
Cl9 Ga1 2.199124 1_555
Cl10 Ga1 2.191610 1_555
Cl11 S0 1.998938 1_655
Cl12 Ga0 2.191610 1_555
Cl13 S1 2.002970 1_445
