# generated using pymatgen
data_Ti8Cu(SiSb2)2
_symmetry_space_group_name_H-M   'P 1'
_cell_length_a   4.95070276
_cell_length_b   7.70694344
_cell_length_c   7.70694349
_cell_angle_alpha   95.92113512
_cell_angle_beta   108.73458730
_cell_angle_gamma   71.26542421
_symmetry_Int_Tables_number   1
_chemical_formula_structural   Ti8Cu(SiSb2)2
_chemical_formula_sum   'Ti8 Cu1 Si2 Sb4'
_cell_volume   263.72201040
_cell_formula_units_Z   1
loop_
 _symmetry_equiv_pos_site_id
 _symmetry_equiv_pos_as_xyz
  1  'x, y, z'
loop_
 _atom_site_type_symbol
 _atom_site_label
 _atom_site_symmetry_multiplicity
 _atom_site_fract_x
 _atom_site_fract_y
 _atom_site_fract_z
 _atom_site_occupancy
  Ti  Ti0  1  0.41599770  0.87593058  0.71473500  1
  Ti  Ti1  1  0.57719329  0.12406942  0.28526500  1
  Ti  Ti2  1  0.92280671  0.28526500  0.12406942  1
  Ti  Ti3  1  0.08400230  0.71473500  0.87593058  1
  Ti  Ti4  1  0.70807172  0.71473500  0.12406942  1
  Ti  Ti5  1  0.29873729  0.28526500  0.87593058  1
  Ti  Ti6  1  0.79192828  0.12406942  0.71473500  1
  Ti  Ti7  1  0.20126271  0.87593058  0.28526500  1
  Cu  Cu0  1  0.25000000  0.50000000  0.50000000  1
  Si  Si0  1  0.25000000  0.00000000  0.00000000  1
  Si  Si1  1  0.75000000  0.00000000  0.00000000  1
  Sb  Sb0  1  0.37296070  0.50000000  0.20070872  1
  Sb  Sb1  1  0.67225197  0.50000000  0.79929128  1
  Sb  Sb2  1  0.82774803  0.79929128  0.50000000  1
  Sb  Sb3  1  0.12703930  0.20070872  0.50000000  1
loop_
_geom_bond_atom_site_label_1
_geom_bond_atom_site_label_2
_geom_bond_distance
_geom_bond_site_symmetry_2
Cu0 Sb1 2.567691 1_555
Cu0 Sb3 2.567692 1_555
Cu0 Sb2 2.567692 1_455
Cu0 Sb0 2.567692 1_555
Si0 Si1 2.475351 1_455
Si0 Si1 2.475351 1_555
Si0 Ti1 2.577842 1_555
Si0 Ti3 2.577842 1_544
Si0 Ti0 2.577842 1_544
Si0 Ti2 2.577842 1_455
Si0 Ti6 2.593976 1_454
Si0 Ti4 2.593976 1_545
Si0 Ti5 2.593976 1_554
Si0 Ti7 2.593976 1_545
Si1 Ti7 2.577842 1_645
Si1 Ti5 2.577842 1_554
Si1 Ti4 2.577842 1_545
Si1 Ti6 2.577842 1_554
Si1 Ti0 2.593976 1_544
Si1 Ti2 2.593976 1_555
Si1 Ti1 2.593976 1_555
Si1 Ti3 2.593976 1_644
Sb0 Ti1 2.815264 1_555
Sb0 Ti7 2.815264 1_555
Sb0 Ti3 2.843287 1_554
Sb0 Ti5 2.843287 1_554
Sb0 Ti4 2.904304 1_555
Sb0 Ti2 2.904304 1_555
Sb0 Ti2 3.062063 1_455
Sb0 Ti4 3.062063 1_455
Sb1 Ti0 2.815264 1_555
Sb1 Ti6 2.815264 1_555
Sb1 Ti2 2.843287 1_556
Sb1 Ti4 2.843287 1_556
Sb1 Ti3 2.904304 1_655
Sb1 Ti5 2.904304 1_655
Sb1 Ti5 3.062063 1_555
Sb1 Ti3 3.062064 1_555
Sb2 Ti3 2.815264 1_655
Sb2 Ti4 2.815264 1_555
Sb2 Ti1 2.843287 1_565
Sb2 Ti6 2.843287 1_565
Sb2 Ti7 2.904303 1_555
Sb2 Ti0 2.904304 1_555
Sb2 Ti0 3.062063 1_655
Sb2 Ti7 3.062064 1_655
Sb3 Ti2 2.815264 1_455
Sb3 Ti5 2.815264 1_555
Sb3 Ti0 2.843287 1_545
Sb3 Ti7 2.843287 1_545
Sb3 Ti1 2.904303 1_455
Sb3 Ti6 2.904304 1_455
Sb3 Ti6 3.062063 1_555
Sb3 Ti1 3.062064 1_555
