# generated using pymatgen
data_U(IO4)2
_symmetry_space_group_name_H-M   'P 1'
_cell_length_a   16.29437508
_cell_length_b   4.20568673
_cell_length_c   5.71997809
_cell_angle_alpha   62.46569712
_cell_angle_beta   90.00000000
_cell_angle_gamma   90.00000000
_symmetry_Int_Tables_number   1
_chemical_formula_structural   U(IO4)2
_chemical_formula_sum   'U2 I4 O16'
_cell_volume   347.58615224
_cell_formula_units_Z   2
loop_
 _symmetry_equiv_pos_site_id
 _symmetry_equiv_pos_as_xyz
  1  'x, y, z'
loop_
 _atom_site_type_symbol
 _atom_site_label
 _atom_site_symmetry_multiplicity
 _atom_site_fract_x
 _atom_site_fract_y
 _atom_site_fract_z
 _atom_site_occupancy
  U  U0  1  0.50000000  0.50000000  -0.00000000  1
  U  U1  1  -0.00000000  0.50000000  0.50000000  1
  I  I0  1  0.66277192  0.89071362  0.29264116  1
  I  I1  1  0.16277192  0.10928638  0.20735884  1
  I  I2  1  0.33722808  0.10928638  0.70735884  1
  I  I3  1  0.83722808  0.89071362  0.79264116  1
  O  O0  1  0.44122315  0.31573937  0.30223023  1
  O  O1  1  0.94122315  0.68426063  0.19776977  1
  O  O2  1  0.55877685  0.68426063  0.69776977  1
  O  O3  1  0.05877685  0.31573937  0.80223023  1
  O  O4  1  0.63069335  0.33402176  0.24921470  1
  O  O5  1  0.13069335  0.66597824  0.25078530  1
  O  O6  1  0.93584822  0.91914692  0.61656738  1
  O  O7  1  0.43584822  0.08085308  0.88343262  1
  O  O8  1  0.06415178  0.08085308  0.38343262  1
  O  O9  1  0.56415178  0.91914692  0.11656738  1
  O  O10  1  0.77144882  0.05078051  0.50881599  1
  O  O11  1  0.27144882  0.94921949  0.99118401  1
  O  O12  1  0.22855118  0.94921949  0.49118401  1
  O  O13  1  0.72855118  0.05078051  0.00881599  1
  O  O14  1  0.86930665  0.33402176  0.74921470  1
  O  O15  1  0.36930665  0.66597824  0.75078530  1
loop_
_geom_bond_atom_site_label_1
_geom_bond_atom_site_label_2
_geom_bond_distance
_geom_bond_site_symmetry_2
I0 O13 1.796446 1_565
I0 O4 1.839234 1_565
I0 O9 1.870716 1_555
I0 O10 2.426434 1_565
I0 O4 2.520747 1_555
I1 O12 1.796446 1_545
I1 O5 1.839234 1_545
I1 O8 1.870716 1_555
I1 O11 2.426434 1_544
I1 O5 2.520747 1_555
I2 O11 1.796446 1_545
I2 O15 1.839234 1_545
I2 O7 1.870716 1_555
I2 O12 2.426434 1_545
I2 O15 2.520747 1_555
I3 O10 1.796446 1_565
I3 O14 1.839234 1_565
I3 O6 1.870716 1_555
I3 O13 2.426434 1_566
I3 O14 2.520747 1_555
O0 U0 1.807692 1_555
O1 U1 1.807692 1_655
O2 U0 1.807692 1_556
O3 U1 1.807692 1_555
O4 U0 2.476768 1_555
O5 U1 2.476768 1_555
O6 U1 2.394038 1_655
O6 U1 2.449285 1_665
O7 U0 2.394038 1_556
O7 U0 2.449285 1_546
O8 U1 2.394038 1_555
O8 U1 2.449285 1_545
O9 U0 2.394038 1_555
O9 U0 2.449285 1_565
O14 U1 2.476768 1_655
O15 U0 2.476768 1_556
