# generated using pymatgen
data_Hf7Zr6Al9Ir7
_symmetry_space_group_name_H-M   'P 1'
_cell_length_a   9.06170927
_cell_length_b   9.06170919
_cell_length_c   9.06170911
_cell_angle_alpha   59.62391135
_cell_angle_beta   59.62391546
_cell_angle_gamma   59.62391480
_symmetry_Int_Tables_number   1
_chemical_formula_structural   Hf7Zr6Al9Ir7
_chemical_formula_sum   'Hf7 Zr6 Al9 Ir7'
_cell_volume   521.66008151
_cell_formula_units_Z   1
loop_
 _symmetry_equiv_pos_site_id
 _symmetry_equiv_pos_as_xyz
  1  'x, y, z'
loop_
 _atom_site_type_symbol
 _atom_site_label
 _atom_site_symmetry_multiplicity
 _atom_site_fract_x
 _atom_site_fract_y
 _atom_site_fract_z
 _atom_site_occupancy
  Hf  Hf0  1  0.88149588  0.88149588  0.36497897  1
  Hf  Hf1  1  0.88149588  0.36497897  0.88149588  1
  Hf  Hf2  1  0.36497897  0.88149588  0.88149588  1
  Hf  Hf3  1  0.87608376  0.87608376  0.87608376  1
  Hf  Hf4  1  0.12372573  0.12372573  0.62883236  1
  Hf  Hf5  1  0.12372573  0.62883236  0.12372573  1
  Hf  Hf6  1  0.62883236  0.12372573  0.12372573  1
  Zr  Zr0  1  0.68435371  0.68435371  0.31726605  1
  Zr  Zr1  1  0.31173381  0.69159204  0.31173381  1
  Zr  Zr2  1  0.69159204  0.31173381  0.31173381  1
  Zr  Zr3  1  0.31173381  0.31173381  0.69159204  1
  Zr  Zr4  1  0.68435371  0.31726605  0.68435371  1
  Zr  Zr5  1  0.31726605  0.68435371  0.68435371  1
  Al  Al0  1  0.12167068  0.12167068  0.12167068  1
  Al  Al1  1  0.65656356  0.65656356  0.02788369  1
  Al  Al2  1  0.65656356  0.02788369  0.65656356  1
  Al  Al3  1  0.02788369  0.65656356  0.65656356  1
  Al  Al4  1  0.65931391  0.65931391  0.65931391  1
  Al  Al5  1  0.33632273  0.33632273  0.98017811  1
  Al  Al6  1  0.33632273  0.98017811  0.33632273  1
  Al  Al7  1  0.98017811  0.33632273  0.33632273  1
  Al  Al8  1  0.34498765  0.34498765  0.34498765  1
  Ir  Ir0  1  0.99794975  0.99794975  0.99794975  1
  Ir  Ir1  1  0.99971971  0.99971971  0.50170042  1
  Ir  Ir2  1  0.50038598  0.99896039  0.50038598  1
  Ir  Ir3  1  0.99896039  0.50038598  0.50038598  1
  Ir  Ir4  1  0.50038598  0.50038598  0.99896039  1
  Ir  Ir5  1  0.99971971  0.50170042  0.99971971  1
  Ir  Ir6  1  0.50170042  0.99971971  0.99971971  1
loop_
_geom_bond_atom_site_label_1
_geom_bond_atom_site_label_2
_geom_bond_distance
_geom_bond_site_symmetry_2
Hf0 Ir0 2.704808 1_554
Hf0 Ir1 2.770517 1_555
Hf0 Ir3 2.807643 1_555
Hf0 Ir2 2.807643 1_555
Hf1 Ir0 2.704808 1_545
Hf1 Ir5 2.770517 1_555
Hf1 Ir3 2.807643 1_555
Hf1 Ir4 2.807643 1_555
Hf2 Ir0 2.704808 1_455
Hf2 Ir6 2.770517 1_555
Hf2 Ir2 2.807643 1_555
Hf2 Ir4 2.807643 1_555
Hf3 Ir0 2.712669 1_555
Hf3 Ir1 2.757038 1_555
Hf3 Ir5 2.757038 1_555
Hf3 Ir6 2.757038 1_555
Hf4 Ir0 2.718212 1_445
Hf4 Ir3 2.773657 1_455
Hf4 Ir2 2.773657 1_545
Hf4 Ir1 2.783546 1_445
Hf5 Ir0 2.718212 1_454
Hf5 Ir3 2.773657 1_455
Hf5 Ir4 2.773657 1_554
Hf5 Ir5 2.783546 1_454
Hf6 Ir0 2.718212 1_544
Hf6 Ir2 2.773657 1_545
Hf6 Ir4 2.773657 1_554
Hf6 Ir6 2.783546 1_544
Al0 Ir0 2.753959 1_444
Al0 Ir1 2.799844 1_445
Al0 Ir5 2.799844 1_454
Al0 Ir6 2.799844 1_544
Al0 Al6 2.827150 1_545
Al0 Al5 2.827150 1_554
Al0 Al7 2.827150 1_455
Al0 Hf1 3.069045 1_454
Al0 Hf0 3.069045 1_445
Al0 Hf2 3.069045 1_544
Al0 Zr1 3.247206 1_545
Al0 Zr3 3.247206 1_554
Al0 Zr2 3.247207 1_455
Al1 Ir6 2.617304 1_554
Al1 Ir5 2.617304 1_554
Al1 Ir4 2.617321 1_554
Al1 Zr2 2.859174 1_555
Al1 Zr1 2.859174 1_555
Al1 Hf2 2.873895 1_554
Al1 Hf1 2.873895 1_554
Al1 Hf3 2.876359 1_554
Al1 Zr0 2.898816 1_555
Al2 Ir6 2.617304 1_545
Al2 Ir1 2.617304 1_545
Al2 Ir2 2.617321 1_545
Al2 Zr2 2.859174 1_555
Al2 Zr3 2.859174 1_555
Al2 Hf2 2.873895 1_545
Al2 Hf0 2.873895 1_545
Al2 Hf3 2.876359 1_545
Al2 Zr4 2.898816 1_555
Al3 Ir5 2.617304 1_455
Al3 Ir1 2.617304 1_455
Al3 Ir3 2.617321 1_455
Al3 Zr3 2.859174 1_555
Al3 Zr1 2.859174 1_555
Al3 Hf0 2.873894 1_455
Al3 Hf1 2.873895 1_455
Al3 Hf3 2.876359 1_455
Al3 Zr5 2.898816 1_555
Al4 Ir2 2.598625 1_555
Al4 Ir4 2.598625 1_555
Al4 Ir3 2.598625 1_555
Al4 Zr0 2.887841 1_555
Al4 Zr4 2.887841 1_555
Al4 Zr5 2.887841 1_555
Al4 Hf1 2.908395 1_555
Al4 Hf0 2.908395 1_555
Al4 Hf2 2.908395 1_555
Al5 Ir6 2.584589 1_545
Al5 Ir5 2.584589 1_455
Al5 Ir4 2.682654 1_555
Al5 Zr3 2.857755 1_555
Al5 Hf6 2.866630 1_556
Al5 Hf5 2.866630 1_556
Al5 Zr5 2.920490 1_555
Al5 Zr4 2.920490 1_555
Al6 Ir6 2.584589 1_554
Al6 Ir1 2.584589 1_455
Al6 Ir2 2.682654 1_555
Al6 Zr1 2.857755 1_555
Al6 Hf6 2.866630 1_565
Al6 Hf4 2.866630 1_565
Al6 Zr5 2.920490 1_555
Al6 Zr0 2.920490 1_555
Al7 Ir5 2.584589 1_554
Al7 Ir1 2.584589 1_545
Al7 Ir3 2.682654 1_555
Al7 Zr2 2.857755 1_555
Al7 Hf4 2.866630 1_655
Al7 Hf5 2.866630 1_655
Al7 Zr0 2.920490 1_555
Al7 Zr4 2.920490 1_555
Al8 Ir2 2.621487 1_545
Al8 Ir4 2.621487 1_554
Al8 Ir3 2.621488 1_455
Al8 Zr3 2.867729 1_555
Al8 Zr1 2.867729 1_555
Al8 Zr2 2.867729 1_555
Al8 Hf5 2.879293 1_555
Al8 Hf4 2.879293 1_555
Al8 Hf6 2.879293 1_555
