# generated using pymatgen
data_Sb6PdRu
_symmetry_space_group_name_H-M   'P 1'
_cell_length_a   8.10808250
_cell_length_b   8.10816610
_cell_length_c   9.37176747
_cell_angle_alpha   54.73603378
_cell_angle_beta   54.73609364
_cell_angle_gamma   70.52286523
_symmetry_Int_Tables_number   1
_chemical_formula_structural   Sb6PdRu
_chemical_formula_sum   'Sb12 Pd2 Ru2'
_cell_volume   410.74841456
_cell_formula_units_Z   2
loop_
 _symmetry_equiv_pos_site_id
 _symmetry_equiv_pos_as_xyz
  1  'x, y, z'
loop_
 _atom_site_type_symbol
 _atom_site_label
 _atom_site_symmetry_multiplicity
 _atom_site_fract_x
 _atom_site_fract_y
 _atom_site_fract_z
 _atom_site_occupancy
  Sb  Sb0  1  0.15555568  0.15556701  0.17610362  1
  Sb  Sb1  1  0.84444432  0.84443299  0.82389638  1
  Sb  Sb2  1  0.84751102  0.84750425  0.50081325  1
  Sb  Sb3  1  0.15248898  0.15249575  0.49918675  1
  Sb  Sb4  1  0.81364870  0.50471987  0.33606501  1
  Sb  Sb5  1  0.18635130  0.49528013  0.66393499  1
  Sb  Sb6  1  0.50474091  0.81366570  0.33604399  1
  Sb  Sb7  1  0.49525909  0.18633430  0.66395601  1
  Sb  Sb8  1  0.65512214  0.33608286  0.85055649  1
  Sb  Sb9  1  0.34487786  0.66391714  0.14944351  1
  Sb  Sb10  1  0.66389644  0.34487621  0.14945740  1
  Sb  Sb11  1  0.33610356  0.65512379  0.85054260  1
  Pd  Pd0  1  0.00000000  0.50000000  0.50000000  1
  Pd  Pd1  1  0.50000000  0.00000000  0.50000000  1
  Ru  Ru0  1  0.00000000  0.50000000  0.00000000  1
  Ru  Ru1  1  0.50000000  0.00000000  0.00000000  1
loop_
_geom_bond_atom_site_label_1
_geom_bond_atom_site_label_2
_geom_bond_distance
_geom_bond_site_symmetry_2
Sb0 Sb2 2.888761 1_445
Sb0 Sb3 2.999265 1_555
Sb1 Sb3 2.888761 1_665
Sb1 Sb2 2.999265 1_555
Sb4 Sb6 2.892102 1_555
Sb4 Sb7 2.982562 1_555
Sb5 Sb7 2.892102 1_555
Sb5 Sb6 2.982562 1_555
Sb10 Sb8 2.884640 1_554
Sb10 Sb9 2.986684 1_555
Sb11 Sb9 2.884640 1_556
Sb11 Sb8 2.986684 1_555
Pd0 Sb2 2.675537 1_455
Pd0 Sb3 2.675537 1_555
Pd0 Sb9 2.684731 1_555
Pd0 Sb8 2.684731 1_455
Pd0 Sb5 2.686791 1_555
Pd0 Sb4 2.686791 1_455
Pd1 Sb2 2.675568 1_545
Pd1 Sb3 2.675568 1_555
Pd1 Sb10 2.684669 1_555
Pd1 Sb11 2.684669 1_545
Pd1 Sb7 2.686772 1_555
Pd1 Sb6 2.686772 1_545
Ru0 Sb4 2.609531 1_455
Ru0 Sb5 2.609531 1_554
Ru0 Sb11 2.610428 1_554
Ru0 Sb10 2.610428 1_455
Ru0 Sb1 2.616574 1_454
Ru0 Sb0 2.616574 1_555
Ru1 Sb6 2.609459 1_545
Ru1 Sb7 2.609459 1_554
Ru1 Sb8 2.610333 1_554
Ru1 Sb9 2.610333 1_545
Ru1 Sb1 2.616662 1_544
Ru1 Sb0 2.616662 1_555
