# generated using pymatgen
data_Ba2NaInPb2
_symmetry_space_group_name_H-M   'P 1'
_cell_length_a   5.18222324
_cell_length_b   8.55108639
_cell_length_c   19.25302661
_cell_angle_alpha   90.00000000
_cell_angle_beta   90.00000000
_cell_angle_gamma   90.00000000
_symmetry_Int_Tables_number   1
_chemical_formula_structural   Ba2NaInPb2
_chemical_formula_sum   'Ba8 Na4 In4 Pb8'
_cell_volume   853.17166322
_cell_formula_units_Z   4
loop_
 _symmetry_equiv_pos_site_id
 _symmetry_equiv_pos_as_xyz
  1  'x, y, z'
loop_
 _atom_site_type_symbol
 _atom_site_label
 _atom_site_symmetry_multiplicity
 _atom_site_fract_x
 _atom_site_fract_y
 _atom_site_fract_z
 _atom_site_occupancy
  Ba  Ba0  1  0.25000000  0.35125779  0.94198498  1
  Ba  Ba1  1  0.25000000  0.85125779  0.55801502  1
  Ba  Ba2  1  0.75000000  0.14874221  0.44198498  1
  Ba  Ba3  1  0.75000000  0.49474176  0.27400834  1
  Ba  Ba4  1  0.75000000  0.99474176  0.22599166  1
  Ba  Ba5  1  0.75000000  0.64874221  0.05801502  1
  Ba  Ba6  1  0.25000000  0.50525824  0.72599166  1
  Ba  Ba7  1  0.25000000  0.00525824  0.77400834  1
  Na  Na0  1  0.25000000  0.99302338  0.07088891  1
  Na  Na1  1  0.75000000  0.50697662  0.57088891  1
  Na  Na2  1  0.75000000  0.00697662  0.92911109  1
  Na  Na3  1  0.25000000  0.49302338  0.42911109  1
  In  In0  1  0.75000000  0.16404263  0.65776504  1
  In  In1  1  0.25000000  0.83595737  0.34223496  1
  In  In2  1  0.75000000  0.66404263  0.84223496  1
  In  In3  1  0.25000000  0.33595737  0.15776504  1
  Pb  Pb0  1  0.75000000  0.23663755  0.07149181  1
  Pb  Pb1  1  0.75000000  0.79261037  0.68611209  1
  Pb  Pb2  1  0.25000000  0.20738963  0.31388791  1
  Pb  Pb3  1  0.25000000  0.70738963  0.18611209  1
  Pb  Pb4  1  0.25000000  0.26336245  0.57149181  1
  Pb  Pb5  1  0.75000000  0.29261037  0.81388791  1
  Pb  Pb6  1  0.25000000  0.76336245  0.92850819  1
  Pb  Pb7  1  0.75000000  0.73663755  0.42850819  1
loop_
_geom_bond_atom_site_label_1
_geom_bond_atom_site_label_2
_geom_bond_distance
_geom_bond_site_symmetry_2
Ba0 Pb6 3.533482 1_555
Ba0 Pb5 3.612171 1_555
Ba0 Pb5 3.612171 1_455
Ba0 Pb0 3.727136 1_456
Ba0 Pb0 3.727136 1_556
Ba1 Pb4 3.533482 1_565
Ba1 Pb1 3.612171 1_555
Ba1 Pb1 3.612171 1_455
Ba1 Pb7 3.727136 1_555
Ba1 Pb7 3.727136 1_455
Ba2 Pb7 3.533482 1_545
Ba2 Pb2 3.612171 1_555
Ba2 Pb2 3.612171 1_655
Ba2 Pb4 3.727136 1_655
Ba2 Pb4 3.727136 1_555
Ba3 Pb3 3.589443 1_555
Ba3 Pb3 3.589443 1_655
Ba3 Pb7 3.623087 1_555
Ba3 Pb2 3.652544 1_555
Ba3 Pb2 3.652544 1_655
Ba3 In3 3.683236 1_555
Ba3 In3 3.683236 1_655
Ba4 Pb2 3.589443 1_565
Ba4 Pb2 3.589443 1_665
Ba4 Pb0 3.623087 1_565
Ba4 Pb3 3.652544 1_655
Ba4 Pb3 3.652544 1_555
Ba4 In1 3.683236 1_555
Ba4 In1 3.683236 1_655
Ba5 Pb0 3.533482 1_555
Ba5 Pb3 3.612171 1_655
Ba5 Pb3 3.612171 1_555
Ba5 Pb6 3.727136 1_654
Ba5 Pb6 3.727136 1_554
Ba6 Pb5 3.589443 1_555
Ba6 Pb5 3.589443 1_455
Ba6 Pb4 3.623087 1_555
Ba6 Pb1 3.652544 1_555
Ba6 Pb1 3.652544 1_455
Ba6 In2 3.683236 1_455
Ba6 In2 3.683236 1_555
Ba7 Pb1 3.589443 1_445
Ba7 Pb1 3.589443 1_545
Ba7 Pb6 3.623087 1_545
Ba7 Pb5 3.652544 1_555
Ba7 Pb5 3.652544 1_455
Ba7 In0 3.683236 1_455
Ba7 In0 3.683236 1_555
Na0 Pb3 3.299542 1_555
Na0 Pb0 3.324692 1_565
Na0 Pb0 3.324692 1_465
Na0 Pb6 3.372123 1_554
Na1 Pb1 3.299542 1_555
Na1 Pb4 3.324692 1_655
Na1 Pb4 3.324692 1_555
Na1 Pb7 3.372123 1_555
Na2 Pb5 3.299542 1_555
Na2 Pb6 3.324692 1_545
Na2 Pb6 3.324692 1_645
Na2 Pb0 3.372123 1_556
Na3 Pb2 3.299542 1_555
Na3 Pb7 3.324692 1_555
Na3 Pb7 3.324692 1_455
Na3 Pb4 3.372123 1_555
In0 Pb4 3.192827 1_655
In0 Pb4 3.192827 1_555
In0 Pb5 3.200582 1_555
In0 Pb1 3.222699 1_545
In0 Na1 3.375944 1_555
In1 Pb7 3.192827 1_455
In1 Pb7 3.192827 1_555
In1 Pb3 3.200582 1_555
In1 Pb2 3.222699 1_565
In1 Na3 3.375944 1_555
In2 Pb6 3.192827 1_555
In2 Pb6 3.192827 1_655
In2 Pb1 3.200582 1_555
In2 Pb5 3.222699 1_555
In2 Na2 3.375944 1_565
In3 Pb0 3.192827 1_455
In3 Pb0 3.192827 1_555
In3 Pb2 3.200582 1_555
In3 Pb3 3.222699 1_555
In3 Na0 3.375944 1_545
