# generated using pymatgen
data_LiLuB4Ir5
_symmetry_space_group_name_H-M   'P 1'
_cell_length_a   7.37597418
_cell_length_b   6.25136976
_cell_length_c   5.49190765
_cell_angle_alpha   77.52213170
_cell_angle_beta   55.84403476
_cell_angle_gamma   46.63381713
_symmetry_Int_Tables_number   1
_chemical_formula_structural   LiLuB4Ir5
_chemical_formula_sum   'Li1 Lu1 B4 Ir5'
_cell_volume   146.17135542
_cell_formula_units_Z   1
loop_
 _symmetry_equiv_pos_site_id
 _symmetry_equiv_pos_as_xyz
  1  'x, y, z'
loop_
 _atom_site_type_symbol
 _atom_site_label
 _atom_site_symmetry_multiplicity
 _atom_site_fract_x
 _atom_site_fract_y
 _atom_site_fract_z
 _atom_site_occupancy
  Li  Li0  1  0.84470520  0.84470320  0.15529580  1
  Lu  Lu0  1  0.12354140  0.12354040  0.87645960  1
  B  B0  1  0.48637608  0.79306879  0.20693121  1
  B  B1  1  0.21643070  0.52158121  0.47841879  1
  B  B2  1  0.79306979  0.48637508  0.51362492  1
  B  B3  1  0.52158221  0.21642970  0.78357030  1
  Ir  Ir0  1  0.50107357  0.50107357  0.99892643  1
  Ir  Ir1  1  0.25394103  0.25394103  0.24605897  1
  Ir  Ir2  1  0.00107357  0.00107357  0.49892643  1
  Ir  Ir3  1  0.50426842  0.50426742  0.49573158  1
  Ir  Ir4  1  0.75394103  0.75394003  0.74605897  1
loop_
_geom_bond_atom_site_label_1
_geom_bond_atom_site_label_2
_geom_bond_distance
_geom_bond_site_symmetry_2
Li0 Lu0 3.137961 1_664
B0 Ir4 2.087232 1_554
B0 Ir1 2.087234 1_565
B0 Ir3 2.112569 1_555
B0 Ir2 2.266919 1_565
B0 Ir0 2.266920 1_554
B0 Li0 2.731419 1_555
B0 Lu0 3.096813 1_654
B0 Lu0 3.096813 1_565
B1 Ir1 2.096363 1_555
B1 Ir4 2.096364 1_455
B1 Ir3 2.105917 1_555
B1 Ir0 2.219661 1_554
B1 Ir2 2.219661 1_565
B1 Lu0 3.122286 1_555
B2 Ir4 2.087225 1_555
B2 Ir1 2.087230 1_655
B2 Ir3 2.112576 1_555
B2 Ir0 2.266915 1_555
B2 Ir2 2.266915 1_655
B2 Li0 2.731419 1_555
B2 Lu0 3.096813 1_565
B2 Lu0 3.096813 1_654
B3 Ir1 2.096358 1_556
B3 Ir4 2.096364 1_545
B3 Ir3 2.105923 1_555
B3 Ir2 2.219657 1_655
B3 Ir0 2.219658 1_555
B3 Lu0 3.122286 1_555
Ir0 Lu0 3.072413 1_565
Ir0 Lu0 3.072421 1_655
Ir0 Li0 3.261431 1_456
Ir0 Li0 3.261440 1_546
Ir1 Li0 2.929769 1_455
Ir1 Li0 2.929779 1_545
Ir1 Lu0 3.113482 1_554
Ir1 Lu0 3.113489 1_555
Ir2 Lu0 3.072413 1_554
Ir2 Lu0 3.072421 1_555
Ir2 Li0 3.261433 1_445
Ir2 Li0 3.261437 1_446
Ir3 Lu0 3.036365 1_654
Ir3 Lu0 3.036370 1_565
Ir3 Li0 3.262261 1_456
Ir3 Li0 3.262262 1_545
Ir4 Li0 2.929772 1_555
Ir4 Li0 2.929780 1_556
Ir4 Lu0 3.113481 1_565
Ir4 Lu0 3.113486 1_655
