# generated using pymatgen
data_Ca3Rh4PbO14
_symmetry_space_group_name_H-M   'P 1'
_cell_length_a   7.14814027
_cell_length_b   7.14813871
_cell_length_c   7.14814014
_cell_angle_alpha   60.46443847
_cell_angle_beta   60.46443536
_cell_angle_gamma   60.46443779
_symmetry_Int_Tables_number   1
_chemical_formula_structural   Ca3Rh4PbO14
_chemical_formula_sum   'Ca3 Rh4 Pb1 O14'
_cell_volume   260.97556272
_cell_formula_units_Z   1
loop_
 _symmetry_equiv_pos_site_id
 _symmetry_equiv_pos_as_xyz
  1  'x, y, z'
loop_
 _atom_site_type_symbol
 _atom_site_label
 _atom_site_symmetry_multiplicity
 _atom_site_fract_x
 _atom_site_fract_y
 _atom_site_fract_z
 _atom_site_occupancy
  Ca  Ca0  1  0.62500000  0.12500000  0.62500000  1
  Ca  Ca1  1  0.62500000  0.62500000  0.12500000  1
  Ca  Ca2  1  0.12500000  0.62500000  0.62500000  1
  Rh  Rh0  1  0.62500000  0.12500000  0.12500000  1
  Rh  Rh1  1  0.12500000  0.62500000  0.12500000  1
  Rh  Rh2  1  0.12500000  0.12500000  0.62500000  1
  Rh  Rh3  1  0.12500000  0.12500000  0.12500000  1
  Pb  Pb0  1  0.62500000  0.62500000  0.62500000  1
  O  O0  1  0.20291301  0.20291301  0.79656631  1
  O  O1  1  0.20291301  0.79656631  0.20291301  1
  O  O2  1  0.45343369  0.04708699  0.04708699  1
  O  O3  1  0.21287505  0.79827055  0.79827055  1
  O  O4  1  0.03712495  0.45172945  0.45172945  1
  O  O5  1  0.79827055  0.79827055  0.21287505  1
  O  O6  1  0.45172945  0.45172945  0.03712495  1
  O  O7  1  0.50737837  0.50737837  0.50737837  1
  O  O8  1  0.04708699  0.04708699  0.45343369  1
  O  O9  1  0.45172945  0.03712495  0.45172945  1
  O  O10  1  0.04708699  0.45343369  0.04708699  1
  O  O11  1  0.74262163  0.74262163  0.74262163  1
  O  O12  1  0.79827055  0.21287505  0.79827055  1
  O  O13  1  0.79656631  0.20291301  0.20291301  1
loop_
_geom_bond_atom_site_label_1
_geom_bond_atom_site_label_2
_geom_bond_distance
_geom_bond_site_symmetry_2
Ca0 O11 2.247257 1_545
Ca0 O7 2.247257 1_555
Ca0 O2 2.507173 1_556
Ca0 O13 2.507173 1_555
Ca0 O8 2.507173 1_655
Ca0 O0 2.507173 1_555
Ca0 O12 2.551309 1_555
Ca0 O9 2.551309 1_555
Ca1 O7 2.247257 1_555
Ca1 O11 2.247257 1_554
Ca1 O2 2.507172 1_565
Ca1 O13 2.507172 1_555
Ca1 O10 2.507173 1_655
Ca1 O1 2.507173 1_555
Ca1 O5 2.551309 1_555
Ca1 O6 2.551309 1_555
Ca2 O7 2.247257 1_555
Ca2 O11 2.247257 1_455
Ca2 O8 2.507172 1_565
Ca2 O0 2.507172 1_555
Ca2 O10 2.507173 1_556
Ca2 O1 2.507173 1_555
Ca2 O3 2.551309 1_555
Ca2 O4 2.551309 1_555
O0 Rh2 1.943442 1_555
O0 Rh3 1.964585 1_556
O1 Rh1 1.943442 1_555
O1 Rh3 1.964585 1_565
O2 Rh0 1.943442 1_555
O2 Rh3 1.964585 1_555
O3 Rh2 1.962623 1_565
O3 Rh1 1.962623 1_556
O3 Pb0 2.462574 1_555
O4 Rh2 1.962623 1_555
O4 Rh1 1.962623 1_555
O4 Pb0 2.462574 1_455
O5 Rh0 1.962623 1_565
O5 Rh1 1.962623 1_655
O5 Pb0 2.462574 1_555
O6 Rh0 1.962623 1_555
O6 Rh1 1.962623 1_555
O6 Pb0 2.462574 1_554
O7 Pb0 2.052214 1_555
O8 Rh2 1.943442 1_555
O8 Rh3 1.964585 1_555
O9 Rh0 1.962623 1_555
O9 Rh2 1.962623 1_555
O9 Pb0 2.462574 1_545
O10 Rh1 1.943442 1_555
O10 Rh3 1.964585 1_555
O11 Pb0 2.052214 1_555
O12 Rh0 1.962623 1_556
O12 Rh2 1.962623 1_655
O12 Pb0 2.462574 1_555
O13 Rh0 1.943442 1_555
O13 Rh3 1.964585 1_655
