# generated using pymatgen
data_Na2SrCdBi2
_symmetry_space_group_name_H-M   'P 1'
_cell_length_a   4.88151831
_cell_length_b   8.25975152
_cell_length_c   9.34194245
_cell_angle_alpha   90.00000000
_cell_angle_beta   90.00000000
_cell_angle_gamma   90.00000000
_symmetry_Int_Tables_number   1
_chemical_formula_structural   Na2SrCdBi2
_chemical_formula_sum   'Na4 Sr2 Cd2 Bi4'
_cell_volume   376.66831798
_cell_formula_units_Z   2
loop_
 _symmetry_equiv_pos_site_id
 _symmetry_equiv_pos_as_xyz
  1  'x, y, z'
loop_
 _atom_site_type_symbol
 _atom_site_label
 _atom_site_symmetry_multiplicity
 _atom_site_fract_x
 _atom_site_fract_y
 _atom_site_fract_z
 _atom_site_occupancy
  Na  Na0  1  0.50000000  0.03189388  0.42090785  1
  Na  Na1  1  0.00000000  0.36154300  0.33100998  1
  Na  Na2  1  0.50000000  0.53189388  0.57909215  1
  Na  Na3  1  0.00000000  0.86154300  0.66899002  1
  Sr  Sr0  1  0.00000000  0.48762828  0.94338529  1
  Sr  Sr1  1  0.00000000  0.98762828  0.05661471  1
  Cd  Cd0  1  0.50000000  0.14698355  0.81309974  1
  Cd  Cd1  1  0.50000000  0.64698355  0.18690026  1
  Bi  Bi0  1  0.00000000  0.24447998  0.65176572  1
  Bi  Bi1  1  0.50000000  0.27299132  0.12732577  1
  Bi  Bi2  1  0.00000000  0.74447998  0.34823428  1
  Bi  Bi3  1  0.50000000  0.77299132  0.87267423  1
loop_
_geom_bond_atom_site_label_1
_geom_bond_atom_site_label_2
_geom_bond_distance
_geom_bond_site_symmetry_2
Na0 Na3 3.648046 1_545
Na0 Na3 3.648046 1_645
Na0 Na1 3.751846 1_555
Na0 Na1 3.751846 1_655
Na0 Sr1 4.203902 1_645
Na0 Sr1 4.203902 1_545
Na1 Na2 3.648046 1_555
Na1 Na2 3.648046 1_455
Na1 Sr0 3.767949 1_554
Na1 Sr1 4.013654 1_545
Na2 Na3 3.751846 1_555
Na2 Na3 3.751846 1_655
Na2 Sr0 4.203902 1_655
Na2 Sr0 4.203902 1_555
Na3 Sr1 3.767949 1_556
Na3 Sr0 4.013654 1_555
Sr0 Sr1 4.263189 1_546
Sr0 Sr1 4.263189 1_556
Cd0 Sr1 3.586776 1_546
Cd0 Sr1 3.586776 1_646
Cd0 Na3 3.650799 1_645
Cd0 Na3 3.650799 1_545
Cd0 Na0 3.785148 1_555
Cd0 Na2 3.858327 1_555
Cd0 Sr0 3.918579 1_555
Cd0 Sr0 3.918579 1_655
Cd1 Sr0 3.586776 1_654
Cd1 Sr0 3.586776 1_554
Cd1 Na1 3.650799 1_555
Cd1 Na1 3.650799 1_655
Cd1 Na2 3.785148 1_555
Cd1 Na0 3.858327 1_565
Cd1 Sr1 3.918579 1_655
Cd1 Sr1 3.918579 1_555
Bi0 Cd0 2.979493 1_555
Bi0 Cd0 2.979493 1_455
Bi0 Na1 3.148622 1_555
Bi0 Na3 3.167055 1_545
Bi0 Sr0 3.384556 1_555
Bi0 Na2 3.471880 1_455
Bi0 Na2 3.471880 1_555
Bi0 Na0 3.700231 1_455
Bi0 Na0 3.700231 1_555
Bi1 Cd0 3.114531 1_554
Bi1 Cd1 3.138817 1_555
Bi1 Na1 3.180086 1_655
Bi1 Na1 3.180086 1_555
Bi1 Na0 3.389350 1_555
Bi1 Sr1 3.456769 1_545
Bi1 Sr1 3.456769 1_645
Bi1 Sr0 3.471752 1_554
Bi1 Sr0 3.471752 1_654
Bi2 Cd1 2.979493 1_455
Bi2 Cd1 2.979493 1_555
Bi2 Na3 3.148622 1_555
Bi2 Na1 3.167055 1_555
Bi2 Sr1 3.384556 1_555
Bi2 Na0 3.471880 1_565
Bi2 Na0 3.471880 1_465
Bi2 Na2 3.700231 1_455
Bi2 Na2 3.700231 1_555
Bi3 Cd1 3.114531 1_556
Bi3 Cd0 3.138817 1_565
Bi3 Na3 3.180086 1_555
Bi3 Na3 3.180086 1_655
Bi3 Na2 3.389350 1_555
Bi3 Sr0 3.456769 1_555
Bi3 Sr0 3.456769 1_655
Bi3 Sr1 3.471752 1_556
Bi3 Sr1 3.471752 1_656
