# generated using pymatgen
data_Zn3PBrCl2
_symmetry_space_group_name_H-M   'P 1'
_cell_length_a   3.97579061
_cell_length_b   6.41072961
_cell_length_c   6.90603692
_cell_angle_alpha   91.19751598
_cell_angle_beta   90.00000000
_cell_angle_gamma   90.00000000
_symmetry_Int_Tables_number   1
_chemical_formula_structural   Zn3PBrCl2
_chemical_formula_sum   'Zn3 P1 Br1 Cl2'
_cell_volume   175.98068132
_cell_formula_units_Z   1
loop_
 _symmetry_equiv_pos_site_id
 _symmetry_equiv_pos_as_xyz
  1  'x, y, z'
loop_
 _atom_site_type_symbol
 _atom_site_label
 _atom_site_symmetry_multiplicity
 _atom_site_fract_x
 _atom_site_fract_y
 _atom_site_fract_z
 _atom_site_occupancy
  Zn  Zn0  1  0.00000000  0.47024511  0.69441343  1
  Zn  Zn1  1  0.50000000  0.51340708  0.11864345  1
  Zn  Zn2  1  0.50000000  0.01565078  0.85580540  1
  P  P0  1  0.50000000  0.36617285  0.81696486  1
  Br  Br0  1  0.00000000  0.40162910  0.32282037  1
  Cl  Cl0  1  0.00000000  0.85803771  0.70087168  1
  Cl  Cl1  1  0.50000000  0.87085537  0.15713280  1
loop_
_geom_bond_atom_site_label_1
_geom_bond_atom_site_label_2
_geom_bond_distance
_geom_bond_site_symmetry_2
P0 Zn0 2.266441 1_655
P0 Zn0 2.266441 1_555
P0 Zn2 2.268614 1_555
P0 Zn1 2.269203 1_556
Br0 Zn1 2.548666 1_455
Br0 Zn1 2.548666 1_555
Br0 Zn0 2.594586 1_555
Cl0 Zn2 2.464210 1_465
Cl0 Zn2 2.464210 1_565
Cl0 Zn0 2.485501 1_555
Cl1 Zn2 2.296268 1_564
Cl1 Zn1 2.301345 1_555
