# generated using pymatgen
data_Te2Pd4SeBr4
_symmetry_space_group_name_H-M   'P 1'
_cell_length_a   8.49637393
_cell_length_b   8.64322246
_cell_length_c   8.96113013
_cell_angle_alpha   109.31871129
_cell_angle_beta   98.19777688
_cell_angle_gamma   88.96296638
_symmetry_Int_Tables_number   1
_chemical_formula_structural   Te2Pd4SeBr4
_chemical_formula_sum   'Te4 Pd8 Se2 Br8'
_cell_volume   614.37250806
_cell_formula_units_Z   2
loop_
 _symmetry_equiv_pos_site_id
 _symmetry_equiv_pos_as_xyz
  1  'x, y, z'
loop_
 _atom_site_type_symbol
 _atom_site_label
 _atom_site_symmetry_multiplicity
 _atom_site_fract_x
 _atom_site_fract_y
 _atom_site_fract_z
 _atom_site_occupancy
  Te  Te0  1  0.80830615  0.52872755  0.29570692  1
  Te  Te1  1  0.38766027  0.13467427  0.69418392  1
  Te  Te2  1  0.61582483  0.86343803  0.30502802  1
  Te  Te3  1  0.84788333  0.71795362  0.02869598  1
  Pd  Pd0  1  0.21806260  0.56565007  0.99751019  1
  Pd  Pd1  1  0.43521654  0.21477049  0.99355294  1
  Pd  Pd2  1  0.55471891  0.78279028  0.00371651  1
  Pd  Pd3  1  0.78096830  0.42134043  0.99300676  1
  Pd  Pd4  1  0.92466396  0.82059611  0.33882564  1
  Pd  Pd5  1  0.48034691  0.41436272  0.70535151  1
  Pd  Pd6  1  0.08480377  0.19466354  0.67343819  1
  Pd  Pd7  1  0.51522755  0.58547280  0.29668292  1
  Se  Se0  1  0.16047022  0.28420979  0.96525672  1
  Se  Se1  1  0.20299463  0.46473172  0.71266141  1
  Br  Br0  1  0.45519467  0.29761346  0.29659092  1
  Br  Br1  1  0.53672322  0.70168320  0.70052111  1
  Br  Br2  1  0.26478240  0.85623400  0.00608669  1
  Br  Br3  1  0.21840617  0.66116926  0.30085899  1
  Br  Br4  1  0.02965778  0.11326601  0.36794682  1
  Br  Br5  1  0.98186381  0.90780129  0.64776403  1
  Br  Br6  1  0.72199440  0.13299705  0.98837730  1
  Br  Br7  1  0.77422958  0.33585532  0.68823553  1
loop_
_geom_bond_atom_site_label_1
_geom_bond_atom_site_label_2
_geom_bond_distance
_geom_bond_site_symmetry_2
Pd0 Se1 2.393850 1_555
Pd0 Se0 2.403716 1_555
Pd1 Se0 2.398930 1_555
Pd1 Te1 2.512274 1_555
Pd2 Te2 2.532580 1_555
Pd2 Te3 2.538085 1_555
Pd3 Te0 2.536849 1_556
Pd3 Te3 2.540956 1_556
Pd4 Te3 2.609351 1_555
Pd4 Te0 2.612854 1_555
Pd4 Te2 2.631858 1_555
Pd5 Se1 2.394760 1_555
Pd5 Te1 2.521985 1_555
Pd6 Se1 2.453987 1_555
Pd6 Se0 2.459700 1_555
Pd6 Te1 2.608396 1_555
Pd7 Te0 2.529905 1_555
Pd7 Te2 2.538786 1_555
Br0 Pd7 2.548515 1_555
Br0 Pd1 2.549945 1_554
Br1 Pd5 2.553146 1_555
Br1 Pd2 2.553812 1_556
Br2 Pd0 2.524121 1_554
Br2 Pd2 2.534007 1_555
Br3 Pd0 2.565922 1_554
Br3 Pd7 2.596239 1_555
Br3 Pd4 2.837383 1_455
Br4 Pd6 2.565249 1_555
Br4 Pd4 2.615596 1_445
Br5 Pd6 2.570810 1_665
Br5 Pd4 2.591810 1_555
Br6 Pd1 2.527208 1_555
Br6 Pd3 2.536689 1_555
Br7 Pd3 2.574854 1_555
Br7 Pd5 2.587989 1_555
Br7 Pd6 2.888948 1_655
