# generated using pymatgen
data_Y6Nb3Al13Os7
_symmetry_space_group_name_H-M   'P 1'
_cell_length_a   9.01522821
_cell_length_b   9.01522872
_cell_length_c   9.01522786
_cell_angle_alpha   59.72416405
_cell_angle_beta   59.72416460
_cell_angle_gamma   59.72416361
_symmetry_Int_Tables_number   1
_chemical_formula_structural   Y6Nb3Al13Os7
_chemical_formula_sum   'Y6 Nb3 Al13 Os7'
_cell_volume   514.85617181
_cell_formula_units_Z   1
loop_
 _symmetry_equiv_pos_site_id
 _symmetry_equiv_pos_as_xyz
  1  'x, y, z'
loop_
 _atom_site_type_symbol
 _atom_site_label
 _atom_site_symmetry_multiplicity
 _atom_site_fract_x
 _atom_site_fract_y
 _atom_site_fract_z
 _atom_site_occupancy
  Y  Y0  1  0.71016512  0.71016512  0.28313752  1
  Y  Y1  1  0.29240612  0.70954947  0.29240612  1
  Y  Y2  1  0.70954947  0.29240612  0.29240612  1
  Y  Y3  1  0.29240612  0.29240612  0.70954947  1
  Y  Y4  1  0.71016512  0.28313752  0.71016512  1
  Y  Y5  1  0.28313752  0.71016512  0.71016512  1
  Nb  Nb0  1  0.87751398  0.87751398  0.36188450  1
  Nb  Nb1  1  0.87751398  0.36188450  0.87751398  1
  Nb  Nb2  1  0.36188450  0.87751398  0.87751398  1
  Al  Al0  1  0.88117782  0.88117782  0.88117782  1
  Al  Al1  1  0.12099347  0.12099347  0.63789481  1
  Al  Al2  1  0.12099347  0.63789481  0.12099347  1
  Al  Al3  1  0.63789481  0.12099347  0.12099347  1
  Al  Al4  1  0.12123841  0.12123841  0.12123841  1
  Al  Al5  1  0.67169648  0.67169648  0.99109448  1
  Al  Al6  1  0.67169648  0.99109448  0.67169648  1
  Al  Al7  1  0.99109448  0.67169648  0.67169648  1
  Al  Al8  1  0.66704680  0.66704680  0.66704680  1
  Al  Al9  1  0.33084674  0.33084674  0.00995199  1
  Al  Al10  1  0.33084674  0.00995199  0.33084674  1
  Al  Al11  1  0.00995199  0.33084674  0.33084674  1
  Al  Al12  1  0.33120223  0.33120223  0.33120223  1
  Os  Os0  1  0.00185913  0.00185913  0.00185913  1
  Os  Os1  1  0.99872299  0.99872299  0.49772752  1
  Os  Os2  1  0.50268202  0.99617749  0.50268202  1
  Os  Os3  1  0.99617749  0.50268202  0.50268202  1
  Os  Os4  1  0.50268202  0.50268202  0.99617749  1
  Os  Os5  1  0.99872299  0.49772752  0.99872299  1
  Os  Os6  1  0.49772752  0.99872299  0.99872299  1
loop_
_geom_bond_atom_site_label_1
_geom_bond_atom_site_label_2
_geom_bond_distance
_geom_bond_site_symmetry_2
Nb0 Os0 2.641505 1_665
Nb0 Os2 2.752030 1_555
Nb0 Os3 2.752031 1_555
Nb0 Os1 2.791164 1_555
Nb0 Y0 3.084040 1_555
Nb0 Y1 3.091690 1_655
Nb0 Y2 3.091690 1_565
Nb1 Os0 2.641505 1_656
Nb1 Os3 2.752030 1_555
Nb1 Os4 2.752030 1_555
Nb1 Os5 2.791164 1_555
Nb1 Y4 3.084040 1_555
Nb1 Y2 3.091689 1_556
Nb1 Y3 3.091690 1_655
Nb2 Os0 2.641505 1_566
Nb2 Os2 2.752030 1_555
Nb2 Os4 2.752031 1_555
Nb2 Os6 2.791164 1_555
Nb2 Y5 3.084040 1_555
Nb2 Y1 3.091689 1_556
Nb2 Y3 3.091690 1_565
Al0 Os0 2.670512 1_666
Al0 Os1 2.817943 1_555
Al0 Os6 2.817943 1_555
Al0 Os5 2.817943 1_555
Al0 Y0 3.002571 1_556
Al0 Y5 3.002571 1_655
Al0 Y4 3.002571 1_565
Al0 Al2 3.051124 1_656
Al0 Al3 3.051124 1_566
Al0 Al1 3.051124 1_665
Al1 Os0 2.670148 1_556
Al1 Os2 2.800364 1_545
Al1 Os3 2.800364 1_455
Al1 Al11 2.801373 1_555
Al1 Al10 2.801373 1_555
Al1 Al12 2.807471 1_555
Al1 Os1 2.839205 1_445
Al1 Nb2 3.056711 1_545
Al1 Nb1 3.056711 1_455
Al1 Y4 3.057258 1_455
Al1 Y5 3.057258 1_545
Al1 Y3 3.100708 1_555
Al2 Os0 2.670148 1_565
Al2 Os3 2.800364 1_455
Al2 Os4 2.800364 1_554
Al2 Al9 2.801373 1_555
Al2 Os5 2.839205 1_454
Al2 Nb0 3.056711 1_455
Al2 Nb2 3.056711 1_554
Al2 Y5 3.057258 1_554
Al2 Y0 3.057258 1_455
Al2 Y1 3.100708 1_555
Al3 Os0 2.670148 1_655
Al3 Os2 2.800364 1_545
Al3 Os4 2.800364 1_554
Al3 Al9 2.801373 1_555
Al3 Os6 2.839205 1_544
Al3 Nb0 3.056711 1_545
Al3 Nb1 3.056711 1_554
Al3 Y4 3.057258 1_554
Al3 Y0 3.057258 1_545
Al3 Y2 3.100708 1_555
Al4 Os0 2.641700 1_555
Al4 Os1 2.762245 1_445
Al4 Os6 2.762245 1_544
Al4 Os5 2.762245 1_454
Al4 Y3 3.064085 1_554
Al4 Y2 3.064085 1_455
Al4 Y1 3.064086 1_545
Al5 Os5 2.567059 1_555
Al5 Os6 2.567059 1_555
Al5 Os4 2.616418 1_555
Al5 Y0 3.022416 1_556
Al5 Y1 3.095129 1_556
Al5 Y2 3.095129 1_556
Al6 Os6 2.567059 1_555
Al6 Os1 2.567059 1_555
Al6 Os2 2.616418 1_555
Al6 Y4 3.022416 1_565
Al6 Y2 3.095129 1_565
Al6 Y3 3.095129 1_565
Al7 Os5 2.567059 1_555
Al7 Os1 2.567059 1_555
Al7 Os3 2.616418 1_555
Al7 Y5 3.022416 1_655
Al7 Y1 3.095129 1_655
Al7 Y3 3.095129 1_655
Al8 Os4 2.557902 1_555
Al8 Os3 2.557902 1_555
Al8 Os2 2.557902 1_555
Al8 Y0 3.117714 1_555
Al8 Y5 3.117714 1_555
Al8 Y4 3.117714 1_555
Al9 Os4 2.616659 1_554
Al9 Os5 2.616993 1_454
Al9 Os6 2.616993 1_544
Al9 Y4 3.090833 1_554
Al9 Y5 3.090833 1_554
Al9 Y3 3.096500 1_554
Al10 Os2 2.616659 1_545
Al10 Os6 2.616993 1_544
Al10 Os1 2.616993 1_445
Al10 Al3 2.801373 1_555
Al10 Y5 3.090833 1_545
Al10 Y0 3.090833 1_545
Al10 Y1 3.096500 1_545
Al11 Os3 2.616659 1_455
Al11 Os5 2.616993 1_454
Al11 Os1 2.616993 1_445
Al11 Al2 2.801373 1_555
Al11 Y4 3.090833 1_455
Al11 Y0 3.090833 1_455
Al11 Y2 3.096500 1_455
Al12 Os4 2.625981 1_554
Al12 Os3 2.625981 1_455
Al12 Os2 2.625981 1_545
Al12 Al2 2.807471 1_555
Al12 Al3 2.807471 1_555
Al12 Y3 3.097794 1_555
Al12 Y2 3.097795 1_555
Al12 Y1 3.097795 1_555
Os1 Y2 3.193247 1_565
Os1 Y1 3.193247 1_655
Os1 Y5 3.195590 1_655
Os1 Y4 3.195591 1_565
Os2 Y3 3.249011 1_565
Os2 Y2 3.249011 1_565
Os2 Y0 3.257973 1_555
Os2 Y5 3.257973 1_555
Os3 Y3 3.249011 1_655
Os3 Y1 3.249011 1_655
Os3 Y0 3.257972 1_555
Os3 Y4 3.257973 1_555
Os4 Y2 3.249011 1_556
Os4 Y1 3.249011 1_556
Os4 Y5 3.257972 1_555
Os4 Y4 3.257972 1_555
Os5 Y3 3.193247 1_655
Os5 Y2 3.193247 1_556
Os5 Y0 3.195591 1_556
Os5 Y5 3.195591 1_655
Os6 Y3 3.193247 1_565
Os6 Y1 3.193247 1_556
Os6 Y0 3.195590 1_556
Os6 Y4 3.195591 1_565
