# generated using pymatgen
data_Y(NbBr3)6
_symmetry_space_group_name_H-M   'P 1'
_cell_length_a   10.64376722
_cell_length_b   10.64376673
_cell_length_c   10.64376640
_cell_angle_alpha   55.62972795
_cell_angle_beta   55.62972610
_cell_angle_gamma   55.62973079
_symmetry_Int_Tables_number   1
_chemical_formula_structural   Y(NbBr3)6
_chemical_formula_sum   'Y1 Nb6 Br18'
_cell_volume   766.18077621
_cell_formula_units_Z   1
loop_
 _symmetry_equiv_pos_site_id
 _symmetry_equiv_pos_as_xyz
  1  'x, y, z'
loop_
 _atom_site_type_symbol
 _atom_site_label
 _atom_site_symmetry_multiplicity
 _atom_site_fract_x
 _atom_site_fract_y
 _atom_site_fract_z
 _atom_site_occupancy
  Y  Y0  1  0.00000000  0.00000000  0.00000000  1
  Nb  Nb0  1  0.41324027  0.30389855  0.64579403  1
  Nb  Nb1  1  0.35420597  0.58675973  0.69610145  1
  Nb  Nb2  1  0.69610145  0.35420597  0.58675973  1
  Nb  Nb3  1  0.30389855  0.64579403  0.41324027  1
  Nb  Nb4  1  0.64579403  0.41324027  0.30389855  1
  Nb  Nb5  1  0.58675973  0.69610145  0.35420597  1
  Br  Br0  1  0.57216107  0.15956573  0.43897420  1
  Br  Br1  1  0.22234342  0.36582048  0.91312219  1
  Br  Br2  1  0.91312219  0.22234342  0.36582048  1
  Br  Br3  1  0.36582048  0.91312219  0.22234342  1
  Br  Br4  1  0.77765658  0.63417952  0.08687781  1
  Br  Br5  1  0.08687781  0.77765658  0.63417952  1
  Br  Br6  1  0.69574962  0.96758445  0.15789289  1
  Br  Br7  1  0.96758445  0.15789289  0.69574962  1
  Br  Br8  1  0.15789289  0.69574962  0.96758445  1
  Br  Br9  1  0.30425038  0.03241555  0.84210711  1
  Br  Br10  1  0.03241555  0.84210711  0.30425038  1
  Br  Br11  1  0.84210711  0.30425038  0.03241555  1
  Br  Br12  1  0.56102580  0.42783893  0.84043427  1
  Br  Br13  1  0.15956573  0.43897420  0.57216107  1
  Br  Br14  1  0.43897420  0.57216107  0.15956573  1
  Br  Br15  1  0.42783893  0.84043427  0.56102580  1
  Br  Br16  1  0.84043427  0.56102580  0.42783893  1
  Br  Br17  1  0.63417952  0.08687781  0.77765658  1
loop_
_geom_bond_atom_site_label_1
_geom_bond_atom_site_label_2
_geom_bond_distance
_geom_bond_site_symmetry_2
Br0 Nb4 2.589519 1_555
Br0 Nb0 2.597548 1_555
Br1 Nb0 2.595524 1_555
Br1 Nb1 2.601651 1_555
Br2 Nb4 2.595525 1_555
Br2 Nb2 2.601651 1_555
Br3 Nb3 2.595524 1_555
Br3 Nb5 2.601652 1_555
Br4 Nb5 2.595524 1_555
Br4 Nb4 2.601651 1_555
Br5 Nb1 2.595525 1_555
Br5 Nb3 2.601651 1_555
Br6 Y0 2.809352 1_665
Br6 Nb5 2.879645 1_555
Br7 Y0 2.809352 1_656
Br7 Nb2 2.879645 1_555
Br8 Y0 2.809352 1_566
Br8 Nb1 2.879645 1_555
Br9 Y0 2.809352 1_556
Br9 Nb0 2.879645 1_555
Br10 Y0 2.809352 1_565
Br10 Nb3 2.879645 1_555
Br11 Y0 2.809352 1_655
Br11 Nb4 2.879645 1_555
Br12 Nb2 2.589519 1_555
Br12 Nb1 2.597548 1_555
Br13 Nb0 2.589519 1_555
Br13 Nb3 2.597548 1_555
Br14 Nb3 2.589519 1_555
Br14 Nb4 2.597548 1_555
Br15 Nb1 2.589519 1_555
Br15 Nb5 2.597548 1_555
Br16 Nb5 2.589519 1_555
Br16 Nb2 2.597548 1_555
Br17 Nb2 2.595524 1_555
Br17 Nb0 2.601652 1_555
