# generated using pymatgen
data_Sb12Ir2OsPt
_symmetry_space_group_name_H-M   'P 1'
_cell_length_a   8.10021086
_cell_length_b   8.08085344
_cell_length_c   8.10056140
_cell_angle_alpha   109.43470125
_cell_angle_beta   109.50417069
_cell_angle_gamma   109.41075164
_symmetry_Int_Tables_number   1
_chemical_formula_structural   Sb12Ir2OsPt
_chemical_formula_sum   'Sb12 Ir2 Os1 Pt1'
_cell_volume   408.49740773
_cell_formula_units_Z   1
loop_
 _symmetry_equiv_pos_site_id
 _symmetry_equiv_pos_as_xyz
  1  'x, y, z'
loop_
 _atom_site_type_symbol
 _atom_site_label
 _atom_site_symmetry_multiplicity
 _atom_site_fract_x
 _atom_site_fract_y
 _atom_site_fract_z
 _atom_site_occupancy
  Sb  Sb0  1  0.84594506  0.66053223  0.50697652  1
  Sb  Sb1  1  0.85095713  0.34457084  0.18762599  1
  Sb  Sb2  1  0.14904287  0.65542916  0.81237401  1
  Sb  Sb3  1  0.33460269  0.48991725  0.15288019  1
  Sb  Sb4  1  0.15405494  0.33946777  0.49302348  1
  Sb  Sb5  1  0.65929401  0.80921851  0.15567849  1
  Sb  Sb6  1  0.18159181  0.84465205  0.33451820  1
  Sb  Sb7  1  0.66539731  0.51008275  0.84711981  1
  Sb  Sb8  1  0.81840819  0.15534795  0.66548180  1
  Sb  Sb9  1  0.34070599  0.19078149  0.84432151  1
  Sb  Sb10  1  0.50386419  0.84491298  0.65406341  1
  Sb  Sb11  1  0.49613581  0.15508702  0.34593659  1
  Ir  Ir0  1  0.00000000  0.00000000  0.50000000  1
  Ir  Ir1  1  0.50000000  0.50000000  0.50000000  1
  Os  Os0  1  0.00000000  0.50000000  0.00000000  1
  Pt  Pt0  1  0.50000000  0.00000000  0.00000000  1
loop_
_geom_bond_atom_site_label_1
_geom_bond_atom_site_label_2
_geom_bond_distance
_geom_bond_site_symmetry_2
Sb0 Sb2 2.868629 1_655
Sb0 Sb1 2.992732 1_555
Sb1 Sb4 2.868629 1_655
Sb2 Sb4 2.992732 1_555
Sb3 Sb9 2.869560 1_554
Sb3 Sb5 2.997666 1_555
Sb5 Sb7 2.869560 1_554
Sb7 Sb9 2.997666 1_555
Sb10 Sb8 2.869338 1_565
Sb10 Sb6 2.999245 1_555
Sb11 Sb6 2.869338 1_545
Sb11 Sb8 2.999245 1_555
Ir0 Sb9 2.635000 1_555
Ir0 Sb5 2.635000 1_445
Ir0 Sb4 2.638265 1_555
Ir0 Sb0 2.638265 1_445
Ir0 Sb8 2.638299 1_455
Ir0 Sb6 2.638299 1_545
Ir1 Sb10 2.632126 1_555
Ir1 Sb11 2.632126 1_555
Ir1 Sb3 2.639620 1_555
Ir1 Sb7 2.639620 1_555
Ir1 Sb4 2.639652 1_555
Ir1 Sb0 2.639652 1_555
Os0 Sb2 2.613966 1_554
Os0 Sb1 2.613966 1_455
Os0 Sb6 2.618485 1_555
Os0 Sb8 2.618485 1_454
Os0 Sb3 2.618953 1_555
Os0 Sb7 2.618953 1_454
Pt0 Sb5 2.676087 1_545
Pt0 Sb9 2.676087 1_554
Pt0 Sb11 2.678048 1_555
Pt0 Sb10 2.678048 1_544
Pt0 Sb1 2.679918 1_555
Pt0 Sb2 2.679918 1_544
