# generated using pymatgen
data_Cs3ScAs2
_symmetry_space_group_name_H-M   'P 1'
_cell_length_a   9.74797674
_cell_length_b   9.74797759
_cell_length_c   9.74797775
_cell_angle_alpha   127.47750276
_cell_angle_beta   70.27220119
_cell_angle_gamma   136.81116757
_symmetry_Int_Tables_number   1
_chemical_formula_structural   Cs3ScAs2
_chemical_formula_sum   'Cs6 Sc2 As4'
_cell_volume   493.41281439
_cell_formula_units_Z   2
loop_
 _symmetry_equiv_pos_site_id
 _symmetry_equiv_pos_as_xyz
  1  'x, y, z'
loop_
 _atom_site_type_symbol
 _atom_site_label
 _atom_site_symmetry_multiplicity
 _atom_site_fract_x
 _atom_site_fract_y
 _atom_site_fract_z
 _atom_site_occupancy
  Cs  Cs0  1  0.81555389  0.21682362  0.03237751  1
  Cs  Cs1  1  0.68444611  0.71682362  0.40126873  1
  Cs  Cs2  1  0.75000000  0.25000100  0.50000000  1
  Cs  Cs3  1  0.25000100  0.75000100  0.50000000  1
  Cs  Cs4  1  0.31555389  0.28317638  0.59873027  1
  Cs  Cs5  1  0.18444611  0.78317638  0.96762249  1
  Sc  Sc0  1  0.25000100  0.25000100  0.00000000  1
  Sc  Sc1  1  0.75000100  0.75000100  0.00000000  1
  As  As0  1  0.41305443  0.67085507  0.08391049  1
  As  As1  1  0.08694557  0.17085507  0.25780064  1
  As  As2  1  0.91305443  0.82914493  0.74219936  1
  As  As3  1  0.58694457  0.32914493  0.91608951  1
loop_
_geom_bond_atom_site_label_1
_geom_bond_atom_site_label_2
_geom_bond_distance
_geom_bond_site_symmetry_2
As0 Sc0 2.703972 1_555
As0 Sc1 2.703986 1_555
As0 Cs3 3.633291 1_555
As0 Cs2 3.633301 1_565
As0 Cs4 3.687867 1_554
As0 Cs5 3.771419 1_554
As0 Cs0 3.929949 1_455
As0 Cs0 3.929955 1_565
As1 Sc1 2.703976 1_445
As1 Sc0 2.703986 1_555
As1 Cs3 3.633307 1_555
As1 Cs2 3.633307 1_455
As1 Cs5 3.687859 1_544
As1 Cs4 3.771413 1_555
As1 Cs1 3.929942 1_445
As1 Cs1 3.929949 1_555
As2 Sc1 2.703976 1_556
As2 Sc0 2.703986 1_666
As2 Cs2 3.633295 1_555
As2 Cs3 3.633306 1_655
As2 Cs0 3.687859 1_566
As2 Cs1 3.771422 1_555
As2 Cs4 3.929949 1_665
As2 Cs4 3.929949 1_555
As3 Sc0 2.703968 1_556
As3 Sc1 2.703978 1_556
As3 Cs3 3.633294 1_545
As3 Cs2 3.633298 1_555
As3 Cs1 3.687859 1_556
As3 Cs0 3.771428 1_556
As3 Cs5 3.929955 1_655
As3 Cs5 3.929956 1_545
