# generated using pymatgen
data_Mg3ZnP6N13
_symmetry_space_group_name_H-M   'P 1'
_cell_length_a   7.01047426
_cell_length_b   7.01047553
_cell_length_c   7.01047553
_cell_angle_alpha   109.52205285
_cell_angle_beta   109.52205360
_cell_angle_gamma   109.52206906
_symmetry_Int_Tables_number   1
_chemical_formula_structural   Mg3ZnP6N13
_chemical_formula_sum   'Mg3 Zn1 P6 N13'
_cell_volume   264.72827181
_cell_formula_units_Z   1
loop_
 _symmetry_equiv_pos_site_id
 _symmetry_equiv_pos_as_xyz
  1  'x, y, z'
loop_
 _atom_site_type_symbol
 _atom_site_label
 _atom_site_symmetry_multiplicity
 _atom_site_fract_x
 _atom_site_fract_y
 _atom_site_fract_z
 _atom_site_occupancy
  Mg  Mg0  1  0.00137072  0.70430160  0.00137072  1
  Mg  Mg1  1  0.70430160  0.00137072  0.00137072  1
  Mg  Mg2  1  0.00137072  0.00137072  0.70430160  1
  Zn  Zn0  1  0.29113025  0.29113025  0.29113025  1
  P  P0  1  0.49853125  0.24952613  0.74877641  1
  P  P1  1  0.49853125  0.74877641  0.24952613  1
  P  P2  1  0.74877641  0.49853125  0.24952613  1
  P  P3  1  0.24952613  0.74877641  0.49853125  1
  P  P4  1  0.74877641  0.24952613  0.49853125  1
  P  P5  1  0.24952613  0.49853125  0.74877641  1
  N  N0  1  0.99984363  0.73136318  0.45377243  1
  N  N1  1  0.27869688  0.54459422  0.54459422  1
  N  N2  1  0.73136318  0.45377243  0.99984363  1
  N  N3  1  0.26821551  0.72255552  0.26821551  1
  N  N4  1  0.45377243  0.99984363  0.73136318  1
  N  N5  1  0.72255552  0.26821551  0.26821551  1
  N  N6  1  0.54459422  0.27869688  0.54459422  1
  N  N7  1  0.73136318  0.99984363  0.45377243  1
  N  N8  1  0.26821551  0.26821551  0.72255552  1
  N  N9  1  0.45377243  0.73136318  0.99984363  1
  N  N10  1  0.54459422  0.54459422  0.27869688  1
  N  N11  1  0.99984363  0.45377243  0.73136318  1
  N  N12  1  0.01132882  0.01132882  0.01132882  1
loop_
_geom_bond_atom_site_label_1
_geom_bond_atom_site_label_2
_geom_bond_distance
_geom_bond_site_symmetry_2
Mg0 N3 2.087247 1_555
Mg0 N2 2.102328 1_454
Mg0 N11 2.102329 1_454
Mg0 N12 2.106773 1_565
Mg1 N5 2.087247 1_555
Mg1 N9 2.102328 1_544
Mg1 N4 2.102328 1_544
Mg1 N12 2.106773 1_655
Mg2 N8 2.087247 1_555
Mg2 N7 2.102328 1_445
Mg2 N0 2.102329 1_445
Mg2 N12 2.106773 1_556
N0 P3 1.625345 1_655
N0 P2 1.626644 1_555
N1 P5 1.629565 1_555
N1 P3 1.629565 1_555
N1 Zn0 2.102187 1_555
N2 P2 1.625345 1_556
N2 P0 1.626644 1_555
N3 P1 1.617740 1_555
N3 P3 1.617740 1_555
N4 P0 1.625345 1_565
N4 P3 1.626644 1_555
N5 P2 1.617740 1_555
N5 P4 1.617740 1_555
N6 P4 1.629565 1_555
N6 P0 1.629565 1_555
N6 Zn0 2.102186 1_555
N7 P4 1.625345 1_565
N7 P1 1.626644 1_555
N8 P0 1.617740 1_555
N8 P5 1.617740 1_555
N9 P1 1.625345 1_556
N9 P5 1.626644 1_555
N10 P2 1.629565 1_555
N10 P1 1.629565 1_555
N10 Zn0 2.102186 1_555
N11 P5 1.625345 1_655
N11 P4 1.626644 1_555
N12 Zn0 1.956613 1_555
