# generated using pymatgen
data_CoP6RhO18
_symmetry_space_group_name_H-M   'P 1'
_cell_length_a   4.90637485
_cell_length_b   7.14253470
_cell_length_c   10.12764316
_cell_angle_alpha   98.48031049
_cell_angle_beta   91.86035228
_cell_angle_gamma   92.00423398
_symmetry_Int_Tables_number   1
_chemical_formula_structural   CoP6RhO18
_chemical_formula_sum   'Co1 P6 Rh1 O18'
_cell_volume   350.56331314
_cell_formula_units_Z   1
loop_
 _symmetry_equiv_pos_site_id
 _symmetry_equiv_pos_as_xyz
  1  'x, y, z'
loop_
 _atom_site_type_symbol
 _atom_site_label
 _atom_site_symmetry_multiplicity
 _atom_site_fract_x
 _atom_site_fract_y
 _atom_site_fract_z
 _atom_site_occupancy
  Co  Co0  1  0.49999658  0.50000150  0.50000110  1
  P  P0  1  0.02028822  0.94753628  0.18530801  1
  P  P1  1  0.73475050  0.30553632  0.23290525  1
  P  P2  1  0.00563703  0.65192472  0.36293897  1
  P  P3  1  0.99436531  0.34807668  0.63706057  1
  P  P4  1  0.26524864  0.69446425  0.76709733  1
  P  P5  1  0.97971513  0.05246262  0.81469295  1
  Rh  Rh0  1  0.49998937  0.99999886  0.00000109  1
  O  O0  1  0.60464116  0.26321735  0.09610327  1
  O  O1  1  0.83447674  0.87917415  0.06693123  1
  O  O2  1  0.31938593  0.93073904  0.16455702  1
  O  O3  1  0.96160342  0.15639125  0.24900744  1
  O  O4  1  0.91376322  0.49566687  0.23866649  1
  O  O5  1  0.94788093  0.84116832  0.30668200  1
  O  O6  1  0.55575907  0.31708714  0.34946219  1
  O  O7  1  0.30624556  0.64853062  0.38976795  1
  O  O8  1  0.82427421  0.64232692  0.47729700  1
  O  O9  1  0.17573405  0.35767748  0.52270356  1
  O  O10  1  0.69375401  0.35146745  0.61023455  1
  O  O11  1  0.44423300  0.68291729  0.65053854  1
  O  O12  1  0.05211761  0.15882969  0.69331533  1
  O  O13  1  0.08623948  0.50433277  0.76133637  1
  O  O14  1  0.03839311  0.84360534  0.75099418  1
  O  O15  1  0.68061512  0.06926398  0.83543468  1
  O  O16  1  0.16552868  0.12082196  0.93307158  1
  O  O17  1  0.39536090  0.73678817  0.90389835  1
loop_
_geom_bond_atom_site_label_1
_geom_bond_atom_site_label_2
_geom_bond_distance
_geom_bond_site_symmetry_2
Co0 O11 1.889639 1_555
Co0 O6 1.889643 1_555
Co0 O9 1.896560 1_555
Co0 O8 1.896631 1_555
Co0 O7 1.904318 1_555
Co0 O10 1.904359 1_555
O0 P1 1.491307 1_555
O0 Rh0 2.026291 1_545
O1 P0 1.494020 1_655
O1 Rh0 2.024075 1_555
O2 P0 1.495652 1_555
O2 Rh0 2.028724 1_555
O3 P0 1.575653 1_645
O3 P1 1.588274 1_555
O4 P1 1.583950 1_555
O4 P2 1.595789 1_655
O5 P2 1.573340 1_655
O5 P0 1.580929 1_655
O6 P1 1.488337 1_555
O7 P2 1.492704 1_555
O8 P2 1.491289 1_655
O9 P3 1.491301 1_455
O10 P3 1.492711 1_555
O11 P4 1.488332 1_555
O12 P3 1.573348 1_455
O12 P5 1.580951 1_455
O13 P4 1.583947 1_555
O13 P3 1.595805 1_455
O14 P5 1.575659 1_465
O14 P4 1.588265 1_555
O15 P5 1.495651 1_555
O15 Rh0 2.028879 1_546
O16 P5 1.494036 1_455
O16 Rh0 2.023960 1_546
O17 P4 1.491306 1_555
O17 Rh0 2.026222 1_556
