# generated using pymatgen
data_Ba5Ta2I2O9
_symmetry_space_group_name_H-M   'P 1'
_cell_length_a   6.02677375
_cell_length_b   6.02677428
_cell_length_c   26.84585213
_cell_angle_alpha   90.00000000
_cell_angle_beta   90.00000000
_cell_angle_gamma   120.00000240
_symmetry_Int_Tables_number   1
_chemical_formula_structural   Ba5Ta2I2O9
_chemical_formula_sum   'Ba10 Ta4 I4 O18'
_cell_volume   844.45717302
_cell_formula_units_Z   2
loop_
 _symmetry_equiv_pos_site_id
 _symmetry_equiv_pos_as_xyz
  1  'x, y, z'
loop_
 _atom_site_type_symbol
 _atom_site_label
 _atom_site_symmetry_multiplicity
 _atom_site_fract_x
 _atom_site_fract_y
 _atom_site_fract_z
 _atom_site_occupancy
  Ba  Ba0  1  0.33333300  0.66666700  0.90691858  1
  Ba  Ba1  1  0.66666700  0.33333300  0.40691858  1
  Ba  Ba2  1  0.66666700  0.33333300  0.09308142  1
  Ba  Ba3  1  0.33333300  0.66666700  0.17816689  1
  Ba  Ba4  1  0.66666700  0.33333300  0.67816689  1
  Ba  Ba5  1  0.33333300  0.66666700  0.32183311  1
  Ba  Ba6  1  0.66666700  0.33333300  0.82183311  1
  Ba  Ba7  1  0.66666700  0.33333300  0.25000000  1
  Ba  Ba8  1  0.33333300  0.66666700  0.59308142  1
  Ba  Ba9  1  0.33333300  0.66666700  0.75000000  1
  Ta  Ta0  1  0.00000000  0.00000000  0.80623195  1
  Ta  Ta1  1  0.00000000  0.00000000  0.30623195  1
  Ta  Ta2  1  0.00000000  0.00000000  0.69376805  1
  Ta  Ta3  1  0.00000000  0.00000000  0.19376805  1
  I  I0  1  0.33333300  0.66666700  0.45303462  1
  I  I1  1  0.33333300  0.66666700  0.04696538  1
  I  I2  1  0.66666700  0.33333300  0.54696538  1
  I  I3  1  0.66666700  0.33333300  0.95303462  1
  O  O0  1  0.16196017  0.83803983  0.66213695  1
  O  O1  1  0.67608166  0.83803983  0.83786305  1
  O  O2  1  0.16196017  0.32391834  0.66213695  1
  O  O3  1  0.85289760  0.14710240  0.75000000  1
  O  O4  1  0.29420580  0.14710240  0.75000000  1
  O  O5  1  0.14710240  0.29420580  0.25000000  1
  O  O6  1  0.14710240  0.85289760  0.25000000  1
  O  O7  1  0.70579420  0.85289760  0.25000000  1
  O  O8  1  0.83803983  0.16196017  0.33786305  1
  O  O9  1  0.32391834  0.16196017  0.16213695  1
  O  O10  1  0.85289760  0.70579420  0.75000000  1
  O  O11  1  0.83803983  0.67608166  0.16213695  1
  O  O12  1  0.32391834  0.16196017  0.33786305  1
  O  O13  1  0.83803983  0.16196017  0.16213695  1
  O  O14  1  0.16196017  0.32391834  0.83786305  1
  O  O15  1  0.83803983  0.67608166  0.33786305  1
  O  O16  1  0.67608166  0.83803983  0.66213695  1
  O  O17  1  0.16196017  0.83803983  0.83786305  1
loop_
_geom_bond_atom_site_label_1
_geom_bond_atom_site_label_2
_geom_bond_distance
_geom_bond_site_symmetry_2
Ba0 O17 2.576230 1_555
Ba0 O1 2.576241 1_555
Ba0 O14 2.576241 1_555
Ba0 I3 3.693239 1_455
Ba0 I3 3.693239 1_565
Ba0 I3 3.693249 1_555
Ba0 I1 3.759676 1_556
Ba1 O8 2.576230 1_555
Ba1 O12 2.576241 1_555
Ba1 O15 2.576241 1_555
Ba1 I0 3.693239 1_655
Ba1 I0 3.693239 1_545
Ba1 I0 3.693249 1_555
Ba1 I2 3.759676 1_555
Ba2 O13 2.576230 1_555
Ba2 O9 2.576241 1_555
Ba2 O11 2.576241 1_555
Ba2 I1 3.693239 1_655
Ba2 I1 3.693239 1_545
Ba2 I1 3.693249 1_555
Ba2 I3 3.759676 1_554
Ba3 O7 2.738238 1_555
Ba3 O6 2.738238 1_555
Ba3 O5 2.738238 1_555
Ba3 O11 3.044353 1_555
Ba3 O9 3.044354 1_555
Ba3 O13 3.044356 1_565
Ba3 O13 3.044356 1_455
Ba3 O11 3.044359 1_455
Ba3 O9 3.044360 1_565
Ba3 I1 3.522216 1_555
Ba4 O4 2.738238 1_555
Ba4 O3 2.738238 1_555
Ba4 O10 2.738238 1_555
Ba4 O2 3.044353 1_555
Ba4 O16 3.044354 1_555
Ba4 O0 3.044356 1_545
Ba4 O0 3.044356 1_655
Ba4 O2 3.044359 1_655
Ba4 O16 3.044360 1_545
Ba4 I2 3.522216 1_555
Ba5 O7 2.738238 1_555
Ba5 O6 2.738238 1_555
Ba5 O5 2.738238 1_555
Ba5 O15 3.044353 1_555
Ba5 O12 3.044354 1_555
Ba5 O8 3.044356 1_565
Ba5 O8 3.044356 1_455
Ba5 O15 3.044359 1_455
Ba5 O12 3.044360 1_565
Ba5 I0 3.522216 1_555
Ba6 O4 2.738238 1_555
Ba6 O3 2.738238 1_555
Ba6 O10 2.738238 1_555
Ba6 O14 3.044353 1_555
Ba6 O1 3.044354 1_555
Ba6 O17 3.044356 1_545
Ba6 O17 3.044356 1_655
Ba6 O14 3.044359 1_655
Ba6 O1 3.044360 1_545
Ba6 I3 3.522216 1_555
Ba7 O8 2.960393 1_555
Ba7 O13 2.960393 1_555
Ba7 O12 2.960402 1_555
Ba7 O9 2.960402 1_555
Ba7 O15 2.960402 1_555
Ba7 O11 2.960402 1_555
Ba7 O5 3.020293 1_655
Ba7 O7 3.020293 1_545
Ba7 O6 3.020300 1_545
Ba7 O6 3.020300 1_655
Ba7 O5 3.020305 1_555
Ba7 O7 3.020305 1_555
Ba8 O0 2.576230 1_555
Ba8 O16 2.576241 1_555
Ba8 O2 2.576241 1_555
Ba8 I2 3.693239 1_455
Ba8 I2 3.693239 1_565
Ba8 I2 3.693249 1_555
Ba8 I0 3.759676 1_555
Ba9 O17 2.960393 1_555
Ba9 O0 2.960393 1_555
Ba9 O1 2.960402 1_555
Ba9 O16 2.960402 1_555
Ba9 O14 2.960402 1_555
Ba9 O2 2.960402 1_555
Ba9 O10 3.020293 1_455
Ba9 O4 3.020293 1_565
Ba9 O3 3.020300 1_565
Ba9 O3 3.020300 1_455
Ba9 O10 3.020305 1_555
Ba9 O4 3.020305 1_555
O0 Ta2 1.891924 1_565
O1 Ta0 1.891915 1_665
O2 Ta2 1.891915 1_555
O3 Ta0 2.153324 1_655
O3 Ta2 2.153324 1_655
O4 Ta0 2.153328 1_555
O4 Ta2 2.153328 1_555
O5 Ta1 2.153328 1_555
O5 Ta3 2.153328 1_555
O6 Ta1 2.153324 1_565
O6 Ta3 2.153324 1_565
O7 Ta1 2.153328 1_665
O7 Ta3 2.153328 1_665
O8 Ta1 1.891924 1_655
O9 Ta3 1.891915 1_555
O10 Ta0 2.153328 1_665
O10 Ta2 2.153328 1_665
O11 Ta3 1.891915 1_665
O12 Ta1 1.891915 1_555
O13 Ta3 1.891924 1_655
O14 Ta0 1.891915 1_555
O15 Ta1 1.891915 1_665
O16 Ta2 1.891915 1_665
O17 Ta0 1.891924 1_565
