# generated using pymatgen
data_HoAu3
_symmetry_space_group_name_H-M   'P 1'
_cell_length_a   4.98308542
_cell_length_b   5.10517851
_cell_length_c   6.14892875
_cell_angle_alpha   90.00000000
_cell_angle_beta   90.00000000
_cell_angle_gamma   90.00000000
_symmetry_Int_Tables_number   1
_chemical_formula_structural   HoAu3
_chemical_formula_sum   'Ho2 Au6'
_cell_volume   156.42592258
_cell_formula_units_Z   2
loop_
 _symmetry_equiv_pos_site_id
 _symmetry_equiv_pos_as_xyz
  1  'x, y, z'
loop_
 _atom_site_type_symbol
 _atom_site_label
 _atom_site_symmetry_multiplicity
 _atom_site_fract_x
 _atom_site_fract_y
 _atom_site_fract_z
 _atom_site_occupancy
  Ho  Ho0  1  0.75000000  0.34524931  0.75000000  1
  Ho  Ho1  1  0.25000000  0.65475069  0.25000000  1
  Au  Au0  1  0.25000000  0.16145340  0.50630348  1
  Au  Au1  1  0.75000000  0.83854660  0.49369652  1
  Au  Au2  1  0.25000000  0.16145340  0.99369652  1
  Au  Au3  1  0.75000000  0.83854660  0.00630348  1
  Au  Au4  1  0.25000000  0.66659745  0.75000000  1
  Au  Au5  1  0.75000000  0.33340255  0.25000000  1
loop_
_geom_bond_atom_site_label_1
_geom_bond_atom_site_label_2
_geom_bond_distance
_geom_bond_site_symmetry_2
Au0 Au4 2.937304 1_545
Au0 Ho1 2.970849 1_555
Au0 Au4 2.982598 1_555
Au0 Au1 2.988534 1_545
Au0 Au1 2.988534 1_445
Au0 Au2 2.996945 1_555
Au0 Ho1 3.029080 1_545
Au0 Ho0 3.055099 1_555
Au0 Ho0 3.055099 1_455
Au0 Au5 3.076056 1_455
Au0 Au5 3.076056 1_555
Au0 Au2 3.151984 1_554
Au1 Au5 2.937304 1_565
Au1 Ho0 2.970849 1_555
Au1 Au5 2.982598 1_555
Au1 Au3 2.996945 1_555
Au1 Ho0 3.029080 1_565
Au1 Ho1 3.055099 1_555
Au1 Ho1 3.055099 1_655
Au1 Au4 3.076056 1_555
Au1 Au4 3.076056 1_655
Au1 Au3 3.151984 1_556
Au2 Au4 2.937304 1_545
Au2 Ho1 2.970849 1_556
Au2 Au4 2.982598 1_555
Au2 Au3 2.988534 1_446
Au2 Au3 2.988534 1_546
Au2 Ho1 3.029080 1_546
Au2 Ho0 3.055099 1_555
Au2 Ho0 3.055099 1_455
Au2 Au5 3.076056 1_456
Au2 Au5 3.076056 1_556
Au3 Au5 2.937304 1_565
Au3 Ho0 2.970849 1_554
Au3 Au5 2.982598 1_555
Au3 Ho0 3.029080 1_564
Au3 Ho1 3.055099 1_555
Au3 Ho1 3.055099 1_655
Au3 Au4 3.076056 1_654
Au3 Au4 3.076056 1_554
Au4 Ho0 2.983145 1_555
Au4 Ho0 2.983145 1_455
Au4 Ho1 3.075059 1_555
Au4 Ho1 3.075059 1_556
Au5 Ho1 2.983145 1_655
Au5 Ho1 2.983145 1_555
Au5 Ho0 3.075059 1_554
Au5 Ho0 3.075059 1_555
