# generated using pymatgen
data_Zr2CoSiBr2
_symmetry_space_group_name_H-M   'P 1'
_cell_length_a   3.79515095
_cell_length_b   3.79514968
_cell_length_c   10.82618654
_cell_angle_alpha   90.00000000
_cell_angle_beta   90.00000000
_cell_angle_gamma   120.00001959
_symmetry_Int_Tables_number   1
_chemical_formula_structural   Zr2CoSiBr2
_chemical_formula_sum   'Zr2 Co1 Si1 Br2'
_cell_volume   135.04049313
_cell_formula_units_Z   1
loop_
 _symmetry_equiv_pos_site_id
 _symmetry_equiv_pos_as_xyz
  1  'x, y, z'
loop_
 _atom_site_type_symbol
 _atom_site_label
 _atom_site_symmetry_multiplicity
 _atom_site_fract_x
 _atom_site_fract_y
 _atom_site_fract_z
 _atom_site_occupancy
  Zr  Zr0  1  0.00000000  0.00000000  0.84509076  1
  Zr  Zr1  1  0.00000000  0.00000000  0.16130075  1
  Co  Co0  1  0.33333300  0.66666700  0.98286234  1
  Si  Si0  1  0.66666700  0.33333300  0.01054253  1
  Br  Br0  1  0.33333300  0.66666700  0.32858025  1
  Br  Br1  1  0.66666700  0.33333300  0.67162538  1
loop_
_geom_bond_atom_site_label_1
_geom_bond_atom_site_label_2
_geom_bond_distance
_geom_bond_site_symmetry_2
Co0 Si0 2.211525 1_566
Co0 Si0 2.211526 1_456
Co0 Si0 2.211533 1_556
Co0 Zr0 2.650611 1_565
Co0 Zr0 2.650613 1_555
Co0 Zr0 2.650614 1_665
Co0 Zr1 2.921117 1_566
Co0 Zr1 2.921119 1_556
Co0 Zr1 2.921120 1_666
Si0 Zr1 2.732200 1_655
Si0 Zr1 2.732202 1_665
Si0 Zr1 2.732202 1_555
Si0 Zr0 2.830104 1_654
Si0 Zr0 2.830105 1_664
Si0 Zr0 2.830106 1_554
Br0 Zr1 2.842669 1_565
Br0 Zr1 2.842670 1_555
Br0 Zr1 2.842671 1_665
Br1 Zr0 2.885795 1_655
Br1 Zr0 2.885797 1_665
Br1 Zr0 2.885797 1_555
