# generated using pymatgen
data_Hf4Ta2NbH16
_symmetry_space_group_name_H-M   'P 1'
_cell_length_a   6.40818619
_cell_length_b   6.40818630
_cell_length_c   6.66442887
_cell_angle_alpha   58.66819275
_cell_angle_beta   58.66819217
_cell_angle_gamma   62.66360377
_symmetry_Int_Tables_number   1
_chemical_formula_structural   Hf4Ta2NbH16
_chemical_formula_sum   'Hf4 Ta2 Nb1 H16'
_cell_volume   192.87166077
_cell_formula_units_Z   1
loop_
 _symmetry_equiv_pos_site_id
 _symmetry_equiv_pos_as_xyz
  1  'x, y, z'
loop_
 _atom_site_type_symbol
 _atom_site_label
 _atom_site_symmetry_multiplicity
 _atom_site_fract_x
 _atom_site_fract_y
 _atom_site_fract_z
 _atom_site_occupancy
  Hf  Hf0  1  0.50000000  0.00000000  0.50000000  1
  Hf  Hf1  1  0.00000000  0.50000000  0.50000000  1
  Hf  Hf2  1  0.00000000  0.50000000  0.00000000  1
  Hf  Hf3  1  0.50000000  0.00000000  0.00000000  1
  Ta  Ta0  1  0.00000000  0.00000000  0.50000000  1
  Ta  Ta1  1  0.50000000  0.50000000  0.00000000  1
  Nb  Nb0  1  0.00000000  0.00000000  0.00000000  1
  H  H0  1  0.87969385  0.87969385  0.37286118  1
  H  H1  1  0.86774812  0.37286118  0.87969385  1
  H  H2  1  0.37286118  0.86774812  0.87969385  1
  H  H3  1  0.87969385  0.87969385  0.86774812  1
  H  H4  1  0.12030615  0.12030615  0.62713882  1
  H  H5  1  0.13225188  0.62713882  0.12030615  1
  H  H6  1  0.62713882  0.13225188  0.12030615  1
  H  H7  1  0.12030615  0.12030615  0.13225188  1
  H  H8  1  0.61787972  0.61787972  0.12907357  1
  H  H9  1  0.63516700  0.12907357  0.61787972  1
  H  H10  1  0.12907357  0.63516700  0.61787972  1
  H  H11  1  0.61787972  0.61787972  0.63516700  1
  H  H12  1  0.38212028  0.38212028  0.87092643  1
  H  H13  1  0.36483300  0.87092643  0.38212028  1
  H  H14  1  0.87092643  0.36483300  0.38212028  1
  H  H15  1  0.38212028  0.38212028  0.36483300  1
loop_
_geom_bond_atom_site_label_1
_geom_bond_atom_site_label_2
_geom_bond_distance
_geom_bond_site_symmetry_2
H0 Ta0 1.952231 1_665
H0 Nb0 1.981082 1_665
H0 Hf0 2.011212 1_565
H0 Hf1 2.011212 1_655
H1 Ta1 1.952216 1_556
H1 Nb0 1.981084 1_656
H1 Hf1 2.011212 1_655
H1 Hf2 2.011228 1_656
H2 Ta1 1.952216 1_556
H2 Nb0 1.981084 1_566
H2 Hf0 2.011212 1_565
H2 Hf3 2.011228 1_566
H3 Ta0 1.952214 1_665
H3 Nb0 1.981099 1_666
H3 Hf3 2.011213 1_566
H3 Hf2 2.011213 1_656
H4 Ta0 1.952231 1_555
H4 Nb0 1.981082 1_556
H4 Hf0 2.011212 1_555
H4 Hf1 2.011212 1_555
H5 Ta1 1.952216 1_555
H5 Nb0 1.981084 1_565
H5 Hf1 2.011212 1_555
H5 Hf2 2.011228 1_555
H6 Ta1 1.952216 1_555
H6 Nb0 1.981084 1_655
H6 Hf0 2.011212 1_555
H6 Hf3 2.011228 1_555
H7 Ta0 1.952214 1_555
H7 Nb0 1.981099 1_555
H7 Hf3 2.011213 1_555
H7 Hf2 2.011213 1_555
H8 Ta1 1.938251 1_555
H8 Hf2 2.023121 1_655
H8 Hf3 2.023121 1_565
H9 Ta0 1.938251 1_655
H9 Hf0 2.023121 1_555
H9 Hf3 2.023121 1_556
H10 Ta0 1.938251 1_565
H10 Hf1 2.023121 1_555
H10 Hf2 2.023121 1_556
H11 Ta1 1.938251 1_556
H11 Hf1 2.023121 1_655
H11 Hf0 2.023121 1_565
H12 Ta1 1.938251 1_556
H12 Hf2 2.023121 1_556
H12 Hf3 2.023121 1_556
H13 Ta0 1.938251 1_565
H13 Hf3 2.023121 1_565
H13 Hf0 2.023121 1_565
H14 Ta0 1.938251 1_655
H14 Hf1 2.023121 1_655
H14 Hf2 2.023121 1_655
H15 Ta1 1.938251 1_555
H15 Hf1 2.023121 1_555
H15 Hf0 2.023121 1_555
