# generated using pymatgen
data_Y4Si10(OsPt)3
_symmetry_space_group_name_H-M   'P 1'
_cell_length_a   8.10935929
_cell_length_b   8.13191718
_cell_length_c   8.13191695
_cell_angle_alpha   137.33566852
_cell_angle_beta   105.11120475
_cell_angle_gamma   90.26964739
_symmetry_Int_Tables_number   1
_chemical_formula_structural   Y4Si10(OsPt)3
_chemical_formula_sum   'Y4 Si10 Os3 Pt3'
_cell_volume   334.67402175
_cell_formula_units_Z   1
loop_
 _symmetry_equiv_pos_site_id
 _symmetry_equiv_pos_as_xyz
  1  'x, y, z'
loop_
 _atom_site_type_symbol
 _atom_site_label
 _atom_site_symmetry_multiplicity
 _atom_site_fract_x
 _atom_site_fract_y
 _atom_site_fract_z
 _atom_site_occupancy
  Y  Y0  1  0.86237291  0.62904957  0.23332434  1
  Y  Y1  1  0.14052384  0.37083983  0.76968400  1
  Y  Y2  1  0.39841537  0.13101202  0.26740335  1
  Y  Y3  1  0.60146168  0.87085949  0.73060219  1
  Si  Si0  1  0.49523991  0.75263396  0.25204733  1
  Si  Si1  1  0.49523991  0.24319258  0.74260596  1
  Si  Si2  1  0.22032173  0.97340151  0.74482422  1
  Si  Si3  1  0.77638529  0.52326455  0.74562783  1
  Si  Si4  1  0.77638529  0.03075746  0.25312174  1
  Si  Si5  1  0.22032173  0.47549751  0.24692022  1
  Si  Si6  1  0.05408487  0.89811897  0.15596590  1
  Si  Si7  1  0.95397640  0.10270818  0.85126723  1
  Si  Si8  1  0.74620357  0.39546417  0.35073940  1
  Si  Si9  1  0.25351829  0.60322361  0.65029368  1
  Os  Os0  1  0.00009742  0.75033017  0.75193463  1
  Os  Os1  1  0.00009742  0.24816279  0.24976725  1
  Os  Os2  1  0.24640744  0.85982207  0.38658637  1
  Pt  Pt0  1  0.75457224  0.13974284  0.61482840  1
  Pt  Pt1  1  0.47506167  0.36018689  0.11487578  1
  Pt  Pt2  1  0.52931500  0.64173383  0.88758217  1
loop_
_geom_bond_atom_site_label_1
_geom_bond_atom_site_label_2
_geom_bond_distance
_geom_bond_site_symmetry_2
Si0 Y1 3.069615 1_554
Si0 Y3 3.090746 1_555
Si0 Y2 3.099750 1_565
Si0 Y0 3.152211 1_555
Si1 Y1 3.069615 1_555
Si1 Y3 3.090746 1_545
Si1 Y2 3.099750 1_555
Si1 Y0 3.152214 1_556
Si2 Si7 2.485481 1_465
Si2 Si9 2.537199 1_555
Si2 Y1 3.167339 1_565
Si2 Y0 3.172867 1_455
Si2 Y3 3.214118 1_555
Si2 Y2 3.249593 1_566
Si3 Si8 2.476196 1_555
Si3 Si6 2.560504 1_656
Si3 Y2 3.184779 1_555
Si3 Y1 3.222469 1_655
Si3 Y3 3.236074 1_555
Si3 Y0 3.238793 1_556
Si4 Si8 2.476201 1_555
Si4 Si6 2.560506 1_645
Si4 Y2 3.184778 1_555
Si4 Y1 3.222466 1_655
Si4 Y3 3.236081 1_544
Si4 Y0 3.238785 1_545
Si5 Si7 2.485485 1_454
Si5 Si9 2.537195 1_555
Si5 Y1 3.167339 1_554
Si5 Y0 3.172870 1_455
Si5 Y3 3.214119 1_555
Si5 Y2 3.249593 1_555
Si6 Y2 2.883016 1_565
Si6 Y0 3.178436 1_455
Si6 Y1 3.179896 1_554
Si6 Y1 3.179896 1_565
Si7 Y3 2.907828 1_545
Si7 Y1 3.178447 1_655
Si7 Y0 3.193831 1_545
Si7 Y0 3.193842 1_556
Si8 Y0 2.920045 1_555
Si8 Y2 3.137089 1_555
Si8 Y3 3.199290 1_555
Si8 Y3 3.199290 1_544
Si9 Y1 2.915312 1_555
Si9 Y3 3.164766 1_555
Si9 Y2 3.191718 1_555
Si9 Y2 3.191724 1_566
Os0 Si7 2.401460 1_465
Os0 Si9 2.406697 1_555
Os0 Si8 2.409636 1_455
Os0 Si6 2.422565 1_556
Os0 Si3 2.546367 1_455
Os0 Si2 2.580871 1_555
Os0 Y2 3.368986 1_566
Os0 Y0 3.379723 1_455
Os0 Y3 3.380602 1_455
Os0 Y1 3.382805 1_555
Os1 Si7 2.401464 1_454
Os1 Si9 2.406693 1_555
Os1 Si8 2.409636 1_455
Os1 Si6 2.422565 1_545
Os1 Si4 2.546373 1_455
Os1 Si5 2.580871 1_555
Os1 Y2 3.368985 1_555
Os1 Y0 3.379725 1_455
Os1 Y3 3.380602 1_444
Os1 Y1 3.382805 1_555
Os2 Si6 2.320555 1_555
Os2 Si2 2.397999 1_555
Os2 Si5 2.398003 1_555
Os2 Si1 2.407000 1_565
Os2 Si0 2.407003 1_555
Os2 Y0 3.042255 1_455
Os2 Y1 3.178087 1_565
Os2 Y1 3.178093 1_554
Os2 Y2 3.326080 1_565
Os2 Y3 3.398957 1_555
Pt0 Si7 2.374328 1_555
Pt0 Si4 2.430508 1_555
Pt0 Si3 2.430520 1_555
Pt0 Si0 2.465865 1_545
Pt0 Si1 2.465868 1_555
Pt0 Y1 3.053279 1_655
Pt0 Y0 3.183685 1_545
Pt0 Y0 3.183696 1_556
Pt0 Y3 3.289423 1_545
Pt0 Y2 3.431812 1_555
Pt1 Si8 2.362578 1_555
Pt1 Si5 2.448200 1_555
Pt1 Si2 2.448203 1_544
Pt1 Si0 2.473922 1_555
Pt1 Si1 2.473925 1_554
Pt1 Y2 3.031248 1_555
Pt1 Y3 3.173445 1_555
Pt1 Y3 3.173451 1_544
Pt1 Y0 3.291468 1_555
Pt1 Y1 3.411195 1_554
Pt2 Si9 2.382886 1_555
Pt2 Si4 2.421470 1_566
Pt2 Si3 2.421473 1_555
Pt2 Si0 2.484398 1_556
Pt2 Si1 2.484402 1_555
Pt2 Y3 3.052974 1_555
Pt2 Y2 3.189553 1_566
Pt2 Y2 3.189558 1_555
Pt2 Y1 3.311328 1_555
Pt2 Y0 3.417617 1_556
