# generated using pymatgen
data_Rb2LiScAs2
_symmetry_space_group_name_H-M   'P 1'
_cell_length_a   10.30851144
_cell_length_b   10.30851086
_cell_length_c   6.63766507
_cell_angle_alpha   90.00000000
_cell_angle_beta   90.00000000
_cell_angle_gamma   100.08968918
_symmetry_Int_Tables_number   1
_chemical_formula_structural   Rb2LiScAs2
_chemical_formula_sum   'Rb8 Li4 Sc4 As8'
_cell_volume   694.44565073
_cell_formula_units_Z   4
loop_
 _symmetry_equiv_pos_site_id
 _symmetry_equiv_pos_as_xyz
  1  'x, y, z'
loop_
 _atom_site_type_symbol
 _atom_site_label
 _atom_site_symmetry_multiplicity
 _atom_site_fract_x
 _atom_site_fract_y
 _atom_site_fract_z
 _atom_site_occupancy
  Rb  Rb0  1  0.06897870  0.43102130  0.75000000  1
  Rb  Rb1  1  0.67726530  0.32273470  0.78928282  1
  Rb  Rb2  1  0.32273470  0.67726530  0.21071718  1
  Rb  Rb3  1  0.56897870  0.93102130  0.75000000  1
  Rb  Rb4  1  0.43102130  0.06897870  0.25000000  1
  Rb  Rb5  1  0.93102130  0.56897870  0.25000000  1
  Rb  Rb6  1  0.82273470  0.17726530  0.28928282  1
  Rb  Rb7  1  0.17726530  0.82273470  0.71071718  1
  Li  Li0  1  0.12191261  0.12191261  0.50000000  1
  Li  Li1  1  0.87808739  0.87808739  0.50000000  1
  Li  Li2  1  0.37808739  0.37808739  0.00000000  1
  Li  Li3  1  0.62191261  0.62191261  0.00000000  1
  Sc  Sc0  1  0.86972007  0.86972007  0.00000000  1
  Sc  Sc1  1  0.36972007  0.36972007  0.50000000  1
  Sc  Sc2  1  0.63027993  0.63027993  0.50000000  1
  Sc  Sc3  1  0.13027993  0.13027993  0.00000000  1
  As  As0  1  0.83648036  0.66351964  0.75000000  1
  As  As1  1  0.08803223  0.91196777  0.22359519  1
  As  As2  1  0.41196777  0.58803223  0.72359519  1
  As  As3  1  0.58803223  0.41196777  0.27640481  1
  As  As4  1  0.66351964  0.83648036  0.25000000  1
  As  As5  1  0.16351964  0.33648036  0.25000000  1
  As  As6  1  0.33648036  0.16351964  0.75000000  1
  As  As7  1  0.91196777  0.08803223  0.77640481  1
loop_
_geom_bond_atom_site_label_1
_geom_bond_atom_site_label_2
_geom_bond_distance
_geom_bond_site_symmetry_2
As0 Sc0 2.670980 1_556
As0 Sc2 2.670980 1_555
As0 Li1 2.738176 1_555
As0 Li3 2.738176 1_556
As0 Rb1 3.616991 1_555
As0 Rb7 3.616991 1_655
As0 Rb5 3.639648 1_555
As0 Rb5 3.639648 1_556
As0 Rb0 3.674386 1_655
As1 Sc3 2.667132 1_565
As1 Sc0 2.667132 1_455
As1 Li0 2.811946 1_565
As1 Li1 2.811946 1_455
As1 Rb7 3.527510 1_555
As1 Rb5 3.625813 1_455
As1 Rb4 3.625813 1_565
As1 Rb7 3.684847 1_554
As1 Rb2 3.710205 1_555
As2 Sc1 2.667132 1_555
As2 Sc2 2.667132 1_555
As2 Li2 2.811946 1_556
As2 Li3 2.811946 1_556
As2 Rb2 3.527510 1_556
As2 Rb3 3.625813 1_555
As2 Rb0 3.625813 1_555
As2 Rb2 3.684847 1_555
As2 Rb7 3.710205 1_555
As3 Sc2 2.667132 1_555
As3 Sc1 2.667132 1_555
As3 Li3 2.811946 1_555
As3 Li2 2.811946 1_555
As3 Rb1 3.527510 1_554
As3 Rb4 3.625813 1_555
As3 Rb5 3.625813 1_555
As3 Rb1 3.684847 1_555
As3 Rb6 3.710205 1_555
As4 Sc2 2.670980 1_555
As4 Sc0 2.670980 1_555
As4 Li3 2.738176 1_555
As4 Li1 2.738176 1_555
As4 Rb6 3.616991 1_565
As4 Rb2 3.616991 1_555
As4 Rb3 3.639648 1_555
As4 Rb3 3.639648 1_554
As4 Rb4 3.674386 1_565
As5 Sc3 2.670980 1_555
As5 Sc1 2.670980 1_555
As5 Li0 2.738176 1_555
As5 Li2 2.738176 1_555
As5 Rb2 3.616991 1_555
As5 Rb6 3.616991 1_455
As5 Rb0 3.639648 1_555
As5 Rb0 3.639648 1_554
As5 Rb5 3.674386 1_455
As6 Sc1 2.670980 1_555
As6 Sc3 2.670980 1_556
As6 Li2 2.738176 1_556
As6 Li0 2.738176 1_555
As6 Rb7 3.616991 1_545
As6 Rb1 3.616991 1_555
As6 Rb4 3.639648 1_555
As6 Rb4 3.639648 1_556
As6 Rb3 3.674386 1_545
As7 Sc0 2.667132 1_546
As7 Sc3 2.667132 1_656
As7 Li1 2.811946 1_545
As7 Li0 2.811946 1_655
As7 Rb6 3.527510 1_555
As7 Rb0 3.625813 1_655
As7 Rb3 3.625813 1_545
As7 Rb6 3.684847 1_556
As7 Rb1 3.710205 1_555
