# generated using pymatgen
data_Tc3S4Br
_symmetry_space_group_name_H-M   'P 1'
_cell_length_a   11.49284145
_cell_length_b   6.39495402
_cell_length_c   11.24950614
_cell_angle_alpha   66.47628300
_cell_angle_beta   90.00000000
_cell_angle_gamma   90.00000000
_symmetry_Int_Tables_number   1
_chemical_formula_structural   Tc3S4Br
_chemical_formula_sum   'Tc12 S16 Br4'
_cell_volume   758.08494818
_cell_formula_units_Z   4
loop_
 _symmetry_equiv_pos_site_id
 _symmetry_equiv_pos_as_xyz
  1  'x, y, z'
loop_
 _atom_site_type_symbol
 _atom_site_label
 _atom_site_symmetry_multiplicity
 _atom_site_fract_x
 _atom_site_fract_y
 _atom_site_fract_z
 _atom_site_occupancy
  Tc  Tc0  1  0.52246353  0.30493941  0.43911540  1
  Tc  Tc1  1  0.43667179  0.03272764  0.34480839  1
  Tc  Tc2  1  0.35504997  0.03433586  0.55651204  1
  Tc  Tc3  1  0.47753647  0.69506059  0.56088460  1
  Tc  Tc4  1  0.02246353  0.69506059  0.06088460  1
  Tc  Tc5  1  0.97753647  0.30493941  0.93911540  1
  Tc  Tc6  1  0.56332821  0.96727236  0.65519161  1
  Tc  Tc7  1  0.06332821  0.03272764  0.84480839  1
  Tc  Tc8  1  0.64495003  0.96566414  0.44348796  1
  Tc  Tc9  1  0.93667179  0.96727236  0.15519161  1
  Tc  Tc10  1  0.85504997  0.96566414  0.94348796  1
  Tc  Tc11  1  0.14495003  0.03433586  0.05651204  1
  S  S0  1  0.66887022  0.65573992  0.64824170  1
  S  S1  1  0.55859961  0.72481206  0.35035300  1
  S  S2  1  0.94140039  0.72481206  0.85035300  1
  S  S3  1  0.28880825  0.77831974  0.46739329  1
  S  S4  1  0.78880825  0.22168026  0.03260671  1
  S  S5  1  0.90440633  0.28157887  0.74827986  1
  S  S6  1  0.09559367  0.71842113  0.25172014  1
  S  S7  1  0.71119175  0.22168026  0.53260671  1
  S  S8  1  0.05859961  0.27518794  0.14964700  1
  S  S9  1  0.44140039  0.27518794  0.64964700  1
  S  S10  1  0.40440633  0.71842113  0.75172014  1
  S  S11  1  0.33112978  0.34426008  0.35175830  1
  S  S12  1  0.16887022  0.34426008  0.85175830  1
  S  S13  1  0.59559367  0.28157887  0.24827986  1
  S  S14  1  0.83112978  0.65573992  0.14824170  1
  S  S15  1  0.21119175  0.77831974  0.96739329  1
  Br  Br0  1  0.63965468  0.90321157  0.88652793  1
  Br  Br1  1  0.86034532  0.90321157  0.38652793  1
  Br  Br2  1  0.36034532  0.09678843  0.11347207  1
  Br  Br3  1  0.13965468  0.09678843  0.61347207  1
loop_
_geom_bond_atom_site_label_1
_geom_bond_atom_site_label_2
_geom_bond_distance
_geom_bond_site_symmetry_2
S0 Tc6 2.360247 1_555
S0 Tc8 2.380140 1_555
S0 Tc3 2.380584 1_555
S1 Tc8 2.396480 1_555
S1 Tc1 2.397261 1_565
S1 Tc3 2.480659 1_555
S1 Tc0 2.497779 1_555
S2 Tc10 2.396480 1_555
S2 Tc7 2.397261 1_665
S2 Tc4 2.480659 1_656
S2 Tc5 2.497779 1_555
S3 Tc2 2.361223 1_565
S3 Tc1 2.376028 1_565
S3 Tc3 2.376401 1_555
S4 Tc10 2.361223 1_544
S4 Tc9 2.376028 1_545
S4 Tc5 2.376401 1_554
S5 Tc5 2.365057 1_555
S5 Tc7 2.380801 1_655
S5 Tc10 2.384147 1_545
S6 Tc4 2.365057 1_555
S6 Tc9 2.380801 1_455
S6 Tc11 2.384147 1_565
S7 Tc8 2.361223 1_545
S7 Tc6 2.376028 1_545
S7 Tc0 2.376401 1_555
S8 Tc11 2.396480 1_555
S8 Tc9 2.397261 1_445
S8 Tc5 2.480659 1_454
S8 Tc4 2.497779 1_555
S9 Tc2 2.396480 1_555
S9 Tc6 2.397261 1_545
S9 Tc0 2.480659 1_555
S9 Tc3 2.497779 1_555
S10 Tc3 2.365057 1_555
S10 Tc6 2.380801 1_555
S10 Tc2 2.384147 1_565
S11 Tc1 2.360247 1_555
S11 Tc2 2.380140 1_555
S11 Tc0 2.380584 1_555
S12 Tc7 2.360247 1_555
S12 Tc11 2.380140 1_556
S12 Tc5 2.380584 1_455
S13 Tc0 2.365057 1_555
S13 Tc1 2.380801 1_555
S13 Tc8 2.384147 1_545
S14 Tc9 2.360247 1_555
S14 Tc10 2.380140 1_554
S14 Tc4 2.380584 1_655
S15 Tc11 2.361223 1_566
S15 Tc7 2.376028 1_565
S15 Tc4 2.376401 1_556
Br0 Tc6 2.618944 1_555
Br0 Tc10 2.627261 1_555
Br1 Tc9 2.618944 1_555
Br1 Tc8 2.627261 1_555
Br2 Tc1 2.618944 1_555
Br2 Tc11 2.627261 1_555
Br3 Tc7 2.618944 1_555
Br3 Tc2 2.627261 1_555
