# generated using pymatgen
data_Cs4AlGa3I16
_symmetry_space_group_name_H-M   'P 1'
_cell_length_a   18.77551008
_cell_length_b   7.43300577
_cell_length_c   8.50416037
_cell_angle_alpha   72.10909462
_cell_angle_beta   90.00481166
_cell_angle_gamma   90.16874167
_symmetry_Int_Tables_number   1
_chemical_formula_structural   Cs4AlGa3I16
_chemical_formula_sum   'Cs4 Al1 Ga3 I16'
_cell_volume   1129.43112030
_cell_formula_units_Z   1
loop_
 _symmetry_equiv_pos_site_id
 _symmetry_equiv_pos_as_xyz
  1  'x, y, z'
loop_
 _atom_site_type_symbol
 _atom_site_label
 _atom_site_symmetry_multiplicity
 _atom_site_fract_x
 _atom_site_fract_y
 _atom_site_fract_z
 _atom_site_occupancy
  Cs  Cs0  1  0.86928220  0.18021368  0.70110268  1
  Cs  Cs1  1  0.62991565  0.18037274  0.20156324  1
  Cs  Cs2  1  0.36968730  0.81865893  0.79800774  1
  Cs  Cs3  1  0.13038141  0.81978004  0.29731352  1
  Al  Al0  1  0.12821310  0.19467201  0.70125000  1
  Ga  Ga0  1  0.87229741  0.80569147  0.29872773  1
  Ga  Ga1  1  0.37258756  0.19404259  0.20042393  1
  Ga  Ga2  1  0.62737488  0.80563093  0.79949636  1
  I  I0  1  0.24419690  0.37774124  0.63885963  1
  I  I1  1  0.05565819  0.27103268  0.43387813  1
  I  I2  1  0.75463473  0.62510606  0.36279420  1
  I  I3  1  0.55374851  0.72681734  0.06827178  1
  I  I4  1  0.65439760  0.16383656  0.70375844  1
  I  I5  1  0.84522922  0.16326865  0.20431924  1
  I  I6  1  0.44593189  0.27443277  0.93113619  1
  I  I7  1  0.25486525  0.37279491  0.13803856  1
  I  I8  1  0.74505221  0.62702208  0.86272190  1
  I  I9  1  0.94580668  0.72600346  0.56741104  1
  I  I10  1  0.44542795  0.27606361  0.42390140  1
  I  I11  1  0.94539714  0.72345593  0.07600254  1
  I  I12  1  0.34528832  0.83626372  0.29451114  1
  I  I13  1  0.15525397  0.83933043  0.79679739  1
  I  I14  1  0.55422161  0.72355212  0.57647054  1
  I  I15  1  0.05515034  0.27421705  0.92324068  1
loop_
_geom_bond_atom_site_label_1
_geom_bond_atom_site_label_2
_geom_bond_distance
_geom_bond_site_symmetry_2
Cs0 I4 4.035901 1_555
Cs0 I1 4.112183 1_655
Cs0 I9 4.116688 1_555
Cs0 I15 4.126855 1_655
Cs0 I11 4.136528 1_546
Cs0 I9 4.140361 1_545
Cs0 I2 4.247554 1_555
Cs0 I5 4.266402 1_556
Cs0 I5 4.288870 1_555
Cs1 I5 4.044835 1_555
Cs1 I6 4.090902 1_554
Cs1 I10 4.113539 1_555
Cs1 I3 4.124902 1_545
Cs1 I3 4.127077 1_555
Cs1 I14 4.127395 1_545
Cs1 I8 4.252002 1_554
Cs1 I4 4.259480 1_555
Cs1 I4 4.297503 1_554
Cs2 I13 4.029370 1_555
Cs2 I3 4.091445 1_556
Cs2 I14 4.109417 1_555
Cs2 I6 4.112776 1_555
Cs2 I10 4.126701 1_565
Cs2 I6 4.139532 1_565
Cs2 I7 4.250133 1_556
Cs2 I12 4.268102 1_555
Cs2 I12 4.288978 1_556
Cs3 I12 4.036336 1_555
Cs3 I9 4.095709 1_455
Cs3 I11 4.114597 1_455
Cs3 I15 4.117038 1_564
Cs3 I1 4.121757 1_565
Cs3 I1 4.124333 1_555
Cs3 I0 4.239740 1_555
Cs3 I13 4.239885 1_554
Cs3 I13 4.319792 1_555
Al0 I0 2.532684 1_555
Al0 I15 2.546836 1_555
Al0 I1 2.561061 1_555
Al0 I13 2.565823 1_545
Ga0 I2 2.551951 1_555
Ga0 I11 2.561573 1_555
Ga0 I9 2.578633 1_555
Ga0 I5 2.581464 1_565
Ga1 I7 2.552691 1_555
Ga1 I10 2.561340 1_555
Ga1 I6 2.579286 1_554
Ga1 I12 2.580669 1_545
Ga2 I8 2.551822 1_555
Ga2 I14 2.561550 1_555
Ga2 I3 2.579082 1_556
Ga2 I4 2.582566 1_565
