# generated using pymatgen
data_CsTc2Mo4Se7
_symmetry_space_group_name_H-M   'P 1'
_cell_length_a   9.88342175
_cell_length_b   9.87208790
_cell_length_c   9.89189453
_cell_angle_alpha   60.98653164
_cell_angle_beta   60.93582823
_cell_angle_gamma   61.17985211
_symmetry_Int_Tables_number   1
_chemical_formula_structural   CsTc2Mo4Se7
_chemical_formula_sum   'Cs2 Tc4 Mo8 Se14'
_cell_volume   698.35137278
_cell_formula_units_Z   2
loop_
 _symmetry_equiv_pos_site_id
 _symmetry_equiv_pos_as_xyz
  1  'x, y, z'
loop_
 _atom_site_type_symbol
 _atom_site_label
 _atom_site_symmetry_multiplicity
 _atom_site_fract_x
 _atom_site_fract_y
 _atom_site_fract_z
 _atom_site_occupancy
  Cs  Cs0  1  0.11846904  0.12070329  0.12237178  1
  Cs  Cs1  1  0.87991669  0.88300492  0.88253053  1
  Tc  Tc0  1  0.61050904  0.30791279  0.43958233  1
  Tc  Tc1  1  0.30846250  0.43967042  0.60953835  1
  Tc  Tc2  1  0.44027868  0.60992676  0.30890214  1
  Tc  Tc3  1  0.38879921  0.69348595  0.56045417  1
  Mo  Mo0  1  0.69427464  0.56076967  0.38865676  1
  Mo  Mo1  1  0.55976313  0.38843631  0.69381246  1
  Mo  Mo2  1  0.37621510  0.20522432  0.50159301  1
  Mo  Mo3  1  0.20661975  0.50218442  0.37561273  1
  Mo  Mo4  1  0.50336450  0.37584523  0.20530614  1
  Mo  Mo5  1  0.62487554  0.79435622  0.49806118  1
  Mo  Mo6  1  0.79517279  0.49770823  0.62413805  1
  Mo  Mo7  1  0.49799926  0.62341700  0.79474599  1
  Se  Se0  1  0.66742584  0.31652315  0.91745226  1
  Se  Se1  1  0.08647822  0.32956070  0.68341622  1
  Se  Se2  1  0.27686209  0.27754861  0.27556720  1
  Se  Se3  1  0.72342660  0.72443291  0.72397347  1
  Se  Se4  1  0.85425182  0.25857450  0.51643900  1
  Se  Se5  1  0.25800616  0.52170163  0.85010930  1
  Se  Se6  1  0.51228716  0.85449656  0.26440174  1
  Se  Se7  1  0.15062704  0.73317589  0.48246819  1
  Se  Se8  1  0.73280636  0.48156594  0.14744452  1
  Se  Se9  1  0.47902281  0.14730865  0.73213647  1
  Se  Se10  1  0.33424348  0.68335588  0.08512615  1
  Se  Se11  1  0.68392861  0.08506329  0.33133065  1
  Se  Se12  1  0.91835683  0.66984721  0.31675479  1
  Se  Se13  1  0.31756110  0.91419955  0.66807444  1
loop_
_geom_bond_atom_site_label_1
_geom_bond_atom_site_label_2
_geom_bond_distance
_geom_bond_site_symmetry_2
Cs0 Se2 3.750009 1_555
Cs0 Se8 3.758763 1_455
Cs0 Se7 3.759506 1_545
Cs0 Se9 3.771283 1_554
Cs0 Se11 3.868798 1_455
Cs0 Se1 3.902041 1_554
Cs0 Se10 3.902208 1_545
Cs0 Se4 3.961889 1_455
Cs0 Se6 3.987427 1_545
Cs0 Se5 4.017388 1_554
Cs1 Se5 3.726089 1_655
Cs1 Se4 3.726473 1_565
Cs1 Se6 3.764272 1_556
Cs1 Se3 3.791519 1_555
Cs1 Se0 3.861304 1_565
Cs1 Se13 3.878125 1_655
Cs1 Se12 3.881882 1_556
Cs1 Se8 4.057874 1_556
Cs1 Se7 4.072163 1_655
Cs1 Se9 4.088340 1_565
Tc0 Tc2 2.632339 1_555
Tc0 Tc1 2.632760 1_555
Tc1 Tc2 2.620017 1_555
Tc1 Tc3 2.740093 1_555
Tc2 Tc3 2.736331 1_555
Mo0 Se12 2.568313 1_555
Mo0 Se4 2.594965 1_555
Mo0 Se6 2.610818 1_555
Mo0 Mo6 2.656981 1_555
Mo0 Mo1 2.659636 1_555
Mo0 Tc3 2.661005 1_555
Mo0 Se8 2.662601 1_555
Mo0 Mo5 2.670934 1_555
Mo0 Tc0 2.745502 1_555
Mo0 Tc2 2.745549 1_555
Mo1 Se0 2.562317 1_555
Mo1 Se5 2.593464 1_555
Mo1 Se4 2.610789 1_555
Mo1 Mo7 2.653298 1_555
Mo1 Tc3 2.659026 1_555
Mo1 Se9 2.666288 1_555
Mo1 Mo6 2.681911 1_555
Mo1 Tc1 2.740632 1_555
Mo1 Tc0 2.745387 1_555
Mo2 Se2 2.526164 1_555
Mo2 Mo4 2.584538 1_555
Mo2 Se1 2.586574 1_555
Mo2 Mo3 2.589387 1_555
Mo2 Se11 2.641257 1_555
Mo2 Se9 2.643201 1_555
Mo2 Tc0 2.654445 1_555
Mo2 Tc1 2.674642 1_555
Mo2 Se13 2.718637 1_545
Mo3 Se2 2.521161 1_555
Mo3 Mo4 2.589659 1_555
Mo3 Se10 2.591334 1_555
Mo3 Se1 2.643809 1_555
Mo3 Tc1 2.650895 1_555
Mo3 Tc2 2.665824 1_555
Mo3 Se7 2.678937 1_555
Mo3 Se12 2.706636 1_455
Mo4 Se2 2.522826 1_555
Mo4 Se11 2.594294 1_555
Mo4 Se10 2.638306 1_555
Mo4 Se8 2.645851 1_555
Mo4 Tc2 2.658236 1_555
Mo4 Tc0 2.670895 1_555
Mo4 Se0 2.701148 1_554
Mo5 Se3 2.527705 1_555
Mo5 Mo7 2.587214 1_555
Mo5 Mo6 2.590158 1_555
Mo5 Se12 2.605295 1_555
Mo5 Se13 2.637425 1_555
Mo5 Tc3 2.657321 1_555
Mo5 Se11 2.717589 1_565
Mo5 Se6 2.731987 1_555
Mo6 Se3 2.534055 1_555
Mo6 Mo7 2.591578 1_555
Mo6 Se0 2.606864 1_555
Mo6 Se12 2.645977 1_555
Mo6 Se1 2.734377 1_655
Mo6 Se4 2.748693 1_555
Mo7 Se3 2.529432 1_555
Mo7 Se13 2.595600 1_555
Mo7 Se0 2.640565 1_555
Mo7 Tc3 2.677662 1_555
Mo7 Se10 2.725609 1_556
Mo7 Se5 2.726757 1_555
Se1 Tc1 2.549530 1_555
Se4 Tc0 2.628216 1_555
Se5 Tc3 2.560888 1_555
Se5 Tc1 2.625740 1_555
Se6 Tc3 2.544542 1_555
Se6 Tc2 2.617442 1_555
Se7 Tc1 2.534428 1_555
Se7 Tc2 2.552707 1_555
Se7 Tc3 2.621371 1_555
Se8 Tc2 2.541676 1_555
Se8 Tc0 2.559172 1_555
Se9 Tc0 2.541493 1_555
Se9 Tc1 2.557878 1_555
Se10 Tc2 2.547265 1_555
Se11 Tc0 2.550347 1_555
Se13 Tc3 2.533657 1_555
