# generated using pymatgen
data_Hf15Zr(Pt3W)2
_symmetry_space_group_name_H-M   'P 1'
_cell_length_a   8.82912837
_cell_length_b   8.83715188
_cell_length_c   8.79061500
_cell_angle_alpha   60.29216397
_cell_angle_beta   60.19989614
_cell_angle_gamma   60.07056675
_symmetry_Int_Tables_number   1
_chemical_formula_structural   Hf15Zr(Pt3W)2
_chemical_formula_sum   'Hf15 Zr1 Pt6 W2'
_cell_volume   487.04792314
_cell_formula_units_Z   1
loop_
 _symmetry_equiv_pos_site_id
 _symmetry_equiv_pos_as_xyz
  1  'x, y, z'
loop_
 _atom_site_type_symbol
 _atom_site_label
 _atom_site_symmetry_multiplicity
 _atom_site_fract_x
 _atom_site_fract_y
 _atom_site_fract_z
 _atom_site_occupancy
  Hf  Hf0  1  0.08209818  0.64010862  0.63897580  1
  Hf  Hf1  1  0.63991667  0.08340028  0.63799496  1
  Hf  Hf2  1  0.64184863  0.64084473  0.07586795  1
  Hf  Hf3  1  0.64201373  0.64162839  0.64142248  1
  Hf  Hf4  1  0.78631268  0.78348899  0.21554046  1
  Hf  Hf5  1  0.21154166  0.21217901  0.78674103  1
  Hf  Hf6  1  0.79882553  0.20750101  0.78719140  1
  Hf  Hf7  1  0.20672361  0.79645465  0.20715615  1
  Hf  Hf8  1  0.20712539  0.79777193  0.78833268  1
  Hf  Hf9  1  0.79937884  0.20592568  0.20559904  1
  Hf  Hf10  1  0.43193876  0.43228329  0.06844237  1
  Hf  Hf11  1  0.06380978  0.06487171  0.43612179  1
  Hf  Hf12  1  0.43218590  0.05736903  0.43408481  1
  Hf  Hf13  1  0.05711310  0.43228394  0.07740566  1
  Hf  Hf14  1  0.05836689  0.43103745  0.43240187  1
  Zr  Zr0  1  0.43090058  0.05887111  0.07796641  1
  Pt  Pt0  1  0.41826086  0.42079376  0.75176057  1
  Pt  Pt1  1  0.41848055  0.41844008  0.40963918  1
  Pt  Pt2  1  0.42602164  0.86320400  0.85564526  1
  Pt  Pt3  1  0.86306589  0.42615174  0.85558183  1
  Pt  Pt4  1  0.85734660  0.85771275  0.43043735  1
  Pt  Pt5  1  0.85700036  0.85779688  0.85512468  1
  W  W0  1  0.75253568  0.41733716  0.41504839  1
  W  W1  1  0.41719149  0.75254580  0.41552087  1
loop_
_geom_bond_atom_site_label_1
_geom_bond_atom_site_label_2
_geom_bond_distance
_geom_bond_site_symmetry_2
Hf0 Pt4 2.703710 1_455
Hf0 Pt5 2.704687 1_455
Hf0 Pt3 2.713072 1_455
Hf0 W1 2.970104 1_555
Hf0 Pt0 2.971300 1_555
Hf0 Pt1 2.979908 1_555
Hf0 Hf11 3.216069 1_565
Hf1 Pt4 2.701268 1_545
Hf1 Pt5 2.709791 1_545
Hf1 Pt2 2.720138 1_545
Hf1 W0 2.965981 1_555
Hf1 Pt1 2.975233 1_555
Hf1 Pt0 2.984545 1_555
Hf1 Hf11 3.202837 1_655
Hf1 Zr0 3.299250 1_556
Hf2 Pt5 2.707891 1_554
Hf2 Pt3 2.710851 1_554
Hf2 Pt2 2.720278 1_554
Hf2 Pt1 2.960020 1_555
Hf2 W0 2.979813 1_555
Hf2 W1 2.984034 1_555
Hf2 Zr0 3.206834 1_565
Hf3 Pt4 2.703421 1_555
Hf3 Pt3 2.714713 1_555
Hf3 Pt2 2.715926 1_555
Hf3 Pt0 2.952716 1_555
Hf3 W0 2.981642 1_555
Hf3 W1 2.981876 1_555
Hf4 Pt4 2.684850 1_555
Hf4 Pt5 2.690755 1_554
Hf4 W0 2.907433 1_555
Hf4 W1 2.916272 1_555
Hf4 Zr0 3.235198 1_565
Hf5 Pt3 2.624153 1_455
Hf5 Pt2 2.631483 1_545
Hf5 Pt1 2.993974 1_555
Hf5 Pt0 3.010369 1_555
Hf5 Zr0 3.318512 1_556
Hf6 Pt3 2.645872 1_555
Hf6 Pt5 2.657573 1_545
Hf6 W0 2.977843 1_555
Hf6 Pt0 3.013019 1_555
Hf6 Zr0 3.389414 1_556
Hf7 Pt4 2.651371 1_455
Hf7 Pt2 2.651668 1_554
Hf7 W1 2.986256 1_555
Hf7 Pt1 3.000852 1_555
Hf7 Zr0 3.212603 1_565
Hf8 Pt2 2.647757 1_555
Hf8 Pt5 2.655297 1_455
Hf8 W1 2.976070 1_555
Hf8 Pt0 2.990918 1_555
Hf9 Pt3 2.647276 1_554
Hf9 Pt4 2.653914 1_545
Hf9 W0 2.988809 1_555
Hf9 Pt1 3.015749 1_555
Hf10 Pt1 2.884728 1_555
Hf10 Pt0 2.898471 1_554
Hf10 Zr0 3.263744 1_555
Hf11 W0 2.946414 1_455
Hf11 W1 2.954003 1_545
Hf11 Pt4 3.191882 1_445
Hf11 Hf14 3.196200 1_555
Hf11 Pt5 3.196603 1_445
Hf11 Zr0 3.204899 1_555
Hf11 Hf12 3.211104 1_555
Hf11 Hf6 3.212906 1_455
Hf11 Hf13 3.214818 1_555
Hf11 Hf9 3.225814 1_455
Hf11 Hf8 3.229380 1_545
Hf11 Hf7 3.238980 1_545
Hf12 W1 2.848436 1_545
Hf12 Pt1 3.033680 1_555
Hf12 Zr0 3.129586 1_555
Hf13 W0 2.844475 1_455
Hf13 Pt0 3.043785 1_554
Hf13 Zr0 3.303592 1_555
Hf14 W0 2.843076 1_455
Hf14 Pt1 3.032838 1_555
Pt0 W1 2.956846 1_555
Pt0 W0 2.964665 1_555
Pt0 Zr0 3.055552 1_556
Pt1 W0 2.968444 1_555
Pt1 W1 2.972794 1_555
Pt2 Zr0 3.212268 1_566
Pt5 Zr0 3.256142 1_566
W0 W1 2.964700 1_555
W1 Zr0 2.855880 1_565
