# generated using pymatgen
data_Ti3ZnCu2N
_symmetry_space_group_name_H-M   'P 1'
_cell_length_a   7.95973863
_cell_length_b   7.95973739
_cell_length_c   7.95973886
_cell_angle_alpha   59.99999392
_cell_angle_beta   59.99999907
_cell_angle_gamma   60.00000606
_symmetry_Int_Tables_number   1
_chemical_formula_structural   Ti3ZnCu2N
_chemical_formula_sum   'Ti12 Zn4 Cu8 N4'
_cell_volume   356.60002207
_cell_formula_units_Z   4
loop_
 _symmetry_equiv_pos_site_id
 _symmetry_equiv_pos_as_xyz
  1  'x, y, z'
loop_
 _atom_site_type_symbol
 _atom_site_label
 _atom_site_symmetry_multiplicity
 _atom_site_fract_x
 _atom_site_fract_y
 _atom_site_fract_z
 _atom_site_occupancy
  Ti  Ti0  1  0.81704231  0.81704231  0.18295769  1
  Ti  Ti1  1  0.18295769  0.18295769  0.81704231  1
  Ti  Ti2  1  0.81704231  0.18295769  0.81704231  1
  Ti  Ti3  1  0.18295769  0.81704231  0.18295769  1
  Ti  Ti4  1  0.18295769  0.81704231  0.81704231  1
  Ti  Ti5  1  0.81704231  0.18295769  0.18295769  1
  Ti  Ti6  1  0.43295769  0.43295769  0.06704231  1
  Ti  Ti7  1  0.06704231  0.06704231  0.43295769  1
  Ti  Ti8  1  0.43295769  0.06704231  0.43295769  1
  Ti  Ti9  1  0.06704231  0.43295769  0.06704231  1
  Ti  Ti10  1  0.06704231  0.43295769  0.43295769  1
  Ti  Ti11  1  0.43295769  0.06704231  0.06704231  1
  Zn  Zn0  1  0.12500000  0.62500000  0.62500000  1
  Zn  Zn1  1  0.62500000  0.12500000  0.62500000  1
  Zn  Zn2  1  0.62500000  0.62500000  0.12500000  1
  Zn  Zn3  1  0.62500000  0.62500000  0.62500000  1
  Cu  Cu0  1  0.75126767  0.41624478  0.41624478  1
  Cu  Cu1  1  0.41624478  0.75126767  0.41624478  1
  Cu  Cu2  1  0.41624478  0.41624478  0.75126767  1
  Cu  Cu3  1  0.41624478  0.41624478  0.41624478  1
  Cu  Cu4  1  0.49873233  0.83375522  0.83375522  1
  Cu  Cu5  1  0.83375522  0.49873233  0.83375522  1
  Cu  Cu6  1  0.83375522  0.83375522  0.49873233  1
  Cu  Cu7  1  0.83375522  0.83375522  0.83375522  1
  N  N0  1  0.62500000  0.12500000  0.12500000  1
  N  N1  1  0.12500000  0.62500000  0.12500000  1
  N  N2  1  0.12500000  0.12500000  0.62500000  1
  N  N3  1  0.12500000  0.12500000  0.12500000  1
loop_
_geom_bond_atom_site_label_1
_geom_bond_atom_site_label_2
_geom_bond_distance
_geom_bond_site_symmetry_2
Cu0 Zn3 2.439912 1_555
Cu0 Zn1 2.439925 1_555
Cu0 Zn2 2.439925 1_555
Cu0 Ti10 2.653193 1_655
Cu0 Ti9 2.653201 1_655
Cu0 Ti7 2.653201 1_655
Cu0 Cu3 2.666695 1_555
Cu0 Cu2 2.666695 1_555
Cu0 Cu1 2.666695 1_555
Cu0 Ti0 2.945155 1_555
Cu0 Ti2 2.945156 1_555
Cu0 Ti5 2.945169 1_555
Cu1 Zn3 2.439912 1_555
Cu1 Zn0 2.439925 1_555
Cu1 Zn2 2.439925 1_555
Cu1 Ti8 2.653192 1_565
Cu1 Ti11 2.653201 1_565
Cu1 Ti7 2.653201 1_565
Cu1 Cu3 2.666694 1_555
Cu1 Cu2 2.666694 1_555
Cu1 Ti0 2.945156 1_555
Cu1 Ti4 2.945156 1_555
Cu1 Ti3 2.945170 1_555
Cu2 Zn3 2.439912 1_555
Cu2 Zn1 2.439925 1_555
Cu2 Zn0 2.439925 1_555
Cu2 Ti6 2.653193 1_556
Cu2 Ti11 2.653201 1_556
Cu2 Ti9 2.653201 1_556
Cu2 Cu3 2.666695 1_555
Cu2 Ti4 2.945156 1_555
Cu2 Ti2 2.945156 1_555
Cu2 Ti1 2.945169 1_555
Cu3 Zn2 2.439916 1_555
Cu3 Zn1 2.439916 1_555
Cu3 Zn0 2.439917 1_555
Cu3 Ti8 2.653208 1_555
Cu3 Ti10 2.653208 1_555
Cu3 Ti6 2.653208 1_555
Cu3 Ti1 2.945162 1_555
Cu3 Ti3 2.945162 1_555
Cu3 Ti5 2.945162 1_555
Cu4 Zn3 2.439912 1_555
Cu4 Zn1 2.439925 1_565
Cu4 Zn2 2.439925 1_556
Cu4 Ti4 2.653193 1_555
Cu4 Ti3 2.653201 1_556
Cu4 Ti1 2.653201 1_565
Cu4 Cu7 2.666695 1_555
Cu4 Cu6 2.666695 1_555
Cu4 Cu5 2.666695 1_555
Cu4 Ti6 2.945155 1_556
Cu4 Ti8 2.945156 1_565
Cu4 Ti11 2.945169 1_566
Cu5 Zn3 2.439912 1_555
Cu5 Zn0 2.439925 1_655
Cu5 Zn2 2.439925 1_556
Cu5 Ti2 2.653192 1_555
Cu5 Ti5 2.653201 1_556
Cu5 Ti1 2.653201 1_655
Cu5 Cu7 2.666694 1_555
Cu5 Cu6 2.666694 1_555
Cu5 Ti6 2.945156 1_556
Cu5 Ti10 2.945156 1_655
Cu5 Ti9 2.945170 1_656
Cu6 Zn3 2.439912 1_555
Cu6 Zn1 2.439925 1_565
Cu6 Zn0 2.439925 1_655
Cu6 Ti0 2.653193 1_555
Cu6 Ti5 2.653201 1_565
Cu6 Ti3 2.653201 1_655
Cu6 Cu7 2.666695 1_555
Cu6 Ti10 2.945156 1_655
Cu6 Ti8 2.945156 1_565
Cu6 Ti7 2.945169 1_665
Cu7 Zn2 2.439916 1_556
Cu7 Zn1 2.439916 1_565
Cu7 Zn0 2.439917 1_655
Cu7 Ti2 2.653208 1_565
Cu7 Ti4 2.653208 1_655
Cu7 Ti0 2.653208 1_556
Cu7 Ti7 2.945162 1_665
Cu7 Ti9 2.945162 1_656
Cu7 Ti11 2.945162 1_566
N0 Ti6 2.094155 1_555
N0 Ti0 2.094155 1_545
N0 Ti5 2.094155 1_555
N0 Ti8 2.094155 1_555
N0 Ti2 2.094155 1_554
N0 Ti11 2.094155 1_555
N1 Ti3 2.094155 1_555
N1 Ti10 2.094155 1_555
N1 Ti4 2.094155 1_554
N1 Ti9 2.094155 1_555
N1 Ti6 2.094156 1_555
N1 Ti0 2.094156 1_455
N2 Ti10 2.094155 1_555
N2 Ti4 2.094155 1_545
N2 Ti1 2.094155 1_555
N2 Ti7 2.094155 1_555
N2 Ti8 2.094156 1_555
N2 Ti2 2.094156 1_455
N3 Ti9 2.094155 1_555
N3 Ti3 2.094155 1_545
N3 Ti7 2.094155 1_555
N3 Ti1 2.094155 1_554
N3 Ti11 2.094156 1_555
N3 Ti5 2.094156 1_455
