# generated using pymatgen
data_Rb(BeAs)2
_symmetry_space_group_name_H-M   'P 1'
_cell_length_a   8.11491562
_cell_length_b   8.11491542
_cell_length_c   8.11491468
_cell_angle_alpha   154.11503780
_cell_angle_beta   154.11503798
_cell_angle_gamma   36.93241911
_symmetry_Int_Tables_number   1
_chemical_formula_structural   Rb(BeAs)2
_chemical_formula_sum   'Rb1 Be2 As2'
_cell_volume   101.70554238
_cell_formula_units_Z   1
loop_
 _symmetry_equiv_pos_site_id
 _symmetry_equiv_pos_as_xyz
  1  'x, y, z'
loop_
 _atom_site_type_symbol
 _atom_site_label
 _atom_site_symmetry_multiplicity
 _atom_site_fract_x
 _atom_site_fract_y
 _atom_site_fract_z
 _atom_site_occupancy
  Rb  Rb0  1  0.00000000  0.00000000  0.00000000  1
  Be  Be0  1  0.75000000  0.25000000  0.50000000  1
  Be  Be1  1  0.25000000  0.75000000  0.50000000  1
  As  As0  1  0.34284926  0.34284926  0.00000000  1
  As  As1  1  0.65715074  0.65715074  1.00000000  1
loop_
_geom_bond_atom_site_label_1
_geom_bond_atom_site_label_2
_geom_bond_distance
_geom_bond_site_symmetry_2
As0 Be0 2.312225 1_555
As0 Be1 2.312225 1_555
As0 Be1 2.312225 1_544
As0 Be0 2.312225 1_454
As0 Rb0 3.529774 1_554
As0 Rb0 3.529775 1_565
As0 Rb0 3.529775 1_655
As0 Rb0 3.529775 1_666
As1 Be1 2.312225 1_555
As1 Be0 2.312225 1_555
As1 Be0 2.312225 1_566
As1 Be1 2.312225 1_656
As1 Rb0 3.529774 1_667
As1 Rb0 3.529775 1_656
As1 Rb0 3.529775 1_566
As1 Rb0 3.529775 1_555
