# generated using pymatgen
data_Hf2Sc(AsRu)3
_symmetry_space_group_name_H-M   'P 1'
_cell_length_a   7.62872481
_cell_length_b   7.62872561
_cell_length_c   7.62872547
_cell_angle_alpha   128.07571644
_cell_angle_beta   120.47622443
_cell_angle_gamma   82.88373827
_symmetry_Int_Tables_number   1
_chemical_formula_structural   Hf2Sc(AsRu)3
_chemical_formula_sum   'Hf4 Sc2 As6 Ru6'
_cell_volume   289.29666783
_cell_formula_units_Z   2
loop_
 _symmetry_equiv_pos_site_id
 _symmetry_equiv_pos_as_xyz
  1  'x, y, z'
loop_
 _atom_site_type_symbol
 _atom_site_label
 _atom_site_symmetry_multiplicity
 _atom_site_fract_x
 _atom_site_fract_y
 _atom_site_fract_z
 _atom_site_occupancy
  Hf  Hf0  1  0.75046520  0.83283423  0.58236904  1
  Hf  Hf1  1  0.24953480  0.83190484  0.08236904  1
  Hf  Hf2  1  0.05275892  0.25846203  0.70570311  1
  Hf  Hf3  1  0.94724108  0.65294419  0.20570311  1
  Sc  Sc0  1  0.47018850  0.69988678  0.72969728  1
  Sc  Sc1  1  0.52981150  0.25950878  0.22969728  1
  As  As0  1  0.27932476  0.27613353  0.49680976  1
  As  As1  1  0.72067524  0.21748500  0.99680976  1
  As  As2  1  0.33051455  0.58702099  0.25135169  1
  As  As3  1  0.66948545  0.92083614  0.25650644  1
  As  As4  1  0.16432970  0.92083614  0.75135169  1
  As  As5  1  0.83567030  0.58702099  0.75650644  1
  Ru  Ru0  1  0.50000000  0.49663395  0.99663395  1
  Ru  Ru1  1  0.00000000  0.49663395  0.49663395  1
  Ru  Ru2  1  0.08822083  0.25211655  0.09683302  1
  Ru  Ru3  1  0.91177917  0.00861119  0.16389572  1
  Ru  Ru4  1  0.34471647  0.00861119  0.59683302  1
  Ru  Ru5  1  0.65528353  0.25211655  0.66389572  1
loop_
_geom_bond_atom_site_label_1
_geom_bond_atom_site_label_2
_geom_bond_distance
_geom_bond_site_symmetry_2
Hf0 Ru5 2.928141 1_565
Hf0 Ru2 2.928141 1_666
Hf0 Ru1 2.934948 1_655
Hf0 Ru0 2.934949 1_554
Hf1 Ru3 2.928137 1_465
Hf1 Ru4 2.928146 1_565
Hf1 Ru1 2.934949 1_554
Hf1 Ru0 2.934953 1_554
Hf2 Ru3 2.855785 1_455
Hf2 Ru4 2.855789 1_555
Hf2 Ru5 2.887011 1_455
Hf2 Ru2 2.887011 1_556
Hf2 Ru0 2.957879 1_555
Hf2 Ru1 2.957879 1_555
Hf3 Ru2 2.855787 1_655
Hf3 Ru5 2.855787 1_554
Hf3 Ru3 2.887003 1_565
Hf3 Ru4 2.887008 1_665
Hf3 Ru0 2.957879 1_554
Hf3 Ru1 2.957879 1_655
As0 Ru3 2.505708 1_455
As0 Ru4 2.505708 1_555
As0 Ru5 2.516696 1_555
As0 Ru2 2.516703 1_555
As0 Ru0 2.545984 1_555
As0 Ru1 2.545990 1_555
As0 Sc0 2.680523 1_555
As0 Hf1 2.789082 1_545
As0 Hf2 2.943083 1_555
As1 Ru2 2.505707 1_656
As1 Ru5 2.505708 1_555
As1 Ru4 2.516699 1_555
As1 Ru3 2.516705 1_556
As1 Ru0 2.545986 1_555
As1 Ru1 2.545986 1_656
As1 Sc1 2.680510 1_556
As1 Hf0 2.789090 1_545
As1 Hf3 2.943087 1_556
As2 Ru2 2.564934 1_555
As2 Ru0 2.568680 1_554
As2 Ru4 2.577522 1_565
As2 Sc1 2.717694 1_555
As2 Hf1 2.722147 1_555
As2 Hf0 2.756540 1_555
As2 Hf2 2.756778 1_554
As2 Sc0 2.756978 1_555
As2 Hf3 2.782472 1_455
As3 Ru3 2.564934 1_565
As3 Ru0 2.568674 1_554
As3 Ru5 2.577529 1_565
As3 Sc0 2.717698 1_554
As3 Hf0 2.722133 1_555
As3 Hf1 2.756538 1_555
As3 Hf3 2.756774 1_555
As3 Sc1 2.756989 1_565
As3 Hf2 2.782475 1_665
As4 Ru4 2.564940 1_565
As4 Ru1 2.568672 1_555
As4 Ru2 2.577525 1_566
As4 Sc0 2.717693 1_555
As4 Hf0 2.722131 1_455
As4 Hf1 2.756526 1_556
As4 Hf3 2.756780 1_455
As4 Sc1 2.756987 1_566
As4 Hf2 2.782479 1_565
As5 Ru5 2.564938 1_555
As5 Ru1 2.568674 1_655
As5 Ru3 2.577525 1_566
As5 Sc1 2.717696 1_555
As5 Hf1 2.722135 1_656
As5 Hf0 2.756539 1_555
As5 Hf2 2.756774 1_655
As5 Sc0 2.756990 1_555
As5 Hf3 2.782475 1_556
Ru0 Ru5 2.826436 1_555
Ru0 Ru4 2.826441 1_555
Ru0 Sc1 3.152803 1_556
Ru0 Sc0 3.152809 1_555
Ru1 Ru2 2.826436 1_555
Ru1 Ru3 2.826442 1_455
Ru1 Sc1 3.152803 1_455
Ru1 Sc0 3.152805 1_555
Ru2 Sc1 2.981973 1_555
Ru3 Sc0 2.981970 1_544
Ru4 Sc0 2.981959 1_545
Ru5 Sc1 2.981973 1_555
