# generated using pymatgen
data_TaVSe8I
_symmetry_space_group_name_H-M   'P 1'
_cell_length_a   9.42438297
_cell_length_b   9.42408508
_cell_length_c   9.42422074
_cell_angle_alpha   117.90127474
_cell_angle_beta   117.89884049
_cell_angle_gamma   93.67617434
_symmetry_Int_Tables_number   1
_chemical_formula_structural   TaVSe8I
_chemical_formula_sum   'Ta2 V2 Se16 I2'
_cell_volume   609.30041267
_cell_formula_units_Z   2
loop_
 _symmetry_equiv_pos_site_id
 _symmetry_equiv_pos_as_xyz
  1  'x, y, z'
loop_
 _atom_site_type_symbol
 _atom_site_label
 _atom_site_symmetry_multiplicity
 _atom_site_fract_x
 _atom_site_fract_y
 _atom_site_fract_z
 _atom_site_occupancy
  Ta  Ta0  1  0.99999625  0.50000489  0.50003736  1
  Ta  Ta1  1  0.49999503  0.00000135  0.49998171  1
  V  V0  1  0.24999554  0.75000180  0.50000422  1
  V  V1  1  0.74999976  0.25000571  0.49999928  1
  Se  Se0  1  0.33837339  0.67878857  0.75016830  1
  Se  Se1  1  0.92860536  0.58822824  0.24983678  1
  Se  Se2  1  0.32122430  0.66161401  0.24982679  1
  Se  Se3  1  0.58818419  0.33834597  0.65961728  1
  Se  Se4  1  0.67874197  0.92856032  0.34037808  1
  Se  Se5  1  0.66165525  0.41179956  0.34036752  1
  Se  Se6  1  0.19639951  0.99415106  0.43478625  1
  Se  Se7  1  0.99417078  0.55933576  0.79770406  1
  Se  Se8  1  0.76160211  0.19639140  0.20223255  1
  Se  Se9  1  0.44063762  0.00581707  0.20225832  1
  Se  Se10  1  0.80358608  0.23837667  0.79775321  1
  Se  Se11  1  0.55935479  0.76159545  0.56519964  1
  Se  Se12  1  0.00582761  0.80358822  0.56519010  1
  Se  Se13  1  0.23840917  0.44064050  0.43481148  1
  Se  Se14  1  0.41177842  0.07139612  0.75017416  1
  Se  Se15  1  0.07140727  0.32125849  0.65961304  1
  I  I0  1  0.84411059  0.84413701  0.00003170  1
  I  I1  1  0.15594500  0.15596184  0.00002816  1
loop_
_geom_bond_atom_site_label_1
_geom_bond_atom_site_label_2
_geom_bond_distance
_geom_bond_site_symmetry_2
Se0 Se13 2.371365 1_555
Se0 V0 2.533233 1_555
Se0 Ta0 2.669120 1_455
Se1 Se12 2.371220 1_655
Se1 V0 2.533400 1_655
Se1 Ta0 2.669405 1_555
Se2 V0 2.533408 1_555
Se2 Ta1 2.669063 1_565
Se3 V1 2.533606 1_555
Se3 Ta1 2.668649 1_555
Se4 Se9 2.371267 1_565
Se4 V1 2.533685 1_565
Se4 Ta1 2.668788 1_565
Se5 Se8 2.371158 1_555
Se5 V1 2.533530 1_555
Se5 Ta0 2.668711 1_555
Se6 Ta1 2.621056 1_565
Se6 V0 2.666273 1_555
Se7 Ta0 2.620172 1_555
Se7 V1 2.666150 1_555
Se8 Ta0 2.621187 1_555
Se8 V1 2.666338 1_555
Se9 Ta1 2.620593 1_555
Se9 V1 2.666464 1_555
Se10 Se3 2.371355 1_555
Se10 Ta1 2.621026 1_555
Se10 V1 2.666453 1_555
Se11 Se2 2.371455 1_555
Se11 Ta1 2.621155 1_565
Se11 V0 2.666392 1_555
Se12 Ta0 2.620973 1_455
Se12 V0 2.666313 1_555
Se13 Ta0 2.621309 1_455
Se13 V0 2.666312 1_555
Se14 Se6 2.371508 1_545
Se14 V0 2.533321 1_545
Se14 Ta1 2.669256 1_555
Se15 Se7 2.370802 1_455
Se15 V1 2.533514 1_455
Se15 Ta0 2.668582 1_455
I0 Se8 3.324668 1_565
I0 Se6 3.325021 1_655
I0 Se11 3.325285 1_554
I0 Se7 3.325693 1_554
I1 Se13 3.324958 1_555
I1 Se10 3.325205 1_454
I1 Se12 3.325433 1_544
I1 Se9 3.325448 1_555
