# generated using pymatgen
data_HfZr4(ReTc)12
_symmetry_space_group_name_H-M   'P 1'
_cell_length_a   8.41752657
_cell_length_b   8.41752611
_cell_length_c   8.41752688
_cell_angle_alpha   109.47916576
_cell_angle_beta   109.47916898
_cell_angle_gamma   109.47917204
_symmetry_Int_Tables_number   1
_chemical_formula_structural   HfZr4(ReTc)12
_chemical_formula_sum   'Hf1 Zr4 Re12 Tc12'
_cell_volume   458.99052468
_cell_formula_units_Z   1
loop_
 _symmetry_equiv_pos_site_id
 _symmetry_equiv_pos_as_xyz
  1  'x, y, z'
loop_
 _atom_site_type_symbol
 _atom_site_label
 _atom_site_symmetry_multiplicity
 _atom_site_fract_x
 _atom_site_fract_y
 _atom_site_fract_z
 _atom_site_occupancy
  Hf  Hf0  1  0.37590705  0.37590705  0.37590705  1
  Zr  Zr0  1  0.00034247  0.00034247  0.00034247  1
  Zr  Zr1  1  0.62421243  0.99992912  0.99992912  1
  Zr  Zr2  1  0.99992912  0.62421243  0.99992912  1
  Zr  Zr3  1  0.99992912  0.99992912  0.62421243  1
  Re  Re0  1  0.37673399  0.19508423  0.00093958  1
  Re  Re1  1  0.18133021  0.80503674  0.80503674  1
  Re  Re2  1  0.37673399  0.00093958  0.19508423  1
  Re  Re3  1  0.19508423  0.37673399  0.00093958  1
  Re  Re4  1  0.00093958  0.37673399  0.19508423  1
  Re  Re5  1  0.80503674  0.18133021  0.80503674  1
  Re  Re6  1  0.80503674  0.80503674  0.18133021  1
  Re  Re7  1  0.00093958  0.19508423  0.37673399  1
  Re  Re8  1  0.19508423  0.00093958  0.37673399  1
  Re  Re9  1  0.62276133  0.62276133  0.81735836  1
  Re  Re10  1  0.81735836  0.62276133  0.62276133  1
  Re  Re11  1  0.62276133  0.81735836  0.62276133  1
  Tc  Tc0  1  0.39624413  0.67614787  0.00027481  1
  Tc  Tc1  1  0.72077186  0.32408532  0.32408532  1
  Tc  Tc2  1  0.39624413  0.00027481  0.67614787  1
  Tc  Tc3  1  0.67614787  0.39624413  0.00027481  1
  Tc  Tc4  1  0.00027481  0.39624413  0.67614787  1
  Tc  Tc5  1  0.32408532  0.72077186  0.32408532  1
  Tc  Tc6  1  0.32408532  0.32408532  0.72077186  1
  Tc  Tc7  1  0.00027481  0.67614787  0.39624413  1
  Tc  Tc8  1  0.67614787  0.00027481  0.39624413  1
  Tc  Tc9  1  0.60323991  0.60323991  0.27912358  1
  Tc  Tc10  1  0.27912358  0.60323991  0.60323991  1
  Tc  Tc11  1  0.60323991  0.27912358  0.60323991  1
loop_
_geom_bond_atom_site_label_1
_geom_bond_atom_site_label_2
_geom_bond_distance
_geom_bond_site_symmetry_2
Hf0 Tc9 2.761258 1_555
Hf0 Tc11 2.761258 1_555
Hf0 Tc10 2.761258 1_555
Hf0 Re8 3.016073 1_555
Hf0 Re7 3.016074 1_555
Hf0 Re2 3.016074 1_555
Hf0 Re4 3.016074 1_555
Hf0 Re3 3.016074 1_555
Hf0 Re0 3.016074 1_555
Hf0 Re11 3.043804 1_555
Hf0 Re10 3.043804 1_555
Hf0 Re9 3.043804 1_555
Hf0 Zr0 3.160084 1_555
Hf0 Tc5 3.220182 1_555
Hf0 Tc1 3.220182 1_555
Hf0 Tc6 3.220182 1_555
Zr0 Zr2 3.163766 1_444
Zr0 Zr1 3.163766 1_444
Zr0 Zr3 3.163766 1_444
Re0 Re3 2.497037 1_555
Re0 Tc3 2.527603 1_555
Re0 Re2 2.668797 1_555
Re0 Re1 2.680099 1_544
Re0 Tc1 2.764749 1_555
Re0 Tc2 2.771192 1_554
Re0 Tc9 2.865386 1_555
Re0 Tc6 2.875584 1_554
Re0 Zr3 3.026133 1_444
Re0 Zr0 3.040610 1_555
Re0 Zr1 3.053344 1_544
Re1 Re10 2.500922 1_455
Re1 Tc10 2.527666 1_555
Re1 Re2 2.680100 1_566
Re1 Tc2 2.768725 1_565
Re1 Tc0 2.768725 1_556
Re1 Tc4 2.872333 1_555
Re1 Tc7 2.872333 1_555
Re1 Zr2 3.020851 1_455
Re1 Zr3 3.020851 1_455
Re1 Zr0 3.043780 1_566
Re1 Zr1 3.054156 1_555
Re2 Re8 2.497037 1_555
Re2 Tc8 2.527603 1_555
Re2 Tc1 2.764749 1_555
Re2 Tc0 2.771192 1_545
Re2 Tc11 2.865387 1_555
Re2 Tc5 2.875584 1_545
Re2 Zr2 3.026133 1_444
Re2 Zr0 3.040610 1_555
Re2 Zr1 3.053344 1_544
Re3 Tc0 2.527603 1_555
Re3 Re4 2.668797 1_555
Re3 Re5 2.680099 1_454
Re3 Tc5 2.764749 1_555
Re3 Tc4 2.771192 1_554
Re3 Tc9 2.865386 1_555
Re3 Tc6 2.875584 1_554
Re3 Zr3 3.026133 1_444
Re3 Zr0 3.040610 1_555
Re3 Zr2 3.053344 1_454
Re4 Re7 2.497037 1_555
Re4 Tc7 2.527603 1_555
Re4 Re5 2.680100 1_454
Re4 Tc5 2.764749 1_555
Re4 Tc3 2.771192 1_455
Re4 Tc10 2.865387 1_555
Re4 Tc1 2.875584 1_455
Re4 Zr1 3.026133 1_444
Re4 Zr0 3.040610 1_555
Re4 Zr2 3.053344 1_454
Re5 Tc11 2.527665 1_555
Re5 Tc4 2.768725 1_655
Re5 Tc3 2.768725 1_556
Re5 Tc2 2.872333 1_555
Re5 Tc8 2.872333 1_555
Re5 Zr1 3.020851 1_545
Re5 Zr3 3.020851 1_545
Re5 Zr0 3.043780 1_656
Re5 Zr2 3.054156 1_555
Re6 Re9 2.500923 1_554
Re6 Tc9 2.527665 1_555
Re6 Re7 2.680099 1_665
Re6 Re8 2.680099 1_665
Re6 Tc7 2.768725 1_655
Re6 Tc8 2.768725 1_565
Re6 Tc3 2.872333 1_555
Re6 Tc0 2.872333 1_555
Re6 Zr1 3.020851 1_554
Re6 Zr2 3.020851 1_554
Re6 Zr0 3.043780 1_665
Re6 Zr3 3.054157 1_555
Re7 Tc4 2.527603 1_555
Re7 Re8 2.668797 1_555
Re7 Tc6 2.764749 1_555
Re7 Tc8 2.771192 1_455
Re7 Tc10 2.865386 1_555
Re7 Tc1 2.875584 1_455
Re7 Zr1 3.026133 1_444
Re7 Zr0 3.040610 1_555
Re7 Zr3 3.053344 1_445
Re8 Tc2 2.527603 1_555
Re8 Tc6 2.764749 1_555
Re8 Tc7 2.771192 1_545
Re8 Tc11 2.865386 1_555
Re8 Tc5 2.875584 1_545
Re8 Zr2 3.026133 1_444
Re8 Zr0 3.040610 1_555
Re8 Zr3 3.053345 1_445
Re9 Tc6 2.522023 1_555
Re9 Tc11 2.766038 1_555
Re9 Tc10 2.766038 1_555
Re9 Tc3 2.876828 1_556
Re9 Tc0 2.876828 1_556
Re9 Zr1 3.024733 1_555
Re9 Zr2 3.024733 1_555
Re9 Zr0 3.051025 1_666
Re10 Tc1 2.522023 1_555
Re10 Re11 2.675016 1_555
Re10 Re9 2.675016 1_555
Re10 Tc11 2.766038 1_555
Re10 Tc9 2.766038 1_555
Re10 Tc4 2.876828 1_655
Re10 Tc7 2.876828 1_655
Re10 Zr3 3.024733 1_555
Re10 Zr2 3.024733 1_555
Re10 Zr0 3.051025 1_666
Re11 Re5 2.500922 1_565
Re11 Tc5 2.522023 1_555
Re11 Re9 2.675016 1_555
Re11 Tc10 2.766038 1_555
Re11 Tc9 2.766039 1_555
Re11 Tc8 2.876828 1_565
Re11 Tc2 2.876828 1_565
Re11 Zr3 3.024733 1_555
Re11 Zr1 3.024734 1_555
Re11 Zr0 3.051025 1_666
Tc0 Zr1 2.762487 1_554
Tc0 Tc9 2.805044 1_555
Tc0 Tc6 2.807665 1_554
Tc0 Tc5 2.917682 1_555
Tc0 Tc4 2.918044 1_554
Tc0 Tc8 2.918044 1_565
Tc0 Tc10 2.923879 1_554
Tc0 Zr2 3.215588 1_454
Tc1 Zr1 2.761784 1_544
Tc1 Tc7 2.807664 1_655
Tc1 Tc4 2.807665 1_655
Tc1 Tc8 2.917682 1_555
Tc1 Tc3 2.917682 1_555
Tc1 Tc9 2.921872 1_555
Tc1 Tc11 2.921872 1_555
Tc2 Zr1 2.762488 1_545
Tc2 Tc5 2.807665 1_545
Tc2 Tc6 2.917682 1_555
Tc2 Tc7 2.918044 1_545
Tc2 Tc3 2.918044 1_556
Tc2 Zr3 3.215588 1_445
Tc3 Zr2 2.762487 1_554
Tc3 Tc9 2.805044 1_555
Tc3 Tc6 2.807665 1_554
Tc3 Tc7 2.918044 1_655
Tc3 Zr1 3.215588 1_544
Tc4 Zr2 2.762488 1_455
Tc4 Tc6 2.917682 1_555
Tc4 Tc8 2.918044 1_455
Tc4 Zr3 3.215588 1_445
Tc5 Zr2 2.761784 1_454
Tc5 Tc8 2.807664 1_565
Tc5 Tc7 2.917682 1_555
Tc5 Tc9 2.921872 1_555
Tc6 Zr3 2.761783 1_445
Tc7 Zr3 2.762488 1_455
Tc7 Tc9 2.923879 1_455
Tc7 Zr2 3.215588 1_454
Tc8 Zr3 2.762488 1_545
Tc8 Tc9 2.923879 1_545
Tc8 Zr1 3.215588 1_544
Tc9 Zr3 3.219260 1_555
Tc10 Tc4 2.805044 1_555
Tc10 Tc7 2.805044 1_555
Tc10 Tc6 2.921872 1_555
Tc10 Tc5 2.921872 1_555
Tc10 Tc2 2.923879 1_565
Tc10 Zr1 3.219260 1_555
Tc11 Tc2 2.805044 1_555
Tc11 Tc8 2.805044 1_555
Tc11 Tc6 2.921872 1_555
Tc11 Tc4 2.923879 1_655
Tc11 Tc3 2.923879 1_556
Tc11 Zr2 3.219260 1_555
