# generated using pymatgen
data_Hf12Zn11PtN4
_symmetry_space_group_name_H-M   'P 1'
_cell_length_a   8.44351059
_cell_length_b   8.44351117
_cell_length_c   8.44236957
_cell_angle_alpha   59.99551445
_cell_angle_beta   59.99550862
_cell_angle_gamma   59.99999884
_symmetry_Int_Tables_number   1
_chemical_formula_structural   Hf12Zn11PtN4
_chemical_formula_sum   'Hf12 Zn11 Pt1 N4'
_cell_volume   425.56512044
_cell_formula_units_Z   1
loop_
 _symmetry_equiv_pos_site_id
 _symmetry_equiv_pos_as_xyz
  1  'x, y, z'
loop_
 _atom_site_type_symbol
 _atom_site_label
 _atom_site_symmetry_multiplicity
 _atom_site_fract_x
 _atom_site_fract_y
 _atom_site_fract_z
 _atom_site_occupancy
  Hf  Hf0  1  0.81553151  0.18878231  0.18015566  1
  Hf  Hf1  1  0.18878231  0.81553151  0.18015566  1
  Hf  Hf2  1  0.81553151  0.81553151  0.18015566  1
  Hf  Hf3  1  0.19053123  0.80786157  0.81107597  1
  Hf  Hf4  1  0.80786157  0.19053123  0.81107597  1
  Hf  Hf5  1  0.19053123  0.19053123  0.81107597  1
  Hf  Hf6  1  0.43652133  0.06020035  0.06675700  1
  Hf  Hf7  1  0.06020035  0.43652133  0.06675700  1
  Hf  Hf8  1  0.43652133  0.43652133  0.06675700  1
  Hf  Hf9  1  0.06351085  0.43569234  0.43728696  1
  Hf  Hf10  1  0.43569234  0.06351085  0.43728696  1
  Hf  Hf11  1  0.06351085  0.06351085  0.43728696  1
  Zn  Zn0  1  0.41827099  0.41827099  0.42016796  1
  Zn  Zn1  1  0.74328706  0.41827099  0.42016796  1
  Zn  Zn2  1  0.41827099  0.74328706  0.42016796  1
  Zn  Zn3  1  0.83309455  0.83309455  0.50071736  1
  Zn  Zn4  1  0.83215078  0.83215078  0.83180682  1
  Zn  Zn5  1  0.50389361  0.83215078  0.83180682  1
  Zn  Zn6  1  0.83215078  0.50389361  0.83180682  1
  Zn  Zn7  1  0.62457284  0.62457284  0.12627947  1
  Zn  Zn8  1  0.62935243  0.62935243  0.61858466  1
  Zn  Zn9  1  0.12270949  0.62935243  0.61858466  1
  Zn  Zn10  1  0.62935243  0.12270949  0.61858466  1
  Pt  Pt0  1  0.41052679  0.41052679  0.76841962  1
  N  N0  1  0.12448664  0.12448664  0.62654008  1
  N  N1  1  0.12433317  0.12433317  0.12684680  1
  N  N2  1  0.62448587  0.12433317  0.12684680  1
  N  N3  1  0.12433317  0.62448587  0.12684680  1
loop_
_geom_bond_atom_site_label_1
_geom_bond_atom_site_label_2
_geom_bond_distance
_geom_bond_site_symmetry_2
Hf0 N1 2.224750 1_655
Hf0 N2 2.224766 1_555
Hf0 Zn6 2.807570 1_554
Hf0 Zn3 2.862306 1_545
Hf0 Zn7 3.077794 1_555
Hf0 Zn10 3.078156 1_555
Hf0 Zn1 3.121084 1_555
Hf0 Zn0 3.121099 1_555
Hf1 N1 2.224750 1_565
Hf1 N3 2.224766 1_555
Hf1 Zn5 2.807570 1_554
Hf1 Zn3 2.862305 1_455
Hf1 Zn7 3.077794 1_555
Hf1 Zn9 3.078156 1_555
Hf1 Zn2 3.121084 1_555
Hf1 Zn0 3.121099 1_555
Hf2 N3 2.224754 1_655
Hf2 N2 2.224754 1_565
Hf2 Zn4 2.807567 1_554
Hf2 Zn3 2.862306 1_555
Hf2 Zn7 3.077816 1_555
Hf2 Zn8 3.078158 1_555
Hf2 Zn2 3.121112 1_555
Hf2 Zn1 3.121112 1_555
Hf3 N3 2.250224 1_556
Hf3 N0 2.257832 1_565
Hf3 Zn4 2.848673 1_455
Hf3 Zn5 2.848690 1_555
Hf3 Pt0 3.023730 1_555
Hf3 Zn2 3.048028 1_555
Hf3 Zn8 3.079637 1_555
Hf3 Zn9 3.079643 1_555
Hf4 N2 2.250224 1_556
Hf4 N0 2.257832 1_655
Hf4 Zn4 2.848673 1_545
Hf4 Zn6 2.848690 1_555
Hf4 Pt0 3.023730 1_555
Hf4 Zn1 3.048028 1_555
Hf4 Zn8 3.079637 1_555
Hf4 Zn10 3.079643 1_555
Hf5 N1 2.250223 1_556
Hf5 N0 2.257833 1_555
Hf5 Zn6 2.848680 1_455
Hf5 Zn5 2.848680 1_545
Hf5 Pt0 3.023729 1_555
Hf5 Zn0 3.048017 1_555
Hf5 Zn10 3.079635 1_555
Hf5 Zn9 3.079636 1_555
Hf6 N2 2.238035 1_555
Hf6 N1 2.238043 1_555
Hf6 Pt0 2.755724 1_554
Hf6 Zn2 2.837898 1_545
Hf6 Zn7 3.067911 1_545
Hf6 Zn5 3.092207 1_544
Hf6 Zn4 3.092214 1_544
Hf6 Zn10 3.153768 1_554
Hf7 N3 2.238035 1_555
Hf7 N1 2.238043 1_555
Hf7 Pt0 2.755723 1_554
Hf7 Zn1 2.837897 1_455
Hf7 Zn7 3.067911 1_455
Hf7 Zn6 3.092207 1_454
Hf7 Zn4 3.092215 1_454
Hf7 Zn9 3.153768 1_554
Hf8 N3 2.238041 1_555
Hf8 N2 2.238041 1_555
Hf8 Pt0 2.755724 1_554
Hf8 Zn0 2.837887 1_555
Hf8 Zn7 3.067897 1_555
Hf8 Zn6 3.092221 1_554
Hf8 Zn5 3.092221 1_554
Hf8 Zn8 3.153766 1_554
Hf9 N3 2.228854 1_555
Hf9 N0 2.234602 1_555
Hf9 Zn0 2.857052 1_555
Hf9 Zn1 2.857085 1_455
Hf9 Zn9 3.058088 1_555
Hf9 Zn8 3.058099 1_455
Hf9 Zn6 3.086612 1_455
Hf9 Zn3 3.091600 1_455
Hf10 N2 2.228854 1_555
Hf10 N0 2.234601 1_555
Hf10 Zn0 2.857052 1_555
Hf10 Zn2 2.857086 1_545
Hf10 Zn10 3.058088 1_555
Hf10 Zn8 3.058099 1_545
Hf10 Zn5 3.086612 1_545
Hf10 Zn3 3.091600 1_545
Hf11 N1 2.228858 1_555
Hf11 N0 2.234596 1_555
Hf11 Zn2 2.857067 1_545
Hf11 Zn1 2.857067 1_455
Hf11 Zn10 3.058102 1_455
Hf11 Zn9 3.058102 1_545
Hf11 Zn4 3.086608 1_445
Hf11 Zn3 3.091600 1_445
Zn0 Zn9 2.562723 1_555
Zn0 Zn10 2.562723 1_555
Zn0 Zn7 2.571724 1_555
Zn0 Zn1 2.744277 1_555
Zn0 Zn2 2.744277 1_555
Zn1 Zn10 2.562714 1_555
Zn1 Zn8 2.562728 1_555
Zn1 Zn7 2.571720 1_555
Zn1 Zn2 2.744277 1_555
Zn2 Zn9 2.562714 1_555
Zn2 Zn8 2.562729 1_555
Zn2 Zn7 2.571720 1_555
Zn3 Zn9 2.538556 1_655
Zn3 Zn8 2.538569 1_555
Zn3 Zn5 2.787228 1_555
Zn3 Zn6 2.787228 1_555
Zn3 Zn4 2.787233 1_555
Zn4 Zn9 2.579982 1_655
Zn4 Zn7 2.584658 1_556
Zn4 Zn5 2.771643 1_555
Zn4 Zn6 2.771643 1_555
Zn5 Zn8 2.579989 1_555
Zn5 Zn7 2.584640 1_556
Zn5 Zn6 2.771643 1_555
Zn6 Zn9 2.579968 1_655
Zn6 Zn8 2.579989 1_555
Zn6 Zn7 2.584640 1_556
Zn10 Zn3 2.538556 1_545
Zn10 Zn5 2.579968 1_545
Zn10 Zn4 2.579982 1_545
Pt0 Zn8 2.677045 1_555
Pt0 Zn10 2.677052 1_555
Pt0 Zn9 2.677052 1_555
Pt0 Zn1 2.876146 1_555
Pt0 Zn2 2.876146 1_555
Pt0 Zn0 2.876159 1_555
