# generated using pymatgen
data_UCuP2
_symmetry_space_group_name_H-M   'P 1'
_cell_length_a   9.90399787
_cell_length_b   9.90399787
_cell_length_c   9.90399787
_cell_angle_alpha   158.04096597
_cell_angle_beta   158.04096597
_cell_angle_gamma   31.25098901
_symmetry_Int_Tables_number   1
_chemical_formula_structural   UCuP2
_chemical_formula_sum   'U2 Cu2 P4'
_cell_volume   135.74876720
_cell_formula_units_Z   2
loop_
 _symmetry_equiv_pos_site_id
 _symmetry_equiv_pos_as_xyz
  1  'x, y, z'
loop_
 _atom_site_type_symbol
 _atom_site_label
 _atom_site_symmetry_multiplicity
 _atom_site_fract_x
 _atom_site_fract_y
 _atom_site_fract_z
 _atom_site_occupancy
  U  U0  1  0.88967144  0.88967144  0.00000000  1
  U  U1  1  0.11032856  0.11032856  -0.00000000  1
  Cu  Cu0  1  0.75000000  0.25000000  0.50000000  1
  Cu  Cu1  1  0.25000000  0.75000000  0.50000000  1
  P  P0  1  0.00000000  0.50000000  0.50000000  1
  P  P1  1  0.50000000  0.00000000  0.50000000  1
  P  P2  1  0.67342309  0.67342309  -0.00000000  1
  P  P3  1  0.32657691  0.32657691  0.00000000  1
loop_
_geom_bond_atom_site_label_1
_geom_bond_atom_site_label_2
_geom_bond_distance
_geom_bond_site_symmetry_2
Cu0 P3 2.385788 1_656
Cu0 P3 2.385788 1_555
Cu0 P2 2.385788 1_545
Cu0 P2 2.385788 1_556
Cu1 P2 2.385788 1_455
Cu1 P2 2.385788 1_556
Cu1 P3 2.385788 1_566
Cu1 P3 2.385788 1_555
P0 P1 2.667626 1_454
P0 P1 2.667626 1_555
P0 P1 2.667626 1_465
P0 P1 2.667626 1_566
P0 U1 2.826225 1_566
P0 U0 2.826225 1_445
P0 U1 2.826225 1_555
P0 U0 2.826225 1_456
P1 U0 2.826225 1_546
P1 U1 2.826225 1_656
P1 U1 2.826225 1_555
P1 U0 2.826225 1_445
P2 U1 2.926577 1_655
P2 U1 2.926577 1_554
P2 U1 2.926577 1_565
P2 U1 2.926577 1_666
P3 U0 2.926577 1_556
P3 U0 2.926577 1_545
P3 U0 2.926577 1_444
P3 U0 2.926577 1_455
