# generated using pymatgen
data_Cr2CuPd2Pt3
_symmetry_space_group_name_H-M   'P 1'
_cell_length_a   5.43187042
_cell_length_b   5.51919265
_cell_length_c   5.43852338
_cell_angle_alpha   59.42844895
_cell_angle_beta   61.02504968
_cell_angle_gamma   59.54699438
_symmetry_Int_Tables_number   1
_chemical_formula_structural   Cr2CuPd2Pt3
_chemical_formula_sum   'Cr2 Cu1 Pd2 Pt3'
_cell_volume   115.23409528
_cell_formula_units_Z   1
loop_
 _symmetry_equiv_pos_site_id
 _symmetry_equiv_pos_as_xyz
  1  'x, y, z'
loop_
 _atom_site_type_symbol
 _atom_site_label
 _atom_site_symmetry_multiplicity
 _atom_site_fract_x
 _atom_site_fract_y
 _atom_site_fract_z
 _atom_site_occupancy
  Cr  Cr0  1  0.00000000  0.50000000  0.00000000  1
  Cr  Cr1  1  0.50000000  0.00000000  0.50000000  1
  Cu  Cu0  1  0.50000000  0.50000000  0.50000000  1
  Pd  Pd0  1  0.00000000  0.00000000  0.00000000  1
  Pd  Pd1  1  0.50000000  0.00000000  0.00000000  1
  Pt  Pt0  1  0.00000000  0.50000000  0.50000000  1
  Pt  Pt1  1  0.00000000  0.00000000  0.50000000  1
  Pt  Pt2  1  0.50000000  0.50000000  0.00000000  1
loop_
_geom_bond_atom_site_label_1
_geom_bond_atom_site_label_2
_geom_bond_distance
_geom_bond_site_symmetry_2
Cr0 Pt2 2.715935 1_455
Cr0 Pt2 2.715935 1_555
Cr0 Pt1 2.715955 1_564
Cr0 Pt1 2.715955 1_555
Cr0 Pt0 2.719262 1_554
Cr0 Pt0 2.719262 1_555
Cr0 Pd1 2.719263 1_465
Cr0 Pd1 2.719263 1_555
Cr0 Cu0 2.759596 1_455
Cr0 Cu0 2.759596 1_554
Cr0 Pd0 2.759596 1_565
Cr0 Pd0 2.759596 1_555
Cr1 Pt1 2.715935 1_555
Cr1 Pt1 2.715935 1_655
Cr1 Pt2 2.715955 1_555
Cr1 Pt2 2.715955 1_546
Cr1 Pd1 2.719262 1_556
Cr1 Pd1 2.719262 1_555
Cr1 Pt0 2.719263 1_555
Cr1 Pt0 2.719263 1_645
Cr1 Pd0 2.759596 1_655
Cr1 Pd0 2.759596 1_556
Cr1 Cu0 2.759596 1_545
Cr1 Cu0 2.759596 1_555
Cu0 Pt0 2.715935 1_555
Cu0 Pt0 2.715935 1_655
Cu0 Pd1 2.715955 1_556
Cu0 Pd1 2.715955 1_565
Cu0 Pt2 2.719262 1_556
Cu0 Pt2 2.719262 1_555
Cu0 Pt1 2.719263 1_655
Cu0 Pt1 2.719263 1_565
Pd0 Pd1 2.715935 1_455
Pd0 Pd1 2.715935 1_555
Pd0 Pt0 2.715955 1_554
Pd0 Pt0 2.715955 1_545
Pd0 Pt1 2.719262 1_554
Pd0 Pt1 2.719262 1_555
Pd0 Pt2 2.719263 1_545
Pd0 Pt2 2.719263 1_455
Pd1 Pt1 2.759596 1_555
Pd1 Pt1 2.759596 1_654
Pd1 Pt2 2.759596 1_555
Pd1 Pt2 2.759596 1_545
Pt0 Pt2 2.759596 1_555
Pt0 Pt2 2.759596 1_456
Pt0 Pt1 2.759596 1_555
Pt0 Pt1 2.759596 1_565
