# generated using pymatgen
data_BaNaH6Rh
_symmetry_space_group_name_H-M   'P 1'
_cell_length_a   5.51160935
_cell_length_b   5.51160940
_cell_length_c   5.51160970
_cell_angle_alpha   60.00000414
_cell_angle_beta   60.00000384
_cell_angle_gamma   59.99999600
_symmetry_Int_Tables_number   1
_chemical_formula_structural   BaNaH6Rh
_chemical_formula_sum   'Ba1 Na1 H6 Rh1'
_cell_volume   118.39144765
_cell_formula_units_Z   1
loop_
 _symmetry_equiv_pos_site_id
 _symmetry_equiv_pos_as_xyz
  1  'x, y, z'
loop_
 _atom_site_type_symbol
 _atom_site_label
 _atom_site_symmetry_multiplicity
 _atom_site_fract_x
 _atom_site_fract_y
 _atom_site_fract_z
 _atom_site_occupancy
  Ba  Ba0  1  0.75000000  0.75000000  0.75000000  1
  Na  Na0  1  0.25000000  0.25000000  0.25000000  1
  H  H0  1  0.78696154  0.21303846  0.21303846  1
  H  H1  1  0.21303846  0.78696154  0.21303846  1
  H  H2  1  0.78696154  0.78696154  0.21303846  1
  H  H3  1  0.21303846  0.78696154  0.78696154  1
  H  H4  1  0.78696154  0.21303846  0.78696154  1
  H  H5  1  0.21303846  0.21303846  0.78696154  1
  Rh  Rh0  1  0.00000000  0.00000000  0.00000000  1
loop_
_geom_bond_atom_site_label_1
_geom_bond_atom_site_label_2
_geom_bond_distance
_geom_bond_site_symmetry_2
Ba0 H5 2.770823 1_565
Ba0 H5 2.770823 1_655
Ba0 H3 2.770823 1_555
Ba0 H3 2.770823 1_655
Ba0 H4 2.770823 1_555
Ba0 H4 2.770823 1_565
Ba0 H2 2.770823 1_556
Ba0 H1 2.770823 1_556
Ba0 H2 2.770823 1_555
Ba0 H0 2.770823 1_556
Ba0 H1 2.770823 1_655
Ba0 H0 2.770823 1_565
H0 Rh0 1.660548 1_655
H1 Rh0 1.660548 1_565
H2 Rh0 1.660548 1_665
H3 Rh0 1.660548 1_566
H4 Rh0 1.660548 1_656
H5 Rh0 1.660548 1_556
