# generated using pymatgen
data_HgPt4PbSe6
_symmetry_space_group_name_H-M   'P 1'
_cell_length_a   7.47678971
_cell_length_b   7.47678936
_cell_length_c   5.74720667
_cell_angle_alpha   90.00000000
_cell_angle_beta   90.00000000
_cell_angle_gamma   120.00001008
_symmetry_Int_Tables_number   1
_chemical_formula_structural   HgPt4PbSe6
_chemical_formula_sum   'Hg1 Pt4 Pb1 Se6'
_cell_volume   278.23881435
_cell_formula_units_Z   1
loop_
 _symmetry_equiv_pos_site_id
 _symmetry_equiv_pos_as_xyz
  1  'x, y, z'
loop_
 _atom_site_type_symbol
 _atom_site_label
 _atom_site_symmetry_multiplicity
 _atom_site_fract_x
 _atom_site_fract_y
 _atom_site_fract_z
 _atom_site_occupancy
  Hg  Hg0  1  0.66666700  0.33333300  0.35201901  1
  Pt  Pt0  1  0.00000000  0.00000000  0.99958794  1
  Pt  Pt1  1  0.50249384  0.49750616  0.99723389  1
  Pt  Pt2  1  0.99501231  0.49750616  0.99723389  1
  Pt  Pt3  1  0.50249384  0.00498769  0.99723389  1
  Pb  Pb0  1  0.33333300  0.66666700  0.68548897  1
  Se  Se0  1  0.83124249  0.66248599  0.77537283  1
  Se  Se1  1  0.83124249  0.16875751  0.77537283  1
  Se  Se2  1  0.33751401  0.16875751  0.77537283  1
  Se  Se3  1  0.17053330  0.34106760  0.21502864  1
  Se  Se4  1  0.17053330  0.82946670  0.21502864  1
  Se  Se5  1  0.65893240  0.82946670  0.21502864  1
loop_
_geom_bond_atom_site_label_1
_geom_bond_atom_site_label_2
_geom_bond_distance
_geom_bond_site_symmetry_2
Hg0 Pt3 2.945805 1_554
Hg0 Pt2 2.945805 1_554
Hg0 Pt1 2.945810 1_554
Hg0 Se1 3.234555 1_555
Hg0 Se0 3.234564 1_555
Hg0 Se2 3.234564 1_555
Pt0 Se4 2.531855 1_546
Pt0 Se3 2.531860 1_556
Pt0 Se5 2.531860 1_446
Pt0 Se0 2.537053 1_445
Pt0 Se2 2.537053 1_555
Pt0 Se1 2.537058 1_455
Pt1 Se2 2.481354 1_555
Pt1 Se0 2.481354 1_555
Pt1 Se5 2.488395 1_556
Pt1 Se3 2.488395 1_556
Pt2 Se1 2.481354 1_555
Pt2 Se0 2.481360 1_555
Pt2 Se3 2.488390 1_656
Pt2 Se4 2.488395 1_656
Pt3 Se1 2.481354 1_555
Pt3 Se2 2.481360 1_555
Pt3 Se5 2.488390 1_546
Pt3 Se4 2.488395 1_546
Pb0 Pt3 2.830023 1_565
Pb0 Pt2 2.830023 1_455
Pb0 Pt1 2.830028 1_555
