# generated using pymatgen
data_La3PbI3
_symmetry_space_group_name_H-M   'P 1'
_cell_length_a   11.29230617
_cell_length_b   11.29317981
_cell_length_c   11.29317981
_cell_angle_alpha   109.45882392
_cell_angle_beta   109.47898709
_cell_angle_gamma   109.47898709
_symmetry_Int_Tables_number   1
_chemical_formula_structural   La3PbI3
_chemical_formula_sum   'La12 Pb4 I12'
_cell_volume   1108.60393572
_cell_formula_units_Z   4
loop_
 _symmetry_equiv_pos_site_id
 _symmetry_equiv_pos_as_xyz
  1  'x, y, z'
loop_
 _atom_site_type_symbol
 _atom_site_label
 _atom_site_symmetry_multiplicity
 _atom_site_fract_x
 _atom_site_fract_y
 _atom_site_fract_z
 _atom_site_occupancy
  La  La0  1  0.75000000  0.24246780  0.25753220  1
  La  La1  1  0.49247487  0.74998988  0.00747882  1
  La  La2  1  0.01503364  0.25751632  0.00751632  1
  La  La3  1  0.25746332  0.00749253  0.01496993  1
  La  La4  1  0.24253668  0.25750561  0.75002920  1
  La  La5  1  0.25746332  0.74997080  0.24249439  1
  La  La6  1  0.24253668  0.48503007  0.49250747  1
  La  La7  1  0.48496636  0.49248368  0.24248368  1
  La  La8  1  0.75000000  0.00753220  0.49246780  1
  La  La9  1  0.49247487  0.24248500  0.48499505  1
  La  La10  1  0.00752513  0.01500495  0.25751500  1
  La  La11  1  0.00752513  0.49252118  0.75001012  1
  Pb  Pb0  1  0.00002785  0.25001393  0.50001393  1
  Pb  Pb1  1  0.25000000  0.50000754  -0.00000754  1
  Pb  Pb2  1  0.49997215  -0.00001393  0.24998607  1
  Pb  Pb3  1  0.25000000  0.24999246  0.25000754  1
  I  I0  1  0.75629940  0.74366274  0.24995518  1
  I  I1  1  0.50662891  0.25016819  0.99366697  1
  I  I2  1  0.25000000  0.99364379  0.50635621  1
  I  I3  1  0.51315302  0.50657651  0.75657651  1
  I  I4  1  0.50662891  0.75646072  0.51296194  1
  I  I5  1  0.75629940  0.51263667  0.50634423  1
  I  I6  1  0.74370060  0.25004482  0.75633726  1
  I  I7  1  0.25000000  0.75635621  0.74364379  1
  I  I8  1  0.98684698  0.74342349  0.99342349  1
  I  I9  1  0.99337109  0.50633303  0.24983181  1
  I  I10  1  0.99337109  0.98703806  0.74353928  1
  I  I11  1  0.74370060  0.99365577  0.98736333  1
loop_
_geom_bond_atom_site_label_1
_geom_bond_atom_site_label_2
_geom_bond_distance
_geom_bond_site_symmetry_2
La0 Pb2 3.163114 1_555
La0 Pb0 3.163114 1_655
La1 Pb1 3.163155 1_555
La1 Pb2 3.164291 1_565
La2 Pb1 3.163245 1_555
La2 Pb3 3.163245 1_555
La3 Pb2 3.163550 1_555
La3 Pb3 3.164244 1_555
La4 Pb0 3.163557 1_555
La4 Pb1 3.164251 1_556
La5 Pb2 3.163557 1_565
La5 Pb1 3.164251 1_555
La6 Pb0 3.163550 1_555
La6 Pb3 3.164244 1_555
La7 Pb1 3.163245 1_555
La7 Pb3 3.163245 1_555
La8 Pb2 3.163114 1_555
La8 Pb0 3.163114 1_655
La9 Pb3 3.163148 1_555
La9 Pb2 3.164285 1_555
La10 Pb3 3.163148 1_555
La10 Pb0 3.164285 1_555
La11 Pb1 3.163155 1_556
La11 Pb0 3.164291 1_555
I0 La1 3.348237 1_555
I0 La8 3.349554 1_565
I0 La10 3.363316 1_665
I0 La7 3.363498 1_555
I1 La7 3.350489 1_556
I1 La3 3.351621 1_556
I1 La0 3.363082 1_556
I1 La4 3.363814 1_555
I2 La9 3.348601 1_565
I2 La10 3.348601 1_565
I2 La4 3.364222 1_565
I2 La5 3.364222 1_555
I3 La6 3.351694 1_555
I3 La4 3.351700 1_555
I3 La1 3.364450 1_556
I3 La9 3.364457 1_555
I4 La7 3.350476 1_555
I4 La5 3.351614 1_555
I4 La8 3.363082 1_565
I4 La6 3.363821 1_555
I5 La9 3.348231 1_555
I5 La0 3.349554 1_555
I5 La11 3.363309 1_655
I5 La7 3.363497 1_555
I6 La11 3.348237 1_655
I6 La8 3.349554 1_555
I6 La9 3.363316 1_555
I6 La2 3.363498 1_656
I7 La11 3.348594 1_555
I7 La1 3.348594 1_556
I7 La3 3.364229 1_566
I7 La6 3.364229 1_555
I8 La3 3.351694 1_666
I8 La5 3.351700 1_656
I8 La11 3.364450 1_655
I8 La10 3.364457 1_666
I9 La2 3.350489 1_655
I9 La6 3.351621 1_655
I9 La0 3.363082 1_555
I9 La5 3.363814 1_655
I10 La2 3.350476 1_666
I10 La4 3.351614 1_665
I10 La8 3.363082 1_565
I10 La3 3.363821 1_666
I11 La10 3.348231 1_666
I11 La0 3.349554 1_566
I11 La1 3.363309 1_556
I11 La2 3.363497 1_666
