# generated using pymatgen
data_Sc4NbGa3
_symmetry_space_group_name_H-M   'P 1'
_cell_length_a   8.12166731
_cell_length_b   8.12166691
_cell_length_c   8.12166692
_cell_angle_alpha   95.99480113
_cell_angle_beta   95.99480837
_cell_angle_gamma   142.29063617
_symmetry_Int_Tables_number   1
_chemical_formula_structural   Sc4NbGa3
_chemical_formula_sum   'Sc8 Nb2 Ga6'
_cell_volume   310.09214715
_cell_formula_units_Z   2
loop_
 _symmetry_equiv_pos_site_id
 _symmetry_equiv_pos_as_xyz
  1  'x, y, z'
loop_
 _atom_site_type_symbol
 _atom_site_label
 _atom_site_symmetry_multiplicity
 _atom_site_fract_x
 _atom_site_fract_y
 _atom_site_fract_z
 _atom_site_occupancy
  Sc  Sc0  1  0.72173930  0.58120384  0.30294314  1
  Sc  Sc1  1  0.27826070  0.41879616  0.69705686  1
  Sc  Sc2  1  0.77826070  0.08120384  0.85946554  1
  Sc  Sc3  1  0.22173930  0.91879616  0.14053446  1
  Sc  Sc4  1  0.58120384  0.27826070  0.85946554  1
  Sc  Sc5  1  0.41879616  0.72173930  0.14053446  1
  Sc  Sc6  1  0.08120384  0.22173930  0.30294314  1
  Sc  Sc7  1  0.91879616  0.77826070  0.69705686  1
  Nb  Nb0  1  0.75000000  0.25000000  0.50000000  1
  Nb  Nb1  1  0.25000000  0.75000000  0.50000000  1
  Ga  Ga0  1  0.15936034  0.65936034  0.81871967  1
  Ga  Ga1  1  0.84063966  0.34063966  0.18128033  1
  Ga  Ga2  1  0.34063966  0.15936034  0.50000000  1
  Ga  Ga3  1  0.65936034  0.84063966  0.50000000  1
  Ga  Ga4  1  0.25000000  0.25000000  0.00000000  1
  Ga  Ga5  1  0.75000000  0.75000000  0.00000000  1
loop_
_geom_bond_atom_site_label_1
_geom_bond_atom_site_label_2
_geom_bond_distance
_geom_bond_site_symmetry_2
Sc0 Sc7 3.029106 1_555
Sc0 Sc3 3.163088 1_545
Sc0 Sc3 3.163093 1_655
Sc1 Sc6 3.029106 1_555
Sc1 Sc2 3.163088 1_565
Sc1 Sc2 3.163093 1_455
Sc2 Sc4 3.029106 1_555
Sc3 Sc5 3.029106 1_555
Sc4 Sc7 3.163089 1_445
Sc4 Sc7 3.163093 1_555
Sc5 Sc6 3.163089 1_665
Sc5 Sc6 3.163093 1_555
Nb0 Nb1 2.624671 1_545
Nb0 Nb1 2.624671 1_655
Ga0 Nb1 2.779018 1_555
Ga0 Nb0 2.779020 1_455
Ga0 Sc5 2.900294 1_556
Ga0 Sc3 2.900294 1_556
Ga0 Sc7 2.916750 1_455
Ga0 Sc1 2.916750 1_555
Ga0 Sc4 3.046443 1_565
Ga0 Sc2 3.046443 1_565
Ga0 Sc2 3.046452 1_455
Ga0 Sc4 3.046452 1_455
Ga1 Nb0 2.779018 1_555
Ga1 Nb1 2.779020 1_655
Ga1 Sc4 2.900294 1_554
Ga1 Sc2 2.900294 1_554
Ga1 Sc6 2.916750 1_655
Ga1 Sc0 2.916750 1_555
Ga1 Sc5 3.046443 1_545
Ga1 Sc3 3.046443 1_545
Ga1 Sc3 3.046452 1_655
Ga1 Sc5 3.046452 1_655
Ga2 Nb1 2.779026 1_545
Ga2 Nb0 2.779026 1_555
Ga2 Sc6 2.900294 1_555
Ga2 Sc1 2.900295 1_555
Ga2 Sc4 2.916760 1_555
Ga2 Sc3 2.916760 1_545
Ga2 Sc7 3.046446 1_555
Ga2 Sc0 3.046446 1_445
Ga2 Sc0 3.046446 1_555
Ga2 Sc7 3.046446 1_445
Ga3 Nb0 2.779026 1_565
Ga3 Nb1 2.779026 1_555
Ga3 Sc7 2.900294 1_555
Ga3 Sc0 2.900295 1_555
Ga3 Sc5 2.916760 1_555
Ga3 Sc2 2.916760 1_565
Ga3 Sc6 3.046446 1_555
Ga3 Sc1 3.046446 1_665
Ga3 Sc1 3.046446 1_555
Ga3 Sc6 3.046446 1_665
Ga4 Ga5 2.624671 1_445
Ga4 Ga5 2.624671 1_555
Ga4 Sc3 2.882751 1_545
Ga4 Sc4 2.882752 1_554
Ga4 Sc5 2.882754 1_555
Ga4 Sc2 2.882754 1_454
Ga4 Sc7 2.882755 1_444
Ga4 Sc0 2.882755 1_555
Ga4 Sc1 2.882756 1_554
Ga4 Sc6 2.882756 1_555
Ga5 Sc2 2.882751 1_564
Ga5 Sc5 2.882752 1_555
Ga5 Sc4 2.882754 1_554
Ga5 Sc3 2.882754 1_655
Ga5 Sc6 2.882755 1_665
Ga5 Sc1 2.882755 1_554
Ga5 Sc0 2.882756 1_555
Ga5 Sc7 2.882756 1_554
