# generated using pymatgen
data_Ti3AlPt2O
_symmetry_space_group_name_H-M   'P 1'
_cell_length_a   8.17741189
_cell_length_b   8.17741230
_cell_length_c   8.17741206
_cell_angle_alpha   60.00000493
_cell_angle_beta   60.00000325
_cell_angle_gamma   60.00000385
_symmetry_Int_Tables_number   1
_chemical_formula_structural   Ti3AlPt2O
_chemical_formula_sum   'Ti12 Al4 Pt8 O4'
_cell_volume   386.66306809
_cell_formula_units_Z   4
loop_
 _symmetry_equiv_pos_site_id
 _symmetry_equiv_pos_as_xyz
  1  'x, y, z'
loop_
 _atom_site_type_symbol
 _atom_site_label
 _atom_site_symmetry_multiplicity
 _atom_site_fract_x
 _atom_site_fract_y
 _atom_site_fract_z
 _atom_site_occupancy
  Ti  Ti0  1  0.93569556  0.56430444  0.56430444  1
  Ti  Ti1  1  0.68569556  0.31430444  0.68569556  1
  Ti  Ti2  1  0.93569556  0.56430444  0.93569556  1
  Ti  Ti3  1  0.56430444  0.93569556  0.93569556  1
  Ti  Ti4  1  0.31430444  0.68569556  0.31430444  1
  Ti  Ti5  1  0.56430444  0.93569556  0.56430444  1
  Ti  Ti6  1  0.68569556  0.68569556  0.31430444  1
  Ti  Ti7  1  0.93569556  0.93569556  0.56430444  1
  Ti  Ti8  1  0.31430444  0.31430444  0.68569556  1
  Ti  Ti9  1  0.68569556  0.31430444  0.31430444  1
  Ti  Ti10  1  0.56430444  0.56430444  0.93569556  1
  Ti  Ti11  1  0.31430444  0.68569556  0.68569556  1
  Al  Al0  1  0.12500000  0.62500000  0.12500000  1
  Al  Al1  1  0.12500000  0.12500000  0.62500000  1
  Al  Al2  1  0.62500000  0.12500000  0.12500000  1
  Al  Al3  1  0.12500000  0.12500000  0.12500000  1
  Pt  Pt0  1  0.27705626  0.90764791  0.90764791  1
  Pt  Pt1  1  0.34235209  0.34235209  0.34235209  1
  Pt  Pt2  1  0.34235209  0.34235209  0.97294374  1
  Pt  Pt3  1  0.90764791  0.27705626  0.90764791  1
  Pt  Pt4  1  0.90764791  0.90764791  0.90764791  1
  Pt  Pt5  1  0.97294374  0.34235209  0.34235209  1
  Pt  Pt6  1  0.90764791  0.90764791  0.27705626  1
  Pt  Pt7  1  0.34235209  0.97294374  0.34235209  1
  O  O0  1  0.62500000  0.12500000  0.62500000  1
  O  O1  1  0.62500000  0.62500000  0.12500000  1
  O  O2  1  0.12500000  0.62500000  0.62500000  1
  O  O3  1  0.62500000  0.62500000  0.62500000  1
loop_
_geom_bond_atom_site_label_1
_geom_bond_atom_site_label_2
_geom_bond_distance
_geom_bond_site_symmetry_2
Al0 Pt6 2.569678 1_455
Al0 Pt2 2.569678 1_554
Al0 Pt0 2.569678 1_554
Al0 Pt5 2.569678 1_455
Al0 Pt1 2.569678 1_555
Al0 Pt4 2.569678 1_454
Al1 Pt3 2.569678 1_455
Al1 Pt7 2.569678 1_545
Al1 Pt0 2.569678 1_545
Al1 Pt5 2.569678 1_455
Al1 Pt1 2.569678 1_555
Al1 Pt4 2.569678 1_445
Al2 Pt3 2.569678 1_554
Al2 Pt7 2.569678 1_545
Al2 Pt6 2.569678 1_545
Al2 Pt2 2.569678 1_554
Al2 Pt1 2.569678 1_555
Al2 Pt4 2.569678 1_544
Al3 Pt7 2.569678 1_545
Al3 Pt3 2.569678 1_454
Al3 Pt2 2.569678 1_554
Al3 Pt6 2.569678 1_445
Al3 Pt5 2.569678 1_455
Al3 Pt0 2.569678 1_544
Pt0 Ti3 2.598627 1_555
Pt0 Ti5 2.598627 1_555
Pt0 Ti10 2.598627 1_555
Pt0 Ti11 2.978210 1_555
Pt0 Ti4 2.978210 1_556
Pt0 Ti8 2.978210 1_565
Pt1 Ti9 2.598627 1_555
Pt1 Ti8 2.598627 1_555
Pt1 Ti4 2.598627 1_555
Pt1 Ti0 2.978210 1_455
Pt1 Ti10 2.978210 1_554
Pt1 Ti5 2.978210 1_545
Pt2 Ti8 2.598627 1_555
Pt2 Ti1 2.598627 1_555
Pt2 Ti11 2.598627 1_555
Pt2 Ti10 2.978210 1_555
Pt2 Ti2 2.978210 1_455
Pt2 Ti3 2.978210 1_545
Pt3 Ti2 2.598627 1_555
Pt3 Ti10 2.598627 1_555
Pt3 Ti0 2.598627 1_555
Pt3 Ti1 2.978210 1_555
Pt3 Ti8 2.978210 1_655
Pt3 Ti9 2.978210 1_556
Pt4 Ti3 2.598627 1_555
Pt4 Ti7 2.598627 1_555
Pt4 Ti2 2.598627 1_555
Pt4 Ti11 2.978210 1_655
Pt4 Ti6 2.978210 1_556
Pt4 Ti1 2.978210 1_565
Pt5 Ti9 2.598627 1_555
Pt5 Ti1 2.598627 1_555
Pt5 Ti6 2.598627 1_555
Pt5 Ti0 2.978210 1_555
Pt5 Ti2 2.978210 1_554
Pt5 Ti7 2.978210 1_545
Pt6 Ti7 2.598627 1_555
Pt6 Ti5 2.598627 1_555
Pt6 Ti0 2.598627 1_555
Pt6 Ti6 2.978210 1_555
Pt6 Ti4 2.978210 1_655
Pt6 Ti9 2.978210 1_565
Pt7 Ti4 2.598627 1_555
Pt7 Ti6 2.598627 1_555
Pt7 Ti11 2.598627 1_555
Pt7 Ti5 2.978210 1_555
Pt7 Ti7 2.978210 1_455
Pt7 Ti3 2.978210 1_554
O0 Ti1 2.161497 1_555
O0 Ti5 2.161497 1_545
O0 Ti7 2.161498 1_545
O0 Ti8 2.161498 1_555
O0 Ti9 2.161498 1_555
O0 Ti3 2.161498 1_545
O1 Ti6 2.161497 1_555
O1 Ti10 2.161497 1_554
O1 Ti2 2.161498 1_554
O1 Ti4 2.161498 1_555
O1 Ti3 2.161498 1_554
O1 Ti9 2.161498 1_555
O2 Ti11 2.161497 1_555
O2 Ti0 2.161497 1_455
O2 Ti2 2.161498 1_455
O2 Ti4 2.161498 1_555
O2 Ti7 2.161498 1_455
O2 Ti8 2.161498 1_555
O3 Ti0 2.161497 1_555
O3 Ti11 2.161497 1_555
O3 Ti10 2.161498 1_555
O3 Ti6 2.161498 1_555
O3 Ti5 2.161498 1_555
O3 Ti1 2.161498 1_555
