# generated using pymatgen
data_Be2SiW5
_symmetry_space_group_name_H-M   'P 1'
_cell_length_a   7.07852957
_cell_length_b   7.07853326
_cell_length_c   6.14545993
_cell_angle_alpha   64.27247229
_cell_angle_beta   64.27252840
_cell_angle_gamma   51.45500056
_symmetry_Int_Tables_number   1
_chemical_formula_structural   Be2SiW5
_chemical_formula_sum   'Be4 Si2 W10'
_cell_volume   211.02846492
_cell_formula_units_Z   2
loop_
 _symmetry_equiv_pos_site_id
 _symmetry_equiv_pos_as_xyz
  1  'x, y, z'
loop_
 _atom_site_type_symbol
 _atom_site_label
 _atom_site_symmetry_multiplicity
 _atom_site_fract_x
 _atom_site_fract_y
 _atom_site_fract_z
 _atom_site_occupancy
  Be  Be0  1  0.62412988  0.37587012  0.62412988  1
  Be  Be1  1  0.87591125  0.12408875  0.12413340  1
  Be  Be2  1  0.12413340  0.87586660  0.87591125  1
  Be  Be3  1  0.37589528  0.62410472  0.37589528  1
  Si  Si0  1  0.24996276  0.25003724  0.24996276  1
  Si  Si1  1  0.74996276  0.75003724  0.74996276  1
  W  W0  1  0.51995561  0.19047299  0.48000376  1
  W  W1  1  0.19043236  0.51999624  0.80952701  1
  W  W2  1  0.01998024  0.69043787  0.30956213  1
  W  W3  1  0.69046841  0.01994221  0.98005779  1
  W  W4  1  0.48000376  0.80956764  0.51995561  1
  W  W5  1  0.80952701  0.48004439  0.19043236  1
  W  W6  1  0.98005779  0.30953159  0.69046841  1
  W  W7  1  0.30956213  0.98001976  0.01998024  1
  W  W8  1  0.50001593  0.49998407  0.99999842  1
  W  W9  1  0.99999842  0.00000158  0.50001593  1
loop_
_geom_bond_atom_site_label_1
_geom_bond_atom_site_label_2
_geom_bond_distance
_geom_bond_site_symmetry_2
Be0 Be3 2.157404 1_555
Be0 W5 2.415101 1_555
Be0 W0 2.415101 1_555
Be0 W1 2.415101 1_555
Be0 W4 2.415101 1_555
Be0 W8 2.432559 1_555
Be0 W9 2.432559 1_555
Be0 W3 2.446513 1_555
Be0 W6 2.446513 1_555
Be1 Be2 2.157298 1_644
Be1 W7 2.414922 1_645
Be1 W2 2.414922 1_645
Be1 W6 2.415003 1_554
Be1 W3 2.415003 1_554
Be1 W9 2.432587 1_555
Be1 W8 2.432754 1_554
Be1 W0 2.446410 1_555
Be1 W5 2.446410 1_555
Be2 W2 2.414922 1_556
Be2 W7 2.414922 1_556
Be2 W3 2.415004 1_465
Be2 W6 2.415004 1_465
Be2 W8 2.432587 1_555
Be2 W9 2.432754 1_465
Be2 W4 2.446410 1_555
Be2 W1 2.446410 1_555
Be3 W1 2.414845 1_555
Be3 W4 2.414845 1_555
Be3 W5 2.414846 1_555
Be3 W0 2.414846 1_555
Be3 W8 2.432737 1_554
Be3 W9 2.432737 1_465
Be3 W7 2.446426 1_555
Be3 W2 2.446426 1_555
Si0 W7 2.579035 1_545
Si0 W2 2.579035 1_555
Si0 W1 2.579053 1_554
Si0 W5 2.579053 1_455
Si0 W6 2.579287 1_455
Si0 W3 2.579288 1_554
Si0 W0 2.579300 1_555
Si0 W4 2.579301 1_545
Si0 W9 2.793844 1_455
Si0 W8 2.793844 1_554
Si1 W2 2.579035 1_655
Si1 W7 2.579035 1_556
Si1 W4 2.579053 1_555
Si1 W0 2.579053 1_565
Si1 W3 2.579288 1_565
Si1 W6 2.579288 1_555
Si1 W5 2.579300 1_556
Si1 W1 2.579301 1_655
Si1 W8 2.793844 1_555
Si1 W9 2.793844 1_565
