# generated using pymatgen
data_Cs2NaVSe4
_symmetry_space_group_name_H-M   'P 1'
_cell_length_a   14.37830670
_cell_length_b   12.91690260
_cell_length_c   7.92168716
_cell_angle_alpha   83.58535119
_cell_angle_beta   63.21912236
_cell_angle_gamma   33.19552450
_symmetry_Int_Tables_number   1
_chemical_formula_structural   Cs2NaVSe4
_chemical_formula_sum   'Cs4 Na2 V2 Se8'
_cell_volume   603.92570815
_cell_formula_units_Z   2
loop_
 _symmetry_equiv_pos_site_id
 _symmetry_equiv_pos_as_xyz
  1  'x, y, z'
loop_
 _atom_site_type_symbol
 _atom_site_label
 _atom_site_symmetry_multiplicity
 _atom_site_fract_x
 _atom_site_fract_y
 _atom_site_fract_z
 _atom_site_occupancy
  Cs  Cs0  1  0.67949773  0.67949773  0.32050227  1
  Cs  Cs1  1  0.32050227  0.32050227  0.67949773  1
  Cs  Cs2  1  0.92949773  0.92949773  0.57050227  1
  Cs  Cs3  1  0.57050227  0.57050227  0.92949773  1
  Na  Na0  1  0.00000000  0.00000000  0.00000000  1
  Na  Na1  1  0.25000000  0.25000000  0.25000000  1
  V  V0  1  0.75000000  0.75000000  0.75000000  1
  V  V1  1  0.50000000  0.50000000  0.50000000  1
  Se  Se0  1  0.41181183  0.98159762  0.90113861  1
  Se  Se1  1  0.70545394  0.90113861  0.98159762  1
  Se  Se2  1  0.90113861  0.70545394  0.41181183  1
  Se  Se3  1  0.98159762  0.41181183  0.70545394  1
  Se  Se4  1  0.26840238  0.83818817  0.54454606  1
  Se  Se5  1  0.54454606  0.34886139  0.26840238  1
  Se  Se6  1  0.34886139  0.54454606  0.83818817  1
  Se  Se7  1  0.83818817  0.26840238  0.34886139  1
loop_
_geom_bond_atom_site_label_1
_geom_bond_atom_site_label_2
_geom_bond_distance
_geom_bond_site_symmetry_2
Cs0 Se7 3.656694 1_555
Cs0 Se4 3.656697 1_555
Cs0 Se3 3.757427 1_554
Cs0 Se0 3.757441 1_555
Cs0 Se1 3.835493 1_554
Cs0 Se2 3.835502 1_555
Cs1 Se6 3.656670 1_555
Cs1 Se5 3.656678 1_555
Cs1 Se1 3.757430 1_455
Cs1 Se2 3.757433 1_545
Cs1 Se3 3.835474 1_455
Cs1 Se0 3.835481 1_545
Cs2 Se2 3.656670 1_555
Cs2 Se1 3.656678 1_555
Cs2 Se5 3.757430 1_655
Cs2 Se6 3.757433 1_565
Cs2 Se4 3.835474 1_655
Cs2 Se7 3.835481 1_565
Cs3 Se0 3.656694 1_555
Cs3 Se3 3.656697 1_555
Cs3 Se4 3.757427 1_556
Cs3 Se7 3.757441 1_555
Cs3 Se5 3.835493 1_556
Cs3 Se6 3.835502 1_555
Na0 Se7 2.813730 1_455
Na0 Se4 2.813742 1_544
Na0 Se6 2.813746 1_544
Na0 Se5 2.813748 1_455
Na1 Se0 2.813730 1_544
Na1 Se3 2.813742 1_455
Na1 Se2 2.813746 1_455
Na1 Se1 2.813748 1_544
Se0 V0 2.288226 1_555
Se1 V0 2.288249 1_555
Se2 V0 2.288237 1_555
Se3 V0 2.288230 1_555
Se4 V1 2.288230 1_555
Se5 V1 2.288249 1_555
Se6 V1 2.288237 1_555
Se7 V1 2.288226 1_555
