# generated using pymatgen
data_Cs6ScBiSe3
_symmetry_space_group_name_H-M   'P 1'
_cell_length_a   11.25460896
_cell_length_b   11.25461009
_cell_length_c   9.25559421
_cell_angle_alpha   90.00000000
_cell_angle_beta   90.00000000
_cell_angle_gamma   119.99999950
_symmetry_Int_Tables_number   1
_chemical_formula_structural   Cs6ScBiSe3
_chemical_formula_sum   'Cs12 Sc2 Bi2 Se6'
_cell_volume   1015.30331359
_cell_formula_units_Z   2
loop_
 _symmetry_equiv_pos_site_id
 _symmetry_equiv_pos_as_xyz
  1  'x, y, z'
loop_
 _atom_site_type_symbol
 _atom_site_label
 _atom_site_symmetry_multiplicity
 _atom_site_fract_x
 _atom_site_fract_y
 _atom_site_fract_z
 _atom_site_occupancy
  Cs  Cs0  1  0.13986817  0.86013183  0.53355447  1
  Cs  Cs1  1  0.27973635  0.13986817  0.03355447  1
  Cs  Cs2  1  0.86013183  0.72026365  0.03355447  1
  Cs  Cs3  1  0.13986817  0.27973635  0.53355447  1
  Cs  Cs4  1  0.72026365  0.86013183  0.53355447  1
  Cs  Cs5  1  0.86013183  0.13986817  0.03355447  1
  Cs  Cs6  1  0.52958813  0.47041187  0.37298517  1
  Cs  Cs7  1  0.05917626  0.52958813  0.87298517  1
  Cs  Cs8  1  0.47041187  0.94082374  0.87298517  1
  Cs  Cs9  1  0.52958813  0.05917626  0.37298517  1
  Cs  Cs10  1  0.94082374  0.47041187  0.37298517  1
  Cs  Cs11  1  0.47041187  0.52958813  0.87298517  1
  Sc  Sc0  1  0.33333300  0.66666700  0.24677329  1
  Sc  Sc1  1  0.66666700  0.33333300  0.74677329  1
  Bi  Bi0  1  0.33333300  0.66666700  0.55877638  1
  Bi  Bi1  1  0.66666700  0.33333300  0.05877638  1
  Se  Se0  1  0.20395076  0.79604924  0.16151113  1
  Se  Se1  1  0.40790053  0.20395076  0.66151113  1
  Se  Se2  1  0.79604924  0.59209947  0.66151113  1
  Se  Se3  1  0.20395076  0.40790053  0.16151113  1
  Se  Se4  1  0.59209947  0.79604924  0.16151113  1
  Se  Se5  1  0.79604924  0.20395076  0.66151113  1
loop_
_geom_bond_atom_site_label_1
_geom_bond_atom_site_label_2
_geom_bond_distance
_geom_bond_site_symmetry_2
Cs0 Se0 3.663068 1_555
Cs0 Se2 3.715239 1_455
Cs0 Se1 3.715239 1_565
Cs1 Se1 3.663064 1_554
Cs1 Se3 3.715232 1_555
Cs1 Se0 3.715242 1_545
Cs2 Se2 3.663064 1_554
Cs2 Se4 3.715231 1_555
Cs2 Se0 3.715242 1_655
Cs3 Se3 3.663064 1_555
Cs3 Se1 3.715231 1_555
Cs3 Se5 3.715242 1_455
Cs4 Se4 3.663064 1_555
Cs4 Se2 3.715232 1_555
Cs4 Se5 3.715242 1_565
Cs5 Se5 3.663068 1_554
Cs5 Se3 3.715239 1_655
Cs5 Se4 3.715239 1_545
Cs6 Se2 3.727393 1_555
Cs6 Se1 3.727393 1_555
Cs6 Se3 3.896061 1_555
Cs6 Se4 3.896061 1_555
Cs7 Se0 3.727393 1_556
Cs7 Se3 3.727400 1_556
Cs7 Se5 3.896064 1_455
Cs7 Se2 3.896070 1_455
Cs8 Se0 3.727393 1_556
Cs8 Se4 3.727400 1_556
Cs8 Se5 3.896064 1_565
Cs8 Se1 3.896071 1_565
Cs9 Se5 3.727393 1_555
Cs9 Se1 3.727400 1_555
Cs9 Se0 3.896064 1_545
Cs9 Se4 3.896071 1_545
Cs10 Se5 3.727393 1_555
Cs10 Se2 3.727400 1_555
Cs10 Se0 3.896064 1_655
Cs10 Se3 3.896070 1_655
Cs11 Se3 3.727393 1_556
Cs11 Se4 3.727393 1_556
Cs11 Se2 3.896061 1_555
Cs11 Se1 3.896061 1_555
Sc0 Se0 2.642697 1_555
Sc0 Se4 2.642716 1_555
Sc0 Se3 2.642716 1_555
Sc1 Se5 2.642697 1_555
Sc1 Se1 2.642716 1_555
Sc1 Se2 2.642716 1_555
Bi0 Sc0 2.887774 1_555
Bi0 Cs0 3.778535 1_555
Bi0 Cs4 3.778545 1_555
Bi0 Cs3 3.778545 1_555
Bi0 Cs7 3.949420 1_555
Bi0 Cs8 3.949421 1_555
Bi0 Cs11 3.949427 1_555
Bi0 Cs10 4.194405 1_455
Bi0 Cs9 4.194406 1_565
Bi0 Cs6 4.194414 1_555
Bi1 Sc1 2.887774 1_554
Bi1 Cs5 3.778535 1_555
Bi1 Cs1 3.778545 1_555
Bi1 Cs2 3.778545 1_555
Bi1 Cs10 3.949420 1_555
Bi1 Cs9 3.949421 1_555
Bi1 Cs6 3.949427 1_555
Bi1 Cs7 4.194405 1_654
Bi1 Cs8 4.194406 1_544
Bi1 Cs11 4.194414 1_554
