# generated using pymatgen
data_HgPt4Pb3O13
_symmetry_space_group_name_H-M   'P 1'
_cell_length_a   7.28621245
_cell_length_b   7.27447080
_cell_length_c   7.27447221
_cell_angle_alpha   60.00000231
_cell_angle_beta   60.05329566
_cell_angle_gamma   60.05328275
_symmetry_Int_Tables_number   1
_chemical_formula_structural   HgPt4Pb3O13
_chemical_formula_sum   'Hg1 Pt4 Pb3 O13'
_cell_volume   272.85949699
_cell_formula_units_Z   1
loop_
 _symmetry_equiv_pos_site_id
 _symmetry_equiv_pos_as_xyz
  1  'x, y, z'
loop_
 _atom_site_type_symbol
 _atom_site_label
 _atom_site_symmetry_multiplicity
 _atom_site_fract_x
 _atom_site_fract_y
 _atom_site_fract_z
 _atom_site_occupancy
  Hg  Hg0  1  0.87234911  0.37588430  0.37588430  1
  Pt  Pt0  1  0.87727713  0.37429203  0.87421442  1
  Pt  Pt1  1  0.87727713  0.87421442  0.37429203  1
  Pt  Pt2  1  0.87727713  0.87421442  0.87421442  1
  Pt  Pt3  1  0.38032688  0.87322404  0.87322404  1
  Pb  Pb0  1  0.36804879  0.37327958  0.37327958  1
  Pb  Pb1  1  0.36804879  0.37327958  0.88539404  1
  Pb  Pb2  1  0.36804879  0.88539404  0.37327958  1
  O  O0  1  0.20738170  0.79457223  0.79457223  1
  O  O1  1  0.20738170  0.79457223  0.20347285  1
  O  O2  1  0.55094403  0.95167588  0.95167588  1
  O  O3  1  0.55094403  0.95167588  0.54570420  1
  O  O4  1  0.95451836  0.95894385  0.54326939  1
  O  O5  1  0.80062439  0.78754350  0.20591656  1
  O  O6  1  0.55094403  0.54570420  0.95167588  1
  O  O7  1  0.80062439  0.20591656  0.78754350  1
  O  O8  1  0.80062439  0.20591656  0.20591656  1
  O  O9  1  0.95451836  0.54326939  0.95894385  1
  O  O10  1  0.95451836  0.54326939  0.54326939  1
  O  O11  1  0.20738170  0.20347285  0.79457223  1
  O  O12  1  0.47094379  0.50968507  0.50968507  1
loop_
_geom_bond_atom_site_label_1
_geom_bond_atom_site_label_2
_geom_bond_distance
_geom_bond_site_symmetry_2
Hg0 O12 2.389949 1_555
Hg0 O5 2.479830 1_555
Hg0 O7 2.479831 1_555
Hg0 O8 2.479837 1_555
Hg0 O10 2.502405 1_555
Hg0 O4 2.502411 1_545
Hg0 O9 2.502411 1_554
O0 Pt2 2.002386 1_455
O0 Pt3 2.002395 1_555
O0 Pb1 2.522837 1_555
O0 Pb2 2.522838 1_555
O1 Pt1 2.002385 1_455
O1 Pt3 2.002395 1_554
O1 Pb0 2.522839 1_555
O1 Pb2 2.522856 1_555
O2 Pt2 1.982633 1_555
O2 Pt3 1.984729 1_555
O2 Pb1 2.548873 1_565
O2 Pb2 2.548873 1_556
O3 Pt1 1.982636 1_555
O3 Pt3 1.984723 1_555
O3 Pb2 2.548861 1_555
O3 Pb0 2.548870 1_565
O4 Pt2 2.000551 1_555
O4 Pt1 2.000571 1_555
O4 Pb2 2.495236 1_655
O5 Pt1 2.004114 1_555
O5 Pt2 2.004134 1_554
O5 Pb2 2.592029 1_555
O6 Pt0 1.982635 1_555
O6 Pt3 1.984723 1_555
O6 Pb1 2.548861 1_555
O6 Pb0 2.548871 1_556
O7 Pt0 2.004114 1_555
O7 Pt2 2.004134 1_545
O7 Pb1 2.592029 1_555
O8 Pt1 2.004130 1_545
O8 Pt0 2.004131 1_554
O8 Pb0 2.592030 1_555
O9 Pt2 2.000551 1_555
O9 Pt0 2.000571 1_555
O9 Pb1 2.495235 1_655
O10 Pt1 2.000554 1_555
O10 Pt0 2.000555 1_555
O10 Pb0 2.495234 1_655
O11 Pt0 2.002385 1_455
O11 Pt3 2.002395 1_545
O11 Pb0 2.522840 1_555
O11 Pb1 2.522856 1_555
O12 Pb0 2.236375 1_555
O12 Pb2 2.236392 1_555
O12 Pb1 2.236393 1_555
