# generated using pymatgen
data_RbHgAsO4
_symmetry_space_group_name_H-M   'P 1'
_cell_length_a   5.97852109
_cell_length_b   9.40084209
_cell_length_c   9.01165789
_cell_angle_alpha   90.00000000
_cell_angle_beta   90.00000000
_cell_angle_gamma   90.00000000
_symmetry_Int_Tables_number   1
_chemical_formula_structural   RbHgAsO4
_chemical_formula_sum   'Rb4 Hg4 As4 O16'
_cell_volume   506.48340487
_cell_formula_units_Z   4
loop_
 _symmetry_equiv_pos_site_id
 _symmetry_equiv_pos_as_xyz
  1  'x, y, z'
loop_
 _atom_site_type_symbol
 _atom_site_label
 _atom_site_symmetry_multiplicity
 _atom_site_fract_x
 _atom_site_fract_y
 _atom_site_fract_z
 _atom_site_occupancy
  Rb  Rb0  1  0.51076380  0.27603533  0.50239962  1
  Rb  Rb1  1  0.01076380  0.77603533  0.99760038  1
  Rb  Rb2  1  0.01076380  0.72396467  0.49760038  1
  Rb  Rb3  1  0.51076380  0.22396467  0.00239962  1
  Hg  Hg0  1  0.53845227  0.56992871  0.19659866  1
  Hg  Hg1  1  0.03845227  0.43007129  0.80340134  1
  Hg  Hg2  1  0.53845227  0.93007129  0.69659866  1
  Hg  Hg3  1  0.03845227  0.06992871  0.30340134  1
  As  As0  1  0.52229179  0.55946215  0.78460402  1
  As  As1  1  0.02229179  0.44053785  0.21539598  1
  As  As2  1  0.02229179  0.05946215  0.71539598  1
  As  As3  1  0.52229179  0.94053785  0.28460402  1
  O  O0  1  0.17537228  0.59270999  0.23796557  1
  O  O1  1  0.17537228  0.90729001  0.73796557  1
  O  O2  1  0.40651348  0.93000086  0.45680201  1
  O  O3  1  0.18479349  0.19997216  0.76152957  1
  O  O4  1  0.40651348  0.56999914  0.95680201  1
  O  O5  1  0.79409389  0.03808913  0.83042275  1
  O  O6  1  0.67537228  0.09270999  0.26203443  1
  O  O7  1  0.67537228  0.40729001  0.76203443  1
  O  O8  1  0.68479349  0.80002784  0.23847043  1
  O  O9  1  0.79409389  0.46191087  0.33042275  1
  O  O10  1  0.29409389  0.53808913  0.66957725  1
  O  O11  1  0.18479349  0.30002784  0.26152957  1
  O  O12  1  0.29409389  0.96191087  0.16957725  1
  O  O13  1  0.90651348  0.06999914  0.54319799  1
  O  O14  1  0.68479349  0.69997216  0.73847043  1
  O  O15  1  0.90651348  0.43000086  0.04319799  1
loop_
_geom_bond_atom_site_label_1
_geom_bond_atom_site_label_2
_geom_bond_distance
_geom_bond_site_symmetry_2
Hg0 O9 2.195773 1_555
Hg0 O0 2.212847 1_555
Hg0 O4 2.300429 1_554
Hg0 O8 2.363673 1_555
Hg1 O10 2.195773 1_555
Hg1 O7 2.212847 1_455
Hg1 O15 2.300429 1_456
Hg1 O3 2.363673 1_555
Hg2 O5 2.195773 1_565
Hg2 O1 2.212847 1_555
Hg2 O2 2.300429 1_555
Hg2 O14 2.363673 1_555
Hg3 O12 2.195773 1_545
Hg3 O6 2.212847 1_455
Hg3 O13 2.300429 1_455
Hg3 O11 2.363673 1_555
As0 O14 1.691597 1_555
As0 O4 1.702052 1_555
As0 O7 1.710384 1_555
As0 O10 1.725152 1_555
As1 O11 1.691597 1_555
As1 O15 1.702052 1_455
As1 O0 1.710384 1_555
As1 O9 1.725152 1_455
As2 O3 1.691597 1_555
As2 O13 1.702052 1_455
As2 O1 1.710384 1_545
As2 O5 1.725152 1_455
As3 O8 1.691597 1_555
As3 O2 1.702052 1_555
As3 O6 1.710384 1_565
As3 O12 1.725152 1_555
O0 Rb2 2.822302 1_555
O0 Rb1 2.937784 1_554
O1 Rb1 2.822302 1_555
O1 Rb2 2.937784 1_555
O2 Rb2 3.079733 1_555
O2 Rb0 3.337576 1_565
O3 Rb3 2.925824 1_556
O3 Rb0 3.124472 1_555
O4 Rb1 3.079733 1_555
O4 Rb3 3.337576 1_556
O5 Rb3 2.885223 1_556
O5 Rb1 3.164905 1_645
O6 Rb3 2.822302 1_555
O6 Rb0 2.937784 1_555
O7 Rb0 2.822302 1_555
O7 Rb3 2.937784 1_556
O8 Rb1 2.925824 1_654
O8 Rb2 3.124472 1_655
O9 Rb0 2.885223 1_555
O9 Rb2 3.164905 1_655
O10 Rb2 2.885223 1_555
O10 Rb0 3.164905 1_555
O11 Rb0 2.925824 1_555
O11 Rb3 3.124472 1_555
O12 Rb1 2.885223 1_554
O12 Rb3 3.164905 1_565
O13 Rb0 3.079733 1_555
O13 Rb2 3.337576 1_645
O14 Rb2 2.925824 1_655
O14 Rb1 3.124472 1_655
O15 Rb3 3.079733 1_555
O15 Rb1 3.337576 1_654
