# generated using pymatgen
data_Y2B8IrPt
_symmetry_space_group_name_H-M   'P 1'
_cell_length_a   7.02001797
_cell_length_b   7.02001701
_cell_length_c   7.02001870
_cell_angle_alpha   111.84062736
_cell_angle_beta   111.63683735
_cell_angle_gamma   105.02566476
_symmetry_Int_Tables_number   1
_chemical_formula_structural   Y2B8IrPt
_chemical_formula_sum   'Y4 B16 Ir2 Pt2'
_cell_volume   265.12215396
_cell_formula_units_Z   2
loop_
 _symmetry_equiv_pos_site_id
 _symmetry_equiv_pos_as_xyz
  1  'x, y, z'
loop_
 _atom_site_type_symbol
 _atom_site_label
 _atom_site_symmetry_multiplicity
 _atom_site_fract_x
 _atom_site_fract_y
 _atom_site_fract_z
 _atom_site_occupancy
  Y  Y0  1  0.78688025  0.78688025  1.00000000  1
  Y  Y1  1  0.21311975  0.21311975  0.00000000  1
  Y  Y2  1  0.74281537  0.24281537  0.50000000  1
  Y  Y3  1  0.25718463  0.75718463  0.50000000  1
  B  B0  1  0.26725332  0.10766251  0.37491583  1
  B  B1  1  0.73274668  0.89233749  0.62508417  1
  B  B2  1  0.26725332  0.89233749  0.15959081  1
  B  B3  1  0.73274668  0.10766251  0.84040919  1
  B  B4  1  0.10672517  0.73850330  0.84522847  1
  B  B5  1  0.89327483  0.26149670  0.15477153  1
  B  B6  1  0.10672517  0.26149670  0.36822187  1
  B  B7  1  0.89327483  0.73850330  0.63177813  1
  B  B8  1  0.11144694  0.10948308  0.52528116  1
  B  B9  1  0.58420192  0.58616578  0.47471884  1
  B  B10  1  0.11144694  0.58616578  0.00196386  1
  B  B11  1  0.58420192  0.10948308  0.99803614  1
  B  B12  1  0.88855306  0.89051692  0.47471884  1
  B  B13  1  0.41579808  0.41383422  0.52528116  1
  B  B14  1  0.88855306  0.41383422  0.99803614  1
  B  B15  1  0.41579808  0.89051692  0.00196386  1
  Ir  Ir0  1  0.50000000  0.73740636  0.23740636  1
  Ir  Ir1  1  0.50000000  0.26259364  0.76259364  1
  Pt  Pt0  1  0.25469424  0.50000000  0.75469424  1
  Pt  Pt1  1  0.74530576  0.50000000  0.24530576  1
loop_
_geom_bond_atom_site_label_1
_geom_bond_atom_site_label_2
_geom_bond_distance
_geom_bond_site_symmetry_2
B0 B2 1.694020 1_545
B0 B6 1.751591 1_555
B0 B13 1.777449 1_555
B0 B8 1.777449 1_555
B0 Ir1 2.203674 1_555
B0 Y3 2.896979 1_545
B0 Y2 2.896979 1_555
B0 Y0 2.911613 1_444
B0 Y1 2.911614 1_555
B1 B3 1.694020 1_565
B1 B7 1.751591 1_555
B1 B9 1.777449 1_555
B1 B12 1.777449 1_555
B1 Ir0 2.203674 1_555
B1 Y2 2.896979 1_565
B1 Y3 2.896979 1_555
B1 Y1 2.911613 1_666
B1 Y0 2.911614 1_555
B2 B4 1.751591 1_554
B2 Ir0 2.203673 1_555
B2 Y2 2.896979 1_565
B2 Y3 2.896980 1_555
B2 Y1 2.911613 1_565
B2 Y0 2.911613 1_454
B3 B5 1.751591 1_556
B3 Ir1 2.203673 1_555
B3 Y3 2.896979 1_545
B3 Y2 2.896980 1_555
B3 Y0 2.911613 1_545
B3 Y1 2.911613 1_656
B4 B7 1.683683 1_455
B4 Pt0 2.209763 1_555
B4 Y1 2.873519 1_566
B4 Y0 2.873519 1_455
B4 Y2 3.009746 1_455
B4 Y3 3.009746 1_555
B5 B6 1.683683 1_655
B5 Pt1 2.209763 1_555
B5 Y0 2.873519 1_544
B5 Y1 2.873519 1_655
B5 Y3 3.009746 1_655
B5 Y2 3.009746 1_555
B6 B8 1.795090 1_555
B6 Pt0 2.209763 1_555
B6 Y0 2.873519 1_444
B6 Y1 2.873519 1_555
B6 Y3 3.009745 1_555
B6 Y2 3.009746 1_455
B7 B9 1.795090 1_555
B7 Pt1 2.209763 1_555
B7 Y1 2.873519 1_666
B7 Y0 2.873519 1_555
B7 Y2 3.009745 1_555
B7 Y3 3.009746 1_655
B8 Ir1 2.273154 1_555
B8 Pt0 2.282902 1_555
B8 Y3 2.883378 1_545
B8 Y1 2.883962 1_556
B8 Y2 2.940257 1_455
B8 Y0 2.972005 1_444
B9 Ir0 2.273155 1_555
B9 Pt1 2.282903 1_555
B9 Y3 2.883378 1_555
B9 Y1 2.883962 1_555
B9 Y2 2.940257 1_555
B9 Y0 2.972006 1_555
B10 B14 1.695439 1_454
B10 B2 1.777449 1_555
B10 B4 1.795090 1_554
B10 Ir0 2.273154 1_555
B10 Pt0 2.282903 1_554
B10 Y3 2.883379 1_555
B10 Y1 2.883961 1_555
B10 Y2 2.940257 1_454
B10 Y0 2.972005 1_454
B11 B15 1.695439 1_546
B11 B3 1.777449 1_555
B11 B5 1.795090 1_556
B11 Ir1 2.273154 1_555
B11 Pt1 2.282902 1_556
B11 Y3 2.883378 1_545
B11 Y1 2.883962 1_556
B11 Y2 2.940257 1_556
B11 Y0 2.972005 1_545
B12 B8 1.695439 1_665
B12 B7 1.795090 1_555
B12 Ir0 2.273154 1_555
B12 Pt1 2.282902 1_555
B12 Y2 2.883378 1_565
B12 Y0 2.883962 1_554
B12 Y3 2.940257 1_655
B12 Y1 2.972005 1_666
B13 B9 1.695439 1_555
B13 B6 1.795090 1_555
B13 Ir1 2.273155 1_555
B13 Pt0 2.282903 1_555
B13 Y2 2.883378 1_555
B13 Y0 2.883962 1_555
B13 Y3 2.940257 1_555
B13 Y1 2.972006 1_555
B14 B3 1.777449 1_555
B14 B5 1.795090 1_556
B14 Ir1 2.273154 1_555
B14 Pt1 2.282903 1_556
B14 Y2 2.883379 1_555
B14 Y0 2.883961 1_555
B14 Y3 2.940257 1_656
B14 Y1 2.972005 1_656
B15 B2 1.777449 1_555
B15 B4 1.795090 1_554
B15 Ir0 2.273154 1_555
B15 Pt0 2.282902 1_554
B15 Y2 2.883378 1_565
B15 Y0 2.883962 1_554
B15 Y3 2.940257 1_554
B15 Y1 2.972005 1_565
Ir0 Pt1 2.689332 1_555
Ir0 Pt0 2.689333 1_554
Ir0 Y2 2.927881 1_565
Ir0 Y3 2.927881 1_555
Ir0 Y1 3.081740 1_555
Ir0 Y0 3.081740 1_554
Ir1 Pt0 2.689332 1_555
Ir1 Pt1 2.689333 1_556
Ir1 Y3 2.927881 1_545
Ir1 Y2 2.927881 1_555
Ir1 Y0 3.081740 1_555
Ir1 Y1 3.081740 1_556
Pt0 Y2 2.977455 1_455
Pt0 Y3 2.977455 1_555
Pt0 Y0 3.122936 1_555
Pt0 Y1 3.122936 1_556
Pt1 Y3 2.977455 1_655
Pt1 Y2 2.977455 1_555
Pt1 Y1 3.122936 1_555
Pt1 Y0 3.122936 1_554
