# generated using pymatgen
data_Hf5Al16GaPt7
_symmetry_space_group_name_H-M   'P 1'
_cell_length_a   8.66327409
_cell_length_b   8.72662862
_cell_length_c   8.72662941
_cell_angle_alpha   59.52025885
_cell_angle_beta   60.23986663
_cell_angle_gamma   60.23987108
_symmetry_Int_Tables_number   1
_chemical_formula_structural   Hf5Al16GaPt7
_chemical_formula_sum   'Hf5 Al16 Ga1 Pt7'
_cell_volume   466.46022617
_cell_formula_units_Z   1
loop_
 _symmetry_equiv_pos_site_id
 _symmetry_equiv_pos_as_xyz
  1  'x, y, z'
loop_
 _atom_site_type_symbol
 _atom_site_label
 _atom_site_symmetry_multiplicity
 _atom_site_fract_x
 _atom_site_fract_y
 _atom_site_fract_z
 _atom_site_occupancy
  Hf  Hf0  1  0.32545394  0.67454606  0.67454606  1
  Hf  Hf1  1  0.29497797  0.70502203  0.29855672  1
  Hf  Hf2  1  0.70144328  0.29855672  0.70502203  1
  Hf  Hf3  1  0.29497797  0.29855672  0.70502203  1
  Hf  Hf4  1  0.70144328  0.70502203  0.29855672  1
  Al  Al0  1  0.36983716  0.33644604  0.33644604  1
  Al  Al1  1  0.67529835  0.65655685  0.65655685  1
  Al  Al2  1  0.34344315  0.32470165  0.98841205  1
  Al  Al3  1  0.34344315  0.98841205  0.32470165  1
  Al  Al4  1  0.66355396  0.63016284  0.04272824  1
  Al  Al5  1  0.66355396  0.04272824  0.63016284  1
  Al  Al6  1  0.95727176  0.33644604  0.33644604  1
  Al  Al7  1  0.01158795  0.65655685  0.65655685  1
  Al  Al8  1  0.11731809  0.11892855  0.11892855  1
  Al  Al9  1  0.88323586  0.87172108  0.87172108  1
  Al  Al10  1  0.12827892  0.11676414  0.62667902  1
  Al  Al11  1  0.12827892  0.62667902  0.11676414  1
  Al  Al12  1  0.88107145  0.88268191  0.35517519  1
  Al  Al13  1  0.88107145  0.35517519  0.88268191  1
  Al  Al14  1  0.64482481  0.11892855  0.11892855  1
  Al  Al15  1  0.37332098  0.87172108  0.87172108  1
  Ga  Ga0  1  0.56284307  0.43715693  0.43715693  1
  Pt  Pt0  1  0.51039464  0.98960536  0.98960536  1
  Pt  Pt1  1  0.01039464  0.48960536  0.48960536  1
  Pt  Pt2  1  0.01031616  0.49838983  0.98968384  1
  Pt  Pt3  1  0.50161017  0.98968384  0.49838983  1
  Pt  Pt4  1  0.01031616  0.98968384  0.49838983  1
  Pt  Pt5  1  0.50161017  0.49838983  0.98968384  1
  Pt  Pt6  1  0.00882561  0.99117439  0.99117439  1
loop_
_geom_bond_atom_site_label_1
_geom_bond_atom_site_label_2
_geom_bond_distance
_geom_bond_site_symmetry_2
Hf0 Pt3 3.131104 1_555
Hf0 Pt2 3.131104 1_555
Hf0 Pt4 3.131104 1_555
Hf0 Pt5 3.131104 1_555
Hf1 Pt0 3.119741 1_554
Hf1 Pt1 3.119741 1_555
Hf2 Pt0 3.119741 1_545
Hf2 Pt1 3.119741 1_655
Hf3 Pt0 3.119741 1_545
Hf3 Pt1 3.119741 1_555
Hf4 Pt0 3.119741 1_554
Hf4 Pt1 3.119741 1_655
Al0 Pt3 2.508243 1_545
Al0 Pt5 2.508243 1_554
Al0 Pt1 2.611165 1_555
Al0 Ga0 2.835823 1_555
Al1 Pt5 2.503808 1_555
Al1 Pt3 2.503808 1_555
Al1 Pt1 2.535469 1_655
Al1 Hf0 2.883636 1_555
Al2 Pt5 2.503808 1_555
Al2 Pt2 2.503809 1_555
Al2 Pt0 2.535468 1_545
Al2 Hf0 2.883635 1_555
Al3 Pt4 2.503808 1_555
Al3 Pt3 2.503809 1_555
Al3 Pt0 2.535469 1_554
Al3 Hf0 2.883635 1_555
Al4 Pt5 2.508237 1_554
Al4 Pt2 2.508245 1_654
Al4 Pt0 2.611166 1_554
Al4 Ga0 2.835830 1_555
Al5 Pt3 2.508237 1_545
Al5 Pt4 2.508245 1_645
Al5 Pt0 2.611166 1_545
Al5 Ga0 2.835829 1_555
Al6 Pt4 2.508244 1_645
Al6 Pt2 2.508244 1_654
Al6 Pt1 2.611159 1_655
Al6 Ga0 2.835831 1_555
Al7 Pt4 2.503808 1_555
Al7 Pt2 2.503808 1_555
Al7 Pt1 2.535469 1_555
Al7 Hf0 2.883636 1_555
Al8 Pt6 2.590494 1_544
Al8 Pt2 2.701588 1_554
Al8 Pt4 2.701588 1_545
Al8 Pt0 2.793780 1_544
Al9 Pt6 2.590625 1_655
Al9 Pt0 2.650628 1_555
Al9 Pt2 2.654790 1_655
Al9 Pt4 2.654790 1_655
Al9 Hf0 3.242484 1_655
Al10 Pt6 2.590618 1_545
Al10 Pt1 2.650628 1_555
Al10 Pt3 2.654791 1_545
Al10 Pt4 2.654798 1_545
Al10 Hf0 3.242485 1_545
Al11 Pt6 2.590618 1_554
Al11 Pt1 2.650628 1_555
Al11 Pt5 2.654791 1_554
Al11 Pt2 2.654798 1_554
Al11 Hf0 3.242485 1_554
Al12 Pt6 2.590494 1_654
Al12 Pt4 2.701588 1_655
Al12 Pt3 2.701588 1_555
Al12 Pt1 2.793779 1_655
Al13 Pt6 2.590494 1_645
Al13 Pt2 2.701588 1_655
Al13 Pt5 2.701588 1_555
Al13 Pt1 2.793780 1_655
Al14 Pt6 2.590494 1_644
Al14 Pt5 2.701588 1_554
Al14 Pt3 2.701588 1_545
Al14 Pt0 2.793780 1_544
Al15 Pt6 2.590618 1_555
Al15 Pt0 2.650636 1_555
Al15 Pt5 2.654790 1_555
Al15 Pt3 2.654790 1_555
Al15 Hf0 3.242478 1_555
Ga0 Hf4 2.616352 1_555
Ga0 Hf3 2.616352 1_555
Ga0 Hf1 2.616352 1_555
Ga0 Hf2 2.616352 1_555
Ga0 Hf0 2.950811 1_555
