# generated using pymatgen
data_Li3YAs6Ir7
_symmetry_space_group_name_H-M   'P 1'
_cell_length_a   6.90720914
_cell_length_b   7.05232870
_cell_length_c   7.05232676
_cell_angle_alpha   109.88429574
_cell_angle_beta   109.05490885
_cell_angle_gamma   109.05491745
_symmetry_Int_Tables_number   1
_chemical_formula_structural   Li3YAs6Ir7
_chemical_formula_sum   'Li3 Y1 As6 Ir7'
_cell_volume   265.79773634
_cell_formula_units_Z   1
loop_
 _symmetry_equiv_pos_site_id
 _symmetry_equiv_pos_as_xyz
  1  'x, y, z'
loop_
 _atom_site_type_symbol
 _atom_site_label
 _atom_site_symmetry_multiplicity
 _atom_site_fract_x
 _atom_site_fract_y
 _atom_site_fract_z
 _atom_site_occupancy
  Li  Li0  1  0.00000000  0.00000000  0.50000000  1
  Li  Li1  1  0.00000000  0.50000000  0.00000000  1
  Li  Li2  1  0.50000000  0.50000000  0.50000000  1
  Y  Y0  1  0.50000000  0.00000000  0.00000000  1
  As  As0  1  0.69350190  0.67893188  0.00000000  1
  As  As1  1  0.30649810  0.32106812  1.00000000  1
  As  As2  1  0.98543098  0.67893188  0.67893188  1
  As  As3  1  0.01456902  0.32106812  0.32106812  1
  As  As4  1  0.69350190  1.00000000  0.67893188  1
  As  As5  1  0.30649810  0.00000000  0.32106812  1
  Ir  Ir0  1  0.00000000  0.00000000  0.00000000  1
  Ir  Ir1  1  0.24814869  0.49629739  0.74814869  1
  Ir  Ir2  1  0.75185131  0.25185131  0.50370261  1
  Ir  Ir3  1  0.50000000  0.25185131  0.74814869  1
  Ir  Ir4  1  0.50000000  0.74814869  0.25185131  1
  Ir  Ir5  1  0.75185131  0.50370261  0.25185131  1
  Ir  Ir6  1  0.24814869  0.74814869  0.49629739  1
loop_
_geom_bond_atom_site_label_1
_geom_bond_atom_site_label_2
_geom_bond_distance
_geom_bond_site_symmetry_2
As0 Ir5 2.488997 1_555
As0 Ir3 2.488998 1_554
As0 Ir0 2.545364 1_665
As0 Ir4 2.562343 1_555
As0 Ir1 2.562343 1_554
As0 Li1 2.796172 1_655
As0 Li2 2.933803 1_554
As0 Li0 2.933804 1_665
As0 Y0 2.981507 1_565
As1 Ir1 2.488997 1_555
As1 Ir4 2.488998 1_556
As1 Ir0 2.545364 1_556
As1 Ir3 2.562343 1_555
As1 Ir5 2.562343 1_556
As1 Li1 2.796172 1_556
As1 Li2 2.933803 1_556
As1 Li0 2.933804 1_555
As1 Y0 2.981507 1_556
As2 Ir5 2.488998 1_555
As2 Ir2 2.488998 1_555
As2 Ir0 2.545368 1_666
As2 Ir6 2.562337 1_655
As2 Ir1 2.562338 1_655
As2 Li2 2.796178 1_555
As2 Li1 2.933804 1_656
As2 Li0 2.933804 1_665
As2 Y0 2.981502 1_666
As3 Ir1 2.488998 1_555
As3 Ir6 2.488998 1_555
As3 Ir0 2.545368 1_555
As3 Ir2 2.562337 1_455
As3 Ir5 2.562338 1_455
As3 Li2 2.796178 1_555
As3 Li1 2.933804 1_555
As3 Li0 2.933804 1_555
As3 Y0 2.981502 1_455
As4 Ir4 2.488997 1_555
As4 Ir2 2.488997 1_565
As4 Ir0 2.545364 1_666
As4 Ir6 2.562343 1_555
As4 Ir3 2.562344 1_565
As4 Li0 2.796171 1_665
As4 Li1 2.933804 1_666
As4 Li2 2.933804 1_555
As4 Y0 2.981507 1_566
As5 Ir3 2.488997 1_555
As5 Ir6 2.488997 1_545
As5 Ir0 2.545364 1_555
As5 Ir2 2.562343 1_555
As5 Ir4 2.562344 1_545
As5 Li0 2.796171 1_555
As5 Li1 2.933804 1_545
As5 Li2 2.933804 1_555
As5 Y0 2.981507 1_555
Ir1 Li2 2.842298 1_555
Ir1 Li1 2.842298 1_556
Ir1 Li0 2.865047 1_555
Ir1 Y0 2.907796 1_566
Ir2 Li2 2.842298 1_555
Ir2 Li0 2.842298 1_655
Ir2 Li1 2.865046 1_656
Ir2 Y0 2.907795 1_555
Ir3 Li1 2.842298 1_656
Ir3 Li0 2.842298 1_555
Ir3 Li2 2.865046 1_555
Ir3 Y0 2.907795 1_556
Ir4 Li1 2.842298 1_555
Ir4 Li0 2.842298 1_665
Ir4 Li2 2.865046 1_555
Ir4 Y0 2.907795 1_565
Ir5 Li2 2.842298 1_555
Ir5 Li1 2.842298 1_655
Ir5 Li0 2.865047 1_665
Ir5 Y0 2.907796 1_555
Ir6 Li2 2.842298 1_555
Ir6 Li0 2.842298 1_565
Ir6 Li1 2.865046 1_555
Ir6 Y0 2.907795 1_566
