# generated using pymatgen
data_Zn2InSnRh4
_symmetry_space_group_name_H-M   'P 1'
_cell_length_a   7.61371454
_cell_length_b   7.61371457
_cell_length_c   7.61371503
_cell_angle_alpha   33.51734046
_cell_angle_beta   33.51734022
_cell_angle_gamma   33.51734068
_symmetry_Int_Tables_number   1
_chemical_formula_structural   Zn2InSnRh4
_chemical_formula_sum   'Zn2 In1 Sn1 Rh4'
_cell_volume   119.86164319
_cell_formula_units_Z   1
loop_
 _symmetry_equiv_pos_site_id
 _symmetry_equiv_pos_as_xyz
  1  'x, y, z'
loop_
 _atom_site_type_symbol
 _atom_site_label
 _atom_site_symmetry_multiplicity
 _atom_site_fract_x
 _atom_site_fract_y
 _atom_site_fract_z
 _atom_site_occupancy
  Zn  Zn0  1  0.25233692  0.25233692  0.25233692  1
  Zn  Zn1  1  0.74766308  0.74766308  0.74766308  1
  In  In0  1  0.00000000  0.00000000  0.00000000  1
  Sn  Sn0  1  0.50000000  0.50000000  0.50000000  1
  Rh  Rh0  1  0.62311305  0.62311305  0.62311305  1
  Rh  Rh1  1  0.12673819  0.12673819  0.12673819  1
  Rh  Rh2  1  0.87326181  0.87326181  0.87326181  1
  Rh  Rh3  1  0.37688695  0.37688695  0.37688695  1
loop_
_geom_bond_atom_site_label_1
_geom_bond_atom_site_label_2
_geom_bond_distance
_geom_bond_site_symmetry_2
In0 Rh3 2.702964 1_554
In0 Rh0 2.702964 1_445
In0 Rh3 2.702964 1_455
In0 Rh0 2.702964 1_544
In0 Rh3 2.702964 1_545
In0 Rh0 2.702964 1_454
In0 Rh1 2.729681 1_555
In0 Rh2 2.729681 1_444
Rh0 Sn0 2.651603 1_555
Rh0 Zn0 2.660153 1_556
Rh0 Zn0 2.660153 1_655
Rh0 Zn0 2.660153 1_565
Rh0 Zn1 2.682552 1_555
Rh1 Sn0 2.676869 1_554
Rh1 Sn0 2.676869 1_455
Rh1 Sn0 2.676869 1_545
Rh1 Zn0 2.705139 1_555
Rh1 Zn1 2.719679 1_445
Rh1 Zn1 2.719679 1_544
Rh1 Zn1 2.719679 1_454
Rh2 Sn0 2.676869 1_556
Rh2 Sn0 2.676869 1_655
Rh2 Sn0 2.676869 1_565
Rh2 Zn1 2.705139 1_555
Rh2 Zn0 2.719679 1_665
Rh2 Zn0 2.719679 1_566
Rh2 Zn0 2.719679 1_656
Rh3 Sn0 2.651603 1_555
Rh3 Zn1 2.660153 1_554
Rh3 Zn1 2.660153 1_455
Rh3 Zn1 2.660153 1_545
Rh3 Zn0 2.682552 1_555
