# generated using pymatgen
data_Sc6Al13Os7W3
_symmetry_space_group_name_H-M   'P 1'
_cell_length_a   8.77443346
_cell_length_b   8.77443377
_cell_length_c   8.77443389
_cell_angle_alpha   59.76790495
_cell_angle_beta   59.76790291
_cell_angle_gamma   59.76790024
_symmetry_Int_Tables_number   1
_chemical_formula_structural   Sc6Al13Os7W3
_chemical_formula_sum   'Sc6 Al13 Os7 W3'
_cell_volume   475.16842346
_cell_formula_units_Z   1
loop_
 _symmetry_equiv_pos_site_id
 _symmetry_equiv_pos_as_xyz
  1  'x, y, z'
loop_
 _atom_site_type_symbol
 _atom_site_label
 _atom_site_symmetry_multiplicity
 _atom_site_fract_x
 _atom_site_fract_y
 _atom_site_fract_z
 _atom_site_occupancy
  Sc  Sc0  1  0.71105022  0.71105022  0.28220777  1
  Sc  Sc1  1  0.29119271  0.71005569  0.29119271  1
  Sc  Sc2  1  0.71005569  0.29119271  0.29119271  1
  Sc  Sc3  1  0.29119271  0.29119271  0.71005569  1
  Sc  Sc4  1  0.71105022  0.28220777  0.71105022  1
  Sc  Sc5  1  0.28220777  0.71105022  0.71105022  1
  Al  Al0  1  0.88032199  0.88032199  0.88032199  1
  Al  Al1  1  0.12076660  0.12076660  0.63758436  1
  Al  Al2  1  0.12076660  0.63758436  0.12076660  1
  Al  Al3  1  0.63758436  0.12076660  0.12076660  1
  Al  Al4  1  0.12252355  0.12252355  0.12252355  1
  Al  Al5  1  0.66623222  0.66623222  0.00848721  1
  Al  Al6  1  0.66623222  0.00848721  0.66623222  1
  Al  Al7  1  0.00848721  0.66623222  0.66623222  1
  Al  Al8  1  0.65665976  0.65665976  0.65665976  1
  Al  Al9  1  0.33356228  0.33356228  0.00205537  1
  Al  Al10  1  0.33356228  0.00205537  0.33356228  1
  Al  Al11  1  0.00205537  0.33356228  0.33356228  1
  Al  Al12  1  0.33423740  0.33423740  0.33423740  1
  Os  Os0  1  0.00434525  0.00434525  0.00434525  1
  Os  Os1  1  0.99737258  0.99737258  0.49653029  1
  Os  Os2  1  0.50561544  0.99511764  0.50561544  1
  Os  Os3  1  0.99511764  0.50561544  0.50561544  1
  Os  Os4  1  0.50561544  0.50561544  0.99511764  1
  Os  Os5  1  0.99737258  0.49653029  0.99737258  1
  Os  Os6  1  0.49653029  0.99737258  0.99737258  1
  W  W0  1  0.87680380  0.87680380  0.36468400  1
  W  W1  1  0.87680380  0.36468400  0.87680380  1
  W  W2  1  0.36468400  0.87680380  0.87680380  1
loop_
_geom_bond_atom_site_label_1
_geom_bond_atom_site_label_2
_geom_bond_distance
_geom_bond_site_symmetry_2
Sc0 W0 3.000685 1_555
Sc1 W0 3.001501 1_455
Sc1 W2 3.001501 1_554
Sc2 W0 3.001501 1_545
Sc2 W1 3.001501 1_554
Sc3 W1 3.001501 1_455
Sc3 W2 3.001501 1_545
Sc4 W1 3.000685 1_555
Sc5 W2 3.000686 1_555
Al0 Os0 2.670284 1_666
Al0 Os6 2.747097 1_555
Al0 Os5 2.747097 1_555
Al0 Os1 2.747097 1_555
Al0 Al6 2.760651 1_565
Al0 Al7 2.760651 1_655
Al0 Al5 2.760651 1_556
Al0 Sc5 2.918900 1_655
Al0 Sc4 2.918900 1_565
Al0 Sc0 2.918900 1_556
Al0 Al3 2.978395 1_566
Al0 Al2 2.978395 1_656
Al0 Al1 2.978395 1_665
Al1 Os0 2.621696 1_556
Al1 Al10 2.740677 1_555
Al1 Al11 2.740677 1_555
Al1 Os2 2.749232 1_545
Al1 Os3 2.749232 1_455
Al1 Al12 2.755634 1_555
Al1 Os1 2.784906 1_445
Al1 Sc4 2.967157 1_455
Al1 Sc5 2.967157 1_545
Al1 W1 2.992387 1_455
Al1 W2 2.992387 1_545
Al1 Sc3 3.007289 1_555
Al2 Os0 2.621695 1_565
Al2 Al9 2.740677 1_555
Al2 Os4 2.749232 1_554
Al2 Os3 2.749232 1_455
Al2 Os5 2.784906 1_454
Al2 Sc0 2.967157 1_455
Al2 Sc5 2.967157 1_554
Al2 W0 2.992387 1_455
Al2 W2 2.992387 1_554
Al2 Sc1 3.007289 1_555
Al3 Os0 2.621695 1_655
Al3 Al9 2.740677 1_555
Al3 Os4 2.749232 1_554
Al3 Os2 2.749232 1_545
Al3 Os6 2.784906 1_544
Al3 Sc0 2.967157 1_545
Al3 Sc4 2.967157 1_554
Al3 W0 2.992387 1_545
Al3 W1 2.992387 1_554
Al3 Sc2 3.007289 1_555
Al4 Os0 2.544439 1_555
Al4 Os6 2.671645 1_544
Al4 Os5 2.671645 1_454
Al4 Os1 2.671645 1_445
Al4 Al9 2.736069 1_555
Al4 Sc2 2.982799 1_455
Al4 Sc1 2.982800 1_545
Al4 Sc3 2.982800 1_554
Al4 W2 3.044086 1_544
Al4 W1 3.044086 1_454
Al4 W0 3.044086 1_445
Al5 Os5 2.484580 1_554
Al5 Os6 2.484580 1_554
Al5 Os4 2.513805 1_554
Al5 W2 2.784882 1_554
Al5 W1 2.784882 1_554
Al5 Sc0 2.852300 1_555
Al5 Sc1 2.931948 1_555
Al5 Sc2 2.931948 1_555
Al6 Os1 2.484580 1_545
Al6 Os6 2.484580 1_545
Al6 Os2 2.513805 1_545
Al6 W0 2.784882 1_545
Al6 W2 2.784882 1_545
Al6 Sc4 2.852300 1_555
Al6 Sc3 2.931948 1_555
Al6 Sc2 2.931948 1_555
Al7 Os1 2.484580 1_455
Al7 Os5 2.484580 1_455
Al7 Os3 2.513805 1_455
Al7 W0 2.784882 1_455
Al7 W1 2.784882 1_455
Al7 Sc5 2.852300 1_555
Al7 Sc3 2.931948 1_555
Al7 Sc1 2.931948 1_555
Al8 Os3 2.484822 1_555
Al8 Os2 2.484822 1_555
Al8 Os4 2.484823 1_555
Al8 W2 2.795801 1_555
Al8 W1 2.795801 1_555
Al8 W0 2.795801 1_555
Al8 Sc5 2.884792 1_555
Al8 Sc4 2.884792 1_555
Al8 Sc0 2.884792 1_555
Al9 Os5 2.561905 1_454
Al9 Os6 2.561905 1_544
Al9 Os4 2.583000 1_554
Al9 Sc4 2.971998 1_554
Al9 Sc5 2.971999 1_554
Al9 Sc3 2.983038 1_554
Al10 Os1 2.561905 1_445
Al10 Os6 2.561905 1_544
Al10 Os2 2.583000 1_545
Al10 Al4 2.736069 1_555
Al10 Al3 2.740677 1_555
Al10 Sc0 2.971998 1_545
Al10 Sc5 2.971999 1_545
Al10 Sc1 2.983038 1_545
Al11 Os1 2.561905 1_445
Al11 Os5 2.561905 1_454
Al11 Os3 2.583000 1_455
Al11 Al4 2.736069 1_555
Al11 Al2 2.740677 1_555
Al11 Sc0 2.971998 1_455
Al11 Sc4 2.971999 1_455
Al11 Sc2 2.983038 1_455
Al12 Os3 2.577196 1_455
Al12 Os2 2.577196 1_545
Al12 Os4 2.577196 1_554
Al12 Al3 2.755633 1_555
Al12 Al2 2.755634 1_555
Al12 Sc2 2.965579 1_555
Al12 Sc1 2.965580 1_555
Al12 Sc3 2.965580 1_555
Os0 W2 2.576130 1_544
Os0 W1 2.576131 1_454
Os0 W0 2.576131 1_445
Os1 W0 2.677449 1_555
Os1 Sc1 3.098369 1_655
Os1 Sc2 3.098369 1_565
Os1 Sc4 3.123044 1_565
Os1 Sc5 3.123044 1_655
Os2 W0 2.654588 1_555
Os2 W2 2.654588 1_555
Os2 Sc3 3.143076 1_565
Os2 Sc2 3.143076 1_565
Os2 Sc0 3.184680 1_555
Os2 Sc5 3.184681 1_555
Os3 W0 2.654588 1_555
Os3 W1 2.654588 1_555
Os3 Sc3 3.143076 1_655
Os3 Sc1 3.143076 1_655
Os3 Sc0 3.184680 1_555
Os3 Sc4 3.184681 1_555
Os4 W1 2.654588 1_555
Os4 W2 2.654588 1_555
Os4 Sc1 3.143076 1_556
Os4 Sc2 3.143076 1_556
Os4 Sc4 3.184680 1_555
Os4 Sc5 3.184680 1_555
Os5 W1 2.677449 1_555
Os5 Sc3 3.098369 1_655
Os5 Sc2 3.098369 1_556
Os5 Sc0 3.123044 1_556
Os5 Sc5 3.123044 1_655
Os6 W2 2.677449 1_555
Os6 Sc3 3.098369 1_565
Os6 Sc1 3.098369 1_556
Os6 Sc0 3.123044 1_556
Os6 Sc4 3.123044 1_565
