# generated using pymatgen
data_Os7WO24
_symmetry_space_group_name_H-M   'P 1'
_cell_length_a   7.50338271
_cell_length_b   7.50388230
_cell_length_c   7.50554338
_cell_angle_alpha   90.01436830
_cell_angle_beta   89.99652439
_cell_angle_gamma   89.99854323
_symmetry_Int_Tables_number   1
_chemical_formula_structural   Os7WO24
_chemical_formula_sum   'Os7 W1 O24'
_cell_volume   422.59585783
_cell_formula_units_Z   1
loop_
 _symmetry_equiv_pos_site_id
 _symmetry_equiv_pos_as_xyz
  1  'x, y, z'
loop_
 _atom_site_type_symbol
 _atom_site_label
 _atom_site_symmetry_multiplicity
 _atom_site_fract_x
 _atom_site_fract_y
 _atom_site_fract_z
 _atom_site_occupancy
  Os  Os0  1  0.75000047  0.49992575  0.24995458  1
  Os  Os1  1  0.24999447  0.50008923  0.24996976  1
  Os  Os2  1  0.74999048  0.99992134  0.25013543  1
  Os  Os3  1  0.24998578  0.00009478  0.24998001  1
  Os  Os4  1  0.25001204  0.50008624  0.74997424  1
  Os  Os5  1  0.75001571  0.49987925  0.74995384  1
  Os  Os6  1  0.24999571  0.00009050  0.74998601  1
  W  W0  1  0.75000760  0.99985199  0.75016223  1
  O  O0  1  0.75198821  0.50018355  0.50177556  1
  O  O1  1  0.25201211  0.50012176  0.99952842  1
  O  O2  1  0.74149342  0.00006257  0.00015293  1
  O  O3  1  0.24229662  0.00023335  0.50166601  1
  O  O4  1  0.24801109  0.50017048  0.50040098  1
  O  O5  1  0.74803931  0.49956326  0.99815320  1
  O  O6  1  0.25770116  0.00003071  0.99830708  1
  O  O7  1  0.75848348  0.99967091  0.50001237  1
  O  O8  1  0.49932829  0.98785998  0.74158335  1
  O  O9  1  0.00066801  0.01215057  0.75848374  1
  O  O10  1  0.99861974  0.48900230  0.75186501  1
  O  O11  1  0.50141929  0.51096666  0.74803850  1
  O  O12  1  0.50137344  0.00042929  0.25774972  1
  O  O13  1  0.99859744  0.99958606  0.24234220  1
  O  O14  1  0.99956354  0.50047364  0.24793089  1
  O  O15  1  0.50043285  0.49955293  0.25196091  1
  O  O16  1  0.75041120  0.24815644  0.25028192  1
  O  O17  1  0.26100929  0.24845740  0.74978995  1
  O  O18  1  0.73791806  0.25007603  0.74951424  1
  O  O19  1  0.23900012  0.75171068  0.75013588  1
  O  O20  1  0.24950614  0.24967451  0.24991340  1
  O  O21  1  0.74955225  0.75170519  0.24978859  1
  O  O22  1  0.25046255  0.75050635  0.24999034  1
  O  O23  1  0.76211112  0.74971628  0.75051871  1
loop_
_geom_bond_atom_site_label_1
_geom_bond_atom_site_label_2
_geom_bond_distance
_geom_bond_site_symmetry_2
O0 Os5 1.862773 1_555
O0 Os0 1.890114 1_555
O1 Os4 1.873101 1_555
O1 Os1 1.879759 1_556
O2 Os2 1.877342 1_545
O2 W0 1.877400 1_544
O3 Os6 1.864676 1_555
O3 Os3 1.889918 1_555
O4 Os4 1.873244 1_555
O4 Os1 1.879680 1_555
O5 Os5 1.862931 1_555
O5 Os0 1.889966 1_556
O6 Os6 1.864685 1_555
O6 Os3 1.889825 1_556
O7 Os2 1.876550 1_555
O7 W0 1.878584 1_555
O8 Os6 1.874142 1_565
O8 W0 1.884200 1_555
O9 Os6 1.874067 1_555
O9 W0 1.884105 1_445
O10 Os5 1.867210 1_555
O10 Os4 1.888180 1_655
O11 Os5 1.867223 1_555
O11 Os4 1.888228 1_555
O12 Os2 1.866344 1_545
O12 Os3 1.887164 1_555
O13 Os2 1.866308 1_555
O13 Os3 1.887141 1_665
O14 Os0 1.872632 1_555
O14 Os1 1.879145 1_655
O15 Os0 1.872663 1_555
O15 Os1 1.879200 1_555
O16 Os2 1.862730 1_545
O16 Os0 1.889252 1_555
O17 Os6 1.865550 1_555
O17 Os4 1.889993 1_555
O18 Os5 1.876695 1_555
O18 W0 1.879847 1_545
O19 Os6 1.865641 1_565
O19 Os4 1.889965 1_555
O20 Os3 1.872820 1_555
O20 Os1 1.879086 1_555
O21 Os2 1.862589 1_555
O21 Os0 1.889327 1_555
O22 Os3 1.872886 1_565
O22 Os1 1.879104 1_555
O23 Os5 1.876949 1_555
O23 W0 1.879185 1_555
