# generated using pymatgen
data_PrSnAu
_symmetry_space_group_name_H-M   'P 1'
_cell_length_a   4.75955361
_cell_length_b   4.75955431
_cell_length_c   7.80346909
_cell_angle_alpha   90.00000000
_cell_angle_beta   90.00000000
_cell_angle_gamma   120.00000218
_symmetry_Int_Tables_number   1
_chemical_formula_structural   PrSnAu
_chemical_formula_sum   'Pr2 Sn2 Au2'
_cell_volume   153.09141813
_cell_formula_units_Z   2
loop_
 _symmetry_equiv_pos_site_id
 _symmetry_equiv_pos_as_xyz
  1  'x, y, z'
loop_
 _atom_site_type_symbol
 _atom_site_label
 _atom_site_symmetry_multiplicity
 _atom_site_fract_x
 _atom_site_fract_y
 _atom_site_fract_z
 _atom_site_occupancy
  Pr  Pr0  1  -0.00000000  -0.00000000  0.24780590  1
  Pr  Pr1  1  -0.00000000  -0.00000000  0.74780590  1
  Sn  Sn0  1  0.66666700  0.33333300  0.97295624  1
  Sn  Sn1  1  0.33333300  0.66666700  0.47295624  1
  Au  Au0  1  0.33333300  0.66666700  0.06153787  1
  Au  Au1  1  0.66666700  0.33333300  0.56153787  1
loop_
_geom_bond_atom_site_label_1
_geom_bond_atom_site_label_2
_geom_bond_distance
_geom_bond_site_symmetry_2
Pr0 Sn1 3.261593 1_545
Pr0 Sn1 3.261596 1_445
Pr0 Sn1 3.261597 1_555
Pr0 Sn0 3.485855 1_454
Pr0 Sn0 3.485858 1_554
Pr0 Sn0 3.485859 1_444
Pr0 Pr1 3.901735 1_555
Pr0 Pr1 3.901735 1_554
Pr1 Sn0 3.261593 1_455
Pr1 Sn0 3.261596 1_555
Pr1 Sn0 3.261597 1_445
Pr1 Sn1 3.485855 1_545
Pr1 Sn1 3.485858 1_445
Pr1 Sn1 3.485859 1_555
Au0 Sn0 2.833535 1_454
Au0 Sn0 2.833535 1_564
Au0 Sn0 2.833543 1_554
Au0 Pr0 3.108677 1_565
Au0 Pr0 3.108680 1_665
Au0 Pr0 3.108681 1_555
Au0 Sn1 3.210491 1_555
Au0 Pr1 3.680323 1_564
Au0 Pr1 3.680326 1_664
Au0 Pr1 3.680326 1_554
Au1 Sn1 2.833535 1_655
Au1 Sn1 2.833535 1_545
Au1 Sn1 2.833543 1_555
Au1 Pr1 3.108677 1_655
Au1 Pr1 3.108680 1_555
Au1 Pr1 3.108681 1_665
Au1 Sn0 3.210491 1_555
Au1 Pr0 3.680323 1_655
Au1 Pr0 3.680326 1_555
Au1 Pr0 3.680326 1_665
