# generated using pymatgen
data_YTa2Nb7N12
_symmetry_space_group_name_H-M   'P 1'
_cell_length_a   5.29528267
_cell_length_b   5.29528202
_cell_length_c   10.52854561
_cell_angle_alpha   90.00000000
_cell_angle_beta   90.00000000
_cell_angle_gamma   120.00000409
_symmetry_Int_Tables_number   1
_chemical_formula_structural   YTa2Nb7N12
_chemical_formula_sum   'Y1 Ta2 Nb7 N12'
_cell_volume   255.66850977
_cell_formula_units_Z   1
loop_
 _symmetry_equiv_pos_site_id
 _symmetry_equiv_pos_as_xyz
  1  'x, y, z'
loop_
 _atom_site_type_symbol
 _atom_site_label
 _atom_site_symmetry_multiplicity
 _atom_site_fract_x
 _atom_site_fract_y
 _atom_site_fract_z
 _atom_site_occupancy
  Y  Y0  1  0.33333300  0.66666700  0.50000000  1
  Ta  Ta0  1  0.66666700  0.33333300  0.00000000  1
  Ta  Ta1  1  0.66666700  0.33333300  0.50000000  1
  Nb  Nb0  1  0.33333300  0.66666700  0.00000000  1
  Nb  Nb1  1  0.67506011  0.99712559  0.75463303  1
  Nb  Nb2  1  0.67506011  0.67793452  0.24536697  1
  Nb  Nb3  1  0.00287441  0.32493989  0.24536697  1
  Nb  Nb4  1  0.00287441  0.67793452  0.75463303  1
  Nb  Nb5  1  0.32206548  0.32493989  0.75463303  1
  Nb  Nb6  1  0.32206548  0.99712559  0.24536697  1
  N  N0  1  0.35515356  0.33464402  0.37124171  1
  N  N1  1  0.66535598  0.02050854  0.37124171  1
  N  N2  1  0.97949146  0.64484644  0.37124171  1
  N  N3  1  0.99546576  0.34110309  0.88282509  1
  N  N4  1  0.65889691  0.00453424  0.11717491  1
  N  N5  1  0.65889691  0.65436367  0.88282509  1
  N  N6  1  0.34563633  0.00453424  0.88282509  1
  N  N7  1  0.66535598  0.64484644  0.62875829  1
  N  N8  1  0.97949146  0.33464402  0.62875829  1
  N  N9  1  0.99546576  0.65436367  0.11717491  1
  N  N10  1  0.35515356  0.02050854  0.62875829  1
  N  N11  1  0.34563633  0.34110309  0.11717491  1
loop_
_geom_bond_atom_site_label_1
_geom_bond_atom_site_label_2
_geom_bond_distance
_geom_bond_site_symmetry_2
N0 Ta1 2.137820 1_555
N0 Nb6 2.160601 1_545
N0 Nb2 2.202515 1_555
N0 Nb3 2.267803 1_555
N0 Y0 2.268339 1_555
N1 Ta1 2.137820 1_555
N1 Nb3 2.160603 1_655
N1 Nb6 2.202517 1_545
N1 Nb2 2.267798 1_545
N1 Y0 2.268334 1_545
N2 Ta1 2.137820 1_555
N2 Nb2 2.160605 1_555
N2 Nb3 2.202513 1_655
N2 Nb6 2.267800 1_655
N2 Y0 2.268331 1_655
N3 Ta0 2.117403 1_556
N3 Nb0 2.147217 1_656
N3 Nb1 2.219811 1_545
N3 Nb4 2.221369 1_655
N3 Nb5 2.228885 1_655
N4 Ta0 2.117402 1_555
N4 Nb0 2.147217 1_545
N4 Nb3 2.219811 1_655
N4 Nb6 2.221370 1_545
N4 Nb2 2.228884 1_545
N5 Ta0 2.117411 1_556
N5 Nb0 2.147217 1_556
N5 Nb4 2.219813 1_655
N5 Nb5 2.221372 1_555
N5 Nb1 2.228880 1_555
N6 Ta0 2.117407 1_556
N6 Nb0 2.147217 1_546
N6 Nb5 2.219809 1_555
N6 Nb1 2.221374 1_545
N6 Nb4 2.228882 1_545
N7 Ta1 2.137820 1_555
N7 Nb4 2.160601 1_655
N7 Nb5 2.202515 1_555
N7 Nb1 2.267802 1_555
N7 Y0 2.268339 1_555
N8 Ta1 2.137820 1_555
N8 Nb1 2.160603 1_545
N8 Nb4 2.202517 1_655
N8 Nb5 2.267798 1_655
N8 Y0 2.268334 1_655
N9 Ta0 2.117407 1_555
N9 Nb0 2.147217 1_655
N9 Nb2 2.219809 1_555
N9 Nb3 2.221374 1_655
N9 Nb6 2.228882 1_655
N10 Ta1 2.137820 1_555
N10 Nb5 2.160605 1_555
N10 Nb1 2.202513 1_545
N10 Nb4 2.267800 1_545
N10 Y0 2.268331 1_545
N11 Ta0 2.117411 1_555
N11 Nb0 2.147217 1_555
N11 Nb6 2.219813 1_545
N11 Nb2 2.221372 1_555
N11 Nb3 2.228880 1_555
