# generated using pymatgen
data_Cs2CaCdAs2
_symmetry_space_group_name_H-M   'P 1'
_cell_length_a   4.86574635
_cell_length_b   4.86574635
_cell_length_c   8.62007132
_cell_angle_alpha   90.00000000
_cell_angle_beta   90.00000000
_cell_angle_gamma   90.00000000
_symmetry_Int_Tables_number   1
_chemical_formula_structural   Cs2CaCdAs2
_chemical_formula_sum   'Cs2 Ca1 Cd1 As2'
_cell_volume   204.08439102
_cell_formula_units_Z   1
loop_
 _symmetry_equiv_pos_site_id
 _symmetry_equiv_pos_as_xyz
  1  'x, y, z'
loop_
 _atom_site_type_symbol
 _atom_site_label
 _atom_site_symmetry_multiplicity
 _atom_site_fract_x
 _atom_site_fract_y
 _atom_site_fract_z
 _atom_site_occupancy
  Cs  Cs0  1  0.00000000  0.50000000  0.35888126  1
  Cs  Cs1  1  0.50000000  0.00000000  0.64111874  1
  Ca  Ca0  1  0.00000000  0.00000000  0.00000000  1
  Cd  Cd0  1  0.50000000  0.50000000  0.00000000  1
  As  As0  1  0.50000000  0.00000000  0.18216724  1
  As  As1  1  0.00000000  0.50000000  0.81783276  1
loop_
_geom_bond_atom_site_label_1
_geom_bond_atom_site_label_2
_geom_bond_distance
_geom_bond_site_symmetry_2
As0 Ca0 2.895634 1_555
As0 Cd0 2.895634 1_545
As0 Cd0 2.895634 1_555
As0 Ca0 2.895634 1_655
As0 Cs0 3.762732 1_555
As0 Cs0 3.762732 1_545
As0 Cs0 3.762732 1_645
As0 Cs0 3.762732 1_655
As0 Cs1 3.956195 1_555
As1 Cd0 2.895634 1_456
As1 Ca0 2.895634 1_556
As1 Ca0 2.895634 1_566
As1 Cd0 2.895634 1_556
As1 Cs1 3.762732 1_555
As1 Cs1 3.762732 1_565
As1 Cs1 3.762732 1_465
As1 Cs1 3.762732 1_455
As1 Cs0 3.956195 1_555
