# generated using pymatgen
data_Li2Zr6BBr15
_symmetry_space_group_name_H-M   'P 1'
_cell_length_a   9.34834875
_cell_length_b   9.34834842
_cell_length_c   9.34834872
_cell_angle_alpha   108.44788850
_cell_angle_beta   108.44789366
_cell_angle_gamma   111.53785681
_symmetry_Int_Tables_number   1
_chemical_formula_structural   Li2Zr6BBr15
_chemical_formula_sum   'Li2 Zr6 B1 Br15'
_cell_volume   628.28563406
_cell_formula_units_Z   1
loop_
 _symmetry_equiv_pos_site_id
 _symmetry_equiv_pos_as_xyz
  1  'x, y, z'
loop_
 _atom_site_type_symbol
 _atom_site_label
 _atom_site_symmetry_multiplicity
 _atom_site_fract_x
 _atom_site_fract_y
 _atom_site_fract_z
 _atom_site_occupancy
  Li  Li0  1  0.25000000  0.75000000  0.50000000  1
  Li  Li1  1  0.75000000  0.25000000  0.50000000  1
  Zr  Zr0  1  0.77568938  0.77568938  1.00000000  1
  Zr  Zr1  1  0.00000000  0.21233630  0.21233630  1
  Zr  Zr2  1  0.21233630  1.00000000  0.21233630  1
  Zr  Zr3  1  0.22431062  0.22431062  0.00000000  1
  Zr  Zr4  1  1.00000000  0.78766370  0.78766370  1
  Zr  Zr5  1  0.78766370  0.00000000  0.78766370  1
  B  B0  1  0.00000000  0.00000000  0.00000000  1
  Br  Br0  1  0.50000000  0.50000000  0.00000000  1
  Br  Br1  1  0.00000000  0.50000000  0.50000000  1
  Br  Br2  1  0.50000000  0.00000000  0.50000000  1
  Br  Br3  1  0.24319260  0.24319260  0.48638520  1
  Br  Br4  1  0.99231737  0.74668231  0.24563506  1
  Br  Br5  1  0.74668231  0.99231737  0.24563506  1
  Br  Br6  1  0.24319260  0.75680740  0.00000000  1
  Br  Br7  1  0.49895275  0.25331769  0.24563506  1
  Br  Br8  1  0.25331769  0.00768263  0.75436494  1
  Br  Br9  1  0.75680740  0.24319260  1.00000000  1
  Br  Br10  1  0.00768263  0.25331769  0.75436494  1
  Br  Br11  1  0.25331769  0.49895275  0.24563506  1
  Br  Br12  1  0.75680740  0.75680740  0.51361480  1
  Br  Br13  1  0.50104725  0.74668231  0.75436494  1
  Br  Br14  1  0.74668231  0.50104725  0.75436494  1
loop_
_geom_bond_atom_site_label_1
_geom_bond_atom_site_label_2
_geom_bond_distance
_geom_bond_site_symmetry_2
B0 Zr2 2.320929 1_545
B0 Zr5 2.320929 1_454
B0 Zr1 2.320929 1_555
B0 Zr4 2.320929 1_444
B0 Zr3 2.359184 1_555
B0 Zr0 2.359184 1_444
Br0 Zr0 2.899560 1_554
Br0 Zr3 2.899560 1_555
Br1 Li0 2.629372 1_555
Br1 Li1 2.629372 1_455
Br1 Zr4 3.144290 1_455
Br1 Zr1 3.144290 1_555
Br2 Li0 2.629372 1_545
Br2 Li1 2.629372 1_555
Br2 Zr5 3.144290 1_555
Br2 Zr2 3.144290 1_545
Br3 Zr1 2.679513 1_555
Br3 Zr2 2.679513 1_545
Br4 Zr2 2.689012 1_655
Br4 Zr0 2.702176 1_554
Br4 Li0 2.780539 1_655
Br5 Zr1 2.689012 1_665
Br5 Zr0 2.702176 1_554
Br5 Li1 2.780539 1_565
Br6 Zr4 2.679513 1_454
Br6 Zr2 2.679513 1_555
Br7 Zr2 2.689012 1_545
Br7 Zr3 2.702176 1_555
Br7 Li1 2.780539 1_555
Br8 Zr4 2.689012 1_445
Br8 Zr3 2.702176 1_556
Br8 Li0 2.780539 1_545
Br9 Zr1 2.679513 1_656
Br9 Zr5 2.679513 1_555
Br10 Zr5 2.689012 1_455
Br10 Zr3 2.702176 1_556
Br10 Li1 2.780539 1_455
Br11 Zr1 2.689012 1_555
Br11 Zr3 2.702176 1_555
Br11 Li0 2.780539 1_555
Br12 Zr4 2.679513 1_555
Br12 Zr5 2.679513 1_565
Br13 Zr5 2.689012 1_565
Br13 Zr0 2.702176 1_555
Br13 Li0 2.780539 1_555
Br14 Zr4 2.689012 1_555
Br14 Zr0 2.702176 1_555
Br14 Li1 2.780539 1_555
