# generated using pymatgen
data_Ta3Al2BIr
_symmetry_space_group_name_H-M   'P 1'
_cell_length_a   8.33301560
_cell_length_b   8.33301529
_cell_length_c   8.33301429
_cell_angle_alpha   60.00000008
_cell_angle_beta   60.00000133
_cell_angle_gamma   59.99999964
_symmetry_Int_Tables_number   1
_chemical_formula_structural   Ta3Al2BIr
_chemical_formula_sum   'Ta12 Al8 B4 Ir4'
_cell_volume   409.15843201
_cell_formula_units_Z   4
loop_
 _symmetry_equiv_pos_site_id
 _symmetry_equiv_pos_as_xyz
  1  'x, y, z'
loop_
 _atom_site_type_symbol
 _atom_site_label
 _atom_site_symmetry_multiplicity
 _atom_site_fract_x
 _atom_site_fract_y
 _atom_site_fract_z
 _atom_site_occupancy
  Ta  Ta0  1  0.55754036  0.94245964  0.55754036  1
  Ta  Ta1  1  0.30754036  0.69245964  0.69245964  1
  Ta  Ta2  1  0.69245964  0.30754036  0.30754036  1
  Ta  Ta3  1  0.30754036  0.69245964  0.30754036  1
  Ta  Ta4  1  0.69245964  0.69245964  0.30754036  1
  Ta  Ta5  1  0.30754036  0.30754036  0.69245964  1
  Ta  Ta6  1  0.55754036  0.55754036  0.94245964  1
  Ta  Ta7  1  0.94245964  0.55754036  0.55754036  1
  Ta  Ta8  1  0.55754036  0.94245964  0.94245964  1
  Ta  Ta9  1  0.94245964  0.94245964  0.55754036  1
  Ta  Ta10  1  0.69245964  0.30754036  0.69245964  1
  Ta  Ta11  1  0.94245964  0.55754036  0.94245964  1
  Al  Al0  1  0.91659564  0.91659564  0.91659564  1
  Al  Al1  1  0.99978492  0.33340436  0.33340436  1
  Al  Al2  1  0.33340436  0.99978492  0.33340436  1
  Al  Al3  1  0.33340436  0.33340436  0.99978492  1
  Al  Al4  1  0.91659564  0.25021508  0.91659564  1
  Al  Al5  1  0.91659564  0.91659564  0.25021508  1
  Al  Al6  1  0.25021508  0.91659564  0.91659564  1
  Al  Al7  1  0.33340436  0.33340436  0.33340436  1
  B  B0  1  0.62500000  0.62500000  0.62500000  1
  B  B1  1  0.12500000  0.62500000  0.62500000  1
  B  B2  1  0.62500000  0.12500000  0.62500000  1
  B  B3  1  0.62500000  0.62500000  0.12500000  1
  Ir  Ir0  1  0.12500000  0.12500000  0.12500000  1
  Ir  Ir1  1  0.62500000  0.12500000  0.12500000  1
  Ir  Ir2  1  0.12500000  0.62500000  0.12500000  1
  Ir  Ir3  1  0.12500000  0.12500000  0.62500000  1
loop_
_geom_bond_atom_site_label_1
_geom_bond_atom_site_label_2
_geom_bond_distance
_geom_bond_site_symmetry_2
Al0 Ir2 2.551938 1_656
Al0 Ir1 2.551938 1_566
Al0 Ir3 2.551938 1_665
Al1 Ir0 2.551933 1_655
Al1 Ir3 2.551947 1_655
Al1 Ir2 2.551947 1_655
Al2 Ir0 2.551933 1_565
Al2 Ir3 2.551947 1_565
Al2 Ir1 2.551947 1_565
Al3 Ir0 2.551934 1_556
Al3 Ir2 2.551947 1_556
Al3 Ir1 2.551947 1_556
Al4 Ir0 2.551933 1_656
Al4 Ir3 2.551947 1_655
Al4 Ir1 2.551947 1_556
Al5 Ir0 2.551934 1_665
Al5 Ir2 2.551947 1_655
Al5 Ir1 2.551947 1_565
Al6 Ir0 2.551933 1_566
Al6 Ir3 2.551947 1_565
Al6 Ir2 2.551947 1_556
Al7 Ir2 2.551938 1_555
Al7 Ir1 2.551938 1_555
Al7 Ir3 2.551938 1_555
B0 Ta6 2.229788 1_555
B0 Ta4 2.229788 1_555
B0 Ta0 2.229788 1_555
B0 Ta10 2.229788 1_555
B0 Ta7 2.229788 1_555
B0 Ta1 2.229788 1_555
B1 Ta11 2.229788 1_455
B1 Ta3 2.229788 1_555
B1 Ta9 2.229788 1_455
B1 Ta5 2.229788 1_555
B1 Ta1 2.229788 1_555
B1 Ta7 2.229788 1_455
B2 Ta8 2.229788 1_545
B2 Ta2 2.229788 1_555
B2 Ta10 2.229788 1_555
B2 Ta0 2.229788 1_545
B2 Ta9 2.229788 1_545
B2 Ta5 2.229788 1_555
B3 Ta4 2.229788 1_555
B3 Ta6 2.229788 1_554
B3 Ta8 2.229788 1_554
B3 Ta2 2.229788 1_555
B3 Ta11 2.229788 1_554
B3 Ta3 2.229788 1_555
Ir0 Ta9 2.994579 1_445
Ir0 Ta5 2.994579 1_554
Ir0 Ta11 2.994580 1_454
Ir0 Ta3 2.994580 1_545
Ir0 Ta8 2.994580 1_544
Ir0 Ta2 2.994580 1_455
Ir1 Ta0 2.994579 1_545
Ir1 Ta10 2.994579 1_554
Ir1 Ta2 2.994580 1_555
Ir1 Ta8 2.994580 1_544
Ir1 Ta6 2.994580 1_554
Ir1 Ta4 2.994580 1_545
Ir2 Ta7 2.994579 1_455
Ir2 Ta1 2.994579 1_554
Ir2 Ta3 2.994580 1_555
Ir2 Ta11 2.994580 1_454
Ir2 Ta6 2.994580 1_554
Ir2 Ta4 2.994580 1_455
Ir3 Ta7 2.994580 1_455
Ir3 Ta1 2.994580 1_545
Ir3 Ta5 2.994580 1_555
Ir3 Ta9 2.994580 1_445
Ir3 Ta0 2.994580 1_545
Ir3 Ta10 2.994580 1_455
