# generated using pymatgen
data_HoFe3
_symmetry_space_group_name_H-M   'P 1'
_cell_length_a   8.61201285
_cell_length_b   8.61201035
_cell_length_c   8.61201296
_cell_angle_alpha   34.80800069
_cell_angle_beta   34.80799776
_cell_angle_gamma   34.80804419
_symmetry_Int_Tables_number   1
_chemical_formula_structural   HoFe3
_chemical_formula_sum   'Ho3 Fe9'
_cell_volume   185.77034216
_cell_formula_units_Z   3
loop_
 _symmetry_equiv_pos_site_id
 _symmetry_equiv_pos_as_xyz
  1  'x, y, z'
loop_
 _atom_site_type_symbol
 _atom_site_label
 _atom_site_symmetry_multiplicity
 _atom_site_fract_x
 _atom_site_fract_y
 _atom_site_fract_z
 _atom_site_occupancy
  Ho  Ho0  1  -0.00000000  -0.00000000  0.00000000  1
  Ho  Ho1  1  0.14219794  0.14219705  0.14219723  1
  Ho  Ho2  1  0.85780206  0.85780295  0.85780277  1
  Fe  Fe0  1  0.50000000  0.50000000  0.50000000  1
  Fe  Fe1  1  0.33283558  0.33283492  0.33283385  1
  Fe  Fe2  1  0.66716442  0.66716508  0.66716615  1
  Fe  Fe3  1  0.08221581  0.57982722  0.57982756  1
  Fe  Fe4  1  0.57982761  0.57982742  0.08221513  1
  Fe  Fe5  1  0.57982695  0.08221546  0.57982703  1
  Fe  Fe6  1  0.42017305  0.91778454  0.42017297  1
  Fe  Fe7  1  0.91778419  0.42017278  0.42017244  1
  Fe  Fe8  1  0.42017239  0.42017258  0.91778487  1
loop_
_geom_bond_atom_site_label_1
_geom_bond_atom_site_label_2
_geom_bond_distance
_geom_bond_site_symmetry_2
Fe0 Fe3 2.557930 1_555
Fe0 Fe7 2.557930 1_555
Fe0 Fe4 2.557933 1_555
Fe0 Fe8 2.557933 1_555
Fe0 Fe5 2.557936 1_555
Fe0 Fe6 2.557936 1_555
Fe0 Ho1 3.033002 1_556
Fe0 Ho2 3.033002 1_554
Fe0 Ho2 3.033006 1_545
Fe0 Ho1 3.033006 1_565
Fe0 Ho2 3.033009 1_455
Fe0 Ho1 3.033009 1_655
Fe1 Fe6 2.450939 1_545
Fe1 Fe8 2.450940 1_554
Fe1 Fe7 2.450949 1_455
Fe1 Fe5 2.461578 1_555
Fe1 Fe4 2.461579 1_555
Fe1 Fe3 2.461587 1_555
Fe1 Ho0 2.974436 1_655
Fe1 Ho0 2.974438 1_565
Fe1 Ho0 2.974440 1_556
Fe2 Fe5 2.450939 1_565
Fe2 Fe4 2.450940 1_556
Fe2 Fe3 2.450949 1_655
Fe2 Fe6 2.461578 1_555
Fe2 Fe8 2.461579 1_555
Fe2 Fe7 2.461587 1_555
Fe2 Ho0 2.974436 1_566
Fe2 Ho0 2.974438 1_656
Fe2 Ho0 2.974440 1_665
Fe3 Fe5 2.563614 1_555
Fe3 Fe4 2.563615 1_555
Fe3 Fe4 2.588219 1_456
Fe3 Fe5 2.588225 1_465
Fe3 Ho1 2.977286 1_565
Fe3 Ho1 2.977288 1_556
Fe3 Ho2 3.068013 1_455
Fe3 Ho0 3.233678 1_556
Fe3 Ho0 3.233682 1_565
Fe4 Fe5 2.563614 1_555
Fe4 Fe5 2.588219 1_564
Fe4 Ho1 2.977289 1_565
Fe4 Ho1 2.977294 1_655
Fe4 Ho2 3.068012 1_554
Fe4 Ho0 3.233679 1_655
Fe4 Ho0 3.233681 1_565
Fe5 Ho1 2.977290 1_556
Fe5 Ho1 2.977293 1_655
Fe5 Ho2 3.068020 1_545
Fe5 Ho0 3.233674 1_556
Fe5 Ho0 3.233675 1_655
Fe6 Fe8 2.563614 1_555
Fe6 Fe7 2.563614 1_555
Fe6 Fe8 2.588219 1_564
Fe6 Fe7 2.588225 1_465
Fe6 Ho2 2.977290 1_554
Fe6 Ho2 2.977293 1_455
Fe6 Ho1 3.068020 1_565
Fe6 Ho0 3.233674 1_665
Fe6 Ho0 3.233675 1_566
Fe7 Fe8 2.563615 1_555
Fe7 Fe8 2.588219 1_654
Fe7 Ho2 2.977286 1_545
Fe7 Ho2 2.977288 1_554
Fe7 Ho1 3.068013 1_655
Fe7 Ho0 3.233678 1_665
Fe7 Ho0 3.233682 1_656
Fe8 Ho2 2.977289 1_545
Fe8 Ho2 2.977294 1_455
Fe8 Ho1 3.068012 1_556
Fe8 Ho0 3.233679 1_566
Fe8 Ho0 3.233681 1_656
