# generated using pymatgen
data_Hf2CuSn2Ir
_symmetry_space_group_name_H-M   'P 1'
_cell_length_a   4.41633785
_cell_length_b   4.41633758
_cell_length_c   6.82469050
_cell_angle_alpha   90.00000000
_cell_angle_beta   90.00000000
_cell_angle_gamma   119.99999471
_symmetry_Int_Tables_number   1
_chemical_formula_structural   Hf2CuSn2Ir
_chemical_formula_sum   'Hf2 Cu1 Sn2 Ir1'
_cell_volume   115.27580616
_cell_formula_units_Z   1
loop_
 _symmetry_equiv_pos_site_id
 _symmetry_equiv_pos_as_xyz
  1  'x, y, z'
loop_
 _atom_site_type_symbol
 _atom_site_label
 _atom_site_symmetry_multiplicity
 _atom_site_fract_x
 _atom_site_fract_y
 _atom_site_fract_z
 _atom_site_occupancy
  Hf  Hf0  1  0.00000000  0.00000000  0.50728789  1
  Hf  Hf1  1  0.00000000  0.00000000  0.02145864  1
  Cu  Cu0  1  0.33333300  0.66666700  0.66698584  1
  Sn  Sn0  1  0.66666700  0.33333300  0.76654374  1
  Sn  Sn1  1  0.33333300  0.66666700  0.27728833  1
  Ir  Ir0  1  0.66666700  0.33333300  0.16403756  1
loop_
_geom_bond_atom_site_label_1
_geom_bond_atom_site_label_2
_geom_bond_distance
_geom_bond_site_symmetry_2
Hf0 Sn1 2.994197 1_545
Hf0 Sn1 2.994200 1_555
Hf0 Sn1 2.994200 1_445
Hf0 Sn0 3.103530 1_455
Hf0 Sn0 3.103534 1_445
Hf0 Sn0 3.103534 1_555
Hf0 Hf1 3.315634 1_555
Hf0 Ir0 3.462514 1_455
Hf0 Ir0 3.462517 1_445
Hf0 Ir0 3.462517 1_555
Hf0 Hf1 3.509056 1_556
Hf1 Ir0 2.729134 1_455
Hf1 Ir0 2.729138 1_445
Hf1 Ir0 2.729138 1_555
Hf1 Sn0 3.086736 1_454
Hf1 Sn0 3.086740 1_444
Hf1 Sn0 3.086740 1_554
Hf1 Sn1 3.090260 1_545
Hf1 Sn1 3.090263 1_555
Hf1 Sn1 3.090263 1_445
Cu0 Sn0 2.638748 1_565
Cu0 Sn0 2.638748 1_455
Cu0 Sn0 2.638755 1_555
Cu0 Sn1 2.659565 1_555
Cu0 Hf0 2.772939 1_565
Cu0 Hf0 2.772943 1_555
Cu0 Hf0 2.772943 1_665
Cu0 Hf1 3.514783 1_566
Cu0 Hf1 3.514786 1_556
Cu0 Hf1 3.514786 1_666
Ir0 Sn1 2.664340 1_545
Ir0 Sn1 2.664341 1_655
Ir0 Sn1 2.664348 1_555
Ir0 Sn0 2.712772 1_554
