# generated using pymatgen
data_K3Ba3ScAs4
_symmetry_space_group_name_H-M   'P 1'
_cell_length_a   10.59493628
_cell_length_b   10.59493714
_cell_length_c   8.10833043
_cell_angle_alpha   90.00000000
_cell_angle_beta   90.00000000
_cell_angle_gamma   120.00000034
_symmetry_Int_Tables_number   1
_chemical_formula_structural   K3Ba3ScAs4
_chemical_formula_sum   'K6 Ba6 Sc2 As8'
_cell_volume   788.24060310
_cell_formula_units_Z   2
loop_
 _symmetry_equiv_pos_site_id
 _symmetry_equiv_pos_as_xyz
  1  'x, y, z'
loop_
 _atom_site_type_symbol
 _atom_site_label
 _atom_site_symmetry_multiplicity
 _atom_site_fract_x
 _atom_site_fract_y
 _atom_site_fract_z
 _atom_site_occupancy
  K  K0  1  0.73230303  0.86615151  0.16726104  1
  K  K1  1  0.86615151  0.13384849  0.66726104  1
  K  K2  1  0.86615151  0.73230303  0.66726104  1
  K  K3  1  0.13384849  0.26769697  0.16726104  1
  K  K4  1  0.13384849  0.86615151  0.16726104  1
  K  K5  1  0.26769697  0.13384849  0.66726104  1
  Ba  Ba0  1  0.05693579  0.52846939  0.49612118  1
  Ba  Ba1  1  0.47153061  0.94306421  0.49612118  1
  Ba  Ba2  1  0.47153061  0.52846939  0.49612118  1
  Ba  Ba3  1  0.52846939  0.47153061  0.99612118  1
  Ba  Ba4  1  0.52846939  0.05693579  0.99612118  1
  Ba  Ba5  1  0.94306421  0.47153061  0.99612118  1
  Sc  Sc0  1  0.33333300  0.66666700  0.88912330  1
  Sc  Sc1  1  0.66666700  0.33333300  0.38912330  1
  As  As0  1  0.66666700  0.33333300  0.72155282  1
  As  As1  1  0.60439732  0.80219866  0.77612474  1
  As  As2  1  0.80219866  0.19780134  0.27612474  1
  As  As3  1  0.80219866  0.60439732  0.27612474  1
  As  As4  1  0.33333300  0.66666700  0.22155282  1
  As  As5  1  0.19780134  0.39560268  0.77612474  1
  As  As6  1  0.19780134  0.80219866  0.77612474  1
  As  As7  1  0.39560268  0.19780134  0.27612474  1
loop_
_geom_bond_atom_site_label_1
_geom_bond_atom_site_label_2
_geom_bond_distance
_geom_bond_site_symmetry_2
As0 Sc1 2.695448 1_555
As0 Ba3 3.374607 1_555
As0 Ba5 3.374621 1_555
As0 Ba4 3.374621 1_555
As0 K1 3.687108 1_555
As0 K5 3.687117 1_555
As0 K2 3.687117 1_555
As1 Sc0 2.650542 1_555
As1 K2 3.327507 1_555
As1 K1 3.327507 1_565
As1 K0 3.381642 1_556
As1 Ba2 3.385921 1_555
As1 Ba1 3.385942 1_555
As1 Ba4 3.644783 1_565
As1 Ba3 3.644810 1_555
As2 Sc1 2.650534 1_555
As2 K3 3.327507 1_655
As2 K0 3.327507 1_545
As2 K1 3.381642 1_555
As2 Ba4 3.385922 1_554
As2 Ba5 3.385922 1_554
As2 Ba1 3.644801 1_545
As2 Ba0 3.644802 1_655
As3 Sc1 2.650542 1_555
As3 K4 3.327507 1_655
As3 K0 3.327507 1_555
As3 K2 3.381642 1_555
As3 Ba3 3.385921 1_554
As3 Ba5 3.385942 1_554
As3 Ba0 3.644783 1_655
As3 Ba2 3.644810 1_555
As4 Sc0 2.695448 1_554
As4 Ba2 3.374607 1_555
As4 Ba0 3.374621 1_555
As4 Ba1 3.374621 1_555
As4 K4 3.687108 1_555
As4 K0 3.687117 1_555
As4 K3 3.687117 1_555
As5 Sc0 2.650542 1_555
As5 K1 3.327507 1_455
As5 K5 3.327507 1_555
As5 K3 3.381642 1_556
As5 Ba2 3.385921 1_555
As5 Ba0 3.385942 1_555
As5 Ba5 3.644783 1_455
As5 Ba3 3.644810 1_555
As6 Sc0 2.650534 1_555
As6 K2 3.327507 1_455
As6 K5 3.327507 1_565
As6 K4 3.381642 1_556
As6 Ba1 3.385922 1_555
As6 Ba0 3.385922 1_555
As6 Ba4 3.644801 1_565
As6 Ba5 3.644802 1_455
As7 Sc1 2.650542 1_555
As7 K3 3.327507 1_555
As7 K4 3.327507 1_545
As7 K5 3.381642 1_555
As7 Ba3 3.385921 1_554
As7 Ba4 3.385942 1_554
As7 Ba1 3.644783 1_545
As7 Ba2 3.644810 1_555
