# generated using pymatgen
data_Ti(VGa2)2
_symmetry_space_group_name_H-M   'P 1'
_cell_length_a   5.15883206
_cell_length_b   5.15883240
_cell_length_c   5.15883288
_cell_angle_alpha   104.32763866
_cell_angle_beta   104.32763949
_cell_angle_gamma   120.33580769
_symmetry_Int_Tables_number   1
_chemical_formula_structural   Ti(VGa2)2
_chemical_formula_sum   'Ti1 V2 Ga4'
_cell_volume   102.79412628
_cell_formula_units_Z   1
loop_
 _symmetry_equiv_pos_site_id
 _symmetry_equiv_pos_as_xyz
  1  'x, y, z'
loop_
 _atom_site_type_symbol
 _atom_site_label
 _atom_site_symmetry_multiplicity
 _atom_site_fract_x
 _atom_site_fract_y
 _atom_site_fract_z
 _atom_site_occupancy
  Ti  Ti0  1  0.00000000  0.00000000  0.00000000  1
  V  V0  1  0.25000000  0.75000000  0.50000000  1
  V  V1  1  0.75000000  0.25000000  0.50000000  1
  Ga  Ga0  1  0.29906333  0.29906333  0.59812765  1
  Ga  Ga1  1  0.70093667  0.70093667  0.40187235  1
  Ga  Ga2  1  0.70093667  0.29906333  1.00000000  1
  Ga  Ga3  1  0.29906333  0.70093667  0.00000000  1
loop_
_geom_bond_atom_site_label_1
_geom_bond_atom_site_label_2
_geom_bond_distance
_geom_bond_site_symmetry_2
V0 V1 2.566313 1_455
V0 V1 2.566313 1_565
Ga0 Ga2 2.543420 1_555
Ga0 Ga3 2.543420 1_556
Ga0 V1 2.616530 1_455
Ga0 V0 2.616530 1_545
Ga0 V1 2.616532 1_555
Ga0 V0 2.616532 1_555
Ga0 Ti0 2.676753 1_555
Ga0 Ga1 2.712438 1_445
Ga0 Ga1 2.712448 1_555
Ga0 Ti0 3.133757 1_556
Ga0 Ti0 3.133761 1_666
Ga1 Ga3 2.543420 1_555
Ga1 Ga2 2.543420 1_554
Ga1 V0 2.616530 1_655
Ga1 V1 2.616530 1_565
Ga1 V0 2.616532 1_555
Ga1 V1 2.616532 1_555
Ga1 Ti0 2.676753 1_666
Ga1 Ti0 3.133757 1_665
Ga1 Ti0 3.133761 1_555
Ga2 V0 2.616530 1_656
Ga2 V0 2.616530 1_545
Ga2 V1 2.616530 1_555
Ga2 V1 2.616530 1_556
Ga2 Ti0 2.676748 1_656
Ga2 Ga3 2.712440 1_656
Ga2 Ga3 2.712440 1_546
Ga2 Ti0 3.133761 1_556
Ga2 Ti0 3.133761 1_666
Ga3 V1 2.616530 1_454
Ga3 V1 2.616530 1_565
Ga3 V0 2.616530 1_555
Ga3 V0 2.616530 1_554
Ga3 Ti0 2.676748 1_565
Ga3 Ti0 3.133761 1_665
Ga3 Ti0 3.133761 1_555
