# generated using pymatgen
data_Y2HfBe2Ir5
_symmetry_space_group_name_H-M   'P 1'
_cell_length_a   19.71379634
_cell_length_b   19.71379634
_cell_length_c   6.39559981
_cell_angle_alpha   90.00000000
_cell_angle_beta   90.00000000
_cell_angle_gamma   90.00000000
_symmetry_Int_Tables_number   1
_chemical_formula_structural   Y2HfBe2Ir5
_chemical_formula_sum   'Y32 Hf16 Be32 Ir80'
_cell_volume   2485.54604113
_cell_formula_units_Z   16
loop_
 _symmetry_equiv_pos_site_id
 _symmetry_equiv_pos_as_xyz
  1  'x, y, z'
loop_
 _atom_site_type_symbol
 _atom_site_label
 _atom_site_symmetry_multiplicity
 _atom_site_fract_x
 _atom_site_fract_y
 _atom_site_fract_z
 _atom_site_occupancy
  Y  Y0_0  1  0.08808275  0.33808275  0.00000000  1
  Y  Y0_1  1  0.08808275  0.33808275  0.50000000  1
  Y  Y0_2  1  0.08808275  0.83808275  0.00000000  1
  Y  Y0_3  1  0.08808275  0.83808275  0.50000000  1
  Y  Y0_4  1  0.58808275  0.33808275  0.00000000  1
  Y  Y0_5  1  0.58808275  0.33808275  0.50000000  1
  Y  Y0_6  1  0.58808275  0.83808275  0.00000000  1
  Y  Y0_7  1  0.58808275  0.83808275  0.50000000  1
  Y  Y1_0  1  0.16191725  0.08808275  0.00000000  1
  Y  Y1_1  1  0.16191725  0.08808275  0.50000000  1
  Y  Y1_2  1  0.16191725  0.58808275  0.00000000  1
  Y  Y1_3  1  0.16191725  0.58808275  0.50000000  1
  Y  Y1_4  1  0.66191725  0.08808275  0.00000000  1
  Y  Y1_5  1  0.66191725  0.08808275  0.50000000  1
  Y  Y1_6  1  0.66191725  0.58808275  0.00000000  1
  Y  Y1_7  1  0.66191725  0.58808275  0.50000000  1
  Y  Y2_0  1  0.41191725  0.16191725  0.00000000  1
  Y  Y2_1  1  0.41191725  0.16191725  0.50000000  1
  Y  Y2_2  1  0.41191725  0.66191725  0.00000000  1
  Y  Y2_3  1  0.41191725  0.66191725  0.50000000  1
  Y  Y2_4  1  0.91191725  0.16191725  0.00000000  1
  Y  Y2_5  1  0.91191725  0.16191725  0.50000000  1
  Y  Y2_6  1  0.91191725  0.66191725  0.00000000  1
  Y  Y2_7  1  0.91191725  0.66191725  0.50000000  1
  Y  Y3_0  1  0.33808275  0.41191725  0.00000000  1
  Y  Y3_1  1  0.33808275  0.41191725  0.50000000  1
  Y  Y3_2  1  0.33808275  0.91191725  0.00000000  1
  Y  Y3_3  1  0.33808275  0.91191725  0.50000000  1
  Y  Y3_4  1  0.83808275  0.41191725  0.00000000  1
  Y  Y3_5  1  0.83808275  0.41191725  0.50000000  1
  Y  Y3_6  1  0.83808275  0.91191725  0.00000000  1
  Y  Y3_7  1  0.83808275  0.91191725  0.50000000  1
  Hf  Hf0_0  1  0.25000000  0.25000000  0.00000000  1
  Hf  Hf0_1  1  0.25000000  0.25000000  0.50000000  1
  Hf  Hf0_2  1  0.25000000  0.75000000  0.00000000  1
  Hf  Hf0_3  1  0.25000000  0.75000000  0.50000000  1
  Hf  Hf0_4  1  0.75000000  0.25000000  0.00000000  1
  Hf  Hf0_5  1  0.75000000  0.25000000  0.50000000  1
  Hf  Hf0_6  1  0.75000000  0.75000000  0.00000000  1
  Hf  Hf0_7  1  0.75000000  0.75000000  0.50000000  1
  Hf  Hf1_0  1  0.00000000  0.00000000  0.00000000  1
  Hf  Hf1_1  1  0.00000000  0.00000000  0.50000000  1
  Hf  Hf1_2  1  0.00000000  0.50000000  0.00000000  1
  Hf  Hf1_3  1  0.00000000  0.50000000  0.50000000  1
  Hf  Hf1_4  1  0.50000000  0.00000000  0.00000000  1
  Hf  Hf1_5  1  0.50000000  0.00000000  0.50000000  1
  Hf  Hf1_6  1  0.50000000  0.50000000  0.00000000  1
  Hf  Hf1_7  1  0.50000000  0.50000000  0.50000000  1
  Be  Be0_0  1  0.18977067  0.43977067  0.00000000  1
  Be  Be0_1  1  0.18977067  0.43977067  0.50000000  1
  Be  Be0_2  1  0.18977067  0.93977067  0.00000000  1
  Be  Be0_3  1  0.18977067  0.93977067  0.50000000  1
  Be  Be0_4  1  0.68977067  0.43977067  0.00000000  1
  Be  Be0_5  1  0.68977067  0.43977067  0.50000000  1
  Be  Be0_6  1  0.68977067  0.93977067  0.00000000  1
  Be  Be0_7  1  0.68977067  0.93977067  0.50000000  1
  Be  Be1_0  1  0.06022933  0.18977067  0.00000000  1
  Be  Be1_1  1  0.06022933  0.18977067  0.50000000  1
  Be  Be1_2  1  0.06022933  0.68977067  0.00000000  1
  Be  Be1_3  1  0.06022933  0.68977067  0.50000000  1
  Be  Be1_4  1  0.56022933  0.18977067  0.00000000  1
  Be  Be1_5  1  0.56022933  0.18977067  0.50000000  1
  Be  Be1_6  1  0.56022933  0.68977067  0.00000000  1
  Be  Be1_7  1  0.56022933  0.68977067  0.50000000  1
  Be  Be2_0  1  0.43977067  0.31022933  0.00000000  1
  Be  Be2_1  1  0.43977067  0.31022933  0.50000000  1
  Be  Be2_2  1  0.43977067  0.81022933  0.00000000  1
  Be  Be2_3  1  0.43977067  0.81022933  0.50000000  1
  Be  Be2_4  1  0.93977067  0.31022933  0.00000000  1
  Be  Be2_5  1  0.93977067  0.31022933  0.50000000  1
  Be  Be2_6  1  0.93977067  0.81022933  0.00000000  1
  Be  Be2_7  1  0.93977067  0.81022933  0.50000000  1
  Be  Be3_0  1  0.31022933  0.06022933  0.00000000  1
  Be  Be3_1  1  0.31022933  0.06022933  0.50000000  1
  Be  Be3_2  1  0.31022933  0.56022933  0.00000000  1
  Be  Be3_3  1  0.31022933  0.56022933  0.50000000  1
  Be  Be3_4  1  0.81022933  0.06022933  0.00000000  1
  Be  Be3_5  1  0.81022933  0.06022933  0.50000000  1
  Be  Be3_6  1  0.81022933  0.56022933  0.00000000  1
  Be  Be3_7  1  0.81022933  0.56022933  0.50000000  1
  Ir  Ir0_0  1  0.10855353  0.46587192  0.25000000  1
  Ir  Ir0_1  1  0.10855353  0.46587192  0.75000000  1
  Ir  Ir0_2  1  0.10855353  0.96587192  0.25000000  1
  Ir  Ir0_3  1  0.10855353  0.96587192  0.75000000  1
  Ir  Ir0_4  1  0.60855353  0.46587192  0.25000000  1
  Ir  Ir0_5  1  0.60855353  0.46587192  0.75000000  1
  Ir  Ir0_6  1  0.60855353  0.96587192  0.25000000  1
  Ir  Ir0_7  1  0.60855353  0.96587192  0.75000000  1
  Ir  Ir1_0  1  0.46587192  0.39144647  0.25000000  1
  Ir  Ir1_1  1  0.46587192  0.39144647  0.75000000  1
  Ir  Ir1_2  1  0.46587192  0.89144647  0.25000000  1
  Ir  Ir1_3  1  0.46587192  0.89144647  0.75000000  1
  Ir  Ir1_4  1  0.96587192  0.39144647  0.25000000  1
  Ir  Ir1_5  1  0.96587192  0.39144647  0.75000000  1
  Ir  Ir1_6  1  0.96587192  0.89144647  0.25000000  1
  Ir  Ir1_7  1  0.96587192  0.89144647  0.75000000  1
  Ir  Ir2_0  1  0.21587192  0.35855353  0.25000000  1
  Ir  Ir2_1  1  0.21587192  0.35855353  0.75000000  1
  Ir  Ir2_2  1  0.21587192  0.85855353  0.25000000  1
  Ir  Ir2_3  1  0.21587192  0.85855353  0.75000000  1
  Ir  Ir2_4  1  0.71587192  0.35855353  0.25000000  1
  Ir  Ir2_5  1  0.71587192  0.35855353  0.75000000  1
  Ir  Ir2_6  1  0.71587192  0.85855353  0.25000000  1
  Ir  Ir2_7  1  0.71587192  0.85855353  0.75000000  1
  Ir  Ir3_0  1  0.28412808  0.14144647  0.25000000  1
  Ir  Ir3_1  1  0.28412808  0.14144647  0.75000000  1
  Ir  Ir3_2  1  0.28412808  0.64144647  0.25000000  1
  Ir  Ir3_3  1  0.28412808  0.64144647  0.75000000  1
  Ir  Ir3_4  1  0.78412808  0.14144647  0.25000000  1
  Ir  Ir3_5  1  0.78412808  0.14144647  0.75000000  1
  Ir  Ir3_6  1  0.78412808  0.64144647  0.25000000  1
  Ir  Ir3_7  1  0.78412808  0.64144647  0.75000000  1
  Ir  Ir4_0  1  0.35855353  0.28412808  0.25000000  1
  Ir  Ir4_1  1  0.35855353  0.28412808  0.75000000  1
  Ir  Ir4_2  1  0.35855353  0.78412808  0.25000000  1
  Ir  Ir4_3  1  0.35855353  0.78412808  0.75000000  1
  Ir  Ir4_4  1  0.85855353  0.28412808  0.25000000  1
  Ir  Ir4_5  1  0.85855353  0.28412808  0.75000000  1
  Ir  Ir4_6  1  0.85855353  0.78412808  0.25000000  1
  Ir  Ir4_7  1  0.85855353  0.78412808  0.75000000  1
  Ir  Ir5_0  1  0.14144647  0.21587192  0.25000000  1
  Ir  Ir5_1  1  0.14144647  0.21587192  0.75000000  1
  Ir  Ir5_2  1  0.14144647  0.71587192  0.25000000  1
  Ir  Ir5_3  1  0.14144647  0.71587192  0.75000000  1
  Ir  Ir5_4  1  0.64144647  0.21587192  0.25000000  1
  Ir  Ir5_5  1  0.64144647  0.21587192  0.75000000  1
  Ir  Ir5_6  1  0.64144647  0.71587192  0.25000000  1
  Ir  Ir5_7  1  0.64144647  0.71587192  0.75000000  1
  Ir  Ir6_0  1  0.03412808  0.10855353  0.25000000  1
  Ir  Ir6_1  1  0.03412808  0.10855353  0.75000000  1
  Ir  Ir6_2  1  0.03412808  0.60855353  0.25000000  1
  Ir  Ir6_3  1  0.03412808  0.60855353  0.75000000  1
  Ir  Ir6_4  1  0.53412808  0.10855353  0.25000000  1
  Ir  Ir6_5  1  0.53412808  0.10855353  0.75000000  1
  Ir  Ir6_6  1  0.53412808  0.60855353  0.25000000  1
  Ir  Ir6_7  1  0.53412808  0.60855353  0.75000000  1
  Ir  Ir7_0  1  0.00000000  0.25000000  0.25000000  1
  Ir  Ir7_1  1  0.00000000  0.25000000  0.75000000  1
  Ir  Ir7_2  1  0.00000000  0.75000000  0.25000000  1
  Ir  Ir7_3  1  0.00000000  0.75000000  0.75000000  1
  Ir  Ir7_4  1  0.50000000  0.25000000  0.25000000  1
  Ir  Ir7_5  1  0.50000000  0.25000000  0.75000000  1
  Ir  Ir7_6  1  0.50000000  0.75000000  0.25000000  1
  Ir  Ir7_7  1  0.50000000  0.75000000  0.75000000  1
  Ir  Ir8_0  1  0.25000000  0.00000000  0.25000000  1
  Ir  Ir8_1  1  0.25000000  0.00000000  0.75000000  1
  Ir  Ir8_2  1  0.25000000  0.50000000  0.25000000  1
  Ir  Ir8_3  1  0.25000000  0.50000000  0.75000000  1
  Ir  Ir8_4  1  0.75000000  0.00000000  0.25000000  1
  Ir  Ir8_5  1  0.75000000  0.00000000  0.75000000  1
  Ir  Ir8_6  1  0.75000000  0.50000000  0.25000000  1
  Ir  Ir8_7  1  0.75000000  0.50000000  0.75000000  1
  Ir  Ir9_0  1  0.39144647  0.03412808  0.25000000  1
  Ir  Ir9_1  1  0.39144647  0.03412808  0.75000000  1
  Ir  Ir9_2  1  0.39144647  0.53412808  0.25000000  1
  Ir  Ir9_3  1  0.39144647  0.53412808  0.75000000  1
  Ir  Ir9_4  1  0.89144647  0.03412808  0.25000000  1
  Ir  Ir9_5  1  0.89144647  0.03412808  0.75000000  1
  Ir  Ir9_6  1  0.89144647  0.53412808  0.25000000  1
  Ir  Ir9_7  1  0.89144647  0.53412808  0.75000000  1
loop_
_geom_bond_atom_site_label_1
_geom_bond_atom_site_label_2
_geom_bond_distance
_geom_bond_site_symmetry_2
Y0_0 Y0_1 3.197800 1_555
Y0_0 Y0_1 3.197800 1_554
Y0_2 Y0_3 3.197800 1_554
Y0_2 Y0_3 3.197800 1_555
Y0_4 Y0_5 3.197800 1_555
Y0_4 Y0_5 3.197800 1_554
Y0_6 Y0_7 3.197800 1_554
Y0_6 Y0_7 3.197800 1_555
Y1_0 Y1_1 3.197800 1_555
Y1_0 Y1_1 3.197800 1_554
Y1_2 Y1_3 3.197800 1_555
Y1_2 Y1_3 3.197800 1_554
Y1_4 Y1_5 3.197800 1_554
Y1_4 Y1_5 3.197800 1_555
Y1_6 Y1_7 3.197800 1_554
Y1_6 Y1_7 3.197800 1_555
Y2_0 Y2_1 3.197800 1_554
Y2_0 Y2_1 3.197800 1_555
Y2_2 Y2_3 3.197800 1_554
Y2_2 Y2_3 3.197800 1_555
Y2_4 Y2_5 3.197800 1_555
Y2_4 Y2_5 3.197800 1_554
Y2_6 Y2_7 3.197800 1_555
Y2_6 Y2_7 3.197800 1_554
Y3_0 Y3_1 3.197800 1_554
Y3_0 Y3_1 3.197800 1_555
Y3_2 Y3_3 3.197800 1_555
Y3_2 Y3_3 3.197800 1_554
Y3_4 Y3_5 3.197800 1_554
Y3_4 Y3_5 3.197800 1_555
Y3_6 Y3_7 3.197800 1_555
Y3_6 Y3_7 3.197800 1_554
Hf0_0 Ir4_0 2.754767 1_555
Hf0_0 Ir4_1 2.754767 1_554
Hf0_0 Ir2_1 2.754767 1_554
Hf0_0 Ir2_0 2.754767 1_555
Hf0_0 Ir3_1 2.754767 1_554
Hf0_0 Ir3_0 2.754767 1_555
Hf0_0 Ir5_1 2.754767 1_554
Hf0_0 Ir5_0 2.754767 1_555
Hf0_1 Ir4_0 2.754767 1_555
Hf0_1 Ir4_1 2.754767 1_555
Hf0_1 Ir2_0 2.754767 1_555
Hf0_1 Ir2_1 2.754767 1_555
Hf0_1 Ir3_0 2.754767 1_555
Hf0_1 Ir3_1 2.754767 1_555
Hf0_1 Ir5_0 2.754767 1_555
Hf0_1 Ir5_1 2.754767 1_555
Hf0_2 Ir4_3 2.754767 1_554
Hf0_2 Ir4_2 2.754767 1_555
Hf0_2 Ir2_3 2.754767 1_554
Hf0_2 Ir2_2 2.754767 1_555
Hf0_2 Ir3_3 2.754767 1_554
Hf0_2 Ir3_2 2.754767 1_555
Hf0_2 Ir5_3 2.754767 1_554
Hf0_2 Ir5_2 2.754767 1_555
Hf0_3 Ir4_2 2.754767 1_555
Hf0_3 Ir4_3 2.754767 1_555
Hf0_3 Ir2_2 2.754767 1_555
Hf0_3 Ir2_3 2.754767 1_555
Hf0_3 Ir3_2 2.754767 1_555
Hf0_3 Ir3_3 2.754767 1_555
Hf0_3 Ir5_2 2.754767 1_555
Hf0_3 Ir5_3 2.754767 1_555
Hf0_4 Ir4_5 2.754767 1_554
Hf0_4 Ir4_4 2.754767 1_555
Hf0_4 Ir2_5 2.754767 1_554
Hf0_4 Ir2_4 2.754767 1_555
Hf0_4 Ir3_5 2.754767 1_554
Hf0_4 Ir3_4 2.754767 1_555
Hf0_4 Ir5_5 2.754767 1_554
Hf0_4 Ir5_4 2.754767 1_555
Hf0_5 Ir4_4 2.754767 1_555
Hf0_5 Ir4_5 2.754767 1_555
Hf0_5 Ir2_4 2.754767 1_555
Hf0_5 Ir2_5 2.754767 1_555
Hf0_5 Ir3_4 2.754767 1_555
Hf0_5 Ir3_5 2.754767 1_555
Hf0_5 Ir5_4 2.754767 1_555
Hf0_5 Ir5_5 2.754767 1_555
Hf0_6 Ir4_7 2.754767 1_554
Hf0_6 Ir4_6 2.754767 1_555
Hf0_6 Ir2_7 2.754767 1_554
Hf0_6 Ir2_6 2.754767 1_555
Hf0_6 Ir3_7 2.754767 1_554
Hf0_6 Ir3_6 2.754767 1_555
Hf0_6 Ir5_7 2.754767 1_554
Hf0_6 Ir5_6 2.754767 1_555
Hf0_7 Ir4_6 2.754767 1_555
Hf0_7 Ir4_7 2.754767 1_555
Hf0_7 Ir2_6 2.754767 1_555
Hf0_7 Ir2_7 2.754767 1_555
Hf0_7 Ir3_6 2.754767 1_555
Hf0_7 Ir3_7 2.754767 1_555
Hf0_7 Ir5_6 2.754767 1_555
Hf0_7 Ir5_7 2.754767 1_555
Hf1_0 Ir6_1 2.754767 1_554
Hf1_0 Ir6_0 2.754767 1_555
Hf1_0 Ir0_3 2.754767 1_544
Hf1_0 Ir0_2 2.754767 1_545
Hf1_0 Ir9_5 2.754767 1_454
Hf1_0 Ir9_4 2.754767 1_455
Hf1_0 Ir1_7 2.754767 1_444
Hf1_0 Ir1_6 2.754767 1_445
Hf1_1 Ir6_0 2.754767 1_555
Hf1_1 Ir6_1 2.754767 1_555
Hf1_1 Ir0_2 2.754767 1_545
Hf1_1 Ir0_3 2.754767 1_545
Hf1_1 Ir9_4 2.754767 1_455
Hf1_1 Ir9_5 2.754767 1_455
Hf1_1 Ir1_6 2.754767 1_445
Hf1_1 Ir1_7 2.754767 1_445
Hf1_2 Ir6_3 2.754767 1_554
Hf1_2 Ir6_2 2.754767 1_555
Hf1_2 Ir0_1 2.754767 1_554
Hf1_2 Ir0_0 2.754767 1_555
Hf1_2 Ir9_7 2.754767 1_454
Hf1_2 Ir9_6 2.754767 1_455
Hf1_2 Ir1_5 2.754767 1_454
Hf1_2 Ir1_4 2.754767 1_455
Hf1_3 Ir6_2 2.754767 1_555
Hf1_3 Ir6_3 2.754767 1_555
Hf1_3 Ir0_0 2.754767 1_555
Hf1_3 Ir0_1 2.754767 1_555
Hf1_3 Ir9_6 2.754767 1_455
Hf1_3 Ir9_7 2.754767 1_455
Hf1_3 Ir1_4 2.754767 1_455
Hf1_3 Ir1_5 2.754767 1_455
Hf1_4 Ir6_5 2.754767 1_554
Hf1_4 Ir6_4 2.754767 1_555
Hf1_4 Ir0_7 2.754767 1_544
Hf1_4 Ir0_6 2.754767 1_545
Hf1_4 Ir1_3 2.754767 1_544
Hf1_4 Ir1_2 2.754767 1_545
Hf1_4 Ir9_1 2.754767 1_554
Hf1_4 Ir9_0 2.754767 1_555
Hf1_5 Ir6_4 2.754767 1_555
Hf1_5 Ir6_5 2.754767 1_555
Hf1_5 Ir0_6 2.754767 1_545
Hf1_5 Ir0_7 2.754767 1_545
Hf1_5 Ir1_2 2.754767 1_545
Hf1_5 Ir1_3 2.754767 1_545
Hf1_5 Ir9_0 2.754767 1_555
Hf1_5 Ir9_1 2.754767 1_555
Hf1_6 Ir6_7 2.754767 1_554
Hf1_6 Ir6_6 2.754767 1_555
Hf1_6 Ir0_4 2.754767 1_555
Hf1_6 Ir0_5 2.754767 1_554
Hf1_6 Ir9_3 2.754767 1_554
Hf1_6 Ir9_2 2.754767 1_555
Hf1_6 Ir1_1 2.754767 1_554
Hf1_6 Ir1_0 2.754767 1_555
Hf1_7 Ir6_6 2.754767 1_555
Hf1_7 Ir6_7 2.754767 1_555
Hf1_7 Ir0_4 2.754767 1_555
Hf1_7 Ir0_5 2.754767 1_555
Hf1_7 Ir9_2 2.754767 1_555
Hf1_7 Ir9_3 2.754767 1_555
Hf1_7 Ir1_0 2.754767 1_555
Hf1_7 Ir1_1 2.754767 1_555
Be0_0 Ir8_3 2.318636 1_554
Be0_0 Ir8_2 2.318636 1_555
Be0_0 Ir0_1 2.320509 1_554
Be0_0 Ir0_0 2.320509 1_555
Be0_0 Ir2_1 2.320509 1_554
Be0_0 Ir2_0 2.320509 1_555
Be0_0 Y0_0 2.835010 1_555
Be0_0 Y1_2 2.974908 1_555
Be0_0 Y3_0 2.974908 1_555
Be0_1 Ir8_2 2.318636 1_555
Be0_1 Ir8_3 2.318636 1_555
Be0_1 Ir0_0 2.320509 1_555
Be0_1 Ir0_1 2.320509 1_555
Be0_1 Ir2_0 2.320509 1_555
Be0_1 Ir2_1 2.320509 1_555
Be0_1 Y0_1 2.835010 1_555
Be0_1 Y1_3 2.974908 1_555
Be0_1 Y3_1 2.974908 1_555
Be0_2 Ir8_1 2.318636 1_564
Be0_2 Ir8_0 2.318636 1_565
Be0_2 Ir0_3 2.320509 1_554
Be0_2 Ir0_2 2.320509 1_555
Be0_2 Ir2_3 2.320509 1_554
Be0_2 Ir2_2 2.320509 1_555
Be0_2 Y0_2 2.835010 1_555
Be0_2 Y3_2 2.974908 1_555
Be0_2 Y1_0 2.974908 1_565
Be0_3 Ir8_0 2.318636 1_565
Be0_3 Ir8_1 2.318636 1_565
Be0_3 Ir0_2 2.320509 1_555
Be0_3 Ir0_3 2.320509 1_555
Be0_3 Ir2_2 2.320509 1_555
Be0_3 Ir2_3 2.320509 1_555
Be0_3 Y0_3 2.835010 1_555
Be0_3 Y3_3 2.974908 1_555
Be0_3 Y1_1 2.974908 1_565
Be0_4 Ir8_7 2.318636 1_554
Be0_4 Ir8_6 2.318636 1_555
Be0_4 Ir0_5 2.320509 1_554
Be0_4 Ir0_4 2.320509 1_555
Be0_4 Ir2_5 2.320509 1_554
Be0_4 Ir2_4 2.320509 1_555
Be0_4 Y0_4 2.835010 1_555
Be0_4 Y1_6 2.974908 1_555
Be0_4 Y3_4 2.974908 1_555
Be0_5 Ir8_6 2.318636 1_555
Be0_5 Ir8_7 2.318636 1_555
Be0_5 Ir0_4 2.320509 1_555
Be0_5 Ir0_5 2.320509 1_555
Be0_5 Ir2_4 2.320509 1_555
Be0_5 Ir2_5 2.320509 1_555
Be0_5 Y0_5 2.835010 1_555
Be0_5 Y1_7 2.974908 1_555
Be0_5 Y3_5 2.974908 1_555
Be0_6 Ir8_5 2.318636 1_564
Be0_6 Ir8_4 2.318636 1_565
Be0_6 Ir0_7 2.320509 1_554
Be0_6 Ir0_6 2.320509 1_555
Be0_6 Ir2_7 2.320509 1_554
Be0_6 Ir2_6 2.320509 1_555
Be0_6 Y0_6 2.835010 1_555
Be0_6 Y1_4 2.974908 1_565
Be0_6 Y3_6 2.974908 1_555
Be0_7 Ir8_4 2.318636 1_565
Be0_7 Ir8_5 2.318636 1_565
Be0_7 Ir0_6 2.320509 1_555
Be0_7 Ir0_7 2.320509 1_555
Be0_7 Ir2_6 2.320509 1_555
Be0_7 Ir2_7 2.320509 1_555
Be0_7 Y0_7 2.835010 1_555
Be0_7 Y1_5 2.974908 1_565
Be0_7 Y3_7 2.974908 1_555
Be1_0 Ir7_1 2.318636 1_554
Be1_0 Ir7_0 2.318636 1_555
Be1_0 Ir6_1 2.320509 1_554
Be1_0 Ir5_1 2.320509 1_554
Be1_0 Ir6_0 2.320509 1_555
Be1_0 Ir5_0 2.320509 1_555
Be1_0 Y1_0 2.835010 1_555
Be1_0 Y2_4 2.974908 1_455
Be1_0 Y0_0 2.974908 1_555
Be1_1 Ir7_0 2.318636 1_555
Be1_1 Ir7_1 2.318636 1_555
Be1_1 Ir6_0 2.320509 1_555
Be1_1 Ir5_0 2.320509 1_555
Be1_1 Ir6_1 2.320509 1_555
Be1_1 Ir5_1 2.320509 1_555
Be1_1 Y1_1 2.835010 1_555
Be1_1 Y2_5 2.974908 1_455
Be1_1 Y0_1 2.974908 1_555
Be1_2 Ir7_3 2.318636 1_554
Be1_2 Ir7_2 2.318636 1_555
Be1_2 Ir6_2 2.320509 1_555
Be1_2 Ir6_3 2.320509 1_554
Be1_2 Ir5_3 2.320509 1_554
Be1_2 Ir5_2 2.320509 1_555
Be1_2 Y1_2 2.835010 1_555
Be1_2 Y2_6 2.974908 1_455
Be1_2 Y0_2 2.974908 1_555
Be1_3 Ir7_2 2.318636 1_555
Be1_3 Ir7_3 2.318636 1_555
Be1_3 Ir6_2 2.320509 1_555
Be1_3 Ir6_3 2.320509 1_555
Be1_3 Ir5_2 2.320509 1_555
Be1_3 Ir5_3 2.320509 1_555
Be1_3 Y1_3 2.835010 1_555
Be1_3 Y2_7 2.974908 1_455
Be1_3 Y0_3 2.974908 1_555
Be1_4 Ir7_5 2.318636 1_554
Be1_4 Ir7_4 2.318636 1_555
Be1_4 Ir5_5 2.320509 1_554
Be1_4 Ir5_4 2.320509 1_555
Be1_4 Ir6_5 2.320509 1_554
Be1_4 Ir6_4 2.320509 1_555
Be1_4 Y1_4 2.835010 1_555
Be1_4 Y2_0 2.974908 1_555
Be1_4 Y0_4 2.974908 1_555
Be1_5 Ir7_4 2.318636 1_555
Be1_5 Ir7_5 2.318636 1_555
Be1_5 Ir5_4 2.320509 1_555
Be1_5 Ir5_5 2.320509 1_555
Be1_5 Ir6_4 2.320509 1_555
Be1_5 Ir6_5 2.320509 1_555
Be1_5 Y1_5 2.835010 1_555
Be1_5 Y2_1 2.974908 1_555
Be1_5 Y0_5 2.974908 1_555
Be1_6 Ir7_7 2.318636 1_554
Be1_6 Ir7_6 2.318636 1_555
Be1_6 Ir6_7 2.320509 1_554
Be1_6 Ir6_6 2.320509 1_555
Be1_6 Ir5_7 2.320509 1_554
Be1_6 Ir5_6 2.320509 1_555
Be1_6 Y1_6 2.835010 1_555
Be1_6 Y2_2 2.974908 1_555
Be1_6 Y0_6 2.974908 1_555
Be1_7 Ir7_6 2.318636 1_555
Be1_7 Ir7_7 2.318636 1_555
Be1_7 Ir6_6 2.320509 1_555
Be1_7 Ir5_6 2.320509 1_555
Be1_7 Ir6_7 2.320509 1_555
Be1_7 Ir5_7 2.320509 1_555
Be1_7 Y1_7 2.835010 1_555
Be1_7 Y2_3 2.974908 1_555
Be1_7 Y0_7 2.974908 1_555
Be2_0 Ir7_5 2.318636 1_554
Be2_0 Ir7_4 2.318636 1_555
Be2_0 Ir1_1 2.320509 1_554
Be2_0 Ir1_0 2.320509 1_555
Be2_0 Ir4_1 2.320509 1_554
Be2_0 Ir4_0 2.320509 1_555
Be2_0 Y3_0 2.835010 1_555
Be2_0 Y0_4 2.974908 1_555
Be2_0 Y2_0 2.974908 1_555
Be2_1 Ir7_4 2.318636 1_555
Be2_1 Ir7_5 2.318636 1_555
Be2_1 Ir1_0 2.320509 1_555
Be2_1 Ir1_1 2.320509 1_555
Be2_1 Ir4_0 2.320509 1_555
Be2_1 Ir4_1 2.320509 1_555
Be2_1 Y3_1 2.835010 1_555
Be2_1 Y0_5 2.974908 1_555
Be2_1 Y2_1 2.974908 1_555
Be2_2 Ir7_7 2.318636 1_554
Be2_2 Ir7_6 2.318636 1_555
Be2_2 Ir4_3 2.320509 1_554
Be2_2 Ir4_2 2.320509 1_555
Be2_2 Ir1_3 2.320509 1_554
Be2_2 Ir1_2 2.320509 1_555
Be2_2 Y3_2 2.835010 1_555
Be2_2 Y0_6 2.974908 1_555
Be2_2 Y2_2 2.974908 1_555
Be2_3 Ir7_6 2.318636 1_555
Be2_3 Ir7_7 2.318636 1_555
Be2_3 Ir4_2 2.320509 1_555
Be2_3 Ir4_3 2.320509 1_555
Be2_3 Ir1_2 2.320509 1_555
Be2_3 Ir1_3 2.320509 1_555
Be2_3 Y3_3 2.835010 1_555
Be2_3 Y0_7 2.974908 1_555
Be2_3 Y2_3 2.974908 1_555
Be2_4 Ir7_1 2.318636 1_654
Be2_4 Ir7_0 2.318636 1_655
Be2_4 Ir1_5 2.320509 1_554
Be2_4 Ir1_4 2.320509 1_555
Be2_4 Ir4_5 2.320509 1_554
Be2_4 Ir4_4 2.320509 1_555
Be2_4 Y3_4 2.835010 1_555
Be2_4 Y0_0 2.974908 1_655
Be2_4 Y2_4 2.974908 1_555
Be2_5 Ir7_0 2.318636 1_655
Be2_5 Ir7_1 2.318636 1_655
Be2_5 Ir1_4 2.320509 1_555
Be2_5 Ir1_5 2.320509 1_555
Be2_5 Ir4_4 2.320509 1_555
Be2_5 Ir4_5 2.320509 1_555
Be2_5 Y3_5 2.835010 1_555
Be2_5 Y0_1 2.974908 1_655
Be2_5 Y2_5 2.974908 1_555
Be2_6 Ir7_3 2.318636 1_654
Be2_6 Ir7_2 2.318636 1_655
Be2_6 Ir1_7 2.320509 1_554
Be2_6 Ir4_7 2.320509 1_554
Be2_6 Ir1_6 2.320509 1_555
Be2_6 Ir4_6 2.320509 1_555
Be2_6 Y3_6 2.835010 1_555
Be2_6 Y2_6 2.974908 1_555
Be2_6 Y0_2 2.974908 1_655
Be2_7 Ir7_2 2.318636 1_655
Be2_7 Ir7_3 2.318636 1_655
Be2_7 Ir1_6 2.320509 1_555
Be2_7 Ir4_6 2.320509 1_555
Be2_7 Ir1_7 2.320509 1_555
Be2_7 Ir4_7 2.320509 1_555
Be2_7 Y3_7 2.835010 1_555
Be2_7 Y2_7 2.974908 1_555
Be2_7 Y0_3 2.974908 1_655
Be3_0 Ir8_1 2.318636 1_554
Be3_0 Ir8_0 2.318636 1_555
Be3_0 Ir9_1 2.320509 1_554
Be3_0 Ir3_1 2.320509 1_554
Be3_0 Ir9_0 2.320509 1_555
Be3_0 Ir3_0 2.320509 1_555
Be3_0 Y2_0 2.835010 1_555
Be3_0 Y3_2 2.974908 1_545
Be3_0 Y1_0 2.974908 1_555
Be3_1 Ir8_0 2.318636 1_555
Be3_1 Ir8_1 2.318636 1_555
Be3_1 Ir9_0 2.320509 1_555
Be3_1 Ir3_0 2.320509 1_555
Be3_1 Ir9_1 2.320509 1_555
Be3_1 Ir3_1 2.320509 1_555
Be3_1 Y2_1 2.835010 1_555
Be3_1 Y3_3 2.974908 1_545
Be3_1 Y1_1 2.974908 1_555
Be3_2 Ir8_3 2.318636 1_554
Be3_2 Ir8_2 2.318636 1_555
Be3_2 Ir3_3 2.320509 1_554
Be3_2 Ir9_3 2.320509 1_554
Be3_2 Ir3_2 2.320509 1_555
Be3_2 Ir9_2 2.320509 1_555
Be3_2 Y2_2 2.835010 1_555
Be3_2 Y3_0 2.974908 1_555
Be3_2 Y1_2 2.974908 1_555
Be3_3 Ir8_2 2.318636 1_555
Be3_3 Ir8_3 2.318636 1_555
Be3_3 Ir3_2 2.320509 1_555
Be3_3 Ir3_3 2.320509 1_555
Be3_3 Ir9_2 2.320509 1_555
Be3_3 Ir9_3 2.320509 1_555
Be3_3 Y2_3 2.835010 1_555
Be3_3 Y3_1 2.974908 1_555
Be3_3 Y1_3 2.974908 1_555
Be3_4 Ir8_5 2.318636 1_554
Be3_4 Ir8_4 2.318636 1_555
Be3_4 Ir3_5 2.320509 1_554
Be3_4 Ir3_4 2.320509 1_555
Be3_4 Ir9_5 2.320509 1_554
Be3_4 Ir9_4 2.320509 1_555
Be3_4 Y2_4 2.835010 1_555
Be3_4 Y3_6 2.974908 1_545
Be3_4 Y1_4 2.974908 1_555
Be3_5 Ir8_4 2.318636 1_555
Be3_5 Ir8_5 2.318636 1_555
Be3_5 Ir3_4 2.320509 1_555
Be3_5 Ir3_5 2.320509 1_555
Be3_5 Ir9_4 2.320509 1_555
Be3_5 Ir9_5 2.320509 1_555
Be3_5 Y2_5 2.835010 1_555
Be3_5 Y3_7 2.974908 1_545
Be3_5 Y1_5 2.974908 1_555
Be3_6 Ir8_7 2.318636 1_554
Be3_6 Ir8_6 2.318636 1_555
Be3_6 Ir3_7 2.320509 1_554
Be3_6 Ir3_6 2.320509 1_555
Be3_6 Ir9_7 2.320509 1_554
Be3_6 Ir9_6 2.320509 1_555
Be3_6 Y2_6 2.835010 1_555
Be3_6 Y3_4 2.974908 1_555
Be3_6 Y1_6 2.974908 1_555
Be3_7 Ir8_6 2.318636 1_555
Be3_7 Ir8_7 2.318636 1_555
Be3_7 Ir3_6 2.320509 1_555
Be3_7 Ir3_7 2.320509 1_555
Be3_7 Ir9_6 2.320509 1_555
Be3_7 Ir9_7 2.320509 1_555
Be3_7 Y2_7 2.835010 1_555
Be3_7 Y3_5 2.974908 1_555
Be3_7 Y1_7 2.974908 1_555
Ir0_0 Y0_1 3.010939 1_555
Ir0_0 Y0_0 3.010939 1_555
Ir0_0 Y1_2 3.076950 1_555
Ir0_0 Y1_3 3.076950 1_555
Ir0_1 Y0_0 3.010939 1_556
Ir0_1 Y0_1 3.010939 1_555
Ir0_1 Y1_2 3.076950 1_556
Ir0_1 Y1_3 3.076950 1_555
Ir0_2 Y0_3 3.010939 1_555
Ir0_2 Y0_2 3.010939 1_555
Ir0_2 Y1_0 3.076950 1_565
Ir0_2 Y1_1 3.076950 1_565
Ir0_3 Y0_2 3.010939 1_556
Ir0_3 Y0_3 3.010939 1_555
Ir0_3 Y1_0 3.076950 1_566
Ir0_3 Y1_1 3.076950 1_565
Ir0_4 Y0_5 3.010939 1_555
Ir0_4 Y0_4 3.010939 1_555
Ir0_4 Y1_7 3.076950 1_555
Ir0_4 Y1_6 3.076950 1_555
Ir0_5 Y0_4 3.010939 1_556
Ir0_5 Y0_5 3.010939 1_555
Ir0_5 Y1_6 3.076950 1_556
Ir0_5 Y1_7 3.076950 1_555
Ir0_6 Y0_6 3.010939 1_555
Ir0_6 Y0_7 3.010939 1_555
Ir0_6 Y1_4 3.076950 1_565
Ir0_6 Y1_5 3.076950 1_565
Ir0_7 Y0_6 3.010939 1_556
Ir0_7 Y0_7 3.010939 1_555
Ir0_7 Y1_4 3.076950 1_566
Ir0_7 Y1_5 3.076950 1_565
Ir1_0 Y3_0 3.010939 1_555
Ir1_0 Y3_1 3.010939 1_555
Ir1_0 Y0_5 3.076950 1_555
Ir1_0 Y0_4 3.076950 1_555
Ir1_1 Y3_0 3.010939 1_556
Ir1_1 Y3_1 3.010939 1_555
Ir1_1 Y0_4 3.076950 1_556
Ir1_1 Y0_5 3.076950 1_555
Ir1_2 Y3_3 3.010939 1_555
Ir1_2 Y3_2 3.010939 1_555
Ir1_2 Y0_6 3.076950 1_555
Ir1_2 Y0_7 3.076950 1_555
Ir1_3 Y3_2 3.010939 1_556
Ir1_3 Y3_3 3.010939 1_555
Ir1_3 Y0_6 3.076950 1_556
Ir1_3 Y0_7 3.076950 1_555
Ir1_4 Y3_4 3.010939 1_555
Ir1_4 Y3_5 3.010939 1_555
Ir1_4 Y0_0 3.076950 1_655
Ir1_4 Y0_1 3.076950 1_655
Ir1_5 Y3_4 3.010939 1_556
Ir1_5 Y3_5 3.010939 1_555
Ir1_5 Y0_0 3.076950 1_656
Ir1_5 Y0_1 3.076950 1_655
Ir1_6 Y3_6 3.010939 1_555
Ir1_6 Y3_7 3.010939 1_555
Ir1_6 Y0_2 3.076950 1_655
Ir1_6 Y0_3 3.076950 1_655
Ir1_7 Y3_6 3.010939 1_556
Ir1_7 Y3_7 3.010939 1_555
Ir1_7 Y0_2 3.076950 1_656
Ir1_7 Y0_3 3.076950 1_655
Ir2_0 Y0_1 3.010939 1_555
Ir2_0 Y0_0 3.010939 1_555
Ir2_0 Y3_0 3.076950 1_555
Ir2_0 Y3_1 3.076950 1_555
Ir2_1 Y0_0 3.010939 1_556
Ir2_1 Y0_1 3.010939 1_555
Ir2_1 Y3_0 3.076950 1_556
Ir2_1 Y3_1 3.076950 1_555
Ir2_2 Y0_3 3.010939 1_555
Ir2_2 Y0_2 3.010939 1_555
Ir2_2 Y3_3 3.076950 1_555
Ir2_2 Y3_2 3.076950 1_555
Ir2_3 Y0_2 3.010939 1_556
Ir2_3 Y0_3 3.010939 1_555
Ir2_3 Y3_2 3.076950 1_556
Ir2_3 Y3_3 3.076950 1_555
Ir2_4 Y0_4 3.010939 1_555
Ir2_4 Y0_5 3.010939 1_555
Ir2_4 Y3_5 3.076950 1_555
Ir2_4 Y3_4 3.076950 1_555
Ir2_5 Y0_4 3.010939 1_556
Ir2_5 Y0_5 3.010939 1_555
Ir2_5 Y3_4 3.076950 1_556
Ir2_5 Y3_5 3.076950 1_555
Ir2_6 Y0_6 3.010939 1_555
Ir2_6 Y0_7 3.010939 1_555
Ir2_6 Y3_6 3.076950 1_555
Ir2_6 Y3_7 3.076950 1_555
Ir2_7 Y0_6 3.010939 1_556
Ir2_7 Y0_7 3.010939 1_555
Ir2_7 Y3_6 3.076950 1_556
Ir2_7 Y3_7 3.076950 1_555
Ir3_0 Y2_0 3.010939 1_555
Ir3_0 Y2_1 3.010939 1_555
Ir3_0 Y1_0 3.076950 1_555
Ir3_0 Y1_1 3.076950 1_555
Ir3_1 Y2_0 3.010939 1_556
Ir3_1 Y2_1 3.010939 1_555
Ir3_1 Y1_0 3.076950 1_556
Ir3_1 Y1_1 3.076950 1_555
Ir3_2 Y2_2 3.010939 1_555
Ir3_2 Y2_3 3.010939 1_555
Ir3_2 Y1_3 3.076950 1_555
Ir3_2 Y1_2 3.076950 1_555
Ir3_3 Y2_2 3.010939 1_556
Ir3_3 Y2_3 3.010939 1_555
Ir3_3 Y1_2 3.076950 1_556
Ir3_3 Y1_3 3.076950 1_555
Ir3_4 Y2_5 3.010939 1_555
Ir3_4 Y2_4 3.010939 1_555
Ir3_4 Y1_5 3.076950 1_555
Ir3_4 Y1_4 3.076950 1_555
Ir3_5 Y2_4 3.010939 1_556
Ir3_5 Y2_5 3.010939 1_555
Ir3_5 Y1_4 3.076950 1_556
Ir3_5 Y1_5 3.076950 1_555
Ir3_6 Y2_6 3.010939 1_555
Ir3_6 Y2_7 3.010939 1_555
Ir3_6 Y1_7 3.076950 1_555
Ir3_6 Y1_6 3.076950 1_555
Ir3_7 Y2_6 3.010939 1_556
Ir3_7 Y2_7 3.010939 1_555
Ir3_7 Y1_6 3.076950 1_556
Ir3_7 Y1_7 3.076950 1_555
Ir4_0 Y3_0 3.010939 1_555
Ir4_0 Y3_1 3.010939 1_555
Ir4_0 Y2_0 3.076950 1_555
Ir4_0 Y2_1 3.076950 1_555
Ir4_1 Y3_0 3.010939 1_556
Ir4_1 Y3_1 3.010939 1_555
Ir4_1 Y2_0 3.076950 1_556
Ir4_1 Y2_1 3.076950 1_555
Ir4_2 Y3_2 3.010939 1_555
Ir4_2 Y3_3 3.010939 1_555
Ir4_2 Y2_3 3.076950 1_555
Ir4_2 Y2_2 3.076950 1_555
Ir4_3 Y3_2 3.010939 1_556
Ir4_3 Y3_3 3.010939 1_555
Ir4_3 Y2_2 3.076950 1_556
Ir4_3 Y2_3 3.076950 1_555
Ir4_4 Y3_5 3.010939 1_555
Ir4_4 Y3_4 3.010939 1_555
Ir4_4 Y2_4 3.076950 1_555
Ir4_4 Y2_5 3.076950 1_555
Ir4_5 Y3_4 3.010939 1_556
Ir4_5 Y3_5 3.010939 1_555
Ir4_5 Y2_4 3.076950 1_556
Ir4_5 Y2_5 3.076950 1_555
Ir4_6 Y3_6 3.010939 1_555
Ir4_6 Y3_7 3.010939 1_555
Ir4_6 Y2_7 3.076950 1_555
Ir4_6 Y2_6 3.076950 1_555
Ir4_7 Y3_6 3.010939 1_556
Ir4_7 Y3_7 3.010939 1_555
Ir4_7 Y2_6 3.076950 1_556
Ir4_7 Y2_7 3.076950 1_555
Ir5_0 Y1_0 3.010939 1_555
Ir5_0 Y1_1 3.010939 1_555
Ir5_0 Y0_0 3.076950 1_555
Ir5_0 Y0_1 3.076950 1_555
Ir5_1 Y1_0 3.010939 1_556
Ir5_1 Y1_1 3.010939 1_555
Ir5_1 Y0_0 3.076950 1_556
Ir5_1 Y0_1 3.076950 1_555
Ir5_2 Y1_2 3.010939 1_555
Ir5_2 Y1_3 3.010939 1_555
Ir5_2 Y0_2 3.076950 1_555
Ir5_2 Y0_3 3.076950 1_555
Ir5_3 Y1_2 3.010939 1_556
Ir5_3 Y1_3 3.010939 1_555
Ir5_3 Y0_2 3.076950 1_556
Ir5_3 Y0_3 3.076950 1_555
Ir5_4 Y1_4 3.010939 1_555
Ir5_4 Y1_5 3.010939 1_555
Ir5_4 Y0_4 3.076950 1_555
Ir5_4 Y0_5 3.076950 1_555
Ir5_5 Y1_4 3.010939 1_556
Ir5_5 Y1_5 3.010939 1_555
Ir5_5 Y0_4 3.076950 1_556
Ir5_5 Y0_5 3.076950 1_555
Ir5_6 Y1_6 3.010939 1_555
Ir5_6 Y1_7 3.010939 1_555
Ir5_6 Y0_6 3.076950 1_555
Ir5_6 Y0_7 3.076950 1_555
Ir5_7 Y1_6 3.010939 1_556
Ir5_7 Y1_7 3.010939 1_555
Ir5_7 Y0_6 3.076950 1_556
Ir5_7 Y0_7 3.076950 1_555
Ir6_0 Y1_0 3.010939 1_555
Ir6_0 Y1_1 3.010939 1_555
Ir6_0 Y2_4 3.076950 1_455
Ir6_0 Y2_5 3.076950 1_455
Ir6_1 Y1_0 3.010939 1_556
Ir6_1 Y1_1 3.010939 1_555
Ir6_1 Y2_4 3.076950 1_456
Ir6_1 Y2_5 3.076950 1_455
Ir6_2 Y1_3 3.010939 1_555
Ir6_2 Y1_2 3.010939 1_555
Ir6_2 Y2_6 3.076950 1_455
Ir6_2 Y2_7 3.076950 1_455
Ir6_3 Y1_2 3.010939 1_556
Ir6_3 Y1_3 3.010939 1_555
Ir6_3 Y2_6 3.076950 1_456
Ir6_3 Y2_7 3.076950 1_455
Ir6_4 Y1_4 3.010939 1_555
Ir6_4 Y1_5 3.010939 1_555
Ir6_4 Y2_0 3.076950 1_555
Ir6_4 Y2_1 3.076950 1_555
Ir6_5 Y1_4 3.010939 1_556
Ir6_5 Y1_5 3.010939 1_555
Ir6_5 Y2_0 3.076950 1_556
Ir6_5 Y2_1 3.076950 1_555
Ir6_6 Y1_6 3.010939 1_555
Ir6_6 Y1_7 3.010939 1_555
Ir6_6 Y2_2 3.076950 1_555
Ir6_6 Y2_3 3.076950 1_555
Ir6_7 Y1_6 3.010939 1_556
Ir6_7 Y1_7 3.010939 1_555
Ir6_7 Y2_2 3.076950 1_556
Ir6_7 Y2_3 3.076950 1_555
Ir7_0 Y0_1 2.930353 1_555
Ir7_0 Y0_0 2.930353 1_555
Ir7_0 Y2_5 2.930353 1_455
Ir7_0 Y2_4 2.930353 1_455
Ir7_1 Y0_0 2.930353 1_556
Ir7_1 Y0_1 2.930353 1_555
Ir7_1 Y2_4 2.930353 1_456
Ir7_1 Y2_5 2.930353 1_455
Ir7_2 Y0_2 2.930353 1_555
Ir7_2 Y0_3 2.930353 1_555
Ir7_2 Y2_6 2.930353 1_455
Ir7_2 Y2_7 2.930353 1_455
Ir7_3 Y0_2 2.930353 1_556
Ir7_3 Y0_3 2.930353 1_555
Ir7_3 Y2_6 2.930353 1_456
Ir7_3 Y2_7 2.930353 1_455
Ir7_4 Y0_5 2.930353 1_555
Ir7_4 Y0_4 2.930353 1_555
Ir7_4 Y2_0 2.930353 1_555
Ir7_4 Y2_1 2.930353 1_555
Ir7_5 Y0_4 2.930353 1_556
Ir7_5 Y0_5 2.930353 1_555
Ir7_5 Y2_0 2.930353 1_556
Ir7_5 Y2_1 2.930353 1_555
Ir7_6 Y0_6 2.930353 1_555
Ir7_6 Y0_7 2.930353 1_555
Ir7_6 Y2_2 2.930353 1_555
Ir7_6 Y2_3 2.930353 1_555
Ir7_7 Y0_6 2.930353 1_556
Ir7_7 Y0_7 2.930353 1_555
Ir7_7 Y2_2 2.930353 1_556
Ir7_7 Y2_3 2.930353 1_555
Ir8_0 Y3_3 2.930353 1_545
Ir8_0 Y3_2 2.930353 1_545
Ir8_0 Y1_0 2.930353 1_555
Ir8_0 Y1_1 2.930353 1_555
Ir8_1 Y3_2 2.930353 1_546
Ir8_1 Y3_3 2.930353 1_545
Ir8_1 Y1_0 2.930353 1_556
Ir8_1 Y1_1 2.930353 1_555
Ir8_2 Y3_0 2.930353 1_555
Ir8_2 Y3_1 2.930353 1_555
Ir8_2 Y1_2 2.930353 1_555
Ir8_2 Y1_3 2.930353 1_555
Ir8_3 Y3_0 2.930353 1_556
Ir8_3 Y3_1 2.930353 1_555
Ir8_3 Y1_2 2.930353 1_556
Ir8_3 Y1_3 2.930353 1_555
Ir8_4 Y3_6 2.930353 1_545
Ir8_4 Y3_7 2.930353 1_545
Ir8_4 Y1_4 2.930353 1_555
Ir8_4 Y1_5 2.930353 1_555
Ir8_5 Y3_6 2.930353 1_546
Ir8_5 Y3_7 2.930353 1_545
Ir8_5 Y1_4 2.930353 1_556
Ir8_5 Y1_5 2.930353 1_555
Ir8_6 Y3_4 2.930353 1_555
Ir8_6 Y3_5 2.930353 1_555
Ir8_6 Y1_6 2.930353 1_555
Ir8_6 Y1_7 2.930353 1_555
Ir8_7 Y3_4 2.930353 1_556
Ir8_7 Y1_6 2.930353 1_556
Ir8_7 Y3_5 2.930353 1_555
Ir8_7 Y1_7 2.930353 1_555
Ir9_0 Y2_0 3.010939 1_555
Ir9_0 Y2_1 3.010939 1_555
Ir9_0 Y3_2 3.076950 1_545
Ir9_0 Y3_3 3.076950 1_545
Ir9_1 Y2_0 3.010939 1_556
Ir9_1 Y2_1 3.010939 1_555
Ir9_1 Y3_2 3.076950 1_546
Ir9_1 Y3_3 3.076950 1_545
Ir9_2 Y2_2 3.010939 1_555
Ir9_2 Y2_3 3.010939 1_555
Ir9_2 Y3_0 3.076950 1_555
Ir9_2 Y3_1 3.076950 1_555
Ir9_3 Y2_2 3.010939 1_556
Ir9_3 Y2_3 3.010939 1_555
Ir9_3 Y3_0 3.076950 1_556
Ir9_3 Y3_1 3.076950 1_555
Ir9_4 Y2_4 3.010939 1_555
Ir9_4 Y2_5 3.010939 1_555
Ir9_4 Y3_6 3.076950 1_545
Ir9_4 Y3_7 3.076950 1_545
Ir9_5 Y2_4 3.010939 1_556
Ir9_5 Y2_5 3.010939 1_555
Ir9_5 Y3_6 3.076950 1_546
Ir9_5 Y3_7 3.076950 1_545
Ir9_6 Y2_7 3.010939 1_555
Ir9_6 Y2_6 3.010939 1_555
Ir9_6 Y3_4 3.076950 1_555
Ir9_6 Y3_5 3.076950 1_555
Ir9_7 Y2_6 3.010939 1_556
Ir9_7 Y2_7 3.010939 1_555
Ir9_7 Y3_4 3.076950 1_556
Ir9_7 Y3_5 3.076950 1_555
