# generated using pymatgen
data_Mg3ZrP6N13
_symmetry_space_group_name_H-M   'P 1'
_cell_length_a   7.05243686
_cell_length_b   7.05243758
_cell_length_c   7.05243656
_cell_angle_alpha   109.33119382
_cell_angle_beta   109.33119356
_cell_angle_gamma   109.33119537
_symmetry_Int_Tables_number   1
_chemical_formula_structural   Mg3ZrP6N13
_chemical_formula_sum   'Mg3 Zr1 P6 N13'
_cell_volume   271.41073807
_cell_formula_units_Z   1
loop_
 _symmetry_equiv_pos_site_id
 _symmetry_equiv_pos_as_xyz
  1  'x, y, z'
loop_
 _atom_site_type_symbol
 _atom_site_label
 _atom_site_symmetry_multiplicity
 _atom_site_fract_x
 _atom_site_fract_y
 _atom_site_fract_z
 _atom_site_occupancy
  Mg  Mg0  1  0.99516572  0.69719777  0.99516572  1
  Mg  Mg1  1  0.69719777  0.99516572  0.99516572  1
  Mg  Mg2  1  0.99516572  0.99516572  0.69719777  1
  Zr  Zr0  1  0.28145101  0.28145101  0.28145101  1
  P  P0  1  0.50250798  0.25190604  0.75498663  1
  P  P1  1  0.50250798  0.75498663  0.25190604  1
  P  P2  1  0.75498663  0.25190604  0.50250798  1
  P  P3  1  0.25190604  0.50250798  0.75498663  1
  P  P4  1  0.75498663  0.50250798  0.25190604  1
  P  P5  1  0.25190604  0.75498663  0.50250798  1
  N  N0  1  0.99225433  0.99225433  0.99225433  1
  N  N1  1  0.00129349  0.73178594  0.45104358  1
  N  N2  1  0.26951219  0.71863431  0.26951219  1
  N  N3  1  0.28308767  0.55548689  0.55548689  1
  N  N4  1  0.55548689  0.55548689  0.28308767  1
  N  N5  1  0.55548689  0.28308767  0.55548689  1
  N  N6  1  0.73178594  0.00129349  0.45104358  1
  N  N7  1  0.45104358  0.00129349  0.73178594  1
  N  N8  1  0.73178594  0.45104358  0.00129349  1
  N  N9  1  0.26951219  0.26951219  0.71863431  1
  N  N10  1  0.71863431  0.26951219  0.26951219  1
  N  N11  1  0.00129349  0.45104358  0.73178594  1
  N  N12  1  0.45104358  0.73178594  0.00129349  1
loop_
_geom_bond_atom_site_label_1
_geom_bond_atom_site_label_2
_geom_bond_distance
_geom_bond_site_symmetry_2
Mg0 N0 2.094552 1_555
Mg0 N11 2.105634 1_655
Mg0 N8 2.105634 1_556
Mg0 N2 2.155024 1_656
Mg1 N0 2.094552 1_555
Mg1 N7 2.105634 1_565
Mg1 N12 2.105634 1_556
Mg1 N10 2.155025 1_566
Mg2 N0 2.094552 1_555
Mg2 N6 2.105634 1_565
Mg2 N1 2.105634 1_655
Mg2 N9 2.155025 1_665
N0 Zr0 2.053597 1_666
N1 P4 1.620555 1_455
N1 P5 1.620751 1_555
N2 P5 1.630479 1_555
N2 P1 1.630479 1_555
N3 P3 1.632779 1_555
N3 P5 1.632779 1_555
N3 Zr0 2.228867 1_555
N4 P4 1.632779 1_555
N4 P1 1.632779 1_555
N4 Zr0 2.228867 1_555
N5 P0 1.632779 1_555
N5 P2 1.632779 1_555
N5 Zr0 2.228867 1_555
N6 P1 1.620555 1_545
N6 P2 1.620751 1_555
N7 P5 1.620555 1_545
N7 P0 1.620751 1_555
N8 P0 1.620555 1_554
N8 P4 1.620751 1_555
N9 P0 1.630479 1_555
N9 P3 1.630479 1_555
N10 P2 1.630479 1_555
N10 P4 1.630479 1_555
N11 P2 1.620555 1_455
N11 P3 1.620751 1_555
N12 P3 1.620555 1_554
N12 P1 1.620751 1_555
