# generated using pymatgen
data_Hf4ZnRh8Au3
_symmetry_space_group_name_H-M   'P 1'
_cell_length_a   5.78934478
_cell_length_b   5.78859770
_cell_length_c   7.42919672
_cell_angle_alpha   90.00000000
_cell_angle_beta   89.99937025
_cell_angle_gamma   90.00000000
_symmetry_Int_Tables_number   1
_chemical_formula_structural   Hf4ZnRh8Au3
_chemical_formula_sum   'Hf4 Zn1 Rh8 Au3'
_cell_volume   248.96863643
_cell_formula_units_Z   1
loop_
 _symmetry_equiv_pos_site_id
 _symmetry_equiv_pos_as_xyz
  1  'x, y, z'
loop_
 _atom_site_type_symbol
 _atom_site_label
 _atom_site_symmetry_multiplicity
 _atom_site_fract_x
 _atom_site_fract_y
 _atom_site_fract_z
 _atom_site_occupancy
  Hf  Hf0  1  0.75006356  0.25000000  0.00001627  1
  Hf  Hf1  1  0.24992302  0.75000100  0.00001601  1
  Hf  Hf2  1  0.75009145  0.25000000  0.49998449  1
  Hf  Hf3  1  0.24991097  0.75000100  0.49998490  1
  Zn  Zn0  1  0.25007098  0.25000000  0.49998331  1
  Rh  Rh0  1  0.00319123  0.00320816  0.25508184  1
  Rh  Rh1  1  0.00319123  0.49679284  0.25508184  1
  Rh  Rh2  1  0.49679260  0.00320970  0.25508781  1
  Rh  Rh3  1  0.49679260  0.49678930  0.25508781  1
  Rh  Rh4  1  0.49679550  0.00321000  0.74490963  1
  Rh  Rh5  1  0.49679550  0.49679100  0.74490963  1
  Rh  Rh6  1  0.00319045  0.00320715  0.74491624  1
  Rh  Rh7  1  0.00319045  0.49679185  0.74491624  1
  Au  Au0  1  0.24997950  0.25000000  0.00001806  1
  Au  Au1  1  0.75003269  0.75000100  0.00001547  1
  Au  Au2  1  0.74999127  0.75000100  0.49998749  1
loop_
_geom_bond_atom_site_label_1
_geom_bond_atom_site_label_2
_geom_bond_distance
_geom_bond_site_symmetry_2
Hf0 Rh0 2.789120 1_655
Hf0 Rh1 2.789123 1_655
Hf0 Rh7 2.789270 1_654
Hf0 Rh6 2.789273 1_654
Hf0 Rh3 2.789557 1_555
Hf0 Rh2 2.789560 1_555
Hf0 Rh4 2.789749 1_554
Hf0 Rh5 2.789752 1_554
Hf1 Rh0 2.789159 1_565
Hf1 Rh1 2.789162 1_555
Hf1 Rh6 2.789350 1_564
Hf1 Rh7 2.789360 1_554
Hf1 Rh2 2.789623 1_565
Hf1 Rh3 2.789632 1_555
Hf1 Rh4 2.789786 1_564
Hf1 Rh5 2.789789 1_554
Hf2 Rh0 2.738276 1_655
Hf2 Rh1 2.738279 1_655
Hf2 Rh7 2.738439 1_655
Hf2 Rh6 2.738442 1_655
Hf2 Rh3 2.738877 1_555
Hf2 Rh2 2.738880 1_555
Hf2 Rh4 2.738989 1_555
Hf2 Rh5 2.738992 1_555
Hf2 Zn0 2.894554 1_655
Hf2 Zn0 2.894791 1_555
Hf3 Rh0 2.738409 1_565
Hf3 Rh1 2.738412 1_555
Hf3 Rh6 2.738527 1_565
Hf3 Rh7 2.738536 1_555
Hf3 Rh2 2.738852 1_565
Hf3 Rh3 2.738862 1_555
Hf3 Rh4 2.739019 1_565
Hf3 Rh5 2.739022 1_555
Hf3 Zn0 2.894293 1_565
Hf3 Zn0 2.894305 1_555
Rh0 Zn0 2.719192 1_555
Rh1 Zn0 2.719195 1_555
Rh2 Zn0 2.718656 1_555
Rh3 Zn0 2.718653 1_555
Rh4 Zn0 2.718838 1_555
Rh5 Zn0 2.718841 1_555
Rh6 Zn0 2.719333 1_555
Rh7 Zn0 2.719330 1_555
Au0 Rh0 2.769982 1_555
Au0 Rh1 2.769985 1_555
Au0 Rh3 2.770100 1_555
Au0 Rh2 2.770103 1_555
Au0 Rh7 2.770199 1_554
Au0 Rh6 2.770202 1_554
Au0 Rh4 2.770286 1_554
Au0 Rh5 2.770289 1_554
Au0 Hf0 2.894186 1_455
Au0 Hf1 2.894293 1_545
Au0 Hf1 2.894305 1_555
Au0 Hf0 2.895159 1_555
Au1 Rh0 2.808419 1_665
Au1 Rh1 2.808422 1_655
Au1 Rh6 2.808557 1_664
Au1 Rh7 2.808566 1_654
Au1 Rh2 2.808678 1_565
Au1 Rh3 2.808687 1_555
Au1 Rh4 2.808860 1_564
Au1 Rh5 2.808863 1_554
Au1 Hf1 2.894038 1_655
Au1 Hf0 2.894293 1_565
Au1 Hf0 2.894305 1_555
Au1 Hf1 2.895307 1_555
Au2 Rh2 2.758148 1_565
Au2 Rh0 2.758155 1_665
Au2 Rh3 2.758157 1_555
Au2 Rh1 2.758158 1_655
Au2 Rh4 2.758228 1_565
Au2 Rh5 2.758231 1_555
Au2 Rh6 2.758284 1_665
Au2 Rh7 2.758293 1_655
Au2 Hf3 2.894208 1_655
Au2 Hf2 2.894293 1_565
Au2 Hf2 2.894305 1_555
Au2 Hf3 2.895137 1_555
