# generated using pymatgen
data_Ho(Al2Fe)4
_symmetry_space_group_name_H-M   'P 1'
_cell_length_a   4.98396564
_cell_length_b   6.63236169
_cell_length_c   6.63237006
_cell_angle_alpha   81.88926276
_cell_angle_beta   67.96729089
_cell_angle_gamma   67.96729418
_symmetry_Int_Tables_number   1
_chemical_formula_structural   Ho(Al2Fe)4
_chemical_formula_sum   'Ho1 Al8 Fe4'
_cell_volume   188.38363800
_cell_formula_units_Z   1
loop_
 _symmetry_equiv_pos_site_id
 _symmetry_equiv_pos_as_xyz
  1  'x, y, z'
loop_
 _atom_site_type_symbol
 _atom_site_label
 _atom_site_symmetry_multiplicity
 _atom_site_fract_x
 _atom_site_fract_y
 _atom_site_fract_z
 _atom_site_occupancy
  Ho  Ho0  1  0.00000000  -0.00000000  0.00000000  1
  Al  Al0  1  0.34118927  0.65863579  0.65862370  1
  Al  Al1  1  0.00000787  0.34142517  0.65856248  1
  Al  Al2  1  -0.00000787  0.65857483  0.34143752  1
  Al  Al3  1  0.65881073  0.34136421  0.34137630  1
  Al  Al4  1  0.27861367  0.22155239  0.22157189  1
  Al  Al5  1  0.49998847  0.77853558  0.22148373  1
  Al  Al6  1  0.50001153  0.22146442  0.77851627  1
  Al  Al7  1  0.72138633  0.77844761  0.77842811  1
  Fe  Fe0  1  0.50000000  -0.00000000  0.50000000  1
  Fe  Fe1  1  0.00000000  0.50000000  0.00000000  1
  Fe  Fe2  1  0.50000000  0.50000000  0.00000000  1
  Fe  Fe3  1  0.00000000  -0.00000000  0.50000000  1
loop_
_geom_bond_atom_site_label_1
_geom_bond_atom_site_label_2
_geom_bond_distance
_geom_bond_site_symmetry_2
Al0 Fe3 2.627918 1_565
Al0 Fe1 2.628006 1_556
Al0 Fe0 2.628089 1_565
Al0 Fe2 2.628179 1_556
Al0 Al7 2.700177 1_555
Al0 Al7 2.701873 1_455
Al0 Al3 2.759022 1_555
Al0 Al5 2.786502 1_555
Al0 Al6 2.786674 1_555
Al0 Ho0 2.968696 1_566
Al1 Fe3 2.627885 1_555
Al1 Fe1 2.627968 1_556
Al1 Fe0 2.629747 1_555
Al1 Fe2 2.629845 1_456
Al1 Al6 2.701356 1_455
Al1 Al6 2.701358 1_555
Al1 Al2 2.756801 1_555
Al1 Al4 2.786169 1_555
Al1 Al7 2.786343 1_455
Al1 Ho0 2.967984 1_556
Al2 Fe3 2.627885 1_565
Al2 Fe1 2.627968 1_555
Al2 Fe0 2.629747 1_465
Al2 Fe2 2.629845 1_555
Al2 Al5 2.701356 1_555
Al2 Al5 2.701358 1_455
Al2 Al7 2.786169 1_455
Al2 Al4 2.786343 1_555
Al2 Ho0 2.967984 1_565
Al3 Fe3 2.627918 1_655
Al3 Fe1 2.628006 1_655
Al3 Fe0 2.628089 1_555
Al3 Fe2 2.628179 1_555
Al3 Al4 2.700177 1_555
Al3 Al4 2.701873 1_655
Al3 Al6 2.786502 1_555
Al3 Al5 2.786674 1_555
Al3 Ho0 2.968696 1_655
Al4 Fe0 2.516608 1_555
Al4 Fe2 2.516752 1_555
Al4 Fe3 2.517696 1_555
Al4 Fe1 2.517843 1_555
Al4 Al5 2.723668 1_545
Al4 Al6 2.723910 1_554
Al4 Ho0 3.149313 1_555
Al4 Ho0 3.150693 1_655
Al5 Fe0 2.517033 1_565
Al5 Fe2 2.517168 1_555
Al5 Fe3 2.518975 1_565
Al5 Fe1 2.519129 1_655
Al5 Al7 2.723910 1_554
Al5 Ho0 3.149035 1_565
Al5 Ho0 3.149048 1_665
Al6 Fe0 2.517033 1_555
Al6 Fe2 2.517168 1_556
Al6 Fe3 2.518975 1_655
Al6 Fe1 2.519129 1_556
Al6 Al7 2.723668 1_545
Al6 Ho0 3.149035 1_656
Al6 Ho0 3.149048 1_556
Al7 Fe0 2.516608 1_565
Al7 Fe2 2.516752 1_556
Al7 Fe3 2.517696 1_665
Al7 Fe1 2.517843 1_656
Al7 Ho0 3.149313 1_666
Al7 Ho0 3.150693 1_566
Fe0 Fe3 2.491983 1_555
Fe0 Fe3 2.491983 1_655
Fe0 Ho0 3.317666 1_655
Fe0 Ho0 3.317666 1_556
Fe1 Fe2 2.491983 1_555
Fe1 Fe2 2.491983 1_455
Fe1 Ho0 3.316181 1_555
Fe1 Ho0 3.316181 1_565
Fe2 Ho0 3.317663 1_655
Fe2 Ho0 3.317663 1_565
Fe3 Ho0 3.316185 1_556
Fe3 Ho0 3.316185 1_555
