# generated using pymatgen
data_Si3Ag3(GeP3)2
_symmetry_space_group_name_H-M   'P 1'
_cell_length_a   8.83836888
_cell_length_b   8.83836891
_cell_length_c   8.83836872
_cell_angle_alpha   109.47122244
_cell_angle_beta   109.47122250
_cell_angle_gamma   109.47122189
_symmetry_Int_Tables_number   1
_chemical_formula_structural   Si3Ag3(GeP3)2
_chemical_formula_sum   'Si6 Ag6 Ge4 P12'
_cell_volume   531.48920329
_cell_formula_units_Z   2
loop_
 _symmetry_equiv_pos_site_id
 _symmetry_equiv_pos_as_xyz
  1  'x, y, z'
loop_
 _atom_site_type_symbol
 _atom_site_label
 _atom_site_symmetry_multiplicity
 _atom_site_fract_x
 _atom_site_fract_y
 _atom_site_fract_z
 _atom_site_occupancy
  Si  Si0  1  0.25000000  0.75000000  0.50000000  1
  Si  Si1  1  0.75000000  0.25000000  0.50000000  1
  Si  Si2  1  0.75000000  0.50000000  0.25000000  1
  Si  Si3  1  0.50000000  0.75000000  0.25000000  1
  Si  Si4  1  0.25000000  0.50000000  0.75000000  1
  Si  Si5  1  0.50000000  0.25000000  0.75000000  1
  Ag  Ag0  1  0.19850761  0.19850761  1.00000000  1
  Ag  Ag1  1  0.80149239  0.80149239  0.00000000  1
  Ag  Ag2  1  1.00000000  0.19850761  0.19850761  1
  Ag  Ag3  1  0.00000000  0.80149239  0.80149239  1
  Ag  Ag4  1  0.80149239  0.00000000  0.80149239  1
  Ag  Ag5  1  0.19850761  1.00000000  0.19850761  1
  Ge  Ge0  1  0.41936777  0.41936777  0.41936777  1
  Ge  Ge1  1  0.58063223  1.00000000  1.00000000  1
  Ge  Ge2  1  1.00000000  1.00000000  0.58063223  1
  Ge  Ge3  1  1.00000000  0.58063223  1.00000000  1
  P  P0  1  0.50234246  0.50234246  0.74141428  1
  P  P1  1  0.00000000  0.49765754  0.23907282  1
  P  P2  1  0.49765754  0.00000000  0.23907282  1
  P  P3  1  0.50234246  0.74141428  0.50234246  1
  P  P4  1  0.23907282  0.49765754  0.00000000  1
  P  P5  1  0.49765754  0.23907282  0.00000000  1
  P  P6  1  0.76092718  0.76092718  0.25858572  1
  P  P7  1  0.76092718  0.25858572  0.76092718  1
  P  P8  1  0.74141428  0.50234246  0.50234246  1
  P  P9  1  0.23907282  0.00000000  0.49765754  1
  P  P10  1  0.00000000  0.23907282  0.49765754  1
  P  P11  1  0.25858572  0.76092718  0.76092718  1
loop_
_geom_bond_atom_site_label_1
_geom_bond_atom_site_label_2
_geom_bond_distance
_geom_bond_site_symmetry_2
Ag0 P5 2.547017 1_556
Ag0 P4 2.547017 1_556
Ag0 Ge0 3.028515 1_556
Ag0 Ge2 3.028515 1_445
Ag1 P0 2.547019 1_554
Ag1 P6 2.547026 1_555
Ag1 Ge1 3.028515 1_554
Ag1 Ge3 3.028515 1_554
Ag2 P10 2.547017 1_655
Ag2 P1 2.547017 1_655
Ag2 Ge0 3.028515 1_655
Ag2 Ge1 3.028515 1_544
Ag3 P8 2.547019 1_455
Ag3 P11 2.547026 1_555
Ag3 Ge2 3.028515 1_455
Ag3 Ge3 3.028515 1_455
Ag4 P3 2.547019 1_545
Ag4 P7 2.547026 1_555
Ag4 Ge2 3.028515 1_545
Ag4 Ge1 3.028515 1_545
Ag5 P9 2.547017 1_565
Ag5 P2 2.547017 1_565
Ag5 Ge0 3.028515 1_565
Ag5 Ge3 3.028515 1_454
Ge0 P0 2.456760 1_555
Ge0 P8 2.456760 1_555
Ge0 P3 2.456760 1_555
Ge1 P11 2.456764 1_555
Ge1 P2 2.456769 1_566
Ge1 P5 2.456769 1_566
Ge2 P6 2.456764 1_555
Ge2 P9 2.456769 1_665
Ge2 P10 2.456769 1_665
Ge3 P7 2.456764 1_555
Ge3 P1 2.456769 1_656
Ge3 P4 2.456769 1_656
P0 Si4 2.250222 1_555
P0 Si5 2.250222 1_555
P1 Si0 2.250219 1_555
P1 Si2 2.250219 1_455
P2 Si1 2.250219 1_555
P2 Si3 2.250219 1_545
P3 Si3 2.250222 1_555
P3 Si0 2.250222 1_555
P4 Si3 2.250219 1_555
P4 Si4 2.250219 1_554
P5 Si2 2.250219 1_555
P5 Si5 2.250219 1_554
P6 Si3 2.250216 1_555
P6 Si2 2.250216 1_555
P7 Si1 2.250216 1_555
P7 Si5 2.250216 1_555
P8 Si2 2.250222 1_555
P8 Si1 2.250222 1_555
P9 Si5 2.250219 1_555
P9 Si0 2.250219 1_545
P10 Si4 2.250219 1_555
P10 Si1 2.250219 1_455
P11 Si0 2.250216 1_555
P11 Si4 2.250216 1_555
