# generated using pymatgen
data_Sr3TiSiS7
_symmetry_space_group_name_H-M   'P 1'
_cell_length_a   10.60376330
_cell_length_b   10.60365228
_cell_length_c   6.06315743
_cell_angle_alpha   90.00000000
_cell_angle_beta   90.00000000
_cell_angle_gamma   119.99984405
_symmetry_Int_Tables_number   1
_chemical_formula_structural   Sr3TiSiS7
_chemical_formula_sum   'Sr6 Ti2 Si2 S14'
_cell_volume   590.39906551
_cell_formula_units_Z   2
loop_
 _symmetry_equiv_pos_site_id
 _symmetry_equiv_pos_as_xyz
  1  'x, y, z'
loop_
 _atom_site_type_symbol
 _atom_site_label
 _atom_site_symmetry_multiplicity
 _atom_site_fract_x
 _atom_site_fract_y
 _atom_site_fract_z
 _atom_site_occupancy
  Sr  Sr0  1  0.13061727  0.38789698  0.23299082  1
  Sr  Sr1  1  0.25728616  0.86938516  0.23299086  1
  Sr  Sr2  1  0.61209238  0.74271611  0.23298597  1
  Sr  Sr3  1  0.86938373  0.61210302  0.73298982  1
  Sr  Sr4  1  0.74271384  0.13061484  0.73298986  1
  Sr  Sr5  1  0.38790662  0.25728289  0.73298697  1
  Ti  Ti0  1  0.99997959  0.99997152  0.06443190  1
  Ti  Ti1  1  0.00002041  0.00002848  0.56443290  1
  Si  Si0  1  0.66666673  0.33333466  0.15446858  1
  Si  Si1  1  0.33333327  0.66666534  0.65446758  1
  S  S0  1  0.33333072  0.66666439  0.00154243  1
  S  S1  1  0.52007398  0.12247851  0.02705532  1
  S  S2  1  0.60240689  0.47992776  0.02705383  1
  S  S3  1  0.87752249  0.39759340  0.02704940  1
  S  S4  1  0.20759735  0.13895007  0.27714342  1
  S  S5  1  0.86104073  0.06864758  0.27714483  1
  S  S6  1  0.93134470  0.79238275  0.27714464  1
  S  S7  1  0.66667028  0.33333461  0.50154143  1
  S  S8  1  0.47992602  0.87752049  0.52705432  1
  S  S9  1  0.39759311  0.52007324  0.52705283  1
  S  S10  1  0.12247651  0.60240560  0.52705040  1
  S  S11  1  0.79240265  0.86105093  0.77714442  1
  S  S12  1  0.06865530  0.20761825  0.77714364  1
  S  S13  1  0.13895927  0.93135342  0.77714383  1
loop_
_geom_bond_atom_site_label_1
_geom_bond_atom_site_label_2
_geom_bond_distance
_geom_bond_site_symmetry_2
S0 Si1 2.104369 1_554
S0 Sr2 2.995542 1_555
S0 Sr1 2.995582 1_555
S0 Sr0 2.995584 1_555
S1 Si0 2.129932 1_555
S1 Sr4 2.925099 1_554
S1 Sr1 3.007979 1_545
S1 Sr5 3.031446 1_554
S2 Si0 2.129909 1_555
S2 Sr5 2.925107 1_554
S2 Sr2 3.007996 1_555
S2 Sr3 3.031484 1_554
S3 Si0 2.129967 1_555
S3 Sr3 2.925119 1_554
S3 Sr0 3.008023 1_655
S3 Sr4 3.031460 1_554
S4 Ti0 2.331837 1_445
S4 Ti1 2.608939 1_555
S4 Sr0 3.140222 1_555
S4 Sr1 3.166324 1_545
S4 Sr5 3.235713 1_555
S5 Ti0 2.331749 1_545
S5 Ti1 2.609145 1_655
S5 Sr2 3.140273 1_545
S5 Sr0 3.166358 1_655
S5 Sr4 3.235647 1_555
S6 Ti0 2.331589 1_555
S6 Ti1 2.609401 1_665
S6 Sr1 3.140336 1_655
S6 Sr2 3.166433 1_555
S6 Sr3 3.235574 1_555
S7 Si0 2.104357 1_555
S7 Sr5 2.995566 1_555
S7 Sr4 2.995566 1_555
S7 Sr3 2.995591 1_555
S8 Si1 2.129925 1_555
S8 Sr1 2.925095 1_555
S8 Sr4 3.007983 1_565
S8 Sr2 3.031439 1_555
S9 Si1 2.129900 1_555
S9 Sr2 2.925094 1_555
S9 Sr5 3.008016 1_555
S9 Sr0 3.031469 1_555
S10 Si1 2.129970 1_555
S10 Sr0 2.925120 1_555
S10 Sr3 3.008003 1_455
S10 Sr1 3.031468 1_555
S11 Ti1 2.331836 1_665
S11 Ti0 2.608929 1_556
S11 Sr3 3.140241 1_555
S11 Sr4 3.166314 1_565
S11 Sr2 3.235709 1_556
S12 Ti1 2.331591 1_555
S12 Ti0 2.609409 1_446
S12 Sr4 3.140333 1_455
S12 Sr5 3.166429 1_555
S12 Sr0 3.235578 1_556
S13 Ti1 2.331736 1_565
S13 Ti0 2.609139 1_456
S13 Sr5 3.140254 1_565
S13 Sr3 3.166360 1_455
S13 Sr1 3.235662 1_556
