# generated using pymatgen
data_Ti10Be2SnSb5
_symmetry_space_group_name_H-M   'P 1'
_cell_length_a   8.08941020
_cell_length_b   8.09769614
_cell_length_c   5.43593600
_cell_angle_alpha   90.00000000
_cell_angle_beta   90.00000000
_cell_angle_gamma   119.96615298
_symmetry_Int_Tables_number   1
_chemical_formula_structural   Ti10Be2SnSb5
_chemical_formula_sum   'Ti10 Be2 Sn1 Sb5'
_cell_volume   308.48306165
_cell_formula_units_Z   1
loop_
 _symmetry_equiv_pos_site_id
 _symmetry_equiv_pos_as_xyz
  1  'x, y, z'
loop_
 _atom_site_type_symbol
 _atom_site_label
 _atom_site_symmetry_multiplicity
 _atom_site_fract_x
 _atom_site_fract_y
 _atom_site_fract_z
 _atom_site_occupancy
  Ti  Ti0  1  0.25425006  1.00000000  0.75000000  1
  Ti  Ti1  1  0.75047429  0.00000000  0.25000000  1
  Ti  Ti2  1  0.00008027  0.25575883  0.75000000  1
  Ti  Ti3  1  0.00102009  0.74927277  0.25000000  1
  Ti  Ti4  1  0.74432144  0.74424117  0.75000000  1
  Ti  Ti5  1  0.25174731  0.25072723  0.25000000  1
  Ti  Ti6  1  0.33186666  0.66474791  0.50062454  1
  Ti  Ti7  1  0.66711975  0.33525209  0.50062454  1
  Ti  Ti8  1  0.66711975  0.33525209  0.99937546  1
  Ti  Ti9  1  0.33186666  0.66474791  0.99937546  1
  Be  Be0  1  0.99878434  0.00000000  0.50683956  1
  Be  Be1  1  0.99878434  0.00000000  0.99316044  1
  Sn  Sn0  1  0.61274619  0.00000000  0.75000000  1
  Sb  Sb0  1  0.39239623  1.00000000  0.25000000  1
  Sb  Sb1  1  0.00017375  0.61345187  0.75000000  1
  Sb  Sb2  1  0.99932298  0.38811897  0.25000000  1
  Sb  Sb3  1  0.38672188  0.38654813  0.75000000  1
  Sb  Sb4  1  0.61120401  0.61188103  0.25000000  1
loop_
_geom_bond_atom_site_label_1
_geom_bond_atom_site_label_2
_geom_bond_distance
_geom_bond_site_symmetry_2
Ti6 Ti9 2.711178 1_555
Ti6 Ti9 2.724758 1_554
Ti7 Ti8 2.711178 1_555
Ti7 Ti8 2.724758 1_554
Be0 Ti1 2.446237 1_555
Be0 Ti2 2.452522 1_655
Be0 Ti4 2.452523 1_545
Be0 Ti0 2.453134 1_645
Be0 Ti3 2.471528 1_645
Be0 Ti5 2.471528 1_655
Be1 Ti1 2.446237 1_556
Be1 Ti2 2.452522 1_655
Be1 Ti4 2.452523 1_545
Be1 Ti0 2.453134 1_645
Be1 Ti3 2.471528 1_646
Be1 Ti5 2.471528 1_656
Sn0 Ti4 2.761206 1_545
Sn0 Ti2 2.761207 1_655
Sn0 Ti8 2.864995 1_555
Sn0 Ti7 2.864995 1_555
Sn0 Ti9 2.864997 1_545
Sn0 Ti6 2.864997 1_545
Sn0 Ti0 2.900022 1_545
Sn0 Ti1 2.937457 1_555
Sn0 Ti1 2.937457 1_556
Sb0 Ti5 2.779270 1_565
Sb0 Ti3 2.779270 1_555
Sb0 Ti6 2.852698 1_555
Sb0 Ti9 2.852698 1_554
Sb0 Ti7 2.852700 1_565
Sb0 Ti8 2.852700 1_564
Sb0 Ti1 2.896640 1_565
Sb0 Ti0 2.938742 1_555
Sb0 Ti0 2.938742 1_554
Sb1 Ti4 2.755914 1_455
Sb1 Ti0 2.755959 1_555
Sb1 Ti9 2.845403 1_555
Sb1 Ti6 2.845403 1_555
Sb1 Ti8 2.847482 1_455
Sb1 Ti7 2.847482 1_455
Sb1 Ti2 2.896112 1_555
Sb1 Ti3 2.930787 1_556
Sb1 Ti3 2.930787 1_555
Sb2 Ti1 2.758570 1_555
Sb2 Ti5 2.770717 1_655
Sb2 Ti6 2.844416 1_655
Sb2 Ti9 2.844416 1_654
Sb2 Ti7 2.848124 1_555
Sb2 Ti8 2.848124 1_554
Sb2 Ti3 2.917681 1_655
Sb2 Ti2 2.922795 1_655
Sb2 Ti2 2.922795 1_654
Sb3 Ti2 2.755914 1_555
Sb3 Ti0 2.755958 1_545
Sb3 Ti8 2.845410 1_555
Sb3 Ti7 2.845410 1_555
Sb3 Ti9 2.847486 1_555
Sb3 Ti6 2.847486 1_555
Sb3 Ti4 2.896112 1_555
Sb3 Ti5 2.930787 1_555
Sb3 Ti5 2.930787 1_556
Sb4 Ti1 2.758570 1_565
Sb4 Ti3 2.770717 1_655
Sb4 Ti7 2.844421 1_555
Sb4 Ti8 2.844421 1_554
Sb4 Ti6 2.848131 1_555
Sb4 Ti9 2.848131 1_554
Sb4 Ti5 2.917681 1_555
Sb4 Ti4 2.922795 1_554
Sb4 Ti4 2.922795 1_555
