# generated using pymatgen
data_Cs4VReBr12
_symmetry_space_group_name_H-M   'P 1'
_cell_length_a   7.71226833
_cell_length_b   7.71599889
_cell_length_c   10.60961047
_cell_angle_alpha   90.00000000
_cell_angle_beta   90.00000000
_cell_angle_gamma   90.00000000
_symmetry_Int_Tables_number   1
_chemical_formula_structural   Cs4VReBr12
_chemical_formula_sum   'Cs4 V1 Re1 Br12'
_cell_volume   631.35514943
_cell_formula_units_Z   1
loop_
 _symmetry_equiv_pos_site_id
 _symmetry_equiv_pos_as_xyz
  1  'x, y, z'
loop_
 _atom_site_type_symbol
 _atom_site_label
 _atom_site_symmetry_multiplicity
 _atom_site_fract_x
 _atom_site_fract_y
 _atom_site_fract_z
 _atom_site_occupancy
  Cs  Cs0  1  0.50000000  0.00000000  0.75405758  1
  Cs  Cs1  1  0.00000000  0.50000000  0.24587245  1
  Cs  Cs2  1  0.50000000  0.00000000  0.24594242  1
  Cs  Cs3  1  0.00000000  0.50000000  0.75412755  1
  V  V0  1  0.00000000  0.00000000  0.00000000  1
  Re  Re0  1  0.50000000  0.50000000  0.50000000  1
  Br  Br0  1  0.00000000  0.00000000  0.76746264  1
  Br  Br1  1  0.50000000  0.50000000  0.26181148  1
  Br  Br2  1  0.73245233  0.73243471  0.50000000  1
  Br  Br3  1  0.22989909  0.22960608  0.00000000  1
  Br  Br4  1  0.73245233  0.26756529  0.50000000  1
  Br  Br5  1  0.22989909  0.77039392  0.00000000  1
  Br  Br6  1  0.00000000  0.00000000  0.23253736  1
  Br  Br7  1  0.50000000  0.50000000  0.73818852  1
  Br  Br8  1  0.26754767  0.26756529  0.50000000  1
  Br  Br9  1  0.77010091  0.77039392  0.00000000  1
  Br  Br10  1  0.26754767  0.73243471  0.50000000  1
  Br  Br11  1  0.77010091  0.22960608  0.00000000  1
loop_
_geom_bond_atom_site_label_1
_geom_bond_atom_site_label_2
_geom_bond_distance
_geom_bond_site_symmetry_2
Br0 V0 2.467131 1_556
Br0 Cs0 3.858756 1_555
Br0 Cs0 3.858756 1_455
Br0 Cs3 3.860593 1_545
Br0 Cs3 3.860593 1_555
Br1 Re0 2.527087 1_555
Br1 Cs1 3.859840 1_655
Br1 Cs1 3.859840 1_555
Br1 Cs2 3.861671 1_555
Br1 Cs2 3.861671 1_565
Br2 Re0 2.535827 1_555
Br2 Cs0 3.839487 1_565
Br2 Cs2 3.839487 1_565
Br2 Cs3 3.839740 1_655
Br2 Cs1 3.839740 1_655
Br3 V0 2.506470 1_555
Br3 Cs2 3.779775 1_555
Br3 Cs0 3.779775 1_554
Br3 Cs1 3.781723 1_555
Br3 Cs3 3.781723 1_554
Br4 Re0 2.535827 1_555
Br4 Cs0 3.839487 1_555
Br4 Cs2 3.839487 1_555
Br4 Cs3 3.839740 1_655
Br4 Cs1 3.839740 1_655
Br5 V0 2.506470 1_565
Br5 Cs2 3.779775 1_565
Br5 Cs0 3.779775 1_564
Br5 Cs1 3.781723 1_555
Br5 Cs3 3.781723 1_554
Br6 V0 2.467131 1_555
Br6 Cs2 3.858756 1_555
Br6 Cs2 3.858756 1_455
Br6 Cs1 3.860593 1_555
Br6 Cs1 3.860593 1_545
Br7 Re0 2.527087 1_555
Br7 Cs3 3.859840 1_555
Br7 Cs3 3.859840 1_655
Br7 Cs0 3.861671 1_565
Br7 Cs0 3.861671 1_555
Br8 Re0 2.535827 1_555
Br8 Cs0 3.839487 1_555
Br8 Cs2 3.839487 1_555
Br8 Cs3 3.839740 1_555
Br8 Cs1 3.839740 1_555
Br9 V0 2.506470 1_665
Br9 Cs2 3.779775 1_565
Br9 Cs0 3.779775 1_564
Br9 Cs1 3.781723 1_655
Br9 Cs3 3.781723 1_654
Br10 Re0 2.535827 1_555
Br10 Cs0 3.839487 1_565
Br10 Cs2 3.839487 1_565
Br10 Cs3 3.839740 1_555
Br10 Cs1 3.839740 1_555
Br11 V0 2.506470 1_655
Br11 Cs2 3.779775 1_555
Br11 Cs0 3.779775 1_554
Br11 Cs1 3.781723 1_655
Br11 Cs3 3.781723 1_654
