# generated using pymatgen
data_CrAgBr18
_symmetry_space_group_name_H-M   'P 1'
_cell_length_a   8.97719872
_cell_length_b   8.97719926
_cell_length_c   8.97719972
_cell_angle_alpha   91.10837789
_cell_angle_beta   91.10837229
_cell_angle_gamma   91.10837890
_symmetry_Int_Tables_number   1
_chemical_formula_structural   CrAgBr18
_chemical_formula_sum   'Cr1 Ag1 Br18'
_cell_volume   723.06202588
_cell_formula_units_Z   1
loop_
 _symmetry_equiv_pos_site_id
 _symmetry_equiv_pos_as_xyz
  1  'x, y, z'
loop_
 _atom_site_type_symbol
 _atom_site_label
 _atom_site_symmetry_multiplicity
 _atom_site_fract_x
 _atom_site_fract_y
 _atom_site_fract_z
 _atom_site_occupancy
  Cr  Cr0  1  0.50000000  0.50000000  0.50000000  1
  Ag  Ag0  1  0.00000000  0.00000000  0.00000000  1
  Br  Br0  1  0.70357747  0.99004787  0.03066511  1
  Br  Br1  1  0.75330479  0.12963699  0.60050521  1
  Br  Br2  1  0.03066511  0.70357747  0.99004787  1
  Br  Br3  1  0.24669521  0.87036301  0.39949479  1
  Br  Br4  1  0.12963699  0.60050521  0.75330479  1
  Br  Br5  1  0.00995213  0.96933489  0.29642253  1
  Br  Br6  1  0.60050521  0.75330479  0.12963699  1
  Br  Br7  1  0.96933489  0.29642253  0.00995213  1
  Br  Br8  1  0.87036301  0.39949479  0.24669521  1
  Br  Br9  1  0.39949479  0.24669521  0.87036301  1
  Br  Br10  1  0.99004787  0.03066511  0.70357747  1
  Br  Br11  1  0.29642253  0.00995213  0.96933489  1
  Br  Br12  1  0.77661516  0.53840453  0.48210766  1
  Br  Br13  1  0.51789234  0.22338484  0.46159547  1
  Br  Br14  1  0.46159547  0.51789234  0.22338484  1
  Br  Br15  1  0.48210766  0.77661516  0.53840453  1
  Br  Br16  1  0.53840453  0.48210766  0.77661516  1
  Br  Br17  1  0.22338484  0.46159547  0.51789234  1
loop_
_geom_bond_atom_site_label_1
_geom_bond_atom_site_label_2
_geom_bond_distance
_geom_bond_site_symmetry_2
Ag0 Br11 2.680488 1_554
Ag0 Br0 2.680488 1_445
Ag0 Br7 2.680488 1_455
Ag0 Br2 2.680488 1_544
Ag0 Br5 2.680488 1_545
Ag0 Br10 2.680488 1_454
Br0 Br6 2.488218 1_555
Br1 Br10 2.488219 1_555
Br1 Br13 2.595577 1_555
Br2 Br4 2.488219 1_555
Br3 Br5 2.488219 1_555
Br7 Br8 2.488219 1_555
Br11 Br9 2.488218 1_555
Br12 Cr0 2.509092 1_555
Br12 Br8 2.595577 1_555
Br13 Cr0 2.509092 1_555
Br14 Cr0 2.509092 1_555
Br14 Br6 2.595577 1_555
Br15 Cr0 2.509092 1_555
Br15 Br3 2.595577 1_555
Br16 Cr0 2.509092 1_555
Br16 Br9 2.595577 1_555
Br17 Cr0 2.509092 1_555
Br17 Br4 2.595577 1_555
