# generated using pymatgen
data_K8SnP4
_symmetry_space_group_name_H-M   'P 1'
_cell_length_a   10.72151242
_cell_length_b   10.72151175
_cell_length_c   10.72151098
_cell_angle_alpha   59.99999934
_cell_angle_beta   60.00000139
_cell_angle_gamma   60.00000238
_symmetry_Int_Tables_number   1
_chemical_formula_structural   K8SnP4
_chemical_formula_sum   'K16 Sn2 P8'
_cell_volume   871.47129409
_cell_formula_units_Z   2
loop_
 _symmetry_equiv_pos_site_id
 _symmetry_equiv_pos_as_xyz
  1  'x, y, z'
loop_
 _atom_site_type_symbol
 _atom_site_label
 _atom_site_symmetry_multiplicity
 _atom_site_fract_x
 _atom_site_fract_y
 _atom_site_fract_z
 _atom_site_occupancy
  K  K0  1  0.62500000  0.12500000  0.62500000  1
  K  K1  1  0.62500000  0.62500000  0.12500000  1
  K  K2  1  0.12500000  0.62500000  0.62500000  1
  K  K3  1  0.62500000  0.62500000  0.62500000  1
  K  K4  1  0.02355929  0.02355929  0.47644071  1
  K  K5  1  0.77355929  0.22644071  0.22644071  1
  K  K6  1  0.22644071  0.77355929  0.77355929  1
  K  K7  1  0.77355929  0.77355929  0.22644071  1
  K  K8  1  0.77355929  0.22644071  0.77355929  1
  K  K9  1  0.22644071  0.77355929  0.22644071  1
  K  K10  1  0.47644071  0.02355929  0.47644071  1
  K  K11  1  0.47644071  0.02355929  0.02355929  1
  K  K12  1  0.02355929  0.47644071  0.47644071  1
  K  K13  1  0.02355929  0.47644071  0.02355929  1
  K  K14  1  0.22644071  0.22644071  0.77355929  1
  K  K15  1  0.47644071  0.47644071  0.02355929  1
  Sn  Sn0  1  0.75000000  0.75000000  0.75000000  1
  Sn  Sn1  1  0.50000000  0.50000000  0.50000000  1
  P  P0  1  0.40036115  0.79891554  0.40036115  1
  P  P1  1  0.84963885  0.84963885  0.45108446  1
  P  P2  1  0.45108446  0.84963885  0.84963885  1
  P  P3  1  0.84963885  0.84963885  0.84963885  1
  P  P4  1  0.79891554  0.40036115  0.40036115  1
  P  P5  1  0.40036115  0.40036115  0.40036115  1
  P  P6  1  0.40036115  0.40036115  0.79891554  1
  P  P7  1  0.84963885  0.45108446  0.84963885  1
loop_
_geom_bond_atom_site_label_1
_geom_bond_atom_site_label_2
_geom_bond_distance
_geom_bond_site_symmetry_2
K0 Sn0 3.282779 1_545
K0 Sn1 3.282779 1_555
K0 P4 3.449222 1_555
K0 P2 3.449222 1_545
K0 P6 3.449222 1_555
K0 P1 3.449222 1_545
K0 P3 3.449228 1_545
K0 P5 3.449228 1_555
K1 Sn1 3.282779 1_555
K1 Sn0 3.282779 1_554
K1 P4 3.449222 1_555
K1 P2 3.449222 1_554
K1 P0 3.449222 1_555
K1 P7 3.449222 1_554
K1 P3 3.449228 1_554
K1 P5 3.449228 1_555
K2 Sn1 3.282779 1_555
K2 Sn0 3.282779 1_455
K2 P6 3.449222 1_555
K2 P1 3.449222 1_455
K2 P0 3.449222 1_555
K2 P7 3.449222 1_455
K2 P3 3.449228 1_455
K2 P5 3.449228 1_555
K3 Sn0 3.282779 1_555
K3 Sn1 3.282779 1_555
K3 P2 3.449230 1_555
K3 P4 3.449230 1_555
K3 P7 3.449230 1_555
K3 P0 3.449230 1_555
K3 P1 3.449230 1_555
K3 P6 3.449230 1_555
K4 P1 3.393961 1_445
K4 P3 3.393968 1_445
K4 P4 3.424348 1_455
K4 P0 3.424349 1_545
K5 P4 3.393961 1_555
K5 P5 3.393968 1_555
K5 P7 3.424348 1_554
K5 P1 3.424348 1_545
K6 P0 3.393970 1_555
K6 P6 3.393971 1_555
K6 P3 3.424346 1_455
K6 P2 3.424356 1_555
K7 P4 3.393971 1_555
K7 P0 3.393971 1_555
K7 P3 3.424346 1_554
K7 P1 3.424356 1_555
K8 P4 3.393970 1_555
K8 P6 3.393971 1_555
K8 P3 3.424346 1_545
K8 P7 3.424356 1_555
K9 P0 3.393961 1_555
K9 P5 3.393968 1_555
K9 P2 3.424348 1_554
K9 P1 3.424349 1_455
K10 P2 3.393970 1_545
K10 P1 3.393971 1_545
K10 P5 3.424346 1_555
K10 P0 3.424356 1_545
K11 P2 3.393961 1_544
K11 P3 3.393968 1_544
K11 P0 3.424348 1_545
K11 P6 3.424348 1_554
K12 P7 3.393970 1_455
K12 P1 3.393971 1_455
K12 P5 3.424346 1_555
K12 P4 3.424356 1_455
K13 P7 3.393961 1_454
K13 P3 3.393968 1_454
K13 P4 3.424348 1_455
K13 P6 3.424349 1_554
K14 P6 3.393961 1_555
K14 P5 3.393968 1_555
K14 P2 3.424348 1_545
K14 P7 3.424349 1_455
K15 P2 3.393971 1_554
K15 P7 3.393971 1_554
K15 P5 3.424346 1_555
K15 P6 3.424356 1_554
P0 Sn1 2.616730 1_555
P1 Sn0 2.616730 1_555
P2 Sn0 2.616730 1_555
P3 Sn0 2.616739 1_555
P4 Sn1 2.616730 1_555
P5 Sn1 2.616739 1_555
P6 Sn1 2.616730 1_555
P7 Sn0 2.616730 1_555
