# generated using pymatgen
data_Hf4OsPt
_symmetry_space_group_name_H-M   'P 1'
_cell_length_a   8.76138610
_cell_length_b   8.76138577
_cell_length_c   8.76138617
_cell_angle_alpha   60.00000224
_cell_angle_beta   60.00000349
_cell_angle_gamma   60.00000322
_symmetry_Int_Tables_number   1
_chemical_formula_structural   Hf4OsPt
_chemical_formula_sum   'Hf16 Os4 Pt4'
_cell_volume   475.55798357
_cell_formula_units_Z   4
loop_
 _symmetry_equiv_pos_site_id
 _symmetry_equiv_pos_as_xyz
  1  'x, y, z'
loop_
 _atom_site_type_symbol
 _atom_site_label
 _atom_site_symmetry_multiplicity
 _atom_site_fract_x
 _atom_site_fract_y
 _atom_site_fract_z
 _atom_site_occupancy
  Hf  Hf0  1  0.16189846  0.61270051  0.61270051  1
  Hf  Hf1  1  0.61270051  0.16189846  0.61270051  1
  Hf  Hf2  1  0.61270051  0.61270051  0.16189846  1
  Hf  Hf3  1  0.61270051  0.61270051  0.61270051  1
  Hf  Hf4  1  0.81741061  0.81741061  0.18258939  1
  Hf  Hf5  1  0.18258939  0.18258939  0.81741061  1
  Hf  Hf6  1  0.81741061  0.18258939  0.81741061  1
  Hf  Hf7  1  0.18258939  0.81741061  0.18258939  1
  Hf  Hf8  1  0.18258939  0.81741061  0.81741061  1
  Hf  Hf9  1  0.81741061  0.18258939  0.18258939  1
  Hf  Hf10  1  0.46084102  0.46084102  0.03915898  1
  Hf  Hf11  1  0.03915898  0.03915898  0.46084102  1
  Hf  Hf12  1  0.46084102  0.03915898  0.46084102  1
  Hf  Hf13  1  0.03915898  0.46084102  0.03915898  1
  Hf  Hf14  1  0.03915898  0.46084102  0.46084102  1
  Hf  Hf15  1  0.46084102  0.03915898  0.03915898  1
  Os  Os0  1  0.49735932  0.83421356  0.83421356  1
  Os  Os1  1  0.83421356  0.49735932  0.83421356  1
  Os  Os2  1  0.83421356  0.83421356  0.49735932  1
  Os  Os3  1  0.83421356  0.83421356  0.83421356  1
  Pt  Pt0  1  0.82024456  0.39325148  0.39325148  1
  Pt  Pt1  1  0.39325148  0.82024456  0.39325148  1
  Pt  Pt2  1  0.39325148  0.39325148  0.82024456  1
  Pt  Pt3  1  0.39325148  0.39325148  0.39325148  1
loop_
_geom_bond_atom_site_label_1
_geom_bond_atom_site_label_2
_geom_bond_distance
_geom_bond_site_symmetry_2
Hf0 Pt1 2.721070 1_555
Hf0 Pt2 2.721070 1_555
Hf0 Pt3 2.721076 1_555
Hf0 Os1 2.898000 1_455
Hf0 Os2 2.898000 1_455
Hf0 Os3 2.898000 1_455
Hf1 Pt0 2.721070 1_555
Hf1 Pt2 2.721070 1_555
Hf1 Pt3 2.721076 1_555
Hf1 Os0 2.898000 1_545
Hf1 Os2 2.898000 1_545
Hf1 Os3 2.898000 1_545
Hf2 Pt0 2.721070 1_555
Hf2 Pt1 2.721070 1_555
Hf2 Pt3 2.721076 1_555
Hf2 Os0 2.898000 1_554
Hf2 Os3 2.898000 1_554
Hf2 Os1 2.898000 1_554
Hf3 Pt2 2.721077 1_555
Hf3 Pt0 2.721077 1_555
Hf3 Pt1 2.721077 1_555
Hf3 Os2 2.898000 1_555
Hf3 Os0 2.898000 1_555
Hf3 Os1 2.898000 1_555
Hf4 Os2 2.912489 1_555
Hf4 Os3 2.912489 1_554
Hf4 Pt0 3.211239 1_555
Hf4 Pt1 3.211239 1_555
Hf5 Os0 2.912489 1_545
Hf5 Os1 2.912489 1_455
Hf5 Pt2 3.211231 1_555
Hf5 Pt3 3.211237 1_555
Hf6 Os1 2.912489 1_555
Hf6 Os3 2.912489 1_545
Hf6 Pt0 3.211239 1_555
Hf6 Pt2 3.211239 1_555
Hf7 Os0 2.912489 1_554
Hf7 Os2 2.912489 1_455
Hf7 Pt1 3.211231 1_555
Hf7 Pt3 3.211237 1_555
Hf8 Os0 2.912489 1_555
Hf8 Os3 2.912489 1_455
Hf8 Pt2 3.211239 1_555
Hf8 Pt1 3.211239 1_555
Hf9 Os2 2.912489 1_545
Hf9 Os1 2.912489 1_554
Hf9 Pt0 3.211231 1_555
Hf9 Pt3 3.211237 1_555
Hf10 Pt3 2.646180 1_555
Hf10 Pt2 2.646188 1_554
Hf10 Os0 2.936998 1_554
Hf10 Os1 2.936998 1_554
Hf11 Pt0 2.646182 1_455
Hf11 Pt1 2.646182 1_545
Hf11 Os2 2.936998 1_445
Hf11 Os3 2.936998 1_445
Hf12 Pt3 2.646180 1_555
Hf12 Pt1 2.646188 1_545
Hf12 Os0 2.936998 1_545
Hf12 Os2 2.936998 1_545
Hf13 Pt0 2.646182 1_455
Hf13 Pt2 2.646182 1_554
Hf13 Os1 2.936998 1_454
Hf13 Os3 2.936998 1_454
Hf14 Pt3 2.646180 1_555
Hf14 Pt0 2.646188 1_455
Hf14 Os2 2.936998 1_455
Hf14 Os1 2.936998 1_455
Hf15 Pt2 2.646182 1_554
Hf15 Pt1 2.646182 1_545
Hf15 Os0 2.936998 1_544
Hf15 Os3 2.936999 1_544
