# generated using pymatgen
data_TbNi
_symmetry_space_group_name_H-M   'P 1'
_cell_length_a   4.22323746
_cell_length_b   5.36702267
_cell_length_c   21.10275441
_cell_angle_alpha   96.96273680
_cell_angle_beta   90.00000000
_cell_angle_gamma   90.00000000
_symmetry_Int_Tables_number   1
_chemical_formula_structural   TbNi
_chemical_formula_sum   'Tb12 Ni12'
_cell_volume   474.79197794
_cell_formula_units_Z   12
loop_
 _symmetry_equiv_pos_site_id
 _symmetry_equiv_pos_as_xyz
  1  'x, y, z'
loop_
 _atom_site_type_symbol
 _atom_site_label
 _atom_site_symmetry_multiplicity
 _atom_site_fract_x
 _atom_site_fract_y
 _atom_site_fract_z
 _atom_site_occupancy
  Tb  Tb0  1  0.25000000  0.33647616  0.93973750  1
  Tb  Tb1  1  0.75000000  0.66352384  0.06026250  1
  Tb  Tb2  1  0.25000000  0.49909721  0.77343263  1
  Tb  Tb3  1  0.75000000  0.50090279  0.22656737  1
  Tb  Tb4  1  0.25000000  0.18512933  0.60659086  1
  Tb  Tb5  1  0.75000000  0.81487067  0.39340914  1
  Tb  Tb6  1  0.25000000  0.33764535  0.43956816  1
  Tb  Tb7  1  0.75000000  0.66235465  0.56043184  1
  Tb  Tb8  1  0.25000000  0.02200188  0.27279244  1
  Tb  Tb9  1  0.75000000  0.97799812  0.72720756  1
  Tb  Tb10  1  0.25000000  0.17473624  0.10640104  1
  Tb  Tb11  1  0.75000000  0.82526376  0.89359896  1
  Ni  Ni0  1  0.25000000  0.86933814  0.98816670  1
  Ni  Ni1  1  0.75000000  0.13066186  0.01183330  1
  Ni  Ni2  1  0.25000000  0.03111602  0.82204454  1
  Ni  Ni3  1  0.75000000  0.96888398  0.17795546  1
  Ni  Ni4  1  0.25000000  0.70004363  0.65524739  1
  Ni  Ni5  1  0.75000000  0.29995637  0.34475261  1
  Ni  Ni6  1  0.25000000  0.86966053  0.48790675  1
  Ni  Ni7  1  0.75000000  0.13033947  0.51209325  1
  Ni  Ni8  1  0.25000000  0.53667006  0.32041678  1
  Ni  Ni9  1  0.75000000  0.46332994  0.67958322  1
  Ni  Ni10  1  0.25000000  0.70664447  0.15381941  1
  Ni  Ni11  1  0.75000000  0.29335553  0.84617959  1
loop_
_geom_bond_atom_site_label_1
_geom_bond_atom_site_label_2
_geom_bond_distance
_geom_bond_site_symmetry_2
Ni0 Ni1 2.550614 1_566
Ni0 Ni1 2.550614 1_466
Ni0 Tb10 2.814327 1_566
Ni0 Tb0 2.819828 1_565
Ni0 Tb11 2.895344 1_455
Ni0 Tb11 2.895344 1_555
Ni0 Tb1 2.898494 1_556
Ni0 Tb1 2.898494 1_456
Ni0 Tb0 2.918008 1_555
Ni1 Tb11 2.814327 1_544
Ni1 Tb1 2.819828 1_545
Ni1 Tb10 2.895344 1_555
Ni1 Tb10 2.895344 1_655
Ni1 Tb0 2.898494 1_654
Ni1 Tb0 2.898494 1_554
Ni1 Tb1 2.918008 1_555
Ni2 Tb0 2.804916 1_555
Ni2 Tb2 2.825864 1_555
Ni2 Tb11 2.892075 1_545
Ni2 Tb11 2.892075 1_445
Ni2 Tb9 2.899512 1_445
Ni2 Tb9 2.899512 1_545
Ni2 Tb2 2.914662 1_545
Ni3 Tb1 2.804916 1_555
Ni3 Tb3 2.825864 1_555
Ni3 Tb10 2.892075 1_565
Ni3 Tb10 2.892075 1_665
Ni3 Tb8 2.899512 1_665
Ni3 Tb8 2.899512 1_565
Ni3 Tb3 2.914662 1_565
Ni4 Ni9 2.548508 1_555
Ni4 Ni9 2.548508 1_455
Ni4 Tb4 2.829058 1_555
Ni4 Tb2 2.834689 1_555
Ni4 Tb7 2.899173 1_455
Ni4 Tb7 2.899173 1_555
Ni4 Tb9 2.905366 1_555
Ni4 Tb9 2.905366 1_455
Ni4 Tb4 2.912119 1_565
Ni5 Ni8 2.548508 1_555
Ni5 Ni8 2.548508 1_655
Ni5 Tb5 2.829058 1_555
Ni5 Tb3 2.834689 1_555
Ni5 Tb6 2.899173 1_555
Ni5 Tb6 2.899173 1_655
Ni5 Tb8 2.905366 1_555
Ni5 Tb8 2.905366 1_655
Ni5 Tb5 2.912119 1_545
Ni6 Ni7 2.550237 1_465
Ni6 Ni7 2.550237 1_565
Ni6 Tb6 2.823172 1_565
Ni6 Tb4 2.848052 1_565
Ni6 Tb5 2.894807 1_455
Ni6 Tb5 2.894807 1_555
Ni6 Tb7 2.907243 1_455
Ni6 Tb7 2.907243 1_555
Ni6 Tb6 2.913304 1_555
Ni7 Tb7 2.823172 1_545
Ni7 Tb5 2.848052 1_545
Ni7 Tb4 2.894807 1_555
Ni7 Tb4 2.894807 1_655
Ni7 Tb6 2.907243 1_655
Ni7 Tb6 2.907243 1_555
Ni7 Tb7 2.913304 1_555
Ni8 Tb8 2.822575 1_555
Ni8 Tb6 2.848593 1_555
Ni8 Tb3 2.885466 1_455
Ni8 Tb3 2.885466 1_555
Ni8 Tb8 2.903383 1_565
Ni8 Tb5 2.916051 1_455
Ni8 Tb5 2.916051 1_555
Ni9 Tb9 2.822575 1_555
Ni9 Tb7 2.848593 1_555
Ni9 Tb2 2.885466 1_555
Ni9 Tb2 2.885466 1_655
Ni9 Tb9 2.903383 1_545
Ni9 Tb4 2.916051 1_555
Ni9 Tb4 2.916051 1_655
Ni10 Ni3 2.554498 1_455
Ni10 Ni3 2.554498 1_555
Ni10 Tb10 2.814650 1_565
Ni10 Tb8 2.852686 1_565
Ni10 Tb1 2.880904 1_455
Ni10 Tb1 2.880904 1_555
Ni10 Tb3 2.906203 1_455
Ni10 Tb3 2.906203 1_555
Ni10 Tb10 2.908334 1_555
Ni11 Ni2 2.554495 1_655
Ni11 Ni2 2.554495 1_555
Ni11 Tb11 2.814660 1_545
Ni11 Tb9 2.852669 1_545
Ni11 Tb0 2.880919 1_655
Ni11 Tb0 2.880919 1_555
Ni11 Tb2 2.906190 1_555
Ni11 Tb2 2.906190 1_655
Ni11 Tb11 2.908339 1_555
