# generated using pymatgen
data_Lu6GaNiOs
_symmetry_space_group_name_H-M   'P 1'
_cell_length_a   8.11610275
_cell_length_b   8.11610267
_cell_length_c   8.11610249
_cell_angle_alpha   113.01355395
_cell_angle_beta   110.31294630
_cell_angle_gamma   105.18303672
_symmetry_Int_Tables_number   1
_chemical_formula_structural   Lu6GaNiOs
_chemical_formula_sum   'Lu12 Ga2 Ni2 Os2'
_cell_volume   409.58926390
_cell_formula_units_Z   2
loop_
 _symmetry_equiv_pos_site_id
 _symmetry_equiv_pos_as_xyz
  1  'x, y, z'
loop_
 _atom_site_type_symbol
 _atom_site_label
 _atom_site_symmetry_multiplicity
 _atom_site_fract_x
 _atom_site_fract_y
 _atom_site_fract_z
 _atom_site_occupancy
  Lu  Lu0  1  0.43686628  0.24429031  0.19257597  1
  Lu  Lu1  1  0.56313372  0.75570969  0.80742403  1
  Lu  Lu2  1  0.05171434  0.24429031  0.80742403  1
  Lu  Lu3  1  0.94828566  0.75570969  0.19257597  1
  Lu  Lu4  1  0.17953458  0.27924173  0.45877631  1
  Lu  Lu5  1  0.82046542  0.72075827  0.54122369  1
  Lu  Lu6  1  0.17953458  0.72075827  0.90029386  1
  Lu  Lu7  1  0.82046542  0.27924173  0.09970614  1
  Lu  Lu8  1  0.33014270  0.64392029  0.31377760  1
  Lu  Lu9  1  0.66985730  0.35607971  0.68622240  1
  Lu  Lu10  1  0.33014270  0.01636410  0.68622240  1
  Lu  Lu11  1  0.66985730  0.98363590  0.31377760  1
  Ga  Ga0  1  0.50000000  0.50000000  0.00000000  1
  Ga  Ga1  1  0.00000000  0.00000000  0.00000000  1
  Ni  Ni0  1  0.11781509  0.61781509  0.50000000  1
  Ni  Ni1  1  0.88218491  0.38218491  0.50000000  1
  Os  Os0  1  0.32768086  0.00000000  0.32768086  1
  Os  Os1  1  0.67231914  1.00000000  0.67231914  1
loop_
_geom_bond_atom_site_label_1
_geom_bond_atom_site_label_2
_geom_bond_distance
_geom_bond_site_symmetry_2
Lu0 Os0 2.715311 1_555
Lu0 Ni1 3.158731 1_555
Lu0 Lu11 3.383759 1_545
Lu0 Lu9 3.383766 1_555
Lu0 Lu5 3.416903 1_555
Lu0 Lu7 3.416908 1_555
Lu0 Lu8 3.436028 1_555
Lu0 Lu10 3.436028 1_554
Lu0 Lu4 3.474797 1_555
Lu0 Lu6 3.474798 1_544
Lu0 Lu2 3.571923 1_554
Lu1 Os1 2.715311 1_555
Lu1 Ni0 3.158731 1_555
Lu1 Lu10 3.383759 1_565
Lu1 Lu8 3.383766 1_555
Lu1 Lu4 3.416903 1_555
Lu1 Lu6 3.416908 1_555
Lu1 Lu9 3.436028 1_555
Lu1 Lu11 3.436028 1_556
Lu1 Lu5 3.474797 1_555
Lu1 Lu7 3.474798 1_566
Lu1 Lu3 3.571923 1_556
Lu2 Os1 2.715311 1_445
Lu2 Ni1 3.158731 1_455
Lu2 Lu9 3.383766 1_455
Lu2 Lu6 3.416901 1_555
Lu2 Lu4 3.416903 1_555
Lu2 Lu8 3.436028 1_556
Lu2 Lu7 3.474791 1_456
Lu2 Lu5 3.474798 1_445
Lu3 Os0 2.715311 1_665
Lu3 Ni0 3.158731 1_655
Lu3 Lu8 3.383766 1_655
Lu3 Lu7 3.416901 1_555
Lu3 Lu5 3.416903 1_555
Lu3 Lu9 3.436028 1_554
Lu3 Lu6 3.474791 1_654
Lu3 Lu4 3.474798 1_665
Lu4 Ni1 2.834133 1_455
Lu4 Ni0 2.834133 1_555
Lu4 Os0 2.853816 1_555
Lu4 Lu9 3.511784 1_555
Lu4 Lu8 3.669660 1_555
Lu5 Ni0 2.834133 1_655
Lu5 Ni1 2.834133 1_555
Lu5 Os1 2.853816 1_555
Lu5 Lu8 3.511784 1_555
Lu5 Lu9 3.669660 1_555
Lu6 Ni1 2.834137 1_455
Lu6 Ni0 2.834141 1_555
Lu6 Os0 2.853810 1_566
Lu6 Lu8 3.511776 1_556
Lu6 Lu9 3.669659 1_455
Lu7 Ni0 2.834137 1_655
Lu7 Ni1 2.834141 1_555
Lu7 Os1 2.853810 1_544
Lu7 Lu9 3.511776 1_554
Lu7 Lu8 3.669659 1_655
Lu8 Ni0 2.677004 1_555
Lu8 Os0 2.853409 1_565
Lu8 Os1 2.853409 1_555
Lu9 Ni1 2.677004 1_555
Lu9 Os1 2.853409 1_545
Lu9 Os0 2.853409 1_555
Lu10 Ni0 2.676998 1_545
Lu10 Os1 2.853407 1_545
Lu10 Os0 2.853412 1_555
Lu10 Lu8 3.336190 1_545
Lu10 Lu9 3.349916 1_555
Lu10 Lu3 3.383767 1_445
Lu10 Lu2 3.436033 1_555
Lu10 Lu7 3.511781 1_556
Lu10 Lu4 3.511791 1_555
Lu10 Lu5 3.669659 1_445
Lu10 Lu6 3.669661 1_545
Lu11 Ni1 2.676998 1_565
Lu11 Os0 2.853407 1_565
Lu11 Os1 2.853412 1_555
Lu11 Lu9 3.336190 1_565
Lu11 Lu8 3.349916 1_555
Lu11 Lu2 3.383767 1_665
Lu11 Lu3 3.436033 1_555
Lu11 Lu6 3.511781 1_554
Lu11 Lu5 3.511791 1_555
Lu11 Lu4 3.669659 1_665
Lu11 Lu7 3.669661 1_565
Ga0 Lu1 3.089957 1_554
Ga0 Lu0 3.089957 1_555
Ga0 Lu2 3.089957 1_554
Ga0 Lu3 3.089957 1_555
Ga0 Lu8 3.271910 1_555
Ga0 Lu9 3.271910 1_554
Ga0 Lu11 3.271917 1_555
Ga0 Lu10 3.271917 1_554
Ga0 Lu6 3.569761 1_554
Ga0 Lu7 3.569761 1_555
Ga0 Lu4 3.569763 1_554
Ga0 Lu5 3.569763 1_555
Ga1 Lu3 2.998772 1_445
Ga1 Lu2 2.998772 1_554
Ga1 Lu0 2.998772 1_555
Ga1 Lu1 2.998772 1_444
Ga1 Lu6 3.004810 1_544
Ga1 Lu7 3.004810 1_455
Ga1 Lu5 3.004811 1_444
Ga1 Lu4 3.004811 1_555
Ga1 Os0 3.038933 1_555
Ga1 Os1 3.038933 1_444
Ni0 Ni1 2.323539 1_455
Os0 Os1 3.196197 1_545
