# generated using pymatgen
data_Zn(FeO2)2
_symmetry_space_group_name_H-M   'P 1'
_cell_length_a   6.06536150
_cell_length_b   6.06536150
_cell_length_c   14.84971800
_cell_angle_alpha   90.00000000
_cell_angle_beta   90.00000000
_cell_angle_gamma   119.99999457
_symmetry_Int_Tables_number   1
_chemical_formula_structural   Zn(FeO2)2
_chemical_formula_sum   'Zn6 Fe12 O24'
_cell_volume   473.11012516
_cell_formula_units_Z   6
loop_
 _symmetry_equiv_pos_site_id
 _symmetry_equiv_pos_as_xyz
  1  'x, y, z'
loop_
 _atom_site_type_symbol
 _atom_site_label
 _atom_site_symmetry_multiplicity
 _atom_site_fract_x
 _atom_site_fract_y
 _atom_site_fract_z
 _atom_site_occupancy
  Zn  Zn0  1  0.66666700  0.33333300  0.95464400  1
  Zn  Zn1  1  0.00000000  0.00000000  0.99815300  1
  Zn  Zn2  1  0.00000000  0.00000000  0.62459900  1
  Zn  Zn3  1  0.33333300  0.66666700  0.29239100  1
  Zn  Zn4  1  0.66666700  0.33333300  0.71019700  1
  Zn  Zn5  1  0.00000000  0.00000000  0.37506500  1
  Fe  Fe0  1  0.16464800  0.83535200  0.83356600  1
  Fe  Fe1  1  0.00035200  0.50017600  0.50067200  1
  Fe  Fe2  1  0.33333300  0.66666700  0.66778100  1
  Fe  Fe3  1  0.16464800  0.32929600  0.83356600  1
  Fe  Fe4  1  0.49982400  0.50017600  0.50067200  1
  Fe  Fe5  1  0.67070400  0.83535200  0.83356600  1
  Fe  Fe6  1  0.66666700  0.33333300  0.33462200  1
  Fe  Fe7  1  0.49982400  0.99964800  0.50067200  1
  Fe  Fe8  1  0.83231200  0.16768800  0.16691800  1
  Fe  Fe9  1  0.83231200  0.66462400  0.16691800  1
  Fe  Fe10  1  0.33537600  0.16768800  0.16691800  1
  Fe  Fe11  1  0.33333300  0.66666700  0.04294200  1
  O  O0  1  0.84428000  0.15572000  0.90897700  1
  O  O1  1  0.84428000  0.68856000  0.90897700  1
  O  O2  1  0.00000000  0.00000000  0.75893300  1
  O  O3  1  0.31144000  0.15572000  0.90897700  1
  O  O4  1  0.18051700  0.81948300  0.57947800  1
  O  O5  1  0.03006800  0.51503400  0.75357400  1
  O  O6  1  0.33333300  0.66666700  0.91194600  1
  O  O7  1  0.48496600  0.96993200  0.75357400  1
  O  O8  1  0.18051700  0.36103400  0.57947800  1
  O  O9  1  0.33333300  0.66666700  0.42685700  1
  O  O10  1  0.63896600  0.81948300  0.57947800  1
  O  O11  1  0.48496600  0.51503400  0.75357400  1
  O  O12  1  0.51424400  0.48575600  0.24680700  1
  O  O13  1  0.36075400  0.18037700  0.41988600  1
  O  O14  1  0.66666700  0.33333300  0.57328300  1
  O  O15  1  0.81962300  0.63924600  0.41988600  1
  O  O16  1  0.66666700  0.33333300  0.09299700  1
  O  O17  1  0.51424400  0.02848800  0.24680700  1
  O  O18  1  0.97151200  0.48575600  0.24680700  1
  O  O19  1  0.81962300  0.18037700  0.41988600  1
  O  O20  1  0.67952600  0.83976300  0.08925300  1
  O  O21  1  0.16023700  0.32047400  0.08925300  1
  O  O22  1  0.00000000  0.00000000  0.23815400  1
  O  O23  1  0.16023700  0.83976300  0.08925300  1
loop_
_geom_bond_atom_site_label_1
_geom_bond_atom_site_label_2
_geom_bond_distance
_geom_bond_site_symmetry_2
Fe0 O1 2.022990 1_455
Fe0 O3 2.022990 1_565
Fe0 O2 2.054309 1_565
Fe0 O5 2.065445 1_555
Fe0 O7 2.065445 1_555
Fe0 O6 2.120172 1_555
Fe1 O8 2.048926 1_555
Fe1 O4 2.048926 1_555
Fe1 O14 2.057868 1_455
Fe1 O9 2.064157 1_555
Fe1 O15 2.068076 1_455
Fe1 O19 2.068076 1_455
Fe2 O5 2.039769 1_555
Fe2 O7 2.039769 1_555
Fe2 O11 2.039773 1_555
Fe2 O4 2.072869 1_555
Fe2 O8 2.072873 1_555
Fe2 O10 2.072873 1_555
Fe3 O3 2.022990 1_555
Fe3 O0 2.022990 1_455
Fe3 O2 2.054309 1_555
Fe3 O5 2.065445 1_555
Fe3 O11 2.065445 1_555
Fe3 O6 2.120177 1_555
Fe4 O8 2.048926 1_555
Fe4 O10 2.048926 1_555
Fe4 O14 2.057872 1_555
Fe4 O9 2.064162 1_555
Fe4 O13 2.068076 1_555
Fe4 O15 2.068076 1_555
Fe5 O1 2.022990 1_555
Fe5 O0 2.022990 1_565
Fe5 O2 2.054309 1_665
Fe5 O7 2.065445 1_555
Fe5 O11 2.065445 1_555
Fe5 O6 2.120177 1_555
Fe6 O19 2.045775 1_555
Fe6 O15 2.045779 1_555
Fe6 O13 2.045779 1_555
Fe6 O17 2.065085 1_555
Fe6 O18 2.065085 1_555
Fe6 O12 2.065089 1_555
Fe7 O10 2.048926 1_555
Fe7 O4 2.048926 1_555
Fe7 O14 2.057868 1_565
Fe7 O9 2.064157 1_555
Fe7 O13 2.068076 1_565
Fe7 O19 2.068076 1_565
Fe8 O17 2.052608 1_555
Fe8 O18 2.052608 1_555
Fe8 O22 2.054853 1_655
Fe8 O16 2.057475 1_555
Fe8 O20 2.074065 1_545
Fe8 O21 2.074065 1_655
Fe9 O18 2.052608 1_555
Fe9 O12 2.052608 1_555
Fe9 O22 2.054853 1_665
Fe9 O16 2.057480 1_555
Fe9 O20 2.074065 1_555
Fe9 O23 2.074065 1_655
Fe10 O17 2.052608 1_555
Fe10 O12 2.052608 1_555
Fe10 O22 2.054853 1_555
Fe10 O16 2.057480 1_555
Fe10 O21 2.074065 1_555
Fe10 O23 2.074065 1_545
Fe11 O23 1.944156 1_555
Fe11 O20 1.944161 1_555
Fe11 O21 1.944161 1_555
Fe11 O6 1.945254 1_554
O0 Zn0 1.985326 1_555
O0 Zn1 2.104718 1_655
O1 Zn0 1.985331 1_555
O1 Zn1 2.104718 1_665
O2 Zn2 1.994822 1_555
O3 Zn0 1.985331 1_555
O3 Zn1 2.104718 1_555
O4 Zn2 2.011310 1_565
O5 Zn4 2.014609 1_455
O7 Zn4 2.014609 1_565
O8 Zn2 2.011310 1_555
O9 Zn3 1.996782 1_555
O10 Zn2 2.011310 1_665
O11 Zn4 2.014613 1_555
O12 Zn3 2.017510 1_555
O13 Zn5 2.008443 1_555
O14 Zn4 2.033134 1_555
O15 Zn5 2.008443 1_665
O16 Zn0 2.054503 1_554
O17 Zn3 2.017505 1_545
O18 Zn3 2.017505 1_655
O19 Zn5 2.008443 1_655
O20 Zn1 2.159591 1_664
O21 Zn1 2.159591 1_554
O22 Zn5 2.033090 1_555
O23 Zn1 2.159591 1_564
