# generated using pymatgen
data_Ba3(LiSn2)4
_symmetry_space_group_name_H-M   'P 1'
_cell_length_a   6.73430035
_cell_length_b   6.88326427
_cell_length_c   9.94913002
_cell_angle_alpha   97.80017469
_cell_angle_beta   109.78165641
_cell_angle_gamma   89.99999713
_symmetry_Int_Tables_number   1
_chemical_formula_structural   Ba3(LiSn2)4
_chemical_formula_sum   'Ba3 Li4 Sn8'
_cell_volume   429.42949596
_cell_formula_units_Z   1
loop_
 _symmetry_equiv_pos_site_id
 _symmetry_equiv_pos_as_xyz
  1  'x, y, z'
loop_
 _atom_site_type_symbol
 _atom_site_label
 _atom_site_symmetry_multiplicity
 _atom_site_fract_x
 _atom_site_fract_y
 _atom_site_fract_z
 _atom_site_occupancy
  Ba  Ba0  1  0.67673386  0.31220669  0.35346872  1
  Ba  Ba1  1  -0.00000000  -0.00000000  -0.00000000  1
  Ba  Ba2  1  0.32326614  0.68779331  0.64653128  1
  Li  Li0  1  0.21299841  0.13027051  0.42599683  1
  Li  Li1  1  0.78700159  0.86972949  0.57400317  1
  Li  Li2  1  0.21899833  0.50000000  -0.00000000  1
  Li  Li3  1  0.78100167  0.50000000  0.00000000  1
  Sn  Sn0  1  0.58417729  0.19727217  0.69999510  1
  Sn  Sn1  1  0.41582271  0.80272783  0.30000490  1
  Sn  Sn2  1  0.11581781  0.19727217  0.69999510  1
  Sn  Sn3  1  0.87174858  0.54461645  0.74349515  1
  Sn  Sn4  1  0.12825142  0.45538355  0.25650485  1
  Sn  Sn5  1  0.51686230  0.80026314  0.03372560  1
  Sn  Sn6  1  0.48313770  0.19973686  0.96627440  1
  Sn  Sn7  1  0.88418219  0.80272783  0.30000490  1
loop_
_geom_bond_atom_site_label_1
_geom_bond_atom_site_label_2
_geom_bond_distance
_geom_bond_site_symmetry_2
Ba0 Sn6 3.595816 1_554
Ba0 Sn4 3.659380 1_655
Ba0 Sn4 3.659386 1_555
Ba0 Li0 3.689487 1_555
Ba0 Li0 3.689493 1_655
Ba0 Sn3 3.769239 1_555
Ba0 Sn1 3.811748 1_545
Ba0 Sn7 3.811751 1_545
Ba0 Sn1 3.824270 1_555
Ba0 Sn7 3.824273 1_555
Ba0 Sn0 3.885290 1_555
Ba0 Sn2 3.885293 1_655
Ba1 Sn3 3.663425 1_444
Ba1 Sn4 3.663425 1_555
Ba1 Sn6 3.667803 1_454
Ba1 Sn5 3.667803 1_545
Ba1 Sn6 3.667809 1_554
Ba1 Sn5 3.667809 1_445
Ba1 Sn1 3.746598 1_545
Ba1 Sn0 3.746598 1_454
Ba1 Sn7 3.746598 1_445
Ba1 Sn2 3.746598 1_554
Ba2 Sn5 3.595816 1_556
Ba2 Sn3 3.659380 1_455
Ba2 Sn3 3.659386 1_555
Ba2 Li1 3.689487 1_555
Ba2 Li1 3.689493 1_455
Ba2 Sn4 3.769239 1_555
Ba2 Sn0 3.811748 1_565
Ba2 Sn2 3.811751 1_565
Ba2 Sn0 3.824270 1_555
Ba2 Sn2 3.824273 1_555
Ba2 Sn1 3.885290 1_555
Ba2 Sn7 3.885293 1_455
Li0 Sn4 2.924061 1_555
Li0 Sn1 2.985257 1_545
Li0 Sn7 2.985257 1_445
Li0 Sn0 2.989753 1_555
Li0 Sn2 2.989753 1_555
Li1 Sn3 2.924061 1_555
Li1 Sn0 2.985257 1_565
Li1 Sn2 2.985257 1_665
Li1 Sn1 2.989753 1_555
Li1 Sn7 2.989753 1_555
Li2 Sn5 2.786405 1_555
Li2 Sn6 2.786409 1_554
Li2 Sn3 2.872074 1_454
Li2 Sn4 2.872081 1_555
Li3 Sn6 2.786405 1_554
Li3 Sn5 2.786409 1_555
Li3 Sn4 2.872074 1_655
Li3 Sn3 2.872081 1_554
