# generated using pymatgen
data_Rb6GaBiSb2
_symmetry_space_group_name_H-M   'P 1'
_cell_length_a   6.26589373
_cell_length_b   10.84266419
_cell_length_c   12.61402969
_cell_angle_alpha   78.97900252
_cell_angle_beta   90.00000000
_cell_angle_gamma   90.00000000
_symmetry_Int_Tables_number   1
_chemical_formula_structural   Rb6GaBiSb2
_chemical_formula_sum   'Rb12 Ga2 Bi2 Sb4'
_cell_volume   841.17913191
_cell_formula_units_Z   2
loop_
 _symmetry_equiv_pos_site_id
 _symmetry_equiv_pos_as_xyz
  1  'x, y, z'
loop_
 _atom_site_type_symbol
 _atom_site_label
 _atom_site_symmetry_multiplicity
 _atom_site_fract_x
 _atom_site_fract_y
 _atom_site_fract_z
 _atom_site_occupancy
  Rb  Rb0  1  0.75000000  0.45655260  0.07898876  1
  Rb  Rb1  1  0.25000000  0.54344740  0.92101124  1
  Rb  Rb2  1  0.75000000  0.74235536  0.22633230  1
  Rb  Rb3  1  0.25000000  0.25764464  0.77366770  1
  Rb  Rb4  1  0.25000000  0.55960254  0.54060386  1
  Rb  Rb5  1  0.75000000  0.44039746  0.45939614  1
  Rb  Rb6  1  0.25000000  0.86095422  0.02766479  1
  Rb  Rb7  1  0.75000000  0.13904578  0.97233521  1
  Rb  Rb8  1  0.25000000  0.87388585  0.67559558  1
  Rb  Rb9  1  0.75000000  0.12611415  0.32440442  1
  Rb  Rb10  1  0.25000000  0.91605465  0.37269245  1
  Rb  Rb11  1  0.75000000  0.08394535  0.62730755  1
  Ga  Ga0  1  0.75000000  0.67784392  0.71649310  1
  Ga  Ga1  1  0.25000000  0.32215608  0.28350690  1
  Bi  Bi0  1  0.75000000  0.82197689  0.87632960  1
  Bi  Bi1  1  0.25000000  0.17802311  0.12367040  1
  Sb  Sb0  1  0.25000000  0.21401033  0.48835485  1
  Sb  Sb1  1  0.75000000  0.78598967  0.51164515  1
  Sb  Sb2  1  0.25000000  0.56572085  0.22867442  1
  Sb  Sb3  1  0.75000000  0.43427915  0.77132558  1
loop_
_geom_bond_atom_site_label_1
_geom_bond_atom_site_label_2
_geom_bond_distance
_geom_bond_site_symmetry_2
Rb0 Sb3 3.934188 1_554
Rb0 Sb2 3.954240 1_555
Rb0 Sb2 3.954240 1_655
Rb1 Sb2 3.934188 1_556
Rb1 Sb3 3.954240 1_455
Rb1 Sb3 3.954240 1_555
Rb2 Sb2 3.669134 1_655
Rb2 Sb2 3.669134 1_555
Rb2 Sb1 3.718500 1_555
Rb3 Sb3 3.669134 1_455
Rb3 Sb3 3.669134 1_555
Rb3 Sb0 3.718500 1_555
Rb4 Sb2 3.922546 1_555
Rb4 Sb0 3.926788 1_555
Rb4 Sb1 3.953634 1_455
Rb4 Sb1 3.953634 1_555
Rb5 Sb3 3.922546 1_555
Rb5 Sb1 3.926788 1_555
Rb5 Sb0 3.953634 1_555
Rb5 Sb0 3.953634 1_655
Rb6 Sb2 3.684135 1_555
Rb7 Sb3 3.684135 1_555
Rb8 Sb1 3.969146 1_455
Rb8 Sb1 3.969146 1_555
Rb8 Sb0 3.981008 1_565
Rb9 Sb0 3.969146 1_555
Rb9 Sb0 3.969146 1_655
Rb9 Sb1 3.981008 1_545
Rb10 Sb1 3.732457 1_555
Rb10 Sb1 3.732457 1_455
Rb10 Sb0 3.790474 1_565
Rb11 Sb0 3.732457 1_655
Rb11 Sb0 3.732457 1_555
Rb11 Sb1 3.790474 1_545
Ga0 Sb3 2.598908 1_555
Ga0 Sb1 2.625519 1_555
Ga0 Rb8 3.765698 1_655
Ga0 Rb8 3.765698 1_555
Ga1 Sb2 2.598908 1_555
Ga1 Sb0 2.625519 1_555
Ga1 Rb9 3.765698 1_455
Ga1 Rb9 3.765698 1_555
Bi0 Ga0 2.777045 1_555
Bi0 Rb6 3.734500 1_556
Bi0 Rb6 3.734500 1_656
Bi0 Rb11 3.810998 1_565
Bi0 Rb7 3.857113 1_565
Bi0 Rb8 3.999826 1_555
Bi0 Rb8 3.999826 1_655
Bi0 Rb0 4.284992 1_556
Bi0 Rb1 4.313078 1_655
Bi0 Rb1 4.313078 1_555
Bi0 Rb2 4.333564 1_556
Bi1 Ga1 2.777045 1_555
Bi1 Rb7 3.734500 1_454
Bi1 Rb7 3.734500 1_554
Bi1 Rb10 3.810998 1_545
Bi1 Rb6 3.857113 1_545
Bi1 Rb9 3.999826 1_455
Bi1 Rb9 3.999826 1_555
Bi1 Rb1 4.284992 1_554
Bi1 Rb0 4.313078 1_455
Bi1 Rb0 4.313078 1_555
Bi1 Rb3 4.333564 1_554
