# generated using pymatgen
data_SrCa7(CdSb2)4
_symmetry_space_group_name_H-M   'P 1'
_cell_length_a   4.64764218
_cell_length_b   7.37028159
_cell_length_c   17.77412839
_cell_angle_alpha   89.94549282
_cell_angle_beta   90.00000000
_cell_angle_gamma   90.00000000
_symmetry_Int_Tables_number   1
_chemical_formula_structural   SrCa7(CdSb2)4
_chemical_formula_sum   'Sr1 Ca7 Cd4 Sb8'
_cell_volume   608.84238966
_cell_formula_units_Z   1
loop_
 _symmetry_equiv_pos_site_id
 _symmetry_equiv_pos_as_xyz
  1  'x, y, z'
loop_
 _atom_site_type_symbol
 _atom_site_label
 _atom_site_symmetry_multiplicity
 _atom_site_fract_x
 _atom_site_fract_y
 _atom_site_fract_z
 _atom_site_occupancy
  Sr  Sr0  1  0.75000000  0.76416836  0.44748749  1
  Ca  Ca0  1  0.25000000  0.72056430  0.94631873  1
  Ca  Ca1  1  0.25000000  0.53475609  0.72941270  1
  Ca  Ca2  1  0.75000000  0.96442163  0.22237519  1
  Ca  Ca3  1  0.75000000  0.28192073  0.05231843  1
  Ca  Ca4  1  0.25000000  0.21985565  0.55492078  1
  Ca  Ca5  1  0.75000000  0.46384253  0.27080886  1
  Ca  Ca6  1  0.25000000  0.03541689  0.77499250  1
  Cd  Cd0  1  0.25000000  0.63353945  0.14809041  1
  Cd  Cd1  1  0.75000000  0.86543617  0.65704750  1
  Cd  Cd2  1  0.75000000  0.36480049  0.84896015  1
  Cd  Cd3  1  0.25000000  0.13533600  0.34741530  1
  Sb  Sb0  1  0.75000000  0.25531360  0.68554004  1
  Sb  Sb1  1  0.25000000  0.74834834  0.30954676  1
  Sb  Sb2  1  0.25000000  0.24648154  0.18254370  1
  Sb  Sb3  1  0.75000000  0.75147258  0.06907763  1
  Sb  Sb4  1  0.75000000  0.75460439  0.81848447  1
  Sb  Sb5  1  0.25000000  0.24899290  0.92850764  1
  Sb  Sb6  1  0.75000000  0.25597949  0.42763242  1
  Sb  Sb7  1  0.25000000  0.75474985  0.57851731  1
loop_
_geom_bond_atom_site_label_1
_geom_bond_atom_site_label_2
_geom_bond_distance
_geom_bond_site_symmetry_2
Ca0 Sb3 3.195906 1_456
Ca0 Sb3 3.195906 1_556
Ca0 Sb4 3.259545 1_455
Ca0 Sb4 3.259545 1_555
Ca0 Sb5 3.490302 1_555
Ca1 Sb7 3.132734 1_555
Ca1 Sb0 3.202048 1_455
Ca1 Sb0 3.202048 1_555
Ca1 Sb4 3.246071 1_455
Ca1 Sb4 3.246071 1_555
Ca1 Cd2 3.388087 1_555
Ca1 Cd2 3.388087 1_455
Ca1 Cd1 3.603961 1_455
Ca1 Cd1 3.603961 1_555
Ca2 Sb3 3.145728 1_555
Ca2 Sb2 3.196909 1_565
Ca2 Sb2 3.196909 1_665
Ca2 Sb1 3.214375 1_655
Ca2 Sb1 3.214375 1_555
Ca2 Cd3 3.454229 1_665
Ca2 Cd3 3.454229 1_565
Ca3 Sb5 3.209801 1_554
Ca3 Sb5 3.209801 1_654
Ca3 Sb2 3.290103 1_655
Ca3 Sb2 3.290103 1_555
Ca3 Sb3 3.473808 1_555
Ca3 Cd2 3.665196 1_554
Ca4 Sb6 3.254000 1_455
Ca4 Sb6 3.254000 1_555
Ca4 Sb0 3.295394 1_555
Ca4 Sb0 3.295394 1_455
Ca4 Sb7 3.453126 1_545
Ca4 Cd3 3.741050 1_555
Ca5 Sb6 3.179393 1_555
Ca5 Sb1 3.205294 1_555
Ca5 Sb1 3.205294 1_655
Ca5 Sb2 3.229956 1_655
Ca5 Sb2 3.229956 1_555
Ca5 Cd3 3.620773 1_555
Ca5 Cd3 3.620773 1_655
Ca6 Sb5 3.151390 1_555
Ca6 Sb4 3.205963 1_445
Ca6 Sb4 3.205963 1_545
Ca6 Sb0 3.248049 1_455
Ca6 Sb0 3.248049 1_555
Ca6 Cd1 3.371858 1_445
Ca6 Cd1 3.371858 1_545
Ca6 Cd2 3.609455 1_555
Ca6 Cd2 3.609455 1_455
Cd0 Sb3 2.850548 1_555
Cd0 Sb3 2.850548 1_455
Cd0 Sb2 2.917144 1_555
Cd0 Sb1 2.992670 1_555
Cd1 Sb7 2.831271 1_655
Cd1 Sb7 2.831271 1_555
Cd1 Sb0 2.918267 1_565
Cd1 Sb4 2.982661 1_555
Cd2 Sb5 2.850517 1_655
Cd2 Sb5 2.850517 1_555
Cd2 Sb4 2.923077 1_555
Cd2 Sb0 3.015397 1_555
Cd3 Sb6 2.868112 1_455
Cd3 Sb6 2.868112 1_555
Cd3 Sb1 2.931174 1_545
Cd3 Sb2 3.042040 1_555
Cd3 Sr0 4.004773 1_445
Cd3 Sr0 4.004773 1_545
Sb1 Sr0 3.380161 1_455
Sb1 Sr0 3.380161 1_555
Sb6 Sr0 3.641591 1_545
Sb6 Sr0 3.762418 1_555
Sb7 Sr0 3.290687 1_455
Sb7 Sr0 3.290687 1_555
