# generated using pymatgen
data_YCu3HgRh
_symmetry_space_group_name_H-M   'P 1'
_cell_length_a   5.03879357
_cell_length_b   5.19596881
_cell_length_c   5.03879278
_cell_angle_alpha   60.99569176
_cell_angle_beta   59.99999256
_cell_angle_gamma   60.99568704
_symmetry_Int_Tables_number   1
_chemical_formula_structural   YCu3HgRh
_chemical_formula_sum   'Y1 Cu3 Hg1 Rh1'
_cell_volume   94.66278144
_cell_formula_units_Z   1
loop_
 _symmetry_equiv_pos_site_id
 _symmetry_equiv_pos_as_xyz
  1  'x, y, z'
loop_
 _atom_site_type_symbol
 _atom_site_label
 _atom_site_symmetry_multiplicity
 _atom_site_fract_x
 _atom_site_fract_y
 _atom_site_fract_z
 _atom_site_occupancy
  Y  Y0  1  0.74771362  0.75686014  0.74771362  1
  Cu  Cu0  1  0.37639004  0.36969137  0.87752754  1
  Cu  Cu1  1  0.87752754  0.36969137  0.37639004  1
  Cu  Cu2  1  0.37639004  0.36969137  0.37639004  1
  Hg  Hg0  1  0.99556159  0.01331524  0.99556159  1
  Rh  Rh0  1  0.37641717  0.87074850  0.37641717  1
loop_
_geom_bond_atom_site_label_1
_geom_bond_atom_site_label_2
_geom_bond_distance
_geom_bond_site_symmetry_2
Cu0 Cu1 2.513665 1_456
Cu0 Cu2 2.513665 1_556
Cu0 Cu1 2.525128 1_555
Cu0 Cu2 2.525128 1_555
Cu0 Rh0 2.592361 1_546
Cu0 Rh0 2.603607 1_555
Cu0 Hg0 2.949809 1_455
Cu0 Hg0 2.949812 1_555
Cu0 Y0 3.014372 1_545
Cu0 Y0 3.020881 1_455
Cu0 Y0 3.020890 1_555
Cu0 Hg0 3.127987 1_465
Cu1 Cu2 2.513665 1_655
Cu1 Cu2 2.525128 1_555
Cu1 Rh0 2.592361 1_645
Cu1 Rh0 2.603607 1_555
Cu1 Hg0 2.949808 1_554
Cu1 Hg0 2.949812 1_555
Cu1 Y0 3.014372 1_545
Cu1 Y0 3.020881 1_554
Cu1 Y0 3.020890 1_555
Cu1 Hg0 3.127988 1_564
Cu2 Rh0 2.592359 1_545
Cu2 Rh0 2.603610 1_555
Cu2 Hg0 2.949810 1_554
Cu2 Hg0 2.949810 1_455
Cu2 Y0 3.014376 1_545
Cu2 Y0 3.020886 1_455
Cu2 Y0 3.020886 1_554
Cu2 Hg0 3.127985 1_464
Hg0 Rh0 2.973192 1_645
Hg0 Rh0 2.973192 1_646
Hg0 Rh0 2.973193 1_546
Hg0 Y0 3.111617 1_545
Hg0 Y0 3.111620 1_546
Hg0 Y0 3.111620 1_645
Hg0 Y0 3.201126 1_555
Rh0 Y0 2.950177 1_554
Rh0 Y0 2.950177 1_455
Rh0 Y0 2.950182 1_555
