# generated using pymatgen
data_Na2Nb5TcSe12
_symmetry_space_group_name_H-M   'P 1'
_cell_length_a   6.00539965
_cell_length_b   6.00539879
_cell_length_c   15.39623519
_cell_angle_alpha   90.00000000
_cell_angle_beta   90.00000000
_cell_angle_gamma   119.99999924
_symmetry_Int_Tables_number   1
_chemical_formula_structural   Na2Nb5TcSe12
_chemical_formula_sum   'Na2 Nb5 Tc1 Se12'
_cell_volume   480.87138938
_cell_formula_units_Z   1
loop_
 _symmetry_equiv_pos_site_id
 _symmetry_equiv_pos_as_xyz
  1  'x, y, z'
loop_
 _atom_site_type_symbol
 _atom_site_label
 _atom_site_symmetry_multiplicity
 _atom_site_fract_x
 _atom_site_fract_y
 _atom_site_fract_z
 _atom_site_occupancy
  Na  Na0  1  0.33333300  0.66666700  0.25065979  1
  Na  Na1  1  0.66666700  0.33333300  0.75117789  1
  Nb  Nb0  1  0.00000000  0.00000000  0.99914040  1
  Nb  Nb1  1  0.66666700  0.33333300  0.99863411  1
  Nb  Nb2  1  0.33333300  0.66666700  0.50088594  1
  Nb  Nb3  1  0.00000000  0.00000000  0.50099908  1
  Nb  Nb4  1  0.66666700  0.33333300  0.50117120  1
  Tc  Tc0  1  0.33333300  0.66666700  0.99860735  1
  Se  Se0  1  0.66994127  0.66669168  0.39188529  1
  Se  Se1  1  0.66717283  0.66958073  0.61010893  1
  Se  Se2  1  0.01123869  0.66974232  0.89275439  1
  Se  Se3  1  0.65850463  0.98876131  0.89275439  1
  Se  Se4  1  0.65872989  0.99241068  0.10482648  1
  Se  Se5  1  0.33330832  0.00325059  0.39188529  1
  Se  Se6  1  0.00240890  0.33282717  0.61010893  1
  Se  Se7  1  0.33041927  0.99759110  0.61010893  1
  Se  Se8  1  0.00758932  0.66632021  0.10482648  1
  Se  Se9  1  0.33025768  0.34149537  0.89275439  1
  Se  Se10  1  0.99674941  0.33005873  0.39188529  1
  Se  Se11  1  0.33367979  0.34127011  0.10482648  1
loop_
_geom_bond_atom_site_label_1
_geom_bond_atom_site_label_2
_geom_bond_distance
_geom_bond_site_symmetry_2
Na0 Se5 2.968802 1_565
Na0 Se10 2.968802 1_455
Na0 Se0 2.968803 1_555
Na0 Se11 2.977252 1_555
Na0 Se4 2.977252 1_555
Na0 Se8 2.977252 1_555
Na1 Se1 2.964581 1_555
Na1 Se7 2.964581 1_545
Na1 Se6 2.964581 1_655
Na1 Se3 2.989017 1_545
Na1 Se2 2.989017 1_655
Na1 Se9 2.989017 1_555
Nb0 Se3 2.599009 1_445
Nb0 Se9 2.599011 1_555
Nb0 Se2 2.599013 1_545
Nb0 Se8 2.599350 1_546
Nb0 Se11 2.599352 1_556
Nb0 Se4 2.599355 1_446
Nb1 Se4 2.601832 1_546
Nb1 Se8 2.601836 1_656
Nb1 Se11 2.601841 1_556
Nb1 Se3 2.615400 1_545
Nb1 Se2 2.615400 1_655
Nb1 Se9 2.615400 1_555
Nb2 Se7 2.610062 1_555
Nb2 Se6 2.610066 1_555
Nb2 Se1 2.610071 1_555
Nb2 Se5 2.627239 1_565
Nb2 Se10 2.627239 1_455
Nb2 Se0 2.627239 1_555
Nb3 Se6 2.605443 1_555
Nb3 Se1 2.605446 1_445
Nb3 Se7 2.605448 1_545
Nb3 Se5 2.605784 1_555
Nb3 Se0 2.605786 1_445
Nb3 Se10 2.605789 1_455
Nb4 Se10 2.607662 1_555
Nb4 Se5 2.607666 1_555
Nb4 Se0 2.607671 1_555
Nb4 Se1 2.623844 1_555
Nb4 Se7 2.623844 1_545
Nb4 Se6 2.623844 1_655
Se2 Tc0 2.536463 1_555
Se3 Tc0 2.536467 1_555
Se4 Tc0 2.548957 1_554
Se8 Tc0 2.548957 1_554
Se9 Tc0 2.536472 1_555
Se11 Tc0 2.548957 1_554
