# generated using pymatgen
data_Zn(FeO2)2
_symmetry_space_group_name_H-M   'P 1'
_cell_length_a   6.04578748
_cell_length_b   6.04578748
_cell_length_c   6.04578807
_cell_angle_alpha   60.10429844
_cell_angle_beta   60.10429844
_cell_angle_gamma   60.10429872
_symmetry_Int_Tables_number   1
_chemical_formula_structural   Zn(FeO2)2
_chemical_formula_sum   'Zn2 Fe4 O8'
_cell_volume   156.62777057
_cell_formula_units_Z   2
loop_
 _symmetry_equiv_pos_site_id
 _symmetry_equiv_pos_as_xyz
  1  'x, y, z'
loop_
 _atom_site_type_symbol
 _atom_site_label
 _atom_site_symmetry_multiplicity
 _atom_site_fract_x
 _atom_site_fract_y
 _atom_site_fract_z
 _atom_site_occupancy
  Zn  Zn0  1  0.99692200  0.99692200  0.99692200  1
  Zn  Zn1  1  0.37442600  0.37442600  0.37442600  1
  Fe  Fe0  1  0.75359800  0.75359800  0.75359800  1
  Fe  Fe1  1  0.88126100  0.37349100  0.37349100  1
  Fe  Fe2  1  0.37349100  0.37349100  0.88126100  1
  Fe  Fe3  1  0.37349100  0.88126100  0.37349100  1
  O  O0  1  0.62309700  0.14551200  0.62309700  1
  O  O1  1  0.62309700  0.62309700  0.14551200  1
  O  O2  1  0.14551200  0.62309700  0.62309700  1
  O  O3  1  0.61926900  0.61926900  0.61926900  1
  O  O4  1  0.13359000  0.13359000  0.13359000  1
  O  O5  1  0.59484700  0.12870300  0.12870300  1
  O  O6  1  0.12870300  0.12870300  0.59484700  1
  O  O7  1  0.12870300  0.59484700  0.12870300  1
loop_
_geom_bond_atom_site_label_1
_geom_bond_atom_site_label_2
_geom_bond_distance
_geom_bond_site_symmetry_2
Fe0 O0 1.937170 1_565
Fe0 O2 1.937170 1_655
Fe0 O1 1.937170 1_556
Fe0 O3 1.987721 1_555
Fe1 O7 2.008376 1_655
Fe1 O6 2.008376 1_655
Fe1 O4 2.054321 1_655
Fe1 O0 2.082378 1_555
Fe1 O1 2.082378 1_555
Fe1 O3 2.105569 1_555
Fe2 O7 2.008376 1_556
Fe2 O5 2.008376 1_556
Fe2 O4 2.054321 1_556
Fe2 O2 2.082378 1_555
Fe2 O0 2.082378 1_555
Fe2 O3 2.105569 1_555
Fe3 O5 2.008376 1_565
Fe3 O6 2.008376 1_565
Fe3 O4 2.054321 1_565
Fe3 O2 2.082378 1_555
Fe3 O1 2.082378 1_555
Fe3 O3 2.105569 1_555
O0 Zn1 2.130906 1_555
O1 Zn1 2.130906 1_555
O2 Zn1 2.130906 1_555
O4 Zn0 2.022333 1_444
O5 Zn0 1.987500 1_544
O5 Zn1 2.107814 1_555
O6 Zn0 1.987500 1_445
O6 Zn1 2.107814 1_555
O7 Zn0 1.987500 1_454
O7 Zn1 2.107814 1_555
