# generated using pymatgen
data_CsK3F12
_symmetry_space_group_name_H-M   'P 1'
_cell_length_a   7.42132222
_cell_length_b   7.39062139
_cell_length_c   10.11496626
_cell_angle_alpha   88.81401828
_cell_angle_beta   90.00000000
_cell_angle_gamma   90.00000000
_symmetry_Int_Tables_number   1
_chemical_formula_structural   CsK3F12
_chemical_formula_sum   'Cs2 K6 F24'
_cell_volume   554.66867015
_cell_formula_units_Z   2
loop_
 _symmetry_equiv_pos_site_id
 _symmetry_equiv_pos_as_xyz
  1  'x, y, z'
loop_
 _atom_site_type_symbol
 _atom_site_label
 _atom_site_symmetry_multiplicity
 _atom_site_fract_x
 _atom_site_fract_y
 _atom_site_fract_z
 _atom_site_occupancy
  Cs  Cs0  1  0.44510906  0.78178522  0.63480636  1
  Cs  Cs1  1  0.94510906  0.71821478  0.36519364  1
  K  K0  1  0.50203064  0.28853429  0.85245439  1
  K  K1  1  0.00203064  0.21146571  0.14754561  1
  K  K2  1  0.54966675  0.81872059  0.10025744  1
  K  K3  1  0.04966675  0.68127941  0.89974256  1
  K  K4  1  0.45321909  0.29833916  0.34369157  1
  K  K5  1  0.95321909  0.20166084  0.65630843  1
  F  F0  1  0.87894999  0.66381654  0.66632808  1
  F  F1  1  0.37894999  0.83618346  0.33367192  1
  F  F2  1  0.15098916  0.14817570  0.89577051  1
  F  F3  1  0.65098916  0.35182430  0.10422949  1
  F  F4  1  0.03769094  0.83752350  0.65362218  1
  F  F5  1  0.53769094  0.66247650  0.34637782  1
  F  F6  1  0.99629706  0.32620812  0.90005754  1
  F  F7  1  0.49629706  0.17379188  0.09994246  1
  F  F8  1  0.29720324  0.97220234  0.89147630  1
  F  F9  1  0.79720324  0.52779766  0.10852370  1
  F  F10  1  0.72942301  0.49103191  0.67879759  1
  F  F11  1  0.22942301  0.00896809  0.32120241  1
  F  F12  1  0.80912125  0.95098443  0.94145743  1
  F  F13  1  0.30912125  0.54901557  0.05854157  1
  F  F14  1  0.22745768  0.48281738  0.49585130  1
  F  F15  1  0.72745768  0.01718262  0.50414970  1
  F  F16  1  0.24427573  0.41155007  0.68052485  1
  F  F17  1  0.74427573  0.08844993  0.31947515  1
  F  F18  1  0.70967599  0.00864460  0.80044108  1
  F  F19  1  0.20967599  0.49135540  0.19955892  1
  F  F20  1  0.41245136  0.61919679  0.90705794  1
  F  F21  1  0.91245136  0.88080321  0.09294206  1
  F  F22  1  0.55643904  0.18371866  0.58329065  1
  F  F23  1  0.05643904  0.31628134  0.41670935  1
loop_
_geom_bond_atom_site_label_1
_geom_bond_atom_site_label_2
_geom_bond_distance
_geom_bond_site_symmetry_2
Cs0 F20 2.991517 1_555
Cs0 F15 3.011443 1_565
Cs0 F10 3.037763 1_555
Cs0 F4 3.057974 1_555
Cs0 F18 3.096674 1_565
Cs0 F14 3.097624 1_555
Cs0 F1 3.103210 1_555
Cs0 F22 3.116757 1_565
Cs0 F5 3.141268 1_555
Cs0 F16 3.141667 1_555
Cs0 F8 3.174411 1_555
Cs0 F0 3.349118 1_555
Cs1 F21 2.991517 1_555
Cs1 F14 3.011447 1_655
Cs1 F11 3.037763 1_665
Cs1 F5 3.057974 1_555
Cs1 F19 3.096674 1_655
Cs1 F15 3.097629 1_565
Cs1 F0 3.103210 1_555
Cs1 F23 3.116757 1_655
Cs1 F4 3.141268 1_655
Cs1 F17 3.141667 1_565
Cs1 F9 3.174411 1_555
Cs1 F1 3.349118 1_655
F0 F10 1.694503 1_555
F0 F4 1.745187 1_655
F0 K3 2.684892 1_655
F1 F11 1.694503 1_565
F1 F5 1.745187 1_555
F1 K2 2.684892 1_555
F2 F8 1.695024 1_545
F2 F6 1.747410 1_455
F2 K1 2.824151 1_556
F2 K0 2.834827 1_555
F2 K5 2.852652 1_455
F3 F9 1.695024 1_555
F3 F7 1.747410 1_555
F3 K0 2.824151 1_554
F3 K1 2.834827 1_655
F3 K4 2.852652 1_555
F4 K3 2.723955 1_555
F4 K5 2.763933 1_465
F5 K2 2.723955 1_555
F5 K4 2.763933 1_555
F6 K1 2.626737 1_656
F6 K3 2.653856 1_655
F6 K5 2.668744 1_555
F7 K0 2.626737 1_554
F7 K2 2.653856 1_545
F7 K4 2.668744 1_555
F8 K0 2.809625 1_565
F8 K3 2.827937 1_555
F8 K2 3.026172 1_556
F9 K1 2.809625 1_655
F9 K2 2.827937 1_555
F9 K3 3.026172 1_654
F10 K5 2.721047 1_555
F10 K0 2.839750 1_555
F11 K4 2.721047 1_555
F11 K1 2.839750 1_555
F12 F18 1.653980 1_565
F12 F21 1.781014 1_556
F12 K2 2.679203 1_556
F12 K3 2.715302 1_655
F13 F19 1.653989 1_555
F13 F20 1.781006 1_554
F13 K3 2.679197 1_554
F13 K2 2.715304 1_555
F14 K4 2.668647 1_555
F15 K5 2.668641 1_555
F16 K5 2.673517 1_455
F16 K0 2.728476 1_555
F17 K4 2.673517 1_555
F17 K1 2.728476 1_655
F18 K0 2.641112 1_555
F18 K5 2.709436 1_555
F19 K1 2.641112 1_555
F19 K4 2.709436 1_555
F20 K0 2.602891 1_555
F20 K2 2.673882 1_556
F20 K3 2.731903 1_555
F21 K1 2.602891 1_665
F21 K3 2.673882 1_654
F21 K2 2.731903 1_555
F22 K4 2.663259 1_555
F22 K0 2.874524 1_555
F22 K5 3.039406 1_555
F23 K5 2.663259 1_455
F23 K1 2.874524 1_555
F23 K4 3.039406 1_555
