# generated using pymatgen
data_YAg3(Ru2O7)2
_symmetry_space_group_name_H-M   'P 1'
_cell_length_a   7.18247916
_cell_length_b   7.18247919
_cell_length_c   7.18247912
_cell_angle_alpha   59.36352113
_cell_angle_beta   59.36352370
_cell_angle_gamma   59.36352259
_symmetry_Int_Tables_number   1
_chemical_formula_structural   YAg3(Ru2O7)2
_chemical_formula_sum   'Y1 Ag3 Ru4 O14'
_cell_volume   258.20843363
_cell_formula_units_Z   1
loop_
 _symmetry_equiv_pos_site_id
 _symmetry_equiv_pos_as_xyz
  1  'x, y, z'
loop_
 _atom_site_type_symbol
 _atom_site_label
 _atom_site_symmetry_multiplicity
 _atom_site_fract_x
 _atom_site_fract_y
 _atom_site_fract_z
 _atom_site_occupancy
  Y  Y0  1  0.50000000  0.50000000  0.50000000  1
  Ag  Ag0  1  0.50000000  0.00000000  0.50000000  1
  Ag  Ag1  1  0.00000000  0.50000000  0.50000000  1
  Ag  Ag2  1  0.50000000  0.50000000  0.00000000  1
  Ru  Ru0  1  0.00000000  0.00000000  0.00000000  1
  Ru  Ru1  1  0.00000000  0.50000000  0.00000000  1
  Ru  Ru2  1  0.50000000  0.00000000  0.00000000  1
  Ru  Ru3  1  0.00000000  0.00000000  0.50000000  1
  O  O0  1  0.62999306  0.62999306  0.62999306  1
  O  O1  1  0.37000694  0.37000694  0.37000694  1
  O  O2  1  0.93635949  0.93635949  0.31621029  1
  O  O3  1  0.31621029  0.93635949  0.93635949  1
  O  O4  1  0.93635949  0.31621029  0.93635949  1
  O  O5  1  0.33027251  0.33027251  0.91676340  1
  O  O6  1  0.91676340  0.33027251  0.33027251  1
  O  O7  1  0.33027251  0.91676340  0.33027251  1
  O  O8  1  0.06364051  0.06364051  0.68378971  1
  O  O9  1  0.68378971  0.06364051  0.06364051  1
  O  O10  1  0.06364051  0.68378971  0.06364051  1
  O  O11  1  0.66972749  0.66972749  0.08323660  1
  O  O12  1  0.08323660  0.66972749  0.66972749  1
  O  O13  1  0.66972749  0.08323660  0.66972749  1
loop_
_geom_bond_atom_site_label_1
_geom_bond_atom_site_label_2
_geom_bond_distance
_geom_bond_site_symmetry_2
Ag0 O0 2.153333 1_545
Ag0 O1 2.153333 1_555
Ag0 O13 2.515920 1_555
Ag0 O7 2.515920 1_545
Ag0 O3 2.590874 1_545
Ag0 O9 2.590874 1_555
Ag0 O2 2.590874 1_545
Ag0 O8 2.590874 1_555
Ag1 O1 2.153333 1_555
Ag1 O0 2.153333 1_455
Ag1 O12 2.515920 1_555
Ag1 O6 2.515920 1_455
Ag1 O4 2.590874 1_455
Ag1 O10 2.590874 1_555
Ag1 O2 2.590874 1_455
Ag1 O8 2.590874 1_555
Ag2 O1 2.153333 1_555
Ag2 O0 2.153333 1_554
Ag2 O11 2.515920 1_555
Ag2 O5 2.515920 1_554
Ag2 O3 2.590874 1_554
Ag2 O9 2.590874 1_555
Ag2 O4 2.590874 1_554
Ag2 O10 2.590874 1_555
O0 Y0 2.297960 1_555
O1 Y0 2.297960 1_555
O2 Ru3 1.898245 1_665
O2 Ru0 1.916491 1_665
O3 Ru2 1.898245 1_566
O3 Ru0 1.916491 1_566
O4 Ru1 1.898245 1_656
O4 Ru0 1.916491 1_656
O5 Ru2 1.954700 1_556
O5 Ru1 1.954700 1_556
O5 Y0 2.451329 1_555
O6 Ru3 1.954700 1_655
O6 Ru1 1.954700 1_655
O6 Y0 2.451329 1_555
O7 Ru2 1.954700 1_565
O7 Ru3 1.954700 1_565
O7 Y0 2.451329 1_555
O8 Ru3 1.898245 1_555
O8 Ru0 1.916491 1_556
O9 Ru2 1.898245 1_555
O9 Ru0 1.916491 1_655
O10 Ru1 1.898245 1_555
O10 Ru0 1.916491 1_565
O11 Ru2 1.954700 1_565
O11 Ru1 1.954700 1_655
O11 Y0 2.451329 1_555
O12 Ru3 1.954700 1_565
O12 Ru1 1.954700 1_556
O12 Y0 2.451329 1_555
O13 Ru2 1.954700 1_556
O13 Ru3 1.954700 1_655
O13 Y0 2.451329 1_555
