# generated using pymatgen
data_LiSiRuPt
_symmetry_space_group_name_H-M   'P 1'
_cell_length_a   4.10290915
_cell_length_b   4.10290983
_cell_length_c   4.10291045
_cell_angle_alpha   60.00000290
_cell_angle_beta   59.99999744
_cell_angle_gamma   59.99999920
_symmetry_Int_Tables_number   1
_chemical_formula_structural   LiSiRuPt
_chemical_formula_sum   'Li1 Si1 Ru1 Pt1'
_cell_volume   48.83834194
_cell_formula_units_Z   1
loop_
 _symmetry_equiv_pos_site_id
 _symmetry_equiv_pos_as_xyz
  1  'x, y, z'
loop_
 _atom_site_type_symbol
 _atom_site_label
 _atom_site_symmetry_multiplicity
 _atom_site_fract_x
 _atom_site_fract_y
 _atom_site_fract_z
 _atom_site_occupancy
  Li  Li0  1  0.50000000  0.50000000  0.50000000  1
  Si  Si0  1  0.00000000  0.00000000  0.00000000  1
  Ru  Ru0  1  0.75000000  0.75000000  0.75000000  1
  Pt  Pt0  1  0.25000000  0.25000000  0.25000000  1
loop_
_geom_bond_atom_site_label_1
_geom_bond_atom_site_label_2
_geom_bond_distance
_geom_bond_site_symmetry_2
Li0 Pt0 2.512508 1_655
Li0 Ru0 2.512508 1_455
Li0 Pt0 2.512509 1_555
Li0 Ru0 2.512509 1_555
Li0 Pt0 2.512509 1_565
Li0 Ru0 2.512509 1_545
Li0 Ru0 2.512509 1_554
Li0 Pt0 2.512509 1_556
Li0 Si0 2.901195 1_556
Li0 Si0 2.901195 1_665
Li0 Si0 2.901195 1_565
Li0 Si0 2.901195 1_656
Li0 Si0 2.901195 1_655
Li0 Si0 2.901195 1_566
Ru0 Si0 2.512508 1_566
Ru0 Si0 2.512509 1_666
Ru0 Si0 2.512509 1_656
Ru0 Si0 2.512509 1_665
Pt0 Si0 2.512508 1_655
Pt0 Si0 2.512509 1_555
Pt0 Si0 2.512509 1_565
Pt0 Si0 2.512509 1_556
