# generated using pymatgen
data_Ru(SeBr6)2
_symmetry_space_group_name_H-M   'P 1'
_cell_length_a   9.09338377
_cell_length_b   9.09338309
_cell_length_c   6.67078047
_cell_angle_alpha   72.74566742
_cell_angle_beta   72.74566993
_cell_angle_gamma   77.66186627
_symmetry_Int_Tables_number   1
_chemical_formula_structural   Ru(SeBr6)2
_chemical_formula_sum   'Ru1 Se2 Br12'
_cell_volume   498.27314715
_cell_formula_units_Z   1
loop_
 _symmetry_equiv_pos_site_id
 _symmetry_equiv_pos_as_xyz
  1  'x, y, z'
loop_
 _atom_site_type_symbol
 _atom_site_label
 _atom_site_symmetry_multiplicity
 _atom_site_fract_x
 _atom_site_fract_y
 _atom_site_fract_z
 _atom_site_occupancy
  Ru  Ru0  1  0.00000000  0.00000000  0.00000000  1
  Se  Se0  1  0.27579553  0.27579553  0.73470583  1
  Se  Se1  1  0.72420447  0.72420447  0.26529417  1
  Br  Br0  1  0.95094420  0.25732056  0.74563036  1
  Br  Br1  1  0.25732056  0.95094420  0.74563036  1
  Br  Br2  1  0.04905580  0.74267944  0.25436964  1
  Br  Br3  1  0.74267944  0.04905580  0.25436964  1
  Br  Br4  1  0.21152325  0.52690445  0.80006244  1
  Br  Br5  1  0.52690445  0.21152325  0.80006244  1
  Br  Br6  1  0.78847675  0.47309555  0.19993756  1
  Br  Br7  1  0.47309555  0.78847675  0.19993756  1
  Br  Br8  1  0.12405436  0.12405436  0.18166028  1
  Br  Br9  1  0.87594564  0.87594564  0.81833972  1
  Br  Br10  1  0.65123244  0.65123244  0.65112057  1
  Br  Br11  1  0.34876756  0.34876756  0.34887943  1
loop_
_geom_bond_atom_site_label_1
_geom_bond_atom_site_label_2
_geom_bond_distance
_geom_bond_site_symmetry_2
Br0 Ru0 2.490187 1_656
Br0 Se0 2.972668 1_655
Br1 Ru0 2.490188 1_566
Br1 Se0 2.972668 1_565
Br2 Ru0 2.490187 1_565
Br2 Se1 2.972668 1_455
Br3 Ru0 2.490188 1_655
Br3 Se1 2.972668 1_545
Br4 Se0 2.369555 1_555
Br5 Se0 2.369555 1_555
Br6 Se1 2.369555 1_555
Br7 Se1 2.369555 1_555
Br8 Ru0 2.485828 1_555
Br8 Se0 2.937690 1_554
Br9 Ru0 2.485828 1_666
Br9 Se1 2.937690 1_556
Br10 Se1 2.380498 1_555
Br11 Se0 2.380498 1_555
