# generated using pymatgen
data_Cs12Nb3MoS16
_symmetry_space_group_name_H-M   'P 1'
_cell_length_a   10.08184855
_cell_length_b   10.01639171
_cell_length_c   11.62227283
_cell_angle_alpha   90.00000000
_cell_angle_beta   90.00000000
_cell_angle_gamma   90.25047287
_symmetry_Int_Tables_number   1
_chemical_formula_structural   Cs12Nb3MoS16
_chemical_formula_sum   'Cs12 Nb3 Mo1 S16'
_cell_volume   1173.64941135
_cell_formula_units_Z   1
loop_
 _symmetry_equiv_pos_site_id
 _symmetry_equiv_pos_as_xyz
  1  'x, y, z'
loop_
 _atom_site_type_symbol
 _atom_site_label
 _atom_site_symmetry_multiplicity
 _atom_site_fract_x
 _atom_site_fract_y
 _atom_site_fract_z
 _atom_site_occupancy
  Cs  Cs0  1  0.41519253  0.84954219  0.75000000  1
  Cs  Cs1  1  0.58185557  0.14818081  0.25000000  1
  Cs  Cs2  1  0.08319556  0.35252492  0.75000000  1
  Cs  Cs3  1  0.70895585  0.54798920  0.96070484  1
  Cs  Cs4  1  0.29309947  0.45416780  0.04185123  1
  Cs  Cs5  1  0.92159813  0.64740420  0.25000000  1
  Cs  Cs6  1  0.20964848  0.95198488  0.04140369  1
  Cs  Cs7  1  0.29309947  0.45416780  0.45814877  1
  Cs  Cs8  1  0.20964848  0.95198488  0.45859631  1
  Cs  Cs9  1  0.70895585  0.54798920  0.53929516  1
  Cs  Cs10  1  0.78961720  0.04717562  0.54033996  1
  Cs  Cs11  1  0.78961720  0.04717562  0.95966004  1
  Nb  Nb0  1  0.98363314  0.77817425  0.75000000  1
  Nb  Nb1  1  0.51634878  0.27706727  0.75000000  1
  Nb  Nb2  1  0.01599971  0.22199181  0.25000000  1
  Mo  Mo0  1  0.48375979  0.72379872  0.25000000  1
  S  S0  1  0.57432514  0.51870366  0.25000000  1
  S  S1  1  0.07190092  0.98970051  0.75000000  1
  S  S2  1  0.45263245  0.16664514  0.91343226  1
  S  S3  1  0.04810983  0.66815956  0.58703718  1
  S  S4  1  0.42817989  0.48799333  0.75000000  1
  S  S5  1  0.95212538  0.33213256  0.08695833  1
  S  S6  1  0.54246904  0.82792561  0.41223832  1
  S  S7  1  0.75706912  0.79331562  0.75000000  1
  S  S8  1  0.04810983  0.66815956  0.91296282  1
  S  S9  1  0.26175800  0.70808017  0.25000000  1
  S  S10  1  0.54246904  0.82792561  0.08776168  1
  S  S11  1  0.24233993  0.20633378  0.25000000  1
  S  S12  1  0.74270488  0.29413226  0.75000000  1
  S  S13  1  0.45263245  0.16664514  0.58656774  1
  S  S14  1  0.92682450  0.01069475  0.25000000  1
  S  S15  1  0.95212538  0.33213256  0.41304167  1
loop_
_geom_bond_atom_site_label_1
_geom_bond_atom_site_label_2
_geom_bond_distance
_geom_bond_site_symmetry_2
Cs0 S7 3.494885 1_555
Cs0 S4 3.624353 1_555
Cs0 S2 3.718648 1_565
Cs0 S13 3.718648 1_565
Cs0 S1 3.740586 1_555
Cs0 S10 4.135925 1_556
Cs0 S6 4.135925 1_555
Cs1 S11 3.474662 1_555
Cs1 S0 3.712410 1_555
Cs1 S6 3.740580 1_545
Cs1 S10 3.740580 1_545
Cs1 S14 3.746235 1_555
Cs1 S13 4.127333 1_555
Cs1 S2 4.127333 1_554
Cs2 S12 3.479724 1_455
Cs2 S1 3.635477 1_545
Cs2 S8 3.703693 1_555
Cs2 S3 3.703693 1_555
Cs2 S4 3.727864 1_555
Cs3 S7 3.501440 1_555
Cs3 S12 3.547644 1_555
Cs3 S5 3.589498 1_556
Cs3 S10 3.591832 1_556
Cs3 S0 3.637271 1_556
Cs3 S8 3.662285 1_655
Cs3 S4 3.788972 1_555
Cs4 S11 3.502206 1_555
Cs4 S9 3.525268 1_555
Cs4 S8 3.603490 1_554
Cs4 S2 3.626166 1_554
Cs4 S4 3.670274 1_554
Cs4 S5 3.680988 1_455
Cs4 S0 3.780603 1_555
Cs5 S9 3.480259 1_655
Cs5 S14 3.639012 1_565
Cs5 S15 3.696776 1_555
Cs5 S5 3.696776 1_555
Cs5 S0 3.725645 1_555
Cs5 S3 4.124524 1_655
Cs5 S8 4.124524 1_654
Cs6 S9 3.483279 1_555
Cs6 S11 3.531202 1_565
Cs6 S2 3.576346 1_564
Cs6 S8 3.594770 1_554
Cs6 S10 3.623518 1_555
Cs6 S1 3.680511 1_554
Cs6 S14 3.790571 1_465
Cs7 S11 3.502206 1_555
Cs7 S9 3.525268 1_555
Cs7 S3 3.603490 1_555
Cs7 S13 3.626166 1_555
Cs7 S4 3.670274 1_555
Cs7 S15 3.680988 1_455
Cs7 S0 3.780603 1_555
Cs8 S9 3.483279 1_555
Cs8 S11 3.531202 1_565
Cs8 S13 3.576346 1_565
Cs8 S3 3.594770 1_555
Cs8 S6 3.623518 1_555
Cs8 S1 3.680511 1_555
Cs8 S14 3.790571 1_465
Cs9 S7 3.501440 1_555
Cs9 S12 3.547644 1_555
Cs9 S15 3.589498 1_555
Cs9 S6 3.591832 1_555
Cs9 S0 3.637271 1_555
Cs9 S3 3.662285 1_655
Cs9 S4 3.788972 1_555
Cs10 S12 3.505756 1_555
Cs10 S7 3.536050 1_545
Cs10 S15 3.602639 1_555
Cs10 S6 3.633212 1_545
Cs10 S13 3.646740 1_555
Cs10 S14 3.665803 1_555
Cs10 S1 3.792462 1_645
Cs11 S12 3.505756 1_555
Cs11 S7 3.536050 1_545
Cs11 S5 3.602639 1_556
Cs11 S10 3.633212 1_546
Cs11 S2 3.646740 1_555
Cs11 S14 3.665803 1_556
Cs11 S1 3.792462 1_645
Nb0 S8 2.286995 1_655
Nb0 S3 2.286995 1_655
Nb0 S7 2.289875 1_555
Nb0 S1 2.294441 1_655
Nb1 S12 2.287735 1_555
Nb1 S2 2.288596 1_555
Nb1 S13 2.288596 1_555
Nb1 S4 2.295681 1_555
Nb2 S15 2.286633 1_455
Nb2 S5 2.286633 1_455
Nb2 S11 2.287995 1_555
Nb2 S14 2.295855 1_455
Mo0 S6 2.233416 1_555
Mo0 S10 2.233416 1_555
Mo0 S9 2.243033 1_555
Mo0 S0 2.251730 1_555
