# generated using pymatgen
data_Ba2Sn4GeIr4
_symmetry_space_group_name_H-M   'P 1'
_cell_length_a   6.99820086
_cell_length_b   6.99820125
_cell_length_c   12.09224927
_cell_angle_alpha   89.67156094
_cell_angle_beta   89.67155939
_cell_angle_gamma   118.23956154
_symmetry_Int_Tables_number   1
_chemical_formula_structural   Ba2Sn4GeIr4
_chemical_formula_sum   'Ba4 Sn8 Ge2 Ir8'
_cell_volume   521.69584949
_cell_formula_units_Z   2
loop_
 _symmetry_equiv_pos_site_id
 _symmetry_equiv_pos_as_xyz
  1  'x, y, z'
loop_
 _atom_site_type_symbol
 _atom_site_label
 _atom_site_symmetry_multiplicity
 _atom_site_fract_x
 _atom_site_fract_y
 _atom_site_fract_z
 _atom_site_occupancy
  Ba  Ba0  1  0.19569582  0.80430418  0.50000000  1
  Ba  Ba1  1  0.19917374  0.80082626  1.00000000  1
  Ba  Ba2  1  0.80430418  0.19569582  0.50000000  1
  Ba  Ba3  1  0.80082626  0.19917374  0.00000000  1
  Sn  Sn0  1  0.50308295  0.89053888  0.25320901  1
  Sn  Sn1  1  0.10946112  0.49691705  0.74679099  1
  Sn  Sn2  1  0.49691705  0.10946112  0.74679099  1
  Sn  Sn3  1  0.89053888  0.50308295  0.25320901  1
  Sn  Sn4  1  0.33661609  0.33661609  0.07498007  1
  Sn  Sn5  1  0.66338391  0.66338391  0.92501993  1
  Sn  Sn6  1  0.02028498  0.02028498  0.25678145  1
  Sn  Sn7  1  0.97971502  0.97971402  0.74321855  1
  Ge  Ge0  1  0.34891450  0.34891450  0.43314388  1
  Ge  Ge1  1  0.65108550  0.65108550  0.56685612  1
  Ir  Ir0  1  0.46946824  0.23761054  0.26314165  1
  Ir  Ir1  1  0.76238946  0.53053176  0.73685835  1
  Ir  Ir2  1  0.53053176  0.76238946  0.73685835  1
  Ir  Ir3  1  0.23761054  0.46946824  0.26314165  1
  Ir  Ir4  1  0.68502346  0.68502346  0.36858704  1
  Ir  Ir5  1  0.31497654  0.31497654  0.63141296  1
  Ir  Ir6  1  0.69454592  0.69454592  0.13973623  1
  Ir  Ir7  1  0.30545408  0.30545408  0.86026377  1
loop_
_geom_bond_atom_site_label_1
_geom_bond_atom_site_label_2
_geom_bond_distance
_geom_bond_site_symmetry_2
Ba0 Ge1 3.523733 1_455
Ba0 Ge0 3.523733 1_565
Ba0 Sn0 3.546085 1_555
Ba0 Sn1 3.546085 1_555
Ba0 Ir4 3.640217 1_455
Ba0 Ir5 3.640217 1_565
Ba0 Sn3 3.714183 1_455
Ba0 Sn2 3.714183 1_565
Ba0 Sn7 3.766633 1_455
Ba0 Sn6 3.766637 1_565
Ba0 Ir2 3.807620 1_555
Ba0 Ir3 3.807620 1_555
Ba0 Ge1 3.900389 1_555
Ba0 Ge0 3.900389 1_555
Ba1 Sn5 3.527395 1_455
Ba1 Sn4 3.527395 1_566
Ba1 Sn0 3.622934 1_556
Ba1 Sn1 3.622934 1_555
Ba1 Ir6 3.648469 1_456
Ba1 Ir7 3.648470 1_565
Ba1 Sn3 3.738176 1_456
Ba1 Sn2 3.738176 1_565
Ba1 Ba3 3.793680 1_566
Ba1 Ba3 3.793680 1_456
Ba1 Sn5 3.903081 1_555
Ba1 Sn4 3.903081 1_556
Ba1 Sn7 3.923897 1_455
Ba1 Sn6 3.923901 1_566
Ba1 Ir2 4.011253 1_555
Ba1 Ir3 4.011253 1_556
Ba2 Ge0 3.523733 1_655
Ba2 Ge1 3.523733 1_545
Ba2 Sn2 3.546085 1_555
Ba2 Sn3 3.546085 1_555
Ba2 Ir5 3.640217 1_655
Ba2 Ir4 3.640217 1_545
Ba2 Sn1 3.714183 1_655
Ba2 Sn0 3.714183 1_545
Ba2 Sn6 3.766637 1_655
Ba2 Sn7 3.766640 1_545
Ba2 Ir0 3.807620 1_555
Ba2 Ir1 3.807620 1_555
Ba2 Ge0 3.900389 1_555
Ba2 Ge1 3.900389 1_555
Ba3 Sn4 3.527395 1_655
Ba3 Sn5 3.527395 1_544
Ba3 Sn2 3.622934 1_554
Ba3 Sn3 3.622934 1_555
Ba3 Ir7 3.648469 1_654
Ba3 Ir6 3.648470 1_545
Ba3 Sn1 3.738176 1_654
Ba3 Sn0 3.738176 1_545
Ba3 Sn4 3.903081 1_555
Ba3 Sn5 3.903081 1_554
Ba3 Sn6 3.923901 1_655
Ba3 Sn7 3.923904 1_544
Ba3 Ir0 4.011253 1_555
Ba3 Ir1 4.011253 1_554
Sn4 Sn5 2.950134 1_554
Sn4 Sn6 3.144054 1_555
Sn5 Sn7 3.144052 1_555
Ge0 Ir5 2.407172 1_555
Ge0 Ir0 2.482897 1_555
Ge0 Ir3 2.482897 1_555
Ge0 Ir4 2.529218 1_555
Ge1 Ir4 2.407172 1_555
Ge1 Ir2 2.482897 1_555
Ge1 Ir1 2.482897 1_555
Ge1 Ir5 2.529218 1_555
Ir0 Sn0 2.552045 1_545
Ir0 Sn3 2.638550 1_555
Ir0 Sn4 2.671552 1_555
Ir0 Sn6 2.771341 1_555
Ir1 Sn1 2.552045 1_655
Ir1 Sn2 2.638550 1_555
Ir1 Sn5 2.671552 1_555
Ir1 Sn7 2.771335 1_555
Ir2 Sn2 2.552045 1_565
Ir2 Sn1 2.638550 1_555
Ir2 Sn5 2.671552 1_555
Ir2 Sn7 2.771341 1_555
Ir3 Sn3 2.552045 1_455
Ir3 Sn0 2.638550 1_555
Ir3 Sn4 2.671552 1_555
Ir3 Sn6 2.771342 1_555
Ir4 Sn3 2.714137 1_555
Ir4 Sn0 2.714137 1_555
Ir4 Sn6 2.748711 1_665
Ir5 Sn1 2.714137 1_555
Ir5 Sn2 2.714137 1_555
Ir5 Sn7 2.748714 1_445
Ir6 Sn5 2.608525 1_554
Ir6 Sn4 2.696165 1_555
Ir6 Sn0 2.701669 1_555
Ir6 Sn3 2.701669 1_555
Ir6 Sn6 2.748207 1_665
Ir7 Sn4 2.608525 1_556
Ir7 Sn5 2.696165 1_555
Ir7 Sn2 2.701669 1_555
Ir7 Sn1 2.701669 1_555
Ir7 Sn7 2.748210 1_445
