# generated using pymatgen
data_Ta4VGaSi2
_symmetry_space_group_name_H-M   'P 1'
_cell_length_a   7.51381792
_cell_length_b   7.51381801
_cell_length_c   7.51381831
_cell_angle_alpha   129.21385079
_cell_angle_beta   129.21385176
_cell_angle_gamma   74.66671722
_symmetry_Int_Tables_number   1
_chemical_formula_structural   Ta4VGaSi2
_chemical_formula_sum   'Ta8 V2 Ga2 Si4'
_cell_volume   248.10589377
_cell_formula_units_Z   2
loop_
 _symmetry_equiv_pos_site_id
 _symmetry_equiv_pos_as_xyz
  1  'x, y, z'
loop_
 _atom_site_type_symbol
 _atom_site_label
 _atom_site_symmetry_multiplicity
 _atom_site_fract_x
 _atom_site_fract_y
 _atom_site_fract_z
 _atom_site_occupancy
  Ta  Ta0  1  0.01633281  0.51633281  0.82881401  1
  Ta  Ta1  1  0.68751880  0.18751880  0.17118599  1
  Ta  Ta2  1  0.51633281  0.68751880  0.50000000  1
  Ta  Ta3  1  0.18751880  0.01633281  0.50000000  1
  Ta  Ta4  1  0.98366719  0.48366719  0.17118599  1
  Ta  Ta5  1  0.31248120  0.81248120  0.82881401  1
  Ta  Ta6  1  0.48366719  0.31248120  0.50000000  1
  Ta  Ta7  1  0.81248120  0.98366719  0.50000000  1
  V  V0  1  0.00000000  0.00000000  0.00000000  1
  V  V1  1  0.50000000  0.50000000  0.00000000  1
  Ga  Ga0  1  0.75000000  0.75000000  0.00000000  1
  Ga  Ga1  1  0.25000000  0.25000000  0.00000000  1
  Si  Si0  1  0.63307767  0.13307767  0.76615435  1
  Si  Si1  1  0.36692233  0.86692233  0.23384565  1
  Si  Si2  1  0.13307767  0.36692233  0.50000000  1
  Si  Si3  1  0.86692233  0.63307767  0.50000000  1
loop_
_geom_bond_atom_site_label_1
_geom_bond_atom_site_label_2
_geom_bond_distance
_geom_bond_site_symmetry_2
Ga0 Ta5 2.698660 1_554
Ga0 Ta4 2.698660 1_555
Ga0 Ta0 2.698660 1_654
Ga0 Ta1 2.698660 1_565
Ga0 Ta3 2.698661 1_665
Ga0 Ta2 2.698661 1_554
Ga0 Ta7 2.698661 1_555
Ga0 Ta6 2.698661 1_554
Ga0 V1 2.987195 1_555
Ga0 V0 2.987195 1_665
Ga1 Ta1 2.698660 1_555
Ga1 Ta0 2.698660 1_554
Ga1 Ta4 2.698660 1_455
Ga1 Ta5 2.698660 1_544
Ga1 Ta7 2.698661 1_444
Ga1 Ta6 2.698661 1_555
Ga1 Ta3 2.698661 1_554
Ga1 Ta2 2.698661 1_555
Ga1 V0 2.987195 1_555
Ga1 V1 2.987195 1_555
Si0 Si1 2.425606 1_545
Si0 V0 2.515251 1_656
Si0 V1 2.515251 1_556
Si0 Ta4 2.556715 1_556
Si0 Ta1 2.556723 1_556
Si0 Ta6 2.616544 1_555
Si0 Ta7 2.616544 1_545
Si0 Ta3 2.616552 1_555
Si0 Ta2 2.616552 1_545
Si1 V0 2.515251 1_565
Si1 V1 2.515251 1_555
Si1 Ta0 2.556715 1_554
Si1 Ta5 2.556723 1_554
Si1 Ta2 2.616544 1_555
Si1 Ta3 2.616544 1_565
Si1 Ta7 2.616552 1_555
Si1 Ta6 2.616552 1_565
Si2 Si3 2.425615 1_455
Si2 V1 2.515250 1_556
Si2 V0 2.515250 1_555
Si2 Ta6 2.556715 1_555
Si2 Ta3 2.556715 1_555
Si2 Ta1 2.616550 1_455
Si2 Ta4 2.616550 1_455
Si2 Ta0 2.616550 1_555
Si2 Ta5 2.616550 1_555
Si3 V1 2.515250 1_555
Si3 V0 2.515250 1_666
Si3 Ta2 2.556715 1_555
Si3 Ta7 2.556715 1_555
Si3 Ta5 2.616550 1_655
Si3 Ta0 2.616550 1_655
Si3 Ta4 2.616550 1_555
Si3 Ta1 2.616550 1_555
