# generated using pymatgen
data_Ta4CuNiN
_symmetry_space_group_name_H-M   'P 1'
_cell_length_a   8.19099415
_cell_length_b   8.19099438
_cell_length_c   8.19099505
_cell_angle_alpha   59.99999727
_cell_angle_beta   59.99999635
_cell_angle_gamma   60.00000307
_symmetry_Int_Tables_number   1
_chemical_formula_structural   Ta4CuNiN
_chemical_formula_sum   'Ta16 Cu4 Ni4 N4'
_cell_volume   388.59293320
_cell_formula_units_Z   4
loop_
 _symmetry_equiv_pos_site_id
 _symmetry_equiv_pos_as_xyz
  1  'x, y, z'
loop_
 _atom_site_type_symbol
 _atom_site_label
 _atom_site_symmetry_multiplicity
 _atom_site_fract_x
 _atom_site_fract_y
 _atom_site_fract_z
 _atom_site_occupancy
  Ta  Ta0  1  0.11903273  0.62698876  0.62698876  1
  Ta  Ta1  1  0.62698876  0.11903273  0.62698876  1
  Ta  Ta2  1  0.62698876  0.62698876  0.11903273  1
  Ta  Ta3  1  0.62698876  0.62698876  0.62698876  1
  Ta  Ta4  1  0.81549909  0.81549909  0.18450091  1
  Ta  Ta5  1  0.18450091  0.18450091  0.81549909  1
  Ta  Ta6  1  0.81549909  0.18450091  0.81549909  1
  Ta  Ta7  1  0.18450091  0.81549909  0.18450091  1
  Ta  Ta8  1  0.18450091  0.81549909  0.81549909  1
  Ta  Ta9  1  0.81549909  0.18450091  0.18450091  1
  Ta  Ta10  1  0.43558737  0.43558737  0.06441263  1
  Ta  Ta11  1  0.06441263  0.06441263  0.43558737  1
  Ta  Ta12  1  0.43558737  0.06441263  0.43558737  1
  Ta  Ta13  1  0.06441263  0.43558737  0.06441263  1
  Ta  Ta14  1  0.06441263  0.43558737  0.43558737  1
  Ta  Ta15  1  0.43558737  0.06441263  0.06441263  1
  Cu  Cu0  1  0.74910023  0.41696659  0.41696659  1
  Cu  Cu1  1  0.41696659  0.74910023  0.41696659  1
  Cu  Cu2  1  0.41696659  0.41696659  0.74910023  1
  Cu  Cu3  1  0.41696659  0.41696659  0.41696659  1
  Ni  Ni0  1  0.51187645  0.82937452  0.82937452  1
  Ni  Ni1  1  0.82937452  0.51187645  0.82937452  1
  Ni  Ni2  1  0.82937452  0.82937452  0.51187645  1
  Ni  Ni3  1  0.82937452  0.82937452  0.82937452  1
  N  N0  1  0.62292639  0.12569120  0.12569120  1
  N  N1  1  0.12569120  0.62292639  0.12569120  1
  N  N2  1  0.12569120  0.12569120  0.62292639  1
  N  N3  1  0.12569120  0.12569120  0.12569120  1
loop_
_geom_bond_atom_site_label_1
_geom_bond_atom_site_label_2
_geom_bond_distance
_geom_bond_site_symmetry_2
Cu0 Ta3 2.537185 1_555
Cu0 Ta1 2.537192 1_555
Cu0 Ta2 2.537192 1_555
Cu0 Cu3 2.720505 1_555
Cu0 Cu2 2.720505 1_555
Cu0 Cu1 2.720505 1_555
Cu0 Ta14 2.743737 1_655
Cu0 Ta13 2.743737 1_655
Cu0 Ta11 2.743737 1_655
Cu0 Ta4 3.016897 1_555
Cu0 Ta9 3.016898 1_555
Cu0 Ta6 3.016898 1_555
Cu1 Ta3 2.537185 1_555
Cu1 Ta0 2.537191 1_555
Cu1 Ta2 2.537192 1_555
Cu1 Cu3 2.720505 1_555
Cu1 Cu2 2.720505 1_555
Cu1 Ta15 2.743737 1_565
Cu1 Ta12 2.743737 1_565
Cu1 Ta11 2.743737 1_565
Cu1 Ta4 3.016897 1_555
Cu1 Ta7 3.016898 1_555
Cu1 Ta8 3.016898 1_555
Cu2 Ta3 2.537185 1_555
Cu2 Ta0 2.537192 1_555
Cu2 Ta1 2.537192 1_555
Cu2 Cu3 2.720505 1_555
Cu2 Ta13 2.743737 1_556
Cu2 Ta15 2.743737 1_556
Cu2 Ta10 2.743737 1_556
Cu2 Ta5 3.016897 1_555
Cu2 Ta6 3.016898 1_555
Cu2 Ta8 3.016898 1_555
Cu3 Ta2 2.537187 1_555
Cu3 Ta0 2.537187 1_555
Cu3 Ta1 2.537187 1_555
Cu3 Ta14 2.743737 1_555
Cu3 Ta12 2.743737 1_555
Cu3 Ta10 2.743737 1_555
Cu3 Ta5 3.016897 1_555
Cu3 Ta9 3.016898 1_555
Cu3 Ta7 3.016898 1_555
Ni0 Ta1 2.450958 1_565
Ni0 Ta2 2.450958 1_556
Ni0 Ta3 2.450965 1_555
Ni0 Ni2 2.600625 1_555
Ni0 Ni3 2.600625 1_555
Ni0 Ni1 2.600625 1_555
Ni0 Ta8 2.799802 1_555
Ni0 Ta7 2.799802 1_556
Ni0 Ta5 2.799802 1_565
Ni0 Ta10 3.017212 1_556
Ni0 Ta12 3.017213 1_565
Ni0 Ta15 3.017213 1_566
Ni1 Ta0 2.450958 1_655
Ni1 Ta2 2.450958 1_556
Ni1 Ta3 2.450965 1_555
Ni1 Ni2 2.600625 1_555
Ni1 Ni3 2.600625 1_555
Ni1 Ta6 2.799802 1_555
Ni1 Ta9 2.799802 1_556
Ni1 Ta5 2.799802 1_655
Ni1 Ta10 3.017212 1_556
Ni1 Ta14 3.017213 1_655
Ni1 Ta13 3.017213 1_656
Ni2 Ta0 2.450958 1_655
Ni2 Ta1 2.450958 1_565
Ni2 Ta3 2.450964 1_555
Ni2 Ni3 2.600625 1_555
Ni2 Ta7 2.799802 1_655
Ni2 Ta9 2.799802 1_565
Ni2 Ta4 2.799802 1_555
Ni2 Ta11 3.017212 1_665
Ni2 Ta12 3.017212 1_565
Ni2 Ta14 3.017213 1_655
Ni3 Ta2 2.450962 1_556
Ni3 Ta0 2.450962 1_655
Ni3 Ta1 2.450962 1_565
Ni3 Ta8 2.799802 1_655
Ni3 Ta6 2.799802 1_565
Ni3 Ta4 2.799802 1_556
Ni3 Ta11 3.017212 1_665
Ni3 Ta15 3.017212 1_566
Ni3 Ta13 3.017213 1_656
N0 Ta15 2.156595 1_555
N0 Ta12 2.156595 1_555
N0 Ta10 2.156595 1_555
N0 Ta6 2.168840 1_554
N0 Ta9 2.168840 1_555
N0 Ta4 2.168840 1_545
N1 Ta10 2.156595 1_555
N1 Ta14 2.156595 1_555
N1 Ta13 2.156595 1_555
N1 Ta4 2.168840 1_455
N1 Ta8 2.168840 1_554
N1 Ta7 2.168840 1_555
N2 Ta12 2.156595 1_555
N2 Ta14 2.156595 1_555
N2 Ta11 2.156595 1_555
N2 Ta6 2.168840 1_455
N2 Ta8 2.168840 1_545
N2 Ta5 2.168840 1_555
N3 Ta15 2.156595 1_555
N3 Ta13 2.156595 1_555
N3 Ta11 2.156595 1_555
N3 Ta9 2.168840 1_455
N3 Ta7 2.168840 1_545
N3 Ta5 2.168840 1_554
