# generated using pymatgen
data_Na(SiPt)4
_symmetry_space_group_name_H-M   'P 1'
_cell_length_a   6.30082720
_cell_length_b   6.30082658
_cell_length_c   6.30082729
_cell_angle_alpha   97.77395943
_cell_angle_beta   97.77395892
_cell_angle_gamma   136.84193093
_symmetry_Int_Tables_number   1
_chemical_formula_structural   Na(SiPt)4
_chemical_formula_sum   'Na1 Si4 Pt4'
_cell_volume   159.11047272
_cell_formula_units_Z   1
loop_
 _symmetry_equiv_pos_site_id
 _symmetry_equiv_pos_as_xyz
  1  'x, y, z'
loop_
 _atom_site_type_symbol
 _atom_site_label
 _atom_site_symmetry_multiplicity
 _atom_site_fract_x
 _atom_site_fract_y
 _atom_site_fract_z
 _atom_site_occupancy
  Na  Na0  1  0.28884805  0.28884805  0.00000000  1
  Si  Si0  1  0.38782531  0.88724691  0.27227117  1
  Si  Si1  1  0.61497474  0.11555314  0.72772883  1
  Si  Si2  1  0.11555314  0.38782531  0.50057840  1
  Si  Si3  1  0.88724691  0.61497474  0.49942160  1
  Pt  Pt0  1  0.17637840  0.67765309  0.85125657  1
  Pt  Pt1  1  0.82639753  0.32512184  0.14874343  1
  Pt  Pt2  1  0.32512184  0.17637840  0.49872431  1
  Pt  Pt3  1  0.67765309  0.82639753  0.50127569  1
loop_
_geom_bond_atom_site_label_1
_geom_bond_atom_site_label_2
_geom_bond_distance
_geom_bond_site_symmetry_2
Na0 Pt0 3.218117 1_554
Na0 Pt2 3.218123 1_554
Na0 Pt1 3.218123 1_555
Na0 Pt3 3.218124 1_555
Na0 Pt1 3.327669 1_455
Na0 Pt2 3.327669 1_555
Na0 Pt3 3.327672 1_444
Na0 Pt0 3.327675 1_544
Pt0 Si1 2.427694 1_455
Pt0 Si1 2.427800 1_565
Pt0 Si3 2.451565 1_455
Pt0 Si2 2.454004 1_555
Pt0 Si0 2.466837 1_556
Pt1 Si0 2.427691 1_545
Pt1 Si0 2.427803 1_655
Pt1 Si2 2.451562 1_655
Pt1 Si3 2.454007 1_555
Pt1 Si1 2.466837 1_554
Pt2 Si3 2.427695 1_445
Pt2 Si3 2.427802 1_555
Pt2 Si0 2.451565 1_545
Pt2 Si1 2.454010 1_555
Pt2 Si2 2.466842 1_555
Pt3 Si2 2.427692 1_555
Pt3 Si2 2.427802 1_665
Pt3 Si1 2.451560 1_565
Pt3 Si0 2.454006 1_555
Pt3 Si3 2.466848 1_555
