# generated using pymatgen
data_Y2ReSi14Ir5
_symmetry_space_group_name_H-M   'P 1'
_cell_length_a   7.97465497
_cell_length_b   7.97465400
_cell_length_c   8.04946426
_cell_angle_alpha   56.88802330
_cell_angle_beta   56.88801794
_cell_angle_gamma   57.01002016
_symmetry_Int_Tables_number   1
_chemical_formula_structural   Y2ReSi14Ir5
_chemical_formula_sum   'Y2 Re1 Si14 Ir5'
_cell_volume   336.32851982
_cell_formula_units_Z   1
loop_
 _symmetry_equiv_pos_site_id
 _symmetry_equiv_pos_as_xyz
  1  'x, y, z'
loop_
 _atom_site_type_symbol
 _atom_site_label
 _atom_site_symmetry_multiplicity
 _atom_site_fract_x
 _atom_site_fract_y
 _atom_site_fract_z
 _atom_site_occupancy
  Y  Y0  1  0.00116593  0.00308678  0.99642928  1
  Y  Y1  1  0.49691322  0.49883407  0.50357072  1
  Re  Re0  1  0.07852473  0.42147527  0.75000000  1
  Si  Si0  1  0.75319109  0.74680891  0.75000000  1
  Si  Si1  1  0.24941257  0.25058743  0.25000000  1
  Si  Si2  1  0.84854681  0.06276501  0.67429704  1
  Si  Si3  1  0.67262142  0.85297014  0.06123957  1
  Si  Si4  1  0.06026271  0.67220988  0.85146721  1
  Si  Si5  1  0.64702986  0.82737858  0.43876043  1
  Si  Si6  1  0.43723499  0.65145319  0.82570296  1
  Si  Si7  1  0.82779012  0.43973729  0.64853279  1
  Si  Si8  1  0.17275627  0.56096512  0.35465686  1
  Si  Si9  1  0.56466046  0.35061665  0.17180532  1
  Si  Si10  1  0.35271878  0.17546156  0.55902657  1
  Si  Si11  1  0.93903488  0.32724373  0.14534314  1
  Si  Si12  1  0.32453844  0.14728122  0.94097343  1
  Si  Si13  1  0.14938335  0.93533954  0.32819468  1
  Ir  Ir0  1  0.24992766  0.92779652  0.57117298  1
  Ir  Ir1  1  0.57220348  0.25007234  0.92882702  1
  Ir  Ir2  1  0.92440764  0.57559236  0.25000000  1
  Ir  Ir3  1  0.42791644  0.75024083  0.07200085  1
  Ir  Ir4  1  0.74975917  0.07208356  0.42799915  1
loop_
_geom_bond_atom_site_label_1
_geom_bond_atom_site_label_2
_geom_bond_distance
_geom_bond_site_symmetry_2
Re0 Si10 2.438086 1_555
Re0 Si12 2.438087 1_555
Re0 Si4 2.454302 1_555
Re0 Si7 2.454302 1_455
Re0 Si0 2.476302 1_455
Re0 Si11 2.521733 1_456
Re0 Si8 2.521734 1_555
Re0 Y0 3.020128 1_555
Re0 Y1 3.020128 1_555
Si0 Si7 2.661854 1_555
Si0 Si4 2.661855 1_655
Si0 Si2 2.683451 1_565
Si0 Si6 2.683451 1_555
Si0 Si3 2.715217 1_556
Si0 Si5 2.715217 1_555
Si1 Si12 2.701581 1_554
Si1 Si10 2.701581 1_555
Si2 Si4 2.576085 1_645
Si2 Si7 2.814648 1_555
Si2 Y0 3.146483 1_655
Si2 Y1 3.196045 1_555
Si3 Si4 2.566913 1_654
Si3 Y0 3.132054 1_664
Si3 Y1 3.238653 1_555
Si4 Si6 2.814648 1_555
Si4 Y0 3.155146 1_565
Si4 Y1 3.195705 1_555
Si5 Si7 2.566913 1_555
Si5 Y1 3.132054 1_555
Si5 Y0 3.238653 1_664
Si6 Si7 2.576085 1_555
Si6 Y1 3.146483 1_555
Si6 Y0 3.196045 1_565
Si7 Si8 2.717732 1_655
Si7 Y1 3.155146 1_555
Si7 Y0 3.195705 1_655
Si8 Y1 3.115525 1_555
Si8 Y0 3.250800 1_564
Si9 Y1 3.161908 1_555
Si9 Y0 3.192299 1_654
Si10 Si8 2.542895 1_555
Si10 Si9 2.565432 1_555
Si10 Si5 2.740410 1_545
Si10 Si12 2.845807 1_555
Si10 Y1 3.095542 1_555
Si10 Y0 3.204726 1_555
Si11 Si12 2.542895 1_654
Si11 Si4 2.717732 1_654
Si11 Y0 3.115524 1_654
Si11 Y1 3.250800 1_555
Si12 Si13 2.565432 1_546
Si12 Si3 2.740410 1_546
Si12 Y0 3.095542 1_555
Si12 Y1 3.204726 1_555
Si13 Y0 3.161909 1_564
Si13 Y1 3.192300 1_555
Ir0 Si13 2.450333 1_555
Ir0 Si1 2.457470 1_565
Ir0 Si10 2.459027 1_565
Ir0 Si6 2.472107 1_555
Ir0 Si4 2.477296 1_555
Ir0 Si5 2.507767 1_555
Ir0 Si2 2.532701 1_465
Ir0 Y1 3.066442 1_555
Ir0 Y0 3.089118 1_565
Ir1 Si9 2.450333 1_556
Ir1 Si1 2.457469 1_556
Ir1 Si12 2.459028 1_555
Ir1 Si2 2.472107 1_555
Ir1 Si7 2.477296 1_555
Ir1 Si3 2.507767 1_546
Ir1 Si6 2.532701 1_555
Ir1 Y0 3.066443 1_655
Ir1 Y1 3.089118 1_555
Ir2 Si5 2.461250 1_555
Ir2 Si3 2.461250 1_555
Ir2 Si11 2.471754 1_555
Ir2 Si8 2.471754 1_655
Ir2 Si1 2.473800 1_655
Ir2 Si4 2.543594 1_654
Ir2 Si7 2.543594 1_555
Ir2 Y0 3.077003 1_664
Ir2 Y1 3.077003 1_555
Ir3 Si3 2.442431 1_555
Ir3 Si6 2.457319 1_554
Ir3 Si0 2.470228 1_554
Ir3 Si13 2.473078 1_555
Ir3 Si8 2.475854 1_555
Ir3 Si12 2.505219 1_564
Ir3 Si9 2.523123 1_555
Ir3 Y0 3.076763 1_564
Ir3 Y1 3.109337 1_555
Ir4 Si5 2.442431 1_545
Ir4 Si2 2.457319 1_555
Ir4 Si0 2.470228 1_545
Ir4 Si9 2.473078 1_555
Ir4 Si11 2.475854 1_555
Ir4 Si10 2.505219 1_555
Ir4 Si13 2.523123 1_645
Ir4 Y1 3.076763 1_555
Ir4 Y0 3.109337 1_654
