# generated using pymatgen
data_Hf8Pd3RhN2
_symmetry_space_group_name_H-M   'P 1'
_cell_length_a   8.69331108
_cell_length_b   8.69331074
_cell_length_c   8.69643653
_cell_angle_alpha   59.98810877
_cell_angle_beta   59.98811007
_cell_angle_gamma   59.98616300
_symmetry_Int_Tables_number   1
_chemical_formula_structural   Hf8Pd3RhN2
_chemical_formula_sum   'Hf16 Pd6 Rh2 N4'
_cell_volume   464.59364109
_cell_formula_units_Z   2
loop_
 _symmetry_equiv_pos_site_id
 _symmetry_equiv_pos_as_xyz
  1  'x, y, z'
loop_
 _atom_site_type_symbol
 _atom_site_label
 _atom_site_symmetry_multiplicity
 _atom_site_fract_x
 _atom_site_fract_y
 _atom_site_fract_z
 _atom_site_occupancy
  Hf  Hf0  1  0.11488397  0.63062270  0.62724616  1
  Hf  Hf1  1  0.63062270  0.11488397  0.62724616  1
  Hf  Hf2  1  0.62772765  0.62772765  0.12056315  1
  Hf  Hf3  1  0.62772765  0.62772765  0.62398155  1
  Hf  Hf4  1  0.81763141  0.81763141  0.18236859  1
  Hf  Hf5  1  0.18201411  0.18201411  0.81798589  1
  Hf  Hf6  1  0.81789437  0.17881673  0.81808941  1
  Hf  Hf7  1  0.17881673  0.81789437  0.18519949  1
  Hf  Hf8  1  0.17881673  0.81789437  0.81808941  1
  Hf  Hf9  1  0.81789437  0.17881673  0.18519949  1
  Hf  Hf10  1  0.43227257  0.43227257  0.06772743  1
  Hf  Hf11  1  0.06734778  0.06734778  0.43265222  1
  Hf  Hf12  1  0.43280233  0.06768992  0.43230766  1
  Hf  Hf13  1  0.06768992  0.43280233  0.06719909  1
  Hf  Hf14  1  0.06768992  0.43280233  0.43230766  1
  Hf  Hf15  1  0.43280233  0.06768992  0.06719909  1
  Pd  Pd0  1  0.77229140  0.40872348  0.40949306  1
  Pd  Pd1  1  0.40872348  0.77229140  0.40949306  1
  Pd  Pd2  1  0.40964403  0.40964403  0.77038423  1
  Pd  Pd3  1  0.40964403  0.40964403  0.41032771  1
  Pd  Pd4  1  0.47382157  0.84118781  0.84249581  1
  Pd  Pd5  1  0.84118781  0.47382157  0.84249581  1
  Rh  Rh0  1  0.84418233  0.84418233  0.46743880  1
  Rh  Rh1  1  0.84418233  0.84418233  0.84419653  1
  N  N0  1  0.62459771  0.12576735  0.12481747  1
  N  N1  1  0.12576735  0.62459771  0.12481747  1
  N  N2  1  0.12566121  0.12566121  0.62398329  1
  N  N3  1  0.12566121  0.12566121  0.12469430  1
loop_
_geom_bond_atom_site_label_1
_geom_bond_atom_site_label_2
_geom_bond_distance
_geom_bond_site_symmetry_2
Hf0 Rh0 2.689972 1_455
Hf0 Rh1 2.689978 1_455
Hf0 Pd5 2.694432 1_455
Hf0 Pd1 2.757384 1_555
Hf0 Pd3 2.771293 1_555
Hf0 Pd2 2.771297 1_555
Hf1 Rh0 2.689972 1_545
Hf1 Rh1 2.689978 1_545
Hf1 Pd4 2.694431 1_545
Hf1 Pd0 2.757383 1_555
Hf1 Pd3 2.771293 1_555
Hf1 Pd2 2.771297 1_555
Hf2 Pd4 2.710179 1_554
Hf2 Pd5 2.710179 1_554
Hf2 Rh1 2.711466 1_554
Hf2 Pd0 2.738120 1_555
Hf2 Pd1 2.738120 1_555
Hf2 Pd3 2.752480 1_555
Hf3 Pd4 2.710186 1_555
Hf3 Pd5 2.710186 1_555
Hf3 Rh0 2.711466 1_555
Hf3 Pd0 2.738113 1_555
Hf3 Pd1 2.738113 1_555
Hf3 Pd2 2.752480 1_555
Hf4 N0 2.289986 1_565
Hf4 N1 2.289986 1_655
Hf4 Rh0 2.729579 1_555
Hf4 Rh1 2.729579 1_554
Hf5 N2 2.284759 1_555
Hf5 N3 2.284759 1_556
Hf5 Pd4 2.765727 1_545
Hf5 Pd5 2.765727 1_455
Hf6 N0 2.283059 1_556
Hf6 N2 2.290596 1_655
Hf6 Rh1 2.700486 1_545
Hf6 Pd5 2.787493 1_555
Hf7 N1 2.283059 1_555
Hf7 N3 2.290596 1_565
Hf7 Rh0 2.700487 1_455
Hf7 Pd4 2.787489 1_554
Hf8 N1 2.283059 1_556
Hf8 N2 2.290596 1_565
Hf8 Rh1 2.700486 1_455
Hf8 Pd4 2.787494 1_555
Hf9 N0 2.283059 1_555
Hf9 N3 2.290596 1_655
Hf9 Rh0 2.700487 1_545
Hf9 Pd5 2.787489 1_554
Hf10 N0 2.278568 1_555
Hf10 N1 2.278568 1_555
Hf10 Pd2 2.796484 1_554
Hf10 Pd3 2.796484 1_555
Hf11 N2 2.286309 1_555
Hf11 N3 2.286309 1_555
Hf11 Pd0 2.780388 1_455
Hf11 Pd1 2.780388 1_545
Hf12 N2 2.281151 1_555
Hf12 N0 2.284069 1_555
Hf12 Pd1 2.786891 1_545
Hf12 Pd3 2.790239 1_555
Hf13 N3 2.281149 1_555
Hf13 N1 2.284075 1_555
Hf13 Pd0 2.786901 1_455
Hf13 Pd2 2.790236 1_554
Hf14 N2 2.281151 1_555
Hf14 N1 2.284069 1_555
Hf14 Pd0 2.786891 1_455
Hf14 Pd3 2.790239 1_555
Hf15 N3 2.281149 1_555
Hf15 N0 2.284075 1_555
Hf15 Pd1 2.786901 1_545
Hf15 Pd2 2.790236 1_554
