# generated using pymatgen
data_NaBi(PS3)2
_symmetry_space_group_name_H-M   'P 1'
_cell_length_a   7.31244805
_cell_length_b   6.62522266
_cell_length_c   9.46240563
_cell_angle_alpha   87.93861416
_cell_angle_beta   90.00000000
_cell_angle_gamma   90.00000000
_symmetry_Int_Tables_number   1
_chemical_formula_structural   NaBi(PS3)2
_chemical_formula_sum   'Na2 Bi2 P4 S12'
_cell_volume   458.12468602
_cell_formula_units_Z   2
loop_
 _symmetry_equiv_pos_site_id
 _symmetry_equiv_pos_as_xyz
  1  'x, y, z'
loop_
 _atom_site_type_symbol
 _atom_site_label
 _atom_site_symmetry_multiplicity
 _atom_site_fract_x
 _atom_site_fract_y
 _atom_site_fract_z
 _atom_site_occupancy
  Na  Na0  1  0.55345214  0.29478598  0.50028810  1
  Na  Na1  1  0.05345214  0.70521402  0.49971190  1
  Bi  Bi0  1  0.30410459  0.21809873  0.96741651  1
  Bi  Bi1  1  0.80410459  0.78190127  0.03258349  1
  P  P0  1  0.81940328  0.31749556  0.81505520  1
  P  P1  1  0.03931652  0.18112598  0.68531599  1
  P  P2  1  0.53931652  0.81887402  0.31468401  1
  P  P3  1  0.31940328  0.68250444  0.18494480  1
  S  S0  1  0.93883957  0.36000752  0.00885576  1
  S  S1  1  0.12817478  0.93820741  0.80698553  1
  S  S2  1  0.93763412  0.12681459  0.49921536  1
  S  S3  1  0.43763412  0.87318541  0.50078464  1
  S  S4  1  0.24210051  0.39203911  0.69732105  1
  S  S5  1  0.62817478  0.06179259  0.19301447  1
  S  S6  1  0.63111532  0.08834926  0.82391703  1
  S  S7  1  0.73256217  0.56955239  0.71813473  1
  S  S8  1  0.13111532  0.91165074  0.17608297  1
  S  S9  1  0.23256217  0.43044761  0.28186527  1
  S  S10  1  0.43883957  0.63999248  0.99114424  1
  S  S11  1  0.74210051  0.60796089  0.30267895  1
loop_
_geom_bond_atom_site_label_1
_geom_bond_atom_site_label_2
_geom_bond_distance
_geom_bond_site_symmetry_2
Na0 S3 2.918612 1_545
Na0 S2 3.021849 1_555
Na0 S4 3.026737 1_555
Na0 S11 3.070057 1_555
Na0 S7 3.090040 1_555
Na0 S9 3.232938 1_555
Na0 S6 3.357010 1_555
Na0 S5 3.384978 1_555
Na1 S2 2.918612 1_465
Na1 S3 3.021849 1_555
Na1 S11 3.026737 1_455
Na1 S4 3.070057 1_555
Na1 S9 3.090040 1_555
Na1 S7 3.232938 1_455
Na1 S8 3.357010 1_555
Na1 S1 3.384978 1_555
Bi0 S1 2.756926 1_545
Bi0 S4 2.802423 1_555
Bi0 S0 2.863276 1_456
Bi0 S6 2.895643 1_555
Bi0 S10 2.979776 1_555
Bi0 S8 3.054902 1_546
Bi1 S5 2.756926 1_565
Bi1 S11 2.802423 1_555
Bi1 S10 2.863276 1_554
Bi1 S8 2.895643 1_655
Bi1 S0 2.979776 1_555
Bi1 S6 3.054902 1_564
P0 S7 1.980612 1_555
P0 S6 2.048986 1_555
P0 S0 2.059650 1_556
P0 P1 2.233647 1_655
P1 S2 1.956757 1_455
P1 S4 2.043462 1_555
P1 S1 2.050488 1_545
P2 S3 1.956757 1_555
P2 S11 2.043462 1_555
P2 S5 2.050488 1_565
P2 P3 2.233647 1_555
P3 S9 1.980612 1_555
P3 S8 2.048986 1_555
P3 S10 2.059650 1_554
