# generated using pymatgen
data_Al2CuO4
_symmetry_space_group_name_H-M   'P 1'
_cell_length_a   5.74969531
_cell_length_b   5.74969531
_cell_length_c   14.18636500
_cell_angle_alpha   90.00000000
_cell_angle_beta   90.00000000
_cell_angle_gamma   119.99999203
_symmetry_Int_Tables_number   1
_chemical_formula_structural   Al2CuO4
_chemical_formula_sum   'Al12 Cu6 O24'
_cell_volume   406.15467617
_cell_formula_units_Z   6
loop_
 _symmetry_equiv_pos_site_id
 _symmetry_equiv_pos_as_xyz
  1  'x, y, z'
loop_
 _atom_site_type_symbol
 _atom_site_label
 _atom_site_symmetry_multiplicity
 _atom_site_fract_x
 _atom_site_fract_y
 _atom_site_fract_z
 _atom_site_occupancy
  Al  Al0  1  0.83092200  0.16907800  0.83282000  1
  Al  Al1  1  0.83092200  0.66184400  0.83282000  1
  Al  Al2  1  0.16574300  0.83425700  0.49908500  1
  Al  Al3  1  0.33815600  0.16907800  0.83282000  1
  Al  Al4  1  0.33333300  0.66666700  0.71201600  1
  Al  Al5  1  0.33333300  0.66666700  0.33391600  1
  Al  Al6  1  0.16574300  0.33148600  0.49908500  1
  Al  Al7  1  0.49885100  0.50114900  0.16727700  1
  Al  Al8  1  0.66851400  0.83425700  0.49908500  1
  Al  Al9  1  0.49885100  0.99770200  0.16727700  1
  Al  Al10  1  0.00229800  0.50114900  0.16727700  1
  Al  Al11  1  0.00000000  0.00000000  0.04218300  1
  Cu  Cu0  1  0.33333300  0.66666700  0.95938200  1
  Cu  Cu1  1  0.66666700  0.33333300  0.99746300  1
  Cu  Cu2  1  0.66666700  0.33333300  0.62280600  1
  Cu  Cu3  1  0.00000000  0.00000000  0.29262100  1
  Cu  Cu4  1  0.00000000  0.00000000  0.66232700  1
  Cu  Cu5  1  0.66666700  0.33333300  0.37555400  1
  O  O0  1  0.51414900  0.48585100  0.90613600  1
  O  O1  1  0.66666700  0.33333300  0.76249000  1
  O  O2  1  0.51414900  0.02829700  0.90613600  1
  O  O3  1  0.97170300  0.48585100  0.90613600  1
  O  O4  1  0.84696300  0.15303700  0.57193900  1
  O  O5  1  0.67750700  0.83875400  0.75928000  1
  O  O6  1  0.00000000  0.00000000  0.90938500  1
  O  O7  1  0.00000000  0.00000000  0.43048800  1
  O  O8  1  0.84696300  0.69392700  0.57193900  1
  O  O9  1  0.16124600  0.32249300  0.75928000  1
  O  O10  1  0.30607300  0.15303700  0.57193900  1
  O  O11  1  0.16124600  0.83875400  0.75928000  1
  O  O12  1  0.04271600  0.52135800  0.42368500  1
  O  O13  1  0.18685600  0.81314400  0.24627000  1
  O  O14  1  0.33333300  0.66666700  0.58263900  1
  O  O15  1  0.47864200  0.95728400  0.42368500  1
  O  O16  1  0.33333300  0.66666700  0.09824100  1
  O  O17  1  0.18685600  0.37371200  0.24627000  1
  O  O18  1  0.62628800  0.81314400  0.24627000  1
  O  O19  1  0.47864200  0.52135800  0.42368500  1
  O  O20  1  0.33770800  0.16885400  0.09014200  1
  O  O21  1  0.66666700  0.33333300  0.22872200  1
  O  O22  1  0.83114600  0.66229200  0.09014200  1
  O  O23  1  0.83114600  0.16885400  0.09014200  1
loop_
_geom_bond_atom_site_label_1
_geom_bond_atom_site_label_2
_geom_bond_distance
_geom_bond_site_symmetry_2
Al0 O3 1.892092 1_555
Al0 O2 1.892092 1_555
Al0 O1 1.916044 1_555
Al0 O9 1.948939 1_655
Al0 O5 1.948939 1_545
Al0 O6 2.003745 1_655
Al1 O0 1.892092 1_555
Al1 O3 1.892096 1_555
Al1 O1 1.916049 1_555
Al1 O11 1.948939 1_655
Al1 O5 1.948943 1_555
Al1 O6 2.003745 1_665
Al2 O8 1.897317 1_455
Al2 O10 1.897317 1_565
Al2 O12 1.899628 1_555
Al2 O15 1.899628 1_555
Al2 O7 1.916108 1_565
Al2 O14 2.047078 1_555
Al3 O0 1.892092 1_555
Al3 O2 1.892096 1_555
Al3 O1 1.916049 1_555
Al3 O11 1.948939 1_545
Al3 O9 1.948943 1_555
Al3 O6 2.003745 1_555
Al4 O14 1.835389 1_555
Al4 O11 1.840271 1_555
Al4 O5 1.840271 1_555
Al4 O9 1.840271 1_555
Al5 O13 1.916737 1_555
Al5 O18 1.916741 1_555
Al5 O17 1.916741 1_555
Al5 O15 1.927659 1_555
Al5 O12 1.927659 1_555
Al5 O19 1.927663 1_555
Al6 O10 1.897312 1_555
Al6 O4 1.897316 1_455
Al6 O12 1.899627 1_555
Al6 O19 1.899628 1_555
Al6 O7 1.916108 1_555
Al6 O14 2.047082 1_555
Al7 O21 1.884906 1_555
Al7 O16 1.917352 1_555
Al7 O17 1.922565 1_555
Al7 O18 1.922565 1_555
Al7 O20 1.983942 1_555
Al7 O22 1.983942 1_555
Al8 O8 1.897312 1_555
Al8 O4 1.897316 1_565
Al8 O15 1.899627 1_555
Al8 O19 1.899628 1_555
Al8 O7 1.916108 1_665
Al8 O14 2.047082 1_555
Al9 O21 1.884902 1_565
Al9 O16 1.917348 1_555
Al9 O18 1.922565 1_555
Al9 O13 1.922565 1_555
Al9 O20 1.983942 1_565
Al9 O23 1.983942 1_565
Al10 O21 1.884902 1_455
Al10 O16 1.917348 1_555
Al10 O17 1.922565 1_555
Al10 O13 1.922565 1_555
Al10 O22 1.983942 1_455
Al10 O23 1.983942 1_455
Al11 O23 1.814000 1_455
Al11 O20 1.814000 1_555
Al11 O22 1.814000 1_445
Al11 O6 1.883921 1_554
Cu0 O2 1.952711 1_565
Cu0 O3 1.952711 1_455
Cu0 O0 1.952720 1_555
Cu0 O16 1.969904 1_556
Cu1 O0 1.996398 1_555
Cu1 O2 1.996398 1_555
Cu1 O3 1.996398 1_555
Cu1 O23 2.100407 1_556
Cu1 O22 2.100411 1_556
Cu1 O20 2.100411 1_556
Cu2 O4 1.935108 1_555
Cu2 O8 1.935118 1_555
Cu2 O10 1.935118 1_555
Cu2 O1 1.981608 1_555
Cu3 O7 1.955832 1_555
Cu3 O13 1.973615 1_545
Cu3 O18 1.973615 1_445
Cu3 O17 1.973615 1_555
Cu4 O10 1.991727 1_555
Cu4 O8 1.991727 1_445
Cu4 O4 1.991731 1_455
Cu4 O11 2.114328 1_545
Cu4 O9 2.114332 1_555
Cu4 O5 2.114332 1_445
Cu5 O15 1.993100 1_545
Cu5 O12 1.993100 1_655
Cu5 O19 1.993104 1_555
Cu5 O21 2.083012 1_555
