# generated using pymatgen
data_Rb2MgVCl6
_symmetry_space_group_name_H-M   'P 1'
_cell_length_a   7.06910632
_cell_length_b   7.06910584
_cell_length_c   6.11184937
_cell_angle_alpha   90.00000000
_cell_angle_beta   90.00000000
_cell_angle_gamma   119.99999354
_symmetry_Int_Tables_number   1
_chemical_formula_structural   Rb2MgVCl6
_chemical_formula_sum   'Rb2 Mg1 V1 Cl6'
_cell_volume   264.50403408
_cell_formula_units_Z   1
loop_
 _symmetry_equiv_pos_site_id
 _symmetry_equiv_pos_as_xyz
  1  'x, y, z'
loop_
 _atom_site_type_symbol
 _atom_site_label
 _atom_site_symmetry_multiplicity
 _atom_site_fract_x
 _atom_site_fract_y
 _atom_site_fract_z
 _atom_site_occupancy
  Rb  Rb0  1  0.33333300  0.66666700  0.26280320  1
  Rb  Rb1  1  0.66666700  0.33333300  0.73719680  1
  Mg  Mg0  1  0.00000000  0.00000000  0.00000000  1
  V  V0  1  0.00000000  0.00000000  0.50000000  1
  Cl  Cl0  1  0.83926944  0.16073056  0.25125541  1
  Cl  Cl1  1  0.16073056  0.83926944  0.74874459  1
  Cl  Cl2  1  0.83926944  0.67853989  0.25125541  1
  Cl  Cl3  1  0.16073056  0.32146011  0.74874459  1
  Cl  Cl4  1  0.32146011  0.16073056  0.25125541  1
  Cl  Cl5  1  0.67853989  0.83926944  0.74874459  1
loop_
_geom_bond_atom_site_label_1
_geom_bond_atom_site_label_2
_geom_bond_distance
_geom_bond_site_symmetry_2
Cl0 V0 2.486821 1_655
Cl0 Mg0 2.496232 1_655
Cl0 Rb0 3.536005 1_655
Cl0 Rb0 3.536005 1_545
Cl0 Rb1 3.645156 1_555
Cl0 Rb1 3.786486 1_554
Cl1 V0 2.486821 1_565
Cl1 Mg0 2.496232 1_566
Cl1 Rb1 3.536005 1_455
Cl1 Rb1 3.536005 1_565
Cl1 Rb0 3.645156 1_555
Cl1 Rb0 3.786486 1_556
Cl2 V0 2.486816 1_665
Cl2 Mg0 2.496227 1_665
Cl2 Rb0 3.536005 1_655
Cl2 Rb0 3.536005 1_555
Cl2 Rb1 3.645163 1_555
Cl2 Rb1 3.786493 1_554
Cl3 V0 2.486816 1_555
Cl3 Mg0 2.496227 1_556
Cl3 Rb1 3.536005 1_455
Cl3 Rb1 3.536005 1_555
Cl3 Rb0 3.645163 1_555
Cl3 Rb0 3.786493 1_556
Cl4 V0 2.486816 1_555
Cl4 Mg0 2.496227 1_555
Cl4 Rb0 3.536005 1_545
Cl4 Rb0 3.536005 1_555
Cl4 Rb1 3.645164 1_555
Cl4 Rb1 3.786493 1_554
Cl5 V0 2.486816 1_665
Cl5 Mg0 2.496227 1_666
Cl5 Rb1 3.536005 1_565
Cl5 Rb1 3.536005 1_555
Cl5 Rb0 3.645164 1_555
Cl5 Rb0 3.786493 1_556
