# generated using pymatgen
data_Hf10AlCuSn6
_symmetry_space_group_name_H-M   'P 1'
_cell_length_a   8.57878528
_cell_length_b   8.57878584
_cell_length_c   5.77915361
_cell_angle_alpha   90.00000000
_cell_angle_beta   90.00000000
_cell_angle_gamma   119.99999404
_symmetry_Int_Tables_number   1
_chemical_formula_structural   Hf10AlCuSn6
_chemical_formula_sum   'Hf10 Al1 Cu1 Sn6'
_cell_volume   368.33799498
_cell_formula_units_Z   1
loop_
 _symmetry_equiv_pos_site_id
 _symmetry_equiv_pos_as_xyz
  1  'x, y, z'
loop_
 _atom_site_type_symbol
 _atom_site_label
 _atom_site_symmetry_multiplicity
 _atom_site_fract_x
 _atom_site_fract_y
 _atom_site_fract_z
 _atom_site_occupancy
  Hf  Hf0  1  0.33333300  0.66666700  0.00000000  1
  Hf  Hf1  1  0.66666700  0.33333300  0.50000000  1
  Hf  Hf2  1  0.66666700  0.33333300  0.00000000  1
  Hf  Hf3  1  0.33333300  0.66666700  0.50000000  1
  Hf  Hf4  1  0.26695228  0.00000000  0.25420024  1
  Hf  Hf5  1  0.26695228  0.26695228  0.74579976  1
  Hf  Hf6  1  1.00000000  0.73304772  0.74579976  1
  Hf  Hf7  1  0.00000000  0.26695228  0.25420024  1
  Hf  Hf8  1  0.73304772  0.73304772  0.25420024  1
  Hf  Hf9  1  0.73304772  1.00000000  0.74579976  1
  Al  Al0  1  0.00000000  0.00000000  0.00000000  1
  Cu  Cu0  1  0.00000000  0.00000000  0.50000000  1
  Sn  Sn0  1  0.61359468  0.00000000  0.24766119  1
  Sn  Sn1  1  0.61359468  0.61359468  0.75233881  1
  Sn  Sn2  1  1.00000000  0.38640532  0.75233881  1
  Sn  Sn3  1  0.00000000  0.61359468  0.24766119  1
  Sn  Sn4  1  0.38640532  0.38640532  0.24766119  1
  Sn  Sn5  1  0.38640532  1.00000000  0.75233881  1
loop_
_geom_bond_atom_site_label_1
_geom_bond_atom_site_label_2
_geom_bond_distance
_geom_bond_site_symmetry_2
Hf0 Hf3 2.889577 1_554
Hf0 Hf3 2.889577 1_555
Hf0 Sn3 3.021778 1_555
Hf0 Sn5 3.021778 1_554
Hf0 Sn2 3.021781 1_454
Hf0 Sn0 3.021781 1_565
Hf0 Sn1 3.021785 1_554
Hf0 Sn4 3.021785 1_555
Hf1 Hf2 2.889577 1_555
Hf1 Hf2 2.889577 1_556
Hf1 Sn2 3.034675 1_555
Hf1 Sn0 3.034675 1_555
Hf1 Sn3 3.034678 1_655
Hf1 Sn5 3.034678 1_545
Hf1 Sn4 3.034683 1_555
Hf1 Sn1 3.034683 1_555
Hf2 Sn2 3.021778 1_554
Hf2 Sn0 3.021778 1_555
Hf2 Sn3 3.021781 1_655
Hf2 Sn5 3.021781 1_544
Hf2 Sn4 3.021785 1_555
Hf2 Sn1 3.021785 1_554
Hf3 Sn3 3.034675 1_555
Hf3 Sn5 3.034675 1_555
Hf3 Sn2 3.034678 1_455
Hf3 Sn0 3.034678 1_565
Hf3 Sn1 3.034683 1_555
Hf3 Sn4 3.034683 1_555
Hf4 Sn4 2.939911 1_555
Hf4 Sn3 2.939912 1_545
Hf4 Sn0 2.974011 1_555
Hf4 Sn5 3.055771 1_545
Hf4 Sn5 3.076049 1_544
Hf5 Sn2 2.939911 1_455
Hf5 Sn5 2.939911 1_545
Hf5 Sn1 2.974011 1_555
Hf5 Sn4 3.055771 1_555
Hf5 Sn4 3.076049 1_556
Hf6 Sn1 2.939911 1_555
Hf6 Sn5 2.939911 1_655
Hf6 Sn2 2.974011 1_555
Hf6 Sn3 3.055771 1_655
Hf6 Sn3 3.076049 1_656
Hf7 Sn4 2.939911 1_555
Hf7 Sn0 2.939911 1_455
Hf7 Sn3 2.974011 1_555
Hf7 Sn2 3.055771 1_455
Hf7 Sn2 3.076049 1_454
Hf8 Sn3 2.939911 1_655
Hf8 Sn0 2.939911 1_565
Hf8 Sn4 2.974011 1_555
Hf8 Sn1 3.055771 1_555
Hf8 Sn1 3.076049 1_554
Hf9 Sn1 2.939911 1_555
Hf9 Sn2 2.939912 1_565
Hf9 Sn5 2.974011 1_555
Hf9 Sn0 3.055771 1_565
Hf9 Sn0 3.076049 1_566
Al0 Hf4 2.720813 1_555
Al0 Hf9 2.720813 1_444
Al0 Hf7 2.720813 1_555
Al0 Hf6 2.720813 1_444
Al0 Hf5 2.720813 1_554
Al0 Hf8 2.720813 1_445
Al0 Cu0 2.889577 1_555
Al0 Cu0 2.889577 1_554
Cu0 Hf4 2.694910 1_555
Cu0 Hf9 2.694910 1_445
Cu0 Hf7 2.694910 1_555
Cu0 Hf6 2.694910 1_445
Cu0 Hf5 2.694910 1_555
Cu0 Hf8 2.694910 1_445
