# generated using pymatgen
data_GdTlPd
_symmetry_space_group_name_H-M   'P 1'
_cell_length_a   7.81019470
_cell_length_b   7.81011831
_cell_length_c   3.85929399
_cell_angle_alpha   90.00000000
_cell_angle_beta   90.00000000
_cell_angle_gamma   119.99967847
_symmetry_Int_Tables_number   1
_chemical_formula_structural   GdTlPd
_chemical_formula_sum   'Gd3 Tl3 Pd3'
_cell_volume   203.87284106
_cell_formula_units_Z   3
loop_
 _symmetry_equiv_pos_site_id
 _symmetry_equiv_pos_as_xyz
  1  'x, y, z'
loop_
 _atom_site_type_symbol
 _atom_site_label
 _atom_site_symmetry_multiplicity
 _atom_site_fract_x
 _atom_site_fract_y
 _atom_site_fract_z
 _atom_site_occupancy
  Gd  Gd0  1  0.59639003  1.00001095  0.50000000  1
  Gd  Gd1  1  0.40360997  0.40362092  0.50000000  1
  Gd  Gd2  1  0.00000000  0.59639529  0.50000000  1
  Tl  Tl0  1  0.26439475  0.00002744  0.00000000  1
  Tl  Tl1  1  0.73560525  0.73563269  0.00000000  1
  Tl  Tl2  1  0.00000000  0.26436169  0.00000000  1
  Pd  Pd0  1  0.33331455  0.66665791  0.00000000  1
  Pd  Pd1  1  0.66668545  0.33334336  0.00000000  1
  Pd  Pd2  1  0.00000000  0.99994974  0.50000000  1
loop_
_geom_bond_atom_site_label_1
_geom_bond_atom_site_label_2
_geom_bond_distance
_geom_bond_site_symmetry_2
Gd0 Pd1 3.061566 1_565
Gd0 Pd1 3.061566 1_566
Gd0 Pd0 3.061735 1_556
Gd0 Pd0 3.061735 1_555
Gd0 Pd2 3.152512 1_655
Gd0 Tl0 3.232221 1_566
Gd0 Tl0 3.232221 1_565
Gd0 Tl1 3.378508 1_555
Gd0 Tl1 3.378508 1_556
Gd0 Tl2 3.378583 1_666
Gd0 Tl2 3.378583 1_665
Gd1 Pd0 3.061566 1_555
Gd1 Pd0 3.061566 1_556
Gd1 Pd1 3.061735 1_555
Gd1 Pd1 3.061735 1_556
Gd1 Pd2 3.152511 1_545
Gd1 Tl1 3.232220 1_556
Gd1 Tl1 3.232220 1_555
Gd1 Tl0 3.378508 1_555
Gd1 Tl0 3.378508 1_556
Gd1 Tl2 3.378583 1_555
Gd1 Tl2 3.378583 1_556
Gd2 Pd1 3.061543 1_456
Gd2 Pd1 3.061543 1_455
Gd2 Pd0 3.061543 1_555
Gd2 Pd0 3.061543 1_556
Gd2 Pd2 3.151808 1_555
Gd2 Tl2 3.232389 1_555
Gd2 Tl2 3.232389 1_556
Gd2 Tl0 3.378725 1_565
Gd2 Tl0 3.378725 1_566
Gd2 Tl1 3.378725 1_455
Gd2 Tl1 3.378725 1_456
Pd0 Tl1 2.910258 1_555
Pd0 Tl2 2.910271 1_555
Pd0 Tl0 2.910367 1_565
Pd1 Tl0 2.910258 1_555
Pd1 Tl2 2.910271 1_655
Pd1 Tl1 2.910367 1_555
Pd2 Tl1 2.826023 1_455
Pd2 Tl1 2.826023 1_456
Pd2 Tl0 2.826023 1_565
Pd2 Tl0 2.826023 1_566
Pd2 Tl2 2.826328 1_565
Pd2 Tl2 2.826328 1_566
