# generated using pymatgen
data_Er2Zn17
_symmetry_space_group_name_H-M   'P 1'
_cell_length_a   6.67476952
_cell_length_b   6.67477095
_cell_length_c   6.67477023
_cell_angle_alpha   82.85737253
_cell_angle_beta   82.85737173
_cell_angle_gamma   82.85736571
_symmetry_Int_Tables_number   1
_chemical_formula_structural   Er2Zn17
_chemical_formula_sum   'Er2 Zn17'
_cell_volume   290.98465344
_cell_formula_units_Z   1
loop_
 _symmetry_equiv_pos_site_id
 _symmetry_equiv_pos_as_xyz
  1  'x, y, z'
loop_
 _atom_site_type_symbol
 _atom_site_label
 _atom_site_symmetry_multiplicity
 _atom_site_fract_x
 _atom_site_fract_y
 _atom_site_fract_z
 _atom_site_occupancy
  Er  Er0  1  0.66428130  0.66428130  0.66428130  1
  Er  Er1  1  0.33571870  0.33571870  0.33571870  1
  Zn  Zn0  1  0.35122507  0.35122507  0.83832425  1
  Zn  Zn1  1  0.35122507  0.83832425  0.35122507  1
  Zn  Zn2  1  0.09992840  0.09992840  0.09992840  1
  Zn  Zn3  1  0.90007160  0.90007160  0.90007160  1
  Zn  Zn4  1  -0.00000000  -0.00000000  0.50000000  1
  Zn  Zn5  1  0.50000000  -0.00000000  -0.00000000  1
  Zn  Zn6  1  -0.00000000  0.50000000  -0.00000000  1
  Zn  Zn7  1  0.70267974  0.29732026  -0.00000000  1
  Zn  Zn8  1  0.00000000  0.70267974  0.29732026  1
  Zn  Zn9  1  0.29732026  0.00000000  0.70267974  1
  Zn  Zn10  1  0.29732026  0.70267974  0.00000000  1
  Zn  Zn11  1  -0.00000000  0.29732026  0.70267974  1
  Zn  Zn12  1  0.70267974  1.00000000  0.29732026  1
  Zn  Zn13  1  0.64877493  0.16167575  0.64877493  1
  Zn  Zn14  1  0.64877493  0.64877493  0.16167575  1
  Zn  Zn15  1  0.16167575  0.64877493  0.64877493  1
  Zn  Zn16  1  0.83832425  0.35122507  0.35122507  1
loop_
_geom_bond_atom_site_label_1
_geom_bond_atom_site_label_2
_geom_bond_distance
_geom_bond_site_symmetry_2
Er0 Zn3 3.046130 1_555
Er0 Zn9 3.115819 1_565
Er0 Zn10 3.115819 1_556
Er0 Zn11 3.115819 1_655
Er0 Zn8 3.115819 1_655
Er0 Zn7 3.115819 1_556
Er0 Zn12 3.115819 1_555
Er0 Zn1 3.156060 1_555
Er0 Zn16 3.156060 1_555
Er0 Zn0 3.156060 1_555
Er0 Zn15 3.297808 1_655
Er0 Zn14 3.297809 1_556
Er0 Zn13 3.297809 1_565
Er0 Zn6 3.357349 1_656
Er0 Zn5 3.357349 1_566
Er0 Zn4 3.357349 1_665
Er0 Zn15 3.383978 1_555
Er0 Zn14 3.383978 1_555
Er0 Zn13 3.383979 1_555
Er1 Zn2 3.046130 1_555
Er1 Zn12 3.115819 1_545
Er1 Zn7 3.115819 1_555
Er1 Zn8 3.115819 1_555
Er1 Zn11 3.115819 1_555
Er1 Zn10 3.115819 1_555
Er1 Zn9 3.115819 1_555
Er1 Zn13 3.156060 1_555
Er1 Zn15 3.156060 1_555
Er1 Zn14 3.156060 1_555
Er1 Zn16 3.297808 1_455
Er1 Zn0 3.297809 1_554
Er1 Zn1 3.297809 1_545
Er1 Zn6 3.357349 1_555
Er1 Zn5 3.357349 1_555
Er1 Zn4 3.357349 1_555
Er1 Zn16 3.383978 1_555
Er1 Zn0 3.383978 1_555
Er1 Zn1 3.383979 1_555
Zn0 Zn13 2.508838 1_555
Zn0 Zn15 2.508838 1_555
Zn0 Zn6 2.589416 1_556
Zn0 Zn5 2.589416 1_556
Zn0 Zn7 2.668381 1_556
Zn0 Zn10 2.668381 1_556
Zn0 Zn11 2.695138 1_555
Zn0 Zn9 2.695139 1_555
Zn0 Zn2 2.814066 1_556
Zn1 Zn14 2.508838 1_555
Zn1 Zn15 2.508838 1_555
Zn1 Zn4 2.589416 1_565
Zn1 Zn5 2.589416 1_565
Zn1 Zn12 2.668381 1_555
Zn1 Zn9 2.668381 1_565
Zn1 Zn8 2.695138 1_555
Zn1 Zn10 2.695138 1_555
Zn1 Zn2 2.814066 1_565
Zn2 Zn3 2.581912 1_444
Zn2 Zn5 2.691747 1_555
Zn2 Zn4 2.691747 1_555
Zn2 Zn6 2.691747 1_555
Zn2 Zn7 2.926430 1_455
Zn2 Zn9 2.926431 1_554
Zn2 Zn8 2.926431 1_545
Zn3 Zn5 2.691747 1_566
Zn3 Zn4 2.691747 1_665
Zn3 Zn6 2.691747 1_656
Zn3 Zn9 2.926431 1_665
Zn3 Zn8 2.926431 1_656
Zn3 Zn7 2.926431 1_566
Zn4 Zn9 2.536975 1_555
Zn4 Zn8 2.536975 1_545
Zn5 Zn9 2.536975 1_554
Zn5 Zn7 2.536975 1_555
Zn6 Zn7 2.536975 1_455
Zn6 Zn8 2.536975 1_555
Zn10 Zn6 2.536975 1_555
Zn10 Zn5 2.536975 1_565
Zn10 Zn8 2.626296 1_555
Zn10 Zn9 2.626296 1_564
Zn10 Zn14 2.668381 1_555
Zn10 Zn15 2.695138 1_554
Zn10 Zn3 2.926430 1_454
Zn10 Zn2 2.926431 1_565
Zn11 Zn6 2.536975 1_556
Zn11 Zn4 2.536975 1_555
Zn11 Zn9 2.626296 1_555
Zn11 Zn7 2.626296 1_456
Zn11 Zn16 2.668381 1_455
Zn11 Zn15 2.668381 1_555
Zn11 Zn13 2.695138 1_455
Zn11 Zn2 2.926431 1_556
Zn11 Zn3 2.926431 1_445
Zn12 Zn4 2.536975 1_665
Zn12 Zn5 2.536975 1_565
Zn12 Zn8 2.626296 1_655
Zn12 Zn7 2.626296 1_565
Zn12 Zn13 2.668381 1_565
Zn12 Zn14 2.695139 1_555
Zn12 Zn16 2.695139 1_565
Zn12 Zn2 2.926431 1_665
Zn12 Zn3 2.926431 1_554
Zn13 Zn16 2.508838 1_555
Zn13 Zn4 2.589416 1_655
Zn13 Zn5 2.589416 1_556
Zn13 Zn9 2.668381 1_555
Zn13 Zn7 2.695138 1_556
Zn13 Zn3 2.814066 1_545
Zn14 Zn16 2.508838 1_555
Zn14 Zn6 2.589416 1_655
Zn14 Zn5 2.589416 1_565
Zn14 Zn7 2.668381 1_555
Zn14 Zn8 2.695138 1_655
Zn14 Zn3 2.814066 1_554
Zn15 Zn6 2.589416 1_556
Zn15 Zn4 2.589416 1_565
Zn15 Zn8 2.668381 1_555
Zn15 Zn9 2.695139 1_565
Zn15 Zn3 2.814066 1_455
Zn16 Zn6 2.589416 1_655
Zn16 Zn4 2.589416 1_655
Zn16 Zn8 2.668381 1_655
Zn16 Zn7 2.695138 1_555
Zn16 Zn2 2.814066 1_655
