# generated using pymatgen
data_BaHg2(SI)2
_symmetry_space_group_name_H-M   'P 1'
_cell_length_a   13.69269948
_cell_length_b   13.69269948
_cell_length_c   5.07421518
_cell_angle_alpha   90.00000000
_cell_angle_beta   90.00000000
_cell_angle_gamma   90.00000000
_symmetry_Int_Tables_number   1
_chemical_formula_structural   BaHg2(SI)2
_chemical_formula_sum   'Ba4 Hg8 S8 I8'
_cell_volume   951.36469981
_cell_formula_units_Z   4
loop_
 _symmetry_equiv_pos_site_id
 _symmetry_equiv_pos_as_xyz
  1  'x, y, z'
loop_
 _atom_site_type_symbol
 _atom_site_label
 _atom_site_symmetry_multiplicity
 _atom_site_fract_x
 _atom_site_fract_y
 _atom_site_fract_z
 _atom_site_occupancy
  Ba  Ba0  1  0.87004187  0.37004187  0.50000000  1
  Ba  Ba1  1  0.37004187  0.12995813  0.50000000  1
  Ba  Ba2  1  0.62995813  0.87004187  0.50000000  1
  Ba  Ba3  1  0.12995813  0.62995813  0.50000000  1
  Hg  Hg0  1  0.66387043  0.58398549  0.00000000  1
  Hg  Hg1  1  0.33612957  0.41601451  0.00000000  1
  Hg  Hg2  1  0.16387043  0.91601451  0.00000000  1
  Hg  Hg3  1  0.91601451  0.83612957  0.00000000  1
  Hg  Hg4  1  0.83612957  0.08398549  0.00000000  1
  Hg  Hg5  1  0.08398549  0.16387043  0.00000000  1
  Hg  Hg6  1  0.58398549  0.33612957  0.00000000  1
  Hg  Hg7  1  0.41601451  0.66387043  0.00000000  1
  S  S0  1  0.57543326  0.73390467  0.00000000  1
  S  S1  1  0.73390467  0.42456674  0.00000000  1
  S  S2  1  0.23390467  0.07543326  0.00000000  1
  S  S3  1  0.26609533  0.57543326  0.00000000  1
  S  S4  1  0.42456674  0.26609533  0.00000000  1
  S  S5  1  0.92456674  0.23390467  0.00000000  1
  S  S6  1  0.07543326  0.76609533  0.00000000  1
  S  S7  1  0.76609533  0.92456674  0.00000000  1
  I  I0  1  0.68151656  0.18151656  0.50000000  1
  I  I1  1  0.50000000  0.00000000  0.00000000  1
  I  I2  1  0.81848344  0.68151656  0.50000000  1
  I  I3  1  0.31848344  0.81848344  0.50000000  1
  I  I4  1  0.00000000  0.00000000  0.50000000  1
  I  I5  1  0.18151656  0.31848344  0.50000000  1
  I  I6  1  0.00000000  0.50000000  0.00000000  1
  I  I7  1  0.50000000  0.50000000  0.50000000  1
loop_
_geom_bond_atom_site_label_1
_geom_bond_atom_site_label_2
_geom_bond_distance
_geom_bond_site_symmetry_2
Ba0 S5 3.235604 1_555
Ba0 S5 3.235604 1_556
Ba0 S1 3.235604 1_555
Ba0 S1 3.235604 1_556
Ba0 I6 3.573513 1_655
Ba0 I6 3.573513 1_656
Ba0 I0 3.650680 1_555
Ba1 S2 3.235604 1_555
Ba1 S2 3.235604 1_556
Ba1 S4 3.235604 1_555
Ba1 S4 3.235604 1_556
Ba1 I1 3.573513 1_556
Ba1 I1 3.573513 1_555
Ba1 I5 3.650680 1_555
Ba2 S0 3.235604 1_556
Ba2 S0 3.235604 1_555
Ba2 S7 3.235604 1_556
Ba2 S7 3.235604 1_555
Ba2 I1 3.573513 1_566
Ba2 I1 3.573513 1_565
Ba2 I2 3.650680 1_555
Ba3 S6 3.235604 1_556
Ba3 S6 3.235604 1_555
Ba3 S3 3.235604 1_556
Ba3 S3 3.235604 1_555
Ba3 I6 3.573513 1_556
Ba3 I6 3.573513 1_555
Ba3 I3 3.650680 1_555
Hg0 S0 2.383352 1_555
Hg0 S1 2.384226 1_555
Hg1 S4 2.383352 1_555
Hg1 S3 2.384226 1_555
Hg2 S6 2.383352 1_555
Hg2 S2 2.384226 1_565
Hg3 S7 2.383352 1_555
Hg3 S6 2.384226 1_655
Hg4 S5 2.383352 1_555
Hg4 S7 2.384226 1_545
Hg5 S2 2.383352 1_555
Hg5 S5 2.384226 1_455
Hg6 S1 2.383352 1_555
Hg6 S4 2.384226 1_555
Hg7 S3 2.383352 1_555
Hg7 S0 2.384226 1_555
