# generated using pymatgen
data_BaCa2(AlH6)2
_symmetry_space_group_name_H-M   'P 1'
_cell_length_a   5.01423058
_cell_length_b   5.01423301
_cell_length_c   8.51849152
_cell_angle_alpha   90.00000000
_cell_angle_beta   90.00000000
_cell_angle_gamma   119.99999057
_symmetry_Int_Tables_number   1
_chemical_formula_structural   BaCa2(AlH6)2
_chemical_formula_sum   'Ba1 Ca2 Al2 H12'
_cell_volume   185.48217558
_cell_formula_units_Z   1
loop_
 _symmetry_equiv_pos_site_id
 _symmetry_equiv_pos_as_xyz
  1  'x, y, z'
loop_
 _atom_site_type_symbol
 _atom_site_label
 _atom_site_symmetry_multiplicity
 _atom_site_fract_x
 _atom_site_fract_y
 _atom_site_fract_z
 _atom_site_occupancy
  Ba  Ba0  1  0.00000000  0.00000000  0.00000000  1
  Ca  Ca0  1  0.66666700  0.33333300  0.37491735  1
  Ca  Ca1  1  0.33333300  0.66666700  0.62508265  1
  Al  Al0  1  0.66666700  0.33333300  0.74106861  1
  Al  Al1  1  0.33333300  0.66666700  0.25893139  1
  H  H0  1  0.17706149  0.82293851  0.38569044  1
  H  H1  1  0.64587701  0.82293851  0.38569044  1
  H  H2  1  0.17706149  0.35412299  0.38569044  1
  H  H3  1  0.82293851  0.17706149  0.61430956  1
  H  H4  1  0.35412299  0.17706149  0.61430956  1
  H  H5  1  0.82293851  0.64587701  0.61430956  1
  H  H6  1  0.49986028  0.99971956  0.84761994  1
  H  H7  1  0.49986028  0.50013972  0.84761994  1
  H  H8  1  0.00028044  0.50013972  0.84761994  1
  H  H9  1  0.50013972  0.00028044  0.15238006  1
  H  H10  1  0.50013972  0.49986028  0.15238006  1
  H  H11  1  0.99971956  0.49986028  0.15238006  1
loop_
_geom_bond_atom_site_label_1
_geom_bond_atom_site_label_2
_geom_bond_distance
_geom_bond_site_symmetry_2
Ba0 H9 2.823215 1_555
Ba0 H6 2.823215 1_444
Ba0 H11 2.823216 1_445
Ba0 H8 2.823216 1_554
Ba0 H10 2.823218 1_555
Ba0 H7 2.823218 1_444
Ba0 H7 2.823218 1_554
Ba0 H10 2.823218 1_445
Ba0 H9 2.823220 1_455
Ba0 H6 2.823220 1_544
Ba0 H11 2.823221 1_455
Ba0 H8 2.823221 1_544
Ca0 H11 2.384385 1_555
Ca0 H9 2.384385 1_555
Ca0 H10 2.384390 1_555
Ca0 H3 2.449609 1_555
Ca0 H4 2.449611 1_555
Ca0 H5 2.449612 1_555
Ca0 H2 2.510416 1_655
Ca0 H1 2.510417 1_545
Ca0 H0 2.510419 1_655
Ca0 H0 2.510419 1_545
Ca0 H2 2.510421 1_555
Ca0 H1 2.510422 1_555
Ca1 H8 2.384385 1_555
Ca1 H6 2.384385 1_555
Ca1 H7 2.384390 1_555
Ca1 H0 2.449609 1_555
Ca1 H1 2.449611 1_555
Ca1 H2 2.449612 1_555
Ca1 H5 2.510416 1_455
Ca1 H4 2.510417 1_565
Ca1 H3 2.510419 1_455
Ca1 H3 2.510419 1_565
Ca1 H5 2.510421 1_555
Ca1 H4 2.510422 1_555
Al0 H8 1.709553 1_655
Al0 H7 1.709553 1_555
Al0 H6 1.709554 1_545
Al0 H3 1.734347 1_555
Al0 H4 1.734350 1_555
Al0 H5 1.734351 1_555
Al1 H11 1.709553 1_455
Al1 H10 1.709553 1_555
Al1 H9 1.709554 1_565
Al1 H0 1.734347 1_555
Al1 H1 1.734350 1_555
Al1 H2 1.734351 1_555
