# generated using pymatgen
data_CsV(CuS2)2
_symmetry_space_group_name_H-M   'P 1'
_cell_length_a   9.90449598
_cell_length_b   9.90449629
_cell_length_c   7.50333616
_cell_angle_alpha   90.00000000
_cell_angle_beta   90.00000000
_cell_angle_gamma   148.28167474
_symmetry_Int_Tables_number   1
_chemical_formula_structural   CsV(CuS2)2
_chemical_formula_sum   'Cs2 V2 Cu4 S8'
_cell_volume   386.98425152
_cell_formula_units_Z   2
loop_
 _symmetry_equiv_pos_site_id
 _symmetry_equiv_pos_as_xyz
  1  'x, y, z'
loop_
 _atom_site_type_symbol
 _atom_site_label
 _atom_site_symmetry_multiplicity
 _atom_site_fract_x
 _atom_site_fract_y
 _atom_site_fract_z
 _atom_site_occupancy
  Cs  Cs0  1  0.16968997  0.53788751  0.75000000  1
  Cs  Cs1  1  0.53788751  0.16968997  0.25000000  1
  V  V0  1  0.70659559  0.50208551  0.75000000  1
  V  V1  1  0.50208551  0.70659559  0.25000000  1
  Cu  Cu0  1  0.61789276  0.61789276  0.50000000  1
  Cu  Cu1  1  0.00417845  0.20328602  0.25000000  1
  Cu  Cu2  1  0.20328602  0.00417845  0.75000000  1
  Cu  Cu3  1  0.61789276  0.61789276  0.00000000  1
  S  S0  1  0.73735264  0.94056281  0.01290254  1
  S  S1  1  0.37915254  0.36662069  0.75000000  1
  S  S2  1  0.36662069  0.37915254  0.25000000  1
  S  S3  1  0.94056281  0.73735264  0.51290254  1
  S  S4  1  0.55827272  0.17241659  0.75000000  1
  S  S5  1  0.94056281  0.73735264  0.98709746  1
  S  S6  1  0.17241659  0.55827272  0.25000000  1
  S  S7  1  0.73735264  0.94056281  0.48709746  1
loop_
_geom_bond_atom_site_label_1
_geom_bond_atom_site_label_2
_geom_bond_distance
_geom_bond_site_symmetry_2
Cs0 S4 3.532988 1_455
Cs0 S4 3.627570 1_565
Cs0 S1 3.628870 1_555
Cs0 S0 3.641426 1_556
Cs0 S7 3.641426 1_555
Cs0 S6 3.755960 1_555
Cs0 S6 3.755960 1_556
Cs0 S0 3.758882 1_446
Cs0 S7 3.758882 1_445
Cs1 S6 3.532988 1_545
Cs1 S6 3.627570 1_655
Cs1 S2 3.628870 1_555
Cs1 S3 3.641427 1_555
Cs1 S5 3.641427 1_554
Cs1 S4 3.755960 1_555
Cs1 S4 3.755960 1_554
Cs1 S3 3.758881 1_445
Cs1 S5 3.758881 1_444
Cu0 S3 2.278124 1_555
Cu0 S7 2.278124 1_555
Cu0 S2 2.300444 1_555
Cu0 S1 2.300444 1_555
Cu1 S6 2.274045 1_555
Cu1 S7 2.284905 1_445
Cu1 S0 2.284905 1_445
Cu1 S2 2.298419 1_555
Cu2 S4 2.274045 1_555
Cu2 S5 2.284905 1_445
Cu2 S3 2.284905 1_445
Cu2 S1 2.298419 1_555
Cu3 S5 2.278124 1_554
Cu3 S0 2.278124 1_555
Cu3 S2 2.300444 1_555
Cu3 S1 2.300444 1_554
S0 V1 2.185885 1_555
S1 V0 2.217052 1_555
S2 V1 2.217052 1_555
S3 V0 2.185885 1_555
S4 V0 2.158470 1_555
S5 V0 2.185885 1_555
S6 V1 2.158470 1_555
S7 V1 2.185885 1_555
