# generated using pymatgen
data_BaTcP2Os
_symmetry_space_group_name_H-M   'P 1'
_cell_length_a   6.77693410
_cell_length_b   6.77693397
_cell_length_c   6.77693361
_cell_angle_alpha   144.99921347
_cell_angle_beta   144.99921292
_cell_angle_gamma   50.33570086
_symmetry_Int_Tables_number   1
_chemical_formula_structural   BaTcP2Os
_chemical_formula_sum   'Ba1 Tc1 P2 Os1'
_cell_volume   101.89254910
_cell_formula_units_Z   1
loop_
 _symmetry_equiv_pos_site_id
 _symmetry_equiv_pos_as_xyz
  1  'x, y, z'
loop_
 _atom_site_type_symbol
 _atom_site_label
 _atom_site_symmetry_multiplicity
 _atom_site_fract_x
 _atom_site_fract_y
 _atom_site_fract_z
 _atom_site_occupancy
  Ba  Ba0  1  0.00000000  0.00000000  0.00000000  1
  Tc  Tc0  1  0.25000000  0.75000000  0.50000000  1
  P  P0  1  0.65722027  0.65722027  1.00000000  1
  P  P1  1  0.34277973  0.34277973  0.00000000  1
  Os  Os0  1  0.75000000  0.25000000  0.50000000  1
loop_
_geom_bond_atom_site_label_1
_geom_bond_atom_site_label_2
_geom_bond_distance
_geom_bond_site_symmetry_2
Ba0 P0 3.467823 1_443
Ba0 P1 3.467823 1_556
Ba0 P0 3.467824 1_555
Ba0 P1 3.467824 1_444
Ba0 P0 3.467824 1_454
Ba0 P1 3.467824 1_545
Ba0 P0 3.467824 1_544
Ba0 P1 3.467824 1_455
Ba0 Os0 3.682152 1_454
Ba0 Os0 3.682152 1_455
Ba0 Os0 3.682152 1_444
Ba0 Os0 3.682152 1_555
P0 Tc0 2.334188 1_555
P0 Tc0 2.334188 1_656
P1 Tc0 2.334188 1_555
P1 Tc0 2.334188 1_544
Os0 P0 2.334188 1_555
Os0 P1 2.334188 1_555
Os0 P0 2.334188 1_544
Os0 P1 2.334188 1_656
Os0 Tc0 2.882036 1_544
Os0 Tc0 2.882036 1_656
Os0 Tc0 2.882037 1_645
Os0 Tc0 2.882037 1_555
