# generated using pymatgen
data_Sr3LiAuO6
_symmetry_space_group_name_H-M   'P 1'
_cell_length_a   6.72111348
_cell_length_b   6.72111277
_cell_length_c   6.72111308
_cell_angle_alpha   92.03686815
_cell_angle_beta   92.03686752
_cell_angle_gamma   92.03687775
_symmetry_Int_Tables_number   1
_chemical_formula_structural   Sr3LiAuO6
_chemical_formula_sum   'Sr6 Li2 Au2 O12'
_cell_volume   303.02574174
_cell_formula_units_Z   2
loop_
 _symmetry_equiv_pos_site_id
 _symmetry_equiv_pos_as_xyz
  1  'x, y, z'
loop_
 _atom_site_type_symbol
 _atom_site_label
 _atom_site_symmetry_multiplicity
 _atom_site_fract_x
 _atom_site_fract_y
 _atom_site_fract_z
 _atom_site_occupancy
  Sr  Sr0  1  0.38967209  0.11032791  0.75000000  1
  Sr  Sr1  1  0.11032791  0.75000000  0.38967209  1
  Sr  Sr2  1  0.25000000  0.61032791  0.88967209  1
  Sr  Sr3  1  0.88967209  0.25000000  0.61032791  1
  Sr  Sr4  1  0.61032791  0.88967209  0.25000000  1
  Sr  Sr5  1  0.75000000  0.38967209  0.11032791  1
  Li  Li0  1  0.75000000  0.75000000  0.75000000  1
  Li  Li1  1  0.25000000  0.25000000  0.25000000  1
  Au  Au0  1  0.50000000  0.50000000  0.50000000  1
  Au  Au1  1  0.00000000  0.00000000  0.00000000  1
  O  O0  1  0.28445921  0.95363903  0.08541106  1
  O  O1  1  0.41458894  0.54636097  0.21554079  1
  O  O2  1  0.21554079  0.41458894  0.54636097  1
  O  O3  1  0.54636097  0.21554079  0.41458894  1
  O  O4  1  0.08541106  0.28445921  0.95363903  1
  O  O5  1  0.95363903  0.08541106  0.28445921  1
  O  O6  1  0.91458894  0.71554079  0.04636097  1
  O  O7  1  0.04636097  0.91458894  0.71554079  1
  O  O8  1  0.45363903  0.78445921  0.58541106  1
  O  O9  1  0.78445921  0.58541106  0.45363903  1
  O  O10  1  0.58541106  0.45363903  0.78445921  1
  O  O11  1  0.71554079  0.04636097  0.91458894  1
loop_
_geom_bond_atom_site_label_1
_geom_bond_atom_site_label_2
_geom_bond_distance
_geom_bond_site_symmetry_2
Li0 O10 2.267004 1_555
Li0 O7 2.267004 1_655
Li0 O11 2.267004 1_565
Li0 O9 2.267004 1_555
Li0 O6 2.267004 1_556
Li0 O8 2.267004 1_555
Li1 O1 2.267004 1_555
Li1 O5 2.267004 1_455
Li1 O0 2.267004 1_545
Li1 O2 2.267004 1_555
Li1 O4 2.267004 1_554
Li1 O3 2.267004 1_555
Au0 O3 2.014690 1_555
Au0 O8 2.014690 1_555
Au0 O9 2.014690 1_555
Au0 O2 2.014690 1_555
Au0 O10 2.014690 1_555
Au0 O1 2.014690 1_555
Au1 O4 2.014690 1_554
Au1 O6 2.014690 1_445
Au1 O5 2.014690 1_455
Au1 O7 2.014690 1_544
Au1 O0 2.014690 1_545
Au1 O11 2.014690 1_454
O0 Sr4 2.476703 1_555
O0 Sr2 2.614041 1_554
O0 Sr0 2.630647 1_564
O0 Sr1 2.771310 1_555
O1 Sr2 2.476703 1_554
O1 Sr4 2.614041 1_555
O1 Sr5 2.630647 1_555
O1 Sr1 2.771310 1_555
O2 Sr3 2.476703 1_455
O2 Sr2 2.614041 1_555
O2 Sr1 2.630647 1_555
O2 Sr0 2.771310 1_555
O3 Sr4 2.476703 1_545
O3 Sr3 2.614041 1_555
O3 Sr0 2.630647 1_555
O3 Sr5 2.771310 1_555
O4 Sr2 2.476703 1_555
O4 Sr3 2.614041 1_455
O4 Sr5 2.630647 1_456
O4 Sr0 2.771310 1_555
O5 Sr3 2.476703 1_555
O5 Sr4 2.614041 1_545
O5 Sr1 2.630647 1_645
O5 Sr5 2.771310 1_555
O6 Sr5 2.476703 1_555
O6 Sr1 2.614041 1_655
O6 Sr2 2.630647 1_654
O6 Sr4 2.771310 1_555
O7 Sr1 2.476703 1_555
O7 Sr0 2.614041 1_565
O7 Sr3 2.630647 1_465
O7 Sr2 2.771310 1_555
O8 Sr0 2.476703 1_565
O8 Sr1 2.614041 1_555
O8 Sr4 2.630647 1_555
O8 Sr2 2.771310 1_555
O9 Sr1 2.476703 1_655
O9 Sr5 2.614041 1_555
O9 Sr3 2.630647 1_555
O9 Sr4 2.771310 1_555
O10 Sr5 2.476703 1_556
O10 Sr0 2.614041 1_555
O10 Sr2 2.630647 1_555
O10 Sr3 2.771310 1_555
O11 Sr0 2.476703 1_555
O11 Sr5 2.614041 1_556
O11 Sr4 2.630647 1_546
O11 Sr3 2.771310 1_555
