# generated using pymatgen
data_Cs8CdHg3H16
_symmetry_space_group_name_H-M   'P 1'
_cell_length_a   6.49602678
_cell_length_b   8.86892751
_cell_length_c   11.48281814
_cell_angle_alpha   90.10403681
_cell_angle_beta   90.00000000
_cell_angle_gamma   90.00000000
_symmetry_Int_Tables_number   1
_chemical_formula_structural   Cs8CdHg3H16
_chemical_formula_sum   'Cs8 Cd1 Hg3 H16'
_cell_volume   661.55610669
_cell_formula_units_Z   1
loop_
 _symmetry_equiv_pos_site_id
 _symmetry_equiv_pos_as_xyz
  1  'x, y, z'
loop_
 _atom_site_type_symbol
 _atom_site_label
 _atom_site_symmetry_multiplicity
 _atom_site_fract_x
 _atom_site_fract_y
 _atom_site_fract_z
 _atom_site_occupancy
  Cs  Cs0  1  0.25000000  0.16254986  0.90916557  1
  Cs  Cs1  1  0.25000000  0.65970393  0.59118594  1
  Cs  Cs2  1  0.75000000  0.83804978  0.09181315  1
  Cs  Cs3  1  0.75000000  0.33665804  0.40876402  1
  Cs  Cs4  1  0.25000000  0.48607939  0.18487562  1
  Cs  Cs5  1  0.25000000  0.98545891  0.31429091  1
  Cs  Cs6  1  0.75000000  0.51576733  0.81487727  1
  Cs  Cs7  1  0.75000000  0.01522913  0.68528450  1
  Cd  Cd0  1  0.75000000  0.75851338  0.41501571  1
  Hg  Hg0  1  0.25000000  0.74141447  0.91524308  1
  Hg  Hg1  1  0.25000000  0.23938670  0.58491420  1
  Hg  Hg2  1  0.75000000  0.25924665  0.08466807  1
  H  H0  1  0.25000000  0.53984951  0.90582524  1
  H  H1  1  0.25000000  0.03743510  0.59279022  1
  H  H2  1  0.75000000  0.46079587  0.09388230  1
  H  H3  1  0.75000000  0.96479076  0.40674492  1
  H  H4  1  0.25000000  0.81041608  0.06416709  1
  H  H5  1  0.25000000  0.30908318  0.43611127  1
  H  H6  1  0.75000000  0.19039386  0.93539416  1
  H  H7  1  0.75000000  0.69050334  0.56696056  1
  H  H8  1  0.02317184  0.81655385  0.84495804  1
  H  H9  1  0.47653959  0.31478591  0.65565662  1
  H  H10  1  0.52326184  0.18404138  0.15506743  1
  H  H11  1  0.98108954  0.68395723  0.34333202  1
  H  H12  1  0.97673816  0.18404138  0.15506743  1
  H  H13  1  0.51891046  0.68395723  0.34333202  1
  H  H14  1  0.47682816  0.81655385  0.84495804  1
  H  H15  1  0.02346041  0.31478591  0.65565662  1
loop_
_geom_bond_atom_site_label_1
_geom_bond_atom_site_label_2
_geom_bond_distance
_geom_bond_site_symmetry_2
Cs0 H6 3.271240 1_555
Cs0 H6 3.271240 1_455
Cs0 H10 3.340418 1_556
Cs0 H12 3.340418 1_456
Cs0 H0 3.346533 1_555
Cs1 H7 3.271370 1_555
Cs1 H7 3.271370 1_455
Cs1 H13 3.346646 1_555
Cs1 H11 3.346646 1_455
Cs1 H1 3.350088 1_565
Cs2 H4 3.272637 1_555
Cs2 H4 3.272637 1_655
Cs2 H2 3.345965 1_555
Cs2 H8 3.349367 1_654
Cs2 H14 3.349367 1_554
Cs3 H5 3.272352 1_555
Cs3 H5 3.272352 1_655
Cs3 H3 3.298103 1_545
Cs3 H15 3.351507 1_655
Cs3 H9 3.351507 1_555
Cs4 H13 3.070906 1_555
Cs4 H11 3.070906 1_455
Cs4 H4 3.195315 1_555
Cs4 H10 3.231189 1_555
Cs4 H12 3.231189 1_455
Cs4 H0 3.240433 1_554
Cs4 H5 3.286826 1_555
Cs4 H2 3.419175 1_455
Cs4 H2 3.419175 1_555
Cs5 H10 3.099582 1_565
Cs5 H12 3.099582 1_465
Cs5 H5 3.190646 1_565
Cs5 H13 3.211882 1_555
Cs5 H11 3.211882 1_455
Cs5 H1 3.230181 1_565
Cs5 H4 3.262360 1_555
Cs5 H3 3.422128 1_455
Cs5 H3 3.422128 1_555
Cs6 H15 3.108656 1_655
Cs6 H9 3.108656 1_555
Cs6 H6 3.202648 1_555
Cs6 H8 3.222003 1_655
Cs6 H14 3.222003 1_555
Cs6 H2 3.241523 1_556
Cs6 H7 3.243737 1_555
Cs6 H0 3.418339 1_655
Cs6 H0 3.418339 1_555
Cs7 H8 3.102773 1_645
Cs7 H14 3.102773 1_545
Cs7 H7 3.182147 1_545
Cs7 H15 3.214491 1_655
Cs7 H9 3.214491 1_555
Cs7 H3 3.228746 1_545
Cs7 H6 3.262730 1_555
Cs7 H1 3.423037 1_655
Cs7 H1 3.423037 1_555
Cd0 H3 1.832095 1_555
Cd0 H11 1.834745 1_555
Cd0 H13 1.834745 1_555
Cd0 H7 1.847110 1_555
H0 Hg0 1.790737 1_555
H1 Hg1 1.793540 1_555
H2 Hg2 1.790462 1_555
H4 Hg0 1.815224 1_554
H5 Hg1 1.818104 1_555
H6 Hg2 1.818566 1_556
H8 Hg0 1.807916 1_555
H9 Hg1 1.808507 1_555
H10 Hg2 1.808243 1_555
H12 Hg2 1.808243 1_555
H14 Hg0 1.807916 1_555
H15 Hg1 1.808507 1_555
