# generated using pymatgen
data_Ca2Al2ZnAu9
_symmetry_space_group_name_H-M   'P 1'
_cell_length_a   5.60448774
_cell_length_b   5.60448718
_cell_length_c   9.87057401
_cell_angle_alpha   90.00000000
_cell_angle_beta   90.00000000
_cell_angle_gamma   123.05130238
_symmetry_Int_Tables_number   1
_chemical_formula_structural   Ca2Al2ZnAu9
_chemical_formula_sum   'Ca2 Al2 Zn1 Au9'
_cell_volume   259.86801908
_cell_formula_units_Z   1
loop_
 _symmetry_equiv_pos_site_id
 _symmetry_equiv_pos_as_xyz
  1  'x, y, z'
loop_
 _atom_site_type_symbol
 _atom_site_label
 _atom_site_symmetry_multiplicity
 _atom_site_fract_x
 _atom_site_fract_y
 _atom_site_fract_z
 _atom_site_occupancy
  Ca  Ca0  1  0.00000000  0.50000000  0.75757261  1
  Ca  Ca1  1  0.50000000  0.00000000  0.24242739  1
  Al  Al0  1  0.00000000  0.00000000  0.50000000  1
  Al  Al1  1  0.00000000  0.00000000  0.00000000  1
  Zn  Zn0  1  0.50000000  0.50000000  0.50000000  1
  Au  Au0  1  0.00000000  0.50000000  0.05671316  1
  Au  Au1  1  0.50000000  0.00000000  0.54180794  1
  Au  Au2  1  0.50000000  0.00000000  0.94328684  1
  Au  Au3  1  0.00000000  0.50000000  0.45819206  1
  Au  Au4  1  0.70536418  0.80349035  0.74013227  1
  Au  Au5  1  0.19650965  0.29463582  0.25986773  1
  Au  Au6  1  0.80349035  0.70536418  0.25986773  1
  Au  Au7  1  0.29463582  0.19650965  0.74013227  1
  Au  Au8  1  0.50000000  0.50000000  0.00000000  1
loop_
_geom_bond_atom_site_label_1
_geom_bond_atom_site_label_2
_geom_bond_distance
_geom_bond_site_symmetry_2
Al0 Zn0 2.672025 1_445
Al0 Zn0 2.672025 1_555
Al0 Au5 2.752094 1_555
Al0 Au6 2.752094 1_445
Al0 Au7 2.752094 1_555
Al0 Au4 2.752094 1_445
Al0 Au3 2.832466 1_545
Al0 Au3 2.832466 1_555
Al0 Au1 2.832466 1_555
Al0 Au1 2.832466 1_455
Al1 Au8 2.672025 1_555
Al1 Au8 2.672025 1_445
Al1 Au0 2.857610 1_545
Al1 Au0 2.857610 1_555
Al1 Au2 2.857610 1_554
Al1 Au2 2.857610 1_454
Al1 Au5 2.921543 1_555
Al1 Au6 2.921543 1_445
Al1 Au7 2.921543 1_554
Al1 Au4 2.921543 1_444
Au0 Au5 2.818041 1_555
Au0 Au6 2.818041 1_455
Au0 Au8 2.857610 1_555
Au0 Au8 2.857610 1_455
Au0 Au2 2.897099 1_564
Au0 Au2 2.897099 1_454
Au0 Ca0 2.952689 1_554
Au0 Ca1 3.240370 1_455
Au0 Ca1 3.240370 1_565
Au1 Au4 2.784316 1_545
Au1 Au7 2.784316 1_555
Au1 Au3 2.796587 1_545
Au1 Au3 2.796587 1_655
Au1 Zn0 2.832466 1_545
Au1 Zn0 2.832466 1_555
Au1 Ca1 2.955058 1_555
Au1 Ca0 3.416933 1_655
Au1 Ca0 3.416933 1_545
Au2 Au4 2.818041 1_545
Au2 Au7 2.818041 1_555
Au2 Au8 2.857610 1_546
Au2 Au8 2.857610 1_556
Au2 Ca1 2.952689 1_556
Au2 Ca0 3.240370 1_545
Au2 Ca0 3.240370 1_655
Au3 Au5 2.784316 1_555
Au3 Au6 2.784316 1_455
Au3 Zn0 2.832466 1_455
Au3 Zn0 2.832466 1_555
Au3 Ca0 2.955058 1_555
Au3 Ca1 3.416933 1_455
Au3 Ca1 3.416933 1_565
Au4 Zn0 2.774970 1_555
Au4 Au7 2.797117 1_665
Au4 Au7 2.886107 1_555
Au4 Au8 2.943102 1_556
Au4 Ca0 2.951797 1_655
Au4 Ca0 3.311077 1_665
Au4 Ca0 3.349046 1_555
Au5 Zn0 2.774970 1_555
Au5 Au6 2.797117 1_445
Au5 Au6 2.886107 1_555
Au5 Au8 2.943102 1_555
Au5 Ca1 2.951797 1_555
Au5 Ca1 3.311077 1_455
Au5 Ca1 3.349046 1_565
Au6 Zn0 2.774970 1_555
Au6 Au8 2.943102 1_555
Au6 Ca1 2.951797 1_565
Au6 Ca1 3.311077 1_665
Au6 Ca1 3.349046 1_555
Au7 Zn0 2.774970 1_555
Au7 Au8 2.943102 1_556
Au7 Ca0 2.951797 1_555
Au7 Ca0 3.311077 1_545
Au7 Ca0 3.349046 1_655
