# generated using pymatgen
data_Y6Sb7PPd16
_symmetry_space_group_name_H-M   'P 1'
_cell_length_a   9.26117362
_cell_length_b   9.26117386
_cell_length_c   9.26117404
_cell_angle_alpha   60.00000287
_cell_angle_beta   60.00000200
_cell_angle_gamma   59.99999817
_symmetry_Int_Tables_number   1
_chemical_formula_structural   Y6Sb7PPd16
_chemical_formula_sum   'Y6 Sb7 P1 Pd16'
_cell_volume   561.67244819
_cell_formula_units_Z   1
loop_
 _symmetry_equiv_pos_site_id
 _symmetry_equiv_pos_as_xyz
  1  'x, y, z'
loop_
 _atom_site_type_symbol
 _atom_site_label
 _atom_site_symmetry_multiplicity
 _atom_site_fract_x
 _atom_site_fract_y
 _atom_site_fract_z
 _atom_site_occupancy
  Y  Y0  1  0.71333864  0.28666136  0.28666136  1
  Y  Y1  1  0.28666136  0.71333864  0.71333864  1
  Y  Y2  1  0.28666136  0.71333864  0.28666136  1
  Y  Y3  1  0.71333864  0.28666136  0.71333864  1
  Y  Y4  1  0.28666136  0.28666136  0.71333864  1
  Y  Y5  1  0.71333864  0.71333864  0.28666136  1
  Sb  Sb0  1  0.00000000  0.00000000  0.00000000  1
  Sb  Sb1  1  0.50000000  0.00000000  0.00000000  1
  Sb  Sb2  1  0.00000000  0.50000000  0.50000000  1
  Sb  Sb3  1  0.00000000  0.50000000  0.00000000  1
  Sb  Sb4  1  0.50000000  0.00000000  0.50000000  1
  Sb  Sb5  1  0.00000000  0.00000000  0.50000000  1
  Sb  Sb6  1  0.50000000  0.50000000  0.00000000  1
  P  P0  1  0.50000000  0.50000000  0.50000000  1
  Pd  Pd0  1  0.11812563  0.11812563  0.11812563  1
  Pd  Pd1  1  0.88187437  0.88187437  0.88187437  1
  Pd  Pd2  1  0.11812563  0.11812563  0.64562312  1
  Pd  Pd3  1  0.11812563  0.64562312  0.11812563  1
  Pd  Pd4  1  0.88187437  0.88187437  0.35437688  1
  Pd  Pd5  1  0.88187437  0.35437688  0.88187437  1
  Pd  Pd6  1  0.64562312  0.11812563  0.11812563  1
  Pd  Pd7  1  0.35437688  0.88187437  0.88187437  1
  Pd  Pd8  1  0.33221876  0.33221876  0.33221876  1
  Pd  Pd9  1  0.66778124  0.66778124  0.66778124  1
  Pd  Pd10  1  0.33221876  0.33221876  0.00334373  1
  Pd  Pd11  1  0.33221876  0.00334373  0.33221876  1
  Pd  Pd12  1  0.66778124  0.66778124  0.99665627  1
  Pd  Pd13  1  0.66778124  0.99665627  0.66778124  1
  Pd  Pd14  1  0.00334373  0.33221876  0.33221876  1
  Pd  Pd15  1  0.99665627  0.66778124  0.66778124  1
loop_
_geom_bond_atom_site_label_1
_geom_bond_atom_site_label_2
_geom_bond_distance
_geom_bond_site_symmetry_2
Sb1 Y5 3.309339 1_545
Sb1 Y4 3.309339 1_554
Sb1 Y3 3.309339 1_554
Sb1 Y2 3.309339 1_545
Sb2 Y4 3.309339 1_555
Sb2 Y5 3.309339 1_455
Sb2 Y2 3.309339 1_555
Sb2 Y3 3.309339 1_455
Sb3 Y5 3.309339 1_455
Sb3 Y4 3.309339 1_554
Sb3 Y1 3.309339 1_554
Sb3 Y0 3.309339 1_455
Sb4 Y4 3.309339 1_555
Sb4 Y5 3.309339 1_545
Sb4 Y0 3.309339 1_555
Sb4 Y1 3.309339 1_545
Sb5 Y3 3.309339 1_455
Sb5 Y2 3.309339 1_545
Sb5 Y1 3.309339 1_545
Sb5 Y0 3.309339 1_455
Sb6 Y0 3.309339 1_555
Sb6 Y1 3.309339 1_554
Sb6 Y2 3.309339 1_555
Sb6 Y3 3.309339 1_554
P0 Y1 2.794155 1_555
P0 Y0 2.794155 1_555
P0 Y3 2.794155 1_555
P0 Y2 2.794155 1_555
P0 Y5 2.794156 1_555
P0 Y4 2.794156 1_555
Pd0 Sb0 2.679698 1_555
Pd0 Sb1 2.891366 1_555
Pd0 Sb3 2.891366 1_555
Pd0 Sb5 2.891367 1_555
Pd0 Pd11 2.951024 1_555
Pd0 Pd14 2.951024 1_555
Pd0 Pd10 2.951024 1_555
Pd0 Pd7 3.094248 1_544
Pd0 Pd5 3.094248 1_454
Pd0 Pd4 3.094248 1_445
Pd0 Y0 3.107993 1_455
Pd0 Y2 3.107993 1_545
Pd0 Y4 3.107993 1_554
Pd1 Sb0 2.679698 1_666
Pd1 Sb1 2.891366 1_566
Pd1 Sb3 2.891366 1_656
Pd1 Sb5 2.891367 1_665
Pd1 Pd13 2.951024 1_555
Pd1 Pd15 2.951024 1_555
Pd1 Pd12 2.951024 1_555
Pd1 Pd3 3.094248 1_656
Pd1 Pd6 3.094248 1_566
Pd1 Pd2 3.094248 1_665
Pd1 Y1 3.107993 1_655
Pd1 Y3 3.107993 1_565
Pd1 Y5 3.107993 1_556
Pd2 Sb0 2.679698 1_556
Pd2 Sb4 2.891366 1_555
Pd2 Sb5 2.891366 1_555
Pd2 Sb2 2.891367 1_555
Pd2 Pd8 2.951024 1_555
Pd2 Pd7 3.094248 1_545
Pd2 Pd5 3.094248 1_455
Pd2 Y3 3.107993 1_455
Pd2 Y1 3.107993 1_545
Pd2 Y4 3.107993 1_555
Pd3 Sb0 2.679698 1_565
Pd3 Sb6 2.891366 1_555
Pd3 Sb3 2.891366 1_555
Pd3 Sb2 2.891367 1_555
Pd3 Pd8 2.951024 1_555
Pd3 Pd4 3.094248 1_455
Pd3 Pd7 3.094248 1_554
Pd3 Y5 3.107993 1_455
Pd3 Y2 3.107993 1_555
Pd3 Y1 3.107993 1_554
Pd4 Sb0 2.679698 1_665
Pd4 Sb4 2.891366 1_565
Pd4 Sb5 2.891366 1_665
Pd4 Sb2 2.891367 1_655
Pd4 Pd9 2.951024 1_555
Pd4 Pd6 3.094248 1_565
Pd4 Y2 3.107993 1_655
Pd4 Y0 3.107993 1_565
Pd4 Y5 3.107993 1_555
Pd5 Sb0 2.679698 1_656
Pd5 Sb6 2.891366 1_556
Pd5 Sb3 2.891366 1_656
Pd5 Sb2 2.891367 1_655
Pd5 Pd9 2.951024 1_555
Pd5 Pd6 3.094248 1_556
Pd5 Y4 3.107993 1_655
Pd5 Y3 3.107993 1_555
Pd5 Y0 3.107993 1_556
Pd6 Sb0 2.679698 1_655
Pd6 Sb1 2.891366 1_555
Pd6 Sb6 2.891366 1_555
Pd6 Sb4 2.891367 1_555
Pd6 Pd8 2.951024 1_555
Pd6 Y0 3.107993 1_555
Pd6 Y5 3.107993 1_545
Pd6 Y3 3.107993 1_554
Pd7 Sb0 2.679698 1_566
Pd7 Sb1 2.891366 1_566
Pd7 Sb6 2.891366 1_556
Pd7 Sb4 2.891367 1_565
Pd7 Pd9 2.951024 1_555
Pd7 Y1 3.107993 1_555
Pd7 Y4 3.107993 1_565
Pd7 Y2 3.107993 1_556
Pd8 Sb2 2.673590 1_555
Pd8 Sb4 2.673590 1_555
Pd8 Sb6 2.673590 1_555
Pd8 Y0 3.164465 1_555
Pd8 Y2 3.164465 1_555
Pd8 Y4 3.164465 1_555
Pd9 Sb2 2.673590 1_655
Pd9 Sb4 2.673590 1_565
Pd9 Sb6 2.673590 1_556
Pd9 Y1 3.164465 1_555
Pd9 Y3 3.164465 1_555
Pd9 Y5 3.164465 1_555
Pd10 Sb3 2.673590 1_555
Pd10 Sb1 2.673590 1_555
Pd10 Sb6 2.673590 1_555
Pd10 Pd6 2.951024 1_555
Pd10 Pd3 2.951024 1_555
Pd10 Y4 3.164465 1_554
Pd10 Y3 3.164465 1_554
Pd10 Y1 3.164465 1_554
Pd11 Sb4 2.673590 1_555
Pd11 Sb5 2.673590 1_555
Pd11 Sb1 2.673590 1_555
Pd11 Pd2 2.951024 1_555
Pd11 Pd6 2.951024 1_555
Pd11 Y5 3.164465 1_545
Pd11 Y2 3.164465 1_545
Pd11 Y1 3.164465 1_545
Pd12 Sb3 2.673590 1_656
Pd12 Sb1 2.673590 1_566
Pd12 Sb6 2.673590 1_556
Pd12 Pd7 2.951024 1_555
Pd12 Pd5 2.951024 1_555
Pd12 Y5 3.164465 1_556
Pd12 Y2 3.164465 1_556
Pd12 Y0 3.164465 1_556
Pd13 Sb4 2.673590 1_565
Pd13 Sb5 2.673590 1_665
Pd13 Sb1 2.673590 1_566
Pd13 Pd4 2.951024 1_555
Pd13 Pd7 2.951024 1_555
Pd13 Y4 3.164465 1_565
Pd13 Y3 3.164465 1_565
Pd13 Y0 3.164465 1_565
Pd14 Sb2 2.673590 1_555
Pd14 Sb5 2.673590 1_555
Pd14 Sb3 2.673590 1_555
Pd14 Pd2 2.951024 1_555
Pd14 Pd3 2.951024 1_555
Pd14 Y5 3.164465 1_455
Pd14 Y0 3.164465 1_455
Pd14 Y3 3.164465 1_455
Pd15 Sb2 2.673590 1_655
Pd15 Sb5 2.673590 1_665
Pd15 Sb3 2.673590 1_656
Pd15 Pd4 2.951024 1_555
Pd15 Pd5 2.951024 1_555
Pd15 Y4 3.164465 1_655
Pd15 Y1 3.164465 1_655
Pd15 Y2 3.164465 1_655
