# generated using pymatgen
data_Zr6Al16Pt6Rh
_symmetry_space_group_name_H-M   'P 1'
_cell_length_a   8.72002486
_cell_length_b   8.72002491
_cell_length_c   8.72002416
_cell_angle_alpha   59.99999916
_cell_angle_beta   59.99999895
_cell_angle_gamma   59.99999951
_symmetry_Int_Tables_number   1
_chemical_formula_structural   Zr6Al16Pt6Rh
_chemical_formula_sum   'Zr6 Al16 Pt6 Rh1'
_cell_volume   468.85454592
_cell_formula_units_Z   1
loop_
 _symmetry_equiv_pos_site_id
 _symmetry_equiv_pos_as_xyz
  1  'x, y, z'
loop_
 _atom_site_type_symbol
 _atom_site_label
 _atom_site_symmetry_multiplicity
 _atom_site_fract_x
 _atom_site_fract_y
 _atom_site_fract_z
 _atom_site_occupancy
  Zr  Zr0  1  0.68677967  0.68677967  0.31322033  1
  Zr  Zr1  1  0.31322033  0.68677967  0.31322033  1
  Zr  Zr2  1  0.68677967  0.31322033  0.31322033  1
  Zr  Zr3  1  0.31322033  0.31322033  0.68677967  1
  Zr  Zr4  1  0.68677967  0.31322033  0.68677967  1
  Zr  Zr5  1  0.31322033  0.68677967  0.68677967  1
  Al  Al0  1  0.88130331  0.88130331  0.35608808  1
  Al  Al1  1  0.88130331  0.35608808  0.88130331  1
  Al  Al2  1  0.35608808  0.88130331  0.88130331  1
  Al  Al3  1  0.88130331  0.88130331  0.88130331  1
  Al  Al4  1  0.11869669  0.11869669  0.64391192  1
  Al  Al5  1  0.11869669  0.64391192  0.11869669  1
  Al  Al6  1  0.64391192  0.11869669  0.11869669  1
  Al  Al7  1  0.11869669  0.11869669  0.11869669  1
  Al  Al8  1  0.66637094  0.66637094  0.00088618  1
  Al  Al9  1  0.66637094  0.00088618  0.66637094  1
  Al  Al10  1  0.00088618  0.66637094  0.66637094  1
  Al  Al11  1  0.66637094  0.66637094  0.66637094  1
  Al  Al12  1  0.33362906  0.33362906  0.99911382  1
  Al  Al13  1  0.33362906  0.99911382  0.33362906  1
  Al  Al14  1  0.99911382  0.33362906  0.33362906  1
  Al  Al15  1  0.33362906  0.33362906  0.33362906  1
  Pt  Pt0  1  0.00000000  0.00000000  0.50000000  1
  Pt  Pt1  1  0.50000000  0.00000000  0.50000000  1
  Pt  Pt2  1  0.00000000  0.50000000  0.50000000  1
  Pt  Pt3  1  0.50000000  0.50000000  0.00000000  1
  Pt  Pt4  1  0.00000000  0.50000000  0.00000000  1
  Pt  Pt5  1  0.50000000  0.00000000  0.00000000  1
  Rh  Rh0  1  0.00000000  0.00000000  0.00000000  1
loop_
_geom_bond_atom_site_label_1
_geom_bond_atom_site_label_2
_geom_bond_distance
_geom_bond_site_symmetry_2
Zr0 Zr5 3.257446 1_555
Zr0 Zr4 3.257446 1_555
Zr0 Zr1 3.257447 1_555
Zr0 Zr2 3.257447 1_555
Zr1 Zr5 3.257446 1_555
Zr1 Zr3 3.257446 1_555
Zr1 Zr2 3.257447 1_555
Zr2 Zr4 3.257446 1_555
Zr2 Zr3 3.257446 1_555
Zr3 Zr4 3.257447 1_555
Zr3 Zr5 3.257447 1_555
Zr4 Zr5 3.257447 1_555
Al0 Rh0 2.535301 1_665
Al0 Pt1 2.717797 1_565
Al0 Pt2 2.717797 1_655
Al0 Pt0 2.717811 1_665
Al0 Zr0 3.168545 1_555
Al0 Zr1 3.168560 1_655
Al0 Zr2 3.168560 1_565
Al1 Rh0 2.535301 1_656
Al1 Pt2 2.717797 1_655
Al1 Pt3 2.717797 1_556
Al1 Pt4 2.717811 1_656
Al1 Zr4 3.168545 1_555
Al1 Zr2 3.168560 1_556
Al1 Zr3 3.168560 1_655
Al2 Rh0 2.535301 1_566
Al2 Pt1 2.717797 1_565
Al2 Pt3 2.717797 1_556
Al2 Pt5 2.717811 1_566
Al2 Zr5 3.168545 1_555
Al2 Zr1 3.168560 1_556
Al2 Zr3 3.168560 1_565
Al3 Rh0 2.535315 1_666
Al3 Pt0 2.717796 1_665
Al3 Pt5 2.717796 1_566
Al3 Pt4 2.717796 1_656
Al3 Zr0 3.168556 1_556
Al3 Zr5 3.168556 1_655
Al3 Zr4 3.168556 1_565
Al4 Rh0 2.535301 1_556
Al4 Pt1 2.717797 1_555
Al4 Pt2 2.717797 1_555
Al4 Pt0 2.717811 1_555
Al4 Zr3 3.168545 1_555
Al4 Zr4 3.168560 1_455
Al4 Zr5 3.168560 1_545
Al5 Rh0 2.535301 1_565
Al5 Pt2 2.717797 1_555
Al5 Pt3 2.717797 1_555
Al5 Pt4 2.717811 1_555
Al5 Zr1 3.168545 1_555
Al5 Zr5 3.168560 1_554
Al5 Zr0 3.168560 1_455
Al6 Rh0 2.535301 1_655
Al6 Pt1 2.717797 1_555
Al6 Pt3 2.717797 1_555
Al6 Pt5 2.717811 1_555
Al6 Zr2 3.168545 1_555
Al6 Zr4 3.168560 1_554
Al6 Zr0 3.168560 1_545
Al7 Rh0 2.535315 1_555
Al7 Pt0 2.717796 1_555
Al7 Pt5 2.717796 1_555
Al7 Pt4 2.717796 1_555
Al7 Zr3 3.168556 1_554
Al7 Zr2 3.168556 1_455
Al7 Zr1 3.168556 1_545
Al8 Pt3 2.517257 1_555
Al8 Pt4 2.517265 1_655
Al8 Pt5 2.517265 1_565
Al8 Zr1 2.912416 1_555
Al8 Zr2 2.912416 1_555
Al8 Zr0 2.912421 1_555
Al9 Pt1 2.517257 1_555
Al9 Pt5 2.517265 1_556
Al9 Pt0 2.517265 1_655
Al9 Zr2 2.912416 1_555
Al9 Zr3 2.912416 1_555
Al9 Zr4 2.912421 1_555
Al10 Pt2 2.517257 1_555
Al10 Pt4 2.517265 1_556
Al10 Pt0 2.517265 1_565
Al10 Zr1 2.912416 1_555
Al10 Zr3 2.912416 1_555
Al10 Zr5 2.912421 1_555
Al11 Pt3 2.517262 1_556
Al11 Pt2 2.517262 1_655
Al11 Pt1 2.517262 1_565
Al11 Zr0 2.912412 1_555
Al11 Zr5 2.912412 1_555
Al11 Zr4 2.912412 1_555
Al12 Pt3 2.517257 1_556
Al12 Pt4 2.517265 1_556
Al12 Pt5 2.517265 1_556
Al12 Zr4 2.912416 1_555
Al12 Zr5 2.912416 1_555
Al12 Zr3 2.912421 1_555
Al13 Pt1 2.517257 1_565
Al13 Pt5 2.517265 1_565
Al13 Pt0 2.517265 1_565
Al13 Zr5 2.912416 1_555
Al13 Zr0 2.912416 1_555
Al13 Zr1 2.912421 1_555
Al14 Pt2 2.517257 1_655
Al14 Pt4 2.517265 1_655
Al14 Pt0 2.517265 1_655
Al14 Zr4 2.912416 1_555
Al14 Zr0 2.912416 1_555
Al14 Zr2 2.912421 1_555
Al15 Pt3 2.517262 1_555
Al15 Pt2 2.517262 1_555
Al15 Pt1 2.517262 1_555
Al15 Zr3 2.912412 1_555
Al15 Zr2 2.912412 1_555
Al15 Zr1 2.912412 1_555
Pt0 Zr4 3.180044 1_455
Pt0 Zr1 3.180044 1_545
Pt0 Zr5 3.180044 1_545
Pt0 Zr2 3.180044 1_455
Pt1 Zr3 3.180044 1_555
Pt1 Zr0 3.180044 1_545
Pt1 Zr2 3.180044 1_555
Pt1 Zr5 3.180044 1_545
Pt2 Zr3 3.180044 1_555
Pt2 Zr0 3.180044 1_455
Pt2 Zr1 3.180044 1_555
Pt2 Zr4 3.180044 1_455
Pt3 Zr2 3.180044 1_555
Pt3 Zr5 3.180044 1_554
Pt3 Zr1 3.180044 1_555
Pt3 Zr4 3.180044 1_554
Pt4 Zr0 3.180044 1_455
Pt4 Zr3 3.180044 1_554
Pt4 Zr5 3.180044 1_554
Pt4 Zr2 3.180044 1_455
Pt5 Zr0 3.180044 1_545
Pt5 Zr3 3.180044 1_554
Pt5 Zr4 3.180044 1_554
Pt5 Zr1 3.180044 1_545
