# generated using pymatgen
data_K3FeO2
_symmetry_space_group_name_H-M   'P 1'
_cell_length_a   6.19236367
_cell_length_b   6.19231667
_cell_length_c   14.64684404
_cell_angle_alpha   90.00829236
_cell_angle_beta   89.99818643
_cell_angle_gamma   89.91602278
_symmetry_Int_Tables_number   1
_chemical_formula_structural   K3FeO2
_chemical_formula_sum   'K12 Fe4 O8'
_cell_volume   561.63375048
_cell_formula_units_Z   4
loop_
 _symmetry_equiv_pos_site_id
 _symmetry_equiv_pos_as_xyz
  1  'x, y, z'
loop_
 _atom_site_type_symbol
 _atom_site_label
 _atom_site_symmetry_multiplicity
 _atom_site_fract_x
 _atom_site_fract_y
 _atom_site_fract_z
 _atom_site_occupancy
  K  K0  1  0.96870200  0.96870600  0.49996800  1
  K  K1  1  0.53131200  0.46872400  0.75002900  1
  K  K2  1  0.46868500  0.53127200  0.24996700  1
  K  K3  1  0.03136800  0.03136500  0.00002900  1
  K  K4  1  0.51131200  0.01540900  0.12525200  1
  K  K5  1  0.51545400  0.98874000  0.87512900  1
  K  K6  1  0.01130600  0.48452100  0.62479900  1
  K  K7  1  0.48869800  0.98454300  0.62512200  1
  K  K8  1  0.01536500  0.51128300  0.87480300  1
  K  K9  1  0.98454000  0.48869800  0.37481700  1
  K  K10  1  0.48452300  0.01130300  0.37514000  1
  K  K11  1  0.98877900  0.51548300  0.12493300  1
  Fe  Fe0  1  0.00412800  0.99585700  0.74999500  1
  Fe  Fe1  1  0.99584500  0.00410700  0.25002800  1
  Fe  Fe2  1  0.49588300  0.49587900  0.49999900  1
  Fe  Fe3  1  0.50421100  0.50419700  0.99999800  1
  O  O0  1  0.78701700  0.79704400  0.25698000  1
  O  O1  1  0.21296900  0.20294400  0.75685100  1
  O  O2  1  0.79705900  0.78702800  0.74300700  1
  O  O3  1  0.29702700  0.71292000  0.00692800  1
  O  O4  1  0.28713200  0.70284000  0.49306400  1
  O  O5  1  0.20292600  0.21296500  0.24315100  1
  O  O6  1  0.70283500  0.28713400  0.50691200  1
  O  O7  1  0.71292600  0.29704000  0.99309900  1
loop_
_geom_bond_atom_site_label_1
_geom_bond_atom_site_label_2
_geom_bond_distance
_geom_bond_site_symmetry_2
K0 O4 2.568885 1_655
K0 O6 2.568898 1_565
K1 O2 2.571602 1_555
K1 O1 2.571804 1_555
K2 O5 2.571526 1_555
K2 O0 2.571816 1_555
K3 O3 2.568155 1_545
K3 O7 2.568224 1_454
K4 O5 2.849138 1_555
K4 O3 2.877379 1_545
K4 O7 2.890307 1_554
K4 O0 2.908598 1_545
K5 O7 2.851584 1_565
K5 O1 2.874487 1_565
K5 O2 2.887661 1_555
K5 O3 2.912177 1_556
K6 O6 2.851411 1_455
K6 O2 2.873736 1_455
K6 O1 2.887089 1_555
K6 O4 2.911227 1_555
K7 O2 2.849090 1_555
K7 O6 2.876638 1_565
K7 O4 2.889231 1_555
K7 O1 2.908466 1_565
K8 O1 2.849489 1_555
K8 O7 2.877033 1_455
K8 O3 2.889987 1_556
K8 O2 2.909258 1_455
K9 O0 2.848664 1_555
K9 O4 2.876770 1_655
K9 O6 2.889826 1_555
K9 O5 2.907796 1_655
K10 O4 2.851925 1_545
K10 O0 2.873336 1_545
K10 O5 2.886509 1_555
K10 O6 2.911352 1_555
K11 O3 2.851807 1_655
K11 O5 2.873961 1_655
K11 O0 2.886853 1_555
K11 O7 2.912456 1_554
Fe0 O2 1.825284 1_455
Fe0 O1 1.825308 1_565
Fe1 O0 1.825240 1_545
Fe1 O5 1.825390 1_655
Fe2 O6 1.821701 1_555
Fe2 O4 1.821785 1_555
Fe3 O7 1.822425 1_555
Fe3 O3 1.822603 1_556
