# generated using pymatgen
data_Ca5CdPdO8
_symmetry_space_group_name_H-M   'P 1'
_cell_length_a   6.66710454
_cell_length_b   6.66710487
_cell_length_c   6.66787121
_cell_angle_alpha   59.99620251
_cell_angle_beta   59.99620084
_cell_angle_gamma   60.19463013
_symmetry_Int_Tables_number   1
_chemical_formula_structural   Ca5CdPdO8
_chemical_formula_sum   'Ca5 Cd1 Pd1 O8'
_cell_volume   209.87296018
_cell_formula_units_Z   1
loop_
 _symmetry_equiv_pos_site_id
 _symmetry_equiv_pos_as_xyz
  1  'x, y, z'
loop_
 _atom_site_type_symbol
 _atom_site_label
 _atom_site_symmetry_multiplicity
 _atom_site_fract_x
 _atom_site_fract_y
 _atom_site_fract_z
 _atom_site_occupancy
  Ca  Ca0  1  0.50000000  0.00000000  0.00000000  1
  Ca  Ca1  1  0.50000000  0.00000000  0.50000000  1
  Ca  Ca2  1  0.00000000  0.00000000  0.50000000  1
  Ca  Ca3  1  0.00000000  0.50000000  0.00000000  1
  Ca  Ca4  1  0.00000000  0.50000000  0.50000000  1
  Cd  Cd0  1  0.50000000  0.50000000  0.00000000  1
  Pd  Pd0  1  0.00000000  0.00000000  0.00000000  1
  O  O0  1  0.78149043  0.21850957  0.21771265  1
  O  O1  1  0.24664100  0.24664100  0.25335900  1
  O  O2  1  0.21850957  0.78149043  0.21771265  1
  O  O3  1  0.22009636  0.22009636  0.77990364  1
  O  O4  1  0.78149043  0.21850957  0.78228735  1
  O  O5  1  0.77990364  0.77990364  0.22009636  1
  O  O6  1  0.75335900  0.75335900  0.74664100  1
  O  O7  1  0.21850957  0.78149043  0.78228735  1
loop_
_geom_bond_atom_site_label_1
_geom_bond_atom_site_label_2
_geom_bond_distance
_geom_bond_site_symmetry_2
Ca0 O1 2.360993 1_555
Ca0 O6 2.360993 1_544
Ca0 O4 2.372756 1_554
Ca0 O2 2.372756 1_545
Ca0 O5 2.377507 1_545
Ca0 O3 2.377507 1_554
Ca1 O6 2.360993 1_545
Ca1 O1 2.360993 1_555
Ca1 O0 2.372757 1_555
Ca1 O7 2.372757 1_545
Ca1 O3 2.377507 1_555
Ca1 O5 2.377507 1_545
Ca2 O1 2.321946 1_555
Ca2 O6 2.321946 1_445
Ca2 O7 2.382798 1_545
Ca2 O4 2.382798 1_455
Ca2 O0 2.382798 1_455
Ca2 O2 2.382798 1_545
Ca3 O1 2.360993 1_555
Ca3 O6 2.360993 1_454
Ca3 O7 2.372756 1_554
Ca3 O0 2.372756 1_455
Ca3 O5 2.377507 1_455
Ca3 O3 2.377507 1_554
Ca4 O6 2.360993 1_455
Ca4 O1 2.360993 1_555
Ca4 O2 2.372757 1_555
Ca4 O4 2.372757 1_455
Ca4 O3 2.377507 1_555
Ca4 O5 2.377507 1_455
Cd0 O0 2.377019 1_555
Cd0 O2 2.377019 1_555
Cd0 O7 2.377019 1_554
Cd0 O4 2.377019 1_554
Cd0 O6 2.385191 1_554
Cd0 O1 2.385191 1_555
O0 Pd0 2.059664 1_655
O2 Pd0 2.059664 1_565
O3 Pd0 2.072048 1_556
O4 Pd0 2.059664 1_656
O5 Pd0 2.072048 1_665
O7 Pd0 2.059664 1_566
