# generated using pymatgen
data_LiCr4GaSe8
_symmetry_space_group_name_H-M   'P 1'
_cell_length_a   7.47660958
_cell_length_b   7.47661005
_cell_length_c   7.47661038
_cell_angle_alpha   60.00000286
_cell_angle_beta   60.00000079
_cell_angle_gamma   60.00000511
_symmetry_Int_Tables_number   1
_chemical_formula_structural   LiCr4GaSe8
_chemical_formula_sum   'Li1 Cr4 Ga1 Se8'
_cell_volume   295.52839353
_cell_formula_units_Z   1
loop_
 _symmetry_equiv_pos_site_id
 _symmetry_equiv_pos_as_xyz
  1  'x, y, z'
loop_
 _atom_site_type_symbol
 _atom_site_label
 _atom_site_symmetry_multiplicity
 _atom_site_fract_x
 _atom_site_fract_y
 _atom_site_fract_z
 _atom_site_occupancy
  Li  Li0  1  0.00000000  0.00000000  0.00000000  1
  Cr  Cr0  1  0.37052946  0.37052946  0.37052946  1
  Cr  Cr1  1  0.37052946  0.37052946  0.88841063  1
  Cr  Cr2  1  0.37052946  0.88841063  0.37052946  1
  Cr  Cr3  1  0.88841063  0.37052946  0.37052946  1
  Ga  Ga0  1  0.75000000  0.75000000  0.75000000  1
  Se  Se0  1  0.13541370  0.13541370  0.13541370  1
  Se  Se1  1  0.13541370  0.13541370  0.59375891  1
  Se  Se2  1  0.13541370  0.59375891  0.13541370  1
  Se  Se3  1  0.59375891  0.13541370  0.13541370  1
  Se  Se4  1  0.61601536  0.61601536  0.61601536  1
  Se  Se5  1  0.61601536  0.61601536  0.15195393  1
  Se  Se6  1  0.61601536  0.15195393  0.61601536  1
  Se  Se7  1  0.15195393  0.61601536  0.61601536  1
loop_
_geom_bond_atom_site_label_1
_geom_bond_atom_site_label_2
_geom_bond_distance
_geom_bond_site_symmetry_2
Li0 Se0 2.479950 1_555
Li0 Se3 2.479950 1_455
Li0 Se2 2.479950 1_545
Li0 Se1 2.479950 1_554
Cr0 Se1 2.487590 1_555
Cr0 Se2 2.487590 1_555
Cr0 Se3 2.487590 1_555
Cr0 Se5 2.603437 1_555
Cr0 Se6 2.603437 1_555
Cr0 Se7 2.603437 1_555
Cr1 Se0 2.487590 1_556
Cr1 Se2 2.487595 1_556
Cr1 Se3 2.487595 1_556
Cr1 Se6 2.603432 1_555
Cr1 Se7 2.603432 1_555
Cr1 Se4 2.603436 1_555
Cr2 Se0 2.487590 1_565
Cr2 Se3 2.487595 1_565
Cr2 Se1 2.487595 1_565
Cr2 Se7 2.603431 1_555
Cr2 Se5 2.603432 1_555
Cr2 Se4 2.603437 1_555
Cr3 Se0 2.487590 1_655
Cr3 Se2 2.487595 1_655
Cr3 Se1 2.487595 1_655
Cr3 Se6 2.603431 1_555
Cr3 Se5 2.603432 1_555
Cr3 Se4 2.603437 1_555
Ga0 Se4 2.453779 1_555
Ga0 Se7 2.453779 1_655
Ga0 Se6 2.453779 1_565
Ga0 Se5 2.453779 1_556
