# generated using pymatgen
data_Ta15Nb(Ni2N)4
_symmetry_space_group_name_H-M   'P 1'
_cell_length_a   8.16865887
_cell_length_b   8.16865862
_cell_length_c   8.16346865
_cell_angle_alpha   60.02101108
_cell_angle_beta   60.02101208
_cell_angle_gamma   60.12374860
_symmetry_Int_Tables_number   1
_chemical_formula_structural   Ta15Nb(Ni2N)4
_chemical_formula_sum   'Ta15 Nb1 Ni8 N4'
_cell_volume   385.65935498
_cell_formula_units_Z   1
loop_
 _symmetry_equiv_pos_site_id
 _symmetry_equiv_pos_as_xyz
  1  'x, y, z'
loop_
 _atom_site_type_symbol
 _atom_site_label
 _atom_site_symmetry_multiplicity
 _atom_site_fract_x
 _atom_site_fract_y
 _atom_site_fract_z
 _atom_site_occupancy
  Ta  Ta0  1  0.12506758  0.62421508  0.62535867  1
  Ta  Ta1  1  0.62421508  0.12506758  0.62535867  1
  Ta  Ta2  1  0.62505504  0.62505504  0.12515891  1
  Ta  Ta3  1  0.62505504  0.62505504  0.62473001  1
  Ta  Ta4  1  0.18325451  0.18325451  0.81674549  1
  Ta  Ta5  1  0.81576502  0.18377288  0.81630750  1
  Ta  Ta6  1  0.18377288  0.81576502  0.18415361  1
  Ta  Ta7  1  0.18377288  0.81576502  0.81630750  1
  Ta  Ta8  1  0.81576502  0.18377288  0.18415361  1
  Ta  Ta9  1  0.43517042  0.43517042  0.06482958  1
  Ta  Ta10  1  0.06630574  0.06630574  0.43369426  1
  Ta  Ta11  1  0.43382126  0.06657516  0.43327256  1
  Ta  Ta12  1  0.06657516  0.43382126  0.06633102  1
  Ta  Ta13  1  0.06657516  0.43382126  0.43327256  1
  Ta  Ta14  1  0.43382126  0.06657516  0.06633102  1
  Nb  Nb0  1  0.81587956  0.81587956  0.18412044  1
  Ni  Ni0  1  0.74058301  0.41848484  0.42046658  1
  Ni  Ni1  1  0.41848484  0.74058301  0.42046658  1
  Ni  Ni2  1  0.41975703  0.41975703  0.74045685  1
  Ni  Ni3  1  0.41975703  0.41975703  0.42002909  1
  Ni  Ni4  1  0.50931759  0.83013256  0.83027443  1
  Ni  Ni5  1  0.83013256  0.50931759  0.83027443  1
  Ni  Ni6  1  0.83046827  0.83046827  0.51115080  1
  Ni  Ni7  1  0.83046827  0.83046827  0.82791366  1
  N  N0  1  0.62297188  0.12808747  0.12447032  1
  N  N1  1  0.12808747  0.62297188  0.12447032  1
  N  N2  1  0.12505022  0.12505022  0.62487267  1
  N  N3  1  0.12505022  0.12505022  0.12502688  1
loop_
_geom_bond_atom_site_label_1
_geom_bond_atom_site_label_2
_geom_bond_distance
_geom_bond_site_symmetry_2
Nb0 Ni7 2.793870 1_554
Nb0 Ni6 2.793878 1_555
Nb0 Ni0 3.030278 1_555
Nb0 Ni1 3.030278 1_555
Ni0 Ta1 2.473959 1_555
Ni0 Ta3 2.484215 1_555
Ni0 Ta2 2.484228 1_555
Ni0 Ni2 2.617335 1_555
Ni0 Ni3 2.617340 1_555
Ni0 Ni1 2.636030 1_555
Ni0 Ta10 2.778152 1_655
Ni0 Ta13 2.782339 1_655
Ni0 Ta12 2.782344 1_655
Ni0 Ta5 3.018921 1_555
Ni0 Ta8 3.018935 1_555
Ni1 Ta0 2.473959 1_555
Ni1 Ta3 2.484215 1_555
Ni1 Ta2 2.484228 1_555
Ni1 Ni2 2.617335 1_555
Ni1 Ni3 2.617340 1_555
Ni1 Ta10 2.778152 1_565
Ni1 Ta11 2.782339 1_565
Ni1 Ta14 2.782343 1_565
Ni1 Ta7 3.018921 1_555
Ni1 Ta6 3.018935 1_555
Ni2 Ta3 2.480410 1_555
Ni2 Ta1 2.480663 1_555
Ni2 Ta0 2.480663 1_555
Ni2 Ni3 2.615802 1_555
Ni2 Ta14 2.778261 1_556
Ni2 Ta12 2.778261 1_556
Ni2 Ta9 2.779535 1_556
Ni2 Ta7 3.026569 1_555
Ni2 Ta5 3.026569 1_555
Ni2 Ta4 3.027526 1_555
Ni3 Ta2 2.480413 1_555
Ni3 Ta1 2.480663 1_555
Ni3 Ta0 2.480663 1_555
Ni3 Ta11 2.778261 1_555
Ni3 Ta13 2.778261 1_555
Ni3 Ta9 2.779535 1_555
Ni3 Ta6 3.026572 1_555
Ni3 Ta8 3.026572 1_555
Ni3 Ta4 3.027526 1_555
Ni4 Ta1 2.477828 1_565
Ni4 Ta2 2.482258 1_556
Ni4 Ta3 2.482258 1_555
Ni4 Ni6 2.615148 1_555
Ni4 Ni7 2.615156 1_555
Ni4 Ni5 2.625528 1_555
Ni4 Ta6 2.779528 1_556
Ni4 Ta7 2.779528 1_555
Ni4 Ta4 2.783588 1_565
Ni4 Ta9 3.009378 1_556
Ni4 Ta11 3.028100 1_565
Ni4 Ta14 3.028107 1_566
Ni5 Ta0 2.477828 1_655
Ni5 Ta2 2.482258 1_556
Ni5 Ta3 2.482258 1_555
Ni5 Ni6 2.615147 1_555
Ni5 Ni7 2.615156 1_555
Ni5 Ta8 2.779528 1_556
Ni5 Ta5 2.779528 1_555
Ni5 Ta4 2.783588 1_655
Ni5 Ta9 3.009379 1_556
Ni5 Ta13 3.028100 1_655
Ni5 Ta12 3.028107 1_656
Ni6 Ta1 2.476308 1_565
Ni6 Ta0 2.476308 1_655
Ni6 Ta3 2.487187 1_555
Ni6 Ni7 2.585884 1_555
Ni6 Ta8 2.783048 1_565
Ni6 Ta6 2.783048 1_655
Ni6 Ta10 3.014155 1_665
Ni6 Ta13 3.038025 1_655
Ni6 Ta11 3.038025 1_565
Ni7 Ta1 2.476313 1_565
Ni7 Ta0 2.476313 1_655
Ni7 Ta2 2.487182 1_556
Ni7 Ta5 2.783041 1_565
Ni7 Ta7 2.783041 1_655
Ni7 Ta10 3.014158 1_665
Ni7 Ta12 3.038022 1_656
Ni7 Ta14 3.038022 1_566
N0 Ta9 2.138911 1_555
N0 Ta11 2.147037 1_555
N0 Ta14 2.147037 1_555
N0 Ta8 2.150924 1_555
N0 Ta5 2.150930 1_554
N0 Nb0 2.178624 1_545
N1 Ta9 2.138911 1_555
N1 Ta13 2.147037 1_555
N1 Ta12 2.147037 1_555
N1 Ta6 2.150924 1_555
N1 Ta7 2.150930 1_554
N1 Nb0 2.178624 1_455
N2 Ta4 2.149246 1_555
N2 Ta10 2.150009 1_555
N2 Ta13 2.154099 1_555
N2 Ta11 2.154099 1_555
N2 Ta7 2.156694 1_545
N2 Ta5 2.156694 1_455
N3 Ta4 2.149246 1_554
N3 Ta10 2.150009 1_555
N3 Ta12 2.154099 1_555
N3 Ta14 2.154099 1_555
N3 Ta6 2.156696 1_545
N3 Ta8 2.156697 1_455
