# generated using pymatgen
data_Na4Ta3AlH20
_symmetry_space_group_name_H-M   'P 1'
_cell_length_a   5.36747142
_cell_length_b   6.69779202
_cell_length_c   8.50053287
_cell_angle_alpha   80.16166250
_cell_angle_beta   88.11463796
_cell_angle_gamma   87.51020494
_symmetry_Int_Tables_number   1
_chemical_formula_structural   Na4Ta3AlH20
_chemical_formula_sum   'Na4 Ta3 Al1 H20'
_cell_volume   300.71674165
_cell_formula_units_Z   1
loop_
 _symmetry_equiv_pos_site_id
 _symmetry_equiv_pos_as_xyz
  1  'x, y, z'
loop_
 _atom_site_type_symbol
 _atom_site_label
 _atom_site_symmetry_multiplicity
 _atom_site_fract_x
 _atom_site_fract_y
 _atom_site_fract_z
 _atom_site_occupancy
  Na  Na0  1  0.20642790  0.36067299  0.23916472  1
  Na  Na1  1  0.77551175  0.67971467  0.94098334  1
  Na  Na2  1  0.81813292  0.87609903  0.36088055  1
  Na  Na3  1  0.12841083  0.99778078  0.67815917  1
  Ta  Ta0  1  0.30733401  0.54882546  0.63293674  1
  Ta  Ta1  1  0.72925272  0.35645940  0.50833506  1
  Ta  Ta2  1  0.57333939  0.22569150  0.83032984  1
  Al  Al0  1  0.31458864  0.94067384  0.08710571  1
  H  H0  1  0.01518934  0.50890604  0.51371647  1
  H  H1  1  0.40131649  0.43034902  0.45020481  1
  H  H2  1  0.39789292  0.98840958  0.87542691  1
  H  H3  1  0.81622251  0.02569986  0.89233417  1
  H  H4  1  0.15934029  0.74214975  0.05775729  1
  H  H5  1  0.46515338  0.49991552  0.83327184  1
  H  H6  1  0.61241409  0.19572381  0.37880599  1
  H  H7  1  0.06153307  0.66310858  0.74821856  1
  H  H8  1  0.57031057  0.83631663  0.16229974  1
  H  H9  1  0.77063783  0.33585674  0.95642982  1
  H  H10  1  0.98358251  0.17980102  0.46385547  1
  H  H11  1  0.62365326  0.62025321  0.54822574  1
  H  H12  1  0.43130519  0.76426873  0.68754988  1
  H  H13  1  0.42722077  0.20190019  0.03487120  1
  H  H14  1  0.86094777  0.31421076  0.71305254  1
  H  H15  1  0.23027575  0.77345013  0.48416131  1
  H  H16  1  0.12797550  0.03851237  0.20890216  1
  H  H17  1  0.61531268  0.11233404  0.63747287  1
  H  H18  1  0.80337624  0.49381496  0.30459636  1
  H  H19  1  0.24134167  0.28910040  0.77094974  1
loop_
_geom_bond_atom_site_label_1
_geom_bond_atom_site_label_2
_geom_bond_distance
_geom_bond_site_symmetry_2
Al0 H8 1.613315 1_555
Al0 H16 1.615925 1_565
Al0 H4 1.657695 1_555
Al0 H2 1.817362 1_554
Al0 H13 1.852734 1_565
H0 Ta1 1.885964 1_455
H0 Ta0 1.947049 1_555
H1 Ta1 1.866905 1_555
H1 Ta0 1.905741 1_555
H1 Na0 2.232104 1_555
H2 Ta2 1.859463 1_565
H2 Na3 2.241382 1_555
H3 Ta2 1.850362 1_555
H3 Na1 2.302036 1_545
H3 Na3 2.458818 1_645
H4 Na1 2.399136 1_454
H5 Ta0 1.898710 1_555
H5 Ta2 1.906134 1_555
H5 Na1 2.390618 1_555
H6 Ta1 1.809373 1_555
H6 Na2 2.391741 1_545
H6 Na0 2.625078 1_555
H7 Ta0 1.835859 1_555
H7 Na1 2.221753 1_455
H7 Na3 2.260040 1_555
H8 Na2 2.241007 1_555
H8 Na1 2.508031 1_554
H9 Ta2 1.796605 1_555
H9 Na1 2.285565 1_555
H10 Ta1 1.839858 1_555
H10 Na3 2.158942 1_645
H10 Na0 2.393992 1_655
H10 Na2 2.551298 1_545
H11 Ta0 1.871481 1_555
H11 Ta1 1.913908 1_555
H11 Na2 2.382370 1_555
H12 Ta0 1.753056 1_555
H12 Na3 2.200141 1_555
H13 Ta2 1.868171 1_554
H13 Na0 2.436662 1_555
H14 Ta1 1.871721 1_555
H14 Ta2 1.872093 1_555
H14 Na3 2.561868 1_645
H15 Ta0 1.834145 1_555
H15 Na3 2.447864 1_555
H15 Na2 2.497748 1_455
H16 Na2 2.270174 1_445
H16 Na0 2.274908 1_555
H17 Ta1 1.918834 1_555
H17 Ta2 1.923797 1_555
H18 Ta1 1.856356 1_555
H18 Na0 2.389031 1_655
H19 Ta2 1.879045 1_555
H19 Ta0 1.963858 1_555
H19 Na3 2.336005 1_545
