# generated using pymatgen
data_BaTcNiP2
_symmetry_space_group_name_H-M   'P 1'
_cell_length_a   7.00918276
_cell_length_b   7.00918275
_cell_length_c   7.00918304
_cell_angle_alpha   147.86421667
_cell_angle_beta   147.86421818
_cell_angle_gamma   46.08584649
_symmetry_Int_Tables_number   1
_chemical_formula_structural   BaTcNiP2
_chemical_formula_sum   'Ba1 Tc1 Ni1 P2'
_cell_volume   97.09736353
_cell_formula_units_Z   1
loop_
 _symmetry_equiv_pos_site_id
 _symmetry_equiv_pos_as_xyz
  1  'x, y, z'
loop_
 _atom_site_type_symbol
 _atom_site_label
 _atom_site_symmetry_multiplicity
 _atom_site_fract_x
 _atom_site_fract_y
 _atom_site_fract_z
 _atom_site_occupancy
  Ba  Ba0  1  0.00000000  0.00000000  0.00000000  1
  Tc  Tc0  1  0.75000000  0.25000000  0.50000000  1
  Ni  Ni0  1  0.25000000  0.75000000  0.50000000  1
  P  P0  1  0.65457570  0.65457570  0.00000000  1
  P  P1  1  0.34542430  0.34542430  1.00000000  1
loop_
_geom_bond_atom_site_label_1
_geom_bond_atom_site_label_2
_geom_bond_distance
_geom_bond_site_symmetry_2
Ba0 P0 3.391617 1_455
Ba0 P1 3.391617 1_544
Ba0 P0 3.391617 1_545
Ba0 P1 3.391617 1_454
Ba0 P0 3.391617 1_556
Ba0 P1 3.391617 1_443
Ba0 P0 3.391617 1_444
Ba0 P1 3.391617 1_555
Ni0 P0 2.297557 1_455
Ni0 P0 2.297557 1_556
Ni0 P1 2.297557 1_565
Ni0 P1 2.297557 1_554
P0 Tc0 2.297557 1_565
P0 Tc0 2.297557 1_554
P1 Tc0 2.297557 1_455
P1 Tc0 2.297557 1_556
