# generated using pymatgen
data_Cs20Si3GeAs12
_symmetry_space_group_name_H-M   'P 1'
_cell_length_a   6.08205472
_cell_length_b   14.60191993
_cell_length_c   16.11160438
_cell_angle_alpha   89.93685184
_cell_angle_beta   90.00000000
_cell_angle_gamma   90.00000000
_symmetry_Int_Tables_number   1
_chemical_formula_structural   Cs20Si3GeAs12
_chemical_formula_sum   'Cs20 Si3 Ge1 As12'
_cell_volume   1430.86549548
_cell_formula_units_Z   1
loop_
 _symmetry_equiv_pos_site_id
 _symmetry_equiv_pos_as_xyz
  1  'x, y, z'
loop_
 _atom_site_type_symbol
 _atom_site_label
 _atom_site_symmetry_multiplicity
 _atom_site_fract_x
 _atom_site_fract_y
 _atom_site_fract_z
 _atom_site_occupancy
  Cs  Cs0  1  0.75000000  0.64617454  0.95122242  1
  Cs  Cs1  1  0.25000000  0.77410999  0.70656958  1
  Cs  Cs2  1  0.75000000  0.93664071  0.04611756  1
  Cs  Cs3  1  0.75000000  0.95351593  0.34761083  1
  Cs  Cs4  1  0.25000000  0.35424392  0.04783446  1
  Cs  Cs5  1  0.25000000  0.85465834  0.45177188  1
  Cs  Cs6  1  0.75000000  0.14623564  0.54655107  1
  Cs  Cs7  1  0.75000000  0.43579033  0.45434441  1
  Cs  Cs8  1  0.25000000  0.04843178  0.65125320  1
  Cs  Cs9  1  0.25000000  0.27417002  0.79521437  1
  Cs  Cs10  1  0.75000000  0.37664361  0.68735042  1
  Cs  Cs11  1  0.25000000  0.56246516  0.54659510  1
  Cs  Cs12  1  0.75000000  0.22670593  0.29415696  1
  Cs  Cs13  1  0.75000000  0.72550041  0.20399926  1
  Cs  Cs14  1  0.75000000  0.45382316  0.15022922  1
  Cs  Cs15  1  0.25000000  0.06367926  0.95452987  1
  Cs  Cs16  1  0.25000000  0.61976534  0.31210546  1
  Cs  Cs17  1  0.75000000  0.88059481  0.81329909  1
  Cs  Cs18  1  0.25000000  0.54662295  0.84862835  1
  Cs  Cs19  1  0.25000000  0.12069485  0.18722899  1
  Si  Si0  1  0.75000000  0.23927050  0.93527906  1
  Si  Si1  1  0.25000000  0.26071666  0.43466516  1
  Si  Si2  1  0.25000000  0.76121746  0.06501897  1
  Ge  Ge0  1  0.75000000  0.73837522  0.56607416  1
  As  As0  1  0.75000000  0.39459066  0.91214120  1
  As  As1  1  0.25000000  0.86613041  0.17196663  1
  As  As2  1  0.75000000  0.63032382  0.67697364  1
  As  As3  1  0.75000000  0.69208132  0.42544553  1
  As  As4  1  0.75000000  0.89881216  0.58829047  1
  As  As5  1  0.25000000  0.60571184  0.08750794  1
  As  As6  1  0.25000000  0.80677526  0.92873659  1
  As  As7  1  0.25000000  0.30636413  0.57092046  1
  As  As8  1  0.75000000  0.13401258  0.82867939  1
  As  As9  1  0.25000000  0.10536739  0.41193387  1
  As  As10  1  0.25000000  0.36602206  0.32801873  1
  As  As11  1  0.75000000  0.19375984  0.07173770  1
loop_
_geom_bond_atom_site_label_1
_geom_bond_atom_site_label_2
_geom_bond_distance
_geom_bond_site_symmetry_2
As0 Si0 2.298001 1_555
As0 Cs10 3.631497 1_555
As0 Cs0 3.727863 1_555
As0 Cs4 3.791005 1_556
As0 Cs4 3.791005 1_656
As0 Cs18 3.901052 1_655
As0 Cs18 3.901052 1_555
As0 Cs14 3.933208 1_556
As1 Si2 2.306881 1_555
As1 Cs13 3.705212 1_555
As1 Cs13 3.705212 1_455
As1 Cs19 3.725525 1_565
As1 Cs2 3.796654 1_455
As1 Cs2 3.796654 1_555
As2 Ge0 2.382362 1_555
As2 Cs10 3.707805 1_555
As2 Cs1 3.726333 1_555
As2 Cs1 3.726333 1_655
As2 Cs11 3.827114 1_655
As2 Cs11 3.827114 1_555
As3 Ge0 2.365156 1_555
As3 Cs13 3.600538 1_555
As3 Cs16 3.701586 1_655
As3 Cs16 3.701586 1_555
As3 Cs7 3.770684 1_555
As3 Cs5 3.881437 1_555
As3 Cs5 3.881437 1_655
As3 Cs3 4.016836 1_555
As3 Cs11 4.078207 1_555
As3 Cs11 4.078207 1_655
As4 Ge0 2.370264 1_555
As4 Cs17 3.634704 1_555
As4 Cs6 3.674184 1_565
As4 Cs5 3.808490 1_655
As4 Cs5 3.808490 1_555
As4 Cs8 3.880060 1_565
As4 Cs8 3.880060 1_665
As4 Cs3 3.958289 1_555
As4 Cs1 4.023358 1_655
As4 Cs1 4.023358 1_555
As5 Si2 2.299013 1_555
As5 Cs16 3.624666 1_555
As5 Cs4 3.727829 1_555
As5 Cs0 3.796777 1_454
As5 Cs0 3.796777 1_554
As5 Cs14 3.896541 1_455
As5 Cs14 3.896541 1_555
As5 Cs18 3.945189 1_554
As5 Cs13 3.979598 1_455
As5 Cs13 3.979598 1_555
As6 Si2 2.293585 1_556
As6 Cs1 3.611628 1_555
As6 Cs17 3.723503 1_455
As6 Cs17 3.723503 1_555
As6 Cs15 3.774695 1_565
As6 Cs0 3.857022 1_555
As6 Cs0 3.857022 1_455
As6 Cs18 4.013345 1_555
As7 Si1 2.294952 1_555
As7 Cs9 3.643669 1_555
As7 Cs10 3.718079 1_455
As7 Cs10 3.718079 1_555
As7 Cs11 3.759618 1_555
As7 Cs6 3.856311 1_555
As7 Cs6 3.856311 1_455
As7 Cs8 3.981145 1_555
As8 Si0 2.306050 1_555
As8 Cs9 3.704668 1_555
As8 Cs9 3.704668 1_655
As8 Cs17 3.708946 1_545
As8 Cs15 3.795967 1_655
As8 Cs15 3.795967 1_555
As9 Si1 2.298171 1_555
As9 Cs19 3.627021 1_555
As9 Cs5 3.715979 1_545
As9 Cs6 3.782980 1_455
As9 Cs6 3.782980 1_555
As9 Cs3 3.904286 1_545
As9 Cs3 3.904286 1_445
As9 Cs8 3.943532 1_555
As10 Si1 2.304548 1_555
As10 Cs12 3.699492 1_555
As10 Cs12 3.699492 1_455
As10 Cs16 3.713717 1_555
As10 Cs7 3.799047 1_555
As10 Cs7 3.799047 1_455
As11 Si0 2.296105 1_554
As11 Cs12 3.616204 1_555
As11 Cs19 3.720768 1_555
As11 Cs19 3.720768 1_655
As11 Cs2 3.777509 1_545
As11 Cs4 3.858184 1_655
As11 Cs4 3.858184 1_555
As11 Cs14 4.003784 1_555
