# generated using pymatgen
data_Cs2Tc2OF10
_symmetry_space_group_name_H-M   'P 1'
_cell_length_a   5.10435543
_cell_length_b   7.45992774
_cell_length_c   13.92764524
_cell_angle_alpha   78.30098681
_cell_angle_beta   90.00000000
_cell_angle_gamma   90.00000000
_symmetry_Int_Tables_number   1
_chemical_formula_structural   Cs2Tc2OF10
_chemical_formula_sum   'Cs4 Tc4 O2 F20'
_cell_volume   519.32149120
_cell_formula_units_Z   2
loop_
 _symmetry_equiv_pos_site_id
 _symmetry_equiv_pos_as_xyz
  1  'x, y, z'
loop_
 _atom_site_type_symbol
 _atom_site_label
 _atom_site_symmetry_multiplicity
 _atom_site_fract_x
 _atom_site_fract_y
 _atom_site_fract_z
 _atom_site_occupancy
  Cs  Cs0  1  0.38871534  0.23728676  0.58945160  1
  Cs  Cs1  1  0.61128466  0.23728676  0.08945160  1
  Cs  Cs2  1  0.61128466  0.76271324  0.41054840  1
  Cs  Cs3  1  0.38871534  0.76271324  0.91054840  1
  Tc  Tc0  1  0.01668079  0.28912358  0.33391448  1
  Tc  Tc1  1  0.98331921  0.28912358  0.83391448  1
  Tc  Tc2  1  0.01668079  0.71087642  0.16608552  1
  Tc  Tc3  1  0.98331921  0.71087642  0.66608552  1
  O  O0  1  0.07931563  0.50000000  0.75000000  1
  O  O1  1  0.92068437  0.50000000  0.25000000  1
  F  F0  1  0.71032480  0.84367285  0.18363740  1
  F  F1  1  0.67004247  0.59221570  0.63811574  1
  F  F2  1  0.16294399  0.79404674  0.27437416  1
  F  F3  1  0.84549233  0.07745165  0.91511416  1
  F  F4  1  0.32995753  0.40778430  0.36188426  1
  F  F5  1  0.15450767  0.92254835  0.08488584  1
  F  F6  1  0.16294399  0.20595326  0.22562584  1
  F  F7  1  0.28967520  0.84367285  0.68363740  1
  F  F8  1  0.83705601  0.20595326  0.72562584  1
  F  F9  1  0.67004247  0.40778430  0.86188426  1
  F  F10  1  0.15450767  0.07745165  0.41511416  1
  F  F11  1  0.13415050  0.35495538  0.94742088  1
  F  F12  1  0.28967520  0.15632715  0.81636260  1
  F  F13  1  0.86584950  0.64504462  0.05257912  1
  F  F14  1  0.83705601  0.79404674  0.77437416  1
  F  F15  1  0.71032480  0.15632715  0.31636260  1
  F  F16  1  0.84549233  0.92254835  0.58488584  1
  F  F17  1  0.86584950  0.35495538  0.44742088  1
  F  F18  1  0.32995753  0.59221570  0.13811574  1
  F  F19  1  0.13415050  0.64504462  0.55257912  1
loop_
_geom_bond_atom_site_label_1
_geom_bond_atom_site_label_2
_geom_bond_distance
_geom_bond_site_symmetry_2
Cs0 F8 2.951115 1_555
Cs0 F7 3.006046 1_545
Cs0 F12 3.135920 1_555
Cs0 F17 3.148160 1_555
Cs0 F10 3.149717 1_555
Cs0 F4 3.180947 1_555
Cs0 F1 3.203090 1_555
Cs0 F19 3.251377 1_555
Cs0 F16 3.318657 1_545
Cs0 F17 3.332030 1_455
Cs0 F8 3.376535 1_455
Cs1 F6 2.951115 1_555
Cs1 F0 3.006046 1_545
Cs1 F15 3.135920 1_555
Cs1 F11 3.148160 1_554
Cs1 F3 3.149717 1_554
Cs1 F9 3.180947 1_554
Cs1 F18 3.203090 1_555
Cs1 F13 3.251377 1_555
Cs1 F5 3.318657 1_545
Cs1 F11 3.332030 1_654
Cs1 F6 3.376535 1_655
Cs2 F2 2.951115 1_555
Cs2 F15 3.006046 1_565
Cs2 F0 3.135920 1_555
Cs2 F19 3.148160 1_555
Cs2 F16 3.149717 1_555
Cs2 F1 3.180947 1_555
Cs2 F4 3.203090 1_555
Cs2 F17 3.251377 1_555
Cs2 F10 3.318657 1_565
Cs2 F19 3.332030 1_655
Cs2 F2 3.376535 1_655
Cs3 F14 2.951115 1_555
Cs3 F12 3.006046 1_565
Cs3 F7 3.135920 1_555
Cs3 F13 3.148160 1_556
Cs3 F5 3.149717 1_556
Cs3 F18 3.180947 1_556
Cs3 F9 3.203090 1_555
Cs3 F11 3.251377 1_555
Cs3 F3 3.318657 1_565
Cs3 F13 3.332030 1_456
Cs3 F14 3.376535 1_455
O0 Tc1 1.826236 1_455
O0 Tc3 1.826236 1_455
O1 Tc0 1.826236 1_655
O1 Tc2 1.826236 1_655
F0 Tc2 1.893323 1_655
F1 Tc3 1.905838 1_555
F2 Tc2 1.896445 1_555
F3 Tc1 1.882320 1_555
F4 Tc0 1.905838 1_555
F5 Tc2 1.882320 1_555
F6 Tc0 1.896445 1_555
F7 Tc3 1.893323 1_455
F8 Tc1 1.896445 1_555
F9 Tc1 1.905838 1_555
F10 Tc0 1.882320 1_555
F11 Tc1 1.909959 1_455
F12 Tc1 1.893323 1_455
F13 Tc2 1.909959 1_655
F14 Tc3 1.896445 1_555
F15 Tc0 1.893323 1_655
F16 Tc3 1.882320 1_555
F17 Tc0 1.909959 1_655
F18 Tc2 1.905838 1_555
F19 Tc3 1.909959 1_455
