# generated using pymatgen
data_Ti6GaSiC2
_symmetry_space_group_name_H-M   'P 1'
_cell_length_a   5.51313845
_cell_length_b   5.51313880
_cell_length_c   8.32365769
_cell_angle_alpha   90.00000000
_cell_angle_beta   90.00000000
_cell_angle_gamma   146.94159732
_symmetry_Int_Tables_number   1
_chemical_formula_structural   Ti6GaSiC2
_chemical_formula_sum   'Ti6 Ga1 Si1 C2'
_cell_volume   138.00719104
_cell_formula_units_Z   1
loop_
 _symmetry_equiv_pos_site_id
 _symmetry_equiv_pos_as_xyz
  1  'x, y, z'
loop_
 _atom_site_type_symbol
 _atom_site_label
 _atom_site_symmetry_multiplicity
 _atom_site_fract_x
 _atom_site_fract_y
 _atom_site_fract_z
 _atom_site_occupancy
  Ti  Ti0  1  0.87148926  0.12850774  0.03770405  1
  Ti  Ti1  1  0.54071399  0.45928301  0.25000000  1
  Ti  Ti2  1  0.87148926  0.12850774  0.46229595  1
  Ti  Ti3  1  0.13038340  0.86961360  0.54741884  1
  Ti  Ti4  1  0.45199965  0.54799735  0.75000000  1
  Ti  Ti5  1  0.13038340  0.86961360  0.95258116  1
  Ga  Ga0  1  0.25007359  0.74992441  0.25000000  1
  Si  Si0  1  0.75105069  0.24894731  0.75000000  1
  C  C0  1  0.50120239  0.49879561  0.99912822  1
  C  C1  1  0.50120239  0.49879561  0.50087178  1
loop_
_geom_bond_atom_site_label_1
_geom_bond_atom_site_label_2
_geom_bond_distance
_geom_bond_site_symmetry_2
Ga0 Ti2 2.688868 1_565
Ga0 Ti0 2.688868 1_565
Ga0 Ti2 2.688870 1_455
Ga0 Ti0 2.688870 1_455
Ga0 Ti1 2.712532 1_565
Ga0 Ti1 2.712533 1_455
Ga0 Ti3 2.780175 1_555
Ga0 Ti5 2.780175 1_554
Ga0 Ti1 3.072253 1_555
Si0 Ti5 2.632584 1_655
Si0 Ti3 2.632584 1_655
Si0 Ti5 2.632586 1_545
Si0 Ti3 2.632586 1_545
Si0 Ti4 2.640506 1_655
Si0 Ti4 2.640508 1_545
Si0 Ti0 2.712130 1_556
Si0 Ti2 2.712130 1_555
C0 Ti0 2.107925 1_566
C0 Ti0 2.107928 1_456
C0 Ti5 2.115419 1_655
C0 Ti5 2.115421 1_545
C0 Ti1 2.129531 1_556
C0 Ti4 2.137887 1_555
C1 Ti2 2.107925 1_565
C1 Ti2 2.107928 1_455
C1 Ti3 2.115419 1_655
C1 Ti3 2.115421 1_545
C1 Ti1 2.129531 1_555
C1 Ti4 2.137887 1_555
