# generated using pymatgen
data_Zr7Ta(Rh2N)2
_symmetry_space_group_name_H-M   'P 1'
_cell_length_a   8.72066727
_cell_length_b   8.66665208
_cell_length_c   8.72066705
_cell_angle_alpha   60.20468629
_cell_angle_beta   60.38257088
_cell_angle_gamma   60.20468475
_symmetry_Int_Tables_number   1
_chemical_formula_structural   Zr7Ta(Rh2N)2
_chemical_formula_sum   'Zr14 Ta2 Rh8 N4'
_cell_volume   468.83521958
_cell_formula_units_Z   2
loop_
 _symmetry_equiv_pos_site_id
 _symmetry_equiv_pos_as_xyz
  1  'x, y, z'
loop_
 _atom_site_type_symbol
 _atom_site_label
 _atom_site_symmetry_multiplicity
 _atom_site_fract_x
 _atom_site_fract_y
 _atom_site_fract_z
 _atom_site_occupancy
  Zr  Zr0  1  0.62500000  0.12500000  0.62500000  1
  Zr  Zr1  1  0.62500000  0.62500000  0.62500000  1
  Zr  Zr2  1  0.81556204  0.81527667  0.18361310  1
  Zr  Zr3  1  0.18361310  0.18554718  0.81556204  1
  Zr  Zr4  1  0.81750913  0.18249087  0.81750913  1
  Zr  Zr5  1  0.18618185  0.81381815  0.18618185  1
  Zr  Zr6  1  0.18361310  0.81527667  0.81556204  1
  Zr  Zr7  1  0.81556204  0.18554718  0.18361310  1
  Zr  Zr8  1  0.43443796  0.43472333  0.06638690  1
  Zr  Zr9  1  0.06638690  0.06445282  0.43443796  1
  Zr  Zr10  1  0.43249087  0.06750913  0.43249087  1
  Zr  Zr11  1  0.06381815  0.43618185  0.06381815  1
  Zr  Zr12  1  0.06638690  0.43472333  0.43443796  1
  Zr  Zr13  1  0.43443796  0.06445282  0.06638690  1
  Ta  Ta0  1  0.12500000  0.62500000  0.62500000  1
  Ta  Ta1  1  0.62500000  0.62500000  0.12500000  1
  Rh  Rh0  1  0.76926381  0.41487600  0.40098318  1
  Rh  Rh1  1  0.40900810  0.76081786  0.40900810  1
  Rh  Rh2  1  0.40098318  0.41487600  0.76926381  1
  Rh  Rh3  1  0.40900810  0.42116494  0.40900810  1
  Rh  Rh4  1  0.48073619  0.83512400  0.84901682  1
  Rh  Rh5  1  0.84099190  0.48918214  0.84099190  1
  Rh  Rh6  1  0.84901682  0.83512400  0.48073619  1
  Rh  Rh7  1  0.84099190  0.82883506  0.84099190  1
  N  N0  1  0.62500000  0.12500000  0.12500000  1
  N  N1  1  0.12500000  0.62500000  0.12500000  1
  N  N2  1  0.12500000  0.12500000  0.62500000  1
  N  N3  1  0.12500000  0.12500000  0.12500000  1
loop_
_geom_bond_atom_site_label_1
_geom_bond_atom_site_label_2
_geom_bond_distance
_geom_bond_site_symmetry_2
Rh0 Ta1 2.655514 1_555
Rh0 Zr0 2.746802 1_555
Rh0 Zr1 2.746809 1_555
Rh0 Zr11 2.782857 1_655
Rh0 Zr9 2.840512 1_655
Rh0 Zr12 2.840522 1_655
Rh1 Ta1 2.674031 1_555
Rh1 Ta0 2.674031 1_555
Rh1 Zr1 2.753426 1_555
Rh1 Zr9 2.830643 1_565
Rh1 Zr13 2.830643 1_565
Rh1 Zr10 2.876127 1_565
Rh2 Ta0 2.655514 1_555
Rh2 Zr0 2.746802 1_555
Rh2 Zr1 2.746809 1_555
Rh2 Zr11 2.782857 1_556
Rh2 Zr13 2.840512 1_556
Rh2 Zr8 2.840522 1_556
Rh3 Ta0 2.674036 1_555
Rh3 Ta1 2.674036 1_555
Rh3 Zr0 2.753424 1_555
Rh3 Zr8 2.830635 1_555
Rh3 Zr12 2.830635 1_555
Rh3 Zr10 2.876119 1_555
Rh4 Ta1 2.655514 1_556
Rh4 Zr0 2.746802 1_565
Rh4 Zr1 2.746809 1_555
Rh4 Zr5 2.782857 1_556
Rh4 Zr3 2.840512 1_565
Rh4 Zr6 2.840522 1_555
Rh5 Ta1 2.674031 1_556
Rh5 Ta0 2.674031 1_655
Rh5 Zr1 2.753426 1_555
Rh5 Zr3 2.830643 1_655
Rh5 Zr7 2.830643 1_556
Rh5 Zr4 2.876127 1_555
Rh6 Ta0 2.655514 1_655
Rh6 Zr0 2.746802 1_565
Rh6 Zr1 2.746809 1_555
Rh6 Zr5 2.782857 1_655
Rh6 Zr7 2.840512 1_565
Rh6 Zr2 2.840522 1_555
Rh7 Ta0 2.674036 1_655
Rh7 Ta1 2.674036 1_556
Rh7 Zr0 2.753424 1_565
Rh7 Zr2 2.830635 1_556
Rh7 Zr6 2.830635 1_655
Rh7 Zr4 2.876119 1_565
N0 Zr7 2.295882 1_555
N0 Zr13 2.295882 1_555
N0 Zr2 2.295888 1_545
N0 Zr8 2.295888 1_555
N0 Zr10 2.304586 1_555
N0 Zr4 2.304586 1_554
N1 Zr5 2.294339 1_555
N1 Zr11 2.294339 1_555
N1 Zr8 2.305322 1_555
N1 Zr2 2.305322 1_455
N1 Zr12 2.305322 1_555
N1 Zr6 2.305322 1_554
N2 Zr3 2.295882 1_555
N2 Zr9 2.295882 1_555
N2 Zr12 2.295888 1_555
N2 Zr6 2.295888 1_545
N2 Zr10 2.304586 1_555
N2 Zr4 2.304586 1_455
N3 Zr11 2.294339 1_555
N3 Zr5 2.294339 1_545
N3 Zr9 2.305324 1_555
N3 Zr3 2.305324 1_554
N3 Zr13 2.305324 1_555
N3 Zr7 2.305324 1_455
