# generated using pymatgen
data_NaAs12(RuRh)2
_symmetry_space_group_name_H-M   'P 1'
_cell_length_a   7.38114061
_cell_length_b   7.38912845
_cell_length_c   7.38912953
_cell_angle_alpha   109.48060057
_cell_angle_beta   109.48044512
_cell_angle_gamma   109.49645435
_symmetry_Int_Tables_number   1
_chemical_formula_structural   NaAs12(RuRh)2
_chemical_formula_sum   'Na1 As12 Ru2 Rh2'
_cell_volume   310.06510325
_cell_formula_units_Z   1
loop_
 _symmetry_equiv_pos_site_id
 _symmetry_equiv_pos_as_xyz
  1  'x, y, z'
loop_
 _atom_site_type_symbol
 _atom_site_label
 _atom_site_symmetry_multiplicity
 _atom_site_fract_x
 _atom_site_fract_y
 _atom_site_fract_z
 _atom_site_occupancy
  Na  Na0  1  0.00000000  0.00000000  0.00000000  1
  As  As0  1  0.85072257  0.64708809  0.50168394  1
  As  As1  1  0.14927743  0.35291191  0.49831606  1
  As  As2  1  0.14927743  0.65096137  0.79636752  1
  As  As3  1  0.85072257  0.34903863  0.20363248  1
  As  As4  1  0.64743618  0.50189779  0.85106185  1
  As  As5  1  0.35256382  0.49810221  0.14893815  1
  As  As6  1  0.64743618  0.79637533  0.14553839  1
  As  As7  1  0.35256382  0.20362467  0.85446161  1
  As  As8  1  0.50313845  0.85197546  0.65116399  1
  As  As9  1  0.49686155  0.14802454  0.34883601  1
  As  As10  1  0.20578044  0.85335197  0.35242947  1
  As  As11  1  0.79421956  0.14664803  0.64757053  1
  Ru  Ru0  1  0.50000000  0.50000000  0.50000000  1
  Ru  Ru1  1  0.50000000  0.00000000  0.00000000  1
  Rh  Rh0  1  0.00000000  0.50000000  0.00000000  1
  Rh  Rh1  1  0.00000000  0.00000000  0.50000000  1
loop_
_geom_bond_atom_site_label_1
_geom_bond_atom_site_label_2
_geom_bond_distance
_geom_bond_site_symmetry_2
As0 Ru0 2.444256 1_555
As0 Rh1 2.475327 1_665
As0 As2 2.512819 1_655
As0 As3 2.542741 1_555
As0 Na0 3.247171 1_666
As1 Ru0 2.444256 1_555
As1 Rh1 2.475327 1_555
As1 As3 2.512819 1_455
As1 As2 2.542741 1_555
As1 Na0 3.247171 1_555
As2 Ru1 2.444257 1_566
As2 Rh0 2.475314 1_556
As2 Na0 3.247166 1_566
As3 Ru1 2.444257 1_555
As3 Rh0 2.475314 1_655
As3 Na0 3.247166 1_655
As4 Ru0 2.448725 1_555
As4 Rh0 2.471424 1_656
As4 As6 2.512255 1_556
As4 As7 2.542976 1_555
As4 Na0 3.244167 1_666
As5 Ru0 2.448725 1_555
As5 Rh0 2.471424 1_555
As5 As7 2.512255 1_554
As5 As6 2.542976 1_555
As5 Na0 3.244167 1_555
As6 Ru1 2.448718 1_565
As6 Rh1 2.471425 1_665
As6 Na0 3.244165 1_665
As7 Ru1 2.448718 1_556
As7 Rh1 2.471425 1_555
As7 Na0 3.244165 1_556
As8 Ru1 2.452998 1_566
As8 Ru0 2.453006 1_555
As8 Na0 3.229137 1_666
As9 Ru1 2.452998 1_555
As9 Ru0 2.453006 1_555
As9 Na0 3.229137 1_555
As10 Rh1 2.466867 1_565
As10 Rh0 2.466874 1_555
As10 As9 2.512318 1_565
As10 As8 2.547251 1_555
As10 Na0 3.256592 1_565
As11 Rh1 2.466867 1_655
As11 Rh0 2.466874 1_656
As11 As8 2.512318 1_545
As11 As9 2.547251 1_555
As11 Na0 3.256592 1_656
