# generated using pymatgen
data_TlGeS2
_symmetry_space_group_name_H-M   'P 1'
_cell_length_a   6.67715424
_cell_length_b   9.02453480
_cell_length_c   14.18023727
_cell_angle_alpha   90.00000000
_cell_angle_beta   90.00000000
_cell_angle_gamma   90.00000000
_symmetry_Int_Tables_number   1
_chemical_formula_structural   TlGeS2
_chemical_formula_sum   'Tl8 Ge8 S16'
_cell_volume   854.47572666
_cell_formula_units_Z   8
loop_
 _symmetry_equiv_pos_site_id
 _symmetry_equiv_pos_as_xyz
  1  'x, y, z'
loop_
 _atom_site_type_symbol
 _atom_site_label
 _atom_site_symmetry_multiplicity
 _atom_site_fract_x
 _atom_site_fract_y
 _atom_site_fract_z
 _atom_site_occupancy
  Tl  Tl0  1  0.75000000  0.35067242  0.32141432  1
  Tl  Tl1  1  0.25000000  0.64932758  0.67858568  1
  Tl  Tl2  1  0.75000000  0.85067242  0.17858568  1
  Tl  Tl3  1  0.25000000  0.14932758  0.82141432  1
  Tl  Tl4  1  0.75000000  0.01919855  0.63307019  1
  Tl  Tl5  1  0.25000000  0.98080145  0.36692981  1
  Tl  Tl6  1  0.75000000  0.51919855  0.86692981  1
  Tl  Tl7  1  0.25000000  0.48080145  0.13307019  1
  Ge  Ge0  1  0.25000000  0.58569561  0.45646794  1
  Ge  Ge1  1  0.25000000  0.24916867  0.57156300  1
  Ge  Ge2  1  0.75000000  0.75083133  0.42843700  1
  Ge  Ge3  1  0.25000000  0.74916867  0.92843700  1
  Ge  Ge4  1  0.75000000  0.25083133  0.07156300  1
  Ge  Ge5  1  0.25000000  0.08569561  0.04353206  1
  Ge  Ge6  1  0.75000000  0.91430439  0.95646794  1
  Ge  Ge7  1  0.75000000  0.41430439  0.54353206  1
  S  S0  1  0.49618525  0.14844963  0.15474571  1
  S  S1  1  0.49618525  0.64844963  0.34525429  1
  S  S2  1  0.99618525  0.35155037  0.65474571  1
  S  S3  1  0.00381475  0.14844963  0.15474571  1
  S  S4  1  0.50381475  0.85155037  0.84525429  1
  S  S5  1  0.50381475  0.35155037  0.65474571  1
  S  S6  1  0.00381475  0.64844963  0.34525429  1
  S  S7  1  0.99618525  0.85155037  0.84525429  1
  S  S8  1  0.75000000  0.48952099  0.08334553  1
  S  S9  1  0.25000000  0.51047901  0.91665447  1
  S  S10  1  0.75000000  0.98952099  0.41665447  1
  S  S11  1  0.25000000  0.32775813  0.42251039  1
  S  S12  1  0.75000000  0.17224187  0.92251039  1
  S  S13  1  0.25000000  0.82775813  0.07748961  1
  S  S14  1  0.75000000  0.67224187  0.57748961  1
  S  S15  1  0.25000000  0.01047901  0.58334553  1
loop_
_geom_bond_atom_site_label_1
_geom_bond_atom_site_label_2
_geom_bond_distance
_geom_bond_site_symmetry_2
Ge0 S6 2.347318 1_555
Ge0 S1 2.347318 1_555
Ge0 S11 2.377049 1_555
Ge0 Tl1 3.201603 1_555
Ge1 S15 2.160533 1_555
Ge1 S11 2.229422 1_555
Ge1 S2 2.262130 1_455
Ge1 S5 2.262130 1_555
Ge2 S10 2.160533 1_555
Ge2 S14 2.229422 1_555
Ge2 S1 2.262130 1_555
Ge2 S6 2.262130 1_655
Ge3 S9 2.160533 1_555
Ge3 S13 2.229422 1_556
Ge3 S4 2.262130 1_555
Ge3 S7 2.262130 1_455
Ge4 S8 2.160533 1_555
Ge4 S12 2.229422 1_554
Ge4 S0 2.262130 1_555
Ge4 S3 2.262130 1_655
Ge5 S0 2.347318 1_555
Ge5 S3 2.347318 1_555
Ge5 S13 2.377049 1_545
Ge5 Tl3 3.201603 1_554
Ge6 S4 2.347318 1_555
Ge6 S7 2.347318 1_555
Ge6 S12 2.377049 1_565
Ge6 Tl2 3.201603 1_556
Ge7 S2 2.347318 1_555
Ge7 S5 2.347318 1_555
Ge7 S14 2.377049 1_555
Ge7 Tl0 3.201603 1_555
S0 Tl2 3.195009 1_545
S1 Tl0 3.195009 1_555
S2 Tl1 3.195009 1_655
S3 Tl2 3.195009 1_445
S4 Tl3 3.195009 1_565
S5 Tl1 3.195009 1_555
S6 Tl0 3.195009 1_455
S7 Tl3 3.195009 1_665
S8 Tl6 3.080491 1_554
S9 Tl7 3.080491 1_556
S10 Tl4 3.080491 1_565
S11 Tl5 3.228793 1_545
S12 Tl6 3.228793 1_555
S13 Tl7 3.228793 1_555
S14 Tl4 3.228793 1_565
S15 Tl5 3.080491 1_545
