# generated using pymatgen
data_Cs8SnGeSe8
_symmetry_space_group_name_H-M   'P 1'
_cell_length_a   9.22938944
_cell_length_b   10.73168185
_cell_length_c   15.62153001
_cell_angle_alpha   90.00000000
_cell_angle_beta   89.94777327
_cell_angle_gamma   90.00000000
_symmetry_Int_Tables_number   1
_chemical_formula_structural   Cs8SnGeSe8
_chemical_formula_sum   'Cs16 Sn2 Ge2 Se16'
_cell_volume   1547.26302678
_cell_formula_units_Z   2
loop_
 _symmetry_equiv_pos_site_id
 _symmetry_equiv_pos_as_xyz
  1  'x, y, z'
loop_
 _atom_site_type_symbol
 _atom_site_label
 _atom_site_symmetry_multiplicity
 _atom_site_fract_x
 _atom_site_fract_y
 _atom_site_fract_z
 _atom_site_occupancy
  Cs  Cs0  1  0.00000000  0.00000000  0.00000000  1
  Cs  Cs1  1  0.50000000  0.00000000  0.50000000  1
  Cs  Cs2  1  0.00000000  0.50000000  0.00000000  1
  Cs  Cs3  1  0.50000000  0.50000000  0.50000000  1
  Cs  Cs4  1  0.99569894  0.75000000  0.41938544  1
  Cs  Cs5  1  0.48597055  0.25000000  0.08151016  1
  Cs  Cs6  1  0.00430106  0.25000000  0.58061456  1
  Cs  Cs7  1  0.51402945  0.75000000  0.91848984  1
  Cs  Cs8  1  0.82653582  0.05501582  0.28528030  1
  Cs  Cs9  1  0.32942291  0.95060184  0.21957153  1
  Cs  Cs10  1  0.17346418  0.55501582  0.71471970  1
  Cs  Cs11  1  0.67057709  0.45060184  0.78042847  1
  Cs  Cs12  1  0.17346418  0.94498418  0.71471970  1
  Cs  Cs13  1  0.67057709  0.04939816  0.78042847  1
  Cs  Cs14  1  0.82653582  0.44498418  0.28528030  1
  Cs  Cs15  1  0.32942291  0.54939816  0.21957153  1
  Sn  Sn0  1  0.73289660  0.75000000  0.16491934  1
  Sn  Sn1  1  0.26710340  0.25000000  0.83508066  1
  Ge  Ge0  1  0.76990027  0.75000000  0.66286445  1
  Ge  Ge1  1  0.23009973  0.25000000  0.33713555  1
  Se  Se0  1  0.99038688  0.25000000  0.82321096  1
  Se  Se1  1  0.48971459  0.25000000  0.32520212  1
  Se  Se2  1  0.51028541  0.75000000  0.67479788  1
  Se  Se3  1  0.00961312  0.75000000  0.17678904  1
  Se  Se4  1  0.65072817  0.55586610  0.08722383  1
  Se  Se5  1  0.15252017  0.43114203  0.41067267  1
  Se  Se6  1  0.34927183  0.05586610  0.91277617  1
  Se  Se7  1  0.84747983  0.93114203  0.58932733  1
  Se  Se8  1  0.34927183  0.44413390  0.91277617  1
  Se  Se9  1  0.84747983  0.56885797  0.58932733  1
  Se  Se10  1  0.65072817  0.94413390  0.08722383  1
  Se  Se11  1  0.15252017  0.06885797  0.41067267  1
  Se  Se12  1  0.62628942  0.75000000  0.31682180  1
  Se  Se13  1  0.12817647  0.25000000  0.19538687  1
  Se  Se14  1  0.37371058  0.25000000  0.68317820  1
  Se  Se15  1  0.87182353  0.75000000  0.80461313  1
loop_
_geom_bond_atom_site_label_1
_geom_bond_atom_site_label_2
_geom_bond_distance
_geom_bond_site_symmetry_2
Cs0 Se6 3.549565 1_554
Cs0 Se10 3.549565 1_445
Cs0 Se3 3.851422 1_545
Cs0 Se0 3.851422 1_454
Cs0 Se13 4.233237 1_555
Cs0 Se15 4.233237 1_444
Cs1 Se7 3.575817 1_545
Cs1 Se11 3.575817 1_555
Cs1 Se2 3.829331 1_545
Cs1 Se1 3.829331 1_555
Cs1 Se14 4.091316 1_555
Cs1 Se12 4.091316 1_545
Cs2 Se8 3.549565 1_554
Cs2 Se4 3.549565 1_455
Cs2 Se3 3.851422 1_555
Cs2 Se0 3.851422 1_454
Cs2 Se13 4.233237 1_555
Cs2 Se15 4.233237 1_454
Cs3 Se9 3.575817 1_555
Cs3 Se5 3.575817 1_555
Cs3 Se2 3.829331 1_555
Cs3 Se1 3.829331 1_555
Cs3 Se14 4.091316 1_555
Cs3 Se12 4.091316 1_555
Cs4 Se7 3.562501 1_555
Cs4 Se9 3.562501 1_555
Cs4 Se11 3.717836 1_665
Cs4 Se5 3.717836 1_655
Cs4 Se12 3.768445 1_555
Cs4 Se3 3.791785 1_655
Cs5 Se8 3.589732 1_554
Cs5 Se6 3.589732 1_554
Cs5 Se4 3.618702 1_555
Cs5 Se10 3.618702 1_545
Cs5 Se13 3.749472 1_555
Cs5 Se1 3.807030 1_555
Cs6 Se5 3.562501 1_555
Cs6 Se11 3.562501 1_555
Cs6 Se9 3.717836 1_455
Cs6 Se7 3.717836 1_445
Cs6 Se14 3.768445 1_555
Cs6 Se0 3.791785 1_455
Cs7 Se10 3.589732 1_556
Cs7 Se4 3.589732 1_556
Cs7 Se6 3.618702 1_565
Cs7 Se8 3.618702 1_555
Cs7 Se15 3.749472 1_555
Cs7 Se2 3.807030 1_555
Cs8 Se11 3.594674 1_655
Cs8 Se10 3.691944 1_545
Cs8 Se13 3.754181 1_655
Cs8 Se12 3.790975 1_545
Cs8 Se1 3.798383 1_555
Cs8 Se3 4.054243 1_645
Cs9 Se10 3.614138 1_555
Cs9 Se11 3.630343 1_565
Cs9 Se3 3.714434 1_555
Cs9 Se13 3.730622 1_565
Cs9 Se12 3.802251 1_555
Cs9 Se1 3.903792 1_565
Cs10 Se9 3.594674 1_455
Cs10 Se8 3.691944 1_555
Cs10 Se15 3.754181 1_455
Cs10 Se14 3.790975 1_555
Cs10 Se2 3.798383 1_555
Cs10 Se0 4.054243 1_455
Cs11 Se8 3.614138 1_555
Cs11 Se9 3.630343 1_555
Cs11 Se0 3.714434 1_555
Cs11 Se15 3.730622 1_555
Cs11 Se14 3.802251 1_555
Cs11 Se2 3.903792 1_555
Cs12 Se7 3.594674 1_455
Cs12 Se6 3.691944 1_565
Cs12 Se15 3.754181 1_455
Cs12 Se14 3.790975 1_565
Cs12 Se2 3.798383 1_555
Cs12 Se0 4.054243 1_465
Cs13 Se6 3.614138 1_555
Cs13 Se7 3.630343 1_545
Cs13 Se0 3.714434 1_555
Cs13 Se15 3.730622 1_545
Cs13 Se14 3.802251 1_555
Cs13 Se2 3.903792 1_545
Cs14 Se5 3.594674 1_655
Cs14 Se4 3.691944 1_555
Cs14 Se13 3.754181 1_655
Cs14 Se12 3.790975 1_555
Cs14 Se1 3.798383 1_555
Cs14 Se3 4.054243 1_655
Cs15 Se4 3.614138 1_555
Cs15 Se5 3.630343 1_555
Cs15 Se3 3.714434 1_555
Cs15 Se13 3.730622 1_555
Cs15 Se12 3.802251 1_555
Cs15 Se1 3.903792 1_555
Ge0 Se7 2.368502 1_555
Ge0 Se9 2.368502 1_555
Ge0 Se2 2.403158 1_555
Ge0 Se15 2.406649 1_555
Ge1 Se5 2.368502 1_555
Ge1 Se11 2.368502 1_555
Ge1 Se1 2.403158 1_555
Ge1 Se13 2.406649 1_555
Se0 Sn1 2.560815 1_655
Se3 Sn0 2.560815 1_455
Se4 Sn0 2.527925 1_555
Se6 Sn1 2.527925 1_555
Se8 Sn1 2.527925 1_555
Se10 Sn0 2.527925 1_555
Se12 Sn0 2.568020 1_555
Se14 Sn1 2.568020 1_555
