# generated using pymatgen
data_Cd3Si2(PPd5)4
_symmetry_space_group_name_H-M   'P 1'
_cell_length_a   8.57022116
_cell_length_b   8.54467585
_cell_length_c   8.54465269
_cell_angle_alpha   60.19832129
_cell_angle_beta   59.90103144
_cell_angle_gamma   59.90118224
_symmetry_Int_Tables_number   1
_chemical_formula_structural   Cd3Si2(PPd5)4
_chemical_formula_sum   'Cd3 Si2 P4 Pd20'
_cell_volume   442.44672828
_cell_formula_units_Z   1
loop_
 _symmetry_equiv_pos_site_id
 _symmetry_equiv_pos_as_xyz
  1  'x, y, z'
loop_
 _atom_site_type_symbol
 _atom_site_label
 _atom_site_symmetry_multiplicity
 _atom_site_fract_x
 _atom_site_fract_y
 _atom_site_fract_z
 _atom_site_occupancy
  Cd  Cd0  1  0.24999702  0.25000262  0.25000252  1
  Cd  Cd1  1  0.75000298  0.74999738  0.74999748  1
  Cd  Cd2  1  0.00000000  0.00000000  0.00000000  1
  Si  Si0  1  0.73304725  0.26695257  0.26694864  1
  Si  Si1  1  0.26695275  0.73304743  0.73305136  1
  P  P0  1  0.26807105  0.73192181  0.26808244  1
  P  P1  1  0.73192895  0.26807819  0.73191756  1
  P  P2  1  0.26807337  0.26808100  0.73191886  1
  P  P3  1  0.73192663  0.73191900  0.26808114  1
  Pd  Pd0  1  0.38261373  0.38365402  0.38365441  1
  Pd  Pd1  1  0.61738627  0.61634598  0.61634559  1
  Pd  Pd2  1  0.38366190  0.38260026  0.85007558  1
  Pd  Pd3  1  0.38366185  0.85007603  0.38259946  1
  Pd  Pd4  1  0.61633810  0.61739974  0.14992442  1
  Pd  Pd5  1  0.61633815  0.14992397  0.61740054  1
  Pd  Pd6  1  0.85007738  0.38365465  0.38365454  1
  Pd  Pd7  1  0.14992262  0.61634535  0.61634546  1
  Pd  Pd8  1  0.34153600  0.99999974  0.00000087  1
  Pd  Pd9  1  0.65846400  0.00000026  0.99999913  1
  Pd  Pd10  1  0.00000111  0.34154375  0.65845521  1
  Pd  Pd11  1  0.99999889  0.65845625  0.34154479  1
  Pd  Pd12  1  0.00173848  0.34324153  0.99826016  1
  Pd  Pd13  1  0.65675830  0.99826171  0.34323998  1
  Pd  Pd14  1  0.99826152  0.65675847  0.00173984  1
  Pd  Pd15  1  0.34324170  0.00173829  0.65676002  1
  Pd  Pd16  1  0.00173088  0.99826380  0.34324264  1
  Pd  Pd17  1  0.99826912  0.00173620  0.65675736  1
  Pd  Pd18  1  0.65675847  0.34324659  0.99825463  1
  Pd  Pd19  1  0.34324153  0.65675341  0.00174537  1
loop_
_geom_bond_atom_site_label_1
_geom_bond_atom_site_label_2
_geom_bond_distance
_geom_bond_site_symmetry_2
Cd0 Pd0 2.792874 1_555
Cd0 Pd6 2.792877 1_455
Cd0 Pd2 2.792928 1_554
Cd0 Pd3 2.792938 1_545
Cd0 Pd10 3.303883 1_555
Cd0 Pd11 3.303905 1_455
Cd0 Pd8 3.303968 1_545
Cd0 Pd9 3.303983 1_554
Cd1 Pd1 2.792874 1_555
Cd1 Pd7 2.792877 1_655
Cd1 Pd4 2.792928 1_556
Cd1 Pd5 2.792938 1_565
Cd1 Pd11 3.303883 1_555
Cd1 Pd10 3.303905 1_655
Cd1 Pd9 3.303968 1_565
Cd1 Pd8 3.303983 1_556
Cd2 Pd8 2.927042 1_545
Cd2 Pd9 2.927042 1_454
Cd2 Pd11 2.927125 1_445
Cd2 Pd10 2.927125 1_554
Cd2 Pd16 2.932993 1_545
Cd2 Pd17 2.932993 1_454
Cd2 Pd15 2.933003 1_554
Cd2 Pd13 2.933003 1_445
Cd2 Pd12 2.933008 1_554
Cd2 Pd14 2.933008 1_445
Cd2 Pd18 2.933042 1_454
Cd2 Pd19 2.933042 1_545
P0 Pd19 2.360944 1_555
P0 Pd16 2.360976 1_555
P0 Pd11 2.382159 1_455
P0 Pd8 2.382218 1_555
P0 Pd3 2.432170 1_555
P0 Pd7 2.432181 1_555
P0 Pd4 2.432209 1_555
P0 Pd0 2.432224 1_555
P1 Pd18 2.360944 1_555
P1 Pd17 2.360976 1_555
P1 Pd10 2.382159 1_655
P1 Pd9 2.382218 1_555
P1 Pd5 2.432170 1_555
P1 Pd6 2.432181 1_555
P1 Pd2 2.432209 1_555
P1 Pd1 2.432224 1_555
P2 Pd12 2.360950 1_555
P2 Pd15 2.360952 1_555
P2 Pd10 2.382150 1_555
P2 Pd8 2.382234 1_546
P2 Pd2 2.432187 1_555
P2 Pd0 2.432191 1_555
P2 Pd5 2.432193 1_555
P2 Pd7 2.432200 1_555
P3 Pd14 2.360950 1_555
P3 Pd13 2.360952 1_555
P3 Pd11 2.382150 1_555
P3 Pd9 2.382234 1_564
P3 Pd4 2.432187 1_555
P3 Pd1 2.432191 1_555
P3 Pd3 2.432193 1_555
P3 Pd6 2.432200 1_555
Pd0 Si0 2.447317 1_555
Pd0 Pd10 3.002716 1_555
Pd0 Pd11 3.002739 1_455
Pd1 Si1 2.447317 1_555
Pd1 Pd11 3.002716 1_555
Pd1 Pd10 3.002739 1_655
Pd2 Si1 2.447423 1_555
Pd2 Pd8 3.002685 1_546
Pd2 Pd9 3.002687 1_555
Pd3 Si1 2.447446 1_555
Pd3 Pd8 3.002664 1_555
Pd3 Pd9 3.002679 1_564
Pd4 Si0 2.447423 1_555
Pd4 Pd9 3.002685 1_564
Pd4 Pd8 3.002687 1_555
Pd5 Si0 2.447446 1_555
Pd5 Pd9 3.002664 1_555
Pd5 Pd8 3.002679 1_546
Pd6 Si0 2.447344 1_555
Pd7 Si1 2.447344 1_555
Pd8 Pd9 2.716138 1_564
Pd10 Pd11 2.716015 1_455
Pd10 Pd18 2.918257 1_455
Pd10 Pd12 2.918267 1_555
Pd10 Pd17 2.918274 1_455
Pd10 Pd15 2.918284 1_555
Pd10 Pd6 3.002721 1_455
Pd10 Pd7 3.002722 1_555
Pd11 Pd19 2.918257 1_655
Pd11 Pd14 2.918267 1_555
Pd11 Pd16 2.918274 1_655
Pd11 Pd13 2.918284 1_555
Pd11 Pd7 3.002721 1_655
Pd11 Pd6 3.002722 1_555
Pd12 Si0 2.390371 1_456
Pd12 Pd8 2.918256 1_546
Pd13 Si0 2.390373 1_565
Pd13 Pd9 2.918234 1_564
Pd14 Si1 2.390371 1_654
Pd14 Pd9 2.918256 1_564
Pd15 Si1 2.390373 1_545
Pd15 Pd8 2.918234 1_546
Pd16 Si0 2.390352 1_465
Pd16 Pd8 2.918277 1_555
Pd17 Si1 2.390352 1_645
Pd17 Pd9 2.918277 1_555
Pd18 Si0 2.390385 1_556
Pd18 Pd9 2.918265 1_555
Pd19 Si1 2.390385 1_554
Pd19 Pd8 2.918265 1_555
