# generated using pymatgen
data_NaSr3CoO6
_symmetry_space_group_name_H-M   'P 1'
_cell_length_a   6.65130719
_cell_length_b   6.65130762
_cell_length_c   6.65130722
_cell_angle_alpha   90.60494853
_cell_angle_beta   90.60494479
_cell_angle_gamma   90.60494987
_symmetry_Int_Tables_number   1
_chemical_formula_structural   NaSr3CoO6
_chemical_formula_sum   'Na2 Sr6 Co2 O12'
_cell_volume   294.20354820
_cell_formula_units_Z   2
loop_
 _symmetry_equiv_pos_site_id
 _symmetry_equiv_pos_as_xyz
  1  'x, y, z'
loop_
 _atom_site_type_symbol
 _atom_site_label
 _atom_site_symmetry_multiplicity
 _atom_site_fract_x
 _atom_site_fract_y
 _atom_site_fract_z
 _atom_site_occupancy
  Na  Na0  1  0.25000000  0.25000000  0.25000000  1
  Na  Na1  1  0.75000000  0.75000000  0.75000000  1
  Sr  Sr0  1  0.75000000  0.38847679  0.11152321  1
  Sr  Sr1  1  0.11152321  0.75000000  0.38847679  1
  Sr  Sr2  1  0.38847679  0.11152321  0.75000000  1
  Sr  Sr3  1  0.25000000  0.61152321  0.88847679  1
  Sr  Sr4  1  0.88847679  0.25000000  0.61152321  1
  Sr  Sr5  1  0.61152321  0.88847679  0.25000000  1
  Co  Co0  1  0.00000000  0.00000000  0.00000000  1
  Co  Co1  1  0.50000000  0.50000000  0.50000000  1
  O  O0  1  0.44445188  0.76880841  0.57586499  1
  O  O1  1  0.57586499  0.44445188  0.76880841  1
  O  O2  1  0.76880841  0.57586499  0.44445188  1
  O  O3  1  0.05554812  0.92413501  0.73119159  1
  O  O4  1  0.73119159  0.05554812  0.92413501  1
  O  O5  1  0.92413501  0.73119159  0.05554812  1
  O  O6  1  0.55554812  0.23119159  0.42413501  1
  O  O7  1  0.42413501  0.55554812  0.23119159  1
  O  O8  1  0.23119159  0.42413501  0.55554812  1
  O  O9  1  0.94445188  0.07586499  0.26880841  1
  O  O10  1  0.07586499  0.26880841  0.94445188  1
  O  O11  1  0.26880841  0.94445188  0.07586499  1
loop_
_geom_bond_atom_site_label_1
_geom_bond_atom_site_label_2
_geom_bond_distance
_geom_bond_site_symmetry_2
Na0 O9 2.333684 1_455
Na0 O8 2.333684 1_555
Na0 O6 2.333684 1_555
Na0 O10 2.333684 1_554
Na0 O7 2.333684 1_555
Na0 O11 2.333684 1_545
Na1 O3 2.333684 1_655
Na1 O2 2.333684 1_555
Na1 O0 2.333684 1_555
Na1 O5 2.333684 1_556
Na1 O1 2.333684 1_555
Na1 O4 2.333684 1_565
Co0 O9 1.893845 1_455
Co0 O3 1.893845 1_544
Co0 O11 1.893845 1_545
Co0 O4 1.893845 1_454
Co0 O10 1.893845 1_554
Co0 O5 1.893845 1_445
Co1 O8 1.893845 1_555
Co1 O2 1.893845 1_555
Co1 O1 1.893845 1_555
Co1 O7 1.893845 1_555
Co1 O0 1.893845 1_555
Co1 O6 1.893845 1_555
O0 Sr1 2.530869 1_555
O0 Sr5 2.575802 1_555
O0 Sr2 2.578275 1_565
O0 Sr3 2.676706 1_555
O1 Sr2 2.530869 1_555
O1 Sr3 2.575802 1_555
O1 Sr0 2.578275 1_556
O1 Sr4 2.676706 1_555
O2 Sr0 2.530869 1_555
O2 Sr4 2.575802 1_555
O2 Sr1 2.578275 1_655
O2 Sr5 2.676706 1_555
O3 Sr2 2.530869 1_565
O3 Sr4 2.575802 1_465
O3 Sr1 2.578275 1_555
O3 Sr3 2.676706 1_555
O4 Sr0 2.530869 1_556
O4 Sr5 2.575802 1_546
O4 Sr2 2.578275 1_555
O4 Sr4 2.676706 1_555
O5 Sr1 2.530869 1_655
O5 Sr3 2.575802 1_654
O5 Sr0 2.578275 1_555
O5 Sr5 2.676706 1_555
O6 Sr4 2.530869 1_555
O6 Sr2 2.575802 1_555
O6 Sr5 2.578275 1_545
O6 Sr0 2.676706 1_555
O7 Sr5 2.530869 1_555
O7 Sr0 2.575802 1_555
O7 Sr3 2.578275 1_554
O7 Sr1 2.676706 1_555
O8 Sr3 2.530869 1_555
O8 Sr1 2.575802 1_555
O8 Sr4 2.578275 1_455
O8 Sr2 2.676706 1_555
O9 Sr5 2.530869 1_545
O9 Sr1 2.575802 1_645
O9 Sr4 2.578275 1_555
O9 Sr0 2.676706 1_555
O10 Sr4 2.530869 1_455
O10 Sr0 2.575802 1_456
O10 Sr3 2.578275 1_555
O10 Sr2 2.676706 1_555
O11 Sr3 2.530869 1_554
O11 Sr2 2.575802 1_564
O11 Sr5 2.578275 1_555
O11 Sr1 2.676706 1_555
