# generated using pymatgen
data_HfZr5(Bi2Sb)2
_symmetry_space_group_name_H-M   'P 1'
_cell_length_a   5.69331835
_cell_length_b   5.69331844
_cell_length_c   14.42033657
_cell_angle_alpha   90.00000000
_cell_angle_beta   90.00000000
_cell_angle_gamma   140.70948345
_symmetry_Int_Tables_number   1
_chemical_formula_structural   HfZr5(Bi2Sb)2
_chemical_formula_sum   'Hf1 Zr5 Bi4 Sb2'
_cell_volume   295.99436677
_cell_formula_units_Z   1
loop_
 _symmetry_equiv_pos_site_id
 _symmetry_equiv_pos_as_xyz
  1  'x, y, z'
loop_
 _atom_site_type_symbol
 _atom_site_label
 _atom_site_symmetry_multiplicity
 _atom_site_fract_x
 _atom_site_fract_y
 _atom_site_fract_z
 _atom_site_occupancy
  Hf  Hf0  1  0.61393390  0.38606610  0.75000000  1
  Zr  Zr0  1  0.92724419  0.07275581  0.88713343  1
  Zr  Zr1  1  0.07377380  0.92622620  0.11114187  1
  Zr  Zr2  1  0.07377380  0.92622620  0.38885813  1
  Zr  Zr3  1  0.92724419  0.07275581  0.61286657  1
  Zr  Zr4  1  0.38427045  0.61572955  0.25000000  1
  Bi  Bi0  1  0.35918056  0.64081944  0.45053643  1
  Bi  Bi1  1  0.64216602  0.35783398  0.55104010  1
  Bi  Bi2  1  0.64216602  0.35783398  0.94895990  1
  Bi  Bi3  1  0.35918056  0.64081944  0.04946357  1
  Sb  Sb0  1  0.32559402  0.67440598  0.75000000  1
  Sb  Sb1  1  0.67147150  0.32852850  0.25000000  1
loop_
_geom_bond_atom_site_label_1
_geom_bond_atom_site_label_2
_geom_bond_distance
_geom_bond_site_symmetry_2
Hf0 Sb0 2.969124 1_655
Hf0 Sb0 2.969124 1_545
Hf0 Sb0 3.092112 1_555
Bi0 Zr4 2.904293 1_555
Bi0 Zr3 3.110630 1_565
Bi0 Zr3 3.110630 1_455
Bi0 Zr2 3.122587 1_655
Bi0 Zr2 3.122587 1_545
Bi0 Zr2 3.187271 1_555
Bi1 Hf0 2.884999 1_555
Bi1 Zr2 3.109852 1_545
Bi1 Zr2 3.109852 1_655
Bi1 Zr3 3.125793 1_455
Bi1 Zr3 3.125794 1_565
Bi1 Zr3 3.184485 1_555
Bi2 Hf0 2.884999 1_555
Bi2 Zr1 3.109852 1_546
Bi2 Zr1 3.109852 1_656
Bi2 Zr0 3.125793 1_455
Bi2 Zr0 3.125794 1_565
Bi2 Zr0 3.184485 1_555
Bi3 Zr4 2.904293 1_555
Bi3 Zr0 3.110630 1_564
Bi3 Zr0 3.110630 1_454
Bi3 Zr1 3.122587 1_655
Bi3 Zr1 3.122587 1_545
Bi3 Zr1 3.187271 1_555
Sb0 Zr0 2.960149 1_565
Sb0 Zr3 2.960149 1_565
Sb0 Zr0 2.960149 1_455
Sb0 Zr3 2.960149 1_455
Sb1 Zr2 2.961563 1_545
Sb1 Zr1 2.961563 1_545
Sb1 Zr2 2.961563 1_655
Sb1 Zr1 2.961563 1_655
Sb1 Zr4 2.978471 1_655
Sb1 Zr4 2.978471 1_545
Sb1 Zr4 3.079900 1_555
