# generated using pymatgen
data_YSc3CSe3
_symmetry_space_group_name_H-M   'P 1'
_cell_length_a   6.63255653
_cell_length_b   6.63255611
_cell_length_c   6.69114433
_cell_angle_alpha   79.67101308
_cell_angle_beta   79.67101240
_cell_angle_gamma   32.57880213
_symmetry_Int_Tables_number   1
_chemical_formula_structural   YSc3CSe3
_chemical_formula_sum   'Y1 Sc3 C1 Se3'
_cell_volume   155.70499864
_cell_formula_units_Z   1
loop_
 _symmetry_equiv_pos_site_id
 _symmetry_equiv_pos_as_xyz
  1  'x, y, z'
loop_
 _atom_site_type_symbol
 _atom_site_label
 _atom_site_symmetry_multiplicity
 _atom_site_fract_x
 _atom_site_fract_y
 _atom_site_fract_z
 _atom_site_occupancy
  Y  Y0  1  0.01672955  0.01672955  0.02468073  1
  Sc  Sc0  1  0.22939244  0.22939244  0.21975539  1
  Sc  Sc1  1  0.51876840  0.51876840  0.44496146  1
  Sc  Sc2  1  0.73336261  0.73336261  0.80872238  1
  C  C0  1  0.62877075  0.62877075  0.12982792  1
  Se  Se0  1  0.86604476  0.86604476  0.39079645  1
  Se  Se1  1  0.12900385  0.12900385  0.61608216  1
  Se  Se2  1  0.37792766  0.37792766  0.86517452  1
loop_
_geom_bond_atom_site_label_1
_geom_bond_atom_site_label_2
_geom_bond_distance
_geom_bond_site_symmetry_2
Sc0 Se1 2.720279 1_555
Sc0 Se2 2.743983 1_554
Sc0 Se0 2.922681 1_455
Sc0 Se0 2.922682 1_545
Sc1 Se1 2.709688 1_565
Sc1 Se1 2.709688 1_655
Sc1 Se0 2.763502 1_545
Sc1 Se0 2.763503 1_455
Sc1 Se2 3.039371 1_555
Sc2 Se2 2.692864 1_565
Sc2 Se2 2.692864 1_655
Sc2 Se1 2.743702 1_655
Sc2 Se1 2.743702 1_565
Sc2 Se0 2.984787 1_555
C0 Sc1 2.303167 1_555
C0 Sc2 2.306697 1_554
C0 Sc0 2.398422 1_565
C0 Sc0 2.398422 1_655
C0 Y0 2.523098 1_655
C0 Y0 2.523098 1_565
Se0 Y0 2.815373 1_665
Se1 Y0 2.838689 1_556
Se2 Y0 2.903118 1_566
Se2 Y0 2.903119 1_656
