# generated using pymatgen
data_MgSc3As6Ru7
_symmetry_space_group_name_H-M   'P 1'
_cell_length_a   6.98781212
_cell_length_b   6.98781159
_cell_length_c   7.08089407
_cell_angle_alpha   109.74128830
_cell_angle_beta   109.74128675
_cell_angle_gamma   109.19980708
_symmetry_Int_Tables_number   1
_chemical_formula_structural   MgSc3As6Ru7
_chemical_formula_sum   'Mg1 Sc3 As6 Ru7'
_cell_volume   265.27129466
_cell_formula_units_Z   1
loop_
 _symmetry_equiv_pos_site_id
 _symmetry_equiv_pos_as_xyz
  1  'x, y, z'
loop_
 _atom_site_type_symbol
 _atom_site_label
 _atom_site_symmetry_multiplicity
 _atom_site_fract_x
 _atom_site_fract_y
 _atom_site_fract_z
 _atom_site_occupancy
  Mg  Mg0  1  0.00000000  0.00000000  0.50000000  1
  Sc  Sc0  1  0.50000000  0.00000000  0.00000000  1
  Sc  Sc1  1  0.00000000  0.50000000  0.00000000  1
  Sc  Sc2  1  0.50000000  0.50000000  0.50000000  1
  As  As0  1  0.31002597  1.00000000  0.31180408  1
  As  As1  1  0.00000000  0.31002597  0.31180408  1
  As  As2  1  1.00000000  0.68997403  0.68819592  1
  As  As3  1  0.31002597  0.31002597  0.99822189  1
  As  As4  1  0.68997403  0.68997403  0.00177811  1
  As  As5  1  0.68997403  0.00000000  0.68819592  1
  Ru  Ru0  1  0.75088766  0.50177532  0.25088766  1
  Ru  Ru1  1  0.50177532  0.75088766  0.25088766  1
  Ru  Ru2  1  0.49822468  0.24911234  0.74911234  1
  Ru  Ru3  1  0.75088766  0.24911234  0.50000000  1
  Ru  Ru4  1  0.24911234  0.75088766  0.50000000  1
  Ru  Ru5  1  0.24911234  0.49822468  0.74911234  1
  Ru  Ru6  1  0.00000000  0.00000000  0.00000000  1
loop_
_geom_bond_atom_site_label_1
_geom_bond_atom_site_label_2
_geom_bond_distance
_geom_bond_site_symmetry_2
Mg0 Ru5 2.837864 1_555
Mg0 Ru0 2.837864 1_445
Mg0 Ru3 2.837864 1_455
Mg0 Ru4 2.837864 1_545
Mg0 Ru2 2.837864 1_555
Mg0 Ru1 2.837864 1_445
As0 Ru6 2.517281 1_565
As0 Ru1 2.535534 1_555
As0 Ru3 2.535534 1_565
As0 Ru2 2.539708 1_565
As0 Ru4 2.539708 1_555
As0 Sc2 2.890401 1_565
As0 Sc1 2.890402 1_555
As0 Mg0 2.901616 1_565
As0 Sc0 2.935448 1_565
As1 Ru6 2.517281 1_555
As1 Ru4 2.535534 1_555
As1 Ru0 2.535534 1_455
As1 Ru5 2.539708 1_555
As1 Ru3 2.539708 1_455
As1 Sc0 2.890402 1_455
As1 Sc2 2.890402 1_555
As1 Mg0 2.901616 1_555
As1 Sc1 2.935448 1_555
As2 Ru6 2.517281 1_666
As2 Ru3 2.535534 1_555
As2 Ru5 2.535534 1_655
As2 Ru0 2.539708 1_555
As2 Ru4 2.539708 1_655
As2 Sc0 2.890402 1_666
As2 Sc2 2.890402 1_555
As2 Mg0 2.901616 1_665
As2 Sc1 2.935448 1_656
As3 Ru6 2.517281 1_556
As3 Ru1 2.535534 1_556
As3 Ru0 2.535534 1_556
As3 Ru5 2.539708 1_555
As3 Ru2 2.539708 1_555
As3 Sc0 2.890401 1_556
As3 Sc1 2.890402 1_556
As3 Mg0 2.901616 1_555
As3 Sc2 2.935448 1_556
As4 Ru6 2.517281 1_665
As4 Ru2 2.535534 1_554
As4 Ru5 2.535534 1_554
As4 Ru0 2.539708 1_555
As4 Ru1 2.539708 1_555
As4 Sc0 2.890401 1_565
As4 Sc1 2.890402 1_655
As4 Mg0 2.901616 1_665
As4 Sc2 2.935448 1_554
As5 Ru6 2.517281 1_656
As5 Ru2 2.535534 1_555
As5 Ru4 2.535534 1_545
As5 Ru1 2.539708 1_545
As5 Ru3 2.539708 1_555
As5 Sc2 2.890401 1_545
As5 Sc1 2.890402 1_656
As5 Mg0 2.901616 1_655
As5 Sc0 2.935448 1_556
Ru0 Sc0 2.858089 1_555
Ru0 Sc1 2.876589 1_655
Ru0 Sc2 2.876589 1_555
Ru1 Sc1 2.858089 1_555
Ru1 Sc0 2.876589 1_565
Ru1 Sc2 2.876589 1_555
Ru2 Sc1 2.858089 1_656
Ru2 Sc0 2.876589 1_556
Ru2 Sc2 2.876589 1_555
Ru3 Sc2 2.858089 1_555
Ru3 Sc1 2.876589 1_656
Ru3 Sc0 2.876589 1_555
Ru4 Sc2 2.858089 1_555
Ru4 Sc1 2.876589 1_555
Ru4 Sc0 2.876589 1_566
Ru5 Sc0 2.858089 1_566
Ru5 Sc1 2.876589 1_556
Ru5 Sc2 2.876589 1_555
