# generated using pymatgen
data_Mn2CuO4
_symmetry_space_group_name_H-M   'P 1'
_cell_length_a   6.02008504
_cell_length_b   6.02008504
_cell_length_c   6.02008521
_cell_angle_alpha   60.30232546
_cell_angle_beta   60.30232546
_cell_angle_gamma   60.30232854
_symmetry_Int_Tables_number   1
_chemical_formula_structural   Mn2CuO4
_chemical_formula_sum   'Mn4 Cu2 O8'
_cell_volume   155.32949076
_cell_formula_units_Z   2
loop_
 _symmetry_equiv_pos_site_id
 _symmetry_equiv_pos_as_xyz
  1  'x, y, z'
loop_
 _atom_site_type_symbol
 _atom_site_label
 _atom_site_symmetry_multiplicity
 _atom_site_fract_x
 _atom_site_fract_y
 _atom_site_fract_z
 _atom_site_occupancy
  Mn  Mn0  1  0.99789000  0.99789000  0.99789000  1
  Mn  Mn1  1  0.87267500  0.37575900  0.37575900  1
  Mn  Mn2  1  0.37575900  0.37575900  0.87267500  1
  Mn  Mn3  1  0.37575900  0.87267500  0.37575900  1
  Cu  Cu0  1  0.75136300  0.75136300  0.75136300  1
  Cu  Cu1  1  0.37540500  0.37540500  0.37540500  1
  O  O0  1  0.61916000  0.61916000  0.61916000  1
  O  O1  1  0.61955900  0.16285500  0.61955900  1
  O  O2  1  0.61955900  0.61955900  0.16285500  1
  O  O3  1  0.16285500  0.61955900  0.61955900  1
  O  O4  1  0.58333500  0.13155400  0.13155400  1
  O  O5  1  0.13155400  0.58333500  0.13155400  1
  O  O6  1  0.13155400  0.13155400  0.58333500  1
  O  O7  1  0.13357200  0.13357200  0.13357200  1
loop_
_geom_bond_atom_site_label_1
_geom_bond_atom_site_label_2
_geom_bond_distance
_geom_bond_site_symmetry_2
Mn0 O7 1.996202 1_666
Mn0 O6 2.045790 1_665
Mn0 O4 2.045790 1_566
Mn0 O5 2.045790 1_656
Mn1 O1 1.993500 1_555
Mn1 O2 1.993500 1_555
Mn1 O5 1.997720 1_655
Mn1 O6 1.997720 1_655
Mn1 O7 2.070410 1_655
Mn1 O0 2.078261 1_555
Mn2 O3 1.993500 1_555
Mn2 O1 1.993500 1_555
Mn2 O5 1.997720 1_556
Mn2 O4 1.997720 1_556
Mn2 O7 2.070410 1_556
Mn2 O0 2.078261 1_555
Mn3 O3 1.993500 1_555
Mn3 O2 1.993500 1_555
Mn3 O4 1.997720 1_565
Mn3 O6 1.997720 1_565
Mn3 O7 2.070410 1_565
Mn3 O0 2.078261 1_555
Cu0 O0 1.945017 1_555
Cu0 O2 2.030865 1_556
Cu0 O1 2.030865 1_565
Cu0 O3 2.030865 1_655
Cu1 O6 2.090633 1_555
Cu1 O5 2.090633 1_555
Cu1 O4 2.090633 1_555
Cu1 O2 2.090847 1_555
Cu1 O1 2.090847 1_555
Cu1 O3 2.090847 1_555
