# generated using pymatgen
data_MgCd3
_symmetry_space_group_name_H-M   'P 1'
_cell_length_a   6.33170808
_cell_length_b   6.33170803
_cell_length_c   4.85446823
_cell_angle_alpha   90.00000000
_cell_angle_beta   90.00000000
_cell_angle_gamma   119.99998950
_symmetry_Int_Tables_number   1
_chemical_formula_structural   MgCd3
_chemical_formula_sum   'Mg2 Cd6'
_cell_volume   168.54431370
_cell_formula_units_Z   2
loop_
 _symmetry_equiv_pos_site_id
 _symmetry_equiv_pos_as_xyz
  1  'x, y, z'
loop_
 _atom_site_type_symbol
 _atom_site_label
 _atom_site_symmetry_multiplicity
 _atom_site_fract_x
 _atom_site_fract_y
 _atom_site_fract_z
 _atom_site_occupancy
  Mg  Mg0  1  0.66666700  0.33333300  0.75000000  1
  Mg  Mg1  1  0.33333300  0.66666700  0.25000000  1
  Cd  Cd0  1  0.66596488  0.83298194  0.75000000  1
  Cd  Cd1  1  0.33403512  0.16701806  0.25000000  1
  Cd  Cd2  1  0.83298194  0.16701806  0.25000000  1
  Cd  Cd3  1  0.16701806  0.33403512  0.75000000  1
  Cd  Cd4  1  0.16701806  0.83298194  0.75000000  1
  Cd  Cd5  1  0.83298194  0.66596488  0.25000000  1
loop_
_geom_bond_atom_site_label_1
_geom_bond_atom_site_label_2
_geom_bond_distance
_geom_bond_site_symmetry_2
Cd0 Mg1 3.036165 1_555
Cd0 Mg1 3.036165 1_556
Cd0 Cd5 3.040790 1_556
Cd0 Cd5 3.040790 1_555
Cd0 Cd2 3.040797 1_565
Cd0 Cd2 3.040797 1_566
Cd0 Cd4 3.159186 1_555
Cd0 Cd3 3.159186 1_555
Cd0 Mg0 3.165856 1_555
Cd0 Mg0 3.165856 1_565
Cd0 Cd4 3.172522 1_655
Cd0 Cd3 3.172523 1_665
Cd1 Mg0 3.036165 1_554
Cd1 Mg0 3.036165 1_555
Cd1 Cd3 3.040790 1_555
Cd1 Cd3 3.040790 1_554
Cd1 Cd4 3.040797 1_544
Cd1 Cd4 3.040797 1_545
Cd1 Cd2 3.159186 1_555
Cd1 Cd5 3.159186 1_555
Cd1 Mg1 3.165856 1_555
Cd1 Mg1 3.165856 1_545
Cd1 Cd2 3.172522 1_455
Cd1 Cd5 3.172523 1_445
Cd2 Mg0 3.036158 1_554
Cd2 Mg0 3.036158 1_555
Cd2 Cd3 3.040797 1_654
Cd2 Cd3 3.040797 1_655
Cd2 Cd5 3.159186 1_555
Cd2 Mg1 3.165857 1_545
Cd2 Mg1 3.165857 1_655
Cd2 Cd5 3.172522 1_545
Cd3 Mg1 3.036165 1_555
Cd3 Mg1 3.036165 1_556
Cd3 Cd4 3.159186 1_555
Cd3 Mg0 3.165856 1_555
Cd3 Mg0 3.165856 1_455
Cd3 Cd4 3.172522 1_545
Cd4 Mg1 3.036158 1_556
Cd4 Mg1 3.036158 1_555
Cd4 Cd5 3.040797 1_456
Cd4 Cd5 3.040797 1_455
Cd4 Mg0 3.165857 1_565
Cd4 Mg0 3.165857 1_455
Cd5 Mg0 3.036165 1_554
Cd5 Mg0 3.036165 1_555
Cd5 Mg1 3.165856 1_555
Cd5 Mg1 3.165856 1_655
