# generated using pymatgen
data_Ca2BePd6
_symmetry_space_group_name_H-M   'P 1'
_cell_length_a   5.94427129
_cell_length_b   5.94427089
_cell_length_c   5.94427064
_cell_angle_alpha   60.00000141
_cell_angle_beta   60.00000366
_cell_angle_gamma   59.99999707
_symmetry_Int_Tables_number   1
_chemical_formula_structural   Ca2BePd6
_chemical_formula_sum   'Ca2 Be1 Pd6'
_cell_volume   148.51858338
_cell_formula_units_Z   1
loop_
 _symmetry_equiv_pos_site_id
 _symmetry_equiv_pos_as_xyz
  1  'x, y, z'
loop_
 _atom_site_type_symbol
 _atom_site_label
 _atom_site_symmetry_multiplicity
 _atom_site_fract_x
 _atom_site_fract_y
 _atom_site_fract_z
 _atom_site_occupancy
  Ca  Ca0  1  0.25000000  0.25000000  0.25000000  1
  Ca  Ca1  1  0.75000000  0.75000000  0.75000000  1
  Be  Be0  1  0.50000000  0.50000000  0.50000000  1
  Pd  Pd0  1  0.76213878  0.23786122  0.23786122  1
  Pd  Pd1  1  0.23786122  0.76213878  0.23786122  1
  Pd  Pd2  1  0.76213878  0.76213878  0.23786122  1
  Pd  Pd3  1  0.23786122  0.23786122  0.76213878  1
  Pd  Pd4  1  0.76213878  0.23786122  0.76213878  1
  Pd  Pd5  1  0.23786122  0.76213878  0.76213878  1
loop_
_geom_bond_atom_site_label_1
_geom_bond_atom_site_label_2
_geom_bond_distance
_geom_bond_site_symmetry_2
Ca0 Pd3 2.973887 1_555
Ca0 Pd3 2.973887 1_554
Ca0 Pd2 2.973887 1_455
Ca0 Pd2 2.973887 1_545
Ca0 Pd1 2.973887 1_555
Ca0 Pd5 2.973887 1_554
Ca0 Pd5 2.973887 1_545
Ca0 Pd1 2.973887 1_545
Ca0 Pd4 2.973887 1_455
Ca0 Pd0 2.973887 1_455
Ca0 Pd0 2.973887 1_555
Ca0 Pd4 2.973887 1_554
Ca1 Pd2 2.973887 1_555
Ca1 Pd2 2.973887 1_556
Ca1 Pd3 2.973887 1_655
Ca1 Pd3 2.973887 1_565
Ca1 Pd0 2.973887 1_556
Ca1 Pd4 2.973887 1_555
Ca1 Pd4 2.973887 1_565
Ca1 Pd0 2.973887 1_565
Ca1 Pd5 2.973887 1_655
Ca1 Pd1 2.973887 1_655
Ca1 Pd1 2.973887 1_556
Ca1 Pd5 2.973887 1_555
Be0 Pd5 2.203661 1_555
Be0 Pd4 2.203661 1_555
Be0 Pd0 2.203661 1_555
Be0 Pd1 2.203661 1_555
Be0 Pd2 2.203662 1_555
Be0 Pd3 2.203662 1_555
