# generated using pymatgen
data_Ho5Bi3
_symmetry_space_group_name_H-M   'P 1'
_cell_length_a   8.19968874
_cell_length_b   9.42009770
_cell_length_c   11.97274589
_cell_angle_alpha   90.00000000
_cell_angle_beta   90.00000000
_cell_angle_gamma   90.00000000
_symmetry_Int_Tables_number   1
_chemical_formula_structural   Ho5Bi3
_chemical_formula_sum   'Ho20 Bi12'
_cell_volume   924.79727009
_cell_formula_units_Z   4
loop_
 _symmetry_equiv_pos_site_id
 _symmetry_equiv_pos_as_xyz
  1  'x, y, z'
loop_
 _atom_site_type_symbol
 _atom_site_label
 _atom_site_symmetry_multiplicity
 _atom_site_fract_x
 _atom_site_fract_y
 _atom_site_fract_z
 _atom_site_occupancy
  Ho  Ho0  1  0.35491900  0.75000000  0.21512744  1
  Ho  Ho1  1  0.85491900  0.75000000  0.28487256  1
  Ho  Ho2  1  0.64508100  0.25000000  0.78487256  1
  Ho  Ho3  1  0.14508100  0.25000000  0.71512744  1
  Ho  Ho4  1  0.69339056  0.56421023  0.05899195  1
  Ho  Ho5  1  0.19339056  0.93578977  0.44100805  1
  Ho  Ho6  1  0.30660944  0.06421023  0.94100805  1
  Ho  Ho7  1  0.80660944  0.43578977  0.55899195  1
  Ho  Ho8  1  0.30660944  0.43578977  0.94100805  1
  Ho  Ho9  1  0.80660944  0.06421023  0.55899195  1
  Ho  Ho10  1  0.69339056  0.93578977  0.05899195  1
  Ho  Ho11  1  0.19339056  0.56421023  0.44100805  1
  Ho  Ho12  1  0.47589559  0.25000000  0.48857863  1
  Ho  Ho13  1  0.97589559  0.25000000  0.01142137  1
  Ho  Ho14  1  0.52410441  0.75000000  0.51142137  1
  Ho  Ho15  1  0.02410441  0.75000000  0.98857863  1
  Ho  Ho16  1  0.31468172  0.25000000  0.21787652  1
  Ho  Ho17  1  0.81468172  0.25000000  0.28212348  1
  Ho  Ho18  1  0.68531828  0.75000000  0.78212348  1
  Ho  Ho19  1  0.18531828  0.75000000  0.71787652  1
  Bi  Bi0  1  0.40726156  0.75000000  0.95792949  1
  Bi  Bi1  1  0.90726156  0.75000000  0.54207051  1
  Bi  Bi2  1  0.59273844  0.25000000  0.04206951  1
  Bi  Bi3  1  0.09273844  0.25000000  0.45793049  1
  Bi  Bi4  1  0.56610697  0.99588985  0.32584512  1
  Bi  Bi5  1  0.06610697  0.50411015  0.17415488  1
  Bi  Bi6  1  0.43389303  0.49588985  0.67415488  1
  Bi  Bi7  1  0.93389303  0.00411015  0.82584512  1
  Bi  Bi8  1  0.43389303  0.00411015  0.67415488  1
  Bi  Bi9  1  0.93389303  0.49588985  0.82584512  1
  Bi  Bi10  1  0.56610697  0.50411015  0.32584512  1
  Bi  Bi11  1  0.06610697  0.99588985  0.17415488  1
loop_
_geom_bond_atom_site_label_1
_geom_bond_atom_site_label_2
_geom_bond_distance
_geom_bond_site_symmetry_2
Bi0 Ho6 3.079472 1_565
Bi0 Ho8 3.079472 1_555
Bi0 Ho18 3.103035 1_555
Bi0 Ho0 3.109132 1_556
Bi0 Ho15 3.163127 1_555
Bi0 Ho10 3.167278 1_556
Bi0 Ho4 3.167278 1_556
Bi0 Ho19 3.401812 1_555
Bi1 Ho7 3.079472 1_555
Bi1 Ho9 3.079472 1_565
Bi1 Ho19 3.103035 1_655
Bi1 Ho1 3.109132 1_555
Bi1 Ho14 3.163127 1_555
Bi1 Ho11 3.167278 1_655
Bi1 Ho5 3.167278 1_655
Bi1 Ho18 3.401812 1_555
Bi2 Ho10 3.079473 1_545
Bi2 Ho4 3.079473 1_555
Bi2 Ho16 3.103043 1_555
Bi2 Ho2 3.109120 1_554
Bi2 Ho13 3.163125 1_555
Bi2 Ho8 3.167273 1_554
Bi2 Ho6 3.167273 1_554
Bi2 Ho17 3.401822 1_555
Bi3 Ho5 3.079473 1_545
Bi3 Ho11 3.079473 1_555
Bi3 Ho17 3.103043 1_455
Bi3 Ho3 3.109120 1_555
Bi3 Ho12 3.163125 1_555
Bi3 Ho9 3.167273 1_455
Bi3 Ho7 3.167273 1_455
Bi3 Ho16 3.401822 1_555
Bi4 Ho12 3.173846 1_565
Bi4 Ho0 3.181380 1_555
Bi4 Ho17 3.187229 1_565
Bi4 Ho14 3.228086 1_555
Bi4 Ho1 3.348752 1_555
Bi4 Ho5 3.400259 1_555
Bi4 Ho10 3.408461 1_555
Bi4 Ho16 3.413394 1_565
Bi4 Ho9 3.477804 1_565
Bi5 Ho13 3.173846 1_455
Bi5 Ho1 3.181380 1_455
Bi5 Ho16 3.187229 1_555
Bi5 Ho15 3.228086 1_554
Bi5 Ho0 3.348752 1_555
Bi5 Ho4 3.400259 1_455
Bi5 Ho11 3.408461 1_555
Bi5 Ho17 3.413394 1_455
Bi5 Ho8 3.477804 1_554
Bi6 Ho14 3.173846 1_555
Bi6 Ho2 3.181380 1_555
Bi6 Ho19 3.187229 1_555
Bi6 Ho12 3.228086 1_555
Bi6 Ho3 3.348752 1_555
Bi6 Ho7 3.400259 1_555
Bi6 Ho8 3.408461 1_555
Bi6 Ho18 3.413394 1_555
Bi6 Ho11 3.477804 1_555
Bi7 Ho15 3.173846 1_645
Bi7 Ho3 3.181380 1_655
Bi7 Ho18 3.187229 1_545
Bi7 Ho13 3.228086 1_556
Bi7 Ho2 3.348752 1_555
Bi7 Ho6 3.400259 1_655
Bi7 Ho9 3.408461 1_555
Bi7 Ho19 3.413394 1_645
Bi7 Ho10 3.477804 1_546
Bi8 Ho14 3.173846 1_545
Bi8 Ho2 3.181380 1_555
Bi8 Ho19 3.187229 1_545
Bi8 Ho12 3.228086 1_555
Bi8 Ho3 3.348752 1_555
Bi8 Ho9 3.400259 1_555
Bi8 Ho6 3.408461 1_555
Bi8 Ho18 3.413394 1_545
Bi8 Ho5 3.477804 1_545
Bi9 Ho15 3.173846 1_655
Bi9 Ho3 3.181380 1_655
Bi9 Ho18 3.187229 1_555
Bi9 Ho13 3.228086 1_556
Bi9 Ho2 3.348752 1_555
Bi9 Ho8 3.400259 1_655
Bi9 Ho7 3.408461 1_555
Bi9 Ho19 3.413394 1_655
Bi9 Ho4 3.477804 1_556
Bi10 Ho12 3.173846 1_555
Bi10 Ho0 3.181380 1_555
Bi10 Ho17 3.187229 1_555
Bi10 Ho14 3.228086 1_555
Bi10 Ho1 3.348752 1_555
Bi10 Ho11 3.400259 1_555
Bi10 Ho4 3.408461 1_555
Bi10 Ho16 3.413394 1_555
Bi10 Ho7 3.477804 1_555
Bi11 Ho13 3.173846 1_465
Bi11 Ho1 3.181380 1_455
Bi11 Ho16 3.187229 1_565
Bi11 Ho15 3.228086 1_554
Bi11 Ho0 3.348752 1_555
Bi11 Ho10 3.400259 1_455
Bi11 Ho5 3.408461 1_555
Bi11 Ho17 3.413394 1_465
Bi11 Ho6 3.477804 1_564
