# generated using pymatgen
data_Be2NiBW3
_symmetry_space_group_name_H-M   'P 1'
_cell_length_a   4.59035752
_cell_length_b   4.59035691
_cell_length_c   10.97198591
_cell_angle_alpha   90.00000000
_cell_angle_beta   90.00000000
_cell_angle_gamma   138.84649801
_symmetry_Int_Tables_number   1
_chemical_formula_structural   Be2NiBW3
_chemical_formula_sum   'Be4 Ni2 B2 W6'
_cell_volume   152.14440745
_cell_formula_units_Z   2
loop_
 _symmetry_equiv_pos_site_id
 _symmetry_equiv_pos_as_xyz
  1  'x, y, z'
loop_
 _atom_site_type_symbol
 _atom_site_label
 _atom_site_symmetry_multiplicity
 _atom_site_fract_x
 _atom_site_fract_y
 _atom_site_fract_z
 _atom_site_occupancy
  Be  Be0  1  0.08389394  0.91610606  0.60136037  1
  Be  Be1  1  0.91610606  0.08389394  0.39863963  1
  Be  Be2  1  0.91610606  0.08389394  0.10136037  1
  Be  Be3  1  0.08389394  0.91610606  0.89863963  1
  Ni  Ni0  1  0.50000000  0.50000000  0.00000000  1
  Ni  Ni1  1  0.50000000  0.50000000  0.50000000  1
  B  B0  1  0.78808177  0.21191823  0.25000000  1
  B  B1  1  0.21191823  0.78808177  0.75000000  1
  W  W0  1  0.50438283  0.49561717  0.25000000  1
  W  W1  1  0.49561717  0.50438283  0.75000000  1
  W  W2  1  0.79116840  0.20883160  0.60885420  1
  W  W3  1  0.20883160  0.79116840  0.39114580  1
  W  W4  1  0.20883160  0.79116840  0.10885420  1
  W  W5  1  0.79116840  0.20883160  0.89114580  1
loop_
_geom_bond_atom_site_label_1
_geom_bond_atom_site_label_2
_geom_bond_distance
_geom_bond_site_symmetry_2
Be0 Ni1 2.087968 1_565
Be0 Ni1 2.087968 1_455
Be0 W2 2.404879 1_455
Be0 W2 2.404879 1_565
Be0 W1 2.416253 1_565
Be0 W1 2.416253 1_455
Be0 W2 2.517321 1_465
Be0 W3 2.544198 1_555
Be1 Ni1 2.087968 1_545
Be1 Ni1 2.087968 1_655
Be1 W3 2.404879 1_655
Be1 W3 2.404879 1_545
Be1 W0 2.416253 1_545
Be1 W0 2.416253 1_655
Be1 W3 2.517321 1_645
Be1 W2 2.544198 1_555
Be2 Ni0 2.087968 1_545
Be2 Ni0 2.087968 1_655
Be2 W4 2.404879 1_655
Be2 W4 2.404879 1_545
Be2 W0 2.416253 1_545
Be2 W0 2.416253 1_655
Be2 W4 2.517321 1_645
Be2 W5 2.544198 1_554
Be3 Ni0 2.087968 1_566
Be3 Ni0 2.087968 1_456
Be3 W5 2.404879 1_455
Be3 W5 2.404879 1_565
Be3 W1 2.416253 1_565
Be3 W1 2.416253 1_455
Be3 W5 2.517321 1_465
Be3 W4 2.544198 1_556
B0 Be1 1.967373 1_555
B0 Be2 1.967373 1_555
B0 W3 2.337764 1_655
B0 W4 2.337764 1_655
B0 W3 2.337764 1_545
B0 W4 2.337764 1_545
B0 W0 2.438394 1_555
B0 W0 2.461531 1_545
B0 W0 2.461531 1_655
B1 Be3 1.967373 1_555
B1 Be0 1.967373 1_555
B1 W5 2.337764 1_455
B1 W2 2.337764 1_455
B1 W5 2.337764 1_565
B1 W2 2.337764 1_565
B1 W1 2.438394 1_555
B1 W1 2.461531 1_565
B1 W1 2.461531 1_455
