# generated using pymatgen
data_Ti3Ga
_symmetry_space_group_name_H-M   'P 1'
_cell_length_a   5.68686926
_cell_length_b   5.68686834
_cell_length_c   4.61893144
_cell_angle_alpha   90.00000000
_cell_angle_beta   90.00000000
_cell_angle_gamma   120.00000538
_symmetry_Int_Tables_number   1
_chemical_formula_structural   Ti3Ga
_chemical_formula_sum   'Ti6 Ga2'
_cell_volume   129.36552090
_cell_formula_units_Z   2
loop_
 _symmetry_equiv_pos_site_id
 _symmetry_equiv_pos_as_xyz
  1  'x, y, z'
loop_
 _atom_site_type_symbol
 _atom_site_label
 _atom_site_symmetry_multiplicity
 _atom_site_fract_x
 _atom_site_fract_y
 _atom_site_fract_z
 _atom_site_occupancy
  Ti  Ti0  1  0.17059792  0.34119383  0.75000000  1
  Ti  Ti1  1  0.82940208  0.17059792  0.25000000  1
  Ti  Ti2  1  0.82940208  0.65880617  0.25000000  1
  Ti  Ti3  1  0.17059792  0.82940208  0.75000000  1
  Ti  Ti4  1  0.65880617  0.82940208  0.75000000  1
  Ti  Ti5  1  0.34119383  0.17059792  0.25000000  1
  Ga  Ga0  1  0.66666700  0.33333300  0.75000000  1
  Ga  Ga1  1  0.33333300  0.66666700  0.25000000  1
loop_
_geom_bond_atom_site_label_1
_geom_bond_atom_site_label_2
_geom_bond_distance
_geom_bond_site_symmetry_2
Ti0 Ti3 2.776376 1_555
Ti0 Ti4 2.776376 1_555
Ti0 Ti5 2.856089 1_555
Ti0 Ti5 2.856089 1_556
Ti0 Ti1 2.856100 1_456
Ti0 Ti1 2.856100 1_455
Ti0 Ti3 2.910492 1_545
Ti0 Ti4 2.910492 1_445
Ti1 Ti2 2.776376 1_555
Ti1 Ti5 2.776376 1_555
Ti1 Ti4 2.856100 1_544
Ti1 Ti4 2.856100 1_545
Ti1 Ti2 2.910492 1_545
Ti1 Ti5 2.910493 1_655
Ti2 Ti5 2.776376 1_555
Ti2 Ti4 2.856089 1_554
Ti2 Ti4 2.856089 1_555
Ti2 Ti3 2.856100 1_654
Ti2 Ti3 2.856100 1_655
Ti2 Ti5 2.910492 1_665
Ti3 Ti4 2.776376 1_555
Ti3 Ti5 2.856100 1_566
Ti3 Ti5 2.856100 1_565
Ti3 Ti4 2.910493 1_455
Ga0 Ti1 2.811231 1_555
Ga0 Ti1 2.811231 1_556
Ga0 Ti2 2.811240 1_555
Ga0 Ti2 2.811240 1_556
Ga0 Ti5 2.811240 1_555
Ga0 Ti5 2.811240 1_556
Ga0 Ti4 2.843695 1_555
Ga0 Ti0 2.843695 1_555
Ga0 Ti3 2.843698 1_545
Ga0 Ti3 2.843698 1_655
Ga0 Ti4 2.843701 1_545
Ga0 Ti0 2.843701 1_655
Ga1 Ti3 2.811231 1_554
Ga1 Ti3 2.811231 1_555
Ga1 Ti0 2.811240 1_555
Ga1 Ti0 2.811240 1_554
Ga1 Ti4 2.811240 1_554
Ga1 Ti4 2.811240 1_555
Ga1 Ti5 2.843695 1_555
Ga1 Ti2 2.843695 1_555
Ga1 Ti1 2.843698 1_565
Ga1 Ti1 2.843698 1_455
Ga1 Ti5 2.843701 1_565
Ga1 Ti2 2.843701 1_455
