# generated using pymatgen
data_Y6Ga7PPd16
_symmetry_space_group_name_H-M   'P 1'
_cell_length_a   8.97282606
_cell_length_b   8.97283348
_cell_length_c   8.97283466
_cell_angle_alpha   60.00003310
_cell_angle_beta   60.00000232
_cell_angle_gamma   59.99991962
_symmetry_Int_Tables_number   1
_chemical_formula_structural   Y6Ga7PPd16
_chemical_formula_sum   'Y6 Ga7 P1 Pd16'
_cell_volume   510.82645058
_cell_formula_units_Z   1
loop_
 _symmetry_equiv_pos_site_id
 _symmetry_equiv_pos_as_xyz
  1  'x, y, z'
loop_
 _atom_site_type_symbol
 _atom_site_label
 _atom_site_symmetry_multiplicity
 _atom_site_fract_x
 _atom_site_fract_y
 _atom_site_fract_z
 _atom_site_occupancy
  Y  Y0  1  0.71534676  0.28465324  0.28465224  1
  Y  Y1  1  0.28465324  0.71534676  0.71534776  1
  Y  Y2  1  0.28465324  0.71534676  0.28465324  1
  Y  Y3  1  0.71534676  0.28465324  0.71534676  1
  Y  Y4  1  0.28465224  0.28465224  0.71534676  1
  Y  Y5  1  0.71534776  0.71534776  0.28465324  1
  Ga  Ga0  1  0.00000000  0.00000000  0.00000000  1
  Ga  Ga1  1  0.50000000  0.00000000  0.00000000  1
  Ga  Ga2  1  0.00000000  0.50000000  0.50000000  1
  Ga  Ga3  1  0.00000000  0.50000000  0.00000000  1
  Ga  Ga4  1  0.50000000  0.00000000  0.50000000  1
  Ga  Ga5  1  0.00000000  0.00000000  0.50000000  1
  Ga  Ga6  1  0.50000000  0.50000000  0.00000000  1
  P  P0  1  0.50000000  0.50000000  0.50000000  1
  Pd  Pd0  1  0.11894000  0.11894000  0.11894000  1
  Pd  Pd1  1  0.88106000  0.88106000  0.88106000  1
  Pd  Pd2  1  0.11894000  0.11894000  0.64317999  1
  Pd  Pd3  1  0.11894000  0.64317999  0.11894000  1
  Pd  Pd4  1  0.88106000  0.88106000  0.35682001  1
  Pd  Pd5  1  0.88106000  0.35682001  0.88106000  1
  Pd  Pd6  1  0.64317999  0.11894000  0.11894100  1
  Pd  Pd7  1  0.35682001  0.88106000  0.88105900  1
  Pd  Pd8  1  0.33220189  0.33220189  0.33220189  1
  Pd  Pd9  1  0.66779811  0.66779811  0.66779811  1
  Pd  Pd10  1  0.33220189  0.33220189  0.00339434  1
  Pd  Pd11  1  0.33220189  0.00339434  0.33220189  1
  Pd  Pd12  1  0.66779811  0.66779811  0.99660566  1
  Pd  Pd13  1  0.66779811  0.99660566  0.66779811  1
  Pd  Pd14  1  0.00339534  0.33220189  0.33220189  1
  Pd  Pd15  1  0.99660466  0.66779811  0.66779811  1
loop_
_geom_bond_atom_site_label_1
_geom_bond_atom_site_label_2
_geom_bond_distance
_geom_bond_site_symmetry_2
Ga0 Pd7 2.614162 1_544
Ga0 Pd6 2.614162 1_455
Ga0 Pd5 2.614165 1_454
Ga0 Pd3 2.614165 1_545
Ga0 Pd0 2.614166 1_555
Ga0 Pd1 2.614166 1_444
Ga0 Pd4 2.614168 1_445
Ga0 Pd2 2.614168 1_554
Ga1 Pd10 2.590351 1_555
Ga1 Pd12 2.590351 1_544
Ga1 Pd11 2.590354 1_555
Ga1 Pd13 2.590354 1_544
Ga1 Pd1 2.794574 1_544
Ga1 Pd0 2.794574 1_555
Ga1 Pd6 2.794585 1_555
Ga1 Pd7 2.794585 1_544
Ga1 Y3 3.202709 1_554
Ga1 Y2 3.202709 1_545
Ga1 Y5 3.202710 1_545
Ga1 Y4 3.202710 1_554
Ga2 Pd15 2.590348 1_455
Ga2 Pd14 2.590348 1_555
Ga2 Pd9 2.590349 1_455
Ga2 Pd8 2.590349 1_555
Ga2 Pd4 2.794577 1_455
Ga2 Pd2 2.794577 1_555
Ga2 Pd5 2.794580 1_455
Ga2 Pd3 2.794580 1_555
Ga2 Y4 3.202696 1_555
Ga2 Y5 3.202696 1_455
Ga2 Y2 3.202708 1_555
Ga2 Y3 3.202708 1_455
Ga3 Pd10 2.590349 1_555
Ga3 Pd12 2.590349 1_454
Ga3 Pd14 2.590357 1_555
Ga3 Pd15 2.590357 1_454
Ga3 Pd1 2.794577 1_454
Ga3 Pd0 2.794577 1_555
Ga3 Pd3 2.794578 1_555
Ga3 Pd5 2.794578 1_454
Ga3 Y1 3.202707 1_554
Ga3 Y0 3.202707 1_455
Ga3 Y5 3.202709 1_455
Ga3 Y4 3.202709 1_554
Ga4 Pd8 2.590352 1_555
Ga4 Pd9 2.590352 1_545
Ga4 Pd13 2.590352 1_545
Ga4 Pd11 2.590352 1_555
Ga4 Pd6 2.794572 1_555
Ga4 Pd7 2.794572 1_545
Ga4 Pd4 2.794574 1_545
Ga4 Pd2 2.794574 1_555
Ga4 Y4 3.202697 1_555
Ga4 Y5 3.202697 1_545
Ga4 Y0 3.202708 1_555
Ga4 Y1 3.202708 1_545
Ga5 Pd11 2.590351 1_555
Ga5 Pd13 2.590351 1_445
Ga5 Pd14 2.590357 1_555
Ga5 Pd15 2.590357 1_445
Ga5 Pd2 2.794578 1_555
Ga5 Pd4 2.794578 1_445
Ga5 Pd1 2.794580 1_445
Ga5 Pd0 2.794580 1_555
Ga5 Y3 3.202704 1_455
Ga5 Y2 3.202704 1_545
Ga5 Y1 3.202709 1_545
Ga5 Y0 3.202709 1_455
Ga6 Pd12 2.590353 1_554
Ga6 Pd10 2.590353 1_555
Ga6 Pd8 2.590355 1_555
Ga6 Pd9 2.590355 1_554
Ga6 Pd5 2.794574 1_554
Ga6 Pd3 2.794574 1_555
Ga6 Pd7 2.794577 1_554
Ga6 Pd6 2.794577 1_555
Ga6 Y0 3.202698 1_555
Ga6 Y1 3.202698 1_554
Ga6 Y2 3.202705 1_555
Ga6 Y3 3.202705 1_554
P0 Y3 2.732641 1_555
P0 Y2 2.732641 1_555
P0 Y1 2.732648 1_555
P0 Y0 2.732648 1_555
P0 Y5 2.732657 1_555
P0 Y4 2.732657 1_555
Pd0 Y0 2.996284 1_455
Pd0 Y2 2.996289 1_545
Pd0 Y4 2.996290 1_554
Pd1 Y1 2.996284 1_655
Pd1 Y3 2.996289 1_565
Pd1 Y5 2.996290 1_556
Pd2 Y4 2.996275 1_555
Pd2 Y3 2.996285 1_455
Pd2 Y1 2.996287 1_545
Pd3 Y5 2.996278 1_455
Pd3 Y1 2.996284 1_554
Pd3 Y2 2.996290 1_555
Pd4 Y5 2.996275 1_555
Pd4 Y2 2.996285 1_655
Pd4 Y0 2.996287 1_565
Pd5 Y4 2.996278 1_655
Pd5 Y0 2.996284 1_556
Pd5 Y3 2.996290 1_555
Pd6 Y0 2.996275 1_555
Pd6 Y5 2.996281 1_545
Pd6 Y3 2.996300 1_554
Pd7 Y1 2.996275 1_555
Pd7 Y4 2.996281 1_565
Pd7 Y2 2.996300 1_556
Pd8 Y0 3.071097 1_555
Pd8 Y4 3.071098 1_555
Pd8 Y2 3.071103 1_555
Pd9 Y1 3.071097 1_555
Pd9 Y5 3.071098 1_555
Pd9 Y3 3.071103 1_555
Pd10 Y3 3.071101 1_554
Pd10 Y1 3.071101 1_554
Pd10 Y4 3.071114 1_554
Pd11 Y5 3.071100 1_545
Pd11 Y2 3.071103 1_545
Pd11 Y1 3.071111 1_545
Pd12 Y2 3.071101 1_556
Pd12 Y0 3.071101 1_556
Pd12 Y5 3.071114 1_556
Pd13 Y4 3.071100 1_565
Pd13 Y3 3.071103 1_565
Pd13 Y0 3.071111 1_565
Pd14 Y5 3.071105 1_455
Pd14 Y3 3.071107 1_455
Pd14 Y0 3.071116 1_455
Pd15 Y4 3.071105 1_655
Pd15 Y2 3.071107 1_655
Pd15 Y1 3.071116 1_655
