# generated using pymatgen
data_K2TcN3
_symmetry_space_group_name_H-M   'P 1'
_cell_length_a   6.56307131
_cell_length_b   6.56307177
_cell_length_c   12.98143287
_cell_angle_alpha   90.00000000
_cell_angle_beta   90.00000000
_cell_angle_gamma   125.79682613
_symmetry_Int_Tables_number   1
_chemical_formula_structural   K2TcN3
_chemical_formula_sum   'K8 Tc4 N12'
_cell_volume   453.53341099
_cell_formula_units_Z   4
loop_
 _symmetry_equiv_pos_site_id
 _symmetry_equiv_pos_as_xyz
  1  'x, y, z'
loop_
 _atom_site_type_symbol
 _atom_site_label
 _atom_site_symmetry_multiplicity
 _atom_site_fract_x
 _atom_site_fract_y
 _atom_site_fract_z
 _atom_site_occupancy
  K  K0  1  0.86681737  0.13318263  0.42446885  1
  K  K1  1  0.36681737  0.63318263  0.07553115  1
  K  K2  1  0.63318263  0.36681737  0.92446885  1
  K  K3  1  0.13318263  0.86681737  0.57553115  1
  K  K4  1  0.44451460  0.55548540  0.63921885  1
  K  K5  1  0.55548540  0.44451460  0.36078115  1
  K  K6  1  0.05548540  0.94451460  0.13921885  1
  K  K7  1  0.94451460  0.05548540  0.86078115  1
  Tc  Tc0  1  0.75321996  0.24678004  0.66990293  1
  Tc  Tc1  1  0.74678004  0.25321996  0.16990293  1
  Tc  Tc2  1  0.24678004  0.75321996  0.33009707  1
  Tc  Tc3  1  0.25321996  0.74678004  0.83009707  1
  N  N0  1  0.96419262  0.53580738  0.75000000  1
  N  N1  1  0.53580738  0.96419262  0.25000000  1
  N  N2  1  0.03580738  0.46419262  0.25000000  1
  N  N3  1  0.46419262  0.03580738  0.75000000  1
  N  N4  1  0.39738397  0.60261603  0.86050447  1
  N  N5  1  0.60261603  0.39738397  0.13949553  1
  N  N6  1  0.10261603  0.89738397  0.36050447  1
  N  N7  1  0.67219389  0.32780611  0.55821109  1
  N  N8  1  0.17219389  0.82780611  0.94178891  1
  N  N9  1  0.82780611  0.17219389  0.05821109  1
  N  N10  1  0.32780611  0.67219389  0.44178891  1
  N  N11  1  0.89738397  0.10261603  0.63949553  1
loop_
_geom_bond_atom_site_label_1
_geom_bond_atom_site_label_2
_geom_bond_distance
_geom_bond_site_symmetry_2
K0 N11 2.814112 1_555
K0 N7 2.861128 1_555
K0 N1 2.874115 1_545
K0 N2 2.874115 1_655
K0 N6 2.877683 1_645
K0 N10 3.032830 1_545
K0 N10 3.032830 1_655
K1 N4 2.814112 1_554
K1 N8 2.861128 1_554
K1 N2 2.874115 1_555
K1 N1 2.874115 1_555
K1 N5 2.877683 1_555
K1 N9 3.032830 1_455
K1 N9 3.032830 1_565
K2 N5 2.814112 1_556
K2 N9 2.861128 1_556
K2 N0 2.874115 1_555
K2 N3 2.874115 1_555
K2 N4 2.877683 1_555
K2 N8 3.032830 1_655
K2 N8 3.032830 1_545
K3 N6 2.814112 1_555
K3 N10 2.861128 1_555
K3 N3 2.874115 1_565
K3 N0 2.874115 1_455
K3 N11 2.877683 1_465
K3 N7 3.032830 1_565
K3 N7 3.032830 1_455
K4 N7 2.860704 1_555
K4 N10 2.903158 1_555
K4 N4 2.924918 1_555
K4 N11 3.040233 1_455
K4 N11 3.040233 1_565
K5 N10 2.860704 1_555
K5 N7 2.903158 1_555
K5 N5 2.924918 1_555
K5 N6 3.040233 1_655
K5 N6 3.040233 1_545
K6 N9 2.860704 1_465
K6 N8 2.903158 1_554
K6 N6 2.924918 1_555
K6 N5 3.040233 1_565
K6 N5 3.040233 1_455
K7 N8 2.860704 1_645
K7 N9 2.903158 1_556
K7 N11 2.924918 1_555
K7 N4 3.040233 1_545
K7 N4 3.040233 1_655
N0 Tc3 1.877238 1_655
N0 Tc0 1.877238 1_555
N1 Tc2 1.877238 1_555
N1 Tc1 1.877238 1_565
N2 Tc1 1.877238 1_455
N2 Tc2 1.877238 1_555
N3 Tc0 1.877238 1_555
N3 Tc3 1.877238 1_545
N4 Tc3 1.730171 1_555
N5 Tc1 1.730171 1_555
N6 Tc2 1.730171 1_555
N7 Tc0 1.731665 1_555
N8 Tc3 1.731665 1_555
N9 Tc1 1.731665 1_555
N10 Tc2 1.731665 1_555
N11 Tc0 1.730171 1_555
