# generated using pymatgen
data_Hf3ZnAu2C
_symmetry_space_group_name_H-M   'P 1'
_cell_length_a   8.65187002
_cell_length_b   8.65186995
_cell_length_c   8.65187099
_cell_angle_alpha   60.00000351
_cell_angle_beta   60.00000374
_cell_angle_gamma   60.00000226
_symmetry_Int_Tables_number   1
_chemical_formula_structural   Hf3ZnAu2C
_chemical_formula_sum   'Hf12 Zn4 Au8 C4'
_cell_volume   457.94680910
_cell_formula_units_Z   4
loop_
 _symmetry_equiv_pos_site_id
 _symmetry_equiv_pos_as_xyz
  1  'x, y, z'
loop_
 _atom_site_type_symbol
 _atom_site_label
 _atom_site_symmetry_multiplicity
 _atom_site_fract_x
 _atom_site_fract_y
 _atom_site_fract_z
 _atom_site_occupancy
  Hf  Hf0  1  0.43808277  0.43808277  0.06191723  1
  Hf  Hf1  1  0.06191723  0.43808277  0.06191723  1
  Hf  Hf2  1  0.43808277  0.06191723  0.06191723  1
  Hf  Hf3  1  0.06191723  0.06191723  0.43808277  1
  Hf  Hf4  1  0.43808277  0.06191723  0.43808277  1
  Hf  Hf5  1  0.06191723  0.43808277  0.43808277  1
  Hf  Hf6  1  0.81191723  0.81191723  0.18808277  1
  Hf  Hf7  1  0.18808277  0.81191723  0.18808277  1
  Hf  Hf8  1  0.81191723  0.18808277  0.18808277  1
  Hf  Hf9  1  0.18808277  0.18808277  0.81191723  1
  Hf  Hf10  1  0.81191723  0.18808277  0.81191723  1
  Hf  Hf11  1  0.18808277  0.81191723  0.81191723  1
  Zn  Zn0  1  0.62500000  0.62500000  0.12500000  1
  Zn  Zn1  1  0.62500000  0.12500000  0.62500000  1
  Zn  Zn2  1  0.12500000  0.62500000  0.62500000  1
  Zn  Zn3  1  0.62500000  0.62500000  0.62500000  1
  Au  Au0  1  0.83861975  0.83861975  0.48414176  1
  Au  Au1  1  0.83861975  0.48414176  0.83861975  1
  Au  Au2  1  0.48414176  0.83861975  0.83861975  1
  Au  Au3  1  0.83861975  0.83861975  0.83861975  1
  Au  Au4  1  0.41138025  0.41138025  0.76585824  1
  Au  Au5  1  0.41138025  0.76585824  0.41138025  1
  Au  Au6  1  0.76585824  0.41138025  0.41138025  1
  Au  Au7  1  0.41138025  0.41138025  0.41138025  1
  C  C0  1  0.12500000  0.12500000  0.62500000  1
  C  C1  1  0.12500000  0.62500000  0.12500000  1
  C  C2  1  0.62500000  0.12500000  0.12500000  1
  C  C3  1  0.12500000  0.12500000  0.12500000  1
loop_
_geom_bond_atom_site_label_1
_geom_bond_atom_site_label_2
_geom_bond_distance
_geom_bond_site_symmetry_2
Au0 Zn1 2.688499 1_565
Au0 Zn2 2.688499 1_655
Au0 Zn3 2.688506 1_555
Au0 Hf8 2.811534 1_565
Au0 Hf7 2.811534 1_655
Au0 Hf6 2.811539 1_555
Au0 Hf3 3.133088 1_665
Au0 Hf5 3.133096 1_655
Au0 Hf4 3.133096 1_565
Au1 Zn2 2.688499 1_655
Au1 Zn0 2.688499 1_556
Au1 Zn3 2.688506 1_555
Au1 Hf9 2.811534 1_655
Au1 Hf8 2.811534 1_556
Au1 Hf10 2.811539 1_555
Au1 Hf1 3.133088 1_656
Au1 Hf0 3.133096 1_556
Au1 Hf5 3.133096 1_655
Au2 Zn1 2.688499 1_565
Au2 Zn0 2.688499 1_556
Au2 Zn3 2.688506 1_555
Au2 Hf9 2.811534 1_565
Au2 Hf7 2.811534 1_556
Au2 Hf11 2.811539 1_555
Au2 Hf2 3.133088 1_566
Au2 Hf0 3.133096 1_556
Au2 Hf4 3.133096 1_565
Au3 Zn1 2.688504 1_565
Au3 Zn2 2.688504 1_655
Au3 Zn0 2.688504 1_556
Au3 Hf10 2.811530 1_565
Au3 Hf11 2.811530 1_655
Au3 Hf6 2.811531 1_556
Au3 Hf1 3.133093 1_656
Au3 Hf2 3.133093 1_566
Au3 Hf3 3.133093 1_665
Au4 Zn1 2.688499 1_555
Au4 Zn2 2.688499 1_555
Au4 Zn3 2.688506 1_555
Au4 Hf2 2.811534 1_556
Au4 Hf1 2.811534 1_556
Au4 Hf0 2.811539 1_556
Au4 Hf9 3.133088 1_555
Au4 Hf11 3.133096 1_555
Au4 Hf10 3.133096 1_555
Au5 Zn2 2.688499 1_555
Au5 Zn0 2.688499 1_555
Au5 Zn3 2.688506 1_555
Au5 Hf3 2.811534 1_565
Au5 Hf2 2.811534 1_565
Au5 Hf4 2.811539 1_565
Au5 Hf7 3.133088 1_555
Au5 Hf6 3.133096 1_555
Au5 Hf11 3.133096 1_555
Au6 Zn1 2.688499 1_555
Au6 Zn0 2.688499 1_555
Au6 Zn3 2.688506 1_555
Au6 Hf3 2.811534 1_655
Au6 Hf1 2.811534 1_655
Au6 Hf5 2.811539 1_655
Au6 Hf8 3.133088 1_555
Au6 Hf6 3.133096 1_555
Au6 Hf10 3.133096 1_555
Au7 Zn1 2.688504 1_555
Au7 Zn2 2.688504 1_555
Au7 Zn0 2.688504 1_555
Au7 Hf4 2.811530 1_555
Au7 Hf5 2.811530 1_555
Au7 Hf0 2.811531 1_555
Au7 Hf7 3.133093 1_555
Au7 Hf8 3.133093 1_555
Au7 Hf9 3.133093 1_555
C0 Hf9 2.296560 1_555
C0 Hf3 2.296560 1_555
C0 Hf11 2.296560 1_545
C0 Hf5 2.296560 1_555
C0 Hf4 2.296560 1_555
C0 Hf10 2.296560 1_455
C1 Hf7 2.296560 1_555
C1 Hf1 2.296560 1_555
C1 Hf0 2.296560 1_555
C1 Hf6 2.296560 1_455
C1 Hf11 2.296561 1_554
C1 Hf5 2.296561 1_555
C2 Hf2 2.296560 1_555
C2 Hf8 2.296560 1_555
C2 Hf0 2.296560 1_555
C2 Hf6 2.296560 1_545
C2 Hf4 2.296561 1_555
C2 Hf10 2.296561 1_554
C3 Hf1 2.296560 1_555
C3 Hf7 2.296560 1_545
C3 Hf8 2.296560 1_455
C3 Hf2 2.296560 1_555
C3 Hf3 2.296561 1_555
C3 Hf9 2.296561 1_554
