# generated using pymatgen
data_Hf5InGeSb2
_symmetry_space_group_name_H-M   'P 1'
_cell_length_a   8.57066318
_cell_length_b   8.59493541
_cell_length_c   5.79240237
_cell_angle_alpha   90.00000000
_cell_angle_beta   90.00000000
_cell_angle_gamma   120.09373191
_symmetry_Int_Tables_number   1
_chemical_formula_structural   Hf5InGeSb2
_chemical_formula_sum   'Hf10 In2 Ge2 Sb4'
_cell_volume   369.17767543
_cell_formula_units_Z   2
loop_
 _symmetry_equiv_pos_site_id
 _symmetry_equiv_pos_as_xyz
  1  'x, y, z'
loop_
 _atom_site_type_symbol
 _atom_site_label
 _atom_site_symmetry_multiplicity
 _atom_site_fract_x
 _atom_site_fract_y
 _atom_site_fract_z
 _atom_site_occupancy
  Hf  Hf0  1  0.26416939  0.00049969  0.25000000  1
  Hf  Hf1  1  0.26416939  0.26366971  0.75000000  1
  Hf  Hf2  1  0.00022892  0.73370416  0.75000000  1
  Hf  Hf3  1  0.00022892  0.26652476  0.25000000  1
  Hf  Hf4  1  0.73627380  0.73528077  0.25000000  1
  Hf  Hf5  1  0.73627380  0.00099303  0.75000000  1
  Hf  Hf6  1  0.33032087  0.66516194  0.00000000  1
  Hf  Hf7  1  0.66613588  0.33306794  0.50000000  1
  Hf  Hf8  1  0.66613588  0.33306794  0.00000000  1
  Hf  Hf9  1  0.33032087  0.66516194  0.50000000  1
  In  In0  1  0.60875447  0.99878011  0.25000000  1
  In  In1  1  0.60875447  0.60997437  0.75000000  1
  Ge  Ge0  1  0.99893535  0.99946668  0.00000000  1
  Ge  Ge1  1  0.99893535  0.99946668  0.50000000  1
  Sb  Sb0  1  0.99816443  0.39197547  0.75000000  1
  Sb  Sb1  1  0.99816443  0.60618796  0.25000000  1
  Sb  Sb2  1  0.39701588  0.39768093  0.25000000  1
  Sb  Sb3  1  0.39701588  0.99933495  0.75000000  1
loop_
_geom_bond_atom_site_label_1
_geom_bond_atom_site_label_2
_geom_bond_distance
_geom_bond_site_symmetry_2
Hf0 In0 2.960761 1_545
Hf0 Sb1 2.989165 1_445
Hf0 Sb2 3.008687 1_555
Hf0 Sb3 3.113821 1_545
Hf0 Sb3 3.113821 1_544
Hf1 In1 2.960761 1_555
Hf1 Sb0 2.989159 1_455
Hf1 Sb3 3.008687 1_545
Hf1 Sb2 3.113821 1_556
Hf1 Sb2 3.113821 1_555
Hf2 Sb0 2.928304 1_455
Hf2 In1 2.968177 1_455
Hf2 Sb3 2.998546 1_555
Hf2 Sb1 3.093550 1_455
Hf2 Sb1 3.093550 1_456
Hf3 Sb1 2.928295 1_455
Hf3 In0 2.968177 1_445
Hf3 Sb2 2.998546 1_555
Hf3 Sb0 3.093547 1_454
Hf3 Sb0 3.093547 1_455
Hf4 Sb2 2.900546 1_555
Hf4 Sb1 2.960865 1_555
Hf4 In0 2.967465 1_555
Hf4 In1 3.092245 1_555
Hf4 In1 3.092245 1_554
Hf5 Sb3 2.900546 1_545
Hf5 Sb0 2.960858 1_555
Hf5 In1 2.967464 1_545
Hf5 In0 3.092246 1_545
Hf5 In0 3.092246 1_546
Hf6 Sb1 3.001854 1_455
Hf6 Sb0 3.001865 1_454
Hf6 Sb3 3.004463 1_554
Hf6 Sb2 3.004485 1_555
Hf6 In0 3.025187 1_555
Hf6 In1 3.025201 1_554
Hf7 Sb1 3.001080 1_555
Hf7 Sb0 3.001083 1_555
Hf7 Sb3 3.001677 1_545
Hf7 Sb2 3.001677 1_555
Hf7 In0 3.029358 1_545
Hf7 In1 3.029358 1_555
Hf8 Sb1 3.001080 1_555
Hf8 Sb0 3.001083 1_554
Hf8 Sb3 3.001677 1_544
Hf8 Sb2 3.001677 1_555
Hf8 In0 3.029358 1_545
Hf8 In1 3.029358 1_554
Hf9 Sb1 3.001854 1_455
Hf9 Sb0 3.001865 1_455
Hf9 Sb3 3.004463 1_555
Hf9 Sb2 3.004485 1_555
Hf9 In0 3.025187 1_555
Hf9 In1 3.025201 1_555
Ge0 Hf4 2.682270 1_555
Ge0 Hf5 2.682277 1_564
Ge0 Hf0 2.691545 1_665
Ge0 Hf1 2.691552 1_664
Ge0 Hf2 2.709269 1_654
Ge0 Hf3 2.709283 1_665
Ge1 Hf4 2.682270 1_555
Ge1 Hf5 2.682277 1_565
Ge1 Hf0 2.691545 1_665
Ge1 Hf1 2.691552 1_665
Ge1 Hf2 2.709269 1_655
Ge1 Hf3 2.709283 1_665
