# generated using pymatgen
data_Ta16Co3Cu5N4
_symmetry_space_group_name_H-M   'P 1'
_cell_length_a   8.20196352
_cell_length_b   8.19807243
_cell_length_c   8.19807221
_cell_angle_alpha   59.99999692
_cell_angle_beta   60.01568904
_cell_angle_gamma   60.01569588
_symmetry_Int_Tables_number   1
_chemical_formula_structural   Ta16Co3Cu5N4
_chemical_formula_sum   'Ta16 Co3 Cu5 N4'
_cell_volume   389.87849930
_cell_formula_units_Z   1
loop_
 _symmetry_equiv_pos_site_id
 _symmetry_equiv_pos_as_xyz
  1  'x, y, z'
loop_
 _atom_site_type_symbol
 _atom_site_label
 _atom_site_symmetry_multiplicity
 _atom_site_fract_x
 _atom_site_fract_y
 _atom_site_fract_z
 _atom_site_occupancy
  Ta  Ta0  1  0.11422826  0.62859025  0.62859025  1
  Ta  Ta1  1  0.63224681  0.12115719  0.62329750  1
  Ta  Ta2  1  0.63224681  0.62329750  0.12115719  1
  Ta  Ta3  1  0.63224681  0.62329750  0.62329750  1
  Ta  Ta4  1  0.81760679  0.81552201  0.18343610  1
  Ta  Ta5  1  0.18463064  0.18629004  0.81453966  1
  Ta  Ta6  1  0.81760679  0.18343610  0.81552201  1
  Ta  Ta7  1  0.18463064  0.81453966  0.18629004  1
  Ta  Ta8  1  0.18463064  0.81453966  0.81453966  1
  Ta  Ta9  1  0.81760679  0.18343610  0.18343610  1
  Ta  Ta10  1  0.43738835  0.43634445  0.06313410  1
  Ta  Ta11  1  0.06493571  0.06302696  0.43601916  1
  Ta  Ta12  1  0.43738835  0.06313410  0.43634445  1
  Ta  Ta13  1  0.06493571  0.43601916  0.06302696  1
  Ta  Ta14  1  0.06493571  0.43601916  0.43601916  1
  Ta  Ta15  1  0.43738835  0.06313410  0.06313410  1
  Co  Co0  1  0.82356316  0.51600375  0.83021605  1
  Co  Co1  1  0.82356316  0.83021605  0.51600375  1
  Co  Co2  1  0.82356316  0.83021605  0.83021605  1
  Cu  Cu0  1  0.75401173  0.41533009  0.41533009  1
  Cu  Cu1  1  0.41611324  0.75002188  0.41693244  1
  Cu  Cu2  1  0.41611324  0.41693244  0.75002188  1
  Cu  Cu3  1  0.41611324  0.41693244  0.41693244  1
  Cu  Cu4  1  0.49892997  0.83368934  0.83368934  1
  N  N0  1  0.62379419  0.12540227  0.12540227  1
  N  N1  1  0.12652625  0.62250538  0.12548469  1
  N  N2  1  0.12652625  0.12548469  0.62250538  1
  N  N3  1  0.12652625  0.12548469  0.12548469  1
loop_
_geom_bond_atom_site_label_1
_geom_bond_atom_site_label_2
_geom_bond_distance
_geom_bond_site_symmetry_2
Co0 Ta2 2.429490 1_556
Co0 Ta3 2.429490 1_555
Co0 Ta0 2.450032 1_655
Co0 Co1 2.575935 1_555
Co0 Co2 2.575935 1_555
Co0 Cu4 2.634473 1_555
Co0 Ta6 2.813837 1_555
Co0 Ta9 2.813845 1_556
Co0 Ta5 2.838830 1_655
Co0 Ta10 2.979977 1_556
Co0 Ta14 3.036387 1_655
Co0 Ta13 3.036401 1_656
Co1 Ta3 2.429490 1_555
Co1 Ta1 2.429491 1_565
Co1 Ta0 2.450033 1_655
Co1 Co2 2.575935 1_555
Co1 Cu4 2.634473 1_555
Co1 Ta4 2.813836 1_555
Co1 Ta9 2.813845 1_565
Co1 Ta7 2.838830 1_655
Co1 Ta12 2.979977 1_565
Co1 Ta14 3.036388 1_655
Co1 Ta11 3.036401 1_665
Co2 Ta2 2.429490 1_556
Co2 Ta1 2.429490 1_565
Co2 Ta0 2.450033 1_655
Co2 Cu4 2.634477 1_555
Co2 Ta4 2.813853 1_556
Co2 Ta6 2.813853 1_565
Co2 Ta8 2.838834 1_655
Co2 Ta15 2.979984 1_566
Co2 Ta11 3.036394 1_665
Co2 Ta13 3.036394 1_656
Cu0 Ta3 2.512757 1_555
Cu0 Ta1 2.512777 1_555
Cu0 Ta2 2.512777 1_555
Cu0 Ta14 2.730279 1_655
Cu0 Ta13 2.730284 1_655
Cu0 Ta11 2.730284 1_655
Cu0 Cu2 2.758355 1_555
Cu0 Cu1 2.758356 1_555
Cu0 Cu3 2.758364 1_555
Cu0 Ta4 3.021936 1_555
Cu0 Ta6 3.021936 1_555
Cu0 Ta9 3.021944 1_555
Cu1 Ta3 2.546227 1_555
Cu1 Ta2 2.546234 1_555
Cu1 Ta0 2.564121 1_555
Cu1 Cu2 2.730691 1_555
Cu1 Cu3 2.730691 1_555
Cu1 Ta11 2.732927 1_565
Cu1 Ta15 2.743862 1_565
Cu1 Ta12 2.743867 1_565
Cu1 Ta8 3.007340 1_555
Cu1 Ta7 3.007340 1_555
Cu1 Ta4 3.039014 1_555
Cu2 Ta3 2.546227 1_555
Cu2 Ta1 2.546234 1_555
Cu2 Ta0 2.564122 1_555
Cu2 Cu3 2.730691 1_555
Cu2 Ta13 2.732927 1_556
Cu2 Ta15 2.743862 1_556
Cu2 Ta10 2.743866 1_556
Cu2 Ta5 3.007340 1_555
Cu2 Ta8 3.007340 1_555
Cu2 Ta6 3.039015 1_555
Cu3 Ta2 2.546229 1_555
Cu3 Ta1 2.546229 1_555
Cu3 Ta0 2.564117 1_555
Cu3 Ta14 2.732923 1_555
Cu3 Ta10 2.743858 1_555
Cu3 Ta12 2.743858 1_555
Cu3 Ta5 3.007340 1_555
Cu3 Ta7 3.007340 1_555
Cu3 Ta9 3.039011 1_555
Cu4 Ta3 2.519983 1_555
Cu4 Ta1 2.519989 1_565
Cu4 Ta2 2.519989 1_556
Cu4 Ta8 2.743789 1_555
Cu4 Ta7 2.743798 1_556
Cu4 Ta5 2.743798 1_565
Cu4 Ta10 2.995192 1_556
Cu4 Ta12 2.995192 1_565
Cu4 Ta15 2.995213 1_566
N0 Ta12 2.163210 1_555
N0 Ta15 2.163210 1_555
N0 Ta10 2.163210 1_555
N0 Ta6 2.172074 1_554
N0 Ta9 2.172074 1_555
N0 Ta4 2.172074 1_545
N1 Ta14 2.160548 1_555
N1 Ta13 2.160549 1_555
N1 Ta10 2.163187 1_555
N1 Ta4 2.165786 1_455
N1 Ta7 2.173983 1_555
N1 Ta8 2.173988 1_554
N2 Ta14 2.160549 1_555
N2 Ta11 2.160549 1_555
N2 Ta12 2.163187 1_555
N2 Ta6 2.165786 1_455
N2 Ta5 2.173983 1_555
N2 Ta8 2.173988 1_545
N3 Ta11 2.160548 1_555
N3 Ta13 2.160549 1_555
N3 Ta15 2.163187 1_555
N3 Ta9 2.165786 1_455
N3 Ta5 2.173990 1_554
N3 Ta7 2.173990 1_545
