# generated using pymatgen
data_LuTiGa4Tc
_symmetry_space_group_name_H-M   'P 1'
_cell_length_a   5.34078913
_cell_length_b   5.34078883
_cell_length_c   5.34078991
_cell_angle_alpha   104.13128113
_cell_angle_beta   104.13128886
_cell_angle_gamma   120.77785693
_symmetry_Int_Tables_number   1
_chemical_formula_structural   LuTiGa4Tc
_chemical_formula_sum   'Lu1 Ti1 Ga4 Tc1'
_cell_volume   113.79118210
_cell_formula_units_Z   1
loop_
 _symmetry_equiv_pos_site_id
 _symmetry_equiv_pos_as_xyz
  1  'x, y, z'
loop_
 _atom_site_type_symbol
 _atom_site_label
 _atom_site_symmetry_multiplicity
 _atom_site_fract_x
 _atom_site_fract_y
 _atom_site_fract_z
 _atom_site_occupancy
  Lu  Lu0  1  0.00000000  0.00000000  0.00000000  1
  Ti  Ti0  1  0.75000000  0.25000000  0.50000000  1
  Ga  Ga0  1  0.30653953  0.30653953  0.61308006  1
  Ga  Ga1  1  0.69346047  0.69346047  0.38691994  1
  Ga  Ga2  1  0.69346047  0.30653953  1.00000000  1
  Ga  Ga3  1  0.30653953  0.69346047  0.00000000  1
  Tc  Tc0  1  0.25000000  0.75000000  0.50000000  1
loop_
_geom_bond_atom_site_label_1
_geom_bond_atom_site_label_2
_geom_bond_distance
_geom_bond_site_symmetry_2
Ga0 Ga2 2.540747 1_555
Ga0 Ga3 2.540748 1_556
Ga0 Tc0 2.721523 1_545
Ga0 Ti0 2.721524 1_455
Ga0 Tc0 2.721526 1_555
Ga0 Ti0 2.721526 1_555
Ga0 Ga1 2.840197 1_445
Ga0 Ga1 2.840207 1_555
Ga0 Lu0 2.846702 1_555
Ga0 Lu0 3.192439 1_556
Ga0 Lu0 3.192443 1_666
Ga1 Ga3 2.540747 1_555
Ga1 Ga2 2.540748 1_554
Ga1 Ti0 2.721523 1_565
Ga1 Tc0 2.721524 1_655
Ga1 Ti0 2.721526 1_555
Ga1 Tc0 2.721526 1_555
Ga1 Lu0 2.846702 1_666
Ga1 Lu0 3.192439 1_665
Ga1 Lu0 3.192443 1_555
Ga2 Tc0 2.721524 1_656
Ga2 Tc0 2.721524 1_545
Ga2 Ti0 2.721524 1_556
Ga2 Ti0 2.721524 1_555
Ga2 Ga3 2.840199 1_546
Ga2 Ga3 2.840199 1_656
Ga2 Lu0 2.846697 1_656
Ga2 Lu0 3.192443 1_666
Ga2 Lu0 3.192443 1_556
Ga3 Ti0 2.721524 1_454
Ga3 Ti0 2.721524 1_565
Ga3 Tc0 2.721524 1_554
Ga3 Tc0 2.721524 1_555
Ga3 Lu0 2.846697 1_565
Ga3 Lu0 3.192443 1_555
Ga3 Lu0 3.192443 1_665
Tc0 Ti0 2.638937 1_455
Tc0 Ti0 2.638937 1_565
