# generated using pymatgen
data_MgNb5(ReSi)6
_symmetry_space_group_name_H-M   'P 1'
_cell_length_a   7.64382345
_cell_length_b   7.54497630
_cell_length_c   7.64382303
_cell_angle_alpha   126.04575404
_cell_angle_beta   128.71641130
_cell_angle_gamma   77.93680139
_symmetry_Int_Tables_number   1
_chemical_formula_structural   MgNb5(ReSi)6
_chemical_formula_sum   'Mg1 Nb5 Re6 Si6'
_cell_volume   269.12767386
_cell_formula_units_Z   1
loop_
 _symmetry_equiv_pos_site_id
 _symmetry_equiv_pos_as_xyz
  1  'x, y, z'
loop_
 _atom_site_type_symbol
 _atom_site_label
 _atom_site_symmetry_multiplicity
 _atom_site_fract_x
 _atom_site_fract_y
 _atom_site_fract_z
 _atom_site_occupancy
  Mg  Mg0  1  0.55149961  0.10091493  0.04941633  1
  Nb  Nb0  1  0.44946654  0.48859674  0.53913020  1
  Nb  Nb1  1  0.95002574  0.49215244  0.04212670  1
  Nb  Nb2  1  0.04974108  0.09540141  0.54566134  1
  Nb  Nb3  1  0.74894766  0.89999746  0.65104980  1
  Nb  Nb4  1  0.24488420  0.89404507  0.14915988  1
  Re  Re0  1  0.49965013  0.24158269  0.74005237  1
  Re  Re1  1  0.00152932  0.24158269  0.24193156  1
  Re  Re2  1  0.12347259  0.75612003  0.62012237  1
  Re  Re3  1  0.87828135  0.49802976  0.63127297  1
  Re  Re4  1  0.63599766  0.75612003  0.13264844  1
  Re  Re5  1  0.36675679  0.49802976  0.11974841  1
  Si  Si0  1  0.74856423  0.49633898  0.24777475  1
  Si  Si1  1  0.25439919  0.50319888  0.74879970  1
  Si  Si2  1  0.33595966  0.82950292  0.50202206  1
  Si  Si3  1  0.66386160  0.16054164  0.49105982  1
  Si  Si4  1  0.82747986  0.82950292  0.99354226  1
  Si  Si5  1  0.16948181  0.16054164  0.99668003  1
loop_
_geom_bond_atom_site_label_1
_geom_bond_atom_site_label_2
_geom_bond_distance
_geom_bond_site_symmetry_2
Mg0 Si3 2.661497 1_555
Mg0 Si5 2.661501 1_554
Mg0 Si4 2.667993 1_544
Mg0 Si2 2.668000 1_544
Mg0 Si0 2.677084 1_555
Mg0 Re2 2.884620 1_544
Mg0 Re4 2.884620 1_545
Mg0 Re1 2.912186 1_655
Mg0 Re0 2.912193 1_554
Mg0 Re3 2.923350 1_555
Mg0 Re5 2.923354 1_555
Nb0 Si5 2.633364 1_554
Nb0 Si3 2.633364 1_555
Nb0 Si4 2.658389 1_555
Nb0 Si2 2.658393 1_555
Nb0 Si1 2.741687 1_555
Nb0 Re0 2.883067 1_555
Nb0 Re1 2.883071 1_555
Nb0 Re5 2.897516 1_555
Nb0 Re3 2.897516 1_555
Nb0 Re2 3.003925 1_555
Nb0 Re4 3.003931 1_556
Nb1 Si3 2.673275 1_554
Nb1 Si5 2.673276 1_654
Nb1 Si2 2.678544 1_655
Nb1 Si4 2.678549 1_554
Nb1 Si0 2.791547 1_555
Nb1 Re3 2.857397 1_554
Nb1 Re5 2.857397 1_655
Nb1 Re1 2.897673 1_655
Nb1 Re0 2.897677 1_554
Nb1 Re2 2.943601 1_655
Nb1 Re4 2.943604 1_555
Nb2 Si5 2.685393 1_555
Nb2 Si3 2.685397 1_455
Nb2 Si2 2.685767 1_545
Nb2 Si4 2.685775 1_444
Nb2 Si1 2.770535 1_555
Nb2 Re2 2.811566 1_545
Nb2 Re4 2.811570 1_445
Nb2 Re5 2.905762 1_556
Nb2 Re3 2.905766 1_455
Nb2 Re0 2.918162 1_555
Nb2 Re1 2.918169 1_555
Nb3 Si4 2.652602 1_555
Nb3 Si2 2.652606 1_555
Nb3 Si3 2.661354 1_565
Nb3 Si5 2.661354 1_665
Nb3 Si0 2.778780 1_555
Nb3 Re1 2.870851 1_666
Nb3 Re0 2.870855 1_565
Nb3 Re5 2.931289 1_555
Nb3 Re3 2.931289 1_555
Nb3 Re4 2.945424 1_555
Nb3 Re2 2.945431 1_655
Nb4 Si2 2.655548 1_555
Nb4 Si4 2.655548 1_454
Nb4 Si5 2.677107 1_564
Nb4 Si3 2.677111 1_565
Nb4 Si1 2.763135 1_554
Nb4 Re3 2.855532 1_454
Nb4 Re5 2.855535 1_555
Nb4 Re0 2.874338 1_565
Nb4 Re1 2.874338 1_565
Nb4 Re2 3.008925 1_554
Nb4 Re4 3.008926 1_555
Re0 Si1 2.422774 1_555
Re0 Si0 2.426725 1_556
Re0 Si2 2.581371 1_545
Re0 Si3 2.621042 1_555
Re1 Si1 2.422778 1_555
Re1 Si0 2.426720 1_455
Re1 Si4 2.581371 1_444
Re1 Si5 2.621042 1_554
Re2 Si0 2.394648 1_455
Re2 Si1 2.406215 1_555
Re2 Si2 2.560826 1_555
Re2 Si5 2.562294 1_565
Re3 Si1 2.418440 1_655
Re3 Si0 2.429344 1_555
Re3 Si3 2.579548 1_555
Re3 Si4 2.619638 1_555
Re4 Si0 2.394644 1_555
Re4 Si1 2.406215 1_554
Re4 Si4 2.560833 1_554
Re4 Si3 2.562292 1_565
Re5 Si1 2.418440 1_554
Re5 Si0 2.429344 1_555
Re5 Si5 2.579548 1_554
Re5 Si2 2.619638 1_555
