# generated using pymatgen
data_Sc12Al2TcNi3
_symmetry_space_group_name_H-M   'P 1'
_cell_length_a   7.78812966
_cell_length_b   7.78813064
_cell_length_c   7.78813105
_cell_angle_alpha   112.17598932
_cell_angle_beta   110.73716014
_cell_angle_gamma   105.57299415
_symmetry_Int_Tables_number   1
_chemical_formula_structural   Sc12Al2TcNi3
_chemical_formula_sum   'Sc12 Al2 Tc1 Ni3'
_cell_volume   362.33225291
_cell_formula_units_Z   1
loop_
 _symmetry_equiv_pos_site_id
 _symmetry_equiv_pos_as_xyz
  1  'x, y, z'
loop_
 _atom_site_type_symbol
 _atom_site_label
 _atom_site_symmetry_multiplicity
 _atom_site_fract_x
 _atom_site_fract_y
 _atom_site_fract_z
 _atom_site_occupancy
  Sc  Sc0  1  0.04939956  0.74634297  0.30305759  1
  Sc  Sc1  1  0.96655286  0.26431436  0.70223850  1
  Sc  Sc2  1  0.55671461  0.25365703  0.30305759  1
  Sc  Sc3  1  0.43792415  0.73568564  0.70223850  1
  Sc  Sc4  1  0.67856906  0.87250824  0.19898336  1
  Sc  Sc5  1  0.32647613  0.52041431  0.19898336  1
  Sc  Sc6  1  0.32647613  0.12749176  0.80606182  1
  Sc  Sc7  1  0.67856906  0.47958569  0.80606182  1
  Sc  Sc8  1  0.18160065  0.21847303  0.40007368  1
  Sc  Sc9  1  0.81257983  0.21998598  0.03256682  1
  Sc  Sc10  1  0.18160065  0.78152697  0.96312863  1
  Sc  Sc11  1  0.81257983  0.78001402  0.59259185  1
  Al  Al0  1  0.99258694  0.50000000  0.49258694  1
  Al  Al1  1  0.50369143  0.00000000  0.50369143  1
  Tc  Tc0  1  0.66277189  0.50000000  0.16277189  1
  Ni  Ni0  1  0.33416025  0.50000000  0.83416025  1
  Ni  Ni1  1  0.87691845  0.87804497  0.99887148  1
  Ni  Ni2  1  0.12082652  0.12195503  0.99887148  1
loop_
_geom_bond_atom_site_label_1
_geom_bond_atom_site_label_2
_geom_bond_distance
_geom_bond_site_symmetry_2
Sc0 Tc0 2.631985 1_455
Sc2 Tc0 2.631991 1_555
Sc4 Tc0 2.770819 1_555
Sc5 Tc0 2.770811 1_555
Sc6 Tc0 2.770814 1_556
Sc7 Tc0 2.770811 1_556
Sc9 Tc0 2.771272 1_555
Sc11 Tc0 2.771262 1_555
Al0 Sc0 2.863561 1_655
Al0 Sc2 2.863562 1_555
Al0 Sc3 2.893699 1_655
Al0 Sc1 2.893699 1_555
Al0 Sc9 2.908671 1_555
Al0 Sc11 2.908674 1_555
Al0 Tc0 2.919494 1_555
Al0 Sc8 2.963948 1_655
Al0 Sc10 2.963954 1_655
Al0 Ni0 3.023577 1_655
Al1 Sc2 2.977248 1_555
Al1 Sc0 2.977254 1_545
Al1 Sc1 3.047721 1_555
Al1 Sc3 3.047722 1_545
Al1 Sc6 3.115872 1_555
Al1 Sc4 3.115872 1_545
Al1 Sc5 3.115873 1_545
Al1 Sc7 3.115873 1_555
Al1 Sc11 3.336298 1_545
Al1 Sc9 3.336306 1_556
Al1 Sc10 3.425420 1_544
Al1 Sc8 3.425426 1_555
Ni0 Sc1 2.508605 1_455
Ni0 Sc3 2.508605 1_555
Ni0 Sc8 2.794515 1_555
Ni0 Sc10 2.794517 1_555
Ni0 Sc7 2.808254 1_555
Ni0 Sc5 2.808255 1_556
Ni0 Sc4 2.808258 1_556
Ni0 Sc6 2.808262 1_555
Ni0 Tc0 2.908841 1_556
Ni1 Ni2 2.297701 1_665
Ni1 Sc7 2.556740 1_555
Ni1 Sc4 2.556751 1_556
Ni1 Sc10 2.746042 1_655
Ni1 Sc8 2.746056 1_666
Ni1 Sc9 2.773803 1_566
Ni1 Sc11 2.773808 1_555
Ni1 Sc3 2.948424 1_555
Ni1 Sc0 2.964707 1_656
Ni2 Sc6 2.556738 1_555
Ni2 Sc5 2.556739 1_556
Ni2 Sc8 2.746060 1_556
Ni2 Sc10 2.746061 1_545
Ni2 Sc9 2.773799 1_456
Ni2 Sc11 2.773805 1_445
Ni2 Sc1 2.948412 1_455
Ni2 Sc2 2.964713 1_556
