# generated using pymatgen
data_ScNb(ReSi)2
_symmetry_space_group_name_H-M   'P 1'
_cell_length_a   7.63682181
_cell_length_b   7.66554507
_cell_length_c   7.63682228
_cell_angle_alpha   126.21462091
_cell_angle_beta   128.16034670
_cell_angle_gamma   77.87132854
_symmetry_Int_Tables_number   1
_chemical_formula_structural   ScNb(ReSi)2
_chemical_formula_sum   'Sc3 Nb3 Re6 Si6'
_cell_volume   275.02025347
_cell_formula_units_Z   3
loop_
 _symmetry_equiv_pos_site_id
 _symmetry_equiv_pos_as_xyz
  1  'x, y, z'
loop_
 _atom_site_type_symbol
 _atom_site_label
 _atom_site_symmetry_multiplicity
 _atom_site_fract_x
 _atom_site_fract_y
 _atom_site_fract_z
 _atom_site_occupancy
  Sc  Sc0  1  0.54918774  0.09268695  0.04349921  1
  Sc  Sc1  1  0.45162409  0.49591309  0.54429001  1
  Sc  Sc2  1  0.94975191  0.49517950  0.04542659  1
  Nb  Nb0  1  0.04861074  0.09189427  0.54328353  1
  Nb  Nb1  1  0.75084577  0.90497284  0.65412707  1
  Nb  Nb2  1  0.25074683  0.89840888  0.14766205  1
  Re  Re0  1  0.49600962  0.23463269  0.73417491  1
  Re  Re1  1  0.00045878  0.23463269  0.23862407  1
  Re  Re2  1  0.12253410  0.75761152  0.62548316  1
  Re  Re3  1  0.87827567  0.50003023  0.63103010  1
  Re  Re4  1  0.63212836  0.75761152  0.13507742  1
  Re  Re5  1  0.36899913  0.50003023  0.12175456  1
  Si  Si0  1  0.74853065  0.49596624  0.24743459  1
  Si  Si1  1  0.25204110  0.49843508  0.74639397  1
  Si  Si2  1  0.33098441  0.82836165  0.49285968  1
  Si  Si3  1  0.66811744  0.16373498  0.49808131  1
  Si  Si4  1  0.83550097  0.82836165  0.99737624  1
  Si  Si5  1  0.16565267  0.16373498  0.99561754  1
loop_
_geom_bond_atom_site_label_1
_geom_bond_atom_site_label_2
_geom_bond_distance
_geom_bond_site_symmetry_2
Sc0 Si3 2.692723 1_555
Sc0 Si5 2.692730 1_554
Sc0 Si4 2.693907 1_544
Sc0 Si2 2.693911 1_544
Sc0 Si0 2.767374 1_555
Sc1 Si3 2.689222 1_555
Sc1 Si5 2.689227 1_554
Sc1 Si4 2.691897 1_555
Sc1 Si2 2.691906 1_555
Sc1 Si1 2.750464 1_555
Sc2 Si3 2.681625 1_554
Sc2 Si5 2.681625 1_654
Sc2 Si4 2.682224 1_554
Sc2 Si2 2.682224 1_655
Sc2 Si0 2.766942 1_555
Nb0 Si2 2.675029 1_545
Nb0 Si4 2.675034 1_444
Nb0 Si3 2.679281 1_455
Nb0 Si5 2.679284 1_555
Nb0 Si1 2.806434 1_555
Nb0 Re4 2.851995 1_445
Nb0 Re2 2.851995 1_545
Nb0 Re1 2.920171 1_555
Nb0 Re0 2.920174 1_555
Nb0 Re5 2.969674 1_556
Nb0 Re3 2.969675 1_455
Nb1 Si5 2.662681 1_665
Nb1 Si3 2.662687 1_565
Nb1 Si4 2.683194 1_555
Nb1 Si2 2.683198 1_555
Nb1 Si0 2.815252 1_555
Nb1 Re0 2.850470 1_565
Nb1 Re1 2.850474 1_666
Nb1 Re2 2.917014 1_655
Nb1 Re4 2.917014 1_555
Nb1 Re3 2.984860 1_555
Nb1 Re5 2.984863 1_555
Nb2 Si2 2.674248 1_555
Nb2 Si4 2.674252 1_454
Nb2 Si5 2.685116 1_564
Nb2 Si3 2.685118 1_565
Nb2 Si1 2.777389 1_554
Nb2 Re1 2.869460 1_565
Nb2 Re0 2.869464 1_565
Nb2 Re5 2.920327 1_555
Nb2 Re3 2.920328 1_454
Nb2 Re4 2.925645 1_555
Nb2 Re2 2.925646 1_554
Re0 Si1 2.444978 1_555
Re0 Si0 2.469855 1_556
Re0 Si2 2.584744 1_545
Re0 Si3 2.596946 1_555
Re0 Sc0 2.931745 1_556
Re0 Sc2 2.960849 1_556
Re0 Sc1 2.961142 1_555
Re1 Si1 2.444973 1_555
Re1 Si0 2.469864 1_455
Re1 Si4 2.584744 1_444
Re1 Si5 2.596939 1_554
Re1 Sc0 2.931749 1_455
Re1 Sc2 2.960857 1_455
Re1 Sc1 2.961142 1_555
Re2 Si0 2.427116 1_455
Re2 Si1 2.447724 1_555
Re2 Si5 2.583148 1_565
Re2 Si2 2.618836 1_555
Re2 Sc0 2.894691 1_566
Re2 Sc2 2.962025 1_455
Re2 Sc1 3.010356 1_555
Re3 Si1 2.411294 1_655
Re3 Si0 2.425429 1_555
Re3 Si4 2.594609 1_555
Re3 Si3 2.623818 1_555
Re3 Sc2 2.882769 1_556
Re3 Sc1 2.899562 1_555
Re3 Sc0 3.001067 1_555
Re4 Si0 2.427111 1_555
Re4 Si1 2.447724 1_554
Re4 Si3 2.583146 1_565
Re4 Si4 2.618836 1_554
Re4 Sc0 2.894691 1_565
Re4 Sc2 2.962021 1_555
Re4 Sc1 3.010353 1_554
Re5 Si1 2.411297 1_554
Re5 Si0 2.425431 1_555
Re5 Si2 2.594604 1_555
Re5 Si5 2.623818 1_554
Re5 Sc2 2.882765 1_455
Re5 Sc1 2.899563 1_555
Re5 Sc0 3.001070 1_555
