# generated using pymatgen
data_Sc2Ti3(ReTc)12
_symmetry_space_group_name_H-M   'P 1'
_cell_length_a   8.32886854
_cell_length_b   8.32947155
_cell_length_c   8.32947117
_cell_angle_alpha   109.47268760
_cell_angle_beta   109.46975752
_cell_angle_gamma   109.46975509
_symmetry_Int_Tables_number   1
_chemical_formula_structural   Sc2Ti3(ReTc)12
_chemical_formula_sum   'Sc2 Ti3 Re12 Tc12'
_cell_volume   444.84306946
_cell_formula_units_Z   1
loop_
 _symmetry_equiv_pos_site_id
 _symmetry_equiv_pos_as_xyz
  1  'x, y, z'
loop_
 _atom_site_type_symbol
 _atom_site_label
 _atom_site_symmetry_multiplicity
 _atom_site_fract_x
 _atom_site_fract_y
 _atom_site_fract_z
 _atom_site_occupancy
  Sc  Sc0  1  0.00050203  0.00000000  0.00000000  1
  Sc  Sc1  1  0.62905183  1.00000000  1.00000000  1
  Ti  Ti0  1  0.00035509  0.62846599  0.00000000  1
  Ti  Ti1  1  0.00035509  1.00000000  0.62846599  1
  Ti  Ti2  1  0.37188909  0.37153401  0.37153401  1
  Re  Re0  1  0.37705675  0.19348471  0.00000000  1
  Re  Re1  1  0.18357204  0.80651529  0.80651529  1
  Re  Re2  1  0.37705675  0.00000000  0.19348471  1
  Re  Re3  1  0.19464628  0.37684939  0.00000000  1
  Re  Re4  1  0.00187464  0.37895414  0.19399925  1
  Re  Re5  1  0.80787439  0.18495489  0.80600075  1
  Re  Re6  1  0.80787439  0.80600075  0.18495489  1
  Re  Re7  1  0.00187464  0.19399925  0.37895414  1
  Re  Re8  1  0.19464628  0.00000000  0.37684939  1
  Re  Re9  1  0.62292050  0.62104586  0.81504511  1
  Re  Re10  1  0.81779589  0.62315061  0.62315061  1
  Re  Re11  1  0.62292050  0.81504511  0.62104586  1
  Tc  Tc0  1  0.39738494  0.67528247  1.00000000  1
  Tc  Tc1  1  0.72210348  0.32471753  0.32471753  1
  Tc  Tc2  1  0.39738494  1.00000000  0.67528247  1
  Tc  Tc3  1  0.68146678  0.40089569  1.00000000  1
  Tc  Tc4  1  0.99867244  0.40153035  0.68081105  1
  Tc  Tc5  1  0.31786138  0.72071829  0.31918895  1
  Tc  Tc6  1  0.31786138  0.31918895  0.72071829  1
  Tc  Tc7  1  0.99867244  0.68081105  0.40153035  1
  Tc  Tc8  1  0.68146678  1.00000000  0.40089569  1
  Tc  Tc9  1  0.59714309  0.59846965  0.27928171  1
  Tc  Tc10  1  0.28057109  0.59910431  0.59910431  1
  Tc  Tc11  1  0.59714309  0.27928171  0.59846965  1
loop_
_geom_bond_atom_site_label_1
_geom_bond_atom_site_label_2
_geom_bond_distance
_geom_bond_site_symmetry_2
Sc0 Sc1 3.093760 1_444
Sc0 Ti2 3.094274 1_555
Sc0 Ti1 3.094274 1_544
Sc0 Ti0 3.094274 1_545
Sc1 Tc1 2.749475 1_566
Sc1 Tc2 2.749478 1_555
Sc1 Tc0 2.749478 1_555
Sc1 Tc10 3.220153 1_555
Sc1 Tc8 3.220153 1_556
Sc1 Tc3 3.220154 1_565
Re0 Re3 2.487523 1_555
Re0 Tc3 2.548130 1_554
Re0 Re1 2.631797 1_544
Re0 Re2 2.631797 1_555
Re0 Tc2 2.742717 1_544
Re0 Tc1 2.742722 1_555
Re0 Tc9 2.820352 1_555
Re0 Tc6 2.820358 1_554
Re0 Ti1 2.974855 1_544
Re0 Ti2 2.974855 1_555
Re0 Sc0 3.010670 1_555
Re0 Sc1 3.042581 1_544
Re1 Re10 2.487530 1_455
Re1 Tc10 2.548130 1_555
Re1 Re2 2.631797 1_566
Re1 Tc0 2.742717 1_555
Re1 Tc2 2.742717 1_555
Re1 Tc7 2.820350 1_455
Re1 Tc4 2.820350 1_455
Re1 Ti1 2.974855 1_555
Re1 Ti0 2.974855 1_556
Re1 Sc0 3.010670 1_566
Re1 Sc1 3.042581 1_555
Re2 Re8 2.487523 1_555
Re2 Tc8 2.548130 1_545
Re2 Tc0 2.742717 1_544
Re2 Tc1 2.742722 1_555
Re2 Tc11 2.820352 1_555
Re2 Tc5 2.820358 1_545
Re2 Ti0 2.974855 1_545
Re2 Ti2 2.974855 1_555
Re2 Sc0 3.010670 1_555
Re2 Sc1 3.042581 1_544
Re3 Tc0 2.496469 1_554
Re3 Re4 2.630346 1_555
Re3 Re5 2.630353 1_454
Re3 Tc5 2.733173 1_555
Re3 Tc4 2.733178 1_454
Re3 Tc9 2.805436 1_555
Re3 Tc6 2.805436 1_554
Re3 Ti1 2.974520 1_544
Re3 Ti2 2.974520 1_555
Re3 Sc0 3.013999 1_555
Re3 Ti0 3.045001 1_555
Re4 Re7 2.515774 1_555
Re4 Tc7 2.547214 1_455
Re4 Re5 2.638796 1_454
Re4 Tc5 2.704572 1_555
Re4 Tc3 2.722786 1_454
Re4 Tc10 2.820018 1_555
Re4 Tc1 2.852514 1_455
Re4 Ti2 2.972882 1_555
Re4 Sc1 2.989547 1_444
Re4 Sc0 3.022862 1_555
Re4 Ti0 3.028800 1_555
Re5 Tc11 2.547211 1_555
Re5 Tc4 2.704581 1_555
Re5 Tc3 2.722779 1_555
Re5 Tc8 2.820020 1_545
Re5 Tc2 2.852514 1_545
Re5 Ti1 2.972889 1_645
Re5 Sc1 2.989543 1_545
Re5 Sc0 3.022866 1_656
Re5 Ti0 3.028800 1_656
Re6 Re9 2.515773 1_554
Re6 Tc9 2.547211 1_555
Re6 Re8 2.630353 1_665
Re6 Re7 2.638796 1_665
Re6 Tc7 2.704581 1_555
Re6 Tc8 2.722779 1_555
Re6 Tc3 2.820020 1_554
Re6 Tc0 2.852514 1_554
Re6 Ti0 2.972889 1_655
Re6 Sc1 2.989543 1_554
Re6 Sc0 3.022866 1_665
Re6 Ti1 3.028800 1_655
Re7 Tc4 2.547214 1_455
Re7 Re8 2.630346 1_555
Re7 Tc6 2.704571 1_555
Re7 Tc8 2.722786 1_445
Re7 Tc10 2.820019 1_555
Re7 Tc1 2.852514 1_455
Re7 Ti2 2.972882 1_555
Re7 Sc1 2.989547 1_444
Re7 Sc0 3.022862 1_555
Re7 Ti1 3.028800 1_545
Re8 Tc2 2.496469 1_545
Re8 Tc6 2.733173 1_555
Re8 Tc7 2.733178 1_445
Re8 Tc11 2.805436 1_555
Re8 Tc5 2.805436 1_545
Re8 Ti0 2.974520 1_545
Re8 Ti2 2.974520 1_555
Re8 Sc0 3.013998 1_555
Re8 Ti1 3.045001 1_545
Re9 Tc6 2.547211 1_555
Re9 Tc11 2.704574 1_555
Re9 Tc10 2.722786 1_555
Re9 Tc3 2.820019 1_555
Re9 Tc0 2.852521 1_555
Re9 Ti0 2.972882 1_656
Re9 Sc1 2.989547 1_555
Re9 Sc0 3.022862 1_666
Re9 Ti2 3.028800 1_555
Re10 Tc1 2.496475 1_555
Re10 Re9 2.630339 1_555
Re10 Re11 2.630339 1_555
Re10 Tc9 2.733166 1_555
Re10 Tc11 2.733166 1_555
Re10 Tc7 2.805434 1_555
Re10 Tc4 2.805434 1_555
Re10 Ti0 2.974522 1_656
Re10 Ti1 2.974522 1_655
Re10 Sc0 3.013997 1_666
Re10 Ti2 3.044994 1_555
Re11 Re5 2.515774 1_565
Re11 Tc5 2.547211 1_555
Re11 Re9 2.638796 1_555
Re11 Tc9 2.704574 1_555
Re11 Tc10 2.722786 1_555
Re11 Tc8 2.820019 1_555
Re11 Tc2 2.852522 1_555
Re11 Ti1 2.972882 1_655
Re11 Sc1 2.989547 1_555
Re11 Sc0 3.022862 1_666
Re11 Ti2 3.028800 1_555
Tc0 Tc6 2.776837 1_555
Tc0 Tc9 2.776843 1_556
Tc0 Tc4 2.884547 1_455
Tc0 Tc5 2.884548 1_556
Tc0 Tc8 2.917166 1_556
Tc0 Tc10 2.917166 1_555
Tc0 Ti0 3.198037 1_556
Tc1 Tc4 2.776831 1_555
Tc1 Tc7 2.776831 1_555
Tc1 Tc11 2.884545 1_555
Tc1 Tc9 2.884545 1_555
Tc1 Tc3 2.917165 1_554
Tc1 Tc8 2.917166 1_545
Tc1 Ti2 3.198046 1_555
Tc2 Tc5 2.776837 1_555
Tc2 Tc7 2.884547 1_455
Tc2 Tc6 2.884548 1_565
Tc2 Tc3 2.917166 1_565
Tc2 Ti1 3.198037 1_555
Tc3 Ti0 2.700221 1_656
Tc3 Tc9 2.814297 1_556
Tc3 Tc6 2.814300 1_555
Tc3 Tc7 2.899377 1_556
Tc4 Ti0 2.692339 1_656
Tc4 Tc8 2.899377 1_545
Tc4 Tc6 2.902898 1_655
Tc4 Ti1 3.230991 1_645
Tc5 Ti0 2.692342 1_555
Tc5 Tc8 2.814300 1_555
Tc5 Tc7 2.902898 1_455
Tc5 Tc9 2.902898 1_555
Tc5 Ti2 3.230983 1_555
Tc6 Ti1 2.692342 1_545
Tc6 Ti2 3.230983 1_555
Tc7 Ti1 2.692339 1_655
Tc7 Tc9 2.902890 1_555
Tc7 Ti0 3.230991 1_655
Tc8 Ti1 2.700221 1_655
Tc8 Tc9 2.899380 1_555
Tc9 Ti2 2.692337 1_555
Tc9 Ti1 3.230986 1_655
Tc10 Ti2 2.700221 1_555
Tc10 Tc7 2.814297 1_455
Tc10 Tc4 2.814297 1_455
Tc10 Tc5 2.899372 1_555
Tc10 Tc6 2.899372 1_555
Tc10 Tc2 2.917167 1_555
Tc11 Ti2 2.692337 1_555
Tc11 Tc2 2.776843 1_545
Tc11 Tc8 2.814297 1_545
Tc11 Tc3 2.899380 1_555
Tc11 Tc4 2.902890 1_555
Tc11 Tc6 2.902898 1_555
Tc11 Ti0 3.230986 1_656
