# generated using pymatgen
data_YReF7
_symmetry_space_group_name_H-M   'P 1'
_cell_length_a   5.55305744
_cell_length_b   8.84543926
_cell_length_c   11.94093982
_cell_angle_alpha   62.48143741
_cell_angle_beta   90.00000000
_cell_angle_gamma   90.00000000
_symmetry_Int_Tables_number   1
_chemical_formula_structural   YReF7
_chemical_formula_sum   'Y4 Re4 F28'
_cell_volume   520.17051369
_cell_formula_units_Z   4
loop_
 _symmetry_equiv_pos_site_id
 _symmetry_equiv_pos_as_xyz
  1  'x, y, z'
loop_
 _atom_site_type_symbol
 _atom_site_label
 _atom_site_symmetry_multiplicity
 _atom_site_fract_x
 _atom_site_fract_y
 _atom_site_fract_z
 _atom_site_occupancy
  Y  Y0  1  0.25793384  0.81364062  0.26506612  1
  Y  Y1  1  0.74206616  0.18635938  0.73493388  1
  Y  Y2  1  0.75793384  0.18635938  0.23493388  1
  Y  Y3  1  0.24206616  0.81364062  0.76506612  1
  Re  Re0  1  0.75634289  0.72727127  0.04317589  1
  Re  Re1  1  0.24365711  0.27272873  0.95682411  1
  Re  Re2  1  0.25634289  0.27272873  0.45682411  1
  Re  Re3  1  0.74365711  0.72727127  0.54317589  1
  F  F0  1  0.94968428  0.70759665  0.41679774  1
  F  F1  1  0.05031572  0.29240335  0.58320226  1
  F  F2  1  0.44968428  0.29240335  0.08320226  1
  F  F3  1  0.55031572  0.70759665  0.91679774  1
  F  F4  1  0.47218868  0.72891962  0.14062808  1
  F  F5  1  0.52781132  0.27108038  0.85937192  1
  F  F6  1  0.97218868  0.27108038  0.35937192  1
  F  F7  1  0.02781132  0.72891962  0.64062808  1
  F  F8  1  0.95539651  0.74485679  0.17324689  1
  F  F9  1  0.04460349  0.25514321  0.82675311  1
  F  F10  1  0.45539651  0.25514321  0.32675311  1
  F  F11  1  0.54460349  0.74485679  0.67324689  1
  F  F12  1  0.76750143  0.47785835  0.14261229  1
  F  F13  1  0.23249857  0.52214165  0.85738771  1
  F  F14  1  0.26750143  0.52214165  0.35738771  1
  F  F15  1  0.73249857  0.47785835  0.64261229  1
  F  F16  1  0.94835254  0.28115605  0.04589419  1
  F  F17  1  0.05164746  0.71884395  0.95410581  1
  F  F18  1  0.44835254  0.71884395  0.45410581  1
  F  F19  1  0.55164746  0.28115605  0.54589419  1
  F  F20  1  0.74050790  0.97682897  0.44630986  1
  F  F21  1  0.25949210  0.02317103  0.55369014  1
  F  F22  1  0.24050790  0.02317103  0.05369014  1
  F  F23  1  0.75949210  0.97682897  0.94630986  1
  F  F24  1  0.58526153  0.96798337  0.23229122  1
  F  F25  1  0.41473847  0.03201663  0.76770878  1
  F  F26  1  0.08526153  0.03201663  0.26770878  1
  F  F27  1  0.91473847  0.96798337  0.73229122  1
loop_
_geom_bond_atom_site_label_1
_geom_bond_atom_site_label_2
_geom_bond_distance
_geom_bond_site_symmetry_2
F0 Re3 1.964484 1_555
F0 Y0 2.349914 1_655
F1 Re2 1.964484 1_555
F1 Y1 2.349914 1_455
F2 Re1 1.964484 1_554
F2 Y2 2.349914 1_555
F3 Re0 1.964484 1_556
F3 Y3 2.349914 1_555
F4 Re0 1.964654 1_555
F4 Y0 2.283428 1_555
F5 Re1 1.964654 1_555
F5 Y1 2.283428 1_555
F6 Re2 1.964654 1_655
F6 Y2 2.283428 1_555
F7 Re3 1.964654 1_455
F7 Y3 2.283428 1_555
F8 Re0 1.970178 1_555
F8 Y0 2.238558 1_655
F9 Re1 1.970178 1_555
F9 Y1 2.238558 1_455
F10 Re2 1.970178 1_555
F10 Y2 2.238558 1_555
F11 Re3 1.970178 1_555
F11 Y3 2.238558 1_555
F12 Re0 1.964744 1_555
F12 Y2 2.289060 1_555
F13 Re1 1.964744 1_555
F13 Y3 2.289060 1_555
F14 Re2 1.964744 1_555
F14 Y0 2.289060 1_555
F15 Re3 1.964744 1_555
F15 Y1 2.289060 1_555
F16 Re1 1.974616 1_654
F16 Y2 2.273235 1_555
F17 Re0 1.974616 1_456
F17 Y3 2.273235 1_555
F18 Re3 1.974616 1_555
F18 Y0 2.273235 1_555
F19 Re2 1.974616 1_555
F19 Y1 2.273235 1_555
F20 Re3 1.962548 1_555
F20 Y2 2.343569 1_565
F21 Re2 1.962548 1_555
F21 Y3 2.343569 1_545
F22 Re1 1.962548 1_554
F22 Y0 2.343569 1_545
F23 Re0 1.962548 1_556
F23 Y1 2.343569 1_565
F24 Y2 2.169777 1_565
F24 Y0 2.197091 1_555
F25 Y3 2.169777 1_545
F25 Y1 2.197091 1_555
F26 Y0 2.169777 1_545
F26 Y2 2.197091 1_455
F27 Y1 2.169777 1_565
F27 Y3 2.197091 1_655
