# generated using pymatgen
data_Hf10CuPPb6
_symmetry_space_group_name_H-M   'P 1'
_cell_length_a   8.63605457
_cell_length_b   8.63605362
_cell_length_c   5.84141979
_cell_angle_alpha   90.00000000
_cell_angle_beta   90.00000000
_cell_angle_gamma   119.99999243
_symmetry_Int_Tables_number   1
_chemical_formula_structural   Hf10CuPPb6
_chemical_formula_sum   'Hf10 Cu1 P1 Pb6'
_cell_volume   377.29390609
_cell_formula_units_Z   1
loop_
 _symmetry_equiv_pos_site_id
 _symmetry_equiv_pos_as_xyz
  1  'x, y, z'
loop_
 _atom_site_type_symbol
 _atom_site_label
 _atom_site_symmetry_multiplicity
 _atom_site_fract_x
 _atom_site_fract_y
 _atom_site_fract_z
 _atom_site_occupancy
  Hf  Hf0  1  0.66666700  0.33333300  0.00000000  1
  Hf  Hf1  1  0.00000000  0.25353965  0.24717267  1
  Hf  Hf2  1  0.74646035  1.00000000  0.75282733  1
  Hf  Hf3  1  0.25353965  0.25353965  0.75282733  1
  Hf  Hf4  1  0.33333300  0.66666700  0.50000000  1
  Hf  Hf5  1  0.33333300  0.66666700  0.00000000  1
  Hf  Hf6  1  1.00000000  0.74646035  0.75282733  1
  Hf  Hf7  1  0.66666700  0.33333300  0.50000000  1
  Hf  Hf8  1  0.74646035  0.74646035  0.24717267  1
  Hf  Hf9  1  0.25353965  0.00000000  0.24717267  1
  Cu  Cu0  1  0.00000000  0.00000000  0.50000000  1
  P  P0  1  0.00000000  0.00000000  0.00000000  1
  Pb  Pb0  1  0.60749913  0.60749913  0.74678129  1
  Pb  Pb1  1  0.39250087  1.00000000  0.74678129  1
  Pb  Pb2  1  0.00000000  0.60749913  0.25321871  1
  Pb  Pb3  1  0.39250087  0.39250087  0.25321871  1
  Pb  Pb4  1  1.00000000  0.39250087  0.74678129  1
  Pb  Pb5  1  0.60749913  0.00000000  0.25321871  1
loop_
_geom_bond_atom_site_label_1
_geom_bond_atom_site_label_2
_geom_bond_distance
_geom_bond_site_symmetry_2
Hf0 Pb5 3.043825 1_555
Hf0 Pb4 3.043825 1_554
Hf0 Pb1 3.043828 1_544
Hf0 Pb2 3.043828 1_655
Hf0 Pb0 3.043832 1_554
Hf0 Pb3 3.043833 1_555
Hf1 P0 2.622774 1_555
Hf1 Pb3 2.977141 1_555
Hf1 Pb5 2.977141 1_455
Hf1 Pb2 3.057017 1_555
Hf1 Pb4 3.155532 1_455
Hf1 Pb4 3.159761 1_454
Hf2 P0 2.622774 1_666
Hf2 Pb0 2.977141 1_555
Hf2 Pb4 2.977141 1_565
Hf2 Pb1 3.057017 1_555
Hf2 Pb5 3.155532 1_565
Hf2 Pb5 3.159761 1_566
Hf3 P0 2.622774 1_556
Hf3 Pb1 2.977141 1_545
Hf3 Pb4 2.977141 1_455
Hf3 Pb0 3.057018 1_555
Hf3 Pb3 3.155532 1_555
Hf3 Pb3 3.159761 1_556
Hf4 Pb1 3.025730 1_555
Hf4 Pb2 3.025730 1_555
Hf4 Pb5 3.025733 1_565
Hf4 Pb4 3.025733 1_455
Hf4 Pb3 3.025737 1_555
Hf4 Pb0 3.025737 1_555
Hf5 Pb1 3.043825 1_554
Hf5 Pb2 3.043825 1_555
Hf5 Pb5 3.043828 1_565
Hf5 Pb4 3.043828 1_454
Hf5 Pb3 3.043832 1_555
Hf5 Pb0 3.043833 1_554
Hf6 P0 2.622774 1_666
Hf6 Pb0 2.977141 1_555
Hf6 Pb1 2.977141 1_655
Hf6 Pb4 3.057017 1_555
Hf6 Pb2 3.155532 1_655
Hf6 Pb2 3.159761 1_656
Hf7 Pb5 3.025730 1_555
Hf7 Pb4 3.025730 1_555
Hf7 Pb1 3.025733 1_545
Hf7 Pb2 3.025733 1_655
Hf7 Pb0 3.025737 1_555
Hf7 Pb3 3.025737 1_555
Hf8 P0 2.622774 1_665
Hf8 Pb5 2.977141 1_565
Hf8 Pb2 2.977141 1_655
Hf8 Pb3 3.057018 1_555
Hf8 Pb0 3.155532 1_555
Hf8 Pb0 3.159761 1_554
Hf9 P0 2.622774 1_555
Hf9 Pb3 2.977141 1_555
Hf9 Pb2 2.977141 1_545
Hf9 Pb5 3.057017 1_555
Hf9 Pb1 3.155532 1_545
Hf9 Pb1 3.159761 1_544
Cu0 Hf1 2.641101 1_555
Cu0 Hf6 2.641101 1_445
Cu0 Hf9 2.641101 1_555
Cu0 Hf2 2.641101 1_445
Cu0 Hf3 2.641102 1_555
Cu0 Hf8 2.641102 1_445
