# generated using pymatgen
data_LuZn3P6N13
_symmetry_space_group_name_H-M   'P 1'
_cell_length_a   7.00378970
_cell_length_b   7.06480427
_cell_length_c   7.00378992
_cell_angle_alpha   109.64777615
_cell_angle_beta   109.29407169
_cell_angle_gamma   109.64778909
_symmetry_Int_Tables_number   1
_chemical_formula_structural   LuZn3P6N13
_chemical_formula_sum   'Lu1 Zn3 P6 N13'
_cell_volume   266.19110320
_cell_formula_units_Z   1
loop_
 _symmetry_equiv_pos_site_id
 _symmetry_equiv_pos_as_xyz
  1  'x, y, z'
loop_
 _atom_site_type_symbol
 _atom_site_label
 _atom_site_symmetry_multiplicity
 _atom_site_fract_x
 _atom_site_fract_y
 _atom_site_fract_z
 _atom_site_occupancy
  Lu  Lu0  1  0.00000000  0.71244526  0.00000000  1
  Zn  Zn0  1  0.71411166  0.01086078  1.00000000  1
  Zn  Zn1  1  0.00000000  0.01086078  0.71411166  1
  Zn  Zn2  1  0.28588834  0.29674912  0.28588834  1
  P  P0  1  0.49479364  0.24280221  0.74710745  1
  P  P1  1  0.50520636  0.74800957  0.25231380  1
  P  P2  1  0.74768620  0.49569576  0.25289255  1
  P  P3  1  0.25231380  0.74800957  0.50520636  1
  P  P4  1  0.74710745  0.24280221  0.49479364  1
  P  P5  1  0.25289255  0.49569576  0.74768620  1
  N  N0  1  0.00000000  0.73202444  0.45074762  1
  N  N1  1  0.28126659  0.54448749  0.54595770  1
  N  N2  1  0.72417678  0.44800709  0.00000000  1
  N  N3  1  0.27582322  0.72383131  0.27582322  1
  N  N4  1  0.45404230  0.99853079  0.73530989  1
  N  N5  1  0.71873341  0.26321990  0.26469011  1
  N  N6  1  0.54925238  0.28127482  0.54925238  1
  N  N7  1  0.73530989  0.99853079  0.45404230  1
  N  N8  1  0.26469011  0.26321990  0.71873341  1
  N  N9  1  0.45074762  0.73202444  0.00000000  1
  N  N10  1  0.54595770  0.54448749  0.28126659  1
  N  N11  1  0.00000000  0.44800709  0.72417678  1
  N  N12  1  0.00000000  0.01842445  0.00000000  1
loop_
_geom_bond_atom_site_label_1
_geom_bond_atom_site_label_2
_geom_bond_distance
_geom_bond_site_symmetry_2
Lu0 N12 2.161683 1_565
Lu0 N3 2.189768 1_555
Lu0 N2 2.189772 1_455
Lu0 N11 2.189772 1_554
N0 P3 1.634770 1_555
N0 P2 1.634771 1_455
N0 Zn1 2.199873 1_565
N1 P5 1.619100 1_555
N1 P3 1.619805 1_555
N1 Zn2 2.077333 1_555
N2 P2 1.626798 1_555
N2 P0 1.626800 1_554
N3 P1 1.626799 1_555
N3 P3 1.626799 1_555
N4 P3 1.619106 1_555
N4 P0 1.619794 1_565
N4 Zn0 2.077333 1_565
N5 P4 1.619107 1_555
N5 P2 1.619809 1_555
N5 Zn0 2.077325 1_554
N6 P0 1.634768 1_555
N6 P4 1.634768 1_555
N6 Zn2 2.199881 1_555
N7 P1 1.619106 1_555
N7 P4 1.619794 1_565
N7 Zn1 2.077333 1_665
N8 P0 1.619107 1_555
N8 P5 1.619809 1_555
N8 Zn1 2.077325 1_555
N9 P1 1.634771 1_555
N9 P5 1.634771 1_554
N9 Zn0 2.199872 1_564
N10 P2 1.619100 1_555
N10 P1 1.619805 1_555
N10 Zn2 2.077333 1_555
N11 P5 1.626798 1_555
N11 P4 1.626800 1_455
N12 Zn0 1.984973 1_454
N12 Zn1 1.984973 1_554
N12 Zn2 1.984973 1_555
