# generated using pymatgen
data_TiMnNbV3
_symmetry_space_group_name_H-M   'P 1'
_cell_length_a   4.87407239
_cell_length_b   4.87407188
_cell_length_c   4.87407171
_cell_angle_alpha   62.38412077
_cell_angle_beta   62.38412152
_cell_angle_gamma   62.38412047
_symmetry_Int_Tables_number   1
_chemical_formula_structural   TiMnNbV3
_chemical_formula_sum   'Ti1 Mn1 Nb1 V3'
_cell_volume   86.23073522
_cell_formula_units_Z   1
loop_
 _symmetry_equiv_pos_site_id
 _symmetry_equiv_pos_as_xyz
  1  'x, y, z'
loop_
 _atom_site_type_symbol
 _atom_site_label
 _atom_site_symmetry_multiplicity
 _atom_site_fract_x
 _atom_site_fract_y
 _atom_site_fract_z
 _atom_site_occupancy
  Ti  Ti0  1  0.62504336  0.62504336  0.62504336  1
  Mn  Mn0  1  0.99986504  0.99986504  0.99986504  1
  Nb  Nb0  1  0.37408680  0.37408680  0.37408680  1
  V  V0  1  0.00004118  0.50092144  0.00004118  1
  V  V1  1  0.50092144  0.00004118  0.00004118  1
  V  V2  1  0.00004118  0.00004118  0.50092144  1
loop_
_geom_bond_atom_site_label_1
_geom_bond_atom_site_label_2
_geom_bond_distance
_geom_bond_site_symmetry_2
Ti0 V1 2.845053 1_566
Ti0 V0 2.845054 1_656
Ti0 V2 2.845054 1_665
Ti0 V1 2.916883 1_565
Ti0 V0 2.916883 1_655
Ti0 V2 2.916883 1_655
Ti0 V1 2.916883 1_556
Ti0 V2 2.916883 1_565
Ti0 V0 2.916883 1_556
Mn0 V2 2.431091 1_665
Mn0 V0 2.431091 1_656
Mn0 V1 2.431092 1_566
Mn0 V2 2.442981 1_666
Mn0 V0 2.442981 1_666
Mn0 V1 2.442981 1_666
Mn0 Nb0 2.953963 1_656
Mn0 Nb0 2.953963 1_665
Mn0 Nb0 2.953963 1_566
Mn0 Ti0 2.955111 1_565
Mn0 Ti0 2.955111 1_556
Mn0 Ti0 2.955111 1_655
Nb0 V1 2.832210 1_555
Nb0 V0 2.832211 1_555
Nb0 V2 2.832211 1_555
Nb0 V1 2.925962 1_556
Nb0 V0 2.925962 1_556
Nb0 V2 2.925962 1_565
Nb0 V1 2.925962 1_565
Nb0 V2 2.925962 1_655
Nb0 V0 2.925962 1_655
Nb0 Ti0 2.941043 1_555
Nb0 Ti0 3.070549 1_554
Nb0 Ti0 3.070550 1_545
Nb0 Ti0 3.070550 1_455
V0 V2 2.519879 1_564
V0 V1 2.519879 1_465
V0 V2 2.528767 1_555
V0 V1 2.528767 1_555
V1 V2 2.519879 1_654
V1 V2 2.528767 1_555
