# generated using pymatgen
data_Y6VFeB14
_symmetry_space_group_name_H-M   'P 1'
_cell_length_a   8.09888463
_cell_length_b   8.09888374
_cell_length_c   9.34479048
_cell_angle_alpha   90.00000000
_cell_angle_beta   90.00000000
_cell_angle_gamma   155.51312121
_symmetry_Int_Tables_number   1
_chemical_formula_structural   Y6VFeB14
_chemical_formula_sum   'Y6 V1 Fe1 B14'
_cell_volume   254.05549909
_cell_formula_units_Z   1
loop_
 _symmetry_equiv_pos_site_id
 _symmetry_equiv_pos_as_xyz
  1  'x, y, z'
loop_
 _atom_site_type_symbol
 _atom_site_label
 _atom_site_symmetry_multiplicity
 _atom_site_fract_x
 _atom_site_fract_y
 _atom_site_fract_z
 _atom_site_occupancy
  Y  Y0  1  0.75715470  0.24284530  0.25000000  1
  Y  Y1  1  0.24070608  0.75929392  0.75000000  1
  Y  Y2  1  0.89503921  0.10496079  0.56258721  1
  Y  Y3  1  0.10566685  0.89433315  0.44172145  1
  Y  Y4  1  0.10566685  0.89433315  0.05827855  1
  Y  Y5  1  0.89503921  0.10496079  0.93741279  1
  V  V0  1  0.94718063  0.05281937  0.25000000  1
  Fe  Fe0  1  0.05486314  0.94513686  0.75000000  1
  B  B0  1  0.54228010  0.45771990  0.25000000  1
  B  B1  1  0.46216364  0.53783636  0.75000000  1
  B  B2  1  0.52196966  0.47803034  0.90142667  1
  B  B3  1  0.47958077  0.52041923  0.09443990  1
  B  B4  1  0.47958077  0.52041923  0.40556010  1
  B  B5  1  0.52196966  0.47803034  0.59857333  1
  B  B6  1  0.62878900  0.37121100  0.84640658  1
  B  B7  1  0.36775352  0.63224648  0.14904282  1
  B  B8  1  0.72678329  0.27321671  0.96459829  1
  B  B9  1  0.27224406  0.72775594  0.03182196  1
  B  B10  1  0.27224406  0.72775594  0.46817804  1
  B  B11  1  0.72678329  0.27321671  0.53540171  1
  B  B12  1  0.62878900  0.37121100  0.65359342  1
  B  B13  1  0.36775352  0.63224648  0.35095718  1
loop_
_geom_bond_atom_site_label_1
_geom_bond_atom_site_label_2
_geom_bond_distance
_geom_bond_site_symmetry_2
B0 B4 1.760174 1_555
B0 B3 1.760174 1_555
B0 V0 2.283837 1_565
B0 V0 2.283837 1_455
B0 Y3 2.677007 1_545
B0 Y4 2.677007 1_545
B0 Y3 2.677007 1_655
B0 Y4 2.677007 1_655
B1 B2 1.702525 1_555
B1 B5 1.702525 1_555
B1 Fe0 2.258977 1_545
B1 Fe0 2.258977 1_655
B1 Y5 2.673190 1_565
B1 Y2 2.673190 1_565
B1 Y5 2.673190 1_455
B1 Y2 2.673190 1_455
B2 B6 1.767323 1_555
B2 B3 1.924434 1_556
B2 Fe0 2.285448 1_545
B2 Fe0 2.285448 1_655
B2 Y4 2.617918 1_546
B2 Y4 2.617919 1_656
B2 Y5 2.664558 1_565
B2 Y5 2.664559 1_455
B3 B7 1.842227 1_555
B3 V0 2.307814 1_565
B3 V0 2.307815 1_455
B3 Y5 2.625623 1_564
B3 Y5 2.625623 1_454
B3 Y4 2.654702 1_545
B3 Y4 2.654703 1_655
B4 B5 1.924434 1_555
B4 V0 2.307814 1_565
B4 V0 2.307815 1_455
B4 Y2 2.625623 1_565
B4 Y2 2.625623 1_455
B4 Y3 2.654702 1_545
B4 Y3 2.654703 1_655
B5 Fe0 2.285448 1_545
B5 Fe0 2.285448 1_655
B5 Y3 2.617918 1_545
B5 Y3 2.617919 1_655
B5 Y2 2.664558 1_565
B5 Y2 2.664559 1_455
B6 B8 1.904219 1_555
B6 Fe0 2.265122 1_655
B6 Fe0 2.265122 1_545
B6 Y1 2.626764 1_545
B6 Y1 2.626765 1_655
B6 Y4 2.646461 1_656
B6 Y4 2.646461 1_546
B7 B9 1.866979 1_555
B7 V0 2.328217 1_455
B7 V0 2.328217 1_565
B7 Y0 2.627702 1_565
B7 Y0 2.627703 1_455
B7 Y5 2.654693 1_454
B7 Y5 2.654693 1_564
B8 B9 1.965264 1_546
B8 B9 1.965264 1_656
B8 Y1 2.649509 1_545
B8 Y1 2.649509 1_655
B8 Y5 2.675471 1_555
B8 Y0 2.710004 1_556
B8 Y4 2.718785 1_656
B8 Y4 2.718786 1_546
B9 Y4 2.648375 1_555
B9 Y0 2.676502 1_565
B9 Y0 2.676502 1_455
B9 Y1 2.680467 1_554
B9 Y5 2.739774 1_454
B9 Y5 2.739775 1_564
B10 B13 1.866979 1_555
B10 B11 1.965264 1_565
B10 B11 1.965264 1_455
B10 Y3 2.648375 1_555
B10 Y0 2.676502 1_565
B10 Y0 2.676502 1_455
B10 Y1 2.680467 1_555
B10 Y2 2.739774 1_455
B10 Y2 2.739775 1_565
B11 B12 1.904219 1_555
B11 Y1 2.649509 1_545
B11 Y1 2.649509 1_655
B11 Y2 2.675471 1_555
B11 Y0 2.710004 1_555
B11 Y3 2.718785 1_655
B11 Y3 2.718786 1_545
B12 B5 1.767323 1_555
B12 B6 1.801799 1_555
B12 Fe0 2.265122 1_655
B12 Fe0 2.265122 1_545
B12 Y1 2.626764 1_545
B12 Y1 2.626765 1_655
B12 Y3 2.646461 1_655
B12 Y3 2.646461 1_545
B13 B4 1.842227 1_555
B13 B7 1.886847 1_555
B13 V0 2.328217 1_455
B13 V0 2.328217 1_565
B13 Y0 2.627702 1_565
B13 Y0 2.627703 1_455
B13 Y2 2.654693 1_455
B13 Y2 2.654693 1_565
