# generated using pymatgen
data_Zr4NbSn3C
_symmetry_space_group_name_H-M   'P 1'
_cell_length_a   8.41185839
_cell_length_b   8.41185840
_cell_length_c   5.75991553
_cell_angle_alpha   90.00000000
_cell_angle_beta   90.00000000
_cell_angle_gamma   119.99999996
_symmetry_Int_Tables_number   1
_chemical_formula_structural   Zr4NbSn3C
_chemical_formula_sum   'Zr8 Nb2 Sn6 C2'
_cell_volume   352.96419547
_cell_formula_units_Z   2
loop_
 _symmetry_equiv_pos_site_id
 _symmetry_equiv_pos_as_xyz
  1  'x, y, z'
loop_
 _atom_site_type_symbol
 _atom_site_label
 _atom_site_symmetry_multiplicity
 _atom_site_fract_x
 _atom_site_fract_y
 _atom_site_fract_z
 _atom_site_occupancy
  Zr  Zr0  1  0.66666700  0.33333300  0.00000000  1
  Zr  Zr1  1  0.33333300  0.66666700  0.00000000  1
  Zr  Zr2  1  0.22161120  0.00000000  0.75007785  1
  Zr  Zr3  1  0.77838880  0.00000000  0.24992215  1
  Zr  Zr4  1  0.00000000  0.22161120  0.75007785  1
  Zr  Zr5  1  0.00000000  0.77838880  0.24992215  1
  Zr  Zr6  1  0.77838880  0.77838880  0.75007785  1
  Zr  Zr7  1  0.22161120  0.22161120  0.24992215  1
  Nb  Nb0  1  0.33333300  0.66666700  0.50000000  1
  Nb  Nb1  1  0.66666700  0.33333300  0.50000000  1
  Sn  Sn0  1  0.59291628  0.00000000  0.74145469  1
  Sn  Sn1  1  0.40708372  0.00000000  0.25854531  1
  Sn  Sn2  1  0.00000000  0.59291628  0.74145469  1
  Sn  Sn3  1  0.00000000  0.40708372  0.25854531  1
  Sn  Sn4  1  0.40708372  0.40708372  0.74145469  1
  Sn  Sn5  1  0.59291628  0.59291628  0.25854531  1
  C  C0  1  0.00000000  0.00000000  0.50000000  1
  C  C1  1  0.00000000  0.00000000  0.00000000  1
loop_
_geom_bond_atom_site_label_1
_geom_bond_atom_site_label_2
_geom_bond_distance
_geom_bond_site_symmetry_2
Nb0 Zr1 2.879958 1_556
Nb0 Zr1 2.879958 1_555
Nb0 Sn2 2.905461 1_555
Nb0 Sn1 2.905461 1_565
Nb0 Sn3 2.905463 1_555
Nb0 Sn0 2.905463 1_565
Nb0 Sn5 2.905468 1_555
Nb0 Sn4 2.905468 1_555
Nb1 Zr0 2.879958 1_555
Nb1 Zr0 2.879958 1_556
Nb1 Sn3 2.905461 1_655
Nb1 Sn0 2.905461 1_555
Nb1 Sn2 2.905463 1_655
Nb1 Sn1 2.905463 1_555
Nb1 Sn4 2.905468 1_555
Nb1 Sn5 2.905468 1_555
Sn0 Zr0 2.953846 1_556
Sn0 Zr1 2.953848 1_546
Sn0 Zr4 2.969865 1_655
Sn0 Zr6 2.969865 1_545
Sn0 Zr2 3.123761 1_555
Sn0 Zr3 3.232606 1_555
Sn0 Zr3 3.318371 1_556
Sn1 Zr1 2.953846 1_545
Sn1 Zr0 2.953848 1_555
Sn1 Zr5 2.969865 1_545
Sn1 Zr7 2.969865 1_555
Sn1 Zr3 3.123761 1_555
Sn1 Zr2 3.232606 1_555
Sn1 Zr2 3.318371 1_554
Sn2 Zr1 2.953846 1_556
Sn2 Zr0 2.953848 1_456
Sn2 Zr6 2.969865 1_455
Sn2 Zr2 2.969865 1_565
Sn2 Zr4 3.123761 1_555
Sn2 Zr5 3.232606 1_555
Sn2 Zr5 3.318371 1_556
Sn3 Zr0 2.953846 1_455
Sn3 Zr1 2.953848 1_555
Sn3 Zr7 2.969865 1_555
Sn3 Zr3 2.969865 1_455
Sn3 Zr5 3.123761 1_555
Sn3 Zr4 3.232606 1_555
Sn3 Zr4 3.318371 1_554
Sn4 Zr0 2.953853 1_556
Sn4 Zr1 2.953853 1_556
Sn4 Zr4 2.969865 1_555
Sn4 Zr2 2.969865 1_555
Sn4 Zr6 3.123761 1_555
Sn4 Zr7 3.232606 1_555
Sn4 Zr7 3.318371 1_556
Sn5 Zr1 2.953853 1_555
Sn5 Zr0 2.953853 1_555
Sn5 Zr5 2.969865 1_655
Sn5 Zr3 2.969865 1_565
Sn5 Zr7 3.123761 1_555
Sn5 Zr6 3.232606 1_555
Sn5 Zr6 3.318371 1_554
C0 Zr2 2.355829 1_555
C0 Zr3 2.355829 1_455
C0 Zr7 2.355829 1_555
C0 Zr6 2.355829 1_445
C0 Zr4 2.355829 1_555
C0 Zr5 2.355829 1_545
C1 Zr2 2.355281 1_554
C1 Zr3 2.355281 1_455
C1 Zr7 2.355281 1_555
C1 Zr6 2.355281 1_444
C1 Zr4 2.355281 1_554
C1 Zr5 2.355281 1_545
