# generated using pymatgen
data_Ta3GaOs2N
_symmetry_space_group_name_H-M   'P 1'
_cell_length_a   8.25133022
_cell_length_b   8.25133060
_cell_length_c   8.25132876
_cell_angle_alpha   59.99999949
_cell_angle_beta   59.99999797
_cell_angle_gamma   59.99999790
_symmetry_Int_Tables_number   1
_chemical_formula_structural   Ta3GaOs2N
_chemical_formula_sum   'Ta12 Ga4 Os8 N4'
_cell_volume   397.24353132
_cell_formula_units_Z   4
loop_
 _symmetry_equiv_pos_site_id
 _symmetry_equiv_pos_as_xyz
  1  'x, y, z'
loop_
 _atom_site_type_symbol
 _atom_site_label
 _atom_site_symmetry_multiplicity
 _atom_site_fract_x
 _atom_site_fract_y
 _atom_site_fract_z
 _atom_site_occupancy
  Ta  Ta0  1  0.80555938  0.80555938  0.19444062  1
  Ta  Ta1  1  0.19444062  0.19444062  0.80555938  1
  Ta  Ta2  1  0.80555938  0.19444062  0.80555938  1
  Ta  Ta3  1  0.19444062  0.80555938  0.19444062  1
  Ta  Ta4  1  0.19444062  0.80555938  0.80555938  1
  Ta  Ta5  1  0.80555938  0.19444062  0.19444062  1
  Ta  Ta6  1  0.44444062  0.44444062  0.05555938  1
  Ta  Ta7  1  0.05555938  0.05555938  0.44444062  1
  Ta  Ta8  1  0.44444062  0.05555938  0.44444062  1
  Ta  Ta9  1  0.05555938  0.44444062  0.05555938  1
  Ta  Ta10  1  0.05555938  0.44444062  0.44444062  1
  Ta  Ta11  1  0.44444062  0.05555938  0.05555938  1
  Ga  Ga0  1  0.12500000  0.62500000  0.62500000  1
  Ga  Ga1  1  0.62500000  0.12500000  0.62500000  1
  Ga  Ga2  1  0.62500000  0.62500000  0.12500000  1
  Ga  Ga3  1  0.62500000  0.62500000  0.62500000  1
  Os  Os0  1  0.75786341  0.41404553  0.41404553  1
  Os  Os1  1  0.41404553  0.75786341  0.41404553  1
  Os  Os2  1  0.41404553  0.41404553  0.75786341  1
  Os  Os3  1  0.41404553  0.41404553  0.41404553  1
  Os  Os4  1  0.49213659  0.83595447  0.83595447  1
  Os  Os5  1  0.83595447  0.49213659  0.83595447  1
  Os  Os6  1  0.83595447  0.83595447  0.49213659  1
  Os  Os7  1  0.83595447  0.83595447  0.83595447  1
  N  N0  1  0.62500000  0.12500000  0.12500000  1
  N  N1  1  0.12500000  0.62500000  0.12500000  1
  N  N2  1  0.12500000  0.12500000  0.62500000  1
  N  N3  1  0.12500000  0.12500000  0.12500000  1
loop_
_geom_bond_atom_site_label_1
_geom_bond_atom_site_label_2
_geom_bond_distance
_geom_bond_site_symmetry_2
Ga0 Os3 2.544593 1_555
Ga0 Os7 2.544593 1_455
Ga0 Os6 2.544593 1_455
Ga0 Os2 2.544593 1_555
Ga0 Os5 2.544593 1_455
Ga0 Os1 2.544593 1_555
Ga0 Ta9 2.948663 1_556
Ga0 Ta3 2.948663 1_555
Ga0 Ta4 2.948663 1_555
Ga0 Ta10 2.948663 1_555
Ga0 Ta7 2.948663 1_565
Ga0 Ta1 2.948663 1_555
Ga1 Os3 2.544593 1_555
Ga1 Os7 2.544593 1_545
Ga1 Os6 2.544593 1_545
Ga1 Os2 2.544593 1_555
Ga1 Os4 2.544593 1_545
Ga1 Os0 2.544593 1_555
Ga1 Ta11 2.948663 1_556
Ga1 Ta5 2.948663 1_555
Ga1 Ta2 2.948663 1_555
Ga1 Ta8 2.948663 1_555
Ga1 Ta7 2.948663 1_655
Ga1 Ta1 2.948663 1_555
Ga2 Os5 2.544593 1_554
Ga2 Os1 2.544593 1_555
Ga2 Os4 2.544593 1_554
Ga2 Os0 2.544593 1_555
Ga2 Os3 2.544593 1_555
Ga2 Os7 2.544593 1_554
Ga2 Ta9 2.948663 1_655
Ga2 Ta3 2.948663 1_555
Ga2 Ta0 2.948663 1_555
Ga2 Ta6 2.948663 1_555
Ga2 Ta11 2.948663 1_565
Ga2 Ta5 2.948663 1_555
Ga3 Os1 2.544593 1_555
Ga3 Os5 2.544593 1_555
Ga3 Os0 2.544593 1_555
Ga3 Os4 2.544593 1_555
Ga3 Os2 2.544593 1_555
Ga3 Os6 2.544593 1_555
Ga3 Ta6 2.948663 1_556
Ga3 Ta0 2.948663 1_555
Ga3 Ta10 2.948663 1_655
Ga3 Ta4 2.948663 1_555
Ga3 Ta8 2.948663 1_565
Ga3 Ta2 2.948663 1_555
Os0 Ta9 2.730323 1_655
Os0 Ta10 2.730323 1_655
Os0 Ta7 2.730323 1_655
Os0 Ta2 2.928993 1_555
Os0 Ta5 2.928993 1_555
Os0 Ta0 2.928994 1_555
Os1 Ta11 2.730323 1_565
Os1 Ta7 2.730323 1_565
Os1 Ta8 2.730324 1_565
Os1 Ta4 2.928993 1_555
Os1 Ta3 2.928993 1_555
Os1 Ta0 2.928993 1_555
Os2 Ta6 2.730323 1_556
Os2 Ta9 2.730323 1_556
Os2 Ta11 2.730323 1_556
Os2 Ta2 2.928993 1_555
Os2 Ta4 2.928994 1_555
Os2 Ta1 2.928994 1_555
Os3 Ta6 2.730323 1_555
Os3 Ta10 2.730323 1_555
Os3 Ta8 2.730324 1_555
Os3 Ta1 2.928993 1_555
Os3 Ta5 2.928993 1_555
Os3 Ta3 2.928993 1_555
Os4 Ta3 2.730323 1_556
Os4 Ta4 2.730323 1_555
Os4 Ta1 2.730323 1_565
Os4 Ta8 2.928993 1_565
Os4 Ta11 2.928993 1_566
Os4 Ta6 2.928994 1_556
Os5 Ta5 2.730323 1_556
Os5 Ta1 2.730323 1_655
Os5 Ta2 2.730324 1_555
Os5 Ta10 2.928993 1_655
Os5 Ta9 2.928993 1_656
Os5 Ta6 2.928993 1_556
Os6 Ta0 2.730323 1_555
Os6 Ta3 2.730323 1_655
Os6 Ta5 2.730323 1_565
Os6 Ta8 2.928993 1_565
Os6 Ta10 2.928994 1_655
Os6 Ta7 2.928994 1_665
Os7 Ta0 2.730323 1_556
Os7 Ta4 2.730323 1_655
Os7 Ta2 2.730324 1_565
Os7 Ta7 2.928993 1_665
Os7 Ta11 2.928993 1_566
Os7 Ta9 2.928993 1_656
N0 Ta8 2.216277 1_555
N0 Ta2 2.216277 1_554
N0 Ta5 2.216277 1_555
N0 Ta11 2.216277 1_555
N0 Ta0 2.216277 1_545
N0 Ta6 2.216277 1_555
N1 Ta10 2.216277 1_555
N1 Ta4 2.216277 1_554
N1 Ta6 2.216277 1_555
N1 Ta0 2.216277 1_455
N1 Ta3 2.216277 1_555
N1 Ta9 2.216277 1_555
N2 Ta1 2.216277 1_555
N2 Ta7 2.216277 1_555
N2 Ta8 2.216277 1_555
N2 Ta2 2.216277 1_455
N2 Ta10 2.216277 1_555
N2 Ta4 2.216277 1_545
N3 Ta7 2.216277 1_555
N3 Ta1 2.216277 1_554
N3 Ta11 2.216277 1_555
N3 Ta5 2.216277 1_455
N3 Ta9 2.216277 1_555
N3 Ta3 2.216277 1_545
