# generated using pymatgen
data_Hf6CrSi6Tc5
_symmetry_space_group_name_H-M   'P 1'
_cell_length_a   7.70386274
_cell_length_b   7.70370612
_cell_length_c   7.70370631
_cell_angle_alpha   126.76536479
_cell_angle_beta   127.91443546
_cell_angle_gamma   77.69993329
_symmetry_Int_Tables_number   1
_chemical_formula_structural   Hf6CrSi6Tc5
_chemical_formula_sum   'Hf6 Cr1 Si6 Tc5'
_cell_volume   280.15711201
_cell_formula_units_Z   1
loop_
 _symmetry_equiv_pos_site_id
 _symmetry_equiv_pos_as_xyz
  1  'x, y, z'
loop_
 _atom_site_type_symbol
 _atom_site_label
 _atom_site_symmetry_multiplicity
 _atom_site_fract_x
 _atom_site_fract_y
 _atom_site_fract_z
 _atom_site_occupancy
  Hf  Hf0  1  0.54620438  0.09442581  0.04491899  1
  Hf  Hf1  1  0.45379562  0.49871462  0.54822043  1
  Hf  Hf2  1  0.95065755  0.49867986  0.04483866  1
  Hf  Hf3  1  0.04934245  0.09418011  0.54802231  1
  Hf  Hf4  1  0.74854599  0.89752482  0.64603048  1
  Hf  Hf5  1  0.25145401  0.89748448  0.14897883  1
  Cr  Cr0  1  0.00000000  0.24219190  0.24219190  1
  Si  Si0  1  0.33369667  0.83098079  0.49749251  1
  Si  Si1  1  0.66630333  0.16379584  0.49728212  1
  Si  Si2  1  0.83426242  0.83312428  0.99882997  1
  Si  Si3  1  0.16573758  0.16456755  0.99885985  1
  Si  Si4  1  0.74793093  0.49706707  0.24491197  1
  Si  Si5  1  0.25206907  0.49698104  0.74913614  1
  Tc  Tc0  1  0.12661411  0.74728153  0.62077914  1
  Tc  Tc1  1  0.87338589  0.49416503  0.62066741  1
  Tc  Tc2  1  0.62726070  0.75233973  0.12505640  1
  Tc  Tc3  1  0.37273930  0.49779470  0.12507903  1
  Tc  Tc4  1  0.50000000  0.24270484  0.74270484  1
loop_
_geom_bond_atom_site_label_1
_geom_bond_atom_site_label_2
_geom_bond_distance
_geom_bond_site_symmetry_2
Hf0 Si0 2.696112 1_544
Hf0 Si3 2.699182 1_554
Hf0 Si1 2.702724 1_555
Hf0 Si2 2.704132 1_544
Hf0 Si4 2.792971 1_555
Hf0 Tc2 2.913535 1_545
Hf0 Tc0 2.918830 1_544
Hf0 Tc1 2.954019 1_555
Hf0 Tc3 2.961609 1_555
Hf0 Tc4 2.973853 1_554
Hf1 Si1 2.696111 1_555
Hf1 Si2 2.699189 1_555
Hf1 Si0 2.702735 1_555
Hf1 Si3 2.704136 1_554
Hf1 Si5 2.792978 1_555
Hf1 Tc3 2.913522 1_555
Hf1 Tc1 2.918827 1_555
Hf1 Tc0 2.954022 1_555
Hf1 Tc2 2.961621 1_556
Hf1 Tc4 2.973859 1_555
Hf2 Si1 2.696726 1_554
Hf2 Si2 2.699274 1_554
Hf2 Si0 2.703192 1_655
Hf2 Si3 2.703469 1_654
Hf2 Si4 2.793647 1_555
Hf2 Tc3 2.912183 1_655
Hf2 Tc1 2.918139 1_554
Hf2 Tc0 2.955309 1_655
Hf2 Tc2 2.963081 1_555
Hf2 Tc4 2.975068 1_554
Hf3 Si0 2.696715 1_545
Hf3 Si3 2.699255 1_555
Hf3 Si1 2.703187 1_455
Hf3 Si2 2.703470 1_444
Hf3 Si5 2.793654 1_555
Hf3 Tc2 2.912180 1_445
Hf3 Tc0 2.918131 1_545
Hf3 Tc1 2.955316 1_455
Hf3 Tc3 2.963081 1_556
Hf3 Tc4 2.975071 1_555
Hf4 Si0 2.699560 1_555
Hf4 Si1 2.700018 1_565
Hf4 Si3 2.708705 1_665
Hf4 Si2 2.708848 1_555
Hf4 Si4 2.764510 1_555
Hf4 Tc4 2.916262 1_565
Hf4 Tc2 2.948679 1_555
Hf4 Tc3 2.948897 1_555
Hf4 Tc1 2.974846 1_555
Hf4 Tc0 2.975082 1_655
Hf5 Si1 2.699563 1_565
Hf5 Si0 2.700006 1_555
Hf5 Si2 2.708702 1_454
Hf5 Si3 2.708860 1_564
Hf5 Si5 2.764510 1_554
Hf5 Tc4 2.916262 1_565
Hf5 Tc3 2.948686 1_555
Hf5 Tc2 2.948894 1_555
Hf5 Tc0 2.974846 1_554
Hf5 Tc1 2.975082 1_454
Cr0 Si5 2.450086 1_555
Cr0 Si4 2.450087 1_455
Cr0 Si2 2.603086 1_444
Cr0 Si3 2.603100 1_554
Cr0 Hf4 2.924924 1_444
Cr0 Hf5 2.924924 1_545
Cr0 Hf0 2.987054 1_455
Cr0 Hf1 2.987056 1_555
Cr0 Hf2 2.987645 1_455
Cr0 Hf3 2.987651 1_555
Si0 Tc3 2.612670 1_555
Si0 Tc4 2.618156 1_565
Si0 Tc0 2.626100 1_555
Si1 Tc2 2.612663 1_545
Si1 Tc4 2.618170 1_555
Si1 Tc1 2.626090 1_555
Si2 Tc2 2.632312 1_556
Si2 Tc1 2.652136 1_555
Si3 Tc3 2.632296 1_556
Si3 Tc0 2.652131 1_545
Si4 Tc4 2.427721 1_554
Si4 Tc2 2.433901 1_555
Si4 Tc3 2.434506 1_555
Si4 Tc0 2.437964 1_655
Si4 Tc1 2.438016 1_555
Si5 Tc4 2.427721 1_555
Si5 Tc3 2.433906 1_556
Si5 Tc2 2.434506 1_556
Si5 Tc1 2.437964 1_455
Si5 Tc0 2.438016 1_555
