# generated using pymatgen
data_SrCrNiAs2
_symmetry_space_group_name_H-M   'P 1'
_cell_length_a   6.87709749
_cell_length_b   6.87709742
_cell_length_c   6.87709744
_cell_angle_alpha   146.57590413
_cell_angle_beta   146.57590776
_cell_angle_gamma   47.99213547
_symmetry_Int_Tables_number   1
_chemical_formula_structural   SrCrNiAs2
_chemical_formula_sum   'Sr1 Cr1 Ni1 As2'
_cell_volume   98.28373773
_cell_formula_units_Z   1
loop_
 _symmetry_equiv_pos_site_id
 _symmetry_equiv_pos_as_xyz
  1  'x, y, z'
loop_
 _atom_site_type_symbol
 _atom_site_label
 _atom_site_symmetry_multiplicity
 _atom_site_fract_x
 _atom_site_fract_y
 _atom_site_fract_z
 _atom_site_occupancy
  Sr  Sr0  1  0.00000000  0.00000000  0.00000000  1
  Cr  Cr0  1  0.25000000  0.75000000  0.50000000  1
  Ni  Ni0  1  0.75000000  0.25000000  0.50000000  1
  As  As0  1  0.36104395  0.36104395  0.00000000  1
  As  As1  1  0.63895605  0.63895605  1.00000000  1
loop_
_geom_bond_atom_site_label_1
_geom_bond_atom_site_label_2
_geom_bond_distance
_geom_bond_site_symmetry_2
As0 Ni0 2.420285 1_555
As0 Ni0 2.420286 1_454
As0 Cr0 2.420286 1_544
As0 Cr0 2.420286 1_555
As0 Sr0 3.297031 1_565
As0 Sr0 3.297031 1_554
As0 Sr0 3.297031 1_655
As0 Sr0 3.297031 1_666
As1 Cr0 2.420285 1_555
As1 Cr0 2.420286 1_656
As1 Ni0 2.420286 1_566
As1 Ni0 2.420286 1_555
As1 Sr0 3.297031 1_656
As1 Sr0 3.297031 1_667
As1 Sr0 3.297031 1_566
As1 Sr0 3.297031 1_555
