# generated using pymatgen
data_Sc2CoSb2Au
_symmetry_space_group_name_H-M   'P 1'
_cell_length_a   7.68311638
_cell_length_b   7.68311660
_cell_length_c   7.68311532
_cell_angle_alpha   33.51493028
_cell_angle_beta   33.51492612
_cell_angle_gamma   33.51492675
_symmetry_Int_Tables_number   1
_chemical_formula_structural   Sc2CoSb2Au
_chemical_formula_sum   'Sc2 Co1 Sb2 Au1'
_cell_volume   123.15319049
_cell_formula_units_Z   1
loop_
 _symmetry_equiv_pos_site_id
 _symmetry_equiv_pos_as_xyz
  1  'x, y, z'
loop_
 _atom_site_type_symbol
 _atom_site_label
 _atom_site_symmetry_multiplicity
 _atom_site_fract_x
 _atom_site_fract_y
 _atom_site_fract_z
 _atom_site_occupancy
  Sc  Sc0  1  0.24395760  0.24395760  0.24395760  1
  Sc  Sc1  1  0.75837353  0.75837353  0.75837353  1
  Co  Co0  1  0.87265683  0.87265683  0.87265683  1
  Sb  Sb0  1  0.99158569  0.99158569  0.99158569  1
  Sb  Sb1  1  0.50710693  0.50710693  0.50710693  1
  Au  Au0  1  0.37631942  0.37631942  0.37631942  1
loop_
_geom_bond_atom_site_label_1
_geom_bond_atom_site_label_2
_geom_bond_distance
_geom_bond_site_symmetry_2
Co0 Sc1 2.483886 1_555
Co0 Sb0 2.584855 1_555
Co0 Sb1 2.652005 1_655
Co0 Sb1 2.652005 1_565
Co0 Sb1 2.652005 1_556
Co0 Sc0 2.687712 1_566
Co0 Sc0 2.687712 1_656
Co0 Sc0 2.687712 1_665
Sb0 Sc0 3.104708 1_665
Sb0 Sc0 3.104709 1_566
Sb0 Sc0 3.104709 1_656
Sb0 Sc1 3.358297 1_556
Sb0 Sc1 3.358298 1_655
Sb0 Sc1 3.358298 1_565
Sb1 Sc0 2.978207 1_556
Sb1 Sc0 2.978207 1_655
Sb1 Sc0 2.978208 1_565
Sb1 Sc1 3.118387 1_554
Sb1 Sc1 3.118387 1_455
Sb1 Sc1 3.118388 1_545
Au0 Sc1 2.768420 1_455
Au0 Sc1 2.768420 1_545
Au0 Sc1 2.768420 1_554
Au0 Sb0 2.791215 1_544
Au0 Sb0 2.791215 1_454
Au0 Sb0 2.791216 1_445
Au0 Sb1 2.842596 1_555
Au0 Sc0 2.876813 1_555
