# generated using pymatgen
data_RbTaH5
_symmetry_space_group_name_H-M   'P 1'
_cell_length_a   10.97290481
_cell_length_b   7.28551546
_cell_length_c   5.13038446
_cell_angle_alpha   89.99802483
_cell_angle_beta   89.99989893
_cell_angle_gamma   90.00030736
_symmetry_Int_Tables_number   1
_chemical_formula_structural   RbTaH5
_chemical_formula_sum   'Rb4 Ta4 H20'
_cell_volume   410.13969761
_cell_formula_units_Z   4
loop_
 _symmetry_equiv_pos_site_id
 _symmetry_equiv_pos_as_xyz
  1  'x, y, z'
loop_
 _atom_site_type_symbol
 _atom_site_label
 _atom_site_symmetry_multiplicity
 _atom_site_fract_x
 _atom_site_fract_y
 _atom_site_fract_z
 _atom_site_occupancy
  Rb  Rb0  1  0.66961501  0.07232209  0.33745138  1
  Rb  Rb1  1  0.16963904  0.42767099  0.33743688  1
  Rb  Rb2  1  0.83039145  0.57233674  0.83744993  1
  Rb  Rb3  1  0.33036434  0.92766054  0.83743709  1
  Ta  Ta0  1  0.51938364  0.56460765  0.30629058  1
  Ta  Ta1  1  0.01935116  0.93544792  0.30626751  1
  Ta  Ta2  1  0.98062079  0.06463301  0.80626899  1
  Ta  Ta3  1  0.48064543  0.43542336  0.80629070  1
  H  H0  1  0.33168007  0.32681009  0.81212429  1
  H  H1  1  0.83167814  0.17317604  0.81208984  1
  H  H2  1  0.97775144  0.69338347  0.31297166  1
  H  H3  1  0.47775268  0.80660567  0.31294791  1
  H  H4  1  0.59909371  0.39779905  0.07517699  1
  H  H5  1  0.09908984  0.10219169  0.07515893  1
  H  H6  1  0.38385148  0.54666391  0.07230469  1
  H  H7  1  0.88384628  0.95332615  0.07229481  1
  H  H8  1  0.95186824  0.15642186  0.45072505  1
  H  H9  1  0.45187443  0.34356875  0.45074947  1
  H  H10  1  0.16831641  0.82682077  0.31210909  1
  H  H11  1  0.66832146  0.67317121  0.31210197  1
  H  H12  1  0.52224784  0.19338330  0.81298608  1
  H  H13  1  0.02224327  0.30660644  0.81293829  1
  H  H14  1  0.90090769  0.89780270  0.57516647  1
  H  H15  1  0.40091504  0.60218974  0.57517140  1
  H  H16  1  0.11614625  0.04666048  0.57229113  1
  H  H17  1  0.61614943  0.45332738  0.57231505  1
  H  H18  1  0.54813260  0.65641862  0.95073472  1
  H  H19  1  0.04812588  0.84356937  0.95074110  1
loop_
_geom_bond_atom_site_label_1
_geom_bond_atom_site_label_2
_geom_bond_distance
_geom_bond_site_symmetry_2
H0 Ta3 1.816288 1_555
H0 Rb3 2.910940 1_545
H0 Rb1 3.103578 1_555
H1 Ta2 1.815848 1_555
H1 Rb2 2.911039 1_555
H1 Rb0 3.103543 1_555
H2 Ta1 1.822003 1_655
H2 Rb1 2.862989 1_655
H2 Rb2 3.056820 1_554
H3 Ta0 1.821623 1_555
H3 Rb0 2.862804 1_565
H3 Rb3 3.056914 1_554
H4 Ta0 1.909956 1_555
H4 Ta3 1.915043 1_554
H4 Rb0 2.834091 1_555
H4 Rb2 3.089626 1_554
H5 Ta1 1.909725 1_545
H5 Ta2 1.915155 1_454
H5 Rb1 2.834268 1_555
H5 Rb3 3.089433 1_544
H6 Ta3 1.909852 1_554
H6 Ta0 1.915689 1_555
H6 Rb1 2.850732 1_555
H6 Rb3 3.082371 1_554
H7 Ta2 1.909937 1_564
H7 Ta1 1.915377 1_655
H7 Rb0 2.851005 1_565
H7 Rb2 3.082279 1_554
H8 Ta1 1.920802 1_645
H8 Ta2 1.968227 1_555
H9 Ta0 1.921263 1_555
H9 Ta3 1.968451 1_555
H10 Ta1 1.816339 1_555
H10 Rb1 2.910945 1_555
H10 Rb3 3.103514 1_554
H11 Ta0 1.815858 1_555
H11 Rb0 2.910966 1_565
H11 Rb2 3.103607 1_554
H12 Ta3 1.821842 1_555
H12 Rb3 2.862988 1_545
H12 Rb0 3.056946 1_555
H13 Ta2 1.821422 1_455
H13 Rb2 2.862804 1_455
H13 Rb1 3.056929 1_555
H14 Ta2 1.910032 1_565
H14 Ta1 1.915071 1_655
H14 Rb2 2.834022 1_555
H14 Rb0 3.089516 1_565
H15 Ta3 1.909830 1_555
H15 Ta0 1.915141 1_555
H15 Rb3 2.834196 1_555
H15 Rb1 3.089427 1_555
H16 Ta1 1.909805 1_545
H16 Ta2 1.915618 1_455
H16 Rb3 2.850844 1_545
H16 Rb1 3.082440 1_555
H17 Ta0 1.909804 1_555
H17 Ta3 1.915388 1_555
H17 Rb2 2.851075 1_555
H17 Rb0 3.082449 1_555
H18 Ta3 1.920918 1_555
H18 Ta0 1.968329 1_556
H19 Ta2 1.921430 1_465
H19 Ta1 1.968446 1_556
