# generated using pymatgen
data_LiLu3As6Rh7
_symmetry_space_group_name_H-M   'P 1'
_cell_length_a   7.09090953
_cell_length_b   7.09090998
_cell_length_c   7.12787145
_cell_angle_alpha   109.57684562
_cell_angle_beta   109.57684690
_cell_angle_gamma   109.36539082
_symmetry_Int_Tables_number   1
_chemical_formula_structural   LiLu3As6Rh7
_chemical_formula_sum   'Li1 Lu3 As6 Rh7'
_cell_volume   275.53329277
_cell_formula_units_Z   1
loop_
 _symmetry_equiv_pos_site_id
 _symmetry_equiv_pos_as_xyz
  1  'x, y, z'
loop_
 _atom_site_type_symbol
 _atom_site_label
 _atom_site_symmetry_multiplicity
 _atom_site_fract_x
 _atom_site_fract_y
 _atom_site_fract_z
 _atom_site_occupancy
  Li  Li0  1  0.00000000  0.00000000  0.50000000  1
  Lu  Lu0  1  0.50000000  0.50000000  0.50000000  1
  Lu  Lu1  1  0.00000000  0.50000000  0.00000000  1
  Lu  Lu2  1  0.50000000  0.00000000  0.00000000  1
  As  As0  1  0.68910236  1.00000000  0.67823470  1
  As  As1  1  0.68910236  0.68910236  0.01086766  1
  As  As2  1  0.31089764  0.31089764  0.98913234  1
  As  As3  1  1.00000000  0.68910236  0.67823470  1
  As  As4  1  0.00000000  0.31089764  0.32176530  1
  As  As5  1  0.31089764  0.00000000  0.32176530  1
  Rh  Rh0  1  0.74920183  0.49840367  0.24920183  1
  Rh  Rh1  1  0.50159633  0.25079817  0.75079817  1
  Rh  Rh2  1  0.74920183  0.25079817  0.50000000  1
  Rh  Rh3  1  0.25079817  0.74920183  0.50000000  1
  Rh  Rh4  1  0.25079817  0.50159633  0.75079817  1
  Rh  Rh5  1  0.49840367  0.74920183  0.24920183  1
  Rh  Rh6  1  0.00000000  0.00000000  0.00000000  1
loop_
_geom_bond_atom_site_label_1
_geom_bond_atom_site_label_2
_geom_bond_distance
_geom_bond_site_symmetry_2
Li0 Rh1 2.902196 1_555
Li0 Rh5 2.902196 1_445
Li0 Rh4 2.902196 1_555
Li0 Rh0 2.902196 1_445
Li0 Rh3 2.902196 1_545
Li0 Rh2 2.902196 1_455
Lu0 Rh2 2.883724 1_555
Lu0 Rh3 2.883724 1_555
Lu0 Rh0 2.904307 1_555
Lu0 Rh4 2.904307 1_555
Lu0 Rh5 2.904307 1_555
Lu0 Rh1 2.904307 1_555
Lu1 Rh5 2.883724 1_555
Lu1 Rh1 2.883724 1_454
Lu1 Rh3 2.904307 1_555
Lu1 Rh2 2.904307 1_454
Lu1 Rh4 2.904307 1_554
Lu1 Rh0 2.904307 1_455
Lu2 Rh0 2.883724 1_555
Lu2 Rh4 2.883724 1_544
Lu2 Rh2 2.904307 1_555
Lu2 Rh3 2.904307 1_544
Lu2 Rh1 2.904307 1_554
Lu2 Rh5 2.904307 1_545
As0 Rh5 2.516456 1_555
As0 Rh2 2.516456 1_565
As0 Rh3 2.571096 1_555
As0 Rh1 2.571096 1_565
As0 Rh6 2.594581 1_666
As0 Li0 2.889795 1_665
As0 Lu1 2.944372 1_666
As0 Lu0 2.944372 1_555
As0 Lu2 3.019788 1_566
As1 Rh5 2.516456 1_555
As1 Rh0 2.516456 1_555
As1 Rh4 2.571096 1_554
As1 Rh1 2.571096 1_554
As1 Rh6 2.594581 1_665
As1 Li0 2.889795 1_665
As1 Lu1 2.944372 1_655
As1 Lu2 2.944372 1_565
As1 Lu0 3.019788 1_554
As2 Rh1 2.516456 1_555
As2 Rh4 2.516456 1_555
As2 Rh0 2.571096 1_556
As2 Rh5 2.571096 1_556
As2 Rh6 2.594581 1_556
As2 Li0 2.889795 1_555
As2 Lu1 2.944372 1_556
As2 Lu2 2.944372 1_556
As2 Lu0 3.019788 1_556
As3 Rh0 2.516456 1_555
As3 Rh3 2.516456 1_655
As3 Rh2 2.571096 1_555
As3 Rh4 2.571096 1_655
As3 Rh6 2.594581 1_666
As3 Li0 2.889795 1_665
As3 Lu2 2.944372 1_666
As3 Lu0 2.944372 1_555
As3 Lu1 3.019788 1_656
As4 Rh4 2.516456 1_555
As4 Rh2 2.516456 1_455
As4 Rh3 2.571096 1_555
As4 Rh0 2.571096 1_455
As4 Rh6 2.594581 1_555
As4 Li0 2.889795 1_555
As4 Lu2 2.944372 1_455
As4 Lu0 2.944372 1_555
As4 Lu1 3.019788 1_555
As5 Rh1 2.516456 1_555
As5 Rh3 2.516456 1_545
As5 Rh2 2.571096 1_555
As5 Rh5 2.571096 1_545
As5 Rh6 2.594581 1_555
As5 Li0 2.889795 1_555
As5 Lu1 2.944372 1_545
As5 Lu0 2.944372 1_555
As5 Lu2 3.019788 1_555
