# generated using pymatgen
data_Sr(GaCl4)2
_symmetry_space_group_name_H-M   'P 1'
_cell_length_a   7.07779944
_cell_length_b   7.28578098
_cell_length_c   12.68325916
_cell_angle_alpha   85.04000854
_cell_angle_beta   90.00000000
_cell_angle_gamma   90.00000000
_symmetry_Int_Tables_number   1
_chemical_formula_structural   Sr(GaCl4)2
_chemical_formula_sum   'Sr2 Ga4 Cl16'
_cell_volume   651.59220623
_cell_formula_units_Z   2
loop_
 _symmetry_equiv_pos_site_id
 _symmetry_equiv_pos_as_xyz
  1  'x, y, z'
loop_
 _atom_site_type_symbol
 _atom_site_label
 _atom_site_symmetry_multiplicity
 _atom_site_fract_x
 _atom_site_fract_y
 _atom_site_fract_z
 _atom_site_occupancy
  Sr  Sr0  1  0.84308221  0.50000000  0.75000000  1
  Sr  Sr1  1  0.15691779  0.50000000  0.25000000  1
  Ga  Ga0  1  0.26207365  0.31772759  0.92315805  1
  Ga  Ga1  1  0.73792635  0.68227241  0.07684195  1
  Ga  Ga2  1  0.26207365  0.68227241  0.57684195  1
  Ga  Ga3  1  0.73792635  0.31772759  0.42315805  1
  Cl  Cl0  1  0.30725039  0.25022695  0.09262923  1
  Cl  Cl1  1  0.17683188  0.60524143  0.88877700  1
  Cl  Cl2  1  0.02742435  0.15958168  0.86406261  1
  Cl  Cl3  1  0.82316812  0.60524143  0.38877700  1
  Cl  Cl4  1  0.52751448  0.74472827  0.65391193  1
  Cl  Cl5  1  0.47248552  0.74472827  0.15391193  1
  Cl  Cl6  1  0.69274961  0.25022695  0.59262923  1
  Cl  Cl7  1  0.30725039  0.74977305  0.40737077  1
  Cl  Cl8  1  0.52751448  0.25527173  0.84608807  1
  Cl  Cl9  1  0.47248552  0.25527173  0.34608807  1
  Cl  Cl10  1  0.17683188  0.39475857  0.61122300  1
  Cl  Cl11  1  0.82316812  0.39475857  0.11122300  1
  Cl  Cl12  1  0.69274961  0.74977305  0.90737077  1
  Cl  Cl13  1  0.97257565  0.84041832  0.13593739  1
  Cl  Cl14  1  0.97257565  0.15958168  0.36406261  1
  Cl  Cl15  1  0.02742435  0.84041832  0.63593739  1
loop_
_geom_bond_atom_site_label_1
_geom_bond_atom_site_label_2
_geom_bond_distance
_geom_bond_site_symmetry_2
Cl0 Ga0 2.186649 1_554
Cl0 Sr1 3.009284 1_555
Cl1 Ga0 2.187288 1_555
Cl1 Sr0 3.082121 1_455
Cl2 Ga0 2.190201 1_555
Cl2 Sr0 3.053890 1_455
Cl3 Ga3 2.187288 1_555
Cl3 Sr1 3.082121 1_655
Cl4 Ga2 2.183834 1_555
Cl4 Sr0 3.045874 1_555
Cl5 Ga1 2.183834 1_555
Cl5 Sr1 3.045874 1_555
Cl6 Ga3 2.186649 1_555
Cl6 Sr0 3.009284 1_555
Cl7 Ga2 2.186649 1_555
Cl7 Sr1 3.009284 1_555
Cl8 Ga0 2.183834 1_555
Cl8 Sr0 3.045874 1_555
Cl9 Ga3 2.183834 1_555
Cl9 Sr1 3.045874 1_555
Cl10 Ga2 2.187288 1_555
Cl10 Sr0 3.082121 1_455
Cl11 Ga1 2.187288 1_555
Cl11 Sr1 3.082121 1_655
Cl12 Ga1 2.186649 1_556
Cl12 Sr0 3.009284 1_555
Cl13 Ga1 2.190201 1_555
Cl13 Sr1 3.053890 1_655
Cl14 Ga3 2.190201 1_555
Cl14 Sr1 3.053890 1_655
Cl15 Ga2 2.190201 1_555
Cl15 Sr0 3.053890 1_455
