# generated using pymatgen
data_SrLi4(Cu2P3)2
_symmetry_space_group_name_H-M   'P 1'
_cell_length_a   8.10974572
_cell_length_b   8.10974656
_cell_length_c   8.10974579
_cell_angle_alpha   151.78601731
_cell_angle_beta   115.37012282
_cell_angle_gamma   71.96172556
_symmetry_Int_Tables_number   1
_chemical_formula_structural   SrLi4(Cu2P3)2
_chemical_formula_sum   'Sr1 Li4 Cu4 P6'
_cell_volume   224.93990397
_cell_formula_units_Z   1
loop_
 _symmetry_equiv_pos_site_id
 _symmetry_equiv_pos_as_xyz
  1  'x, y, z'
loop_
 _atom_site_type_symbol
 _atom_site_label
 _atom_site_symmetry_multiplicity
 _atom_site_fract_x
 _atom_site_fract_y
 _atom_site_fract_z
 _atom_site_occupancy
  Sr  Sr0  1  0.00000000  0.00000000  0.00000000  1
  Li  Li0  1  0.71626302  0.71626302  0.00000000  1
  Li  Li1  1  0.66569742  0.50000000  0.16569742  1
  Li  Li2  1  0.33430258  0.50000000  0.83430258  1
  Li  Li3  1  0.28373698  0.28373698  1.00000000  1
  Cu  Cu0  1  0.90580829  0.17610531  0.72970398  1
  Cu  Cu1  1  0.55359866  0.82389469  0.72970398  1
  Cu  Cu2  1  0.44640134  0.17610531  0.27029602  1
  Cu  Cu3  1  0.09419171  0.82389469  0.27029602  1
  P  P0  1  0.97078873  0.34278086  0.62800787  1
  P  P1  1  0.71477199  0.34278086  0.37199213  1
  P  P2  1  0.58384345  0.08384345  0.50000000  1
  P  P3  1  0.41615655  0.91615655  0.50000000  1
  P  P4  1  0.28522801  0.65721914  0.62800787  1
  P  P5  1  0.02921127  0.65721914  0.37199213  1
loop_
_geom_bond_atom_site_label_1
_geom_bond_atom_site_label_2
_geom_bond_distance
_geom_bond_site_symmetry_2
Li0 P2 2.632050 1_565
Li0 P2 2.632051 1_554
Li0 P1 2.810031 1_554
Li0 P1 2.810035 1_565
Li0 P0 2.810035 1_554
Li0 P0 2.810036 1_565
Li1 P3 2.679933 1_555
Li1 P2 2.679933 1_554
Li1 P2 2.679933 1_565
Li1 P3 2.679933 1_544
Li1 P5 2.730828 1_655
Li1 P1 2.730831 1_555
Li2 P2 2.679933 1_555
Li2 P3 2.679933 1_556
Li2 P3 2.679933 1_545
Li2 P2 2.679933 1_566
Li2 P0 2.730828 1_455
Li2 P4 2.730831 1_555
Li3 P3 2.632050 1_545
Li3 P3 2.632051 1_556
Li3 P4 2.810031 1_556
Li3 P4 2.810035 1_545
Li3 P5 2.810035 1_556
Li3 P5 2.810036 1_545
Cu0 P2 2.330880 1_555
Cu0 P5 2.343180 1_656
Cu0 P5 2.343183 1_645
Cu0 P0 2.358644 1_555
Cu0 Li3 2.736446 1_655
Cu0 Cu3 2.791687 1_656
Cu0 Cu3 2.791691 1_645
Cu0 Li0 2.855075 1_556
Cu0 Li0 2.855078 1_545
Cu0 Li1 3.091515 1_556
Cu0 Li1 3.091518 1_545
Cu0 Sr0 3.291651 1_656
Cu1 P3 2.330887 1_555
Cu1 P1 2.343175 1_555
Cu1 P1 2.343179 1_566
Cu1 P4 2.358632 1_555
Cu1 Li0 2.736439 1_556
Cu1 Cu2 2.791678 1_566
Cu1 Cu2 2.791679 1_555
Cu1 Li3 2.855078 1_565
Cu1 Li3 2.855079 1_554
Cu1 Li1 3.091522 1_555
Cu1 Li1 3.091523 1_566
Cu1 Sr0 3.291653 1_666
Cu2 P2 2.330887 1_555
Cu2 P4 2.343175 1_555
Cu2 P4 2.343179 1_544
Cu2 P1 2.358632 1_555
Cu2 Li3 2.736439 1_554
Cu2 Li0 2.855078 1_545
Cu2 Li0 2.855079 1_556
Cu2 Li2 3.091522 1_555
Cu2 Li2 3.091523 1_544
Cu2 Sr0 3.291653 1_555
Cu3 P3 2.330880 1_555
Cu3 P0 2.343180 1_454
Cu3 P0 2.343183 1_465
Cu3 P5 2.358644 1_555
Cu3 Li0 2.736446 1_455
Cu3 Li3 2.855075 1_554
Cu3 Li3 2.855078 1_565
Cu3 Li2 3.091515 1_554
Cu3 Li2 3.091518 1_565
Cu3 Sr0 3.291651 1_565
P0 P1 2.219788 1_555
P0 Sr0 3.065440 1_655
P0 Sr0 3.065441 1_666
P1 Sr0 3.065446 1_666
P1 Sr0 3.065447 1_655
P2 P3 2.200895 1_545
P4 P5 2.219788 1_555
P4 Sr0 3.065446 1_555
P4 Sr0 3.065447 1_566
P5 Sr0 3.065440 1_566
P5 Sr0 3.065441 1_555
