# generated using pymatgen
data_HfZr2Sb3
_symmetry_space_group_name_H-M   'P 1'
_cell_length_a   5.57303953
_cell_length_b   5.57304031
_cell_length_c   14.08159027
_cell_angle_alpha   90.00000000
_cell_angle_beta   90.00000000
_cell_angle_gamma   139.95932157
_symmetry_Int_Tables_number   1
_chemical_formula_structural   HfZr2Sb3
_chemical_formula_sum   'Hf2 Zr4 Sb6'
_cell_volume   281.36540947
_cell_formula_units_Z   2
loop_
 _symmetry_equiv_pos_site_id
 _symmetry_equiv_pos_as_xyz
  1  'x, y, z'
loop_
 _atom_site_type_symbol
 _atom_site_label
 _atom_site_symmetry_multiplicity
 _atom_site_fract_x
 _atom_site_fract_y
 _atom_site_fract_z
 _atom_site_occupancy
  Hf  Hf0  1  0.38226203  0.61773797  0.25000000  1
  Hf  Hf1  1  0.61773797  0.38226203  0.75000000  1
  Zr  Zr0  1  0.92739228  0.07260772  0.60798923  1
  Zr  Zr1  1  0.07260772  0.92739228  0.39201077  1
  Zr  Zr2  1  0.07260772  0.92739228  0.10798923  1
  Zr  Zr3  1  0.92739228  0.07260772  0.89201077  1
  Sb  Sb0  1  0.67180073  0.32819927  0.25000000  1
  Sb  Sb1  1  0.32819927  0.67180073  0.75000000  1
  Sb  Sb2  1  0.64137112  0.35862888  0.55007461  1
  Sb  Sb3  1  0.35862888  0.64137112  0.44992539  1
  Sb  Sb4  1  0.35862888  0.64137112  0.05007461  1
  Sb  Sb5  1  0.64137112  0.35862888  0.94992539  1
loop_
_geom_bond_atom_site_label_1
_geom_bond_atom_site_label_2
_geom_bond_distance
_geom_bond_site_symmetry_2
Hf0 Sb3 2.826126 1_555
Hf0 Sb4 2.826126 1_555
Hf0 Sb0 2.915162 1_455
Hf0 Sb0 2.915163 1_565
Hf0 Sb0 3.032204 1_555
Hf1 Sb5 2.826126 1_555
Hf1 Sb2 2.826126 1_555
Hf1 Sb1 2.915162 1_655
Hf1 Sb1 2.915163 1_545
Hf1 Sb1 3.032204 1_555
Sb0 Zr1 2.952683 1_545
Sb0 Zr2 2.952683 1_545
Sb0 Zr1 2.952683 1_655
Sb0 Zr2 2.952683 1_655
Sb1 Zr3 2.952683 1_565
Sb1 Zr0 2.952683 1_565
Sb1 Zr3 2.952683 1_455
Sb1 Zr0 2.952683 1_455
Sb2 Zr1 3.018775 1_545
Sb2 Zr1 3.018775 1_655
Sb2 Zr0 3.054014 1_455
Sb2 Zr0 3.054014 1_565
Sb2 Zr0 3.104402 1_555
Sb3 Zr0 3.018775 1_565
Sb3 Zr0 3.018775 1_455
Sb3 Zr1 3.054014 1_655
Sb3 Zr1 3.054014 1_545
Sb3 Zr1 3.104402 1_555
Sb4 Zr3 3.018775 1_564
Sb4 Zr3 3.018775 1_454
Sb4 Zr2 3.054014 1_655
Sb4 Zr2 3.054014 1_545
Sb4 Zr2 3.104402 1_555
Sb5 Zr2 3.018775 1_546
Sb5 Zr2 3.018775 1_656
Sb5 Zr3 3.054014 1_455
Sb5 Zr3 3.054014 1_565
Sb5 Zr3 3.104402 1_555
