# generated using pymatgen
data_Li2Fe(PO4)2
_symmetry_space_group_name_H-M   'P 1'
_cell_length_a   8.41278255
_cell_length_b   10.35988300
_cell_length_c   8.55587875
_cell_angle_alpha   90.00000000
_cell_angle_beta   105.73247243
_cell_angle_gamma   90.00000000
_symmetry_Int_Tables_number   1
_chemical_formula_structural   Li2Fe(PO4)2
_chemical_formula_sum   'Li8 Fe4 P8 O32'
_cell_volume   717.75648148
_cell_formula_units_Z   4
loop_
 _symmetry_equiv_pos_site_id
 _symmetry_equiv_pos_as_xyz
  1  'x, y, z'
loop_
 _atom_site_type_symbol
 _atom_site_label
 _atom_site_symmetry_multiplicity
 _atom_site_fract_x
 _atom_site_fract_y
 _atom_site_fract_z
 _atom_site_occupancy
  Li  Li0  1  0.41188800  0.16816100  0.39547600  1
  Li  Li1  1  0.16182400  0.14680200  0.63325900  1
  Li  Li2  1  0.83817600  0.85319800  0.36674100  1
  Li  Li3  1  0.91188800  0.33183900  0.39547600  1
  Li  Li4  1  0.08811200  0.66816100  0.60452400  1
  Li  Li5  1  0.66182400  0.35319800  0.63325900  1
  Li  Li6  1  0.58811200  0.83183900  0.60452400  1
  Li  Li7  1  0.33817600  0.64680200  0.36674100  1
  Fe  Fe0  1  0.41234600  0.33587100  0.90456700  1
  Fe  Fe1  1  0.58765400  0.66412900  0.09543300  1
  Fe  Fe2  1  0.08765400  0.83587100  0.09543300  1
  Fe  Fe3  1  0.91234600  0.16412900  0.90456700  1
  P  P0  1  0.95863700  0.59792700  0.23763600  1
  P  P1  1  0.96522500  0.91545800  0.72143900  1
  P  P2  1  0.45863700  0.90207300  0.23763600  1
  P  P3  1  0.46522500  0.58454200  0.72143900  1
  P  P4  1  0.53477500  0.41545800  0.27856100  1
  P  P5  1  0.54136300  0.09792700  0.76236400  1
  P  P6  1  0.03477500  0.08454200  0.27856100  1
  P  P7  1  0.04136300  0.40207300  0.76236400  1
  O  O0  1  0.89653900  0.14574800  0.33949000  1
  O  O1  1  0.89331700  0.33408800  0.81310400  1
  O  O2  1  0.06854100  0.32750700  0.61674500  1
  O  O3  1  0.39331700  0.16591200  0.81310400  1
  O  O4  1  0.49814100  0.04391200  0.27199300  1
  O  O5  1  0.60346100  0.64574800  0.66051000  1
  O  O6  1  0.30508200  0.60356600  0.58584900  1
  O  O7  1  0.19866400  0.38418300  0.91063600  1
  O  O8  1  0.69866400  0.11581700  0.91063600  1
  O  O9  1  0.99814100  0.45608800  0.27199300  1
  O  O10  1  0.80508200  0.89643400  0.58584900  1
  O  O11  1  0.50253500  0.43595400  0.75711100  1
  O  O12  1  0.80133600  0.61581700  0.08936400  1
  O  O13  1  0.30133600  0.88418300  0.08936400  1
  O  O14  1  0.05079500  0.14384500  0.11561500  1
  O  O15  1  0.00185900  0.54391200  0.72800700  1
  O  O16  1  0.00253500  0.06404600  0.75711100  1
  O  O17  1  0.39653900  0.35425200  0.33949000  1
  O  O18  1  0.55079500  0.35615500  0.11561500  1
  O  O19  1  0.94920500  0.85615500  0.88438500  1
  O  O20  1  0.99746500  0.93595400  0.24288900  1
  O  O21  1  0.60668300  0.83408800  0.18689600  1
  O  O22  1  0.10668300  0.66591200  0.18689600  1
  O  O23  1  0.69491800  0.39643400  0.41415100  1
  O  O24  1  0.93145900  0.67249300  0.38325500  1
  O  O25  1  0.19491800  0.10356600  0.41415100  1
  O  O26  1  0.44920500  0.64384500  0.88438500  1
  O  O27  1  0.50185900  0.95608800  0.72800700  1
  O  O28  1  0.10346100  0.85425200  0.66051000  1
  O  O29  1  0.49746500  0.56404600  0.24288900  1
  O  O30  1  0.56854100  0.17249300  0.61674500  1
  O  O31  1  0.43145900  0.82750700  0.38325500  1
loop_
_geom_bond_atom_site_label_1
_geom_bond_atom_site_label_2
_geom_bond_distance
_geom_bond_site_symmetry_2
Li0 O4 1.927530 1_555
Li0 O17 1.982248 1_555
Li0 O25 1.990807 1_555
Li0 O30 1.992452 1_555
Li1 O25 2.018797 1_555
Li1 O2 2.019998 1_555
Li1 O16 2.103272 1_555
Li1 O3 2.138825 1_555
Li2 O10 2.018797 1_555
Li2 O24 2.019998 1_555
Li2 O20 2.103272 1_555
Li2 O21 2.138825 1_555
Li3 O9 1.927530 1_555
Li3 O0 1.982248 1_555
Li3 O23 1.990807 1_555
Li3 O2 1.992452 1_655
Li4 O15 1.927530 1_555
Li4 O28 1.982248 1_555
Li4 O6 1.990807 1_555
Li4 O24 1.992452 1_455
Li5 O23 2.018797 1_555
Li5 O30 2.019998 1_555
Li5 O11 2.103272 1_555
Li5 O1 2.138825 1_555
Li6 O27 1.927530 1_555
Li6 O5 1.982248 1_555
Li6 O10 1.990807 1_555
Li6 O31 1.992452 1_555
Li7 O6 2.018797 1_555
Li7 O31 2.019998 1_555
Li7 O29 2.103272 1_555
Li7 O22 2.138825 1_555
Fe0 O18 1.876380 1_556
Fe0 O7 1.880267 1_555
Fe0 O3 1.915811 1_555
Fe0 O11 1.939463 1_555
Fe1 O26 1.876380 1_554
Fe1 O12 1.880267 1_555
Fe1 O21 1.915811 1_555
Fe1 O29 1.939463 1_555
Fe2 O19 1.876380 1_454
Fe2 O13 1.880267 1_555
Fe2 O22 1.915811 1_555
Fe2 O20 1.939463 1_455
Fe3 O14 1.876380 1_656
Fe3 O8 1.880267 1_555
Fe3 O1 1.915811 1_555
Fe3 O16 1.939463 1_655
O0 P6 1.534612 1_655
O1 P7 1.590270 1_655
O2 P7 1.534852 1_555
O3 P5 1.590270 1_555
O4 P2 1.517604 1_545
O5 P3 1.534612 1_555
O6 P3 1.533678 1_555
O7 P7 1.576237 1_555
O8 P5 1.576237 1_555
O9 P0 1.517604 1_555
O10 P1 1.533678 1_555
O11 P3 1.584087 1_555
O12 P0 1.576237 1_555
O13 P2 1.576237 1_555
O14 P6 1.562419 1_555
O15 P7 1.517604 1_555
O16 P1 1.584087 1_445
O17 P4 1.534612 1_555
O18 P4 1.562419 1_555
O19 P1 1.562419 1_555
O20 P6 1.584087 1_665
O21 P2 1.590270 1_555
O22 P0 1.590270 1_455
O23 P4 1.533678 1_555
O24 P0 1.534852 1_555
O25 P6 1.533678 1_555
O26 P3 1.562419 1_555
O27 P5 1.517604 1_565
O28 P1 1.534612 1_455
O29 P4 1.584087 1_555
O30 P5 1.534852 1_555
O31 P2 1.534852 1_555
