# generated using pymatgen
data_BaMgInGa2
_symmetry_space_group_name_H-M   'P 1'
_cell_length_a   6.75651952
_cell_length_b   6.75651955
_cell_length_c   6.75651865
_cell_angle_alpha   139.80971496
_cell_angle_beta   139.80970877
_cell_angle_gamma   58.14233243
_symmetry_Int_Tables_number   1
_chemical_formula_structural   BaMgInGa2
_chemical_formula_sum   'Ba1 Mg1 In1 Ga2'
_cell_volume   127.29310080
_cell_formula_units_Z   1
loop_
 _symmetry_equiv_pos_site_id
 _symmetry_equiv_pos_as_xyz
  1  'x, y, z'
loop_
 _atom_site_type_symbol
 _atom_site_label
 _atom_site_symmetry_multiplicity
 _atom_site_fract_x
 _atom_site_fract_y
 _atom_site_fract_z
 _atom_site_occupancy
  Ba  Ba0  1  0.00000000  0.00000000  0.00000000  1
  Mg  Mg0  1  0.75000000  0.25000000  0.50000000  1
  In  In0  1  0.25000000  0.75000000  0.50000000  1
  Ga  Ga0  1  0.38995279  0.38995279  0.00000000  1
  Ga  Ga1  1  0.61004721  0.61004721  1.00000000  1
loop_
_geom_bond_atom_site_label_1
_geom_bond_atom_site_label_2
_geom_bond_distance
_geom_bond_site_symmetry_2
Ba0 Ga1 3.530883 1_443
Ba0 Ga0 3.530883 1_556
Ba0 Ga1 3.530883 1_544
Ba0 Ga0 3.530883 1_455
Ba0 Ga1 3.530883 1_454
Ba0 Ga0 3.530883 1_545
Ba0 Ga1 3.530884 1_555
Ba0 Ga0 3.530884 1_444
Ba0 Mg0 3.755942 1_455
Ba0 In0 3.755942 1_544
Ba0 Mg0 3.755942 1_454
Ba0 In0 3.755942 1_545
Ba0 Mg0 3.755942 1_444
Ba0 In0 3.755942 1_555
Ba0 Mg0 3.755943 1_555
Ba0 In0 3.755943 1_444
Ga0 Ga1 2.599452 1_554
Ga0 In0 2.849754 1_555
Ga0 Mg0 2.849754 1_555
Ga0 In0 2.849755 1_544
Ga0 Mg0 2.849755 1_454
Ga1 Mg0 2.849754 1_555
Ga1 In0 2.849754 1_555
Ga1 Mg0 2.849755 1_566
Ga1 In0 2.849755 1_656
