# generated using pymatgen
data_Hg3Sb(Pt2O7)2
_symmetry_space_group_name_H-M   'P 1'
_cell_length_a   7.10690248
_cell_length_b   7.26112913
_cell_length_c   7.10690154
_cell_angle_alpha   60.70015783
_cell_angle_beta   59.99999545
_cell_angle_gamma   60.70015680
_symmetry_Int_Tables_number   1
_chemical_formula_structural   Hg3Sb(Pt2O7)2
_chemical_formula_sum   'Hg3 Sb1 Pt4 O14'
_cell_volume   262.03887072
_cell_formula_units_Z   1
loop_
 _symmetry_equiv_pos_site_id
 _symmetry_equiv_pos_as_xyz
  1  'x, y, z'
loop_
 _atom_site_type_symbol
 _atom_site_label
 _atom_site_symmetry_multiplicity
 _atom_site_fract_x
 _atom_site_fract_y
 _atom_site_fract_z
 _atom_site_occupancy
  Hg  Hg0  1  0.12500000  0.12500000  0.12500000  1
  Hg  Hg1  1  0.62500000  0.12500000  0.12500000  1
  Hg  Hg2  1  0.12500000  0.12500000  0.62500000  1
  Sb  Sb0  1  0.12500000  0.62500000  0.12500000  1
  Pt  Pt0  1  0.62500000  0.62500000  0.62500000  1
  Pt  Pt1  1  0.12500000  0.62500000  0.62500000  1
  Pt  Pt2  1  0.62500000  0.62500000  0.12500000  1
  Pt  Pt3  1  0.62500000  0.12500000  0.62500000  1
  O  O0  1  0.01626640  0.95120181  0.01626640  1
  O  O1  1  0.23373360  0.29879819  0.23373360  1
  O  O2  1  0.51622078  0.56063681  0.96157171  1
  O  O3  1  0.28824510  0.29542645  0.70816373  1
  O  O4  1  0.96157171  0.56063681  0.96157171  1
  O  O5  1  0.96157171  0.56063681  0.51622078  1
  O  O6  1  0.54183627  0.95457355  0.96175490  1
  O  O7  1  0.54183627  0.95457355  0.54183627  1
  O  O8  1  0.96175490  0.95457355  0.54183627  1
  O  O9  1  0.70816373  0.29542645  0.28824510  1
  O  O10  1  0.28842829  0.68936319  0.73377922  1
  O  O11  1  0.73377922  0.68936319  0.28842829  1
  O  O12  1  0.70816373  0.29542645  0.70816373  1
  O  O13  1  0.28842829  0.68936319  0.28842829  1
loop_
_geom_bond_atom_site_label_1
_geom_bond_atom_site_label_2
_geom_bond_distance
_geom_bond_site_symmetry_2
Hg0 O1 2.300655 1_555
Hg0 O0 2.300655 1_545
Hg0 O8 2.456314 1_445
Hg0 O3 2.456314 1_554
Hg0 O6 2.456314 1_544
Hg0 O9 2.456314 1_455
Hg0 O4 2.619366 1_454
Hg0 O13 2.619366 1_545
Hg1 O0 2.300660 1_645
Hg1 O1 2.300660 1_555
Hg1 O9 2.456309 1_555
Hg1 O6 2.456309 1_544
Hg1 O7 2.456315 1_545
Hg1 O12 2.456315 1_554
Hg1 O2 2.619366 1_554
Hg1 O11 2.619366 1_545
Hg2 O0 2.300660 1_546
Hg2 O1 2.300660 1_555
Hg2 O3 2.456309 1_555
Hg2 O8 2.456309 1_445
Hg2 O7 2.456315 1_545
Hg2 O12 2.456315 1_455
Hg2 O5 2.619366 1_455
Hg2 O10 2.619366 1_545
O0 Sb0 1.954163 1_555
O1 Sb0 1.954163 1_555
O2 Pt2 1.986933 1_556
O2 Pt0 1.986939 1_555
O2 Sb0 2.308254 1_556
O3 Pt1 2.001518 1_555
O3 Pt3 2.002774 1_555
O4 Pt1 1.986939 1_655
O4 Pt2 1.986939 1_556
O4 Sb0 2.308248 1_656
O5 Pt1 1.986933 1_655
O5 Pt0 1.986940 1_555
O5 Sb0 2.308254 1_655
O6 Pt2 2.001518 1_556
O6 Pt3 2.002773 1_565
O7 Pt0 2.001519 1_555
O7 Pt3 2.002769 1_565
O8 Pt1 2.001518 1_655
O8 Pt3 2.002774 1_565
O9 Pt2 2.001518 1_555
O9 Pt3 2.002773 1_555
O10 Pt1 1.986933 1_555
O10 Pt0 1.986940 1_555
O10 Sb0 2.308254 1_556
O11 Pt2 1.986933 1_555
O11 Pt0 1.986939 1_555
O11 Sb0 2.308254 1_655
O12 Pt0 2.001519 1_555
O12 Pt3 2.002769 1_555
O13 Pt1 1.986939 1_555
O13 Pt2 1.986939 1_555
O13 Sb0 2.308248 1_555
