# generated using pymatgen
data_Rb4Ba2HfP4
_symmetry_space_group_name_H-M   'P 1'
_cell_length_a   10.61711847
_cell_length_b   10.61711829
_cell_length_c   8.01224634
_cell_angle_alpha   88.37328918
_cell_angle_beta   88.37328952
_cell_angle_gamma   119.66631403
_symmetry_Int_Tables_number   1
_chemical_formula_structural   Rb4Ba2HfP4
_chemical_formula_sum   'Rb8 Ba4 Hf2 P8'
_cell_volume   783.52826808
_cell_formula_units_Z   2
loop_
 _symmetry_equiv_pos_site_id
 _symmetry_equiv_pos_as_xyz
  1  'x, y, z'
loop_
 _atom_site_type_symbol
 _atom_site_label
 _atom_site_symmetry_multiplicity
 _atom_site_fract_x
 _atom_site_fract_y
 _atom_site_fract_z
 _atom_site_occupancy
  Rb  Rb0  1  0.05764830  0.52630234  0.61282460  1
  Rb  Rb1  1  0.52630234  0.05764830  0.11282460  1
  Rb  Rb2  1  0.27861976  0.13388088  0.82842198  1
  Rb  Rb3  1  0.87350189  0.73373136  0.76371380  1
  Rb  Rb4  1  0.85970321  0.14421757  0.80069187  1
  Rb  Rb5  1  0.73373136  0.87350189  0.26371380  1
  Rb  Rb6  1  0.13388088  0.27861976  0.32842198  1
  Rb  Rb7  1  0.14421757  0.85970321  0.30069187  1
  Ba  Ba0  1  0.46514696  0.93138336  0.60263765  1
  Ba  Ba1  1  0.46571695  0.52488923  0.61880336  1
  Ba  Ba2  1  0.93138336  0.46514696  0.10263765  1
  Ba  Ba3  1  0.52488923  0.46571695  0.11880336  1
  Hf  Hf0  1  0.66604015  0.33578686  0.50987639  1
  Hf  Hf1  1  0.33578686  0.66604015  0.00987639  1
  P  P0  1  0.67020381  0.35584087  0.82528494  1
  P  P1  1  0.35584087  0.67020381  0.32528494  1
  P  P2  1  0.58851568  0.78656975  0.87500590  1
  P  P3  1  0.20751836  0.40533162  0.92555748  1
  P  P4  1  0.20114476  0.78830733  0.90592903  1
  P  P5  1  0.40533162  0.20751836  0.42555748  1
  P  P6  1  0.78656975  0.58851568  0.37500590  1
  P  P7  1  0.78830733  0.20114476  0.40592903  1
loop_
_geom_bond_atom_site_label_1
_geom_bond_atom_site_label_2
_geom_bond_distance
_geom_bond_site_symmetry_2
Ba0 P2 3.287430 1_555
Ba0 P4 3.355301 1_555
Ba0 P1 3.359338 1_555
Ba0 P7 3.488297 1_565
Ba0 P5 3.559435 1_565
Ba1 P2 3.243861 1_555
Ba1 P1 3.317115 1_555
Ba1 P3 3.341054 1_555
Ba1 P5 3.518016 1_555
Ba1 P6 3.625709 1_555
Ba2 P6 3.287430 1_555
Ba2 P7 3.355301 1_555
Ba2 P0 3.359338 1_554
Ba2 P4 3.488297 1_654
Ba2 P3 3.559435 1_654
Ba3 P6 3.243861 1_555
Ba3 P0 3.317115 1_554
Ba3 P5 3.341054 1_555
Ba3 P3 3.518016 1_554
Ba3 P2 3.625709 1_554
Hf0 P7 2.503082 1_555
Hf0 P6 2.522500 1_555
Hf0 P5 2.529754 1_555
Hf0 P0 2.541899 1_555
Hf1 P4 2.503082 1_554
Hf1 P2 2.522500 1_554
Hf1 P3 2.529754 1_554
Hf1 P1 2.541899 1_555
P0 Rb3 3.500574 1_555
P0 Rb1 3.501864 1_556
P0 Rb2 3.623684 1_555
P0 Rb4 3.689498 1_555
P1 Rb5 3.500574 1_555
P1 Rb0 3.501864 1_555
P1 Rb6 3.623684 1_555
P1 Rb7 3.689498 1_555
P2 Rb3 3.438077 1_555
P2 Rb5 3.457710 1_556
P2 Rb4 3.466256 1_565
P2 Rb1 3.804224 1_566
P3 Rb6 3.377741 1_556
P3 Rb2 3.424801 1_555
P3 Rb0 3.539296 1_555
P3 Rb4 3.543498 1_455
P4 Rb2 3.373120 1_565
P4 Rb7 3.380114 1_556
P4 Rb0 3.457325 1_555
P4 Rb3 3.464418 1_455
P4 Rb1 3.696627 1_566
P5 Rb2 3.377742 1_555
P5 Rb6 3.424801 1_555
P5 Rb1 3.539296 1_555
P5 Rb7 3.543498 1_545
P6 Rb5 3.438077 1_555
P6 Rb3 3.457710 1_555
P6 Rb7 3.466256 1_655
P6 Rb0 3.804224 1_655
P7 Rb6 3.373120 1_655
P7 Rb4 3.380114 1_555
P7 Rb1 3.457325 1_555
P7 Rb5 3.464418 1_545
P7 Rb0 3.696627 1_655
