# generated using pymatgen
data_Y3Si2IrPt
_symmetry_space_group_name_H-M   'P 1'
_cell_length_a   5.58967993
_cell_length_b   5.58968071
_cell_length_c   13.42028306
_cell_angle_alpha   90.00000000
_cell_angle_beta   90.00000000
_cell_angle_gamma   137.58419385
_symmetry_Int_Tables_number   1
_chemical_formula_structural   Y3Si2IrPt
_chemical_formula_sum   'Y6 Si4 Ir2 Pt2'
_cell_volume   282.82740289
_cell_formula_units_Z   2
loop_
 _symmetry_equiv_pos_site_id
 _symmetry_equiv_pos_as_xyz
  1  'x, y, z'
loop_
 _atom_site_type_symbol
 _atom_site_label
 _atom_site_symmetry_multiplicity
 _atom_site_fract_x
 _atom_site_fract_y
 _atom_site_fract_z
 _atom_site_occupancy
  Y  Y0  1  0.78064820  0.21935180  0.60201443  1
  Y  Y1  1  0.51158176  0.48841824  0.25000000  1
  Y  Y2  1  0.21935180  0.78064820  0.39798557  1
  Y  Y3  1  0.78064820  0.21935180  0.89798557  1
  Y  Y4  1  0.48841824  0.51158176  0.75000000  1
  Y  Y5  1  0.21935180  0.78064820  0.10201443  1
  Si  Si0  1  0.06486323  0.93513677  0.58788646  1
  Si  Si1  1  0.06486323  0.93513677  0.91211354  1
  Si  Si2  1  0.93513677  0.06486323  0.41211354  1
  Si  Si3  1  0.93513677  0.06486323  0.08788646  1
  Ir  Ir0  1  0.50000000  0.50000000  0.00000000  1
  Ir  Ir1  1  0.50000000  0.50000000  0.50000000  1
  Pt  Pt0  1  0.80349155  0.19650845  0.25000000  1
  Pt  Pt1  1  0.19650845  0.80349155  0.75000000  1
loop_
_geom_bond_atom_site_label_1
_geom_bond_atom_site_label_2
_geom_bond_distance
_geom_bond_site_symmetry_2
Si0 Si2 2.718920 1_465
Si0 Y0 2.968215 1_465
Si0 Y2 3.014539 1_555
Si0 Y0 3.030279 1_565
Si0 Y0 3.030280 1_455
Si0 Y4 3.075203 1_455
Si0 Y4 3.075204 1_565
Si1 Si3 2.718920 1_466
Si1 Y3 2.968215 1_465
Si1 Y5 3.014539 1_556
Si1 Y3 3.030279 1_565
Si1 Y3 3.030280 1_455
Si1 Y4 3.075203 1_455
Si1 Y4 3.075204 1_565
Si2 Y2 2.968215 1_645
Si2 Y0 3.014539 1_555
Si2 Y2 3.030279 1_545
Si2 Y2 3.030280 1_655
Si2 Y1 3.075203 1_655
Si2 Y1 3.075204 1_545
Si3 Y5 2.968215 1_645
Si3 Y3 3.014539 1_554
Si3 Y5 3.030279 1_545
Si3 Y5 3.030280 1_655
Si3 Y1 3.075203 1_655
Si3 Y1 3.075204 1_545
Ir0 Si3 2.436587 1_455
Ir0 Si1 2.436587 1_654
Ir0 Si3 2.436587 1_565
Ir0 Si1 2.436587 1_544
Ir0 Y5 3.229525 1_555
Ir0 Y3 3.229525 1_554
Ir0 Y5 3.345081 1_655
Ir0 Y3 3.345081 1_454
Ir0 Y5 3.345081 1_545
Ir0 Y3 3.345081 1_564
Ir0 Y1 3.357241 1_555
Ir0 Y4 3.357241 1_554
Ir1 Si0 2.436587 1_655
Ir1 Si2 2.436587 1_455
Ir1 Si0 2.436587 1_545
Ir1 Si2 2.436587 1_565
Ir1 Y0 3.229525 1_555
Ir1 Y2 3.229525 1_555
Ir1 Y0 3.345081 1_455
Ir1 Y2 3.345081 1_655
Ir1 Y0 3.345081 1_565
Ir1 Y2 3.345081 1_545
Ir1 Y1 3.357241 1_555
Ir1 Y4 3.357241 1_555
Pt0 Si2 2.572112 1_555
Pt0 Si3 2.572112 1_555
Pt0 Y1 2.965191 1_655
Pt0 Y1 2.965192 1_545
Pt0 Y2 2.966825 1_545
Pt0 Y5 2.966825 1_545
Pt0 Y2 2.966825 1_655
Pt0 Y5 2.966825 1_655
Pt0 Y1 3.042350 1_555
Pt1 Si1 2.572112 1_555
Pt1 Si0 2.572112 1_555
Pt1 Y4 2.965191 1_455
Pt1 Y4 2.965192 1_565
Pt1 Y3 2.966825 1_565
Pt1 Y0 2.966825 1_565
Pt1 Y3 2.966825 1_455
Pt1 Y0 2.966825 1_455
Pt1 Y4 3.042350 1_555
