# generated using pymatgen
data_Hf6Be8Al7Pd8
_symmetry_space_group_name_H-M   'P 1'
_cell_length_a   8.33370693
_cell_length_b   8.33370738
_cell_length_c   8.33370731
_cell_angle_alpha   60.00000026
_cell_angle_beta   59.99999848
_cell_angle_gamma   60.00000076
_symmetry_Int_Tables_number   1
_chemical_formula_structural   Hf6Be8Al7Pd8
_chemical_formula_sum   'Hf6 Be8 Al7 Pd8'
_cell_volume   409.26039119
_cell_formula_units_Z   1
loop_
 _symmetry_equiv_pos_site_id
 _symmetry_equiv_pos_as_xyz
  1  'x, y, z'
loop_
 _atom_site_type_symbol
 _atom_site_label
 _atom_site_symmetry_multiplicity
 _atom_site_fract_x
 _atom_site_fract_y
 _atom_site_fract_z
 _atom_site_occupancy
  Hf  Hf0  1  0.69788476  0.30211524  0.30211524  1
  Hf  Hf1  1  0.30211524  0.69788476  0.69788476  1
  Hf  Hf2  1  0.30211524  0.69788476  0.30211524  1
  Hf  Hf3  1  0.69788476  0.30211524  0.69788476  1
  Hf  Hf4  1  0.30211524  0.30211524  0.69788476  1
  Hf  Hf5  1  0.69788476  0.69788476  0.30211524  1
  Be  Be0  1  0.32806282  0.32806282  0.32806282  1
  Be  Be1  1  0.67193718  0.67193718  0.67193718  1
  Be  Be2  1  0.32806282  0.32806282  0.01581254  1
  Be  Be3  1  0.32806282  0.01581254  0.32806282  1
  Be  Be4  1  0.67193718  0.67193718  0.98418746  1
  Be  Be5  1  0.67193718  0.98418746  0.67193718  1
  Be  Be6  1  0.01581254  0.32806282  0.32806282  1
  Be  Be7  1  0.98418746  0.67193718  0.67193718  1
  Al  Al0  1  0.50000000  0.00000000  0.00000000  1
  Al  Al1  1  0.00000000  0.50000000  0.50000000  1
  Al  Al2  1  0.00000000  0.50000000  0.00000000  1
  Al  Al3  1  0.50000000  0.00000000  0.50000000  1
  Al  Al4  1  0.00000000  0.00000000  0.50000000  1
  Al  Al5  1  0.50000000  0.50000000  0.00000000  1
  Al  Al6  1  0.00000000  0.00000000  0.00000000  1
  Pd  Pd0  1  0.12546879  0.12546879  0.12546879  1
  Pd  Pd1  1  0.87453121  0.87453121  0.87453121  1
  Pd  Pd2  1  0.12546879  0.12546879  0.62359363  1
  Pd  Pd3  1  0.12546879  0.62359363  0.12546879  1
  Pd  Pd4  1  0.87453121  0.87453121  0.37640637  1
  Pd  Pd5  1  0.87453121  0.37640637  0.87453121  1
  Pd  Pd6  1  0.62359363  0.12546879  0.12546879  1
  Pd  Pd7  1  0.37640637  0.87453121  0.87453121  1
loop_
_geom_bond_atom_site_label_1
_geom_bond_atom_site_label_2
_geom_bond_distance
_geom_bond_site_symmetry_2
Hf0 Pd0 2.950857 1_655
Hf0 Pd5 2.950857 1_554
Hf0 Pd6 2.950857 1_555
Hf0 Pd4 2.950858 1_545
Hf0 Hf4 3.298227 1_555
Hf0 Hf2 3.298227 1_555
Hf0 Hf3 3.298227 1_555
Hf0 Hf5 3.298227 1_555
Hf1 Pd1 2.950857 1_455
Hf1 Pd3 2.950857 1_556
Hf1 Pd7 2.950857 1_555
Hf1 Pd2 2.950858 1_565
Hf1 Hf5 3.298227 1_555
Hf1 Hf3 3.298227 1_555
Hf1 Hf2 3.298227 1_555
Hf1 Hf4 3.298227 1_555
Hf2 Pd4 2.950857 1_455
Hf2 Pd3 2.950857 1_555
Hf2 Pd7 2.950857 1_554
Hf2 Pd0 2.950858 1_565
Hf2 Hf5 3.298227 1_555
Hf2 Hf4 3.298227 1_555
Hf3 Pd2 2.950857 1_655
Hf3 Pd5 2.950857 1_555
Hf3 Pd6 2.950857 1_556
Hf3 Pd1 2.950858 1_545
Hf3 Hf4 3.298227 1_555
Hf3 Hf5 3.298227 1_555
Hf4 Pd5 2.950857 1_455
Hf4 Pd0 2.950857 1_556
Hf4 Pd2 2.950857 1_555
Hf4 Pd7 2.950858 1_545
Hf5 Pd3 2.950857 1_655
Hf5 Pd1 2.950857 1_554
Hf5 Pd4 2.950857 1_555
Hf5 Pd6 2.950858 1_565
Be0 Pd2 2.510175 1_555
Be0 Pd6 2.510175 1_555
Be0 Pd3 2.510175 1_555
Be0 Be6 2.602202 1_555
Be0 Be2 2.602202 1_555
Be0 Be3 2.602202 1_555
Be0 Hf0 2.882019 1_555
Be0 Hf4 2.882019 1_555
Be0 Hf2 2.882019 1_555
Be1 Pd4 2.510175 1_555
Be1 Pd7 2.510175 1_555
Be1 Pd5 2.510175 1_555
Be1 Be7 2.602202 1_555
Be1 Be4 2.602202 1_555
Be1 Be5 2.602202 1_555
Be1 Hf1 2.882019 1_555
Be1 Hf5 2.882019 1_555
Be1 Hf3 2.882019 1_555
Be2 Pd6 2.510170 1_555
Be2 Pd3 2.510170 1_555
Be2 Pd0 2.510177 1_555
Be2 Be6 2.602202 1_555
Be2 Be3 2.602202 1_555
Be2 Hf3 2.882022 1_554
Be2 Hf1 2.882022 1_554
Be2 Hf4 2.882027 1_554
Be3 Pd6 2.510170 1_555
Be3 Pd2 2.510170 1_555
Be3 Pd0 2.510177 1_555
Be3 Be6 2.602202 1_555
Be3 Hf5 2.882022 1_545
Be3 Hf1 2.882022 1_545
Be3 Hf2 2.882027 1_545
Be4 Pd7 2.510170 1_555
Be4 Pd5 2.510170 1_555
Be4 Pd1 2.510177 1_555
Be4 Be7 2.602202 1_555
Be4 Be5 2.602202 1_555
Be4 Hf2 2.882022 1_556
Be4 Hf0 2.882022 1_556
Be4 Hf5 2.882027 1_556
Be5 Pd7 2.510170 1_555
Be5 Pd4 2.510170 1_555
Be5 Pd1 2.510177 1_555
Be5 Be7 2.602202 1_555
Be5 Hf4 2.882022 1_565
Be5 Hf0 2.882022 1_565
Be5 Hf3 2.882027 1_565
Be6 Pd3 2.510170 1_555
Be6 Pd2 2.510170 1_555
Be6 Pd0 2.510177 1_555
Be6 Hf3 2.882022 1_455
Be6 Hf5 2.882022 1_455
Be6 Hf0 2.882027 1_455
Be7 Pd5 2.510170 1_555
Be7 Pd4 2.510170 1_555
Be7 Pd1 2.510177 1_555
Be7 Hf2 2.882022 1_655
Be7 Hf4 2.882022 1_655
Be7 Hf1 2.882027 1_655
Al0 Be3 2.408141 1_555
Al0 Be5 2.408141 1_544
Al0 Be2 2.408141 1_555
Al0 Be4 2.408141 1_544
Al0 Pd1 2.548492 1_544
Al0 Pd0 2.548492 1_555
Al0 Pd6 2.548492 1_555
Al0 Pd7 2.548492 1_544
Al0 Hf3 3.009749 1_554
Al0 Hf2 3.009749 1_545
Al0 Hf5 3.009749 1_545
Al0 Hf4 3.009749 1_554
Al1 Be7 2.408134 1_455
Al1 Be6 2.408134 1_555
Al1 Be0 2.408139 1_555
Al1 Be1 2.408139 1_455
Al1 Pd5 2.548492 1_455
Al1 Pd3 2.548492 1_555
Al1 Pd4 2.548492 1_455
Al1 Pd2 2.548492 1_555
Al1 Hf2 3.009749 1_555
Al1 Hf3 3.009749 1_455
Al1 Hf4 3.009749 1_555
Al1 Hf5 3.009749 1_455
Al2 Be2 2.408141 1_555
Al2 Be4 2.408141 1_454
Al2 Be6 2.408141 1_555
Al2 Be7 2.408141 1_454
Al2 Pd3 2.548492 1_555
Al2 Pd5 2.548492 1_454
Al2 Pd1 2.548492 1_454
Al2 Pd0 2.548492 1_555
Al2 Hf1 3.009749 1_554
Al2 Hf0 3.009749 1_455
Al2 Hf5 3.009749 1_455
Al2 Hf4 3.009749 1_554
Al3 Be5 2.408134 1_545
Al3 Be3 2.408134 1_555
Al3 Be0 2.408139 1_555
Al3 Be1 2.408139 1_545
Al3 Pd4 2.548492 1_545
Al3 Pd2 2.548492 1_555
Al3 Pd7 2.548492 1_545
Al3 Pd6 2.548492 1_555
Al3 Hf0 3.009749 1_555
Al3 Hf1 3.009749 1_545
Al3 Hf4 3.009749 1_555
Al3 Hf5 3.009749 1_545
Al4 Be3 2.408141 1_555
Al4 Be5 2.408141 1_445
Al4 Be6 2.408141 1_555
Al4 Be7 2.408141 1_445
Al4 Pd2 2.548492 1_555
Al4 Pd4 2.548492 1_445
Al4 Pd1 2.548492 1_445
Al4 Pd0 2.548492 1_555
Al4 Hf1 3.009749 1_545
Al4 Hf0 3.009749 1_455
Al4 Hf3 3.009749 1_455
Al4 Hf2 3.009749 1_545
Al5 Be4 2.408134 1_554
Al5 Be2 2.408134 1_555
Al5 Be1 2.408139 1_554
Al5 Be0 2.408139 1_555
Al5 Pd5 2.548492 1_554
Al5 Pd3 2.548492 1_555
Al5 Pd7 2.548492 1_554
Al5 Pd6 2.548492 1_555
Al5 Hf2 3.009749 1_555
Al5 Hf3 3.009749 1_554
Al5 Hf0 3.009749 1_555
Al5 Hf1 3.009749 1_554
Al6 Pd7 2.561236 1_544
Al6 Pd6 2.561236 1_455
Al6 Pd0 2.561236 1_555
Al6 Pd1 2.561236 1_444
Al6 Pd4 2.561236 1_445
Al6 Pd2 2.561236 1_554
Al6 Pd5 2.561236 1_454
Al6 Pd3 2.561236 1_545
Pd0 Pd4 2.957460 1_445
Pd0 Pd5 2.957460 1_454
Pd0 Pd7 2.957460 1_544
Pd1 Pd2 2.957460 1_665
Pd1 Pd3 2.957460 1_656
Pd1 Pd6 2.957460 1_566
Pd2 Pd7 2.957460 1_545
Pd2 Pd5 2.957460 1_455
Pd3 Pd7 2.957460 1_554
Pd3 Pd4 2.957460 1_455
Pd4 Pd6 2.957460 1_565
Pd5 Pd6 2.957460 1_556
