# generated using pymatgen
data_Zn2Ni3PtO8
_symmetry_space_group_name_H-M   'P 1'
_cell_length_a   5.82798712
_cell_length_b   5.82798784
_cell_length_c   5.97549462
_cell_angle_alpha   60.81327913
_cell_angle_beta   60.81327979
_cell_angle_gamma   59.99999323
_symmetry_Int_Tables_number   1
_chemical_formula_structural   Zn2Ni3PtO8
_chemical_formula_sum   'Zn2 Ni3 Pt1 O8'
_cell_volume   145.25354644
_cell_formula_units_Z   1
loop_
 _symmetry_equiv_pos_site_id
 _symmetry_equiv_pos_as_xyz
  1  'x, y, z'
loop_
 _atom_site_type_symbol
 _atom_site_label
 _atom_site_symmetry_multiplicity
 _atom_site_fract_x
 _atom_site_fract_y
 _atom_site_fract_z
 _atom_site_occupancy
  Zn  Zn0  1  0.49035372  0.49035372  0.52893784  1
  Zn  Zn1  1  0.75964628  0.75964628  0.72106216  1
  Ni  Ni0  1  0.12500000  0.12500000  0.12500000  1
  Ni  Ni1  1  0.62500000  0.12500000  0.12500000  1
  Ni  Ni2  1  0.12500000  0.62500000  0.12500000  1
  Pt  Pt0  1  0.12500000  0.12500000  0.62500000  1
  O  O0  1  0.88566240  0.88566240  0.87967347  1
  O  O1  1  0.90099827  0.36433760  0.37032653  1
  O  O2  1  0.36433760  0.90099827  0.37032653  1
  O  O3  1  0.35567107  0.35567107  0.93298678  1
  O  O4  1  0.88566240  0.34900173  0.87967347  1
  O  O5  1  0.89432893  0.89432893  0.31701322  1
  O  O6  1  0.34900173  0.88566240  0.87967347  1
  O  O7  1  0.36433760  0.36433760  0.37032653  1
loop_
_geom_bond_atom_site_label_1
_geom_bond_atom_site_label_2
_geom_bond_distance
_geom_bond_site_symmetry_2
Ni0 O3 1.931190 1_554
Ni0 O5 1.931190 1_445
Ni0 O2 2.026261 1_545
Ni0 O4 2.026261 1_454
Ni0 O1 2.026261 1_455
Ni0 O6 2.026261 1_544
Ni1 O5 1.931190 1_545
Ni1 O3 1.931190 1_554
Ni1 O7 2.026261 1_555
Ni1 O0 2.026261 1_544
Ni1 O4 2.026261 1_554
Ni1 O2 2.026261 1_545
Ni2 O5 1.931190 1_455
Ni2 O3 1.931190 1_554
Ni2 O7 2.026261 1_555
Ni2 O0 2.026261 1_454
Ni2 O6 2.026261 1_554
Ni2 O1 2.026261 1_455
O0 Zn1 1.968294 1_555
O0 Pt0 2.003039 1_665
O1 Zn0 1.968299 1_555
O1 Pt0 2.003038 1_655
O2 Zn0 1.968299 1_555
O2 Pt0 2.003038 1_565
O3 Zn0 1.995230 1_555
O4 Zn1 1.968299 1_555
O4 Pt0 2.003038 1_655
O5 Zn1 1.995230 1_555
O6 Zn1 1.968299 1_555
O6 Pt0 2.003038 1_565
O7 Zn0 1.968294 1_555
O7 Pt0 2.003039 1_555
