# generated using pymatgen
data_Ti4Co6Si6Rh
_symmetry_space_group_name_H-M   'P 1'
_cell_length_a   6.49177126
_cell_length_b   6.49177152
_cell_length_c   6.49177251
_cell_angle_alpha   109.47122679
_cell_angle_beta   109.47122761
_cell_angle_gamma   109.47121716
_symmetry_Int_Tables_number   1
_chemical_formula_structural   Ti4Co6Si6Rh
_chemical_formula_sum   'Ti4 Co6 Si6 Rh1'
_cell_volume   210.60456722
_cell_formula_units_Z   1
loop_
 _symmetry_equiv_pos_site_id
 _symmetry_equiv_pos_as_xyz
  1  'x, y, z'
loop_
 _atom_site_type_symbol
 _atom_site_label
 _atom_site_symmetry_multiplicity
 _atom_site_fract_x
 _atom_site_fract_y
 _atom_site_fract_z
 _atom_site_occupancy
  Ti  Ti0  1  0.50000000  0.00000000  0.00000000  1
  Ti  Ti1  1  0.00000000  0.50000000  0.00000000  1
  Ti  Ti2  1  0.00000000  0.00000000  0.50000000  1
  Ti  Ti3  1  0.50000000  0.50000000  0.50000000  1
  Co  Co0  1  0.50000000  0.75000000  0.25000000  1
  Co  Co1  1  0.75000000  0.50000000  0.25000000  1
  Co  Co2  1  0.25000000  0.75000000  0.50000000  1
  Co  Co3  1  0.25000000  0.50000000  0.75000000  1
  Co  Co4  1  0.50000000  0.25000000  0.75000000  1
  Co  Co5  1  0.75000000  0.25000000  0.50000000  1
  Si  Si0  1  0.00000000  0.32530373  0.32530373  1
  Si  Si1  1  0.67469627  1.00000000  0.67469627  1
  Si  Si2  1  0.67469627  0.67469627  1.00000000  1
  Si  Si3  1  1.00000000  0.67469627  0.67469627  1
  Si  Si4  1  0.32530373  0.00000000  0.32530373  1
  Si  Si5  1  0.32530373  0.32530373  0.00000000  1
  Rh  Rh0  1  0.00000000  0.00000000  0.00000000  1
loop_
_geom_bond_atom_site_label_1
_geom_bond_atom_site_label_2
_geom_bond_distance
_geom_bond_site_symmetry_2
Co0 Si5 2.286219 1_555
Co0 Si4 2.286219 1_565
Co0 Si1 2.286220 1_555
Co0 Si2 2.286220 1_554
Co0 Ti1 2.650254 1_555
Co0 Ti2 2.650254 1_665
Co0 Ti0 2.650255 1_565
Co0 Ti3 2.650255 1_555
Co1 Si5 2.286219 1_555
Co1 Si0 2.286219 1_655
Co1 Si3 2.286220 1_555
Co1 Si2 2.286220 1_554
Co1 Ti2 2.650254 1_665
Co1 Ti0 2.650254 1_555
Co1 Ti1 2.650255 1_655
Co1 Ti3 2.650255 1_555
Co2 Si1 2.286219 1_555
Co2 Si0 2.286219 1_555
Co2 Si3 2.286220 1_455
Co2 Si4 2.286220 1_565
Co2 Ti2 2.650255 1_565
Co2 Ti3 2.650255 1_555
Co2 Ti0 2.650255 1_566
Co2 Ti1 2.650255 1_555
Co3 Si2 2.286219 1_555
Co3 Si3 2.286219 1_455
Co3 Si0 2.286220 1_555
Co3 Si5 2.286220 1_556
Co3 Ti2 2.650254 1_555
Co3 Ti0 2.650254 1_566
Co3 Ti3 2.650255 1_555
Co3 Ti1 2.650255 1_556
Co4 Si2 2.286219 1_555
Co4 Si1 2.286219 1_545
Co4 Si4 2.286220 1_555
Co4 Si5 2.286220 1_556
Co4 Ti2 2.650254 1_555
Co4 Ti1 2.650254 1_656
Co4 Ti0 2.650255 1_556
Co4 Ti3 2.650255 1_555
Co5 Si4 2.286219 1_555
Co5 Si3 2.286219 1_555
Co5 Si0 2.286220 1_655
Co5 Si1 2.286220 1_545
Co5 Ti2 2.650255 1_655
Co5 Ti3 2.650255 1_555
Co5 Ti0 2.650255 1_555
Co5 Ti1 2.650255 1_656
Si0 Ti0 2.709702 1_455
Si0 Ti3 2.709702 1_555
Si0 Ti2 2.709703 1_555
Si0 Ti1 2.709703 1_555
Si1 Ti1 2.709702 1_666
Si1 Ti3 2.709702 1_555
Si1 Ti2 2.709703 1_665
Si1 Ti0 2.709703 1_566
Si2 Ti1 2.709702 1_656
Si2 Ti2 2.709702 1_666
Si2 Ti0 2.709702 1_566
Si2 Ti3 2.709703 1_555
Si3 Ti0 2.709702 1_666
Si3 Ti3 2.709702 1_555
Si3 Ti2 2.709703 1_665
Si3 Ti1 2.709703 1_656
Si4 Ti1 2.709702 1_545
Si4 Ti3 2.709702 1_555
Si4 Ti2 2.709703 1_555
Si4 Ti0 2.709703 1_555
Si5 Ti1 2.709702 1_555
Si5 Ti2 2.709702 1_554
Si5 Ti0 2.709702 1_555
Si5 Ti3 2.709703 1_555
Rh0 Si4 2.438494 1_555
Rh0 Si1 2.438494 1_444
Rh0 Si0 2.438494 1_555
Rh0 Si3 2.438494 1_444
Rh0 Si5 2.438494 1_555
Rh0 Si2 2.438494 1_444
