# generated using pymatgen
data_Sr5Ge2BiF
_symmetry_space_group_name_H-M   'P 1'
_cell_length_a   9.74757729
_cell_length_b   9.74757833
_cell_length_c   9.74757793
_cell_angle_alpha   129.10102413
_cell_angle_beta   129.10102606
_cell_angle_gamma   74.84806806
_symmetry_Int_Tables_number   1
_chemical_formula_structural   Sr5Ge2BiF
_chemical_formula_sum   'Sr10 Ge4 Bi2 F2'
_cell_volume   543.27465806
_cell_formula_units_Z   2
loop_
 _symmetry_equiv_pos_site_id
 _symmetry_equiv_pos_as_xyz
  1  'x, y, z'
loop_
 _atom_site_type_symbol
 _atom_site_label
 _atom_site_symmetry_multiplicity
 _atom_site_fract_x
 _atom_site_fract_y
 _atom_site_fract_z
 _atom_site_occupancy
  Sr  Sr0  1  0.50000000  0.50000000  0.00000000  1
  Sr  Sr1  1  0.00000000  0.00000000  0.00000000  1
  Sr  Sr2  1  0.51785223  0.01785223  0.81927867  1
  Sr  Sr3  1  0.19857356  0.69857356  0.18072133  1
  Sr  Sr4  1  0.01785223  0.19857356  0.50000000  1
  Sr  Sr5  1  0.69857356  0.51785223  0.50000000  1
  Sr  Sr6  1  0.48214777  0.98214777  0.18072133  1
  Sr  Sr7  1  0.80142644  0.30142644  0.81927867  1
  Sr  Sr8  1  0.98214777  0.80142644  0.50000000  1
  Sr  Sr9  1  0.30142644  0.48214777  0.50000000  1
  Ge  Ge0  1  0.88167205  0.38167205  0.26334510  1
  Ge  Ge1  1  0.11832795  0.61832795  0.73665590  1
  Ge  Ge2  1  0.38167205  0.11832795  0.50000000  1
  Ge  Ge3  1  0.61832795  0.88167205  0.50000000  1
  Bi  Bi0  1  0.25000000  0.25000000  0.00000000  1
  Bi  Bi1  1  0.75000000  0.75000000  0.00000000  1
  F  F0  1  0.25000000  0.75000000  0.50000000  1
  F  F1  1  0.75000000  0.25000000  0.50000000  1
loop_
_geom_bond_atom_site_label_1
_geom_bond_atom_site_label_2
_geom_bond_distance
_geom_bond_site_symmetry_2
Ge0 Ge1 2.803747 1_655
Ge0 Sr5 3.218865 1_555
Ge0 Sr4 3.218866 1_655
Ge0 Sr9 3.218876 1_655
Ge0 Sr8 3.218876 1_555
Ge0 Sr0 3.347544 1_555
Ge0 Sr1 3.347544 1_655
Ge0 Sr2 3.426136 1_554
Ge0 Sr7 3.426145 1_554
Ge1 Sr9 3.218873 1_555
Ge1 Sr5 3.218873 1_455
Ge1 Sr8 3.218873 1_455
Ge1 Sr4 3.218874 1_555
Ge1 Sr0 3.347541 1_556
Ge1 Sr1 3.347541 1_566
Ge1 Sr3 3.426136 1_556
Ge1 Sr6 3.426136 1_556
Ge2 Ge3 2.803753 1_545
Ge2 Sr6 3.218873 1_545
Ge2 Sr2 3.218873 1_555
Ge2 Sr7 3.218873 1_555
Ge2 Sr3 3.218874 1_545
Ge2 Sr1 3.347542 1_555
Ge2 Sr0 3.347542 1_556
Ge2 Sr4 3.426135 1_555
Ge2 Sr9 3.426136 1_555
Ge3 Sr2 3.218873 1_565
Ge3 Sr6 3.218873 1_555
Ge3 Sr3 3.218873 1_555
Ge3 Sr7 3.218874 1_565
Ge3 Sr1 3.347542 1_666
Ge3 Sr0 3.347542 1_555
Ge3 Sr8 3.426135 1_555
Ge3 Sr5 3.426136 1_555
Bi0 Sr7 3.567279 1_454
Bi0 Sr2 3.567279 1_554
Bi0 Sr6 3.567279 1_545
Bi0 Sr4 3.567279 1_554
Bi0 Sr9 3.567279 1_555
Bi0 Sr3 3.567280 1_555
Bi0 Sr5 3.567280 1_555
Bi0 Sr8 3.567280 1_444
Bi0 Sr0 3.870567 1_555
Bi0 Sr1 3.870567 1_555
Bi1 Sr3 3.567279 1_655
Bi1 Sr6 3.567279 1_555
Bi1 Sr2 3.567279 1_564
Bi1 Sr8 3.567279 1_555
Bi1 Sr5 3.567279 1_554
Bi1 Sr7 3.567280 1_554
Bi1 Sr9 3.567280 1_554
Bi1 Sr4 3.567280 1_665
Bi1 Sr1 3.870567 1_665
Bi1 Sr0 3.870567 1_555
F0 Sr8 2.526648 1_455
F0 Sr3 2.526648 1_555
F0 Sr9 2.526648 1_555
F0 Sr2 2.526648 1_565
F1 Sr4 2.526648 1_655
F1 Sr7 2.526648 1_555
F1 Sr5 2.526648 1_555
F1 Sr6 2.526648 1_545
