# generated using pymatgen
data_K3Li2ZrAs3
_symmetry_space_group_name_H-M   'P 1'
_cell_length_a   10.41202556
_cell_length_b   10.41202604
_cell_length_c   14.98930292
_cell_angle_alpha   90.00000000
_cell_angle_beta   90.00000000
_cell_angle_gamma   143.28679041
_symmetry_Int_Tables_number   1
_chemical_formula_structural   K3Li2ZrAs3
_chemical_formula_sum   'K12 Li8 Zr4 As12'
_cell_volume   971.43795868
_cell_formula_units_Z   4
loop_
 _symmetry_equiv_pos_site_id
 _symmetry_equiv_pos_as_xyz
  1  'x, y, z'
loop_
 _atom_site_type_symbol
 _atom_site_label
 _atom_site_symmetry_multiplicity
 _atom_site_fract_x
 _atom_site_fract_y
 _atom_site_fract_z
 _atom_site_occupancy
  K  K0  1  0.60411256  0.94914262  0.82569691  1
  K  K1  1  0.28832808  0.28832808  0.31936887  1
  K  K2  1  0.21167192  0.21167192  0.81936887  1
  K  K3  1  0.71167192  0.71167192  0.68063113  1
  K  K4  1  0.44914262  0.10411256  0.67430309  1
  K  K5  1  0.89588744  0.55085738  0.32569691  1
  K  K6  1  0.05085738  0.39588744  0.17430309  1
  K  K7  1  0.39588744  0.05085738  0.17430309  1
  K  K8  1  0.55085738  0.89588744  0.32569691  1
  K  K9  1  0.10411256  0.44914262  0.67430309  1
  K  K10  1  0.94914262  0.60411256  0.82569691  1
  K  K11  1  0.78832808  0.78832808  0.18063113  1
  Li  Li0  1  0.08351923  0.91648077  0.00000000  1
  Li  Li1  1  0.58351923  0.41648077  0.50000000  1
  Li  Li2  1  0.91648077  0.08351923  0.00000000  1
  Li  Li3  1  0.75155385  0.24844615  0.00000000  1
  Li  Li4  1  0.74844615  0.25155385  0.50000000  1
  Li  Li5  1  0.24844615  0.75155385  0.00000000  1
  Li  Li6  1  0.25155385  0.74844615  0.50000000  1
  Li  Li7  1  0.41648077  0.58351923  0.50000000  1
  Zr  Zr0  1  0.08821988  0.91178012  0.50000000  1
  Zr  Zr1  1  0.41178012  0.58821988  0.00000000  1
  Zr  Zr2  1  0.91178012  0.08821988  0.50000000  1
  Zr  Zr3  1  0.58821988  0.41178012  0.00000000  1
  As  As0  1  0.07309296  0.39959287  0.40561182  1
  As  As1  1  0.89959287  0.57309296  0.09438818  1
  As  As2  1  0.42690704  0.10040713  0.90561182  1
  As  As3  1  0.60040713  0.92690704  0.59438818  1
  As  As4  1  0.92690704  0.60040713  0.59438818  1
  As  As5  1  0.10040713  0.42690704  0.90561182  1
  As  As6  1  0.57309296  0.89959287  0.09438818  1
  As  As7  1  0.39959287  0.07309296  0.40561182  1
  As  As8  1  0.22955160  0.22955160  0.59005707  1
  As  As9  1  0.72955160  0.72955160  0.90994293  1
  As  As10  1  0.27044840  0.27044840  0.09005707  1
  As  As11  1  0.77044840  0.77044840  0.40994293  1
loop_
_geom_bond_atom_site_label_1
_geom_bond_atom_site_label_2
_geom_bond_distance
_geom_bond_site_symmetry_2
As0 Zr2 2.569662 1_455
As0 Li4 2.729483 1_455
As0 Li7 2.733992 1_555
As0 Li6 2.797647 1_555
As0 K8 3.416147 1_555
As0 K5 3.461026 1_455
As0 K6 3.473031 1_555
As0 K1 3.492552 1_555
As0 K8 3.575717 1_445
As1 Zr3 2.569661 1_555
As1 Li3 2.729483 1_555
As1 Li0 2.733992 1_655
As1 Li5 2.797647 1_655
As1 K7 3.416147 1_665
As1 K6 3.461026 1_655
As1 K5 3.473031 1_555
As1 K11 3.492552 1_555
As1 K7 3.575717 1_555
As2 Zr3 2.569662 1_556
As2 Li3 2.729483 1_556
As2 Li0 2.733992 1_546
As2 Li5 2.797647 1_546
As2 K10 3.416147 1_445
As2 K0 3.461026 1_545
As2 K4 3.473031 1_555
As2 K2 3.492552 1_555
As2 K10 3.575717 1_555
As3 Zr2 2.569661 1_565
As3 Li4 2.729483 1_565
As3 Li7 2.733992 1_555
As3 Li6 2.797647 1_555
As3 K9 3.416147 1_555
As3 K4 3.461026 1_565
As3 K0 3.473031 1_555
As3 K3 3.492552 1_555
As3 K9 3.575717 1_665
As4 Zr0 2.569662 1_655
As4 Li6 2.729483 1_655
As4 Li1 2.733992 1_555
As4 Li4 2.797647 1_555
As4 K4 3.416147 1_555
As4 K9 3.461026 1_655
As4 K10 3.473031 1_555
As4 K3 3.492552 1_555
As4 K4 3.575717 1_665
As5 Zr1 2.569661 1_556
As5 Li5 2.729483 1_556
As5 Li2 2.733992 1_456
As5 Li3 2.797647 1_456
As5 K0 3.416147 1_445
As5 K10 3.461026 1_455
As5 K9 3.473031 1_555
As5 K2 3.492552 1_555
As5 K0 3.575717 1_555
As6 Zr1 2.569662 1_555
As6 Li5 2.729483 1_555
As6 Li2 2.733992 1_565
As6 Li3 2.797647 1_565
As6 K6 3.416147 1_665
As6 K7 3.461026 1_565
As6 K8 3.473031 1_555
As6 K11 3.492552 1_555
As6 K6 3.575717 1_555
As7 Zr0 2.569661 1_545
As7 Li6 2.729483 1_545
As7 Li1 2.733992 1_555
As7 Li4 2.797647 1_555
As7 K5 3.416147 1_555
As7 K8 3.461026 1_545
As7 K7 3.473031 1_555
As7 K1 3.492552 1_555
As7 K5 3.575717 1_445
As8 Zr2 2.669965 1_455
As8 Zr0 2.669965 1_545
As8 Li1 2.773595 1_555
As8 Li7 2.773595 1_555
As8 K2 3.439223 1_555
As8 K3 3.440960 1_555
As8 K4 3.649072 1_555
As8 K9 3.649072 1_555
As8 K3 3.657619 1_445
As9 Zr1 2.669965 1_556
As9 Zr3 2.669965 1_556
As9 Li0 2.773595 1_656
As9 Li2 2.773595 1_566
As9 K3 3.439223 1_555
As9 K2 3.440960 1_665
As9 K10 3.649072 1_555
As9 K0 3.649072 1_555
As9 K2 3.657619 1_555
As10 Zr3 2.669965 1_555
As10 Zr1 2.669965 1_555
As10 Li2 2.773595 1_455
As10 Li0 2.773595 1_545
As10 K1 3.439223 1_555
As10 K11 3.440960 1_445
As10 K6 3.649072 1_555
As10 K7 3.649072 1_555
As10 K11 3.657619 1_555
As11 Zr0 2.669965 1_655
As11 Zr2 2.669965 1_565
As11 Li7 2.773595 1_555
As11 Li1 2.773595 1_555
As11 K11 3.439223 1_555
As11 K1 3.440960 1_555
As11 K8 3.649072 1_555
As11 K5 3.649072 1_555
As11 K1 3.657619 1_665
