# generated using pymatgen
data_Rb4Ba2TiP4
_symmetry_space_group_name_H-M   'P 1'
_cell_length_a   10.46631623
_cell_length_b   10.46631698
_cell_length_c   7.96812096
_cell_angle_alpha   88.37072680
_cell_angle_beta   88.37072965
_cell_angle_gamma   119.47822186
_symmetry_Int_Tables_number   1
_chemical_formula_structural   Rb4Ba2TiP4
_chemical_formula_sum   'Rb8 Ba4 Ti2 P8'
_cell_volume   758.64997575
_cell_formula_units_Z   2
loop_
 _symmetry_equiv_pos_site_id
 _symmetry_equiv_pos_as_xyz
  1  'x, y, z'
loop_
 _atom_site_type_symbol
 _atom_site_label
 _atom_site_symmetry_multiplicity
 _atom_site_fract_x
 _atom_site_fract_y
 _atom_site_fract_z
 _atom_site_occupancy
  Rb  Rb0  1  0.05431899  0.52539112  0.61268248  1
  Rb  Rb1  1  0.52539112  0.05431899  0.11268248  1
  Rb  Rb2  1  0.27847988  0.13420190  0.82922119  1
  Rb  Rb3  1  0.87412477  0.73398535  0.76491953  1
  Rb  Rb4  1  0.85883656  0.14578444  0.80206844  1
  Rb  Rb5  1  0.73398535  0.87412477  0.26491953  1
  Rb  Rb6  1  0.13420190  0.27847988  0.32922119  1
  Rb  Rb7  1  0.14578444  0.85883656  0.30206844  1
  Ba  Ba0  1  0.46669683  0.93529575  0.60467688  1
  Ba  Ba1  1  0.46739491  0.52440861  0.61817836  1
  Ba  Ba2  1  0.93529575  0.46669683  0.10467688  1
  Ba  Ba3  1  0.52440861  0.46739491  0.11817836  1
  Ti  Ti0  1  0.66566974  0.33567039  0.50793269  1
  Ti  Ti1  1  0.33567039  0.66566974  0.00793269  1
  P  P0  1  0.66828249  0.35261367  0.81356876  1
  P  P1  1  0.35261367  0.66828249  0.31356876  1
  P  P2  1  0.58312828  0.78384268  0.88023025  1
  P  P3  1  0.20985700  0.41121770  0.92678305  1
  P  P4  1  0.20515222  0.78564770  0.90848637  1
  P  P5  1  0.41121770  0.20985700  0.42678305  1
  P  P6  1  0.78384268  0.58312828  0.38023025  1
  P  P7  1  0.78564770  0.20515222  0.40848637  1
loop_
_geom_bond_atom_site_label_1
_geom_bond_atom_site_label_2
_geom_bond_distance
_geom_bond_site_symmetry_2
Ba0 P2 3.267100 1_555
Ba0 P4 3.315823 1_555
Ba0 P7 3.426027 1_565
Ba0 P1 3.443577 1_555
Ba0 P5 3.472990 1_565
Ba1 P2 3.229456 1_555
Ba1 P3 3.321202 1_555
Ba1 P1 3.367528 1_555
Ba1 P5 3.455645 1_555
Ba1 P6 3.537722 1_555
Ba1 P0 3.718246 1_555
Ba2 P6 3.267100 1_555
Ba2 P7 3.315823 1_555
Ba2 P4 3.426027 1_654
Ba2 P0 3.443577 1_554
Ba2 P3 3.472989 1_654
Ba3 P6 3.229456 1_555
Ba3 P5 3.321202 1_555
Ba3 P0 3.367528 1_554
Ba3 P3 3.455644 1_554
Ba3 P2 3.537722 1_554
Ba3 P1 3.718247 1_555
P0 Ti0 2.446768 1_555
P0 Rb3 3.482147 1_555
P0 Rb1 3.527487 1_556
P0 Rb2 3.558372 1_555
P0 Rb4 3.594731 1_555
P0 Rb0 3.799179 1_655
P1 Ti1 2.446768 1_555
P1 Rb5 3.482147 1_555
P1 Rb0 3.527486 1_555
P1 Rb6 3.558372 1_555
P1 Rb7 3.594731 1_555
P1 Rb1 3.799179 1_565
P2 Ti1 2.428783 1_556
P2 Rb5 3.428291 1_556
P2 Rb3 3.438729 1_555
P2 Rb4 3.474249 1_565
P2 Rb1 3.705124 1_566
P3 Ti1 2.437109 1_556
P3 Rb6 3.370380 1_556
P3 Rb2 3.416460 1_555
P3 Rb0 3.509727 1_555
P3 Rb4 3.538703 1_455
P4 Ti1 2.400843 1_556
P4 Rb7 3.361890 1_556
P4 Rb2 3.373766 1_565
P4 Rb0 3.436850 1_555
P4 Rb3 3.467207 1_455
P4 Rb1 3.617042 1_566
P5 Ti0 2.437109 1_555
P5 Rb2 3.370380 1_555
P5 Rb6 3.416459 1_555
P5 Rb1 3.509727 1_555
P5 Rb7 3.538703 1_545
P6 Ti0 2.428783 1_555
P6 Rb3 3.428291 1_555
P6 Rb5 3.438729 1_555
P6 Rb7 3.474249 1_655
P6 Rb0 3.705124 1_655
P7 Ti0 2.400843 1_555
P7 Rb4 3.361889 1_555
P7 Rb6 3.373766 1_655
P7 Rb1 3.436849 1_555
P7 Rb5 3.467208 1_545
P7 Rb0 3.617042 1_655
