# generated using pymatgen
data_Rb2Ni(SeO3)2
_symmetry_space_group_name_H-M   'P 1'
_cell_length_a   5.53195941
_cell_length_b   7.20669723
_cell_length_c   9.09372767
_cell_angle_alpha   70.93660516
_cell_angle_beta   90.01126506
_cell_angle_gamma   90.01623533
_symmetry_Int_Tables_number   1
_chemical_formula_structural   Rb2Ni(SeO3)2
_chemical_formula_sum   'Rb4 Ni2 Se4 O12'
_cell_volume   342.65848907
_cell_formula_units_Z   2
loop_
 _symmetry_equiv_pos_site_id
 _symmetry_equiv_pos_as_xyz
  1  'x, y, z'
loop_
 _atom_site_type_symbol
 _atom_site_label
 _atom_site_symmetry_multiplicity
 _atom_site_fract_x
 _atom_site_fract_y
 _atom_site_fract_z
 _atom_site_occupancy
  Rb  Rb0  1  0.00001938  0.61085490  0.80541288  1
  Rb  Rb1  1  0.50002321  0.11084532  0.30540719  1
  Rb  Rb2  1  0.99998062  0.38914610  0.19458712  1
  Rb  Rb3  1  0.49997679  0.88915568  0.69459281  1
  Ni  Ni0  1  0.50000000  0.50000000  0.50000000  1
  Ni  Ni1  1  0.00000000  0.00000000  0.00000000  1
  Se  Se0  1  0.99991469  0.27090902  0.63566478  1
  Se  Se1  1  0.49985176  0.77090726  0.13568626  1
  Se  Se2  1  0.00008531  0.72909098  0.36433522  1
  Se  Se3  1  0.50014824  0.22909274  0.86431374  1
  O  O0  1  0.24256954  0.72382720  0.48277943  1
  O  O1  1  0.74254525  0.22381966  0.98275949  1
  O  O2  1  0.75743146  0.27617380  0.51722057  1
  O  O3  1  0.25745475  0.77618134  0.01724051  1
  O  O4  1  0.24215493  0.27625364  0.51721597  1
  O  O5  1  0.74217935  0.77624337  0.01721477  1
  O  O6  1  0.75784507  0.72374636  0.48278403  1
  O  O7  1  0.25782065  0.22375663  0.98278423  1
  O  O8  1  0.00015821  0.96627737  0.24052982  1
  O  O9  1  0.50015184  0.46632288  0.74051056  1
  O  O10  1  0.99984179  0.03372363  0.75947118  1
  O  O11  1  0.49984816  0.53367712  0.25949044  1
loop_
_geom_bond_atom_site_label_1
_geom_bond_atom_site_label_2
_geom_bond_distance
_geom_bond_site_symmetry_2
Rb0 Se0 3.294712 1_455
Rb1 Se1 3.294485 1_545
Rb2 Se2 3.294705 1_655
Rb3 Se3 3.294479 1_565
Ni0 O2 2.119131 1_555
Ni0 O0 2.119132 1_555
Ni0 O6 2.119680 1_555
Ni0 O4 2.119680 1_555
Ni0 O11 2.120304 1_555
Ni0 O9 2.120313 1_555
Ni1 O3 2.119146 1_545
Ni1 O1 2.119151 1_454
Ni1 O7 2.119644 1_554
Ni1 O5 2.119645 1_445
Ni1 O10 2.120404 1_454
Ni1 O8 2.120414 1_545
O0 Se2 1.712817 1_555
O0 Rb3 2.941859 1_555
O0 Rb1 3.077210 1_565
O0 Rb0 3.084120 1_555
O1 Se3 1.712435 1_555
O1 Rb2 2.942028 1_556
O1 Rb0 3.077300 1_655
O1 Rb1 3.084164 1_556
O2 Se0 1.712811 1_555
O2 Rb1 2.941862 1_555
O2 Rb3 3.077213 1_545
O2 Rb2 3.084118 1_555
O3 Se1 1.712434 1_555
O3 Rb0 2.942028 1_554
O3 Rb2 3.077300 1_455
O3 Rb3 3.084164 1_554
O4 Se0 1.711994 1_455
O4 Rb1 2.944111 1_555
O4 Rb3 3.079024 1_545
O4 Rb2 3.082906 1_455
O5 Se1 1.712512 1_555
O5 Rb0 2.943898 1_654
O5 Rb2 3.078958 1_555
O5 Rb3 3.082913 1_554
O6 Se2 1.711994 1_655
O6 Rb3 2.944116 1_555
O6 Rb1 3.079029 1_565
O6 Rb0 3.082906 1_655
O7 Se3 1.712506 1_555
O7 Rb2 2.943910 1_456
O7 Rb0 3.078962 1_555
O7 Rb1 3.082921 1_556
O8 Se2 1.712380 1_555
O8 Rb2 2.937691 1_465
O8 Rb1 3.078847 1_565
O8 Rb1 3.080927 1_465
O9 Se3 1.712621 1_555
O9 Rb3 2.937479 1_555
O9 Rb0 3.078825 1_655
O9 Rb0 3.080879 1_555
O10 Se0 1.712378 1_555
O10 Rb0 2.937693 1_645
O10 Rb3 3.078850 1_545
O10 Rb3 3.080930 1_645
O11 Se1 1.712624 1_555
O11 Rb1 2.937474 1_555
O11 Rb2 3.078824 1_455
O11 Rb2 3.080879 1_555
