# generated using pymatgen
data_Cd2GeO4
_symmetry_space_group_name_H-M   'P 1'
_cell_length_a   5.23014732
_cell_length_b   6.60498817
_cell_length_c   11.23333233
_cell_angle_alpha   90.00000000
_cell_angle_beta   90.00000000
_cell_angle_gamma   90.00000000
_symmetry_Int_Tables_number   1
_chemical_formula_structural   Cd2GeO4
_chemical_formula_sum   'Cd8 Ge4 O16'
_cell_volume   388.05615255
_cell_formula_units_Z   4
loop_
 _symmetry_equiv_pos_site_id
 _symmetry_equiv_pos_as_xyz
  1  'x, y, z'
loop_
 _atom_site_type_symbol
 _atom_site_label
 _atom_site_symmetry_multiplicity
 _atom_site_fract_x
 _atom_site_fract_y
 _atom_site_fract_z
 _atom_site_occupancy
  Cd  Cd0  1  0.48946966  0.75000000  0.78015533  1
  Cd  Cd1  1  0.98946966  0.25000000  0.71984467  1
  Cd  Cd2  1  0.51053034  0.25000000  0.21984467  1
  Cd  Cd3  1  0.01053034  0.75000000  0.28015533  1
  Cd  Cd4  1  0.50000000  0.50000000  0.50000000  1
  Cd  Cd5  1  -0.00000000  0.50000000  0.00000000  1
  Cd  Cd6  1  0.50000000  -0.00000000  0.50000000  1
  Cd  Cd7  1  -0.00000000  -0.00000000  0.00000000  1
  Ge  Ge0  1  0.93345107  0.75000000  0.59814527  1
  Ge  Ge1  1  0.43345107  0.25000000  0.90185473  1
  Ge  Ge2  1  0.06654893  0.25000000  0.40185473  1
  Ge  Ge3  1  0.56654893  0.75000000  0.09814527  1
  O  O0  1  0.22015130  0.46119154  0.33522393  1
  O  O1  1  0.72015130  0.53880846  0.16477607  1
  O  O2  1  0.77984870  0.96119154  0.66477607  1
  O  O3  1  0.27984870  0.03880846  0.83522393  1
  O  O4  1  0.77984870  0.53880846  0.66477607  1
  O  O5  1  0.27984870  0.46119154  0.83522393  1
  O  O6  1  0.22015130  0.03880846  0.33522393  1
  O  O7  1  0.72015130  0.96119154  0.16477607  1
  O  O8  1  0.79057427  0.75000000  0.45299085  1
  O  O9  1  0.29057427  0.25000000  0.04700915  1
  O  O10  1  0.20942573  0.25000000  0.54700915  1
  O  O11  1  0.70942573  0.75000000  0.95299085  1
  O  O12  1  0.23274179  0.75000000  0.09685435  1
  O  O13  1  0.73274179  0.25000000  0.40314565  1
  O  O14  1  0.76725821  0.25000000  0.90314565  1
  O  O15  1  0.26725821  0.75000000  0.59685435  1
loop_
_geom_bond_atom_site_label_1
_geom_bond_atom_site_label_2
_geom_bond_distance
_geom_bond_site_symmetry_2
Cd0 O11 2.256750 1_555
Cd0 O5 2.285497 1_555
Cd0 O3 2.285497 1_565
Cd0 O15 2.364428 1_555
Cd0 O4 2.435607 1_555
Cd0 O2 2.435607 1_555
Cd1 O10 2.256750 1_655
Cd1 O2 2.285497 1_545
Cd1 O4 2.285497 1_555
Cd1 O14 2.364428 1_555
Cd1 O3 2.435607 1_655
Cd1 O5 2.435607 1_655
Cd2 O9 2.256750 1_555
Cd2 O7 2.285497 1_545
Cd2 O1 2.285497 1_555
Cd2 O13 2.364428 1_555
Cd2 O0 2.435607 1_555
Cd2 O6 2.435607 1_555
Cd3 O8 2.256750 1_455
Cd3 O0 2.285497 1_555
Cd3 O6 2.285497 1_565
Cd3 O12 2.364428 1_555
Cd3 O1 2.435607 1_455
Cd3 O7 2.435607 1_455
Cd4 O8 2.305451 1_555
Cd4 O10 2.305451 1_555
Cd4 O15 2.322092 1_555
Cd4 O13 2.322092 1_555
Cd4 O0 2.373630 1_555
Cd4 O4 2.373630 1_555
Cd5 O11 2.305451 1_454
Cd5 O9 2.305451 1_555
Cd5 O14 2.322092 1_454
Cd5 O12 2.322092 1_555
Cd5 O5 2.373630 1_554
Cd5 O1 2.373630 1_455
Cd6 O8 2.305451 1_545
Cd6 O10 2.305451 1_555
Cd6 O13 2.322092 1_555
Cd6 O15 2.322092 1_545
Cd6 O6 2.373630 1_555
Cd6 O2 2.373630 1_545
Cd7 O11 2.305451 1_444
Cd7 O9 2.305451 1_555
Cd7 O14 2.322092 1_454
Cd7 O12 2.322092 1_545
Cd7 O3 2.373630 1_554
Cd7 O7 2.373630 1_445
Ge0 O15 1.745921 1_655
Ge0 O4 1.775224 1_555
Ge0 O2 1.775224 1_555
Ge0 O8 1.793644 1_555
Ge1 O14 1.745921 1_555
Ge1 O5 1.775224 1_555
Ge1 O3 1.775224 1_555
Ge1 O9 1.793644 1_556
Ge2 O13 1.745921 1_455
Ge2 O0 1.775224 1_555
Ge2 O6 1.775224 1_555
Ge2 O10 1.793644 1_555
Ge3 O12 1.745921 1_555
Ge3 O1 1.775224 1_555
Ge3 O7 1.775224 1_555
Ge3 O11 1.793644 1_554
