# generated using pymatgen
data_PdPt3(SeO3)8
_symmetry_space_group_name_H-M   'P 1'
_cell_length_a   7.94546378
_cell_length_b   7.94546347
_cell_length_c   7.94546309
_cell_angle_alpha   89.95629398
_cell_angle_beta   90.04370482
_cell_angle_gamma   90.04369977
_symmetry_Int_Tables_number   1
_chemical_formula_structural   PdPt3(SeO3)8
_chemical_formula_sum   'Pd1 Pt3 Se8 O24'
_cell_volume   501.59976357
_cell_formula_units_Z   1
loop_
 _symmetry_equiv_pos_site_id
 _symmetry_equiv_pos_as_xyz
  1  'x, y, z'
loop_
 _atom_site_type_symbol
 _atom_site_label
 _atom_site_symmetry_multiplicity
 _atom_site_fract_x
 _atom_site_fract_y
 _atom_site_fract_z
 _atom_site_occupancy
  Pd  Pd0  1  0.50000000  0.50000000  0.00000000  1
  Pt  Pt0  1  0.50000000  0.00000000  0.50000000  1
  Pt  Pt1  1  0.00000000  0.00000000  0.00000000  1
  Pt  Pt2  1  0.00000000  0.50000000  0.50000000  1
  Se  Se0  1  0.83568878  0.16431122  0.66431122  1
  Se  Se1  1  0.16431122  0.83568878  0.33568878  1
  Se  Se2  1  0.66499780  0.66356736  0.66691715  1
  Se  Se3  1  0.16691715  0.66499780  0.83643264  1
  Se  Se4  1  0.33643264  0.16691715  0.83500220  1
  Se  Se5  1  0.83308285  0.33500220  0.16356736  1
  Se  Se6  1  0.66356736  0.83308285  0.16499780  1
  Se  Se7  1  0.33500220  0.33643264  0.33308285  1
  O  O0  1  0.24958516  0.48068610  0.47247593  1
  O  O1  1  0.97247593  0.24958516  0.01931390  1
  O  O2  1  0.02008863  0.74975922  0.47476844  1
  O  O3  1  0.47545324  0.25191509  0.97939964  1
  O  O4  1  0.25024078  0.97476844  0.47991137  1
  O  O5  1  0.52060036  0.52454676  0.75191509  1
  O  O6  1  0.97476844  0.02008863  0.75024078  1
  O  O7  1  0.52454676  0.74808491  0.02060036  1
  O  O8  1  0.51931390  0.97247593  0.25041484  1
  O  O9  1  0.48068610  0.02752407  0.74958516  1
  O  O10  1  0.75050644  0.97731117  0.02642895  1
  O  O11  1  0.25191509  0.52060036  0.97545324  1
  O  O12  1  0.02268883  0.52642895  0.74949356  1
  O  O13  1  0.02523156  0.97991137  0.24975922  1
  O  O14  1  0.24949356  0.02268883  0.97357105  1
  O  O15  1  0.47939964  0.47545324  0.24808491  1
  O  O16  1  0.75041484  0.51931390  0.52752407  1
  O  O17  1  0.97731117  0.47357105  0.25050644  1
  O  O18  1  0.02752407  0.75041484  0.98068610  1
  O  O19  1  0.47357105  0.24949356  0.47731117  1
  O  O20  1  0.52642895  0.75050644  0.52268883  1
  O  O21  1  0.97991137  0.25024078  0.52523156  1
  O  O22  1  0.74975922  0.02523156  0.52008863  1
  O  O23  1  0.74808491  0.47939964  0.02454676  1
loop_
_geom_bond_atom_site_label_1
_geom_bond_atom_site_label_2
_geom_bond_distance
_geom_bond_site_symmetry_2
O0 Se7 1.733554 1_555
O0 Pt2 2.001279 1_555
O1 Se5 1.733554 1_555
O1 Pt1 2.001279 1_655
O2 Se1 1.732050 1_555
O2 Pt2 2.000670 1_555
O3 Se4 1.729340 1_555
O3 Pd0 1.987490 1_556
O4 Se1 1.732050 1_555
O4 Pt0 2.000670 1_565
O5 Se2 1.729340 1_555
O5 Pd0 1.987490 1_556
O6 Se0 1.732050 1_555
O6 Pt1 2.000669 1_656
O7 Se6 1.729340 1_555
O7 Pd0 1.987490 1_555
O8 Se6 1.733554 1_555
O8 Pt0 2.001279 1_565
O9 Se4 1.733554 1_555
O9 Pt0 2.001279 1_555
O10 Se6 1.732226 1_555
O10 Pt1 2.001576 1_665
O11 Se3 1.729340 1_555
O11 Pd0 1.987490 1_556
O12 Se3 1.732226 1_555
O12 Pt2 2.001576 1_555
O13 Se1 1.732050 1_555
O13 Pt1 2.000669 1_565
O14 Se4 1.732226 1_555
O14 Pt1 2.001576 1_556
O15 Se7 1.729340 1_555
O15 Pd0 1.987490 1_555
O16 Se2 1.733554 1_555
O16 Pt2 2.001279 1_655
O17 Se5 1.732226 1_555
O17 Pt2 2.001576 1_655
O18 Se3 1.733554 1_555
O18 Pt1 2.001279 1_566
O19 Se7 1.732226 1_555
O19 Pt0 2.001576 1_555
O20 Se2 1.732226 1_555
O20 Pt0 2.001576 1_565
O21 Se0 1.732050 1_555
O21 Pt2 2.000670 1_655
O22 Se0 1.732050 1_555
O22 Pt0 2.000670 1_555
O23 Se5 1.729340 1_555
O23 Pd0 1.987490 1_555
