# generated using pymatgen
data_Ba2YBrO3
_symmetry_space_group_name_H-M   'P 1'
_cell_length_a   4.42396297
_cell_length_b   4.42396297
_cell_length_c   15.39735962
_cell_angle_alpha   90.00000000
_cell_angle_beta   90.00000000
_cell_angle_gamma   90.00000000
_symmetry_Int_Tables_number   1
_chemical_formula_structural   Ba2YBrO3
_chemical_formula_sum   'Ba4 Y2 Br2 O6'
_cell_volume   301.34862878
_cell_formula_units_Z   2
loop_
 _symmetry_equiv_pos_site_id
 _symmetry_equiv_pos_as_xyz
  1  'x, y, z'
loop_
 _atom_site_type_symbol
 _atom_site_label
 _atom_site_symmetry_multiplicity
 _atom_site_fract_x
 _atom_site_fract_y
 _atom_site_fract_z
 _atom_site_occupancy
  Ba  Ba0  1  0.00000000  0.50000000  0.65770939  1
  Ba  Ba1  1  0.50000000  0.00000000  0.34229061  1
  Ba  Ba2  1  0.50000000  0.00000000  0.09263292  1
  Ba  Ba3  1  0.00000000  0.50000000  0.90736708  1
  Y  Y0  1  0.00000000  0.50000000  0.21155675  1
  Y  Y1  1  0.50000000  0.00000000  0.78844325  1
  Br  Br0  1  0.50000000  0.00000000  0.57660501  1
  Br  Br1  1  0.00000000  0.50000000  0.42339499  1
  O  O0  1  0.00000000  0.00000000  0.76671180  1
  O  O1  1  0.50000000  0.50000000  0.76671180  1
  O  O2  1  0.00000000  0.00000000  0.23328820  1
  O  O3  1  0.50000000  0.00000000  0.92743948  1
  O  O4  1  0.50000000  0.50000000  0.23328820  1
  O  O5  1  0.00000000  0.50000000  0.07256052  1
loop_
_geom_bond_atom_site_label_1
_geom_bond_atom_site_label_2
_geom_bond_distance
_geom_bond_site_symmetry_2
Ba0 O1 2.776638 1_455
Ba0 O1 2.776638 1_555
Ba0 O0 2.776638 1_565
Ba0 O0 2.776638 1_555
Ba0 Br0 3.368265 1_555
Ba0 Br0 3.368265 1_565
Ba0 Br0 3.368265 1_465
Ba0 Br0 3.368265 1_455
Ba0 Br1 3.607823 1_555
Ba1 O2 2.776638 1_555
Ba1 O4 2.776638 1_545
Ba1 O2 2.776638 1_655
Ba1 O4 2.776638 1_555
Ba1 Br1 3.368265 1_645
Ba1 Br1 3.368265 1_545
Ba1 Br1 3.368265 1_555
Ba1 Br1 3.368265 1_655
Ba1 Br0 3.607823 1_555
Ba2 O3 2.543543 1_554
Ba2 O4 3.095675 1_555
Ba2 O2 3.095675 1_655
Ba2 O2 3.095675 1_555
Ba2 O4 3.095675 1_545
Ba2 O5 3.143445 1_555
Ba2 O5 3.143445 1_655
Ba2 O5 3.143445 1_545
Ba2 O5 3.143445 1_645
Ba3 O5 2.543543 1_556
Ba3 O1 3.095675 1_455
Ba3 O1 3.095675 1_555
Ba3 O0 3.095675 1_565
Ba3 O0 3.095675 1_555
Ba3 O3 3.143445 1_455
Ba3 O3 3.143445 1_555
Ba3 O3 3.143445 1_565
Ba3 O3 3.143445 1_465
Br0 Y1 3.261750 1_555
Br1 Y0 3.261750 1_555
O0 Y1 2.237146 1_555
O0 Y1 2.237146 1_455
O1 Y1 2.237146 1_565
O1 Y1 2.237146 1_555
O2 Y0 2.237146 1_545
O2 Y0 2.237146 1_555
O3 Y1 2.140175 1_555
O4 Y0 2.237146 1_655
O4 Y0 2.237146 1_555
O5 Y0 2.140175 1_555
