# generated using pymatgen
data_CsZrCuTe3
_symmetry_space_group_name_H-M   'P 1'
_cell_length_a   8.88029146
_cell_length_b   8.88029247
_cell_length_c   10.98237359
_cell_angle_alpha   90.00000000
_cell_angle_beta   90.00000000
_cell_angle_gamma   152.76023962
_symmetry_Int_Tables_number   1
_chemical_formula_structural   CsZrCuTe3
_chemical_formula_sum   'Cs2 Zr2 Cu2 Te6'
_cell_volume   396.41116095
_cell_formula_units_Z   2
loop_
 _symmetry_equiv_pos_site_id
 _symmetry_equiv_pos_as_xyz
  1  'x, y, z'
loop_
 _atom_site_type_symbol
 _atom_site_label
 _atom_site_symmetry_multiplicity
 _atom_site_fract_x
 _atom_site_fract_y
 _atom_site_fract_z
 _atom_site_occupancy
  Cs  Cs0  1  0.74691294  0.25308706  0.25000000  1
  Cs  Cs1  1  0.25308706  0.74691294  0.75000000  1
  Zr  Zr0  1  0.00000000  0.00000000  0.50000000  1
  Zr  Zr1  1  0.00000000  0.00000000  0.00000000  1
  Cu  Cu0  1  0.52993499  0.47006501  0.75000000  1
  Cu  Cu1  1  0.47006501  0.52993499  0.25000000  1
  Te  Te0  1  0.61414259  0.38585741  0.55460689  1
  Te  Te1  1  0.38585741  0.61414259  0.44539311  1
  Te  Te2  1  0.06099315  0.93900685  0.25000000  1
  Te  Te3  1  0.93900685  0.06099315  0.75000000  1
  Te  Te4  1  0.61414259  0.38585741  0.94539311  1
  Te  Te5  1  0.38585741  0.61414259  0.05460689  1
loop_
_geom_bond_atom_site_label_1
_geom_bond_atom_site_label_2
_geom_bond_distance
_geom_bond_site_symmetry_2
Cs0 Te2 3.830364 1_545
Cs0 Te2 3.830365 1_655
Cs0 Te1 3.837922 1_655
Cs0 Te5 3.837922 1_655
Cs0 Te1 3.837922 1_545
Cs0 Te5 3.837922 1_545
Cs0 Te0 4.055031 1_555
Cs0 Te4 4.055031 1_554
Cs1 Te3 3.830364 1_565
Cs1 Te3 3.830365 1_455
Cs1 Te4 3.837922 1_455
Cs1 Te0 3.837922 1_455
Cs1 Te4 3.837922 1_565
Cs1 Te0 3.837922 1_565
Cs1 Te5 4.055031 1_556
Cs1 Te1 4.055031 1_555
Cu0 Te4 2.591818 1_555
Cu0 Te0 2.591818 1_555
Cu0 Te3 2.614614 1_455
Cu0 Te3 2.614615 1_565
Cu1 Te1 2.591818 1_555
Cu1 Te5 2.591818 1_555
Cu1 Te2 2.614614 1_655
Cu1 Te2 2.614615 1_545
Te0 Zr0 2.935008 1_555
Te0 Zr0 2.935009 1_665
Te1 Zr0 2.935008 1_665
Te1 Zr0 2.935009 1_555
Te2 Zr0 2.940526 1_565
Te2 Zr1 2.940526 1_565
Te3 Zr0 2.940526 1_655
Te3 Zr1 2.940526 1_656
Te4 Zr1 2.935008 1_556
Te4 Zr1 2.935009 1_666
Te5 Zr1 2.935008 1_665
Te5 Zr1 2.935009 1_555
