# generated using pymatgen
data_Lu5Hf(Be2Ir5)2
_symmetry_space_group_name_H-M   'P 1'
_cell_length_a   9.77917470
_cell_length_b   9.77917470
_cell_length_c   3.18460401
_cell_angle_alpha   90.00000000
_cell_angle_beta   90.00000000
_cell_angle_gamma   90.00000000
_symmetry_Int_Tables_number   1
_chemical_formula_structural   Lu5Hf(Be2Ir5)2
_chemical_formula_sum   'Lu5 Hf1 Be4 Ir10'
_cell_volume   304.55087175
_cell_formula_units_Z   1
loop_
 _symmetry_equiv_pos_site_id
 _symmetry_equiv_pos_as_xyz
  1  'x, y, z'
loop_
 _atom_site_type_symbol
 _atom_site_label
 _atom_site_symmetry_multiplicity
 _atom_site_fract_x
 _atom_site_fract_y
 _atom_site_fract_z
 _atom_site_occupancy
  Lu  Lu0  1  0.17745273  0.67528235  0.00000000  1
  Lu  Lu1  1  0.32471765  0.17745273  0.00000000  1
  Lu  Lu2  1  0.82254727  0.32471765  0.00000000  1
  Lu  Lu3  1  0.50000000  0.50000000  0.00000000  1
  Lu  Lu4  1  0.67528235  0.82254727  0.00000000  1
  Hf  Hf0  1  0.00000000  0.00000000  0.00000000  1
  Be  Be0  1  0.37881027  0.88043605  0.00000000  1
  Be  Be1  1  0.11956395  0.37881027  0.00000000  1
  Be  Be2  1  0.88043605  0.62118973  0.00000000  1
  Be  Be3  1  0.62118973  0.11956395  0.00000000  1
  Ir  Ir0  1  0.21560510  0.93286831  0.50000000  1
  Ir  Ir1  1  0.93286831  0.78439490  0.50000000  1
  Ir  Ir2  1  0.42794971  0.72123909  0.50000000  1
  Ir  Ir3  1  0.57205029  0.27876091  0.50000000  1
  Ir  Ir4  1  0.72123909  0.57205029  0.50000000  1
  Ir  Ir5  1  0.27876091  0.42794971  0.50000000  1
  Ir  Ir6  1  0.06713169  0.21560510  0.50000000  1
  Ir  Ir7  1  0.00000000  0.50000000  0.50000000  1
  Ir  Ir8  1  0.50000000  0.00000000  0.50000000  1
  Ir  Ir9  1  0.78439490  0.06713169  0.50000000  1
loop_
_geom_bond_atom_site_label_1
_geom_bond_atom_site_label_2
_geom_bond_distance
_geom_bond_site_symmetry_2
Hf0 Ir6 2.722485 1_555
Hf0 Ir6 2.722485 1_554
Hf0 Ir0 2.722485 1_544
Hf0 Ir0 2.722485 1_545
Hf0 Ir9 2.722485 1_454
Hf0 Ir9 2.722485 1_455
Hf0 Ir1 2.722485 1_445
Hf0 Ir1 2.722485 1_444
Be0 Ir2 2.278162 1_555
Be0 Ir2 2.278162 1_554
Be0 Ir8 2.303711 1_564
Be0 Ir8 2.303711 1_565
Be0 Ir0 2.312052 1_554
Be0 Ir0 2.312052 1_555
Be0 Lu0 2.811116 1_555
Be0 Lu1 2.952354 1_565
Be0 Lu4 2.954004 1_555
Be1 Ir5 2.278162 1_554
Be1 Ir5 2.278162 1_555
Be1 Ir7 2.303711 1_555
Be1 Ir7 2.303711 1_554
Be1 Ir6 2.312052 1_555
Be1 Ir6 2.312052 1_554
Be1 Lu1 2.811116 1_555
Be1 Lu2 2.952354 1_455
Be1 Lu0 2.954004 1_555
Be2 Ir4 2.278162 1_554
Be2 Ir4 2.278162 1_555
Be2 Ir7 2.303711 1_655
Be2 Ir7 2.303711 1_654
Be2 Ir1 2.312052 1_555
Be2 Ir1 2.312052 1_554
Be2 Lu4 2.811116 1_555
Be2 Lu0 2.952354 1_655
Be2 Lu2 2.954004 1_555
Be3 Ir3 2.278162 1_555
Be3 Ir3 2.278162 1_554
Be3 Ir8 2.303711 1_555
Be3 Ir8 2.303711 1_554
Be3 Ir9 2.312052 1_554
Be3 Ir9 2.312052 1_555
Be3 Lu2 2.811116 1_555
Be3 Lu4 2.952354 1_545
Be3 Lu1 2.954004 1_555
Ir0 Lu0 3.003311 1_555
Ir0 Lu0 3.003311 1_556
Ir0 Lu1 3.065102 1_565
Ir0 Lu1 3.065102 1_566
Ir1 Lu4 3.003311 1_556
Ir1 Lu4 3.003311 1_555
Ir1 Lu0 3.065102 1_656
Ir1 Lu0 3.065102 1_655
Ir2 Lu3 2.777186 1_555
Ir2 Lu3 2.777186 1_556
Ir2 Lu0 2.956046 1_556
Ir2 Lu0 2.956046 1_555
Ir2 Lu4 3.060570 1_556
Ir2 Lu4 3.060570 1_555
Ir3 Lu3 2.777186 1_555
Ir3 Lu3 2.777186 1_556
Ir3 Lu2 2.956046 1_556
Ir3 Lu2 2.956046 1_555
Ir3 Lu1 3.060570 1_556
Ir3 Lu1 3.060570 1_555
Ir4 Lu3 2.777186 1_555
Ir4 Lu3 2.777186 1_556
Ir4 Lu4 2.956046 1_555
Ir4 Lu4 2.956046 1_556
Ir4 Lu2 3.060570 1_556
Ir4 Lu2 3.060570 1_555
Ir5 Lu3 2.777186 1_555
Ir5 Lu3 2.777186 1_556
Ir5 Lu1 2.956046 1_556
Ir5 Lu1 2.956046 1_555
Ir5 Lu0 3.060570 1_556
Ir5 Lu0 3.060570 1_555
Ir6 Lu1 3.003311 1_556
Ir6 Lu1 3.003311 1_555
Ir6 Lu2 3.065102 1_456
Ir6 Lu2 3.065102 1_455
Ir7 Lu0 2.912908 1_555
Ir7 Lu0 2.912908 1_556
Ir7 Lu2 2.912908 1_456
Ir7 Lu2 2.912908 1_455
Ir8 Lu4 2.912908 1_545
Ir8 Lu4 2.912908 1_546
Ir8 Lu1 2.912908 1_556
Ir8 Lu1 2.912908 1_555
Ir9 Lu2 3.003311 1_556
Ir9 Lu2 3.003311 1_555
Ir9 Lu4 3.065102 1_545
Ir9 Lu4 3.065102 1_546
