# generated using pymatgen
data_LuAgSn
_symmetry_space_group_name_H-M   'P 1'
_cell_length_a   7.26148358
_cell_length_b   7.26148280
_cell_length_c   4.43084317
_cell_angle_alpha   90.00000000
_cell_angle_beta   90.00000000
_cell_angle_gamma   119.99999884
_symmetry_Int_Tables_number   1
_chemical_formula_structural   LuAgSn
_chemical_formula_sum   'Lu3 Ag3 Sn3'
_cell_volume   202.33345042
_cell_formula_units_Z   3
loop_
 _symmetry_equiv_pos_site_id
 _symmetry_equiv_pos_as_xyz
  1  'x, y, z'
loop_
 _atom_site_type_symbol
 _atom_site_label
 _atom_site_symmetry_multiplicity
 _atom_site_fract_x
 _atom_site_fract_y
 _atom_site_fract_z
 _atom_site_occupancy
  Lu  Lu0  1  -0.00000000  0.43173191  -0.00000000  1
  Lu  Lu1  1  0.56826809  0.56826809  -0.00000000  1
  Lu  Lu2  1  0.43173191  0.00000000  0.00000000  1
  Ag  Ag0  1  0.24594420  0.24594420  0.50000000  1
  Ag  Ag1  1  0.75405580  -0.00000000  0.50000000  1
  Ag  Ag2  1  0.00000000  0.75405580  0.50000000  1
  Sn  Sn0  1  0.33333300  0.66666700  0.50000000  1
  Sn  Sn1  1  0.00000000  -0.00000000  0.00000000  1
  Sn  Sn2  1  0.66666700  0.33333300  0.50000000  1
loop_
_geom_bond_atom_site_label_1
_geom_bond_atom_site_label_2
_geom_bond_distance
_geom_bond_site_symmetry_2
Lu0 Sn2 3.089971 1_454
Lu0 Sn2 3.089971 1_455
Lu0 Sn0 3.089972 1_555
Lu0 Sn0 3.089972 1_554
Lu0 Sn1 3.135014 1_555
Lu0 Lu2 3.730888 1_565
Lu0 Lu1 3.730888 1_455
Lu0 Lu2 3.730888 1_455
Lu0 Lu1 3.730888 1_555
Lu1 Sn2 3.089976 1_555
Lu1 Sn2 3.089976 1_554
Lu1 Sn0 3.089976 1_554
Lu1 Sn0 3.089976 1_555
Lu1 Sn1 3.135014 1_665
Lu1 Lu2 3.730887 1_555
Lu1 Lu2 3.730887 1_565
Lu2 Sn0 3.089971 1_544
Lu2 Sn0 3.089971 1_545
Lu2 Sn2 3.089972 1_554
Lu2 Sn2 3.089972 1_555
Lu2 Sn1 3.135014 1_555
Ag0 Sn0 2.792397 1_555
Ag0 Sn2 2.792397 1_555
Ag0 Sn1 2.845629 1_555
Ag0 Sn1 2.845629 1_556
Ag0 Ag2 3.093303 1_545
Ag0 Ag1 3.093304 1_455
Ag0 Lu1 3.222773 1_556
Ag0 Lu1 3.222773 1_555
Ag0 Lu2 3.510987 1_555
Ag0 Lu2 3.510987 1_556
Ag0 Lu0 3.510987 1_556
Ag0 Lu0 3.510987 1_555
Ag1 Sn2 2.792390 1_555
Ag1 Sn0 2.792395 1_545
Ag1 Sn1 2.845629 1_656
Ag1 Sn1 2.845629 1_655
Ag1 Ag2 3.093304 1_645
Ag1 Lu2 3.222773 1_556
Ag1 Lu2 3.222773 1_555
Ag1 Lu1 3.510987 1_545
Ag1 Lu1 3.510987 1_546
Ag1 Lu0 3.510987 1_656
Ag1 Lu0 3.510987 1_655
Ag2 Sn0 2.792390 1_555
Ag2 Sn2 2.792395 1_455
Ag2 Sn1 2.845628 1_566
Ag2 Sn1 2.845628 1_565
Ag2 Lu0 3.222773 1_556
Ag2 Lu0 3.222773 1_555
Ag2 Lu2 3.510987 1_565
Ag2 Lu2 3.510987 1_566
Ag2 Lu1 3.510987 1_456
Ag2 Lu1 3.510987 1_455
