# generated using pymatgen
data_LiTiRhS4
_symmetry_space_group_name_H-M   'P 1'
_cell_length_a   6.87943899
_cell_length_b   6.87943846
_cell_length_c   5.78827023
_cell_angle_alpha   67.36941924
_cell_angle_beta   67.36942343
_cell_angle_gamma   29.22057342
_symmetry_Int_Tables_number   1
_chemical_formula_structural   LiTiRhS4
_chemical_formula_sum   'Li1 Ti1 Rh1 S4'
_cell_volume   122.70240039
_cell_formula_units_Z   1
loop_
 _symmetry_equiv_pos_site_id
 _symmetry_equiv_pos_as_xyz
  1  'x, y, z'
loop_
 _atom_site_type_symbol
 _atom_site_label
 _atom_site_symmetry_multiplicity
 _atom_site_fract_x
 _atom_site_fract_y
 _atom_site_fract_z
 _atom_site_occupancy
  Li  Li0  1  0.50247798  0.50247798  0.51757129  1
  Ti  Ti0  1  0.75491776  0.75491776  0.19621212  1
  Rh  Rh0  1  0.24534143  0.24534143  0.77840576  1
  S  S0  1  0.37585935  0.37585935  0.96885674  1
  S  S1  1  0.84894638  0.84894638  0.50406281  1
  S  S2  1  0.14683540  0.14683540  0.51004811  1
  S  S3  1  0.62562169  0.62562169  0.02484416  1
loop_
_geom_bond_atom_site_label_1
_geom_bond_atom_site_label_2
_geom_bond_distance
_geom_bond_site_symmetry_2
Li0 S0 2.482573 1_555
Li0 S2 2.576924 1_565
Li0 S2 2.576925 1_655
Li0 S3 2.665219 1_555
Li0 S1 2.706079 1_545
Li0 S1 2.706080 1_455
Rh0 S1 2.386121 1_455
Rh0 S1 2.386121 1_545
Rh0 S2 2.398550 1_555
Rh0 S0 2.399660 1_555
Rh0 S3 2.403833 1_546
Rh0 S3 2.403834 1_456
S0 Ti0 2.377101 1_546
S0 Ti0 2.377102 1_456
S1 Ti0 2.552765 1_555
S2 Ti0 2.510568 1_455
S2 Ti0 2.510569 1_545
S3 Ti0 2.303319 1_555
