# generated using pymatgen
data_Rb2NaTiSb2
_symmetry_space_group_name_H-M   'P 1'
_cell_length_a   9.73230276
_cell_length_b   9.73230321
_cell_length_c   9.73230127
_cell_angle_alpha   135.94857084
_cell_angle_beta   62.55218814
_cell_angle_gamma   137.92126659
_symmetry_Int_Tables_number   1
_chemical_formula_structural   Rb2NaTiSb2
_chemical_formula_sum   'Rb4 Na2 Ti2 Sb4'
_cell_volume   424.29829128
_cell_formula_units_Z   2
loop_
 _symmetry_equiv_pos_site_id
 _symmetry_equiv_pos_as_xyz
  1  'x, y, z'
loop_
 _atom_site_type_symbol
 _atom_site_label
 _atom_site_symmetry_multiplicity
 _atom_site_fract_x
 _atom_site_fract_y
 _atom_site_fract_z
 _atom_site_occupancy
  Rb  Rb0  1  0.32510169  0.77369969  0.09880238  1
  Rb  Rb1  1  0.17489831  0.27369969  0.44859799  1
  Rb  Rb2  1  0.82510169  0.72630131  0.55140301  1
  Rb  Rb3  1  0.67489831  0.22630131  0.90119862  1
  Na  Na0  1  0.75000000  0.25000000  0.50000000  1
  Na  Na1  1  0.25000000  0.75000100  0.50000100  1
  Ti  Ti0  1  0.25000000  0.25000000  0.00000000  1
  Ti  Ti1  1  0.75000000  0.75000000  0.00000000  1
  Sb  Sb0  1  0.90697537  0.20882798  0.11580335  1
  Sb  Sb1  1  0.59302463  0.70882898  0.30185362  1
  Sb  Sb2  1  0.40697537  0.29117202  0.69814738  1
  Sb  Sb3  1  0.09302463  0.79117202  0.88419765  1
loop_
_geom_bond_atom_site_label_1
_geom_bond_atom_site_label_2
_geom_bond_distance
_geom_bond_site_symmetry_2
Rb0 Sb2 3.776468 1_554
Rb0 Sb0 3.779856 1_455
Rb0 Sb0 3.779862 1_565
Rb0 Sb3 3.862922 1_554
Rb0 Ti0 3.938192 1_555
Rb0 Ti1 3.938195 1_555
Rb0 Sb2 4.015430 1_565
Rb1 Sb3 3.776460 1_544
Rb1 Sb1 3.779860 1_445
Rb1 Sb1 3.779861 1_555
Rb1 Sb2 3.862922 1_555
Rb1 Ti1 3.938196 1_445
Rb1 Ti0 3.938197 1_555
Rb1 Sb3 4.015438 1_555
Rb2 Sb0 3.776460 1_566
Rb2 Sb2 3.779860 1_665
Rb2 Sb2 3.779861 1_555
Rb2 Sb1 3.862922 1_555
Rb2 Ti0 3.938193 1_666
Rb2 Ti1 3.938193 1_556
Rb2 Sb0 4.015444 1_555
Rb3 Sb1 3.776468 1_556
Rb3 Sb3 3.779849 1_655
Rb3 Sb3 3.779862 1_545
Rb3 Sb0 3.862930 1_556
Rb3 Ti1 3.938188 1_556
Rb3 Ti0 3.938191 1_556
Rb3 Sb1 4.015430 1_545
Na0 Sb1 3.156651 1_545
Na0 Sb0 3.156656 1_555
Na0 Sb2 3.156656 1_555
Na0 Sb3 3.156660 1_655
Na0 Rb0 3.774454 1_545
Na0 Rb3 3.774454 1_555
Na0 Rb1 3.774461 1_655
Na0 Rb2 3.774465 1_555
Na1 Sb2 3.156651 1_565
Na1 Sb1 3.156656 1_555
Na1 Sb3 3.156659 1_555
Na1 Sb0 3.156660 1_455
Na1 Rb3 3.774454 1_565
Na1 Rb0 3.774454 1_555
Na1 Rb2 3.774461 1_455
Na1 Rb1 3.774465 1_555
Sb0 Ti0 2.787583 1_655
Sb0 Ti1 2.787583 1_545
Sb1 Ti0 2.787586 1_555
Sb1 Ti1 2.787587 1_555
Sb2 Ti1 2.787582 1_556
Sb2 Ti0 2.787583 1_556
Sb3 Ti1 2.787584 1_456
Sb3 Ti0 2.787588 1_566
