# generated using pymatgen
data_BaBe13
_symmetry_space_group_name_H-M   'P 1'
_cell_length_a   7.52692449
_cell_length_b   7.52692457
_cell_length_c   7.52712069
_cell_angle_alpha   59.99914711
_cell_angle_beta   59.99914673
_cell_angle_gamma   59.99823914
_symmetry_Int_Tables_number   1
_chemical_formula_structural   BaBe13
_chemical_formula_sum   'Ba2 Be26'
_cell_volume   301.53492802
_cell_formula_units_Z   2
loop_
 _symmetry_equiv_pos_site_id
 _symmetry_equiv_pos_as_xyz
  1  'x, y, z'
loop_
 _atom_site_type_symbol
 _atom_site_label
 _atom_site_symmetry_multiplicity
 _atom_site_fract_x
 _atom_site_fract_y
 _atom_site_fract_z
 _atom_site_occupancy
  Ba  Ba0  1  0.75000000  0.75000000  0.75000000  1
  Ba  Ba1  1  0.25000000  0.25000000  0.25000000  1
  Be  Be0  1  0.93347030  0.28146992  0.71850782  1
  Be  Be1  1  0.71853008  0.06652970  0.93344804  1
  Be  Be2  1  -0.00000000  0.00000000  0.00000000  1
  Be  Be3  1  0.50000000  0.50000000  0.50000000  1
  Be  Be4  1  0.28146992  0.93347030  0.06655196  1
  Be  Be5  1  0.56654549  0.43345451  0.78144570  1
  Be  Be6  1  0.78151499  0.21848501  0.56653683  1
  Be  Be7  1  0.56654687  0.78147511  0.21851288  1
  Be  Be8  1  0.43345313  0.21852489  0.78148712  1
  Be  Be9  1  0.43347030  0.78146992  0.56655196  1
  Be  Be10  1  0.78146992  0.43347030  0.21850782  1
  Be  Be11  1  0.06654687  0.28147511  0.93346515  1
  Be  Be12  1  0.93345451  0.06654549  0.28144570  1
  Be  Be13  1  0.71848501  0.28151499  0.06653683  1
  Be  Be14  1  0.93345313  0.71852489  0.06653485  1
  Be  Be15  1  0.71852489  0.93345313  0.28148712  1
  Be  Be16  1  0.06654549  0.93345451  0.71855430  1
  Be  Be17  1  0.28147511  0.06654687  0.71851288  1
  Be  Be18  1  0.28151499  0.71848501  0.93346317  1
  Be  Be19  1  0.78147511  0.56654687  0.43346515  1
  Be  Be20  1  0.21848501  0.78151499  0.43346317  1
  Be  Be21  1  0.21853008  0.56652970  0.78149218  1
  Be  Be22  1  0.56652970  0.21853008  0.43344804  1
  Be  Be23  1  0.43345451  0.56654549  0.21855430  1
  Be  Be24  1  0.21852489  0.43345313  0.56653485  1
  Be  Be25  1  0.06652970  0.71853008  0.28149218  1
loop_
_geom_bond_atom_site_label_1
_geom_bond_atom_site_label_2
_geom_bond_distance
_geom_bond_site_symmetry_2
Ba0 Be18 3.168117 1_555
Ba0 Be6 3.168117 1_565
Ba0 Be20 3.168117 1_655
Ba0 Be13 3.168117 1_556
Ba0 Be9 3.168210 1_555
Ba0 Be1 3.168210 1_565
Ba0 Be25 3.168210 1_655
Ba0 Be10 3.168210 1_556
Ba0 Be17 3.168259 1_565
Ba0 Be8 3.168259 1_565
Ba0 Be24 3.168260 1_655
Ba0 Be11 3.168260 1_655
Ba0 Be14 3.168286 1_556
Ba0 Be19 3.168286 1_555
Ba0 Be7 3.168287 1_556
Ba0 Be15 3.168287 1_555
Ba0 Be21 3.168337 1_655
Ba0 Be0 3.168337 1_555
Ba0 Be4 3.168337 1_556
Ba0 Be22 3.168337 1_565
Ba0 Be16 3.168438 1_655
Ba0 Be5 3.168438 1_555
Ba0 Be23 3.168439 1_556
Ba0 Be12 3.168439 1_565
Ba1 Be13 3.168117 1_555
Ba1 Be20 3.168117 1_545
Ba1 Be6 3.168117 1_455
Ba1 Be18 3.168117 1_554
Ba1 Be22 3.168210 1_555
Ba1 Be4 3.168210 1_545
Ba1 Be0 3.168210 1_455
Ba1 Be21 3.168210 1_554
Ba1 Be15 3.168259 1_545
Ba1 Be7 3.168259 1_545
Ba1 Be19 3.168260 1_455
Ba1 Be14 3.168260 1_455
Ba1 Be11 3.168286 1_554
Ba1 Be24 3.168286 1_555
Ba1 Be8 3.168287 1_554
Ba1 Be17 3.168287 1_555
Ba1 Be10 3.168337 1_455
Ba1 Be25 3.168337 1_555
Ba1 Be1 3.168337 1_554
Ba1 Be9 3.168337 1_545
Ba1 Be12 3.168438 1_455
Ba1 Be23 3.168438 1_555
Ba1 Be5 3.168439 1_554
Ba1 Be16 3.168439 1_545
Be0 Be2 2.177081 1_656
Be0 Be6 2.287884 1_555
Be0 Be5 2.287938 1_555
Be0 Be1 2.287971 1_555
Be0 Be16 2.289213 1_645
Be0 Be17 2.289246 1_655
Be0 Be11 2.289565 1_655
Be0 Be13 2.289598 1_556
Be0 Be19 2.431516 1_555
Be0 Be24 2.431516 1_655
Be1 Be2 2.177081 1_656
Be1 Be6 2.287884 1_555
Be1 Be5 2.287938 1_555
Be1 Be16 2.289213 1_645
Be1 Be14 2.289246 1_546
Be1 Be15 2.289565 1_546
Be1 Be13 2.289598 1_556
Be1 Be8 2.431516 1_555
Be1 Be7 2.431517 1_546
Be2 Be4 2.177081 1_545
Be2 Be25 2.177081 1_545
Be3 Be5 2.176881 1_555
Be3 Be9 2.177081 1_555
Be3 Be7 2.177082 1_555
Be3 Be8 2.177082 1_555
Be3 Be6 2.177271 1_555
Be4 Be7 2.431516 1_555
Be4 Be8 2.431517 1_564
Be5 Be6 2.287958 1_555
Be5 Be9 2.289213 1_555
Be5 Be8 2.289236 1_555
Be6 Be8 2.289570 1_555
Be7 Be9 2.289565 1_555
Be10 Be3 2.177081 1_555
Be10 Be13 2.287884 1_555
Be10 Be12 2.287938 1_555
Be10 Be22 2.287971 1_555
Be10 Be23 2.289213 1_555
Be10 Be7 2.289246 1_555
Be10 Be19 2.289565 1_555
Be10 Be6 2.289598 1_555
Be10 Be11 2.431516 1_654
Be10 Be14 2.431516 1_555
Be11 Be2 2.177082 1_556
Be11 Be8 2.287818 1_555
Be11 Be17 2.287969 1_555
Be11 Be24 2.288007 1_555
Be11 Be12 2.289236 1_456
Be11 Be4 2.289246 1_546
Be11 Be13 2.289570 1_456
Be11 Be21 2.431516 1_555
Be12 Be2 2.176881 1_655
Be12 Be22 2.287938 1_555
Be12 Be13 2.287958 1_555
Be12 Be25 2.289213 1_645
Be12 Be4 2.289213 1_645
Be12 Be15 2.289236 1_545
Be12 Be20 2.431425 1_645
Be12 Be6 2.431623 1_555
Be13 Be2 2.177271 1_655
Be13 Be22 2.287884 1_555
Be13 Be15 2.289570 1_545
Be13 Be23 2.431425 1_555
Be13 Be5 2.431623 1_554
Be14 Be2 2.177082 1_665
Be14 Be7 2.287818 1_555
Be14 Be15 2.287969 1_555
Be14 Be19 2.288007 1_555
Be14 Be16 2.289236 1_654
Be14 Be25 2.289565 1_655
Be14 Be18 2.289570 1_654
Be14 Be21 2.431516 1_654
Be15 Be2 2.177082 1_665
Be15 Be19 2.287818 1_555
Be15 Be7 2.288006 1_555
Be15 Be25 2.289246 1_655
Be15 Be22 2.431516 1_565
Be15 Be9 2.431517 1_555
Be16 Be2 2.176881 1_566
Be16 Be21 2.287938 1_555
Be16 Be9 2.287938 1_555
Be16 Be18 2.287958 1_555
Be16 Be17 2.289236 1_565
Be16 Be6 2.431425 1_465
Be16 Be20 2.431623 1_555
Be17 Be2 2.177082 1_556
Be17 Be24 2.287818 1_555
Be17 Be8 2.288006 1_555
Be17 Be4 2.289565 1_546
Be17 Be18 2.289570 1_545
Be17 Be9 2.431516 1_545
Be17 Be22 2.431517 1_555
Be18 Be2 2.177271 1_566
Be18 Be21 2.287884 1_555
Be18 Be9 2.287884 1_555
Be18 Be4 2.289598 1_556
Be18 Be25 2.289598 1_556
Be18 Be5 2.431425 1_555
Be18 Be23 2.431623 1_556
Be19 Be3 2.177082 1_555
Be19 Be7 2.287969 1_555
Be19 Be5 2.289236 1_555
Be19 Be9 2.289246 1_555
Be19 Be6 2.289570 1_555
Be19 Be25 2.431516 1_655
Be20 Be3 2.177271 1_555
Be20 Be25 2.287884 1_555
Be20 Be4 2.287884 1_555
Be20 Be23 2.287958 1_555
Be20 Be24 2.289570 1_555
Be20 Be7 2.289570 1_555
Be20 Be9 2.289598 1_555
Be20 Be21 2.289598 1_555
Be21 Be3 2.177081 1_555
Be21 Be9 2.287971 1_555
Be21 Be5 2.289213 1_555
Be21 Be8 2.289246 1_555
Be21 Be24 2.289565 1_555
Be22 Be3 2.177081 1_555
Be22 Be23 2.289213 1_555
Be22 Be24 2.289246 1_555
Be22 Be8 2.289565 1_555
Be22 Be6 2.289598 1_555
Be23 Be3 2.176881 1_555
Be23 Be25 2.287938 1_555
Be23 Be4 2.287938 1_555
Be23 Be7 2.289236 1_555
Be23 Be24 2.289236 1_555
Be24 Be3 2.177082 1_555
Be24 Be8 2.287969 1_555
Be24 Be25 2.431516 1_555
Be25 Be4 2.287971 1_555
