# generated using pymatgen
data_Y10ZnIn2Ru
_symmetry_space_group_name_H-M   'P 1'
_cell_length_a   9.75115850
_cell_length_b   9.71552621
_cell_length_c   9.61940886
_cell_angle_alpha   90.00000000
_cell_angle_beta   90.00000000
_cell_angle_gamma   119.87919144
_symmetry_Int_Tables_number   1
_chemical_formula_structural   Y10ZnIn2Ru
_chemical_formula_sum   'Y20 Zn2 In4 Ru2'
_cell_volume   790.18532568
_cell_formula_units_Z   2
loop_
 _symmetry_equiv_pos_site_id
 _symmetry_equiv_pos_as_xyz
  1  'x, y, z'
loop_
 _atom_site_type_symbol
 _atom_site_label
 _atom_site_symmetry_multiplicity
 _atom_site_fract_x
 _atom_site_fract_y
 _atom_site_fract_z
 _atom_site_occupancy
  Y  Y0  1  0.98341897  0.99170999  0.47422008  1
  Y  Y1  1  0.98341897  0.99170999  0.02577992  1
  Y  Y2  1  0.21078279  0.79441430  0.43695644  1
  Y  Y3  1  0.21078279  0.41636950  0.43695644  1
  Y  Y4  1  0.57564211  0.78782155  0.43713692  1
  Y  Y5  1  0.79277376  0.21224203  0.56165661  1
  Y  Y6  1  0.79277376  0.58053173  0.56165661  1
  Y  Y7  1  0.41760550  0.20880225  0.55998633  1
  Y  Y8  1  0.79277376  0.21224203  0.93834339  1
  Y  Y9  1  0.79277376  0.58053173  0.93834339  1
  Y  Y10  1  0.41760550  0.20880225  0.94001367  1
  Y  Y11  1  0.21078279  0.79441430  0.06304356  1
  Y  Y12  1  0.21078279  0.41636950  0.06304356  1
  Y  Y13  1  0.57564211  0.78782155  0.06286308  1
  Y  Y14  1  0.55498824  0.46818088  0.25000000  1
  Y  Y15  1  0.55498824  0.08680837  0.25000000  1
  Y  Y16  1  0.92821346  0.46410723  0.25000000  1
  Y  Y17  1  0.46209913  0.53877696  0.75000000  1
  Y  Y18  1  0.46209913  0.92332116  0.75000000  1
  Y  Y19  1  0.08870278  0.54435089  0.75000000  1
  Zn  Zn0  1  0.87826185  0.12719604  0.25000000  1
  Zn  Zn1  1  0.87826185  0.75106680  0.25000000  1
  In  In0  1  0.24412291  0.12206145  0.25000000  1
  In  In1  1  0.11122215  0.88928612  0.75000000  1
  In  In2  1  0.11122215  0.22193603  0.75000000  1
  In  In3  1  0.77247994  0.88623997  0.75000000  1
  Ru  Ru0  1  0.32539854  0.66269977  0.25000000  1
  Ru  Ru1  1  0.66037925  0.33018962  0.75000000  1
loop_
_geom_bond_atom_site_label_1
_geom_bond_atom_site_label_2
_geom_bond_distance
_geom_bond_site_symmetry_2
Y0 Zn0 2.963282 1_565
Y0 Zn1 2.963282 1_555
Y0 Y4 3.466163 1_555
Y0 Y5 3.566869 1_565
Y0 Y6 3.566878 1_555
Y0 Y2 3.598929 1_655
Y0 Y3 3.598929 1_665
Y0 Y7 3.762617 1_665
Y1 Zn0 2.963282 1_565
Y1 Zn1 2.963282 1_555
Y1 Y13 3.466163 1_555
Y1 Y8 3.566869 1_564
Y1 Y9 3.566878 1_554
Y1 Y11 3.598929 1_655
Y1 Y12 3.598929 1_665
Y1 Y10 3.762617 1_664
Y2 Zn1 3.544667 1_455
Y3 Zn0 3.544667 1_455
Y4 Zn1 3.622941 1_555
Y4 Zn0 3.622941 1_565
Y5 Zn0 3.324395 1_555
Y6 Zn1 3.324399 1_555
Y8 Zn0 3.324395 1_556
Y9 Zn1 3.324399 1_556
Y10 Y18 3.524341 1_545
Y10 Y17 3.524341 1_555
Y10 Y15 3.697708 1_556
Y10 Y14 3.697718 1_556
Y11 Y16 3.509240 1_455
Y11 Zn1 3.544667 1_455
Y11 Y15 3.615210 1_565
Y11 Y19 3.675037 1_554
Y11 Y18 3.685650 1_554
Y12 Y16 3.509240 1_455
Y12 Zn0 3.544667 1_455
Y12 Y14 3.615210 1_555
Y12 Y19 3.675027 1_554
Y12 Y17 3.685650 1_554
Y13 Y15 3.507410 1_565
Y13 Y14 3.507410 1_555
Y13 Zn1 3.622941 1_555
Y13 Zn0 3.622941 1_565
Y13 Y18 3.669950 1_554
Y13 Y17 3.669960 1_554
Y14 Zn1 2.976326 1_555
Y14 Y4 3.507410 1_555
Y14 Y6 3.610233 1_555
Y14 Y9 3.610233 1_554
Y14 Y3 3.615210 1_555
Y14 Y16 3.659256 1_555
Y14 Y7 3.697718 1_555
Y14 Y15 3.705235 1_555
Y15 Zn0 2.976326 1_555
Y15 Y4 3.507410 1_545
Y15 Y5 3.610233 1_555
Y15 Y8 3.610233 1_554
Y15 Y2 3.615210 1_545
Y15 Y16 3.659256 1_555
Y15 Y7 3.697708 1_555
Y16 Zn1 3.059903 1_555
Y16 Zn0 3.059903 1_555
Y16 Y3 3.509240 1_655
Y16 Y2 3.509240 1_655
Y16 Y6 3.674208 1_555
Y16 Y9 3.674208 1_554
Y16 Y5 3.674213 1_555
Y16 Y8 3.674213 1_554
Y17 Y7 3.524341 1_555
Y17 Y9 3.541310 1_555
Y17 Y6 3.541310 1_555
Y17 Y19 3.668325 1_555
Y17 Y4 3.669960 1_555
Y17 Y3 3.685650 1_555
Y17 Y18 3.736049 1_555
Y18 Y7 3.524341 1_565
Y18 Y8 3.541313 1_565
Y18 Y5 3.541313 1_565
Y18 Y19 3.668326 1_555
Y18 Y4 3.669950 1_555
Y18 Y2 3.685650 1_555
Y19 Y8 3.569818 1_455
Y19 Y5 3.569818 1_455
Y19 Y9 3.569823 1_455
Y19 Y6 3.569823 1_455
Y19 Y3 3.675027 1_555
Y19 Y2 3.675037 1_555
In0 Y0 3.083959 1_445
In0 Y1 3.083959 1_445
In0 Y15 3.215665 1_555
In0 Y14 3.215671 1_555
In0 Y10 3.323121 1_554
In0 Y7 3.323121 1_555
In0 Y2 3.527327 1_545
In0 Y11 3.527327 1_545
In0 Y3 3.527335 1_555
In0 Y12 3.527335 1_555
In1 In2 3.231869 1_565
In1 Y19 3.247420 1_555
In1 Y18 3.269324 1_555
In1 In3 3.288486 1_455
In1 Y1 3.288840 1_456
In1 Y0 3.288840 1_455
In1 Y11 3.428056 1_556
In1 Y2 3.428056 1_555
In1 Y9 3.555622 1_455
In1 Y6 3.555622 1_455
In1 Y7 3.558471 1_565
In1 Y10 3.558471 1_565
In2 Y19 3.247410 1_555
In2 Y17 3.269320 1_555
In2 In3 3.288486 1_445
In2 Y1 3.288835 1_446
In2 Y0 3.288835 1_445
In2 Y12 3.428060 1_556
In2 Y3 3.428060 1_555
In2 Y8 3.555622 1_455
In2 Y5 3.555622 1_455
In2 Y7 3.558475 1_555
In2 Y10 3.558475 1_555
In3 Y1 3.196624 1_556
In3 Y0 3.196624 1_555
In3 Y18 3.221228 1_555
In3 Y17 3.221234 1_555
In3 Y13 3.439073 1_556
In3 Y4 3.439073 1_555
In3 Y9 3.567744 1_555
In3 Y6 3.567744 1_555
In3 Y8 3.567744 1_565
In3 Y5 3.567744 1_565
Ru0 Y2 2.746989 1_555
Ru0 Y11 2.746989 1_555
Ru0 Y3 2.746989 1_555
Ru0 Y12 2.746989 1_555
Ru0 Y4 2.777983 1_555
Ru0 Y13 2.777983 1_555
Ru0 Y16 3.358205 1_455
Ru0 Y14 3.577582 1_555
Ru0 Y15 3.577582 1_565
Ru1 Y7 2.748512 1_555
Ru1 Y10 2.748512 1_555
Ru1 Y8 2.781411 1_555
Ru1 Y5 2.781411 1_555
Ru1 Y9 2.781411 1_555
Ru1 Y6 2.781411 1_555
Ru1 Y17 3.427685 1_555
Ru1 Y18 3.427694 1_545
Ru1 Y19 3.621481 1_655
