# generated using pymatgen
data_RbY2CuS4
_symmetry_space_group_name_H-M   'P 1'
_cell_length_a   3.97541067
_cell_length_b   7.13988630
_cell_length_c   13.73979129
_cell_angle_alpha   90.00000000
_cell_angle_beta   90.00000000
_cell_angle_gamma   73.83559515
_symmetry_Int_Tables_number   1
_chemical_formula_structural   RbY2CuS4
_chemical_formula_sum   'Rb2 Y4 Cu2 S8'
_cell_volume   374.57242174
_cell_formula_units_Z   2
loop_
 _symmetry_equiv_pos_site_id
 _symmetry_equiv_pos_as_xyz
  1  'x, y, z'
loop_
 _atom_site_type_symbol
 _atom_site_label
 _atom_site_symmetry_multiplicity
 _atom_site_fract_x
 _atom_site_fract_y
 _atom_site_fract_z
 _atom_site_occupancy
  Rb  Rb0  1  0.89248596  0.21502608  0.25000000  1
  Rb  Rb1  1  0.10751304  0.78497392  0.75000000  1
  Y  Y0  1  0.63428586  0.73142928  0.06177709  1
  Y  Y1  1  0.63428586  0.73142928  0.43822291  1
  Y  Y2  1  0.36571414  0.26857072  0.56177709  1
  Y  Y3  1  0.36571414  0.26857072  0.93822291  1
  Cu  Cu0  1  0.16532511  0.66935078  0.25000000  1
  Cu  Cu1  1  0.83467489  0.33064822  0.75000000  1
  S  S0  1  0.00000000  0.00000000  0.00000000  1
  S  S1  1  0.25972261  0.48055378  0.10918219  1
  S  S2  1  0.57586219  0.84827262  0.25000000  1
  S  S3  1  0.25972261  0.48055378  0.39081781  1
  S  S4  1  0.00000000  0.00000000  0.50000000  1
  S  S5  1  0.74027739  0.51944522  0.60918219  1
  S  S6  1  0.42413581  0.15172838  0.75000000  1
  S  S7  1  0.74027739  0.51944522  0.89081781  1
loop_
_geom_bond_atom_site_label_1
_geom_bond_atom_site_label_2
_geom_bond_distance
_geom_bond_site_symmetry_2
Rb0 S2 3.205695 1_645
Rb0 S2 3.205697 1_545
Rb0 S3 3.318144 1_555
Rb0 S1 3.318144 1_555
Rb0 S3 3.318147 1_655
Rb0 S1 3.318147 1_655
Rb0 S4 3.738077 1_655
Rb0 S0 3.738077 1_655
Rb1 S6 3.205701 1_565
Rb1 S6 3.205701 1_465
Rb1 S7 3.318149 1_455
Rb1 S5 3.318149 1_455
Rb1 S7 3.318149 1_555
Rb1 S5 3.318149 1_555
Rb1 S4 3.738077 1_565
Rb1 S0 3.738077 1_566
Cu0 S3 2.328030 1_555
Cu0 S1 2.328030 1_555
Cu0 S2 2.335898 1_555
Cu0 S2 2.335911 1_455
Cu1 S7 2.328030 1_555
Cu1 S5 2.328030 1_555
Cu1 S6 2.335894 1_555
Cu1 S6 2.335901 1_655
S0 Y3 2.839631 1_554
S0 Y0 2.839631 1_445
S0 Y0 2.839634 1_545
S0 Y3 2.839634 1_454
S1 Y0 2.708322 1_455
S1 Y0 2.708327 1_555
S1 Y3 2.762388 1_554
S2 Y1 2.707428 1_555
S2 Y0 2.707428 1_555
S3 Y1 2.708322 1_455
S3 Y1 2.708327 1_555
S3 Y2 2.762388 1_555
S4 Y2 2.839631 1_555
S4 Y1 2.839631 1_445
S4 Y2 2.839634 1_455
S4 Y1 2.839634 1_545
S5 Y2 2.708319 1_655
S5 Y2 2.708321 1_555
S5 Y1 2.762391 1_555
S6 Y3 2.707426 1_555
S6 Y2 2.707426 1_555
S7 Y3 2.708319 1_655
S7 Y3 2.708321 1_555
S7 Y0 2.762391 1_556
