# generated using pymatgen
data_Zr4Co8GeP5
_symmetry_space_group_name_H-M   'P 1'
_cell_length_a   12.11451441
_cell_length_b   12.11024530
_cell_length_c   3.64752960
_cell_angle_alpha   90.00000000
_cell_angle_beta   90.00000000
_cell_angle_gamma   119.98833973
_symmetry_Int_Tables_number   1
_chemical_formula_structural   Zr4Co8GeP5
_chemical_formula_sum   'Zr8 Co16 Ge2 P10'
_cell_volume   463.48899220
_cell_formula_units_Z   2
loop_
 _symmetry_equiv_pos_site_id
 _symmetry_equiv_pos_as_xyz
  1  'x, y, z'
loop_
 _atom_site_type_symbol
 _atom_site_label
 _atom_site_symmetry_multiplicity
 _atom_site_fract_x
 _atom_site_fract_y
 _atom_site_fract_z
 _atom_site_occupancy
  Zr  Zr0  1  0.44107583  0.44306456  0.00000000  1
  Zr  Zr1  1  0.55892417  0.00198873  0.00000000  1
  Zr  Zr2  1  1.00000000  0.55389373  0.00000000  1
  Zr  Zr3  1  0.66698406  0.33399669  0.00000000  1
  Zr  Zr4  1  0.33301594  0.66701263  0.00000000  1
  Zr  Zr5  1  0.83084687  0.83038770  0.50000000  1
  Zr  Zr6  1  0.16915313  0.99953983  0.50000000  1
  Zr  Zr7  1  0.00000000  0.17515111  0.50000000  1
  Co  Co0  1  0.19156898  0.36976778  0.00000000  1
  Co  Co1  1  0.17186241  0.79803353  0.00000000  1
  Co  Co2  1  0.82813759  0.62617112  0.00000000  1
  Co  Co3  1  0.80843102  0.17819980  0.00000000  1
  Co  Co4  1  0.37182378  0.20096201  0.00000000  1
  Co  Co5  1  0.12581072  0.47911740  0.50000000  1
  Co  Co6  1  0.35568249  0.86867985  0.50000000  1
  Co  Co7  1  0.51171735  0.64421800  0.50000000  1
  Co  Co8  1  0.64431751  0.51299736  0.50000000  1
  Co  Co9  1  0.87418928  0.35330868  0.50000000  1
  Co  Co10  1  0.48828265  0.13250165  0.50000000  1
  Co  Co11  1  1.00000000  0.99993948  0.00000000  1
  Co  Co12  1  0.72407431  0.00335370  0.50000000  1
  Co  Co13  1  0.00000000  0.72047161  0.50000000  1
  Co  Co14  1  0.62817622  0.82913823  0.00000000  1
  Co  Co15  1  0.27592569  0.27927839  0.50000000  1
  Ge  Ge0  1  0.65695836  0.65671016  0.00000000  1
  Ge  Ge1  1  0.34304164  0.99975180  0.00000000  1
  P  P0  1  0.00000000  0.34390689  0.00000000  1
  P  P1  1  0.48108096  0.30802485  0.50000000  1
  P  P2  1  0.69409408  0.17511266  0.50000000  1
  P  P3  1  0.82645783  0.51767234  0.50000000  1
  P  P4  1  0.51891904  0.82694389  0.50000000  1
  P  P5  1  0.17354217  0.69121552  0.50000000  1
  P  P6  1  0.82499697  0.00016427  0.00000000  1
  P  P7  1  0.00000000  0.82314416  0.00000000  1
  P  P8  1  0.30590592  0.48101858  0.50000000  1
  P  P9  1  0.17500303  0.17516630  0.00000000  1
loop_
_geom_bond_atom_site_label_1
_geom_bond_atom_site_label_2
_geom_bond_distance
_geom_bond_site_symmetry_2
Co0 P0 2.181162 1_555
Co0 P9 2.263048 1_555
Co0 P8 2.279116 1_555
Co0 P8 2.279116 1_554
Co0 Zr0 2.691144 1_555
Co0 Zr7 2.966321 1_555
Co0 Zr7 2.966321 1_554
Co0 Zr4 3.118981 1_555
Co1 P5 2.241925 1_554
Co1 P5 2.241925 1_555
Co1 P7 2.249497 1_555
Co1 Ge1 2.281208 1_555
Co1 Zr2 2.631111 1_455
Co1 Zr4 3.070126 1_555
Co2 P3 2.241932 1_555
Co2 P3 2.241932 1_554
Co2 P7 2.249497 1_655
Co2 Ge0 2.281207 1_555
Co2 Zr2 2.631111 1_555
Co2 Zr3 3.070126 1_555
Co3 P0 2.181158 1_655
Co3 P6 2.263048 1_555
Co3 P2 2.279112 1_555
Co3 P2 2.279112 1_554
Co3 Zr1 2.691147 1_555
Co3 Zr7 2.966325 1_654
Co3 Zr7 2.966325 1_655
Co3 Zr3 3.118970 1_555
Co4 P9 2.244614 1_555
Co4 P1 2.245790 1_555
Co4 P1 2.245790 1_554
Co4 Ge1 2.282493 1_545
Co4 Zr0 2.615554 1_555
Co4 Zr3 3.102036 1_555
Co5 P8 2.170350 1_555
Co5 P5 2.333910 1_555
Co5 P0 2.415679 1_555
Co5 P0 2.415679 1_556
Co5 Zr2 2.801581 1_456
Co5 Zr2 2.801581 1_455
Co5 Zr4 3.015802 1_555
Co5 Zr4 3.015802 1_556
Co5 Zr7 3.203905 1_555
Co6 P5 2.178790 1_555
Co6 P4 2.272719 1_555
Co6 Ge1 2.472271 1_555
Co6 Ge1 2.472271 1_556
Co6 Zr1 2.832168 1_565
Co6 Zr1 2.832168 1_566
Co6 Zr4 2.948841 1_555
Co6 Zr4 2.948841 1_556
Co7 P4 2.170564 1_555
Co7 P8 2.279622 1_555
Co7 Ge0 2.485727 1_555
Co7 Ge0 2.485727 1_556
Co7 Zr0 2.812240 1_555
Co7 Zr0 2.812240 1_556
Co7 Zr4 2.947275 1_555
Co7 Zr4 2.947275 1_556
Co8 P3 2.178796 1_555
Co8 P1 2.272719 1_555
Co8 Ge0 2.472271 1_555
Co8 Ge0 2.472271 1_556
Co8 Zr0 2.832168 1_555
Co8 Zr0 2.832168 1_556
Co8 Zr3 2.948841 1_555
Co8 Zr3 2.948841 1_556
Co9 P2 2.170362 1_555
Co9 P3 2.333875 1_555
Co9 P0 2.415687 1_656
Co9 P0 2.415687 1_655
Co9 Zr2 2.801567 1_556
Co9 Zr2 2.801567 1_555
Co9 Zr3 3.015794 1_555
Co9 Zr3 3.015794 1_556
Co9 Zr7 3.203927 1_655
Co10 P1 2.170552 1_555
Co10 P2 2.279626 1_555
Co10 Ge1 2.485730 1_545
Co10 Ge1 2.485730 1_546
Co10 Zr1 2.812248 1_555
Co10 Zr1 2.812248 1_556
Co10 Zr3 2.947270 1_555
Co10 Zr3 2.947270 1_556
Co11 P9 2.121433 1_665
Co11 P6 2.121439 1_565
Co11 P7 2.141035 1_655
Co11 Zr5 2.745047 1_555
Co11 Zr5 2.745047 1_554
Co11 Zr6 2.745052 1_655
Co11 Zr6 2.745052 1_654
Co11 Zr7 2.797926 1_664
Co11 Zr7 2.797926 1_665
Co12 P6 2.206726 1_556
Co12 P6 2.206726 1_555
Co12 P2 2.283350 1_555
Co12 P4 2.330943 1_545
Co12 Zr1 2.701145 1_555
Co12 Zr1 2.701145 1_556
Co12 Zr7 2.924059 1_655
Co13 P7 2.207292 1_556
Co13 P7 2.207292 1_555
Co13 P5 2.300029 1_555
Co13 P3 2.300036 1_455
Co13 Zr2 2.719488 1_455
Co13 Zr2 2.719488 1_456
Co14 P6 2.244619 1_565
Co14 P4 2.245790 1_555
Co14 P4 2.245790 1_554
Co14 Ge0 2.282493 1_555
Co14 Zr1 2.615554 1_565
Co14 Zr4 3.102036 1_555
Co15 P9 2.206726 1_555
Co15 P9 2.206726 1_556
Co15 P8 2.283362 1_555
Co15 P1 2.330939 1_555
Co15 Zr0 2.701150 1_555
Co15 Zr0 2.701150 1_556
Co15 Zr7 2.924061 1_555
Ge0 Zr0 2.601878 1_555
Ge0 Zr5 2.785391 1_555
Ge0 Zr5 2.785391 1_554
Ge1 Zr1 2.601878 1_565
Ge1 Zr6 2.785386 1_554
Ge1 Zr6 2.785386 1_555
P0 Zr2 2.542992 1_455
P0 Zr7 2.739110 1_555
P0 Zr7 2.739110 1_554
P1 Zr0 2.650981 1_555
P1 Zr0 2.650981 1_556
P1 Zr3 2.790880 1_555
P1 Zr3 2.790880 1_556
P2 Zr1 2.640310 1_556
P2 Zr1 2.640310 1_555
P2 Zr3 2.787103 1_555
P2 Zr3 2.787103 1_556
P3 Zr2 2.648895 1_555
P3 Zr2 2.648895 1_556
P3 Zr3 2.776775 1_555
P3 Zr3 2.776775 1_556
P4 Zr1 2.650981 1_566
P4 Zr1 2.650981 1_565
P4 Zr4 2.790881 1_555
P4 Zr4 2.790881 1_556
P5 Zr2 2.648898 1_456
P5 Zr2 2.648898 1_455
P5 Zr4 2.776780 1_555
P5 Zr4 2.776780 1_556
P6 Zr5 2.775623 1_545
P6 Zr5 2.775623 1_544
P6 Zr7 2.796503 1_655
P6 Zr7 2.796503 1_654
P7 Zr6 2.777181 1_554
P7 Zr6 2.777181 1_555
P7 Zr5 2.777186 1_455
P7 Zr5 2.777186 1_454
P8 Zr0 2.640310 1_555
P8 Zr0 2.640310 1_556
P8 Zr4 2.787103 1_555
P8 Zr4 2.787103 1_556
P9 Zr6 2.775623 1_545
P9 Zr6 2.775623 1_544
P9 Zr7 2.796507 1_555
P9 Zr7 2.796507 1_554
