# generated using pymatgen
data_Zr6Al16Co2Pt5
_symmetry_space_group_name_H-M   'P 1'
_cell_length_a   8.69072866
_cell_length_b   8.64482914
_cell_length_c   8.64482780
_cell_angle_alpha   60.35159203
_cell_angle_beta   59.82420221
_cell_angle_gamma   59.82420353
_symmetry_Int_Tables_number   1
_chemical_formula_structural   Zr6Al16Co2Pt5
_chemical_formula_sum   'Zr6 Al16 Co2 Pt5'
_cell_volume   459.22902283
_cell_formula_units_Z   1
loop_
 _symmetry_equiv_pos_site_id
 _symmetry_equiv_pos_as_xyz
  1  'x, y, z'
loop_
 _atom_site_type_symbol
 _atom_site_label
 _atom_site_symmetry_multiplicity
 _atom_site_fract_x
 _atom_site_fract_y
 _atom_site_fract_z
 _atom_site_occupancy
  Zr  Zr0  1  0.68843954  0.31156046  0.31156046  1
  Zr  Zr1  1  0.68763460  0.31236540  0.68763460  1
  Zr  Zr2  1  0.68763460  0.68763460  0.31236540  1
  Zr  Zr3  1  0.31156046  0.68843954  0.68843954  1
  Zr  Zr4  1  0.31236540  0.68763460  0.31236540  1
  Zr  Zr5  1  0.31236540  0.31236540  0.68763460  1
  Al  Al0  1  0.63707310  0.11702056  0.11702056  1
  Al  Al1  1  0.11702056  0.63707310  0.12888679  1
  Al  Al2  1  0.11702056  0.12888679  0.63707310  1
  Al  Al3  1  0.12888679  0.11702056  0.11702056  1
  Al  Al4  1  0.36292690  0.88297944  0.88297944  1
  Al  Al5  1  0.88297944  0.36292690  0.87111321  1
  Al  Al6  1  0.88297944  0.87111321  0.36292690  1
  Al  Al7  1  0.87111321  0.88297944  0.88297944  1
  Al  Al8  1  0.99504007  0.33981019  0.33981019  1
  Al  Al9  1  0.33981019  0.99504007  0.32534056  1
  Al  Al10  1  0.33981019  0.32534056  0.99504007  1
  Al  Al11  1  0.32534056  0.33981019  0.33981019  1
  Al  Al12  1  0.00495993  0.66018981  0.66018981  1
  Al  Al13  1  0.66018981  0.00495993  0.67465944  1
  Al  Al14  1  0.66018981  0.67465944  0.00495993  1
  Al  Al15  1  0.67465944  0.66018981  0.66018981  1
  Co  Co0  1  0.50000000  0.00000000  0.00000000  1
  Co  Co1  1  0.00000000  0.50000000  0.50000000  1
  Pt  Pt0  1  0.00000000  0.00000000  0.00000000  1
  Pt  Pt1  1  0.50000000  0.00000000  0.50000000  1
  Pt  Pt2  1  0.50000000  0.50000000  0.00000000  1
  Pt  Pt3  1  0.00000000  0.50000000  0.00000000  1
  Pt  Pt4  1  0.00000000  0.00000000  0.50000000  1
loop_
_geom_bond_atom_site_label_1
_geom_bond_atom_site_label_2
_geom_bond_distance
_geom_bond_site_symmetry_2
Zr0 Zr5 3.251030 1_555
Zr0 Zr1 3.251030 1_555
Zr0 Zr4 3.251030 1_555
Zr0 Zr2 3.251030 1_555
Zr1 Zr3 3.251030 1_555
Zr1 Zr5 3.261363 1_555
Zr1 Zr2 3.261363 1_555
Zr2 Zr3 3.251030 1_555
Zr2 Zr4 3.261363 1_555
Zr3 Zr4 3.251030 1_555
Zr3 Zr5 3.251030 1_555
Zr4 Zr5 3.261363 1_555
Al0 Pt0 2.567525 1_655
Al0 Co0 2.627047 1_555
Al0 Pt1 2.708645 1_555
Al0 Pt2 2.708646 1_555
Al0 Zr1 3.118985 1_554
Al0 Zr2 3.118985 1_545
Al0 Zr0 3.188048 1_555
Al1 Pt0 2.567526 1_565
Al1 Co1 2.627040 1_555
Al1 Pt2 2.708646 1_555
Al1 Pt3 2.708653 1_555
Al1 Zr4 3.118978 1_555
Al1 Zr2 3.118985 1_455
Al1 Zr3 3.188055 1_554
Al2 Pt0 2.567526 1_556
Al2 Co1 2.627040 1_555
Al2 Pt1 2.708646 1_555
Al2 Pt4 2.708653 1_555
Al2 Zr5 3.118978 1_555
Al2 Zr1 3.118985 1_455
Al2 Zr3 3.188056 1_545
Al3 Pt0 2.567533 1_555
Al3 Co0 2.627040 1_555
Al3 Pt4 2.708645 1_555
Al3 Pt3 2.708646 1_555
Al3 Zr5 3.118983 1_554
Al3 Zr4 3.118984 1_545
Al3 Zr0 3.188054 1_455
Al4 Pt0 2.567525 1_566
Al4 Co0 2.627047 1_566
Al4 Pt1 2.708645 1_565
Al4 Pt2 2.708646 1_556
Al4 Zr4 3.118985 1_556
Al4 Zr5 3.118985 1_565
Al4 Zr3 3.188048 1_555
Al5 Pt0 2.567526 1_656
Al5 Co1 2.627040 1_655
Al5 Pt2 2.708646 1_556
Al5 Pt3 2.708653 1_656
Al5 Zr1 3.118978 1_555
Al5 Zr5 3.118985 1_655
Al5 Zr0 3.188055 1_556
Al6 Pt0 2.567526 1_665
Al6 Co1 2.627040 1_655
Al6 Pt1 2.708646 1_565
Al6 Pt4 2.708653 1_665
Al6 Zr2 3.118978 1_555
Al6 Zr4 3.118985 1_655
Al6 Zr0 3.188056 1_565
Al7 Pt0 2.567533 1_666
Al7 Co0 2.627040 1_566
Al7 Pt4 2.708645 1_665
Al7 Pt3 2.708646 1_656
Al7 Zr2 3.118983 1_556
Al7 Zr1 3.118984 1_565
Al7 Zr3 3.188054 1_655
Al8 Co1 2.419625 1_655
Al8 Pt3 2.541074 1_655
Al8 Pt4 2.541075 1_655
Al8 Zr1 2.844397 1_555
Al8 Zr2 2.844397 1_555
Al8 Zr0 2.930299 1_555
Al9 Co0 2.419632 1_565
Al9 Pt1 2.541067 1_565
Al9 Pt4 2.541074 1_565
Al9 Zr2 2.844397 1_555
Al9 Zr4 2.844402 1_555
Al9 Zr3 2.930294 1_555
Al10 Co0 2.419632 1_556
Al10 Pt2 2.541067 1_556
Al10 Pt3 2.541074 1_556
Al10 Zr1 2.844397 1_555
Al10 Zr5 2.844402 1_555
Al10 Zr3 2.930294 1_555
Al11 Co1 2.419630 1_555
Al11 Pt2 2.541072 1_555
Al11 Pt1 2.541072 1_555
Al11 Zr5 2.844393 1_555
Al11 Zr4 2.844393 1_555
Al11 Zr0 2.930290 1_555
Al12 Co1 2.419625 1_555
Al12 Pt3 2.541074 1_556
Al12 Pt4 2.541075 1_565
Al12 Zr4 2.844397 1_555
Al12 Zr5 2.844397 1_555
Al12 Zr3 2.930299 1_555
Al13 Co0 2.419632 1_556
Al13 Pt1 2.541067 1_555
Al13 Pt4 2.541074 1_655
Al13 Zr5 2.844397 1_555
Al13 Zr1 2.844402 1_555
Al13 Zr0 2.930294 1_555
Al14 Co0 2.419632 1_565
Al14 Pt2 2.541067 1_555
Al14 Pt3 2.541074 1_655
Al14 Zr4 2.844397 1_555
Al14 Zr2 2.844402 1_555
Al14 Zr0 2.930294 1_555
Al15 Co1 2.419630 1_655
Al15 Pt2 2.541072 1_556
Al15 Pt1 2.541072 1_565
Al15 Zr2 2.844393 1_555
Al15 Zr1 2.844393 1_555
Al15 Zr3 2.930290 1_555
Co0 Zr2 3.166800 1_545
Co0 Zr5 3.166800 1_554
Co0 Zr1 3.166801 1_554
Co0 Zr4 3.166801 1_545
Co1 Zr5 3.166800 1_555
Co1 Zr2 3.166800 1_455
Co1 Zr4 3.166801 1_555
Co1 Zr1 3.166801 1_455
Pt1 Zr5 3.135235 1_555
Pt1 Zr2 3.135235 1_545
Pt1 Zr0 3.162514 1_555
Pt1 Zr3 3.162514 1_545
Pt2 Zr4 3.135235 1_555
Pt2 Zr1 3.135235 1_554
Pt2 Zr0 3.162514 1_555
Pt2 Zr3 3.162514 1_554
Pt3 Zr2 3.135235 1_455
Pt3 Zr5 3.135235 1_554
Pt3 Zr3 3.162514 1_554
Pt3 Zr0 3.162514 1_455
Pt4 Zr1 3.135235 1_455
Pt4 Zr4 3.135235 1_545
Pt4 Zr3 3.162514 1_545
Pt4 Zr0 3.162514 1_455
