# generated using pymatgen
data_Cs7RbSnBi4
_symmetry_space_group_name_H-M   'P 1'
_cell_length_a   12.66436544
_cell_length_b   12.66436535
_cell_length_c   12.61286375
_cell_angle_alpha   60.13443546
_cell_angle_beta   60.13443570
_cell_angle_gamma   60.24592516
_symmetry_Int_Tables_number   1
_chemical_formula_structural   Cs7RbSnBi4
_chemical_formula_sum   'Cs14 Rb2 Sn2 Bi8'
_cell_volume   1435.98209883
_cell_formula_units_Z   2
loop_
 _symmetry_equiv_pos_site_id
 _symmetry_equiv_pos_as_xyz
  1  'x, y, z'
loop_
 _atom_site_type_symbol
 _atom_site_label
 _atom_site_symmetry_multiplicity
 _atom_site_fract_x
 _atom_site_fract_y
 _atom_site_fract_z
 _atom_site_occupancy
  Cs  Cs0  1  0.62500000  0.12500000  0.62500000  1
  Cs  Cs1  1  0.12500000  0.62500000  0.62500000  1
  Cs  Cs2  1  0.02257599  0.02257599  0.47742401  1
  Cs  Cs3  1  0.77272449  0.22737508  0.22682781  1
  Cs  Cs4  1  0.22737508  0.77272449  0.77307262  1
  Cs  Cs5  1  0.77327314  0.77327314  0.22672686  1
  Cs  Cs6  1  0.77272449  0.22737508  0.77307262  1
  Cs  Cs7  1  0.22737508  0.77272449  0.22682781  1
  Cs  Cs8  1  0.47727551  0.02262492  0.47692738  1
  Cs  Cs9  1  0.47727551  0.02262492  0.02317219  1
  Cs  Cs10  1  0.02262492  0.47727551  0.47692738  1
  Cs  Cs11  1  0.02262492  0.47727551  0.02317219  1
  Cs  Cs12  1  0.22742401  0.22742401  0.77257599  1
  Cs  Cs13  1  0.47672686  0.47672686  0.02327314  1
  Rb  Rb0  1  0.62500000  0.62500000  0.12500000  1
  Rb  Rb1  1  0.62500000  0.62500000  0.62500000  1
  Sn  Sn0  1  0.74902051  0.74902051  0.75097949  1
  Sn  Sn1  1  0.50097949  0.50097949  0.49902051  1
  Bi  Bi0  1  0.40564418  0.79304067  0.40065708  1
  Bi  Bi1  1  0.84635670  0.84635670  0.45590919  1
  Bi  Bi2  1  0.45695933  0.84435582  0.84934292  1
  Bi  Bi3  1  0.84635670  0.84635670  0.85137741  1
  Bi  Bi4  1  0.79304067  0.40564418  0.40065708  1
  Bi  Bi5  1  0.40364330  0.40364330  0.39862259  1
  Bi  Bi6  1  0.40364330  0.40364330  0.79409081  1
  Bi  Bi7  1  0.84435582  0.45695933  0.84934292  1
loop_
_geom_bond_atom_site_label_1
_geom_bond_atom_site_label_2
_geom_bond_distance
_geom_bond_site_symmetry_2
Cs0 Sn1 3.897613 1_555
Cs0 Sn0 3.897613 1_545
Cs0 Cs6 4.119206 1_555
Cs0 Cs8 4.119206 1_555
Cs0 Cs9 4.119206 1_556
Cs0 Cs3 4.119206 1_555
Cs0 Cs2 4.133654 1_655
Cs0 Cs12 4.133654 1_555
Cs1 Sn1 3.897613 1_555
Cs1 Sn0 3.897613 1_455
Cs1 Cs4 4.119206 1_555
Cs1 Cs10 4.119206 1_555
Cs1 Cs11 4.119206 1_556
Cs1 Cs7 4.119206 1_555
Cs1 Cs2 4.133654 1_565
Cs1 Cs12 4.133654 1_555
Cs2 Cs7 4.514398 1_545
Cs2 Cs3 4.514398 1_455
Cs2 Cs4 4.514398 1_545
Cs2 Cs6 4.514398 1_455
Cs3 Rb0 4.136246 1_555
Cs3 Cs8 4.517001 1_555
Cs4 Rb1 4.136246 1_555
Cs4 Cs8 4.514340 1_565
Cs5 Rb0 4.122778 1_555
Cs5 Rb1 4.122778 1_555
Cs5 Cs9 4.514075 1_565
Cs5 Cs8 4.514075 1_565
Cs6 Rb1 4.136246 1_555
Cs6 Cs9 4.517001 1_556
Cs7 Rb0 4.136246 1_555
Cs7 Cs9 4.514340 1_565
Cs8 Rb1 4.136246 1_545
Cs9 Rb0 4.136246 1_545
Cs10 Rb1 4.136246 1_455
Cs10 Cs5 4.514075 1_455
Cs10 Cs6 4.514340 1_455
Cs10 Cs12 4.514398 1_555
Cs10 Cs7 4.517001 1_555
Cs11 Rb0 4.136246 1_455
Cs11 Cs5 4.514075 1_455
Cs11 Cs3 4.514340 1_455
Cs11 Cs12 4.514398 1_554
Cs11 Cs4 4.517001 1_554
Cs12 Cs9 4.514398 1_556
Cs12 Cs8 4.514398 1_555
Cs13 Rb0 4.122778 1_555
Cs13 Rb1 4.122778 1_554
Cs13 Cs7 4.514075 1_555
Cs13 Cs3 4.514075 1_555
Cs13 Cs4 4.514075 1_554
Cs13 Cs6 4.514075 1_554
Rb0 Sn1 3.857235 1_555
Rb0 Sn0 3.857235 1_554
Rb1 Sn0 3.857234 1_555
Rb1 Sn1 3.857234 1_555
Bi0 Sn1 3.027693 1_555
Bi0 Cs5 3.971090 1_555
Bi0 Cs7 4.004794 1_555
Bi0 Cs4 4.004805 1_555
Bi0 Rb0 4.026946 1_555
Bi0 Rb1 4.026955 1_555
Bi0 Cs9 4.058921 1_565
Bi0 Cs8 4.058929 1_565
Bi0 Cs1 4.081904 1_555
Bi0 Cs2 4.129229 1_565
Bi1 Sn0 3.043046 1_555
Bi1 Cs10 3.987503 1_655
Bi1 Cs8 3.987503 1_565
Bi1 Rb1 4.019617 1_555
Bi1 Cs2 4.022981 1_665
Bi1 Cs5 4.030952 1_555
Bi1 Cs0 4.072102 1_565
Bi1 Cs1 4.072102 1_655
Bi1 Cs3 4.102898 1_565
Bi1 Cs7 4.102898 1_655
Bi2 Sn0 3.027693 1_555
Bi2 Cs13 3.971090 1_556
Bi2 Cs9 4.004794 1_566
Bi2 Cs8 4.004805 1_565
Bi2 Rb0 4.026946 1_556
Bi2 Rb1 4.026955 1_555
Bi2 Cs7 4.058921 1_556
Bi2 Cs4 4.058929 1_555
Bi2 Cs0 4.081904 1_565
Bi2 Cs12 4.129229 1_565
Bi3 Sn0 3.043046 1_555
Bi3 Cs11 3.987503 1_656
Bi3 Cs9 3.987503 1_566
Bi3 Rb0 4.019617 1_556
Bi3 Cs2 4.022981 1_665
Bi3 Cs5 4.030952 1_556
Bi3 Cs0 4.072102 1_565
Bi3 Cs1 4.072102 1_655
Bi3 Cs6 4.102898 1_565
Bi3 Cs4 4.102898 1_655
Bi4 Sn1 3.027693 1_555
Bi4 Cs5 3.971090 1_555
Bi4 Cs3 4.004794 1_555
Bi4 Cs6 4.004805 1_555
Bi4 Rb0 4.026946 1_555
Bi4 Rb1 4.026955 1_555
Bi4 Cs11 4.058921 1_655
Bi4 Cs10 4.058929 1_655
Bi4 Cs0 4.081904 1_555
Bi4 Cs2 4.129229 1_655
Bi5 Sn1 3.043046 1_555
Bi5 Cs7 3.987503 1_555
Bi5 Cs3 3.987503 1_555
Bi5 Rb0 4.019617 1_555
Bi5 Cs12 4.022981 1_555
Bi5 Cs13 4.030952 1_555
Bi5 Cs0 4.072102 1_555
Bi5 Cs1 4.072102 1_555
Bi5 Cs8 4.102898 1_555
Bi5 Cs10 4.102898 1_555
Bi6 Sn1 3.043046 1_555
Bi6 Cs4 3.987503 1_555
Bi6 Cs6 3.987503 1_555
Bi6 Rb1 4.019617 1_555
Bi6 Cs12 4.022981 1_555
Bi6 Cs13 4.030952 1_556
Bi6 Cs0 4.072102 1_555
Bi6 Cs1 4.072102 1_555
Bi6 Cs9 4.102898 1_556
Bi6 Cs11 4.102898 1_556
Bi7 Sn0 3.027693 1_555
Bi7 Cs13 3.971090 1_556
Bi7 Cs11 4.004794 1_656
Bi7 Cs10 4.004805 1_655
Bi7 Rb0 4.026946 1_556
Bi7 Rb1 4.026955 1_555
Bi7 Cs3 4.058921 1_556
Bi7 Cs6 4.058929 1_555
Bi7 Cs1 4.081904 1_655
Bi7 Cs12 4.129229 1_655
