# generated using pymatgen
data_BaIn2GaAg
_symmetry_space_group_name_H-M   'P 1'
_cell_length_a   6.86395087
_cell_length_b   6.86395163
_cell_length_c   6.86395276
_cell_angle_alpha   140.18112982
_cell_angle_beta   140.18113446
_cell_angle_gamma   57.57837538
_symmetry_Int_Tables_number   1
_chemical_formula_structural   BaIn2GaAg
_chemical_formula_sum   'Ba1 In2 Ga1 Ag1'
_cell_volume   131.46366064
_cell_formula_units_Z   1
loop_
 _symmetry_equiv_pos_site_id
 _symmetry_equiv_pos_as_xyz
  1  'x, y, z'
loop_
 _atom_site_type_symbol
 _atom_site_label
 _atom_site_symmetry_multiplicity
 _atom_site_fract_x
 _atom_site_fract_y
 _atom_site_fract_z
 _atom_site_occupancy
  Ba  Ba0  1  0.00245063  0.00245063  1.00000000  1
  In  In0  1  0.75023525  0.25023525  0.50000000  1
  In  In1  1  0.25023525  0.75023525  0.50000000  1
  Ga  Ga0  1  0.60863387  0.60863387  0.00000000  1
  Ag  Ag0  1  0.38844600  0.38844600  1.00000000  1
loop_
_geom_bond_atom_site_label_1
_geom_bond_atom_site_label_2
_geom_bond_distance
_geom_bond_site_symmetry_2
Ba0 Ga0 3.543867 1_546
Ba0 Ga0 3.543867 1_456
Ba0 Ga0 3.543867 1_557
Ba0 Ga0 3.543868 1_445
Ba0 In0 3.788215 1_556
Ba0 In1 3.788216 1_556
Ba0 In1 3.788216 1_545
Ba0 In0 3.788216 1_455
Ba0 In1 3.830306 1_445
Ba0 In0 3.830307 1_445
Ba0 In0 3.830307 1_456
Ba0 In1 3.830307 1_546
Ga0 In1 2.892371 1_655
Ga0 In0 2.892372 1_565
Ga0 In1 2.892372 1_554
Ga0 In0 2.892372 1_554
Ag0 Ga0 2.649102 1_556
Ag0 In0 2.868533 1_455
Ag0 In1 2.868534 1_545
Ag0 In0 2.868534 1_556
Ag0 In1 2.868534 1_556
Ag0 Ba0 3.578864 1_655
Ag0 Ba0 3.578865 1_565
Ag0 Ba0 3.578865 1_666
Ag0 Ba0 3.578866 1_554
