# generated using pymatgen
data_Sr5Li6CaH18
_symmetry_space_group_name_H-M   'P 1'
_cell_length_a   5.33070893
_cell_length_b   5.33070824
_cell_length_c   13.04261861
_cell_angle_alpha   90.00000000
_cell_angle_beta   90.00000000
_cell_angle_gamma   119.99999815
_symmetry_Int_Tables_number   1
_chemical_formula_structural   Sr5Li6CaH18
_chemical_formula_sum   'Sr5 Li6 Ca1 H18'
_cell_volume   320.97064681
_cell_formula_units_Z   1
loop_
 _symmetry_equiv_pos_site_id
 _symmetry_equiv_pos_as_xyz
  1  'x, y, z'
loop_
 _atom_site_type_symbol
 _atom_site_label
 _atom_site_symmetry_multiplicity
 _atom_site_fract_x
 _atom_site_fract_y
 _atom_site_fract_z
 _atom_site_occupancy
  Sr  Sr0  1  0.66666700  0.33333400  0.08030196  1
  Sr  Sr1  1  0.00000000  0.00000000  0.24920822  1
  Sr  Sr2  1  0.33333300  0.66666600  0.41673071  1
  Sr  Sr3  1  0.66666700  0.33333400  0.58422676  1
  Sr  Sr4  1  0.00000000  0.00000000  0.75309500  1
  Li  Li0  1  0.00000000  0.00000000  0.99781150  1
  Li  Li1  1  0.33333300  0.66666600  0.16327723  1
  Li  Li2  1  0.66666700  0.33333400  0.33214070  1
  Li  Li3  1  0.00000000  0.00000000  0.50125590  1
  Li  Li4  1  0.33333300  0.66666600  0.67039471  1
  Li  Li5  1  0.66666700  0.33333400  0.83563413  1
  Ca  Ca0  1  0.33333300  0.66666600  0.91678746  1
  H  H0  1  0.15237636  0.33707578  0.07919285  1
  H  H1  1  0.66292422  0.81530159  0.07919285  1
  H  H2  1  0.18469841  0.84762364  0.07919285  1
  H  H3  1  0.50653733  0.99920204  0.24851354  1
  H  H4  1  0.49266471  0.49346067  0.24851354  1
  H  H5  1  0.00079996  0.50733729  0.24851354  1
  H  H6  1  0.33336388  0.16285068  0.41646524  1
  H  H7  1  0.83714732  0.17051220  0.41646524  1
  H  H8  1  0.82948780  0.66663512  0.41646524  1
  H  H9  1  0.17408547  0.33426956  0.58459178  1
  H  H10  1  0.16018408  0.82591453  0.58459178  1
  H  H11  1  0.66573044  0.83981592  0.58459178  1
  H  H12  1  0.48228440  0.99687371  0.75426354  1
  H  H13  1  0.00312429  0.48541069  0.75426354  1
  H  H14  1  0.51458731  0.51771560  0.75426354  1
  H  H15  1  0.79441160  0.12745482  0.91675396  1
  H  H16  1  0.33304422  0.20558740  0.91675396  1
  H  H17  1  0.87254318  0.66695578  0.91675396  1
loop_
_geom_bond_atom_site_label_1
_geom_bond_atom_site_label_2
_geom_bond_distance
_geom_bond_site_symmetry_2
Ca0 H15 2.457104 1_565
Ca0 H16 2.457106 1_555
Ca0 H17 2.457109 1_455
Ca0 H0 2.609466 1_556
Ca0 H1 2.609468 1_556
Ca0 H2 2.609471 1_556
Ca0 H14 2.612373 1_555
Ca0 H12 2.612382 1_555
Ca0 H13 2.612384 1_555
H0 Li1 1.877574 1_555
H0 Li0 1.885618 1_554
H0 Sr0 2.579300 1_455
H0 Sr1 2.710350 1_555
H0 Sr0 2.751599 1_555
H1 Li1 1.877577 1_555
H1 Li0 1.885618 1_664
H1 Sr0 2.579303 1_555
H1 Sr1 2.710350 1_665
H1 Sr0 2.751596 1_565
H2 Li1 1.877581 1_555
H2 Li0 1.885615 1_564
H2 Sr0 2.579306 1_565
H2 Sr1 2.710347 1_565
H2 Sr0 2.751594 1_455
H3 Li2 1.889558 1_565
H3 Li1 1.895779 1_555
H3 Sr1 2.628397 1_665
H3 Sr2 2.678002 1_555
H3 Sr0 2.682172 1_565
H3 Sr1 2.702348 1_565
H4 Li2 1.889547 1_555
H4 Li1 1.895783 1_555
H4 Sr1 2.628392 1_555
H4 Sr2 2.678004 1_555
H4 Sr0 2.682164 1_555
H4 Sr1 2.702353 1_665
H5 Li2 1.889562 1_455
H5 Li1 1.895768 1_555
H5 Sr1 2.628392 1_565
H5 Sr2 2.677994 1_555
H5 Sr0 2.682175 1_455
H5 Sr1 2.702353 1_555
H6 Li2 1.891458 1_555
H6 Li3 1.895227 1_555
H6 Sr2 2.644936 1_545
H6 Sr1 2.669775 1_555
H6 Sr3 2.674993 1_555
H6 Sr2 2.685777 1_555
H7 Li2 1.891454 1_555
H7 Li3 1.895231 1_655
H7 Sr2 2.644939 1_655
H7 Sr1 2.669778 1_655
H7 Sr3 2.674990 1_555
H7 Sr2 2.685775 1_545
H8 Li2 1.891451 1_555
H8 Li3 1.895231 1_665
H8 Sr2 2.644941 1_555
H8 Sr1 2.669778 1_665
H8 Sr3 2.674987 1_555
H8 Sr2 2.685772 1_655
H9 Li3 1.887888 1_555
H9 Li4 1.899603 1_555
H9 Sr3 2.628310 1_555
H9 Sr2 2.673829 1_555
H9 Sr4 2.685651 1_555
H9 Sr3 2.702414 1_455
H10 Li3 1.887888 1_565
H10 Li4 1.899607 1_555
H10 Sr3 2.628307 1_455
H10 Sr2 2.673832 1_555
H10 Sr4 2.685651 1_565
H10 Sr3 2.702417 1_565
H11 Li3 1.887888 1_665
H11 Li4 1.899607 1_555
H11 Sr3 2.628313 1_565
H11 Sr2 2.673832 1_555
H11 Sr4 2.685651 1_665
H11 Sr3 2.702411 1_555
H12 Li4 1.878244 1_555
H12 Li5 1.883193 1_565
H12 Sr4 2.579336 1_565
H12 Sr3 2.708947 1_565
H12 Sr4 2.751539 1_665
H13 Li4 1.878247 1_555
H13 Li5 1.883182 1_455
H13 Sr4 2.579341 1_555
H13 Sr3 2.708939 1_455
H13 Sr4 2.751533 1_565
H14 Li4 1.878233 1_555
H14 Li5 1.883196 1_555
H14 Sr4 2.579341 1_665
H14 Sr3 2.708949 1_555
H14 Sr4 2.751533 1_555
H15 Li0 1.877489 1_655
H15 Li5 1.880142 1_555
H15 Sr4 2.638855 1_655
H15 Sr0 2.639248 1_556
H16 Li0 1.877492 1_555
H16 Li5 1.880137 1_555
H16 Sr4 2.638857 1_555
H16 Sr0 2.639244 1_556
H17 Li0 1.877492 1_665
H17 Li5 1.880133 1_555
H17 Sr4 2.638857 1_665
H17 Sr0 2.639241 1_556
