# generated using pymatgen
data_Rb2Na(CO3)2
_symmetry_space_group_name_H-M   'P 1'
_cell_length_a   6.69379553
_cell_length_b   6.69388982
_cell_length_c   6.69381313
_cell_angle_alpha   49.60469012
_cell_angle_beta   49.60473418
_cell_angle_gamma   49.60478028
_symmetry_Int_Tables_number   1
_chemical_formula_structural   Rb2Na(CO3)2
_chemical_formula_sum   'Rb2 Na1 C2 O6'
_cell_volume   159.95347399
_cell_formula_units_Z   1
loop_
 _symmetry_equiv_pos_site_id
 _symmetry_equiv_pos_as_xyz
  1  'x, y, z'
loop_
 _atom_site_type_symbol
 _atom_site_label
 _atom_site_symmetry_multiplicity
 _atom_site_fract_x
 _atom_site_fract_y
 _atom_site_fract_z
 _atom_site_occupancy
  Rb  Rb0  1  0.21488038  0.21488025  0.21487538  1
  Rb  Rb1  1  0.78511962  0.78511975  0.78512462  1
  Na  Na0  1  0.00000000  0.00000000  0.00000000  1
  C  C0  1  0.40989822  0.40991650  0.40990722  1
  C  C1  1  0.59010178  0.59008350  0.59009278  1
  O  O0  1  0.67420874  0.27789351  0.27791290  1
  O  O1  1  0.27790375  0.67421715  0.27791275  1
  O  O2  1  0.72209510  0.72210749  0.32578626  1
  O  O3  1  0.27790490  0.27789251  0.67421374  1
  O  O4  1  0.72209625  0.32578385  0.72208725  1
  O  O5  1  0.32579226  0.72210649  0.72208710  1
loop_
_geom_bond_atom_site_label_1
_geom_bond_atom_site_label_2
_geom_bond_distance
_geom_bond_site_symmetry_2
Na0 O2 2.376069 1_445
Na0 O3 2.376069 1_554
Na0 O5 2.376115 1_544
Na0 O0 2.376115 1_455
Na0 O4 2.376144 1_454
Na0 O1 2.376145 1_545
C0 O1 1.284951 1_555
C0 O3 1.285007 1_555
C0 O0 1.285020 1_555
C1 O4 1.284947 1_555
C1 O2 1.285007 1_555
C1 O5 1.285017 1_555
O0 Rb1 2.921722 1_545
O0 Rb1 2.921815 1_554
O0 Rb0 3.118801 1_655
O1 Rb1 2.921718 1_455
O1 Rb1 2.921734 1_554
O1 Rb0 3.118762 1_565
O2 Rb0 2.921731 1_565
O2 Rb0 2.921819 1_655
O2 Rb1 3.118794 1_554
O3 Rb1 2.921731 1_545
O3 Rb1 2.921819 1_455
O3 Rb0 3.118794 1_556
O4 Rb0 2.921720 1_655
O4 Rb0 2.921736 1_556
O4 Rb1 3.118769 1_545
O5 Rb0 2.921724 1_565
O5 Rb0 2.921816 1_556
O5 Rb1 3.118808 1_455
