# generated using pymatgen
data_Y4SnSb5Rh7
_symmetry_space_group_name_H-M   'P 1'
_cell_length_a   7.57401826
_cell_length_b   7.57402038
_cell_length_c   7.57401940
_cell_angle_alpha   109.48075652
_cell_angle_beta   109.46645978
_cell_angle_gamma   109.46644856
_symmetry_Int_Tables_number   1
_chemical_formula_structural   Y4SnSb5Rh7
_chemical_formula_sum   'Y4 Sn1 Sb5 Rh7'
_cell_volume   334.47011297
_cell_formula_units_Z   1
loop_
 _symmetry_equiv_pos_site_id
 _symmetry_equiv_pos_as_xyz
  1  'x, y, z'
loop_
 _atom_site_type_symbol
 _atom_site_label
 _atom_site_symmetry_multiplicity
 _atom_site_fract_x
 _atom_site_fract_y
 _atom_site_fract_z
 _atom_site_occupancy
  Y  Y0  1  0.49610932  0.00046349  0.00046349  1
  Y  Y1  1  0.00000000  0.50435418  0.00046349  1
  Y  Y2  1  1.00000000  0.00046349  0.50435418  1
  Y  Y3  1  0.50389068  0.50435418  0.50435418  1
  Sn  Sn0  1  1.00000000  0.31394484  0.31394484  1
  Sb  Sb0  1  0.68196447  0.00252906  0.68449353  1
  Sb  Sb1  1  0.68196447  0.68449353  0.00252906  1
  Sb  Sb2  1  0.00000000  0.67430589  0.67430589  1
  Sb  Sb3  1  0.31803553  0.00252906  0.32056360  1
  Sb  Sb4  1  0.31803553  0.32056360  0.00252906  1
  Rh  Rh0  1  1.00000000  0.99281167  0.99281167  1
  Rh  Rh1  1  0.50000000  0.75187920  0.25187920  1
  Rh  Rh2  1  0.74892793  0.49885590  0.24778483  1
  Rh  Rh3  1  0.25107207  0.74992797  0.49885590  1
  Rh  Rh4  1  0.25107207  0.49885590  0.74992797  1
  Rh  Rh5  1  0.50000000  0.25187920  0.75187920  1
  Rh  Rh6  1  0.74892793  0.24778483  0.49885590  1
loop_
_geom_bond_atom_site_label_1
_geom_bond_atom_site_label_2
_geom_bond_distance
_geom_bond_site_symmetry_2
Sn0 Y3 3.162442 1_655
Sn0 Y0 3.162442 1_555
Sn0 Y1 3.162443 1_655
Sn0 Y2 3.162443 1_555
Sb0 Y2 3.140941 1_555
Sb0 Y3 3.140941 1_545
Sb0 Y0 3.156680 1_556
Sb0 Y1 3.156681 1_656
Sb1 Y1 3.140941 1_655
Sb1 Y3 3.140941 1_554
Sb1 Y2 3.156680 1_565
Sb1 Y0 3.156680 1_565
Sb2 Y3 3.143298 1_455
Sb2 Y0 3.143298 1_566
Sb2 Y1 3.143298 1_556
Sb2 Y2 3.143299 1_465
Sb3 Y0 3.140934 1_555
Sb3 Y1 3.140940 1_545
Sb3 Y3 3.156680 1_555
Sb3 Y2 3.156685 1_455
Sb4 Y0 3.140934 1_555
Sb4 Y2 3.140940 1_454
Sb4 Y3 3.156679 1_555
Sb4 Y1 3.156685 1_555
Rh0 Sb3 2.782907 1_666
Rh0 Sb4 2.782908 1_666
Rh0 Sb0 2.782912 1_565
Rh0 Sb1 2.782913 1_556
Rh0 Sb2 2.785236 1_655
Rh0 Sn0 2.808212 1_566
Rh1 Sb1 2.699524 1_555
Rh1 Sb4 2.699530 1_555
Rh1 Sb3 2.708711 1_565
Rh1 Sb0 2.708712 1_565
Rh1 Y1 3.092359 1_555
Rh1 Y2 3.092359 1_565
Rh1 Y3 3.092360 1_555
Rh1 Y0 3.092360 1_565
Rh2 Sb2 2.678814 1_655
Rh2 Sb4 2.697043 1_555
Rh2 Sb1 2.697050 1_555
Rh2 Sn0 2.727048 1_555
Rh2 Y0 3.082252 1_555
Rh2 Y1 3.082257 1_655
Rh2 Y3 3.102217 1_555
Rh2 Y2 3.102224 1_565
Rh3 Sb2 2.678821 1_555
Rh3 Sb0 2.697043 1_565
Rh3 Sb3 2.697050 1_565
Rh3 Sn0 2.727049 1_455
Rh3 Y1 3.082251 1_555
Rh3 Y3 3.082251 1_555
Rh3 Y0 3.102223 1_566
Rh3 Y2 3.102223 1_465
Rh4 Sb2 2.678820 1_555
Rh4 Sb1 2.697043 1_556
Rh4 Sb4 2.697050 1_556
Rh4 Sn0 2.727049 1_455
Rh4 Y3 3.082251 1_555
Rh4 Y2 3.082252 1_455
Rh4 Y1 3.102223 1_556
Rh4 Y0 3.102224 1_566
Rh5 Sb0 2.699524 1_555
Rh5 Sb3 2.699530 1_555
Rh5 Sb4 2.708711 1_556
Rh5 Sb1 2.708713 1_556
Rh5 Y2 3.092359 1_455
Rh5 Y1 3.092359 1_656
Rh5 Y0 3.092360 1_556
Rh5 Y3 3.092360 1_555
Rh6 Sb2 2.678815 1_655
Rh6 Sb3 2.697043 1_555
Rh6 Sb0 2.697050 1_555
Rh6 Sn0 2.727048 1_555
Rh6 Y0 3.082251 1_555
Rh6 Y2 3.082257 1_555
Rh6 Y3 3.102217 1_555
Rh6 Y1 3.102223 1_656
