# generated using pymatgen
data_BaSeF6
_symmetry_space_group_name_H-M   'P 1'
_cell_length_a   4.94652052
_cell_length_b   4.94652023
_cell_length_c   4.94652016
_cell_angle_alpha   97.79796989
_cell_angle_beta   97.79796605
_cell_angle_gamma   97.79797965
_symmetry_Int_Tables_number   1
_chemical_formula_structural   BaSeF6
_chemical_formula_sum   'Ba1 Se1 F6'
_cell_volume   117.33072740
_cell_formula_units_Z   1
loop_
 _symmetry_equiv_pos_site_id
 _symmetry_equiv_pos_as_xyz
  1  'x, y, z'
loop_
 _atom_site_type_symbol
 _atom_site_label
 _atom_site_symmetry_multiplicity
 _atom_site_fract_x
 _atom_site_fract_y
 _atom_site_fract_z
 _atom_site_occupancy
  Ba  Ba0  1  0.00000000  0.00000000  0.00000000  1
  Se  Se0  1  0.50000000  0.50000000  0.50000000  1
  F  F0  1  0.81580926  0.43047533  0.74588364  1
  F  F1  1  0.74588364  0.81580926  0.43047533  1
  F  F2  1  0.56952467  0.25411636  0.18419074  1
  F  F3  1  0.25411636  0.18419074  0.56952467  1
  F  F4  1  0.18419074  0.56952467  0.25411636  1
  F  F5  1  0.43047533  0.74588364  0.81580926  1
loop_
_geom_bond_atom_site_label_1
_geom_bond_atom_site_label_2
_geom_bond_distance
_geom_bond_site_symmetry_2
Ba0 F3 2.808254 1_554
Ba0 F1 2.808254 1_445
Ba0 F4 2.808254 1_545
Ba0 F0 2.808254 1_454
Ba0 F5 2.808254 1_544
Ba0 F2 2.808254 1_455
Ba0 F4 2.894536 1_555
Ba0 F0 2.894536 1_444
Ba0 F2 2.894536 1_555
Ba0 F5 2.894536 1_444
Ba0 F3 2.894536 1_555
Ba0 F1 2.894536 1_444
F0 Se0 1.944638 1_555
F1 Se0 1.944638 1_555
F2 Se0 1.944638 1_555
F3 Se0 1.944638 1_555
F4 Se0 1.944638 1_555
F5 Se0 1.944638 1_555
