# generated using pymatgen
data_Cs3K5(GeSe4)2
_symmetry_space_group_name_H-M   'P 1'
_cell_length_a   8.07752388
_cell_length_b   10.45674842
_cell_length_c   15.70005783
_cell_angle_alpha   90.00000000
_cell_angle_beta   90.00000000
_cell_angle_gamma   90.00000000
_symmetry_Int_Tables_number   1
_chemical_formula_structural   Cs3K5(GeSe4)2
_chemical_formula_sum   'Cs6 K10 Ge4 Se16'
_cell_volume   1326.09965534
_cell_formula_units_Z   2
loop_
 _symmetry_equiv_pos_site_id
 _symmetry_equiv_pos_as_xyz
  1  'x, y, z'
loop_
 _atom_site_type_symbol
 _atom_site_label
 _atom_site_symmetry_multiplicity
 _atom_site_fract_x
 _atom_site_fract_y
 _atom_site_fract_z
 _atom_site_occupancy
  Cs  Cs0  1  0.00057114  0.99950485  0.99887957  1
  Cs  Cs1  1  0.50057114  0.00049515  0.50112043  1
  Cs  Cs2  1  0.00057114  0.50049515  0.99887957  1
  Cs  Cs3  1  0.50057114  0.49950485  0.50112043  1
  Cs  Cs4  1  0.99882718  0.75000000  0.42024818  1
  Cs  Cs5  1  0.49882718  0.25000000  0.07975182  1
  K  K0  1  0.02890764  0.25000000  0.57878894  1
  K  K1  1  0.52890764  0.75000000  0.92121106  1
  K  K2  1  0.80602061  0.04277067  0.26629702  1
  K  K3  1  0.30602061  0.95722933  0.23370298  1
  K  K4  1  0.19061540  0.54586972  0.73431016  1
  K  K5  1  0.69061540  0.45413028  0.76568984  1
  K  K6  1  0.19061540  0.95413028  0.73431016  1
  K  K7  1  0.69061540  0.04586972  0.76568984  1
  K  K8  1  0.80602061  0.45722933  0.26629702  1
  K  K9  1  0.30602061  0.54277067  0.23370298  1
  Ge  Ge0  1  0.79667098  0.75000000  0.67503555  1
  Ge  Ge1  1  0.20037270  0.25000000  0.32911224  1
  Ge  Ge2  1  0.70037270  0.75000000  0.17088776  1
  Ge  Ge3  1  0.29667098  0.25000000  0.82496445  1
  Se  Se0  1  0.00244293  0.25000000  0.81435880  1
  Se  Se1  1  0.49559147  0.25000000  0.32114548  1
  Se  Se2  1  0.50244293  0.75000000  0.68564120  1
  Se  Se3  1  0.99559147  0.75000000  0.17885452  1
  Se  Se4  1  0.60608506  0.56995481  0.09604810  1
  Se  Se5  1  0.10608506  0.43004519  0.40395190  1
  Se  Se6  1  0.38887003  0.06647904  0.89869276  1
  Se  Se7  1  0.88887003  0.93352096  0.60130724  1
  Se  Se8  1  0.38887003  0.43352096  0.89869276  1
  Se  Se9  1  0.88887003  0.56647904  0.60130724  1
  Se  Se10  1  0.60608506  0.93004519  0.09604810  1
  Se  Se11  1  0.10608506  0.06995481  0.40395190  1
  Se  Se12  1  0.58987277  0.75000000  0.31355039  1
  Se  Se13  1  0.08987277  0.25000000  0.18644961  1
  Se  Se14  1  0.40298585  0.25000000  0.68168534  1
  Se  Se15  1  0.90298585  0.75000000  0.81831466  1
loop_
_geom_bond_atom_site_label_1
_geom_bond_atom_site_label_2
_geom_bond_distance
_geom_bond_site_symmetry_2
Cs0 Se6 3.578015 1_565
Cs0 Se10 3.606723 1_456
Cs0 Se3 3.846123 1_456
Cs0 Se0 3.905615 1_565
Cs0 Se15 3.932532 1_455
Cs0 Se13 4.006695 1_566
Cs1 Se7 3.578015 1_545
Cs1 Se11 3.606723 1_555
Cs1 Se1 3.846123 1_555
Cs1 Se2 3.905615 1_545
Cs1 Se14 3.932532 1_555
Cs1 Se12 4.006695 1_545
Cs2 Se8 3.578015 1_555
Cs2 Se4 3.606723 1_456
Cs2 Se3 3.846123 1_456
Cs2 Se0 3.905615 1_555
Cs2 Se15 3.932532 1_455
Cs2 Se13 4.006695 1_556
Cs3 Se9 3.578015 1_555
Cs3 Se5 3.606723 1_555
Cs3 Se1 3.846123 1_555
Cs3 Se2 3.905615 1_555
Cs3 Se14 3.932532 1_555
Cs3 Se12 4.006695 1_555
Cs4 Se11 3.465500 1_665
Cs4 Se5 3.465500 1_655
Cs4 Se7 3.542900 1_555
Cs4 Se9 3.542900 1_555
Cs4 Se12 3.703811 1_555
Cs4 Se3 3.789985 1_555
Cs5 Se4 3.465500 1_555
Cs5 Se10 3.465500 1_545
Cs5 Se8 3.542900 1_554
Cs5 Se6 3.542900 1_554
Cs5 Se13 3.703811 1_555
Cs5 Se1 3.789985 1_555
K0 Se5 3.386429 1_555
K0 Se11 3.386429 1_555
K0 Se14 3.426368 1_555
K0 Se9 3.515146 1_455
K0 Se7 3.515146 1_445
K0 Se0 3.704633 1_555
K1 Se10 3.386429 1_556
K1 Se4 3.386429 1_556
K1 Se15 3.426368 1_555
K1 Se6 3.515146 1_565
K1 Se8 3.515146 1_555
K1 Se2 3.704633 1_555
K2 Se11 3.259792 1_655
K2 Se10 3.337978 1_545
K2 Se13 3.394734 1_655
K2 Se1 3.424140 1_555
K2 Se12 3.601533 1_545
K2 Se3 3.688067 1_545
K3 Se10 3.259792 1_555
K3 Se11 3.337978 1_565
K3 Se12 3.394734 1_555
K3 Se3 3.424140 1_455
K3 Se13 3.601533 1_565
K3 Se1 3.688067 1_565
K4 Se9 3.216758 1_455
K4 Se8 3.256574 1_555
K4 Se2 3.388870 1_555
K4 Se15 3.419587 1_455
K4 Se14 3.632786 1_555
K4 Se0 3.669003 1_555
K5 Se8 3.216758 1_555
K5 Se9 3.256574 1_555
K5 Se0 3.388870 1_655
K5 Se14 3.419587 1_555
K5 Se15 3.632786 1_555
K5 Se2 3.669003 1_555
K6 Se7 3.216758 1_455
K6 Se6 3.256574 1_565
K6 Se2 3.388870 1_555
K6 Se15 3.419587 1_455
K6 Se14 3.632786 1_565
K6 Se0 3.669003 1_565
K7 Se6 3.216758 1_555
K7 Se7 3.256574 1_545
K7 Se0 3.388870 1_655
K7 Se14 3.419587 1_555
K7 Se15 3.632786 1_545
K7 Se2 3.669003 1_545
K8 Se5 3.259792 1_655
K8 Se4 3.337978 1_555
K8 Se13 3.394734 1_655
K8 Se1 3.424140 1_555
K8 Se12 3.601533 1_555
K8 Se3 3.688067 1_555
K9 Se4 3.259792 1_555
K9 Se5 3.337978 1_555
K9 Se12 3.394734 1_555
K9 Se3 3.424140 1_455
K9 Se13 3.601533 1_555
K9 Se1 3.688067 1_555
Ge0 Se7 2.361614 1_555
Ge0 Se9 2.361614 1_555
Ge0 Se2 2.382460 1_555
Ge0 Se15 2.407837 1_555
Ge0 K5 3.511611 1_555
Ge0 K7 3.511611 1_565
Ge1 Se5 2.346307 1_555
Ge1 Se11 2.346307 1_555
Ge1 Se1 2.387915 1_555
Ge1 Se13 2.411105 1_555
Ge1 K9 3.513459 1_555
Ge1 K3 3.513459 1_545
Ge2 Se10 2.346307 1_555
Ge2 Se4 2.346307 1_555
Ge2 Se3 2.387915 1_555
Ge2 Se12 2.411105 1_555
Ge2 K2 3.513459 1_565
Ge2 K8 3.513459 1_555
Ge3 Se8 2.361614 1_555
Ge3 Se6 2.361614 1_555
Ge3 Se0 2.382460 1_555
Ge3 Se14 2.407837 1_555
Ge3 K6 3.511611 1_545
Ge3 K4 3.511611 1_555
