# generated using pymatgen
data_Bi4O7
_symmetry_space_group_name_H-M   'P 1'
_cell_length_a   6.74566081
_cell_length_b   6.94510587
_cell_length_c   7.82213250
_cell_angle_alpha   72.80383904
_cell_angle_beta   88.99227134
_cell_angle_gamma   77.30089944
_symmetry_Int_Tables_number   1
_chemical_formula_structural   Bi4O7
_chemical_formula_sum   'Bi8 O14'
_cell_volume   341.07437329
_cell_formula_units_Z   2
loop_
 _symmetry_equiv_pos_site_id
 _symmetry_equiv_pos_as_xyz
  1  'x, y, z'
loop_
 _atom_site_type_symbol
 _atom_site_label
 _atom_site_symmetry_multiplicity
 _atom_site_fract_x
 _atom_site_fract_y
 _atom_site_fract_z
 _atom_site_occupancy
  Bi  Bi0  1  -0.00000000  0.00000000  0.50000000  1
  Bi  Bi1  1  0.52308315  0.99337649  0.74258870  1
  Bi  Bi2  1  0.47691685  0.00662351  0.25741130  1
  Bi  Bi3  1  -0.00000000  0.00000000  -0.00000000  1
  Bi  Bi4  1  0.73525113  0.51794316  0.11719793  1
  Bi  Bi5  1  0.26474887  0.48205684  0.88280207  1
  Bi  Bi6  1  0.27146118  0.51076367  0.37937186  1
  Bi  Bi7  1  0.72853882  0.48923633  0.62062814  1
  O  O0  1  0.52823709  0.62644685  0.81251814  1
  O  O1  1  0.47176291  0.37355315  0.18748186  1
  O  O2  1  0.70879146  0.95420416  0.05876179  1
  O  O3  1  0.29120854  0.04579584  0.94123821  1
  O  O4  1  0.71525219  0.92350958  0.47904446  1
  O  O5  1  0.28474781  0.07649042  0.52095554  1
  O  O6  1  0.47261537  0.34192183  0.63481319  1
  O  O7  1  0.52738463  0.65807817  0.36518681  1
  O  O8  1  0.09352251  0.67775578  0.03553151  1
  O  O9  1  0.90647749  0.32224422  0.96446849  1
  O  O10  1  0.89170132  0.32043882  0.37125445  1
  O  O11  1  0.10829868  0.67956118  0.62874555  1
  O  O12  1  0.11329743  0.91019991  0.27329812  1
  O  O13  1  0.88670257  0.08980009  0.72670188  1
loop_
_geom_bond_atom_site_label_1
_geom_bond_atom_site_label_2
_geom_bond_distance
_geom_bond_site_symmetry_2
Bi0 O10 2.118140 1_455
Bi0 O11 2.118140 1_545
Bi0 O4 2.123627 1_445
Bi0 O5 2.123627 1_555
Bi0 O12 2.124696 1_545
Bi0 O13 2.124696 1_455
Bi1 O3 2.234328 1_565
Bi1 O5 2.240941 1_565
Bi1 O6 2.264384 1_565
Bi1 O0 2.435584 1_555
Bi1 O4 2.527146 1_555
Bi1 O13 2.672575 1_565
Bi1 O2 2.705751 1_556
Bi2 O2 2.234328 1_545
Bi2 O4 2.240941 1_545
Bi2 O7 2.264384 1_545
Bi2 O1 2.435584 1_555
Bi2 O5 2.527146 1_555
Bi2 O12 2.672575 1_545
Bi2 O3 2.705751 1_554
Bi3 O3 2.080329 1_554
Bi3 O2 2.080329 1_445
Bi3 O8 2.121696 1_545
Bi3 O9 2.121696 1_454
Bi3 O13 2.145392 1_454
Bi3 O12 2.145392 1_545
Bi4 O10 2.184042 1_555
Bi4 O9 2.197721 1_554
Bi4 O1 2.211405 1_555
Bi4 O0 2.605815 1_554
Bi4 O7 2.663988 1_555
Bi5 O11 2.184042 1_555
Bi5 O8 2.197721 1_556
Bi5 O0 2.211405 1_555
Bi5 O1 2.605815 1_556
Bi5 O6 2.663988 1_555
Bi6 O7 2.177646 1_555
Bi6 O1 2.279261 1_555
Bi6 O6 2.284526 1_555
Bi6 O12 2.625143 1_555
Bi6 O11 2.664588 1_555
Bi6 O8 2.770685 1_555
Bi6 O5 2.870687 1_555
Bi7 O6 2.177646 1_555
Bi7 O0 2.279261 1_555
Bi7 O7 2.284526 1_555
Bi7 O13 2.625143 1_555
Bi7 O10 2.664588 1_555
Bi7 O9 2.770685 1_555
Bi7 O4 2.870687 1_555
