# generated using pymatgen
data_Ba2AgClO2
_symmetry_space_group_name_H-M   'P 1'
_cell_length_a   10.30201082
_cell_length_b   10.30201102
_cell_length_c   10.30201056
_cell_angle_alpha   23.99761481
_cell_angle_beta   23.99761215
_cell_angle_gamma   23.99761582
_symmetry_Int_Tables_number   1
_chemical_formula_structural   Ba2AgClO2
_chemical_formula_sum   'Ba2 Ag1 Cl1 O2'
_cell_volume   158.90634061
_cell_formula_units_Z   1
loop_
 _symmetry_equiv_pos_site_id
 _symmetry_equiv_pos_as_xyz
  1  'x, y, z'
loop_
 _atom_site_type_symbol
 _atom_site_label
 _atom_site_symmetry_multiplicity
 _atom_site_fract_x
 _atom_site_fract_y
 _atom_site_fract_z
 _atom_site_occupancy
  Ba  Ba0  1  0.25811461  0.25811461  0.25811461  1
  Ba  Ba1  1  0.74188539  0.74188539  0.74188539  1
  Ag  Ag0  1  0.50000000  0.50000000  0.50000000  1
  Cl  Cl0  1  0.00000000  0.00000000  0.00000000  1
  O  O0  1  0.43254716  0.43254716  0.43254716  1
  O  O1  1  0.56745284  0.56745284  0.56745284  1
loop_
_geom_bond_atom_site_label_1
_geom_bond_atom_site_label_2
_geom_bond_distance
_geom_bond_site_symmetry_2
Ba0 O1 2.575674 1_554
Ba0 O1 2.575675 1_455
Ba0 O1 2.575675 1_545
Ba0 Cl0 3.347939 1_556
Ba0 Cl0 3.347939 1_655
Ba0 Cl0 3.347939 1_565
Ba1 O0 2.575674 1_556
Ba1 O0 2.575675 1_655
Ba1 O0 2.575675 1_565
Ba1 Cl0 3.347939 1_665
Ba1 Cl0 3.347939 1_566
Ba1 Cl0 3.347939 1_656
Ag0 O1 2.023743 1_555
Ag0 O0 2.023743 1_555
