# generated using pymatgen
data_Ta6Be13(SiIr4)2
_symmetry_space_group_name_H-M   'P 1'
_cell_length_a   7.87962170
_cell_length_b   7.90773270
_cell_length_c   7.90773155
_cell_angle_alpha   59.76495472
_cell_angle_beta   60.11752596
_cell_angle_gamma   60.11751621
_symmetry_Int_Tables_number   1
_chemical_formula_structural   Ta6Be13(SiIr4)2
_chemical_formula_sum   'Ta6 Be13 Si2 Ir8'
_cell_volume   348.40415086
_cell_formula_units_Z   1
loop_
 _symmetry_equiv_pos_site_id
 _symmetry_equiv_pos_as_xyz
  1  'x, y, z'
loop_
 _atom_site_type_symbol
 _atom_site_label
 _atom_site_symmetry_multiplicity
 _atom_site_fract_x
 _atom_site_fract_y
 _atom_site_fract_z
 _atom_site_occupancy
  Ta  Ta0  1  0.19803834  0.19803834  0.80196166  1
  Ta  Ta1  1  0.20158566  0.79841434  0.79841434  1
  Ta  Ta2  1  0.79841434  0.20158566  0.20158566  1
  Ta  Ta3  1  0.19803834  0.80196166  0.19803834  1
  Ta  Ta4  1  0.80196166  0.19803834  0.80196166  1
  Ta  Ta5  1  0.80196166  0.80196166  0.19803834  1
  Be  Be0  1  0.50000000  0.50000000  0.50000000  1
  Be  Be1  1  0.50000000  0.50000000  0.00000000  1
  Be  Be2  1  0.00000000  0.00000000  0.50000000  1
  Be  Be3  1  0.00000000  0.50000000  0.00000000  1
  Be  Be4  1  0.50000000  0.00000000  0.50000000  1
  Be  Be5  1  0.82727897  0.50829016  0.83715389  1
  Be  Be6  1  0.17272103  0.16284611  0.49170984  1
  Be  Be7  1  0.49170984  0.17272103  0.17272103  1
  Be  Be8  1  0.16284611  0.17272103  0.17272103  1
  Be  Be9  1  0.50829016  0.82727897  0.82727897  1
  Be  Be10  1  0.83715389  0.82727897  0.82727897  1
  Be  Be11  1  0.82727897  0.83715389  0.50829016  1
  Be  Be12  1  0.17272103  0.49170984  0.16284611  1
  Si  Si0  1  0.00000000  0.50000000  0.50000000  1
  Si  Si1  1  0.50000000  0.00000000  0.00000000  1
  Ir  Ir0  1  0.62626637  0.12553142  0.62193384  1
  Ir  Ir1  1  0.37373363  0.37806616  0.87446858  1
  Ir  Ir2  1  0.87446858  0.37373363  0.37373363  1
  Ir  Ir3  1  0.37806616  0.37373363  0.37373363  1
  Ir  Ir4  1  0.12553142  0.62626637  0.62626637  1
  Ir  Ir5  1  0.62193384  0.62626637  0.62626637  1
  Ir  Ir6  1  0.62626637  0.62193384  0.12553142  1
  Ir  Ir7  1  0.37373363  0.87446858  0.37806616  1
loop_
_geom_bond_atom_site_label_1
_geom_bond_atom_site_label_2
_geom_bond_distance
_geom_bond_site_symmetry_2
Ta0 Ta3 3.120934 1_546
Ta0 Ta4 3.120934 1_455
Ta0 Ta2 3.160443 1_456
Ta0 Ta1 3.160443 1_545
Ta1 Ta3 3.160443 1_556
Ta1 Ta4 3.160443 1_465
Ta1 Ta5 3.160443 1_456
Ta2 Ta4 3.160443 1_554
Ta2 Ta3 3.160443 1_645
Ta2 Ta5 3.160443 1_545
Ta3 Ta5 3.120934 1_455
Ta4 Ta5 3.120934 1_546
Be0 Ir5 2.415147 1_555
Be0 Ir3 2.415147 1_555
Be0 Ir4 2.415159 1_555
Be0 Ir2 2.415159 1_555
Be0 Ir1 2.415160 1_555
Be0 Ir6 2.415160 1_555
Be0 Ir7 2.415160 1_555
Be0 Ir0 2.415160 1_555
Be1 Be9 2.255512 1_554
Be1 Be7 2.255512 1_555
Be1 Be5 2.255512 1_554
Be1 Be12 2.255512 1_555
Be1 Ir6 2.410185 1_555
Be1 Ir1 2.410185 1_554
Be1 Ir3 2.410198 1_555
Be1 Ir5 2.410198 1_554
Be1 Ta2 2.838358 1_555
Be1 Ta1 2.838358 1_554
Be1 Ta3 2.864835 1_555
Be1 Ta4 2.864835 1_554
Be2 Be6 2.255499 1_555
Be2 Be8 2.255507 1_555
Be2 Ir7 2.410198 1_545
Be2 Ir0 2.410198 1_455
Be2 Ir2 2.410198 1_455
Be2 Ir4 2.410198 1_545
Be2 Ta1 2.838358 1_545
Be2 Ta2 2.838358 1_455
Be2 Ta4 2.864835 1_455
Be2 Ta3 2.864835 1_545
Be3 Be5 2.255498 1_454
Be3 Be8 2.255507 1_555
Be3 Ir2 2.410198 1_455
Be3 Ir4 2.410198 1_554
Be3 Ir1 2.410198 1_554
Be3 Ir6 2.410198 1_455
Be3 Ta1 2.838359 1_554
Be3 Ta2 2.838359 1_455
Be3 Ta5 2.864835 1_455
Be3 Ta0 2.864835 1_554
Be4 Be9 2.255512 1_545
Be4 Be7 2.255512 1_555
Be4 Be6 2.255512 1_555
Be4 Ir0 2.410185 1_555
Be4 Ir7 2.410185 1_545
Be4 Ir3 2.410198 1_555
Be4 Ir5 2.410198 1_545
Be4 Ta2 2.838359 1_555
Be4 Ta1 2.838359 1_545
Be4 Ta0 2.864835 1_555
Be4 Ta5 2.864835 1_545
Be5 Si0 2.331577 1_655
Be5 Ir6 2.358611 1_556
Be5 Ir4 2.426328 1_655
Be5 Ir5 2.426353 1_555
Be5 Ta2 2.663918 1_556
Be5 Ta0 2.714206 1_655
Be5 Ta4 2.714216 1_555
Be6 Si0 2.331577 1_555
Be6 Ir7 2.358611 1_545
Be6 Ir2 2.426327 1_455
Be6 Ir3 2.426354 1_555
Be6 Ta1 2.663918 1_545
Be6 Ta4 2.714206 1_455
Be6 Ta0 2.714215 1_555
Be7 Si1 2.331563 1_555
Be7 Ir3 2.358637 1_555
Be7 Ir1 2.426327 1_554
Be7 Ir7 2.426327 1_545
Be7 Ta2 2.663928 1_555
Be7 Ta5 2.714206 1_545
Be7 Ta4 2.714206 1_554
Be8 Si1 2.331572 1_555
Be8 Ir2 2.358628 1_455
Be8 Ir7 2.426344 1_545
Be8 Ir1 2.426344 1_554
Be8 Ta2 2.663912 1_455
Be8 Ta0 2.714199 1_554
Be8 Ta3 2.714200 1_545
Be9 Si1 2.331563 1_566
Be9 Ir5 2.358637 1_555
Be9 Ir6 2.426327 1_556
Be9 Ir0 2.426327 1_565
Be9 Ta1 2.663928 1_555
Be9 Ta0 2.714206 1_565
Be9 Ta3 2.714206 1_556
Be10 Be3 2.255507 1_656
Be10 Be2 2.255507 1_665
Be10 Si1 2.331572 1_566
Be10 Ir4 2.358628 1_655
Be10 Ir0 2.426344 1_565
Be10 Ir6 2.426344 1_556
Be10 Ta1 2.663912 1_655
Be10 Ta5 2.714199 1_556
Be10 Ta4 2.714200 1_565
Be11 Be2 2.255499 1_665
Be11 Be4 2.255512 1_565
Be11 Si0 2.331577 1_655
Be11 Ir0 2.358611 1_565
Be11 Ir4 2.426327 1_655
Be11 Ir5 2.426354 1_555
Be11 Ta2 2.663918 1_565
Be11 Ta3 2.714206 1_655
Be11 Ta5 2.714215 1_555
Be12 Be3 2.255498 1_555
Be12 Si0 2.331577 1_555
Be12 Ir1 2.358611 1_554
Be12 Ir2 2.426328 1_455
Be12 Ir3 2.426353 1_555
Be12 Ta1 2.663918 1_554
Be12 Ta5 2.714206 1_455
Be12 Ta3 2.714216 1_555
Si0 Ta0 2.845405 1_555
Si0 Ta5 2.845405 1_455
Si0 Ta3 2.845406 1_555
Si0 Ta4 2.845406 1_455
Si1 Ta5 2.845405 1_545
Si1 Ta0 2.845405 1_554
Si1 Ta4 2.845406 1_554
Si1 Ta3 2.845406 1_545
Ir0 Si1 2.438171 1_556
Ir0 Ta2 2.749076 1_555
Ir0 Ta0 2.801570 1_555
Ir0 Ta4 2.801584 1_555
Ir1 Si1 2.438172 1_556
Ir1 Ta1 2.749077 1_555
Ir1 Ta4 2.801570 1_555
Ir1 Ta0 2.801584 1_555
Ir2 Si0 2.438159 1_655
Ir2 Ta2 2.749090 1_555
Ir2 Ta4 2.801570 1_555
Ir2 Ta5 2.801570 1_555
Ir3 Si0 2.438171 1_555
Ir3 Ta2 2.749079 1_555
Ir3 Ta3 2.801572 1_555
Ir3 Ta0 2.801572 1_555
Ir4 Si0 2.438159 1_555
Ir4 Ta1 2.749090 1_555
Ir4 Ta3 2.801570 1_555
Ir4 Ta0 2.801570 1_555
Ir5 Si0 2.438171 1_655
Ir5 Ta1 2.749079 1_555
Ir5 Ta4 2.801572 1_555
Ir5 Ta5 2.801572 1_555
Ir6 Si1 2.438172 1_565
Ir6 Ta2 2.749077 1_555
Ir6 Ta3 2.801570 1_555
Ir6 Ta5 2.801584 1_555
Ir7 Si1 2.438171 1_565
Ir7 Ta1 2.749076 1_555
Ir7 Ta5 2.801570 1_555
Ir7 Ta3 2.801584 1_555
