# generated using pymatgen
data_ZnH9C4NO6
_symmetry_space_group_name_H-M   'P 1'
_cell_length_a   8.17308875
_cell_length_b   8.21205017
_cell_length_c   13.80082588
_cell_angle_alpha   90.00000000
_cell_angle_beta   122.51937934
_cell_angle_gamma   90.00000000
_symmetry_Int_Tables_number   1
_chemical_formula_structural   ZnH9C4NO6
_chemical_formula_sum   'Zn4 H36 C16 N4 O24'
_cell_volume   781.04932420
_cell_formula_units_Z   4
loop_
 _symmetry_equiv_pos_site_id
 _symmetry_equiv_pos_as_xyz
  1  'x, y, z'
loop_
 _atom_site_type_symbol
 _atom_site_label
 _atom_site_symmetry_multiplicity
 _atom_site_fract_x
 _atom_site_fract_y
 _atom_site_fract_z
 _atom_site_occupancy
  Zn  Zn0  1  0.00000000  0.00000000  0.00000000  1
  Zn  Zn1  1  0.00000000  0.50000000  0.50000000  1
  Zn  Zn2  1  0.50000000  0.00000000  0.50000000  1
  Zn  Zn3  1  0.50000000  0.50000000  0.00000000  1
  H  H0  1  0.73784011  0.22307157  0.45905161  1
  H  H1  1  0.26215989  0.77692843  0.54094839  1
  H  H2  1  0.26215989  0.72307157  0.04094839  1
  H  H3  1  0.73784011  0.27692843  0.95905161  1
  H  H4  1  0.32160913  0.29497824  0.53185604  1
  H  H5  1  0.67839084  0.70502179  0.46814396  1
  H  H6  1  0.67839084  0.79497821  0.96814396  1
  H  H7  1  0.32160913  0.20502176  0.03185604  1
  H  H8  1  0.82078580  0.48916240  0.24391826  1
  H  H9  1  0.17921420  0.51083760  0.75608171  1
  H  H10  1  0.17921420  0.98916240  0.25608174  1
  H  H11  1  0.82078580  0.01083760  0.74391829  1
  H  H12  1  0.62352999  0.41749074  0.78246691  1
  H  H13  1  0.37647001  0.58250926  0.21753309  1
  H  H14  1  0.37647001  0.91749074  0.71753309  1
  H  H15  1  0.62352999  0.08250926  0.28246691  1
  H  H16  1  0.68598708  0.35273633  0.68927776  1
  H  H17  1  0.31401292  0.64726364  0.31072224  1
  H  H18  1  0.31401292  0.85273636  0.81072224  1
  H  H19  1  0.68598708  0.14726367  0.18927776  1
  H  H20  1  0.85098849  0.14554247  0.33167944  1
  H  H21  1  0.14901151  0.85445755  0.66832056  1
  H  H22  1  0.14901151  0.64554245  0.16832056  1
  H  H23  1  0.85098849  0.35445755  0.83167944  1
  H  H24  1  0.88971701  0.58553190  0.73251638  1
  H  H25  1  0.11028299  0.41446810  0.26748362  1
  H  H26  1  0.11028299  0.08553190  0.76748362  1
  H  H27  1  0.88971701  0.91446810  0.23251638  1
  H  H28  1  0.65161181  0.64857671  0.68963872  1
  H  H29  1  0.34838819  0.35142329  0.31036128  1
  H  H30  1  0.34838819  0.14857671  0.81036128  1
  H  H31  1  0.65161181  0.85142329  0.18963872  1
  H  H32  1  0.84060456  0.85280497  0.33814816  1
  H  H33  1  0.15939544  0.14719503  0.66185184  1
  H  H34  1  0.15939544  0.35280497  0.16185184  1
  H  H35  1  0.84060456  0.64719503  0.83814816  1
  C  C0  1  0.74696462  0.28408985  0.53260445  1
  C  C1  1  0.25303538  0.71591012  0.46739555  1
  C  C2  1  0.25303538  0.78408988  0.96739555  1
  C  C3  1  0.74696462  0.21591015  0.03260445  1
  C  C4  1  0.19627610  0.21915663  0.47265987  1
  C  C5  1  0.80372390  0.78084339  0.52734016  1
  C  C6  1  0.80372390  0.71915661  0.02734013  1
  C  C7  1  0.19627610  0.28084339  0.97265984  1
  C  C8  1  0.69650279  0.51223380  0.25234749  1
  C  C9  1  0.30349721  0.48776620  0.74765251  1
  C  C10  1  0.30349721  0.01223380  0.24765251  1
  C  C11  1  0.69650279  0.98776620  0.75234749  1
  C  C12  1  0.78229744  0.58669025  0.75583623  1
  C  C13  1  0.21770256  0.41330975  0.24416377  1
  C  C14  1  0.21770256  0.08669025  0.74416377  1
  C  C15  1  0.78229744  0.91330975  0.25583623  1
  N  N0  1  0.73200016  0.41622443  0.76495468  1
  N  N1  1  0.26799984  0.58377554  0.23504532  1
  N  N2  1  0.26799984  0.91622446  0.73504532  1
  N  N3  1  0.73200016  0.08377557  0.26495468  1
  O  O0  1  0.86618322  0.39866331  0.58078882  1
  O  O1  1  0.13381678  0.60133672  0.41921118  1
  O  O2  1  0.13381678  0.89866328  0.91921118  1
  O  O3  1  0.86618322  0.10133669  0.08078882  1
  O  O4  1  0.22338493  0.08708925  0.43725511  1
  O  O5  1  0.77661505  0.91291074  0.56274486  1
  O  O6  1  0.77661505  0.58708926  0.06274489  1
  O  O7  1  0.22338493  0.41291074  0.93725514  1
  O  O8  1  0.63480835  0.23299352  0.56336392  1
  O  O9  1  0.36519165  0.76700651  0.43663608  1
  O  O10  1  0.36519165  0.73299349  0.93663608  1
  O  O11  1  0.63480835  0.26700648  0.06336392  1
  O  O12  1  0.02907702  0.27053653  0.44327205  1
  O  O13  1  0.97092297  0.72946345  0.55672798  1
  O  O14  1  0.97092297  0.77053655  0.05672795  1
  O  O15  1  0.02907702  0.22946347  0.94327202  1
  O  O16  1  0.72323664  0.51703194  0.35098442  1
  O  O17  1  0.27676336  0.48296806  0.64901555  1
  O  O18  1  0.27676336  0.01703194  0.14901558  1
  O  O19  1  0.72323664  0.98296806  0.85098445  1
  O  O20  1  0.53168347  0.96566192  0.66092121  1
  O  O21  1  0.46831653  0.03433809  0.33907879  1
  O  O22  1  0.46831653  0.46566192  0.83907879  1
  O  O23  1  0.53168347  0.53433808  0.16092121  1
loop_
_geom_bond_atom_site_label_1
_geom_bond_atom_site_label_2
_geom_bond_distance
_geom_bond_site_symmetry_2
H12 N0 1.036741 1_555
H13 N1 1.036741 1_555
H14 N2 1.036741 1_555
H15 N3 1.036741 1_555
H16 N0 1.040067 1_555
H17 N1 1.040067 1_555
H18 N2 1.040067 1_555
H19 N3 1.040067 1_555
H20 N3 1.043154 1_555
H21 N2 1.043154 1_555
H22 N1 1.043154 1_555
H23 N0 1.043154 1_555
C0 H0 1.098027 1_555
C0 O0 1.257073 1_555
C0 O8 1.270797 1_555
C1 H1 1.098028 1_555
C1 O1 1.257073 1_555
C1 O9 1.270797 1_555
C2 H2 1.098028 1_556
C2 O2 1.257073 1_555
C2 O10 1.270797 1_555
C3 H3 1.098027 1_554
C3 O3 1.257073 1_555
C3 O11 1.270797 1_555
C4 H4 1.097570 1_555
C4 O4 1.257166 1_555
C4 O12 1.270448 1_555
C5 H5 1.097570 1_555
C5 O5 1.257166 1_555
C5 O13 1.270448 1_555
C6 H6 1.097570 1_554
C6 O6 1.257166 1_555
C6 O14 1.270448 1_555
C7 H7 1.097570 1_556
C7 O7 1.257166 1_555
C7 O15 1.270448 1_555
C8 H8 1.099217 1_555
C8 O16 1.257998 1_555
C8 O23 1.269708 1_555
C9 H9 1.099217 1_555
C9 O17 1.257999 1_555
C9 O22 1.269708 1_555
C10 H10 1.099217 1_545
C10 O18 1.257998 1_555
C10 O21 1.269708 1_555
C11 H11 1.099217 1_565
C11 O19 1.257999 1_555
C11 O20 1.269708 1_555
C12 H24 1.085475 1_555
C12 H35 1.087369 1_555
C12 H28 1.088398 1_555
C12 N0 1.483271 1_555
C13 H25 1.085475 1_555
C13 H34 1.087369 1_555
C13 H29 1.088398 1_555
C13 N1 1.483271 1_555
C14 H26 1.085475 1_555
C14 H33 1.087369 1_555
C14 H30 1.088398 1_555
C14 N2 1.483271 1_545
C15 H27 1.085475 1_555
C15 H32 1.087369 1_555
C15 H31 1.088398 1_555
C15 N3 1.483271 1_565
O0 Zn1 2.107819 1_655
O1 Zn1 2.107819 1_555
O2 Zn0 2.107819 1_566
O3 Zn0 2.107819 1_655
O4 Zn2 2.065836 1_555
O5 Zn2 2.065836 1_565
O6 Zn3 2.065836 1_555
O7 Zn3 2.065836 1_556
O8 Zn2 2.145617 1_555
O9 Zn2 2.145617 1_565
O10 Zn3 2.145617 1_556
O11 Zn3 2.145617 1_555
O12 Zn1 2.102444 1_555
O13 Zn1 2.102444 1_655
O14 Zn0 2.102444 1_665
O15 Zn0 2.102444 1_556
O16 Zn1 2.089022 1_655
O17 Zn1 2.089022 1_555
O18 Zn0 2.089022 1_555
O19 Zn0 2.089022 1_666
O20 Zn2 2.111967 1_565
O21 Zn2 2.111967 1_555
O22 Zn3 2.111967 1_556
O23 Zn3 2.111967 1_555
