# generated using pymatgen
data_Rb2Mg(PSe3)2
_symmetry_space_group_name_H-M   'P 1'
_cell_length_a   12.83850970
_cell_length_b   6.51132844
_cell_length_c   9.49643537
_cell_angle_alpha   55.57004936
_cell_angle_beta   90.00000000
_cell_angle_gamma   90.00000000
_symmetry_Int_Tables_number   1
_chemical_formula_structural   Rb2Mg(PSe3)2
_chemical_formula_sum   'Rb4 Mg2 P4 Se12'
_cell_volume   654.79143865
_cell_formula_units_Z   2
loop_
 _symmetry_equiv_pos_site_id
 _symmetry_equiv_pos_as_xyz
  1  'x, y, z'
loop_
 _atom_site_type_symbol
 _atom_site_label
 _atom_site_symmetry_multiplicity
 _atom_site_fract_x
 _atom_site_fract_y
 _atom_site_fract_z
 _atom_site_occupancy
  Rb  Rb0  1  0.67500388  0.21188490  0.52255467  1
  Rb  Rb1  1  0.17500388  0.78811510  0.97744533  1
  Rb  Rb2  1  0.32499612  0.78811510  0.47744533  1
  Rb  Rb3  1  0.82499612  0.21188490  0.02255467  1
  Mg  Mg0  1  0.00000000  0.50000000  0.50000000  1
  Mg  Mg1  1  0.50000000  0.50000000  0.00000000  1
  P  P0  1  0.03890426  0.15039835  0.37787430  1
  P  P1  1  0.53890426  0.84960165  0.12212570  1
  P  P2  1  0.96109574  0.84960165  0.62212570  1
  P  P3  1  0.46109574  0.15039835  0.87787430  1
  Se  Se0  1  0.17182582  0.27114840  0.45665790  1
  Se  Se1  1  0.67182582  0.72885160  0.04334210  1
  Se  Se2  1  0.82817418  0.72885160  0.54334210  1
  Se  Se3  1  0.32817418  0.27114840  0.95665790  1
  Se  Se4  1  0.92593094  0.45306761  0.24744530  1
  Se  Se5  1  0.42593094  0.54693239  0.25255470  1
  Se  Se6  1  0.07406906  0.54693239  0.75255470  1
  Se  Se7  1  0.57406906  0.45306761  0.74744530  1
  Se  Se8  1  0.07519878  0.96604893  0.25149006  1
  Se  Se9  1  0.57519878  0.03395107  0.24850994  1
  Se  Se10  1  0.92480122  0.03395107  0.74850994  1
  Se  Se11  1  0.42480122  0.96604893  0.75149006  1
loop_
_geom_bond_atom_site_label_1
_geom_bond_atom_site_label_2
_geom_bond_distance
_geom_bond_site_symmetry_2
Rb0 Se7 3.535400 1_555
Rb0 Se2 3.618857 1_545
Rb0 Se9 3.628559 1_555
Rb0 Se10 3.663391 1_555
Rb0 Se11 3.697572 1_545
Rb0 Se1 3.836685 1_555
Rb0 Se4 3.876917 1_555
Rb0 Se5 3.903047 1_555
Rb0 Se2 3.998539 1_555
Rb0 Se1 4.094341 1_546
Rb1 Se6 3.535400 1_555
Rb1 Se3 3.618857 1_565
Rb1 Se8 3.628559 1_556
Rb1 Se11 3.663391 1_555
Rb1 Se10 3.697572 1_465
Rb1 Se0 3.836685 1_556
Rb1 Se5 3.876917 1_556
Rb1 Se4 3.903047 1_456
Rb1 Se3 3.998539 1_555
Rb1 Se0 4.094341 1_565
Rb2 Se5 3.535400 1_555
Rb2 Se0 3.618857 1_565
Rb2 Se11 3.628559 1_555
Rb2 Se8 3.663391 1_555
Rb2 Se9 3.697572 1_565
Rb2 Se3 3.836685 1_555
Rb2 Se6 3.876917 1_555
Rb2 Se7 3.903047 1_555
Rb2 Se0 3.998539 1_555
Rb2 Se3 4.094341 1_564
Rb3 Se4 3.535400 1_555
Rb3 Se1 3.618857 1_545
Rb3 Se10 3.628559 1_554
Rb3 Se9 3.663391 1_555
Rb3 Se8 3.697572 1_645
Rb3 Se2 3.836685 1_554
Rb3 Se7 3.876917 1_554
Rb3 Se6 3.903047 1_654
Rb3 Se1 3.998539 1_555
Rb3 Se2 4.094341 1_545
Mg0 Se6 2.752931 1_555
Mg0 Se4 2.752931 1_455
Mg0 Se8 2.758992 1_555
Mg0 Se10 2.758992 1_455
Mg0 Se0 2.819543 1_555
Mg0 Se2 2.819543 1_455
Mg1 Se5 2.752931 1_555
Mg1 Se7 2.752931 1_554
Mg1 Se9 2.758992 1_555
Mg1 Se11 2.758992 1_554
Mg1 Se1 2.819543 1_555
Mg1 Se3 2.819543 1_554
P0 Se8 2.174299 1_545
P0 Se0 2.180664 1_555
P0 Se4 2.182088 1_455
P1 Se9 2.174299 1_565
P1 Se1 2.180664 1_555
P1 Se5 2.182088 1_555
P2 Se10 2.174299 1_565
P2 Se2 2.180664 1_555
P2 Se6 2.182088 1_655
P3 Se11 2.174299 1_545
P3 Se3 2.180664 1_555
P3 Se7 2.182088 1_555
