# generated using pymatgen
data_CsBa4Sb2As
_symmetry_space_group_name_H-M   'P 1'
_cell_length_a   8.97802324
_cell_length_b   10.45782372
_cell_length_c   14.99687430
_cell_angle_alpha   90.00000000
_cell_angle_beta   90.00000000
_cell_angle_gamma   90.00000000
_symmetry_Int_Tables_number   1
_chemical_formula_structural   CsBa4Sb2As
_chemical_formula_sum   'Cs4 Ba16 Sb8 As4'
_cell_volume   1408.06529258
_cell_formula_units_Z   4
loop_
 _symmetry_equiv_pos_site_id
 _symmetry_equiv_pos_as_xyz
  1  'x, y, z'
loop_
 _atom_site_type_symbol
 _atom_site_label
 _atom_site_symmetry_multiplicity
 _atom_site_fract_x
 _atom_site_fract_y
 _atom_site_fract_z
 _atom_site_occupancy
  Cs  Cs0  1  0.00442036  0.75000000  0.49983505  1
  Cs  Cs1  1  0.99557964  0.25000000  0.50016495  1
  Cs  Cs2  1  0.50442036  0.25000000  0.00016495  1
  Cs  Cs3  1  0.49557964  0.75000000  0.99983505  1
  Ba  Ba0  1  0.82044316  0.75000000  0.80509982  1
  Ba  Ba1  1  0.17955684  0.25000000  0.19490018  1
  Ba  Ba2  1  0.32044316  0.25000000  0.69490018  1
  Ba  Ba3  1  0.67955684  0.75000000  0.30509982  1
  Ba  Ba4  1  0.67458250  0.50119431  0.58938387  1
  Ba  Ba5  1  0.32541750  0.49880569  0.41061613  1
  Ba  Ba6  1  0.17458250  0.49880569  0.91061613  1
  Ba  Ba7  1  0.32541750  0.00119431  0.41061613  1
  Ba  Ba8  1  0.82541750  0.50119431  0.08938387  1
  Ba  Ba9  1  0.67458250  0.99880569  0.58938387  1
  Ba  Ba10  1  0.82541750  0.99880569  0.08938387  1
  Ba  Ba11  1  0.17458250  0.00119431  0.91061613  1
  Ba  Ba12  1  0.31958002  0.75000000  0.69570408  1
  Ba  Ba13  1  0.68041998  0.25000000  0.30429592  1
  Ba  Ba14  1  0.81958002  0.25000000  0.80429592  1
  Ba  Ba15  1  0.18041998  0.75000000  0.19570408  1
  Sb  Sb0  1  0.53603496  0.50015064  0.80961057  1
  Sb  Sb1  1  0.46396504  0.49984936  0.19038943  1
  Sb  Sb2  1  0.03603496  0.49984936  0.69038943  1
  Sb  Sb3  1  0.46396504  0.00015064  0.19038943  1
  Sb  Sb4  1  0.96396504  0.50015064  0.30961057  1
  Sb  Sb5  1  0.53603496  0.99984936  0.80961057  1
  Sb  Sb6  1  0.96396504  0.99984936  0.30961057  1
  Sb  Sb7  1  0.03603496  0.00015064  0.69038943  1
  As  As0  1  0.00221608  0.75000000  0.99981765  1
  As  As1  1  0.99778392  0.25000000  0.00018235  1
  As  As2  1  0.50221608  0.25000000  0.50018235  1
  As  As3  1  0.49778392  0.75000000  0.49981765  1
loop_
_geom_bond_atom_site_label_1
_geom_bond_atom_site_label_2
_geom_bond_distance
_geom_bond_site_symmetry_2
Cs0 Sb7 3.884681 1_565
Cs0 Sb2 3.884681 1_555
Cs0 Sb6 3.885534 1_455
Cs0 Sb4 3.885534 1_455
Cs1 Sb4 3.884681 1_555
Cs1 Sb6 3.884681 1_545
Cs1 Sb2 3.885534 1_655
Cs1 Sb7 3.885534 1_655
Cs2 Sb0 3.884681 1_554
Cs2 Sb5 3.884681 1_544
Cs2 Sb1 3.885534 1_555
Cs2 Sb3 3.885534 1_555
Cs3 Sb3 3.884681 1_566
Cs3 Sb1 3.884681 1_556
Cs3 Sb5 3.885534 1_555
Cs3 Sb0 3.885534 1_555
Ba0 Sb5 3.653997 1_555
Ba0 Sb0 3.653997 1_555
Ba0 Sb7 3.680971 1_665
Ba0 Sb2 3.680971 1_655
Ba1 Sb1 3.653997 1_555
Ba1 Sb3 3.653997 1_555
Ba1 Sb4 3.680971 1_455
Ba1 Sb6 3.680971 1_445
Ba2 Sb2 3.653997 1_555
Ba2 Sb7 3.653997 1_555
Ba2 Sb0 3.680971 1_555
Ba2 Sb5 3.680971 1_545
Ba3 Sb6 3.653997 1_555
Ba3 Sb4 3.653997 1_555
Ba3 Sb3 3.680971 1_565
Ba3 Sb1 3.680971 1_555
Ba4 Sb0 3.529203 1_555
Ba4 Sb2 3.581282 1_655
Ba5 Sb1 3.529203 1_555
Ba5 Sb4 3.581282 1_455
Ba6 Sb2 3.529203 1_555
Ba6 Sb0 3.581282 1_555
Ba7 Sb3 3.529203 1_555
Ba7 Sb6 3.581282 1_445
Ba8 Sb4 3.529203 1_555
Ba8 Sb1 3.581282 1_555
Ba9 Sb5 3.529203 1_555
Ba9 Sb7 3.581282 1_665
Ba10 Sb6 3.529203 1_555
Ba10 Sb3 3.581282 1_565
Ba11 Sb7 3.529203 1_555
Ba11 Sb5 3.581282 1_545
Ba12 Sb7 3.651086 1_565
Ba12 Sb2 3.651086 1_555
Ba12 Sb5 3.677199 1_555
Ba12 Sb0 3.677199 1_555
Ba13 Sb4 3.651086 1_555
Ba13 Sb6 3.651086 1_545
Ba13 Sb1 3.677199 1_555
Ba13 Sb3 3.677199 1_555
Ba14 Sb0 3.651086 1_555
Ba14 Sb5 3.651086 1_545
Ba14 Sb2 3.677199 1_655
Ba14 Sb7 3.677199 1_655
Ba15 Sb3 3.651086 1_565
Ba15 Sb1 3.651086 1_555
Ba15 Sb6 3.677199 1_455
Ba15 Sb4 3.677199 1_455
As0 Ba11 3.329443 1_565
As0 Ba6 3.329443 1_555
As0 Ba10 3.330762 1_456
As0 Ba8 3.330762 1_456
As0 Ba15 3.345105 1_556
As0 Ba0 3.345239 1_455
As1 Ba8 3.329443 1_555
As1 Ba10 3.329443 1_545
As1 Ba6 3.330762 1_654
As1 Ba11 3.330762 1_654
As1 Ba14 3.345105 1_554
As1 Ba1 3.345239 1_655
As2 Ba4 3.329443 1_555
As2 Ba9 3.329443 1_545
As2 Ba5 3.330762 1_555
As2 Ba7 3.330762 1_555
As2 Ba13 3.345105 1_555
As2 Ba2 3.345239 1_555
As3 Ba7 3.329443 1_565
As3 Ba5 3.329443 1_555
As3 Ba9 3.330762 1_555
As3 Ba4 3.330762 1_555
As3 Ba12 3.345105 1_555
As3 Ba3 3.345239 1_555
