# generated using pymatgen
data_K3Ga(SO4)3
_symmetry_space_group_name_H-M   'P 1'
_cell_length_a   8.90461059
_cell_length_b   8.90461083
_cell_length_c   8.90461053
_cell_angle_alpha   109.13950844
_cell_angle_beta   109.13950740
_cell_angle_gamma   109.13952125
_symmetry_Int_Tables_number   1
_chemical_formula_structural   K3Ga(SO4)3
_chemical_formula_sum   'K6 Ga2 S6 O24'
_cell_volume   550.10315337
_cell_formula_units_Z   2
loop_
 _symmetry_equiv_pos_site_id
 _symmetry_equiv_pos_as_xyz
  1  'x, y, z'
loop_
 _atom_site_type_symbol
 _atom_site_label
 _atom_site_symmetry_multiplicity
 _atom_site_fract_x
 _atom_site_fract_y
 _atom_site_fract_z
 _atom_site_occupancy
  K  K0  1  0.63936344  0.16802830  0.78470370  1
  K  K1  1  0.78470370  0.63936344  0.16802830  1
  K  K2  1  0.16802830  0.78470370  0.63936344  1
  K  K3  1  0.36063656  0.83197170  0.21529630  1
  K  K4  1  0.21529630  0.36063656  0.83197170  1
  K  K5  1  0.83197170  0.21529630  0.36063656  1
  Ga  Ga0  1  0.00000000  0.00000000  0.00000000  1
  Ga  Ga1  1  0.50000000  0.50000000  0.50000000  1
  S  S0  1  0.89659205  0.57644504  0.76731928  1
  S  S1  1  0.76731928  0.89659205  0.57644504  1
  S  S2  1  0.57644504  0.76731928  0.89659205  1
  S  S3  1  0.10340795  0.42355496  0.23268072  1
  S  S4  1  0.23268072  0.10340795  0.42355496  1
  S  S5  1  0.42355496  0.23268072  0.10340795  1
  O  O0  1  0.74193774  0.51892560  0.59003687  1
  O  O1  1  0.59003687  0.74193774  0.51892560  1
  O  O2  1  0.51892560  0.59003687  0.74193774  1
  O  O3  1  0.25806226  0.48107440  0.40996313  1
  O  O4  1  0.40996313  0.25806226  0.48107440  1
  O  O5  1  0.48107440  0.40996313  0.25806226  1
  O  O6  1  0.83398586  0.51606498  0.87824241  1
  O  O7  1  0.87824241  0.83398586  0.51606498  1
  O  O8  1  0.51606498  0.87824241  0.83398586  1
  O  O9  1  0.16601414  0.48393502  0.12175759  1
  O  O10  1  0.12175759  0.16601414  0.48393502  1
  O  O11  1  0.48393502  0.12175759  0.16601414  1
  O  O12  1  0.01273334  0.50733299  0.72253039  1
  O  O13  1  0.72253039  0.01273334  0.50733299  1
  O  O14  1  0.50733299  0.72253039  0.01273334  1
  O  O15  1  0.98726666  0.49266701  0.27746961  1
  O  O16  1  0.27746961  0.98726666  0.49266701  1
  O  O17  1  0.49266701  0.27746961  0.98726666  1
  O  O18  1  0.00796029  0.78085735  0.86410532  1
  O  O19  1  0.86410532  0.00796029  0.78085735  1
  O  O20  1  0.78085735  0.86410532  0.00796029  1
  O  O21  1  0.99203971  0.21914265  0.13589468  1
  O  O22  1  0.13589468  0.99203971  0.21914265  1
  O  O23  1  0.21914265  0.13589468  0.99203971  1
loop_
_geom_bond_atom_site_label_1
_geom_bond_atom_site_label_2
_geom_bond_distance
_geom_bond_site_symmetry_2
K0 O17 2.671460 1_555
K0 O6 2.672197 1_555
K0 O8 2.693947 1_545
K0 O19 2.814451 1_555
K0 O16 2.845476 1_545
K0 O13 2.862221 1_555
K1 O15 2.671460 1_555
K1 O7 2.672198 1_555
K1 O6 2.693947 1_554
K1 O20 2.814451 1_555
K1 O17 2.845476 1_554
K1 O14 2.862221 1_555
K2 O16 2.671460 1_555
K2 O8 2.672197 1_555
K2 O7 2.693947 1_455
K2 O18 2.814451 1_555
K2 O15 2.845476 1_455
K2 O12 2.862220 1_555
K3 O14 2.671460 1_555
K3 O9 2.672197 1_555
K3 O11 2.693947 1_565
K3 O22 2.814451 1_555
K3 O13 2.845476 1_565
K3 O16 2.862221 1_555
K4 O12 2.671460 1_555
K4 O10 2.672198 1_555
K4 O9 2.693947 1_556
K4 O23 2.814451 1_555
K4 O14 2.845476 1_556
K4 O17 2.862221 1_555
K5 O13 2.671460 1_555
K5 O11 2.672197 1_555
K5 O10 2.693947 1_655
K5 O21 2.814451 1_555
K5 O12 2.845476 1_655
K5 O15 2.862220 1_555
Ga0 O23 1.968692 1_554
Ga0 O20 1.968692 1_445
Ga0 O22 1.968692 1_545
Ga0 O19 1.968692 1_454
Ga0 O21 1.968692 1_455
Ga0 O18 1.968692 1_544
Ga1 O1 1.962949 1_555
Ga1 O4 1.962949 1_555
Ga1 O0 1.962949 1_555
Ga1 O3 1.962949 1_555
Ga1 O2 1.962949 1_555
Ga1 O5 1.962949 1_555
O0 S0 1.494195 1_555
O1 S1 1.494195 1_555
O2 S2 1.494195 1_555
O3 S3 1.494195 1_555
O4 S4 1.494195 1_555
O5 S5 1.494195 1_555
O6 S0 1.445074 1_555
O7 S1 1.445074 1_555
O8 S2 1.445074 1_555
O9 S3 1.445074 1_555
O10 S4 1.445074 1_555
O11 S5 1.445074 1_555
O12 S0 1.460900 1_455
O13 S1 1.460900 1_545
O14 S2 1.460900 1_554
O15 S3 1.460900 1_655
O16 S4 1.460900 1_565
O17 S5 1.460900 1_556
O18 S0 1.505523 1_455
O19 S1 1.505523 1_545
O20 S2 1.505523 1_554
O21 S3 1.505523 1_655
O22 S4 1.505523 1_565
O23 S5 1.505523 1_556
