# generated using pymatgen
data_Hf6Al16Ir4Pt3
_symmetry_space_group_name_H-M   'P 1'
_cell_length_a   8.66318823
_cell_length_b   8.67805830
_cell_length_c   8.66318833
_cell_angle_alpha   59.94320853
_cell_angle_beta   60.11359259
_cell_angle_gamma   59.94321295
_symmetry_Int_Tables_number   1
_chemical_formula_structural   Hf6Al16Ir4Pt3
_chemical_formula_sum   'Hf6 Al16 Ir4 Pt3'
_cell_volume   460.53278748
_cell_formula_units_Z   1
loop_
 _symmetry_equiv_pos_site_id
 _symmetry_equiv_pos_as_xyz
  1  'x, y, z'
loop_
 _atom_site_type_symbol
 _atom_site_label
 _atom_site_symmetry_multiplicity
 _atom_site_fract_x
 _atom_site_fract_y
 _atom_site_fract_z
 _atom_site_occupancy
  Hf  Hf0  1  0.68705567  0.31294433  0.31294433  1
  Hf  Hf1  1  0.31294433  0.68705567  0.68705567  1
  Hf  Hf2  1  0.32586513  0.67413487  0.32586513  1
  Hf  Hf3  1  0.67413487  0.32586513  0.67413487  1
  Hf  Hf4  1  0.31294433  0.31294433  0.68705567  1
  Hf  Hf5  1  0.68705567  0.68705567  0.31294433  1
  Al  Al0  1  0.33688138  0.33862585  0.33688138  1
  Al  Al1  1  0.66311862  0.66137415  0.66311862  1
  Al  Al2  1  0.33862585  0.33688138  0.98761138  1
  Al  Al3  1  0.33688138  0.98761138  0.33688138  1
  Al  Al4  1  0.66137415  0.66311862  0.01238862  1
  Al  Al5  1  0.66311862  0.01238862  0.66311862  1
  Al  Al6  1  0.98761138  0.33688138  0.33862585  1
  Al  Al7  1  0.01238862  0.66311862  0.66137415  1
  Al  Al8  1  0.12339014  0.11532616  0.12339014  1
  Al  Al9  1  0.87660986  0.88467384  0.87660986  1
  Al  Al10  1  0.11532616  0.12339014  0.63789455  1
  Al  Al11  1  0.12339014  0.63789455  0.12339014  1
  Al  Al12  1  0.88467384  0.87660986  0.36210545  1
  Al  Al13  1  0.87660986  0.36210545  0.87660986  1
  Al  Al14  1  0.63789455  0.12339014  0.11532616  1
  Al  Al15  1  0.36210545  0.87660986  0.88467384  1
  Ir  Ir0  1  0.50000000  0.00000000  0.00000000  1
  Ir  Ir1  1  0.00000000  0.50000000  0.50000000  1
  Ir  Ir2  1  0.00000000  0.00000000  0.50000000  1
  Ir  Ir3  1  0.50000000  0.50000000  0.00000000  1
  Pt  Pt0  1  0.00000000  0.50000000  0.00000000  1
  Pt  Pt1  1  0.50000000  0.00000000  0.50000000  1
  Pt  Pt2  1  0.00000000  0.00000000  0.00000000  1
loop_
_geom_bond_atom_site_label_1
_geom_bond_atom_site_label_2
_geom_bond_distance
_geom_bond_site_symmetry_2
Hf0 Hf3 3.131447 1_555
Hf0 Hf2 3.131448 1_555
Hf0 Ir3 3.153707 1_555
Hf0 Ir2 3.153707 1_655
Hf0 Pt0 3.163911 1_655
Hf0 Pt1 3.163911 1_555
Hf0 Hf4 3.246560 1_555
Hf0 Hf5 3.246560 1_555
Hf1 Hf2 3.131447 1_555
Hf1 Hf3 3.131448 1_555
Hf1 Ir3 3.153707 1_556
Hf1 Ir2 3.153707 1_565
Hf1 Pt0 3.163911 1_556
Hf1 Pt1 3.163911 1_565
Hf1 Hf5 3.246560 1_555
Hf1 Hf4 3.246560 1_555
Hf2 Hf5 3.131447 1_555
Hf2 Hf4 3.131448 1_555
Hf2 Ir1 3.205391 1_555
Hf2 Ir0 3.205391 1_565
Hf2 Ir3 3.205391 1_555
Hf2 Ir2 3.205391 1_565
Hf3 Hf4 3.131447 1_555
Hf3 Hf5 3.131448 1_555
Hf3 Ir1 3.205391 1_655
Hf3 Ir0 3.205391 1_556
Hf3 Ir3 3.205391 1_556
Hf3 Ir2 3.205391 1_655
Hf4 Ir1 3.153707 1_555
Hf4 Ir0 3.153707 1_556
Hf4 Pt0 3.163911 1_556
Hf4 Pt1 3.163911 1_555
Hf5 Ir1 3.153707 1_655
Hf5 Ir0 3.153707 1_565
Hf5 Pt0 3.163911 1_655
Hf5 Pt1 3.163911 1_565
Al0 Ir3 2.500765 1_555
Al0 Ir1 2.500765 1_555
Al0 Pt1 2.509951 1_555
Al0 Al11 2.715145 1_555
Al0 Al10 2.774363 1_555
Al0 Al14 2.774363 1_555
Al0 Hf2 2.819189 1_555
Al0 Hf0 2.835080 1_555
Al0 Hf4 2.835080 1_555
Al0 Al6 3.025881 1_455
Al0 Al2 3.025881 1_554
Al0 Al3 3.046124 1_545
Al1 Ir3 2.500765 1_556
Al1 Ir1 2.500765 1_655
Al1 Pt1 2.509951 1_565
Al1 Al13 2.715145 1_555
Al1 Al12 2.774363 1_555
Al1 Al15 2.774363 1_555
Al1 Hf3 2.819189 1_555
Al1 Hf1 2.835080 1_555
Al1 Hf5 2.835080 1_555
Al1 Al7 3.025881 1_655
Al1 Al4 3.025881 1_556
Al1 Al5 3.046124 1_565
Al2 Ir3 2.500765 1_556
Al2 Ir0 2.500765 1_556
Al2 Pt0 2.509951 1_556
Al2 Al8 2.774361 1_556
Al2 Hf3 2.819189 1_555
Al2 Hf4 2.835079 1_555
Al2 Hf1 2.835080 1_555
Al2 Al3 3.025882 1_546
Al2 Al6 3.046124 1_456
Al3 Ir2 2.500765 1_565
Al3 Ir0 2.500765 1_565
Al3 Pt1 2.509951 1_565
Al3 Al8 2.715142 1_565
Al3 Hf2 2.819189 1_555
Al3 Hf1 2.835080 1_555
Al3 Hf5 2.835080 1_555
Al3 Al6 3.025882 1_465
Al4 Ir3 2.500765 1_555
Al4 Ir0 2.500765 1_565
Al4 Pt0 2.509951 1_655
Al4 Al9 2.774361 1_554
Al4 Hf2 2.819189 1_555
Al4 Hf5 2.835079 1_555
Al4 Hf0 2.835080 1_555
Al4 Al5 3.025882 1_564
Al4 Al7 3.046124 1_654
Al5 Ir2 2.500765 1_655
Al5 Ir0 2.500765 1_556
Al5 Pt1 2.509951 1_555
Al5 Al9 2.715142 1_545
Al5 Hf3 2.819189 1_555
Al5 Hf0 2.835080 1_555
Al5 Hf4 2.835080 1_555
Al5 Al7 3.025882 1_645
Al6 Ir1 2.500765 1_655
Al6 Ir2 2.500765 1_655
Al6 Pt0 2.509951 1_655
Al6 Al8 2.774361 1_655
Al6 Hf3 2.819189 1_555
Al6 Hf0 2.835079 1_555
Al6 Hf5 2.835080 1_555
Al7 Ir1 2.500765 1_555
Al7 Ir2 2.500765 1_565
Al7 Pt0 2.509951 1_556
Al7 Al9 2.774361 1_455
Al7 Hf2 2.819189 1_555
Al7 Hf1 2.835079 1_555
Al7 Hf4 2.835080 1_555
Al8 Pt2 2.562999 1_555
Al8 Ir2 2.667256 1_555
Al8 Ir0 2.667256 1_555
Al8 Pt0 2.723734 1_555
Al8 Hf4 3.172963 1_554
Al8 Hf0 3.172963 1_455
Al8 Hf2 3.228614 1_545
Al9 Pt2 2.562999 1_666
Al9 Ir2 2.667256 1_665
Al9 Ir0 2.667256 1_566
Al9 Pt0 2.723734 1_656
Al9 Hf5 3.172963 1_556
Al9 Hf1 3.172963 1_655
Al9 Hf3 3.228614 1_565
Al10 Pt2 2.562992 1_556
Al10 Ir1 2.667256 1_555
Al10 Ir2 2.667263 1_555
Al10 Al6 2.715149 1_455
Al10 Pt1 2.723734 1_555
Al10 Al3 2.774368 1_545
Al10 Al13 2.929664 1_455
Al10 Al9 2.929676 1_445
Al10 Al15 3.018242 1_545
Al10 Hf4 3.172957 1_555
Al10 Hf1 3.172965 1_545
Al10 Hf3 3.228616 1_455
Al11 Pt2 2.562993 1_565
Al11 Ir1 2.667256 1_555
Al11 Ir3 2.667256 1_555
Al11 Pt0 2.723741 1_555
Al11 Al6 2.774368 1_455
Al11 Al2 2.774368 1_554
Al11 Al15 2.929664 1_554
Al11 Al12 2.929664 1_455
Al11 Al9 3.018255 1_454
Al11 Hf1 3.172965 1_554
Al11 Hf5 3.172965 1_455
Al11 Hf2 3.228608 1_555
Al12 Pt2 2.562992 1_665
Al12 Ir1 2.667256 1_655
Al12 Ir2 2.667263 1_665
Al12 Al7 2.715149 1_655
Al12 Pt1 2.723734 1_565
Al12 Al5 2.774368 1_565
Al12 Al8 2.929676 1_665
Al12 Al14 3.018242 1_565
Al12 Hf5 3.172957 1_555
Al12 Hf0 3.172965 1_565
Al12 Hf2 3.228616 1_655
Al13 Pt2 2.562993 1_656
Al13 Ir1 2.667256 1_655
Al13 Ir3 2.667256 1_556
Al13 Pt0 2.723741 1_656
Al13 Al7 2.774368 1_655
Al13 Al4 2.774368 1_556
Al13 Al14 2.929664 1_556
Al13 Al8 3.018255 1_656
Al13 Hf0 3.172965 1_556
Al13 Hf4 3.172965 1_655
Al13 Hf3 3.228608 1_555
Al14 Pt2 2.562993 1_655
Al14 Ir3 2.667256 1_555
Al14 Ir0 2.667263 1_555
Al14 Al2 2.715149 1_554
Al14 Pt1 2.723734 1_555
Al14 Al3 2.774368 1_545
Al14 Al9 2.929676 1_544
Al14 Hf0 3.172957 1_555
Al14 Hf5 3.172965 1_545
Al14 Hf3 3.228615 1_554
Al15 Pt2 2.562993 1_566
Al15 Ir3 2.667256 1_556
Al15 Ir0 2.667263 1_566
Al15 Al4 2.715149 1_556
Al15 Pt1 2.723734 1_565
Al15 Al5 2.774368 1_565
Al15 Al8 2.929676 1_566
Al15 Hf1 3.172957 1_555
Al15 Hf4 3.172965 1_565
Al15 Hf2 3.228615 1_556
