# generated using pymatgen
data_Ti5(CoPt2)2
_symmetry_space_group_name_H-M   'P 1'
_cell_length_a   5.72387341
_cell_length_b   13.71208089
_cell_length_c   32.23580653
_cell_angle_alpha   90.00000000
_cell_angle_beta   90.00000000
_cell_angle_gamma   90.00000000
_symmetry_Int_Tables_number   1
_chemical_formula_structural   Ti5(CoPt2)2
_chemical_formula_sum   'Ti80 Co32 Pt64'
_cell_volume   2530.06644659
_cell_formula_units_Z   16
loop_
 _symmetry_equiv_pos_site_id
 _symmetry_equiv_pos_as_xyz
  1  'x, y, z'
loop_
 _atom_site_type_symbol
 _atom_site_label
 _atom_site_symmetry_multiplicity
 _atom_site_fract_x
 _atom_site_fract_y
 _atom_site_fract_z
 _atom_site_occupancy
  Ti  Ti0_0  1  0.25000000  0.25000000  0.25000000  1
  Ti  Ti0_1  1  0.25000000  0.25000000  0.75000000  1
  Ti  Ti0_2  1  0.25000000  0.75000000  0.25000000  1
  Ti  Ti0_3  1  0.25000000  0.75000000  0.75000000  1
  Ti  Ti0_4  1  0.75000000  0.25000000  0.25000000  1
  Ti  Ti0_5  1  0.75000000  0.25000000  0.75000000  1
  Ti  Ti0_6  1  0.75000000  0.75000000  0.25000000  1
  Ti  Ti0_7  1  0.75000000  0.75000000  0.75000000  1
  Ti  Ti1_0  1  0.25000000  0.00000000  0.00000000  1
  Ti  Ti1_1  1  0.25000000  0.00000000  0.50000000  1
  Ti  Ti1_2  1  0.25000000  0.50000000  0.00000000  1
  Ti  Ti1_3  1  0.25000000  0.50000000  0.50000000  1
  Ti  Ti1_4  1  0.75000000  0.00000000  0.00000000  1
  Ti  Ti1_5  1  0.75000000  0.00000000  0.50000000  1
  Ti  Ti1_6  1  0.75000000  0.50000000  0.00000000  1
  Ti  Ti1_7  1  0.75000000  0.50000000  0.50000000  1
  Ti  Ti2_0  1  0.25000000  0.42339301  0.20990285  1
  Ti  Ti2_1  1  0.25000000  0.42339301  0.70990285  1
  Ti  Ti2_2  1  0.25000000  0.92339301  0.20990285  1
  Ti  Ti2_3  1  0.25000000  0.92339301  0.70990285  1
  Ti  Ti2_4  1  0.75000000  0.42339301  0.20990285  1
  Ti  Ti2_5  1  0.75000000  0.42339301  0.70990285  1
  Ti  Ti2_6  1  0.75000000  0.92339301  0.20990285  1
  Ti  Ti2_7  1  0.75000000  0.92339301  0.70990285  1
  Ti  Ti3_0  1  0.25000000  0.07660699  0.29009715  1
  Ti  Ti3_1  1  0.25000000  0.07660699  0.79009715  1
  Ti  Ti3_2  1  0.25000000  0.57660699  0.29009715  1
  Ti  Ti3_3  1  0.25000000  0.57660699  0.79009715  1
  Ti  Ti3_4  1  0.75000000  0.07660699  0.29009715  1
  Ti  Ti3_5  1  0.75000000  0.07660699  0.79009715  1
  Ti  Ti3_6  1  0.75000000  0.57660699  0.29009715  1
  Ti  Ti3_7  1  0.75000000  0.57660699  0.79009715  1
  Ti  Ti4_0  1  0.25000000  0.32660699  0.45990285  1
  Ti  Ti4_1  1  0.25000000  0.32660699  0.95990285  1
  Ti  Ti4_2  1  0.25000000  0.82660699  0.45990285  1
  Ti  Ti4_3  1  0.25000000  0.82660699  0.95990285  1
  Ti  Ti4_4  1  0.75000000  0.32660699  0.45990285  1
  Ti  Ti4_5  1  0.75000000  0.32660699  0.95990285  1
  Ti  Ti4_6  1  0.75000000  0.82660699  0.45990285  1
  Ti  Ti4_7  1  0.75000000  0.82660699  0.95990285  1
  Ti  Ti5_0  1  0.25000000  0.17339301  0.04009715  1
  Ti  Ti5_1  1  0.25000000  0.17339301  0.54009715  1
  Ti  Ti5_2  1  0.25000000  0.67339301  0.04009715  1
  Ti  Ti5_3  1  0.25000000  0.67339301  0.54009715  1
  Ti  Ti5_4  1  0.75000000  0.17339301  0.04009715  1
  Ti  Ti5_5  1  0.75000000  0.17339301  0.54009715  1
  Ti  Ti5_6  1  0.75000000  0.67339301  0.04009715  1
  Ti  Ti5_7  1  0.75000000  0.67339301  0.54009715  1
  Ti  Ti6_0  1  0.25000000  0.11015394  0.14104730  1
  Ti  Ti6_1  1  0.25000000  0.11015394  0.64104730  1
  Ti  Ti6_2  1  0.25000000  0.61015394  0.14104730  1
  Ti  Ti6_3  1  0.25000000  0.61015394  0.64104730  1
  Ti  Ti6_4  1  0.75000000  0.11015394  0.14104730  1
  Ti  Ti6_5  1  0.75000000  0.11015394  0.64104730  1
  Ti  Ti6_6  1  0.75000000  0.61015394  0.14104730  1
  Ti  Ti6_7  1  0.75000000  0.61015394  0.64104730  1
  Ti  Ti7_0  1  0.25000000  0.38984606  0.35895270  1
  Ti  Ti7_1  1  0.25000000  0.38984606  0.85895270  1
  Ti  Ti7_2  1  0.25000000  0.88984606  0.35895270  1
  Ti  Ti7_3  1  0.25000000  0.88984606  0.85895270  1
  Ti  Ti7_4  1  0.75000000  0.38984606  0.35895270  1
  Ti  Ti7_5  1  0.75000000  0.38984606  0.85895270  1
  Ti  Ti7_6  1  0.75000000  0.88984606  0.35895270  1
  Ti  Ti7_7  1  0.75000000  0.88984606  0.85895270  1
  Ti  Ti8_0  1  0.25000000  0.13984606  0.39104730  1
  Ti  Ti8_1  1  0.25000000  0.13984606  0.89104730  1
  Ti  Ti8_2  1  0.25000000  0.63984606  0.39104730  1
  Ti  Ti8_3  1  0.25000000  0.63984606  0.89104730  1
  Ti  Ti8_4  1  0.75000000  0.13984606  0.39104730  1
  Ti  Ti8_5  1  0.75000000  0.13984606  0.89104730  1
  Ti  Ti8_6  1  0.75000000  0.63984606  0.39104730  1
  Ti  Ti8_7  1  0.75000000  0.63984606  0.89104730  1
  Ti  Ti9_0  1  0.25000000  0.36015394  0.10895270  1
  Ti  Ti9_1  1  0.25000000  0.36015394  0.60895270  1
  Ti  Ti9_2  1  0.25000000  0.86015394  0.10895270  1
  Ti  Ti9_3  1  0.25000000  0.86015394  0.60895270  1
  Ti  Ti9_4  1  0.75000000  0.36015394  0.10895270  1
  Ti  Ti9_5  1  0.75000000  0.36015394  0.60895270  1
  Ti  Ti9_6  1  0.75000000  0.86015394  0.10895270  1
  Ti  Ti9_7  1  0.75000000  0.86015394  0.60895270  1
  Co  Co0_0  1  0.00000000  0.46383379  0.15350019  1
  Co  Co0_1  1  0.00000000  0.46383379  0.65350019  1
  Co  Co0_2  1  0.00000000  0.96383379  0.15350019  1
  Co  Co0_3  1  0.00000000  0.96383379  0.65350019  1
  Co  Co0_4  1  0.50000000  0.46383379  0.15350019  1
  Co  Co0_5  1  0.50000000  0.46383379  0.65350019  1
  Co  Co0_6  1  0.50000000  0.96383379  0.15350019  1
  Co  Co0_7  1  0.50000000  0.96383379  0.65350019  1
  Co  Co1_0  1  0.00000000  0.03616621  0.34649981  1
  Co  Co1_1  1  0.00000000  0.03616621  0.84649981  1
  Co  Co1_2  1  0.00000000  0.53616621  0.34649981  1
  Co  Co1_3  1  0.00000000  0.53616621  0.84649981  1
  Co  Co1_4  1  0.50000000  0.03616621  0.34649981  1
  Co  Co1_5  1  0.50000000  0.03616621  0.84649981  1
  Co  Co1_6  1  0.50000000  0.53616621  0.34649981  1
  Co  Co1_7  1  0.50000000  0.53616621  0.84649981  1
  Co  Co2_0  1  0.00000000  0.28616621  0.40350019  1
  Co  Co2_1  1  0.00000000  0.28616621  0.90350019  1
  Co  Co2_2  1  0.00000000  0.78616621  0.40350019  1
  Co  Co2_3  1  0.00000000  0.78616621  0.90350019  1
  Co  Co2_4  1  0.50000000  0.28616621  0.40350019  1
  Co  Co2_5  1  0.50000000  0.28616621  0.90350019  1
  Co  Co2_6  1  0.50000000  0.78616621  0.40350019  1
  Co  Co2_7  1  0.50000000  0.78616621  0.90350019  1
  Co  Co3_0  1  0.00000000  0.21383379  0.09649981  1
  Co  Co3_1  1  0.00000000  0.21383379  0.59649981  1
  Co  Co3_2  1  0.00000000  0.71383379  0.09649981  1
  Co  Co3_3  1  0.00000000  0.71383379  0.59649981  1
  Co  Co3_4  1  0.50000000  0.21383379  0.09649981  1
  Co  Co3_5  1  0.50000000  0.21383379  0.59649981  1
  Co  Co3_6  1  0.50000000  0.71383379  0.09649981  1
  Co  Co3_7  1  0.50000000  0.71383379  0.59649981  1
  Pt  Pt0_0  1  0.00000000  0.09152205  0.21699779  1
  Pt  Pt0_1  1  0.00000000  0.09152205  0.71699779  1
  Pt  Pt0_2  1  0.00000000  0.59152205  0.21699779  1
  Pt  Pt0_3  1  0.00000000  0.59152205  0.71699779  1
  Pt  Pt0_4  1  0.50000000  0.09152205  0.21699779  1
  Pt  Pt0_5  1  0.50000000  0.09152205  0.71699779  1
  Pt  Pt0_6  1  0.50000000  0.59152205  0.21699779  1
  Pt  Pt0_7  1  0.50000000  0.59152205  0.71699779  1
  Pt  Pt1_0  1  0.00000000  0.40847795  0.28300221  1
  Pt  Pt1_1  1  0.00000000  0.40847795  0.78300221  1
  Pt  Pt1_2  1  0.00000000  0.90847795  0.28300221  1
  Pt  Pt1_3  1  0.00000000  0.90847795  0.78300221  1
  Pt  Pt1_4  1  0.50000000  0.40847795  0.28300221  1
  Pt  Pt1_5  1  0.50000000  0.40847795  0.78300221  1
  Pt  Pt1_6  1  0.50000000  0.90847795  0.28300221  1
  Pt  Pt1_7  1  0.50000000  0.90847795  0.78300221  1
  Pt  Pt2_0  1  0.00000000  0.15847795  0.46699779  1
  Pt  Pt2_1  1  0.00000000  0.15847795  0.96699779  1
  Pt  Pt2_2  1  0.00000000  0.65847795  0.46699779  1
  Pt  Pt2_3  1  0.00000000  0.65847795  0.96699779  1
  Pt  Pt2_4  1  0.50000000  0.15847795  0.46699779  1
  Pt  Pt2_5  1  0.50000000  0.15847795  0.96699779  1
  Pt  Pt2_6  1  0.50000000  0.65847795  0.46699779  1
  Pt  Pt2_7  1  0.50000000  0.65847795  0.96699779  1
  Pt  Pt3_0  1  0.00000000  0.34152205  0.03300221  1
  Pt  Pt3_1  1  0.00000000  0.34152205  0.53300221  1
  Pt  Pt3_2  1  0.00000000  0.84152205  0.03300221  1
  Pt  Pt3_3  1  0.00000000  0.84152205  0.53300221  1
  Pt  Pt3_4  1  0.50000000  0.34152205  0.03300221  1
  Pt  Pt3_5  1  0.50000000  0.34152205  0.53300221  1
  Pt  Pt3_6  1  0.50000000  0.84152205  0.03300221  1
  Pt  Pt3_7  1  0.50000000  0.84152205  0.53300221  1
  Pt  Pt4_0  1  0.00000000  0.27257808  0.17497773  1
  Pt  Pt4_1  1  0.00000000  0.27257808  0.67497773  1
  Pt  Pt4_2  1  0.00000000  0.77257808  0.17497773  1
  Pt  Pt4_3  1  0.00000000  0.77257808  0.67497773  1
  Pt  Pt4_4  1  0.50000000  0.27257808  0.17497773  1
  Pt  Pt4_5  1  0.50000000  0.27257808  0.67497773  1
  Pt  Pt4_6  1  0.50000000  0.77257808  0.17497773  1
  Pt  Pt4_7  1  0.50000000  0.77257808  0.67497773  1
  Pt  Pt5_0  1  0.00000000  0.22742192  0.32502227  1
  Pt  Pt5_1  1  0.00000000  0.22742192  0.82502227  1
  Pt  Pt5_2  1  0.00000000  0.72742192  0.32502227  1
  Pt  Pt5_3  1  0.00000000  0.72742192  0.82502227  1
  Pt  Pt5_4  1  0.50000000  0.22742192  0.32502227  1
  Pt  Pt5_5  1  0.50000000  0.22742192  0.82502227  1
  Pt  Pt5_6  1  0.50000000  0.72742192  0.32502227  1
  Pt  Pt5_7  1  0.50000000  0.72742192  0.82502227  1
  Pt  Pt6_0  1  0.00000000  0.47742192  0.42497773  1
  Pt  Pt6_1  1  0.00000000  0.47742192  0.92497773  1
  Pt  Pt6_2  1  0.00000000  0.97742192  0.42497773  1
  Pt  Pt6_3  1  0.00000000  0.97742192  0.92497773  1
  Pt  Pt6_4  1  0.50000000  0.47742192  0.42497773  1
  Pt  Pt6_5  1  0.50000000  0.47742192  0.92497773  1
  Pt  Pt6_6  1  0.50000000  0.97742192  0.42497773  1
  Pt  Pt6_7  1  0.50000000  0.97742192  0.92497773  1
  Pt  Pt7_0  1  0.00000000  0.02257808  0.07502227  1
  Pt  Pt7_1  1  0.00000000  0.02257808  0.57502227  1
  Pt  Pt7_2  1  0.00000000  0.52257808  0.07502227  1
  Pt  Pt7_3  1  0.00000000  0.52257808  0.57502227  1
  Pt  Pt7_4  1  0.50000000  0.02257808  0.07502227  1
  Pt  Pt7_5  1  0.50000000  0.02257808  0.57502227  1
  Pt  Pt7_6  1  0.50000000  0.52257808  0.07502227  1
  Pt  Pt7_7  1  0.50000000  0.52257808  0.57502227  1
loop_
_geom_bond_atom_site_label_1
_geom_bond_atom_site_label_2
_geom_bond_distance
_geom_bond_site_symmetry_2
Ti0_0 Ti3_0 2.706216 1_555
Ti0_0 Ti2_0 2.706216 1_555
Ti0_0 Ti0_4 2.861937 1_555
Ti0_0 Ti0_4 2.861937 1_455
Ti0_1 Ti3_1 2.706216 1_555
Ti0_1 Ti2_1 2.706216 1_555
Ti0_1 Ti0_5 2.861937 1_555
Ti0_1 Ti0_5 2.861937 1_455
Ti0_2 Ti3_2 2.706216 1_555
Ti0_2 Ti2_2 2.706216 1_555
Ti0_2 Ti0_6 2.861937 1_555
Ti0_2 Ti0_6 2.861937 1_455
Ti0_3 Ti3_3 2.706216 1_555
Ti0_3 Ti2_3 2.706216 1_555
Ti0_3 Ti0_7 2.861937 1_555
Ti0_3 Ti0_7 2.861937 1_455
Ti0_4 Ti3_4 2.706216 1_555
Ti0_4 Ti2_4 2.706216 1_555
Ti0_5 Ti3_5 2.706216 1_555
Ti0_5 Ti2_5 2.706216 1_555
Ti0_6 Ti3_6 2.706216 1_555
Ti0_6 Ti2_6 2.706216 1_555
Ti0_7 Ti2_7 2.706216 1_555
Ti0_7 Ti3_7 2.706216 1_555
Ti1_0 Ti5_0 2.706216 1_555
Ti1_0 Ti4_3 2.706216 1_544
Ti1_0 Ti1_4 2.861937 1_555
Ti1_0 Ti1_4 2.861937 1_455
Ti1_1 Ti5_1 2.706216 1_555
Ti1_1 Ti4_2 2.706216 1_545
Ti1_1 Ti1_5 2.861937 1_555
Ti1_1 Ti1_5 2.861937 1_455
Ti1_2 Ti5_2 2.706216 1_555
Ti1_2 Ti4_1 2.706216 1_554
Ti1_2 Ti1_6 2.861937 1_555
Ti1_2 Ti1_6 2.861937 1_455
Ti1_3 Ti5_3 2.706216 1_555
Ti1_3 Ti4_0 2.706216 1_555
Ti1_3 Ti1_7 2.861937 1_555
Ti1_3 Ti1_7 2.861937 1_455
Ti1_4 Ti5_4 2.706216 1_555
Ti1_4 Ti4_7 2.706216 1_544
Ti1_5 Ti5_5 2.706216 1_555
Ti1_5 Ti4_6 2.706216 1_545
Ti1_6 Ti5_6 2.706216 1_555
Ti1_6 Ti4_5 2.706216 1_554
Ti1_7 Ti5_7 2.706216 1_555
Ti1_7 Ti4_4 2.706216 1_555
Ti2_0 Ti2_4 2.861937 1_555
Ti2_0 Ti2_4 2.861937 1_455
Ti2_1 Ti2_5 2.861937 1_555
Ti2_1 Ti2_5 2.861937 1_455
Ti2_2 Ti2_6 2.861937 1_555
Ti2_2 Ti2_6 2.861937 1_455
Ti2_3 Ti2_7 2.861937 1_555
Ti2_3 Ti2_7 2.861937 1_455
Ti3_0 Ti3_4 2.861937 1_555
Ti3_0 Ti3_4 2.861937 1_455
Ti3_1 Ti3_5 2.861937 1_555
Ti3_1 Ti3_5 2.861937 1_455
Ti3_2 Ti3_6 2.861937 1_555
Ti3_2 Ti3_6 2.861937 1_455
Ti3_3 Ti3_7 2.861937 1_555
Ti3_3 Ti3_7 2.861937 1_455
Ti4_0 Ti4_4 2.861937 1_555
Ti4_0 Ti4_4 2.861937 1_455
Ti4_1 Ti4_5 2.861937 1_555
Ti4_1 Ti4_5 2.861937 1_455
Ti4_2 Ti4_6 2.861937 1_555
Ti4_2 Ti4_6 2.861937 1_455
Ti4_3 Ti4_7 2.861937 1_555
Ti4_3 Ti4_7 2.861937 1_455
Ti5_0 Ti5_4 2.861937 1_555
Ti5_0 Ti5_4 2.861937 1_455
Ti5_1 Ti5_5 2.861937 1_555
Ti5_1 Ti5_5 2.861937 1_455
Ti5_2 Ti5_6 2.861937 1_555
Ti5_2 Ti5_6 2.861937 1_455
Ti5_3 Ti5_7 2.861937 1_555
Ti5_3 Ti5_7 2.861937 1_455
Ti6_0 Ti6_4 2.861937 1_555
Ti6_0 Ti6_4 2.861937 1_455
Ti6_1 Ti6_5 2.861937 1_555
Ti6_1 Ti6_5 2.861937 1_455
Ti6_2 Ti6_6 2.861937 1_555
Ti6_2 Ti6_6 2.861937 1_455
Ti6_3 Ti6_7 2.861937 1_555
Ti6_3 Ti6_7 2.861937 1_455
Ti7_0 Ti7_4 2.861937 1_555
Ti7_0 Ti7_4 2.861937 1_455
Ti7_1 Ti7_5 2.861937 1_555
Ti7_1 Ti7_5 2.861937 1_455
Ti7_2 Ti7_6 2.861937 1_555
Ti7_2 Ti7_6 2.861937 1_455
Ti7_3 Ti7_7 2.861937 1_555
Ti7_3 Ti7_7 2.861937 1_455
Ti8_0 Ti8_4 2.861937 1_555
Ti8_0 Ti8_4 2.861937 1_455
Ti8_1 Ti8_5 2.861937 1_555
Ti8_1 Ti8_5 2.861937 1_455
Ti8_2 Ti8_6 2.861937 1_555
Ti8_2 Ti8_6 2.861937 1_455
Ti8_3 Ti8_7 2.861937 1_555
Ti8_3 Ti8_7 2.861937 1_455
Ti9_0 Ti9_4 2.861937 1_555
Ti9_0 Ti9_4 2.861937 1_455
Ti9_1 Ti9_5 2.861937 1_555
Ti9_1 Ti9_5 2.861937 1_455
Ti9_2 Ti9_6 2.861937 1_555
Ti9_2 Ti9_6 2.861937 1_455
Ti9_3 Ti9_7 2.861937 1_555
Ti9_3 Ti9_7 2.861937 1_455
Co0_0 Ti2_0 2.379279 1_555
Co0_0 Ti2_4 2.379279 1_455
Co0_0 Ti9_0 2.476080 1_555
Co0_0 Ti9_4 2.476080 1_455
Co0_0 Ti6_2 2.496852 1_555
Co0_0 Ti6_6 2.496852 1_455
Co0_0 Pt7_2 2.654943 1_555
Co0_0 Pt0_2 2.693573 1_555
Co0_0 Pt4_0 2.712364 1_555
Co0_0 Co0_4 2.861937 1_555
Co0_0 Co0_4 2.861937 1_455
Co0_1 Ti2_1 2.379279 1_555
Co0_1 Ti2_5 2.379279 1_455
Co0_1 Ti9_1 2.476080 1_555
Co0_1 Ti9_5 2.476080 1_455
Co0_1 Ti6_3 2.496852 1_555
Co0_1 Ti6_7 2.496852 1_455
Co0_1 Pt7_3 2.654943 1_555
Co0_1 Pt0_3 2.693573 1_555
Co0_1 Pt4_1 2.712364 1_555
Co0_1 Co0_5 2.861937 1_455
Co0_1 Co0_5 2.861937 1_555
Co0_2 Ti2_2 2.379279 1_555
Co0_2 Ti2_6 2.379279 1_455
Co0_2 Ti9_2 2.476080 1_555
Co0_2 Ti9_6 2.476080 1_455
Co0_2 Ti6_0 2.496852 1_565
Co0_2 Ti6_4 2.496852 1_465
Co0_2 Pt7_0 2.654943 1_565
Co0_2 Pt0_0 2.693573 1_565
Co0_2 Pt4_2 2.712364 1_555
Co0_2 Co0_6 2.861937 1_455
Co0_2 Co0_6 2.861937 1_555
Co0_3 Ti2_3 2.379279 1_555
Co0_3 Ti2_7 2.379279 1_455
Co0_3 Ti9_3 2.476080 1_555
Co0_3 Ti9_7 2.476080 1_455
Co0_3 Ti6_1 2.496852 1_565
Co0_3 Ti6_5 2.496852 1_465
Co0_3 Pt7_1 2.654943 1_565
Co0_3 Pt0_1 2.693573 1_565
Co0_3 Pt4_3 2.712364 1_555
Co0_3 Co0_7 2.861937 1_555
Co0_3 Co0_7 2.861937 1_455
Co0_4 Ti2_4 2.379279 1_555
Co0_4 Ti2_0 2.379279 1_555
Co0_4 Ti9_4 2.476080 1_555
Co0_4 Ti9_0 2.476080 1_555
Co0_4 Ti6_6 2.496852 1_555
Co0_4 Ti6_2 2.496852 1_555
Co0_4 Pt7_6 2.654943 1_555
Co0_4 Pt0_6 2.693573 1_555
Co0_4 Pt4_4 2.712364 1_555
Co0_5 Ti2_5 2.379279 1_555
Co0_5 Ti2_1 2.379279 1_555
Co0_5 Ti9_5 2.476080 1_555
Co0_5 Ti9_1 2.476080 1_555
Co0_5 Ti6_7 2.496852 1_555
Co0_5 Ti6_3 2.496852 1_555
Co0_5 Pt7_7 2.654943 1_555
Co0_5 Pt0_7 2.693573 1_555
Co0_5 Pt4_5 2.712364 1_555
Co0_6 Ti2_6 2.379279 1_555
Co0_6 Ti2_2 2.379279 1_555
Co0_6 Ti9_6 2.476080 1_555
Co0_6 Ti9_2 2.476080 1_555
Co0_6 Ti6_4 2.496852 1_565
Co0_6 Ti6_0 2.496852 1_565
Co0_6 Pt7_4 2.654943 1_565
Co0_6 Pt0_4 2.693573 1_565
Co0_6 Pt4_6 2.712364 1_555
Co0_7 Ti2_7 2.379279 1_555
Co0_7 Ti2_3 2.379279 1_555
Co0_7 Ti9_7 2.476080 1_555
Co0_7 Ti9_3 2.476080 1_555
Co0_7 Ti6_5 2.496852 1_565
Co0_7 Ti6_1 2.496852 1_565
Co0_7 Pt7_5 2.654943 1_565
Co0_7 Pt0_5 2.693573 1_565
Co0_7 Pt4_7 2.712364 1_555
Co1_0 Ti3_0 2.379279 1_555
Co1_0 Ti3_4 2.379279 1_455
Co1_0 Ti8_0 2.476080 1_555
Co1_0 Ti8_4 2.476080 1_455
Co1_0 Ti7_2 2.496852 1_545
Co1_0 Ti7_6 2.496852 1_445
Co1_0 Pt6_2 2.654943 1_545
Co1_0 Pt1_2 2.693573 1_545
Co1_0 Pt5_0 2.712364 1_555
Co1_0 Co1_4 2.861937 1_455
Co1_0 Co1_4 2.861937 1_555
Co1_1 Ti3_1 2.379279 1_555
Co1_1 Ti3_5 2.379279 1_455
Co1_1 Ti8_1 2.476080 1_555
Co1_1 Ti8_5 2.476080 1_455
Co1_1 Ti7_3 2.496852 1_545
Co1_1 Ti7_7 2.496852 1_445
Co1_1 Pt6_3 2.654943 1_545
Co1_1 Pt1_3 2.693573 1_545
Co1_1 Pt5_1 2.712364 1_555
Co1_1 Co1_5 2.861937 1_555
Co1_1 Co1_5 2.861937 1_455
Co1_2 Ti3_6 2.379279 1_455
Co1_2 Ti3_2 2.379279 1_555
Co1_2 Ti8_6 2.476080 1_455
Co1_2 Ti8_2 2.476080 1_555
Co1_2 Ti7_0 2.496852 1_555
Co1_2 Ti7_4 2.496852 1_455
Co1_2 Pt6_0 2.654943 1_555
Co1_2 Pt1_0 2.693573 1_555
Co1_2 Pt5_2 2.712364 1_555
Co1_2 Co1_6 2.861937 1_455
Co1_2 Co1_6 2.861937 1_555
Co1_3 Ti3_3 2.379279 1_555
Co1_3 Ti3_7 2.379279 1_455
Co1_3 Ti8_3 2.476080 1_555
Co1_3 Ti8_7 2.476080 1_455
Co1_3 Ti7_1 2.496852 1_555
Co1_3 Ti7_5 2.496852 1_455
Co1_3 Pt6_1 2.654943 1_555
Co1_3 Pt1_1 2.693573 1_555
Co1_3 Pt5_3 2.712364 1_555
Co1_3 Co1_7 2.861937 1_555
Co1_3 Co1_7 2.861937 1_455
Co1_4 Ti3_4 2.379279 1_555
Co1_4 Ti3_0 2.379279 1_555
Co1_4 Ti8_0 2.476080 1_555
Co1_4 Ti8_4 2.476080 1_555
Co1_4 Ti7_6 2.496852 1_545
Co1_4 Ti7_2 2.496852 1_545
Co1_4 Pt6_6 2.654943 1_545
Co1_4 Pt1_6 2.693573 1_545
Co1_4 Pt5_4 2.712364 1_555
Co1_5 Ti3_5 2.379279 1_555
Co1_5 Ti3_1 2.379279 1_555
Co1_5 Ti8_5 2.476080 1_555
Co1_5 Ti8_1 2.476080 1_555
Co1_5 Ti7_3 2.496852 1_545
Co1_5 Ti7_7 2.496852 1_545
Co1_5 Pt6_7 2.654943 1_545
Co1_5 Pt1_7 2.693573 1_545
Co1_5 Pt5_5 2.712364 1_555
Co1_6 Ti3_6 2.379279 1_555
Co1_6 Ti3_2 2.379279 1_555
Co1_6 Ti8_6 2.476080 1_555
Co1_6 Ti8_2 2.476080 1_555
Co1_6 Ti7_4 2.496852 1_555
Co1_6 Ti7_0 2.496852 1_555
Co1_6 Pt6_4 2.654943 1_555
Co1_6 Pt1_4 2.693573 1_555
Co1_6 Pt5_6 2.712364 1_555
Co1_7 Ti3_7 2.379279 1_555
Co1_7 Ti3_3 2.379279 1_555
Co1_7 Ti8_7 2.476080 1_555
Co1_7 Ti8_3 2.476080 1_555
Co1_7 Ti7_1 2.496852 1_555
Co1_7 Ti7_5 2.496852 1_555
Co1_7 Pt6_5 2.654943 1_555
Co1_7 Pt1_5 2.693573 1_555
Co1_7 Pt5_7 2.712364 1_555
Co2_0 Ti4_0 2.379279 1_555
Co2_0 Ti4_4 2.379279 1_455
Co2_0 Ti7_0 2.476080 1_555
Co2_0 Ti7_4 2.476080 1_455
Co2_0 Ti8_0 2.496852 1_555
Co2_0 Ti8_4 2.496852 1_455
Co2_0 Pt5_0 2.654943 1_555
Co2_0 Pt2_0 2.693573 1_555
Co2_0 Pt6_0 2.712364 1_555
Co2_0 Co2_4 2.861937 1_455
Co2_0 Co2_4 2.861937 1_555
Co2_1 Ti4_1 2.379279 1_555
Co2_1 Ti4_5 2.379279 1_455
Co2_1 Ti7_1 2.476080 1_555
Co2_1 Ti7_5 2.476080 1_455
Co2_1 Ti8_1 2.496852 1_555
Co2_1 Ti8_5 2.496852 1_455
Co2_1 Pt5_1 2.654943 1_555
Co2_1 Pt2_1 2.693573 1_555
Co2_1 Pt6_1 2.712364 1_555
Co2_1 Co2_5 2.861937 1_455
Co2_1 Co2_5 2.861937 1_555
Co2_2 Ti4_2 2.379279 1_555
Co2_2 Ti4_6 2.379279 1_455
Co2_2 Ti7_2 2.476080 1_555
Co2_2 Ti7_6 2.476080 1_455
Co2_2 Ti8_2 2.496852 1_555
Co2_2 Ti8_6 2.496852 1_455
Co2_2 Pt5_2 2.654943 1_555
Co2_2 Pt2_2 2.693573 1_555
Co2_2 Pt6_2 2.712364 1_555
Co2_2 Co2_6 2.861937 1_455
Co2_2 Co2_6 2.861937 1_555
Co2_3 Ti4_3 2.379279 1_555
Co2_3 Ti4_7 2.379279 1_455
Co2_3 Ti7_3 2.476080 1_555
Co2_3 Ti7_7 2.476080 1_455
Co2_3 Ti8_3 2.496852 1_555
Co2_3 Ti8_7 2.496852 1_455
Co2_3 Pt5_3 2.654943 1_555
Co2_3 Pt2_3 2.693573 1_555
Co2_3 Pt6_3 2.712364 1_555
Co2_3 Co2_7 2.861937 1_555
Co2_3 Co2_7 2.861937 1_455
Co2_4 Ti4_4 2.379279 1_555
Co2_4 Ti4_0 2.379279 1_555
Co2_4 Ti7_4 2.476080 1_555
Co2_4 Ti7_0 2.476080 1_555
Co2_4 Ti8_4 2.496852 1_555
Co2_4 Ti8_0 2.496852 1_555
Co2_4 Pt5_4 2.654943 1_555
Co2_4 Pt2_4 2.693573 1_555
Co2_4 Pt6_4 2.712364 1_555
Co2_5 Ti4_5 2.379279 1_555
Co2_5 Ti4_1 2.379279 1_555
Co2_5 Ti7_5 2.476080 1_555
Co2_5 Ti7_1 2.476080 1_555
Co2_5 Ti8_5 2.496852 1_555
Co2_5 Ti8_1 2.496852 1_555
Co2_5 Pt5_5 2.654943 1_555
Co2_5 Pt2_5 2.693573 1_555
Co2_5 Pt6_5 2.712364 1_555
Co2_6 Ti4_6 2.379279 1_555
Co2_6 Ti4_2 2.379279 1_555
Co2_6 Ti7_6 2.476080 1_555
Co2_6 Ti7_2 2.476080 1_555
Co2_6 Ti8_6 2.496852 1_555
Co2_6 Ti8_2 2.496852 1_555
Co2_6 Pt5_6 2.654943 1_555
Co2_6 Pt2_6 2.693573 1_555
Co2_6 Pt6_6 2.712364 1_555
Co2_7 Ti4_7 2.379279 1_555
Co2_7 Ti4_3 2.379279 1_555
Co2_7 Ti7_7 2.476080 1_555
Co2_7 Ti7_3 2.476080 1_555
Co2_7 Ti8_7 2.496852 1_555
Co2_7 Ti8_3 2.496852 1_555
Co2_7 Pt5_7 2.654943 1_555
Co2_7 Pt2_7 2.693573 1_555
Co2_7 Pt6_7 2.712364 1_555
Co3_0 Ti5_0 2.379279 1_555
Co3_0 Ti5_4 2.379279 1_455
Co3_0 Ti6_0 2.476080 1_555
Co3_0 Ti6_4 2.476080 1_455
Co3_0 Ti9_0 2.496852 1_555
Co3_0 Ti9_4 2.496852 1_455
Co3_0 Pt4_0 2.654943 1_555
Co3_0 Pt3_0 2.693573 1_555
Co3_0 Pt7_0 2.712364 1_555
Co3_0 Co3_4 2.861937 1_455
Co3_0 Co3_4 2.861937 1_555
Co3_1 Ti5_1 2.379279 1_555
Co3_1 Ti5_5 2.379279 1_455
Co3_1 Ti6_1 2.476080 1_555
Co3_1 Ti6_5 2.476080 1_455
Co3_1 Ti9_1 2.496852 1_555
Co3_1 Ti9_5 2.496852 1_455
Co3_1 Pt4_1 2.654943 1_555
Co3_1 Pt3_1 2.693573 1_555
Co3_1 Pt7_1 2.712364 1_555
Co3_1 Co3_5 2.861937 1_455
Co3_1 Co3_5 2.861937 1_555
Co3_2 Ti5_2 2.379279 1_555
Co3_2 Ti5_6 2.379279 1_455
Co3_2 Ti6_2 2.476080 1_555
Co3_2 Ti6_6 2.476080 1_455
Co3_2 Ti9_2 2.496852 1_555
Co3_2 Ti9_6 2.496852 1_455
Co3_2 Pt4_2 2.654943 1_555
Co3_2 Pt3_2 2.693573 1_555
Co3_2 Pt7_2 2.712364 1_555
Co3_2 Co3_6 2.861937 1_455
Co3_2 Co3_6 2.861937 1_555
Co3_3 Ti5_3 2.379279 1_555
Co3_3 Ti5_7 2.379279 1_455
Co3_3 Ti6_3 2.476080 1_555
Co3_3 Ti6_7 2.476080 1_455
Co3_3 Ti9_3 2.496852 1_555
Co3_3 Ti9_7 2.496852 1_455
Co3_3 Pt4_3 2.654943 1_555
Co3_3 Pt3_3 2.693573 1_555
Co3_3 Pt7_3 2.712364 1_555
Co3_3 Co3_7 2.861937 1_555
Co3_3 Co3_7 2.861937 1_455
Co3_4 Ti5_4 2.379279 1_555
Co3_4 Ti5_0 2.379279 1_555
Co3_4 Ti6_4 2.476080 1_555
Co3_4 Ti6_0 2.476080 1_555
Co3_4 Ti9_4 2.496852 1_555
Co3_4 Ti9_0 2.496852 1_555
Co3_4 Pt4_4 2.654943 1_555
Co3_4 Pt3_4 2.693573 1_555
Co3_4 Pt7_4 2.712364 1_555
Co3_5 Ti5_5 2.379279 1_555
Co3_5 Ti5_1 2.379279 1_555
Co3_5 Ti6_1 2.476080 1_555
Co3_5 Ti6_5 2.476080 1_555
Co3_5 Ti9_5 2.496852 1_555
Co3_5 Ti9_1 2.496852 1_555
Co3_5 Pt4_5 2.654943 1_555
Co3_5 Pt3_5 2.693573 1_555
Co3_5 Pt7_5 2.712364 1_555
Co3_6 Ti5_6 2.379279 1_555
Co3_6 Ti5_2 2.379279 1_555
Co3_6 Ti6_6 2.476080 1_555
Co3_6 Ti6_2 2.476080 1_555
Co3_6 Ti9_6 2.496852 1_555
Co3_6 Ti9_2 2.496852 1_555
Co3_6 Pt4_6 2.654943 1_555
Co3_6 Pt3_6 2.693573 1_555
Co3_6 Pt7_6 2.712364 1_555
Co3_7 Ti5_7 2.379279 1_555
Co3_7 Ti5_3 2.379279 1_555
Co3_7 Ti6_7 2.476080 1_555
Co3_7 Ti6_3 2.476080 1_555
Co3_7 Ti9_7 2.496852 1_555
Co3_7 Ti9_3 2.496852 1_555
Co3_7 Pt4_7 2.654943 1_555
Co3_7 Pt3_7 2.693573 1_555
Co3_7 Pt7_7 2.712364 1_555
Pt0_0 Ti2_2 2.723021 1_545
Pt0_0 Ti2_6 2.723021 1_445
Pt0_0 Ti3_0 2.764453 1_555
Pt0_0 Ti3_4 2.764453 1_455
Pt0_0 Ti0_0 2.810988 1_555
Pt0_0 Ti0_4 2.810988 1_455
Pt0_0 Pt4_0 2.828141 1_555
Pt0_0 Ti6_0 2.847321 1_555
Pt0_0 Ti6_4 2.847321 1_455
Pt0_0 Pt0_4 2.861937 1_455
Pt0_0 Pt0_4 2.861937 1_555
Pt0_1 Ti2_3 2.723021 1_545
Pt0_1 Ti2_7 2.723021 1_445
Pt0_1 Ti3_1 2.764453 1_555
Pt0_1 Ti3_5 2.764453 1_455
Pt0_1 Ti0_1 2.810988 1_555
Pt0_1 Ti0_5 2.810988 1_455
Pt0_1 Pt4_1 2.828141 1_555
Pt0_1 Ti6_1 2.847321 1_555
Pt0_1 Ti6_5 2.847321 1_455
Pt0_1 Pt0_5 2.861937 1_555
Pt0_1 Pt0_5 2.861937 1_455
Pt0_2 Ti2_0 2.723021 1_555
Pt0_2 Ti2_4 2.723021 1_455
Pt0_2 Ti3_2 2.764453 1_555
Pt0_2 Ti3_6 2.764453 1_455
Pt0_2 Ti0_2 2.810988 1_555
Pt0_2 Ti0_6 2.810988 1_455
Pt0_2 Pt4_2 2.828141 1_555
Pt0_2 Ti6_2 2.847321 1_555
Pt0_2 Ti6_6 2.847321 1_455
Pt0_2 Pt0_6 2.861937 1_555
Pt0_2 Pt0_6 2.861937 1_455
Pt0_3 Ti2_1 2.723021 1_555
Pt0_3 Ti2_5 2.723021 1_455
Pt0_3 Ti3_3 2.764453 1_555
Pt0_3 Ti3_7 2.764453 1_455
Pt0_3 Ti0_3 2.810988 1_555
Pt0_3 Ti0_7 2.810988 1_455
Pt0_3 Pt4_3 2.828141 1_555
Pt0_3 Ti6_3 2.847321 1_555
Pt0_3 Ti6_7 2.847321 1_455
Pt0_3 Pt0_7 2.861937 1_455
Pt0_3 Pt0_7 2.861937 1_555
Pt0_4 Ti2_2 2.723021 1_545
Pt0_4 Ti2_6 2.723021 1_545
Pt0_4 Ti3_4 2.764453 1_555
Pt0_4 Ti3_0 2.764453 1_555
Pt0_4 Ti0_4 2.810988 1_555
Pt0_4 Ti0_0 2.810988 1_555
Pt0_4 Pt4_4 2.828141 1_555
Pt0_4 Ti6_0 2.847321 1_555
Pt0_4 Ti6_4 2.847321 1_555
Pt0_5 Ti2_7 2.723021 1_545
Pt0_5 Ti2_3 2.723021 1_545
Pt0_5 Ti3_5 2.764453 1_555
Pt0_5 Ti3_1 2.764453 1_555
Pt0_5 Ti0_5 2.810988 1_555
Pt0_5 Ti0_1 2.810988 1_555
Pt0_5 Pt4_5 2.828141 1_555
Pt0_5 Ti6_5 2.847321 1_555
Pt0_5 Ti6_1 2.847321 1_555
Pt0_6 Ti2_4 2.723021 1_555
Pt0_6 Ti2_0 2.723021 1_555
Pt0_6 Ti3_2 2.764453 1_555
Pt0_6 Ti3_6 2.764453 1_555
Pt0_6 Ti0_6 2.810988 1_555
Pt0_6 Ti0_2 2.810988 1_555
Pt0_6 Pt4_6 2.828141 1_555
Pt0_6 Ti6_2 2.847321 1_555
Pt0_6 Ti6_6 2.847321 1_555
Pt0_7 Ti2_5 2.723021 1_555
Pt0_7 Ti2_1 2.723021 1_555
Pt0_7 Ti3_7 2.764453 1_555
Pt0_7 Ti3_3 2.764453 1_555
Pt0_7 Ti0_3 2.810988 1_555
Pt0_7 Ti0_7 2.810988 1_555
Pt0_7 Pt4_7 2.828141 1_555
Pt0_7 Ti6_7 2.847321 1_555
Pt0_7 Ti6_3 2.847321 1_555
Pt1_0 Ti3_2 2.723021 1_555
Pt1_0 Ti3_6 2.723021 1_455
Pt1_0 Ti2_0 2.764453 1_555
Pt1_0 Ti2_4 2.764453 1_455
Pt1_0 Ti0_0 2.810988 1_555
Pt1_0 Ti0_4 2.810988 1_455
Pt1_0 Pt5_0 2.828141 1_555
Pt1_0 Ti7_0 2.847321 1_555
Pt1_0 Ti7_4 2.847321 1_455
Pt1_0 Pt1_4 2.861937 1_455
Pt1_0 Pt1_4 2.861937 1_555
Pt1_1 Ti3_3 2.723021 1_555
Pt1_1 Ti3_7 2.723021 1_455
Pt1_1 Ti2_1 2.764453 1_555
Pt1_1 Ti2_5 2.764453 1_455
Pt1_1 Ti0_1 2.810988 1_555
Pt1_1 Ti0_5 2.810988 1_455
Pt1_1 Pt5_1 2.828141 1_555
Pt1_1 Ti7_1 2.847321 1_555
Pt1_1 Ti7_5 2.847321 1_455
Pt1_1 Pt1_5 2.861937 1_555
Pt1_1 Pt1_5 2.861937 1_455
Pt1_2 Ti3_0 2.723021 1_565
Pt1_2 Ti3_4 2.723021 1_465
Pt1_2 Ti2_2 2.764453 1_555
Pt1_2 Ti2_6 2.764453 1_455
Pt1_2 Ti0_2 2.810988 1_555
Pt1_2 Ti0_6 2.810988 1_455
Pt1_2 Pt5_2 2.828141 1_555
Pt1_2 Ti7_2 2.847321 1_555
Pt1_2 Ti7_6 2.847321 1_455
Pt1_2 Pt1_6 2.861937 1_555
Pt1_2 Pt1_6 2.861937 1_455
Pt1_3 Ti3_1 2.723021 1_565
Pt1_3 Ti3_5 2.723021 1_465
Pt1_3 Ti2_3 2.764453 1_555
Pt1_3 Ti2_7 2.764453 1_455
Pt1_3 Ti0_3 2.810988 1_555
Pt1_3 Ti0_7 2.810988 1_455
Pt1_3 Pt5_3 2.828141 1_555
Pt1_3 Ti7_3 2.847321 1_555
Pt1_3 Ti7_7 2.847321 1_455
Pt1_3 Pt1_7 2.861937 1_455
Pt1_3 Pt1_7 2.861937 1_555
Pt1_4 Ti3_6 2.723021 1_555
Pt1_4 Ti3_2 2.723021 1_555
Pt1_4 Ti2_4 2.764453 1_555
Pt1_4 Ti2_0 2.764453 1_555
Pt1_4 Ti0_4 2.810988 1_555
Pt1_4 Ti0_0 2.810988 1_555
Pt1_4 Pt5_4 2.828141 1_555
Pt1_4 Ti7_4 2.847321 1_555
Pt1_4 Ti7_0 2.847321 1_555
Pt1_5 Ti3_3 2.723021 1_555
Pt1_5 Ti3_7 2.723021 1_555
Pt1_5 Ti2_5 2.764453 1_555
Pt1_5 Ti2_1 2.764453 1_555
Pt1_5 Ti0_1 2.810988 1_555
Pt1_5 Ti0_5 2.810988 1_555
Pt1_5 Pt5_5 2.828141 1_555
Pt1_5 Ti7_1 2.847321 1_555
Pt1_5 Ti7_5 2.847321 1_555
Pt1_6 Ti3_4 2.723021 1_565
Pt1_6 Ti3_0 2.723021 1_565
Pt1_6 Ti2_6 2.764453 1_555
Pt1_6 Ti2_2 2.764453 1_555
Pt1_6 Ti0_6 2.810988 1_555
Pt1_6 Ti0_2 2.810988 1_555
Pt1_6 Pt5_6 2.828141 1_555
Pt1_6 Ti7_2 2.847321 1_555
Pt1_6 Ti7_6 2.847321 1_555
Pt1_7 Ti3_5 2.723021 1_565
Pt1_7 Ti3_1 2.723021 1_565
Pt1_7 Ti2_7 2.764453 1_555
Pt1_7 Ti2_3 2.764453 1_555
Pt1_7 Ti0_7 2.810988 1_555
Pt1_7 Ti0_3 2.810988 1_555
Pt1_7 Pt5_7 2.828141 1_555
Pt1_7 Ti7_7 2.847321 1_555
Pt1_7 Ti7_3 2.847321 1_555
Pt2_0 Ti4_0 2.723021 1_555
Pt2_0 Ti4_4 2.723021 1_455
Pt2_0 Ti5_1 2.764453 1_555
Pt2_0 Ti5_5 2.764453 1_455
Pt2_0 Ti1_1 2.810988 1_555
Pt2_0 Ti1_5 2.810988 1_455
Pt2_0 Pt6_2 2.828141 1_545
Pt2_0 Ti8_0 2.847321 1_555
Pt2_0 Ti8_4 2.847321 1_455
Pt2_0 Pt2_4 2.861937 1_555
Pt2_0 Pt2_4 2.861937 1_455
Pt2_1 Ti4_1 2.723021 1_555
Pt2_1 Ti4_5 2.723021 1_455
Pt2_1 Ti5_0 2.764453 1_556
Pt2_1 Ti5_4 2.764453 1_456
Pt2_1 Ti1_0 2.810988 1_556
Pt2_1 Ti1_4 2.810988 1_456
Pt2_1 Pt6_3 2.828141 1_545
Pt2_1 Ti8_1 2.847321 1_555
Pt2_1 Ti8_5 2.847321 1_455
Pt2_1 Pt2_5 2.861937 1_555
Pt2_1 Pt2_5 2.861937 1_455
Pt2_2 Ti4_2 2.723021 1_555
Pt2_2 Ti4_6 2.723021 1_455
Pt2_2 Ti5_3 2.764453 1_555
Pt2_2 Ti5_7 2.764453 1_455
Pt2_2 Ti1_3 2.810988 1_555
Pt2_2 Ti1_7 2.810988 1_455
Pt2_2 Pt6_0 2.828141 1_555
Pt2_2 Ti8_2 2.847321 1_555
Pt2_2 Ti8_6 2.847321 1_455
Pt2_2 Pt2_6 2.861937 1_555
Pt2_2 Pt2_6 2.861937 1_455
Pt2_3 Ti4_3 2.723021 1_555
Pt2_3 Ti4_7 2.723021 1_455
Pt2_3 Ti5_2 2.764453 1_556
Pt2_3 Ti5_6 2.764453 1_456
Pt2_3 Ti1_2 2.810988 1_556
Pt2_3 Ti1_6 2.810988 1_456
Pt2_3 Pt6_1 2.828141 1_555
Pt2_3 Ti8_3 2.847321 1_555
Pt2_3 Ti8_7 2.847321 1_455
Pt2_3 Pt2_7 2.861937 1_455
Pt2_3 Pt2_7 2.861937 1_555
Pt2_4 Ti4_4 2.723021 1_555
Pt2_4 Ti4_0 2.723021 1_555
Pt2_4 Ti5_5 2.764453 1_555
Pt2_4 Ti5_1 2.764453 1_555
Pt2_4 Ti1_1 2.810988 1_555
Pt2_4 Ti1_5 2.810988 1_555
Pt2_4 Pt6_6 2.828141 1_545
Pt2_4 Ti8_0 2.847321 1_555
Pt2_4 Ti8_4 2.847321 1_555
Pt2_5 Ti4_5 2.723021 1_555
Pt2_5 Ti4_1 2.723021 1_555
Pt2_5 Ti5_4 2.764453 1_556
Pt2_5 Ti5_0 2.764453 1_556
Pt2_5 Ti1_4 2.810988 1_556
Pt2_5 Ti1_0 2.810988 1_556
Pt2_5 Pt6_7 2.828141 1_545
Pt2_5 Ti8_5 2.847321 1_555
Pt2_5 Ti8_1 2.847321 1_555
Pt2_6 Ti4_6 2.723021 1_555
Pt2_6 Ti4_2 2.723021 1_555
Pt2_6 Ti5_3 2.764453 1_555
Pt2_6 Ti5_7 2.764453 1_555
Pt2_6 Ti1_7 2.810988 1_555
Pt2_6 Ti1_3 2.810988 1_555
Pt2_6 Pt6_4 2.828141 1_555
Pt2_6 Ti8_2 2.847321 1_555
Pt2_6 Ti8_6 2.847321 1_555
Pt2_7 Ti4_7 2.723021 1_555
Pt2_7 Ti4_3 2.723021 1_555
Pt2_7 Ti5_6 2.764453 1_556
Pt2_7 Ti5_2 2.764453 1_556
Pt2_7 Ti1_6 2.810988 1_556
Pt2_7 Ti1_2 2.810988 1_556
Pt2_7 Pt6_5 2.828141 1_555
Pt2_7 Ti8_7 2.847321 1_555
Pt2_7 Ti8_3 2.847321 1_555
Pt3_0 Ti5_0 2.723021 1_555
Pt3_0 Ti5_4 2.723021 1_455
Pt3_0 Ti4_1 2.764453 1_554
Pt3_0 Ti4_5 2.764453 1_454
Pt3_0 Ti1_2 2.810988 1_555
Pt3_0 Ti1_6 2.810988 1_455
Pt3_0 Pt7_2 2.828141 1_555
Pt3_0 Ti9_0 2.847321 1_555
Pt3_0 Ti9_4 2.847321 1_455
Pt3_0 Pt3_4 2.861937 1_555
Pt3_0 Pt3_4 2.861937 1_455
Pt3_1 Ti5_1 2.723021 1_555
Pt3_1 Ti5_5 2.723021 1_455
Pt3_1 Ti4_0 2.764453 1_555
Pt3_1 Ti4_4 2.764453 1_455
Pt3_1 Ti1_3 2.810988 1_555
Pt3_1 Ti1_7 2.810988 1_455
Pt3_1 Pt7_3 2.828141 1_555
Pt3_1 Ti9_1 2.847321 1_555
Pt3_1 Ti9_5 2.847321 1_455
Pt3_1 Pt3_5 2.861937 1_455
Pt3_1 Pt3_5 2.861937 1_555
Pt3_2 Ti5_2 2.723021 1_555
Pt3_2 Ti5_6 2.723021 1_455
Pt3_2 Ti4_3 2.764453 1_554
Pt3_2 Ti4_7 2.764453 1_454
Pt3_2 Ti1_0 2.810988 1_565
Pt3_2 Ti1_4 2.810988 1_465
Pt3_2 Pt7_0 2.828141 1_565
Pt3_2 Ti9_2 2.847321 1_555
Pt3_2 Ti9_6 2.847321 1_455
Pt3_2 Pt3_6 2.861937 1_555
Pt3_2 Pt3_6 2.861937 1_455
Pt3_3 Ti5_3 2.723021 1_555
Pt3_3 Ti5_7 2.723021 1_455
Pt3_3 Ti4_6 2.764453 1_455
Pt3_3 Ti4_2 2.764453 1_555
Pt3_3 Ti1_1 2.810988 1_565
Pt3_3 Ti1_5 2.810988 1_465
Pt3_3 Pt7_1 2.828141 1_565
Pt3_3 Ti9_3 2.847321 1_555
Pt3_3 Ti9_7 2.847321 1_455
Pt3_3 Pt3_7 2.861937 1_455
Pt3_3 Pt3_7 2.861937 1_555
Pt3_4 Ti5_4 2.723021 1_555
Pt3_4 Ti5_0 2.723021 1_555
Pt3_4 Ti4_5 2.764453 1_554
Pt3_4 Ti4_1 2.764453 1_554
Pt3_4 Ti1_6 2.810988 1_555
Pt3_4 Ti1_2 2.810988 1_555
Pt3_4 Pt7_6 2.828141 1_555
Pt3_4 Ti9_4 2.847321 1_555
Pt3_4 Ti9_0 2.847321 1_555
Pt3_5 Ti5_1 2.723021 1_555
Pt3_5 Ti5_5 2.723021 1_555
Pt3_5 Ti4_4 2.764453 1_555
Pt3_5 Ti4_0 2.764453 1_555
Pt3_5 Ti1_7 2.810988 1_555
Pt3_5 Ti1_3 2.810988 1_555
Pt3_5 Pt7_7 2.828141 1_555
Pt3_5 Ti9_1 2.847321 1_555
Pt3_5 Ti9_5 2.847321 1_555
Pt3_6 Ti5_6 2.723021 1_555
Pt3_6 Ti5_2 2.723021 1_555
Pt3_6 Ti4_7 2.764453 1_554
Pt3_6 Ti4_3 2.764453 1_554
Pt3_6 Ti1_4 2.810988 1_565
Pt3_6 Ti1_0 2.810988 1_565
Pt3_6 Pt7_4 2.828141 1_565
Pt3_6 Ti9_2 2.847321 1_555
Pt3_6 Ti9_6 2.847321 1_555
Pt3_7 Ti5_7 2.723021 1_555
Pt3_7 Ti5_3 2.723021 1_555
Pt3_7 Ti4_6 2.764453 1_555
Pt3_7 Ti4_2 2.764453 1_555
Pt3_7 Ti1_5 2.810988 1_565
Pt3_7 Ti1_1 2.810988 1_565
Pt3_7 Pt7_5 2.828141 1_565
Pt3_7 Ti9_7 2.847321 1_555
Pt3_7 Ti9_3 2.847321 1_555
Pt4_0 Ti2_0 2.755314 1_555
Pt4_0 Ti2_4 2.755314 1_455
Pt4_0 Ti0_0 2.827047 1_555
Pt4_0 Ti0_4 2.827047 1_455
Pt4_0 Ti9_0 2.831901 1_555
Pt4_0 Ti9_4 2.831901 1_455
Pt4_0 Pt4_4 2.861937 1_555
Pt4_0 Pt4_4 2.861937 1_455
Pt4_0 Ti6_0 2.864317 1_555
Pt4_0 Ti6_4 2.864317 1_455
Pt4_1 Ti2_1 2.755314 1_555
Pt4_1 Ti2_5 2.755314 1_455
Pt4_1 Ti0_1 2.827047 1_555
Pt4_1 Ti0_5 2.827047 1_455
Pt4_1 Ti9_1 2.831901 1_555
Pt4_1 Ti9_5 2.831901 1_455
Pt4_1 Pt4_5 2.861937 1_455
Pt4_1 Pt4_5 2.861937 1_555
Pt4_1 Ti6_1 2.864317 1_555
Pt4_1 Ti6_5 2.864317 1_455
Pt4_2 Ti2_2 2.755314 1_555
Pt4_2 Ti2_6 2.755314 1_455
Pt4_2 Ti0_2 2.827047 1_555
Pt4_2 Ti0_6 2.827047 1_455
Pt4_2 Ti9_2 2.831901 1_555
Pt4_2 Ti9_6 2.831901 1_455
Pt4_2 Pt4_6 2.861937 1_455
Pt4_2 Pt4_6 2.861937 1_555
Pt4_2 Ti6_2 2.864317 1_555
Pt4_2 Ti6_6 2.864317 1_455
Pt4_3 Ti2_3 2.755314 1_555
Pt4_3 Ti2_7 2.755314 1_455
Pt4_3 Ti0_3 2.827047 1_555
Pt4_3 Ti0_7 2.827047 1_455
Pt4_3 Ti9_3 2.831901 1_555
Pt4_3 Ti9_7 2.831901 1_455
Pt4_3 Pt4_7 2.861937 1_555
Pt4_3 Pt4_7 2.861937 1_455
Pt4_3 Ti6_3 2.864317 1_555
Pt4_3 Ti6_7 2.864317 1_455
Pt4_4 Ti2_0 2.755314 1_555
Pt4_4 Ti2_4 2.755314 1_555
Pt4_4 Ti0_4 2.827047 1_555
Pt4_4 Ti0_0 2.827047 1_555
Pt4_4 Ti9_4 2.831901 1_555
Pt4_4 Ti9_0 2.831901 1_555
Pt4_4 Ti6_4 2.864317 1_555
Pt4_4 Ti6_0 2.864317 1_555
Pt4_5 Ti2_5 2.755314 1_555
Pt4_5 Ti2_1 2.755314 1_555
Pt4_5 Ti0_5 2.827047 1_555
Pt4_5 Ti0_1 2.827047 1_555
Pt4_5 Ti9_1 2.831901 1_555
Pt4_5 Ti9_5 2.831901 1_555
Pt4_5 Ti6_5 2.864317 1_555
Pt4_5 Ti6_1 2.864317 1_555
Pt4_6 Ti2_6 2.755314 1_555
Pt4_6 Ti2_2 2.755314 1_555
Pt4_6 Ti0_2 2.827047 1_555
Pt4_6 Ti0_6 2.827047 1_555
Pt4_6 Ti9_6 2.831901 1_555
Pt4_6 Ti9_2 2.831901 1_555
Pt4_6 Ti6_6 2.864317 1_555
Pt4_6 Ti6_2 2.864317 1_555
Pt4_7 Ti2_7 2.755314 1_555
Pt4_7 Ti2_3 2.755314 1_555
Pt4_7 Ti0_7 2.827047 1_555
Pt4_7 Ti0_3 2.827047 1_555
Pt4_7 Ti9_7 2.831901 1_555
Pt4_7 Ti9_3 2.831901 1_555
Pt4_7 Ti6_7 2.864317 1_555
Pt4_7 Ti6_3 2.864317 1_555
Pt5_0 Ti3_0 2.755314 1_555
Pt5_0 Ti3_4 2.755314 1_455
Pt5_0 Ti0_4 2.827047 1_455
Pt5_0 Ti0_0 2.827047 1_555
Pt5_0 Ti8_0 2.831901 1_555
Pt5_0 Ti8_4 2.831901 1_455
Pt5_0 Pt5_4 2.861937 1_455
Pt5_0 Pt5_4 2.861937 1_555
Pt5_0 Ti7_0 2.864317 1_555
Pt5_0 Ti7_4 2.864317 1_455
Pt5_1 Ti3_1 2.755314 1_555
Pt5_1 Ti3_5 2.755314 1_455
Pt5_1 Ti0_1 2.827047 1_555
Pt5_1 Ti0_5 2.827047 1_455
Pt5_1 Ti8_1 2.831901 1_555
Pt5_1 Ti8_5 2.831901 1_455
Pt5_1 Pt5_5 2.861937 1_555
Pt5_1 Pt5_5 2.861937 1_455
Pt5_1 Ti7_1 2.864317 1_555
Pt5_1 Ti7_5 2.864317 1_455
Pt5_2 Ti3_2 2.755314 1_555
Pt5_2 Ti3_6 2.755314 1_455
Pt5_2 Ti0_2 2.827047 1_555
Pt5_2 Ti0_6 2.827047 1_455
Pt5_2 Ti8_2 2.831901 1_555
Pt5_2 Ti8_6 2.831901 1_455
Pt5_2 Pt5_6 2.861937 1_555
Pt5_2 Pt5_6 2.861937 1_455
Pt5_2 Ti7_2 2.864317 1_555
Pt5_2 Ti7_6 2.864317 1_455
Pt5_3 Ti3_3 2.755314 1_555
Pt5_3 Ti3_7 2.755314 1_455
Pt5_3 Ti0_3 2.827047 1_555
Pt5_3 Ti0_7 2.827047 1_455
Pt5_3 Ti8_3 2.831901 1_555
Pt5_3 Ti8_7 2.831901 1_455
Pt5_3 Pt5_7 2.861937 1_555
Pt5_3 Pt5_7 2.861937 1_455
Pt5_3 Ti7_3 2.864317 1_555
Pt5_3 Ti7_7 2.864317 1_455
Pt5_4 Ti3_0 2.755314 1_555
Pt5_4 Ti3_4 2.755314 1_555
Pt5_4 Ti0_4 2.827047 1_555
Pt5_4 Ti0_0 2.827047 1_555
Pt5_4 Ti8_0 2.831901 1_555
Pt5_4 Ti8_4 2.831901 1_555
Pt5_4 Ti7_4 2.864317 1_555
Pt5_4 Ti7_0 2.864317 1_555
Pt5_5 Ti3_5 2.755314 1_555
Pt5_5 Ti3_1 2.755314 1_555
Pt5_5 Ti0_5 2.827047 1_555
Pt5_5 Ti0_1 2.827047 1_555
Pt5_5 Ti8_5 2.831901 1_555
Pt5_5 Ti8_1 2.831901 1_555
Pt5_5 Ti7_5 2.864317 1_555
Pt5_5 Ti7_1 2.864317 1_555
Pt5_6 Ti3_6 2.755314 1_555
Pt5_6 Ti3_2 2.755314 1_555
Pt5_6 Ti0_6 2.827047 1_555
Pt5_6 Ti0_2 2.827047 1_555
Pt5_6 Ti8_6 2.831901 1_555
Pt5_6 Ti8_2 2.831901 1_555
Pt5_6 Ti7_6 2.864317 1_555
Pt5_6 Ti7_2 2.864317 1_555
Pt5_7 Ti3_3 2.755314 1_555
Pt5_7 Ti3_7 2.755314 1_555
Pt5_7 Ti0_3 2.827047 1_555
Pt5_7 Ti0_7 2.827047 1_555
Pt5_7 Ti8_7 2.831901 1_555
Pt5_7 Ti8_3 2.831901 1_555
Pt5_7 Ti7_7 2.864317 1_555
Pt5_7 Ti7_3 2.864317 1_555
Pt6_0 Ti4_0 2.755314 1_555
Pt6_0 Ti4_4 2.755314 1_455
Pt6_0 Ti1_3 2.827047 1_555
Pt6_0 Ti1_7 2.827047 1_455
Pt6_0 Ti7_0 2.831901 1_555
Pt6_0 Ti7_4 2.831901 1_455
Pt6_0 Pt6_4 2.861937 1_455
Pt6_0 Pt6_4 2.861937 1_555
Pt6_0 Ti8_2 2.864317 1_555
Pt6_0 Ti8_6 2.864317 1_455
Pt6_1 Ti4_5 2.755314 1_455
Pt6_1 Ti4_1 2.755314 1_555
Pt6_1 Ti1_6 2.827047 1_456
Pt6_1 Ti1_2 2.827047 1_556
Pt6_1 Ti7_1 2.831901 1_555
Pt6_1 Ti7_5 2.831901 1_455
Pt6_1 Pt6_5 2.861937 1_555
Pt6_1 Pt6_5 2.861937 1_455
Pt6_1 Ti8_3 2.864317 1_555
Pt6_1 Ti8_7 2.864317 1_455
Pt6_2 Ti4_2 2.755314 1_555
Pt6_2 Ti4_6 2.755314 1_455
Pt6_2 Ti1_1 2.827047 1_565
Pt6_2 Ti1_5 2.827047 1_465
Pt6_2 Ti7_2 2.831901 1_555
Pt6_2 Ti7_6 2.831901 1_455
Pt6_2 Pt6_6 2.861937 1_455
Pt6_2 Pt6_6 2.861937 1_555
Pt6_2 Ti8_0 2.864317 1_565
Pt6_2 Ti8_4 2.864317 1_465
Pt6_3 Ti4_3 2.755314 1_555
Pt6_3 Ti4_7 2.755314 1_455
Pt6_3 Ti1_0 2.827047 1_566
Pt6_3 Ti1_4 2.827047 1_466
Pt6_3 Ti7_3 2.831901 1_555
Pt6_3 Ti7_7 2.831901 1_455
Pt6_3 Pt6_7 2.861937 1_555
Pt6_3 Pt6_7 2.861937 1_455
Pt6_3 Ti8_1 2.864317 1_565
Pt6_3 Ti8_5 2.864317 1_465
Pt6_4 Ti4_4 2.755314 1_555
Pt6_4 Ti4_0 2.755314 1_555
Pt6_4 Ti1_3 2.827047 1_555
Pt6_4 Ti1_7 2.827047 1_555
Pt6_4 Ti7_4 2.831901 1_555
Pt6_4 Ti7_0 2.831901 1_555
Pt6_4 Ti8_2 2.864317 1_555
Pt6_4 Ti8_6 2.864317 1_555
Pt6_5 Ti4_5 2.755314 1_555
Pt6_5 Ti4_1 2.755314 1_555
Pt6_5 Ti1_6 2.827047 1_556
Pt6_5 Ti1_2 2.827047 1_556
Pt6_5 Ti7_5 2.831901 1_555
Pt6_5 Ti7_1 2.831901 1_555
Pt6_5 Ti8_7 2.864317 1_555
Pt6_5 Ti8_3 2.864317 1_555
Pt6_6 Ti4_6 2.755314 1_555
Pt6_6 Ti4_2 2.755314 1_555
Pt6_6 Ti1_1 2.827047 1_565
Pt6_6 Ti1_5 2.827047 1_565
Pt6_6 Ti7_6 2.831901 1_555
Pt6_6 Ti7_2 2.831901 1_555
Pt6_6 Ti8_4 2.864317 1_565
Pt6_6 Ti8_0 2.864317 1_565
Pt6_7 Ti4_7 2.755314 1_555
Pt6_7 Ti4_3 2.755314 1_555
Pt6_7 Ti1_4 2.827047 1_566
Pt6_7 Ti1_0 2.827047 1_566
Pt6_7 Ti7_3 2.831901 1_555
Pt6_7 Ti7_7 2.831901 1_555
Pt6_7 Ti8_5 2.864317 1_565
Pt6_7 Ti8_1 2.864317 1_565
Pt7_0 Ti5_0 2.755314 1_555
Pt7_0 Ti5_4 2.755314 1_455
Pt7_0 Ti1_0 2.827047 1_555
Pt7_0 Ti1_4 2.827047 1_455
Pt7_0 Ti6_4 2.831901 1_455
Pt7_0 Ti6_0 2.831901 1_555
Pt7_0 Pt7_4 2.861937 1_455
Pt7_0 Pt7_4 2.861937 1_555
Pt7_0 Ti9_2 2.864317 1_545
Pt7_0 Ti9_6 2.864317 1_445
Pt7_1 Ti5_5 2.755314 1_455
Pt7_1 Ti5_1 2.755314 1_555
Pt7_1 Ti1_1 2.827047 1_555
Pt7_1 Ti1_5 2.827047 1_455
Pt7_1 Ti6_1 2.831901 1_555
Pt7_1 Ti6_5 2.831901 1_455
Pt7_1 Pt7_5 2.861937 1_455
Pt7_1 Pt7_5 2.861937 1_555
Pt7_1 Ti9_3 2.864317 1_545
Pt7_1 Ti9_7 2.864317 1_445
Pt7_2 Ti5_2 2.755314 1_555
Pt7_2 Ti5_6 2.755314 1_455
Pt7_2 Ti1_2 2.827047 1_555
Pt7_2 Ti1_6 2.827047 1_455
Pt7_2 Ti6_2 2.831901 1_555
Pt7_2 Ti6_6 2.831901 1_455
Pt7_2 Pt7_6 2.861937 1_555
Pt7_2 Pt7_6 2.861937 1_455
Pt7_2 Ti9_0 2.864317 1_555
Pt7_2 Ti9_4 2.864317 1_455
Pt7_3 Ti5_3 2.755314 1_555
Pt7_3 Ti5_7 2.755314 1_455
Pt7_3 Ti1_3 2.827047 1_555
Pt7_3 Ti1_7 2.827047 1_455
Pt7_3 Ti6_3 2.831901 1_555
Pt7_3 Ti6_7 2.831901 1_455
Pt7_3 Pt7_7 2.861937 1_555
Pt7_3 Pt7_7 2.861937 1_455
Pt7_3 Ti9_1 2.864317 1_555
Pt7_3 Ti9_5 2.864317 1_455
Pt7_4 Ti5_4 2.755314 1_555
Pt7_4 Ti5_0 2.755314 1_555
Pt7_4 Ti1_4 2.827047 1_555
Pt7_4 Ti1_0 2.827047 1_555
Pt7_4 Ti6_4 2.831901 1_555
Pt7_4 Ti6_0 2.831901 1_555
Pt7_4 Ti9_6 2.864317 1_545
Pt7_4 Ti9_2 2.864317 1_545
Pt7_5 Ti5_5 2.755314 1_555
Pt7_5 Ti5_1 2.755314 1_555
Pt7_5 Ti1_5 2.827047 1_555
Pt7_5 Ti1_1 2.827047 1_555
Pt7_5 Ti6_1 2.831901 1_555
Pt7_5 Ti6_5 2.831901 1_555
Pt7_5 Ti9_3 2.864317 1_545
Pt7_5 Ti9_7 2.864317 1_545
Pt7_6 Ti5_2 2.755314 1_555
Pt7_6 Ti5_6 2.755314 1_555
Pt7_6 Ti1_6 2.827047 1_555
Pt7_6 Ti1_2 2.827047 1_555
Pt7_6 Ti6_6 2.831901 1_555
Pt7_6 Ti6_2 2.831901 1_555
Pt7_6 Ti9_4 2.864317 1_555
Pt7_6 Ti9_0 2.864317 1_555
Pt7_7 Ti5_7 2.755314 1_555
Pt7_7 Ti5_3 2.755314 1_555
Pt7_7 Ti1_7 2.827047 1_555
Pt7_7 Ti1_3 2.827047 1_555
Pt7_7 Ti6_7 2.831901 1_555
Pt7_7 Ti6_3 2.831901 1_555
Pt7_7 Ti9_5 2.864317 1_555
Pt7_7 Ti9_1 2.864317 1_555
