# generated using pymatgen
data_Ca10CuHg2Pd3
_symmetry_space_group_name_H-M   'P 1'
_cell_length_a   9.18690122
_cell_length_b   9.18689962
_cell_length_c   9.14912058
_cell_angle_alpha   129.53372030
_cell_angle_beta   129.53371683
_cell_angle_gamma   74.46487309
_symmetry_Int_Tables_number   1
_chemical_formula_structural   Ca10CuHg2Pd3
_chemical_formula_sum   'Ca10 Cu1 Hg2 Pd3'
_cell_volume   446.90054853
_cell_formula_units_Z   1
loop_
 _symmetry_equiv_pos_site_id
 _symmetry_equiv_pos_as_xyz
  1  'x, y, z'
loop_
 _atom_site_type_symbol
 _atom_site_label
 _atom_site_symmetry_multiplicity
 _atom_site_fract_x
 _atom_site_fract_y
 _atom_site_fract_z
 _atom_site_occupancy
  Ca  Ca0  1  0.52906137  0.02906137  0.83379686  1
  Ca  Ca1  1  0.19282527  0.69282527  0.16092187  1
  Ca  Ca2  1  0.03324548  0.19226234  0.50297451  1
  Ca  Ca3  1  0.69226234  0.53324548  0.50297451  1
  Ca  Ca4  1  0.46809660  0.96809660  0.16092187  1
  Ca  Ca5  1  0.80473549  0.30473549  0.83379686  1
  Ca  Ca6  1  0.96972903  0.81071417  0.50297451  1
  Ca  Ca7  1  0.31071417  0.46972903  0.50297451  1
  Ca  Ca8  1  0.49766477  0.50085072  0.99851649  1
  Ca  Ca9  1  0.00085072  0.99766477  0.99851649  1
  Cu  Cu0  1  0.88227983  0.38227983  0.26455866  1
  Hg  Hg0  1  0.25102602  0.25102602  0.00205004  1
  Hg  Hg1  1  0.75102602  0.75102602  0.00205004  1
  Pd  Pd0  1  0.62511540  0.87450040  0.49961580  1
  Pd  Pd1  1  0.37450040  0.12511540  0.49961580  1
  Pd  Pd2  1  0.11686908  0.61686908  0.73373817  1
loop_
_geom_bond_atom_site_label_1
_geom_bond_atom_site_label_2
_geom_bond_distance
_geom_bond_site_symmetry_2
Ca0 Pd1 3.062627 1_555
Ca0 Pd0 3.062627 1_545
Ca0 Cu0 3.109758 1_556
Ca0 Hg1 3.357330 1_546
Ca0 Hg0 3.357330 1_556
Ca1 Pd1 3.075635 1_565
Ca1 Pd0 3.075635 1_555
Ca1 Pd2 3.092891 1_554
Ca1 Hg0 3.344943 1_555
Ca1 Hg1 3.344944 1_455
Ca2 Pd1 3.045120 1_555
Ca2 Pd2 3.052843 1_555
Ca2 Cu0 3.070557 1_455
Ca2 Hg0 3.309674 1_556
Ca2 Hg1 3.318100 1_445
Ca3 Pd0 3.045119 1_555
Ca3 Pd2 3.052843 1_655
Ca3 Cu0 3.070557 1_555
Ca3 Hg1 3.309674 1_556
Ca3 Hg0 3.318101 1_555
Ca4 Pd0 3.075635 1_555
Ca4 Pd1 3.075635 1_565
Ca4 Pd2 3.092891 1_554
Ca4 Hg0 3.344958 1_565
Ca4 Hg1 3.344958 1_555
Ca5 Pd0 3.062627 1_545
Ca5 Pd1 3.062628 1_555
Ca5 Cu0 3.109749 1_556
Ca5 Hg1 3.357344 1_556
Ca5 Hg0 3.357345 1_656
Ca6 Pd0 3.045121 1_555
Ca6 Pd2 3.052859 1_655
Ca6 Cu0 3.070564 1_555
Ca6 Hg0 3.309678 1_666
Ca6 Hg1 3.318105 1_555
Ca7 Pd1 3.045121 1_555
Ca7 Pd2 3.052860 1_555
Ca7 Cu0 3.070564 1_455
Ca7 Hg1 3.309679 1_556
Ca7 Hg0 3.318105 1_555
Ca8 Pd0 3.075254 1_556
Ca8 Pd1 3.080418 1_555
Ca8 Pd2 3.121501 1_555
Ca8 Cu0 3.156091 1_556
Ca8 Hg0 3.657320 1_556
Ca8 Hg1 3.657364 1_556
Ca9 Pd1 3.075255 1_566
Ca9 Pd0 3.080418 1_455
Ca9 Pd2 3.121501 1_555
Ca9 Cu0 3.156090 1_466
Ca9 Hg1 3.657320 1_456
Ca9 Hg0 3.657364 1_566
Cu0 Pd2 2.578549 1_655
Pd0 Pd1 2.786104 1_565
