# generated using pymatgen
data_KAlB14
_symmetry_space_group_name_H-M   'P 1'
_cell_length_a   7.37780404
_cell_length_b   7.37780393
_cell_length_c   7.37780427
_cell_angle_alpha   133.41323109
_cell_angle_beta   110.96935295
_cell_angle_gamma   87.41371437
_symmetry_Int_Tables_number   1
_chemical_formula_structural   KAlB14
_chemical_formula_sum   'K2 Al2 B28'
_cell_volume   260.18796681
_cell_formula_units_Z   2
loop_
 _symmetry_equiv_pos_site_id
 _symmetry_equiv_pos_as_xyz
  1  'x, y, z'
loop_
 _atom_site_type_symbol
 _atom_site_label
 _atom_site_symmetry_multiplicity
 _atom_site_fract_x
 _atom_site_fract_y
 _atom_site_fract_z
 _atom_site_occupancy
  K  K0  1  0.09915764  0.75000000  0.34915764  1
  K  K1  1  0.90084236  0.25000000  0.65084236  1
  Al  Al0  1  0.50000000  0.50000000  0.50000000  1
  Al  Al1  1  0.50000000  0.00000000  0.00000000  1
  B  B0  1  0.89496421  0.21746448  0.99991885  1
  B  B1  1  0.46733836  0.17204190  0.79514766  1
  B  B2  1  0.87689424  0.17219170  0.20485234  1
  B  B3  1  0.71754563  0.39504536  0.00008115  1
  B  B4  1  0.57853707  0.41453030  0.16400777  1
  B  B5  1  0.72508989  0.35685633  0.36823256  1
  B  B6  1  0.30346050  0.33529432  0.96816618  1
  B  B7  1  0.71754563  0.71746448  0.32250027  1
  B  B8  1  0.87689424  0.67204190  0.70470254  1
  B  B9  1  0.46733836  0.67219170  0.29529746  1
  B  B10  1  0.10503579  0.10495464  0.32250027  1
  B  B11  1  0.89496421  0.89504536  0.67749973  1
  B  B12  1  0.53266164  0.32780830  0.70470254  1
  B  B13  1  0.12310576  0.32795810  0.29529746  1
  B  B14  1  0.28245437  0.28253552  0.67749973  1
  B  B15  1  0.75052153  0.91453030  0.83599223  1
  B  B16  1  0.48862376  0.85685633  0.63176744  1
  B  B17  1  0.86712914  0.83529432  0.03183382  1
  B  B18  1  0.69653950  0.66470568  0.03183382  1
  B  B19  1  0.27491011  0.64314367  0.63176744  1
  B  B20  1  0.42146293  0.58546970  0.83599223  1
  B  B21  1  0.28245437  0.60495464  0.99991885  1
  B  B22  1  0.12310576  0.82780830  0.79514766  1
  B  B23  1  0.53266164  0.82795810  0.20485234  1
  B  B24  1  0.10503579  0.78253552  0.00008115  1
  B  B25  1  0.13287086  0.16470568  0.96816618  1
  B  B26  1  0.51137624  0.14314367  0.36823256  1
  B  B27  1  0.24947847  0.08546970  0.16400777  1
loop_
_geom_bond_atom_site_label_1
_geom_bond_atom_site_label_2
_geom_bond_distance
_geom_bond_site_symmetry_2
Al0 B16 2.098629 1_555
Al0 B26 2.098629 1_555
Al0 B5 2.098635 1_555
Al0 B19 2.098635 1_555
Al0 B4 2.392649 1_555
Al0 B20 2.392649 1_555
Al0 B15 2.392650 1_555
Al0 B27 2.392650 1_555
Al0 B12 2.510360 1_555
Al0 B9 2.510360 1_555
Al0 B8 2.510361 1_555
Al0 B13 2.510361 1_555
Al1 B16 2.098629 1_544
Al1 B26 2.098629 1_555
Al1 B5 2.098632 1_555
Al1 B19 2.098632 1_544
Al1 B15 2.392646 1_544
Al1 B27 2.392646 1_555
Al1 B4 2.392652 1_555
Al1 B20 2.392652 1_544
Al1 B1 2.510360 1_554
Al1 B23 2.510360 1_545
Al1 B2 2.510361 1_555
Al1 B22 2.510361 1_544
B0 B15 1.780631 1_545
B0 B2 1.804937 1_556
B0 B3 1.809443 1_556
B0 B13 1.817520 1_656
B0 B25 1.842424 1_655
B0 B11 1.881299 1_545
B0 K1 2.760958 1_555
B0 K0 2.861173 1_656
B1 B4 1.766945 1_556
B1 B16 1.770537 1_545
B1 B3 1.804943 1_556
B1 B14 1.817516 1_555
B1 B12 1.825498 1_555
B1 B6 1.844425 1_555
B1 K0 2.860839 1_545
B2 B5 1.770529 1_555
B2 K1 2.860843 1_555
B3 B4 1.780634 1_555
B3 B7 1.881299 1_555
B3 K0 2.760958 1_655
B3 K1 2.861173 1_554
B4 B9 1.766944 1_555
B4 B7 1.780631 1_555
B4 B5 1.814952 1_555
B4 B6 1.842671 1_554
B5 B8 1.770534 1_555
B5 K1 2.623417 1_555
B6 B9 1.844429 1_556
B6 K1 2.804778 1_455
B7 B9 1.804944 1_555
B7 K0 2.760958 1_655
B7 K1 2.861173 1_565
B8 K1 2.860843 1_555
B9 K0 2.860835 1_555
B10 B27 1.780634 1_555
B10 B13 1.804937 1_555
B10 B14 1.809443 1_555
B10 B2 1.817520 1_455
B10 B17 1.842427 1_445
B10 B24 1.881299 1_545
B10 K0 2.760958 1_545
B10 K1 2.861173 1_455
B11 B15 1.780634 1_555
B11 B8 1.804937 1_555
B11 B7 1.809443 1_555
B11 B22 1.817520 1_655
B11 B25 1.842427 1_665
B11 K1 2.760958 1_565
B11 K0 2.861173 1_655
B12 B20 1.766944 1_555
B12 B26 1.770532 1_555
B12 B14 1.804944 1_555
B12 B3 1.817518 1_556
B12 B18 1.844429 1_556
B12 K1 2.860835 1_555
B13 B27 1.766949 1_555
B13 B19 1.770534 1_555
B13 B2 1.825492 1_455
B13 B25 1.844428 1_554
B13 K0 2.860843 1_555
B14 B20 1.780631 1_555
B14 B6 1.842432 1_555
B14 B21 1.881299 1_555
B14 K1 2.760958 1_455
B14 K0 2.861173 1_545
B15 B2 1.766945 1_566
B15 B8 1.766949 1_555
B15 B16 1.814942 1_555
B15 B17 1.842679 1_556
B16 B9 1.770532 1_555
B16 K0 2.623418 1_555
B17 B18 1.819606 1_555
B17 B24 1.842424 1_655
B17 B8 1.844428 1_554
B17 B2 1.844432 1_565
B17 K0 2.804776 1_655
B18 B3 1.842431 1_555
B18 B7 1.842432 1_555
B18 B20 1.842671 1_554
B18 B23 1.844425 1_555
B18 K0 2.804778 1_655
B19 B22 1.770529 1_555
B19 B20 1.814952 1_555
B19 K0 2.623417 1_555
B20 B23 1.766945 1_556
B20 B21 1.780634 1_555
B21 B23 1.804943 1_556
B21 B24 1.809443 1_556
B21 B9 1.817518 1_556
B21 B6 1.842431 1_555
B21 K1 2.760958 1_455
B21 K0 2.861173 1_556
B22 B27 1.766945 1_566
B22 B24 1.804937 1_556
B22 B8 1.825492 1_455
B22 B25 1.844432 1_565
B22 K0 2.860843 1_555
B23 B26 1.770537 1_565
B23 B7 1.817516 1_555
B23 B9 1.825498 1_555
B23 K1 2.860839 1_565
B24 B27 1.780631 1_565
B24 B8 1.817520 1_454
B24 K0 2.760958 1_555
B24 K1 2.861173 1_454
B25 B6 1.819606 1_555
B25 B27 1.842679 1_556
B25 K1 2.804776 1_455
B26 B27 1.814942 1_555
B26 K1 2.623418 1_555
