# generated using pymatgen
data_Ti3ReSi3Ru2
_symmetry_space_group_name_H-M   'P 1'
_cell_length_a   7.38805223
_cell_length_b   7.38805265
_cell_length_c   7.38805264
_cell_angle_alpha   126.93016082
_cell_angle_beta   124.87396709
_cell_angle_gamma   80.06015161
_symmetry_Int_Tables_number   1
_chemical_formula_structural   Ti3ReSi3Ru2
_chemical_formula_sum   'Ti6 Re2 Si6 Ru4'
_cell_volume   255.32440896
_cell_formula_units_Z   2
loop_
 _symmetry_equiv_pos_site_id
 _symmetry_equiv_pos_as_xyz
  1  'x, y, z'
loop_
 _atom_site_type_symbol
 _atom_site_label
 _atom_site_symmetry_multiplicity
 _atom_site_fract_x
 _atom_site_fract_y
 _atom_site_fract_z
 _atom_site_occupancy
  Ti  Ti0  1  0.24548685  0.90960441  0.16411656  1
  Ti  Ti1  1  0.96306934  0.48933778  0.02626644  1
  Ti  Ti2  1  0.03693066  0.06319709  0.52626644  1
  Ti  Ti3  1  0.44157977  0.48441215  0.54283238  1
  Ti  Ti4  1  0.75451315  0.91862971  0.66411656  1
  Ti  Ti5  1  0.55842023  0.10125260  0.04283238  1
  Re  Re0  1  0.50000000  0.24291292  0.74291292  1
  Re  Re1  1  1.00000000  0.24291292  0.24291292  1
  Si  Si0  1  0.77677627  0.54221662  0.26544136  1
  Si  Si1  1  0.17588099  0.16015688  0.99705228  1
  Si  Si2  1  0.66310461  0.16015688  0.48427489  1
  Si  Si3  1  0.33689539  0.82117028  0.49705228  1
  Si  Si4  1  0.22322373  0.48866509  0.76544136  1
  Si  Si5  1  0.82411901  0.82117028  0.98427489  1
  Ru  Ru0  1  0.83824484  0.49575934  0.59069168  1
  Ru  Ru1  1  0.59493333  0.75244684  0.09069168  1
  Ru  Ru2  1  0.40506667  0.49575934  0.15751451  1
  Ru  Ru3  1  0.16175516  0.75244684  0.65751451  1
loop_
_geom_bond_atom_site_label_1
_geom_bond_atom_site_label_2
_geom_bond_distance
_geom_bond_site_symmetry_2
Re0 Si0 2.499982 1_556
Re0 Si4 2.499983 1_555
Re0 Si3 2.540087 1_545
Re0 Si2 2.540087 1_555
Re0 Ti0 2.763170 1_545
Re0 Ti4 2.763170 1_545
Re0 Ti5 2.780051 1_556
Re0 Ti3 2.780051 1_555
Re0 Ru1 2.914184 1_556
Re0 Ru2 2.914190 1_556
Re0 Ti2 2.963396 1_555
Re0 Ti1 2.963401 1_556
Re1 Si0 2.499977 1_555
Re1 Si4 2.499983 1_655
Re1 Si1 2.540081 1_654
Re1 Si5 2.540085 1_544
Re1 Ti0 2.763165 1_645
Re1 Ti4 2.763170 1_544
Re1 Ti3 2.780050 1_655
Re1 Ti5 2.780050 1_555
Re1 Ru3 2.914184 1_655
Re1 Ru0 2.914184 1_555
Re1 Ti2 2.963396 1_655
Re1 Ti1 2.963409 1_555
Si0 Ti1 2.633503 1_555
Si0 Ti4 2.643734 1_555
Si0 Ti5 2.874501 1_555
Si1 Ti4 2.610082 1_445
Si1 Ti3 2.610636 1_556
Si1 Ti2 2.615613 1_555
Si1 Ti1 2.621157 1_456
Si1 Ti0 2.627840 1_546
Si1 Ti5 2.636372 1_556
Si2 Ti4 2.610088 1_545
Si2 Ti3 2.610636 1_555
Si2 Ti2 2.615611 1_655
Si2 Ti1 2.621151 1_556
Si2 Ti0 2.627845 1_545
Si2 Ti5 2.636365 1_555
Si3 Ti0 2.610094 1_555
Si3 Ti5 2.610636 1_566
Si3 Ti1 2.615606 1_455
Si3 Ti2 2.621149 1_565
Si3 Ti4 2.627848 1_555
Si3 Ti3 2.636365 1_555
Si4 Ti2 2.633495 1_555
Si4 Ti0 2.643735 1_556
Si4 Ti3 2.874507 1_555
Si5 Ti0 2.610082 1_656
Si5 Ti5 2.610642 1_566
Si5 Ti1 2.615596 1_556
Si5 Ti2 2.621150 1_666
Si5 Ti4 2.627846 1_555
Si5 Ti3 2.636368 1_555
Ru0 Si4 2.364308 1_655
Ru0 Si0 2.405759 1_555
Ru0 Si2 2.458007 1_555
Ru0 Si5 2.471007 1_555
Ru0 Ti5 2.736199 1_555
Ru0 Ti3 2.754015 1_555
Ru0 Ti1 2.825456 1_556
Ru0 Ti4 2.849118 1_555
Ru0 Ti0 3.063138 1_656
Ru0 Ti2 3.153720 1_655
Ru1 Si0 2.364314 1_555
Ru1 Si4 2.405769 1_554
Ru1 Si5 2.458007 1_554
Ru1 Si2 2.471013 1_565
Ru1 Ti3 2.736196 1_554
Ru1 Ti5 2.754014 1_565
Ru1 Ti2 2.825460 1_665
Ru1 Ti0 2.849126 1_555
Ru1 Ti4 3.063138 1_555
Ru1 Ti1 3.153708 1_555
Ru2 Si4 2.364309 1_554
Ru2 Si0 2.405770 1_555
Ru2 Si1 2.458007 1_554
Ru2 Si3 2.471007 1_555
Ru2 Ti5 2.736202 1_555
Ru2 Ti3 2.754011 1_555
Ru2 Ti1 2.825458 1_455
Ru2 Ti4 2.849120 1_555
Ru2 Ti0 3.063141 1_555
Ru2 Ti2 3.153718 1_554
Ru3 Si0 2.364309 1_455
Ru3 Si4 2.405764 1_555
Ru3 Si3 2.458007 1_555
Ru3 Si1 2.471014 1_565
Ru3 Ti3 2.736199 1_555
Ru3 Ti5 2.754015 1_566
Ru3 Ti2 2.825466 1_565
Ru3 Ti0 2.849115 1_556
Ru3 Ti4 3.063135 1_455
Ru3 Ti1 3.153723 1_455
