# generated using pymatgen
data_HfSc(ZnNi)2
_symmetry_space_group_name_H-M   'P 1'
_cell_length_a   4.85035040
_cell_length_b   4.85035033
_cell_length_c   5.03943547
_cell_angle_alpha   90.00000000
_cell_angle_beta   90.00000000
_cell_angle_gamma   130.23445391
_symmetry_Int_Tables_number   1
_chemical_formula_structural   HfSc(ZnNi)2
_chemical_formula_sum   'Hf1 Sc1 Zn2 Ni2'
_cell_volume   90.50752277
_cell_formula_units_Z   1
loop_
 _symmetry_equiv_pos_site_id
 _symmetry_equiv_pos_as_xyz
  1  'x, y, z'
loop_
 _atom_site_type_symbol
 _atom_site_label
 _atom_site_symmetry_multiplicity
 _atom_site_fract_x
 _atom_site_fract_y
 _atom_site_fract_z
 _atom_site_occupancy
  Hf  Hf0  1  0.70202207  0.29797793  0.25000000  1
  Sc  Sc0  1  0.29776526  0.70223474  0.75000000  1
  Zn  Zn0  1  0.00174942  0.99825058  0.49973053  1
  Zn  Zn1  1  0.00174942  0.99825058  0.00026947  1
  Ni  Ni0  1  0.40105334  0.59894666  0.25000000  1
  Ni  Ni1  1  0.59566149  0.40433851  0.75000000  1
loop_
_geom_bond_atom_site_label_1
_geom_bond_atom_site_label_2
_geom_bond_distance
_geom_bond_site_symmetry_2
Hf0 Ni0 2.648582 1_555
Hf0 Ni1 2.687947 1_554
Hf0 Ni1 2.687947 1_555
Hf0 Ni0 2.689398 1_545
Hf0 Ni0 2.689398 1_655
Hf0 Zn0 2.922510 1_645
Hf0 Zn1 2.922510 1_645
Hf0 Zn0 2.975747 1_655
Hf0 Zn1 2.975747 1_655
Hf0 Zn0 2.975747 1_545
Hf0 Zn1 2.975747 1_545
Sc0 Zn1 2.894248 1_556
Sc0 Zn0 2.894248 1_555
Sc0 Zn1 2.996350 1_546
Sc0 Zn0 2.996350 1_545
Sc0 Zn1 2.996350 1_656
Sc0 Zn0 2.996350 1_655
Zn0 Zn1 2.517002 1_555
Zn0 Zn1 2.522434 1_556
Ni0 Zn0 2.556196 1_545
Ni0 Zn1 2.556196 1_545
Ni0 Zn0 2.556196 1_655
Ni0 Zn1 2.556196 1_655
Ni0 Sc0 2.678652 1_554
Ni0 Sc0 2.678652 1_555
Ni1 Zn1 2.537467 1_656
Ni1 Zn0 2.537467 1_655
Ni1 Zn1 2.537467 1_546
Ni1 Zn0 2.537467 1_545
Ni1 Sc0 2.621543 1_555
Ni1 Sc0 2.707085 1_545
Ni1 Sc0 2.707085 1_655
