# generated using pymatgen
data_Nb16Cu5Ni3N4
_symmetry_space_group_name_H-M   'P 1'
_cell_length_a   8.26819111
_cell_length_b   8.26029281
_cell_length_c   8.26029197
_cell_angle_alpha   59.99999941
_cell_angle_beta   60.03159422
_cell_angle_gamma   60.03159595
_symmetry_Int_Tables_number   1
_chemical_formula_structural   Nb16Cu5Ni3N4
_chemical_formula_sum   'Nb16 Cu5 Ni3 N4'
_cell_volume   399.11089523
_cell_formula_units_Z   1
loop_
 _symmetry_equiv_pos_site_id
 _symmetry_equiv_pos_as_xyz
  1  'x, y, z'
loop_
 _atom_site_type_symbol
 _atom_site_label
 _atom_site_symmetry_multiplicity
 _atom_site_fract_x
 _atom_site_fract_y
 _atom_site_fract_z
 _atom_site_occupancy
  Nb  Nb0  1  0.11798538  0.62733887  0.62733887  1
  Nb  Nb1  1  0.63143162  0.12046879  0.62404980  1
  Nb  Nb2  1  0.63143162  0.62404980  0.12046879  1
  Nb  Nb3  1  0.63143162  0.62404980  0.62404980  1
  Nb  Nb4  1  0.81615226  0.81590605  0.18397035  1
  Nb  Nb5  1  0.18246246  0.18675486  0.81539084  1
  Nb  Nb6  1  0.81615226  0.18397035  0.81590605  1
  Nb  Nb7  1  0.18246246  0.81539084  0.18675486  1
  Nb  Nb8  1  0.18246246  0.81539084  0.81539084  1
  Nb  Nb9  1  0.81615226  0.18397035  0.18397035  1
  Nb  Nb10  1  0.43532617  0.43567099  0.06450092  1
  Nb  Nb11  1  0.06696642  0.06525957  0.43388701  1
  Nb  Nb12  1  0.43532617  0.06450092  0.43567099  1
  Nb  Nb13  1  0.06696642  0.43388701  0.06525957  1
  Nb  Nb14  1  0.06696642  0.43388701  0.43388701  1
  Nb  Nb15  1  0.43532617  0.06450092  0.06450092  1
  Cu  Cu0  1  0.74813733  0.41728722  0.41728722  1
  Cu  Cu1  1  0.41824992  0.74658273  0.41758317  1
  Cu  Cu2  1  0.41824992  0.41758317  0.74658273  1
  Cu  Cu3  1  0.41824992  0.41758317  0.41758317  1
  Cu  Cu4  1  0.50083879  0.83305340  0.83305340  1
  Ni  Ni0  1  0.82718500  0.51495001  0.82893300  1
  Ni  Ni1  1  0.82718500  0.82893300  0.51495001  1
  Ni  Ni2  1  0.82718500  0.82893300  0.82893300  1
  N  N0  1  0.62323218  0.12558961  0.12558961  1
  N  N1  1  0.12549325  0.62385879  0.12532448  1
  N  N2  1  0.12549325  0.12532448  0.62385879  1
  N  N3  1  0.12549325  0.12532448  0.12532448  1
loop_
_geom_bond_atom_site_label_1
_geom_bond_atom_site_label_2
_geom_bond_distance
_geom_bond_site_symmetry_2
Nb0 Ni2 2.469813 1_455
Nb0 Ni0 2.469817 1_455
Nb0 Ni1 2.469817 1_455
Nb1 Ni1 2.459700 1_545
Nb1 Ni2 2.459704 1_545
Nb2 Ni0 2.459700 1_554
Nb2 Ni2 2.459704 1_554
Nb3 Ni0 2.459707 1_555
Nb3 Ni1 2.459707 1_555
Nb4 Ni2 2.836840 1_554
Nb4 Ni1 2.836856 1_555
Nb5 Ni0 2.830183 1_455
Nb6 Ni2 2.836840 1_545
Nb6 Ni0 2.836857 1_555
Nb7 Ni1 2.830183 1_455
Nb8 Ni2 2.830176 1_455
Nb9 Ni0 2.836848 1_554
Nb9 Ni1 2.836848 1_545
Nb10 Ni0 3.042948 1_554
Nb11 Ni1 3.069658 1_445
Nb11 Ni2 3.069662 1_445
Nb12 Ni1 3.042948 1_545
Nb13 Ni0 3.069658 1_454
Nb13 Ni2 3.069662 1_454
Nb14 Ni0 3.069665 1_455
Nb14 Ni1 3.069665 1_455
Nb15 Ni2 3.042941 1_544
Cu0 Nb2 2.527667 1_555
Cu0 Nb1 2.527667 1_555
Cu0 Nb3 2.527674 1_555
Cu0 Cu2 2.725132 1_555
Cu0 Cu3 2.725132 1_555
Cu0 Cu1 2.725132 1_555
Cu0 Nb13 2.779901 1_655
Cu0 Nb11 2.779902 1_655
Cu0 Nb14 2.779906 1_655
Cu0 Nb6 3.048564 1_555
Cu0 Nb9 3.048564 1_555
Cu0 Nb4 3.048564 1_555
Cu1 Nb2 2.556288 1_555
Cu1 Nb3 2.556295 1_555
Cu1 Nb0 2.564129 1_555
Cu1 Cu2 2.717633 1_555
Cu1 Cu3 2.717633 1_555
Cu1 Nb11 2.776483 1_565
Cu1 Nb15 2.778940 1_565
Cu1 Nb12 2.778941 1_565
Cu1 Nb8 3.046669 1_555
Cu1 Nb7 3.046669 1_555
Cu1 Nb4 3.051212 1_555
Cu2 Nb1 2.556288 1_555
Cu2 Nb3 2.556295 1_555
Cu2 Nb0 2.564129 1_555
Cu2 Cu3 2.717632 1_555
Cu2 Nb13 2.776483 1_556
Cu2 Nb10 2.778940 1_556
Cu2 Nb15 2.778940 1_556
Cu2 Nb5 3.046669 1_555
Cu2 Nb8 3.046669 1_555
Cu2 Nb6 3.051213 1_555
Cu3 Nb2 2.556292 1_555
Cu3 Nb1 2.556293 1_555
Cu3 Nb0 2.564142 1_555
Cu3 Nb14 2.776480 1_555
Cu3 Nb10 2.778940 1_555
Cu3 Nb12 2.778941 1_555
Cu3 Nb5 3.046669 1_555
Cu3 Nb7 3.046669 1_555
Cu3 Nb9 3.051212 1_555
Cu4 Nb3 2.526433 1_555
Cu4 Nb2 2.526440 1_556
Cu4 Nb1 2.526440 1_565
Cu4 Ni1 2.664717 1_555
Cu4 Ni0 2.664717 1_555
Cu4 Ni2 2.664725 1_555
Cu4 Nb7 2.785813 1_556
Cu4 Nb8 2.785814 1_555
Cu4 Nb5 2.785814 1_565
Cu4 Nb12 3.031409 1_565
Cu4 Nb15 3.031409 1_566
Cu4 Nb10 3.031409 1_556
Ni0 Ni1 2.593591 1_555
Ni0 Ni2 2.593591 1_555
Ni1 Ni2 2.593591 1_555
N0 Nb12 2.178100 1_555
N0 Nb10 2.178100 1_555
N0 Nb15 2.178112 1_555
N0 Nb9 2.186091 1_555
N0 Nb6 2.186103 1_554
N0 Nb4 2.186103 1_545
N1 Nb14 2.172522 1_555
N1 Nb13 2.172528 1_555
N1 Nb10 2.179036 1_555
N1 Nb7 2.183701 1_555
N1 Nb8 2.183713 1_554
N1 Nb4 2.184056 1_455
N2 Nb14 2.172522 1_555
N2 Nb11 2.172528 1_555
N2 Nb12 2.179036 1_555
N2 Nb5 2.183701 1_555
N2 Nb8 2.183713 1_545
N2 Nb6 2.184055 1_455
N3 Nb11 2.172520 1_555
N3 Nb13 2.172520 1_555
N3 Nb15 2.179032 1_555
N3 Nb5 2.183717 1_554
N3 Nb7 2.183717 1_545
N3 Nb9 2.184060 1_455
