# generated using pymatgen
data_Na8MnCd7S12
_symmetry_space_group_name_H-M   'P 1'
_cell_length_a   10.20720047
_cell_length_b   10.19316745
_cell_length_c   7.16771027
_cell_angle_alpha   69.55703126
_cell_angle_beta   69.72636547
_cell_angle_gamma   82.73176951
_symmetry_Int_Tables_number   1
_chemical_formula_structural   Na8MnCd7S12
_chemical_formula_sum   'Na8 Mn1 Cd7 S12'
_cell_volume   655.48395842
_cell_formula_units_Z   1
loop_
 _symmetry_equiv_pos_site_id
 _symmetry_equiv_pos_as_xyz
  1  'x, y, z'
loop_
 _atom_site_type_symbol
 _atom_site_label
 _atom_site_symmetry_multiplicity
 _atom_site_fract_x
 _atom_site_fract_y
 _atom_site_fract_z
 _atom_site_occupancy
  Na  Na0  1  0.99006554  0.82072631  0.13008829  1
  Na  Na1  1  0.17974155  0.00865785  0.36210896  1
  Na  Na2  1  0.01259263  0.17606336  0.86932211  1
  Na  Na3  1  0.82071734  0.98462070  0.63898551  1
  Na  Na4  1  0.28115687  0.72231125  0.24476280  1
  Na  Na5  1  0.72221965  0.27700818  0.75196145  1
  Na  Na6  1  0.57637309  0.42642924  0.24770257  1
  Na  Na7  1  0.42207309  0.57835174  0.75404698  1
  Mn  Mn0  1  0.44263928  0.92256591  0.73775263  1
  Cd  Cd0  1  0.08600985  0.55930605  0.75155278  1
  Cd  Cd1  1  0.91228240  0.43916489  0.24851211  1
  Cd  Cd2  1  0.56037003  0.08601137  0.25602817  1
  Cd  Cd3  1  0.36770891  0.21900607  0.80272614  1
  Cd  Cd4  1  0.77619512  0.63526618  0.69867162  1
  Cd  Cd5  1  0.62910305  0.78100955  0.20161293  1
  Cd  Cd6  1  0.21981360  0.36486369  0.30347845  1
  S  S0  1  0.22911202  0.99664421  0.95750276  1
  S  S1  1  0.00218289  0.21757242  0.46889759  1
  S  S2  1  0.78017780  0.99734442  0.03484262  1
  S  S3  1  0.59142527  0.13677647  0.56218532  1
  S  S4  1  0.85474228  0.40735932  0.94469372  1
  S  S5  1  0.40658946  0.85805456  0.46019894  1
  S  S6  1  0.99754153  0.77908761  0.52853557  1
  S  S7  1  0.14223245  0.59123976  0.05551649  1
  S  S8  1  0.44463155  0.29609790  0.05284350  1
  S  S9  1  0.70131536  0.55505349  0.44872765  1
  S  S10  1  0.55363950  0.71982311  0.93498656  1
  S  S11  1  0.29734689  0.44358342  0.55175577  1
loop_
_geom_bond_atom_site_label_1
_geom_bond_atom_site_label_2
_geom_bond_distance
_geom_bond_site_symmetry_2
Na0 S2 2.734226 1_555
Na0 S7 2.747493 1_655
Na0 S6 2.763789 1_555
Na0 S0 2.857457 1_654
Na1 S1 2.757909 1_555
Na1 S5 2.772584 1_545
Na1 S0 2.810550 1_544
Na1 S6 2.823345 1_445
Na2 S0 2.786825 1_545
Na2 S4 2.787771 1_455
Na2 S1 2.789194 1_555
Na2 S2 2.826178 1_446
Na3 S6 2.735892 1_555
Na3 S3 2.750285 1_565
Na3 S2 2.769232 1_556
Na3 S1 2.842749 1_665
Na4 S10 2.899673 1_554
Na4 S0 2.949788 1_554
Na4 S11 2.950808 1_555
Na4 S7 2.951970 1_555
Na4 S6 3.028266 1_455
Na4 S5 3.041232 1_555
Na5 S4 2.921566 1_555
Na5 S8 2.938711 1_556
Na5 S9 2.944039 1_555
Na5 S3 2.962339 1_555
Na5 S2 2.992385 1_546
Na5 S1 3.008696 1_655
Na6 S9 2.904776 1_555
Na6 S8 2.928077 1_555
Na6 S4 2.950722 1_554
Na6 S11 2.954731 1_555
Na6 S3 3.049263 1_555
Na6 S10 3.086096 1_554
Na7 S5 2.917461 1_555
Na7 S10 2.927178 1_555
Na7 S7 2.944729 1_556
Na7 S11 2.953553 1_555
Na7 S8 2.964313 1_556
Na7 S9 2.973011 1_555
Mn0 S0 2.415934 1_555
Mn0 S5 2.451120 1_555
Mn0 S10 2.455562 1_555
Mn0 S3 2.500564 1_565
Cd0 S6 2.525153 1_455
Cd0 S11 2.547733 1_555
Cd0 S7 2.567347 1_556
Cd0 S4 2.655248 1_455
Cd1 S1 2.535131 1_655
Cd1 S9 2.547725 1_555
Cd1 S4 2.572950 1_554
Cd1 S7 2.645404 1_655
Cd2 S2 2.527244 1_545
Cd2 S8 2.544807 1_555
Cd2 S3 2.549633 1_555
Cd2 S5 2.638221 1_545
Cd3 S0 2.517264 1_545
Cd3 S8 2.561974 1_556
Cd3 S11 2.568031 1_555
Cd3 S3 2.585805 1_555
Cd4 S6 2.533909 1_555
Cd4 S9 2.567591 1_555
Cd4 S10 2.574931 1_555
Cd4 S4 2.606921 1_555
Cd5 S2 2.532013 1_555
Cd5 S10 2.570784 1_554
Cd5 S9 2.571150 1_555
Cd5 S5 2.618926 1_555
Cd6 S1 2.523813 1_555
Cd6 S11 2.563442 1_555
Cd6 S8 2.569106 1_555
Cd6 S7 2.599733 1_555
