# generated using pymatgen
data_Na3Bi(CO3)3
_symmetry_space_group_name_H-M   'P 1'
_cell_length_a   6.59499377
_cell_length_b   6.59499404
_cell_length_c   10.05509021
_cell_angle_alpha   90.00000000
_cell_angle_beta   90.00000000
_cell_angle_gamma   114.44066340
_symmetry_Int_Tables_number   1
_chemical_formula_structural   Na3Bi(CO3)3
_chemical_formula_sum   'Na6 Bi2 C6 O18'
_cell_volume   398.14600737
_cell_formula_units_Z   2
loop_
 _symmetry_equiv_pos_site_id
 _symmetry_equiv_pos_as_xyz
  1  'x, y, z'
loop_
 _atom_site_type_symbol
 _atom_site_label
 _atom_site_symmetry_multiplicity
 _atom_site_fract_x
 _atom_site_fract_y
 _atom_site_fract_z
 _atom_site_occupancy
  Na  Na0  1  0.39892025  0.36982296  0.25000000  1
  Na  Na1  1  0.36982296  0.39892025  0.75000000  1
  Na  Na2  1  0.78344980  0.19729862  0.25000000  1
  Na  Na3  1  0.19729862  0.78344980  0.75000000  1
  Na  Na4  1  0.07492584  0.07492584  0.00000000  1
  Na  Na5  1  0.07492584  0.07492584  0.50000000  1
  Bi  Bi0  1  0.20827809  0.76012285  0.25000000  1
  Bi  Bi1  1  0.76012285  0.20827809  0.75000000  1
  C  C0  1  0.78724653  0.76189786  0.25000000  1
  C  C1  1  0.76189786  0.78724653  0.75000000  1
  C  C2  1  0.12504236  0.53252684  0.00129836  1
  C  C3  1  0.53252684  0.12504236  0.99870164  1
  C  C4  1  0.12504236  0.53252684  0.49870164  1
  C  C5  1  0.53252684  0.12504236  0.50129836  1
  O  O0  1  0.59515817  0.76024610  0.25000000  1
  O  O1  1  0.76024610  0.59515817  0.75000000  1
  O  O2  1  0.81770174  0.57908841  0.25000000  1
  O  O3  1  0.57908841  0.81770174  0.75000000  1
  O  O4  1  0.10874295  0.72020286  0.01016462  1
  O  O5  1  0.72020286  0.10874295  0.98983538  1
  O  O6  1  0.10874295  0.72020286  0.48983538  1
  O  O7  1  0.72020286  0.10874295  0.51016462  1
  O  O8  1  0.96698228  0.95025087  0.25000000  1
  O  O9  1  0.95025087  0.96698228  0.75000000  1
  O  O10  1  0.43990997  0.12149478  0.11097056  1
  O  O11  1  0.12149478  0.43990997  0.88902944  1
  O  O12  1  0.43990997  0.12149478  0.38902944  1
  O  O13  1  0.12149478  0.43990997  0.61097056  1
  O  O14  1  0.15033503  0.43951961  0.11117090  1
  O  O15  1  0.43951961  0.15033503  0.88882910  1
  O  O16  1  0.15033503  0.43951961  0.38882910  1
  O  O17  1  0.43951961  0.15033503  0.61117090  1
loop_
_geom_bond_atom_site_label_1
_geom_bond_atom_site_label_2
_geom_bond_distance
_geom_bond_site_symmetry_2
Na0 O12 2.252962 1_555
Na0 O10 2.252962 1_555
Na0 O16 2.339056 1_555
Na0 O14 2.339056 1_555
Na0 O0 2.355252 1_555
Na0 O2 2.525552 1_555
Na1 O11 2.252962 1_555
Na1 O13 2.252962 1_555
Na1 O15 2.339056 1_555
Na1 O17 2.339056 1_555
Na1 O1 2.355252 1_555
Na1 O3 2.525552 1_555
Na2 O8 2.398228 1_545
Na2 O2 2.433145 1_555
Na2 O12 2.529835 1_555
Na2 O10 2.529835 1_555
Na2 O0 2.624533 1_545
Na2 O16 2.675168 1_655
Na2 O14 2.675168 1_655
Na2 O5 2.675225 1_554
Na2 O7 2.675225 1_555
Na3 O9 2.398228 1_455
Na3 O3 2.433145 1_555
Na3 O11 2.529835 1_555
Na3 O13 2.529835 1_555
Na3 O1 2.624532 1_455
Na3 O15 2.675168 1_565
Na3 O17 2.675168 1_565
Na3 O6 2.675225 1_555
Na3 O4 2.675225 1_556
Na4 O5 2.442273 1_454
Na4 O4 2.442274 1_545
Na4 O15 2.507775 1_554
Na4 O14 2.507775 1_555
Na4 O10 2.553745 1_555
Na4 O11 2.553745 1_554
Na4 O9 2.649063 1_444
Na4 O8 2.649063 1_445
Na5 O7 2.442273 1_455
Na5 O6 2.442274 1_545
Na5 O17 2.507775 1_555
Na5 O16 2.507775 1_555
Na5 O12 2.553745 1_555
Na5 O13 2.553745 1_555
Na5 O9 2.649063 1_445
Na5 O8 2.649063 1_445
Bi0 O2 2.348527 1_455
Bi0 O8 2.399125 1_455
Bi0 O16 2.428304 1_555
Bi0 O14 2.428304 1_555
Bi0 O4 2.484524 1_555
Bi0 O6 2.484524 1_555
Bi0 O0 2.551136 1_555
Bi0 O12 2.637246 1_565
Bi0 O10 2.637246 1_565
Bi1 O3 2.348527 1_545
Bi1 O9 2.399125 1_545
Bi1 O15 2.428304 1_555
Bi1 O17 2.428304 1_555
Bi1 O7 2.484524 1_555
Bi1 O5 2.484524 1_555
Bi1 O1 2.551136 1_555
Bi1 O11 2.637246 1_655
Bi1 O13 2.637246 1_655
C0 O0 1.262353 1_555
C0 O2 1.301637 1_555
C0 O8 1.315164 1_555
C1 O1 1.262353 1_555
C1 O3 1.301637 1_555
C1 O9 1.315164 1_555
C2 O11 1.279127 1_554
C2 O4 1.289014 1_555
C2 O14 1.307388 1_555
C3 O10 1.279127 1_556
C3 O5 1.289014 1_555
C3 O15 1.307388 1_555
C4 O13 1.279127 1_555
C4 O6 1.289014 1_555
C4 O16 1.307388 1_555
C5 O12 1.279127 1_555
C5 O7 1.289014 1_555
C5 O17 1.307388 1_555
