# generated using pymatgen
data_KInH6Ru
_symmetry_space_group_name_H-M   'P 1'
_cell_length_a   6.50472972
_cell_length_b   6.51473959
_cell_length_c   6.52659218
_cell_angle_alpha   42.73265416
_cell_angle_beta   42.74244976
_cell_angle_gamma   42.75365646
_symmetry_Int_Tables_number   1
_chemical_formula_structural   KInH6Ru
_chemical_formula_sum   'K1 In1 H6 Ru1'
_cell_volume   115.41824090
_cell_formula_units_Z   1
loop_
 _symmetry_equiv_pos_site_id
 _symmetry_equiv_pos_as_xyz
  1  'x, y, z'
loop_
 _atom_site_type_symbol
 _atom_site_label
 _atom_site_symmetry_multiplicity
 _atom_site_fract_x
 _atom_site_fract_y
 _atom_site_fract_z
 _atom_site_occupancy
  K  K0  1  0.78766909  0.78699688  0.78610678  1
  In  In0  1  0.30499041  0.30638211  0.30804559  1
  H  H0  1  0.76315642  0.76303062  0.24639755  1
  H  H1  1  0.19450595  0.75850321  0.19639839  1
  H  H2  1  0.75794411  0.19481460  0.19588748  1
  H  H3  1  0.19513390  0.19597637  0.75920986  1
  H  H4  1  0.76329411  0.24949515  0.76300410  1
  H  H5  1  0.25201187  0.76328075  0.76317583  1
  Ru  Ru0  1  0.98129214  0.98151731  0.98177342  1
loop_
_geom_bond_atom_site_label_1
_geom_bond_atom_site_label_2
_geom_bond_distance
_geom_bond_site_symmetry_2
H0 Ru0 1.666516 1_554
H0 K0 2.778225 1_554
H1 Ru0 1.703272 1_454
H1 In0 2.056858 1_555
H1 K0 2.686746 1_455
H1 K0 2.690325 1_554
H2 Ru0 1.703039 1_544
H2 In0 2.052768 1_555
H2 K0 2.690654 1_545
H2 K0 2.692961 1_554
H3 Ru0 1.703426 1_445
H3 In0 2.061863 1_555
H3 K0 2.683943 1_455
H3 K0 2.685310 1_545
H4 Ru0 1.665449 1_545
H4 K0 2.791507 1_545
H5 Ru0 1.664546 1_455
H5 K0 2.802482 1_455
