# generated using pymatgen
data_BaHf4(AsO4)6
_symmetry_space_group_name_H-M   'P 1'
_cell_length_a   8.85204145
_cell_length_b   8.85370430
_cell_length_c   9.68774868
_cell_angle_alpha   62.81815438
_cell_angle_beta   62.83419955
_cell_angle_gamma   60.00891231
_symmetry_Int_Tables_number   1
_chemical_formula_structural   BaHf4(AsO4)6
_chemical_formula_sum   'Ba1 Hf4 As6 O24'
_cell_volume   558.72111025
_cell_formula_units_Z   1
loop_
 _symmetry_equiv_pos_site_id
 _symmetry_equiv_pos_as_xyz
  1  'x, y, z'
loop_
 _atom_site_type_symbol
 _atom_site_label
 _atom_site_symmetry_multiplicity
 _atom_site_fract_x
 _atom_site_fract_y
 _atom_site_fract_z
 _atom_site_occupancy
  Ba  Ba0  1  0.50000000  0.50000000  0.50000000  1
  Hf  Hf0  1  0.14787628  0.14819411  0.55599317  1
  Hf  Hf1  1  0.85212372  0.85180589  0.44400683  1
  Hf  Hf2  1  0.64765222  0.64774567  0.05721473  1
  Hf  Hf3  1  0.35234778  0.35225433  0.94278527  1
  As  As0  1  0.96636795  0.24983753  0.25384592  1
  As  As1  1  0.24994683  0.52981401  0.25366860  1
  As  As2  1  0.52939539  0.96628901  0.25422173  1
  As  As3  1  0.03363205  0.75016247  0.74615408  1
  As  As4  1  0.75005317  0.47018599  0.74633140  1
  As  As5  1  0.47060461  0.03371099  0.74577827  1
  O  O0  1  0.97991928  0.28512698  0.40468408  1
  O  O1  1  0.28508590  0.33029229  0.40460848  1
  O  O2  1  0.32983206  0.97987385  0.40495253  1
  O  O3  1  0.02008072  0.71487302  0.59531592  1
  O  O4  1  0.71491410  0.66970771  0.59539152  1
  O  O5  1  0.67016794  0.02012615  0.59504747  1
  O  O6  1  0.49408614  0.86978199  0.92174860  1
  O  O7  1  0.86962186  0.71484642  0.92201063  1
  O  O8  1  0.71480187  0.49376390  0.92215798  1
  O  O9  1  0.50591386  0.13021801  0.07825140  1
  O  O10  1  0.13037814  0.28515358  0.07798937  1
  O  O11  1  0.28519813  0.50623610  0.07784202  1
  O  O12  1  0.02712697  0.96165482  0.69168511  1
  O  O13  1  0.96156427  0.31967574  0.69179277  1
  O  O14  1  0.32001906  0.02717836  0.69135777  1
  O  O15  1  0.97287303  0.03834518  0.30831489  1
  O  O16  1  0.03843573  0.68032426  0.30820723  1
  O  O17  1  0.67998094  0.97282164  0.30864223  1
  O  O18  1  0.60635092  0.76180075  0.22581459  1
  O  O19  1  0.76182053  0.40607618  0.22550000  1
  O  O20  1  0.40608166  0.60665075  0.22522026  1
  O  O21  1  0.39364908  0.23819925  0.77418541  1
  O  O22  1  0.23817947  0.59392382  0.77450000  1
  O  O23  1  0.59391834  0.39334925  0.77477974  1
loop_
_geom_bond_atom_site_label_1
_geom_bond_atom_site_label_2
_geom_bond_distance
_geom_bond_site_symmetry_2
Ba0 O18 2.754549 1_555
Ba0 O21 2.754549 1_555
Ba0 O22 2.756905 1_555
Ba0 O19 2.756905 1_555
Ba0 O23 2.758361 1_555
Ba0 O20 2.758361 1_555
Hf0 O13 2.023908 1_455
Hf0 O12 2.023971 1_545
Hf0 O14 2.024469 1_555
Hf0 O0 2.096039 1_455
Hf0 O1 2.096726 1_555
Hf0 O2 2.096842 1_545
Hf1 O16 2.023908 1_655
Hf1 O15 2.023971 1_565
Hf1 O17 2.024469 1_555
Hf1 O3 2.096039 1_655
Hf1 O4 2.096726 1_555
Hf1 O5 2.096842 1_565
Hf2 O8 2.008285 1_554
Hf2 O6 2.008751 1_554
Hf2 O7 2.008811 1_554
Hf2 O20 2.100679 1_555
Hf2 O19 2.100735 1_555
Hf2 O18 2.100899 1_555
Hf3 O11 2.008285 1_556
Hf3 O9 2.008751 1_556
Hf3 O10 2.008811 1_556
Hf3 O23 2.100679 1_555
Hf3 O22 2.100735 1_555
Hf3 O21 2.100899 1_555
As0 O15 1.674872 1_555
As0 O10 1.678271 1_655
As0 O0 1.691751 1_555
As0 O19 1.694219 1_555
As1 O16 1.675135 1_555
As1 O11 1.678329 1_555
As1 O1 1.691603 1_555
As1 O20 1.694063 1_555
As2 O17 1.674759 1_555
As2 O9 1.678486 1_565
As2 O2 1.691151 1_555
As2 O18 1.693711 1_555
As3 O12 1.674872 1_555
As3 O7 1.678271 1_455
As3 O3 1.691751 1_555
As3 O22 1.694219 1_555
As4 O13 1.675135 1_555
As4 O8 1.678329 1_555
As4 O4 1.691603 1_555
As4 O23 1.694063 1_555
As5 O14 1.674759 1_555
As5 O6 1.678486 1_545
As5 O5 1.691151 1_555
As5 O21 1.693711 1_555
