# generated using pymatgen
data_BaCr2(Sb6Ru)2
_symmetry_space_group_name_H-M   'P 1'
_cell_length_a   8.19993798
_cell_length_b   8.19993715
_cell_length_c   8.24001560
_cell_angle_alpha   109.31644774
_cell_angle_beta   109.36010439
_cell_angle_gamma   109.54051696
_symmetry_Int_Tables_number   1
_chemical_formula_structural   BaCr2(Sb6Ru)2
_chemical_formula_sum   'Ba1 Cr2 Sb12 Ru2'
_cell_volume   427.53834282
_cell_formula_units_Z   1
loop_
 _symmetry_equiv_pos_site_id
 _symmetry_equiv_pos_as_xyz
  1  'x, y, z'
loop_
 _atom_site_type_symbol
 _atom_site_label
 _atom_site_symmetry_multiplicity
 _atom_site_fract_x
 _atom_site_fract_y
 _atom_site_fract_z
 _atom_site_occupancy
  Ba  Ba0  1  0.00000000  0.00000000  0.00000000  1
  Cr  Cr0  1  0.50000000  0.00000000  0.00000000  1
  Cr  Cr1  1  0.00000000  0.50000000  0.00000000  1
  Sb  Sb0  1  0.14895645  0.81038177  0.64860188  1
  Sb  Sb1  1  0.16178089  0.50035457  0.35139812  1
  Sb  Sb2  1  0.50049093  0.64892734  0.83821036  1
  Sb  Sb3  1  0.35001981  0.84809641  0.19811622  1
  Sb  Sb4  1  0.81071798  0.66228057  0.16178964  1
  Sb  Sb5  1  0.66121690  0.84156661  0.50278451  1
  Sb  Sb6  1  0.18928202  0.33771943  0.83821036  1
  Sb  Sb7  1  0.64998019  0.15190359  0.80188378  1
  Sb  Sb8  1  0.33878310  0.15843339  0.49721549  1
  Sb  Sb9  1  0.49950907  0.35107266  0.16178964  1
  Sb  Sb10  1  0.83821911  0.49964543  0.64860188  1
  Sb  Sb11  1  0.85104355  0.18961823  0.35139812  1
  Ru  Ru0  1  0.50000000  0.50000000  0.50000000  1
  Ru  Ru1  1  0.00000000  0.00000000  0.50000000  1
loop_
_geom_bond_atom_site_label_1
_geom_bond_atom_site_label_2
_geom_bond_distance
_geom_bond_site_symmetry_2
Ba0 Sb8 3.565010 1_555
Ba0 Sb5 3.565010 1_444
Ba0 Sb6 3.576905 1_554
Ba0 Sb4 3.576905 1_445
Ba0 Sb9 3.576908 1_555
Ba0 Sb2 3.576908 1_444
Ba0 Sb1 3.595880 1_555
Ba0 Sb10 3.595880 1_444
Ba0 Sb11 3.595882 1_455
Ba0 Sb0 3.595882 1_544
Ba0 Sb3 3.617249 1_545
Ba0 Sb7 3.617249 1_454
Cr0 Sb7 2.716726 1_554
Cr0 Sb3 2.716726 1_545
Cr0 Sb9 2.745351 1_555
Cr0 Sb2 2.745351 1_544
Cr0 Sb11 2.754820 1_555
Cr0 Sb0 2.754820 1_544
Cr1 Sb3 2.716726 1_555
Cr1 Sb7 2.716726 1_454
Cr1 Sb4 2.745344 1_455
Cr1 Sb6 2.745344 1_554
Cr1 Sb1 2.754821 1_555
Cr1 Sb10 2.754821 1_454
Sb0 Sb10 2.939686 1_455
Sb0 Sb1 2.949928 1_555
Sb1 Sb11 2.939686 1_455
Sb2 Sb6 2.944148 1_555
Sb2 Sb4 2.952262 1_556
Sb3 Sb8 2.952388 1_565
Sb3 Sb5 2.958032 1_555
Sb4 Sb9 2.944148 1_555
Sb5 Sb7 2.952388 1_565
Sb6 Sb9 2.952262 1_556
Sb7 Sb8 2.958032 1_555
Sb10 Sb11 2.949928 1_555
Ru0 Sb10 2.635751 1_555
Ru0 Sb1 2.635751 1_555
Ru0 Sb9 2.644932 1_555
Ru0 Sb2 2.644932 1_555
Ru0 Sb5 2.655801 1_555
Ru0 Sb8 2.655801 1_555
Ru1 Sb0 2.635758 1_545
Ru1 Sb11 2.635758 1_455
Ru1 Sb6 2.644933 1_555
Ru1 Sb4 2.644933 1_445
Ru1 Sb8 2.655809 1_555
Ru1 Sb5 2.655809 1_445
