# generated using pymatgen
data_BaIn2(SeO3)4
_symmetry_space_group_name_H-M   'P 1'
_cell_length_a   5.37041270
_cell_length_b   10.37302130
_cell_length_c   14.32847718
_cell_angle_alpha   50.18282727
_cell_angle_beta   90.00000000
_cell_angle_gamma   90.00000000
_symmetry_Int_Tables_number   1
_chemical_formula_structural   BaIn2(SeO3)4
_chemical_formula_sum   'Ba2 In4 Se8 O24'
_cell_volume   613.09249835
_cell_formula_units_Z   2
loop_
 _symmetry_equiv_pos_site_id
 _symmetry_equiv_pos_as_xyz
  1  'x, y, z'
loop_
 _atom_site_type_symbol
 _atom_site_label
 _atom_site_symmetry_multiplicity
 _atom_site_fract_x
 _atom_site_fract_y
 _atom_site_fract_z
 _atom_site_occupancy
  Ba  Ba0  1  0.04164705  0.00000000  0.75000000  1
  Ba  Ba1  1  0.95835295  0.00000000  0.25000000  1
  In  In0  1  0.00000000  0.50000000  0.50000000  1
  In  In1  1  0.50000000  0.00000000  0.00000000  1
  In  In2  1  0.50000000  0.00000000  0.50000000  1
  In  In3  1  0.00000000  0.50000000  0.00000000  1
  Se  Se0  1  0.50213539  0.32457226  0.18854729  1
  Se  Se1  1  0.01145890  0.74066651  0.60096549  1
  Se  Se2  1  0.01145890  0.25933349  0.89903451  1
  Se  Se3  1  0.98854110  0.25933349  0.39903451  1
  Se  Se4  1  0.49786461  0.32457226  0.68854729  1
  Se  Se5  1  0.49786461  0.67542774  0.81145271  1
  Se  Se6  1  0.50213539  0.67542774  0.31145271  1
  Se  Se7  1  0.98854110  0.74066651  0.10096549  1
  O  O0  1  0.21925602  0.71099761  0.34614420  1
  O  O1  1  0.28858111  0.78920897  0.05008282  1
  O  O2  1  0.78074398  0.71099761  0.84614420  1
  O  O3  1  0.83091096  0.90307185  0.97138814  1
  O  O4  1  0.71141889  0.78920897  0.55008282  1
  O  O5  1  0.31110920  0.33505487  0.58739807  1
  O  O6  1  0.16908904  0.09692815  0.02861186  1
  O  O7  1  0.68889080  0.33505487  0.08739807  1
  O  O8  1  0.78074398  0.28900239  0.65385580  1
  O  O9  1  0.58172298  0.12196202  0.31205554  1
  O  O10  1  0.68889080  0.66494513  0.41260193  1
  O  O11  1  0.28858111  0.21079103  0.44991718  1
  O  O12  1  0.58172298  0.87803798  0.18794446  1
  O  O13  1  0.83091096  0.09692815  0.52861186  1
  O  O14  1  0.41827702  0.12196202  0.81205554  1
  O  O15  1  0.06386066  0.42576226  0.89266815  1
  O  O16  1  0.71141889  0.21079103  0.94991718  1
  O  O17  1  0.93613934  0.42576226  0.39266815  1
  O  O18  1  0.06386066  0.57423774  0.60733185  1
  O  O19  1  0.41827702  0.87803798  0.68794446  1
  O  O20  1  0.31110920  0.66494513  0.91260193  1
  O  O21  1  0.16908904  0.90307185  0.47138814  1
  O  O22  1  0.93613934  0.57423774  0.10733185  1
  O  O23  1  0.21925602  0.28900239  0.15385580  1
loop_
_geom_bond_atom_site_label_1
_geom_bond_atom_site_label_2
_geom_bond_distance
_geom_bond_site_symmetry_2
Ba0 O8 2.749370 1_455
Ba0 O2 2.749370 1_445
Ba0 O14 2.814764 1_555
Ba0 O19 2.814764 1_545
Ba0 O3 2.875709 1_445
Ba0 O13 2.875709 1_455
Ba0 O5 3.038325 1_555
Ba0 O20 3.038325 1_545
Ba1 O23 2.749370 1_655
Ba1 O0 2.749370 1_645
Ba1 O9 2.814764 1_555
Ba1 O12 2.814764 1_545
Ba1 O21 2.875709 1_645
Ba1 O6 2.875709 1_655
Ba1 O7 3.038325 1_555
Ba1 O10 3.038325 1_545
In0 O5 2.131469 1_555
In0 O10 2.131469 1_455
In0 O18 2.143005 1_555
In0 O17 2.143005 1_455
In0 O0 2.203965 1_555
In0 O8 2.203965 1_455
In1 O16 2.139059 1_554
In1 O1 2.139059 1_545
In1 O12 2.163795 1_545
In1 O14 2.163795 1_554
In1 O6 2.205686 1_555
In1 O3 2.205686 1_544
In2 O11 2.139059 1_555
In2 O4 2.139059 1_545
In2 O19 2.163795 1_545
In2 O9 2.163795 1_555
In2 O13 2.205686 1_555
In2 O21 2.205686 1_545
In3 O20 2.131469 1_554
In3 O7 2.131469 1_455
In3 O22 2.143005 1_455
In3 O15 2.143005 1_554
In3 O23 2.203965 1_555
In3 O2 2.203965 1_454
O0 Se6 1.710558 1_555
O1 Se7 1.706268 1_455
O2 Se5 1.710558 1_555
O3 Se7 1.730920 1_556
O4 Se1 1.706268 1_655
O5 Se4 1.707754 1_555
O6 Se2 1.730920 1_554
O7 Se0 1.707754 1_555
O8 Se4 1.710558 1_555
O9 Se0 1.722871 1_555
O10 Se6 1.707754 1_555
O11 Se3 1.706268 1_455
O12 Se6 1.722871 1_555
O13 Se3 1.730920 1_555
O14 Se4 1.722871 1_555
O15 Se2 1.692982 1_555
O16 Se2 1.706268 1_655
O17 Se3 1.692982 1_555
O18 Se1 1.692982 1_555
O19 Se5 1.722871 1_555
O20 Se5 1.707754 1_555
O21 Se1 1.730920 1_555
O22 Se7 1.692982 1_555
O23 Se0 1.710558 1_555
