# generated using pymatgen
data_Y2B4Os3Rh
_symmetry_space_group_name_H-M   'P 1'
_cell_length_a   6.67967578
_cell_length_b   5.93456492
_cell_length_c   5.54947710
_cell_angle_alpha   71.04291266
_cell_angle_beta   57.16795508
_cell_angle_gamma   52.02775939
_symmetry_Int_Tables_number   1
_chemical_formula_structural   Y2B4Os3Rh
_chemical_formula_sum   'Y2 B4 Os3 Rh1'
_cell_volume   145.70369012
_cell_formula_units_Z   1
loop_
 _symmetry_equiv_pos_site_id
 _symmetry_equiv_pos_as_xyz
  1  'x, y, z'
loop_
 _atom_site_type_symbol
 _atom_site_label
 _atom_site_symmetry_multiplicity
 _atom_site_fract_x
 _atom_site_fract_y
 _atom_site_fract_z
 _atom_site_occupancy
  Y  Y0  1  0.99996454  0.99996454  0.00003546  1
  Y  Y1  1  0.24605533  0.24605533  0.25394467  1
  B  B0  1  0.68324181  0.31494750  0.68397398  1
  B  B1  1  0.31494750  0.68324181  0.31783671  1
  B  B2  1  0.94197583  0.56544576  0.94263325  1
  B  B3  1  0.56544576  0.94197583  0.54994516  1
  Os  Os0  1  0.63771459  0.63771459  0.36228541  1
  Os  Os1  1  0.36174850  0.36174850  0.63825150  1
  Os  Os2  1  0.88649038  0.88649038  0.61350962  1
  Rh  Rh0  1  0.61241576  0.61241576  0.88758424  1
loop_
_geom_bond_atom_site_label_1
_geom_bond_atom_site_label_2
_geom_bond_distance
_geom_bond_site_symmetry_2
B0 Os2 2.069737 1_545
B0 Rh0 2.074999 1_555
B0 Os1 2.136413 1_555
B0 Os0 2.144445 1_555
B0 Y0 2.841392 1_546
B0 Y1 3.001588 1_655
B0 Y1 3.051689 1_556
B1 Os2 2.069737 1_455
B1 Rh0 2.074999 1_554
B1 Os1 2.136413 1_555
B1 Os0 2.144446 1_555
B1 Y0 2.841392 1_455
B1 Y1 3.001588 1_565
B1 Y1 3.051689 1_555
B2 Os0 2.044990 1_556
B2 Os1 2.048533 1_655
B2 Os2 2.169675 1_555
B2 Rh0 2.221664 1_555
B2 Y1 2.764572 1_656
B2 Y0 2.966099 1_556
B2 Y0 3.058287 1_546
B3 Os0 2.044989 1_555
B3 Os1 2.048532 1_565
B3 Os2 2.169675 1_555
B3 Rh0 2.221664 1_555
B3 Y1 2.764572 1_565
B3 Y0 2.966099 1_555
B3 Y0 3.058288 1_456
Os0 Y1 2.985354 1_565
Os0 Y1 2.985354 1_655
Os1 Y1 3.001416 1_555
Os1 Y1 3.001416 1_556
Os2 Y0 2.993118 1_556
Os2 Y0 2.993118 1_555
Rh0 Y0 3.000186 1_546
Rh0 Y0 3.000186 1_456
