# generated using pymatgen
data_Na2TiAs2Pt
_symmetry_space_group_name_H-M   'P 1'
_cell_length_a   4.11470061
_cell_length_b   4.11470061
_cell_length_c   7.13219245
_cell_angle_alpha   90.00000000
_cell_angle_beta   90.00000000
_cell_angle_gamma   90.00000000
_symmetry_Int_Tables_number   1
_chemical_formula_structural   Na2TiAs2Pt
_chemical_formula_sum   'Na2 Ti1 As2 Pt1'
_cell_volume   120.75344648
_cell_formula_units_Z   1
loop_
 _symmetry_equiv_pos_site_id
 _symmetry_equiv_pos_as_xyz
  1  'x, y, z'
loop_
 _atom_site_type_symbol
 _atom_site_label
 _atom_site_symmetry_multiplicity
 _atom_site_fract_x
 _atom_site_fract_y
 _atom_site_fract_z
 _atom_site_occupancy
  Na  Na0  1  0.50000000  0.00000000  0.64866941  1
  Na  Na1  1  0.00000000  0.50000000  0.35133059  1
  Ti  Ti0  1  0.00000000  0.00000000  0.00000000  1
  As  As0  1  0.50000000  0.00000000  0.21521381  1
  As  As1  1  0.00000000  0.50000000  0.78478619  1
  Pt  Pt0  1  0.50000000  0.50000000  0.00000000  1
loop_
_geom_bond_atom_site_label_1
_geom_bond_atom_site_label_2
_geom_bond_distance
_geom_bond_site_symmetry_2
Na0 Pt0 3.242146 1_556
Na0 Pt0 3.242146 1_546
Na0 Ti0 3.242146 1_656
Na0 Ti0 3.242146 1_556
Na1 Pt0 3.242146 1_555
Na1 Pt0 3.242146 1_455
Na1 Ti0 3.242146 1_565
Na1 Ti0 3.242146 1_555
As0 Ti0 2.566856 1_655
As0 Pt0 2.566856 1_545
As0 Ti0 2.566856 1_555
As0 Pt0 2.566856 1_555
As0 Na1 3.067223 1_645
As0 Na1 3.067223 1_545
As0 Na1 3.067223 1_555
As0 Na1 3.067223 1_655
As0 Na0 3.091489 1_555
As1 Pt0 2.566856 1_456
As1 Ti0 2.566856 1_566
As1 Ti0 2.566856 1_556
As1 Pt0 2.566856 1_556
As1 Na0 3.067223 1_555
As1 Na0 3.067223 1_565
As1 Na0 3.067223 1_465
As1 Na0 3.067223 1_455
As1 Na1 3.091489 1_555
Pt0 Ti0 2.909533 1_555
Pt0 Ti0 2.909533 1_665
Pt0 Ti0 2.909533 1_655
Pt0 Ti0 2.909533 1_565
