# generated using pymatgen
data_PbS4(BrO8)2
_symmetry_space_group_name_H-M   'P 1'
_cell_length_a   6.54320847
_cell_length_b   6.54320802
_cell_length_c   8.83416112
_cell_angle_alpha   75.23505523
_cell_angle_beta   75.23505168
_cell_angle_gamma   88.50051744
_symmetry_Int_Tables_number   1
_chemical_formula_structural   PbS4(BrO8)2
_chemical_formula_sum   'Pb1 S4 Br2 O16'
_cell_volume   353.35190892
_cell_formula_units_Z   1
loop_
 _symmetry_equiv_pos_site_id
 _symmetry_equiv_pos_as_xyz
  1  'x, y, z'
loop_
 _atom_site_type_symbol
 _atom_site_label
 _atom_site_symmetry_multiplicity
 _atom_site_fract_x
 _atom_site_fract_y
 _atom_site_fract_z
 _atom_site_occupancy
  Pb  Pb0  1  0.00000000  0.00000000  0.00000000  1
  S  S0  1  0.08418777  0.58450859  0.73575136  1
  S  S1  1  0.58450859  0.08418777  0.73575136  1
  S  S2  1  0.91581223  0.41549141  0.26424864  1
  S  S3  1  0.41549141  0.91581223  0.26424864  1
  Br  Br0  1  0.00000000  0.00000000  0.50000000  1
  Br  Br1  1  0.50000000  0.50000000  0.50000000  1
  O  O0  1  0.32395052  0.63188574  0.67342425  1
  O  O1  1  0.63188574  0.32395052  0.67342425  1
  O  O2  1  0.67604948  0.36811426  0.32657575  1
  O  O3  1  0.36811426  0.67604948  0.32657575  1
  O  O4  1  0.01449997  0.69188684  0.86128962  1
  O  O5  1  0.69188684  0.01449997  0.86128962  1
  O  O6  1  0.98550003  0.30811316  0.13871038  1
  O  O7  1  0.30811316  0.98550003  0.13871038  1
  O  O8  1  0.98952263  0.67980161  0.59178147  1
  O  O9  1  0.67980161  0.98952263  0.59178147  1
  O  O10  1  0.01047737  0.32019839  0.40821853  1
  O  O11  1  0.32019839  0.01047737  0.40821853  1
  O  O12  1  0.03541354  0.36157736  0.77673490  1
  O  O13  1  0.36157736  0.03541354  0.77673490  1
  O  O14  1  0.96458646  0.63842264  0.22326510  1
  O  O15  1  0.63842264  0.96458646  0.22326510  1
loop_
_geom_bond_atom_site_label_1
_geom_bond_atom_site_label_2
_geom_bond_distance
_geom_bond_site_symmetry_2
Br0 O10 2.040828 1_555
Br0 O8 2.040828 1_445
Br0 O11 2.040828 1_555
Br0 O9 2.040828 1_445
Br1 O0 2.034981 1_555
Br1 O2 2.034981 1_555
Br1 O1 2.034981 1_555
Br1 O3 2.034981 1_555
O0 S0 1.535780 1_555
O1 S1 1.535780 1_555
O2 S2 1.535780 1_555
O3 S3 1.535780 1_555
O4 S0 1.433227 1_555
O4 Pb0 2.600956 1_566
O5 S1 1.433227 1_555
O5 Pb0 2.600956 1_656
O6 S2 1.433227 1_555
O6 Pb0 2.600956 1_655
O7 S3 1.433227 1_555
O7 Pb0 2.600956 1_565
O8 S0 1.538567 1_655
O9 S1 1.538567 1_565
O10 S2 1.538567 1_455
O11 S3 1.538567 1_545
O12 S0 1.434216 1_555
O12 Pb0 2.637901 1_556
O13 S1 1.434216 1_555
O13 Pb0 2.637901 1_556
O14 S2 1.434216 1_555
O14 Pb0 2.637901 1_665
O15 S3 1.434216 1_555
O15 Pb0 2.637901 1_665
