# generated using pymatgen
data_BaNaCrN3
_symmetry_space_group_name_H-M   'P 1'
_cell_length_a   6.29124083
_cell_length_b   6.29124083
_cell_length_c   12.91634357
_cell_angle_alpha   90.00000000
_cell_angle_beta   90.00000000
_cell_angle_gamma   125.94210025
_symmetry_Int_Tables_number   1
_chemical_formula_structural   BaNaCrN3
_chemical_formula_sum   'Ba4 Na4 Cr4 N12'
_cell_volume   413.89327967
_cell_formula_units_Z   4
loop_
 _symmetry_equiv_pos_site_id
 _symmetry_equiv_pos_as_xyz
  1  'x, y, z'
loop_
 _atom_site_type_symbol
 _atom_site_label
 _atom_site_symmetry_multiplicity
 _atom_site_fract_x
 _atom_site_fract_y
 _atom_site_fract_z
 _atom_site_occupancy
  Ba  Ba0  1  0.85663955  0.14336045  0.57839919  1
  Ba  Ba1  1  0.14336045  0.85663955  0.42160081  1
  Ba  Ba2  1  0.64336045  0.35663955  0.07839919  1
  Ba  Ba3  1  0.35663955  0.64336045  0.92160081  1
  Na  Na0  1  0.54066725  0.45933275  0.66292830  1
  Na  Na1  1  0.45933275  0.54066725  0.33707170  1
  Na  Na2  1  0.95933275  0.04066725  0.16292830  1
  Na  Na3  1  0.04066725  0.95933275  0.83707170  1
  Cr  Cr0  1  0.73689221  0.26310779  0.82670728  1
  Cr  Cr1  1  0.26310779  0.73689221  0.17329272  1
  Cr  Cr2  1  0.76310779  0.23689221  0.32670728  1
  Cr  Cr3  1  0.23689221  0.76310779  0.67329272  1
  N  N0  1  0.82365866  0.17634134  0.93309451  1
  N  N1  1  0.17634134  0.82365866  0.06690549  1
  N  N2  1  0.67634134  0.32365866  0.43309451  1
  N  N3  1  0.32365866  0.67634134  0.56690549  1
  N  N4  1  0.59178026  0.40821974  0.85889846  1
  N  N5  1  0.40821974  0.59178026  0.14110154  1
  N  N6  1  0.90821974  0.09178026  0.35889846  1
  N  N7  1  0.09178026  0.90821974  0.64110154  1
  N  N8  1  0.52383808  0.97616192  0.75000000  1
  N  N9  1  0.97616192  0.52383808  0.25000000  1
  N  N10  1  0.47616192  0.02383808  0.25000000  1
  N  N11  1  0.02383808  0.47616192  0.75000000  1
loop_
_geom_bond_atom_site_label_1
_geom_bond_atom_site_label_2
_geom_bond_distance
_geom_bond_site_symmetry_2
Ba0 N7 2.757132 1_645
Ba0 N2 2.757915 1_555
Ba0 N8 2.795965 1_545
Ba0 N11 2.795965 1_655
Ba0 N3 2.886614 1_545
Ba0 N3 2.886614 1_655
Ba0 N6 2.893489 1_555
Ba1 N6 2.757132 1_465
Ba1 N3 2.757915 1_555
Ba1 N10 2.795965 1_565
Ba1 N9 2.795965 1_455
Ba1 N2 2.886614 1_565
Ba1 N2 2.886614 1_455
Ba1 N7 2.893489 1_555
Ba2 N5 2.757132 1_555
Ba2 N0 2.757915 1_554
Ba2 N9 2.795965 1_555
Ba2 N10 2.795965 1_555
Ba2 N1 2.886614 1_655
Ba2 N1 2.886614 1_545
Ba2 N4 2.893489 1_554
Ba3 N4 2.757132 1_555
Ba3 N1 2.757915 1_556
Ba3 N11 2.795965 1_555
Ba3 N8 2.795965 1_555
Ba3 N0 2.886614 1_455
Ba3 N0 2.886614 1_565
Ba3 N5 2.893489 1_556
Cr0 N4 1.678748 1_555
Cr0 N0 1.683446 1_555
Cr0 N11 1.787898 1_655
Cr0 N8 1.787898 1_545
Cr1 N5 1.678748 1_555
Cr1 N1 1.683446 1_555
Cr1 N9 1.787898 1_455
Cr1 N10 1.787898 1_565
Cr2 N6 1.678748 1_555
Cr2 N2 1.683446 1_555
Cr2 N10 1.787898 1_555
Cr2 N9 1.787898 1_555
Cr3 N7 1.678748 1_555
Cr3 N3 1.683446 1_555
Cr3 N8 1.787898 1_555
Cr3 N11 1.787898 1_555
N0 Na3 2.730239 1_645
N1 Na2 2.730239 1_465
N2 Na1 2.730239 1_555
N3 Na0 2.730239 1_555
N4 Na0 2.595238 1_555
N4 Na3 2.929425 1_545
N4 Na3 2.929425 1_655
N5 Na1 2.595238 1_555
N5 Na2 2.929425 1_565
N5 Na2 2.929425 1_455
N6 Na2 2.595238 1_555
N6 Na1 2.929425 1_655
N6 Na1 2.929425 1_545
N7 Na3 2.595238 1_555
N7 Na0 2.929425 1_455
N7 Na0 2.929425 1_565
