# generated using pymatgen
data_Hf15Ta(Rh2N)4
_symmetry_space_group_name_H-M   'P 1'
_cell_length_a   8.65725594
_cell_length_b   8.60696741
_cell_length_c   8.60696898
_cell_angle_alpha   60.00000150
_cell_angle_beta   60.19197074
_cell_angle_gamma   60.19197170
_symmetry_Int_Tables_number   1
_chemical_formula_structural   Hf15Ta(Rh2N)4
_chemical_formula_sum   'Hf15 Ta1 Rh8 N4'
_cell_volume   454.79926432
_cell_formula_units_Z   1
loop_
 _symmetry_equiv_pos_site_id
 _symmetry_equiv_pos_as_xyz
  1  'x, y, z'
loop_
 _atom_site_type_symbol
 _atom_site_label
 _atom_site_symmetry_multiplicity
 _atom_site_fract_x
 _atom_site_fract_y
 _atom_site_fract_z
 _atom_site_occupancy
  Hf  Hf0  1  0.62500000  0.12500000  0.62500000  1
  Hf  Hf1  1  0.62500000  0.62500000  0.12500000  1
  Hf  Hf2  1  0.62500000  0.62500000  0.62500000  1
  Hf  Hf3  1  0.81684133  0.81696025  0.18309871  1
  Hf  Hf4  1  0.18359314  0.18517978  0.81561404  1
  Hf  Hf5  1  0.81684133  0.18309871  0.81696025  1
  Hf  Hf6  1  0.18359314  0.81561404  0.18517978  1
  Hf  Hf7  1  0.18359314  0.81561404  0.81561404  1
  Hf  Hf8  1  0.81684133  0.18309871  0.18309871  1
  Hf  Hf9  1  0.43315867  0.43303975  0.06690129  1
  Hf  Hf10  1  0.06640686  0.06482022  0.43438596  1
  Hf  Hf11  1  0.43315867  0.06690129  0.43303975  1
  Hf  Hf12  1  0.06640686  0.43438596  0.06482022  1
  Hf  Hf13  1  0.06640686  0.43438596  0.43438596  1
  Hf  Hf14  1  0.43315867  0.06690129  0.06690129  1
  Ta  Ta0  1  0.12500000  0.62500000  0.62500000  1
  Rh  Rh0  1  0.77350253  0.40883282  0.40883282  1
  Rh  Rh1  1  0.40572088  0.76595219  0.41416297  1
  Rh  Rh2  1  0.40572088  0.41416297  0.76595219  1
  Rh  Rh3  1  0.40572088  0.41416297  0.41416297  1
  Rh  Rh4  1  0.47649747  0.84116718  0.84116718  1
  Rh  Rh5  1  0.84427912  0.48404781  0.83583703  1
  Rh  Rh6  1  0.84427912  0.83583703  0.48404781  1
  Rh  Rh7  1  0.84427912  0.83583703  0.83583703  1
  N  N0  1  0.62500000  0.12500000  0.12500000  1
  N  N1  1  0.12500000  0.62500000  0.12500000  1
  N  N2  1  0.12500000  0.12500000  0.62500000  1
  N  N3  1  0.12500000  0.12500000  0.12500000  1
loop_
_geom_bond_atom_site_label_1
_geom_bond_atom_site_label_2
_geom_bond_distance
_geom_bond_site_symmetry_2
Hf0 Rh0 2.698445 1_555
Hf0 Rh4 2.698445 1_545
Hf0 Rh2 2.702266 1_555
Hf0 Rh6 2.702266 1_545
Hf0 Rh7 2.702270 1_545
Hf0 Rh3 2.702270 1_555
Hf1 Rh0 2.698445 1_555
Hf1 Rh4 2.698445 1_554
Hf1 Rh1 2.702266 1_555
Hf1 Rh5 2.702266 1_554
Hf1 Rh7 2.702270 1_554
Hf1 Rh3 2.702270 1_555
Hf2 Rh4 2.698438 1_555
Hf2 Rh0 2.698438 1_555
Hf2 Rh6 2.702272 1_555
Hf2 Rh2 2.702272 1_555
Hf2 Rh5 2.702272 1_555
Hf2 Rh1 2.702272 1_555
Hf3 N0 2.271532 1_565
Hf3 N1 2.283584 1_655
Hf3 Rh7 2.804120 1_554
Hf3 Rh6 2.804137 1_555
Hf4 N3 2.270578 1_556
Hf4 N2 2.270586 1_555
Hf4 Rh4 2.772022 1_545
Hf4 Rh5 2.775482 1_455
Hf5 N0 2.271533 1_556
Hf5 N2 2.283584 1_655
Hf5 Rh7 2.804119 1_545
Hf5 Rh5 2.804136 1_555
Hf6 N3 2.270578 1_565
Hf6 N1 2.270586 1_555
Hf6 Rh4 2.772022 1_554
Hf6 Rh6 2.775482 1_455
Hf7 N2 2.270580 1_565
Hf7 N1 2.270581 1_556
Hf7 Rh4 2.772012 1_555
Hf7 Rh7 2.775481 1_455
Hf8 N0 2.271526 1_555
Hf8 N3 2.283586 1_655
Hf8 Rh6 2.804127 1_545
Hf8 Rh5 2.804127 1_554
Hf9 N0 2.271532 1_555
Hf9 N1 2.283584 1_555
Hf9 Rh3 2.804120 1_555
Hf9 Rh2 2.804137 1_554
Hf10 N3 2.270578 1_555
Hf10 N2 2.270586 1_555
Hf10 Rh0 2.772022 1_455
Hf10 Rh1 2.775482 1_545
Hf11 N0 2.271533 1_555
Hf11 N2 2.283584 1_555
Hf11 Rh3 2.804119 1_555
Hf11 Rh1 2.804136 1_545
Hf12 N3 2.270578 1_555
Hf12 N1 2.270586 1_555
Hf12 Rh0 2.772022 1_455
Hf12 Rh2 2.775482 1_554
Hf13 N2 2.270580 1_555
Hf13 N1 2.270581 1_555
Hf13 Rh0 2.772012 1_455
Hf13 Rh3 2.775481 1_555
Hf14 N0 2.271526 1_555
Hf14 N3 2.283586 1_555
Hf14 Rh2 2.804127 1_554
Hf14 Rh1 2.804127 1_545
Rh1 Ta0 2.648814 1_555
Rh2 Ta0 2.648814 1_555
Rh3 Ta0 2.648819 1_555
Rh5 Ta0 2.648814 1_655
Rh6 Ta0 2.648814 1_655
Rh7 Ta0 2.648819 1_655
