# generated using pymatgen
data_Ca4Sn4As2Rh7
_symmetry_space_group_name_H-M   'P 1'
_cell_length_a   7.45523093
_cell_length_b   7.45523282
_cell_length_c   7.48800124
_cell_angle_alpha   109.28160214
_cell_angle_beta   109.28161247
_cell_angle_gamma   109.67438145
_symmetry_Int_Tables_number   1
_chemical_formula_structural   Ca4Sn4As2Rh7
_chemical_formula_sum   'Ca4 Sn4 As2 Rh7'
_cell_volume   321.07117244
_cell_formula_units_Z   1
loop_
 _symmetry_equiv_pos_site_id
 _symmetry_equiv_pos_as_xyz
  1  'x, y, z'
loop_
 _atom_site_type_symbol
 _atom_site_label
 _atom_site_symmetry_multiplicity
 _atom_site_fract_x
 _atom_site_fract_y
 _atom_site_fract_z
 _atom_site_occupancy
  Ca  Ca0  1  0.45825676  0.45825676  0.46397072  1
  Ca  Ca1  1  0.00779780  0.50779780  0.01559561  1
  Ca  Ca2  1  0.50779780  0.00779780  0.01559561  1
  Ca  Ca3  1  0.00571396  0.00571396  0.46397072  1
  Sn  Sn0  1  0.69979593  0.98994625  0.68974218  1
  Sn  Sn1  1  0.66831740  0.66831740  0.97943910  1
  Sn  Sn2  1  0.31112170  0.31112170  0.97943910  1
  Sn  Sn3  1  0.98994625  0.69979593  0.68974218  1
  As  As0  1  0.99425444  0.34209073  0.33634517  1
  As  As1  1  0.34209073  0.99425444  0.33634517  1
  Rh  Rh0  1  0.50338989  0.74998552  0.25337440  1
  Rh  Rh1  1  0.75245318  0.25245318  0.50490635  1
  Rh  Rh2  1  0.25245318  0.75245318  0.50490635  1
  Rh  Rh3  1  0.23592440  0.50440188  0.74032428  1
  Rh  Rh4  1  0.01629918  0.01629918  0.03259637  1
  Rh  Rh5  1  0.50440188  0.23592440  0.74032428  1
  Rh  Rh6  1  0.74998552  0.50338989  0.25337440  1
loop_
_geom_bond_atom_site_label_1
_geom_bond_atom_site_label_2
_geom_bond_distance
_geom_bond_site_symmetry_2
Ca0 Rh3 3.054014 1_555
Ca0 Rh5 3.054014 1_555
Ca0 Rh1 3.064508 1_555
Ca0 Rh2 3.064508 1_555
Ca0 Rh6 3.074558 1_555
Ca0 Rh0 3.074559 1_555
Ca0 Sn2 3.082723 1_554
Ca0 Sn1 3.188700 1_555
Ca0 Sn3 3.251233 1_555
Ca0 Sn0 3.251234 1_555
Ca0 Rh4 3.283084 1_555
Ca1 Rh2 3.001840 1_555
Ca1 Rh6 3.020215 1_455
Ca1 Rh0 3.020220 1_555
Ca1 Rh5 3.074323 1_454
Ca1 Rh3 3.074336 1_554
Ca1 Sn1 3.116368 1_454
Ca1 Sn2 3.116368 1_554
Ca1 Rh1 3.132994 1_454
Ca1 Sn3 3.200084 1_454
Ca1 Sn0 3.200085 1_444
Ca2 Rh1 3.001840 1_555
Ca2 Rh0 3.020215 1_545
Ca2 Rh6 3.020221 1_555
Ca2 Rh3 3.074324 1_544
Ca2 Rh5 3.074336 1_554
Ca2 Sn2 3.116369 1_554
Ca2 Sn1 3.116369 1_544
Ca2 Rh2 3.132994 1_544
Ca2 Sn3 3.200084 1_444
Ca2 Sn0 3.200084 1_544
Ca3 Rh5 3.054025 1_555
Ca3 Rh3 3.054026 1_555
Ca3 Rh2 3.064508 1_545
Ca3 Rh1 3.064508 1_455
Ca3 Rh0 3.074551 1_445
Ca3 Rh6 3.074552 1_445
Ca3 Sn1 3.082723 1_444
Ca3 Sn2 3.188700 1_555
Ca3 Sn0 3.251233 1_445
Ca3 Sn3 3.251233 1_445
Ca3 Rh4 3.283094 1_555
As0 Rh6 2.523718 1_555
As0 Rh3 2.525101 1_655
As0 Rh1 2.556937 1_555
As0 Rh2 2.556938 1_655
As0 Rh4 2.822552 1_655
As0 Ca0 2.980364 1_655
As0 Ca3 2.980365 1_655
As0 Ca2 3.056239 1_555
As0 Ca1 3.056239 1_655
As1 Rh0 2.523718 1_555
As1 Rh5 2.525101 1_565
As1 Rh1 2.556937 1_565
As1 Rh2 2.556938 1_555
As1 Rh4 2.822551 1_565
As1 Ca3 2.980365 1_565
As1 Ca0 2.980365 1_565
As1 Ca2 3.056239 1_565
As1 Ca1 3.056240 1_555
Rh0 Sn0 2.690173 1_555
Rh0 Sn1 2.726729 1_554
Rh0 Sn2 2.726735 1_554
Rh1 Sn0 2.744107 1_545
Rh1 Sn3 2.744108 1_555
Rh2 Sn0 2.744107 1_555
Rh2 Sn3 2.744107 1_455
Rh3 Sn1 2.679804 1_555
Rh3 Sn2 2.679814 1_555
Rh3 Sn3 2.707911 1_455
Rh4 Sn0 2.747973 1_444
Rh4 Sn3 2.747973 1_444
Rh4 Sn2 2.779060 1_554
Rh4 Sn1 2.779077 1_444
Rh5 Sn1 2.679805 1_555
Rh5 Sn2 2.679814 1_555
Rh5 Sn0 2.707911 1_545
Rh6 Sn3 2.690173 1_555
Rh6 Sn1 2.726729 1_554
Rh6 Sn2 2.726734 1_554
