# generated using pymatgen
data_Zr2GaSbTe2
_symmetry_space_group_name_H-M   'P 1'
_cell_length_a   3.99419715
_cell_length_b   3.99419715
_cell_length_c   8.74176136
_cell_angle_alpha   90.00000000
_cell_angle_beta   90.00000000
_cell_angle_gamma   90.00000000
_symmetry_Int_Tables_number   1
_chemical_formula_structural   Zr2GaSbTe2
_chemical_formula_sum   'Zr2 Ga1 Sb1 Te2'
_cell_volume   139.46265931
_cell_formula_units_Z   1
loop_
 _symmetry_equiv_pos_site_id
 _symmetry_equiv_pos_as_xyz
  1  'x, y, z'
loop_
 _atom_site_type_symbol
 _atom_site_label
 _atom_site_symmetry_multiplicity
 _atom_site_fract_x
 _atom_site_fract_y
 _atom_site_fract_z
 _atom_site_occupancy
  Zr  Zr0  1  0.50000000  0.00000000  0.25588274  1
  Zr  Zr1  1  0.00000000  0.50000000  0.74411726  1
  Ga  Ga0  1  0.00000000  0.00000000  0.00000000  1
  Sb  Sb0  1  0.50000000  0.50000000  0.00000000  1
  Te  Te0  1  0.50000000  0.00000000  0.62159015  1
  Te  Te1  1  0.00000000  0.50000000  0.37840985  1
loop_
_geom_bond_atom_site_label_1
_geom_bond_atom_site_label_2
_geom_bond_distance
_geom_bond_site_symmetry_2
Ga0 Sb0 2.824324 1_445
Ga0 Sb0 2.824324 1_545
Ga0 Sb0 2.824324 1_455
Ga0 Sb0 2.824324 1_555
Ga0 Zr0 2.998662 1_555
Ga0 Zr0 2.998662 1_455
Ga0 Zr1 2.998662 1_554
Ga0 Zr1 2.998662 1_544
Sb0 Zr0 2.998662 1_565
Sb0 Zr0 2.998662 1_555
Sb0 Zr1 2.998662 1_554
Sb0 Zr1 2.998662 1_654
Te0 Zr1 3.020607 1_645
Te0 Zr1 3.020607 1_555
Te0 Zr1 3.020607 1_545
Te0 Zr1 3.020607 1_655
Te0 Zr0 3.196927 1_555
Te1 Zr0 3.020607 1_565
Te1 Zr0 3.020607 1_465
Te1 Zr0 3.020607 1_455
Te1 Zr0 3.020607 1_555
Te1 Zr1 3.196927 1_555
