# generated using pymatgen
data_AgPt2PbO7
_symmetry_space_group_name_H-M   'P 1'
_cell_length_a   7.17599749
_cell_length_b   7.17599676
_cell_length_c   7.31928534
_cell_angle_alpha   59.33724399
_cell_angle_beta   59.33724744
_cell_angle_gamma   58.96456965
_symmetry_Int_Tables_number   1
_chemical_formula_structural   AgPt2PbO7
_chemical_formula_sum   'Ag2 Pt4 Pb2 O14'
_cell_volume   261.72705448
_cell_formula_units_Z   2
loop_
 _symmetry_equiv_pos_site_id
 _symmetry_equiv_pos_as_xyz
  1  'x, y, z'
loop_
 _atom_site_type_symbol
 _atom_site_label
 _atom_site_symmetry_multiplicity
 _atom_site_fract_x
 _atom_site_fract_y
 _atom_site_fract_z
 _atom_site_occupancy
  Ag  Ag0  1  0.62500000  0.12500000  0.62500000  1
  Ag  Ag1  1  0.12500000  0.62500000  0.62500000  1
  Pt  Pt0  1  0.12500000  0.12500000  0.62500000  1
  Pt  Pt1  1  0.12500000  0.62500000  0.12500000  1
  Pt  Pt2  1  0.62500000  0.12500000  0.12500000  1
  Pt  Pt3  1  0.12500000  0.12500000  0.12500000  1
  Pb  Pb0  1  0.62500000  0.62500000  0.12500000  1
  Pb  Pb1  1  0.62500000  0.62500000  0.62500000  1
  O  O0  1  0.49479742  0.49479742  0.50520258  1
  O  O1  1  0.75520258  0.75520258  0.74479742  1
  O  O2  1  0.46152099  0.03312535  0.45687273  1
  O  O3  1  0.21687465  0.78847901  0.20151907  1
  O  O4  1  0.46110165  0.46110165  0.03889835  1
  O  O5  1  0.03312535  0.46152099  0.45687273  1
  O  O6  1  0.46152099  0.03312535  0.04848093  1
  O  O7  1  0.04243875  0.04243875  0.45756125  1
  O  O8  1  0.03312535  0.46152099  0.04848093  1
  O  O9  1  0.78847901  0.21687465  0.20151907  1
  O  O10  1  0.21687465  0.78847901  0.79312727  1
  O  O11  1  0.78847901  0.21687465  0.79312727  1
  O  O12  1  0.20756125  0.20756125  0.79243875  1
  O  O13  1  0.78889835  0.78889835  0.21110165  1
loop_
_geom_bond_atom_site_label_1
_geom_bond_atom_site_label_2
_geom_bond_distance
_geom_bond_site_symmetry_2
Ag0 O0 2.142306 1_555
Ag0 O1 2.142306 1_545
Ag0 O7 2.447926 1_655
Ag0 O12 2.447926 1_555
Ag0 O11 2.534296 1_555
Ag0 O2 2.534296 1_555
Ag0 O6 2.534296 1_556
Ag0 O9 2.534296 1_555
Ag1 O0 2.142307 1_555
Ag1 O1 2.142307 1_455
Ag1 O7 2.447926 1_565
Ag1 O12 2.447926 1_555
Ag1 O10 2.534296 1_555
Ag1 O5 2.534296 1_555
Ag1 O8 2.534296 1_556
Ag1 O3 2.534296 1_555
O0 Pb0 2.255255 1_555
O0 Pb1 2.255255 1_555
O1 Pb1 2.255255 1_555
O1 Pb0 2.255255 1_556
O2 Pt0 1.983785 1_555
O2 Pt2 1.992195 1_555
O2 Pb1 2.391993 1_545
O3 Pt3 1.983785 1_565
O3 Pt1 1.992195 1_555
O3 Pb0 2.391993 1_555
O4 Pt2 1.969321 1_555
O4 Pt1 1.969322 1_555
O4 Pb1 2.470244 1_554
O4 Pb0 2.470244 1_555
O5 Pt0 1.983785 1_555
O5 Pt1 1.992195 1_555
O5 Pb1 2.391993 1_455
O6 Pt3 1.983785 1_555
O6 Pt2 1.992195 1_555
O6 Pb0 2.391993 1_545
O7 Pt0 2.011724 1_555
O7 Pt3 2.011724 1_555
O8 Pt3 1.983785 1_555
O8 Pt1 1.992195 1_555
O8 Pb0 2.391993 1_455
O9 Pt3 1.983785 1_655
O9 Pt2 1.992195 1_555
O9 Pb0 2.391993 1_555
O10 Pt0 1.983785 1_565
O10 Pt1 1.992195 1_556
O10 Pb1 2.391993 1_555
O11 Pt0 1.983785 1_655
O11 Pt2 1.992195 1_556
O11 Pb1 2.391993 1_555
O12 Pt0 2.011724 1_555
O12 Pt3 2.011724 1_556
O13 Pt2 1.969321 1_565
O13 Pt1 1.969322 1_655
O13 Pb1 2.470244 1_555
O13 Pb0 2.470244 1_555
