# generated using pymatgen
data_RbBa2Cd2Bi3
_symmetry_space_group_name_H-M   'P 1'
_cell_length_a   5.13029653
_cell_length_b   13.59114900
_cell_length_c   17.33913166
_cell_angle_alpha   90.00000000
_cell_angle_beta   90.00000000
_cell_angle_gamma   90.00000000
_symmetry_Int_Tables_number   1
_chemical_formula_structural   RbBa2Cd2Bi3
_chemical_formula_sum   'Rb4 Ba8 Cd8 Bi12'
_cell_volume   1208.99912396
_cell_formula_units_Z   4
loop_
 _symmetry_equiv_pos_site_id
 _symmetry_equiv_pos_as_xyz
  1  'x, y, z'
loop_
 _atom_site_type_symbol
 _atom_site_label
 _atom_site_symmetry_multiplicity
 _atom_site_fract_x
 _atom_site_fract_y
 _atom_site_fract_z
 _atom_site_occupancy
  Rb  Rb0  1  0.25000000  0.40044385  0.44554169  1
  Rb  Rb1  1  0.25000000  0.90044385  0.05445831  1
  Rb  Rb2  1  0.75000000  0.59955615  0.55445831  1
  Rb  Rb3  1  0.75000000  0.09955615  0.94554169  1
  Ba  Ba0  1  0.25000000  0.09947644  0.57191185  1
  Ba  Ba1  1  0.25000000  0.59947644  0.92808815  1
  Ba  Ba2  1  0.75000000  0.90052356  0.42808815  1
  Ba  Ba3  1  0.75000000  0.40052356  0.07191185  1
  Ba  Ba4  1  0.25000000  0.36907714  0.71274989  1
  Ba  Ba5  1  0.25000000  0.86907714  0.78725011  1
  Ba  Ba6  1  0.75000000  0.63092286  0.28725011  1
  Ba  Ba7  1  0.75000000  0.13092286  0.21274989  1
  Cd  Cd0  1  0.25000000  0.30525353  0.91675939  1
  Cd  Cd1  1  0.25000000  0.80525353  0.58324061  1
  Cd  Cd2  1  0.75000000  0.69474647  0.08324061  1
  Cd  Cd3  1  0.75000000  0.19474647  0.41675939  1
  Cd  Cd4  1  0.25000000  0.36388290  0.21389814  1
  Cd  Cd5  1  0.25000000  0.86388290  0.28610186  1
  Cd  Cd6  1  0.75000000  0.63611710  0.78610186  1
  Cd  Cd7  1  0.75000000  0.13611710  0.71389814  1
  Bi  Bi0  1  0.25000000  0.07981742  0.36455693  1
  Bi  Bi1  1  0.25000000  0.57981742  0.13544307  1
  Bi  Bi2  1  0.75000000  0.92018258  0.63544307  1
  Bi  Bi3  1  0.75000000  0.42018258  0.86455693  1
  Bi  Bi4  1  0.25000000  0.13216145  0.80182027  1
  Bi  Bi5  1  0.25000000  0.63216145  0.69817973  1
  Bi  Bi6  1  0.75000000  0.86783855  0.19817973  1
  Bi  Bi7  1  0.75000000  0.36783855  0.30182027  1
  Bi  Bi8  1  0.25000000  0.71382735  0.42321130  1
  Bi  Bi9  1  0.25000000  0.21382735  0.07678870  1
  Bi  Bi10  1  0.75000000  0.28617265  0.57678870  1
  Bi  Bi11  1  0.75000000  0.78617265  0.92321130  1
loop_
_geom_bond_atom_site_label_1
_geom_bond_atom_site_label_2
_geom_bond_distance
_geom_bond_site_symmetry_2
Ba0 Cd7 3.590129 1_555
Ba0 Cd7 3.590129 1_455
Ba0 Bi0 3.605269 1_555
Ba0 Bi10 3.609102 1_555
Ba0 Bi10 3.609102 1_455
Ba0 Bi2 3.705603 1_445
Ba0 Bi2 3.705603 1_545
Ba0 Cd3 3.936216 1_555
Ba0 Cd3 3.936216 1_455
Ba0 Cd1 4.003649 1_545
Ba0 Bi4 4.011087 1_555
Ba1 Cd6 3.590129 1_455
Ba1 Cd6 3.590129 1_555
Ba1 Bi1 3.605269 1_556
Ba1 Bi11 3.609102 1_555
Ba1 Bi11 3.609102 1_455
Ba1 Bi3 3.705603 1_555
Ba1 Bi3 3.705603 1_455
Ba1 Cd2 3.936216 1_456
Ba1 Cd2 3.936216 1_556
Ba1 Cd0 4.003649 1_555
Ba1 Bi5 4.011087 1_555
Ba2 Cd5 3.590129 1_555
Ba2 Cd5 3.590129 1_655
Ba2 Bi2 3.605269 1_555
Ba2 Bi8 3.609102 1_555
Ba2 Bi8 3.609102 1_655
Ba2 Bi0 3.705603 1_565
Ba2 Bi0 3.705603 1_665
Ba2 Cd1 3.936216 1_655
Ba2 Cd1 3.936216 1_555
Ba2 Cd3 4.003649 1_565
Ba2 Bi6 4.011087 1_555
Ba3 Cd4 3.590129 1_655
Ba3 Cd4 3.590129 1_555
Ba3 Bi3 3.605269 1_554
Ba3 Bi9 3.609102 1_655
Ba3 Bi9 3.609102 1_555
Ba3 Bi1 3.705603 1_655
Ba3 Bi1 3.705603 1_555
Ba3 Cd0 3.936216 1_654
Ba3 Cd0 3.936216 1_554
Ba3 Cd2 4.003649 1_555
Ba3 Bi7 4.011087 1_555
Ba4 Bi4 3.571176 1_555
Ba4 Bi5 3.584532 1_555
Ba4 Cd0 3.642152 1_555
Ba4 Bi10 3.661578 1_455
Ba4 Bi10 3.661578 1_555
Ba4 Bi3 3.740443 1_455
Ba4 Bi3 3.740443 1_555
Ba4 Cd7 4.074944 1_455
Ba4 Cd7 4.074944 1_555
Ba5 Bi5 3.571176 1_555
Ba5 Bi4 3.584532 1_565
Ba5 Cd1 3.642152 1_555
Ba5 Bi11 3.661578 1_455
Ba5 Bi11 3.661578 1_555
Ba5 Bi2 3.740443 1_555
Ba5 Bi2 3.740443 1_455
Ba5 Cd6 4.074944 1_455
Ba5 Cd6 4.074944 1_555
Ba6 Bi6 3.571176 1_555
Ba6 Bi7 3.584532 1_555
Ba6 Cd2 3.642152 1_555
Ba6 Bi8 3.661578 1_655
Ba6 Bi8 3.661578 1_555
Ba6 Bi1 3.740443 1_655
Ba6 Bi1 3.740443 1_555
Ba6 Cd5 4.074944 1_655
Ba6 Cd5 4.074944 1_555
Ba7 Bi7 3.571176 1_555
Ba7 Bi6 3.584532 1_545
Ba7 Cd3 3.642152 1_555
Ba7 Bi9 3.661578 1_655
Ba7 Bi9 3.661578 1_555
Ba7 Bi0 3.740443 1_655
Ba7 Bi0 3.740443 1_555
Ba7 Cd4 4.074944 1_655
Ba7 Cd4 4.074944 1_555
Cd0 Rb3 3.826850 1_555
Cd0 Rb3 3.826850 1_455
Cd1 Rb2 3.826850 1_555
Cd1 Rb2 3.826850 1_455
Cd2 Rb1 3.826850 1_555
Cd2 Rb1 3.826850 1_655
Cd3 Rb0 3.826850 1_655
Cd3 Rb0 3.826850 1_555
Cd4 Rb0 4.047119 1_555
Cd5 Rb1 4.047119 1_555
Cd6 Rb2 4.047119 1_555
Cd7 Rb3 4.047119 1_555
Bi0 Cd3 3.136746 1_555
Bi0 Cd3 3.136746 1_455
Bi0 Cd5 3.234745 1_545
Bi1 Cd2 3.136746 1_455
Bi1 Cd2 3.136746 1_555
Bi1 Cd4 3.234745 1_555
Bi2 Cd1 3.136746 1_555
Bi2 Cd1 3.136746 1_655
Bi2 Cd7 3.234745 1_565
Bi3 Cd0 3.136746 1_555
Bi3 Cd0 3.136746 1_655
Bi3 Cd6 3.234745 1_555
Bi4 Cd7 2.984452 1_555
Bi4 Cd7 2.984452 1_455
Bi4 Cd0 3.083209 1_555
Bi4 Rb3 3.603672 1_555
Bi4 Rb3 3.603672 1_455
Bi5 Cd6 2.984452 1_455
Bi5 Cd6 2.984452 1_555
Bi5 Cd1 3.083209 1_555
Bi5 Rb2 3.603672 1_555
Bi5 Rb2 3.603672 1_455
Bi6 Cd5 2.984452 1_655
Bi6 Cd5 2.984452 1_555
Bi6 Cd2 3.083209 1_555
Bi6 Rb1 3.603672 1_655
Bi6 Rb1 3.603672 1_555
Bi7 Cd4 2.984452 1_655
Bi7 Cd4 2.984452 1_555
Bi7 Cd3 3.083209 1_555
Bi7 Rb0 3.603672 1_655
Bi7 Rb0 3.603672 1_555
Bi8 Cd1 3.040291 1_555
Bi8 Cd5 3.132267 1_555
Bi8 Rb2 3.764424 1_455
Bi8 Rb2 3.764424 1_555
Bi8 Rb0 4.276805 1_555
Bi9 Cd0 3.040291 1_554
Bi9 Cd4 3.132267 1_555
Bi9 Rb3 3.764424 1_554
Bi9 Rb3 3.764424 1_454
Bi9 Rb1 4.276805 1_545
Bi10 Cd3 3.040291 1_555
Bi10 Cd7 3.132267 1_555
Bi10 Rb0 3.764424 1_655
Bi10 Rb0 3.764424 1_555
Bi10 Rb2 4.276805 1_555
Bi11 Cd2 3.040291 1_556
Bi11 Cd6 3.132267 1_555
Bi11 Rb1 3.764424 1_556
Bi11 Rb1 3.764424 1_656
Bi11 Rb3 4.276805 1_565
