# generated using pymatgen
data_Ca2B4PtRh4
_symmetry_space_group_name_H-M   'P 1'
_cell_length_a   7.46537694
_cell_length_b   6.26933811
_cell_length_c   5.61648820
_cell_angle_alpha   77.60390737
_cell_angle_beta   55.10586564
_cell_angle_gamma   47.29022661
_symmetry_Int_Tables_number   1
_chemical_formula_structural   Ca2B4PtRh4
_chemical_formula_sum   'Ca2 B4 Pt1 Rh4'
_cell_volume   151.73308461
_cell_formula_units_Z   1
loop_
 _symmetry_equiv_pos_site_id
 _symmetry_equiv_pos_as_xyz
  1  'x, y, z'
loop_
 _atom_site_type_symbol
 _atom_site_label
 _atom_site_symmetry_multiplicity
 _atom_site_fract_x
 _atom_site_fract_y
 _atom_site_fract_z
 _atom_site_occupancy
  Ca  Ca0  1  0.85650543  0.85650543  0.14349457  1
  Ca  Ca1  1  0.14349457  0.14349457  0.85650543  1
  B  B0  1  0.79420737  0.46815905  0.53184095  1
  B  B1  1  0.20579263  0.53184095  0.46815905  1
  B  B2  1  0.53184095  0.20579263  0.79420737  1
  B  B3  1  0.46815905  0.79420737  0.20579263  1
  Pt  Pt0  1  0.50000000  0.50000000  0.50000000  1
  Rh  Rh0  1  0.50000000  0.50000000  0.00000000  1
  Rh  Rh1  1  0.00000000  0.00000000  0.50000000  1
  Rh  Rh2  1  0.75000000  0.75000000  0.75000000  1
  Rh  Rh3  1  0.25000000  0.25000000  0.25000000  1
loop_
_geom_bond_atom_site_label_1
_geom_bond_atom_site_label_2
_geom_bond_distance
_geom_bond_site_symmetry_2
Ca0 Rh2 3.053957 1_555
Ca0 Rh2 3.053957 1_554
Ca0 Rh3 3.053957 1_565
Ca0 Rh3 3.053957 1_655
Ca0 Pt0 3.189594 1_654
Ca0 Pt0 3.189594 1_565
Ca0 Rh1 3.240510 1_664
Ca0 Rh1 3.240510 1_665
Ca0 Rh0 3.240510 1_655
Ca0 Rh0 3.240510 1_565
Ca1 Rh3 3.053957 1_555
Ca1 Rh3 3.053957 1_556
Ca1 Rh2 3.053957 1_545
Ca1 Rh2 3.053957 1_455
Ca1 Pt0 3.189594 1_456
Ca1 Pt0 3.189594 1_545
Ca1 Rh1 3.240510 1_556
Ca1 Rh1 3.240510 1_555
Ca1 Rh0 3.240510 1_456
Ca1 Rh0 3.240510 1_546
B0 Rh3 2.099568 1_655
B0 Rh2 2.099568 1_555
B0 Pt0 2.176042 1_555
B0 Rh0 2.191065 1_556
B0 Rh1 2.191065 1_655
B0 Ca0 2.999474 1_555
B0 Ca1 3.182451 1_654
B0 Ca1 3.182451 1_565
B1 Rh2 2.099568 1_455
B1 Rh3 2.099568 1_555
B1 Pt0 2.176042 1_555
B1 Rh0 2.191065 1_555
B1 Rh1 2.191065 1_565
B1 Ca1 2.999474 1_555
B1 Ca0 3.182451 1_456
B1 Ca0 3.182451 1_545
B2 Rh3 2.099568 1_556
B2 Rh2 2.099568 1_545
B2 Pt0 2.176042 1_555
B2 Rh1 2.191065 1_655
B2 Rh0 2.191065 1_556
B2 Ca1 2.999474 1_555
B2 Ca0 3.182451 1_545
B2 Ca0 3.182451 1_456
B3 Rh2 2.099568 1_554
B3 Rh3 2.099568 1_565
B3 Pt0 2.176042 1_555
B3 Rh1 2.191065 1_565
B3 Rh0 2.191065 1_555
B3 Ca0 2.999474 1_555
B3 Ca1 3.182451 1_565
B3 Ca1 3.182451 1_654
