# generated using pymatgen
data_TiAg2(TeO4)3
_symmetry_space_group_name_H-M   'P 1'
_cell_length_a   7.14214737
_cell_length_b   7.14214826
_cell_length_c   7.16743796
_cell_angle_alpha   60.25365665
_cell_angle_beta   60.25365300
_cell_angle_gamma   59.91848800
_symmetry_Int_Tables_number   1
_chemical_formula_structural   TiAg2(TeO4)3
_chemical_formula_sum   'Ti1 Ag2 Te3 O12'
_cell_volume   259.35272683
_cell_formula_units_Z   1
loop_
 _symmetry_equiv_pos_site_id
 _symmetry_equiv_pos_as_xyz
  1  'x, y, z'
loop_
 _atom_site_type_symbol
 _atom_site_label
 _atom_site_symmetry_multiplicity
 _atom_site_fract_x
 _atom_site_fract_y
 _atom_site_fract_z
 _atom_site_occupancy
  Ti  Ti0  1  0.52182990  0.47817010  1.00000000  1
  Ag  Ag0  1  0.53297694  0.97453218  0.49559753  1
  Ag  Ag1  1  0.02546782  0.46702306  0.50440247  1
  Te  Te0  1  0.02268616  0.47673319  0.99979519  1
  Te  Te1  1  0.52326681  0.97731384  0.00020481  1
  Te  Te2  1  0.52282068  0.47717932  0.50000000  1
  O  O0  1  0.20191172  0.15556023  0.06682411  1
  O  O1  1  0.59148218  0.54522217  0.67655654  1
  O  O2  1  0.20302813  0.53953457  0.06762937  1
  O  O3  1  0.59335425  0.15376245  0.67568568  1
  O  O4  1  0.58664194  0.15671201  0.06858540  1
  O  O5  1  0.19988865  0.54656374  0.67561062  1
  O  O6  1  0.84443977  0.79808828  0.93317589  1
  O  O7  1  0.45477783  0.40851782  0.32344346  1
  O  O8  1  0.84328799  0.41335806  0.93141460  1
  O  O9  1  0.45343626  0.80011135  0.32438938  1
  O  O10  1  0.46046543  0.79697187  0.93237063  1
  O  O11  1  0.84623755  0.40664575  0.32431432  1
loop_
_geom_bond_atom_site_label_1
_geom_bond_atom_site_label_2
_geom_bond_distance
_geom_bond_site_symmetry_2
Ag0 O3 2.497196 1_565
Ag0 O9 2.509695 1_555
Ag0 O1 2.562316 1_555
Ag0 O4 2.567340 1_565
Ag0 O7 2.568096 1_565
Ag0 O10 2.605140 1_555
Ag1 O11 2.497196 1_455
Ag1 O5 2.509695 1_555
Ag1 O7 2.562316 1_555
Ag1 O8 2.567340 1_455
Ag1 O1 2.568096 1_455
Ag1 O2 2.605140 1_555
O0 Te1 1.924340 1_545
O0 Te0 1.924666 1_554
O1 Te2 1.882285 1_555
O1 Ti0 1.960583 1_555
O2 Te0 1.874453 1_554
O2 Ti0 1.930458 1_554
O3 Te2 1.936918 1_555
O3 Te1 1.953752 1_546
O4 Te1 1.873891 1_545
O4 Ti0 1.941018 1_554
O5 Te2 1.934392 1_555
O5 Te0 1.952983 1_555
O6 Te0 1.924341 1_655
O6 Te1 1.924666 1_556
O7 Te2 1.882285 1_555
O7 Ti0 1.960583 1_554
O8 Te0 1.873891 1_655
O8 Ti0 1.941018 1_555
O9 Te2 1.934392 1_555
O9 Te1 1.952983 1_555
O10 Te1 1.874453 1_556
O10 Ti0 1.930459 1_555
O11 Te2 1.936918 1_555
O11 Te0 1.953752 1_654
