# generated using pymatgen
data_Cs2VCoS4
_symmetry_space_group_name_H-M   'P 1'
_cell_length_a   14.24134580
_cell_length_b   12.69816975
_cell_length_c   7.52053244
_cell_angle_alpha   85.49976663
_cell_angle_beta   62.73437648
_cell_angle_gamma   31.76586661
_symmetry_Int_Tables_number   1
_chemical_formula_structural   Cs2VCoS4
_chemical_formula_sum   'Cs4 V2 Co2 S8'
_cell_volume   475.50380436
_cell_formula_units_Z   2
loop_
 _symmetry_equiv_pos_site_id
 _symmetry_equiv_pos_as_xyz
  1  'x, y, z'
loop_
 _atom_site_type_symbol
 _atom_site_label
 _atom_site_symmetry_multiplicity
 _atom_site_fract_x
 _atom_site_fract_y
 _atom_site_fract_z
 _atom_site_occupancy
  Cs  Cs0  1  0.57398787  0.57398787  0.92601213  1
  Cs  Cs1  1  0.92601213  0.92601213  0.57398787  1
  Cs  Cs2  1  0.32398787  0.32398787  0.67601213  1
  Cs  Cs3  1  0.67601213  0.67601213  0.32398787  1
  V  V0  1  0.75000000  0.75000000  0.75000000  1
  V  V1  1  0.50000000  0.50000000  0.50000000  1
  Co  Co0  1  0.00000000  0.00000000  0.00000000  1
  Co  Co1  1  0.25000000  0.25000000  0.25000000  1
  S  S0  1  0.21820869  0.88060209  0.60565059  1
  S  S1  1  0.29553863  0.60565059  0.88060209  1
  S  S2  1  0.60565059  0.29553863  0.21820869  1
  S  S3  1  0.88060209  0.21820869  0.29553863  1
  S  S4  1  0.36939791  0.03179131  0.95446137  1
  S  S5  1  0.95446137  0.64434941  0.36939791  1
  S  S6  1  0.64434941  0.95446137  0.03179131  1
  S  S7  1  0.03179131  0.36939791  0.64434941  1
loop_
_geom_bond_atom_site_label_1
_geom_bond_atom_site_label_2
_geom_bond_distance
_geom_bond_site_symmetry_2
Cs0 S3 3.578584 1_555
Cs0 S0 3.578584 1_556
Cs0 S4 3.626565 1_565
Cs0 S7 3.626565 1_655
Cs0 S0 3.635698 1_645
Cs0 S3 3.635698 1_466
Cs0 S1 3.809408 1_555
Cs0 S2 3.809408 1_556
Cs1 S1 3.578584 1_565
Cs1 S2 3.578585 1_655
Cs1 S5 3.626565 1_555
Cs1 S6 3.626565 1_556
Cs1 S2 3.635698 1_566
Cs1 S1 3.635698 1_654
Cs1 S0 3.809408 1_655
Cs1 S3 3.809408 1_565
Cs2 S5 3.578584 1_545
Cs2 S6 3.578585 1_456
Cs2 S1 3.626565 1_555
Cs2 S2 3.626565 1_555
Cs2 S6 3.635698 1_545
Cs2 S5 3.635698 1_456
Cs2 S7 3.809408 1_555
Cs2 S4 3.809408 1_555
Cs3 S4 3.578584 1_565
Cs3 S7 3.578584 1_654
Cs3 S3 3.626565 1_555
Cs3 S0 3.626565 1_555
Cs3 S7 3.635698 1_565
Cs3 S4 3.635698 1_654
Cs3 S5 3.809408 1_555
Cs3 S6 3.809408 1_555
Co0 S3 2.236316 1_455
Co0 S0 2.236316 1_544
Co0 S1 2.236317 1_544
Co0 S2 2.236317 1_455
Co1 S4 2.236316 1_554
Co1 S7 2.236316 1_555
Co1 S5 2.236317 1_455
Co1 S6 2.236317 1_545
S0 V1 2.189770 1_555
S1 V1 2.189770 1_555
S2 V1 2.189770 1_555
S3 V1 2.189771 1_555
S4 V0 2.189771 1_545
S5 V0 2.189770 1_555
S6 V0 2.189770 1_554
S7 V0 2.189770 1_455
