# generated using pymatgen
data_Y(AgCl2)3
_symmetry_space_group_name_H-M   'P 1'
_cell_length_a   7.32467428
_cell_length_b   7.32467454
_cell_length_c   7.32467503
_cell_angle_alpha   56.06034988
_cell_angle_beta   56.06035404
_cell_angle_gamma   56.06035738
_symmetry_Int_Tables_number   1
_chemical_formula_structural   Y(AgCl2)3
_chemical_formula_sum   'Y1 Ag3 Cl6'
_cell_volume   252.52058230
_cell_formula_units_Z   1
loop_
 _symmetry_equiv_pos_site_id
 _symmetry_equiv_pos_as_xyz
  1  'x, y, z'
loop_
 _atom_site_type_symbol
 _atom_site_label
 _atom_site_symmetry_multiplicity
 _atom_site_fract_x
 _atom_site_fract_y
 _atom_site_fract_z
 _atom_site_occupancy
  Y  Y0  1  -0.00000000  -0.00000000  0.00000000  1
  Ag  Ag0  1  0.19736384  0.19736384  0.19736384  1
  Ag  Ag1  1  0.50000000  0.50000000  0.50000000  1
  Ag  Ag2  1  0.80263616  0.80263616  0.80263616  1
  Cl  Cl0  1  0.10190678  0.38577566  0.76724451  1
  Cl  Cl1  1  0.38577566  0.76724451  0.10190678  1
  Cl  Cl2  1  0.76724451  0.10190678  0.38577566  1
  Cl  Cl3  1  0.23275549  0.89809322  0.61422434  1
  Cl  Cl4  1  0.61422434  0.23275549  0.89809322  1
  Cl  Cl5  1  0.89809322  0.61422434  0.23275549  1
loop_
_geom_bond_atom_site_label_1
_geom_bond_atom_site_label_2
_geom_bond_distance
_geom_bond_site_symmetry_2
Ag0 Cl4 2.640238 1_554
Ag0 Cl3 2.640238 1_545
Ag0 Cl5 2.640238 1_455
Ag0 Cl2 2.974266 1_455
Ag0 Cl0 2.974266 1_554
Ag0 Cl1 2.974266 1_545
Ag1 Cl5 2.748825 1_555
Ag1 Cl0 2.748825 1_555
Ag1 Cl1 2.748825 1_555
Ag1 Cl4 2.748825 1_555
Ag1 Cl2 2.748825 1_555
Ag1 Cl3 2.748825 1_555
Ag2 Cl1 2.640238 1_556
Ag2 Cl2 2.640238 1_565
Ag2 Cl0 2.640238 1_655
Ag2 Cl3 2.974266 1_655
Ag2 Cl5 2.974266 1_556
Ag2 Cl4 2.974266 1_565
Cl0 Y0 2.646337 1_556
Cl1 Y0 2.646338 1_565
Cl2 Y0 2.646338 1_655
Cl3 Y0 2.646338 1_566
Cl4 Y0 2.646338 1_656
Cl5 Y0 2.646337 1_665
