# generated using pymatgen
data_HfZr2Bi2Sb
_symmetry_space_group_name_H-M   'P 1'
_cell_length_a   5.68721664
_cell_length_b   5.68721676
_cell_length_c   14.39953930
_cell_angle_alpha   90.00000000
_cell_angle_beta   90.00000000
_cell_angle_gamma   140.84109434
_symmetry_Int_Tables_number   1
_chemical_formula_structural   HfZr2Bi2Sb
_chemical_formula_sum   'Hf2 Zr4 Bi4 Sb2'
_cell_volume   294.10550987
_cell_formula_units_Z   2
loop_
 _symmetry_equiv_pos_site_id
 _symmetry_equiv_pos_as_xyz
  1  'x, y, z'
loop_
 _atom_site_type_symbol
 _atom_site_label
 _atom_site_symmetry_multiplicity
 _atom_site_fract_x
 _atom_site_fract_y
 _atom_site_fract_z
 _atom_site_occupancy
  Hf  Hf0  1  0.61292094  0.38707906  0.75000000  1
  Hf  Hf1  1  0.38707906  0.61292094  0.25000000  1
  Zr  Zr0  1  0.92649296  0.07350704  0.88788080  1
  Zr  Zr1  1  0.07350704  0.92649296  0.11211920  1
  Zr  Zr2  1  0.07350704  0.92649296  0.38788080  1
  Zr  Zr3  1  0.92649296  0.07350704  0.61211920  1
  Bi  Bi0  1  0.35844424  0.64155576  0.44923822  1
  Bi  Bi1  1  0.64155576  0.35844424  0.55076178  1
  Bi  Bi2  1  0.64155576  0.35844424  0.94923822  1
  Bi  Bi3  1  0.35844424  0.64155576  0.05076178  1
  Sb  Sb0  1  0.32525839  0.67474161  0.75000000  1
  Sb  Sb1  1  0.67474161  0.32525839  0.25000000  1
loop_
_geom_bond_atom_site_label_1
_geom_bond_atom_site_label_2
_geom_bond_distance
_geom_bond_site_symmetry_2
Hf0 Sb0 2.968251 1_655
Hf0 Sb0 2.968251 1_545
Hf0 Sb0 3.082804 1_555
Hf1 Sb1 2.968251 1_455
Hf1 Sb1 2.968251 1_565
Hf1 Sb1 3.082804 1_555
Bi0 Hf1 2.885304 1_555
Bi0 Zr3 3.108873 1_565
Bi0 Zr3 3.108873 1_455
Bi0 Zr2 3.118477 1_655
Bi0 Zr2 3.118477 1_545
Bi0 Zr2 3.178846 1_555
Bi1 Hf0 2.885304 1_555
Bi1 Zr2 3.108873 1_545
Bi1 Zr2 3.108873 1_655
Bi1 Zr3 3.118477 1_455
Bi1 Zr3 3.118477 1_565
Bi1 Zr3 3.178846 1_555
Bi2 Hf0 2.885304 1_555
Bi2 Zr1 3.108873 1_546
Bi2 Zr1 3.108873 1_656
Bi2 Zr0 3.118477 1_455
Bi2 Zr0 3.118477 1_565
Bi2 Zr0 3.178846 1_555
Bi3 Hf1 2.885304 1_555
Bi3 Zr0 3.108873 1_564
Bi3 Zr0 3.108873 1_454
Bi3 Zr1 3.118477 1_655
Bi3 Zr1 3.118477 1_545
Bi3 Zr1 3.178846 1_555
Sb0 Zr0 2.958248 1_565
Sb0 Zr3 2.958248 1_565
Sb0 Zr0 2.958248 1_455
Sb0 Zr3 2.958248 1_455
Sb1 Zr2 2.958248 1_545
Sb1 Zr1 2.958248 1_545
Sb1 Zr2 2.958248 1_655
Sb1 Zr1 2.958248 1_655
