# generated using pymatgen
data_Zr3AlAu2N
_symmetry_space_group_name_H-M   'P 1'
_cell_length_a   8.70771182
_cell_length_b   8.70771180
_cell_length_c   8.70771241
_cell_angle_alpha   60.00000137
_cell_angle_beta   60.00000143
_cell_angle_gamma   59.99999876
_symmetry_Int_Tables_number   1
_chemical_formula_structural   Zr3AlAu2N
_chemical_formula_sum   'Zr12 Al4 Au8 N4'
_cell_volume   466.87130170
_cell_formula_units_Z   4
loop_
 _symmetry_equiv_pos_site_id
 _symmetry_equiv_pos_as_xyz
  1  'x, y, z'
loop_
 _atom_site_type_symbol
 _atom_site_label
 _atom_site_symmetry_multiplicity
 _atom_site_fract_x
 _atom_site_fract_y
 _atom_site_fract_z
 _atom_site_occupancy
  Zr  Zr0  1  0.81256945  0.81256945  0.18743055  1
  Zr  Zr1  1  0.18743055  0.18743055  0.81256945  1
  Zr  Zr2  1  0.81256945  0.18743055  0.81256945  1
  Zr  Zr3  1  0.18743055  0.81256945  0.18743055  1
  Zr  Zr4  1  0.18743055  0.81256945  0.81256945  1
  Zr  Zr5  1  0.81256945  0.18743055  0.18743055  1
  Zr  Zr6  1  0.43743055  0.43743055  0.06256945  1
  Zr  Zr7  1  0.06256945  0.06256945  0.43743055  1
  Zr  Zr8  1  0.43743055  0.06256945  0.43743055  1
  Zr  Zr9  1  0.06256945  0.43743055  0.06256945  1
  Zr  Zr10  1  0.06256945  0.43743055  0.43743055  1
  Zr  Zr11  1  0.43743055  0.06256945  0.06256945  1
  Al  Al0  1  0.12500000  0.62500000  0.62500000  1
  Al  Al1  1  0.62500000  0.12500000  0.62500000  1
  Al  Al2  1  0.62500000  0.62500000  0.12500000  1
  Al  Al3  1  0.62500000  0.62500000  0.62500000  1
  Au  Au0  1  0.76147140  0.41284287  0.41284287  1
  Au  Au1  1  0.41284287  0.76147140  0.41284287  1
  Au  Au2  1  0.41284287  0.41284287  0.76147140  1
  Au  Au3  1  0.41284287  0.41284287  0.41284287  1
  Au  Au4  1  0.48852860  0.83715713  0.83715713  1
  Au  Au5  1  0.83715713  0.48852860  0.83715713  1
  Au  Au6  1  0.83715713  0.83715713  0.48852860  1
  Au  Au7  1  0.83715713  0.83715713  0.83715713  1
  N  N0  1  0.62500000  0.12500000  0.12500000  1
  N  N1  1  0.12500000  0.62500000  0.12500000  1
  N  N2  1  0.12500000  0.12500000  0.62500000  1
  N  N3  1  0.12500000  0.12500000  0.12500000  1
loop_
_geom_bond_atom_site_label_1
_geom_bond_atom_site_label_2
_geom_bond_distance
_geom_bond_site_symmetry_2
Al0 Au2 2.694465 1_555
Al0 Au6 2.694465 1_455
Al0 Au7 2.694465 1_455
Al0 Au3 2.694465 1_555
Al0 Au1 2.694465 1_555
Al0 Au5 2.694465 1_455
Al1 Au2 2.694465 1_555
Al1 Au6 2.694465 1_545
Al1 Au7 2.694465 1_545
Al1 Au3 2.694465 1_555
Al1 Au0 2.694465 1_555
Al1 Au4 2.694465 1_545
Al2 Au0 2.694465 1_555
Al2 Au4 2.694465 1_554
Al2 Au1 2.694465 1_555
Al2 Au5 2.694465 1_554
Al2 Au7 2.694465 1_554
Al2 Au3 2.694465 1_555
Al3 Au6 2.694465 1_555
Al3 Au2 2.694465 1_555
Al3 Au4 2.694465 1_555
Al3 Au0 2.694465 1_555
Al3 Au5 2.694465 1_555
Al3 Au1 2.694465 1_555
Au0 Zr7 2.852095 1_655
Au0 Zr10 2.852095 1_655
Au0 Zr9 2.852096 1_655
Au0 Zr0 3.163751 1_555
Au0 Zr5 3.163751 1_555
Au0 Zr2 3.163752 1_555
Au1 Zr7 2.852095 1_565
Au1 Zr8 2.852095 1_565
Au1 Zr11 2.852096 1_565
Au1 Zr0 3.163751 1_555
Au1 Zr3 3.163751 1_555
Au1 Zr4 3.163752 1_555
Au2 Zr11 2.852096 1_556
Au2 Zr9 2.852096 1_556
Au2 Zr6 2.852096 1_556
Au2 Zr4 3.163751 1_555
Au2 Zr2 3.163751 1_555
Au2 Zr1 3.163751 1_555
Au3 Zr8 2.852095 1_555
Au3 Zr10 2.852095 1_555
Au3 Zr6 2.852096 1_555
Au3 Zr3 3.163751 1_555
Au3 Zr5 3.163751 1_555
Au3 Zr1 3.163752 1_555
Au4 Zr1 2.852095 1_565
Au4 Zr4 2.852095 1_555
Au4 Zr3 2.852096 1_556
Au4 Zr6 3.163751 1_556
Au4 Zr11 3.163751 1_566
Au4 Zr8 3.163752 1_565
Au5 Zr1 2.852095 1_655
Au5 Zr2 2.852095 1_555
Au5 Zr5 2.852096 1_556
Au5 Zr6 3.163751 1_556
Au5 Zr9 3.163751 1_656
Au5 Zr10 3.163752 1_655
Au6 Zr5 2.852096 1_565
Au6 Zr3 2.852096 1_655
Au6 Zr0 2.852096 1_555
Au6 Zr10 3.163751 1_655
Au6 Zr8 3.163751 1_565
Au6 Zr7 3.163751 1_665
Au7 Zr2 2.852095 1_565
Au7 Zr4 2.852095 1_655
Au7 Zr0 2.852096 1_556
Au7 Zr9 3.163751 1_656
Au7 Zr11 3.163751 1_566
Au7 Zr7 3.163752 1_665
N0 Zr6 2.308696 1_555
N0 Zr0 2.308696 1_545
N0 Zr5 2.308696 1_555
N0 Zr11 2.308696 1_555
N0 Zr8 2.308696 1_555
N0 Zr2 2.308696 1_554
N1 Zr6 2.308696 1_555
N1 Zr0 2.308696 1_455
N1 Zr3 2.308696 1_555
N1 Zr9 2.308696 1_555
N1 Zr10 2.308696 1_555
N1 Zr4 2.308696 1_554
N2 Zr10 2.308696 1_555
N2 Zr4 2.308696 1_545
N2 Zr8 2.308696 1_555
N2 Zr2 2.308696 1_455
N2 Zr1 2.308696 1_555
N2 Zr7 2.308696 1_555
N3 Zr9 2.308696 1_555
N3 Zr3 2.308696 1_545
N3 Zr11 2.308696 1_555
N3 Zr5 2.308696 1_455
N3 Zr7 2.308696 1_555
N3 Zr1 2.308696 1_554
