# generated using pymatgen
data_Na5Hf(H9W)3
_symmetry_space_group_name_H-M   'P 1'
_cell_length_a   8.70319574
_cell_length_b   8.46806097
_cell_length_c   4.93361175
_cell_angle_alpha   90.00000000
_cell_angle_beta   90.00000000
_cell_angle_gamma   119.11024715
_symmetry_Int_Tables_number   1
_chemical_formula_structural   Na5Hf(H9W)3
_chemical_formula_sum   'Na5 Hf1 H27 W3'
_cell_volume   317.67474559
_cell_formula_units_Z   1
loop_
 _symmetry_equiv_pos_site_id
 _symmetry_equiv_pos_as_xyz
  1  'x, y, z'
loop_
 _atom_site_type_symbol
 _atom_site_label
 _atom_site_symmetry_multiplicity
 _atom_site_fract_x
 _atom_site_fract_y
 _atom_site_fract_z
 _atom_site_occupancy
  Na  Na0  1  0.72285419  0.73156151  0.50000000  1
  Na  Na1  1  0.27714581  0.00870731  0.50000000  1
  Na  Na2  1  0.00000000  0.62734475  0.00000000  1
  Na  Na3  1  0.43271903  0.38673579  0.00000000  1
  Na  Na4  1  0.56728097  0.95401676  0.00000000  1
  Hf  Hf0  1  1.00000000  0.26959597  0.50000000  1
  H  H0  1  0.86309270  0.35359797  0.72986465  1
  H  H1  1  0.68716575  0.43811587  0.78799419  1
  H  H2  1  0.53550925  0.17506196  0.72996079  1
  H  H3  1  0.13690730  0.49050628  0.27013535  1
  H  H4  1  0.53550925  0.17506196  0.27003921  1
  H  H5  1  0.86309270  0.35359797  0.27013535  1
  H  H6  1  0.68716575  0.43811587  0.21200581  1
  H  H7  1  0.31283425  0.75095112  0.78799419  1
  H  H8  1  0.46449075  0.63955471  0.72996079  1
  H  H9  1  0.19791688  0.03548444  0.00000000  1
  H  H10  1  0.80208312  0.83756756  0.00000000  1
  H  H11  1  0.00000000  0.24509852  0.00000000  1
  H  H12  1  0.85922888  0.03257745  0.26210855  1
  H  H13  1  0.14077112  0.17334856  0.73789145  1
  H  H14  1  0.00000000  0.88070501  0.76513471  1
  H  H15  1  0.00000000  0.88070501  0.23486529  1
  H  H16  1  0.14077112  0.17334856  0.26210855  1
  H  H17  1  0.85922888  0.03257745  0.73789145  1
  H  H18  1  0.15580498  0.71245624  0.50000000  1
  H  H19  1  0.48596811  0.85345394  0.50000000  1
  H  H20  1  0.27846050  0.41234271  0.50000000  1
  H  H21  1  0.51403189  0.36748582  0.50000000  1
  H  H22  1  0.84419502  0.55665125  0.50000000  1
  H  H23  1  0.72153950  0.13388222  0.50000000  1
  H  H24  1  0.13690730  0.49050628  0.72986465  1
  H  H25  1  0.31283425  0.75095112  0.21200581  1
  H  H26  1  0.46449075  0.63955471  0.27003921  1
  W  W0  1  0.69263573  0.32818171  0.50000000  1
  W  W1  1  0.30736427  0.63554698  0.50000000  1
  W  W2  1  0.00000000  0.03504866  0.00000000  1
loop_
_geom_bond_atom_site_label_1
_geom_bond_atom_site_label_2
_geom_bond_distance
_geom_bond_site_symmetry_2
H0 W0 1.795157 1_555
H0 Hf0 2.009109 1_555
H0 Na2 2.425301 1_656
H1 W0 1.711968 1_555
H1 Na3 2.291257 1_556
H2 W0 1.764439 1_555
H2 Na1 2.290360 1_555
H2 Na4 2.420482 1_546
H3 W1 1.795156 1_555
H3 Hf0 2.009114 1_455
H3 Na2 2.425296 1_555
H4 W0 1.764439 1_555
H4 Na1 2.290360 1_555
H4 Na4 2.420482 1_545
H5 W0 1.795157 1_555
H5 Hf0 2.009109 1_555
H5 Na2 2.425301 1_655
H6 W0 1.711968 1_555
H6 Na3 2.291257 1_555
H7 W1 1.711968 1_555
H7 Na4 2.291254 1_556
H8 W1 1.764436 1_555
H8 Na0 2.290363 1_555
H8 Na3 2.420496 1_556
H9 W2 1.720717 1_555
H10 W2 1.720717 1_665
H11 W2 1.778715 1_555
H12 W2 1.774464 1_655
H12 Hf0 2.124696 1_555
H12 Na0 2.517942 1_545
H12 Na4 2.631764 1_545
H13 W2 1.774464 1_556
H13 Hf0 2.124697 1_455
H13 Na1 2.517943 1_555
H13 Na3 2.631764 1_556
H14 W2 1.746680 1_566
H14 Na2 2.438382 1_556
H14 Na0 2.481954 1_455
H14 Na1 2.481955 1_565
H15 W2 1.746680 1_565
H15 Na2 2.438382 1_555
H15 Na0 2.481954 1_455
H15 Na1 2.481955 1_565
H16 W2 1.774464 1_555
H16 Hf0 2.124697 1_455
H16 Na1 2.517943 1_555
H16 Na3 2.631764 1_555
H17 W2 1.774464 1_656
H17 Hf0 2.124696 1_555
H17 Na0 2.517942 1_545
H17 Na4 2.631764 1_546
H18 W1 1.732022 1_555
H18 Na1 2.197946 1_565
H19 W1 1.740796 1_555
H20 W1 1.781338 1_555
H20 Hf0 2.117582 1_455
H21 W0 1.740802 1_555
H22 W0 1.732028 1_555
H22 Na0 2.197947 1_555
H23 W0 1.781330 1_555
H23 Hf0 2.117582 1_555
H24 W1 1.795156 1_555
H24 Hf0 2.009114 1_455
H24 Na2 2.425296 1_556
H25 W1 1.711968 1_555
H25 Na4 2.291254 1_555
H26 W1 1.764436 1_555
H26 Na0 2.290363 1_555
H26 Na3 2.420496 1_555
