# generated using pymatgen
data_Sr4Os6O18F
_symmetry_space_group_name_H-M   'P 1'
_cell_length_a   7.93973215
_cell_length_b   7.93973254
_cell_length_c   7.93973198
_cell_angle_alpha   109.47121919
_cell_angle_beta   109.47122020
_cell_angle_gamma   109.47122006
_symmetry_Int_Tables_number   1
_chemical_formula_structural   Sr4Os6O18F
_chemical_formula_sum   'Sr4 Os6 O18 F1'
_cell_volume   385.29705469
_cell_formula_units_Z   1
loop_
 _symmetry_equiv_pos_site_id
 _symmetry_equiv_pos_as_xyz
  1  'x, y, z'
loop_
 _atom_site_type_symbol
 _atom_site_label
 _atom_site_symmetry_multiplicity
 _atom_site_fract_x
 _atom_site_fract_y
 _atom_site_fract_z
 _atom_site_occupancy
  Sr  Sr0  1  1.00000000  0.32532787  1.00000000  1
  Sr  Sr1  1  0.00000000  0.00000000  0.32532787  1
  Sr  Sr2  1  0.67467213  0.67467213  0.67467213  1
  Sr  Sr3  1  0.32532787  0.00000000  1.00000000  1
  Os  Os0  1  0.50000000  0.36436318  0.86436318  1
  Os  Os1  1  0.50000000  0.63563682  0.13563682  1
  Os  Os2  1  0.36436318  0.86436318  0.50000000  1
  Os  Os3  1  0.63563682  0.13563682  0.50000000  1
  Os  Os4  1  0.86436318  0.50000000  0.36436318  1
  Os  Os5  1  0.13563682  0.50000000  0.63563682  1
  O  O0  1  0.70483573  0.34376793  0.06432210  1
  O  O1  1  0.65623207  0.36106780  0.72055316  1
  O  O2  1  0.27944684  0.64051464  0.93567790  1
  O  O3  1  0.63893220  0.29516427  0.35948536  1
  O  O4  1  0.36106780  0.72055316  0.65623207  1
  O  O5  1  0.93567790  0.27944684  0.64051464  1
  O  O6  1  0.06432210  0.70483573  0.34376793  1
  O  O7  1  0.00000000  0.66963804  0.66963804  1
  O  O8  1  0.66963804  0.66963804  0.00000000  1
  O  O9  1  0.72055316  0.65623207  0.36106780  1
  O  O10  1  0.34376793  0.06432210  0.70483573  1
  O  O11  1  0.66963804  0.00000000  0.66963804  1
  O  O12  1  1.00000000  0.33036196  0.33036196  1
  O  O13  1  0.64051464  0.93567790  0.27944684  1
  O  O14  1  0.35948536  0.63893220  0.29516427  1
  O  O15  1  0.29516427  0.35948536  0.63893220  1
  O  O16  1  0.33036196  0.00000000  0.33036196  1
  O  O17  1  0.33036196  0.33036196  1.00000000  1
  F  F0  1  0.00000000  0.00000000  0.00000000  1
loop_
_geom_bond_atom_site_label_1
_geom_bond_atom_site_label_2
_geom_bond_distance
_geom_bond_site_symmetry_2
O0 Os4 1.946547 1_555
O0 Os0 1.954811 1_554
O0 Sr0 2.598297 1_554
O1 Os0 1.946553 1_555
O1 Os3 1.954807 1_555
O1 Sr2 2.598293 1_555
O2 Os5 1.946547 1_555
O2 Os1 1.954811 1_556
O2 Sr3 2.598292 1_565
O3 Os3 1.946553 1_555
O3 Os4 1.954807 1_555
O3 Sr3 2.598293 1_554
O4 Os2 1.946553 1_555
O4 Os5 1.954807 1_555
O4 Sr2 2.598293 1_555
O5 Os3 1.946547 1_555
O5 Os5 1.954811 1_655
O5 Sr0 2.598292 1_555
O6 Os2 1.946547 1_555
O6 Os4 1.954811 1_455
O6 Sr1 2.598297 1_565
O7 Os4 1.991262 1_455
O7 Os5 1.991262 1_555
O7 Sr2 2.609934 1_455
O7 Sr3 2.609935 1_565
O8 Os1 1.991262 1_555
O8 Os0 1.991262 1_554
O8 Sr2 2.609934 1_554
O8 Sr1 2.609935 1_665
O9 Os4 1.946553 1_555
O9 Os1 1.954807 1_555
O9 Sr2 2.598293 1_555
O10 Os0 1.946547 1_555
O10 Os2 1.954811 1_545
O10 Sr3 2.598297 1_555
O11 Os3 1.991262 1_555
O11 Os2 1.991262 1_545
O11 Sr2 2.609935 1_545
O11 Sr0 2.609935 1_555
O12 Os5 1.991262 1_655
O12 Os4 1.991262 1_555
O12 Sr0 2.609934 1_554
O12 Sr1 2.609935 1_655
O13 Os1 1.946547 1_555
O13 Os3 1.954811 1_565
O13 Sr1 2.598292 1_665
O14 Os1 1.946553 1_555
O14 Os2 1.954807 1_555
O14 Sr0 2.598294 1_454
O15 Os5 1.946553 1_555
O15 Os0 1.954807 1_555
O15 Sr1 2.598294 1_555
O16 Os2 1.991262 1_545
O16 Os3 1.991262 1_555
O16 Sr3 2.609934 1_554
O16 Sr1 2.609934 1_555
O17 Os0 1.991262 1_555
O17 Os1 1.991262 1_556
O17 Sr0 2.609934 1_455
O17 Sr3 2.609935 1_555
F0 Sr1 2.583016 1_555
F0 Sr3 2.583016 1_554
F0 Sr0 2.583016 1_454
F0 Sr2 2.583016 1_444
