# generated using pymatgen
data_CsLuP2S7
_symmetry_space_group_name_H-M   'P 1'
_cell_length_a   6.74342240
_cell_length_b   6.74342233
_cell_length_c   6.90954296
_cell_angle_alpha   96.16612062
_cell_angle_beta   96.16611712
_cell_angle_gamma   97.31530293
_symmetry_Int_Tables_number   1
_chemical_formula_structural   CsLuP2S7
_chemical_formula_sum   'Cs1 Lu1 P2 S7'
_cell_volume   307.49759490
_cell_formula_units_Z   1
loop_
 _symmetry_equiv_pos_site_id
 _symmetry_equiv_pos_as_xyz
  1  'x, y, z'
loop_
 _atom_site_type_symbol
 _atom_site_label
 _atom_site_symmetry_multiplicity
 _atom_site_fract_x
 _atom_site_fract_y
 _atom_site_fract_z
 _atom_site_occupancy
  Cs  Cs0  1  0.07642557  0.92357343  0.00000000  1
  Lu  Lu0  1  0.48973070  0.51026830  0.49999900  1
  P  P0  1  0.64575485  0.96395977  0.41387897  1
  P  P1  1  0.03604123  0.35424515  0.58612203  1
  S  S0  1  0.62923842  0.71205779  0.22211202  1
  S  S1  1  0.54528570  0.18149829  0.26788799  1
  S  S2  1  0.10332514  0.47878071  0.34499468  1
  S  S3  1  0.96503317  0.03496583  0.49999900  1
  S  S4  1  0.52121929  0.89667486  0.65500532  1
  S  S5  1  0.81850171  0.45471430  0.73211301  1
  S  S6  1  0.28794321  0.37076158  0.77788798  1
loop_
_geom_bond_atom_site_label_1
_geom_bond_atom_site_label_2
_geom_bond_distance
_geom_bond_site_symmetry_2
Cs0 S5 3.619183 1_454
Cs0 S1 3.619192 1_565
Cs0 S3 3.634225 1_465
Cs0 S3 3.634238 1_464
Cs0 S0 3.721894 1_455
Cs0 S6 3.721904 1_564
Cs0 S2 4.036505 1_555
Cs0 S4 4.036510 1_554
Lu0 S0 2.654556 1_555
Lu0 S6 2.654558 1_555
Lu0 S2 2.681890 1_555
Lu0 S4 2.681900 1_555
Lu0 S1 2.684112 1_555
Lu0 S5 2.684126 1_555
P0 S1 2.013126 1_565
P0 S4 2.013171 1_555
P0 S0 2.022425 1_555
P0 S3 2.149401 1_565
P1 S5 2.013132 1_455
P1 S2 2.013176 1_555
P1 S6 2.022421 1_555
P1 S3 2.149411 1_455
