# generated using pymatgen
data_Cs2RbAlBi2
_symmetry_space_group_name_H-M   'P 1'
_cell_length_a   10.16831246
_cell_length_b   10.16831330
_cell_length_c   10.16831335
_cell_angle_alpha   128.68524035
_cell_angle_beta   69.70251290
_cell_angle_gamma   136.20767368
_symmetry_Int_Tables_number   1
_chemical_formula_structural   Cs2RbAlBi2
_chemical_formula_sum   'Cs4 Rb2 Al2 Bi4'
_cell_volume   557.25928415
_cell_formula_units_Z   2
loop_
 _symmetry_equiv_pos_site_id
 _symmetry_equiv_pos_as_xyz
  1  'x, y, z'
loop_
 _atom_site_type_symbol
 _atom_site_label
 _atom_site_symmetry_multiplicity
 _atom_site_fract_x
 _atom_site_fract_y
 _atom_site_fract_z
 _atom_site_occupancy
  Cs  Cs0  1  0.32768305  0.71972185  0.04740490  1
  Cs  Cs1  1  0.17231795  0.21972185  0.39204079  1
  Cs  Cs2  1  0.82768205  0.78027815  0.60795921  1
  Cs  Cs3  1  0.67231795  0.28027815  0.95259610  1
  Rb  Rb0  1  0.74999900  0.24999900  0.50000000  1
  Rb  Rb1  1  0.24999900  0.74999900  0.50000000  1
  Al  Al0  1  0.24999900  0.24999900  0.00000000  1
  Al  Al1  1  0.75000000  0.75000000  0.00000000  1
  Bi  Bi0  1  0.91216855  0.17849202  0.09066057  1
  Bi  Bi1  1  0.58783145  0.67849202  0.26632346  1
  Bi  Bi2  1  0.41216855  0.32150798  0.73367654  1
  Bi  Bi3  1  0.08783145  0.82150798  0.90933843  1
loop_
_geom_bond_atom_site_label_1
_geom_bond_atom_site_label_2
_geom_bond_distance
_geom_bond_site_symmetry_2
Cs0 Rb0 4.237460 1_565
Cs0 Rb1 4.237467 1_555
Cs0 Cs3 4.624593 1_454
Cs0 Cs3 4.624594 1_564
Cs0 Cs1 5.109534 1_554
Cs0 Cs1 5.109541 1_565
Cs1 Rb1 4.237477 1_555
Cs1 Rb0 4.237480 1_455
Cs1 Cs2 4.624568 1_445
Cs1 Cs2 4.624580 1_555
Cs2 Rb1 4.237473 1_655
Cs2 Rb0 4.237484 1_555
Cs2 Cs3 5.109525 1_554
Cs2 Cs3 5.109533 1_565
Cs3 Rb0 4.237472 1_555
Cs3 Rb1 4.237479 1_545
Rb0 Rb1 3.792025 1_545
Rb0 Rb1 3.792025 1_655
Al0 Bi3 2.865961 1_544
Al0 Bi0 2.865965 1_455
Al0 Bi1 2.865975 1_555
Al0 Bi2 2.865975 1_554
Al0 Cs0 3.950752 1_555
Al0 Cs2 3.950763 1_444
Al0 Cs3 3.950764 1_554
Al0 Cs1 3.950767 1_555
Al1 Bi2 2.865970 1_554
Al1 Bi1 2.865970 1_555
Al1 Bi0 2.865970 1_565
Al1 Bi3 2.865971 1_654
Al1 Cs0 3.950748 1_555
Al1 Cs3 3.950761 1_554
Al1 Cs1 3.950767 1_665
Al1 Cs2 3.950771 1_554
Bi0 Rb1 3.709218 1_655
Bi0 Rb0 3.709225 1_555
Bi0 Cs2 3.779362 1_544
Bi0 Cs0 4.061933 1_545
Bi0 Cs0 4.061933 1_655
Bi0 Cs3 4.101986 1_554
Bi0 Cs1 4.356799 1_655
Bi1 Rb0 3.709218 1_565
Bi1 Rb1 3.709225 1_555
Bi1 Cs3 3.779354 1_554
Bi1 Cs1 4.061938 1_665
Bi1 Cs1 4.061946 1_555
Bi1 Cs2 4.101977 1_555
Bi1 Cs0 4.356773 1_555
Bi2 Rb0 3.709217 1_555
Bi2 Rb1 3.709226 1_545
Bi2 Cs0 3.779348 1_556
Bi2 Cs2 4.061938 1_445
Bi2 Cs2 4.061946 1_555
Bi2 Cs1 4.101977 1_555
Bi2 Cs3 4.356790 1_555
Bi3 Rb1 3.709209 1_555
Bi3 Rb0 3.709221 1_455
Bi3 Cs1 3.779369 1_566
Bi3 Cs3 4.061938 1_565
Bi3 Cs3 4.061945 1_455
Bi3 Cs0 4.102009 1_556
Bi3 Cs2 4.356790 1_455
