# generated using pymatgen
data_Sc6Al13Mo3Os7
_symmetry_space_group_name_H-M   'P 1'
_cell_length_a   8.76882431
_cell_length_b   8.76882473
_cell_length_c   8.76882488
_cell_angle_alpha   59.75741537
_cell_angle_beta   59.75741557
_cell_angle_gamma   59.75741115
_symmetry_Int_Tables_number   1
_chemical_formula_structural   Sc6Al13Mo3Os7
_chemical_formula_sum   'Sc6 Al13 Mo3 Os7'
_cell_volume   474.14403674
_cell_formula_units_Z   1
loop_
 _symmetry_equiv_pos_site_id
 _symmetry_equiv_pos_as_xyz
  1  'x, y, z'
loop_
 _atom_site_type_symbol
 _atom_site_label
 _atom_site_symmetry_multiplicity
 _atom_site_fract_x
 _atom_site_fract_y
 _atom_site_fract_z
 _atom_site_occupancy
  Sc  Sc0  1  0.71070919  0.71070919  0.28302780  1
  Sc  Sc1  1  0.29074941  0.71033057  0.29074941  1
  Sc  Sc2  1  0.71033057  0.29074941  0.29074941  1
  Sc  Sc3  1  0.29074941  0.29074941  0.71033057  1
  Sc  Sc4  1  0.71070919  0.28302780  0.71070919  1
  Sc  Sc5  1  0.28302780  0.71070919  0.71070919  1
  Al  Al0  1  0.88052068  0.88052068  0.88052068  1
  Al  Al1  1  0.12049756  0.12049756  0.63740133  1
  Al  Al2  1  0.12049756  0.63740133  0.12049756  1
  Al  Al3  1  0.63740133  0.12049756  0.12049756  1
  Al  Al4  1  0.12279905  0.12279905  0.12279905  1
  Al  Al5  1  0.66668872  0.66668872  0.00655999  1
  Al  Al6  1  0.66668872  0.00655999  0.66668872  1
  Al  Al7  1  0.00655999  0.66668872  0.66668872  1
  Al  Al8  1  0.65812630  0.65812630  0.65812630  1
  Al  Al9  1  0.33405975  0.33405975  0.00072601  1
  Al  Al10  1  0.33405975  0.00072601  0.33405975  1
  Al  Al11  1  0.00072601  0.33405975  0.33405975  1
  Al  Al12  1  0.33451390  0.33451390  0.33451390  1
  Mo  Mo0  1  0.87705975  0.87705975  0.36363490  1
  Mo  Mo1  1  0.87705975  0.36363490  0.87705975  1
  Mo  Mo2  1  0.36363490  0.87705975  0.87705975  1
  Os  Os0  1  0.00434522  0.00434522  0.00434522  1
  Os  Os1  1  0.99811570  0.99811570  0.49703622  1
  Os  Os2  1  0.50463730  0.99594326  0.50463730  1
  Os  Os3  1  0.99594326  0.50463730  0.50463730  1
  Os  Os4  1  0.50463730  0.50463730  0.99594326  1
  Os  Os5  1  0.99811570  0.49703622  0.99811570  1
  Os  Os6  1  0.49703622  0.99811570  0.99811570  1
loop_
_geom_bond_atom_site_label_1
_geom_bond_atom_site_label_2
_geom_bond_distance
_geom_bond_site_symmetry_2
Al0 Os0 2.664511 1_666
Al0 Os6 2.742204 1_555
Al0 Os5 2.742204 1_555
Al0 Os1 2.742205 1_555
Al0 Al6 2.760382 1_565
Al0 Al7 2.760382 1_655
Al0 Al5 2.760382 1_556
Al0 Sc5 2.921862 1_655
Al0 Sc4 2.921863 1_565
Al0 Sc0 2.921863 1_556
Al0 Al2 2.970482 1_656
Al0 Al3 2.970482 1_566
Al0 Al1 2.970482 1_665
Al1 Os0 2.621184 1_556
Al1 Al11 2.738698 1_555
Al1 Al10 2.738698 1_555
Al1 Os2 2.742143 1_545
Al1 Os3 2.742143 1_455
Al1 Al12 2.757513 1_555
Al1 Os1 2.763946 1_445
Al1 Sc4 2.965459 1_455
Al1 Sc5 2.965459 1_545
Al1 Mo2 2.988086 1_545
Al1 Mo1 2.988086 1_455
Al1 Sc3 3.005835 1_555
Al2 Os0 2.621183 1_565
Al2 Al9 2.738698 1_555
Al2 Os4 2.742143 1_554
Al2 Os3 2.742143 1_455
Al2 Os5 2.763946 1_454
Al2 Sc0 2.965459 1_455
Al2 Sc5 2.965459 1_554
Al2 Mo0 2.988086 1_455
Al2 Mo2 2.988086 1_554
Al2 Sc1 3.005835 1_555
Al3 Os0 2.621183 1_655
Al3 Al9 2.738698 1_555
Al3 Os4 2.742143 1_554
Al3 Os2 2.742143 1_545
Al3 Os6 2.763946 1_544
Al3 Sc0 2.965459 1_545
Al3 Sc4 2.965459 1_554
Al3 Mo0 2.988086 1_545
Al3 Mo1 2.988086 1_554
Al3 Sc2 3.005835 1_555
Al4 Os0 2.548942 1_555
Al4 Os6 2.671245 1_544
Al4 Os5 2.671245 1_454
Al4 Os1 2.671246 1_445
Al4 Al9 2.733367 1_555
Al4 Sc2 2.978763 1_455
Al4 Sc1 2.978763 1_545
Al4 Sc3 2.978763 1_554
Al4 Mo1 3.042352 1_454
Al4 Mo2 3.042353 1_544
Al4 Mo0 3.042353 1_445
Al5 Os5 2.490744 1_554
Al5 Os6 2.490744 1_554
Al5 Os4 2.519465 1_554
Al5 Mo2 2.783153 1_554
Al5 Mo1 2.783153 1_554
Al5 Sc0 2.865418 1_555
Al5 Sc1 2.939122 1_555
Al5 Sc2 2.939122 1_555
Al6 Os1 2.490744 1_545
Al6 Os6 2.490744 1_545
Al6 Os2 2.519465 1_545
Al6 Mo2 2.783153 1_545
Al6 Mo0 2.783153 1_545
Al6 Sc4 2.865418 1_555
Al6 Sc3 2.939122 1_555
Al6 Sc2 2.939122 1_555
Al7 Os1 2.490744 1_455
Al7 Os5 2.490744 1_455
Al7 Os3 2.519465 1_455
Al7 Mo0 2.783153 1_455
Al7 Mo1 2.783153 1_455
Al7 Sc5 2.865418 1_555
Al7 Sc3 2.939122 1_555
Al7 Sc1 2.939122 1_555
Al8 Os3 2.488053 1_555
Al8 Os2 2.488053 1_555
Al8 Os4 2.488053 1_555
Al8 Mo1 2.786491 1_555
Al8 Mo2 2.786491 1_555
Al8 Mo0 2.786491 1_555
Al8 Sc5 2.898724 1_555
Al8 Sc4 2.898724 1_555
Al8 Sc0 2.898724 1_555
Al9 Os5 2.552456 1_454
Al9 Os6 2.552457 1_544
Al9 Os4 2.569767 1_554
Al9 Sc4 2.961873 1_554
Al9 Sc5 2.961873 1_554
Al9 Sc3 2.977647 1_554
Al10 Os1 2.552457 1_445
Al10 Os6 2.552457 1_544
Al10 Os2 2.569766 1_545
Al10 Al4 2.733367 1_555
Al10 Al3 2.738698 1_555
Al10 Sc0 2.961873 1_545
Al10 Sc5 2.961873 1_545
Al10 Sc1 2.977647 1_545
Al11 Os1 2.552457 1_445
Al11 Os5 2.552457 1_454
Al11 Os3 2.569767 1_455
Al11 Al4 2.733367 1_555
Al11 Al2 2.738698 1_555
Al11 Sc0 2.961873 1_455
Al11 Sc4 2.961873 1_455
Al11 Sc2 2.977647 1_455
Al12 Os3 2.565936 1_455
Al12 Os2 2.565936 1_545
Al12 Os4 2.565936 1_554
Al12 Al2 2.757512 1_555
Al12 Al3 2.757512 1_555
Al12 Sc2 2.958909 1_555
Al12 Sc1 2.958909 1_555
Al12 Sc3 2.958909 1_555
Mo0 Os0 2.566704 1_665
Mo0 Os2 2.661202 1_555
Mo0 Os3 2.661202 1_555
Mo0 Os1 2.694206 1_555
Mo0 Sc1 2.994769 1_655
Mo0 Sc2 2.994769 1_565
Mo0 Sc0 2.995965 1_555
Mo1 Os0 2.566704 1_656
Mo1 Os4 2.661202 1_555
Mo1 Os3 2.661202 1_555
Mo1 Os5 2.694206 1_555
Mo1 Sc3 2.994769 1_655
Mo1 Sc2 2.994769 1_556
Mo1 Sc4 2.995965 1_555
Mo2 Os0 2.566704 1_566
Mo2 Os4 2.661202 1_555
Mo2 Os2 2.661202 1_555
Mo2 Os6 2.694206 1_555
Mo2 Sc3 2.994769 1_565
Mo2 Sc1 2.994769 1_556
Mo2 Sc5 2.995965 1_555
Os1 Sc2 3.102343 1_565
Os1 Sc1 3.102343 1_655
Os1 Sc5 3.117700 1_655
Os1 Sc4 3.117700 1_565
Os2 Sc3 3.139893 1_565
Os2 Sc2 3.139893 1_565
Os2 Sc0 3.178590 1_555
Os2 Sc5 3.178590 1_555
Os3 Sc3 3.139893 1_655
Os3 Sc1 3.139893 1_655
Os3 Sc0 3.178589 1_555
Os3 Sc4 3.178590 1_555
Os4 Sc2 3.139893 1_556
Os4 Sc1 3.139893 1_556
Os4 Sc5 3.178590 1_555
Os4 Sc4 3.178590 1_555
Os5 Sc3 3.102343 1_655
Os5 Sc2 3.102343 1_556
Os5 Sc0 3.117700 1_556
Os5 Sc5 3.117700 1_655
Os6 Sc3 3.102343 1_565
Os6 Sc1 3.102343 1_556
Os6 Sc0 3.117700 1_556
Os6 Sc4 3.117700 1_565
