# generated using pymatgen
data_Dy2(WO4)3
_symmetry_space_group_name_H-M   'P 1'
_cell_length_a   6.92719506
_cell_length_b   6.92719506
_cell_length_c   11.40896666
_cell_angle_alpha   79.23485305
_cell_angle_beta   79.23485305
_cell_angle_gamma   111.87547026
_symmetry_Int_Tables_number   1
_chemical_formula_structural   Dy2(WO4)3
_chemical_formula_sum   'Dy4 W6 O24'
_cell_volume   478.96737232
_cell_formula_units_Z   2
loop_
 _symmetry_equiv_pos_site_id
 _symmetry_equiv_pos_as_xyz
  1  'x, y, z'
loop_
 _atom_site_type_symbol
 _atom_site_label
 _atom_site_symmetry_multiplicity
 _atom_site_fract_x
 _atom_site_fract_y
 _atom_site_fract_z
 _atom_site_occupancy
  Dy  Dy0  1  0.95824100  0.71176900  0.59280000  1
  Dy  Dy1  1  0.28823100  0.04175900  0.90720000  1
  Dy  Dy2  1  0.04175900  0.28823100  0.40720000  1
  Dy  Dy3  1  0.71176900  0.95824100  0.09280000  1
  W  W0  1  0.86824100  0.13175900  0.75000000  1
  W  W1  1  0.13175900  0.86824100  0.25000000  1
  W  W2  1  0.75315500  0.54014700  0.94991700  1
  W  W3  1  0.45985300  0.24684500  0.55008300  1
  W  W4  1  0.24684500  0.45985300  0.05008300  1
  W  W5  1  0.54014700  0.75315500  0.44991700  1
  O  O0  1  0.39359200  0.47070800  0.42630700  1
  O  O1  1  0.52929200  0.60640800  0.07369300  1
  O  O2  1  0.60640800  0.52929200  0.57369300  1
  O  O3  1  0.47070800  0.39359200  0.92630700  1
  O  O4  1  0.76985800  0.33295700  0.06124300  1
  O  O5  1  0.66704300  0.23014200  0.43875700  1
  O  O6  1  0.23014200  0.66704300  0.93875700  1
  O  O7  1  0.33295700  0.76985800  0.56124300  1
  O  O8  1  0.54159400  0.90004700  0.29810700  1
  O  O9  1  0.09995300  0.45840600  0.20189300  1
  O  O10  1  0.92265400  0.33945600  0.60515700  1
  O  O11  1  0.66054400  0.07734600  0.89484300  1
  O  O12  1  0.07734600  0.66054400  0.39484300  1
  O  O13  1  0.33945600  0.92265400  0.10515700  1
  O  O14  1  0.79130300  0.87076000  0.72037700  1
  O  O15  1  0.12924000  0.20869700  0.77962300  1
  O  O16  1  0.20869700  0.12924000  0.27962300  1
  O  O17  1  0.45840600  0.09995300  0.70189300  1
  O  O18  1  0.18105300  0.07976600  0.54001500  1
  O  O19  1  0.92023400  0.81894700  0.95998500  1
  O  O20  1  0.81894700  0.92023400  0.45998500  1
  O  O21  1  0.07976600  0.18105300  0.04001500  1
  O  O22  1  0.90004700  0.54159400  0.79810700  1
  O  O23  1  0.87076000  0.79130300  0.22037700  1
loop_
_geom_bond_atom_site_label_1
_geom_bond_atom_site_label_2
_geom_bond_distance
_geom_bond_site_symmetry_2
Dy0 O22 2.302249 1_555
Dy0 O18 2.321768 1_665
Dy0 O14 2.363891 1_555
Dy0 O2 2.364540 1_555
Dy0 O12 2.393500 1_655
Dy0 O7 2.418218 1_655
Dy0 O20 2.465688 1_555
Dy0 O10 2.471787 1_555
Dy1 O17 2.302249 1_555
Dy1 O19 2.321768 1_445
Dy1 O15 2.363891 1_555
Dy1 O3 2.364540 1_555
Dy1 O13 2.393500 1_546
Dy1 O6 2.418218 1_545
Dy1 O21 2.465688 1_556
Dy1 O11 2.471787 1_555
Dy2 O9 2.302249 1_555
Dy2 O20 2.321768 1_445
Dy2 O16 2.363891 1_555
Dy2 O0 2.364540 1_555
Dy2 O10 2.393500 1_455
Dy2 O5 2.418218 1_455
Dy2 O18 2.465688 1_555
Dy2 O12 2.471787 1_555
Dy3 O8 2.302249 1_555
Dy3 O21 2.321768 1_665
Dy3 O23 2.363891 1_555
Dy3 O1 2.364540 1_555
Dy3 O11 2.393500 1_564
Dy3 O4 2.418218 1_565
Dy3 O19 2.465688 1_554
Dy3 O13 2.471787 1_555
O0 W5 1.936551 1_555
O0 W3 2.136389 1_555
O1 W4 1.936551 1_555
O1 W2 2.136389 1_554
O2 W3 1.936551 1_555
O2 W5 2.136389 1_555
O3 W2 1.936551 1_555
O3 W4 2.136389 1_556
O4 W2 1.784424 1_554
O5 W3 1.784424 1_555
O6 W4 1.784424 1_556
O7 W5 1.784424 1_555
O8 W5 1.833809 1_555
O9 W4 1.833809 1_555
O10 W0 1.848756 1_555
O11 W0 1.848756 1_555
O12 W1 1.848756 1_555
O13 W1 1.848756 1_555
O14 W0 1.801279 1_565
O15 W0 1.801279 1_455
O16 W1 1.801279 1_545
O17 W3 1.833809 1_555
O18 W3 1.884019 1_555
O19 W2 1.884019 1_555
O20 W5 1.884019 1_555
O21 W4 1.884019 1_555
O22 W2 1.833809 1_555
O23 W1 1.801279 1_655
