# generated using pymatgen
data_La2SmS4
_symmetry_space_group_name_H-M   'P 1'
_cell_length_a   7.50227046
_cell_length_b   7.50227046
_cell_length_c   7.50227046
_cell_angle_alpha   109.41802527
_cell_angle_beta   109.41802527
_cell_angle_gamma   109.57766382
_symmetry_Int_Tables_number   1
_chemical_formula_structural   La2SmS4
_chemical_formula_sum   'La4 Sm2 S8'
_cell_volume   325.05371531
_cell_formula_units_Z   2
loop_
 _symmetry_equiv_pos_site_id
 _symmetry_equiv_pos_as_xyz
  1  'x, y, z'
loop_
 _atom_site_type_symbol
 _atom_site_label
 _atom_site_symmetry_multiplicity
 _atom_site_fract_x
 _atom_site_fract_y
 _atom_site_fract_z
 _atom_site_occupancy
  La  La0  1  0.99483100  0.37500000  0.11983100  1
  La  La1  1  0.25516900  0.87500000  0.88016900  1
  La  La2  1  0.62500000  0.74483100  0.61983100  1
  La  La3  1  0.12500000  0.00516900  0.38016900  1
  Sm  Sm0  1  0.75000000  0.25000000  0.50000000  1
  Sm  Sm1  1  0.50000000  0.50000000  0.00000000  1
  S  S0  1  0.52455900  0.12988600  0.74960600  1
  S  S1  1  0.02495300  0.13028000  0.75039400  1
  S  S2  1  0.87011400  0.61972000  0.39467200  1
  S  S3  1  0.37988600  0.27455900  0.24960600  1
  S  S4  1  0.22504700  0.47544100  0.60532800  1
  S  S5  1  0.38028000  0.77495300  0.25039400  1
  S  S6  1  0.86972000  0.62011400  0.89467200  1
  S  S7  1  0.72544100  0.97504700  0.10532800  1
loop_
_geom_bond_atom_site_label_1
_geom_bond_atom_site_label_2
_geom_bond_distance
_geom_bond_site_symmetry_2
La0 S2 2.900806 1_555
La0 S1 2.900811 1_654
La0 S5 2.944891 1_655
La0 S7 2.944895 1_545
La0 S0 3.046949 1_554
La0 S6 3.046954 1_554
La0 S3 3.152356 1_655
La0 S4 3.152363 1_655
La1 S4 2.900808 1_555
La1 S3 2.900811 1_566
La1 S6 2.944887 1_455
La1 S0 2.944891 1_565
La1 S5 3.046949 1_556
La1 S7 3.046950 1_556
La1 S1 3.152356 1_565
La1 S2 3.152361 1_455
La2 S6 2.900806 1_555
La2 S5 2.900811 1_555
La2 S1 2.944891 1_665
La2 S4 2.944895 1_555
La2 S3 3.046949 1_555
La2 S2 3.046954 1_555
La2 S0 3.152356 1_565
La2 S7 3.152363 1_556
La3 S7 2.900808 1_445
La3 S0 2.900811 1_555
La3 S2 2.944887 1_445
La3 S3 2.944891 1_555
La3 S1 3.046949 1_555
La3 S4 3.046950 1_555
La3 S5 3.152356 1_545
La3 S6 3.152361 1_444
S0 Sm1 2.894404 1_556
S0 Sm0 3.063625 1_555
S1 Sm0 2.894404 1_455
S1 Sm1 3.063625 1_556
S2 Sm1 2.894399 1_555
S2 Sm0 3.063630 1_555
S3 Sm0 2.894404 1_555
S3 Sm1 3.063625 1_555
S4 Sm1 2.894398 1_556
S4 Sm0 3.063623 1_455
S5 Sm1 2.894404 1_555
S5 Sm0 3.063625 1_565
S6 Sm0 2.894399 1_555
S6 Sm1 3.063630 1_556
S7 Sm0 2.894398 1_565
S7 Sm1 3.063623 1_555
