# generated using pymatgen
data_Lu4Si(RhAu)6
_symmetry_space_group_name_H-M   'P 1'
_cell_length_a   7.21160425
_cell_length_b   7.21160438
_cell_length_c   7.21160369
_cell_angle_alpha   109.47121055
_cell_angle_beta   109.47121090
_cell_angle_gamma   109.47122617
_symmetry_Int_Tables_number   1
_chemical_formula_structural   Lu4Si(RhAu)6
_chemical_formula_sum   'Lu4 Si1 Rh6 Au6'
_cell_volume   288.71797160
_cell_formula_units_Z   1
loop_
 _symmetry_equiv_pos_site_id
 _symmetry_equiv_pos_as_xyz
  1  'x, y, z'
loop_
 _atom_site_type_symbol
 _atom_site_label
 _atom_site_symmetry_multiplicity
 _atom_site_fract_x
 _atom_site_fract_y
 _atom_site_fract_z
 _atom_site_occupancy
  Lu  Lu0  1  0.00000000  0.00000000  0.50000000  1
  Lu  Lu1  1  0.00000000  0.50000000  0.00000000  1
  Lu  Lu2  1  0.50000000  0.00000000  0.00000000  1
  Lu  Lu3  1  0.50000000  0.50000000  0.50000000  1
  Si  Si0  1  0.00000000  0.00000000  0.00000000  1
  Rh  Rh0  1  0.72991455  0.72991455  1.00000000  1
  Rh  Rh1  1  0.27008545  0.00000000  0.27008545  1
  Rh  Rh2  1  0.00000000  0.27008545  0.27008545  1
  Rh  Rh3  1  0.27008545  0.27008545  0.00000000  1
  Rh  Rh4  1  0.72991455  1.00000000  0.72991455  1
  Rh  Rh5  1  1.00000000  0.72991455  0.72991455  1
  Au  Au0  1  0.75000000  0.25000000  0.50000000  1
  Au  Au1  1  0.75000000  0.50000000  0.25000000  1
  Au  Au2  1  0.50000000  0.25000000  0.75000000  1
  Au  Au3  1  0.25000000  0.50000000  0.75000000  1
  Au  Au4  1  0.25000000  0.75000000  0.50000000  1
  Au  Au5  1  0.50000000  0.75000000  0.25000000  1
loop_
_geom_bond_atom_site_label_1
_geom_bond_atom_site_label_2
_geom_bond_distance
_geom_bond_site_symmetry_2
Lu0 Rh1 2.948872 1_555
Lu0 Rh4 2.948872 1_445
Lu0 Rh2 2.948872 1_555
Lu0 Rh5 2.948872 1_445
Lu0 Rh3 2.948873 1_556
Lu0 Rh0 2.948873 1_444
Lu1 Rh2 2.948872 1_555
Lu1 Rh5 2.948872 1_454
Lu1 Rh3 2.948872 1_555
Lu1 Rh0 2.948872 1_454
Lu1 Rh1 2.948873 1_565
Lu1 Rh4 2.948873 1_444
Lu2 Rh1 2.948872 1_555
Lu2 Rh4 2.948872 1_544
Lu2 Rh3 2.948872 1_555
Lu2 Rh0 2.948872 1_544
Lu2 Rh2 2.948873 1_655
Lu2 Rh5 2.948873 1_444
Lu3 Rh2 2.948873 1_555
Lu3 Rh5 2.948873 1_555
Lu3 Rh0 2.948873 1_555
Lu3 Rh3 2.948873 1_555
Lu3 Rh4 2.948873 1_555
Lu3 Rh1 2.948873 1_555
Rh0 Si0 2.249067 1_666
Rh1 Si0 2.249067 1_555
Rh2 Si0 2.249068 1_555
Rh3 Si0 2.249067 1_555
Rh4 Si0 2.249067 1_666
Rh5 Si0 2.249068 1_666
Au0 Rh2 2.828330 1_655
Au0 Rh4 2.828330 1_545
Au0 Rh1 2.828331 1_555
Au0 Rh5 2.828331 1_555
Au0 Lu3 2.944125 1_555
Au0 Lu0 2.944125 1_655
Au0 Lu1 2.944125 1_656
Au0 Lu2 2.944125 1_555
Au1 Rh0 2.828330 1_554
Au1 Rh2 2.828331 1_655
Au1 Rh3 2.828331 1_555
Au1 Rh5 2.828331 1_555
Au1 Lu3 2.944125 1_555
Au1 Lu1 2.944125 1_655
Au1 Lu0 2.944126 1_665
Au1 Lu2 2.944126 1_555
Au2 Rh3 2.828330 1_556
Au2 Rh4 2.828331 1_545
Au2 Rh1 2.828331 1_555
Au2 Rh0 2.828331 1_555
Au2 Lu2 2.944125 1_556
Au2 Lu3 2.944125 1_555
Au2 Lu0 2.944125 1_555
Au2 Lu1 2.944125 1_656
Au3 Rh3 2.828330 1_556
Au3 Rh5 2.828331 1_455
Au3 Rh0 2.828331 1_555
Au3 Rh2 2.828331 1_555
Au3 Lu3 2.944125 1_555
Au3 Lu1 2.944125 1_556
Au3 Lu2 2.944126 1_566
Au3 Lu0 2.944126 1_555
Au4 Rh5 2.828330 1_455
Au4 Rh1 2.828330 1_565
Au4 Rh4 2.828331 1_555
Au4 Rh2 2.828331 1_555
Au4 Lu3 2.944125 1_555
Au4 Lu0 2.944125 1_565
Au4 Lu1 2.944125 1_555
Au4 Lu2 2.944125 1_566
Au5 Rh0 2.828330 1_554
Au5 Rh1 2.828331 1_565
Au5 Rh4 2.828331 1_555
Au5 Rh3 2.828331 1_555
Au5 Lu2 2.944125 1_565
Au5 Lu3 2.944125 1_555
Au5 Lu0 2.944125 1_665
Au5 Lu1 2.944125 1_555
