# generated using pymatgen
data_Rb12Nb2As7H
_symmetry_space_group_name_H-M   'P 1'
_cell_length_a   10.78815911
_cell_length_b   10.79044451
_cell_length_c   8.57245045
_cell_angle_alpha   89.97974461
_cell_angle_beta   89.99513504
_cell_angle_gamma   119.98780877
_symmetry_Int_Tables_number   1
_chemical_formula_structural   Rb12Nb2As7H
_chemical_formula_sum   'Rb12 Nb2 As7 H1'
_cell_volume   864.32203611
_cell_formula_units_Z   1
loop_
 _symmetry_equiv_pos_site_id
 _symmetry_equiv_pos_as_xyz
  1  'x, y, z'
loop_
 _atom_site_type_symbol
 _atom_site_label
 _atom_site_symmetry_multiplicity
 _atom_site_fract_x
 _atom_site_fract_y
 _atom_site_fract_z
 _atom_site_occupancy
  Rb  Rb0  1  0.46142353  0.53848136  0.60307095  1
  Rb  Rb1  1  0.07679545  0.53836892  0.60310195  1
  Rb  Rb2  1  0.51897689  0.48114823  0.13104640  1
  Rb  Rb3  1  0.51887672  0.03771350  0.13102190  1
  Rb  Rb4  1  0.85651235  0.14346270  0.79441761  1
  Rb  Rb5  1  0.28846750  0.14419782  0.79535721  1
  Rb  Rb6  1  0.85679462  0.71349544  0.79425283  1
  Rb  Rb7  1  0.14432614  0.85543023  0.29264051  1
  Rb  Rb8  1  0.71107038  0.85550685  0.29261277  1
  Rb  Rb9  1  0.14463203  0.28945707  0.29304398  1
  Rb  Rb10  1  0.46151693  0.92300838  0.60300325  1
  Rb  Rb11  1  0.96174008  0.48096075  0.13055218  1
  Nb  Nb0  1  0.66654369  0.33313512  0.48876122  1
  Nb  Nb1  1  0.33327377  0.66667892  0.99569540  1
  As  As0  1  0.33339614  0.66684996  0.28771588  1
  As  As1  1  0.20380056  0.79602222  0.90705132  1
  As  As2  1  0.59198815  0.79599595  0.90687818  1
  As  As3  1  0.20395226  0.40796355  0.90720238  1
  As  As4  1  0.79337897  0.20616327  0.41606523  1
  As  As5  1  0.41271253  0.20622294  0.41647728  1
  As  As6  1  0.79345740  0.58701886  0.41621262  1
  H  H0  1  0.66636192  0.33271592  0.70821695  1
loop_
_geom_bond_atom_site_label_1
_geom_bond_atom_site_label_2
_geom_bond_distance
_geom_bond_site_symmetry_2
Nb1 Rb2 3.657279 1_556
Nb1 Rb11 3.658693 1_456
As0 Nb1 2.503332 1_554
As0 Rb9 3.527369 1_555
As0 Rb7 3.528735 1_555
As0 Rb8 3.529238 1_555
As0 Rb10 3.611427 1_555
As0 Rb0 3.611776 1_555
As0 Rb1 3.613104 1_555
As0 Rb3 3.716681 1_565
As0 Rb2 3.720084 1_555
As0 Rb11 3.725309 1_455
As1 Nb1 2.534657 1_555
As1 Rb7 3.487242 1_556
As1 Rb6 3.522928 1_455
As1 Rb5 3.526027 1_565
As1 Rb10 3.548105 1_555
As1 Rb1 3.548766 1_555
As1 Rb11 3.628754 1_456
As1 Rb3 3.631089 1_566
As2 Nb1 2.534266 1_555
As2 Rb8 3.489202 1_556
As2 Rb6 3.525357 1_555
As2 Rb4 3.525900 1_565
As2 Rb10 3.545665 1_555
As2 Rb0 3.546995 1_555
As2 Rb2 3.629787 1_556
As2 Rb3 3.629983 1_566
As3 Nb1 2.534480 1_555
As3 Rb9 3.487635 1_556
As3 Rb4 3.526837 1_455
As3 Rb5 3.528030 1_555
As3 Rb0 3.547070 1_555
As3 Rb1 3.547572 1_555
As3 Rb11 3.629310 1_456
As3 Rb2 3.629762 1_556
As4 Nb0 2.451991 1_555
As4 Rb4 3.449751 1_555
As4 Rb3 3.559211 1_555
As4 Rb11 3.562611 1_555
As4 Rb8 3.587416 1_545
As4 Rb9 3.587956 1_655
As4 Rb10 3.712392 1_545
As4 Rb1 3.717224 1_655
As5 Nb0 2.451580 1_555
As5 Rb5 3.448848 1_555
As5 Rb3 3.562362 1_555
As5 Rb2 3.563223 1_555
As5 Rb7 3.589681 1_545
As5 Rb9 3.589828 1_555
As5 Rb10 3.711911 1_545
As5 Rb0 3.716099 1_555
As6 Nb0 2.452659 1_555
As6 Rb6 3.450082 1_555
As6 Rb2 3.559637 1_555
As6 Rb11 3.560948 1_555
As6 Rb7 3.588404 1_655
As6 Rb8 3.588571 1_555
As6 Rb1 3.713484 1_655
As6 Rb0 3.714056 1_555
H0 Nb0 1.881276 1_555
