# generated using pymatgen
data_Hf4Sc(Re3Tc5)3
_symmetry_space_group_name_H-M   'P 1'
_cell_length_a   8.35588645
_cell_length_b   8.39318602
_cell_length_c   8.39318628
_cell_angle_alpha   109.56107260
_cell_angle_beta   109.38120950
_cell_angle_gamma   109.38122631
_symmetry_Int_Tables_number   1
_chemical_formula_structural   Hf4Sc(Re3Tc5)3
_chemical_formula_sum   'Hf4 Sc1 Re9 Tc15'
_cell_volume   453.63394218
_cell_formula_units_Z   1
loop_
 _symmetry_equiv_pos_site_id
 _symmetry_equiv_pos_as_xyz
  1  'x, y, z'
loop_
 _atom_site_type_symbol
 _atom_site_label
 _atom_site_symmetry_multiplicity
 _atom_site_fract_x
 _atom_site_fract_y
 _atom_site_fract_z
 _atom_site_occupancy
  Hf  Hf0  1  0.62467148  0.00000000  0.00000000  1
  Hf  Hf1  1  0.00063014  0.62643664  1.00000000  1
  Hf  Hf2  1  0.00063014  0.00000000  0.62643664  1
  Hf  Hf3  1  0.37419450  0.37356336  0.37356336  1
  Sc  Sc0  1  0.00009415  1.00000000  1.00000000  1
  Re  Re0  1  0.19650505  0.37463801  1.00000000  1
  Re  Re1  1  0.99916898  0.37539419  0.19283026  1
  Re  Re2  1  0.80633872  0.18256293  0.80716974  1
  Re  Re3  1  0.80633872  0.80716974  0.18256293  1
  Re  Re4  1  0.99916898  0.19283026  0.37539419  1
  Re  Re5  1  0.19650505  1.00000000  0.37463801  1
  Re  Re6  1  0.62377579  0.62460581  0.81743707  1
  Re  Re7  1  0.82186804  0.62536199  0.62536199  1
  Re  Re8  1  0.62377579  0.81743707  0.62460581  1
  Tc  Tc0  1  0.39678701  0.67463592  1.00000000  1
  Tc  Tc1  1  0.72215309  0.32536408  0.32536408  1
  Tc  Tc2  1  0.39678701  0.00000000  0.67463592  1
  Tc  Tc3  1  0.67310130  0.39634008  0.00000000  1
  Tc  Tc4  1  0.99912420  0.39442226  0.67608762  1
  Tc  Tc5  1  0.32303658  0.71833563  0.32391238  1
  Tc  Tc6  1  0.32303658  0.32391238  0.71833563  1
  Tc  Tc7  1  0.99912420  0.67608762  0.39442226  1
  Tc  Tc8  1  0.67310130  0.00000000  0.39634008  1
  Tc  Tc9  1  0.60470294  0.60557774  0.28166437  1
  Tc  Tc10  1  0.27676022  0.60365992  0.60365992  1
  Tc  Tc11  1  0.60470294  0.28166437  0.60557774  1
  Tc  Tc12  1  0.37576511  0.19337922  0.00000000  1
  Tc  Tc13  1  0.18238588  0.80662078  0.80662078  1
  Tc  Tc14  1  0.37576511  1.00000000  0.19337922  1
loop_
_geom_bond_atom_site_label_1
_geom_bond_atom_site_label_2
_geom_bond_distance
_geom_bond_site_symmetry_2
Hf0 Tc1 2.762623 1_555
Hf0 Tc0 2.762629 1_544
Hf0 Tc2 2.762630 1_554
Hf0 Re2 3.003174 1_554
Hf0 Re3 3.003174 1_545
Hf0 Re1 3.003178 1_555
Hf0 Re4 3.003179 1_555
Hf0 Re6 3.003181 1_544
Hf0 Re8 3.003181 1_544
Hf0 Tc14 3.033237 1_545
Hf0 Tc12 3.033237 1_555
Hf0 Tc13 3.033238 1_544
Hf0 Sc0 3.136989 1_644
Hf0 Tc3 3.215008 1_555
Hf0 Tc8 3.215008 1_555
Hf0 Tc10 3.215010 1_544
Hf1 Tc5 2.756686 1_556
Hf1 Tc4 2.756689 1_455
Hf1 Tc3 2.777011 1_456
Hf1 Re7 2.995549 1_455
Hf1 Re5 2.995550 1_556
Hf1 Tc13 2.997213 1_555
Hf1 Tc14 2.997213 1_556
Hf1 Re6 3.002286 1_455
Hf1 Re3 3.002290 1_456
Hf1 Re1 3.055941 1_456
Hf1 Re2 3.055948 1_455
Hf1 Re0 3.072621 1_555
Hf1 Sc0 3.136876 1_555
Hf1 Tc0 3.198838 1_555
Hf1 Tc11 3.200046 1_455
Hf1 Tc7 3.200047 1_456
Hf2 Tc6 2.756686 1_555
Hf2 Tc7 2.756689 1_445
Hf2 Tc8 2.777011 1_455
Hf2 Re7 2.995548 1_445
Hf2 Re0 2.995550 1_555
Hf2 Tc13 2.997213 1_545
Hf2 Tc12 2.997214 1_556
Hf2 Re8 3.002285 1_445
Hf2 Re2 3.002290 1_455
Hf2 Re4 3.055941 1_455
Hf2 Re3 3.055948 1_445
Hf2 Re5 3.072621 1_545
Hf2 Sc0 3.136876 1_545
Hf2 Tc2 3.198838 1_555
Hf2 Tc9 3.200046 1_445
Hf2 Tc4 3.200047 1_455
Hf3 Tc9 2.756695 1_555
Hf3 Tc11 2.756696 1_555
Hf3 Tc10 2.777023 1_555
Hf3 Re5 2.995551 1_545
Hf3 Re0 2.995551 1_554
Hf3 Tc14 2.997209 1_545
Hf3 Tc12 2.997209 1_555
Hf3 Re4 3.002301 1_455
Hf3 Re1 3.002302 1_455
Hf3 Re8 3.055947 1_555
Hf3 Re6 3.055948 1_555
Hf3 Re7 3.072621 1_555
Hf3 Sc0 3.136879 1_544
Hf3 Tc1 3.198846 1_555
Hf3 Tc6 3.200059 1_555
Hf3 Tc5 3.200059 1_555
Sc0 Tc13 3.017707 1_555
Sc0 Tc12 3.017707 1_566
Sc0 Tc14 3.017708 1_556
Re0 Tc12 2.463847 1_556
Re0 Tc0 2.518725 1_555
Re0 Re1 2.666399 1_456
Re0 Re2 2.666399 1_455
Re0 Tc4 2.765311 1_455
Re0 Tc5 2.765315 1_556
Re0 Tc6 2.858600 1_555
Re0 Tc9 2.858613 1_556
Re0 Sc0 3.025839 1_545
Re1 Re4 2.503611 1_555
Re1 Tc7 2.524661 1_555
Re1 Re2 2.644399 1_554
Re1 Tc5 2.748174 1_655
Re1 Tc3 2.766844 1_555
Re1 Tc1 2.854510 1_555
Re1 Tc10 2.873867 1_655
Re1 Sc0 3.025977 1_644
Re2 Re8 2.503597 1_545
Re2 Tc11 2.524656 1_555
Re2 Tc4 2.748174 1_555
Re2 Tc3 2.766849 1_556
Re2 Tc2 2.854525 1_555
Re2 Tc8 2.873869 1_555
Re2 Sc0 3.025970 1_645
Re3 Re6 2.503597 1_554
Re3 Tc9 2.524656 1_555
Re3 Re4 2.644399 1_565
Re3 Re5 2.666399 1_655
Re3 Tc7 2.748175 1_555
Re3 Tc8 2.766849 1_565
Re3 Tc0 2.854525 1_554
Re3 Tc3 2.873868 1_555
Re3 Sc0 3.025969 1_654
Re4 Tc4 2.524661 1_555
Re4 Re5 2.666399 1_645
Re4 Tc6 2.748175 1_655
Re4 Tc8 2.766844 1_555
Re4 Tc1 2.854510 1_555
Re4 Tc10 2.873867 1_655
Re4 Sc0 3.025977 1_644
Re5 Tc14 2.463846 1_555
Re5 Tc2 2.518725 1_565
Re5 Tc7 2.765310 1_455
Re5 Tc6 2.765315 1_565
Re5 Tc5 2.858601 1_555
Re5 Tc11 2.858612 1_565
Re5 Sc0 3.025840 1_554
Re6 Tc6 2.524665 1_555
Re6 Re8 2.644413 1_555
Re6 Re7 2.666406 1_555
Re6 Tc11 2.748178 1_555
Re6 Tc10 2.766860 1_555
Re6 Tc0 2.854526 1_555
Re6 Tc3 2.873861 1_556
Re6 Sc0 3.025974 1_655
Re7 Tc13 2.463840 1_655
Re7 Tc1 2.518728 1_555
Re7 Re8 2.666406 1_555
Re7 Tc11 2.765317 1_555
Re7 Tc9 2.765318 1_555
Re7 Tc7 2.858602 1_555
Re7 Tc4 2.858602 1_555
Re7 Sc0 3.025841 1_655
Re8 Tc5 2.524666 1_555
Re8 Tc9 2.748179 1_555
Re8 Tc10 2.766860 1_555
Re8 Tc2 2.854526 1_565
Re8 Tc8 2.873861 1_565
Re8 Sc0 3.025975 1_655
Tc0 Tc14 2.768086 1_556
Tc0 Tc13 2.768086 1_555
Tc0 Tc6 2.793384 1_555
Tc0 Tc9 2.793385 1_556
Tc0 Tc10 2.913570 1_555
Tc0 Tc8 2.913571 1_566
Tc0 Tc5 2.915414 1_556
Tc0 Tc4 2.915416 1_455
Tc1 Tc14 2.768095 1_545
Tc1 Tc12 2.768096 1_555
Tc1 Tc7 2.793381 1_555
Tc1 Tc4 2.793381 1_555
Tc1 Tc8 2.913569 1_555
Tc1 Tc3 2.913569 1_555
Tc1 Tc11 2.915422 1_555
Tc1 Tc9 2.915423 1_555
Tc2 Tc5 2.793384 1_545
Tc2 Tc3 2.913571 1_556
Tc2 Tc6 2.915414 1_555
Tc2 Tc7 2.915416 1_445
Tc3 Tc9 2.789697 1_555
Tc3 Tc6 2.789705 1_554
Tc3 Tc7 2.908215 1_555
Tc4 Tc6 2.892775 1_655
Tc4 Tc8 2.908215 1_555
Tc5 Tc8 2.789705 1_565
Tc5 Tc7 2.892775 1_455
Tc5 Tc9 2.892791 1_555
Tc7 Tc9 2.892767 1_555
Tc8 Tc9 2.908216 1_545
Tc10 Tc13 2.503119 1_555
Tc10 Tc4 2.789703 1_455
Tc10 Tc7 2.789703 1_455
Tc10 Tc5 2.908222 1_555
Tc10 Tc6 2.908222 1_555
Tc10 Tc2 2.913570 1_565
Tc11 Tc8 2.789697 1_555
Tc11 Tc2 2.793385 1_555
Tc11 Tc14 2.889062 1_545
Tc11 Tc4 2.892767 1_555
Tc11 Tc6 2.892791 1_555
Tc11 Tc3 2.908216 1_556
Tc12 Tc3 2.503125 1_555
Tc12 Tc13 2.651927 1_544
Tc12 Tc14 2.651927 1_545
Tc12 Tc2 2.768086 1_554
Tc12 Tc6 2.889056 1_554
Tc12 Tc9 2.889061 1_555
Tc13 Tc14 2.651928 1_556
Tc13 Tc2 2.768086 1_565
Tc13 Tc4 2.889063 1_455
Tc13 Tc7 2.889064 1_455
Tc14 Tc8 2.503126 1_565
Tc14 Tc5 2.889056 1_555
