# generated using pymatgen
data_LiAl(SbO3)4
_symmetry_space_group_name_H-M   'P 1'
_cell_length_a   4.62131963
_cell_length_b   9.23586838
_cell_length_c   9.11534106
_cell_angle_alpha   90.00000000
_cell_angle_beta   90.00000000
_cell_angle_gamma   90.00000000
_symmetry_Int_Tables_number   1
_chemical_formula_structural   LiAl(SbO3)4
_chemical_formula_sum   'Li2 Al2 Sb8 O24'
_cell_volume   389.06007429
_cell_formula_units_Z   2
loop_
 _symmetry_equiv_pos_site_id
 _symmetry_equiv_pos_as_xyz
  1  'x, y, z'
loop_
 _atom_site_type_symbol
 _atom_site_label
 _atom_site_symmetry_multiplicity
 _atom_site_fract_x
 _atom_site_fract_y
 _atom_site_fract_z
 _atom_site_occupancy
  Li  Li0  1  0.99700692  0.50265569  0.00000000  1
  Li  Li1  1  0.49700692  0.74734431  0.50000000  1
  Al  Al0  1  0.00213519  0.99869898  0.00000000  1
  Al  Al1  1  0.50213519  0.25130102  0.50000000  1
  Sb  Sb0  1  0.99754165  0.99826161  0.33276711  1
  Sb  Sb1  1  0.00533441  0.50198100  0.33093297  1
  Sb  Sb2  1  0.49754165  0.25173839  0.83276711  1
  Sb  Sb3  1  0.50533441  0.74801900  0.83093297  1
  Sb  Sb4  1  0.49754165  0.25173839  0.16723289  1
  Sb  Sb5  1  0.50533441  0.74801900  0.16906703  1
  Sb  Sb6  1  0.99754165  0.99826161  0.66723289  1
  Sb  Sb7  1  0.00533441  0.50198100  0.66906703  1
  O  O0  1  0.29903180  0.14551407  0.00000000  1
  O  O1  1  0.30970748  0.66184549  0.00000000  1
  O  O2  1  0.20908858  0.39637409  0.50000000  1
  O  O3  1  0.18543788  0.90646661  0.50000000  1
  O  O4  1  0.79903180  0.10448593  0.50000000  1
  O  O5  1  0.80970748  0.58815451  0.50000000  1
  O  O6  1  0.68543788  0.34353339  0.00000000  1
  O  O7  1  0.70908858  0.85362591  0.00000000  1
  O  O8  1  0.31418088  0.15016365  0.33841563  1
  O  O9  1  0.29365146  0.65617690  0.32819614  1
  O  O10  1  0.19074007  0.39444641  0.82726163  1
  O  O11  1  0.19734811  0.90965537  0.83879027  1
  O  O12  1  0.81418088  0.09983635  0.83841563  1
  O  O13  1  0.79365146  0.59382310  0.82819614  1
  O  O14  1  0.81418088  0.09983635  0.16158437  1
  O  O15  1  0.79365146  0.59382310  0.17180386  1
  O  O16  1  0.19074007  0.39444641  0.17273837  1
  O  O17  1  0.19734811  0.90965537  0.16120973  1
  O  O18  1  0.69734811  0.34034463  0.33879027  1
  O  O19  1  0.69074007  0.85555359  0.32726163  1
  O  O20  1  0.31418088  0.15016365  0.66158437  1
  O  O21  1  0.29365146  0.65617690  0.67180386  1
  O  O22  1  0.69734811  0.34034463  0.66120973  1
  O  O23  1  0.69074007  0.85555359  0.67273837  1
loop_
_geom_bond_atom_site_label_1
_geom_bond_atom_site_label_2
_geom_bond_distance
_geom_bond_site_symmetry_2
Li0 O15 2.011135 1_555
Li0 O13 2.011135 1_554
Li0 O6 2.057430 1_555
Li0 O1 2.061537 1_655
Li0 O10 2.068731 1_654
Li0 O16 2.068731 1_655
Li1 O21 2.011135 1_555
Li1 O9 2.011135 1_555
Li1 O3 2.057430 1_555
Li1 O5 2.061537 1_555
Li1 O19 2.068731 1_555
Li1 O23 2.068731 1_555
Al0 O7 1.905070 1_455
Al0 O17 1.910385 1_555
Al0 O11 1.910385 1_554
Al0 O0 1.929034 1_565
Al0 O14 1.948438 1_465
Al0 O12 1.948438 1_464
Al1 O2 1.905070 1_555
Al1 O22 1.910385 1_555
Al1 O18 1.910385 1_555
Al1 O4 1.929034 1_555
Al1 O20 1.948438 1_555
Al1 O8 1.948438 1_555
O0 Sb4 2.031708 1_555
O0 Sb2 2.031708 1_554
O1 Sb5 1.955953 1_555
O1 Sb3 1.955953 1_554
O2 Sb7 2.052556 1_555
O2 Sb1 2.052556 1_555
O3 Sb6 1.948466 1_455
O3 Sb0 1.948466 1_455
O4 Sb6 2.031708 1_545
O4 Sb0 2.031708 1_545
O5 Sb7 1.955953 1_655
O5 Sb1 1.955953 1_655
O6 Sb4 1.948466 1_555
O6 Sb2 1.948466 1_554
O7 Sb5 2.052556 1_555
O7 Sb3 2.052556 1_554
O8 Sb4 2.008217 1_555
O8 Sb0 2.027839 1_445
O9 Sb5 1.944349 1_555
O9 Sb1 1.950405 1_555
O10 Sb2 1.936483 1_555
O10 Sb7 1.949331 1_555
O11 Sb6 1.991934 1_455
O11 Sb3 2.063863 1_555
O12 Sb6 2.008217 1_545
O12 Sb2 2.027839 1_555
O13 Sb7 1.944349 1_655
O13 Sb3 1.950405 1_555
O14 Sb0 2.008217 1_545
O14 Sb4 2.027839 1_555
O15 Sb1 1.944349 1_655
O15 Sb5 1.950405 1_555
O16 Sb4 1.936483 1_555
O16 Sb1 1.949331 1_555
O17 Sb0 1.991934 1_455
O17 Sb5 2.063863 1_555
O18 Sb4 1.991934 1_555
O18 Sb1 2.063863 1_655
O19 Sb0 1.936483 1_555
O19 Sb5 1.949331 1_555
O20 Sb2 2.008217 1_555
O20 Sb6 2.027839 1_445
O21 Sb3 1.944349 1_555
O21 Sb7 1.950405 1_555
O22 Sb2 1.991934 1_555
O22 Sb7 2.063863 1_655
O23 Sb6 1.936483 1_555
O23 Sb3 1.949331 1_555
