# generated using pymatgen
data_ZnSb2Br2O3
_symmetry_space_group_name_H-M   'P 1'
_cell_length_a   8.43579058
_cell_length_b   9.72722669
_cell_length_c   9.74561756
_cell_angle_alpha   63.99662216
_cell_angle_beta   80.89065720
_cell_angle_gamma   87.67855469
_symmetry_Int_Tables_number   1
_chemical_formula_structural   ZnSb2Br2O3
_chemical_formula_sum   'Zn4 Sb8 Br8 O12'
_cell_volume   709.29882501
_cell_formula_units_Z   4
loop_
 _symmetry_equiv_pos_site_id
 _symmetry_equiv_pos_as_xyz
  1  'x, y, z'
loop_
 _atom_site_type_symbol
 _atom_site_label
 _atom_site_symmetry_multiplicity
 _atom_site_fract_x
 _atom_site_fract_y
 _atom_site_fract_z
 _atom_site_occupancy
  Zn  Zn0  1  0.49878722  0.64342054  0.10596503  1
  Zn  Zn1  1  0.50119359  0.85657540  0.39404175  1
  Zn  Zn2  1  0.49879665  0.14341942  0.60596644  1
  Zn  Zn3  1  0.50123252  0.35657637  0.89403047  1
  Sb  Sb0  1  0.68814071  0.01428237  0.92850926  1
  Sb  Sb1  1  0.68812921  0.51430653  0.42849432  1
  Sb  Sb2  1  0.31187005  0.98571182  0.07148915  1
  Sb  Sb3  1  0.31186171  0.48570448  0.57151053  1
  Sb  Sb4  1  0.68853494  0.79846035  0.71374081  1
  Sb  Sb5  1  0.68852260  0.29846503  0.21374628  1
  Sb  Sb6  1  0.31147080  0.20154526  0.28624210  1
  Sb  Sb7  1  0.31147460  0.70153111  0.78626918  1
  Br  Br0  1  0.77990222  0.93246320  0.28366511  1
  Br  Br1  1  0.77994337  0.43243403  0.78367650  1
  Br  Br2  1  0.22008419  0.06757461  0.71632520  1
  Br  Br3  1  0.22007093  0.56756268  0.21628181  1
  Br  Br4  1  0.86679453  0.24307956  0.46258982  1
  Br  Br5  1  0.86679533  0.74305818  0.96259793  1
  Br  Br6  1  0.13321548  0.75695111  0.53741470  1
  Br  Br7  1  0.13319381  0.25690976  0.03741312  1
  O  O0  1  0.48175760  0.64253228  0.42297560  1
  O  O1  1  0.48178961  0.14253544  0.92296298  1
  O  O2  1  0.51821299  0.35746322  0.57703485  1
  O  O3  1  0.51822004  0.85746039  0.07703483  1
  O  O4  1  0.37657689  0.01460243  0.24985100  1
  O  O5  1  0.37657432  0.51459229  0.74987095  1
  O  O6  1  0.62342314  0.98539568  0.75014559  1
  O  O7  1  0.62340922  0.48540226  0.25014503  1
  O  O8  1  0.51804738  0.17029112  0.39026424  1
  O  O9  1  0.51806828  0.67027207  0.89026700  1
  O  O10  1  0.48195499  0.82970205  0.60974882  1
  O  O11  1  0.48194806  0.32971594  0.10972760  1
loop_
_geom_bond_atom_site_label_1
_geom_bond_atom_site_label_2
_geom_bond_distance
_geom_bond_site_symmetry_2
Br0 Zn1 2.423499 1_555
Br1 Zn3 2.423438 1_555
Br2 Zn2 2.423439 1_555
Br3 Zn0 2.423423 1_555
Br4 Sb5 2.894247 1_555
Br4 Sb1 2.900055 1_555
Br5 Sb4 2.894263 1_555
Br5 Sb0 2.900000 1_565
Br6 Sb7 2.894199 1_555
Br6 Sb3 2.900134 1_555
Br7 Sb6 2.894197 1_555
Br7 Sb2 2.899902 1_545
O0 Zn1 1.984826 1_555
O0 Sb3 2.015085 1_555
O0 Sb1 2.093867 1_555
O1 Zn3 1.984815 1_555
O1 Sb2 2.015168 1_546
O1 Sb0 2.093845 1_555
O2 Zn2 1.984823 1_555
O2 Sb1 2.015279 1_555
O2 Sb3 2.093805 1_555
O3 Zn0 1.984804 1_555
O3 Sb0 2.015165 1_564
O3 Sb2 2.093829 1_555
O4 Zn1 1.971151 1_545
O4 Sb2 2.034607 1_545
O4 Sb6 2.038882 1_555
O5 Zn3 1.971179 1_555
O5 Sb3 2.034600 1_555
O5 Sb7 2.038870 1_555
O6 Zn2 1.971136 1_565
O6 Sb0 2.034641 1_565
O6 Sb4 2.038891 1_555
O7 Zn0 1.971093 1_555
O7 Sb1 2.034605 1_555
O7 Sb5 2.038881 1_555
O8 Zn2 1.981735 1_555
O8 Sb5 2.015730 1_555
O8 Sb6 2.098364 1_555
O9 Zn0 1.981739 1_556
O9 Sb4 2.015762 1_555
O9 Sb7 2.098359 1_555
O10 Zn1 1.981785 1_555
O10 Sb7 2.015759 1_555
O10 Sb4 2.098240 1_555
O11 Zn3 1.981699 1_554
O11 Sb6 2.015716 1_555
O11 Sb5 2.098333 1_555
