# generated using pymatgen
data_Y4Si10Pt5Rh
_symmetry_space_group_name_H-M   'P 1'
_cell_length_a   8.11733652
_cell_length_b   8.11733637
_cell_length_c   5.96665299
_cell_angle_alpha   68.45411518
_cell_angle_beta   68.45411662
_cell_angle_gamma   88.76863876
_symmetry_Int_Tables_number   1
_chemical_formula_structural   Y4Si10Pt5Rh
_chemical_formula_sum   'Y4 Si10 Pt5 Rh1'
_cell_volume   337.19205250
_cell_formula_units_Z   1
loop_
 _symmetry_equiv_pos_site_id
 _symmetry_equiv_pos_as_xyz
  1  'x, y, z'
loop_
 _atom_site_type_symbol
 _atom_site_label
 _atom_site_symmetry_multiplicity
 _atom_site_fract_x
 _atom_site_fract_y
 _atom_site_fract_z
 _atom_site_occupancy
  Y  Y0  1  0.85999389  0.59975690  0.77050856  1
  Y  Y1  1  0.14000953  0.40025826  0.22943814  1
  Y  Y2  1  0.40024310  0.14000611  0.72949144  1
  Y  Y3  1  0.59974174  0.85999047  0.27056186  1
  Si  Si0  1  0.77416848  0.22583152  0.75000000  1
  Si  Si1  1  0.22826689  0.77173311  0.25000000  1
  Si  Si2  1  0.50010474  0.49989526  0.75000000  1
  Si  Si3  1  0.49986546  0.50013454  0.25000000  1
  Si  Si4  1  0.22557026  0.77442974  0.75000000  1
  Si  Si5  1  0.77196531  0.22803469  0.25000000  1
  Si  Si6  1  0.25887604  0.04047811  0.35495350  1
  Si  Si7  1  0.74116199  0.95950925  0.65466703  1
  Si  Si8  1  0.95952189  0.74112396  0.14504650  1
  Si  Si9  1  0.04049075  0.25883801  0.84533297  1
  Pt  Pt0  1  0.52305026  0.24846109  0.11321329  1
  Pt  Pt1  1  0.75153891  0.47694974  0.38678671  1
  Pt  Pt2  1  0.47693856  0.75158004  0.88471333  1
  Pt  Pt3  1  0.24841996  0.52306144  0.61528667  1
  Pt  Pt4  1  0.99988001  0.00011999  0.25000000  1
  Rh  Rh0  1  0.00019125  0.99980875  0.75000000  1
loop_
_geom_bond_atom_site_label_1
_geom_bond_atom_site_label_2
_geom_bond_distance
_geom_bond_site_symmetry_2
Si0 Si7 2.471612 1_545
Si0 Si9 2.471612 1_655
Si0 Y0 3.184265 1_555
Si0 Y2 3.184265 1_555
Si0 Y3 3.262926 1_546
Si0 Y1 3.262926 1_655
Si1 Si6 2.520668 1_565
Si1 Si8 2.520668 1_455
Si1 Y1 3.170171 1_555
Si1 Y3 3.170171 1_555
Si1 Y2 3.272068 1_564
Si1 Y0 3.272068 1_455
Si2 Y3 3.105167 1_555
Si2 Y1 3.105167 1_556
Si2 Y2 3.105398 1_555
Si2 Y0 3.105398 1_555
Si3 Y3 3.105327 1_555
Si3 Y1 3.105327 1_555
Si3 Y2 3.105491 1_555
Si3 Y0 3.105491 1_554
Si4 Si6 2.472062 1_565
Si4 Si8 2.472062 1_456
Si4 Y1 3.184397 1_556
Si4 Y3 3.184397 1_555
Si4 Y2 3.258548 1_565
Si4 Y0 3.258548 1_455
Si5 Si7 2.521492 1_545
Si5 Si9 2.521492 1_654
Si5 Y0 3.170310 1_554
Si5 Y2 3.170310 1_555
Si5 Y3 3.267897 1_545
Si5 Y1 3.267897 1_655
Si6 Y1 2.970541 1_555
Si6 Y3 3.065967 1_545
Si6 Y2 3.195786 1_555
Si6 Y2 3.252169 1_554
Si7 Y0 2.970194 1_555
Si7 Y2 3.066425 1_565
Si7 Y3 3.199328 1_556
Si7 Y3 3.248833 1_555
Si8 Y3 2.970541 1_555
Si8 Y1 3.065967 1_655
Si8 Y0 3.195786 1_554
Si8 Y0 3.252169 1_555
Si9 Y2 2.970194 1_555
Si9 Y0 3.066425 1_455
Si9 Y1 3.199328 1_555
Si9 Y1 3.248833 1_556
Pt0 Si6 2.371568 1_555
Pt0 Si5 2.423546 1_555
Pt0 Si0 2.432509 1_554
Pt0 Si2 2.434803 1_554
Pt0 Si3 2.443432 1_555
Pt0 Y3 3.063170 1_545
Pt0 Y2 3.194576 1_554
Pt0 Y2 3.202756 1_555
Pt0 Y1 3.247461 1_555
Pt0 Y0 3.426089 1_554
Pt1 Si8 2.371568 1_555
Pt1 Si5 2.423546 1_555
Pt1 Si0 2.432509 1_555
Pt1 Si2 2.434803 1_555
Pt1 Si3 2.443432 1_555
Pt1 Y1 3.063170 1_655
Pt1 Y0 3.194576 1_555
Pt1 Y0 3.202756 1_554
Pt1 Y3 3.247461 1_555
Pt1 Y2 3.426089 1_555
Pt2 Si7 2.371625 1_555
Pt2 Si1 2.422392 1_556
Pt2 Si4 2.433667 1_555
Pt2 Si2 2.435968 1_555
Pt2 Si3 2.442362 1_556
Pt2 Y2 3.062837 1_565
Pt2 Y3 3.190975 1_555
Pt2 Y3 3.206197 1_556
Pt2 Y0 3.247663 1_555
Pt2 Y1 3.426148 1_556
Pt3 Si9 2.371625 1_555
Pt3 Si1 2.422392 1_555
Pt3 Si4 2.433667 1_555
Pt3 Si2 2.435968 1_555
Pt3 Si3 2.442362 1_555
Pt3 Y0 3.062837 1_455
Pt3 Y1 3.190975 1_556
Pt3 Y1 3.206197 1_555
Pt3 Y2 3.247663 1_555
Pt3 Y3 3.426148 1_555
Pt4 Si8 2.463058 1_545
Pt4 Si6 2.463058 1_655
Pt4 Si9 2.463673 1_654
Pt4 Si7 2.463673 1_545
Pt4 Si5 2.588115 1_555
Pt4 Si1 2.593477 1_645
Pt4 Y1 3.409162 1_655
Pt4 Y3 3.409162 1_545
Pt4 Y0 3.413429 1_545
Pt4 Y2 3.413429 1_654
Rh0 Si9 2.428231 1_565
Rh0 Si7 2.428231 1_455
Rh0 Si8 2.428392 1_456
Rh0 Si6 2.428392 1_565
Rh0 Si4 2.559321 1_555
Rh0 Si0 2.566631 1_465
Rh0 Y0 3.408825 1_455
Rh0 Y2 3.408825 1_565
Rh0 Y1 3.413997 1_565
Rh0 Y3 3.413997 1_456
