# generated using pymatgen
data_Lu(Ta3N4)3
_symmetry_space_group_name_H-M   'P 1'
_cell_length_a   5.23765921
_cell_length_b   5.23766002
_cell_length_c   10.45344136
_cell_angle_alpha   90.00000000
_cell_angle_beta   90.00000000
_cell_angle_gamma   119.99999488
_symmetry_Int_Tables_number   1
_chemical_formula_structural   Lu(Ta3N4)3
_chemical_formula_sum   'Lu1 Ta9 N12'
_cell_volume   248.35018304
_cell_formula_units_Z   1
loop_
 _symmetry_equiv_pos_site_id
 _symmetry_equiv_pos_as_xyz
  1  'x, y, z'
loop_
 _atom_site_type_symbol
 _atom_site_label
 _atom_site_symmetry_multiplicity
 _atom_site_fract_x
 _atom_site_fract_y
 _atom_site_fract_z
 _atom_site_occupancy
  Lu  Lu0  1  0.66666700  0.33333300  0.00000000  1
  Ta  Ta0  1  0.67757925  0.67600359  0.74650035  1
  Ta  Ta1  1  0.32399641  0.00157566  0.74650035  1
  Ta  Ta2  1  0.99842434  0.32242075  0.74650035  1
  Ta  Ta3  1  0.32399641  0.32242075  0.25349965  1
  Ta  Ta4  1  0.67757925  0.00157566  0.25349965  1
  Ta  Ta5  1  0.99842434  0.67600359  0.25349965  1
  Ta  Ta6  1  0.33333300  0.66666700  0.00000000  1
  Ta  Ta7  1  0.33333300  0.66666700  0.50000000  1
  Ta  Ta8  1  0.66666700  0.33333300  0.50000000  1
  N  N0  1  0.65794475  0.65807370  0.38220951  1
  N  N1  1  0.34192630  0.99987205  0.38220951  1
  N  N2  1  0.00012795  0.34205525  0.38220951  1
  N  N3  1  0.34192630  0.34205525  0.61779049  1
  N  N4  1  0.65794475  0.99987205  0.61779049  1
  N  N5  1  0.00012795  0.65807370  0.61779049  1
  N  N6  1  0.33762532  0.35164689  0.87191581  1
  N  N7  1  0.64835311  0.98597844  0.87191581  1
  N  N8  1  0.01402156  0.66237468  0.87191581  1
  N  N9  1  0.64835311  0.66237468  0.12808419  1
  N  N10  1  0.33762532  0.98597844  0.12808419  1
  N  N11  1  0.01402156  0.35164689  0.12808419  1
loop_
_geom_bond_atom_site_label_1
_geom_bond_atom_site_label_2
_geom_bond_distance
_geom_bond_site_symmetry_2
Lu0 N11 2.222012 1_655
Lu0 N7 2.222013 1_544
Lu0 N8 2.222015 1_654
Lu0 N10 2.222015 1_545
Lu0 N6 2.222017 1_554
Lu0 N9 2.222017 1_555
N0 Ta7 2.117874 1_555
N0 Ta8 2.118709 1_555
N0 Ta5 2.198142 1_555
N0 Ta4 2.207430 1_565
N0 Ta3 2.210280 1_555
N1 Ta7 2.117874 1_555
N1 Ta8 2.118704 1_565
N1 Ta3 2.198138 1_565
N1 Ta5 2.207432 1_455
N1 Ta4 2.210282 1_565
N2 Ta7 2.117874 1_555
N2 Ta8 2.118700 1_455
N2 Ta4 2.198140 1_455
N2 Ta3 2.207434 1_555
N2 Ta5 2.210278 1_455
N3 Ta7 2.117874 1_555
N3 Ta8 2.118709 1_555
N3 Ta1 2.198142 1_555
N3 Ta2 2.207430 1_455
N3 Ta0 2.210280 1_555
N4 Ta7 2.117874 1_555
N4 Ta8 2.118700 1_565
N4 Ta2 2.198140 1_565
N4 Ta0 2.207434 1_555
N4 Ta1 2.210278 1_565
N5 Ta7 2.117874 1_555
N5 Ta8 2.118704 1_455
N5 Ta0 2.198138 1_455
N5 Ta1 2.207432 1_565
N5 Ta2 2.210282 1_455
N6 Ta6 2.133706 1_556
N6 Ta2 2.150960 1_455
N6 Ta0 2.179541 1_555
N6 Ta1 2.225963 1_555
N7 Ta6 2.133704 1_556
N7 Ta0 2.150961 1_555
N7 Ta1 2.179541 1_565
N7 Ta2 2.225963 1_565
N8 Ta6 2.133702 1_556
N8 Ta1 2.150961 1_565
N8 Ta2 2.179541 1_455
N8 Ta0 2.225963 1_455
N9 Ta6 2.133706 1_555
N9 Ta4 2.150961 1_565
N9 Ta3 2.179541 1_555
N9 Ta5 2.225963 1_555
N10 Ta6 2.133702 1_555
N10 Ta5 2.150961 1_455
N10 Ta4 2.179541 1_565
N10 Ta3 2.225963 1_565
N11 Ta6 2.133704 1_555
N11 Ta3 2.150960 1_555
N11 Ta5 2.179541 1_455
N11 Ta4 2.225963 1_455
