# generated using pymatgen
data_SiPN3
_symmetry_space_group_name_H-M   'P 1'
_cell_length_a   5.30268531
_cell_length_b   5.30268531
_cell_length_c   9.41993379
_cell_angle_alpha   89.90810573
_cell_angle_beta   89.90810573
_cell_angle_gamma   120.22364574
_symmetry_Int_Tables_number   1
_chemical_formula_structural   SiPN3
_chemical_formula_sum   'Si4 P4 N12'
_cell_volume   228.86785318
_cell_formula_units_Z   4
loop_
 _symmetry_equiv_pos_site_id
 _symmetry_equiv_pos_as_xyz
  1  'x, y, z'
loop_
 _atom_site_type_symbol
 _atom_site_label
 _atom_site_symmetry_multiplicity
 _atom_site_fract_x
 _atom_site_fract_y
 _atom_site_fract_z
 _atom_site_occupancy
  Si  Si0  1  0.68172300  0.99955100  0.00243800  1
  Si  Si1  1  0.32619100  0.00405100  0.25083700  1
  Si  Si2  1  0.99955100  0.68172300  0.50243800  1
  Si  Si3  1  0.00405100  0.32619100  0.75083700  1
  P  P0  1  0.00617300  0.66353000  0.99723500  1
  P  P1  1  0.98806100  0.32546500  0.24858500  1
  P  P2  1  0.66353000  0.00617300  0.49723500  1
  P  P3  1  0.32546500  0.98806100  0.74858500  1
  N  N0  1  0.66456600  0.09529700  0.17750200  1
  N  N1  1  0.08703800  0.65603800  0.17165300  1
  N  N2  1  0.22646800  0.24709800  0.21854400  1
  N  N3  1  0.89715800  0.33984400  0.42129200  1
  N  N4  1  0.34144600  0.92073500  0.42801400  1
  N  N5  1  0.75344200  0.77612800  0.46760000  1
  N  N6  1  0.65603800  0.08703800  0.67165300  1
  N  N7  1  0.09529700  0.66456600  0.67750200  1
  N  N8  1  0.24709800  0.22646800  0.71854400  1
  N  N9  1  0.92073500  0.34144600  0.92801400  1
  N  N10  1  0.33984400  0.89715800  0.92129200  1
  N  N11  1  0.77612800  0.75344200  0.96760000  1
loop_
_geom_bond_atom_site_label_1
_geom_bond_atom_site_label_2
_geom_bond_distance
_geom_bond_site_symmetry_2
N0 P1 1.667060 1_555
N0 Si0 1.741912 1_545
N0 Si1 1.746926 1_555
N1 P0 1.704148 1_554
N1 P1 1.715187 1_455
N1 Si1 1.794853 1_565
N2 P1 1.542428 1_455
N2 Si1 1.648804 1_555
N3 P1 1.708747 1_555
N3 P2 1.721470 1_555
N3 Si2 1.783376 1_555
N4 P2 1.665207 1_565
N4 Si1 1.738195 1_565
N4 Si2 1.750555 1_455
N5 P2 1.542558 1_565
N5 Si2 1.649237 1_555
N6 P2 1.704148 1_555
N6 P3 1.715187 1_545
N6 Si3 1.794853 1_655
N7 P3 1.667060 1_555
N7 Si2 1.741912 1_455
N7 Si3 1.746926 1_555
N8 P3 1.542428 1_545
N8 Si3 1.648804 1_555
N9 P0 1.665207 1_655
N9 Si3 1.738195 1_655
N9 Si0 1.750555 1_546
N10 P3 1.708747 1_555
N10 P0 1.721470 1_555
N10 Si0 1.783376 1_556
N11 P0 1.542558 1_655
N11 Si0 1.649237 1_556
