# generated using pymatgen
data_Zr3Ga2PtN
_symmetry_space_group_name_H-M   'P 1'
_cell_length_a   8.56615320
_cell_length_b   8.56615418
_cell_length_c   8.56615420
_cell_angle_alpha   60.00000372
_cell_angle_beta   59.99999993
_cell_angle_gamma   59.99999938
_symmetry_Int_Tables_number   1
_chemical_formula_structural   Zr3Ga2PtN
_chemical_formula_sum   'Zr12 Ga8 Pt4 N4'
_cell_volume   444.47017469
_cell_formula_units_Z   4
loop_
 _symmetry_equiv_pos_site_id
 _symmetry_equiv_pos_as_xyz
  1  'x, y, z'
loop_
 _atom_site_type_symbol
 _atom_site_label
 _atom_site_symmetry_multiplicity
 _atom_site_fract_x
 _atom_site_fract_y
 _atom_site_fract_z
 _atom_site_occupancy
  Zr  Zr0  1  0.81026181  0.18973819  0.18973819  1
  Zr  Zr1  1  0.18973819  0.81026181  0.18973819  1
  Zr  Zr2  1  0.81026181  0.81026181  0.18973819  1
  Zr  Zr3  1  0.18973819  0.81026181  0.81026181  1
  Zr  Zr4  1  0.81026181  0.18973819  0.81026181  1
  Zr  Zr5  1  0.18973819  0.18973819  0.81026181  1
  Zr  Zr6  1  0.43973819  0.06026181  0.06026181  1
  Zr  Zr7  1  0.06026181  0.43973819  0.06026181  1
  Zr  Zr8  1  0.43973819  0.43973819  0.06026181  1
  Zr  Zr9  1  0.06026181  0.43973819  0.43973819  1
  Zr  Zr10  1  0.43973819  0.06026181  0.43973819  1
  Zr  Zr11  1  0.06026181  0.06026181  0.43973819  1
  Ga  Ga0  1  0.41627933  0.41627933  0.75116102  1
  Ga  Ga1  1  0.41627933  0.41627933  0.41627933  1
  Ga  Ga2  1  0.75116102  0.41627933  0.41627933  1
  Ga  Ga3  1  0.41627933  0.75116102  0.41627933  1
  Ga  Ga4  1  0.83372067  0.83372067  0.49883898  1
  Ga  Ga5  1  0.83372067  0.83372067  0.83372067  1
  Ga  Ga6  1  0.49883898  0.83372067  0.83372067  1
  Ga  Ga7  1  0.83372067  0.49883898  0.83372067  1
  Pt  Pt0  1  0.62500000  0.62500000  0.12500000  1
  Pt  Pt1  1  0.62500000  0.62500000  0.62500000  1
  Pt  Pt2  1  0.12500000  0.62500000  0.62500000  1
  Pt  Pt3  1  0.62500000  0.12500000  0.62500000  1
  N  N0  1  0.12500000  0.12500000  0.62500000  1
  N  N1  1  0.12500000  0.12500000  0.12500000  1
  N  N2  1  0.62500000  0.12500000  0.12500000  1
  N  N3  1  0.12500000  0.62500000  0.12500000  1
loop_
_geom_bond_atom_site_label_1
_geom_bond_atom_site_label_2
_geom_bond_distance
_geom_bond_site_symmetry_2
Ga0 Pt2 2.625554 1_555
Ga0 Pt3 2.625554 1_555
Ga0 Pt1 2.625561 1_555
Ga0 Zr7 2.862892 1_556
Ga0 Zr6 2.862893 1_556
Ga0 Zr8 2.862897 1_556
Ga0 Ga2 2.868648 1_555
Ga0 Ga1 2.868648 1_555
Ga0 Ga3 2.868648 1_555
Ga0 Zr5 3.096615 1_555
Ga0 Zr4 3.096622 1_555
Ga0 Zr3 3.096622 1_555
Ga1 Pt2 2.625559 1_555
Ga1 Pt3 2.625559 1_555
Ga1 Pt0 2.625559 1_555
Ga1 Zr9 2.862889 1_555
Ga1 Zr10 2.862889 1_555
Ga1 Zr8 2.862889 1_555
Ga1 Ga2 2.868648 1_555
Ga1 Ga3 2.868648 1_555
Ga1 Zr0 3.096619 1_555
Ga1 Zr1 3.096619 1_555
Ga1 Zr5 3.096619 1_555
Ga2 Pt0 2.625554 1_555
Ga2 Pt3 2.625554 1_555
Ga2 Pt1 2.625561 1_555
Ga2 Zr11 2.862892 1_655
Ga2 Zr7 2.862892 1_655
Ga2 Zr9 2.862897 1_655
Ga2 Ga3 2.868648 1_555
Ga2 Zr0 3.096615 1_555
Ga2 Zr4 3.096622 1_555
Ga2 Zr2 3.096622 1_555
Ga3 Pt2 2.625554 1_555
Ga3 Pt0 2.625554 1_555
Ga3 Pt1 2.625561 1_555
Ga3 Zr11 2.862892 1_565
Ga3 Zr6 2.862893 1_565
Ga3 Zr10 2.862897 1_565
Ga3 Zr1 3.096615 1_555
Ga3 Zr2 3.096622 1_555
Ga3 Zr3 3.096622 1_555
Ga4 Pt2 2.625554 1_655
Ga4 Pt3 2.625554 1_565
Ga4 Pt1 2.625561 1_555
Ga4 Zr1 2.862892 1_655
Ga4 Zr0 2.862893 1_565
Ga4 Zr2 2.862897 1_555
Ga4 Ga6 2.868648 1_555
Ga4 Ga5 2.868648 1_555
Ga4 Ga7 2.868648 1_555
Ga4 Zr11 3.096615 1_665
Ga4 Zr10 3.096622 1_565
Ga4 Zr9 3.096622 1_655
Ga5 Pt2 2.625559 1_655
Ga5 Pt3 2.625559 1_565
Ga5 Pt0 2.625559 1_556
Ga5 Zr3 2.862889 1_655
Ga5 Zr4 2.862889 1_565
Ga5 Zr2 2.862889 1_556
Ga5 Ga6 2.868648 1_555
Ga5 Ga7 2.868648 1_555
Ga5 Zr6 3.096619 1_566
Ga5 Zr7 3.096619 1_656
Ga5 Zr11 3.096619 1_665
Ga6 Pt0 2.625554 1_556
Ga6 Pt3 2.625554 1_565
Ga6 Pt1 2.625561 1_555
Ga6 Zr5 2.862892 1_565
Ga6 Zr1 2.862892 1_556
Ga6 Zr3 2.862897 1_555
Ga6 Ga7 2.868648 1_555
Ga6 Zr6 3.096615 1_566
Ga6 Zr10 3.096622 1_565
Ga6 Zr8 3.096622 1_556
Ga7 Pt2 2.625554 1_655
Ga7 Pt0 2.625554 1_556
Ga7 Pt1 2.625561 1_555
Ga7 Zr5 2.862892 1_655
Ga7 Zr0 2.862893 1_556
Ga7 Zr4 2.862897 1_555
Ga7 Zr7 3.096615 1_656
Ga7 Zr8 3.096622 1_556
Ga7 Zr9 3.096622 1_655
Pt0 Zr7 3.102129 1_655
Pt0 Zr1 3.102129 1_555
Pt0 Zr2 3.102129 1_555
Pt0 Zr8 3.102129 1_555
Pt0 Zr6 3.102129 1_565
Pt0 Zr0 3.102129 1_555
Pt1 Zr9 3.102129 1_655
Pt1 Zr3 3.102129 1_555
Pt1 Zr10 3.102129 1_565
Pt1 Zr4 3.102129 1_555
Pt1 Zr8 3.102129 1_556
Pt1 Zr2 3.102129 1_555
Pt2 Zr3 3.102129 1_555
Pt2 Zr9 3.102129 1_555
Pt2 Zr11 3.102129 1_565
Pt2 Zr5 3.102129 1_555
Pt2 Zr7 3.102129 1_556
Pt2 Zr1 3.102129 1_555
Pt3 Zr11 3.102129 1_655
Pt3 Zr5 3.102129 1_555
Pt3 Zr4 3.102129 1_555
Pt3 Zr10 3.102129 1_555
Pt3 Zr6 3.102129 1_556
Pt3 Zr0 3.102129 1_555
N0 Zr10 2.280626 1_555
N0 Zr4 2.280626 1_455
N0 Zr5 2.280626 1_555
N0 Zr11 2.280626 1_555
N0 Zr9 2.280626 1_555
N0 Zr3 2.280626 1_545
N1 Zr6 2.280626 1_555
N1 Zr0 2.280626 1_455
N1 Zr7 2.280626 1_555
N1 Zr1 2.280626 1_545
N1 Zr11 2.280626 1_555
N1 Zr5 2.280626 1_554
N2 Zr0 2.280626 1_555
N2 Zr6 2.280626 1_555
N2 Zr8 2.280626 1_555
N2 Zr2 2.280626 1_545
N2 Zr10 2.280626 1_555
N2 Zr4 2.280626 1_554
N3 Zr2 2.280626 1_455
N3 Zr8 2.280626 1_555
N3 Zr1 2.280626 1_555
N3 Zr7 2.280626 1_555
N3 Zr9 2.280626 1_555
N3 Zr3 2.280626 1_554
