# generated using pymatgen
data_RbSb(PSe3)2
_symmetry_space_group_name_H-M   'P 1'
_cell_length_a   8.19504483
_cell_length_b   7.04767768
_cell_length_c   10.40947158
_cell_angle_alpha   88.09433870
_cell_angle_beta   90.00000000
_cell_angle_gamma   90.00000000
_symmetry_Int_Tables_number   1
_chemical_formula_structural   RbSb(PSe3)2
_chemical_formula_sum   'Rb2 Sb2 P4 Se12'
_cell_volume   600.87729192
_cell_formula_units_Z   2
loop_
 _symmetry_equiv_pos_site_id
 _symmetry_equiv_pos_as_xyz
  1  'x, y, z'
loop_
 _atom_site_type_symbol
 _atom_site_label
 _atom_site_symmetry_multiplicity
 _atom_site_fract_x
 _atom_site_fract_y
 _atom_site_fract_z
 _atom_site_occupancy
  Rb  Rb0  1  0.45000505  0.69864708  0.49124076  1
  Rb  Rb1  1  0.95000505  0.30135292  0.50875924  1
  Sb  Sb0  1  0.73534523  0.81708106  0.01429033  1
  Sb  Sb1  1  0.23534523  0.18291894  0.98570967  1
  P  P0  1  0.93582261  0.78684124  0.29444958  1
  P  P1  1  0.64468911  0.30744705  0.83082090  1
  P  P2  1  0.14468911  0.69255295  0.16917910  1
  P  P3  1  0.43582261  0.21315876  0.70555042  1
  Se  Se0  1  0.36074692  0.94758296  0.81092535  1
  Se  Se1  1  0.02919657  0.66729367  0.97430401  1
  Se  Se2  1  0.24686479  0.42159561  0.74179183  1
  Se  Se3  1  0.52919657  0.33270633  0.02569599  1
  Se  Se4  1  0.83784836  0.08852369  0.82854861  1
  Se  Se5  1  0.33784836  0.91147631  0.17145139  1
  Se  Se6  1  0.74686479  0.57840439  0.25820817  1
  Se  Se7  1  0.86074692  0.05241704  0.18907465  1
  Se  Se8  1  0.51881076  0.18780400  0.51362234  1
  Se  Se9  1  0.73382259  0.57636707  0.75429131  1
  Se  Se10  1  0.01881076  0.81219600  0.48637766  1
  Se  Se11  1  0.23382259  0.42363293  0.24570869  1
loop_
_geom_bond_atom_site_label_1
_geom_bond_atom_site_label_2
_geom_bond_distance
_geom_bond_site_symmetry_2
Rb0 Se8 3.508611 1_565
Rb0 Se6 3.557740 1_555
Rb0 Se2 3.612120 1_555
Rb0 Se10 3.623121 1_555
Rb0 Se8 3.643939 1_555
Rb0 Se9 3.673332 1_555
Rb0 Se11 3.709070 1_555
Rb0 Se5 3.720717 1_555
Rb0 Se0 3.882684 1_555
Rb1 Se10 3.508611 1_645
Rb1 Se2 3.557740 1_655
Rb1 Se6 3.612120 1_555
Rb1 Se8 3.623121 1_555
Rb1 Se10 3.643939 1_655
Rb1 Se11 3.673332 1_655
Rb1 Se9 3.709070 1_555
Rb1 Se4 3.720717 1_555
Rb1 Se7 3.882684 1_555
Sb0 Se1 2.667573 1_654
Sb0 Se7 2.705167 1_565
Sb0 Se4 2.803154 1_564
Sb0 Se6 3.000196 1_555
Sb0 Se9 3.241671 1_554
Sb1 Se3 2.667573 1_556
Sb1 Se0 2.705167 1_545
Sb1 Se5 2.803154 1_546
Sb1 Se2 3.000196 1_555
Sb1 Se11 3.241671 1_556
P0 Se10 2.123601 1_655
P0 Se6 2.176013 1_555
P0 Se7 2.224501 1_565
P0 P2 2.264826 1_655
P1 Se9 2.158654 1_555
P1 Se4 2.211167 1_555
P1 Se3 2.250891 1_556
P1 P3 2.264826 1_555
P2 Se11 2.158654 1_555
P2 Se5 2.211167 1_555
P2 Se1 2.250891 1_554
P3 Se8 2.123601 1_555
P3 Se2 2.176013 1_555
P3 Se0 2.224501 1_545
