# generated using pymatgen
data_Cs2BeTe2
_symmetry_space_group_name_H-M   'P 1'
_cell_length_a   9.18899606
_cell_length_b   9.18899589
_cell_length_c   9.18899619
_cell_angle_alpha   136.11724214
_cell_angle_beta   129.64035954
_cell_angle_gamma   68.97800238
_symmetry_Int_Tables_number   1
_chemical_formula_structural   Cs2BeTe2
_chemical_formula_sum   'Cs4 Be2 Te4'
_cell_volume   406.67598889
_cell_formula_units_Z   2
loop_
 _symmetry_equiv_pos_site_id
 _symmetry_equiv_pos_as_xyz
  1  'x, y, z'
loop_
 _atom_site_type_symbol
 _atom_site_label
 _atom_site_symmetry_multiplicity
 _atom_site_fract_x
 _atom_site_fract_y
 _atom_site_fract_z
 _atom_site_occupancy
  Cs  Cs0  1  0.97193248  0.64521369  0.32671878  1
  Cs  Cs1  1  0.68150509  0.85478631  0.82671878  1
  Cs  Cs2  1  0.31849491  0.14521369  0.17328122  1
  Cs  Cs3  1  0.02806752  0.35478631  0.67328122  1
  Be  Be0  1  0.50000000  0.25000000  0.75000000  1
  Be  Be1  1  0.50000000  0.75000000  0.25000000  1
  Te  Te0  1  0.57190145  0.40926936  0.16263309  1
  Te  Te1  1  0.24663527  0.90926936  0.33736691  1
  Te  Te2  1  0.75336473  0.09073064  0.66263309  1
  Te  Te3  1  0.42809855  0.59073064  0.83736691  1
loop_
_geom_bond_atom_site_label_1
_geom_bond_atom_site_label_2
_geom_bond_distance
_geom_bond_site_symmetry_2
Cs0 Te2 3.757175 1_565
Cs0 Te2 3.757181 1_554
Cs0 Te0 3.797352 1_555
Cs0 Te3 3.914284 1_554
Cs0 Te1 4.000717 1_655
Cs0 Te3 4.077217 1_655
Cs1 Te0 3.757178 1_555
Cs1 Te0 3.757184 1_566
Cs1 Te2 3.797349 1_565
Cs1 Te1 3.914292 1_555
Cs1 Te3 4.000717 1_555
Cs1 Te1 4.077210 1_656
Cs2 Te3 3.757178 1_555
Cs2 Te3 3.757184 1_544
Cs2 Te1 3.797349 1_545
Cs2 Te2 3.914292 1_555
Cs2 Te0 4.000717 1_555
Cs2 Te2 4.077210 1_454
Cs3 Te1 3.757175 1_545
Cs3 Te1 3.757181 1_556
Cs3 Te3 3.797352 1_555
Cs3 Te0 3.914284 1_556
Cs3 Te2 4.000717 1_455
Cs3 Te0 4.077217 1_455
Be0 Te3 2.540329 1_555
Be0 Te1 2.540333 1_545
Be0 Te0 2.540333 1_556
Be0 Te2 2.540337 1_555
Be0 Cs1 3.783129 1_545
Be0 Cs3 3.783129 1_555
Be0 Cs0 3.783129 1_556
Be0 Cs2 3.783129 1_555
Be1 Te0 2.540329 1_555
Be1 Te2 2.540333 1_565
Be1 Te3 2.540333 1_554
Be1 Te1 2.540337 1_555
Be1 Cs2 3.783129 1_565
Be1 Cs0 3.783129 1_555
Be1 Cs3 3.783129 1_554
Be1 Cs1 3.783129 1_555
