# generated using pymatgen
data_KLiZn12
_symmetry_space_group_name_H-M   'P 1'
_cell_length_a   8.56813127
_cell_length_b   8.56813104
_cell_length_c   8.56813098
_cell_angle_alpha   60.00000024
_cell_angle_beta   60.00000112
_cell_angle_gamma   59.99999565
_symmetry_Int_Tables_number   1
_chemical_formula_structural   KLiZn12
_chemical_formula_sum   'K2 Li2 Zn24'
_cell_volume   444.77800367
_cell_formula_units_Z   2
loop_
 _symmetry_equiv_pos_site_id
 _symmetry_equiv_pos_as_xyz
  1  'x, y, z'
loop_
 _atom_site_type_symbol
 _atom_site_label
 _atom_site_symmetry_multiplicity
 _atom_site_fract_x
 _atom_site_fract_y
 _atom_site_fract_z
 _atom_site_occupancy
  K  K0  1  0.25000000  0.25000000  0.25000000  1
  K  K1  1  0.75000000  0.75000000  0.75000000  1
  Li  Li0  1  0.00000000  0.00000000  0.00000000  1
  Li  Li1  1  0.50000000  0.50000000  0.50000000  1
  Zn  Zn0  1  0.43852609  0.20283229  0.79716771  1
  Zn  Zn1  1  0.93852609  0.70283229  0.06147391  1
  Zn  Zn2  1  0.70283229  0.93852609  0.29716771  1
  Zn  Zn3  1  0.29716771  0.70283229  0.93852609  1
  Zn  Zn4  1  0.93852609  0.06147391  0.29716771  1
  Zn  Zn5  1  0.70283229  0.06147391  0.93852609  1
  Zn  Zn6  1  0.29716771  0.93852609  0.06147391  1
  Zn  Zn7  1  0.79716771  0.43852609  0.20283229  1
  Zn  Zn8  1  0.20283229  0.79716771  0.43852609  1
  Zn  Zn9  1  0.43852609  0.56147391  0.20283229  1
  Zn  Zn10  1  0.43852609  0.79716771  0.56147391  1
  Zn  Zn11  1  0.20283229  0.56147391  0.79716771  1
  Zn  Zn12  1  0.56147391  0.43852609  0.79716771  1
  Zn  Zn13  1  0.56147391  0.20283229  0.43852609  1
  Zn  Zn14  1  0.79716771  0.20283229  0.56147391  1
  Zn  Zn15  1  0.06147391  0.93852609  0.70283229  1
  Zn  Zn16  1  0.06147391  0.29716771  0.93852609  1
  Zn  Zn17  1  0.93852609  0.29716771  0.70283229  1
  Zn  Zn18  1  0.06147391  0.70283229  0.29716771  1
  Zn  Zn19  1  0.29716771  0.06147391  0.70283229  1
  Zn  Zn20  1  0.70283229  0.29716771  0.06147391  1
  Zn  Zn21  1  0.20283229  0.43852609  0.56147391  1
  Zn  Zn22  1  0.79716771  0.56147391  0.43852609  1
  Zn  Zn23  1  0.56147391  0.79716771  0.20283229  1
loop_
_geom_bond_atom_site_label_1
_geom_bond_atom_site_label_2
_geom_bond_distance
_geom_bond_site_symmetry_2
K0 Zn1 3.531899 1_455
K0 Zn23 3.531899 1_545
K0 Zn18 3.531899 1_555
K0 Zn10 3.531899 1_545
K0 Zn2 3.531899 1_545
K0 Zn22 3.531899 1_455
K0 Zn6 3.531899 1_545
K0 Zn11 3.531899 1_554
K0 Zn19 3.531899 1_555
K0 Zn21 3.531899 1_555
K0 Zn7 3.531899 1_455
K0 Zn5 3.531899 1_554
K0 Zn0 3.531899 1_554
K0 Zn16 3.531899 1_554
K0 Zn13 3.531899 1_555
K0 Zn17 3.531899 1_455
K0 Zn3 3.531899 1_554
K0 Zn8 3.531899 1_545
K0 Zn15 3.531900 1_545
K0 Zn9 3.531900 1_555
K0 Zn4 3.531900 1_455
K0 Zn12 3.531900 1_554
K0 Zn20 3.531900 1_555
K0 Zn14 3.531900 1_455
K1 Zn16 3.531899 1_655
K1 Zn0 3.531899 1_565
K1 Zn13 3.531899 1_565
K1 Zn17 3.531899 1_555
K1 Zn21 3.531899 1_655
K1 Zn19 3.531899 1_565
K1 Zn5 3.531899 1_565
K1 Zn7 3.531899 1_556
K1 Zn2 3.531899 1_555
K1 Zn22 3.531899 1_555
K1 Zn11 3.531899 1_655
K1 Zn6 3.531899 1_556
K1 Zn23 3.531899 1_556
K1 Zn1 3.531899 1_556
K1 Zn18 3.531899 1_655
K1 Zn10 3.531899 1_555
K1 Zn20 3.531899 1_556
K1 Zn14 3.531899 1_565
K1 Zn4 3.531900 1_565
K1 Zn12 3.531900 1_555
K1 Zn15 3.531900 1_655
K1 Zn9 3.531900 1_556
K1 Zn8 3.531900 1_655
K1 Zn3 3.531900 1_555
Li0 Zn20 2.600081 1_455
Li0 Zn3 2.600081 1_544
Li0 Zn18 2.600081 1_545
Li0 Zn17 2.600081 1_454
Li0 Zn4 2.600081 1_455
Li0 Zn15 2.600081 1_544
Li0 Zn6 2.600081 1_545
Li0 Zn5 2.600081 1_454
Li0 Zn16 2.600081 1_554
Li0 Zn1 2.600081 1_445
Li0 Zn19 2.600081 1_554
Li0 Zn2 2.600081 1_445
Li1 Zn14 2.600081 1_555
Li1 Zn8 2.600081 1_555
Li1 Zn10 2.600081 1_555
Li1 Zn13 2.600081 1_555
Li1 Zn12 2.600081 1_555
Li1 Zn9 2.600081 1_555
Li1 Zn11 2.600081 1_555
Li1 Zn7 2.600081 1_555
Li1 Zn23 2.600081 1_555
Li1 Zn0 2.600081 1_555
Li1 Zn21 2.600081 1_555
Li1 Zn22 2.600081 1_555
Zn0 Zn5 2.568153 1_555
Zn0 Zn6 2.568153 1_546
Zn0 Zn16 2.648037 1_555
Zn0 Zn19 2.648037 1_555
Zn0 Zn11 2.704678 1_555
Zn0 Zn13 2.704678 1_555
Zn0 Zn12 2.704678 1_555
Zn0 Zn14 2.704678 1_555
Zn0 Zn21 2.855941 1_555
Zn1 Zn11 2.568153 1_654
Zn1 Zn7 2.568153 1_555
Zn1 Zn23 2.648037 1_555
Zn1 Zn22 2.648037 1_555
Zn1 Zn5 2.704678 1_564
Zn1 Zn18 2.704678 1_655
Zn1 Zn15 2.704678 1_654
Zn1 Zn3 2.704678 1_654
Zn1 Zn2 2.855941 1_555
Zn2 Zn22 2.648037 1_555
Zn2 Zn23 2.648037 1_555
Zn2 Zn5 2.704678 1_564
Zn2 Zn20 2.704678 1_565
Zn2 Zn4 2.704678 1_565
Zn3 Zn9 2.568153 1_556
Zn3 Zn6 2.704678 1_556
Zn4 Zn8 2.568153 1_645
Zn4 Zn7 2.648037 1_555
Zn4 Zn6 2.704678 1_645
Zn6 Zn9 2.648037 1_555
Zn6 Zn8 2.648037 1_555
Zn7 Zn9 2.704678 1_555
Zn8 Zn9 2.855941 1_555
Zn10 Zn19 2.568153 1_565
Zn10 Zn2 2.568153 1_555
Zn10 Zn15 2.648037 1_555
Zn10 Zn3 2.648037 1_555
Zn10 Zn22 2.704678 1_555
Zn10 Zn12 2.704678 1_555
Zn10 Zn23 2.704678 1_555
Zn10 Zn8 2.704678 1_555
Zn10 Zn11 2.855941 1_555
Zn11 Zn16 2.568153 1_555
Zn11 Zn15 2.648037 1_555
Zn11 Zn3 2.648037 1_555
Zn11 Zn21 2.704678 1_555
Zn11 Zn8 2.704678 1_555
Zn11 Zn12 2.704678 1_555
Zn12 Zn3 2.568153 1_555
Zn12 Zn20 2.568153 1_556
Zn12 Zn5 2.648037 1_555
Zn12 Zn17 2.648037 1_555
Zn12 Zn22 2.704678 1_555
Zn12 Zn14 2.855941 1_555
Zn13 Zn2 2.568153 1_545
Zn13 Zn19 2.568153 1_555
Zn13 Zn4 2.648037 1_555
Zn13 Zn20 2.648037 1_555
Zn13 Zn21 2.704678 1_555
Zn13 Zn9 2.704678 1_555
Zn13 Zn14 2.704678 1_555
Zn13 Zn7 2.855941 1_555
Zn14 Zn15 2.568153 1_645
Zn14 Zn4 2.568153 1_555
Zn14 Zn5 2.648037 1_555
Zn14 Zn17 2.648037 1_555
Zn14 Zn7 2.704678 1_555
Zn14 Zn22 2.704678 1_555
Zn15 Zn8 2.568153 1_555
Zn15 Zn17 2.704678 1_465
Zn15 Zn5 2.704678 1_465
Zn15 Zn19 2.704678 1_565
Zn15 Zn3 2.855941 1_555
Zn16 Zn7 2.568153 1_456
Zn16 Zn21 2.648037 1_555
Zn16 Zn6 2.704678 1_546
Zn16 Zn17 2.704678 1_455
Zn16 Zn4 2.704678 1_456
Zn16 Zn20 2.704678 1_456
Zn16 Zn19 2.855941 1_555
Zn17 Zn22 2.568153 1_555
Zn17 Zn21 2.568153 1_655
Zn17 Zn19 2.704678 1_655
Zn17 Zn20 2.704678 1_556
Zn17 Zn5 2.855941 1_555
Zn18 Zn21 2.568153 1_555
Zn18 Zn22 2.568153 1_455
Zn18 Zn9 2.648037 1_555
Zn18 Zn8 2.648037 1_555
Zn18 Zn2 2.704678 1_455
Zn18 Zn4 2.704678 1_465
Zn18 Zn3 2.704678 1_554
Zn18 Zn6 2.855941 1_555
Zn19 Zn21 2.648037 1_555
Zn19 Zn6 2.704678 1_546
Zn19 Zn3 2.704678 1_545
Zn20 Zn9 2.568153 1_555
Zn20 Zn7 2.648037 1_555
Zn20 Zn5 2.704678 1_554
Zn20 Zn4 2.855941 1_555
Zn21 Zn8 2.704678 1_555
Zn21 Zn9 2.704678 1_555
Zn22 Zn7 2.704678 1_555
Zn22 Zn23 2.855941 1_555
Zn23 Zn6 2.568153 1_555
Zn23 Zn5 2.568153 1_564
Zn23 Zn7 2.704678 1_555
Zn23 Zn9 2.704678 1_555
Zn23 Zn8 2.704678 1_555
