# generated using pymatgen
data_Y6CrFeB14
_symmetry_space_group_name_H-M   'P 1'
_cell_length_a   8.06814958
_cell_length_b   8.06814992
_cell_length_c   9.32218069
_cell_angle_alpha   90.00000000
_cell_angle_beta   90.00000000
_cell_angle_gamma   155.38603138
_symmetry_Int_Tables_number   1
_chemical_formula_structural   Y6CrFeB14
_chemical_formula_sum   'Y6 Cr1 Fe1 B14'
_cell_volume   252.74523579
_cell_formula_units_Z   1
loop_
 _symmetry_equiv_pos_site_id
 _symmetry_equiv_pos_as_xyz
  1  'x, y, z'
loop_
 _atom_site_type_symbol
 _atom_site_label
 _atom_site_symmetry_multiplicity
 _atom_site_fract_x
 _atom_site_fract_y
 _atom_site_fract_z
 _atom_site_occupancy
  Y  Y0  1  0.89465039  0.10534961  0.44076923  1
  Y  Y1  1  0.10488660  0.89511340  0.56154593  1
  Y  Y2  1  0.89465039  0.10534961  0.05923077  1
  Y  Y3  1  0.10488660  0.89511340  0.93845407  1
  Y  Y4  1  0.24257201  0.75742799  0.25000000  1
  Y  Y5  1  0.75873488  0.24126512  0.75000000  1
  Cr  Cr0  1  0.05355892  0.94644108  0.25000000  1
  Fe  Fe0  1  0.94525415  0.05474585  0.75000000  1
  B  B0  1  0.72758081  0.27241919  0.46725764  1
  B  B1  1  0.27312218  0.72687782  0.53468724  1
  B  B2  1  0.72758081  0.27241919  0.03274236  1
  B  B3  1  0.27312218  0.72687782  0.96531276  1
  B  B4  1  0.63095293  0.36904707  0.15108349  1
  B  B5  1  0.37104378  0.62895622  0.84655733  1
  B  B6  1  0.63095293  0.36904707  0.34891651  1
  B  B7  1  0.37104378  0.62895622  0.65344267  1
  B  B8  1  0.52090630  0.47909370  0.09672443  1
  B  B9  1  0.47823743  0.52176257  0.90125278  1
  B  B10  1  0.52090630  0.47909370  0.40327557  1
  B  B11  1  0.47823743  0.52176257  0.59874722  1
  B  B12  1  0.45841541  0.54158459  0.25000000  1
  B  B13  1  0.53870377  0.46129623  0.75000000  1
loop_
_geom_bond_atom_site_label_1
_geom_bond_atom_site_label_2
_geom_bond_distance
_geom_bond_site_symmetry_2
B0 B6 1.880890 1_555
B0 B1 1.966740 1_655
B0 B1 1.966741 1_545
B0 Y0 2.645482 1_555
B0 Y4 2.667434 1_655
B0 Y4 2.667434 1_545
B0 Y5 2.681147 1_555
B0 Y1 2.733437 1_545
B0 Y1 2.733438 1_655
B1 B7 1.899695 1_555
B1 Y5 2.652863 1_455
B1 Y5 2.652863 1_565
B1 Y1 2.664107 1_555
B1 Y4 2.697256 1_555
B1 Y0 2.719347 1_565
B1 Y0 2.719347 1_455
B2 B4 1.880890 1_555
B2 B3 1.966740 1_654
B2 B3 1.966741 1_544
B2 Y2 2.645482 1_555
B2 Y4 2.667434 1_655
B2 Y4 2.667434 1_545
B2 Y5 2.681147 1_554
B2 Y3 2.733437 1_544
B2 Y3 2.733438 1_654
B3 B5 1.899695 1_555
B3 Y5 2.652863 1_455
B3 Y5 2.652863 1_565
B3 Y3 2.664107 1_555
B3 Y4 2.697256 1_556
B3 Y2 2.719347 1_566
B3 Y2 2.719347 1_456
B4 B8 1.807429 1_555
B4 B6 1.844235 1_555
B4 Cr0 2.301417 1_545
B4 Cr0 2.301417 1_655
B4 Y4 2.627620 1_655
B4 Y4 2.627621 1_545
B4 Y3 2.656185 1_544
B4 Y3 2.656185 1_654
B5 B9 1.765203 1_555
B5 B7 1.800250 1_555
B5 Fe0 2.266380 1_565
B5 Fe0 2.266381 1_455
B5 Y5 2.627300 1_455
B5 Y5 2.627300 1_565
B5 Y2 2.650769 1_566
B5 Y2 2.650769 1_456
B6 Cr0 2.301417 1_545
B6 Cr0 2.301417 1_655
B6 Y4 2.627620 1_655
B6 Y4 2.627621 1_545
B6 Y1 2.656185 1_545
B6 Y1 2.656185 1_655
B7 Fe0 2.266380 1_565
B7 Fe0 2.266381 1_455
B7 Y5 2.627300 1_455
B7 Y5 2.627300 1_565
B7 Y0 2.650769 1_565
B7 Y0 2.650769 1_455
B8 B9 1.942424 1_554
B8 Cr0 2.294361 1_655
B8 Cr0 2.294362 1_545
B8 Y3 2.624361 1_654
B8 Y3 2.624361 1_544
B8 Y2 2.653609 1_455
B8 Y2 2.653609 1_565
B9 Fe0 2.283847 1_455
B9 Fe0 2.283847 1_565
B9 Y2 2.619706 1_456
B9 Y2 2.619706 1_566
B9 Y3 2.657906 1_655
B9 Y3 2.657906 1_545
B10 B12 1.735588 1_555
B10 B6 1.807429 1_555
B10 B11 1.942424 1_555
B10 Cr0 2.294361 1_655
B10 Cr0 2.294362 1_545
B10 Y1 2.624361 1_655
B10 Y1 2.624361 1_545
B10 Y0 2.653609 1_455
B10 Y0 2.653609 1_565
B11 B13 1.702017 1_555
B11 B7 1.765203 1_555
B11 Fe0 2.283847 1_455
B11 Fe0 2.283847 1_565
B11 Y0 2.619706 1_455
B11 Y0 2.619706 1_565
B11 Y1 2.657906 1_655
B11 Y1 2.657906 1_545
B12 B8 1.735588 1_555
B12 Cr0 2.281971 1_655
B12 Cr0 2.281972 1_545
B12 Y0 2.670337 1_455
B12 Y2 2.670337 1_455
B12 Y0 2.670337 1_565
B12 Y2 2.670337 1_565
B13 B9 1.702017 1_555
B13 Fe0 2.264507 1_455
B13 Fe0 2.264507 1_565
B13 Y3 2.670673 1_655
B13 Y1 2.670673 1_655
B13 Y3 2.670673 1_545
B13 Y1 2.670673 1_545
