# generated using pymatgen
data_Cu6AgClO8
_symmetry_space_group_name_H-M   'P 1'
_cell_length_a   6.42908729
_cell_length_b   6.42908709
_cell_length_c   6.42908655
_cell_angle_alpha   60.00000275
_cell_angle_beta   60.00000378
_cell_angle_gamma   59.99999572
_symmetry_Int_Tables_number   1
_chemical_formula_structural   Cu6AgClO8
_chemical_formula_sum   'Cu6 Ag1 Cl1 O8'
_cell_volume   187.90265359
_cell_formula_units_Z   1
loop_
 _symmetry_equiv_pos_site_id
 _symmetry_equiv_pos_as_xyz
  1  'x, y, z'
loop_
 _atom_site_type_symbol
 _atom_site_label
 _atom_site_symmetry_multiplicity
 _atom_site_fract_x
 _atom_site_fract_y
 _atom_site_fract_z
 _atom_site_occupancy
  Cu  Cu0  1  0.00000000  0.00000000  0.50000000  1
  Cu  Cu1  1  0.50000000  0.00000000  0.50000000  1
  Cu  Cu2  1  0.00000000  0.50000000  0.50000000  1
  Cu  Cu3  1  0.50000000  0.50000000  0.00000000  1
  Cu  Cu4  1  0.00000000  0.50000000  0.00000000  1
  Cu  Cu5  1  0.50000000  0.00000000  0.00000000  1
  Ag  Ag0  1  0.00000000  0.00000000  0.00000000  1
  Cl  Cl0  1  0.50000000  0.50000000  0.50000000  1
  O  O0  1  0.85555448  0.85555448  0.43333557  1
  O  O1  1  0.85555448  0.43333557  0.85555448  1
  O  O2  1  0.43333557  0.85555448  0.85555448  1
  O  O3  1  0.85555448  0.85555448  0.85555448  1
  O  O4  1  0.14444552  0.14444552  0.56666443  1
  O  O5  1  0.14444552  0.56666443  0.14444552  1
  O  O6  1  0.56666443  0.14444552  0.14444552  1
  O  O7  1  0.14444552  0.14444552  0.14444552  1
loop_
_geom_bond_atom_site_label_1
_geom_bond_atom_site_label_2
_geom_bond_distance
_geom_bond_site_symmetry_2
Cu0 O3 1.888620 1_445
Cu0 O7 1.888620 1_555
Cu0 O4 1.888625 1_555
Cu0 O0 1.888625 1_445
Cu1 O2 1.888619 1_545
Cu1 O6 1.888619 1_555
Cu1 O0 1.888620 1_545
Cu1 O4 1.888620 1_555
Cu2 O1 1.888619 1_455
Cu2 O5 1.888619 1_555
Cu2 O4 1.888619 1_555
Cu2 O0 1.888619 1_455
Cu3 O2 1.888619 1_554
Cu3 O6 1.888619 1_555
Cu3 O1 1.888620 1_554
Cu3 O5 1.888620 1_555
Cu4 O7 1.888620 1_555
Cu4 O3 1.888620 1_454
Cu4 O5 1.888625 1_555
Cu4 O1 1.888625 1_454
Cu5 O3 1.888620 1_544
Cu5 O7 1.888620 1_555
Cu5 O6 1.888625 1_555
Cu5 O2 1.888625 1_544
Ag0 O4 2.274720 1_554
Ag0 O0 2.274720 1_445
Ag0 O1 2.274720 1_454
Ag0 O5 2.274720 1_545
Ag0 O2 2.274720 1_544
Ag0 O6 2.274720 1_455
Ag0 O7 2.274726 1_555
Ag0 O3 2.274726 1_444
