# generated using pymatgen
data_BeV10B4S
_symmetry_space_group_name_H-M   'P 1'
_cell_length_a   6.63219746
_cell_length_b   6.63219497
_cell_length_c   6.63136655
_cell_angle_alpha   129.26134670
_cell_angle_beta   129.26137914
_cell_angle_gamma   74.58651129
_symmetry_Int_Tables_number   1
_chemical_formula_structural   BeV10B4S
_chemical_formula_sum   'Be1 V10 B4 S1'
_cell_volume   170.39051564
_cell_formula_units_Z   1
loop_
 _symmetry_equiv_pos_site_id
 _symmetry_equiv_pos_as_xyz
  1  'x, y, z'
loop_
 _atom_site_type_symbol
 _atom_site_label
 _atom_site_symmetry_multiplicity
 _atom_site_fract_x
 _atom_site_fract_y
 _atom_site_fract_z
 _atom_site_occupancy
  Be  Be0  1  0.75009223  0.74990309  0.00000066  1
  V  V0  1  0.53045297  0.68999593  0.50122802  1
  V  V1  1  0.02922463  0.53060969  0.84062274  1
  V  V2  1  0.68984110  0.18872847  0.15932937  1
  V  V3  1  0.96938848  0.47077446  0.15938001  1
  V  V4  1  0.18855926  0.02936826  0.49873048  1
  V  V5  1  0.47062999  0.31143818  0.50127018  1
  V  V6  1  0.80999928  0.96954351  0.49877132  1
  V  V7  1  0.31126851  0.81015345  0.84066841  1
  V  V8  1  0.99824564  0.99798817  0.99996603  1
  V  V9  1  0.50202199  0.50176614  0.00003384  1
  B  B0  1  0.61515055  0.11496116  0.73005638  1
  B  B1  1  0.11505824  0.38494554  0.50000024  1
  B  B2  1  0.88503638  0.61496614  0.49999906  1
  B  B3  1  0.38504309  0.88485260  0.26994320  1
  S  S0  1  0.24998768  0.25000521  0.00000004  1
loop_
_geom_bond_atom_site_label_1
_geom_bond_atom_site_label_2
_geom_bond_distance
_geom_bond_site_symmetry_2
Be0 V3 2.399804 1_555
Be0 V1 2.399820 1_654
Be0 V5 2.400629 1_554
Be0 V4 2.400640 1_665
Be0 V6 2.401167 1_555
Be0 V0 2.401179 1_554
Be0 V7 2.402150 1_554
Be0 V2 2.402165 1_565
Be0 V9 2.618268 1_555
Be0 V8 2.618441 1_554
V0 V8 2.562559 1_555
V0 V9 2.592419 1_555
V1 V8 2.560802 1_455
V1 V9 2.593865 1_556
V2 V8 2.563042 1_544
V2 V9 2.591041 1_555
V3 V9 2.560724 1_555
V3 V8 2.593791 1_544
V4 V8 2.561313 1_444
V4 V9 2.592517 1_556
V5 V9 2.561232 1_556
V5 V8 2.592436 1_444
V6 V9 2.562468 1_555
V6 V8 2.592332 1_555
V7 V9 2.562945 1_556
V7 V8 2.590961 1_455
B0 B3 1.848858 1_545
B0 V0 2.216137 1_545
B0 V5 2.217269 1_555
B0 V6 2.219546 1_545
B0 V4 2.222215 1_555
B0 V2 2.273649 1_556
B0 V3 2.274030 1_556
B0 V9 2.283224 1_556
B0 V8 2.283569 1_545
B1 B2 1.848641 1_455
B1 V7 2.217168 1_555
B1 V2 2.217226 1_455
B1 V3 2.220919 1_455
B1 V1 2.220968 1_555
B1 V5 2.273299 1_555
B1 V4 2.273337 1_555
B1 V9 2.283852 1_556
B1 V8 2.283858 1_444
B2 V3 2.215970 1_555
B2 V1 2.216026 1_655
B2 V7 2.220598 1_655
B2 V2 2.220641 1_555
B2 V6 2.274837 1_555
B2 V0 2.274885 1_555
B2 V9 2.282975 1_555
B2 V8 2.282978 1_555
B3 V6 2.216077 1_555
B3 V4 2.217322 1_565
B3 V0 2.219599 1_555
B3 V5 2.222173 1_565
B3 V7 2.273606 1_554
B3 V1 2.274066 1_554
B3 V8 2.283220 1_454
B3 V9 2.283560 1_555
S0 V5 2.408923 1_555
S0 V4 2.408944 1_554
S0 V7 2.409054 1_544
S0 V2 2.409064 1_555
S0 V6 2.409639 1_444
S0 V0 2.409652 1_555
S0 V3 2.409682 1_455
S0 V1 2.409697 1_554
S0 V8 2.657759 1_444
S0 V9 2.657951 1_555
