# generated using pymatgen
data_Ba4Os6O18F
_symmetry_space_group_name_H-M   'P 1'
_cell_length_a   8.11427321
_cell_length_b   8.11417180
_cell_length_c   8.11428139
_cell_angle_alpha   109.39367462
_cell_angle_beta   109.69286316
_cell_angle_gamma   109.32795165
_symmetry_Int_Tables_number   1
_chemical_formula_structural   Ba4Os6O18F
_chemical_formula_sum   'Ba4 Os6 O18 F1'
_cell_volume   411.25747642
_cell_formula_units_Z   1
loop_
 _symmetry_equiv_pos_site_id
 _symmetry_equiv_pos_as_xyz
  1  'x, y, z'
loop_
 _atom_site_type_symbol
 _atom_site_label
 _atom_site_symmetry_multiplicity
 _atom_site_fract_x
 _atom_site_fract_y
 _atom_site_fract_z
 _atom_site_occupancy
  Ba  Ba0  1  0.99999213  0.33751953  0.00017070  1
  Ba  Ba1  1  0.00003090  0.00020889  0.33752878  1
  Ba  Ba2  1  0.66264808  0.66247794  0.66247003  1
  Ba  Ba3  1  0.33732082  0.99979203  0.99982274  1
  Os  Os0  1  0.50001700  0.36229318  0.86231603  1
  Os  Os1  1  0.50001574  0.63770589  0.13772885  1
  Os  Os2  1  0.36265472  0.86264104  0.50000919  1
  Os  Os3  1  0.63736892  0.13735514  0.50001104  1
  Os  Os4  1  0.86415502  0.50000998  0.36416706  1
  Os  Os5  1  0.13584742  0.50001082  0.63585844  1
  O  O0  1  0.69801856  0.34590229  0.06783282  1
  O  O1  1  0.65389168  0.35041886  0.72156106  1
  O  O2  1  0.27803796  0.63017126  0.93217893  1
  O  O3  1  0.64902733  0.30360703  0.37086465  1
  O  O4  1  0.35093925  0.72181665  0.65456825  1
  O  O5  1  0.93275218  0.27818193  0.62912216  1
  O  O6  1  0.06725898  0.69639490  0.34542223  1
  O  O7  1  0.99999791  0.66337433  0.66336070  1
  O  O8  1  0.66060449  0.66061714  0.99999730  1
  O  O9  1  0.72192498  0.65408910  0.35210658  1
  O  O10  1  0.34612181  0.06767661  0.69654121  1
  O  O11  1  0.66235845  0.00000051  0.66236383  1
  O  O12  1  0.99998686  0.33661542  0.33661359  1
  O  O13  1  0.62886138  0.93231750  0.27844029  1
  O  O14  1  0.37114513  0.64958149  0.30346615  1
  O  O15  1  0.30200930  0.36982589  0.64785646  1
  O  O16  1  0.33763236  0.00000779  0.33763732  1
  O  O17  1  0.33938073  0.33938645  0.99998297  1
  F  F0  1  0.99999994  0.00000040  0.00000063  1
loop_
_geom_bond_atom_site_label_1
_geom_bond_atom_site_label_2
_geom_bond_distance
_geom_bond_site_symmetry_2
Ba0 O0 2.702258 1_555
Ba0 O5 2.711210 1_554
Ba0 O14 2.712316 1_655
Ba0 O12 2.732451 1_555
Ba0 F0 2.738251 1_555
Ba0 O11 2.739767 1_554
Ba0 O17 2.749433 1_654
Ba0 O1 3.013552 1_554
Ba0 O6 3.020823 1_655
Ba0 O2 3.032482 1_654
Ba1 O15 2.702086 1_555
Ba1 O6 2.711158 1_545
Ba1 O13 2.712423 1_445
Ba1 O12 2.732253 1_455
Ba1 F0 2.738152 1_455
Ba1 O16 2.739635 1_555
Ba1 O8 2.749566 1_444
Ba1 O10 3.013653 1_555
Ba1 O5 3.020780 1_455
Ba1 O9 3.033017 1_445
Ba2 O9 2.702296 1_555
Ba2 O4 2.711197 1_555
Ba2 O1 2.712315 1_555
Ba2 O7 2.732515 1_555
Ba2 F0 2.738275 1_566
Ba2 O11 2.739781 1_565
Ba2 O8 2.749434 1_555
Ba2 O14 3.013566 1_555
Ba2 O3 3.020801 1_555
Ba2 O15 3.032421 1_555
Ba3 O2 2.702122 1_555
Ba3 O3 2.711155 1_566
Ba3 O10 2.712422 1_565
Ba3 O7 2.732314 1_455
Ba3 F0 2.738160 1_466
Ba3 O16 2.739690 1_566
Ba3 O17 2.749606 1_565
Ba3 O13 3.013647 1_556
Ba3 O4 3.020795 1_555
Ba3 O0 3.032988 1_566
O0 Os0 1.965444 1_554
O0 Os4 1.966071 1_555
O1 Os0 1.959675 1_555
O1 Os3 1.964366 1_555
O2 Os1 1.965852 1_556
O2 Os5 1.966000 1_555
O3 Os3 1.961648 1_555
O3 Os4 1.967179 1_555
O4 Os2 1.961571 1_555
O4 Os5 1.966981 1_555
O5 Os3 1.961565 1_555
O5 Os5 1.966995 1_655
O6 Os2 1.961625 1_555
O6 Os4 1.967216 1_455
O7 Os4 1.989505 1_555
O7 Os5 1.989620 1_655
O8 Os0 1.985087 1_555
O8 Os1 1.985106 1_556
O9 Os1 1.965418 1_555
O9 Os4 1.965914 1_555
O10 Os0 1.959567 1_555
O10 Os2 1.964419 1_545
O11 Os2 1.990803 1_545
O11 Os3 1.990827 1_555
O12 Os4 1.989741 1_555
O12 Os5 1.989850 1_655
O13 Os1 1.959531 1_555
O13 Os3 1.964422 1_565
O14 Os1 1.959531 1_555
O14 Os2 1.964374 1_555
O15 Os0 1.965893 1_555
O15 Os5 1.966169 1_555
O16 Os3 1.991035 1_555
O16 Os2 1.991050 1_545
O17 Os0 1.984990 1_555
O17 Os1 1.985049 1_556
