# generated using pymatgen
data_Sr2GaSi3Ir4
_symmetry_space_group_name_H-M   'P 1'
_cell_length_a   8.19725612
_cell_length_b   7.14817586
_cell_length_c   5.91096176
_cell_angle_alpha   77.11733719
_cell_angle_beta   57.17030776
_cell_angle_gamma   44.66331463
_symmetry_Int_Tables_number   1
_chemical_formula_structural   Sr2GaSi3Ir4
_chemical_formula_sum   'Sr2 Ga1 Si3 Ir4'
_cell_volume   196.67306808
_cell_formula_units_Z   1
loop_
 _symmetry_equiv_pos_site_id
 _symmetry_equiv_pos_as_xyz
  1  'x, y, z'
loop_
 _atom_site_type_symbol
 _atom_site_label
 _atom_site_symmetry_multiplicity
 _atom_site_fract_x
 _atom_site_fract_y
 _atom_site_fract_z
 _atom_site_occupancy
  Sr  Sr0  1  0.50006585  0.49993415  0.50006585  1
  Sr  Sr1  1  0.74853136  0.75146864  0.74853136  1
  Ga  Ga0  1  0.06499639  0.43500361  0.06499639  1
  Si  Si0  1  0.81933614  0.18066386  0.81933614  1
  Si  Si1  1  0.18132344  0.81867656  0.18132344  1
  Si  Si2  1  0.42882027  0.07117973  0.42882027  1
  Ir  Ir0  1  0.12572680  0.10645989  0.87315569  1
  Ir  Ir1  1  0.87315569  0.89465863  0.12572680  1
  Ir  Ir2  1  0.13677840  0.11526748  0.37126565  1
  Ir  Ir3  1  0.37126565  0.37668947  0.13677840  1
loop_
_geom_bond_atom_site_label_1
_geom_bond_atom_site_label_2
_geom_bond_distance
_geom_bond_site_symmetry_2
Ga0 Ir0 2.441602 1_554
Ga0 Ir1 2.441608 1_455
Ga0 Ir2 2.498844 1_555
Ga0 Ir3 2.498848 1_555
Ga0 Sr1 3.220734 1_454
Ga0 Sr1 3.540407 1_544
Ga0 Sr1 3.540407 1_455
Ga0 Sr0 3.582718 1_455
Ga0 Sr0 3.582718 1_554
Si0 Sr0 3.249283 1_555
Si0 Sr0 3.525428 1_645
Si0 Sr0 3.525428 1_556
Si0 Sr1 3.646006 1_545
Si0 Sr1 3.646006 1_555
Si1 Sr0 3.243911 1_555
Si1 Sr0 3.528234 1_465
Si1 Sr0 3.528234 1_554
Si1 Sr1 3.587065 1_554
Si1 Sr1 3.587065 1_455
Si2 Sr1 3.253770 1_545
Si2 Sr1 3.523089 1_455
Si2 Sr1 3.523090 1_544
Si2 Sr0 3.646896 1_555
Si2 Sr0 3.646896 1_545
Ir0 Si2 2.337366 1_555
Ir0 Si0 2.363589 1_455
Ir0 Si1 2.377642 1_546
Ir0 Sr0 3.328313 1_545
Ir0 Sr1 3.372412 1_545
Ir0 Sr0 3.386299 1_456
Ir0 Sr1 3.469437 1_455
Ir1 Si2 2.337369 1_565
Ir1 Si0 2.363585 1_564
Ir1 Si1 2.377638 1_655
Ir1 Sr0 3.328307 1_565
Ir1 Sr1 3.372415 1_555
Ir1 Sr0 3.386299 1_654
Ir1 Sr1 3.469442 1_554
Ir2 Si0 2.313738 1_455
Ir2 Si1 2.324715 1_545
Ir2 Si2 2.389160 1_555
Ir2 Sr0 3.335734 1_545
Ir2 Sr1 3.341030 1_544
Ir2 Sr0 3.404632 1_455
Ir2 Sr1 3.467216 1_455
Ir3 Si0 2.313735 1_554
Ir3 Si1 2.324709 1_555
Ir3 Si2 2.389164 1_555
Ir3 Sr0 3.335729 1_555
Ir3 Sr1 3.341030 1_455
Ir3 Sr0 3.404631 1_554
Ir3 Sr1 3.467221 1_544
