# generated using pymatgen
data_Ca(BeGe)2
_symmetry_space_group_name_H-M   'P 1'
_cell_length_a   4.02963500
_cell_length_b   4.02963500
_cell_length_c   9.88658700
_cell_angle_alpha   90.00000000
_cell_angle_beta   90.00000000
_cell_angle_gamma   90.00000000
_symmetry_Int_Tables_number   1
_chemical_formula_structural   Ca(BeGe)2
_chemical_formula_sum   'Ca2 Be4 Ge4'
_cell_volume   160.53798678
_cell_formula_units_Z   2
loop_
 _symmetry_equiv_pos_site_id
 _symmetry_equiv_pos_as_xyz
  1  'x, y, z'
loop_
 _atom_site_type_symbol
 _atom_site_label
 _atom_site_symmetry_multiplicity
 _atom_site_fract_x
 _atom_site_fract_y
 _atom_site_fract_z
 _atom_site_occupancy
  Ca  Ca0  1  0.50000000  0.00000000  0.74568300  1
  Ca  Ca1  1  0.00000000  0.50000000  0.25431700  1
  Be  Be0  1  0.00000000  0.50000000  0.86466300  1
  Be  Be1  1  0.50000000  0.00000000  0.13533700  1
  Be  Be2  1  0.50000000  0.50000000  0.50000000  1
  Be  Be3  1  0.00000000  0.00000000  0.50000000  1
  Ge  Ge0  1  0.50000000  0.50000000  0.00000000  1
  Ge  Ge1  1  0.00000000  0.00000000  0.00000000  1
  Ge  Ge2  1  0.50000000  0.00000000  0.36765700  1
  Ge  Ge3  1  0.00000000  0.50000000  0.63234300  1
loop_
_geom_bond_atom_site_label_1
_geom_bond_atom_site_label_2
_geom_bond_distance
_geom_bond_site_symmetry_2
Ca0 Ge3 3.061797 1_545
Ca0 Ge3 3.061797 1_655
Ca0 Ge3 3.061797 1_555
Ca0 Ge3 3.061797 1_645
Ca0 Ge0 3.222007 1_556
Ca0 Ge1 3.222007 1_656
Ca0 Ge1 3.222007 1_556
Ca0 Ge0 3.222007 1_546
Ca1 Ge2 3.061797 1_455
Ca1 Ge2 3.061797 1_565
Ca1 Ge2 3.061797 1_465
Ca1 Ge2 3.061797 1_555
Ca1 Ge0 3.222007 1_555
Ca1 Ge1 3.222007 1_555
Ca1 Ge1 3.222007 1_565
Ca1 Ge0 3.222007 1_455
Be0 Ge3 2.296852 1_555
Be0 Ge1 2.418634 1_556
Be0 Ge1 2.418634 1_566
Be0 Ge0 2.418634 1_456
Be0 Ge0 2.418634 1_556
Be0 Ca0 3.082641 1_565
Be0 Ca0 3.082641 1_555
Be0 Ca0 3.082641 1_455
Be0 Ca0 3.082641 1_465
Be1 Ge2 2.296852 1_555
Be1 Ge1 2.418634 1_655
Be1 Ge0 2.418634 1_555
Be1 Ge1 2.418634 1_555
Be1 Ge0 2.418634 1_545
Be1 Ca1 3.082641 1_555
Be1 Ca1 3.082641 1_655
Be1 Ca1 3.082641 1_645
Be1 Ca1 3.082641 1_545
Be2 Ge3 2.402385 1_555
Be2 Ge3 2.402385 1_655
Be2 Ge2 2.402385 1_565
Be2 Ge2 2.402385 1_555
Be2 Ca1 3.155846 1_555
Be2 Ca0 3.155846 1_565
Be2 Ca1 3.155846 1_655
Be2 Ca0 3.155846 1_555
Be3 Ge3 2.402385 1_555
Be3 Ge3 2.402385 1_545
Be3 Ge2 2.402385 1_455
Be3 Ge2 2.402385 1_555
Be3 Ca1 3.155846 1_545
Be3 Ca1 3.155846 1_555
Be3 Ca0 3.155846 1_455
Be3 Ca0 3.155846 1_555
