# generated using pymatgen
data_Rb6Na3GaBi4
_symmetry_space_group_name_H-M   'P 1'
_cell_length_a   10.67644365
_cell_length_b   10.67644345
_cell_length_c   11.02030530
_cell_angle_alpha   90.00000000
_cell_angle_beta   90.00000000
_cell_angle_gamma   120.00000365
_symmetry_Int_Tables_number   1
_chemical_formula_structural   Rb6Na3GaBi4
_chemical_formula_sum   'Rb12 Na6 Ga2 Bi8'
_cell_volume   1087.87114713
_cell_formula_units_Z   2
loop_
 _symmetry_equiv_pos_site_id
 _symmetry_equiv_pos_as_xyz
  1  'x, y, z'
loop_
 _atom_site_type_symbol
 _atom_site_label
 _atom_site_symmetry_multiplicity
 _atom_site_fract_x
 _atom_site_fract_y
 _atom_site_fract_z
 _atom_site_occupancy
  Rb  Rb0  1  0.41743734  0.20871917  0.46154975  1
  Rb  Rb1  1  0.79128083  0.58256266  0.03845025  1
  Rb  Rb2  1  0.20871917  0.41743734  0.53845025  1
  Rb  Rb3  1  0.58256266  0.79128083  0.96154975  1
  Rb  Rb4  1  0.20871917  0.41743734  0.96154975  1
  Rb  Rb5  1  0.20871917  0.79128083  0.96154975  1
  Rb  Rb6  1  0.79128083  0.58256266  0.46154975  1
  Rb  Rb7  1  0.20871917  0.79128083  0.53845025  1
  Rb  Rb8  1  0.79128083  0.20871917  0.03845025  1
  Rb  Rb9  1  0.58256266  0.79128083  0.53845025  1
  Rb  Rb10  1  0.41743734  0.20871917  0.03845025  1
  Rb  Rb11  1  0.79128083  0.20871917  0.46154975  1
  Na  Na0  1  0.23013210  0.11506655  0.75000000  1
  Na  Na1  1  0.88493345  0.76986790  0.75000000  1
  Na  Na2  1  0.11506655  0.88493345  0.25000000  1
  Na  Na3  1  0.76986790  0.88493345  0.25000000  1
  Na  Na4  1  0.88493345  0.11506655  0.75000000  1
  Na  Na5  1  0.11506655  0.23013210  0.25000000  1
  Ga  Ga0  1  0.33333300  0.66666700  0.25000000  1
  Ga  Ga1  1  0.66666700  0.33333300  0.75000000  1
  Bi  Bi0  1  0.47921676  0.95843352  0.25000000  1
  Bi  Bi1  1  0.52078324  0.47921676  0.75000000  1
  Bi  Bi2  1  0.95843352  0.47921676  0.75000000  1
  Bi  Bi3  1  0.04156648  0.52078324  0.25000000  1
  Bi  Bi4  1  0.47921676  0.52078324  0.25000000  1
  Bi  Bi5  1  0.52078324  0.04156648  0.75000000  1
  Bi  Bi6  1  0.00000000  0.00000000  0.00000000  1
  Bi  Bi7  1  0.00000000  0.00000000  0.50000000  1
loop_
_geom_bond_atom_site_label_1
_geom_bond_atom_site_label_2
_geom_bond_distance
_geom_bond_site_symmetry_2
Rb0 Rb2 3.951591 1_555
Rb0 Rb7 3.951609 1_545
Rb0 Rb6 3.991319 1_555
Rb0 Rb11 3.991319 1_555
Rb0 Rb10 4.662686 1_555
Rb1 Rb3 3.951591 1_554
Rb1 Rb5 3.951609 1_654
Rb1 Rb10 3.991319 1_555
Rb1 Rb8 3.991319 1_555
Rb1 Rb6 4.662686 1_555
Rb2 Rb9 3.991319 1_555
Rb2 Rb7 3.991319 1_555
Rb2 Rb4 4.662686 1_555
Rb3 Rb8 3.951609 1_566
Rb3 Rb4 3.991319 1_555
Rb3 Rb5 3.991319 1_555
Rb3 Rb9 4.662686 1_555
Rb4 Rb8 3.951609 1_456
Rb4 Rb5 3.991319 1_555
Rb5 Rb7 4.662686 1_555
Rb6 Rb9 3.951591 1_555
Rb6 Rb7 3.951609 1_655
Rb7 Rb9 3.991319 1_555
Rb10 Rb4 3.951591 1_554
Rb10 Rb5 3.951609 1_544
Rb10 Rb8 3.991319 1_555
Rb11 Rb9 3.951609 1_545
Rb11 Rb2 3.951609 1_655
Rb11 Rb6 3.991319 1_555
Rb11 Rb8 4.662686 1_555
Na0 Rb0 3.619958 1_555
Na0 Rb10 3.619958 1_556
Na0 Na1 3.685494 1_445
Na0 Na4 3.685494 1_455
Na0 Rb4 4.080075 1_555
Na0 Rb2 4.080075 1_555
Na0 Rb7 4.080092 1_545
Na0 Rb5 4.080092 1_545
Na1 Rb6 3.619958 1_555
Na1 Rb1 3.619958 1_556
Na1 Na4 3.685494 1_565
Na1 Rb9 4.080075 1_555
Na1 Rb3 4.080075 1_555
Na1 Rb5 4.080092 1_655
Na1 Rb7 4.080092 1_655
Na2 Rb5 3.619958 1_554
Na2 Rb7 3.619958 1_555
Na2 Na5 3.685494 1_565
Na2 Na3 3.685494 1_455
Na2 Rb10 4.080084 1_565
Na2 Rb0 4.080084 1_565
Na2 Rb6 4.080084 1_455
Na2 Rb1 4.080084 1_455
Na3 Rb3 3.619958 1_554
Na3 Rb9 3.619958 1_555
Na3 Na5 3.685494 1_665
Na3 Rb1 4.080075 1_555
Na3 Rb6 4.080075 1_555
Na3 Rb8 4.080092 1_565
Na3 Rb11 4.080092 1_565
Na4 Rb8 3.619958 1_556
Na4 Rb11 3.619958 1_555
Na4 Rb9 4.080084 1_545
Na4 Rb3 4.080084 1_545
Na4 Rb2 4.080084 1_655
Na4 Rb4 4.080084 1_655
Na5 Rb4 3.619958 1_554
Na5 Rb2 3.619958 1_555
Na5 Rb0 4.080075 1_555
Na5 Rb10 4.080075 1_555
Na5 Rb11 4.080092 1_455
Na5 Rb8 4.080092 1_455
Ga0 Rb5 3.926192 1_554
Ga0 Rb7 3.926192 1_555
Ga0 Rb4 3.926203 1_554
Ga0 Rb2 3.926203 1_555
Ga0 Rb3 3.926203 1_554
Ga0 Rb9 3.926203 1_555
Ga1 Rb11 3.926192 1_555
Ga1 Rb8 3.926192 1_556
Ga1 Rb6 3.926203 1_555
Ga1 Rb1 3.926203 1_556
Ga1 Rb0 3.926203 1_555
Ga1 Rb10 3.926203 1_556
Bi0 Ga0 2.697694 1_555
Bi0 Na2 3.560919 1_555
Bi0 Na3 3.560930 1_555
Bi0 Rb8 3.843582 1_565
Bi0 Rb11 3.843582 1_565
Bi0 Rb10 3.843588 1_565
Bi0 Rb0 3.843588 1_565
Bi0 Rb5 4.059071 1_554
Bi0 Rb7 4.059071 1_555
Bi0 Rb3 4.059076 1_554
Bi0 Rb9 4.059076 1_555
Bi1 Ga1 2.697703 1_555
Bi1 Na0 3.560922 1_555
Bi1 Na1 3.560922 1_555
Bi1 Rb9 3.843580 1_555
Bi1 Rb3 3.843580 1_555
Bi1 Rb2 3.843580 1_555
Bi1 Rb4 3.843580 1_555
Bi1 Rb0 4.059070 1_555
Bi1 Rb10 4.059070 1_556
Bi1 Rb1 4.059070 1_556
Bi1 Rb6 4.059070 1_555
Bi2 Ga1 2.697694 1_555
Bi2 Na4 3.560919 1_555
Bi2 Na1 3.560930 1_555
Bi2 Rb7 3.843582 1_655
Bi2 Rb5 3.843582 1_655
Bi2 Rb2 3.843588 1_655
Bi2 Rb4 3.843588 1_655
Bi2 Rb8 4.059071 1_556
Bi2 Rb11 4.059071 1_555
Bi2 Rb1 4.059076 1_556
Bi2 Rb6 4.059076 1_555
Bi3 Ga0 2.697694 1_555
Bi3 Na2 3.560919 1_555
Bi3 Na5 3.560930 1_555
Bi3 Rb8 3.843582 1_455
Bi3 Rb11 3.843582 1_455
Bi3 Rb1 3.843588 1_455
Bi3 Rb6 3.843588 1_455
Bi3 Rb5 4.059071 1_554
Bi3 Rb7 4.059071 1_555
Bi3 Rb4 4.059076 1_554
Bi3 Rb2 4.059076 1_555
Bi4 Ga0 2.697703 1_555
Bi4 Na3 3.560922 1_555
Bi4 Na5 3.560922 1_555
Bi4 Rb10 3.843580 1_555
Bi4 Rb0 3.843580 1_555
Bi4 Rb1 3.843580 1_555
Bi4 Rb6 3.843580 1_555
Bi4 Rb3 4.059070 1_554
Bi4 Rb9 4.059070 1_555
Bi4 Rb4 4.059070 1_554
Bi4 Rb2 4.059070 1_555
Bi5 Ga1 2.697694 1_555
Bi5 Na4 3.560919 1_555
Bi5 Na0 3.560930 1_555
Bi5 Rb7 3.843582 1_545
Bi5 Rb5 3.843582 1_545
Bi5 Rb9 3.843588 1_545
Bi5 Rb3 3.843588 1_545
Bi5 Rb11 4.059071 1_555
Bi5 Rb8 4.059071 1_556
Bi5 Rb0 4.059076 1_555
Bi5 Rb10 4.059076 1_556
Bi6 Na5 3.481100 1_555
Bi6 Na1 3.481100 1_444
Bi6 Na0 3.481100 1_554
Bi6 Na3 3.481100 1_445
Bi6 Na2 3.481105 1_545
Bi6 Na4 3.481105 1_454
Bi6 Rb1 3.882845 1_445
Bi6 Rb4 3.882845 1_554
Bi6 Rb10 3.882846 1_555
Bi6 Rb3 3.882846 1_444
Bi6 Rb5 3.882855 1_544
Bi6 Rb8 3.882855 1_455
Bi7 Na5 3.481100 1_555
Bi7 Na1 3.481100 1_445
Bi7 Na0 3.481100 1_555
Bi7 Na3 3.481100 1_445
Bi7 Na2 3.481105 1_545
Bi7 Na4 3.481105 1_455
Bi7 Rb6 3.882845 1_445
Bi7 Rb2 3.882845 1_555
Bi7 Rb0 3.882846 1_555
Bi7 Rb9 3.882846 1_445
Bi7 Rb11 3.882855 1_455
Bi7 Rb7 3.882855 1_545
