# generated using pymatgen
data_CeSi2Ru3
_symmetry_space_group_name_H-M   'P 1'
_cell_length_a   5.62979433
_cell_length_b   5.62979433
_cell_length_c   3.60080900
_cell_angle_alpha   90.00000000
_cell_angle_beta   90.00000000
_cell_angle_gamma   120.00000385
_symmetry_Int_Tables_number   1
_chemical_formula_structural   CeSi2Ru3
_chemical_formula_sum   'Ce1 Si2 Ru3'
_cell_volume   98.83613604
_cell_formula_units_Z   1
loop_
 _symmetry_equiv_pos_site_id
 _symmetry_equiv_pos_as_xyz
  1  'x, y, z'
loop_
 _atom_site_type_symbol
 _atom_site_label
 _atom_site_symmetry_multiplicity
 _atom_site_fract_x
 _atom_site_fract_y
 _atom_site_fract_z
 _atom_site_occupancy
  Ce  Ce0  1  0.00000000  0.00000000  0.00000000  1
  Si  Si0  1  0.66666700  0.33333300  0.00000000  1
  Si  Si1  1  0.33333300  0.66666700  0.00000000  1
  Ru  Ru0  1  0.50000000  0.00000000  0.50000000  1
  Ru  Ru1  1  0.00000000  0.50000000  0.50000000  1
  Ru  Ru2  1  0.50000000  0.50000000  0.50000000  1
loop_
_geom_bond_atom_site_label_1
_geom_bond_atom_site_label_2
_geom_bond_distance
_geom_bond_site_symmetry_2
Ce0 Si1 3.250360 1_545
Ce0 Si0 3.250360 1_455
Ce0 Si1 3.250365 1_555
Ce0 Si0 3.250365 1_555
Ce0 Si1 3.250365 1_445
Ce0 Si0 3.250365 1_445
Ce0 Ru2 3.341422 1_444
Ce0 Ru2 3.341422 1_445
Ce0 Ru2 3.341422 1_555
Ce0 Ru2 3.341422 1_554
Ce0 Ru0 3.341422 1_554
Ce0 Ru0 3.341422 1_455
Ce0 Ru1 3.341422 1_554
Ce0 Ru0 3.341422 1_454
Ce0 Ru1 3.341422 1_545
Ce0 Ru0 3.341422 1_555
Ce0 Ru1 3.341422 1_544
Ce0 Ru1 3.341422 1_555
Ru0 Si1 2.425421 1_546
Ru0 Si0 2.425421 1_556
Ru0 Si0 2.425421 1_555
Ru0 Si1 2.425421 1_545
Ru1 Si1 2.425421 1_556
Ru1 Si0 2.425421 1_455
Ru1 Si1 2.425421 1_555
Ru1 Si0 2.425421 1_456
Ru2 Si1 2.425424 1_556
Ru2 Si0 2.425424 1_556
Ru2 Si0 2.425424 1_555
Ru2 Si1 2.425424 1_555
