# generated using pymatgen
data_Sc5Cd3InNi2
_symmetry_space_group_name_H-M   'P 1'
_cell_length_a   6.59778018
_cell_length_b   15.11183223
_cell_length_c   34.56670535
_cell_angle_alpha   89.93544786
_cell_angle_beta   90.00000000
_cell_angle_gamma   90.00000000
_symmetry_Int_Tables_number   1
_chemical_formula_structural   Sc5Cd3InNi2
_chemical_formula_sum   'Sc80 Cd48 In16 Ni32'
_cell_volume   3446.45551510
_cell_formula_units_Z   16
loop_
 _symmetry_equiv_pos_site_id
 _symmetry_equiv_pos_as_xyz
  1  'x, y, z'
loop_
 _atom_site_type_symbol
 _atom_site_label
 _atom_site_symmetry_multiplicity
 _atom_site_fract_x
 _atom_site_fract_y
 _atom_site_fract_z
 _atom_site_occupancy
  Sc  Sc0_0  1  0.25000000  0.06274363  0.45566356  1
  Sc  Sc0_1  1  0.25000000  0.06274363  0.95566356  1
  Sc  Sc0_2  1  0.25000000  0.56274363  0.45566356  1
  Sc  Sc0_3  1  0.25000000  0.56274363  0.95566356  1
  Sc  Sc0_4  1  0.75000000  0.06274363  0.45566356  1
  Sc  Sc0_5  1  0.75000000  0.06274363  0.95566356  1
  Sc  Sc0_6  1  0.75000000  0.56274363  0.45566356  1
  Sc  Sc0_7  1  0.75000000  0.56274363  0.95566356  1
  Sc  Sc1_0  1  0.25000000  0.31041517  0.29440612  1
  Sc  Sc1_1  1  0.25000000  0.31041517  0.79440612  1
  Sc  Sc1_2  1  0.25000000  0.81041517  0.29440612  1
  Sc  Sc1_3  1  0.25000000  0.81041517  0.79440612  1
  Sc  Sc1_4  1  0.75000000  0.31041517  0.29440612  1
  Sc  Sc1_5  1  0.75000000  0.31041517  0.79440612  1
  Sc  Sc1_6  1  0.75000000  0.81041517  0.29440612  1
  Sc  Sc1_7  1  0.75000000  0.81041517  0.79440612  1
  Sc  Sc2_0  1  0.25000000  0.18935954  0.20570780  1
  Sc  Sc2_1  1  0.25000000  0.18935954  0.70570780  1
  Sc  Sc2_2  1  0.25000000  0.68935954  0.20570780  1
  Sc  Sc2_3  1  0.25000000  0.68935954  0.70570780  1
  Sc  Sc2_4  1  0.75000000  0.18935954  0.20570780  1
  Sc  Sc2_5  1  0.75000000  0.18935954  0.70570780  1
  Sc  Sc2_6  1  0.75000000  0.68935954  0.20570780  1
  Sc  Sc2_7  1  0.75000000  0.68935954  0.70570780  1
  Sc  Sc3_0  1  0.25000000  0.43960638  0.04419443  1
  Sc  Sc3_1  1  0.25000000  0.43960638  0.54419443  1
  Sc  Sc3_2  1  0.25000000  0.93960638  0.04419443  1
  Sc  Sc3_3  1  0.25000000  0.93960638  0.54419443  1
  Sc  Sc3_4  1  0.75000000  0.43960638  0.04419443  1
  Sc  Sc3_5  1  0.75000000  0.43960638  0.54419443  1
  Sc  Sc3_6  1  0.75000000  0.93960638  0.04419443  1
  Sc  Sc3_7  1  0.75000000  0.93960638  0.54419443  1
  Sc  Sc4_0  1  0.25000000  0.49979245  0.24978467  1
  Sc  Sc4_1  1  0.25000000  0.49979245  0.74978467  1
  Sc  Sc4_2  1  0.25000000  0.99979245  0.24978467  1
  Sc  Sc4_3  1  0.25000000  0.99979245  0.74978467  1
  Sc  Sc4_4  1  0.75000000  0.49979245  0.24978467  1
  Sc  Sc4_5  1  0.75000000  0.49979245  0.74978467  1
  Sc  Sc4_6  1  0.75000000  0.99979245  0.24978467  1
  Sc  Sc4_7  1  0.75000000  0.99979245  0.74978467  1
  Sc  Sc5_0  1  0.25000000  0.37871168  0.38926701  1
  Sc  Sc5_1  1  0.25000000  0.37871168  0.88926701  1
  Sc  Sc5_2  1  0.25000000  0.87871168  0.38926701  1
  Sc  Sc5_3  1  0.25000000  0.87871168  0.88926701  1
  Sc  Sc5_4  1  0.75000000  0.37871168  0.38926701  1
  Sc  Sc5_5  1  0.75000000  0.37871168  0.88926701  1
  Sc  Sc5_6  1  0.75000000  0.87871168  0.38926701  1
  Sc  Sc5_7  1  0.75000000  0.87871168  0.88926701  1
  Sc  Sc6_0  1  0.25000000  0.37119564  0.14010860  1
  Sc  Sc6_1  1  0.25000000  0.37119564  0.64010860  1
  Sc  Sc6_2  1  0.25000000  0.87119564  0.14010860  1
  Sc  Sc6_3  1  0.25000000  0.87119564  0.64010860  1
  Sc  Sc6_4  1  0.75000000  0.37119564  0.14010860  1
  Sc  Sc6_5  1  0.75000000  0.37119564  0.64010860  1
  Sc  Sc6_6  1  0.75000000  0.87119564  0.14010860  1
  Sc  Sc6_7  1  0.75000000  0.87119564  0.64010860  1
  Sc  Sc7_0  1  0.25000000  0.12924497  0.36048530  1
  Sc  Sc7_1  1  0.25000000  0.12924497  0.86048530  1
  Sc  Sc7_2  1  0.25000000  0.62924497  0.36048530  1
  Sc  Sc7_3  1  0.25000000  0.62924497  0.86048530  1
  Sc  Sc7_4  1  0.75000000  0.12924497  0.36048530  1
  Sc  Sc7_5  1  0.75000000  0.12924497  0.86048530  1
  Sc  Sc7_6  1  0.75000000  0.62924497  0.36048530  1
  Sc  Sc7_7  1  0.75000000  0.62924497  0.86048530  1
  Sc  Sc8_0  1  0.25000000  0.25005777  0.00031748  1
  Sc  Sc8_1  1  0.25000000  0.25005777  0.50031748  1
  Sc  Sc8_2  1  0.25000000  0.75005777  0.00031748  1
  Sc  Sc8_3  1  0.25000000  0.75005777  0.50031748  1
  Sc  Sc8_4  1  0.75000000  0.25005777  0.00031748  1
  Sc  Sc8_5  1  0.75000000  0.25005777  0.50031748  1
  Sc  Sc8_6  1  0.75000000  0.75005777  0.00031748  1
  Sc  Sc8_7  1  0.75000000  0.75005777  0.50031748  1
  Sc  Sc9_0  1  0.25000000  0.11992094  0.11006731  1
  Sc  Sc9_1  1  0.25000000  0.11992094  0.61006731  1
  Sc  Sc9_2  1  0.25000000  0.61992094  0.11006731  1
  Sc  Sc9_3  1  0.25000000  0.61992094  0.61006731  1
  Sc  Sc9_4  1  0.75000000  0.11992094  0.11006731  1
  Sc  Sc9_5  1  0.75000000  0.11992094  0.61006731  1
  Sc  Sc9_6  1  0.75000000  0.61992094  0.11006731  1
  Sc  Sc9_7  1  0.75000000  0.61992094  0.61006731  1
  Cd  Cd0_0  1  0.00000000  0.10125642  0.03357205  1
  Cd  Cd0_1  1  0.00000000  0.10125642  0.53357205  1
  Cd  Cd0_2  1  0.00000000  0.60125642  0.03357205  1
  Cd  Cd0_3  1  0.00000000  0.60125642  0.53357205  1
  Cd  Cd0_4  1  0.50000000  0.10125642  0.03357205  1
  Cd  Cd0_5  1  0.50000000  0.10125642  0.53357205  1
  Cd  Cd0_6  1  0.50000000  0.60125642  0.03357205  1
  Cd  Cd0_7  1  0.50000000  0.60125642  0.53357205  1
  Cd  Cd1_0  1  0.00000000  0.35200178  0.21578187  1
  Cd  Cd1_1  1  0.00000000  0.35200178  0.71578187  1
  Cd  Cd1_2  1  0.00000000  0.85200178  0.21578187  1
  Cd  Cd1_3  1  0.00000000  0.85200178  0.71578187  1
  Cd  Cd1_4  1  0.50000000  0.35200178  0.21578187  1
  Cd  Cd1_5  1  0.50000000  0.35200178  0.71578187  1
  Cd  Cd1_6  1  0.50000000  0.85200178  0.21578187  1
  Cd  Cd1_7  1  0.50000000  0.85200178  0.71578187  1
  Cd  Cd2_0  1  0.00000000  0.46747109  0.32515175  1
  Cd  Cd2_1  1  0.00000000  0.46747109  0.82515175  1
  Cd  Cd2_2  1  0.00000000  0.96747109  0.32515175  1
  Cd  Cd2_3  1  0.00000000  0.96747109  0.82515175  1
  Cd  Cd2_4  1  0.50000000  0.46747109  0.32515175  1
  Cd  Cd2_5  1  0.50000000  0.46747109  0.82515175  1
  Cd  Cd2_6  1  0.50000000  0.96747109  0.32515175  1
  Cd  Cd2_7  1  0.50000000  0.96747109  0.82515175  1
  Cd  Cd3_0  1  0.00000000  0.03323618  0.17466322  1
  Cd  Cd3_1  1  0.00000000  0.03323618  0.67466322  1
  Cd  Cd3_2  1  0.00000000  0.53323618  0.17466322  1
  Cd  Cd3_3  1  0.00000000  0.53323618  0.67466322  1
  Cd  Cd3_4  1  0.50000000  0.03323618  0.17466322  1
  Cd  Cd3_5  1  0.50000000  0.03323618  0.67466322  1
  Cd  Cd3_6  1  0.50000000  0.53323618  0.17466322  1
  Cd  Cd3_7  1  0.50000000  0.53323618  0.67466322  1
  Cd  Cd4_0  1  0.00000000  0.14757828  0.28422644  1
  Cd  Cd4_1  1  0.00000000  0.14757828  0.78422644  1
  Cd  Cd4_2  1  0.00000000  0.64757828  0.28422644  1
  Cd  Cd4_3  1  0.00000000  0.64757828  0.78422644  1
  Cd  Cd4_4  1  0.50000000  0.14757828  0.28422644  1
  Cd  Cd4_5  1  0.50000000  0.14757828  0.78422644  1
  Cd  Cd4_6  1  0.50000000  0.64757828  0.28422644  1
  Cd  Cd4_7  1  0.50000000  0.64757828  0.78422644  1
  Cd  Cd5_0  1  0.00000000  0.21783645  0.42474113  1
  Cd  Cd5_1  1  0.00000000  0.21783645  0.92474113  1
  Cd  Cd5_2  1  0.00000000  0.71783645  0.42474113  1
  Cd  Cd5_3  1  0.00000000  0.71783645  0.92474113  1
  Cd  Cd5_4  1  0.50000000  0.21783645  0.42474113  1
  Cd  Cd5_5  1  0.50000000  0.21783645  0.92474113  1
  Cd  Cd5_6  1  0.50000000  0.71783645  0.42474113  1
  Cd  Cd5_7  1  0.50000000  0.71783645  0.92474113  1
  In  In0_0  1  0.00000000  0.28299368  0.07565103  1
  In  In0_1  1  0.00000000  0.28299368  0.57565103  1
  In  In0_2  1  0.00000000  0.78299368  0.07565103  1
  In  In0_3  1  0.00000000  0.78299368  0.57565103  1
  In  In0_4  1  0.50000000  0.28299368  0.07565103  1
  In  In0_5  1  0.50000000  0.28299368  0.57565103  1
  In  In0_6  1  0.50000000  0.78299368  0.07565103  1
  In  In0_7  1  0.50000000  0.78299368  0.57565103  1
  In  In1_0  1  0.00000000  0.39902572  0.46620109  1
  In  In1_1  1  0.00000000  0.39902572  0.96620109  1
  In  In1_2  1  0.00000000  0.89902572  0.46620109  1
  In  In1_3  1  0.00000000  0.89902572  0.96620109  1
  In  In1_4  1  0.50000000  0.39902572  0.46620109  1
  In  In1_5  1  0.50000000  0.39902572  0.96620109  1
  In  In1_6  1  0.50000000  0.89902572  0.46620109  1
  In  In1_7  1  0.50000000  0.89902572  0.96620109  1
  Ni  Ni0_0  1  0.00000000  0.22894505  0.15174877  1
  Ni  Ni0_1  1  0.00000000  0.22894505  0.65174877  1
  Ni  Ni0_2  1  0.00000000  0.72894505  0.15174877  1
  Ni  Ni0_3  1  0.00000000  0.72894505  0.65174877  1
  Ni  Ni0_4  1  0.50000000  0.22894505  0.15174877  1
  Ni  Ni0_5  1  0.50000000  0.22894505  0.65174877  1
  Ni  Ni0_6  1  0.50000000  0.72894505  0.15174877  1
  Ni  Ni0_7  1  0.50000000  0.72894505  0.65174877  1
  Ni  Ni1_0  1  0.00000000  0.27061386  0.34804161  1
  Ni  Ni1_1  1  0.00000000  0.27061386  0.84804161  1
  Ni  Ni1_2  1  0.00000000  0.77061386  0.34804161  1
  Ni  Ni1_3  1  0.00000000  0.77061386  0.84804161  1
  Ni  Ni1_4  1  0.50000000  0.27061386  0.34804161  1
  Ni  Ni1_5  1  0.50000000  0.27061386  0.84804161  1
  Ni  Ni1_6  1  0.50000000  0.77061386  0.34804161  1
  Ni  Ni1_7  1  0.50000000  0.77061386  0.84804161  1
  Ni  Ni2_0  1  0.00000000  0.01941884  0.40214073  1
  Ni  Ni2_1  1  0.00000000  0.01941884  0.90214073  1
  Ni  Ni2_2  1  0.00000000  0.51941884  0.40214073  1
  Ni  Ni2_3  1  0.00000000  0.51941884  0.90214073  1
  Ni  Ni2_4  1  0.50000000  0.01941884  0.40214073  1
  Ni  Ni2_5  1  0.50000000  0.01941884  0.90214073  1
  Ni  Ni2_6  1  0.50000000  0.51941884  0.40214073  1
  Ni  Ni2_7  1  0.50000000  0.51941884  0.90214073  1
  Ni  Ni3_0  1  0.00000000  0.47857347  0.09807753  1
  Ni  Ni3_1  1  0.00000000  0.47857347  0.59807753  1
  Ni  Ni3_2  1  0.00000000  0.97857347  0.09807753  1
  Ni  Ni3_3  1  0.00000000  0.97857347  0.59807753  1
  Ni  Ni3_4  1  0.50000000  0.47857347  0.09807753  1
  Ni  Ni3_5  1  0.50000000  0.47857347  0.59807753  1
  Ni  Ni3_6  1  0.50000000  0.97857347  0.09807753  1
  Ni  Ni3_7  1  0.50000000  0.97857347  0.59807753  1
loop_
_geom_bond_atom_site_label_1
_geom_bond_atom_site_label_2
_geom_bond_distance
_geom_bond_site_symmetry_2
Sc0_0 Sc8_1 3.225677 1_555
Sc0_1 Sc8_0 3.225677 1_556
Sc0_2 Sc8_3 3.225677 1_555
Sc0_3 Sc8_2 3.225677 1_556
Sc0_4 Sc8_5 3.225677 1_555
Sc0_5 Sc8_4 3.225677 1_556
Sc0_6 Sc8_7 3.225677 1_555
Sc0_7 Sc8_6 3.225677 1_556
Sc1_0 Sc4_0 3.249495 1_555
Sc1_1 Sc4_1 3.249495 1_555
Sc1_2 Sc4_2 3.249495 1_555
Sc1_3 Sc4_3 3.249495 1_555
Sc1_4 Sc4_4 3.249495 1_555
Sc1_5 Sc4_5 3.249495 1_555
Sc1_6 Sc4_6 3.249495 1_555
Sc1_7 Sc4_7 3.249495 1_555
Sc2_0 Sc4_2 3.243153 1_545
Sc2_1 Sc4_3 3.243153 1_545
Sc2_2 Sc4_0 3.243153 1_555
Sc2_3 Sc4_1 3.243153 1_555
Sc2_4 Sc4_6 3.243153 1_545
Sc2_5 Sc4_7 3.243153 1_545
Sc2_6 Sc4_4 3.243153 1_555
Sc2_7 Sc4_5 3.243153 1_555
Sc3_0 Sc8_0 3.242692 1_555
Sc3_1 Sc8_1 3.242692 1_555
Sc3_2 Sc8_2 3.242692 1_555
Sc3_3 Sc8_3 3.242692 1_555
Sc3_4 Sc8_4 3.242692 1_555
Sc3_5 Sc8_5 3.242692 1_555
Sc3_6 Sc8_6 3.242692 1_555
Sc3_7 Sc8_7 3.242692 1_555
Sc4_0 Sc4_4 3.298890 1_455
Sc4_0 Sc4_4 3.298890 1_555
Sc4_1 Sc4_5 3.298890 1_555
Sc4_1 Sc4_5 3.298890 1_455
Sc4_2 Sc4_6 3.298890 1_455
Sc4_2 Sc4_6 3.298890 1_555
Sc4_3 Sc4_7 3.298890 1_455
Sc4_3 Sc4_7 3.298890 1_555
Sc8_0 Sc8_4 3.298890 1_455
Sc8_0 Sc8_4 3.298890 1_555
Sc8_1 Sc8_5 3.298890 1_555
Sc8_1 Sc8_5 3.298890 1_455
Sc8_2 Sc8_6 3.298890 1_455
Sc8_2 Sc8_6 3.298890 1_555
Sc8_3 Sc8_7 3.298890 1_455
Sc8_3 Sc8_7 3.298890 1_555
Cd0_0 Ni3_2 2.898209 1_545
Cd0_0 Sc3_6 2.969997 1_445
Cd0_0 Sc3_2 2.969997 1_545
Cd0_0 Sc8_4 3.015406 1_455
Cd0_0 Sc8_0 3.015406 1_555
Cd0_0 In0_0 3.109225 1_555
Cd0_0 Sc9_4 3.129479 1_455
Cd0_0 Sc9_0 3.129479 1_555
Cd0_0 Sc0_5 3.211758 1_454
Cd0_0 Sc0_1 3.211758 1_554
Cd0_0 Cd0_4 3.298890 1_555
Cd0_0 Cd0_4 3.298890 1_455
Cd0_1 Ni3_3 2.898209 1_545
Cd0_1 Sc3_3 2.969997 1_545
Cd0_1 Sc3_7 2.969997 1_445
Cd0_1 Sc8_5 3.015406 1_455
Cd0_1 Sc8_1 3.015406 1_555
Cd0_1 In0_1 3.109225 1_555
Cd0_1 Sc9_5 3.129479 1_455
Cd0_1 Sc9_1 3.129479 1_555
Cd0_1 Sc0_0 3.211758 1_555
Cd0_1 Sc0_4 3.211758 1_455
Cd0_1 Cd0_5 3.298890 1_555
Cd0_1 Cd0_5 3.298890 1_455
Cd0_2 Ni3_0 2.898209 1_555
Cd0_2 Sc3_0 2.969997 1_555
Cd0_2 Sc3_4 2.969997 1_455
Cd0_2 Sc8_6 3.015406 1_455
Cd0_2 Sc8_2 3.015406 1_555
Cd0_2 In0_2 3.109225 1_555
Cd0_2 Sc9_2 3.129479 1_555
Cd0_2 Sc9_6 3.129479 1_455
Cd0_2 Sc0_3 3.211758 1_554
Cd0_2 Sc0_7 3.211758 1_454
Cd0_2 Cd0_6 3.298890 1_555
Cd0_2 Cd0_6 3.298890 1_455
Cd0_3 Ni3_1 2.898209 1_555
Cd0_3 Sc3_1 2.969997 1_555
Cd0_3 Sc3_5 2.969997 1_455
Cd0_3 Sc8_3 3.015406 1_555
Cd0_3 Sc8_7 3.015406 1_455
Cd0_3 In0_3 3.109225 1_555
Cd0_3 Sc9_3 3.129479 1_555
Cd0_3 Sc9_7 3.129479 1_455
Cd0_3 Sc0_6 3.211758 1_455
Cd0_3 Sc0_2 3.211758 1_555
Cd0_3 Cd0_7 3.298890 1_455
Cd0_3 Cd0_7 3.298890 1_555
Cd0_4 Ni3_6 2.898209 1_545
Cd0_4 Sc3_6 2.969997 1_545
Cd0_4 Sc3_2 2.969997 1_545
Cd0_4 Sc8_0 3.015406 1_555
Cd0_4 Sc8_4 3.015406 1_555
Cd0_4 In0_4 3.109225 1_555
Cd0_4 Sc9_0 3.129479 1_555
Cd0_4 Sc9_4 3.129479 1_555
Cd0_4 Sc0_1 3.211758 1_554
Cd0_4 Sc0_5 3.211758 1_554
Cd0_5 Ni3_7 2.898209 1_545
Cd0_5 Sc3_3 2.969997 1_545
Cd0_5 Sc3_7 2.969997 1_545
Cd0_5 Sc8_5 3.015406 1_555
Cd0_5 Sc8_1 3.015406 1_555
Cd0_5 In0_5 3.109225 1_555
Cd0_5 Sc9_1 3.129479 1_555
Cd0_5 Sc9_5 3.129479 1_555
Cd0_5 Sc0_4 3.211758 1_555
Cd0_5 Sc0_0 3.211758 1_555
Cd0_6 Ni3_4 2.898209 1_555
Cd0_6 Sc3_0 2.969997 1_555
Cd0_6 Sc3_4 2.969997 1_555
Cd0_6 Sc8_6 3.015406 1_555
Cd0_6 Sc8_2 3.015406 1_555
Cd0_6 In0_6 3.109225 1_555
Cd0_6 Sc9_2 3.129479 1_555
Cd0_6 Sc9_6 3.129479 1_555
Cd0_6 Sc0_3 3.211758 1_554
Cd0_6 Sc0_7 3.211758 1_554
Cd0_7 Ni3_5 2.898209 1_555
Cd0_7 Sc3_1 2.969997 1_555
Cd0_7 Sc3_5 2.969997 1_555
Cd0_7 Sc8_3 3.015406 1_555
Cd0_7 Sc8_7 3.015406 1_555
Cd0_7 In0_7 3.109225 1_555
Cd0_7 Sc9_3 3.129479 1_555
Cd0_7 Sc9_7 3.129479 1_555
Cd0_7 Sc0_2 3.211758 1_555
Cd0_7 Sc0_6 3.211758 1_555
Cd1_0 Ni0_0 2.892513 1_555
Cd1_0 Sc2_0 2.980730 1_555
Cd1_0 Sc2_4 2.980730 1_455
Cd1_0 Sc4_0 3.015972 1_555
Cd1_0 Sc4_4 3.015972 1_455
Cd1_0 Cd3_2 3.084212 1_555
Cd1_0 Sc6_0 3.105700 1_555
Cd1_0 Sc6_4 3.105700 1_455
Cd1_0 Sc1_4 3.240078 1_455
Cd1_0 Sc1_0 3.240078 1_555
Cd1_0 Cd1_4 3.298890 1_455
Cd1_0 Cd1_4 3.298890 1_555
Cd1_1 Ni0_1 2.892513 1_555
Cd1_1 Sc2_1 2.980730 1_555
Cd1_1 Sc2_5 2.980730 1_455
Cd1_1 Sc4_1 3.015972 1_555
Cd1_1 Sc4_5 3.015972 1_455
Cd1_1 Cd3_3 3.084212 1_555
Cd1_1 Sc6_1 3.105700 1_555
Cd1_1 Sc6_5 3.105700 1_455
Cd1_1 Sc1_5 3.240078 1_455
Cd1_1 Sc1_1 3.240078 1_555
Cd1_1 Cd1_5 3.298890 1_455
Cd1_1 Cd1_5 3.298890 1_555
Cd1_2 Ni0_2 2.892513 1_555
Cd1_2 Sc2_2 2.980730 1_555
Cd1_2 Sc2_6 2.980730 1_455
Cd1_2 Sc4_2 3.015972 1_555
Cd1_2 Sc4_6 3.015972 1_455
Cd1_2 Cd3_0 3.084212 1_565
Cd1_2 Sc6_6 3.105700 1_455
Cd1_2 Sc6_2 3.105700 1_555
Cd1_2 Sc1_6 3.240078 1_455
Cd1_2 Sc1_2 3.240078 1_555
Cd1_2 Cd1_6 3.298890 1_555
Cd1_2 Cd1_6 3.298890 1_455
Cd1_3 Ni0_3 2.892513 1_555
Cd1_3 Sc2_7 2.980730 1_455
Cd1_3 Sc2_3 2.980730 1_555
Cd1_3 Sc4_7 3.015972 1_455
Cd1_3 Sc4_3 3.015972 1_555
Cd1_3 Cd3_1 3.084212 1_565
Cd1_3 Sc6_7 3.105700 1_455
Cd1_3 Sc6_3 3.105700 1_555
Cd1_3 Sc1_7 3.240078 1_455
Cd1_3 Sc1_3 3.240078 1_555
Cd1_3 Cd1_7 3.298890 1_455
Cd1_3 Cd1_7 3.298890 1_555
Cd1_4 Ni0_4 2.892513 1_555
Cd1_4 Sc2_0 2.980730 1_555
Cd1_4 Sc2_4 2.980730 1_555
Cd1_4 Sc4_0 3.015972 1_555
Cd1_4 Sc4_4 3.015972 1_555
Cd1_4 Cd3_6 3.084212 1_555
Cd1_4 Sc6_0 3.105700 1_555
Cd1_4 Sc6_4 3.105700 1_555
Cd1_4 Sc1_4 3.240078 1_555
Cd1_4 Sc1_0 3.240078 1_555
Cd1_5 Ni0_5 2.892513 1_555
Cd1_5 Sc2_1 2.980730 1_555
Cd1_5 Sc2_5 2.980730 1_555
Cd1_5 Sc4_5 3.015972 1_555
Cd1_5 Sc4_1 3.015972 1_555
Cd1_5 Cd3_7 3.084212 1_555
Cd1_5 Sc6_5 3.105700 1_555
Cd1_5 Sc6_1 3.105700 1_555
Cd1_5 Sc1_5 3.240078 1_555
Cd1_5 Sc1_1 3.240078 1_555
Cd1_6 Ni0_6 2.892513 1_555
Cd1_6 Sc2_6 2.980730 1_555
Cd1_6 Sc2_2 2.980730 1_555
Cd1_6 Sc4_2 3.015972 1_555
Cd1_6 Sc4_6 3.015972 1_555
Cd1_6 Cd3_4 3.084212 1_565
Cd1_6 Sc6_2 3.105700 1_555
Cd1_6 Sc6_6 3.105700 1_555
Cd1_6 Sc1_2 3.240078 1_555
Cd1_6 Sc1_6 3.240078 1_555
Cd1_7 Ni0_7 2.892513 1_555
Cd1_7 Sc2_7 2.980730 1_555
Cd1_7 Sc2_3 2.980730 1_555
Cd1_7 Sc4_7 3.015972 1_555
Cd1_7 Sc4_3 3.015972 1_555
Cd1_7 Cd3_5 3.084212 1_565
Cd1_7 Sc6_7 3.105700 1_555
Cd1_7 Sc6_3 3.105700 1_555
Cd1_7 Sc1_3 3.240078 1_555
Cd1_7 Sc1_7 3.240078 1_555
Cd2_0 Ni2_2 2.775474 1_555
Cd2_0 Cd4_2 3.066022 1_555
Cd2_0 Sc5_4 3.069997 1_455
Cd2_0 Sc5_0 3.069997 1_555
Cd2_0 Ni1_0 3.077435 1_555
Cd2_0 Sc1_4 3.080403 1_455
Cd2_0 Sc1_0 3.080403 1_555
Cd2_0 Sc4_0 3.121441 1_555
Cd2_0 Sc4_4 3.121441 1_455
Cd2_0 Sc7_6 3.193068 1_455
Cd2_0 Sc7_2 3.193068 1_555
Cd2_0 Cd2_4 3.298890 1_555
Cd2_0 Cd2_4 3.298890 1_455
Cd2_1 Ni2_3 2.775474 1_555
Cd2_1 Cd4_3 3.066022 1_555
Cd2_1 Sc5_1 3.069997 1_555
Cd2_1 Sc5_5 3.069997 1_455
Cd2_1 Ni1_1 3.077435 1_555
Cd2_1 Sc1_1 3.080403 1_555
Cd2_1 Sc1_5 3.080403 1_455
Cd2_1 Sc4_1 3.121441 1_555
Cd2_1 Sc4_5 3.121441 1_455
Cd2_1 Sc7_3 3.193068 1_555
Cd2_1 Sc7_7 3.193068 1_455
Cd2_1 Cd2_5 3.298890 1_555
Cd2_1 Cd2_5 3.298890 1_455
Cd2_2 Ni2_0 2.775474 1_565
Cd2_2 Cd4_0 3.066022 1_565
Cd2_2 Sc5_2 3.069997 1_555
Cd2_2 Sc5_6 3.069997 1_455
Cd2_2 Ni1_2 3.077435 1_555
Cd2_2 Sc1_6 3.080403 1_455
Cd2_2 Sc1_2 3.080403 1_555
Cd2_2 Sc4_2 3.121441 1_555
Cd2_2 Sc4_6 3.121441 1_455
Cd2_2 Sc7_0 3.193068 1_565
Cd2_2 Sc7_4 3.193068 1_465
Cd2_2 Cd2_6 3.298890 1_455
Cd2_2 Cd2_6 3.298890 1_555
Cd2_3 Ni2_1 2.775474 1_565
Cd2_3 Cd4_1 3.066022 1_565
Cd2_3 Sc5_3 3.069997 1_555
Cd2_3 Sc5_7 3.069997 1_455
Cd2_3 Ni1_3 3.077435 1_555
Cd2_3 Sc1_7 3.080403 1_455
Cd2_3 Sc1_3 3.080403 1_555
Cd2_3 Sc4_3 3.121441 1_555
Cd2_3 Sc4_7 3.121441 1_455
Cd2_3 Sc7_5 3.193068 1_465
Cd2_3 Sc7_1 3.193068 1_565
Cd2_3 Cd2_7 3.298890 1_455
Cd2_3 Cd2_7 3.298890 1_555
Cd2_4 Ni2_6 2.775474 1_555
Cd2_4 Cd4_6 3.066022 1_555
Cd2_4 Sc5_4 3.069997 1_555
Cd2_4 Sc5_0 3.069997 1_555
Cd2_4 Ni1_4 3.077435 1_555
Cd2_4 Sc1_0 3.080403 1_555
Cd2_4 Sc1_4 3.080403 1_555
Cd2_4 Sc4_0 3.121441 1_555
Cd2_4 Sc4_4 3.121441 1_555
Cd2_4 Sc7_6 3.193068 1_555
Cd2_4 Sc7_2 3.193068 1_555
Cd2_5 Ni2_7 2.775474 1_555
Cd2_5 Cd4_7 3.066022 1_555
Cd2_5 Sc5_5 3.069997 1_555
Cd2_5 Sc5_1 3.069997 1_555
Cd2_5 Ni1_5 3.077435 1_555
Cd2_5 Sc1_5 3.080403 1_555
Cd2_5 Sc1_1 3.080403 1_555
Cd2_5 Sc4_1 3.121441 1_555
Cd2_5 Sc4_5 3.121441 1_555
Cd2_5 Sc7_3 3.193068 1_555
Cd2_5 Sc7_7 3.193068 1_555
Cd2_6 Ni2_4 2.775474 1_565
Cd2_6 Cd4_4 3.066022 1_565
Cd2_6 Sc5_6 3.069997 1_555
Cd2_6 Sc5_2 3.069997 1_555
Cd2_6 Ni1_6 3.077435 1_555
Cd2_6 Sc1_2 3.080403 1_555
Cd2_6 Sc1_6 3.080403 1_555
Cd2_6 Sc4_2 3.121441 1_555
Cd2_6 Sc4_6 3.121441 1_555
Cd2_6 Sc7_0 3.193068 1_565
Cd2_6 Sc7_4 3.193068 1_565
Cd2_7 Ni2_5 2.775474 1_565
Cd2_7 Cd4_5 3.066022 1_565
Cd2_7 Sc5_3 3.069997 1_555
Cd2_7 Sc5_7 3.069997 1_555
Cd2_7 Ni1_7 3.077435 1_555
Cd2_7 Sc1_3 3.080403 1_555
Cd2_7 Sc1_7 3.080403 1_555
Cd2_7 Sc4_7 3.121441 1_555
Cd2_7 Sc4_3 3.121441 1_555
Cd2_7 Sc7_1 3.193068 1_565
Cd2_7 Sc7_5 3.193068 1_565
Cd3_0 Ni3_2 2.774089 1_545
Cd3_0 Ni0_0 3.060887 1_555
Cd3_0 Sc9_4 3.068515 1_455
Cd3_0 Sc9_0 3.068515 1_555
Cd3_0 Sc2_0 3.073155 1_555
Cd3_0 Sc2_4 3.073155 1_455
Cd3_0 Sc4_6 3.117049 1_445
Cd3_0 Sc4_2 3.117049 1_545
Cd3_0 Sc6_2 3.185941 1_545
Cd3_0 Sc6_6 3.185941 1_445
Cd3_0 Cd3_4 3.298890 1_455
Cd3_0 Cd3_4 3.298890 1_555
Cd3_1 Ni3_3 2.774089 1_545
Cd3_1 Ni0_1 3.060887 1_555
Cd3_1 Sc9_5 3.068515 1_455
Cd3_1 Sc9_1 3.068515 1_555
Cd3_1 Sc2_1 3.073155 1_555
Cd3_1 Sc2_5 3.073155 1_455
Cd3_1 Sc4_3 3.117049 1_545
Cd3_1 Sc4_7 3.117049 1_445
Cd3_1 Sc6_7 3.185941 1_445
Cd3_1 Sc6_3 3.185941 1_545
Cd3_1 Cd3_5 3.298890 1_455
Cd3_1 Cd3_5 3.298890 1_555
Cd3_2 Ni3_0 2.774089 1_555
Cd3_2 Ni0_2 3.060887 1_555
Cd3_2 Sc9_2 3.068515 1_555
Cd3_2 Sc9_6 3.068515 1_455
Cd3_2 Sc2_2 3.073155 1_555
Cd3_2 Sc2_6 3.073155 1_455
Cd3_2 Sc4_0 3.117049 1_555
Cd3_2 Sc4_4 3.117049 1_455
Cd3_2 Sc6_4 3.185941 1_455
Cd3_2 Sc6_0 3.185941 1_555
Cd3_2 Cd3_6 3.298890 1_555
Cd3_2 Cd3_6 3.298890 1_455
Cd3_3 Ni3_1 2.774089 1_555
Cd3_3 Ni0_3 3.060887 1_555
Cd3_3 Sc9_7 3.068515 1_455
Cd3_3 Sc9_3 3.068515 1_555
Cd3_3 Sc2_7 3.073155 1_455
Cd3_3 Sc2_3 3.073155 1_555
Cd3_3 Sc4_1 3.117049 1_555
Cd3_3 Sc4_5 3.117049 1_455
Cd3_3 Sc6_5 3.185941 1_455
Cd3_3 Sc6_1 3.185941 1_555
Cd3_3 Cd3_7 3.298890 1_455
Cd3_3 Cd3_7 3.298890 1_555
Cd3_4 Ni3_6 2.774089 1_545
Cd3_4 Ni0_4 3.060887 1_555
Cd3_4 Sc9_0 3.068515 1_555
Cd3_4 Sc9_4 3.068515 1_555
Cd3_4 Sc2_0 3.073155 1_555
Cd3_4 Sc2_4 3.073155 1_555
Cd3_4 Sc4_6 3.117049 1_545
Cd3_4 Sc4_2 3.117049 1_545
Cd3_4 Sc6_2 3.185941 1_545
Cd3_4 Sc6_6 3.185941 1_545
Cd3_5 Ni3_7 2.774089 1_545
Cd3_5 Ni0_5 3.060887 1_555
Cd3_5 Sc9_1 3.068515 1_555
Cd3_5 Sc9_5 3.068515 1_555
Cd3_5 Sc2_1 3.073155 1_555
Cd3_5 Sc2_5 3.073155 1_555
Cd3_5 Sc4_3 3.117049 1_545
Cd3_5 Sc4_7 3.117049 1_545
Cd3_5 Sc6_7 3.185941 1_545
Cd3_5 Sc6_3 3.185941 1_545
Cd3_6 Ni3_4 2.774089 1_555
Cd3_6 Ni0_6 3.060887 1_555
Cd3_6 Sc9_2 3.068515 1_555
Cd3_6 Sc9_6 3.068515 1_555
Cd3_6 Sc2_6 3.073155 1_555
Cd3_6 Sc2_2 3.073155 1_555
Cd3_6 Sc4_0 3.117049 1_555
Cd3_6 Sc4_4 3.117049 1_555
Cd3_6 Sc6_0 3.185941 1_555
Cd3_6 Sc6_4 3.185941 1_555
Cd3_7 Ni3_5 2.774089 1_555
Cd3_7 Ni0_7 3.060887 1_555
Cd3_7 Sc9_7 3.068515 1_555
Cd3_7 Sc9_3 3.068515 1_555
Cd3_7 Sc2_7 3.073155 1_555
Cd3_7 Sc2_3 3.073155 1_555
Cd3_7 Sc4_1 3.117049 1_555
Cd3_7 Sc4_5 3.117049 1_555
Cd3_7 Sc6_5 3.185941 1_555
Cd3_7 Sc6_1 3.185941 1_555
Cd4_0 Ni1_0 2.886541 1_555
Cd4_0 Sc1_4 2.983588 1_455
Cd4_0 Sc1_0 2.983588 1_555
Cd4_0 Sc4_2 3.021876 1_545
Cd4_0 Sc4_6 3.021876 1_445
Cd4_0 Sc7_0 3.121597 1_555
Cd4_0 Sc7_4 3.121597 1_455
Cd4_0 Sc2_0 3.237587 1_555
Cd4_0 Sc2_4 3.237587 1_455
Cd4_0 Cd4_4 3.298890 1_455
Cd4_0 Cd4_4 3.298890 1_555
Cd4_1 Ni1_1 2.886541 1_555
Cd4_1 Sc1_1 2.983588 1_555
Cd4_1 Sc1_5 2.983588 1_455
Cd4_1 Sc4_3 3.021876 1_545
Cd4_1 Sc4_7 3.021876 1_445
Cd4_1 Sc7_1 3.121597 1_555
Cd4_1 Sc7_5 3.121597 1_455
Cd4_1 Sc2_1 3.237587 1_555
Cd4_1 Sc2_5 3.237587 1_455
Cd4_1 Cd4_5 3.298890 1_455
Cd4_1 Cd4_5 3.298890 1_555
Cd4_2 Ni1_2 2.886541 1_555
Cd4_2 Sc1_6 2.983588 1_455
Cd4_2 Sc1_2 2.983588 1_555
Cd4_2 Sc4_0 3.021876 1_555
Cd4_2 Sc4_4 3.021876 1_455
Cd4_2 Sc7_2 3.121597 1_555
Cd4_2 Sc7_6 3.121597 1_455
Cd4_2 Sc2_6 3.237587 1_455
Cd4_2 Sc2_2 3.237587 1_555
Cd4_2 Cd4_6 3.298890 1_555
Cd4_2 Cd4_6 3.298890 1_455
Cd4_3 Ni1_3 2.886541 1_555
Cd4_3 Sc1_7 2.983588 1_455
Cd4_3 Sc1_3 2.983588 1_555
Cd4_3 Sc4_1 3.021876 1_555
Cd4_3 Sc4_5 3.021876 1_455
Cd4_3 Sc7_3 3.121597 1_555
Cd4_3 Sc7_7 3.121597 1_455
Cd4_3 Sc2_7 3.237587 1_455
Cd4_3 Sc2_3 3.237587 1_555
Cd4_3 Cd4_7 3.298890 1_555
Cd4_3 Cd4_7 3.298890 1_455
Cd4_4 Ni1_4 2.886541 1_555
Cd4_4 Sc1_0 2.983588 1_555
Cd4_4 Sc1_4 2.983588 1_555
Cd4_4 Sc4_2 3.021876 1_545
Cd4_4 Sc4_6 3.021876 1_545
Cd4_4 Sc7_0 3.121597 1_555
Cd4_4 Sc7_4 3.121597 1_555
Cd4_4 Sc2_0 3.237587 1_555
Cd4_4 Sc2_4 3.237587 1_555
Cd4_5 Ni1_5 2.886541 1_555
Cd4_5 Sc1_1 2.983588 1_555
Cd4_5 Sc1_5 2.983588 1_555
Cd4_5 Sc4_7 3.021876 1_545
Cd4_5 Sc4_3 3.021876 1_545
Cd4_5 Sc7_1 3.121597 1_555
Cd4_5 Sc7_5 3.121597 1_555
Cd4_5 Sc2_1 3.237587 1_555
Cd4_5 Sc2_5 3.237587 1_555
Cd4_6 Ni1_6 2.886541 1_555
Cd4_6 Sc1_2 2.983588 1_555
Cd4_6 Sc1_6 2.983588 1_555
Cd4_6 Sc4_0 3.021876 1_555
Cd4_6 Sc4_4 3.021876 1_555
Cd4_6 Sc7_2 3.121597 1_555
Cd4_6 Sc7_6 3.121597 1_555
Cd4_6 Sc2_2 3.237587 1_555
Cd4_6 Sc2_6 3.237587 1_555
Cd4_7 Ni1_7 2.886541 1_555
Cd4_7 Sc1_7 2.983588 1_555
Cd4_7 Sc1_3 2.983588 1_555
Cd4_7 Sc4_1 3.021876 1_555
Cd4_7 Sc4_5 3.021876 1_555
Cd4_7 Sc7_3 3.121597 1_555
Cd4_7 Sc7_7 3.121597 1_555
Cd4_7 Sc2_7 3.237587 1_555
Cd4_7 Sc2_3 3.237587 1_555
Cd5_0 Ni1_0 2.767755 1_555
Cd5_0 Sc0_0 3.057882 1_555
Cd5_0 Sc0_4 3.057882 1_455
Cd5_0 Sc7_4 3.074580 1_455
Cd5_0 Sc7_0 3.074580 1_555
Cd5_0 In1_0 3.091912 1_555
Cd5_0 Ni2_0 3.099405 1_555
Cd5_0 Sc8_1 3.128162 1_555
Cd5_0 Sc8_5 3.128162 1_455
Cd5_0 Sc5_4 3.182439 1_455
Cd5_0 Sc5_0 3.182439 1_555
Cd5_0 Cd5_4 3.298890 1_455
Cd5_0 Cd5_4 3.298890 1_555
Cd5_1 Ni1_1 2.767755 1_555
Cd5_1 Sc0_1 3.057882 1_555
Cd5_1 Sc0_5 3.057882 1_455
Cd5_1 Sc7_1 3.074580 1_555
Cd5_1 Sc7_5 3.074580 1_455
Cd5_1 In1_1 3.091912 1_555
Cd5_1 Ni2_1 3.099405 1_555
Cd5_1 Sc8_0 3.128162 1_556
Cd5_1 Sc8_4 3.128162 1_456
Cd5_1 Sc5_1 3.182439 1_555
Cd5_1 Sc5_5 3.182439 1_455
Cd5_1 Cd5_5 3.298890 1_555
Cd5_1 Cd5_5 3.298890 1_455
Cd5_2 Ni1_2 2.767755 1_555
Cd5_2 Sc0_2 3.057882 1_555
Cd5_2 Sc0_6 3.057882 1_455
Cd5_2 Sc7_2 3.074580 1_555
Cd5_2 Sc7_6 3.074580 1_455
Cd5_2 In1_2 3.091912 1_555
Cd5_2 Ni2_2 3.099405 1_555
Cd5_2 Sc8_7 3.128162 1_455
Cd5_2 Sc8_3 3.128162 1_555
Cd5_2 Sc5_2 3.182439 1_555
Cd5_2 Sc5_6 3.182439 1_455
Cd5_2 Cd5_6 3.298890 1_455
Cd5_2 Cd5_6 3.298890 1_555
Cd5_3 Ni1_3 2.767755 1_555
Cd5_3 Sc0_7 3.057882 1_455
Cd5_3 Sc0_3 3.057882 1_555
Cd5_3 Sc7_7 3.074580 1_455
Cd5_3 Sc7_3 3.074580 1_555
Cd5_3 In1_3 3.091912 1_555
Cd5_3 Ni2_3 3.099405 1_555
Cd5_3 Sc8_2 3.128162 1_556
Cd5_3 Sc8_6 3.128162 1_456
Cd5_3 Sc5_3 3.182439 1_555
Cd5_3 Sc5_7 3.182439 1_455
Cd5_3 Cd5_7 3.298890 1_455
Cd5_3 Cd5_7 3.298890 1_555
Cd5_4 Ni1_4 2.767755 1_555
Cd5_4 Sc0_0 3.057882 1_555
Cd5_4 Sc0_4 3.057882 1_555
Cd5_4 Sc7_0 3.074580 1_555
Cd5_4 Sc7_4 3.074580 1_555
Cd5_4 In1_4 3.091912 1_555
Cd5_4 Ni2_4 3.099405 1_555
Cd5_4 Sc8_5 3.128162 1_555
Cd5_4 Sc8_1 3.128162 1_555
Cd5_4 Sc5_0 3.182439 1_555
Cd5_4 Sc5_4 3.182439 1_555
Cd5_5 Ni1_5 2.767755 1_555
Cd5_5 Sc0_1 3.057882 1_555
Cd5_5 Sc0_5 3.057882 1_555
Cd5_5 Sc7_1 3.074580 1_555
Cd5_5 Sc7_5 3.074580 1_555
Cd5_5 In1_5 3.091912 1_555
Cd5_5 Ni2_5 3.099405 1_555
Cd5_5 Sc8_0 3.128162 1_556
Cd5_5 Sc8_4 3.128162 1_556
Cd5_5 Sc5_1 3.182439 1_555
Cd5_5 Sc5_5 3.182439 1_555
Cd5_6 Ni1_6 2.767755 1_555
Cd5_6 Sc0_2 3.057882 1_555
Cd5_6 Sc0_6 3.057882 1_555
Cd5_6 Sc7_2 3.074580 1_555
Cd5_6 Sc7_6 3.074580 1_555
Cd5_6 In1_6 3.091912 1_555
Cd5_6 Ni2_6 3.099405 1_555
Cd5_6 Sc8_7 3.128162 1_555
Cd5_6 Sc8_3 3.128162 1_555
Cd5_6 Sc5_2 3.182439 1_555
Cd5_6 Sc5_6 3.182439 1_555
Cd5_7 Ni1_7 2.767755 1_555
Cd5_7 Sc0_3 3.057882 1_555
Cd5_7 Sc0_7 3.057882 1_555
Cd5_7 Sc7_7 3.074580 1_555
Cd5_7 Sc7_3 3.074580 1_555
Cd5_7 In1_7 3.091912 1_555
Cd5_7 Ni2_7 3.099405 1_555
Cd5_7 Sc8_2 3.128162 1_556
Cd5_7 Sc8_6 3.128162 1_556
Cd5_7 Sc5_3 3.182439 1_555
Cd5_7 Sc5_7 3.182439 1_555
In0_0 Ni0_0 2.753459 1_555
In0_0 Ni3_0 3.056387 1_555
In0_0 Sc6_0 3.077065 1_555
In0_0 Sc6_4 3.077065 1_455
In0_0 Sc3_4 3.081963 1_455
In0_0 Sc3_0 3.081963 1_555
In0_0 Sc8_4 3.122868 1_455
In0_0 Sc8_0 3.122868 1_555
In0_0 Sc9_0 3.194098 1_555
In0_0 Sc9_4 3.194098 1_455
In0_0 In0_4 3.298890 1_555
In0_0 In0_4 3.298890 1_455
In0_1 Ni0_1 2.753459 1_555
In0_1 Ni3_1 3.056387 1_555
In0_1 Sc6_1 3.077065 1_555
In0_1 Sc6_5 3.077065 1_455
In0_1 Sc3_5 3.081963 1_455
In0_1 Sc3_1 3.081963 1_555
In0_1 Sc8_1 3.122868 1_555
In0_1 Sc8_5 3.122868 1_455
In0_1 Sc9_5 3.194098 1_455
In0_1 Sc9_1 3.194098 1_555
In0_1 In0_5 3.298890 1_555
In0_1 In0_5 3.298890 1_455
In0_2 Ni0_2 2.753459 1_555
In0_2 Ni3_2 3.056387 1_555
In0_2 Sc6_2 3.077065 1_555
In0_2 Sc6_6 3.077065 1_455
In0_2 Sc3_2 3.081963 1_555
In0_2 Sc3_6 3.081963 1_455
In0_2 Sc8_6 3.122868 1_455
In0_2 Sc8_2 3.122868 1_555
In0_2 Sc9_2 3.194098 1_555
In0_2 Sc9_6 3.194098 1_455
In0_2 In0_6 3.298890 1_555
In0_2 In0_6 3.298890 1_455
In0_3 Ni0_3 2.753459 1_555
In0_3 Ni3_3 3.056387 1_555
In0_3 Sc6_7 3.077065 1_455
In0_3 Sc6_3 3.077065 1_555
In0_3 Sc3_7 3.081963 1_455
In0_3 Sc3_3 3.081963 1_555
In0_3 Sc8_7 3.122868 1_455
In0_3 Sc8_3 3.122868 1_555
In0_3 Sc9_7 3.194098 1_455
In0_3 Sc9_3 3.194098 1_555
In0_3 In0_7 3.298890 1_455
In0_3 In0_7 3.298890 1_555
In0_4 Ni0_4 2.753459 1_555
In0_4 Ni3_4 3.056387 1_555
In0_4 Sc6_0 3.077065 1_555
In0_4 Sc6_4 3.077065 1_555
In0_4 Sc3_0 3.081963 1_555
In0_4 Sc3_4 3.081963 1_555
In0_4 Sc8_0 3.122868 1_555
In0_4 Sc8_4 3.122868 1_555
In0_4 Sc9_4 3.194098 1_555
In0_4 Sc9_0 3.194098 1_555
In0_5 Ni0_5 2.753459 1_555
In0_5 Ni3_5 3.056387 1_555
In0_5 Sc6_5 3.077065 1_555
In0_5 Sc6_1 3.077065 1_555
In0_5 Sc3_5 3.081963 1_555
In0_5 Sc3_1 3.081963 1_555
In0_5 Sc8_1 3.122868 1_555
In0_5 Sc8_5 3.122868 1_555
In0_5 Sc9_1 3.194098 1_555
In0_5 Sc9_5 3.194098 1_555
In0_6 Ni0_6 2.753459 1_555
In0_6 Ni3_6 3.056387 1_555
In0_6 Sc6_2 3.077065 1_555
In0_6 Sc6_6 3.077065 1_555
In0_6 Sc3_6 3.081963 1_555
In0_6 Sc3_2 3.081963 1_555
In0_6 Sc8_6 3.122868 1_555
In0_6 Sc8_2 3.122868 1_555
In0_6 Sc9_2 3.194098 1_555
In0_6 Sc9_6 3.194098 1_555
In0_7 Ni0_7 2.753459 1_555
In0_7 Ni3_7 3.056387 1_555
In0_7 Sc6_7 3.077065 1_555
In0_7 Sc6_3 3.077065 1_555
In0_7 Sc3_7 3.081963 1_555
In0_7 Sc3_3 3.081963 1_555
In0_7 Sc8_3 3.122868 1_555
In0_7 Sc8_7 3.122868 1_555
In0_7 Sc9_3 3.194098 1_555
In0_7 Sc9_7 3.194098 1_555
In1_0 Ni2_2 2.864326 1_555
In1_0 Sc0_2 2.995392 1_555
In1_0 Sc0_6 2.995392 1_455
In1_0 Sc8_1 3.028732 1_555
In1_0 Sc8_5 3.028732 1_455
In1_0 Sc5_4 3.144667 1_455
In1_0 Sc5_0 3.144667 1_555
In1_0 Sc3_1 3.220052 1_555
In1_0 Sc3_5 3.220052 1_455
In1_0 In1_4 3.298890 1_455
In1_0 In1_4 3.298890 1_555
In1_1 Ni2_3 2.864326 1_555
In1_1 Sc0_3 2.995392 1_555
In1_1 Sc0_7 2.995392 1_455
In1_1 Sc8_0 3.028732 1_556
In1_1 Sc8_4 3.028732 1_456
In1_1 Sc5_1 3.144667 1_555
In1_1 Sc5_5 3.144667 1_455
In1_1 Sc3_0 3.220052 1_556
In1_1 Sc3_4 3.220052 1_456
In1_1 In1_5 3.298890 1_455
In1_1 In1_5 3.298890 1_555
In1_2 Ni2_0 2.864326 1_565
In1_2 Sc0_0 2.995392 1_565
In1_2 Sc0_4 2.995392 1_465
In1_2 Sc8_3 3.028732 1_555
In1_2 Sc8_7 3.028732 1_455
In1_2 Sc5_6 3.144667 1_455
In1_2 Sc5_2 3.144667 1_555
In1_2 Sc3_3 3.220052 1_555
In1_2 Sc3_7 3.220052 1_455
In1_2 In1_6 3.298890 1_455
In1_2 In1_6 3.298890 1_555
In1_3 Ni2_1 2.864326 1_565
In1_3 Sc0_1 2.995392 1_565
In1_3 Sc0_5 2.995392 1_465
In1_3 Sc8_6 3.028732 1_456
In1_3 Sc8_2 3.028732 1_556
In1_3 Sc5_3 3.144667 1_555
In1_3 Sc5_7 3.144667 1_455
In1_3 Sc3_2 3.220052 1_556
In1_3 Sc3_6 3.220052 1_456
In1_3 In1_7 3.298890 1_455
In1_3 In1_7 3.298890 1_555
In1_4 Ni2_6 2.864326 1_555
In1_4 Sc0_6 2.995392 1_555
In1_4 Sc0_2 2.995392 1_555
In1_4 Sc8_5 3.028732 1_555
In1_4 Sc8_1 3.028732 1_555
In1_4 Sc5_4 3.144667 1_555
In1_4 Sc5_0 3.144667 1_555
In1_4 Sc3_1 3.220052 1_555
In1_4 Sc3_5 3.220052 1_555
In1_5 Ni2_7 2.864326 1_555
In1_5 Sc0_3 2.995392 1_555
In1_5 Sc0_7 2.995392 1_555
In1_5 Sc8_0 3.028732 1_556
In1_5 Sc8_4 3.028732 1_556
In1_5 Sc5_1 3.144667 1_555
In1_5 Sc5_5 3.144667 1_555
In1_5 Sc3_0 3.220052 1_556
In1_5 Sc3_4 3.220052 1_556
In1_6 Ni2_4 2.864326 1_565
In1_6 Sc0_0 2.995392 1_565
In1_6 Sc0_4 2.995392 1_565
In1_6 Sc8_3 3.028732 1_555
In1_6 Sc8_7 3.028732 1_555
In1_6 Sc5_2 3.144667 1_555
In1_6 Sc5_6 3.144667 1_555
In1_6 Sc3_3 3.220052 1_555
In1_6 Sc3_7 3.220052 1_555
In1_7 Ni2_5 2.864326 1_565
In1_7 Sc0_1 2.995392 1_565
In1_7 Sc0_5 2.995392 1_565
In1_7 Sc8_2 3.028732 1_556
In1_7 Sc8_6 3.028732 1_556
In1_7 Sc5_3 3.144667 1_555
In1_7 Sc5_7 3.144667 1_555
In1_7 Sc3_2 3.220052 1_556
In1_7 Sc3_6 3.220052 1_556
Ni0_0 Sc2_0 2.560259 1_555
Ni0_0 Sc2_4 2.560259 1_455
Ni0_0 Sc6_0 2.738920 1_555
Ni0_0 Sc6_4 2.738920 1_455
Ni0_0 Sc9_4 2.741593 1_455
Ni0_0 Sc9_0 2.741593 1_555
Ni0_1 Sc2_5 2.560259 1_455
Ni0_1 Sc2_1 2.560259 1_555
Ni0_1 Sc6_5 2.738920 1_455
Ni0_1 Sc6_1 2.738920 1_555
Ni0_1 Sc9_5 2.741593 1_455
Ni0_1 Sc9_1 2.741593 1_555
Ni0_2 Sc2_2 2.560259 1_555
Ni0_2 Sc2_6 2.560259 1_455
Ni0_2 Sc6_6 2.738920 1_455
Ni0_2 Sc6_2 2.738920 1_555
Ni0_2 Sc9_2 2.741593 1_555
Ni0_2 Sc9_6 2.741593 1_455
Ni0_3 Sc2_3 2.560259 1_555
Ni0_3 Sc2_7 2.560259 1_455
Ni0_3 Sc6_3 2.738920 1_555
Ni0_3 Sc6_7 2.738920 1_455
Ni0_3 Sc9_7 2.741593 1_455
Ni0_3 Sc9_3 2.741593 1_555
Ni0_4 Sc2_4 2.560259 1_555
Ni0_4 Sc2_0 2.560259 1_555
Ni0_4 Sc6_0 2.738920 1_555
Ni0_4 Sc6_4 2.738920 1_555
Ni0_4 Sc9_0 2.741593 1_555
Ni0_4 Sc9_4 2.741593 1_555
Ni0_5 Sc2_5 2.560259 1_555
Ni0_5 Sc2_1 2.560259 1_555
Ni0_5 Sc6_5 2.738920 1_555
Ni0_5 Sc6_1 2.738920 1_555
Ni0_5 Sc9_1 2.741593 1_555
Ni0_5 Sc9_5 2.741593 1_555
Ni0_6 Sc2_6 2.560259 1_555
Ni0_6 Sc2_2 2.560259 1_555
Ni0_6 Sc6_6 2.738920 1_555
Ni0_6 Sc6_2 2.738920 1_555
Ni0_6 Sc9_2 2.741593 1_555
Ni0_6 Sc9_6 2.741593 1_555
Ni0_7 Sc2_3 2.560259 1_555
Ni0_7 Sc2_7 2.560259 1_555
Ni0_7 Sc6_3 2.738920 1_555
Ni0_7 Sc6_7 2.738920 1_555
Ni0_7 Sc9_7 2.741593 1_555
Ni0_7 Sc9_3 2.741593 1_555
Ni1_0 Sc1_0 2.552890 1_555
Ni1_0 Sc1_4 2.552890 1_455
Ni1_0 Sc5_0 2.724907 1_555
Ni1_0 Sc5_4 2.724907 1_455
Ni1_0 Sc7_4 2.732687 1_455
Ni1_0 Sc7_0 2.732687 1_555
Ni1_1 Sc1_5 2.552890 1_455
Ni1_1 Sc1_1 2.552890 1_555
Ni1_1 Sc5_1 2.724907 1_555
Ni1_1 Sc5_5 2.724907 1_455
Ni1_1 Sc7_1 2.732687 1_555
Ni1_1 Sc7_5 2.732687 1_455
Ni1_2 Sc1_6 2.552890 1_455
Ni1_2 Sc1_2 2.552890 1_555
Ni1_2 Sc5_6 2.724907 1_455
Ni1_2 Sc5_2 2.724907 1_555
Ni1_2 Sc7_2 2.732687 1_555
Ni1_2 Sc7_6 2.732687 1_455
Ni1_3 Sc1_7 2.552890 1_455
Ni1_3 Sc1_3 2.552890 1_555
Ni1_3 Sc5_3 2.724907 1_555
Ni1_3 Sc5_7 2.724907 1_455
Ni1_3 Sc7_3 2.732687 1_555
Ni1_3 Sc7_7 2.732687 1_455
Ni1_4 Sc1_0 2.552890 1_555
Ni1_4 Sc1_4 2.552890 1_555
Ni1_4 Sc5_0 2.724907 1_555
Ni1_4 Sc5_4 2.724907 1_555
Ni1_4 Sc7_0 2.732687 1_555
Ni1_4 Sc7_4 2.732687 1_555
Ni1_5 Sc1_1 2.552890 1_555
Ni1_5 Sc1_5 2.552890 1_555
Ni1_5 Sc5_5 2.724907 1_555
Ni1_5 Sc5_1 2.724907 1_555
Ni1_5 Sc7_5 2.732687 1_555
Ni1_5 Sc7_1 2.732687 1_555
Ni1_6 Sc1_2 2.552890 1_555
Ni1_6 Sc1_6 2.552890 1_555
Ni1_6 Sc5_6 2.724907 1_555
Ni1_6 Sc5_2 2.724907 1_555
Ni1_6 Sc7_2 2.732687 1_555
Ni1_6 Sc7_6 2.732687 1_555
Ni1_7 Sc1_7 2.552890 1_555
Ni1_7 Sc1_3 2.552890 1_555
Ni1_7 Sc5_3 2.724907 1_555
Ni1_7 Sc5_7 2.724907 1_555
Ni1_7 Sc7_3 2.732687 1_555
Ni1_7 Sc7_7 2.732687 1_555
Ni2_0 Sc0_0 2.564167 1_555
Ni2_0 Sc0_4 2.564167 1_455
Ni2_0 Sc5_2 2.728033 1_545
Ni2_0 Sc5_6 2.728033 1_445
Ni2_0 Sc7_4 2.746468 1_455
Ni2_0 Sc7_0 2.746468 1_555
Ni2_1 Sc0_5 2.564167 1_455
Ni2_1 Sc0_1 2.564167 1_555
Ni2_1 Sc5_7 2.728033 1_445
Ni2_1 Sc5_3 2.728033 1_545
Ni2_1 Sc7_1 2.746468 1_555
Ni2_1 Sc7_5 2.746468 1_455
Ni2_2 Sc0_2 2.564167 1_555
Ni2_2 Sc0_6 2.564167 1_455
Ni2_2 Sc5_0 2.728033 1_555
Ni2_2 Sc5_4 2.728033 1_455
Ni2_2 Sc7_2 2.746468 1_555
Ni2_2 Sc7_6 2.746468 1_455
Ni2_3 Sc0_7 2.564167 1_455
Ni2_3 Sc0_3 2.564167 1_555
Ni2_3 Sc5_5 2.728033 1_455
Ni2_3 Sc5_1 2.728033 1_555
Ni2_3 Sc7_3 2.746468 1_555
Ni2_3 Sc7_7 2.746468 1_455
Ni2_4 Sc0_0 2.564167 1_555
Ni2_4 Sc0_4 2.564167 1_555
Ni2_4 Sc5_2 2.728033 1_545
Ni2_4 Sc5_6 2.728033 1_545
Ni2_4 Sc7_4 2.746468 1_555
Ni2_4 Sc7_0 2.746468 1_555
Ni2_5 Sc0_5 2.564167 1_555
Ni2_5 Sc0_1 2.564167 1_555
Ni2_5 Sc5_3 2.728033 1_545
Ni2_5 Sc5_7 2.728033 1_545
Ni2_5 Sc7_5 2.746468 1_555
Ni2_5 Sc7_1 2.746468 1_555
Ni2_6 Sc0_2 2.564167 1_555
Ni2_6 Sc0_6 2.564167 1_555
Ni2_6 Sc5_0 2.728033 1_555
Ni2_6 Sc5_4 2.728033 1_555
Ni2_6 Sc7_6 2.746468 1_555
Ni2_6 Sc7_2 2.746468 1_555
Ni2_7 Sc0_7 2.564167 1_555
Ni2_7 Sc0_3 2.564167 1_555
Ni2_7 Sc5_5 2.728033 1_555
Ni2_7 Sc5_1 2.728033 1_555
Ni2_7 Sc7_3 2.746468 1_555
Ni2_7 Sc7_7 2.746468 1_555
Ni3_0 Sc3_4 2.557154 1_455
Ni3_0 Sc3_0 2.557154 1_555
Ni3_0 Sc9_6 2.730752 1_455
Ni3_0 Sc9_2 2.730752 1_555
Ni3_0 Sc6_0 2.731168 1_555
Ni3_0 Sc6_4 2.731168 1_455
Ni3_1 Sc3_5 2.557154 1_455
Ni3_1 Sc3_1 2.557154 1_555
Ni3_1 Sc9_7 2.730752 1_455
Ni3_1 Sc9_3 2.730752 1_555
Ni3_1 Sc6_5 2.731168 1_455
Ni3_1 Sc6_1 2.731168 1_555
Ni3_2 Sc3_6 2.557154 1_455
Ni3_2 Sc3_2 2.557154 1_555
Ni3_2 Sc9_0 2.730752 1_565
Ni3_2 Sc9_4 2.730752 1_465
Ni3_2 Sc6_6 2.731168 1_455
Ni3_2 Sc6_2 2.731168 1_555
Ni3_3 Sc3_3 2.557154 1_555
Ni3_3 Sc3_7 2.557154 1_455
Ni3_3 Sc9_1 2.730752 1_565
Ni3_3 Sc9_5 2.730752 1_465
Ni3_3 Sc6_3 2.731168 1_555
Ni3_3 Sc6_7 2.731168 1_455
Ni3_4 Sc3_4 2.557154 1_555
Ni3_4 Sc3_0 2.557154 1_555
Ni3_4 Sc9_2 2.730752 1_555
Ni3_4 Sc9_6 2.730752 1_555
Ni3_4 Sc6_0 2.731168 1_555
Ni3_4 Sc6_4 2.731168 1_555
Ni3_5 Sc3_5 2.557154 1_555
Ni3_5 Sc3_1 2.557154 1_555
Ni3_5 Sc9_3 2.730752 1_555
Ni3_5 Sc9_7 2.730752 1_555
Ni3_5 Sc6_5 2.731168 1_555
Ni3_5 Sc6_1 2.731168 1_555
Ni3_6 Sc3_6 2.557154 1_555
Ni3_6 Sc3_2 2.557154 1_555
Ni3_6 Sc9_4 2.730752 1_565
Ni3_6 Sc9_0 2.730752 1_565
Ni3_6 Sc6_2 2.731168 1_555
Ni3_6 Sc6_6 2.731168 1_555
Ni3_7 Sc3_3 2.557154 1_555
Ni3_7 Sc3_7 2.557154 1_555
Ni3_7 Sc9_1 2.730752 1_565
Ni3_7 Sc9_5 2.730752 1_565
Ni3_7 Sc6_3 2.731168 1_555
Ni3_7 Sc6_7 2.731168 1_555
