# generated using pymatgen
data_Ta3CoOs2N
_symmetry_space_group_name_H-M   'P 1'
_cell_length_a   8.17592032
_cell_length_b   8.17592099
_cell_length_c   8.17592003
_cell_angle_alpha   60.00000389
_cell_angle_beta   60.00000121
_cell_angle_gamma   60.00000579
_symmetry_Int_Tables_number   1
_chemical_formula_structural   Ta3CoOs2N
_chemical_formula_sum   'Ta12 Co4 Os8 N4'
_cell_volume   386.45151012
_cell_formula_units_Z   4
loop_
 _symmetry_equiv_pos_site_id
 _symmetry_equiv_pos_as_xyz
  1  'x, y, z'
loop_
 _atom_site_type_symbol
 _atom_site_label
 _atom_site_symmetry_multiplicity
 _atom_site_fract_x
 _atom_site_fract_y
 _atom_site_fract_z
 _atom_site_occupancy
  Ta  Ta0  1  0.55524977  0.94475023  0.55524977  1
  Ta  Ta1  1  0.30524977  0.69475023  0.69475023  1
  Ta  Ta2  1  0.69475023  0.30524977  0.30524977  1
  Ta  Ta3  1  0.30524977  0.69475023  0.30524977  1
  Ta  Ta4  1  0.69475023  0.69475023  0.30524977  1
  Ta  Ta5  1  0.30524977  0.30524977  0.69475023  1
  Ta  Ta6  1  0.55524977  0.55524977  0.94475023  1
  Ta  Ta7  1  0.94475023  0.55524977  0.55524977  1
  Ta  Ta8  1  0.55524977  0.94475023  0.94475023  1
  Ta  Ta9  1  0.94475023  0.94475023  0.55524977  1
  Ta  Ta10  1  0.69475023  0.30524977  0.69475023  1
  Ta  Ta11  1  0.94475023  0.55524977  0.94475023  1
  Co  Co0  1  0.12500000  0.12500000  0.12500000  1
  Co  Co1  1  0.62500000  0.12500000  0.12500000  1
  Co  Co2  1  0.12500000  0.62500000  0.12500000  1
  Co  Co3  1  0.12500000  0.12500000  0.62500000  1
  Os  Os0  1  0.91709636  0.91709636  0.91709636  1
  Os  Os1  1  0.00128709  0.33290364  0.33290364  1
  Os  Os2  1  0.33290364  0.00128709  0.33290364  1
  Os  Os3  1  0.33290364  0.33290364  0.00128709  1
  Os  Os4  1  0.91709636  0.24871291  0.91709636  1
  Os  Os5  1  0.91709636  0.91709636  0.24871291  1
  Os  Os6  1  0.24871291  0.91709636  0.91709636  1
  Os  Os7  1  0.33290364  0.33290364  0.33290364  1
  N  N0  1  0.62500000  0.62500000  0.62500000  1
  N  N1  1  0.12500000  0.62500000  0.62500000  1
  N  N2  1  0.62500000  0.12500000  0.62500000  1
  N  N3  1  0.62500000  0.62500000  0.12500000  1
loop_
_geom_bond_atom_site_label_1
_geom_bond_atom_site_label_2
_geom_bond_distance
_geom_bond_site_symmetry_2
Co0 Os2 2.500494 1_555
Co0 Os4 2.500494 1_454
Co0 Os1 2.500494 1_555
Co0 Os6 2.500494 1_544
Co0 Os3 2.500494 1_555
Co0 Os5 2.500494 1_445
Co0 Ta9 2.919158 1_445
Co0 Ta5 2.919158 1_554
Co0 Ta8 2.919158 1_544
Co0 Ta2 2.919158 1_455
Co0 Ta11 2.919159 1_454
Co0 Ta3 2.919159 1_545
Co1 Os7 2.500499 1_555
Co1 Os0 2.500499 1_544
Co1 Os4 2.500508 1_554
Co1 Os2 2.500508 1_555
Co1 Os5 2.500508 1_545
Co1 Os3 2.500508 1_555
Co1 Ta2 2.919158 1_555
Co1 Ta0 2.919158 1_545
Co1 Ta10 2.919158 1_554
Co1 Ta8 2.919158 1_544
Co1 Ta6 2.919158 1_554
Co1 Ta4 2.919158 1_545
Co2 Os7 2.500499 1_555
Co2 Os0 2.500499 1_454
Co2 Os6 2.500508 1_554
Co2 Os1 2.500508 1_555
Co2 Os5 2.500508 1_455
Co2 Os3 2.500508 1_555
Co2 Ta3 2.919158 1_555
Co2 Ta7 2.919158 1_455
Co2 Ta1 2.919158 1_554
Co2 Ta11 2.919158 1_454
Co2 Ta6 2.919158 1_554
Co2 Ta4 2.919158 1_455
Co3 Os7 2.500499 1_555
Co3 Os0 2.500499 1_445
Co3 Os2 2.500508 1_555
Co3 Os4 2.500508 1_455
Co3 Os6 2.500508 1_545
Co3 Os1 2.500508 1_555
Co3 Ta5 2.919158 1_555
Co3 Ta9 2.919158 1_445
Co3 Ta0 2.919158 1_545
Co3 Ta10 2.919158 1_455
Co3 Ta7 2.919159 1_455
Co3 Ta1 2.919159 1_545
Os0 Os5 2.711270 1_556
Os0 Os6 2.711270 1_655
Os0 Os4 2.711271 1_565
Os0 Ta9 2.750978 1_555
Os0 Ta8 2.750979 1_555
Os0 Ta11 2.750979 1_555
Os0 Ta4 2.906395 1_556
Os0 Ta1 2.906395 1_655
Os0 Ta10 2.906395 1_565
Os1 Os3 2.711270 1_555
Os1 Os7 2.711270 1_555
Os1 Os2 2.711271 1_555
Os1 Ta2 2.750962 1_455
Os1 Ta10 2.750972 1_455
Os1 Ta4 2.750972 1_455
Os1 Ta11 2.906389 1_454
Os1 Ta9 2.906389 1_445
Os1 Ta7 2.906403 1_455
Os2 Os7 2.711271 1_555
Os2 Os3 2.711271 1_555
Os2 Ta3 2.750962 1_545
Os2 Ta1 2.750972 1_545
Os2 Ta4 2.750972 1_545
Os2 Ta8 2.906388 1_544
Os2 Ta9 2.906389 1_445
Os2 Ta0 2.906402 1_545
Os3 Os7 2.711270 1_555
Os3 Ta5 2.750962 1_554
Os3 Ta10 2.750972 1_554
Os3 Ta1 2.750972 1_554
Os3 Ta11 2.906389 1_454
Os3 Ta8 2.906389 1_544
Os3 Ta6 2.906403 1_554
Os4 Os5 2.711271 1_546
Os4 Os6 2.711271 1_645
Os4 Ta11 2.750962 1_555
Os4 Ta7 2.750972 1_555
Os4 Ta6 2.750972 1_555
Os4 Ta2 2.906388 1_556
Os4 Ta5 2.906389 1_655
Os4 Ta10 2.906402 1_555
Os5 Os6 2.711270 1_654
Os5 Ta9 2.750962 1_555
Os5 Ta0 2.750972 1_555
Os5 Ta7 2.750972 1_555
Os5 Ta3 2.906389 1_655
Os5 Ta2 2.906389 1_565
Os5 Ta4 2.906403 1_555
Os6 Ta8 2.750962 1_555
Os6 Ta0 2.750972 1_555
Os6 Ta6 2.750972 1_555
Os6 Ta3 2.906389 1_556
Os6 Ta5 2.906389 1_565
Os6 Ta1 2.906403 1_555
Os7 Ta5 2.750978 1_555
Os7 Ta2 2.750979 1_555
Os7 Ta3 2.750979 1_555
Os7 Ta6 2.906395 1_554
Os7 Ta7 2.906395 1_455
Os7 Ta0 2.906395 1_545
N0 Ta6 2.197334 1_555
N0 Ta4 2.197334 1_555
N0 Ta7 2.197334 1_555
N0 Ta1 2.197334 1_555
N0 Ta0 2.197334 1_555
N0 Ta10 2.197334 1_555
N1 Ta1 2.197334 1_555
N1 Ta11 2.197334 1_455
N1 Ta3 2.197334 1_555
N1 Ta7 2.197334 1_455
N1 Ta9 2.197334 1_455
N1 Ta5 2.197334 1_555
N2 Ta10 2.197334 1_555
N2 Ta8 2.197334 1_545
N2 Ta2 2.197334 1_555
N2 Ta0 2.197334 1_545
N2 Ta9 2.197334 1_545
N2 Ta5 2.197334 1_555
N3 Ta4 2.197334 1_555
N3 Ta6 2.197334 1_554
N3 Ta11 2.197334 1_554
N3 Ta3 2.197334 1_555
N3 Ta8 2.197334 1_554
N3 Ta2 2.197334 1_555
