# generated using pymatgen
data_Mn2AlGeRh4
_symmetry_space_group_name_H-M   'P 1'
_cell_length_a   7.37315548
_cell_length_b   7.37315576
_cell_length_c   7.37315670
_cell_angle_alpha   33.58948595
_cell_angle_beta   33.58948345
_cell_angle_gamma   33.58949538
_symmetry_Int_Tables_number   1
_chemical_formula_structural   Mn2AlGeRh4
_chemical_formula_sum   'Mn2 Al1 Ge1 Rh4'
_cell_volume   109.28268005
_cell_formula_units_Z   1
loop_
 _symmetry_equiv_pos_site_id
 _symmetry_equiv_pos_as_xyz
  1  'x, y, z'
loop_
 _atom_site_type_symbol
 _atom_site_label
 _atom_site_symmetry_multiplicity
 _atom_site_fract_x
 _atom_site_fract_y
 _atom_site_fract_z
 _atom_site_occupancy
  Mn  Mn0  1  0.25162308  0.25162308  0.25162308  1
  Mn  Mn1  1  0.74837692  0.74837692  0.74837692  1
  Al  Al0  1  0.00000000  0.00000000  0.00000000  1
  Ge  Ge0  1  0.50000000  0.50000000  0.50000000  1
  Rh  Rh0  1  0.37583364  0.37583364  0.37583364  1
  Rh  Rh1  1  0.87426099  0.87426099  0.87426099  1
  Rh  Rh2  1  0.62416636  0.62416636  0.62416636  1
  Rh  Rh3  1  0.12573901  0.12573901  0.12573901  1
loop_
_geom_bond_atom_site_label_1
_geom_bond_atom_site_label_2
_geom_bond_distance
_geom_bond_site_symmetry_2
Mn0 Rh0 2.590039 1_555
Mn0 Rh2 2.592318 1_554
Mn0 Rh2 2.592319 1_455
Mn0 Rh2 2.592319 1_545
Mn0 Rh3 2.624935 1_555
Mn0 Rh1 2.625742 1_445
Mn0 Rh1 2.625743 1_544
Mn0 Rh1 2.625743 1_454
Mn1 Rh2 2.590039 1_555
Mn1 Rh0 2.592318 1_556
Mn1 Rh0 2.592319 1_655
Mn1 Rh0 2.592319 1_565
Mn1 Rh1 2.624935 1_555
Mn1 Rh3 2.625742 1_665
Mn1 Rh3 2.625743 1_566
Mn1 Rh3 2.625743 1_656
Al0 Rh2 2.614768 1_445
Al0 Rh0 2.614768 1_554
Al0 Rh2 2.614769 1_544
Al0 Rh0 2.614769 1_455
Al0 Rh0 2.614769 1_545
Al0 Rh2 2.614769 1_454
Al0 Rh3 2.621911 1_555
Al0 Rh1 2.621911 1_444
Ge0 Rh0 2.589118 1_555
Ge0 Rh2 2.589118 1_555
Ge0 Rh1 2.603837 1_554
Ge0 Rh3 2.603837 1_556
Ge0 Rh1 2.603838 1_455
Ge0 Rh3 2.603838 1_655
Ge0 Rh1 2.603838 1_545
Ge0 Rh3 2.603838 1_565
