# generated using pymatgen
data_Zr10BeGa2Bi5
_symmetry_space_group_name_H-M   'P 1'
_cell_length_a   8.72913596
_cell_length_b   8.69334014
_cell_length_c   5.88029629
_cell_angle_alpha   90.16314558
_cell_angle_beta   89.91876481
_cell_angle_gamma   119.86442863
_symmetry_Int_Tables_number   1
_chemical_formula_structural   Zr10BeGa2Bi5
_chemical_formula_sum   'Zr10 Be1 Ga2 Bi5'
_cell_volume   386.97034434
_cell_formula_units_Z   1
loop_
 _symmetry_equiv_pos_site_id
 _symmetry_equiv_pos_as_xyz
  1  'x, y, z'
loop_
 _atom_site_type_symbol
 _atom_site_label
 _atom_site_symmetry_multiplicity
 _atom_site_fract_x
 _atom_site_fract_y
 _atom_site_fract_z
 _atom_site_occupancy
  Zr  Zr0  1  0.67321091  0.33492030  0.00409220  1
  Zr  Zr1  1  0.32678909  0.66171039  0.00409220  1
  Zr  Zr2  1  0.32623290  0.66066559  0.49446383  1
  Zr  Zr3  1  0.67376710  0.33443169  0.49446383  1
  Zr  Zr4  1  0.75062977  0.74782557  0.76200503  1
  Zr  Zr5  1  0.24937023  0.99719580  0.76200503  1
  Zr  Zr6  1  0.00000000  0.25028244  0.76679842  1
  Zr  Zr7  1  0.25070623  0.26825867  0.23829689  1
  Zr  Zr8  1  0.74929377  0.01755243  0.23829689  1
  Zr  Zr9  1  1.00000000  0.72936797  0.23954821  1
  Be  Be0  1  0.00000000  0.99735291  0.01748692  1
  Ga  Ga0  1  1.00000000  0.99888801  0.48568918  1
  Ga  Ga1  1  0.00000000  0.39038085  0.24875782  1
  Bi  Bi0  1  0.39306076  0.39094390  0.74637692  1
  Bi  Bi1  1  0.60693924  0.99788214  0.74637692  1
  Bi  Bi2  1  1.00000000  0.60115868  0.74562438  1
  Bi  Bi3  1  0.61560722  0.61839345  0.25281267  1
  Bi  Bi4  1  0.38439278  0.00278623  0.25281267  1
loop_
_geom_bond_atom_site_label_1
_geom_bond_atom_site_label_2
_geom_bond_distance
_geom_bond_site_symmetry_2
Be0 Zr8 2.622865 1_465
Be0 Zr7 2.622865 1_565
Be0 Zr5 2.643674 1_554
Be0 Zr4 2.643674 1_454
Be0 Zr6 2.650703 1_564
Be0 Zr9 2.673917 1_455
Be0 Ga0 2.753162 1_455
Ga0 Zr8 2.701094 1_565
Ga0 Zr7 2.701094 1_665
Ga0 Zr5 2.724098 1_655
Ga0 Zr4 2.724099 1_555
Ga0 Zr6 2.736435 1_665
Ga0 Zr9 2.750525 1_555
Ga1 Zr7 2.869369 1_555
Ga1 Zr8 2.869369 1_455
Ga1 Zr9 2.947582 1_455
Ga1 Zr3 3.007754 1_455
Ga1 Zr2 3.007757 1_555
Ga1 Zr0 3.012901 1_455
Ga1 Zr1 3.012904 1_555
Ga1 Zr6 3.081493 1_554
Ga1 Zr6 3.283899 1_555
Bi0 Zr5 3.004026 1_545
Bi0 Zr6 3.017169 1_555
Bi0 Zr2 3.068724 1_555
Bi0 Zr1 3.083053 1_556
Bi0 Zr3 3.102287 1_555
Bi0 Zr0 3.116879 1_556
Bi0 Zr4 3.119522 1_555
Bi0 Zr7 3.120333 1_556
Bi0 Zr7 3.206285 1_555
Bi1 Zr4 3.004018 1_555
Bi1 Zr6 3.017170 1_665
Bi1 Zr3 3.068725 1_565
Bi1 Zr0 3.083053 1_566
Bi1 Zr2 3.102278 1_555
Bi1 Zr1 3.116870 1_556
Bi1 Zr5 3.119526 1_555
Bi1 Zr8 3.120332 1_566
Bi1 Zr8 3.206284 1_565
Bi2 Zr2 3.013920 1_655
Bi2 Zr3 3.013922 1_555
Bi2 Zr4 3.022606 1_555
Bi2 Zr5 3.022607 1_655
Bi2 Zr1 3.039185 1_656
Bi2 Zr0 3.039188 1_556
Bi2 Zr6 3.053181 1_655
Bi2 Zr9 3.107969 1_556
Bi2 Zr9 3.180723 1_555
Bi3 Zr9 2.995244 1_555
Bi3 Zr8 3.062479 1_565
Bi3 Zr2 3.073459 1_555
Bi3 Zr1 3.097749 1_555
Bi3 Zr3 3.104986 1_555
Bi3 Zr4 3.110124 1_554
Bi3 Zr0 3.110668 1_555
Bi3 Zr7 3.124388 1_555
Bi3 Zr4 3.207889 1_555
Bi4 Zr9 2.995244 1_445
Bi4 Zr7 3.062478 1_555
Bi4 Zr3 3.073455 1_555
Bi4 Zr0 3.097745 1_555
Bi4 Zr2 3.104979 1_545
Bi4 Zr5 3.110124 1_544
Bi4 Zr1 3.110660 1_545
Bi4 Zr8 3.124387 1_555
Bi4 Zr5 3.207889 1_545
