# generated using pymatgen
data_Y16Al4IrPd3
_symmetry_space_group_name_H-M   'P 1'
_cell_length_a   9.63881500
_cell_length_b   9.58335055
_cell_length_c   9.58336416
_cell_angle_alpha   60.01354853
_cell_angle_beta   60.23789673
_cell_angle_gamma   60.23811436
_symmetry_Int_Tables_number   1
_chemical_formula_structural   Y16Al4IrPd3
_chemical_formula_sum   'Y16 Al4 Ir1 Pd3'
_cell_volume   628.26345825
_cell_formula_units_Z   1
loop_
 _symmetry_equiv_pos_site_id
 _symmetry_equiv_pos_as_xyz
  1  'x, y, z'
loop_
 _atom_site_type_symbol
 _atom_site_label
 _atom_site_symmetry_multiplicity
 _atom_site_fract_x
 _atom_site_fract_y
 _atom_site_fract_z
 _atom_site_occupancy
  Y  Y0  1  0.35727233  0.35174033  0.35173992  1
  Y  Y1  1  0.35772376  0.35144457  0.93914985  1
  Y  Y2  1  0.35772395  0.93915060  0.35144408  1
  Y  Y3  1  0.92759716  0.35773724  0.35773665  1
  Y  Y4  1  0.80530194  0.19106364  0.19106356  1
  Y  Y5  1  0.19491868  0.80677097  0.80677018  1
  Y  Y6  1  0.19543525  0.80675988  0.19127127  1
  Y  Y7  1  0.80525348  0.19096355  0.81276650  1
  Y  Y8  1  0.19543512  0.19127203  0.80675939  1
  Y  Y9  1  0.80525338  0.81276702  0.19096265  1
  Y  Y10  1  0.93738017  0.56376632  0.56376560  1
  Y  Y11  1  0.56683003  0.93633394  0.93633280  1
  Y  Y12  1  0.56657269  0.93674365  0.56014417  1
  Y  Y13  1  0.93737702  0.56339692  0.93557149  1
  Y  Y14  1  0.56657253  0.56014459  0.93674318  1
  Y  Y15  1  0.93737745  0.93557201  0.56339640  1
  Al  Al0  1  0.57598907  0.57889208  0.57890692  1
  Al  Al1  1  0.57602059  0.57915865  0.26582334  1
  Al  Al2  1  0.57602037  0.26582716  0.57915613  1
  Al  Al3  1  0.26559368  0.57802197  0.57802158  1
  Ir  Ir0  1  0.57098080  0.14313787  0.14313713  1
  Pd  Pd0  1  0.13991644  0.14655901  0.14655936  1
  Pd  Pd1  1  0.14072843  0.14563234  0.56714379  1
  Pd  Pd2  1  0.14072868  0.56714465  0.14563108  1
loop_
_geom_bond_atom_site_label_1
_geom_bond_atom_site_label_2
_geom_bond_distance
_geom_bond_site_symmetry_2
Y0 Y14 3.459856 1_554
Y0 Y12 3.459865 1_545
Y0 Y10 3.526442 1_455
Y1 Y14 3.458046 1_555
Y1 Y11 3.461475 1_545
Y1 Y13 3.527137 1_455
Y3 Y7 3.572118 1_555
Y3 Y9 3.572119 1_555
Y3 Y4 3.575063 1_555
Y10 Y3 3.474527 1_555
Y10 Y15 3.561364 1_555
Y10 Y13 3.561368 1_555
Y10 Y14 3.587157 1_555
Y10 Y12 3.587164 1_555
Y10 Y6 3.602584 1_655
Y10 Y8 3.602598 1_655
Y10 Y7 3.613656 1_555
Y10 Y9 3.613669 1_555
Y11 Y2 3.461476 1_556
Y11 Y7 3.551823 1_565
Y11 Y9 3.551834 1_556
Y11 Y15 3.585686 1_555
Y11 Y13 3.585696 1_555
Y11 Y14 3.604423 1_555
Y11 Y12 3.604423 1_555
Y11 Y6 3.608818 1_556
Y11 Y8 3.608829 1_565
Y12 Y2 3.458051 1_555
Y12 Y4 3.551910 1_565
Y12 Y9 3.553737 1_555
Y12 Y15 3.584107 1_555
Y12 Y14 3.609822 1_555
Y12 Y8 3.610886 1_565
Y12 Y5 3.612732 1_555
Y13 Y3 3.478048 1_556
Y13 Y15 3.567417 1_555
Y13 Y14 3.584104 1_555
Y13 Y5 3.599160 1_655
Y13 Y8 3.601975 1_655
Y13 Y4 3.609686 1_556
Y13 Y9 3.613022 1_556
Y14 Y4 3.551927 1_556
Y14 Y7 3.553735 1_555
Y14 Y6 3.610884 1_556
Y14 Y5 3.612745 1_555
Y15 Y3 3.478043 1_565
Y15 Y2 3.527128 1_655
Y15 Y5 3.599167 1_655
Y15 Y6 3.601975 1_655
Y15 Y4 3.609696 1_565
Y15 Y7 3.613024 1_565
Al0 Al2 2.998868 1_555
Al0 Al1 2.998967 1_555
Al0 Al3 3.000218 1_555
Al0 Y3 3.270770 1_555
Al0 Y14 3.300266 1_555
Al0 Y12 3.300343 1_555
Al0 Y1 3.303889 1_555
Al0 Y2 3.304026 1_555
Al0 Y10 3.345733 1_555
Al0 Y5 3.445187 1_555
Al0 Y7 3.487037 1_555
Al0 Y9 3.487153 1_555
Al1 Al3 3.002764 1_555
Al1 Al2 3.003389 1_555
Al1 Y3 3.273917 1_555
Al1 Y14 3.295956 1_554
Al1 Y11 3.296618 1_554
Al1 Y2 3.303243 1_555
Al1 Y0 3.304296 1_555
Al1 Y13 3.344027 1_554
Al1 Y6 3.438846 1_555
Al1 Y9 3.484317 1_555
Al1 Y4 3.487339 1_555
Al2 Al3 3.002754 1_555
Al2 Y3 3.273894 1_555
Al2 Y12 3.295970 1_545
Al2 Y11 3.296637 1_545
Al2 Y1 3.303241 1_555
Al2 Y0 3.304299 1_555
Al2 Y15 3.344053 1_545
Al2 Y8 3.438846 1_555
Al2 Y7 3.484334 1_555
Al2 Y4 3.487332 1_555
Al3 Y10 3.304916 1_455
Al3 Y13 3.311678 1_455
Al3 Y15 3.311685 1_455
Al3 Y0 3.328914 1_555
Al3 Y2 3.332549 1_555
Al3 Y1 3.332555 1_555
Al3 Y8 3.448906 1_555
Al3 Y6 3.448917 1_555
Al3 Y5 3.451646 1_555
Ir0 Y4 2.791718 1_555
Ir0 Y7 2.795037 1_554
Ir0 Y9 2.795045 1_545
Ir0 Y2 2.836644 1_545
Ir0 Y1 2.836657 1_554
Ir0 Y0 2.838009 1_555
Ir0 Y14 3.449384 1_554
Ir0 Y12 3.449391 1_545
Ir0 Y11 3.455568 1_544
Pd0 Y6 2.859549 1_545
Pd0 Y8 2.859556 1_554
Pd0 Y4 2.866488 1_455
Pd0 Y3 2.872277 1_455
Pd0 Y1 2.874374 1_554
Pd0 Y2 2.874381 1_545
Pd0 Y15 3.458297 1_445
Pd0 Y13 3.458314 1_454
Pd0 Y11 3.556220 1_544
Pd1 Y5 2.853877 1_545
Pd1 Y8 2.859639 1_555
Pd1 Y3 2.872133 1_455
Pd1 Y2 2.872396 1_545
Pd1 Y7 2.873400 1_455
Pd1 Y0 2.873828 1_555
Pd1 Y15 3.457617 1_445
Pd1 Y10 3.469244 1_455
Pd1 Y12 3.544454 1_545
Pd2 Y5 2.853873 1_554
Pd2 Y6 2.859634 1_555
Pd2 Y3 2.872126 1_455
Pd2 Y1 2.872395 1_554
Pd2 Y9 2.873407 1_455
Pd2 Y0 2.873844 1_555
Pd2 Y13 3.457624 1_454
Pd2 Y10 3.469246 1_455
Pd2 Y14 3.544442 1_554
