# generated using pymatgen
data_Li2AlAg
_symmetry_space_group_name_H-M   'P 1'
_cell_length_a   4.41296152
_cell_length_b   4.41296145
_cell_length_c   4.41296135
_cell_angle_alpha   60.00000081
_cell_angle_beta   60.00000132
_cell_angle_gamma   60.00000903
_symmetry_Int_Tables_number   1
_chemical_formula_structural   Li2AlAg
_chemical_formula_sum   'Li2 Al1 Ag1'
_cell_volume   60.76806900
_cell_formula_units_Z   1
loop_
 _symmetry_equiv_pos_site_id
 _symmetry_equiv_pos_as_xyz
  1  'x, y, z'
loop_
 _atom_site_type_symbol
 _atom_site_label
 _atom_site_symmetry_multiplicity
 _atom_site_fract_x
 _atom_site_fract_y
 _atom_site_fract_z
 _atom_site_occupancy
  Li  Li0  1  0.25000000  0.25000000  0.25000000  1
  Li  Li1  1  0.50000000  0.50000000  0.50000000  1
  Al  Al0  1  -0.00000000  -0.00000000  -0.00000000  1
  Ag  Ag0  1  0.75000000  0.75000000  0.75000000  1
loop_
_geom_bond_atom_site_label_1
_geom_bond_atom_site_label_2
_geom_bond_distance
_geom_bond_site_symmetry_2
Li0 Li1 2.702376 1_555
Li0 Li1 2.702376 1_554
Li0 Li1 2.702376 1_545
Li0 Li1 2.702376 1_455
Al0 Li0 2.702376 1_555
Al0 Li0 2.702376 1_554
Al0 Li0 2.702376 1_545
Al0 Li0 2.702376 1_455
Ag0 Al0 2.702376 1_666
Ag0 Li1 2.702376 1_555
Ag0 Li1 2.702376 1_556
Ag0 Al0 2.702376 1_665
Ag0 Li1 2.702376 1_565
Ag0 Al0 2.702376 1_656
Ag0 Li1 2.702376 1_655
Ag0 Al0 2.702376 1_566
Ag0 Li0 3.120435 1_556
Ag0 Li0 3.120435 1_665
Ag0 Li0 3.120435 1_566
Ag0 Li0 3.120435 1_565
Ag0 Li0 3.120435 1_656
Ag0 Li0 3.120435 1_655
