# generated using pymatgen
data_Hf16FeTcPt6
_symmetry_space_group_name_H-M   'P 1'
_cell_length_a   8.75132199
_cell_length_b   8.75132282
_cell_length_c   8.75132247
_cell_angle_alpha   59.59154401
_cell_angle_beta   59.59155007
_cell_angle_gamma   59.59154219
_symmetry_Int_Tables_number   1
_chemical_formula_structural   Hf16FeTcPt6
_chemical_formula_sum   'Hf16 Fe1 Tc1 Pt6'
_cell_volume   469.52114568
_cell_formula_units_Z   1
loop_
 _symmetry_equiv_pos_site_id
 _symmetry_equiv_pos_as_xyz
  1  'x, y, z'
loop_
 _atom_site_type_symbol
 _atom_site_label
 _atom_site_symmetry_multiplicity
 _atom_site_fract_x
 _atom_site_fract_y
 _atom_site_fract_z
 _atom_site_occupancy
  Hf  Hf0  1  0.12969867  0.12969867  0.12969867  1
  Hf  Hf1  1  0.66698276  0.10484353  0.10484353  1
  Hf  Hf2  1  0.10484353  0.66698276  0.10484353  1
  Hf  Hf3  1  0.10484353  0.10484353  0.66698276  1
  Hf  Hf4  1  0.68348675  0.31034711  0.68348675  1
  Hf  Hf5  1  0.94952094  0.55174990  0.55174990  1
  Hf  Hf6  1  0.57204115  0.93727411  0.93727411  1
  Hf  Hf7  1  0.93727411  0.57204115  0.93727411  1
  Hf  Hf8  1  0.55174990  0.55174990  0.94952094  1
  Hf  Hf9  1  0.93727411  0.93727411  0.57204115  1
  Hf  Hf10  1  0.68348675  0.68348675  0.31034711  1
  Hf  Hf11  1  0.31034711  0.68348675  0.68348675  1
  Hf  Hf12  1  0.67608048  0.31133034  0.31133034  1
  Hf  Hf13  1  0.31133034  0.31133034  0.67608048  1
  Hf  Hf14  1  0.55174990  0.94952094  0.55174990  1
  Hf  Hf15  1  0.31133034  0.67608048  0.31133034  1
  Fe  Fe0  1  0.89259734  0.89259734  0.89259734  1
  Tc  Tc0  1  0.33283625  0.33283625  0.33283625  1
  Pt  Pt0  1  0.30113827  0.90727734  0.90727734  1
  Pt  Pt1  1  0.90727734  0.30113827  0.90727734  1
  Pt  Pt2  1  0.90727734  0.90727734  0.30113827  1
  Pt  Pt3  1  0.35169170  0.97345270  0.35169170  1
  Pt  Pt4  1  0.35169170  0.35169170  0.97345270  1
  Pt  Pt5  1  0.97345270  0.35169170  0.35169170  1
loop_
_geom_bond_atom_site_label_1
_geom_bond_atom_site_label_2
_geom_bond_distance
_geom_bond_site_symmetry_2
Hf0 Pt1 2.784124 1_454
Hf0 Pt2 2.784124 1_445
Hf0 Pt0 2.784124 1_544
Hf0 Pt3 2.803661 1_545
Hf0 Pt4 2.803661 1_554
Hf0 Pt5 2.803661 1_455
Hf0 Hf7 3.213916 1_454
Hf0 Hf6 3.213916 1_544
Hf0 Hf9 3.213917 1_445
Hf0 Hf12 3.254890 1_455
Hf0 Hf15 3.254890 1_545
Hf0 Hf13 3.254890 1_554
Hf1 Pt2 2.707783 1_545
Hf1 Pt1 2.707784 1_554
Hf1 Pt4 2.874933 1_554
Hf1 Pt3 2.874934 1_545
Hf1 Tc0 2.954696 1_555
Hf1 Hf6 3.104058 1_544
Hf1 Hf4 3.140518 1_554
Hf1 Hf10 3.140518 1_545
Hf1 Hf12 3.183389 1_555
Hf1 Hf8 3.189674 1_554
Hf1 Hf14 3.189674 1_545
Hf2 Pt0 2.707784 1_554
Hf2 Pt2 2.707784 1_455
Hf2 Pt4 2.874934 1_554
Hf2 Pt5 2.874934 1_455
Hf2 Tc0 2.954696 1_555
Hf2 Hf7 3.104058 1_454
Hf2 Hf8 3.189674 1_554
Hf2 Hf5 3.189674 1_455
Hf3 Pt0 2.707783 1_545
Hf3 Pt1 2.707784 1_455
Hf3 Pt5 2.874933 1_455
Hf3 Pt3 2.874934 1_545
Hf3 Tc0 2.954696 1_555
Hf3 Hf9 3.104058 1_445
Hf3 Hf4 3.140518 1_455
Hf3 Hf5 3.189674 1_455
Hf4 Pt4 2.721818 1_555
Hf4 Pt5 2.721818 1_555
Hf4 Hf9 3.198981 1_545
Hf4 Hf6 3.198981 1_545
Hf4 Hf5 3.317951 1_555
Hf4 Hf8 3.317951 1_555
Hf4 Pt1 3.352751 1_555
Hf5 Pt2 2.715825 1_555
Hf5 Pt1 2.715825 1_555
Hf5 Pt5 2.921452 1_555
Hf5 Tc0 3.049140 1_655
Hf5 Hf7 3.412776 1_555
Hf5 Hf9 3.412776 1_555
Hf5 Hf8 3.459510 1_555
Hf6 Pt0 2.662352 1_555
Hf6 Pt4 3.230535 1_565
Hf6 Pt3 3.230536 1_556
Hf6 Hf8 3.412776 1_555
Hf7 Pt1 2.662353 1_555
Hf7 Pt4 3.230535 1_655
Hf7 Pt5 3.230535 1_556
Hf7 Hf8 3.412776 1_555
Hf8 Pt1 2.715825 1_555
Hf8 Pt0 2.715825 1_555
Hf8 Pt4 2.921451 1_555
Hf8 Tc0 3.049140 1_556
Hf9 Pt2 2.662352 1_555
Hf9 Pt3 3.230535 1_655
Hf9 Pt5 3.230536 1_565
Hf10 Pt5 2.721817 1_555
Hf10 Pt3 2.721817 1_555
Hf10 Hf2 3.140518 1_655
Hf10 Hf6 3.198981 1_554
Hf10 Hf7 3.198981 1_554
Hf10 Hf4 3.245284 1_555
Hf10 Hf11 3.245284 1_555
Hf10 Hf15 3.285753 1_555
Hf10 Hf12 3.285754 1_555
Hf10 Hf5 3.317951 1_555
Hf10 Hf14 3.317952 1_555
Hf10 Pt2 3.352752 1_555
Hf11 Pt4 2.721817 1_555
Hf11 Pt3 2.721818 1_555
Hf11 Hf3 3.140518 1_565
Hf11 Hf2 3.140518 1_556
Hf11 Hf9 3.198981 1_455
Hf11 Hf7 3.198981 1_455
Hf11 Hf4 3.245284 1_555
Hf11 Hf15 3.285754 1_555
Hf11 Hf13 3.285754 1_555
Hf11 Hf8 3.317951 1_555
Hf11 Hf14 3.317951 1_555
Hf11 Pt0 3.352752 1_555
Hf12 Tc0 2.825801 1_555
Hf12 Pt5 3.001562 1_555
Hf12 Pt2 3.082048 1_545
Hf12 Pt1 3.082048 1_554
Hf12 Hf8 3.172113 1_554
Hf12 Hf14 3.172113 1_545
Hf12 Hf15 3.172319 1_555
Hf12 Hf13 3.172319 1_555
Hf12 Hf4 3.285754 1_555
Hf12 Hf9 3.360077 1_545
Hf12 Hf7 3.360078 1_554
Hf13 Tc0 2.825801 1_555
Hf13 Pt4 3.001562 1_555
Hf13 Pt1 3.082048 1_455
Hf13 Pt0 3.082048 1_545
Hf13 Hf5 3.172112 1_455
Hf13 Hf14 3.172113 1_545
Hf13 Hf15 3.172319 1_555
Hf13 Hf3 3.183389 1_555
Hf13 Hf4 3.285753 1_555
Hf13 Hf6 3.360077 1_545
Hf13 Hf7 3.360078 1_455
Hf14 Pt2 2.715825 1_555
Hf14 Pt0 2.715825 1_555
Hf14 Pt3 2.921451 1_555
Hf14 Tc0 3.049140 1_565
Hf14 Hf3 3.189674 1_565
Hf14 Hf9 3.412775 1_555
Hf14 Hf6 3.412776 1_555
Hf14 Hf5 3.459509 1_555
Hf14 Hf8 3.459509 1_555
Hf15 Tc0 2.825801 1_555
Hf15 Pt3 3.001562 1_555
Hf15 Pt2 3.082047 1_455
Hf15 Pt0 3.082048 1_554
Hf15 Hf5 3.172113 1_455
Hf15 Hf8 3.172113 1_554
Hf15 Hf2 3.183388 1_555
Hf15 Hf9 3.360078 1_455
Hf15 Hf6 3.360078 1_554
Fe0 Hf6 2.471735 1_555
Fe0 Hf9 2.471736 1_555
Fe0 Hf7 2.471736 1_555
Fe0 Hf2 2.620295 1_656
Fe0 Hf1 2.620296 1_566
Fe0 Hf3 2.620296 1_665
Fe0 Hf4 3.147689 1_565
Fe0 Hf11 3.147689 1_655
Fe0 Hf10 3.147689 1_556
Pt3 Tc0 2.987110 1_565
Pt3 Pt5 3.289634 1_465
Pt3 Pt4 3.289635 1_564
Pt4 Tc0 2.987110 1_556
Pt4 Pt5 3.289635 1_456
Pt5 Tc0 2.987110 1_655
