# generated using pymatgen
data_TaS3
_symmetry_space_group_name_H-M   'P 1'
_cell_length_a   3.36249475
_cell_length_b   9.76308648
_cell_length_c   15.08115882
_cell_angle_alpha   108.51259983
_cell_angle_beta   90.00000000
_cell_angle_gamma   90.00000000
_symmetry_Int_Tables_number   1
_chemical_formula_structural   TaS3
_chemical_formula_sum   'Ta6 S18'
_cell_volume   469.47025513
_cell_formula_units_Z   6
loop_
 _symmetry_equiv_pos_site_id
 _symmetry_equiv_pos_as_xyz
  1  'x, y, z'
loop_
 _atom_site_type_symbol
 _atom_site_label
 _atom_site_symmetry_multiplicity
 _atom_site_fract_x
 _atom_site_fract_y
 _atom_site_fract_z
 _atom_site_occupancy
  Ta  Ta0  1  0.25000000  0.47754075  0.11634894  1
  Ta  Ta1  1  0.75000000  0.52245925  0.88365106  1
  Ta  Ta2  1  0.25000000  0.10989779  0.79669043  1
  Ta  Ta3  1  0.75000000  0.89010221  0.20330957  1
  Ta  Ta4  1  0.25000000  0.15580919  0.45861822  1
  Ta  Ta5  1  0.75000000  0.84419081  0.54138178  1
  S  S0  1  0.25000000  0.37548597  0.93578817  1
  S  S1  1  0.75000000  0.62451403  0.06421183  1
  S  S2  1  0.25000000  0.72285405  0.90376873  1
  S  S3  1  0.75000000  0.27714595  0.09623127  1
  S  S4  1  0.25000000  0.56501201  0.77130840  1
  S  S5  1  0.75000000  0.43498799  0.22869160  1
  S  S6  1  0.25000000  0.91050311  0.08864580  1
  S  S7  1  0.75000000  0.08949689  0.91135420  1
  S  S8  1  0.25000000  0.08635961  0.27888747  1
  S  S9  1  0.75000000  0.91364039  0.72111253  1
  S  S10  1  0.25000000  0.72723958  0.24473658  1
  S  S11  1  0.75000000  0.27276042  0.75526342  1
  S  S12  1  0.25000000  0.66960981  0.56865024  1
  S  S13  1  0.75000000  0.33039019  0.43134976  1
  S  S14  1  0.25000000  0.04140167  0.59236489  1
  S  S15  1  0.75000000  0.95859833  0.40763511  1
  S  S16  1  0.25000000  0.67906290  0.43396401  1
  S  S17  1  0.75000000  0.32093610  0.56603599  1
loop_
_geom_bond_atom_site_label_1
_geom_bond_atom_site_label_2
_geom_bond_distance
_geom_bond_site_symmetry_2
S0 Ta1 2.494051 1_555
S0 Ta1 2.494051 1_455
S0 Ta0 2.585517 1_556
S0 Ta2 2.769451 1_555
S1 Ta0 2.494051 1_655
S1 Ta0 2.494051 1_555
S1 Ta1 2.585517 1_554
S1 Ta3 2.769451 1_555
S2 S4 2.100118 1_555
S2 Ta1 2.523783 1_555
S2 Ta1 2.523783 1_455
S3 S5 2.100118 1_555
S3 Ta0 2.523783 1_555
S3 Ta0 2.523783 1_655
S4 Ta1 2.513300 1_455
S4 Ta1 2.513300 1_555
S5 Ta0 2.513300 1_655
S5 Ta0 2.513300 1_555
S6 Ta3 2.464819 1_555
S6 Ta3 2.464819 1_455
S7 Ta2 2.464819 1_555
S7 Ta2 2.464819 1_655
S8 Ta3 2.531843 1_545
S8 Ta3 2.531843 1_445
S8 Ta4 2.576765 1_555
S9 Ta2 2.531843 1_665
S9 Ta2 2.531843 1_565
S9 Ta5 2.576765 1_555
S10 Ta3 2.525074 1_555
S10 Ta3 2.525074 1_455
S10 Ta0 2.587386 1_555
S11 Ta2 2.525074 1_655
S11 Ta2 2.525074 1_555
S11 Ta1 2.587386 1_555
S12 S16 2.062386 1_555
S12 Ta5 2.519121 1_555
S12 Ta5 2.519121 1_455
S13 S17 2.062389 1_555
S13 Ta4 2.519121 1_555
S13 Ta4 2.519121 1_655
S14 Ta5 2.486925 1_445
S14 Ta5 2.486925 1_545
S14 Ta4 2.597468 1_555
S14 Ta2 2.938376 1_555
S15 Ta4 2.486925 1_565
S15 Ta4 2.486925 1_665
S15 Ta5 2.597468 1_555
S15 Ta3 2.938376 1_555
S16 Ta5 2.528145 1_555
S16 Ta5 2.528145 1_455
S17 Ta4 2.528141 1_655
S17 Ta4 2.528141 1_555
