# generated using pymatgen
data_Ta12Ga7Co5C2
_symmetry_space_group_name_H-M   'P 1'
_cell_length_a   8.03216237
_cell_length_b   8.03216114
_cell_length_c   8.03216177
_cell_angle_alpha   60.19491548
_cell_angle_beta   60.19492038
_cell_angle_gamma   60.19492095
_symmetry_Int_Tables_number   1
_chemical_formula_structural   Ta12Ga7Co5C2
_chemical_formula_sum   'Ta12 Ga7 Co5 C2'
_cell_volume   368.04000471
_cell_formula_units_Z   1
loop_
 _symmetry_equiv_pos_site_id
 _symmetry_equiv_pos_as_xyz
  1  'x, y, z'
loop_
 _atom_site_type_symbol
 _atom_site_label
 _atom_site_symmetry_multiplicity
 _atom_site_fract_x
 _atom_site_fract_y
 _atom_site_fract_z
 _atom_site_occupancy
  Ta  Ta0  1  0.05363070  0.05363070  0.44618126  1
  Ta  Ta1  1  0.44551536  0.05452898  0.44551536  1
  Ta  Ta2  1  0.05452898  0.44551536  0.44551536  1
  Ta  Ta3  1  0.44551536  0.44551536  0.05452898  1
  Ta  Ta4  1  0.05363070  0.44618126  0.05363070  1
  Ta  Ta5  1  0.44618126  0.05363070  0.05363070  1
  Ta  Ta6  1  0.19597469  0.19597469  0.80421718  1
  Ta  Ta7  1  0.80412308  0.19300159  0.80412308  1
  Ta  Ta8  1  0.19300159  0.80412308  0.80412308  1
  Ta  Ta9  1  0.80412308  0.80412308  0.19300159  1
  Ta  Ta10  1  0.19597469  0.80421718  0.19597469  1
  Ta  Ta11  1  0.80421718  0.19597469  0.19597469  1
  Ga  Ga0  1  0.41591020  0.41591020  0.75256797  1
  Ga  Ga1  1  0.41591020  0.75256797  0.41591020  1
  Ga  Ga2  1  0.75256797  0.41591020  0.41591020  1
  Ga  Ga3  1  0.41624700  0.41624700  0.41624700  1
  Ga  Ga4  1  0.83387853  0.83387853  0.49954031  1
  Ga  Ga5  1  0.83387853  0.49954031  0.83387853  1
  Ga  Ga6  1  0.49954031  0.83387853  0.83387853  1
  Co  Co0  1  0.82923013  0.82923013  0.82923013  1
  Co  Co1  1  0.62994486  0.62994486  0.12190806  1
  Co  Co2  1  0.62994486  0.12190806  0.62994486  1
  Co  Co3  1  0.12190806  0.62994486  0.62994486  1
  Co  Co4  1  0.62477463  0.62477463  0.62477463  1
  C  C0  1  0.25013989  0.25013989  0.25013989  1
  C  C1  1  0.99970914  0.99970914  0.99970914  1
loop_
_geom_bond_atom_site_label_1
_geom_bond_atom_site_label_2
_geom_bond_distance
_geom_bond_site_symmetry_2
Ga0 Ta3 2.683012 1_556
Ga0 Ta5 2.694474 1_556
Ga0 Ta4 2.694474 1_556
Ga0 Ga3 2.698698 1_555
Ga0 Ga1 2.712052 1_555
Ga0 Ga2 2.712053 1_555
Ga0 Ta6 2.838801 1_555
Ga0 Ta8 2.845493 1_555
Ga0 Ta7 2.845493 1_555
Ga1 Ta1 2.683012 1_565
Ga1 Ta5 2.694474 1_565
Ga1 Ta0 2.694474 1_565
Ga1 Ga3 2.698698 1_555
Ga1 Ga2 2.712053 1_555
Ga1 Ta10 2.838801 1_555
Ga1 Ta8 2.845493 1_555
Ga1 Ta9 2.845493 1_555
Ga2 Ta2 2.683012 1_655
Ga2 Ta0 2.694474 1_655
Ga2 Ta4 2.694474 1_655
Ga2 Ga3 2.698698 1_555
Ga2 Ta11 2.838801 1_555
Ga2 Ta9 2.845492 1_555
Ga2 Ta7 2.845493 1_555
Ga3 Ta1 2.692342 1_555
Ga3 Ta3 2.692343 1_555
Ga3 Ta2 2.692343 1_555
Ga3 Ta10 2.849825 1_555
Ga3 Ta6 2.849825 1_555
Ga3 Ta11 2.849825 1_555
Ga4 Ga5 2.693366 1_555
Ga4 Ga6 2.693367 1_555
Ga4 Ta11 2.701817 1_565
Ga4 Ta10 2.701817 1_655
Ga4 Ta9 2.720897 1_555
Ga4 Ta0 2.829809 1_665
Ga4 Ta2 2.853978 1_655
Ga4 Ta1 2.853978 1_565
Ga5 Ga6 2.693367 1_555
Ga5 Ta11 2.701817 1_556
Ga5 Ta6 2.701817 1_655
Ga5 Ta7 2.720897 1_555
Ga5 Ta4 2.829809 1_656
Ga5 Ta2 2.853978 1_655
Ga5 Ta3 2.853978 1_556
Ga6 Ta6 2.701817 1_565
Ga6 Ta10 2.701817 1_556
Ga6 Ta8 2.720897 1_555
Ga6 Ta5 2.829809 1_566
Ga6 Ta3 2.853977 1_556
Ga6 Ta1 2.853978 1_565
Co0 Co1 2.390904 1_556
Co0 Co2 2.390904 1_565
Co0 Co3 2.390904 1_655
Co0 Ga5 2.611541 1_555
Co0 Ga4 2.611541 1_555
Co0 Ga6 2.611541 1_555
Co0 Ta7 2.736343 1_565
Co0 Ta9 2.736343 1_556
Co0 Ta8 2.736344 1_655
Co0 Ta4 2.857886 1_656
Co0 Ta0 2.857886 1_665
Co0 Ta5 2.857887 1_566
Co1 Ga6 2.463461 1_554
Co1 Ga5 2.463461 1_554
Co1 Ga2 2.468855 1_555
Co1 Ga1 2.468855 1_555
Co1 Ga3 2.518427 1_555
Co1 Ta9 2.788321 1_555
Co1 Ta5 2.831346 1_565
Co1 Ta4 2.831347 1_655
Co1 Ta11 2.894727 1_555
Co1 Ta10 2.894727 1_555
Co1 Ta3 2.908140 1_555
Co2 Ga6 2.463460 1_545
Co2 Ga4 2.463461 1_545
Co2 Ga2 2.468855 1_555
Co2 Ga0 2.468855 1_555
Co2 Ga3 2.518428 1_555
Co2 Ta7 2.788321 1_555
Co2 Ta5 2.831347 1_556
Co2 Ta0 2.831347 1_655
Co2 Ta11 2.894727 1_555
Co2 Ta6 2.894727 1_555
Co2 Ta1 2.908140 1_555
Co3 Ga5 2.463461 1_455
Co3 Ga4 2.463461 1_455
Co3 Ga1 2.468855 1_555
Co3 Ga0 2.468855 1_555
Co3 Ga3 2.518428 1_555
Co3 Ta8 2.788321 1_555
Co3 Ta0 2.831346 1_565
Co3 Ta4 2.831347 1_556
Co3 Ta6 2.894727 1_555
Co3 Ta10 2.894727 1_555
Co3 Ta2 2.908140 1_555
Co4 Ga0 2.461026 1_555
Co4 Ga2 2.461026 1_555
Co4 Ga1 2.461026 1_555
Co4 Ga4 2.469599 1_555
Co4 Ga6 2.469599 1_555
Co4 Ga5 2.469599 1_555
Co4 Ta1 2.870695 1_565
Co4 Ta3 2.870695 1_556
Co4 Ta2 2.870695 1_655
Co4 Ta7 2.882345 1_555
Co4 Ta9 2.882345 1_555
Co4 Ta8 2.882345 1_555
C0 Ta3 2.222586 1_555
C0 Ta2 2.222586 1_555
C0 Ta1 2.222586 1_555
C0 Ta0 2.235462 1_555
C0 Ta5 2.235462 1_555
C0 Ta4 2.235462 1_555
C1 Ta9 2.224973 1_556
C1 Ta8 2.224973 1_655
C1 Ta7 2.224973 1_565
C1 Ta6 2.232686 1_665
C1 Ta11 2.232686 1_566
C1 Ta10 2.232686 1_656
