# generated using pymatgen
data_Sr2Ni3H10
_symmetry_space_group_name_H-M   'P 1'
_cell_length_a   8.00950353
_cell_length_b   8.00950395
_cell_length_c   8.05364444
_cell_angle_alpha   71.14626878
_cell_angle_beta   71.14626623
_cell_angle_gamma   35.97928962
_symmetry_Int_Tables_number   1
_chemical_formula_structural   Sr2Ni3H10
_chemical_formula_sum   'Sr4 Ni6 H20'
_cell_volume   285.47628015
_cell_formula_units_Z   2
loop_
 _symmetry_equiv_pos_site_id
 _symmetry_equiv_pos_as_xyz
  1  'x, y, z'
loop_
 _atom_site_type_symbol
 _atom_site_label
 _atom_site_symmetry_multiplicity
 _atom_site_fract_x
 _atom_site_fract_y
 _atom_site_fract_z
 _atom_site_occupancy
  Sr  Sr0  1  0.30187761  0.30187761  0.28374729  1
  Sr  Sr1  1  0.69812239  0.69812239  0.71625271  1
  Sr  Sr2  1  0.39562227  0.39562227  0.73835361  1
  Sr  Sr3  1  0.60437773  0.60437773  0.26164639  1
  Ni  Ni0  1  0.08470662  0.08470662  0.49393211  1
  Ni  Ni1  1  0.91529338  0.91529338  0.50606789  1
  Ni  Ni2  1  0.17858895  0.17858895  0.99853395  1
  Ni  Ni3  1  0.82141105  0.82141105  0.00146605  1
  Ni  Ni4  1  0.75175545  0.24824455  0.00000000  1
  Ni  Ni5  1  0.24824455  0.75175545  1.00000000  1
  H  H0  1  0.86606870  0.34646928  0.99445664  1
  H  H1  1  0.34646928  0.86606870  0.99445664  1
  H  H2  1  0.13393130  0.65353072  0.00554336  1
  H  H3  1  0.65353072  0.13393130  0.00554336  1
  H  H4  1  0.91962544  0.38868186  0.48815784  1
  H  H5  1  0.38868186  0.91962544  0.48815784  1
  H  H6  1  0.08037456  0.61131814  0.51184216  1
  H  H7  1  0.61131814  0.08037456  0.51184216  1
  H  H8  1  0.02407212  0.02407212  0.86092272  1
  H  H9  1  0.97592788  0.97592788  0.13907728  1
  H  H10  1  0.14432980  0.14432980  0.21080930  1
  H  H11  1  0.85567020  0.85567020  0.78919070  1
  H  H12  1  0.22154968  0.22154968  0.79169584  1
  H  H13  1  0.77845032  0.77845032  0.20830416  1
  H  H14  1  0.52542606  0.52542606  0.85574949  1
  H  H15  1  0.47457394  0.47457394  0.14425051  1
  H  H16  1  0.79818515  0.20181485  0.50000000  1
  H  H17  1  0.20181485  0.79818515  0.50000000  1
  H  H18  1  0.00000000  0.50000000  0.00000000  1
  H  H19  1  0.50000000  0.00000000  0.00000000  1
loop_
_geom_bond_atom_site_label_1
_geom_bond_atom_site_label_2
_geom_bond_distance
_geom_bond_site_symmetry_2
H0 Ni4 1.604976 1_556
H0 Ni2 1.628486 1_655
H0 Sr3 2.498246 1_556
H0 Sr1 2.549502 1_555
H1 Ni5 1.604976 1_555
H1 Ni2 1.628486 1_565
H1 Sr3 2.498247 1_556
H1 Sr1 2.549502 1_555
H2 Ni5 1.604976 1_554
H2 Ni3 1.628486 1_455
H2 Sr2 2.498246 1_554
H2 Sr0 2.549502 1_555
H3 Ni4 1.604976 1_555
H3 Ni3 1.628486 1_545
H3 Sr2 2.498247 1_554
H3 Sr0 2.549502 1_555
H4 Ni0 1.560313 1_655
H4 Sr1 2.526767 1_555
H4 Sr3 2.562832 1_555
H4 Sr0 2.569885 1_655
H5 Ni0 1.560313 1_565
H5 Sr1 2.526767 1_555
H5 Sr3 2.562832 1_555
H5 Sr0 2.569886 1_565
H6 Ni1 1.560313 1_455
H6 Sr0 2.526767 1_555
H6 Sr2 2.562832 1_555
H6 Sr1 2.569885 1_455
H7 Ni1 1.560313 1_545
H7 Sr0 2.526767 1_555
H7 Sr2 2.562832 1_555
H7 Sr1 2.569886 1_545
H8 Ni4 1.618124 1_456
H8 Ni5 1.618124 1_545
H9 Ni5 1.618124 1_654
H9 Ni4 1.618124 1_565
H10 Ni2 1.608966 1_554
H10 Ni0 2.148688 1_555
H10 Sr3 2.547149 1_455
H10 Sr3 2.547150 1_545
H10 Sr0 2.658012 1_555
H11 Ni3 1.608966 1_556
H11 Ni1 2.148688 1_555
H11 Sr2 2.547149 1_655
H11 Sr2 2.547150 1_565
H11 Sr1 2.658012 1_555
H12 Ni2 1.569205 1_555
H12 Sr2 2.538547 1_555
H12 Sr1 2.600599 1_455
H12 Sr1 2.600599 1_545
H13 Ni3 1.569205 1_555
H13 Sr3 2.538547 1_555
H13 Sr0 2.600599 1_655
H13 Sr0 2.600599 1_565
H14 Ni5 1.656879 1_555
H14 Ni4 1.656879 1_556
H14 Sr2 2.464892 1_555
H14 Sr1 2.485270 1_555
H15 Ni4 1.656879 1_555
H15 Ni5 1.656879 1_554
H15 Sr3 2.464892 1_555
H15 Sr0 2.485270 1_555
H16 Ni0 1.619272 1_655
H16 Ni1 1.619273 1_545
H16 Sr2 2.513134 1_555
H16 Sr3 2.513134 1_555
H17 Ni1 1.619272 1_455
H17 Ni0 1.619273 1_565
H17 Sr3 2.513134 1_555
H17 Sr2 2.513134 1_555
H18 Ni3 1.649978 1_455
H18 Ni2 1.649978 1_554
H18 Sr2 2.777720 1_554
H18 Sr3 2.777720 1_455
H19 Ni3 1.649978 1_545
H19 Ni2 1.649978 1_554
H19 Sr2 2.777720 1_554
H19 Sr3 2.777720 1_545
