# generated using pymatgen
data_HoPbAu
_symmetry_space_group_name_H-M   'P 1'
_cell_length_a   4.78266844
_cell_length_b   4.78266921
_cell_length_c   4.78266775
_cell_angle_alpha   59.99999593
_cell_angle_beta   59.99999061
_cell_angle_gamma   60.00000320
_symmetry_Int_Tables_number   1
_chemical_formula_structural   HoPbAu
_chemical_formula_sum   'Ho1 Pb1 Au1'
_cell_volume   77.35631959
_cell_formula_units_Z   1
loop_
 _symmetry_equiv_pos_site_id
 _symmetry_equiv_pos_as_xyz
  1  'x, y, z'
loop_
 _atom_site_type_symbol
 _atom_site_label
 _atom_site_symmetry_multiplicity
 _atom_site_fract_x
 _atom_site_fract_y
 _atom_site_fract_z
 _atom_site_occupancy
  Ho  Ho0  1  0.50000000  0.50000000  0.50000000  1
  Pb  Pb0  1  0.00000000  0.00000000  -0.00000000  1
  Au  Au0  1  0.25000000  0.25000000  0.25000000  1
loop_
_geom_bond_atom_site_label_1
_geom_bond_atom_site_label_2
_geom_bond_distance
_geom_bond_site_symmetry_2
Ho0 Pb0 3.381857 1_556
Ho0 Pb0 3.381857 1_665
Ho0 Pb0 3.381857 1_565
Ho0 Pb0 3.381857 1_656
Ho0 Pb0 3.381857 1_566
Ho0 Pb0 3.381857 1_655
Au0 Ho0 2.928774 1_554
Au0 Pb0 2.928774 1_556
Au0 Pb0 2.928774 1_655
Au0 Ho0 2.928774 1_455
Au0 Pb0 2.928774 1_555
Au0 Ho0 2.928774 1_555
Au0 Ho0 2.928775 1_545
Au0 Pb0 2.928775 1_565
