# generated using pymatgen
data_KSrAsS3
_symmetry_space_group_name_H-M   'P 1'
_cell_length_a   8.50554404
_cell_length_b   8.74506630
_cell_length_c   8.99514133
_cell_angle_alpha   73.18427629
_cell_angle_beta   90.00000000
_cell_angle_gamma   90.00000000
_symmetry_Int_Tables_number   1
_chemical_formula_structural   KSrAsS3
_chemical_formula_sum   'K4 Sr4 As4 S12'
_cell_volume   640.46307762
_cell_formula_units_Z   4
loop_
 _symmetry_equiv_pos_site_id
 _symmetry_equiv_pos_as_xyz
  1  'x, y, z'
loop_
 _atom_site_type_symbol
 _atom_site_label
 _atom_site_symmetry_multiplicity
 _atom_site_fract_x
 _atom_site_fract_y
 _atom_site_fract_z
 _atom_site_occupancy
  K  K0  1  0.58425384  0.22119340  0.40856450  1
  K  K1  1  0.08425384  0.27880660  0.59143550  1
  K  K2  1  0.41574616  0.77880660  0.59143550  1
  K  K3  1  0.91574616  0.72119340  0.40856450  1
  Sr  Sr0  1  0.21473526  0.46784001  0.07457051  1
  Sr  Sr1  1  0.71473526  0.03215999  0.92542949  1
  Sr  Sr2  1  0.78526474  0.53215999  0.92542949  1
  Sr  Sr3  1  0.28526474  0.96784001  0.07457051  1
  As  As0  1  0.95652694  0.14213698  0.23838026  1
  As  As1  1  0.45652694  0.35786302  0.76161974  1
  As  As2  1  0.04347306  0.85786302  0.76161974  1
  As  As3  1  0.54347306  0.64213698  0.23838026  1
  S  S0  1  0.69703883  0.40890766  0.65910406  1
  S  S1  1  0.19703883  0.09109234  0.34089594  1
  S  S2  1  0.30296117  0.59109234  0.34089594  1
  S  S3  1  0.80296117  0.90890766  0.65910406  1
  S  S4  1  0.51237903  0.28097452  0.02291188  1
  S  S5  1  0.01237903  0.21902548  0.97708812  1
  S  S6  1  0.48762097  0.71902548  0.97708812  1
  S  S7  1  0.98762097  0.78097452  0.02291188  1
  S  S8  1  0.90608266  0.38554251  0.26073884  1
  S  S9  1  0.40608266  0.11445749  0.73926116  1
  S  S10  1  0.09391734  0.61445749  0.73926116  1
  S  S11  1  0.59391734  0.88554251  0.26073884  1
loop_
_geom_bond_atom_site_label_1
_geom_bond_atom_site_label_2
_geom_bond_distance
_geom_bond_site_symmetry_2
K0 S8 3.197034 1_555
K0 S9 3.226444 1_555
K0 S0 3.291565 1_555
K0 S4 3.410527 1_555
K0 S3 3.526540 1_545
K0 S11 3.556557 1_545
K0 S1 3.593414 1_555
K1 S9 3.197034 1_555
K1 S8 3.226444 1_455
K1 S1 3.291565 1_555
K1 S5 3.410527 1_555
K1 S2 3.526540 1_555
K1 S10 3.556557 1_555
K1 S0 3.593414 1_455
K2 S10 3.197034 1_555
K2 S11 3.226444 1_555
K2 S2 3.291565 1_555
K2 S6 3.410527 1_555
K2 S1 3.526540 1_565
K2 S9 3.556557 1_565
K2 S3 3.593414 1_555
K3 S11 3.197034 1_555
K3 S10 3.226444 1_655
K3 S3 3.291565 1_555
K3 S7 3.410527 1_555
K3 S0 3.526540 1_555
K3 S8 3.556557 1_555
K3 S2 3.593414 1_655
As0 S1 2.235233 1_655
As0 S8 2.236774 1_555
As0 S5 2.299477 1_654
As0 K3 3.571322 1_545
As0 K0 3.668754 1_555
As1 S0 2.235233 1_555
As1 S9 2.236774 1_555
As1 S4 2.299477 1_556
As1 K2 3.571322 1_555
As1 K1 3.668754 1_555
As2 S3 2.235233 1_455
As2 S10 2.236774 1_555
As2 S7 2.299477 1_456
As2 K1 3.571322 1_565
As2 K2 3.668754 1_555
As3 S2 2.235233 1_555
As3 S11 2.236774 1_555
As3 S6 2.299477 1_554
As3 K0 3.571322 1_555
As3 K3 3.668754 1_555
S0 Sr2 2.992981 1_555
S0 Sr1 3.471302 1_555
S1 Sr3 2.992981 1_545
S1 Sr0 3.471302 1_555
S2 Sr0 2.992981 1_555
S2 Sr3 3.471302 1_555
S3 Sr1 2.992981 1_565
S3 Sr2 3.471302 1_555
S4 Sr1 3.093498 1_554
S4 Sr0 3.120070 1_555
S4 Sr2 3.141158 1_554
S4 Sr3 3.272615 1_545
S5 Sr0 3.093498 1_556
S5 Sr1 3.120070 1_455
S5 Sr3 3.141158 1_546
S5 Sr2 3.272615 1_455
S6 Sr3 3.093498 1_556
S6 Sr2 3.120070 1_555
S6 Sr0 3.141158 1_556
S6 Sr1 3.272615 1_565
S7 Sr2 3.093498 1_554
S7 Sr3 3.120070 1_655
S7 Sr1 3.141158 1_564
S7 Sr0 3.272615 1_655
S8 Sr0 3.084954 1_655
S8 Sr2 3.091866 1_554
S9 Sr1 3.084954 1_555
S9 Sr3 3.091866 1_546
S10 Sr2 3.084954 1_455
S10 Sr0 3.091866 1_556
S11 Sr3 3.084954 1_555
S11 Sr1 3.091866 1_564
