# generated using pymatgen
data_Cs16YSnBi8
_symmetry_space_group_name_H-M   'P 1'
_cell_length_a   12.77108755
_cell_length_b   12.77108750
_cell_length_c   12.77108747
_cell_angle_alpha   60.00000008
_cell_angle_beta   60.00000019
_cell_angle_gamma   60.00000147
_symmetry_Int_Tables_number   1
_chemical_formula_structural   Cs16YSnBi8
_chemical_formula_sum   'Cs16 Y1 Sn1 Bi8'
_cell_volume   1472.88435721
_cell_formula_units_Z   1
loop_
 _symmetry_equiv_pos_site_id
 _symmetry_equiv_pos_as_xyz
  1  'x, y, z'
loop_
 _atom_site_type_symbol
 _atom_site_label
 _atom_site_symmetry_multiplicity
 _atom_site_fract_x
 _atom_site_fract_y
 _atom_site_fract_z
 _atom_site_occupancy
  Cs  Cs0  1  0.62210992  0.13366925  0.62210992  1
  Cs  Cs1  1  0.62210992  0.62210992  0.13366925  1
  Cs  Cs2  1  0.13366925  0.62210992  0.62210992  1
  Cs  Cs3  1  0.62210992  0.62210992  0.62210992  1
  Cs  Cs4  1  0.02200749  0.02200749  0.47799251  1
  Cs  Cs5  1  0.77904485  0.22095515  0.22095515  1
  Cs  Cs6  1  0.22095515  0.77904485  0.77904485  1
  Cs  Cs7  1  0.77904485  0.77904485  0.22095515  1
  Cs  Cs8  1  0.77904485  0.22095515  0.77904485  1
  Cs  Cs9  1  0.22095515  0.77904485  0.22095515  1
  Cs  Cs10  1  0.47799251  0.02200749  0.47799251  1
  Cs  Cs11  1  0.47799251  0.02200749  0.02200749  1
  Cs  Cs12  1  0.02200749  0.47799251  0.47799251  1
  Cs  Cs13  1  0.02200749  0.47799251  0.02200749  1
  Cs  Cs14  1  0.22095515  0.22095515  0.77904485  1
  Cs  Cs15  1  0.47799251  0.47799251  0.02200749  1
  Y  Y0  1  0.75000000  0.75000000  0.75000000  1
  Sn  Sn0  1  0.50000000  0.50000000  0.50000000  1
  Bi  Bi0  1  0.40232588  0.79302135  0.40232588  1
  Bi  Bi1  1  0.85061707  0.85061707  0.44814778  1
  Bi  Bi2  1  0.44814778  0.85061707  0.85061707  1
  Bi  Bi3  1  0.85061707  0.85061707  0.85061707  1
  Bi  Bi4  1  0.79302135  0.40232588  0.40232588  1
  Bi  Bi5  1  0.40232588  0.40232588  0.40232588  1
  Bi  Bi6  1  0.40232588  0.40232588  0.79302135  1
  Bi  Bi7  1  0.85061707  0.44814778  0.85061707  1
loop_
_geom_bond_atom_site_label_1
_geom_bond_atom_site_label_2
_geom_bond_distance
_geom_bond_site_symmetry_2
Cs0 Sn0 3.819932 1_555
Cs0 Y0 4.000730 1_545
Cs1 Sn0 3.819932 1_555
Cs1 Y0 4.000730 1_554
Cs2 Sn0 3.819932 1_555
Cs2 Y0 4.000730 1_455
Cs3 Sn0 3.819922 1_555
Cs3 Y0 4.000740 1_555
Bi0 Sn0 3.055495 1_555
Bi0 Cs2 4.018300 1_555
Bi0 Cs3 4.018300 1_555
Bi0 Cs1 4.018300 1_555
Bi0 Cs9 4.117586 1_555
Bi0 Cs6 4.117597 1_555
Bi0 Cs7 4.117597 1_555
Bi0 Cs11 4.123771 1_565
Bi0 Cs4 4.123771 1_565
Bi0 Cs10 4.123780 1_565
Bi1 Y0 3.147579 1_555
Bi1 Cs12 4.023286 1_655
Bi1 Cs10 4.023286 1_565
Bi1 Cs4 4.023297 1_665
Bi1 Cs7 4.028577 1_555
Bi1 Cs5 4.028586 1_565
Bi1 Cs9 4.028586 1_655
Bi1 Cs3 4.185454 1_555
Bi1 Cs0 4.185454 1_565
Bi1 Cs2 4.185454 1_655
Bi2 Y0 3.147579 1_555
Bi2 Cs10 4.023286 1_565
Bi2 Cs15 4.023286 1_556
Bi2 Cs11 4.023297 1_566
Bi2 Cs6 4.028577 1_555
Bi2 Cs9 4.028586 1_556
Bi2 Cs14 4.028586 1_565
Bi2 Cs0 4.185454 1_565
Bi2 Cs1 4.185454 1_556
Bi2 Cs3 4.185454 1_555
Bi3 Y0 3.147568 1_555
Bi3 Cs4 4.023289 1_665
Bi3 Cs13 4.023289 1_656
Bi3 Cs11 4.023289 1_566
Bi3 Cs7 4.028589 1_556
Bi3 Cs8 4.028589 1_565
Bi3 Cs6 4.028589 1_655
Bi3 Cs1 4.185454 1_556
Bi3 Cs0 4.185454 1_565
Bi3 Cs2 4.185454 1_655
Bi4 Sn0 3.055495 1_555
Bi4 Cs0 4.018300 1_555
Bi4 Cs3 4.018300 1_555
Bi4 Cs1 4.018300 1_555
Bi4 Cs5 4.117586 1_555
Bi4 Cs8 4.117597 1_555
Bi4 Cs7 4.117597 1_555
Bi4 Cs13 4.123771 1_655
Bi4 Cs4 4.123771 1_655
Bi4 Cs12 4.123780 1_655
Bi5 Sn0 3.055505 1_555
Bi5 Cs1 4.018300 1_555
Bi5 Cs0 4.018300 1_555
Bi5 Cs2 4.018300 1_555
Bi5 Cs14 4.117594 1_555
Bi5 Cs9 4.117594 1_555
Bi5 Cs5 4.117594 1_555
Bi5 Cs15 4.123768 1_555
Bi5 Cs10 4.123768 1_555
Bi5 Cs12 4.123768 1_555
Bi6 Sn0 3.055495 1_555
Bi6 Cs3 4.018300 1_555
Bi6 Cs0 4.018300 1_555
Bi6 Cs2 4.018300 1_555
Bi6 Cs14 4.117586 1_555
Bi6 Cs6 4.117597 1_555
Bi6 Cs8 4.117597 1_555
Bi6 Cs11 4.123771 1_556
Bi6 Cs13 4.123771 1_556
Bi6 Cs15 4.123780 1_556
Bi7 Y0 3.147579 1_555
Bi7 Cs12 4.023286 1_655
Bi7 Cs15 4.023286 1_556
Bi7 Cs13 4.023297 1_656
Bi7 Cs8 4.028577 1_555
Bi7 Cs5 4.028586 1_556
Bi7 Cs14 4.028586 1_655
Bi7 Cs2 4.185454 1_655
Bi7 Cs1 4.185454 1_556
Bi7 Cs3 4.185454 1_555
