# generated using pymatgen
data_TaMnOsF12
_symmetry_space_group_name_H-M   'P 1'
_cell_length_a   5.10821382
_cell_length_b   5.51002538
_cell_length_c   8.80963705
_cell_angle_alpha   74.13415818
_cell_angle_beta   89.31833639
_cell_angle_gamma   63.09104335
_symmetry_Int_Tables_number   1
_chemical_formula_structural   TaMnOsF12
_chemical_formula_sum   'Ta1 Mn1 Os1 F12'
_cell_volume   210.87334758
_cell_formula_units_Z   1
loop_
 _symmetry_equiv_pos_site_id
 _symmetry_equiv_pos_as_xyz
  1  'x, y, z'
loop_
 _atom_site_type_symbol
 _atom_site_label
 _atom_site_symmetry_multiplicity
 _atom_site_fract_x
 _atom_site_fract_y
 _atom_site_fract_z
 _atom_site_occupancy
  Ta  Ta0  1  0.23491237  0.98571292  0.77339034  1
  Mn  Mn0  1  0.50527262  0.49993428  0.50010779  1
  Os  Os0  1  0.76579985  0.00768167  0.23624850  1
  F  F0  1  0.95249060  0.23673185  0.20038899  1
  F  F1  1  0.05370949  0.75344788  0.79676095  1
  F  F2  1  0.02489578  0.76813801  0.12833825  1
  F  F3  1  0.48309974  0.76864289  0.63394886  1
  F  F4  1  0.50869108  0.23818512  0.36297014  1
  F  F5  1  0.95649046  0.23462673  0.57157854  1
  F  F6  1  0.04467966  0.76285057  0.43110535  1
  F  F7  1  0.42147508  0.23308488  0.69382662  1
  F  F8  1  0.57543815  0.76399260  0.29722700  1
  F  F9  1  0.52012720  0.77220156  0.94933891  1
  F  F10  1  0.48846379  0.23376457  0.05622527  1
  F  F11  1  0.96445612  0.24100549  0.86854250  1
loop_
_geom_bond_atom_site_label_1
_geom_bond_atom_site_label_2
_geom_bond_distance
_geom_bond_site_symmetry_2
F0 Os0 1.861811 1_555
F1 Ta0 1.860283 1_555
F2 Os0 1.863457 1_465
F3 Ta0 1.985113 1_555
F3 Mn0 2.096376 1_555
F4 Os0 1.953159 1_555
F4 Mn0 2.114088 1_555
F5 Ta0 2.006495 1_645
F5 Mn0 2.080266 1_555
F6 Os0 1.961774 1_465
F6 Mn0 2.114535 1_555
F7 Ta0 1.973535 1_545
F7 Mn0 2.106636 1_555
F8 Os0 1.952462 1_565
F8 Mn0 2.115367 1_555
F9 Ta0 1.847856 1_555
F10 Os0 1.857383 1_555
F11 Ta0 1.856929 1_645
