# generated using pymatgen
data_SbP2NCl12
_symmetry_space_group_name_H-M   'P 1'
_cell_length_a   8.09074357
_cell_length_b   8.09074364
_cell_length_c   15.50577149
_cell_angle_alpha   78.40294593
_cell_angle_beta   78.40294774
_cell_angle_gamma   65.31440290
_symmetry_Int_Tables_number   1
_chemical_formula_structural   SbP2NCl12
_chemical_formula_sum   'Sb2 P4 N2 Cl24'
_cell_volume   895.57527941
_cell_formula_units_Z   2
loop_
 _symmetry_equiv_pos_site_id
 _symmetry_equiv_pos_as_xyz
  1  'x, y, z'
loop_
 _atom_site_type_symbol
 _atom_site_label
 _atom_site_symmetry_multiplicity
 _atom_site_fract_x
 _atom_site_fract_y
 _atom_site_fract_z
 _atom_site_occupancy
  Sb  Sb0  1  0.00000000  0.00000000  0.50000000  1
  Sb  Sb1  1  0.00000000  0.00000000  0.00000000  1
  P  P0  1  0.45878004  0.31818021  0.77118490  1
  P  P1  1  0.68181979  0.54121996  0.72881510  1
  P  P2  1  0.31818021  0.45878004  0.27118490  1
  P  P3  1  0.54121996  0.68181979  0.22881510  1
  N  N0  1  0.62283070  0.37716930  0.75000000  1
  N  N1  1  0.37716930  0.62283070  0.25000000  1
  Cl  Cl0  1  0.69256774  0.22675101  0.01040313  1
  Cl  Cl1  1  0.78076601  0.89495640  0.47227619  1
  Cl  Cl2  1  0.30743226  0.77324899  0.98959687  1
  Cl  Cl3  1  0.91085877  0.48208658  0.64779950  1
  Cl  Cl4  1  0.23339328  0.50122328  0.82636941  1
  Cl  Cl5  1  0.51791342  0.08914123  0.85220050  1
  Cl  Cl6  1  0.10504360  0.21923399  0.02772381  1
  Cl  Cl7  1  0.48208658  0.91085877  0.14779950  1
  Cl  Cl8  1  0.95524415  0.90459698  0.15585630  1
  Cl  Cl9  1  0.77324899  0.30743226  0.48959687  1
  Cl  Cl10  1  0.90459698  0.95524415  0.65585630  1
  Cl  Cl11  1  0.21923399  0.10504360  0.52772381  1
  Cl  Cl12  1  0.89495640  0.78076601  0.97227619  1
  Cl  Cl13  1  0.27204314  0.39611187  0.16460311  1
  Cl  Cl14  1  0.60388813  0.72795686  0.33539689  1
  Cl  Cl15  1  0.09540302  0.04475585  0.34414370  1
  Cl  Cl16  1  0.72795686  0.60388813  0.83539689  1
  Cl  Cl17  1  0.22675101  0.69256774  0.51040313  1
  Cl  Cl18  1  0.04475585  0.09540302  0.84414370  1
  Cl  Cl19  1  0.08914123  0.51791342  0.35220050  1
  Cl  Cl20  1  0.76660672  0.49877672  0.17363059  1
  Cl  Cl21  1  0.49877672  0.76660672  0.67363059  1
  Cl  Cl22  1  0.39611187  0.27204314  0.66460311  1
  Cl  Cl23  1  0.50122328  0.23339328  0.32636941  1
loop_
_geom_bond_atom_site_label_1
_geom_bond_atom_site_label_2
_geom_bond_distance
_geom_bond_site_symmetry_2
N0 P0 1.545376 1_555
N0 P1 1.545376 1_555
N1 P3 1.545376 1_555
N1 P2 1.545376 1_555
Cl0 Sb1 2.392641 1_655
Cl1 Sb0 2.401243 1_665
Cl2 Sb1 2.392641 1_566
Cl3 P1 1.950920 1_555
Cl4 P0 1.969043 1_555
Cl5 P0 1.950920 1_555
Cl6 Sb1 2.401243 1_555
Cl7 P3 1.950920 1_555
Cl8 Sb1 2.387230 1_665
Cl9 Sb0 2.392641 1_655
Cl10 Sb0 2.387230 1_665
Cl11 Sb0 2.401243 1_555
Cl12 Sb1 2.401243 1_666
Cl13 P2 1.967392 1_555
Cl14 P3 1.967392 1_555
Cl15 Sb0 2.387230 1_555
Cl16 P1 1.967392 1_555
Cl17 Sb0 2.392641 1_565
Cl18 Sb1 2.387230 1_556
Cl19 P2 1.950920 1_555
Cl20 P3 1.969043 1_555
Cl21 P1 1.969043 1_555
Cl22 P0 1.967392 1_555
Cl23 P2 1.969043 1_555
