# generated using pymatgen
data_Zr2Nb2WN6
_symmetry_space_group_name_H-M   'P 1'
_cell_length_a   5.26869449
_cell_length_b   5.24481691
_cell_length_c   10.68058505
_cell_angle_alpha   90.00000000
_cell_angle_beta   90.00000000
_cell_angle_gamma   119.85021067
_symmetry_Int_Tables_number   1
_chemical_formula_structural   Zr2Nb2WN6
_chemical_formula_sum   'Zr4 Nb4 W2 N12'
_cell_volume   255.98384627
_cell_formula_units_Z   2
loop_
 _symmetry_equiv_pos_site_id
 _symmetry_equiv_pos_as_xyz
  1  'x, y, z'
loop_
 _atom_site_type_symbol
 _atom_site_label
 _atom_site_symmetry_multiplicity
 _atom_site_fract_x
 _atom_site_fract_y
 _atom_site_fract_z
 _atom_site_occupancy
  Zr  Zr0  1  0.32814364  0.66407232  0.50000000  1
  Zr  Zr1  1  0.66593773  0.33296887  0.00000000  1
  Zr  Zr2  1  0.66593773  0.33296887  0.50000000  1
  Zr  Zr3  1  0.32814364  0.66407232  0.00000000  1
  Nb  Nb0  1  0.99973838  0.32590386  0.25000000  1
  Nb  Nb1  1  0.99973838  0.67383452  0.75000000  1
  Nb  Nb2  1  0.32607608  0.32559209  0.75000000  1
  Nb  Nb3  1  0.32607608  0.00048399  0.25000000  1
  W  W0  1  0.67574120  0.99947049  0.75000000  1
  W  W1  1  0.67574120  0.67627071  0.25000000  1
  N  N0  1  0.34992836  0.34999488  0.37205202  1
  N  N1  1  0.65760397  0.99458675  0.37328542  1
  N  N2  1  0.99464915  0.66013716  0.37287767  1
  N  N3  1  0.99464915  0.33451199  0.87287767  1
  N  N4  1  0.65760397  0.99458675  0.12671458  1
  N  N5  1  0.65760397  0.66301723  0.87328542  1
  N  N6  1  0.34992836  0.99993248  0.87205202  1
  N  N7  1  0.65760397  0.66301723  0.62671458  1
  N  N8  1  0.99464915  0.33451199  0.62712233  1
  N  N9  1  0.99464915  0.66013716  0.12712233  1
  N  N10  1  0.34992836  0.99993248  0.62794798  1
  N  N11  1  0.34992836  0.34999488  0.12794798  1
loop_
_geom_bond_atom_site_label_1
_geom_bond_atom_site_label_2
_geom_bond_distance
_geom_bond_site_symmetry_2
N0 W1 2.156441 1_555
N0 Zr0 2.186869 1_555
N0 Zr2 2.189873 1_555
N0 Nb3 2.201395 1_555
N0 Nb0 2.210751 1_455
N1 W1 2.165425 1_555
N1 Nb3 2.199914 1_565
N1 Zr0 2.203254 1_555
N1 Nb0 2.210123 1_565
N1 Zr2 2.214894 1_565
N2 W1 2.166626 1_555
N2 Zr2 2.197494 1_555
N2 Nb0 2.200659 1_555
N2 Nb3 2.203426 1_665
N2 Zr0 2.212491 1_655
N3 W0 2.166626 1_545
N3 Zr1 2.197494 1_556
N3 Nb1 2.200659 1_555
N3 Nb2 2.203427 1_655
N3 Zr3 2.212493 1_656
N4 W1 2.165425 1_555
N4 Nb3 2.199914 1_565
N4 Zr3 2.203254 1_555
N4 Nb0 2.210123 1_565
N4 Zr1 2.214894 1_565
N5 W0 2.165425 1_555
N5 Nb2 2.199914 1_555
N5 Zr3 2.203256 1_556
N5 Nb1 2.210123 1_555
N5 Zr1 2.214894 1_556
N6 W0 2.156439 1_555
N6 Zr3 2.186861 1_556
N6 Zr1 2.189875 1_566
N6 Nb2 2.201399 1_565
N6 Nb1 2.210749 1_455
N7 W0 2.165425 1_555
N7 Nb2 2.199914 1_555
N7 Zr0 2.203256 1_555
N7 Nb1 2.210123 1_555
N7 Zr2 2.214894 1_555
N8 W0 2.166626 1_545
N8 Zr2 2.197494 1_555
N8 Nb1 2.200659 1_555
N8 Nb2 2.203427 1_655
N8 Zr0 2.212493 1_655
N9 W1 2.166626 1_555
N9 Zr1 2.197494 1_555
N9 Nb0 2.200659 1_555
N9 Nb3 2.203426 1_665
N9 Zr3 2.212491 1_655
N10 W0 2.156439 1_555
N10 Zr0 2.186861 1_555
N10 Zr2 2.189875 1_565
N10 Nb2 2.201399 1_565
N10 Nb1 2.210749 1_455
N11 W1 2.156441 1_555
N11 Zr3 2.186869 1_555
N11 Zr1 2.189873 1_555
N11 Nb3 2.201395 1_555
N11 Nb0 2.210751 1_455
