# generated using pymatgen
data_Ru3Pt(Pb2O7)2
_symmetry_space_group_name_H-M   'P 1'
_cell_length_a   7.25524492
_cell_length_b   7.25524468
_cell_length_c   7.25524551
_cell_angle_alpha   60.61041133
_cell_angle_beta   60.61041534
_cell_angle_gamma   60.61042281
_symmetry_Int_Tables_number   1
_chemical_formula_structural   Ru3Pt(Pb2O7)2
_chemical_formula_sum   'Ru3 Pt1 Pb4 O14'
_cell_volume   273.77089272
_cell_formula_units_Z   1
loop_
 _symmetry_equiv_pos_site_id
 _symmetry_equiv_pos_as_xyz
  1  'x, y, z'
loop_
 _atom_site_type_symbol
 _atom_site_label
 _atom_site_symmetry_multiplicity
 _atom_site_fract_x
 _atom_site_fract_y
 _atom_site_fract_z
 _atom_site_occupancy
  Ru  Ru0  1  0.62500000  0.62500000  0.12500000  1
  Ru  Ru1  1  0.62500000  0.12500000  0.62500000  1
  Ru  Ru2  1  0.12500000  0.62500000  0.62500000  1
  Pt  Pt0  1  0.62500000  0.62500000  0.62500000  1
  Pb  Pb0  1  0.12500000  0.12500000  0.12500000  1
  Pb  Pb1  1  0.62500000  0.12500000  0.12500000  1
  Pb  Pb2  1  0.12500000  0.62500000  0.12500000  1
  Pb  Pb3  1  0.12500000  0.12500000  0.62500000  1
  O  O0  1  0.69878825  0.30123135  0.30123135  1
  O  O1  1  0.70387171  0.29345992  0.70387171  1
  O  O2  1  0.99758481  0.99758481  0.99758481  1
  O  O3  1  0.30123135  0.69878825  0.30123135  1
  O  O4  1  0.70387171  0.70387171  0.29345992  1
  O  O5  1  0.95654008  0.54612829  0.54612829  1
  O  O6  1  0.29345992  0.70387171  0.70387171  1
  O  O7  1  0.25241519  0.25241519  0.25241519  1
  O  O8  1  0.94876865  0.55121175  0.94876865  1
  O  O9  1  0.54612829  0.95654008  0.54612829  1
  O  O10  1  0.54612829  0.54612829  0.95654008  1
  O  O11  1  0.94876865  0.94876865  0.55121175  1
  O  O12  1  0.55121175  0.94876865  0.94876865  1
  O  O13  1  0.30123135  0.30123135  0.69878825  1
loop_
_geom_bond_atom_site_label_1
_geom_bond_atom_site_label_2
_geom_bond_distance
_geom_bond_site_symmetry_2
O0 Ru0 1.982173 1_555
O0 Ru1 1.982173 1_555
O0 Pb1 2.550387 1_555
O0 Pb0 2.583630 1_655
O1 Ru1 1.960359 1_555
O1 Pt0 2.015021 1_555
O1 Pb1 2.542017 1_556
O1 Pb3 2.542018 1_655
O2 Pb2 2.224822 1_656
O2 Pb3 2.224822 1_665
O2 Pb1 2.224822 1_566
O2 Pb0 2.253876 1_666
O3 Ru2 1.982173 1_555
O3 Ru0 1.982173 1_555
O3 Pb2 2.550387 1_555
O3 Pb0 2.583630 1_565
O4 Ru0 1.960359 1_555
O4 Pt0 2.015022 1_555
O4 Pb1 2.542017 1_565
O4 Pb2 2.542017 1_655
O5 Ru2 1.960359 1_655
O5 Pt0 2.015022 1_555
O5 Pb3 2.542017 1_655
O5 Pb2 2.542018 1_655
O6 Ru2 1.960359 1_555
O6 Pt0 2.015022 1_555
O6 Pb3 2.542017 1_565
O6 Pb2 2.542018 1_556
O7 Pb2 2.224822 1_555
O7 Pb3 2.224822 1_555
O7 Pb1 2.224822 1_555
O7 Pb0 2.253876 1_555
O8 Ru2 1.982173 1_655
O8 Ru0 1.982173 1_556
O8 Pb2 2.550387 1_656
O8 Pb0 2.583630 1_656
O9 Ru1 1.960359 1_565
O9 Pt0 2.015021 1_555
O9 Pb1 2.542017 1_565
O9 Pb3 2.542018 1_565
O10 Ru0 1.960359 1_556
O10 Pt0 2.015022 1_555
O10 Pb1 2.542017 1_556
O10 Pb2 2.542017 1_556
O11 Ru2 1.982173 1_655
O11 Ru1 1.982173 1_565
O11 Pb3 2.550387 1_665
O11 Pb0 2.583630 1_665
O12 Ru0 1.982173 1_556
O12 Ru1 1.982173 1_565
O12 Pb1 2.550387 1_566
O12 Pb0 2.583630 1_566
O13 Ru2 1.982173 1_555
O13 Ru1 1.982173 1_555
O13 Pb3 2.550387 1_555
O13 Pb0 2.583630 1_556
