# generated using pymatgen
data_Sc5Al16GeIr7
_symmetry_space_group_name_H-M   'P 1'
_cell_length_a   8.62619765
_cell_length_b   8.71422829
_cell_length_c   8.71423571
_cell_angle_alpha   59.33215010
_cell_angle_beta   60.33380091
_cell_angle_gamma   60.33387096
_symmetry_Int_Tables_number   1
_chemical_formula_structural   Sc5Al16GeIr7
_chemical_formula_sum   'Sc5 Al16 Ge1 Ir7'
_cell_volume   463.09932254
_cell_formula_units_Z   1
loop_
 _symmetry_equiv_pos_site_id
 _symmetry_equiv_pos_as_xyz
  1  'x, y, z'
loop_
 _atom_site_type_symbol
 _atom_site_label
 _atom_site_symmetry_multiplicity
 _atom_site_fract_x
 _atom_site_fract_y
 _atom_site_fract_z
 _atom_site_occupancy
  Sc  Sc0  1  0.79643131  0.20356962  0.20356716  1
  Sc  Sc1  1  0.78028580  0.21971628  0.77539430  1
  Sc  Sc2  1  0.78028513  0.77539356  0.21971741  1
  Sc  Sc3  1  0.22460514  0.77539457  0.21971663  1
  Sc  Sc4  1  0.22460121  0.21971937  0.77539704  1
  Al  Al0  1  0.88065874  0.83620671  0.83620945  1
  Al  Al1  1  0.84762707  0.82214269  0.48261237  1
  Al  Al2  1  0.44692138  0.83621053  0.83620464  1
  Al  Al3  1  0.84762449  0.48261739  0.82213698  1
  Al  Al4  1  0.17785993  0.15237465  0.15237732  1
  Al  Al5  1  0.16379657  0.11933651  0.55307852  1
  Al  Al6  1  0.16379484  0.55307611  0.11933369  1
  Al  Al7  1  0.51738818  0.15237836  0.15237305  1
  Al  Al8  1  0.60909876  0.62130743  0.62133330  1
  Al  Al9  1  0.63165096  0.61812234  0.11857534  1
  Al  Al10  1  0.14825953  0.62131988  0.62131671  1
  Al  Al11  1  0.63164844  0.11857921  0.61812211  1
  Al  Al12  1  0.38187809  0.36834980  0.36834875  1
  Al  Al13  1  0.37867716  0.39090717  0.85174078  1
  Al  Al14  1  0.37867035  0.85174282  0.39090484  1
  Al  Al15  1  0.88142316  0.36834828  0.36835149  1
  Ge  Ge0  1  0.03045412  0.96954715  0.96954761  1
  Ir  Ir0  1  0.51244666  0.48755466  0.48756014  1
  Ir  Ir1  1  0.01088883  0.48911370  0.48911030  1
  Ir  Ir2  1  0.51088699  0.98911238  0.98911162  1
  Ir  Ir3  1  0.51533296  0.99426268  0.48466650  1
  Ir  Ir4  1  0.51533085  0.48466704  0.99426068  1
  Ir  Ir5  1  0.00573889  0.48466661  0.99426122  1
  Ir  Ir6  1  0.00573544  0.99426151  0.48466907  1
loop_
_geom_bond_atom_site_label_1
_geom_bond_atom_site_label_2
_geom_bond_distance
_geom_bond_site_symmetry_2
Al0 Ir5 2.518051 1_655
Al0 Ir6 2.518053 1_655
Al0 Ir2 2.668698 1_555
Al0 Al10 2.713136 1_655
Al0 Sc2 2.825329 1_556
Al0 Sc1 2.825337 1_565
Al0 Al9 2.884216 1_556
Al0 Al11 2.884258 1_565
Al0 Ge0 2.952921 1_655
Al1 Ir6 2.487310 1_655
Al1 Ir3 2.487401 1_555
Al1 Ir1 2.504846 1_655
Al1 Al10 2.775138 1_655
Al1 Al8 2.775283 1_555
Al1 Sc0 2.919047 1_565
Al2 Ir3 2.518034 1_555
Al2 Ir4 2.518074 1_555
Al2 Ir2 2.668703 1_555
Al2 Al8 2.713099 1_555
Al2 Sc4 2.825340 1_565
Al2 Sc3 2.825348 1_556
Al2 Al9 2.884268 1_556
Al2 Ge0 2.952885 1_555
Al3 Ir5 2.487360 1_655
Al3 Ir4 2.487407 1_555
Al3 Ir1 2.504833 1_655
Al3 Al8 2.775123 1_555
Al3 Sc0 2.919072 1_556
Al4 Ir6 2.487366 1_545
Al4 Ir5 2.487367 1_554
Al4 Ir2 2.504842 1_544
Al4 Sc0 2.919081 1_455
Al5 Ir3 2.518043 1_545
Al5 Ir6 2.518104 1_545
Al5 Ir1 2.668714 1_555
Al5 Sc4 2.825325 1_555
Al5 Sc1 2.825355 1_455
Al5 Ge0 2.952873 1_545
Al6 Ir4 2.518043 1_554
Al6 Ir5 2.518048 1_554
Al6 Ir1 2.668718 1_555
Al6 Sc2 2.825356 1_455
Al6 Sc3 2.825357 1_555
Al6 Ge0 2.952887 1_554
Al7 Ir4 2.487332 1_554
Al7 Ir3 2.487375 1_545
Al7 Ir2 2.504837 1_544
Al7 Sc0 2.919073 1_555
Al8 Ir0 2.592809 1_555
Al8 Ir4 2.652740 1_555
Al8 Ir3 2.652940 1_555
Al8 Ir1 2.848837 1_655
Al8 Sc1 2.878203 1_555
Al8 Sc2 2.878380 1_555
Al9 Ir0 2.616099 1_555
Al9 Ir2 2.630312 1_554
Al9 Ir5 2.655021 1_654
Al9 Ir4 2.655025 1_554
Al9 Sc0 2.974715 1_555
Al10 Ir0 2.592877 1_555
Al10 Ir6 2.652843 1_555
Al10 Ir5 2.652862 1_555
Al10 Al3 2.775145 1_455
Al10 Al14 2.810906 1_555
Al10 Al13 2.810959 1_555
Al10 Ir1 2.848777 1_555
Al10 Sc3 2.878261 1_555
Al10 Sc4 2.878265 1_555
Al11 Ir0 2.616033 1_555
Al11 Ir2 2.630308 1_545
Al11 Ir3 2.655008 1_545
Al11 Ir6 2.655015 1_645
Al11 Al2 2.884238 1_545
Al11 Sc0 2.974734 1_555
Al12 Ir0 2.616110 1_555
Al12 Ir1 2.630328 1_555
Al12 Ir3 2.654994 1_545
Al12 Ir4 2.655001 1_554
Al12 Al5 2.884232 1_555
Al12 Al6 2.884264 1_555
Al12 Sc0 2.974741 1_555
Al13 Ir0 2.592823 1_555
Al13 Ir4 2.652799 1_555
Al13 Ir5 2.652844 1_555
Al13 Al6 2.713027 1_556
Al13 Al7 2.775161 1_556
Al13 Al4 2.775200 1_556
Al13 Al8 2.810834 1_555
Al13 Ir2 2.848847 1_545
Al13 Sc4 2.878330 1_555
Al13 Sc1 2.878350 1_555
Al14 Ir0 2.592872 1_555
Al14 Ir6 2.652818 1_555
Al14 Ir3 2.652874 1_555
Al14 Al5 2.713057 1_565
Al14 Al4 2.775137 1_565
Al14 Al7 2.775212 1_565
Al14 Al8 2.811051 1_555
Al14 Ir2 2.848836 1_554
Al14 Sc3 2.878286 1_555
Al14 Sc2 2.878389 1_555
Al15 Ir0 2.616062 1_555
Al15 Ir1 2.630322 1_655
Al15 Ir6 2.654992 1_645
Al15 Ir5 2.655017 1_654
Al15 Al6 2.884270 1_655
Al15 Al5 2.884278 1_655
Al15 Sc0 2.974739 1_555
Ge0 Sc4 2.732508 1_565
Ge0 Sc3 2.732512 1_556
Ge0 Sc1 2.732524 1_465
Ge0 Sc2 2.732526 1_456
Ge0 Sc0 2.912891 1_466
Ir1 Sc3 3.070434 1_555
Ir1 Sc2 3.070435 1_455
Ir1 Sc4 3.070455 1_555
Ir1 Sc1 3.070457 1_455
Ir2 Sc3 3.070456 1_556
Ir2 Sc4 3.070467 1_565
Ir2 Sc1 3.070477 1_565
Ir2 Sc2 3.070487 1_556
Ir3 Sc0 3.024468 1_565
Ir4 Sc0 3.024481 1_556
Ir5 Sc0 3.024459 1_456
Ir6 Sc0 3.024475 1_465
