# generated using pymatgen
data_Ti8Al15Pt6Rh
_symmetry_space_group_name_H-M   'P 1'
_cell_length_a   8.65466374
_cell_length_b   8.65466397
_cell_length_c   8.65466334
_cell_angle_alpha   120.08933387
_cell_angle_beta   119.90226502
_cell_angle_gamma   90.00735518
_symmetry_Int_Tables_number   1
_chemical_formula_structural   Ti8Al15Pt6Rh
_chemical_formula_sum   'Ti8 Al15 Pt6 Rh1'
_cell_volume   458.41804087
_cell_formula_units_Z   1
loop_
 _symmetry_equiv_pos_site_id
 _symmetry_equiv_pos_as_xyz
  1  'x, y, z'
loop_
 _atom_site_type_symbol
 _atom_site_label
 _atom_site_symmetry_multiplicity
 _atom_site_fract_x
 _atom_site_fract_y
 _atom_site_fract_z
 _atom_site_occupancy
  Ti  Ti0  1  0.78476717  0.28835596  0.07398335  1
  Ti  Ti1  1  0.21437261  0.28835596  0.50358879  1
  Ti  Ti2  1  0.21592678  0.71592678  0.50000000  1
  Ti  Ti3  1  0.21437261  0.71078382  0.92601665  1
  Ti  Ti4  1  0.78476717  0.71078382  0.49641121  1
  Ti  Ti5  1  0.79043290  0.29043290  0.50000000  1
  Ti  Ti6  1  0.38067659  0.12107896  0.74040237  1
  Ti  Ti7  1  0.38067659  0.64027523  0.25959763  1
  Al  Al0  1  0.00358449  0.50358449  0.50000000  1
  Al  Al1  1  0.15269138  0.34754263  0.19485025  1
  Al  Al2  1  0.15269138  0.95784113  0.80514975  1
  Al  Al3  1  0.15526347  0.34377557  0.81148790  1
  Al  Al4  1  0.53228667  0.34377557  0.18851210  1
  Al  Al5  1  0.84665364  0.65311644  0.80646380  1
  Al  Al6  1  0.84665364  0.04018983  0.19353620  1
  Al  Al7  1  0.84678762  0.65225209  0.19453454  1
  Al  Al8  1  0.45771755  0.65225209  0.80546546  1
  Al  Al9  1  0.38005296  0.11985379  0.26020016  1
  Al  Al10  1  0.85965463  0.11985379  0.73979984  1
  Al  Al11  1  0.62165049  0.87942272  0.25777323  1
  Al  Al12  1  0.62165049  0.36387725  0.74222677  1
  Al  Al13  1  0.62272342  0.87889059  0.74383382  1
  Al  Al14  1  0.13505577  0.87889059  0.25616618  1
  Pt  Pt0  1  0.99794913  0.99980614  0.49905716  1
  Pt  Pt1  1  0.50074898  0.99980614  0.00185700  1
  Pt  Pt2  1  0.50094336  0.50094336  0.00000000  1
  Pt  Pt3  1  0.50074898  0.49889197  0.50094284  1
  Pt  Pt4  1  0.99794913  0.49889197  0.99814300  1
  Pt  Pt5  1  0.00040518  0.00040518  0.00000000  1
  Rh  Rh0  1  0.50014324  0.00014324  0.50000000  1
loop_
_geom_bond_atom_site_label_1
_geom_bond_atom_site_label_2
_geom_bond_distance
_geom_bond_site_symmetry_2
Ti0 Ti6 2.898733 1_554
Ti1 Ti6 2.898733 1_555
Ti2 Ti6 2.895309 1_565
Ti2 Ti7 2.895311 1_555
Ti3 Ti7 2.898727 1_556
Ti4 Ti7 2.898735 1_555
Al0 Ti2 2.598806 1_555
Al0 Ti3 2.607909 1_555
Al0 Ti0 2.607909 1_455
Al0 Ti4 2.607909 1_455
Al0 Ti1 2.607909 1_555
Al0 Ti5 2.608711 1_455
Al1 Pt5 2.511953 1_555
Al1 Pt4 2.524055 1_454
Al1 Pt3 2.524062 1_555
Al1 Ti2 2.748602 1_555
Al1 Ti0 2.763578 1_455
Al1 Ti1 2.763583 1_555
Al2 Pt5 2.511946 1_566
Al2 Pt0 2.524062 1_455
Al2 Pt1 2.524062 1_556
Al2 Ti2 2.748608 1_555
Al2 Ti4 2.763578 1_455
Al2 Ti3 2.763578 1_555
Al3 Pt0 2.506875 1_445
Al3 Pt4 2.506875 1_455
Al3 Pt2 2.523824 1_556
Al3 Ti1 2.769547 1_555
Al3 Ti3 2.769548 1_555
Al3 Ti5 2.777617 1_455
Al4 Pt3 2.506869 1_555
Al4 Pt1 2.506877 1_545
Al4 Pt2 2.523826 1_555
Al4 Ti4 2.769550 1_555
Al4 Ti0 2.769556 1_555
Al4 Ti5 2.777619 1_555
Al5 Pt4 2.510589 1_555
Al5 Pt3 2.510596 1_555
Al5 Pt5 2.517729 1_666
Al5 Ti5 2.736665 1_555
Al5 Ti3 2.765235 1_655
Al5 Ti4 2.765241 1_555
Al6 Pt0 2.510596 1_545
Al6 Pt1 2.510596 1_545
Al6 Pt5 2.517721 1_655
Al6 Ti5 2.736671 1_555
Al6 Ti1 2.765235 1_655
Al6 Ti0 2.765235 1_555
Al7 Pt2 2.504457 1_555
Al7 Pt4 2.513489 1_554
Al7 Pt0 2.513496 1_555
Al7 Ti0 2.727972 1_555
Al7 Ti4 2.727978 1_555
Al7 Ti2 2.759907 1_655
Al8 Pt2 2.504450 1_556
Al8 Pt3 2.513496 1_555
Al8 Pt1 2.513496 1_556
Al8 Ti1 2.727972 1_555
Al8 Ti3 2.727972 1_555
Al8 Ti2 2.759913 1_555
Al9 Rh0 2.542933 1_555
Al9 Pt3 2.677566 1_555
Al9 Pt1 2.677573 1_545
Al9 Pt5 2.687632 1_555
Al9 Ti1 2.924347 1_555
Al9 Ti3 2.924355 1_544
Al9 Ti5 2.945912 1_555
Al10 Rh0 2.542940 1_555
Al10 Pt0 2.677559 1_545
Al10 Pt4 2.677566 1_555
Al10 Pt5 2.687639 1_656
Al10 Ti4 2.924353 1_545
Al10 Ti0 2.924361 1_556
Al10 Ti5 2.945904 1_555
Al11 Rh0 2.567967 1_565
Al11 Pt0 2.662596 1_555
Al11 Pt1 2.662603 1_555
Al11 Pt2 2.673211 1_555
Al11 Ti4 2.916285 1_555
Al11 Ti3 2.916292 1_554
Al11 Ti5 2.941105 1_565
Al12 Rh0 2.567967 1_555
Al12 Pt4 2.662596 1_555
Al12 Pt3 2.662596 1_555
Al12 Pt2 2.673218 1_556
Al12 Ti0 2.916292 1_556
Al12 Ti1 2.916292 1_555
Al12 Ti5 2.941098 1_555
Al13 Rh0 2.582389 1_565
Al13 Pt5 2.672363 1_666
Al13 Pt1 2.683979 1_556
Al13 Pt3 2.683986 1_555
Al13 Ti2 2.905928 1_555
Al13 Ti0 2.922298 1_566
Al13 Ti4 2.922306 1_555
Al14 Rh0 2.582396 1_565
Al14 Pt5 2.672356 1_565
Al14 Pt0 2.683979 1_455
Al14 Pt4 2.683986 1_454
Al14 Ti2 2.905934 1_555
Al14 Ti1 2.922297 1_565
Al14 Ti3 2.922305 1_554
Pt0 Ti6 2.709048 1_665
Pt0 Ti5 3.089892 1_565
Pt0 Ti4 3.092059 1_555
Pt0 Ti1 3.094156 1_665
Pt0 Ti2 3.098587 1_655
Pt1 Ti6 2.709048 1_564
Pt1 Ti5 3.089892 1_565
Pt1 Ti3 3.092059 1_554
Pt1 Ti0 3.094156 1_565
Pt1 Ti2 3.098587 1_554
Pt2 Ti6 2.683413 1_554
Pt2 Ti7 2.683413 1_555
Pt2 Ti4 3.072986 1_555
Pt2 Ti1 3.072986 1_554
Pt2 Ti3 3.072986 1_554
Pt2 Ti0 3.072986 1_555
Pt3 Ti7 2.709055 1_555
Pt3 Ti5 3.089892 1_555
Pt3 Ti1 3.092059 1_555
Pt3 Ti4 3.094156 1_555
Pt3 Ti2 3.098587 1_555
Pt4 Ti7 2.709048 1_656
Pt4 Ti5 3.089892 1_555
Pt4 Ti0 3.092059 1_556
Pt4 Ti3 3.094156 1_655
Pt4 Ti2 3.098587 1_656
Pt5 Ti1 3.113878 1_555
Pt5 Ti4 3.113878 1_444
Pt5 Ti0 3.113879 1_455
Pt5 Ti3 3.113879 1_544
Rh0 Ti7 2.540667 1_545
Rh0 Ti6 2.540674 1_555
