# generated using pymatgen
data_Zr10Be2(SnSb)3
_symmetry_space_group_name_H-M   'P 1'
_cell_length_a   8.58295291
_cell_length_b   8.58295397
_cell_length_c   5.81421690
_cell_angle_alpha   90.00000000
_cell_angle_beta   90.00000000
_cell_angle_gamma   119.99999594
_symmetry_Int_Tables_number   1
_chemical_formula_structural   Zr10Be2(SnSb)3
_chemical_formula_sum   'Zr10 Be2 Sn3 Sb3'
_cell_volume   370.93293176
_cell_formula_units_Z   1
loop_
 _symmetry_equiv_pos_site_id
 _symmetry_equiv_pos_as_xyz
  1  'x, y, z'
loop_
 _atom_site_type_symbol
 _atom_site_label
 _atom_site_symmetry_multiplicity
 _atom_site_fract_x
 _atom_site_fract_y
 _atom_site_fract_z
 _atom_site_occupancy
  Zr  Zr0  1  0.66666700  0.33333300  0.99805637  1
  Zr  Zr1  1  0.33333300  0.66666700  0.99805637  1
  Zr  Zr2  1  0.33333300  0.66666700  0.50194363  1
  Zr  Zr3  1  0.66666700  0.33333300  0.50194363  1
  Zr  Zr4  1  0.74087204  0.74087204  0.75000000  1
  Zr  Zr5  1  0.25912796  0.00000000  0.75000000  1
  Zr  Zr6  1  0.00000000  0.25912796  0.75000000  1
  Zr  Zr7  1  0.24560968  0.24560968  0.25000000  1
  Zr  Zr8  1  0.75439032  0.00000000  0.25000000  1
  Zr  Zr9  1  1.00000000  0.75439032  0.25000000  1
  Be  Be0  1  0.00000000  0.00000000  0.97563712  1
  Be  Be1  1  0.00000000  0.00000000  0.52436288  1
  Sn  Sn0  1  0.38595554  0.38595554  0.75000000  1
  Sn  Sn1  1  0.61404446  0.00000000  0.75000000  1
  Sn  Sn2  1  0.00000000  0.61404446  0.75000000  1
  Sb  Sb0  1  0.60609267  0.60609267  0.25000000  1
  Sb  Sb1  1  0.39390733  0.00000000  0.25000000  1
  Sb  Sb2  1  1.00000000  0.39390733  0.25000000  1
loop_
_geom_bond_atom_site_label_1
_geom_bond_atom_site_label_2
_geom_bond_distance
_geom_bond_site_symmetry_2
Be0 Zr5 2.582177 1_555
Be0 Zr4 2.582177 1_445
Be0 Zr6 2.582177 1_555
Be0 Zr8 2.643593 1_456
Be0 Zr7 2.643593 1_556
Be0 Zr9 2.643593 1_446
Be1 Zr5 2.582177 1_555
Be1 Zr4 2.582177 1_445
Be1 Zr6 2.582177 1_555
Be1 Zr8 2.643593 1_455
Be1 Zr7 2.643593 1_555
Be1 Zr9 2.643593 1_445
Sn0 Zr6 2.924472 1_555
Sn0 Zr5 2.924472 1_555
Sn0 Zr0 3.029384 1_555
Sn0 Zr3 3.029384 1_555
Sn0 Zr1 3.029384 1_555
Sn0 Zr2 3.029384 1_555
Sn0 Zr4 3.046232 1_555
Sn0 Zr7 3.146792 1_556
Sn0 Zr7 3.146792 1_555
Sn1 Zr6 2.924472 1_655
Sn1 Zr4 2.924472 1_545
Sn1 Zr0 3.029377 1_555
Sn1 Zr3 3.029377 1_555
Sn1 Zr1 3.029380 1_545
Sn1 Zr2 3.029380 1_545
Sn1 Zr5 3.046232 1_555
Sn1 Zr8 3.146792 1_556
Sn1 Zr8 3.146792 1_555
Sn2 Zr4 2.924472 1_455
Sn2 Zr5 2.924472 1_565
Sn2 Zr1 3.029377 1_555
Sn2 Zr2 3.029377 1_555
Sn2 Zr0 3.029380 1_455
Sn2 Zr3 3.029380 1_455
Sn2 Zr6 3.046232 1_555
Sn2 Zr9 3.146792 1_455
Sn2 Zr9 3.146792 1_456
Sb0 Zr9 2.957567 1_555
Sb0 Zr8 2.957568 1_565
Sb0 Zr2 3.018927 1_555
Sb0 Zr1 3.018927 1_554
Sb0 Zr3 3.018927 1_555
Sb0 Zr0 3.018927 1_554
Sb0 Zr7 3.094009 1_555
Sb0 Zr4 3.128814 1_555
Sb0 Zr4 3.128814 1_554
Sb1 Zr7 2.957567 1_555
Sb1 Zr9 2.957567 1_445
Sb1 Zr2 3.018920 1_545
Sb1 Zr1 3.018920 1_544
Sb1 Zr3 3.018922 1_555
Sb1 Zr0 3.018922 1_554
Sb1 Zr8 3.094009 1_555
Sb1 Zr5 3.128814 1_555
Sb1 Zr5 3.128814 1_554
Sb2 Zr7 2.957567 1_655
Sb2 Zr8 2.957568 1_555
Sb2 Zr3 3.018919 1_555
Sb2 Zr0 3.018919 1_554
Sb2 Zr2 3.018922 1_655
Sb2 Zr1 3.018922 1_654
Sb2 Zr9 3.094009 1_555
Sb2 Zr6 3.128814 1_654
Sb2 Zr6 3.128814 1_655
