# generated using pymatgen
data_Na5Li3(SiS4)2
_symmetry_space_group_name_H-M   'P 1'
_cell_length_a   9.84685265
_cell_length_b   9.84685353
_cell_length_c   11.97860067
_cell_angle_alpha   53.03205911
_cell_angle_beta   53.03205368
_cell_angle_gamma   57.81991838
_symmetry_Int_Tables_number   1
_chemical_formula_structural   Na5Li3(SiS4)2
_chemical_formula_sum   'Na10 Li6 Si4 S16'
_cell_volume   714.34347975
_cell_formula_units_Z   2
loop_
 _symmetry_equiv_pos_site_id
 _symmetry_equiv_pos_as_xyz
  1  'x, y, z'
loop_
 _atom_site_type_symbol
 _atom_site_label
 _atom_site_symmetry_multiplicity
 _atom_site_fract_x
 _atom_site_fract_y
 _atom_site_fract_z
 _atom_site_occupancy
  Na  Na0  1  0.41829694  0.38670924  0.72544359  1
  Na  Na1  1  0.01517264  0.98482736  0.25000000  1
  Na  Na2  1  0.39154262  0.89658791  0.48745059  1
  Na  Na3  1  0.60845738  0.10341209  0.51254941  1
  Na  Na4  1  0.58170306  0.61329076  0.27455641  1
  Na  Na5  1  0.98482736  0.01517264  0.75000000  1
  Na  Na6  1  0.89658791  0.39154262  0.98745059  1
  Na  Na7  1  0.10341209  0.60845738  0.01254941  1
  Na  Na8  1  0.38670924  0.41829694  0.22544359  1
  Na  Na9  1  0.61329076  0.58170306  0.77455641  1
  Li  Li0  1  0.80663030  0.81882551  0.74939940  1
  Li  Li1  1  0.18117449  0.19336970  0.75060060  1
  Li  Li2  1  0.81882551  0.80663030  0.24939940  1
  Li  Li3  1  0.50000000  0.00000000  0.00000000  1
  Li  Li4  1  0.00000000  0.50000000  0.50000000  1
  Li  Li5  1  0.19336970  0.18117449  0.25060060  1
  Si  Si0  1  0.85577135  0.31849492  0.46434796  1
  Si  Si1  1  0.14422865  0.68150508  0.53565204  1
  Si  Si2  1  0.31849492  0.85577135  0.96434796  1
  Si  Si3  1  0.68150508  0.14422865  0.03565204  1
  S  S0  1  0.43546772  0.29723673  0.01463947  1
  S  S1  1  0.12991127  0.71655675  0.16204454  1
  S  S2  1  0.56453228  0.70276327  0.98536053  1
  S  S3  1  0.75435082  0.88979704  0.04932233  1
  S  S4  1  0.10530241  0.66251423  0.74179814  1
  S  S5  1  0.70276327  0.56453228  0.48536053  1
  S  S6  1  0.24564918  0.11020296  0.95067767  1
  S  S7  1  0.28344325  0.87008873  0.33795546  1
  S  S8  1  0.33748577  0.89469759  0.75820186  1
  S  S9  1  0.66251423  0.10530241  0.24179814  1
  S  S10  1  0.88979704  0.75435082  0.54932233  1
  S  S11  1  0.11020296  0.24564918  0.45067767  1
  S  S12  1  0.87008873  0.28344325  0.83795546  1
  S  S13  1  0.71655675  0.12991127  0.66204454  1
  S  S14  1  0.29723673  0.43546772  0.51463947  1
  S  S15  1  0.89469759  0.33748577  0.25820186  1
loop_
_geom_bond_atom_site_label_1
_geom_bond_atom_site_label_2
_geom_bond_distance
_geom_bond_site_symmetry_2
Na0 S13 2.704260 1_555
Na0 S4 2.812636 1_555
Na0 S6 2.856765 1_555
Na0 S5 2.943092 1_555
Na0 S14 3.095231 1_555
Na0 S0 3.111308 1_556
Na1 S6 2.721008 1_564
Na1 S10 2.721008 1_455
Na1 S7 2.846294 1_555
Na1 S1 2.846294 1_555
Na1 S9 3.059074 1_465
Na1 S15 3.059075 1_465
Na2 S7 2.749235 1_555
Na2 S8 2.943431 1_555
Na2 S9 3.020949 1_565
Na2 S11 3.030993 1_565
Na2 S5 3.068565 1_555
Na2 S4 3.268754 1_555
Na3 S13 2.749235 1_555
Na3 S9 2.943431 1_555
Na3 S8 3.020949 1_545
Na3 S10 3.030993 1_545
Na3 S14 3.068565 1_555
Na3 S15 3.268754 1_555
Na4 S7 2.704260 1_555
Na4 S15 2.812636 1_555
Na4 S3 2.856765 1_555
Na4 S14 2.943092 1_555
Na4 S5 3.095231 1_555
Na4 S2 3.111308 1_554
Na5 S3 2.721008 1_546
Na5 S11 2.721008 1_655
Na5 S13 2.846294 1_555
Na5 S12 2.846294 1_555
Na5 S8 3.059074 1_645
Na5 S4 3.059075 1_645
Na6 S12 2.749236 1_555
Na6 S15 2.943431 1_556
Na6 S4 3.020949 1_655
Na6 S6 3.030993 1_655
Na6 S2 3.068565 1_555
Na6 S9 3.268755 1_556
Na7 S1 2.749236 1_555
Na7 S4 2.943431 1_554
Na7 S15 3.020949 1_455
Na7 S3 3.030993 1_455
Na7 S0 3.068565 1_555
Na7 S8 3.268755 1_554
Na8 S1 2.704260 1_555
Na8 S9 2.812636 1_555
Na8 S11 2.856765 1_555
Na8 S2 2.943092 1_554
Na8 S0 3.095231 1_555
Na8 S14 3.111308 1_555
Na9 S12 2.704260 1_555
Na9 S8 2.812636 1_555
Na9 S10 2.856765 1_555
Na9 S0 2.943092 1_556
Na9 S2 3.095231 1_555
Na9 S5 3.111308 1_555
Li0 S13 2.373193 1_565
Li0 S10 2.394423 1_555
Li0 S2 2.427105 1_555
Li0 S4 2.459988 1_655
Li1 S12 2.373192 1_455
Li1 S6 2.394423 1_555
Li1 S14 2.427106 1_555
Li1 S8 2.459988 1_545
Li2 S1 2.373192 1_655
Li2 S3 2.394423 1_555
Li2 S5 2.427106 1_555
Li2 S9 2.459988 1_565
Li3 S3 2.431686 1_545
Li3 S6 2.431686 1_554
Li3 S0 2.739201 1_555
Li3 S2 2.739201 1_544
Li3 S7 2.977627 1_545
Li3 S13 2.977627 1_554
Li4 S10 2.431686 1_455
Li4 S11 2.431686 1_555
Li4 S14 2.739201 1_555
Li4 S5 2.739201 1_455
Li4 S12 2.977627 1_455
Li4 S1 2.977627 1_555
Li5 S7 2.373193 1_545
Li5 S11 2.394423 1_555
Li5 S0 2.427105 1_555
Li5 S15 2.459988 1_455
S0 Si3 2.142918 1_555
S1 Si2 2.110319 1_554
S2 Si2 2.142918 1_555
S3 Si3 2.133487 1_565
S4 Si1 2.159192 1_555
S5 Si0 2.142918 1_555
S6 Si2 2.133487 1_545
S7 Si1 2.110319 1_555
S8 Si2 2.159192 1_555
S9 Si3 2.159192 1_555
S10 Si1 2.133487 1_655
S11 Si0 2.133487 1_455
S12 Si3 2.110319 1_556
S13 Si0 2.110319 1_555
S14 Si1 2.142918 1_555
S15 Si0 2.159192 1_555
