# generated using pymatgen
data_Zr2V2ReTc
_symmetry_space_group_name_H-M   'P 1'
_cell_length_a   5.23271410
_cell_length_b   5.21036126
_cell_length_c   5.23271491
_cell_angle_alpha   119.85740939
_cell_angle_beta   119.79467458
_cell_angle_gamma   90.42525608
_symmetry_Int_Tables_number   1
_chemical_formula_structural   Zr2V2ReTc
_chemical_formula_sum   'Zr2 V2 Re1 Tc1'
_cell_volume   101.03385712
_cell_formula_units_Z   1
loop_
 _symmetry_equiv_pos_site_id
 _symmetry_equiv_pos_as_xyz
  1  'x, y, z'
loop_
 _atom_site_type_symbol
 _atom_site_label
 _atom_site_symmetry_multiplicity
 _atom_site_fract_x
 _atom_site_fract_y
 _atom_site_fract_z
 _atom_site_occupancy
  Zr  Zr0  1  0.37389639  0.12409340  0.25019700  1
  Zr  Zr1  1  0.62610361  0.87590660  0.74980300  1
  V  V0  1  0.50000000  0.50000000  0.00000000  1
  V  V1  1  0.00000000  0.50000000  0.50000000  1
  Re  Re0  1  0.00000000  0.50000000  0.00000000  1
  Tc  Tc0  1  0.00000000  0.00000000  0.50000000  1
loop_
_geom_bond_atom_site_label_1
_geom_bond_atom_site_label_2
_geom_bond_distance
_geom_bond_site_symmetry_2
Zr0 Zr1 3.195485 1_444
Zr0 Zr1 3.195486 1_545
Zr0 Zr1 3.196681 1_555
Zr0 Zr1 3.218400 1_544
V0 V1 2.624473 1_554
V0 V1 2.624473 1_655
V0 Zr0 3.061840 1_565
V0 Zr1 3.061840 1_544
V0 Zr1 3.062371 1_554
V0 Zr0 3.062371 1_555
V0 Zr1 3.069515 1_555
V0 Zr0 3.069515 1_554
V1 Zr0 3.061840 1_566
V1 Zr1 3.061840 1_444
V1 Zr1 3.062371 1_555
V1 Zr0 3.062371 1_455
V1 Zr0 3.069515 1_555
V1 Zr1 3.069515 1_455
Re0 V0 2.616357 1_555
Re0 V0 2.616357 1_455
Re0 V1 2.616357 1_554
Re0 V1 2.616357 1_555
Re0 Tc0 2.616412 1_554
Re0 Tc0 2.616412 1_565
Re0 Zr0 3.039234 1_565
Re0 Zr1 3.039234 1_444
Re0 Zr1 3.072873 1_555
Re0 Zr0 3.072873 1_454
Re0 Zr0 3.072874 1_555
Re0 Zr1 3.072874 1_454
Tc0 V0 2.605180 1_556
Tc0 V0 2.605180 1_445
Tc0 V1 2.605181 1_545
Tc0 V1 2.605181 1_555
Tc0 Zr0 3.052676 1_555
Tc0 Zr1 3.052676 1_445
Tc0 Zr1 3.078536 1_545
Tc0 Zr0 3.078536 1_455
Tc0 Zr0 3.078536 1_556
Tc0 Zr1 3.078536 1_444
