# generated using pymatgen
data_MgAl2O4
_symmetry_space_group_name_H-M   'P 1'
_cell_length_a   5.78746268
_cell_length_b   5.78746268
_cell_length_c   5.78746304
_cell_angle_alpha   59.55600628
_cell_angle_beta   59.55600628
_cell_angle_gamma   59.55600760
_symmetry_Int_Tables_number   1
_chemical_formula_structural   MgAl2O4
_chemical_formula_sum   'Mg2 Al4 O8'
_cell_volume   135.68865105
_cell_formula_units_Z   2
loop_
 _symmetry_equiv_pos_site_id
 _symmetry_equiv_pos_as_xyz
  1  'x, y, z'
loop_
 _atom_site_type_symbol
 _atom_site_label
 _atom_site_symmetry_multiplicity
 _atom_site_fract_x
 _atom_site_fract_y
 _atom_site_fract_z
 _atom_site_occupancy
  Mg  Mg0  1  0.62202200  0.62202200  0.62202200  1
  Mg  Mg1  1  0.99866500  0.99866500  0.99866500  1
  Al  Al0  1  0.99644300  0.51042700  0.99644300  1
  Al  Al1  1  0.99644300  0.99644300  0.51042700  1
  Al  Al2  1  0.51042700  0.99644300  0.99644300  1
  Al  Al3  1  0.38029000  0.38029000  0.38029000  1
  O  O0  1  0.75256200  0.75256200  0.21201000  1
  O  O1  1  0.75256200  0.21201000  0.75256200  1
  O  O2  1  0.21201000  0.75256200  0.75256200  1
  O  O3  1  0.76013500  0.76013500  0.76013500  1
  O  O4  1  0.24584700  0.24584700  0.24584700  1
  O  O5  1  0.77041700  0.25108900  0.25108900  1
  O  O6  1  0.25108900  0.77041700  0.25108900  1
  O  O7  1  0.25108900  0.25108900  0.77041700  1
loop_
_geom_bond_atom_site_label_1
_geom_bond_atom_site_label_2
_geom_bond_distance
_geom_bond_site_symmetry_2
Mg0 O2 1.928021 1_555
Mg0 O1 1.928021 1_555
Mg0 O0 1.928021 1_555
Mg0 O3 1.964480 1_555
Mg1 O0 2.018251 1_556
Mg1 O1 2.018251 1_565
Mg1 O2 2.018251 1_655
Mg1 O7 2.065162 1_665
Mg1 O5 2.065163 1_566
Mg1 O6 2.065163 1_656
Al0 O2 1.869557 1_655
Al0 O0 1.869557 1_556
Al0 O3 1.928449 1_555
Al0 O5 1.982487 1_556
Al0 O7 1.982487 1_655
Al0 O4 2.035515 1_656
Al1 O2 1.869557 1_655
Al1 O1 1.869557 1_565
Al1 O3 1.928449 1_555
Al1 O5 1.982487 1_565
Al1 O6 1.982487 1_655
Al1 O4 2.035514 1_665
Al2 O1 1.869557 1_565
Al2 O0 1.869557 1_556
Al2 O3 1.928449 1_555
Al2 O6 1.982487 1_556
Al2 O7 1.982487 1_565
Al2 O4 2.035515 1_566
Al3 O6 1.833281 1_555
Al3 O5 1.833281 1_555
Al3 O7 1.833281 1_555
Al3 O4 1.912279 1_555
