# generated using pymatgen
data_Mg2Zr2Ge6Ir7
_symmetry_space_group_name_H-M   'P 1'
_cell_length_a   6.99695802
_cell_length_b   7.10950923
_cell_length_c   6.99695743
_cell_angle_alpha   109.45840629
_cell_angle_beta   108.84675553
_cell_angle_gamma   109.45839619
_symmetry_Int_Tables_number   1
_chemical_formula_structural   Mg2Zr2Ge6Ir7
_chemical_formula_sum   'Mg2 Zr2 Ge6 Ir7'
_cell_volume   270.05980768
_cell_formula_units_Z   1
loop_
 _symmetry_equiv_pos_site_id
 _symmetry_equiv_pos_as_xyz
  1  'x, y, z'
loop_
 _atom_site_type_symbol
 _atom_site_label
 _atom_site_symmetry_multiplicity
 _atom_site_fract_x
 _atom_site_fract_y
 _atom_site_fract_z
 _atom_site_occupancy
  Mg  Mg0  1  0.00000000  0.50000000  0.00000000  1
  Mg  Mg1  1  0.50000000  0.50000000  0.50000000  1
  Zr  Zr0  1  0.00000000  0.00000000  0.50000000  1
  Zr  Zr1  1  0.50000000  0.00000000  0.00000000  1
  Ge  Ge0  1  0.68778315  0.67991973  0.99213658  1
  Ge  Ge1  1  0.31171473  0.00000000  0.31171473  1
  Ge  Ge2  1  0.00786342  0.32008027  0.31221685  1
  Ge  Ge3  1  0.31221685  0.32008027  0.00786342  1
  Ge  Ge4  1  0.68828527  1.00000000  0.68828527  1
  Ge  Ge5  1  0.99213658  0.67991973  0.68778315  1
  Ir  Ir0  1  0.74937749  0.24783524  0.49845776  1
  Ir  Ir1  1  0.75000000  0.50000000  0.25000000  1
  Ir  Ir2  1  0.49845776  0.24783524  0.74937749  1
  Ir  Ir3  1  0.25000000  0.50000000  0.75000000  1
  Ir  Ir4  1  0.25062251  0.75216476  0.50154224  1
  Ir  Ir5  1  0.50154224  0.75216476  0.25062251  1
  Ir  Ir6  1  0.00000000  0.00000000  0.00000000  1
loop_
_geom_bond_atom_site_label_1
_geom_bond_atom_site_label_2
_geom_bond_distance
_geom_bond_site_symmetry_2
Ge0 Ir2 2.536791 1_555
Ge0 Ir6 2.545713 1_666
Ge0 Ir1 2.546023 1_556
Ge0 Ir3 2.546023 1_555
Ge0 Ir5 2.565685 1_556
Ge0 Mg1 2.870982 1_555
Ge0 Mg0 2.870982 1_656
Ge0 Zr1 2.977102 1_566
Ge0 Zr0 2.977102 1_666
Ge1 Ir6 2.537837 1_555
Ge1 Ir5 2.544740 1_545
Ge1 Ir2 2.544740 1_555
Ge1 Ir4 2.544740 1_545
Ge1 Ir0 2.544740 1_555
Ge1 Zr1 2.889468 1_555
Ge1 Zr0 2.889468 1_555
Ge1 Mg1 2.957355 1_555
Ge1 Mg0 2.957356 1_545
Ge2 Ir4 2.536791 1_555
Ge2 Ir6 2.545712 1_555
Ge2 Ir3 2.546023 1_555
Ge2 Ir1 2.546023 1_455
Ge2 Ir0 2.565685 1_455
Ge2 Mg0 2.870982 1_555
Ge2 Mg1 2.870982 1_555
Ge2 Zr0 2.977102 1_555
Ge2 Zr1 2.977102 1_455
Ge3 Ir5 2.536791 1_555
Ge3 Ir6 2.545713 1_555
Ge3 Ir3 2.546023 1_554
Ge3 Ir1 2.546023 1_555
Ge3 Ir2 2.565685 1_554
Ge3 Mg1 2.870982 1_555
Ge3 Mg0 2.870982 1_555
Ge3 Zr1 2.977102 1_555
Ge3 Zr0 2.977102 1_554
Ge4 Ir6 2.537837 1_666
Ge4 Ir2 2.544740 1_565
Ge4 Ir5 2.544740 1_555
Ge4 Ir0 2.544740 1_565
Ge4 Ir4 2.544740 1_555
Ge4 Zr1 2.889468 1_566
Ge4 Zr0 2.889468 1_665
Ge4 Mg1 2.957355 1_555
Ge4 Mg0 2.957356 1_666
Ge5 Ir0 2.536791 1_555
Ge5 Ir6 2.545712 1_666
Ge5 Ir1 2.546023 1_555
Ge5 Ir3 2.546023 1_655
Ge5 Ir4 2.565685 1_655
Ge5 Mg0 2.870982 1_656
Ge5 Mg1 2.870982 1_555
Ge5 Zr0 2.977102 1_665
Ge5 Zr1 2.977102 1_666
Ir0 Zr0 2.870335 1_655
Ir0 Zr1 2.870335 1_555
Ir0 Mg1 2.888279 1_555
Ir0 Mg0 2.888279 1_656
Ir1 Mg0 2.845447 1_655
Ir1 Mg1 2.845447 1_555
Ir1 Zr1 2.914360 1_555
Ir1 Zr0 2.914360 1_665
Ir2 Zr1 2.870335 1_556
Ir2 Zr0 2.870335 1_555
Ir2 Mg1 2.888279 1_555
Ir2 Mg0 2.888279 1_656
Ir3 Mg0 2.845447 1_556
Ir3 Mg1 2.845447 1_555
Ir3 Zr1 2.914360 1_566
Ir3 Zr0 2.914360 1_555
Ir4 Zr0 2.870335 1_565
Ir4 Zr1 2.870335 1_566
Ir4 Mg1 2.888279 1_555
Ir4 Mg0 2.888279 1_555
Ir5 Zr1 2.870335 1_565
Ir5 Zr0 2.870335 1_665
Ir5 Mg1 2.888279 1_555
Ir5 Mg0 2.888279 1_555
