# generated using pymatgen
data_Zr3Ga3Co2Au
_symmetry_space_group_name_H-M   'P 1'
_cell_length_a   7.09508318
_cell_length_b   7.09508393
_cell_length_c   3.36781365
_cell_angle_alpha   90.00000000
_cell_angle_beta   90.00000000
_cell_angle_gamma   120.00000110
_symmetry_Int_Tables_number   1
_chemical_formula_structural   Zr3Ga3Co2Au
_chemical_formula_sum   'Zr3 Ga3 Co2 Au1'
_cell_volume   146.82286939
_cell_formula_units_Z   1
loop_
 _symmetry_equiv_pos_site_id
 _symmetry_equiv_pos_as_xyz
  1  'x, y, z'
loop_
 _atom_site_type_symbol
 _atom_site_label
 _atom_site_symmetry_multiplicity
 _atom_site_fract_x
 _atom_site_fract_y
 _atom_site_fract_z
 _atom_site_occupancy
  Zr  Zr0  1  0.37686086  0.40457982  0.50000000  1
  Zr  Zr1  1  0.59542018  0.97228104  0.50000000  1
  Zr  Zr2  1  0.02771896  0.62313914  0.50000000  1
  Ga  Ga0  1  0.74289094  0.74118181  0.00000000  1
  Ga  Ga1  1  0.25881819  0.00170913  0.00000000  1
  Ga  Ga2  1  0.99829087  0.25710906  0.00000000  1
  Co  Co0  1  0.33333300  0.66666700  0.00000000  1
  Co  Co1  1  0.00000000  0.00000000  0.50000000  1
  Au  Au0  1  0.66666700  0.33333300  0.00000000  1
loop_
_geom_bond_atom_site_label_1
_geom_bond_atom_site_label_2
_geom_bond_distance
_geom_bond_site_symmetry_2
Ga0 Zr1 2.886944 1_554
Ga0 Zr1 2.886944 1_555
Ga0 Zr0 3.013532 1_555
Ga0 Zr0 3.013532 1_554
Ga0 Zr2 3.051797 1_654
Ga0 Zr2 3.051797 1_655
Ga1 Zr2 2.886944 1_544
Ga1 Zr2 2.886944 1_545
Ga1 Zr1 3.013532 1_544
Ga1 Zr1 3.013532 1_545
Ga1 Zr0 3.051798 1_554
Ga1 Zr0 3.051798 1_555
Ga2 Zr0 2.886944 1_655
Ga2 Zr0 2.886944 1_654
Ga2 Zr2 3.013532 1_655
Ga2 Zr2 3.013532 1_654
Ga2 Zr1 3.051797 1_544
Ga2 Zr1 3.051797 1_545
Co0 Zr2 2.638756 1_555
Co0 Zr2 2.638756 1_554
Co0 Zr1 2.638758 1_554
Co0 Zr1 2.638758 1_555
Co0 Zr0 2.638761 1_555
Co0 Zr0 2.638761 1_554
Co0 Ga1 2.680884 1_565
Co0 Ga2 2.680888 1_455
Co0 Ga0 2.680890 1_555
Co1 Ga1 2.487077 1_555
Co1 Ga1 2.487077 1_556
Co1 Ga0 2.487077 1_445
Co1 Ga0 2.487077 1_446
Co1 Ga2 2.487077 1_455
Co1 Ga2 2.487077 1_456
Co1 Zr1 2.777420 1_445
Co1 Zr0 2.777421 1_555
Co1 Zr2 2.777421 1_545
Au0 Ga2 2.664789 1_555
Au0 Ga1 2.664793 1_555
Au0 Ga0 2.664796 1_555
Au0 Zr1 2.891091 1_545
Au0 Zr1 2.891091 1_544
Au0 Zr2 2.891093 1_654
Au0 Zr2 2.891093 1_655
Au0 Zr0 2.891097 1_555
Au0 Zr0 2.891097 1_554
