# generated using pymatgen
data_Cs2Mn2CdS4
_symmetry_space_group_name_H-M   'P 1'
_cell_length_a   9.74716234
_cell_length_b   9.74716197
_cell_length_c   9.74716184
_cell_angle_alpha   143.66966582
_cell_angle_beta   105.08598936
_cell_angle_gamma   86.22243969
_symmetry_Int_Tables_number   1
_chemical_formula_structural   Cs2Mn2CdS4
_chemical_formula_sum   'Cs4 Mn4 Cd2 S8'
_cell_volume   512.71154329
_cell_formula_units_Z   2
loop_
 _symmetry_equiv_pos_site_id
 _symmetry_equiv_pos_as_xyz
  1  'x, y, z'
loop_
 _atom_site_type_symbol
 _atom_site_label
 _atom_site_symmetry_multiplicity
 _atom_site_fract_x
 _atom_site_fract_y
 _atom_site_fract_z
 _atom_site_occupancy
  Cs  Cs0  1  0.11832319  0.23669627  0.35501946  1
  Cs  Cs1  1  0.38167681  0.73669627  0.11837109  1
  Cs  Cs2  1  0.61832319  0.26330373  0.88162891  1
  Cs  Cs3  1  0.88167681  0.76330373  0.64498054  1
  Mn  Mn0  1  0.47913743  0.25000000  0.22913743  1
  Mn  Mn1  1  0.02086257  0.25000000  0.77086257  1
  Mn  Mn2  1  0.97913743  0.75000000  0.22913743  1
  Mn  Mn3  1  0.52086257  0.75000000  0.77086257  1
  Cd  Cd0  1  0.25000000  0.75000000  0.50000000  1
  Cd  Cd1  1  0.75000000  0.25000000  0.50000000  1
  S  S0  1  0.48858370  0.62320050  0.41558041  1
  S  S1  1  0.01141630  0.42699570  0.13461680  1
  S  S2  1  0.29237991  0.87679950  0.86538320  1
  S  S3  1  0.20762009  0.07300430  0.58441959  1
  S  S4  1  0.70762009  0.12320050  0.13461680  1
  S  S5  1  0.79237991  0.92699570  0.41558041  1
  S  S6  1  0.98858370  0.57300430  0.86538320  1
  S  S7  1  0.51141630  0.37679950  0.58441959  1
loop_
_geom_bond_atom_site_label_1
_geom_bond_atom_site_label_2
_geom_bond_distance
_geom_bond_site_symmetry_2
Cs0 S3 3.585413 1_555
Cs0 S7 3.585422 1_555
Cs0 S6 3.680425 1_455
Cs0 S2 3.680428 1_555
Cs0 S1 3.760604 1_555
Cs0 S4 3.760613 1_455
Cs0 S6 3.796947 1_444
Cs0 S2 3.796954 1_544
Cs1 S2 3.585404 1_554
Cs1 S6 3.585421 1_454
Cs1 S7 3.680423 1_565
Cs1 S3 3.680439 1_565
Cs1 S5 3.760615 1_555
Cs1 S0 3.760631 1_555
Cs1 S7 3.796940 1_554
Cs1 S3 3.796950 1_554
Cs2 S4 3.585404 1_556
Cs2 S1 3.585421 1_656
Cs2 S0 3.680423 1_545
Cs2 S5 3.680439 1_545
Cs2 S3 3.760615 1_555
Cs2 S7 3.760631 1_555
Cs2 S0 3.796940 1_556
Cs2 S5 3.796950 1_556
Cs3 S5 3.585413 1_555
Cs3 S0 3.585422 1_555
Cs3 S1 3.680425 1_655
Cs3 S4 3.680428 1_555
Cs3 S6 3.760604 1_555
Cs3 S2 3.760613 1_655
Cs3 S1 3.796947 1_666
Cs3 S4 3.796954 1_566
Mn0 S2 2.418519 1_544
Mn0 S0 2.418519 1_555
Mn0 S7 2.491348 1_555
Mn0 S4 2.491348 1_555
Mn1 S3 2.418519 1_555
Mn1 S1 2.418524 1_556
Mn1 S5 2.491350 1_445
Mn1 S6 2.491357 1_455
Mn2 S5 2.418519 1_555
Mn2 S6 2.418524 1_554
Mn2 S3 2.491350 1_665
Mn2 S1 2.491357 1_655
Mn3 S4 2.418519 1_566
Mn3 S7 2.418519 1_555
Mn3 S0 2.491348 1_555
Mn3 S2 2.491348 1_555
Cd0 S2 2.567369 1_555
Cd0 S0 2.567369 1_555
Cd0 S1 2.567371 1_555
Cd0 S3 2.567378 1_565
Cd1 S4 2.567369 1_555
Cd1 S7 2.567369 1_555
Cd1 S6 2.567371 1_555
Cd1 S5 2.567378 1_545
