# generated using pymatgen
data_NaNi2(Sn3Ru)2
_symmetry_space_group_name_H-M   'P 1'
_cell_length_a   6.73287827
_cell_length_b   6.73287747
_cell_length_c   6.83179063
_cell_angle_alpha   119.81963512
_cell_angle_beta   119.81962857
_cell_angle_gamma   89.47555382
_symmetry_Int_Tables_number   1
_chemical_formula_structural   NaNi2(Sn3Ru)2
_chemical_formula_sum   'Na1 Ni2 Sn6 Ru2'
_cell_volume   221.14258619
_cell_formula_units_Z   1
loop_
 _symmetry_equiv_pos_site_id
 _symmetry_equiv_pos_as_xyz
  1  'x, y, z'
loop_
 _atom_site_type_symbol
 _atom_site_label
 _atom_site_symmetry_multiplicity
 _atom_site_fract_x
 _atom_site_fract_y
 _atom_site_fract_z
 _atom_site_occupancy
  Na  Na0  1  0.99958376  0.99958376  1.00000000  1
  Ni  Ni0  1  0.40839252  0.40839252  0.65455030  1
  Ni  Ni1  1  0.75384222  0.75384222  0.34544970  1
  Sn  Sn0  1  0.99549759  0.49549759  0.50000000  1
  Sn  Sn1  1  0.46037378  0.46037378  0.34947267  1
  Sn  Sn2  1  0.54188169  0.88037490  1.00000000  1
  Sn  Sn3  1  0.88037490  0.54188169  1.00000000  1
  Sn  Sn4  1  0.11090111  0.11090111  0.65052733  1
  Sn  Sn5  1  0.49549759  0.99549759  0.50000000  1
  Ru  Ru0  1  0.26605365  0.58760318  1.00000000  1
  Ru  Ru1  1  0.58760318  0.26605365  1.00000000  1
loop_
_geom_bond_atom_site_label_1
_geom_bond_atom_site_label_2
_geom_bond_distance
_geom_bond_site_symmetry_2
Na0 Sn3 3.191560 1_555
Na0 Sn2 3.191560 1_555
Na0 Sn1 3.223866 1_666
Na0 Sn4 3.223866 1_665
Na0 Ni0 3.287100 1_666
Na0 Ni1 3.287101 1_555
Na0 Ru0 3.289647 1_655
Na0 Ru1 3.289647 1_565
Na0 Sn0 3.400902 1_555
Na0 Sn0 3.400902 1_566
Na0 Sn5 3.400902 1_555
Na0 Sn5 3.400902 1_656
Ni0 Sn1 2.458078 1_555
Ni0 Sn5 2.617973 1_545
Ni0 Sn0 2.617974 1_455
Ni0 Sn2 2.638164 1_555
Ni0 Sn3 2.638165 1_555
Ni0 Ru0 2.709291 1_555
Ni0 Ru1 2.709291 1_555
Ni0 Sn4 2.826394 1_555
Ni1 Sn4 2.458078 1_665
Ni1 Sn5 2.617974 1_555
Ni1 Sn0 2.617974 1_555
Ni1 Sn3 2.638165 1_554
Ni1 Sn2 2.638165 1_554
Ni1 Ru1 2.709290 1_554
Ni1 Ru0 2.709291 1_554
Ni1 Sn1 2.826394 1_555
Ru0 Sn3 2.617708 1_455
Ru0 Sn4 2.655691 1_555
Ru0 Sn1 2.655692 1_556
Ru0 Sn5 2.663949 1_556
Ru0 Sn0 2.663949 1_455
Ru0 Sn2 2.720572 1_555
Ru1 Sn2 2.617707 1_545
Ru1 Sn1 2.655692 1_556
Ru1 Sn4 2.655692 1_555
Ru1 Sn5 2.663949 1_545
Ru1 Sn0 2.663949 1_556
Ru1 Sn3 2.720572 1_555
