# generated using pymatgen
data_Mg4Zn6NiRu
_symmetry_space_group_name_H-M   'P 1'
_cell_length_a   5.03303681
_cell_length_b   5.13007069
_cell_length_c   8.22643318
_cell_angle_alpha   90.00000000
_cell_angle_beta   90.00000000
_cell_angle_gamma   119.30991296
_symmetry_Int_Tables_number   1
_chemical_formula_structural   Mg4Zn6NiRu
_chemical_formula_sum   'Mg4 Zn6 Ni1 Ru1'
_cell_volume   185.21401266
_cell_formula_units_Z   1
loop_
 _symmetry_equiv_pos_site_id
 _symmetry_equiv_pos_as_xyz
  1  'x, y, z'
loop_
 _atom_site_type_symbol
 _atom_site_label
 _atom_site_symmetry_multiplicity
 _atom_site_fract_x
 _atom_site_fract_y
 _atom_site_fract_z
 _atom_site_occupancy
  Mg  Mg0  1  0.32414968  0.65005748  0.06389432  1
  Mg  Mg1  1  0.67193289  0.33366903  0.56936517  1
  Mg  Mg2  1  0.67193289  0.33366903  0.93063483  1
  Mg  Mg3  1  0.32414968  0.65005748  0.43610568  1
  Zn  Zn0  1  0.00046002  0.02589361  0.00424533  1
  Zn  Zn1  1  0.00046002  0.02589361  0.49575467  1
  Zn  Zn2  1  0.34722290  0.15732077  0.25000000  1
  Zn  Zn3  1  0.66092437  0.82743338  0.75000000  1
  Zn  Zn4  1  0.16905815  0.83213260  0.75000000  1
  Zn  Zn5  1  0.83231569  0.65956646  0.25000000  1
  Ni  Ni0  1  0.82386072  0.16194351  0.25000000  1
  Ru  Ru0  1  0.17353597  0.34236403  0.75000000  1
loop_
_geom_bond_atom_site_label_1
_geom_bond_atom_site_label_2
_geom_bond_distance
_geom_bond_site_symmetry_2
Mg0 Zn0 2.835560 1_555
Mg0 Ru0 2.926202 1_554
Mg0 Zn5 2.931249 1_455
Mg0 Zn5 2.960668 1_555
Mg0 Ni0 2.963318 1_455
Mg0 Zn2 2.972117 1_565
Mg0 Zn3 2.976385 1_554
Mg0 Zn4 2.977169 1_554
Mg0 Zn2 3.005736 1_555
Mg0 Ni0 3.016467 1_565
Mg0 Zn0 3.019797 1_665
Mg0 Mg3 3.061972 1_555
Mg0 Mg2 3.065188 1_454
Mg0 Mg2 3.111547 1_554
Mg0 Zn0 3.112502 1_565
Mg0 Mg2 3.248759 1_564
Mg1 Zn1 2.854774 1_655
Mg1 Ru0 2.910912 1_655
Mg1 Ru0 2.934621 1_555
Mg1 Zn4 2.956896 1_655
Mg1 Zn3 2.960564 1_555
Mg1 Zn3 2.968984 1_545
Mg1 Mg2 2.971961 1_555
Mg1 Zn4 2.976279 1_545
Mg1 Ni0 2.987090 1_555
Mg1 Zn2 2.990674 1_555
Mg1 Zn5 3.004634 1_555
Mg1 Zn1 3.009434 1_555
Mg1 Mg3 3.065188 1_655
Mg1 Mg3 3.111547 1_555
Mg1 Zn1 3.156355 1_665
Mg1 Mg3 3.248759 1_545
Mg2 Zn0 2.854774 1_656
Mg2 Ru0 2.910912 1_655
Mg2 Ru0 2.934621 1_555
Mg2 Zn4 2.956896 1_655
Mg2 Zn3 2.960564 1_555
Mg2 Zn3 2.968984 1_545
Mg2 Zn4 2.976279 1_545
Mg2 Ni0 2.987090 1_556
Mg2 Zn2 2.990674 1_556
Mg2 Zn5 3.004634 1_556
Mg2 Zn0 3.009434 1_556
Mg2 Zn0 3.156355 1_666
Mg3 Zn1 2.835560 1_555
Mg3 Ru0 2.926202 1_555
Mg3 Zn5 2.931249 1_455
Mg3 Zn5 2.960668 1_555
Mg3 Ni0 2.963318 1_455
Mg3 Zn2 2.972117 1_565
Mg3 Zn3 2.976385 1_555
Mg3 Zn4 2.977169 1_555
Mg3 Zn2 3.005736 1_555
Mg3 Ni0 3.016467 1_565
Mg3 Zn1 3.019797 1_665
Mg3 Zn1 3.112502 1_565
Zn0 Zn2 2.536864 1_555
Zn0 Zn3 2.574482 1_444
Zn0 Zn5 2.603459 1_445
Zn0 Zn4 2.628390 1_544
Zn1 Zn2 2.536864 1_555
Zn1 Zn3 2.574482 1_445
Zn1 Zn5 2.603459 1_445
Zn1 Zn4 2.628390 1_545
Zn2 Zn5 2.537826 1_555
Zn2 Zn5 2.599524 1_445
Zn3 Zn4 2.487471 1_555
Zn3 Zn4 2.545741 1_655
Ni0 Zn2 2.387416 1_555
Ni0 Zn1 2.443711 1_655
Ni0 Zn0 2.443711 1_655
Ni0 Zn5 2.532281 1_555
Ni0 Zn5 2.598326 1_545
Ni0 Zn2 2.645791 1_655
Ru0 Zn3 2.496655 1_555
Ru0 Zn4 2.523657 1_555
Ru0 Zn0 2.526754 1_556
Ru0 Zn1 2.526754 1_555
Ru0 Zn4 2.606565 1_545
Ru0 Zn3 2.638533 1_445
