# generated using pymatgen
data_Zr8In14AgIr7
_symmetry_space_group_name_H-M   'P 1'
_cell_length_a   9.64021413
_cell_length_b   9.64021423
_cell_length_c   9.64021281
_cell_angle_alpha   59.99999815
_cell_angle_beta   59.99999783
_cell_angle_gamma   59.99999888
_symmetry_Int_Tables_number   1
_chemical_formula_structural   Zr8In14AgIr7
_chemical_formula_sum   'Zr8 In14 Ag1 Ir7'
_cell_volume   633.49759782
_cell_formula_units_Z   1
loop_
 _symmetry_equiv_pos_site_id
 _symmetry_equiv_pos_as_xyz
  1  'x, y, z'
loop_
 _atom_site_type_symbol
 _atom_site_label
 _atom_site_symmetry_multiplicity
 _atom_site_fract_x
 _atom_site_fract_y
 _atom_site_fract_z
 _atom_site_occupancy
  Zr  Zr0  1  0.12434409  0.62696773  0.12434409  1
  Zr  Zr1  1  0.37303227  0.87565591  0.87565591  1
  Zr  Zr2  1  0.87565591  0.87565591  0.87565591  1
  Zr  Zr3  1  0.62696773  0.12434409  0.12434409  1
  Zr  Zr4  1  0.87565591  0.87565591  0.37303227  1
  Zr  Zr5  1  0.12434409  0.12434409  0.12434409  1
  Zr  Zr6  1  0.87565591  0.37303227  0.87565591  1
  Zr  Zr7  1  0.12434409  0.12434409  0.62696773  1
  In  In0  1  0.50000000  0.84136934  0.15863066  1
  In  In1  1  0.50000000  0.84136934  0.50000000  1
  In  In2  1  0.50000000  0.15863066  0.50000000  1
  In  In3  1  0.50000000  0.50000000  0.84136934  1
  In  In4  1  0.15863066  0.50000000  0.50000000  1
  In  In5  1  0.84136934  0.15863066  0.50000000  1
  In  In6  1  0.15863066  0.84136934  0.50000000  1
  In  In7  1  0.50000000  0.15863066  0.84136934  1
  In  In8  1  0.15863066  0.50000000  0.84136934  1
  In  In9  1  0.50000000  0.50000000  0.15863066  1
  In  In10  1  0.84136934  0.50000000  0.50000000  1
  In  In11  1  0.84136934  0.50000000  0.15863066  1
  In  In12  1  0.25000000  0.25000000  0.25000000  1
  In  In13  1  0.75000000  0.75000000  0.75000000  1
  Ag  Ag0  1  0.50000000  0.50000000  0.50000000  1
  Ir  Ir0  1  0.78185836  0.78185836  0.21814164  1
  Ir  Ir1  1  0.00000000  0.00000000  0.00000000  1
  Ir  Ir2  1  0.21814164  0.78185836  0.21814164  1
  Ir  Ir3  1  0.21814164  0.78185836  0.78185836  1
  Ir  Ir4  1  0.21814164  0.21814164  0.78185836  1
  Ir  Ir5  1  0.78185836  0.21814164  0.78185836  1
  Ir  Ir6  1  0.78185836  0.21814164  0.21814164  1
loop_
_geom_bond_atom_site_label_1
_geom_bond_atom_site_label_2
_geom_bond_distance
_geom_bond_site_symmetry_2
Zr0 Zr2 3.390446 1_454
Zr0 Zr4 3.390446 1_455
Zr0 Zr1 3.390446 1_554
Zr1 Zr7 3.390446 1_565
Zr1 Zr5 3.390446 1_566
Zr2 Zr3 3.390446 1_566
Zr2 Zr7 3.390446 1_665
Zr3 Zr4 3.390446 1_545
Zr3 Zr6 3.390446 1_554
Zr4 Zr5 3.390446 1_665
Zr5 Zr6 3.390446 1_454
Zr6 Zr7 3.390446 1_655
In0 Ir0 2.777079 1_555
In0 Ir2 2.777079 1_555
In0 In7 3.058467 1_564
In0 In1 3.290873 1_555
In0 In6 3.290873 1_555
In0 In11 3.290873 1_555
In0 In9 3.290874 1_555
In0 Zr1 3.328935 1_554
In0 Zr2 3.328935 1_554
In0 Zr5 3.328935 1_565
In0 Zr3 3.328935 1_565
In1 Ir0 2.777079 1_555
In1 Ir3 2.777079 1_555
In1 In2 3.058467 1_565
In1 In3 3.290873 1_555
In1 In10 3.290873 1_555
In1 In6 3.290874 1_555
In1 Zr1 3.328935 1_555
In1 Zr3 3.328935 1_565
In1 Zr7 3.328935 1_565
In1 Zr4 3.328935 1_555
In2 Ir4 2.777079 1_555
In2 Ir6 2.777079 1_555
In2 In7 3.290873 1_555
In2 In9 3.290873 1_555
In2 In4 3.290873 1_555
In2 In5 3.290874 1_555
In2 Zr3 3.328935 1_555
In2 Zr1 3.328935 1_545
In2 Zr4 3.328935 1_545
In2 Zr7 3.328935 1_555
In3 Ir5 2.777079 1_555
In3 Ir3 2.777079 1_555
In3 In9 3.058467 1_556
In3 In8 3.290874 1_555
In3 In7 3.290874 1_555
In3 Zr0 3.328935 1_556
In3 Zr3 3.328935 1_556
In3 Zr6 3.328935 1_555
In3 Zr1 3.328935 1_555
In4 Ir4 2.777079 1_555
In4 Ir2 2.777079 1_555
In4 In8 3.290873 1_555
In4 In9 3.290873 1_555
In4 In6 3.290874 1_555
In4 Zr0 3.328935 1_555
In4 Zr6 3.328935 1_455
In4 Zr4 3.328935 1_455
In4 Zr7 3.328935 1_555
In5 Ir6 2.777079 1_555
In5 Ir5 2.777079 1_555
In5 In6 3.058467 1_645
In5 In7 3.290873 1_555
In5 Zr5 3.328935 1_655
In5 Zr2 3.328935 1_545
In5 Zr7 3.328935 1_655
In5 Zr4 3.328935 1_545
In6 Ir3 2.777079 1_555
In6 Ir2 2.777079 1_555
In6 In8 3.290873 1_555
In6 Zr2 3.328935 1_455
In6 Zr5 3.328935 1_565
In6 Zr4 3.328935 1_455
In6 Zr7 3.328935 1_565
In7 Ir4 2.777079 1_555
In7 Ir5 2.777079 1_555
In7 In8 3.290873 1_555
In7 Zr3 3.328935 1_556
In7 Zr5 3.328935 1_556
In7 Zr2 3.328935 1_545
In7 Zr1 3.328935 1_545
In8 Ir4 2.777079 1_555
In8 Ir3 2.777079 1_555
In8 Zr0 3.328935 1_556
In8 Zr5 3.328935 1_556
In8 Zr2 3.328935 1_455
In8 Zr6 3.328935 1_455
In9 Ir2 2.777079 1_555
In9 Ir6 2.777079 1_555
In9 Zr6 3.328935 1_554
In9 Zr1 3.328935 1_554
In9 Zr0 3.328935 1_555
In9 Zr3 3.328935 1_555
In10 Ir0 2.777079 1_555
In10 Ir5 2.777079 1_555
In10 In4 3.058467 1_655
In10 In11 3.290873 1_555
In10 In3 3.290873 1_555
In10 In5 3.290874 1_555
In10 Zr6 3.328935 1_555
In10 Zr0 3.328935 1_655
In10 Zr7 3.328935 1_655
In10 Zr4 3.328935 1_555
In11 Ir0 2.777079 1_555
In11 Ir6 2.777079 1_555
In11 In8 3.058467 1_654
In11 In5 3.290873 1_555
In11 In9 3.290874 1_555
In11 Zr6 3.328935 1_554
In11 Zr2 3.328935 1_554
In11 Zr5 3.328935 1_655
In11 Zr0 3.328935 1_655
In12 Zr7 2.967189 1_555
In12 Zr5 2.967189 1_555
In12 Zr3 2.967189 1_555
In12 Zr0 2.967189 1_555
In13 Zr4 2.967189 1_555
In13 Zr2 2.967189 1_555
In13 Zr1 2.967189 1_555
In13 Zr6 2.967189 1_555
Ag0 In3 3.290873 1_555
Ag0 In9 3.290873 1_555
Ag0 In11 3.290873 1_555
Ag0 In8 3.290873 1_555
Ag0 In7 3.290873 1_555
Ag0 In0 3.290873 1_555
Ag0 In5 3.290873 1_555
Ag0 In6 3.290873 1_555
Ag0 In10 3.290874 1_555
Ag0 In4 3.290874 1_555
Ag0 In1 3.290874 1_555
Ag0 In2 3.290874 1_555
Ir0 Zr2 2.717134 1_554
Ir0 Zr4 2.717134 1_555
Ir0 Zr0 2.717134 1_655
Ir0 Zr3 2.717135 1_565
Ir0 Ir1 2.973995 1_665
Ir1 Zr4 2.936212 1_445
Ir1 Zr7 2.936212 1_554
Ir1 Zr5 2.936212 1_555
Ir1 Zr2 2.936212 1_444
Ir1 Zr1 2.936212 1_544
Ir1 Zr3 2.936212 1_455
Ir1 Zr6 2.936212 1_454
Ir1 Zr0 2.936212 1_545
Ir1 Ir2 2.973995 1_545
Ir1 Ir6 2.973995 1_455
Ir1 Ir5 2.973995 1_454
Ir1 Ir3 2.973995 1_544
Ir1 Ir4 2.973995 1_554
Ir2 Zr1 2.717134 1_554
Ir2 Zr4 2.717134 1_455
Ir2 Zr0 2.717134 1_555
Ir2 Zr5 2.717135 1_565
Ir3 Zr0 2.717134 1_556
Ir3 Zr1 2.717134 1_555
Ir3 Zr7 2.717134 1_565
Ir3 Zr2 2.717134 1_455
Ir4 Zr5 2.717134 1_556
Ir4 Zr7 2.717134 1_555
Ir4 Zr6 2.717134 1_455
Ir4 Zr1 2.717135 1_545
Ir5 Zr3 2.717134 1_556
Ir5 Zr7 2.717134 1_655
Ir5 Zr6 2.717134 1_555
Ir5 Zr2 2.717135 1_545
Ir6 Zr6 2.717134 1_554
Ir6 Zr3 2.717134 1_555
Ir6 Zr4 2.717134 1_545
Ir6 Zr5 2.717134 1_655
