# generated using pymatgen
data_Ta12Zn11NiN2
_symmetry_space_group_name_H-M   'P 1'
_cell_length_a   8.07997990
_cell_length_b   8.08051874
_cell_length_c   8.07997988
_cell_angle_alpha   60.00220998
_cell_angle_beta   60.00000409
_cell_angle_gamma   60.00221324
_symmetry_Int_Tables_number   1
_chemical_formula_structural   Ta12Zn11NiN2
_chemical_formula_sum   'Ta12 Zn11 Ni1 N2'
_cell_volume   373.04337717
_cell_formula_units_Z   1
loop_
 _symmetry_equiv_pos_site_id
 _symmetry_equiv_pos_as_xyz
  1  'x, y, z'
loop_
 _atom_site_type_symbol
 _atom_site_label
 _atom_site_symmetry_multiplicity
 _atom_site_fract_x
 _atom_site_fract_y
 _atom_site_fract_z
 _atom_site_occupancy
  Ta  Ta0  1  0.19009701  0.81048683  0.19009701  1
  Ta  Ta1  1  0.43916839  0.06146235  0.43916839  1
  Ta  Ta2  1  0.43916839  0.06146235  0.06020086  1
  Ta  Ta3  1  0.44205521  0.44332692  0.05730893  1
  Ta  Ta4  1  0.19009701  0.81048683  0.80931916  1
  Ta  Ta5  1  0.05730893  0.44332692  0.05730893  1
  Ta  Ta6  1  0.80931916  0.81048683  0.19009701  1
  Ta  Ta7  1  0.05730893  0.44332692  0.44205521  1
  Ta  Ta8  1  0.18922840  0.19149215  0.80963972  1
  Ta  Ta9  1  0.80963972  0.19149215  0.18922840  1
  Ta  Ta10  1  0.80963972  0.19149215  0.80963972  1
  Ta  Ta11  1  0.06020086  0.06146235  0.43916839  1
  Zn  Zn0  1  0.41703910  0.41774138  0.74817842  1
  Zn  Zn1  1  0.74817842  0.41774138  0.41703910  1
  Zn  Zn2  1  0.41703910  0.41774138  0.41703910  1
  Zn  Zn3  1  0.83274104  0.83004127  0.50447765  1
  Zn  Zn4  1  0.41745166  0.74764301  0.41745166  1
  Zn  Zn5  1  0.83274104  0.83004127  0.83274104  1
  Zn  Zn6  1  0.50447765  0.83004127  0.83274104  1
  Zn  Zn7  1  0.62522824  0.12431527  0.62522824  1
  Zn  Zn8  1  0.62776906  0.62249409  0.12196780  1
  Zn  Zn9  1  0.12196780  0.62249409  0.62776906  1
  Zn  Zn10  1  0.62776906  0.62249409  0.62776906  1
  Ni  Ni0  1  0.83575369  0.49273992  0.83575369  1
  N  N0  1  0.00002172  0.99993585  0.00002172  1
  N  N1  1  0.24858968  0.25423097  0.24858968  1
loop_
_geom_bond_atom_site_label_1
_geom_bond_atom_site_label_2
_geom_bond_distance
_geom_bond_site_symmetry_2
Ta0 Zn6 2.724940 1_554
Ta0 Zn3 2.724940 1_455
Ta0 Zn4 2.918256 1_555
Ta0 Zn2 2.919063 1_555
Ta0 Zn9 2.938434 1_555
Ta0 Zn8 2.938434 1_555
Ta1 Zn2 2.711943 1_555
Ta1 Zn4 2.722615 1_545
Ta1 Zn7 2.926633 1_555
Ta1 Zn6 2.938232 1_545
Ta1 Zn3 2.938232 1_545
Ta1 Zn10 2.956103 1_545
Ta2 Zn0 2.711950 1_554
Ta2 Zn4 2.722606 1_545
Ta2 Zn7 2.926633 1_554
Ta2 Zn6 2.938225 1_544
Ta2 Zn5 2.938229 1_544
Ta2 Zn8 2.956103 1_545
Ta3 Zn2 2.717606 1_555
Ta3 Zn0 2.717622 1_554
Ta3 Zn6 2.881430 1_554
Ta3 Zn8 2.886738 1_555
Ta3 Zn10 2.886738 1_554
Ta4 Zn5 2.724936 1_455
Ta4 Zn6 2.724944 1_555
Ta4 Zn4 2.918270 1_555
Ta4 Zn0 2.919069 1_555
Ta4 Zn9 2.938434 1_555
Ta4 Zn10 2.938434 1_555
Ta5 Zn1 2.717613 1_455
Ta5 Zn0 2.717613 1_554
Ta5 Zn5 2.881427 1_454
Ta5 Zn9 2.886738 1_554
Ta5 Zn8 2.886738 1_455
Ta6 Zn5 2.724936 1_554
Ta6 Zn3 2.724944 1_555
Ta6 Zn4 2.918270 1_555
Ta6 Zn1 2.919069 1_555
Ta6 Zn8 2.938434 1_555
Ta6 Zn10 2.938434 1_555
Ta7 Zn2 2.717606 1_555
Ta7 Zn1 2.717622 1_455
Ta7 Zn3 2.881430 1_455
Ta7 Zn9 2.886738 1_555
Ta7 Zn10 2.886738 1_455
Ta8 Zn6 2.746783 1_545
Ta8 Zn9 2.893547 1_555
Ta8 Zn0 2.918938 1_555
Ta8 Zn2 2.918946 1_555
Ta8 Zn7 2.927948 1_555
Ta9 Zn3 2.746783 1_545
Ta9 Zn8 2.893547 1_555
Ta9 Zn1 2.918938 1_555
Ta9 Zn2 2.918946 1_555
Ta9 Zn7 2.927948 1_555
Ta10 Zn5 2.746780 1_545
Ta10 Zn10 2.893547 1_555
Ta10 Zn1 2.918952 1_555
Ta10 Zn0 2.918952 1_555
Ta10 Zn7 2.927948 1_555
Ta11 Zn1 2.711950 1_455
Ta11 Zn4 2.722607 1_545
Ta11 Zn7 2.926633 1_455
Ta11 Zn3 2.938225 1_445
Ta11 Zn5 2.938229 1_445
Ta11 Zn9 2.956103 1_545
Zn0 Zn9 2.476660 1_555
Zn0 Zn10 2.476673 1_555
Zn0 Zn7 2.476769 1_555
Zn0 Zn4 2.669114 1_555
Zn0 Zn2 2.675599 1_555
Zn0 Zn1 2.675599 1_555
Zn1 Zn8 2.476660 1_555
Zn1 Zn10 2.476673 1_555
Zn1 Zn7 2.476769 1_555
Zn1 Zn4 2.669114 1_555
Zn1 Zn2 2.675599 1_555
Zn2 Zn8 2.476668 1_555
Zn2 Zn9 2.476668 1_555
Zn2 Zn7 2.476778 1_555
Zn2 Zn4 2.669114 1_555
Zn3 Zn9 2.450469 1_655
Zn3 Zn7 2.472815 1_565
Zn3 Zn5 2.652362 1_555
Zn3 Zn6 2.652362 1_555
Zn4 Zn9 2.499857 1_555
Zn4 Zn8 2.499857 1_555
Zn5 Zn8 2.450473 1_556
Zn5 Zn9 2.450473 1_655
Zn5 Zn7 2.472820 1_565
Zn5 Zn6 2.652362 1_555
Zn6 Zn8 2.450468 1_556
Zn6 Zn7 2.472815 1_565
Zn10 Zn3 2.450475 1_555
Zn10 Zn6 2.450475 1_555
Zn10 Zn4 2.499870 1_555
Ni0 Zn9 2.459249 1_655
Ni0 Zn8 2.459249 1_556
Ni0 Zn10 2.459255 1_555
Ni0 Ta9 2.661999 1_556
Ni0 Ta8 2.661999 1_655
Ni0 Ta10 2.662003 1_555
Ni0 Zn5 2.701449 1_555
Ni0 Zn3 2.701449 1_555
Ni0 Zn6 2.701449 1_555
Ni0 Ta5 2.888598 1_656
Ni0 Ta3 2.888605 1_556
Ni0 Ta7 2.888605 1_655
N0 Ta0 2.172034 1_555
N0 Ta6 2.172039 1_455
N0 Ta4 2.172039 1_554
N0 Ta8 2.175549 1_564
N0 Ta9 2.175549 1_465
N0 Ta10 2.175555 1_464
N1 Ta11 2.177854 1_555
N1 Ta2 2.177854 1_555
N1 Ta1 2.177854 1_555
N1 Ta3 2.185873 1_555
N1 Ta5 2.185873 1_555
N1 Ta7 2.185873 1_555
