# generated using pymatgen
data_SrCaHgAs2
_symmetry_space_group_name_H-M   'P 1'
_cell_length_a   8.91985810
_cell_length_b   8.91985765
_cell_length_c   7.05981490
_cell_angle_alpha   90.00000000
_cell_angle_beta   90.00000000
_cell_angle_gamma   151.54241485
_symmetry_Int_Tables_number   1
_chemical_formula_structural   SrCaHgAs2
_chemical_formula_sum   'Sr2 Ca2 Hg2 As4'
_cell_volume   267.65751070
_cell_formula_units_Z   2
loop_
 _symmetry_equiv_pos_site_id
 _symmetry_equiv_pos_as_xyz
  1  'x, y, z'
loop_
 _atom_site_type_symbol
 _atom_site_label
 _atom_site_symmetry_multiplicity
 _atom_site_fract_x
 _atom_site_fract_y
 _atom_site_fract_z
 _atom_site_occupancy
  Sr  Sr0  1  0.30259559  0.69740441  0.94658800  1
  Sr  Sr1  1  0.69740441  0.30259559  0.44658800  1
  Ca  Ca0  1  0.47372716  0.52627284  0.27207781  1
  Ca  Ca1  1  0.52627284  0.47372716  0.77207781  1
  Hg  Hg0  1  0.10087496  0.89912504  0.10668552  1
  Hg  Hg1  1  0.89912504  0.10087496  0.60668552  1
  As  As0  1  0.06044953  0.93955047  0.48564974  1
  As  As1  1  0.93955047  0.06044953  0.98564974  1
  As  As2  1  0.32583779  0.67416221  0.47766793  1
  As  As3  1  0.67416221  0.32583779  0.97766793  1
loop_
_geom_bond_atom_site_label_1
_geom_bond_atom_site_label_2
_geom_bond_distance
_geom_bond_site_symmetry_2
Ca0 Hg0 3.317301 1_545
Ca0 Hg0 3.317301 1_655
Ca0 Hg1 3.471512 1_565
Ca0 Hg1 3.471512 1_455
Ca1 Hg1 3.317301 1_565
Ca1 Hg1 3.317301 1_455
Ca1 Hg0 3.471512 1_546
Ca1 Hg0 3.471512 1_656
Hg0 Sr1 3.653968 1_455
Hg0 Sr1 3.653968 1_565
Hg0 Sr0 3.666783 1_554
Hg1 Sr0 3.653968 1_655
Hg1 Sr0 3.653968 1_545
Hg1 Sr1 3.666783 1_555
As0 Hg0 2.765237 1_555
As0 Hg1 2.917625 1_465
As0 Ca1 3.040581 1_565
As0 Ca1 3.040581 1_455
As0 Ca0 3.054368 1_565
As0 Ca0 3.054368 1_455
As0 Sr1 3.239082 1_455
As0 Sr1 3.239083 1_565
As1 Hg1 2.765237 1_555
As1 Hg0 2.917625 1_646
As1 Ca0 3.040581 1_546
As1 Ca0 3.040581 1_656
As1 Ca1 3.054368 1_545
As1 Ca1 3.054368 1_655
As1 Sr0 3.239082 1_655
As1 Sr0 3.239083 1_545
As2 Hg1 2.691201 1_455
As2 Hg1 2.691201 1_565
As2 Ca0 2.940538 1_555
As2 Sr1 3.128498 1_565
As2 Sr1 3.128498 1_455
As2 Sr0 3.334797 1_555
As2 Sr0 3.770806 1_554
As3 Hg0 2.691201 1_656
As3 Hg0 2.691201 1_546
As3 Ca1 2.940538 1_555
As3 Sr0 3.128498 1_545
As3 Sr0 3.128498 1_655
As3 Sr1 3.334797 1_556
As3 Sr1 3.770806 1_555
