# generated using pymatgen
data_Na16SiSnAs8
_symmetry_space_group_name_H-M   'P 1'
_cell_length_a   9.74741736
_cell_length_b   9.74741876
_cell_length_c   9.74741784
_cell_angle_alpha   59.99636476
_cell_angle_beta   59.99635570
_cell_angle_gamma   59.99635844
_symmetry_Int_Tables_number   1
_chemical_formula_structural   Na16SiSnAs8
_chemical_formula_sum   'Na16 Si1 Sn1 As8'
_cell_volume   654.81395162
_cell_formula_units_Z   1
loop_
 _symmetry_equiv_pos_site_id
 _symmetry_equiv_pos_as_xyz
  1  'x, y, z'
loop_
 _atom_site_type_symbol
 _atom_site_label
 _atom_site_symmetry_multiplicity
 _atom_site_fract_x
 _atom_site_fract_y
 _atom_site_fract_z
 _atom_site_occupancy
  Na  Na0  1  0.62812832  0.62812832  0.11559368  1
  Na  Na1  1  0.62812832  0.11559268  0.62812832  1
  Na  Na2  1  0.11559368  0.62812832  0.62812832  1
  Na  Na3  1  0.62816219  0.62816219  0.62816219  1
  Na  Na4  1  0.02393394  0.47608625  0.47608725  1
  Na  Na5  1  0.77315418  0.22685038  0.22685038  1
  Na  Na6  1  0.47608725  0.02393294  0.47608725  1
  Na  Na7  1  0.47608725  0.47608725  0.02393294  1
  Na  Na8  1  0.02390994  0.02390994  0.47608518  1
  Na  Na9  1  0.02390994  0.47608518  0.02390894  1
  Na  Na10  1  0.47608518  0.02390994  0.02390994  1
  Na  Na11  1  0.77314536  0.22684399  0.77314536  1
  Na  Na12  1  0.22685138  0.77315418  0.22685138  1
  Na  Na13  1  0.22685038  0.22685038  0.77315418  1
  Na  Na14  1  0.77314536  0.77314536  0.22684399  1
  Na  Na15  1  0.22684299  0.77314536  0.77314636  1
  Si  Si0  1  0.75000779  0.75000779  0.75000779  1
  Sn  Sn0  1  0.49998971  0.49999071  0.49998971  1
  As  As0  1  0.85232837  0.85232837  0.44301541  1
  As  As1  1  0.85232837  0.44301541  0.85232837  1
  As  As2  1  0.38920310  0.38920310  0.83240260  1
  As  As3  1  0.38920310  0.83240260  0.38920310  1
  As  As4  1  0.83240260  0.38920310  0.38920310  1
  As  As5  1  0.85232516  0.85232516  0.85232516  1
  As  As6  1  0.44301541  0.85232837  0.85232837  1
  As  As7  1  0.38918172  0.38918172  0.38918172  1
loop_
_geom_bond_atom_site_label_1
_geom_bond_atom_site_label_2
_geom_bond_distance
_geom_bond_site_symmetry_2
Na0 Si0 2.909467 1_554
Na0 Sn0 3.059165 1_555
Na0 Na7 3.167973 1_555
Na0 Na9 3.168049 1_655
Na0 Na10 3.168051 1_565
Na0 Na12 3.199158 1_555
Na0 Na5 3.199167 1_555
Na0 Na14 3.199451 1_555
Na1 Si0 2.909460 1_545
Na1 Sn0 3.059182 1_555
Na1 Na6 3.167966 1_555
Na1 Na8 3.168051 1_655
Na1 Na10 3.168051 1_556
Na1 Na13 3.199166 1_555
Na1 Na5 3.199166 1_555
Na1 Na11 3.199459 1_555
Na2 Si0 2.909467 1_455
Na2 Sn0 3.059165 1_555
Na2 Na4 3.167974 1_555
Na2 Na9 3.168042 1_556
Na2 Na8 3.168051 1_565
Na3 Si0 2.909290 1_555
Na3 Sn0 3.060348 1_555
Na3 Na7 3.167994 1_556
Na3 Na6 3.167994 1_565
Na3 Na4 3.168002 1_655
Na11 Na3 3.199432 1_555
Na12 Na2 3.199158 1_555
Na13 Na2 3.199167 1_555
Na14 Na3 3.199432 1_555
Na15 Na3 3.199439 1_555
Na15 Na2 3.199451 1_555
As0 Si0 2.443159 1_555
As0 Na5 3.078641 1_565
As0 Na12 3.078645 1_655
As0 Na14 3.078990 1_555
As0 Na6 3.094080 1_565
As0 Na4 3.094089 1_655
As0 Na8 3.094205 1_665
As0 Na3 3.113379 1_555
As0 Na1 3.113721 1_565
As0 Na2 3.113728 1_655
As1 Si0 2.443159 1_555
As1 Na13 3.078641 1_655
As1 Na5 3.078641 1_556
As1 Na11 3.078990 1_555
As1 Na7 3.094080 1_556
As1 Na4 3.094082 1_655
As1 Na9 3.094196 1_656
As1 Na3 3.113379 1_555
As1 Na0 3.113728 1_556
As1 Na2 3.113728 1_655
As2 Sn0 2.645464 1_555
As2 Na9 2.966131 1_556
As2 Na10 2.966133 1_556
As2 Na7 2.966433 1_556
As2 Na11 3.110149 1_555
As2 Na15 3.110151 1_555
As2 Na13 3.110464 1_555
As2 Na2 3.310994 1_555
As2 Na1 3.311001 1_555
As2 Na3 3.311309 1_555
As3 Sn0 2.645457 1_555
As3 Na8 2.966133 1_565
As3 Na10 2.966133 1_565
As3 Na6 2.966433 1_565
As3 Na14 3.110149 1_555
As3 Na15 3.110158 1_555
As3 Na12 3.110447 1_555
As3 Na0 3.310993 1_555
As3 Na2 3.310993 1_555
As3 Na3 3.311309 1_555
As4 Sn0 2.645464 1_555
As4 Na8 2.966133 1_655
As4 Na9 2.966140 1_655
As4 Na4 2.966435 1_655
As4 Na11 3.110149 1_555
As4 Na14 3.110150 1_555
As4 Na5 3.110464 1_555
As4 Na0 3.310994 1_555
As4 Na1 3.311001 1_555
As4 Na3 3.311309 1_555
As5 Si0 2.443017 1_555
As5 Na15 3.078668 1_655
As5 Na14 3.078675 1_556
As5 Na11 3.078675 1_565
As5 Na9 3.094024 1_656
As5 Na10 3.094025 1_566
As5 Na8 3.094025 1_665
As5 Na1 3.113801 1_565
As5 Na2 3.113802 1_655
As5 Na0 3.113802 1_556
As6 Si0 2.443158 1_555
As6 Na13 3.078641 1_565
As6 Na12 3.078646 1_556
As6 Na15 3.078992 1_555
As6 Na6 3.094080 1_565
As6 Na7 3.094080 1_556
As6 Na10 3.094205 1_566
As6 Na3 3.113379 1_555
As6 Na1 3.113721 1_565
As6 Na0 3.113728 1_556
As7 Sn0 2.645755 1_555
As7 Na4 2.965739 1_555
As7 Na7 2.965746 1_555
As7 Na6 2.965747 1_555
As7 Na12 3.110277 1_555
As7 Na5 3.110280 1_555
As7 Na13 3.110280 1_555
As7 Na2 3.311008 1_555
As7 Na0 3.311008 1_555
As7 Na1 3.311009 1_555
