# generated using pymatgen
data_AlAsI6
_symmetry_space_group_name_H-M   'P 1'
_cell_length_a   10.35832460
_cell_length_b   10.35832481
_cell_length_c   7.40625567
_cell_angle_alpha   71.29703732
_cell_angle_beta   71.29703585
_cell_angle_gamma   80.03185443
_symmetry_Int_Tables_number   1
_chemical_formula_structural   AlAsI6
_chemical_formula_sum   'Al2 As2 I12'
_cell_volume   710.75329105
_cell_formula_units_Z   2
loop_
 _symmetry_equiv_pos_site_id
 _symmetry_equiv_pos_as_xyz
  1  'x, y, z'
loop_
 _atom_site_type_symbol
 _atom_site_label
 _atom_site_symmetry_multiplicity
 _atom_site_fract_x
 _atom_site_fract_y
 _atom_site_fract_z
 _atom_site_occupancy
  Al  Al0  1  0.19412778  0.19412778  0.66660315  1
  Al  Al1  1  0.80587222  0.80587222  0.33339685  1
  As  As0  1  0.79891704  0.20108296  1.00000000  1
  As  As1  1  0.20108296  0.79891704  0.00000000  1
  I  I0  1  0.21781601  0.57108541  0.92414520  1
  I  I1  1  0.42891459  0.78218399  0.07585480  1
  I  I2  1  0.78218399  0.42891459  0.07585480  1
  I  I3  1  0.57108541  0.21781601  0.92414520  1
  I  I4  1  0.03343941  0.71918643  0.42591834  1
  I  I5  1  0.28081357  0.96656059  0.57408166  1
  I  I6  1  0.96656059  0.28081357  0.57408166  1
  I  I7  1  0.71918643  0.03343941  0.42591834  1
  I  I8  1  0.86226976  0.86226976  0.95717029  1
  I  I9  1  0.13773024  0.13773024  0.04282971  1
  I  I10  1  0.63381322  0.63381322  0.52040707  1
  I  I11  1  0.36618678  0.36618678  0.47959293  1
loop_
_geom_bond_atom_site_label_1
_geom_bond_atom_site_label_2
_geom_bond_distance
_geom_bond_site_symmetry_2
Al0 I11 2.490904 1_555
Al0 I9 2.544996 1_556
Al0 I6 2.596306 1_455
Al0 I5 2.596307 1_545
Al1 I10 2.490904 1_555
Al1 I8 2.544996 1_554
Al1 I4 2.596306 1_655
Al1 I7 2.596307 1_565
As0 I3 2.561497 1_555
As0 I2 2.561497 1_556
As0 I6 2.993471 1_555
As0 I7 2.993471 1_556
As1 I1 2.561497 1_555
As1 I0 2.561497 1_554
As1 I4 2.993471 1_555
As1 I5 2.993471 1_554
