# generated using pymatgen
data_Lu8Al2IrRh
_symmetry_space_group_name_H-M   'P 1'
_cell_length_a   9.27784086
_cell_length_b   9.27784112
_cell_length_c   9.29810685
_cell_angle_alpha   59.92771709
_cell_angle_beta   59.92771617
_cell_angle_gamma   59.85291491
_symmetry_Int_Tables_number   1
_chemical_formula_structural   Lu8Al2IrRh
_chemical_formula_sum   'Lu16 Al4 Ir2 Rh2'
_cell_volume   564.69506719
_cell_formula_units_Z   2
loop_
 _symmetry_equiv_pos_site_id
 _symmetry_equiv_pos_as_xyz
  1  'x, y, z'
loop_
 _atom_site_type_symbol
 _atom_site_label
 _atom_site_symmetry_multiplicity
 _atom_site_fract_x
 _atom_site_fract_y
 _atom_site_fract_z
 _atom_site_occupancy
  Lu  Lu0  1  0.60247962  0.60247962  0.60245997  1
  Lu  Lu1  1  0.60247962  0.60247962  0.19258279  1
  Lu  Lu2  1  0.60197585  0.19372839  0.60214838  1
  Lu  Lu3  1  0.19372839  0.60197585  0.60214838  1
  Lu  Lu4  1  0.05610058  0.44336835  0.44429717  1
  Lu  Lu5  1  0.44336835  0.05610058  0.05623389  1
  Lu  Lu6  1  0.44336835  0.05610058  0.44429717  1
  Lu  Lu7  1  0.05610058  0.44336835  0.05623389  1
  Lu  Lu8  1  0.44414661  0.44414661  0.05585339  1
  Lu  Lu9  1  0.05628994  0.05628994  0.44371006  1
  Lu  Lu10  1  0.18787184  0.81061036  0.81321376  1
  Lu  Lu11  1  0.81061036  0.18787184  0.18830504  1
  Lu  Lu12  1  0.81061036  0.18787184  0.81321376  1
  Lu  Lu13  1  0.18787184  0.81061036  0.18830504  1
  Lu  Lu14  1  0.81265498  0.81265498  0.18734502  1
  Lu  Lu15  1  0.18859323  0.18859323  0.81140677  1
  Al  Al0  1  0.82840222  0.82840222  0.82832333  1
  Al  Al1  1  0.82840222  0.82840222  0.51487223  1
  Al  Al2  1  0.82858021  0.51461711  0.82840134  1
  Al  Al3  1  0.51461711  0.82858021  0.82840134  1
  Ir  Ir0  1  0.39242120  0.39242120  0.39089058  1
  Ir  Ir1  1  0.39242120  0.39242120  0.82426602  1
  Rh  Rh0  1  0.39274405  0.82416127  0.39154634  1
  Rh  Rh1  1  0.82416127  0.39274405  0.39154634  1
loop_
_geom_bond_atom_site_label_1
_geom_bond_atom_site_label_2
_geom_bond_distance
_geom_bond_site_symmetry_2
Lu0 Rh1 2.761294 1_555
Lu0 Rh0 2.761294 1_555
Lu0 Lu10 3.338054 1_555
Lu0 Lu12 3.338054 1_555
Lu0 Lu14 3.352041 1_555
Lu1 Rh1 2.761269 1_555
Lu1 Rh0 2.761269 1_555
Lu1 Lu13 3.338057 1_555
Lu1 Lu11 3.338057 1_555
Lu1 Lu14 3.352031 1_555
Lu2 Rh1 2.765386 1_555
Lu3 Rh0 2.765386 1_555
Lu4 Rh1 2.719501 1_455
Lu5 Rh0 2.719488 1_545
Lu6 Rh0 2.719501 1_545
Lu7 Rh1 2.719488 1_455
Lu9 Rh0 2.719287 1_545
Lu9 Rh1 2.719287 1_455
Lu10 Lu3 3.346014 1_555
Lu10 Rh0 3.358285 1_555
Lu10 Lu8 3.445542 1_556
Lu10 Lu7 3.450980 1_556
Lu10 Lu6 3.466593 1_565
Lu10 Lu9 3.471299 1_565
Lu10 Lu14 3.476179 1_456
Lu10 Lu13 3.487639 1_556
Lu10 Lu12 3.492388 1_465
Lu10 Lu15 3.501834 1_565
Lu11 Lu2 3.346014 1_555
Lu11 Rh1 3.358261 1_555
Lu11 Lu8 3.445547 1_555
Lu11 Lu6 3.450979 1_555
Lu11 Lu7 3.466590 1_655
Lu11 Lu9 3.471292 1_655
Lu11 Lu14 3.476184 1_545
Lu11 Lu12 3.487639 1_554
Lu11 Lu13 3.492388 1_645
Lu11 Lu15 3.501839 1_654
Lu12 Lu2 3.346014 1_555
Lu12 Rh1 3.358285 1_555
Lu12 Lu8 3.445542 1_556
Lu12 Lu5 3.450980 1_556
Lu12 Lu4 3.466593 1_655
Lu12 Lu9 3.471299 1_655
Lu12 Lu14 3.476179 1_546
Lu12 Lu15 3.501834 1_655
Lu13 Lu3 3.346014 1_555
Lu13 Rh0 3.358261 1_555
Lu13 Lu8 3.445547 1_555
Lu13 Lu4 3.450979 1_555
Lu13 Lu5 3.466590 1_565
Lu13 Lu9 3.471292 1_565
Lu13 Lu14 3.476183 1_455
Lu13 Lu15 3.501839 1_564
Lu14 Rh0 3.341614 1_555
Lu14 Rh1 3.341614 1_555
Lu14 Lu5 3.461199 1_565
Lu14 Lu6 3.461199 1_565
Lu14 Lu7 3.461199 1_655
Lu14 Lu4 3.461199 1_655
Lu15 Lu2 3.333096 1_555
Lu15 Lu3 3.333096 1_555
Lu15 Lu5 3.456918 1_556
Lu15 Lu6 3.456918 1_555
Lu15 Lu4 3.456918 1_555
Lu15 Lu7 3.456918 1_556
Al0 Al3 2.910056 1_555
Al0 Al2 2.910056 1_555
Al0 Al1 2.914502 1_555
Al0 Lu10 3.189136 1_655
Al0 Lu12 3.189136 1_565
Al0 Lu14 3.198483 1_556
Al0 Lu1 3.231385 1_556
Al0 Lu3 3.233576 1_655
Al0 Lu2 3.233576 1_565
Al0 Lu5 3.321825 1_566
Al0 Lu7 3.321825 1_656
Al0 Lu9 3.326330 1_665
Al1 Al3 2.910056 1_555
Al1 Al2 2.910056 1_555
Al1 Lu13 3.189132 1_655
Al1 Lu11 3.189132 1_565
Al1 Lu14 3.198483 1_555
Al1 Lu0 3.231378 1_555
Al1 Lu3 3.233580 1_655
Al1 Lu2 3.233580 1_565
Al1 Lu6 3.321825 1_565
Al1 Lu4 3.321825 1_655
Al1 Lu9 3.326330 1_665
Al2 Al3 2.906421 1_555
Al2 Lu15 3.183213 1_655
Al2 Lu12 3.193424 1_555
Al2 Lu11 3.193429 1_556
Al2 Lu0 3.234367 1_555
Al2 Lu1 3.234382 1_556
Al2 Lu3 3.235172 1_655
Al2 Lu8 3.319421 1_556
Al2 Lu7 3.325216 1_656
Al2 Lu4 3.325216 1_655
Al3 Lu15 3.183213 1_565
Al3 Lu10 3.193424 1_555
Al3 Lu13 3.193429 1_556
Al3 Lu0 3.234367 1_555
Al3 Lu1 3.234383 1_556
Al3 Lu2 3.235172 1_565
Al3 Lu8 3.319422 1_556
Al3 Lu6 3.325216 1_565
Al3 Lu5 3.325216 1_566
Ir0 Lu8 2.720288 1_555
Ir0 Lu4 2.721647 1_555
Ir0 Lu6 2.721647 1_555
Ir0 Lu1 2.758357 1_555
Ir0 Lu2 2.763173 1_555
Ir0 Lu3 2.763173 1_555
Ir0 Lu11 3.326504 1_555
Ir0 Lu13 3.326504 1_555
Ir0 Lu15 3.348436 1_555
Ir1 Lu8 2.720297 1_556
Ir1 Lu7 2.721649 1_556
Ir1 Lu5 2.721650 1_556
Ir1 Lu0 2.758356 1_555
Ir1 Lu2 2.763159 1_555
Ir1 Lu3 2.763159 1_555
Ir1 Lu12 3.326509 1_555
Ir1 Lu10 3.326509 1_555
Ir1 Lu15 3.348430 1_555
