# generated using pymatgen
data_Ti6Al8Si8Ir7
_symmetry_space_group_name_H-M   'P 1'
_cell_length_a   8.40075108
_cell_length_b   8.40075101
_cell_length_c   8.40075229
_cell_angle_alpha   60.00000271
_cell_angle_beta   60.00000298
_cell_angle_gamma   60.00000620
_symmetry_Int_Tables_number   1
_chemical_formula_structural   Ti6Al8Si8Ir7
_chemical_formula_sum   'Ti6 Al8 Si8 Ir7'
_cell_volume   419.21754429
_cell_formula_units_Z   1
loop_
 _symmetry_equiv_pos_site_id
 _symmetry_equiv_pos_as_xyz
  1  'x, y, z'
loop_
 _atom_site_type_symbol
 _atom_site_label
 _atom_site_symmetry_multiplicity
 _atom_site_fract_x
 _atom_site_fract_y
 _atom_site_fract_z
 _atom_site_occupancy
  Ti  Ti0  1  0.19268564  0.80731436  0.80731436  1
  Ti  Ti1  1  0.80731436  0.19268564  0.19268564  1
  Ti  Ti2  1  0.80731436  0.19268564  0.80731436  1
  Ti  Ti3  1  0.80731436  0.80731436  0.19268564  1
  Ti  Ti4  1  0.19268564  0.80731436  0.19268564  1
  Ti  Ti5  1  0.19268564  0.19268564  0.80731436  1
  Al  Al0  1  0.62100450  0.62100450  0.62100450  1
  Al  Al1  1  0.62100450  0.62100450  0.13698449  1
  Al  Al2  1  0.13698449  0.62100450  0.62100450  1
  Al  Al3  1  0.62100450  0.13698449  0.62100450  1
  Al  Al4  1  0.37899550  0.37899550  0.37899550  1
  Al  Al5  1  0.37899550  0.37899550  0.86301551  1
  Al  Al6  1  0.37899550  0.86301551  0.37899550  1
  Al  Al7  1  0.86301551  0.37899550  0.37899550  1
  Si  Si0  1  0.84907048  0.84907048  0.84907048  1
  Si  Si1  1  0.84907048  0.84907048  0.45278856  1
  Si  Si2  1  0.45278856  0.84907048  0.84907048  1
  Si  Si3  1  0.84907048  0.45278856  0.84907048  1
  Si  Si4  1  0.15092952  0.15092952  0.15092952  1
  Si  Si5  1  0.15092952  0.15092952  0.54721144  1
  Si  Si6  1  0.15092952  0.54721144  0.15092952  1
  Si  Si7  1  0.54721144  0.15092952  0.15092952  1
  Ir  Ir0  1  0.50000000  0.50000000  0.50000000  1
  Ir  Ir1  1  0.00000000  0.50000000  0.50000000  1
  Ir  Ir2  1  0.50000000  0.00000000  0.00000000  1
  Ir  Ir3  1  0.50000000  0.00000000  0.50000000  1
  Ir  Ir4  1  0.50000000  0.50000000  0.00000000  1
  Ir  Ir5  1  0.00000000  0.50000000  0.00000000  1
  Ir  Ir6  1  0.00000000  0.00000000  0.50000000  1
loop_
_geom_bond_atom_site_label_1
_geom_bond_atom_site_label_2
_geom_bond_distance
_geom_bond_site_symmetry_2
Al0 Ir0 2.489977 1_555
Al0 Ir3 2.600756 1_565
Al0 Ir1 2.600756 1_655
Al0 Ir4 2.600756 1_556
Al0 Si1 2.755782 1_555
Al0 Si2 2.755782 1_555
Al0 Si3 2.755782 1_555
Al1 Ir0 2.489991 1_555
Al1 Ir4 2.600742 1_555
Al1 Ir2 2.600755 1_565
Al1 Ir5 2.600755 1_655
Al1 Si2 2.755769 1_554
Al1 Si3 2.755769 1_554
Al1 Si0 2.755779 1_554
Al2 Ir0 2.489991 1_555
Al2 Ir1 2.600742 1_555
Al2 Ir6 2.600755 1_565
Al2 Ir5 2.600755 1_556
Al2 Si3 2.755769 1_455
Al2 Si1 2.755769 1_455
Al2 Si0 2.755779 1_455
Al3 Ir0 2.489990 1_555
Al3 Ir3 2.600742 1_555
Al3 Ir6 2.600755 1_655
Al3 Ir2 2.600755 1_556
Al3 Si2 2.755769 1_545
Al3 Si1 2.755769 1_545
Al3 Si0 2.755779 1_545
Al4 Ir0 2.489977 1_555
Al4 Ir3 2.600756 1_555
Al4 Ir1 2.600756 1_555
Al4 Ir4 2.600756 1_555
Al4 Si5 2.755782 1_555
Al4 Si7 2.755782 1_555
Al4 Si6 2.755782 1_555
Al5 Ir0 2.489991 1_555
Al5 Ir4 2.600742 1_556
Al5 Ir2 2.600755 1_556
Al5 Ir5 2.600755 1_556
Al5 Si7 2.755769 1_556
Al5 Si6 2.755769 1_556
Al5 Si4 2.755779 1_556
Al6 Ir0 2.489990 1_555
Al6 Ir3 2.600742 1_565
Al6 Ir6 2.600755 1_565
Al6 Ir2 2.600755 1_565
Al6 Si7 2.755769 1_565
Al6 Si5 2.755769 1_565
Al6 Si4 2.755779 1_565
Al7 Ir0 2.489991 1_555
Al7 Ir1 2.600742 1_655
Al7 Ir6 2.600755 1_655
Al7 Ir5 2.600755 1_655
Al7 Si6 2.755769 1_655
Al7 Si5 2.755769 1_655
Al7 Si4 2.755779 1_655
Si0 Ti2 2.583911 1_565
Si0 Ti0 2.583911 1_655
Si0 Ti3 2.583911 1_556
Si1 Ti1 2.583911 1_565
Si1 Ti4 2.583911 1_655
Si1 Ti3 2.583911 1_555
Si2 Ti0 2.583911 1_555
Si2 Ti5 2.583911 1_565
Si2 Ti4 2.583911 1_556
Si3 Ti2 2.583911 1_555
Si3 Ti5 2.583911 1_655
Si3 Ti1 2.583911 1_556
Si4 Ti4 2.583911 1_545
Si4 Ti1 2.583911 1_455
Si4 Ti5 2.583911 1_554
Si5 Ti0 2.583911 1_545
Si5 Ti2 2.583911 1_455
Si5 Ti5 2.583911 1_555
Si6 Ti4 2.583911 1_555
Si6 Ti3 2.583911 1_455
Si6 Ti0 2.583911 1_554
Si7 Ti1 2.583911 1_555
Si7 Ti3 2.583911 1_545
Si7 Ti2 2.583911 1_554
Ir1 Si1 2.446614 1_455
Ir1 Si5 2.446614 1_555
Ir1 Si3 2.446614 1_455
Ir1 Si6 2.446614 1_555
Ir2 Si7 2.446614 1_555
Ir2 Si2 2.446614 1_544
Ir2 Si0 2.446614 1_544
Ir2 Si4 2.446614 1_555
Ir3 Si1 2.446614 1_545
Ir3 Si5 2.446614 1_555
Ir3 Si2 2.446614 1_545
Ir3 Si7 2.446614 1_555
Ir4 Si2 2.446614 1_554
Ir4 Si7 2.446614 1_555
Ir4 Si3 2.446614 1_554
Ir4 Si6 2.446614 1_555
Ir5 Si6 2.446614 1_555
Ir5 Si3 2.446614 1_454
Ir5 Si4 2.446614 1_555
Ir5 Si0 2.446614 1_454
Ir6 Si5 2.446614 1_555
Ir6 Si1 2.446614 1_445
Ir6 Si4 2.446614 1_555
Ir6 Si0 2.446614 1_445
