# generated using pymatgen
data_CaZn(MoN2)2
_symmetry_space_group_name_H-M   'P 1'
_cell_length_a   2.96664531
_cell_length_b   2.96664526
_cell_length_c   11.04209452
_cell_angle_alpha   90.00000000
_cell_angle_beta   90.00000000
_cell_angle_gamma   120.00000055
_symmetry_Int_Tables_number   1
_chemical_formula_structural   CaZn(MoN2)2
_chemical_formula_sum   'Ca1 Zn1 Mo2 N4'
_cell_volume   84.16147385
_cell_formula_units_Z   1
loop_
 _symmetry_equiv_pos_site_id
 _symmetry_equiv_pos_as_xyz
  1  'x, y, z'
loop_
 _atom_site_type_symbol
 _atom_site_label
 _atom_site_symmetry_multiplicity
 _atom_site_fract_x
 _atom_site_fract_y
 _atom_site_fract_z
 _atom_site_occupancy
  Ca  Ca0  1  0.00000000  0.00000000  0.50000000  1
  Zn  Zn0  1  0.00000000  0.00000000  0.00000000  1
  Mo  Mo0  1  0.33333300  0.66666700  0.75914958  1
  Mo  Mo1  1  0.66666700  0.33333300  0.24085042  1
  N  N0  1  0.66666700  0.33333300  0.64615201  1
  N  N1  1  0.66666700  0.33333300  0.87594375  1
  N  N2  1  0.33333300  0.66666700  0.12405625  1
  N  N3  1  0.33333300  0.66666700  0.35384799  1
loop_
_geom_bond_atom_site_label_1
_geom_bond_atom_site_label_2
_geom_bond_distance
_geom_bond_site_symmetry_2
Ca0 N0 2.353313 1_455
Ca0 N3 2.353313 1_545
Ca0 N0 2.353315 1_445
Ca0 N3 2.353315 1_555
Ca0 N0 2.353315 1_555
Ca0 N3 2.353315 1_445
Mo0 N0 2.119076 1_565
Mo0 N0 2.119077 1_455
Mo0 N0 2.119081 1_555
Mo0 N1 2.144029 1_565
Mo0 N1 2.144029 1_455
Mo0 N1 2.144033 1_555
Mo1 N3 2.119076 1_545
Mo1 N3 2.119077 1_655
Mo1 N3 2.119081 1_555
Mo1 N2 2.144029 1_545
Mo1 N2 2.144029 1_655
Mo1 N2 2.144033 1_555
N1 Zn0 2.193198 1_656
N1 Zn0 2.193200 1_666
N1 Zn0 2.193200 1_556
N2 Zn0 2.193198 1_565
N2 Zn0 2.193200 1_555
N2 Zn0 2.193200 1_665
