# generated using pymatgen
data_Lu4Sb6Ru3Rh4
_symmetry_space_group_name_H-M   'P 1'
_cell_length_a   7.46722649
_cell_length_b   7.46370326
_cell_length_c   7.46722692
_cell_angle_alpha   109.40949593
_cell_angle_beta   109.61380933
_cell_angle_gamma   109.40949891
_symmetry_Int_Tables_number   1
_chemical_formula_structural   Lu4Sb6Ru3Rh4
_chemical_formula_sum   'Lu4 Sb6 Ru3 Rh4'
_cell_volume   320.29276206
_cell_formula_units_Z   1
loop_
 _symmetry_equiv_pos_site_id
 _symmetry_equiv_pos_as_xyz
  1  'x, y, z'
loop_
 _atom_site_type_symbol
 _atom_site_label
 _atom_site_symmetry_multiplicity
 _atom_site_fract_x
 _atom_site_fract_y
 _atom_site_fract_z
 _atom_site_occupancy
  Lu  Lu0  1  0.99818101  0.99636302  0.49818101  1
  Lu  Lu1  1  0.00559669  0.50297467  0.00559669  1
  Lu  Lu2  1  0.49818101  0.99636302  0.99818101  1
  Lu  Lu3  1  0.49737798  0.50297467  0.49737798  1
  Sb  Sb0  1  0.68559366  0.68560679  0.00001313  1
  Sb  Sb1  1  0.31449011  0.99859417  0.31449011  1
  Sb  Sb2  1  0.00018107  0.31535904  0.31517696  1
  Sb  Sb3  1  0.31517696  0.31535904  0.00018107  1
  Sb  Sb4  1  0.68410407  0.99859417  0.68410407  1
  Sb  Sb5  1  0.00001313  0.68560679  0.68559366  1
  Ru  Ru0  1  0.24924450  0.74989263  0.50064812  1
  Ru  Ru1  1  0.50064812  0.74989263  0.24924450  1
  Ru  Ru2  1  0.00032191  0.00064383  0.00032191  1
  Rh  Rh0  1  0.75032475  0.25070000  0.50037425  1
  Rh  Rh1  1  0.75009439  0.50018877  0.25009439  1
  Rh  Rh2  1  0.50037425  0.25070000  0.75032475  1
  Rh  Rh3  1  0.25009439  0.50018877  0.75009439  1
loop_
_geom_bond_atom_site_label_1
_geom_bond_atom_site_label_2
_geom_bond_distance
_geom_bond_site_symmetry_2
Lu0 Rh1 3.025677 1_555
Lu0 Ru1 3.031591 1_555
Lu0 Ru0 3.031597 1_655
Lu0 Rh2 3.060072 1_665
Lu0 Rh0 3.060072 1_565
Lu0 Rh3 3.072336 1_665
Lu0 Sb0 3.082817 1_555
Lu0 Sb5 3.082823 1_655
Lu0 Sb4 3.102361 1_555
Lu0 Sb1 3.102362 1_655
Lu0 Sb2 3.112681 1_665
Lu0 Sb3 3.112681 1_666
Lu1 Ru1 3.016633 1_555
Lu1 Ru0 3.016633 1_555
Lu1 Rh1 3.051415 1_455
Lu1 Rh3 3.051415 1_554
Lu1 Sb1 3.067684 1_555
Lu1 Rh2 3.078447 1_454
Lu1 Rh0 3.078447 1_454
Lu1 Sb3 3.079463 1_555
Lu1 Sb2 3.079463 1_555
Lu1 Sb0 3.115354 1_455
Lu1 Sb5 3.115354 1_554
Lu1 Sb4 3.133027 1_444
Lu2 Rh3 3.025677 1_555
Lu2 Ru0 3.031591 1_555
Lu2 Ru1 3.031597 1_556
Lu2 Rh2 3.060072 1_565
Lu2 Rh0 3.060072 1_566
Lu2 Rh1 3.072336 1_566
Lu2 Sb5 3.082817 1_555
Lu2 Sb0 3.082823 1_556
Lu2 Sb4 3.102361 1_555
Lu2 Sb1 3.102362 1_556
Lu2 Sb3 3.112681 1_566
Lu2 Sb2 3.112681 1_666
Lu3 Ru0 3.016633 1_555
Lu3 Ru1 3.016633 1_555
Lu3 Rh1 3.051415 1_555
Lu3 Rh3 3.051415 1_555
Lu3 Sb4 3.067684 1_555
Lu3 Rh0 3.078441 1_555
Lu3 Rh2 3.078441 1_555
Lu3 Sb2 3.079469 1_555
Lu3 Sb3 3.079470 1_555
Lu3 Sb5 3.115354 1_655
Lu3 Sb0 3.115354 1_556
Lu3 Sb1 3.133027 1_545
Ru0 Sb2 2.678056 1_555
Ru0 Sb5 2.678333 1_555
Ru0 Sb4 2.680277 1_555
Ru0 Sb1 2.680278 1_555
Ru1 Sb3 2.678056 1_555
Ru1 Sb0 2.678333 1_555
Ru1 Sb1 2.680278 1_555
Ru1 Sb4 2.680278 1_555
Ru2 Sb1 2.712968 1_545
Ru2 Sb4 2.712968 1_444
Ru2 Sb0 2.715142 1_445
Ru2 Sb5 2.715142 1_544
Ru2 Sb3 2.716242 1_555
Ru2 Sb2 2.716242 1_555
Rh0 Sb5 2.681088 1_655
Rh0 Sb2 2.683958 1_655
Rh0 Sb1 2.687032 1_545
Rh0 Sb4 2.687037 1_545
Rh1 Sb2 2.678645 1_655
Rh1 Sb3 2.678652 1_555
Rh1 Sb0 2.681643 1_555
Rh1 Sb5 2.681644 1_655
Rh2 Sb0 2.681088 1_556
Rh2 Sb3 2.683958 1_556
Rh2 Sb1 2.687032 1_545
Rh2 Sb4 2.687037 1_545
Rh3 Sb3 2.678645 1_556
Rh3 Sb2 2.678652 1_555
Rh3 Sb5 2.681643 1_555
Rh3 Sb0 2.681643 1_556
