# generated using pymatgen
data_Na2GeAsAu2
_symmetry_space_group_name_H-M   'P 1'
_cell_length_a   5.65675892
_cell_length_b   5.70317257
_cell_length_c   5.70317344
_cell_angle_alpha   134.35882027
_cell_angle_beta   103.20025158
_cell_angle_gamma   94.29913649
_symmetry_Int_Tables_number   1
_chemical_formula_structural   Na2GeAsAu2
_chemical_formula_sum   'Na2 Ge1 As1 Au2'
_cell_volume   120.58021629
_cell_formula_units_Z   1
loop_
 _symmetry_equiv_pos_site_id
 _symmetry_equiv_pos_as_xyz
  1  'x, y, z'
loop_
 _atom_site_type_symbol
 _atom_site_label
 _atom_site_symmetry_multiplicity
 _atom_site_fract_x
 _atom_site_fract_y
 _atom_site_fract_z
 _atom_site_occupancy
  Na  Na0  1  0.20449840  0.70724015  0.49725925  1
  Na  Na1  1  0.60425196  0.60442988  0.99982208  1
  Ge  Ge0  1  0.64450708  0.32416605  0.32034102  1
  As  As0  1  0.00558962  0.32317119  0.68241943  1
  Au  Au0  1  0.22009467  0.00594680  0.21414687  1
  Au  Au1  1  0.77891827  0.99290693  0.78601134  1
loop_
_geom_bond_atom_site_label_1
_geom_bond_atom_site_label_2
_geom_bond_distance
_geom_bond_site_symmetry_2
Ge0 Na1 3.069245 1_544
Ge0 Na1 3.069246 1_555
Ge0 Na1 3.146149 1_554
Ge0 Na0 3.200930 1_655
Ge0 Na0 3.296399 1_544
Ge0 Na0 3.296401 1_555
As0 Ge0 2.555006 1_455
As0 Au0 2.632635 1_566
As0 Au0 2.632643 1_555
As0 Au1 2.660986 1_445
As0 Na1 3.060502 1_455
As0 Na1 3.060505 1_444
As0 Na1 3.105443 1_555
As0 Na0 3.253704 1_555
As0 Na0 3.266334 1_545
As0 Na0 3.266335 1_556
Au0 Ge0 2.563217 1_555
Au0 Au1 3.021749 1_444
Au0 Na0 3.066885 1_545
Au0 Na1 3.083087 1_544
Au0 Na1 3.083090 1_555
Au0 Na0 3.114396 1_544
Au0 Na0 3.114401 1_555
Au0 Na1 3.437896 1_444
Au1 Ge0 2.580131 1_555
Au1 Ge0 2.580131 1_566
Au1 Na0 2.989213 1_555
Au1 Na1 3.121998 1_565
Au1 Na1 3.121998 1_554
Au1 Na0 3.131922 1_655
Au1 Na0 3.131925 1_666
Au1 Na1 3.372180 1_555
