# generated using pymatgen
data_LaF3
_symmetry_space_group_name_H-M   'P 1'
_cell_length_a   7.16461976
_cell_length_b   7.16464713
_cell_length_c   7.33133775
_cell_angle_alpha   89.99984700
_cell_angle_beta   90.00063915
_cell_angle_gamma   119.99976477
_symmetry_Int_Tables_number   1
_chemical_formula_structural   LaF3
_chemical_formula_sum   'La6 F18'
_cell_volume   325.91386832
_cell_formula_units_Z   6
loop_
 _symmetry_equiv_pos_site_id
 _symmetry_equiv_pos_as_xyz
  1  'x, y, z'
loop_
 _atom_site_type_symbol
 _atom_site_label
 _atom_site_symmetry_multiplicity
 _atom_site_fract_x
 _atom_site_fract_y
 _atom_site_fract_z
 _atom_site_occupancy
  La  La0  1  0.32658497  -0.00000198  0.75214768  1
  La  La1  1  0.32658862  0.32659389  0.25210495  1
  La  La2  1  -0.00000967  0.67340304  0.25212346  1
  La  La3  1  -0.00000522  0.32658891  0.75216109  1
  La  La4  1  0.67343032  0.67343169  0.75220649  1
  La  La5  1  0.67342915  -0.00000249  0.25216914  1
  F  F0  1  0.66666084  0.33333365  0.20565591  1
  F  F1  1  0.33332832  0.66666680  0.70564397  1
  F  F2  1  0.66666495  0.33333187  0.70564268  1
  F  F3  1  0.33332454  0.66665771  0.20565594  1
  F  F4  1  -0.00000378  -0.00000360  0.82406116  1
  F  F5  1  0.00000077  -0.00000032  0.32409196  1
  F  F6  1  0.27991389  0.99999095  0.08338132  1
  F  F7  1  0.27991597  0.27991807  0.58337547  1
  F  F8  1  -0.00000361  0.72008641  0.58337320  1
  F  F9  1  -0.00000069  0.27991143  0.08338195  1
  F  F10  1  0.72009331  0.72009252  0.08337162  1
  F  F11  1  0.72008829  -0.00000211  0.58336963  1
  F  F12  1  0.37567324  0.00000056  0.42081858  1
  F  F13  1  0.37568741  0.37568296  0.92080912  1
  F  F14  1  0.00000422  0.62431724  0.92080907  1
  F  F15  1  0.00000606  0.37568651  0.42082326  1
  F  F16  1  0.62431892  0.62431366  0.42081904  1
  F  F17  1  0.62431018  0.00000263  0.92080631  1
loop_
_geom_bond_atom_site_label_1
_geom_bond_atom_site_label_2
_geom_bond_distance
_geom_bond_site_symmetry_2
F0 La1 2.436624 1_555
F0 La2 2.436629 1_655
F0 La5 2.436824 1_555
F1 La0 2.436690 1_565
F1 La3 2.436730 1_555
F1 La4 2.436857 1_555
F2 La3 2.436680 1_655
F2 La0 2.436726 1_555
F2 La4 2.436856 1_555
F3 La1 2.436582 1_555
F3 La2 2.436675 1_555
F3 La5 2.436839 1_565
F4 La4 2.398295 1_445
F4 La0 2.398546 1_555
F4 La3 2.398563 1_555
F5 La5 2.398428 1_455
F5 La2 2.398663 1_545
F5 La1 2.398697 1_555
F6 La0 2.451299 1_564
F6 La1 2.516943 1_565
F6 La2 2.516950 1_555
F7 La1 2.451573 1_555
F7 La0 2.517037 1_555
F7 La3 2.517109 1_555
F8 La2 2.451426 1_555
F8 La0 2.517021 1_565
F8 La4 2.517160 1_455
F9 La3 2.451214 1_554
F9 La1 2.516816 1_555
F9 La5 2.517022 1_455
F10 La4 2.450790 1_554
F10 La2 2.516886 1_655
F10 La5 2.517025 1_565
F11 La5 2.451043 1_555
F11 La3 2.517083 1_655
F11 La4 2.517161 1_545
F12 La0 2.454417 1_555
F12 La5 2.465737 1_555
F12 La2 2.819844 1_545
F12 La1 2.819875 1_555
F13 La1 2.454182 1_556
F13 La4 2.465500 1_555
F13 La0 2.819717 1_555
F13 La3 2.819720 1_555
F14 La2 2.454313 1_556
F14 La3 2.465520 1_555
F14 La4 2.819495 1_455
F14 La0 2.819706 1_565
F15 La3 2.454480 1_555
F15 La2 2.465709 1_555
F15 La5 2.819688 1_455
F15 La1 2.819862 1_555
F16 La4 2.454862 1_555
F16 La1 2.465763 1_555
F16 La5 2.819650 1_565
F16 La2 2.819775 1_655
F17 La5 2.454689 1_556
F17 La0 2.465533 1_555
F17 La4 2.819513 1_545
F17 La3 2.819682 1_655
