# generated using pymatgen
data_CdBiIr2O7
_symmetry_space_group_name_H-M   'P 1'
_cell_length_a   7.21988339
_cell_length_b   7.32404936
_cell_length_c   7.21988297
_cell_angle_alpha   59.52157325
_cell_angle_beta   58.98373932
_cell_angle_gamma   59.52157622
_symmetry_Int_Tables_number   1
_chemical_formula_structural   CdBiIr2O7
_chemical_formula_sum   'Cd2 Bi2 Ir4 O14'
_cell_volume   265.90050883
_cell_formula_units_Z   2
loop_
 _symmetry_equiv_pos_site_id
 _symmetry_equiv_pos_as_xyz
  1  'x, y, z'
loop_
 _atom_site_type_symbol
 _atom_site_label
 _atom_site_symmetry_multiplicity
 _atom_site_fract_x
 _atom_site_fract_y
 _atom_site_fract_z
 _atom_site_occupancy
  Cd  Cd0  1  0.62500000  0.12500000  0.12500000  1
  Cd  Cd1  1  0.12500000  0.12500000  0.62500000  1
  Bi  Bi0  1  0.12500000  0.62500000  0.12500000  1
  Bi  Bi1  1  0.12500000  0.12500000  0.12500000  1
  Ir  Ir0  1  0.12500000  0.62500000  0.62500000  1
  Ir  Ir1  1  0.62500000  0.12500000  0.62500000  1
  Ir  Ir2  1  0.62500000  0.62500000  0.12500000  1
  Ir  Ir3  1  0.62500000  0.62500000  0.62500000  1
  O  O0  1  0.71155642  0.70117993  0.29192610  1
  O  O1  1  0.29192610  0.29533754  0.71155642  1
  O  O2  1  0.69947534  0.30052466  0.69947534  1
  O  O3  1  0.29124189  0.70875811  0.29124189  1
  O  O4  1  0.29192610  0.70117993  0.71155642  1
  O  O5  1  0.71155642  0.29533754  0.29192610  1
  O  O6  1  0.53844358  0.54882007  0.95807390  1
  O  O7  1  0.95807390  0.95466246  0.53844358  1
  O  O8  1  0.55052466  0.94947534  0.55052466  1
  O  O9  1  0.95875811  0.54124189  0.95875811  1
  O  O10  1  0.95807390  0.54882007  0.53844358  1
  O  O11  1  0.53844358  0.95466246  0.95807390  1
  O  O12  1  0.25189978  0.24810022  0.25189978  1
  O  O13  1  0.99810022  0.00189978  0.99810022  1
loop_
_geom_bond_atom_site_label_1
_geom_bond_atom_site_label_2
_geom_bond_distance
_geom_bond_site_symmetry_2
Cd0 O13 2.177006 1_554
Cd0 O12 2.177006 1_555
Cd0 O8 2.524419 1_545
Cd0 O2 2.524419 1_554
Cd0 O6 2.547883 1_554
Cd0 O0 2.547883 1_545
Cd0 O5 2.547883 1_555
Cd0 O11 2.547883 1_544
Cd1 O13 2.177006 1_455
Cd1 O12 2.177006 1_555
Cd1 O8 2.524419 1_545
Cd1 O2 2.524419 1_455
Cd1 O10 2.547883 1_455
Cd1 O4 2.547883 1_545
Cd1 O1 2.547883 1_555
Cd1 O7 2.547883 1_445
Bi0 O13 2.243371 1_464
Bi0 O12 2.243371 1_555
Bi0 O10 2.441161 1_455
Bi0 O4 2.441161 1_554
Bi0 O6 2.441161 1_554
Bi0 O0 2.441161 1_455
Bi0 O3 2.497189 1_555
Bi0 O9 2.497189 1_454
Bi1 O12 2.243371 1_555
Bi1 O13 2.243371 1_454
Bi1 O7 2.441161 1_445
Bi1 O1 2.441161 1_554
Bi1 O11 2.441161 1_544
Bi1 O5 2.441161 1_455
Bi1 O9 2.497189 1_454
Bi1 O3 2.497189 1_545
Ir0 O9 1.972379 1_455
Ir0 O3 1.972379 1_555
Ir0 O7 1.991563 1_455
Ir0 O1 1.991563 1_555
Ir0 O4 1.991563 1_555
Ir0 O10 1.991563 1_455
Ir1 O11 1.982065 1_545
Ir1 O5 1.982065 1_555
Ir1 O1 1.982065 1_555
Ir1 O7 1.982065 1_545
Ir1 O2 1.982748 1_555
Ir1 O8 1.982748 1_545
Ir2 O9 1.972379 1_554
Ir2 O3 1.972379 1_555
Ir2 O11 1.991563 1_554
Ir2 O5 1.991563 1_555
Ir2 O0 1.991563 1_555
Ir2 O6 1.991563 1_554
Ir3 O6 1.982065 1_555
Ir3 O0 1.982065 1_555
Ir3 O10 1.982065 1_555
Ir3 O4 1.982065 1_555
Ir3 O8 1.982748 1_555
Ir3 O2 1.982748 1_555
