# generated using pymatgen
data_Y6Sc8Al8Rh7
_symmetry_space_group_name_H-M   'P 1'
_cell_length_a   9.26949752
_cell_length_b   9.26949760
_cell_length_c   9.26949752
_cell_angle_alpha   60.00000031
_cell_angle_beta   60.00000003
_cell_angle_gamma   60.00000235
_symmetry_Int_Tables_number   1
_chemical_formula_structural   Y6Sc8Al8Rh7
_chemical_formula_sum   'Y6 Sc8 Al8 Rh7'
_cell_volume   563.18825961
_cell_formula_units_Z   1
loop_
 _symmetry_equiv_pos_site_id
 _symmetry_equiv_pos_as_xyz
  1  'x, y, z'
loop_
 _atom_site_type_symbol
 _atom_site_label
 _atom_site_symmetry_multiplicity
 _atom_site_fract_x
 _atom_site_fract_y
 _atom_site_fract_z
 _atom_site_occupancy
  Y  Y0  1  0.68890845  0.68890845  0.31109155  1
  Y  Y1  1  0.31109155  0.68890845  0.31109155  1
  Y  Y2  1  0.68890845  0.31109155  0.31109155  1
  Y  Y3  1  0.31109155  0.31109155  0.68890845  1
  Y  Y4  1  0.68890845  0.31109155  0.68890845  1
  Y  Y5  1  0.31109155  0.68890845  0.68890845  1
  Sc  Sc0  1  0.87795904  0.87795904  0.36612089  1
  Sc  Sc1  1  0.87795904  0.36612089  0.87795904  1
  Sc  Sc2  1  0.36612089  0.87795904  0.87795904  1
  Sc  Sc3  1  0.87795904  0.87795904  0.87795904  1
  Sc  Sc4  1  0.12204096  0.12204096  0.63387911  1
  Sc  Sc5  1  0.12204096  0.63387911  0.12204096  1
  Sc  Sc6  1  0.63387911  0.12204096  0.12204096  1
  Sc  Sc7  1  0.12204096  0.12204096  0.12204096  1
  Al  Al0  1  0.66966316  0.66966316  0.99100951  1
  Al  Al1  1  0.66966316  0.99100951  0.66966316  1
  Al  Al2  1  0.99100951  0.66966316  0.66966316  1
  Al  Al3  1  0.66966316  0.66966316  0.66966316  1
  Al  Al4  1  0.33033684  0.33033684  0.00899049  1
  Al  Al5  1  0.33033684  0.00899049  0.33033684  1
  Al  Al6  1  0.00899049  0.33033684  0.33033684  1
  Al  Al7  1  0.33033684  0.33033684  0.33033684  1
  Rh  Rh0  1  0.00000000  0.00000000  0.00000000  1
  Rh  Rh1  1  0.00000000  0.00000000  0.50000000  1
  Rh  Rh2  1  0.50000000  0.00000000  0.50000000  1
  Rh  Rh3  1  0.00000000  0.50000000  0.50000000  1
  Rh  Rh4  1  0.50000000  0.50000000  0.00000000  1
  Rh  Rh5  1  0.00000000  0.50000000  0.00000000  1
  Rh  Rh6  1  0.50000000  0.00000000  0.00000000  1
loop_
_geom_bond_atom_site_label_1
_geom_bond_atom_site_label_2
_geom_bond_distance
_geom_bond_site_symmetry_2
Y0 Y1 3.502173 1_555
Y0 Y5 3.502173 1_555
Y0 Y4 3.502173 1_555
Y0 Y2 3.502173 1_555
Y1 Y5 3.502173 1_555
Y1 Y3 3.502173 1_555
Y1 Y2 3.502173 1_555
Y2 Y4 3.502173 1_555
Y2 Y3 3.502173 1_555
Y3 Y4 3.502173 1_555
Y3 Y5 3.502173 1_555
Y4 Y5 3.502173 1_555
Sc0 Sc5 3.199656 1_655
Sc0 Sc6 3.199656 1_565
Sc0 Sc7 3.199682 1_665
Sc0 Y0 3.355702 1_555
Sc0 Y1 3.355718 1_655
Sc0 Y2 3.355718 1_565
Sc1 Sc6 3.199656 1_556
Sc1 Sc4 3.199656 1_655
Sc1 Sc7 3.199682 1_656
Sc1 Y4 3.355702 1_555
Sc1 Y2 3.355718 1_556
Sc1 Y3 3.355718 1_655
Sc2 Sc5 3.199656 1_556
Sc2 Sc4 3.199656 1_565
Sc2 Sc7 3.199682 1_566
Sc2 Y5 3.355702 1_555
Sc2 Y1 3.355718 1_556
Sc2 Y3 3.355718 1_565
Sc3 Sc4 3.199682 1_665
Sc3 Sc5 3.199682 1_656
Sc3 Sc6 3.199682 1_566
Sc3 Y0 3.355715 1_556
Sc3 Y5 3.355715 1_655
Sc3 Y4 3.355715 1_565
Sc4 Y3 3.355702 1_555
Sc4 Y4 3.355718 1_455
Sc4 Y5 3.355718 1_545
Sc5 Y1 3.355702 1_555
Sc5 Y5 3.355718 1_554
Sc5 Y0 3.355718 1_455
Sc6 Y2 3.355702 1_555
Sc6 Y4 3.355718 1_554
Sc6 Y0 3.355718 1_545
Sc7 Y3 3.355715 1_554
Sc7 Y2 3.355715 1_455
Sc7 Y1 3.355715 1_545
Al0 Rh4 2.676733 1_556
Al0 Rh5 2.676741 1_656
Al0 Rh6 2.676741 1_566
Al0 Sc3 2.869745 1_555
Al0 Sc2 2.869752 1_555
Al0 Sc1 2.869752 1_555
Al0 Al3 2.978719 1_555
Al0 Al2 2.978719 1_555
Al0 Al1 2.978719 1_555
Al0 Y1 3.155490 1_556
Al0 Y2 3.155490 1_556
Al0 Y0 3.155495 1_556
Al1 Rh2 2.676733 1_565
Al1 Rh1 2.676741 1_665
Al1 Rh6 2.676741 1_566
Al1 Sc3 2.869745 1_555
Al1 Sc2 2.869752 1_555
Al1 Sc0 2.869752 1_555
Al1 Al3 2.978719 1_555
Al1 Al2 2.978719 1_555
Al1 Y2 3.155490 1_565
Al1 Y3 3.155490 1_565
Al1 Y4 3.155495 1_565
Al2 Rh3 2.676733 1_655
Al2 Rh5 2.676741 1_656
Al2 Rh1 2.676741 1_665
Al2 Sc3 2.869745 1_555
Al2 Sc1 2.869752 1_555
Al2 Sc0 2.869752 1_555
Al2 Al3 2.978719 1_555
Al2 Y1 3.155490 1_655
Al2 Y3 3.155490 1_655
Al2 Y5 3.155495 1_655
Al3 Rh4 2.676738 1_556
Al3 Rh3 2.676738 1_655
Al3 Rh2 2.676738 1_565
Al3 Sc0 2.869747 1_555
Al3 Sc2 2.869748 1_555
Al3 Sc1 2.869748 1_555
Al3 Y0 3.155486 1_555
Al3 Y5 3.155486 1_555
Al3 Y4 3.155486 1_555
Al4 Rh4 2.676733 1_555
Al4 Rh5 2.676741 1_555
Al4 Rh6 2.676741 1_555
Al4 Sc7 2.869745 1_555
Al4 Sc6 2.869752 1_555
Al4 Sc5 2.869752 1_555
Al4 Al7 2.978719 1_555
Al4 Al6 2.978719 1_555
Al4 Al5 2.978719 1_555
Al4 Y4 3.155490 1_554
Al4 Y5 3.155490 1_554
Al4 Y3 3.155495 1_554
Al5 Rh2 2.676733 1_555
Al5 Rh1 2.676741 1_555
Al5 Rh6 2.676741 1_555
Al5 Sc7 2.869745 1_555
Al5 Sc6 2.869752 1_555
Al5 Sc4 2.869752 1_555
Al5 Al7 2.978719 1_555
Al5 Al6 2.978719 1_555
Al5 Y5 3.155490 1_545
Al5 Y0 3.155490 1_545
Al5 Y1 3.155495 1_545
Al6 Rh3 2.676733 1_555
Al6 Rh5 2.676741 1_555
Al6 Rh1 2.676741 1_555
Al6 Sc7 2.869745 1_555
Al6 Sc5 2.869752 1_555
Al6 Sc4 2.869752 1_555
Al6 Al7 2.978719 1_555
Al6 Y4 3.155490 1_455
Al6 Y0 3.155490 1_455
Al6 Y2 3.155495 1_455
Al7 Rh4 2.676738 1_555
Al7 Rh3 2.676738 1_555
Al7 Rh2 2.676738 1_555
Al7 Sc4 2.869747 1_555
Al7 Sc6 2.869748 1_555
Al7 Sc5 2.869748 1_555
Al7 Y3 3.155486 1_555
Al7 Y2 3.155486 1_555
Al7 Y1 3.155486 1_555
Rh0 Sc0 2.770991 1_445
Rh0 Sc4 2.770991 1_554
Rh0 Sc2 2.770991 1_544
Rh0 Sc6 2.770991 1_455
Rh0 Sc1 2.770991 1_454
Rh0 Sc5 2.770991 1_545
Rh0 Sc7 2.771006 1_555
Rh0 Sc3 2.771006 1_444
Rh1 Sc3 2.861289 1_445
Rh1 Sc7 2.861289 1_555
Rh1 Sc4 2.861305 1_555
Rh1 Sc0 2.861305 1_445
Rh1 Y4 3.373694 1_455
Rh1 Y1 3.373694 1_545
Rh1 Y5 3.373694 1_545
Rh1 Y2 3.373694 1_455
Rh2 Sc2 2.861289 1_545
Rh2 Sc6 2.861289 1_555
Rh2 Sc0 2.861290 1_545
Rh2 Sc4 2.861290 1_555
Rh2 Y2 3.373694 1_555
Rh2 Y5 3.373694 1_545
Rh2 Y3 3.373694 1_555
Rh2 Y0 3.373694 1_545
Rh3 Sc1 2.861289 1_455
Rh3 Sc5 2.861289 1_555
Rh3 Sc0 2.861290 1_455
Rh3 Sc4 2.861290 1_555
Rh3 Y1 3.373694 1_555
Rh3 Y4 3.373694 1_455
Rh3 Y3 3.373694 1_555
Rh3 Y0 3.373694 1_455
Rh4 Sc5 2.861290 1_555
Rh4 Sc1 2.861290 1_554
Rh4 Sc6 2.861290 1_555
Rh4 Sc2 2.861290 1_554
Rh4 Y2 3.373694 1_555
Rh4 Y5 3.373694 1_554
Rh4 Y1 3.373694 1_555
Rh4 Y4 3.373694 1_554
Rh5 Sc3 2.861289 1_454
Rh5 Sc7 2.861289 1_555
Rh5 Sc5 2.861305 1_555
Rh5 Sc1 2.861305 1_454
Rh5 Y5 3.373694 1_554
Rh5 Y2 3.373694 1_455
Rh5 Y0 3.373694 1_455
Rh5 Y3 3.373694 1_554
Rh6 Sc3 2.861289 1_544
Rh6 Sc7 2.861289 1_555
Rh6 Sc6 2.861305 1_555
Rh6 Sc2 2.861305 1_544
Rh6 Y4 3.373694 1_554
Rh6 Y1 3.373694 1_545
Rh6 Y0 3.373694 1_545
Rh6 Y3 3.373694 1_554
