# generated using pymatgen
data_Lu5Zn(GaNi2)6
_symmetry_space_group_name_H-M   'P 1'
_cell_length_a   5.06318332
_cell_length_b   5.06318288
_cell_length_c   15.44075405
_cell_angle_alpha   90.00000000
_cell_angle_beta   90.00000000
_cell_angle_gamma   119.99999011
_symmetry_Int_Tables_number   1
_chemical_formula_structural   Lu5Zn(GaNi2)6
_chemical_formula_sum   'Lu5 Zn1 Ga6 Ni12'
_cell_volume   342.80444650
_cell_formula_units_Z   1
loop_
 _symmetry_equiv_pos_site_id
 _symmetry_equiv_pos_as_xyz
  1  'x, y, z'
loop_
 _atom_site_type_symbol
 _atom_site_label
 _atom_site_symmetry_multiplicity
 _atom_site_fract_x
 _atom_site_fract_y
 _atom_site_fract_z
 _atom_site_occupancy
  Lu  Lu0  1  0.66666700  0.33333300  0.47020310  1
  Lu  Lu1  1  0.66666700  0.33333300  0.04747031  1
  Lu  Lu2  1  0.33333300  0.66666700  0.94837627  1
  Lu  Lu3  1  0.33333300  0.66666700  0.71497694  1
  Lu  Lu4  1  0.66666700  0.33333300  0.26164746  1
  Zn  Zn0  1  0.33333300  0.66666700  0.52413674  1
  Ga  Ga0  1  0.00000000  0.00000000  0.25197044  1
  Ga  Ga1  1  0.00000000  0.00000000  0.75458047  1
  Ga  Ga2  1  0.33333300  0.66666700  0.25121700  1
  Ga  Ga3  1  0.66666700  0.33333300  0.75208126  1
  Ga  Ga4  1  0.00000000  0.00000000  0.00119691  1
  Ga  Ga5  1  0.00000000  0.00000000  0.50169632  1
  Ni  Ni0  1  0.16896584  0.33792968  0.12678798  1
  Ni  Ni1  1  0.82984243  0.65968585  0.87664633  1
  Ni  Ni2  1  0.66207032  0.83103416  0.12678798  1
  Ni  Ni3  1  0.83296494  0.66593088  0.62583473  1
  Ni  Ni4  1  0.34031415  0.17015757  0.87664633  1
  Ni  Ni5  1  0.16920784  0.33841467  0.37754722  1
  Ni  Ni6  1  0.16896584  0.83103416  0.12678798  1
  Ni  Ni7  1  0.33406912  0.16703506  0.62583473  1
  Ni  Ni8  1  0.82984243  0.17015757  0.87664633  1
  Ni  Ni9  1  0.66158533  0.83079216  0.37754722  1
  Ni  Ni10  1  0.83296494  0.16703506  0.62583473  1
  Ni  Ni11  1  0.16920784  0.83079216  0.37754722  1
loop_
_geom_bond_atom_site_label_1
_geom_bond_atom_site_label_2
_geom_bond_distance
_geom_bond_site_symmetry_2
Lu0 Ni10 2.810982 1_555
Lu0 Ni3 2.810987 1_555
Lu0 Ni7 2.810987 1_555
Lu0 Ni9 2.907970 1_555
Lu0 Ni9 2.907970 1_545
Lu0 Ni5 2.907970 1_555
Lu0 Ni5 2.907970 1_655
Lu0 Ni11 2.907970 1_545
Lu0 Ni11 2.907970 1_655
Lu0 Zn0 3.039535 1_545
Lu0 Zn0 3.039535 1_655
Lu0 Zn0 3.039543 1_555
Lu0 Lu4 3.220256 1_555
Lu1 Ni2 2.812348 1_555
Lu1 Ni0 2.812348 1_555
Lu1 Ni6 2.812350 1_545
Lu1 Ni6 2.812350 1_655
Lu1 Ni2 2.812352 1_545
Lu1 Ni0 2.812352 1_655
Lu1 Ni8 3.000826 1_554
Lu1 Ni1 3.000831 1_554
Lu1 Ni4 3.000831 1_554
Lu1 Lu4 3.307057 1_555
Lu2 Ni4 2.763438 1_555
Lu2 Ni4 2.763438 1_565
Lu2 Ni1 2.763439 1_555
Lu2 Ni1 2.763439 1_455
Lu2 Ni8 2.763439 1_565
Lu2 Ni8 2.763439 1_455
Lu2 Ni6 3.109141 1_556
Lu2 Ni0 3.109148 1_556
Lu2 Ni2 3.109148 1_556
Lu3 Ni7 2.881580 1_555
Lu3 Ni7 2.881580 1_565
Lu3 Ni3 2.881581 1_555
Lu3 Ni3 2.881581 1_455
Lu3 Ni10 2.881581 1_565
Lu3 Ni10 2.881581 1_455
Lu3 Zn0 2.946716 1_555
Lu4 Ni9 3.100330 1_555
Lu4 Ni9 3.100330 1_545
Lu4 Ni5 3.100330 1_555
Lu4 Ni5 3.100330 1_655
Lu4 Ni11 3.100331 1_545
Lu4 Ni11 3.100331 1_655
Lu4 Ni2 3.278026 1_555
Lu4 Ni0 3.278026 1_555
Lu4 Ni6 3.278028 1_545
Lu4 Ni6 3.278028 1_655
Lu4 Ni2 3.278030 1_545
Lu4 Ni0 3.278030 1_655
Ga0 Ni0 2.435526 1_555
Ga0 Ni2 2.435526 1_445
Ga0 Ni6 2.435531 1_545
Ga0 Ni5 2.441653 1_555
Ga0 Ni9 2.441653 1_445
Ga0 Ni11 2.441656 1_545
Ga0 Lu4 2.927043 1_455
Ga0 Lu4 2.927048 1_445
Ga0 Lu4 2.927048 1_555
Ga1 Ni1 2.403989 1_445
Ga1 Ni4 2.403989 1_555
Ga1 Ni8 2.403992 1_455
Ga1 Ni3 2.469338 1_445
Ga1 Ni7 2.469338 1_555
Ga1 Ni10 2.469341 1_455
Ga1 Lu3 2.986503 1_545
Ga1 Lu3 2.986507 1_555
Ga1 Lu3 2.986508 1_445
Ga2 Ni6 2.401892 1_555
Ga2 Ni0 2.401900 1_555
Ga2 Ni2 2.401900 1_555
Ga2 Ni11 2.424177 1_555
Ga2 Ni5 2.424182 1_555
Ga2 Ni9 2.424182 1_555
Ga2 Lu4 2.927661 1_565
Ga2 Lu4 2.927661 1_455
Ga2 Lu4 2.927669 1_555
Ga3 Ni8 2.397319 1_555
Ga3 Ni1 2.397325 1_555
Ga3 Ni4 2.397325 1_555
Ga3 Ni10 2.434504 1_555
Ga3 Ni3 2.434509 1_555
Ga3 Ni7 2.434509 1_555
Ga3 Lu3 2.978841 1_545
Ga3 Lu3 2.978841 1_655
Ga3 Lu3 2.978849 1_555
Ga4 Ni1 2.434186 1_444
Ga4 Ni4 2.434186 1_554
Ga4 Ni8 2.434188 1_454
Ga4 Ni0 2.440536 1_555
Ga4 Ni2 2.440536 1_445
Ga4 Ni6 2.440542 1_545
Ga4 Lu1 3.009279 1_455
Ga4 Lu1 3.009284 1_445
Ga4 Lu1 3.009284 1_555
Ga4 Lu2 3.034871 1_544
Ga4 Lu2 3.034876 1_554
Ga4 Lu2 3.034876 1_444
Ga5 Ni3 2.412436 1_445
Ga5 Ni7 2.412436 1_555
Ga5 Ni10 2.412438 1_455
Ga5 Ni5 2.424184 1_555
Ga5 Ni9 2.424184 1_445
Ga5 Ni11 2.424186 1_545
Ga5 Zn0 2.943691 1_545
Ga5 Zn0 2.943696 1_555
Ga5 Zn0 2.943696 1_445
Ga5 Lu0 2.963397 1_455
Ga5 Lu0 2.963402 1_445
Ga5 Lu0 2.963402 1_555
Ni0 Ni6 2.496678 1_555
Ni0 Ni2 2.496679 1_555
Ni0 Ni6 2.566505 1_545
Ni0 Ni2 2.566505 1_445
Ni1 Ni8 2.478571 1_555
Ni1 Ni4 2.478572 1_555
Ni1 Ni8 2.584612 1_565
Ni1 Ni4 2.584612 1_665
Ni2 Ni6 2.496678 1_555
Ni2 Ni6 2.566505 1_655
Ni3 Ni7 2.526001 1_555
Ni3 Ni7 2.537183 1_665
Ni3 Zn0 2.979058 1_555
Ni3 Zn0 2.979058 1_655
Ni4 Ni8 2.478571 1_555
Ni4 Ni8 2.584612 1_455
Ni5 Ni9 2.492998 1_555
Ni5 Ni9 2.570186 1_445
Ni5 Zn0 2.682332 1_555
Ni7 Zn0 2.979058 1_555
Ni7 Zn0 2.979058 1_545
Ni9 Zn0 2.682332 1_555
Ni10 Ni3 2.526001 1_555
Ni10 Ni7 2.526001 1_555
Ni10 Ni3 2.537182 1_545
Ni10 Ni7 2.537182 1_655
Ni10 Zn0 2.979059 1_545
Ni10 Zn0 2.979059 1_655
Ni11 Ni5 2.492997 1_555
Ni11 Ni9 2.492998 1_555
Ni11 Ni5 2.570186 1_565
Ni11 Ni9 2.570186 1_455
Ni11 Zn0 2.682327 1_555
