# generated using pymatgen
data_Zr2BPtRh5
_symmetry_space_group_name_H-M   'P 1'
_cell_length_a   5.68647197
_cell_length_b   5.68647135
_cell_length_c   5.71401518
_cell_angle_alpha   59.83963472
_cell_angle_beta   59.83963836
_cell_angle_gamma   60.32071810
_symmetry_Int_Tables_number   1
_chemical_formula_structural   Zr2BPtRh5
_chemical_formula_sum   'Zr2 B1 Pt1 Rh5'
_cell_volume   130.64465376
_cell_formula_units_Z   1
loop_
 _symmetry_equiv_pos_site_id
 _symmetry_equiv_pos_as_xyz
  1  'x, y, z'
loop_
 _atom_site_type_symbol
 _atom_site_label
 _atom_site_symmetry_multiplicity
 _atom_site_fract_x
 _atom_site_fract_y
 _atom_site_fract_z
 _atom_site_occupancy
  Zr  Zr0  1  0.25068952  0.25068952  0.24931048  1
  Zr  Zr1  1  0.75068952  0.75068952  0.74931048  1
  B  B0  1  0.49514293  0.49514293  0.50485707  1
  Pt  Pt0  1  0.75857925  0.75857925  0.24141975  1
  Rh  Rh0  1  0.75696090  0.24492017  0.24303810  1
  Rh  Rh1  1  0.24492017  0.75696090  0.24303810  1
  Rh  Rh2  1  0.24113367  0.24113367  0.75886533  1
  Rh  Rh3  1  0.75696090  0.24492017  0.75507883  1
  Rh  Rh4  1  0.24492017  0.75696090  0.75507883  1
loop_
_geom_bond_atom_site_label_1
_geom_bond_atom_site_label_2
_geom_bond_distance
_geom_bond_site_symmetry_2
B0 Rh2 2.032771 1_555
B0 Rh4 2.069375 1_555
B0 Rh3 2.069375 1_555
B0 Rh1 2.069383 1_555
B0 Rh0 2.069383 1_555
B0 Pt0 2.108213 1_555
Pt0 Zr1 2.857699 1_554
Pt0 Zr0 2.857705 1_655
Pt0 Zr0 2.857705 1_565
Pt0 Zr1 2.857711 1_555
Rh0 Zr1 2.842236 1_554
Rh0 Zr0 2.842242 1_655
Rh0 Zr0 2.845063 1_555
Rh0 Zr1 2.845068 1_545
Rh1 Zr1 2.842236 1_554
Rh1 Zr0 2.842242 1_565
Rh1 Zr0 2.845063 1_555
Rh1 Zr1 2.845069 1_455
Rh2 Zr0 2.858025 1_555
Rh2 Zr1 2.858031 1_455
Rh2 Zr1 2.858031 1_545
Rh2 Zr0 2.858037 1_556
Rh3 Zr0 2.842236 1_655
Rh3 Zr1 2.842242 1_555
Rh3 Zr1 2.845063 1_545
Rh3 Zr0 2.845068 1_556
Rh4 Zr0 2.842236 1_565
Rh4 Zr1 2.842242 1_555
Rh4 Zr1 2.845063 1_455
Rh4 Zr0 2.845068 1_556
