# generated using pymatgen
data_Mg3ZrAs6Ru7
_symmetry_space_group_name_H-M   'P 1'
_cell_length_a   7.03020308
_cell_length_b   7.03020309
_cell_length_c   6.89359723
_cell_angle_alpha   109.07807829
_cell_angle_beta   109.07807833
_cell_angle_gamma   109.86148543
_symmetry_Int_Tables_number   1
_chemical_formula_structural   Mg3ZrAs6Ru7
_chemical_formula_sum   'Mg3 Zr1 As6 Ru7'
_cell_volume   263.53842459
_cell_formula_units_Z   1
loop_
 _symmetry_equiv_pos_site_id
 _symmetry_equiv_pos_as_xyz
  1  'x, y, z'
loop_
 _atom_site_type_symbol
 _atom_site_label
 _atom_site_symmetry_multiplicity
 _atom_site_fract_x
 _atom_site_fract_y
 _atom_site_fract_z
 _atom_site_occupancy
  Mg  Mg0  1  0.50000000  0.00000000  0.00000000  1
  Mg  Mg1  1  0.00000000  0.50000000  0.00000000  1
  Mg  Mg2  1  0.50000000  0.50000000  0.50000000  1
  Zr  Zr0  1  0.00000000  0.00000000  0.50000000  1
  As  As0  1  0.31208471  0.00000000  0.30733186  1
  As  As1  1  0.00000000  0.31208471  0.30733186  1
  As  As2  1  1.00000000  0.68791529  0.69266814  1
  As  As3  1  0.31208471  0.31208471  0.00475285  1
  As  As4  1  0.68791529  0.68791529  0.99524715  1
  As  As5  1  0.68791529  1.00000000  0.69266814  1
  Ru  Ru0  1  0.74939139  0.49878378  0.24939139  1
  Ru  Ru1  1  0.49878378  0.74939139  0.24939139  1
  Ru  Ru2  1  0.50121622  0.25060861  0.75060861  1
  Ru  Ru3  1  0.74939139  0.25060861  0.50000000  1
  Ru  Ru4  1  0.25060861  0.74939139  0.50000000  1
  Ru  Ru5  1  0.25060861  0.50121622  0.75060861  1
  Ru  Ru6  1  0.00000000  0.00000000  0.00000000  1
loop_
_geom_bond_atom_site_label_1
_geom_bond_atom_site_label_2
_geom_bond_distance
_geom_bond_site_symmetry_2
Mg0 Ru3 2.835350 1_555
Mg0 Ru4 2.835350 1_544
Mg0 Ru2 2.835350 1_554
Mg0 Ru1 2.835350 1_545
Mg0 Ru0 2.869965 1_555
Mg0 Ru5 2.869965 1_544
Mg1 Ru4 2.835350 1_555
Mg1 Ru3 2.835350 1_454
Mg1 Ru0 2.835350 1_455
Mg1 Ru5 2.835350 1_554
Mg1 Ru1 2.869965 1_555
Mg1 Ru2 2.869965 1_454
Mg2 Ru5 2.835350 1_555
Mg2 Ru0 2.835350 1_555
Mg2 Ru2 2.835350 1_555
Mg2 Ru1 2.835350 1_555
Mg2 Ru3 2.869960 1_555
Mg2 Ru4 2.869960 1_555
As0 Ru6 2.502724 1_555
As0 Ru3 2.537771 1_555
As0 Ru1 2.537776 1_545
As0 Ru4 2.538195 1_545
As0 Ru2 2.538195 1_555
As0 Mg0 2.839627 1_555
As0 Zr0 2.912511 1_555
As0 Mg1 2.917337 1_545
As0 Mg2 2.917337 1_555
As1 Ru6 2.502724 1_555
As1 Ru4 2.537771 1_555
As1 Ru0 2.537776 1_455
As1 Ru3 2.538195 1_455
As1 Ru5 2.538195 1_555
As1 Mg1 2.839627 1_555
As1 Zr0 2.912511 1_555
As1 Mg0 2.917337 1_455
As1 Mg2 2.917337 1_555
As2 Ru6 2.502724 1_666
As2 Ru3 2.537771 1_555
As2 Ru5 2.537776 1_655
As2 Ru4 2.538195 1_655
As2 Ru0 2.538195 1_555
As2 Mg1 2.839627 1_656
As2 Zr0 2.912511 1_665
As2 Mg0 2.917337 1_666
As2 Mg2 2.917337 1_555
As3 Ru6 2.502724 1_555
As3 Ru0 2.537770 1_555
As3 Ru1 2.537770 1_555
As3 Ru2 2.538189 1_554
As3 Ru5 2.538189 1_554
As3 Mg2 2.839626 1_555
As3 Zr0 2.912510 1_554
As3 Mg1 2.917337 1_555
As3 Mg0 2.917337 1_555
As4 Ru6 2.502724 1_666
As4 Ru5 2.537770 1_555
As4 Ru2 2.537770 1_555
As4 Ru1 2.538189 1_556
As4 Ru0 2.538189 1_556
As4 Mg2 2.839626 1_555
As4 Zr0 2.912510 1_666
As4 Mg1 2.917337 1_656
As4 Mg0 2.917337 1_566
As5 Ru6 2.502724 1_666
As5 Ru4 2.537771 1_555
As5 Ru2 2.537776 1_565
As5 Ru3 2.538195 1_565
As5 Ru1 2.538195 1_555
As5 Mg0 2.839627 1_566
As5 Zr0 2.912511 1_665
As5 Mg1 2.917337 1_666
As5 Mg2 2.917337 1_555
Ru0 Zr0 2.883961 1_665
Ru1 Zr0 2.883961 1_665
Ru2 Zr0 2.883961 1_555
Ru3 Zr0 2.883967 1_655
Ru4 Zr0 2.883967 1_565
Ru5 Zr0 2.883961 1_555
