# generated using pymatgen
data_Hf4Cd(AsO4)6
_symmetry_space_group_name_H-M   'P 1'
_cell_length_a   9.13291141
_cell_length_b   9.13307573
_cell_length_c   9.21807188
_cell_angle_alpha   60.30472369
_cell_angle_beta   60.30538017
_cell_angle_gamma   60.00091830
_symmetry_Int_Tables_number   1
_chemical_formula_structural   Hf4Cd(AsO4)6
_chemical_formula_sum   'Hf4 Cd1 As6 O24'
_cell_volume   546.18729587
_cell_formula_units_Z   1
loop_
 _symmetry_equiv_pos_site_id
 _symmetry_equiv_pos_as_xyz
  1  'x, y, z'
loop_
 _atom_site_type_symbol
 _atom_site_label
 _atom_site_symmetry_multiplicity
 _atom_site_fract_x
 _atom_site_fract_y
 _atom_site_fract_z
 _atom_site_occupancy
  Hf  Hf0  1  0.13636510  0.13638009  0.59089207  1
  Hf  Hf1  1  0.86363490  0.86361991  0.40910793  1
  Hf  Hf2  1  0.64511269  0.64511807  0.06466980  1
  Hf  Hf3  1  0.35488731  0.35488193  0.93533020  1
  Cd  Cd0  1  0.50000000  0.50000000  0.50000000  1
  As  As0  1  0.95643866  0.25652615  0.25921253  1
  As  As1  1  0.25652520  0.52782904  0.25919042  1
  As  As2  1  0.52783409  0.95643477  0.25919786  1
  As  As3  1  0.04356134  0.74347385  0.74078747  1
  As  As4  1  0.74347480  0.47217096  0.74080958  1
  As  As5  1  0.47216591  0.04356523  0.74080214  1
  O  O0  1  0.98463533  0.24039650  0.43310889  1
  O  O1  1  0.24037962  0.34186787  0.43310680  1
  O  O2  1  0.34187538  0.98466340  0.43309614  1
  O  O3  1  0.01536467  0.75960350  0.56689111  1
  O  O4  1  0.75962038  0.65813213  0.56689320  1
  O  O5  1  0.65812462  0.01533660  0.56690386  1
  O  O6  1  0.51112585  0.88363828  0.92869028  1
  O  O7  1  0.88364074  0.67655301  0.92869854  1
  O  O8  1  0.67654603  0.51113215  0.92869675  1
  O  O9  1  0.48887415  0.11636172  0.07130972  1
  O  O10  1  0.11635926  0.32344699  0.07130146  1
  O  O11  1  0.32345397  0.48886785  0.07130325  1
  O  O12  1  0.03558854  0.93236174  0.73648767  1
  O  O13  1  0.93234846  0.29556551  0.73650062  1
  O  O14  1  0.29554734  0.03558629  0.73651575  1
  O  O15  1  0.96441146  0.06763826  0.26351233  1
  O  O16  1  0.06765154  0.70443449  0.26349938  1
  O  O17  1  0.70445266  0.96441371  0.26348425  1
  O  O18  1  0.57748422  0.74988677  0.25933120  1
  O  O19  1  0.74988737  0.41328314  0.25934173  1
  O  O20  1  0.41329237  0.57747803  0.25933638  1
  O  O21  1  0.42251578  0.25011323  0.74066880  1
  O  O22  1  0.25011263  0.58671686  0.74065827  1
  O  O23  1  0.58670763  0.42252197  0.74066362  1
loop_
_geom_bond_atom_site_label_1
_geom_bond_atom_site_label_2
_geom_bond_distance
_geom_bond_site_symmetry_2
Hf0 O12 2.033147 1_545
Hf0 O13 2.033171 1_455
Hf0 O14 2.033176 1_555
Hf0 O1 2.061413 1_555
Hf0 O0 2.061473 1_455
Hf0 O2 2.061548 1_545
Hf1 O15 2.033147 1_565
Hf1 O16 2.033171 1_655
Hf1 O17 2.033176 1_555
Hf1 O4 2.061413 1_555
Hf1 O3 2.061473 1_655
Hf1 O5 2.061548 1_565
Hf2 O7 1.990668 1_554
Hf2 O8 1.990669 1_554
Hf2 O6 1.990671 1_554
Hf2 O18 2.128159 1_555
Hf2 O20 2.128307 1_555
Hf2 O19 2.128331 1_555
Hf3 O10 1.990668 1_556
Hf3 O11 1.990669 1_556
Hf3 O9 1.990671 1_556
Hf3 O21 2.128159 1_555
Hf3 O23 2.128307 1_555
Hf3 O22 2.128331 1_555
Cd0 O23 2.382063 1_555
Cd0 O20 2.382063 1_555
Cd0 O18 2.382072 1_555
Cd0 O21 2.382072 1_555
Cd0 O22 2.382077 1_555
Cd0 O19 2.382077 1_555
As0 O15 1.671059 1_555
As0 O0 1.671728 1_555
As0 O10 1.686526 1_655
As0 O19 1.705010 1_555
As1 O16 1.670952 1_555
As1 O1 1.671819 1_555
As1 O11 1.686462 1_555
As1 O20 1.705055 1_555
As2 O17 1.671023 1_555
As2 O2 1.671767 1_555
As2 O9 1.686472 1_565
As2 O18 1.705015 1_555
As3 O12 1.671059 1_555
As3 O3 1.671728 1_555
As3 O7 1.686526 1_455
As3 O22 1.705010 1_555
As4 O13 1.670952 1_555
As4 O4 1.671819 1_555
As4 O8 1.686462 1_555
As4 O23 1.705055 1_555
As5 O14 1.671023 1_555
As5 O5 1.671767 1_555
As5 O6 1.686472 1_545
As5 O21 1.705015 1_555
