# generated using pymatgen
data_V2B6Mo5W3
_symmetry_space_group_name_H-M   'P 1'
_cell_length_a   5.81045450
_cell_length_b   5.81045391
_cell_length_c   6.78608960
_cell_angle_alpha   115.39599592
_cell_angle_beta   115.31487181
_cell_angle_gamma   89.98430465
_symmetry_Int_Tables_number   1
_chemical_formula_structural   V2B6Mo5W3
_chemical_formula_sum   'V2 B6 Mo5 W3'
_cell_volume   182.32914780
_cell_formula_units_Z   1
loop_
 _symmetry_equiv_pos_site_id
 _symmetry_equiv_pos_as_xyz
  1  'x, y, z'
loop_
 _atom_site_type_symbol
 _atom_site_label
 _atom_site_symmetry_multiplicity
 _atom_site_fract_x
 _atom_site_fract_y
 _atom_site_fract_z
 _atom_site_occupancy
  V  V0  1  0.50107633  0.50148619  0.00193246  1
  V  V1  1  0.00044627  0.00085613  0.00193246  1
  B  B0  1  0.25071457  0.25056069  0.50255411  1
  B  B1  1  0.75199341  0.75183954  0.50255411  1
  B  B2  1  0.61951121  0.12060202  0.99949911  1
  B  B3  1  0.37889709  0.87998791  0.99949911  1
  B  B4  1  0.87954332  0.61927151  0.99881483  1
  B  B5  1  0.12040911  0.37854967  0.99895878  1
  Mo  Mo0  1  0.52689294  0.68716493  0.71405687  1
  Mo  Mo1  1  0.97313629  0.47336750  0.28503009  1
  Mo  Mo2  1  0.31166259  0.81189381  0.28503009  1
  Mo  Mo3  1  0.81174199  0.97389314  0.28563513  1
  Mo  Mo4  1  0.47415784  0.31297736  0.28713519  1
  W  W0  1  0.02621124  0.52583323  0.71245553  1
  W  W1  1  0.68662230  0.18624429  0.71245553  1
  W  W2  1  0.18698352  0.02547309  0.71245661  1
loop_
_geom_bond_atom_site_label_1
_geom_bond_atom_site_label_2
_geom_bond_distance
_geom_bond_site_symmetry_2
V0 W0 2.663630 1_554
V0 W1 2.664599 1_554
V0 W2 2.667592 1_554
V1 W1 2.663630 1_454
V1 W0 2.664599 1_544
V1 W2 2.667592 1_554
B0 W0 2.433625 1_555
B0 W2 2.434311 1_555
B0 W1 2.440193 1_555
B0 Mo0 2.445458 1_555
B0 Mo3 2.453256 1_445
B0 Mo2 2.453646 1_545
B0 Mo4 2.456060 1_555
B0 Mo1 2.461361 1_455
B0 V0 2.696917 1_556
B0 V1 2.703626 1_555
B1 W1 2.433625 1_565
B1 W2 2.434311 1_665
B1 W0 2.440193 1_655
B1 Mo0 2.445451 1_555
B1 Mo3 2.453255 1_555
B1 Mo1 2.453646 1_555
B1 Mo4 2.456060 1_555
B1 Mo2 2.461361 1_555
B1 V1 2.696917 1_666
B1 V0 2.703626 1_555
B2 B3 1.977451 1_545
B2 W2 2.303619 1_555
B2 Mo3 2.304149 1_546
B2 Mo0 2.304189 1_545
B2 Mo4 2.304470 1_556
B2 V0 2.312840 1_556
B2 V1 2.315448 1_656
B2 Mo1 2.317028 1_556
B2 W1 2.319221 1_555
B3 W2 2.303619 1_565
B3 Mo3 2.304149 1_556
B3 Mo0 2.304192 1_555
B3 Mo4 2.304470 1_566
B3 V1 2.312841 1_566
B3 V0 2.315448 1_556
B3 Mo2 2.317028 1_556
B3 W0 2.319221 1_555
B4 B5 1.978387 1_655
B4 Mo1 2.301247 1_556
B4 Mo2 2.301247 1_656
B4 W0 2.303978 1_655
B4 W1 2.303978 1_555
B4 Mo0 2.314229 1_555
B4 V1 2.314681 1_666
B4 V0 2.314682 1_556
B4 Mo3 2.324783 1_556
B5 Mo1 2.303793 1_456
B5 Mo2 2.303793 1_556
B5 W0 2.308431 1_555
B5 W1 2.308432 1_455
B5 V1 2.313712 1_556
B5 V0 2.313712 1_556
B5 W2 2.315156 1_555
B5 Mo4 2.322822 1_556
Mo0 Mo4 2.655694 1_555
Mo0 V1 2.657314 1_666
Mo0 V0 2.657320 1_556
Mo0 W2 2.786174 1_565
Mo1 V1 2.643867 1_655
Mo1 V0 2.646408 1_555
Mo1 W0 2.660424 1_655
Mo2 V0 2.643867 1_555
Mo2 V1 2.646408 1_565
Mo2 W1 2.660425 1_565
Mo3 V1 2.645246 1_665
Mo3 V0 2.645247 1_555
Mo3 W2 2.662360 1_665
Mo4 V0 2.654677 1_555
Mo4 V1 2.654678 1_555
