# generated using pymatgen
data_LiAl2AgS4
_symmetry_space_group_name_H-M   'P 1'
_cell_length_a   6.51111757
_cell_length_b   6.51111809
_cell_length_c   6.51111825
_cell_angle_alpha   128.67384193
_cell_angle_beta   128.67384399
_cell_angle_gamma   75.53594001
_symmetry_Int_Tables_number   1
_chemical_formula_structural   LiAl2AgS4
_chemical_formula_sum   'Li1 Al2 Ag1 S4'
_cell_volume   163.70431309
_cell_formula_units_Z   1
loop_
 _symmetry_equiv_pos_site_id
 _symmetry_equiv_pos_as_xyz
  1  'x, y, z'
loop_
 _atom_site_type_symbol
 _atom_site_label
 _atom_site_symmetry_multiplicity
 _atom_site_fract_x
 _atom_site_fract_y
 _atom_site_fract_z
 _atom_site_occupancy
  Li  Li0  1  0.75000000  0.25000000  0.50000000  1
  Al  Al0  1  0.50000000  0.50000000  0.00000000  1
  Al  Al1  1  0.25000000  0.75000000  0.50000000  1
  Ag  Ag0  1  0.00000000  0.00000000  0.00000000  1
  S  S0  1  0.87169951  0.84245561  0.45559129  1
  S  S1  1  0.15754439  0.61313568  0.02924390  1
  S  S2  1  0.38686432  0.41610821  0.54440871  1
  S  S3  1  0.58389179  0.12830049  0.97075610  1
loop_
_geom_bond_atom_site_label_1
_geom_bond_atom_site_label_2
_geom_bond_distance
_geom_bond_site_symmetry_2
Li0 S2 2.455600 1_555
Li0 S0 2.455601 1_545
Li0 S1 2.455601 1_656
Li0 S3 2.455601 1_554
Al0 S1 2.255119 1_555
Al0 S3 2.255119 1_554
Al0 S0 2.255119 1_555
Al0 S2 2.255119 1_554
Al1 S0 2.258285 1_455
Al1 S2 2.258286 1_555
Al1 S3 2.258286 1_565
Al1 S1 2.258286 1_555
Ag0 S3 2.549119 1_454
Ag0 S1 2.549119 1_545
Ag0 S2 2.549119 1_555
Ag0 S0 2.549119 1_444
