# generated using pymatgen
data_NaNi2(Sb6Os)2
_symmetry_space_group_name_H-M   'P 1'
_cell_length_a   8.03167111
_cell_length_b   8.05706783
_cell_length_c   8.03166976
_cell_angle_alpha   109.58490904
_cell_angle_beta   109.12028936
_cell_angle_gamma   109.58010383
_symmetry_Int_Tables_number   1
_chemical_formula_structural   NaNi2(Sb6Os)2
_chemical_formula_sum   'Na1 Ni2 Sb12 Os2'
_cell_volume   400.72450712
_cell_formula_units_Z   1
loop_
 _symmetry_equiv_pos_site_id
 _symmetry_equiv_pos_as_xyz
  1  'x, y, z'
loop_
 _atom_site_type_symbol
 _atom_site_label
 _atom_site_symmetry_multiplicity
 _atom_site_fract_x
 _atom_site_fract_y
 _atom_site_fract_z
 _atom_site_occupancy
  Na  Na0  1  0.00000000  0.00000000  0.00000000  1
  Ni  Ni0  1  0.50000000  0.50000000  0.50000000  1
  Ni  Ni1  1  0.00000000  0.50000000  0.00000000  1
  Sb  Sb0  1  0.34219712  0.16019054  0.49673979  1
  Sb  Sb1  1  0.33654925  0.83980946  0.18200658  1
  Sb  Sb2  1  0.66345075  0.16019054  0.81799342  1
  Sb  Sb3  1  0.81867373  0.65917478  0.15444908  1
  Sb  Sb4  1  0.15786775  0.49632240  0.33845465  1
  Sb  Sb5  1  0.50472570  0.65917478  0.84050004  1
  Sb  Sb6  1  0.84478933  0.18414700  0.33935667  1
  Sb  Sb7  1  0.65780288  0.83980946  0.50326021  1
  Sb  Sb8  1  0.18132627  0.34082522  0.84555092  1
  Sb  Sb9  1  0.15521067  0.81585300  0.66064333  1
  Sb  Sb10  1  0.49527430  0.34082522  0.15949996  1
  Sb  Sb11  1  0.84213225  0.50367760  0.66154535  1
  Os  Os0  1  0.50000000  0.00000000  0.00000000  1
  Os  Os1  1  0.00000000  0.00000000  0.50000000  1
loop_
_geom_bond_atom_site_label_1
_geom_bond_atom_site_label_2
_geom_bond_distance
_geom_bond_site_symmetry_2
Na0 Sb6 3.455242 1_455
Na0 Sb9 3.455242 1_544
Na0 Sb10 3.462265 1_555
Na0 Sb5 3.462265 1_444
Na0 Sb8 3.462267 1_554
Na0 Sb3 3.462267 1_445
Na0 Sb11 3.470500 1_444
Na0 Sb4 3.470500 1_555
Na0 Sb0 3.481932 1_555
Na0 Sb7 3.481932 1_444
Na0 Sb1 3.481932 1_545
Na0 Sb2 3.481932 1_454
Ni0 Sb10 2.583272 1_555
Ni0 Sb5 2.583272 1_555
Ni0 Sb7 2.589860 1_555
Ni0 Sb0 2.589860 1_555
Ni0 Sb11 2.611366 1_555
Ni0 Sb4 2.611366 1_555
Ni1 Sb3 2.583279 1_455
Ni1 Sb8 2.583279 1_554
Ni1 Sb1 2.589860 1_555
Ni1 Sb2 2.589860 1_454
Ni1 Sb4 2.611366 1_555
Ni1 Sb11 2.611366 1_454
Sb0 Sb1 2.920128 1_545
Sb0 Sb2 2.992252 1_555
Sb1 Sb7 2.992252 1_555
Sb2 Sb7 2.920128 1_545
Sb3 Sb5 2.924210 1_554
Sb4 Sb6 2.904200 1_455
Sb4 Sb9 2.988545 1_555
Sb5 Sb8 3.000122 1_555
Sb10 Sb8 2.924210 1_554
Sb10 Sb3 3.000122 1_555
Sb11 Sb9 2.904200 1_655
Sb11 Sb6 2.988545 1_555
Os0 Sb6 2.624757 1_555
Os0 Sb9 2.624757 1_544
Os0 Sb2 2.629168 1_554
Os0 Sb1 2.629168 1_545
Os0 Sb10 2.631856 1_555
Os0 Sb5 2.631856 1_544
Os1 Sb9 2.624765 1_545
Os1 Sb6 2.624765 1_455
Os1 Sb0 2.629169 1_555
Os1 Sb7 2.629169 1_445
Os1 Sb8 2.631855 1_555
Os1 Sb3 2.631855 1_445
