# generated using pymatgen
data_BeCr(BMo2)2
_symmetry_space_group_name_H-M   'P 1'
_cell_length_a   6.81427342
_cell_length_b   6.81427460
_cell_length_c   6.81427435
_cell_angle_alpha   129.44761990
_cell_angle_beta   129.44763168
_cell_angle_gamma   74.29138421
_symmetry_Int_Tables_number   1
_chemical_formula_structural   BeCr(BMo2)2
_chemical_formula_sum   'Be2 Cr2 B4 Mo8'
_cell_volume   183.92989651
_cell_formula_units_Z   2
loop_
 _symmetry_equiv_pos_site_id
 _symmetry_equiv_pos_as_xyz
  1  'x, y, z'
loop_
 _atom_site_type_symbol
 _atom_site_label
 _atom_site_symmetry_multiplicity
 _atom_site_fract_x
 _atom_site_fract_y
 _atom_site_fract_z
 _atom_site_occupancy
  Be  Be0  1  0.75000000  0.75000000  0.00000000  1
  Be  Be1  1  0.25000000  0.25000000  0.00000000  1
  Cr  Cr0  1  0.00000000  0.00000000  0.00000000  1
  Cr  Cr1  1  0.50000000  0.50000000  0.00000000  1
  B  B0  1  0.37857373  0.87857373  0.25714846  1
  B  B1  1  0.87857373  0.62142627  0.50000000  1
  B  B2  1  0.62142627  0.12142627  0.74285154  1
  B  B3  1  0.12142627  0.37857373  0.50000000  1
  Mo  Mo0  1  0.81102265  0.97165737  0.50000000  1
  Mo  Mo1  1  0.31102265  0.81102265  0.83936428  1
  Mo  Mo2  1  0.18897735  0.02834263  0.50000000  1
  Mo  Mo3  1  0.52834263  0.68897735  0.50000000  1
  Mo  Mo4  1  0.02834263  0.52834263  0.83936428  1
  Mo  Mo5  1  0.68897735  0.18897735  0.16063572  1
  Mo  Mo6  1  0.97165737  0.47165737  0.16063572  1
  Mo  Mo7  1  0.47165737  0.31102265  0.50000000  1
loop_
_geom_bond_atom_site_label_1
_geom_bond_atom_site_label_2
_geom_bond_distance
_geom_bond_site_symmetry_2
Be0 Mo1 2.462327 1_554
Be0 Mo5 2.462328 1_565
Be0 Mo2 2.462329 1_665
Be0 Mo3 2.462329 1_554
Be0 Mo7 2.462329 1_554
Be0 Mo0 2.462329 1_555
Be0 Mo4 2.462333 1_654
Be0 Mo6 2.462333 1_555
Be0 Cr1 2.715838 1_555
Be0 Cr0 2.715838 1_665
Be1 Mo5 2.462327 1_555
Be1 Mo1 2.462328 1_544
Be1 Mo0 2.462329 1_444
Be1 Mo7 2.462329 1_555
Be1 Mo3 2.462329 1_555
Be1 Mo2 2.462329 1_554
Be1 Mo6 2.462333 1_455
Be1 Mo4 2.462333 1_554
Be1 Cr0 2.715838 1_555
Be1 Cr1 2.715838 1_555
Cr0 Mo6 2.650890 1_455
Cr0 Mo4 2.650890 1_544
Cr0 Mo7 2.650891 1_555
Cr0 Mo3 2.650891 1_444
Cr0 Mo0 2.650892 1_444
Cr0 Mo2 2.650892 1_555
Cr0 Mo1 2.650896 1_544
Cr0 Mo5 2.650896 1_455
Cr1 Mo4 2.650889 1_554
Cr1 Mo6 2.650889 1_555
Cr1 Mo0 2.650892 1_555
Cr1 Mo2 2.650892 1_554
Cr1 Mo3 2.650892 1_555
Cr1 Mo7 2.650892 1_554
Cr1 Mo1 2.650896 1_554
Cr1 Mo5 2.650896 1_555
B0 B2 1.998550 1_565
B0 Mo3 2.303479 1_555
B0 Mo2 2.303479 1_565
B0 Mo0 2.303486 1_555
B0 Mo7 2.303487 1_565
B0 Mo4 2.304938 1_554
B0 Mo1 2.304952 1_554
B0 Cr0 2.313523 1_565
B0 Cr1 2.313524 1_555
B1 B3 1.998559 1_655
B1 Mo4 2.303479 1_655
B1 Mo6 2.303479 1_555
B1 Mo1 2.303486 1_655
B1 Mo5 2.303486 1_555
B1 Mo3 2.304939 1_555
B1 Mo0 2.304939 1_555
B1 Cr1 2.313521 1_555
B1 Cr0 2.313522 1_666
B2 Mo7 2.303479 1_555
B2 Mo0 2.303479 1_545
B2 Mo2 2.303486 1_555
B2 Mo3 2.303487 1_545
B2 Mo6 2.304938 1_556
B2 Mo5 2.304952 1_556
B2 Cr0 2.313523 1_656
B2 Cr1 2.313524 1_556
B3 Mo6 2.303479 1_455
B3 Mo4 2.303479 1_555
B3 Mo5 2.303486 1_455
B3 Mo1 2.303486 1_555
B3 Mo7 2.304939 1_555
B3 Mo2 2.304939 1_555
B3 Cr1 2.313521 1_556
B3 Cr0 2.313522 1_555
