# generated using pymatgen
data_Lu6GaCoRh
_symmetry_space_group_name_H-M   'P 1'
_cell_length_a   8.08068461
_cell_length_b   8.08068478
_cell_length_c   8.08068401
_cell_angle_alpha   106.63653936
_cell_angle_beta   110.00791125
_cell_angle_gamma   111.81127884
_symmetry_Int_Tables_number   1
_chemical_formula_structural   Lu6GaCoRh
_chemical_formula_sum   'Lu12 Ga2 Co2 Rh2'
_cell_volume   405.33685098
_cell_formula_units_Z   2
loop_
 _symmetry_equiv_pos_site_id
 _symmetry_equiv_pos_as_xyz
  1  'x, y, z'
loop_
 _atom_site_type_symbol
 _atom_site_label
 _atom_site_symmetry_multiplicity
 _atom_site_fract_x
 _atom_site_fract_y
 _atom_site_fract_z
 _atom_site_occupancy
  Lu  Lu0  1  0.69457328  0.25427920  0.94885348  1
  Lu  Lu1  1  0.30542672  0.74572080  0.05114652  1
  Lu  Lu2  1  0.69457328  0.74572080  0.44029508  1
  Lu  Lu3  1  0.30542672  0.25427920  0.55970492  1
  Lu  Lu4  1  0.81130386  0.13039087  0.31908700  1
  Lu  Lu5  1  0.81130386  0.49221686  0.68091300  1
  Lu  Lu6  1  0.18869614  0.86960913  0.68091300  1
  Lu  Lu7  1  0.18869614  0.50778314  0.31908700  1
  Lu  Lu8  1  0.60133863  0.78084032  0.82049731  1
  Lu  Lu9  1  0.96034300  0.78084032  0.17950269  1
  Lu  Lu10  1  0.03965700  0.21915968  0.82049731  1
  Lu  Lu11  1  0.39866137  0.21915968  0.17950269  1
  Ga  Ga0  1  0.50000000  0.50000000  0.00000000  1
  Ga  Ga1  1  0.50000000  0.00000000  0.50000000  1
  Co  Co0  1  0.00000000  0.11359074  0.11359074  1
  Co  Co1  1  1.00000000  0.88640926  0.88640926  1
  Rh  Rh0  1  0.83706372  0.50000000  0.33706372  1
  Rh  Rh1  1  0.16293628  0.50000000  0.66293628  1
loop_
_geom_bond_atom_site_label_1
_geom_bond_atom_site_label_2
_geom_bond_distance
_geom_bond_site_symmetry_2
Lu0 Rh0 2.715127 1_556
Lu1 Rh1 2.715127 1_554
Lu2 Rh0 2.715136 1_555
Lu3 Rh1 2.715136 1_555
Lu4 Rh0 2.872920 1_555
Lu4 Rh1 2.872920 1_655
Lu5 Rh0 2.872920 1_555
Lu5 Rh1 2.872920 1_655
Lu6 Rh1 2.872920 1_555
Lu6 Rh0 2.872920 1_455
Lu7 Rh1 2.872920 1_555
Lu7 Rh0 2.872920 1_455
Lu8 Rh1 2.933597 1_555
Lu9 Rh0 2.933590 1_555
Lu10 Rh1 2.933590 1_555
Lu11 Rh0 2.933597 1_555
Ga0 Lu1 2.979958 1_555
Ga0 Lu0 2.979958 1_554
Ga0 Lu2 2.979966 1_555
Ga0 Lu3 2.979966 1_554
Ga0 Lu9 3.039956 1_555
Ga0 Lu10 3.039956 1_554
Ga0 Lu11 3.039957 1_555
Ga0 Lu8 3.039957 1_554
Ga0 Rh1 3.124198 1_554
Ga0 Rh0 3.124198 1_555
Ga1 Lu3 3.046144 1_555
Ga1 Lu2 3.046144 1_545
Ga1 Lu1 3.046152 1_545
Ga1 Lu0 3.046152 1_555
Ga1 Lu6 3.317259 1_545
Ga1 Lu4 3.317259 1_555
Ga1 Lu5 3.317260 1_555
Ga1 Lu7 3.317260 1_545
Ga1 Lu10 3.573060 1_655
Ga1 Lu9 3.573060 1_445
Ga1 Lu8 3.573061 1_545
Ga1 Lu11 3.573061 1_555
Co0 Co1 2.193280 1_444
Co0 Lu4 2.618824 1_455
Co0 Lu7 2.618824 1_555
Co0 Lu11 2.812965 1_555
Co0 Lu8 2.812969 1_444
Co0 Lu10 2.812973 1_554
Co0 Lu9 2.812973 1_445
Co0 Lu3 3.139926 1_555
Co0 Lu0 3.139930 1_454
Co1 Lu6 2.618824 1_655
Co1 Lu5 2.618824 1_555
Co1 Lu8 2.812965 1_555
Co1 Lu11 2.812969 1_666
Co1 Lu9 2.812973 1_556
Co1 Lu10 2.812973 1_665
Co1 Lu2 3.139926 1_555
Co1 Lu1 3.139930 1_656
