# generated using pymatgen
data_Ir5Rh3S16
_symmetry_space_group_name_H-M   'P 1'
_cell_length_a   3.56878993
_cell_length_b   5.66562889
_cell_length_c   19.97148233
_cell_angle_alpha   90.03495493
_cell_angle_beta   90.00000000
_cell_angle_gamma   90.00000000
_symmetry_Int_Tables_number   1
_chemical_formula_structural   Ir5Rh3S16
_chemical_formula_sum   'Ir5 Rh3 S16'
_cell_volume   403.81209950
_cell_formula_units_Z   1
loop_
 _symmetry_equiv_pos_site_id
 _symmetry_equiv_pos_as_xyz
  1  'x, y, z'
loop_
 _atom_site_type_symbol
 _atom_site_label
 _atom_site_symmetry_multiplicity
 _atom_site_fract_x
 _atom_site_fract_y
 _atom_site_fract_z
 _atom_site_occupancy
  Ir  Ir0  1  0.25000000  0.55733705  0.30373109  1
  Ir  Ir1  1  0.25000000  0.92236292  0.57718207  1
  Ir  Ir2  1  0.75000000  0.07448277  0.42295478  1
  Ir  Ir3  1  0.75000000  0.42299380  0.92281844  1
  Ir  Ir4  1  0.25000000  0.57608715  0.07714958  1
  Rh  Rh0  1  0.25000000  0.94601517  0.80351560  1
  Rh  Rh1  1  0.75000000  0.05555261  0.19616872  1
  Rh  Rh2  1  0.75000000  0.44578563  0.69644986  1
  S  S0  1  0.25000000  0.22154562  0.49216720  1
  S  S1  1  0.75000000  0.77508958  0.50795777  1
  S  S2  1  0.75000000  0.72339080  0.00769872  1
  S  S3  1  0.25000000  0.27674565  0.99210283  1
  S  S4  1  0.25000000  0.17577816  0.26480197  1
  S  S5  1  0.75000000  0.82721462  0.73439445  1
  S  S6  1  0.75000000  0.67555543  0.23553808  1
  S  S7  1  0.25000000  0.32721281  0.76553942  1
  S  S8  1  0.25000000  0.93865482  0.35807131  1
  S  S9  1  0.75000000  0.05952740  0.64214619  1
  S  S10  1  0.75000000  0.43873959  0.14144145  1
  S  S11  1  0.25000000  0.55976123  0.85779552  1
  S  S12  1  0.25000000  0.54611385  0.62380443  1
  S  S13  1  0.75000000  0.45479898  0.37676497  1
  S  S14  1  0.75000000  0.04658806  0.87612100  1
  S  S15  1  0.25000000  0.95266629  0.12368554  1
loop_
_geom_bond_atom_site_label_1
_geom_bond_atom_site_label_2
_geom_bond_distance
_geom_bond_site_symmetry_2
Ir0 S4 2.296882 1_555
Ir0 S6 2.342776 1_455
Ir0 S6 2.342776 1_555
Ir0 S13 2.376992 1_455
Ir0 S13 2.376992 1_555
Ir0 S8 2.417078 1_555
Ir1 S12 2.326692 1_555
Ir1 S9 2.338820 1_465
Ir1 S9 2.338820 1_565
Ir1 S0 2.399897 1_565
Ir1 S1 2.406286 1_555
Ir1 S1 2.406286 1_455
Ir2 S8 2.335424 1_645
Ir2 S8 2.335424 1_545
Ir2 S13 2.344410 1_555
Ir2 S1 2.400572 1_545
Ir2 S0 2.405737 1_655
Ir2 S0 2.405737 1_555
Ir3 S14 2.327064 1_555
Ir3 S11 2.339251 1_555
Ir3 S11 2.339251 1_655
Ir3 S2 2.401401 1_556
Ir3 S3 2.405552 1_555
Ir3 S3 2.405552 1_655
Ir4 S15 2.326675 1_555
Ir4 S10 2.332270 1_555
Ir4 S10 2.332270 1_455
Ir4 S3 2.399519 1_554
Ir4 S2 2.409534 1_555
Ir4 S2 2.409534 1_455
Rh0 S7 2.289463 1_565
Rh0 S5 2.354064 1_555
Rh0 S5 2.354064 1_455
Rh0 S14 2.368617 1_465
Rh0 S14 2.368617 1_565
Rh0 S11 2.442750 1_555
Rh1 S6 2.292456 1_545
Rh1 S4 2.350688 1_655
Rh1 S4 2.350688 1_555
Rh1 S15 2.370308 1_645
Rh1 S15 2.370308 1_545
Rh1 S10 2.431199 1_555
Rh2 S5 2.289618 1_555
Rh2 S7 2.353806 1_555
Rh2 S7 2.353806 1_655
Rh2 S12 2.369199 1_655
Rh2 S12 2.369199 1_555
Rh2 S9 2.441797 1_555
S4 S8 2.297318 1_545
S5 S9 2.264847 1_565
S10 S6 2.308395 1_555
S11 S7 2.264443 1_555
