# generated using pymatgen
data_Zn6Ni7Ge2
_symmetry_space_group_name_H-M   'P 1'
_cell_length_a   8.14011568
_cell_length_b   8.14011568
_cell_length_c   8.14011568
_cell_angle_alpha   60.00000000
_cell_angle_beta   60.00000000
_cell_angle_gamma   60.00000000
_symmetry_Int_Tables_number   1
_chemical_formula_structural   Zn6Ni7Ge2
_chemical_formula_sum   'Zn12 Ni14 Ge4'
_cell_volume   381.39652614
_cell_formula_units_Z   2
loop_
 _symmetry_equiv_pos_site_id
 _symmetry_equiv_pos_as_xyz
  1  'x, y, z'
loop_
 _atom_site_type_symbol
 _atom_site_label
 _atom_site_symmetry_multiplicity
 _atom_site_fract_x
 _atom_site_fract_y
 _atom_site_fract_z
 _atom_site_occupancy
  Zn  Zn0  1  0.87367600  0.87367600  0.87367600  1
  Zn  Zn1  1  0.87102700  0.37632400  0.37632400  1
  Zn  Zn2  1  0.37632400  0.87102700  0.37632400  1
  Zn  Zn3  1  0.37632400  0.37632400  0.87102700  1
  Zn  Zn4  1  0.87367600  0.37897300  0.87367600  1
  Zn  Zn5  1  0.87367600  0.87367600  0.37897300  1
  Zn  Zn6  1  0.37897300  0.87367600  0.87367600  1
  Zn  Zn7  1  0.37632400  0.37632400  0.37632400  1
  Zn  Zn8  1  0.12500000  0.12500000  0.12500000  1
  Zn  Zn9  1  0.62500000  0.12500000  0.12500000  1
  Zn  Zn10  1  0.12500000  0.62500000  0.12500000  1
  Zn  Zn11  1  0.12500000  0.12500000  0.62500000  1
  Ni  Ni0  1  0.25062700  0.74937300  0.25062700  1
  Ni  Ni1  1  0.50062700  0.99937300  0.99937300  1
  Ni  Ni2  1  0.99937300  0.50062700  0.50062700  1
  Ni  Ni3  1  0.50062700  0.99937300  0.50062700  1
  Ni  Ni4  1  0.99937300  0.99937300  0.50062700  1
  Ni  Ni5  1  0.50062700  0.50062700  0.99937300  1
  Ni  Ni6  1  0.25062700  0.25062700  0.74937300  1
  Ni  Ni7  1  0.74937300  0.25062700  0.25062700  1
  Ni  Ni8  1  0.25062700  0.74937300  0.74937300  1
  Ni  Ni9  1  0.74937300  0.74937300  0.25062700  1
  Ni  Ni10  1  0.99937300  0.50062700  0.99937300  1
  Ni  Ni11  1  0.74937300  0.25062700  0.74937300  1
  Ni  Ni12  1  0.00000000  0.00000000  0.00000000  1
  Ni  Ni13  1  0.25000000  0.25000000  0.25000000  1
  Ge  Ge0  1  0.62500000  0.62500000  0.62500000  1
  Ge  Ge1  1  0.12500000  0.62500000  0.62500000  1
  Ge  Ge2  1  0.62500000  0.12500000  0.62500000  1
  Ge  Ge3  1  0.62500000  0.62500000  0.12500000  1
loop_
_geom_bond_atom_site_label_1
_geom_bond_atom_site_label_2
_geom_bond_distance
_geom_bond_site_symmetry_2
Ni0 Zn2 2.479490 1_555
Ni0 Zn7 2.479497 1_555
Ni0 Zn10 2.496565 1_555
Ni0 Zn8 2.496565 1_565
Ni0 Zn6 2.505430 1_554
Ni0 Zn5 2.505430 1_455
Ni1 Zn6 2.479490 1_555
Ni1 Zn0 2.479497 1_555
Ni1 Zn8 2.496565 1_566
Ni1 Zn9 2.496565 1_566
Ni1 Zn2 2.505430 1_556
Ni1 Zn3 2.505430 1_565
Ni2 Zn4 2.479497 1_555
Ni2 Zn5 2.479497 1_555
Ni2 Zn10 2.496565 1_655
Ni2 Zn11 2.496565 1_655
Ni2 Zn7 2.505430 1_655
Ni2 Zn1 2.505437 1_555
Ni3 Zn5 2.479497 1_555
Ni3 Zn6 2.479497 1_555
Ni3 Zn9 2.496565 1_565
Ni3 Zn11 2.496565 1_565
Ni3 Zn7 2.505430 1_565
Ni3 Zn2 2.505437 1_555
Ni4 Zn5 2.479490 1_555
Ni4 Zn0 2.479497 1_555
Ni4 Zn8 2.496565 1_665
Ni4 Zn11 2.496565 1_665
Ni4 Zn1 2.505430 1_565
Ni4 Zn2 2.505430 1_655
Ni5 Zn4 2.479497 1_555
Ni5 Zn6 2.479497 1_555
Ni5 Zn9 2.496565 1_556
Ni5 Zn10 2.496565 1_556
Ni5 Zn7 2.505430 1_556
Ni5 Zn3 2.505437 1_555
Ni6 Zn3 2.479490 1_555
Ni6 Zn7 2.479497 1_555
Ni6 Zn11 2.496565 1_555
Ni6 Zn8 2.496565 1_556
Ni6 Zn6 2.505430 1_545
Ni6 Zn4 2.505430 1_455
Ni7 Zn1 2.479490 1_555
Ni7 Zn7 2.479497 1_555
Ni7 Zn9 2.496565 1_555
Ni7 Zn8 2.496565 1_655
Ni7 Zn5 2.505430 1_545
Ni7 Zn4 2.505430 1_554
Ni8 Zn2 2.479497 1_555
Ni8 Zn3 2.479497 1_555
Ni8 Zn10 2.496565 1_556
Ni8 Zn11 2.496565 1_565
Ni8 Zn0 2.505430 1_455
Ni8 Zn6 2.505437 1_555
Ni9 Zn2 2.479497 1_555
Ni9 Zn1 2.479497 1_555
Ni9 Zn10 2.496565 1_655
Ni9 Zn9 2.496565 1_565
Ni9 Zn0 2.505430 1_554
Ni9 Zn5 2.505437 1_555
Ni10 Zn4 2.479490 1_555
Ni10 Zn0 2.479497 1_555
Ni10 Zn8 2.496565 1_656
Ni10 Zn10 2.496565 1_656
Ni10 Zn3 2.505430 1_655
Ni10 Zn1 2.505430 1_556
Ni11 Zn3 2.479497 1_555
Ni11 Zn1 2.479497 1_555
Ni11 Zn9 2.496565 1_556
Ni11 Zn11 2.496565 1_655
Ni11 Zn0 2.505430 1_545
Ni11 Zn4 2.505437 1_555
Ni12 Zn11 2.492391 1_554
Ni12 Zn10 2.492391 1_545
Ni12 Zn9 2.492391 1_455
Ni12 Zn8 2.492391 1_555
Ni12 Zn0 2.518791 1_444
Ni12 Zn4 2.518797 1_454
Ni12 Zn5 2.518797 1_445
Ni12 Zn6 2.518797 1_544
Ni13 Zn9 2.492391 1_555
Ni13 Zn10 2.492391 1_555
Ni13 Zn11 2.492391 1_555
Ni13 Zn8 2.492391 1_555
Ni13 Zn7 2.518791 1_555
Ni13 Zn2 2.518797 1_545
Ni13 Zn3 2.518797 1_554
Ni13 Zn1 2.518797 1_455
Ge0 Ni5 2.488231 1_555
Ge0 Ni2 2.488231 1_555
Ge0 Ni3 2.488231 1_555
Ge0 Ni9 2.488231 1_555
Ge0 Ni11 2.488231 1_555
Ge0 Ni8 2.488231 1_555
Ge0 Zn5 2.862805 1_555
Ge0 Zn2 2.862805 1_555
Ge0 Zn6 2.862805 1_555
Ge0 Zn3 2.862805 1_555
Ge0 Zn1 2.862805 1_555
Ge0 Zn4 2.862805 1_555
Ge1 Ni8 2.488231 1_555
Ge1 Ni10 2.488231 1_455
Ge1 Ni0 2.488231 1_555
Ge1 Ni4 2.488231 1_455
Ge1 Ni6 2.488231 1_555
Ge1 Ni2 2.488231 1_455
Ge1 Zn2 2.862799 1_555
Ge1 Zn5 2.862799 1_455
Ge1 Zn3 2.862799 1_555
Ge1 Zn4 2.862799 1_455
Ge1 Zn7 2.862805 1_555
Ge1 Zn0 2.862805 1_455
Ge2 Ni11 2.488231 1_555
Ge2 Ni4 2.488231 1_545
Ge2 Ni1 2.488231 1_545
Ge2 Ni6 2.488231 1_555
Ge2 Ni7 2.488231 1_555
Ge2 Ni3 2.488231 1_545
Ge2 Zn5 2.862799 1_545
Ge2 Zn6 2.862799 1_545
Ge2 Zn3 2.862799 1_555
Ge2 Zn1 2.862799 1_555
Ge2 Zn0 2.862805 1_545
Ge2 Zn7 2.862805 1_555
Ge3 Ni1 2.488231 1_554
Ge3 Ni10 2.488231 1_554
Ge3 Ni9 2.488231 1_555
Ge3 Ni0 2.488231 1_555
Ge3 Ni7 2.488231 1_555
Ge3 Ni5 2.488231 1_554
Ge3 Zn6 2.862799 1_554
Ge3 Zn4 2.862799 1_554
Ge3 Zn2 2.862799 1_555
Ge3 Zn1 2.862799 1_555
Ge3 Zn0 2.862805 1_554
Ge3 Zn7 2.862805 1_555
