# generated using pymatgen
data_LuZr3(Al3Co)6
_symmetry_space_group_name_H-M   'P 1'
_cell_length_a   7.23456688
_cell_length_b   7.23869479
_cell_length_c   8.99557507
_cell_angle_alpha   90.00000000
_cell_angle_beta   90.00000000
_cell_angle_gamma   119.43462483
_symmetry_Int_Tables_number   1
_chemical_formula_structural   LuZr3(Al3Co)6
_chemical_formula_sum   'Lu1 Zr3 Al18 Co6'
_cell_volume   410.27825178
_cell_formula_units_Z   1
loop_
 _symmetry_equiv_pos_site_id
 _symmetry_equiv_pos_as_xyz
  1  'x, y, z'
loop_
 _atom_site_type_symbol
 _atom_site_label
 _atom_site_symmetry_multiplicity
 _atom_site_fract_x
 _atom_site_fract_y
 _atom_site_fract_z
 _atom_site_occupancy
  Lu  Lu0  1  0.99098486  0.67266798  0.25000000  1
  Zr  Zr0  1  0.00854688  0.32818177  0.75000000  1
  Zr  Zr1  1  0.67202364  0.99210625  0.25000000  1
  Zr  Zr2  1  0.32687157  0.00714666  0.75000000  1
  Al  Al0  1  0.99508490  0.33371605  0.07164592  1
  Al  Al1  1  0.00454088  0.66484946  0.92577137  1
  Al  Al2  1  0.00454088  0.66484946  0.57422863  1
  Al  Al3  1  0.33612451  0.99584396  0.42850867  1
  Al  Al4  1  0.99508490  0.33371605  0.42835408  1
  Al  Al5  1  0.66524708  0.00553053  0.57316059  1
  Al  Al6  1  0.66524708  0.00553053  0.92683941  1
  Al  Al7  1  0.33612451  0.99584396  0.07149133  1
  Al  Al8  1  0.34377004  0.56051538  0.25000000  1
  Al  Al9  1  0.66012566  0.43881753  0.75000000  1
  Al  Al10  1  0.55598043  0.33544077  0.25000000  1
  Al  Al11  1  0.44109077  0.66083816  0.75000000  1
  Al  Al12  1  0.33056585  0.33026277  0.54637144  1
  Al  Al13  1  0.66811119  0.66952503  0.45663273  1
  Al  Al14  1  0.66811119  0.66952503  0.04336727  1
  Al  Al15  1  0.33056585  0.33026277  0.95362856  1
  Al  Al16  1  0.12069084  0.12350182  0.25000000  1
  Al  Al17  1  0.88080170  0.88128247  0.75000000  1
  Co  Co0  1  0.67165567  0.32763506  0.99906707  1
  Co  Co1  1  0.32739405  0.67155999  0.99834399  1
  Co  Co2  1  0.32739405  0.67155999  0.50165601  1
  Co  Co3  1  0.67165567  0.32763506  0.50093293  1
  Co  Co4  1  0.00083268  0.00082724  0.99887217  1
  Co  Co5  1  0.00083268  0.00082724  0.50112783  1
loop_
_geom_bond_atom_site_label_1
_geom_bond_atom_site_label_2
_geom_bond_distance
_geom_bond_site_symmetry_2
Al0 Co0 2.408726 1_554
Al0 Co4 2.517008 1_654
Al0 Co1 2.533113 1_654
Al0 Al16 2.659773 1_655
Al0 Al15 2.660440 1_654
Al0 Al1 2.703874 1_654
Al0 Al6 2.731832 1_554
Al0 Al8 2.749980 1_655
Al0 Zr0 2.895968 1_654
Al0 Zr1 2.910500 1_545
Al0 Lu0 2.943893 1_555
Al1 Co1 2.402612 1_555
Al1 Co4 2.532209 1_565
Al1 Co0 2.532814 1_455
Al1 Al7 2.750347 1_556
Al1 Zr2 2.897998 1_565
Al1 Zr0 2.917101 1_555
Al1 Lu0 2.919754 1_456
Al2 Co2 2.402612 1_555
Al2 Co5 2.532209 1_565
Al2 Co3 2.532814 1_455
Al2 Al4 2.703874 1_455
Al2 Al3 2.750347 1_555
Al2 Zr2 2.897998 1_565
Al2 Zr0 2.917101 1_555
Al2 Lu0 2.919754 1_455
Al3 Co2 2.408627 1_555
Al3 Co3 2.520924 1_565
Al3 Co5 2.529430 1_565
Al3 Al5 2.683926 1_565
Al3 Zr2 2.894861 1_565
Al3 Lu0 2.923142 1_455
Al3 Zr1 2.923905 1_555
Al4 Co3 2.408726 1_555
Al4 Co5 2.517008 1_655
Al4 Co2 2.533113 1_655
Al4 Al5 2.731832 1_555
Al4 Al8 2.749980 1_655
Al4 Zr0 2.895968 1_655
Al4 Zr1 2.910500 1_545
Al4 Lu0 2.943893 1_555
Al5 Co3 2.398851 1_555
Al5 Co5 2.529143 1_655
Al5 Co2 2.534691 1_545
Al5 Zr0 2.907334 1_655
Al5 Zr1 2.909857 1_545
Al5 Zr2 2.924303 1_555
Al6 Co0 2.398851 1_555
Al6 Co4 2.529143 1_655
Al6 Co1 2.534691 1_545
Al6 Al7 2.683926 1_546
Al6 Zr0 2.907334 1_655
Al6 Zr1 2.909857 1_546
Al6 Zr2 2.924303 1_555
Al7 Co1 2.408627 1_554
Al7 Co0 2.520924 1_564
Al7 Co4 2.529430 1_564
Al7 Zr2 2.894861 1_564
Al7 Lu0 2.923142 1_455
Al7 Zr1 2.923905 1_555
Al8 Co2 2.424563 1_555
Al8 Co1 2.424563 1_554
Al8 Zr1 2.847436 1_555
Al8 Lu0 3.034724 1_455
Al9 Co0 2.395938 1_555
Al9 Co3 2.395938 1_555
Al9 Zr2 2.858703 1_555
Al9 Zr0 2.996546 1_655
Al10 Co3 2.417714 1_555
Al10 Co0 2.417714 1_554
Al10 Al3 2.703407 1_545
Al10 Al7 2.703407 1_545
Al10 Lu0 2.883114 1_555
Al10 Zr1 2.988676 1_545
Al11 Co1 2.395015 1_555
Al11 Co2 2.395015 1_555
Al11 Al6 2.721966 1_565
Al11 Al5 2.721966 1_565
Al11 Zr0 2.860883 1_555
Al11 Zr2 3.000486 1_565
Al12 Co5 2.439621 1_555
Al12 Co3 2.510538 1_555
Al12 Co2 2.514288 1_555
Al12 Al4 2.660440 1_455
Al12 Al3 2.661104 1_545
Al12 Zr0 2.957772 1_555
Al12 Zr2 2.960615 1_555
Al13 Co5 2.455996 1_665
Al13 Co2 2.505169 1_555
Al13 Co3 2.519257 1_555
Al13 Al5 2.657924 1_565
Al13 Zr1 2.973793 1_555
Al13 Lu0 2.976500 1_555
Al14 Co4 2.455996 1_664
Al14 Co1 2.505169 1_554
Al14 Co0 2.519257 1_554
Al14 Al6 2.657924 1_564
Al14 Zr1 2.973793 1_555
Al14 Lu0 2.976500 1_555
Al15 Co4 2.439621 1_555
Al15 Co0 2.510538 1_555
Al15 Co1 2.514288 1_555
Al15 Al7 2.661104 1_546
Al15 Zr0 2.957772 1_555
Al15 Zr2 2.960615 1_555
Al16 Co5 2.426293 1_555
Al16 Co4 2.426293 1_554
Al16 Al4 2.659773 1_455
Al16 Al3 2.697622 1_545
Al16 Al7 2.697622 1_545
Al16 Zr1 2.899349 1_445
Al16 Lu0 2.919042 1_445
Al17 Co4 2.403399 1_665
Al17 Co5 2.403399 1_665
Al17 Al6 2.673920 1_565
Al17 Al5 2.673920 1_565
Al17 Zr2 2.890432 1_665
Al17 Zr0 2.894939 1_665
