# generated using pymatgen
data_Rb2BaP2Pt3
_symmetry_space_group_name_H-M   'P 1'
_cell_length_a   7.77239532
_cell_length_b   7.77239541
_cell_length_c   7.77239533
_cell_angle_alpha   43.14697547
_cell_angle_beta   43.14697595
_cell_angle_gamma   43.14697777
_symmetry_Int_Tables_number   1
_chemical_formula_structural   Rb2BaP2Pt3
_chemical_formula_sum   'Rb2 Ba1 P2 Pt3'
_cell_volume   199.09743301
_cell_formula_units_Z   1
loop_
 _symmetry_equiv_pos_site_id
 _symmetry_equiv_pos_as_xyz
  1  'x, y, z'
loop_
 _atom_site_type_symbol
 _atom_site_label
 _atom_site_symmetry_multiplicity
 _atom_site_fract_x
 _atom_site_fract_y
 _atom_site_fract_z
 _atom_site_occupancy
  Rb  Rb0  1  0.51013948  0.51013948  0.51013948  1
  Rb  Rb1  1  0.90742785  0.90742785  0.90742785  1
  Ba  Ba0  1  0.08278446  0.08278446  0.08278446  1
  P  P0  1  0.25210287  0.25210287  0.25210287  1
  P  P1  1  0.74759485  0.74759485  0.74759485  1
  Pt  Pt0  1  0.49878126  0.49878126  0.00238797  1
  Pt  Pt1  1  0.49878126  0.00238797  0.49878126  1
  Pt  Pt2  1  0.00238797  0.49878126  0.49878126  1
loop_
_geom_bond_atom_site_label_1
_geom_bond_atom_site_label_2
_geom_bond_distance
_geom_bond_site_symmetry_2
Rb0 Rb1 3.565503 1_554
Rb0 Rb1 3.565503 1_545
Rb0 Rb1 3.565503 1_455
Ba0 P1 3.300211 1_445
Ba0 P1 3.300211 1_454
Ba0 P1 3.300211 1_544
Ba0 Pt1 3.350095 1_455
Ba0 Pt2 3.350095 1_554
Ba0 Pt2 3.350095 1_545
Ba0 Pt1 3.350095 1_554
Ba0 Pt0 3.350095 1_455
Ba0 Pt0 3.350095 1_545
Ba0 P0 3.574513 1_555
Ba0 Rb0 3.850938 1_554
Ba0 Rb0 3.850938 1_545
Ba0 Rb0 3.850939 1_455
P0 Pt0 2.371270 1_555
P0 Pt1 2.371270 1_555
P0 Pt2 2.371270 1_555
P0 Rb1 3.308654 1_445
P0 Rb1 3.308654 1_454
P0 Rb1 3.308654 1_544
P0 Rb0 3.662881 1_554
P0 Rb0 3.662881 1_455
P0 Rb0 3.662881 1_545
P1 Pt0 2.383697 1_556
P1 Pt1 2.383697 1_565
P1 Pt2 2.383697 1_655
P1 Rb1 3.374265 1_555
P1 Rb0 3.871283 1_556
P1 Rb0 3.871283 1_655
P1 Rb0 3.871283 1_565
Pt0 Pt1 2.837250 1_555
Pt0 Pt2 2.837250 1_555
Pt0 Pt1 2.878480 1_564
Pt0 Pt2 2.878480 1_654
Pt0 Rb1 3.462008 1_454
Pt0 Rb1 3.462008 1_544
Pt0 Rb0 3.698532 1_554
Pt0 Rb0 4.076536 1_555
Pt1 Pt2 2.837251 1_555
Pt1 Pt2 2.878480 1_645
Pt1 Rb1 3.462007 1_445
Pt1 Rb1 3.462008 1_544
Pt1 Rb0 3.698532 1_545
Pt1 Rb0 4.076536 1_555
Pt2 Rb1 3.462007 1_454
Pt2 Rb1 3.462007 1_445
Pt2 Rb0 3.698532 1_455
Pt2 Rb0 4.076536 1_555
