# generated using pymatgen
data_RbNa(NbCl3)3
_symmetry_space_group_name_H-M   'P 1'
_cell_length_a   9.49819803
_cell_length_b   9.60661960
_cell_length_c   9.67772586
_cell_angle_alpha   118.87417422
_cell_angle_beta   97.91603104
_cell_angle_gamma   105.29841912
_symmetry_Int_Tables_number   1
_chemical_formula_structural   RbNa(NbCl3)3
_chemical_formula_sum   'Rb2 Na2 Nb6 Cl18'
_cell_volume   708.17252306
_cell_formula_units_Z   2
loop_
 _symmetry_equiv_pos_site_id
 _symmetry_equiv_pos_as_xyz
  1  'x, y, z'
loop_
 _atom_site_type_symbol
 _atom_site_label
 _atom_site_symmetry_multiplicity
 _atom_site_fract_x
 _atom_site_fract_y
 _atom_site_fract_z
 _atom_site_occupancy
  Rb  Rb0  1  0.32819347  0.46768918  0.26481766  1
  Rb  Rb1  1  0.67180653  0.53231082  0.73518234  1
  Na  Na0  1  0.64857298  0.20679884  0.05947618  1
  Na  Na1  1  0.35142702  0.79320116  0.94052382  1
  Nb  Nb0  1  0.12904409  0.88825005  0.35511387  1
  Nb  Nb1  1  0.85953487  0.76043985  0.43929411  1
  Nb  Nb2  1  0.85680362  0.96749323  0.29550415  1
  Nb  Nb3  1  0.87095591  0.11174995  0.64488613  1
  Nb  Nb4  1  0.14046513  0.23956015  0.56070589  1
  Nb  Nb5  1  0.14319638  0.03250677  0.70449585  1
  Cl  Cl0  1  0.67567878  0.45757816  0.36428097  1
  Cl  Cl1  1  0.67031076  0.91973303  0.03074836  1
  Cl  Cl2  1  0.33440114  0.32433071  0.81629546  1
  Cl  Cl3  1  0.66559886  0.67566929  0.18370454  1
  Cl  Cl4  1  0.28959290  0.74552107  0.17625402  1
  Cl  Cl5  1  0.68029768  0.09222651  0.42845279  1
  Cl  Cl6  1  0.32432122  0.54242184  0.63571903  1
  Cl  Cl7  1  0.98504863  0.58459084  0.25800611  1
  Cl  Cl8  1  0.68106552  0.84690439  0.59803671  1
  Cl  Cl9  1  0.71040710  0.25447893  0.82374598  1
  Cl  Cl10  1  0.00338557  0.75443247  0.66972936  1
  Cl  Cl11  1  0.01511118  0.16639247  0.91217616  1
  Cl  Cl12  1  0.99661443  0.24556753  0.33027064  1
  Cl  Cl13  1  0.31893448  0.15309561  0.40196329  1
  Cl  Cl14  1  0.32968924  0.08026697  0.96925164  1
  Cl  Cl15  1  0.01495137  0.41540916  0.74199389  1
  Cl  Cl16  1  0.98488882  0.83360753  0.08782384  1
  Cl  Cl17  1  0.31970232  0.90777349  0.57154721  1
loop_
_geom_bond_atom_site_label_1
_geom_bond_atom_site_label_2
_geom_bond_distance
_geom_bond_site_symmetry_2
Cl0 Nb1 2.640354 1_555
Cl0 Na0 2.678035 1_555
Cl0 Rb1 3.310990 1_555
Cl0 Rb0 3.348668 1_555
Cl1 Nb2 2.664371 1_555
Cl1 Na0 2.702003 1_565
Cl1 Na1 2.778027 1_554
Cl1 Rb1 3.433889 1_554
Cl2 Nb5 2.484118 1_555
Cl2 Nb4 2.486491 1_555
Cl2 Rb1 3.702345 1_555
Cl2 Rb0 3.883502 1_556
Cl3 Nb2 2.484118 1_555
Cl3 Nb1 2.486491 1_555
Cl3 Rb0 3.702345 1_555
Cl3 Rb1 3.883502 1_554
Cl4 Nb0 2.596128 1_555
Cl4 Na1 2.644901 1_554
Cl4 Rb0 3.260654 1_555
Cl5 Nb2 2.463156 1_545
Cl5 Nb3 2.469500 1_555
Cl5 Rb1 3.849341 1_555
Cl6 Nb4 2.640354 1_555
Cl6 Na1 2.678035 1_555
Cl6 Rb0 3.310990 1_555
Cl6 Rb1 3.348668 1_555
Cl7 Nb1 2.475800 1_555
Cl7 Nb0 2.481215 1_655
Cl7 Rb0 3.719154 1_655
Cl8 Nb1 2.480216 1_555
Cl8 Nb3 2.484162 1_565
Cl8 Rb0 3.760072 1_555
Cl8 Rb1 3.829981 1_555
Cl9 Nb3 2.596128 1_555
Cl9 Na0 2.644901 1_556
Cl9 Rb1 3.260654 1_555
Cl10 Nb5 2.479864 1_565
Cl10 Nb1 2.483966 1_455
Cl10 Rb1 3.630684 1_455
Cl11 Nb3 2.485032 1_455
Cl11 Nb5 2.485266 1_555
Cl11 Rb0 3.462721 1_556
Cl12 Nb2 2.479864 1_545
Cl12 Nb4 2.483966 1_655
Cl12 Rb0 3.630684 1_655
Cl13 Nb4 2.480216 1_555
Cl13 Nb0 2.484162 1_545
Cl13 Rb1 3.760072 1_555
Cl13 Rb0 3.829981 1_555
Cl14 Nb5 2.664371 1_555
Cl14 Na1 2.702003 1_545
Cl14 Na0 2.778027 1_556
Cl14 Rb0 3.433889 1_556
Cl15 Nb4 2.475800 1_555
Cl15 Nb3 2.481215 1_455
Cl15 Rb1 3.719154 1_455
Cl16 Nb0 2.485032 1_655
Cl16 Nb2 2.485266 1_555
Cl16 Rb1 3.462721 1_554
Cl17 Nb5 2.463156 1_565
Cl17 Nb0 2.469500 1_555
Cl17 Rb0 3.849341 1_555
