# generated using pymatgen
data_CaY6FeI12
_symmetry_space_group_name_H-M   'P 1'
_cell_length_a   9.68526159
_cell_length_b   9.68526030
_cell_length_c   9.68526113
_cell_angle_alpha   106.89638402
_cell_angle_beta   106.89638387
_cell_angle_gamma   106.89638388
_symmetry_Int_Tables_number   1
_chemical_formula_structural   CaY6FeI12
_chemical_formula_sum   'Ca1 Y6 Fe1 I12'
_cell_volume   758.75173082
_cell_formula_units_Z   1
loop_
 _symmetry_equiv_pos_site_id
 _symmetry_equiv_pos_as_xyz
  1  'x, y, z'
loop_
 _atom_site_type_symbol
 _atom_site_label
 _atom_site_symmetry_multiplicity
 _atom_site_fract_x
 _atom_site_fract_y
 _atom_site_fract_z
 _atom_site_occupancy
  Ca  Ca0  1  0.50000000  0.50000000  0.50000000  1
  Y  Y0  1  0.70536526  0.97604115  0.90558123  1
  Y  Y1  1  0.97604115  0.90558123  0.70536526  1
  Y  Y2  1  0.09441877  0.29463474  0.02395885  1
  Y  Y3  1  0.29463474  0.02395885  0.09441877  1
  Y  Y4  1  0.90558123  0.70536526  0.97604115  1
  Y  Y5  1  0.02395885  0.09441877  0.29463474  1
  Fe  Fe0  1  0.00000000  0.00000000  0.00000000  1
  I  I0  1  0.07422637  0.22666885  0.67927297  1
  I  I1  1  0.37904511  0.14737448  0.45718353  1
  I  I2  1  0.62095489  0.85262552  0.54281647  1
  I  I3  1  0.22666885  0.67927297  0.07422637  1
  I  I4  1  0.77333115  0.32072703  0.92577363  1
  I  I5  1  0.67927297  0.07422637  0.22666885  1
  I  I6  1  0.54281647  0.62095489  0.85262552  1
  I  I7  1  0.85262552  0.54281647  0.62095489  1
  I  I8  1  0.92577363  0.77333115  0.32072703  1
  I  I9  1  0.32072703  0.92577363  0.77333115  1
  I  I10  1  0.45718353  0.37904511  0.14737448  1
  I  I11  1  0.14737448  0.45718353  0.37904511  1
loop_
_geom_bond_atom_site_label_1
_geom_bond_atom_site_label_2
_geom_bond_distance
_geom_bond_site_symmetry_2
Ca0 I2 3.126833 1_555
Ca0 I1 3.126833 1_555
Ca0 I6 3.126834 1_555
Ca0 I10 3.126834 1_555
Ca0 I7 3.126834 1_555
Ca0 I11 3.126834 1_555
Fe0 Y4 2.647276 1_444
Fe0 Y2 2.647276 1_555
Fe0 Y5 2.647276 1_555
Fe0 Y1 2.647276 1_444
Fe0 Y3 2.647276 1_555
Fe0 Y0 2.647276 1_444
I0 Y1 3.084903 1_445
I0 Y2 3.143972 1_556
I0 Y5 3.400771 1_555
I1 Y3 3.124531 1_555
I1 Y5 3.150728 1_555
I2 Y0 3.124531 1_555
I2 Y1 3.150728 1_555
I3 Y4 3.084903 1_454
I3 Y3 3.143972 1_565
I3 Y2 3.400770 1_555
I4 Y2 3.084903 1_656
I4 Y0 3.143972 1_545
I4 Y4 3.400770 1_555
I5 Y0 3.084903 1_544
I5 Y5 3.143972 1_655
I5 Y3 3.400771 1_555
I6 Y4 3.124531 1_555
I6 Y0 3.150728 1_555
I7 Y1 3.124531 1_555
I7 Y4 3.150728 1_555
I8 Y5 3.084903 1_665
I8 Y4 3.143972 1_554
I8 Y1 3.400771 1_555
I9 Y3 3.084903 1_566
I9 Y1 3.143972 1_455
I9 Y0 3.400771 1_555
I10 Y2 3.124531 1_555
I10 Y3 3.150728 1_555
I11 Y5 3.124531 1_555
I11 Y2 3.150728 1_555
