# generated using pymatgen
data_Ca6RuIO12
_symmetry_space_group_name_H-M   'P 1'
_cell_length_a   5.82111683
_cell_length_b   5.55260520
_cell_length_c   9.75416678
_cell_angle_alpha   55.14930807
_cell_angle_beta   90.55754430
_cell_angle_gamma   89.85986303
_symmetry_Int_Tables_number   1
_chemical_formula_structural   Ca6RuIO12
_chemical_formula_sum   'Ca6 Ru1 I1 O12'
_cell_volume   258.70619445
_cell_formula_units_Z   1
loop_
 _symmetry_equiv_pos_site_id
 _symmetry_equiv_pos_as_xyz
  1  'x, y, z'
loop_
 _atom_site_type_symbol
 _atom_site_label
 _atom_site_symmetry_multiplicity
 _atom_site_fract_x
 _atom_site_fract_y
 _atom_site_fract_z
 _atom_site_occupancy
  Ca  Ca0  1  0.05236126  0.71526025  0.77587077  1
  Ca  Ca1  1  0.94763874  0.28473975  0.22412923  1
  Ca  Ca2  1  0.56647130  0.25205194  0.76966333  1
  Ca  Ca3  1  0.43352870  0.74794806  0.23033667  1
  Ca  Ca4  1  0.50000000  0.50000000  0.00000000  1
  Ca  Ca5  1  0.00000000  0.50000000  0.50000000  1
  Ru  Ru0  1  0.00000000  0.00000000  0.00000000  1
  I  I0  1  0.50000000  0.00000000  0.50000000  1
  O  O0  1  0.44779958  0.90642471  0.71572705  1
  O  O1  1  0.55220042  0.09357529  0.28427295  1
  O  O2  1  0.95004472  0.12736899  0.76857396  1
  O  O3  1  0.04995528  0.87263101  0.23142604  1
  O  O4  1  0.76547831  0.75898814  0.57759981  1
  O  O5  1  0.23452169  0.24101186  0.42240019  1
  O  O6  1  0.28194163  0.23232569  0.94191004  1
  O  O7  1  0.71805837  0.76767431  0.05808996  1
  O  O8  1  0.32507082  0.67219275  0.55801094  1
  O  O9  1  0.67492918  0.32780725  0.44198906  1
  O  O10  1  0.81891302  0.33321367  0.95691403  1
  O  O11  1  0.18108698  0.66678633  0.04308597  1
loop_
_geom_bond_atom_site_label_1
_geom_bond_atom_site_label_2
_geom_bond_distance
_geom_bond_site_symmetry_2
Ca0 O10 2.290137 1_455
Ca0 O2 2.324303 1_465
Ca0 O4 2.446735 1_455
Ca0 O0 2.469033 1_555
Ca0 O6 2.564483 1_555
Ca0 O11 2.566476 1_556
Ca0 O8 2.781661 1_555
Ca1 O11 2.290137 1_655
Ca1 O3 2.324303 1_645
Ca1 O5 2.446735 1_655
Ca1 O1 2.469033 1_555
Ca1 O7 2.564483 1_555
Ca1 O10 2.566476 1_554
Ca1 O9 2.781661 1_555
Ca2 O6 2.328691 1_555
Ca2 O2 2.337997 1_555
Ca2 O0 2.364401 1_545
Ca2 O8 2.470272 1_555
Ca2 O10 2.567146 1_555
Ca2 O4 2.608886 1_555
Ca2 O7 2.686934 1_546
Ca2 O9 3.048802 1_555
Ca3 O7 2.328691 1_555
Ca3 O3 2.337997 1_555
Ca3 O1 2.364401 1_565
Ca3 O9 2.470272 1_555
Ca3 O11 2.567146 1_555
Ca3 O5 2.608886 1_555
Ca3 O6 2.686934 1_564
Ca3 O8 3.048802 1_555
Ca4 O11 2.220858 1_555
Ca4 O10 2.220858 1_554
Ca4 O7 2.258111 1_555
Ca4 O6 2.258111 1_554
Ca4 O0 2.387975 1_554
Ca4 O1 2.387975 1_555
Ca5 O2 2.247545 1_455
Ca5 O3 2.247545 1_555
Ca5 O8 2.328386 1_555
Ca5 O9 2.328386 1_455
Ca5 O5 2.399830 1_555
Ca5 O4 2.399830 1_455
I0 O9 1.874388 1_555
I0 O8 1.874388 1_545
I0 O0 1.885149 1_545
I0 O1 1.885149 1_555
I0 O4 1.887186 1_545
I0 O5 1.887186 1_555
O2 Ru0 1.960123 1_656
O3 Ru0 1.960123 1_565
O6 Ru0 1.967701 1_556
O7 Ru0 1.967701 1_665
O10 Ru0 1.950442 1_656
O11 Ru0 1.950442 1_565
