# generated using pymatgen
data_CsYBeTe3
_symmetry_space_group_name_H-M   'P 1'
_cell_length_a   8.85312151
_cell_length_b   8.85312161
_cell_length_c   11.63507530
_cell_angle_alpha   90.00000000
_cell_angle_beta   90.00000000
_cell_angle_gamma   151.69547001
_symmetry_Int_Tables_number   1
_chemical_formula_structural   CsYBeTe3
_chemical_formula_sum   'Cs2 Y2 Be2 Te6'
_cell_volume   432.39928906
_cell_formula_units_Z   2
loop_
 _symmetry_equiv_pos_site_id
 _symmetry_equiv_pos_as_xyz
  1  'x, y, z'
loop_
 _atom_site_type_symbol
 _atom_site_label
 _atom_site_symmetry_multiplicity
 _atom_site_fract_x
 _atom_site_fract_y
 _atom_site_fract_z
 _atom_site_occupancy
  Cs  Cs0  1  0.25914408  0.74085592  0.25000000  1
  Cs  Cs1  1  0.74085592  0.25914408  0.75000000  1
  Y  Y0  1  0.00000000  0.00000000  0.50000000  1
  Y  Y1  1  0.00000000  0.00000000  0.00000000  1
  Be  Be0  1  0.53659103  0.46340897  0.25000000  1
  Be  Be1  1  0.46340897  0.53659103  0.75000000  1
  Te  Te0  1  0.61602333  0.38397667  0.42685483  1
  Te  Te1  1  0.38397667  0.61602333  0.57314517  1
  Te  Te2  1  0.61602333  0.38397667  0.07314517  1
  Te  Te3  1  0.38397667  0.61602333  0.92685483  1
  Te  Te4  1  0.94691501  0.05308499  0.25000000  1
  Te  Te5  1  0.05308499  0.94691501  0.75000000  1
loop_
_geom_bond_atom_site_label_1
_geom_bond_atom_site_label_2
_geom_bond_distance
_geom_bond_site_symmetry_2
Cs0 Te0 3.867500 1_455
Cs0 Te2 3.867500 1_455
Cs0 Te0 3.867500 1_565
Cs0 Te2 3.867500 1_565
Cs0 Te4 3.883089 1_565
Cs0 Te4 3.883089 1_455
Cs0 Te1 4.327780 1_555
Cs0 Te3 4.327780 1_554
Cs1 Te3 3.867500 1_655
Cs1 Te1 3.867500 1_655
Cs1 Te3 3.867500 1_545
Cs1 Te1 3.867500 1_545
Cs1 Te5 3.883089 1_545
Cs1 Te5 3.883089 1_655
Cs1 Te2 4.327780 1_556
Cs1 Te0 4.327780 1_555
Be0 Te0 2.468613 1_555
Be0 Te2 2.468613 1_555
Be0 Te4 2.656294 1_455
Be0 Te4 2.656294 1_565
Be1 Te3 2.468613 1_555
Be1 Te1 2.468613 1_555
Be1 Te5 2.656294 1_655
Be1 Te5 2.656294 1_545
Te0 Y0 3.062307 1_555
Te0 Y0 3.062307 1_665
Te1 Y0 3.062307 1_665
Te1 Y0 3.062307 1_555
Te2 Y1 3.062307 1_555
Te2 Y1 3.062307 1_665
Te3 Y1 3.062307 1_666
Te3 Y1 3.062307 1_556
Te4 Y1 3.048213 1_655
Te4 Y0 3.048213 1_655
Te5 Y1 3.048213 1_566
Te5 Y0 3.048213 1_565
