# generated using pymatgen
data_KSnGePd3
_symmetry_space_group_name_H-M   'P 1'
_cell_length_a   7.17230354
_cell_length_b   7.17230463
_cell_length_c   7.17230410
_cell_angle_alpha   118.22029897
_cell_angle_beta   84.48969004
_cell_angle_gamma   128.54740252
_symmetry_Int_Tables_number   1
_chemical_formula_structural   KSnGePd3
_chemical_formula_sum   'K2 Sn2 Ge2 Pd6'
_cell_volume   243.46719482
_cell_formula_units_Z   2
loop_
 _symmetry_equiv_pos_site_id
 _symmetry_equiv_pos_as_xyz
  1  'x, y, z'
loop_
 _atom_site_type_symbol
 _atom_site_label
 _atom_site_symmetry_multiplicity
 _atom_site_fract_x
 _atom_site_fract_y
 _atom_site_fract_z
 _atom_site_occupancy
  K  K0  1  0.45871432  0.20871432  0.25000000  1
  K  K1  1  0.51686764  0.76686664  0.75000000  1
  Sn  Sn0  1  0.79931909  0.69919145  0.10012665  1
  Sn  Sn1  1  0.09906480  0.69919145  0.39987235  1
  Ge  Ge0  1  0.86286646  0.30139526  0.56147120  1
  Ge  Ge1  1  0.23992406  0.30139526  0.93852980  1
  Pd  Pd0  1  0.00679063  0.45402507  0.94723545  1
  Pd  Pd1  1  0.00214430  0.20923983  0.20655294  1
  Pd  Pd2  1  0.50268690  0.79559236  0.29344706  1
  Pd  Pd3  1  0.00679063  0.05955518  0.55276455  1
  Pd  Pd4  1  0.50268690  0.20923983  0.70709554  1
  Pd  Pd5  1  0.00214430  0.79559236  0.79290446  1
loop_
_geom_bond_atom_site_label_1
_geom_bond_atom_site_label_2
_geom_bond_distance
_geom_bond_site_symmetry_2
K0 Pd2 3.321586 1_545
K0 Pd1 3.321592 1_555
K0 Pd4 3.321593 1_555
K0 Pd5 3.321594 1_544
K0 Sn1 3.443812 1_655
K0 Sn0 3.443813 1_555
K0 Sn0 3.549397 1_445
K0 Sn1 3.549397 1_545
K0 Pd3 3.590227 1_555
K0 Pd0 3.590233 1_544
K0 K1 3.699941 1_555
K0 K1 3.699948 1_544
K1 Pd0 3.378711 1_665
K1 Pd3 3.378712 1_665
K1 Pd5 3.391664 1_655
K1 Pd1 3.391671 1_666
K1 Pd4 3.391680 1_565
K1 Pd2 3.391680 1_555
K1 Pd3 3.492426 1_555
K1 Pd0 3.492430 1_555
K1 Sn0 3.741800 1_556
K1 Sn1 3.741811 1_555
K1 Pd4 3.799459 1_555
K1 Pd2 3.799460 1_556
K1 Pd1 3.799466 1_555
K1 Pd5 3.799475 1_555
Sn0 Sn1 3.183002 1_655
Ge0 Pd3 2.488954 1_655
Ge0 Pd0 2.488957 1_655
Ge0 Pd2 2.491568 1_545
Ge0 Pd4 2.491571 1_555
Ge0 Pd1 2.580324 1_655
Ge0 Pd5 2.580330 1_655
Ge0 Sn1 3.013278 1_655
Ge0 K0 3.357482 1_555
Ge0 K1 3.522523 1_655
Ge1 Pd0 2.488950 1_555
Ge1 Pd3 2.488960 1_555
Ge1 Pd5 2.491564 1_545
Ge1 Pd1 2.491565 1_556
Ge1 Pd2 2.580324 1_556
Ge1 Pd4 2.580327 1_555
Ge1 Sn0 3.013277 1_556
Ge1 K0 3.357476 1_556
Ge1 K1 3.522523 1_555
Pd0 Sn1 2.762772 1_556
Pd0 Sn0 2.762778 1_456
Pd1 Sn0 2.649777 1_445
Pd1 Sn1 2.699466 1_555
Pd2 Sn1 2.649770 1_555
Pd2 Sn0 2.699475 1_555
Pd3 Sn0 2.762778 1_445
Pd3 Sn1 2.762778 1_545
Pd4 Sn1 2.649777 1_545
Pd4 Sn0 2.699466 1_556
Pd5 Sn0 2.649775 1_456
Pd5 Sn1 2.699471 1_555
