# generated using pymatgen
data_BeGa2(Ni10B3)2
_symmetry_space_group_name_H-M   'P 1'
_cell_length_a   7.31763309
_cell_length_b   7.31763349
_cell_length_c   7.31763339
_cell_angle_alpha   60.00000044
_cell_angle_beta   59.99999866
_cell_angle_gamma   60.00000089
_symmetry_Int_Tables_number   1
_chemical_formula_structural   BeGa2(Ni10B3)2
_chemical_formula_sum   'Be1 Ga2 Ni20 B6'
_cell_volume   277.07473966
_cell_formula_units_Z   1
loop_
 _symmetry_equiv_pos_site_id
 _symmetry_equiv_pos_as_xyz
  1  'x, y, z'
loop_
 _atom_site_type_symbol
 _atom_site_label
 _atom_site_symmetry_multiplicity
 _atom_site_fract_x
 _atom_site_fract_y
 _atom_site_fract_z
 _atom_site_occupancy
  Be  Be0  1  0.00000000  0.00000000  0.00000000  1
  Ga  Ga0  1  0.25000000  0.25000000  0.25000000  1
  Ga  Ga1  1  0.75000000  0.75000000  0.75000000  1
  Ni  Ni0  1  0.33397471  0.00000000  1.00000000  1
  Ni  Ni1  1  0.00000000  0.33397471  0.66602529  1
  Ni  Ni2  1  0.66602529  0.00000000  0.00000000  1
  Ni  Ni3  1  1.00000000  0.66602529  0.33397471  1
  Ni  Ni4  1  0.00000000  0.33397471  0.00000000  1
  Ni  Ni5  1  0.00000000  0.00000000  0.33397471  1
  Ni  Ni6  1  0.33397471  0.00000000  0.66602529  1
  Ni  Ni7  1  0.33397471  0.66602529  1.00000000  1
  Ni  Ni8  1  0.66602529  0.00000000  0.33397471  1
  Ni  Ni9  1  0.00000000  0.00000000  0.66602529  1
  Ni  Ni10  1  1.00000000  0.66602529  0.00000000  1
  Ni  Ni11  1  0.66602529  0.33397471  0.00000000  1
  Ni  Ni12  1  0.38205029  0.38205029  0.38205029  1
  Ni  Ni13  1  0.38205029  0.38205029  0.85384712  1
  Ni  Ni14  1  0.85384712  0.38205029  0.38205029  1
  Ni  Ni15  1  0.38205029  0.85384712  0.38205029  1
  Ni  Ni16  1  0.61794971  0.61794971  0.61794971  1
  Ni  Ni17  1  0.61794971  0.61794971  0.14615288  1
  Ni  Ni18  1  0.61794971  0.14615288  0.61794971  1
  Ni  Ni19  1  0.14615288  0.61794971  0.61794971  1
  B  B0  1  0.72557717  0.72557717  0.27442283  1
  B  B1  1  0.27442283  0.27442283  0.72557717  1
  B  B2  1  0.27442283  0.72557717  0.72557717  1
  B  B3  1  0.72557717  0.27442283  0.72557717  1
  B  B4  1  0.72557717  0.27442283  0.27442283  1
  B  B5  1  0.27442283  0.72557717  0.27442283  1
loop_
_geom_bond_atom_site_label_1
_geom_bond_atom_site_label_2
_geom_bond_distance
_geom_bond_site_symmetry_2
Be0 Ni0 2.443904 1_554
Be0 Ni2 2.443904 1_455
Be0 Ni8 2.443904 1_455
Be0 Ni6 2.443904 1_554
Be0 Ni7 2.443904 1_544
Be0 Ni11 2.443904 1_455
Be0 Ni5 2.443904 1_555
Be0 Ni9 2.443904 1_554
Be0 Ni3 2.443905 1_445
Be0 Ni1 2.443905 1_554
Be0 Ni4 2.443905 1_555
Be0 Ni10 2.443905 1_445
Ga0 Ni12 2.366931 1_555
Ga0 Ni14 2.366943 1_455
Ga0 Ni13 2.366943 1_554
Ga0 Ni15 2.366943 1_545
Ga1 Ni16 2.366931 1_555
Ga1 Ni19 2.366943 1_655
Ga1 Ni17 2.366943 1_556
Ga1 Ni18 2.366943 1_565
B0 Ni17 2.054352 1_555
B0 Ni15 2.054364 1_555
B0 Ni14 2.054364 1_555
B0 Ni16 2.054364 1_555
B0 Ni3 2.054865 1_555
B0 Ni10 2.054865 1_555
B0 Ni2 2.054865 1_565
B0 Ni8 2.054865 1_565
B1 Ni13 2.054352 1_555
B1 Ni18 2.054364 1_555
B1 Ni19 2.054364 1_555
B1 Ni12 2.054364 1_555
B1 Ni1 2.054865 1_555
B1 Ni4 2.054865 1_556
B1 Ni0 2.054865 1_555
B1 Ni6 2.054865 1_555
B2 Ni19 2.054352 1_555
B2 Ni15 2.054364 1_555
B2 Ni13 2.054364 1_555
B2 Ni16 2.054364 1_555
B2 Ni10 2.054865 1_456
B2 Ni9 2.054865 1_565
B2 Ni7 2.054865 1_555
B2 Ni6 2.054865 1_565
B3 Ni18 2.054352 1_555
B3 Ni13 2.054364 1_555
B3 Ni14 2.054364 1_555
B3 Ni16 2.054365 1_555
B3 Ni1 2.054865 1_655
B3 Ni9 2.054865 1_655
B3 Ni11 2.054865 1_556
B3 Ni2 2.054865 1_556
B4 Ni14 2.054352 1_555
B4 Ni18 2.054364 1_555
B4 Ni17 2.054364 1_555
B4 Ni12 2.054364 1_555
B4 Ni4 2.054865 1_655
B4 Ni5 2.054865 1_655
B4 Ni11 2.054865 1_555
B4 Ni8 2.054865 1_555
B5 Ni15 2.054352 1_555
B5 Ni17 2.054364 1_555
B5 Ni19 2.054364 1_555
B5 Ni12 2.054365 1_555
B5 Ni3 2.054865 1_455
B5 Ni5 2.054865 1_565
B5 Ni7 2.054865 1_554
B5 Ni0 2.054865 1_564
