# generated using pymatgen
data_Y12Co4AgPb
_symmetry_space_group_name_H-M   'P 1'
_cell_length_a   8.42574636
_cell_length_b   8.42574596
_cell_length_c   8.42574561
_cell_angle_alpha   109.86219232
_cell_angle_beta   111.14922750
_cell_angle_gamma   107.42413389
_symmetry_Int_Tables_number   1
_chemical_formula_structural   Y12Co4AgPb
_chemical_formula_sum   'Y12 Co4 Ag1 Pb1'
_cell_volume   459.97277948
_cell_formula_units_Z   1
loop_
 _symmetry_equiv_pos_site_id
 _symmetry_equiv_pos_as_xyz
  1  'x, y, z'
loop_
 _atom_site_type_symbol
 _atom_site_label
 _atom_site_symmetry_multiplicity
 _atom_site_fract_x
 _atom_site_fract_y
 _atom_site_fract_z
 _atom_site_occupancy
  Y  Y0  1  0.29282905  0.18481920  0.47764825  1
  Y  Y1  1  0.70717095  0.81518080  0.52235175  1
  Y  Y2  1  0.29282905  0.81518080  0.10801085  1
  Y  Y3  1  0.70717095  0.18481920  0.89198915  1
  Y  Y4  1  0.61776412  0.31548245  0.30228167  1
  Y  Y5  1  0.38223588  0.68451755  0.69771833  1
  Y  Y6  1  0.01320078  0.31548245  0.69771833  1
  Y  Y7  1  0.98679922  0.68451755  0.30228167  1
  Y  Y8  1  0.21537651  0.42249877  0.20712326  1
  Y  Y9  1  0.78462349  0.57750123  0.79287674  1
  Y  Y10  1  0.21537651  0.00825425  0.79287674  1
  Y  Y11  1  0.78462349  0.99174575  0.20712326  1
  Co  Co0  1  0.00000000  0.38459360  0.38459360  1
  Co  Co1  1  1.00000000  0.61540640  0.61540640  1
  Co  Co2  1  0.39117112  0.89117112  0.50000000  1
  Co  Co3  1  0.60882888  0.10882888  0.50000000  1
  Ag  Ag0  1  0.00000000  0.00000000  0.00000000  1
  Pb  Pb0  1  0.50000000  0.50000000  0.00000000  1
loop_
_geom_bond_atom_site_label_1
_geom_bond_atom_site_label_2
_geom_bond_distance
_geom_bond_site_symmetry_2
Y0 Y8 3.527474 1_555
Y0 Y11 3.527481 1_445
Y0 Y2 3.578913 1_545
Y0 Y10 3.612197 1_555
Y0 Y9 3.612206 1_555
Y0 Y4 3.620829 1_555
Y0 Y7 3.620829 1_445
Y0 Y5 3.676978 1_555
Y0 Y6 3.676978 1_555
Y1 Y9 3.527474 1_555
Y1 Y10 3.527481 1_665
Y1 Y3 3.578913 1_565
Y1 Y11 3.612197 1_555
Y1 Y8 3.612206 1_555
Y1 Y5 3.620829 1_555
Y1 Y6 3.620829 1_665
Y1 Y4 3.676978 1_555
Y1 Y7 3.676978 1_555
Y2 Y9 3.527483 1_454
Y2 Y8 3.612205 1_555
Y2 Y7 3.620822 1_455
Y2 Y4 3.620830 1_565
Y2 Y6 3.676981 1_554
Y2 Y5 3.676986 1_554
Y3 Y8 3.527483 1_656
Y3 Y9 3.612205 1_555
Y3 Y6 3.620822 1_655
Y3 Y5 3.620830 1_545
Y3 Y7 3.676981 1_556
Y3 Y4 3.676986 1_556
Y10 Y2 3.527495 1_546
Y10 Y3 3.612206 1_555
Y11 Y3 3.527495 1_564
Y11 Y2 3.612206 1_555
Co0 Co1 2.234778 1_455
Co0 Y8 2.750758 1_555
Co0 Y11 2.750766 1_445
Co0 Y6 2.860617 1_555
Co0 Y7 2.860617 1_455
Co0 Y5 2.860617 1_555
Co0 Y4 2.860617 1_455
Co0 Y0 3.394664 1_555
Co0 Y3 3.394671 1_454
Co1 Y9 2.750758 1_555
Co1 Y10 2.750766 1_665
Co1 Y7 2.860617 1_555
Co1 Y6 2.860617 1_655
Co1 Y4 2.860617 1_555
Co1 Y5 2.860617 1_655
Co1 Y1 3.394664 1_555
Co1 Y2 3.394671 1_656
Co2 Co3 2.170798 1_565
Co2 Y5 2.792110 1_555
Co2 Y7 2.792110 1_455
Co2 Y2 2.876720 1_555
Co2 Y3 2.876724 1_565
Co2 Y0 2.876728 1_565
Co2 Y1 2.876728 1_555
Co2 Y10 3.333940 1_565
Co2 Y8 3.333946 1_555
Co3 Y4 2.792110 1_555
Co3 Y6 2.792110 1_655
Co3 Y3 2.876720 1_555
Co3 Y2 2.876724 1_545
Co3 Y1 2.876728 1_545
Co3 Y0 2.876728 1_555
Co3 Y11 3.333940 1_545
Co3 Y9 3.333946 1_555
Ag0 Y8 2.938662 1_555
Ag0 Y9 2.938662 1_444
Ag0 Y11 2.938669 1_445
Ag0 Y10 2.938669 1_554
Ag0 Y0 3.314295 1_555
Ag0 Y1 3.314295 1_444
Ag0 Y2 3.314297 1_545
Ag0 Y3 3.314297 1_454
Pb0 Y4 3.417536 1_555
Pb0 Y5 3.417536 1_554
Pb0 Y7 3.417536 1_555
Pb0 Y6 3.417536 1_554
Pb0 Y11 3.475588 1_555
Pb0 Y10 3.475588 1_554
Pb0 Y9 3.475596 1_554
Pb0 Y8 3.475596 1_555
Pb0 Y1 3.634263 1_555
Pb0 Y0 3.634263 1_554
Pb0 Y2 3.634264 1_555
Pb0 Y3 3.634264 1_554
