# generated using pymatgen
data_Ta6Al16Ir7
_symmetry_space_group_name_H-M   'P 1'
_cell_length_a   8.52013165
_cell_length_b   8.52013151
_cell_length_c   8.52013181
_cell_angle_alpha   59.99999885
_cell_angle_beta   59.99999937
_cell_angle_gamma   59.99999906
_symmetry_Int_Tables_number   1
_chemical_formula_structural   Ta6Al16Ir7
_chemical_formula_sum   'Ta6 Al16 Ir7'
_cell_volume   437.34474267
_cell_formula_units_Z   1
loop_
 _symmetry_equiv_pos_site_id
 _symmetry_equiv_pos_as_xyz
  1  'x, y, z'
loop_
 _atom_site_type_symbol
 _atom_site_label
 _atom_site_symmetry_multiplicity
 _atom_site_fract_x
 _atom_site_fract_y
 _atom_site_fract_z
 _atom_site_occupancy
  Ta  Ta0  1  0.67801995  0.32198005  0.32198005  1
  Ta  Ta1  1  0.32198005  0.67801995  0.67801995  1
  Ta  Ta2  1  0.32198005  0.67801995  0.32198005  1
  Ta  Ta3  1  0.67801995  0.32198005  0.67801995  1
  Ta  Ta4  1  0.32198005  0.32198005  0.67801995  1
  Ta  Ta5  1  0.67801995  0.67801995  0.32198005  1
  Al  Al0  1  0.33575236  0.33575236  0.33575236  1
  Al  Al1  1  0.66424764  0.66424764  0.66424764  1
  Al  Al2  1  0.33575236  0.33575236  0.99274292  1
  Al  Al3  1  0.33575236  0.99274292  0.33575236  1
  Al  Al4  1  0.66424764  0.66424764  0.00725708  1
  Al  Al5  1  0.66424764  0.00725708  0.66424764  1
  Al  Al6  1  0.99274292  0.33575236  0.33575236  1
  Al  Al7  1  0.00725708  0.66424764  0.66424764  1
  Al  Al8  1  0.11953107  0.11953107  0.11953107  1
  Al  Al9  1  0.88046893  0.88046893  0.88046893  1
  Al  Al10  1  0.11953107  0.11953107  0.64140578  1
  Al  Al11  1  0.11953107  0.64140578  0.11953107  1
  Al  Al12  1  0.88046893  0.88046893  0.35859422  1
  Al  Al13  1  0.88046893  0.35859422  0.88046893  1
  Al  Al14  1  0.64140578  0.11953107  0.11953107  1
  Al  Al15  1  0.35859422  0.88046893  0.88046893  1
  Ir  Ir0  1  0.50000000  0.00000000  0.00000000  1
  Ir  Ir1  1  0.00000000  0.50000000  0.50000000  1
  Ir  Ir2  1  0.00000000  0.50000000  0.00000000  1
  Ir  Ir3  1  0.50000000  0.00000000  0.50000000  1
  Ir  Ir4  1  0.00000000  0.00000000  0.50000000  1
  Ir  Ir5  1  0.50000000  0.50000000  0.00000000  1
  Ir  Ir6  1  0.00000000  0.00000000  0.00000000  1
loop_
_geom_bond_atom_site_label_1
_geom_bond_atom_site_label_2
_geom_bond_distance
_geom_bond_site_symmetry_2
Ta0 Ta2 3.033507 1_555
Ta0 Ta5 3.033507 1_555
Ta0 Ta4 3.033507 1_555
Ta0 Ta3 3.033507 1_555
Ta1 Ta3 3.033507 1_555
Ta1 Ta4 3.033507 1_555
Ta1 Ta5 3.033507 1_555
Ta1 Ta2 3.033507 1_555
Ta2 Ta4 3.033507 1_555
Ta2 Ta5 3.033507 1_555
Ta3 Ta5 3.033507 1_555
Ta3 Ta4 3.033507 1_555
Al0 Ir3 2.460068 1_555
Al0 Ir1 2.460068 1_555
Al0 Ir5 2.460068 1_555
Al0 Ta2 2.803738 1_555
Al0 Ta0 2.803738 1_555
Al0 Ta4 2.803738 1_555
Al1 Ir3 2.460068 1_565
Al1 Ir1 2.460068 1_655
Al1 Ir5 2.460068 1_556
Al1 Ta3 2.803738 1_555
Al1 Ta1 2.803738 1_555
Al1 Ta5 2.803738 1_555
Al2 Ir0 2.460068 1_556
Al2 Ir2 2.460068 1_556
Al2 Ir5 2.460068 1_556
Al2 Ta1 2.803738 1_555
Al2 Ta3 2.803738 1_555
Al2 Ta4 2.803738 1_555
Al3 Ir4 2.460068 1_565
Al3 Ir0 2.460068 1_565
Al3 Ir3 2.460068 1_565
Al3 Ta5 2.803738 1_555
Al3 Ta2 2.803738 1_555
Al3 Ta1 2.803738 1_555
Al4 Ir0 2.460068 1_565
Al4 Ir2 2.460068 1_655
Al4 Ir5 2.460068 1_555
Al4 Ta0 2.803738 1_555
Al4 Ta2 2.803738 1_555
Al4 Ta5 2.803738 1_555
Al5 Ir4 2.460068 1_655
Al5 Ir0 2.460068 1_556
Al5 Ir3 2.460068 1_555
Al5 Ta4 2.803738 1_555
Al5 Ta3 2.803738 1_555
Al5 Ta0 2.803738 1_555
Al6 Ir4 2.460068 1_655
Al6 Ir2 2.460068 1_655
Al6 Ir1 2.460068 1_655
Al6 Ta5 2.803738 1_555
Al6 Ta0 2.803738 1_555
Al6 Ta3 2.803738 1_555
Al7 Ir4 2.460068 1_565
Al7 Ir2 2.460068 1_556
Al7 Ir1 2.460068 1_555
Al7 Ta4 2.803738 1_555
Al7 Ta1 2.803738 1_555
Al7 Ta2 2.803738 1_555
Al8 Ir6 2.494611 1_555
Al8 Ir2 2.648979 1_555
Al8 Ir0 2.648979 1_555
Al8 Ir4 2.648979 1_555
Al8 Ta2 3.177928 1_545
Al8 Ta0 3.177928 1_455
Al8 Ta4 3.177928 1_554
Al9 Ir6 2.494611 1_666
Al9 Ir2 2.648979 1_656
Al9 Ir0 2.648979 1_566
Al9 Ir4 2.648979 1_665
Al9 Ta3 3.177928 1_565
Al9 Ta1 3.177928 1_655
Al9 Ta5 3.177928 1_556
Al10 Ir6 2.494618 1_556
Al10 Ir4 2.648972 1_555
Al10 Ir1 2.648979 1_555
Al10 Ir3 2.648979 1_555
Al10 Ta1 3.177926 1_545
Al10 Ta3 3.177926 1_455
Al10 Ta4 3.177933 1_555
Al11 Ir6 2.494617 1_565
Al11 Ir2 2.648972 1_555
Al11 Ir5 2.648979 1_555
Al11 Ir1 2.648979 1_555
Al11 Ta5 3.177926 1_455
Al11 Ta1 3.177926 1_554
Al11 Ta2 3.177933 1_555
Al12 Ir6 2.494618 1_665
Al12 Ir4 2.648972 1_665
Al12 Ir1 2.648979 1_655
Al12 Ir3 2.648979 1_565
Al12 Ta0 3.177926 1_565
Al12 Ta2 3.177926 1_655
Al12 Ta5 3.177933 1_555
Al13 Ir6 2.494617 1_656
Al13 Ir2 2.648972 1_656
Al13 Ir5 2.648979 1_556
Al13 Ir1 2.648979 1_655
Al13 Ta4 3.177926 1_655
Al13 Ta0 3.177926 1_556
Al13 Ta3 3.177933 1_555
Al14 Ir6 2.494617 1_655
Al14 Ir0 2.648972 1_555
Al14 Ir5 2.648979 1_555
Al14 Ir3 2.648979 1_555
Al14 Ta5 3.177926 1_545
Al14 Ta3 3.177926 1_554
Al14 Ta0 3.177933 1_555
Al15 Ir6 2.494617 1_566
Al15 Ir0 2.648972 1_566
Al15 Ir5 2.648979 1_556
Al15 Ir3 2.648979 1_565
Al15 Ta4 3.177926 1_565
Al15 Ta2 3.177926 1_556
Al15 Ta1 3.177933 1_555
Ir0 Ta3 3.134694 1_554
Ir0 Ta2 3.134694 1_545
Ir0 Ta5 3.134694 1_545
Ir0 Ta4 3.134694 1_554
Ir1 Ta2 3.134694 1_555
Ir1 Ta3 3.134694 1_455
Ir1 Ta4 3.134694 1_555
Ir1 Ta5 3.134694 1_455
Ir2 Ta1 3.134694 1_554
Ir2 Ta0 3.134694 1_455
Ir2 Ta5 3.134694 1_455
Ir2 Ta4 3.134694 1_554
Ir3 Ta0 3.134694 1_555
Ir3 Ta1 3.134694 1_545
Ir3 Ta4 3.134694 1_555
Ir3 Ta5 3.134694 1_545
Ir4 Ta3 3.134694 1_455
Ir4 Ta1 3.134694 1_545
Ir4 Ta2 3.134694 1_545
Ir4 Ta0 3.134694 1_455
Ir5 Ta0 3.134694 1_555
Ir5 Ta2 3.134694 1_555
Ir5 Ta1 3.134694 1_554
Ir5 Ta3 3.134694 1_554
