# generated using pymatgen
data_Hf10Zn2SnSb5
_symmetry_space_group_name_H-M   'P 1'
_cell_length_a   8.53843487
_cell_length_b   8.54142616
_cell_length_c   5.76047816
_cell_angle_alpha   90.00000000
_cell_angle_beta   90.00000000
_cell_angle_gamma   119.98841586
_symmetry_Int_Tables_number   1
_chemical_formula_structural   Hf10Zn2SnSb5
_chemical_formula_sum   'Hf10 Zn2 Sn1 Sb5'
_cell_volume   363.87189319
_cell_formula_units_Z   1
loop_
 _symmetry_equiv_pos_site_id
 _symmetry_equiv_pos_as_xyz
  1  'x, y, z'
loop_
 _atom_site_type_symbol
 _atom_site_label
 _atom_site_symmetry_multiplicity
 _atom_site_fract_x
 _atom_site_fract_y
 _atom_site_fract_z
 _atom_site_occupancy
  Hf  Hf0  1  0.73306920  0.73363011  0.25000000  1
  Hf  Hf1  1  0.73200557  0.00000000  0.75000000  1
  Hf  Hf2  1  0.99943809  0.26636989  0.25000000  1
  Hf  Hf3  1  0.99995887  0.73096706  0.75000000  1
  Hf  Hf4  1  0.26899181  0.26903294  0.75000000  1
  Hf  Hf5  1  0.26589155  0.00000000  0.25000000  1
  Hf  Hf6  1  0.33332474  0.66602564  0.50057649  1
  Hf  Hf7  1  0.66730110  0.33397436  0.99942351  1
  Hf  Hf8  1  0.66730110  0.33397436  0.50057649  1
  Hf  Hf9  1  0.33332474  0.66602564  0.99942351  1
  Zn  Zn0  1  0.00084597  0.00000000  0.99700526  1
  Zn  Zn1  1  0.00084597  0.00000000  0.50299474  1
  Sn  Sn0  1  0.38479146  0.00000000  0.75000000  1
  Sb  Sb0  1  0.38631418  0.38584190  0.25000000  1
  Sb  Sb1  1  0.00047128  0.61415810  0.25000000  1
  Sb  Sb2  1  0.00023435  0.38559055  0.75000000  1
  Sb  Sb3  1  0.61464379  0.61440945  0.75000000  1
  Sb  Sb4  1  0.61124823  0.00000000  0.25000000  1
loop_
_geom_bond_atom_site_label_1
_geom_bond_atom_site_label_2
_geom_bond_distance
_geom_bond_site_symmetry_2
Hf0 Zn1 2.706997 1_665
Hf0 Zn0 2.706997 1_664
Hf0 Sb1 2.929747 1_655
Hf0 Sb4 2.936681 1_565
Hf0 Sb0 2.966208 1_555
Hf0 Sb3 3.053830 1_554
Hf0 Sb3 3.053830 1_555
Hf1 Zn0 2.700697 1_655
Hf1 Zn1 2.700697 1_655
Hf1 Sb2 2.924392 1_655
Hf1 Sb3 2.924392 1_545
Hf1 Sn0 2.964665 1_555
Hf1 Sb4 3.059232 1_556
Hf1 Sb4 3.059232 1_555
Hf2 Zn1 2.707001 1_655
Hf2 Zn0 2.707001 1_654
Hf2 Sb0 2.929763 1_655
Hf2 Sb4 2.936674 1_555
Hf2 Sb1 2.966208 1_655
Hf2 Sb2 3.053828 1_655
Hf2 Sb2 3.053828 1_654
Hf3 Zn0 2.699569 1_665
Hf3 Zn1 2.699569 1_665
Hf3 Sn0 2.920506 1_665
Hf3 Sb3 2.922484 1_555
Hf3 Sb2 2.951184 1_655
Hf3 Sb1 3.048868 1_655
Hf3 Sb1 3.048868 1_656
Hf4 Zn0 2.699569 1_555
Hf4 Zn1 2.699569 1_555
Hf4 Sn0 2.920506 1_555
Hf4 Sb2 2.922484 1_555
Hf4 Sb3 2.951184 1_555
Hf4 Sb0 3.048869 1_556
Hf4 Sb0 3.048869 1_555
Hf5 Zn1 2.691735 1_555
Hf5 Zn0 2.691735 1_554
Hf5 Sb0 2.920791 1_555
Hf5 Sb1 2.920793 1_545
Hf5 Sb4 2.948806 1_555
Hf5 Sn0 3.053923 1_554
Hf5 Sn0 3.053923 1_555
Hf6 Sb2 3.013404 1_555
Hf6 Sb4 3.014174 1_565
Hf6 Sb3 3.014483 1_555
Hf6 Sb0 3.016270 1_555
Hf6 Sb1 3.016351 1_555
Hf6 Sn0 3.023541 1_565
Hf7 Sb3 3.013413 1_555
Hf7 Sb4 3.014169 1_556
Hf7 Sb2 3.014468 1_655
Hf7 Sb1 3.016256 1_656
Hf7 Sb0 3.016358 1_556
Hf7 Sn0 3.023546 1_555
Hf8 Sb3 3.013413 1_555
Hf8 Sb4 3.014169 1_555
Hf8 Sb2 3.014468 1_655
Hf8 Sb1 3.016256 1_655
Hf8 Sb0 3.016358 1_555
Hf8 Sn0 3.023546 1_555
Hf9 Sb2 3.013404 1_555
Hf9 Sb4 3.014174 1_566
Hf9 Sb3 3.014483 1_555
Hf9 Sb0 3.016270 1_556
Hf9 Sb1 3.016351 1_556
Hf9 Sn0 3.023541 1_565
