# generated using pymatgen
data_K3ScIrO6
_symmetry_space_group_name_H-M   'P 1'
_cell_length_a   7.01717807
_cell_length_b   7.01731219
_cell_length_c   7.01713932
_cell_angle_alpha   95.34976673
_cell_angle_beta   95.35277040
_cell_angle_gamma   95.35070846
_symmetry_Int_Tables_number   1
_chemical_formula_structural   K3ScIrO6
_chemical_formula_sum   'K6 Sc2 Ir2 O12'
_cell_volume   340.71442962
_cell_formula_units_Z   2
loop_
 _symmetry_equiv_pos_site_id
 _symmetry_equiv_pos_as_xyz
  1  'x, y, z'
loop_
 _atom_site_type_symbol
 _atom_site_label
 _atom_site_symmetry_multiplicity
 _atom_site_fract_x
 _atom_site_fract_y
 _atom_site_fract_z
 _atom_site_occupancy
  K  K0  1  0.74999206  0.38764680  0.11232882  1
  K  K1  1  0.61232807  0.88766840  0.25001612  1
  K  K2  1  0.11232605  0.75001213  0.38767098  1
  K  K3  1  0.25000694  0.61235320  0.88767018  1
  K  K4  1  0.88767395  0.24998887  0.61233002  1
  K  K5  1  0.38767093  0.11233160  0.74998388  1
  Sc  Sc0  1  0.74998598  0.74998982  0.75003112  1
  Sc  Sc1  1  0.25001502  0.25000918  0.24996888  1
  Ir  Ir0  1  0.50000000  0.50000000  0.49999900  1
  Ir  Ir1  1  0.00000000  0.00000000  0.00000000  1
  O  O0  1  0.76628351  0.59603475  0.47590307  1
  O  O1  1  0.59600906  0.47584875  0.76628563  1
  O  O2  1  0.47584895  0.76626388  0.59604992  1
  O  O3  1  0.02410436  0.90395237  0.73372336  1
  O  O4  1  0.90396724  0.73373381  0.02416361  1
  O  O5  1  0.73370927  0.02412684  0.90398838  1
  O  O6  1  0.23371749  0.40396625  0.52409693  1
  O  O7  1  0.40398994  0.52415025  0.23371537  1
  O  O8  1  0.52415005  0.23373512  0.40395008  1
  O  O9  1  0.97589564  0.09604763  0.26627564  1
  O  O10  1  0.26629073  0.97587316  0.09601162  1
  O  O11  1  0.09603376  0.26626719  0.97583539  1
loop_
_geom_bond_atom_site_label_1
_geom_bond_atom_site_label_2
_geom_bond_distance
_geom_bond_site_symmetry_2
K0 O1 2.713373 1_554
K0 O4 2.713626 1_555
K0 O5 2.806543 1_554
K0 O0 2.806968 1_555
K0 O7 2.864531 1_555
K0 O11 2.864740 1_654
K0 O8 2.926348 1_555
K0 O9 2.926537 1_555
K1 O10 2.713409 1_555
K1 O8 2.713459 1_565
K1 O7 2.806497 1_555
K1 O9 2.806914 1_565
K1 O5 2.864530 1_564
K1 O2 2.864685 1_555
K1 O4 2.926576 1_555
K1 O0 2.926674 1_555
K2 O3 2.713459 1_555
K2 O0 2.713503 1_455
K2 O4 2.806410 1_455
K2 O2 2.806589 1_555
K2 O9 2.864549 1_465
K2 O6 2.864592 1_555
K2 O10 2.926767 1_555
K2 O7 2.926806 1_555
K3 O7 2.713388 1_556
K3 O11 2.713615 1_555
K3 O10 2.806545 1_556
K3 O6 2.806960 1_555
K3 O1 2.864529 1_555
K3 O4 2.864730 1_456
K3 O2 2.926339 1_555
K3 O3 2.926533 1_555
K4 O9 2.713474 1_555
K4 O6 2.713511 1_655
K4 O11 2.806401 1_655
K4 O8 2.806597 1_555
K4 O3 2.864551 1_645
K4 O0 2.864592 1_555
K4 O5 2.926766 1_555
K4 O1 2.926803 1_555
K5 O5 2.713416 1_555
K5 O2 2.713465 1_545
K5 O1 2.806490 1_555
K5 O3 2.806907 1_545
K5 O10 2.864528 1_546
K5 O8 2.864682 1_555
K5 O11 2.926563 1_555
K5 O6 2.926674 1_555
Ir0 O7 1.954370 1_555
Ir0 O6 1.954373 1_555
Ir0 O0 1.954378 1_555
Ir0 O1 1.954389 1_555
Ir0 O2 1.954397 1_555
Ir0 O8 1.954399 1_555
Ir1 O9 1.954365 1_455
Ir1 O3 1.954372 1_544
Ir1 O4 1.954385 1_445
Ir1 O11 1.954394 1_554
Ir1 O10 1.954395 1_545
Ir1 O5 1.954395 1_454
O0 Sc0 2.134719 1_555
O1 Sc0 2.134820 1_555
O2 Sc0 2.134764 1_555
O3 Sc0 2.134688 1_455
O4 Sc0 2.134706 1_554
O5 Sc0 2.134780 1_545
O6 Sc1 2.134725 1_555
O7 Sc1 2.134812 1_555
O8 Sc1 2.134752 1_555
O9 Sc1 2.134690 1_655
O10 Sc1 2.134773 1_565
O11 Sc1 2.134714 1_556
