# generated using pymatgen
data_KZrScSe4
_symmetry_space_group_name_H-M   'P 1'
_cell_length_a   3.90566269
_cell_length_b   8.30478828
_cell_length_c   6.67027435
_cell_angle_alpha   73.95645289
_cell_angle_beta   90.00000000
_cell_angle_gamma   90.00000000
_symmetry_Int_Tables_number   1
_chemical_formula_structural   KZrScSe4
_chemical_formula_sum   'K1 Zr1 Sc1 Se4'
_cell_volume   207.92841663
_cell_formula_units_Z   1
loop_
 _symmetry_equiv_pos_site_id
 _symmetry_equiv_pos_as_xyz
  1  'x, y, z'
loop_
 _atom_site_type_symbol
 _atom_site_label
 _atom_site_symmetry_multiplicity
 _atom_site_fract_x
 _atom_site_fract_y
 _atom_site_fract_z
 _atom_site_occupancy
  K  K0  1  0.50000000  0.49677640  0.65414219  1
  Zr  Zr0  1  0.00000000  0.99641032  0.00326659  1
  Sc  Sc0  1  0.50000000  0.00489675  0.50118313  1
  Se  Se0  1  0.00000000  0.81116971  0.40217641  1
  Se  Se1  1  0.50000000  0.80677092  0.90237193  1
  Se  Se2  1  0.00000000  0.19286506  0.60481331  1
  Se  Se3  1  0.50000000  0.19023083  0.09900745  1
loop_
_geom_bond_atom_site_label_1
_geom_bond_atom_site_label_2
_geom_bond_distance
_geom_bond_site_symmetry_2
K0 Se2 3.278873 1_555
K0 Se2 3.278873 1_655
K0 Se0 3.321127 1_555
K0 Se0 3.321127 1_655
K0 Se3 3.333292 1_556
K0 Se1 3.424237 1_555
Sc0 Se3 2.698748 1_555
Sc0 Se2 2.706406 1_555
Sc0 Se2 2.706406 1_655
Sc0 Se0 2.724958 1_545
Sc0 Se0 2.724958 1_645
Sc0 Se1 2.726671 1_545
Se0 Zr0 2.680321 1_555
Se1 Zr0 2.707892 1_556
Se1 Zr0 2.707892 1_656
Se2 Zr0 2.707197 1_546
Se3 Zr0 2.716707 1_545
Se3 Zr0 2.716707 1_645
