# generated using pymatgen
data_Er5Sn3
_symmetry_space_group_name_H-M   'P 1'
_cell_length_a   8.83443067
_cell_length_b   8.83442890
_cell_length_c   6.47268765
_cell_angle_alpha   90.00000000
_cell_angle_beta   90.00000000
_cell_angle_gamma   119.99999896
_symmetry_Int_Tables_number   1
_chemical_formula_structural   Er5Sn3
_chemical_formula_sum   'Er10 Sn6'
_cell_volume   437.49423333
_cell_formula_units_Z   2
loop_
 _symmetry_equiv_pos_site_id
 _symmetry_equiv_pos_as_xyz
  1  'x, y, z'
loop_
 _atom_site_type_symbol
 _atom_site_label
 _atom_site_symmetry_multiplicity
 _atom_site_fract_x
 _atom_site_fract_y
 _atom_site_fract_z
 _atom_site_occupancy
  Er  Er0  1  -0.00000000  0.76184421  0.75000000  1
  Er  Er1  1  0.00000000  0.23815579  0.25000000  1
  Er  Er2  1  0.76184421  0.76184421  0.25000000  1
  Er  Er3  1  0.76184421  0.00000000  0.75000000  1
  Er  Er4  1  0.23815579  0.23815579  0.75000000  1
  Er  Er5  1  0.23815579  -0.00000000  0.25000000  1
  Er  Er6  1  0.33333300  0.66666700  0.50000000  1
  Er  Er7  1  0.66666700  0.33333300  -0.00000000  1
  Er  Er8  1  0.66666700  0.33333300  0.50000000  1
  Er  Er9  1  0.33333300  0.66666700  -0.00000000  1
  Sn  Sn0  1  0.39458024  -0.00000000  0.75000000  1
  Sn  Sn1  1  0.39458024  0.39458024  0.25000000  1
  Sn  Sn2  1  -0.00000000  0.60541976  0.25000000  1
  Sn  Sn3  1  0.00000000  0.39458024  0.75000000  1
  Sn  Sn4  1  0.60541976  0.60541976  0.75000000  1
  Sn  Sn5  1  0.60541976  0.00000000  0.25000000  1
loop_
_geom_bond_atom_site_label_1
_geom_bond_atom_site_label_2
_geom_bond_distance
_geom_bond_site_symmetry_2
Er0 Sn0 3.040382 1_565
Er0 Sn4 3.040382 1_455
Er0 Sn3 3.244567 1_555
Er0 Sn2 3.519038 1_555
Er0 Sn2 3.519038 1_556
Er0 Er4 3.644184 1_565
Er0 Er3 3.644184 1_465
Er0 Er9 3.804402 1_556
Er0 Er6 3.804402 1_555
Er0 Er7 3.804407 1_456
Er0 Er8 3.804407 1_455
Er0 Er5 3.860131 1_565
Er0 Er5 3.860131 1_566
Er0 Er2 3.860131 1_456
Er0 Er2 3.860131 1_455
Er1 Sn5 3.040382 1_455
Er1 Sn1 3.040382 1_555
Er1 Sn2 3.244567 1_555
Er1 Sn3 3.519038 1_555
Er1 Sn3 3.519038 1_554
Er1 Er2 3.644184 1_445
Er1 Er5 3.644184 1_555
Er1 Er8 3.804402 1_455
Er1 Er7 3.804402 1_455
Er1 Er9 3.804407 1_555
Er1 Er6 3.804407 1_555
Er1 Er3 3.860131 1_454
Er1 Er3 3.860131 1_455
Er1 Er4 3.860131 1_555
Er1 Er4 3.860131 1_554
Er2 Sn5 3.040381 1_565
Er2 Sn2 3.040381 1_655
Er2 Sn1 3.244568 1_555
Er2 Sn4 3.519038 1_554
Er2 Sn4 3.519038 1_555
Er2 Er5 3.644184 1_665
Er2 Er8 3.804410 1_555
Er2 Er7 3.804410 1_555
Er2 Er6 3.804410 1_555
Er2 Er9 3.804410 1_555
Er2 Er3 3.860131 1_565
Er2 Er3 3.860131 1_564
Er3 Sn4 3.040381 1_545
Er3 Sn3 3.040381 1_655
Er3 Sn0 3.244568 1_555
Er3 Sn5 3.519038 1_555
Er3 Sn5 3.519038 1_556
Er3 Er4 3.644184 1_655
Er3 Er8 3.804402 1_555
Er3 Er7 3.804402 1_556
Er3 Er6 3.804408 1_545
Er3 Er9 3.804408 1_546
Er4 Sn0 3.040381 1_555
Er4 Sn3 3.040381 1_555
Er4 Sn4 3.244568 1_555
Er4 Sn1 3.519038 1_555
Er4 Sn1 3.519038 1_556
Er4 Er9 3.804410 1_556
Er4 Er6 3.804410 1_555
Er4 Er8 3.804410 1_555
Er4 Er7 3.804410 1_556
Er4 Er5 3.860131 1_555
Er4 Er5 3.860131 1_556
Er5 Sn1 3.040381 1_555
Er5 Sn2 3.040381 1_545
Er5 Sn5 3.244568 1_555
Er5 Sn0 3.519038 1_554
Er5 Sn0 3.519038 1_555
Er5 Er9 3.804402 1_545
Er5 Er6 3.804402 1_545
Er5 Er7 3.804408 1_555
Er5 Er8 3.804408 1_555
Er6 Sn0 3.160657 1_565
Er6 Sn2 3.160657 1_555
Er6 Sn5 3.160659 1_565
Er6 Sn3 3.160660 1_555
Er6 Sn1 3.160664 1_555
Er6 Sn4 3.160664 1_555
Er6 Er9 3.236344 1_556
Er6 Er9 3.236344 1_555
Er7 Sn5 3.160657 1_555
Er7 Sn3 3.160657 1_654
Er7 Sn0 3.160659 1_554
Er7 Sn2 3.160660 1_655
Er7 Sn4 3.160664 1_554
Er7 Sn1 3.160664 1_555
Er7 Er8 3.236344 1_555
Er7 Er8 3.236344 1_554
Er8 Sn5 3.160657 1_555
Er8 Sn3 3.160657 1_655
Er8 Sn0 3.160659 1_555
Er8 Sn2 3.160660 1_655
Er8 Sn4 3.160664 1_555
Er8 Sn1 3.160664 1_555
Er9 Sn0 3.160657 1_564
Er9 Sn2 3.160657 1_555
Er9 Sn5 3.160659 1_565
Er9 Sn3 3.160660 1_554
Er9 Sn1 3.160664 1_555
Er9 Sn4 3.160664 1_554
