# generated using pymatgen
data_LiScSnIr
_symmetry_space_group_name_H-M   'P 1'
_cell_length_a   4.56732559
_cell_length_b   4.56732527
_cell_length_c   4.56732568
_cell_angle_alpha   59.99999705
_cell_angle_beta   59.99999936
_cell_angle_gamma   59.99999315
_symmetry_Int_Tables_number   1
_chemical_formula_structural   LiScSnIr
_chemical_formula_sum   'Li1 Sc1 Sn1 Ir1'
_cell_volume   67.37066956
_cell_formula_units_Z   1
loop_
 _symmetry_equiv_pos_site_id
 _symmetry_equiv_pos_as_xyz
  1  'x, y, z'
loop_
 _atom_site_type_symbol
 _atom_site_label
 _atom_site_symmetry_multiplicity
 _atom_site_fract_x
 _atom_site_fract_y
 _atom_site_fract_z
 _atom_site_occupancy
  Li  Li0  1  0.00000000  0.00000000  0.00000000  1
  Sc  Sc0  1  0.75000000  0.75000000  0.75000000  1
  Sn  Sn0  1  0.25000000  0.25000000  0.25000000  1
  Ir  Ir0  1  0.50000000  0.50000000  0.50000000  1
loop_
_geom_bond_atom_site_label_1
_geom_bond_atom_site_label_2
_geom_bond_distance
_geom_bond_site_symmetry_2
Li0 Sn0 2.796904 1_545
Li0 Sc0 2.796904 1_454
Li0 Sc0 2.796904 1_544
Li0 Sn0 2.796904 1_455
Li0 Sn0 2.796904 1_555
Li0 Sc0 2.796904 1_444
Li0 Sc0 2.796904 1_445
Li0 Sn0 2.796904 1_554
Ir0 Sc0 2.796904 1_545
Ir0 Sn0 2.796904 1_565
Ir0 Sc0 2.796904 1_455
Ir0 Sn0 2.796904 1_655
Ir0 Sn0 2.796904 1_555
Ir0 Sc0 2.796904 1_555
Ir0 Sn0 2.796904 1_556
Ir0 Sc0 2.796904 1_554
Ir0 Li0 3.229587 1_656
Ir0 Li0 3.229587 1_655
Ir0 Li0 3.229587 1_566
Ir0 Li0 3.229587 1_565
Ir0 Li0 3.229587 1_665
Ir0 Li0 3.229587 1_556
