# generated using pymatgen
data_Sr4CrAgH12
_symmetry_space_group_name_H-M   'P 1'
_cell_length_a   7.59854845
_cell_length_b   7.59854808
_cell_length_c   5.62231857
_cell_angle_alpha   90.00153741
_cell_angle_beta   90.00153212
_cell_angle_gamma   136.59686600
_symmetry_Int_Tables_number   1
_chemical_formula_structural   Sr4CrAgH12
_chemical_formula_sum   'Sr4 Cr1 Ag1 H12'
_cell_volume   223.05598225
_cell_formula_units_Z   1
loop_
 _symmetry_equiv_pos_site_id
 _symmetry_equiv_pos_as_xyz
  1  'x, y, z'
loop_
 _atom_site_type_symbol
 _atom_site_label
 _atom_site_symmetry_multiplicity
 _atom_site_fract_x
 _atom_site_fract_y
 _atom_site_fract_z
 _atom_site_occupancy
  Sr  Sr0  1  0.15027595  0.84972405  0.50000000  1
  Sr  Sr1  1  0.65082666  0.34917334  0.00000000  1
  Sr  Sr2  1  0.84972405  0.15027595  0.50000000  1
  Sr  Sr3  1  0.34917334  0.65082666  1.00000000  1
  Cr  Cr0  1  0.50000000  0.50000000  0.50000000  1
  Ag  Ag0  1  0.00000000  0.00000000  0.00000000  1
  H  H0  1  0.99996293  0.49998129  0.74949940  1
  H  H1  1  0.50001871  0.00003707  0.25050060  1
  H  H2  1  0.00003707  0.50001871  0.25050060  1
  H  H3  1  0.49998129  0.99996293  0.74949940  1
  H  H4  1  0.37827685  0.62172315  0.50000000  1
  H  H5  1  0.87622292  0.12377708  1.00000000  1
  H  H6  1  0.62172315  0.37827685  0.50000000  1
  H  H7  1  0.12377708  0.87622292  0.00000000  1
  H  H8  1  0.28116047  0.28116047  0.71949309  1
  H  H9  1  0.71883953  0.71883953  0.28050691  1
  H  H10  1  0.28020234  0.28020234  0.28144236  1
  H  H11  1  0.71979766  0.71979766  0.71855764  1
loop_
_geom_bond_atom_site_label_1
_geom_bond_atom_site_label_2
_geom_bond_distance
_geom_bond_site_symmetry_2
Cr0 H6 1.718726 1_555
Cr0 H4 1.718726 1_555
Cr0 H11 1.742215 1_555
Cr0 H10 1.742215 1_555
Cr0 H8 1.742250 1_555
Cr0 H9 1.742250 1_555
Ag0 H7 1.747728 1_545
Ag0 H5 1.747728 1_454
Ag0 H10 2.232223 1_555
Ag0 H11 2.232223 1_444
Ag0 H8 2.232468 1_554
Ag0 H9 2.232468 1_445
H0 Sr1 2.432614 1_556
H0 Sr3 2.432827 1_655
H0 Sr2 2.433882 1_555
H0 Sr0 2.434030 1_655
H1 Sr1 2.432614 1_555
H1 Sr3 2.432827 1_544
H1 Sr2 2.433882 1_555
H1 Sr0 2.434030 1_545
H2 Sr3 2.432614 1_554
H2 Sr1 2.432827 1_455
H2 Sr0 2.433882 1_555
H2 Sr2 2.434030 1_455
H3 Sr3 2.432614 1_555
H3 Sr1 2.432827 1_566
H3 Sr0 2.433882 1_555
H3 Sr2 2.434030 1_565
H4 Sr2 2.838509 1_565
H4 Sr2 2.838509 1_455
H4 Sr3 2.841037 1_555
H4 Sr3 2.841037 1_554
H5 Sr3 2.835572 1_655
H5 Sr3 2.835572 1_545
H5 Sr2 2.835950 1_556
H5 Sr2 2.835950 1_555
H6 Sr0 2.838509 1_545
H6 Sr0 2.838509 1_655
H6 Sr1 2.841037 1_555
H6 Sr1 2.841037 1_556
H7 Sr1 2.835572 1_455
H7 Sr1 2.835572 1_565
H7 Sr0 2.835950 1_554
H7 Sr0 2.835950 1_555
H8 Sr0 2.919135 1_545
H8 Sr2 2.919136 1_455
H8 Sr3 2.921430 1_555
H8 Sr1 2.921430 1_556
H9 Sr2 2.919135 1_565
H9 Sr0 2.919136 1_655
H9 Sr1 2.921430 1_555
H9 Sr3 2.921430 1_554
H10 Sr0 2.914100 1_545
H10 Sr2 2.914100 1_455
H10 Sr3 2.926637 1_554
H10 Sr1 2.926637 1_555
H11 Sr2 2.914100 1_565
H11 Sr0 2.914100 1_655
H11 Sr1 2.926637 1_556
H11 Sr3 2.926637 1_555
