# generated using pymatgen
data_Cs4ScMoCl12
_symmetry_space_group_name_H-M   'P 1'
_cell_length_a   7.45059392
_cell_length_b   7.44317730
_cell_length_c   10.09927030
_cell_angle_alpha   90.00000000
_cell_angle_beta   90.00000000
_cell_angle_gamma   90.00782785
_symmetry_Int_Tables_number   1
_chemical_formula_structural   Cs4ScMoCl12
_chemical_formula_sum   'Cs4 Sc1 Mo1 Cl12'
_cell_volume   560.06605335
_cell_formula_units_Z   1
loop_
 _symmetry_equiv_pos_site_id
 _symmetry_equiv_pos_as_xyz
  1  'x, y, z'
loop_
 _atom_site_type_symbol
 _atom_site_label
 _atom_site_symmetry_multiplicity
 _atom_site_fract_x
 _atom_site_fract_y
 _atom_site_fract_z
 _atom_site_occupancy
  Cs  Cs0  1  0.50000000  0.00000000  0.76700438  1
  Cs  Cs1  1  0.00000000  0.50000000  0.23302046  1
  Cs  Cs2  1  0.50000000  0.00000000  0.23299562  1
  Cs  Cs3  1  0.00000000  0.50000000  0.76697954  1
  Sc  Sc0  1  0.00000000  0.00000000  0.00000000  1
  Mo  Mo0  1  0.50000000  0.50000000  0.50000000  1
  Cl  Cl0  1  0.00000000  0.00000000  0.75224498  1
  Cl  Cl1  1  0.50000000  0.50000000  0.27057397  1
  Cl  Cl2  1  0.72371310  0.72334978  0.50000000  1
  Cl  Cl3  1  0.23831297  0.23822938  0.00000000  1
  Cl  Cl4  1  0.72366566  0.27658555  0.50000000  1
  Cl  Cl5  1  0.23792613  0.76209711  0.00000000  1
  Cl  Cl6  1  0.00000000  0.00000000  0.24775502  1
  Cl  Cl7  1  0.50000000  0.50000000  0.72942603  1
  Cl  Cl8  1  0.27628690  0.27665022  0.50000000  1
  Cl  Cl9  1  0.76168703  0.76177062  0.00000000  1
  Cl  Cl10  1  0.27633434  0.72341445  0.50000000  1
  Cl  Cl11  1  0.76207387  0.23790289  0.00000000  1
loop_
_geom_bond_atom_site_label_1
_geom_bond_atom_site_label_2
_geom_bond_distance
_geom_bond_site_symmetry_2
Cl0 Sc0 2.502145 1_556
Cl0 Cs3 3.724563 1_545
Cl0 Cs3 3.724563 1_555
Cl0 Cs0 3.728278 1_455
Cl0 Cs0 3.728278 1_555
Cl1 Mo0 2.317036 1_555
Cl1 Cs2 3.740889 1_565
Cl1 Cs2 3.740889 1_555
Cl1 Cs1 3.744553 1_655
Cl1 Cs1 3.744553 1_555
Cl2 Mo0 2.353961 1_555
Cl2 Cs3 3.777839 1_655
Cl2 Cs1 3.777839 1_655
Cl2 Cs2 3.780298 1_565
Cl2 Cs0 3.780298 1_565
Cl3 Sc0 2.509179 1_555
Cl3 Cs0 3.533208 1_554
Cl3 Cs2 3.533208 1_555
Cl3 Cs1 3.533848 1_555
Cl3 Cs3 3.533848 1_554
Cl4 Mo0 2.354372 1_555
Cl4 Cs3 3.777996 1_655
Cl4 Cs1 3.777996 1_655
Cl4 Cs2 3.779631 1_555
Cl4 Cs0 3.779631 1_555
Cl5 Sc0 2.505765 1_565
Cl5 Cs0 3.533314 1_564
Cl5 Cs2 3.533314 1_565
Cl5 Cs1 3.533474 1_555
Cl5 Cs3 3.533474 1_554
Cl6 Sc0 2.502145 1_555
Cl6 Cs1 3.724563 1_555
Cl6 Cs1 3.724563 1_545
Cl6 Cs2 3.728278 1_555
Cl6 Cs2 3.728278 1_455
Cl7 Mo0 2.317036 1_555
Cl7 Cs0 3.740889 1_565
Cl7 Cs0 3.740889 1_555
Cl7 Cs3 3.744553 1_655
Cl7 Cs3 3.744553 1_555
Cl8 Mo0 2.353961 1_555
Cl8 Cs3 3.777839 1_555
Cl8 Cs1 3.777839 1_555
Cl8 Cs2 3.780298 1_555
Cl8 Cs0 3.780298 1_555
Cl9 Sc0 2.509179 1_665
Cl9 Cs0 3.533208 1_564
Cl9 Cs2 3.533208 1_565
Cl9 Cs1 3.533848 1_655
Cl9 Cs3 3.533848 1_654
Cl10 Mo0 2.354372 1_555
Cl10 Cs3 3.777996 1_555
Cl10 Cs1 3.777996 1_555
Cl10 Cs2 3.779631 1_565
Cl10 Cs0 3.779631 1_565
Cl11 Sc0 2.505765 1_655
Cl11 Cs0 3.533314 1_554
Cl11 Cs2 3.533314 1_555
Cl11 Cs1 3.533474 1_655
Cl11 Cs3 3.533474 1_654
