# generated using pymatgen
data_CoP2O7
_symmetry_space_group_name_H-M   'P 1'
_cell_length_a   6.42645542
_cell_length_b   6.33697798
_cell_length_c   13.32592926
_cell_angle_alpha   78.43094764
_cell_angle_beta   77.46073467
_cell_angle_gamma   99.13821926
_symmetry_Int_Tables_number   1
_chemical_formula_structural   CoP2O7
_chemical_formula_sum   'Co4 P8 O28'
_cell_volume   507.23047568
_cell_formula_units_Z   4
loop_
 _symmetry_equiv_pos_site_id
 _symmetry_equiv_pos_as_xyz
  1  'x, y, z'
loop_
 _atom_site_type_symbol
 _atom_site_label
 _atom_site_symmetry_multiplicity
 _atom_site_fract_x
 _atom_site_fract_y
 _atom_site_fract_z
 _atom_site_occupancy
  Co  Co0  1  0.73685900  0.87482300  0.85085400  1
  Co  Co1  1  0.77293400  0.40807300  0.35403500  1
  Co  Co2  1  0.22706500  0.59192600  0.64596500  1
  Co  Co3  1  0.26314100  0.12517600  0.14914600  1
  P  P0  1  0.22154200  0.74258200  0.86537400  1
  P  P1  1  0.77845800  0.25741700  0.13462600  1
  P  P2  1  0.89347700  0.91387400  0.36350400  1
  P  P3  1  0.76310500  0.58729400  0.56812100  1
  P  P4  1  0.34608900  0.66957800  0.06664000  1
  P  P5  1  0.23689500  0.41270700  0.43187800  1
  P  P6  1  0.10652300  0.08612500  0.63649600  1
  P  P7  1  0.65391100  0.33042200  0.93336100  1
  O  O0  1  0.78572600  0.39158000  0.01769900  1
  O  O1  1  0.76355100  0.17497000  0.87877500  1
  O  O2  1  0.90443800  0.52914400  0.64388900  1
  O  O3  1  0.87011800  0.98593100  0.70205100  1
  O  O4  1  0.23644800  0.82503100  0.12122400  1
  O  O5  1  0.09556200  0.47085500  0.35611200  1
  O  O6  1  0.12988300  0.01407000  0.29794900  1
  O  O7  1  0.03257000  0.86077500  0.87504000  1
  O  O8  1  0.09148700  0.19332000  0.51900600  1
  O  O9  1  0.33073200  0.45142000  0.14408500  1
  O  O10  1  0.23603900  0.90431300  0.62624100  1
  O  O11  1  0.28302300  0.59430300  0.49025200  1
  O  O12  1  0.18699300  0.56780000  0.80168400  1
  O  O13  1  0.58430300  0.77513200  0.00410500  1
  O  O14  1  0.21822300  0.27446700  0.67545400  1
  O  O15  1  0.21427500  0.60841900  0.98230200  1
  O  O16  1  0.44644200  0.35698300  0.37696300  1
  O  O17  1  0.90851200  0.80668100  0.48099300  1
  O  O18  1  0.44589800  0.89664900  0.82027900  1
  O  O19  1  0.55355800  0.64301800  0.62303700  1
  O  O20  1  0.96743000  0.13922400  0.12496100  1
  O  O21  1  0.78177500  0.72553200  0.32454600  1
  O  O22  1  0.41569600  0.22486700  0.99589600  1
  O  O23  1  0.81300800  0.43219900  0.19831500  1
  O  O24  1  0.71697800  0.40569800  0.50974700  1
  O  O25  1  0.76396200  0.09568600  0.37375900  1
  O  O26  1  0.66926800  0.54858100  0.85591500  1
  O  O27  1  0.55410200  0.10335200  0.17972100  1
loop_
_geom_bond_atom_site_label_1
_geom_bond_atom_site_label_2
_geom_bond_distance
_geom_bond_site_symmetry_2
Co0 O3 1.916321 1_555
Co0 O13 1.986786 1_556
Co0 O1 1.998373 1_565
Co0 O7 2.007836 1_655
Co0 O18 2.017875 1_555
Co0 O26 2.028161 1_555
Co1 O25 1.933818 1_555
Co1 O21 1.960007 1_555
Co1 O23 2.005988 1_555
Co1 O16 2.016618 1_555
Co1 O24 2.024092 1_555
Co1 O5 2.055523 1_655
Co2 O10 1.933816 1_555
Co2 O14 1.960006 1_555
Co2 O12 2.005976 1_555
Co2 O19 2.016623 1_555
Co2 O11 2.024101 1_555
Co2 O2 2.055513 1_455
Co3 O6 1.916319 1_555
Co3 O22 1.986773 1_554
Co3 O4 1.998366 1_545
Co3 O20 2.007831 1_455
Co3 O27 2.017873 1_555
Co3 O9 2.028173 1_555
O0 P1 1.605399 1_555
O0 P7 1.617008 1_554
O1 P7 1.510406 1_555
O2 P3 1.528226 1_555
O3 P6 1.539231 1_665
O4 P4 1.510401 1_555
O5 P5 1.528204 1_555
O6 P2 1.539238 1_445
O7 P0 1.520551 1_555
O8 P6 1.606871 1_555
O8 P5 1.619530 1_555
O9 P4 1.525188 1_555
O10 P6 1.535327 1_565
O11 P5 1.538857 1_555
O12 P0 1.541802 1_555
O13 P4 1.543587 1_555
O14 P6 1.532157 1_555
O15 P0 1.605412 1_555
O15 P4 1.617006 1_556
O16 P5 1.516725 1_555
O17 P2 1.606853 1_555
O17 P3 1.619528 1_555
O18 P0 1.527900 1_555
O19 P3 1.516729 1_555
O20 P1 1.520551 1_555
O21 P2 1.532163 1_555
O22 P7 1.543593 1_555
O23 P1 1.541793 1_555
O24 P3 1.538856 1_555
O25 P2 1.535323 1_545
O26 P7 1.525199 1_555
O27 P1 1.527895 1_555
