# generated using pymatgen
data_LiAl2Pt
_symmetry_space_group_name_H-M   'P 1'
_cell_length_a   4.26885039
_cell_length_b   4.26885022
_cell_length_c   4.26885100
_cell_angle_alpha   60.00000171
_cell_angle_beta   60.00000305
_cell_angle_gamma   60.00001412
_symmetry_Int_Tables_number   1
_chemical_formula_structural   LiAl2Pt
_chemical_formula_sum   'Li1 Al2 Pt1'
_cell_volume   55.00699402
_cell_formula_units_Z   1
loop_
 _symmetry_equiv_pos_site_id
 _symmetry_equiv_pos_as_xyz
  1  'x, y, z'
loop_
 _atom_site_type_symbol
 _atom_site_label
 _atom_site_symmetry_multiplicity
 _atom_site_fract_x
 _atom_site_fract_y
 _atom_site_fract_z
 _atom_site_occupancy
  Li  Li0  1  0.00000000  0.00000000  0.00000000  1
  Al  Al0  1  0.25000000  0.25000000  0.25000000  1
  Al  Al1  1  0.75000000  0.75000000  0.75000000  1
  Pt  Pt0  1  0.50000000  0.50000000  0.50000000  1
loop_
_geom_bond_atom_site_label_1
_geom_bond_atom_site_label_2
_geom_bond_distance
_geom_bond_site_symmetry_2
Al0 Li0 2.614126 1_555
Al0 Pt0 2.614126 1_555
Al0 Li0 2.614127 1_565
Al0 Pt0 2.614127 1_545
Al0 Li0 2.614127 1_655
Al0 Pt0 2.614127 1_455
Al0 Pt0 2.614127 1_554
Al0 Li0 2.614127 1_556
Al1 Li0 2.614126 1_666
Al1 Pt0 2.614126 1_555
Al1 Li0 2.614127 1_656
Al1 Pt0 2.614127 1_565
Al1 Pt0 2.614127 1_655
Al1 Li0 2.614127 1_566
Al1 Li0 2.614127 1_665
Al1 Pt0 2.614127 1_556
