# generated using pymatgen
data_Y2B(PdPt2)2
_symmetry_space_group_name_H-M   'P 1'
_cell_length_a   5.90973822
_cell_length_b   5.90947332
_cell_length_c   6.10834264
_cell_angle_alpha   58.87278999
_cell_angle_beta   58.87440826
_cell_angle_gamma   58.89328565
_symmetry_Int_Tables_number   1
_chemical_formula_structural   Y2B(PdPt2)2
_chemical_formula_sum   'Y2 B1 Pd2 Pt4'
_cell_volume   146.98724822
_cell_formula_units_Z   1
loop_
 _symmetry_equiv_pos_site_id
 _symmetry_equiv_pos_as_xyz
  1  'x, y, z'
loop_
 _atom_site_type_symbol
 _atom_site_label
 _atom_site_symmetry_multiplicity
 _atom_site_fract_x
 _atom_site_fract_y
 _atom_site_fract_z
 _atom_site_occupancy
  Y  Y0  1  0.25516760  0.25517342  0.24289242  1
  Y  Y1  1  0.74483119  0.74483327  0.75322473  1
  B  B0  1  0.99999707  0.99999311  0.00784291  1
  Pd  Pd0  1  0.74869635  0.25129107  0.73791028  1
  Pd  Pd1  1  0.25129284  0.74870409  0.73790627  1
  Pt  Pt0  1  0.74534622  0.25465454  0.26399161  1
  Pt  Pt1  1  0.25465854  0.74535195  0.26398750  1
  Pt  Pt2  1  0.74560705  0.74560863  0.25050683  1
  Pt  Pt3  1  0.25440513  0.25439192  0.74173746  1
loop_
_geom_bond_atom_site_label_1
_geom_bond_atom_site_label_2
_geom_bond_distance
_geom_bond_site_symmetry_2
B0 Pt2 2.108254 1_555
B0 Pt3 2.108361 1_664
B0 Pt1 2.153502 1_655
B0 Pt0 2.153520 1_565
B0 Pd1 2.202424 1_654
B0 Pd0 2.202451 1_564
Pd0 Y0 2.953817 1_556
Pd0 Y1 2.954101 1_555
Pd0 Y0 2.957177 1_655
Pd0 Y1 2.957311 1_545
Pd1 Y0 2.953701 1_556
Pd1 Y1 2.954203 1_555
Pd1 Y0 2.957021 1_565
Pd1 Y1 2.957474 1_455
Pt0 Y1 2.949412 1_545
Pt0 Y0 2.949906 1_655
Pt0 Y1 2.963425 1_554
Pt0 Y0 2.963886 1_555
Pt1 Y1 2.949583 1_455
Pt1 Y0 2.949751 1_565
Pt1 Y1 2.963526 1_554
Pt1 Y0 2.963775 1_555
Pt2 Y0 2.906335 1_655
Pt2 Y0 2.906349 1_565
Pt2 Y1 3.042315 1_554
Pt2 Y1 3.066041 1_555
Pt3 Y1 2.906292 1_545
Pt3 Y1 2.906392 1_455
Pt3 Y0 3.042407 1_555
Pt3 Y0 3.065949 1_556
