# generated using pymatgen
data_Mg2Hg(P3Pd10)2
_symmetry_space_group_name_H-M   'P 1'
_cell_length_a   8.52829881
_cell_length_b   8.52829852
_cell_length_c   8.52829788
_cell_angle_alpha   60.00000249
_cell_angle_beta   60.00000361
_cell_angle_gamma   59.99999473
_symmetry_Int_Tables_number   1
_chemical_formula_structural   Mg2Hg(P3Pd10)2
_chemical_formula_sum   'Mg2 Hg1 P6 Pd20'
_cell_volume   438.60357652
_cell_formula_units_Z   1
loop_
 _symmetry_equiv_pos_site_id
 _symmetry_equiv_pos_as_xyz
  1  'x, y, z'
loop_
 _atom_site_type_symbol
 _atom_site_label
 _atom_site_symmetry_multiplicity
 _atom_site_fract_x
 _atom_site_fract_y
 _atom_site_fract_z
 _atom_site_occupancy
  Mg  Mg0  1  0.25000000  0.25000000  0.25000000  1
  Mg  Mg1  1  0.00000000  0.00000000  0.00000000  1
  Hg  Hg0  1  0.75000000  0.75000000  0.75000000  1
  P  P0  1  0.73493602  0.26506398  0.26506398  1
  P  P1  1  0.26506398  0.73493602  0.73493602  1
  P  P2  1  0.26506398  0.73493602  0.26506398  1
  P  P3  1  0.73493602  0.26506398  0.73493602  1
  P  P4  1  0.26506398  0.26506398  0.73493602  1
  P  P5  1  0.73493602  0.73493602  0.26506398  1
  Pd  Pd0  1  0.38257308  0.38257308  0.38257308  1
  Pd  Pd1  1  0.61585288  0.61585288  0.61585288  1
  Pd  Pd2  1  0.38257308  0.38257308  0.85227877  1
  Pd  Pd3  1  0.38257308  0.85227877  0.38257308  1
  Pd  Pd4  1  0.61585288  0.61585288  0.15244137  1
  Pd  Pd5  1  0.61585288  0.15244137  0.61585288  1
  Pd  Pd6  1  0.85227877  0.38257308  0.38257308  1
  Pd  Pd7  1  0.15244137  0.61585288  0.61585288  1
  Pd  Pd8  1  0.34055640  0.00188619  0.00188619  1
  Pd  Pd9  1  0.65567022  0.00188619  0.00188619  1
  Pd  Pd10  1  0.00188619  0.34055640  0.65567022  1
  Pd  Pd11  1  0.00188619  0.65567022  0.34055640  1
  Pd  Pd12  1  0.00188619  0.34055640  0.00188619  1
  Pd  Pd13  1  0.65567022  0.00188619  0.34055640  1
  Pd  Pd14  1  0.00188619  0.65567022  0.00188619  1
  Pd  Pd15  1  0.34055640  0.00188619  0.65567022  1
  Pd  Pd16  1  0.00188619  0.00188619  0.34055640  1
  Pd  Pd17  1  0.00188619  0.00188619  0.65567022  1
  Pd  Pd18  1  0.65567022  0.34055640  0.00188619  1
  Pd  Pd19  1  0.34055640  0.65567022  0.00188619  1
loop_
_geom_bond_atom_site_label_1
_geom_bond_atom_site_label_2
_geom_bond_distance
_geom_bond_site_symmetry_2
Mg0 Pd0 2.769449 1_555
Mg0 Pd3 2.769463 1_545
Mg0 Pd2 2.769463 1_554
Mg0 Pd6 2.769463 1_455
Mg0 Pd15 3.280288 1_555
Mg0 Pd11 3.280288 1_555
Mg0 Pd10 3.280288 1_555
Mg0 Pd13 3.280288 1_555
Mg0 Pd19 3.280288 1_555
Mg0 Pd18 3.280288 1_555
Mg0 Pd14 3.280292 1_555
Mg0 Pd9 3.280292 1_555
Mg0 Pd17 3.280292 1_555
Mg0 Pd8 3.280295 1_555
Mg0 Pd12 3.280295 1_555
Mg0 Pd16 3.280295 1_555
Mg1 Pd16 2.920541 1_555
Mg1 Pd12 2.920541 1_555
Mg1 Pd8 2.920541 1_555
Mg1 Pd19 2.920545 1_545
Mg1 Pd18 2.920545 1_455
Mg1 Pd11 2.920546 1_545
Mg1 Pd10 2.920546 1_554
Mg1 Pd15 2.920546 1_554
Mg1 Pd13 2.920546 1_455
Mg1 Pd17 2.920550 1_554
Mg1 Pd14 2.920550 1_545
Mg1 Pd9 2.920550 1_455
Hg0 Pd5 2.802331 1_565
Hg0 Pd4 2.802331 1_556
Hg0 Pd1 2.802331 1_555
Hg0 Pd7 2.802331 1_655
Hg0 Pd9 3.321850 1_566
Hg0 Pd14 3.321850 1_656
Hg0 Pd17 3.321850 1_665
Hg0 Pd12 3.321853 1_656
Hg0 Pd8 3.321853 1_566
Hg0 Pd16 3.321853 1_665
Hg0 Pd13 3.321857 1_565
Hg0 Pd10 3.321857 1_655
Hg0 Pd11 3.321857 1_655
Hg0 Pd15 3.321857 1_565
Hg0 Pd18 3.321857 1_556
Hg0 Pd19 3.321857 1_556
P0 Pd16 2.355007 1_655
P0 Pd12 2.355007 1_655
P0 Pd18 2.355012 1_555
P0 Pd13 2.355013 1_555
P0 Pd4 2.442865 1_555
P0 Pd5 2.442865 1_555
P0 Pd6 2.453604 1_555
P0 Pd0 2.453618 1_555
P1 Pd19 2.355004 1_556
P1 Pd15 2.355004 1_565
P1 Pd17 2.355009 1_565
P1 Pd14 2.355010 1_556
P1 Pd7 2.442865 1_555
P1 Pd1 2.442865 1_555
P1 Pd2 2.453618 1_555
P1 Pd3 2.453618 1_555
P2 Pd16 2.355007 1_565
P2 Pd8 2.355007 1_565
P2 Pd19 2.355012 1_555
P2 Pd11 2.355013 1_555
P2 Pd7 2.442865 1_555
P2 Pd4 2.442865 1_555
P2 Pd3 2.453604 1_555
P2 Pd0 2.453618 1_555
P3 Pd18 2.355004 1_556
P3 Pd10 2.355004 1_655
P3 Pd17 2.355009 1_655
P3 Pd9 2.355010 1_556
P3 Pd1 2.442865 1_555
P3 Pd5 2.442865 1_555
P3 Pd6 2.453618 1_555
P3 Pd2 2.453618 1_555
P4 Pd8 2.355007 1_556
P4 Pd12 2.355007 1_556
P4 Pd15 2.355012 1_555
P4 Pd10 2.355012 1_555
P4 Pd7 2.442865 1_555
P4 Pd5 2.442865 1_555
P4 Pd2 2.453604 1_555
P4 Pd0 2.453618 1_555
P5 Pd13 2.355004 1_565
P5 Pd11 2.355004 1_655
P5 Pd9 2.355009 1_565
P5 Pd14 2.355009 1_655
P5 Pd4 2.442865 1_555
P5 Pd1 2.442865 1_555
P5 Pd6 2.453618 1_555
P5 Pd3 2.453618 1_555
Pd0 Pd13 2.976682 1_555
Pd0 Pd11 2.976682 1_555
Pd0 Pd19 2.976682 1_555
Pd0 Pd18 2.976682 1_555
Pd0 Pd15 2.976682 1_555
Pd0 Pd10 2.976682 1_555
Pd1 Pd15 3.009546 1_565
Pd1 Pd10 3.009546 1_655
Pd1 Pd18 3.009546 1_556
Pd1 Pd19 3.009546 1_556
Pd1 Pd13 3.009546 1_565
Pd1 Pd11 3.009546 1_655
Pd2 Pd8 2.976680 1_556
Pd2 Pd9 2.976684 1_556
Pd3 Pd8 2.976680 1_565
Pd3 Pd9 2.976684 1_565
Pd4 Pd9 3.009545 1_565
Pd4 Pd8 3.009548 1_565
Pd5 Pd9 3.009544 1_556
Pd5 Pd8 3.009549 1_556
Pd8 Pd9 2.687385 1_555
Pd10 Pd11 2.687385 1_555
Pd10 Pd15 2.888281 1_555
Pd10 Pd17 2.888281 1_555
Pd10 Pd12 2.952633 1_556
Pd10 Pd18 2.952633 1_456
Pd10 Pd6 2.976688 1_455
Pd10 Pd7 3.009553 1_555
Pd11 Pd14 2.888280 1_555
Pd11 Pd19 2.888281 1_555
Pd11 Pd13 2.952633 1_465
Pd11 Pd16 2.952633 1_565
Pd11 Pd6 2.976688 1_455
Pd11 Pd7 3.009552 1_555
Pd12 Pd14 2.687385 1_555
Pd12 Pd8 2.888281 1_555
Pd12 Pd16 2.888281 1_555
Pd12 Pd18 2.952633 1_455
Pd12 Pd6 2.976680 1_455
Pd12 Pd2 2.976681 1_554
Pd12 Pd4 3.009548 1_455
Pd12 Pd7 3.009549 1_554
Pd13 Pd15 2.687385 1_555
Pd13 Pd9 2.888280 1_555
Pd13 Pd18 2.888281 1_555
Pd13 Pd16 2.952633 1_655
Pd13 Pd3 2.976689 1_545
Pd13 Pd5 3.009552 1_555
Pd14 Pd19 2.888281 1_555
Pd14 Pd9 2.952633 1_465
Pd14 Pd17 2.952633 1_564
Pd14 Pd2 2.976684 1_554
Pd14 Pd6 2.976684 1_455
Pd14 Pd7 3.009544 1_554
Pd14 Pd4 3.009545 1_455
Pd15 Pd17 2.888281 1_555
Pd15 Pd8 2.952633 1_556
Pd15 Pd19 2.952633 1_546
Pd15 Pd3 2.976688 1_545
Pd15 Pd5 3.009553 1_555
Pd16 Pd17 2.687385 1_555
Pd16 Pd8 2.888281 1_555
Pd16 Pd6 2.976680 1_455
Pd16 Pd3 2.976680 1_545
Pd16 Pd7 3.009548 1_545
Pd16 Pd5 3.009548 1_455
Pd17 Pd9 2.952633 1_456
Pd17 Pd6 2.976684 1_455
Pd17 Pd3 2.976684 1_545
Pd17 Pd7 3.009544 1_545
Pd17 Pd5 3.009545 1_455
Pd18 Pd19 2.687385 1_555
Pd18 Pd9 2.888281 1_555
Pd18 Pd2 2.976688 1_554
Pd18 Pd4 3.009552 1_555
Pd19 Pd8 2.952633 1_565
Pd19 Pd2 2.976688 1_554
Pd19 Pd4 3.009553 1_555
