# generated using pymatgen
data_SrSb12(OsRu)2
_symmetry_space_group_name_H-M   'P 1'
_cell_length_a   8.11264123
_cell_length_b   8.11264160
_cell_length_c   8.11581680
_cell_angle_alpha   109.46673989
_cell_angle_beta   109.47654126
_cell_angle_gamma   109.45452826
_symmetry_Int_Tables_number   1
_chemical_formula_structural   SrSb12(OsRu)2
_chemical_formula_sum   'Sr1 Sb12 Os2 Ru2'
_cell_volume   411.26318041
_cell_formula_units_Z   1
loop_
 _symmetry_equiv_pos_site_id
 _symmetry_equiv_pos_as_xyz
  1  'x, y, z'
loop_
 _atom_site_type_symbol
 _atom_site_label
 _atom_site_symmetry_multiplicity
 _atom_site_fract_x
 _atom_site_fract_y
 _atom_site_fract_z
 _atom_site_occupancy
  Sr  Sr0  1  0.00000000  0.00000000  0.00000000  1
  Sb  Sb0  1  0.15903277  0.50152396  0.34323166  1
  Sb  Sb1  1  0.49851500  0.65648679  0.84081912  1
  Sb  Sb2  1  0.34302673  0.84161417  0.18464190  1
  Sb  Sb3  1  0.81566667  0.65769588  0.15918088  1
  Sb  Sb4  1  0.65704584  0.84118389  0.49823073  1
  Sb  Sb5  1  0.18433333  0.34230412  0.84081912  1
  Sb  Sb6  1  0.65697327  0.15838583  0.81535810  1
  Sb  Sb7  1  0.34295416  0.15881611  0.50176927  1
  Sb  Sb8  1  0.50148500  0.34351321  0.15918088  1
  Sb  Sb9  1  0.84096723  0.49847604  0.65676834  1
  Sb  Sb10  1  0.84170770  0.18419989  0.34323166  1
  Sb  Sb11  1  0.15829230  0.81580011  0.65676834  1
  Os  Os0  1  0.50000000  0.00000000  0.00000000  1
  Os  Os1  1  0.00000000  0.50000000  0.00000000  1
  Ru  Ru0  1  0.50000000  0.50000000  0.50000000  1
  Ru  Ru1  1  0.00000000  0.00000000  0.50000000  1
loop_
_geom_bond_atom_site_label_1
_geom_bond_atom_site_label_2
_geom_bond_distance
_geom_bond_site_symmetry_2
Sb0 Sb11 2.944784 1_555
Sb0 Sb10 2.973205 1_455
Sb0 Sr0 3.539907 1_555
Sb1 Sb5 2.943762 1_555
Sb1 Sb3 2.971392 1_556
Sb1 Sr0 3.539793 1_666
Sb2 Sb4 2.942011 1_555
Sb2 Sb7 2.972180 1_565
Sb2 Sr0 3.539108 1_565
Sb3 Sb8 2.943762 1_555
Sb3 Sr0 3.539796 1_665
Sb4 Sb6 2.972180 1_565
Sb4 Sr0 3.541758 1_666
Sb5 Sb8 2.971392 1_556
Sb5 Sr0 3.539796 1_556
Sb6 Sb7 2.942011 1_555
Sb6 Sr0 3.539108 1_656
Sb7 Sr0 3.541758 1_555
Sb8 Sr0 3.539793 1_555
Sb9 Sr0 3.539907 1_666
Sb10 Sb9 2.944784 1_555
Sb10 Sr0 3.539909 1_655
Sb11 Sb9 2.973205 1_455
Sb11 Sr0 3.539909 1_566
Os0 Sb6 2.642776 1_554
Os0 Sb2 2.642776 1_545
Os0 Sb10 2.644644 1_555
Os0 Sb11 2.644644 1_544
Os0 Sb8 2.646318 1_555
Os0 Sb1 2.646318 1_544
Os1 Sb2 2.642767 1_555
Os1 Sb6 2.642767 1_454
Os1 Sb0 2.644645 1_555
Os1 Sb9 2.644645 1_454
Os1 Sb3 2.646326 1_455
Os1 Sb5 2.646326 1_554
Ru0 Sb1 2.637164 1_555
Ru0 Sb8 2.637164 1_555
Ru0 Sb9 2.637587 1_555
Ru0 Sb0 2.637587 1_555
Ru0 Sb4 2.640902 1_555
Ru0 Sb7 2.640902 1_555
Ru1 Sb5 2.637163 1_555
Ru1 Sb3 2.637163 1_445
Ru1 Sb11 2.637594 1_545
Ru1 Sb10 2.637594 1_455
Ru1 Sb7 2.640910 1_555
Ru1 Sb4 2.640910 1_445
