# generated using pymatgen
data_BaBPIr2
_symmetry_space_group_name_H-M   'P 1'
_cell_length_a   6.66550276
_cell_length_b   6.66550269
_cell_length_c   6.66550222
_cell_angle_alpha   145.52945256
_cell_angle_beta   145.52944544
_cell_angle_gamma   49.54621849
_symmetry_Int_Tables_number   1
_chemical_formula_structural   BaBPIr2
_chemical_formula_sum   'Ba1 B1 P1 Ir2'
_cell_volume   94.42438955
_cell_formula_units_Z   1
loop_
 _symmetry_equiv_pos_site_id
 _symmetry_equiv_pos_as_xyz
  1  'x, y, z'
loop_
 _atom_site_type_symbol
 _atom_site_label
 _atom_site_symmetry_multiplicity
 _atom_site_fract_x
 _atom_site_fract_y
 _atom_site_fract_z
 _atom_site_occupancy
  Ba  Ba0  1  0.00446019  0.00446019  1.00000000  1
  B  B0  1  0.32701838  0.32701838  0.00000000  1
  P  P0  1  0.65370682  0.65370682  1.00000000  1
  Ir  Ir0  1  0.25740680  0.75740680  0.50000000  1
  Ir  Ir1  1  0.75740680  0.25740680  0.50000000  1
loop_
_geom_bond_atom_site_label_1
_geom_bond_atom_site_label_2
_geom_bond_distance
_geom_bond_site_symmetry_2
Ba0 P0 3.326325 1_444
Ba0 P0 3.326326 1_455
Ba0 P0 3.326326 1_545
Ba0 P0 3.326326 1_556
B0 Ir0 2.147193 1_555
B0 Ir0 2.147194 1_544
B0 Ir1 2.147194 1_555
B0 Ir1 2.147194 1_454
Ir0 P0 2.340090 1_555
Ir0 P0 2.340090 1_454
Ir1 P0 2.340089 1_555
Ir1 P0 2.340090 1_544
