# generated using pymatgen
data_Na3Y(PS4)2
_symmetry_space_group_name_H-M   'P 1'
_cell_length_a   9.84829462
_cell_length_b   9.84829470
_cell_length_c   9.18574060
_cell_angle_alpha   68.11810446
_cell_angle_beta   68.11810286
_cell_angle_gamma   57.74356100
_symmetry_Int_Tables_number   1
_chemical_formula_structural   Na3Y(PS4)2
_chemical_formula_sum   'Na6 Y2 P4 S16'
_cell_volume   681.77841672
_cell_formula_units_Z   2
loop_
 _symmetry_equiv_pos_site_id
 _symmetry_equiv_pos_as_xyz
  1  'x, y, z'
loop_
 _atom_site_type_symbol
 _atom_site_label
 _atom_site_symmetry_multiplicity
 _atom_site_fract_x
 _atom_site_fract_y
 _atom_site_fract_z
 _atom_site_occupancy
  Na  Na0  1  0.82528369  0.53093817  0.21982180  1
  Na  Na1  1  0.46906183  0.17471631  0.28017820  1
  Na  Na2  1  0.17471631  0.46906183  0.78017820  1
  Na  Na3  1  0.53093817  0.82528369  0.71982180  1
  Na  Na4  1  0.41676354  0.58323646  0.25000000  1
  Na  Na5  1  0.58323646  0.41676354  0.75000000  1
  Y  Y0  1  0.02203677  0.97796323  0.25000000  1
  Y  Y1  1  0.97796323  0.02203677  0.75000000  1
  P  P0  1  0.85409315  0.33678486  0.94630921  1
  P  P1  1  0.66321514  0.14590685  0.55369079  1
  P  P2  1  0.14590685  0.66321514  0.05369079  1
  P  P3  1  0.33678486  0.85409315  0.44630921  1
  S  S0  1  0.21325267  0.85126039  0.94448325  1
  S  S1  1  0.65504155  0.08111512  0.79296777  1
  S  S2  1  0.32668515  0.44061433  0.01287812  1
  S  S3  1  0.08111512  0.65504155  0.29296777  1
  S  S4  1  0.73843214  0.94786251  0.46796227  1
  S  S5  1  0.78674733  0.14873961  0.05551675  1
  S  S6  1  0.05213749  0.26156786  0.03203773  1
  S  S7  1  0.26156786  0.05213749  0.53203773  1
  S  S8  1  0.94786251  0.73843214  0.96796227  1
  S  S9  1  0.85126039  0.21325267  0.44448325  1
  S  S10  1  0.91888488  0.34495845  0.70703223  1
  S  S11  1  0.34495845  0.91888488  0.20703223  1
  S  S12  1  0.67331485  0.55938567  0.98712188  1
  S  S13  1  0.44061433  0.32668515  0.51287812  1
  S  S14  1  0.14873961  0.78674733  0.55551675  1
  S  S15  1  0.55938567  0.67331485  0.48712188  1
loop_
_geom_bond_atom_site_label_1
_geom_bond_atom_site_label_2
_geom_bond_distance
_geom_bond_site_symmetry_2
Na0 S8 2.830709 1_554
Na0 S12 2.894482 1_554
Na0 S15 2.950660 1_555
Na0 S9 2.973090 1_555
Na0 S6 3.035832 1_655
Na1 S7 2.830709 1_555
Na1 S13 2.894482 1_555
Na1 S2 2.950660 1_555
Na1 S5 2.973090 1_555
Na1 S4 3.035832 1_545
Na2 S6 2.830709 1_556
Na2 S2 2.894482 1_556
Na2 S13 2.950660 1_555
Na2 S14 2.973090 1_555
Na2 S8 3.035832 1_455
Na3 S4 2.830709 1_555
Na3 S15 2.894482 1_555
Na3 S12 2.950660 1_555
Na3 S0 2.973090 1_555
Na3 S7 3.035832 1_565
Na4 S12 2.740696 1_554
Na4 S13 2.740696 1_555
Na4 S3 2.884963 1_555
Na4 S11 2.884963 1_555
Na5 S2 2.740696 1_556
Na5 S15 2.740696 1_555
Na5 S10 2.884963 1_555
Na5 S1 2.884963 1_555
P0 S12 2.016215 1_555
P0 S10 2.030300 1_555
P0 S6 2.034885 1_656
P0 S5 2.075145 1_556
P1 S13 2.016215 1_555
P1 S1 2.030300 1_555
P1 S4 2.034885 1_545
P1 S9 2.075144 1_555
P2 S2 2.016215 1_555
P2 S3 2.030300 1_555
P2 S8 2.034885 1_454
P2 S0 2.075145 1_554
P3 S15 2.016215 1_555
P3 S11 2.030300 1_555
P3 S7 2.034885 1_565
P3 S14 2.075144 1_555
S0 Y1 2.841766 1_465
S0 Y0 3.023552 1_556
S1 Y1 2.805108 1_555
S3 Y0 2.805108 1_555
S4 Y0 2.858422 1_655
S5 Y0 2.841766 1_645
S5 Y1 3.023552 1_554
S6 Y0 2.858422 1_545
S7 Y1 2.858422 1_455
S8 Y1 2.858422 1_565
S9 Y0 2.841766 1_645
S9 Y1 3.023552 1_555
S10 Y1 2.805108 1_555
S11 Y0 2.805108 1_555
S14 Y1 2.841766 1_465
S14 Y0 3.023552 1_555
