# generated using pymatgen
data_K4MoRuO8
_symmetry_space_group_name_H-M   'P 1'
_cell_length_a   6.86491289
_cell_length_b   6.86489130
_cell_length_c   7.51691206
_cell_angle_alpha   67.05909341
_cell_angle_beta   67.05894981
_cell_angle_gamma   51.84972172
_symmetry_Int_Tables_number   1
_chemical_formula_structural   K4MoRuO8
_chemical_formula_sum   'K4 Mo1 Ru1 O8'
_cell_volume   251.05612750
_cell_formula_units_Z   1
loop_
 _symmetry_equiv_pos_site_id
 _symmetry_equiv_pos_as_xyz
  1  'x, y, z'
loop_
 _atom_site_type_symbol
 _atom_site_label
 _atom_site_symmetry_multiplicity
 _atom_site_fract_x
 _atom_site_fract_y
 _atom_site_fract_z
 _atom_site_occupancy
  K  K0  1  0.84428877  0.84428777  0.74875031  1
  K  K1  1  0.15539489  0.15539689  0.24561034  1
  K  K2  1  0.51188401  0.51187901  0.76516171  1
  K  K3  1  0.48814456  0.48814756  0.23734816  1
  Mo  Mo0  1  0.82367820  0.82367720  0.22591691  1
  Ru  Ru0  1  0.17628407  0.17628307  0.77255705  1
  O  O0  1  0.90214467  0.38223896  0.92615695  1
  O  O1  1  0.38223896  0.90214567  0.92615495  1
  O  O2  1  0.09778143  0.61851750  0.07517344  1
  O  O3  1  0.61851750  0.09777843  0.07517344  1
  O  O4  1  0.33407945  0.33408145  0.62241341  1
  O  O5  1  0.66668569  0.66668369  0.37919549  1
  O  O6  1  0.08874042  0.08873942  0.63796376  1
  O  O7  1  0.91013436  0.91014135  0.36242606  1
loop_
_geom_bond_atom_site_label_1
_geom_bond_atom_site_label_2
_geom_bond_distance
_geom_bond_site_symmetry_2
K0 O7 2.654703 1_555
K0 O0 2.748843 1_555
K0 O1 2.748848 1_555
K0 O6 2.761541 1_665
K0 O3 2.912535 1_566
K0 O2 2.912554 1_656
K0 O4 3.166877 1_655
K0 O4 3.166903 1_565
K1 O6 2.696593 1_555
K1 O2 2.751691 1_555
K1 O3 2.751695 1_555
K1 O7 2.763639 1_445
K1 O0 2.865032 1_454
K1 O1 2.865036 1_544
K1 O5 3.186951 1_455
K1 O5 3.186983 1_545
K2 O5 2.695222 1_555
K2 O3 2.764452 1_556
K2 O2 2.764456 1_556
K2 O4 2.830847 1_555
K2 O0 2.859443 1_555
K2 O1 2.859444 1_555
K2 O6 3.167960 1_655
K2 O6 3.167983 1_565
K3 O4 2.687807 1_555
K3 O0 2.769132 1_554
K3 O1 2.769136 1_554
K3 O5 2.834574 1_555
K3 O2 2.863840 1_555
K3 O3 2.863856 1_555
K3 O7 3.167718 1_545
K3 O7 3.167741 1_455
Mo0 O2 1.765241 1_655
Mo0 O3 1.765244 1_565
Mo0 O7 1.772665 1_555
Mo0 O5 1.774692 1_555
O0 Ru0 1.779098 1_655
O1 Ru0 1.779088 1_565
O4 Ru0 1.778835 1_555
O6 Ru0 1.772046 1_555
