# generated using pymatgen
data_InPd6IO8
_symmetry_space_group_name_H-M   'P 1'
_cell_length_a   6.76662650
_cell_length_b   6.76662687
_cell_length_c   6.76662640
_cell_angle_alpha   60.00000227
_cell_angle_beta   60.00000049
_cell_angle_gamma   60.00000752
_symmetry_Int_Tables_number   1
_chemical_formula_structural   InPd6IO8
_chemical_formula_sum   'In1 Pd6 I1 O8'
_cell_volume   219.07946380
_cell_formula_units_Z   1
loop_
 _symmetry_equiv_pos_site_id
 _symmetry_equiv_pos_as_xyz
  1  'x, y, z'
loop_
 _atom_site_type_symbol
 _atom_site_label
 _atom_site_symmetry_multiplicity
 _atom_site_fract_x
 _atom_site_fract_y
 _atom_site_fract_z
 _atom_site_occupancy
  In  In0  1  0.00000000  0.00000000  0.00000000  1
  Pd  Pd0  1  0.00000000  0.00000000  0.50000000  1
  Pd  Pd1  1  0.50000000  0.00000000  0.00000000  1
  Pd  Pd2  1  0.00000000  0.50000000  0.00000000  1
  Pd  Pd3  1  0.50000000  0.50000000  0.00000000  1
  Pd  Pd4  1  0.00000000  0.50000000  0.50000000  1
  Pd  Pd5  1  0.50000000  0.00000000  0.50000000  1
  I  I0  1  0.50000000  0.50000000  0.50000000  1
  O  O0  1  0.13876499  0.13876499  0.58370604  1
  O  O1  1  0.13876499  0.58370604  0.13876499  1
  O  O2  1  0.58370604  0.13876499  0.13876499  1
  O  O3  1  0.86123501  0.41629396  0.86123501  1
  O  O4  1  0.13876499  0.13876499  0.13876499  1
  O  O5  1  0.86123501  0.86123501  0.86123501  1
  O  O6  1  0.86123501  0.86123501  0.41629396  1
  O  O7  1  0.41629396  0.86123501  0.86123501  1
loop_
_geom_bond_atom_site_label_1
_geom_bond_atom_site_label_2
_geom_bond_distance
_geom_bond_site_symmetry_2
In0 O6 2.299994 1_445
In0 O0 2.299994 1_554
In0 O2 2.299994 1_455
In0 O7 2.299994 1_544
In0 O3 2.299994 1_454
In0 O1 2.299994 1_545
In0 O4 2.299999 1_555
In0 O5 2.299999 1_444
I0 Pd3 3.383313 1_556
I0 Pd3 3.383313 1_555
I0 Pd4 3.383313 1_655
I0 Pd4 3.383313 1_555
I0 Pd2 3.383313 1_655
I0 Pd2 3.383313 1_556
I0 Pd1 3.383313 1_556
I0 Pd5 3.383313 1_555
I0 Pd1 3.383313 1_565
I0 Pd5 3.383313 1_565
I0 Pd0 3.383314 1_565
I0 Pd0 3.383314 1_655
O0 Pd5 2.007355 1_555
O0 Pd4 2.007355 1_555
O0 Pd0 2.007361 1_555
O1 Pd4 2.007355 1_555
O1 Pd3 2.007355 1_555
O1 Pd2 2.007361 1_555
O2 Pd5 2.007355 1_555
O2 Pd3 2.007355 1_555
O2 Pd1 2.007361 1_555
O3 Pd4 2.007355 1_655
O3 Pd3 2.007355 1_556
O3 Pd2 2.007361 1_656
O4 Pd0 2.007355 1_555
O4 Pd1 2.007356 1_555
O4 Pd2 2.007356 1_555
O5 Pd0 2.007355 1_665
O5 Pd1 2.007356 1_566
O5 Pd2 2.007356 1_656
O6 Pd5 2.007355 1_565
O6 Pd4 2.007355 1_655
O6 Pd0 2.007361 1_665
O7 Pd5 2.007355 1_565
O7 Pd3 2.007355 1_556
O7 Pd1 2.007361 1_566
