# generated using pymatgen
data_Ca10InGa4Sb
_symmetry_space_group_name_H-M   'P 1'
_cell_length_a   9.32835056
_cell_length_b   9.32835139
_cell_length_c   9.32835149
_cell_angle_alpha   128.82010749
_cell_angle_beta   128.82010642
_cell_angle_gamma   75.30020022
_symmetry_Int_Tables_number   1
_chemical_formula_structural   Ca10InGa4Sb
_chemical_formula_sum   'Ca10 In1 Ga4 Sb1'
_cell_volume   479.60933504
_cell_formula_units_Z   1
loop_
 _symmetry_equiv_pos_site_id
 _symmetry_equiv_pos_as_xyz
  1  'x, y, z'
loop_
 _atom_site_type_symbol
 _atom_site_label
 _atom_site_symmetry_multiplicity
 _atom_site_fract_x
 _atom_site_fract_y
 _atom_site_fract_z
 _atom_site_occupancy
  Ca  Ca0  1  0.50254543  0.50254543  1.00000000  1
  Ca  Ca1  1  0.99745457  0.99745457  0.00000000  1
  Ca  Ca2  1  0.53591023  0.03905907  0.85201004  1
  Ca  Ca3  1  0.18705003  0.68390019  0.14798996  1
  Ca  Ca4  1  0.03905907  0.18705003  0.50314984  1
  Ca  Ca5  1  0.68390019  0.53591023  0.49685016  1
  Ca  Ca6  1  0.46094093  0.96408977  0.14798996  1
  Ca  Ca7  1  0.81609981  0.31294997  0.85201004  1
  Ca  Ca8  1  0.96408977  0.81609981  0.50314984  1
  Ca  Ca9  1  0.31294997  0.46094093  0.49685016  1
  In  In0  1  0.75000000  0.75000000  0.00000000  1
  Ga  Ga0  1  0.88829325  0.38829325  0.27658650  1
  Ga  Ga1  1  0.11170675  0.61170675  0.72341350  1
  Ga  Ga2  1  0.38829325  0.11170675  0.50000000  1
  Ga  Ga3  1  0.61170675  0.88829325  0.50000000  1
  Sb  Sb0  1  0.25000000  0.25000000  0.00000000  1
loop_
_geom_bond_atom_site_label_1
_geom_bond_atom_site_label_2
_geom_bond_distance
_geom_bond_site_symmetry_2
Ca0 Ga1 3.256127 1_555
Ca0 Ga0 3.256127 1_556
Ca0 Ga3 3.256127 1_556
Ca0 Ga2 3.256127 1_555
Ca0 In0 3.655288 1_556
Ca0 Sb0 3.730488 1_556
Ca1 Ga1 3.256127 1_654
Ca1 Ga0 3.256127 1_565
Ca1 Ga2 3.256127 1_665
Ca1 Ga3 3.256127 1_554
Ca1 In0 3.655288 1_555
Ca1 Sb0 3.730488 1_665
Ca2 Ga2 3.128135 1_555
Ca2 Ga3 3.142705 1_545
Ca2 Ga0 3.168600 1_556
Ca2 Sb0 3.382011 1_556
Ca2 In0 3.412107 1_546
Ca3 Ga3 3.128128 1_555
Ca3 Ga2 3.142703 1_565
Ca3 Ga1 3.168595 1_554
Ca3 Sb0 3.382010 1_555
Ca3 In0 3.412115 1_455
Ca4 Ga1 3.128129 1_555
Ca4 Ga0 3.142704 1_455
Ca4 Ga2 3.168604 1_555
Ca4 Sb0 3.382008 1_556
Ca4 In0 3.412113 1_445
Ca5 Ga0 3.128128 1_555
Ca5 Ga1 3.142702 1_655
Ca5 Ga3 3.168595 1_555
Ca5 Sb0 3.382010 1_555
Ca5 In0 3.412115 1_556
Ca6 Ga2 3.128135 1_565
Ca6 Ga3 3.142705 1_555
Ca6 Ga1 3.168600 1_554
Ca6 Sb0 3.382011 1_565
Ca6 In0 3.412107 1_555
Ca7 Ga3 3.128128 1_545
Ca7 Ga2 3.142702 1_555
Ca7 Ga0 3.168595 1_556
Ca7 Sb0 3.382010 1_656
Ca7 In0 3.412115 1_556
Ca8 Ga1 3.128128 1_655
Ca8 Ga0 3.142703 1_555
Ca8 Ga3 3.168595 1_555
Ca8 Sb0 3.382010 1_666
Ca8 In0 3.412116 1_555
Ca9 Ga0 3.128129 1_455
Ca9 Ga1 3.142704 1_555
Ca9 Ga2 3.168604 1_555
Ca9 Sb0 3.382008 1_555
Ca9 In0 3.412113 1_556
Ga0 Ga1 2.546069 1_655
Ga2 Ga3 2.546069 1_545
