# generated using pymatgen
data_VHg2F6
_symmetry_space_group_name_H-M   'P 1'
_cell_length_a   5.77748865
_cell_length_b   6.96863637
_cell_length_c   4.93190609
_cell_angle_alpha   76.76754625
_cell_angle_beta   100.07122034
_cell_angle_gamma   132.99939847
_symmetry_Int_Tables_number   1
_chemical_formula_structural   VHg2F6
_chemical_formula_sum   'V1 Hg2 F6'
_cell_volume   141.31749370
_cell_formula_units_Z   1
loop_
 _symmetry_equiv_pos_site_id
 _symmetry_equiv_pos_as_xyz
  1  'x, y, z'
loop_
 _atom_site_type_symbol
 _atom_site_label
 _atom_site_symmetry_multiplicity
 _atom_site_fract_x
 _atom_site_fract_y
 _atom_site_fract_z
 _atom_site_occupancy
  V  V0  1  0.00002202  0.00007725  0.03321364  1
  Hg  Hg0  1  0.28134610  0.63175032  0.46559800  1
  Hg  Hg1  1  0.71850388  0.36807937  0.60099617  1
  F  F0  1  0.34895502  0.06054667  0.23128314  1
  F  F1  1  0.13558716  0.30192718  0.11200261  1
  F  F2  1  0.75106310  0.80276446  0.35956757  1
  F  F3  1  0.24877634  0.19715546  0.70682111  1
  F  F4  1  0.86458440  0.69817166  0.95469023  1
  F  F5  1  0.65116098  0.93952663  0.83491151  1
loop_
_geom_bond_atom_site_label_1
_geom_bond_atom_site_label_2
_geom_bond_distance
_geom_bond_site_symmetry_2
F0 V0 1.880663 1_555
F1 V0 1.791554 1_555
F2 V0 1.910249 1_665
F2 Hg0 2.204105 1_555
F3 V0 1.909897 1_556
F3 Hg1 2.204049 1_555
F4 V0 1.791674 1_666
F5 V0 1.880540 1_666
