# generated using pymatgen
data_ErCuP2
_symmetry_space_group_name_H-M   'P 1'
_cell_length_a   3.68596917
_cell_length_b   3.71190581
_cell_length_c   19.31924234
_cell_angle_alpha   90.00000000
_cell_angle_beta   90.00000000
_cell_angle_gamma   90.00211223
_symmetry_Int_Tables_number   1
_chemical_formula_structural   ErCuP2
_chemical_formula_sum   'Er4 Cu4 P8'
_cell_volume   264.32530134
_cell_formula_units_Z   4
loop_
 _symmetry_equiv_pos_site_id
 _symmetry_equiv_pos_as_xyz
  1  'x, y, z'
loop_
 _atom_site_type_symbol
 _atom_site_label
 _atom_site_symmetry_multiplicity
 _atom_site_fract_x
 _atom_site_fract_y
 _atom_site_fract_z
 _atom_site_occupancy
  Er  Er0  1  0.25019160  0.72189804  0.38339503  1
  Er  Er1  1  0.24980840  0.77810196  0.88339503  1
  Er  Er2  1  0.74980840  0.27810196  0.61660497  1
  Er  Er3  1  0.75019160  0.22189804  0.11660497  1
  Cu  Cu0  1  0.25031103  0.22288402  0.24995292  1
  Cu  Cu1  1  0.74968897  0.77711598  0.75004708  1
  Cu  Cu2  1  0.24968897  0.27711598  0.74995292  1
  Cu  Cu3  1  0.75031103  0.72288402  0.25004708  1
  P  P0  1  0.75006868  0.80404958  0.50146984  1
  P  P1  1  0.74993132  0.69595042  0.00146984  1
  P  P2  1  0.24993132  0.19595042  0.49853016  1
  P  P3  1  0.25006868  0.30404958  0.99853016  1
  P  P4  1  0.25023318  0.72221753  0.17190776  1
  P  P5  1  0.75023318  0.22221753  0.32809224  1
  P  P6  1  0.74976682  0.27778247  0.82809224  1
  P  P7  1  0.24976682  0.77778247  0.67190776  1
loop_
_geom_bond_atom_site_label_1
_geom_bond_atom_site_label_2
_geom_bond_distance
_geom_bond_site_symmetry_2
Er0 P5 2.824435 1_455
Er0 P5 2.824724 1_555
Er0 P5 2.826082 1_465
Er0 P5 2.826193 1_565
Er0 P2 2.836184 1_565
Er0 P0 2.948111 1_555
Er0 P0 2.948691 1_455
Er0 P2 2.959555 1_555
Er1 P6 2.824435 1_565
Er1 P6 2.824724 1_465
Er1 P6 2.826082 1_555
Er1 P6 2.826193 1_455
Er1 P3 2.836184 1_555
Er1 P1 2.948111 1_456
Er1 P1 2.948691 1_556
Er1 P3 2.959555 1_565
Er2 P7 2.824435 1_655
Er2 P7 2.824724 1_555
Er2 P7 2.826082 1_645
Er2 P7 2.826193 1_545
Er2 P0 2.836184 1_545
Er2 P2 2.948111 1_555
Er2 P2 2.948691 1_655
Er2 P0 2.959555 1_555
Er3 P4 2.824435 1_545
Er3 P4 2.824724 1_645
Er3 P4 2.826082 1_555
Er3 P4 2.826193 1_655
Er3 P1 2.836184 1_555
Er3 P3 2.948111 1_654
Er3 P3 2.948691 1_554
Er3 P1 2.959555 1_545
Cu0 P5 2.382102 1_555
Cu0 P5 2.382546 1_455
Cu0 P4 2.389302 1_555
Cu0 P4 2.393142 1_545
Cu1 P7 2.382102 1_555
Cu1 P7 2.382546 1_655
Cu1 P6 2.389302 1_555
Cu1 P6 2.393142 1_565
Cu2 P6 2.382102 1_455
Cu2 P6 2.382546 1_555
Cu2 P7 2.389302 1_545
Cu2 P7 2.393142 1_555
Cu3 P4 2.382102 1_655
Cu3 P4 2.382546 1_555
Cu3 P5 2.389302 1_565
Cu3 P5 2.393142 1_555
P0 P2 2.348170 1_665
P0 P2 2.349049 1_565
P1 P3 2.348170 1_554
P1 P3 2.349049 1_654
