# generated using pymatgen
data_LiTiPtRh
_symmetry_space_group_name_H-M   'P 1'
_cell_length_a   4.26571507
_cell_length_b   4.26571516
_cell_length_c   4.26571604
_cell_angle_alpha   60.00000840
_cell_angle_beta   60.00000768
_cell_angle_gamma   60.00000584
_symmetry_Int_Tables_number   1
_chemical_formula_structural   LiTiPtRh
_chemical_formula_sum   'Li1 Ti1 Pt1 Rh1'
_cell_volume   54.88589018
_cell_formula_units_Z   1
loop_
 _symmetry_equiv_pos_site_id
 _symmetry_equiv_pos_as_xyz
  1  'x, y, z'
loop_
 _atom_site_type_symbol
 _atom_site_label
 _atom_site_symmetry_multiplicity
 _atom_site_fract_x
 _atom_site_fract_y
 _atom_site_fract_z
 _atom_site_occupancy
  Li  Li0  1  0.50000000  0.50000000  0.50000000  1
  Ti  Ti0  1  0.00000000  0.00000000  0.00000000  1
  Pt  Pt0  1  0.75000000  0.75000000  0.75000000  1
  Rh  Rh0  1  0.25000000  0.25000000  0.25000000  1
loop_
_geom_bond_atom_site_label_1
_geom_bond_atom_site_label_2
_geom_bond_distance
_geom_bond_site_symmetry_2
Li0 Rh0 2.612206 1_555
Li0 Pt0 2.612206 1_555
Li0 Pt0 2.612207 1_455
Li0 Rh0 2.612207 1_655
Li0 Rh0 2.612207 1_565
Li0 Pt0 2.612207 1_545
Li0 Rh0 2.612207 1_556
Li0 Pt0 2.612207 1_554
Pt0 Ti0 2.612206 1_666
Pt0 Ti0 2.612207 1_566
Pt0 Ti0 2.612207 1_656
Pt0 Ti0 2.612207 1_665
Rh0 Ti0 2.612206 1_555
Rh0 Ti0 2.612207 1_655
Rh0 Ti0 2.612207 1_565
Rh0 Ti0 2.612207 1_556
