# generated using pymatgen
data_CsK11Mn4O16
_symmetry_space_group_name_H-M   'P 1'
_cell_length_a   8.21024501
_cell_length_b   8.20733361
_cell_length_c   10.39141808
_cell_angle_alpha   113.22346717
_cell_angle_beta   113.23318664
_cell_angle_gamma   89.99831270
_symmetry_Int_Tables_number   1
_chemical_formula_structural   CsK11Mn4O16
_chemical_formula_sum   'Cs1 K11 Mn4 O16'
_cell_volume   581.18579645
_cell_formula_units_Z   1
loop_
 _symmetry_equiv_pos_site_id
 _symmetry_equiv_pos_as_xyz
  1  'x, y, z'
loop_
 _atom_site_type_symbol
 _atom_site_label
 _atom_site_symmetry_multiplicity
 _atom_site_fract_x
 _atom_site_fract_y
 _atom_site_fract_z
 _atom_site_occupancy
  Cs  Cs0  1  0.99971114  0.99966920  0.00001558  1
  K  K0  1  0.27847363  0.27851573  0.55676509  1
  K  K1  1  0.50001368  0.00016046  0.00000502  1
  K  K2  1  0.25060170  0.75102056  0.49986302  1
  K  K3  1  0.91423134  0.91439231  0.26676955  1
  K  K4  1  0.08587609  0.64849257  0.73341574  1
  K  K5  1  0.72187173  0.72179976  0.44325295  1
  K  K6  1  0.00006335  0.49999568  0.99996173  1
  K  K7  1  0.64815821  0.08560347  0.73332197  1
  K  K8  1  0.35190035  0.35172674  0.26675116  1
  K  K9  1  0.75096633  0.25073175  0.50000624  1
  K  K10  1  0.49944111  0.49939325  0.00014832  1
  Mn  Mn0  1  0.84845288  0.37999141  0.22870133  1
  Mn  Mn1  1  0.15143074  0.15153377  0.77126997  1
  Mn  Mn2  1  0.61981953  0.61981041  0.77122601  1
  Mn  Mn3  1  0.38007079  0.84842706  0.22875519  1
  O  O0  1  0.28950361  0.02108851  0.31272700  1
  O  O1  1  0.73117655  0.73126195  0.96748450  1
  O  O2  1  0.67945004  0.36280768  0.28107141  1
  O  O3  1  0.36292442  0.67935849  0.28113280  1
  O  O4  1  0.02108125  0.28938212  0.31265400  1
  O  O5  1  0.60117446  0.91987270  0.28195421  1
  O  O6  1  0.32013132  0.08123660  0.71871028  1
  O  O7  1  0.26868388  0.76433627  0.03253920  1
  O  O8  1  0.70988390  0.70970502  0.68759896  1
  O  O9  1  0.23557980  0.23562562  0.96746669  1
  O  O10  1  0.63746848  0.39848501  0.71815898  1
  O  O11  1  0.97790922  0.97793767  0.68710026  1
  O  O12  1  0.91985771  0.60117089  0.28191354  1
  O  O13  1  0.76429727  0.26858502  0.03248134  1
  O  O14  1  0.08120687  0.32028972  0.71869663  1
  O  O15  1  0.39858861  0.63759261  0.71808235  1
loop_
_geom_bond_atom_site_label_1
_geom_bond_atom_site_label_2
_geom_bond_distance
_geom_bond_site_symmetry_2
Cs0 O7 2.940611 1_655
Cs0 O13 2.940704 1_565
Cs0 O9 2.940823 1_664
Cs0 O1 2.941587 1_554
Cs0 O8 3.110938 1_554
Cs0 O4 3.114042 1_665
Cs0 O0 3.114635 1_665
Cs0 O11 3.117756 1_554
K0 O4 2.618702 1_555
K0 O0 2.618907 1_555
K0 O6 2.695411 1_555
K0 O14 2.695788 1_555
K0 O10 2.695836 1_555
K0 O15 2.695859 1_555
K1 O7 2.913845 1_545
K1 O9 2.915217 1_554
K1 O1 2.916233 1_544
K1 O13 2.917486 1_555
K1 O6 3.048964 1_554
K1 O2 3.051137 1_555
K1 O5 3.051354 1_545
K1 O15 3.054702 1_544
K2 O6 2.637792 1_565
K2 O3 2.638545 1_555
K2 O12 2.639553 1_455
K2 O15 2.641215 1_555
K3 O1 2.610756 1_554
K3 O5 2.635829 1_555
K3 O12 2.636050 1_555
K3 O4 2.996972 1_665
K3 O0 2.999571 1_665
K4 O7 2.609036 1_556
K4 O15 2.633755 1_555
K4 O14 2.636510 1_555
K4 O11 3.002971 1_455
K4 O8 3.006256 1_455
K5 O11 2.618373 1_555
K5 O8 2.619640 1_555
K5 O2 2.695107 1_555
K5 O3 2.695332 1_555
K5 O5 2.696754 1_555
K5 O12 2.697081 1_555
K6 O13 2.913891 1_456
K6 O9 2.915134 1_555
K6 O1 2.916736 1_455
K6 O7 2.918472 1_556
K6 O14 3.049283 1_555
K6 O12 3.051360 1_456
K6 O3 3.052892 1_556
K6 O10 3.054518 1_455
K7 O13 2.609249 1_556
K7 O10 2.633425 1_555
K7 O6 2.636410 1_555
K7 O11 3.005372 1_545
K7 O8 3.005734 1_545
K8 O9 2.609941 1_554
K8 O3 2.633169 1_555
K8 O2 2.633661 1_555
K8 O0 3.011685 1_555
K8 O4 3.013516 1_555
K9 O14 2.637695 1_655
K9 O2 2.638776 1_555
K9 O5 2.640020 1_545
K9 O10 2.641278 1_555
K10 O9 2.887039 1_554
K10 O13 2.890539 1_555
K10 O7 2.890796 1_555
K10 O1 2.894084 1_554
Mn0 O4 1.690848 1_655
Mn0 O13 1.699768 1_555
Mn0 O12 1.702187 1_555
Mn0 O2 1.702243 1_555
Mn1 O11 1.690816 1_445
Mn1 O9 1.699788 1_555
Mn1 O14 1.702169 1_555
Mn1 O6 1.702314 1_555
Mn2 O8 1.690836 1_555
Mn2 O1 1.699878 1_555
Mn2 O15 1.702237 1_555
Mn2 O10 1.702287 1_555
Mn3 O0 1.690894 1_565
Mn3 O7 1.699754 1_555
Mn3 O5 1.702204 1_555
Mn3 O3 1.702224 1_555
