# generated using pymatgen
data_Cs2Hg(PSe3)2
_symmetry_space_group_name_H-M   'P 1'
_cell_length_a   13.29749923
_cell_length_b   6.74750935
_cell_length_c   10.46134903
_cell_angle_alpha   51.01440654
_cell_angle_beta   90.00000000
_cell_angle_gamma   90.00000000
_symmetry_Int_Tables_number   1
_chemical_formula_structural   Cs2Hg(PSe3)2
_chemical_formula_sum   'Cs4 Hg2 P4 Se12'
_cell_volume   729.61232437
_cell_formula_units_Z   2
loop_
 _symmetry_equiv_pos_site_id
 _symmetry_equiv_pos_as_xyz
  1  'x, y, z'
loop_
 _atom_site_type_symbol
 _atom_site_label
 _atom_site_symmetry_multiplicity
 _atom_site_fract_x
 _atom_site_fract_y
 _atom_site_fract_z
 _atom_site_occupancy
  Cs  Cs0  1  0.18084673  0.25931921  0.97257650  1
  Cs  Cs1  1  0.68084673  0.74068079  0.52742350  1
  Cs  Cs2  1  0.81915327  0.74068079  0.02742350  1
  Cs  Cs3  1  0.31915327  0.25931921  0.47257650  1
  Hg  Hg0  1  0.00000000  0.00000000  0.50000000  1
  Hg  Hg1  1  0.50000000  0.00000000  0.00000000  1
  P  P0  1  0.03901459  0.65574743  0.37803442  1
  P  P1  1  0.53901459  0.34425257  0.12196558  1
  P  P2  1  0.96098541  0.34425257  0.62196558  1
  P  P3  1  0.46098541  0.65574743  0.87803442  1
  Se  Se0  1  0.17679834  0.75696555  0.43582180  1
  Se  Se1  1  0.67679834  0.24303445  0.06417820  1
  Se  Se2  1  0.82320166  0.24303445  0.56417820  1
  Se  Se3  1  0.32320166  0.75696555  0.93582180  1
  Se  Se4  1  0.93429878  0.97157735  0.23255064  1
  Se  Se5  1  0.43429878  0.02842265  0.26744936  1
  Se  Se6  1  0.06570122  0.02842265  0.76744936  1
  Se  Se7  1  0.56570122  0.97157735  0.73255064  1
  Se  Se8  1  0.43468344  0.46744220  0.76699207  1
  Se  Se9  1  0.93468344  0.53255780  0.73300793  1
  Se  Se10  1  0.56531656  0.53255780  0.23300793  1
  Se  Se11  1  0.06531656  0.46744220  0.26699207  1
loop_
_geom_bond_atom_site_label_1
_geom_bond_atom_site_label_2
_geom_bond_distance
_geom_bond_site_symmetry_2
Cs0 Se3 3.658131 1_555
Cs0 Se6 3.685552 1_555
Cs0 Se8 3.767045 1_555
Cs0 Se0 3.782716 1_546
Cs0 Se9 3.818530 1_455
Cs0 Se4 3.907760 1_446
Cs0 Se3 4.106179 1_545
Cs0 Se5 4.153880 1_556
Cs1 Se2 3.658131 1_555
Cs1 Se7 3.685552 1_555
Cs1 Se9 3.767045 1_555
Cs1 Se1 3.782716 1_565
Cs1 Se8 3.818530 1_555
Cs1 Se5 3.907760 1_565
Cs1 Se2 4.106179 1_565
Cs1 Se4 4.153880 1_555
Cs2 Se1 3.658131 1_555
Cs2 Se4 3.685552 1_555
Cs2 Se10 3.767045 1_555
Cs2 Se2 3.782716 1_564
Cs2 Se11 3.818530 1_655
Cs2 Se6 3.907760 1_664
Cs2 Se1 4.106179 1_565
Cs2 Se7 4.153880 1_554
Cs3 Se0 3.658131 1_555
Cs3 Se5 3.685552 1_555
Cs3 Se11 3.767045 1_555
Cs3 Se3 3.782716 1_545
Cs3 Se10 3.818530 1_555
Cs3 Se7 3.907760 1_545
Cs3 Se0 4.106179 1_545
Cs3 Se6 4.153880 1_555
Hg0 Se11 2.640175 1_555
Hg0 Se9 2.640175 1_445
Hg0 Se6 3.050141 1_555
Hg0 Se4 3.050141 1_445
Hg0 Se2 3.170549 1_455
Hg0 Se0 3.170549 1_545
Hg1 Se10 2.640175 1_545
Hg1 Se8 2.640175 1_554
Hg1 Se5 3.050141 1_555
Hg1 Se7 3.050141 1_544
Hg1 Se1 3.170549 1_555
Hg1 Se3 3.170549 1_544
P0 Se0 2.169861 1_555
P0 Se4 2.171575 1_455
P0 Se11 2.223359 1_555
P0 P2 2.292927 1_455
P1 Se1 2.169861 1_555
P1 Se5 2.171575 1_555
P1 Se10 2.223359 1_555
P1 P3 2.292927 1_554
P2 Se2 2.169861 1_555
P2 Se6 2.171575 1_655
P2 Se9 2.223359 1_555
P3 Se3 2.169861 1_555
P3 Se7 2.171575 1_555
P3 Se8 2.223359 1_555
