# generated using pymatgen
data_Zn22Co3Pt
_symmetry_space_group_name_H-M   'P 1'
_cell_length_a   7.68115448
_cell_length_b   7.71667522
_cell_length_c   7.71667492
_cell_angle_alpha   109.56427350
_cell_angle_beta   109.37800955
_cell_angle_gamma   109.37800509
_symmetry_Int_Tables_number   1
_chemical_formula_structural   Zn22Co3Pt
_chemical_formula_sum   'Zn22 Co3 Pt1'
_cell_volume   352.50342639
_cell_formula_units_Z   1
loop_
 _symmetry_equiv_pos_site_id
 _symmetry_equiv_pos_as_xyz
  1  'x, y, z'
loop_
 _atom_site_type_symbol
 _atom_site_label
 _atom_site_symmetry_multiplicity
 _atom_site_fract_x
 _atom_site_fract_y
 _atom_site_fract_z
 _atom_site_occupancy
  Zn  Zn0  1  0.35329084  0.35779956  1.00000000  1
  Zn  Zn1  1  0.99549129  0.64220044  0.64220044  1
  Zn  Zn2  1  0.35329084  1.00000000  0.35779956  1
  Zn  Zn3  1  0.99832835  0.35623725  0.35623725  1
  Zn  Zn4  1  0.64209209  1.00000000  0.64376275  1
  Zn  Zn5  1  0.64209209  0.64376275  0.00000000  1
  Zn  Zn6  1  0.19882259  0.20711353  0.20711353  1
  Zn  Zn7  1  0.99170906  1.00000000  0.79288647  1
  Zn  Zn8  1  0.99170906  0.79288647  1.00000000  1
  Zn  Zn9  1  0.78121529  1.00000000  1.00000000  1
  Zn  Zn10  1  0.38038046  0.72188986  0.72188986  1
  Zn  Zn11  1  0.65849060  0.00000000  0.27811014  1
  Zn  Zn12  1  0.65849060  0.27811014  1.00000000  1
  Zn  Zn13  1  0.00746530  0.64965319  0.25855317  1
  Zn  Zn14  1  0.74891213  0.39110002  0.74144683  1
  Zn  Zn15  1  0.25023071  0.64056069  1.00000000  1
  Zn  Zn16  1  0.00746530  0.25855317  0.64965319  1
  Zn  Zn17  1  0.25023071  1.00000000  0.64056069  1
  Zn  Zn18  1  0.74891213  0.74144683  0.39110002  1
  Zn  Zn19  1  0.60967002  0.35943931  0.35943931  1
  Zn  Zn20  1  0.35781210  0.60889998  0.35034681  1
  Zn  Zn21  1  0.35781210  0.35034681  0.60889998  1
  Co  Co0  1  0.00123517  0.34338806  1.00000000  1
  Co  Co1  1  0.00123517  1.00000000  0.34338806  1
  Co  Co2  1  0.65784712  0.65661194  0.65661194  1
  Pt  Pt0  1  0.35577289  0.00000000  0.00000000  1
loop_
_geom_bond_atom_site_label_1
_geom_bond_atom_site_label_2
_geom_bond_distance
_geom_bond_site_symmetry_2
Zn0 Zn15 2.556152 1_555
Zn0 Zn5 2.557738 1_556
Zn0 Zn12 2.613515 1_555
Zn0 Zn7 2.627102 1_445
Zn0 Zn6 2.627102 1_556
Zn0 Zn16 2.729357 1_555
Zn0 Zn20 2.729357 1_556
Zn0 Zn19 2.811905 1_556
Zn0 Zn17 2.811906 1_545
Zn0 Zn18 3.011216 1_556
Zn0 Zn21 3.011216 1_555
Zn1 Zn19 2.556152 1_555
Zn1 Zn3 2.557734 1_555
Zn1 Zn10 2.613515 1_655
Zn1 Zn8 2.627102 1_555
Zn1 Zn7 2.627102 1_555
Zn1 Zn18 2.729357 1_555
Zn1 Zn14 2.729357 1_555
Zn1 Zn15 2.811905 1_655
Zn1 Zn17 2.811905 1_655
Zn1 Zn13 3.011216 1_655
Zn1 Zn16 3.011216 1_655
Zn2 Zn4 2.557738 1_555
Zn2 Zn8 2.627102 1_454
Zn2 Zn6 2.627102 1_565
Zn2 Zn21 2.729357 1_565
Zn2 Zn20 3.011216 1_555
Zn3 Zn6 2.546615 1_655
Zn3 Zn9 2.597958 1_544
Zn4 Zn7 2.546608 1_555
Zn4 Zn9 2.597958 1_555
Zn5 Zn8 2.546608 1_554
Zn5 Zn9 2.597958 1_554
Zn6 Zn7 2.611393 1_444
Zn6 Zn8 2.611393 1_444
Zn6 Zn9 2.623599 1_444
Zn7 Zn8 2.611393 1_555
Zn7 Zn9 2.623599 1_555
Zn8 Zn9 2.623599 1_555
Zn10 Zn9 2.614726 1_555
Zn10 Zn20 2.627943 1_555
Zn10 Zn21 2.627943 1_555
Zn10 Zn5 2.796093 1_556
Zn10 Zn4 2.796093 1_555
Zn10 Zn17 2.812180 1_555
Zn10 Zn15 2.812180 1_555
Zn10 Zn3 2.865883 1_455
Zn11 Zn2 2.613515 1_545
Zn11 Zn9 2.614726 1_544
Zn11 Zn16 2.627943 1_655
Zn11 Zn18 2.627943 1_545
Zn11 Zn3 2.796089 1_555
Zn11 Zn5 2.796093 1_545
Zn11 Zn15 2.812179 1_544
Zn11 Zn19 2.812180 1_555
Zn11 Zn4 2.865880 1_545
Zn12 Zn9 2.614726 1_545
Zn12 Zn13 2.627943 1_656
Zn12 Zn14 2.627943 1_555
Zn12 Zn3 2.796088 1_556
Zn12 Zn4 2.796093 1_545
Zn12 Zn17 2.812179 1_545
Zn12 Zn19 2.812180 1_556
Zn12 Zn5 2.865880 1_556
Zn13 Zn8 2.573411 1_454
Zn13 Zn3 2.602388 1_455
Zn13 Zn17 2.673079 1_555
Zn13 Zn20 2.699690 1_555
Zn13 Zn18 2.699690 1_455
Zn13 Zn2 2.729357 1_555
Zn13 Zn5 2.828072 1_455
Zn14 Zn8 2.573411 1_555
Zn14 Zn4 2.602390 1_545
Zn14 Zn19 2.673079 1_555
Zn14 Zn21 2.699690 1_555
Zn14 Zn16 2.699690 1_655
Zn14 Zn5 2.828072 1_556
Zn14 Zn2 3.011216 1_545
Zn15 Zn8 2.621792 1_455
Zn15 Zn20 2.673079 1_556
Zn15 Zn16 2.673079 1_555
Zn15 Zn2 2.811906 1_556
Zn15 Zn5 3.001840 1_556
Zn16 Zn7 2.573411 1_445
Zn16 Zn3 2.602388 1_455
Zn16 Zn21 2.699690 1_555
Zn16 Zn4 2.828072 1_445
Zn17 Zn2 2.556152 1_555
Zn17 Zn7 2.621792 1_455
Zn17 Zn21 2.673079 1_565
Zn17 Zn4 3.001840 1_555
Zn18 Zn7 2.573411 1_555
Zn18 Zn5 2.602390 1_555
Zn18 Zn19 2.673079 1_555
Zn18 Zn20 2.699690 1_555
Zn18 Zn4 2.828072 1_555
Zn19 Zn6 2.621792 1_555
Zn19 Zn2 2.811905 1_545
Zn19 Zn3 3.001832 1_555
Zn20 Zn6 2.573411 1_555
Zn20 Zn4 2.602390 1_555
Zn20 Zn3 2.828078 1_455
Zn21 Zn6 2.573411 1_555
Zn21 Zn5 2.602389 1_556
Zn21 Zn3 2.828077 1_455
Co0 Zn15 2.450749 1_555
Co0 Zn14 2.504405 1_455
Co0 Zn13 2.504405 1_556
Co0 Zn12 2.510913 1_455
Co0 Zn6 2.557074 1_556
Co0 Zn7 2.557074 1_445
Co0 Zn20 2.580922 1_556
Co0 Zn16 2.580922 1_555
Co0 Zn9 2.627910 1_445
Co0 Zn0 2.669357 1_555
Co0 Zn4 2.725213 1_445
Co0 Zn3 2.725216 1_456
Co1 Zn17 2.450748 1_555
Co1 Zn18 2.504405 1_455
Co1 Zn16 2.504405 1_565
Co1 Zn11 2.510913 1_465
Co1 Zn6 2.557074 1_565
Co1 Zn8 2.557074 1_454
Co1 Zn21 2.580922 1_565
Co1 Zn13 2.580922 1_555
Co1 Zn9 2.627910 1_454
Co1 Zn2 2.669357 1_555
Co1 Zn5 2.725213 1_455
Co1 Zn3 2.725216 1_465
Co2 Zn19 2.450749 1_555
Co2 Zn20 2.504405 1_555
Co2 Zn21 2.504405 1_555
Co2 Zn10 2.510913 1_555
Co2 Zn8 2.557074 1_555
Co2 Zn7 2.557074 1_555
Co2 Zn18 2.580922 1_555
Co2 Zn14 2.580922 1_555
Co2 Zn9 2.627910 1_555
Co2 Zn1 2.669357 1_555
Co2 Zn5 2.725213 1_556
Co2 Zn4 2.725213 1_555
Pt0 Zn11 2.588610 1_555
Pt0 Zn12 2.588610 1_554
Pt0 Zn10 2.588610 1_544
Pt0 Zn17 2.618843 1_544
Pt0 Zn19 2.618843 1_555
Pt0 Zn15 2.618843 1_544
Pt0 Zn7 2.721859 1_444
Pt0 Zn8 2.721859 1_444
Pt0 Zn6 2.721859 1_555
Pt0 Zn1 2.767407 1_444
Pt0 Zn2 2.767407 1_545
Pt0 Zn0 2.767407 1_554
