# generated using pymatgen
data_Sr2AlIrI
_symmetry_space_group_name_H-M   'P 1'
_cell_length_a   4.32599473
_cell_length_b   4.32599598
_cell_length_c   18.58397063
_cell_angle_alpha   90.00000000
_cell_angle_beta   90.00000000
_cell_angle_gamma   120.00000555
_symmetry_Int_Tables_number   1
_chemical_formula_structural   Sr2AlIrI
_chemical_formula_sum   'Sr4 Al2 Ir2 I2'
_cell_volume   301.19046289
_cell_formula_units_Z   2
loop_
 _symmetry_equiv_pos_site_id
 _symmetry_equiv_pos_as_xyz
  1  'x, y, z'
loop_
 _atom_site_type_symbol
 _atom_site_label
 _atom_site_symmetry_multiplicity
 _atom_site_fract_x
 _atom_site_fract_y
 _atom_site_fract_z
 _atom_site_occupancy
  Sr  Sr0  1  0.00000000  0.00000000  0.38666497  1
  Sr  Sr1  1  0.00000000  0.00000000  0.88666497  1
  Sr  Sr2  1  0.00000000  0.00000000  0.61294846  1
  Sr  Sr3  1  0.00000000  0.00000000  0.11294846  1
  Al  Al0  1  0.33333300  0.66666700  0.50020143  1
  Al  Al1  1  0.66666700  0.33333300  0.00020143  1
  Ir  Ir0  1  0.66666700  0.33333300  0.49941044  1
  Ir  Ir1  1  0.33333300  0.66666700  0.99941044  1
  I  I0  1  0.33333300  0.66666700  0.25077369  1
  I  I1  1  0.66666700  0.33333300  0.75077369  1
loop_
_geom_bond_atom_site_label_1
_geom_bond_atom_site_label_2
_geom_bond_distance
_geom_bond_site_symmetry_2
Al0 Ir0 2.497655 1_455
Al0 Ir0 2.497656 1_565
Al0 Ir0 2.497663 1_555
Al0 Sr2 3.260107 1_565
Al0 Sr2 3.260109 1_665
Al0 Sr2 3.260110 1_555
Al0 Sr0 3.269555 1_565
Al0 Sr0 3.269557 1_665
Al0 Sr0 3.269558 1_555
Al1 Ir1 2.497655 1_654
Al1 Ir1 2.497656 1_544
Al1 Ir1 2.497663 1_554
Al1 Sr3 3.260107 1_655
Al1 Sr3 3.260109 1_555
Al1 Sr3 3.260110 1_665
Al1 Sr1 3.269555 1_654
Al1 Sr1 3.269557 1_554
Al1 Sr1 3.269558 1_664
Ir0 Sr0 3.260088 1_655
Ir0 Sr0 3.260091 1_555
Ir0 Sr0 3.260091 1_665
Ir0 Sr2 3.269574 1_655
Ir0 Sr2 3.269576 1_555
Ir0 Sr2 3.269577 1_665
Ir1 Sr1 3.260088 1_565
Ir1 Sr1 3.260091 1_665
Ir1 Sr1 3.260091 1_555
Ir1 Sr3 3.269574 1_566
Ir1 Sr3 3.269576 1_666
Ir1 Sr3 3.269577 1_556
I0 Sr0 3.551860 1_565
I0 Sr0 3.551862 1_665
I0 Sr0 3.551863 1_555
I0 Sr3 3.577503 1_565
I0 Sr3 3.577505 1_665
I0 Sr3 3.577506 1_555
I1 Sr1 3.551860 1_655
I1 Sr1 3.551862 1_555
I1 Sr1 3.551863 1_665
I1 Sr2 3.577503 1_655
I1 Sr2 3.577505 1_555
I1 Sr2 3.577506 1_665
