# generated using pymatgen
data_Zr6Si2NO
_symmetry_space_group_name_H-M   'P 1'
_cell_length_a   5.79418582
_cell_length_b   5.79418480
_cell_length_c   8.54520956
_cell_angle_alpha   90.19708927
_cell_angle_beta   89.80291157
_cell_angle_gamma   144.79522519
_symmetry_Int_Tables_number   1
_chemical_formula_structural   Zr6Si2NO
_chemical_formula_sum   'Zr6 Si2 N1 O1'
_cell_volume   165.38810561
_cell_formula_units_Z   1
loop_
 _symmetry_equiv_pos_site_id
 _symmetry_equiv_pos_as_xyz
  1  'x, y, z'
loop_
 _atom_site_type_symbol
 _atom_site_label
 _atom_site_symmetry_multiplicity
 _atom_site_fract_x
 _atom_site_fract_y
 _atom_site_fract_z
 _atom_site_occupancy
  Zr  Zr0  1  0.36400369  0.63599431  0.05313521  1
  Zr  Zr1  1  0.05990023  0.94009777  0.25197352  1
  Zr  Zr2  1  0.36800955  0.63198845  0.44553685  1
  Zr  Zr3  1  0.63198845  0.36800955  0.55446415  1
  Zr  Zr4  1  0.94009777  0.05990023  0.74802648  1
  Zr  Zr5  1  0.63599431  0.36400369  0.94686479  1
  Si  Si0  1  0.74574506  0.25425294  0.24932791  1
  Si  Si1  1  0.25425294  0.74574506  0.75067209  1
  N  N0  1  0.00000000  0.00000000  0.50000000  1
  O  O0  1  0.00000000  0.00000000  0.00000000  1
loop_
_geom_bond_atom_site_label_1
_geom_bond_atom_site_label_2
_geom_bond_distance
_geom_bond_site_symmetry_2
Si0 Zr1 2.698969 1_655
Si0 Zr1 2.698970 1_545
Si0 Zr0 2.751626 1_545
Si0 Zr0 2.751627 1_655
Si0 Zr2 2.778780 1_545
Si0 Zr2 2.778781 1_655
Si0 Zr5 2.858751 1_554
Si0 Zr3 2.890334 1_555
Si1 Zr4 2.698969 1_455
Si1 Zr4 2.698970 1_565
Si1 Zr5 2.751626 1_565
Si1 Zr5 2.751627 1_455
Si1 Zr3 2.778775 1_565
Si1 Zr3 2.778775 1_455
Si1 Zr0 2.858751 1_556
Si1 Zr2 2.890327 1_555
N0 Zr1 2.218036 1_545
N0 Zr4 2.218036 1_455
N0 Zr2 2.327508 1_555
N0 Zr3 2.327511 1_555
N0 Zr2 2.327514 1_445
N0 Zr3 2.327515 1_445
O0 Zr1 2.254816 1_545
O0 Zr4 2.254816 1_454
O0 Zr0 2.351174 1_555
O0 Zr5 2.351175 1_554
O0 Zr5 2.351179 1_444
O0 Zr0 2.351180 1_445
