# generated using pymatgen
data_LuZrAgS4
_symmetry_space_group_name_H-M   'P 1'
_cell_length_a   7.69539562
_cell_length_b   7.69539614
_cell_length_c   10.86260231
_cell_angle_alpha   90.85963520
_cell_angle_beta   90.85963806
_cell_angle_gamma   90.11619421
_symmetry_Int_Tables_number   1
_chemical_formula_structural   LuZrAgS4
_chemical_formula_sum   'Lu4 Zr4 Ag4 S16'
_cell_volume   643.12729873
_cell_formula_units_Z   4
loop_
 _symmetry_equiv_pos_site_id
 _symmetry_equiv_pos_as_xyz
  1  'x, y, z'
loop_
 _atom_site_type_symbol
 _atom_site_label
 _atom_site_symmetry_multiplicity
 _atom_site_fract_x
 _atom_site_fract_y
 _atom_site_fract_z
 _atom_site_occupancy
  Lu  Lu0  1  0.00105912  0.74957806  0.62453893  1
  Lu  Lu1  1  0.74957806  0.50105912  0.87453893  1
  Lu  Lu2  1  0.24957806  0.00105912  0.37453893  1
  Lu  Lu3  1  0.50105912  0.24957806  0.12453893  1
  Zr  Zr0  1  0.99984068  0.24971660  0.62547059  1
  Zr  Zr1  1  0.74971660  0.99984068  0.37547059  1
  Zr  Zr2  1  0.49984068  0.74971660  0.12547059  1
  Zr  Zr3  1  0.24971660  0.49984068  0.87547059  1
  Ag  Ag0  1  0.99915820  0.00052157  0.00006448  1
  Ag  Ag1  1  0.49915820  0.50052157  0.50006448  1
  Ag  Ag2  1  0.50052157  0.99915820  0.75006448  1
  Ag  Ag3  1  0.00052157  0.49915820  0.25006448  1
  S  S0  1  0.99194758  0.23487178  0.38657491  1
  S  S1  1  0.76568417  0.00664777  0.61404461  1
  S  S2  1  0.99163004  0.77204964  0.38102933  1
  S  S3  1  0.72852351  0.50877030  0.11827715  1
  S  S4  1  0.50664777  0.76568417  0.36404461  1
  S  S5  1  0.27204964  0.99163004  0.13102933  1
  S  S6  1  0.50877030  0.22852351  0.36827715  1
  S  S7  1  0.73487178  0.99194758  0.13657491  1
  S  S8  1  0.49194758  0.73487178  0.88657491  1
  S  S9  1  0.26568417  0.50664777  0.11404461  1
  S  S10  1  0.49163004  0.27204964  0.88102933  1
  S  S11  1  0.22852351  0.00877030  0.61827715  1
  S  S12  1  0.00664777  0.26568417  0.86404461  1
  S  S13  1  0.77204964  0.49163004  0.63102933  1
  S  S14  1  0.00877030  0.72852351  0.86827715  1
  S  S15  1  0.23487178  0.49194758  0.63657491  1
loop_
_geom_bond_atom_site_label_1
_geom_bond_atom_site_label_2
_geom_bond_distance
_geom_bond_site_symmetry_2
Lu0 S2 2.653299 1_455
Lu0 S11 2.653391 1_565
Lu0 S13 2.654195 1_455
Lu0 S14 2.654792 1_555
Lu0 S15 2.683332 1_555
Lu0 S1 2.687453 1_465
Lu1 S13 2.653299 1_555
Lu1 S14 2.653391 1_655
Lu1 S10 2.654195 1_555
Lu1 S3 2.654792 1_556
Lu1 S8 2.683332 1_555
Lu1 S12 2.687453 1_655
Lu2 S5 2.653299 1_545
Lu2 S6 2.653391 1_555
Lu2 S2 2.654195 1_445
Lu2 S11 2.654792 1_555
Lu2 S0 2.683332 1_455
Lu2 S4 2.687453 1_545
Lu3 S10 2.653299 1_554
Lu3 S3 2.653391 1_555
Lu3 S5 2.654195 1_545
Lu3 S6 2.654792 1_555
Lu3 S7 2.683332 1_545
Lu3 S9 2.687453 1_555
Ag0 S14 2.519904 1_644
Ag0 S5 2.520401 1_645
Ag0 S7 2.536218 1_545
Ag0 S12 2.538253 1_654
Ag1 S6 2.519904 1_555
Ag1 S13 2.520401 1_555
Ag1 S15 2.536218 1_555
Ag1 S4 2.538253 1_555
Ag2 S11 2.519904 1_565
Ag2 S10 2.520401 1_565
Ag2 S8 2.536218 1_555
Ag2 S1 2.538253 1_565
Ag3 S3 2.519904 1_455
Ag3 S2 2.520401 1_455
Ag3 S0 2.536218 1_455
Ag3 S9 2.538253 1_555
S0 Zr1 2.594910 1_545
S0 Zr0 2.595623 1_555
S1 Zr1 2.592343 1_545
S1 Zr0 2.594958 1_555
S2 Zr1 2.560297 1_555
S3 Zr2 2.560079 1_555
S4 Zr2 2.592343 1_555
S4 Zr1 2.594958 1_555
S5 Zr2 2.560297 1_555
S6 Zr1 2.560079 1_545
S7 Zr2 2.594910 1_555
S7 Zr1 2.595623 1_555
S8 Zr3 2.594910 1_555
S8 Zr2 2.595623 1_556
S9 Zr3 2.592343 1_554
S9 Zr2 2.594958 1_555
S10 Zr3 2.560297 1_555
S11 Zr0 2.560079 1_455
S12 Zr0 2.592343 1_455
S12 Zr3 2.594958 1_555
S13 Zr0 2.560297 1_555
S14 Zr3 2.560079 1_555
S15 Zr0 2.594910 1_455
S15 Zr3 2.595623 1_555
