# generated using pymatgen
data_MnNb12V22Ir
_symmetry_space_group_name_H-M   'P 1'
_cell_length_a   8.82648810
_cell_length_b   8.82648673
_cell_length_c   8.06697652
_cell_angle_alpha   90.00000000
_cell_angle_beta   90.00000000
_cell_angle_gamma   119.99999388
_symmetry_Int_Tables_number   1
_chemical_formula_structural   MnNb12V22Ir
_chemical_formula_sum   'Mn1 Nb12 V22 Ir1'
_cell_volume   544.27359288
_cell_formula_units_Z   1
loop_
 _symmetry_equiv_pos_site_id
 _symmetry_equiv_pos_as_xyz
  1  'x, y, z'
loop_
 _atom_site_type_symbol
 _atom_site_label
 _atom_site_symmetry_multiplicity
 _atom_site_fract_x
 _atom_site_fract_y
 _atom_site_fract_z
 _atom_site_occupancy
  Mn  Mn0  1  0.00000000  0.00000000  0.50000000  1
  Nb  Nb0  1  0.33319784  1.00000000  0.06055965  1
  Nb  Nb1  1  0.66680216  0.00000000  0.93944035  1
  Nb  Nb2  1  1.00000000  0.33319784  0.06055965  1
  Nb  Nb3  1  0.66490099  0.00000000  0.56048785  1
  Nb  Nb4  1  1.00000000  0.33509901  0.43951215  1
  Nb  Nb5  1  0.00000000  0.66680216  0.93944035  1
  Nb  Nb6  1  0.33509901  1.00000000  0.43951215  1
  Nb  Nb7  1  0.00000000  0.66490099  0.56048785  1
  Nb  Nb8  1  0.66680216  0.66680216  0.06055965  1
  Nb  Nb9  1  0.33319784  0.33319784  0.93944035  1
  Nb  Nb10  1  0.33509901  0.33509901  0.56048785  1
  Nb  Nb11  1  0.66490099  0.66490099  0.43951215  1
  V  V0  1  0.16377679  0.49636088  0.74972530  1
  V  V1  1  0.83622321  0.50363912  0.25027470  1
  V  V2  1  0.50363912  0.66741590  0.74972530  1
  V  V3  1  0.49636088  0.16377679  0.74972530  1
  V  V4  1  0.49636088  0.33258410  0.25027470  1
  V  V5  1  0.50363912  0.83622321  0.25027470  1
  V  V6  1  0.33258410  0.83622321  0.74972530  1
  V  V7  1  0.66741590  0.50363912  0.74972530  1
  V  V8  1  0.66741590  0.16377679  0.25027470  1
  V  V9  1  0.33258410  0.49636088  0.25027470  1
  V  V10  1  0.83622321  0.33258410  0.74972530  1
  V  V11  1  0.16377679  0.66741590  0.25027470  1
  V  V12  1  0.33333300  0.66666700  0.50000000  1
  V  V13  1  0.66666700  0.33333300  0.50000000  1
  V  V14  1  0.66666700  0.33333300  0.00000000  1
  V  V15  1  0.33333300  0.66666700  0.00000000  1
  V  V16  1  0.16682860  0.00000000  0.74018532  1
  V  V17  1  0.83317140  1.00000000  0.25981468  1
  V  V18  1  0.00000000  0.16682860  0.74018532  1
  V  V19  1  1.00000000  0.83317140  0.25981468  1
  V  V20  1  0.83317140  0.83317140  0.74018532  1
  V  V21  1  0.16682860  0.16682860  0.25981468  1
  Ir  Ir0  1  0.00000000  0.00000000  0.00000000  1
loop_
_geom_bond_atom_site_label_1
_geom_bond_atom_site_label_2
_geom_bond_distance
_geom_bond_site_symmetry_2
Mn0 V18 2.433611 1_555
Mn0 V19 2.433611 1_445
Mn0 V16 2.433611 1_555
Mn0 V17 2.433611 1_445
Mn0 V20 2.433611 1_445
Mn0 V21 2.433611 1_555
Mn0 Nb4 2.997727 1_455
Mn0 Nb7 2.997727 1_545
Mn0 Nb6 2.997727 1_545
Mn0 Nb3 2.997727 1_455
Mn0 Nb10 2.997727 1_555
Mn0 Nb11 2.997727 1_445
Nb0 V6 2.892992 1_554
Nb0 V3 2.892993 1_564
Nb0 V4 2.967500 1_565
Nb0 V11 2.967500 1_555
Nb0 V16 2.972500 1_564
Nb0 V5 2.978224 1_555
Nb0 V8 2.978225 1_565
Nb0 V15 2.983032 1_555
Nb0 V14 2.983036 1_565
Nb0 V21 3.011753 1_565
Nb0 V19 3.011753 1_455
Nb0 Nb6 3.057047 1_555
Nb0 Nb9 3.099023 1_564
Nb0 Nb5 3.099023 1_554
Nb0 Nb1 3.102428 1_564
Nb1 V8 2.892992 1_556
Nb1 V5 2.892993 1_546
Nb1 V2 2.967500 1_545
Nb1 V10 2.967500 1_555
Nb1 V17 2.972500 1_546
Nb1 V3 2.978224 1_555
Nb1 V6 2.978225 1_545
Nb1 V14 2.983032 1_556
Nb1 V15 2.983036 1_546
Nb1 V20 3.011753 1_545
Nb1 V18 3.011753 1_655
Nb1 Nb3 3.057047 1_555
Nb1 Nb8 3.099023 1_546
Nb1 Nb2 3.099023 1_556
Nb2 V10 2.892992 1_554
Nb2 V0 2.892993 1_654
Nb2 V9 2.967500 1_655
Nb2 V8 2.967500 1_555
Nb2 V18 2.972500 1_654
Nb2 V1 2.978224 1_555
Nb2 V11 2.978224 1_655
Nb2 V14 2.983032 1_555
Nb2 V15 2.983036 1_655
Nb2 V21 3.011753 1_655
Nb2 V17 3.011753 1_545
Nb2 Nb4 3.057047 1_555
Nb2 Nb9 3.099023 1_654
Nb2 Nb5 3.102428 1_654
Nb3 V17 2.844133 1_545
Nb3 V8 2.884528 1_555
Nb3 V5 2.884529 1_545
Nb3 V20 2.943234 1_545
Nb3 V18 2.943234 1_655
Nb3 V3 2.963710 1_555
Nb3 V6 2.963710 1_545
Nb3 V2 2.965719 1_545
Nb3 V10 2.965719 1_555
Nb3 V13 2.974690 1_555
Nb3 V12 2.974695 1_545
Nb3 Nb6 3.070225 1_545
Nb3 Nb4 3.114589 1_555
Nb4 V18 2.844133 1_655
Nb4 V10 2.884529 1_555
Nb4 V0 2.884529 1_655
Nb4 V21 2.943234 1_655
Nb4 V17 2.943234 1_545
Nb4 V1 2.963710 1_555
Nb4 V11 2.963710 1_655
Nb4 V9 2.965719 1_655
Nb4 V8 2.965719 1_555
Nb4 V13 2.974691 1_555
Nb4 V12 2.974695 1_655
Nb4 Nb7 3.070224 1_655
Nb5 V11 2.892992 1_556
Nb5 V1 2.892993 1_456
Nb5 V7 2.967500 1_455
Nb5 V6 2.967500 1_555
Nb5 V19 2.972500 1_456
Nb5 V0 2.978224 1_555
Nb5 V10 2.978224 1_455
Nb5 V15 2.983032 1_556
Nb5 V14 2.983036 1_456
Nb5 V20 3.011753 1_455
Nb5 V16 3.011753 1_565
Nb5 Nb7 3.057047 1_555
Nb5 Nb8 3.099023 1_456
Nb6 V16 2.844133 1_565
Nb6 V6 2.884528 1_555
Nb6 V3 2.884529 1_565
Nb6 V21 2.943234 1_565
Nb6 V19 2.943234 1_455
Nb6 V5 2.963710 1_555
Nb6 V8 2.963710 1_565
Nb6 V4 2.965719 1_565
Nb6 V11 2.965719 1_555
Nb6 V12 2.974690 1_555
Nb6 V13 2.974695 1_565
Nb6 Nb7 3.114589 1_555
Nb7 V19 2.844133 1_455
Nb7 V11 2.884529 1_555
Nb7 V1 2.884529 1_455
Nb7 V20 2.943234 1_455
Nb7 V16 2.943234 1_565
Nb7 V0 2.963710 1_555
Nb7 V10 2.963710 1_455
Nb7 V7 2.965719 1_455
Nb7 V6 2.965719 1_555
Nb7 V12 2.974691 1_555
Nb7 V13 2.974695 1_455
Nb8 V7 2.892992 1_554
Nb8 V2 2.892992 1_554
Nb8 V5 2.967500 1_555
Nb8 V1 2.967500 1_555
Nb8 V20 2.972500 1_554
Nb8 V4 2.978224 1_555
Nb8 V9 2.978225 1_555
Nb8 V14 2.983040 1_555
Nb8 V15 2.983041 1_555
Nb8 V17 3.011753 1_555
Nb8 V19 3.011753 1_555
Nb8 Nb9 3.102428 1_554
Nb9 V9 2.892992 1_556
Nb9 V4 2.892992 1_556
Nb9 V3 2.967500 1_555
Nb9 V0 2.967500 1_555
Nb9 V21 2.972500 1_556
Nb9 V2 2.978224 1_555
Nb9 V7 2.978225 1_555
Nb9 V15 2.983040 1_556
Nb9 V14 2.983041 1_556
Nb9 V16 3.011753 1_555
Nb9 V18 3.011753 1_555
Nb10 V21 2.844133 1_555
Nb10 V9 2.884528 1_555
Nb10 V4 2.884529 1_555
Nb10 V16 2.943234 1_555
Nb10 V18 2.943234 1_555
Nb10 V2 2.963710 1_555
Nb10 V7 2.963710 1_555
Nb10 V3 2.965719 1_555
Nb10 V0 2.965719 1_555
Nb10 V12 2.974699 1_555
Nb10 V13 2.974699 1_555
Nb10 Nb9 3.057047 1_555
Nb10 Nb11 3.070225 1_555
Nb10 Nb6 3.114589 1_545
Nb10 Nb4 3.114589 1_455
Nb11 V20 2.844133 1_555
Nb11 V7 2.884528 1_555
Nb11 V2 2.884529 1_555
Nb11 V17 2.943234 1_555
Nb11 V19 2.943234 1_555
Nb11 V4 2.963710 1_555
Nb11 V9 2.963710 1_555
Nb11 V5 2.965719 1_555
Nb11 V1 2.965719 1_555
Nb11 V13 2.974699 1_555
Nb11 V12 2.974699 1_555
Nb11 Nb8 3.057047 1_555
Nb11 Nb3 3.114589 1_565
Nb11 Nb7 3.114589 1_655
V0 V10 2.503808 1_455
V0 V12 2.511582 1_555
V0 V15 2.515138 1_556
V0 V18 2.520123 1_555
V0 V6 2.597914 1_555
V0 V2 2.597914 1_555
V1 V11 2.503808 1_655
V1 V13 2.511582 1_555
V1 V14 2.515138 1_555
V1 V19 2.520123 1_555
V1 V8 2.597914 1_555
V1 V4 2.597914 1_555
V2 V7 2.503807 1_555
V2 V20 2.520123 1_555
V2 V6 2.597914 1_555
V3 V6 2.503807 1_545
V3 V7 2.597914 1_555
V4 V9 2.503807 1_555
V4 V8 2.597914 1_555
V5 V8 2.503807 1_565
V5 V9 2.597914 1_555
V10 V13 2.511579 1_555
V10 V14 2.515135 1_556
V10 V18 2.520123 1_655
V10 V7 2.597914 1_555
V10 V3 2.597914 1_555
V11 V12 2.511579 1_555
V11 V15 2.515135 1_555
V11 V19 2.520123 1_455
V11 V9 2.597914 1_555
V11 V5 2.597914 1_555
V12 V6 2.511579 1_555
V12 V5 2.511582 1_555
V12 V9 2.511584 1_555
V12 V2 2.511584 1_555
V13 V8 2.511579 1_555
V13 V3 2.511582 1_555
V13 V7 2.511584 1_555
V13 V4 2.511584 1_555
V14 V8 2.515135 1_555
V14 V3 2.515138 1_554
V14 V7 2.515140 1_554
V14 V4 2.515141 1_555
V15 V6 2.515135 1_554
V15 V5 2.515138 1_555
V15 V9 2.515140 1_555
V15 V2 2.515141 1_554
V16 V6 2.520123 1_545
V16 V3 2.520123 1_555
V16 V18 2.550463 1_555
V16 V20 2.550463 1_445
V17 V8 2.520123 1_565
V17 V5 2.520123 1_555
V17 V19 2.550463 1_555
V17 V21 2.550463 1_665
V18 V20 2.550463 1_445
V19 V21 2.550463 1_665
V20 V7 2.520123 1_555
V21 V9 2.520123 1_555
V21 V4 2.520123 1_555
Ir0 V19 2.561477 1_445
Ir0 V18 2.561477 1_554
Ir0 V17 2.561477 1_445
Ir0 V16 2.561477 1_554
Ir0 V21 2.561477 1_555
Ir0 V20 2.561477 1_444
Ir0 Nb2 2.981266 1_455
Ir0 Nb5 2.981266 1_544
Ir0 Nb0 2.981267 1_545
Ir0 Nb1 2.981267 1_454
Ir0 Nb9 2.981267 1_554
Ir0 Nb8 2.981267 1_445
