# generated using pymatgen
data_Ti10Sn6P
_symmetry_space_group_name_H-M   'P 1'
_cell_length_a   8.09999851
_cell_length_b   8.09999859
_cell_length_c   5.48952817
_cell_angle_alpha   90.00000000
_cell_angle_beta   90.00000000
_cell_angle_gamma   119.99999969
_symmetry_Int_Tables_number   1
_chemical_formula_structural   Ti10Sn6P
_chemical_formula_sum   'Ti10 Sn6 P1'
_cell_volume   311.91447765
_cell_formula_units_Z   1
loop_
 _symmetry_equiv_pos_site_id
 _symmetry_equiv_pos_as_xyz
  1  'x, y, z'
loop_
 _atom_site_type_symbol
 _atom_site_label
 _atom_site_symmetry_multiplicity
 _atom_site_fract_x
 _atom_site_fract_y
 _atom_site_fract_z
 _atom_site_occupancy
  Ti  Ti0  1  0.66666700  0.33333300  0.50000000  1
  Ti  Ti1  1  0.33333300  0.66666700  0.50000000  1
  Ti  Ti2  1  0.33333300  0.66666700  0.00000000  1
  Ti  Ti3  1  0.66666700  0.33333300  0.00000000  1
  Ti  Ti4  1  0.75146062  0.75146062  0.24377861  1
  Ti  Ti5  1  0.24853938  0.00000000  0.24377861  1
  Ti  Ti6  1  0.00000000  0.24853938  0.24377861  1
  Ti  Ti7  1  0.24853938  0.24853938  0.75622139  1
  Ti  Ti8  1  0.75146062  0.00000000  0.75622139  1
  Ti  Ti9  1  0.00000000  0.75146062  0.75622139  1
  Sn  Sn0  1  0.39398728  0.39398728  0.24938773  1
  Sn  Sn1  1  0.60601272  0.00000000  0.24938773  1
  Sn  Sn2  1  0.00000000  0.60601272  0.24938773  1
  Sn  Sn3  1  0.60601272  0.60601272  0.75061227  1
  Sn  Sn4  1  0.39398728  0.00000000  0.75061227  1
  Sn  Sn5  1  1.00000000  0.39398728  0.75061227  1
  P  P0  1  0.00000000  0.00000000  0.50000000  1
loop_
_geom_bond_atom_site_label_1
_geom_bond_atom_site_label_2
_geom_bond_distance
_geom_bond_site_symmetry_2
Ti0 Ti3 2.744764 1_556
Ti0 Ti3 2.744764 1_555
Ti1 Ti2 2.744764 1_555
Ti1 Ti2 2.744764 1_556
Sn0 Ti6 2.795273 1_555
Sn0 Ti5 2.795273 1_555
Sn0 Ti3 2.842377 1_555
Sn0 Ti2 2.842377 1_555
Sn0 Ti0 2.845621 1_555
Sn0 Ti1 2.845621 1_555
Sn0 Ti4 2.895697 1_555
Sn0 Ti7 2.952489 1_554
Sn0 Ti7 3.021432 1_555
Sn1 Ti4 2.795273 1_545
Sn1 Ti6 2.795273 1_655
Sn1 Ti3 2.842370 1_555
Sn1 Ti2 2.842373 1_545
Sn1 Ti0 2.845614 1_555
Sn1 Ti1 2.845617 1_545
Sn1 Ti5 2.895697 1_555
Sn1 Ti8 2.952489 1_554
Sn1 Ti8 3.021432 1_555
Sn2 Ti4 2.795273 1_455
Sn2 Ti5 2.795273 1_565
Sn2 Ti2 2.842370 1_555
Sn2 Ti3 2.842373 1_455
Sn2 Ti1 2.845614 1_555
Sn2 Ti0 2.845617 1_455
Sn2 Ti6 2.895697 1_555
Sn2 Ti9 2.952489 1_554
Sn2 Ti9 3.021432 1_555
Sn3 Ti9 2.795273 1_655
Sn3 Ti8 2.795273 1_565
Sn3 Ti2 2.842377 1_556
Sn3 Ti3 2.842377 1_556
Sn3 Ti1 2.845621 1_555
Sn3 Ti0 2.845621 1_555
Sn3 Ti7 2.895697 1_555
Sn3 Ti4 2.952489 1_556
Sn3 Ti4 3.021432 1_555
Sn4 Ti7 2.795273 1_555
Sn4 Ti9 2.795273 1_545
Sn4 Ti2 2.842370 1_546
Sn4 Ti3 2.842373 1_556
Sn4 Ti1 2.845614 1_545
Sn4 Ti0 2.845617 1_555
Sn4 Ti8 2.895697 1_555
Sn4 Ti5 2.952489 1_556
Sn4 Ti5 3.021432 1_555
Sn5 Ti7 2.795273 1_655
Sn5 Ti8 2.795273 1_555
Sn5 Ti3 2.842370 1_556
Sn5 Ti2 2.842373 1_656
Sn5 Ti0 2.845614 1_555
Sn5 Ti1 2.845617 1_655
Sn5 Ti9 2.895697 1_655
Sn5 Ti6 2.952489 1_656
Sn5 Ti6 3.021432 1_655
P0 Ti5 2.455848 1_555
P0 Ti8 2.455848 1_455
P0 Ti6 2.455848 1_555
P0 Ti4 2.455848 1_445
P0 Ti9 2.455848 1_545
P0 Ti7 2.455848 1_555
