# generated using pymatgen
data_Hf5(ZrPt5)2
_symmetry_space_group_name_H-M   'P 1'
_cell_length_a   8.14178014
_cell_length_b   8.14178090
_cell_length_c   9.57523281
_cell_angle_alpha   90.00000000
_cell_angle_beta   90.00000000
_cell_angle_gamma   107.82848714
_symmetry_Int_Tables_number   1
_chemical_formula_structural   Hf5(ZrPt5)2
_chemical_formula_sum   'Hf10 Zr4 Pt20'
_cell_volume   604.24728790
_cell_formula_units_Z   2
loop_
 _symmetry_equiv_pos_site_id
 _symmetry_equiv_pos_as_xyz
  1  'x, y, z'
loop_
 _atom_site_type_symbol
 _atom_site_label
 _atom_site_symmetry_multiplicity
 _atom_site_fract_x
 _atom_site_fract_y
 _atom_site_fract_z
 _atom_site_occupancy
  Hf  Hf0  1  0.68989998  0.31010002  0.00000000  1
  Hf  Hf1  1  0.31010002  0.68989998  0.00000000  1
  Hf  Hf2  1  0.81010002  0.18989998  0.50000000  1
  Hf  Hf3  1  0.18989998  0.81010002  0.50000000  1
  Hf  Hf4  1  0.00000000  0.00000000  0.00000000  1
  Hf  Hf5  1  0.50000000  0.50000000  0.50000000  1
  Hf  Hf6  1  0.00199868  0.50199868  0.25000000  1
  Hf  Hf7  1  0.99800132  0.49800132  0.75000000  1
  Hf  Hf8  1  0.49800132  0.99800132  0.75000000  1
  Hf  Hf9  1  0.50199868  0.00199868  0.25000000  1
  Zr  Zr0  1  0.31687244  0.31687244  0.18396167  1
  Zr  Zr1  1  0.68312756  0.68312756  0.81603833  1
  Zr  Zr2  1  0.18312756  0.18312756  0.68396167  1
  Zr  Zr3  1  0.81687244  0.81687244  0.31603833  1
  Pt  Pt0  1  0.85342344  0.14589642  0.20855328  1
  Pt  Pt1  1  0.14657656  0.85410358  0.79144672  1
  Pt  Pt2  1  0.64657656  0.35410358  0.70855328  1
  Pt  Pt3  1  0.64589642  0.35342344  0.29144672  1
  Pt  Pt4  1  0.35342344  0.64589642  0.29144672  1
  Pt  Pt5  1  0.35410358  0.64657656  0.70855328  1
  Pt  Pt6  1  0.85410358  0.14657656  0.79144672  1
  Pt  Pt7  1  0.14589642  0.85342344  0.20855328  1
  Pt  Pt8  1  0.93688171  0.64417375  0.99977146  1
  Pt  Pt9  1  0.06311829  0.35582625  0.00022854  1
  Pt  Pt10  1  0.56311829  0.85582625  0.49977146  1
  Pt  Pt11  1  0.14417375  0.43688171  0.50022854  1
  Pt  Pt12  1  0.43688171  0.14417375  0.50022854  1
  Pt  Pt13  1  0.85582625  0.56311829  0.49977146  1
  Pt  Pt14  1  0.35582625  0.06311829  0.00022854  1
  Pt  Pt15  1  0.64417375  0.93688171  0.99977146  1
  Pt  Pt16  1  0.10699160  0.10699160  0.39326367  1
  Pt  Pt17  1  0.89300840  0.89300840  0.60673633  1
  Pt  Pt18  1  0.39300840  0.39300840  0.89326367  1
  Pt  Pt19  1  0.60699160  0.60699160  0.10673633  1
loop_
_geom_bond_atom_site_label_1
_geom_bond_atom_site_label_2
_geom_bond_distance
_geom_bond_site_symmetry_2
Hf0 Pt14 2.844749 1_555
Hf0 Pt8 2.844749 1_554
Hf0 Pt3 2.849210 1_555
Hf0 Pt2 2.849210 1_554
Hf0 Pt18 2.888306 1_554
Hf0 Pt19 2.888306 1_555
Hf0 Pt6 2.938977 1_554
Hf0 Pt0 2.938977 1_555
Hf0 Pt9 2.946074 1_655
Hf0 Pt15 2.946074 1_544
Hf1 Pt15 2.844749 1_554
Hf1 Pt9 2.844749 1_555
Hf1 Pt5 2.849210 1_554
Hf1 Pt4 2.849210 1_555
Hf1 Pt19 2.888306 1_555
Hf1 Pt18 2.888306 1_554
Hf1 Pt7 2.938977 1_555
Hf1 Pt1 2.938977 1_554
Hf1 Pt8 2.946074 1_454
Hf1 Pt14 2.946074 1_565
Hf2 Pt11 2.844749 1_655
Hf2 Pt10 2.844749 1_545
Hf2 Pt6 2.849210 1_555
Hf2 Pt0 2.849210 1_555
Hf2 Pt16 2.888306 1_655
Hf2 Pt17 2.888306 1_545
Hf2 Pt3 2.938977 1_555
Hf2 Pt2 2.938977 1_555
Hf2 Pt12 2.946074 1_555
Hf2 Pt13 2.946074 1_555
Hf3 Pt13 2.844749 1_455
Hf3 Pt12 2.844749 1_565
Hf3 Pt7 2.849210 1_555
Hf3 Pt1 2.849210 1_555
Hf3 Pt17 2.888306 1_455
Hf3 Pt16 2.888306 1_565
Hf3 Pt5 2.938977 1_555
Hf3 Pt4 2.938977 1_555
Hf3 Pt10 2.946074 1_555
Hf3 Pt11 2.946074 1_555
Hf4 Pt0 2.773270 1_455
Hf4 Pt1 2.773270 1_544
Hf4 Pt7 2.773270 1_545
Hf4 Pt6 2.773270 1_454
Hf4 Pt14 2.783057 1_555
Hf4 Pt15 2.783057 1_444
Hf4 Pt9 2.783057 1_555
Hf4 Pt8 2.783057 1_444
Hf5 Pt2 2.773270 1_555
Hf5 Pt4 2.773270 1_555
Hf5 Pt5 2.773270 1_555
Hf5 Pt3 2.773270 1_555
Hf5 Pt11 2.783057 1_555
Hf5 Pt13 2.783057 1_555
Hf5 Pt10 2.783057 1_555
Hf5 Pt12 2.783057 1_555
Hf6 Pt4 2.768402 1_555
Hf6 Pt7 2.768403 1_555
Hf6 Pt11 2.781656 1_555
Hf6 Pt8 2.781656 1_454
Hf6 Pt13 2.783246 1_455
Hf6 Pt9 2.783246 1_555
Hf6 Pt3 2.806988 1_455
Hf6 Pt0 2.806989 1_455
Hf7 Pt2 2.768402 1_555
Hf7 Pt6 2.768403 1_555
Hf7 Pt13 2.781656 1_555
Hf7 Pt9 2.781656 1_656
Hf7 Pt11 2.783246 1_655
Hf7 Pt8 2.783246 1_555
Hf7 Pt5 2.806988 1_655
Hf7 Pt1 2.806989 1_655
Hf8 Pt1 2.768402 1_555
Hf8 Pt5 2.768403 1_555
Hf8 Pt14 2.781656 1_566
Hf8 Pt10 2.781656 1_555
Hf8 Pt15 2.783246 1_555
Hf8 Pt12 2.783246 1_565
Hf8 Pt6 2.806988 1_565
Hf8 Pt2 2.806989 1_565
Hf9 Pt0 2.768402 1_555
Hf9 Pt3 2.768403 1_555
Hf9 Pt15 2.781656 1_544
Hf9 Pt12 2.781656 1_555
Hf9 Pt14 2.783246 1_555
Hf9 Pt10 2.783246 1_545
Hf9 Pt7 2.806988 1_545
Hf9 Pt4 2.806989 1_545
Pt0 Zr3 2.799257 1_545
Pt1 Zr2 2.799257 1_565
Pt2 Zr1 2.799257 1_555
Pt3 Zr0 2.799256 1_555
Pt4 Zr0 2.799257 1_555
Pt5 Zr1 2.799256 1_555
Pt6 Zr2 2.799256 1_655
Pt7 Zr3 2.799256 1_455
Pt8 Zr1 2.804516 1_555
Pt9 Zr0 2.804516 1_555
Pt10 Zr3 2.804516 1_555
Pt11 Zr2 2.804516 1_555
Pt12 Zr2 2.804516 1_555
Pt13 Zr3 2.804516 1_555
Pt14 Zr0 2.804516 1_555
Pt15 Zr1 2.804516 1_555
Pt16 Zr0 2.840505 1_555
Pt16 Zr2 2.877689 1_555
Pt16 Zr3 2.879095 1_445
Pt17 Zr1 2.840505 1_555
Pt17 Zr3 2.877689 1_555
Pt17 Zr2 2.879095 1_665
Pt18 Zr2 2.840505 1_555
Pt18 Zr0 2.877689 1_556
Pt18 Zr1 2.879095 1_555
Pt19 Zr3 2.840505 1_555
Pt19 Zr1 2.877689 1_554
Pt19 Zr0 2.879095 1_555
