# generated using pymatgen
data_KBaAsS3
_symmetry_space_group_name_H-M   'P 1'
_cell_length_a   9.01551359
_cell_length_b   9.06407239
_cell_length_c   8.99389050
_cell_angle_alpha   72.40347006
_cell_angle_beta   90.00000000
_cell_angle_gamma   90.00000000
_symmetry_Int_Tables_number   1
_chemical_formula_structural   KBaAsS3
_chemical_formula_sum   'K4 Ba4 As4 S12'
_cell_volume   700.56680919
_cell_formula_units_Z   4
loop_
 _symmetry_equiv_pos_site_id
 _symmetry_equiv_pos_as_xyz
  1  'x, y, z'
loop_
 _atom_site_type_symbol
 _atom_site_label
 _atom_site_symmetry_multiplicity
 _atom_site_fract_x
 _atom_site_fract_y
 _atom_site_fract_z
 _atom_site_occupancy
  K  K0  1  0.60144990  0.20864572  0.40673634  1
  K  K1  1  0.10144990  0.29135428  0.59326366  1
  K  K2  1  0.39855010  0.79135428  0.59326366  1
  K  K3  1  0.89855010  0.70864572  0.40673634  1
  Ba  Ba0  1  0.21787253  0.46672983  0.07566088  1
  Ba  Ba1  1  0.71787253  0.03327017  0.92433912  1
  Ba  Ba2  1  0.78212747  0.53327017  0.92433912  1
  Ba  Ba3  1  0.28212747  0.96672983  0.07566088  1
  As  As0  1  0.96465980  0.14423575  0.24439697  1
  As  As1  1  0.46465980  0.35576425  0.75560303  1
  As  As2  1  0.03534020  0.85576425  0.75560303  1
  As  As3  1  0.53534020  0.64423575  0.24439697  1
  S  S0  1  0.69309096  0.39311065  0.65412418  1
  S  S1  1  0.19309096  0.10688935  0.34587582  1
  S  S2  1  0.30690904  0.60688935  0.34587582  1
  S  S3  1  0.80690904  0.89311065  0.65412418  1
  S  S4  1  0.51056907  0.27841266  0.02097575  1
  S  S5  1  0.01056907  0.22158734  0.97902425  1
  S  S6  1  0.48943093  0.72158734  0.97902425  1
  S  S7  1  0.98943093  0.77841266  0.02097575  1
  S  S8  1  0.90668786  0.37424161  0.27412292  1
  S  S9  1  0.40668786  0.12575839  0.72587708  1
  S  S10  1  0.09331214  0.62575839  0.72587708  1
  S  S11  1  0.59331214  0.87424161  0.27412292  1
loop_
_geom_bond_atom_site_label_1
_geom_bond_atom_site_label_2
_geom_bond_distance
_geom_bond_site_symmetry_2
K0 S8 3.188399 1_555
K0 S9 3.253065 1_555
K0 S0 3.267725 1_555
K0 S4 3.432493 1_555
K0 S3 3.565652 1_545
K0 S11 3.577864 1_545
K1 S9 3.188399 1_555
K1 S8 3.253065 1_455
K1 S1 3.267725 1_555
K1 S5 3.432493 1_555
K1 S2 3.565652 1_555
K1 S10 3.577864 1_555
K2 S10 3.188399 1_555
K2 S11 3.253065 1_555
K2 S2 3.267725 1_555
K2 S6 3.432493 1_555
K2 S1 3.565652 1_565
K2 S9 3.577864 1_565
K3 S11 3.188399 1_555
K3 S10 3.253065 1_655
K3 S3 3.267725 1_555
K3 S7 3.432493 1_555
K3 S0 3.565652 1_555
K3 S8 3.577864 1_555
Ba0 S2 3.167229 1_555
Ba0 S5 3.217649 1_554
Ba0 S10 3.239424 1_554
Ba0 S4 3.259814 1_555
Ba0 S8 3.294670 1_455
Ba0 S6 3.297219 1_554
Ba0 S7 3.409498 1_455
Ba0 S1 3.435361 1_555
Ba1 S3 3.167229 1_545
Ba1 S4 3.217649 1_556
Ba1 S11 3.239424 1_546
Ba1 S5 3.259814 1_655
Ba1 S9 3.294670 1_555
Ba1 S7 3.297219 1_546
Ba1 S6 3.409498 1_545
Ba1 S0 3.435361 1_555
Ba2 S0 3.167229 1_555
Ba2 S7 3.217649 1_556
Ba2 S8 3.239424 1_556
Ba2 S6 3.259814 1_555
Ba2 S10 3.294670 1_655
Ba2 S4 3.297219 1_556
Ba2 S5 3.409498 1_655
Ba2 S3 3.435361 1_555
Ba3 S1 3.167229 1_565
Ba3 S6 3.217649 1_554
Ba3 S9 3.239424 1_564
Ba3 S7 3.259814 1_455
Ba3 S11 3.294670 1_555
Ba3 S5 3.297219 1_564
Ba3 S4 3.409498 1_565
Ba3 S2 3.435361 1_555
As0 S1 2.236519 1_655
As0 S8 2.242317 1_555
As0 S5 2.312489 1_654
As1 S0 2.236519 1_555
As1 S9 2.242317 1_555
As1 S4 2.312489 1_556
As2 S3 2.236519 1_455
As2 S10 2.242317 1_555
As2 S7 2.312489 1_456
As3 S2 2.236519 1_555
As3 S11 2.242317 1_555
As3 S6 2.312489 1_554
