# generated using pymatgen
data_NaCaH9W
_symmetry_space_group_name_H-M   'P 1'
_cell_length_a   8.59315381
_cell_length_b   8.63528956
_cell_length_c   5.00178535
_cell_angle_alpha   90.00000000
_cell_angle_beta   90.00000000
_cell_angle_gamma   119.44934250
_symmetry_Int_Tables_number   1
_chemical_formula_structural   NaCaH9W
_chemical_formula_sum   'Na3 Ca3 H27 W3'
_cell_volume   323.19775593
_cell_formula_units_Z   3
loop_
 _symmetry_equiv_pos_site_id
 _symmetry_equiv_pos_as_xyz
  1  'x, y, z'
loop_
 _atom_site_type_symbol
 _atom_site_label
 _atom_site_symmetry_multiplicity
 _atom_site_fract_x
 _atom_site_fract_y
 _atom_site_fract_z
 _atom_site_occupancy
  Na  Na0  1  0.73533646  0.74539341  0.50000000  1
  Na  Na1  1  0.27997572  0.00127823  0.50000000  1
  Na  Na2  1  0.58312431  0.96941082  0.00000000  1
  Ca  Ca0  1  0.98913801  0.25121966  0.50000000  1
  Ca  Ca1  1  0.00637368  0.61617929  0.00000000  1
  Ca  Ca2  1  0.41061727  0.38943591  0.00000000  1
  H  H0  1  0.82195295  0.34984536  0.74934743  1
  H  H1  1  0.67201892  0.48839762  0.75496036  1
  H  H2  1  0.53305942  0.20692079  0.75588072  1
  H  H3  1  0.17310976  0.51049020  0.24540536  1
  H  H4  1  0.53305942  0.20692079  0.24411928  1
  H  H5  1  0.82195295  0.34984536  0.25065257  1
  H  H6  1  0.67201892  0.48839762  0.24503964  1
  H  H7  1  0.31895103  0.79022045  0.75604854  1
  H  H8  1  0.46482141  0.64837726  0.74903092  1
  H  H9  1  0.21159923  0.00889920  0.00000000  1
  H  H10  1  0.81330623  0.80246873  0.00000000  1
  H  H11  1  0.00040290  0.20489127  0.00000000  1
  H  H12  1  0.85656007  0.99731539  0.24393741  1
  H  H13  1  0.15290611  0.15004470  0.75072997  1
  H  H14  1  0.01231087  0.86288682  0.75424881  1
  H  H15  1  0.01231087  0.86288682  0.24575119  1
  H  H16  1  0.15290611  0.15004470  0.24927003  1
  H  H17  1  0.85656007  0.99731539  0.75606259  1
  H  H18  1  0.12658652  0.66581287  0.50000000  1
  H  H19  1  0.51724499  0.84840946  0.50000000  1
  H  H20  1  0.30846717  0.44470364  0.50000000  1
  H  H21  1  0.46934981  0.34108018  0.50000000  1
  H  H22  1  0.86371653  0.55164367  0.50000000  1
  H  H23  1  0.67351042  0.14694530  0.50000000  1
  H  H24  1  0.17310976  0.51049020  0.75459464  1
  H  H25  1  0.31895103  0.79022045  0.24395146  1
  H  H26  1  0.46482141  0.64837726  0.25096908  1
  W  W0  1  0.67293159  0.34718437  0.50000000  1
  W  W1  1  0.31870846  0.65018694  0.50000000  1
  W  W2  1  0.00822562  0.00585786  0.00000000  1
loop_
_geom_bond_atom_site_label_1
_geom_bond_atom_site_label_2
_geom_bond_distance
_geom_bond_site_symmetry_2
Ca0 H17 2.299854 1_545
Ca0 H12 2.299854 1_545
Ca0 H16 2.350639 1_655
Ca0 H13 2.350639 1_655
Ca0 H0 2.355389 1_555
Ca0 H5 2.355389 1_555
Ca0 H24 2.377618 1_655
Ca0 H3 2.377618 1_655
Ca0 H23 2.401162 1_555
Ca0 H20 2.411043 1_655
Ca0 H11 2.542039 1_655
Ca0 H11 2.542039 1_656
Ca1 H3 2.382921 1_555
Ca1 H24 2.382921 1_554
Ca1 H5 2.405982 1_455
Ca1 H0 2.405982 1_454
Ca1 H15 2.438280 1_555
Ca1 H14 2.438280 1_554
Ca1 H25 2.644403 1_555
Ca1 H7 2.644403 1_554
Ca2 H6 2.321774 1_555
Ca2 H1 2.321774 1_554
Ca2 H26 2.401757 1_555
Ca2 H8 2.401757 1_554
Ca2 H13 2.496111 1_554
Ca2 H16 2.496111 1_555
Ca2 H4 2.590863 1_555
Ca2 H2 2.590863 1_554
Ca2 H21 2.625028 1_554
Ca2 H21 2.625028 1_555
H0 W0 1.779579 1_555
H1 W0 1.767123 1_555
H1 Na0 2.379074 1_555
H2 W0 1.765855 1_555
H2 Na1 2.392418 1_555
H2 Na2 2.598096 1_546
H3 W1 1.777108 1_555
H4 W0 1.765855 1_555
H4 Na1 2.392418 1_555
H4 Na2 2.598096 1_545
H5 W0 1.779579 1_555
H6 W0 1.767123 1_555
H6 Na0 2.379074 1_555
H7 W1 1.760669 1_555
H7 Na2 2.362724 1_556
H7 Na1 2.382069 1_565
H8 W1 1.774123 1_555
H8 Na0 2.396265 1_555
H9 W2 1.734859 1_555
H9 Na1 2.577219 1_554
H9 Na1 2.577219 1_555
H10 W2 1.731334 1_665
H10 Na0 2.573242 1_554
H10 Na0 2.573242 1_555
H11 W2 1.752739 1_555
H12 W2 1.760159 1_665
H12 Na0 2.286843 1_555
H12 Na2 2.551666 1_555
H13 W2 1.768706 1_556
H13 Na1 2.407217 1_555
H14 W2 1.754707 1_566
H14 Na1 2.373377 1_565
H14 Na0 2.436577 1_455
H15 W2 1.754707 1_565
H15 Na1 2.373377 1_565
H15 Na0 2.436577 1_455
H16 W2 1.768706 1_555
H16 Na1 2.407217 1_555
H17 W2 1.760159 1_666
H17 Na0 2.286843 1_555
H17 Na2 2.551666 1_556
H18 W1 1.721290 1_555
H18 Na1 2.524774 1_565
H19 W1 1.723092 1_555
H19 Na0 2.437803 1_555
H20 W1 1.732835 1_555
H21 W0 1.724105 1_555
H21 Na1 2.561815 1_555
H22 W0 1.720107 1_555
H22 Na0 2.414780 1_555
H23 W0 1.731573 1_555
H24 W1 1.777108 1_555
H25 W1 1.760669 1_555
H25 Na2 2.362724 1_555
H25 Na1 2.382069 1_565
H26 W1 1.774123 1_555
H26 Na0 2.396265 1_555
