# generated using pymatgen
data_ZrScVRe3
_symmetry_space_group_name_H-M   'P 1'
_cell_length_a   5.24309627
_cell_length_b   5.24309658
_cell_length_c   5.24309607
_cell_angle_alpha   60.23546742
_cell_angle_beta   60.23546687
_cell_angle_gamma   60.23547196
_symmetry_Int_Tables_number   1
_chemical_formula_structural   ZrScVRe3
_chemical_formula_sum   'Zr1 Sc1 V1 Re3'
_cell_volume   102.46072984
_cell_formula_units_Z   1
loop_
 _symmetry_equiv_pos_site_id
 _symmetry_equiv_pos_as_xyz
  1  'x, y, z'
loop_
 _atom_site_type_symbol
 _atom_site_label
 _atom_site_symmetry_multiplicity
 _atom_site_fract_x
 _atom_site_fract_y
 _atom_site_fract_z
 _atom_site_occupancy
  Zr  Zr0  1  0.00146841  0.00146841  0.00146841  1
  Sc  Sc0  1  0.24935118  0.24935118  0.24935118  1
  V  V0  1  0.62459551  0.62459551  0.62459551  1
  Re  Re0  1  0.62485358  0.12487874  0.62485358  1
  Re  Re1  1  0.62485358  0.62485358  0.12487874  1
  Re  Re2  1  0.12487874  0.62485358  0.62485358  1
loop_
_geom_bond_atom_site_label_1
_geom_bond_atom_site_label_2
_geom_bond_distance
_geom_bond_site_symmetry_2
Sc0 V0 3.085020 1_554
Sc0 V0 3.085020 1_455
Sc0 V0 3.085020 1_545
Sc0 Zr0 3.177859 1_555
Sc0 Zr0 3.229354 1_556
Sc0 Zr0 3.229354 1_655
Sc0 Zr0 3.229354 1_565
V0 Zr0 3.088724 1_665
V0 Zr0 3.088725 1_566
V0 Zr0 3.088725 1_656
Re0 V0 2.618721 1_555
Re0 V0 2.624377 1_545
Re0 Re1 2.630741 1_555
Re0 Re2 2.630741 1_555
Re0 Re1 2.631005 1_546
Re0 Re2 2.631006 1_645
Re0 Zr0 3.069840 1_655
Re0 Zr0 3.069840 1_556
Re0 Sc0 3.077102 1_556
Re0 Sc0 3.077102 1_655
Re0 Sc0 3.078200 1_555
Re0 Zr0 3.090500 1_656
Re1 V0 2.618720 1_555
Re1 V0 2.624377 1_554
Re1 Re2 2.630740 1_555
Re1 Re2 2.631005 1_654
Re1 Zr0 3.069841 1_565
Re1 Zr0 3.069841 1_655
Re1 Sc0 3.077102 1_655
Re1 Sc0 3.077102 1_565
Re1 Sc0 3.078200 1_555
Re1 Zr0 3.090500 1_665
Re2 V0 2.618720 1_555
Re2 V0 2.624377 1_455
Re2 Zr0 3.069840 1_565
Re2 Zr0 3.069841 1_556
Re2 Sc0 3.077102 1_556
Re2 Sc0 3.077102 1_565
Re2 Sc0 3.078200 1_555
Re2 Zr0 3.090500 1_566
