# generated using pymatgen
data_Si2Se3I2
_symmetry_space_group_name_H-M   'P 1'
_cell_length_a   11.15750228
_cell_length_b   11.15750116
_cell_length_c   9.74992078
_cell_angle_alpha   90.00000000
_cell_angle_beta   90.00000000
_cell_angle_gamma   119.99999780
_symmetry_Int_Tables_number   1
_chemical_formula_structural   Si2Se3I2
_chemical_formula_sum   'Si8 Se12 I8'
_cell_volume   1051.15231922
_cell_formula_units_Z   4
loop_
 _symmetry_equiv_pos_site_id
 _symmetry_equiv_pos_as_xyz
  1  'x, y, z'
loop_
 _atom_site_type_symbol
 _atom_site_label
 _atom_site_symmetry_multiplicity
 _atom_site_fract_x
 _atom_site_fract_y
 _atom_site_fract_z
 _atom_site_occupancy
  Si  Si0  1  0.81175549  0.27678580  0.76808528  1
  Si  Si1  1  0.46503131  0.18824451  0.76808528  1
  Si  Si2  1  0.33333300  0.66666700  0.93939853  1
  Si  Si3  1  0.18824451  0.72321420  0.23191472  1
  Si  Si4  1  0.53496869  0.81175549  0.23191472  1
  Si  Si5  1  0.27678580  0.46503131  0.23191472  1
  Si  Si6  1  0.66666700  0.33333300  0.06060147  1
  Si  Si7  1  0.72321420  0.53496869  0.76808528  1
  Se  Se0  1  0.60472973  0.11203743  0.67961487  1
  Se  Se1  1  0.17231130  0.72657621  0.99941273  1
  Se  Se2  1  0.55426491  0.82768870  0.99941273  1
  Se  Se3  1  0.27342379  0.44573509  0.99941273  1
  Se  Se4  1  0.44573509  0.17231130  0.00058727  1
  Se  Se5  1  0.72657621  0.55426491  0.00058727  1
  Se  Se6  1  0.82768870  0.27342379  0.00058727  1
  Se  Se7  1  0.11203743  0.50730770  0.32038513  1
  Se  Se8  1  0.50730770  0.39527027  0.67961487  1
  Se  Se9  1  0.88796257  0.49269230  0.67961487  1
  Se  Se10  1  0.39527027  0.88796257  0.32038513  1
  Se  Se11  1  0.49269230  0.60472973  0.32038513  1
  I  I0  1  0.97738524  0.21152342  0.68353014  1
  I  I1  1  0.78847658  0.76586182  0.68353014  1
  I  I2  1  0.02261476  0.78847658  0.31646986  1
  I  I3  1  0.76586182  0.97738524  0.31646986  1
  I  I4  1  0.21152342  0.23413818  0.31646986  1
  I  I5  1  0.66666700  0.33333300  0.31075944  1
  I  I6  1  0.33333300  0.66666700  0.68924056  1
  I  I7  1  0.23413818  0.02261476  0.68353014  1
loop_
_geom_bond_atom_site_label_1
_geom_bond_atom_site_label_2
_geom_bond_distance
_geom_bond_site_symmetry_2
Se0 Si0 2.283101 1_555
Se0 Si1 2.285135 1_555
Se1 Si3 2.275611 1_556
Se1 Si2 2.284267 1_555
Se2 Si4 2.275612 1_556
Se2 Si2 2.284275 1_555
Se3 Si5 2.275612 1_556
Se3 Si2 2.284277 1_555
Se4 Si1 2.275612 1_554
Se4 Si6 2.284275 1_555
Se5 Si7 2.275612 1_554
Se5 Si6 2.284277 1_555
Se6 Si0 2.275611 1_554
Se6 Si6 2.284267 1_555
Se7 Si5 2.283094 1_555
Se7 Si3 2.285144 1_555
Se8 Si1 2.283104 1_555
Se8 Si7 2.285143 1_555
Se9 Si7 2.283094 1_555
Se9 Si0 2.285144 1_555
Se10 Si3 2.283101 1_555
Se10 Si4 2.285135 1_555
Se11 Si4 2.283104 1_555
Se11 Si5 2.285143 1_555
I0 Si0 2.443499 1_555
I1 Si7 2.443509 1_555
I2 Si3 2.443499 1_555
I3 Si4 2.443506 1_555
I4 Si5 2.443509 1_555
I5 Si6 2.439020 1_555
I6 Si2 2.439020 1_555
I7 Si1 2.443506 1_555
