# generated using pymatgen
data_LuBiRh2O7
_symmetry_space_group_name_H-M   'P 1'
_cell_length_a   7.13793170
_cell_length_b   7.13793171
_cell_length_c   7.06807230
_cell_angle_alpha   60.32323329
_cell_angle_beta   60.32323325
_cell_angle_gamma   60.70525265
_symmetry_Int_Tables_number   1
_chemical_formula_structural   LuBiRh2O7
_chemical_formula_sum   'Lu2 Bi2 Rh4 O14'
_cell_volume   257.22871973
_cell_formula_units_Z   2
loop_
 _symmetry_equiv_pos_site_id
 _symmetry_equiv_pos_as_xyz
  1  'x, y, z'
loop_
 _atom_site_type_symbol
 _atom_site_label
 _atom_site_symmetry_multiplicity
 _atom_site_fract_x
 _atom_site_fract_y
 _atom_site_fract_z
 _atom_site_occupancy
  Lu  Lu0  1  0.12500000  0.12500000  0.12500000  1
  Lu  Lu1  1  0.12500000  0.12500000  0.62500000  1
  Bi  Bi0  1  0.12500000  0.62500000  0.12500000  1
  Bi  Bi1  1  0.62500000  0.12500000  0.12500000  1
  Rh  Rh0  1  0.62500000  0.62500000  0.62500000  1
  Rh  Rh1  1  0.62500000  0.62500000  0.12500000  1
  Rh  Rh2  1  0.12500000  0.62500000  0.62500000  1
  Rh  Rh3  1  0.62500000  0.12500000  0.62500000  1
  O  O0  1  0.24266736  0.24266736  0.25733264  1
  O  O1  1  0.28716902  0.71945964  0.28685791  1
  O  O2  1  0.96342486  0.96342486  0.53657514  1
  O  O3  1  0.53054036  0.96283098  0.54348556  1
  O  O4  1  0.70966542  0.70966542  0.29033458  1
  O  O5  1  0.96283098  0.53054036  0.54348556  1
  O  O6  1  0.71945964  0.28716902  0.70651444  1
  O  O7  1  0.28657514  0.28657514  0.71342486  1
  O  O8  1  0.71945964  0.28716902  0.28685791  1
  O  O9  1  0.28716902  0.71945964  0.70651444  1
  O  O10  1  0.96283098  0.53054036  0.96314209  1
  O  O11  1  0.54033458  0.54033458  0.95966542  1
  O  O12  1  0.00733264  0.00733264  0.99266736  1
  O  O13  1  0.53054036  0.96283098  0.96314209  1
loop_
_geom_bond_atom_site_label_1
_geom_bond_atom_site_label_2
_geom_bond_distance
_geom_bond_site_symmetry_2
Lu0 O0 2.128819 1_555
Lu0 O12 2.128819 1_554
Lu0 O7 2.404176 1_554
Lu0 O2 2.404176 1_445
Lu0 O13 2.404394 1_544
Lu0 O8 2.404394 1_455
Lu0 O10 2.404394 1_454
Lu0 O1 2.404394 1_545
Lu1 O12 2.128819 1_555
Lu1 O0 2.128819 1_555
Lu1 O7 2.404176 1_555
Lu1 O2 2.404176 1_445
Lu1 O3 2.404393 1_545
Lu1 O6 2.404393 1_455
Lu1 O5 2.404393 1_455
Lu1 O9 2.404393 1_545
Bi0 O12 2.243940 1_564
Bi0 O0 2.243940 1_555
Bi0 O5 2.437659 1_455
Bi0 O9 2.437659 1_554
Bi0 O1 2.437665 1_555
Bi0 O10 2.437665 1_454
Bi0 O11 2.456692 1_554
Bi0 O4 2.456692 1_455
Bi1 O12 2.243940 1_654
Bi1 O0 2.243940 1_555
Bi1 O6 2.437659 1_554
Bi1 O3 2.437659 1_545
Bi1 O8 2.437665 1_555
Bi1 O13 2.437665 1_544
Bi1 O11 2.456692 1_554
Bi1 O4 2.456692 1_545
O1 Rh2 1.983759 1_555
O1 Rh1 2.004821 1_555
O2 Rh3 2.012088 1_565
O2 Rh2 2.012088 1_655
O3 Rh3 1.983764 1_565
O3 Rh0 2.004820 1_555
O4 Rh1 1.962676 1_555
O4 Rh0 1.962676 1_555
O5 Rh2 1.983764 1_655
O5 Rh0 2.004820 1_555
O6 Rh3 1.983764 1_555
O6 Rh0 2.004820 1_555
O7 Rh3 2.012088 1_555
O7 Rh2 2.012088 1_555
O8 Rh3 1.983759 1_555
O8 Rh1 2.004821 1_555
O9 Rh2 1.983764 1_555
O9 Rh0 2.004820 1_555
O10 Rh2 1.983759 1_655
O10 Rh1 2.004821 1_556
O11 Rh1 1.962676 1_556
O11 Rh0 1.962676 1_555
O13 Rh3 1.983759 1_565
O13 Rh1 2.004821 1_556
