# generated using pymatgen
data_Ca10TiWN10
_symmetry_space_group_name_H-M   'P 1'
_cell_length_a   6.88903474
_cell_length_b   6.88903452
_cell_length_c   8.75400054
_cell_angle_alpha   81.88117205
_cell_angle_beta   81.88118371
_cell_angle_gamma   60.23809153
_symmetry_Int_Tables_number   1
_chemical_formula_structural   Ca10TiWN10
_chemical_formula_sum   'Ca10 Ti1 W1 N10'
_cell_volume   355.81462150
_cell_formula_units_Z   1
loop_
 _symmetry_equiv_pos_site_id
 _symmetry_equiv_pos_as_xyz
  1  'x, y, z'
loop_
 _atom_site_type_symbol
 _atom_site_label
 _atom_site_symmetry_multiplicity
 _atom_site_fract_x
 _atom_site_fract_y
 _atom_site_fract_z
 _atom_site_occupancy
  Ca  Ca0  1  0.88870708  0.36144481  0.83997225  1
  Ca  Ca1  1  0.87997704  0.87997704  0.81743775  1
  Ca  Ca2  1  0.73494571  0.73494571  0.54148812  1
  Ca  Ca3  1  0.74211866  0.25996897  0.51547883  1
  Ca  Ca4  1  0.61447000  0.13330697  0.13580543  1
  Ca  Ca5  1  0.36144481  0.88870708  0.83997225  1
  Ca  Ca6  1  0.25996897  0.74211866  0.51547883  1
  Ca  Ca7  1  0.24163957  0.24163957  0.49650458  1
  Ca  Ca8  1  0.13834331  0.13834331  0.16855885  1
  Ca  Ca9  1  0.13330697  0.61447000  0.13580543  1
  Ti  Ti0  1  0.36963763  0.36963763  0.77098881  1
  W  W0  1  0.63308968  0.63308968  0.22511232  1
  N  N0  1  0.90729854  0.47212152  0.32229727  1
  N  N1  1  0.99150838  0.99150838  0.03086798  1
  N  N2  1  0.69049176  0.69049176  0.01528144  1
  N  N3  1  0.53793496  0.53793496  0.70033711  1
  N  N4  1  0.47212152  0.90729854  0.32229727  1
  N  N5  1  0.54177867  0.08828854  0.66922312  1
  N  N6  1  0.47181920  0.47181920  0.28506592  1
  N  N7  1  0.30229239  0.30229239  0.98388863  1
  N  N8  1  0.06109861  0.06109861  0.64472164  1
  N  N9  1  0.08828854  0.54177867  0.66922312  1
loop_
_geom_bond_atom_site_label_1
_geom_bond_atom_site_label_2
_geom_bond_distance
_geom_bond_site_symmetry_2
Ca0 N9 2.501768 1_655
Ca0 N3 2.511867 1_555
Ca0 N8 2.568854 1_655
Ca0 N2 2.583772 1_556
Ca0 N1 2.669929 1_546
Ca1 N8 2.424816 1_665
Ca1 N1 2.463443 1_556
Ca1 N5 2.485881 1_565
Ca1 N9 2.485881 1_655
Ca1 N2 2.611918 1_556
Ca2 N9 2.465580 1_655
Ca2 N5 2.465581 1_565
Ca2 N3 2.525934 1_555
Ca2 N4 2.563850 1_555
Ca2 N0 2.563850 1_555
Ca3 N8 2.293774 1_655
Ca3 N5 2.400271 1_555
Ca3 N3 2.412966 1_555
Ca3 N0 2.588489 1_555
Ca3 N6 2.682756 1_555
Ca4 N1 2.367539 1_545
Ca4 N7 2.373578 1_554
Ca4 N6 2.516764 1_555
Ca4 N4 2.529182 1_545
Ca5 N5 2.501768 1_565
Ca5 N3 2.511867 1_555
Ca5 N8 2.568853 1_565
Ca5 N2 2.583772 1_556
Ca5 N1 2.669929 1_456
Ca6 N8 2.293774 1_565
Ca6 N9 2.400271 1_555
Ca6 N3 2.412966 1_555
Ca6 N4 2.588489 1_555
Ca6 N6 2.682757 1_555
Ca7 N8 2.324109 1_555
Ca7 N5 2.437340 1_555
Ca7 N9 2.437341 1_555
Ca7 N0 2.613289 1_455
Ca7 N4 2.613290 1_545
Ca7 N6 3.048490 1_555
Ca8 N1 2.281220 1_445
Ca8 N7 2.323735 1_554
Ca8 N4 2.503489 1_545
Ca8 N0 2.503489 1_455
Ca9 N1 2.367539 1_455
Ca9 N7 2.373578 1_554
Ca9 N6 2.516763 1_555
Ca9 N0 2.529182 1_455
N0 W0 1.905180 1_555
N2 W0 1.852491 1_555
N3 Ti0 2.000106 1_555
N4 W0 1.905180 1_555
N5 Ti0 1.965711 1_555
N6 W0 1.907908 1_555
N7 Ti0 1.905045 1_555
N9 Ti0 1.965711 1_555
