# generated using pymatgen
data_Hf16Re3Ni4Au
_symmetry_space_group_name_H-M   'P 1'
_cell_length_a   8.61539144
_cell_length_b   8.61644270
_cell_length_c   8.61644342
_cell_angle_alpha   60.00000476
_cell_angle_beta   59.99596825
_cell_angle_gamma   59.99596468
_symmetry_Int_Tables_number   1
_chemical_formula_structural   Hf16Re3Ni4Au
_chemical_formula_sum   'Hf16 Re3 Ni4 Au1'
_cell_volume   452.26147726
_cell_formula_units_Z   1
loop_
 _symmetry_equiv_pos_site_id
 _symmetry_equiv_pos_as_xyz
  1  'x, y, z'
loop_
 _atom_site_type_symbol
 _atom_site_label
 _atom_site_symmetry_multiplicity
 _atom_site_fract_x
 _atom_site_fract_y
 _atom_site_fract_z
 _atom_site_occupancy
  Hf  Hf0  1  0.69044292  0.10318469  0.10318469  1
  Hf  Hf1  1  0.10719993  0.68662115  0.10308846  1
  Hf  Hf2  1  0.10719993  0.10308846  0.68662115  1
  Hf  Hf3  1  0.10719993  0.10308846  0.10308846  1
  Hf  Hf4  1  0.31304944  0.31457983  0.68618537  1
  Hf  Hf5  1  0.67381875  0.69491438  0.31563293  1
  Hf  Hf6  1  0.31304944  0.68618537  0.31457983  1
  Hf  Hf7  1  0.67381875  0.31563293  0.69491438  1
  Hf  Hf8  1  0.67381875  0.31563293  0.31563293  1
  Hf  Hf9  1  0.31304944  0.68618537  0.68618537  1
  Hf  Hf10  1  0.95357774  0.94392973  0.55124627  1
  Hf  Hf11  1  0.54663874  0.54518775  0.95408675  1
  Hf  Hf12  1  0.95357774  0.55124627  0.94392973  1
  Hf  Hf13  1  0.54663874  0.95408675  0.54518775  1
  Hf  Hf14  1  0.54663874  0.95408675  0.95408675  1
  Hf  Hf15  1  0.95357774  0.55124627  0.55124627  1
  Re  Re0  1  0.33851803  0.99660737  0.33243630  1
  Re  Re1  1  0.33851803  0.33243630  0.99660737  1
  Re  Re2  1  0.33851803  0.33243630  0.33243630  1
  Ni  Ni0  1  0.32220556  0.89259781  0.89259781  1
  Ni  Ni1  1  0.89585740  0.32304152  0.89055054  1
  Ni  Ni2  1  0.89585740  0.89055054  0.32304152  1
  Ni  Ni3  1  0.89585740  0.89055054  0.89055054  1
  Au  Au0  1  0.00136442  0.33287753  0.33287753  1
loop_
_geom_bond_atom_site_label_1
_geom_bond_atom_site_label_2
_geom_bond_distance
_geom_bond_site_symmetry_2
Hf0 Ni3 2.591651 1_544
Hf0 Ni2 2.591669 1_545
Hf0 Ni1 2.591669 1_554
Hf0 Re1 2.986449 1_554
Hf0 Re0 2.986450 1_545
Hf0 Re2 2.986454 1_555
Hf0 Hf5 3.090100 1_545
Hf0 Hf7 3.090101 1_554
Hf0 Hf8 3.090115 1_555
Hf0 Hf14 3.109653 1_544
Hf0 Hf11 3.109674 1_554
Hf0 Hf13 3.109674 1_545
Hf1 Ni0 2.565070 1_554
Hf1 Ni3 2.583366 1_454
Hf1 Ni2 2.583379 1_455
Hf1 Re1 3.002602 1_554
Hf1 Re2 3.002602 1_555
Hf1 Hf11 3.091246 1_554
Hf1 Hf9 3.112013 1_554
Hf1 Hf6 3.112027 1_555
Hf1 Hf12 3.154664 1_454
Hf1 Hf15 3.154679 1_455
Hf1 Hf5 3.213288 1_455
Hf2 Ni0 2.565070 1_545
Hf2 Ni3 2.583366 1_445
Hf2 Ni1 2.583379 1_455
Hf2 Re0 3.002602 1_545
Hf2 Re2 3.002602 1_555
Hf2 Hf9 3.112012 1_545
Hf2 Hf4 3.112027 1_555
Hf2 Hf7 3.213288 1_455
Hf3 Ni0 2.565064 1_544
Hf3 Ni1 2.583367 1_454
Hf3 Ni2 2.583367 1_445
Hf3 Re1 3.002602 1_554
Hf3 Re0 3.002602 1_545
Hf3 Hf6 3.112017 1_545
Hf3 Hf4 3.112018 1_554
Hf3 Hf8 3.213290 1_455
Hf4 Re1 2.873723 1_555
Hf4 Re2 2.873740 1_555
Hf4 Ni1 3.092127 1_455
Hf4 Ni0 3.126743 1_545
Hf4 Hf7 3.151055 1_555
Hf4 Hf8 3.151060 1_555
Hf4 Hf9 3.201918 1_555
Hf4 Hf6 3.201918 1_555
Hf5 Re0 2.751568 1_555
Hf5 Hf6 3.151055 1_555
Hf5 Hf9 3.151059 1_555
Hf5 Ni3 3.155904 1_554
Hf5 Ni2 3.155909 1_555
Hf5 Hf8 3.268057 1_555
Hf5 Hf7 3.268057 1_555
Hf6 Re0 2.873722 1_555
Hf6 Re2 2.873740 1_555
Hf6 Ni2 3.092127 1_455
Hf6 Ni0 3.126744 1_554
Hf6 Hf8 3.151059 1_555
Hf6 Hf9 3.201918 1_555
Hf7 Re1 2.751569 1_555
Hf7 Hf9 3.151059 1_555
Hf7 Ni3 3.155904 1_545
Hf7 Ni1 3.155909 1_555
Hf7 Hf8 3.268057 1_555
Hf8 Re2 2.751572 1_555
Hf8 Ni2 3.155902 1_545
Hf8 Ni1 3.155902 1_554
Hf9 Re1 2.873732 1_555
Hf9 Re0 2.873732 1_555
Hf9 Ni3 3.092127 1_455
Hf9 Ni0 3.126736 1_555
Hf10 Ni2 2.536984 1_555
Hf10 Ni3 2.536984 1_555
Hf10 Re0 3.025810 1_655
Hf10 Hf2 3.154664 1_665
Hf10 Hf3 3.154678 1_665
Hf10 Hf9 3.164761 1_655
Hf10 Hf6 3.164761 1_655
Hf10 Hf7 3.295403 1_565
Hf10 Hf8 3.295407 1_565
Hf11 Ni0 2.574868 1_555
Hf11 Ni1 2.580023 1_555
Hf11 Re2 2.944208 1_556
Hf11 Re1 2.944216 1_555
Hf11 Hf8 3.146758 1_556
Hf11 Hf7 3.146766 1_555
Hf11 Hf9 3.201702 1_555
Hf11 Hf6 3.201702 1_556
Hf12 Ni1 2.536984 1_555
Hf12 Ni3 2.536984 1_555
Hf12 Re1 3.025809 1_655
Hf12 Hf3 3.154678 1_656
Hf12 Hf4 3.164761 1_655
Hf12 Hf9 3.164761 1_655
Hf12 Hf5 3.295403 1_556
Hf12 Hf8 3.295407 1_556
Hf13 Ni0 2.574869 1_555
Hf13 Ni2 2.580023 1_555
Hf13 Re2 2.944207 1_565
Hf13 Re0 2.944216 1_555
Hf13 Hf2 3.091246 1_565
Hf13 Hf8 3.146758 1_565
Hf13 Hf5 3.146766 1_555
Hf13 Hf4 3.201702 1_565
Hf13 Hf9 3.201702 1_555
Hf14 Ni0 2.574874 1_555
Hf14 Ni3 2.580023 1_555
Hf14 Re1 2.944201 1_565
Hf14 Re0 2.944201 1_556
Hf14 Hf3 3.091246 1_566
Hf14 Hf7 3.146759 1_565
Hf14 Hf5 3.146759 1_556
Hf14 Hf4 3.201702 1_565
Hf14 Hf6 3.201702 1_556
Hf15 Ni2 2.536984 1_555
Hf15 Ni1 2.536984 1_555
Hf15 Re2 3.025816 1_655
Hf15 Hf2 3.154678 1_655
Hf15 Hf4 3.164761 1_655
Hf15 Hf6 3.164761 1_655
Hf15 Hf7 3.295410 1_555
Hf15 Hf5 3.295410 1_555
Re0 Re2 2.893651 1_565
Re0 Re1 2.893651 1_564
Re1 Re2 2.893651 1_556
Au0 Re0 2.900909 1_545
Au0 Re1 2.900909 1_554
Au0 Re2 2.900913 1_555
Au0 Hf8 2.977961 1_455
Au0 Hf5 2.977971 1_455
Au0 Hf7 2.977971 1_455
Au0 Hf3 2.996835 1_555
Au0 Hf1 2.996843 1_555
Au0 Hf2 2.996843 1_555
Au0 Hf10 3.039855 1_445
Au0 Hf12 3.039855 1_454
Au0 Hf15 3.039877 1_455
