# generated using pymatgen
data_LuZr3(SiMo)4
_symmetry_space_group_name_H-M   'P 1'
_cell_length_a   3.54206915
_cell_length_b   7.02744964
_cell_length_c   8.24998432
_cell_angle_alpha   90.05714492
_cell_angle_beta   90.00000000
_cell_angle_gamma   90.00000000
_symmetry_Int_Tables_number   1
_chemical_formula_structural   LuZr3(SiMo)4
_chemical_formula_sum   'Lu1 Zr3 Si4 Mo4'
_cell_volume   205.35613601
_cell_formula_units_Z   1
loop_
 _symmetry_equiv_pos_site_id
 _symmetry_equiv_pos_as_xyz
  1  'x, y, z'
loop_
 _atom_site_type_symbol
 _atom_site_label
 _atom_site_symmetry_multiplicity
 _atom_site_fract_x
 _atom_site_fract_y
 _atom_site_fract_z
 _atom_site_occupancy
  Lu  Lu0  1  0.25000000  0.04249733  0.33438647  1
  Zr  Zr0  1  0.25000000  0.54280927  0.16542771  1
  Zr  Zr1  1  0.75000000  0.95712783  0.67025236  1
  Zr  Zr2  1  0.75000000  0.45740746  0.83222543  1
  Si  Si0  1  0.25000000  0.25948829  0.63767779  1
  Si  Si1  1  0.25000000  0.75662151  0.86422511  1
  Si  Si2  1  0.75000000  0.73681327  0.36207939  1
  Si  Si3  1  0.75000000  0.24383347  0.13427224  1
  Mo  Mo0  1  0.25000000  0.13065233  0.93759732  1
  Mo  Mo1  1  0.25000000  0.63053171  0.56151742  1
  Mo  Mo2  1  0.75000000  0.86932354  0.05908130  1
  Mo  Mo3  1  0.75000000  0.37289399  0.44125646  1
loop_
_geom_bond_atom_site_label_1
_geom_bond_atom_site_label_2
_geom_bond_distance
_geom_bond_site_symmetry_2
Lu0 Si2 2.793638 1_545
Lu0 Si2 2.793638 1_445
Lu0 Si3 2.805122 1_455
Lu0 Si3 2.805122 1_555
Lu0 Si0 2.928897 1_555
Lu0 Mo3 3.049721 1_555
Lu0 Mo3 3.049721 1_455
Lu0 Mo2 3.125812 1_445
Lu0 Mo2 3.125812 1_545
Lu0 Mo1 3.450140 1_545
Si0 Zr2 2.764542 1_555
Si0 Zr2 2.764542 1_455
Si0 Zr1 2.779352 1_445
Si0 Zr1 2.779352 1_545
Si1 Zr2 2.761620 1_455
Si1 Zr2 2.761620 1_555
Si1 Zr1 2.772607 1_455
Si1 Zr1 2.772607 1_555
Si1 Zr0 2.905156 1_556
Si2 Zr0 2.760974 1_655
Si2 Zr0 2.760974 1_555
Si2 Zr1 2.975422 1_555
Si3 Zr0 2.759694 1_655
Si3 Zr0 2.759694 1_555
Si3 Zr2 2.910254 1_554
Mo0 Si3 2.529689 1_456
Mo0 Si3 2.529689 1_556
Mo0 Si0 2.635624 1_555
Mo0 Si1 2.696694 1_545
Mo0 Zr2 3.028043 1_455
Mo0 Zr2 3.028043 1_555
Mo0 Zr1 3.079424 1_445
Mo0 Zr1 3.079424 1_545
Mo1 Si2 2.530626 1_455
Mo1 Si2 2.530626 1_555
Mo1 Si1 2.649041 1_555
Mo1 Si0 2.682733 1_555
Mo1 Mo3 2.719446 1_555
Mo1 Mo3 2.719446 1_455
Mo1 Zr1 3.033947 1_455
Mo1 Zr1 3.033947 1_555
Mo1 Zr2 3.099991 1_455
Mo1 Zr2 3.099991 1_555
Mo1 Zr0 3.324770 1_555
Mo2 Si1 2.519038 1_654
Mo2 Si1 2.519038 1_554
Mo2 Si2 2.668416 1_555
Mo2 Si3 2.703364 1_565
Mo2 Zr0 3.029084 1_655
Mo2 Zr0 3.029084 1_555
Mo3 Si0 2.529863 1_655
Mo3 Si0 2.529863 1_555
Mo3 Si2 2.640158 1_555
Mo3 Si3 2.689265 1_555
Mo3 Zr0 3.121869 1_555
Mo3 Zr0 3.121869 1_655
