# generated using pymatgen
data_Ca3C3BrF
_symmetry_space_group_name_H-M   'P 1'
_cell_length_a   6.70344922
_cell_length_b   6.70344913
_cell_length_c   11.17611897
_cell_angle_alpha   90.00000000
_cell_angle_beta   90.00000000
_cell_angle_gamma   147.02694580
_symmetry_Int_Tables_number   1
_chemical_formula_structural   Ca3C3BrF
_chemical_formula_sum   'Ca6 C6 Br2 F2'
_cell_volume   273.32650622
_cell_formula_units_Z   2
loop_
 _symmetry_equiv_pos_site_id
 _symmetry_equiv_pos_as_xyz
  1  'x, y, z'
loop_
 _atom_site_type_symbol
 _atom_site_label
 _atom_site_symmetry_multiplicity
 _atom_site_fract_x
 _atom_site_fract_y
 _atom_site_fract_z
 _atom_site_occupancy
  Ca  Ca0  1  0.66178119  0.33821881  0.58081114  1
  Ca  Ca1  1  0.33821881  0.66178119  0.41918886  1
  Ca  Ca2  1  0.33821881  0.66178119  0.08081114  1
  Ca  Ca3  1  0.66178119  0.33821881  0.91918886  1
  Ca  Ca4  1  0.09266409  0.90733591  0.25000000  1
  Ca  Ca5  1  0.90733591  0.09266409  0.75000000  1
  C  C0  1  0.28212488  0.71787512  0.63178668  1
  C  C1  1  0.71787512  0.28212488  0.36821332  1
  C  C2  1  0.71787512  0.28212488  0.13178668  1
  C  C3  1  0.28212488  0.71787512  0.86821332  1
  C  C4  1  0.72669240  0.27330760  0.25000000  1
  C  C5  1  0.27330760  0.72669240  0.75000000  1
  Br  Br0  1  0.00000000  0.00000000  0.00000000  1
  Br  Br1  1  0.00000000  0.00000000  0.50000000  1
  F  F0  1  0.54253256  0.45746744  0.75000000  1
  F  F1  1  0.45746744  0.54253256  0.25000000  1
loop_
_geom_bond_atom_site_label_1
_geom_bond_atom_site_label_2
_geom_bond_distance
_geom_bond_site_symmetry_2
Ca0 F0 2.434249 1_555
Ca1 F1 2.434249 1_555
Ca2 F1 2.434249 1_555
Ca3 F0 2.434249 1_555
Ca4 F1 2.576785 1_565
Ca4 F1 2.576785 1_455
Ca5 F0 2.576785 1_545
Ca5 F0 2.576785 1_655
C0 C5 1.326020 1_555
C0 Ca1 2.483040 1_555
C0 Ca0 2.517361 1_565
C0 Ca0 2.517361 1_455
C0 Ca5 2.820558 1_455
C0 Ca5 2.820558 1_565
C1 C4 1.326020 1_555
C1 Ca0 2.483040 1_555
C1 Ca1 2.517361 1_545
C1 Ca1 2.517361 1_655
C1 Ca4 2.820558 1_655
C1 Ca4 2.820558 1_545
C2 C4 1.326020 1_555
C2 Ca3 2.483040 1_554
C2 Ca2 2.517361 1_545
C2 Ca2 2.517361 1_655
C2 Ca4 2.820558 1_655
C2 Ca4 2.820558 1_545
C3 C5 1.326020 1_555
C3 Ca2 2.483040 1_556
C3 Ca3 2.517361 1_565
C3 Ca3 2.517361 1_455
C3 Ca5 2.820558 1_455
C3 Ca5 2.820558 1_565
C4 Ca4 2.566678 1_655
C4 Ca4 2.566678 1_545
C5 Ca5 2.566678 1_455
C5 Ca5 2.566678 1_565
Br0 Ca2 2.959782 1_555
Br0 Ca3 2.959782 1_444
Br0 Ca2 2.959782 1_445
Br0 Ca3 2.959782 1_554
Br0 Ca4 3.037385 1_545
Br0 Ca5 3.037385 1_454
Br1 Ca0 2.959782 1_445
Br1 Ca1 2.959782 1_555
Br1 Ca0 2.959782 1_555
Br1 Ca1 2.959782 1_445
Br1 Ca4 3.037385 1_545
Br1 Ca5 3.037385 1_455
