# generated using pymatgen
data_MgTaPt6
_symmetry_space_group_name_H-M   'P 1'
_cell_length_a   5.58050397
_cell_length_b   5.58050431
_cell_length_c   5.58050477
_cell_angle_alpha   60.00000307
_cell_angle_beta   60.00000107
_cell_angle_gamma   59.99999937
_symmetry_Int_Tables_number   1
_chemical_formula_structural   MgTaPt6
_chemical_formula_sum   'Mg1 Ta1 Pt6'
_cell_volume   122.88683715
_cell_formula_units_Z   1
loop_
 _symmetry_equiv_pos_site_id
 _symmetry_equiv_pos_as_xyz
  1  'x, y, z'
loop_
 _atom_site_type_symbol
 _atom_site_label
 _atom_site_symmetry_multiplicity
 _atom_site_fract_x
 _atom_site_fract_y
 _atom_site_fract_z
 _atom_site_occupancy
  Mg  Mg0  1  0.00000000  0.00000000  0.00000000  1
  Ta  Ta0  1  0.50000000  0.50000000  0.50000000  1
  Pt  Pt0  1  0.50000000  0.00000000  0.00000000  1
  Pt  Pt1  1  0.00000000  0.50000000  0.50000000  1
  Pt  Pt2  1  0.00000000  0.50000000  0.00000000  1
  Pt  Pt3  1  0.50000000  0.00000000  0.50000000  1
  Pt  Pt4  1  0.00000000  0.00000000  0.50000000  1
  Pt  Pt5  1  0.50000000  0.50000000  0.00000000  1
loop_
_geom_bond_atom_site_label_1
_geom_bond_atom_site_label_2
_geom_bond_distance
_geom_bond_site_symmetry_2
Mg0 Pt0 2.790252 1_555
Mg0 Pt0 2.790252 1_455
Mg0 Pt5 2.790252 1_545
Mg0 Pt5 2.790252 1_455
Mg0 Pt2 2.790252 1_555
Mg0 Pt2 2.790252 1_545
Mg0 Pt3 2.790252 1_554
Mg0 Pt3 2.790252 1_455
Mg0 Pt4 2.790252 1_554
Mg0 Pt4 2.790252 1_555
Mg0 Pt1 2.790252 1_545
Mg0 Pt1 2.790252 1_554
Pt0 Pt2 2.790252 1_555
Pt0 Pt2 2.790252 1_645
Pt0 Pt5 2.790252 1_555
Pt0 Pt5 2.790252 1_545
Pt0 Pt4 2.790252 1_654
Pt0 Pt4 2.790252 1_555
Pt0 Pt3 2.790252 1_554
Pt0 Pt3 2.790252 1_555
Pt0 Ta0 2.790252 1_554
Pt0 Ta0 2.790252 1_545
Pt1 Ta0 2.790252 1_455
Pt1 Ta0 2.790252 1_555
Pt1 Pt3 2.790252 1_555
Pt1 Pt3 2.790252 1_465
Pt1 Pt4 2.790252 1_555
Pt1 Pt4 2.790252 1_565
Pt1 Pt5 2.790252 1_555
Pt1 Pt5 2.790252 1_456
Pt1 Pt2 2.790252 1_556
Pt1 Pt2 2.790252 1_555
Pt2 Pt5 2.790252 1_555
Pt2 Pt5 2.790252 1_455
Pt2 Ta0 2.790252 1_554
Pt2 Ta0 2.790252 1_455
Pt2 Pt4 2.790252 1_564
Pt2 Pt4 2.790252 1_555
Pt3 Pt4 2.790252 1_555
Pt3 Pt4 2.790252 1_655
Pt3 Ta0 2.790252 1_555
Pt3 Ta0 2.790252 1_545
Pt3 Pt5 2.790252 1_555
Pt3 Pt5 2.790252 1_546
Pt4 Ta0 2.790252 1_455
Pt4 Ta0 2.790252 1_545
Pt5 Ta0 2.790252 1_554
Pt5 Ta0 2.790252 1_555
