# generated using pymatgen
data_Ta3Ga2NiC
_symmetry_space_group_name_H-M   'P 1'
_cell_length_a   8.17128411
_cell_length_b   8.17128431
_cell_length_c   8.17128280
_cell_angle_alpha   59.99999818
_cell_angle_beta   59.99999738
_cell_angle_gamma   59.99999905
_symmetry_Int_Tables_number   1
_chemical_formula_structural   Ta3Ga2NiC
_chemical_formula_sum   'Ta12 Ga8 Ni4 C4'
_cell_volume   385.79434570
_cell_formula_units_Z   4
loop_
 _symmetry_equiv_pos_site_id
 _symmetry_equiv_pos_as_xyz
  1  'x, y, z'
loop_
 _atom_site_type_symbol
 _atom_site_label
 _atom_site_symmetry_multiplicity
 _atom_site_fract_x
 _atom_site_fract_y
 _atom_site_fract_z
 _atom_site_occupancy
  Ta  Ta0  1  0.56409715  0.93590285  0.56409715  1
  Ta  Ta1  1  0.31409715  0.68590285  0.68590285  1
  Ta  Ta2  1  0.68590285  0.31409715  0.31409715  1
  Ta  Ta3  1  0.31409715  0.68590285  0.31409715  1
  Ta  Ta4  1  0.68590285  0.68590285  0.31409715  1
  Ta  Ta5  1  0.31409715  0.31409715  0.68590285  1
  Ta  Ta6  1  0.56409715  0.56409715  0.93590285  1
  Ta  Ta7  1  0.93590285  0.56409715  0.56409715  1
  Ta  Ta8  1  0.56409715  0.93590285  0.93590285  1
  Ta  Ta9  1  0.93590285  0.93590285  0.56409715  1
  Ta  Ta10  1  0.68590285  0.31409715  0.68590285  1
  Ta  Ta11  1  0.93590285  0.56409715  0.93590285  1
  Ga  Ga0  1  0.91666116  0.91666116  0.91666116  1
  Ga  Ga1  1  0.99998149  0.33333884  0.33333884  1
  Ga  Ga2  1  0.33333884  0.99998149  0.33333884  1
  Ga  Ga3  1  0.33333884  0.33333884  0.99998149  1
  Ga  Ga4  1  0.91666116  0.25001851  0.91666116  1
  Ga  Ga5  1  0.91666116  0.91666116  0.25001851  1
  Ga  Ga6  1  0.25001851  0.91666116  0.91666116  1
  Ga  Ga7  1  0.33333884  0.33333884  0.33333884  1
  Ni  Ni0  1  0.12500000  0.12500000  0.12500000  1
  Ni  Ni1  1  0.62500000  0.12500000  0.12500000  1
  Ni  Ni2  1  0.12500000  0.62500000  0.12500000  1
  Ni  Ni3  1  0.12500000  0.12500000  0.62500000  1
  C  C0  1  0.62500000  0.62500000  0.62500000  1
  C  C1  1  0.12500000  0.62500000  0.62500000  1
  C  C2  1  0.62500000  0.12500000  0.62500000  1
  C  C3  1  0.62500000  0.62500000  0.12500000  1
loop_
_geom_bond_atom_site_label_1
_geom_bond_atom_site_label_2
_geom_bond_distance
_geom_bond_site_symmetry_2
Ga0 Ni1 2.501971 1_566
Ga0 Ni3 2.501971 1_665
Ga0 Ni2 2.501971 1_656
Ga0 Ga5 2.723957 1_556
Ga0 Ga6 2.723958 1_655
Ga0 Ga4 2.723958 1_565
Ga0 Ta9 2.732732 1_555
Ga0 Ta8 2.732733 1_555
Ga0 Ta11 2.732733 1_555
Ga0 Ta4 2.994307 1_556
Ga0 Ta1 2.994307 1_655
Ga0 Ta10 2.994307 1_565
Ga1 Ni0 2.501967 1_655
Ga1 Ni3 2.501980 1_655
Ga1 Ni2 2.501980 1_655
Ga1 Ga3 2.723957 1_654
Ga1 Ga2 2.723958 1_645
Ga1 Ga7 2.723958 1_655
Ga1 Ta2 2.732716 1_555
Ga1 Ta10 2.732725 1_555
Ga1 Ta4 2.732726 1_555
Ga1 Ta11 2.994300 1_554
Ga1 Ta9 2.994301 1_545
Ga1 Ta7 2.994315 1_555
Ga2 Ni0 2.501967 1_565
Ga2 Ni3 2.501980 1_565
Ga2 Ni1 2.501980 1_565
Ga2 Ga3 2.723957 1_564
Ga2 Ga7 2.723958 1_565
Ga2 Ta3 2.732716 1_555
Ga2 Ta1 2.732725 1_555
Ga2 Ta4 2.732726 1_555
Ga2 Ta8 2.994300 1_554
Ga2 Ta9 2.994301 1_455
Ga2 Ta0 2.994315 1_555
Ga3 Ni0 2.501967 1_556
Ga3 Ni1 2.501980 1_556
Ga3 Ni2 2.501980 1_556
Ga3 Ga7 2.723957 1_556
Ga3 Ta5 2.732716 1_555
Ga3 Ta10 2.732725 1_555
Ga3 Ta1 2.732725 1_555
Ga3 Ta11 2.994301 1_455
Ga3 Ta8 2.994301 1_545
Ga3 Ta6 2.994315 1_555
Ga4 Ni0 2.501967 1_656
Ga4 Ni3 2.501980 1_655
Ga4 Ni1 2.501980 1_556
Ga4 Ga5 2.723957 1_546
Ga4 Ga6 2.723958 1_645
Ga4 Ta11 2.732716 1_555
Ga4 Ta7 2.732725 1_555
Ga4 Ta6 2.732726 1_555
Ga4 Ta2 2.994300 1_556
Ga4 Ta5 2.994301 1_655
Ga4 Ta10 2.994315 1_555
Ga5 Ni0 2.501967 1_665
Ga5 Ni1 2.501980 1_565
Ga5 Ni2 2.501980 1_655
Ga5 Ga6 2.723957 1_654
Ga5 Ta9 2.732716 1_555
Ga5 Ta0 2.732725 1_555
Ga5 Ta7 2.732725 1_555
Ga5 Ta3 2.994301 1_655
Ga5 Ta2 2.994301 1_565
Ga5 Ta4 2.994315 1_555
Ga6 Ni0 2.501967 1_566
Ga6 Ni3 2.501980 1_565
Ga6 Ni2 2.501980 1_556
Ga6 Ta8 2.732716 1_555
Ga6 Ta0 2.732725 1_555
Ga6 Ta6 2.732726 1_555
Ga6 Ta3 2.994300 1_556
Ga6 Ta5 2.994301 1_565
Ga6 Ta1 2.994315 1_555
Ga7 Ni1 2.501971 1_555
Ga7 Ni3 2.501971 1_555
Ga7 Ni2 2.501971 1_555
Ga7 Ta5 2.732732 1_555
Ga7 Ta2 2.732733 1_555
Ga7 Ta3 2.732733 1_555
Ga7 Ta6 2.994307 1_554
Ga7 Ta7 2.994307 1_455
Ga7 Ta0 2.994307 1_545
Ni0 Ta9 2.991353 1_445
Ni0 Ta5 2.991353 1_554
Ni0 Ta8 2.991354 1_544
Ni0 Ta2 2.991354 1_455
Ni0 Ta11 2.991354 1_454
Ni0 Ta3 2.991354 1_545
Ni1 Ta0 2.991353 1_545
Ni1 Ta10 2.991353 1_554
Ni1 Ta2 2.991354 1_555
Ni1 Ta8 2.991354 1_544
Ni1 Ta6 2.991354 1_554
Ni1 Ta4 2.991354 1_545
Ni2 Ta7 2.991353 1_455
Ni2 Ta1 2.991353 1_554
Ni2 Ta3 2.991354 1_555
Ni2 Ta11 2.991354 1_454
Ni2 Ta6 2.991354 1_554
Ni2 Ta4 2.991354 1_455
Ni3 Ta0 2.991354 1_545
Ni3 Ta10 2.991354 1_455
Ni3 Ta5 2.991354 1_555
Ni3 Ta9 2.991354 1_445
Ni3 Ta7 2.991354 1_455
Ni3 Ta1 2.991354 1_545
C0 Ta6 2.160656 1_555
C0 Ta4 2.160656 1_555
C0 Ta7 2.160657 1_555
C0 Ta1 2.160657 1_555
C0 Ta0 2.160657 1_555
C0 Ta10 2.160657 1_555
C1 Ta11 2.160656 1_455
C1 Ta3 2.160656 1_555
C1 Ta1 2.160657 1_555
C1 Ta7 2.160657 1_455
C1 Ta9 2.160657 1_455
C1 Ta5 2.160657 1_555
C2 Ta8 2.160656 1_545
C2 Ta2 2.160656 1_555
C2 Ta9 2.160657 1_545
C2 Ta5 2.160657 1_555
C2 Ta10 2.160657 1_555
C2 Ta0 2.160657 1_545
C3 Ta4 2.160657 1_555
C3 Ta6 2.160657 1_554
C3 Ta11 2.160657 1_554
C3 Ta3 2.160657 1_555
C3 Ta8 2.160657 1_554
C3 Ta2 2.160657 1_555
