# generated using pymatgen
data_KLuB12
_symmetry_space_group_name_H-M   'P 1'
_cell_length_a   5.84556212
_cell_length_b   5.84556314
_cell_length_c   5.84556249
_cell_angle_alpha   60.00000365
_cell_angle_beta   59.99999788
_cell_angle_gamma   59.99999466
_symmetry_Int_Tables_number   1
_chemical_formula_structural   KLuB12
_chemical_formula_sum   'K1 Lu1 B12'
_cell_volume   141.24202423
_cell_formula_units_Z   1
loop_
 _symmetry_equiv_pos_site_id
 _symmetry_equiv_pos_as_xyz
  1  'x, y, z'
loop_
 _atom_site_type_symbol
 _atom_site_label
 _atom_site_symmetry_multiplicity
 _atom_site_fract_x
 _atom_site_fract_y
 _atom_site_fract_z
 _atom_site_occupancy
  K  K0  1  0.00000000  0.00000000  0.00000000  1
  Lu  Lu0  1  0.50000000  0.50000000  0.50000000  1
  B  B0  1  0.89930901  0.60069099  0.60069099  1
  B  B1  1  0.39930901  0.10069099  0.10069099  1
  B  B2  1  0.89930901  0.89930901  0.60069099  1
  B  B3  1  0.39930901  0.39930901  0.10069099  1
  B  B4  1  0.60069099  0.89930901  0.60069099  1
  B  B5  1  0.10069099  0.39930901  0.10069099  1
  B  B6  1  0.60069099  0.60069099  0.89930901  1
  B  B7  1  0.10069099  0.10069099  0.39930901  1
  B  B8  1  0.89930901  0.60069099  0.89930901  1
  B  B9  1  0.39930901  0.10069099  0.39930901  1
  B  B10  1  0.60069099  0.89930901  0.89930901  1
  B  B11  1  0.10069099  0.39930901  0.39930901  1
loop_
_geom_bond_atom_site_label_1
_geom_bond_atom_site_label_2
_geom_bond_distance
_geom_bond_site_symmetry_2
B0 B11 1.664799 1_655
B0 B6 1.745590 1_555
B0 B4 1.745590 1_555
B0 B8 1.745590 1_555
B0 B2 1.745591 1_555
B0 Lu0 3.039003 1_655
B0 Lu0 3.039003 1_555
B0 K0 3.039003 1_665
B0 K0 3.039003 1_656
B1 B10 1.664799 1_544
B1 B7 1.745590 1_555
B1 B5 1.745590 1_555
B1 B9 1.745590 1_555
B1 B3 1.745591 1_555
B1 K0 3.039003 1_655
B1 K0 3.039003 1_555
B1 Lu0 3.039003 1_554
B1 Lu0 3.039003 1_545
B2 B7 1.664799 1_665
B2 B4 1.745590 1_555
B2 B8 1.745591 1_555
B2 Lu0 3.039003 1_655
B2 K0 3.039003 1_666
B2 K0 3.039003 1_665
B2 Lu0 3.039003 1_565
B3 B6 1.664799 1_554
B3 B5 1.745590 1_555
B3 B9 1.745591 1_555
B3 K0 3.039003 1_655
B3 Lu0 3.039003 1_555
B3 Lu0 3.039003 1_554
B3 K0 3.039003 1_565
B4 B9 1.664799 1_565
B4 B6 1.745591 1_555
B4 K0 3.039003 1_566
B4 K0 3.039003 1_665
B4 Lu0 3.039003 1_555
B4 Lu0 3.039003 1_565
B5 B8 1.664799 1_454
B5 B7 1.745591 1_555
B5 Lu0 3.039003 1_455
B5 Lu0 3.039003 1_554
B5 K0 3.039003 1_555
B5 K0 3.039003 1_565
B6 B8 1.745590 1_555
B6 K0 3.039003 1_566
B6 Lu0 3.039003 1_555
B6 Lu0 3.039003 1_556
B6 K0 3.039003 1_656
B7 B9 1.745590 1_555
B7 Lu0 3.039003 1_455
B7 K0 3.039003 1_555
B7 K0 3.039003 1_556
B7 Lu0 3.039003 1_545
B8 Lu0 3.039003 1_655
B8 Lu0 3.039003 1_556
B8 K0 3.039003 1_666
B8 K0 3.039003 1_656
B9 K0 3.039003 1_655
B9 K0 3.039003 1_556
B9 Lu0 3.039003 1_555
B9 Lu0 3.039003 1_545
B10 B2 1.745590 1_555
B10 B8 1.745590 1_555
B10 B4 1.745590 1_555
B10 B6 1.745591 1_555
B10 K0 3.039003 1_566
B10 K0 3.039003 1_666
B10 Lu0 3.039003 1_556
B10 Lu0 3.039003 1_565
B11 B3 1.745590 1_555
B11 B9 1.745590 1_555
B11 B5 1.745590 1_555
B11 B7 1.745591 1_555
B11 Lu0 3.039003 1_455
B11 Lu0 3.039003 1_555
B11 K0 3.039003 1_556
B11 K0 3.039003 1_565
