# generated using pymatgen
data_Be8VRe2W
_symmetry_space_group_name_H-M   'P 1'
_cell_length_a   4.35844267
_cell_length_b   4.35844160
_cell_length_c   7.17679146
_cell_angle_alpha   90.00000000
_cell_angle_beta   90.00000000
_cell_angle_gamma   120.00000061
_symmetry_Int_Tables_number   1
_chemical_formula_structural   Be8VRe2W
_chemical_formula_sum   'Be8 V1 Re2 W1'
_cell_volume   118.06563975
_cell_formula_units_Z   1
loop_
 _symmetry_equiv_pos_site_id
 _symmetry_equiv_pos_as_xyz
  1  'x, y, z'
loop_
 _atom_site_type_symbol
 _atom_site_label
 _atom_site_symmetry_multiplicity
 _atom_site_fract_x
 _atom_site_fract_y
 _atom_site_fract_z
 _atom_site_occupancy
  Be  Be0  1  0.00000000  0.00000000  0.99809244  1
  Be  Be1  1  0.00000000  0.00000000  0.50210098  1
  Be  Be2  1  0.83065885  0.66131871  0.25275129  1
  Be  Be3  1  0.16996011  0.83003989  0.74776489  1
  Be  Be4  1  0.66007877  0.83003989  0.74776489  1
  Be  Be5  1  0.33868129  0.16934115  0.25275129  1
  Be  Be6  1  0.83065885  0.16934115  0.25275129  1
  Be  Be7  1  0.16996011  0.33992123  0.74776489  1
  V  V0  1  0.66666700  0.33333300  0.56266796  1
  Re  Re0  1  0.66666700  0.33333300  0.93574665  1
  Re  Re1  1  0.33333300  0.66666700  0.43831579  1
  W  W0  1  0.33333300  0.66666700  0.06152965  1
loop_
_geom_bond_atom_site_label_1
_geom_bond_atom_site_label_2
_geom_bond_distance
_geom_bond_site_symmetry_2
Be0 Be3 2.207661 1_545
Be0 Be7 2.207664 1_555
Be0 Be4 2.207664 1_445
Be0 Be2 2.230347 1_446
Be0 Be5 2.230347 1_556
Be0 Be6 2.230349 1_456
Be0 Re0 2.555817 1_455
Be0 Re0 2.555820 1_445
Be0 Re0 2.555821 1_555
Be0 W0 2.557199 1_546
Be0 W0 2.557203 1_556
Be0 W0 2.557203 1_446
Be1 Be3 2.180511 1_545
Be1 Be7 2.180513 1_555
Be1 Be4 2.180513 1_445
Be1 Be2 2.199233 1_445
Be1 Be5 2.199233 1_555
Be1 Be6 2.199235 1_455
Be1 V0 2.553613 1_455
Be1 V0 2.553616 1_445
Be1 V0 2.553617 1_555
Be1 Re1 2.557645 1_545
Be1 Re1 2.557649 1_555
Be1 Re1 2.557649 1_445
Be2 Be6 2.144255 1_555
Be2 Be5 2.144256 1_555
Be2 Be6 2.214186 1_565
Be2 Be5 2.214186 1_665
Be2 V0 2.545528 1_555
Be2 Re1 2.554015 1_555
Be2 Re1 2.554015 1_655
Be2 W0 2.575418 1_555
Be2 W0 2.575418 1_655
Be2 Re0 2.590094 1_554
Be3 Be7 2.136154 1_555
Be3 Be4 2.136154 1_555
Be3 Be7 2.222288 1_565
Be3 Be4 2.222289 1_455
Be3 Re1 2.540321 1_555
Be3 V0 2.552308 1_565
Be3 V0 2.552308 1_455
Be3 Re0 2.563144 1_565
Be3 Re0 2.563144 1_455
Be3 W0 2.567443 1_556
Be4 Be7 2.136154 1_555
Be4 Be7 2.222288 1_665
Be4 Re1 2.540321 1_555
Be4 V0 2.552304 1_565
Be4 V0 2.552311 1_555
Be4 Re0 2.563141 1_565
Be4 Re0 2.563148 1_555
Be4 W0 2.567443 1_556
Be5 Be6 2.144256 1_555
Be5 Be6 2.214187 1_455
Be5 V0 2.545529 1_555
Be5 Re1 2.554014 1_545
Be5 Re1 2.554014 1_555
Be5 W0 2.575418 1_545
Be5 W0 2.575418 1_555
Be5 Re0 2.590094 1_554
Be6 V0 2.545525 1_555
Be6 Re1 2.554015 1_545
Be6 Re1 2.554015 1_655
Be6 W0 2.575418 1_545
Be6 W0 2.575418 1_655
Be6 Re0 2.590091 1_554
Be7 Re1 2.540321 1_555
Be7 V0 2.552304 1_455
Be7 V0 2.552312 1_555
Be7 Re0 2.563141 1_455
Be7 Re0 2.563148 1_555
Be7 W0 2.567443 1_556
Re0 W0 2.673367 1_546
Re0 W0 2.673368 1_656
Re0 W0 2.673375 1_556
Re0 V0 2.677508 1_555
Re1 V0 2.669917 1_565
Re1 V0 2.669918 1_455
Re1 V0 2.669925 1_555
Re1 W0 2.704116 1_555
