# generated using pymatgen
data_La2USe4
_symmetry_space_group_name_H-M   'P 1'
_cell_length_a   7.76324595
_cell_length_b   7.76324595
_cell_length_c   7.76324595
_cell_angle_alpha   109.24805683
_cell_angle_beta   109.24805683
_cell_angle_gamma   109.91847616
_symmetry_Int_Tables_number   1
_chemical_formula_structural   La2USe4
_chemical_formula_sum   'La4 U2 Se8'
_cell_volume   360.15403052
_cell_formula_units_Z   2
loop_
 _symmetry_equiv_pos_site_id
 _symmetry_equiv_pos_as_xyz
  1  'x, y, z'
loop_
 _atom_site_type_symbol
 _atom_site_label
 _atom_site_symmetry_multiplicity
 _atom_site_fract_x
 _atom_site_fract_y
 _atom_site_fract_z
 _atom_site_occupancy
  La  La0  1  0.49809600  0.87500000  0.12309600  1
  La  La1  1  0.75190400  0.37500000  0.87690400  1
  La  La2  1  0.12500000  0.24809600  0.62309600  1
  La  La3  1  0.62500000  0.50190400  0.37690400  1
  U  U0  1  0.25000000  0.75000000  0.50000000  1
  U  U1  1  0.00000000  0.00000000  0.00000000  1
  Se  Se0  1  0.03096700  0.63227600  0.75032000  1
  Se  Se1  1  0.36772400  0.11804300  0.39869100  1
  Se  Se2  1  0.88227600  0.78096700  0.25032000  1
  Se  Se3  1  0.71935200  0.96903300  0.60130900  1
  Se  Se4  1  0.36804300  0.11772400  0.89869100  1
  Se  Se5  1  0.88195700  0.28064800  0.24968000  1
  Se  Se6  1  0.21903300  0.46935200  0.10130900  1
  Se  Se7  1  0.53064800  0.63195700  0.74968000  1
loop_
_geom_bond_atom_site_label_1
_geom_bond_atom_site_label_2
_geom_bond_distance
_geom_bond_site_symmetry_2
La0 Se1 3.037962 1_565
La0 Se7 3.037968 1_554
La0 Se6 3.065589 1_555
La0 Se5 3.065591 1_565
La0 Se0 3.147370 1_554
La0 Se4 3.147373 1_564
La0 Se3 3.228048 1_555
La0 Se2 3.228048 1_555
La1 Se3 3.037962 1_545
La1 Se2 3.037966 1_556
La1 Se0 3.065583 1_655
La1 Se4 3.065589 1_555
La1 Se5 3.147366 1_556
La1 Se6 3.147373 1_656
La1 Se1 3.228048 1_555
La1 Se7 3.228050 1_555
La2 Se4 3.037962 1_555
La2 Se5 3.037968 1_455
La2 Se3 3.065589 1_445
La2 Se7 3.065591 1_555
La2 Se2 3.147370 1_445
La2 Se1 3.147373 1_555
La2 Se6 3.228048 1_556
La2 Se0 3.228048 1_555
La3 Se6 3.037962 1_555
La3 Se0 3.037966 1_655
La3 Se2 3.065583 1_555
La3 Se1 3.065589 1_555
La3 Se7 3.147366 1_555
La3 Se3 3.147373 1_555
La3 Se4 3.228048 1_554
La3 Se5 3.228050 1_555
Se0 U1 3.015125 1_566
Se0 U0 3.129500 1_555
Se1 U1 3.015127 1_555
Se1 U0 3.129493 1_545
Se2 U0 3.015125 1_655
Se2 U1 3.129500 1_665
Se3 U1 3.015127 1_666
Se3 U0 3.129493 1_555
Se4 U0 3.015127 1_545
Se4 U1 3.129493 1_556
Se5 U1 3.015123 1_655
Se5 U0 3.129492 1_655
Se6 U0 3.015127 1_555
Se6 U1 3.129493 1_555
Se7 U0 3.015123 1_555
Se7 U1 3.129492 1_666
