# generated using pymatgen
data_Ce2B2Ir5
_symmetry_space_group_name_H-M   'P 1'
_cell_length_a   11.05070167
_cell_length_b   11.05070167
_cell_length_c   11.05070159
_cell_angle_alpha   28.86666069
_cell_angle_beta   28.86666069
_cell_angle_gamma   28.86666298
_symmetry_Int_Tables_number   1
_chemical_formula_structural   Ce2B2Ir5
_chemical_formula_sum   'Ce4 B4 Ir10'
_cell_volume   278.14128158
_cell_formula_units_Z   2
loop_
 _symmetry_equiv_pos_site_id
 _symmetry_equiv_pos_as_xyz
  1  'x, y, z'
loop_
 _atom_site_type_symbol
 _atom_site_label
 _atom_site_symmetry_multiplicity
 _atom_site_fract_x
 _atom_site_fract_y
 _atom_site_fract_z
 _atom_site_occupancy
  Ce  Ce0  1  0.15215500  0.15215500  0.15215500  1
  Ce  Ce1  1  0.94872100  0.94872100  0.94872100  1
  Ce  Ce2  1  0.84784500  0.84784500  0.84784500  1
  Ce  Ce3  1  0.05127900  0.05127900  0.05127900  1
  B  B0  1  0.61756300  0.61756300  0.61756300  1
  B  B1  1  0.71663300  0.71663300  0.71663300  1
  B  B2  1  0.38243700  0.38243700  0.38243700  1
  B  B3  1  0.28336700  0.28336700  0.28336700  1
  Ir  Ir0  1  0.40643400  0.89931100  0.40643400  1
  Ir  Ir1  1  0.89931100  0.40643400  0.40643400  1
  Ir  Ir2  1  0.50000000  0.50000000  0.00000000  1
  Ir  Ir3  1  0.50000000  0.00000000  0.50000000  1
  Ir  Ir4  1  0.00000000  0.50000000  0.50000000  1
  Ir  Ir5  1  0.50000000  0.50000000  0.50000000  1
  Ir  Ir6  1  0.59356600  0.10068900  0.59356600  1
  Ir  Ir7  1  0.59356600  0.59356600  0.10068900  1
  Ir  Ir8  1  0.10068900  0.59356600  0.59356600  1
  Ir  Ir9  1  0.40643400  0.40643400  0.89931100  1
loop_
_geom_bond_atom_site_label_1
_geom_bond_atom_site_label_2
_geom_bond_distance
_geom_bond_site_symmetry_2
Ce0 Ir9 3.150445 1_554
Ce0 Ir1 3.150445 1_455
Ce0 Ir0 3.150445 1_545
Ce0 Ce3 3.202745 1_555
Ce0 Ir5 3.213733 1_554
Ce0 Ir5 3.213733 1_545
Ce0 Ir5 3.213733 1_455
Ce0 Ir6 3.282194 1_554
Ce0 Ir8 3.282194 1_554
Ce0 Ir6 3.282194 1_455
Ce0 Ir8 3.282194 1_545
Ce0 Ir7 3.282194 1_545
Ce0 Ir7 3.282194 1_455
Ce1 Ir1 3.098063 1_565
Ce1 Ir0 3.098063 1_655
Ce1 Ir0 3.098063 1_556
Ce1 Ir1 3.098063 1_556
Ce1 Ir9 3.098063 1_655
Ce1 Ir9 3.098063 1_565
Ce1 Ir4 3.199605 1_656
Ce1 Ir3 3.199605 1_566
Ce1 Ir3 3.199605 1_665
Ce1 Ir4 3.199605 1_665
Ce1 Ir2 3.199606 1_566
Ce1 Ir2 3.199606 1_656
Ce1 Ce2 3.202745 1_555
Ce1 Ce3 3.256148 1_666
Ce2 Ir7 3.150445 1_556
Ce2 Ir8 3.150445 1_655
Ce2 Ir6 3.150445 1_565
Ce2 Ir5 3.213733 1_556
Ce2 Ir5 3.213733 1_565
Ce2 Ir5 3.213733 1_655
Ce2 Ir1 3.282194 1_556
Ce2 Ir0 3.282194 1_556
Ce2 Ir0 3.282194 1_655
Ce2 Ir1 3.282194 1_565
Ce2 Ir9 3.282194 1_565
Ce2 Ir9 3.282194 1_655
Ce3 Ir8 3.098063 1_545
Ce3 Ir6 3.098063 1_455
Ce3 Ir6 3.098063 1_554
Ce3 Ir8 3.098063 1_554
Ce3 Ir7 3.098063 1_545
Ce3 Ir7 3.098063 1_455
Ce3 Ir3 3.199605 1_554
Ce3 Ir4 3.199605 1_554
Ce3 Ir3 3.199605 1_455
Ce3 Ir4 3.199605 1_545
Ce3 Ir2 3.199606 1_455
Ce3 Ir2 3.199606 1_545
B0 Ir9 2.160712 1_555
B0 Ir0 2.160712 1_555
B0 Ir1 2.160712 1_555
B0 Ir2 2.226984 1_556
B0 Ir3 2.226984 1_565
B0 Ir4 2.226984 1_655
B0 Ce1 3.181284 1_554
B0 Ce1 3.181285 1_455
B0 Ce1 3.181285 1_545
B1 Ir7 2.175334 1_556
B1 Ir8 2.175334 1_655
B1 Ir6 2.175334 1_565
B1 Ir2 2.246243 1_556
B1 Ir3 2.246243 1_565
B1 Ir4 2.246243 1_655
B1 Ce3 3.180808 1_665
B1 Ce3 3.180808 1_566
B1 Ce3 3.180808 1_656
B2 Ir7 2.160712 1_555
B2 Ir6 2.160712 1_555
B2 Ir8 2.160712 1_555
B2 Ir2 2.226984 1_555
B2 Ir3 2.226984 1_555
B2 Ir4 2.226984 1_555
B2 Ce3 3.181284 1_556
B2 Ce3 3.181285 1_655
B2 Ce3 3.181285 1_565
B3 Ir9 2.175334 1_554
B3 Ir1 2.175334 1_455
B3 Ir0 2.175334 1_545
B3 Ir2 2.246243 1_555
B3 Ir4 2.246243 1_555
B3 Ir3 2.246243 1_555
B3 Ce1 3.180808 1_445
B3 Ce1 3.180808 1_544
B3 Ce1 3.180808 1_454
Ir0 Ir5 2.738565 1_555
Ir1 Ir5 2.738565 1_555
Ir5 Ir9 2.738565 1_555
Ir5 Ir7 2.738565 1_555
Ir5 Ir8 2.738565 1_555
Ir5 Ir6 2.738565 1_555
