# generated using pymatgen
data_Cs5BaNbAs4
_symmetry_space_group_name_H-M   'P 1'
_cell_length_a   11.20268816
_cell_length_b   11.20268868
_cell_length_c   8.50016394
_cell_angle_alpha   87.86911606
_cell_angle_beta   87.86910843
_cell_angle_gamma   120.91608323
_symmetry_Int_Tables_number   1
_chemical_formula_structural   Cs5BaNbAs4
_chemical_formula_sum   'Cs10 Ba2 Nb2 As8'
_cell_volume   912.60019034
_cell_formula_units_Z   2
loop_
 _symmetry_equiv_pos_site_id
 _symmetry_equiv_pos_as_xyz
  1  'x, y, z'
loop_
 _atom_site_type_symbol
 _atom_site_label
 _atom_site_symmetry_multiplicity
 _atom_site_fract_x
 _atom_site_fract_y
 _atom_site_fract_z
 _atom_site_occupancy
  Cs  Cs0  1  0.46438049  0.52504785  0.49317330  1
  Cs  Cs1  1  0.06244342  0.52732853  0.49802961  1
  Cs  Cs2  1  0.52504785  0.46438049  0.99317330  1
  Cs  Cs3  1  0.52732853  0.06244342  0.99802961  1
  Cs  Cs4  1  0.86606517  0.14026865  0.68227497  1
  Cs  Cs5  1  0.29648696  0.15332421  0.73044759  1
  Cs  Cs6  1  0.85649817  0.71877722  0.65074921  1
  Cs  Cs7  1  0.14026865  0.86606517  0.18227497  1
  Cs  Cs8  1  0.71877722  0.85649817  0.15074921  1
  Cs  Cs9  1  0.15332421  0.29648696  0.23044759  1
  Ba  Ba0  1  0.46394578  0.93416746  0.49083436  1
  Ba  Ba1  1  0.93416746  0.46394578  0.99083436  1
  Nb  Nb0  1  0.67065558  0.32828241  0.39305266  1
  Nb  Nb1  1  0.32828241  0.67065558  0.89305266  1
  As  As0  1  0.68906468  0.34077694  0.68612503  1
  As  As1  1  0.34077694  0.68906468  0.18612503  1
  As  As2  1  0.78569537  0.20100002  0.29057027  1
  As  As3  1  0.41802099  0.19302271  0.33336984  1
  As  As4  1  0.79422201  0.57052238  0.26566116  1
  As  As5  1  0.20100002  0.78569537  0.79057027  1
  As  As6  1  0.57052238  0.79422201  0.76566116  1
  As  As7  1  0.19302271  0.41802099  0.83336984  1
loop_
_geom_bond_atom_site_label_1
_geom_bond_atom_site_label_2
_geom_bond_distance
_geom_bond_site_symmetry_2
As0 Nb0 2.510476 1_555
As0 Ba1 3.612945 1_555
As0 Cs6 3.638986 1_555
As0 Cs3 3.641033 1_555
As0 Cs4 3.681830 1_555
As0 Cs5 3.771131 1_555
As0 Cs2 3.825173 1_555
As0 Cs1 3.832972 1_655
As1 Nb1 2.510476 1_554
As1 Ba0 3.612945 1_555
As1 Cs8 3.638986 1_555
As1 Cs1 3.641033 1_555
As1 Cs7 3.681830 1_555
As1 Cs9 3.771131 1_555
As1 Cs0 3.825173 1_555
As1 Cs3 3.832973 1_564
As2 Nb0 2.519944 1_555
As2 Ba1 3.468015 1_554
As2 Ba0 3.594323 1_545
As2 Cs4 3.611562 1_555
As2 Cs3 3.629879 1_554
As2 Cs9 3.693616 1_655
As2 Cs8 3.781995 1_545
As2 Cs1 3.914819 1_655
As3 Nb0 2.514080 1_555
As3 Ba0 3.429446 1_545
As3 Cs5 3.516828 1_555
As3 Cs3 3.695353 1_554
As3 Cs7 3.699095 1_545
As3 Cs2 3.792625 1_554
As3 Cs0 3.793846 1_555
As3 Cs9 3.814605 1_555
As4 Nb0 2.502609 1_555
As4 Ba1 3.346506 1_554
As4 Cs2 3.593254 1_554
As4 Cs7 3.595131 1_655
As4 Cs6 3.652833 1_555
As4 Cs8 3.813546 1_555
As4 Cs1 3.876676 1_655
As4 Cs0 3.887714 1_555
As5 Nb1 2.519944 1_555
As5 Ba0 3.468015 1_555
As5 Ba1 3.594323 1_455
As5 Cs7 3.611562 1_556
As5 Cs1 3.629879 1_555
As5 Cs5 3.693616 1_565
As5 Cs6 3.781995 1_455
As5 Cs3 3.914819 1_565
As6 Nb1 2.502609 1_555
As6 Ba0 3.346507 1_555
As6 Cs0 3.593254 1_555
As6 Cs4 3.595131 1_565
As6 Cs8 3.652833 1_556
As6 Cs6 3.813546 1_555
As6 Cs3 3.876676 1_565
As6 Cs2 3.887715 1_555
As7 Nb1 2.514080 1_555
As7 Ba1 3.429446 1_455
As7 Cs9 3.516829 1_556
As7 Cs1 3.695353 1_555
As7 Cs4 3.699095 1_455
As7 Cs0 3.792625 1_555
As7 Cs2 3.793846 1_555
As7 Cs5 3.814605 1_555
