# generated using pymatgen
data_Hf3TiRh2N
_symmetry_space_group_name_H-M   'P 1'
_cell_length_a   8.51561716
_cell_length_b   8.51561669
_cell_length_c   8.51561875
_cell_angle_alpha   59.99999960
_cell_angle_beta   60.00000144
_cell_angle_gamma   59.99999912
_symmetry_Int_Tables_number   1
_chemical_formula_structural   Hf3TiRh2N
_chemical_formula_sum   'Hf12 Ti4 Rh8 N4'
_cell_volume   436.64998069
_cell_formula_units_Z   4
loop_
 _symmetry_equiv_pos_site_id
 _symmetry_equiv_pos_as_xyz
  1  'x, y, z'
loop_
 _atom_site_type_symbol
 _atom_site_label
 _atom_site_symmetry_multiplicity
 _atom_site_fract_x
 _atom_site_fract_y
 _atom_site_fract_z
 _atom_site_occupancy
  Hf  Hf0  1  0.81303956  0.81303956  0.18696044  1
  Hf  Hf1  1  0.18696044  0.18696044  0.81303956  1
  Hf  Hf2  1  0.81303956  0.18696044  0.81303956  1
  Hf  Hf3  1  0.18696044  0.81303956  0.18696044  1
  Hf  Hf4  1  0.18696044  0.81303956  0.81303956  1
  Hf  Hf5  1  0.81303956  0.18696044  0.18696044  1
  Hf  Hf6  1  0.43696044  0.43696044  0.06303956  1
  Hf  Hf7  1  0.06303956  0.06303956  0.43696044  1
  Hf  Hf8  1  0.43696044  0.06303956  0.43696044  1
  Hf  Hf9  1  0.06303956  0.43696044  0.06303956  1
  Hf  Hf10  1  0.06303956  0.43696044  0.43696044  1
  Hf  Hf11  1  0.43696044  0.06303956  0.06303956  1
  Ti  Ti0  1  0.12500000  0.62500000  0.62500000  1
  Ti  Ti1  1  0.62500000  0.12500000  0.62500000  1
  Ti  Ti2  1  0.62500000  0.62500000  0.12500000  1
  Ti  Ti3  1  0.62500000  0.62500000  0.62500000  1
  Rh  Rh0  1  0.75450472  0.41516509  0.41516509  1
  Rh  Rh1  1  0.41516509  0.75450472  0.41516509  1
  Rh  Rh2  1  0.41516509  0.41516509  0.75450472  1
  Rh  Rh3  1  0.41516509  0.41516509  0.41516509  1
  Rh  Rh4  1  0.49549528  0.83483491  0.83483491  1
  Rh  Rh5  1  0.83483491  0.49549528  0.83483491  1
  Rh  Rh6  1  0.83483491  0.83483491  0.49549528  1
  Rh  Rh7  1  0.83483491  0.83483491  0.83483491  1
  N  N0  1  0.62500000  0.12500000  0.12500000  1
  N  N1  1  0.12500000  0.62500000  0.12500000  1
  N  N2  1  0.12500000  0.12500000  0.62500000  1
  N  N3  1  0.12500000  0.12500000  0.12500000  1
loop_
_geom_bond_atom_site_label_1
_geom_bond_atom_site_label_2
_geom_bond_distance
_geom_bond_site_symmetry_2
Hf0 N0 2.255886 1_565
Hf0 N1 2.255886 1_655
Hf0 Rh6 2.825185 1_555
Hf0 Rh7 2.825185 1_554
Hf0 Rh0 3.104904 1_555
Hf0 Rh1 3.104904 1_555
Hf1 N2 2.255887 1_555
Hf1 N3 2.255887 1_556
Hf1 Rh4 2.825185 1_545
Hf1 Rh5 2.825185 1_455
Hf1 Rh2 3.104904 1_555
Hf1 Rh3 3.104904 1_555
Hf2 N2 2.255886 1_655
Hf2 N0 2.255887 1_556
Hf2 Rh7 2.825185 1_545
Hf2 Rh5 2.825185 1_555
Hf2 Rh2 3.104904 1_555
Hf2 Rh0 3.104904 1_555
Hf3 N3 2.255886 1_565
Hf3 N1 2.255886 1_555
Hf3 Rh6 2.825185 1_455
Hf3 Rh4 2.825185 1_554
Hf3 Rh3 3.104904 1_555
Hf3 Rh1 3.104904 1_555
Hf4 N2 2.255886 1_565
Hf4 N1 2.255887 1_556
Hf4 Rh7 2.825185 1_455
Hf4 Rh4 2.825185 1_555
Hf4 Rh2 3.104904 1_555
Hf4 Rh1 3.104904 1_555
Hf5 N3 2.255886 1_655
Hf5 N0 2.255886 1_555
Hf5 Rh6 2.825185 1_545
Hf5 Rh5 2.825185 1_554
Hf5 Rh3 3.104904 1_555
Hf5 Rh0 3.104904 1_555
Hf6 N0 2.255886 1_555
Hf6 N1 2.255886 1_555
Hf6 Rh2 2.825185 1_554
Hf6 Rh3 2.825185 1_555
Hf6 Rh4 3.104904 1_554
Hf6 Rh5 3.104904 1_554
Hf7 N2 2.255887 1_555
Hf7 N3 2.255887 1_555
Hf7 Rh0 2.825185 1_455
Hf7 Rh1 2.825185 1_545
Hf7 Rh6 3.104904 1_445
Hf7 Rh7 3.104904 1_445
Hf8 N2 2.255886 1_555
Hf8 N0 2.255887 1_555
Hf8 Rh3 2.825185 1_555
Hf8 Rh1 2.825185 1_545
Hf8 Rh6 3.104904 1_545
Hf8 Rh4 3.104904 1_545
Hf9 N3 2.255886 1_555
Hf9 N1 2.255886 1_555
Hf9 Rh2 2.825185 1_554
Hf9 Rh0 2.825185 1_455
Hf9 Rh7 3.104904 1_454
Hf9 Rh5 3.104904 1_454
Hf10 N2 2.255886 1_555
Hf10 N1 2.255887 1_555
Hf10 Rh3 2.825185 1_555
Hf10 Rh0 2.825185 1_455
Hf10 Rh6 3.104904 1_455
Hf10 Rh5 3.104904 1_455
Hf11 N3 2.255886 1_555
Hf11 N0 2.255886 1_555
Hf11 Rh2 2.825185 1_554
Hf11 Rh1 2.825185 1_545
Hf11 Rh7 3.104904 1_544
Hf11 Rh4 3.104904 1_544
Rh0 Ti1 2.617971 1_555
Rh0 Ti3 2.617972 1_555
Rh0 Ti2 2.617972 1_555
Rh1 Ti0 2.617972 1_555
Rh1 Ti3 2.617972 1_555
Rh1 Ti2 2.617972 1_555
Rh2 Ti3 2.617971 1_555
Rh2 Ti1 2.617972 1_555
Rh2 Ti0 2.617972 1_555
Rh3 Ti1 2.617972 1_555
Rh3 Ti2 2.617972 1_555
Rh3 Ti0 2.617972 1_555
Rh4 Ti1 2.617971 1_565
Rh4 Ti3 2.617972 1_555
Rh4 Ti2 2.617972 1_556
Rh5 Ti0 2.617972 1_655
Rh5 Ti3 2.617972 1_555
Rh5 Ti2 2.617972 1_556
Rh6 Ti3 2.617971 1_555
Rh6 Ti1 2.617972 1_565
Rh6 Ti0 2.617972 1_655
Rh7 Ti1 2.617972 1_565
Rh7 Ti2 2.617972 1_556
Rh7 Ti0 2.617972 1_655
