# generated using pymatgen
data_K2Be3SiAs4
_symmetry_space_group_name_H-M   'P 1'
_cell_length_a   7.64095566
_cell_length_b   7.64095544
_cell_length_c   5.35986724
_cell_angle_alpha   90.00000000
_cell_angle_beta   90.00000000
_cell_angle_gamma   139.08006770
_symmetry_Int_Tables_number   1
_chemical_formula_structural   K2Be3SiAs4
_chemical_formula_sum   'K2 Be3 Si1 As4'
_cell_volume   204.97134347
_cell_formula_units_Z   1
loop_
 _symmetry_equiv_pos_site_id
 _symmetry_equiv_pos_as_xyz
  1  'x, y, z'
loop_
 _atom_site_type_symbol
 _atom_site_label
 _atom_site_symmetry_multiplicity
 _atom_site_fract_x
 _atom_site_fract_y
 _atom_site_fract_z
 _atom_site_occupancy
  K  K0  1  0.50000000  0.00000000  0.24708029  1
  K  K1  1  0.00000000  0.50000000  0.75291971  1
  Be  Be0  1  0.50000000  0.50000000  0.50000000  1
  Be  Be1  1  0.50000000  0.50000000  0.00000000  1
  Be  Be2  1  0.00000000  0.00000000  0.50000000  1
  Si  Si0  1  0.00000000  0.00000000  0.00000000  1
  As  As0  1  0.65119338  0.84600014  0.74821657  1
  As  As1  1  0.15399986  0.34880662  0.25178343  1
  As  As2  1  0.84600014  0.65119338  0.25178343  1
  As  As3  1  0.34880662  0.15399986  0.74821657  1
loop_
_geom_bond_atom_site_label_1
_geom_bond_atom_site_label_2
_geom_bond_distance
_geom_bond_site_symmetry_2
Be1 Si0 2.670918 1_555
Be1 Si0 2.670918 1_665
Be2 Si0 2.679934 1_556
Be2 Si0 2.679934 1_555
As0 Be0 2.340600 1_555
As0 Be2 2.349138 1_665
As0 Be1 2.351519 1_556
As0 Si0 2.360018 1_666
As0 K1 3.445005 1_555
As0 K0 3.452985 1_566
As0 K1 3.456609 1_665
As0 K0 3.462426 1_565
As1 Be0 2.340600 1_555
As1 Be2 2.349138 1_555
As1 Be1 2.351519 1_555
As1 Si0 2.360018 1_555
As1 K0 3.445005 1_565
As1 K1 3.452985 1_554
As1 K0 3.456609 1_455
As1 K1 3.462426 1_555
As2 Be0 2.340600 1_555
As2 Be2 2.349138 1_665
As2 Be1 2.351519 1_555
As2 Si0 2.360018 1_665
As2 K0 3.445005 1_555
As2 K1 3.452985 1_654
As2 K0 3.456609 1_665
As2 K1 3.462426 1_655
As3 Be0 2.340600 1_555
As3 Be2 2.349138 1_555
As3 Be1 2.351519 1_556
As3 Si0 2.360018 1_556
As3 K1 3.445005 1_655
As3 K0 3.452985 1_556
As3 K1 3.456609 1_545
As3 K0 3.462426 1_555
