# generated using pymatgen
data_Y3Lu5(AlNi)2
_symmetry_space_group_name_H-M   'P 1'
_cell_length_a   9.29553159
_cell_length_b   9.29553116
_cell_length_c   9.29553158
_cell_angle_alpha   59.99999499
_cell_angle_beta   59.99999653
_cell_angle_gamma   59.99999411
_symmetry_Int_Tables_number   1
_chemical_formula_structural   Y3Lu5(AlNi)2
_chemical_formula_sum   'Y6 Lu10 Al4 Ni4'
_cell_volume   567.94676209
_cell_formula_units_Z   2
loop_
 _symmetry_equiv_pos_site_id
 _symmetry_equiv_pos_as_xyz
  1  'x, y, z'
loop_
 _atom_site_type_symbol
 _atom_site_label
 _atom_site_symmetry_multiplicity
 _atom_site_fract_x
 _atom_site_fract_y
 _atom_site_fract_z
 _atom_site_occupancy
  Y  Y0  1  0.18920844  0.81079156  0.81079156  1
  Y  Y1  1  0.81079156  0.18920844  0.18920844  1
  Y  Y2  1  0.81079156  0.18920844  0.81079156  1
  Y  Y3  1  0.18920844  0.81079156  0.18920844  1
  Y  Y4  1  0.81079156  0.81079156  0.18920844  1
  Y  Y5  1  0.18920844  0.18920844  0.81079156  1
  Lu  Lu0  1  0.59979496  0.59979496  0.59979496  1
  Lu  Lu1  1  0.59979496  0.59979496  0.20061513  1
  Lu  Lu2  1  0.59979496  0.20061513  0.59979496  1
  Lu  Lu3  1  0.20061513  0.59979496  0.59979496  1
  Lu  Lu4  1  0.06133485  0.43866515  0.43866515  1
  Lu  Lu5  1  0.43866515  0.06133485  0.06133485  1
  Lu  Lu6  1  0.43866515  0.06133485  0.43866515  1
  Lu  Lu7  1  0.06133485  0.43866515  0.06133485  1
  Lu  Lu8  1  0.43866515  0.43866515  0.06133485  1
  Lu  Lu9  1  0.06133485  0.06133485  0.43866515  1
  Al  Al0  1  0.82695046  0.82695046  0.82695046  1
  Al  Al1  1  0.82695046  0.82695046  0.51914763  1
  Al  Al2  1  0.82695046  0.51914763  0.82695046  1
  Al  Al3  1  0.51914763  0.82695046  0.82695046  1
  Ni  Ni0  1  0.39250239  0.39250239  0.39250239  1
  Ni  Ni1  1  0.39250239  0.39250239  0.82249384  1
  Ni  Ni2  1  0.39250239  0.82249384  0.39250239  1
  Ni  Ni3  1  0.82249384  0.39250239  0.39250239  1
loop_
_geom_bond_atom_site_label_1
_geom_bond_atom_site_label_2
_geom_bond_distance
_geom_bond_site_symmetry_2
Y0 Y2 3.517586 1_465
Y0 Y4 3.517586 1_456
Y0 Y5 3.517586 1_565
Y0 Y3 3.517586 1_556
Y1 Y3 3.517586 1_645
Y1 Y5 3.517586 1_654
Y1 Y4 3.517586 1_545
Y1 Y2 3.517586 1_554
Y2 Y4 3.517586 1_546
Y2 Y5 3.517586 1_655
Y3 Y5 3.517586 1_564
Y3 Y4 3.517586 1_455
Lu0 Ni2 2.728801 1_555
Lu0 Ni3 2.728801 1_555
Lu0 Ni1 2.728801 1_555
Lu0 Y2 3.337021 1_555
Lu0 Y0 3.337021 1_555
Lu0 Y4 3.337021 1_555
Lu1 Ni0 2.728800 1_555
Lu1 Ni2 2.728807 1_555
Lu1 Ni3 2.728807 1_555
Lu1 Y1 3.337021 1_555
Lu1 Y3 3.337021 1_555
Lu1 Y4 3.337022 1_555
Lu2 Ni0 2.728800 1_555
Lu2 Ni1 2.728807 1_555
Lu2 Ni3 2.728807 1_555
Lu2 Y1 3.337022 1_555
Lu2 Y5 3.337022 1_555
Lu2 Y2 3.337022 1_555
Lu3 Ni0 2.728800 1_555
Lu3 Ni1 2.728807 1_555
Lu3 Ni2 2.728807 1_555
Lu3 Y5 3.337021 1_555
Lu3 Y3 3.337021 1_555
Lu3 Y0 3.337022 1_555
Lu4 Ni3 2.717877 1_455
Lu4 Ni0 2.717886 1_555
Lu4 Y4 3.477015 1_455
Lu4 Y3 3.477015 1_555
Lu4 Y2 3.477015 1_455
Lu4 Y5 3.477015 1_555
Lu5 Ni1 2.717882 1_554
Lu5 Ni2 2.717882 1_545
Lu5 Y4 3.477015 1_545
Lu5 Y2 3.477015 1_554
Lu5 Y3 3.477015 1_545
Lu5 Y5 3.477015 1_554
Lu6 Ni2 2.717877 1_545
Lu6 Ni0 2.717885 1_555
Lu6 Y4 3.477015 1_545
Lu6 Y0 3.477015 1_545
Lu6 Y5 3.477015 1_555
Lu6 Y1 3.477015 1_555
Lu7 Ni1 2.717882 1_554
Lu7 Ni3 2.717882 1_455
Lu7 Y4 3.477015 1_455
Lu7 Y0 3.477015 1_554
Lu7 Y5 3.477015 1_554
Lu7 Y1 3.477015 1_455
Lu8 Ni1 2.717877 1_554
Lu8 Ni0 2.717886 1_555
Lu8 Y0 3.477015 1_554
Lu8 Y3 3.477015 1_555
Lu8 Y2 3.477015 1_554
Lu8 Y1 3.477015 1_555
Lu9 Ni3 2.717882 1_455
Lu9 Ni2 2.717882 1_545
Lu9 Y0 3.477015 1_545
Lu9 Y2 3.477015 1_455
Lu9 Y3 3.477015 1_545
Lu9 Y1 3.477015 1_455
Al0 Al2 2.861191 1_555
Al0 Al1 2.861191 1_555
Al0 Al3 2.861191 1_555
Al0 Y2 3.224180 1_565
Al0 Y4 3.224180 1_556
Al0 Y0 3.224180 1_655
Al0 Lu2 3.282049 1_565
Al0 Lu3 3.282049 1_655
Al0 Lu1 3.282049 1_556
Al0 Lu7 3.397101 1_656
Al0 Lu5 3.397101 1_566
Al0 Lu9 3.397101 1_665
Al1 Al2 2.861191 1_555
Al1 Al3 2.861191 1_555
Al1 Y4 3.224171 1_555
Al1 Y1 3.224176 1_565
Al1 Y3 3.224176 1_655
Al1 Lu0 3.282045 1_555
Al1 Lu2 3.282053 1_565
Al1 Lu3 3.282053 1_655
Al1 Lu4 3.397097 1_655
Al1 Lu6 3.397097 1_565
Al1 Lu9 3.397105 1_665
Al2 Al3 2.861191 1_555
Al2 Y2 3.224171 1_555
Al2 Y5 3.224176 1_655
Al2 Y1 3.224176 1_556
Al2 Lu0 3.282045 1_555
Al2 Lu1 3.282053 1_556
Al2 Lu3 3.282053 1_655
Al2 Lu4 3.397097 1_655
Al2 Lu8 3.397097 1_556
Al2 Lu7 3.397105 1_656
Al3 Y0 3.224171 1_555
Al3 Y5 3.224176 1_565
Al3 Y3 3.224176 1_556
Al3 Lu0 3.282045 1_555
Al3 Lu2 3.282053 1_565
Al3 Lu1 3.282053 1_556
Al3 Lu8 3.397097 1_556
Al3 Lu6 3.397097 1_565
Al3 Lu5 3.397105 1_566
Ni0 Y3 3.337080 1_555
Ni0 Y1 3.337080 1_555
Ni0 Y5 3.337080 1_555
Ni1 Y0 3.337078 1_555
Ni1 Y2 3.337078 1_555
Ni1 Y5 3.337086 1_555
Ni2 Y0 3.337078 1_555
Ni2 Y4 3.337078 1_555
Ni2 Y3 3.337086 1_555
Ni3 Y4 3.337078 1_555
Ni3 Y2 3.337078 1_555
Ni3 Y1 3.337086 1_555
