# generated using pymatgen
data_Tb2Pd2Pb
_symmetry_space_group_name_H-M   'P 1'
_cell_length_a   7.84459615
_cell_length_b   7.84459615
_cell_length_c   3.65586672
_cell_angle_alpha   90.00000000
_cell_angle_beta   90.00000000
_cell_angle_gamma   90.00000000
_symmetry_Int_Tables_number   1
_chemical_formula_structural   Tb2Pd2Pb
_chemical_formula_sum   'Tb4 Pd4 Pb2'
_cell_volume   224.97358835
_cell_formula_units_Z   2
loop_
 _symmetry_equiv_pos_site_id
 _symmetry_equiv_pos_as_xyz
  1  'x, y, z'
loop_
 _atom_site_type_symbol
 _atom_site_label
 _atom_site_symmetry_multiplicity
 _atom_site_fract_x
 _atom_site_fract_y
 _atom_site_fract_z
 _atom_site_occupancy
  Tb  Tb0  1  0.67262745  0.17262745  0.50000000  1
  Tb  Tb1  1  0.17262745  0.32737255  0.50000000  1
  Tb  Tb2  1  0.82737255  0.67262745  0.50000000  1
  Tb  Tb3  1  0.32737255  0.82737255  0.50000000  1
  Pd  Pd0  1  0.37531505  0.12468495  0.00000000  1
  Pd  Pd1  1  0.12468495  0.62468495  0.00000000  1
  Pd  Pd2  1  0.62468495  0.87531505  -0.00000000  1
  Pd  Pd3  1  0.87531505  0.37531505  -0.00000000  1
  Pb  Pb0  1  0.00000000  -0.00000000  0.00000000  1
  Pb  Pb1  1  0.50000000  0.50000000  0.00000000  1
loop_
_geom_bond_atom_site_label_1
_geom_bond_atom_site_label_2
_geom_bond_distance
_geom_bond_site_symmetry_2
Pd0 Pd2 2.766493 1_545
Pd0 Tb1 2.897854 1_554
Pd0 Tb1 2.897854 1_555
Pd0 Tb3 2.987036 1_544
Pd0 Tb3 2.987036 1_545
Pd0 Tb0 2.987036 1_554
Pd0 Tb0 2.987036 1_555
Pd1 Pd3 2.766493 1_455
Pd1 Tb3 2.897854 1_554
Pd1 Tb3 2.897854 1_555
Pd1 Tb1 2.987036 1_554
Pd1 Tb1 2.987036 1_555
Pd1 Tb2 2.987036 1_455
Pd1 Tb2 2.987036 1_454
Pd2 Tb2 2.897854 1_555
Pd2 Tb2 2.897854 1_554
Pd2 Tb3 2.987036 1_555
Pd2 Tb0 2.987036 1_564
Pd2 Tb0 2.987036 1_565
Pd2 Tb3 2.987036 1_554
Pd3 Tb0 2.897854 1_555
Pd3 Tb0 2.897854 1_554
Pd3 Tb1 2.987036 1_655
Pd3 Tb1 2.987036 1_654
Pd3 Tb2 2.987036 1_555
Pd3 Tb2 2.987036 1_554
Pb0 Pd1 3.102414 1_545
Pb0 Pd2 3.102414 1_445
Pb0 Pd0 3.102414 1_555
Pb0 Pd3 3.102414 1_455
Pb0 Tb1 3.430793 1_555
Pb0 Tb0 3.430793 1_454
Pb0 Tb3 3.430793 1_544
Pb0 Tb3 3.430793 1_545
Pb0 Tb2 3.430793 1_445
Pb0 Tb2 3.430793 1_444
Pb0 Tb0 3.430793 1_455
Pb0 Tb1 3.430793 1_554
Pb1 Pd1 3.102414 1_555
Pb1 Pd3 3.102414 1_555
Pb1 Pd0 3.102414 1_555
Pb1 Pd2 3.102414 1_555
Pb1 Tb1 3.430793 1_555
Pb1 Tb2 3.430793 1_555
Pb1 Tb2 3.430793 1_554
Pb1 Tb3 3.430793 1_554
Pb1 Tb0 3.430793 1_555
Pb1 Tb3 3.430793 1_555
Pb1 Tb0 3.430793 1_554
Pb1 Tb1 3.430793 1_554
