# generated using pymatgen
data_Sr3Sn4(IrRh)2
_symmetry_space_group_name_H-M   'P 1'
_cell_length_a   7.03601405
_cell_length_b   7.02924938
_cell_length_c   7.02924952
_cell_angle_alpha   109.50354090
_cell_angle_beta   109.43561156
_cell_angle_gamma   109.43559734
_symmetry_Int_Tables_number   1
_chemical_formula_structural   Sr3Sn4(IrRh)2
_chemical_formula_sum   'Sr3 Sn4 Ir2 Rh2'
_cell_volume   267.75090721
_cell_formula_units_Z   1
loop_
 _symmetry_equiv_pos_site_id
 _symmetry_equiv_pos_as_xyz
  1  'x, y, z'
loop_
 _atom_site_type_symbol
 _atom_site_label
 _atom_site_symmetry_multiplicity
 _atom_site_fract_x
 _atom_site_fract_y
 _atom_site_fract_z
 _atom_site_occupancy
  Sr  Sr0  1  0.50000000  0.50089021  0.00089021  1
  Sr  Sr1  1  0.00000000  0.49891062  0.49891062  1
  Sr  Sr2  1  0.50000000  0.00089021  0.50089021  1
  Sn  Sn0  1  0.38234989  0.99980212  0.99980212  1
  Sn  Sn1  1  1.00000000  0.99972089  0.38343156  1
  Sn  Sn2  1  0.00000000  0.38343156  0.99972089  1
  Sn  Sn3  1  0.61764911  0.61745123  0.61745223  1
  Ir  Ir0  1  0.25133753  0.25121328  0.25121328  1
  Ir  Ir1  1  0.74866247  0.99987476  0.99987476  1
  Rh  Rh0  1  1.00000000  0.74846648  0.99934764  1
  Rh  Rh1  1  0.00000000  0.99934764  0.74846648  1
loop_
_geom_bond_atom_site_label_1
_geom_bond_atom_site_label_2
_geom_bond_distance
_geom_bond_site_symmetry_2
Sn0 Sr2 3.336033 1_566
Sn0 Sr0 3.336033 1_566
Sn0 Sr1 3.338549 1_555
Sn1 Sr1 3.327099 1_665
Sn1 Sr2 3.331868 1_665
Sn1 Sr0 3.331868 1_555
Sn2 Sr1 3.327099 1_556
Sn2 Sr2 3.331868 1_455
Sn2 Sr0 3.331868 1_556
Sn3 Sr0 3.336027 1_556
Sn3 Sr2 3.336037 1_565
Sn3 Sr1 3.338553 1_655
Ir0 Sn3 2.577031 1_555
Ir0 Sn0 2.679325 1_544
Ir0 Sn2 2.688227 1_554
Ir0 Sn1 2.688228 1_445
Ir0 Rh1 2.886198 1_544
Ir0 Rh0 2.886198 1_444
Ir0 Ir1 2.889770 1_444
Ir0 Sr1 3.356226 1_555
Ir0 Sr2 3.362248 1_555
Ir0 Sr0 3.362248 1_555
Ir1 Sn0 2.577041 1_555
Ir1 Sn3 2.679319 1_555
Ir1 Sn1 2.688229 1_556
Ir1 Sn2 2.688229 1_665
Ir1 Rh0 2.886192 1_555
Ir1 Rh1 2.886192 1_655
Ir1 Sr1 3.356233 1_666
Ir1 Sr2 3.362245 1_565
Ir1 Sr0 3.362246 1_556
Rh0 Sn2 2.566799 1_655
Rh0 Sn0 2.680684 1_655
Rh0 Sn3 2.680685 1_555
Rh0 Sn1 2.687816 1_556
Rh0 Rh1 2.880368 1_655
Rh0 Sr1 3.366156 1_655
Rh0 Sr2 3.371747 1_666
Rh0 Sr0 3.371747 1_556
Rh1 Sn1 2.566799 1_455
Rh1 Sn0 2.680683 1_555
Rh1 Sn3 2.680691 1_455
Rh1 Sn2 2.687816 1_565
Rh1 Sr1 3.366156 1_555
Rh1 Sr2 3.371747 1_465
Rh1 Sr0 3.371747 1_566
