# generated using pymatgen
data_Sr4ZnCr3H20
_symmetry_space_group_name_H-M   'P 1'
_cell_length_a   4.63590207
_cell_length_b   4.99669004
_cell_length_c   12.37423934
_cell_angle_alpha   90.09170109
_cell_angle_beta   92.53813302
_cell_angle_gamma   89.96810410
_symmetry_Int_Tables_number   1
_chemical_formula_structural   Sr4ZnCr3H20
_chemical_formula_sum   'Sr4 Zn1 Cr3 H20'
_cell_volume   286.35732826
_cell_formula_units_Z   1
loop_
 _symmetry_equiv_pos_site_id
 _symmetry_equiv_pos_as_xyz
  1  'x, y, z'
loop_
 _atom_site_type_symbol
 _atom_site_label
 _atom_site_symmetry_multiplicity
 _atom_site_fract_x
 _atom_site_fract_y
 _atom_site_fract_z
 _atom_site_occupancy
  Sr  Sr0  1  0.23644745  0.24803946  0.65257236  1
  Sr  Sr1  1  0.80547306  0.25210160  0.34560767  1
  Sr  Sr2  1  0.24382192  0.75139145  0.14861838  1
  Sr  Sr3  1  0.70723470  0.74888650  0.85030457  1
  Zn  Zn0  1  0.64081200  0.74742736  0.60126222  1
  Cr  Cr0  1  0.26621037  0.24947990  0.92658011  1
  Cr  Cr1  1  0.78507910  0.25114639  0.07645728  1
  Cr  Cr2  1  0.26817983  0.75116435  0.42558557  1
  H  H0  1  0.50155275  0.54107778  0.48847093  1
  H  H1  1  0.06542711  0.98129102  0.48372078  1
  H  H2  1  0.99258101  0.46394851  0.99875146  1
  H  H3  1  0.49335198  0.03498803  0.00315620  1
  H  H4  1  0.16920067  0.00685909  0.83509400  1
  H  H5  1  0.71063131  0.49779506  0.16874630  1
  H  H6  1  0.34242587  0.98101006  0.33127666  1
  H  H7  1  0.77479926  0.48485867  0.66531714  1
  H  H8  1  0.16807231  0.49012128  0.83465680  1
  H  H9  1  0.71098472  0.00536800  0.16878051  1
  H  H10  1  0.33824248  0.51961244  0.33117576  1
  H  H11  1  0.77839913  0.00686227  0.66646833  1
  H  H12  1  0.54920190  0.24897654  0.84654757  1
  H  H13  1  0.08869396  0.25156503  0.15604182  1
  H  H14  1  0.97543143  0.75250659  0.34353519  1
  H  H15  1  0.33658870  0.74798639  0.67533616  1
  H  H16  1  0.99254388  0.03716474  0.99882555  1
  H  H17  1  0.49274971  0.46553665  0.00296304  1
  H  H18  1  0.50330103  0.95797699  0.48959478  1
  H  H19  1  0.06256237  0.52485585  0.48455385  1
loop_
_geom_bond_atom_site_label_1
_geom_bond_atom_site_label_2
_geom_bond_distance
_geom_bond_site_symmetry_2
Cr0 H12 1.678386 1_555
Cr0 H8 1.704281 1_555
Cr0 H4 1.704299 1_555
Cr0 H3 1.751851 1_556
Cr0 H17 1.752673 1_556
Cr0 H16 1.907674 1_455
Cr0 H2 1.910723 1_455
Cr1 H13 1.681725 1_655
Cr1 H9 1.723667 1_555
Cr1 H5 1.723978 1_555
Cr1 H2 1.751256 1_554
Cr1 H16 1.751695 1_554
Cr1 H17 1.924466 1_555
Cr1 H3 1.925662 1_555
Cr2 H14 1.658534 1_455
Cr2 H1 1.667105 1_555
Cr2 H19 1.668897 1_555
Cr2 H0 1.674742 1_555
Cr2 H18 1.674964 1_555
Cr2 H10 1.684577 1_555
Cr2 H6 1.685125 1_555
H0 Zn0 1.828718 1_555
H0 Sr1 2.721289 1_555
H0 Sr0 2.830266 1_555
H1 Sr1 2.455067 1_465
H1 Sr0 2.572212 1_565
H2 Sr2 2.580815 1_656
H2 Sr3 2.634820 1_555
H3 Sr3 2.600028 1_544
H3 Sr2 2.603948 1_545
H4 Sr3 2.514577 1_445
H4 Sr0 2.592697 1_555
H4 Sr3 2.806062 1_545
H5 Sr2 2.510211 1_555
H5 Sr1 2.532364 1_555
H5 Sr2 2.799393 1_655
H6 Sr1 2.538327 1_565
H6 Sr2 2.556339 1_555
H6 Sr1 2.845571 1_465
H7 Zn0 1.641397 1_555
H7 Sr0 2.455981 1_655
H7 Sr3 2.670548 1_555
H7 Sr0 2.760739 1_555
H8 Sr3 2.511219 1_455
H8 Sr0 2.587363 1_555
H8 Sr3 2.813666 1_555
H9 Sr2 2.513414 1_545
H9 Sr1 2.531139 1_555
H9 Sr2 2.797247 1_645
H10 Sr1 2.544320 1_555
H10 Sr2 2.560511 1_555
H10 Sr1 2.821759 1_455
H11 Zn0 1.640218 1_545
H11 Sr0 2.454948 1_655
H11 Sr3 2.649835 1_545
H11 Sr0 2.784450 1_555
H12 Sr3 2.603273 1_555
H12 Sr3 2.603496 1_545
H12 Sr0 2.748706 1_555
H13 Sr2 2.602231 1_555
H13 Sr2 2.602845 1_545
H13 Sr1 2.738459 1_455
H14 Sr1 2.617723 1_565
H14 Sr1 2.622497 1_555
H14 Sr2 2.762495 1_655
H15 Zn0 1.715735 1_555
H15 Sr0 2.553963 1_555
H15 Sr0 2.554858 1_565
H15 Sr3 2.703820 1_555
H16 Sr2 2.578189 1_646
H16 Sr3 2.642023 1_545
H17 Sr3 2.595795 1_554
H17 Sr2 2.606634 1_555
H18 Zn0 1.829880 1_555
H18 Sr1 2.743815 1_565
H18 Sr0 2.812090 1_565
H19 Sr1 2.459041 1_455
H19 Sr0 2.597143 1_555
