# generated using pymatgen
data_Hf7Zr3(SiSn3)2
_symmetry_space_group_name_H-M   'P 1'
_cell_length_a   8.61362964
_cell_length_b   8.61362902
_cell_length_c   5.79160158
_cell_angle_alpha   90.00000000
_cell_angle_beta   90.00000000
_cell_angle_gamma   120.00000240
_symmetry_Int_Tables_number   1
_chemical_formula_structural   Hf7Zr3(SiSn3)2
_chemical_formula_sum   'Hf7 Zr3 Si2 Sn6'
_cell_volume   372.13597568
_cell_formula_units_Z   1
loop_
 _symmetry_equiv_pos_site_id
 _symmetry_equiv_pos_as_xyz
  1  'x, y, z'
loop_
 _atom_site_type_symbol
 _atom_site_label
 _atom_site_symmetry_multiplicity
 _atom_site_fract_x
 _atom_site_fract_y
 _atom_site_fract_z
 _atom_site_occupancy
  Hf  Hf0  1  0.66666700  0.33333300  0.99882903  1
  Hf  Hf1  1  0.33333300  0.66666700  0.99882903  1
  Hf  Hf2  1  0.33333300  0.66666700  0.50117097  1
  Hf  Hf3  1  0.66666700  0.33333300  0.50117097  1
  Hf  Hf4  1  0.73447064  0.73447064  0.75000000  1
  Hf  Hf5  1  0.26552936  0.00000000  0.75000000  1
  Hf  Hf6  1  1.00000000  0.26552936  0.75000000  1
  Zr  Zr0  1  0.25364804  0.25364804  0.25000000  1
  Zr  Zr1  1  0.74635196  0.00000000  0.25000000  1
  Zr  Zr2  1  1.00000000  0.74635196  0.25000000  1
  Si  Si0  1  0.00000000  0.00000000  0.98305380  1
  Si  Si1  1  0.00000000  0.00000000  0.51694620  1
  Sn  Sn0  1  0.39236617  0.39236617  0.75000000  1
  Sn  Sn1  1  0.60763383  0.00000000  0.75000000  1
  Sn  Sn2  1  1.00000000  0.60763383  0.75000000  1
  Sn  Sn3  1  0.60206416  0.60206416  0.25000000  1
  Sn  Sn4  1  0.39793584  0.00000000  0.25000000  1
  Sn  Sn5  1  0.00000000  0.39793584  0.25000000  1
loop_
_geom_bond_atom_site_label_1
_geom_bond_atom_site_label_2
_geom_bond_distance
_geom_bond_site_symmetry_2
Hf0 Sn5 3.011952 1_656
Hf0 Sn4 3.011955 1_556
Hf0 Sn3 3.011960 1_556
Hf0 Sn1 3.019807 1_555
Hf0 Sn2 3.019810 1_555
Hf0 Sn0 3.019815 1_555
Hf1 Sn4 3.011952 1_566
Hf1 Sn5 3.011955 1_556
Hf1 Sn3 3.011960 1_556
Hf1 Sn2 3.019807 1_455
Hf1 Sn1 3.019810 1_565
Hf1 Sn0 3.019814 1_555
Hf2 Sn4 3.011952 1_565
Hf2 Sn5 3.011955 1_555
Hf2 Sn3 3.011960 1_555
Hf2 Sn2 3.019807 1_455
Hf2 Sn1 3.019810 1_565
Hf2 Sn0 3.019814 1_555
Hf3 Sn5 3.011952 1_655
Hf3 Sn4 3.011955 1_555
Hf3 Sn3 3.011960 1_555
Hf3 Sn1 3.019807 1_555
Hf3 Sn2 3.019810 1_555
Hf3 Sn0 3.019815 1_555
Hf4 Si0 2.655747 1_665
Hf4 Si1 2.655747 1_665
Hf4 Sn0 2.946761 1_555
Hf4 Sn1 2.987232 1_565
Hf4 Sn2 2.987232 1_555
Hf4 Sn3 3.112299 1_556
Hf4 Sn3 3.112299 1_555
Hf5 Si0 2.655747 1_555
Hf5 Si1 2.655747 1_555
Hf5 Sn1 2.946761 1_555
Hf5 Sn2 2.987232 1_445
Hf5 Sn0 2.987232 1_555
Hf5 Sn4 3.112299 1_555
Hf5 Sn4 3.112299 1_556
Hf6 Si0 2.655747 1_655
Hf6 Si1 2.655747 1_655
Hf6 Sn2 2.946761 1_555
Hf6 Sn1 2.987232 1_555
Hf6 Sn0 2.987232 1_655
Hf6 Sn5 3.112299 1_656
Hf6 Sn5 3.112299 1_655
Si0 Zr0 2.676517 1_556
Si0 Zr2 2.676517 1_446
Si0 Zr1 2.676517 1_456
Si1 Zr0 2.676517 1_555
Si1 Zr2 2.676517 1_445
Si1 Zr1 2.676517 1_455
Sn0 Zr0 3.132630 1_555
Sn0 Zr0 3.132630 1_556
Sn1 Zr1 3.132630 1_556
Sn1 Zr1 3.132630 1_555
Sn2 Zr2 3.132630 1_556
Sn2 Zr2 3.132630 1_555
Sn3 Zr0 3.001127 1_555
Sn3 Zr1 3.005584 1_565
Sn3 Zr2 3.005584 1_555
Sn4 Zr1 3.001127 1_555
Sn4 Zr2 3.005584 1_445
Sn4 Zr0 3.005584 1_555
Sn5 Zr2 3.001127 1_455
Sn5 Zr1 3.005584 1_455
Sn5 Zr0 3.005584 1_555
