# generated using pymatgen
data_Cs2NbAgTe4
_symmetry_space_group_name_H-M   'P 1'
_cell_length_a   15.63352261
_cell_length_b   13.95977785
_cell_length_c   8.38245462
_cell_angle_alpha   84.91730586
_cell_angle_beta   62.80141107
_cell_angle_gamma   32.28128609
_symmetry_Int_Tables_number   1
_chemical_formula_structural   Cs2NbAgTe4
_chemical_formula_sum   'Cs4 Nb2 Ag2 Te8'
_cell_volume   676.97417521
_cell_formula_units_Z   2
loop_
 _symmetry_equiv_pos_site_id
 _symmetry_equiv_pos_as_xyz
  1  'x, y, z'
loop_
 _atom_site_type_symbol
 _atom_site_label
 _atom_site_symmetry_multiplicity
 _atom_site_fract_x
 _atom_site_fract_y
 _atom_site_fract_z
 _atom_site_occupancy
  Cs  Cs0  1  0.93070685  0.93070685  0.56929315  1
  Cs  Cs1  1  0.56929315  0.56929315  0.93070685  1
  Cs  Cs2  1  0.68070685  0.68070685  0.31929315  1
  Cs  Cs3  1  0.31929315  0.31929315  0.68070685  1
  Nb  Nb0  1  0.75000000  0.75000000  0.75000000  1
  Nb  Nb1  1  0.50000000  0.50000000  0.50000000  1
  Ag  Ag0  1  0.00000000  0.00000000  0.00000000  1
  Ag  Ag1  1  0.25000000  0.25000000  0.25000000  1
  Te  Te0  1  0.57279322  0.31318699  0.22763162  1
  Te  Te1  1  0.88638817  0.22763162  0.31318699  1
  Te  Te2  1  0.22763162  0.88638817  0.57279322  1
  Te  Te3  1  0.31318699  0.57279322  0.88638817  1
  Te  Te4  1  0.93681301  0.67720678  0.36361183  1
  Te  Te5  1  0.36361183  0.02236838  0.93681301  1
  Te  Te6  1  0.02236838  0.36361183  0.67720678  1
  Te  Te7  1  0.67720678  0.93681301  0.02236838  1
loop_
_geom_bond_atom_site_label_1
_geom_bond_atom_site_label_2
_geom_bond_distance
_geom_bond_site_symmetry_2
Cs0 Te3 3.880130 1_565
Cs0 Te0 3.880130 1_655
Cs0 Te4 3.982993 1_555
Cs0 Te7 3.982993 1_556
Cs0 Te0 4.092441 1_566
Cs0 Te3 4.092441 1_654
Cs0 Te1 4.146912 1_565
Cs0 Te2 4.146912 1_655
Cs1 Te1 3.880130 1_555
Cs1 Te2 3.880130 1_556
Cs1 Te5 3.982993 1_565
Cs1 Te6 3.982993 1_655
Cs1 Te2 4.092440 1_645
Cs1 Te1 4.092440 1_466
Cs1 Te3 4.146912 1_555
Cs1 Te0 4.146912 1_556
Cs2 Te5 3.880130 1_565
Cs2 Te6 3.880130 1_654
Cs2 Te1 3.982993 1_555
Cs2 Te2 3.982993 1_555
Cs2 Te6 4.092440 1_565
Cs2 Te5 4.092440 1_654
Cs2 Te4 4.146912 1_555
Cs2 Te7 4.146912 1_555
Cs3 Te4 3.880130 1_545
Cs3 Te7 3.880130 1_456
Cs3 Te3 3.982993 1_555
Cs3 Te0 3.982993 1_555
Cs3 Te7 4.092441 1_545
Cs3 Te4 4.092441 1_456
Cs3 Te5 4.146912 1_555
Cs3 Te6 4.146912 1_555
Nb0 Te6 2.640138 1_655
Nb0 Te7 2.640138 1_556
Nb0 Te5 2.640138 1_565
Nb0 Te4 2.640138 1_555
Nb1 Te2 2.640138 1_555
Nb1 Te0 2.640138 1_555
Nb1 Te1 2.640138 1_555
Nb1 Te3 2.640138 1_555
Ag0 Te3 2.795828 1_544
Ag0 Te1 2.795829 1_455
Ag0 Te0 2.795829 1_455
Ag0 Te2 2.795829 1_544
Ag0 Nb1 3.219776 1_544
Ag0 Nb1 3.219776 1_455
Ag1 Te4 2.795828 1_455
Ag1 Te5 2.795829 1_554
Ag1 Te7 2.795829 1_545
Ag1 Te6 2.795829 1_555
Ag1 Nb0 3.219776 1_544
Ag1 Nb0 3.219776 1_455
