# generated using pymatgen
data_NaBiSe2
_symmetry_space_group_name_H-M   'P 1'
_cell_length_a   7.45328103
_cell_length_b   7.45328103
_cell_length_c   7.45328103
_cell_angle_alpha   133.06575931
_cell_angle_beta   133.06575931
_cell_angle_gamma   68.55089569
_symmetry_Int_Tables_number   1
_chemical_formula_structural   NaBiSe2
_chemical_formula_sum   'Na2 Bi2 Se4'
_cell_volume   217.02672338
_cell_formula_units_Z   2
loop_
 _symmetry_equiv_pos_site_id
 _symmetry_equiv_pos_as_xyz
  1  'x, y, z'
loop_
 _atom_site_type_symbol
 _atom_site_label
 _atom_site_symmetry_multiplicity
 _atom_site_fract_x
 _atom_site_fract_y
 _atom_site_fract_z
 _atom_site_occupancy
  Na  Na0  1  0.00000000  0.00000000  0.00000000  1
  Na  Na1  1  0.75000000  0.25000000  0.50000000  1
  Bi  Bi0  1  0.50000000  0.50000000  0.00000000  1
  Bi  Bi1  1  0.25000000  0.75000000  0.50000000  1
  Se  Se0  1  0.74012300  0.74012300  0.00000000  1
  Se  Se1  1  0.49012300  0.99012300  0.50000000  1
  Se  Se2  1  0.25987700  0.25987700  0.00000000  1
  Se  Se3  1  0.00987700  0.50987700  0.50000000  1
loop_
_geom_bond_atom_site_label_1
_geom_bond_atom_site_label_2
_geom_bond_distance
_geom_bond_site_symmetry_2
Na0 Se1 2.970559 1_444
Na0 Se3 2.970559 1_555
Na0 Se1 2.970559 1_545
Na0 Se3 2.970559 1_544
Na0 Se0 3.201135 1_445
Na0 Se2 3.201135 1_555
Na1 Se2 2.970559 1_656
Na1 Se2 2.970559 1_555
Na1 Se0 2.970559 1_545
Na1 Se0 2.970559 1_556
Na1 Se3 3.201135 1_655
Na1 Se1 3.201135 1_545
Bi0 Se2 2.957807 1_555
Bi0 Se0 2.957807 1_555
Bi0 Se3 2.970559 1_655
Bi0 Se1 2.970559 1_544
Bi0 Se1 2.970559 1_555
Bi0 Se3 2.970559 1_554
Bi1 Se1 2.957807 1_555
Bi1 Se3 2.957807 1_555
Bi1 Se2 2.970559 1_566
Bi1 Se2 2.970559 1_555
Bi1 Se0 2.970559 1_455
Bi1 Se0 2.970559 1_556
