# generated using pymatgen
data_Te8OsBr2
_symmetry_space_group_name_H-M   'P 1'
_cell_length_a   8.97110187
_cell_length_b   8.97110236
_cell_length_c   10.69894890
_cell_angle_alpha   77.92953916
_cell_angle_beta   77.92953428
_cell_angle_gamma   115.95813339
_symmetry_Int_Tables_number   1
_chemical_formula_structural   Te8OsBr2
_chemical_formula_sum   'Te16 Os2 Br4'
_cell_volume   711.43817684
_cell_formula_units_Z   2
loop_
 _symmetry_equiv_pos_site_id
 _symmetry_equiv_pos_as_xyz
  1  'x, y, z'
loop_
 _atom_site_type_symbol
 _atom_site_label
 _atom_site_symmetry_multiplicity
 _atom_site_fract_x
 _atom_site_fract_y
 _atom_site_fract_z
 _atom_site_occupancy
  Te  Te0  1  0.79161795  0.08414465  0.14750118  1
  Te  Te1  1  0.91585535  0.20838205  0.35249882  1
  Te  Te2  1  0.20838205  0.91585535  0.85249882  1
  Te  Te3  1  0.08414465  0.79161795  0.64750118  1
  Te  Te4  1  0.98053116  0.76406285  0.20924295  1
  Te  Te5  1  0.23593715  0.01946884  0.29075705  1
  Te  Te6  1  0.01946884  0.23593715  0.79075705  1
  Te  Te7  1  0.76406285  0.98053116  0.70924295  1
  Te  Te8  1  0.75504179  0.71804102  0.46923592  1
  Te  Te9  1  0.28195898  0.24495821  0.03076408  1
  Te  Te10  1  0.24495821  0.28195898  0.53076408  1
  Te  Te11  1  0.71804102  0.75504179  0.96923592  1
  Te  Te12  1  0.52526430  0.79478319  0.36689355  1
  Te  Te13  1  0.20521681  0.47473570  0.13310645  1
  Te  Te14  1  0.47473570  0.20521681  0.63310645  1
  Te  Te15  1  0.79478319  0.52526430  0.86689355  1
  Os  Os0  1  0.00000000  0.00000000  0.00000000  1
  Os  Os1  1  0.00000000  0.00000000  0.50000000  1
  Br  Br0  1  0.59357548  0.40642452  0.25000000  1
  Br  Br1  1  0.40642452  0.59357548  0.75000000  1
  Br  Br2  1  0.00000000  0.50000000  0.50000000  1
  Br  Br3  1  0.50000000  0.00000000  0.00000000  1
loop_
_geom_bond_atom_site_label_1
_geom_bond_atom_site_label_2
_geom_bond_distance
_geom_bond_site_symmetry_2
Te0 Te12 2.762913 1_545
Te0 Te1 2.872639 1_555
Te1 Te13 2.762913 1_655
Te2 Te3 2.872639 1_555
Te4 Te8 2.904359 1_555
Te5 Te9 2.904359 1_555
Te10 Te14 2.791628 1_555
Te10 Te6 2.904359 1_555
Te11 Te15 2.791628 1_555
Te11 Te7 2.904359 1_555
Te12 Te8 2.791628 1_555
Te13 Te9 2.791628 1_555
Te14 Te2 2.762913 1_545
Te15 Te3 2.762913 1_655
Os0 Te4 2.655815 1_445
Os0 Te6 2.655815 1_554
Os0 Te2 2.656075 1_544
Os0 Te0 2.656075 1_455
Os0 Te9 2.668395 1_555
Os0 Te11 2.668395 1_444
Os1 Te7 2.655814 1_445
Os1 Te5 2.655814 1_555
Os1 Te3 2.656075 1_545
Os1 Te1 2.656075 1_455
Os1 Te10 2.668395 1_555
Os1 Te8 2.668395 1_445
Br2 Te3 3.224977 1_555
Br2 Te1 3.224977 1_455
Br3 Te0 3.224977 1_555
Br3 Te2 3.224977 1_544
