# generated using pymatgen
data_SrVF5
_symmetry_space_group_name_H-M   'P 1'
_cell_length_a   7.24434638
_cell_length_b   7.05891910
_cell_length_c   14.68691339
_cell_angle_alpha   85.28089244
_cell_angle_beta   90.00000000
_cell_angle_gamma   90.00000000
_symmetry_Int_Tables_number   1
_chemical_formula_structural   SrVF5
_chemical_formula_sum   'Sr8 V8 F40'
_cell_volume   748.50238590
_cell_formula_units_Z   8
loop_
 _symmetry_equiv_pos_site_id
 _symmetry_equiv_pos_as_xyz
  1  'x, y, z'
loop_
 _atom_site_type_symbol
 _atom_site_label
 _atom_site_symmetry_multiplicity
 _atom_site_fract_x
 _atom_site_fract_y
 _atom_site_fract_z
 _atom_site_occupancy
  Sr  Sr0  1  0.15654347  0.99771544  0.63823854  1
  Sr  Sr1  1  0.65654347  0.00228456  0.86176146  1
  Sr  Sr2  1  0.84345653  0.00228456  0.36176146  1
  Sr  Sr3  1  0.34345653  0.99771544  0.13823854  1
  Sr  Sr4  1  0.66045587  0.30742538  0.58443590  1
  Sr  Sr5  1  0.16045587  0.69257462  0.91556410  1
  Sr  Sr6  1  0.33954413  0.69257462  0.41556410  1
  Sr  Sr7  1  0.83954413  0.30742538  0.08443590  1
  V  V0  1  0.18452854  0.19012065  0.87448905  1
  V  V1  1  0.68452854  0.80987935  0.62551095  1
  V  V2  1  0.81547146  0.80987935  0.12551095  1
  V  V3  1  0.31547146  0.19012065  0.37448905  1
  V  V4  1  0.11918222  0.49271849  0.66339772  1
  V  V5  1  0.61918222  0.50728151  0.83660228  1
  V  V6  1  0.88081778  0.50728151  0.33660228  1
  V  V7  1  0.38081778  0.49271849  0.16339772  1
  F  F0  1  0.32536695  0.04269314  0.96506578  1
  F  F1  1  0.82536695  0.95730686  0.53493422  1
  F  F2  1  0.67463305  0.95730686  0.03493422  1
  F  F3  1  0.17463305  0.04269314  0.46506578  1
  F  F4  1  0.07941196  0.34830246  0.95930391  1
  F  F5  1  0.57941196  0.65169754  0.54069609  1
  F  F6  1  0.92058804  0.65169754  0.04069609  1
  F  F7  1  0.42058804  0.34830246  0.45930391  1
  F  F8  1  0.36530130  0.40242620  0.85158904  1
  F  F9  1  0.86530130  0.59757380  0.64841096  1
  F  F10  1  0.63469870  0.59757380  0.14841096  1
  F  F11  1  0.13469870  0.40242620  0.35158904  1
  F  F12  1  0.31292028  0.02865743  0.79371350  1
  F  F13  1  0.81292028  0.97134257  0.70628650  1
  F  F14  1  0.68707972  0.97134257  0.20628650  1
  F  F15  1  0.18707972  0.02865743  0.29371350  1
  F  F16  1  0.49590200  0.30205128  0.09447706  1
  F  F17  1  0.99590200  0.69794872  0.40552294  1
  F  F18  1  0.50409800  0.69794872  0.90552294  1
  F  F19  1  0.00409800  0.30205128  0.59447706  1
  F  F20  1  0.30473872  0.68683938  0.06847438  1
  F  F21  1  0.80473872  0.31316062  0.43152562  1
  F  F22  1  0.69526128  0.31316062  0.93152562  1
  F  F23  1  0.19526128  0.68683938  0.56847438  1
  F  F24  1  0.33974581  0.68674615  0.24416913  1
  F  F25  1  0.83974581  0.31325385  0.25583087  1
  F  F26  1  0.66025419  0.31325385  0.75583087  1
  F  F27  1  0.16025419  0.68674615  0.74416913  1
  F  F28  1  0.44733907  0.30384134  0.26998968  1
  F  F29  1  0.94733907  0.69615866  0.23001032  1
  F  F30  1  0.55266093  0.69615866  0.73001032  1
  F  F31  1  0.05266093  0.30384134  0.76998968  1
  F  F32  1  0.16187432  0.35422497  0.15078438  1
  F  F33  1  0.66187432  0.64577503  0.34921562  1
  F  F34  1  0.83812568  0.64577503  0.84921562  1
  F  F35  1  0.33812568  0.35422497  0.65078438  1
  F  F36  1  0.51105708  0.99673697  0.39300020  1
  F  F37  1  0.01105708  0.00326303  0.10699980  1
  F  F38  1  0.48894292  0.00326303  0.60699980  1
  F  F39  1  0.98894292  0.99673697  0.89300020  1
loop_
_geom_bond_atom_site_label_1
_geom_bond_atom_site_label_2
_geom_bond_distance
_geom_bond_site_symmetry_2
F0 V0 1.914647 1_555
F0 Sr3 2.540444 1_546
F0 Sr1 2.865395 1_555
F0 Sr5 2.891292 1_545
F1 V1 1.914647 1_555
F1 Sr2 2.540444 1_565
F1 Sr0 2.865395 1_655
F1 Sr4 2.891292 1_565
F2 V2 1.914647 1_555
F2 Sr1 2.540444 1_564
F2 Sr3 2.865395 1_555
F2 Sr7 2.891292 1_565
F3 V3 1.914647 1_555
F3 Sr0 2.540444 1_545
F3 Sr2 2.865395 1_455
F3 Sr6 2.891292 1_545
F4 V0 1.899267 1_555
F4 Sr7 2.528453 1_456
F4 Sr5 2.531072 1_555
F5 V1 1.899267 1_555
F5 Sr6 2.528453 1_555
F5 Sr4 2.531072 1_555
F6 V2 1.899267 1_555
F6 Sr5 2.528453 1_654
F6 Sr7 2.531072 1_555
F7 V3 1.899267 1_555
F7 Sr4 2.528453 1_555
F7 Sr6 2.531072 1_555
F8 V5 1.988001 1_555
F8 V0 1.997781 1_555
F8 Sr5 2.756177 1_555
F9 V4 1.988001 1_655
F9 V1 1.997781 1_555
F9 Sr4 2.756177 1_555
F10 V7 1.988001 1_555
F10 V2 1.997781 1_555
F10 Sr7 2.756177 1_555
F11 V6 1.988001 1_455
F11 V3 1.997781 1_555
F11 Sr6 2.756177 1_555
F12 V0 1.947832 1_555
F12 Sr0 2.574344 1_545
F12 Sr1 2.683210 1_555
F12 Sr5 3.058143 1_545
F13 V1 1.947832 1_555
F13 Sr1 2.574344 1_565
F13 Sr0 2.683210 1_655
F13 Sr4 3.058143 1_565
F14 V2 1.947832 1_555
F14 Sr2 2.574344 1_565
F14 Sr3 2.683210 1_555
F14 Sr7 3.058143 1_565
F15 V3 1.947832 1_555
F15 Sr3 2.574344 1_545
F15 Sr2 2.683210 1_455
F15 Sr6 3.058143 1_545
F16 V7 1.937862 1_555
F16 Sr3 2.453700 1_545
F16 Sr7 2.493931 1_555
F17 V6 1.937862 1_555
F17 Sr2 2.453700 1_565
F17 Sr6 2.493931 1_655
F18 V5 1.937862 1_555
F18 Sr1 2.453700 1_565
F18 Sr5 2.493931 1_555
F19 V4 1.937862 1_555
F19 Sr0 2.453700 1_545
F19 Sr4 2.493931 1_455
F20 V7 1.952102 1_555
F20 Sr5 2.474414 1_554
F20 Sr3 2.512786 1_555
F21 V6 1.952102 1_555
F21 Sr4 2.474414 1_555
F21 Sr2 2.512786 1_555
F22 V5 1.952102 1_555
F22 Sr7 2.474414 1_556
F22 Sr1 2.512786 1_555
F23 V4 1.952102 1_555
F23 Sr6 2.474414 1_555
F23 Sr0 2.512786 1_555
F24 V7 1.907619 1_555
F24 Sr6 2.520982 1_555
F24 Sr3 2.584140 1_555
F25 V6 1.907619 1_555
F25 Sr7 2.520982 1_555
F25 Sr2 2.584140 1_555
F26 V5 1.907619 1_555
F26 Sr4 2.520982 1_555
F26 Sr1 2.584140 1_555
F27 V4 1.907619 1_555
F27 Sr5 2.520982 1_555
F27 Sr0 2.584140 1_555
F28 V3 1.926083 1_555
F28 V7 2.029091 1_555
F28 Sr3 3.109377 1_545
F29 V2 1.926083 1_555
F29 V6 2.029091 1_555
F29 Sr2 3.109377 1_565
F30 V1 1.926083 1_555
F30 V5 2.029091 1_555
F30 Sr1 3.109377 1_565
F31 V0 1.926083 1_555
F31 V4 2.029091 1_555
F31 Sr0 3.109377 1_545
F32 V7 1.880311 1_555
F32 Sr7 2.562074 1_455
F32 Sr3 2.858982 1_545
F33 V6 1.880311 1_555
F33 Sr6 2.562074 1_555
F33 Sr2 2.858982 1_565
F34 V5 1.880311 1_555
F34 Sr5 2.562074 1_655
F34 Sr1 2.858982 1_565
F35 V4 1.880311 1_555
F35 Sr4 2.562074 1_555
F35 Sr0 2.858982 1_545
F36 V3 1.970753 1_565
F36 Sr2 2.451045 1_565
F36 Sr6 2.479195 1_555
F37 V2 1.970753 1_445
F37 Sr3 2.451045 1_545
F37 Sr7 2.479195 1_455
F38 V1 1.970753 1_545
F38 Sr0 2.451045 1_545
F38 Sr4 2.479195 1_555
F39 V0 1.970753 1_665
F39 Sr1 2.451045 1_565
F39 Sr5 2.479195 1_655
