# generated using pymatgen
data_KAlGeS4
_symmetry_space_group_name_H-M   'P 1'
_cell_length_a   16.07204260
_cell_length_b   6.89317820
_cell_length_c   7.19811443
_cell_angle_alpha   70.08935285
_cell_angle_beta   90.00000000
_cell_angle_gamma   90.00000000
_symmetry_Int_Tables_number   1
_chemical_formula_structural   KAlGeS4
_chemical_formula_sum   'K4 Al4 Ge4 S16'
_cell_volume   749.79243812
_cell_formula_units_Z   4
loop_
 _symmetry_equiv_pos_site_id
 _symmetry_equiv_pos_as_xyz
  1  'x, y, z'
loop_
 _atom_site_type_symbol
 _atom_site_label
 _atom_site_symmetry_multiplicity
 _atom_site_fract_x
 _atom_site_fract_y
 _atom_site_fract_z
 _atom_site_occupancy
  K  K0  1  0.39294918  0.95637480  0.17788717  1
  K  K1  1  0.89294918  0.04362520  0.82211283  1
  K  K2  1  0.60452096  0.51720356  0.82450488  1
  K  K3  1  0.10452096  0.48279644  0.17549512  1
  Al  Al0  1  0.58298142  0.16104192  0.48160736  1
  Al  Al1  1  0.08298142  0.83895808  0.51839264  1
  Al  Al2  1  0.27375309  0.59613218  0.70741767  1
  Al  Al3  1  0.77375309  0.40386782  0.29258233  1
  Ge  Ge0  1  0.42033480  0.33010878  0.53011294  1
  Ge  Ge1  1  0.92033480  0.66989122  0.46988706  1
  Ge  Ge2  1  0.72427056  0.90761466  0.27617459  1
  Ge  Ge3  1  0.22427056  0.09238534  0.72382541  1
  S  S0  1  0.59540068  0.88054293  0.38856689  1
  S  S1  1  0.09540068  0.11945707  0.61143311  1
  S  S2  1  0.40939465  0.60618803  0.61793943  1
  S  S3  1  0.90939465  0.39381197  0.38206057  1
  S  S4  1  0.80138705  0.78620731  0.55283906  1
  S  S5  1  0.30138705  0.21379269  0.44716094  1
  S  S6  1  0.19963398  0.72208381  0.43454017  1
  S  S7  1  0.69963398  0.27791619  0.56545983  1
  S  S8  1  0.76032323  0.22271569  0.08479341  1
  S  S9  1  0.26032323  0.77728431  0.91520659  1
  S  S10  1  0.24130518  0.27652343  0.91888963  1
  S  S11  1  0.74130518  0.72347657  0.08111037  1
  S  S12  1  0.99682614  0.90738511  0.25068629  1
  S  S13  1  0.49682614  0.09261489  0.74931371  1
  S  S14  1  0.99691708  0.61166674  0.74021641  1
  S  S15  1  0.49691708  0.38833326  0.25978359  1
loop_
_geom_bond_atom_site_label_1
_geom_bond_atom_site_label_2
_geom_bond_distance
_geom_bond_site_symmetry_2
K0 S2 3.274488 1_555
K0 S13 3.348539 1_564
K0 S9 3.351504 1_554
K0 S5 3.378399 1_565
K0 S10 3.388747 1_564
K0 S0 3.552514 1_555
K0 S15 3.633333 1_565
K0 S6 3.693551 1_555
K1 S3 3.274488 1_555
K1 S12 3.348539 1_546
K1 S8 3.351504 1_556
K1 S4 3.378399 1_545
K1 S11 3.388747 1_546
K1 S1 3.552514 1_655
K1 S14 3.633333 1_545
K1 S7 3.693551 1_555
K2 S7 3.260244 1_555
K2 S0 3.284510 1_555
K2 S8 3.363170 1_556
K2 S15 3.420691 1_556
K2 S2 3.435237 1_555
K2 S11 3.472060 1_556
K2 S13 3.596351 1_555
K3 S6 3.260244 1_555
K3 S1 3.284510 1_555
K3 S9 3.363170 1_554
K3 S14 3.420691 1_454
K3 S3 3.435237 1_455
K3 S10 3.472060 1_554
K3 S12 3.596351 1_455
Al0 S7 2.204450 1_555
Al0 S0 2.260282 1_545
Al0 S15 2.283341 1_555
Al0 S13 2.287801 1_555
Al1 S6 2.204450 1_555
Al1 S1 2.260282 1_565
Al1 S14 2.283341 1_455
Al1 S12 2.287801 1_455
Al2 S6 2.206678 1_555
Al2 S9 2.261649 1_555
Al2 S2 2.267551 1_555
Al2 S10 2.271264 1_555
Al3 S7 2.206678 1_555
Al3 S8 2.261649 1_555
Al3 S3 2.267551 1_555
Al3 S11 2.271264 1_555
Ge0 S2 2.207183 1_555
Ge0 S13 2.218475 1_555
Ge0 S15 2.220469 1_555
Ge0 S5 2.231634 1_555
Ge1 S3 2.207183 1_555
Ge1 S12 2.218475 1_555
Ge1 S14 2.220469 1_555
Ge1 S4 2.231634 1_555
Ge2 S11 2.207132 1_555
Ge2 S0 2.208252 1_555
Ge2 S8 2.216592 1_565
Ge2 S4 2.251068 1_555
Ge3 S10 2.207132 1_555
Ge3 S1 2.208252 1_555
Ge3 S9 2.216592 1_545
Ge3 S5 2.251068 1_555
