# generated using pymatgen
data_Zr4TaSi4W3
_symmetry_space_group_name_H-M   'P 1'
_cell_length_a   3.55905936
_cell_length_b   6.96799831
_cell_length_c   8.27517042
_cell_angle_alpha   90.05394422
_cell_angle_beta   90.00000000
_cell_angle_gamma   90.00000000
_symmetry_Int_Tables_number   1
_chemical_formula_structural   Zr4TaSi4W3
_chemical_formula_sum   'Zr4 Ta1 Si4 W3'
_cell_volume   205.22016029
_cell_formula_units_Z   1
loop_
 _symmetry_equiv_pos_site_id
 _symmetry_equiv_pos_as_xyz
  1  'x, y, z'
loop_
 _atom_site_type_symbol
 _atom_site_label
 _atom_site_symmetry_multiplicity
 _atom_site_fract_x
 _atom_site_fract_y
 _atom_site_fract_z
 _atom_site_occupancy
  Zr  Zr0  1  0.25000000  0.54104105  0.16556893  1
  Zr  Zr1  1  0.25000000  0.04107792  0.33281178  1
  Zr  Zr2  1  0.75000000  0.45803755  0.83403356  1
  Zr  Zr3  1  0.75000000  0.96254286  0.67034798  1
  Ta  Ta0  1  0.25000000  0.62957649  0.55936683  1
  Si  Si0  1  0.25000000  0.75839086  0.86287044  1
  Si  Si1  1  0.25000000  0.25583708  0.63956341  1
  Si  Si2  1  0.75000000  0.24251882  0.13934243  1
  Si  Si3  1  0.75000000  0.74239942  0.35570199  1
  W  W0  1  0.25000000  0.13101233  0.94139510  1
  W  W1  1  0.75000000  0.36587833  0.43972719  1
  W  W2  1  0.75000000  0.87168629  0.05926936  1
loop_
_geom_bond_atom_site_label_1
_geom_bond_atom_site_label_2
_geom_bond_distance
_geom_bond_site_symmetry_2
Ta0 W1 2.742206 1_555
Ta0 W1 2.742206 1_455
Si0 W2 2.535531 1_456
Si0 W2 2.535531 1_556
Si0 Ta0 2.666319 1_555
Si0 W0 2.675910 1_565
Si0 Zr2 2.757317 1_555
Si0 Zr2 2.757317 1_455
Si0 Zr3 2.780779 1_555
Si0 Zr3 2.780779 1_455
Si0 Zr0 2.928355 1_556
Si1 W1 2.547881 1_555
Si1 W1 2.547881 1_455
Si1 W0 2.645592 1_555
Si1 Ta0 2.688050 1_555
Si1 Zr3 2.721985 1_545
Si1 Zr3 2.721985 1_445
Si1 Zr2 2.781602 1_555
Si1 Zr2 2.781602 1_455
Si1 Zr1 2.945466 1_555
Si2 W0 2.539926 1_554
Si2 W0 2.539926 1_654
Si2 W1 2.629394 1_555
Si2 W2 2.666963 1_545
Si2 Zr0 2.745870 1_655
Si2 Zr0 2.745870 1_555
Si2 Zr1 2.775669 1_655
Si2 Zr1 2.775669 1_555
Si2 Zr2 2.940317 1_554
Si3 Ta0 2.574431 1_555
Si3 Ta0 2.574431 1_655
Si3 W2 2.614018 1_555
Si3 W1 2.714807 1_555
Si3 Zr1 2.744942 1_565
Si3 Zr1 2.744942 1_665
Si3 Zr0 2.758024 1_655
Si3 Zr0 2.758024 1_555
Si3 Zr3 3.020765 1_555
W0 W2 2.717848 1_446
W0 W2 2.717848 1_546
W0 Zr2 3.025290 1_555
W0 Zr2 3.025290 1_455
W0 Zr3 3.093650 1_545
W0 Zr3 3.093650 1_445
W0 Zr1 3.299683 1_556
W0 Zr0 3.405030 1_556
W1 Zr1 3.011285 1_655
W1 Zr1 3.011285 1_555
W1 Zr0 3.131880 1_555
W1 Zr0 3.131880 1_655
W2 Zr0 3.041782 1_555
W2 Zr0 3.041782 1_655
W2 Zr1 3.111074 1_565
W2 Zr1 3.111074 1_665
W2 Zr3 3.280652 1_554
W2 Zr2 3.430969 1_554
