# generated using pymatgen
data_Ca4Ga15(SiIr2)3
_symmetry_space_group_name_H-M   'P 1'
_cell_length_a   7.47381350
_cell_length_b   7.40401801
_cell_length_c   9.61635222
_cell_angle_alpha   89.87556123
_cell_angle_beta   90.07487083
_cell_angle_gamma   119.83314660
_symmetry_Int_Tables_number   1
_chemical_formula_structural   Ca4Ga15(SiIr2)3
_chemical_formula_sum   'Ca4 Ga15 Si3 Ir6'
_cell_volume   461.61234566
_cell_formula_units_Z   1
loop_
 _symmetry_equiv_pos_site_id
 _symmetry_equiv_pos_as_xyz
  1  'x, y, z'
loop_
 _atom_site_type_symbol
 _atom_site_label
 _atom_site_symmetry_multiplicity
 _atom_site_fract_x
 _atom_site_fract_y
 _atom_site_fract_z
 _atom_site_occupancy
  Ca  Ca0  1  0.99662712  0.66587416  0.24835271  1
  Ca  Ca1  1  0.00356502  0.33829317  0.74986784  1
  Ca  Ca2  1  0.67248064  0.00438619  0.24841050  1
  Ca  Ca3  1  0.32454590  0.99163639  0.74933671  1
  Ga  Ga0  1  0.13072133  0.12948290  0.25071839  1
  Ga  Ga1  1  0.86936460  0.86750858  0.75095116  1
  Ga  Ga2  1  0.34102187  0.00783755  0.42414090  1
  Ga  Ga3  1  0.00239279  0.32766899  0.42781557  1
  Ga  Ga4  1  0.66686069  0.99919663  0.57654901  1
  Ga  Ga5  1  0.66266138  0.99558624  0.92177943  1
  Ga  Ga6  1  0.33892364  0.00717358  0.07636240  1
  Ga  Ga7  1  0.33487553  0.33187735  0.56833971  1
  Ga  Ga8  1  0.65839260  0.66669106  0.43440344  1
  Ga  Ga9  1  0.65674698  0.66567407  0.06785156  1
  Ga  Ga10  1  0.34028319  0.33275482  0.92982146  1
  Ga  Ga11  1  0.33186508  0.54289620  0.25078686  1
  Ga  Ga12  1  0.66698367  0.45836029  0.75182369  1
  Ga  Ga13  1  0.54544940  0.34026079  0.25108649  1
  Ga  Ga14  1  0.45592372  0.66182341  0.75056802  1
  Si  Si0  1  0.00325507  0.32918468  0.06547867  1
  Si  Si1  1  0.99627871  0.67053082  0.93536671  1
  Si  Si2  1  0.99898050  0.66576673  0.56137132  1
  Ir  Ir0  1  0.69382244  0.34266628  0.00349496  1
  Ir  Ir1  1  0.30558421  0.65749721  0.99797419  1
  Ir  Ir2  1  0.31805280  0.66923156  0.50334357  1
  Ir  Ir3  1  0.68390165  0.34326256  0.50210181  1
  Ir  Ir4  1  0.99979809  0.99995582  0.00044121  1
  Ir  Ir5  1  0.00064039  0.98691896  0.50146368  1
loop_
_geom_bond_atom_site_label_1
_geom_bond_atom_site_label_2
_geom_bond_distance
_geom_bond_site_symmetry_2
Ca0 Si1 3.009919 1_554
Ca0 Si2 3.010126 1_555
Ca0 Ga13 3.015785 1_555
Ca0 Ga6 3.037541 1_665
Ca0 Ga3 3.055972 1_655
Ca0 Ga0 3.060225 1_665
Ca0 Ga11 3.062148 1_655
Ca0 Ga2 3.068623 1_665
Ca0 Ga9 3.074124 1_555
Ca0 Si0 3.074333 1_655
Ca0 Ga8 3.101352 1_555
Ca1 Ga14 3.018369 1_555
Ca1 Ga4 3.022424 1_445
Ca1 Si0 3.035606 1_556
Ca1 Ga5 3.037008 1_445
Ca1 Si2 3.037936 1_455
Ca1 Ga7 3.051152 1_555
Ca1 Ga12 3.056761 1_455
Ca1 Si1 3.064092 1_455
Ca1 Ga10 3.069268 1_555
Ca1 Ga3 3.098028 1_555
Ca1 Ga1 3.110882 1_445
Ca2 Ga3 2.986652 1_655
Ca2 Ga6 2.998790 1_555
Ca2 Ga9 3.007128 1_545
Ca2 Si0 3.011171 1_655
Ca2 Ga2 3.011196 1_555
Ca2 Ga8 3.029971 1_545
Ca2 Ga0 3.071067 1_655
Ca2 Ga13 3.071767 1_555
Ca2 Ga11 3.082458 1_545
Ca2 Ga5 3.141821 1_544
Ca2 Ga4 3.155726 1_545
Ca3 Ga5 3.008693 1_555
Ca3 Si1 3.010214 1_455
Ca3 Ga10 3.021258 1_565
Ca3 Ga7 3.028090 1_565
Ca3 Si2 3.029099 1_455
Ca3 Ga4 3.029459 1_555
Ca3 Ga1 3.050804 1_455
Ca3 Ga14 3.051688 1_555
Ca3 Ga12 3.113335 1_565
Ca3 Ga2 3.129472 1_565
Ca3 Ga6 3.146887 1_566
Ga0 Ir4 2.596122 1_445
Ga0 Ir5 2.616783 1_545
Ga0 Ga11 2.655352 1_555
Ga0 Ga13 2.688900 1_555
Ga0 Ga3 2.718226 1_555
Ga0 Ga2 2.730911 1_555
Ga0 Ga6 2.732778 1_555
Ga0 Si0 2.766325 1_555
Ga1 Ir5 2.575680 1_655
Ga1 Ir4 2.592492 1_556
Ga1 Ga12 2.627891 1_555
Ga1 Ga14 2.680529 1_555
Ga1 Ga5 2.730465 1_555
Ga1 Ga4 2.740158 1_555
Ga1 Si1 2.744529 1_555
Ga1 Si2 2.819444 1_555
Ga2 Ir2 2.541394 1_545
Ga2 Ir5 2.580885 1_545
Ga2 Ir3 2.639650 1_555
Ga2 Ga7 2.793809 1_555
Ga2 Ga4 2.868427 1_545
Ga2 Si2 2.871151 1_445
Ga3 Ir3 2.543210 1_455
Ga3 Ir2 2.560503 1_555
Ga3 Ir5 2.612712 1_545
Ga3 Ga7 2.813580 1_555
Ga3 Si2 2.827387 1_455
Ga3 Ga4 2.859237 1_445
Ga4 Ir3 2.586090 1_565
Ga4 Ir2 2.631756 1_555
Ga4 Ir5 2.642593 1_655
Ga4 Ga8 2.791539 1_555
Ga5 Ir0 2.586187 1_566
Ga5 Ir4 2.614601 1_556
Ga5 Ir1 2.697321 1_555
Ga5 Ga9 2.796351 1_556
Ga5 Si0 2.870543 1_666
Ga5 Ga6 2.878863 1_566
Ga6 Ir1 2.588324 1_544
Ga6 Ir4 2.611599 1_445
Ga6 Ir0 2.671817 1_555
Ga6 Si1 2.874690 1_444
Ga7 Ir5 2.613807 1_545
Ga7 Ir2 2.636442 1_555
Ga7 Ir3 2.646266 1_555
Ga7 Ga8 2.771472 1_555
Ga8 Ir5 2.558995 1_655
Ga8 Ir3 2.577160 1_555
Ga8 Ir2 2.638562 1_555
Ga8 Si2 2.824802 1_555
Ga9 Ir4 2.608304 1_555
Ga9 Ir0 2.616400 1_555
Ga9 Ir1 2.679704 1_554
Ga9 Si1 2.825116 1_554
Ga10 Ir4 2.601329 1_446
Ga10 Ir1 2.627849 1_555
Ga10 Ir0 2.700260 1_556
Ga10 Ga12 2.738863 1_555
Ga10 Ga14 2.746827 1_555
Ga10 Ga9 2.763565 1_556
Ga10 Ga6 2.785295 1_556
Ga10 Si0 2.826564 1_556
Ga11 Ir1 2.612390 1_554
Ga11 Ir2 2.625008 1_555
Ga11 Ga13 2.679909 1_555
Ga11 Ga3 2.756075 1_555
Ga11 Ga9 2.761312 1_555
Ga11 Ga8 2.771950 1_555
Ga11 Si0 2.800948 1_555
Ga12 Ir3 2.574080 1_555
Ga12 Ir0 2.606119 1_556
Ga12 Ga14 2.668700 1_555
Ga12 Si1 2.791784 1_555
Ga12 Ga7 2.798959 1_555
Ga12 Si2 2.842134 1_555
Ga13 Ir3 2.620828 1_555
Ga13 Ir0 2.624097 1_555
Ga13 Ga2 2.721940 1_555
Ga13 Ga6 2.740704 1_555
Ga13 Ga9 2.755566 1_555
Ga13 Ga8 2.765194 1_555
Ga14 Ir2 2.601165 1_555
Ga14 Ir1 2.625776 1_555
Ga14 Ga5 2.723400 1_555
Ga14 Ga4 2.756077 1_555
Ga14 Ga7 2.769960 1_555
Si0 Si1 2.841275 1_454
Ir0 Si0 2.437084 1_655
Ir0 Si1 2.443189 1_554
Ir1 Si1 2.435932 1_455
Ir1 Si0 2.442954 1_556
Ir2 Si2 2.437482 1_455
Ir3 Si2 2.445338 1_555
Ir4 Si0 2.505536 1_665
Ir4 Si1 2.506811 1_554
Ir5 Si2 2.439420 1_455
