# generated using pymatgen
data_Y3Si3P3Pd20
_symmetry_space_group_name_H-M   'P 1'
_cell_length_a   8.63174507
_cell_length_b   8.63213465
_cell_length_c   8.62932057
_cell_angle_alpha   60.00778903
_cell_angle_beta   60.01226571
_cell_angle_gamma   59.97993721
_symmetry_Int_Tables_number   1
_chemical_formula_structural   Y3Si3P3Pd20
_chemical_formula_sum   'Y3 Si3 P3 Pd20'
_cell_volume   454.65116542
_cell_formula_units_Z   1
loop_
 _symmetry_equiv_pos_site_id
 _symmetry_equiv_pos_as_xyz
  1  'x, y, z'
loop_
 _atom_site_type_symbol
 _atom_site_label
 _atom_site_symmetry_multiplicity
 _atom_site_fract_x
 _atom_site_fract_y
 _atom_site_fract_z
 _atom_site_occupancy
  Y  Y0  1  0.24898618  0.25101382  0.24898618  1
  Y  Y1  1  0.74898618  0.75101382  0.74898618  1
  Y  Y2  1  0.00085059  0.99914941  0.00085059  1
  Si  Si0  1  0.73439411  0.26560589  0.26401145  1
  Si  Si1  1  0.26401145  0.73598855  0.73439411  1
  Si  Si2  1  0.26564958  0.73435042  0.26564958  1
  P  P0  1  0.73647795  0.26352205  0.73647795  1
  P  P1  1  0.26306224  0.26476584  0.73523416  1
  P  P2  1  0.73523416  0.73693776  0.26306224  1
  Pd  Pd0  1  0.38335769  0.38346936  0.38577353  1
  Pd  Pd1  1  0.61620064  0.61471578  0.61455576  1
  Pd  Pd2  1  0.38528422  0.38379936  0.84547318  1
  Pd  Pd3  1  0.38577353  0.84740043  0.38335769  1
  Pd  Pd4  1  0.61653064  0.61664231  0.15259957  1
  Pd  Pd5  1  0.61455576  0.15452682  0.61620064  1
  Pd  Pd6  1  0.84547318  0.38544424  0.38528422  1
  Pd  Pd7  1  0.15259957  0.61422647  0.61653064  1
  Pd  Pd8  1  0.34593873  0.00125639  0.99874361  1
  Pd  Pd9  1  0.65478727  0.00037348  0.99962652  1
  Pd  Pd10  1  0.99962652  0.34521273  0.65478727  1
  Pd  Pd11  1  0.99874361  0.65406127  0.34593873  1
  Pd  Pd12  1  0.00260579  0.34499288  0.00001977  1
  Pd  Pd13  1  0.65500712  0.99739421  0.34761843  1
  Pd  Pd14  1  0.00001977  0.65238157  0.00260579  1
  Pd  Pd15  1  0.34761843  0.99998023  0.65500712  1
  Pd  Pd16  1  0.00018406  0.99981594  0.34697951  1
  Pd  Pd17  1  0.99832915  0.00167085  0.65273338  1
  Pd  Pd18  1  0.65273338  0.34726662  0.99832915  1
  Pd  Pd19  1  0.34697951  0.65302049  0.00018406  1
loop_
_geom_bond_atom_site_label_1
_geom_bond_atom_site_label_2
_geom_bond_distance
_geom_bond_site_symmetry_2
P0 Pd18 2.372407 1_555
P0 Pd17 2.372407 1_555
P0 Pd9 2.378802 1_555
P0 Pd10 2.378802 1_555
P0 Pd6 2.475672 1_555
P0 Pd2 2.475672 1_555
P0 Pd1 2.475673 1_555
P0 Pd5 2.475679 1_555
P0 Y2 3.226180 1_646
P1 Pd12 2.375692 1_556
P1 Pd15 2.375692 1_545
P1 Pd10 2.377140 1_455
P1 Pd8 2.383945 1_555
P1 Pd0 2.463179 1_555
P1 Pd7 2.463180 1_555
P1 Pd5 2.477666 1_555
P1 Pd2 2.477673 1_555
P1 Y2 3.222749 1_546
P2 Pd14 2.375692 1_655
P2 Pd13 2.375692 1_555
P2 Pd9 2.377140 1_564
P2 Pd11 2.383945 1_555
P2 Pd3 2.463179 1_555
P2 Pd4 2.463187 1_555
P2 Pd1 2.477666 1_555
P2 Pd6 2.477666 1_555
P2 Y2 3.222749 1_655
Pd0 Si2 2.472931 1_555
Pd0 Si0 2.474248 1_555
Pd0 Y0 2.844418 1_555
Pd0 Pd10 3.018427 1_455
Pd1 Si1 2.482404 1_555
Pd1 Y1 2.843701 1_555
Pd1 Pd10 3.020471 1_555
Pd2 Si1 2.482404 1_555
Pd2 Y0 2.843693 1_556
Pd2 Pd9 3.020468 1_555
Pd3 Si2 2.472938 1_555
Pd3 Si1 2.474247 1_555
Pd3 Y0 2.844411 1_565
Pd3 Pd9 3.018425 1_564
Pd4 Si2 2.472931 1_555
Pd4 Si0 2.474248 1_555
Pd4 Y1 2.844410 1_554
Pd4 Pd9 3.018429 1_564
Pd5 Si0 2.482403 1_555
Pd5 Y1 2.843694 1_545
Pd5 Pd9 3.020471 1_555
Pd6 Si0 2.482411 1_555
Pd6 Y0 2.843693 1_655
Pd7 Si2 2.472931 1_555
Pd7 Si1 2.474255 1_555
Pd7 Y1 2.844411 1_455
Pd8 Si2 2.406277 1_546
Pd8 Pd9 2.665908 1_555
Pd8 Y2 2.978780 1_546
Pd9 Y2 2.987142 1_646
Pd9 Y0 3.334305 1_556
Pd9 Y1 3.334305 1_545
Pd10 Pd11 2.665907 1_555
Pd10 Pd18 2.980034 1_555
Pd10 Pd17 2.980034 1_555
Pd10 Y2 2.987142 1_646
Pd10 Pd12 2.991106 1_656
Pd10 Pd15 2.991106 1_645
Pd10 Pd7 3.018421 1_655
Pd10 Pd6 3.020464 1_555
Pd10 Y0 3.334305 1_655
Pd10 Y1 3.334305 1_555
Pd11 Si2 2.406277 1_655
Pd11 Y2 2.978780 1_655
Pd12 Si0 2.402853 1_455
Pd12 Y2 2.989389 1_545
Pd13 Si0 2.402854 1_565
Pd13 Y2 2.989389 1_655
Pd13 Pd9 2.991106 1_564
Pd14 Si1 2.402853 1_554
Pd14 Y2 2.989389 1_555
Pd14 Pd9 2.991106 1_464
Pd15 Si1 2.402854 1_555
Pd15 Y2 2.989389 1_556
Pd16 Si2 2.395945 1_555
Pd16 Si0 2.402674 1_465
Pd16 Y2 2.986863 1_555
Pd17 Si1 2.398449 1_645
Pd17 Pd9 2.980034 1_555
Pd17 Y2 3.004092 1_646
Pd18 Si0 2.398449 1_556
Pd18 Pd9 2.980034 1_555
Pd18 Y2 3.004092 1_646
Pd19 Si2 2.395944 1_555
Pd19 Si1 2.402673 1_554
Pd19 Y2 2.986864 1_555
