# generated using pymatgen
data_SnPF7
_symmetry_space_group_name_H-M   'P 1'
_cell_length_a   7.50786682
_cell_length_b   7.50786690
_cell_length_c   7.50786764
_cell_angle_alpha   72.57785764
_cell_angle_beta   72.57785817
_cell_angle_gamma   72.57785633
_symmetry_Int_Tables_number   1
_chemical_formula_structural   SnPF7
_chemical_formula_sum   'Sn3 P3 F21'
_cell_volume   374.89842053
_cell_formula_units_Z   3
loop_
 _symmetry_equiv_pos_site_id
 _symmetry_equiv_pos_as_xyz
  1  'x, y, z'
loop_
 _atom_site_type_symbol
 _atom_site_label
 _atom_site_symmetry_multiplicity
 _atom_site_fract_x
 _atom_site_fract_y
 _atom_site_fract_z
 _atom_site_occupancy
  Sn  Sn0  1  0.50000000  0.23105426  0.76894574  1
  Sn  Sn1  1  0.76894574  0.50000000  0.23105426  1
  Sn  Sn2  1  0.23105426  0.76894574  0.50000000  1
  P  P0  1  0.70094859  0.70094859  0.70094859  1
  P  P1  1  0.29905141  0.29905141  0.29905141  1
  P  P2  1  0.00000000  0.00000000  0.00000000  1
  F  F0  1  0.31598323  0.50000000  0.68401677  1
  F  F1  1  0.68401677  0.31598323  0.50000000  1
  F  F2  1  0.50000000  0.68401677  0.31598323  1
  F  F3  1  0.79447383  0.64075651  0.49533694  1
  F  F4  1  0.49533694  0.79447383  0.64075651  1
  F  F5  1  0.64075651  0.49533694  0.79447383  1
  F  F6  1  0.14171453  0.14371916  0.88515842  1
  F  F7  1  0.14371916  0.88515842  0.14171453  1
  F  F8  1  0.88515842  0.14171453  0.14371916  1
  F  F9  1  0.85628084  0.85828547  0.11484158  1
  F  F10  1  0.85828547  0.11484158  0.85628084  1
  F  F11  1  0.11484158  0.85628084  0.85828547  1
  F  F12  1  0.24199472  0.39303400  0.09519620  1
  F  F13  1  0.39303400  0.09519620  0.24199472  1
  F  F14  1  0.09519620  0.24199472  0.39303400  1
  F  F15  1  0.60696600  0.75800528  0.90480380  1
  F  F16  1  0.75800528  0.90480380  0.60696600  1
  F  F17  1  0.90480380  0.60696600  0.75800528  1
  F  F18  1  0.50466306  0.35924349  0.20552617  1
  F  F19  1  0.35924349  0.20552617  0.50466306  1
  F  F20  1  0.20552617  0.50466306  0.35924349  1
loop_
_geom_bond_atom_site_label_1
_geom_bond_atom_site_label_2
_geom_bond_distance
_geom_bond_site_symmetry_2
F0 Sn0 2.116257 1_555
F0 Sn2 2.116257 1_555
F1 Sn1 2.116257 1_555
F1 Sn0 2.116257 1_555
F2 Sn1 2.116257 1_555
F2 Sn2 2.116257 1_555
F3 P0 1.630626 1_555
F4 P0 1.630626 1_555
F5 P0 1.630626 1_555
F6 P2 1.618880 1_556
F7 P2 1.618880 1_565
F8 P2 1.618880 1_655
F9 P2 1.618880 1_665
F10 P2 1.618880 1_656
F11 P2 1.618880 1_566
F12 P1 1.608970 1_555
F13 P1 1.608970 1_555
F14 P1 1.608970 1_555
F15 P0 1.608970 1_555
F16 P0 1.608970 1_555
F17 P0 1.608970 1_555
F18 P1 1.630626 1_555
F19 P1 1.630626 1_555
F20 P1 1.630626 1_555
