# generated using pymatgen
data_Cs3Rb(SiP)12
_symmetry_space_group_name_H-M   'P 1'
_cell_length_a   3.56130663
_cell_length_b   9.86406117
_cell_length_c   20.44575952
_cell_angle_alpha   89.26790874
_cell_angle_beta   90.00000000
_cell_angle_gamma   90.00000000
_symmetry_Int_Tables_number   1
_chemical_formula_structural   Cs3Rb(SiP)12
_chemical_formula_sum   'Cs3 Rb1 Si12 P12'
_cell_volume   718.17936138
_cell_formula_units_Z   1
loop_
 _symmetry_equiv_pos_site_id
 _symmetry_equiv_pos_as_xyz
  1  'x, y, z'
loop_
 _atom_site_type_symbol
 _atom_site_label
 _atom_site_symmetry_multiplicity
 _atom_site_fract_x
 _atom_site_fract_y
 _atom_site_fract_z
 _atom_site_occupancy
  Cs  Cs0  1  0.00000000  0.29750663  0.30594764  1
  Cs  Cs1  1  0.00000000  0.71378594  0.68962474  1
  Cs  Cs2  1  0.00000000  0.21172654  0.81027054  1
  Rb  Rb0  1  0.00000000  0.79219131  0.18985742  1
  Si  Si0  1  0.50000000  0.39988626  0.03826528  1
  Si  Si1  1  0.50000000  0.59103371  0.96978596  1
  Si  Si2  1  0.50000000  0.09651357  0.53247867  1
  Si  Si3  1  0.50000000  0.90944104  0.46352203  1
  Si  Si4  1  0.00000000  0.10959697  0.01726048  1
  Si  Si5  1  0.00000000  0.88197732  0.98785623  1
  Si  Si6  1  0.00000000  0.38858486  0.51214378  1
  Si  Si7  1  0.00000000  0.61712483  0.48116039  1
  Si  Si8  1  0.00000000  0.16987370  0.12756879  1
  Si  Si9  1  0.00000000  0.81746607  0.87777315  1
  Si  Si10  1  0.00000000  0.32170762  0.62264250  1
  Si  Si11  1  0.00000000  0.68876011  0.37108539  1
  P  P0  1  0.50000000  0.10108883  0.18391536  1
  P  P1  1  0.50000000  0.88396744  0.82090188  1
  P  P2  1  0.50000000  0.38686385  0.67904598  1
  P  P3  1  0.50000000  0.62607955  0.31385715  1
  P  P4  1  0.50000000  0.28441854  0.46507320  1
  P  P5  1  0.50000000  0.71937331  0.52937870  1
  P  P6  1  0.50000000  0.21630242  0.97023347  1
  P  P7  1  0.50000000  0.77711752  0.03626220  1
  P  P8  1  0.00000000  0.40185886  0.10714684  1
  P  P9  1  0.00000000  0.58676891  0.90084817  1
  P  P10  1  0.00000000  0.09120593  0.60142244  1
  P  P11  1  0.00000000  0.91777635  0.39466963  1
loop_
_geom_bond_atom_site_label_1
_geom_bond_atom_site_label_2
_geom_bond_distance
_geom_bond_site_symmetry_2
Cs0 P0 3.643256 1_455
Cs0 P0 3.643256 1_555
Cs0 P3 3.703345 1_455
Cs0 P3 3.703345 1_555
Cs0 P4 3.709656 1_455
Cs0 P4 3.709656 1_555
Cs0 P11 4.140901 1_545
Cs1 P1 3.648015 1_555
Cs1 P1 3.648015 1_455
Cs1 P2 3.692497 1_555
Cs1 P2 3.692497 1_455
Cs1 P5 3.728757 1_455
Cs1 P5 3.728757 1_555
Cs1 P10 4.115883 1_565
Cs2 P2 3.638018 1_455
Cs2 P2 3.638018 1_555
Cs2 P1 3.694934 1_445
Cs2 P1 3.694934 1_545
Cs2 P6 3.724664 1_555
Cs2 P6 3.724664 1_455
Cs2 P9 4.158194 1_555
Si0 Si1 2.334079 1_554
Si2 Si3 2.336521 1_545
Si4 Si5 2.331757 1_544
Si4 Si8 2.339729 1_555
Si5 Si9 2.346770 1_555
Si6 Si7 2.333842 1_555
Si10 Si6 2.345467 1_555
Si11 Si7 2.350259 1_555
P0 Si8 2.222235 1_555
P0 Si8 2.222235 1_655
P0 Rb0 3.529892 1_645
P0 Rb0 3.529892 1_545
P1 Si9 2.221167 1_555
P1 Si9 2.221167 1_655
P2 Si10 2.220953 1_555
P2 Si10 2.220953 1_655
P3 Si11 2.222738 1_655
P3 Si11 2.222738 1_555
P3 Rb0 3.489550 1_555
P3 Rb0 3.489550 1_655
P4 Si6 2.275513 1_655
P4 Si6 2.275513 1_555
P4 Si2 2.295544 1_555
P5 Si7 2.277125 1_655
P5 Si7 2.277125 1_555
P5 Si3 2.294242 1_555
P6 Si4 2.275349 1_656
P6 Si4 2.275349 1_556
P6 Si0 2.297485 1_556
P7 Si5 2.279020 1_554
P7 Si5 2.279020 1_654
P7 Si1 2.297885 1_554
P7 Rb0 3.614789 1_555
P7 Rb0 3.614789 1_655
P8 Si0 2.270510 1_555
P8 Si0 2.270510 1_455
P8 Si8 2.320844 1_555
P9 Si1 2.271709 1_455
P9 Si1 2.271709 1_555
P9 Si9 2.318092 1_555
P10 Si2 2.271250 1_555
P10 Si2 2.271250 1_455
P10 Si10 2.320146 1_555
P11 Si3 2.270740 1_455
P11 Si3 2.270740 1_555
P11 Si11 2.315938 1_555
