# generated using pymatgen
data_SrBiF7
_symmetry_space_group_name_H-M   'P 1'
_cell_length_a   7.38532807
_cell_length_b   4.92924814
_cell_length_c   6.83063725
_cell_angle_alpha   85.60322354
_cell_angle_beta   90.00000000
_cell_angle_gamma   90.00000000
_symmetry_Int_Tables_number   1
_chemical_formula_structural   SrBiF7
_chemical_formula_sum   'Sr2 Bi2 F14'
_cell_volume   247.93150245
_cell_formula_units_Z   2
loop_
 _symmetry_equiv_pos_site_id
 _symmetry_equiv_pos_as_xyz
  1  'x, y, z'
loop_
 _atom_site_type_symbol
 _atom_site_label
 _atom_site_symmetry_multiplicity
 _atom_site_fract_x
 _atom_site_fract_y
 _atom_site_fract_z
 _atom_site_occupancy
  Sr  Sr0  1  0.25000000  0.03566427  0.68658574  1
  Sr  Sr1  1  0.75000000  0.96433573  0.31341426  1
  Bi  Bi0  1  0.25000000  0.46217247  0.21809807  1
  Bi  Bi1  1  0.75000000  0.53782753  0.78190193  1
  F  F0  1  0.25000000  0.63975475  0.93132197  1
  F  F1  1  0.51828139  0.31179666  0.79465128  1
  F  F2  1  0.75000000  0.36024525  0.06867803  1
  F  F3  1  0.01828139  0.68820334  0.20534872  1
  F  F4  1  0.25000000  0.13994392  0.04589735  1
  F  F5  1  0.07177000  0.18587184  0.36735986  1
  F  F6  1  0.42823000  0.18587184  0.36735986  1
  F  F7  1  0.57177000  0.81412816  0.63264014  1
  F  F8  1  0.98171861  0.31179666  0.79465128  1
  F  F9  1  0.75000000  0.86005608  0.95410265  1
  F  F10  1  0.48171861  0.68820334  0.20534872  1
  F  F11  1  0.75000000  0.40619216  0.49943977  1
  F  F12  1  0.92823000  0.81412816  0.63264014  1
  F  F13  1  0.25000000  0.59380784  0.50056023  1
loop_
_geom_bond_atom_site_label_1
_geom_bond_atom_site_label_2
_geom_bond_distance
_geom_bond_site_symmetry_2
Bi0 F10 2.040263 1_555
Bi0 F3 2.040263 1_555
Bi0 F4 2.047641 1_555
Bi0 F13 2.082197 1_555
Bi0 F0 2.083380 1_554
Bi0 F6 2.100979 1_555
Bi0 F5 2.100979 1_555
Bi1 F8 2.040263 1_555
Bi1 F1 2.040263 1_555
Bi1 F9 2.047641 1_555
Bi1 F11 2.082197 1_555
Bi1 F2 2.083380 1_556
Bi1 F12 2.100979 1_555
Bi1 F7 2.100979 1_555
F0 Sr0 2.470401 1_565
F1 Sr0 2.545058 1_555
F2 Sr1 2.470401 1_545
F3 Sr1 2.545058 1_455
F4 Sr0 2.545854 1_554
F5 Sr0 2.605365 1_555
F5 Sr1 2.652757 1_445
F6 Sr0 2.605365 1_555
F6 Sr1 2.652757 1_545
F7 Sr1 2.605365 1_555
F7 Sr0 2.652757 1_565
F8 Sr0 2.545058 1_655
F9 Sr1 2.545854 1_556
F10 Sr1 2.545058 1_555
F11 Sr1 2.604365 1_545
F11 Sr1 2.940723 1_555
F12 Sr1 2.605365 1_555
F12 Sr0 2.652757 1_665
F13 Sr0 2.604365 1_565
F13 Sr0 2.940723 1_555
