# generated using pymatgen
data_BaVS3
_symmetry_space_group_name_H-M   'P 1'
_cell_length_a   6.80999414
_cell_length_b   9.00347037
_cell_length_c   8.97367351
_cell_angle_alpha   80.16413058
_cell_angle_beta   67.87009544
_cell_angle_gamma   67.60089509
_symmetry_Int_Tables_number   1
_chemical_formula_structural   BaVS3
_chemical_formula_sum   'Ba4 V4 S12'
_cell_volume   470.98230335
_cell_formula_units_Z   4
loop_
 _symmetry_equiv_pos_site_id
 _symmetry_equiv_pos_as_xyz
  1  'x, y, z'
loop_
 _atom_site_type_symbol
 _atom_site_label
 _atom_site_symmetry_multiplicity
 _atom_site_fract_x
 _atom_site_fract_y
 _atom_site_fract_z
 _atom_site_occupancy
  Ba  Ba0  1  0.33163474  0.53743694  0.79893461  1
  Ba  Ba1  1  0.66228147  0.95613196  0.71851434  1
  Ba  Ba2  1  0.33176486  0.03742452  0.29887469  1
  Ba  Ba3  1  0.66217030  0.45636186  0.21873375  1
  V  V0  1  0.95678697  0.81334103  0.27348331  1
  V  V1  1  0.03785240  0.48205091  0.44219682  1
  V  V2  1  0.95671288  0.31309078  0.77368190  1
  V  V3  1  0.03774054  0.98206399  0.94230138  1
  S  S0  1  0.80117614  0.06198136  0.33627768  1
  S  S1  1  0.19367077  0.41954090  0.19316001  1
  S  S2  1  0.80119693  0.56185011  0.83611292  1
  S  S3  1  0.19351910  0.91973141  0.69329135  1
  S  S4  1  0.29410871  0.80899278  0.06794905  1
  S  S5  1  0.82893122  0.81018997  0.06696402  1
  S  S6  1  0.70054611  0.68862459  0.44542133  1
  S  S7  1  0.16565051  0.68725273  0.44663429  1
  S  S8  1  0.29406044  0.30897688  0.56806757  1
  S  S9  1  0.82883288  0.31021605  0.56703271  1
  S  S10  1  0.70042452  0.18846125  0.94571446  1
  S  S11  1  0.16534050  0.18717798  0.94695380  1
loop_
_geom_bond_atom_site_label_1
_geom_bond_atom_site_label_2
_geom_bond_distance
_geom_bond_site_symmetry_2
Ba0 S3 3.274186 1_555
Ba0 S8 3.293165 1_555
Ba0 S9 3.293489 1_555
Ba0 S1 3.390775 1_556
Ba0 S2 3.423469 1_455
Ba0 S2 3.427754 1_555
Ba0 S5 3.597589 1_456
Ba0 S4 3.598087 1_556
Ba0 S10 3.602634 1_555
Ba0 S11 3.626147 1_555
Ba0 S7 3.628388 1_555
Ba0 S6 3.654370 1_555
Ba1 S0 3.270175 1_565
Ba1 S11 3.293514 1_565
Ba1 S10 3.296955 1_565
Ba1 S2 3.394598 1_555
Ba1 S3 3.422904 1_555
Ba1 S3 3.428031 1_655
Ba1 S5 3.595169 1_556
Ba1 S6 3.596046 1_555
Ba1 S7 3.599462 1_655
Ba1 S4 3.614244 1_556
Ba1 S8 3.635527 1_565
Ba1 S9 3.662106 1_565
Ba2 S1 3.272896 1_555
Ba2 S5 3.293439 1_545
Ba2 S4 3.293681 1_545
Ba2 S3 3.391863 1_545
Ba2 S0 3.423493 1_455
Ba2 S0 3.428225 1_555
Ba2 S8 3.598745 1_555
Ba2 S9 3.598916 1_455
Ba2 S6 3.600741 1_545
Ba2 S7 3.624568 1_545
Ba2 S11 3.626674 1_554
Ba2 S10 3.651120 1_554
Ba3 S2 3.272527 1_554
Ba3 S7 3.289788 1_555
Ba3 S6 3.293893 1_555
Ba3 S0 3.395267 1_555
Ba3 S1 3.424243 1_555
Ba3 S1 3.427704 1_655
Ba3 S9 3.594139 1_555
Ba3 S10 3.598256 1_554
Ba3 S11 3.599644 1_654
Ba3 S8 3.614604 1_555
Ba3 S4 3.635396 1_555
Ba3 S5 3.660964 1_555
S0 V0 2.150602 1_545
S1 V1 2.150558 1_555
S2 V2 2.150739 1_555
S3 V3 2.149941 1_555
S4 V0 2.333298 1_455
S4 V3 2.357327 1_554
S5 V0 2.333647 1_555
S5 V3 2.356950 1_654
S6 V1 2.334273 1_655
S6 V0 2.357832 1_555
S7 V1 2.334316 1_555
S7 V0 2.357544 1_455
S8 V2 2.334193 1_455
S8 V1 2.357896 1_555
S9 V2 2.334131 1_555
S9 V1 2.357843 1_655
S10 V3 2.333269 1_645
S10 V2 2.357794 1_555
S11 V3 2.333222 1_545
S11 V2 2.357124 1_455
