# generated using pymatgen
data_ZrScCuS4
_symmetry_space_group_name_H-M   'P 1'
_cell_length_a   7.37325548
_cell_length_b   7.37325560
_cell_length_c   7.37325547
_cell_angle_alpha   119.94253218
_cell_angle_beta   120.04873521
_cell_angle_gamma   90.00758949
_symmetry_Int_Tables_number   1
_chemical_formula_structural   ZrScCuS4
_chemical_formula_sum   'Zr2 Sc2 Cu2 S8'
_cell_volume   283.45951434
_cell_formula_units_Z   2
loop_
 _symmetry_equiv_pos_site_id
 _symmetry_equiv_pos_as_xyz
  1  'x, y, z'
loop_
 _atom_site_type_symbol
 _atom_site_label
 _atom_site_symmetry_multiplicity
 _atom_site_fract_x
 _atom_site_fract_y
 _atom_site_fract_z
 _atom_site_occupancy
  Zr  Zr0  1  0.00000000  0.50000000  0.00000000  1
  Zr  Zr1  1  0.00000000  0.00000000  0.50000000  1
  Sc  Sc0  1  0.50000000  0.50000000  0.00000000  1
  Sc  Sc1  1  0.00000000  0.50000000  0.50000000  1
  Cu  Cu0  1  0.37105642  0.12105642  0.25000000  1
  Cu  Cu1  1  0.62894358  0.87894358  0.75000000  1
  S  S0  1  0.24329142  0.74889699  0.49439443  1
  S  S1  1  0.75450257  0.74889699  0.00560557  1
  S  S2  1  0.75477639  0.74857945  0.49380306  1
  S  S3  1  0.75477639  0.26097333  0.00619694  1
  S  S4  1  0.75670858  0.25110301  0.50560557  1
  S  S5  1  0.24549743  0.25110301  0.99439443  1
  S  S6  1  0.24522361  0.25142055  0.50619694  1
  S  S7  1  0.24522361  0.73902667  0.99380306  1
loop_
_geom_bond_atom_site_label_1
_geom_bond_atom_site_label_2
_geom_bond_distance
_geom_bond_site_symmetry_2
Cu0 S7 2.301289 1_544
Cu0 S6 2.301289 1_555
Cu0 S4 2.320617 1_555
Cu0 S5 2.320617 1_554
Cu1 S3 2.301289 1_566
Cu1 S2 2.301289 1_555
Cu1 S0 2.320617 1_555
Cu1 S1 2.320617 1_556
S0 Zr0 2.578023 1_555
S0 Zr1 2.578023 1_565
S0 Sc1 2.595495 1_555
S1 Zr1 2.578023 1_665
S1 Zr0 2.578023 1_655
S1 Sc0 2.595495 1_555
S2 Zr1 2.557274 1_665
S2 Sc0 2.575333 1_555
S2 Sc1 2.575334 1_655
S3 Zr0 2.557274 1_655
S3 Sc1 2.575333 1_655
S3 Sc0 2.575334 1_555
S4 Zr0 2.578023 1_656
S4 Zr1 2.578023 1_655
S4 Sc1 2.595495 1_655
S5 Zr1 2.578023 1_555
S5 Zr0 2.578023 1_556
S5 Sc0 2.595495 1_556
S6 Zr1 2.557274 1_555
S6 Sc0 2.575333 1_556
S6 Sc1 2.575334 1_555
S7 Zr0 2.557274 1_556
S7 Sc1 2.575333 1_555
S7 Sc0 2.575334 1_556
