# generated using pymatgen
data_Sc4As6RuRh6
_symmetry_space_group_name_H-M   'P 1'
_cell_length_a   7.03854088
_cell_length_b   7.03854157
_cell_length_c   7.03854017
_cell_angle_alpha   109.47122225
_cell_angle_beta   109.47122422
_cell_angle_gamma   109.47121906
_symmetry_Int_Tables_number   1
_chemical_formula_structural   Sc4As6RuRh6
_chemical_formula_sum   'Sc4 As6 Ru1 Rh6'
_cell_volume   268.42687827
_cell_formula_units_Z   1
loop_
 _symmetry_equiv_pos_site_id
 _symmetry_equiv_pos_as_xyz
  1  'x, y, z'
loop_
 _atom_site_type_symbol
 _atom_site_label
 _atom_site_symmetry_multiplicity
 _atom_site_fract_x
 _atom_site_fract_y
 _atom_site_fract_z
 _atom_site_occupancy
  Sc  Sc0  1  0.00000000  0.00000000  0.50000000  1
  Sc  Sc1  1  0.50000000  0.00000000  0.00000000  1
  Sc  Sc2  1  0.00000000  0.50000000  0.00000000  1
  Sc  Sc3  1  0.50000000  0.50000000  0.50000000  1
  As  As0  1  0.68718651  0.68718651  0.00000000  1
  As  As1  1  0.31281349  0.31281349  1.00000000  1
  As  As2  1  1.00000000  0.68718651  0.68718651  1
  As  As3  1  0.00000000  0.31281349  0.31281349  1
  As  As4  1  0.68718651  1.00000000  0.68718651  1
  As  As5  1  0.31281349  0.00000000  0.31281349  1
  Ru  Ru0  1  0.00000000  0.00000000  0.00000000  1
  Rh  Rh0  1  0.25000000  0.50000000  0.75000000  1
  Rh  Rh1  1  0.75000000  0.25000000  0.50000000  1
  Rh  Rh2  1  0.50000000  0.25000000  0.75000000  1
  Rh  Rh3  1  0.50000000  0.75000000  0.25000000  1
  Rh  Rh4  1  0.75000000  0.50000000  0.25000000  1
  Rh  Rh5  1  0.25000000  0.75000000  0.50000000  1
loop_
_geom_bond_atom_site_label_1
_geom_bond_atom_site_label_2
_geom_bond_distance
_geom_bond_site_symmetry_2
As0 Rh0 2.538287 1_554
As0 Rh3 2.538287 1_555
As0 Rh4 2.538287 1_555
As0 Rh2 2.538287 1_554
As0 Ru0 2.542363 1_665
As0 Sc3 2.918469 1_554
As0 Sc0 2.918469 1_665
As0 Sc2 2.918470 1_655
As0 Sc1 2.918470 1_565
As1 Rh4 2.538287 1_556
As1 Rh2 2.538287 1_555
As1 Rh0 2.538287 1_555
As1 Rh3 2.538287 1_556
As1 Ru0 2.542363 1_556
As1 Sc3 2.918469 1_556
As1 Sc0 2.918469 1_555
As1 Sc2 2.918470 1_556
As1 Sc1 2.918470 1_556
As2 Rh4 2.538286 1_555
As2 Rh5 2.538287 1_655
As2 Rh0 2.538287 1_655
As2 Rh1 2.538287 1_555
As2 Ru0 2.542362 1_666
As2 Sc1 2.918469 1_666
As2 Sc2 2.918469 1_656
As2 Sc3 2.918469 1_555
As2 Sc0 2.918470 1_665
As3 Rh0 2.538286 1_555
As3 Rh1 2.538287 1_455
As3 Rh4 2.538287 1_455
As3 Rh5 2.538287 1_555
As3 Ru0 2.542362 1_555
As3 Sc1 2.918469 1_455
As3 Sc2 2.918469 1_555
As3 Sc3 2.918469 1_555
As3 Sc0 2.918470 1_555
As4 Rh3 2.538286 1_555
As4 Rh5 2.538287 1_555
As4 Rh1 2.538287 1_565
As4 Rh2 2.538287 1_565
As4 Ru0 2.542362 1_666
As4 Sc1 2.918469 1_566
As4 Sc0 2.918469 1_665
As4 Sc2 2.918470 1_666
As4 Sc3 2.918470 1_555
As5 Rh2 2.538286 1_555
As5 Rh1 2.538287 1_555
As5 Rh5 2.538287 1_545
As5 Rh3 2.538287 1_545
As5 Ru0 2.542362 1_555
As5 Sc1 2.918469 1_555
As5 Sc0 2.918469 1_555
As5 Sc2 2.918470 1_545
As5 Sc3 2.918470 1_555
Rh0 Sc3 2.873472 1_555
Rh0 Sc2 2.873472 1_556
Rh0 Sc0 2.873472 1_555
Rh0 Sc1 2.873472 1_566
Rh1 Sc2 2.873472 1_656
Rh1 Sc1 2.873472 1_555
Rh1 Sc0 2.873472 1_655
Rh1 Sc3 2.873472 1_555
Rh2 Sc0 2.873472 1_555
Rh2 Sc2 2.873472 1_656
Rh2 Sc1 2.873472 1_556
Rh2 Sc3 2.873472 1_555
Rh3 Sc0 2.873472 1_665
Rh3 Sc2 2.873472 1_555
Rh3 Sc3 2.873472 1_555
Rh3 Sc1 2.873472 1_565
Rh4 Sc3 2.873472 1_555
Rh4 Sc2 2.873472 1_655
Rh4 Sc1 2.873472 1_555
Rh4 Sc0 2.873472 1_665
Rh5 Sc2 2.873472 1_555
Rh5 Sc1 2.873472 1_566
Rh5 Sc0 2.873472 1_565
Rh5 Sc3 2.873472 1_555
