# generated using pymatgen
data_Ti3Be2ZnN
_symmetry_space_group_name_H-M   'P 1'
_cell_length_a   7.77427343
_cell_length_b   7.77427317
_cell_length_c   7.77427286
_cell_angle_alpha   60.00000135
_cell_angle_beta   60.00000243
_cell_angle_gamma   60.00000054
_symmetry_Int_Tables_number   1
_chemical_formula_structural   Ti3Be2ZnN
_chemical_formula_sum   'Ti12 Be8 Zn4 N4'
_cell_volume   332.24955150
_cell_formula_units_Z   4
loop_
 _symmetry_equiv_pos_site_id
 _symmetry_equiv_pos_as_xyz
  1  'x, y, z'
loop_
 _atom_site_type_symbol
 _atom_site_label
 _atom_site_symmetry_multiplicity
 _atom_site_fract_x
 _atom_site_fract_y
 _atom_site_fract_z
 _atom_site_occupancy
  Ti  Ti0  1  0.81244991  0.81244991  0.18755009  1
  Ti  Ti1  1  0.18755009  0.18755009  0.81244991  1
  Ti  Ti2  1  0.81244991  0.18755009  0.81244991  1
  Ti  Ti3  1  0.18755009  0.81244991  0.18755009  1
  Ti  Ti4  1  0.18755009  0.81244991  0.81244991  1
  Ti  Ti5  1  0.81244991  0.18755009  0.18755009  1
  Ti  Ti6  1  0.43755009  0.43755009  0.06244991  1
  Ti  Ti7  1  0.06244991  0.06244991  0.43755009  1
  Ti  Ti8  1  0.43755009  0.06244991  0.43755009  1
  Ti  Ti9  1  0.06244991  0.43755009  0.06244991  1
  Ti  Ti10  1  0.06244991  0.43755009  0.43755009  1
  Ti  Ti11  1  0.43755009  0.06244991  0.06244991  1
  Be  Be0  1  0.73142582  0.42285806  0.42285806  1
  Be  Be1  1  0.42285806  0.73142582  0.42285806  1
  Be  Be2  1  0.42285806  0.42285806  0.73142582  1
  Be  Be3  1  0.42285806  0.42285806  0.42285806  1
  Be  Be4  1  0.51857418  0.82714194  0.82714194  1
  Be  Be5  1  0.82714194  0.51857418  0.82714194  1
  Be  Be6  1  0.82714194  0.82714194  0.51857418  1
  Be  Be7  1  0.82714194  0.82714194  0.82714194  1
  Zn  Zn0  1  0.12500000  0.62500000  0.62500000  1
  Zn  Zn1  1  0.62500000  0.12500000  0.62500000  1
  Zn  Zn2  1  0.62500000  0.62500000  0.12500000  1
  Zn  Zn3  1  0.62500000  0.62500000  0.62500000  1
  N  N0  1  0.62500000  0.12500000  0.12500000  1
  N  N1  1  0.12500000  0.62500000  0.12500000  1
  N  N2  1  0.12500000  0.12500000  0.62500000  1
  N  N3  1  0.12500000  0.12500000  0.12500000  1
loop_
_geom_bond_atom_site_label_1
_geom_bond_atom_site_label_2
_geom_bond_distance
_geom_bond_site_symmetry_2
Ti0 Zn2 2.832813 1_555
Ti0 Zn3 2.832813 1_555
Ti1 Zn0 2.832813 1_555
Ti1 Zn1 2.832813 1_555
Ti2 Zn1 2.832813 1_555
Ti2 Zn3 2.832813 1_555
Ti3 Zn0 2.832813 1_555
Ti3 Zn2 2.832813 1_555
Ti4 Zn0 2.832813 1_555
Ti4 Zn3 2.832813 1_555
Ti5 Zn1 2.832813 1_555
Ti5 Zn2 2.832813 1_555
Ti6 Zn3 2.832813 1_554
Ti6 Zn2 2.832813 1_555
Ti7 Zn0 2.832813 1_545
Ti7 Zn1 2.832813 1_455
Ti8 Zn1 2.832813 1_555
Ti8 Zn3 2.832813 1_545
Ti9 Zn0 2.832813 1_554
Ti9 Zn2 2.832813 1_455
Ti10 Zn0 2.832813 1_555
Ti10 Zn3 2.832813 1_455
Ti11 Zn1 2.832813 1_554
Ti11 Zn2 2.832813 1_545
Be0 Zn3 2.343712 1_555
Be0 Zn2 2.343712 1_555
Be0 Zn1 2.343712 1_555
Be0 Be1 2.398890 1_555
Be0 Be2 2.398890 1_555
Be0 Be3 2.398890 1_555
Be0 Ti7 2.692541 1_655
Be0 Ti10 2.692541 1_655
Be0 Ti9 2.692541 1_655
Be0 Ti2 2.851613 1_555
Be0 Ti5 2.851613 1_555
Be0 Ti0 2.851614 1_555
Be1 Zn3 2.343712 1_555
Be1 Zn2 2.343712 1_555
Be1 Zn0 2.343712 1_555
Be1 Be2 2.398890 1_555
Be1 Be3 2.398890 1_555
Be1 Ti8 2.692541 1_565
Be1 Ti11 2.692541 1_565
Be1 Ti7 2.692541 1_565
Be1 Ti4 2.851613 1_555
Be1 Ti3 2.851613 1_555
Be1 Ti0 2.851614 1_555
Be2 Zn1 2.343712 1_555
Be2 Zn0 2.343712 1_555
Be2 Zn3 2.343712 1_555
Be2 Be3 2.398890 1_555
Be2 Ti6 2.692541 1_556
Be2 Ti11 2.692541 1_556
Be2 Ti9 2.692541 1_556
Be2 Ti4 2.851614 1_555
Be2 Ti2 2.851614 1_555
Be2 Ti1 2.851614 1_555
Be3 Zn1 2.343712 1_555
Be3 Zn0 2.343712 1_555
Be3 Zn2 2.343712 1_555
Be3 Ti6 2.692541 1_555
Be3 Ti8 2.692541 1_555
Be3 Ti10 2.692541 1_555
Be3 Ti3 2.851614 1_555
Be3 Ti5 2.851614 1_555
Be3 Ti1 2.851614 1_555
Be4 Zn3 2.343712 1_555
Be4 Zn2 2.343712 1_556
Be4 Zn1 2.343712 1_565
Be4 Be5 2.398890 1_555
Be4 Be7 2.398890 1_555
Be4 Be6 2.398890 1_555
Be4 Ti1 2.692541 1_565
Be4 Ti4 2.692541 1_555
Be4 Ti3 2.692541 1_556
Be4 Ti8 2.851613 1_565
Be4 Ti11 2.851613 1_566
Be4 Ti6 2.851614 1_556
Be5 Zn3 2.343712 1_555
Be5 Zn2 2.343712 1_556
Be5 Zn0 2.343712 1_655
Be5 Be6 2.398890 1_555
Be5 Be7 2.398890 1_555
Be5 Ti2 2.692541 1_555
Be5 Ti5 2.692541 1_556
Be5 Ti1 2.692541 1_655
Be5 Ti10 2.851613 1_655
Be5 Ti9 2.851613 1_656
Be5 Ti6 2.851614 1_556
Be6 Zn1 2.343712 1_565
Be6 Zn0 2.343712 1_655
Be6 Zn3 2.343712 1_555
Be6 Be7 2.398890 1_555
Be6 Ti0 2.692541 1_555
Be6 Ti5 2.692541 1_565
Be6 Ti3 2.692541 1_655
Be6 Ti10 2.851614 1_655
Be6 Ti8 2.851614 1_565
Be6 Ti7 2.851614 1_665
Be7 Zn1 2.343712 1_565
Be7 Zn0 2.343712 1_655
Be7 Zn2 2.343712 1_556
Be7 Ti0 2.692541 1_556
Be7 Ti2 2.692541 1_565
Be7 Ti4 2.692541 1_655
Be7 Ti9 2.851614 1_656
Be7 Ti11 2.851614 1_566
Be7 Ti7 2.851614 1_665
N0 Ti5 2.061649 1_555
N0 Ti8 2.061649 1_555
N0 Ti2 2.061649 1_554
N0 Ti11 2.061649 1_555
N0 Ti6 2.061649 1_555
N0 Ti0 2.061649 1_545
N1 Ti3 2.061649 1_555
N1 Ti10 2.061649 1_555
N1 Ti4 2.061649 1_554
N1 Ti9 2.061649 1_555
N1 Ti6 2.061649 1_555
N1 Ti0 2.061649 1_455
N2 Ti1 2.061649 1_555
N2 Ti7 2.061649 1_555
N2 Ti10 2.061649 1_555
N2 Ti4 2.061649 1_545
N2 Ti8 2.061649 1_555
N2 Ti2 2.061649 1_455
N3 Ti7 2.061649 1_555
N3 Ti1 2.061649 1_554
N3 Ti9 2.061649 1_555
N3 Ti3 2.061649 1_545
N3 Ti11 2.061649 1_555
N3 Ti5 2.061649 1_455
