# generated using pymatgen
data_Na3Li2CrAs3
_symmetry_space_group_name_H-M   'P 1'
_cell_length_a   9.55526525
_cell_length_b   9.55526550
_cell_length_c   13.51375724
_cell_angle_alpha   90.00000000
_cell_angle_beta   90.00000000
_cell_angle_gamma   143.34727732
_symmetry_Int_Tables_number   1
_chemical_formula_structural   Na3Li2CrAs3
_chemical_formula_sum   'Na12 Li8 Cr4 As12'
_cell_volume   736.56197931
_cell_formula_units_Z   4
loop_
 _symmetry_equiv_pos_site_id
 _symmetry_equiv_pos_as_xyz
  1  'x, y, z'
loop_
 _atom_site_type_symbol
 _atom_site_label
 _atom_site_symmetry_multiplicity
 _atom_site_fract_x
 _atom_site_fract_y
 _atom_site_fract_z
 _atom_site_occupancy
  Na  Na0  1  0.59877994  0.93847157  0.82600348  1
  Na  Na1  1  0.27479361  0.27479361  0.32237685  1
  Na  Na2  1  0.22520639  0.22520639  0.82237685  1
  Na  Na3  1  0.72520639  0.72520639  0.67762315  1
  Na  Na4  1  0.43847157  0.09877994  0.67399652  1
  Na  Na5  1  0.90122006  0.56152843  0.32600348  1
  Na  Na6  1  0.06152843  0.40122006  0.17399652  1
  Na  Na7  1  0.40122006  0.06152843  0.17399652  1
  Na  Na8  1  0.56152843  0.90122006  0.32600348  1
  Na  Na9  1  0.09877994  0.43847157  0.67399652  1
  Na  Na10  1  0.93847157  0.59877994  0.82600348  1
  Na  Na11  1  0.77479361  0.77479361  0.17762315  1
  Li  Li0  1  0.08341651  0.91658349  0.00000000  1
  Li  Li1  1  0.58341651  0.41658349  0.50000000  1
  Li  Li2  1  0.91658349  0.08341651  0.00000000  1
  Li  Li3  1  0.75234951  0.24765049  0.00000000  1
  Li  Li4  1  0.74765049  0.25234951  0.50000000  1
  Li  Li5  1  0.24765049  0.75234951  0.00000000  1
  Li  Li6  1  0.25234951  0.74765049  0.50000000  1
  Li  Li7  1  0.41658349  0.58341651  0.50000000  1
  Cr  Cr0  1  0.08706395  0.91293605  0.50000000  1
  Cr  Cr1  1  0.41293605  0.58706395  0.00000000  1
  Cr  Cr2  1  0.91293605  0.08706395  0.50000000  1
  Cr  Cr3  1  0.58706395  0.41293605  0.00000000  1
  As  As0  1  0.06575401  0.38786637  0.39472056  1
  As  As1  1  0.88786637  0.56575401  0.10527944  1
  As  As2  1  0.43424599  0.11213363  0.89472056  1
  As  As3  1  0.61213363  0.93424599  0.60527944  1
  As  As4  1  0.93424599  0.61213363  0.60527944  1
  As  As5  1  0.11213363  0.43424599  0.89472056  1
  As  As6  1  0.56575401  0.88786637  0.10527944  1
  As  As7  1  0.38786637  0.06575401  0.39472056  1
  As  As8  1  0.21886393  0.21886393  0.59769118  1
  As  As9  1  0.71886393  0.71886393  0.90230882  1
  As  As10  1  0.28113607  0.28113607  0.09769118  1
  As  As11  1  0.78113607  0.78113607  0.40230882  1
loop_
_geom_bond_atom_site_label_1
_geom_bond_atom_site_label_2
_geom_bond_distance
_geom_bond_site_symmetry_2
As0 Cr2 2.383985 1_455
As0 Li4 2.573811 1_455
As0 Li7 2.588960 1_555
As0 Li6 2.680805 1_555
As0 Na6 2.987196 1_555
As0 Na1 3.094446 1_555
As0 Na8 3.122576 1_445
As0 Na8 3.174912 1_555
As0 Na5 3.205243 1_455
As1 Cr3 2.383985 1_555
As1 Li3 2.573811 1_555
As1 Li0 2.588961 1_655
As1 Li5 2.680805 1_655
As1 Na5 2.987196 1_555
As1 Na11 3.094446 1_555
As1 Na7 3.122576 1_555
As1 Na7 3.174912 1_665
As1 Na6 3.205243 1_655
As2 Cr3 2.383985 1_556
As2 Li3 2.573811 1_556
As2 Li0 2.588960 1_546
As2 Li5 2.680805 1_546
As2 Na4 2.987196 1_555
As2 Na2 3.094446 1_555
As2 Na10 3.122576 1_555
As2 Na10 3.174912 1_445
As2 Na0 3.205243 1_545
As3 Cr2 2.383985 1_565
As3 Li4 2.573811 1_565
As3 Li7 2.588961 1_555
As3 Li6 2.680805 1_555
As3 Na0 2.987196 1_555
As3 Na3 3.094446 1_555
As3 Na9 3.122576 1_665
As3 Na9 3.174912 1_555
As3 Na4 3.205243 1_565
As4 Cr0 2.383985 1_655
As4 Li6 2.573811 1_655
As4 Li1 2.588960 1_555
As4 Li4 2.680805 1_555
As4 Na10 2.987196 1_555
As4 Na3 3.094446 1_555
As4 Na4 3.122576 1_665
As4 Na4 3.174912 1_555
As4 Na9 3.205243 1_655
As5 Cr1 2.383985 1_556
As5 Li5 2.573811 1_556
As5 Li2 2.588961 1_456
As5 Li3 2.680805 1_456
As5 Na9 2.987196 1_555
As5 Na2 3.094446 1_555
As5 Na0 3.122576 1_555
As5 Na0 3.174912 1_445
As5 Na10 3.205243 1_455
As6 Cr1 2.383985 1_555
As6 Li5 2.573811 1_555
As6 Li2 2.588960 1_565
As6 Li3 2.680805 1_565
As6 Na8 2.987196 1_555
As6 Na11 3.094446 1_555
As6 Na6 3.122576 1_555
As6 Na6 3.174912 1_665
As6 Na7 3.205243 1_565
As7 Cr0 2.383985 1_545
As7 Li6 2.573811 1_545
As7 Li1 2.588961 1_555
As7 Li4 2.680805 1_555
As7 Na7 2.987196 1_555
As7 Na1 3.094446 1_555
As7 Na5 3.122576 1_445
As7 Na5 3.174912 1_555
As7 Na8 3.205243 1_545
As8 Cr2 2.442765 1_455
As8 Cr0 2.442765 1_545
As8 Li1 2.624250 1_555
As8 Li7 2.624250 1_555
As8 Na2 3.036587 1_555
As8 Na3 3.156895 1_445
As8 Na3 3.228622 1_555
As8 Na4 3.262917 1_555
As8 Na9 3.262917 1_555
As9 Cr1 2.442765 1_556
As9 Cr3 2.442765 1_556
As9 Li0 2.624250 1_656
As9 Li2 2.624250 1_566
As9 Na3 3.036587 1_555
As9 Na2 3.156895 1_555
As9 Na2 3.228622 1_665
As9 Na10 3.262917 1_555
As9 Na0 3.262917 1_555
As10 Cr3 2.442765 1_555
As10 Cr1 2.442765 1_555
As10 Li2 2.624250 1_455
As10 Li0 2.624250 1_545
As10 Na1 3.036587 1_555
As10 Na11 3.156895 1_555
As10 Na11 3.228622 1_445
As10 Na6 3.262917 1_555
As10 Na7 3.262917 1_555
As11 Cr0 2.442765 1_655
As11 Cr2 2.442765 1_565
As11 Li7 2.624250 1_555
As11 Li1 2.624250 1_555
As11 Na11 3.036587 1_555
As11 Na1 3.156895 1_665
As11 Na1 3.228622 1_555
As11 Na8 3.262917 1_555
As11 Na5 3.262917 1_555
