# generated using pymatgen
data_Rb3P2AuSe8
_symmetry_space_group_name_H-M   'P 1'
_cell_length_a   7.36759270
_cell_length_b   7.36759200
_cell_length_c   19.30344292
_cell_angle_alpha   86.74530230
_cell_angle_beta   86.74530275
_cell_angle_gamma   120.65763715
_symmetry_Int_Tables_number   1
_chemical_formula_structural   Rb3P2AuSe8
_chemical_formula_sum   'Rb6 P4 Au2 Se16'
_cell_volume   895.41624416
_cell_formula_units_Z   2
loop_
 _symmetry_equiv_pos_site_id
 _symmetry_equiv_pos_as_xyz
  1  'x, y, z'
loop_
 _atom_site_type_symbol
 _atom_site_label
 _atom_site_symmetry_multiplicity
 _atom_site_fract_x
 _atom_site_fract_y
 _atom_site_fract_z
 _atom_site_occupancy
  Rb  Rb0  1  0.50082314  0.35757598  0.10637647  1
  Rb  Rb1  1  0.35757598  0.50082314  0.60637647  1
  Rb  Rb2  1  0.89279942  0.69253956  0.75331797  1
  Rb  Rb3  1  0.69253956  0.89279942  0.25331797  1
  Rb  Rb4  1  0.58846398  0.03502787  0.89665562  1
  Rb  Rb5  1  0.03502787  0.58846398  0.39665562  1
  P  P0  1  0.30713063  0.43078571  0.88065653  1
  P  P1  1  0.43078571  0.30713063  0.38065653  1
  P  P2  1  0.21480363  0.67574701  0.12097885  1
  P  P3  1  0.67574701  0.21480363  0.62097885  1
  Au  Au0  1  0.06283441  0.95415725  0.99959210  1
  Au  Au1  1  0.95415725  0.06283441  0.49959210  1
  Se  Se0  1  0.49237805  0.16525217  0.71883826  1
  Se  Se1  1  0.16525217  0.49237805  0.21883826  1
  Se  Se2  1  0.10127721  0.07833278  0.87775810  1
  Se  Se3  1  0.07833278  0.10127721  0.37775810  1
  Se  Se4  1  0.33418614  0.61127402  0.78457809  1
  Se  Se5  1  0.61127402  0.33418614  0.28457809  1
  Se  Se6  1  0.60103219  0.52279818  0.92386146  1
  Se  Se7  1  0.52279818  0.60103219  0.42386146  1
  Se  Se8  1  0.09868834  0.53162991  0.94100236  1
  Se  Se9  1  0.53162991  0.09868834  0.44100236  1
  Se  Se10  1  0.04633142  0.38758241  0.05748953  1
  Se  Se11  1  0.38758241  0.04633142  0.55748953  1
  Se  Se12  1  0.53919401  0.89511443  0.08124516  1
  Se  Se13  1  0.89511443  0.53919401  0.58124516  1
  Se  Se14  1  0.01373114  0.82529501  0.12134951  1
  Se  Se15  1  0.82529501  0.01373114  0.62134951  1
loop_
_geom_bond_atom_site_label_1
_geom_bond_atom_site_label_2
_geom_bond_distance
_geom_bond_site_symmetry_2
Rb0 Se6 3.569415 1_554
Rb0 Se5 3.594217 1_555
Rb0 Se12 3.616475 1_545
Rb0 Se14 3.632550 1_655
Rb0 Se10 3.638955 1_555
Rb0 Se14 3.707098 1_545
Rb0 Se1 3.735128 1_555
Rb0 Se12 3.824164 1_555
Rb0 Se10 3.966354 1_655
Rb1 Se7 3.569415 1_555
Rb1 Se4 3.594217 1_555
Rb1 Se13 3.616475 1_455
Rb1 Se15 3.632550 1_565
Rb1 Se11 3.638955 1_555
Rb1 Se15 3.707098 1_455
Rb1 Se0 3.735128 1_555
Rb1 Se13 3.824165 1_555
Rb1 Se11 3.966354 1_565
Rb2 Se13 3.570582 1_555
Rb2 Se2 3.598665 1_665
Rb2 Se15 3.605040 1_565
Rb2 Se6 3.606940 1_555
Rb2 Se0 3.614823 1_555
Rb2 Se4 3.669504 1_655
Rb2 Se4 3.850331 1_555
Rb2 Se0 3.974877 1_665
Rb3 Se12 3.570582 1_555
Rb3 Se3 3.598665 1_665
Rb3 Se14 3.605040 1_655
Rb3 Se7 3.606940 1_555
Rb3 Se1 3.614823 1_555
Rb3 Se5 3.669503 1_565
Rb3 Se5 3.850331 1_555
Rb3 Se1 3.974877 1_665
Rb4 Se12 3.597960 1_546
Rb4 Se6 3.616554 1_555
Rb4 Se2 3.620857 1_655
Rb4 Se8 3.626243 1_545
Rb4 Se4 3.633170 1_545
Rb4 Se0 3.714604 1_555
Rb4 Se2 3.797627 1_555
Rb4 Se6 3.829301 1_545
Rb4 Se8 3.865896 1_655
Rb5 Se13 3.597960 1_455
Rb5 Se7 3.616554 1_555
Rb5 Se3 3.620857 1_565
Rb5 Se9 3.626243 1_455
Rb5 Se5 3.633170 1_455
Rb5 Se1 3.714604 1_555
Rb5 Se3 3.797627 1_555
Rb5 Se7 3.829301 1_455
Rb5 Se9 3.865896 1_565
P0 Se6 2.148514 1_555
P0 Se4 2.157632 1_555
P0 Se2 2.248583 1_555
P0 Se8 2.307846 1_555
P1 Se7 2.148514 1_555
P1 Se5 2.157632 1_555
P1 Se3 2.248584 1_555
P1 Se9 2.307846 1_555
P2 Se12 2.150409 1_555
P2 Se1 2.157726 1_555
P2 Se14 2.252313 1_555
P2 Se10 2.308866 1_555
P3 Se13 2.150409 1_555
P3 Se0 2.157726 1_555
P3 Se15 2.252313 1_555
P3 Se11 2.308866 1_555
Au0 Se14 2.419945 1_556
Au0 Se2 2.421580 1_565
Au0 Rb0 3.894345 1_566
Au0 Rb4 3.992393 1_565
Au1 Se15 2.419945 1_555
Au1 Se3 2.421580 1_655
Au1 Rb1 3.894345 1_655
Au1 Rb5 3.992392 1_655
Se10 Se8 2.354650 1_554
Se11 Se9 2.354650 1_555
