# generated using pymatgen
data_Rb2Mn3FeAs4
_symmetry_space_group_name_H-M   'P 1'
_cell_length_a   7.62014871
_cell_length_b   7.62014893
_cell_length_c   5.95539748
_cell_angle_alpha   90.00000000
_cell_angle_beta   90.00000000
_cell_angle_gamma   134.01466743
_symmetry_Int_Tables_number   1
_chemical_formula_structural   Rb2Mn3FeAs4
_chemical_formula_sum   'Rb2 Mn3 Fe1 As4'
_cell_volume   248.69345674
_cell_formula_units_Z   1
loop_
 _symmetry_equiv_pos_site_id
 _symmetry_equiv_pos_as_xyz
  1  'x, y, z'
loop_
 _atom_site_type_symbol
 _atom_site_label
 _atom_site_symmetry_multiplicity
 _atom_site_fract_x
 _atom_site_fract_y
 _atom_site_fract_z
 _atom_site_occupancy
  Rb  Rb0  1  0.50000000  0.00000000  0.25396494  1
  Rb  Rb1  1  0.00000000  0.50000000  0.74603506  1
  Mn  Mn0  1  0.50000000  0.50000000  0.50000000  1
  Mn  Mn1  1  0.50000000  0.50000000  0.00000000  1
  Mn  Mn2  1  0.00000000  0.00000000  0.50000000  1
  Fe  Fe0  1  0.00000000  0.00000000  0.00000000  1
  As  As0  1  0.66307141  0.85559169  0.75948933  1
  As  As1  1  0.14440831  0.33692859  0.24051067  1
  As  As2  1  0.85559169  0.66307141  0.24051067  1
  As  As3  1  0.33692859  0.14440831  0.75948933  1
loop_
_geom_bond_atom_site_label_1
_geom_bond_atom_site_label_2
_geom_bond_distance
_geom_bond_site_symmetry_2
As0 Fe0 2.434762 1_666
As0 Mn1 2.501753 1_556
As0 Mn2 2.502923 1_665
As0 Mn0 2.568136 1_555
As0 Rb1 3.631908 1_665
As0 Rb0 3.650635 1_566
As0 Rb0 3.703917 1_565
As0 Rb1 3.721848 1_555
As1 Fe0 2.434762 1_555
As1 Mn1 2.501753 1_555
As1 Mn2 2.502923 1_555
As1 Mn0 2.568136 1_555
As1 Rb0 3.631908 1_455
As1 Rb1 3.650635 1_554
As1 Rb1 3.703917 1_555
As1 Rb0 3.721848 1_565
As2 Fe0 2.434762 1_665
As2 Mn1 2.501753 1_555
As2 Mn2 2.502923 1_665
As2 Mn0 2.568136 1_555
As2 Rb0 3.631908 1_665
As2 Rb1 3.650635 1_654
As2 Rb1 3.703917 1_655
As2 Rb0 3.721848 1_555
As3 Fe0 2.434762 1_556
As3 Mn1 2.501753 1_556
As3 Mn2 2.502923 1_555
As3 Mn0 2.568136 1_555
As3 Rb1 3.631908 1_545
As3 Rb0 3.650635 1_556
As3 Rb0 3.703917 1_555
As3 Rb1 3.721848 1_655
