# generated using pymatgen
data_Cs4Si12As5P7
_symmetry_space_group_name_H-M   'P 1'
_cell_length_a   3.63198019
_cell_length_b   9.87923801
_cell_length_c   20.93192107
_cell_angle_alpha   90.29139120
_cell_angle_beta   90.00000000
_cell_angle_gamma   90.00000000
_symmetry_Int_Tables_number   1
_chemical_formula_structural   Cs4Si12As5P7
_chemical_formula_sum   'Cs4 Si12 As5 P7'
_cell_volume   751.05266574
_cell_formula_units_Z   1
loop_
 _symmetry_equiv_pos_site_id
 _symmetry_equiv_pos_as_xyz
  1  'x, y, z'
loop_
 _atom_site_type_symbol
 _atom_site_label
 _atom_site_symmetry_multiplicity
 _atom_site_fract_x
 _atom_site_fract_y
 _atom_site_fract_z
 _atom_site_occupancy
  Cs  Cs0  1  0.00000000  0.27607020  0.31499153  1
  Cs  Cs1  1  0.00000000  0.72265519  0.68544072  1
  Cs  Cs2  1  0.00000000  0.22330864  0.81419284  1
  Cs  Cs3  1  0.00000000  0.77767966  0.18618151  1
  Si  Si0  1  0.50000000  0.40803313  0.03207080  1
  Si  Si1  1  0.50000000  0.59481355  0.96419338  1
  Si  Si2  1  0.50000000  0.09429053  0.53386753  1
  Si  Si3  1  0.50000000  0.90505585  0.46621750  1
  Si  Si4  1  0.00000000  0.11400665  0.01545937  1
  Si  Si5  1  0.00000000  0.88581256  0.98442767  1
  Si  Si6  1  0.00000000  0.38584161  0.51533582  1
  Si  Si7  1  0.00000000  0.61358990  0.48480839  1
  Si  Si8  1  0.00000000  0.17641836  0.12376876  1
  Si  Si9  1  0.00000000  0.82012575  0.87655320  1
  Si  Si10  1  0.00000000  0.31929671  0.62278858  1
  Si  Si11  1  0.00000000  0.67989566  0.37728502  1
  As  As0  1  0.50000000  0.10487108  0.18314702  1
  As  As1  1  0.50000000  0.89239347  0.81728813  1
  As  As2  1  0.50000000  0.39093293  0.68256218  1
  As  As3  1  0.50000000  0.60795764  0.31754930  1
  As  As4  1  0.00000000  0.41873865  0.10471642  1
  P  P0  1  0.50000000  0.28181625  0.46961580  1
  P  P1  1  0.50000000  0.71766596  0.53052430  1
  P  P2  1  0.50000000  0.21692225  0.96963805  1
  P  P3  1  0.50000000  0.78186135  0.02973921  1
  P  P4  1  0.00000000  0.59060624  0.89756978  1
  P  P5  1  0.00000000  0.08989045  0.60045238  1
  P  P6  1  0.00000000  0.90944877  0.39961581  1
loop_
_geom_bond_atom_site_label_1
_geom_bond_atom_site_label_2
_geom_bond_distance
_geom_bond_site_symmetry_2
Cs0 P0 3.711421 1_555
Cs0 P0 3.711421 1_455
Cs0 P6 4.039974 1_545
Cs1 P1 3.716681 1_555
Cs1 P1 3.716681 1_455
Cs1 P5 4.048802 1_565
Cs2 P2 3.727048 1_455
Cs2 P2 3.727048 1_555
Cs2 P4 4.018499 1_555
Cs3 P3 3.744884 1_555
Cs3 P3 3.744884 1_455
Si0 Si1 2.334586 1_554
Si2 Si3 2.339501 1_545
Si4 Si5 2.342919 1_544
Si4 Si8 2.346445 1_555
Si5 Si9 2.346245 1_555
Si6 Si7 2.342082 1_555
Si10 Si6 2.346508 1_555
Si11 Si7 2.347255 1_555
As0 Si8 2.313260 1_555
As0 Si8 2.313260 1_655
As0 Cs0 3.705019 1_555
As0 Cs0 3.705019 1_655
As0 Cs3 3.708418 1_645
As0 Cs3 3.708418 1_545
As1 Si9 2.314189 1_555
As1 Si9 2.314189 1_655
As1 Cs1 3.698553 1_555
As1 Cs1 3.698553 1_655
As1 Cs2 3.740558 1_565
As1 Cs2 3.740558 1_665
As2 Si10 2.314111 1_555
As2 Si10 2.314111 1_655
As2 Cs2 3.698398 1_655
As2 Cs2 3.698398 1_555
As2 Cs1 3.746897 1_555
As2 Cs1 3.746897 1_655
As3 Si11 2.314589 1_555
As3 Si11 2.314589 1_655
As3 Cs3 3.703702 1_555
As3 Cs3 3.703702 1_655
As3 Cs0 3.748253 1_555
As3 Cs0 3.748253 1_655
As4 Si0 2.370576 1_555
As4 Si0 2.370576 1_455
As4 Si8 2.428930 1_555
As4 Cs3 3.926938 1_555
P0 Si6 2.293432 1_555
P0 Si6 2.293432 1_655
P0 Si2 2.294842 1_555
P1 Si7 2.293620 1_655
P1 Si7 2.293620 1_555
P1 Si3 2.294436 1_555
P2 Si0 2.290717 1_556
P2 Si4 2.293774 1_656
P2 Si4 2.293774 1_556
P3 Si5 2.293893 1_654
P3 Si5 2.293893 1_554
P3 Si1 2.295930 1_554
P4 Si1 2.289925 1_455
P4 Si1 2.289925 1_555
P4 Si9 2.311954 1_555
P5 Si2 2.289730 1_455
P5 Si2 2.289730 1_555
P5 Si10 2.311752 1_555
P6 Si3 2.289943 1_555
P6 Si3 2.289943 1_455
P6 Si11 2.313151 1_555
