# generated using pymatgen
data_In4Pd3PtO14
_symmetry_space_group_name_H-M   'P 1'
_cell_length_a   7.05893559
_cell_length_b   7.04027983
_cell_length_c   7.05893600
_cell_angle_alpha   59.91230713
_cell_angle_beta   60.00000257
_cell_angle_gamma   59.91231147
_symmetry_Int_Tables_number   1
_chemical_formula_structural   In4Pd3PtO14
_chemical_formula_sum   'In4 Pd3 Pt1 O14'
_cell_volume   247.72879436
_cell_formula_units_Z   1
loop_
 _symmetry_equiv_pos_site_id
 _symmetry_equiv_pos_as_xyz
  1  'x, y, z'
loop_
 _atom_site_type_symbol
 _atom_site_label
 _atom_site_symmetry_multiplicity
 _atom_site_fract_x
 _atom_site_fract_y
 _atom_site_fract_z
 _atom_site_occupancy
  In  In0  1  0.12500000  0.12500000  0.12500000  1
  In  In1  1  0.62500000  0.12500000  0.12500000  1
  In  In2  1  0.12500000  0.62500000  0.12500000  1
  In  In3  1  0.12500000  0.12500000  0.62500000  1
  Pd  Pd0  1  0.62500000  0.62500000  0.12500000  1
  Pd  Pd1  1  0.12500000  0.62500000  0.62500000  1
  Pd  Pd2  1  0.62500000  0.62500000  0.62500000  1
  Pt  Pt0  1  0.62500000  0.12500000  0.62500000  1
  O  O0  1  0.24990464  0.25028609  0.24990464  1
  O  O1  1  0.71768300  0.28204524  0.28258875  1
  O  O2  1  0.71768300  0.28204524  0.71768300  1
  O  O3  1  0.28419834  0.71546897  0.28419834  1
  O  O4  1  0.71613436  0.71546897  0.28419834  1
  O  O5  1  0.28258875  0.28204524  0.71768300  1
  O  O6  1  0.96580166  0.53453103  0.53386564  1
  O  O7  1  0.28419834  0.71546897  0.71613436  1
  O  O8  1  0.96741125  0.96795476  0.53231700  1
  O  O9  1  0.53231700  0.96795476  0.53231700  1
  O  O10  1  0.53386564  0.53453103  0.96580166  1
  O  O11  1  0.96580166  0.53453103  0.96580166  1
  O  O12  1  0.53231700  0.96795476  0.96741125  1
  O  O13  1  0.00009536  0.99971391  0.00009536  1
loop_
_geom_bond_atom_site_label_1
_geom_bond_atom_site_label_2
_geom_bond_distance
_geom_bond_site_symmetry_2
In0 O0 2.160944 1_555
In0 O13 2.160944 1_545
In0 O8 2.360970 1_445
In0 O5 2.360970 1_554
In0 O12 2.360970 1_544
In0 O1 2.360970 1_455
In0 O11 2.367317 1_454
In0 O3 2.367317 1_545
In1 O0 2.160944 1_555
In1 O13 2.160944 1_645
In1 O1 2.360970 1_555
In1 O12 2.360970 1_544
In1 O9 2.360970 1_545
In1 O2 2.360970 1_554
In1 O10 2.367317 1_554
In1 O4 2.367317 1_545
In2 O13 2.151133 1_555
In2 O0 2.151133 1_555
In2 O3 2.372672 1_555
In2 O11 2.372672 1_454
In2 O10 2.372672 1_554
In2 O4 2.372672 1_455
In2 O6 2.372672 1_455
In2 O7 2.372672 1_554
In3 O13 2.160944 1_546
In3 O0 2.160944 1_555
In3 O5 2.360970 1_555
In3 O8 2.360970 1_445
In3 O9 2.360970 1_545
In3 O2 2.360970 1_455
In3 O6 2.367317 1_455
In3 O7 2.367317 1_545
O1 Pd0 1.986502 1_555
O1 Pt0 1.989246 1_555
O2 Pd2 1.986502 1_555
O2 Pt0 1.989246 1_555
O3 Pd0 1.983383 1_555
O3 Pd1 1.983383 1_555
O4 Pd0 1.983382 1_555
O4 Pd2 1.983383 1_555
O5 Pd1 1.986503 1_555
O5 Pt0 1.989246 1_555
O6 Pd1 1.983382 1_655
O6 Pd2 1.983383 1_555
O7 Pd1 1.983382 1_555
O7 Pd2 1.983383 1_555
O8 Pd1 1.986503 1_655
O8 Pt0 1.989246 1_565
O9 Pd2 1.986502 1_555
O9 Pt0 1.989246 1_565
O10 Pd0 1.983382 1_556
O10 Pd2 1.983383 1_555
O11 Pd0 1.983383 1_556
O11 Pd1 1.983383 1_655
O12 Pd0 1.986502 1_556
O12 Pt0 1.989246 1_565
