# generated using pymatgen
data_NaSb12Ir3Ru
_symmetry_space_group_name_H-M   'P 1'
_cell_length_a   8.10249374
_cell_length_b   8.10249293
_cell_length_c   8.10249346
_cell_angle_alpha   109.52587868
_cell_angle_beta   109.52587384
_cell_angle_gamma   109.52587424
_symmetry_Int_Tables_number   1
_chemical_formula_structural   NaSb12Ir3Ru
_chemical_formula_sum   'Na1 Sb12 Ir3 Ru1'
_cell_volume   408.65068042
_cell_formula_units_Z   1
loop_
 _symmetry_equiv_pos_site_id
 _symmetry_equiv_pos_as_xyz
  1  'x, y, z'
loop_
 _atom_site_type_symbol
 _atom_site_label
 _atom_site_symmetry_multiplicity
 _atom_site_fract_x
 _atom_site_fract_y
 _atom_site_fract_z
 _atom_site_occupancy
  Na  Na0  1  0.00000000  0.00000000  0.00000000  1
  Sb  Sb0  1  0.65764095  0.81224448  0.15396203  1
  Sb  Sb1  1  0.84603797  0.34235905  0.18775552  1
  Sb  Sb2  1  0.50520632  0.84260699  0.65903205  1
  Sb  Sb3  1  0.84260699  0.65903205  0.50520632  1
  Sb  Sb4  1  0.49479368  0.15739301  0.34096795  1
  Sb  Sb5  1  0.15396203  0.65764095  0.81224448  1
  Sb  Sb6  1  0.81224448  0.15396203  0.65764095  1
  Sb  Sb7  1  0.18775552  0.84603797  0.34235905  1
  Sb  Sb8  1  0.15739301  0.34096795  0.49479368  1
  Sb  Sb9  1  0.65903205  0.50520632  0.84260699  1
  Sb  Sb10  1  0.34096795  0.49479368  0.15739301  1
  Sb  Sb11  1  0.34235905  0.18775552  0.84603797  1
  Ir  Ir0  1  0.00000000  0.00000000  0.50000000  1
  Ir  Ir1  1  0.00000000  0.50000000  0.00000000  1
  Ir  Ir2  1  0.50000000  0.00000000  0.00000000  1
  Ru  Ru0  1  0.50000000  0.50000000  0.50000000  1
loop_
_geom_bond_atom_site_label_1
_geom_bond_atom_site_label_2
_geom_bond_distance
_geom_bond_site_symmetry_2
Na0 Sb8 3.486376 1_555
Na0 Sb3 3.486376 1_444
Na0 Sb10 3.486376 1_555
Na0 Sb9 3.486376 1_444
Na0 Sb4 3.486376 1_555
Na0 Sb2 3.486376 1_444
Na0 Sb5 3.510875 1_544
Na0 Sb1 3.510875 1_455
Na0 Sb7 3.510875 1_545
Na0 Sb6 3.510875 1_454
Na0 Sb11 3.510875 1_554
Na0 Sb0 3.510875 1_445
Sb0 Sb9 2.897562 1_554
Sb0 Sb10 2.980610 1_555
Sb1 Sb8 2.897562 1_655
Sb1 Sb3 2.980610 1_555
Sb2 Sb6 2.897562 1_565
Sb2 Sb7 2.980610 1_555
Sb3 Sb5 2.897562 1_655
Sb4 Sb7 2.897562 1_545
Sb4 Sb6 2.980610 1_555
Sb5 Sb8 2.980610 1_555
Sb10 Sb11 2.897562 1_554
Sb11 Sb9 2.980610 1_555
Ir0 Sb11 2.645588 1_555
Ir0 Sb0 2.645588 1_445
Ir0 Sb7 2.646573 1_545
Ir0 Sb6 2.646573 1_455
Ir0 Sb8 2.649396 1_555
Ir0 Sb3 2.649396 1_445
Ir1 Sb7 2.645588 1_555
Ir1 Sb6 2.645588 1_454
Ir1 Sb1 2.646573 1_455
Ir1 Sb5 2.646573 1_554
Ir1 Sb10 2.649397 1_555
Ir1 Sb9 2.649397 1_454
Ir2 Sb5 2.645588 1_544
Ir2 Sb1 2.645588 1_555
Ir2 Sb0 2.646573 1_545
Ir2 Sb11 2.646573 1_554
Ir2 Sb4 2.649396 1_555
Ir2 Sb2 2.649396 1_544
Ru0 Sb2 2.619630 1_555
Ru0 Sb4 2.619630 1_555
Ru0 Sb9 2.619630 1_555
Ru0 Sb10 2.619630 1_555
Ru0 Sb3 2.619630 1_555
Ru0 Sb8 2.619630 1_555
