# generated using pymatgen
data_Ba(PrSe2)2
_symmetry_space_group_name_H-M   'P 1'
_cell_length_a   8.01594619
_cell_length_b   8.01589880
_cell_length_c   8.01597170
_cell_angle_alpha   109.38486750
_cell_angle_beta   109.38419247
_cell_angle_gamma   109.64471320
_symmetry_Int_Tables_number   1
_chemical_formula_structural   Ba(PrSe2)2
_chemical_formula_sum   'Ba2 Pr4 Se8'
_cell_volume   396.49568603
_cell_formula_units_Z   2
loop_
 _symmetry_equiv_pos_site_id
 _symmetry_equiv_pos_as_xyz
  1  'x, y, z'
loop_
 _atom_site_type_symbol
 _atom_site_label
 _atom_site_symmetry_multiplicity
 _atom_site_fract_x
 _atom_site_fract_y
 _atom_site_fract_z
 _atom_site_occupancy
  Ba  Ba0  1  0.24999311  0.74999288  0.49999730  1
  Ba  Ba1  1  -0.00000309  -0.00000221  0.00000248  1
  Pr  Pr0  1  0.74849747  0.37495879  0.87351875  1
  Pr  Pr1  1  0.62503477  0.49855652  0.37354238  1
  Pr  Pr2  1  0.50143954  0.87498235  0.12648569  1
  Pr  Pr3  1  0.12501728  0.25150077  0.62646112  1
  Se  Se0  1  0.39036136  0.14427220  0.90801551  1
  Se  Se1  1  0.73233133  0.98618602  0.59208845  1
  Se  Se2  1  0.51770466  0.60964392  0.75391932  1
  Se  Se3  1  0.23624273  0.48232783  0.09196566  1
  Se  Se4  1  0.39408996  0.14024601  0.40791427  1
  Se  Se5  1  0.85976335  0.26766282  0.25383795  1
  Se  Se6  1  0.01381704  0.60591936  0.74616118  1
  Se  Se7  1  0.85571047  0.76375273  0.24608995  1
loop_
_geom_bond_atom_site_label_1
_geom_bond_atom_site_label_2
_geom_bond_distance
_geom_bond_site_symmetry_2
Ba0 Se0 3.202535 1_565
Ba0 Se3 3.202617 1_555
Ba0 Se7 3.202671 1_455
Ba0 Se2 3.202769 1_555
Ba0 Se5 3.366514 1_455
Ba0 Se6 3.366600 1_555
Ba0 Se4 3.366617 1_565
Ba0 Se1 3.366634 1_555
Ba1 Se5 3.201432 1_455
Ba1 Se6 3.201455 1_544
Ba1 Se4 3.201594 1_555
Ba1 Se1 3.201643 1_444
Ba1 Se2 3.366743 1_444
Ba1 Se3 3.366953 1_555
Ba1 Se7 3.367006 1_445
Ba1 Se0 3.367073 1_554
Pr0 Se0 3.005729 1_555
Pr0 Se6 3.006902 1_655
Pr0 Se1 3.112119 1_545
Pr0 Se7 3.112466 1_556
Pr0 Se2 3.200094 1_555
Pr0 Se4 3.201076 1_555
Pr0 Se5 3.358686 1_556
Pr0 Se3 3.359400 1_656
Pr1 Se7 3.005767 1_555
Pr1 Se4 3.006868 1_555
Pr1 Se6 3.112197 1_655
Pr1 Se3 3.112448 1_555
Pr1 Se0 3.200368 1_554
Pr1 Se5 3.201193 1_555
Pr1 Se1 3.358739 1_555
Pr1 Se2 3.359196 1_555
Pr2 Se3 3.005796 1_555
Pr2 Se5 3.006945 1_565
Pr2 Se4 3.112159 1_565
Pr2 Se2 3.112585 1_554
Pr2 Se7 3.200203 1_555
Pr2 Se1 3.201050 1_555
Pr2 Se6 3.358733 1_554
Pr2 Se0 3.359449 1_564
Pr3 Se2 3.005998 1_555
Pr3 Se1 3.006890 1_445
Pr3 Se5 3.112209 1_455
Pr3 Se0 3.112402 1_555
Pr3 Se3 3.200237 1_556
Pr3 Se6 3.201139 1_555
Pr3 Se4 3.358700 1_555
Pr3 Se7 3.359368 1_445
