# generated using pymatgen
data_Ca10TiReN10
_symmetry_space_group_name_H-M   'P 1'
_cell_length_a   6.88727861
_cell_length_b   6.88727793
_cell_length_c   8.88456370
_cell_angle_alpha   80.52312946
_cell_angle_beta   80.52312743
_cell_angle_gamma   59.82689458
_symmetry_Int_Tables_number   1
_chemical_formula_structural   Ca10TiReN10
_chemical_formula_sum   'Ca10 Ti1 Re1 N10'
_cell_volume   357.70220076
_cell_formula_units_Z   1
loop_
 _symmetry_equiv_pos_site_id
 _symmetry_equiv_pos_as_xyz
  1  'x, y, z'
loop_
 _atom_site_type_symbol
 _atom_site_label
 _atom_site_symmetry_multiplicity
 _atom_site_fract_x
 _atom_site_fract_y
 _atom_site_fract_z
 _atom_site_occupancy
  Ca  Ca0  1  0.87825488  0.35157164  0.82976553  1
  Ca  Ca1  1  0.87433697  0.87433697  0.82137240  1
  Ca  Ca2  1  0.73872548  0.73872548  0.53689294  1
  Ca  Ca3  1  0.74733740  0.24818100  0.51356193  1
  Ca  Ca4  1  0.63002381  0.13868525  0.14476993  1
  Ca  Ca5  1  0.35157164  0.87825488  0.82976553  1
  Ca  Ca6  1  0.24818100  0.74733740  0.51356193  1
  Ca  Ca7  1  0.24255194  0.24255194  0.50271996  1
  Ca  Ca8  1  0.14223158  0.14223158  0.15595281  1
  Ca  Ca9  1  0.13868525  0.63002381  0.14476993  1
  Ti  Ti0  1  0.36940050  0.36940050  0.77474776  1
  Re  Re0  1  0.63239093  0.63239093  0.22861576  1
  N  N0  1  0.90479377  0.47344484  0.31625394  1
  N  N1  1  0.99660540  0.99660540  0.01679280  1
  N  N2  1  0.67711280  0.67711280  0.02288612  1
  N  N3  1  0.53582572  0.53582572  0.69178995  1
  N  N4  1  0.47344484  0.90479377  0.31625394  1
  N  N5  1  0.53768101  0.08458312  0.67599082  1
  N  N6  1  0.47562347  0.47562347  0.29445397  1
  N  N7  1  0.32129314  0.32129314  0.99297674  1
  N  N8  1  0.06163036  0.06163036  0.64592248  1
  N  N9  1  0.08458312  0.53768101  0.67599082  1
loop_
_geom_bond_atom_site_label_1
_geom_bond_atom_site_label_2
_geom_bond_distance
_geom_bond_site_symmetry_2
Ca0 N3 2.471123 1_555
Ca0 N8 2.471872 1_655
Ca0 N9 2.478689 1_655
Ca0 N1 2.550969 1_546
Ca0 N2 2.692928 1_556
Ca1 N8 2.471055 1_665
Ca1 N1 2.471534 1_556
Ca1 N9 2.477206 1_655
Ca1 N5 2.477206 1_565
Ca1 N2 2.673692 1_556
Ca2 N5 2.491767 1_565
Ca2 N9 2.491767 1_655
Ca2 N3 2.548716 1_555
Ca2 N0 2.613328 1_555
Ca2 N4 2.613328 1_555
Ca3 N8 2.294397 1_655
Ca3 N5 2.418882 1_555
Ca3 N3 2.434462 1_555
Ca3 N0 2.612603 1_555
Ca3 N6 2.644633 1_555
Ca4 N1 2.358453 1_545
Ca4 N7 2.370504 1_554
Ca4 N6 2.520806 1_555
Ca4 N4 2.544825 1_545
Ca5 N3 2.471122 1_555
Ca5 N8 2.471872 1_565
Ca5 N5 2.478689 1_565
Ca5 N1 2.550969 1_456
Ca5 N2 2.692928 1_556
Ca6 N8 2.294397 1_565
Ca6 N9 2.418882 1_555
Ca6 N3 2.434462 1_555
Ca6 N4 2.612603 1_555
Ca6 N6 2.644633 1_555
Ca7 N8 2.289260 1_555
Ca7 N9 2.437421 1_555
Ca7 N5 2.437422 1_555
Ca7 N4 2.714347 1_545
Ca7 N0 2.714347 1_455
Ca7 N6 3.035022 1_555
Ca8 N1 2.316983 1_445
Ca8 N7 2.343332 1_554
Ca8 N0 2.541509 1_455
Ca8 N4 2.541509 1_545
Ca9 N1 2.358453 1_455
Ca9 N7 2.370504 1_554
Ca9 N6 2.520806 1_555
Ca9 N0 2.544825 1_455
N0 Re0 1.860180 1_555
N2 Re0 1.804230 1_555
N3 Ti0 1.983721 1_555
N4 Re0 1.860179 1_555
N5 Ti0 1.976758 1_555
N6 Re0 1.851910 1_555
N7 Ti0 1.914690 1_555
N9 Ti0 1.976758 1_555
