# generated using pymatgen
data_Nb16Ni7AsC4
_symmetry_space_group_name_H-M   'P 1'
_cell_length_a   8.31839634
_cell_length_b   8.31839653
_cell_length_c   8.31839630
_cell_angle_alpha   59.65920605
_cell_angle_beta   59.65920162
_cell_angle_gamma   59.65920553
_symmetry_Int_Tables_number   1
_chemical_formula_structural   Nb16Ni7AsC4
_chemical_formula_sum   'Nb16 Ni7 As1 C4'
_cell_volume   403.85733395
_cell_formula_units_Z   1
loop_
 _symmetry_equiv_pos_site_id
 _symmetry_equiv_pos_as_xyz
  1  'x, y, z'
loop_
 _atom_site_type_symbol
 _atom_site_label
 _atom_site_symmetry_multiplicity
 _atom_site_fract_x
 _atom_site_fract_y
 _atom_site_fract_z
 _atom_site_occupancy
  Nb  Nb0  1  0.43622599  0.06480159  0.06480159  1
  Nb  Nb1  1  0.06654528  0.43321626  0.43321626  1
  Nb  Nb2  1  0.06480159  0.43622599  0.06480159  1
  Nb  Nb3  1  0.06480159  0.06480159  0.43622599  1
  Nb  Nb4  1  0.43321626  0.06654528  0.43321626  1
  Nb  Nb5  1  0.43321626  0.43321626  0.06654528  1
  Nb  Nb6  1  0.18214756  0.81790311  0.18214756  1
  Nb  Nb7  1  0.81241120  0.19503618  0.81241120  1
  Nb  Nb8  1  0.81790311  0.18214756  0.18214756  1
  Nb  Nb9  1  0.18214756  0.18214756  0.81790311  1
  Nb  Nb10  1  0.19503618  0.81241120  0.81241120  1
  Nb  Nb11  1  0.81241120  0.81241120  0.19503618  1
  Nb  Nb12  1  0.62372920  0.62372920  0.62372920  1
  Nb  Nb13  1  0.62075274  0.62075274  0.12514967  1
  Nb  Nb14  1  0.12514967  0.62075274  0.62075274  1
  Nb  Nb15  1  0.62075274  0.12514967  0.62075274  1
  Ni  Ni0  1  0.82938286  0.82938286  0.50756552  1
  Ni  Ni1  1  0.50756552  0.82938286  0.82938286  1
  Ni  Ni2  1  0.82938286  0.50756552  0.82938286  1
  Ni  Ni3  1  0.42260533  0.42260533  0.42260533  1
  Ni  Ni4  1  0.41944106  0.41944106  0.73570847  1
  Ni  Ni5  1  0.41944106  0.73570847  0.41944106  1
  Ni  Ni6  1  0.73570847  0.41944106  0.41944106  1
  As  As0  1  0.84298431  0.84298431  0.84298431  1
  C  C0  1  0.12492948  0.62647842  0.12492948  1
  C  C1  1  0.62647842  0.12492948  0.12492948  1
  C  C2  1  0.12492948  0.12492948  0.62647842  1
  C  C3  1  0.12589700  0.12589700  0.12589700  1
loop_
_geom_bond_atom_site_label_1
_geom_bond_atom_site_label_2
_geom_bond_distance
_geom_bond_site_symmetry_2
Nb0 Ni5 2.833269 1_545
Nb0 Ni4 2.833269 1_554
Nb0 Ni1 3.090040 1_544
Nb1 Ni6 2.872349 1_455
Nb1 Ni3 2.875372 1_555
Nb1 Ni2 3.064774 1_455
Nb1 Ni0 3.064774 1_455
Nb2 Ni4 2.833269 1_554
Nb2 Ni6 2.833269 1_455
Nb2 Ni2 3.090041 1_454
Nb3 Ni5 2.833269 1_545
Nb3 Ni6 2.833269 1_455
Nb3 Ni0 3.090040 1_445
Nb4 Ni5 2.872349 1_545
Nb4 Ni3 2.875372 1_555
Nb4 Ni0 3.064774 1_545
Nb4 Ni1 3.064774 1_545
Nb5 Ni4 2.872349 1_554
Nb5 Ni3 2.875372 1_555
Nb5 Ni2 3.064774 1_554
Nb5 Ni1 3.064774 1_554
Nb6 Ni1 2.810803 1_554
Nb6 Ni0 2.810803 1_455
Nb6 Ni5 3.077244 1_555
Nb6 Ni3 3.092999 1_555
Nb7 Ni2 2.749592 1_555
Nb7 Ni6 3.052267 1_555
Nb7 Ni4 3.052267 1_555
Nb8 Ni2 2.810804 1_554
Nb8 Ni0 2.810804 1_545
Nb8 Ni6 3.077244 1_555
Nb8 Ni3 3.092999 1_555
Nb9 Ni2 2.810803 1_455
Nb9 Ni1 2.810804 1_545
Nb9 Ni4 3.077244 1_555
Nb9 Ni3 3.092999 1_555
Nb10 Ni1 2.749592 1_555
Nb10 Ni5 3.052267 1_555
Nb10 Ni4 3.052267 1_555
Nb11 Ni0 2.749592 1_555
Nb11 Ni5 3.052267 1_555
Nb11 Ni6 3.052267 1_555
Nb12 Ni6 2.522366 1_555
Nb12 Ni4 2.522366 1_555
Nb12 Ni5 2.522366 1_555
Nb12 Ni1 2.530473 1_555
Nb12 Ni0 2.530473 1_555
Nb12 Ni2 2.530473 1_555
Nb13 Ni3 2.461717 1_555
Nb13 Ni5 2.513388 1_555
Nb13 Ni6 2.513388 1_555
Nb13 Ni2 2.515398 1_554
Nb13 Ni1 2.515398 1_554
Nb14 Ni3 2.461717 1_555
Nb14 Ni5 2.513388 1_555
Nb14 Ni4 2.513388 1_555
Nb14 Ni2 2.515398 1_455
Nb14 Ni0 2.515398 1_455
Nb15 Ni3 2.461717 1_555
Nb15 Ni4 2.513388 1_555
Nb15 Ni6 2.513388 1_555
Nb15 Ni0 2.515398 1_545
Nb15 Ni1 2.515398 1_545
Ni0 Ni1 2.663203 1_555
Ni0 Ni2 2.663203 1_555
Ni1 Ni2 2.663203 1_555
Ni3 Ni4 2.578191 1_555
Ni3 Ni6 2.578191 1_555
Ni3 Ni5 2.578191 1_555
Ni4 Ni6 2.617274 1_555
Ni4 Ni5 2.617274 1_555
Ni5 Ni6 2.617274 1_555
As0 Nb14 2.651259 1_655
As0 Nb13 2.651259 1_556
As0 Nb15 2.651259 1_565
As0 Nb11 2.695549 1_556
As0 Nb10 2.695549 1_655
As0 Nb7 2.695549 1_565
As0 Ni0 2.908834 1_555
As0 Ni1 2.908834 1_555
As0 Ni2 2.908834 1_555
As0 Nb0 3.013731 1_566
As0 Nb3 3.013731 1_665
As0 Nb2 3.013731 1_656
C0 Nb6 2.179198 1_555
C0 Nb5 2.182245 1_555
C0 Nb1 2.182245 1_555
C0 Nb11 2.192696 1_455
C0 Nb10 2.192696 1_554
C0 Nb2 2.203881 1_555
C1 Nb8 2.179198 1_555
C1 Nb4 2.182245 1_555
C1 Nb5 2.182246 1_555
C1 Nb7 2.192696 1_554
C1 Nb11 2.192696 1_545
C1 Nb0 2.203881 1_555
C2 Nb9 2.179198 1_555
C2 Nb4 2.182245 1_555
C2 Nb1 2.182246 1_555
C2 Nb7 2.192696 1_455
C2 Nb10 2.192696 1_545
C2 Nb3 2.203881 1_555
C3 Nb3 2.188720 1_555
C3 Nb0 2.188720 1_555
C3 Nb2 2.188720 1_555
C3 Nb9 2.191059 1_554
C3 Nb8 2.191059 1_455
C3 Nb6 2.191059 1_545
