# generated using pymatgen
data_CsP5Ru3O19
_symmetry_space_group_name_H-M   'P 1'
_cell_length_a   8.43350578
_cell_length_b   8.43350500
_cell_length_c   6.33039894
_cell_angle_alpha   81.39738931
_cell_angle_beta   81.39738084
_cell_angle_gamma   112.25135681
_symmetry_Int_Tables_number   1
_chemical_formula_structural   CsP5Ru3O19
_chemical_formula_sum   'Cs1 P5 Ru3 O19'
_cell_volume   401.42801762
_cell_formula_units_Z   1
loop_
 _symmetry_equiv_pos_site_id
 _symmetry_equiv_pos_as_xyz
  1  'x, y, z'
loop_
 _atom_site_type_symbol
 _atom_site_label
 _atom_site_symmetry_multiplicity
 _atom_site_fract_x
 _atom_site_fract_y
 _atom_site_fract_z
 _atom_site_occupancy
  Cs  Cs0  1  0.09515568  0.09515568  0.47675702  1
  P  P0  1  0.81544437  0.18544103  0.99657091  1
  P  P1  1  0.18544103  0.81544437  0.99657091  1
  P  P2  1  0.67159212  0.67159212  0.70240633  1
  P  P3  1  0.60649452  0.31492878  0.27295672  1
  P  P4  1  0.31492878  0.60649452  0.27295672  1
  Ru  Ru0  1  0.24331435  0.49038166  0.82180520  1
  Ru  Ru1  1  0.76325511  0.76325511  0.15751360  1
  Ru  Ru2  1  0.49038166  0.24331435  0.82180520  1
  O  O0  1  0.67592026  0.49091471  0.74884165  1
  O  O1  1  0.22553950  0.51657905  0.50841180  1
  O  O2  1  0.24581511  0.46667685  0.14292520  1
  O  O3  1  0.67715236  0.15836849  0.85942445  1
  O  O4  1  0.32408521  0.98893454  0.86655417  1
  O  O5  1  0.78419490  0.78419490  0.84175101  1
  O  O6  1  0.51099588  0.70941269  0.22970068  1
  O  O7  1  0.77247319  0.77247319  0.46561156  1
  O  O8  1  0.33137330  0.33137330  0.80739573  1
  O  O9  1  0.70941269  0.51099588  0.22970068  1
  O  O10  1  0.15836849  0.67715236  0.85942445  1
  O  O11  1  0.24507081  0.75372472  0.20937041  1
  O  O12  1  0.02122506  0.83596575  0.09102567  1
  O  O13  1  0.46667685  0.24581511  0.14292520  1
  O  O14  1  0.51657905  0.22553950  0.50841180  1
  O  O15  1  0.49091471  0.67592026  0.74884165  1
  O  O16  1  0.98893454  0.32408521  0.86655417  1
  O  O17  1  0.83596575  0.02122506  0.09102567  1
  O  O18  1  0.75372472  0.24507081  0.20937041  1
loop_
_geom_bond_atom_site_label_1
_geom_bond_atom_site_label_2
_geom_bond_distance
_geom_bond_site_symmetry_2
Cs0 O7 3.053300 1_445
Cs0 O2 3.177787 1_555
Cs0 O13 3.177787 1_555
Cs0 O5 3.203049 1_445
Cs0 O1 3.346637 1_555
Cs0 O14 3.346637 1_555
Cs0 O8 3.436196 1_555
Cs0 O12 3.485606 1_545
Cs0 O17 3.485606 1_455
Cs0 O16 3.562681 1_455
Cs0 O4 3.562682 1_545
O0 P2 1.523441 1_555
O0 Ru2 2.010670 1_555
O1 P4 1.502589 1_555
O1 Ru0 1.997521 1_555
O2 P4 1.523519 1_555
O2 Ru0 2.016730 1_554
O3 P0 1.525340 1_555
O3 Ru2 1.991668 1_555
O4 P1 1.497174 1_555
O4 Ru2 2.017481 1_565
O5 P2 1.549179 1_555
O5 Ru1 1.955291 1_556
O6 P4 1.506325 1_555
O6 Ru1 1.963784 1_555
O7 P2 1.543837 1_555
O7 Ru1 1.975405 1_555
O8 Ru0 1.768805 1_555
O8 Ru2 1.768805 1_555
O9 P3 1.506325 1_555
O9 Ru1 1.963784 1_555
O10 P1 1.525340 1_555
O10 Ru0 1.991668 1_555
O11 P4 1.589433 1_555
O11 P1 1.590491 1_554
O12 P1 1.506725 1_554
O12 Ru1 1.981126 1_455
O13 P3 1.523519 1_555
O13 Ru2 2.016730 1_554
O14 P3 1.502589 1_555
O14 Ru2 1.997521 1_555
O15 P2 1.523441 1_555
O15 Ru0 2.010670 1_555
O16 P0 1.497174 1_555
O16 Ru0 2.017481 1_655
O17 P0 1.506725 1_554
O17 Ru1 1.981126 1_545
O18 P3 1.589433 1_555
O18 P0 1.590491 1_554
