# generated using pymatgen
data_Li2NiH6Rh
_symmetry_space_group_name_H-M   'P 1'
_cell_length_a   4.68074194
_cell_length_b   4.68071871
_cell_length_c   4.68074205
_cell_angle_alpha   119.99982000
_cell_angle_beta   120.00004539
_cell_angle_gamma   60.00035276
_symmetry_Int_Tables_number   1
_chemical_formula_structural   Li2NiH6Rh
_chemical_formula_sum   'Li2 Ni1 H6 Rh1'
_cell_volume   72.51511665
_cell_formula_units_Z   1
loop_
 _symmetry_equiv_pos_site_id
 _symmetry_equiv_pos_as_xyz
  1  'x, y, z'
loop_
 _atom_site_type_symbol
 _atom_site_label
 _atom_site_symmetry_multiplicity
 _atom_site_fract_x
 _atom_site_fract_y
 _atom_site_fract_z
 _atom_site_occupancy
  Li  Li0  1  0.75000200  0.75000000  0.25000500  1
  Li  Li1  1  0.24999800  0.24999900  0.74999900  1
  Ni  Ni0  1  0.50000100  0.50000100  0.50000200  1
  H  H0  1  0.74410548  0.25589652  0.25589752  1
  H  H1  1  0.25589652  0.74410448  0.25589652  1
  H  H2  1  0.25589752  0.25589652  0.25589652  1
  H  H3  1  0.74410448  0.25589452  0.74410448  1
  H  H4  1  0.25589452  0.74410448  0.74410548  1
  H  H5  1  0.74410348  0.74410248  0.74410248  1
  Rh  Rh0  1  0.00000000  0.00000300  0.00000100  1
loop_
_geom_bond_atom_site_label_1
_geom_bond_atom_site_label_2
_geom_bond_distance
_geom_bond_site_symmetry_2
H0 Ni0 1.615873 1_555
H0 Rh0 1.693925 1_655
H0 Li0 2.340675 1_555
H0 Li1 2.340681 1_655
H0 Li0 2.340694 1_545
H0 Li1 2.340709 1_554
H1 Ni0 1.615864 1_555
H1 Rh0 1.693925 1_565
H1 Li1 2.340690 1_565
H1 Li0 2.340691 1_555
H1 Li0 2.340701 1_455
H1 Li1 2.340704 1_554
H2 Ni0 1.615856 1_555
H2 Rh0 1.693911 1_555
H2 Li1 2.340692 1_554
H2 Li0 2.340701 1_455
H2 Li1 2.340701 1_555
H2 Li0 2.340705 1_545
H3 Ni0 1.615864 1_555
H3 Rh0 1.693905 1_656
H3 Li0 2.340683 1_545
H3 Li1 2.340689 1_655
H3 Li1 2.340703 1_555
H3 Li0 2.340711 1_556
H4 Ni0 1.615877 1_555
H4 Rh0 1.693922 1_566
H4 Li0 2.340678 1_455
H4 Li1 2.340682 1_565
H4 Li1 2.340687 1_555
H4 Li0 2.340711 1_556
H5 Ni0 1.615843 1_555
H5 Rh0 1.693931 1_666
H5 Li0 2.340675 1_555
H5 Li1 2.340698 1_655
H5 Li1 2.340708 1_565
H5 Li0 2.340718 1_556
