# generated using pymatgen
data_Mg2P7Ru12
_symmetry_space_group_name_H-M   'P 1'
_cell_length_a   9.33385264
_cell_length_b   9.33385256
_cell_length_c   3.86786245
_cell_angle_alpha   90.00000000
_cell_angle_beta   90.00000000
_cell_angle_gamma   119.99999592
_symmetry_Int_Tables_number   1
_chemical_formula_structural   Mg2P7Ru12
_chemical_formula_sum   'Mg2 P7 Ru12'
_cell_volume   291.82570713
_cell_formula_units_Z   1
loop_
 _symmetry_equiv_pos_site_id
 _symmetry_equiv_pos_as_xyz
  1  'x, y, z'
loop_
 _atom_site_type_symbol
 _atom_site_label
 _atom_site_symmetry_multiplicity
 _atom_site_fract_x
 _atom_site_fract_y
 _atom_site_fract_z
 _atom_site_occupancy
  Mg  Mg0  1  0.00000000  0.00000000  0.00000000  1
  Mg  Mg1  1  0.33333300  0.66666700  0.50000000  1
  P  P0  1  0.26629885  0.04715165  0.50000000  1
  P  P1  1  0.95284835  0.21914620  0.50000000  1
  P  P2  1  0.78085380  0.73370115  0.50000000  1
  P  P3  1  0.35727794  0.43456370  0.00000000  1
  P  P4  1  0.56543630  0.92271425  0.00000000  1
  P  P5  1  0.07728575  0.64272206  0.00000000  1
  P  P6  1  0.66666700  0.33333300  0.00000000  1
  Ru  Ru0  1  0.05866602  0.78081119  0.50000000  1
  Ru  Ru1  1  0.72214718  0.94133398  0.50000000  1
  Ru  Ru2  1  0.87423169  0.42164708  0.50000000  1
  Ru  Ru3  1  0.54741539  0.12576831  0.50000000  1
  Ru  Ru4  1  0.57835292  0.45258461  0.50000000  1
  Ru  Ru5  1  0.39096978  0.20977559  0.00000000  1
  Ru  Ru6  1  0.79022441  0.18119419  0.00000000  1
  Ru  Ru7  1  0.81880581  0.60903022  0.00000000  1
  Ru  Ru8  1  0.58340474  0.68831722  0.00000000  1
  Ru  Ru9  1  0.31168278  0.89508653  0.00000000  1
  Ru  Ru10  1  0.10491347  0.41659526  0.00000000  1
  Ru  Ru11  1  0.21918881  0.27785282  0.50000000  1
loop_
_geom_bond_atom_site_label_1
_geom_bond_atom_site_label_2
_geom_bond_distance
_geom_bond_site_symmetry_2
Mg0 P1 3.002997 1_455
Mg0 P1 3.002997 1_454
Mg0 P2 3.003002 1_444
Mg0 P2 3.003002 1_445
Mg0 P0 3.003005 1_555
Mg0 P0 3.003005 1_554
Mg0 Ru1 3.057080 1_445
Mg0 Ru1 3.057080 1_444
Mg0 Ru11 3.057084 1_555
Mg0 Ru11 3.057084 1_554
Mg0 Ru0 3.057094 1_545
Mg0 Ru0 3.057094 1_544
Mg0 Ru6 3.163161 1_455
Mg0 Ru7 3.163161 1_445
Mg0 Ru5 3.163161 1_555
Mg0 Ru10 3.503019 1_555
Mg0 Ru8 3.503021 1_445
Mg0 Ru9 3.503028 1_545
Mg1 Ru9 2.959280 1_556
Mg1 Ru9 2.959280 1_555
Mg1 Ru10 2.959288 1_556
Mg1 Ru10 2.959288 1_555
Mg1 Ru8 2.959294 1_555
Mg1 Ru8 2.959294 1_556
Mg1 P5 2.994588 1_556
Mg1 P5 2.994588 1_555
Mg1 P4 2.994591 1_555
Mg1 P4 2.994591 1_556
Mg1 P3 2.994595 1_556
Mg1 P3 2.994595 1_555
Mg1 Ru0 3.230949 1_555
Mg1 Ru1 3.230970 1_555
Mg1 Ru11 3.230976 1_555
P0 Ru0 2.262331 1_545
P0 Ru3 2.344761 1_555
P0 Ru5 2.373165 1_556
P0 Ru5 2.373165 1_555
P0 Ru11 2.403548 1_555
P0 Ru9 2.556432 1_545
P0 Ru9 2.556432 1_546
P1 Ru11 2.262333 1_655
P1 Ru2 2.344769 1_555
P1 Ru6 2.373166 1_555
P1 Ru6 2.373166 1_556
P1 Ru1 2.403554 1_545
P1 Ru10 2.556432 1_655
P1 Ru10 2.556432 1_656
P2 Ru1 2.262324 1_555
P2 Ru4 2.344763 1_555
P2 Ru7 2.373161 1_555
P2 Ru7 2.373161 1_556
P2 Ru0 2.403558 1_655
P2 Ru8 2.556432 1_555
P2 Ru8 2.556432 1_556
P3 Ru8 2.250673 1_555
P3 Ru5 2.271760 1_555
P3 Ru10 2.276314 1_555
P3 Ru11 2.378151 1_555
P3 Ru11 2.378151 1_554
P3 Ru4 2.771146 1_554
P3 Ru4 2.771146 1_555
P4 Ru9 2.250669 1_555
P4 Ru6 2.271760 1_565
P4 Ru8 2.276323 1_555
P4 Ru1 2.378155 1_554
P4 Ru1 2.378155 1_555
P4 Ru3 2.771146 1_565
P4 Ru3 2.771146 1_564
P5 Ru10 2.250678 1_555
P5 Ru7 2.271760 1_455
P5 Ru9 2.276318 1_555
P5 Ru0 2.378144 1_554
P5 Ru0 2.378144 1_555
P5 Ru2 2.771146 1_454
P5 Ru2 2.771146 1_455
P6 Ru6 2.232538 1_555
P6 Ru7 2.232546 1_555
P6 Ru5 2.232547 1_555
P6 Ru2 2.564373 1_555
P6 Ru2 2.564373 1_554
P6 Ru3 2.564374 1_554
P6 Ru3 2.564374 1_555
P6 Ru4 2.564379 1_554
P6 Ru4 2.564379 1_555
Ru0 Ru7 2.780926 1_456
Ru0 Ru7 2.780926 1_455
Ru0 Ru9 2.817103 1_555
Ru0 Ru9 2.817103 1_556
Ru0 Ru2 2.903604 1_455
Ru1 Ru6 2.780930 1_565
Ru1 Ru6 2.780930 1_566
Ru1 Ru8 2.817103 1_555
Ru1 Ru8 2.817103 1_556
Ru1 Ru3 2.903620 1_565
Ru2 Ru6 2.762646 1_555
Ru2 Ru6 2.762646 1_556
Ru2 Ru7 2.823398 1_556
Ru2 Ru7 2.823398 1_555
Ru2 Ru4 2.916812 1_555
Ru2 Ru3 2.916812 1_555
Ru3 Ru5 2.762646 1_555
Ru3 Ru5 2.762646 1_556
Ru3 Ru6 2.823398 1_556
Ru3 Ru6 2.823398 1_555
Ru3 Ru9 2.912022 1_546
Ru3 Ru9 2.912022 1_545
Ru3 Ru4 2.916812 1_555
Ru4 Ru7 2.762646 1_555
Ru4 Ru7 2.762646 1_556
Ru4 Ru5 2.823398 1_555
Ru4 Ru5 2.823398 1_556
Ru4 Ru8 2.912019 1_555
Ru4 Ru8 2.912019 1_556
Ru5 Ru9 2.646026 1_545
Ru7 Ru8 2.646017 1_555
Ru10 Ru6 2.646024 1_455
Ru10 Ru11 2.817109 1_555
Ru10 Ru11 2.817109 1_554
Ru10 Ru2 2.912026 1_454
Ru10 Ru2 2.912026 1_455
Ru11 Ru5 2.780917 1_556
Ru11 Ru5 2.780917 1_555
Ru11 Ru4 2.903604 1_555
