# generated using pymatgen
data_NbAg7(SO4)6
_symmetry_space_group_name_H-M   'P 1'
_cell_length_a   8.65378113
_cell_length_b   8.65378107
_cell_length_c   8.65378106
_cell_angle_alpha   108.49418171
_cell_angle_beta   108.49417969
_cell_angle_gamma   108.49419473
_symmetry_Int_Tables_number   1
_chemical_formula_structural   NbAg7(SO4)6
_chemical_formula_sum   'Nb1 Ag7 S6 O24'
_cell_volume   516.13737450
_cell_formula_units_Z   1
loop_
 _symmetry_equiv_pos_site_id
 _symmetry_equiv_pos_as_xyz
  1  'x, y, z'
loop_
 _atom_site_type_symbol
 _atom_site_label
 _atom_site_symmetry_multiplicity
 _atom_site_fract_x
 _atom_site_fract_y
 _atom_site_fract_z
 _atom_site_occupancy
  Nb  Nb0  1  0.00000000  0.00000000  0.00000000  1
  Ag  Ag0  1  0.50000000  0.50000000  0.50000000  1
  Ag  Ag1  1  0.83814543  0.34296815  0.68430316  1
  Ag  Ag2  1  0.34296815  0.68430316  0.83814543  1
  Ag  Ag3  1  0.68430316  0.83814543  0.34296815  1
  Ag  Ag4  1  0.16185457  0.65703185  0.31569684  1
  Ag  Ag5  1  0.65703185  0.31569684  0.16185457  1
  Ag  Ag6  1  0.31569684  0.16185457  0.65703185  1
  S  S0  1  0.96590574  0.74446238  0.59535656  1
  S  S1  1  0.74446238  0.59535656  0.96590574  1
  S  S2  1  0.59535656  0.96590574  0.74446238  1
  S  S3  1  0.03409426  0.25553762  0.40464344  1
  S  S4  1  0.25553762  0.40464344  0.03409426  1
  S  S5  1  0.40464344  0.03409426  0.25553762  1
  O  O0  1  0.46999635  0.91386192  0.16829867  1
  O  O1  1  0.91386192  0.16829867  0.46999635  1
  O  O2  1  0.16829867  0.46999635  0.91386192  1
  O  O3  1  0.53000365  0.08613808  0.83170133  1
  O  O4  1  0.08613808  0.83170133  0.53000365  1
  O  O5  1  0.83170133  0.53000365  0.08613808  1
  O  O6  1  0.32292288  0.97528816  0.36271646  1
  O  O7  1  0.97528816  0.36271646  0.32292288  1
  O  O8  1  0.36271646  0.32292288  0.97528816  1
  O  O9  1  0.67707712  0.02471184  0.63728354  1
  O  O10  1  0.02471184  0.63728354  0.67707712  1
  O  O11  1  0.63728354  0.67707712  0.02471184  1
  O  O12  1  0.74736914  0.97457035  0.90586478  1
  O  O13  1  0.97457035  0.90586478  0.74736914  1
  O  O14  1  0.63973170  0.45393246  0.77177048  1
  O  O15  1  0.77177048  0.63973170  0.45393246  1
  O  O16  1  0.45393246  0.77177048  0.63973170  1
  O  O17  1  0.36026830  0.54606754  0.22822952  1
  O  O18  1  0.22822952  0.36026830  0.54606754  1
  O  O19  1  0.54606754  0.22822952  0.36026830  1
  O  O20  1  0.09413522  0.25263086  0.02542965  1
  O  O21  1  0.02542965  0.09413522  0.25263086  1
  O  O22  1  0.25263086  0.02542965  0.09413522  1
  O  O23  1  0.90586478  0.74736914  0.97457035  1
loop_
_geom_bond_atom_site_label_1
_geom_bond_atom_site_label_2
_geom_bond_distance
_geom_bond_site_symmetry_2
Nb0 O20 1.985637 1_555
Nb0 O23 1.985637 1_444
Nb0 O21 1.985637 1_555
Nb0 O13 1.985637 1_444
Nb0 O22 1.985637 1_555
Nb0 O12 1.985637 1_444
Ag0 O15 2.499744 1_555
Ag0 O18 2.499744 1_555
Ag0 O16 2.499745 1_555
Ag0 O19 2.499745 1_555
Ag0 O14 2.499745 1_555
Ag0 O17 2.499745 1_555
Ag1 O1 2.402988 1_555
Ag1 O14 2.419225 1_555
Ag1 O9 2.487443 1_555
Ag1 O2 2.517728 1_655
Ag1 O10 2.579493 1_655
Ag1 O19 2.717088 1_555
Ag2 O2 2.402988 1_555
Ag2 O16 2.419225 1_555
Ag2 O10 2.487444 1_555
Ag2 O0 2.517728 1_556
Ag2 O11 2.579493 1_556
Ag2 O18 2.717088 1_555
Ag3 O0 2.402988 1_555
Ag3 O15 2.419225 1_555
Ag3 O11 2.487444 1_555
Ag3 O1 2.517727 1_565
Ag3 O9 2.579493 1_565
Ag3 O17 2.717087 1_555
Ag4 O4 2.402988 1_555
Ag4 O17 2.419225 1_555
Ag4 O6 2.487443 1_555
Ag4 O5 2.517728 1_455
Ag4 O7 2.579493 1_455
Ag4 O16 2.717088 1_555
Ag5 O5 2.402988 1_555
Ag5 O19 2.419225 1_555
Ag5 O7 2.487444 1_555
Ag5 O3 2.517728 1_554
Ag5 O8 2.579493 1_554
Ag5 O15 2.717088 1_555
Ag6 O3 2.402988 1_555
Ag6 O18 2.419225 1_555
Ag6 O8 2.487444 1_555
Ag6 O4 2.517727 1_545
Ag6 O6 2.579493 1_545
Ag6 O14 2.717087 1_555
O0 S5 1.455407 1_565
O1 S3 1.455407 1_655
O2 S4 1.455407 1_556
O3 S2 1.455407 1_545
O4 S0 1.455407 1_455
O5 S1 1.455407 1_554
O6 S5 1.451417 1_565
O7 S3 1.451417 1_655
O8 S4 1.451417 1_556
O9 S2 1.451417 1_545
O10 S0 1.451417 1_455
O11 S1 1.451417 1_554
O12 S2 1.546711 1_555
O13 S0 1.546711 1_555
O14 S1 1.472264 1_555
O15 S0 1.472264 1_555
O16 S2 1.472264 1_555
O17 S4 1.472264 1_555
O18 S3 1.472264 1_555
O19 S5 1.472264 1_555
O20 S4 1.546711 1_555
O21 S3 1.546711 1_555
O22 S5 1.546711 1_555
O23 S1 1.546711 1_555
