# generated using pymatgen
data_Y2NbIr2Ru
_symmetry_space_group_name_H-M   'P 1'
_cell_length_a   5.27061000
_cell_length_b   5.65642194
_cell_length_c   5.66077948
_cell_angle_alpha   59.97450718
_cell_angle_beta   57.51941518
_cell_angle_gamma   55.94234664
_symmetry_Int_Tables_number   1
_chemical_formula_structural   Y2NbIr2Ru
_chemical_formula_sum   'Y2 Nb1 Ir2 Ru1'
_cell_volume   113.03065602
_cell_formula_units_Z   1
loop_
 _symmetry_equiv_pos_site_id
 _symmetry_equiv_pos_as_xyz
  1  'x, y, z'
loop_
 _atom_site_type_symbol
 _atom_site_label
 _atom_site_symmetry_multiplicity
 _atom_site_fract_x
 _atom_site_fract_y
 _atom_site_fract_z
 _atom_site_occupancy
  Y  Y0  1  0.50623373  0.50142163  0.49617182  1
  Y  Y1  1  0.74376627  0.74857837  0.75382818  1
  Nb  Nb0  1  0.62500000  0.12500000  0.12500000  1
  Ir  Ir0  1  0.12500000  0.12500000  0.12500000  1
  Ir  Ir1  1  0.12500000  0.12500000  0.62500000  1
  Ru  Ru0  1  0.12500000  0.62500000  0.12500000  1
loop_
_geom_bond_atom_site_label_1
_geom_bond_atom_site_label_2
_geom_bond_distance
_geom_bond_site_symmetry_2
Y0 Y1 3.111941 1_455
Y0 Y1 3.406274 1_545
Y0 Y1 3.407530 1_554
Y0 Y1 3.407540 1_555
Nb0 Ru0 2.568195 1_645
Nb0 Ru0 2.568195 1_555
Nb0 Y1 3.300215 1_554
Nb0 Y0 3.300215 1_545
Nb0 Y0 3.303296 1_555
Nb0 Y1 3.303296 1_544
Nb0 Y1 3.303301 1_545
Nb0 Y0 3.303301 1_554
Ir0 Nb0 2.635305 1_555
Ir0 Nb0 2.635305 1_455
Ir0 Ru0 2.828211 1_545
Ir0 Ru0 2.828211 1_555
Ir0 Ir1 2.830390 1_554
Ir0 Ir1 2.830390 1_555
Ir0 Y0 2.987328 1_455
Ir0 Y1 2.987328 1_544
Ir0 Y0 3.173761 1_545
Ir0 Y1 3.173761 1_454
Ir0 Y0 3.281293 1_554
Ir0 Y1 3.281293 1_445
Ir1 Nb0 2.635305 1_456
Ir1 Nb0 2.635305 1_555
Ir1 Ru0 2.828211 1_546
Ir1 Ru0 2.828211 1_555
Ir1 Y1 2.987331 1_545
Ir1 Y0 2.987331 1_455
Ir1 Y1 3.173763 1_455
Ir1 Y0 3.173763 1_545
Ir1 Y0 3.281291 1_555
Ir1 Y1 3.281291 1_445
Ru0 Y1 3.043544 1_554
Ru0 Y0 3.043544 1_455
Ru0 Y0 3.229882 1_555
Ru0 Y1 3.229882 1_454
Ru0 Y1 3.229886 1_455
Ru0 Y0 3.229886 1_554
