# generated using pymatgen
data_BaCO3
_symmetry_space_group_name_H-M   'P 1'
_cell_length_a   5.43441900
_cell_length_b   4.65732800
_cell_length_c   6.15233539
_cell_angle_alpha   76.36424050
_cell_angle_beta   90.00000000
_cell_angle_gamma   90.00000000
_symmetry_Int_Tables_number   1
_chemical_formula_structural   BaCO3
_chemical_formula_sum   'Ba2 C2 O6'
_cell_volume   151.32585040
_cell_formula_units_Z   2
loop_
 _symmetry_equiv_pos_site_id
 _symmetry_equiv_pos_as_xyz
  1  'x, y, z'
loop_
 _atom_site_type_symbol
 _atom_site_label
 _atom_site_symmetry_multiplicity
 _atom_site_fract_x
 _atom_site_fract_y
 _atom_site_fract_z
 _atom_site_occupancy
  Ba  Ba0  1  0.75000000  0.87717200  0.76642000  1
  Ba  Ba1  1  0.25000000  0.12282800  0.23358000  1
  C  C0  1  0.25000000  0.49682100  0.74409700  1
  C  C1  1  0.75000000  0.50317900  0.25590300  1
  O  O0  1  0.25000000  0.77986700  0.65377600  1
  O  O1  1  0.45777700  0.35919500  0.79590500  1
  O  O2  1  0.04222300  0.35919500  0.79590500  1
  O  O3  1  0.95777700  0.64080500  0.20409500  1
  O  O4  1  0.54222300  0.64080500  0.20409500  1
  O  O5  1  0.75000000  0.22013300  0.34622400  1
loop_
_geom_bond_atom_site_label_1
_geom_bond_atom_site_label_2
_geom_bond_distance
_geom_bond_site_symmetry_2
Ba0 O5 2.699548 1_565
Ba0 O2 2.790450 1_665
Ba0 O1 2.790450 1_565
Ba0 O2 2.857995 1_655
Ba0 O1 2.857995 1_555
Ba0 O0 2.866525 1_655
Ba0 O0 2.866525 1_555
Ba0 O3 2.887896 1_556
Ba0 O4 2.887896 1_556
Ba1 O0 2.699548 1_545
Ba1 O3 2.790450 1_445
Ba1 O4 2.790450 1_545
Ba1 O3 2.857995 1_455
Ba1 O4 2.857995 1_555
Ba1 O5 2.866525 1_455
Ba1 O5 2.866525 1_555
Ba1 O1 2.887896 1_554
Ba1 O2 2.887896 1_554
C0 O2 1.300416 1_555
C0 O1 1.300416 1_555
C0 O0 1.304283 1_555
C1 O3 1.300416 1_555
C1 O4 1.300416 1_555
C1 O5 1.304283 1_555
