# generated using pymatgen
data_Ta12Zn12CN3
_symmetry_space_group_name_H-M   'P 1'
_cell_length_a   8.21521871
_cell_length_b   8.19276780
_cell_length_c   8.19276978
_cell_angle_alpha   59.99999987
_cell_angle_beta   60.09036054
_cell_angle_gamma   60.09035775
_symmetry_Int_Tables_number   1
_chemical_formula_structural   Ta12Zn12CN3
_chemical_formula_sum   'Ta12 Zn12 C1 N3'
_cell_volume   390.44272089
_cell_formula_units_Z   1
loop_
 _symmetry_equiv_pos_site_id
 _symmetry_equiv_pos_as_xyz
  1  'x, y, z'
loop_
 _atom_site_type_symbol
 _atom_site_label
 _atom_site_symmetry_multiplicity
 _atom_site_fract_x
 _atom_site_fract_y
 _atom_site_fract_z
 _atom_site_occupancy
  Ta  Ta0  1  0.43160421  0.43262921  0.06788329  1
  Ta  Ta1  1  0.06998605  0.43136855  0.06727786  1
  Ta  Ta2  1  0.43160421  0.06788329  0.06788329  1
  Ta  Ta3  1  0.06998605  0.06727786  0.43136855  1
  Ta  Ta4  1  0.43160421  0.06788329  0.43262921  1
  Ta  Ta5  1  0.06998605  0.43136855  0.43136855  1
  Ta  Ta6  1  0.81839579  0.81737079  0.18211671  1
  Ta  Ta7  1  0.18001395  0.81863145  0.18272214  1
  Ta  Ta8  1  0.81839579  0.18211671  0.18211671  1
  Ta  Ta9  1  0.18001395  0.18272214  0.81863145  1
  Ta  Ta10  1  0.81839579  0.18211671  0.81737079  1
  Ta  Ta11  1  0.18001395  0.81863145  0.81863145  1
  Zn  Zn0  1  0.83249331  0.83205570  0.50339830  1
  Zn  Zn1  1  0.83249331  0.50339830  0.83205570  1
  Zn  Zn2  1  0.50276204  0.83241332  0.83241332  1
  Zn  Zn3  1  0.83249331  0.83205570  0.83205570  1
  Zn  Zn4  1  0.41750669  0.41794430  0.74660170  1
  Zn  Zn5  1  0.41750669  0.74660170  0.41794430  1
  Zn  Zn6  1  0.74723796  0.41758668  0.41758668  1
  Zn  Zn7  1  0.41750669  0.41794430  0.41794430  1
  Zn  Zn8  1  0.62500000  0.62500000  0.12500000  1
  Zn  Zn9  1  0.62500000  0.12500000  0.62500000  1
  Zn  Zn10  1  0.12500000  0.62500000  0.62500000  1
  Zn  Zn11  1  0.62500000  0.62500000  0.62500000  1
  C  C0  1  0.62500000  0.12500000  0.12500000  1
  N  N0  1  0.12500000  0.12500000  0.62500000  1
  N  N1  1  0.12500000  0.62500000  0.12500000  1
  N  N2  1  0.12500000  0.12500000  0.12500000  1
loop_
_geom_bond_atom_site_label_1
_geom_bond_atom_site_label_2
_geom_bond_distance
_geom_bond_site_symmetry_2
Ta0 Zn7 2.755130 1_555
Ta0 Zn4 2.755155 1_554
Ta0 Zn8 3.033687 1_555
Ta0 Zn11 3.033687 1_554
Ta0 Zn2 3.042593 1_554
Ta0 Zn1 3.058411 1_554
Ta1 Zn4 2.749707 1_554
Ta1 Zn6 2.768657 1_455
Ta1 Zn10 3.030528 1_554
Ta1 Zn1 3.054970 1_454
Ta1 Zn3 3.054977 1_454
Ta1 Zn8 3.057256 1_455
Ta2 Zn4 2.755141 1_554
Ta2 Zn5 2.755141 1_545
Ta2 Zn8 3.033686 1_545
Ta2 Zn9 3.033687 1_554
Ta2 Zn2 3.042579 1_544
Ta2 Zn3 3.058401 1_544
Ta3 Zn5 2.749706 1_545
Ta3 Zn6 2.768657 1_455
Ta3 Zn10 3.030528 1_545
Ta3 Zn0 3.054970 1_445
Ta3 Zn3 3.054978 1_445
Ta3 Zn9 3.057256 1_455
Ta4 Zn7 2.755129 1_555
Ta4 Zn5 2.755154 1_545
Ta4 Zn11 3.033686 1_545
Ta4 Zn9 3.033687 1_555
Ta4 Zn2 3.042594 1_545
Ta4 Zn0 3.058411 1_545
Ta5 Zn7 2.749692 1_555
Ta5 Zn6 2.768670 1_455
Ta5 Zn10 3.030521 1_555
Ta5 Zn0 3.054984 1_455
Ta5 Zn1 3.054985 1_455
Ta5 Zn11 3.057254 1_455
Ta6 Zn3 2.755130 1_554
Ta6 Zn0 2.755155 1_555
Ta6 Zn8 3.033687 1_555
Ta6 Zn11 3.033687 1_555
Ta6 Zn6 3.042593 1_555
Ta6 Zn5 3.058411 1_555
Ta7 Zn0 2.749707 1_455
Ta7 Zn2 2.768657 1_554
Ta7 Zn10 3.030528 1_555
Ta7 Zn5 3.054970 1_555
Ta7 Zn7 3.054977 1_555
Ta7 Zn8 3.057256 1_555
Ta8 Zn0 2.755141 1_545
Ta8 Zn1 2.755141 1_554
Ta8 Zn8 3.033686 1_555
Ta8 Zn9 3.033687 1_555
Ta8 Zn6 3.042579 1_555
Ta8 Zn7 3.058401 1_555
Ta9 Zn1 2.749706 1_455
Ta9 Zn2 2.768657 1_545
Ta9 Zn10 3.030528 1_555
Ta9 Zn4 3.054970 1_555
Ta9 Zn7 3.054978 1_555
Ta9 Zn9 3.057256 1_555
Ta10 Zn3 2.755129 1_545
Ta10 Zn1 2.755154 1_555
Ta10 Zn11 3.033686 1_555
Ta10 Zn9 3.033687 1_555
Ta10 Zn6 3.042594 1_555
Ta10 Zn4 3.058411 1_555
Ta11 Zn3 2.749692 1_455
Ta11 Zn2 2.768670 1_555
Ta11 Zn10 3.030521 1_555
Ta11 Zn4 3.054984 1_555
Ta11 Zn5 3.054985 1_555
Ta11 Zn11 3.057254 1_555
Zn0 Zn9 2.505167 1_565
Zn0 Zn11 2.505187 1_555
Zn0 Zn10 2.505361 1_655
Zn0 Zn1 2.692614 1_555
Zn0 Zn3 2.692614 1_555
Zn0 Zn2 2.705892 1_555
Zn1 Zn8 2.505167 1_556
Zn1 Zn11 2.505187 1_555
Zn1 Zn10 2.505361 1_655
Zn1 Zn3 2.692614 1_555
Zn1 Zn2 2.705892 1_555
Zn2 Zn9 2.503510 1_565
Zn2 Zn8 2.503510 1_556
Zn2 Zn3 2.705896 1_555
Zn3 Zn9 2.505180 1_565
Zn3 Zn8 2.505180 1_556
Zn4 Zn9 2.505167 1_555
Zn4 Zn5 2.692614 1_555
Zn4 Zn7 2.692614 1_555
Zn4 Zn6 2.705892 1_555
Zn5 Zn8 2.505167 1_555
Zn5 Zn7 2.692614 1_555
Zn5 Zn6 2.705892 1_555
Zn6 Zn9 2.503510 1_555
Zn6 Zn8 2.503510 1_555
Zn6 Zn7 2.705896 1_555
Zn7 Zn9 2.505180 1_555
Zn7 Zn8 2.505180 1_555
Zn10 Zn5 2.505361 1_555
Zn10 Zn4 2.505361 1_555
Zn10 Zn3 2.505374 1_455
Zn10 Zn7 2.505374 1_555
Zn11 Zn2 2.503523 1_555
Zn11 Zn6 2.503523 1_555
Zn11 Zn4 2.505187 1_555
Zn11 Zn5 2.505187 1_555
C0 Ta6 2.159636 1_545
C0 Ta0 2.159636 1_555
C0 Ta8 2.159636 1_555
C0 Ta2 2.159636 1_555
C0 Ta4 2.159637 1_555
C0 Ta10 2.159637 1_554
N0 Ta3 2.150082 1_555
N0 Ta9 2.150082 1_555
N0 Ta5 2.150087 1_555
N0 Ta11 2.150087 1_545
N0 Ta4 2.156497 1_555
N0 Ta10 2.156497 1_455
N1 Ta7 2.150081 1_555
N1 Ta1 2.150081 1_555
N1 Ta5 2.150087 1_555
N1 Ta11 2.150087 1_554
N1 Ta0 2.156497 1_555
N1 Ta6 2.156497 1_455
N2 Ta1 2.150089 1_555
N2 Ta7 2.150089 1_545
N2 Ta9 2.150090 1_554
N2 Ta3 2.150090 1_555
N2 Ta2 2.156497 1_555
N2 Ta8 2.156497 1_455
