# generated using pymatgen
data_LiGa(CO3)2
_symmetry_space_group_name_H-M   'P 1'
_cell_length_a   4.57695442
_cell_length_b   5.58192208
_cell_length_c   7.92707209
_cell_angle_alpha   76.41847688
_cell_angle_beta   89.98839599
_cell_angle_gamma   114.27061491
_symmetry_Int_Tables_number   1
_chemical_formula_structural   LiGa(CO3)2
_chemical_formula_sum   'Li2 Ga2 C4 O12'
_cell_volume   178.38731054
_cell_formula_units_Z   2
loop_
 _symmetry_equiv_pos_site_id
 _symmetry_equiv_pos_as_xyz
  1  'x, y, z'
loop_
 _atom_site_type_symbol
 _atom_site_label
 _atom_site_symmetry_multiplicity
 _atom_site_fract_x
 _atom_site_fract_y
 _atom_site_fract_z
 _atom_site_occupancy
  Li  Li0  1  0.00000168  0.99997847  0.00001486  1
  Li  Li1  1  0.49999832  0.00002153  0.49998514  1
  Ga  Ga0  1  0.75000000  0.50000000  0.75000000  1
  Ga  Ga1  1  0.25000000  0.50000000  0.25000000  1
  C  C0  1  0.86641911  0.73212626  0.37834896  1
  C  C1  1  0.36642890  0.73212453  0.87835371  1
  C  C2  1  0.63358089  0.26787374  0.12165104  1
  C  C3  1  0.13357110  0.26787547  0.62164629  1
  O  O0  1  0.91336592  0.26520891  0.12938193  1
  O  O1  1  0.41336169  0.26521149  0.62937778  1
  O  O2  1  0.49750557  0.73505760  0.02210937  1
  O  O3  1  0.99750044  0.73506218  0.52211040  1
  O  O4  1  0.01930525  0.73478101  0.24097737  1
  O  O5  1  0.51931163  0.73478169  0.74097605  1
  O  O6  1  0.48069375  0.26521899  0.25902263  1
  O  O7  1  0.98068937  0.26521831  0.75902395  1
  O  O8  1  0.00249443  0.26494240  0.47789163  1
  O  O9  1  0.50249956  0.26493782  0.97789060  1
  O  O10  1  0.58663508  0.73479209  0.37061907  1
  O  O11  1  0.08663831  0.73478951  0.87062222  1
loop_
_geom_bond_atom_site_label_1
_geom_bond_atom_site_label_2
_geom_bond_distance
_geom_bond_site_symmetry_2
Li0 O2 2.142246 1_455
Li0 O9 2.142282 1_564
Li0 O11 2.143819 1_554
Li0 O0 2.143890 1_465
Li0 O4 2.151118 1_555
Li0 O7 2.151412 1_464
Li1 O8 2.142246 1_655
Li1 O3 2.142282 1_445
Li1 O1 2.143824 1_555
Li1 O10 2.143883 1_545
Li1 O6 2.151119 1_555
Li1 O5 2.151413 1_545
Ga0 O5 1.982672 1_555
Ga0 O7 1.982676 1_555
Ga0 O3 1.983002 1_555
Ga0 O9 1.983008 1_555
Ga0 O1 1.983675 1_555
Ga0 O11 1.983678 1_655
Ga1 O6 1.982690 1_555
Ga1 O4 1.982693 1_555
Ga1 O2 1.983009 1_555
Ga1 O8 1.983015 1_555
Ga1 O0 1.983651 1_455
Ga1 O10 1.983661 1_555
C0 O10 1.288051 1_555
C0 O4 1.288132 1_655
C0 O3 1.288364 1_555
C1 O11 1.288080 1_555
C1 O5 1.288158 1_555
C1 O2 1.288313 1_556
C2 O0 1.288054 1_555
C2 O6 1.288134 1_555
C2 O9 1.288357 1_554
C3 O1 1.288077 1_555
C3 O7 1.288156 1_455
C3 O8 1.288306 1_555
