# generated using pymatgen
data_Mg2TcSn8Ir
_symmetry_space_group_name_H-M   'P 1'
_cell_length_a   7.43071402
_cell_length_b   7.43071474
_cell_length_c   7.43071414
_cell_angle_alpha   125.47449676
_cell_angle_beta   125.47450467
_cell_angle_gamma   80.75356963
_symmetry_Int_Tables_number   1
_chemical_formula_structural   Mg2TcSn8Ir
_chemical_formula_sum   'Mg2 Tc1 Sn8 Ir1'
_cell_volume   262.33734426
_cell_formula_units_Z   1
loop_
 _symmetry_equiv_pos_site_id
 _symmetry_equiv_pos_as_xyz
  1  'x, y, z'
loop_
 _atom_site_type_symbol
 _atom_site_label
 _atom_site_symmetry_multiplicity
 _atom_site_fract_x
 _atom_site_fract_y
 _atom_site_fract_z
 _atom_site_occupancy
  Mg  Mg0  1  0.49634482  0.49634482  1.00000000  1
  Mg  Mg1  1  0.00365518  0.00365518  0.00000000  1
  Tc  Tc0  1  0.75000000  0.75000000  0.00000000  1
  Sn  Sn0  1  0.71047811  0.51777881  0.50625660  1
  Sn  Sn1  1  0.51777881  0.01152221  0.80729970  1
  Sn  Sn2  1  0.20422251  0.71047811  0.19270030  1
  Sn  Sn3  1  0.78952189  0.29577749  0.80729970  1
  Sn  Sn4  1  0.48847779  0.98222119  0.19270030  1
  Sn  Sn5  1  0.29577749  0.48847779  0.50625660  1
  Sn  Sn6  1  0.98222119  0.78952189  0.49374340  1
  Sn  Sn7  1  0.01152221  0.20422251  0.49374340  1
  Ir  Ir0  1  0.25000000  0.25000000  0.00000000  1
loop_
_geom_bond_atom_site_label_1
_geom_bond_atom_site_label_2
_geom_bond_distance
_geom_bond_site_symmetry_2
Mg0 Tc0 2.871744 1_556
Mg0 Sn5 3.019554 1_555
Mg0 Sn4 3.019555 1_556
Mg0 Sn6 3.019556 1_556
Mg0 Sn3 3.019561 1_555
Mg0 Sn2 3.024429 1_556
Mg0 Sn7 3.024429 1_555
Mg0 Sn1 3.024430 1_555
Mg0 Sn0 3.024431 1_556
Mg1 Tc0 2.871744 1_445
Mg1 Sn1 3.019554 1_454
Mg1 Sn7 3.019554 1_555
Mg1 Sn0 3.019556 1_444
Mg1 Sn2 3.019561 1_545
Mg1 Sn3 3.024429 1_454
Mg1 Sn4 3.024429 1_545
Mg1 Sn5 3.024430 1_555
Mg1 Sn6 3.024431 1_444
Sn0 Tc0 2.844037 1_556
Sn0 Sn7 2.959115 1_655
Sn0 Sn5 3.123907 1_555
Sn0 Sn6 3.147936 1_555
Sn0 Sn3 3.242992 1_555
Sn0 Sn4 3.297487 1_545
Sn1 Tc0 2.844041 1_546
Sn1 Sn2 2.959110 1_545
Sn1 Sn4 3.123914 1_546
Sn1 Sn3 3.147930 1_555
Sn1 Sn5 3.242996 1_545
Sn1 Sn6 3.297487 1_445
Sn2 Tc0 2.844042 1_455
Sn2 Sn3 3.123905 1_454
Sn2 Sn4 3.147930 1_555
Sn2 Sn6 3.242992 1_455
Sn2 Sn5 3.297483 1_555
Sn3 Tc0 2.844043 1_556
Sn3 Sn4 2.959110 1_545
Sn3 Sn7 3.297483 1_655
Sn4 Tc0 2.844041 1_555
Sn4 Sn7 3.242996 1_665
Sn5 Tc0 2.844041 1_556
Sn5 Sn6 2.959115 1_455
Sn5 Sn7 3.147924 1_555
Sn6 Tc0 2.844037 1_555
Sn6 Sn7 3.123907 1_665
Sn7 Tc0 2.844041 1_445
Ir0 Mg0 2.788980 1_554
Ir0 Mg1 2.788980 1_555
Ir0 Sn3 2.894561 1_454
Ir0 Sn2 2.894561 1_555
Ir0 Sn0 2.894563 1_555
Ir0 Sn6 2.894563 1_444
Ir0 Sn7 2.894567 1_554
Ir0 Sn5 2.894568 1_555
Ir0 Sn4 2.894568 1_545
Ir0 Sn1 2.894568 1_554
