# generated using pymatgen
data_GaSeIBr6
_symmetry_space_group_name_H-M   'P 1'
_cell_length_a   6.62462997
_cell_length_b   6.73010492
_cell_length_c   15.38742933
_cell_angle_alpha   80.12610089
_cell_angle_beta   90.00000000
_cell_angle_gamma   90.00000000
_symmetry_Int_Tables_number   1
_chemical_formula_structural   GaSeIBr6
_chemical_formula_sum   'Ga2 Se2 I2 Br12'
_cell_volume   675.87820801
_cell_formula_units_Z   2
loop_
 _symmetry_equiv_pos_site_id
 _symmetry_equiv_pos_as_xyz
  1  'x, y, z'
loop_
 _atom_site_type_symbol
 _atom_site_label
 _atom_site_symmetry_multiplicity
 _atom_site_fract_x
 _atom_site_fract_y
 _atom_site_fract_z
 _atom_site_occupancy
  Ga  Ga0  1  0.00025564  0.31342898  0.50086054  1
  Ga  Ga1  1  0.99974436  0.31342898  0.00086054  1
  Se  Se0  1  0.57521484  0.05511246  0.66470265  1
  Se  Se1  1  0.42478516  0.05511246  0.16470265  1
  I  I0  1  0.63212880  0.23334835  0.26973798  1
  I  I1  1  0.36787120  0.23334835  0.76973798  1
  Br  Br0  1  0.10650764  0.98533239  0.00000339  1
  Br  Br1  1  0.89349236  0.98533239  0.50000339  1
  Br  Br2  1  0.13375600  0.42698042  0.12552302  1
  Br  Br3  1  0.86624400  0.42698042  0.62552302  1
  Br  Br4  1  0.13300563  0.52159147  0.87311024  1
  Br  Br5  1  0.86699437  0.52159147  0.37311024  1
  Br  Br6  1  0.64996347  0.35399014  0.99971744  1
  Br  Br7  1  0.35003653  0.35399014  0.49971744  1
  Br  Br8  1  0.35938248  0.79578278  0.63970672  1
  Br  Br9  1  0.64061752  0.79578278  0.13970672  1
  Br  Br10  1  0.80182284  0.86718400  0.76350902  1
  Br  Br11  1  0.19817716  0.86718400  0.26350902  1
loop_
_geom_bond_atom_site_label_1
_geom_bond_atom_site_label_2
_geom_bond_distance
_geom_bond_site_symmetry_2
I0 Se1 2.569573 1_555
I1 Se0 2.569573 1_555
Br0 Ga1 2.320819 1_465
Br1 Ga0 2.320819 1_665
Br2 Ga1 2.356811 1_455
Br3 Ga0 2.356811 1_655
Br4 Ga1 2.379433 1_456
Br4 I1 3.126089 1_555
Br5 Ga0 2.379433 1_655
Br5 I0 3.126089 1_555
Br6 Ga1 2.332907 1_556
Br7 Ga0 2.332907 1_555
Br8 Se0 2.338513 1_565
Br9 Se1 2.338513 1_565
Br10 Se0 2.346337 1_565
Br11 Se1 2.346337 1_565
