# generated using pymatgen
data_Hf4Nb2Al16Ir7
_symmetry_space_group_name_H-M   'P 1'
_cell_length_a   8.60379112
_cell_length_b   8.62255681
_cell_length_c   8.62255798
_cell_angle_alpha   59.85605214
_cell_angle_beta   60.07197144
_cell_angle_gamma   60.07197321
_symmetry_Int_Tables_number   1
_chemical_formula_structural   Hf4Nb2Al16Ir7
_chemical_formula_sum   'Hf4 Nb2 Al16 Ir7'
_cell_volume   452.31702179
_cell_formula_units_Z   1
loop_
 _symmetry_equiv_pos_site_id
 _symmetry_equiv_pos_as_xyz
  1  'x, y, z'
loop_
 _atom_site_type_symbol
 _atom_site_label
 _atom_site_symmetry_multiplicity
 _atom_site_fract_x
 _atom_site_fract_y
 _atom_site_fract_z
 _atom_site_occupancy
  Hf  Hf0  1  0.30985668  0.69014332  0.30985668  1
  Hf  Hf1  1  0.69014332  0.30985668  0.69014332  1
  Hf  Hf2  1  0.30985668  0.30985668  0.69014332  1
  Hf  Hf3  1  0.69014332  0.69014332  0.30985668  1
  Nb  Nb0  1  0.66582609  0.33417391  0.33417391  1
  Nb  Nb1  1  0.33417391  0.66582609  0.66582609  1
  Al  Al0  1  0.33912319  0.33752845  0.33752845  1
  Al  Al1  1  0.66087681  0.66247155  0.66247155  1
  Al  Al2  1  0.33752845  0.33912319  0.98581890  1
  Al  Al3  1  0.33752845  0.98581890  0.33912319  1
  Al  Al4  1  0.66247155  0.66087681  0.01418110  1
  Al  Al5  1  0.66247155  0.01418110  0.66087681  1
  Al  Al6  1  0.98581890  0.33752845  0.33752845  1
  Al  Al7  1  0.01418110  0.66247155  0.66247155  1
  Al  Al8  1  0.11711935  0.12117510  0.12117510  1
  Al  Al9  1  0.88288065  0.87882490  0.87882490  1
  Al  Al10  1  0.12117510  0.11711935  0.64052846  1
  Al  Al11  1  0.12117510  0.64052846  0.11711935  1
  Al  Al12  1  0.87882490  0.88288065  0.35947154  1
  Al  Al13  1  0.87882490  0.35947154  0.88288065  1
  Al  Al14  1  0.64052846  0.12117510  0.12117510  1
  Al  Al15  1  0.35947154  0.87882490  0.87882490  1
  Ir  Ir0  1  0.50000000  0.00000000  0.00000000  1
  Ir  Ir1  1  0.00000000  0.50000000  0.50000000  1
  Ir  Ir2  1  0.00000000  0.50000000  0.00000000  1
  Ir  Ir3  1  0.50000000  0.00000000  0.50000000  1
  Ir  Ir4  1  0.00000000  0.00000000  0.50000000  1
  Ir  Ir5  1  0.50000000  0.50000000  0.00000000  1
  Ir  Ir6  1  0.00000000  0.00000000  0.00000000  1
loop_
_geom_bond_atom_site_label_1
_geom_bond_atom_site_label_2
_geom_bond_distance
_geom_bond_site_symmetry_2
Hf0 Nb0 3.075610 1_555
Hf0 Nb1 3.075611 1_555
Hf0 Ir0 3.127873 1_565
Hf0 Ir1 3.127873 1_555
Hf0 Ir4 3.140766 1_565
Hf0 Ir5 3.140766 1_555
Hf1 Nb1 3.075610 1_555
Hf1 Nb0 3.075611 1_555
Hf1 Ir0 3.127873 1_556
Hf1 Ir1 3.127873 1_655
Hf1 Ir4 3.140766 1_655
Hf1 Ir5 3.140766 1_556
Hf2 Nb1 3.075610 1_555
Hf2 Nb0 3.075611 1_555
Hf2 Ir0 3.127873 1_556
Hf2 Ir1 3.127873 1_555
Hf2 Ir3 3.140766 1_555
Hf2 Ir2 3.140766 1_556
Hf3 Nb0 3.075610 1_555
Hf3 Nb1 3.075611 1_555
Hf3 Ir0 3.127873 1_565
Hf3 Ir1 3.127873 1_655
Hf3 Ir3 3.140766 1_565
Hf3 Ir2 3.140766 1_655
Al0 Ir3 2.483744 1_555
Al0 Ir5 2.483744 1_555
Al0 Ir1 2.500448 1_555
Al0 Nb0 2.782324 1_555
Al0 Hf0 2.816387 1_555
Al0 Hf2 2.816388 1_555
Al1 Ir3 2.483744 1_565
Al1 Ir5 2.483744 1_556
Al1 Ir1 2.500448 1_655
Al1 Nb1 2.782324 1_555
Al1 Hf1 2.816387 1_555
Al1 Hf3 2.816388 1_555
Al2 Ir2 2.483742 1_556
Al2 Ir5 2.483749 1_556
Al2 Ir0 2.500445 1_556
Al2 Nb1 2.782319 1_555
Al2 Hf2 2.816379 1_555
Al2 Hf1 2.816384 1_555
Al3 Ir4 2.483742 1_565
Al3 Ir3 2.483750 1_565
Al3 Ir0 2.500446 1_565
Al3 Nb1 2.782319 1_555
Al3 Hf0 2.816379 1_555
Al3 Hf3 2.816384 1_555
Al4 Ir2 2.483742 1_655
Al4 Ir5 2.483749 1_555
Al4 Ir0 2.500445 1_565
Al4 Nb0 2.782319 1_555
Al4 Hf3 2.816379 1_555
Al4 Hf0 2.816384 1_555
Al5 Ir4 2.483742 1_655
Al5 Ir3 2.483750 1_555
Al5 Ir0 2.500446 1_556
Al5 Nb0 2.782319 1_555
Al5 Hf1 2.816379 1_555
Al5 Hf2 2.816384 1_555
Al6 Ir4 2.483742 1_655
Al6 Ir2 2.483742 1_655
Al6 Ir1 2.500453 1_655
Al6 Nb0 2.782315 1_555
Al6 Hf3 2.816384 1_555
Al6 Hf1 2.816384 1_555
Al7 Ir4 2.483742 1_565
Al7 Ir2 2.483742 1_556
Al7 Ir1 2.500453 1_555
Al7 Nb1 2.782315 1_555
Al7 Hf2 2.816384 1_555
Al7 Hf0 2.816384 1_555
Al8 Ir6 2.529098 1_555
Al8 Ir2 2.667433 1_555
Al8 Ir4 2.667434 1_555
Al8 Ir0 2.694967 1_555
Al8 Hf0 3.111143 1_545
Al8 Hf2 3.111143 1_554
Al8 Nb0 3.313451 1_455
Al9 Ir6 2.529098 1_666
Al9 Ir2 2.667433 1_656
Al9 Ir4 2.667434 1_665
Al9 Ir0 2.694967 1_566
Al9 Hf1 3.111143 1_565
Al9 Hf3 3.111143 1_556
Al9 Nb1 3.313451 1_655
Al10 Ir6 2.529112 1_556
Al10 Ir4 2.667419 1_555
Al10 Ir3 2.667433 1_555
Al10 Ir1 2.694966 1_555
Al10 Hf1 3.111140 1_455
Al10 Hf2 3.111155 1_555
Al10 Nb1 3.313447 1_545
Al11 Ir6 2.529112 1_565
Al11 Ir2 2.667419 1_555
Al11 Ir5 2.667433 1_555
Al11 Ir1 2.694966 1_555
Al11 Hf3 3.111140 1_455
Al11 Hf0 3.111155 1_555
Al11 Nb1 3.313447 1_554
Al12 Ir6 2.529112 1_665
Al12 Ir4 2.667419 1_665
Al12 Ir3 2.667433 1_565
Al12 Ir1 2.694966 1_655
Al12 Hf0 3.111140 1_655
Al12 Hf3 3.111155 1_555
Al12 Nb0 3.313447 1_565
Al13 Ir6 2.529112 1_656
Al13 Ir2 2.667419 1_656
Al13 Ir5 2.667433 1_556
Al13 Ir1 2.694966 1_655
Al13 Hf2 3.111140 1_655
Al13 Hf1 3.111155 1_555
Al13 Nb0 3.313447 1_556
Al14 Ir6 2.529112 1_655
Al14 Ir5 2.667433 1_555
Al14 Ir3 2.667433 1_555
Al14 Ir0 2.694952 1_555
Al14 Hf3 3.111140 1_545
Al14 Hf1 3.111140 1_554
Al14 Nb0 3.313462 1_555
Al15 Ir6 2.529112 1_566
Al15 Ir5 2.667433 1_556
Al15 Ir3 2.667433 1_565
Al15 Ir0 2.694952 1_566
Al15 Hf2 3.111140 1_565
Al15 Hf0 3.111140 1_556
Al15 Nb1 3.313462 1_555
Ir2 Nb1 3.211119 1_554
Ir2 Nb0 3.211119 1_455
Ir3 Nb0 3.211119 1_555
Ir3 Nb1 3.211119 1_545
Ir4 Nb1 3.211119 1_545
Ir4 Nb0 3.211119 1_455
Ir5 Nb0 3.211120 1_555
Ir5 Nb1 3.211120 1_554
