# generated using pymatgen
data_Y4Ru3PtF28
_symmetry_space_group_name_H-M   'P 1'
_cell_length_a   5.44805662
_cell_length_b   8.77206215
_cell_length_c   11.85369167
_cell_angle_alpha   62.77598834
_cell_angle_beta   90.09108758
_cell_angle_gamma   90.01206540
_symmetry_Int_Tables_number   1
_chemical_formula_structural   Y4Ru3PtF28
_chemical_formula_sum   'Y4 Ru3 Pt1 F28'
_cell_volume   503.74163915
_cell_formula_units_Z   1
loop_
 _symmetry_equiv_pos_site_id
 _symmetry_equiv_pos_as_xyz
  1  'x, y, z'
loop_
 _atom_site_type_symbol
 _atom_site_label
 _atom_site_symmetry_multiplicity
 _atom_site_fract_x
 _atom_site_fract_y
 _atom_site_fract_z
 _atom_site_occupancy
  Y  Y0  1  0.25897191  0.81155262  0.26618210  1
  Y  Y1  1  0.74195135  0.19059383  0.73149907  1
  Y  Y2  1  0.75849508  0.18686526  0.23447331  1
  Y  Y3  1  0.24021176  0.81219840  0.76719237  1
  Ru  Ru0  1  0.75439917  0.72737521  0.04334897  1
  Ru  Ru1  1  0.24566426  0.27191571  0.95668772  1
  Ru  Ru2  1  0.25512087  0.27286323  0.45553059  1
  Pt  Pt0  1  0.74321377  0.72926091  0.54311120  1
  F  F0  1  0.93481922  0.70199279  0.41520844  1
  F  F1  1  0.05939669  0.29430801  0.58416315  1
  F  F2  1  0.44524503  0.29371648  0.08420485  1
  F  F3  1  0.55554873  0.70557891  0.91552159  1
  F  F4  1  0.46301496  0.72893297  0.13653091  1
  F  F5  1  0.53575912  0.26933877  0.86449531  1
  F  F6  1  0.96381685  0.27683459  0.36113946  1
  F  F7  1  0.04220390  0.72849392  0.63331393  1
  F  F8  1  0.94938617  0.74765311  0.17373313  1
  F  F9  1  0.04988207  0.24945149  0.82764847  1
  F  F10  1  0.44760643  0.25470110  0.32403410  1
  F  F11  1  0.55697350  0.74936413  0.67559117  1
  F  F12  1  0.76567127  0.48629437  0.13940969  1
  F  F13  1  0.23528039  0.51421326  0.85768706  1
  F  F14  1  0.26787962  0.51579716  0.35988082  1
  F  F15  1  0.72872957  0.48145507  0.64294448  1
  F  F16  1  0.94901461  0.27926610  0.04500792  1
  F  F17  1  0.05269066  0.71871329  0.95540515  1
  F  F18  1  0.43808222  0.72062571  0.45984656  1
  F  F19  1  0.55484886  0.27765483  0.54270331  1
  F  F20  1  0.74470733  0.97782657  0.44929519  1
  F  F21  1  0.25827132  0.03160863  0.54958745  1
  F  F22  1  0.24085779  0.03035659  0.05176923  1
  F  F23  1  0.75819922  0.96780669  0.95008677  1
  F  F24  1  0.59206787  0.96423906  0.23257551  1
  F  F25  1  0.41063650  0.03258984  0.76905065  1
  F  F26  1  0.09150266  0.03113556  0.27050690  1
  F  F27  1  0.90987927  0.96742386  0.73063046  1
loop_
_geom_bond_atom_site_label_1
_geom_bond_atom_site_label_2
_geom_bond_distance
_geom_bond_site_symmetry_2
F0 Pt0 1.944854 1_555
F0 Y0 2.370412 1_655
F1 Ru2 1.940369 1_555
F1 Y1 2.328968 1_455
F2 Ru1 1.939793 1_554
F2 Y2 2.329656 1_555
F3 Ru0 1.940585 1_556
F3 Y3 2.324675 1_555
F4 Ru0 1.938994 1_555
F4 Y0 2.268863 1_555
F5 Ru1 1.928914 1_555
F5 Y1 2.286197 1_555
F6 Ru2 1.931457 1_655
F6 Y2 2.281885 1_555
F7 Pt0 1.945394 1_455
F7 Y3 2.298179 1_555
F8 Ru0 1.948084 1_555
F8 Y0 2.217116 1_655
F9 Ru1 1.945942 1_555
F9 Y1 2.216283 1_455
F10 Ru2 1.946068 1_555
F10 Y2 2.221269 1_555
F11 Pt0 1.945561 1_555
F11 Y3 2.239396 1_555
F12 Ru0 1.889244 1_555
F12 Y2 2.337191 1_555
F13 Ru1 1.901480 1_555
F13 Y3 2.327810 1_555
F14 Ru2 1.902937 1_555
F14 Y0 2.308733 1_555
F15 Pt0 1.943842 1_555
F15 Y1 2.272962 1_555
F16 Ru1 1.944061 1_654
F16 Y2 2.262692 1_555
F17 Ru0 1.952276 1_456
F17 Y3 2.242008 1_555
F18 Pt0 1.951029 1_555
F18 Y0 2.275138 1_555
F19 Ru2 1.941735 1_555
F19 Y1 2.249435 1_555
F20 Pt0 1.942301 1_555
F20 Y2 2.362360 1_565
F21 Ru2 1.887648 1_555
F21 Y3 2.413697 1_545
F22 Ru1 1.891030 1_554
F22 Y0 2.385233 1_545
F23 Ru0 1.880842 1_556
F23 Y1 2.430454 1_565
F24 Y2 2.162357 1_565
F24 Y0 2.181502 1_555
F25 Y3 2.153673 1_545
F25 Y1 2.194156 1_555
F26 Y0 2.153261 1_545
F26 Y2 2.191983 1_455
F27 Y1 2.165358 1_565
F27 Y3 2.177004 1_655
