# generated using pymatgen
data_Ca5CuAgIr
_symmetry_space_group_name_H-M   'P 1'
_cell_length_a   9.10884492
_cell_length_b   9.10884404
_cell_length_c   9.10884528
_cell_angle_alpha   129.88802844
_cell_angle_beta   130.04476355
_cell_angle_gamma   73.46056492
_symmetry_Int_Tables_number   1
_chemical_formula_structural   Ca5CuAgIr
_chemical_formula_sum   'Ca10 Cu2 Ag2 Ir2'
_cell_volume   433.28432198
_cell_formula_units_Z   2
loop_
 _symmetry_equiv_pos_site_id
 _symmetry_equiv_pos_as_xyz
  1  'x, y, z'
loop_
 _atom_site_type_symbol
 _atom_site_label
 _atom_site_symmetry_multiplicity
 _atom_site_fract_x
 _atom_site_fract_y
 _atom_site_fract_z
 _atom_site_occupancy
  Ca  Ca0  1  0.46278699  0.95435978  0.14809756  1
  Ca  Ca1  1  0.19373878  0.68531157  0.14809756  1
  Ca  Ca2  1  0.53500039  0.02498417  0.83384656  1
  Ca  Ca3  1  0.03500039  0.20115482  0.51001621  1
  Ca  Ca4  1  0.69373878  0.54564022  0.50842721  1
  Ca  Ca5  1  0.96278699  0.81468843  0.50842721  1
  Ca  Ca6  1  0.99650012  0.99216785  0.98866797  1
  Ca  Ca7  1  0.49650012  0.50783215  0.00433228  1
  Ca  Ca8  1  0.80886239  0.29884518  0.83384656  1
  Ca  Ca9  1  0.30886239  0.47501583  0.51001621  1
  Cu  Cu0  1  0.38466312  0.11471833  0.49938145  1
  Cu  Cu1  1  0.88466312  0.38528167  0.26994679  1
  Ag  Ag0  1  0.75438659  0.75000000  0.00438659  1
  Ag  Ag1  1  0.25438659  0.25000000  0.00438659  1
  Ir  Ir0  1  0.11406163  0.61409043  0.72815005  1
  Ir  Ir1  1  0.61406163  0.88590957  0.49997120  1
loop_
_geom_bond_atom_site_label_1
_geom_bond_atom_site_label_2
_geom_bond_distance
_geom_bond_site_symmetry_2
Ca0 Ir1 2.991901 1_555
Ca0 Ir0 3.015433 1_554
Ca0 Cu0 3.036815 1_565
Ca1 Ir1 2.991891 1_555
Ca1 Ir0 3.015443 1_554
Ca1 Cu0 3.036805 1_565
Ca2 Ir1 2.954646 1_545
Ca2 Cu0 3.002210 1_555
Ca2 Cu1 3.105655 1_556
Ca3 Ir0 2.954643 1_555
Ca3 Cu1 3.002187 1_455
Ca3 Cu0 3.105656 1_555
Ca4 Ir0 2.991898 1_655
Ca4 Ir1 3.015434 1_555
Ca4 Cu1 3.036793 1_555
Ca5 Ir0 2.991879 1_655
Ca5 Ir1 3.015434 1_555
Ca5 Cu1 3.036811 1_555
Ca6 Ir0 3.053946 1_655
Ca6 Ir1 3.054065 1_555
Ca6 Cu0 3.132134 1_666
Ca6 Cu1 3.152638 1_566
Ca7 Ir1 3.053941 1_555
Ca7 Ir0 3.054070 1_554
Ca7 Cu1 3.132138 1_555
Ca7 Cu0 3.152633 1_554
Ca8 Ir1 2.954639 1_545
Ca8 Cu0 3.002207 1_555
Ca8 Cu1 3.105670 1_556
Ca9 Ir0 2.954632 1_555
Ca9 Cu1 3.002215 1_455
Ca9 Cu0 3.105656 1_555
Cu0 Ir1 2.496092 1_545
Cu1 Ir0 2.496071 1_655
Ag0 Ca0 3.281380 1_555
Ag0 Ca4 3.281385 1_554
Ag0 Ca2 3.290386 1_564
Ag0 Ca9 3.290386 1_554
Ag0 Ca5 3.313956 1_555
Ag0 Ca1 3.313958 1_655
Ag0 Ca3 3.345216 1_665
Ag0 Ca8 3.345219 1_554
Ag0 Ca7 3.651190 1_555
Ag0 Ca6 3.651190 1_554
Ag1 Ca5 3.281385 1_444
Ag1 Ca1 3.281387 1_555
Ag1 Ca8 3.290386 1_454
Ag1 Ca3 3.290392 1_554
Ag1 Ca0 3.313951 1_545
Ag1 Ca4 3.313956 1_555
Ag1 Ca2 3.345211 1_554
Ag1 Ca9 3.345211 1_555
Ag1 Ca6 3.651190 1_444
Ag1 Ca7 3.651190 1_555
