# generated using pymatgen
data_Zr9Pt11
_symmetry_space_group_name_H-M   'P 1'
_cell_length_a   8.17528265
_cell_length_b   8.17528265
_cell_length_c   8.17528265
_cell_angle_alpha   100.13868810
_cell_angle_beta   100.13868810
_cell_angle_gamma   130.38624699
_symmetry_Int_Tables_number   1
_chemical_formula_structural   Zr9Pt11
_chemical_formula_sum   'Zr9 Pt11'
_cell_volume   377.78446911
_cell_formula_units_Z   1
loop_
 _symmetry_equiv_pos_site_id
 _symmetry_equiv_pos_as_xyz
  1  'x, y, z'
loop_
 _atom_site_type_symbol
 _atom_site_label
 _atom_site_symmetry_multiplicity
 _atom_site_fract_x
 _atom_site_fract_y
 _atom_site_fract_z
 _atom_site_occupancy
  Zr  Zr0  1  0.41791400  0.24679200  0.66470600  1
  Zr  Zr1  1  0.75320800  0.41791300  0.17112100  1
  Zr  Zr2  1  0.24679200  0.58208600  0.82887900  1
  Zr  Zr3  1  0.58208600  0.75320800  0.33529400  1
  Zr  Zr4  1  0.09541600  0.30732100  0.40273800  1
  Zr  Zr5  1  0.69267900  0.09541600  0.78809500  1
  Zr  Zr6  1  0.30732100  0.90458400  0.21190500  1
  Zr  Zr7  1  0.90458400  0.69267900  0.59726200  1
  Zr  Zr8  1  0.00000000  0.00000000  0.00000000  1
  Pt  Pt0  1  0.90485700  0.56303000  0.88703500  1
  Pt  Pt1  1  0.56303000  0.67599500  0.65817300  1
  Pt  Pt2  1  0.67599500  0.01782200  0.11296500  1
  Pt  Pt3  1  0.01782200  0.90485700  0.34182700  1
  Pt  Pt4  1  0.43697000  0.32400500  0.34182700  1
  Pt  Pt5  1  0.09514300  0.43697000  0.11296500  1
  Pt  Pt6  1  0.32400500  0.98217800  0.88703500  1
  Pt  Pt7  1  0.98217800  0.09514300  0.65817300  1
  Pt  Pt8  1  0.75000000  0.25000000  0.50000000  1
  Pt  Pt9  1  0.25000000  0.75000000  0.50000000  1
  Pt  Pt10  1  0.50000000  0.50000000  0.00000000  1
loop_
_geom_bond_atom_site_label_1
_geom_bond_atom_site_label_2
_geom_bond_distance
_geom_bond_site_symmetry_2
Pt0 Zr7 2.760558 1_555
Pt0 Zr2 2.827420 1_655
Pt0 Zr6 2.843131 1_656
Pt0 Zr5 2.846348 1_555
Pt0 Zr0 2.880330 1_555
Pt0 Zr1 2.901068 1_556
Pt0 Zr8 3.033878 1_666
Pt1 Zr5 2.760551 1_565
Pt1 Zr3 2.827423 1_555
Pt1 Zr7 2.843134 1_555
Pt1 Zr4 2.846346 1_555
Pt1 Zr2 2.880335 1_555
Pt1 Zr0 2.901073 1_555
Pt1 Zr8 3.033878 1_666
Pt2 Zr4 2.760555 1_655
Pt2 Zr1 2.827416 1_555
Pt2 Zr5 2.843131 1_554
Pt2 Zr6 2.846348 1_545
Pt2 Zr3 2.880330 1_545
Pt2 Zr2 2.901070 1_544
Pt2 Zr8 3.033878 1_655
Pt3 Zr6 2.760551 1_555
Pt3 Zr0 2.827423 1_565
Pt3 Zr4 2.843131 1_565
Pt3 Zr7 2.846341 1_455
Pt3 Zr1 2.880337 1_455
Pt3 Zr3 2.901073 1_455
Pt3 Zr8 3.033878 1_565
Pt4 Zr6 2.760551 1_545
Pt4 Zr0 2.827423 1_555
Pt4 Zr4 2.843134 1_555
Pt4 Zr7 2.846346 1_555
Pt4 Zr1 2.880337 1_555
Pt4 Zr3 2.901073 1_555
Pt4 Zr8 3.033878 1_555
Pt5 Zr4 2.760558 1_555
Pt5 Zr1 2.827416 1_455
Pt5 Zr5 2.843131 1_454
Pt5 Zr6 2.846348 1_555
Pt5 Zr3 2.880330 1_555
Pt5 Zr2 2.901066 1_554
Pt5 Zr8 3.033878 1_555
Pt6 Zr7 2.760555 1_455
Pt6 Zr2 2.827424 1_555
Pt6 Zr6 2.843131 1_556
Pt6 Zr5 2.846348 1_565
Pt6 Zr0 2.880330 1_565
Pt6 Zr1 2.901068 1_566
Pt6 Zr8 3.033878 1_566
Pt7 Zr5 2.760551 1_555
Pt7 Zr3 2.827423 1_545
Pt7 Zr7 2.843131 1_545
Pt7 Zr4 2.846341 1_655
Pt7 Zr2 2.880331 1_655
Pt7 Zr0 2.901073 1_655
Pt7 Zr8 3.033878 1_656
Pt8 Zr4 2.834250 1_655
Pt8 Zr5 2.834254 1_555
Pt8 Zr6 2.834254 1_545
Pt8 Zr7 2.834254 1_555
Pt8 Zr0 3.223608 1_555
Pt8 Zr3 3.223608 1_545
Pt8 Zr1 3.223611 1_555
Pt8 Zr2 3.223612 1_655
Pt9 Zr7 2.834250 1_455
Pt9 Zr5 2.834254 1_565
Pt9 Zr6 2.834254 1_555
Pt9 Zr4 2.834254 1_555
Pt9 Zr0 3.223608 1_565
Pt9 Zr3 3.223608 1_555
Pt9 Zr1 3.223611 1_455
Pt9 Zr2 3.223616 1_555
Pt10 Zr2 2.793508 1_554
Pt10 Zr3 2.793511 1_555
Pt10 Zr0 2.793511 1_554
Pt10 Zr1 2.793514 1_555
Pt10 Zr8 3.430030 1_665
Pt10 Zr8 3.430030 1_555
