# generated using pymatgen
data_Nb6Si7(NiRu)8
_symmetry_space_group_name_H-M   'P 1'
_cell_length_a   8.14542303
_cell_length_b   8.14542393
_cell_length_c   8.14542308
_cell_angle_alpha   59.99999945
_cell_angle_beta   59.99999579
_cell_angle_gamma   60.00000315
_symmetry_Int_Tables_number   1
_chemical_formula_structural   Nb6Si7(NiRu)8
_chemical_formula_sum   'Nb6 Si7 Ni8 Ru8'
_cell_volume   382.14306263
_cell_formula_units_Z   1
loop_
 _symmetry_equiv_pos_site_id
 _symmetry_equiv_pos_as_xyz
  1  'x, y, z'
loop_
 _atom_site_type_symbol
 _atom_site_label
 _atom_site_symmetry_multiplicity
 _atom_site_fract_x
 _atom_site_fract_y
 _atom_site_fract_z
 _atom_site_occupancy
  Nb  Nb0  1  0.70434720  0.70434720  0.29565280  1
  Nb  Nb1  1  0.29565280  0.70434720  0.29565280  1
  Nb  Nb2  1  0.70434720  0.29565280  0.29565280  1
  Nb  Nb3  1  0.29565280  0.29565280  0.70434720  1
  Nb  Nb4  1  0.70434720  0.29565280  0.70434720  1
  Nb  Nb5  1  0.29565280  0.70434720  0.70434720  1
  Si  Si0  1  0.00000000  0.00000000  0.00000000  1
  Si  Si1  1  0.00000000  0.00000000  0.50000000  1
  Si  Si2  1  0.50000000  0.00000000  0.50000000  1
  Si  Si3  1  0.00000000  0.50000000  0.50000000  1
  Si  Si4  1  0.50000000  0.50000000  0.00000000  1
  Si  Si5  1  0.00000000  0.50000000  0.00000000  1
  Si  Si6  1  0.50000000  0.00000000  0.00000000  1
  Ni  Ni0  1  0.66321432  0.66321432  0.01035804  1
  Ni  Ni1  1  0.66321432  0.01035804  0.66321432  1
  Ni  Ni2  1  0.01035804  0.66321432  0.66321432  1
  Ni  Ni3  1  0.66321432  0.66321432  0.66321432  1
  Ni  Ni4  1  0.33678568  0.33678568  0.98964196  1
  Ni  Ni5  1  0.33678568  0.98964196  0.33678568  1
  Ni  Ni6  1  0.98964196  0.33678568  0.33678568  1
  Ni  Ni7  1  0.33678568  0.33678568  0.33678568  1
  Ru  Ru0  1  0.87882839  0.87882839  0.36351282  1
  Ru  Ru1  1  0.87882839  0.36351282  0.87882839  1
  Ru  Ru2  1  0.36351282  0.87882839  0.87882839  1
  Ru  Ru3  1  0.87882839  0.87882839  0.87882839  1
  Ru  Ru4  1  0.12117161  0.12117161  0.63648718  1
  Ru  Ru5  1  0.12117161  0.63648718  0.12117161  1
  Ru  Ru6  1  0.63648718  0.12117161  0.12117161  1
  Ru  Ru7  1  0.12117161  0.12117161  0.12117161  1
loop_
_geom_bond_atom_site_label_1
_geom_bond_atom_site_label_2
_geom_bond_distance
_geom_bond_site_symmetry_2
Nb0 Ni0 2.700780 1_555
Nb0 Ni5 2.700785 1_555
Nb0 Ni6 2.700785 1_555
Nb0 Ni3 2.700788 1_555
Nb0 Ru0 2.817147 1_555
Nb0 Ru3 2.817158 1_554
Nb0 Ru5 2.817160 1_655
Nb0 Ru6 2.817161 1_565
Nb0 Si5 2.927465 1_655
Nb0 Si3 2.927465 1_655
Nb0 Si6 2.927465 1_565
Nb0 Si2 2.927465 1_565
Nb1 Ni5 2.700780 1_555
Nb1 Ni2 2.700785 1_555
Nb1 Ni0 2.700785 1_555
Nb1 Ni7 2.700788 1_555
Nb1 Ru5 2.817147 1_555
Nb1 Ru7 2.817158 1_565
Nb1 Ru2 2.817160 1_554
Nb1 Ru0 2.817160 1_455
Nb1 Si3 2.927465 1_555
Nb1 Si6 2.927465 1_565
Nb1 Si4 2.927465 1_555
Nb1 Si1 2.927465 1_565
Nb2 Ni6 2.700780 1_555
Nb2 Ni1 2.700785 1_555
Nb2 Ni0 2.700785 1_555
Nb2 Ni7 2.700788 1_555
Nb2 Ru6 2.817147 1_555
Nb2 Ru7 2.817158 1_655
Nb2 Ru1 2.817160 1_554
Nb2 Ru0 2.817161 1_545
Nb2 Si5 2.927465 1_655
Nb2 Si2 2.927465 1_555
Nb2 Si4 2.927465 1_555
Nb2 Si1 2.927465 1_655
Nb3 Ni4 2.700780 1_555
Nb3 Ni1 2.700785 1_555
Nb3 Ni2 2.700785 1_555
Nb3 Ni7 2.700788 1_555
Nb3 Ru4 2.817147 1_555
Nb3 Ru7 2.817158 1_556
Nb3 Ru1 2.817160 1_455
Nb3 Ru2 2.817161 1_545
Nb3 Si5 2.927465 1_556
Nb3 Si3 2.927465 1_555
Nb3 Si6 2.927465 1_556
Nb3 Si2 2.927465 1_555
Nb4 Ni1 2.700780 1_555
Nb4 Ni6 2.700785 1_555
Nb4 Ni4 2.700785 1_555
Nb4 Ni3 2.700788 1_555
Nb4 Ru1 2.817147 1_555
Nb4 Ru3 2.817158 1_545
Nb4 Ru6 2.817160 1_556
Nb4 Ru4 2.817160 1_655
Nb4 Si3 2.927465 1_655
Nb4 Si6 2.927465 1_556
Nb4 Si4 2.927465 1_556
Nb4 Si1 2.927465 1_655
Nb5 Ni2 2.700780 1_555
Nb5 Ni5 2.700785 1_555
Nb5 Ni4 2.700785 1_555
Nb5 Ni3 2.700788 1_555
Nb5 Ru2 2.817147 1_555
Nb5 Ru3 2.817158 1_455
Nb5 Ru5 2.817160 1_556
Nb5 Ru4 2.817161 1_565
Nb5 Si5 2.927465 1_556
Nb5 Si2 2.927465 1_565
Nb5 Si4 2.927465 1_556
Nb5 Si1 2.927465 1_565
Ni0 Si5 2.352388 1_655
Ni0 Si6 2.352388 1_565
Ni0 Si4 2.352395 1_555
Ni0 Ru3 2.576441 1_554
Ni0 Ru2 2.576461 1_554
Ni0 Ru1 2.576461 1_554
Ni1 Si1 2.352388 1_655
Ni1 Si6 2.352388 1_556
Ni1 Si2 2.352395 1_555
Ni1 Ru3 2.576441 1_545
Ni1 Ru2 2.576460 1_545
Ni1 Ru0 2.576460 1_545
Ni2 Si5 2.352388 1_556
Ni2 Si1 2.352388 1_565
Ni2 Si3 2.352395 1_555
Ni2 Ru3 2.576441 1_455
Ni2 Ru0 2.576461 1_455
Ni2 Ru1 2.576461 1_455
Ni3 Si4 2.352390 1_556
Ni3 Si3 2.352390 1_655
Ni3 Si2 2.352390 1_565
Ni3 Ru0 2.576447 1_555
Ni3 Ru2 2.576447 1_555
Ni3 Ru1 2.576447 1_555
Ni4 Si5 2.352388 1_556
Ni4 Si6 2.352388 1_556
Ni4 Si4 2.352395 1_556
Ni4 Ru7 2.576441 1_556
Ni4 Ru6 2.576461 1_556
Ni4 Ru5 2.576461 1_556
Ni5 Si1 2.352388 1_565
Ni5 Si6 2.352388 1_565
Ni5 Si2 2.352395 1_565
Ni5 Ru7 2.576441 1_565
Ni5 Ru6 2.576460 1_565
Ni5 Ru4 2.576460 1_565
Ni6 Si5 2.352388 1_655
Ni6 Si1 2.352388 1_655
Ni6 Si3 2.352395 1_655
Ni6 Ru7 2.576441 1_655
Ni6 Ru4 2.576461 1_655
Ni6 Ru5 2.576461 1_655
Ni7 Si4 2.352390 1_555
Ni7 Si3 2.352390 1_555
Ni7 Si2 2.352390 1_555
Ni7 Ru4 2.576447 1_555
Ni7 Ru6 2.576447 1_555
Ni7 Ru5 2.576447 1_555
Ru0 Si0 2.417618 1_665
Ru0 Si2 2.520507 1_565
Ru0 Si3 2.520508 1_655
Ru0 Si1 2.520521 1_665
Ru1 Si0 2.417619 1_656
Ru1 Si3 2.520507 1_655
Ru1 Si4 2.520507 1_556
Ru1 Si5 2.520521 1_656
Ru2 Si0 2.417618 1_566
Ru2 Si2 2.520507 1_565
Ru2 Si4 2.520508 1_556
Ru2 Si6 2.520521 1_566
Ru3 Si0 2.417632 1_666
Ru3 Si1 2.520507 1_665
Ru3 Si6 2.520507 1_566
Ru3 Si5 2.520507 1_656
Ru4 Si0 2.417618 1_556
Ru4 Si2 2.520507 1_555
Ru4 Si3 2.520508 1_555
Ru4 Si1 2.520521 1_555
Ru5 Si0 2.417619 1_565
Ru5 Si3 2.520507 1_555
Ru5 Si4 2.520507 1_555
Ru5 Si5 2.520521 1_555
Ru6 Si0 2.417618 1_655
Ru6 Si2 2.520507 1_555
Ru6 Si4 2.520508 1_555
Ru6 Si6 2.520521 1_555
Ru7 Si0 2.417632 1_555
Ru7 Si1 2.520507 1_555
Ru7 Si6 2.520507 1_555
Ru7 Si5 2.520507 1_555
