# generated using pymatgen
data_Sr2GaAg2Sn
_symmetry_space_group_name_H-M   'P 1'
_cell_length_a   6.15829897
_cell_length_b   6.20039807
_cell_length_c   6.20039795
_cell_angle_alpha   134.34374901
_cell_angle_beta   102.48326208
_cell_angle_gamma   94.98769351
_symmetry_Int_Tables_number   1
_chemical_formula_structural   Sr2GaAg2Sn
_chemical_formula_sum   'Sr2 Ga1 Ag2 Sn1'
_cell_volume   155.41332371
_cell_formula_units_Z   1
loop_
 _symmetry_equiv_pos_site_id
 _symmetry_equiv_pos_as_xyz
  1  'x, y, z'
loop_
 _atom_site_type_symbol
 _atom_site_label
 _atom_site_symmetry_multiplicity
 _atom_site_fract_x
 _atom_site_fract_y
 _atom_site_fract_z
 _atom_site_occupancy
  Sr  Sr0  1  0.69382885  0.69602030  0.99780854  1
  Sr  Sr1  1  0.11241097  0.61338054  0.49903044  1
  Ga  Ga0  1  0.29524839  0.98587082  0.30937757  1
  Ag  Ag0  1  0.51998072  0.30576662  0.21421410  1
  Ag  Ag1  1  0.11806416  0.32686292  0.79120124  1
  Sn  Sn0  1  0.67588591  0.98751779  0.68836812  1
loop_
_geom_bond_atom_site_label_1
_geom_bond_atom_site_label_2
_geom_bond_distance
_geom_bond_site_symmetry_2
Ga0 Sn0 2.932200 1_555
Ga0 Sr0 3.309147 1_554
Ga0 Sr0 3.309148 1_565
Ga0 Sr0 3.402269 1_454
Ga0 Sr1 3.449873 1_555
Ga0 Sr1 3.567529 1_565
Ga0 Sr1 3.567529 1_554
Ag0 Ga0 2.776599 1_545
Ag0 Sn0 2.852193 1_544
Ag0 Sn0 2.852193 1_555
Ag0 Ag1 3.279036 1_554
Ag0 Sr1 3.331120 1_555
Ag0 Sr1 3.331121 1_544
Ag0 Sr1 3.370932 1_655
Ag0 Sr0 3.387242 1_544
Ag0 Sr0 3.387243 1_555
Ag0 Sr0 3.675739 1_554
Ag1 Ga0 2.750725 1_545
Ag1 Ga0 2.750726 1_556
Ag1 Sn0 2.937087 1_445
Ag1 Sr1 3.304767 1_555
Ag1 Sr1 3.405353 1_556
Ag1 Sr1 3.405353 1_545
Ag1 Sr0 3.461006 1_555
Ag1 Sr0 3.477560 1_455
Ag1 Sr0 3.477561 1_444
Sn0 Sr0 3.321629 1_554
Sn0 Sr0 3.321629 1_565
Sn0 Sr0 3.427958 1_555
Sn0 Sr1 3.439912 1_555
Sn0 Sr1 3.553592 1_655
Sn0 Sr1 3.553593 1_666
