# generated using pymatgen
data_Rb3Ru2Cl9
_symmetry_space_group_name_H-M   'P 1'
_cell_length_a   7.07879666
_cell_length_b   7.07879702
_cell_length_c   17.25181192
_cell_angle_alpha   90.00000000
_cell_angle_beta   90.00000000
_cell_angle_gamma   119.99999831
_symmetry_Int_Tables_number   1
_chemical_formula_structural   Rb3Ru2Cl9
_chemical_formula_sum   'Rb6 Ru4 Cl18'
_cell_volume   748.65934606
_cell_formula_units_Z   2
loop_
 _symmetry_equiv_pos_site_id
 _symmetry_equiv_pos_as_xyz
  1  'x, y, z'
loop_
 _atom_site_type_symbol
 _atom_site_label
 _atom_site_symmetry_multiplicity
 _atom_site_fract_x
 _atom_site_fract_y
 _atom_site_fract_z
 _atom_site_occupancy
  Rb  Rb0  1  0.33333300  0.66666700  0.06956283  1
  Rb  Rb1  1  0.00000000  0.00000000  0.25000000  1
  Rb  Rb2  1  0.33333300  0.66666700  0.43043717  1
  Rb  Rb3  1  0.00000000  0.00000000  0.75000000  1
  Rb  Rb4  1  0.66666700  0.33333300  0.56956283  1
  Rb  Rb5  1  0.66666700  0.33333300  0.93043717  1
  Ru  Ru0  1  0.33333300  0.66666700  0.67355330  1
  Ru  Ru1  1  0.33333300  0.66666700  0.82644670  1
  Ru  Ru2  1  0.66666700  0.33333300  0.17355330  1
  Ru  Ru3  1  0.66666700  0.33333300  0.32644670  1
  Cl  Cl0  1  0.49647687  0.50352313  0.75000000  1
  Cl  Cl1  1  0.99295373  0.49647687  0.25000000  1
  Cl  Cl2  1  0.50352313  0.49647687  0.25000000  1
  Cl  Cl3  1  0.64504494  0.82252297  0.59492447  1
  Cl  Cl4  1  0.82252297  0.64504494  0.40507553  1
  Cl  Cl5  1  0.50352313  0.00704627  0.25000000  1
  Cl  Cl6  1  0.17747703  0.82252297  0.59492447  1
  Cl  Cl7  1  0.17747703  0.82252297  0.90507553  1
  Cl  Cl8  1  0.82252297  0.17747703  0.09492447  1
  Cl  Cl9  1  0.17747703  0.35495506  0.90507553  1
  Cl  Cl10  1  0.35495506  0.17747703  0.09492447  1
  Cl  Cl11  1  0.82252297  0.64504494  0.09492447  1
  Cl  Cl12  1  0.17747703  0.35495506  0.59492447  1
  Cl  Cl13  1  0.49647687  0.99295373  0.75000000  1
  Cl  Cl14  1  0.00704627  0.50352313  0.75000000  1
  Cl  Cl15  1  0.35495506  0.17747703  0.40507553  1
  Cl  Cl16  1  0.64504494  0.82252297  0.90507553  1
  Cl  Cl17  1  0.82252297  0.17747703  0.40507553  1
loop_
_geom_bond_atom_site_label_1
_geom_bond_atom_site_label_2
_geom_bond_distance
_geom_bond_site_symmetry_2
Cl0 Ru1 2.395928 1_555
Cl0 Ru0 2.395928 1_555
Cl0 Rb3 3.539662 1_665
Cl0 Rb3 3.539662 1_555
Cl0 Rb5 3.747553 1_555
Cl0 Rb4 3.747553 1_555
Cl1 Ru3 2.395923 1_555
Cl1 Ru2 2.395923 1_555
Cl1 Rb1 3.539662 1_655
Cl1 Rb1 3.539662 1_665
Cl1 Rb2 3.747550 1_655
Cl1 Rb0 3.747550 1_655
Cl2 Ru3 2.395928 1_555
Cl2 Ru2 2.395928 1_555
Cl2 Rb1 3.539662 1_555
Cl2 Rb1 3.539662 1_665
Cl2 Rb2 3.747553 1_555
Cl2 Rb0 3.747553 1_555
Cl3 Ru0 2.343437 1_555
Cl3 Rb2 3.421140 1_555
Cl3 Rb3 3.448549 1_665
Cl3 Rb4 3.568795 1_565
Cl3 Rb4 3.568809 1_555
Cl4 Ru3 2.343437 1_555
Cl4 Rb4 3.421140 1_555
Cl4 Rb1 3.448549 1_665
Cl4 Rb2 3.568795 1_655
Cl4 Rb2 3.568809 1_555
Cl5 Ru3 2.395923 1_555
Cl5 Ru2 2.395923 1_555
Cl5 Rb1 3.539662 1_555
Cl5 Rb1 3.539662 1_655
Cl5 Rb2 3.747550 1_545
Cl5 Rb0 3.747550 1_545
Cl6 Ru0 2.343437 1_555
Cl6 Rb2 3.421140 1_555
Cl6 Rb3 3.448545 1_565
Cl6 Rb4 3.568802 1_455
Cl6 Rb4 3.568802 1_565
Cl7 Ru1 2.343437 1_555
Cl7 Rb0 3.421140 1_556
Cl7 Rb3 3.448545 1_565
Cl7 Rb5 3.568802 1_455
Cl7 Rb5 3.568802 1_565
Cl8 Ru2 2.343437 1_555
Cl8 Rb5 3.421140 1_554
Cl8 Rb1 3.448545 1_655
Cl8 Rb0 3.568802 1_655
Cl8 Rb0 3.568802 1_545
Cl9 Ru1 2.343437 1_555
Cl9 Rb0 3.421140 1_556
Cl9 Rb3 3.448549 1_555
Cl9 Rb5 3.568795 1_455
Cl9 Rb5 3.568809 1_555
Cl10 Ru2 2.343437 1_555
Cl10 Rb5 3.421140 1_554
Cl10 Rb1 3.448549 1_555
Cl10 Rb0 3.568795 1_545
Cl10 Rb0 3.568809 1_555
Cl11 Ru2 2.343437 1_555
Cl11 Rb5 3.421140 1_554
Cl11 Rb1 3.448549 1_665
Cl11 Rb0 3.568795 1_655
Cl11 Rb0 3.568809 1_555
Cl12 Ru0 2.343437 1_555
Cl12 Rb2 3.421140 1_555
Cl12 Rb3 3.448549 1_555
Cl12 Rb4 3.568795 1_455
Cl12 Rb4 3.568809 1_555
Cl13 Ru1 2.395923 1_555
Cl13 Ru0 2.395923 1_555
Cl13 Rb3 3.539662 1_665
Cl13 Rb3 3.539662 1_565
Cl13 Rb5 3.747550 1_565
Cl13 Rb4 3.747550 1_565
Cl14 Ru1 2.395923 1_555
Cl14 Ru0 2.395923 1_555
Cl14 Rb3 3.539662 1_565
Cl14 Rb3 3.539662 1_555
Cl14 Rb5 3.747550 1_455
Cl14 Rb4 3.747550 1_455
Cl15 Ru3 2.343437 1_555
Cl15 Rb4 3.421140 1_555
Cl15 Rb1 3.448549 1_555
Cl15 Rb2 3.568795 1_545
Cl15 Rb2 3.568809 1_555
Cl16 Ru1 2.343437 1_555
Cl16 Rb0 3.421140 1_556
Cl16 Rb3 3.448549 1_665
Cl16 Rb5 3.568795 1_565
Cl16 Rb5 3.568809 1_555
Cl17 Ru3 2.343437 1_555
Cl17 Rb4 3.421140 1_555
Cl17 Rb1 3.448545 1_655
Cl17 Rb2 3.568802 1_655
Cl17 Rb2 3.568802 1_545
