# generated using pymatgen
data_Zr10Be2SnBi5
_symmetry_space_group_name_H-M   'P 1'
_cell_length_a   8.71983073
_cell_length_b   8.70208379
_cell_length_c   5.87022969
_cell_angle_alpha   90.00000000
_cell_angle_beta   90.00000000
_cell_angle_gamma   119.93269973
_symmetry_Int_Tables_number   1
_chemical_formula_structural   Zr10Be2SnBi5
_chemical_formula_sum   'Zr10 Be2 Sn1 Bi5'
_cell_volume   386.02120682
_cell_formula_units_Z   1
loop_
 _symmetry_equiv_pos_site_id
 _symmetry_equiv_pos_as_xyz
  1  'x, y, z'
loop_
 _atom_site_type_symbol
 _atom_site_label
 _atom_site_symmetry_multiplicity
 _atom_site_fract_x
 _atom_site_fract_y
 _atom_site_fract_z
 _atom_site_occupancy
  Zr  Zr0  1  0.66886967  0.33351374  0.00226932  1
  Zr  Zr1  1  0.33113033  0.66464407  0.00226932  1
  Zr  Zr2  1  0.33113033  0.66464407  0.49773068  1
  Zr  Zr3  1  0.66886967  0.33351374  0.49773068  1
  Zr  Zr4  1  0.75598653  0.75468898  0.75000000  1
  Zr  Zr5  1  0.24401347  0.99870045  0.75000000  1
  Zr  Zr6  1  0.00000000  0.24558868  0.75000000  1
  Zr  Zr7  1  0.24690467  0.25234798  0.25000000  1
  Zr  Zr8  1  0.75309533  0.00544331  0.25000000  1
  Zr  Zr9  1  1.00000000  0.74740067  0.25000000  1
  Be  Be0  1  1.00000000  0.99997199  0.00806054  1
  Be  Be1  1  1.00000000  0.99997199  0.49193946  1
  Sn  Sn0  1  0.00000000  0.39079079  0.25000000  1
  Bi  Bi0  1  0.39223305  0.39132731  0.75000000  1
  Bi  Bi1  1  0.60776695  0.99909427  0.75000000  1
  Bi  Bi2  1  0.00000000  0.60498925  0.75000000  1
  Bi  Bi3  1  0.61185182  0.61261077  0.25000000  1
  Bi  Bi4  1  0.38814818  0.00075895  0.25000000  1
loop_
_geom_bond_atom_site_label_1
_geom_bond_atom_site_label_2
_geom_bond_distance
_geom_bond_site_symmetry_2
Zr0 Zr3 2.908472 1_555
Zr0 Zr3 2.961758 1_554
Zr1 Zr2 2.908472 1_555
Zr1 Zr2 2.961758 1_554
Be0 Zr7 2.599406 1_665
Be0 Zr8 2.599406 1_565
Be0 Zr4 2.616443 1_554
Be0 Zr5 2.616450 1_654
Be0 Zr9 2.616836 1_555
Be0 Zr6 2.619776 1_664
Be1 Zr7 2.599406 1_665
Be1 Zr8 2.599406 1_565
Be1 Zr4 2.616443 1_555
Be1 Zr5 2.616450 1_655
Be1 Zr9 2.616836 1_555
Be1 Zr6 2.619776 1_665
Sn0 Zr8 2.945362 1_455
Sn0 Zr7 2.945362 1_555
Sn0 Zr2 3.043695 1_555
Sn0 Zr1 3.043695 1_555
Sn0 Zr3 3.043695 1_455
Sn0 Zr0 3.043695 1_455
Sn0 Zr9 3.103249 1_455
Sn0 Zr6 3.195542 1_554
Sn0 Zr6 3.195542 1_555
Bi0 Zr5 2.989512 1_545
Bi0 Zr6 2.996237 1_555
Bi0 Zr1 3.065689 1_556
Bi0 Zr2 3.065689 1_555
Bi0 Zr0 3.078320 1_556
Bi0 Zr3 3.078320 1_555
Bi0 Zr4 3.170169 1_555
Bi0 Zr7 3.186530 1_555
Bi0 Zr7 3.186530 1_556
Bi1 Zr4 2.989496 1_555
Bi1 Zr6 2.996237 1_665
Bi1 Zr0 3.065689 1_566
Bi1 Zr3 3.065689 1_565
Bi1 Zr1 3.078320 1_556
Bi1 Zr2 3.078320 1_555
Bi1 Zr5 3.170160 1_555
Bi1 Zr8 3.186530 1_565
Bi1 Zr8 3.186530 1_566
Bi2 Zr5 2.998412 1_555
Bi2 Zr4 2.998426 1_455
Bi2 Zr0 3.050198 1_456
Bi2 Zr3 3.050198 1_455
Bi2 Zr1 3.050198 1_556
Bi2 Zr2 3.050198 1_555
Bi2 Zr6 3.127534 1_555
Bi2 Zr9 3.186017 1_455
Bi2 Zr9 3.186017 1_456
Bi3 Zr9 2.978148 1_555
Bi3 Zr8 3.000182 1_565
Bi3 Zr2 3.068858 1_555
Bi3 Zr1 3.068858 1_555
Bi3 Zr3 3.076650 1_555
Bi3 Zr0 3.076650 1_555
Bi3 Zr7 3.162134 1_555
Bi3 Zr4 3.189419 1_555
Bi3 Zr4 3.189419 1_554
Bi4 Zr9 2.978148 1_445
Bi4 Zr7 3.000182 1_555
Bi4 Zr3 3.068858 1_555
Bi4 Zr0 3.068858 1_555
Bi4 Zr2 3.076650 1_545
Bi4 Zr1 3.076650 1_545
Bi4 Zr8 3.162134 1_555
Bi4 Zr5 3.189416 1_544
Bi4 Zr5 3.189416 1_545
