# generated using pymatgen
data_K2NaScP2
_symmetry_space_group_name_H-M   'P 1'
_cell_length_a   8.75291081
_cell_length_b   8.75291089
_cell_length_c   8.75291094
_cell_angle_alpha   135.31131748
_cell_angle_beta   134.56988866
_cell_angle_gamma   65.62436033
_symmetry_Int_Tables_number   1
_chemical_formula_structural   K2NaScP2
_chemical_formula_sum   'K4 Na2 Sc2 P4'
_cell_volume   330.95170528
_cell_formula_units_Z   2
loop_
 _symmetry_equiv_pos_site_id
 _symmetry_equiv_pos_as_xyz
  1  'x, y, z'
loop_
 _atom_site_type_symbol
 _atom_site_label
 _atom_site_symmetry_multiplicity
 _atom_site_fract_x
 _atom_site_fract_y
 _atom_site_fract_z
 _atom_site_occupancy
  K  K0  1  0.54381061  0.31870283  0.22510678  1
  K  K1  1  0.45618939  0.68129717  0.77489322  1
  K  K2  1  0.90640395  0.18129717  0.72510678  1
  K  K3  1  0.09359605  0.81870283  0.27489322  1
  Na  Na0  1  0.50000000  0.25000000  0.75000000  1
  Na  Na1  1  0.50000000  0.75000000  0.25000000  1
  Sc  Sc0  1  0.00000000  0.75000000  0.75000000  1
  Sc  Sc1  1  0.00000000  0.25000000  0.25000000  1
  P  P0  1  0.88223086  0.59406392  0.28816694  1
  P  P1  1  0.30589698  0.09406392  0.21183306  1
  P  P2  1  0.69410302  0.90593608  0.78816694  1
  P  P3  1  0.11776914  0.40593608  0.71183306  1
loop_
_geom_bond_atom_site_label_1
_geom_bond_atom_site_label_2
_geom_bond_distance
_geom_bond_site_symmetry_2
K0 P1 3.306291 1_555
K0 P3 3.531653 1_655
K0 P2 3.591922 1_544
K0 P2 3.591928 1_555
K0 P3 3.699421 1_554
K1 P2 3.306291 1_555
K1 P0 3.531653 1_455
K1 P1 3.591922 1_566
K1 P1 3.591928 1_555
K1 P0 3.699421 1_556
K2 P3 3.306284 1_655
K2 P1 3.531658 1_656
K2 P0 3.591928 1_556
K2 P0 3.591928 1_545
K2 P1 3.699420 1_555
K3 P0 3.306284 1_455
K3 P2 3.531658 1_454
K3 P3 3.591928 1_554
K3 P3 3.591928 1_565
K3 P2 3.699420 1_555
Na0 P3 2.911720 1_555
Na0 P2 2.911720 1_545
Na0 P1 2.911720 1_555
Na0 P0 2.911720 1_556
Na1 P0 2.911720 1_555
Na1 P1 2.911720 1_565
Na1 P2 2.911720 1_555
Na1 P3 2.911720 1_554
P0 Sc1 2.595006 1_655
P0 Sc0 2.595006 1_655
P1 Sc1 2.595006 1_555
P1 Sc0 2.595006 1_544
P2 Sc0 2.595006 1_655
P2 Sc1 2.595006 1_666
P3 Sc0 2.595006 1_555
P3 Sc1 2.595006 1_555
