# generated using pymatgen
data_Y20Cd6FeNi
_symmetry_space_group_name_H-M   'P 1'
_cell_length_a   9.67977712
_cell_length_b   9.67977795
_cell_length_c   9.75103961
_cell_angle_alpha   90.00000000
_cell_angle_beta   90.00000000
_cell_angle_gamma   119.99999714
_symmetry_Int_Tables_number   1
_chemical_formula_structural   Y20Cd6FeNi
_chemical_formula_sum   'Y20 Cd6 Fe1 Ni1'
_cell_volume   791.24743853
_cell_formula_units_Z   1
loop_
 _symmetry_equiv_pos_site_id
 _symmetry_equiv_pos_as_xyz
  1  'x, y, z'
loop_
 _atom_site_type_symbol
 _atom_site_label
 _atom_site_symmetry_multiplicity
 _atom_site_fract_x
 _atom_site_fract_y
 _atom_site_fract_z
 _atom_site_occupancy
  Y  Y0  1  0.00000000  0.00000000  0.49979007  1
  Y  Y1  1  0.00000000  0.00000000  0.00020993  1
  Y  Y2  1  0.54106992  0.45893008  0.25000000  1
  Y  Y3  1  0.54106992  0.08213985  0.25000000  1
  Y  Y4  1  0.91786015  0.45893008  0.25000000  1
  Y  Y5  1  0.45625423  0.54374577  0.75000000  1
  Y  Y6  1  0.45625423  0.91250845  0.75000000  1
  Y  Y7  1  0.08749155  0.54374577  0.75000000  1
  Y  Y8  1  0.21033076  0.78966924  0.43621701  1
  Y  Y9  1  0.21033076  0.42066351  0.43621701  1
  Y  Y10  1  0.57933649  0.78966924  0.43621701  1
  Y  Y11  1  0.78976670  0.21023330  0.56489685  1
  Y  Y12  1  0.78976670  0.57953239  0.56489685  1
  Y  Y13  1  0.42046761  0.21023330  0.56489685  1
  Y  Y14  1  0.78976670  0.21023330  0.93510315  1
  Y  Y15  1  0.78976670  0.57953239  0.93510315  1
  Y  Y16  1  0.42046761  0.21023330  0.93510315  1
  Y  Y17  1  0.21033076  0.78966924  0.06378299  1
  Y  Y18  1  0.21033076  0.42066351  0.06378299  1
  Y  Y19  1  0.57933649  0.78966924  0.06378299  1
  Cd  Cd0  1  0.88522821  0.11477179  0.25000000  1
  Cd  Cd1  1  0.88522821  0.77045641  0.25000000  1
  Cd  Cd2  1  0.22954359  0.11477179  0.25000000  1
  Cd  Cd3  1  0.11492192  0.88507808  0.75000000  1
  Cd  Cd4  1  0.11492192  0.22984384  0.75000000  1
  Cd  Cd5  1  0.77015616  0.88507808  0.75000000  1
  Fe  Fe0  1  0.33333300  0.66666700  0.25000000  1
  Ni  Ni0  1  0.66666700  0.33333300  0.75000000  1
loop_
_geom_bond_atom_site_label_1
_geom_bond_atom_site_label_2
_geom_bond_distance
_geom_bond_site_symmetry_2
Cd0 Y0 3.104099 1_655
Cd0 Y1 3.104099 1_655
Cd0 Y3 3.185209 1_555
Cd0 Y4 3.185209 1_555
Cd0 Cd2 3.332896 1_655
Cd0 Cd1 3.332896 1_545
Cd0 Y14 3.462657 1_554
Cd0 Y11 3.462657 1_555
Cd0 Y18 3.556636 1_655
Cd0 Y9 3.556636 1_655
Cd0 Y19 3.556636 1_545
Cd0 Y10 3.556636 1_545
Cd1 Y0 3.104099 1_665
Cd1 Y1 3.104099 1_665
Cd1 Y2 3.185209 1_555
Cd1 Y4 3.185209 1_555
Cd1 Cd2 3.332896 1_665
Cd1 Y15 3.462661 1_554
Cd1 Y12 3.462661 1_555
Cd1 Y17 3.556629 1_655
Cd1 Y8 3.556629 1_655
Cd1 Y19 3.556645 1_555
Cd1 Y10 3.556645 1_555
Cd2 Y0 3.104099 1_555
Cd2 Y1 3.104099 1_555
Cd2 Y3 3.185209 1_555
Cd2 Y2 3.185209 1_555
Cd2 Y16 3.462661 1_554
Cd2 Y13 3.462661 1_555
Cd2 Y8 3.556629 1_545
Cd2 Y17 3.556629 1_545
Cd2 Y18 3.556645 1_555
Cd2 Y9 3.556645 1_555
Cd3 Y1 3.108872 1_566
Cd3 Y0 3.108872 1_565
Cd3 Y6 3.179586 1_555
Cd3 Y7 3.179587 1_555
Cd3 Cd5 3.337256 1_455
Cd3 Cd4 3.337256 1_565
Cd3 Y8 3.452620 1_555
Cd3 Y17 3.452620 1_556
Cd3 Y12 3.550036 1_455
Cd3 Y15 3.550036 1_455
Cd3 Y13 3.550036 1_565
Cd3 Y16 3.550036 1_565
Cd4 Y1 3.108872 1_556
Cd4 Y0 3.108872 1_555
Cd4 Y7 3.179587 1_555
Cd4 Y5 3.179587 1_555
Cd4 Cd5 3.337256 1_445
Cd4 Y9 3.452628 1_555
Cd4 Y18 3.452628 1_556
Cd4 Y11 3.550032 1_455
Cd4 Y14 3.550032 1_455
Cd4 Y13 3.550040 1_555
Cd4 Y16 3.550040 1_555
Cd5 Y1 3.108872 1_666
Cd5 Y0 3.108872 1_665
Cd5 Y6 3.179586 1_555
Cd5 Y5 3.179587 1_555
Cd5 Y10 3.452628 1_555
Cd5 Y19 3.452628 1_556
Cd5 Y11 3.550032 1_565
Cd5 Y14 3.550032 1_565
Cd5 Y12 3.550040 1_555
Cd5 Y15 3.550040 1_555
Fe0 Y19 2.747719 1_555
Fe0 Y10 2.747719 1_555
Fe0 Y18 2.747719 1_555
Fe0 Y9 2.747719 1_555
Fe0 Y17 2.747725 1_555
Fe0 Y8 2.747725 1_555
Ni0 Y13 2.741790 1_555
Ni0 Y16 2.741790 1_555
Ni0 Y11 2.741790 1_555
Ni0 Y14 2.741790 1_555
Ni0 Y12 2.741790 1_555
Ni0 Y15 2.741790 1_555
