# generated using pymatgen
data_Li8In3SiPd4
_symmetry_space_group_name_H-M   'P 1'
_cell_length_a   6.24750365
_cell_length_b   6.24750365
_cell_length_c   6.24750365
_cell_angle_alpha   90.00000000
_cell_angle_beta   90.00000000
_cell_angle_gamma   90.00000000
_symmetry_Int_Tables_number   1
_chemical_formula_structural   Li8In3SiPd4
_chemical_formula_sum   'Li8 In3 Si1 Pd4'
_cell_volume   243.84820096
_cell_formula_units_Z   1
loop_
 _symmetry_equiv_pos_site_id
 _symmetry_equiv_pos_as_xyz
  1  'x, y, z'
loop_
 _atom_site_type_symbol
 _atom_site_label
 _atom_site_symmetry_multiplicity
 _atom_site_fract_x
 _atom_site_fract_y
 _atom_site_fract_z
 _atom_site_occupancy
  Li  Li0  1  0.26423386  0.73576614  0.26423386  1
  Li  Li1  1  0.73576614  0.26423386  0.26423386  1
  Li  Li2  1  0.26423386  0.26423386  0.73576614  1
  Li  Li3  1  0.00000000  0.00000000  0.00000000  1
  Li  Li4  1  0.00000000  0.50000000  0.50000000  1
  Li  Li5  1  0.73576614  0.73576614  0.73576614  1
  Li  Li6  1  0.50000000  0.00000000  0.50000000  1
  Li  Li7  1  0.50000000  0.50000000  0.00000000  1
  In  In0  1  0.00000000  0.00000000  0.50000000  1
  In  In1  1  0.00000000  0.50000000  0.00000000  1
  In  In2  1  0.50000000  0.00000000  0.00000000  1
  Si  Si0  1  0.50000000  0.50000000  0.50000000  1
  Pd  Pd0  1  0.27180966  0.27180966  0.27180966  1
  Pd  Pd1  1  0.72819034  0.27180966  0.72819034  1
  Pd  Pd2  1  0.72819034  0.72819034  0.27180966  1
  Pd  Pd3  1  0.27180966  0.72819034  0.72819034  1
loop_
_geom_bond_atom_site_label_1
_geom_bond_atom_site_label_2
_geom_bond_distance
_geom_bond_site_symmetry_2
Li0 Si0 2.551224 1_555
Li0 Li3 2.859273 1_565
Li0 Pd0 2.899342 1_555
Li0 Pd3 2.899342 1_555
Li0 Pd2 2.899342 1_555
Li1 Si0 2.551224 1_555
Li1 Li3 2.859273 1_655
Li1 Pd0 2.899342 1_555
Li1 Pd1 2.899342 1_555
Li1 Pd2 2.899342 1_555
Li2 Si0 2.551224 1_555
Li2 Li3 2.859273 1_556
Li2 Pd0 2.899342 1_555
Li2 Pd3 2.899342 1_555
Li2 Pd1 2.899342 1_555
Li3 Li5 2.859273 1_444
Li3 Pd0 2.941251 1_555
Li3 Pd3 2.941251 1_544
Li3 Pd2 2.941251 1_445
Li3 Pd1 2.941251 1_454
Li4 Pd3 2.635989 1_555
Li4 Pd0 2.635989 1_555
Li4 Pd1 2.635989 1_455
Li4 Pd2 2.635989 1_455
Li5 Si0 2.551224 1_555
Li5 Pd3 2.899342 1_555
Li5 Pd1 2.899342 1_555
Li5 Pd2 2.899342 1_555
Li6 Pd1 2.635989 1_555
Li6 Pd0 2.635989 1_555
Li6 Pd2 2.635989 1_545
Li6 Pd3 2.635989 1_545
Li7 Pd2 2.635989 1_555
Li7 Pd0 2.635989 1_555
Li7 Pd1 2.635989 1_554
Li7 Pd3 2.635989 1_554
In0 Li2 2.760412 1_555
In0 Li0 2.760412 1_545
In0 Li1 2.760412 1_455
In0 Li5 2.760412 1_445
In0 Pd0 2.792794 1_555
In0 Pd3 2.792794 1_545
In0 Pd1 2.792794 1_455
In0 Pd2 2.792794 1_445
In0 Li4 3.123752 1_555
In0 Li6 3.123752 1_455
In0 Li3 3.123752 1_556
In0 Li6 3.123752 1_555
In0 Li3 3.123752 1_555
In0 Li4 3.123752 1_545
In1 Li0 2.760412 1_555
In1 Li2 2.760412 1_554
In1 Li1 2.760412 1_455
In1 Li5 2.760412 1_454
In1 Pd0 2.792794 1_555
In1 Pd3 2.792794 1_554
In1 Pd2 2.792794 1_455
In1 Pd1 2.792794 1_454
In1 Li7 3.123752 1_455
In1 Li4 3.123752 1_554
In1 Li3 3.123752 1_555
In1 Li3 3.123752 1_565
In1 Li4 3.123752 1_555
In1 Li7 3.123752 1_555
In2 Li1 2.760412 1_555
In2 Li2 2.760412 1_554
In2 Li0 2.760412 1_545
In2 Li5 2.760412 1_544
In2 Pd0 2.792794 1_555
In2 Pd2 2.792794 1_545
In2 Pd1 2.792794 1_554
In2 Pd3 2.792794 1_544
In2 Li6 3.123752 1_554
In2 Li6 3.123752 1_555
In2 Li3 3.123752 1_555
In2 Li3 3.123752 1_655
In2 Li7 3.123752 1_555
In2 Li7 3.123752 1_545
Pd0 Si0 2.469246 1_555
Pd1 Si0 2.469246 1_555
Pd2 Si0 2.469246 1_555
Pd3 Si0 2.469246 1_555
