# generated using pymatgen
data_TiTcGeRh
_symmetry_space_group_name_H-M   'P 1'
_cell_length_a   4.30141634
_cell_length_b   4.30141634
_cell_length_c   4.30141627
_cell_angle_alpha   59.99999298
_cell_angle_beta   59.99999298
_cell_angle_gamma   60.00000404
_symmetry_Int_Tables_number   1
_chemical_formula_structural   TiTcGeRh
_chemical_formula_sum   'Ti1 Tc1 Ge1 Rh1'
_cell_volume   56.27550538
_cell_formula_units_Z   1
loop_
 _symmetry_equiv_pos_site_id
 _symmetry_equiv_pos_as_xyz
  1  'x, y, z'
loop_
 _atom_site_type_symbol
 _atom_site_label
 _atom_site_symmetry_multiplicity
 _atom_site_fract_x
 _atom_site_fract_y
 _atom_site_fract_z
 _atom_site_occupancy
  Ti  Ti0  1  0.75000000  0.75000000  0.75000000  1
  Tc  Tc0  1  0.00000000  0.00000000  0.00000000  1
  Ge  Ge0  1  0.25000000  0.25000000  0.25000000  1
  Rh  Rh0  1  0.50000000  0.50000000  0.50000000  1
loop_
_geom_bond_atom_site_label_1
_geom_bond_atom_site_label_2
_geom_bond_distance
_geom_bond_site_symmetry_2
Tc0 Ti0 2.634068 1_445
Tc0 Ti0 2.634069 1_544
Tc0 Ti0 2.634069 1_454
Tc0 Ti0 2.634069 1_444
Ge0 Rh0 2.634068 1_554
Ge0 Tc0 2.634068 1_556
Ge0 Rh0 2.634069 1_455
Ge0 Tc0 2.634069 1_655
Ge0 Tc0 2.634069 1_565
Ge0 Rh0 2.634069 1_545
Ge0 Rh0 2.634069 1_555
Ge0 Tc0 2.634069 1_555
Ge0 Ti0 3.041560 1_445
Ge0 Ti0 3.041560 1_554
Ge0 Ti0 3.041561 1_545
Ge0 Ti0 3.041561 1_455
Ge0 Ti0 3.041561 1_454
Ge0 Ti0 3.041561 1_544
Rh0 Ti0 2.634068 1_554
Rh0 Ti0 2.634069 1_455
Rh0 Ti0 2.634069 1_545
Rh0 Ti0 2.634069 1_555
