# generated using pymatgen
data_Hf6FeHgBr14
_symmetry_space_group_name_H-M   'P 1'
_cell_length_a   9.38064167
_cell_length_b   9.38064147
_cell_length_c   9.38064103
_cell_angle_alpha   111.46642205
_cell_angle_beta   111.46642060
_cell_angle_gamma   105.55054033
_symmetry_Int_Tables_number   1
_chemical_formula_structural   Hf6FeHgBr14
_chemical_formula_sum   'Hf6 Fe1 Hg1 Br14'
_cell_volume   633.22991535
_cell_formula_units_Z   1
loop_
 _symmetry_equiv_pos_site_id
 _symmetry_equiv_pos_as_xyz
  1  'x, y, z'
loop_
 _atom_site_type_symbol
 _atom_site_label
 _atom_site_symmetry_multiplicity
 _atom_site_fract_x
 _atom_site_fract_y
 _atom_site_fract_z
 _atom_site_occupancy
  Hf  Hf0  1  0.22945913  1.00000000  0.22945913  1
  Hf  Hf1  1  0.20767171  0.20767171  1.00000000  1
  Hf  Hf2  1  0.77054087  0.00000000  0.77054087  1
  Hf  Hf3  1  1.00000000  0.22945913  0.22945913  1
  Hf  Hf4  1  0.00000000  0.77054087  0.77054087  1
  Hf  Hf5  1  0.79232829  0.79232829  0.00000000  1
  Fe  Fe0  1  0.00000000  0.00000000  0.00000000  1
  Hg  Hg0  1  0.50000000  0.50000000  0.00000000  1
  Br  Br0  1  0.01174861  0.76257762  0.24917099  1
  Br  Br1  1  0.25252348  0.74747652  0.00000000  1
  Br  Br2  1  0.51340664  0.76257762  0.75082901  1
  Br  Br3  1  0.98825139  0.23742238  0.75082901  1
  Br  Br4  1  0.76257762  0.01174861  0.24917099  1
  Br  Br5  1  0.23742238  0.48659336  0.24917099  1
  Br  Br6  1  0.74747652  0.25252348  1.00000000  1
  Br  Br7  1  0.25252348  0.25252348  0.50504797  1
  Br  Br8  1  0.76257762  0.51340664  0.75082901  1
  Br  Br9  1  0.74747652  0.74747652  0.49495203  1
  Br  Br10  1  0.48659336  0.23742238  0.24917099  1
  Br  Br11  1  0.23742238  0.98825139  0.75082901  1
  Br  Br12  1  0.00000000  0.50000000  0.50000000  1
  Br  Br13  1  0.50000000  0.00000000  0.50000000  1
loop_
_geom_bond_atom_site_label_1
_geom_bond_atom_site_label_2
_geom_bond_distance
_geom_bond_site_symmetry_2
Hf1 Hg0 3.317781 1_556
Hf5 Hg0 3.317781 1_555
Fe0 Hf1 2.356971 1_554
Fe0 Hf5 2.356971 1_445
Fe0 Hf3 2.423888 1_455
Fe0 Hf4 2.423888 1_544
Fe0 Hf0 2.423888 1_545
Fe0 Hf2 2.423888 1_454
Br0 Hf5 2.653684 1_455
Br0 Hf0 2.702660 1_555
Br1 Hf0 2.678632 1_555
Br1 Hf4 2.678632 1_554
Br2 Hf5 2.653684 1_556
Br2 Hf2 2.702660 1_565
Br3 Hf1 2.653684 1_655
Br3 Hf2 2.702660 1_555
Br4 Hf5 2.653684 1_545
Br4 Hf3 2.702660 1_555
Br5 Hf1 2.653684 1_554
Br5 Hf3 2.702660 1_455
Br6 Hf2 2.678632 1_555
Br6 Hf3 2.678632 1_556
Br7 Hf0 2.678637 1_545
Br7 Hf3 2.678637 1_455
Br8 Hf5 2.653684 1_556
Br8 Hf4 2.702660 1_655
Br9 Hf2 2.678637 1_565
Br9 Hf4 2.678637 1_655
Br10 Hf1 2.653684 1_554
Br10 Hf0 2.702660 1_545
Br11 Hf1 2.653684 1_565
Br11 Hf4 2.702660 1_555
Br12 Hf4 2.857855 1_555
Br12 Hf3 2.857855 1_455
Br13 Hf2 2.857855 1_555
Br13 Hf0 2.857855 1_545
