# generated using pymatgen
data_Zn2Pd5PtO12
_symmetry_space_group_name_H-M   'P 1'
_cell_length_a   3.13118530
_cell_length_b   7.11599321
_cell_length_c   9.92204960
_cell_angle_alpha   89.97068414
_cell_angle_beta   90.00000000
_cell_angle_gamma   90.00000000
_symmetry_Int_Tables_number   1
_chemical_formula_structural   Zn2Pd5PtO12
_chemical_formula_sum   'Zn2 Pd5 Pt1 O12'
_cell_volume   221.07805291
_cell_formula_units_Z   1
loop_
 _symmetry_equiv_pos_site_id
 _symmetry_equiv_pos_as_xyz
  1  'x, y, z'
loop_
 _atom_site_type_symbol
 _atom_site_label
 _atom_site_symmetry_multiplicity
 _atom_site_fract_x
 _atom_site_fract_y
 _atom_site_fract_z
 _atom_site_occupancy
  Zn  Zn0  1  0.00000000  0.00339520  0.99823050  1
  Zn  Zn1  1  0.00000000  0.49656197  0.50182219  1
  Pd  Pd0  1  0.00000000  0.00084624  0.50097571  1
  Pd  Pd1  1  0.00000000  0.49914088  0.99899816  1
  Pd  Pd2  1  0.50000000  0.25009135  0.25000446  1
  Pd  Pd3  1  0.50000000  0.74994267  0.74999230  1
  Pd  Pd4  1  0.50000000  0.24992174  0.75005804  1
  Pt  Pt0  1  0.50000000  0.75005884  0.24991447  1
  O  O0  1  0.50000000  0.99952132  0.14908880  1
  O  O1  1  0.50000000  0.99983278  0.84999151  1
  O  O2  1  0.50000000  0.50000757  0.65002575  1
  O  O3  1  0.50000000  0.50064493  0.35090737  1
  O  O4  1  0.00000000  0.20862665  0.37292778  1
  O  O5  1  0.00000000  0.79227524  0.62750327  1
  O  O6  1  0.00000000  0.29017705  0.87304738  1
  O  O7  1  0.00000000  0.70968308  0.12710154  1
  O  O8  1  0.00000000  0.29155139  0.12715282  1
  O  O9  1  0.00000000  0.70759138  0.87241697  1
  O  O10  1  0.00000000  0.20966526  0.62704487  1
  O  O11  1  0.00000000  0.79046247  0.37279711  1
loop_
_geom_bond_atom_site_label_1
_geom_bond_atom_site_label_2
_geom_bond_distance
_geom_bond_site_symmetry_2
O0 Pt0 2.037208 1_555
O0 Pd2 2.045408 1_565
O0 Zn0 2.166167 1_564
O0 Zn0 2.166167 1_664
O1 Pd3 2.036741 1_555
O1 Pd4 2.036773 1_565
O1 Zn0 2.148282 1_565
O1 Zn0 2.148282 1_665
O2 Pd3 2.036863 1_555
O2 Pd4 2.037230 1_555
O2 Zn1 2.148031 1_555
O2 Zn1 2.148031 1_655
O3 Pt0 2.037722 1_555
O3 Pd2 2.045244 1_555
O3 Zn1 2.166573 1_555
O3 Zn1 2.166573 1_655
O4 Pd0 1.948947 1_555
O4 Pd2 2.006321 1_555
O4 Pd2 2.006321 1_455
O4 Zn1 2.415872 1_555
O5 Pd0 1.943444 1_565
O5 Pd3 2.004621 1_555
O5 Pd3 2.004621 1_455
O5 Zn1 2.446585 1_555
O6 Pd1 1.942872 1_555
O6 Pd4 2.005653 1_455
O6 Pd4 2.005653 1_555
O6 Zn0 2.388464 1_555
O7 Pd1 1.965239 1_554
O7 Pt0 2.004711 1_455
O7 Pt0 2.004711 1_555
O7 Zn0 2.449607 1_564
O8 Pd1 1.948607 1_554
O8 Pd2 2.005884 1_555
O8 Pd2 2.005884 1_455
O8 Zn0 2.417352 1_554
O9 Pd1 1.943133 1_555
O9 Pd3 2.004254 1_555
O9 Pd3 2.004254 1_455
O9 Zn0 2.447810 1_565
O10 Pd0 1.942840 1_555
O10 Pd4 2.005798 1_555
O10 Pd4 2.005798 1_455
O10 Zn1 2.389366 1_555
O11 Pd0 1.964863 1_565
O11 Pt0 2.005160 1_455
O11 Pt0 2.005160 1_555
O11 Zn1 2.451547 1_555
