# generated using pymatgen
data_Zr4Al3ReO
_symmetry_space_group_name_H-M   'P 1'
_cell_length_a   8.01842591
_cell_length_b   8.01842720
_cell_length_c   5.45200320
_cell_angle_alpha   90.00000000
_cell_angle_beta   90.00000000
_cell_angle_gamma   119.99999057
_symmetry_Int_Tables_number   1
_chemical_formula_structural   Zr4Al3ReO
_chemical_formula_sum   'Zr8 Al6 Re2 O2'
_cell_volume   303.57435844
_cell_formula_units_Z   2
loop_
 _symmetry_equiv_pos_site_id
 _symmetry_equiv_pos_as_xyz
  1  'x, y, z'
loop_
 _atom_site_type_symbol
 _atom_site_label
 _atom_site_symmetry_multiplicity
 _atom_site_fract_x
 _atom_site_fract_y
 _atom_site_fract_z
 _atom_site_occupancy
  Zr  Zr0  1  0.23428916  0.00000000  0.25127306  1
  Zr  Zr1  1  0.76571084  1.00000000  0.74872694  1
  Zr  Zr2  1  0.00000000  0.23428916  0.25127306  1
  Zr  Zr3  1  1.00000000  0.76571084  0.74872694  1
  Zr  Zr4  1  0.76571084  0.76571084  0.25127306  1
  Zr  Zr5  1  0.23428916  0.23428916  0.74872694  1
  Zr  Zr6  1  0.66666700  0.33333300  0.50000000  1
  Zr  Zr7  1  0.33333300  0.66666700  0.50000000  1
  Al  Al0  1  0.58668742  0.00000000  0.21888830  1
  Al  Al1  1  0.41331258  1.00000000  0.78111170  1
  Al  Al2  1  0.00000000  0.58668742  0.21888830  1
  Al  Al3  1  1.00000000  0.41331258  0.78111170  1
  Al  Al4  1  0.41331258  0.41331258  0.21888830  1
  Al  Al5  1  0.58668742  0.58668742  0.78111170  1
  Re  Re0  1  0.33333300  0.66666700  0.00000000  1
  Re  Re1  1  0.66666700  0.33333300  0.00000000  1
  O  O0  1  0.00000000  0.00000000  0.00000000  1
  O  O1  1  0.00000000  0.00000000  0.50000000  1
loop_
_geom_bond_atom_site_label_1
_geom_bond_atom_site_label_2
_geom_bond_distance
_geom_bond_site_symmetry_2
Al0 Re1 2.695409 1_555
Al0 Re0 2.695411 1_545
Al0 Al1 2.762111 1_544
Al0 Zr0 2.831190 1_555
Al0 Zr6 2.861818 1_555
Al0 Zr7 2.861821 1_545
Al0 Zr4 2.884059 1_545
Al0 Zr2 2.884059 1_655
Al0 Zr1 2.937896 1_544
Al0 Zr1 3.225694 1_545
Al1 Re0 2.695409 1_556
Al1 Re1 2.695411 1_566
Al1 Zr1 2.831190 1_555
Al1 Zr7 2.861818 1_555
Al1 Zr6 2.861821 1_565
Al1 Zr5 2.884059 1_565
Al1 Zr3 2.884059 1_455
Al1 Zr0 2.937896 1_566
Al1 Zr0 3.225694 1_565
Al2 Re0 2.695409 1_555
Al2 Re1 2.695411 1_455
Al2 Al3 2.762111 1_454
Al2 Zr2 2.831191 1_555
Al2 Zr7 2.861818 1_555
Al2 Zr6 2.861820 1_455
Al2 Zr4 2.884059 1_455
Al2 Zr0 2.884059 1_565
Al2 Zr3 2.937897 1_454
Al2 Zr3 3.225694 1_455
Al3 Re1 2.695409 1_556
Al3 Re0 2.695411 1_656
Al3 Zr3 2.831191 1_555
Al3 Zr6 2.861818 1_555
Al3 Zr7 2.861820 1_655
Al3 Zr5 2.884059 1_655
Al3 Zr1 2.884059 1_545
Al3 Zr2 2.937897 1_656
Al3 Zr2 3.225694 1_655
Al4 Re1 2.695416 1_555
Al4 Re0 2.695416 1_555
Al4 Al5 2.762111 1_554
Al4 Zr4 2.831191 1_555
Al4 Zr6 2.861825 1_555
Al4 Zr7 2.861825 1_555
Al4 Zr2 2.884059 1_555
Al4 Zr0 2.884059 1_555
Al4 Zr5 2.937897 1_554
Al4 Zr5 3.225694 1_555
Al5 Re0 2.695416 1_556
Al5 Re1 2.695416 1_556
Al5 Zr5 2.831191 1_555
Al5 Zr7 2.861825 1_555
Al5 Zr6 2.861825 1_555
Al5 Zr3 2.884059 1_555
Al5 Zr1 2.884059 1_555
Al5 Zr4 2.937897 1_556
Al5 Zr4 3.225694 1_555
Re0 Zr7 2.726002 1_555
Re0 Zr7 2.726002 1_554
Re1 Zr6 2.726002 1_555
Re1 Zr6 2.726002 1_554
O0 Zr0 2.325079 1_555
O0 Zr1 2.325079 1_444
O0 Zr2 2.325079 1_555
O0 Zr3 2.325079 1_444
O0 Zr5 2.325079 1_554
O0 Zr4 2.325079 1_445
O1 Zr1 2.316927 1_445
O1 Zr0 2.316927 1_555
O1 Zr2 2.316927 1_555
O1 Zr3 2.316927 1_445
O1 Zr5 2.316927 1_555
O1 Zr4 2.316927 1_445
