# generated using pymatgen
data_Cs4MnWBr12
_symmetry_space_group_name_H-M   'P 1'
_cell_length_a   7.62030590
_cell_length_b   7.64197821
_cell_length_c   10.84741809
_cell_angle_alpha   90.00000000
_cell_angle_beta   90.00000000
_cell_angle_gamma   90.00000000
_symmetry_Int_Tables_number   1
_chemical_formula_structural   Cs4MnWBr12
_chemical_formula_sum   'Cs4 Mn1 W1 Br12'
_cell_volume   631.69084061
_cell_formula_units_Z   1
loop_
 _symmetry_equiv_pos_site_id
 _symmetry_equiv_pos_as_xyz
  1  'x, y, z'
loop_
 _atom_site_type_symbol
 _atom_site_label
 _atom_site_symmetry_multiplicity
 _atom_site_fract_x
 _atom_site_fract_y
 _atom_site_fract_z
 _atom_site_occupancy
  Cs  Cs0  1  0.50000000  0.00000000  0.76370970  1
  Cs  Cs1  1  0.00000000  0.50000000  0.23613877  1
  Cs  Cs2  1  0.50000000  0.00000000  0.23629030  1
  Cs  Cs3  1  0.00000000  0.50000000  0.76386123  1
  Mn  Mn0  1  0.00000000  0.00000000  0.00000000  1
  W  W0  1  0.50000000  0.50000000  0.50000000  1
  Br  Br0  1  0.00000000  0.00000000  0.77249809  1
  Br  Br1  1  0.50000000  0.50000000  0.26715386  1
  Br  Br2  1  0.73367637  0.73492162  0.50000000  1
  Br  Br3  1  0.23553848  0.23515080  0.00000000  1
  Br  Br4  1  0.73367637  0.26507838  0.50000000  1
  Br  Br5  1  0.23553848  0.76484920  0.00000000  1
  Br  Br6  1  0.00000000  0.00000000  0.22750191  1
  Br  Br7  1  0.50000000  0.50000000  0.73284614  1
  Br  Br8  1  0.26632363  0.26507838  0.50000000  1
  Br  Br9  1  0.76446152  0.76484920  0.00000000  1
  Br  Br10  1  0.26632363  0.73492162  0.50000000  1
  Br  Br11  1  0.76446152  0.23515080  0.00000000  1
loop_
_geom_bond_atom_site_label_1
_geom_bond_atom_site_label_2
_geom_bond_distance
_geom_bond_site_symmetry_2
Br0 Mn0 2.467808 1_556
Br0 Cs0 3.811345 1_455
Br0 Cs0 3.811345 1_555
Br0 Cs3 3.822138 1_545
Br0 Cs3 3.822138 1_555
Br1 W0 2.525779 1_555
Br1 Cs1 3.824978 1_655
Br1 Cs1 3.824978 1_555
Br1 Cs2 3.835628 1_565
Br1 Cs2 3.835628 1_555
Br2 W0 2.528600 1_555
Br2 Cs0 3.931571 1_565
Br2 Cs2 3.931571 1_565
Br2 Cs3 3.941317 1_655
Br2 Cs1 3.941317 1_655
Br3 Mn0 2.539852 1_555
Br3 Cs2 3.722942 1_555
Br3 Cs0 3.722942 1_554
Br3 Cs1 3.725493 1_555
Br3 Cs3 3.725493 1_554
Br4 W0 2.528600 1_555
Br4 Cs0 3.931571 1_555
Br4 Cs2 3.931571 1_555
Br4 Cs3 3.941317 1_655
Br4 Cs1 3.941317 1_655
Br5 Mn0 2.539852 1_565
Br5 Cs2 3.722942 1_565
Br5 Cs0 3.722942 1_564
Br5 Cs1 3.725493 1_555
Br5 Cs3 3.725493 1_554
Br6 Mn0 2.467808 1_555
Br6 Cs2 3.811345 1_455
Br6 Cs2 3.811345 1_555
Br6 Cs1 3.822138 1_555
Br6 Cs1 3.822138 1_545
Br7 W0 2.525779 1_555
Br7 Cs3 3.824978 1_555
Br7 Cs3 3.824978 1_655
Br7 Cs0 3.835628 1_555
Br7 Cs0 3.835628 1_565
Br8 W0 2.528600 1_555
Br8 Cs0 3.931571 1_555
Br8 Cs2 3.931571 1_555
Br8 Cs3 3.941317 1_555
Br8 Cs1 3.941317 1_555
Br9 Mn0 2.539852 1_665
Br9 Cs2 3.722942 1_565
Br9 Cs0 3.722942 1_564
Br9 Cs1 3.725493 1_655
Br9 Cs3 3.725493 1_654
Br10 W0 2.528600 1_555
Br10 Cs0 3.931571 1_565
Br10 Cs2 3.931571 1_565
Br10 Cs3 3.941317 1_555
Br10 Cs1 3.941317 1_555
Br11 Mn0 2.539852 1_655
Br11 Cs2 3.722942 1_555
Br11 Cs0 3.722942 1_554
Br11 Cs1 3.725493 1_655
Br11 Cs3 3.725493 1_654
