# generated using pymatgen
data_Cd2Sb2Pb
_symmetry_space_group_name_H-M   'P 1'
_cell_length_a   4.73372706
_cell_length_b   4.73372655
_cell_length_c   7.67819048
_cell_angle_alpha   90.00000000
_cell_angle_beta   90.00000000
_cell_angle_gamma   119.99999026
_symmetry_Int_Tables_number   1
_chemical_formula_structural   Cd2Sb2Pb
_chemical_formula_sum   'Cd2 Sb2 Pb1'
_cell_volume   149.00331716
_cell_formula_units_Z   1
loop_
 _symmetry_equiv_pos_site_id
 _symmetry_equiv_pos_as_xyz
  1  'x, y, z'
loop_
 _atom_site_type_symbol
 _atom_site_label
 _atom_site_symmetry_multiplicity
 _atom_site_fract_x
 _atom_site_fract_y
 _atom_site_fract_z
 _atom_site_occupancy
  Cd  Cd0  1  0.66666700  0.33333300  0.37137201  1
  Cd  Cd1  1  0.33333300  0.66666700  0.62862799  1
  Sb  Sb0  1  0.66666700  0.33333300  0.76108763  1
  Sb  Sb1  1  0.33333300  0.66666700  0.23891237  1
  Pb  Pb0  1  0.00000000  0.00000000  0.00000000  1
loop_
_geom_bond_atom_site_label_1
_geom_bond_atom_site_label_2
_geom_bond_distance
_geom_bond_site_symmetry_2
Cd0 Sb1 2.916122 1_545
Cd0 Sb1 2.916122 1_655
Cd0 Sb1 2.916129 1_555
Cd0 Sb0 2.992311 1_555
Cd1 Sb0 2.916122 1_565
Cd1 Sb0 2.916122 1_455
Cd1 Sb0 2.916129 1_555
Cd1 Sb1 2.992311 1_555
Pb0 Sb1 3.291573 1_545
Pb0 Sb0 3.291573 1_454
Pb0 Sb1 3.291576 1_555
Pb0 Sb0 3.291576 1_444
Pb0 Sb1 3.291577 1_445
Pb0 Sb0 3.291577 1_554
