# generated using pymatgen
data_Hf3TiOs2O
_symmetry_space_group_name_H-M   'P 1'
_cell_length_a   8.53084964
_cell_length_b   8.53084956
_cell_length_c   8.53089245
_cell_angle_alpha   60.00031291
_cell_angle_beta   60.00031325
_cell_angle_gamma   60.00015350
_symmetry_Int_Tables_number   1
_chemical_formula_structural   Hf3TiOs2O
_chemical_formula_sum   'Hf12 Ti4 Os8 O4'
_cell_volume   439.00210097
_cell_formula_units_Z   4
loop_
 _symmetry_equiv_pos_site_id
 _symmetry_equiv_pos_as_xyz
  1  'x, y, z'
loop_
 _atom_site_type_symbol
 _atom_site_label
 _atom_site_symmetry_multiplicity
 _atom_site_fract_x
 _atom_site_fract_y
 _atom_site_fract_z
 _atom_site_occupancy
  Hf  Hf0  1  0.80851959  0.80851959  0.19150191  1
  Hf  Hf1  1  0.19147300  0.19147300  0.80852652  1
  Hf  Hf2  1  0.80851488  0.19149884  0.80851682  1
  Hf  Hf3  1  0.19146241  0.80852935  0.19147605  1
  Hf  Hf4  1  0.19149884  0.80851488  0.80851682  1
  Hf  Hf5  1  0.80852935  0.19146241  0.19147605  1
  Hf  Hf6  1  0.44148041  0.44148041  0.05849809  1
  Hf  Hf7  1  0.05852700  0.05852700  0.44147348  1
  Hf  Hf8  1  0.44148512  0.05850116  0.44148318  1
  Hf  Hf9  1  0.05853759  0.44147065  0.05852395  1
  Hf  Hf10  1  0.05850116  0.44148512  0.44148318  1
  Hf  Hf11  1  0.44147065  0.05853759  0.05852395  1
  Ti  Ti0  1  0.12500000  0.62500000  0.62500000  1
  Ti  Ti1  1  0.62500000  0.12500000  0.62500000  1
  Ti  Ti2  1  0.62500000  0.62500000  0.12500000  1
  Ti  Ti3  1  0.62500000  0.62500000  0.62500000  1
  Os  Os0  1  0.75370366  0.41545807  0.41550137  1
  Os  Os1  1  0.41545807  0.75370366  0.41550137  1
  Os  Os2  1  0.41547407  0.41547407  0.75369896  1
  Os  Os3  1  0.41541806  0.41541806  0.41546139  1
  Os  Os4  1  0.49629634  0.83454193  0.83449863  1
  Os  Os5  1  0.83454193  0.49629634  0.83449863  1
  Os  Os6  1  0.83452593  0.83452593  0.49630104  1
  Os  Os7  1  0.83458194  0.83458194  0.83453861  1
  O  O0  1  0.62500000  0.12500000  0.12500000  1
  O  O1  1  0.12500000  0.62500000  0.12500000  1
  O  O2  1  0.12500000  0.12500000  0.62500000  1
  O  O3  1  0.12500000  0.12500000  0.12500000  1
loop_
_geom_bond_atom_site_label_1
_geom_bond_atom_site_label_2
_geom_bond_distance
_geom_bond_site_symmetry_2
Hf0 O0 2.278546 1_565
Hf0 O1 2.278546 1_655
Hf0 Os6 2.839451 1_555
Hf0 Os7 2.840341 1_554
Hf0 Os0 3.062806 1_555
Hf0 Os1 3.062806 1_555
Hf1 O2 2.278508 1_555
Hf1 O3 2.278531 1_556
Hf1 Os4 2.840118 1_545
Hf1 Os5 2.840118 1_455
Hf1 Os3 3.062878 1_555
Hf1 Os2 3.063662 1_555
Hf2 O0 2.278569 1_556
Hf2 O2 2.278574 1_655
Hf2 Os5 2.839406 1_555
Hf2 Os7 2.840059 1_545
Hf2 Os0 3.062466 1_555
Hf2 Os2 3.062656 1_555
Hf3 O1 2.278480 1_555
Hf3 O3 2.278507 1_565
Hf3 Os6 2.840162 1_455
Hf3 Os4 2.840399 1_554
Hf3 Os3 3.063220 1_555
Hf3 Os1 3.063814 1_555
Hf4 O1 2.278569 1_556
Hf4 O2 2.278574 1_565
Hf4 Os4 2.839406 1_555
Hf4 Os7 2.840059 1_455
Hf4 Os1 3.062466 1_555
Hf4 Os2 3.062656 1_555
Hf5 O0 2.278480 1_555
Hf5 O3 2.278507 1_655
Hf5 Os6 2.840162 1_545
Hf5 Os5 2.840399 1_554
Hf5 Os3 3.063220 1_555
Hf5 Os0 3.063814 1_555
Hf6 O0 2.278546 1_555
Hf6 O1 2.278546 1_555
Hf6 Os2 2.839451 1_554
Hf6 Os3 2.840341 1_555
Hf6 Os4 3.062806 1_554
Hf6 Os5 3.062806 1_554
Hf7 O2 2.278508 1_555
Hf7 O3 2.278531 1_555
Hf7 Os0 2.840118 1_455
Hf7 Os1 2.840118 1_545
Hf7 Os7 3.062878 1_445
Hf7 Os6 3.063662 1_445
Hf8 O0 2.278569 1_555
Hf8 O2 2.278574 1_555
Hf8 Os1 2.839406 1_545
Hf8 Os3 2.840059 1_555
Hf8 Os4 3.062466 1_545
Hf8 Os6 3.062656 1_545
Hf9 O1 2.278480 1_555
Hf9 O3 2.278507 1_555
Hf9 Os2 2.840162 1_554
Hf9 Os0 2.840399 1_455
Hf9 Os7 3.063220 1_454
Hf9 Os5 3.063814 1_454
Hf10 O1 2.278569 1_555
Hf10 O2 2.278574 1_555
Hf10 Os0 2.839406 1_455
Hf10 Os3 2.840059 1_555
Hf10 Os5 3.062466 1_455
Hf10 Os6 3.062656 1_455
Hf11 O0 2.278480 1_555
Hf11 O3 2.278507 1_555
Hf11 Os2 2.840162 1_554
Hf11 Os1 2.840399 1_545
Hf11 Os7 3.063220 1_544
Hf11 Os4 3.063814 1_544
Os0 Ti3 2.620086 1_555
Os0 Ti1 2.620930 1_555
Os0 Ti2 2.621236 1_555
Os1 Ti3 2.620086 1_555
Os1 Ti0 2.620930 1_555
Os1 Ti2 2.621236 1_555
Os2 Ti3 2.620171 1_555
Os2 Ti1 2.621015 1_555
Os2 Ti0 2.621015 1_555
Os3 Ti1 2.620649 1_555
Os3 Ti0 2.620649 1_555
Os3 Ti2 2.620955 1_555
Os4 Ti3 2.620086 1_555
Os4 Ti1 2.620930 1_565
Os4 Ti2 2.621236 1_556
Os5 Ti3 2.620086 1_555
Os5 Ti0 2.620930 1_655
Os5 Ti2 2.621236 1_556
Os6 Ti3 2.620171 1_555
Os6 Ti1 2.621015 1_565
Os6 Ti0 2.621015 1_655
Os7 Ti1 2.620649 1_565
Os7 Ti0 2.620649 1_655
Os7 Ti2 2.620955 1_556
