# generated using pymatgen
data_CsBaNbS4
_symmetry_space_group_name_H-M   'P 1'
_cell_length_a   7.20519005
_cell_length_b   9.64409813
_cell_length_c   12.63203366
_cell_angle_alpha   90.00000000
_cell_angle_beta   90.00000000
_cell_angle_gamma   90.00000000
_symmetry_Int_Tables_number   1
_chemical_formula_structural   CsBaNbS4
_chemical_formula_sum   'Cs4 Ba4 Nb4 S16'
_cell_volume   877.76919494
_cell_formula_units_Z   4
loop_
 _symmetry_equiv_pos_site_id
 _symmetry_equiv_pos_as_xyz
  1  'x, y, z'
loop_
 _atom_site_type_symbol
 _atom_site_label
 _atom_site_symmetry_multiplicity
 _atom_site_fract_x
 _atom_site_fract_y
 _atom_site_fract_z
 _atom_site_occupancy
  Cs  Cs0  1  0.75000000  0.36900446  0.08807104  1
  Cs  Cs1  1  0.25000000  0.13099554  0.58807104  1
  Cs  Cs2  1  0.75000000  0.86900446  0.41192896  1
  Cs  Cs3  1  0.25000000  0.63099554  0.91192896  1
  Ba  Ba0  1  0.75000000  0.01231107  0.82135734  1
  Ba  Ba1  1  0.25000000  0.48768893  0.32135734  1
  Ba  Ba2  1  0.75000000  0.51231107  0.67864266  1
  Ba  Ba3  1  0.25000000  0.98768893  0.17864266  1
  Nb  Nb0  1  0.75000000  0.27642784  0.41814185  1
  Nb  Nb1  1  0.25000000  0.22357216  0.91814185  1
  Nb  Nb2  1  0.75000000  0.77642784  0.08185815  1
  Nb  Nb3  1  0.25000000  0.72357216  0.58185815  1
  S  S0  1  0.75000000  0.19454876  0.58813506  1
  S  S1  1  0.25000000  0.30545124  0.08813506  1
  S  S2  1  0.75000000  0.69454876  0.91186494  1
  S  S3  1  0.25000000  0.80545124  0.41186494  1
  S  S4  1  0.75000000  0.01249518  0.08051702  1
  S  S5  1  0.25000000  0.48750482  0.58051702  1
  S  S6  1  0.75000000  0.51249518  0.41948298  1
  S  S7  1  0.25000000  0.98750482  0.91948298  1
  S  S8  1  0.00777655  0.19868321  0.33246807  1
  S  S9  1  0.99222345  0.30131679  0.83246807  1
  S  S10  1  0.49222345  0.69868321  0.16753193  1
  S  S11  1  0.50777655  0.80131679  0.66753193  1
  S  S12  1  0.99222345  0.80131679  0.66753193  1
  S  S13  1  0.00777655  0.69868321  0.16753193  1
  S  S14  1  0.50777655  0.30131679  0.83246807  1
  S  S15  1  0.49222345  0.19868321  0.33246807  1
loop_
_geom_bond_atom_site_label_1
_geom_bond_atom_site_label_2
_geom_bond_distance
_geom_bond_site_symmetry_2
Cs0 S4 3.439534 1_555
Cs0 S1 3.654361 1_555
Cs0 S1 3.654361 1_655
Cs0 S9 3.727887 1_554
Cs0 S14 3.727887 1_554
Cs0 S13 3.816559 1_655
Cs0 S10 3.816559 1_555
Cs0 S2 3.848550 1_554
Cs0 S8 3.959645 1_655
Cs0 S15 3.959645 1_555
Cs1 S5 3.439534 1_555
Cs1 S0 3.654361 1_455
Cs1 S0 3.654361 1_555
Cs1 S15 3.727887 1_555
Cs1 S8 3.727887 1_555
Cs1 S11 3.816559 1_545
Cs1 S12 3.816559 1_445
Cs1 S3 3.848550 1_545
Cs1 S14 3.959645 1_555
Cs1 S9 3.959645 1_455
Cs2 S6 3.439534 1_555
Cs2 S3 3.654361 1_555
Cs2 S3 3.654361 1_655
Cs2 S12 3.727887 1_555
Cs2 S11 3.727887 1_555
Cs2 S8 3.816559 1_665
Cs2 S15 3.816559 1_565
Cs2 S0 3.848550 1_565
Cs2 S13 3.959645 1_655
Cs2 S10 3.959645 1_555
Cs3 S7 3.439534 1_555
Cs3 S2 3.654361 1_455
Cs3 S2 3.654361 1_555
Cs3 S10 3.727887 1_556
Cs3 S13 3.727887 1_556
Cs3 S14 3.816559 1_555
Cs3 S9 3.816559 1_455
Cs3 S1 3.848550 1_556
Cs3 S11 3.959645 1_555
Cs3 S12 3.959645 1_455
Ba0 S2 3.270852 1_545
Ba0 S4 3.273714 1_556
Ba0 S9 3.291524 1_555
Ba0 S14 3.291524 1_555
Ba0 S12 3.310938 1_545
Ba0 S11 3.310938 1_545
Ba0 S0 3.430482 1_555
Ba0 S7 3.817375 1_645
Ba0 S7 3.817375 1_545
Ba1 S3 3.270852 1_555
Ba1 S5 3.273714 1_555
Ba1 S15 3.291524 1_555
Ba1 S8 3.291524 1_555
Ba1 S10 3.310938 1_555
Ba1 S13 3.310938 1_555
Ba1 S1 3.430482 1_555
Ba1 S6 3.817375 1_555
Ba1 S6 3.817375 1_455
Ba2 S0 3.270852 1_555
Ba2 S6 3.273714 1_555
Ba2 S12 3.291524 1_555
Ba2 S11 3.291524 1_555
Ba2 S9 3.310938 1_555
Ba2 S14 3.310938 1_555
Ba2 S2 3.430482 1_555
Ba2 S5 3.817375 1_555
Ba2 S5 3.817375 1_655
Ba3 S1 3.270852 1_565
Ba3 S7 3.273714 1_554
Ba3 S10 3.291524 1_555
Ba3 S13 3.291524 1_555
Ba3 S15 3.310938 1_565
Ba3 S8 3.310938 1_565
Ba3 S3 3.430482 1_555
Ba3 S4 3.817375 1_465
Ba3 S4 3.817375 1_565
Nb0 S8 2.276635 1_655
Nb0 S15 2.276635 1_555
Nb0 S6 2.276720 1_555
Nb0 S0 2.287947 1_555
Nb1 S14 2.276635 1_555
Nb1 S9 2.276635 1_455
Nb1 S7 2.276720 1_545
Nb1 S1 2.287947 1_556
Nb2 S13 2.276635 1_655
Nb2 S10 2.276635 1_555
Nb2 S4 2.276720 1_565
Nb2 S2 2.287947 1_554
Nb3 S11 2.276635 1_555
Nb3 S12 2.276635 1_455
Nb3 S5 2.276720 1_555
Nb3 S3 2.287947 1_555
