# generated using pymatgen
data_Sc2Be2SiIr5
_symmetry_space_group_name_H-M   'P 1'
_cell_length_a   9.42543372
_cell_length_b   9.42543372
_cell_length_c   3.03339802
_cell_angle_alpha   90.00000000
_cell_angle_beta   90.00000000
_cell_angle_gamma   90.00000000
_symmetry_Int_Tables_number   1
_chemical_formula_structural   Sc2Be2SiIr5
_chemical_formula_sum   'Sc4 Be4 Si2 Ir10'
_cell_volume   269.48344236
_cell_formula_units_Z   2
loop_
 _symmetry_equiv_pos_site_id
 _symmetry_equiv_pos_as_xyz
  1  'x, y, z'
loop_
 _atom_site_type_symbol
 _atom_site_label
 _atom_site_symmetry_multiplicity
 _atom_site_fract_x
 _atom_site_fract_y
 _atom_site_fract_z
 _atom_site_occupancy
  Sc  Sc0  1  0.17495753  0.67495753  0.00000000  1
  Sc  Sc1  1  0.67495753  0.82504247  0.00000000  1
  Sc  Sc2  1  0.32504247  0.17495753  0.00000000  1
  Sc  Sc3  1  0.82504247  0.32504247  0.00000000  1
  Be  Be0  1  0.37555079  0.87555079  0.00000000  1
  Be  Be1  1  0.87555079  0.62444921  0.00000000  1
  Be  Be2  1  0.12444921  0.37555079  0.00000000  1
  Be  Be3  1  0.62444921  0.12444921  0.00000000  1
  Si  Si0  1  0.00000000  0.00000000  0.00000000  1
  Si  Si1  1  0.50000000  0.50000000  0.00000000  1
  Ir  Ir0  1  0.00000000  0.50000000  0.50000000  1
  Ir  Ir1  1  0.50000000  0.00000000  0.50000000  1
  Ir  Ir2  1  0.29490885  0.43327028  0.50000000  1
  Ir  Ir3  1  0.70509215  0.56672972  0.50000000  1
  Ir  Ir4  1  0.56672972  0.29490885  0.50000000  1
  Ir  Ir5  1  0.43327028  0.70509215  0.50000000  1
  Ir  Ir6  1  0.93327028  0.79490785  0.50000000  1
  Ir  Ir7  1  0.79490785  0.06672972  0.50000000  1
  Ir  Ir8  1  0.20509115  0.93327028  0.50000000  1
  Ir  Ir9  1  0.06672972  0.20509115  0.50000000  1
loop_
_geom_bond_atom_site_label_1
_geom_bond_atom_site_label_2
_geom_bond_distance
_geom_bond_site_symmetry_2
Be0 Ir1 2.247705 1_565
Be0 Ir1 2.247705 1_564
Be0 Ir5 2.275447 1_554
Be0 Ir5 2.275447 1_555
Be0 Ir8 2.275454 1_555
Be0 Ir8 2.275454 1_554
Be0 Sc0 2.673823 1_555
Be1 Ir0 2.247705 1_654
Be1 Ir0 2.247705 1_655
Be1 Ir6 2.275447 1_555
Be1 Ir6 2.275447 1_554
Be1 Ir3 2.275447 1_554
Be1 Ir3 2.275447 1_555
Be1 Sc1 2.673823 1_555
Be2 Ir0 2.247705 1_555
Be2 Ir0 2.247705 1_554
Be2 Ir2 2.275454 1_554
Be2 Ir9 2.275454 1_554
Be2 Ir2 2.275454 1_555
Be2 Ir9 2.275454 1_555
Be2 Sc2 2.673823 1_555
Be3 Ir1 2.247705 1_555
Be3 Ir1 2.247705 1_554
Be3 Ir7 2.275447 1_555
Be3 Ir7 2.275447 1_554
Be3 Ir4 2.275454 1_554
Be3 Ir4 2.275454 1_555
Be3 Sc3 2.673823 1_555
Ir0 Sc0 2.781926 1_555
Ir0 Sc0 2.781926 1_556
Ir0 Sc3 2.781926 1_455
Ir0 Sc3 2.781926 1_456
Ir1 Sc2 2.781926 1_556
Ir1 Sc1 2.781926 1_545
Ir1 Sc2 2.781926 1_555
Ir1 Sc1 2.781926 1_546
Ir2 Si1 2.536283 1_555
Ir2 Si1 2.536283 1_556
Ir2 Sc2 2.882509 1_556
Ir2 Sc2 2.882509 1_555
Ir2 Sc0 2.961070 1_555
Ir2 Sc0 2.961070 1_556
Ir3 Si1 2.536291 1_555
Ir3 Si1 2.536291 1_556
Ir3 Sc1 2.882510 1_555
Ir3 Sc1 2.882510 1_556
Ir3 Sc3 2.961066 1_555
Ir3 Sc3 2.961066 1_556
Ir4 Si1 2.536283 1_555
Ir4 Si1 2.536283 1_556
Ir4 Sc3 2.882509 1_555
Ir4 Sc3 2.882509 1_556
Ir4 Sc2 2.961070 1_556
Ir4 Sc2 2.961070 1_555
Ir5 Si1 2.536291 1_555
Ir5 Si1 2.536291 1_556
Ir5 Sc0 2.882510 1_555
Ir5 Sc0 2.882510 1_556
Ir5 Sc1 2.961066 1_555
Ir5 Sc1 2.961066 1_556
Ir6 Si0 2.536291 1_666
Ir6 Si0 2.536291 1_665
Ir6 Sc1 2.882510 1_556
Ir6 Sc1 2.882510 1_555
Ir6 Sc0 2.961066 1_655
Ir6 Sc0 2.961066 1_656
Ir7 Si0 2.536291 1_656
Ir7 Si0 2.536291 1_655
Ir7 Sc3 2.882510 1_556
Ir7 Sc3 2.882510 1_555
Ir7 Sc1 2.961066 1_545
Ir7 Sc1 2.961066 1_546
Ir8 Si0 2.536283 1_565
Ir8 Si0 2.536283 1_566
Ir8 Sc0 2.882509 1_555
Ir8 Sc0 2.882509 1_556
Ir8 Sc2 2.961070 1_566
Ir8 Sc2 2.961070 1_565
Ir9 Si0 2.536283 1_556
Ir9 Si0 2.536283 1_555
Ir9 Sc2 2.882509 1_556
Ir9 Sc2 2.882509 1_555
Ir9 Sc3 2.961070 1_455
Ir9 Sc3 2.961070 1_456
