# generated using pymatgen
data_Ca4CoCuH12
_symmetry_space_group_name_H-M   'P 1'
_cell_length_a   7.04221253
_cell_length_b   7.04221215
_cell_length_c   5.08043665
_cell_angle_alpha   90.00970915
_cell_angle_beta   90.00970402
_cell_angle_gamma   137.72743143
_symmetry_Int_Tables_number   1
_chemical_formula_structural   Ca4CoCuH12
_chemical_formula_sum   'Ca4 Co1 Cu1 H12'
_cell_volume   169.47816198
_cell_formula_units_Z   1
loop_
 _symmetry_equiv_pos_site_id
 _symmetry_equiv_pos_as_xyz
  1  'x, y, z'
loop_
 _atom_site_type_symbol
 _atom_site_label
 _atom_site_symmetry_multiplicity
 _atom_site_fract_x
 _atom_site_fract_y
 _atom_site_fract_z
 _atom_site_occupancy
  Ca  Ca0  1  0.14765716  0.85234284  0.50000000  1
  Ca  Ca1  1  0.64788372  0.35211628  1.00000000  1
  Ca  Ca2  1  0.85234284  0.14765716  0.50000000  1
  Ca  Ca3  1  0.35211628  0.64788372  0.00000000  1
  Co  Co0  1  0.50000000  0.50000000  0.50000000  1
  Cu  Cu0  1  0.00000000  0.00000000  0.00000000  1
  H  H0  1  0.99984854  0.50002618  0.75005566  1
  H  H1  1  0.49997382  0.00015146  0.24994434  1
  H  H2  1  0.00015146  0.49997382  0.24994434  1
  H  H3  1  0.50002618  0.99984854  0.75005566  1
  H  H4  1  0.38315907  0.61684093  0.50000000  1
  H  H5  1  0.88109801  0.11890199  0.00000000  1
  H  H6  1  0.61684093  0.38315907  0.50000000  1
  H  H7  1  0.11890199  0.88109801  1.00000000  1
  H  H8  1  0.28011018  0.28011018  0.72056357  1
  H  H9  1  0.71988982  0.71988982  0.27943643  1
  H  H10  1  0.27932999  0.27932999  0.27986724  1
  H  H11  1  0.72067001  0.72067001  0.72013276  1
loop_
_geom_bond_atom_site_label_1
_geom_bond_atom_site_label_2
_geom_bond_distance
_geom_bond_site_symmetry_2
Ca0 H0 2.243375 1_455
Ca0 H1 2.243375 1_565
Ca0 H2 2.243738 1_555
Ca0 H3 2.243738 1_555
Ca0 H7 2.568152 1_555
Ca0 H7 2.568152 1_554
Ca0 H6 2.571401 1_565
Ca0 H6 2.571401 1_455
Ca0 H10 2.650924 1_565
Ca0 H11 2.650924 1_455
Ca0 H8 2.653407 1_565
Ca0 H9 2.653407 1_455
Ca1 H1 2.240913 1_556
Ca1 H0 2.240913 1_555
Ca1 H3 2.241994 1_545
Ca1 H2 2.241994 1_656
Ca1 H7 2.567718 1_655
Ca1 H7 2.567718 1_545
Ca1 H6 2.572745 1_556
Ca1 H6 2.572745 1_555
Ca1 H9 2.652410 1_556
Ca1 H8 2.652411 1_555
Ca1 H11 2.655815 1_555
Ca1 H10 2.655815 1_556
Ca2 H2 2.243375 1_655
Ca2 H3 2.243375 1_545
Ca2 H0 2.243738 1_555
Ca2 H1 2.243738 1_555
Ca2 H5 2.568152 1_555
Ca2 H5 2.568152 1_556
Ca2 H4 2.571401 1_545
Ca2 H4 2.571401 1_655
Ca2 H11 2.650924 1_545
Ca2 H10 2.650924 1_655
Ca2 H9 2.653407 1_545
Ca2 H8 2.653407 1_655
Ca3 H3 2.240913 1_554
Ca3 H2 2.240913 1_555
Ca3 H1 2.241994 1_565
Ca3 H0 2.241994 1_454
Ca3 H5 2.567718 1_455
Ca3 H5 2.567718 1_565
Ca3 H4 2.572745 1_554
Ca3 H4 2.572745 1_555
Ca3 H8 2.652410 1_554
Ca3 H9 2.652411 1_555
Ca3 H10 2.655815 1_555
Ca3 H11 2.655815 1_554
Co0 H4 1.534928 1_555
Co0 H6 1.534928 1_555
Co0 H9 1.582389 1_555
Co0 H8 1.582389 1_555
Co0 H11 1.582898 1_555
Co0 H10 1.582898 1_555
Cu0 H7 1.562004 1_544
Cu0 H5 1.562004 1_455
Cu0 H10 2.008047 1_555
Cu0 H11 2.008047 1_444
Cu0 H8 2.010244 1_554
Cu0 H9 2.010244 1_445
