# generated using pymatgen
data_CaSnGeRh3
_symmetry_space_group_name_H-M   'P 1'
_cell_length_a   6.94166390
_cell_length_b   6.93659883
_cell_length_c   6.94166194
_cell_angle_alpha   130.81698946
_cell_angle_beta   113.24944638
_cell_angle_gamma   87.25229843
_symmetry_Int_Tables_number   1
_chemical_formula_structural   CaSnGeRh3
_chemical_formula_sum   'Ca2 Sn2 Ge2 Rh6'
_cell_volume   221.55921678
_cell_formula_units_Z   2
loop_
 _symmetry_equiv_pos_site_id
 _symmetry_equiv_pos_as_xyz
  1  'x, y, z'
loop_
 _atom_site_type_symbol
 _atom_site_label
 _atom_site_symmetry_multiplicity
 _atom_site_fract_x
 _atom_site_fract_y
 _atom_site_fract_z
 _atom_site_occupancy
  Ca  Ca0  1  0.76803118  0.01728708  0.24925590  1
  Ca  Ca1  1  0.23196882  0.98271292  0.75074410  1
  Sn  Sn0  1  0.56777141  0.31759255  0.74982114  1
  Sn  Sn1  1  0.43222859  0.68240745  0.25017886  1
  Ge  Ge0  1  0.10110597  0.35204443  0.25093945  1
  Ge  Ge1  1  0.89889403  0.64795557  0.74906055  1
  Rh  Rh0  1  0.21886333  0.50000000  0.71886333  1
  Rh  Rh1  1  0.78179894  0.00000000  0.78179894  1
  Rh  Rh2  1  0.78113667  0.50000000  0.28113667  1
  Rh  Rh3  1  0.21820106  1.00000000  0.21820106  1
  Rh  Rh4  1  0.50000000  0.50000000  0.50000000  1
  Rh  Rh5  1  0.00000000  0.50000000  0.00000000  1
loop_
_geom_bond_atom_site_label_1
_geom_bond_atom_site_label_2
_geom_bond_distance
_geom_bond_site_symmetry_2
Ca0 Ge1 3.170386 1_555
Ca0 Ge1 3.175333 1_544
Ca0 Rh1 3.207511 1_554
Ca0 Rh3 3.207511 1_645
Ca0 Rh2 3.211468 1_555
Ca0 Rh0 3.211468 1_655
Ca0 Ge0 3.346026 1_655
Ca0 Sn1 3.373443 1_545
Ca0 Rh4 3.462834 1_544
Ca0 Rh5 3.462835 1_645
Ca0 Rh5 3.470360 1_656
Ca0 Rh4 3.470361 1_555
Ca0 Sn0 3.514704 1_544
Ca0 Sn0 3.524060 1_555
Ca0 Rh2 3.731413 1_545
Ca0 Rh0 3.731413 1_544
Ca0 Rh1 3.740166 1_555
Ca0 Rh3 3.740167 1_545
Ca1 Ge0 3.170386 1_555
Ca1 Ge0 3.175333 1_566
Ca1 Rh3 3.207511 1_556
Ca1 Rh1 3.207511 1_465
Ca1 Rh0 3.211468 1_555
Ca1 Rh2 3.211468 1_455
Ca1 Ge1 3.346026 1_455
Ca1 Sn0 3.373443 1_565
Ca1 Rh4 3.462834 1_566
Ca1 Rh5 3.462835 1_566
Ca1 Rh5 3.470360 1_555
Ca1 Rh4 3.470361 1_555
Ca1 Sn1 3.514704 1_566
Ca1 Sn1 3.524060 1_555
Ca1 Rh0 3.731413 1_565
Ca1 Rh2 3.731413 1_566
Ca1 Rh3 3.740166 1_555
Ca1 Rh1 3.740167 1_565
Ge0 Rh4 2.425510 1_555
Ge0 Rh5 2.425515 1_555
Ge0 Rh0 2.428654 1_555
Ge0 Rh2 2.428660 1_455
Ge0 Rh3 2.430163 1_545
Ge0 Rh1 2.430168 1_454
Ge1 Rh4 2.425510 1_555
Ge1 Rh5 2.425515 1_656
Ge1 Rh2 2.428654 1_555
Ge1 Rh0 2.428660 1_655
Ge1 Rh1 2.430163 1_565
Ge1 Rh3 2.430168 1_656
Rh0 Sn1 2.676559 1_556
Rh0 Sn0 2.676560 1_555
Rh1 Sn1 2.678616 1_545
Rh1 Sn0 2.678617 1_555
Rh2 Sn0 2.676559 1_554
Rh2 Sn1 2.676560 1_555
Rh3 Sn0 2.678616 1_565
Rh3 Sn1 2.678617 1_555
Rh4 Sn1 2.645180 1_555
Rh4 Sn0 2.645180 1_555
Rh5 Sn1 2.645180 1_555
Rh5 Sn0 2.645180 1_454
