# generated using pymatgen
data_Hf6Ti5Al11Ir7
_symmetry_space_group_name_H-M   'P 1'
_cell_length_a   8.73310697
_cell_length_b   8.73310712
_cell_length_c   8.71810209
_cell_angle_alpha   59.94304638
_cell_angle_beta   59.94304777
_cell_angle_gamma   60.00000354
_symmetry_Int_Tables_number   1
_chemical_formula_structural   Hf6Ti5Al11Ir7
_chemical_formula_sum   'Hf6 Ti5 Al11 Ir7'
_cell_volume   469.75361912
_cell_formula_units_Z   1
loop_
 _symmetry_equiv_pos_site_id
 _symmetry_equiv_pos_as_xyz
  1  'x, y, z'
loop_
 _atom_site_type_symbol
 _atom_site_label
 _atom_site_symmetry_multiplicity
 _atom_site_fract_x
 _atom_site_fract_y
 _atom_site_fract_z
 _atom_site_occupancy
  Hf  Hf0  1  0.68856302  0.68856302  0.31309535  1
  Hf  Hf1  1  0.30977961  0.68856302  0.31309535  1
  Hf  Hf2  1  0.68856302  0.30977961  0.31309535  1
  Hf  Hf3  1  0.31454951  0.31454951  0.68765704  1
  Hf  Hf4  1  0.68324194  0.31454951  0.68765704  1
  Hf  Hf5  1  0.31454951  0.68324194  0.68765704  1
  Ti  Ti0  1  0.88046052  0.88046052  0.35861944  1
  Ti  Ti1  1  0.87686132  0.36188501  0.88439236  1
  Ti  Ti2  1  0.36188501  0.87686132  0.88439236  1
  Ti  Ti3  1  0.87686132  0.87686132  0.88439236  1
  Ti  Ti4  1  0.12236965  0.12236965  0.63289104  1
  Al  Al0  1  0.11988064  0.63997104  0.12026667  1
  Al  Al1  1  0.63997104  0.11988064  0.12026667  1
  Al  Al2  1  0.11988064  0.11988064  0.12026667  1
  Al  Al3  1  0.66105418  0.66105418  0.01683647  1
  Al  Al4  1  0.66277102  0.01400653  0.66044943  1
  Al  Al5  1  0.01400653  0.66277102  0.66044943  1
  Al  Al6  1  0.66277102  0.66277102  0.66044943  1
  Al  Al7  1  0.33550643  0.33550643  0.99347970  1
  Al  Al8  1  0.33780507  0.99026227  0.33412858  1
  Al  Al9  1  0.99026227  0.33780507  0.33412858  1
  Al  Al10  1  0.33780507  0.33780507  0.33412858  1
  Ir  Ir0  1  0.00324862  0.00324862  0.99025413  1
  Ir  Ir1  1  0.99898475  0.99898475  0.50480103  1
  Ir  Ir2  1  0.49722947  0.99898475  0.50480103  1
  Ir  Ir3  1  0.99898475  0.49722947  0.50480103  1
  Ir  Ir4  1  0.50179522  0.50179522  0.99784995  1
  Ir  Ir5  1  0.99855961  0.50179522  0.99784995  1
  Ir  Ir6  1  0.50179522  0.99855961  0.99784995  1
loop_
_geom_bond_atom_site_label_1
_geom_bond_atom_site_label_2
_geom_bond_distance
_geom_bond_site_symmetry_2
Hf0 Ti3 3.125377 1_554
Hf0 Ti0 3.148902 1_555
Hf0 Ir3 3.185261 1_555
Hf0 Ir2 3.185261 1_555
Hf0 Ir6 3.188169 1_554
Hf0 Ir5 3.188169 1_554
Hf0 Hf4 3.263369 1_555
Hf0 Hf5 3.263369 1_555
Hf0 Hf1 3.307956 1_555
Hf0 Hf2 3.307956 1_555
Hf1 Ti2 3.125379 1_554
Hf1 Ti0 3.148902 1_455
Hf1 Ir1 3.185262 1_455
Hf1 Ir3 3.185268 1_455
Hf1 Ir6 3.188164 1_554
Hf1 Ir4 3.188170 1_554
Hf1 Hf5 3.263355 1_555
Hf1 Hf3 3.263368 1_555
Hf1 Hf2 3.307956 1_555
Hf2 Ti1 3.125379 1_554
Hf2 Ti0 3.148902 1_545
Hf2 Ir1 3.185262 1_545
Hf2 Ir2 3.185268 1_545
Hf2 Ir5 3.188164 1_554
Hf2 Ir4 3.188170 1_554
Hf2 Hf4 3.263355 1_555
Hf2 Hf3 3.263368 1_555
Hf3 Ir6 3.169246 1_545
Hf3 Ir5 3.169246 1_455
Hf3 Ir3 3.184006 1_455
Hf3 Ir2 3.184006 1_545
Hf3 Ti4 3.206824 1_555
Hf3 Ti1 3.207193 1_455
Hf3 Ti2 3.207193 1_545
Hf3 Hf4 3.219831 1_555
Hf3 Hf5 3.219831 1_555
Hf4 Ir6 3.169237 1_545
Hf4 Ir4 3.169250 1_555
Hf4 Ir1 3.184009 1_545
Hf4 Ir3 3.184020 1_555
Hf4 Ti4 3.206839 1_655
Hf4 Ti3 3.207196 1_545
Hf4 Ti1 3.207208 1_555
Hf4 Hf5 3.219831 1_555
Hf5 Ir5 3.169237 1_455
Hf5 Ir4 3.169250 1_555
Hf5 Ir1 3.184009 1_455
Hf5 Ir2 3.184020 1_555
Hf5 Ti4 3.206840 1_565
Hf5 Ti3 3.207197 1_455
Hf5 Ti2 3.207208 1_555
Ti1 Ti4 3.029865 1_655
Ti2 Ti4 3.029865 1_565
Ti3 Ti4 3.029865 1_665
Al0 Ir0 2.590394 1_564
Al0 Ir5 2.723780 1_454
Al0 Ir4 2.723787 1_554
Al0 Ir3 2.737089 1_455
Al0 Al9 2.768672 1_455
Al0 Al10 2.768682 1_555
Al0 Al7 2.773035 1_554
Al0 Ti0 2.954464 1_455
Al0 Ti3 2.955068 1_454
Al0 Ti2 2.955074 1_554
Al0 Hf0 3.157139 1_455
Al0 Hf1 3.157154 1_555
Al0 Hf5 3.170074 1_554
Al1 Ir0 2.590394 1_654
Al1 Ir6 2.723780 1_544
Al1 Ir4 2.723787 1_554
Al1 Ir2 2.737089 1_545
Al1 Al8 2.768672 1_545
Al1 Al10 2.768682 1_555
Al1 Al7 2.773035 1_554
Al1 Ti0 2.954464 1_545
Al1 Ti3 2.955068 1_544
Al1 Ti1 2.955074 1_554
Al1 Hf0 3.157139 1_545
Al1 Hf2 3.157154 1_555
Al1 Hf4 3.170074 1_554
Al2 Ir0 2.590387 1_554
Al2 Ir6 2.723787 1_544
Al2 Ir5 2.723787 1_454
Al2 Ir1 2.737090 1_445
Al2 Al8 2.768686 1_545
Al2 Al9 2.768686 1_455
Al2 Al7 2.773034 1_554
Al2 Ti0 2.954451 1_445
Al2 Ti1 2.955068 1_454
Al2 Ti2 2.955068 1_544
Al2 Hf1 3.157142 1_545
Al2 Hf2 3.157142 1_455
Al2 Hf3 3.170072 1_554
Al3 Ir4 2.508349 1_554
Al3 Ir5 2.508357 1_554
Al3 Ir6 2.508357 1_554
Al3 Ti2 2.762122 1_554
Al3 Ti1 2.762122 1_554
Al3 Ti3 2.762129 1_554
Al3 Hf2 2.843789 1_555
Al3 Hf1 2.843789 1_555
Al3 Hf0 2.843799 1_555
Al4 Ir2 2.506326 1_545
Al4 Ir1 2.506341 1_545
Al4 Ir6 2.509329 1_545
Al4 Ti0 2.782879 1_545
Al4 Ti2 2.795829 1_545
Al4 Ti3 2.795843 1_545
Al4 Hf2 2.820661 1_555
Al4 Hf4 2.848242 1_555
Al4 Hf3 2.848242 1_555
Al5 Ir3 2.506326 1_455
Al5 Ir1 2.506341 1_455
Al5 Ir5 2.509329 1_455
Al5 Ti0 2.782878 1_455
Al5 Ti1 2.795829 1_455
Al5 Ti3 2.795843 1_455
Al5 Hf1 2.820661 1_555
Al5 Hf5 2.848242 1_555
Al5 Hf3 2.848242 1_555
Al6 Ir2 2.506337 1_555
Al6 Ir3 2.506337 1_555
Al6 Ir4 2.509325 1_555
Al6 Ti0 2.782893 1_555
Al6 Ti1 2.795839 1_555
Al6 Ti2 2.795839 1_555
Al6 Hf0 2.820650 1_555
Al6 Hf5 2.848242 1_555
Al6 Hf4 2.848242 1_555
Al7 Ir5 2.537533 1_455
Al7 Ir6 2.537533 1_545
Al7 Ir4 2.537540 1_555
Al7 Hf5 2.861233 1_555
Al7 Hf4 2.861233 1_555
Al7 Hf3 2.861238 1_555
Al7 Al8 2.990046 1_546
Al7 Al9 2.990046 1_456
Al8 Ir6 2.517207 1_554
Al8 Ir2 2.540267 1_555
Al8 Ir1 2.540275 1_455
Al8 Ti4 2.754204 1_565
Al8 Hf1 2.865194 1_555
Al8 Hf0 2.865194 1_555
Al8 Hf5 2.892934 1_555
Al8 Al9 3.035129 1_465
Al9 Ir5 2.517207 1_554
Al9 Ir3 2.540267 1_555
Al9 Ir1 2.540275 1_545
Al9 Ti4 2.754204 1_655
Al9 Hf2 2.865194 1_555
Al9 Hf0 2.865194 1_555
Al9 Hf4 2.892934 1_555
Al10 Ir4 2.517205 1_554
Al10 Ir2 2.540272 1_545
Al10 Ir3 2.540272 1_455
Al10 Ti4 2.754209 1_555
Al10 Hf2 2.865194 1_555
Al10 Hf1 2.865194 1_555
Al10 Hf3 2.892923 1_555
Al10 Al7 2.990055 1_554
Al10 Al9 3.035129 1_455
Al10 Al8 3.035129 1_545
Ir0 Ti4 2.541626 1_555
Ir0 Ti3 2.558795 1_445
Ir0 Ti2 2.558795 1_545
Ir0 Ti1 2.558795 1_455
Ir0 Ti0 2.619875 1_446
Ir1 Ti4 2.672259 1_665
Ir1 Ti3 2.700540 1_555
Ir1 Ti0 2.735175 1_555
Ir2 Ti4 2.672259 1_565
Ir2 Ti2 2.700540 1_555
Ir2 Ti0 2.735182 1_555
Ir3 Ti4 2.672259 1_655
Ir3 Ti1 2.700540 1_555
Ir3 Ti0 2.735182 1_555
Ir4 Ti1 2.676410 1_555
Ir4 Ti2 2.676410 1_555
Ir5 Ti1 2.676410 1_555
Ir5 Ti3 2.676410 1_555
Ir6 Ti2 2.676410 1_555
Ir6 Ti3 2.676410 1_555
