# generated using pymatgen
data_K2NaCrH6
_symmetry_space_group_name_H-M   'P 1'
_cell_length_a   5.73635070
_cell_length_b   5.73635081
_cell_length_c   5.73634991
_cell_angle_alpha   59.99999947
_cell_angle_beta   59.99999887
_cell_angle_gamma   59.99999985
_symmetry_Int_Tables_number   1
_chemical_formula_structural   K2NaCrH6
_chemical_formula_sum   'K2 Na1 Cr1 H6'
_cell_volume   133.47257184
_cell_formula_units_Z   1
loop_
 _symmetry_equiv_pos_site_id
 _symmetry_equiv_pos_as_xyz
  1  'x, y, z'
loop_
 _atom_site_type_symbol
 _atom_site_label
 _atom_site_symmetry_multiplicity
 _atom_site_fract_x
 _atom_site_fract_y
 _atom_site_fract_z
 _atom_site_occupancy
  K  K0  1  0.25000000  0.25000000  0.25000000  1
  K  K1  1  0.75000000  0.75000000  0.75000000  1
  Na  Na0  1  0.50000000  0.50000000  0.50000000  1
  Cr  Cr0  1  0.00000000  0.00000000  0.00000000  1
  H  H0  1  0.21556466  0.78443534  0.21556466  1
  H  H1  1  0.21556466  0.78443534  0.78443534  1
  H  H2  1  0.78443534  0.21556466  0.78443534  1
  H  H3  1  0.78443534  0.21556466  0.21556466  1
  H  H4  1  0.78443534  0.78443534  0.21556466  1
  H  H5  1  0.21556466  0.21556466  0.78443534  1
loop_
_geom_bond_atom_site_label_1
_geom_bond_atom_site_label_2
_geom_bond_distance
_geom_bond_site_symmetry_2
Cr0 H3 1.748752 1_455
Cr0 H0 1.748752 1_545
Cr0 H2 1.748752 1_454
Cr0 H1 1.748752 1_544
Cr0 H5 1.748752 1_554
Cr0 H4 1.748752 1_445
H0 Na0 2.307460 1_555
H0 K1 2.881747 1_455
H0 K1 2.881747 1_554
H0 K0 2.881748 1_565
H0 K0 2.881748 1_555
H1 Na0 2.307460 1_555
H1 K0 2.881747 1_565
H1 K0 2.881747 1_556
H1 K1 2.881747 1_455
H1 K1 2.881747 1_555
H2 Na0 2.307460 1_555
H2 K0 2.881747 1_655
H2 K0 2.881747 1_556
H2 K1 2.881748 1_545
H2 K1 2.881748 1_555
H3 Na0 2.307460 1_555
H3 K1 2.881747 1_545
H3 K1 2.881747 1_554
H3 K0 2.881747 1_655
H3 K0 2.881747 1_555
H4 Na0 2.307460 1_555
H4 K1 2.881747 1_555
H4 K1 2.881747 1_554
H4 K0 2.881747 1_565
H4 K0 2.881748 1_655
H5 Na0 2.307460 1_555
H5 K0 2.881747 1_555
H5 K0 2.881747 1_556
H5 K1 2.881747 1_545
H5 K1 2.881748 1_455
