# generated using pymatgen
data_Zr10In6BP
_symmetry_space_group_name_H-M   'P 1'
_cell_length_a   8.65705354
_cell_length_b   8.65705306
_cell_length_c   5.85107491
_cell_angle_alpha   90.00000000
_cell_angle_beta   90.00000000
_cell_angle_gamma   119.99999810
_symmetry_Int_Tables_number   1
_chemical_formula_structural   Zr10In6BP
_chemical_formula_sum   'Zr10 In6 B1 P1'
_cell_volume   379.75760596
_cell_formula_units_Z   1
loop_
 _symmetry_equiv_pos_site_id
 _symmetry_equiv_pos_as_xyz
  1  'x, y, z'
loop_
 _atom_site_type_symbol
 _atom_site_label
 _atom_site_symmetry_multiplicity
 _atom_site_fract_x
 _atom_site_fract_y
 _atom_site_fract_z
 _atom_site_occupancy
  Zr  Zr0  1  0.76403144  0.76403144  0.23418317  1
  Zr  Zr1  1  0.23596856  1.00000000  0.23418317  1
  Zr  Zr2  1  0.00000000  0.23596856  0.23418317  1
  Zr  Zr3  1  0.23596856  0.23596856  0.76581683  1
  Zr  Zr4  1  0.76403144  0.00000000  0.76581683  1
  Zr  Zr5  1  0.00000000  0.76403144  0.76581683  1
  Zr  Zr6  1  0.66666700  0.33333300  0.50000000  1
  Zr  Zr7  1  0.33333300  0.66666700  0.50000000  1
  Zr  Zr8  1  0.33333300  0.66666700  0.00000000  1
  Zr  Zr9  1  0.66666700  0.33333300  0.00000000  1
  In  In0  1  0.39676424  0.39676424  0.25427373  1
  In  In1  1  0.60323576  0.00000000  0.25427373  1
  In  In2  1  0.00000000  0.60323576  0.25427373  1
  In  In3  1  0.60323576  0.60323576  0.74572627  1
  In  In4  1  0.39676424  0.00000000  0.74572627  1
  In  In5  1  0.00000000  0.39676424  0.74572627  1
  B  B0  1  0.00000000  0.00000000  0.00000000  1
  P  P0  1  0.00000000  0.00000000  0.50000000  1
loop_
_geom_bond_atom_site_label_1
_geom_bond_atom_site_label_2
_geom_bond_distance
_geom_bond_site_symmetry_2
Zr6 Zr9 2.925537 1_556
Zr6 Zr9 2.925537 1_555
Zr7 Zr8 2.925537 1_556
Zr7 Zr8 2.925537 1_555
In0 Zr1 2.994684 1_545
In0 Zr2 2.994684 1_555
In0 Zr7 3.018493 1_555
In0 Zr6 3.018493 1_555
In0 Zr8 3.042632 1_555
In0 Zr9 3.042632 1_555
In0 Zr3 3.178972 1_554
In0 Zr0 3.181624 1_555
In0 Zr3 3.300942 1_555
In1 Zr0 2.994684 1_545
In1 Zr2 2.994684 1_655
In1 Zr6 3.018485 1_555
In1 Zr7 3.018488 1_545
In1 Zr9 3.042625 1_555
In1 Zr8 3.042627 1_545
In1 Zr4 3.178972 1_554
In1 Zr1 3.181624 1_545
In1 Zr4 3.300942 1_555
In2 Zr0 2.994684 1_455
In2 Zr1 2.994684 1_555
In2 Zr7 3.018485 1_555
In2 Zr6 3.018488 1_455
In2 Zr8 3.042625 1_555
In2 Zr9 3.042627 1_455
In2 Zr5 3.178972 1_554
In2 Zr2 3.181624 1_555
In2 Zr5 3.300942 1_555
In3 Zr4 2.994684 1_565
In3 Zr5 2.994684 1_655
In3 Zr6 3.018493 1_555
In3 Zr7 3.018493 1_555
In3 Zr9 3.042632 1_556
In3 Zr8 3.042632 1_556
In3 Zr0 3.178972 1_556
In3 Zr3 3.181624 1_555
In3 Zr0 3.300942 1_555
In4 Zr3 2.994684 1_555
In4 Zr5 2.994684 1_545
In4 Zr7 3.018485 1_545
In4 Zr6 3.018488 1_555
In4 Zr8 3.042625 1_546
In4 Zr9 3.042627 1_556
In4 Zr1 3.178972 1_546
In4 Zr4 3.181624 1_555
In4 Zr1 3.300942 1_545
In5 Zr3 2.994684 1_555
In5 Zr4 2.994684 1_455
In5 Zr6 3.018485 1_455
In5 Zr7 3.018488 1_555
In5 Zr9 3.042625 1_456
In5 Zr8 3.042627 1_556
In5 Zr2 3.178972 1_556
In5 Zr5 3.181624 1_555
In5 Zr2 3.300942 1_555
B0 Zr2 2.459779 1_555
B0 Zr5 2.459779 1_544
B0 Zr4 2.459779 1_454
B0 Zr1 2.459779 1_545
B0 Zr3 2.459779 1_554
B0 Zr0 2.459779 1_445
P0 Zr2 2.567490 1_555
P0 Zr5 2.567490 1_545
P0 Zr4 2.567490 1_455
P0 Zr1 2.567490 1_545
P0 Zr3 2.567490 1_555
P0 Zr0 2.567490 1_445
