# generated using pymatgen
data_K2AsCl3F2
_symmetry_space_group_name_H-M   'P 1'
_cell_length_a   7.21718693
_cell_length_b   7.22234672
_cell_length_c   12.34064379
_cell_angle_alpha   84.33007323
_cell_angle_beta   78.65230650
_cell_angle_gamma   60.35093628
_symmetry_Int_Tables_number   1
_chemical_formula_structural   K2AsCl3F2
_chemical_formula_sum   'K6 As3 Cl9 F6'
_cell_volume   548.10659620
_cell_formula_units_Z   3
loop_
 _symmetry_equiv_pos_site_id
 _symmetry_equiv_pos_as_xyz
  1  'x, y, z'
loop_
 _atom_site_type_symbol
 _atom_site_label
 _atom_site_symmetry_multiplicity
 _atom_site_fract_x
 _atom_site_fract_y
 _atom_site_fract_z
 _atom_site_occupancy
  K  K0  1  0.30575715  0.33221302  0.08684601  1
  K  K1  1  0.43262066  0.33905824  0.68521884  1
  K  K2  1  0.10192594  0.00487350  0.67863487  1
  K  K3  1  0.69424285  0.66778698  0.91315399  1
  K  K4  1  0.56737934  0.66094176  0.31478116  1
  K  K5  1  0.89807406  0.99512650  0.32136513  1
  As  As0  1  0.19957070  0.33775128  0.38859595  1
  As  As1  1  0.80042930  0.66224872  0.61140405  1
  As  As2  1  0.00000000  0.00000000  0.00000000  1
  Cl  Cl0  1  0.28250420  0.78213387  0.11787382  1
  Cl  Cl1  1  0.18977692  0.68526095  0.49921987  1
  Cl  Cl2  1  0.81022308  0.31473905  0.50078013  1
  Cl  Cl3  1  0.85874294  0.32132134  0.11761797  1
  Cl  Cl4  1  0.25956618  0.10194976  0.88104160  1
  Cl  Cl5  1  0.71749580  0.21786613  0.88212618  1
  Cl  Cl6  1  0.50000000  0.00000000  0.50000000  1
  Cl  Cl7  1  0.74043382  0.89805024  0.11895840  1
  Cl  Cl8  1  0.14125706  0.67867866  0.88238203  1
  F  F0  1  0.57228045  0.65867618  0.69936388  1
  F  F1  1  0.77100161  0.86326195  0.69870150  1
  F  F2  1  0.02091561  0.54231272  0.30336107  1
  F  F3  1  0.97908439  0.45768728  0.69663893  1
  F  F4  1  0.22899839  0.13673805  0.30129850  1
  F  F5  1  0.42771955  0.34132382  0.30063612  1
loop_
_geom_bond_atom_site_label_1
_geom_bond_atom_site_label_2
_geom_bond_distance
_geom_bond_site_symmetry_2
As0 F5 1.795366 1_555
As0 F4 1.796476 1_555
As0 F2 1.814828 1_555
As0 Cl6 2.796306 1_555
As0 Cl1 2.937941 1_555
As0 Cl2 2.953984 1_455
As1 F0 1.795366 1_555
As1 F1 1.796476 1_555
As1 F3 1.814828 1_555
As1 Cl6 2.796306 1_565
As1 Cl2 2.937941 1_555
As1 Cl1 2.953984 1_655
As2 Cl3 2.504849 1_455
As2 Cl8 2.504849 1_544
As2 Cl4 2.505103 1_554
As2 Cl7 2.505103 1_445
As2 Cl0 2.507929 1_545
As2 Cl5 2.507929 1_454
Cl0 K5 3.188927 1_455
Cl0 K0 3.227222 1_555
Cl0 K4 3.265469 1_555
Cl0 K3 3.305282 1_554
Cl1 K2 3.105180 1_565
Cl1 K4 3.130934 1_555
Cl1 K5 3.231767 1_455
Cl1 K1 3.271958 1_555
Cl2 K5 3.105180 1_545
Cl2 K1 3.130934 1_555
Cl2 K2 3.231767 1_655
Cl2 K4 3.271958 1_555
Cl3 K0 3.212745 1_655
Cl3 K5 3.225156 1_545
Cl3 K4 3.228183 1_555
Cl3 K3 3.321094 1_554
Cl4 K2 3.206040 1_555
Cl4 K3 3.215951 1_545
Cl4 K1 3.231562 1_555
Cl4 K0 3.323177 1_556
Cl5 K2 3.188927 1_655
Cl5 K3 3.227222 1_555
Cl5 K1 3.265469 1_555
Cl5 K0 3.305282 1_556
Cl6 K5 3.246205 1_545
Cl6 K2 3.246205 1_555
Cl6 K1 3.308777 1_555
Cl6 K4 3.308777 1_545
Cl7 K5 3.206040 1_555
Cl7 K0 3.215951 1_565
Cl7 K4 3.231562 1_555
Cl7 K3 3.323177 1_554
Cl8 K3 3.212745 1_455
Cl8 K2 3.225156 1_565
Cl8 K1 3.228183 1_555
Cl8 K0 3.321094 1_556
F0 K3 2.957243 1_555
F0 K1 2.970856 1_555
F0 K2 3.107817 1_565
F1 K3 2.960149 1_555
F1 K2 2.990907 1_665
F1 K1 3.089401 1_565
F2 K4 2.921610 1_455
F2 K5 2.954352 1_455
F2 K0 3.036642 1_555
F3 K1 2.921610 1_655
F3 K2 2.954352 1_655
F3 K3 3.036642 1_555
F4 K0 2.960149 1_555
F4 K5 2.990907 1_445
F4 K4 3.089401 1_545
F5 K0 2.957243 1_555
F5 K4 2.970856 1_555
F5 K5 3.107817 1_545
