# generated using pymatgen
data_CaCo2(Sb6Os)2
_symmetry_space_group_name_H-M   'P 1'
_cell_length_a   7.97161711
_cell_length_b   8.03332746
_cell_length_c   7.97161756
_cell_angle_alpha   109.45733713
_cell_angle_beta   109.04844832
_cell_angle_gamma   109.59400045
_symmetry_Int_Tables_number   1
_chemical_formula_structural   CaCo2(Sb6Os)2
_chemical_formula_sum   'Ca1 Co2 Sb12 Os2'
_cell_volume   394.48404193
_cell_formula_units_Z   1
loop_
 _symmetry_equiv_pos_site_id
 _symmetry_equiv_pos_as_xyz
  1  'x, y, z'
loop_
 _atom_site_type_symbol
 _atom_site_label
 _atom_site_symmetry_multiplicity
 _atom_site_fract_x
 _atom_site_fract_y
 _atom_site_fract_z
 _atom_site_occupancy
  Ca  Ca0  1  0.00000000  0.00000000  0.00000000  1
  Co  Co0  1  0.50000000  0.50000000  0.50000000  1
  Co  Co1  1  0.00000000  0.50000000  0.00000000  1
  Sb  Sb0  1  0.83721008  0.65754648  0.50387708  1
  Sb  Sb1  1  0.16278992  0.34245352  0.49612292  1
  Sb  Sb2  1  0.15366940  0.65754648  0.82033640  1
  Sb  Sb3  1  0.84633060  0.34245352  0.17966360  1
  Sb  Sb4  1  0.66459129  0.50508013  0.84048884  1
  Sb  Sb5  1  0.33540871  0.49491987  0.15951116  1
  Sb  Sb6  1  0.65907434  0.81564387  0.15656953  1
  Sb  Sb7  1  0.34092566  0.18435613  0.84343047  1
  Sb  Sb8  1  0.50355861  0.83624789  0.65613216  1
  Sb  Sb9  1  0.49644139  0.16375211  0.34386784  1
  Sb  Sb10  1  0.18011573  0.83624789  0.33268928  1
  Sb  Sb11  1  0.81988427  0.16375211  0.66731072  1
  Os  Os0  1  0.50000000  0.00000000  0.00000000  1
  Os  Os1  1  0.00000000  0.00000000  0.50000000  1
loop_
_geom_bond_atom_site_label_1
_geom_bond_atom_site_label_2
_geom_bond_distance
_geom_bond_site_symmetry_2
Ca0 Sb5 3.443265 1_555
Ca0 Sb4 3.443265 1_444
Ca0 Sb7 3.447198 1_554
Ca0 Sb6 3.447198 1_445
Ca0 Sb2 3.449728 1_544
Ca0 Sb3 3.449728 1_455
Ca0 Sb1 3.449728 1_555
Ca0 Sb0 3.449728 1_444
Ca0 Sb9 3.454131 1_555
Ca0 Sb8 3.454131 1_444
Ca0 Sb11 3.454131 1_454
Ca0 Sb10 3.454131 1_545
Co0 Sb0 2.542945 1_555
Co0 Sb1 2.542945 1_555
Co0 Sb8 2.555798 1_555
Co0 Sb9 2.555798 1_555
Co0 Sb4 2.579930 1_555
Co0 Sb5 2.579930 1_555
Co1 Sb3 2.542945 1_455
Co1 Sb2 2.542945 1_554
Co1 Sb10 2.555798 1_555
Co1 Sb11 2.555798 1_454
Co1 Sb5 2.579929 1_555
Co1 Sb4 2.579929 1_454
Sb0 Sb2 2.928133 1_655
Sb0 Sb3 2.996646 1_555
Sb1 Sb3 2.928133 1_455
Sb1 Sb2 2.996646 1_555
Sb4 Sb6 2.921128 1_556
Sb4 Sb7 2.986139 1_555
Sb5 Sb7 2.921128 1_554
Sb5 Sb6 2.986139 1_555
Sb10 Sb9 2.921631 1_565
Sb10 Sb8 2.992751 1_555
Sb11 Sb8 2.921631 1_545
Sb11 Sb9 2.992751 1_555
Os0 Sb6 2.610960 1_545
Os0 Sb7 2.610960 1_554
Os0 Sb8 2.630366 1_544
Os0 Sb9 2.630366 1_555
Os0 Sb3 2.634691 1_555
Os0 Sb2 2.634691 1_544
Os1 Sb7 2.610960 1_555
Os1 Sb6 2.610960 1_445
Os1 Sb11 2.630366 1_455
Os1 Sb10 2.630366 1_545
Os1 Sb1 2.634691 1_555
Os1 Sb0 2.634691 1_445
