# generated using pymatgen
data_Sc5W2C7
_symmetry_space_group_name_H-M   'P 1'
_cell_length_a   3.22208814
_cell_length_b   7.90007230
_cell_length_c   7.98178808
_cell_angle_alpha   60.33808548
_cell_angle_beta   90.00000000
_cell_angle_gamma   90.00000000
_symmetry_Int_Tables_number   1
_chemical_formula_structural   Sc5W2C7
_chemical_formula_sum   'Sc5 W2 C7'
_cell_volume   176.55043477
_cell_formula_units_Z   1
loop_
 _symmetry_equiv_pos_site_id
 _symmetry_equiv_pos_as_xyz
  1  'x, y, z'
loop_
 _atom_site_type_symbol
 _atom_site_label
 _atom_site_symmetry_multiplicity
 _atom_site_fract_x
 _atom_site_fract_y
 _atom_site_fract_z
 _atom_site_occupancy
  Sc  Sc0  1  0.00000000  0.50000000  0.00000000  1
  Sc  Sc1  1  0.50000000  0.08060173  0.25562958  1
  Sc  Sc2  1  0.50000000  0.66376869  0.25562958  1
  Sc  Sc3  1  0.50000000  0.33623231  0.74436942  1
  Sc  Sc4  1  0.50000000  0.91939827  0.74436942  1
  W  W0  1  0.00000000  0.28642259  0.42715283  1
  W  W1  1  0.00000000  0.71357741  0.57284617  1
  C  C0  1  0.00000000  0.00000000  0.00000000  1
  C  C1  1  0.00000000  0.17004040  0.00000000  1
  C  C2  1  0.00000000  0.82995960  1.00000000  1
  C  C3  1  0.50000000  0.38232654  0.23534592  1
  C  C4  1  0.00000000  0.99999900  0.50000000  1
  C  C5  1  0.00000000  0.49999900  0.50000000  1
  C  C6  1  0.50000000  0.61767346  0.76465508  1
loop_
_geom_bond_atom_site_label_1
_geom_bond_atom_site_label_2
_geom_bond_distance
_geom_bond_site_symmetry_2
C0 C2 1.343331 1_544
C0 C1 1.343331 1_555
C1 Sc1 2.414735 1_455
C1 Sc1 2.414735 1_555
C1 Sc3 2.414741 1_554
C1 Sc3 2.414741 1_454
C1 Sc0 2.606705 1_555
C2 Sc2 2.414735 1_456
C2 Sc2 2.414735 1_556
C2 Sc4 2.414741 1_555
C2 Sc4 2.414741 1_455
C2 Sc0 2.606705 1_556
C3 W0 2.089326 1_655
C3 W0 2.089326 1_555
C3 Sc0 2.293459 1_655
C3 Sc0 2.293459 1_555
C3 Sc1 2.307819 1_555
C3 Sc2 2.307827 1_555
C4 W1 2.038609 1_555
C4 W0 2.038622 1_565
C4 Sc4 2.361379 1_555
C4 Sc4 2.361379 1_455
C4 Sc1 2.361383 1_565
C4 Sc1 2.361383 1_465
C5 W0 2.038623 1_555
C5 W1 2.038632 1_555
C5 Sc3 2.361377 1_555
C5 Sc3 2.361377 1_455
C5 Sc2 2.361385 1_455
C5 Sc2 2.361385 1_555
C6 W1 2.089335 1_655
C6 W1 2.089335 1_555
C6 Sc0 2.293454 1_556
C6 Sc0 2.293454 1_656
C6 Sc4 2.307812 1_555
C6 Sc3 2.307827 1_555
