# generated using pymatgen
data_Rb2NaBS3
_symmetry_space_group_name_H-M   'P 1'
_cell_length_a   7.72500177
_cell_length_b   7.72500138
_cell_length_c   10.25817462
_cell_angle_alpha   58.34302206
_cell_angle_beta   58.34302484
_cell_angle_gamma   58.21542645
_symmetry_Int_Tables_number   1
_chemical_formula_structural   Rb2NaBS3
_chemical_formula_sum   'Rb4 Na2 B2 S6'
_cell_volume   416.01582346
_cell_formula_units_Z   2
loop_
 _symmetry_equiv_pos_site_id
 _symmetry_equiv_pos_as_xyz
  1  'x, y, z'
loop_
 _atom_site_type_symbol
 _atom_site_label
 _atom_site_symmetry_multiplicity
 _atom_site_fract_x
 _atom_site_fract_y
 _atom_site_fract_z
 _atom_site_occupancy
  Rb  Rb0  1  0.37542423  0.81444866  0.98740018  1
  Rb  Rb1  1  0.81444866  0.37542423  0.48740018  1
  Rb  Rb2  1  0.62457577  0.18555134  0.01259982  1
  Rb  Rb3  1  0.18555134  0.62457577  0.51259982  1
  Na  Na0  1  0.00000000  0.50000000  0.00000000  1
  Na  Na1  1  0.50000000  0.00000000  0.50000000  1
  B  B0  1  0.89979841  0.10020159  0.25000000  1
  B  B1  1  0.10020159  0.89979841  0.75000000  1
  S  S0  1  0.11078111  0.15107914  0.71814964  1
  S  S1  1  0.84892086  0.88921889  0.78185036  1
  S  S2  1  0.88921889  0.84892086  0.28185036  1
  S  S3  1  0.15107914  0.11078111  0.21814964  1
  S  S4  1  0.34659105  0.65340895  0.75000000  1
  S  S5  1  0.65340895  0.34659105  0.25000000  1
loop_
_geom_bond_atom_site_label_1
_geom_bond_atom_site_label_2
_geom_bond_distance
_geom_bond_site_symmetry_2
Rb0 S1 3.318204 1_555
Rb0 S3 3.324031 1_566
Rb0 S2 3.344225 1_456
Rb0 S0 3.370147 1_565
Rb0 S4 3.401352 1_555
Rb0 S5 3.550621 1_556
Rb1 S2 3.318204 1_555
Rb1 S0 3.324031 1_655
Rb1 S1 3.344224 1_545
Rb1 S3 3.370147 1_655
Rb1 S5 3.401352 1_555
Rb1 S4 3.550622 1_555
Rb2 S3 3.318204 1_555
Rb2 S1 3.324031 1_544
Rb2 S0 3.344225 1_654
Rb2 S2 3.370147 1_545
Rb2 S5 3.401352 1_555
Rb2 S4 3.550621 1_554
Rb3 S0 3.318204 1_555
Rb3 S2 3.324031 1_455
Rb3 S3 3.344224 1_565
Rb3 S1 3.370147 1_455
Rb3 S4 3.401352 1_555
Rb3 S5 3.550622 1_555
Na0 S3 2.718892 1_555
Na0 S1 2.718892 1_454
Na0 S4 2.845158 1_554
Na0 S5 2.845158 1_455
Na1 S0 2.718892 1_555
Na1 S2 2.718892 1_545
Na1 S5 2.845158 1_555
Na1 S4 2.845158 1_545
B0 S2 1.831623 1_545
B0 S3 1.831623 1_655
B0 S5 1.851789 1_555
B1 S0 1.831623 1_565
B1 S1 1.831623 1_455
B1 S4 1.851789 1_555
