# generated using pymatgen
data_CsRb2As2Pt3
_symmetry_space_group_name_H-M   'P 1'
_cell_length_a   8.12141457
_cell_length_b   8.12141472
_cell_length_c   8.12141515
_cell_angle_alpha   41.95121395
_cell_angle_beta   41.95121478
_cell_angle_gamma   41.95121208
_symmetry_Int_Tables_number   1
_chemical_formula_structural   CsRb2As2Pt3
_chemical_formula_sum   'Cs1 Rb2 As2 Pt3'
_cell_volume   216.51837135
_cell_formula_units_Z   1
loop_
 _symmetry_equiv_pos_site_id
 _symmetry_equiv_pos_as_xyz
  1  'x, y, z'
loop_
 _atom_site_type_symbol
 _atom_site_label
 _atom_site_symmetry_multiplicity
 _atom_site_fract_x
 _atom_site_fract_y
 _atom_site_fract_z
 _atom_site_occupancy
  Cs  Cs0  1  0.50000000  0.50000000  0.50000000  1
  Rb  Rb0  1  0.08451637  0.08451637  0.08451637  1
  Rb  Rb1  1  0.91548363  0.91548363  0.91548363  1
  As  As0  1  0.25265326  0.25265326  0.25265326  1
  As  As1  1  0.74734674  0.74734674  0.74734674  1
  Pt  Pt0  1  0.50000000  0.50000000  0.00000000  1
  Pt  Pt1  1  0.50000000  0.00000000  0.50000000  1
  Pt  Pt2  1  0.00000000  0.50000000  0.50000000  1
loop_
_geom_bond_atom_site_label_1
_geom_bond_atom_site_label_2
_geom_bond_distance
_geom_bond_site_symmetry_2
Cs0 Rb1 3.819808 1_545
Cs0 Rb0 3.819808 1_565
Cs0 Rb1 3.819808 1_554
Cs0 Rb0 3.819808 1_556
Cs0 Rb1 3.819808 1_455
Cs0 Rb0 3.819808 1_655
Cs0 Pt2 4.060707 1_555
Cs0 Pt2 4.060707 1_655
Cs0 Pt1 4.060707 1_555
Cs0 Pt1 4.060707 1_565
Cs0 Pt0 4.060708 1_555
Cs0 Pt0 4.060708 1_556
As0 Pt0 2.453801 1_555
As0 Pt1 2.453801 1_555
As0 Pt2 2.453801 1_555
As0 Rb1 3.358055 1_454
As0 Rb1 3.358055 1_544
As0 Rb1 3.358055 1_445
As0 Rb0 3.730187 1_555
As0 Cs0 3.861141 1_455
As0 Cs0 3.861141 1_545
As0 Cs0 3.861141 1_554
As1 Pt0 2.453801 1_556
As1 Pt1 2.453801 1_565
As1 Pt2 2.453801 1_655
As1 Rb0 3.358055 1_656
As1 Rb0 3.358055 1_566
As1 Rb0 3.358055 1_665
As1 Rb1 3.730187 1_555
As1 Cs0 3.861141 1_655
As1 Cs0 3.861141 1_565
As1 Cs0 3.861141 1_556
Pt0 Pt1 2.907227 1_555
Pt0 Pt1 2.907227 1_564
Pt0 Pt2 2.907227 1_555
Pt0 Pt2 2.907227 1_654
Pt0 Rb0 3.459437 1_655
Pt0 Rb1 3.459437 1_454
Pt0 Rb0 3.459437 1_565
Pt0 Rb1 3.459437 1_544
Pt1 Pt2 2.907226 1_645
Pt1 Pt2 2.907226 1_555
Pt1 Rb0 3.459437 1_655
Pt1 Rb1 3.459437 1_445
Pt1 Rb0 3.459438 1_556
Pt1 Rb1 3.459438 1_544
Pt2 Rb0 3.459437 1_565
Pt2 Rb1 3.459437 1_445
Pt2 Rb0 3.459438 1_556
Pt2 Rb1 3.459438 1_454
