# generated using pymatgen
data_Nd5ErS8
_symmetry_space_group_name_H-M   'P 1'
_cell_length_a   7.39907927
_cell_length_b   7.39907927
_cell_length_c   7.39907927
_cell_angle_alpha   109.70389315
_cell_angle_beta   109.70389315
_cell_angle_gamma   109.00687111
_symmetry_Int_Tables_number   1
_chemical_formula_structural   Nd5ErS8
_chemical_formula_sum   'Nd5 Er1 S8'
_cell_volume   311.80981051
_cell_formula_units_Z   1
loop_
 _symmetry_equiv_pos_site_id
 _symmetry_equiv_pos_as_xyz
  1  'x, y, z'
loop_
 _atom_site_type_symbol
 _atom_site_label
 _atom_site_symmetry_multiplicity
 _atom_site_fract_x
 _atom_site_fract_y
 _atom_site_fract_z
 _atom_site_occupancy
  Nd  Nd0  1  0.62408600  0.75106800  0.62319600  1
  Nd  Nd1  1  0.99911000  0.37591400  0.12698200  1
  Nd  Nd2  1  0.12787200  0.00089000  0.37680400  1
  Nd  Nd3  1  0.50000000  0.50000000  0.00000000  1
  Nd  Nd4  1  0.24893200  0.87212800  0.87301800  1
  Er  Er0  1  0.75000000  0.25000000  0.50000000  1
  S  S0  1  0.72724500  0.98208100  0.11238800  1
  S  S1  1  0.86969300  0.61485600  0.88761200  1
  S  S2  1  0.52877200  0.12545400  0.74901400  1
  S  S3  1  0.87454600  0.62356000  0.40331800  1
  S  S4  1  0.22024200  0.47122800  0.59668200  1
  S  S5  1  0.38514400  0.27275500  0.25483700  1
  S  S6  1  0.01791900  0.13030700  0.74516300  1
  S  S7  1  0.37644000  0.77975800  0.25098600  1
loop_
_geom_bond_atom_site_label_1
_geom_bond_atom_site_label_2
_geom_bond_distance
_geom_bond_site_symmetry_2
Nd0 S7 2.869131 1_555
Nd0 S1 2.875932 1_555
Nd0 S6 2.893561 1_665
Nd0 S4 2.924914 1_555
Nd0 S2 3.002297 1_565
Nd0 S3 3.017939 1_555
Nd0 S5 3.041385 1_555
Nd0 S0 3.117825 1_556
Nd1 S3 2.869131 1_555
Nd1 S6 2.875932 1_654
Nd1 S0 2.893558 1_545
Nd1 S7 2.924914 1_655
Nd1 S4 3.002297 1_655
Nd1 S2 3.017939 1_554
Nd1 S1 3.041380 1_554
Nd1 S5 3.117832 1_655
Nd2 S2 2.869131 1_555
Nd2 S0 2.875926 1_445
Nd2 S5 2.893557 1_555
Nd2 S3 2.924914 1_445
Nd2 S7 3.002297 1_545
Nd2 S4 3.017939 1_555
Nd2 S6 3.041380 1_555
Nd2 S1 3.117827 1_444
Nd3 S3 2.890432 1_555
Nd3 S7 2.890432 1_555
Nd3 S4 2.890432 1_554
Nd3 S2 2.890432 1_554
Nd3 S1 3.064682 1_554
Nd3 S6 3.064682 1_554
Nd3 S0 3.064682 1_555
Nd3 S5 3.064687 1_555
Nd4 S4 2.869131 1_555
Nd4 S5 2.875928 1_566
Nd4 S1 2.893561 1_455
Nd4 S2 2.924914 1_565
Nd4 S3 3.002297 1_455
Nd4 S7 3.017939 1_556
Nd4 S0 3.041387 1_556
Nd4 S6 3.117827 1_565
Er0 S5 2.794022 1_555
Er0 S6 2.794026 1_655
Er0 S1 2.794026 1_555
Er0 S0 2.794030 1_545
Er0 S7 3.019831 1_545
Er0 S2 3.019831 1_555
Er0 S4 3.019831 1_655
Er0 S3 3.019831 1_555
