# generated using pymatgen
data_KCr4(SbO6)2
_symmetry_space_group_name_H-M   'P 1'
_cell_length_a   8.45425846
_cell_length_b   8.45425877
_cell_length_c   8.45425825
_cell_angle_alpha   106.56181350
_cell_angle_beta   106.56181783
_cell_angle_gamma   115.46125342
_symmetry_Int_Tables_number   1
_chemical_formula_structural   KCr4(SbO6)2
_chemical_formula_sum   'K2 Cr8 Sb4 O24'
_cell_volume   461.30986320
_cell_formula_units_Z   2
loop_
 _symmetry_equiv_pos_site_id
 _symmetry_equiv_pos_as_xyz
  1  'x, y, z'
loop_
 _atom_site_type_symbol
 _atom_site_label
 _atom_site_symmetry_multiplicity
 _atom_site_fract_x
 _atom_site_fract_y
 _atom_site_fract_z
 _atom_site_occupancy
  K  K0  1  0.21496495  0.21496495  1.00000000  1
  K  K1  1  0.78503505  0.78503505  0.00000000  1
  Cr  Cr0  1  0.98503454  0.50037909  0.81721357  1
  Cr  Cr1  1  0.68316652  0.16782198  0.18278643  1
  Cr  Cr2  1  0.16782198  0.98503454  0.48465545  1
  Cr  Cr3  1  0.50037909  0.68316652  0.51534455  1
  Cr  Cr4  1  0.01496546  0.49962091  0.18278643  1
  Cr  Cr5  1  0.31683348  0.83217802  0.81721357  1
  Cr  Cr6  1  0.83217802  0.01496546  0.51534455  1
  Cr  Cr7  1  0.49962091  0.31683348  0.48465545  1
  Sb  Sb0  1  0.65052666  0.16505963  0.81558729  1
  Sb  Sb1  1  0.34947334  0.83494037  0.18441271  1
  Sb  Sb2  1  0.83494037  0.65052666  0.48546803  1
  Sb  Sb3  1  0.16505963  0.34947334  0.51453197  1
  O  O0  1  0.84668257  0.20372948  0.05041205  1
  O  O1  1  0.15331743  0.79627052  0.94958795  1
  O  O2  1  0.79627052  0.84668257  0.64295209  1
  O  O3  1  0.20372948  0.15331743  0.35704791  1
  O  O4  1  0.17592111  0.53691461  0.04905123  1
  O  O5  1  0.48786339  0.12687088  0.95094877  1
  O  O6  1  0.12687088  0.17592111  0.63900650  1
  O  O7  1  0.53691461  0.48786339  0.36099350  1
  O  O8  1  0.82407889  0.46308539  0.95094877  1
  O  O9  1  0.51213661  0.87312912  0.04905123  1
  O  O10  1  0.87312912  0.82407889  0.36099350  1
  O  O11  1  0.46308539  0.51213661  0.63900650  1
  O  O12  1  0.45647187  0.16282556  0.61929843  1
  O  O13  1  0.54352813  0.83717444  0.38070157  1
  O  O14  1  0.83717444  0.45647187  0.29364631  1
  O  O15  1  0.16282556  0.54352813  0.70635369  1
  O  O16  1  0.79199306  0.49626044  0.62427799  1
  O  O17  1  0.87198245  0.16771507  0.37572201  1
  O  O18  1  0.16771507  0.79199306  0.29573262  1
  O  O19  1  0.49626044  0.87198245  0.70426738  1
  O  O20  1  0.20800694  0.50373956  0.37572201  1
  O  O21  1  0.12801755  0.83228493  0.62427799  1
  O  O22  1  0.83228493  0.20800694  0.70426738  1
  O  O23  1  0.50373956  0.12801755  0.29573262  1
loop_
_geom_bond_atom_site_label_1
_geom_bond_atom_site_label_2
_geom_bond_distance
_geom_bond_site_symmetry_2
K0 O5 2.810050 1_555
K0 O4 2.810054 1_556
K0 O7 2.810055 1_556
K0 O6 2.810055 1_555
K0 O0 3.226483 1_456
K0 O1 3.226484 1_545
K0 O2 3.226487 1_445
K0 O3 3.226492 1_556
K1 O9 2.810050 1_555
K1 O8 2.810054 1_554
K1 O11 2.810055 1_554
K1 O10 2.810055 1_555
K1 O1 3.226483 1_654
K1 O0 3.226484 1_565
K1 O3 3.226487 1_665
K1 O2 3.226492 1_554
Cr0 O16 1.930394 1_555
Cr0 O15 1.948685 1_655
Cr0 O22 1.973859 1_555
Cr0 O8 1.985159 1_555
Cr0 O4 1.991088 1_656
Cr0 O1 1.992619 1_655
Cr1 O17 1.930394 1_555
Cr1 O14 1.948679 1_555
Cr1 O23 1.973866 1_555
Cr1 O9 1.985173 1_545
Cr1 O5 1.991092 1_554
Cr1 O0 1.992612 1_555
Cr2 O18 1.930389 1_555
Cr2 O12 1.948679 1_565
Cr2 O21 1.973859 1_555
Cr2 O10 1.985173 1_455
Cr2 O6 1.991088 1_565
Cr2 O3 1.992612 1_565
Cr3 O19 1.930389 1_555
Cr3 O13 1.948686 1_555
Cr3 O20 1.973860 1_555
Cr3 O11 1.985166 1_555
Cr3 O7 1.991094 1_555
Cr3 O2 1.992619 1_555
Cr4 O20 1.930394 1_555
Cr4 O14 1.948685 1_455
Cr4 O18 1.973859 1_555
Cr4 O4 1.985159 1_555
Cr4 O8 1.991088 1_454
Cr4 O0 1.992619 1_455
Cr5 O21 1.930394 1_555
Cr5 O15 1.948679 1_555
Cr5 O19 1.973866 1_555
Cr5 O5 1.985173 1_565
Cr5 O9 1.991092 1_556
Cr5 O1 1.992612 1_555
Cr6 O22 1.930389 1_555
Cr6 O13 1.948679 1_545
Cr6 O17 1.973859 1_555
Cr6 O6 1.985173 1_655
Cr6 O10 1.991088 1_545
Cr6 O2 1.992612 1_545
Cr7 O23 1.930389 1_555
Cr7 O12 1.948686 1_555
Cr7 O16 1.973860 1_555
Cr7 O7 1.985166 1_555
Cr7 O11 1.991094 1_555
Cr7 O3 1.992619 1_555
O0 Sb0 2.021193 1_554
O1 Sb1 2.021193 1_556
O2 Sb2 2.021191 1_555
O3 Sb3 2.021191 1_555
O4 Sb1 2.007766 1_555
O5 Sb0 2.007759 1_555
O6 Sb3 2.007773 1_555
O7 Sb2 2.007766 1_555
O8 Sb0 2.007766 1_555
O9 Sb1 2.007759 1_555
O10 Sb2 2.007773 1_555
O11 Sb3 2.007766 1_555
O12 Sb0 1.961921 1_555
O13 Sb1 1.961921 1_555
O14 Sb2 1.961926 1_555
O15 Sb3 1.961926 1_555
O16 Sb2 1.979468 1_555
O17 Sb3 1.979475 1_655
O18 Sb1 1.979481 1_555
O19 Sb0 1.979475 1_565
O20 Sb3 1.979468 1_555
O21 Sb2 1.979475 1_455
O22 Sb0 1.979481 1_555
O23 Sb1 1.979475 1_545
