# generated using pymatgen
data_Na3CrFeN4
_symmetry_space_group_name_H-M   'P 1'
_cell_length_a   5.48630346
_cell_length_b   9.41562948
_cell_length_c   9.29827158
_cell_angle_alpha   90.00000000
_cell_angle_beta   90.00000000
_cell_angle_gamma   90.00000000
_symmetry_Int_Tables_number   1
_chemical_formula_structural   Na3CrFeN4
_chemical_formula_sum   'Na12 Cr4 Fe4 N16'
_cell_volume   480.32082074
_cell_formula_units_Z   4
loop_
 _symmetry_equiv_pos_site_id
 _symmetry_equiv_pos_as_xyz
  1  'x, y, z'
loop_
 _atom_site_type_symbol
 _atom_site_label
 _atom_site_symmetry_multiplicity
 _atom_site_fract_x
 _atom_site_fract_y
 _atom_site_fract_z
 _atom_site_occupancy
  Na  Na0  1  0.63943518  0.15870110  0.41767061  1
  Na  Na1  1  0.86056482  0.84129890  0.41767061  1
  Na  Na2  1  0.63943518  0.34129890  0.08232939  1
  Na  Na3  1  0.86056482  0.65870110  0.08232939  1
  Na  Na4  1  0.36056482  0.84129890  0.58232939  1
  Na  Na5  1  0.13943518  0.15870110  0.58232939  1
  Na  Na6  1  0.36056482  0.65870110  0.91767061  1
  Na  Na7  1  0.13943518  0.34129890  0.91767061  1
  Na  Na8  1  0.75000000  0.50000000  0.41103233  1
  Na  Na9  1  0.75000000  0.00000000  0.08896767  1
  Na  Na10  1  0.25000000  0.50000000  0.58896767  1
  Na  Na11  1  0.25000000  0.00000000  0.91103233  1
  Cr  Cr0  1  0.75000000  0.50000000  0.73762140  1
  Cr  Cr1  1  0.75000000  0.00000000  0.76237860  1
  Cr  Cr2  1  0.25000000  0.50000000  0.26237860  1
  Cr  Cr3  1  0.25000000  0.00000000  0.23762140  1
  Fe  Fe0  1  0.69872355  0.25000000  0.75000000  1
  Fe  Fe1  1  0.80127645  0.75000000  0.75000000  1
  Fe  Fe2  1  0.30127645  0.75000000  0.25000000  1
  Fe  Fe3  1  0.19872355  0.25000000  0.25000000  1
  N  N0  1  0.88824688  0.36077088  0.63712737  1
  N  N1  1  0.61175312  0.63922912  0.63712737  1
  N  N2  1  0.88824688  0.13922912  0.86287263  1
  N  N3  1  0.61175312  0.86077088  0.86287263  1
  N  N4  1  0.11175312  0.63922912  0.36287263  1
  N  N5  1  0.38824688  0.36077088  0.36287263  1
  N  N6  1  0.11175312  0.86077088  0.13712737  1
  N  N7  1  0.38824688  0.13922912  0.13712737  1
  N  N8  1  0.54183987  0.39687515  0.83812325  1
  N  N9  1  0.95816013  0.60312485  0.83812325  1
  N  N10  1  0.54183987  0.10312485  0.66187675  1
  N  N11  1  0.95816013  0.89687515  0.66187675  1
  N  N12  1  0.45816013  0.60312485  0.16187675  1
  N  N13  1  0.04183987  0.39687515  0.16187675  1
  N  N14  1  0.45816013  0.89687515  0.33812325  1
  N  N15  1  0.04183987  0.10312485  0.33812325  1
loop_
_geom_bond_atom_site_label_1
_geom_bond_atom_site_label_2
_geom_bond_distance
_geom_bond_site_symmetry_2
Cr0 N9 1.766443 1_555
Cr0 N8 1.766443 1_555
Cr0 N0 1.779592 1_555
Cr0 N1 1.779592 1_555
Cr1 N10 1.766443 1_555
Cr1 N11 1.766443 1_545
Cr1 N2 1.779592 1_555
Cr1 N3 1.779592 1_545
Cr2 N12 1.766443 1_555
Cr2 N13 1.766443 1_555
Cr2 N5 1.779592 1_555
Cr2 N4 1.779592 1_555
Cr3 N15 1.766443 1_555
Cr3 N14 1.766443 1_545
Cr3 N7 1.779592 1_555
Cr3 N6 1.779592 1_545
Fe0 N2 1.808437 1_555
Fe0 N0 1.808437 1_555
Fe0 N8 1.823377 1_555
Fe0 N10 1.823377 1_555
Fe1 N3 1.808437 1_555
Fe1 N1 1.808437 1_555
Fe1 N11 1.823377 1_555
Fe1 N9 1.823377 1_555
Fe2 N4 1.808437 1_555
Fe2 N6 1.808437 1_555
Fe2 N14 1.823377 1_555
Fe2 N12 1.823377 1_555
Fe3 N5 1.808437 1_555
Fe3 N7 1.808437 1_555
Fe3 N13 1.823377 1_555
Fe3 N15 1.823377 1_555
N0 Na5 2.403894 1_655
N0 Na10 2.420340 1_655
N0 Na8 2.591031 1_555
N1 Na4 2.403894 1_555
N1 Na10 2.420340 1_555
N1 Na8 2.591031 1_555
N2 Na7 2.403894 1_655
N2 Na11 2.420340 1_655
N2 Na9 2.591031 1_556
N3 Na6 2.403894 1_555
N3 Na11 2.420340 1_565
N3 Na9 2.591031 1_566
N4 Na1 2.403894 1_455
N4 Na8 2.420340 1_455
N4 Na10 2.591031 1_555
N5 Na0 2.403894 1_555
N5 Na8 2.420340 1_555
N5 Na10 2.591031 1_555
N6 Na3 2.403894 1_455
N6 Na9 2.420340 1_465
N6 Na11 2.591031 1_564
N7 Na2 2.403894 1_555
N7 Na9 2.420340 1_555
N7 Na11 2.591031 1_554
N8 Na7 2.386402 1_555
N8 Na2 2.390936 1_556
N8 Na6 2.759287 1_555
N8 Na10 2.978855 1_555
N9 Na6 2.386402 1_655
N9 Na3 2.390936 1_556
N9 Na7 2.759287 1_655
N9 Na10 2.978855 1_655
N10 Na5 2.386402 1_555
N10 Na0 2.390936 1_555
N10 Na4 2.759287 1_545
N10 Na11 2.978855 1_555
N11 Na4 2.386402 1_655
N11 Na1 2.390936 1_555
N11 Na5 2.759287 1_665
N11 Na11 2.978855 1_665
N12 Na3 2.386402 1_555
N12 Na6 2.390936 1_554
N12 Na2 2.759287 1_555
N12 Na8 2.978855 1_555
N13 Na2 2.386402 1_455
N13 Na7 2.390936 1_554
N13 Na3 2.759287 1_455
N13 Na8 2.978855 1_455
N14 Na1 2.386402 1_555
N14 Na4 2.390936 1_555
N14 Na0 2.759287 1_565
N14 Na9 2.978855 1_565
N15 Na0 2.386402 1_455
N15 Na5 2.390936 1_555
N15 Na1 2.759287 1_445
N15 Na9 2.978855 1_455
