# generated using pymatgen
data_CeAl4Ni
_symmetry_space_group_name_H-M   'P 1'
_cell_length_a   4.10323918
_cell_length_b   6.60511109
_cell_length_c   8.04856591
_cell_angle_alpha   90.00000000
_cell_angle_beta   104.76795366
_cell_angle_gamma   90.00000000
_symmetry_Int_Tables_number   1
_chemical_formula_structural   CeAl4Ni
_chemical_formula_sum   'Ce2 Al8 Ni2'
_cell_volume   210.92920621
_cell_formula_units_Z   2
loop_
 _symmetry_equiv_pos_site_id
 _symmetry_equiv_pos_as_xyz
  1  'x, y, z'
loop_
 _atom_site_type_symbol
 _atom_site_label
 _atom_site_symmetry_multiplicity
 _atom_site_fract_x
 _atom_site_fract_y
 _atom_site_fract_z
 _atom_site_occupancy
  Ce  Ce0  1  0.11472052  0.75000100  0.22944105  1
  Ce  Ce1  1  0.88527948  0.24999900  0.77055895  1
  Al  Al0  1  0.50000000  -0.00000000  -0.00000000  1
  Al  Al1  1  0.50000000  0.50000000  -0.00000000  1
  Al  Al2  1  0.07857210  0.25000000  0.15714421  1
  Al  Al3  1  0.92142790  0.75000000  0.84285579  1
  Al  Al4  1  0.69087715  0.05431383  0.38175529  1
  Al  Al5  1  0.30912285  0.94568617  0.61824471  1
  Al  Al6  1  0.30912285  0.55431383  0.61824471  1
  Al  Al7  1  0.69087715  0.44568617  0.38175529  1
  Ni  Ni0  1  0.77366923  0.75000000  0.54733946  1
  Ni  Ni1  1  0.22633077  0.25000000  0.45266054  1
loop_
_geom_bond_atom_site_label_1
_geom_bond_atom_site_label_2
_geom_bond_distance
_geom_bond_site_symmetry_2
Ce0 Ni0 3.214083 1_555
Ce0 Ni0 3.214086 1_455
Ce1 Ni1 3.214083 1_555
Ce1 Ni1 3.214086 1_655
Al0 Al3 2.903722 1_544
Al0 Al2 2.903722 1_555
Al0 Al2 2.903722 1_655
Al0 Al3 2.903722 1_444
Al0 Al5 2.992664 1_544
Al0 Al4 2.992664 1_555
Al0 Ce1 3.181894 1_554
Al0 Ce0 3.181894 1_545
Al0 Ce1 3.181894 1_454
Al0 Ce0 3.181894 1_645
Al1 Al3 2.903722 1_554
Al1 Al2 2.903722 1_555
Al1 Al2 2.903722 1_655
Al1 Al3 2.903722 1_454
Al1 Al6 2.992664 1_554
Al1 Al7 2.992664 1_555
Al1 Ce0 3.181901 1_555
Al1 Ce1 3.181901 1_554
Al1 Ce0 3.181901 1_655
Al1 Ce1 3.181901 1_454
Al2 Ni1 2.299912 1_555
Al2 Al7 2.989238 1_555
Al2 Al4 2.989238 1_555
Al2 Al4 2.989241 1_455
Al2 Al7 2.989241 1_455
Al2 Ce1 3.008673 1_454
Al2 Ce0 3.350137 1_545
Al2 Ce0 3.350150 1_555
Al3 Ni0 2.299912 1_555
Al3 Al5 2.989238 1_555
Al3 Al6 2.989238 1_555
Al3 Al6 2.989241 1_655
Al3 Al5 2.989241 1_655
Al3 Ce0 3.008673 1_656
Al3 Ce1 3.350137 1_565
Al3 Ce1 3.350150 1_555
Al4 Ni0 2.387662 1_545
Al4 Ni1 2.486821 1_555
Al4 Ni1 2.486828 1_655
Al4 Al7 2.585058 1_555
Al4 Al5 2.848062 1_545
Al4 Al5 2.848068 1_645
Al4 Ce0 3.107173 1_545
Al4 Ce0 3.107175 1_645
Al4 Ce1 3.290428 1_555
Al5 Ni1 2.387662 1_565
Al5 Ni0 2.486821 1_555
Al5 Ni0 2.486828 1_455
Al5 Al6 2.585058 1_555
Al5 Ce1 3.107173 1_565
Al5 Ce1 3.107175 1_465
Al5 Ce0 3.290428 1_555
Al6 Ni1 2.387662 1_555
Al6 Ni0 2.486821 1_555
Al6 Ni0 2.486828 1_455
Al6 Al7 2.848062 1_555
Al6 Al7 2.848068 1_455
Al6 Ce1 3.107181 1_555
Al6 Ce1 3.107184 1_455
Al6 Ce0 3.290433 1_555
Al7 Ni0 2.387662 1_555
Al7 Ni1 2.486821 1_555
Al7 Ni1 2.486828 1_655
Al7 Ce0 3.107181 1_555
Al7 Ce0 3.107184 1_655
Al7 Ce1 3.290433 1_555
