# generated using pymatgen
data_Zr5ZnSn2Bi
_symmetry_space_group_name_H-M   'P 1'
_cell_length_a   8.73402654
_cell_length_b   8.72728257
_cell_length_c   5.88460595
_cell_angle_alpha   90.00000000
_cell_angle_beta   90.00000000
_cell_angle_gamma   119.97446152
_symmetry_Int_Tables_number   1
_chemical_formula_structural   Zr5ZnSn2Bi
_chemical_formula_sum   'Zr10 Zn2 Sn4 Bi2'
_cell_volume   388.55568571
_cell_formula_units_Z   2
loop_
 _symmetry_equiv_pos_site_id
 _symmetry_equiv_pos_as_xyz
  1  'x, y, z'
loop_
 _atom_site_type_symbol
 _atom_site_label
 _atom_site_symmetry_multiplicity
 _atom_site_fract_x
 _atom_site_fract_y
 _atom_site_fract_z
 _atom_site_occupancy
  Zr  Zr0  1  0.66913820  0.33530601  0.00306563  1
  Zr  Zr1  1  0.33086180  0.66616981  0.00306563  1
  Zr  Zr2  1  0.33086180  0.66616981  0.49693437  1
  Zr  Zr3  1  0.66913820  0.33530601  0.49693437  1
  Zr  Zr4  1  0.73962002  0.73462972  0.75000000  1
  Zr  Zr5  1  0.26037998  0.99500970  0.75000000  1
  Zr  Zr6  1  1.00000000  0.26613840  0.75000000  1
  Zr  Zr7  1  0.26670345  0.26761809  0.25000000  1
  Zr  Zr8  1  0.73329655  0.00091464  0.25000000  1
  Zr  Zr9  1  0.00000000  0.73208266  0.25000000  1
  Zn  Zn0  1  0.00000000  0.99999088  0.00476132  1
  Zn  Zn1  1  0.00000000  0.99999088  0.49523868  1
  Sn  Sn0  1  1.00000000  0.61231168  0.75000000  1
  Sn  Sn1  1  0.61668264  0.61743250  0.25000000  1
  Sn  Sn2  1  0.38331736  0.00074986  0.25000000  1
  Sn  Sn3  1  0.00000000  0.38493835  0.25000000  1
  Bi  Bi0  1  0.38700608  0.38612405  0.75000000  1
  Bi  Bi1  1  0.61299392  0.99911797  0.75000000  1
loop_
_geom_bond_atom_site_label_1
_geom_bond_atom_site_label_2
_geom_bond_distance
_geom_bond_site_symmetry_2
Zr0 Zr3 2.906223 1_555
Zr0 Zr3 2.978383 1_554
Zr1 Zr2 2.906223 1_555
Zr1 Zr2 2.978383 1_554
Zn0 Zr4 2.742265 1_454
Zn0 Zr5 2.742265 1_554
Zn0 Zr7 2.743637 1_565
Zn0 Zr8 2.743637 1_465
Zn0 Zr9 2.747616 1_555
Zn0 Zr6 2.764535 1_464
Zn0 Zn1 2.886266 1_555
Zn0 Zn1 2.998340 1_554
Zn1 Zr4 2.742265 1_455
Zn1 Zr5 2.742265 1_555
Zn1 Zr7 2.743637 1_565
Zn1 Zr8 2.743637 1_465
Zn1 Zr9 2.747616 1_555
Zn1 Zr6 2.764535 1_465
Sn0 Zr5 2.955876 1_655
Sn0 Zr4 2.955876 1_555
Sn0 Zr6 3.021152 1_555
Sn0 Zr1 3.071168 1_656
Sn0 Zr2 3.071168 1_655
Sn0 Zr0 3.071174 1_556
Sn0 Zr3 3.071174 1_555
Sn0 Zr9 3.122458 1_655
Sn0 Zr9 3.122458 1_656
Sn1 Zr8 2.971880 1_565
Sn1 Zr9 2.976971 1_655
Sn1 Zr7 3.056009 1_555
Sn1 Zr3 3.083996 1_555
Sn1 Zr0 3.083996 1_555
Sn1 Zr2 3.096012 1_555
Sn1 Zr1 3.096012 1_555
Sn1 Zr4 3.123911 1_555
Sn1 Zr4 3.123911 1_554
Sn2 Zr7 2.971880 1_555
Sn2 Zr9 2.976971 1_545
Sn2 Zr8 3.056009 1_555
Sn2 Zr2 3.083981 1_545
Sn2 Zr1 3.083981 1_545
Sn2 Zr3 3.096003 1_555
Sn2 Zr0 3.096003 1_555
Sn2 Zr5 3.123911 1_544
Sn2 Zr5 3.123911 1_545
Sn3 Zr8 2.976176 1_455
Sn3 Zr7 2.976176 1_555
Sn3 Zr9 3.029626 1_555
Sn3 Zr3 3.065795 1_455
Sn3 Zr0 3.065795 1_455
Sn3 Zr2 3.065801 1_555
Sn3 Zr1 3.065801 1_555
Sn3 Zr6 3.119632 1_455
Sn3 Zr6 3.119632 1_454
Bi0 Zr6 2.997496 1_455
Bi0 Zr5 3.016966 1_545
Bi0 Zr4 3.061984 1_555
Bi0 Zr0 3.094904 1_556
Bi0 Zr3 3.094904 1_555
Bi0 Zr1 3.103066 1_556
Bi0 Zr2 3.103066 1_555
Bi0 Zr7 3.121691 1_556
Bi0 Zr7 3.121691 1_555
Bi1 Zr6 2.997496 1_565
Bi1 Zr4 3.016966 1_555
Bi1 Zr5 3.061984 1_555
Bi1 Zr1 3.094895 1_556
Bi1 Zr2 3.094895 1_555
Bi1 Zr0 3.103051 1_566
Bi1 Zr3 3.103051 1_565
Bi1 Zr8 3.121691 1_565
Bi1 Zr8 3.121691 1_566
