# generated using pymatgen
data_Ba6BiPb8Cl
_symmetry_space_group_name_H-M   'P 1'
_cell_length_a   9.43026004
_cell_length_b   9.43026106
_cell_length_c   9.43026177
_cell_angle_alpha   119.86998213
_cell_angle_beta   119.86998684
_cell_angle_gamma   90.22534347
_symmetry_Int_Tables_number   1
_chemical_formula_structural   Ba6BiPb8Cl
_chemical_formula_sum   'Ba6 Bi1 Pb8 Cl1'
_cell_volume   594.16233766
_cell_formula_units_Z   1
loop_
 _symmetry_equiv_pos_site_id
 _symmetry_equiv_pos_as_xyz
  1  'x, y, z'
loop_
 _atom_site_type_symbol
 _atom_site_label
 _atom_site_symmetry_multiplicity
 _atom_site_fract_x
 _atom_site_fract_y
 _atom_site_fract_z
 _atom_site_occupancy
  Ba  Ba0  1  0.25918708  0.25918708  1.00000000  1
  Ba  Ba1  1  0.74081292  0.74081292  0.00000000  1
  Ba  Ba2  1  0.16541918  0.66621108  0.83163226  1
  Ba  Ba3  1  0.83458082  0.33378892  0.16836774  1
  Ba  Ba4  1  0.66621108  0.83458082  0.50079090  1
  Ba  Ba5  1  0.33378892  0.16541918  0.49920910  1
  Bi  Bi0  1  0.00000000  0.00000000  0.00000000  1
  Pb  Pb0  1  0.83324558  0.33006988  0.78261841  1
  Pb  Pb1  1  0.16675442  0.66993012  0.21738159  1
  Pb  Pb2  1  0.54745147  0.05062717  0.21738159  1
  Pb  Pb3  1  0.33006988  0.54745147  0.49682430  1
  Pb  Pb4  1  0.94937283  0.16675442  0.49682430  1
  Pb  Pb5  1  0.45254853  0.94937283  0.78261841  1
  Pb  Pb6  1  0.66993012  0.45254853  0.50317570  1
  Pb  Pb7  1  0.05062717  0.83324558  0.50317570  1
  Cl  Cl0  1  0.50000000  0.50000000  0.00000000  1
loop_
_geom_bond_atom_site_label_1
_geom_bond_atom_site_label_2
_geom_bond_distance
_geom_bond_site_symmetry_2
Ba0 Cl0 3.205256 1_556
Ba0 Bi0 3.449819 1_556
Ba0 Pb6 3.723274 1_556
Ba0 Pb5 3.723274 1_545
Ba0 Pb1 3.723274 1_556
Ba0 Pb4 3.723274 1_455
Ba0 Pb0 3.737324 1_455
Ba0 Pb2 3.737324 1_556
Ba0 Pb7 3.737325 1_545
Ba0 Pb3 3.737325 1_556
Ba1 Cl0 3.205256 1_555
Ba1 Bi0 3.449819 1_665
Ba1 Pb3 3.723274 1_554
Ba1 Pb2 3.723274 1_565
Ba1 Pb0 3.723274 1_554
Ba1 Pb7 3.723274 1_655
Ba1 Pb1 3.737324 1_655
Ba1 Pb5 3.737324 1_554
Ba1 Pb4 3.737325 1_565
Ba1 Pb6 3.737325 1_554
Ba2 Bi0 3.519952 1_566
Ba2 Cl0 3.529980 1_556
Ba2 Pb1 3.614093 1_556
Ba2 Pb2 3.614111 1_566
Ba2 Pb6 3.844524 1_455
Ba2 Pb7 3.844543 1_555
Ba2 Pb4 3.874066 1_455
Ba2 Pb3 3.874084 1_555
Ba2 Pb0 4.134569 1_455
Ba2 Pb5 4.134595 1_555
Ba3 Bi0 3.519952 1_655
Ba3 Cl0 3.529980 1_555
Ba3 Pb0 3.614093 1_554
Ba3 Pb5 3.614111 1_544
Ba3 Pb3 3.844524 1_655
Ba3 Pb4 3.844543 1_555
Ba3 Pb7 3.874066 1_655
Ba3 Pb6 3.874084 1_555
Ba3 Pb1 4.134569 1_655
Ba3 Pb2 4.134595 1_555
Ba4 Bi0 3.519962 1_666
Ba4 Cl0 3.529979 1_555
Ba4 Pb7 3.614107 1_655
Ba4 Pb6 3.614116 1_555
Ba4 Pb0 3.844525 1_565
Ba4 Pb5 3.844534 1_555
Ba4 Pb2 3.874059 1_565
Ba4 Pb1 3.874067 1_555
Ba4 Pb4 4.134574 1_565
Ba4 Pb3 4.134588 1_555
Ba5 Bi0 3.519962 1_555
Ba5 Cl0 3.529979 1_556
Ba5 Pb4 3.614107 1_455
Ba5 Pb3 3.614116 1_555
Ba5 Pb1 3.844525 1_545
Ba5 Pb2 3.844534 1_555
Ba5 Pb5 3.874059 1_545
Ba5 Pb0 3.874067 1_555
Ba5 Pb7 4.134574 1_545
Ba5 Pb6 4.134588 1_555
Pb0 Pb6 3.107008 1_555
Pb0 Pb4 3.107008 1_555
Pb0 Pb1 3.310759 1_656
Pb1 Pb3 3.107008 1_555
Pb1 Pb7 3.107008 1_555
Pb2 Pb4 3.107007 1_555
Pb2 Pb6 3.107008 1_555
Pb2 Pb5 3.310759 1_544
Pb3 Pb5 3.107008 1_555
Pb3 Pb6 3.310759 1_555
Pb4 Pb7 3.310759 1_645
Pb5 Pb7 3.107007 1_555
