# generated using pymatgen
data_Rb2NaBSe3
_symmetry_space_group_name_H-M   'P 1'
_cell_length_a   8.01043933
_cell_length_b   8.01043963
_cell_length_c   10.60055159
_cell_angle_alpha   58.79872813
_cell_angle_beta   58.79873279
_cell_angle_gamma   58.39366469
_symmetry_Int_Tables_number   1
_chemical_formula_structural   Rb2NaBSe3
_chemical_formula_sum   'Rb4 Na2 B2 Se6'
_cell_volume   466.27353283
_cell_formula_units_Z   2
loop_
 _symmetry_equiv_pos_site_id
 _symmetry_equiv_pos_as_xyz
  1  'x, y, z'
loop_
 _atom_site_type_symbol
 _atom_site_label
 _atom_site_symmetry_multiplicity
 _atom_site_fract_x
 _atom_site_fract_y
 _atom_site_fract_z
 _atom_site_occupancy
  Rb  Rb0  1  0.37200293  0.81546791  0.98828000  1
  Rb  Rb1  1  0.81546791  0.37200293  0.48828000  1
  Rb  Rb2  1  0.62799707  0.18453209  0.01172000  1
  Rb  Rb3  1  0.18453209  0.62799707  0.51172000  1
  Na  Na0  1  0.00000000  0.50000000  0.00000000  1
  Na  Na1  1  0.50000000  0.00000000  0.50000000  1
  B  B0  1  0.90005370  0.09994630  0.25000000  1
  B  B1  1  0.09994630  0.90005370  0.75000000  1
  Se  Se0  1  0.11052169  0.15947242  0.71877196  1
  Se  Se1  1  0.84052758  0.88947831  0.78122804  1
  Se  Se2  1  0.88947831  0.84052758  0.28122804  1
  Se  Se3  1  0.15947242  0.11052169  0.21877196  1
  Se  Se4  1  0.35457826  0.64542174  0.75000000  1
  Se  Se5  1  0.64542174  0.35457826  0.25000000  1
loop_
_geom_bond_atom_site_label_1
_geom_bond_atom_site_label_2
_geom_bond_distance
_geom_bond_site_symmetry_2
Rb0 Se1 3.421074 1_555
Rb0 Se3 3.451140 1_566
Rb0 Se2 3.467010 1_456
Rb0 Se0 3.483709 1_565
Rb0 Se4 3.519159 1_555
Rb0 Se5 3.651338 1_556
Rb1 Se2 3.421074 1_555
Rb1 Se0 3.451140 1_655
Rb1 Se1 3.467010 1_545
Rb1 Se3 3.483709 1_655
Rb1 Se5 3.519159 1_555
Rb1 Se4 3.651339 1_555
Rb2 Se3 3.421074 1_555
Rb2 Se1 3.451140 1_544
Rb2 Se0 3.467010 1_654
Rb2 Se2 3.483709 1_545
Rb2 Se5 3.519159 1_555
Rb2 Se4 3.651338 1_554
Rb3 Se0 3.421074 1_555
Rb3 Se2 3.451140 1_455
Rb3 Se3 3.467010 1_565
Rb3 Se1 3.483709 1_455
Rb3 Se4 3.519159 1_555
Rb3 Se5 3.651339 1_555
Na0 Se1 2.852956 1_454
Na0 Se3 2.852956 1_555
Na0 Se4 2.986337 1_554
Na0 Se5 2.986337 1_455
Na1 Se0 2.852957 1_555
Na1 Se2 2.852957 1_545
Na1 Se5 2.986337 1_555
Na1 Se4 2.986337 1_545
B0 Se3 1.969216 1_655
B0 Se2 1.969216 1_545
B0 Se5 1.989991 1_555
B1 Se1 1.969216 1_455
B1 Se0 1.969216 1_565
B1 Se4 1.989991 1_555
