# generated using pymatgen
data_Hf6ZnAsN2
_symmetry_space_group_name_H-M   'P 1'
_cell_length_a   5.81843979
_cell_length_b   5.81844009
_cell_length_c   8.53987257
_cell_angle_alpha   90.00000000
_cell_angle_beta   90.00000000
_cell_angle_gamma   146.30507409
_symmetry_Int_Tables_number   1
_chemical_formula_structural   Hf6ZnAsN2
_chemical_formula_sum   'Hf6 Zn1 As1 N2'
_cell_volume   160.39028345
_cell_formula_units_Z   1
loop_
 _symmetry_equiv_pos_site_id
 _symmetry_equiv_pos_as_xyz
  1  'x, y, z'
loop_
 _atom_site_type_symbol
 _atom_site_label
 _atom_site_symmetry_multiplicity
 _atom_site_fract_x
 _atom_site_fract_y
 _atom_site_fract_z
 _atom_site_occupancy
  Hf  Hf0  1  0.63053918  0.36946082  0.94490794  1
  Hf  Hf1  1  0.37199421  0.62800579  0.44864397  1
  Hf  Hf2  1  0.37199421  0.62800579  0.05135603  1
  Hf  Hf3  1  0.63053918  0.36946082  0.55509206  1
  Hf  Hf4  1  0.94107439  0.05892561  0.75000000  1
  Hf  Hf5  1  0.05208737  0.94791263  0.25000000  1
  Zn  Zn0  1  0.74668925  0.25331075  0.25000000  1
  As  As0  1  0.25397125  0.74602875  0.75000000  1
  N  N0  1  0.00055548  0.99944452  0.99764755  1
  N  N1  1  0.00055548  0.99944452  0.50235245  1
loop_
_geom_bond_atom_site_label_1
_geom_bond_atom_site_label_2
_geom_bond_distance
_geom_bond_site_symmetry_2
Hf0 N0 2.267672 1_545
Hf0 N0 2.267673 1_655
Hf0 Zn0 2.908915 1_556
Hf1 N1 2.259257 1_655
Hf1 N1 2.259257 1_545
Hf1 Zn0 2.769311 1_455
Hf1 Zn0 2.769311 1_565
Hf2 N0 2.259257 1_654
Hf2 N0 2.259257 1_544
Hf2 Zn0 2.769311 1_455
Hf2 Zn0 2.769311 1_565
Hf3 N1 2.267672 1_545
Hf3 N1 2.267673 1_655
Hf3 Zn0 2.908915 1_555
Hf4 N0 2.216207 1_645
Hf4 N1 2.216207 1_645
Hf5 N1 2.230173 1_555
Hf5 N0 2.230173 1_554
Hf5 Zn0 2.746118 1_565
Hf5 Zn0 2.746118 1_455
As0 Hf4 2.680693 1_565
As0 Hf4 2.680694 1_455
As0 Hf0 2.739355 1_455
As0 Hf3 2.739355 1_455
As0 Hf0 2.739355 1_565
As0 Hf3 2.739355 1_565
As0 Hf2 2.889802 1_556
As0 Hf1 2.889802 1_555
