# generated using pymatgen
data_Cu2SbIr3S8
_symmetry_space_group_name_H-M   'P 1'
_cell_length_a   7.08046836
_cell_length_b   7.09789780
_cell_length_c   7.09789743
_cell_angle_alpha   60.00000173
_cell_angle_beta   59.91853846
_cell_angle_gamma   59.91853883
_symmetry_Int_Tables_number   1
_chemical_formula_structural   Cu2SbIr3S8
_chemical_formula_sum   'Cu2 Sb1 Ir3 S8'
_cell_volume   251.92462144
_cell_formula_units_Z   1
loop_
 _symmetry_equiv_pos_site_id
 _symmetry_equiv_pos_as_xyz
  1  'x, y, z'
loop_
 _atom_site_type_symbol
 _atom_site_label
 _atom_site_symmetry_multiplicity
 _atom_site_fract_x
 _atom_site_fract_y
 _atom_site_fract_z
 _atom_site_occupancy
  Cu  Cu0  1  0.00404690  0.99865103  0.99865103  1
  Cu  Cu1  1  0.24595310  0.25134897  0.25134897  1
  Sb  Sb0  1  0.12500000  0.62500000  0.62500000  1
  Ir  Ir0  1  0.62500000  0.62500000  0.62500000  1
  Ir  Ir1  1  0.62500000  0.62500000  0.12500000  1
  Ir  Ir2  1  0.62500000  0.12500000  0.62500000  1
  S  S0  1  0.40366035  0.37342315  0.84949435  1
  S  S1  1  0.40366035  0.37342315  0.37342315  1
  S  S2  1  0.84633965  0.87657685  0.87657685  1
  S  S3  1  0.84633965  0.87657685  0.40050565  1
  S  S4  1  0.40366035  0.84949435  0.37342315  1
  S  S5  1  0.84293768  0.38568811  0.38568811  1
  S  S6  1  0.40706232  0.86431189  0.86431189  1
  S  S7  1  0.84633965  0.40050565  0.87657685  1
loop_
_geom_bond_atom_site_label_1
_geom_bond_atom_site_label_2
_geom_bond_distance
_geom_bond_site_symmetry_2
Cu0 S6 2.327031 1_555
Cu0 S3 2.332168 1_456
Cu0 S7 2.332168 1_465
Cu0 S2 2.332174 1_455
Cu1 S5 2.327031 1_455
Cu1 S0 2.332168 1_554
Cu1 S4 2.332168 1_545
Cu1 S1 2.332174 1_555
Ir0 S7 2.374949 1_555
Ir0 S4 2.374949 1_555
Ir0 S3 2.374949 1_555
Ir0 S0 2.374949 1_555
Ir0 S6 2.404546 1_555
Ir0 S5 2.404546 1_555
Ir1 S2 2.374949 1_554
Ir1 S1 2.374949 1_555
Ir1 S4 2.374954 1_555
Ir1 S7 2.374954 1_554
Ir1 S5 2.404556 1_555
Ir1 S6 2.404556 1_554
Ir2 S2 2.374949 1_545
Ir2 S1 2.374949 1_555
Ir2 S0 2.374954 1_555
Ir2 S3 2.374954 1_545
Ir2 S5 2.404556 1_555
Ir2 S6 2.404556 1_545
S0 Sb0 2.528834 1_555
S1 Sb0 2.528829 1_555
S2 Sb0 2.528829 1_655
S3 Sb0 2.528834 1_655
S4 Sb0 2.528834 1_555
S7 Sb0 2.528834 1_655
