# generated using pymatgen
data_Ta2Cu(Ni10B3)2
_symmetry_space_group_name_H-M   'P 1'
_cell_length_a   7.37985692
_cell_length_b   7.37985650
_cell_length_c   7.37985728
_cell_angle_alpha   59.99999646
_cell_angle_beta   59.99999838
_cell_angle_gamma   59.99999700
_symmetry_Int_Tables_number   1
_chemical_formula_structural   Ta2Cu(Ni10B3)2
_chemical_formula_sum   'Ta2 Cu1 Ni20 B6'
_cell_volume   284.20309138
_cell_formula_units_Z   1
loop_
 _symmetry_equiv_pos_site_id
 _symmetry_equiv_pos_as_xyz
  1  'x, y, z'
loop_
 _atom_site_type_symbol
 _atom_site_label
 _atom_site_symmetry_multiplicity
 _atom_site_fract_x
 _atom_site_fract_y
 _atom_site_fract_z
 _atom_site_occupancy
  Ta  Ta0  1  0.75000000  0.75000000  0.75000000  1
  Ta  Ta1  1  0.25000000  0.25000000  0.25000000  1
  Cu  Cu0  1  0.00000000  0.00000000  0.00000000  1
  Ni  Ni0  1  0.61580387  0.61580387  0.15258938  1
  Ni  Ni1  1  0.61580387  0.15258938  0.61580387  1
  Ni  Ni2  1  0.15258938  0.61580387  0.61580387  1
  Ni  Ni3  1  0.61580387  0.61580387  0.61580387  1
  Ni  Ni4  1  0.38419613  0.38419613  0.84741062  1
  Ni  Ni5  1  0.38419613  0.84741062  0.38419613  1
  Ni  Ni6  1  0.84741062  0.38419613  0.38419613  1
  Ni  Ni7  1  0.38419613  0.38419613  0.38419613  1
  Ni  Ni8  1  0.00000000  0.00000000  0.34143221  1
  Ni  Ni9  1  0.65856779  0.00000000  0.34143221  1
  Ni  Ni10  1  0.00000000  0.65856779  0.34143221  1
  Ni  Ni11  1  0.65856779  0.34143221  1.00000000  1
  Ni  Ni12  1  1.00000000  0.34143221  1.00000000  1
  Ni  Ni13  1  1.00000000  0.34143221  0.65856779  1
  Ni  Ni14  1  0.34143221  0.65856779  0.00000000  1
  Ni  Ni15  1  0.34143221  0.00000000  0.65856779  1
  Ni  Ni16  1  0.34143221  0.00000000  1.00000000  1
  Ni  Ni17  1  0.00000000  0.00000000  0.65856779  1
  Ni  Ni18  1  0.00000000  0.65856779  0.00000000  1
  Ni  Ni19  1  0.65856779  0.00000000  0.00000000  1
  B  B0  1  0.73180683  0.73180683  0.26819317  1
  B  B1  1  0.26819317  0.73180683  0.26819317  1
  B  B2  1  0.73180683  0.26819317  0.26819317  1
  B  B3  1  0.26819317  0.26819317  0.73180683  1
  B  B4  1  0.73180683  0.26819317  0.73180683  1
  B  B5  1  0.26819317  0.73180683  0.73180683  1
loop_
_geom_bond_atom_site_label_1
_geom_bond_atom_site_label_2
_geom_bond_distance
_geom_bond_site_symmetry_2
Cu0 Ni14 2.519721 1_545
Cu0 Ni11 2.519721 1_454
Cu0 Ni12 2.519721 1_454
Cu0 Ni13 2.519721 1_454
Cu0 Ni10 2.519721 1_545
Cu0 Ni18 2.519721 1_545
Cu0 Ni16 2.519721 1_554
Cu0 Ni15 2.519721 1_554
Cu0 Ni9 2.519721 1_455
Cu0 Ni19 2.519721 1_455
Cu0 Ni8 2.519721 1_555
Cu0 Ni17 2.519721 1_554
Ni0 Ta0 2.425854 1_554
Ni1 Ta0 2.425854 1_545
Ni2 Ta0 2.425854 1_455
Ni3 Ta0 2.425848 1_555
Ni4 Ta1 2.425854 1_556
Ni5 Ta1 2.425854 1_565
Ni6 Ta1 2.425854 1_655
Ni7 Ta1 2.425848 1_555
B0 Ni19 2.051700 1_565
B0 Ni9 2.051700 1_565
B0 Ni18 2.051700 1_655
B0 Ni10 2.051700 1_655
B0 Ni0 2.094567 1_555
B0 Ni6 2.094573 1_555
B0 Ni5 2.094573 1_555
B0 Ni3 2.094573 1_555
B1 Ni8 2.051700 1_565
B1 Ni16 2.051700 1_564
B1 Ni10 2.051700 1_555
B1 Ni14 2.051700 1_555
B1 Ni5 2.094567 1_555
B1 Ni7 2.094573 1_555
B1 Ni0 2.094573 1_555
B1 Ni2 2.094573 1_555
B2 Ni8 2.051700 1_655
B2 Ni9 2.051700 1_555
B2 Ni12 2.051700 1_554
B2 Ni11 2.051700 1_554
B2 Ni6 2.094567 1_555
B2 Ni0 2.094573 1_555
B2 Ni7 2.094573 1_555
B2 Ni1 2.094573 1_555
B3 Ni16 2.051700 1_555
B3 Ni15 2.051700 1_555
B3 Ni12 2.051700 1_455
B3 Ni13 2.051700 1_455
B3 Ni4 2.094567 1_555
B3 Ni2 2.094573 1_555
B3 Ni1 2.094573 1_555
B3 Ni7 2.094573 1_555
B4 Ni17 2.051700 1_655
B4 Ni19 2.051700 1_556
B4 Ni13 2.051700 1_555
B4 Ni11 2.051700 1_555
B4 Ni1 2.094567 1_555
B4 Ni3 2.094573 1_555
B4 Ni4 2.094573 1_555
B4 Ni6 2.094573 1_555
B5 Ni17 2.051700 1_565
B5 Ni15 2.051700 1_565
B5 Ni18 2.051700 1_556
B5 Ni14 2.051700 1_556
B5 Ni2 2.094567 1_555
B5 Ni4 2.094573 1_555
B5 Ni3 2.094573 1_555
B5 Ni5 2.094573 1_555
