# generated using pymatgen
data_NaCa2TcH6
_symmetry_space_group_name_H-M   'P 1'
_cell_length_a   5.34454951
_cell_length_b   5.34455014
_cell_length_c   5.34454951
_cell_angle_alpha   119.99999612
_cell_angle_beta   90.00000000
_cell_angle_gamma   119.99999612
_symmetry_Int_Tables_number   1
_chemical_formula_structural   NaCa2TcH6
_chemical_formula_sum   'Na1 Ca2 Tc1 H6'
_cell_volume   107.94894899
_cell_formula_units_Z   1
loop_
 _symmetry_equiv_pos_site_id
 _symmetry_equiv_pos_as_xyz
  1  'x, y, z'
loop_
 _atom_site_type_symbol
 _atom_site_label
 _atom_site_symmetry_multiplicity
 _atom_site_fract_x
 _atom_site_fract_y
 _atom_site_fract_z
 _atom_site_occupancy
  Na  Na0  1  0.50000100  0.00000000  0.50000100  1
  Ca  Ca0  1  0.74999800  0.49999800  0.25000000  1
  Ca  Ca1  1  0.24999900  0.49999800  0.75000100  1
  Tc  Tc0  1  0.00000000  0.00000000  0.00000000  1
  H  H0  1  0.23169971  0.00000000  0.23169971  1
  H  H1  1  0.23169971  0.46339941  0.23169971  1
  H  H2  1  0.76830029  0.00000000  0.23170071  1
  H  H3  1  0.76830029  0.53660059  0.76830029  1
  H  H4  1  0.23170071  0.00000000  0.76830029  1
  H  H5  1  0.76830129  0.00000000  0.76830129  1
loop_
_geom_bond_atom_site_label_1
_geom_bond_atom_site_label_2
_geom_bond_distance
_geom_bond_site_symmetry_2
Ca0 H0 2.675842 1_555
Ca0 H4 2.675844 1_554
Ca0 H1 2.675846 1_555
Ca0 H3 2.675847 1_555
Ca0 H2 2.675850 1_555
Ca0 H5 2.675853 1_554
Ca0 H5 2.675853 1_565
Ca0 H2 2.675855 1_565
Ca0 H1 2.675857 1_655
Ca0 H3 2.675858 1_554
Ca0 H4 2.675860 1_665
Ca0 H0 2.675863 1_665
Ca1 H1 2.675841 1_556
Ca1 H5 2.675842 1_455
Ca1 H4 2.675844 1_555
Ca1 H2 2.675850 1_455
Ca1 H3 2.675853 1_555
Ca1 H3 2.675853 1_455
Ca1 H0 2.675853 1_555
Ca1 H0 2.675853 1_566
Ca1 H2 2.675855 1_566
Ca1 H4 2.675860 1_565
Ca1 H1 2.675862 1_555
Ca1 H5 2.675863 1_565
H0 Tc0 1.751264 1_555
H0 Na0 2.027911 1_555
H1 Tc0 1.751264 1_555
H1 Na0 2.027904 1_565
H2 Tc0 1.751268 1_655
H2 Na0 2.027900 1_555
H3 Tc0 1.751264 1_666
H3 Na0 2.027904 1_555
H4 Tc0 1.751268 1_556
H4 Na0 2.027900 1_555
H5 Tc0 1.751256 1_656
H5 Na0 2.027903 1_555
