# generated using pymatgen
data_Cs9Rb3(AsSe3)4
_symmetry_space_group_name_H-M   'P 1'
_cell_length_a   10.49006581
_cell_length_b   10.48935123
_cell_length_c   10.48851770
_cell_angle_alpha   89.96435643
_cell_angle_beta   89.96005621
_cell_angle_gamma   89.97358812
_symmetry_Int_Tables_number   1
_chemical_formula_structural   Cs9Rb3(AsSe3)4
_chemical_formula_sum   'Cs9 Rb3 As4 Se12'
_cell_volume   1154.09277026
_cell_formula_units_Z   1
loop_
 _symmetry_equiv_pos_site_id
 _symmetry_equiv_pos_as_xyz
  1  'x, y, z'
loop_
 _atom_site_type_symbol
 _atom_site_label
 _atom_site_symmetry_multiplicity
 _atom_site_fract_x
 _atom_site_fract_y
 _atom_site_fract_z
 _atom_site_occupancy
  Cs  Cs0  1  0.30147787  0.30138470  0.30154625  1
  Cs  Cs1  1  0.19408178  0.69940924  0.80155212  1
  Cs  Cs2  1  0.80149819  0.19409140  0.69942801  1
  Cs  Cs3  1  0.69942600  0.80146386  0.19408965  1
  Cs  Cs4  1  0.57263180  0.57275238  0.57256425  1
  Cs  Cs5  1  0.93032788  0.42558977  0.07725742  1
  Cs  Cs6  1  0.07736400  0.93035385  0.42559739  1
  Cs  Cs7  1  0.42555281  0.07734839  0.93031344  1
  Cs  Cs8  1  0.81609956  0.81606866  0.81608584  1
  Rb  Rb0  1  0.68303901  0.18498100  0.31710534  1
  Rb  Rb1  1  0.31709928  0.68302608  0.18492923  1
  Rb  Rb2  1  0.18496919  0.31717592  0.68300763  1
  As  As0  1  0.02863559  0.02861025  0.02859328  1
  As  As1  1  0.47504943  0.97558436  0.51815178  1
  As  As2  1  0.51807076  0.47507641  0.97554646  1
  As  As3  1  0.97556719  0.51805654  0.47506706  1
  Se  Se0  1  0.19535069  0.58550111  0.47818566  1
  Se  Se1  1  0.47808041  0.19540239  0.58551121  1
  Se  Se2  1  0.58554488  0.47810494  0.19536085  1
  Se  Se3  1  0.91265541  0.51370773  0.69556397  1
  Se  Se4  1  0.98055125  0.29692563  0.41337757  1
  Se  Se5  1  0.41340718  0.98048442  0.29690958  1
  Se  Se6  1  0.02638620  0.80796623  0.09302149  1
  Se  Se7  1  0.51375414  0.69559107  0.91266363  1
  Se  Se8  1  0.09291471  0.02638257  0.80789935  1
  Se  Se9  1  0.69561275  0.91284943  0.51370684  1
  Se  Se10  1  0.80794357  0.09268893  0.02649539  1
  Se  Se11  1  0.29690849  0.41342274  0.98046931  1
loop_
_geom_bond_atom_site_label_1
_geom_bond_atom_site_label_2
_geom_bond_distance
_geom_bond_site_symmetry_2
Cs0 Se4 3.564570 1_455
Cs0 Se5 3.564781 1_545
Cs0 Se11 3.566445 1_554
Cs0 Se1 3.679707 1_555
Cs0 Se2 3.681591 1_555
Cs0 Se0 3.681623 1_555
Cs1 Se7 3.551085 1_555
Cs1 Se8 3.590350 1_565
Cs1 Se0 3.596655 1_555
Cs1 Se11 3.698210 1_555
Cs1 Se6 3.705661 1_556
Cs1 Se3 3.709178 1_455
Cs2 Se3 3.550266 1_555
Cs2 Se10 3.591606 1_556
Cs2 Se1 3.597722 1_555
Cs2 Se4 3.699041 1_555
Cs2 Se8 3.705607 1_655
Cs2 Se9 3.707315 1_545
Cs3 Se9 3.550958 1_555
Cs3 Se6 3.589873 1_655
Cs3 Se2 3.596586 1_555
Cs3 Se5 3.699206 1_555
Cs3 Se10 3.702847 1_565
Cs3 Se7 3.708603 1_554
Cs4 Se7 3.842927 1_555
Cs4 Se9 3.843450 1_555
Cs4 Se3 3.843676 1_555
Cs4 Se2 4.081708 1_555
Cs4 Se0 4.082401 1_555
Cs4 Se1 4.083133 1_555
Cs5 Se10 3.759325 1_555
Cs5 Se4 3.810967 1_555
Cs5 Se2 3.861589 1_555
Cs5 Se11 3.978521 1_654
Cs5 Se3 4.112441 1_554
Cs5 Se6 4.139404 1_655
Cs6 Se6 3.756404 1_555
Cs6 Se5 3.810373 1_555
Cs6 Se0 3.862017 1_555
Cs6 Se4 3.978514 1_465
Cs6 Se9 4.113373 1_455
Cs6 Se8 4.138315 1_565
Cs7 Se8 3.757527 1_555
Cs7 Se11 3.810753 1_555
Cs7 Se1 3.861104 1_555
Cs7 Se5 3.978386 1_546
Cs7 Se7 4.113723 1_545
Cs7 Se10 4.140119 1_556
Cs8 Se7 3.560887 1_555
Cs8 Se3 3.561314 1_555
Cs8 Se9 3.561868 1_555
Cs8 Se10 3.647496 1_566
Cs8 Se8 3.648491 1_665
Cs8 Se6 3.649482 1_656
Rb0 Se10 3.455663 1_555
Rb0 Se2 3.481978 1_555
Rb0 Se4 3.485372 1_555
Rb0 Se9 3.522821 1_545
Rb0 Se1 3.542815 1_555
Rb0 Se5 3.557134 1_545
Rb1 Se6 3.456250 1_555
Rb1 Se0 3.482830 1_555
Rb1 Se5 3.484903 1_555
Rb1 Se7 3.524117 1_554
Rb1 Se2 3.543551 1_555
Rb1 Se11 3.556652 1_554
Rb2 Se8 3.456633 1_555
Rb2 Se1 3.482097 1_555
Rb2 Se11 3.484564 1_555
Rb2 Se3 3.524426 1_455
Rb2 Se0 3.541346 1_555
Rb2 Se4 3.556783 1_455
As0 Se10 2.410487 1_455
As0 Se8 2.410637 1_554
As0 Se6 2.410766 1_545
As1 Se9 2.405619 1_555
As1 Se5 2.409859 1_555
As1 Se1 2.412210 1_565
As2 Se7 2.405271 1_555
As2 Se11 2.409253 1_555
As2 Se2 2.412435 1_556
As3 Se3 2.404973 1_555
As3 Se4 2.408996 1_555
As3 Se0 2.412203 1_655
