# generated using pymatgen
data_Si2Ni4BW6
_symmetry_space_group_name_H-M   'P 1'
_cell_length_a   7.71409006
_cell_length_b   7.71408993
_cell_length_c   7.71409051
_cell_angle_alpha   60.00000171
_cell_angle_beta   60.00000229
_cell_angle_gamma   59.99999852
_symmetry_Int_Tables_number   1
_chemical_formula_structural   Si2Ni4BW6
_chemical_formula_sum   'Si4 Ni8 B2 W12'
_cell_volume   324.59299479
_cell_formula_units_Z   2
loop_
 _symmetry_equiv_pos_site_id
 _symmetry_equiv_pos_as_xyz
  1  'x, y, z'
loop_
 _atom_site_type_symbol
 _atom_site_label
 _atom_site_symmetry_multiplicity
 _atom_site_fract_x
 _atom_site_fract_y
 _atom_site_fract_z
 _atom_site_occupancy
  Si  Si0  1  0.62500000  0.62500000  0.12500000  1
  Si  Si1  1  0.62500000  0.12500000  0.62500000  1
  Si  Si2  1  0.12500000  0.62500000  0.62500000  1
  Si  Si3  1  0.62500000  0.62500000  0.62500000  1
  Ni  Ni0  1  0.41873576  0.41873576  0.74379173  1
  Ni  Ni1  1  0.41873576  0.74379173  0.41873576  1
  Ni  Ni2  1  0.74379173  0.41873576  0.41873576  1
  Ni  Ni3  1  0.41873576  0.41873576  0.41873576  1
  Ni  Ni4  1  0.83126424  0.83126424  0.50620827  1
  Ni  Ni5  1  0.83126424  0.50620827  0.83126424  1
  Ni  Ni6  1  0.50620827  0.83126424  0.83126424  1
  Ni  Ni7  1  0.83126424  0.83126424  0.83126424  1
  B  B0  1  0.25000000  0.25000000  0.25000000  1
  B  B1  1  0.00000000  0.00000000  0.00000000  1
  W  W0  1  0.05171065  0.05171065  0.44828935  1
  W  W1  1  0.44828935  0.05171065  0.44828935  1
  W  W2  1  0.05171065  0.44828935  0.44828935  1
  W  W3  1  0.44828935  0.44828935  0.05171065  1
  W  W4  1  0.05171065  0.44828935  0.05171065  1
  W  W5  1  0.44828935  0.05171065  0.05171065  1
  W  W6  1  0.19828935  0.19828935  0.80171065  1
  W  W7  1  0.80171065  0.19828935  0.80171065  1
  W  W8  1  0.19828935  0.80171065  0.80171065  1
  W  W9  1  0.80171065  0.80171065  0.19828935  1
  W  W10  1  0.19828935  0.80171065  0.19828935  1
  W  W11  1  0.80171065  0.19828935  0.19828935  1
loop_
_geom_bond_atom_site_label_1
_geom_bond_atom_site_label_2
_geom_bond_distance
_geom_bond_site_symmetry_2
Si0 W5 2.726833 1_565
Si0 W11 2.726833 1_555
Si0 W4 2.726833 1_655
Si0 W10 2.726833 1_555
Si0 W9 2.726833 1_555
Si0 W3 2.726833 1_555
Si1 W7 2.726833 1_555
Si1 W1 2.726833 1_555
Si1 W0 2.726833 1_655
Si1 W6 2.726833 1_555
Si1 W5 2.726833 1_556
Si1 W11 2.726833 1_555
Si2 W0 2.726833 1_565
Si2 W6 2.726833 1_555
Si2 W8 2.726833 1_555
Si2 W2 2.726833 1_555
Si2 W4 2.726833 1_556
Si2 W10 2.726833 1_555
Si3 W7 2.726833 1_555
Si3 W1 2.726833 1_565
Si3 W2 2.726833 1_655
Si3 W8 2.726833 1_555
Si3 W3 2.726833 1_556
Si3 W9 2.726833 1_555
Ni0 Si1 2.349201 1_555
Ni0 Si2 2.349201 1_555
Ni0 Si3 2.349207 1_555
Ni0 Ni1 2.507511 1_555
Ni0 Ni3 2.507511 1_555
Ni0 Ni2 2.507511 1_555
Ni0 W5 2.623178 1_556
Ni0 W4 2.623178 1_556
Ni0 W3 2.623182 1_556
Ni0 W6 2.712119 1_555
Ni0 W8 2.712125 1_555
Ni0 W7 2.712126 1_555
Ni1 Si2 2.349201 1_555
Ni1 Si0 2.349201 1_555
Ni1 Si3 2.349207 1_555
Ni1 Ni2 2.507511 1_555
Ni1 Ni3 2.507511 1_555
Ni1 W0 2.623178 1_565
Ni1 W5 2.623178 1_565
Ni1 W1 2.623182 1_565
Ni1 W10 2.712119 1_555
Ni1 W9 2.712126 1_555
Ni1 W8 2.712126 1_555
Ni2 Si1 2.349201 1_555
Ni2 Si0 2.349201 1_555
Ni2 Si3 2.349207 1_555
Ni2 Ni3 2.507511 1_555
Ni2 W0 2.623178 1_655
Ni2 W4 2.623178 1_655
Ni2 W2 2.623182 1_655
Ni2 W11 2.712119 1_555
Ni2 W9 2.712126 1_555
Ni2 W7 2.712126 1_555
Ni3 Si1 2.349205 1_555
Ni3 Si2 2.349205 1_555
Ni3 Si0 2.349205 1_555
Ni3 W1 2.623175 1_555
Ni3 W2 2.623175 1_555
Ni3 W3 2.623175 1_555
Ni3 W10 2.712122 1_555
Ni3 W11 2.712123 1_555
Ni3 W6 2.712123 1_555
Ni4 Si1 2.349201 1_565
Ni4 Si2 2.349201 1_655
Ni4 Si3 2.349207 1_555
Ni4 Ni5 2.507511 1_555
Ni4 Ni7 2.507511 1_555
Ni4 Ni6 2.507511 1_555
Ni4 W11 2.623178 1_565
Ni4 W10 2.623178 1_655
Ni4 W9 2.623182 1_555
Ni4 W0 2.712119 1_665
Ni4 W2 2.712125 1_655
Ni4 W1 2.712126 1_565
Ni5 Si2 2.349201 1_655
Ni5 Si0 2.349201 1_556
Ni5 Si3 2.349207 1_555
Ni5 Ni6 2.507511 1_555
Ni5 Ni7 2.507511 1_555
Ni5 W6 2.623178 1_655
Ni5 W11 2.623178 1_556
Ni5 W7 2.623182 1_555
Ni5 W4 2.712119 1_656
Ni5 W3 2.712126 1_556
Ni5 W2 2.712126 1_655
Ni6 Si1 2.349201 1_565
Ni6 Si0 2.349201 1_556
Ni6 Si3 2.349207 1_555
Ni6 Ni7 2.507511 1_555
Ni6 W6 2.623178 1_565
Ni6 W10 2.623178 1_556
Ni6 W8 2.623182 1_555
Ni6 W5 2.712119 1_566
Ni6 W3 2.712126 1_556
Ni6 W1 2.712126 1_565
Ni7 Si1 2.349205 1_565
Ni7 Si2 2.349205 1_655
Ni7 Si0 2.349205 1_556
Ni7 W7 2.623175 1_565
Ni7 W8 2.623175 1_655
Ni7 W9 2.623175 1_556
Ni7 W4 2.712122 1_656
Ni7 W5 2.712123 1_566
Ni7 W0 2.712123 1_665
B0 W1 2.163212 1_555
B0 W2 2.163212 1_555
B0 W4 2.163212 1_555
B0 W5 2.163212 1_555
B0 W3 2.163212 1_555
B0 W0 2.163212 1_555
B1 W11 2.163212 1_455
B1 W10 2.163212 1_545
B1 W7 2.163212 1_454
B1 W8 2.163212 1_544
B1 W6 2.163212 1_554
B1 W9 2.163212 1_445
