# generated using pymatgen
data_Sr10TaTcN10
_symmetry_space_group_name_H-M   'P 1'
_cell_length_a   7.32245065
_cell_length_b   7.32245063
_cell_length_c   9.38375604
_cell_angle_alpha   81.44051369
_cell_angle_beta   81.44051099
_cell_angle_gamma   59.33030516
_symmetry_Int_Tables_number   1
_chemical_formula_structural   Sr10TaTcN10
_chemical_formula_sum   'Sr10 Ta1 Tc1 N10'
_cell_volume   426.36698139
_cell_formula_units_Z   1
loop_
 _symmetry_equiv_pos_site_id
 _symmetry_equiv_pos_as_xyz
  1  'x, y, z'
loop_
 _atom_site_type_symbol
 _atom_site_label
 _atom_site_symmetry_multiplicity
 _atom_site_fract_x
 _atom_site_fract_y
 _atom_site_fract_z
 _atom_site_occupancy
  Sr  Sr0  1  0.88207048  0.35496932  0.84041985  1
  Sr  Sr1  1  0.87861477  0.87861477  0.81832793  1
  Sr  Sr2  1  0.74024639  0.74024639  0.52490960  1
  Sr  Sr3  1  0.74550675  0.25424282  0.50467874  1
  Sr  Sr4  1  0.62624533  0.12288322  0.14283749  1
  Sr  Sr5  1  0.35496932  0.88207048  0.84041985  1
  Sr  Sr6  1  0.25424282  0.74550675  0.50467874  1
  Sr  Sr7  1  0.24020867  0.24020867  0.49441897  1
  Sr  Sr8  1  0.13397868  0.13397868  0.16753586  1
  Sr  Sr9  1  0.12288322  0.62624533  0.14283749  1
  Ta  Ta0  1  0.36701612  0.36701612  0.77560397  1
  Tc  Tc0  1  0.63530950  0.63530950  0.22521952  1
  N  N0  1  0.89380306  0.48066215  0.32129728  1
  N  N1  1  0.99620899  0.99620899  0.01286749  1
  N  N2  1  0.69725085  0.69725085  0.03762193  1
  N  N3  1  0.52469492  0.52469492  0.71087656  1
  N  N4  1  0.48066215  0.89380306  0.32129728  1
  N  N5  1  0.52905801  0.09901730  0.67987460  1
  N  N6  1  0.48880216  0.48880216  0.27390979  1
  N  N7  1  0.30747308  0.30747308  0.98279292  1
  N  N8  1  0.06402444  0.06402444  0.64350652  1
  N  N9  1  0.09901730  0.52905801  0.67987460  1
loop_
_geom_bond_atom_site_label_1
_geom_bond_atom_site_label_2
_geom_bond_distance
_geom_bond_site_symmetry_2
N0 Tc0 1.922313 1_555
N0 Sr2 2.605583 1_555
N0 Sr9 2.685371 1_655
N0 Sr3 2.705605 1_555
N0 Sr8 2.720202 1_655
N0 Sr7 2.827045 1_655
N1 Sr8 2.460039 1_665
N1 Sr4 2.544888 1_565
N1 Sr9 2.544888 1_655
N1 Sr1 2.551009 1_554
N1 Sr5 2.667500 1_654
N1 Sr0 2.667500 1_564
N2 Tc0 1.801351 1_555
N2 Sr1 2.816760 1_554
N2 Sr0 2.951671 1_554
N2 Sr5 2.951671 1_554
N2 Sr4 3.173135 1_565
N2 Sr9 3.173135 1_655
N3 Ta0 1.994387 1_555
N3 Sr5 2.655103 1_555
N3 Sr0 2.655103 1_555
N3 Sr3 2.687524 1_555
N3 Sr6 2.687524 1_555
N3 Sr2 2.988218 1_555
N4 Tc0 1.922313 1_555
N4 Sr2 2.605583 1_555
N4 Sr4 2.685371 1_565
N4 Sr6 2.705605 1_555
N4 Sr8 2.720202 1_565
N4 Sr7 2.827045 1_565
N5 Ta0 1.974305 1_555
N5 Sr7 2.626837 1_555
N5 Sr1 2.644934 1_545
N5 Sr3 2.648140 1_555
N5 Sr5 2.683290 1_545
N5 Sr2 2.780427 1_545
N6 Tc0 1.841960 1_555
N6 Sr4 2.750720 1_555
N6 Sr9 2.750720 1_555
N6 Sr6 2.825504 1_555
N6 Sr3 2.825504 1_555
N7 Ta0 1.961994 1_555
N7 Sr8 2.562907 1_556
N7 Sr9 2.598357 1_556
N7 Sr4 2.598357 1_556
N8 Sr7 2.430916 1_555
N8 Sr6 2.475293 1_545
N8 Sr3 2.475293 1_455
N8 Sr1 2.632884 1_445
N8 Sr0 2.696558 1_455
N8 Sr5 2.696558 1_545
N9 Ta0 1.974305 1_555
N9 Sr7 2.626837 1_555
N9 Sr1 2.644934 1_455
N9 Sr6 2.648140 1_555
N9 Sr0 2.683290 1_455
N9 Sr2 2.780427 1_455
