# generated using pymatgen
data_Hf6Al16Pd5Rh2
_symmetry_space_group_name_H-M   'P 1'
_cell_length_a   8.67796741
_cell_length_b   8.66398501
_cell_length_c   8.67796784
_cell_angle_alpha   60.05328157
_cell_angle_beta   59.93921143
_cell_angle_gamma   60.05327908
_symmetry_Int_Tables_number   1
_chemical_formula_structural   Hf6Al16Pd5Rh2
_chemical_formula_sum   'Hf6 Al16 Pd5 Rh2'
_cell_volume   461.51709371
_cell_formula_units_Z   1
loop_
 _symmetry_equiv_pos_site_id
 _symmetry_equiv_pos_as_xyz
  1  'x, y, z'
loop_
 _atom_site_type_symbol
 _atom_site_label
 _atom_site_symmetry_multiplicity
 _atom_site_fract_x
 _atom_site_fract_y
 _atom_site_fract_z
 _atom_site_occupancy
  Hf  Hf0  1  0.68329636  0.31781628  0.31670264  1
  Hf  Hf1  1  0.31670264  0.68218272  0.68329636  1
  Hf  Hf2  1  0.31593298  0.68406602  0.31593298  1
  Hf  Hf3  1  0.31670264  0.31781628  0.68329636  1
  Hf  Hf4  1  0.68406602  0.31593298  0.68406602  1
  Hf  Hf5  1  0.68329636  0.68218272  0.31670264  1
  Al  Al0  1  0.33418001  0.33433599  0.33418001  1
  Al  Al1  1  0.33193541  0.33575158  0.99656043  1
  Al  Al2  1  0.99656043  0.33575158  0.33193541  1
  Al  Al3  1  0.33418001  0.99730298  0.33418001  1
  Al  Al4  1  0.66581999  0.66566401  0.66581999  1
  Al  Al5  1  0.66806459  0.66424842  0.00343957  1
  Al  Al6  1  0.66581999  0.00269702  0.66581999  1
  Al  Al7  1  0.00343957  0.66424842  0.66806459  1
  Al  Al8  1  0.11637888  0.12471968  0.11637888  1
  Al  Al9  1  0.11780179  0.11921225  0.64377472  1
  Al  Al10  1  0.64377472  0.11921225  0.11780179  1
  Al  Al11  1  0.11637888  0.64252155  0.11637888  1
  Al  Al12  1  0.88362012  0.87527932  0.88362012  1
  Al  Al13  1  0.88219721  0.88078675  0.35622828  1
  Al  Al14  1  0.88362012  0.35748145  0.88362012  1
  Al  Al15  1  0.35622828  0.88078675  0.88219721  1
  Pd  Pd0  1  0.50000000  0.00000000  0.00000000  1
  Pd  Pd1  1  0.00000000  0.50000000  0.50000000  1
  Pd  Pd2  1  0.00000000  0.00000000  0.50000000  1
  Pd  Pd3  1  0.50000000  0.00000000  0.50000000  1
  Pd  Pd4  1  0.50000000  0.50000000  0.00000000  1
  Rh  Rh0  1  0.00000000  0.00000000  0.00000000  1
  Rh  Rh1  1  0.00000000  0.50000000  0.00000000  1
loop_
_geom_bond_atom_site_label_1
_geom_bond_atom_site_label_2
_geom_bond_distance
_geom_bond_site_symmetry_2
Hf0 Hf5 3.156865 1_555
Hf0 Rh1 3.167171 1_655
Hf0 Hf3 3.178365 1_555
Hf0 Pd3 3.179237 1_555
Hf0 Pd4 3.180695 1_555
Hf0 Pd2 3.180707 1_655
Hf0 Hf2 3.183196 1_555
Hf0 Hf4 3.183196 1_555
Hf1 Hf3 3.156865 1_555
Hf1 Rh1 3.167162 1_556
Hf1 Hf5 3.178365 1_555
Hf1 Pd3 3.179252 1_565
Hf1 Pd2 3.180698 1_565
Hf1 Pd4 3.180710 1_556
Hf1 Hf4 3.183196 1_555
Hf1 Hf2 3.183196 1_555
Hf2 Pd1 3.169535 1_555
Hf2 Pd4 3.169535 1_555
Hf2 Pd2 3.169546 1_565
Hf2 Pd0 3.169547 1_565
Hf2 Hf3 3.183196 1_555
Hf2 Hf5 3.183196 1_555
Hf3 Rh1 3.167171 1_556
Hf3 Pd3 3.179236 1_555
Hf3 Pd1 3.180695 1_555
Hf3 Pd0 3.180707 1_556
Hf3 Hf4 3.183196 1_555
Hf4 Pd2 3.169538 1_655
Hf4 Pd0 3.169538 1_556
Hf4 Pd1 3.169550 1_655
Hf4 Pd4 3.169550 1_556
Hf4 Hf5 3.183196 1_555
Hf5 Rh1 3.167162 1_655
Hf5 Pd3 3.179251 1_565
Hf5 Pd0 3.180698 1_565
Hf5 Pd1 3.180710 1_655
Al0 Pd1 2.503286 1_555
Al0 Pd4 2.503287 1_555
Al0 Pd3 2.506683 1_555
Al0 Hf2 2.880703 1_555
Al0 Hf0 2.889723 1_555
Al0 Hf3 2.889723 1_555
Al1 Rh1 2.487394 1_556
Al1 Pd0 2.512199 1_556
Al1 Pd4 2.512207 1_556
Al1 Hf1 2.869509 1_555
Al1 Hf3 2.869514 1_555
Al1 Hf4 2.891421 1_555
Al2 Rh1 2.487394 1_655
Al2 Pd2 2.512199 1_655
Al2 Pd1 2.512207 1_655
Al2 Hf5 2.869509 1_555
Al2 Hf0 2.869514 1_555
Al2 Hf4 2.891421 1_555
Al3 Pd2 2.503284 1_565
Al3 Pd0 2.503284 1_565
Al3 Pd3 2.506688 1_565
Al3 Hf2 2.880712 1_555
Al3 Hf5 2.889727 1_555
Al3 Hf1 2.889727 1_555
Al4 Pd1 2.503286 1_655
Al4 Pd4 2.503287 1_556
Al4 Pd3 2.506683 1_565
Al4 Hf4 2.880719 1_555
Al4 Hf1 2.889739 1_555
Al4 Hf5 2.889740 1_555
Al5 Rh1 2.487394 1_655
Al5 Pd0 2.512199 1_565
Al5 Pd4 2.512207 1_555
Al5 Hf5 2.869496 1_555
Al5 Hf0 2.869510 1_555
Al5 Hf2 2.891422 1_555
Al6 Pd2 2.503284 1_655
Al6 Pd0 2.503284 1_556
Al6 Pd3 2.506688 1_555
Al6 Hf4 2.880693 1_555
Al6 Hf3 2.889727 1_555
Al6 Hf0 2.889728 1_555
Al7 Rh1 2.487394 1_556
Al7 Pd2 2.512199 1_565
Al7 Pd1 2.512207 1_555
Al7 Hf1 2.869496 1_555
Al7 Hf3 2.869510 1_555
Al7 Hf2 2.891422 1_555
Al8 Rh0 2.531498 1_555
Al8 Rh1 2.660200 1_555
Al8 Pd0 2.720285 1_555
Al8 Pd2 2.720286 1_555
Al8 Hf0 3.166448 1_455
Al8 Hf3 3.166448 1_554
Al8 Hf2 3.221231 1_545
Al9 Rh0 2.523588 1_556
Al9 Pd1 2.699454 1_555
Al9 Pd2 2.699462 1_555
Al9 Pd3 2.710105 1_555
Al9 Hf4 3.172710 1_455
Al9 Hf3 3.194560 1_555
Al9 Hf1 3.194582 1_545
Al10 Rh0 2.523588 1_655
Al10 Pd4 2.699454 1_555
Al10 Pd0 2.699462 1_555
Al10 Pd3 2.710105 1_555
Al10 Hf4 3.172710 1_554
Al10 Hf0 3.194560 1_555
Al10 Hf5 3.194582 1_545
Al11 Rh0 2.531505 1_565
Al11 Rh1 2.660193 1_555
Al11 Pd4 2.720285 1_555
Al11 Pd1 2.720285 1_555
Al11 Hf5 3.166449 1_455
Al11 Hf1 3.166450 1_554
Al11 Hf2 3.221226 1_555
Al12 Rh0 2.531519 1_666
Al12 Rh1 2.660192 1_656
Al12 Pd0 2.720277 1_566
Al12 Pd2 2.720278 1_665
Al12 Hf1 3.166448 1_655
Al12 Hf5 3.166448 1_556
Al12 Hf4 3.221231 1_565
Al13 Rh0 2.523609 1_665
Al13 Pd1 2.699446 1_655
Al13 Pd2 2.699453 1_665
Al13 Pd3 2.710097 1_565
Al13 Hf2 3.172703 1_655
Al13 Hf0 3.194575 1_565
Al13 Hf5 3.194583 1_555
Al14 Rh0 2.531526 1_656
Al14 Rh1 2.660185 1_656
Al14 Pd4 2.720277 1_556
Al14 Pd1 2.720277 1_655
Al14 Hf3 3.166442 1_655
Al14 Hf0 3.166442 1_556
Al14 Hf4 3.221249 1_555
Al15 Rh0 2.523609 1_566
Al15 Pd4 2.699446 1_556
Al15 Pd0 2.699453 1_566
Al15 Pd3 2.710098 1_565
Al15 Hf2 3.172703 1_556
Al15 Hf3 3.194575 1_565
Al15 Hf1 3.194583 1_555
