# generated using pymatgen
data_Zr6Zn15BAu8
_symmetry_space_group_name_H-M   'P 1'
_cell_length_a   8.77654853
_cell_length_b   8.77654896
_cell_length_c   8.77654882
_cell_angle_alpha   60.00000416
_cell_angle_beta   60.00000255
_cell_angle_gamma   59.99999698
_symmetry_Int_Tables_number   1
_chemical_formula_structural   Zr6Zn15BAu8
_chemical_formula_sum   'Zr6 Zn15 B1 Au8'
_cell_volume   478.03129126
_cell_formula_units_Z   1
loop_
 _symmetry_equiv_pos_site_id
 _symmetry_equiv_pos_as_xyz
  1  'x, y, z'
loop_
 _atom_site_type_symbol
 _atom_site_label
 _atom_site_symmetry_multiplicity
 _atom_site_fract_x
 _atom_site_fract_y
 _atom_site_fract_z
 _atom_site_occupancy
  Zr  Zr0  1  0.69564813  0.30435187  0.30435187  1
  Zr  Zr1  1  0.30435187  0.69564813  0.69564813  1
  Zr  Zr2  1  0.30435187  0.69564813  0.30435187  1
  Zr  Zr3  1  0.69564813  0.30435187  0.69564813  1
  Zr  Zr4  1  0.30435187  0.30435187  0.69564813  1
  Zr  Zr5  1  0.69564813  0.69564813  0.30435187  1
  Zn  Zn0  1  0.50000000  0.00000000  0.00000000  1
  Zn  Zn1  1  0.00000000  0.50000000  0.50000000  1
  Zn  Zn2  1  0.00000000  0.50000000  0.00000000  1
  Zn  Zn3  1  0.50000000  0.00000000  0.50000000  1
  Zn  Zn4  1  0.00000000  0.00000000  0.50000000  1
  Zn  Zn5  1  0.50000000  0.50000000  0.00000000  1
  Zn  Zn6  1  0.33359640  0.33359640  0.33359640  1
  Zn  Zn7  1  0.66640360  0.66640360  0.66640360  1
  Zn  Zn8  1  0.33359640  0.33359640  0.99921079  1
  Zn  Zn9  1  0.33359640  0.99921079  0.33359640  1
  Zn  Zn10  1  0.66640360  0.66640360  0.00078921  1
  Zn  Zn11  1  0.66640360  0.00078921  0.66640360  1
  Zn  Zn12  1  0.99921079  0.33359640  0.33359640  1
  Zn  Zn13  1  0.00078921  0.66640360  0.66640360  1
  Zn  Zn14  1  0.00000000  0.00000000  0.00000000  1
  B  B0  1  0.50000000  0.50000000  0.50000000  1
  Au  Au0  1  0.12128577  0.12128577  0.12128577  1
  Au  Au1  1  0.87871423  0.87871423  0.87871423  1
  Au  Au2  1  0.12128577  0.12128577  0.63614369  1
  Au  Au3  1  0.12128577  0.63614369  0.12128577  1
  Au  Au4  1  0.87871423  0.87871423  0.36385631  1
  Au  Au5  1  0.87871423  0.36385631  0.87871423  1
  Au  Au6  1  0.63614369  0.12128577  0.12128577  1
  Au  Au7  1  0.36385631  0.87871423  0.87871423  1
loop_
_geom_bond_atom_site_label_1
_geom_bond_atom_site_label_2
_geom_bond_distance
_geom_bond_site_symmetry_2
Zn0 Zn8 2.533578 1_554
Zn0 Zn10 2.533578 1_545
Zn0 Zn9 2.533578 1_545
Zn0 Zn11 2.533578 1_554
Zn0 Zr5 3.175465 1_545
Zn0 Zr4 3.175465 1_554
Zn0 Zr3 3.175465 1_554
Zn0 Zr2 3.175465 1_545
Zn1 Zn7 2.533578 1_455
Zn1 Zn6 2.533578 1_555
Zn1 Zn13 2.533578 1_555
Zn1 Zn12 2.533578 1_455
Zn1 Zr4 3.175465 1_555
Zn1 Zr5 3.175465 1_455
Zn1 Zr2 3.175465 1_555
Zn1 Zr3 3.175465 1_455
Zn2 Zn8 2.533578 1_554
Zn2 Zr5 3.175465 1_455
Zn2 Zr4 3.175465 1_554
Zn2 Zr1 3.175465 1_554
Zn2 Zr0 3.175465 1_455
Zn3 Zn9 2.533578 1_545
Zn3 Zn6 2.533578 1_555
Zn3 Zn7 2.533578 1_545
Zn3 Zr4 3.175465 1_555
Zn3 Zr5 3.175465 1_545
Zn3 Zr0 3.175465 1_555
Zn3 Zr1 3.175465 1_545
Zn4 Zn9 2.533578 1_545
Zn4 Zr1 3.175465 1_545
Zn4 Zr3 3.175465 1_455
Zn4 Zr0 3.175465 1_455
Zn4 Zr2 3.175465 1_545
Zn5 Zn8 2.533578 1_554
Zn5 Zn6 2.533578 1_555
Zn5 Zn7 2.533578 1_554
Zn5 Zr0 3.175465 1_555
Zn5 Zr2 3.175465 1_555
Zn5 Zr1 3.175465 1_554
Zn5 Zr3 3.175465 1_554
Zn6 Zr0 2.943366 1_555
Zn6 Zr4 2.943366 1_555
Zn6 Zr2 2.943366 1_555
Zn7 Zr1 2.943366 1_555
Zn7 Zr5 2.943366 1_555
Zn7 Zr3 2.943366 1_555
Zn8 Zr4 2.943366 1_555
Zn8 Zr3 2.943366 1_555
Zn8 Zr1 2.943366 1_555
Zn9 Zr5 2.943366 1_555
Zn9 Zr2 2.943366 1_555
Zn9 Zr1 2.943366 1_555
Zn10 Zn2 2.533578 1_655
Zn10 Zn5 2.533578 1_555
Zn10 Zr5 2.943366 1_555
Zn10 Zr2 2.943366 1_555
Zn10 Zr0 2.943366 1_555
Zn11 Zn3 2.533578 1_555
Zn11 Zn4 2.533578 1_655
Zn11 Zr4 2.943366 1_555
Zn11 Zr3 2.943366 1_555
Zn11 Zr0 2.943366 1_555
Zn12 Zn2 2.533578 1_655
Zn12 Zn4 2.533578 1_655
Zn12 Zr5 2.943366 1_555
Zn12 Zr0 2.943366 1_555
Zn12 Zr3 2.943366 1_555
Zn13 Zn2 2.533578 1_556
Zn13 Zn4 2.533578 1_565
Zn13 Zr4 2.943366 1_555
Zn13 Zr1 2.943366 1_555
Zn13 Zr2 2.943366 1_555
B0 Zr3 2.428368 1_555
B0 Zr1 2.428368 1_555
B0 Zr2 2.428368 1_555
B0 Zr0 2.428368 1_555
B0 Zr5 2.428368 1_555
B0 Zr4 2.428368 1_555
Au0 Zn14 2.607410 1_555
Au0 Zn0 2.714918 1_555
Au0 Zn2 2.714919 1_555
Au0 Zn4 2.714919 1_555
Au0 Zn9 2.751614 1_545
Au0 Zn12 2.751614 1_455
Au0 Zn8 2.751614 1_554
Au0 Zr0 3.113725 1_455
Au0 Zr2 3.113725 1_545
Au0 Zr4 3.113726 1_554
Au1 Zn14 2.607410 1_666
Au1 Zn0 2.714918 1_566
Au1 Zn2 2.714919 1_656
Au1 Zn4 2.714919 1_665
Au1 Zn11 2.751614 1_565
Au1 Zn13 2.751614 1_655
Au1 Zn10 2.751614 1_556
Au1 Zr1 3.113725 1_655
Au1 Zr3 3.113725 1_565
Au1 Zr5 3.113726 1_556
Au2 Zn14 2.607403 1_556
Au2 Zn3 2.714919 1_555
Au2 Zn1 2.714919 1_555
Au2 Zn4 2.714926 1_555
Au2 Zn6 2.751616 1_555
Au2 Zn9 2.751621 1_545
Au2 Zn12 2.751621 1_455
Au2 Zr4 3.113719 1_555
Au2 Zr3 3.113727 1_455
Au2 Zr1 3.113727 1_545
Au3 Zn14 2.607402 1_565
Au3 Zn5 2.714919 1_555
Au3 Zn1 2.714919 1_555
Au3 Zn2 2.714926 1_555
Au3 Zn6 2.751616 1_555
Au3 Zn8 2.751621 1_554
Au3 Zn12 2.751621 1_455
Au3 Zr2 3.113719 1_555
Au3 Zr5 3.113727 1_455
Au3 Zr1 3.113727 1_554
Au4 Zn14 2.607403 1_665
Au4 Zn3 2.714919 1_565
Au4 Zn1 2.714919 1_655
Au4 Zn4 2.714926 1_665
Au4 Zn7 2.751616 1_555
Au4 Zn11 2.751621 1_565
Au4 Zn13 2.751621 1_655
Au4 Zr5 3.113719 1_555
Au4 Zr2 3.113727 1_655
Au4 Zr0 3.113727 1_565
Au5 Zn14 2.607402 1_656
Au5 Zn5 2.714919 1_556
Au5 Zn1 2.714919 1_655
Au5 Zn2 2.714926 1_656
Au5 Zn7 2.751616 1_555
Au5 Zn10 2.751621 1_556
Au5 Zn13 2.751621 1_655
Au5 Zr3 3.113719 1_555
Au5 Zr4 3.113727 1_655
Au5 Zr0 3.113727 1_556
Au6 Zn14 2.607402 1_655
Au6 Zn5 2.714919 1_555
Au6 Zn3 2.714919 1_555
Au6 Zn0 2.714926 1_555
Au6 Zn6 2.751616 1_555
Au6 Zn8 2.751621 1_554
Au6 Zn9 2.751621 1_545
Au6 Zr0 3.113719 1_555
Au6 Zr5 3.113727 1_545
Au6 Zr3 3.113727 1_554
Au7 Zn14 2.607402 1_566
Au7 Zn5 2.714919 1_556
Au7 Zn3 2.714919 1_565
Au7 Zn0 2.714926 1_566
Au7 Zn7 2.751616 1_555
Au7 Zn10 2.751621 1_556
Au7 Zn11 2.751621 1_565
Au7 Zr1 3.113719 1_555
Au7 Zr4 3.113727 1_565
Au7 Zr2 3.113727 1_556
