# generated using pymatgen
data_Hf16Pd3Rh5O4
_symmetry_space_group_name_H-M   'P 1'
_cell_length_a   8.69064096
_cell_length_b   8.69064086
_cell_length_c   8.69064100
_cell_angle_alpha   60.01179345
_cell_angle_beta   60.01179576
_cell_angle_gamma   60.01179801
_symmetry_Int_Tables_number   1
_chemical_formula_structural   Hf16Pd3Rh5O4
_chemical_formula_sum   'Hf16 Pd3 Rh5 O4'
_cell_volume   464.25495358
_cell_formula_units_Z   1
loop_
 _symmetry_equiv_pos_site_id
 _symmetry_equiv_pos_as_xyz
  1  'x, y, z'
loop_
 _atom_site_type_symbol
 _atom_site_label
 _atom_site_symmetry_multiplicity
 _atom_site_fract_x
 _atom_site_fract_y
 _atom_site_fract_z
 _atom_site_occupancy
  Hf  Hf0  1  0.11562384  0.62704769  0.62704769  1
  Hf  Hf1  1  0.62704769  0.11562384  0.62704769  1
  Hf  Hf2  1  0.62704769  0.62704769  0.11562384  1
  Hf  Hf3  1  0.63074618  0.63074618  0.63074618  1
  Hf  Hf4  1  0.81663752  0.81663752  0.18324532  1
  Hf  Hf5  1  0.18389194  0.18389194  0.81587956  1
  Hf  Hf6  1  0.81663752  0.18324532  0.81663752  1
  Hf  Hf7  1  0.18389194  0.81587956  0.18389194  1
  Hf  Hf8  1  0.18324532  0.81663752  0.81663752  1
  Hf  Hf9  1  0.81587956  0.18389194  0.18389194  1
  Hf  Hf10  1  0.43457040  0.43457040  0.06816915  1
  Hf  Hf11  1  0.06460713  0.06460713  0.43515569  1
  Hf  Hf12  1  0.43457040  0.06816915  0.43457040  1
  Hf  Hf13  1  0.06460713  0.43515569  0.06460713  1
  Hf  Hf14  1  0.06816915  0.43457040  0.43457040  1
  Hf  Hf15  1  0.43515569  0.06460713  0.06460713  1
  Pd  Pd0  1  0.77507760  0.40921099  0.40921099  1
  Pd  Pd1  1  0.40921099  0.77507760  0.40921099  1
  Pd  Pd2  1  0.40921099  0.40921099  0.77507760  1
  Rh  Rh0  1  0.40374678  0.40374678  0.40374678  1
  Rh  Rh1  1  0.45997209  0.84779027  0.84779027  1
  Rh  Rh2  1  0.84779027  0.45997209  0.84779027  1
  Rh  Rh3  1  0.84779027  0.84779027  0.45997209  1
  Rh  Rh4  1  0.84600788  0.84600788  0.84600788  1
  O  O0  1  0.62409073  0.12480667  0.12480667  1
  O  O1  1  0.12480667  0.62409073  0.12480667  1
  O  O2  1  0.12480667  0.12480667  0.62409073  1
  O  O3  1  0.12515495  0.12515495  0.12515495  1
loop_
_geom_bond_atom_site_label_1
_geom_bond_atom_site_label_2
_geom_bond_distance
_geom_bond_site_symmetry_2
Hf0 Rh2 2.708639 1_455
Hf0 Rh3 2.708639 1_455
Hf0 Rh4 2.727230 1_455
Hf0 Pd1 2.786935 1_555
Hf0 Pd2 2.786935 1_555
Hf0 Rh0 2.802063 1_555
Hf1 Rh1 2.708639 1_545
Hf1 Rh3 2.708639 1_545
Hf1 Rh4 2.727230 1_545
Hf1 Pd0 2.786935 1_555
Hf1 Pd2 2.786935 1_555
Hf1 Rh0 2.802063 1_555
Hf2 Rh1 2.708639 1_554
Hf2 Rh2 2.708639 1_554
Hf2 Rh4 2.727230 1_554
Hf2 Pd0 2.786935 1_555
Hf2 Pd1 2.786935 1_555
Hf2 Rh0 2.802062 1_555
Hf3 Rh3 2.697836 1_555
Hf3 Rh2 2.697836 1_555
Hf3 Rh1 2.697836 1_555
Hf3 Pd2 2.804283 1_555
Hf3 Pd1 2.804283 1_555
Hf3 Pd0 2.804283 1_555
Hf4 O0 2.289243 1_565
Hf4 O1 2.289243 1_655
Hf4 Rh4 2.699897 1_554
Hf4 Rh3 2.702835 1_555
Hf5 O3 2.294087 1_556
Hf5 O2 2.297859 1_555
Hf5 Rh1 2.686102 1_545
Hf5 Rh2 2.686102 1_455
Hf6 O0 2.289243 1_556
Hf6 O2 2.289243 1_655
Hf6 Rh4 2.699897 1_545
Hf6 Rh2 2.702835 1_555
Hf7 O3 2.294087 1_565
Hf7 O1 2.297859 1_555
Hf7 Rh1 2.686102 1_554
Hf7 Rh3 2.686102 1_455
Hf8 O1 2.289243 1_556
Hf8 O2 2.289243 1_565
Hf8 Rh4 2.699897 1_455
Hf8 Rh1 2.702835 1_555
Hf9 O3 2.294087 1_655
Hf9 O0 2.297859 1_555
Hf9 Rh2 2.686101 1_554
Hf9 Rh3 2.686101 1_545
Hf10 O0 2.292516 1_555
Hf10 O1 2.292516 1_555
Hf10 Rh0 2.675564 1_555
Hf10 Pd2 2.784963 1_554
Hf10 Rh1 3.179243 1_554
Hf10 Rh2 3.179243 1_554
Hf11 O2 2.287911 1_555
Hf11 O3 2.292269 1_555
Hf11 Pd0 2.776745 1_455
Hf11 Pd1 2.776745 1_545
Hf11 Rh3 3.143927 1_445
Hf11 Rh4 3.164389 1_445
Hf12 O0 2.292516 1_555
Hf12 O2 2.292516 1_555
Hf12 Rh0 2.675564 1_555
Hf12 Pd1 2.784963 1_545
Hf12 Rh1 3.179243 1_545
Hf12 Rh3 3.179243 1_545
Hf13 O1 2.287911 1_555
Hf13 O3 2.292269 1_555
Hf13 Pd0 2.776745 1_455
Hf13 Pd2 2.776745 1_554
Hf13 Rh2 3.143927 1_454
Hf13 Rh4 3.164390 1_454
Hf14 O1 2.292516 1_555
Hf14 O2 2.292516 1_555
Hf14 Rh0 2.675564 1_555
Hf14 Pd0 2.784963 1_455
Hf14 Rh2 3.179243 1_455
Hf14 Rh3 3.179243 1_455
Hf15 O0 2.287911 1_555
Hf15 O3 2.292269 1_555
Hf15 Pd1 2.776745 1_545
Hf15 Pd2 2.776745 1_554
Hf15 Rh1 3.143927 1_544
Hf15 Rh4 3.164390 1_544
