# generated using pymatgen
data_Nb2CdF12
_symmetry_space_group_name_H-M   'P 1'
_cell_length_a   7.13482959
_cell_length_b   7.13482979
_cell_length_c   10.29233075
_cell_angle_alpha   68.67004186
_cell_angle_beta   68.67004231
_cell_angle_gamma   76.71970921
_symmetry_Int_Tables_number   1
_chemical_formula_structural   Nb2CdF12
_chemical_formula_sum   'Nb4 Cd2 F24'
_cell_volume   451.74536339
_cell_formula_units_Z   2
loop_
 _symmetry_equiv_pos_site_id
 _symmetry_equiv_pos_as_xyz
  1  'x, y, z'
loop_
 _atom_site_type_symbol
 _atom_site_label
 _atom_site_symmetry_multiplicity
 _atom_site_fract_x
 _atom_site_fract_y
 _atom_site_fract_z
 _atom_site_occupancy
  Nb  Nb0  1  0.24164327  0.28286486  0.37715479  1
  Nb  Nb1  1  0.28286486  0.24164327  0.87715479  1
  Nb  Nb2  1  0.75835673  0.71713514  0.62284521  1
  Nb  Nb3  1  0.71713514  0.75835673  0.12284521  1
  Cd  Cd0  1  0.16049591  0.83950409  0.75000000  1
  Cd  Cd1  1  0.83950409  0.16049591  0.25000000  1
  F  F0  1  0.84592948  0.86264507  0.22141827  1
  F  F1  1  0.15407052  0.13735493  0.77858173  1
  F  F2  1  0.27510765  0.00060665  0.51241373  1
  F  F3  1  0.97794790  0.30264799  0.50849016  1
  F  F4  1  0.30264799  0.97794790  0.00849016  1
  F  F5  1  0.36829429  0.37079877  0.47246231  1
  F  F6  1  0.37079877  0.36829429  0.97246231  1
  F  F7  1  0.86264507  0.84592948  0.72141827  1
  F  F8  1  0.79115017  0.48417309  0.24787923  1
  F  F9  1  0.99939335  0.72489235  0.98758627  1
  F  F10  1  0.72489235  0.99939335  0.48758627  1
  F  F11  1  0.00060665  0.27510765  0.01241373  1
  F  F12  1  0.53369771  0.21139309  0.73744609  1
  F  F13  1  0.63170571  0.62920123  0.52753769  1
  F  F14  1  0.20884983  0.51582691  0.75212077  1
  F  F15  1  0.62920123  0.63170571  0.02753769  1
  F  F16  1  0.48417309  0.79115017  0.74787923  1
  F  F17  1  0.78860691  0.46630229  0.76255391  1
  F  F18  1  0.51582691  0.20884983  0.25212077  1
  F  F19  1  0.46630229  0.78860691  0.26255391  1
  F  F20  1  0.21139309  0.53369771  0.23744609  1
  F  F21  1  0.69735201  0.02205210  0.99150984  1
  F  F22  1  0.13735493  0.15407052  0.27858173  1
  F  F23  1  0.02205210  0.69735201  0.49150984  1
loop_
_geom_bond_atom_site_label_1
_geom_bond_atom_site_label_2
_geom_bond_distance
_geom_bond_site_symmetry_2
Cd0 F9 2.214019 1_455
Cd0 F2 2.214019 1_565
Cd0 F7 2.237178 1_455
Cd0 F1 2.237178 1_565
Cd0 F16 2.248446 1_555
Cd0 F14 2.248446 1_555
Cd1 F11 2.214019 1_655
Cd1 F10 2.214019 1_545
Cd1 F22 2.237178 1_655
Cd1 F0 2.237178 1_545
Cd1 F18 2.248446 1_555
Cd1 F8 2.248446 1_555
F0 Nb3 1.992214 1_555
F1 Nb1 1.992214 1_555
F2 Nb0 2.007997 1_555
F3 Nb0 1.885089 1_655
F4 Nb1 1.885089 1_564
F5 Nb0 1.877613 1_555
F6 Nb1 1.877614 1_555
F7 Nb2 1.992214 1_555
F8 Nb3 1.987521 1_555
F9 Nb3 2.007997 1_556
F10 Nb2 2.007997 1_555
F11 Nb1 2.007997 1_554
F12 Nb1 1.869037 1_555
F13 Nb2 1.877613 1_555
F14 Nb1 1.987521 1_555
F15 Nb3 1.877614 1_555
F16 Nb2 1.987521 1_555
F17 Nb2 1.869037 1_555
F18 Nb0 1.987521 1_555
F19 Nb3 1.869037 1_555
F20 Nb0 1.869037 1_555
F21 Nb3 1.885089 1_546
F22 Nb0 1.992214 1_555
F23 Nb2 1.885089 1_455
