# generated using pymatgen
data_CrPd4Pt
_symmetry_space_group_name_H-M   'P 1'
_cell_length_a   6.14422278
_cell_length_b   6.14422304
_cell_length_c   3.92955114
_cell_angle_alpha   90.00000000
_cell_angle_beta   90.00000000
_cell_angle_gamma   143.07649994
_symmetry_Int_Tables_number   1
_chemical_formula_structural   CrPd4Pt
_chemical_formula_sum   'Cr1 Pd4 Pt1'
_cell_volume   89.11879954
_cell_formula_units_Z   1
loop_
 _symmetry_equiv_pos_site_id
 _symmetry_equiv_pos_as_xyz
  1  'x, y, z'
loop_
 _atom_site_type_symbol
 _atom_site_label
 _atom_site_symmetry_multiplicity
 _atom_site_fract_x
 _atom_site_fract_y
 _atom_site_fract_z
 _atom_site_occupancy
  Cr  Cr0  1  0.00000000  0.00000000  0.00000000  1
  Pd  Pd0  1  0.33633579  0.66366421  0.00000000  1
  Pd  Pd1  1  0.66366421  0.33633579  0.00000000  1
  Pd  Pd2  1  0.83418745  0.16581255  0.50000000  1
  Pd  Pd3  1  0.16581255  0.83418745  0.50000000  1
  Pt  Pt0  1  0.50000000  0.50000000  0.50000000  1
loop_
_geom_bond_atom_site_label_1
_geom_bond_atom_site_label_2
_geom_bond_distance
_geom_bond_site_symmetry_2
Cr0 Pd1 2.724880 1_555
Cr0 Pd0 2.724880 1_445
Cr0 Pd0 2.724880 1_555
Cr0 Pd1 2.724880 1_445
Cr0 Pd3 2.756035 1_545
Cr0 Pd3 2.756035 1_544
Cr0 Pd2 2.756035 1_455
Cr0 Pd2 2.756035 1_454
Cr0 Pt0 2.765157 1_555
Cr0 Pt0 2.765157 1_554
Cr0 Pt0 2.765157 1_445
Cr0 Pt0 2.765157 1_444
Pd0 Pt0 2.738533 1_554
Pd0 Pt0 2.738533 1_555
Pd0 Pd2 2.765270 1_455
Pd0 Pd2 2.765270 1_454
Pd0 Pd2 2.765270 1_564
Pd0 Pd2 2.765270 1_565
Pd0 Pd3 2.794815 1_555
Pd0 Pd3 2.794815 1_554
Pd0 Pd1 2.799387 1_455
Pd0 Pd1 2.799387 1_565
Pd1 Pt0 2.738533 1_554
Pd1 Pt0 2.738533 1_555
Pd1 Pd3 2.765270 1_654
Pd1 Pd3 2.765270 1_655
Pd1 Pd3 2.765270 1_544
Pd1 Pd3 2.765270 1_545
Pd1 Pd2 2.794815 1_554
Pd1 Pd2 2.794815 1_555
Pd2 Pt0 2.742469 1_655
Pd2 Pt0 2.742469 1_545
Pd2 Pd3 2.763598 1_545
Pd2 Pd3 2.763599 1_655
Pd3 Pt0 2.742469 1_455
Pd3 Pt0 2.742469 1_565
