# generated using pymatgen
data_Zr6Zn17Ag6P
_symmetry_space_group_name_H-M   'P 1'
_cell_length_a   8.78107189
_cell_length_b   8.78964786
_cell_length_c   8.78964794
_cell_angle_alpha   59.99999970
_cell_angle_beta   59.96768734
_cell_angle_gamma   59.96768252
_symmetry_Int_Tables_number   1
_chemical_formula_structural   Zr6Zn17Ag6P
_chemical_formula_sum   'Zr6 Zn17 Ag6 P1'
_cell_volume   479.47193331
_cell_formula_units_Z   1
loop_
 _symmetry_equiv_pos_site_id
 _symmetry_equiv_pos_as_xyz
  1  'x, y, z'
loop_
 _atom_site_type_symbol
 _atom_site_label
 _atom_site_symmetry_multiplicity
 _atom_site_fract_x
 _atom_site_fract_y
 _atom_site_fract_z
 _atom_site_occupancy
  Zr  Zr0  1  0.70363005  0.29634565  0.29634565  1
  Zr  Zr1  1  0.29636995  0.70365435  0.70365435  1
  Zr  Zr2  1  0.29636995  0.70365435  0.29632034  1
  Zr  Zr3  1  0.70363005  0.29634565  0.70367966  1
  Zr  Zr4  1  0.29636995  0.29632034  0.70365435  1
  Zr  Zr5  1  0.70363005  0.70367966  0.29634565  1
  Zn  Zn0  1  0.63485050  0.12171650  0.12171650  1
  Zn  Zn1  1  0.36514950  0.87828350  0.87828350  1
  Zn  Zn2  1  0.50000000  0.00000000  0.00000000  1
  Zn  Zn3  1  0.00000000  0.50000000  0.50000000  1
  Zn  Zn4  1  0.00000000  0.50000000  0.00000000  1
  Zn  Zn5  1  0.50000000  0.00000000  0.50000000  1
  Zn  Zn6  1  0.00000000  0.00000000  0.50000000  1
  Zn  Zn7  1  0.50000000  0.50000000  0.00000000  1
  Zn  Zn8  1  0.33333186  0.33197077  0.33197077  1
  Zn  Zn9  1  0.66666814  0.66802923  0.66802923  1
  Zn  Zn10  1  0.33333186  0.33197077  0.00272760  1
  Zn  Zn11  1  0.33333186  0.00272760  0.33197077  1
  Zn  Zn12  1  0.66666814  0.66802923  0.99727240  1
  Zn  Zn13  1  0.66666814  0.99727240  0.66802923  1
  Zn  Zn14  1  0.00411879  0.33196107  0.33196107  1
  Zn  Zn15  1  0.99588121  0.66803893  0.66803893  1
  Zn  Zn16  1  0.00000000  0.00000000  0.00000000  1
  Ag  Ag0  1  0.12126190  0.11950572  0.11950572  1
  Ag  Ag1  1  0.87873810  0.88049428  0.88049428  1
  Ag  Ag2  1  0.12126190  0.11950572  0.63972665  1
  Ag  Ag3  1  0.12126190  0.63972665  0.11950572  1
  Ag  Ag4  1  0.87873810  0.88049428  0.36027335  1
  Ag  Ag5  1  0.87873810  0.36027335  0.88049428  1
  P  P0  1  0.50000000  0.50000000  0.50000000  1
loop_
_geom_bond_atom_site_label_1
_geom_bond_atom_site_label_2
_geom_bond_distance
_geom_bond_site_symmetry_2
Zn0 Zn16 2.616738 1_655
Zn0 Zn7 2.715147 1_555
Zn0 Zn5 2.715147 1_555
Zn0 Zn2 2.715147 1_555
Zn0 Zn10 2.731379 1_555
Zn0 Zn11 2.731379 1_555
Zn0 Zn8 2.731383 1_555
Zn0 Zr5 3.047723 1_545
Zn0 Zr3 3.047723 1_554
Zn0 Zr0 3.047730 1_555
Zn1 Zn16 2.616738 1_566
Zn1 Zn7 2.715147 1_556
Zn1 Zn5 2.715147 1_565
Zn1 Zn2 2.715147 1_566
Zn1 Zn12 2.731379 1_555
Zn1 Zn13 2.731379 1_555
Zn1 Zn9 2.731383 1_555
Zn1 Zr4 3.047723 1_565
Zn1 Zr2 3.047723 1_556
Zn1 Zr1 3.047730 1_555
Zn2 Zr5 3.159419 1_545
Zn2 Zr4 3.159419 1_554
Zn2 Zr3 3.159420 1_554
Zn2 Zr2 3.159420 1_545
Zn3 Zn9 2.541043 1_455
Zn3 Zn8 2.541043 1_555
Zn3 Zr4 3.158611 1_555
Zn3 Zr5 3.158611 1_455
Zn3 Zr2 3.158611 1_555
Zn3 Zr3 3.158611 1_455
Zn4 Zr1 3.158612 1_554
Zn4 Zr0 3.158612 1_455
Zn4 Zr5 3.158617 1_455
Zn4 Zr4 3.158617 1_554
Zn5 Zn9 2.533156 1_545
Zn5 Zn8 2.533156 1_555
Zn5 Zr4 3.159413 1_555
Zn5 Zr5 3.159413 1_545
Zn5 Zr0 3.159421 1_555
Zn5 Zr1 3.159421 1_545
Zn6 Zr1 3.158612 1_545
Zn6 Zr0 3.158612 1_455
Zn6 Zr3 3.158617 1_455
Zn6 Zr2 3.158617 1_545
Zn7 Zn8 2.533156 1_555
Zn7 Zn9 2.533156 1_554
Zn7 Zr2 3.159413 1_555
Zn7 Zr3 3.159413 1_554
Zn7 Zr0 3.159421 1_555
Zn7 Zr1 3.159421 1_554
Zn8 Zr0 2.971329 1_555
Zn8 Zr2 2.982166 1_555
Zn8 Zr4 2.982166 1_555
Zn9 Zr1 2.971329 1_555
Zn9 Zr3 2.982166 1_555
Zn9 Zr5 2.982166 1_555
Zn10 Zn7 2.533151 1_555
Zn10 Zn2 2.533158 1_555
Zn10 Zn4 2.541045 1_555
Zn10 Zn14 2.890933 1_555
Zn10 Zn11 2.893932 1_555
Zn10 Zn8 2.893932 1_555
Zn10 Zr3 2.971329 1_554
Zn10 Zr1 2.982173 1_554
Zn10 Zr4 2.982184 1_554
Zn11 Zn5 2.533151 1_555
Zn11 Zn2 2.533158 1_555
Zn11 Zn6 2.541045 1_555
Zn11 Zn14 2.890933 1_555
Zn11 Zn8 2.893932 1_555
Zn11 Zr5 2.971329 1_545
Zn11 Zr1 2.982173 1_545
Zn11 Zr2 2.982184 1_545
Zn12 Zn7 2.533151 1_556
Zn12 Zn2 2.533158 1_566
Zn12 Zn4 2.541045 1_656
Zn12 Zn15 2.890933 1_555
Zn12 Zn13 2.893932 1_555
Zn12 Zn9 2.893932 1_555
Zn12 Zr2 2.971329 1_556
Zn12 Zr0 2.982173 1_556
Zn12 Zr5 2.982184 1_556
Zn13 Zn5 2.533151 1_565
Zn13 Zn2 2.533158 1_566
Zn13 Zn6 2.541045 1_665
Zn13 Zn15 2.890933 1_555
Zn13 Zn9 2.893932 1_555
Zn13 Zr4 2.971329 1_565
Zn13 Zr0 2.982173 1_565
Zn13 Zr3 2.982184 1_565
Zn14 Zn3 2.537514 1_555
Zn14 Zn6 2.537530 1_555
Zn14 Zn4 2.537530 1_555
Zn14 Zn8 2.890929 1_555
Zn14 Zr5 2.984942 1_455
Zn14 Zr3 2.984942 1_455
Zn14 Zr0 2.984947 1_455
Zn15 Zn3 2.537514 1_655
Zn15 Zn6 2.537530 1_665
Zn15 Zn4 2.537530 1_656
Zn15 Zn9 2.890929 1_555
Zn15 Zr4 2.984942 1_655
Zn15 Zr2 2.984942 1_655
Zn15 Zr1 2.984947 1_655
Ag0 Zn16 2.585167 1_555
Ag0 Zn2 2.716056 1_555
Ag0 Zn4 2.732069 1_555
Ag0 Zn6 2.732069 1_555
Ag0 Zn11 2.767630 1_555
Ag0 Zn10 2.767630 1_555
Ag0 Zn14 2.770234 1_555
Ag0 Ag5 2.991406 1_454
Ag0 Ag4 2.991406 1_445
Ag0 Zn1 2.997095 1_544
Ag0 Zr2 3.037366 1_545
Ag0 Zr4 3.037366 1_554
Ag0 Zr0 3.047173 1_455
Ag1 Zn16 2.585167 1_666
Ag1 Zn2 2.716056 1_566
Ag1 Zn4 2.732069 1_656
Ag1 Zn6 2.732069 1_665
Ag1 Zn13 2.767630 1_555
Ag1 Zn12 2.767630 1_555
Ag1 Zn15 2.770234 1_555
Ag1 Ag3 2.991406 1_656
Ag1 Ag2 2.991406 1_665
Ag1 Zn0 2.997095 1_566
Ag1 Zr3 3.037366 1_565
Ag1 Zr5 3.037366 1_556
Ag1 Zr1 3.047173 1_655
Ag2 Zn16 2.585167 1_556
Ag2 Zn5 2.716056 1_555
Ag2 Zn3 2.732069 1_555
Ag2 Zn6 2.732069 1_555
Ag2 Zn11 2.767623 1_555
Ag2 Zn8 2.767628 1_555
Ag2 Zn14 2.770220 1_555
Ag2 Ag5 2.991406 1_455
Ag2 Zn1 2.997095 1_545
Ag2 Zr4 3.037360 1_555
Ag2 Zr1 3.037368 1_545
Ag2 Zr3 3.047172 1_455
Ag3 Zn16 2.585167 1_565
Ag3 Zn7 2.716056 1_555
Ag3 Zn4 2.732069 1_555
Ag3 Zn3 2.732069 1_555
Ag3 Zn10 2.767623 1_555
Ag3 Zn8 2.767627 1_555
Ag3 Zn14 2.770220 1_555
Ag3 Ag4 2.991406 1_455
Ag3 Zn1 2.997095 1_554
Ag3 Zr2 3.037360 1_555
Ag3 Zr1 3.037368 1_554
Ag3 Zr5 3.047172 1_455
Ag4 Zn16 2.585167 1_665
Ag4 Zn5 2.716056 1_565
Ag4 Zn3 2.732069 1_655
Ag4 Zn6 2.732069 1_665
Ag4 Zn13 2.767623 1_555
Ag4 Zn9 2.767628 1_555
Ag4 Zn15 2.770220 1_555
Ag4 Zn0 2.997095 1_565
Ag4 Zr5 3.037360 1_555
Ag4 Zr0 3.037368 1_565
Ag4 Zr2 3.047172 1_655
Ag5 Zn16 2.585167 1_656
Ag5 Zn7 2.716056 1_556
Ag5 Zn4 2.732069 1_656
Ag5 Zn3 2.732069 1_655
Ag5 Zn12 2.767623 1_555
Ag5 Zn9 2.767627 1_555
Ag5 Zn15 2.770220 1_555
Ag5 Zn0 2.997095 1_556
Ag5 Zr3 3.037360 1_555
Ag5 Zr0 3.037368 1_556
Ag5 Zr4 3.047172 1_655
P0 Zr1 2.530279 1_555
P0 Zr0 2.530279 1_555
P0 Zr3 2.530285 1_555
P0 Zr2 2.530285 1_555
P0 Zr5 2.530285 1_555
P0 Zr4 2.530285 1_555
