# generated using pymatgen
data_K3Rb5(TcN2)4
_symmetry_space_group_name_H-M   'P 1'
_cell_length_a   6.47966199
_cell_length_b   5.75720821
_cell_length_c   12.55579306
_cell_angle_alpha   90.00000000
_cell_angle_beta   89.75322582
_cell_angle_gamma   90.00000000
_symmetry_Int_Tables_number   1
_chemical_formula_structural   K3Rb5(TcN2)4
_chemical_formula_sum   'K3 Rb5 Tc4 N8'
_cell_volume   468.38654240
_cell_formula_units_Z   1
loop_
 _symmetry_equiv_pos_site_id
 _symmetry_equiv_pos_as_xyz
  1  'x, y, z'
loop_
 _atom_site_type_symbol
 _atom_site_label
 _atom_site_symmetry_multiplicity
 _atom_site_fract_x
 _atom_site_fract_y
 _atom_site_fract_z
 _atom_site_occupancy
  K  K0  1  0.60744340  0.25000000  0.67596221  1
  K  K1  1  0.89336440  0.75000000  0.17690195  1
  K  K2  1  0.39435176  0.75000000  0.32325121  1
  Rb  Rb0  1  0.71033316  0.25000000  0.02783091  1
  Rb  Rb1  1  0.20833295  0.25000000  0.47417648  1
  Rb  Rb2  1  0.29126755  0.75000000  0.97370910  1
  Rb  Rb3  1  0.79052756  0.75000000  0.52567321  1
  Rb  Rb4  1  0.11334792  0.25000000  0.82277762  1
  Tc  Tc0  1  0.71834581  0.25000000  0.32537962  1
  Tc  Tc1  1  0.21970511  0.25000000  0.17918000  1
  Tc  Tc2  1  0.27862967  0.75000000  0.67376433  1
  Tc  Tc3  1  0.77733479  0.75000000  0.82172431  1
  N  N0  1  0.73053503  0.25000000  0.46161091  1
  N  N1  1  0.23576015  0.25000000  0.04312295  1
  N  N2  1  0.27414124  0.75000000  0.53747177  1
  N  N3  1  0.77318636  0.75000000  0.95856136  1
  N  N4  1  0.46117103  0.25000000  0.25973400  1
  N  N5  1  0.96071143  0.25000000  0.24439593  1
  N  N6  1  0.53141643  0.75000000  0.74454861  1
  N  N7  1  0.03009327  0.75000000  0.75022351  1
loop_
_geom_bond_atom_site_label_1
_geom_bond_atom_site_label_2
_geom_bond_distance
_geom_bond_site_symmetry_2
K0 N0 2.803753 1_555
K0 N6 3.044172 1_555
K0 N6 3.044172 1_545
K1 N3 2.853116 1_554
K1 N5 3.032843 1_555
K1 N5 3.032843 1_565
K2 N2 2.797000 1_555
K2 N4 3.017759 1_565
K2 N4 3.017759 1_555
N0 Tc0 1.712654 1_555
N0 Rb3 3.014490 1_545
N0 Rb3 3.014490 1_555
N0 Rb1 3.100665 1_655
N0 Rb1 3.386690 1_555
N1 Tc1 1.711022 1_555
N1 Rb4 2.881351 1_554
N1 Rb2 3.028633 1_554
N1 Rb2 3.028633 1_544
N1 Rb0 3.080236 1_555
N1 Rb0 3.410825 1_455
N2 Tc2 1.711634 1_555
N2 Rb1 3.017067 1_565
N2 Rb1 3.017067 1_555
N2 Rb3 3.137790 1_455
N2 Rb3 3.348649 1_555
N3 Tc3 1.718192 1_555
N3 Rb0 3.034076 1_556
N3 Rb0 3.034076 1_566
N3 Rb2 3.127640 1_555
N3 Rb2 3.363192 1_655
N4 Tc0 1.862283 1_555
N4 Tc1 1.866716 1_555
N4 Rb1 3.145724 1_555
N4 Rb0 3.323286 1_555
N5 Tc1 1.864131 1_655
N5 Tc0 1.867207 1_555
N5 Rb0 3.172353 1_555
N5 Rb1 3.307261 1_655
N6 Tc2 1.866916 1_555
N6 Tc3 1.868530 1_555
N6 Rb3 3.214263 1_555
N6 Rb2 3.265216 1_555
N7 Tc3 1.864308 1_455
N7 Tc2 1.871305 1_555
N7 Rb4 3.067815 1_565
N7 Rb4 3.067815 1_555
N7 Rb3 3.224346 1_455
N7 Rb2 3.283095 1_555
