# generated using pymatgen
data_SrAsPRu2
_symmetry_space_group_name_H-M   'P 1'
_cell_length_a   6.39365157
_cell_length_b   6.39365080
_cell_length_c   6.39365164
_cell_angle_alpha   142.62282964
_cell_angle_beta   142.62281678
_cell_angle_gamma   53.89172589
_symmetry_Int_Tables_number   1
_chemical_formula_structural   SrAsPRu2
_chemical_formula_sum   'Sr1 As1 P1 Ru2'
_cell_volume   95.68580799
_cell_formula_units_Z   1
loop_
 _symmetry_equiv_pos_site_id
 _symmetry_equiv_pos_as_xyz
  1  'x, y, z'
loop_
 _atom_site_type_symbol
 _atom_site_label
 _atom_site_symmetry_multiplicity
 _atom_site_fract_x
 _atom_site_fract_y
 _atom_site_fract_z
 _atom_site_occupancy
  Sr  Sr0  1  0.99861475  0.99861475  0.00000000  1
  As  As0  1  0.64194531  0.64194531  0.00000000  1
  P  P0  1  0.34821983  0.34821983  1.00000000  1
  Ru  Ru0  1  0.25561056  0.75561056  0.50000000  1
  Ru  Ru1  1  0.75561056  0.25561056  0.50000000  1
loop_
_geom_bond_atom_site_label_1
_geom_bond_atom_site_label_2
_geom_bond_distance
_geom_bond_site_symmetry_2
As0 Ru1 2.424019 1_565
As0 Ru1 2.424020 1_554
As0 Ru0 2.424020 1_554
As0 Ru0 2.424020 1_655
As0 Sr0 3.326199 1_545
As0 Sr0 3.326199 1_455
As0 Sr0 3.326199 1_444
As0 Sr0 3.326199 1_556
P0 Ru0 2.304671 1_545
P0 Ru0 2.304671 1_556
P0 Ru1 2.304671 1_556
P0 Ru1 2.304671 1_455
P0 Sr0 3.366484 1_456
P0 Sr0 3.366485 1_546
P0 Sr0 3.366485 1_557
P0 Sr0 3.366485 1_445
Ru0 Sr0 3.445300 1_455
Ru0 Sr0 3.445300 1_556
Ru0 Sr0 3.574788 1_445
Ru0 Sr0 3.574789 1_456
Ru1 Sr0 3.445299 1_556
Ru1 Sr0 3.445300 1_545
Ru1 Sr0 3.574789 1_546
Ru1 Sr0 3.574789 1_445
