# generated using pymatgen
data_Sb4IrRh3Se4
_symmetry_space_group_name_H-M   'P 1'
_cell_length_a   6.22677234
_cell_length_b   6.22677234
_cell_length_c   6.22677234
_cell_angle_alpha   90.04038086
_cell_angle_beta   90.04038086
_cell_angle_gamma   89.95961914
_symmetry_Int_Tables_number   1
_chemical_formula_structural   Sb4IrRh3Se4
_chemical_formula_sum   'Sb4 Ir1 Rh3 Se4'
_cell_volume   241.42855748
_cell_formula_units_Z   1
loop_
 _symmetry_equiv_pos_site_id
 _symmetry_equiv_pos_as_xyz
  1  'x, y, z'
loop_
 _atom_site_type_symbol
 _atom_site_label
 _atom_site_symmetry_multiplicity
 _atom_site_fract_x
 _atom_site_fract_y
 _atom_site_fract_z
 _atom_site_occupancy
  Sb  Sb0  1  0.87695051  0.37695051  0.12304949  1
  Sb  Sb1  1  0.37580748  0.12428403  0.87749311  1
  Sb  Sb2  1  0.12250689  0.87580748  0.37571597  1
  Sb  Sb3  1  0.62428403  0.62250689  0.62419252  1
  Ir  Ir0  1  0.50335536  0.00335536  0.49664464  1
  Rh  Rh0  1  0.00429275  0.49527812  0.50346032  1
  Rh  Rh1  1  0.49653968  0.50429275  0.00472188  1
  Rh  Rh2  1  0.99527812  0.99653968  0.99570725  1
  Se  Se0  1  0.12106584  0.62106584  0.87893416  1
  Se  Se1  1  0.62092283  0.88075429  0.12175778  1
  Se  Se2  1  0.87824222  0.12092283  0.61924571  1
  Se  Se3  1  0.38075429  0.37824222  0.37907717  1
loop_
_geom_bond_atom_site_label_1
_geom_bond_atom_site_label_2
_geom_bond_distance
_geom_bond_site_symmetry_2
Sb0 Se0 2.634660 1_654
Sb1 Se1 2.634218 1_546
Sb2 Se2 2.634218 1_465
Sb3 Se3 2.634218 1_555
Ir0 Se3 2.562605 1_555
Ir0 Se1 2.562605 1_545
Ir0 Se2 2.562605 1_555
Ir0 Sb3 2.611681 1_545
Ir0 Sb2 2.611681 1_545
Ir0 Sb1 2.611681 1_555
Rh0 Se2 2.564229 1_455
Rh0 Se0 2.569865 1_555
Rh0 Se3 2.573965 1_555
Rh0 Sb0 2.603501 1_455
Rh0 Sb3 2.605924 1_455
Rh0 Sb2 2.606698 1_555
Rh1 Se3 2.564229 1_555
Rh1 Se0 2.569865 1_554
Rh1 Se1 2.573965 1_555
Rh1 Sb0 2.603501 1_555
Rh1 Sb1 2.605924 1_554
Rh1 Sb3 2.606698 1_554
Rh2 Se1 2.564229 1_556
Rh2 Se0 2.569865 1_655
Rh2 Se2 2.573965 1_565
Rh2 Sb0 2.603501 1_566
Rh2 Sb2 2.605924 1_656
Rh2 Sb1 2.606698 1_665
