# generated using pymatgen
data_Sr3BAsO3
_symmetry_space_group_name_H-M   'P 1'
_cell_length_a   5.28959716
_cell_length_b   5.28959700
_cell_length_c   12.99514218
_cell_angle_alpha   90.00000000
_cell_angle_beta   90.00000000
_cell_angle_gamma   119.99999489
_symmetry_Int_Tables_number   1
_chemical_formula_structural   Sr3BAsO3
_chemical_formula_sum   'Sr6 B2 As2 O6'
_cell_volume   314.88855404
_cell_formula_units_Z   2
loop_
 _symmetry_equiv_pos_site_id
 _symmetry_equiv_pos_as_xyz
  1  'x, y, z'
loop_
 _atom_site_type_symbol
 _atom_site_label
 _atom_site_symmetry_multiplicity
 _atom_site_fract_x
 _atom_site_fract_y
 _atom_site_fract_z
 _atom_site_occupancy
  Sr  Sr0  1  0.33333300  0.66666700  0.39645740  1
  Sr  Sr1  1  0.00000000  0.00000000  0.25000000  1
  Sr  Sr2  1  0.00000000  0.00000000  0.75000000  1
  Sr  Sr3  1  0.66666700  0.33333300  0.89645740  1
  Sr  Sr4  1  0.66666700  0.33333300  0.60354260  1
  Sr  Sr5  1  0.33333300  0.66666700  0.10354260  1
  B  B0  1  0.33333300  0.66666700  0.75000000  1
  B  B1  1  0.66666700  0.33333300  0.25000000  1
  As  As0  1  0.00000000  0.00000000  0.00000000  1
  As  As1  1  0.00000000  0.00000000  0.50000000  1
  O  O0  1  0.51585491  0.48414509  0.25000000  1
  O  O1  1  0.96829118  0.48414509  0.25000000  1
  O  O2  1  0.48414509  0.96829118  0.75000000  1
  O  O3  1  0.51585491  0.03170882  0.25000000  1
  O  O4  1  0.03170882  0.51585491  0.75000000  1
  O  O5  1  0.48414509  0.51585491  0.75000000  1
loop_
_geom_bond_atom_site_label_1
_geom_bond_atom_site_label_2
_geom_bond_distance
_geom_bond_site_symmetry_2
B0 O5 1.381718 1_555
B0 O2 1.381718 1_555
B0 O4 1.381718 1_555
B1 O0 1.381718 1_555
B1 O3 1.381718 1_555
B1 O1 1.381718 1_555
As0 Sr1 3.248786 1_555
As0 Sr2 3.248786 1_554
As0 Sr5 3.337229 1_545
As0 Sr3 3.337229 1_454
As0 Sr5 3.337234 1_555
As0 Sr3 3.337234 1_444
As0 Sr5 3.337234 1_445
As0 Sr3 3.337234 1_554
As1 Sr1 3.248786 1_555
As1 Sr2 3.248786 1_555
As1 Sr4 3.337229 1_455
As1 Sr0 3.337229 1_545
As1 Sr4 3.337234 1_445
As1 Sr0 3.337234 1_555
As1 Sr4 3.337234 1_555
As1 Sr0 3.337234 1_445
O0 Sr0 2.533512 1_555
O0 Sr5 2.533512 1_555
O0 Sr1 2.648785 1_665
O0 Sr1 2.648785 1_555
O1 Sr0 2.533506 1_655
O1 Sr5 2.533506 1_655
O1 Sr1 2.648782 1_655
O1 Sr1 2.648787 1_665
O2 Sr3 2.533506 1_565
O2 Sr4 2.533506 1_565
O2 Sr2 2.648782 1_565
O2 Sr2 2.648787 1_665
O3 Sr0 2.533506 1_545
O3 Sr5 2.533506 1_545
O3 Sr1 2.648782 1_655
O3 Sr1 2.648787 1_555
O4 Sr3 2.533506 1_455
O4 Sr4 2.533506 1_455
O4 Sr2 2.648782 1_565
O4 Sr2 2.648787 1_555
O5 Sr3 2.533512 1_555
O5 Sr4 2.533512 1_555
O5 Sr2 2.648785 1_555
O5 Sr2 2.648785 1_665
