# generated using pymatgen
data_K4Ba2HfBi4
_symmetry_space_group_name_H-M   'P 1'
_cell_length_a   11.31816400
_cell_length_b   11.31816367
_cell_length_c   8.72031900
_cell_angle_alpha   89.15679072
_cell_angle_beta   89.15679205
_cell_angle_gamma   60.27085037
_symmetry_Int_Tables_number   1
_chemical_formula_structural   K4Ba2HfBi4
_chemical_formula_sum   'K8 Ba4 Hf2 Bi8'
_cell_volume   969.90884551
_cell_formula_units_Z   2
loop_
 _symmetry_equiv_pos_site_id
 _symmetry_equiv_pos_as_xyz
  1  'x, y, z'
loop_
 _atom_site_type_symbol
 _atom_site_label
 _atom_site_symmetry_multiplicity
 _atom_site_fract_x
 _atom_site_fract_y
 _atom_site_fract_z
 _atom_site_occupancy
  K  K0  1  0.94117362  0.53021791  0.37092383  1
  K  K1  1  0.53021791  0.94117362  0.37092383  1
  K  K2  1  0.72115920  0.13356214  0.19671325  1
  K  K3  1  0.13356214  0.72115920  0.19671325  1
  K  K4  1  0.14229552  0.14229552  0.21246695  1
  K  K5  1  0.27652112  0.86433657  0.69277025  1
  K  K6  1  0.86433657  0.27652112  0.69277025  1
  K  K7  1  0.85580603  0.85580603  0.66666170  1
  Ba  Ba0  1  0.52984336  0.52984336  0.37191827  1
  Ba  Ba1  1  0.05007323  0.47726049  0.87394488  1
  Ba  Ba2  1  0.47726049  0.05007323  0.87394488  1
  Ba  Ba3  1  0.47654212  0.47654212  0.86982829  1
  Hf  Hf0  1  0.33340023  0.33340023  0.48144442  1
  Hf  Hf1  1  0.66623132  0.66623132  0.98589118  1
  Bi  Bi0  1  0.38758994  0.80392079  0.08984662  1
  Bi  Bi1  1  0.80392079  0.38758994  0.08984662  1
  Bi  Bi2  1  0.80671970  0.80671970  0.06910482  1
  Bi  Bi3  1  0.60751031  0.20197609  0.59205141  1
  Bi  Bi4  1  0.20197609  0.60751031  0.59205141  1
  Bi  Bi5  1  0.19835176  0.19835176  0.60529217  1
  Bi  Bi6  1  0.33620181  0.33620181  0.14929932  1
  Bi  Bi7  1  0.65992077  0.65992077  0.65841439  1
loop_
_geom_bond_atom_site_label_1
_geom_bond_atom_site_label_2
_geom_bond_distance
_geom_bond_site_symmetry_2
K0 K4 4.067146 1_655
K0 K7 4.223640 1_555
K1 K4 4.067146 1_565
K1 K7 4.223640 1_555
Ba0 Bi7 3.597622 1_555
Ba0 Bi0 3.633712 1_555
Ba0 Bi1 3.633712 1_555
Ba0 Bi3 3.851349 1_555
Ba0 Bi4 3.851349 1_555
Ba0 Hf0 3.946756 1_555
Ba0 K2 4.196644 1_555
Ba0 K3 4.196644 1_555
Ba0 Hf1 4.260878 1_554
Ba0 Bi6 4.288351 1_555
Ba0 K6 4.437529 1_555
Ba0 K5 4.437529 1_555
Ba0 Ba3 4.448262 1_555
Ba0 Ba3 4.518248 1_554
Ba0 K1 4.657487 1_555
Ba0 K0 4.657487 1_555
Ba1 Bi5 3.621810 1_555
Ba1 Bi4 3.668042 1_555
Ba1 Bi6 3.713526 1_556
Ba1 Bi2 3.774864 1_456
Ba1 Bi1 3.863961 1_456
Ba1 Hf1 3.888724 1_455
Ba1 K7 4.123605 1_455
Ba1 K6 4.125257 1_455
Ba1 Bi7 4.287370 1_455
Ba1 K3 4.396531 1_556
Ba1 K0 4.454987 1_456
Ba1 K4 4.473653 1_556
Ba1 K0 4.524254 1_455
Ba2 Bi5 3.621810 1_555
Ba2 Bi3 3.668042 1_555
Ba2 Bi6 3.713526 1_556
Ba2 Bi2 3.774864 1_546
Ba2 Bi0 3.863961 1_546
Ba2 Hf1 3.888724 1_545
Ba2 K7 4.123606 1_545
Ba2 K5 4.125257 1_545
Ba2 Bi7 4.287370 1_545
Ba2 K2 4.396531 1_556
Ba2 K1 4.454986 1_546
Ba2 K4 4.473653 1_556
Ba2 K1 4.524254 1_545
Ba3 Bi6 3.641398 1_556
Ba3 Bi4 3.642678 1_555
Ba3 Bi3 3.642678 1_555
Ba3 Bi0 3.857035 1_556
Ba3 Bi1 3.857035 1_556
Bi0 Hf1 2.877372 1_554
Bi0 K3 3.546656 1_555
Bi0 K4 3.606400 1_565
Bi0 K5 3.639171 1_554
Bi0 K1 3.707103 1_555
Bi1 Hf1 2.877372 1_554
Bi1 K2 3.546656 1_555
Bi1 K4 3.606400 1_655
Bi1 K6 3.639171 1_554
Bi1 K0 3.707103 1_555
Bi2 Hf1 2.856349 1_554
Bi2 K2 3.520946 1_565
Bi2 K3 3.520946 1_655
Bi2 K7 3.622814 1_554
Bi2 K0 3.766809 1_555
Bi2 K1 3.766809 1_555
Bi3 Hf0 2.869988 1_555
Bi3 K6 3.530171 1_555
Bi3 K7 3.567926 1_545
Bi3 K2 3.619313 1_555
Bi3 K1 3.996882 1_545
Bi4 Hf0 2.869988 1_555
Bi4 K5 3.530171 1_555
Bi4 K7 3.567926 1_455
Bi4 K3 3.619313 1_555
Bi4 K0 3.996882 1_455
Bi5 Hf0 2.838837 1_555
Bi5 K5 3.503443 1_545
Bi5 K6 3.503444 1_455
Bi5 K4 3.614789 1_555
Bi5 K0 3.982914 1_455
Bi5 K1 3.982914 1_545
Bi6 Hf0 2.895997 1_555
Bi6 K3 3.811676 1_555
Bi6 K2 3.811677 1_555
Bi6 K4 3.826541 1_555
Bi7 Hf1 2.860472 1_555
Bi7 K1 3.716452 1_555
Bi7 K0 3.716452 1_555
Bi7 K6 3.781215 1_555
Bi7 K5 3.781215 1_555
Bi7 K7 3.836710 1_555
