# generated using pymatgen
data_Cs2Nb2OF10
_symmetry_space_group_name_H-M   'P 1'
_cell_length_a   5.18883895
_cell_length_b   7.49712076
_cell_length_c   14.09200610
_cell_angle_alpha   80.35963890
_cell_angle_beta   90.00000000
_cell_angle_gamma   90.00000000
_symmetry_Int_Tables_number   1
_chemical_formula_structural   Cs2Nb2OF10
_chemical_formula_sum   'Cs4 Nb4 O2 F20'
_cell_volume   540.45661160
_cell_formula_units_Z   2
loop_
 _symmetry_equiv_pos_site_id
 _symmetry_equiv_pos_as_xyz
  1  'x, y, z'
loop_
 _atom_site_type_symbol
 _atom_site_label
 _atom_site_symmetry_multiplicity
 _atom_site_fract_x
 _atom_site_fract_y
 _atom_site_fract_z
 _atom_site_occupancy
  Cs  Cs0  1  0.39511494  0.23682582  0.59131752  1
  Cs  Cs1  1  0.60488506  0.23682582  0.09131752  1
  Cs  Cs2  1  0.60488506  0.76317418  0.40868248  1
  Cs  Cs3  1  0.39511494  0.76317418  0.90868248  1
  Nb  Nb0  1  0.01478958  0.28658799  0.33670566  1
  Nb  Nb1  1  0.98521042  0.28658799  0.83670566  1
  Nb  Nb2  1  0.01478958  0.71341201  0.16329434  1
  Nb  Nb3  1  0.98521042  0.71341201  0.66329434  1
  O  O0  1  0.10225022  0.50000000  0.75000000  1
  O  O1  1  0.89774978  0.50000000  0.25000000  1
  F  F0  1  0.70595438  0.85021087  0.18008445  1
  F  F1  1  0.68190485  0.58239462  0.63241571  1
  F  F2  1  0.16242193  0.79821510  0.27356094  1
  F  F3  1  0.83379633  0.07486123  0.91776802  1
  F  F4  1  0.31809515  0.41760538  0.36758429  1
  F  F5  1  0.16620367  0.92513877  0.08223198  1
  F  F6  1  0.16242193  0.20178490  0.22643906  1
  F  F7  1  0.29404562  0.85021087  0.68008445  1
  F  F8  1  0.83757807  0.20178490  0.72643906  1
  F  F9  1  0.68190485  0.41760538  0.86758429  1
  F  F10  1  0.16620367  0.07486123  0.41776802  1
  F  F11  1  0.14838873  0.35540008  0.94993722  1
  F  F12  1  0.29404562  0.14978913  0.81991555  1
  F  F13  1  0.85161127  0.64459992  0.05006278  1
  F  F14  1  0.83757807  0.79821510  0.77356094  1
  F  F15  1  0.70595438  0.14978913  0.31991555  1
  F  F16  1  0.83379633  0.92513877  0.58223198  1
  F  F17  1  0.85161127  0.35540008  0.44993722  1
  F  F18  1  0.31809515  0.58239462  0.13241571  1
  F  F19  1  0.14838873  0.64459992  0.55006278  1
loop_
_geom_bond_atom_site_label_1
_geom_bond_atom_site_label_2
_geom_bond_distance
_geom_bond_site_symmetry_2
Cs0 F8 2.966179 1_555
Cs0 F7 3.004452 1_545
Cs0 F1 3.124823 1_555
Cs0 F17 3.126840 1_555
Cs0 F10 3.140248 1_555
Cs0 F12 3.220906 1_555
Cs0 F4 3.241280 1_555
Cs0 F19 3.275323 1_555
Cs0 F16 3.279988 1_545
Cs0 F8 3.449126 1_455
Cs0 F17 3.481338 1_455
Cs0 O0 3.560939 1_555
Cs1 F6 2.966179 1_555
Cs1 F0 3.004452 1_545
Cs1 F18 3.124823 1_555
Cs1 F11 3.126840 1_554
Cs1 F3 3.140248 1_554
Cs1 F15 3.220906 1_555
Cs1 F9 3.241280 1_554
Cs1 F13 3.275323 1_555
Cs1 F5 3.279988 1_545
Cs1 F6 3.449126 1_655
Cs1 F11 3.481338 1_654
Cs1 O1 3.560939 1_555
Cs2 F2 2.966179 1_555
Cs2 F15 3.004452 1_565
Cs2 F4 3.124823 1_555
Cs2 F19 3.126840 1_555
Cs2 F16 3.140248 1_555
Cs2 F0 3.220906 1_555
Cs2 F1 3.241280 1_555
Cs2 F17 3.275323 1_555
Cs2 F10 3.279988 1_565
Cs2 F2 3.449126 1_655
Cs2 F19 3.481338 1_655
Cs2 O1 3.560939 1_555
Cs3 F14 2.966179 1_555
Cs3 F12 3.004452 1_565
Cs3 F9 3.124823 1_555
Cs3 F13 3.126840 1_556
Cs3 F5 3.140248 1_556
Cs3 F7 3.220906 1_555
Cs3 F18 3.241280 1_556
Cs3 F11 3.275323 1_555
Cs3 F3 3.279988 1_565
Cs3 F14 3.449126 1_455
Cs3 F13 3.481338 1_456
Cs3 O0 3.560939 1_555
Nb0 O1 1.940852 1_455
Nb1 O0 1.940852 1_655
Nb2 O1 1.940852 1_455
Nb3 O0 1.940852 1_655
F0 Nb2 1.938324 1_655
F1 Nb3 1.942725 1_555
F2 Nb2 1.932990 1_555
F3 Nb1 1.958195 1_555
F4 Nb0 1.942725 1_555
F5 Nb2 1.958195 1_555
F6 Nb0 1.932990 1_555
F7 Nb3 1.938324 1_455
F8 Nb1 1.932990 1_555
F9 Nb1 1.942725 1_555
F10 Nb0 1.958195 1_555
F11 Nb1 1.950614 1_455
F12 Nb1 1.938324 1_455
F13 Nb2 1.950614 1_655
F14 Nb3 1.932990 1_555
F15 Nb0 1.938324 1_655
F16 Nb3 1.958195 1_555
F17 Nb0 1.950614 1_655
F18 Nb2 1.942725 1_555
F19 Nb3 1.950614 1_455
