# generated using pymatgen
data_KBaCrN3
_symmetry_space_group_name_H-M   'P 1'
_cell_length_a   6.53062513
_cell_length_b   6.53062449
_cell_length_c   12.87344800
_cell_angle_alpha   90.00000000
_cell_angle_beta   90.00000000
_cell_angle_gamma   127.59704943
_symmetry_Int_Tables_number   1
_chemical_formula_structural   KBaCrN3
_chemical_formula_sum   'K4 Ba4 Cr4 N12'
_cell_volume   435.01632233
_cell_formula_units_Z   4
loop_
 _symmetry_equiv_pos_site_id
 _symmetry_equiv_pos_as_xyz
  1  'x, y, z'
loop_
 _atom_site_type_symbol
 _atom_site_label
 _atom_site_symmetry_multiplicity
 _atom_site_fract_x
 _atom_site_fract_y
 _atom_site_fract_z
 _atom_site_occupancy
  K  K0  1  0.54985150  0.45014850  0.64411668  1
  K  K1  1  0.45014850  0.54985150  0.35588332  1
  K  K2  1  0.95014850  0.04985150  0.14411668  1
  K  K3  1  0.04985150  0.95014850  0.85588332  1
  Ba  Ba0  1  0.85499863  0.14500137  0.58352138  1
  Ba  Ba1  1  0.14500137  0.85499863  0.41647862  1
  Ba  Ba2  1  0.64500137  0.35499863  0.08352138  1
  Ba  Ba3  1  0.35499863  0.64500137  0.91647862  1
  Cr  Cr0  1  0.72817039  0.27182961  0.82953738  1
  Cr  Cr1  1  0.27182961  0.72817039  0.17046262  1
  Cr  Cr2  1  0.77182961  0.22817039  0.32953738  1
  Cr  Cr3  1  0.22817039  0.77182961  0.67046262  1
  N  N0  1  0.81409817  0.18590183  0.93418642  1
  N  N1  1  0.18590183  0.81409817  0.06581358  1
  N  N2  1  0.68590183  0.31409817  0.43418642  1
  N  N3  1  0.31409817  0.68590183  0.56581358  1
  N  N4  1  0.59156926  0.40843074  0.86825457  1
  N  N5  1  0.40843074  0.59156926  0.13174543  1
  N  N6  1  0.90843074  0.09156926  0.36825457  1
  N  N7  1  0.09156926  0.90843074  0.63174543  1
  N  N8  1  0.50978971  0.99021029  0.75000000  1
  N  N9  1  0.99021029  0.50978971  0.25000000  1
  N  N10  1  0.49021029  0.00978971  0.25000000  1
  N  N11  1  0.00978971  0.49021029  0.75000000  1
loop_
_geom_bond_atom_site_label_1
_geom_bond_atom_site_label_2
_geom_bond_distance
_geom_bond_site_symmetry_2
K0 N4 2.926553 1_555
K0 N7 2.928946 1_545
K0 N7 2.928946 1_655
K0 N3 2.940981 1_555
K0 N2 3.137794 1_555
K0 N8 3.160643 1_545
K0 N11 3.160643 1_655
K1 N5 2.926553 1_555
K1 N6 2.928946 1_565
K1 N6 2.928946 1_455
K1 N2 2.940981 1_555
K1 N3 3.137794 1_555
K1 N10 3.160643 1_565
K1 N9 3.160643 1_455
K2 N6 2.926553 1_555
K2 N5 2.928946 1_655
K2 N5 2.928946 1_545
K2 N1 2.940981 1_645
K2 N0 3.137794 1_554
K2 N9 3.160643 1_555
K2 N10 3.160643 1_555
K3 N7 2.926553 1_555
K3 N4 2.928946 1_455
K3 N4 2.928946 1_565
K3 N0 2.940981 1_465
K3 N1 3.137794 1_556
K3 N11 3.160643 1_555
K3 N8 3.160643 1_555
Ba0 N2 2.760954 1_555
Ba0 N11 2.813651 1_655
Ba0 N8 2.813652 1_545
Ba0 N7 2.841068 1_645
Ba0 N6 2.841090 1_555
Ba0 N3 2.931903 1_655
Ba0 N3 2.931903 1_545
Ba1 N3 2.760954 1_555
Ba1 N9 2.813651 1_455
Ba1 N10 2.813652 1_565
Ba1 N6 2.841068 1_465
Ba1 N7 2.841090 1_555
Ba1 N2 2.931903 1_455
Ba1 N2 2.931903 1_565
Ba2 N0 2.760954 1_554
Ba2 N10 2.813651 1_555
Ba2 N9 2.813652 1_555
Ba2 N5 2.841068 1_555
Ba2 N4 2.841090 1_554
Ba2 N1 2.931903 1_545
Ba2 N1 2.931903 1_655
Ba3 N1 2.760954 1_556
Ba3 N8 2.813651 1_555
Ba3 N11 2.813652 1_555
Ba3 N4 2.841068 1_555
Ba3 N5 2.841090 1_556
Ba3 N0 2.931903 1_565
Ba3 N0 2.931903 1_455
Cr0 N4 1.676649 1_555
Cr0 N0 1.681959 1_555
Cr0 N8 1.806739 1_545
Cr0 N11 1.806739 1_655
Cr1 N5 1.676649 1_555
Cr1 N1 1.681959 1_555
Cr1 N10 1.806739 1_565
Cr1 N9 1.806739 1_455
Cr2 N6 1.676649 1_555
Cr2 N2 1.681959 1_555
Cr2 N9 1.806739 1_555
Cr2 N10 1.806739 1_555
Cr3 N7 1.676649 1_555
Cr3 N3 1.681959 1_555
Cr3 N11 1.806739 1_555
Cr3 N8 1.806739 1_555
