# generated using pymatgen
data_Ca7ScCr2N9
_symmetry_space_group_name_H-M   'P 1'
_cell_length_a   9.99755838
_cell_length_b   6.10128774
_cell_length_c   9.08339723
_cell_angle_alpha   88.16615194
_cell_angle_beta   90.00000000
_cell_angle_gamma   90.00000000
_symmetry_Int_Tables_number   1
_chemical_formula_structural   Ca7ScCr2N9
_chemical_formula_sum   'Ca14 Sc2 Cr4 N18'
_cell_volume   553.78510798
_cell_formula_units_Z   2
loop_
 _symmetry_equiv_pos_site_id
 _symmetry_equiv_pos_as_xyz
  1  'x, y, z'
loop_
 _atom_site_type_symbol
 _atom_site_label
 _atom_site_symmetry_multiplicity
 _atom_site_fract_x
 _atom_site_fract_y
 _atom_site_fract_z
 _atom_site_occupancy
  Ca  Ca0  1  0.93131726  0.43102038  0.17591080  1
  Ca  Ca1  1  0.08156313  0.24214884  0.49911379  1
  Ca  Ca2  1  0.25000000  0.08449074  0.79367188  1
  Ca  Ca3  1  0.43131726  0.56897962  0.82408920  1
  Ca  Ca4  1  0.58156313  0.75785116  0.50088621  1
  Ca  Ca5  1  0.57776311  0.06125341  0.82292277  1
  Ca  Ca6  1  0.92223689  0.06125341  0.82292277  1
  Ca  Ca7  1  0.42223689  0.93874659  0.17707723  1
  Ca  Ca8  1  0.41843687  0.24214884  0.49911379  1
  Ca  Ca9  1  0.07776311  0.93874659  0.17707723  1
  Ca  Ca10  1  0.91843687  0.75785116  0.50088621  1
  Ca  Ca11  1  0.06868274  0.56897962  0.82408920  1
  Ca  Ca12  1  0.75000000  0.91550926  0.20632812  1
  Ca  Ca13  1  0.56868274  0.43102038  0.17591080  1
  Sc  Sc0  1  0.75000000  0.27471193  0.44160570  1
  Sc  Sc1  1  0.25000000  0.72528807  0.55839430  1
  Cr  Cr0  1  0.25000000  0.32369613  0.06458640  1
  Cr  Cr1  1  0.75000000  0.46339271  0.72716231  1
  Cr  Cr2  1  0.75000000  0.67630387  0.93541360  1
  Cr  Cr3  1  0.25000000  0.53660729  0.27283769  1
  N  N0  1  0.39695256  0.23298560  0.98596790  1
  N  N1  1  0.25000000  0.23067883  0.26195538  1
  N  N2  1  0.91409614  0.10636773  0.33595713  1
  N  N3  1  0.60826111  0.37654841  0.64133572  1
  N  N4  1  0.75000000  0.56944571  0.33187397  1
  N  N5  1  0.25000000  0.62918069  0.07531370  1
  N  N6  1  0.89173889  0.37654841  0.64133572  1
  N  N7  1  0.39173889  0.62345159  0.35866428  1
  N  N8  1  0.75000000  0.37081931  0.92468630  1
  N  N9  1  0.08590386  0.89363227  0.66404287  1
  N  N10  1  0.75000000  0.76932117  0.73804462  1
  N  N11  1  0.10826111  0.62345159  0.35866428  1
  N  N12  1  0.60304744  0.76701440  0.01403210  1
  N  N13  1  0.25000000  0.43055429  0.66812603  1
  N  N14  1  0.41409614  0.89363227  0.66404287  1
  N  N15  1  0.58590386  0.10636773  0.33595713  1
  N  N16  1  0.10304744  0.23298560  0.98596790  1
  N  N17  1  0.89695256  0.76701440  0.01403210  1
loop_
_geom_bond_atom_site_label_1
_geom_bond_atom_site_label_2
_geom_bond_distance
_geom_bond_site_symmetry_2
Ca0 N2 2.425353 1_555
Ca0 N4 2.466341 1_555
Ca0 N17 2.507927 1_555
Ca0 N11 2.718135 1_655
Ca0 N16 2.741855 1_654
Ca0 N8 2.946514 1_554
Ca1 N2 2.400920 1_455
Ca1 N6 2.451669 1_455
Ca1 N9 2.562016 1_545
Ca1 N13 2.574277 1_555
Ca1 N11 2.630810 1_555
Ca1 N1 2.736942 1_555
Ca2 N14 2.349820 1_545
Ca2 N9 2.349820 1_545
Ca2 N13 2.367386 1_555
Ca2 N0 2.476198 1_555
Ca2 N16 2.476198 1_555
Ca3 N14 2.425353 1_555
Ca3 N13 2.466341 1_555
Ca3 N0 2.507927 1_555
Ca3 N3 2.718135 1_555
Ca3 N12 2.741855 1_556
Ca3 N5 2.946514 1_556
Ca4 N14 2.400920 1_555
Ca4 N7 2.451669 1_555
Ca4 N15 2.562016 1_565
Ca4 N4 2.574277 1_555
Ca4 N3 2.630810 1_555
Ca4 N10 2.736942 1_555
Ca5 N14 2.429096 1_545
Ca5 N12 2.469968 1_546
Ca5 N3 2.512198 1_555
Ca5 N0 2.580348 1_555
Ca5 N10 2.611503 1_545
Ca5 N8 2.738369 1_555
Ca6 N9 2.429096 1_645
Ca6 N17 2.469968 1_546
Ca6 N6 2.512198 1_555
Ca6 N16 2.580348 1_655
Ca6 N10 2.611503 1_545
Ca6 N8 2.738369 1_555
Ca7 N15 2.429096 1_565
Ca7 N0 2.469968 1_564
Ca7 N7 2.512198 1_555
Ca7 N12 2.580348 1_555
Ca7 N1 2.611503 1_565
Ca7 N5 2.738369 1_555
Ca8 N15 2.400920 1_555
Ca8 N3 2.451669 1_555
Ca8 N14 2.562016 1_545
Ca8 N13 2.574277 1_555
Ca8 N7 2.630810 1_555
Ca8 N1 2.736942 1_555
Ca9 N2 2.429096 1_465
Ca9 N16 2.469968 1_564
Ca9 N11 2.512198 1_555
Ca9 N17 2.580348 1_455
Ca9 N1 2.611503 1_565
Ca9 N5 2.738369 1_555
Ca10 N9 2.400920 1_655
Ca10 N11 2.451669 1_655
Ca10 N2 2.562016 1_565
Ca10 N4 2.574277 1_555
Ca10 N6 2.630810 1_555
Ca10 N10 2.736942 1_555
Ca11 N9 2.425353 1_555
Ca11 N13 2.466341 1_555
Ca11 N16 2.507927 1_555
Ca11 N6 2.718135 1_455
Ca11 N17 2.741855 1_456
Ca11 N5 2.946514 1_556
Ca12 N2 2.349820 1_565
Ca12 N15 2.349820 1_565
Ca12 N4 2.367386 1_555
Ca12 N17 2.476198 1_555
Ca12 N12 2.476198 1_555
Ca13 N15 2.425353 1_555
Ca13 N4 2.466341 1_555
Ca13 N12 2.507927 1_555
Ca13 N7 2.718135 1_555
Ca13 N0 2.741855 1_554
Ca13 N8 2.946514 1_554
Cr0 N0 1.732058 1_554
Cr0 N16 1.732058 1_554
Cr0 N1 1.863070 1_555
Cr0 N5 1.869506 1_555
Cr1 N6 1.709671 1_555
Cr1 N3 1.709671 1_555
Cr1 N8 1.863672 1_555
Cr1 N10 1.872329 1_555
Cr2 N17 1.732058 1_556
Cr2 N12 1.732058 1_556
Cr2 N10 1.863070 1_555
Cr2 N8 1.869506 1_555
Cr3 N7 1.709671 1_555
Cr3 N11 1.709671 1_555
Cr3 N5 1.863672 1_555
Cr3 N1 1.872329 1_555
N2 Sc0 2.174952 1_555
N3 Sc0 2.399507 1_555
N4 Sc0 2.027928 1_555
N6 Sc0 2.399507 1_555
N7 Sc1 2.399507 1_555
N9 Sc1 2.174952 1_555
N11 Sc1 2.399507 1_555
N13 Sc1 2.027928 1_555
N14 Sc1 2.174952 1_555
N15 Sc0 2.174952 1_555
