# generated using pymatgen
data_Cs2PdSe8
_symmetry_space_group_name_H-M   'P 1'
_cell_length_a   12.61615336
_cell_length_b   12.61609890
_cell_length_c   12.61600210
_cell_angle_alpha   105.79734105
_cell_angle_beta   105.79876075
_cell_angle_gamma   117.09796486
_symmetry_Int_Tables_number   1
_chemical_formula_structural   Cs2PdSe8
_chemical_formula_sum   'Cs8 Pd4 Se32'
_cell_volume   1524.98697950
_cell_formula_units_Z   4
loop_
 _symmetry_equiv_pos_site_id
 _symmetry_equiv_pos_as_xyz
  1  'x, y, z'
loop_
 _atom_site_type_symbol
 _atom_site_label
 _atom_site_symmetry_multiplicity
 _atom_site_fract_x
 _atom_site_fract_y
 _atom_site_fract_z
 _atom_site_occupancy
  Cs  Cs0  1  0.61564249  0.88435024  0.49999728  1
  Cs  Cs1  1  0.13435797  0.13435369  0.76870936  1
  Cs  Cs2  1  0.36564542  0.36564364  0.23128578  1
  Cs  Cs3  1  0.38435687  0.11564039  0.49999700  1
  Cs  Cs4  1  0.86564190  0.63435525  -0.00000295  1
  Cs  Cs5  1  0.88436352  0.38435725  0.26871455  1
  Cs  Cs6  1  0.11564070  0.61563638  0.73128229  1
  Cs  Cs7  1  0.63435710  0.86564221  -0.00000295  1
  Pd  Pd0  1  0.75002405  0.25002269  0.50004407  1
  Pd  Pd1  1  0.49998096  0.49997528  -0.00000504  1
  Pd  Pd2  1  0.24998260  0.74997400  0.49995759  1
  Pd  Pd3  1  0.00000097  0.00002237  -0.00002395  1
  Se  Se0  1  0.78926721  0.12733349  0.84747097  1
  Se  Se1  1  0.19180564  0.53927336  0.16190830  1
  Se  Se2  1  0.37736163  0.02986161  0.83808330  1
  Se  Se3  1  0.27985898  0.94181763  0.15252458  1
  Se  Se4  1  0.37267462  0.71076169  0.15253810  1
  Se  Se5  1  0.96073508  0.30821858  0.83809363  1
  Se  Se6  1  0.47014257  0.12267585  0.16194370  1
  Se  Se7  1  0.55819589  0.22012692  0.84746916  1
  Se  Se8  1  0.46074830  0.62265196  0.65249441  1
  Se  Se9  1  0.05816588  0.21070411  0.33807079  1
  Se  Se10  1  0.87265105  0.72014847  0.66192973  1
  Se  Se11  1  0.97010917  0.80820218  0.34744930  1
  Se  Se12  1  0.76986961  0.39919140  0.68717791  1
  Se  Se13  1  0.64921650  0.46200325  0.12934847  1
  Se  Se14  1  0.33268495  0.51990277  0.87067551  1
  Se  Se15  1  0.71196937  0.08262978  0.31276154  1
  Se  Se16  1  0.10080702  0.73013050  0.31281774  1
  Se  Se17  1  0.03800844  0.85079006  0.87065700  1
  Se  Se18  1  0.98011750  0.16732215  0.12933684  1
  Se  Se19  1  0.41734979  0.78800882  0.68722138  1
  Se  Se20  1  0.48011943  0.35078139  0.81279630  1
  Se  Se21  1  0.60078087  0.28800654  0.37064362  1
  Se  Se22  1  0.91732230  0.23012391  0.62931459  1
  Se  Se23  1  0.53801649  0.66736410  0.18721077  1
  Se  Se24  1  0.14922491  0.01987456  0.18724279  1
  Se  Se25  1  0.21200685  0.89921182  0.62937207  1
  Se  Se26  1  0.26985290  0.58266819  0.37068609  1
  Se  Se27  1  0.83268341  0.96200581  0.81281332  1
  Se  Se28  1  0.69179856  0.52987624  0.65253339  1
  Se  Se29  1  0.77986211  0.62732942  0.33807328  1
  Se  Se30  1  0.28927314  0.44178641  0.66190522  1
  Se  Se31  1  0.87732428  0.03924463  0.34747916  1
loop_
_geom_bond_atom_site_label_1
_geom_bond_atom_site_label_2
_geom_bond_distance
_geom_bond_site_symmetry_2
Cs0 Se23 3.687341 1_555
Cs0 Se27 3.687690 1_555
Cs0 Se22 3.714212 1_565
Cs0 Se26 3.714352 1_555
Cs0 Se4 3.840364 1_555
Cs0 Se0 3.840521 1_565
Cs0 Se15 3.914737 1_565
Cs0 Se19 3.914779 1_555
Cs0 Se8 4.248367 1_555
Cs0 Se31 4.248456 1_565
Cs1 Se25 3.687316 1_545
Cs1 Se22 3.687672 1_455
Cs1 Se20 3.714076 1_555
Cs1 Se27 3.714225 1_445
Cs1 Se5 3.840788 1_455
Cs1 Se2 3.840825 1_555
Cs1 Se17 3.914707 1_545
Cs1 Se14 3.915079 1_555
Cs1 Se10 4.248558 1_445
Cs1 Se30 4.248816 1_555
Cs2 Se21 3.687186 1_555
Cs2 Se26 3.687854 1_555
Cs2 Se24 3.714337 1_555
Cs2 Se23 3.714502 1_555
Cs2 Se6 3.840444 1_555
Cs2 Se1 3.840577 1_555
Cs2 Se13 3.914732 1_555
Cs2 Se18 3.914890 1_455
Cs2 Se29 4.248616 1_555
Cs2 Se9 4.249183 1_555
Cs3 Se24 3.687004 1_555
Cs3 Se20 3.687531 1_555
Cs3 Se21 3.714365 1_555
Cs3 Se25 3.714533 1_545
Cs3 Se3 3.840455 1_545
Cs3 Se7 3.840484 1_555
Cs3 Se16 3.914656 1_545
Cs3 Se12 3.914676 1_555
Cs3 Se28 4.248804 1_555
Cs3 Se11 4.248876 1_445
Cs4 Se16 3.687756 1_655
Cs4 Se12 3.687786 1_554
Cs4 Se13 3.714289 1_555
Cs4 Se17 3.714303 1_654
Cs4 Se11 3.840348 1_555
Cs4 Se28 3.840416 1_554
Cs4 Se20 3.914814 1_554
Cs4 Se24 3.914825 1_665
Cs4 Se3 4.248712 1_655
Cs4 Se7 4.248765 1_554
Cs5 Se13 3.687422 1_555
Cs5 Se18 3.687465 1_555
Cs5 Se16 3.714144 1_655
Cs5 Se15 3.714412 1_555
Cs5 Se9 3.840416 1_655
Cs5 Se29 3.840557 1_555
Cs5 Se26 3.914421 1_655
Cs5 Se21 3.914790 1_555
Cs5 Se6 4.248699 1_555
Cs5 Se1 4.248957 1_655
Cs6 Se14 3.687380 1_555
Cs6 Se17 3.687430 1_555
Cs6 Se12 3.714127 1_455
Cs6 Se19 3.714303 1_555
Cs6 Se30 3.840730 1_555
Cs6 Se10 3.840833 1_455
Cs6 Se25 3.914519 1_555
Cs6 Se22 3.914679 1_455
Cs6 Se5 4.248715 1_455
Cs6 Se2 4.248718 1_565
Cs7 Se15 3.687189 1_565
Cs7 Se19 3.687247 1_554
Cs7 Se14 3.713913 1_554
Cs7 Se18 3.714068 1_565
Cs7 Se31 3.840566 1_565
Cs7 Se8 3.840843 1_554
Cs7 Se23 3.914518 1_555
Cs7 Se27 3.914672 1_554
Cs7 Se0 4.248641 1_564
Cs7 Se4 4.248650 1_555
Pd0 Se12 2.451097 1_555
Pd0 Se22 2.451318 1_555
Pd0 Se21 2.452380 1_555
Pd0 Se15 2.452517 1_555
Pd1 Se20 2.451734 1_554
Pd1 Se14 2.451825 1_554
Pd1 Se13 2.451905 1_555
Pd1 Se23 2.452033 1_555
Pd2 Se16 2.451172 1_555
Pd2 Se26 2.451182 1_555
Pd2 Se19 2.452275 1_555
Pd2 Se25 2.452384 1_555
Pd3 Se27 2.451200 1_444
Pd3 Se18 2.451756 1_455
Pd3 Se17 2.452014 1_544
Pd3 Se24 2.452559 1_555
Se0 Se27 2.348705 1_545
Se0 Se5 2.385457 1_555
Se1 Se26 2.349139 1_555
Se1 Se4 2.385420 1_555
Se2 Se25 2.348472 1_545
Se2 Se7 2.385358 1_555
Se3 Se6 2.385430 1_565
Se10 Se17 2.348621 1_655
Se10 Se28 2.385454 1_555
Se11 Se16 2.348937 1_655
Se11 Se29 2.385526 1_555
Se12 Se28 2.348804 1_555
Se13 Se29 2.348505 1_555
Se14 Se30 2.349011 1_555
Se15 Se31 2.348761 1_555
Se18 Se9 2.348659 1_655
Se19 Se8 2.348906 1_555
Se20 Se7 2.348583 1_555
Se21 Se6 2.348304 1_555
Se22 Se5 2.349110 1_555
Se23 Se4 2.348709 1_555
Se24 Se3 2.348337 1_545
Se30 Se8 2.385600 1_555
Se31 Se9 2.385319 1_655
