# generated using pymatgen
data_Zr(TaBr3)6
_symmetry_space_group_name_H-M   'P 1'
_cell_length_a   10.55297979
_cell_length_b   10.55297984
_cell_length_c   10.55297982
_cell_angle_alpha   56.05674827
_cell_angle_beta   56.05674663
_cell_angle_gamma   56.05675035
_symmetry_Int_Tables_number   1
_chemical_formula_structural   Zr(TaBr3)6
_chemical_formula_sum   'Zr1 Ta6 Br18'
_cell_volume   755.12086759
_cell_formula_units_Z   1
loop_
 _symmetry_equiv_pos_site_id
 _symmetry_equiv_pos_as_xyz
  1  'x, y, z'
loop_
 _atom_site_type_symbol
 _atom_site_label
 _atom_site_symmetry_multiplicity
 _atom_site_fract_x
 _atom_site_fract_y
 _atom_site_fract_z
 _atom_site_occupancy
  Zr  Zr0  1  0.00000000  0.00000000  0.00000000  1
  Ta  Ta0  1  0.41125053  0.31510064  0.64105781  1
  Ta  Ta1  1  0.35894219  0.58874947  0.68489936  1
  Ta  Ta2  1  0.68489936  0.35894219  0.58874947  1
  Ta  Ta3  1  0.31510064  0.64105781  0.41125053  1
  Ta  Ta4  1  0.64105781  0.41125053  0.31510064  1
  Ta  Ta5  1  0.58874947  0.68489936  0.35894219  1
  Br  Br0  1  0.56639371  0.15709980  0.44459622  1
  Br  Br1  1  0.21551326  0.37614127  0.91065768  1
  Br  Br2  1  0.91065768  0.21551326  0.37614127  1
  Br  Br3  1  0.37614127  0.91065768  0.21551326  1
  Br  Br4  1  0.78448674  0.62385873  0.08934232  1
  Br  Br5  1  0.08934232  0.78448674  0.62385873  1
  Br  Br6  1  0.71404406  0.96520866  0.15012778  1
  Br  Br7  1  0.96520866  0.15012778  0.71404406  1
  Br  Br8  1  0.15012778  0.71404406  0.96520866  1
  Br  Br9  1  0.28595594  0.03479134  0.84987222  1
  Br  Br10  1  0.03479134  0.84987222  0.28595594  1
  Br  Br11  1  0.84987222  0.28595594  0.03479134  1
  Br  Br12  1  0.55540378  0.43360629  0.84290020  1
  Br  Br13  1  0.15709980  0.44459622  0.56639371  1
  Br  Br14  1  0.44459622  0.56639371  0.15709980  1
  Br  Br15  1  0.43360629  0.84290020  0.55540378  1
  Br  Br16  1  0.84290020  0.55540378  0.43360629  1
  Br  Br17  1  0.62385873  0.08934232  0.78448674  1
loop_
_geom_bond_atom_site_label_1
_geom_bond_atom_site_label_2
_geom_bond_distance
_geom_bond_site_symmetry_2
Br0 Ta4 2.597334 1_555
Br0 Ta0 2.603900 1_555
Br1 Ta0 2.602689 1_555
Br1 Ta1 2.607101 1_555
Br2 Ta4 2.602690 1_555
Br2 Ta2 2.607101 1_555
Br3 Ta3 2.602690 1_555
Br3 Ta5 2.607101 1_555
Br4 Ta5 2.602689 1_555
Br4 Ta4 2.607101 1_555
Br5 Ta1 2.602690 1_555
Br5 Ta3 2.607101 1_555
Br6 Zr0 2.645731 1_665
Br6 Ta5 3.031357 1_555
Br7 Zr0 2.645732 1_656
Br7 Ta2 3.031357 1_555
Br8 Zr0 2.645732 1_566
Br8 Ta1 3.031357 1_555
Br9 Zr0 2.645731 1_556
Br9 Ta0 3.031357 1_555
Br10 Zr0 2.645732 1_565
Br10 Ta3 3.031357 1_555
Br11 Zr0 2.645732 1_655
Br11 Ta4 3.031357 1_555
Br12 Ta2 2.597334 1_555
Br12 Ta1 2.603900 1_555
Br13 Ta0 2.597334 1_555
Br13 Ta3 2.603900 1_555
Br14 Ta3 2.597334 1_555
Br14 Ta4 2.603900 1_555
Br15 Ta1 2.597334 1_555
Br15 Ta5 2.603900 1_555
Br16 Ta5 2.597334 1_555
Br16 Ta2 2.603900 1_555
Br17 Ta2 2.602690 1_555
Br17 Ta0 2.607101 1_555
