# generated using pymatgen
data_Sc12Mn2PtBr16
_symmetry_space_group_name_H-M   'P 1'
_cell_length_a   8.73987801
_cell_length_b   11.08939742
_cell_length_c   11.71534238
_cell_angle_alpha   117.17576845
_cell_angle_beta   101.45066075
_cell_angle_gamma   101.06962997
_symmetry_Int_Tables_number   1
_chemical_formula_structural   Sc12Mn2PtBr16
_chemical_formula_sum   'Sc12 Mn2 Pt1 Br16'
_cell_volume   936.53082986
_cell_formula_units_Z   1
loop_
 _symmetry_equiv_pos_site_id
 _symmetry_equiv_pos_as_xyz
  1  'x, y, z'
loop_
 _atom_site_type_symbol
 _atom_site_label
 _atom_site_symmetry_multiplicity
 _atom_site_fract_x
 _atom_site_fract_y
 _atom_site_fract_z
 _atom_site_occupancy
  Sc  Sc0  1  0.08528474  0.24844756  0.34554060  1
  Sc  Sc1  1  0.91471526  0.75155244  0.65445940  1
  Sc  Sc2  1  0.77028404  0.53888098  0.31388129  1
  Sc  Sc3  1  0.22971596  0.46111902  0.68611871  1
  Sc  Sc4  1  0.29159140  0.75214533  0.65471702  1
  Sc  Sc5  1  0.70840860  0.24785467  0.34528298  1
  Sc  Sc6  1  0.14700143  0.53875361  0.31466448  1
  Sc  Sc7  1  0.85299857  0.46124639  0.68533552  1
  Sc  Sc8  1  0.40339481  0.35522296  0.26860090  1
  Sc  Sc9  1  0.59660519  0.64477704  0.73139910  1
  Sc  Sc10  1  0.45736843  0.30311573  0.52106964  1
  Sc  Sc11  1  0.54263157  0.69688427  0.47893036  1
  Mn  Mn0  1  0.32353949  0.50014087  0.49964185  1
  Mn  Mn1  1  0.67646151  0.49985913  0.50035815  1
  Pt  Pt0  1  0.00000000  0.50000000  0.50000000  1
  Br  Br0  1  0.39552645  0.74357764  0.88829643  1
  Br  Br1  1  0.60447355  0.25642236  0.11170357  1
  Br  Br2  1  0.19339307  0.97625969  0.79019697  1
  Br  Br3  1  0.80660693  0.02374031  0.20980303  1
  Br  Br4  1  0.33524864  0.08910043  0.24738956  1
  Br  Br5  1  0.66475136  0.91089957  0.75261044  1
  Br  Br6  1  0.55752622  0.43656142  0.80317597  1
  Br  Br7  1  0.44247378  0.56343858  0.19682403  1
  Br  Br8  1  0.30752710  0.83104688  0.46279024  1
  Br  Br9  1  0.69247290  0.16895312  0.53720976  1
  Br  Br10  1  0.16369648  0.16805810  0.53401483  1
  Br  Br11  1  0.83630352  0.83194190  0.46598517  1
  Br  Br12  1  0.92518530  0.57851400  0.15331267  1
  Br  Br13  1  0.07481470  0.42148600  0.84668733  1
  Br  Br14  1  0.92766619  0.74238570  0.88827965  1
  Br  Br15  1  0.07233381  0.25761430  0.11172035  1
loop_
_geom_bond_atom_site_label_1
_geom_bond_atom_site_label_2
_geom_bond_distance
_geom_bond_site_symmetry_2
Mn0 Sc6 2.652147 1_555
Mn0 Sc4 2.655500 1_555
Mn0 Sc0 2.656776 1_555
Mn0 Sc3 2.659110 1_555
Mn0 Sc11 2.747610 1_555
Mn0 Sc10 2.751474 1_555
Mn0 Sc8 2.757443 1_555
Mn0 Sc9 2.760344 1_555
Mn0 Pt0 2.828233 1_555
Mn1 Sc7 2.652143 1_555
Mn1 Sc5 2.655496 1_555
Mn1 Sc1 2.656772 1_555
Mn1 Sc2 2.659106 1_555
Mn1 Sc10 2.747615 1_555
Mn1 Sc11 2.751478 1_555
Mn1 Sc9 2.757448 1_555
Mn1 Sc8 2.760349 1_555
Mn1 Pt0 2.828224 1_655
Pt0 Sc6 2.880567 1_555
Pt0 Sc7 2.880567 1_455
Pt0 Sc1 2.887002 1_455
Pt0 Sc0 2.887002 1_555
Pt0 Sc4 2.898028 1_555
Pt0 Sc5 2.898028 1_455
Pt0 Sc3 2.902429 1_555
Pt0 Sc2 2.902429 1_455
Br0 Sc4 2.757912 1_555
Br0 Sc3 2.763816 1_555
Br0 Sc9 2.801770 1_555
Br1 Sc5 2.757912 1_555
Br1 Sc2 2.763816 1_555
Br1 Sc8 2.801770 1_555
Br2 Sc1 2.679990 1_455
Br2 Sc4 2.681262 1_555
Br3 Sc0 2.679990 1_655
Br3 Sc5 2.681262 1_555
Br4 Sc8 2.778868 1_555
Br4 Sc10 2.787399 1_555
Br4 Sc5 3.084963 1_555
Br4 Sc0 3.137075 1_555
Br5 Sc9 2.778868 1_555
Br5 Sc11 2.787399 1_555
Br5 Sc4 3.084963 1_555
Br5 Sc1 3.137075 1_555
Br6 Sc9 2.782069 1_555
Br6 Sc10 2.786650 1_555
Br6 Sc3 3.040379 1_555
Br6 Sc7 3.184154 1_555
Br7 Sc8 2.782069 1_555
Br7 Sc11 2.786650 1_555
Br7 Sc2 3.040379 1_555
Br7 Sc6 3.184154 1_555
Br8 Sc6 2.763188 1_555
Br8 Sc4 2.777640 1_555
Br8 Sc11 2.783527 1_555
Br9 Sc7 2.763188 1_555
Br9 Sc5 2.777640 1_555
Br9 Sc10 2.783527 1_555
Br10 Sc0 2.751659 1_555
Br10 Sc3 2.766182 1_555
Br10 Sc10 2.782038 1_555
Br11 Sc1 2.751659 1_555
Br11 Sc2 2.766182 1_555
Br11 Sc11 2.782038 1_555
Br12 Sc2 2.665044 1_555
Br12 Sc6 2.675911 1_655
Br13 Sc3 2.665044 1_555
Br13 Sc7 2.675911 1_455
Br14 Sc7 2.762307 1_555
Br14 Sc1 2.768120 1_555
Br14 Sc9 2.791091 1_555
Br15 Sc6 2.762307 1_555
Br15 Sc0 2.768120 1_555
Br15 Sc8 2.791091 1_555
