# generated using pymatgen
data_Cs6TiMoS8
_symmetry_space_group_name_H-M   'P 1'
_cell_length_a   10.10238645
_cell_length_b   9.98779829
_cell_length_c   11.41523872
_cell_angle_alpha   90.00000000
_cell_angle_beta   90.00000000
_cell_angle_gamma   90.00000000
_symmetry_Int_Tables_number   1
_chemical_formula_structural   Cs6TiMoS8
_chemical_formula_sum   'Cs12 Ti2 Mo2 S16'
_cell_volume   1151.80441544
_cell_formula_units_Z   2
loop_
 _symmetry_equiv_pos_site_id
 _symmetry_equiv_pos_as_xyz
  1  'x, y, z'
loop_
 _atom_site_type_symbol
 _atom_site_label
 _atom_site_symmetry_multiplicity
 _atom_site_fract_x
 _atom_site_fract_y
 _atom_site_fract_z
 _atom_site_occupancy
  Cs  Cs0  1  0.42000107  0.85290899  0.75000000  1
  Cs  Cs1  1  0.57443602  0.15236157  0.25000000  1
  Cs  Cs2  1  0.07999893  0.35290899  0.75000000  1
  Cs  Cs3  1  0.70824377  0.54547387  0.94730340  1
  Cs  Cs4  1  0.29340762  0.45354160  0.02463931  1
  Cs  Cs5  1  0.92556398  0.65236157  0.25000000  1
  Cs  Cs6  1  0.20659238  0.95354160  0.02463931  1
  Cs  Cs7  1  0.29340762  0.45354160  0.47536069  1
  Cs  Cs8  1  0.20659238  0.95354160  0.47536069  1
  Cs  Cs9  1  0.70824377  0.54547387  0.55269660  1
  Cs  Cs10  1  0.79175623  0.04547387  0.55269660  1
  Cs  Cs11  1  0.79175623  0.04547387  0.94730340  1
  Ti  Ti0  1  0.98108719  0.77329240  0.75000000  1
  Ti  Ti1  1  0.51891281  0.27329240  0.75000000  1
  Mo  Mo0  1  0.01377879  0.22300709  0.25000000  1
  Mo  Mo1  1  0.48622121  0.72300709  0.25000000  1
  S  S0  1  0.57234569  0.52036144  0.25000000  1
  S  S1  1  0.06725464  0.98351446  0.75000000  1
  S  S2  1  0.45904896  0.16658924  0.91913645  1
  S  S3  1  0.04095104  0.66658924  0.58086355  1
  S  S4  1  0.43274536  0.48351446  0.75000000  1
  S  S5  1  0.95080236  0.33068427  0.09350711  1
  S  S6  1  0.54919764  0.83068427  0.40649289  1
  S  S7  1  0.75718042  0.79259753  0.75000000  1
  S  S8  1  0.04095104  0.66658924  0.91913645  1
  S  S9  1  0.26993668  0.70937556  0.25000000  1
  S  S10  1  0.54919764  0.83068427  0.09350711  1
  S  S11  1  0.23006332  0.20937556  0.25000000  1
  S  S12  1  0.74281958  0.29259753  0.75000000  1
  S  S13  1  0.45904896  0.16658924  0.58086355  1
  S  S14  1  0.92765431  0.02036144  0.25000000  1
  S  S15  1  0.95080236  0.33068427  0.40649289  1
loop_
_geom_bond_atom_site_label_1
_geom_bond_atom_site_label_2
_geom_bond_distance
_geom_bond_site_symmetry_2
Cs0 S7 3.459169 1_555
Cs0 S4 3.691684 1_555
Cs0 S2 3.701199 1_565
Cs0 S13 3.701199 1_565
Cs0 S1 3.794829 1_555
Cs1 S11 3.525282 1_555
Cs1 S0 3.675569 1_555
Cs1 S6 3.684921 1_545
Cs1 S10 3.684921 1_545
Cs1 S14 3.804111 1_555
Cs1 S13 3.955235 1_555
Cs1 S2 3.955235 1_554
Cs2 S12 3.459169 1_455
Cs2 S1 3.691684 1_545
Cs2 S8 3.701199 1_555
Cs2 S3 3.701199 1_555
Cs2 S4 3.794829 1_555
Cs3 S7 3.377754 1_555
Cs3 S12 3.402023 1_555
Cs3 S8 3.586634 1_655
Cs3 S4 3.633430 1_555
Cs3 S5 3.659530 1_556
Cs3 S10 3.671741 1_556
Cs3 S0 3.726556 1_556
Cs4 S4 3.449603 1_554
Cs4 S2 3.530538 1_554
Cs4 S8 3.533116 1_554
Cs4 S11 3.602037 1_555
Cs4 S9 3.633642 1_555
Cs4 S5 3.755417 1_455
Cs4 S0 3.873523 1_555
Cs5 S9 3.525282 1_655
Cs5 S14 3.675569 1_565
Cs5 S15 3.684921 1_555
Cs5 S5 3.684921 1_555
Cs5 S0 3.804111 1_555
Cs5 S3 3.955235 1_655
Cs5 S8 3.955235 1_654
Cs6 S1 3.449603 1_554
Cs6 S8 3.530538 1_554
Cs6 S2 3.533116 1_564
Cs6 S9 3.602037 1_555
Cs6 S11 3.633642 1_565
Cs6 S10 3.755417 1_555
Cs6 S14 3.873523 1_465
Cs7 S4 3.449603 1_555
Cs7 S13 3.530538 1_555
Cs7 S3 3.533116 1_555
Cs7 S11 3.602037 1_555
Cs7 S9 3.633642 1_555
Cs7 S15 3.755417 1_455
Cs7 S0 3.873523 1_555
Cs8 S1 3.449603 1_555
Cs8 S3 3.530538 1_555
Cs8 S13 3.533116 1_565
Cs8 S9 3.602037 1_555
Cs8 S11 3.633642 1_565
Cs8 S6 3.755417 1_555
Cs8 S14 3.873523 1_465
Cs9 S7 3.377754 1_555
Cs9 S12 3.402023 1_555
Cs9 S3 3.586634 1_655
Cs9 S4 3.633430 1_555
Cs9 S15 3.659530 1_555
Cs9 S6 3.671741 1_555
Cs9 S0 3.726556 1_555
Cs10 S12 3.377754 1_555
Cs10 S7 3.402023 1_545
Cs10 S13 3.586634 1_555
Cs10 S1 3.633430 1_645
Cs10 S6 3.659530 1_545
Cs10 S15 3.671741 1_555
Cs10 S14 3.726556 1_555
Cs11 S12 3.377754 1_555
Cs11 S7 3.402023 1_545
Cs11 S2 3.586634 1_555
Cs11 S1 3.633430 1_645
Cs11 S10 3.659530 1_546
Cs11 S5 3.671741 1_556
Cs11 S14 3.726556 1_556
Mo0 S15 2.180049 1_455
Mo0 S5 2.180049 1_455
Mo0 S11 2.189228 1_555
Mo0 S14 2.203071 1_455
Mo1 S6 2.180049 1_555
Mo1 S10 2.180049 1_555
Mo1 S9 2.189228 1_555
Mo1 S0 2.203071 1_555
S1 Ti0 2.272954 1_455
S2 Ti1 2.286756 1_555
S3 Ti0 2.286756 1_455
S4 Ti1 2.272954 1_555
S7 Ti0 2.270196 1_555
S8 Ti0 2.286756 1_455
S12 Ti1 2.270196 1_555
S13 Ti1 2.286756 1_555
