# generated using pymatgen
data_Ba4MnCr3N8
_symmetry_space_group_name_H-M   'P 1'
_cell_length_a   6.44454680
_cell_length_b   6.44454724
_cell_length_c   7.83796363
_cell_angle_alpha   89.63522235
_cell_angle_beta   90.36478147
_cell_angle_gamma   126.07922331
_symmetry_Int_Tables_number   1
_chemical_formula_structural   Ba4MnCr3N8
_chemical_formula_sum   'Ba4 Mn1 Cr3 N8'
_cell_volume   263.08596352
_cell_formula_units_Z   1
loop_
 _symmetry_equiv_pos_site_id
 _symmetry_equiv_pos_as_xyz
  1  'x, y, z'
loop_
 _atom_site_type_symbol
 _atom_site_label
 _atom_site_symmetry_multiplicity
 _atom_site_fract_x
 _atom_site_fract_y
 _atom_site_fract_z
 _atom_site_occupancy
  Ba  Ba0  1  0.84116517  0.15883483  0.56867548  1
  Ba  Ba1  1  0.16156635  0.83843365  0.43698095  1
  Ba  Ba2  1  0.65887905  0.34112095  0.06407384  1
  Ba  Ba3  1  0.33615644  0.66384356  0.93308737  1
  Mn  Mn0  1  0.05129808  0.94870192  0.86373691  1
  Cr  Cr0  1  0.55472286  0.44527714  0.63688818  1
  Cr  Cr1  1  0.44800491  0.55199509  0.36347640  1
  Cr  Cr2  1  0.94771172  0.05228828  0.13668346  1
  N  N0  1  0.88867554  0.11132446  0.91760715  1
  N  N1  1  0.10593901  0.89406099  0.09049072  1
  N  N2  1  0.60701108  0.39298892  0.41332114  1
  N  N3  1  0.39367392  0.60632608  0.58579647  1
  N  N4  1  0.35325628  0.15386533  0.74394168  1
  N  N5  1  0.15311219  0.34730629  0.25064979  1
  N  N6  1  0.65269371  0.84688781  0.25064979  1
  N  N7  1  0.84613467  0.64674372  0.74394168  1
loop_
_geom_bond_atom_site_label_1
_geom_bond_atom_site_label_2
_geom_bond_distance
_geom_bond_site_symmetry_2
Ba0 N0 2.785021 1_555
Ba0 N2 2.944859 1_555
Ba0 N6 2.979853 1_545
Ba0 N5 2.979853 1_655
Ba0 N3 2.986238 1_655
Ba0 N3 2.986238 1_545
Ba1 N1 2.785509 1_555
Ba1 N3 2.902831 1_555
Ba1 N4 2.917822 1_565
Ba1 N7 2.917822 1_455
Ba1 N2 2.993729 1_455
Ba1 N2 2.993729 1_565
Ba2 N2 2.805648 1_555
Ba2 N0 2.886288 1_554
Ba2 N4 2.967790 1_554
Ba2 N7 2.967790 1_554
Ba2 N1 2.991896 1_545
Ba2 N1 2.991896 1_655
Ba3 N3 2.805690 1_555
Ba3 N1 2.926380 1_556
Ba3 N6 2.981057 1_556
Ba3 N5 2.981058 1_556
Ba3 N0 2.986081 1_565
Ba3 N0 2.986081 1_455
Mn0 N7 1.842193 1_455
Mn0 N4 1.842193 1_565
Mn0 N1 1.880655 1_556
Mn0 N0 1.918316 1_465
Cr0 N7 1.743174 1_555
Cr0 N4 1.743174 1_555
Cr0 N2 1.856468 1_555
Cr0 N3 1.890224 1_555
Cr1 N5 1.781745 1_555
Cr1 N6 1.781745 1_555
Cr1 N3 1.855145 1_555
Cr1 N2 1.865292 1_555
Cr2 N5 1.790887 1_655
Cr2 N6 1.790887 1_545
Cr2 N0 1.841691 1_554
Cr2 N1 1.856005 1_645
