# generated using pymatgen
data_Zn5Ni(Mo3N)2
_symmetry_space_group_name_H-M   'P 1'
_cell_length_a   7.93073417
_cell_length_b   7.93073497
_cell_length_c   7.94671660
_cell_angle_alpha   59.93411734
_cell_angle_beta   59.93411704
_cell_angle_gamma   59.92910118
_symmetry_Int_Tables_number   1
_chemical_formula_structural   Zn5Ni(Mo3N)2
_chemical_formula_sum   'Zn10 Ni2 Mo12 N4'
_cell_volume   352.88531148
_cell_formula_units_Z   2
loop_
 _symmetry_equiv_pos_site_id
 _symmetry_equiv_pos_as_xyz
  1  'x, y, z'
loop_
 _atom_site_type_symbol
 _atom_site_label
 _atom_site_symmetry_multiplicity
 _atom_site_fract_x
 _atom_site_fract_y
 _atom_site_fract_z
 _atom_site_occupancy
  Zn  Zn0  1  0.74630945  0.41633776  0.41867504  1
  Zn  Zn1  1  0.41633776  0.74631045  0.41867504  1
  Zn  Zn2  1  0.83421001  0.83421001  0.49995405  1
  Zn  Zn3  1  0.83421125  0.83421125  0.83162181  1
  Zn  Zn4  1  0.49915846  0.83427642  0.83328226  1
  Zn  Zn5  1  0.83427642  0.49915846  0.83328226  1
  Zn  Zn6  1  0.62164146  0.62164146  0.12875404  1
  Zn  Zn7  1  0.62163500  0.62163500  0.62796929  1
  Zn  Zn8  1  0.13455984  0.61525090  0.62509552  1
  Zn  Zn9  1  0.61525090  0.13455984  0.62509552  1
  Ni  Ni0  1  0.41543170  0.41543170  0.75645720  1
  Ni  Ni1  1  0.41543854  0.41543854  0.41267506  1
  Mo  Mo0  1  0.80824907  0.19166155  0.19168772  1
  Mo  Mo1  1  0.19166155  0.80824907  0.19168772  1
  Mo  Mo2  1  0.81028468  0.81028468  0.18971490  1
  Mo  Mo3  1  0.19166010  0.80824834  0.80840333  1
  Mo  Mo4  1  0.80824934  0.19166010  0.80840333  1
  Mo  Mo5  1  0.19297557  0.19297557  0.80702498  1
  Mo  Mo6  1  0.43955437  0.06464943  0.05853155  1
  Mo  Mo7  1  0.06464943  0.43955437  0.05853255  1
  Mo  Mo8  1  0.43763284  0.43763284  0.06236869  1
  Mo  Mo9  1  0.06465432  0.43955395  0.43726181  1
  Mo  Mo10  1  0.43955395  0.06465432  0.43726181  1
  Mo  Mo11  1  0.06089570  0.06089570  0.43910331  1
  N  N0  1  0.12441002  0.12441002  0.62769033  1
  N  N1  1  0.12441055  0.12441055  0.12348759  1
  N  N2  1  0.62807912  0.12461860  0.12365115  1
  N  N3  1  0.12461860  0.62807812  0.12365115  1
loop_
_geom_bond_atom_site_label_1
_geom_bond_atom_site_label_2
_geom_bond_distance
_geom_bond_site_symmetry_2
Zn0 Zn9 2.389842 1_555
Zn0 Zn7 2.418066 1_555
Zn0 Zn6 2.418076 1_555
Zn0 Zn1 2.614117 1_555
Zn1 Zn8 2.389846 1_555
Zn1 Zn7 2.418064 1_555
Zn1 Zn6 2.418081 1_555
Zn2 Zn7 2.476007 1_555
Zn2 Zn8 2.485215 1_655
Zn2 Zn9 2.485215 1_565
Zn2 Zn3 2.635679 1_555
Zn2 Zn4 2.650401 1_555
Zn2 Zn5 2.650402 1_555
Zn3 Zn6 2.475978 1_556
Zn3 Zn9 2.485201 1_565
Zn3 Zn8 2.485201 1_655
Zn3 Zn4 2.650370 1_555
Zn3 Zn5 2.650370 1_555
Zn4 Zn7 2.444767 1_555
Zn4 Zn6 2.444769 1_556
Zn4 Zn9 2.445290 1_565
Zn4 Zn5 2.654883 1_555
Zn5 Zn7 2.444767 1_555
Zn5 Zn6 2.444769 1_556
Zn5 Zn8 2.445290 1_655
Ni0 Zn8 2.386984 1_555
Ni0 Zn9 2.386984 1_555
Ni0 Zn7 2.392724 1_555
Ni0 Zn0 2.651978 1_555
Ni0 Zn1 2.651982 1_555
Ni0 Ni1 2.731885 1_555
Ni1 Zn9 2.387004 1_555
Ni1 Zn8 2.387004 1_555
Ni1 Zn6 2.392746 1_555
Ni1 Zn0 2.651871 1_555
Ni1 Zn1 2.651879 1_555
Mo0 N2 2.107183 1_555
Mo0 N1 2.110220 1_655
Mo0 Zn2 2.653661 1_545
Mo0 Zn5 2.656603 1_554
Mo0 Ni1 2.835327 1_555
Mo0 Zn6 2.836217 1_555
Mo0 Zn0 2.850524 1_555
Mo0 Zn9 2.873983 1_555
Mo1 N3 2.107190 1_555
Mo1 N1 2.110220 1_565
Mo1 Zn2 2.653660 1_455
Mo1 Zn4 2.656603 1_554
Mo1 Ni1 2.835327 1_555
Mo1 Zn6 2.836217 1_555
Mo1 Zn1 2.850528 1_555
Mo1 Zn8 2.873984 1_555
Mo2 N2 2.101670 1_565
Mo2 N3 2.101672 1_655
Mo2 Zn2 2.669017 1_555
Mo2 Zn3 2.669044 1_554
Mo2 Zn1 2.880412 1_555
Mo2 Zn0 2.880415 1_555
Mo2 Zn6 2.899421 1_555
Mo2 Zn7 2.899526 1_555
Mo3 N3 2.107208 1_556
Mo3 N0 2.110236 1_565
Mo3 Zn3 2.653625 1_455
Mo3 Zn4 2.656571 1_555
Mo3 Ni0 2.835333 1_555
Mo3 Zn7 2.836199 1_555
Mo3 Zn1 2.850575 1_555
Mo3 Zn8 2.873929 1_555
Mo4 N2 2.107208 1_556
Mo4 N0 2.110230 1_655
Mo4 Zn3 2.653629 1_545
Mo4 Zn5 2.656566 1_555
Mo4 Ni0 2.835340 1_555
Mo4 Zn7 2.836201 1_555
Mo4 Zn0 2.850582 1_555
Mo4 Zn9 2.873936 1_555
Mo5 N0 2.114629 1_555
Mo5 N1 2.114632 1_556
Mo5 Zn5 2.650075 1_455
Mo5 Zn4 2.650076 1_545
Mo5 Zn9 2.790200 1_555
Mo5 Zn8 2.790200 1_555
Mo5 Ni0 2.843422 1_555
Mo5 Ni1 2.843525 1_555
Mo6 N2 2.112795 1_555
Mo6 N1 2.122038 1_555
Mo6 Ni0 2.602635 1_554
Mo6 Zn1 2.701223 1_545
Mo6 Zn9 2.857366 1_554
Mo6 Zn3 2.881384 1_544
Mo6 Zn4 2.886020 1_544
Mo6 Zn6 2.915319 1_545
Mo7 N3 2.112782 1_555
Mo7 N1 2.122040 1_555
Mo7 Ni0 2.602638 1_554
Mo7 Zn0 2.701222 1_455
Mo7 Zn8 2.857373 1_554
Mo7 Zn3 2.881387 1_454
Mo7 Zn5 2.886027 1_454
Mo7 Zn6 2.915320 1_455
Mo8 N3 2.109288 1_555
Mo8 N2 2.109291 1_555
Mo8 Ni1 2.619262 1_555
Mo8 Ni0 2.619266 1_554
Mo8 Zn6 2.866100 1_555
Mo8 Zn7 2.866115 1_554
Mo8 Zn5 2.890952 1_554
Mo8 Zn4 2.890953 1_554
Mo9 N3 2.112813 1_555
Mo9 N0 2.122054 1_555
Mo9 Ni1 2.602643 1_555
Mo9 Zn0 2.701226 1_455
Mo9 Zn8 2.857332 1_555
Mo9 Zn2 2.881370 1_455
Mo9 Zn5 2.886065 1_455
Mo9 Zn7 2.915395 1_455
Mo10 N2 2.112814 1_555
Mo10 N0 2.122054 1_555
Mo10 Ni1 2.602643 1_555
Mo10 Zn1 2.701218 1_545
Mo10 Zn9 2.857332 1_555
Mo10 Zn2 2.881370 1_545
Mo10 Zn4 2.886065 1_545
Mo10 Zn7 2.915395 1_545
Mo11 N0 2.126138 1_555
Mo11 N1 2.126160 1_555
Mo11 Zn1 2.663919 1_545
Mo11 Zn0 2.663922 1_455
Mo11 Zn2 2.862637 1_445
Mo11 Zn3 2.862662 1_445
Mo11 Zn9 2.928976 1_455
Mo11 Zn8 2.928977 1_545
