# generated using pymatgen
data_Zr10Ga3Bi3S
_symmetry_space_group_name_H-M   'P 1'
_cell_length_a   8.45169738
_cell_length_b   8.45169938
_cell_length_c   5.80396017
_cell_angle_alpha   90.00000000
_cell_angle_beta   90.00000000
_cell_angle_gamma   120.00000372
_symmetry_Int_Tables_number   1
_chemical_formula_structural   Zr10Ga3Bi3S
_chemical_formula_sum   'Zr10 Ga3 Bi3 S1'
_cell_volume   359.04015113
_cell_formula_units_Z   1
loop_
 _symmetry_equiv_pos_site_id
 _symmetry_equiv_pos_as_xyz
  1  'x, y, z'
loop_
 _atom_site_type_symbol
 _atom_site_label
 _atom_site_symmetry_multiplicity
 _atom_site_fract_x
 _atom_site_fract_y
 _atom_site_fract_z
 _atom_site_occupancy
  Zr  Zr0  1  0.00000000  0.75307077  0.23614995  1
  Zr  Zr1  1  0.24692923  0.24692923  0.23614995  1
  Zr  Zr2  1  0.75307077  1.00000000  0.23614995  1
  Zr  Zr3  1  1.00000000  0.25482848  0.75786289  1
  Zr  Zr4  1  0.74517152  0.74517152  0.75786289  1
  Zr  Zr5  1  0.25482848  0.00000000  0.75786289  1
  Zr  Zr6  1  0.33333300  0.66666700  0.51108010  1
  Zr  Zr7  1  0.66666700  0.33333300  0.51108010  1
  Zr  Zr8  1  0.66666700  0.33333300  0.98817016  1
  Zr  Zr9  1  0.33333300  0.66666700  0.98817016  1
  Ga  Ga0  1  1.00000000  0.61100767  0.75358333  1
  Ga  Ga1  1  0.38899233  0.38899233  0.75358333  1
  Ga  Ga2  1  0.61100767  0.00000000  0.75358333  1
  Bi  Bi0  1  1.00000000  0.39911074  0.25133883  1
  Bi  Bi1  1  0.60088926  0.60088926  0.25133883  1
  Bi  Bi2  1  0.39911074  0.00000000  0.25133883  1
  S  S0  1  0.00000000  0.00000000  0.50469545  1
loop_
_geom_bond_atom_site_label_1
_geom_bond_atom_site_label_2
_geom_bond_distance
_geom_bond_site_symmetry_2
Ga0 Zr4 2.892592 1_555
Ga0 Zr5 2.892592 1_665
Ga0 Zr9 2.947300 1_655
Ga0 Zr8 2.947302 1_555
Ga0 Zr6 2.968805 1_655
Ga0 Zr7 2.968807 1_555
Ga0 Zr3 3.010422 1_555
Ga0 Zr0 3.047308 1_656
Ga0 Zr0 3.234286 1_655
Ga1 Zr3 2.892591 1_455
Ga1 Zr5 2.892592 1_555
Ga1 Zr8 2.947307 1_555
Ga1 Zr9 2.947308 1_555
Ga1 Zr7 2.968812 1_555
Ga1 Zr6 2.968813 1_555
Ga1 Zr4 3.010421 1_555
Ga1 Zr1 3.047308 1_556
Ga1 Zr1 3.234286 1_555
Ga2 Zr3 2.892591 1_555
Ga2 Zr4 2.892592 1_545
Ga2 Zr8 2.947300 1_555
Ga2 Zr9 2.947303 1_545
Ga2 Zr7 2.968805 1_555
Ga2 Zr6 2.968808 1_545
Ga2 Zr5 3.010421 1_555
Ga2 Zr2 3.047308 1_546
Ga2 Zr2 3.234286 1_545
Bi0 Zr1 2.949874 1_655
Bi0 Zr2 2.949874 1_545
Bi0 Zr7 2.992038 1_555
Bi0 Zr6 2.992041 1_655
Bi0 Zr0 2.992862 1_655
Bi0 Zr8 3.002110 1_554
Bi0 Zr9 3.002113 1_654
Bi0 Zr3 3.112903 1_554
Bi0 Zr3 3.182719 1_555
Bi1 Zr0 2.949874 1_655
Bi1 Zr2 2.949875 1_555
Bi1 Zr6 2.992046 1_555
Bi1 Zr7 2.992046 1_555
Bi1 Zr1 2.992862 1_555
Bi1 Zr9 3.002117 1_554
Bi1 Zr8 3.002118 1_554
Bi1 Zr4 3.112903 1_554
Bi1 Zr4 3.182719 1_555
Bi2 Zr0 2.949874 1_545
Bi2 Zr1 2.949874 1_555
Bi2 Zr6 2.992039 1_545
Bi2 Zr7 2.992041 1_555
Bi2 Zr2 2.992862 1_545
Bi2 Zr9 3.002111 1_544
Bi2 Zr8 3.002113 1_554
Bi2 Zr5 3.112903 1_554
Bi2 Zr5 3.182719 1_555
S0 Zr2 2.604759 1_445
S0 Zr1 2.604759 1_555
S0 Zr0 2.604759 1_545
S0 Zr5 2.607226 1_555
S0 Zr4 2.607226 1_445
S0 Zr3 2.607226 1_455
