# generated using pymatgen
data_Li2HfWN4
_symmetry_space_group_name_H-M   'P 1'
_cell_length_a   4.17419614
_cell_length_b   6.16570642
_cell_length_c   7.46267473
_cell_angle_alpha   85.70194952
_cell_angle_beta   90.00000000
_cell_angle_gamma   90.00000000
_symmetry_Int_Tables_number   1
_chemical_formula_structural   Li2HfWN4
_chemical_formula_sum   'Li4 Hf2 W2 N8'
_cell_volume   191.52572403
_cell_formula_units_Z   2
loop_
 _symmetry_equiv_pos_site_id
 _symmetry_equiv_pos_as_xyz
  1  'x, y, z'
loop_
 _atom_site_type_symbol
 _atom_site_label
 _atom_site_symmetry_multiplicity
 _atom_site_fract_x
 _atom_site_fract_y
 _atom_site_fract_z
 _atom_site_occupancy
  Li  Li0  1  0.75000000  0.57774857  0.60276586  1
  Li  Li1  1  0.25000000  0.42225143  0.39723414  1
  Li  Li2  1  0.25000000  0.91766748  0.10602140  1
  Li  Li3  1  0.75000000  0.08233252  0.89397860  1
  Hf  Hf0  1  0.25000000  0.91815344  0.63909965  1
  Hf  Hf1  1  0.75000000  0.08184656  0.36090035  1
  W  W0  1  0.75000000  0.59069232  0.13181632  1
  W  W1  1  0.25000000  0.40930768  0.86818368  1
  N  N0  1  0.25000000  0.56252826  0.65037802  1
  N  N1  1  0.75000000  0.43747174  0.34962198  1
  N  N2  1  0.75000000  0.89021161  0.14064560  1
  N  N3  1  0.25000000  0.10978839  0.85935440  1
  N  N4  1  0.25000000  0.57624595  0.08783654  1
  N  N5  1  0.75000000  0.42375405  0.91216346  1
  N  N6  1  0.75000000  0.90912338  0.60792161  1
  N  N7  1  0.25000000  0.09087662  0.39207839  1
loop_
_geom_bond_atom_site_label_1
_geom_bond_atom_site_label_2
_geom_bond_distance
_geom_bond_site_symmetry_2
Li0 N6 2.046403 1_555
Li0 N0 2.118026 1_655
Li0 N0 2.118026 1_555
Li0 N1 2.135833 1_555
Li0 N5 2.429834 1_555
Li1 N7 2.046403 1_555
Li1 N1 2.118026 1_455
Li1 N1 2.118026 1_555
Li1 N0 2.135833 1_555
Li1 N4 2.429834 1_555
Li2 N2 2.108280 1_455
Li2 N2 2.108280 1_555
Li2 N3 2.113025 1_564
Li2 N4 2.119600 1_555
Li2 N7 2.457521 1_565
Li3 N3 2.108280 1_655
Li3 N3 2.108280 1_555
Li3 N2 2.113025 1_546
Li3 N5 2.119600 1_555
Li3 N6 2.457521 1_545
Hf0 N7 2.058676 1_565
Hf0 N3 2.094974 1_565
Hf0 N6 2.101227 1_555
Hf0 N6 2.101227 1_455
Hf0 N0 2.187983 1_555
Hf1 N6 2.058676 1_545
Hf1 N2 2.094974 1_545
Hf1 N7 2.101227 1_655
Hf1 N7 2.101227 1_555
Hf1 N1 2.187983 1_555
N0 W1 1.817770 1_555
N1 W0 1.817770 1_555
N2 W0 1.852851 1_555
N3 W1 1.852851 1_555
N4 W1 1.999827 1_554
N4 W0 2.115659 1_555
N4 W0 2.115659 1_455
N5 W0 1.999827 1_556
N5 W1 2.115659 1_555
N5 W1 2.115659 1_655
