# generated using pymatgen
data_Na2LiCrB28
_symmetry_space_group_name_H-M   'P 1'
_cell_length_a   7.19612304
_cell_length_b   7.19612378
_cell_length_c   7.19957556
_cell_angle_alpha   132.17413088
_cell_angle_beta   110.66208779
_cell_angle_gamma   88.58274328
_symmetry_Int_Tables_number   1
_chemical_formula_structural   Na2LiCrB28
_chemical_formula_sum   'Na2 Li1 Cr1 B28'
_cell_volume   246.13191500
_cell_formula_units_Z   1
loop_
 _symmetry_equiv_pos_site_id
 _symmetry_equiv_pos_as_xyz
  1  'x, y, z'
loop_
 _atom_site_type_symbol
 _atom_site_label
 _atom_site_symmetry_multiplicity
 _atom_site_fract_x
 _atom_site_fract_y
 _atom_site_fract_z
 _atom_site_occupancy
  Na  Na0  1  0.59599609  0.25021331  0.34620940  1
  Na  Na1  1  0.40400391  0.74978669  0.65379060  1
  Li  Li0  1  0.00000000  0.50000000  0.00000000  1
  Cr  Cr0  1  0.00000000  0.00000000  0.50000000  1
  B  B0  1  0.63280966  0.66277475  0.96262229  1
  B  B1  1  0.36719034  0.33722525  0.03737771  1
  B  B2  1  0.20015246  0.17018737  0.03737771  1
  B  B3  1  0.79984754  0.82981263  0.96262229  1
  B  B4  1  0.77331553  0.14892430  0.62218636  1
  B  B5  1  0.22668447  0.85107570  0.37781364  1
  B  B6  1  0.02673894  0.65112917  0.37781364  1
  B  B7  1  0.97326106  0.34887083  0.62218636  1
  B  B8  1  0.92231974  0.08819279  0.83320427  1
  B  B9  1  0.07768026  0.91180721  0.16679573  1
  B  B10  1  0.75498953  0.58911548  0.16679573  1
  B  B11  1  0.24501047  0.41088452  0.83320427  1
  B  B12  1  0.39593343  0.39897986  0.67612898  1
  B  B13  1  0.60403071  0.28055780  0.00494570  1
  B  B14  1  0.22438790  0.90091499  0.00494570  1
  B  B15  1  0.77714912  0.78019655  0.67612898  1
  B  B16  1  0.60406657  0.60102014  0.32387102  1
  B  B17  1  0.39596929  0.71944220  0.99505430  1
  B  B18  1  0.77561210  0.09908501  0.99505430  1
  B  B19  1  0.22285088  0.21980345  0.32387102  1
  B  B20  1  0.03610052  0.83690443  0.71137034  1
  B  B21  1  0.96229735  0.66609385  0.79182441  1
  B  B22  1  0.62573056  0.32952706  0.79182441  1
  B  B23  1  0.37446591  0.17526982  0.71137034  1
  B  B24  1  0.96389948  0.16309557  0.28862966  1
  B  B25  1  0.03770265  0.33390615  0.20817559  1
  B  B26  1  0.37426944  0.67047294  0.20817559  1
  B  B27  1  0.62553409  0.82473018  0.28862966  1
loop_
_geom_bond_atom_site_label_1
_geom_bond_atom_site_label_2
_geom_bond_distance
_geom_bond_site_symmetry_2
B0 B3 1.720814 1_555
B0 B12 1.784609 1_555
B0 B17 1.801157 1_555
B0 B22 1.807681 1_555
B0 B27 1.811239 1_556
B0 B10 1.823705 1_556
B0 Na1 2.698460 1_555
B1 B2 1.720814 1_555
B1 B16 1.784609 1_555
B1 B13 1.801157 1_555
B1 B26 1.807681 1_555
B1 B23 1.811239 1_554
B1 B11 1.823705 1_554
B1 Na0 2.698460 1_555
B2 B25 1.807681 1_555
B2 B20 1.811239 1_544
B2 B8 1.823704 1_454
B2 Na0 2.698460 1_555
B3 B9 1.823704 1_656
B3 Na1 2.698460 1_555
B4 B8 1.835091 1_555
B4 B7 2.059832 1_555
B4 Cr0 2.060011 1_655
B4 Li0 2.070624 1_656
B4 Na0 2.493344 1_555
B5 B9 1.835091 1_555
B5 B6 2.059832 1_555
B5 Cr0 2.060011 1_565
B5 Li0 2.070624 1_555
B5 Na1 2.493344 1_555
B6 Cr0 2.060013 1_565
B6 Li0 2.070621 1_555
B6 Na1 2.493338 1_555
B7 Cr0 2.060013 1_655
B7 Li0 2.070621 1_656
B7 Na0 2.493338 1_555
B8 Cr0 2.313998 1_655
B8 Li0 2.316493 1_656
B9 Cr0 2.313998 1_565
B9 Li0 2.316493 1_555
B10 B27 1.735950 1_555
B10 B22 1.784659 1_554
B10 B16 1.788242 1_555
B10 B13 1.794421 1_555
B10 B6 1.835091 1_655
B10 Cr0 2.313996 1_665
B10 Li0 2.316486 1_655
B11 B23 1.735950 1_555
B11 B26 1.784659 1_556
B11 B12 1.788242 1_555
B11 B17 1.794421 1_555
B11 B7 1.835091 1_455
B11 Cr0 2.313996 1_555
B11 Li0 2.316486 1_556
B12 B19 1.762116 1_555
B12 B22 1.795612 1_555
B12 B23 1.807835 1_555
B12 B17 1.865416 1_555
B12 Na1 2.638388 1_555
B12 Na0 2.789851 1_555
B13 B18 1.758522 1_554
B13 B23 1.793864 1_554
B13 B22 1.844110 1_554
B13 B16 1.865416 1_555
B13 Na0 2.628484 1_555
B13 Na1 2.790997 1_544
B14 B17 1.758522 1_554
B14 B20 1.793864 1_554
B14 B9 1.794418 1_555
B14 B2 1.801157 1_565
B14 B21 1.844110 1_454
B14 B19 1.865413 1_565
B14 Na0 2.628484 1_565
B14 Na1 2.790997 1_554
B15 B16 1.762116 1_555
B15 B3 1.784613 1_555
B15 B8 1.788230 1_565
B15 B21 1.795617 1_555
B15 B20 1.807833 1_655
B15 B18 1.865413 1_565
B15 Na1 2.638388 1_555
B15 Na0 2.789857 1_555
B16 B26 1.795612 1_555
B16 B27 1.807835 1_555
B16 Na0 2.638388 1_555
B16 Na1 2.789851 1_555
B17 B27 1.793864 1_556
B17 B26 1.844110 1_556
B17 Na1 2.628484 1_555
B17 Na0 2.790997 1_566
B18 B24 1.793864 1_556
B18 B8 1.794418 1_555
B18 B3 1.801157 1_545
B18 B25 1.844110 1_656
B18 Na1 2.628484 1_545
B18 Na0 2.790997 1_556
B19 B2 1.784613 1_555
B19 B9 1.788230 1_545
B19 B25 1.795617 1_555
B19 B24 1.807833 1_455
B19 Na0 2.638388 1_555
B19 Na1 2.789857 1_555
B20 B8 1.735945 1_465
B20 B6 1.771494 1_555
B20 B21 1.825887 1_455
B20 Cr0 2.421763 1_565
B20 Na1 2.813799 1_555
B21 B7 1.739067 1_555
B21 B9 1.784659 1_656
B21 B3 1.807681 1_555
B21 Li0 2.418870 1_656
B21 Na0 2.779778 1_555
B22 B4 1.739069 1_555
B22 B23 1.825887 1_555
B22 Li0 2.418870 1_656
B22 Na0 2.779778 1_555
B23 B5 1.771491 1_545
B23 Cr0 2.421763 1_555
B23 Na1 2.813800 1_545
B24 B9 1.735945 1_645
B24 B7 1.771494 1_555
B24 B3 1.811239 1_544
B24 B25 1.825887 1_655
B24 Cr0 2.421763 1_655
B24 Na0 2.813799 1_555
B25 B6 1.739067 1_555
B25 B8 1.784659 1_454
B25 Li0 2.418870 1_555
B25 Na1 2.779778 1_555
B26 B5 1.739069 1_555
B26 B27 1.825887 1_555
B26 Li0 2.418870 1_555
B26 Na1 2.779778 1_555
B27 B4 1.771491 1_565
B27 Cr0 2.421763 1_665
B27 Na0 2.813800 1_565
