# generated using pymatgen
data_LiV(PO4)2
_symmetry_space_group_name_H-M   'P 1'
_cell_length_a   8.49109400
_cell_length_b   8.50015133
_cell_length_c   7.40740200
_cell_angle_alpha   91.11558027
_cell_angle_beta   89.94633860
_cell_angle_gamma   60.47696604
_symmetry_Int_Tables_number   1
_chemical_formula_structural   LiV(PO4)2
_chemical_formula_sum   'Li3 V3 P6 O24'
_cell_volume   465.09324018
_cell_formula_units_Z   3
loop_
 _symmetry_equiv_pos_site_id
 _symmetry_equiv_pos_as_xyz
  1  'x, y, z'
loop_
 _atom_site_type_symbol
 _atom_site_label
 _atom_site_symmetry_multiplicity
 _atom_site_fract_x
 _atom_site_fract_y
 _atom_site_fract_z
 _atom_site_occupancy
  Li  Li0  1  0.98868500  0.20136900  0.40603100  1
  Li  Li1  1  0.32071100  0.34660500  0.49418300  1
  Li  Li2  1  0.66778500  0.66015700  0.50942900  1
  V  V0  1  0.34005000  0.32484900  0.92341700  1
  V  V1  1  0.66223700  0.66613200  0.08065800  1
  V  V2  1  0.00236700  0.98862600  0.00019000  1
  P  P0  1  0.32012000  0.03520400  0.22013600  1
  P  P1  1  0.03975900  0.63575100  0.22339200  1
  P  P2  1  0.36289200  0.67161900  0.78127500  1
  P  P3  1  0.63768900  0.31775400  0.22443700  1
  P  P4  1  0.68073300  0.95128700  0.78291400  1
  P  P5  1  0.96517600  0.34875400  0.78181300  1
  O  O0  1  0.52793300  0.32092500  0.05186000  1
  O  O1  1  0.14672600  0.35159100  0.76575500  1
  O  O2  1  0.24342100  0.15217400  0.38779500  1
  O  O3  1  0.33808900  0.14615400  0.06373800  1
  O  O4  1  0.16209700  0.50525000  0.06534700  1
  O  O5  1  0.14045700  0.58785000  0.39573000  1
  O  O6  1  0.49826600  0.13145400  0.76308000  1
  O  O7  1  0.16480000  0.80940200  0.84352600  1
  O  O8  1  0.36476100  0.48734300  0.76332700  1
  O  O9  1  0.18792500  0.96962600  0.15252300  1
  O  O10  1  0.01748600  0.16248700  0.86417000  1
  O  O11  1  0.56269300  0.27951800  0.38895100  1
  O  O12  1  0.42710900  0.72058300  0.61632000  1
  O  O13  1  0.47839700  0.66578000  0.95016900  1
  O  O14  1  0.81437200  0.01487500  0.85440800  1
  O  O15  1  0.97971100  0.82781000  0.15077000  1
  O  O16  1  0.84134800  0.17922900  0.18321900  1
  O  O17  1  0.50450000  0.85993600  0.24712100  1
  O  O18  1  0.87460300  0.37717800  0.60133000  1
  O  O19  1  0.83759900  0.49011000  0.92567800  1
  O  O20  1  0.66253400  0.84605000  0.94709100  1
  O  O21  1  0.74005800  0.83538500  0.61663300  1
  O  O22  1  0.86003200  0.62689000  0.23448900  1
  O  O23  1  0.63707500  0.50338700  0.23883300  1
loop_
_geom_bond_atom_site_label_1
_geom_bond_atom_site_label_2
_geom_bond_distance
_geom_bond_site_symmetry_2
Li0 O18 1.936729 1_555
Li0 O2 1.994358 1_655
Li0 O16 2.132691 1_555
Li1 O11 1.994867 1_555
Li1 O5 2.011613 1_555
Li1 O2 2.191422 1_555
Li1 O8 2.428005 1_555
Li1 O1 2.482014 1_555
Li1 O6 2.648592 1_555
Li2 O12 2.003422 1_555
Li2 O21 2.020247 1_555
Li2 O18 2.288249 1_555
Li2 O23 2.469988 1_555
Li2 O17 2.528728 1_555
Li2 O22 2.531556 1_555
O0 P3 1.575513 1_555
O0 V0 1.844736 1_554
O1 P5 1.558056 1_455
O1 V0 1.938141 1_555
O2 P0 1.505754 1_555
O3 P0 1.561684 1_555
O3 V0 1.863918 1_554
O4 P1 1.578488 1_555
O4 V0 1.841354 1_554
O5 P1 1.485158 1_555
O6 P4 1.561450 1_545
O6 V0 1.913690 1_555
O7 P2 1.565094 1_555
O7 V2 1.851267 1_556
O8 P2 1.561679 1_555
O8 V0 1.925353 1_555
O9 P0 1.558318 1_565
O9 V2 1.881882 1_555
O10 P5 1.556056 1_455
O10 V2 1.860212 1_546
O11 P3 1.487994 1_555
O12 P2 1.485185 1_555
O13 P2 1.576791 1_555
O13 V1 1.838026 1_556
O14 P4 1.566748 1_545
O14 V2 1.850840 1_646
O15 P1 1.558481 1_655
O15 V2 1.862218 1_655
O16 P3 1.564723 1_555
O16 V2 2.014997 1_645
O17 P0 1.556924 1_565
O17 V1 1.942012 1_555
O18 P5 1.506167 1_555
O19 P5 1.554999 1_555
O19 V1 1.872953 1_556
O20 P4 1.575203 1_555
O20 V1 1.838601 1_556
O21 P4 1.484566 1_555
O22 P1 1.566728 1_655
O22 V1 1.922672 1_555
O23 P3 1.576875 1_555
O23 V1 1.919910 1_555
