# generated using pymatgen
data_Hf3Zn2AuC
_symmetry_space_group_name_H-M   'P 1'
_cell_length_a   8.57384284
_cell_length_b   8.57381654
_cell_length_c   8.57382736
_cell_angle_alpha   60.00034933
_cell_angle_beta   60.00045056
_cell_angle_gamma   60.00040278
_symmetry_Int_Tables_number   1
_chemical_formula_structural   Hf3Zn2AuC
_chemical_formula_sum   'Hf12 Zn8 Au4 C4'
_cell_volume   445.66998761
_cell_formula_units_Z   4
loop_
 _symmetry_equiv_pos_site_id
 _symmetry_equiv_pos_as_xyz
  1  'x, y, z'
loop_
 _atom_site_type_symbol
 _atom_site_label
 _atom_site_symmetry_multiplicity
 _atom_site_fract_x
 _atom_site_fract_y
 _atom_site_fract_z
 _atom_site_occupancy
  Hf  Hf0  1  0.43786016  0.43785881  0.06214054  1
  Hf  Hf1  1  0.06214025  0.43785905  0.06214049  1
  Hf  Hf2  1  0.43785994  0.06214017  0.06214015  1
  Hf  Hf3  1  0.06214019  0.06214047  0.43785939  1
  Hf  Hf4  1  0.43785998  0.06214042  0.43785926  1
  Hf  Hf5  1  0.06214054  0.43785903  0.43785970  1
  Hf  Hf6  1  0.81213984  0.81214119  0.18785946  1
  Hf  Hf7  1  0.18785975  0.81214095  0.18785951  1
  Hf  Hf8  1  0.81214006  0.18785983  0.18785985  1
  Hf  Hf9  1  0.18785981  0.18785953  0.81214061  1
  Hf  Hf10  1  0.81214002  0.18785958  0.81214074  1
  Hf  Hf11  1  0.18785946  0.81214097  0.81214030  1
  Zn  Zn0  1  0.83463028  0.83462842  0.49611146  1
  Zn  Zn1  1  0.83462985  0.49611196  0.83462876  1
  Zn  Zn2  1  0.49611130  0.83462883  0.83462960  1
  Zn  Zn3  1  0.83463063  0.83462879  0.83462960  1
  Zn  Zn4  1  0.41536972  0.41537158  0.75388854  1
  Zn  Zn5  1  0.41537015  0.75388804  0.41537124  1
  Zn  Zn6  1  0.75388870  0.41537117  0.41537040  1
  Zn  Zn7  1  0.41536937  0.41537121  0.41537040  1
  Au  Au0  1  0.62500000  0.62500000  0.12500000  1
  Au  Au1  1  0.62500000  0.12500000  0.62500000  1
  Au  Au2  1  0.12500000  0.62500000  0.62500000  1
  Au  Au3  1  0.62500000  0.62500000  0.62500000  1
  C  C0  1  0.12500000  0.12500000  0.62500000  1
  C  C1  1  0.12500000  0.62500000  0.12500000  1
  C  C2  1  0.62500000  0.12500000  0.12500000  1
  C  C3  1  0.12500000  0.12500000  0.12500000  1
loop_
_geom_bond_atom_site_label_1
_geom_bond_atom_site_label_2
_geom_bond_distance
_geom_bond_site_symmetry_2
Hf0 Zn4 2.848793 1_554
Hf0 Zn7 2.848797 1_555
Hf0 Zn2 3.117049 1_554
Hf0 Zn1 3.117064 1_554
Hf1 Zn6 2.848816 1_455
Hf1 Zn4 2.848817 1_554
Hf1 Zn1 3.117041 1_454
Hf1 Zn3 3.117054 1_454
Hf2 Zn4 2.848815 1_554
Hf2 Zn5 2.848816 1_545
Hf2 Zn2 3.117041 1_544
Hf2 Zn3 3.117070 1_544
Hf3 Zn6 2.848815 1_455
Hf3 Zn5 2.848817 1_545
Hf3 Zn0 3.117041 1_445
Hf3 Zn3 3.117062 1_445
Hf4 Zn5 2.848794 1_545
Hf4 Zn7 2.848796 1_555
Hf4 Zn2 3.117055 1_545
Hf4 Zn0 3.117064 1_545
Hf5 Zn6 2.848794 1_455
Hf5 Zn7 2.848798 1_555
Hf5 Zn0 3.117048 1_455
Hf5 Zn1 3.117054 1_455
Hf6 Zn0 2.848793 1_555
Hf6 Zn3 2.848797 1_554
Hf6 Zn6 3.117049 1_555
Hf6 Zn5 3.117064 1_555
Hf7 Zn2 2.848816 1_554
Hf7 Zn0 2.848817 1_455
Hf7 Zn5 3.117041 1_555
Hf7 Zn7 3.117054 1_555
Hf8 Zn0 2.848815 1_545
Hf8 Zn1 2.848816 1_554
Hf8 Zn6 3.117041 1_555
Hf8 Zn7 3.117070 1_555
Hf9 Zn2 2.848815 1_545
Hf9 Zn1 2.848817 1_455
Hf9 Zn4 3.117041 1_555
Hf9 Zn7 3.117062 1_555
Hf10 Zn1 2.848794 1_555
Hf10 Zn3 2.848796 1_545
Hf10 Zn6 3.117055 1_555
Hf10 Zn4 3.117064 1_555
Hf11 Zn2 2.848794 1_555
Hf11 Zn3 2.848798 1_455
Hf11 Zn4 3.117048 1_555
Hf11 Zn5 3.117054 1_555
Zn0 Zn1 2.902399 1_555
Zn0 Zn3 2.902399 1_555
Zn0 Zn2 2.902422 1_555
Zn1 Zn3 2.902388 1_555
Zn1 Zn2 2.902411 1_555
Zn2 Zn3 2.902411 1_555
Zn4 Zn5 2.902399 1_555
Zn4 Zn7 2.902399 1_555
Zn4 Zn6 2.902422 1_555
Zn5 Zn7 2.902388 1_555
Zn5 Zn6 2.902411 1_555
Zn6 Zn7 2.902411 1_555
Au0 Zn6 2.634394 1_555
Au0 Zn2 2.634394 1_554
Au0 Zn5 2.634399 1_555
Au0 Zn1 2.634399 1_554
Au0 Zn3 2.634402 1_554
Au0 Zn7 2.634402 1_555
Au0 Hf6 3.121421 1_555
Au0 Hf0 3.121421 1_555
Au0 Hf2 3.121435 1_565
Au0 Hf8 3.121435 1_555
Au0 Hf1 3.121447 1_655
Au0 Hf7 3.121447 1_555
Au1 Zn6 2.634399 1_555
Au1 Zn2 2.634399 1_545
Au1 Zn4 2.634402 1_555
Au1 Zn0 2.634402 1_545
Au1 Zn3 2.634406 1_545
Au1 Zn7 2.634406 1_555
Au1 Hf10 3.121420 1_555
Au1 Hf4 3.121420 1_555
Au1 Hf2 3.121440 1_556
Au1 Hf8 3.121440 1_555
Au1 Hf3 3.121447 1_655
Au1 Hf9 3.121447 1_555
Au2 Zn4 2.634392 1_555
Au2 Zn0 2.634392 1_455
Au2 Zn5 2.634394 1_555
Au2 Zn1 2.634394 1_455
Au2 Zn3 2.634397 1_455
Au2 Zn7 2.634397 1_555
Au2 Hf11 3.121421 1_555
Au2 Hf5 3.121421 1_555
Au2 Hf3 3.121436 1_565
Au2 Hf9 3.121436 1_555
Au2 Hf1 3.121441 1_556
Au2 Hf7 3.121441 1_555
Au3 Zn2 2.634383 1_555
Au3 Zn6 2.634383 1_555
Au3 Zn0 2.634387 1_555
Au3 Zn4 2.634387 1_555
Au3 Zn1 2.634388 1_555
Au3 Zn5 2.634388 1_555
Au3 Hf4 3.121441 1_565
Au3 Hf10 3.121441 1_555
Au3 Hf0 3.121447 1_556
Au3 Hf6 3.121447 1_555
Au3 Hf5 3.121454 1_655
Au3 Hf11 3.121454 1_555
C0 Hf9 2.274934 1_555
C0 Hf3 2.274934 1_555
C0 Hf5 2.274942 1_555
C0 Hf11 2.274942 1_545
C0 Hf4 2.274958 1_555
C0 Hf10 2.274958 1_455
C1 Hf7 2.274935 1_555
C1 Hf1 2.274935 1_555
C1 Hf5 2.274950 1_555
C1 Hf11 2.274950 1_554
C1 Hf0 2.274958 1_555
C1 Hf6 2.274958 1_455
C2 Hf8 2.274933 1_555
C2 Hf2 2.274933 1_555
C2 Hf0 2.274941 1_555
C2 Hf6 2.274941 1_545
C2 Hf4 2.274948 1_555
C2 Hf10 2.274948 1_554
C3 Hf1 2.274935 1_555
C3 Hf7 2.274935 1_545
C3 Hf3 2.274941 1_555
C3 Hf9 2.274941 1_554
C3 Hf2 2.274950 1_555
C3 Hf8 2.274950 1_455
