# generated using pymatgen
data_Sr2Al3GaTe8
_symmetry_space_group_name_H-M   'P 1'
_cell_length_a   6.81957528
_cell_length_b   6.82252612
_cell_length_c   11.89383063
_cell_angle_alpha   90.00000000
_cell_angle_beta   90.00000000
_cell_angle_gamma   120.58101878
_symmetry_Int_Tables_number   1
_chemical_formula_structural   Sr2Al3GaTe8
_chemical_formula_sum   'Sr2 Al3 Ga1 Te8'
_cell_volume   476.41162267
_cell_formula_units_Z   1
loop_
 _symmetry_equiv_pos_site_id
 _symmetry_equiv_pos_as_xyz
  1  'x, y, z'
loop_
 _atom_site_type_symbol
 _atom_site_label
 _atom_site_symmetry_multiplicity
 _atom_site_fract_x
 _atom_site_fract_y
 _atom_site_fract_z
 _atom_site_occupancy
  Sr  Sr0  1  0.50063720  0.50027414  0.25010669  1
  Sr  Sr1  1  0.50063720  0.50027414  0.74989331  1
  Al  Al0  1  0.24246265  0.75893701  0.50000000  1
  Al  Al1  1  0.24137812  0.75683436  0.00000000  1
  Al  Al2  1  0.75931383  0.24370640  0.00000000  1
  Ga  Ga0  1  0.75696065  0.23959392  0.50000000  1
  Te  Te0  1  0.65778758  0.81757205  0.00000000  1
  Te  Te1  1  0.34297867  0.18303366  0.00000000  1
  Te  Te2  1  0.81575924  0.65686898  0.50000000  1
  Te  Te3  1  0.18439458  0.34367521  0.50000000  1
  Te  Te4  1  0.49829903  0.99928749  0.67060863  1
  Te  Te5  1  0.00054662  0.50032757  0.82939997  1
  Te  Te6  1  0.49829903  0.99928749  0.32939137  1
  Te  Te7  1  0.00054662  0.50032757  0.17060003  1
loop_
_geom_bond_atom_site_label_1
_geom_bond_atom_site_label_2
_geom_bond_distance
_geom_bond_site_symmetry_2
Sr0 Te2 3.501054 1_555
Sr0 Te3 3.504565 1_555
Sr0 Te1 3.510229 1_555
Sr0 Te0 3.510437 1_555
Sr0 Te7 3.537712 1_655
Sr0 Te6 3.537899 1_545
Sr0 Te7 3.539260 1_555
Sr0 Te6 3.540561 1_555
Sr1 Te2 3.501054 1_555
Sr1 Te3 3.504565 1_555
Sr1 Te1 3.510229 1_556
Sr1 Te0 3.510437 1_556
Sr1 Te5 3.537712 1_655
Sr1 Te4 3.537899 1_545
Sr1 Te5 3.539260 1_555
Sr1 Te4 3.540561 1_555
Al0 Te2 2.625032 1_455
Al0 Te4 2.634286 1_555
Al0 Te6 2.634286 1_555
Al0 Te3 2.653658 1_555
Al1 Te1 2.623953 1_565
Al1 Te7 2.636786 1_555
Al1 Te5 2.636786 1_554
Al1 Te0 2.653010 1_555
Al2 Te0 2.623673 1_545
Al2 Te7 2.637838 1_655
Al2 Te5 2.637838 1_654
Al2 Te1 2.652680 1_555
Ga0 Te3 2.625807 1_655
Ga0 Te4 2.640922 1_545
Ga0 Te6 2.640922 1_545
Ga0 Te2 2.665318 1_555
