# generated using pymatgen
data_Rb6InBi3
_symmetry_space_group_name_H-M   'P 1'
_cell_length_a   6.43275921
_cell_length_b   11.18940118
_cell_length_c   12.85934897
_cell_angle_alpha   79.27079091
_cell_angle_beta   90.00000000
_cell_angle_gamma   90.00000000
_symmetry_Int_Tables_number   1
_chemical_formula_structural   Rb6InBi3
_chemical_formula_sum   'Rb12 In2 Bi6'
_cell_volume   909.41820951
_cell_formula_units_Z   2
loop_
 _symmetry_equiv_pos_site_id
 _symmetry_equiv_pos_as_xyz
  1  'x, y, z'
loop_
 _atom_site_type_symbol
 _atom_site_label
 _atom_site_symmetry_multiplicity
 _atom_site_fract_x
 _atom_site_fract_y
 _atom_site_fract_z
 _atom_site_occupancy
  Rb  Rb0  1  0.75000000  0.45998243  0.07803507  1
  Rb  Rb1  1  0.25000000  0.54001757  0.92196493  1
  Rb  Rb2  1  0.75000000  0.74436878  0.21917932  1
  Rb  Rb3  1  0.25000000  0.25563122  0.78082068  1
  Rb  Rb4  1  0.25000000  0.56327255  0.53337054  1
  Rb  Rb5  1  0.75000000  0.43672745  0.46662946  1
  Rb  Rb6  1  0.25000000  0.86558449  0.02176352  1
  Rb  Rb7  1  0.75000000  0.13441551  0.97823648  1
  Rb  Rb8  1  0.25000000  0.87618955  0.67720113  1
  Rb  Rb9  1  0.75000000  0.12381045  0.32279887  1
  Rb  Rb10  1  0.25000000  0.92221100  0.36922248  1
  Rb  Rb11  1  0.75000000  0.07778900  0.63077752  1
  In  In0  1  0.25000000  0.32084353  0.27962920  1
  In  In1  1  0.75000000  0.67915647  0.72037080  1
  Bi  Bi0  1  0.25000000  0.16820191  0.11851743  1
  Bi  Bi1  1  0.75000000  0.83179809  0.88148257  1
  Bi  Bi2  1  0.25000000  0.21105804  0.50009290  1
  Bi  Bi3  1  0.75000000  0.78894196  0.49990710  1
  Bi  Bi4  1  0.25000000  0.57868352  0.22155879  1
  Bi  Bi5  1  0.75000000  0.42131648  0.77844121  1
loop_
_geom_bond_atom_site_label_1
_geom_bond_atom_site_label_2
_geom_bond_distance
_geom_bond_site_symmetry_2
In0 Rb9 3.880489 1_455
In0 Rb9 3.880489 1_555
In1 Rb8 3.880489 1_555
In1 Rb8 3.880489 1_655
Bi0 In0 2.920104 1_555
Bi0 Rb7 3.741133 1_454
Bi0 Rb7 3.741133 1_554
Bi0 Rb6 3.818688 1_545
Bi0 Rb10 3.829589 1_545
Bi0 Rb9 4.123922 1_455
Bi0 Rb9 4.123922 1_555
Bi0 Rb3 4.270023 1_554
Bi1 In1 2.920104 1_555
Bi1 Rb6 3.741133 1_556
Bi1 Rb6 3.741133 1_656
Bi1 Rb7 3.818688 1_565
Bi1 Rb11 3.829589 1_565
Bi1 Rb8 4.123922 1_655
Bi1 Rb8 4.123922 1_555
Bi1 Rb2 4.270023 1_556
Bi2 In0 2.872226 1_555
Bi2 Rb3 3.735111 1_555
Bi2 Rb11 3.802611 1_555
Bi2 Rb11 3.802611 1_455
Bi2 Rb10 3.911953 1_545
Bi2 Rb8 4.006174 1_545
Bi2 Rb4 4.042659 1_555
Bi2 Rb5 4.062247 1_455
Bi2 Rb5 4.062247 1_555
Bi2 Rb9 4.162302 1_455
Bi2 Rb9 4.162302 1_555
Bi3 In1 2.872226 1_555
Bi3 Rb2 3.735111 1_555
Bi3 Rb10 3.802611 1_655
Bi3 Rb10 3.802611 1_555
Bi3 Rb11 3.911953 1_565
Bi3 Rb9 4.006174 1_565
Bi3 Rb5 4.042659 1_555
Bi3 Rb4 4.062247 1_655
Bi3 Rb4 4.062247 1_555
Bi3 Rb8 4.162302 1_555
Bi3 Rb8 4.162302 1_655
Bi4 In0 2.842380 1_555
Bi4 Rb2 3.709707 1_455
Bi4 Rb2 3.709707 1_555
Bi4 Rb6 3.719638 1_555
Bi4 Rb1 3.956032 1_554
Bi4 Rb4 3.981200 1_555
Bi4 Rb0 4.053176 1_455
Bi4 Rb0 4.053176 1_555
Bi5 In1 2.842380 1_555
Bi5 Rb3 3.709707 1_555
Bi5 Rb3 3.709707 1_655
Bi5 Rb7 3.719638 1_555
Bi5 Rb0 3.956032 1_556
Bi5 Rb5 3.981200 1_555
Bi5 Rb1 4.053176 1_555
Bi5 Rb1 4.053176 1_655
