# generated using pymatgen
data_Sr(PO3)2
_symmetry_space_group_name_H-M   'P 1'
_cell_length_a   7.94306640
_cell_length_b   7.19574497
_cell_length_c   17.41184309
_cell_angle_alpha   89.36303010
_cell_angle_beta   90.00000000
_cell_angle_gamma   90.00000000
_symmetry_Int_Tables_number   1
_chemical_formula_structural   Sr(PO3)2
_chemical_formula_sum   'Sr8 P16 O48'
_cell_volume   995.13468154
_cell_formula_units_Z   8
loop_
 _symmetry_equiv_pos_site_id
 _symmetry_equiv_pos_as_xyz
  1  'x, y, z'
loop_
 _atom_site_type_symbol
 _atom_site_label
 _atom_site_symmetry_multiplicity
 _atom_site_fract_x
 _atom_site_fract_y
 _atom_site_fract_z
 _atom_site_occupancy
  Sr  Sr0  1  0.66001165  0.48288456  0.32582547  1
  Sr  Sr1  1  0.16001165  0.51711544  0.17417453  1
  Sr  Sr2  1  0.33998835  0.51711544  0.67417453  1
  Sr  Sr3  1  0.83998835  0.48288456  0.82582547  1
  Sr  Sr4  1  0.11549867  0.01804366  0.10362341  1
  Sr  Sr5  1  0.61549867  0.98195634  0.39637659  1
  Sr  Sr6  1  0.88450133  0.98195634  0.89637659  1
  Sr  Sr7  1  0.38450133  0.01804366  0.60362341  1
  P  P0  1  0.78872175  0.75829614  0.08983538  1
  P  P1  1  0.28872175  0.24170386  0.41016462  1
  P  P2  1  0.21127825  0.24170386  0.91016462  1
  P  P3  1  0.71127825  0.75829614  0.58983538  1
  P  P4  1  0.80434040  0.36221088  0.03970597  1
  P  P5  1  0.30434040  0.63778912  0.46029403  1
  P  P6  1  0.19565960  0.63778912  0.96029403  1
  P  P7  1  0.69565960  0.36221088  0.53970597  1
  P  P8  1  0.51439788  0.87079440  0.19343518  1
  P  P9  1  0.01439788  0.12920560  0.30656482  1
  P  P10  1  0.48560212  0.12920560  0.80656482  1
  P  P11  1  0.98560212  0.87079440  0.69343518  1
  P  P12  1  0.51660372  0.27064314  0.14241587  1
  P  P13  1  0.01660372  0.72935686  0.35758413  1
  P  P14  1  0.48339628  0.72935686  0.85758413  1
  P  P15  1  0.98339628  0.27064314  0.64241587  1
  O  O0  1  0.34023951  0.25912706  0.11397008  1
  O  O1  1  0.84023951  0.74087294  0.38602992  1
  O  O2  1  0.65976049  0.74087294  0.88602992  1
  O  O3  1  0.15976049  0.25912706  0.61397008  1
  O  O4  1  0.56488421  0.08570211  0.18802420  1
  O  O5  1  0.06488421  0.91429789  0.31197580  1
  O  O6  1  0.43511579  0.91429789  0.81197580  1
  O  O7  1  0.93511579  0.08570211  0.68802420  1
  O  O8  1  0.55893184  0.43020110  0.19207386  1
  O  O9  1  0.05893184  0.56979890  0.30792614  1
  O  O10  1  0.44106816  0.56979890  0.80792614  1
  O  O11  1  0.94106816  0.43020110  0.69207386  1
  O  O12  1  0.33725733  0.08763696  0.46377223  1
  O  O13  1  0.83725733  0.91236304  0.03622777  1
  O  O14  1  0.66274267  0.91236304  0.53622777  1
  O  O15  1  0.16274267  0.08763696  0.96377223  1
  O  O16  1  0.90721600  0.72935848  0.15540759  1
  O  O17  1  0.94622814  0.32432449  0.09358703  1
  O  O18  1  0.40721600  0.27064152  0.34459241  1
  O  O19  1  0.59278400  0.72935848  0.65540759  1
  O  O20  1  0.63584611  0.26429482  0.06917544  1
  O  O21  1  0.13584611  0.73570518  0.43082456  1
  O  O22  1  0.36415389  0.73570518  0.93082456  1
  O  O23  1  0.86415389  0.26429482  0.56917544  1
  O  O24  1  0.16940284  0.84049977  0.68238552  1
  O  O25  1  0.66940284  0.15950023  0.81761448  1
  O  O26  1  0.83059716  0.15950023  0.31761448  1
  O  O27  1  0.33059716  0.84049977  0.18238552  1
  O  O28  1  0.90609469  0.80263628  0.76542216  1
  O  O29  1  0.40609469  0.19736372  0.73457784  1
  O  O30  1  0.09390531  0.19736372  0.23457784  1
  O  O31  1  0.59390531  0.80263628  0.26542216  1
  O  O32  1  0.89838360  0.79170421  0.61837431  1
  O  O33  1  0.39838360  0.20829579  0.88162569  1
  O  O34  1  0.10161640  0.20829579  0.38162569  1
  O  O35  1  0.60161640  0.79170421  0.11837431  1
  O  O36  1  0.67765657  0.31083638  0.45774677  1
  O  O37  1  0.17765657  0.68916362  0.04225323  1
  O  O38  1  0.32234343  0.68916362  0.54225323  1
  O  O39  1  0.82234343  0.31083638  0.95774677  1
  O  O40  1  0.74234100  0.57698899  0.54123134  1
  O  O41  1  0.24234100  0.42301101  0.95876866  1
  O  O42  1  0.25765900  0.42301101  0.45876866  1
  O  O43  1  0.75765900  0.57698899  0.04123134  1
  O  O44  1  0.55377186  0.32432449  0.59358703  1
  O  O45  1  0.05377186  0.67567551  0.90641297  1
  O  O46  1  0.44622814  0.67567551  0.40641297  1
  O  O47  1  0.09278400  0.27064152  0.84459241  1
loop_
_geom_bond_atom_site_label_1
_geom_bond_atom_site_label_2
_geom_bond_distance
_geom_bond_site_symmetry_2
O0 P12 1.488469 1_555
O0 Sr4 2.497107 1_555
O0 Sr1 2.576392 1_555
O1 P13 1.488469 1_655
O1 Sr5 2.497107 1_555
O1 Sr0 2.576392 1_555
O2 P14 1.488469 1_555
O2 Sr6 2.497107 1_555
O2 Sr3 2.576392 1_555
O3 P15 1.488469 1_455
O3 Sr7 2.497107 1_555
O3 Sr2 2.576392 1_555
O4 P12 1.589089 1_555
O4 P8 1.599334 1_545
O5 P13 1.589089 1_555
O5 P9 1.599334 1_565
O6 P14 1.589089 1_555
O6 P10 1.599334 1_565
O7 P15 1.589089 1_555
O7 P11 1.599334 1_545
O8 P12 1.483554 1_555
O8 Sr0 2.496310 1_555
O9 P13 1.483554 1_555
O9 Sr1 2.496310 1_555
O10 P14 1.483554 1_555
O10 Sr2 2.496310 1_555
O11 P15 1.483554 1_555
O11 Sr3 2.496310 1_555
O12 P1 1.491952 1_555
O12 Sr7 2.508792 1_555
O12 Sr5 2.619100 1_545
O13 P0 1.491952 1_555
O13 Sr6 2.508792 1_554
O13 Sr4 2.619100 1_665
O14 P3 1.491952 1_555
O14 Sr5 2.508792 1_555
O14 Sr7 2.619100 1_565
O15 P2 1.491952 1_555
O15 Sr4 2.508792 1_556
O15 Sr6 2.619100 1_445
O16 P0 1.492481 1_555
O16 Sr1 2.541676 1_655
O16 Sr4 2.797068 1_665
O17 P4 1.489624 1_555
O17 Sr4 2.585921 1_655
O17 Sr1 2.611561 1_655
O18 P1 1.492481 1_555
O18 Sr0 2.541676 1_555
O18 Sr5 2.797068 1_545
O19 P3 1.492481 1_555
O19 Sr2 2.541676 1_555
O19 Sr7 2.797068 1_565
O20 P12 1.589572 1_555
O20 P4 1.594645 1_555
O21 P13 1.589572 1_555
O21 P5 1.594645 1_555
O22 P14 1.589572 1_555
O22 P6 1.594645 1_555
O23 P15 1.589572 1_555
O23 P7 1.594645 1_555
O24 P11 1.488925 1_455
O24 Sr7 2.528446 1_565
O24 Sr2 2.697902 1_555
O25 P10 1.488925 1_555
O25 Sr6 2.528446 1_545
O25 Sr3 2.697902 1_555
O26 P9 1.488925 1_655
O26 Sr5 2.528446 1_545
O26 Sr0 2.697902 1_555
O27 P8 1.488925 1_555
O27 Sr4 2.528446 1_565
O27 Sr1 2.697902 1_555
O28 P11 1.482154 1_555
O28 Sr3 2.573320 1_555
O28 Sr6 2.637980 1_555
O29 P10 1.482154 1_555
O29 Sr2 2.573320 1_555
O29 Sr7 2.637980 1_555
O30 P9 1.482154 1_555
O30 Sr1 2.573320 1_555
O30 Sr4 2.637980 1_555
O31 P8 1.482154 1_555
O31 Sr0 2.573320 1_555
O31 Sr5 2.637980 1_555
O32 P3 1.586232 1_555
O32 P11 1.590122 1_555
O33 P2 1.586232 1_555
O33 P10 1.590122 1_555
O34 P1 1.586232 1_555
O34 P9 1.590122 1_555
O35 P0 1.586232 1_555
O35 P8 1.590122 1_555
O36 P7 1.485040 1_555
O36 Sr0 2.601014 1_555
O36 Sr5 2.653738 1_545
O37 P6 1.485040 1_554
O37 Sr1 2.601014 1_555
O37 Sr4 2.653738 1_565
O38 P5 1.485040 1_555
O38 Sr2 2.601014 1_555
O38 Sr7 2.653738 1_565
O39 P4 1.485040 1_556
O39 Sr3 2.601014 1_555
O39 Sr6 2.653738 1_545
O40 P3 1.582312 1_555
O40 P7 1.589856 1_555
O41 P2 1.582312 1_555
O41 P6 1.589856 1_555
O42 P1 1.582312 1_555
O42 P5 1.589856 1_555
O43 P0 1.582312 1_555
O43 P4 1.589856 1_555
O44 P7 1.489624 1_555
O44 Sr7 2.585921 1_555
O44 Sr2 2.611561 1_555
O45 P6 1.489624 1_555
O45 Sr6 2.585921 1_455
O45 Sr3 2.611561 1_455
O46 P5 1.489624 1_555
O46 Sr5 2.585921 1_555
O46 Sr0 2.611561 1_555
O47 P2 1.492481 1_555
O47 Sr3 2.541676 1_455
O47 Sr6 2.797068 1_445
