# generated using pymatgen
data_NaLiZrBr6
_symmetry_space_group_name_H-M   'P 1'
_cell_length_a   6.93189931
_cell_length_b   6.93189998
_cell_length_c   6.51646099
_cell_angle_alpha   90.00000000
_cell_angle_beta   90.00000000
_cell_angle_gamma   120.00000142
_symmetry_Int_Tables_number   1
_chemical_formula_structural   NaLiZrBr6
_chemical_formula_sum   'Na1 Li1 Zr1 Br6'
_cell_volume   271.17332044
_cell_formula_units_Z   1
loop_
 _symmetry_equiv_pos_site_id
 _symmetry_equiv_pos_as_xyz
  1  'x, y, z'
loop_
 _atom_site_type_symbol
 _atom_site_label
 _atom_site_symmetry_multiplicity
 _atom_site_fract_x
 _atom_site_fract_y
 _atom_site_fract_z
 _atom_site_occupancy
  Na  Na0  1  0.33333300  0.66666700  0.50000000  1
  Li  Li0  1  0.66666700  0.33333300  0.50000000  1
  Zr  Zr0  1  0.00000000  0.00000000  0.50000000  1
  Br  Br0  1  0.69664170  0.68056397  0.73425159  1
  Br  Br1  1  0.98392227  0.30335830  0.73425159  1
  Br  Br2  1  0.31943603  0.01607773  0.73425159  1
  Br  Br3  1  0.31943603  0.30335830  0.26574841  1
  Br  Br4  1  0.98392227  0.68056397  0.26574841  1
  Br  Br5  1  0.69664170  0.01607773  0.26574841  1
loop_
_geom_bond_atom_site_label_1
_geom_bond_atom_site_label_2
_geom_bond_distance
_geom_bond_site_symmetry_2
Br0 Zr0 2.645550 1_665
Br0 Li0 2.768886 1_555
Br0 Na0 2.905045 1_555
Br1 Zr0 2.645550 1_655
Br1 Li0 2.768880 1_555
Br1 Na0 2.905042 1_655
Br2 Zr0 2.645550 1_555
Br2 Li0 2.768884 1_555
Br2 Na0 2.905039 1_545
Br3 Zr0 2.645550 1_555
Br3 Li0 2.768886 1_555
Br3 Na0 2.905045 1_555
Br4 Zr0 2.645550 1_665
Br4 Li0 2.768884 1_555
Br4 Na0 2.905039 1_655
Br5 Zr0 2.645550 1_655
Br5 Li0 2.768881 1_555
Br5 Na0 2.905042 1_545
