# generated using pymatgen
data_Ba2Na2SrAs4
_symmetry_space_group_name_H-M   'P 1'
_cell_length_a   7.73024996
_cell_length_b   8.44778180
_cell_length_c   18.24352195
_cell_angle_alpha   62.25572589
_cell_angle_beta   90.00000000
_cell_angle_gamma   90.00000000
_symmetry_Int_Tables_number   1
_chemical_formula_structural   Ba2Na2SrAs4
_chemical_formula_sum   'Ba8 Na8 Sr4 As16'
_cell_volume   1054.39890056
_cell_formula_units_Z   4
loop_
 _symmetry_equiv_pos_site_id
 _symmetry_equiv_pos_as_xyz
  1  'x, y, z'
loop_
 _atom_site_type_symbol
 _atom_site_label
 _atom_site_symmetry_multiplicity
 _atom_site_fract_x
 _atom_site_fract_y
 _atom_site_fract_z
 _atom_site_occupancy
  Ba  Ba0  1  0.52331874  0.58747197  0.10001784  1
  Ba  Ba1  1  0.02331874  0.41252803  0.39998216  1
  Ba  Ba2  1  0.47716345  0.71566602  0.60058376  1
  Ba  Ba3  1  0.97716345  0.28433398  0.89941624  1
  Ba  Ba4  1  0.47668126  0.41252803  0.89998216  1
  Ba  Ba5  1  0.97668126  0.58747197  0.60001784  1
  Ba  Ba6  1  0.52283655  0.28433398  0.39941624  1
  Ba  Ba7  1  0.02283655  0.71566602  0.10058376  1
  Na  Na0  1  0.85417833  0.25244815  0.25035888  1
  Na  Na1  1  0.35417833  0.74755185  0.24964112  1
  Na  Na2  1  0.14582167  0.74755185  0.74964112  1
  Na  Na3  1  0.64582167  0.25244815  0.75035888  1
  Na  Na4  1  0.67960965  0.04870660  0.12284190  1
  Na  Na5  1  0.17960965  0.95129340  0.37715810  1
  Na  Na6  1  0.32039035  0.95129340  0.87715810  1
  Na  Na7  1  0.82039035  0.04870660  0.62284190  1
  Sr  Sr0  1  0.32295069  0.18959389  0.62753772  1
  Sr  Sr1  1  0.82295069  0.81040611  0.87246228  1
  Sr  Sr2  1  0.67704931  0.81040611  0.37246228  1
  Sr  Sr3  1  0.17704931  0.18959389  0.12753772  1
  As  As0  1  0.85739336  0.43194930  0.03531584  1
  As  As1  1  0.35739336  0.56805070  0.46468416  1
  As  As2  1  0.14118270  0.99754695  0.53617502  1
  As  As3  1  0.64118270  0.00245305  0.96382498  1
  As  As4  1  0.14260664  0.56805070  0.96468416  1
  As  As5  1  0.64260664  0.43194930  0.53531584  1
  As  As6  1  0.85881730  0.00245305  0.46382498  1
  As  As7  1  0.35881730  0.99754695  0.03617502  1
  As  As8  1  0.73714019  0.63786674  0.25103091  1
  As  As9  1  0.23714019  0.36213326  0.24896909  1
  As  As10  1  0.26285981  0.36213326  0.74896909  1
  As  As11  1  0.76285981  0.63786674  0.75103091  1
  As  As12  1  0.97327455  0.84633528  0.24945278  1
  As  As13  1  0.47327455  0.15366472  0.25054722  1
  As  As14  1  0.02672545  0.15366472  0.75054722  1
  As  As15  1  0.52672545  0.84633528  0.74945278  1
loop_
_geom_bond_atom_site_label_1
_geom_bond_atom_site_label_2
_geom_bond_distance
_geom_bond_site_symmetry_2
As0 As4 2.542434 1_654
As0 Sr3 3.149793 1_655
As0 Na4 3.179144 1_555
As0 Sr1 3.205564 1_554
As0 Ba0 3.351501 1_555
As0 Ba3 3.381966 1_554
As0 Ba7 3.384537 1_655
As0 Na0 3.486009 1_555
As0 Ba4 3.893724 1_554
As1 As5 2.542434 1_555
As1 Sr2 3.149793 1_555
As1 Na5 3.179144 1_555
As1 Sr0 3.205564 1_555
As1 Ba1 3.351501 1_555
As1 Ba2 3.381966 1_555
As1 Ba6 3.384537 1_555
As1 Na1 3.486009 1_555
As1 Ba5 3.893724 1_455
As2 As6 2.541140 1_465
As2 Na7 3.077717 1_465
As2 Na5 3.116452 1_555
As2 Sr0 3.146786 1_565
As2 Ba1 3.344177 1_565
As2 Ba2 3.345373 1_555
As2 Ba5 3.349302 1_455
As2 Na2 3.459782 1_555
As2 Ba6 3.894959 1_565
As3 As7 2.541140 1_546
As3 Na6 3.077717 1_545
As3 Na4 3.116452 1_556
As3 Sr1 3.146786 1_545
As3 Ba0 3.344177 1_546
As3 Ba3 3.345373 1_555
As3 Ba4 3.349302 1_555
As3 Na3 3.459782 1_555
As3 Ba7 3.894959 1_646
As4 Sr1 3.149793 1_455
As4 Na6 3.179144 1_555
As4 Sr3 3.205564 1_556
As4 Ba4 3.351501 1_555
As4 Ba7 3.381966 1_556
As4 Ba3 3.384537 1_455
As4 Na2 3.486009 1_555
As4 Ba0 3.893724 1_556
As5 Sr0 3.149793 1_555
As5 Na7 3.179144 1_555
As5 Sr2 3.205564 1_555
As5 Ba5 3.351501 1_555
As5 Ba6 3.381966 1_555
As5 Ba2 3.384537 1_555
As5 Na3 3.486009 1_555
As5 Ba1 3.893724 1_655
As6 Na5 3.077717 1_645
As6 Na7 3.116452 1_555
As6 Sr2 3.146786 1_545
As6 Ba5 3.344177 1_545
As6 Ba6 3.345373 1_555
As6 Ba1 3.349302 1_655
As6 Na0 3.459782 1_555
As6 Ba2 3.894959 1_545
As7 Na4 3.077717 1_565
As7 Na6 3.116452 1_554
As7 Sr3 3.146786 1_565
As7 Ba4 3.344177 1_564
As7 Ba7 3.345373 1_555
As7 Ba0 3.349302 1_555
As7 Na1 3.459782 1_555
As7 Ba3 3.894959 1_464
As8 Na1 3.098591 1_555
As8 Na4 3.186784 1_565
As8 Sr2 3.202249 1_555
As8 Ba1 3.329525 1_655
As8 Ba7 3.341141 1_655
As8 Na0 3.384812 1_555
As8 Ba6 3.385970 1_555
As8 Ba0 3.405200 1_555
As9 Na0 3.098591 1_455
As9 Na5 3.186784 1_545
As9 Sr3 3.202249 1_555
As9 Ba0 3.329525 1_555
As9 Ba6 3.341141 1_555
As9 Na1 3.384812 1_555
As9 Ba7 3.385970 1_555
As9 Ba1 3.405200 1_555
As10 As14 2.527269 1_555
As10 Na3 3.098591 1_555
As10 Na6 3.186784 1_545
As10 Sr0 3.202249 1_555
As10 Ba5 3.329525 1_455
As10 Ba3 3.341141 1_455
As10 Na2 3.384812 1_555
As10 Ba2 3.385970 1_555
As10 Ba4 3.405200 1_555
As11 As15 2.527269 1_555
As11 Na2 3.098591 1_655
As11 Na7 3.186784 1_565
As11 Sr1 3.202249 1_555
As11 Ba4 3.329525 1_555
As11 Ba2 3.341141 1_555
As11 Na3 3.384812 1_555
As11 Ba3 3.385970 1_555
As11 Ba5 3.405200 1_555
As12 As8 2.527269 1_555
As12 Na1 3.060017 1_655
As12 Na4 3.120060 1_565
As12 Sr2 3.120524 1_555
As12 Sr3 3.135610 1_665
As12 Na5 3.268260 1_655
As12 Ba7 3.395978 1_655
As12 Ba1 3.428003 1_655
As12 Na0 3.559596 1_565
As13 As9 2.527269 1_555
As13 Na0 3.060017 1_555
As13 Na5 3.120060 1_545
As13 Sr3 3.120524 1_555
As13 Sr2 3.135610 1_545
As13 Na4 3.268260 1_555
As13 Ba6 3.395978 1_555
As13 Ba0 3.428003 1_555
As13 Na1 3.559596 1_545
As14 Na3 3.060017 1_455
As14 Na6 3.120060 1_545
As14 Sr0 3.120524 1_555
As14 Sr1 3.135610 1_445
As14 Na7 3.268260 1_455
As14 Ba3 3.395978 1_455
As14 Ba5 3.428003 1_455
As14 Na2 3.559596 1_545
As15 Na2 3.060017 1_555
As15 Na7 3.120060 1_565
As15 Sr1 3.120524 1_555
As15 Sr0 3.135610 1_565
As15 Na6 3.268260 1_555
As15 Ba2 3.395978 1_555
As15 Ba4 3.428003 1_555
As15 Na3 3.559596 1_565
