# generated using pymatgen
data_Nb5Tc(PbS6)2
_symmetry_space_group_name_H-M   'P 1'
_cell_length_a   5.78005196
_cell_length_b   5.78005244
_cell_length_c   15.37945129
_cell_angle_alpha   90.00000000
_cell_angle_beta   90.00000000
_cell_angle_gamma   119.99999727
_symmetry_Int_Tables_number   1
_chemical_formula_structural   Nb5Tc(PbS6)2
_chemical_formula_sum   'Nb5 Tc1 Pb2 S12'
_cell_volume   444.97437927
_cell_formula_units_Z   1
loop_
 _symmetry_equiv_pos_site_id
 _symmetry_equiv_pos_as_xyz
  1  'x, y, z'
loop_
 _atom_site_type_symbol
 _atom_site_label
 _atom_site_symmetry_multiplicity
 _atom_site_fract_x
 _atom_site_fract_y
 _atom_site_fract_z
 _atom_site_occupancy
  Nb  Nb0  1  0.00000000  0.00000000  0.25000000  1
  Nb  Nb1  1  0.33333300  0.66666700  0.25000000  1
  Nb  Nb2  1  0.66666700  0.33333300  0.75000000  1
  Nb  Nb3  1  0.66666700  0.33333300  0.25000000  1
  Nb  Nb4  1  0.33333300  0.66666700  0.75000000  1
  Tc  Tc0  1  0.00000000  0.00000000  0.75000000  1
  Pb  Pb0  1  0.00000000  0.00000000  0.02136272  1
  Pb  Pb1  1  0.00000000  0.00000000  0.47863728  1
  S  S0  1  0.34021871  0.00000000  0.14683172  1
  S  S1  1  0.00000000  0.34021871  0.14683172  1
  S  S2  1  0.65978129  0.65978129  0.14683172  1
  S  S3  1  0.32494516  0.32494516  0.65047707  1
  S  S4  1  0.65978129  0.65978129  0.35316828  1
  S  S5  1  0.67505484  0.00000000  0.65047707  1
  S  S6  1  0.00000000  0.67505484  0.65047707  1
  S  S7  1  0.00000000  0.67505484  0.84952293  1
  S  S8  1  0.32494516  0.32494516  0.84952293  1
  S  S9  1  0.00000000  0.34021871  0.35316828  1
  S  S10  1  0.34021871  0.00000000  0.35316828  1
  S  S11  1  0.67505484  0.00000000  0.84952293  1
loop_
_geom_bond_atom_site_label_1
_geom_bond_atom_site_label_2
_geom_bond_distance
_geom_bond_site_symmetry_2
Nb0 S10 2.526772 1_555
Nb0 S0 2.526772 1_555
Nb0 S9 2.526772 1_555
Nb0 S4 2.526772 1_445
Nb0 S1 2.526772 1_555
Nb0 S2 2.526772 1_445
Nb1 S10 2.480833 1_565
Nb1 S0 2.480833 1_565
Nb1 S9 2.480835 1_555
Nb1 S1 2.480835 1_555
Nb1 S4 2.480838 1_555
Nb1 S2 2.480838 1_555
Nb2 S11 2.480045 1_555
Nb2 S5 2.480045 1_555
Nb2 S7 2.480048 1_655
Nb2 S6 2.480048 1_655
Nb2 S8 2.480050 1_555
Nb2 S3 2.480050 1_555
Nb3 S9 2.480833 1_655
Nb3 S1 2.480833 1_655
Nb3 S10 2.480835 1_555
Nb3 S0 2.480835 1_555
Nb3 S4 2.480838 1_555
Nb3 S2 2.480838 1_555
Nb4 S7 2.480045 1_555
Nb4 S6 2.480045 1_555
Nb4 S11 2.480048 1_565
Nb4 S5 2.480048 1_565
Nb4 S8 2.480050 1_555
Nb4 S3 2.480050 1_555
Pb0 S0 2.755100 1_555
Pb0 S1 2.755101 1_555
Pb0 S2 2.755101 1_445
Pb1 S10 2.755100 1_555
Pb1 S9 2.755101 1_555
Pb1 S4 2.755101 1_445
S3 Tc0 2.422890 1_555
S5 Tc0 2.422890 1_655
S6 Tc0 2.422890 1_565
S7 Tc0 2.422890 1_565
S8 Tc0 2.422890 1_555
S11 Tc0 2.422890 1_655
