# generated using pymatgen
data_Ti2Mn2GaC3
_symmetry_space_group_name_H-M   'P 1'
_cell_length_a   2.98105019
_cell_length_b   2.98104999
_cell_length_c   22.26542593
_cell_angle_alpha   90.00000000
_cell_angle_beta   90.00000000
_cell_angle_gamma   119.99999113
_symmetry_Int_Tables_number   1
_chemical_formula_structural   Ti2Mn2GaC3
_chemical_formula_sum   'Ti4 Mn4 Ga2 C6'
_cell_volume   171.35635847
_cell_formula_units_Z   2
loop_
 _symmetry_equiv_pos_site_id
 _symmetry_equiv_pos_as_xyz
  1  'x, y, z'
loop_
 _atom_site_type_symbol
 _atom_site_label
 _atom_site_symmetry_multiplicity
 _atom_site_fract_x
 _atom_site_fract_y
 _atom_site_fract_z
 _atom_site_occupancy
  Ti  Ti0  1  0.33333300  0.66666700  0.44385626  1
  Ti  Ti1  1  0.66666700  0.33333300  0.55614374  1
  Ti  Ti2  1  0.66666700  0.33333300  0.94385626  1
  Ti  Ti3  1  0.33333300  0.66666700  0.05614374  1
  Mn  Mn0  1  0.00000000  0.00000000  0.34065502  1
  Mn  Mn1  1  0.00000000  0.00000000  0.65934498  1
  Mn  Mn2  1  0.00000000  0.00000000  0.84065502  1
  Mn  Mn3  1  0.00000000  0.00000000  0.15934498  1
  Ga  Ga0  1  0.33333300  0.66666700  0.25000000  1
  Ga  Ga1  1  0.66666700  0.33333300  0.75000000  1
  C  C0  1  0.00000000  0.00000000  0.50000000  1
  C  C1  1  0.00000000  0.00000000  0.00000000  1
  C  C2  1  0.66666700  0.33333300  0.38290957  1
  C  C3  1  0.33333300  0.66666700  0.61709043  1
  C  C4  1  0.33333300  0.66666700  0.88290957  1
  C  C5  1  0.66666700  0.33333300  0.11709043  1
loop_
_geom_bond_atom_site_label_1
_geom_bond_atom_site_label_2
_geom_bond_distance
_geom_bond_site_symmetry_2
Ga0 Mn0 2.652630 1_565
Ga0 Mn3 2.652630 1_565
Ga0 Mn0 2.652632 1_555
Ga0 Mn3 2.652632 1_555
Ga0 Mn0 2.652632 1_665
Ga0 Mn3 2.652632 1_665
Ga1 Mn2 2.652630 1_655
Ga1 Mn1 2.652630 1_655
Ga1 Mn2 2.652632 1_665
Ga1 Mn1 2.652632 1_665
Ga1 Mn2 2.652632 1_555
Ga1 Mn1 2.652632 1_555
C0 Ti1 2.127175 1_455
C0 Ti0 2.127175 1_545
C0 Ti1 2.127178 1_445
C0 Ti0 2.127178 1_555
C0 Ti1 2.127178 1_555
C0 Ti0 2.127178 1_445
C1 Ti3 2.127175 1_545
C1 Ti2 2.127175 1_454
C1 Ti3 2.127178 1_555
C1 Ti2 2.127178 1_444
C1 Ti3 2.127178 1_445
C1 Ti2 2.127178 1_554
C2 Mn0 1.961466 1_655
C2 Mn0 1.961468 1_665
C2 Mn0 1.961468 1_555
C2 Ti0 2.191729 1_545
C2 Ti0 2.191729 1_655
C2 Ti0 2.191733 1_555
C3 Mn1 1.961466 1_565
C3 Mn1 1.961468 1_555
C3 Mn1 1.961468 1_665
C3 Ti1 2.191729 1_565
C3 Ti1 2.191729 1_455
C3 Ti1 2.191733 1_555
C4 Mn2 1.961466 1_565
C4 Mn2 1.961468 1_555
C4 Mn2 1.961468 1_665
C4 Ti2 2.191729 1_565
C4 Ti2 2.191729 1_455
C4 Ti2 2.191733 1_555
C5 Mn3 1.961466 1_655
C5 Mn3 1.961468 1_665
C5 Mn3 1.961468 1_555
C5 Ti3 2.191729 1_545
C5 Ti3 2.191729 1_655
C5 Ti3 2.191733 1_555
