# generated using pymatgen
data_MgAs2F12
_symmetry_space_group_name_H-M   'P 1'
_cell_length_a   5.18715103
_cell_length_b   10.46541859
_cell_length_c   5.20486878
_cell_angle_alpha   56.08527514
_cell_angle_beta   56.06274770
_cell_angle_gamma   56.48728425
_symmetry_Int_Tables_number   1
_chemical_formula_structural   MgAs2F12
_chemical_formula_sum   'Mg1 As2 F12'
_cell_volume   182.26850763
_cell_formula_units_Z   1
loop_
 _symmetry_equiv_pos_site_id
 _symmetry_equiv_pos_as_xyz
  1  'x, y, z'
loop_
 _atom_site_type_symbol
 _atom_site_label
 _atom_site_symmetry_multiplicity
 _atom_site_fract_x
 _atom_site_fract_y
 _atom_site_fract_z
 _atom_site_occupancy
  Mg  Mg0  1  0.00000000  0.50000000  0.00000000  1
  As  As0  1  0.49058783  0.24244034  0.51875155  1
  As  As1  1  0.50941217  0.75755966  0.48124845  1
  F  F0  1  0.12531238  0.20907005  0.72557518  1
  F  F1  1  0.16275707  0.68869245  0.72665816  1
  F  F2  1  0.38338788  0.37098526  0.15218049  1
  F  F3  1  0.40920846  0.85674555  0.13935780  1
  F  F4  1  0.71898176  0.08076938  0.39200229  1
  F  F5  1  0.73044711  0.57096827  0.39066407  1
  F  F6  1  0.26955289  0.42903173  0.60933593  1
  F  F7  1  0.28101824  0.91923062  0.60799771  1
  F  F8  1  0.59079154  0.14325445  0.86064220  1
  F  F9  1  0.61661212  0.62901474  0.84781951  1
  F  F10  1  0.83724293  0.31130755  0.27334184  1
  F  F11  1  0.87468762  0.79092995  0.27442482  1
loop_
_geom_bond_atom_site_label_1
_geom_bond_atom_site_label_2
_geom_bond_distance
_geom_bond_site_symmetry_2
As0 F4 1.691435 1_555
As0 F8 1.699988 1_555
As0 F0 1.704277 1_555
As0 F10 1.795424 1_555
As0 F2 1.803770 1_555
As0 F6 1.817037 1_555
As1 F7 1.691435 1_555
As1 F3 1.699988 1_555
As1 F11 1.704277 1_555
As1 F1 1.795424 1_555
As1 F9 1.803770 1_555
As1 F5 1.817037 1_555
F1 Mg0 2.000287 1_556
F2 Mg0 2.001417 1_555
F5 Mg0 2.001302 1_655
F6 Mg0 2.001302 1_556
F9 Mg0 2.001417 1_656
F10 Mg0 2.000287 1_655
