# generated using pymatgen
data_Ta8TiVSi6
_symmetry_space_group_name_H-M   'P 1'
_cell_length_a   7.49176421
_cell_length_b   7.49176429
_cell_length_c   7.49176397
_cell_angle_alpha   129.14957139
_cell_angle_beta   129.14956486
_cell_angle_gamma   74.77002932
_symmetry_Int_Tables_number   1
_chemical_formula_structural   Ta8TiVSi6
_chemical_formula_sum   'Ta8 Ti1 V1 Si6'
_cell_volume   246.33956322
_cell_formula_units_Z   1
loop_
 _symmetry_equiv_pos_site_id
 _symmetry_equiv_pos_as_xyz
  1  'x, y, z'
loop_
 _atom_site_type_symbol
 _atom_site_label
 _atom_site_symmetry_multiplicity
 _atom_site_fract_x
 _atom_site_fract_y
 _atom_site_fract_z
 _atom_site_occupancy
  Ta  Ta0  1  0.01530708  0.51713453  0.83122293  1
  Ta  Ta1  1  0.68591159  0.18408414  0.16877707  1
  Ta  Ta2  1  0.51713453  0.68591159  0.50182645  1
  Ta  Ta3  1  0.18408414  0.01530708  0.49817355  1
  Ta  Ta4  1  0.98469292  0.48286547  0.16877707  1
  Ta  Ta5  1  0.31408841  0.81591586  0.83122293  1
  Ta  Ta6  1  0.48286547  0.31408841  0.49817355  1
  Ta  Ta7  1  0.81591586  0.98469292  0.50182645  1
  Ti  Ti0  1  0.50000000  0.50000000  0.00000000  1
  V  V0  1  0.00000000  0.00000000  0.00000000  1
  Si  Si0  1  0.74859270  0.74859270  0.00000000  1
  Si  Si1  1  0.25140730  0.25140730  1.00000000  1
  Si  Si2  1  0.63372468  0.12998564  0.76370931  1
  Si  Si3  1  0.36627532  0.87001436  0.23629069  1
  Si  Si4  1  0.12998564  0.36627532  0.49626096  1
  Si  Si5  1  0.87001436  0.63372468  0.50373904  1
loop_
_geom_bond_atom_site_label_1
_geom_bond_atom_site_label_2
_geom_bond_distance
_geom_bond_site_symmetry_2
Si0 Ta7 2.682338 1_555
Si0 Ta6 2.682343 1_554
Si0 Ta4 2.682344 1_555
Si0 Ta5 2.682344 1_554
Si0 Ta0 2.683211 1_654
Si0 Ta1 2.683211 1_565
Si0 Ta3 2.683212 1_665
Si0 Ta2 2.683218 1_554
Si0 Ti0 2.959624 1_555
Si0 V0 2.993133 1_665
Si1 Ta3 2.682338 1_555
Si1 Ta2 2.682343 1_556
Si1 Ta0 2.682344 1_555
Si1 Ta1 2.682344 1_556
Si1 Ta4 2.683211 1_456
Si1 Ta5 2.683211 1_545
Si1 Ta7 2.683212 1_445
Si1 Ta6 2.683218 1_556
Si1 Ti0 2.959624 1_556
Si1 V0 2.993133 1_556
Si2 Si3 2.399342 1_545
Si2 V0 2.500197 1_656
Si2 Ti0 2.530952 1_556
Si2 Ta4 2.560935 1_556
Si2 Ta1 2.560943 1_556
Si2 Ta7 2.607954 1_545
Si2 Ta2 2.607954 1_545
Si2 Ta6 2.635099 1_555
Si2 Ta3 2.635115 1_555
Si3 V0 2.500197 1_565
Si3 Ti0 2.530952 1_555
Si3 Ta0 2.560935 1_554
Si3 Ta5 2.560943 1_554
Si3 Ta3 2.607954 1_565
Si3 Ta6 2.607954 1_565
Si3 Ta2 2.635099 1_555
Si3 Ta7 2.635115 1_555
Si4 Si5 2.399351 1_455
Si4 V0 2.500195 1_555
Si4 Ti0 2.530950 1_556
Si4 Ta6 2.560932 1_555
Si4 Ta3 2.560940 1_555
Si4 Ta4 2.607954 1_455
Si4 Ta1 2.607954 1_455
Si4 Ta0 2.635111 1_555
Si4 Ta5 2.635111 1_555
Si5 V0 2.500195 1_666
Si5 Ti0 2.530950 1_555
Si5 Ta2 2.560932 1_555
Si5 Ta7 2.560940 1_555
Si5 Ta0 2.607954 1_655
Si5 Ta5 2.607954 1_655
Si5 Ta4 2.635111 1_555
Si5 Ta1 2.635111 1_555
