# generated using pymatgen
data_Ba8Sb5As3Se20
_symmetry_space_group_name_H-M   'P 1'
_cell_length_a   10.51648268
_cell_length_b   12.70340618
_cell_length_c   9.62828025
_cell_angle_alpha   90.32251335
_cell_angle_beta   117.98205573
_cell_angle_gamma   89.75954817
_symmetry_Int_Tables_number   1
_chemical_formula_structural   Ba8Sb5As3Se20
_chemical_formula_sum   'Ba8 Sb5 As3 Se20'
_cell_volume   1135.89734447
_cell_formula_units_Z   1
loop_
 _symmetry_equiv_pos_site_id
 _symmetry_equiv_pos_as_xyz
  1  'x, y, z'
loop_
 _atom_site_type_symbol
 _atom_site_label
 _atom_site_symmetry_multiplicity
 _atom_site_fract_x
 _atom_site_fract_y
 _atom_site_fract_z
 _atom_site_occupancy
  Ba  Ba0  1  0.84392840  0.28101070  0.42032740  1
  Ba  Ba1  1  0.15598510  0.78058051  0.58000508  1
  Ba  Ba2  1  0.35056695  0.43309733  0.67864178  1
  Ba  Ba3  1  0.65174155  0.93198998  0.31899964  1
  Ba  Ba4  1  0.85912600  0.27329313  0.93610343  1
  Ba  Ba5  1  0.14722370  0.77416854  0.06770885  1
  Ba  Ba6  1  0.35516275  0.43623953  0.16765969  1
  Ba  Ba7  1  0.65101243  0.93239621  0.82879473  1
  Sb  Sb0  1  0.23282300  0.11058254  0.47437682  1
  Sb  Sb1  1  0.75365470  0.61779872  0.52660720  1
  Sb  Sb2  1  0.74452383  0.58888126  0.11977930  1
  Sb  Sb3  1  0.25760702  0.08850986  0.88566612  1
  Sb  Sb4  1  0.50696866  0.19857253  0.47213955  1
  As  As0  1  0.48459246  0.70141946  0.52668907  1
  As  As1  1  0.98233344  0.00774792  0.20569499  1
  As  As2  1  0.01478587  0.50881007  0.79537945  1
  Se  Se0  1  0.63240296  0.40436231  0.05431143  1
  Se  Se1  1  0.36949896  0.90357613  0.94488296  1
  Se  Se2  1  0.76283417  0.10136308  0.13217188  1
  Se  Se3  1  0.23408052  0.60184325  0.86381146  1
  Se  Se4  1  0.60912482  0.38766347  0.55563924  1
  Se  Se5  1  0.39506216  0.88019529  0.44820988  1
  Se  Se6  1  0.93624975  0.54912539  0.42022453  1
  Se  Se7  1  0.05655832  0.04636052  0.58346792  1
  Se  Se8  1  0.42705522  0.16790374  0.77042259  1
  Se  Se9  1  0.56853421  0.66950957  0.22745550  1
  Se  Se10  1  0.09985864  0.33158818  0.80185400  1
  Se  Se11  1  0.90019437  0.82981487  0.19654178  1
  Se  Se12  1  0.86622580  0.79585457  0.65481806  1
  Se  Se13  1  0.12988958  0.29191001  0.34637891  1
  Se  Se14  1  0.48924931  0.18972019  0.19893396  1
  Se  Se15  1  0.51161784  0.68866307  0.78472669  1
  Se  Se16  1  0.99824462  0.51778452  0.03325054  1
  Se  Se17  1  0.00998978  0.01767393  0.97584466  1
  Se  Se18  1  0.26793774  0.60713307  0.37846964  1
  Se  Se19  1  0.74335137  0.10225652  0.62400828  1
loop_
_geom_bond_atom_site_label_1
_geom_bond_atom_site_label_2
_geom_bond_distance
_geom_bond_site_symmetry_2
Ba0 Se2 3.370119 1_555
Ba0 Se13 3.403509 1_655
Ba0 Se10 3.444004 1_655
Ba0 Se19 3.483952 1_555
Ba0 Se14 3.514098 1_555
Ba0 Se0 3.535489 1_555
Ba0 Se6 3.545697 1_555
Ba0 Se4 3.549839 1_555
Ba0 Se7 3.613002 1_655
Ba1 Se3 3.353382 1_555
Ba1 Se12 3.448979 1_455
Ba1 Se11 3.457008 1_455
Ba1 Se18 3.475661 1_555
Ba1 Se15 3.508253 1_555
Ba1 Se1 3.520024 1_555
Ba1 Se7 3.534930 1_565
Ba1 Se5 3.545670 1_555
Ba1 Se6 3.608599 1_455
Ba2 Se3 3.355438 1_555
Ba2 Se18 3.419790 1_555
Ba2 Se13 3.441003 1_555
Ba2 Se0 3.456411 1_556
Ba2 Se8 3.481510 1_555
Ba2 Se4 3.482857 1_555
Ba2 Se15 3.582937 1_555
Ba2 Se10 3.605908 1_555
Ba3 Se2 3.356627 1_565
Ba3 Se19 3.394388 1_565
Ba3 Se12 3.423374 1_555
Ba3 Se1 3.446294 1_554
Ba3 Se9 3.453756 1_555
Ba3 Se5 3.527412 1_555
Ba3 Se11 3.570308 1_555
Ba3 Se14 3.621858 1_565
Ba4 Se2 3.349392 1_556
Ba4 Se16 3.373886 1_556
Ba4 Se10 3.424297 1_655
Ba4 Se19 3.427590 1_555
Ba4 Se0 3.499221 1_556
Ba4 Se17 3.550940 1_655
Ba4 Se13 3.634339 1_656
Ba4 Se4 3.665042 1_555
Ba5 Se3 3.331403 1_554
Ba5 Se17 3.351040 1_564
Ba5 Se18 3.398708 1_555
Ba5 Se11 3.433084 1_455
Ba5 Se1 3.494766 1_554
Ba5 Se16 3.565859 1_455
Ba5 Se5 3.611464 1_555
Ba5 Se12 3.687011 1_454
Ba6 Se3 3.340202 1_554
Ba6 Se18 3.369727 1_555
Ba6 Se14 3.385461 1_555
Ba6 Se4 3.481133 1_555
Ba6 Se16 3.501568 1_455
Ba6 Se10 3.533347 1_554
Ba6 Se0 3.581439 1_555
Ba6 Se9 3.601698 1_555
Ba6 Se13 3.979023 1_555
Ba7 Se2 3.354048 1_566
Ba7 Se19 3.368846 1_565
Ba7 Se15 3.369770 1_555
Ba7 Se5 3.441591 1_555
Ba7 Se11 3.524006 1_556
Ba7 Se17 3.525830 1_665
Ba7 Se1 3.642391 1_555
Ba7 Se8 3.678482 1_565
Ba7 Se12 3.798559 1_555
Sb0 Se13 2.599186 1_555
Sb0 Se7 2.656014 1_555
Sb0 Se8 2.711629 1_555
Sb1 Se12 2.580951 1_555
Sb1 Se9 2.695632 1_555
Sb1 Se6 2.705399 1_555
Sb2 Se0 2.567330 1_555
Sb2 Se6 2.687598 1_555
Sb2 Se9 2.705929 1_555
Sb2 Se15 3.258563 1_554
Sb2 Se16 3.269051 1_555
Sb3 Se1 2.567330 1_545
Sb3 Se8 2.703166 1_555
Sb3 Se7 2.728033 1_555
Sb3 Se14 3.126133 1_556
Sb3 Se17 3.239590 1_555
Sb4 Se19 2.529531 1_555
Sb4 Se14 2.550248 1_555
Sb4 Se4 2.600004 1_555
As0 Se18 2.369594 1_555
As0 Se15 2.370887 1_555
As0 Se5 2.439046 1_555
As1 Se17 2.367614 1_654
As1 Se2 2.386827 1_555
As1 Se11 2.409535 1_545
As2 Se16 2.378958 1_456
As2 Se3 2.395344 1_555
As2 Se10 2.409378 1_555
