# generated using pymatgen
data_Hf6Ti3Al13Ir7
_symmetry_space_group_name_H-M   'P 1'
_cell_length_a   8.69567078
_cell_length_b   8.69567011
_cell_length_c   8.69567149
_cell_angle_alpha   59.89709785
_cell_angle_beta   59.89710842
_cell_angle_gamma   59.89710816
_symmetry_Int_Tables_number   1
_chemical_formula_structural   Hf6Ti3Al13Ir7
_chemical_formula_sum   'Hf6 Ti3 Al13 Ir7'
_cell_volume   463.85182523
_cell_formula_units_Z   1
loop_
 _symmetry_equiv_pos_site_id
 _symmetry_equiv_pos_as_xyz
  1  'x, y, z'
loop_
 _atom_site_type_symbol
 _atom_site_label
 _atom_site_symmetry_multiplicity
 _atom_site_fract_x
 _atom_site_fract_y
 _atom_site_fract_z
 _atom_site_occupancy
  Hf  Hf0  1  0.68865642  0.68865642  0.30922092  1
  Hf  Hf1  1  0.31393148  0.68387407  0.31393148  1
  Hf  Hf2  1  0.68387407  0.31393148  0.31393148  1
  Hf  Hf3  1  0.31393148  0.31393148  0.68387407  1
  Hf  Hf4  1  0.68865642  0.30922092  0.68865642  1
  Hf  Hf5  1  0.30922092  0.68865642  0.68865642  1
  Ti  Ti0  1  0.87943669  0.87943669  0.36028888  1
  Ti  Ti1  1  0.87943669  0.36028888  0.87943669  1
  Ti  Ti2  1  0.36028888  0.87943669  0.87943669  1
  Al  Al0  1  0.88146285  0.88146285  0.88146285  1
  Al  Al1  1  0.11925736  0.11925736  0.64033466  1
  Al  Al2  1  0.11925736  0.64033466  0.11925736  1
  Al  Al3  1  0.64033466  0.11925736  0.11925736  1
  Al  Al4  1  0.12104392  0.12104392  0.12104392  1
  Al  Al5  1  0.66489190  0.66489190  0.00974121  1
  Al  Al6  1  0.66489190  0.00974121  0.66489190  1
  Al  Al7  1  0.00974121  0.66489190  0.66489190  1
  Al  Al8  1  0.66110687  0.66110687  0.66110687  1
  Al  Al9  1  0.33642771  0.33642771  0.99154093  1
  Al  Al10  1  0.33642771  0.99154093  0.33642771  1
  Al  Al11  1  0.99154093  0.33642771  0.33642771  1
  Al  Al12  1  0.33568221  0.33568221  0.33568221  1
  Ir  Ir0  1  0.00179730  0.00179730  0.00179730  1
  Ir  Ir1  1  0.99903509  0.99903509  0.49825500  1
  Ir  Ir2  1  0.50209796  0.99817894  0.50209796  1
  Ir  Ir3  1  0.99817894  0.50209796  0.50209796  1
  Ir  Ir4  1  0.50209796  0.50209796  0.99817894  1
  Ir  Ir5  1  0.99903509  0.49825500  0.99903509  1
  Ir  Ir6  1  0.49825500  0.99903509  0.99903509  1
loop_
_geom_bond_atom_site_label_1
_geom_bond_atom_site_label_2
_geom_bond_distance
_geom_bond_site_symmetry_2
Hf0 Ti0 3.152807 1_555
Hf0 Ir6 3.161587 1_554
Hf0 Ir5 3.161587 1_554
Hf0 Ir3 3.179298 1_555
Hf0 Ir2 3.179299 1_555
Hf0 Hf2 3.259058 1_555
Hf0 Hf1 3.259058 1_555
Hf0 Hf4 3.294313 1_555
Hf0 Hf5 3.294314 1_555
Hf1 Ir3 3.157071 1_455
Hf1 Ir4 3.157071 1_554
Hf1 Ti2 3.169255 1_554
Hf1 Ti0 3.169255 1_455
Hf1 Ir6 3.170746 1_554
Hf1 Ir1 3.170746 1_455
Hf1 Hf3 3.211894 1_555
Hf1 Hf2 3.211895 1_555
Hf1 Hf5 3.259059 1_555
Hf2 Ir2 3.157071 1_545
Hf2 Ir4 3.157071 1_554
Hf2 Ti0 3.169255 1_545
Hf2 Ti1 3.169255 1_554
Hf2 Ir5 3.170746 1_554
Hf2 Ir1 3.170746 1_545
Hf2 Hf3 3.211895 1_555
Hf2 Hf4 3.259059 1_555
Hf3 Ir3 3.157071 1_455
Hf3 Ir2 3.157071 1_545
Hf3 Ti2 3.169254 1_545
Hf3 Ti1 3.169255 1_455
Hf3 Ir6 3.170746 1_545
Hf3 Ir5 3.170746 1_455
Hf3 Hf5 3.259058 1_555
Hf3 Hf4 3.259058 1_555
Hf4 Ti1 3.152808 1_555
Hf4 Ir6 3.161587 1_545
Hf4 Ir1 3.161587 1_545
Hf4 Ir3 3.179298 1_555
Hf4 Ir4 3.179299 1_555
Hf4 Hf5 3.294313 1_555
Hf5 Ti2 3.152808 1_555
Hf5 Ir5 3.161587 1_455
Hf5 Ir1 3.161587 1_455
Hf5 Ir2 3.179298 1_555
Hf5 Ir4 3.179298 1_555
Al0 Ir0 2.565110 1_666
Al0 Ir5 2.721780 1_555
Al0 Ir1 2.721781 1_555
Al0 Ir6 2.721781 1_555
Al0 Al5 2.771377 1_556
Al0 Al6 2.771377 1_565
Al0 Al7 2.771378 1_655
Al0 Al1 2.922092 1_665
Al0 Al2 2.922093 1_656
Al0 Al3 2.922093 1_566
Al0 Hf4 3.125046 1_565
Al0 Hf0 3.125046 1_556
Al0 Hf5 3.125047 1_655
Al1 Ir0 2.563526 1_556
Al1 Ir3 2.715790 1_455
Al1 Ir2 2.715791 1_545
Al1 Ir1 2.720234 1_445
Al1 Al11 2.759985 1_455
Al1 Al10 2.759986 1_545
Al1 Al12 2.766251 1_555
Al1 Ti2 2.949952 1_545
Al1 Ti1 2.949952 1_455
Al1 Hf5 3.136731 1_545
Al1 Hf4 3.136732 1_455
Al1 Hf3 3.167806 1_555
Al2 Ir0 2.563526 1_565
Al2 Ir3 2.715791 1_455
Al2 Ir4 2.715791 1_554
Al2 Ir5 2.720234 1_454
Al2 Al9 2.759985 1_554
Al2 Ti2 2.949951 1_554
Al2 Ti0 2.949952 1_455
Al2 Hf0 3.136732 1_455
Al2 Hf5 3.136732 1_554
Al2 Hf1 3.167806 1_555
Al3 Ir0 2.563526 1_655
Al3 Ir4 2.715790 1_554
Al3 Ir2 2.715791 1_545
Al3 Ir6 2.720234 1_544
Al3 Al9 2.759985 1_554
Al3 Ti1 2.949951 1_554
Al3 Ti0 2.949952 1_545
Al3 Hf0 3.136731 1_545
Al3 Hf4 3.136732 1_554
Al3 Hf2 3.167806 1_555
Al4 Ir0 2.541921 1_555
Al4 Ir5 2.675394 1_454
Al4 Ir1 2.675394 1_445
Al4 Ir6 2.675394 1_544
Al4 Al9 2.751553 1_554
Al4 Ti0 2.968979 1_445
Al4 Ti1 2.968980 1_454
Al4 Ti2 2.968980 1_544
Al4 Hf1 3.179292 1_545
Al4 Hf3 3.179292 1_554
Al4 Hf2 3.179293 1_455
Al5 Ir6 2.488262 1_554
Al5 Ir5 2.488262 1_554
Al5 Ir4 2.512701 1_554
Al5 Ti2 2.777298 1_554
Al5 Ti1 2.777298 1_554
Al5 Hf0 2.826593 1_555
Al5 Hf2 2.858800 1_555
Al5 Hf1 2.858801 1_555
Al5 Al6 2.994031 1_564
Al5 Al7 2.994031 1_654
Al5 Al8 3.064978 1_554
Al6 Ir1 2.488262 1_545
Al6 Ir6 2.488262 1_545
Al6 Ir2 2.512702 1_545
Al6 Ti2 2.777298 1_545
Al6 Ti0 2.777298 1_545
Al6 Hf4 2.826592 1_555
Al6 Hf2 2.858801 1_555
Al6 Hf3 2.858801 1_555
Al6 Al7 2.994031 1_645
Al6 Al8 3.064978 1_545
Al7 Ir1 2.488261 1_455
Al7 Ir5 2.488262 1_455
Al7 Ir3 2.512702 1_455
Al7 Ti1 2.777297 1_455
Al7 Ti0 2.777298 1_455
Al7 Hf5 2.826593 1_555
Al7 Hf3 2.858801 1_555
Al7 Hf1 2.858801 1_555
Al7 Al8 3.064978 1_455
Al8 Ir2 2.490357 1_555
Al8 Ir4 2.490357 1_555
Al8 Ir3 2.490358 1_555
Al8 Ti0 2.775540 1_555
Al8 Ti1 2.775540 1_555
Al8 Ti2 2.775540 1_555
Al8 Hf4 2.839827 1_555
Al8 Hf5 2.839827 1_555
Al8 Hf0 2.839827 1_555
Al9 Ir6 2.520082 1_545
Al9 Ir5 2.520082 1_455
Al9 Ir4 2.530359 1_555
Al9 Hf5 2.860087 1_555
Al9 Hf4 2.860087 1_555
Al9 Hf3 2.884872 1_555
Al10 Ir1 2.520082 1_455
Al10 Ir6 2.520082 1_554
Al10 Ir2 2.530359 1_555
Al10 Al4 2.751553 1_565
Al10 Al3 2.759985 1_565
Al10 Hf5 2.860087 1_555
Al10 Hf0 2.860087 1_555
Al10 Hf1 2.884872 1_555
Al10 Al12 2.986050 1_565
Al10 Al9 2.994356 1_564
Al10 Al11 2.994357 1_465
Al11 Ir1 2.520081 1_545
Al11 Ir5 2.520082 1_554
Al11 Ir3 2.530359 1_555
Al11 Al4 2.751554 1_655
Al11 Al2 2.759985 1_655
Al11 Hf0 2.860087 1_555
Al11 Hf4 2.860087 1_555
Al11 Hf2 2.884872 1_555
Al11 Al12 2.986051 1_655
Al11 Al9 2.994357 1_654
Al12 Ir2 2.526181 1_545
Al12 Ir4 2.526182 1_554
Al12 Ir3 2.526182 1_455
Al12 Al2 2.766251 1_555
Al12 Al3 2.766252 1_555
Al12 Hf1 2.850594 1_555
Al12 Hf2 2.850594 1_555
Al12 Hf3 2.850594 1_555
Al12 Al9 2.986051 1_554
Ir0 Ti1 2.542288 1_454
Ir0 Ti0 2.542289 1_445
Ir0 Ti2 2.542289 1_544
Ir1 Ti0 2.681513 1_555
Ir2 Ti2 2.678258 1_555
Ir2 Ti0 2.678258 1_555
Ir3 Ti0 2.678257 1_555
Ir3 Ti1 2.678258 1_555
Ir4 Ti2 2.678257 1_555
Ir4 Ti1 2.678258 1_555
Ir5 Ti1 2.681513 1_555
Ir6 Ti2 2.681513 1_555
