# generated using pymatgen
data_YbTe4Pb3
_symmetry_space_group_name_H-M   'P 1'
_cell_length_a   8.23208000
_cell_length_b   8.23208000
_cell_length_c   8.38407568
_cell_angle_alpha   74.01075734
_cell_angle_beta   74.01075734
_cell_angle_gamma   30.07103749
_symmetry_Int_Tables_number   1
_chemical_formula_structural   YbTe4Pb3
_chemical_formula_sum   'Yb1 Te4 Pb3'
_cell_volume   272.86661622
_cell_formula_units_Z   1
loop_
 _symmetry_equiv_pos_site_id
 _symmetry_equiv_pos_as_xyz
  1  'x, y, z'
loop_
 _atom_site_type_symbol
 _atom_site_label
 _atom_site_symmetry_multiplicity
 _atom_site_fract_x
 _atom_site_fract_y
 _atom_site_fract_z
 _atom_site_occupancy
  Yb  Yb0  1  0.00000000  0.00000000  0.00000000  1
  Te  Te0  1  0.60925224  0.60925224  0.10615448  1
  Te  Te1  1  0.87316017  0.87316017  0.35623044  1
  Te  Te2  1  0.12683983  0.12683983  0.64376956  1
  Te  Te3  1  0.39074776  0.39074776  0.89384552  1
  Pb  Pb0  1  0.25292632  0.25292632  0.25129396  1
  Pb  Pb1  1  0.50000000  0.50000000  0.50000000  1
  Pb  Pb2  1  0.74707368  0.74707368  0.74870604  1
loop_
_geom_bond_atom_site_label_1
_geom_bond_atom_site_label_2
_geom_bond_distance
_geom_bond_site_symmetry_2
Te0 Yb0 3.041773 1_655
Te0 Yb0 3.041773 1_565
Te1 Yb0 3.090569 1_665
Te2 Yb0 3.090569 1_556
Te3 Yb0 3.041773 1_656
Te3 Yb0 3.041773 1_566
Pb0 Te1 3.154200 1_545
Pb0 Te1 3.154200 1_455
Pb0 Te3 3.168166 1_554
Pb0 Te2 3.329242 1_555
Pb1 Te3 3.263280 1_555
Pb1 Te0 3.263280 1_555
Pb1 Te2 3.386415 1_655
Pb1 Te2 3.386415 1_565
Pb1 Te1 3.386415 1_545
Pb1 Te1 3.386415 1_455
Pb2 Te2 3.154200 1_565
Pb2 Te2 3.154200 1_655
Pb2 Te0 3.168166 1_556
Pb2 Te1 3.329242 1_555
