# generated using pymatgen
data_HfTa5Si7Ni16
_symmetry_space_group_name_H-M   'P 1'
_cell_length_a   7.89476818
_cell_length_b   7.90736562
_cell_length_c   7.89476801
_cell_angle_alpha   59.94720687
_cell_angle_beta   60.10559968
_cell_angle_gamma   59.94720614
_symmetry_Int_Tables_number   1
_chemical_formula_structural   HfTa5Si7Ni16
_chemical_formula_sum   'Hf1 Ta5 Si7 Ni16'
_cell_volume   348.49247414
_cell_formula_units_Z   1
loop_
 _symmetry_equiv_pos_site_id
 _symmetry_equiv_pos_as_xyz
  1  'x, y, z'
loop_
 _atom_site_type_symbol
 _atom_site_label
 _atom_site_symmetry_multiplicity
 _atom_site_fract_x
 _atom_site_fract_y
 _atom_site_fract_z
 _atom_site_occupancy
  Hf  Hf0  1  0.79530994  0.20469006  0.79530994  1
  Ta  Ta0  1  0.20602991  0.20403683  0.79596417  1
  Ta  Ta1  1  0.79596417  0.79397109  0.20602991  1
  Ta  Ta2  1  0.79596417  0.20403583  0.20602891  1
  Ta  Ta3  1  0.20602891  0.79397109  0.79596417  1
  Ta  Ta4  1  0.20157556  0.79842444  0.20157656  1
  Si  Si0  1  0.50183372  0.49816628  0.50183372  1
  Si  Si1  1  0.49856087  0.50143913  0.00234512  1
  Si  Si2  1  0.00234512  0.99765488  0.49856087  1
  Si  Si3  1  0.49974726  0.00025274  0.49974726  1
  Si  Si4  1  0.00234512  0.50143913  0.49856087  1
  Si  Si5  1  0.49856087  0.99765488  0.00234512  1
  Si  Si6  1  0.99974726  0.50025274  0.99974726  1
  Ni  Ni0  1  0.50267486  0.83249244  0.83233925  1
  Ni  Ni1  1  0.83241268  0.50303655  0.83241268  1
  Ni  Ni2  1  0.83233925  0.83249244  0.50267486  1
  Ni  Ni3  1  0.16750756  0.49732514  0.16750756  1
  Ni  Ni4  1  0.16786191  0.16758732  0.49696345  1
  Ni  Ni5  1  0.49696345  0.16758732  0.16786191  1
  Ni  Ni6  1  0.83241268  0.83213809  0.83241268  1
  Ni  Ni7  1  0.38330178  0.38368884  0.38330178  1
  Ni  Ni8  1  0.15029440  0.61669822  0.61631116  1
  Ni  Ni9  1  0.61577402  0.14782475  0.61577402  1
  Ni  Ni10  1  0.61631116  0.61669822  0.15029440  1
  Ni  Ni11  1  0.38330178  0.84970560  0.38330178  1
  Ni  Ni12  1  0.37937379  0.38422598  0.85217525  1
  Ni  Ni13  1  0.85217525  0.38422598  0.37937379  1
  Ni  Ni14  1  0.61577402  0.62062621  0.61577402  1
  Ni  Ni15  1  0.16750756  0.16766075  0.16750756  1
loop_
_geom_bond_atom_site_label_1
_geom_bond_atom_site_label_2
_geom_bond_distance
_geom_bond_site_symmetry_2
Hf0 Ni1 2.684570 1_555
Hf0 Ni6 2.684570 1_545
Hf0 Ni5 2.684570 1_556
Hf0 Ni4 2.684570 1_655
Hf0 Ni13 2.738516 1_555
Hf0 Ni12 2.738516 1_555
Hf0 Ni14 2.738517 1_555
Hf0 Ni9 2.738522 1_555
Hf0 Si2 2.860871 1_645
Hf0 Si5 2.860871 1_546
Hf0 Si1 2.860871 1_556
Hf0 Si4 2.860871 1_655
Hf0 Ta2 3.242519 1_556
Hf0 Ta3 3.242519 1_645
Hf0 Ta1 3.242523 1_546
Hf0 Ta0 3.242531 1_655
Si1 Ta3 2.822116 1_554
Si1 Ta4 2.827511 1_555
Si1 Ta2 2.841556 1_555
Si2 Ta2 2.822116 1_465
Si2 Ta4 2.827500 1_555
Si2 Ta3 2.841556 1_555
Si3 Ta1 2.840569 1_545
Si3 Ta2 2.840575 1_555
Si3 Ta3 2.840575 1_545
Si3 Ta0 2.840578 1_555
Si4 Ta1 2.822111 1_455
Si4 Ta4 2.827506 1_555
Si4 Ta0 2.841559 1_555
Si5 Ta0 2.822109 1_564
Si5 Ta4 2.827506 1_555
Si5 Ta1 2.841561 1_555
Si6 Ta0 2.840567 1_655
Si6 Ta3 2.840575 1_655
Si6 Ta2 2.840575 1_556
Si6 Ta1 2.840580 1_556
Ni0 Si1 2.275469 1_556
Ni0 Si5 2.275476 1_556
Ni0 Si3 2.279434 1_565
Ni0 Ni14 2.525073 1_555
Ni0 Ni9 2.525073 1_565
Ni0 Ni10 2.537502 1_556
Ni0 Ni1 2.602087 1_555
Ni0 Ni6 2.602090 1_555
Ni0 Ni2 2.606777 1_555
Ni0 Ta3 2.670674 1_555
Ni0 Ta0 2.670680 1_565
Ni0 Ta4 2.677369 1_556
Ni1 Si6 2.274273 1_555
Ni1 Si4 2.288778 1_655
Ni1 Si1 2.288778 1_556
Ni1 Ni14 2.538716 1_555
Ni1 Ni10 2.544015 1_556
Ni1 Ni8 2.544015 1_655
Ni1 Ni2 2.602087 1_555
Ni1 Ni6 2.602326 1_555
Ni1 Ta2 2.687643 1_556
Ni1 Ta0 2.687645 1_655
Ni2 Si4 2.275469 1_655
Ni2 Si2 2.275476 1_655
Ni2 Si3 2.279434 1_565
Ni2 Ni9 2.525073 1_565
Ni2 Ni8 2.537502 1_655
Ni2 Ni6 2.602090 1_555
Ni2 Ta1 2.670666 1_555
Ni2 Ta2 2.670679 1_565
Ni2 Ta4 2.677361 1_655
Ni3 Si4 2.275469 1_555
Ni3 Si1 2.275469 1_555
Ni3 Si6 2.279440 1_454
Ni3 Ni7 2.537482 1_555
Ni3 Ni5 2.602087 1_555
Ni3 Ni4 2.602087 1_555
Ni3 Ta3 2.670679 1_554
Ni3 Ta1 2.670679 1_455
Ni3 Ta4 2.677364 1_555
Ni4 Si3 2.274273 1_555
Ni4 Si2 2.288778 1_545
Ni4 Si4 2.288778 1_555
Ni4 Ni7 2.544002 1_555
Ni4 Ni5 2.602326 1_555
Ni4 Ta3 2.687643 1_545
Ni4 Ta0 2.687652 1_555
Ni5 Si3 2.274273 1_555
Ni5 Si5 2.288778 1_545
Ni5 Si1 2.288778 1_555
Ni5 Ni7 2.544002 1_555
Ni5 Ta2 2.687643 1_555
Ni5 Ta1 2.687643 1_545
Ni6 Si6 2.274273 1_555
Ni6 Si5 2.288778 1_556
Ni6 Si2 2.288778 1_655
Ni6 Ni9 2.538713 1_565
Ni6 Ni8 2.544007 1_655
Ni6 Ta3 2.687643 1_655
Ni6 Ta1 2.687651 1_556
Ni7 Si0 2.267279 1_555
Ni7 Si1 2.460936 1_555
Ni7 Si4 2.460936 1_555
Ni7 Si3 2.478305 1_555
Ni7 Ni9 2.591517 1_555
Ni7 Ni8 2.605675 1_555
Ni7 Ta0 2.720550 1_555
Ni7 Ta2 2.720553 1_555
Ni7 Ta4 2.738296 1_555
Ni8 Si0 2.267266 1_555
Ni8 Si2 2.460937 1_555
Ni8 Si4 2.460949 1_555
Ni8 Si6 2.478306 1_455
Ni8 Ta3 2.720542 1_555
Ni8 Ta0 2.720547 1_555
Ni8 Ta4 2.738294 1_555
Ni9 Si0 2.259972 1_555
Ni9 Si3 2.453034 1_555
Ni9 Si5 2.497219 1_546
Ni9 Si2 2.497219 1_645
Ni9 Ta0 2.700284 1_555
Ni9 Ta2 2.700292 1_555
Ni10 Si0 2.267266 1_555
Ni10 Si5 2.460937 1_555
Ni10 Si1 2.460949 1_555
Ni10 Si6 2.478306 1_554
Ni10 Ni6 2.544007 1_554
Ni10 Ni13 2.591512 1_555
Ni10 Ni11 2.605653 1_555
Ni10 Ni7 2.605675 1_555
Ni10 Ta1 2.720547 1_555
Ni10 Ta2 2.720556 1_555
Ni10 Ta4 2.738299 1_555
Ni11 Si0 2.267266 1_555
Ni11 Si5 2.460937 1_555
Ni11 Si2 2.460937 1_555
Ni11 Si3 2.478319 1_565
Ni11 Ni15 2.537490 1_565
Ni11 Ni4 2.544015 1_565
Ni11 Ni5 2.544015 1_565
Ni11 Ni14 2.591517 1_555
Ni11 Ni8 2.605653 1_555
Ni11 Ta3 2.720555 1_555
Ni11 Ta1 2.720555 1_555
Ni11 Ta4 2.738280 1_555
Ni12 Si0 2.259971 1_555
Ni12 Si6 2.453040 1_455
Ni12 Si1 2.497213 1_556
Ni12 Si5 2.497219 1_546
Ni12 Ni3 2.525073 1_556
Ni12 Ni15 2.525073 1_556
Ni12 Ni5 2.538709 1_556
Ni12 Ni8 2.591512 1_555
Ni12 Ni14 2.643594 1_555
Ni12 Ni9 2.643605 1_555
Ni12 Ta0 2.700285 1_555
Ni12 Ta3 2.700292 1_555
Ni13 Si0 2.259971 1_555
Ni13 Si6 2.453040 1_554
Ni13 Si4 2.497213 1_655
Ni13 Si2 2.497219 1_645
Ni13 Ni3 2.525073 1_655
Ni13 Ni15 2.525073 1_655
Ni13 Ni4 2.538709 1_655
Ni13 Ni14 2.643594 1_555
Ni13 Ni9 2.643605 1_555
Ni13 Ta1 2.700292 1_555
Ni13 Ta2 2.700298 1_555
Ni14 Si0 2.259965 1_555
Ni14 Si3 2.453041 1_565
Ni14 Si1 2.497220 1_556
Ni14 Si4 2.497220 1_655
Ni14 Ni2 2.525073 1_555
Ni14 Ta1 2.700288 1_555
Ni14 Ta3 2.700293 1_555
Ni15 Si5 2.275472 1_545
Ni15 Si2 2.275472 1_545
Ni15 Si6 2.279436 1_454
Ni15 Ni4 2.602082 1_555
Ni15 Ni5 2.602082 1_555
Ni15 Ni3 2.606777 1_555
Ni15 Ta0 2.670675 1_554
Ni15 Ta2 2.670681 1_455
Ni15 Ta4 2.677365 1_545
