# generated using pymatgen
data_AsPb2I
_symmetry_space_group_name_H-M   'P 1'
_cell_length_a   8.24133560
_cell_length_b   8.24133522
_cell_length_c   8.24133563
_cell_angle_alpha   31.20850272
_cell_angle_beta   31.20851140
_cell_angle_gamma   31.20850665
_symmetry_Int_Tables_number   1
_chemical_formula_structural   AsPb2I
_chemical_formula_sum   'As1 Pb2 I1'
_cell_volume   133.36135616
_cell_formula_units_Z   1
loop_
 _symmetry_equiv_pos_site_id
 _symmetry_equiv_pos_as_xyz
  1  'x, y, z'
loop_
 _atom_site_type_symbol
 _atom_site_label
 _atom_site_symmetry_multiplicity
 _atom_site_fract_x
 _atom_site_fract_y
 _atom_site_fract_z
 _atom_site_occupancy
  As  As0  1  0.50000000  0.50000000  0.50000000  1
  Pb  Pb0  1  0.23227884  0.23227884  0.23227884  1
  Pb  Pb1  1  0.76772116  0.76772116  0.76772116  1
  I  I0  1  0.00000000  0.00000000  0.00000000  1
loop_
_geom_bond_atom_site_label_1
_geom_bond_atom_site_label_2
_geom_bond_distance
_geom_bond_site_symmetry_2
As0 Pb0 2.988343 1_565
As0 Pb1 2.988343 1_545
As0 Pb0 2.988343 1_556
As0 Pb1 2.988343 1_554
As0 Pb0 2.988343 1_655
As0 Pb1 2.988343 1_455
I0 Pb1 3.491802 1_454
I0 Pb0 3.491802 1_545
I0 Pb1 3.491802 1_445
I0 Pb0 3.491802 1_554
I0 Pb1 3.491802 1_544
I0 Pb0 3.491802 1_455
