# generated using pymatgen
data_P2RuCl15
_symmetry_space_group_name_H-M   'P 1'
_cell_length_a   7.84653116
_cell_length_b   7.84653134
_cell_length_c   11.36836059
_cell_angle_alpha   69.93199162
_cell_angle_beta   69.93199322
_cell_angle_gamma   60.03352804
_symmetry_Int_Tables_number   1
_chemical_formula_structural   P2RuCl15
_chemical_formula_sum   'P2 Ru1 Cl15'
_cell_volume   556.71566930
_cell_formula_units_Z   1
loop_
 _symmetry_equiv_pos_site_id
 _symmetry_equiv_pos_as_xyz
  1  'x, y, z'
loop_
 _atom_site_type_symbol
 _atom_site_label
 _atom_site_symmetry_multiplicity
 _atom_site_fract_x
 _atom_site_fract_y
 _atom_site_fract_z
 _atom_site_occupancy
  P  P0  1  0.26891756  0.26891756  0.19455084  1
  P  P1  1  0.73108244  0.73108244  0.80544916  1
  Ru  Ru0  1  0.50000000  0.50000000  0.50000000  1
  Cl  Cl0  1  0.31866463  0.31866463  0.62658363  1
  Cl  Cl1  1  0.73439318  0.31845772  0.62799949  1
  Cl  Cl2  1  0.20898969  0.20898969  0.38042587  1
  Cl  Cl3  1  0.56060407  0.15520406  0.12850972  1
  Cl  Cl4  1  0.68133537  0.68133537  0.37341637  1
  Cl  Cl5  1  0.68154228  0.26560682  0.37200051  1
  Cl  Cl6  1  0.31845772  0.73439318  0.62799949  1
  Cl  Cl7  1  0.84564277  0.84564277  0.86900521  1
  Cl  Cl8  1  0.43939593  0.84479594  0.87149028  1
  Cl  Cl9  1  0.15435723  0.15435723  0.13099479  1
  Cl  Cl10  1  0.79101031  0.79101031  0.61957413  1
  Cl  Cl11  1  0.26560682  0.68154228  0.37200051  1
  Cl  Cl12  1  0.15520406  0.56060407  0.12850972  1
  Cl  Cl13  1  0.00000000  0.00000000  0.00000000  1
  Cl  Cl14  1  0.84479594  0.43939593  0.87149028  1
loop_
_geom_bond_atom_site_label_1
_geom_bond_atom_site_label_2
_geom_bond_distance
_geom_bond_site_symmetry_2
Cl0 Ru0 2.309111 1_555
Cl1 Ru0 2.307826 1_555
Cl2 P0 1.940227 1_555
Cl3 P0 1.959206 1_555
Cl4 Ru0 2.309111 1_555
Cl5 Ru0 2.307826 1_555
Cl6 Ru0 2.307826 1_555
Cl7 P1 1.958759 1_555
Cl8 P1 1.959206 1_555
Cl9 P0 1.958759 1_555
Cl10 P1 1.940227 1_555
Cl11 Ru0 2.307826 1_555
Cl12 P0 1.959206 1_555
Cl14 P1 1.959206 1_555
