# generated using pymatgen
data_BaSr(AlTe2)4
_symmetry_space_group_name_H-M   'P 1'
_cell_length_a   8.51772537
_cell_length_b   8.51772537
_cell_length_c   6.74050566
_cell_angle_alpha   90.00000000
_cell_angle_beta   90.00000000
_cell_angle_gamma   90.00000000
_symmetry_Int_Tables_number   1
_chemical_formula_structural   BaSr(AlTe2)4
_chemical_formula_sum   'Ba1 Sr1 Al4 Te8'
_cell_volume   489.03477671
_cell_formula_units_Z   1
loop_
 _symmetry_equiv_pos_site_id
 _symmetry_equiv_pos_as_xyz
  1  'x, y, z'
loop_
 _atom_site_type_symbol
 _atom_site_label
 _atom_site_symmetry_multiplicity
 _atom_site_fract_x
 _atom_site_fract_y
 _atom_site_fract_z
 _atom_site_occupancy
  Ba  Ba0  1  0.00000000  0.00000000  0.00000000  1
  Sr  Sr0  1  0.50000000  0.50000000  0.00000000  1
  Al  Al0  1  0.50000000  0.00000000  0.50000000  1
  Al  Al1  1  0.00000000  0.50000000  0.50000000  1
  Al  Al2  1  0.00000000  0.50000000  0.00000000  1
  Al  Al3  1  0.50000000  0.00000000  0.00000000  1
  Te  Te0  1  0.66422579  0.82761472  0.24989978  1
  Te  Te1  1  0.33577421  0.17238528  0.24989978  1
  Te  Te2  1  0.82761472  0.66422579  0.75010022  1
  Te  Te3  1  0.66422579  0.17238528  0.75010022  1
  Te  Te4  1  0.33577421  0.82761472  0.75010022  1
  Te  Te5  1  0.17238528  0.33577421  0.75010022  1
  Te  Te6  1  0.17238528  0.66422579  0.24989978  1
  Te  Te7  1  0.82761472  0.33577421  0.24989978  1
loop_
_geom_bond_atom_site_label_1
_geom_bond_atom_site_label_2
_geom_bond_distance
_geom_bond_site_symmetry_2
Ba0 Te1 3.629484 1_555
Ba0 Te5 3.629484 1_554
Ba0 Te7 3.629484 1_455
Ba0 Te4 3.629484 1_544
Ba0 Te6 3.629484 1_545
Ba0 Te3 3.629484 1_454
Ba0 Te0 3.629484 1_445
Ba0 Te2 3.629484 1_444
Sr0 Te0 3.546995 1_555
Sr0 Te2 3.546995 1_554
Sr0 Te7 3.546995 1_555
Sr0 Te4 3.546995 1_554
Sr0 Te6 3.546995 1_555
Sr0 Te3 3.546995 1_554
Sr0 Te1 3.546995 1_555
Sr0 Te5 3.546995 1_554
Al0 Te3 2.637167 1_555
Al0 Te0 2.637167 1_545
Al0 Te1 2.637167 1_555
Al0 Te4 2.637167 1_545
Al1 Te6 2.637167 1_555
Al1 Te2 2.637167 1_455
Al1 Te5 2.637167 1_555
Al1 Te7 2.637167 1_455
Al2 Te6 2.636303 1_555
Al2 Te2 2.636303 1_454
Al2 Te5 2.636303 1_554
Al2 Te7 2.636303 1_455
Al3 Te3 2.636303 1_554
Al3 Te1 2.636303 1_555
Al3 Te0 2.636303 1_545
Al3 Te4 2.636303 1_544
