# generated using pymatgen
data_Fe2NiSb12Pt
_symmetry_space_group_name_H-M   'P 1'
_cell_length_a   7.93778967
_cell_length_b   7.94041054
_cell_length_c   9.16752391
_cell_angle_alpha   54.88066572
_cell_angle_beta   54.62047463
_cell_angle_gamma   70.44520167
_symmetry_Int_Tables_number   1
_chemical_formula_structural   Fe2NiSb12Pt
_chemical_formula_sum   'Fe2 Ni1 Sb12 Pt1'
_cell_volume   385.35323287
_cell_formula_units_Z   1
loop_
 _symmetry_equiv_pos_site_id
 _symmetry_equiv_pos_as_xyz
  1  'x, y, z'
loop_
 _atom_site_type_symbol
 _atom_site_label
 _atom_site_symmetry_multiplicity
 _atom_site_fract_x
 _atom_site_fract_y
 _atom_site_fract_z
 _atom_site_occupancy
  Fe  Fe0  1  0.00000000  0.50000000  0.00000000  1
  Fe  Fe1  1  0.50000000  0.00000000  0.00000000  1
  Ni  Ni0  1  0.00000000  0.50000000  0.50000000  1
  Sb  Sb0  1  0.67351059  0.67381767  0.16639384  1
  Sb  Sb1  1  0.32648941  0.32618233  0.83360616  1
  Sb  Sb2  1  0.66202627  0.64776310  0.49908637  1
  Sb  Sb3  1  0.33797373  0.35223690  0.50091363  1
  Sb  Sb4  1  0.85409914  0.16652457  0.32812060  1
  Sb  Sb5  1  0.14590086  0.83347543  0.67187940  1
  Sb  Sb6  1  0.16255190  0.84576664  0.33045296  1
  Sb  Sb7  1  0.83744810  0.15423336  0.66954704  1
  Sb  Sb8  1  0.49362834  0.81738833  0.85434689  1
  Sb  Sb9  1  0.50637166  0.18261167  0.14565311  1
  Sb  Sb10  1  0.17635204  0.50809973  0.15383978  1
  Sb  Sb11  1  0.82364796  0.49190027  0.84616022  1
  Pt  Pt0  1  0.50000000  0.00000000  0.50000000  1
loop_
_geom_bond_atom_site_label_1
_geom_bond_atom_site_label_2
_geom_bond_distance
_geom_bond_site_symmetry_2
Fe0 Sb5 2.501123 1_554
Fe0 Sb4 2.501123 1_455
Fe0 Sb0 2.529490 1_455
Fe0 Sb1 2.529490 1_554
Fe0 Sb10 2.530514 1_555
Fe0 Sb11 2.530514 1_454
Fe1 Sb9 2.498608 1_555
Fe1 Sb8 2.498608 1_544
Fe1 Sb7 2.526437 1_554
Fe1 Sb6 2.526437 1_545
Fe1 Sb0 2.535986 1_545
Fe1 Sb1 2.535986 1_554
Ni0 Sb3 2.545884 1_555
Ni0 Sb2 2.545884 1_455
Ni0 Sb11 2.591467 1_455
Ni0 Sb10 2.591467 1_555
Ni0 Sb6 2.599584 1_555
Ni0 Sb7 2.599584 1_455
Pt0 Sb3 2.661456 1_555
Pt0 Sb2 2.661456 1_545
Pt0 Sb4 2.663413 1_555
Pt0 Sb5 2.663413 1_545
Pt0 Sb8 2.664026 1_545
Pt0 Sb9 2.664026 1_555
