# generated using pymatgen
data_Zr6Ti14Al2Ir7
_symmetry_space_group_name_H-M   'P 1'
_cell_length_a   8.93149525
_cell_length_b   8.92291264
_cell_length_c   8.92291260
_cell_angle_alpha   59.76771082
_cell_angle_beta   59.96817798
_cell_angle_gamma   59.96817633
_symmetry_Int_Tables_number   1
_chemical_formula_structural   Zr6Ti14Al2Ir7
_chemical_formula_sum   'Zr6 Ti14 Al2 Ir7'
_cell_volume   501.70208001
_cell_formula_units_Z   1
loop_
 _symmetry_equiv_pos_site_id
 _symmetry_equiv_pos_as_xyz
  1  'x, y, z'
loop_
 _atom_site_type_symbol
 _atom_site_label
 _atom_site_symmetry_multiplicity
 _atom_site_fract_x
 _atom_site_fract_y
 _atom_site_fract_z
 _atom_site_occupancy
  Zr  Zr0  1  0.68498133  0.68881475  0.31150325  1
  Zr  Zr1  1  0.31469967  0.68881475  0.31150325  1
  Zr  Zr2  1  0.69064645  0.30935355  0.30935355  1
  Zr  Zr3  1  0.31469967  0.31150325  0.68881475  1
  Zr  Zr4  1  0.68498133  0.31150325  0.68881475  1
  Zr  Zr5  1  0.31428140  0.68571860  0.68571860  1
  Ti  Ti0  1  0.35621704  0.88042171  0.88042171  1
  Ti  Ti1  1  0.88294053  0.88042171  0.88042171  1
  Ti  Ti2  1  0.11317810  0.12620476  0.64743805  1
  Ti  Ti3  1  0.11317810  0.64743805  0.12620476  1
  Ti  Ti4  1  0.64555357  0.12139658  0.12139658  1
  Ti  Ti5  1  0.11165126  0.12139658  0.12139658  1
  Ti  Ti6  1  0.67028101  0.66891890  0.99051707  1
  Ti  Ti7  1  0.67028101  0.99051707  0.66891890  1
  Ti  Ti8  1  0.00208053  0.66550079  0.66550079  1
  Ti  Ti9  1  0.66691690  0.66550079  0.66550079  1
  Ti  Ti10  1  0.32972089  0.33054015  0.01002007  1
  Ti  Ti11  1  0.32972089  0.01002007  0.33054015  1
  Ti  Ti12  1  0.00800740  0.33079728  0.33079728  1
  Ti  Ti13  1  0.33040104  0.33079728  0.33079728  1
  Al  Al0  1  0.88040563  0.88117948  0.35800925  1
  Al  Al1  1  0.88040563  0.35800925  0.88117948  1
  Ir  Ir0  1  0.00205087  0.99794913  0.99794913  1
  Ir  Ir1  1  0.99988436  0.99980099  0.49866490  1
  Ir  Ir2  1  0.50164974  0.99980099  0.49866490  1
  Ir  Ir3  1  0.99916053  0.50083947  0.50083947  1
  Ir  Ir4  1  0.50164974  0.49866490  0.99980099  1
  Ir  Ir5  1  0.99988436  0.49866490  0.99980099  1
  Ir  Ir6  1  0.50049102  0.99950898  0.99950898  1
loop_
_geom_bond_atom_site_label_1
_geom_bond_atom_site_label_2
_geom_bond_distance
_geom_bond_site_symmetry_2
Zr0 Zr1 3.307169 1_555
Zr0 Zr5 3.323402 1_555
Zr0 Zr4 3.354890 1_555
Zr0 Zr2 3.370488 1_555
Zr1 Zr5 3.323406 1_555
Zr1 Zr3 3.354890 1_555
Zr1 Zr2 3.370492 1_555
Zr2 Zr4 3.370488 1_555
Zr2 Zr3 3.370492 1_555
Zr3 Zr4 3.307169 1_555
Zr3 Zr5 3.323406 1_555
Zr4 Zr5 3.323401 1_555
Ti0 Zr3 3.231185 1_565
Ti0 Zr1 3.231185 1_556
Ti0 Zr5 3.243294 1_555
Ti1 Zr4 3.231189 1_565
Ti1 Zr0 3.231189 1_556
Ti1 Zr5 3.243288 1_655
Ti2 Zr4 3.219989 1_455
Ti2 Zr3 3.219989 1_555
Ti2 Zr5 3.314630 1_545
Ti3 Zr1 3.219989 1_555
Ti3 Zr0 3.219989 1_455
Ti3 Zr5 3.314630 1_554
Ti4 Zr2 3.157907 1_555
Ti4 Zr4 3.247168 1_554
Ti4 Zr0 3.247168 1_545
Ti5 Zr2 3.157895 1_455
Ti5 Zr1 3.247170 1_545
Ti5 Zr3 3.247170 1_554
Ti6 Zr2 3.026983 1_556
Ti6 Zr1 3.027169 1_556
Ti6 Zr0 3.027173 1_556
Ti7 Zr2 3.026983 1_565
Ti7 Zr3 3.027169 1_565
Ti7 Zr4 3.027173 1_565
Ti8 Zr5 2.979965 1_555
Ti8 Zr3 2.984693 1_555
Ti8 Zr1 2.984693 1_555
Ti9 Zr5 2.979956 1_555
Ti9 Zr0 2.984693 1_555
Ti9 Zr4 2.984693 1_555
Ti10 Zr4 3.026414 1_554
Ti10 Zr3 3.026429 1_554
Ti10 Zr5 3.027112 1_554
Ti11 Zr0 3.026414 1_545
Ti11 Zr1 3.026429 1_545
Ti11 Zr5 3.027112 1_545
Ti12 Zr2 3.038138 1_455
Ti12 Zr0 3.045738 1_455
Ti12 Zr4 3.045738 1_455
Ti13 Zr2 3.038111 1_555
Ti13 Zr3 3.045722 1_555
Ti13 Zr1 3.045722 1_555
Al0 Ir0 2.618436 1_654
Al0 Ir1 2.764624 1_555
Al0 Ir2 2.764624 1_555
Al0 Ir3 2.767888 1_555
Al0 Ti7 2.802067 1_555
Al0 Ti8 2.826042 1_655
Al0 Ti9 2.826046 1_555
Al0 Ti3 2.941087 1_655
Al0 Ti5 2.971013 1_665
Al0 Ti4 2.971025 1_565
Al0 Zr2 3.200371 1_565
Al0 Zr1 3.256684 1_655
Al0 Zr0 3.256692 1_555
Al1 Ir0 2.618436 1_645
Al1 Ir5 2.764624 1_555
Al1 Ir4 2.764624 1_555
Al1 Ir3 2.767888 1_555
Al1 Ti6 2.802067 1_555
Al1 Ti8 2.826042 1_655
Al1 Ti9 2.826046 1_555
Al1 Ti2 2.941087 1_655
Al1 Ti5 2.971013 1_656
Al1 Ti4 2.971025 1_556
Al1 Zr2 3.200371 1_556
Al1 Zr3 3.256684 1_655
Al1 Zr4 3.256692 1_555
Ir0 Ti3 2.549894 1_556
Ir0 Ti2 2.549894 1_565
Ir0 Ti1 2.583039 1_455
Ir0 Ti0 2.583046 1_555
Ir0 Ti5 2.601024 1_566
Ir0 Ti4 2.601038 1_466
Ir1 Ti8 2.571637 1_655
Ir1 Ti7 2.573297 1_555
Ir1 Ti12 2.573430 1_665
Ir1 Ti11 2.577756 1_665
Ir1 Ti5 2.747418 1_665
Ir1 Ti1 2.779826 1_555
Ir1 Ti2 2.837777 1_665
Ir1 Zr2 3.232092 1_565
Ir1 Zr1 3.248331 1_655
Ir1 Zr5 3.260173 1_655
Ir1 Zr4 3.266529 1_565
Ir2 Ti9 2.571635 1_555
Ir2 Ti7 2.573282 1_555
Ir2 Ti13 2.573422 1_565
Ir2 Ti11 2.577740 1_565
Ir2 Ti4 2.747417 1_565
Ir2 Ti0 2.779825 1_555
Ir2 Ti2 2.837784 1_565
Ir2 Zr2 3.232092 1_565
Ir2 Zr0 3.248333 1_555
Ir2 Zr5 3.260173 1_555
Ir2 Zr3 3.266528 1_565
Ir3 Ti8 2.562946 1_655
Ir3 Ti9 2.562951 1_555
Ir3 Ti12 2.586256 1_655
Ir3 Ti13 2.586271 1_655
Ir3 Ti2 2.728589 1_655
Ir3 Ti3 2.728589 1_655
Ir3 Zr3 3.274467 1_655
Ir3 Zr1 3.274467 1_655
Ir3 Zr0 3.274474 1_555
Ir3 Zr4 3.274474 1_555
Ir4 Ti9 2.571635 1_555
Ir4 Ti6 2.573282 1_555
Ir4 Ti13 2.573422 1_556
Ir4 Ti10 2.577740 1_556
Ir4 Ti4 2.747417 1_556
Ir4 Ti0 2.779825 1_555
Ir4 Ti3 2.837784 1_556
Ir4 Zr2 3.232092 1_556
Ir4 Zr4 3.248333 1_555
Ir4 Zr5 3.260173 1_555
Ir4 Zr1 3.266528 1_556
Ir5 Ti8 2.571637 1_655
Ir5 Ti6 2.573297 1_555
Ir5 Ti12 2.573430 1_656
Ir5 Ti10 2.577756 1_656
Ir5 Ti5 2.747418 1_656
Ir5 Ti1 2.779825 1_555
Ir5 Ti3 2.837777 1_656
Ir5 Zr2 3.232092 1_556
Ir5 Zr3 3.248331 1_655
Ir5 Zr5 3.260173 1_655
Ir5 Zr0 3.266529 1_556
Ir6 Ti6 2.578084 1_555
Ir6 Ti7 2.578084 1_555
Ir6 Ti10 2.585753 1_566
Ir6 Ti11 2.585753 1_566
Ir6 Ti0 2.792292 1_555
Ir6 Ti1 2.792300 1_555
Ir6 Ti4 2.838388 1_566
Ir6 Ti5 2.838404 1_566
Ir6 Zr0 3.224607 1_556
Ir6 Zr4 3.224607 1_565
Ir6 Zr3 3.224611 1_565
Ir6 Zr1 3.224611 1_556
