# generated using pymatgen
data_LiCa4(AsIr)6
_symmetry_space_group_name_H-M   'P 1'
_cell_length_a   7.34503645
_cell_length_b   7.34503714
_cell_length_c   7.34503731
_cell_angle_alpha   109.47121297
_cell_angle_beta   109.47121488
_cell_angle_gamma   109.47122830
_symmetry_Int_Tables_number   1
_chemical_formula_structural   LiCa4(AsIr)6
_chemical_formula_sum   'Li1 Ca4 As6 Ir6'
_cell_volume   305.04232188
_cell_formula_units_Z   1
loop_
 _symmetry_equiv_pos_site_id
 _symmetry_equiv_pos_as_xyz
  1  'x, y, z'
loop_
 _atom_site_type_symbol
 _atom_site_label
 _atom_site_symmetry_multiplicity
 _atom_site_fract_x
 _atom_site_fract_y
 _atom_site_fract_z
 _atom_site_occupancy
  Li  Li0  1  0.00000000  0.00000000  0.00000000  1
  Ca  Ca0  1  0.00000000  0.00000000  0.50000000  1
  Ca  Ca1  1  0.50000000  0.00000000  0.00000000  1
  Ca  Ca2  1  0.00000000  0.50000000  0.00000000  1
  Ca  Ca3  1  0.50000000  0.50000000  0.50000000  1
  As  As0  1  0.66901322  0.66901322  0.00000000  1
  As  As1  1  0.33098678  0.33098678  1.00000000  1
  As  As2  1  0.00000000  0.66901322  0.66901322  1
  As  As3  1  1.00000000  0.33098678  0.33098678  1
  As  As4  1  0.66901322  0.00000000  0.66901322  1
  As  As5  1  0.33098678  1.00000000  0.33098678  1
  Ir  Ir0  1  0.25000000  0.50000000  0.75000000  1
  Ir  Ir1  1  0.75000000  0.25000000  0.50000000  1
  Ir  Ir2  1  0.50000000  0.25000000  0.75000000  1
  Ir  Ir3  1  0.50000000  0.75000000  0.25000000  1
  Ir  Ir4  1  0.75000000  0.50000000  0.25000000  1
  Ir  Ir5  1  0.25000000  0.75000000  0.50000000  1
loop_
_geom_bond_atom_site_label_1
_geom_bond_atom_site_label_2
_geom_bond_distance
_geom_bond_site_symmetry_2
Ca0 Ir3 2.998599 1_445
Ca0 Ir2 2.998599 1_555
Ca0 Ir1 2.998599 1_455
Ca0 Ir5 2.998599 1_545
Ca0 Ir0 2.998599 1_555
Ca0 Ir4 2.998599 1_445
Ca1 Ir2 2.998599 1_554
Ca1 Ir3 2.998599 1_545
Ca1 Ir0 2.998599 1_544
Ca1 Ir4 2.998599 1_555
Ca1 Ir1 2.998599 1_555
Ca1 Ir5 2.998599 1_544
Ca2 Ir0 2.998599 1_554
Ca2 Ir4 2.998599 1_455
Ca2 Ir3 2.998599 1_555
Ca2 Ir2 2.998599 1_454
Ca2 Ir5 2.998599 1_555
Ca2 Ir1 2.998599 1_454
Ca3 Ir0 2.998599 1_555
Ca3 Ir4 2.998599 1_555
Ca3 Ir3 2.998599 1_555
Ca3 Ir2 2.998599 1_555
Ca3 Ir1 2.998599 1_555
Ca3 Ir5 2.998599 1_555
As0 Ir0 2.559412 1_554
As0 Ir3 2.559412 1_555
As0 Ir4 2.559412 1_555
As0 Ir2 2.559412 1_554
As0 Li0 2.807204 1_665
As0 Ca2 3.076263 1_655
As0 Ca1 3.076263 1_565
As0 Ca3 3.076263 1_554
As0 Ca0 3.076263 1_665
As1 Ir4 2.559412 1_556
As1 Ir2 2.559412 1_555
As1 Ir0 2.559412 1_555
As1 Ir3 2.559412 1_556
As1 Li0 2.807204 1_556
As1 Ca2 3.076263 1_556
As1 Ca1 3.076263 1_556
As1 Ca3 3.076263 1_556
As1 Ca0 3.076263 1_555
As2 Ir5 2.559412 1_555
As2 Ir1 2.559412 1_455
As2 Ir0 2.559412 1_555
As2 Ir4 2.559412 1_455
As2 Li0 2.807205 1_566
As2 Ca3 3.076262 1_455
As2 Ca0 3.076263 1_565
As2 Ca1 3.076263 1_566
As2 Ca2 3.076263 1_556
As3 Ir1 2.559412 1_555
As3 Ir5 2.559412 1_655
As3 Ir4 2.559412 1_555
As3 Ir0 2.559412 1_655
As3 Li0 2.807205 1_655
As3 Ca3 3.076262 1_655
As3 Ca0 3.076263 1_655
As3 Ca1 3.076263 1_555
As3 Ca2 3.076263 1_655
As4 Ir5 2.559412 1_545
As4 Ir1 2.559412 1_555
As4 Ir2 2.559412 1_555
As4 Ir3 2.559413 1_545
As4 Li0 2.807204 1_656
As4 Ca0 3.076262 1_655
As4 Ca1 3.076263 1_556
As4 Ca3 3.076263 1_545
As4 Ca2 3.076263 1_656
As5 Ir1 2.559412 1_565
As5 Ir5 2.559412 1_555
As5 Ir3 2.559412 1_555
As5 Ir2 2.559413 1_565
As5 Li0 2.807204 1_565
As5 Ca0 3.076262 1_565
As5 Ca1 3.076263 1_565
As5 Ca3 3.076263 1_565
As5 Ca2 3.076263 1_555
