# generated using pymatgen
data_SrFeCoP2
_symmetry_space_group_name_H-M   'P 1'
_cell_length_a   6.43354496
_cell_length_b   6.43354499
_cell_length_c   6.43354425
_cell_angle_alpha   146.33784455
_cell_angle_beta   146.33784557
_cell_angle_gamma   48.34522289
_symmetry_Int_Tables_number   1
_chemical_formula_structural   SrFeCoP2
_chemical_formula_sum   'Sr1 Fe1 Co1 P2'
_cell_volume   81.47162977
_cell_formula_units_Z   1
loop_
 _symmetry_equiv_pos_site_id
 _symmetry_equiv_pos_as_xyz
  1  'x, y, z'
loop_
 _atom_site_type_symbol
 _atom_site_label
 _atom_site_symmetry_multiplicity
 _atom_site_fract_x
 _atom_site_fract_y
 _atom_site_fract_z
 _atom_site_occupancy
  Sr  Sr0  1  0.00000000  0.00000000  0.00000000  1
  Fe  Fe0  1  0.25000000  0.75000000  0.50000000  1
  Co  Co0  1  0.75000000  0.25000000  0.50000000  1
  P  P0  1  0.65308860  0.65308860  1.00000000  1
  P  P1  1  0.34691140  0.34691140  0.00000000  1
loop_
_geom_bond_atom_site_label_1
_geom_bond_atom_site_label_2
_geom_bond_distance
_geom_bond_site_symmetry_2
Fe0 P0 2.182743 1_555
Fe0 P1 2.182743 1_555
Fe0 P0 2.182744 1_454
Fe0 P1 2.182744 1_566
Co0 P1 2.182743 1_555
Co0 P0 2.182743 1_555
Co0 P1 2.182744 1_656
Co0 P0 2.182744 1_544
P0 Sr0 3.189020 1_667
P0 Sr0 3.189021 1_555
P0 Sr0 3.189021 1_566
P0 Sr0 3.189021 1_656
P1 Sr0 3.189020 1_554
P1 Sr0 3.189021 1_666
P1 Sr0 3.189021 1_655
P1 Sr0 3.189021 1_565
