# generated using pymatgen
data_Cd3Ru4PbO14
_symmetry_space_group_name_H-M   'P 1'
_cell_length_a   7.18156594
_cell_length_b   7.20601671
_cell_length_c   7.18156633
_cell_angle_alpha   60.11218230
_cell_angle_beta   60.00000263
_cell_angle_gamma   60.11218143
_symmetry_Int_Tables_number   1
_chemical_formula_structural   Cd3Ru4PbO14
_chemical_formula_sum   'Cd3 Ru4 Pb1 O14'
_cell_volume   263.24063459
_cell_formula_units_Z   1
loop_
 _symmetry_equiv_pos_site_id
 _symmetry_equiv_pos_as_xyz
  1  'x, y, z'
loop_
 _atom_site_type_symbol
 _atom_site_label
 _atom_site_symmetry_multiplicity
 _atom_site_fract_x
 _atom_site_fract_y
 _atom_site_fract_z
 _atom_site_occupancy
  Cd  Cd0  1  0.12500000  0.12500000  0.62500000  1
  Cd  Cd1  1  0.62500000  0.12500000  0.12500000  1
  Cd  Cd2  1  0.12500000  0.12500000  0.12500000  1
  Ru  Ru0  1  0.62500000  0.12500000  0.62500000  1
  Ru  Ru1  1  0.62500000  0.62500000  0.12500000  1
  Ru  Ru2  1  0.12500000  0.62500000  0.62500000  1
  Ru  Ru3  1  0.62500000  0.62500000  0.62500000  1
  Pb  Pb0  1  0.12500000  0.62500000  0.12500000  1
  O  O0  1  0.70153819  0.70197978  0.29824052  1
  O  O1  1  0.95175948  0.54802022  0.54846181  1
  O  O2  1  0.55826070  0.94035358  0.94312602  1
  O  O3  1  0.94312602  0.94035358  0.55826070  1
  O  O4  1  0.95175948  0.54802022  0.95175948  1
  O  O5  1  0.55826070  0.94035358  0.55826070  1
  O  O6  1  0.29824052  0.70197978  0.29824052  1
  O  O7  1  0.29824052  0.70197978  0.70153819  1
  O  O8  1  0.69173930  0.30964642  0.30687398  1
  O  O9  1  0.69173930  0.30964642  0.69173930  1
  O  O10  1  0.54846181  0.54802022  0.95175948  1
  O  O11  1  0.30687398  0.30964642  0.69173930  1
  O  O12  1  0.25442064  0.23673708  0.25442064  1
  O  O13  1  0.99557936  0.01326292  0.99557936  1
loop_
_geom_bond_atom_site_label_1
_geom_bond_atom_site_label_2
_geom_bond_distance
_geom_bond_site_symmetry_2
Cd0 O13 2.175222 1_455
Cd0 O12 2.175222 1_555
Cd0 O1 2.525167 1_455
Cd0 O7 2.525167 1_545
Cd0 O11 2.588382 1_555
Cd0 O3 2.588382 1_445
Cd0 O5 2.588389 1_545
Cd0 O9 2.588389 1_455
Cd1 O13 2.175222 1_554
Cd1 O12 2.175222 1_555
Cd1 O10 2.525167 1_554
Cd1 O0 2.525167 1_545
Cd1 O8 2.588383 1_555
Cd1 O2 2.588383 1_544
Cd1 O5 2.588389 1_545
Cd1 O9 2.588389 1_554
Cd2 O12 2.175216 1_555
Cd2 O13 2.175216 1_454
Cd2 O4 2.525166 1_454
Cd2 O6 2.525166 1_545
Cd2 O2 2.588388 1_544
Cd2 O8 2.588388 1_455
Cd2 O3 2.588388 1_445
Cd2 O11 2.588388 1_554
O0 Ru1 1.957871 1_555
O0 Ru3 1.957877 1_555
O0 Pb0 2.515351 1_655
O1 Ru2 1.957871 1_655
O1 Ru3 1.957877 1_555
O1 Pb0 2.515351 1_655
O2 Ru1 1.918910 1_556
O2 Ru0 1.931507 1_565
O3 Ru2 1.918910 1_655
O3 Ru0 1.931507 1_565
O4 Ru1 1.957876 1_556
O4 Ru2 1.957876 1_655
O4 Pb0 2.515345 1_656
O5 Ru3 1.918912 1_555
O5 Ru0 1.931502 1_565
O6 Ru1 1.957876 1_555
O6 Ru2 1.957876 1_555
O6 Pb0 2.515345 1_555
O7 Ru2 1.957871 1_555
O7 Ru3 1.957877 1_555
O7 Pb0 2.515351 1_556
O8 Ru1 1.918910 1_555
O8 Ru0 1.931507 1_555
O9 Ru3 1.918912 1_555
O9 Ru0 1.931502 1_555
O10 Ru1 1.957871 1_556
O10 Ru3 1.957877 1_555
O10 Pb0 2.515351 1_556
O11 Ru2 1.918910 1_555
O11 Ru0 1.931507 1_555
O12 Pb0 2.288284 1_555
O13 Pb0 2.288284 1_646
