# generated using pymatgen
data_Ca5P3F
_symmetry_space_group_name_H-M   'P 1'
_cell_length_a   6.51693845
_cell_length_b   8.24997209
_cell_length_c   8.24997263
_cell_angle_alpha   119.99999819
_cell_angle_beta   90.00000000
_cell_angle_gamma   90.00000000
_symmetry_Int_Tables_number   1
_chemical_formula_structural   Ca5P3F
_chemical_formula_sum   'Ca10 P6 F2'
_cell_volume   384.13090156
_cell_formula_units_Z   2
loop_
 _symmetry_equiv_pos_site_id
 _symmetry_equiv_pos_as_xyz
  1  'x, y, z'
loop_
 _atom_site_type_symbol
 _atom_site_label
 _atom_site_symmetry_multiplicity
 _atom_site_fract_x
 _atom_site_fract_y
 _atom_site_fract_z
 _atom_site_occupancy
  Ca  Ca0  1  0.50000000  0.33333300  0.66666700  1
  Ca  Ca1  1  0.50000000  0.66666600  0.33333300  1
  Ca  Ca2  1  0.00000000  0.66666700  0.33333300  1
  Ca  Ca3  1  0.00000000  0.33333400  0.66666700  1
  Ca  Ca4  1  0.75000000  0.24684838  0.00000000  1
  Ca  Ca5  1  0.75000000  0.75315162  0.75315162  1
  Ca  Ca6  1  0.75000000  0.00000000  0.24684838  1
  Ca  Ca7  1  0.25000000  0.75315162  0.00000000  1
  Ca  Ca8  1  0.25000000  0.24684838  0.24684838  1
  Ca  Ca9  1  0.25000000  1.00000000  0.75315162  1
  P  P0  1  0.75000000  0.60855547  0.00000000  1
  P  P1  1  0.75000000  0.39144453  0.39144453  1
  P  P2  1  0.75000000  0.00000000  0.60855547  1
  P  P3  1  0.25000000  0.39144453  0.00000000  1
  P  P4  1  0.25000000  0.60855547  0.60855547  1
  P  P5  1  0.25000000  0.00000000  0.39144453  1
  F  F0  1  0.50000000  0.00000000  0.00000000  1
  F  F1  1  0.00000000  0.00000000  0.00000000  1
loop_
_geom_bond_atom_site_label_1
_geom_bond_atom_site_label_2
_geom_bond_distance
_geom_bond_site_symmetry_2
Ca0 P2 3.021305 1_555
Ca0 P3 3.021306 1_556
Ca0 P5 3.021308 1_555
Ca0 P0 3.021308 1_556
Ca0 P4 3.021312 1_555
Ca0 P1 3.021312 1_555
Ca1 P1 3.021305 1_555
Ca1 P3 3.021306 1_555
Ca1 P4 3.021308 1_555
Ca1 P0 3.021308 1_555
Ca1 P5 3.021312 1_565
Ca1 P2 3.021312 1_565
Ca2 P5 3.021305 1_565
Ca2 P0 3.021306 1_455
Ca2 P2 3.021308 1_465
Ca2 P3 3.021308 1_555
Ca2 P1 3.021312 1_455
Ca2 P4 3.021312 1_555
Ca3 P4 3.021305 1_555
Ca3 P0 3.021306 1_456
Ca3 P1 3.021308 1_455
Ca3 P3 3.021308 1_556
Ca3 P2 3.021312 1_455
Ca3 P5 3.021312 1_555
Ca4 F0 2.608008 1_555
Ca4 F1 2.608008 1_655
Ca4 P2 2.828375 1_554
Ca4 P1 2.828375 1_555
Ca4 P0 2.984073 1_555
Ca5 F0 2.608008 1_566
Ca5 F1 2.608008 1_666
Ca5 P2 2.828375 1_565
Ca5 P0 2.828375 1_556
Ca5 P1 2.984074 1_555
Ca6 F1 2.608008 1_655
Ca6 F0 2.608008 1_555
Ca6 P1 2.828375 1_555
Ca6 P0 2.828375 1_545
Ca6 P2 2.984074 1_555
Ca7 F1 2.608008 1_565
Ca7 F0 2.608008 1_565
Ca7 P5 2.828375 1_565
Ca7 P4 2.828375 1_554
Ca7 P3 2.984073 1_555
Ca8 F0 2.608008 1_555
Ca8 F1 2.608008 1_555
Ca8 P5 2.828375 1_555
Ca8 P3 2.828375 1_555
Ca8 P4 2.984074 1_555
Ca9 F1 2.608008 1_566
Ca9 F0 2.608008 1_566
Ca9 P4 2.828375 1_555
Ca9 P3 2.828375 1_566
Ca9 P5 2.984074 1_565
