# generated using pymatgen
data_Rh2Pb(SeO3)4
_symmetry_space_group_name_H-M   'P 1'
_cell_length_a   6.76984275
_cell_length_b   9.35106665
_cell_length_c   9.12360556
_cell_angle_alpha   68.92112608
_cell_angle_beta   96.85837895
_cell_angle_gamma   90.84636090
_symmetry_Int_Tables_number   1
_chemical_formula_structural   Rh2Pb(SeO3)4
_chemical_formula_sum   'Rh4 Pb2 Se8 O24'
_cell_volume   534.82069266
_cell_formula_units_Z   2
loop_
 _symmetry_equiv_pos_site_id
 _symmetry_equiv_pos_as_xyz
  1  'x, y, z'
loop_
 _atom_site_type_symbol
 _atom_site_label
 _atom_site_symmetry_multiplicity
 _atom_site_fract_x
 _atom_site_fract_y
 _atom_site_fract_z
 _atom_site_occupancy
  Rh  Rh0  1  0.99816823  0.74920864  0.74983695  1
  Rh  Rh1  1  0.50143027  0.74857471  0.25178376  1
  Rh  Rh2  1  0.99816331  0.24920740  0.24983669  1
  Rh  Rh3  1  0.50143837  0.24856520  0.75178211  1
  Pb  Pb0  1  0.01348537  0.54748125  0.46726348  1
  Pb  Pb1  1  0.01349326  0.04747267  0.96729283  1
  Se  Se0  1  0.55134609  0.11619001  0.13514955  1
  Se  Se1  1  0.55135646  0.61618867  0.63515284  1
  Se  Se2  1  0.44895753  0.87879205  0.86895731  1
  Se  Se3  1  0.44895956  0.37881762  0.36893272  1
  Se  Se4  1  0.79064351  0.09145176  0.57458485  1
  Se  Se5  1  0.79062939  0.59146118  0.07455885  1
  Se  Se6  1  0.20470720  0.91334912  0.42279630  1
  Se  Se7  1  0.20467513  0.41335751  0.92278101  1
  O  O0  1  0.69990596  0.73040234  0.70646371  1
  O  O1  1  0.69990970  0.23039665  0.20646885  1
  O  O2  1  0.29709575  0.26829888  0.29373554  1
  O  O3  1  0.29709086  0.76830129  0.79374448  1
  O  O4  1  0.99396170  0.17107075  0.48603469  1
  O  O5  1  0.99395804  0.67107177  0.98603871  1
  O  O6  1  0.00566385  0.82163570  0.51253783  1
  O  O7  1  0.00566140  0.32163005  0.01253282  1
  O  O8  1  0.65544400  0.61707924  0.46703017  1
  O  O9  1  0.65543927  0.11707667  0.96702954  1
  O  O10  1  0.34766611  0.37978750  0.53645301  1
  O  O11  1  0.34764992  0.87979433  0.03645583  1
  O  O12  1  0.91417390  0.95693770  0.74517605  1
  O  O13  1  0.91413455  0.45694043  0.24516396  1
  O  O14  1  0.07843036  0.04035066  0.25145086  1
  O  O15  1  0.07840001  0.54035015  0.75143180  1
  O  O16  1  0.62730216  0.94021220  0.27128875  1
  O  O17  1  0.62732458  0.44021058  0.77129169  1
  O  O18  1  0.37040038  0.05683392  0.73593739  1
  O  O19  1  0.37039840  0.55683742  0.23593170  1
  O  O20  1  0.75689623  0.22407806  0.66288576  1
  O  O21  1  0.75689970  0.72409795  0.16288816  1
  O  O22  1  0.25027069  0.77284193  0.34656191  1
  O  O23  1  0.25026878  0.27284606  0.84655357  1
loop_
_geom_bond_atom_site_label_1
_geom_bond_atom_site_label_2
_geom_bond_distance
_geom_bond_site_symmetry_2
O0 Se1 1.699157 1_555
O0 Rh0 2.028146 1_555
O1 Se0 1.699199 1_555
O1 Rh2 2.028090 1_555
O2 Se3 1.704667 1_555
O2 Rh2 2.033452 1_455
O3 Se2 1.704561 1_555
O3 Rh0 2.033398 1_455
O4 Se4 1.704179 1_555
O4 Rh2 2.014954 1_555
O5 Se5 1.704106 1_556
O5 Rh0 2.014994 1_555
O6 Se6 1.716360 1_555
O6 Rh0 2.029556 1_455
O6 Pb0 2.741642 1_555
O7 Se7 1.716271 1_554
O7 Rh2 2.029602 1_455
O7 Pb1 2.741519 1_554
O8 Se1 1.760169 1_555
O8 Rh1 2.065814 1_555
O8 Pb0 2.518562 1_655
O9 Se0 1.760177 1_556
O9 Rh3 2.065769 1_555
O9 Pb1 2.518603 1_655
O10 Se3 1.751218 1_555
O10 Rh3 2.065007 1_555
O10 Pb0 2.650924 1_555
O11 Se2 1.751181 1_554
O11 Rh1 2.065015 1_555
O11 Pb1 2.650732 1_564
O12 Se4 1.736654 1_565
O12 Rh0 2.016395 1_555
O12 Pb1 2.483419 1_665
O13 Se5 1.736687 1_555
O13 Rh2 2.016460 1_555
O13 Pb0 2.483347 1_655
O14 Se6 1.720597 1_545
O14 Rh2 2.029430 1_455
O14 Pb1 2.554106 1_554
O15 Se7 1.720582 1_555
O15 Rh0 2.029444 1_455
O15 Pb0 2.554162 1_555
O16 Se0 1.708025 1_565
O16 Rh1 2.029082 1_555
O17 Se1 1.708044 1_555
O17 Rh3 2.029202 1_555
O18 Se2 1.716440 1_545
O18 Rh3 2.032519 1_555
O19 Se3 1.716242 1_555
O19 Rh1 2.032575 1_555
O20 Se4 1.735028 1_555
O20 Rh3 2.044843 1_555
O21 Se5 1.735282 1_555
O21 Rh1 2.044883 1_555
O22 Se6 1.739476 1_555
O22 Rh1 2.047922 1_555
O22 Pb0 2.622177 1_555
O23 Se7 1.739516 1_555
O23 Rh3 2.047983 1_555
O23 Pb1 2.622281 1_555
