# generated using pymatgen
data_Sc5BSe4
_symmetry_space_group_name_H-M   'P 1'
_cell_length_a   6.60968055
_cell_length_b   6.60968065
_cell_length_c   6.60968018
_cell_angle_alpha   99.45728424
_cell_angle_beta   99.45727736
_cell_angle_gamma   132.17332620
_symmetry_Int_Tables_number   1
_chemical_formula_structural   Sc5BSe4
_chemical_formula_sum   'Sc5 B1 Se4'
_cell_volume   195.63670213
_cell_formula_units_Z   1
loop_
 _symmetry_equiv_pos_site_id
 _symmetry_equiv_pos_as_xyz
  1  'x, y, z'
loop_
 _atom_site_type_symbol
 _atom_site_label
 _atom_site_symmetry_multiplicity
 _atom_site_fract_x
 _atom_site_fract_y
 _atom_site_fract_z
 _atom_site_occupancy
  Sc  Sc0  1  0.41008086  0.76238058  0.17246144  1
  Sc  Sc1  1  0.00000000  0.00000000  0.00000000  1
  Sc  Sc2  1  0.58991914  0.23761942  0.82753856  1
  Sc  Sc3  1  0.23761942  0.41008086  0.64769928  1
  Sc  Sc4  1  0.76238058  0.58991914  0.35230072  1
  B  B0  1  0.50000000  0.50000000  0.00000000  1
  Se  Se0  1  0.09344769  0.69581682  0.78926350  1
  Se  Se1  1  0.69581682  0.90655231  0.60236913  1
  Se  Se2  1  0.30418318  0.09344769  0.39763087  1
  Se  Se3  1  0.90655231  0.30418318  0.21073650  1
loop_
_geom_bond_atom_site_label_1
_geom_bond_atom_site_label_2
_geom_bond_distance
_geom_bond_site_symmetry_2
Sc0 Se3 2.703136 1_565
Sc0 Se3 2.703142 1_455
Sc0 Se1 2.734842 1_555
Sc0 Se0 2.764810 1_554
Sc0 Se2 2.970205 1_565
Sc1 Se1 2.719169 1_444
Sc1 Se2 2.719169 1_555
Sc1 Se3 2.719172 1_455
Sc1 Se0 2.719172 1_544
Sc2 Se0 2.703136 1_545
Sc2 Se0 2.703142 1_655
Sc2 Se2 2.734842 1_555
Sc2 Se3 2.764810 1_556
Sc2 Se1 2.970205 1_545
Sc3 Se1 2.703135 1_555
Sc3 Se1 2.703140 1_445
Sc3 Se0 2.734842 1_555
Sc3 Se2 2.764802 1_555
Sc3 Se3 2.970194 1_455
Sc4 Se2 2.703135 1_555
Sc4 Se2 2.703140 1_665
Sc4 Se3 2.734842 1_555
Sc4 Se1 2.764802 1_555
Sc4 Se0 2.970194 1_655
B0 Sc0 2.370078 1_555
B0 Sc2 2.370078 1_554
B0 Sc4 2.370083 1_555
B0 Sc3 2.370083 1_554
B0 Sc1 2.679263 1_665
B0 Sc1 2.679263 1_555
