# generated using pymatgen
data_Na3UF7
_symmetry_space_group_name_H-M   'P 1'
_cell_length_a   5.62744087
_cell_length_b   5.62744087
_cell_length_c   6.61814283
_cell_angle_alpha   65.64229432
_cell_angle_beta   65.64229432
_cell_angle_gamma   88.75699810
_symmetry_Int_Tables_number   1
_chemical_formula_structural   Na3UF7
_chemical_formula_sum   'Na3 U1 F7'
_cell_volume   171.12999486
_cell_formula_units_Z   1
loop_
 _symmetry_equiv_pos_site_id
 _symmetry_equiv_pos_as_xyz
  1  'x, y, z'
loop_
 _atom_site_type_symbol
 _atom_site_label
 _atom_site_symmetry_multiplicity
 _atom_site_fract_x
 _atom_site_fract_y
 _atom_site_fract_z
 _atom_site_occupancy
  Na  Na0  1  0.22389100  0.75976200  0.51649900  1
  Na  Na1  1  0.50176800  0.50176800  0.96321300  1
  Na  Na2  1  0.75976200  0.22389100  0.51649900  1
  U  U0  1  0.03682700  0.03682700  0.98069400  1
  F  F0  1  0.83643400  0.83643400  0.84660700  1
  F  F1  1  0.36836500  0.89555100  0.74985700  1
  F  F2  1  0.06418700  0.65209700  0.24428500  1
  F  F3  1  0.89555100  0.36836500  0.74985700  1
  F  F4  1  0.38948700  0.38948700  0.70819800  1
  F  F5  1  0.65209700  0.06418700  0.24428500  1
  F  F6  1  0.14663000  0.14663000  0.23000700  1
loop_
_geom_bond_atom_site_label_1
_geom_bond_atom_site_label_2
_geom_bond_distance
_geom_bond_site_symmetry_2
F0 U0 2.244328 1_665
F0 Na1 2.333555 1_555
F0 Na2 2.553561 1_565
F0 Na0 2.553561 1_655
F1 U0 2.243492 1_565
F1 Na0 2.380380 1_555
F1 Na2 2.380618 1_565
F1 Na1 2.385200 1_555
F2 U0 2.201368 1_564
F2 Na2 2.457541 1_455
F2 Na0 2.584550 1_555
F2 Na1 2.769280 1_554
F3 U0 2.243492 1_655
F3 Na2 2.380380 1_555
F3 Na0 2.380618 1_655
F3 Na1 2.385200 1_555
F4 U0 2.322897 1_555
F4 Na1 2.328838 1_555
F4 Na2 2.351631 1_555
F4 Na0 2.351631 1_555
F5 U0 2.201368 1_654
F5 Na0 2.457541 1_545
F5 Na2 2.584550 1_555
F5 Na1 2.769280 1_554
F6 U0 2.276977 1_554
F6 Na1 2.336149 1_554
F6 Na2 2.399522 1_455
F6 Na0 2.399522 1_545
