# generated using pymatgen
data_Ba3ScAs3
_symmetry_space_group_name_H-M   'P 1'
_cell_length_a   10.77892343
_cell_length_b   10.77892403
_cell_length_c   13.45381968
_cell_angle_alpha   90.00000000
_cell_angle_beta   90.00000000
_cell_angle_gamma   141.12258720
_symmetry_Int_Tables_number   1
_chemical_formula_structural   Ba3ScAs3
_chemical_formula_sum   'Ba12 Sc4 As12'
_cell_volume   981.11119164
_cell_formula_units_Z   4
loop_
 _symmetry_equiv_pos_site_id
 _symmetry_equiv_pos_as_xyz
  1  'x, y, z'
loop_
 _atom_site_type_symbol
 _atom_site_label
 _atom_site_symmetry_multiplicity
 _atom_site_fract_x
 _atom_site_fract_y
 _atom_site_fract_z
 _atom_site_occupancy
  Ba  Ba0  1  0.84625142  0.84625142  0.34252923  1
  Ba  Ba1  1  0.15374858  0.15374858  0.65747077  1
  Ba  Ba2  1  0.65374858  0.65374858  0.84252923  1
  Ba  Ba3  1  0.34625142  0.34625142  0.15747077  1
  Ba  Ba4  1  0.85138369  0.49420233  0.13311526  1
  Ba  Ba5  1  0.50579767  0.14861631  0.86688474  1
  Ba  Ba6  1  0.00579767  0.64861631  0.63311526  1
  Ba  Ba7  1  0.35138369  0.99420233  0.36688474  1
  Ba  Ba8  1  0.14861631  0.50579767  0.86688474  1
  Ba  Ba9  1  0.49420233  0.85138369  0.13311526  1
  Ba  Ba10  1  0.99420233  0.35138369  0.36688474  1
  Ba  Ba11  1  0.64861631  0.00579767  0.63311526  1
  Sc  Sc0  1  0.08542979  0.91457021  0.00000000  1
  Sc  Sc1  1  0.58542979  0.41457021  0.50000000  1
  Sc  Sc2  1  0.91457021  0.08542979  0.00000000  1
  Sc  Sc3  1  0.41457021  0.58542979  0.50000000  1
  As  As0  1  0.78888558  0.78888558  0.09769602  1
  As  As1  1  0.21111442  0.21111442  0.90230398  1
  As  As2  1  0.71111442  0.71111442  0.59769602  1
  As  As3  1  0.28888558  0.28888558  0.40230398  1
  As  As4  1  0.04490373  0.36136741  0.11982658  1
  As  As5  1  0.63863259  0.95509627  0.88017342  1
  As  As6  1  0.13863259  0.45509627  0.61982658  1
  As  As7  1  0.54490373  0.86136741  0.38017342  1
  As  As8  1  0.95509627  0.63863259  0.88017342  1
  As  As9  1  0.36136741  0.04490373  0.11982658  1
  As  As10  1  0.86136741  0.54490373  0.38017342  1
  As  As11  1  0.45509627  0.13863259  0.61982658  1
loop_
_geom_bond_atom_site_label_1
_geom_bond_atom_site_label_2
_geom_bond_distance
_geom_bond_site_symmetry_2
Ba4 Sc0 3.507839 1_655
Ba5 Sc0 3.507839 1_546
Ba6 Sc1 3.507839 1_455
Ba7 Sc1 3.507839 1_565
Ba8 Sc2 3.507839 1_456
Ba9 Sc2 3.507839 1_565
Ba10 Sc3 3.507839 1_655
Ba11 Sc3 3.507839 1_545
As0 Sc0 2.652890 1_655
As0 Sc2 2.652890 1_565
As0 Ba3 3.275886 1_555
As0 Ba0 3.319554 1_555
As0 Ba2 3.567248 1_554
As0 Ba9 3.755242 1_555
As0 Ba4 3.755242 1_555
As1 Sc2 2.652890 1_456
As1 Sc0 2.652890 1_546
As1 Ba2 3.275886 1_555
As1 Ba1 3.319554 1_555
As1 Ba3 3.567248 1_556
As1 Ba5 3.755242 1_555
As1 Ba8 3.755242 1_555
As2 Sc3 2.652890 1_555
As2 Sc1 2.652890 1_555
As2 Ba1 3.275886 1_665
As2 Ba2 3.319554 1_555
As2 Ba0 3.567248 1_555
As2 Ba6 3.755242 1_655
As2 Ba11 3.755242 1_565
As3 Sc1 2.652890 1_555
As3 Sc3 2.652890 1_555
As3 Ba0 3.275886 1_445
As3 Ba3 3.319554 1_555
As3 Ba1 3.567248 1_555
As3 Ba10 3.755242 1_455
As3 Ba7 3.755242 1_545
As4 Sc2 2.629312 1_455
As4 Ba4 3.329175 1_455
As4 Ba10 3.356610 1_455
As4 Ba9 3.399544 1_555
As4 Ba3 3.414366 1_555
As4 Ba8 3.541791 1_554
As4 Ba9 3.831514 1_445
As5 Sc2 2.629312 1_566
As5 Ba5 3.329175 1_565
As5 Ba11 3.356610 1_565
As5 Ba8 3.399544 1_555
As5 Ba2 3.414366 1_555
As5 Ba9 3.541791 1_556
As5 Ba8 3.831514 1_665
As6 Sc3 2.629312 1_555
As6 Ba6 3.329175 1_555
As6 Ba8 3.356610 1_555
As6 Ba11 3.399544 1_455
As6 Ba1 3.414366 1_555
As6 Ba10 3.541791 1_455
As6 Ba11 3.831514 1_565
As7 Sc3 2.629312 1_555
As7 Ba7 3.329175 1_555
As7 Ba9 3.356610 1_555
As7 Ba10 3.399544 1_565
As7 Ba0 3.414366 1_555
As7 Ba11 3.541791 1_565
As7 Ba10 3.831514 1_455
As8 Sc0 2.629312 1_656
As8 Ba8 3.329175 1_655
As8 Ba6 3.356610 1_655
As8 Ba5 3.399544 1_555
As8 Ba2 3.414366 1_555
As8 Ba4 3.541791 1_556
As8 Ba5 3.831514 1_665
As9 Sc0 2.629312 1_545
As9 Ba9 3.329175 1_545
As9 Ba7 3.356610 1_545
As9 Ba4 3.399544 1_555
As9 Ba3 3.414366 1_555
As9 Ba5 3.541791 1_554
As9 Ba4 3.831514 1_445
As10 Sc1 2.629312 1_555
As10 Ba10 3.329175 1_555
As10 Ba4 3.356610 1_555
As10 Ba7 3.399544 1_655
As10 Ba0 3.414366 1_555
As10 Ba6 3.541791 1_655
As10 Ba7 3.831514 1_545
As11 Sc1 2.629312 1_555
As11 Ba11 3.329175 1_555
As11 Ba5 3.356610 1_555
As11 Ba6 3.399544 1_545
As11 Ba1 3.414366 1_555
As11 Ba7 3.541791 1_545
As11 Ba6 3.831514 1_655
