# generated using pymatgen
data_Hf6Si5AsRu6
_symmetry_space_group_name_H-M   'P 1'
_cell_length_a   7.56258868
_cell_length_b   7.56705986
_cell_length_c   7.56553756
_cell_angle_alpha   128.02972461
_cell_angle_beta   121.50416293
_cell_angle_gamma   82.06289857
_symmetry_Int_Tables_number   1
_chemical_formula_structural   Hf6Si5AsRu6
_chemical_formula_sum   'Hf6 Si5 As1 Ru6'
_cell_volume   279.65647809
_cell_formula_units_Z   1
loop_
 _symmetry_equiv_pos_site_id
 _symmetry_equiv_pos_as_xyz
  1  'x, y, z'
loop_
 _atom_site_type_symbol
 _atom_site_label
 _atom_site_symmetry_multiplicity
 _atom_site_fract_x
 _atom_site_fract_y
 _atom_site_fract_z
 _atom_site_occupancy
  Hf  Hf0  1  0.46668656  0.70098057  0.72779151  1
  Hf  Hf1  1  0.52641069  0.25512100  0.22380265  1
  Hf  Hf2  1  0.74617248  0.83423427  0.58170104  1
  Hf  Hf3  1  0.25726724  0.83834270  0.08774327  1
  Hf  Hf4  1  0.05361988  0.25280476  0.70389480  1
  Hf  Hf5  1  0.94875177  0.65252318  0.20868035  1
  Si  Si0  1  0.27455313  0.27056422  0.49641913  1
  Si  Si1  1  0.72497687  0.22112878  0.99511694  1
  Si  Si2  1  0.32819491  0.58719312  0.24992685  1
  Si  Si3  1  0.67398347  0.92197414  0.25939905  1
  Si  Si4  1  0.16040524  0.92181758  0.74959054  1
  As  As0  1  0.83875570  0.58783819  0.76032200  1
  Ru  Ru0  1  0.49989164  0.49858927  0.99855298  1
  Ru  Ru1  1  0.00239004  0.49953291  0.49630585  1
  Ru  Ru2  1  0.09744845  0.25306053  0.10299439  1
  Ru  Ru3  1  0.90356528  0.01109720  0.16136563  1
  Ru  Ru4  1  0.34924122  0.00565618  0.60339443  1
  Ru  Ru5  1  0.64768544  0.24714139  0.65259860  1
loop_
_geom_bond_atom_site_label_1
_geom_bond_atom_site_label_2
_geom_bond_distance
_geom_bond_site_symmetry_2
Hf0 Si4 2.678725 1_555
Hf0 Si3 2.697631 1_556
Hf0 Si2 2.713837 1_555
Hf0 Si0 2.721655 1_555
Hf0 Ru4 2.867797 1_565
Hf0 Ru3 2.917664 1_566
Hf0 Ru1 3.079271 1_555
Hf0 Ru0 3.134713 1_555
Hf1 Si2 2.694028 1_555
Hf1 Si4 2.700810 1_544
Hf1 Si1 2.715668 1_554
Hf1 Si3 2.723710 1_545
Hf1 Ru2 2.873530 1_555
Hf1 Ru5 2.912958 1_555
Hf1 Ru0 3.122131 1_554
Hf1 Ru1 3.164304 1_655
Hf2 Si3 2.681037 1_555
Hf2 Si4 2.691429 1_655
Hf2 Si2 2.710162 1_555
Hf2 Si1 2.737019 1_565
Hf2 Ru0 2.880277 1_554
Hf2 Ru5 2.883537 1_565
Hf2 Ru1 2.919491 1_655
Hf2 Ru2 2.937733 1_666
Hf2 Ru4 3.146068 1_565
Hf2 Ru3 3.192650 1_566
Hf3 Si3 2.698052 1_555
Hf3 Si2 2.703487 1_555
Hf3 Si4 2.717584 1_554
Hf3 Si0 2.740362 1_565
Hf3 Ru0 2.878445 1_554
Hf3 Ru1 2.919910 1_554
Hf3 Ru4 2.937251 1_565
Hf3 Ru3 2.978003 1_465
Hf3 Ru5 3.097792 1_565
Hf3 Ru2 3.158241 1_565
Hf4 Si4 2.694662 1_545
Hf4 Si3 2.709287 1_445
Hf4 Si2 2.717785 1_556
Hf4 Ru3 2.816993 1_455
Hf4 Ru4 2.818455 1_555
Hf4 Ru2 2.858964 1_556
Hf4 Si0 2.887294 1_555
Hf4 Ru5 2.889209 1_455
Hf4 Ru0 2.929317 1_555
Hf4 Ru1 2.979852 1_555
Hf5 Si4 2.690966 1_655
Hf5 Si3 2.705864 1_555
Hf5 Si2 2.727389 1_655
Hf5 Ru2 2.839706 1_655
Hf5 Ru4 2.860375 1_665
Hf5 Ru1 2.879531 1_655
Hf5 Si1 2.880968 1_554
Hf5 Ru5 2.882681 1_554
Hf5 Ru3 2.901726 1_565
Hf5 Ru0 2.928732 1_554
As0 Ru5 2.570573 1_555
As0 Ru3 2.570967 1_566
As0 Ru1 2.584192 1_655
As0 Hf3 2.724730 1_656
As0 Hf1 2.724768 1_555
As0 Hf4 2.739292 1_655
As0 Hf2 2.747337 1_555
As0 Hf5 2.748704 1_556
As0 Hf0 2.753476 1_555
Ru0 Si0 2.506508 1_555
Ru0 Si1 2.509658 1_555
Ru0 Si2 2.553749 1_556
Ru0 Si3 2.559563 1_556
Ru0 Ru4 2.832465 1_555
Ru0 Ru5 2.837953 1_555
Ru1 Si0 2.500701 1_555
Ru1 Si1 2.506259 1_454
Ru1 Si4 2.535266 1_555
Ru1 Ru2 2.806578 1_555
Ru1 Ru3 2.807845 1_455
Ru2 Si0 2.463248 1_555
Ru2 Si1 2.490263 1_454
Ru2 Si4 2.530105 1_544
Ru2 Si2 2.530169 1_555
Ru3 Si1 2.454965 1_554
Ru3 Si0 2.471489 1_655
Ru3 Si3 2.510956 1_545
Ru4 Si1 2.457696 1_555
Ru4 Si0 2.490156 1_555
Ru4 Si4 2.535917 1_545
Ru4 Si2 2.542486 1_545
Ru5 Si0 2.454709 1_555
Ru5 Si1 2.471660 1_555
Ru5 Si3 2.531314 1_545
