# generated using pymatgen
data_ZrNi4Sn
_symmetry_space_group_name_H-M   'P 1'
_cell_length_a   4.89850061
_cell_length_b   4.89850061
_cell_length_c   4.89850061
_cell_angle_alpha   60.00000000
_cell_angle_beta   60.00000000
_cell_angle_gamma   60.00000000
_symmetry_Int_Tables_number   1
_chemical_formula_structural   ZrNi4Sn
_chemical_formula_sum   'Zr1 Ni4 Sn1'
_cell_volume   83.11406086
_cell_formula_units_Z   1
loop_
 _symmetry_equiv_pos_site_id
 _symmetry_equiv_pos_as_xyz
  1  'x, y, z'
loop_
 _atom_site_type_symbol
 _atom_site_label
 _atom_site_symmetry_multiplicity
 _atom_site_fract_x
 _atom_site_fract_y
 _atom_site_fract_z
 _atom_site_occupancy
  Zr  Zr0  1  0.00000000  0.00000000  0.00000000  1
  Ni  Ni0  1  0.37463300  0.37463300  0.37463300  1
  Ni  Ni1  1  0.37463300  0.37463300  0.87610000  1
  Ni  Ni2  1  0.37463300  0.87610000  0.37463300  1
  Ni  Ni3  1  0.87610000  0.37463300  0.37463300  1
  Sn  Sn0  1  0.75000000  0.75000000  0.75000000  1
loop_
_geom_bond_atom_site_label_1
_geom_bond_atom_site_label_2
_geom_bond_distance
_geom_bond_site_symmetry_2
Ni0 Ni2 2.442064 1_545
Ni0 Ni3 2.442064 1_455
Ni0 Ni1 2.442064 1_554
Ni0 Ni1 2.456436 1_555
Ni0 Ni2 2.456436 1_555
Ni0 Ni3 2.456436 1_555
Ni0 Zr0 2.871237 1_556
Ni0 Zr0 2.871237 1_655
Ni0 Zr0 2.871237 1_565
Ni0 Sn0 2.872770 1_545
Ni0 Sn0 2.872770 1_554
Ni0 Sn0 2.872770 1_455
Ni1 Ni3 2.442064 1_456
Ni1 Ni2 2.442064 1_546
Ni1 Ni2 2.456436 1_555
Ni1 Ni3 2.456436 1_555
Ni1 Zr0 2.871235 1_556
Ni1 Zr0 2.871239 1_656
Ni1 Zr0 2.871239 1_566
Ni1 Sn0 2.872768 1_545
Ni1 Sn0 2.872768 1_455
Ni1 Sn0 2.872772 1_555
Ni2 Ni3 2.442064 1_465
Ni2 Ni3 2.456436 1_555
Ni2 Zr0 2.871235 1_565
Ni2 Zr0 2.871239 1_665
Ni2 Zr0 2.871239 1_566
Ni2 Sn0 2.872768 1_554
Ni2 Sn0 2.872768 1_455
Ni2 Sn0 2.872772 1_555
Ni3 Zr0 2.871235 1_655
Ni3 Zr0 2.871239 1_656
Ni3 Zr0 2.871239 1_665
Ni3 Sn0 2.872768 1_545
Ni3 Sn0 2.872768 1_554
Ni3 Sn0 2.872772 1_555
Sn0 Zr0 2.999707 1_566
Sn0 Zr0 2.999707 1_656
Sn0 Zr0 2.999707 1_665
Sn0 Zr0 2.999707 1_666
