# generated using pymatgen
data_U2Al19Co6
_symmetry_space_group_name_H-M   'P 1'
_cell_length_a   10.61423282
_cell_length_b   10.61423282
_cell_length_c   8.15856288
_cell_angle_alpha   78.53480461
_cell_angle_beta   78.53480461
_cell_angle_gamma   68.88765755
_symmetry_Int_Tables_number   1
_chemical_formula_structural   U2Al19Co6
_chemical_formula_sum   'U4 Al38 Co12'
_cell_volume   832.18189865
_cell_formula_units_Z   2
loop_
 _symmetry_equiv_pos_site_id
 _symmetry_equiv_pos_as_xyz
  1  'x, y, z'
loop_
 _atom_site_type_symbol
 _atom_site_label
 _atom_site_symmetry_multiplicity
 _atom_site_fract_x
 _atom_site_fract_y
 _atom_site_fract_z
 _atom_site_occupancy
  U  U0  1  0.28114600  0.28114600  0.74550700  1
  U  U1  1  0.71885400  0.71885400  0.25449300  1
  U  U2  1  0.28148900  0.28148900  0.22369100  1
  U  U3  1  0.71851100  0.71851100  0.77630900  1
  Al  Al0  1  0.20064300  0.85322100  0.63715500  1
  Al  Al1  1  0.53376000  0.18581100  0.94585600  1
  Al  Al2  1  0.32948500  0.56628900  0.15496800  1
  Al  Al3  1  0.81426300  0.48446100  0.55140900  1
  Al  Al4  1  0.00189700  0.50287200  0.76055600  1
  Al  Al5  1  0.49712800  0.99810300  0.23944400  1
  Al  Al6  1  0.16757400  0.83242600  0.00000000  1
  Al  Al7  1  0.90979700  0.90979700  0.18566300  1
  Al  Al8  1  0.09020300  0.09020300  0.81433700  1
  Al  Al9  1  0.91759100  0.91759100  0.64483200  1
  Al  Al10  1  0.56628900  0.32948500  0.15496800  1
  Al  Al11  1  0.81418900  0.46624000  0.05414400  1
  Al  Al12  1  0.08240900  0.08240900  0.35516800  1
  Al  Al13  1  0.83242600  0.16757400  0.00000000  1
  Al  Al14  1  0.43371100  0.67051500  0.84503200  1
  Al  Al15  1  0.70041200  0.93103900  0.46692900  1
  Al  Al16  1  0.06896100  0.29958800  0.53307100  1
  Al  Al17  1  0.79935700  0.14677900  0.36284500  1
  Al  Al18  1  0.27887100  0.05433800  0.04628600  1
  Al  Al19  1  0.94566200  0.72112900  0.95371400  1
  Al  Al20  1  0.18581100  0.53376000  0.94585600  1
  Al  Al21  1  0.85322100  0.20064300  0.63715500  1
  Al  Al22  1  0.29958800  0.06896100  0.53307100  1
  Al  Al23  1  0.32782100  0.56328400  0.64823600  1
  Al  Al24  1  0.05433800  0.27887100  0.04628600  1
  Al  Al25  1  0.18573700  0.51553900  0.44859100  1
  Al  Al26  1  0.93103900  0.70041200  0.46692900  1
  Al  Al27  1  0.56328400  0.32782100  0.64823600  1
  Al  Al28  1  0.67051500  0.43371100  0.84503200  1
  Al  Al29  1  0.67217900  0.43671600  0.35176400  1
  Al  Al30  1  0.72112900  0.94566200  0.95371400  1
  Al  Al31  1  0.14677900  0.79935700  0.36284500  1
  Al  Al32  1  0.46624000  0.81418900  0.05414400  1
  Al  Al33  1  0.51553900  0.18573700  0.44859100  1
  Al  Al34  1  0.48446100  0.81426300  0.55140900  1
  Al  Al35  1  0.50287200  0.00189700  0.76055600  1
  Al  Al36  1  0.43671600  0.67217900  0.35176400  1
  Al  Al37  1  0.99810300  0.49712800  0.23944400  1
  Co  Co0  1  0.32040900  0.92185600  0.81105700  1
  Co  Co1  1  0.08155700  0.68664700  0.67008100  1
  Co  Co2  1  0.56406300  0.56406300  0.09250000  1
  Co  Co3  1  0.92185600  0.32040900  0.81105700  1
  Co  Co4  1  0.31335300  0.91844300  0.32991900  1
  Co  Co5  1  0.43593700  0.43593700  0.90750000  1
  Co  Co6  1  0.43904700  0.43904700  0.40513200  1
  Co  Co7  1  0.91844300  0.31335300  0.32991900  1
  Co  Co8  1  0.67959100  0.07814400  0.18894300  1
  Co  Co9  1  0.68664700  0.08155700  0.67008100  1
  Co  Co10  1  0.56095300  0.56095300  0.59486800  1
  Co  Co11  1  0.07814400  0.67959100  0.18894300  1
loop_
_geom_bond_atom_site_label_1
_geom_bond_atom_site_label_2
_geom_bond_distance
_geom_bond_site_symmetry_2
Al0 Co0 2.440240 1_555
Al0 Co1 2.466183 1_555
Al0 Co4 2.628341 1_555
Al0 Al34 2.848754 1_555
Al1 Co5 2.457139 1_555
Al1 Co8 2.584616 1_556
Al1 Al30 2.605857 1_545
Al1 Al27 2.617044 1_555
Al1 Al10 2.646357 1_556
Al1 Co9 2.676704 1_555
Al1 Al35 2.834608 1_555
Al1 Al5 2.854582 1_546
Al1 U2 3.143653 1_556
Al1 U0 3.164700 1_555
Al2 Co2 2.432626 1_555
Al2 Co6 2.461362 1_555
Al2 Co11 2.483447 1_555
Al2 Co5 2.518868 1_554
Al2 Al25 2.642502 1_555
Al2 Al20 2.646357 1_554
Al2 U2 3.167662 1_555
Al3 Co10 2.485322 1_555
Al3 Co7 2.617294 1_555
Al3 Co3 2.624209 1_555
Al3 Al37 2.895214 1_555
Al3 Al4 2.946208 1_655
Al3 U3 3.134180 1_555
Al3 U1 3.138087 1_555
Al4 Co3 2.317606 1_455
Al4 Co1 2.330746 1_555
Al4 U0 3.046990 1_555
Al4 U3 3.050657 1_455
Al5 Co8 2.317606 1_565
Al5 Co4 2.330746 1_555
Al5 U1 3.046990 1_555
Al5 U2 3.050657 1_565
Al6 Co0 2.332889 1_554
Al6 Co11 2.332889 1_555
Al7 Co11 2.451895 1_655
Al7 Co8 2.451895 1_565
Al7 U1 3.253406 1_555
Al8 Co0 2.451895 1_545
Al8 Co3 2.451895 1_455
Al8 U0 3.253406 1_555
Al9 Co1 2.438981 1_655
Al9 Co9 2.438981 1_565
Al9 U3 3.390473 1_555
Al10 Co2 2.432626 1_555
Al10 Co6 2.461362 1_555
Al10 Co8 2.483447 1_555
Al10 Co5 2.518868 1_554
Al10 Al33 2.642502 1_555
Al10 U2 3.167662 1_555
Al11 Co2 2.457139 1_555
Al11 Co3 2.584616 1_554
Al11 Al24 2.605857 1_655
Al11 Al29 2.617044 1_555
Al11 Al28 2.646357 1_554
Al11 Co7 2.676704 1_555
Al11 Al37 2.834608 1_555
Al11 Al4 2.854582 1_654
Al11 U3 3.143653 1_554
Al11 U1 3.164700 1_555
Al12 Co7 2.438981 1_455
Al12 Co4 2.438981 1_545
Al12 U2 3.390473 1_555
Al13 Co3 2.332889 1_554
Al13 Co8 2.332889 1_555
Al14 Co5 2.432626 1_555
Al14 Co10 2.461362 1_555
Al14 Co0 2.483447 1_555
Al14 Co2 2.518868 1_556
Al14 Al34 2.642502 1_555
Al14 Al32 2.646357 1_556
Al14 U3 3.167662 1_555
Al15 Co9 2.471661 1_565
Al15 Co8 2.484628 1_565
Al15 Al33 2.704764 1_565
Al15 Al34 2.888664 1_555
Al15 U3 3.018889 1_555
Al15 U1 3.035431 1_555
Al16 Co7 2.471661 1_455
Al16 Co3 2.484628 1_455
Al16 Al3 2.704764 1_455
Al16 Al25 2.888664 1_555
Al16 U2 3.018889 1_555
Al16 U0 3.035431 1_555
Al17 Co8 2.440240 1_555
Al17 Co7 2.466183 1_555
Al17 Co9 2.628341 1_555
Al17 Al33 2.848754 1_555
Al18 Co0 2.478844 1_544
Al18 Co4 2.489729 1_545
Al18 Al32 2.605857 1_545
Al18 U2 3.059458 1_555
Al18 U0 3.080206 1_554
Al19 Co11 2.478844 1_656
Al19 Co1 2.489729 1_655
Al19 Al20 2.605857 1_655
Al19 U3 3.059458 1_555
Al19 U1 3.080206 1_556
Al20 Co5 2.457139 1_555
Al20 Co11 2.584616 1_556
Al20 Al23 2.617044 1_555
Al20 Co1 2.676704 1_555
Al20 Al4 2.834608 1_555
Al20 Al37 2.854582 1_456
Al20 U2 3.143653 1_556
Al20 U0 3.164700 1_555
Al21 Co3 2.440240 1_555
Al21 Co9 2.466183 1_555
Al21 Co7 2.628341 1_555
Al21 Al3 2.848754 1_555
Al22 Co4 2.471661 1_545
Al22 Co0 2.484628 1_545
Al22 Al34 2.704764 1_545
Al22 Al33 2.888664 1_555
Al22 U2 3.018889 1_555
Al22 U0 3.035431 1_555
Al23 Co10 2.417702 1_555
Al23 Co1 2.453712 1_555
Al23 Co6 2.460458 1_555
Al23 Co5 2.515761 1_555
Al23 Al25 2.653215 1_555
Al23 U0 3.132257 1_555
Al24 Co3 2.478844 1_454
Al24 Co7 2.489729 1_455
Al24 U2 3.059458 1_555
Al24 U0 3.080206 1_554
Al25 Co6 2.485322 1_555
Al25 Co1 2.617294 1_555
Al25 Co11 2.624209 1_555
Al25 Al26 2.704764 1_455
Al25 Al31 2.848754 1_555
Al25 Al4 2.895214 1_555
Al25 Al37 2.946208 1_455
Al25 U2 3.134180 1_555
Al25 U0 3.138087 1_555
Al26 Co1 2.471661 1_655
Al26 Co11 2.484628 1_655
Al26 Al3 2.888664 1_555
Al26 U3 3.018889 1_555
Al26 U1 3.035431 1_555
Al27 Co10 2.417702 1_555
Al27 Co9 2.453712 1_555
Al27 Co6 2.460458 1_555
Al27 Co5 2.515761 1_555
Al27 Al33 2.653215 1_555
Al27 U0 3.132257 1_555
Al28 Co5 2.432626 1_555
Al28 Co10 2.461362 1_555
Al28 Co3 2.483447 1_555
Al28 Co2 2.518868 1_556
Al28 Al3 2.642502 1_555
Al28 U3 3.167662 1_555
Al29 Co6 2.417702 1_555
Al29 Co7 2.453712 1_555
Al29 Co10 2.460458 1_555
Al29 Co2 2.515761 1_555
Al29 Al3 2.653215 1_555
Al29 U1 3.132257 1_555
Al30 Co8 2.478844 1_566
Al30 Co9 2.489729 1_565
Al30 U3 3.059458 1_555
Al30 U1 3.080206 1_556
Al31 Co11 2.440240 1_555
Al31 Co4 2.466183 1_555
Al31 Co1 2.628341 1_555
Al32 Co2 2.457139 1_555
Al32 Co0 2.584616 1_554
Al32 Al36 2.617044 1_555
Al32 Co4 2.676704 1_555
Al32 Al5 2.834608 1_555
Al32 Al35 2.854582 1_564
Al32 U3 3.143653 1_554
Al32 U1 3.164700 1_555
Al33 Co6 2.485322 1_555
Al33 Co9 2.617294 1_555
Al33 Co8 2.624209 1_555
Al33 Al35 2.895214 1_555
Al33 Al5 2.946208 1_545
Al33 U2 3.134180 1_555
Al33 U0 3.138087 1_555
Al34 Co10 2.485322 1_555
Al34 Co4 2.617294 1_555
Al34 Co0 2.624209 1_555
Al34 Al36 2.653215 1_555
Al34 Al5 2.895214 1_555
Al34 Al35 2.946208 1_565
Al34 U3 3.134180 1_555
Al34 U1 3.138087 1_555
Al35 Co0 2.317606 1_545
Al35 Co9 2.330746 1_555
Al35 U0 3.046990 1_555
Al35 U3 3.050657 1_545
Al36 Co6 2.417702 1_555
Al36 Co4 2.453712 1_555
Al36 Co10 2.460458 1_555
Al36 Co2 2.515761 1_555
Al36 U1 3.132257 1_555
Al37 Co11 2.317606 1_655
Al37 Co7 2.330746 1_555
Al37 U1 3.046990 1_555
Al37 U2 3.050657 1_655
Co2 U3 3.256257 1_554
Co2 U1 3.288866 1_555
Co5 U2 3.256257 1_556
Co5 U0 3.288866 1_555
Co6 U0 3.413585 1_555
Co6 U2 3.430443 1_555
Co10 U1 3.413585 1_555
Co10 U3 3.430443 1_555
