# generated using pymatgen
data_ErPb3
_symmetry_space_group_name_H-M   'P 1'
_cell_length_a   4.83720705
_cell_length_b   4.83720705
_cell_length_c   4.83720705
_cell_angle_alpha   90.00000000
_cell_angle_beta   90.00000000
_cell_angle_gamma   90.00000000
_symmetry_Int_Tables_number   1
_chemical_formula_structural   ErPb3
_chemical_formula_sum   'Er1 Pb3'
_cell_volume   113.18373765
_cell_formula_units_Z   1
loop_
 _symmetry_equiv_pos_site_id
 _symmetry_equiv_pos_as_xyz
  1  'x, y, z'
loop_
 _atom_site_type_symbol
 _atom_site_label
 _atom_site_symmetry_multiplicity
 _atom_site_fract_x
 _atom_site_fract_y
 _atom_site_fract_z
 _atom_site_occupancy
  Er  Er0  1  0.00000000  -0.00000000  0.00000000  1
  Pb  Pb0  1  0.00000000  0.50000000  0.50000000  1
  Pb  Pb1  1  0.50000000  0.50000000  0.00000000  1
  Pb  Pb2  1  0.50000000  -0.00000000  0.50000000  1
loop_
_geom_bond_atom_site_label_1
_geom_bond_atom_site_label_2
_geom_bond_distance
_geom_bond_site_symmetry_2
Er0 Pb0 3.420422 1_555
Er0 Pb0 3.420422 1_544
Er0 Pb0 3.420422 1_545
Er0 Pb2 3.420422 1_554
Er0 Pb1 3.420422 1_445
Er0 Pb2 3.420422 1_454
Er0 Pb1 3.420422 1_545
Er0 Pb1 3.420422 1_555
Er0 Pb0 3.420422 1_554
Er0 Pb2 3.420422 1_555
Er0 Pb1 3.420422 1_455
Er0 Pb2 3.420422 1_455
Pb0 Pb1 3.420422 1_556
Pb0 Pb2 3.420422 1_465
Pb0 Pb2 3.420422 1_455
Pb0 Pb2 3.420422 1_565
Pb0 Pb1 3.420422 1_555
Pb0 Pb2 3.420422 1_555
Pb0 Pb1 3.420422 1_455
Pb0 Pb1 3.420422 1_456
Pb1 Pb2 3.420422 1_554
Pb1 Pb2 3.420422 1_565
Pb1 Pb2 3.420422 1_555
Pb1 Pb2 3.420422 1_564
