# generated using pymatgen
data_ZrP2Cl8O3
_symmetry_space_group_name_H-M   'P 1'
_cell_length_a   8.66378729
_cell_length_b   9.04234936
_cell_length_c   10.75626674
_cell_angle_alpha   71.28251001
_cell_angle_beta   72.28711058
_cell_angle_gamma   66.82006213
_symmetry_Int_Tables_number   1
_chemical_formula_structural   ZrP2Cl8O3
_chemical_formula_sum   'Zr2 P4 Cl16 O6'
_cell_volume   718.17864175
_cell_formula_units_Z   2
loop_
 _symmetry_equiv_pos_site_id
 _symmetry_equiv_pos_as_xyz
  1  'x, y, z'
loop_
 _atom_site_type_symbol
 _atom_site_label
 _atom_site_symmetry_multiplicity
 _atom_site_fract_x
 _atom_site_fract_y
 _atom_site_fract_z
 _atom_site_occupancy
  Zr  Zr0  1  0.90187516  0.79307297  0.23863048  1
  Zr  Zr1  1  0.09812484  0.20692703  0.76136952  1
  P  P0  1  0.78700810  0.20583934  0.06529787  1
  P  P1  1  0.22796279  0.81081100  0.36749177  1
  P  P2  1  0.21299190  0.79416066  0.93470213  1
  P  P3  1  0.77203721  0.18918900  0.63250823  1
  Cl  Cl0  1  0.53769627  0.27284843  0.06879679  1
  Cl  Cl1  1  0.78894132  0.19106601  0.44592640  1
  Cl  Cl2  1  0.03787015  0.49979534  0.28774994  1
  Cl  Cl3  1  0.46230373  0.72715157  0.93120321  1
  Cl  Cl4  1  0.25824280  0.19444187  0.91336203  1
  Cl  Cl5  1  0.29705196  0.00142105  0.25515566  1
  Cl  Cl6  1  0.32420153  0.19083073  0.56769058  1
  Cl  Cl7  1  0.81292900  0.39538841  0.10267555  1
  Cl  Cl8  1  0.41563751  0.61109777  0.32758245  1
  Cl  Cl9  1  0.18707100  0.60461159  0.89732445  1
  Cl  Cl10  1  0.70294804  0.99857895  0.74484434  1
  Cl  Cl11  1  0.58436249  0.38890223  0.67241755  1
  Cl  Cl12  1  0.67579847  0.80916927  0.43230942  1
  Cl  Cl13  1  0.74175720  0.80555813  0.08663797  1
  Cl  Cl14  1  0.21105868  0.80893399  0.55407360  1
  Cl  Cl15  1  0.96212985  0.50020466  0.71225006  1
  O  O0  1  0.93646587  0.18100529  0.65326571  1
  O  O1  1  0.83234144  0.05957011  0.17880747  1
  O  O2  1  0.16765856  0.94042989  0.82119253  1
  O  O3  1  0.06353413  0.81899471  0.34673429  1
  O  O4  1  0.11689563  0.81300209  0.07286658  1
  O  O5  1  0.88310437  0.18699791  0.92713342  1
loop_
_geom_bond_atom_site_label_1
_geom_bond_atom_site_label_2
_geom_bond_distance
_geom_bond_site_symmetry_2
Cl0 P0 1.992219 1_555
Cl1 P3 1.962327 1_555
Cl2 Zr0 2.391612 1_455
Cl3 P2 1.992219 1_555
Cl4 Zr1 2.397548 1_555
Cl5 P1 1.955617 1_545
Cl6 Zr1 2.384291 1_555
Cl7 P0 1.987456 1_555
Cl8 P1 1.962268 1_555
Cl9 P2 1.987456 1_555
Cl10 P3 1.955617 1_565
Cl11 P3 1.962268 1_555
Cl12 Zr0 2.384291 1_555
Cl13 Zr0 2.397548 1_555
Cl14 P1 1.962327 1_555
Cl15 Zr1 2.391612 1_655
O0 P3 1.478070 1_555
O0 Zr1 2.189292 1_655
O1 P0 1.496899 1_555
O1 Zr0 2.163740 1_545
O2 P2 1.496899 1_555
O2 Zr1 2.163740 1_565
O3 P1 1.478070 1_555
O3 Zr0 2.189292 1_455
O4 P2 1.492891 1_554
O4 Zr0 2.172293 1_455
O5 P0 1.492891 1_556
O5 Zr1 2.172293 1_655
