# generated using pymatgen
data_Ta2Se4O13
_symmetry_space_group_name_H-M   'P 1'
_cell_length_a   6.69368757
_cell_length_b   7.47240793
_cell_length_c   11.43758554
_cell_angle_alpha   71.12067415
_cell_angle_beta   90.00000000
_cell_angle_gamma   90.00000000
_symmetry_Int_Tables_number   1
_chemical_formula_structural   Ta2Se4O13
_chemical_formula_sum   'Ta4 Se8 O26'
_cell_volume   541.30782883
_cell_formula_units_Z   2
loop_
 _symmetry_equiv_pos_site_id
 _symmetry_equiv_pos_as_xyz
  1  'x, y, z'
loop_
 _atom_site_type_symbol
 _atom_site_label
 _atom_site_symmetry_multiplicity
 _atom_site_fract_x
 _atom_site_fract_y
 _atom_site_fract_z
 _atom_site_occupancy
  Ta  Ta0  1  0.50295221  0.91600873  0.39643103  1
  Ta  Ta1  1  0.49704779  0.41600873  0.39643103  1
  Ta  Ta2  1  0.99458101  0.85171081  0.04836749  1
  Ta  Ta3  1  0.00541899  0.35171081  0.04836749  1
  Se  Se0  1  0.51827834  0.89628951  0.70804079  1
  Se  Se1  1  0.48172166  0.39628951  0.70804079  1
  Se  Se2  1  0.06967653  0.05286005  0.72127338  1
  Se  Se3  1  0.93032347  0.55286005  0.72127338  1
  Se  Se4  1  0.05122733  0.67339547  0.38598787  1
  Se  Se5  1  0.94877267  0.17339547  0.38598787  1
  Se  Se6  1  0.55071909  0.58994043  0.05810619  1
  Se  Se7  1  0.44928091  0.08994043  0.05810619  1
  O  O0  1  0.10237336  0.50339133  0.63402830  1
  O  O1  1  0.89762664  0.00339133  0.63402830  1
  O  O2  1  0.58347892  0.69967132  0.81563101  1
  O  O3  1  0.41652108  0.19967132  0.81563101  1
  O  O4  1  0.24485087  0.86589703  0.72245913  1
  O  O5  1  0.75514913  0.36589703  0.72245913  1
  O  O6  1  0.57545206  0.66031502  0.40302873  1
  O  O7  1  0.42454794  0.16031502  0.40302873  1
  O  O8  1  0.52950848  0.81988519  0.57920174  1
  O  O9  1  0.47049152  0.31988519  0.57920174  1
  O  O10  1  0.21306081  0.84134327  0.40397330  1
  O  O11  1  0.78693919  0.34134327  0.40397330  1
  O  O12  1  0.99400224  0.26712665  0.23241706  1
  O  O13  1  0.00599776  0.76712665  0.23241706  1
  O  O14  1  0.29270465  0.27399244  0.05662086  1
  O  O15  1  0.70729535  0.77399244  0.05662086  1
  O  O16  1  0.28685330  0.92141214  0.04218062  1
  O  O17  1  0.71314670  0.42141214  0.04218062  1
  O  O18  1  0.02303759  0.43681006  0.86735730  1
  O  O19  1  0.97696241  0.93681006  0.86735730  1
  O  O20  1  0.92529113  0.10060396  0.05168804  1
  O  O21  1  0.07470887  0.60060396  0.05168804  1
  O  O22  1  0.48650229  0.99984213  0.21412081  1
  O  O23  1  0.51349771  0.49984213  0.21412081  1
  O  O24  1  0.20959544  0.49320546  0.38308732  1
  O  O25  1  0.79040456  0.99320546  0.38308732  1
loop_
_geom_bond_atom_site_label_1
_geom_bond_atom_site_label_2
_geom_bond_distance
_geom_bond_site_symmetry_2
O0 Se3 1.642375 1_455
O1 Se2 1.642375 1_655
O2 Se0 1.641137 1_555
O3 Se1 1.641137 1_555
O4 Se2 1.820608 1_565
O4 Se0 1.845076 1_555
O5 Se3 1.820608 1_555
O5 Se1 1.845076 1_555
O6 Ta1 1.924300 1_555
O6 Ta0 1.948966 1_555
O7 Ta0 1.924300 1_545
O7 Ta1 1.948966 1_555
O8 Se0 1.745734 1_555
O8 Ta0 1.986406 1_555
O9 Se1 1.745734 1_555
O9 Ta1 1.986406 1_555
O10 Se4 1.719827 1_555
O10 Ta0 2.013181 1_555
O11 Se5 1.719827 1_555
O11 Ta1 2.013181 1_555
O12 Se5 1.694487 1_555
O12 Ta3 1.993904 1_655
O13 Se4 1.694487 1_555
O13 Ta2 1.993904 1_455
O14 Se7 1.724850 1_555
O14 Ta3 2.002156 1_555
O15 Se6 1.724850 1_555
O15 Ta2 2.002156 1_555
O16 Se7 1.717435 1_565
O16 Ta2 2.019863 1_455
O17 Se6 1.717435 1_555
O17 Ta3 2.019863 1_655
O18 Se3 1.729507 1_455
O18 Ta3 1.962782 1_556
O19 Se2 1.729507 1_665
O19 Ta2 1.962782 1_556
O20 Ta2 1.929052 1_545
O20 Ta3 1.940044 1_655
O21 Ta3 1.929052 1_555
O21 Ta2 1.940044 1_455
O22 Se7 1.709405 1_565
O22 Ta0 1.976670 1_555
O23 Se6 1.709405 1_555
O23 Ta1 1.976670 1_555
O24 Se4 1.722407 1_555
O24 Ta1 2.000323 1_555
O25 Se5 1.722407 1_565
O25 Ta0 2.000323 1_555
