# generated using pymatgen
data_Lu6B14OsW
_symmetry_space_group_name_H-M   'P 1'
_cell_length_a   7.91677315
_cell_length_b   7.91677311
_cell_length_c   9.23407619
_cell_angle_alpha   90.00000000
_cell_angle_beta   90.00000000
_cell_angle_gamma   154.93383023
_symmetry_Int_Tables_number   1
_chemical_formula_structural   Lu6B14OsW
_chemical_formula_sum   'Lu6 B14 Os1 W1'
_cell_volume   245.19527004
_cell_formula_units_Z   1
loop_
 _symmetry_equiv_pos_site_id
 _symmetry_equiv_pos_as_xyz
  1  'x, y, z'
loop_
 _atom_site_type_symbol
 _atom_site_label
 _atom_site_symmetry_multiplicity
 _atom_site_fract_x
 _atom_site_fract_y
 _atom_site_fract_z
 _atom_site_occupancy
  Lu  Lu0  1  0.89372567  0.10627433  0.43947104  1
  Lu  Lu1  1  0.10688067  0.89311933  0.55762366  1
  Lu  Lu2  1  0.89372567  0.10627433  0.06052896  1
  Lu  Lu3  1  0.10688067  0.89311933  0.94237634  1
  Lu  Lu4  1  0.24365524  0.75634476  0.25000000  1
  Lu  Lu5  1  0.75524425  0.24475575  0.75000000  1
  B  B0  1  0.72710461  0.27289539  0.46345445  1
  B  B1  1  0.27124688  0.72875312  0.53253549  1
  B  B2  1  0.72710461  0.27289539  0.03654555  1
  B  B3  1  0.27124688  0.72875312  0.96746451  1
  B  B4  1  0.63196300  0.36803700  0.15059964  1
  B  B5  1  0.36509516  0.63490484  0.85354900  1
  B  B6  1  0.63196300  0.36803700  0.34940036  1
  B  B7  1  0.36509516  0.63490484  0.64645100  1
  B  B8  1  0.51959361  0.48040639  0.09581276  1
  B  B9  1  0.48229657  0.51770343  0.90998356  1
  B  B10  1  0.51959361  0.48040639  0.40418724  1
  B  B11  1  0.48229657  0.51770343  0.59001644  1
  B  B12  1  0.45320232  0.54679768  0.25000000  1
  B  B13  1  0.55085943  0.44914057  0.75000000  1
  Os  Os0  1  0.05326090  0.94673910  0.25000000  1
  W  W0  1  0.94796451  0.05203549  0.75000000  1
loop_
_geom_bond_atom_site_label_1
_geom_bond_atom_site_label_2
_geom_bond_distance
_geom_bond_site_symmetry_2
Lu4 Os0 2.942782 1_555
Lu5 W0 2.978732 1_555
B0 B6 1.808774 1_555
B0 B1 1.955459 1_545
B0 B1 1.955459 1_655
B0 Lu0 2.584841 1_555
B0 Lu4 2.627147 1_545
B0 Lu4 2.627147 1_655
B0 Lu1 2.675911 1_655
B0 Lu1 2.675911 1_545
B0 Lu5 2.681491 1_555
B1 B7 1.791808 1_555
B1 Lu1 2.551026 1_555
B1 Lu4 2.643580 1_555
B1 Lu5 2.654239 1_565
B1 Lu5 2.654239 1_455
B1 Lu0 2.696961 1_455
B1 Lu0 2.696961 1_565
B2 B4 1.808774 1_555
B2 B3 1.955459 1_544
B2 B3 1.955459 1_654
B2 Lu2 2.584841 1_555
B2 Lu4 2.627147 1_545
B2 Lu4 2.627147 1_655
B2 Lu3 2.675911 1_654
B2 Lu3 2.675911 1_544
B2 Lu5 2.681491 1_554
B3 B5 1.791808 1_555
B3 Lu3 2.551026 1_555
B3 Lu4 2.643580 1_556
B3 Lu5 2.654239 1_565
B3 Lu5 2.654239 1_455
B3 Lu2 2.696961 1_456
B3 Lu2 2.696961 1_566
B4 B8 1.808990 1_555
B4 B6 1.835741 1_555
B4 Os0 2.296436 1_655
B4 Os0 2.296436 1_545
B4 Lu4 2.602720 1_545
B4 Lu4 2.602720 1_655
B4 Lu3 2.607426 1_654
B4 Lu3 2.607426 1_544
B5 B9 1.884961 1_555
B5 B7 1.912359 1_555
B5 W0 2.346542 1_455
B5 W0 2.346542 1_565
B5 Lu5 2.597786 1_565
B5 Lu5 2.597786 1_455
B5 Lu2 2.607715 1_456
B5 Lu2 2.607715 1_566
B6 Os0 2.296436 1_655
B6 Os0 2.296436 1_545
B6 Lu4 2.602720 1_545
B6 Lu4 2.602720 1_655
B6 Lu1 2.607426 1_655
B6 Lu1 2.607426 1_545
B7 W0 2.346542 1_455
B7 W0 2.346542 1_565
B7 Lu5 2.597786 1_565
B7 Lu5 2.597786 1_455
B7 Lu0 2.607715 1_455
B7 Lu0 2.607715 1_565
B8 B9 1.810205 1_554
B8 Os0 2.291142 1_545
B8 Os0 2.291142 1_655
B8 Lu3 2.603652 1_544
B8 Lu3 2.603652 1_654
B8 Lu2 2.615783 1_565
B8 Lu2 2.615783 1_455
B9 W0 2.327103 1_565
B9 W0 2.327103 1_455
B9 Lu3 2.597850 1_545
B9 Lu3 2.597850 1_655
B9 Lu2 2.599617 1_566
B9 Lu2 2.599617 1_456
B10 B12 1.755034 1_555
B10 B6 1.808990 1_555
B10 B11 1.810205 1_555
B10 Os0 2.291142 1_545
B10 Os0 2.291142 1_655
B10 Lu1 2.603652 1_545
B10 Lu1 2.603652 1_655
B10 Lu0 2.615783 1_565
B10 Lu0 2.615783 1_455
B11 B13 1.818085 1_555
B11 B7 1.884961 1_555
B11 W0 2.327103 1_565
B11 W0 2.327103 1_455
B11 Lu1 2.597850 1_545
B11 Lu1 2.597850 1_655
B11 Lu0 2.599617 1_565
B11 Lu0 2.599617 1_455
B12 B8 1.755034 1_555
B12 Os0 2.311528 1_545
B12 Os0 2.311528 1_655
B12 Lu0 2.618694 1_565
B12 Lu2 2.618694 1_565
B12 Lu0 2.618694 1_455
B12 Lu2 2.618694 1_455
B12 Lu4 3.238811 1_555
B13 B9 1.818085 1_555
B13 W0 2.341086 1_565
B13 W0 2.341086 1_455
B13 Lu3 2.618552 1_545
B13 Lu1 2.618552 1_545
B13 Lu3 2.618552 1_655
B13 Lu1 2.618552 1_655
B13 Lu5 3.159022 1_555
