# generated using pymatgen
data_Ba3ZrPt2O9
_symmetry_space_group_name_H-M   'P 1'
_cell_length_a   5.83012830
_cell_length_b   5.83012745
_cell_length_c   14.72788464
_cell_angle_alpha   90.00000000
_cell_angle_beta   90.00000000
_cell_angle_gamma   120.00001034
_symmetry_Int_Tables_number   1
_chemical_formula_structural   Ba3ZrPt2O9
_chemical_formula_sum   'Ba6 Zr2 Pt4 O18'
_cell_volume   433.53795094
_cell_formula_units_Z   2
loop_
 _symmetry_equiv_pos_site_id
 _symmetry_equiv_pos_as_xyz
  1  'x, y, z'
loop_
 _atom_site_type_symbol
 _atom_site_label
 _atom_site_symmetry_multiplicity
 _atom_site_fract_x
 _atom_site_fract_y
 _atom_site_fract_z
 _atom_site_occupancy
  Ba  Ba0  1  0.33333300  0.66666700  0.09076851  1
  Ba  Ba1  1  0.66666700  0.33333300  0.90923149  1
  Ba  Ba2  1  0.66666700  0.33333300  0.59076851  1
  Ba  Ba3  1  0.33333300  0.66666700  0.40923149  1
  Ba  Ba4  1  0.00000000  0.00000000  0.25000000  1
  Ba  Ba5  1  0.00000000  0.00000000  0.75000000  1
  Zr  Zr0  1  0.00000000  0.00000000  0.00000000  1
  Zr  Zr1  1  0.00000000  0.00000000  0.50000000  1
  Pt  Pt0  1  0.33333300  0.66666700  0.65736914  1
  Pt  Pt1  1  0.66666700  0.33333300  0.34263086  1
  Pt  Pt2  1  0.66666700  0.33333300  0.15736914  1
  Pt  Pt3  1  0.33333300  0.66666700  0.84263086  1
  O  O0  1  0.16835616  0.33671232  0.58043843  1
  O  O1  1  0.83164384  0.66328768  0.41956157  1
  O  O2  1  0.66328768  0.83164384  0.58043843  1
  O  O3  1  0.83164384  0.66328768  0.08043843  1
  O  O4  1  0.33671232  0.16835616  0.41956157  1
  O  O5  1  0.16835616  0.33671232  0.91956157  1
  O  O6  1  0.16835616  0.83164384  0.58043843  1
  O  O7  1  0.33671232  0.16835616  0.08043843  1
  O  O8  1  0.83164384  0.16835616  0.41956157  1
  O  O9  1  0.66328768  0.83164384  0.91956157  1
  O  O10  1  0.83164384  0.16835616  0.08043843  1
  O  O11  1  0.16835616  0.83164384  0.91956157  1
  O  O12  1  0.51607993  0.03215987  0.25000000  1
  O  O13  1  0.48392007  0.96784013  0.75000000  1
  O  O14  1  0.96784013  0.48392007  0.25000000  1
  O  O15  1  0.03215987  0.51607993  0.75000000  1
  O  O16  1  0.51607993  0.48392007  0.25000000  1
  O  O17  1  0.48392007  0.51607993  0.75000000  1
loop_
_geom_bond_atom_site_label_1
_geom_bond_atom_site_label_2
_geom_bond_distance
_geom_bond_site_symmetry_2
Ba0 O7 2.919078 1_565
Ba0 O3 2.919079 1_455
Ba0 O10 2.919081 1_565
Ba0 O10 2.919081 1_455
Ba0 O7 2.919084 1_555
Ba0 O3 2.919084 1_555
Ba0 O12 2.984150 1_565
Ba0 O14 2.984150 1_455
Ba0 O16 2.984153 1_555
Ba0 O11 3.022157 1_554
Ba0 O5 3.022159 1_554
Ba0 O9 3.022159 1_554
Ba1 O9 2.919078 1_545
Ba1 O5 2.919079 1_655
Ba1 O11 2.919081 1_545
Ba1 O11 2.919081 1_655
Ba1 O9 2.919084 1_555
Ba1 O5 2.919084 1_555
Ba1 O13 2.984150 1_545
Ba1 O15 2.984150 1_655
Ba1 O17 2.984153 1_555
Ba1 O10 3.022157 1_556
Ba1 O3 3.022159 1_556
Ba1 O7 3.022159 1_556
Ba2 O2 2.919078 1_545
Ba2 O0 2.919079 1_655
Ba2 O6 2.919081 1_545
Ba2 O6 2.919081 1_655
Ba2 O2 2.919084 1_555
Ba2 O0 2.919084 1_555
Ba2 O13 2.984150 1_545
Ba2 O15 2.984150 1_655
Ba2 O17 2.984153 1_555
Ba2 O8 3.022157 1_555
Ba2 O1 3.022159 1_555
Ba2 O4 3.022159 1_555
Ba3 O4 2.919078 1_565
Ba3 O1 2.919079 1_455
Ba3 O8 2.919081 1_565
Ba3 O8 2.919081 1_455
Ba3 O4 2.919084 1_555
Ba3 O1 2.919084 1_555
Ba3 O12 2.984150 1_565
Ba3 O14 2.984150 1_455
Ba3 O16 2.984153 1_555
Ba3 O6 3.022157 1_555
Ba3 O0 3.022159 1_555
Ba3 O2 3.022159 1_555
Ba4 O16 2.919582 1_445
Ba4 O16 2.919582 1_555
Ba4 O14 2.919583 1_445
Ba4 O14 2.919583 1_455
Ba4 O12 2.919583 1_555
Ba4 O12 2.919583 1_455
Ba4 O1 3.021038 1_445
Ba4 O3 3.021038 1_445
Ba4 O4 3.021038 1_555
Ba4 O7 3.021038 1_555
Ba4 O8 3.021039 1_455
Ba4 O10 3.021039 1_455
Ba5 O17 2.919582 1_555
Ba5 O17 2.919582 1_445
Ba5 O15 2.919583 1_555
Ba5 O15 2.919583 1_545
Ba5 O13 2.919583 1_445
Ba5 O13 2.919583 1_545
Ba5 O5 3.021038 1_555
Ba5 O0 3.021038 1_555
Ba5 O9 3.021038 1_445
Ba5 O2 3.021038 1_445
Ba5 O11 3.021039 1_545
Ba5 O6 3.021039 1_545
O0 Pt0 2.014733 1_555
O0 Zr1 2.072133 1_555
O1 Pt1 2.014733 1_555
O1 Zr1 2.072133 1_665
O2 Pt0 2.014734 1_555
O2 Zr1 2.072133 1_665
O3 Pt2 2.014733 1_555
O3 Zr0 2.072133 1_665
O4 Pt1 2.014734 1_555
O4 Zr1 2.072133 1_555
O5 Pt3 2.014733 1_555
O5 Zr0 2.072133 1_556
O6 Pt0 2.014730 1_555
O6 Zr1 2.072133 1_565
O7 Pt2 2.014734 1_555
O7 Zr0 2.072133 1_555
O8 Pt1 2.014730 1_555
O8 Zr1 2.072133 1_655
O9 Pt3 2.014734 1_555
O9 Zr0 2.072133 1_666
O10 Pt2 2.014730 1_555
O10 Zr0 2.072133 1_655
O11 Pt3 2.014730 1_555
O11 Zr0 2.072133 1_566
O12 Pt1 2.042921 1_555
O12 Pt2 2.042921 1_555
O13 Pt3 2.042921 1_555
O13 Pt0 2.042921 1_555
O14 Pt1 2.042921 1_555
O14 Pt2 2.042921 1_555
O15 Pt3 2.042921 1_555
O15 Pt0 2.042921 1_555
O16 Pt1 2.042925 1_555
O16 Pt2 2.042925 1_555
O17 Pt3 2.042925 1_555
O17 Pt0 2.042925 1_555
