# generated using pymatgen
data_Cs3ScBi2
_symmetry_space_group_name_H-M   'P 1'
_cell_length_a   10.45728149
_cell_length_b   10.45728142
_cell_length_c   10.45728235
_cell_angle_alpha   127.07291418
_cell_angle_beta   70.55943985
_cell_angle_gamma   136.88621913
_symmetry_Int_Tables_number   1
_chemical_formula_structural   Cs3ScBi2
_chemical_formula_sum   'Cs6 Sc2 Bi4'
_cell_volume   611.40629473
_cell_formula_units_Z   2
loop_
 _symmetry_equiv_pos_site_id
 _symmetry_equiv_pos_as_xyz
  1  'x, y, z'
loop_
 _atom_site_type_symbol
 _atom_site_label
 _atom_site_symmetry_multiplicity
 _atom_site_fract_x
 _atom_site_fract_y
 _atom_site_fract_z
 _atom_site_occupancy
  Cs  Cs0  1  0.81839015  0.21153039  0.02992054  1
  Cs  Cs1  1  0.68161085  0.71153139  0.39314224  1
  Cs  Cs2  1  0.74999900  0.24999900  0.50000000  1
  Cs  Cs3  1  0.24999900  0.75000000  0.50000100  1
  Cs  Cs4  1  0.31839015  0.28846961  0.60685876  1
  Cs  Cs5  1  0.18160985  0.78846861  0.97007946  1
  Sc  Sc0  1  0.24999900  0.24999900  0.00000000  1
  Sc  Sc1  1  0.75000000  0.75000000  0.00000000  1
  Bi  Bi0  1  0.40883092  0.67827938  0.08711029  1
  Bi  Bi1  1  0.09116908  0.17827938  0.26944946  1
  Bi  Bi2  1  0.90883092  0.82172162  0.73055054  1
  Bi  Bi3  1  0.59116908  0.32172162  0.91289071  1
loop_
_geom_bond_atom_site_label_1
_geom_bond_atom_site_label_2
_geom_bond_distance
_geom_bond_site_symmetry_2
Cs0 Sc0 4.146307 1_655
Cs0 Sc1 4.146310 1_545
Cs0 Cs3 4.531397 1_655
Cs0 Cs2 4.531398 1_555
Cs0 Cs5 4.553110 1_654
Cs0 Cs5 4.553116 1_544
Cs0 Cs1 5.212454 1_544
Cs0 Cs1 5.212470 1_555
Cs1 Sc1 4.146328 1_555
Cs1 Sc0 4.146331 1_555
Cs1 Cs2 4.531397 1_565
Cs1 Cs3 4.531410 1_555
Cs1 Cs4 4.553100 1_555
Cs1 Cs4 4.553106 1_665
Cs2 Cs3 3.842265 1_655
Cs2 Cs3 3.842265 1_545
Cs2 Cs4 4.531393 1_555
Cs2 Cs5 4.531399 1_655
Cs3 Cs5 4.531391 1_555
Cs3 Cs4 4.531397 1_565
Cs4 Sc1 4.146317 1_556
Cs4 Sc0 4.146324 1_556
Cs4 Cs5 5.212462 1_555
Cs4 Cs5 5.212462 1_544
Cs5 Sc0 4.146317 1_566
Cs5 Sc1 4.146317 1_456
Bi0 Sc1 2.979014 1_555
Bi0 Sc0 2.979019 1_555
Bi0 Cs2 3.886449 1_565
Bi0 Cs3 3.886464 1_555
Bi0 Cs4 3.947612 1_554
Bi0 Cs5 4.013068 1_554
Bi0 Cs0 4.152517 1_455
Bi0 Cs0 4.152517 1_565
Bi1 Sc1 2.979019 1_445
Bi1 Sc0 2.979019 1_555
Bi1 Cs2 3.886454 1_455
Bi1 Cs3 3.886457 1_555
Bi1 Cs5 3.947613 1_544
Bi1 Cs4 4.013059 1_555
Bi1 Cs1 4.152517 1_445
Bi1 Cs1 4.152524 1_555
Bi2 Sc0 2.979013 1_666
Bi2 Sc1 2.979028 1_556
Bi2 Cs3 3.886445 1_655
Bi2 Cs2 3.886467 1_555
Bi2 Cs0 3.947598 1_566
Bi2 Cs1 4.013043 1_555
Bi2 Cs4 4.152511 1_665
Bi2 Cs4 4.152518 1_555
Bi3 Sc1 2.979009 1_556
Bi3 Sc0 2.979014 1_556
Bi3 Cs2 3.886456 1_555
Bi3 Cs3 3.886456 1_545
Bi3 Cs1 3.947611 1_556
Bi3 Cs0 4.013080 1_556
Bi3 Cs5 4.152517 1_655
Bi3 Cs5 4.152525 1_545
