# generated using pymatgen
data_Cd2FeBiO6
_symmetry_space_group_name_H-M   'P 1'
_cell_length_a   5.47774154
_cell_length_b   5.47774007
_cell_length_c   5.92639491
_cell_angle_alpha   62.47421899
_cell_angle_beta   117.52579121
_cell_angle_gamma   120.00000509
_symmetry_Int_Tables_number   1
_chemical_formula_structural   Cd2FeBiO6
_chemical_formula_sum   'Cd2 Fe1 Bi1 O6'
_cell_volume   130.24041807
_cell_formula_units_Z   1
loop_
 _symmetry_equiv_pos_site_id
 _symmetry_equiv_pos_as_xyz
  1  'x, y, z'
loop_
 _atom_site_type_symbol
 _atom_site_label
 _atom_site_symmetry_multiplicity
 _atom_site_fract_x
 _atom_site_fract_y
 _atom_site_fract_z
 _atom_site_occupancy
  Cd  Cd0  1  0.86481772  0.13518228  0.59445215  1
  Cd  Cd1  1  0.13560884  0.86439116  0.40682752  1
  Fe  Fe0  1  0.65044524  0.34955476  0.95133371  1
  Bi  Bi0  1  0.34750306  0.65249694  0.04251119  1
  O  O0  1  0.46641894  0.27836860  0.23205555  1
  O  O1  1  0.04400521  0.53358106  0.23205555  1
  O  O2  1  0.72163140  0.95599479  0.23205555  1
  O  O3  1  0.53951445  0.70314221  0.76956960  1
  O  O4  1  0.93319835  0.46048555  0.76956960  1
  O  O5  1  0.29685779  0.06680165  0.76956960  1
loop_
_geom_bond_atom_site_label_1
_geom_bond_atom_site_label_2
_geom_bond_distance
_geom_bond_site_symmetry_2
Cd0 O4 2.252814 1_555
Cd0 O3 2.252814 1_545
Cd0 O5 2.252814 1_655
Cd0 O2 2.410988 1_545
Cd0 O1 2.410990 1_655
Cd0 O0 2.410992 1_555
Cd1 O2 2.225627 1_455
Cd1 O0 2.225630 1_565
Cd1 O1 2.225631 1_555
Cd1 O5 2.469742 1_565
Cd1 O4 2.469746 1_455
Cd1 O3 2.469750 1_555
Fe0 O4 1.981034 1_555
Fe0 O5 1.981035 1_555
Fe0 O3 1.981039 1_555
Fe0 O2 2.119758 1_546
Fe0 O1 2.119761 1_656
Fe0 O0 2.119766 1_556
Bi0 O1 2.101633 1_555
Bi0 O2 2.101636 1_555
Bi0 O0 2.101642 1_555
Bi0 O5 2.160008 1_564
Bi0 O4 2.160013 1_454
Bi0 O3 2.160021 1_554
