# generated using pymatgen
data_Rb5HfSb3
_symmetry_space_group_name_H-M   'P 1'
_cell_length_a   9.17236440
_cell_length_b   9.93969532
_cell_length_c   19.41758951
_cell_angle_alpha   60.02049850
_cell_angle_beta   90.00000000
_cell_angle_gamma   90.00000000
_symmetry_Int_Tables_number   1
_chemical_formula_structural   Rb5HfSb3
_chemical_formula_sum   'Rb20 Hf4 Sb12'
_cell_volume   1533.45130416
_cell_formula_units_Z   4
loop_
 _symmetry_equiv_pos_site_id
 _symmetry_equiv_pos_as_xyz
  1  'x, y, z'
loop_
 _atom_site_type_symbol
 _atom_site_label
 _atom_site_symmetry_multiplicity
 _atom_site_fract_x
 _atom_site_fract_y
 _atom_site_fract_z
 _atom_site_occupancy
  Rb  Rb0  1  0.17773254  0.15739275  0.25879051  1
  Rb  Rb1  1  0.67773254  0.84260725  0.24120949  1
  Rb  Rb2  1  0.82226746  0.84260725  0.74120949  1
  Rb  Rb3  1  0.32226746  0.15739275  0.75879051  1
  Rb  Rb4  1  0.16534945  0.83924125  0.58047583  1
  Rb  Rb5  1  0.66534945  0.16075875  0.91952417  1
  Rb  Rb6  1  0.83465055  0.16075875  0.41952417  1
  Rb  Rb7  1  0.33465055  0.83924125  0.08047583  1
  Rb  Rb8  1  0.00405309  0.91466050  0.90710698  1
  Rb  Rb9  1  0.50405309  0.08533950  0.59289302  1
  Rb  Rb10  1  0.99594691  0.08533950  0.09289302  1
  Rb  Rb11  1  0.49594691  0.91466050  0.40710698  1
  Rb  Rb12  1  0.51144664  0.73550015  0.92330743  1
  Rb  Rb13  1  0.01144664  0.26449985  0.57669257  1
  Rb  Rb14  1  0.48855336  0.26449985  0.07669257  1
  Rb  Rb15  1  0.98855336  0.73550015  0.42330743  1
  Rb  Rb16  1  0.98601583  0.46089560  0.74451082  1
  Rb  Rb17  1  0.48601583  0.53910440  0.75548918  1
  Rb  Rb18  1  0.01398417  0.53910440  0.25548918  1
  Rb  Rb19  1  0.51398417  0.46089560  0.24451082  1
  Hf  Hf0  1  0.37007172  0.50546489  0.42031727  1
  Hf  Hf1  1  0.87007172  0.49453511  0.07968273  1
  Hf  Hf2  1  0.62992828  0.49453511  0.57968273  1
  Hf  Hf3  1  0.12992828  0.50546489  0.92031727  1
  Sb  Sb0  1  0.25046896  0.24396932  0.92247493  1
  Sb  Sb1  1  0.75046896  0.75603068  0.57752507  1
  Sb  Sb2  1  0.74953104  0.75603068  0.07752507  1
  Sb  Sb3  1  0.24953104  0.24396932  0.42247493  1
  Sb  Sb4  1  0.18073171  0.51466349  0.06337973  1
  Sb  Sb5  1  0.68073171  0.48533651  0.43662027  1
  Sb  Sb6  1  0.81926829  0.48533651  0.93662027  1
  Sb  Sb7  1  0.31926829  0.51466349  0.56337973  1
  Sb  Sb8  1  0.28825313  0.77948603  0.28254340  1
  Sb  Sb9  1  0.78825313  0.22051397  0.21745660  1
  Sb  Sb10  1  0.71174687  0.22051397  0.71745660  1
  Sb  Sb11  1  0.21174687  0.77948603  0.78254340  1
loop_
_geom_bond_atom_site_label_1
_geom_bond_atom_site_label_2
_geom_bond_distance
_geom_bond_site_symmetry_2
Rb0 Sb9 3.646497 1_455
Rb0 Sb4 3.680058 1_555
Rb0 Sb8 3.690338 1_545
Rb0 Sb3 3.742942 1_555
Rb1 Sb8 3.646497 1_555
Rb1 Sb5 3.680058 1_555
Rb1 Sb9 3.690338 1_565
Rb1 Sb2 3.742942 1_555
Rb2 Sb11 3.646497 1_655
Rb2 Sb6 3.680058 1_555
Rb2 Sb10 3.690338 1_565
Rb2 Sb1 3.742942 1_555
Rb3 Sb10 3.646497 1_555
Rb3 Sb7 3.680058 1_555
Rb3 Sb11 3.690338 1_545
Rb3 Sb0 3.742942 1_555
Rb4 Sb7 3.685389 1_555
Rb4 Sb11 3.687821 1_555
Rb4 Sb3 3.722608 1_565
Rb4 Sb1 3.900776 1_455
Rb5 Sb6 3.685389 1_555
Rb5 Sb10 3.687821 1_555
Rb5 Sb2 3.722608 1_546
Rb5 Sb0 3.900776 1_555
Rb6 Sb5 3.685389 1_555
Rb6 Sb9 3.687821 1_555
Rb6 Sb1 3.722608 1_545
Rb6 Sb3 3.900776 1_655
Rb7 Sb4 3.685389 1_555
Rb7 Sb8 3.687821 1_555
Rb7 Sb0 3.722608 1_564
Rb7 Sb2 3.900776 1_555
Rb8 Sb2 3.697587 1_456
Rb8 Sb11 3.812142 1_555
Rb8 Sb4 3.947710 1_556
Rb8 Sb0 4.109478 1_565
Rb9 Sb3 3.697587 1_555
Rb9 Sb10 3.812142 1_555
Rb9 Sb5 3.947710 1_555
Rb9 Sb1 4.109478 1_545
Rb10 Sb0 3.697587 1_654
Rb10 Sb9 3.812142 1_555
Rb10 Sb6 3.947710 1_554
Rb10 Sb2 4.109478 1_545
Rb11 Sb1 3.697587 1_555
Rb11 Sb8 3.812142 1_555
Rb11 Sb7 3.947710 1_555
Rb11 Sb3 4.109478 1_565
Rb12 Sb6 3.685004 1_555
Rb12 Sb11 3.744937 1_555
Rb12 Sb2 3.793225 1_556
Rb12 Sb4 3.930791 1_556
Rb13 Sb7 3.685004 1_555
Rb13 Sb10 3.744937 1_455
Rb13 Sb3 3.793225 1_555
Rb13 Sb5 3.930791 1_455
Rb14 Sb4 3.685004 1_555
Rb14 Sb9 3.744937 1_555
Rb14 Sb0 3.793225 1_554
Rb14 Sb6 3.930791 1_554
Rb15 Sb5 3.685004 1_555
Rb15 Sb8 3.744937 1_655
Rb15 Sb1 3.793225 1_555
Rb15 Sb7 3.930791 1_655
Rb16 Sb10 3.683468 1_555
Rb16 Sb1 3.779035 1_555
Rb16 Sb0 3.876596 1_655
Rb17 Sb11 3.683468 1_555
Rb17 Sb0 3.779035 1_555
Rb17 Sb1 3.876596 1_555
Rb18 Sb8 3.683468 1_555
Rb18 Sb3 3.779035 1_555
Rb18 Sb2 3.876596 1_455
Rb19 Sb9 3.683468 1_555
Rb19 Sb2 3.779035 1_555
Rb19 Sb3 3.876596 1_555
Hf0 Sb8 2.802958 1_555
Hf0 Sb3 2.805556 1_555
Hf0 Sb7 2.862904 1_555
Hf0 Sb5 2.862956 1_555
Hf1 Sb9 2.802958 1_555
Hf1 Sb2 2.805556 1_555
Hf1 Sb6 2.862904 1_554
Hf1 Sb4 2.862956 1_655
Hf2 Sb10 2.802958 1_555
Hf2 Sb1 2.805556 1_555
Hf2 Sb5 2.862904 1_555
Hf2 Sb7 2.862956 1_555
Hf3 Sb11 2.802958 1_555
Hf3 Sb0 2.805556 1_555
Hf3 Sb4 2.862904 1_556
Hf3 Sb6 2.862956 1_455
