# generated using pymatgen
data_HfScCuS4
_symmetry_space_group_name_H-M   'P 1'
_cell_length_a   7.34290304
_cell_length_b   7.34290389
_cell_length_c   7.34290310
_cell_angle_alpha   120.06159603
_cell_angle_beta   119.95611012
_cell_angle_gamma   89.98469187
_symmetry_Int_Tables_number   1
_chemical_formula_structural   HfScCuS4
_chemical_formula_sum   'Hf2 Sc2 Cu2 S8'
_cell_volume   279.91736267
_cell_formula_units_Z   2
loop_
 _symmetry_equiv_pos_site_id
 _symmetry_equiv_pos_as_xyz
  1  'x, y, z'
loop_
 _atom_site_type_symbol
 _atom_site_label
 _atom_site_symmetry_multiplicity
 _atom_site_fract_x
 _atom_site_fract_y
 _atom_site_fract_z
 _atom_site_occupancy
  Hf  Hf0  1  0.00000000  0.50000000  0.00000000  1
  Hf  Hf1  1  0.00000000  0.00000000  0.50000000  1
  Sc  Sc0  1  0.50000000  0.50000000  0.00000000  1
  Sc  Sc1  1  0.00000000  0.50000000  0.50000000  1
  Cu  Cu0  1  0.62906080  0.87906080  0.75000000  1
  Cu  Cu1  1  0.37093920  0.12093920  0.25000000  1
  S  S0  1  0.24126561  0.74971702  0.49154758  1
  S  S1  1  0.75816944  0.74971702  0.00845242  1
  S  S2  1  0.75664622  0.75133855  0.49469333  1
  S  S3  1  0.75664622  0.26195288  0.00530667  1
  S  S4  1  0.75873439  0.25028298  0.50845242  1
  S  S5  1  0.24183056  0.25028298  0.99154758  1
  S  S6  1  0.24335378  0.24866145  0.50530667  1
  S  S7  1  0.24335378  0.73804712  0.99469333  1
loop_
_geom_bond_atom_site_label_1
_geom_bond_atom_site_label_2
_geom_bond_distance
_geom_bond_site_symmetry_2
Hf0 S7 2.527729 1_554
Hf0 S3 2.527729 1_455
Hf0 S0 2.552189 1_555
Hf0 S4 2.552189 1_454
Hf0 S5 2.552190 1_554
Hf0 S1 2.552190 1_455
Hf1 S2 2.527734 1_445
Hf1 S6 2.527734 1_555
Hf1 S5 2.552189 1_555
Hf1 S1 2.552189 1_445
Hf1 S4 2.552195 1_455
Hf1 S0 2.552195 1_545
Cu0 S2 2.294289 1_555
Cu0 S3 2.294290 1_566
Cu0 S0 2.326140 1_555
Cu0 S1 2.326146 1_556
Cu1 S6 2.294289 1_555
Cu1 S7 2.294290 1_544
Cu1 S4 2.326140 1_555
Cu1 S5 2.326146 1_554
S0 Sc1 2.594265 1_555
S1 Sc0 2.594260 1_555
S2 Sc1 2.569326 1_655
S2 Sc0 2.569331 1_555
S3 Sc1 2.569331 1_655
S3 Sc0 2.569331 1_555
S4 Sc1 2.594265 1_655
S5 Sc0 2.594260 1_556
S6 Sc1 2.569326 1_555
S6 Sc0 2.569331 1_556
S7 Sc1 2.569331 1_555
S7 Sc0 2.569331 1_556
