# generated using pymatgen
data_Zr10InB2Sb5
_symmetry_space_group_name_H-M   'P 1'
_cell_length_a   8.51267003
_cell_length_b   8.51266967
_cell_length_c   5.78899600
_cell_angle_alpha   90.00000000
_cell_angle_beta   90.00000000
_cell_angle_gamma   119.99435115
_symmetry_Int_Tables_number   1
_chemical_formula_structural   Zr10InB2Sb5
_chemical_formula_sum   'Zr10 In1 B2 Sb5'
_cell_volume   363.32073141
_cell_formula_units_Z   1
loop_
 _symmetry_equiv_pos_site_id
 _symmetry_equiv_pos_as_xyz
  1  'x, y, z'
loop_
 _atom_site_type_symbol
 _atom_site_label
 _atom_site_symmetry_multiplicity
 _atom_site_fract_x
 _atom_site_fract_y
 _atom_site_fract_z
 _atom_site_occupancy
  Zr  Zr0  1  0.66963835  0.33259199  0.99961401  1
  Zr  Zr1  1  0.33259199  0.66963835  0.99961401  1
  Zr  Zr2  1  0.33259199  0.66963835  0.50038599  1
  Zr  Zr3  1  0.66963835  0.33259199  0.50038599  1
  Zr  Zr4  1  0.76741067  0.76741067  0.75000000  1
  Zr  Zr5  1  0.23416404  0.00106096  0.75000000  1
  Zr  Zr6  1  0.00106096  0.23416404  0.75000000  1
  Zr  Zr7  1  0.22933375  0.22933375  0.25000000  1
  Zr  Zr8  1  0.76633085  0.99839502  0.25000000  1
  Zr  Zr9  1  0.99839502  0.76633085  0.25000000  1
  In  In0  1  0.40049384  0.40049384  0.75000000  1
  B  B0  1  0.00009359  0.00009359  0.99864483  1
  B  B1  1  0.00009359  0.00009359  0.50135517  1
  Sb  Sb0  1  0.60261253  0.00029395  0.75000000  1
  Sb  Sb1  1  0.00029395  0.60261253  0.75000000  1
  Sb  Sb2  1  0.59457412  0.59457412  0.25000000  1
  Sb  Sb3  1  0.39852821  0.00215521  0.25000000  1
  Sb  Sb4  1  0.00215521  0.39852821  0.25000000  1
loop_
_geom_bond_atom_site_label_1
_geom_bond_atom_site_label_2
_geom_bond_distance
_geom_bond_site_symmetry_2
In0 Zr5 2.958517 1_555
In0 Zr6 2.958517 1_555
In0 Zr1 2.999268 1_555
In0 Zr2 2.999268 1_555
In0 Zr0 2.999268 1_555
In0 Zr3 2.999268 1_555
In0 Zr4 3.123708 1_555
In0 Zr7 3.240589 1_555
In0 Zr7 3.240589 1_556
In0 Sb2 3.332890 1_556
In0 Sb2 3.332890 1_555
B0 Zr7 2.434356 1_556
B0 Zr4 2.448660 1_445
B0 Zr6 2.454762 1_555
B0 Zr5 2.454763 1_555
B0 Zr9 2.459394 1_446
B0 Zr8 2.459394 1_446
B1 Zr7 2.434356 1_555
B1 Zr4 2.448660 1_445
B1 Zr6 2.454762 1_555
B1 Zr5 2.454763 1_555
B1 Zr9 2.459394 1_445
B1 Zr8 2.459394 1_445
Sb0 Zr4 2.945989 1_545
Sb0 Zr6 2.952401 1_655
Sb0 Zr0 2.966764 1_555
Sb0 Zr3 2.966764 1_555
Sb0 Zr1 2.970791 1_545
Sb0 Zr2 2.970791 1_545
Sb0 Zr5 3.139750 1_555
Sb0 Zr8 3.216092 1_546
Sb0 Zr8 3.216092 1_545
Sb1 Zr4 2.945989 1_455
Sb1 Zr5 2.952401 1_565
Sb1 Zr1 2.966764 1_555
Sb1 Zr2 2.966764 1_555
Sb1 Zr0 2.970791 1_455
Sb1 Zr3 2.970791 1_455
Sb1 Zr6 3.139749 1_555
Sb1 Zr9 3.216092 1_455
Sb1 Zr9 3.216092 1_456
Sb2 Zr3 2.984593 1_555
Sb2 Zr0 2.984593 1_554
Sb2 Zr2 2.984593 1_555
Sb2 Zr1 2.984593 1_554
Sb2 Zr8 2.988233 1_555
Sb2 Zr9 2.988233 1_555
Sb2 Zr7 3.109436 1_555
Sb2 Zr4 3.247031 1_555
Sb2 Zr4 3.247031 1_554
Sb3 Zr7 2.932459 1_555
Sb3 Zr9 2.965718 1_445
Sb3 Zr2 2.973189 1_545
Sb3 Zr1 2.973189 1_544
Sb3 Zr3 2.974722 1_555
Sb3 Zr0 2.974722 1_554
Sb3 Zr8 3.147107 1_545
Sb3 Zr5 3.212923 1_554
Sb3 Zr5 3.212923 1_555
Sb4 Zr7 2.932459 1_555
Sb4 Zr8 2.965718 1_445
Sb4 Zr3 2.973189 1_455
Sb4 Zr0 2.973189 1_454
Sb4 Zr2 2.974722 1_555
Sb4 Zr1 2.974722 1_554
Sb4 Zr9 3.147106 1_455
Sb4 Zr6 3.212923 1_554
Sb4 Zr6 3.212923 1_555
