# generated using pymatgen
data_Hf6Al16CoNi6
_symmetry_space_group_name_H-M   'P 1'
_cell_length_a   8.42745156
_cell_length_b   8.42745110
_cell_length_c   8.42745242
_cell_angle_alpha   60.00000246
_cell_angle_beta   60.00000427
_cell_angle_gamma   59.99999883
_symmetry_Int_Tables_number   1
_chemical_formula_structural   Hf6Al16CoNi6
_chemical_formula_sum   'Hf6 Al16 Co1 Ni6'
_cell_volume   423.22745772
_cell_formula_units_Z   1
loop_
 _symmetry_equiv_pos_site_id
 _symmetry_equiv_pos_as_xyz
  1  'x, y, z'
loop_
 _atom_site_type_symbol
 _atom_site_label
 _atom_site_symmetry_multiplicity
 _atom_site_fract_x
 _atom_site_fract_y
 _atom_site_fract_z
 _atom_site_occupancy
  Hf  Hf0  1  0.68899803  0.68899803  0.31100197  1
  Hf  Hf1  1  0.31100197  0.68899803  0.31100197  1
  Hf  Hf2  1  0.68899803  0.31100197  0.31100197  1
  Hf  Hf3  1  0.31100197  0.31100197  0.68899803  1
  Hf  Hf4  1  0.68899803  0.31100197  0.68899803  1
  Hf  Hf5  1  0.31100197  0.68899803  0.68899803  1
  Al  Al0  1  0.88206896  0.88206896  0.35379212  1
  Al  Al1  1  0.88206896  0.35379212  0.88206896  1
  Al  Al2  1  0.35379212  0.88206896  0.88206896  1
  Al  Al3  1  0.88206896  0.88206896  0.88206896  1
  Al  Al4  1  0.11793104  0.11793104  0.64620788  1
  Al  Al5  1  0.11793104  0.64620788  0.11793104  1
  Al  Al6  1  0.64620788  0.11793104  0.11793104  1
  Al  Al7  1  0.11793104  0.11793104  0.11793104  1
  Al  Al8  1  0.66669662  0.66669662  0.99991013  1
  Al  Al9  1  0.66669662  0.99991013  0.66669662  1
  Al  Al10  1  0.99991013  0.66669662  0.66669662  1
  Al  Al11  1  0.66669662  0.66669662  0.66669662  1
  Al  Al12  1  0.33330338  0.33330338  0.00008987  1
  Al  Al13  1  0.33330338  0.00008987  0.33330338  1
  Al  Al14  1  0.00008987  0.33330338  0.33330338  1
  Al  Al15  1  0.33330338  0.33330338  0.33330338  1
  Co  Co0  1  0.00000000  0.00000000  0.00000000  1
  Ni  Ni0  1  0.00000000  0.00000000  0.50000000  1
  Ni  Ni1  1  0.50000000  0.00000000  0.50000000  1
  Ni  Ni2  1  0.00000000  0.50000000  0.50000000  1
  Ni  Ni3  1  0.50000000  0.50000000  0.00000000  1
  Ni  Ni4  1  0.00000000  0.50000000  0.00000000  1
  Ni  Ni5  1  0.50000000  0.00000000  0.00000000  1
loop_
_geom_bond_atom_site_label_1
_geom_bond_atom_site_label_2
_geom_bond_distance
_geom_bond_site_symmetry_2
Hf0 Ni1 3.066973 1_565
Hf0 Ni2 3.066973 1_655
Hf0 Ni5 3.066973 1_565
Hf0 Ni4 3.066973 1_655
Hf0 Hf2 3.185543 1_555
Hf0 Hf1 3.185544 1_555
Hf0 Hf4 3.185544 1_555
Hf0 Hf5 3.185544 1_555
Hf1 Ni0 3.066973 1_565
Hf1 Ni2 3.066973 1_555
Hf1 Ni5 3.066973 1_565
Hf1 Ni3 3.066973 1_555
Hf1 Hf2 3.185543 1_555
Hf1 Hf3 3.185544 1_555
Hf1 Hf5 3.185544 1_555
Hf2 Ni1 3.066973 1_555
Hf2 Ni0 3.066973 1_655
Hf2 Ni3 3.066973 1_555
Hf2 Ni4 3.066973 1_655
Hf2 Hf4 3.185544 1_555
Hf2 Hf3 3.185544 1_555
Hf3 Ni1 3.066973 1_555
Hf3 Ni2 3.066973 1_555
Hf3 Ni5 3.066973 1_556
Hf3 Ni4 3.066973 1_556
Hf3 Hf5 3.185543 1_555
Hf3 Hf4 3.185544 1_555
Hf4 Ni0 3.066973 1_655
Hf4 Ni2 3.066973 1_655
Hf4 Ni5 3.066973 1_556
Hf4 Ni3 3.066973 1_556
Hf4 Hf5 3.185543 1_555
Hf5 Ni1 3.066973 1_565
Hf5 Ni0 3.066973 1_565
Hf5 Ni3 3.066973 1_556
Hf5 Ni4 3.066973 1_556
Al0 Co0 2.434439 1_665
Al0 Ni2 2.632609 1_655
Al0 Ni1 2.632609 1_565
Al0 Ni0 2.632615 1_665
Al0 Al11 2.695244 1_555
Al0 Al10 2.695248 1_555
Al0 Al9 2.695248 1_555
Al0 Al6 2.811043 1_565
Al0 Al5 2.811043 1_655
Al0 Al7 2.811055 1_665
Al0 Hf0 3.040701 1_555
Al0 Hf2 3.040708 1_565
Al0 Hf1 3.040709 1_655
Al1 Co0 2.434438 1_656
Al1 Ni3 2.632609 1_556
Al1 Ni2 2.632609 1_655
Al1 Ni4 2.632615 1_656
Al1 Al11 2.695244 1_555
Al1 Al8 2.695248 1_555
Al1 Al10 2.695248 1_555
Al1 Al4 2.811043 1_655
Al1 Al6 2.811043 1_556
Al1 Al7 2.811055 1_656
Al1 Hf4 3.040701 1_555
Al1 Hf3 3.040709 1_655
Al1 Hf2 3.040709 1_556
Al2 Co0 2.434438 1_566
Al2 Ni3 2.632609 1_556
Al2 Ni1 2.632609 1_565
Al2 Ni5 2.632615 1_566
Al2 Al8 2.695248 1_555
Al2 Al9 2.695248 1_555
Al2 Al4 2.811043 1_565
Al2 Al5 2.811043 1_556
Al2 Al7 2.811055 1_566
Al2 Hf5 3.040701 1_555
Al2 Hf3 3.040708 1_565
Al2 Hf1 3.040709 1_556
Al3 Co0 2.434445 1_666
Al3 Ni4 2.632608 1_656
Al3 Ni5 2.632608 1_566
Al3 Ni0 2.632609 1_665
Al3 Al8 2.695241 1_555
Al3 Al9 2.695241 1_555
Al3 Al6 2.811055 1_566
Al3 Al5 2.811055 1_656
Al3 Al4 2.811055 1_665
Al3 Hf4 3.040707 1_565
Al3 Hf5 3.040707 1_655
Al3 Hf0 3.040707 1_556
Al4 Co0 2.434439 1_556
Al4 Ni2 2.632609 1_555
Al4 Ni1 2.632609 1_555
Al4 Ni0 2.632615 1_555
Al4 Hf3 3.040701 1_555
Al4 Hf5 3.040708 1_545
Al4 Hf4 3.040709 1_455
Al5 Co0 2.434438 1_565
Al5 Ni3 2.632609 1_555
Al5 Ni2 2.632609 1_555
Al5 Ni4 2.632615 1_555
Al5 Hf1 3.040701 1_555
Al5 Hf0 3.040709 1_455
Al5 Hf5 3.040709 1_554
Al6 Co0 2.434438 1_655
Al6 Ni3 2.632609 1_555
Al6 Ni1 2.632609 1_555
Al6 Ni5 2.632615 1_555
Al6 Hf2 3.040701 1_555
Al6 Hf0 3.040708 1_545
Al6 Hf4 3.040709 1_554
Al7 Co0 2.434445 1_555
Al7 Ni4 2.632608 1_555
Al7 Ni5 2.632608 1_555
Al7 Ni0 2.632609 1_555
Al7 Hf1 3.040707 1_545
Al7 Hf2 3.040707 1_455
Al7 Hf3 3.040707 1_554
Al8 Ni5 2.432796 1_566
Al8 Ni3 2.432796 1_556
Al8 Ni4 2.432796 1_656
Al8 Al9 2.808141 1_555
Al8 Hf2 2.822200 1_556
Al8 Hf0 2.822200 1_556
Al8 Hf1 2.822200 1_556
Al9 Ni1 2.432796 1_565
Al9 Ni0 2.432796 1_665
Al9 Ni5 2.432796 1_566
Al9 Hf4 2.822199 1_565
Al9 Hf3 2.822199 1_565
Al9 Hf2 2.822200 1_565
Al10 Ni0 2.432796 1_665
Al10 Ni2 2.432796 1_655
Al10 Ni4 2.432796 1_656
Al10 Al3 2.695241 1_555
Al10 Al9 2.808141 1_555
Al10 Al11 2.808141 1_555
Al10 Al8 2.808141 1_555
Al10 Hf3 2.822199 1_655
Al10 Hf5 2.822199 1_655
Al10 Hf1 2.822200 1_655
Al11 Ni1 2.432796 1_565
Al11 Ni2 2.432796 1_655
Al11 Ni3 2.432796 1_556
Al11 Al2 2.695244 1_555
Al11 Al9 2.808141 1_555
Al11 Al8 2.808141 1_555
Al11 Hf4 2.822199 1_555
Al11 Hf5 2.822199 1_555
Al11 Hf0 2.822200 1_555
Al12 Ni5 2.432796 1_555
Al12 Ni3 2.432796 1_555
Al12 Ni4 2.432796 1_555
Al12 Al7 2.695241 1_555
Al12 Al5 2.695248 1_555
Al12 Al6 2.695248 1_555
Al12 Al13 2.808141 1_555
Al12 Al15 2.808141 1_555
Al12 Al14 2.808141 1_555
Al12 Hf5 2.822200 1_554
Al12 Hf3 2.822200 1_554
Al12 Hf4 2.822200 1_554
Al13 Ni1 2.432796 1_555
Al13 Ni0 2.432796 1_555
Al13 Ni5 2.432796 1_555
Al13 Al7 2.695241 1_555
Al13 Al6 2.695248 1_555
Al13 Al4 2.695248 1_555
Al13 Al15 2.808141 1_555
Al13 Al14 2.808141 1_555
Al13 Hf1 2.822199 1_545
Al13 Hf0 2.822199 1_545
Al13 Hf5 2.822200 1_545
Al14 Ni0 2.432796 1_555
Al14 Ni2 2.432796 1_555
Al14 Ni4 2.432796 1_555
Al14 Al7 2.695241 1_555
Al14 Al5 2.695248 1_555
Al14 Al4 2.695248 1_555
Al14 Al15 2.808141 1_555
Al14 Hf0 2.822199 1_455
Al14 Hf2 2.822199 1_455
Al14 Hf4 2.822200 1_455
Al15 Ni1 2.432796 1_555
Al15 Ni2 2.432796 1_555
Al15 Ni3 2.432796 1_555
Al15 Al5 2.695244 1_555
Al15 Al6 2.695244 1_555
Al15 Al4 2.695244 1_555
Al15 Hf1 2.822199 1_555
Al15 Hf2 2.822199 1_555
Al15 Hf3 2.822200 1_555
