# generated using pymatgen
data_BaSrVH9
_symmetry_space_group_name_H-M   'P 1'
_cell_length_a   9.01311852
_cell_length_b   9.01311743
_cell_length_c   5.29729038
_cell_angle_alpha   90.00000000
_cell_angle_beta   90.00000000
_cell_angle_gamma   120.00001128
_symmetry_Int_Tables_number   1
_chemical_formula_structural   BaSrVH9
_chemical_formula_sum   'Ba3 Sr3 V3 H27'
_cell_volume   372.67861617
_cell_formula_units_Z   3
loop_
 _symmetry_equiv_pos_site_id
 _symmetry_equiv_pos_as_xyz
  1  'x, y, z'
loop_
 _atom_site_type_symbol
 _atom_site_label
 _atom_site_symmetry_multiplicity
 _atom_site_fract_x
 _atom_site_fract_y
 _atom_site_fract_z
 _atom_site_occupancy
  Ba  Ba0  1  1.00000000  0.59551875  0.00000000  1
  Ba  Ba1  1  0.40448125  0.40448125  0.00000000  1
  Ba  Ba2  1  0.59551875  1.00000000  0.00000000  1
  Sr  Sr0  1  1.00000000  0.26493123  0.50000000  1
  Sr  Sr1  1  0.73506877  0.73506877  0.50000000  1
  Sr  Sr2  1  0.26493123  1.00000000  0.50000000  1
  V  V0  1  0.66666700  0.33333300  0.50000000  1
  V  V1  1  0.33333300  0.66666700  0.50000000  1
  V  V2  1  0.00000000  0.00000000  0.00000000  1
  H  H0  1  0.79177507  0.31530676  0.73437020  1
  H  H1  1  0.68469324  0.47646731  0.73437020  1
  H  H2  1  0.52353269  0.20822493  0.73437020  1
  H  H3  1  0.20822493  0.52353269  0.26562980  1
  H  H4  1  0.52353269  0.20822493  0.26562980  1
  H  H5  1  0.79177507  0.31530676  0.26562980  1
  H  H6  1  0.68469324  0.47646731  0.26562980  1
  H  H7  1  0.31530676  0.79177507  0.73437020  1
  H  H8  1  0.47646731  0.68469324  0.73437020  1
  H  H9  1  0.19047188  0.00000000  0.00000000  1
  H  H10  1  0.80952812  0.80952812  0.00000000  1
  H  H11  1  0.00000000  0.19047188  0.00000000  1
  H  H12  1  0.86457621  0.00000000  0.22978350  1
  H  H13  1  0.13542379  0.13542379  0.77021650  1
  H  H14  1  0.00000000  0.86457621  0.77021650  1
  H  H15  1  0.00000000  0.86457621  0.22978350  1
  H  H16  1  0.13542379  0.13542379  0.22978350  1
  H  H17  1  0.86457621  0.00000000  0.77021650  1
  H  H18  1  0.13830662  0.64960530  0.50000000  1
  H  H19  1  0.51129868  0.86169338  0.50000000  1
  H  H20  1  0.35039470  0.48870132  0.50000000  1
  H  H21  1  0.48870132  0.35039470  0.50000000  1
  H  H22  1  0.86169338  0.51129868  0.50000000  1
  H  H23  1  0.64960530  0.13830662  0.50000000  1
  H  H24  1  0.20822493  0.52353269  0.73437020  1
  H  H25  1  0.31530676  0.79177507  0.26562980  1
  H  H26  1  0.47646731  0.68469324  0.26562980  1
loop_
_geom_bond_atom_site_label_1
_geom_bond_atom_site_label_2
_geom_bond_distance
_geom_bond_site_symmetry_2
Ba0 H3 2.672234 1_655
Ba0 H24 2.672234 1_654
Ba0 H5 2.672239 1_555
Ba0 H0 2.672239 1_554
Ba0 H15 2.713393 1_655
Ba0 H14 2.713393 1_654
Ba0 H6 2.856277 1_555
Ba0 H1 2.856277 1_554
Ba0 H25 2.856278 1_655
Ba0 H7 2.856278 1_654
Ba0 H22 2.863428 1_555
Ba0 H22 2.863428 1_554
Ba0 H18 2.863428 1_655
Ba0 H18 2.863428 1_654
Ba1 H26 2.672241 1_555
Ba1 H8 2.672241 1_554
Ba1 H6 2.672241 1_555
Ba1 H1 2.672241 1_554
Ba1 H16 2.713392 1_555
Ba1 H13 2.713392 1_554
Ba1 H4 2.856284 1_555
Ba1 H2 2.856284 1_554
Ba1 H3 2.856284 1_555
Ba1 H24 2.856284 1_554
Ba1 H20 2.863428 1_555
Ba1 H20 2.863428 1_554
Ba1 H21 2.863428 1_555
Ba1 H21 2.863428 1_554
Ba2 H4 2.672234 1_565
Ba2 H2 2.672234 1_564
Ba2 H25 2.672239 1_555
Ba2 H7 2.672239 1_554
Ba2 H12 2.713393 1_565
Ba2 H17 2.713393 1_564
Ba2 H26 2.856276 1_555
Ba2 H8 2.856276 1_554
Ba2 H5 2.856277 1_565
Ba2 H0 2.856277 1_564
Ba2 H19 2.863428 1_555
Ba2 H19 2.863428 1_554
Ba2 H23 2.863428 1_565
Ba2 H23 2.863428 1_564
H0 V0 1.738536 1_555
H0 Sr0 2.474243 1_555
H1 V0 1.738535 1_555
H1 Sr1 2.474250 1_555
H2 V0 1.738535 1_555
H2 Sr2 2.474248 1_545
H3 V1 1.738535 1_555
H3 Sr0 2.474248 1_455
H4 V0 1.738535 1_555
H4 Sr2 2.474248 1_545
H5 V0 1.738536 1_555
H5 Sr0 2.474243 1_555
H6 V0 1.738535 1_555
H6 Sr1 2.474250 1_555
H7 V1 1.738536 1_555
H7 Sr2 2.474243 1_555
H8 V1 1.738536 1_555
H8 Sr1 2.474251 1_555
H9 V2 1.716746 1_555
H9 Sr2 2.732345 1_544
H9 Sr2 2.732345 1_545
H10 V2 1.716745 1_665
H10 Sr1 2.732345 1_555
H10 Sr1 2.732345 1_554
H11 V2 1.716745 1_555
H11 Sr0 2.732345 1_455
H11 Sr0 2.732345 1_454
H12 V2 1.723801 1_655
H12 Sr0 2.515165 1_555
H12 Sr1 2.515165 1_545
H13 V2 1.723801 1_556
H13 Sr2 2.515165 1_545
H13 Sr0 2.515165 1_455
H14 V2 1.723801 1_566
H14 Sr2 2.515165 1_555
H14 Sr1 2.515165 1_455
H15 V2 1.723801 1_565
H15 Sr2 2.515165 1_555
H15 Sr1 2.515165 1_455
H16 V2 1.723801 1_555
H16 Sr2 2.515165 1_545
H16 Sr0 2.515165 1_455
H17 V2 1.723801 1_656
H17 Sr0 2.515165 1_555
H17 Sr1 2.515165 1_545
H18 V1 1.686174 1_555
H18 Sr2 2.769853 1_555
H19 V1 1.686177 1_555
H19 Sr1 2.769854 1_555
H20 V1 1.686183 1_555
H20 Sr0 2.769853 1_455
H21 V0 1.686183 1_555
H21 Sr2 2.769853 1_545
H22 V0 1.686177 1_555
H22 Sr1 2.769854 1_555
H23 V0 1.686174 1_555
H23 Sr0 2.769854 1_555
H24 V1 1.738535 1_555
H24 Sr0 2.474248 1_455
H25 V1 1.738536 1_555
H25 Sr2 2.474243 1_555
H26 V1 1.738536 1_555
H26 Sr1 2.474251 1_555
