# generated using pymatgen
data_Mn2ZnSnRh4
_symmetry_space_group_name_H-M   'P 1'
_cell_length_a   7.52818030
_cell_length_b   7.52818025
_cell_length_c   7.52818154
_cell_angle_alpha   33.53917182
_cell_angle_beta   33.53917033
_cell_angle_gamma   33.53917043
_symmetry_Int_Tables_number   1
_chemical_formula_structural   Mn2ZnSnRh4
_chemical_formula_sum   'Mn2 Zn1 Sn1 Rh4'
_cell_volume   116.00469767
_cell_formula_units_Z   1
loop_
 _symmetry_equiv_pos_site_id
 _symmetry_equiv_pos_as_xyz
  1  'x, y, z'
loop_
 _atom_site_type_symbol
 _atom_site_label
 _atom_site_symmetry_multiplicity
 _atom_site_fract_x
 _atom_site_fract_y
 _atom_site_fract_z
 _atom_site_occupancy
  Mn  Mn0  1  0.25302397  0.25302397  0.25302397  1
  Mn  Mn1  1  0.74697603  0.74697603  0.74697603  1
  Zn  Zn0  1  0.00000000  0.00000000  0.00000000  1
  Sn  Sn0  1  0.50000000  0.50000000  0.50000000  1
  Rh  Rh0  1  0.62622856  0.62622856  0.62622856  1
  Rh  Rh1  1  0.12371227  0.12371227  0.12371227  1
  Rh  Rh2  1  0.87628773  0.87628773  0.87628773  1
  Rh  Rh3  1  0.37377144  0.37377144  0.37377144  1
loop_
_geom_bond_atom_site_label_1
_geom_bond_atom_site_label_2
_geom_bond_distance
_geom_bond_site_symmetry_2
Mn0 Rh3 2.571234 1_555
Mn0 Rh0 2.647886 1_554
Mn0 Rh0 2.647886 1_455
Mn0 Rh0 2.647886 1_545
Mn0 Rh2 2.672949 1_445
Mn0 Rh2 2.672949 1_544
Mn0 Rh2 2.672949 1_454
Mn0 Rh1 2.753603 1_555
Mn1 Rh0 2.571234 1_555
Mn1 Rh3 2.647886 1_556
Mn1 Rh3 2.647886 1_655
Mn1 Rh3 2.647886 1_565
Mn1 Rh1 2.672949 1_665
Mn1 Rh1 2.672949 1_566
Mn1 Rh1 2.672949 1_656
Mn1 Rh2 2.753603 1_555
Rh0 Zn0 2.651781 1_665
Rh0 Zn0 2.651781 1_566
Rh0 Zn0 2.651781 1_656
Rh0 Sn0 2.687950 1_555
Rh1 Zn0 2.634367 1_555
Rh1 Sn0 2.669661 1_554
Rh1 Sn0 2.669662 1_455
Rh1 Sn0 2.669662 1_545
Rh2 Zn0 2.634367 1_666
Rh2 Sn0 2.669661 1_556
Rh2 Sn0 2.669662 1_655
Rh2 Sn0 2.669662 1_565
Rh3 Zn0 2.651781 1_556
Rh3 Zn0 2.651781 1_655
Rh3 Zn0 2.651781 1_565
Rh3 Sn0 2.687950 1_555
