# generated using pymatgen
data_Rb7Ta(AsP)2
_symmetry_space_group_name_H-M   'P 1'
_cell_length_a   8.50012539
_cell_length_b   9.53941378
_cell_length_c   10.41721095
_cell_angle_alpha   90.00000000
_cell_angle_beta   90.00000000
_cell_angle_gamma   90.00000000
_symmetry_Int_Tables_number   1
_chemical_formula_structural   Rb7Ta(AsP)2
_chemical_formula_sum   'Rb14 Ta2 As4 P4'
_cell_volume   844.69218882
_cell_formula_units_Z   2
loop_
 _symmetry_equiv_pos_site_id
 _symmetry_equiv_pos_as_xyz
  1  'x, y, z'
loop_
 _atom_site_type_symbol
 _atom_site_label
 _atom_site_symmetry_multiplicity
 _atom_site_fract_x
 _atom_site_fract_y
 _atom_site_fract_z
 _atom_site_occupancy
  Rb  Rb0  1  0.69891332  0.82599708  0.70910701  1
  Rb  Rb1  1  0.19891332  0.17400292  0.79089299  1
  Rb  Rb2  1  0.19891332  0.17400292  0.20910701  1
  Rb  Rb3  1  0.69891332  0.82599708  0.29089299  1
  Rb  Rb4  1  0.87837435  0.46687683  0.70573798  1
  Rb  Rb5  1  0.37837435  0.53312317  0.79426202  1
  Rb  Rb6  1  0.37837435  0.53312317  0.20573798  1
  Rb  Rb7  1  0.87837435  0.46687683  0.29426202  1
  Rb  Rb8  1  0.17241208  0.64958906  0.50000000  1
  Rb  Rb9  1  0.67241208  0.35041094  0.00000000  1
  Rb  Rb10  1  0.85789714  0.03444098  0.00000000  1
  Rb  Rb11  1  0.35789714  0.96555902  0.50000000  1
  Rb  Rb12  1  0.40133588  0.90683929  0.00000000  1
  Rb  Rb13  1  0.90133588  0.09316071  0.50000000  1
  Ta  Ta0  1  0.99742346  0.67915251  0.00000000  1
  Ta  Ta1  1  0.49742346  0.32084749  0.50000000  1
  As  As0  1  0.09247422  0.80856499  0.79948672  1
  As  As1  1  0.59247422  0.19143501  0.70051328  1
  As  As2  1  0.59247422  0.19143501  0.29948672  1
  As  As3  1  0.09247422  0.80856499  0.20051328  1
  P  P0  1  0.71667607  0.68779682  0.00000000  1
  P  P1  1  0.21667607  0.31220318  0.50000000  1
  P  P2  1  0.57307960  0.56332302  0.50000000  1
  P  P3  1  0.07307960  0.43667698  0.00000000  1
loop_
_geom_bond_atom_site_label_1
_geom_bond_atom_site_label_2
_geom_bond_distance
_geom_bond_site_symmetry_2
As0 Ta0 2.557313 1_456
As0 Rb0 3.479257 1_455
As0 Rb12 3.483452 1_556
As0 Rb8 3.534803 1_555
As0 Rb5 3.579498 1_555
As0 Rb1 3.602668 1_565
As0 Rb10 3.603006 1_466
As1 Ta1 2.557313 1_555
As1 Rb1 3.479257 1_555
As1 Rb13 3.483452 1_555
As1 Rb9 3.534803 1_556
As1 Rb4 3.579498 1_555
As1 Rb0 3.602668 1_545
As1 Rb11 3.603006 1_545
As2 Ta1 2.557313 1_555
As2 Rb2 3.479257 1_555
As2 Rb13 3.483452 1_555
As2 Rb9 3.534803 1_555
As2 Rb7 3.579498 1_555
As2 Rb3 3.602668 1_545
As2 Rb11 3.603006 1_545
As3 Ta0 2.557313 1_455
As3 Rb3 3.479257 1_455
As3 Rb12 3.483452 1_555
As3 Rb8 3.534803 1_555
As3 Rb6 3.579498 1_555
As3 Rb2 3.602668 1_565
As3 Rb10 3.603006 1_465
P0 Ta0 2.387812 1_555
P0 Rb9 3.240381 1_555
P0 Rb0 3.308099 1_554
P0 Rb3 3.308099 1_555
P0 Rb12 3.398658 1_555
P0 Rb10 3.517920 1_565
P1 Ta1 2.387812 1_555
P1 Rb8 3.240381 1_555
P1 Rb2 3.308099 1_555
P1 Rb1 3.308099 1_555
P1 Rb13 3.398658 1_455
P1 Rb11 3.517920 1_545
P2 Ta1 2.400807 1_555
P2 Rb3 3.488253 1_555
P2 Rb0 3.488253 1_555
P2 Rb4 3.489140 1_555
P2 Rb7 3.489140 1_555
P2 Rb5 3.495525 1_555
P2 Rb6 3.495525 1_555
P2 Rb8 3.503736 1_555
P3 Ta0 2.400807 1_455
P3 Rb1 3.488253 1_554
P3 Rb2 3.488253 1_555
P3 Rb6 3.489140 1_555
P3 Rb5 3.489140 1_554
P3 Rb7 3.495525 1_455
P3 Rb4 3.495525 1_454
P3 Rb9 3.503736 1_455
