# generated using pymatgen
data_Al20FeNiRh6
_symmetry_space_group_name_H-M   'P 1'
_cell_length_a   7.80800799
_cell_length_b   7.80800857
_cell_length_c   7.77343680
_cell_angle_alpha   90.00000000
_cell_angle_beta   90.00000000
_cell_angle_gamma   120.00000577
_symmetry_Int_Tables_number   1
_chemical_formula_structural   Al20FeNiRh6
_chemical_formula_sum   'Al20 Fe1 Ni1 Rh6'
_cell_volume   410.41592950
_cell_formula_units_Z   1
loop_
 _symmetry_equiv_pos_site_id
 _symmetry_equiv_pos_as_xyz
  1  'x, y, z'
loop_
 _atom_site_type_symbol
 _atom_site_label
 _atom_site_symmetry_multiplicity
 _atom_site_fract_x
 _atom_site_fract_y
 _atom_site_fract_z
 _atom_site_occupancy
  Al  Al0  1  0.00000000  0.00000000  0.99795280  1
  Al  Al1  1  0.00000000  0.00000000  0.50204720  1
  Al  Al2  1  0.47309639  0.94619278  0.25000000  1
  Al  Al3  1  0.52299974  0.47700026  0.75000000  1
  Al  Al4  1  0.95400052  0.47700026  0.75000000  1
  Al  Al5  1  0.05380722  0.52690361  0.25000000  1
  Al  Al6  1  0.47309639  0.52690361  0.25000000  1
  Al  Al7  1  0.52299974  0.04599948  0.75000000  1
  Al  Al8  1  0.19797288  0.39594476  0.94036115  1
  Al  Al9  1  0.80396982  0.19603018  0.43957642  1
  Al  Al10  1  0.39205936  0.19603018  0.43957642  1
  Al  Al11  1  0.60405524  0.80202712  0.94036115  1
  Al  Al12  1  0.19797288  0.80202712  0.94036115  1
  Al  Al13  1  0.80396982  0.60794064  0.06042358  1
  Al  Al14  1  0.80396982  0.19603018  0.06042358  1
  Al  Al15  1  0.80396982  0.60794064  0.43957642  1
  Al  Al16  1  0.39205936  0.19603018  0.06042358  1
  Al  Al17  1  0.60405524  0.80202712  0.55963885  1
  Al  Al18  1  0.19797288  0.39594476  0.55963885  1
  Al  Al19  1  0.19797288  0.80202712  0.55963885  1
  Fe  Fe0  1  0.33333300  0.66666700  0.75000000  1
  Ni  Ni0  1  0.66666700  0.33333300  0.25000000  1
  Rh  Rh0  1  0.12880676  0.25761451  0.25000000  1
  Rh  Rh1  1  0.86983019  0.13016981  0.75000000  1
  Rh  Rh2  1  0.26033962  0.13016981  0.75000000  1
  Rh  Rh3  1  0.74238549  0.87119324  0.25000000  1
  Rh  Rh4  1  0.12880676  0.87119324  0.25000000  1
  Rh  Rh5  1  0.86983019  0.73966038  0.75000000  1
loop_
_geom_bond_atom_site_label_1
_geom_bond_atom_site_label_2
_geom_bond_distance
_geom_bond_site_symmetry_2
Al0 Rh2 2.610374 1_555
Al0 Rh5 2.610374 1_445
Al0 Rh1 2.610374 1_455
Al0 Rh4 2.621678 1_546
Al0 Rh3 2.621682 1_446
Al0 Rh0 2.621682 1_556
Al0 Al16 2.695188 1_556
Al0 Al13 2.695188 1_446
Al0 Al14 2.695195 1_456
Al0 Al11 2.714523 1_445
Al0 Al8 2.714523 1_555
Al0 Al12 2.714530 1_545
Al1 Rh2 2.610374 1_555
Al1 Rh5 2.610374 1_445
Al1 Rh1 2.610374 1_455
Al1 Rh4 2.621678 1_545
Al1 Rh3 2.621682 1_445
Al1 Rh0 2.621682 1_555
Al1 Al10 2.695188 1_555
Al1 Al15 2.695188 1_445
Al1 Al9 2.695195 1_455
Al1 Al17 2.714523 1_445
Al1 Al18 2.714523 1_555
Al1 Al19 2.714530 1_545
Al2 Rh3 2.448506 1_555
Al2 Rh4 2.448514 1_555
Al2 Ni0 2.617816 1_565
Al2 Al9 2.758925 1_565
Al3 Rh5 2.446576 1_555
Al3 Rh2 2.446576 1_555
Al3 Fe0 2.565028 1_555
Al3 Al8 2.724809 1_555
Al4 Rh1 2.446576 1_555
Al4 Rh5 2.446577 1_555
Al4 Fe0 2.565021 1_655
Al4 Al8 2.724816 1_655
Al4 Al9 3.072137 1_555
Al5 Rh0 2.448506 1_555
Al5 Rh4 2.448514 1_555
Al5 Ni0 2.617816 1_455
Al5 Al9 2.758925 1_455
Al5 Al8 3.042548 1_554
Al6 Rh0 2.448511 1_555
Al6 Rh3 2.448511 1_555
Al6 Ni0 2.617823 1_555
Al6 Al8 3.042543 1_554
Al7 Rh1 2.446576 1_555
Al7 Rh2 2.446576 1_555
Al7 Fe0 2.565021 1_545
Al7 Al9 3.072137 1_555
Al8 Fe0 2.353892 1_555
Al8 Rh0 2.582321 1_556
Al8 Rh2 2.782749 1_555
Al8 Rh1 2.782753 1_455
Al9 Ni0 2.370574 1_555
Al9 Rh1 2.572192 1_555
Al9 Rh0 2.759758 1_655
Al9 Rh3 2.759758 1_545
Al10 Ni0 2.370585 1_555
Al10 Rh2 2.572190 1_555
Al10 Al6 2.758923 1_555
Al10 Al2 2.758929 1_545
Al10 Rh4 2.759758 1_545
Al10 Rh0 2.759758 1_555
Al10 Al18 2.823043 1_555
Al10 Al19 2.823056 1_545
Al10 Al16 2.947321 1_555
Al10 Al3 3.072137 1_555
Al10 Al7 3.072142 1_555
Al11 Fe0 2.353892 1_555
Al11 Rh3 2.582321 1_556
Al11 Al3 2.724809 1_555
Al11 Al7 2.724816 1_565
Al11 Rh5 2.782749 1_555
Al11 Rh1 2.782753 1_565
Al11 Al13 2.823043 1_556
Al11 Al14 2.823056 1_566
Al11 Al17 2.959521 1_555
Al11 Al6 3.042543 1_556
Al11 Al2 3.042548 1_556
Al12 Fe0 2.353882 1_555
Al12 Rh4 2.582326 1_556
Al12 Al7 2.724811 1_565
Al12 Al4 2.724811 1_455
Al12 Rh5 2.782755 1_455
Al12 Rh2 2.782755 1_565
Al12 Al13 2.823056 1_456
Al12 Al16 2.823056 1_566
Al12 Al19 2.959521 1_555
Al12 Al2 3.042543 1_556
Al12 Al5 3.042543 1_556
Al13 Ni0 2.370585 1_555
Al13 Rh5 2.572190 1_554
Al13 Al6 2.758923 1_555
Al13 Al5 2.758929 1_655
Al13 Rh4 2.759758 1_655
Al13 Rh3 2.759758 1_555
Al13 Al15 2.947321 1_555
Al13 Al3 3.072137 1_554
Al13 Al4 3.072142 1_554
Al14 Ni0 2.370574 1_555
Al14 Rh1 2.572192 1_554
Al14 Al2 2.758925 1_545
Al14 Al5 2.758925 1_655
Al14 Rh0 2.759758 1_655
Al14 Rh3 2.759758 1_545
Al14 Al8 2.823055 1_654
Al14 Al9 2.947321 1_555
Al14 Al7 3.072137 1_554
Al14 Al4 3.072137 1_554
Al15 Ni0 2.370585 1_555
Al15 Rh5 2.572190 1_555
Al15 Al6 2.758923 1_555
Al15 Al5 2.758929 1_655
Al15 Rh4 2.759758 1_655
Al15 Rh3 2.759758 1_555
Al15 Al17 2.823043 1_555
Al15 Al19 2.823056 1_655
Al15 Al3 3.072137 1_555
Al15 Al4 3.072142 1_555
Al16 Ni0 2.370585 1_555
Al16 Rh2 2.572190 1_554
Al16 Al6 2.758923 1_555
Al16 Al2 2.758929 1_545
Al16 Rh4 2.759758 1_545
Al16 Rh0 2.759758 1_555
Al16 Al8 2.823043 1_554
Al16 Al3 3.072137 1_554
Al16 Al7 3.072142 1_554
Al17 Fe0 2.353892 1_555
Al17 Rh3 2.582321 1_555
Al17 Al3 2.724809 1_555
Al17 Al7 2.724816 1_565
Al17 Rh5 2.782749 1_555
Al17 Rh1 2.782753 1_565
Al17 Al9 2.823056 1_565
Al17 Al6 3.042543 1_555
Al17 Al2 3.042548 1_555
Al18 Fe0 2.353892 1_555
Al18 Rh0 2.582321 1_555
Al18 Al3 2.724809 1_555
Al18 Al4 2.724816 1_455
Al18 Rh2 2.782749 1_555
Al18 Rh1 2.782753 1_455
Al18 Al9 2.823055 1_455
Al18 Al8 2.959521 1_555
Al18 Al6 3.042543 1_555
Al18 Al5 3.042548 1_555
Al19 Fe0 2.353882 1_555
Al19 Rh4 2.582326 1_555
Al19 Al7 2.724811 1_565
Al19 Al4 2.724811 1_455
Al19 Rh5 2.782755 1_455
Al19 Rh2 2.782755 1_565
Al19 Al2 3.042543 1_555
Al19 Al5 3.042543 1_555
Rh0 Rh3 3.017180 1_445
Rh0 Rh4 3.017181 1_545
Rh1 Rh2 3.049101 1_655
Rh1 Rh5 3.049101 1_545
Rh2 Rh5 3.049101 1_445
Rh3 Rh4 3.017180 1_655
