# generated using pymatgen
data_SrHgGeS4
_symmetry_space_group_name_H-M   'P 1'
_cell_length_a   6.11471042
_cell_length_b   6.11471041
_cell_length_c   10.44116237
_cell_angle_alpha   90.00000000
_cell_angle_beta   90.00000000
_cell_angle_gamma   116.01874177
_symmetry_Int_Tables_number   1
_chemical_formula_structural   SrHgGeS4
_chemical_formula_sum   'Sr2 Hg2 Ge2 S8'
_cell_volume   350.82578750
_cell_formula_units_Z   2
loop_
 _symmetry_equiv_pos_site_id
 _symmetry_equiv_pos_as_xyz
  1  'x, y, z'
loop_
 _atom_site_type_symbol
 _atom_site_label
 _atom_site_symmetry_multiplicity
 _atom_site_fract_x
 _atom_site_fract_y
 _atom_site_fract_z
 _atom_site_occupancy
  Sr  Sr0  1  0.94758657  0.94758657  0.50000000  1
  Sr  Sr1  1  0.94758657  0.94758657  0.00000000  1
  Hg  Hg0  1  0.66561720  0.32894105  0.75000000  1
  Hg  Hg1  1  0.32894105  0.66561720  0.25000000  1
  Ge  Ge0  1  0.24514203  0.67509166  0.75000000  1
  Ge  Ge1  1  0.67509166  0.24514203  0.25000000  1
  S  S0  1  0.02293203  0.47872846  0.58116308  1
  S  S1  1  0.47872846  0.02293203  0.41883692  1
  S  S2  1  0.63225781  0.76004046  0.75000000  1
  S  S3  1  0.76004046  0.63225781  0.25000000  1
  S  S4  1  0.02293203  0.47872846  0.91883692  1
  S  S5  1  0.47872846  0.02293203  0.08116308  1
  S  S6  1  0.23530399  0.03991066  0.75000000  1
  S  S7  1  0.03991066  0.23530399  0.25000000  1
loop_
_geom_bond_atom_site_label_1
_geom_bond_atom_site_label_2
_geom_bond_distance
_geom_bond_site_symmetry_2
Hg0 S6 2.442758 1_555
Hg0 S4 2.639045 1_655
Hg0 S0 2.639045 1_655
Hg0 S2 2.731686 1_555
Hg1 S7 2.442758 1_555
Hg1 S1 2.639045 1_565
Hg1 S5 2.639045 1_565
Hg1 S3 2.731686 1_555
Ge0 S2 2.189578 1_555
Ge0 S4 2.228053 1_555
Ge0 S0 2.228053 1_555
Ge0 S6 2.257798 1_565
Ge1 S3 2.189578 1_555
Ge1 S1 2.228053 1_555
Ge1 S5 2.228053 1_555
Ge1 S7 2.257798 1_655
S0 Sr0 3.188373 1_445
S0 Sr0 3.210688 1_455
S1 Sr0 3.188373 1_445
S1 Sr0 3.210688 1_545
S2 Sr1 3.147468 1_556
S2 Sr0 3.147468 1_555
S3 Sr0 3.147468 1_555
S3 Sr1 3.147468 1_555
S4 Sr1 3.188373 1_446
S4 Sr1 3.210688 1_456
S5 Sr1 3.188373 1_445
S5 Sr1 3.210688 1_545
S6 Sr1 3.058779 1_446
S6 Sr0 3.058779 1_445
S7 Sr0 3.058779 1_445
S7 Sr1 3.058779 1_445
