# generated using pymatgen
data_LuCdCu3Ir
_symmetry_space_group_name_H-M   'P 1'
_cell_length_a   4.97789186
_cell_length_b   5.17213576
_cell_length_c   4.97789190
_cell_angle_alpha   61.23474513
_cell_angle_beta   59.99999326
_cell_angle_gamma   61.23474017
_symmetry_Int_Tables_number   1
_chemical_formula_structural   LuCdCu3Ir
_chemical_formula_sum   'Lu1 Cd1 Cu3 Ir1'
_cell_volume   92.27920733
_cell_formula_units_Z   1
loop_
 _symmetry_equiv_pos_site_id
 _symmetry_equiv_pos_as_xyz
  1  'x, y, z'
loop_
 _atom_site_type_symbol
 _atom_site_label
 _atom_site_symmetry_multiplicity
 _atom_site_fract_x
 _atom_site_fract_y
 _atom_site_fract_z
 _atom_site_occupancy
  Lu  Lu0  1  0.74684194  0.75947219  0.74684194  1
  Cd  Cd0  1  0.99700919  0.00897243  0.99700919  1
  Cu  Cu0  1  0.37638000  0.37014204  0.37638000  1
  Cu  Cu1  1  0.87709896  0.37014204  0.37638000  1
  Cu  Cu2  1  0.37638000  0.37014204  0.87709896  1
  Ir  Ir0  1  0.37629091  0.87112726  0.37629091  1
loop_
_geom_bond_atom_site_label_1
_geom_bond_atom_site_label_2
_geom_bond_distance
_geom_bond_site_symmetry_2
Cd0 Cu2 2.933751 1_555
Cd0 Cu1 2.933751 1_555
Cd0 Cu0 2.933753 1_556
Cd0 Cu0 2.933754 1_655
Cd0 Cu1 2.933756 1_556
Cd0 Cu2 2.933756 1_655
Cd0 Ir0 2.934477 1_645
Cd0 Ir0 2.934477 1_546
Cd0 Ir0 2.934478 1_646
Cd0 Lu0 3.067714 1_645
Cd0 Lu0 3.067714 1_546
Cd0 Lu0 3.067722 1_545
Cd0 Cu2 3.099249 1_645
Cd0 Cu1 3.099249 1_546
Cd0 Cu0 3.099251 1_646
Cd0 Lu0 3.227252 1_555
Cu0 Cu1 2.485367 1_455
Cu0 Cu2 2.485367 1_554
Cu0 Cu1 2.492525 1_555
Cu0 Cu2 2.492525 1_555
Cu0 Ir0 2.581399 1_545
Cu0 Ir0 2.590737 1_555
Cu0 Lu0 2.994421 1_545
Cu0 Lu0 2.999618 1_455
Cu0 Lu0 2.999619 1_554
Cu1 Cu2 2.485367 1_654
Cu1 Cu2 2.492525 1_555
Cu1 Ir0 2.581396 1_645
Cu1 Ir0 2.590739 1_555
Cu1 Lu0 2.994427 1_545
Cu1 Lu0 2.999613 1_555
Cu1 Lu0 2.999625 1_554
Cu2 Ir0 2.581396 1_546
Cu2 Ir0 2.590739 1_555
Cu2 Lu0 2.994427 1_545
Cu2 Lu0 2.999613 1_555
Cu2 Lu0 2.999625 1_455
Ir0 Lu0 2.913811 1_555
Ir0 Lu0 2.913820 1_554
Ir0 Lu0 2.913820 1_455
