# generated using pymatgen
data_SrFe3As12Pd
_symmetry_space_group_name_H-M   'P 1'
_cell_length_a   7.27184275
_cell_length_b   7.27184188
_cell_length_c   7.27184229
_cell_angle_alpha   109.55113004
_cell_angle_beta   109.55111831
_cell_angle_gamma   109.55112091
_symmetry_Int_Tables_number   1
_chemical_formula_structural   SrFe3As12Pd
_chemical_formula_sum   'Sr1 Fe3 As12 Pd1'
_cell_volume   295.13451741
_cell_formula_units_Z   1
loop_
 _symmetry_equiv_pos_site_id
 _symmetry_equiv_pos_as_xyz
  1  'x, y, z'
loop_
 _atom_site_type_symbol
 _atom_site_label
 _atom_site_symmetry_multiplicity
 _atom_site_fract_x
 _atom_site_fract_y
 _atom_site_fract_z
 _atom_site_occupancy
  Sr  Sr0  1  0.00000000  0.00000000  0.00000000  1
  Fe  Fe0  1  0.50000000  0.00000000  0.00000000  1
  Fe  Fe1  1  0.00000000  0.50000000  0.00000000  1
  Fe  Fe2  1  0.00000000  0.00000000  0.50000000  1
  As  As0  1  0.86249938  0.66053563  0.49941957  1
  As  As1  1  0.13750062  0.33946437  0.50058043  1
  As  As2  1  0.15600773  0.65786922  0.81280236  1
  As  As3  1  0.84399227  0.34213078  0.18719764  1
  As  As4  1  0.66053563  0.49941957  0.86249938  1
  As  As5  1  0.33946437  0.50058043  0.13750062  1
  As  As6  1  0.65786922  0.81280236  0.15600773  1
  As  As7  1  0.34213078  0.18719764  0.84399227  1
  As  As8  1  0.49941957  0.86249938  0.66053563  1
  As  As9  1  0.50058043  0.13750062  0.33946437  1
  As  As10  1  0.18719764  0.84399227  0.34213078  1
  As  As11  1  0.81280236  0.15600773  0.65786922  1
  Pd  Pd0  1  0.50000000  0.50000000  0.50000000  1
loop_
_geom_bond_atom_site_label_1
_geom_bond_atom_site_label_2
_geom_bond_distance
_geom_bond_site_symmetry_2
As0 Fe2 2.330590 1_665
As0 Pd0 2.502528 1_555
As0 As2 2.559482 1_655
As0 As3 2.569530 1_555
As0 Sr0 3.200290 1_666
As1 Fe2 2.330590 1_555
As1 Pd0 2.502528 1_555
As1 As3 2.559482 1_455
As1 As2 2.569530 1_555
As1 Sr0 3.200290 1_555
As2 Fe0 2.364106 1_566
As2 Fe1 2.380303 1_556
As2 Sr0 3.160024 1_566
As3 Fe0 2.364106 1_555
As3 Fe1 2.380303 1_655
As3 Sr0 3.160024 1_655
As4 Fe1 2.330590 1_656
As4 Pd0 2.502528 1_555
As4 As6 2.559481 1_556
As4 As7 2.569530 1_555
As4 Sr0 3.200290 1_666
As5 Fe1 2.330590 1_555
As5 Pd0 2.502528 1_555
As5 As7 2.559481 1_554
As5 As6 2.569530 1_555
As5 Sr0 3.200290 1_555
As6 Fe2 2.364107 1_665
As6 Fe0 2.380303 1_565
As6 Sr0 3.160024 1_665
As7 Fe2 2.364107 1_555
As7 Fe0 2.380303 1_556
As7 Sr0 3.160024 1_556
As8 Fe0 2.330590 1_566
As8 Pd0 2.502528 1_555
As8 Sr0 3.200291 1_666
As9 Fe0 2.330590 1_555
As9 Pd0 2.502528 1_555
As9 Sr0 3.200291 1_555
As10 Fe1 2.364106 1_555
As10 Fe2 2.380303 1_565
As10 As9 2.559482 1_565
As10 As8 2.569530 1_555
As10 Sr0 3.160024 1_565
As11 Fe1 2.364106 1_656
As11 Fe2 2.380303 1_655
As11 As8 2.559482 1_545
As11 As9 2.569530 1_555
As11 Sr0 3.160024 1_656
