# generated using pymatgen
data_CaY6Sn23Rh6
_symmetry_space_group_name_H-M   'P 1'
_cell_length_a   9.85417465
_cell_length_b   9.85417660
_cell_length_c   9.98410306
_cell_angle_alpha   90.00000000
_cell_angle_beta   90.00000000
_cell_angle_gamma   120.00000343
_symmetry_Int_Tables_number   1
_chemical_formula_structural   CaY6Sn23Rh6
_chemical_formula_sum   'Ca1 Y6 Sn23 Rh6'
_cell_volume   839.61515330
_cell_formula_units_Z   1
loop_
 _symmetry_equiv_pos_site_id
 _symmetry_equiv_pos_as_xyz
  1  'x, y, z'
loop_
 _atom_site_type_symbol
 _atom_site_label
 _atom_site_symmetry_multiplicity
 _atom_site_fract_x
 _atom_site_fract_y
 _atom_site_fract_z
 _atom_site_occupancy
  Ca  Ca0  1  0.00000000  0.00000000  0.00000000  1
  Y  Y0  1  0.03970659  0.51985379  0.30686302  1
  Y  Y1  1  0.48014621  0.96029341  0.30686302  1
  Y  Y2  1  0.48014621  0.51985379  0.30686302  1
  Y  Y3  1  0.96029341  0.48014621  0.69313698  1
  Y  Y4  1  0.51985379  0.03970659  0.69313698  1
  Y  Y5  1  0.51985379  0.48014621  0.69313698  1
  Sn  Sn0  1  0.00000000  0.00000000  0.50000000  1
  Sn  Sn1  1  0.11701892  0.88298108  0.28153099  1
  Sn  Sn2  1  0.76596117  0.88298108  0.28153099  1
  Sn  Sn3  1  0.11701892  0.23403883  0.28153099  1
  Sn  Sn4  1  0.88298108  0.11701892  0.71846901  1
  Sn  Sn5  1  0.23403883  0.11701892  0.71846901  1
  Sn  Sn6  1  0.88298108  0.76596117  0.71846901  1
  Sn  Sn7  1  0.35127217  0.00000000  0.00000000  1
  Sn  Sn8  1  0.64872783  0.64872783  0.00000000  1
  Sn  Sn9  1  1.00000000  0.35127217  0.00000000  1
  Sn  Sn10  1  0.35127217  0.35127217  0.00000000  1
  Sn  Sn11  1  0.00000000  0.64872783  0.00000000  1
  Sn  Sn12  1  0.64872783  1.00000000  0.00000000  1
  Sn  Sn13  1  0.77780341  0.55560581  0.45817571  1
  Sn  Sn14  1  0.77780341  0.22219659  0.45817571  1
  Sn  Sn15  1  0.44439419  0.22219659  0.45817571  1
  Sn  Sn16  1  0.22219659  0.44439419  0.54182429  1
  Sn  Sn17  1  0.22219659  0.77780341  0.54182429  1
  Sn  Sn18  1  0.55560581  0.77780341  0.54182429  1
  Sn  Sn19  1  0.66666700  0.33333300  0.17623888  1
  Sn  Sn20  1  0.33333300  0.66666700  0.82376112  1
  Sn  Sn21  1  0.66666700  0.33333300  0.88262859  1
  Sn  Sn22  1  0.33333300  0.66666700  0.11737141  1
  Rh  Rh0  1  0.17014350  0.82985650  0.79926960  1
  Rh  Rh1  1  0.65971399  0.82985650  0.79926960  1
  Rh  Rh2  1  0.17014350  0.34028601  0.79926960  1
  Rh  Rh3  1  0.82985650  0.17014350  0.20073040  1
  Rh  Rh4  1  0.34028601  0.17014350  0.20073040  1
  Rh  Rh5  1  0.82985650  0.65971399  0.20073040  1
loop_
_geom_bond_atom_site_label_1
_geom_bond_atom_site_label_2
_geom_bond_distance
_geom_bond_site_symmetry_2
Ca0 Sn1 3.448171 1_545
Ca0 Sn4 3.448171 1_454
Ca0 Sn2 3.448176 1_445
Ca0 Sn5 3.448176 1_554
Ca0 Sn3 3.448176 1_555
Ca0 Sn6 3.448176 1_444
Ca0 Sn7 3.461497 1_555
Ca0 Sn12 3.461497 1_445
Ca0 Sn10 3.461497 1_555
Ca0 Sn8 3.461497 1_445
Ca0 Sn9 3.461498 1_455
Ca0 Sn11 3.461498 1_545
Ca0 Rh4 3.528402 1_555
Ca0 Rh1 3.528402 1_444
Ca0 Rh2 3.528403 1_554
Ca0 Rh5 3.528403 1_445
Ca0 Rh0 3.528409 1_544
Ca0 Rh3 3.528409 1_455
Sn0 Sn4 2.957499 1_455
Sn0 Sn1 2.957499 1_545
Sn0 Sn5 2.957504 1_555
Sn0 Sn2 2.957504 1_445
Sn0 Sn6 2.957505 1_445
Sn0 Sn3 2.957505 1_555
Sn1 Y1 3.274540 1_555
Sn1 Y0 3.274541 1_555
Sn2 Y1 3.274540 1_555
Sn2 Y2 3.274541 1_555
Sn3 Y2 3.274540 1_555
Sn3 Y0 3.274541 1_555
Sn4 Y4 3.274540 1_555
Sn4 Y3 3.274541 1_555
Sn5 Y4 3.274540 1_555
Sn5 Y5 3.274541 1_555
Sn6 Y5 3.274540 1_555
Sn6 Y3 3.274541 1_555
Sn7 Y1 3.413113 1_545
Sn7 Y4 3.413117 1_554
Sn8 Y2 3.413116 1_555
Sn8 Y5 3.413116 1_554
Sn9 Y3 3.413113 1_554
Sn9 Y0 3.413117 1_655
Sn10 Y5 3.413116 1_554
Sn10 Y2 3.413116 1_555
Sn11 Y0 3.413113 1_555
Sn11 Y3 3.413117 1_454
Sn12 Y4 3.413113 1_564
Sn12 Y1 3.413117 1_555
Sn13 Y0 3.158541 1_655
Sn13 Y2 3.158558 1_555
Sn13 Y5 3.259924 1_555
Sn13 Y3 3.259924 1_555
Sn14 Y1 3.158551 1_545
Sn14 Y0 3.158551 1_655
Sn14 Y4 3.259924 1_555
Sn14 Y3 3.259924 1_555
Sn15 Y1 3.158541 1_545
Sn15 Y2 3.158559 1_555
Sn15 Y4 3.259924 1_555
Sn15 Y5 3.259924 1_555
Sn16 Y3 3.158541 1_455
Sn16 Y5 3.158558 1_555
Sn16 Y2 3.259924 1_555
Sn16 Y0 3.259924 1_555
Sn17 Y4 3.158551 1_565
Sn17 Y3 3.158551 1_455
Sn17 Y1 3.259924 1_555
Sn17 Y0 3.259924 1_555
Sn18 Y4 3.158541 1_565
Sn18 Y5 3.158559 1_555
Sn18 Y1 3.259924 1_555
Sn18 Y2 3.259924 1_555
Sn19 Y0 3.440285 1_655
Sn19 Y1 3.440286 1_545
Sn19 Y2 3.440301 1_555
Sn20 Y3 3.440285 1_455
Sn20 Y4 3.440286 1_565
Sn20 Y5 3.440301 1_555
Sn21 Y3 3.139796 1_555
Sn21 Y5 3.139797 1_555
Sn21 Y4 3.139797 1_555
Sn22 Y0 3.139796 1_555
Sn22 Y2 3.139797 1_555
Sn22 Y1 3.139797 1_555
Rh0 Sn7 2.649670 1_566
Rh0 Sn11 2.649670 1_556
Rh0 Sn6 2.696851 1_455
Rh0 Sn5 2.696852 1_565
Rh0 Sn17 2.719573 1_555
Rh0 Sn20 2.796020 1_555
Rh0 Y4 3.185669 1_565
Rh0 Y3 3.185670 1_455
Rh1 Sn8 2.649667 1_556
Rh1 Sn12 2.649673 1_556
Rh1 Sn6 2.696851 1_555
Rh1 Sn4 2.696852 1_565
Rh1 Sn18 2.719578 1_555
Rh1 Sn20 2.796037 1_555
Rh1 Y4 3.185670 1_565
Rh1 Y5 3.185670 1_555
Rh2 Sn10 2.649667 1_556
Rh2 Sn9 2.649673 1_456
Rh2 Sn4 2.696851 1_455
Rh2 Sn5 2.696852 1_555
Rh2 Sn16 2.719578 1_555
Rh2 Sn20 2.796038 1_555
Rh2 Y5 3.185669 1_555
Rh2 Y3 3.185670 1_455
Rh3 Sn12 2.649670 1_545
Rh3 Sn9 2.649670 1_555
Rh3 Sn3 2.696851 1_655
Rh3 Sn2 2.696852 1_545
Rh3 Sn14 2.719573 1_555
Rh3 Sn19 2.796020 1_555
Rh3 Y1 3.185669 1_545
Rh3 Y0 3.185670 1_655
Rh4 Sn10 2.649667 1_555
Rh4 Sn7 2.649673 1_555
Rh4 Sn3 2.696851 1_555
Rh4 Sn1 2.696852 1_545
Rh4 Sn15 2.719578 1_555
Rh4 Sn19 2.796037 1_555
Rh4 Y1 3.185670 1_545
Rh4 Y2 3.185670 1_555
Rh5 Sn8 2.649667 1_555
Rh5 Sn11 2.649673 1_655
Rh5 Sn1 2.696851 1_655
Rh5 Sn2 2.696852 1_555
Rh5 Sn13 2.719578 1_555
Rh5 Sn19 2.796038 1_555
Rh5 Y2 3.185669 1_555
Rh5 Y0 3.185670 1_655
