# generated using pymatgen
data_Y10Ga3Bi2Ru
_symmetry_space_group_name_H-M   'P 1'
_cell_length_a   8.75501290
_cell_length_b   8.75501241
_cell_length_c   8.83973315
_cell_angle_alpha   125.98281240
_cell_angle_beta   125.98282299
_cell_angle_gamma   79.25395072
_symmetry_Int_Tables_number   1
_chemical_formula_structural   Y10Ga3Bi2Ru
_chemical_formula_sum   'Y10 Ga3 Bi2 Ru1'
_cell_volume   430.43056638
_cell_formula_units_Z   1
loop_
 _symmetry_equiv_pos_site_id
 _symmetry_equiv_pos_as_xyz
  1  'x, y, z'
loop_
 _atom_site_type_symbol
 _atom_site_label
 _atom_site_symmetry_multiplicity
 _atom_site_fract_x
 _atom_site_fract_y
 _atom_site_fract_z
 _atom_site_occupancy
  Y  Y0  1  0.00420548  0.00513414  0.00934062  1
  Y  Y1  1  0.49486586  0.49579452  0.99065938  1
  Y  Y2  1  0.01749645  0.50619253  0.80215456  1
  Y  Y3  1  0.71534189  0.20403697  0.19784544  1
  Y  Y4  1  0.51905828  0.70287533  0.50000000  1
  Y  Y5  1  0.19400768  0.03872404  0.50000000  1
  Y  Y6  1  0.99380747  0.48250355  0.19784544  1
  Y  Y7  1  0.29596303  0.78465811  0.80215456  1
  Y  Y8  1  0.46127596  0.30599232  0.50000000  1
  Y  Y9  1  0.79712467  0.98094172  0.50000000  1
  Ga  Ga0  1  0.36393909  0.85755370  0.22149179  1
  Ga  Ga1  1  0.64244630  0.13606091  0.77850821  1
  Ga  Ga2  1  0.86640342  0.63359658  0.50000000  1
  Bi  Bi0  1  0.75368223  0.74631777  0.00000000  1
  Bi  Bi1  1  0.25368223  0.24631777  0.00000000  1
  Ru  Ru0  1  0.12670195  0.37329805  0.50000000  1
loop_
_geom_bond_atom_site_label_1
_geom_bond_atom_site_label_2
_geom_bond_distance
_geom_bond_site_symmetry_2
Y0 Y5 3.445877 1_555
Y0 Y8 3.445884 1_555
Y0 Y3 3.479207 1_455
Y0 Y6 3.479215 1_455
Y0 Y4 3.610288 1_444
Y0 Y9 3.610295 1_444
Y0 Y2 3.620661 1_544
Y0 Y7 3.620676 1_544
Y1 Y8 3.445877 1_555
Y1 Y5 3.445884 1_555
Y1 Y7 3.479207 1_555
Y1 Y2 3.479215 1_555
Y1 Y9 3.610289 1_556
Y1 Y4 3.610296 1_556
Y1 Y6 3.620661 1_556
Y1 Y3 3.620676 1_556
Y2 Y9 3.850108 1_445
Y3 Y9 3.850100 1_545
Y4 Y8 3.603481 1_555
Y4 Y5 3.691068 1_565
Y4 Y7 3.850100 1_555
Y4 Y6 3.850108 1_455
Y5 Y9 3.603481 1_445
Y8 Y9 3.691068 1_545
Ga0 Y9 3.007048 1_555
Ga0 Y4 3.007056 1_555
Ga0 Y7 3.044914 1_554
Ga0 Y2 3.044918 1_554
Ga0 Y1 3.051095 1_554
Ga0 Y0 3.081381 1_565
Ga0 Y8 3.102532 1_565
Ga0 Y5 3.102540 1_565
Ga1 Y4 3.007048 1_545
Ga1 Y9 3.007057 1_545
Ga1 Y3 3.044914 1_556
Ga1 Y6 3.044918 1_556
Ga1 Y0 3.051094 1_656
Ga1 Y1 3.081381 1_555
Ga1 Y5 3.102532 1_555
Ga1 Y8 3.102540 1_555
Ga2 Ru0 2.906926 1_655
Ga2 Y2 2.987793 1_655
Ga2 Y6 2.987794 1_555
Ga2 Y7 2.987801 1_655
Ga2 Y3 2.987801 1_555
Ga2 Y9 2.987943 1_555
Ga2 Y4 2.987943 1_555
Ga2 Y1 3.190430 1_554
Ga2 Y0 3.190430 1_666
Bi0 Y7 3.344068 1_554
Bi0 Y3 3.344068 1_565
Bi0 Y5 3.363413 1_665
Bi0 Y8 3.363414 1_554
Bi0 Y0 3.372346 1_665
Bi0 Y1 3.372346 1_554
Bi0 Y6 3.380606 1_555
Bi0 Y2 3.380607 1_654
Bi0 Y4 3.398046 1_554
Bi0 Y9 3.398046 1_555
Bi1 Y2 3.344075 1_554
Bi1 Y6 3.344076 1_455
Bi1 Y8 3.363413 1_555
Bi1 Y5 3.363414 1_554
Bi1 Y1 3.372360 1_554
Bi1 Y0 3.372360 1_555
Bi1 Y3 3.380608 1_555
Bi1 Y7 3.380608 1_544
Bi1 Y9 3.398046 1_444
Bi1 Y4 3.398046 1_555
Ru0 Y5 2.878154 1_555
Ru0 Y8 2.878154 1_555
Ru0 Y6 2.887234 1_455
Ru0 Y2 2.887234 1_555
Ru0 Y3 2.887236 1_455
Ru0 Y7 2.887236 1_555
Ru0 Y1 3.122000 1_555
Ru0 Y0 3.122000 1_555
