# generated using pymatgen
data_Cs3K(GeH3)4
_symmetry_space_group_name_H-M   'P 1'
_cell_length_a   7.42983860
_cell_length_b   5.82919496
_cell_length_c   9.50719407
_cell_angle_alpha   89.99941106
_cell_angle_beta   89.07819035
_cell_angle_gamma   89.99996178
_symmetry_Int_Tables_number   1
_chemical_formula_structural   Cs3K(GeH3)4
_chemical_formula_sum   'Cs3 K1 Ge4 H12'
_cell_volume   411.70307444
_cell_formula_units_Z   1
loop_
 _symmetry_equiv_pos_site_id
 _symmetry_equiv_pos_as_xyz
  1  'x, y, z'
loop_
 _atom_site_type_symbol
 _atom_site_label
 _atom_site_symmetry_multiplicity
 _atom_site_fract_x
 _atom_site_fract_y
 _atom_site_fract_z
 _atom_site_occupancy
  Cs  Cs0  1  0.15364823  0.49999866  0.18919200  1
  Cs  Cs1  1  0.65648925  0.00000148  0.31148561  1
  Cs  Cs2  1  0.34720813  0.49999917  0.68962936  1
  K  K0  1  0.84399690  0.99999144  0.81452334  1
  Ge  Ge0  1  0.65645155  0.50000128  0.03618376  1
  Ge  Ge1  1  0.14719561  0.00000388  0.45372031  1
  Ge  Ge2  1  0.85697306  0.50000132  0.55811767  1
  Ge  Ge3  1  0.34201165  0.99999829  0.94524887  1
  H  H0  1  0.80324072  0.30125968  0.06018058  1
  H  H1  1  0.80323866  0.69874235  0.06018225  1
  H  H2  1  0.30650066  0.99999754  0.11142417  1
  H  H3  1  0.80703409  0.50000338  0.39492492  1
  H  H4  1  0.29555521  0.19678956  0.42914323  1
  H  H5  1  0.29554925  0.80321181  0.42914217  1
  H  H6  1  0.71255854  0.30094874  0.59155910  1
  H  H7  1  0.71255794  0.69905319  0.59155995  1
  H  H8  1  0.17694755  0.00000143  0.61962751  1
  H  H9  1  0.69545322  0.50000432  0.87095816  1
  H  H10  1  0.19368973  0.19598438  0.92160013  1
  H  H11  1  0.19369007  0.80401210  0.92160092  1
loop_
_geom_bond_atom_site_label_1
_geom_bond_atom_site_label_2
_geom_bond_distance
_geom_bond_site_symmetry_2
Cs0 H4 3.084971 1_555
Cs0 H5 3.084989 1_555
Cs0 H11 3.110745 1_554
Cs0 H10 3.110783 1_554
Cs0 H0 3.118867 1_455
Cs0 H1 3.118872 1_455
Cs0 H3 3.208698 1_455
Cs0 H2 3.210011 1_555
Cs0 H2 3.210035 1_545
Cs1 H4 3.108383 1_555
Cs1 H5 3.108414 1_545
Cs1 H0 3.145966 1_555
Cs1 H1 3.145979 1_545
Cs1 H7 3.221294 1_545
Cs1 H6 3.221315 1_555
Cs1 H3 3.225475 1_545
Cs1 H3 3.225511 1_555
Cs1 H2 3.246336 1_545
Cs1 Ge1 3.908910 1_655
Cs2 H10 3.037153 1_555
Cs2 H11 3.037177 1_555
Cs2 H5 3.071625 1_555
Cs2 H4 3.071630 1_555
Cs2 H7 3.082639 1_555
Cs2 H6 3.082643 1_555
Cs2 H9 3.132110 1_555
Cs2 H8 3.250400 1_555
Cs2 H8 3.250410 1_565
Cs2 Ge2 3.869966 1_455
Ge0 H9 1.592745 1_554
Ge0 H1 1.609848 1_555
Ge0 H0 1.609854 1_555
Ge1 H8 1.596244 1_555
Ge1 H4 1.605362 1_555
Ge1 H5 1.605362 1_545
Ge2 H3 1.601050 1_555
Ge2 H6 1.608637 1_555
Ge2 H7 1.608642 1_555
Ge3 H2 1.597548 1_556
Ge3 H10 1.605649 1_565
Ge3 H11 1.605651 1_555
H0 K0 2.933889 1_544
H1 K0 2.933807 1_554
H6 K0 2.931094 1_545
H7 K0 2.931050 1_555
H10 K0 3.029383 1_445
H11 K0 3.029348 1_455
