# generated using pymatgen
data_Rb4Ta2PbSe8
_symmetry_space_group_name_H-M   'P 1'
_cell_length_a   12.23078654
_cell_length_b   12.23078642
_cell_length_c   12.23078686
_cell_angle_alpha   133.00019911
_cell_angle_beta   128.80194072
_cell_angle_gamma   72.02324294
_symmetry_Int_Tables_number   1
_chemical_formula_structural   Rb4Ta2PbSe8
_chemical_formula_sum   'Rb8 Ta4 Pb2 Se16'
_cell_volume   1019.92755655
_cell_formula_units_Z   2
loop_
 _symmetry_equiv_pos_site_id
 _symmetry_equiv_pos_as_xyz
  1  'x, y, z'
loop_
 _atom_site_type_symbol
 _atom_site_label
 _atom_site_symmetry_multiplicity
 _atom_site_fract_x
 _atom_site_fract_y
 _atom_site_fract_z
 _atom_site_occupancy
  Rb  Rb0  1  0.42587010  0.30442958  0.87856048  1
  Rb  Rb1  1  0.57412990  0.69557042  0.12143952  1
  Rb  Rb2  1  0.92587010  0.54730962  0.62143952  1
  Rb  Rb3  1  0.07412990  0.45269038  0.37856048  1
  Rb  Rb4  1  0.49950924  0.24950924  0.25000000  1
  Rb  Rb5  1  0.00049076  0.75049076  0.25000000  1
  Rb  Rb6  1  0.50049076  0.75049076  0.75000000  1
  Rb  Rb7  1  0.99950924  0.24950924  0.75000000  1
  Ta  Ta0  1  0.86999835  0.07023224  0.20023489  1
  Ta  Ta1  1  0.13000165  0.92976776  0.79976511  1
  Ta  Ta2  1  0.36999835  0.66976346  0.29976511  1
  Ta  Ta3  1  0.63000165  0.33023654  0.70023489  1
  Pb  Pb0  1  0.25000000  0.00000000  0.25000000  1
  Pb  Pb1  1  0.75000000  0.00000000  0.75000000  1
  Se  Se0  1  0.25015783  0.02465724  0.77449941  1
  Se  Se1  1  0.74984217  0.97534276  0.22550059  1
  Se  Se2  1  0.75015783  0.47565942  0.72550059  1
  Se  Se3  1  0.24984217  0.52434058  0.27449941  1
  Se  Se4  1  0.26835223  0.77949908  0.88025520  1
  Se  Se5  1  0.10075612  0.22050092  0.48885315  1
  Se  Se6  1  0.39924388  0.38809703  0.61974480  1
  Se  Se7  1  0.23164777  0.61190297  0.01114685  1
  Se  Se8  1  0.73164777  0.22050092  0.11974480  1
  Se  Se9  1  0.89924388  0.77949908  0.51114685  1
  Se  Se10  1  0.60075612  0.61190297  0.38025520  1
  Se  Se11  1  0.76835223  0.38809703  0.98885315  1
  Se  Se12  1  0.40498598  0.94192890  0.53694291  1
  Se  Se13  1  0.59501402  0.05807110  0.46305709  1
  Se  Se14  1  0.90498598  0.86804207  0.96305709  1
  Se  Se15  1  0.09501402  0.13195793  0.03694291  1
loop_
_geom_bond_atom_site_label_1
_geom_bond_atom_site_label_2
_geom_bond_distance
_geom_bond_site_symmetry_2
Rb0 Se12 3.357654 1_545
Rb0 Se8 3.417117 1_556
Rb0 Se5 3.417128 1_555
Rb0 Se0 3.621923 1_555
Rb0 Se10 3.662019 1_556
Rb0 Se7 3.662025 1_556
Rb0 Se11 3.754264 1_555
Rb0 Se6 3.754270 1_555
Rb1 Se13 3.357654 1_565
Rb1 Se4 3.417117 1_554
Rb1 Se9 3.417128 1_555
Rb1 Se1 3.621923 1_555
Rb1 Se6 3.662019 1_554
Rb1 Se11 3.662025 1_554
Rb1 Se7 3.754264 1_555
Rb1 Se10 3.754270 1_555
Rb2 Se14 3.357656 1_555
Rb2 Se10 3.417124 1_555
Rb2 Se7 3.417124 1_656
Rb2 Se2 3.621926 1_555
Rb2 Se5 3.662018 1_655
Rb2 Se8 3.662019 1_555
Rb2 Se9 3.754259 1_555
Rb2 Se4 3.754260 1_655
Rb3 Se15 3.357656 1_555
Rb3 Se6 3.417124 1_555
Rb3 Se11 3.417124 1_454
Rb3 Se3 3.621926 1_555
Rb3 Se9 3.662018 1_455
Rb3 Se4 3.662019 1_555
Rb3 Se5 3.754259 1_555
Rb3 Se8 3.754260 1_455
Rb4 Se2 3.437985 1_555
Rb4 Se0 3.437986 1_554
Rb4 Se3 3.761709 1_555
Rb4 Se1 3.761716 1_545
Rb4 Se10 3.873142 1_555
Rb4 Se8 3.873142 1_555
Rb5 Se1 3.437986 1_455
Rb5 Se3 3.437993 1_555
Rb5 Se0 3.761716 1_565
Rb5 Se2 3.761717 1_454
Rb5 Se9 3.873142 1_455
Rb5 Se11 3.873142 1_454
Rb6 Se3 3.437985 1_555
Rb6 Se1 3.437986 1_556
Rb6 Se2 3.761709 1_555
Rb6 Se0 3.761716 1_565
Rb6 Se6 3.873142 1_555
Rb6 Se4 3.873142 1_555
Rb7 Se0 3.437986 1_655
Rb7 Se2 3.437993 1_555
Rb7 Se1 3.761716 1_545
Rb7 Se3 3.761717 1_656
Rb7 Se5 3.873142 1_655
Rb7 Se7 3.873142 1_656
Pb0 Se13 3.262824 1_555
Pb0 Se12 3.262824 1_545
Pb0 Se14 3.262826 1_444
Pb0 Se15 3.262835 1_555
Pb1 Se12 3.262824 1_545
Pb1 Se13 3.262824 1_555
Pb1 Se15 3.262826 1_656
Pb1 Se14 3.262835 1_545
Se0 Ta1 2.390249 1_545
Se1 Ta0 2.390249 1_565
Se2 Ta3 2.390268 1_555
Se3 Ta2 2.390268 1_555
Se4 Ta1 2.381367 1_555
Se5 Ta0 2.381359 1_455
Se6 Ta3 2.381357 1_555
Se7 Ta2 2.381357 1_555
Se8 Ta0 2.381367 1_555
Se9 Ta1 2.381359 1_655
Se10 Ta2 2.381357 1_555
Se11 Ta3 2.381357 1_555
Se12 Ta2 2.414795 1_555
Se13 Ta3 2.414795 1_555
Se14 Ta0 2.414795 1_566
Se15 Ta1 2.414795 1_544
