# generated using pymatgen
data_AgBi(AuO2)4
_symmetry_space_group_name_H-M   'P 1'
_cell_length_a   6.63593656
_cell_length_b   6.63593553
_cell_length_c   6.63593610
_cell_angle_alpha   125.42897786
_cell_angle_beta   125.42896399
_cell_angle_gamma   80.82871438
_symmetry_Int_Tables_number   1
_chemical_formula_structural   AgBi(AuO2)4
_chemical_formula_sum   'Ag1 Bi1 Au4 O8'
_cell_volume   187.02602502
_cell_formula_units_Z   1
loop_
 _symmetry_equiv_pos_site_id
 _symmetry_equiv_pos_as_xyz
  1  'x, y, z'
loop_
 _atom_site_type_symbol
 _atom_site_label
 _atom_site_symmetry_multiplicity
 _atom_site_fract_x
 _atom_site_fract_y
 _atom_site_fract_z
 _atom_site_occupancy
  Ag  Ag0  1  0.75000000  0.25000000  0.50000000  1
  Bi  Bi0  1  0.00000000  0.00000000  0.00000000  1
  Au  Au0  1  0.37602112  0.63511823  0.75990839  1
  Au  Au1  1  0.36488177  0.12479016  0.74090389  1
  Au  Au2  1  0.87520984  0.61611373  0.24009161  1
  Au  Au3  1  0.38388627  0.62397888  0.25909611  1
  O  O0  1  0.05558561  0.40277843  0.05920509  1
  O  O1  1  0.73599961  0.28725790  0.12133260  1
  O  O2  1  0.16592430  0.61466502  0.87866740  1
  O  O3  1  0.34357233  0.99638152  0.94079491  1
  O  O4  1  0.71274210  0.83407570  0.44874072  1
  O  O5  1  0.00361848  0.94441439  0.34719181  1
  O  O6  1  0.38533498  0.26400039  0.55125928  1
  O  O7  1  0.59722157  0.65642767  0.65280819  1
loop_
_geom_bond_atom_site_label_1
_geom_bond_atom_site_label_2
_geom_bond_distance
_geom_bond_site_symmetry_2
Ag0 O5 2.545493 1_645
Ag0 O0 2.545496 1_656
Ag0 O3 2.545498 1_544
Ag0 O7 2.545501 1_555
Ag0 O2 2.612706 1_655
Ag0 O4 2.612707 1_545
Ag0 O6 2.612709 1_555
Ag0 O1 2.612718 1_555
Bi0 O1 2.478402 1_455
Bi0 O2 2.478409 1_544
Bi0 O6 2.478409 1_555
Bi0 O4 2.478409 1_444
Bi0 O3 2.522520 1_544
Bi0 O5 2.522522 1_545
Bi0 O7 2.522522 1_444
Bi0 O0 2.522524 1_555
Au0 O3 2.008279 1_555
Au0 O2 2.010332 1_555
Au0 O7 2.017907 1_555
Au0 O6 2.020701 1_555
Au1 O5 2.008279 1_545
Au1 O6 2.010327 1_555
Au1 O3 2.017901 1_545
Au1 O1 2.020697 1_556
Au2 O0 2.008273 1_655
Au2 O1 2.010326 1_555
Au2 O5 2.017904 1_655
Au2 O4 2.020694 1_555
Au3 O7 2.008279 1_555
Au3 O4 2.010329 1_555
Au3 O0 2.017907 1_555
Au3 O2 2.020685 1_554
