# generated using pymatgen
data_Cs2LiRh3F12
_symmetry_space_group_name_H-M   'P 1'
_cell_length_a   7.37751111
_cell_length_b   7.37751139
_cell_length_c   7.37751155
_cell_angle_alpha   58.94634135
_cell_angle_beta   58.94634037
_cell_angle_gamma   58.94634511
_symmetry_Int_Tables_number   1
_chemical_formula_structural   Cs2LiRh3F12
_chemical_formula_sum   'Cs2 Li1 Rh3 F12'
_cell_volume   277.10592718
_cell_formula_units_Z   1
loop_
 _symmetry_equiv_pos_site_id
 _symmetry_equiv_pos_as_xyz
  1  'x, y, z'
loop_
 _atom_site_type_symbol
 _atom_site_label
 _atom_site_symmetry_multiplicity
 _atom_site_fract_x
 _atom_site_fract_y
 _atom_site_fract_z
 _atom_site_occupancy
  Cs  Cs0  1  0.36611763  0.36611763  0.36611763  1
  Cs  Cs1  1  0.63388237  0.63388237  0.63388237  1
  Li  Li0  1  0.00000000  0.00000000  0.00000000  1
  Rh  Rh0  1  0.50000000  0.00000000  0.00000000  1
  Rh  Rh1  1  0.00000000  0.00000000  0.50000000  1
  Rh  Rh2  1  0.00000000  0.50000000  0.00000000  1
  F  F0  1  0.91944503  0.32859107  0.32859107  1
  F  F1  1  0.32749898  0.92828339  0.92828339  1
  F  F2  1  0.32859107  0.32859107  0.91944503  1
  F  F3  1  0.92828339  0.92828339  0.32749898  1
  F  F4  1  0.92828339  0.32749898  0.92828339  1
  F  F5  1  0.32859107  0.91944503  0.32859107  1
  F  F6  1  0.08055497  0.67140893  0.67140893  1
  F  F7  1  0.67250102  0.07171661  0.07171661  1
  F  F8  1  0.67140893  0.67140893  0.08055497  1
  F  F9  1  0.07171661  0.07171661  0.67250102  1
  F  F10  1  0.07171661  0.67250102  0.07171661  1
  F  F11  1  0.67140893  0.08055497  0.67140893  1
loop_
_geom_bond_atom_site_label_1
_geom_bond_atom_site_label_2
_geom_bond_distance
_geom_bond_site_symmetry_2
Cs0 F9 3.046457 1_555
Cs0 F10 3.046458 1_555
Cs0 F7 3.046458 1_555
Cs0 F8 3.166522 1_555
Cs0 F11 3.166522 1_555
Cs0 F6 3.166522 1_555
Cs1 F3 3.046457 1_555
Cs1 F4 3.046458 1_555
Cs1 F1 3.046458 1_555
Cs1 F2 3.166522 1_555
Cs1 F5 3.166522 1_555
Cs1 F0 3.166522 1_555
F0 Rh2 1.988803 1_655
F0 Rh1 1.988803 1_655
F1 Rh0 1.964076 1_566
F1 Li0 2.012126 1_566
F2 Rh2 1.988803 1_556
F2 Rh0 1.988803 1_556
F3 Rh1 1.964076 1_665
F3 Li0 2.012126 1_665
F4 Rh2 1.964076 1_656
F4 Li0 2.012126 1_656
F5 Rh1 1.988803 1_565
F5 Rh0 1.988803 1_565
F6 Rh2 1.988803 1_556
F6 Rh1 1.988803 1_565
F7 Rh0 1.964076 1_555
F7 Li0 2.012126 1_655
F8 Rh2 1.988803 1_655
F8 Rh0 1.988803 1_565
F9 Rh1 1.964076 1_555
F9 Li0 2.012126 1_556
F10 Rh2 1.964076 1_555
F10 Li0 2.012126 1_565
F11 Rh1 1.988803 1_655
F11 Rh0 1.988803 1_556
