# generated using pymatgen
data_Zr6Zn19Pt4S
_symmetry_space_group_name_H-M   'P 1'
_cell_length_a   8.69662341
_cell_length_b   8.69662277
_cell_length_c   8.69662295
_cell_angle_alpha   59.97649122
_cell_angle_beta   59.97649284
_cell_angle_gamma   59.97648712
_symmetry_Int_Tables_number   1
_chemical_formula_structural   Zr6Zn19Pt4S
_chemical_formula_sum   'Zr6 Zn19 Pt4 S1'
_cell_volume   464.84199408
_cell_formula_units_Z   1
loop_
 _symmetry_equiv_pos_site_id
 _symmetry_equiv_pos_as_xyz
  1  'x, y, z'
loop_
 _atom_site_type_symbol
 _atom_site_label
 _atom_site_symmetry_multiplicity
 _atom_site_fract_x
 _atom_site_fract_y
 _atom_site_fract_z
 _atom_site_occupancy
  Zr  Zr0  1  0.70110590  0.29536233  0.29536233  1
  Zr  Zr1  1  0.29889410  0.70463767  0.70463767  1
  Zr  Zr2  1  0.29536233  0.70110590  0.29536233  1
  Zr  Zr3  1  0.70463767  0.29889410  0.70463767  1
  Zr  Zr4  1  0.29536233  0.29536233  0.70110590  1
  Zr  Zr5  1  0.70463767  0.70463767  0.29889410  1
  Zn  Zn0  1  0.12083416  0.12083416  0.12083416  1
  Zn  Zn1  1  0.87916584  0.87916584  0.87916584  1
  Zn  Zn2  1  0.12239037  0.12239037  0.63432490  1
  Zn  Zn3  1  0.12239037  0.63432490  0.12239037  1
  Zn  Zn4  1  0.87760963  0.87760963  0.36567510  1
  Zn  Zn5  1  0.87760963  0.36567510  0.87760963  1
  Zn  Zn6  1  0.63432490  0.12239037  0.12239037  1
  Zn  Zn7  1  0.36567510  0.87760963  0.87760963  1
  Zn  Zn8  1  0.50000000  0.00000000  0.00000000  1
  Zn  Zn9  1  0.00000000  0.50000000  0.00000000  1
  Zn  Zn10  1  0.00000000  0.00000000  0.50000000  1
  Zn  Zn11  1  0.33217775  0.33217775  0.33217775  1
  Zn  Zn12  1  0.66782225  0.66782225  0.66782225  1
  Zn  Zn13  1  0.33092042  0.33092042  0.00060680  1
  Zn  Zn14  1  0.33092042  0.00060680  0.33092042  1
  Zn  Zn15  1  0.66907958  0.66907958  0.99939320  1
  Zn  Zn16  1  0.66907958  0.99939320  0.66907958  1
  Zn  Zn17  1  0.00060680  0.33092042  0.33092042  1
  Zn  Zn18  1  0.99939320  0.66907958  0.66907958  1
  Pt  Pt0  1  0.00000000  0.50000000  0.50000000  1
  Pt  Pt1  1  0.50000000  0.00000000  0.50000000  1
  Pt  Pt2  1  0.50000000  0.50000000  0.00000000  1
  Pt  Pt3  1  0.00000000  0.00000000  0.00000000  1
  S  S0  1  0.50000000  0.50000000  0.50000000  1
loop_
_geom_bond_atom_site_label_1
_geom_bond_atom_site_label_2
_geom_bond_distance
_geom_bond_site_symmetry_2
Zn0 Zn9 2.692898 1_555
Zn0 Zn10 2.692898 1_555
Zn0 Zn8 2.692898 1_555
Zn1 Zn9 2.692898 1_656
Zn1 Zn10 2.692898 1_665
Zn1 Zn8 2.692898 1_566
Zn3 Zn9 2.693084 1_555
Zn5 Zn9 2.693084 1_656
Zn6 Zn8 2.693084 1_555
Zn7 Zn8 2.693084 1_566
Zn8 Zr5 3.145625 1_545
Zn8 Zr4 3.145625 1_554
Zn8 Zr3 3.145626 1_554
Zn8 Zr2 3.145626 1_545
Zn9 Zr5 3.145625 1_455
Zn9 Zr4 3.145625 1_554
Zn9 Zr1 3.145626 1_554
Zn9 Zr0 3.145626 1_455
Zn10 Zn17 2.493418 1_555
Zn10 Zn18 2.493418 1_445
Zn10 Zn14 2.493418 1_555
Zn10 Zn16 2.493418 1_445
Zn10 Zn2 2.693084 1_555
Zn10 Zn4 2.693084 1_445
Zn10 Zr3 3.145625 1_455
Zn10 Zr2 3.145625 1_545
Zn10 Zr1 3.145625 1_545
Zn10 Zr0 3.145625 1_455
Zn13 Zn8 2.493418 1_555
Zn13 Zn9 2.493418 1_555
Zn14 Zn8 2.493418 1_555
Zn15 Zn8 2.493418 1_566
Zn15 Zn9 2.493418 1_656
Zn16 Zn8 2.493418 1_566
Zn17 Zn9 2.493418 1_555
Zn18 Zn9 2.493418 1_656
Pt0 Zn11 2.509727 1_555
Pt0 Zn12 2.509727 1_455
Pt0 Zn18 2.544101 1_455
Pt0 Zn17 2.544101 1_555
Pt0 Zn4 2.681274 1_455
Pt0 Zn2 2.681274 1_555
Pt0 Zn3 2.681274 1_555
Pt0 Zn5 2.681274 1_455
Pt0 Zr4 3.103270 1_555
Pt0 Zr5 3.103270 1_455
Pt0 Zr2 3.103270 1_555
Pt0 Zr3 3.103270 1_455
Pt1 Zn12 2.509727 1_545
Pt1 Zn11 2.509727 1_555
Pt1 Zn16 2.544101 1_545
Pt1 Zn14 2.544101 1_555
Pt1 Zn6 2.681274 1_555
Pt1 Zn7 2.681274 1_545
Pt1 Zn4 2.681274 1_545
Pt1 Zn2 2.681274 1_555
Pt1 Zr4 3.103270 1_555
Pt1 Zr5 3.103270 1_545
Pt1 Zr0 3.103270 1_555
Pt1 Zr1 3.103270 1_545
Pt2 Zn12 2.509728 1_554
Pt2 Zn11 2.509728 1_555
Pt2 Zn15 2.544101 1_554
Pt2 Zn13 2.544101 1_555
Pt2 Zn7 2.681274 1_554
Pt2 Zn6 2.681274 1_555
Pt2 Zn5 2.681274 1_554
Pt2 Zn3 2.681274 1_555
Pt2 Zr2 3.103270 1_555
Pt2 Zr3 3.103270 1_554
Pt2 Zr0 3.103270 1_555
Pt2 Zr1 3.103270 1_554
Pt3 Zn0 2.574502 1_555
Pt3 Zn1 2.574502 1_444
Pt3 Zn5 2.595812 1_454
Pt3 Zn3 2.595812 1_545
Pt3 Zn4 2.595812 1_445
Pt3 Zn2 2.595812 1_554
Pt3 Zn7 2.595812 1_544
Pt3 Zn6 2.595812 1_455
S0 Zr1 2.516570 1_555
S0 Zr0 2.516570 1_555
S0 Zr3 2.516570 1_555
S0 Zr2 2.516570 1_555
S0 Zr5 2.516571 1_555
S0 Zr4 2.516571 1_555
