# generated using pymatgen
data_K4ZnW3N8
_symmetry_space_group_name_H-M   'P 1'
_cell_length_a   5.76760858
_cell_length_b   8.48806607
_cell_length_c   11.57838722
_cell_angle_alpha   90.00000000
_cell_angle_beta   90.00000000
_cell_angle_gamma   90.00000000
_symmetry_Int_Tables_number   1
_chemical_formula_structural   K4ZnW3N8
_chemical_formula_sum   'K8 Zn2 W6 N16'
_cell_volume   566.82970292
_cell_formula_units_Z   2
loop_
 _symmetry_equiv_pos_site_id
 _symmetry_equiv_pos_as_xyz
  1  'x, y, z'
loop_
 _atom_site_type_symbol
 _atom_site_label
 _atom_site_symmetry_multiplicity
 _atom_site_fract_x
 _atom_site_fract_y
 _atom_site_fract_z
 _atom_site_occupancy
  K  K0  1  0.25000000  0.19127158  0.00000000  1
  K  K1  1  0.75000000  0.80872842  0.50000000  1
  K  K2  1  0.75000000  0.90002296  0.00000000  1
  K  K3  1  0.25000000  0.09997704  0.50000000  1
  K  K4  1  0.26076261  0.39598192  0.73583658  1
  K  K5  1  0.76076261  0.60401808  0.76416342  1
  K  K6  1  0.73923739  0.60401808  0.23583658  1
  K  K7  1  0.23923739  0.39598192  0.26416342  1
  Zn  Zn0  1  0.75000000  0.36775615  0.00000000  1
  Zn  Zn1  1  0.25000000  0.63224385  0.50000000  1
  W  W0  1  0.25000000  0.61883411  0.00000000  1
  W  W1  1  0.75000000  0.38116589  0.50000000  1
  W  W2  1  0.76968906  0.12272248  0.74749490  1
  W  W3  1  0.26968906  0.87727752  0.75250510  1
  W  W4  1  0.23031094  0.87727752  0.24749490  1
  W  W5  1  0.73031094  0.12272248  0.25250510  1
  N  N0  1  0.03793245  0.01874554  0.80739745  1
  N  N1  1  0.53793245  0.98125446  0.69260255  1
  N  N2  1  0.96206755  0.98125446  0.30739745  1
  N  N3  1  0.46206755  0.01874554  0.19260255  1
  N  N4  1  0.86583062  0.25519266  0.62673153  1
  N  N5  1  0.36583062  0.74480734  0.87326847  1
  N  N6  1  0.13416938  0.74480734  0.12673153  1
  N  N7  1  0.63416938  0.25519266  0.37326847  1
  N  N8  1  0.34787271  0.76405994  0.36318586  1
  N  N9  1  0.84787271  0.23594006  0.13681414  1
  N  N10  1  0.65212729  0.23594006  0.86318586  1
  N  N11  1  0.15212729  0.76405994  0.63681414  1
  N  N12  1  0.51668956  0.50384667  0.55133673  1
  N  N13  1  0.01668956  0.49615333  0.94866327  1
  N  N14  1  0.48331044  0.49615333  0.05133673  1
  N  N15  1  0.98331044  0.50384667  0.44866327  1
loop_
_geom_bond_atom_site_label_1
_geom_bond_atom_site_label_2
_geom_bond_distance
_geom_bond_site_symmetry_2
K0 N9 2.834131 1_455
K0 N10 2.834131 1_554
K0 N3 2.934885 1_555
K0 N0 2.934885 1_554
K0 N14 2.976754 1_555
K0 N13 2.976754 1_554
K1 N11 2.834131 1_655
K1 N8 2.834131 1_555
K1 N1 2.934885 1_555
K1 N2 2.934885 1_555
K1 N15 2.976754 1_555
K1 N12 2.976754 1_555
K2 N3 2.957430 1_565
K2 N0 2.957430 1_664
K2 N6 2.966203 1_655
K2 N5 2.966203 1_554
K2 N9 3.310259 1_565
K2 N10 3.310259 1_564
K3 N1 2.957430 1_545
K3 N2 2.957430 1_445
K3 N4 2.966203 1_455
K3 N7 2.966203 1_555
K3 N11 3.310259 1_545
K3 N8 3.310259 1_545
K4 N12 2.753268 1_555
K4 N4 2.865720 1_455
K4 N13 2.962574 1_555
K4 N10 3.019048 1_555
K5 N13 2.753268 1_655
K5 N5 2.865720 1_555
K5 N12 2.962574 1_555
K5 N11 3.019048 1_655
K6 N14 2.753268 1_555
K6 N6 2.865720 1_655
K6 N15 2.962574 1_555
K6 N8 3.019048 1_555
K7 N15 2.753268 1_455
K7 N7 2.865720 1_555
K7 N14 2.962574 1_555
K7 N9 3.019048 1_455
N0 W3 1.905927 1_545
N0 W2 1.911427 1_455
N1 W2 1.905927 1_565
N1 W3 1.911427 1_555
N2 W5 1.905927 1_565
N2 W4 1.911427 1_655
N3 W4 1.905927 1_545
N3 W5 1.911427 1_555
N4 W2 1.877998 1_555
N4 W1 1.934620 1_555
N5 W3 1.877998 1_555
N5 W0 1.934620 1_556
N6 W4 1.877998 1_555
N6 W0 1.934620 1_555
N7 W5 1.877998 1_555
N7 W1 1.934620 1_555
N8 W4 1.782574 1_555
N8 Zn1 2.019861 1_555
N9 W5 1.782574 1_555
N9 Zn0 2.019861 1_555
N10 W2 1.782574 1_555
N10 Zn0 2.019861 1_556
N11 W3 1.782574 1_555
N11 Zn1 2.019861 1_555
N12 W1 1.802336 1_555
N12 Zn1 1.976615 1_555
N13 W0 1.802336 1_556
N13 Zn0 1.976615 1_456
N14 W0 1.802336 1_555
N14 Zn0 1.976615 1_555
N15 W1 1.802336 1_555
N15 Zn1 1.976615 1_655
