# generated using pymatgen
data_Ca2As3
_symmetry_space_group_name_H-M   'P 1'
_cell_length_a   5.83648895
_cell_length_b   12.01392129
_cell_length_c   13.78078624
_cell_angle_alpha   90.97291506
_cell_angle_beta   90.00000000
_cell_angle_gamma   90.00000000
_symmetry_Int_Tables_number   1
_chemical_formula_structural   Ca2As3
_chemical_formula_sum   'Ca16 As24'
_cell_volume   966.15728046
_cell_formula_units_Z   8
loop_
 _symmetry_equiv_pos_site_id
 _symmetry_equiv_pos_as_xyz
  1  'x, y, z'
loop_
 _atom_site_type_symbol
 _atom_site_label
 _atom_site_symmetry_multiplicity
 _atom_site_fract_x
 _atom_site_fract_y
 _atom_site_fract_z
 _atom_site_occupancy
  Ca  Ca0  1  0.75543553  0.62511595  0.00043141  1
  Ca  Ca1  1  0.75543553  0.87488405  0.49956859  1
  Ca  Ca2  1  0.24456447  0.37488405  0.99956859  1
  Ca  Ca3  1  0.24456447  0.12511595  0.50043141  1
  Ca  Ca4  1  0.73840637  0.37533803  0.51050394  1
  Ca  Ca5  1  0.73840637  0.12466197  0.98949606  1
  Ca  Ca6  1  0.26159363  0.62466197  0.48949606  1
  Ca  Ca7  1  0.26159363  0.87533803  0.01050394  1
  Ca  Ca8  1  0.45281293  0.99061683  0.75159778  1
  Ca  Ca9  1  0.45281293  0.50938317  0.74840222  1
  Ca  Ca10  1  0.54718707  0.00938317  0.24840222  1
  Ca  Ca11  1  0.54718707  0.49061683  0.25159778  1
  Ca  Ca12  1  0.03525722  0.75000000  0.75000000  1
  Ca  Ca13  1  0.96474278  0.25000000  0.25000000  1
  Ca  Ca14  1  0.09572241  0.25000000  0.75000000  1
  Ca  Ca15  1  0.90427759  0.75000000  0.25000000  1
  As  As0  1  0.45693523  0.23430018  0.15876893  1
  As  As1  1  0.45693523  0.26569982  0.34123107  1
  As  As2  1  0.54306477  0.76569982  0.84123107  1
  As  As3  1  0.54306477  0.73430018  0.65876893  1
  As  As4  1  0.26992107  0.86247680  0.57853793  1
  As  As5  1  0.26992107  0.63752320  0.92146207  1
  As  As6  1  0.73007893  0.13752320  0.42146207  1
  As  As7  1  0.73007893  0.36247680  0.07853793  1
  As  As8  1  0.60455010  0.28820801  0.83388158  1
  As  As9  1  0.60455010  0.21179199  0.66611842  1
  As  As10  1  0.39544990  0.71179199  0.16611842  1
  As  As11  1  0.39544990  0.78820801  0.33388158  1
  As  As12  1  0.95103457  0.51236931  0.67342933  1
  As  As13  1  0.95103457  0.98763069  0.82657067  1
  As  As14  1  0.04896543  0.48763069  0.32657067  1
  As  As15  1  0.04896543  0.01236931  0.17342933  1
  As  As16  1  0.77772064  0.89144544  0.07924730  1
  As  As17  1  0.77772064  0.60855456  0.42075270  1
  As  As18  1  0.22227936  0.10855556  0.92075270  1
  As  As19  1  0.22227936  0.39144444  0.57924730  1
  As  As20  1  0.90025395  0.44827143  0.84437690  1
  As  As21  1  0.90025395  0.05172857  0.65562310  1
  As  As22  1  0.09974605  0.55172857  0.15562310  1
  As  As23  1  0.09974605  0.94827143  0.34437690  1
loop_
_geom_bond_atom_site_label_1
_geom_bond_atom_site_label_2
_geom_bond_distance
_geom_bond_site_symmetry_2
As0 As7 2.488584 1_555
As0 As1 2.536269 1_555
As0 Ca10 3.036135 1_555
As0 Ca2 3.054180 1_554
As0 Ca5 3.125857 1_554
As0 Ca13 3.140132 1_455
As0 Ca13 3.223717 1_555
As0 Ca11 3.355994 1_555
As1 As6 2.488584 1_555
As1 Ca11 3.036135 1_555
As1 Ca3 3.054180 1_555
As1 Ca4 3.125857 1_555
As1 Ca13 3.140132 1_455
As1 Ca13 3.223717 1_555
As1 Ca10 3.355994 1_555
As2 As5 2.488584 1_555
As2 As3 2.536269 1_555
As2 Ca8 3.036135 1_555
As2 Ca0 3.054180 1_556
As2 Ca7 3.125857 1_556
As2 Ca12 3.140132 1_655
As2 Ca12 3.223717 1_555
As2 Ca9 3.355994 1_555
As3 As4 2.488584 1_555
As3 Ca9 3.036135 1_555
As3 Ca1 3.054180 1_555
As3 Ca6 3.125857 1_555
As3 Ca12 3.140132 1_655
As3 Ca12 3.223717 1_555
As3 Ca8 3.355994 1_555
As4 Ca8 3.012053 1_555
As4 Ca1 3.040048 1_555
As4 Ca12 3.064875 1_555
As4 Ca6 3.090624 1_555
As4 Ca1 3.198246 1_455
As4 Ca3 3.354384 1_565
As5 Ca9 3.012053 1_555
As5 Ca0 3.040048 1_556
As5 Ca12 3.064875 1_555
As5 Ca7 3.090624 1_556
As5 Ca0 3.198246 1_456
As5 Ca2 3.354384 1_555
As6 Ca10 3.012053 1_555
As6 Ca3 3.040048 1_555
As6 Ca13 3.064875 1_555
As6 Ca4 3.090624 1_555
As6 Ca3 3.198246 1_655
As6 Ca1 3.354384 1_545
As7 Ca11 3.012053 1_555
As7 Ca2 3.040048 1_554
As7 Ca13 3.064875 1_555
As7 Ca5 3.090624 1_554
As7 Ca2 3.198246 1_654
As7 Ca0 3.354384 1_555
As8 As9 2.472988 1_555
As8 Ca5 3.035265 1_555
As8 Ca9 3.055951 1_555
As8 Ca14 3.122020 1_655
As8 Ca14 3.216898 1_555
As8 Ca2 3.260593 1_555
As9 Ca4 3.035265 1_555
As9 Ca8 3.055951 1_545
As9 Ca14 3.122020 1_655
As9 Ca14 3.216898 1_555
As9 Ca3 3.260593 1_555
As10 As11 2.472988 1_555
As10 As22 2.586116 1_555
As10 Ca7 3.035265 1_555
As10 Ca11 3.055951 1_555
As10 Ca15 3.122020 1_455
As10 Ca15 3.216898 1_555
As10 Ca0 3.260593 1_555
As11 As23 2.586116 1_555
As11 Ca6 3.035265 1_555
As11 Ca10 3.055951 1_565
As11 Ca15 3.122020 1_455
As11 Ca15 3.216898 1_555
As11 Ca1 3.260593 1_555
As12 As19 2.497469 1_655
As12 As20 2.508427 1_555
As12 Ca4 3.027526 1_555
As12 Ca12 3.066449 1_655
As12 Ca9 3.086373 1_555
As12 Ca9 3.105939 1_655
As12 Ca6 3.412695 1_655
As12 Ca14 3.446037 1_655
As13 As18 2.497469 1_665
As13 As21 2.508427 1_565
As13 Ca5 3.027526 1_565
As13 Ca12 3.066449 1_655
As13 Ca8 3.086373 1_555
As13 Ca8 3.105939 1_655
As13 Ca7 3.412695 1_656
As13 Ca14 3.446037 1_665
As14 As17 2.497462 1_455
As14 As22 2.508427 1_555
As14 Ca6 3.027526 1_555
As14 Ca13 3.066449 1_455
As14 Ca11 3.086373 1_555
As14 Ca11 3.105939 1_455
As14 Ca4 3.412695 1_455
As14 Ca15 3.446037 1_455
As15 As16 2.497462 1_445
As15 As23 2.508427 1_545
As15 Ca7 3.027526 1_545
As15 Ca13 3.066449 1_455
As15 Ca10 3.086373 1_555
As15 Ca10 3.105939 1_455
As15 Ca5 3.412695 1_454
As15 Ca15 3.446037 1_445
As16 Ca7 2.984011 1_655
As16 Ca15 3.017644 1_555
As16 Ca10 3.023208 1_565
As16 Ca5 3.090380 1_564
As16 Ca7 3.162758 1_555
As16 Ca0 3.363992 1_555
As17 Ca6 2.984011 1_655
As17 Ca15 3.017644 1_555
As17 Ca11 3.023208 1_555
As17 Ca4 3.090380 1_555
As17 Ca6 3.162758 1_555
As17 Ca1 3.363992 1_555
As18 Ca5 2.984010 1_455
As18 Ca14 3.017637 1_555
As18 Ca8 3.023213 1_545
As18 Ca7 3.090391 1_546
As18 Ca5 3.162758 1_555
As18 Ca2 3.363981 1_555
As19 Ca4 2.984010 1_455
As19 Ca14 3.017637 1_555
As19 Ca9 3.023213 1_555
As19 Ca6 3.090391 1_555
As19 Ca4 3.162758 1_555
As19 Ca3 3.363981 1_555
As20 As8 2.586116 1_555
As20 Ca14 2.926067 1_655
As20 Ca9 3.023434 1_555
As20 Ca2 3.074672 1_655
As20 Ca0 3.114168 1_556
As20 Ca9 3.566785 1_655
As21 As9 2.586116 1_555
As21 Ca14 2.926067 1_655
As21 Ca8 3.023434 1_545
As21 Ca3 3.074672 1_655
As21 Ca1 3.114168 1_545
As21 Ca8 3.566785 1_645
As22 Ca15 2.926067 1_455
As22 Ca11 3.023434 1_555
As22 Ca0 3.074672 1_455
As22 Ca2 3.114168 1_554
As22 Ca11 3.566785 1_455
As23 Ca15 2.926067 1_455
As23 Ca10 3.023434 1_565
As23 Ca1 3.074672 1_455
As23 Ca3 3.114168 1_565
As23 Ca10 3.566785 1_465
