# generated using pymatgen
data_Rb2Mg3Te4
_symmetry_space_group_name_H-M   'P 1'
_cell_length_a   10.56548038
_cell_length_b   10.56548045
_cell_length_c   10.56548083
_cell_angle_alpha   143.27330886
_cell_angle_beta   105.29595608
_cell_angle_gamma   86.25579868
_symmetry_Int_Tables_number   1
_chemical_formula_structural   Rb2Mg3Te4
_chemical_formula_sum   'Rb4 Mg6 Te8'
_cell_volume   658.11072906
_cell_formula_units_Z   2
loop_
 _symmetry_equiv_pos_site_id
 _symmetry_equiv_pos_as_xyz
  1  'x, y, z'
loop_
 _atom_site_type_symbol
 _atom_site_label
 _atom_site_symmetry_multiplicity
 _atom_site_fract_x
 _atom_site_fract_y
 _atom_site_fract_z
 _atom_site_occupancy
  Rb  Rb0  1  0.87682736  0.73313128  0.60995865  1
  Rb  Rb1  1  0.37682736  0.76686872  0.14369608  1
  Rb  Rb2  1  0.62317264  0.23313128  0.85630392  1
  Rb  Rb3  1  0.12317264  0.26686872  0.39004135  1
  Mg  Mg0  1  0.98113229  0.25000000  0.73113229  1
  Mg  Mg1  1  0.75000000  0.75000000  0.00000000  1
  Mg  Mg2  1  0.48113229  0.75000000  0.73113229  1
  Mg  Mg3  1  0.51886771  0.25000000  0.26886771  1
  Mg  Mg4  1  0.25000000  0.25000000  0.00000000  1
  Mg  Mg5  1  0.01886771  0.75000000  0.26886771  1
  Te  Te0  1  0.27362116  0.91698671  0.90623246  1
  Te  Te1  1  0.22637884  0.13261231  0.64336555  1
  Te  Te2  1  0.77362116  0.86738769  0.35663445  1
  Te  Te3  1  0.01075325  0.36738769  0.09376754  1
  Te  Te4  1  0.72637884  0.08301329  0.09376754  1
  Te  Te5  1  0.51075325  0.41698671  0.64336555  1
  Te  Te6  1  0.48924675  0.58301329  0.35663445  1
  Te  Te7  1  0.98924675  0.63261231  0.90623246  1
loop_
_geom_bond_atom_site_label_1
_geom_bond_atom_site_label_2
_geom_bond_distance
_geom_bond_site_symmetry_2
Rb0 Te6 3.835198 1_555
Rb0 Te2 3.835198 1_555
Rb0 Te7 3.942077 1_555
Rb0 Te0 3.942086 1_655
Rb0 Te3 3.943388 1_666
Rb0 Te4 3.943397 1_566
Rb0 Te3 4.031528 1_655
Rb0 Te4 4.031536 1_555
Rb1 Te7 3.835199 1_454
Rb1 Te0 3.835208 1_554
Rb1 Te2 3.942087 1_555
Rb1 Te6 3.942087 1_555
Rb1 Te1 3.943390 1_554
Rb1 Te5 3.943390 1_554
Rb1 Te5 4.031535 1_565
Rb1 Te1 4.031535 1_565
Rb2 Te3 3.835199 1_656
Rb2 Te4 3.835208 1_556
Rb2 Te1 3.942087 1_555
Rb2 Te5 3.942087 1_555
Rb2 Te2 3.943390 1_556
Rb2 Te6 3.943390 1_556
Rb2 Te6 4.031535 1_545
Rb2 Te2 4.031535 1_545
Rb3 Te5 3.835198 1_555
Rb3 Te1 3.835198 1_555
Rb3 Te3 3.942077 1_555
Rb3 Te4 3.942086 1_455
Rb3 Te7 3.943388 1_444
Rb3 Te0 3.943397 1_544
Rb3 Te7 4.031528 1_455
Rb3 Te0 4.031536 1_555
Mg0 Te2 2.782962 1_545
Mg0 Te7 2.782967 1_555
Mg0 Te1 2.848962 1_655
Mg0 Te3 2.848972 1_656
Mg1 Te4 2.802036 1_565
Mg1 Te5 2.802042 1_554
Mg1 Te2 2.802043 1_555
Mg1 Te7 2.802045 1_554
Mg2 Te0 2.782958 1_555
Mg2 Te6 2.782962 1_555
Mg2 Te5 2.848962 1_555
Mg2 Te4 2.848963 1_566
Mg3 Te4 2.782958 1_555
Mg3 Te5 2.782962 1_555
Mg3 Te6 2.848962 1_555
Mg3 Te0 2.848963 1_544
Mg4 Te0 2.802036 1_544
Mg4 Te6 2.802042 1_555
Mg4 Te1 2.802043 1_554
Mg4 Te3 2.802045 1_555
Mg5 Te1 2.782962 1_565
Mg5 Te3 2.782967 1_555
Mg5 Te2 2.848962 1_455
Mg5 Te7 2.848972 1_454
