# generated using pymatgen
data_Rb5Hg19
_symmetry_space_group_name_H-M   'P 1'
_cell_length_a   9.98937982
_cell_length_b   9.98942475
_cell_length_c   9.98938525
_cell_angle_alpha   107.27835273
_cell_angle_beta   107.27840920
_cell_angle_gamma   113.95146812
_symmetry_Int_Tables_number   1
_chemical_formula_structural   Rb5Hg19
_chemical_formula_sum   'Rb5 Hg19'
_cell_volume   763.81104661
_cell_formula_units_Z   1
loop_
 _symmetry_equiv_pos_site_id
 _symmetry_equiv_pos_as_xyz
  1  'x, y, z'
loop_
 _atom_site_type_symbol
 _atom_site_label
 _atom_site_symmetry_multiplicity
 _atom_site_fract_x
 _atom_site_fract_y
 _atom_site_fract_z
 _atom_site_occupancy
  Rb  Rb0  1  0.50000000  0.50000000  0.00000000  1
  Rb  Rb1  1  0.67779330  0.88300754  0.56080461  1
  Rb  Rb2  1  0.88301485  0.32219554  0.20521226  1
  Rb  Rb3  1  0.11698515  0.67780446  0.79478674  1
  Rb  Rb4  1  0.32220670  0.11699246  0.43919539  1
  Hg  Hg0  1  0.47661789  0.06564928  0.81647223  1
  Hg  Hg1  1  0.24917771  0.66014227  0.18352703  1
  Hg  Hg2  1  0.06565035  0.24917411  0.58902784  1
  Hg  Hg3  1  0.75000501  0.24999958  0.50000077  1
  Hg  Hg4  1  0.24999499  0.75000042  0.49999923  1
  Hg  Hg5  1  0.29939752  0.39113088  0.25187399  1
  Hg  Hg6  1  0.39113904  0.13925924  0.09174153  1
  Hg  Hg7  1  0.04751655  0.29939740  0.90825748  1
  Hg  Hg8  1  0.13925590  0.04752120  0.74812366  1
  Hg  Hg9  1  0.70060248  0.60886912  0.74812601  1
  Hg  Hg10  1  0.60886096  0.86073976  0.90825847  1
  Hg  Hg11  1  0.95248345  0.70060260  0.09174252  1
  Hg  Hg12  1  0.86074310  0.95247880  0.25187634  1
  Hg  Hg13  1  0.00000000  0.00000000  0.00000000  1
  Hg  Hg14  1  0.66014822  0.47661797  0.41097491  1
  Hg  Hg15  1  0.93434965  0.75082589  0.41097216  1
  Hg  Hg16  1  0.75082229  0.33985773  0.81647297  1
  Hg  Hg17  1  0.52338211  0.93435072  0.18352777  1
  Hg  Hg18  1  0.33985178  0.52338203  0.58902509  1
loop_
_geom_bond_atom_site_label_1
_geom_bond_atom_site_label_2
_geom_bond_distance
_geom_bond_site_symmetry_2
Hg0 Hg16 2.985647 1_555
Hg0 Hg4 3.015472 1_545
Hg0 Hg10 3.060483 1_545
Hg0 Hg6 3.087799 1_556
Hg0 Hg8 3.149657 1_555
Hg0 Rb2 3.795352 1_556
Hg0 Rb4 3.896561 1_555
Hg0 Rb3 3.962559 1_545
Hg0 Rb0 4.054542 1_556
Hg0 Rb1 4.140997 1_545
Hg1 Hg17 2.985647 1_555
Hg1 Hg4 3.015468 1_555
Hg1 Hg11 3.060486 1_455
Hg1 Hg7 3.087808 1_554
Hg1 Hg5 3.149635 1_555
Hg1 Rb3 3.795359 1_554
Hg1 Rb1 3.896557 1_555
Hg1 Rb2 3.962570 1_455
Hg1 Rb0 4.054491 1_555
Hg1 Rb4 4.141072 1_565
Hg2 Hg3 3.015417 1_455
Hg2 Hg8 3.087774 1_555
Hg2 Hg7 3.149637 1_555
Hg2 Rb4 3.795271 1_555
Hg2 Rb3 3.896722 1_555
Hg2 Rb1 3.962610 1_445
Hg2 Rb0 4.054551 1_556
Hg2 Rb2 4.140942 1_455
Hg3 Rb2 3.710107 1_555
Hg3 Rb1 3.710120 1_545
Hg3 Rb4 3.710142 1_555
Hg3 Rb3 3.710164 1_655
Hg4 Rb3 3.710098 1_555
Hg4 Rb4 3.710120 1_565
Hg4 Rb1 3.710142 1_555
Hg4 Rb2 3.710166 1_455
Hg5 Hg6 3.175114 1_555
Hg5 Hg7 3.175194 1_554
Hg5 Rb2 3.784729 1_455
Hg5 Rb4 3.788144 1_555
Hg5 Rb0 3.792097 1_555
Hg5 Rb1 4.115569 1_555
Hg6 Hg8 3.175196 1_554
Hg6 Rb4 3.784761 1_555
Hg6 Rb3 3.788156 1_544
Hg6 Rb0 3.792143 1_555
Hg6 Rb2 4.115560 1_555
Hg7 Hg8 3.175137 1_555
Hg7 Rb1 3.784820 1_445
Hg7 Rb2 3.788127 1_456
Hg7 Rb0 3.792146 1_556
Hg7 Rb3 4.115580 1_555
Hg8 Rb3 3.784715 1_545
Hg8 Rb1 3.788170 1_445
Hg8 Rb0 3.792154 1_556
Hg8 Rb4 4.115543 1_555
Hg9 Rb3 3.784732 1_655
Hg9 Rb1 3.788144 1_555
Hg9 Rb0 3.792097 1_556
Hg9 Rb4 4.115569 1_555
Hg10 Hg17 3.087800 1_556
Hg10 Hg18 3.149662 1_555
Hg10 Hg9 3.175107 1_555
Hg10 Hg12 3.175189 1_556
Hg10 Hg13 3.277806 1_666
Hg10 Rb1 3.784764 1_555
Hg10 Rb2 3.788161 1_566
Hg10 Rb0 3.792134 1_556
Hg10 Rb3 4.115559 1_555
Hg11 Hg16 3.087808 1_554
Hg11 Hg15 3.149637 1_555
Hg11 Hg12 3.175145 1_555
Hg11 Hg9 3.175194 1_554
Hg11 Hg13 3.277817 1_665
Hg11 Rb4 3.784820 1_665
Hg11 Rb3 3.788136 1_654
Hg11 Rb0 3.792146 1_555
Hg11 Rb2 4.115574 1_555
Hg12 Hg2 3.060498 1_665
Hg12 Hg15 3.087778 1_555
Hg12 Hg17 3.149647 1_555
Hg12 Hg13 3.277759 1_665
Hg12 Rb2 3.784717 1_565
Hg12 Rb4 3.788179 1_665
Hg12 Rb0 3.792151 1_555
Hg12 Rb1 4.115537 1_555
Hg13 Hg8 3.277753 1_554
Hg13 Hg9 3.277778 1_444
Hg13 Hg5 3.277778 1_555
Hg13 Hg6 3.277807 1_555
Hg13 Hg7 3.277817 1_554
Hg13 Rb2 4.060117 1_455
Hg13 Rb3 4.060120 1_544
Hg13 Rb1 4.060237 1_444
Hg13 Rb4 4.060237 1_555
Hg14 Hg15 2.985647 1_555
Hg14 Hg3 3.015440 1_555
Hg14 Hg9 3.060486 1_555
Hg14 Hg5 3.087809 1_555
Hg14 Hg6 3.149666 1_555
Hg14 Rb1 3.795327 1_555
Hg14 Rb2 3.896668 1_555
Hg14 Rb4 3.962534 1_555
Hg14 Rb0 4.054583 1_555
Hg14 Rb3 4.140925 1_655
Hg15 Hg4 3.015417 1_655
Hg15 Hg8 3.060498 1_665
Hg15 Rb1 3.795271 1_555
Hg15 Rb2 3.896724 1_555
Hg15 Rb4 3.962610 1_665
Hg15 Rb0 4.054551 1_555
Hg15 Rb3 4.140934 1_655
Hg16 Hg3 3.015468 1_555
Hg16 Hg7 3.060486 1_655
Hg16 Hg9 3.149635 1_555
Hg16 Rb2 3.795350 1_556
Hg16 Rb4 3.896557 1_555
Hg16 Rb3 3.962576 1_655
Hg16 Rb0 4.054491 1_556
Hg16 Rb1 4.141072 1_545
Hg17 Hg3 3.015472 1_565
Hg17 Hg6 3.060474 1_565
Hg17 Rb3 3.795357 1_554
Hg17 Rb1 3.896561 1_555
Hg17 Rb2 3.962564 1_565
Hg17 Rb0 4.054542 1_555
Hg17 Rb4 4.140997 1_565
Hg18 Hg2 2.985647 1_555
Hg18 Hg4 3.015440 1_555
Hg18 Hg5 3.060486 1_555
Hg18 Hg9 3.087809 1_555
Hg18 Rb4 3.795327 1_555
Hg18 Rb3 3.896662 1_555
Hg18 Rb1 3.962534 1_555
Hg18 Rb0 4.054583 1_556
Hg18 Rb2 4.140929 1_455
