# generated using pymatgen
data_Ca5Ga2BiH
_symmetry_space_group_name_H-M   'P 1'
_cell_length_a   9.34784373
_cell_length_b   9.34784372
_cell_length_c   9.34784486
_cell_angle_alpha   129.51320425
_cell_angle_beta   129.51320609
_cell_angle_gamma   74.18619551
_symmetry_Int_Tables_number   1
_chemical_formula_structural   Ca5Ga2BiH
_chemical_formula_sum   'Ca10 Ga4 Bi2 H2'
_cell_volume   473.99757890
_cell_formula_units_Z   2
loop_
 _symmetry_equiv_pos_site_id
 _symmetry_equiv_pos_as_xyz
  1  'x, y, z'
loop_
 _atom_site_type_symbol
 _atom_site_label
 _atom_site_symmetry_multiplicity
 _atom_site_fract_x
 _atom_site_fract_y
 _atom_site_fract_z
 _atom_site_occupancy
  Ca  Ca0  1  0.50000000  0.50000000  0.00000000  1
  Ca  Ca1  1  0.00000000  0.00000000  0.00000000  1
  Ca  Ca2  1  0.51569162  0.01569162  0.82040216  1
  Ca  Ca3  1  0.19528946  0.69528946  0.17959784  1
  Ca  Ca4  1  0.01569162  0.19528946  0.50000000  1
  Ca  Ca5  1  0.69528946  0.51569162  0.50000000  1
  Ca  Ca6  1  0.48430838  0.98430838  0.17959784  1
  Ca  Ca7  1  0.80471054  0.30471054  0.82040216  1
  Ca  Ca8  1  0.98430838  0.80471054  0.50000000  1
  Ca  Ca9  1  0.30471054  0.48430838  0.50000000  1
  Ga  Ga0  1  0.88599514  0.38599514  0.27199129  1
  Ga  Ga1  1  0.11400486  0.61400486  0.72800871  1
  Ga  Ga2  1  0.38599514  0.11400486  0.50000000  1
  Ga  Ga3  1  0.61400486  0.88599514  0.50000000  1
  Bi  Bi0  1  0.25000000  0.25000000  0.00000000  1
  Bi  Bi1  1  0.75000000  0.75000000  0.00000000  1
  H  H0  1  0.25000000  0.75000000  0.50000000  1
  H  H1  1  0.75000000  0.25000000  0.50000000  1
loop_
_geom_bond_atom_site_label_1
_geom_bond_atom_site_label_2
_geom_bond_distance
_geom_bond_site_symmetry_2
Ca0 Ga2 3.208985 1_554
Ca0 Ga3 3.208985 1_555
Ca0 Ga0 3.208987 1_555
Ca0 Ga1 3.208987 1_554
Ca1 Ga3 3.208984 1_444
Ca1 Ga2 3.208984 1_555
Ca1 Ga0 3.208987 1_455
Ca1 Ga1 3.208987 1_544
Ca2 H0 2.395361 1_545
Ca2 Ga2 3.091852 1_555
Ca2 Ga3 3.091852 1_545
Ca2 Ga0 3.335578 1_556
Ca3 H0 2.395361 1_555
Ca3 Ga3 3.091851 1_555
Ca3 Ga2 3.091851 1_565
Ca3 Ga1 3.335588 1_554
Ca4 H1 2.395361 1_455
Ca4 Ga0 3.091844 1_455
Ca4 Ga1 3.091854 1_555
Ca4 Ga2 3.335578 1_555
Ca5 H1 2.395361 1_555
Ca5 Ga0 3.091844 1_555
Ca5 Ga1 3.091854 1_655
Ca5 Ga3 3.335578 1_555
Ca6 H1 2.395361 1_565
Ca6 Ga3 3.091852 1_555
Ca6 Ga2 3.091852 1_565
Ca6 Ga1 3.335578 1_554
Ca7 H1 2.395361 1_555
Ca7 Ga2 3.091851 1_555
Ca7 Ga3 3.091851 1_545
Ca7 Ga0 3.335588 1_556
Ca8 H0 2.395361 1_655
Ca8 Ga1 3.091844 1_655
Ca8 Ga0 3.091854 1_555
Ca8 Ga3 3.335578 1_555
Ca9 H0 2.395361 1_555
Ca9 Ga1 3.091844 1_555
Ca9 Ga0 3.091854 1_455
Ca9 Ga2 3.335578 1_555
Ga0 Ga1 2.570933 1_655
Ga2 Ga3 2.570944 1_545
Bi0 Ca7 3.383227 1_454
Bi0 Ca3 3.383227 1_555
Bi0 Ca5 3.383227 1_555
Bi0 Ca8 3.383227 1_444
Bi0 Ca6 3.383227 1_545
Bi0 Ca2 3.383227 1_554
Bi0 Ca4 3.383227 1_554
Bi0 Ca9 3.383227 1_555
Bi0 Ca0 3.728185 1_555
Bi0 Ca1 3.728185 1_555
Bi1 Ca3 3.383227 1_655
Bi1 Ca7 3.383227 1_554
Bi1 Ca9 3.383227 1_554
Bi1 Ca4 3.383227 1_665
Bi1 Ca2 3.383227 1_564
Bi1 Ca6 3.383227 1_555
Bi1 Ca8 3.383227 1_555
Bi1 Ca5 3.383227 1_554
Bi1 Ca1 3.728185 1_665
Bi1 Ca0 3.728185 1_555
