# generated using pymatgen
data_Lu12ZnCo4Hg
_symmetry_space_group_name_H-M   'P 1'
_cell_length_a   8.06463635
_cell_length_b   8.06463498
_cell_length_c   8.06463589
_cell_angle_alpha   111.50509332
_cell_angle_beta   110.48869839
_cell_angle_gamma   106.46284071
_symmetry_Int_Tables_number   1
_chemical_formula_structural   Lu12ZnCo4Hg
_chemical_formula_sum   'Lu12 Zn1 Co4 Hg1'
_cell_volume   402.90561106
_cell_formula_units_Z   1
loop_
 _symmetry_equiv_pos_site_id
 _symmetry_equiv_pos_as_xyz
  1  'x, y, z'
loop_
 _atom_site_type_symbol
 _atom_site_label
 _atom_site_symmetry_multiplicity
 _atom_site_fract_x
 _atom_site_fract_y
 _atom_site_fract_z
 _atom_site_occupancy
  Lu  Lu0  1  0.43131265  0.22889464  0.20241601  1
  Lu  Lu1  1  0.56868735  0.77110536  0.79758399  1
  Lu  Lu2  1  0.02647862  0.22889464  0.79758399  1
  Lu  Lu3  1  0.97352138  0.77110536  0.20241601  1
  Lu  Lu4  1  0.18451097  0.28691829  0.47142926  1
  Lu  Lu5  1  0.81548903  0.71308171  0.52857074  1
  Lu  Lu6  1  0.18451097  0.71308171  0.89759269  1
  Lu  Lu7  1  0.81548903  0.28691829  0.10240731  1
  Lu  Lu8  1  0.31727162  0.61840677  0.30113615  1
  Lu  Lu9  1  0.68272838  0.38159323  0.69886385  1
  Lu  Lu10  1  0.31727162  0.01613547  0.69886385  1
  Lu  Lu11  1  0.68272838  0.98386453  0.30113615  1
  Zn  Zn0  1  0.00000000  0.00000000  0.00000000  1
  Co  Co0  1  0.37700277  1.00000000  0.37700277  1
  Co  Co1  1  0.62299723  0.00000000  0.62299723  1
  Co  Co2  1  0.11347478  0.61347478  0.50000000  1
  Co  Co3  1  0.88652522  0.38652522  0.50000000  1
  Hg  Hg0  1  0.50000000  0.50000000  0.00000000  1
loop_
_geom_bond_atom_site_label_1
_geom_bond_atom_site_label_2
_geom_bond_distance
_geom_bond_site_symmetry_2
Lu0 Zn0 2.889270 1_555
Lu1 Zn0 2.889270 1_666
Lu2 Zn0 2.889257 1_556
Lu3 Zn0 2.889257 1_665
Lu4 Zn0 3.108228 1_555
Lu5 Zn0 3.108228 1_666
Lu6 Zn0 3.108227 1_566
Lu7 Zn0 3.108227 1_655
Co0 Co1 2.261904 1_565
Co0 Lu3 2.731440 1_455
Co0 Lu0 2.731442 1_565
Co0 Lu10 2.765827 1_565
Co0 Lu11 2.765827 1_555
Co0 Lu9 2.765831 1_565
Co0 Lu8 2.765835 1_555
Co0 Lu4 3.148883 1_565
Co0 Lu6 3.148883 1_554
Co1 Lu2 2.731440 1_655
Co1 Lu1 2.731442 1_545
Co1 Lu11 2.765827 1_545
Co1 Lu10 2.765827 1_555
Co1 Lu8 2.765831 1_545
Co1 Lu9 2.765835 1_555
Co1 Lu5 3.148883 1_545
Co1 Lu7 3.148883 1_556
Co2 Co3 2.191137 1_455
Co2 Lu8 2.670174 1_555
Co2 Lu10 2.670174 1_565
Co2 Lu4 2.796346 1_555
Co2 Lu7 2.796346 1_455
Co2 Lu6 2.796346 1_555
Co2 Lu5 2.796346 1_455
Co2 Lu1 3.131006 1_555
Co2 Lu3 3.131018 1_455
Co3 Lu9 2.670174 1_555
Co3 Lu11 2.670174 1_545
Co3 Lu5 2.796346 1_555
Co3 Lu6 2.796346 1_655
Co3 Lu7 2.796346 1_555
Co3 Lu4 2.796346 1_655
Co3 Lu0 3.131006 1_555
Co3 Lu2 3.131018 1_655
Hg0 Lu1 3.211713 1_554
Hg0 Lu0 3.211713 1_555
Hg0 Lu3 3.211716 1_555
Hg0 Lu2 3.211716 1_554
Hg0 Lu8 3.253303 1_555
Hg0 Lu9 3.253303 1_554
Hg0 Lu11 3.253304 1_555
Hg0 Lu10 3.253304 1_554
Hg0 Lu7 3.486571 1_555
Hg0 Lu6 3.486571 1_554
Hg0 Lu5 3.486571 1_555
Hg0 Lu4 3.486571 1_554
