# generated using pymatgen
data_Mg9Sn5
_symmetry_space_group_name_H-M   'P 1'
_cell_length_a   8.81383343
_cell_length_b   8.81383343
_cell_length_c   8.81383447
_cell_angle_alpha   96.79251029
_cell_angle_beta   96.79251025
_cell_angle_gamma   96.79251258
_symmetry_Int_Tables_number   1
_chemical_formula_structural   Mg9Sn5
_chemical_formula_sum   'Mg18 Sn10'
_cell_volume   669.01157418
_cell_formula_units_Z   2
loop_
 _symmetry_equiv_pos_site_id
 _symmetry_equiv_pos_as_xyz
  1  'x, y, z'
loop_
 _atom_site_type_symbol
 _atom_site_label
 _atom_site_symmetry_multiplicity
 _atom_site_fract_x
 _atom_site_fract_y
 _atom_site_fract_z
 _atom_site_occupancy
  Mg  Mg0  1  0.74664351  0.34977118  0.65717810  1
  Mg  Mg1  1  0.34977118  0.65717810  0.74664351  1
  Mg  Mg2  1  0.65717810  0.74664351  0.34977118  1
  Mg  Mg3  1  0.25517962  0.66258467  0.34670076  1
  Mg  Mg4  1  0.66258467  0.34670076  0.25517962  1
  Mg  Mg5  1  0.34670076  0.25517962  0.66258467  1
  Mg  Mg6  1  0.60618411  0.97982765  0.67656275  1
  Mg  Mg7  1  0.97982765  0.67656275  0.60618411  1
  Mg  Mg8  1  0.67656275  0.60618411  0.97982765  1
  Mg  Mg9  1  0.40460146  0.03274494  0.33730527  1
  Mg  Mg10  1  0.08114162  0.67567012  0.99495515  1
  Mg  Mg11  1  0.99495515  0.08114162  0.67567012  1
  Mg  Mg12  1  0.67567012  0.99495515  0.08114162  1
  Mg  Mg13  1  0.92958238  0.32103076  0.00720679  1
  Mg  Mg14  1  0.00720679  0.92958238  0.32103076  1
  Mg  Mg15  1  0.32103076  0.00720679  0.92958238  1
  Mg  Mg16  1  0.33730527  0.40460146  0.03274494  1
  Mg  Mg17  1  0.03274494  0.33730527  0.40460146  1
  Sn  Sn0  1  0.14838802  0.14838802  0.14838802  1
  Sn  Sn1  1  0.87893223  0.87893223  0.87893223  1
  Sn  Sn2  1  0.38038905  0.38038905  0.38038905  1
  Sn  Sn3  1  0.64662815  0.64662815  0.64662815  1
  Sn  Sn4  1  0.59225814  0.25219427  0.91726979  1
  Sn  Sn5  1  0.25219427  0.91726979  0.59225814  1
  Sn  Sn6  1  0.91726979  0.59225814  0.25219427  1
  Sn  Sn7  1  0.41560091  0.75315170  0.09132089  1
  Sn  Sn8  1  0.75315170  0.09132089  0.41560091  1
  Sn  Sn9  1  0.09132089  0.41560091  0.75315170  1
loop_
_geom_bond_atom_site_label_1
_geom_bond_atom_site_label_2
_geom_bond_distance
_geom_bond_site_symmetry_2
Mg0 Sn3 2.866229 1_555
Mg0 Sn8 2.939109 1_555
Mg0 Sn4 2.962053 1_555
Mg0 Sn9 3.023289 1_655
Mg1 Sn3 2.866229 1_555
Mg1 Sn9 2.939109 1_555
Mg1 Sn5 2.962053 1_555
Mg1 Sn7 3.023289 1_556
Mg2 Sn3 2.866229 1_555
Mg2 Sn7 2.939109 1_555
Mg2 Sn6 2.962053 1_555
Mg2 Sn8 3.023289 1_565
Mg3 Sn2 2.870331 1_555
Mg3 Sn5 2.932921 1_555
Mg3 Sn7 2.934909 1_555
Mg3 Sn6 2.966909 1_455
Mg4 Sn2 2.870331 1_555
Mg4 Sn6 2.932920 1_555
Mg4 Sn8 2.934909 1_555
Mg4 Sn4 2.966909 1_554
Mg5 Sn2 2.870331 1_555
Mg5 Sn4 2.932921 1_555
Mg5 Sn9 2.934909 1_555
Mg5 Sn5 2.966909 1_545
Mg6 Sn8 2.978633 1_565
Mg6 Sn3 2.984604 1_555
Mg6 Sn4 3.034050 1_565
Mg6 Sn5 3.088420 1_555
Mg6 Sn1 3.101265 1_555
Mg7 Sn9 2.978633 1_655
Mg7 Sn3 2.984604 1_555
Mg7 Sn5 3.034050 1_655
Mg7 Sn6 3.088421 1_555
Mg7 Sn1 3.101265 1_555
Mg8 Sn7 2.978633 1_556
Mg8 Sn3 2.984605 1_555
Mg8 Sn6 3.034050 1_556
Mg8 Sn4 3.088420 1_555
Mg8 Sn1 3.101265 1_555
Mg9 Sn5 2.970092 1_545
Mg9 Sn0 2.994568 1_555
Mg9 Sn8 3.036347 1_555
Mg9 Sn2 3.078461 1_555
Mg9 Sn7 3.102425 1_545
Mg10 Sn1 2.861672 1_455
Mg10 Sn7 2.944829 1_556
Mg10 Sn6 2.947002 1_456
Mg10 Sn9 2.956795 1_555
Mg11 Sn1 2.861672 1_545
Mg11 Sn9 2.944829 1_655
Mg11 Sn5 2.947002 1_645
Mg11 Sn8 2.956795 1_555
Mg12 Sn1 2.861672 1_554
Mg12 Sn8 2.944830 1_565
Mg12 Sn4 2.947002 1_564
Mg12 Sn7 2.956795 1_555
Mg13 Sn0 2.856111 1_655
Mg13 Sn9 2.942183 1_654
Mg13 Sn4 2.956003 1_554
Mg13 Sn6 3.047092 1_555
Mg14 Sn0 2.856111 1_565
Mg14 Sn8 2.942182 1_465
Mg14 Sn6 2.956003 1_455
Mg14 Sn5 3.047092 1_555
Mg15 Sn0 2.856111 1_556
Mg15 Sn7 2.942183 1_546
Mg15 Sn5 2.956003 1_545
Mg15 Sn4 3.047092 1_555
Mg16 Sn4 2.970092 1_554
Mg16 Sn0 2.994568 1_555
Mg16 Sn7 3.036347 1_555
Mg16 Sn2 3.078461 1_555
Mg16 Sn9 3.102425 1_554
Mg17 Sn6 2.970092 1_455
Mg17 Sn0 2.994568 1_555
Mg17 Sn9 3.036348 1_555
Mg17 Sn2 3.078461 1_555
Mg17 Sn8 3.102425 1_455
