# generated using pymatgen
data_SrLiAlSi2
_symmetry_space_group_name_H-M   'P 1'
_cell_length_a   6.08781595
_cell_length_b   6.08781552
_cell_length_c   6.08781638
_cell_angle_alpha   138.33761076
_cell_angle_beta   138.33761085
_cell_angle_gamma   60.38632676
_symmetry_Int_Tables_number   1
_chemical_formula_structural   SrLiAlSi2
_chemical_formula_sum   'Sr1 Li1 Al1 Si2'
_cell_volume   98.64812132
_cell_formula_units_Z   1
loop_
 _symmetry_equiv_pos_site_id
 _symmetry_equiv_pos_as_xyz
  1  'x, y, z'
loop_
 _atom_site_type_symbol
 _atom_site_label
 _atom_site_symmetry_multiplicity
 _atom_site_fract_x
 _atom_site_fract_y
 _atom_site_fract_z
 _atom_site_occupancy
  Sr  Sr0  1  0.00000000  0.00000000  0.00000000  1
  Li  Li0  1  0.75000000  0.25000000  0.50000000  1
  Al  Al0  1  0.25000000  0.75000000  0.50000000  1
  Si  Si0  1  0.38588887  0.38588887  0.00000000  1
  Si  Si1  1  0.61411113  0.61411113  0.00000000  1
loop_
_geom_bond_atom_site_label_1
_geom_bond_atom_site_label_2
_geom_bond_distance
_geom_bond_site_symmetry_2
Li0 Si1 2.594609 1_545
Li0 Si0 2.594609 1_656
Li0 Si0 2.594609 1_555
Li0 Si1 2.594610 1_556
Li0 Sr0 3.407172 1_666
Li0 Sr0 3.407172 1_555
Li0 Sr0 3.407173 1_656
Li0 Sr0 3.407173 1_655
Al0 Si0 2.594609 1_566
Al0 Si1 2.594609 1_455
Al0 Si1 2.594609 1_556
Al0 Si0 2.594610 1_555
Al0 Li0 3.061665 1_555
Al0 Li0 3.061665 1_465
Al0 Li0 3.061665 1_566
Al0 Li0 3.061665 1_454
Al0 Sr0 3.407172 1_555
Al0 Sr0 3.407172 1_666
Al0 Sr0 3.407173 1_565
Al0 Sr0 3.407173 1_566
Si0 Si1 2.401770 1_555
Si0 Sr0 3.288756 1_666
Si0 Sr0 3.288756 1_565
Si0 Sr0 3.288756 1_655
Si0 Sr0 3.288756 1_554
Si1 Sr0 3.288756 1_554
Si1 Sr0 3.288756 1_655
Si1 Sr0 3.288756 1_565
Si1 Sr0 3.288756 1_666
