# generated using pymatgen
data_MgScZnNi3
_symmetry_space_group_name_H-M   'P 1'
_cell_length_a   4.94294800
_cell_length_b   4.94294742
_cell_length_c   4.82422758
_cell_angle_alpha   59.18256677
_cell_angle_beta   59.18255350
_cell_angle_gamma   60.00000750
_symmetry_Int_Tables_number   1
_chemical_formula_structural   MgScZnNi3
_chemical_formula_sum   'Mg1 Sc1 Zn1 Ni3'
_cell_volume   82.30133706
_cell_formula_units_Z   1
loop_
 _symmetry_equiv_pos_site_id
 _symmetry_equiv_pos_as_xyz
  1  'x, y, z'
loop_
 _atom_site_type_symbol
 _atom_site_label
 _atom_site_symmetry_multiplicity
 _atom_site_fract_x
 _atom_site_fract_y
 _atom_site_fract_z
 _atom_site_occupancy
  Mg  Mg0  1  0.99981760  0.99981760  0.00054519  1
  Sc  Sc0  1  0.24664318  0.24664318  0.26007246  1
  Zn  Zn0  1  0.62611890  0.62611890  0.12164230  1
  Ni  Ni0  1  0.62651650  0.12438631  0.62257969  1
  Ni  Ni1  1  0.12438631  0.62651650  0.62257969  1
  Ni  Ni2  1  0.62651650  0.62651650  0.62257969  1
loop_
_geom_bond_atom_site_label_1
_geom_bond_atom_site_label_2
_geom_bond_distance
_geom_bond_site_symmetry_2
Mg0 Ni2 2.805804 1_555
Mg0 Ni0 2.805805 1_565
Mg0 Ni1 2.805806 1_655
Mg0 Ni1 2.875673 1_654
Mg0 Ni0 2.875673 1_564
Mg0 Ni2 2.875675 1_654
Mg0 Ni2 2.875676 1_564
Mg0 Ni0 2.875678 1_664
Mg0 Ni1 2.875678 1_664
Mg0 Sc0 2.880138 1_664
Mg0 Zn0 2.892419 1_555
Mg0 Zn0 2.892423 1_565
Mg0 Zn0 2.892423 1_655
Mg0 Sc0 3.027080 1_565
Mg0 Sc0 3.027080 1_655
Mg0 Sc0 3.027095 1_665
Sc0 Zn0 2.904154 1_555
Sc0 Zn0 2.904166 1_545
Sc0 Zn0 2.904167 1_455
Ni0 Zn0 2.405580 1_546
Ni0 Zn0 2.418652 1_555
Ni0 Ni2 2.460944 1_545
Ni0 Ni1 2.460945 1_645
Ni0 Ni2 2.482003 1_555
Ni0 Ni1 2.482004 1_555
Ni0 Sc0 2.845400 1_555
Ni0 Sc0 2.845413 1_655
Ni0 Sc0 2.863880 1_556
Ni1 Zn0 2.405580 1_456
Ni1 Zn0 2.418652 1_555
Ni1 Ni2 2.460945 1_455
Ni1 Ni2 2.482003 1_555
Ni1 Sc0 2.845399 1_555
Ni1 Sc0 2.845413 1_565
Ni1 Sc0 2.863881 1_556
Ni2 Zn0 2.405579 1_556
Ni2 Zn0 2.418651 1_555
Ni2 Sc0 2.845406 1_655
Ni2 Sc0 2.845407 1_565
Ni2 Sc0 2.863875 1_556
