# generated using pymatgen
data_Ta4Zn(TeSe)4
_symmetry_space_group_name_H-M   'P 1'
_cell_length_a   7.73559958
_cell_length_b   7.73559969
_cell_length_c   7.73559996
_cell_angle_alpha   59.99999464
_cell_angle_beta   59.99999418
_cell_angle_gamma   59.99999415
_symmetry_Int_Tables_number   1
_chemical_formula_structural   Ta4Zn(TeSe)4
_chemical_formula_sum   'Ta4 Zn1 Te4 Se4'
_cell_volume   327.31576020
_cell_formula_units_Z   1
loop_
 _symmetry_equiv_pos_site_id
 _symmetry_equiv_pos_as_xyz
  1  'x, y, z'
loop_
 _atom_site_type_symbol
 _atom_site_label
 _atom_site_symmetry_multiplicity
 _atom_site_fract_x
 _atom_site_fract_y
 _atom_site_fract_z
 _atom_site_occupancy
  Ta  Ta0  1  0.59897963  0.59897963  0.20306110  1
  Ta  Ta1  1  0.59897963  0.20306110  0.59897963  1
  Ta  Ta2  1  0.20306110  0.59897963  0.59897963  1
  Ta  Ta3  1  0.59897963  0.59897963  0.59897963  1
  Zn  Zn0  1  0.00000000  0.00000000  0.00000000  1
  Te  Te0  1  0.86465363  0.86465363  0.40603712  1
  Te  Te1  1  0.86465363  0.40603712  0.86465363  1
  Te  Te2  1  0.40603712  0.86465363  0.86465363  1
  Te  Te3  1  0.86465363  0.86465363  0.86465363  1
  Se  Se0  1  0.37018722  0.37018722  0.88944035  1
  Se  Se1  1  0.37018722  0.88944035  0.37018722  1
  Se  Se2  1  0.88944035  0.37018722  0.37018722  1
  Se  Se3  1  0.37018722  0.37018722  0.37018722  1
loop_
_geom_bond_atom_site_label_1
_geom_bond_atom_site_label_2
_geom_bond_distance
_geom_bond_site_symmetry_2
Ta0 Te3 2.960376 1_554
Ta0 Te1 2.960385 1_554
Ta0 Te2 2.960385 1_554
Ta1 Te3 2.960376 1_545
Ta1 Te2 2.960385 1_545
Ta1 Te0 2.960385 1_545
Ta2 Te3 2.960376 1_455
Ta2 Te1 2.960385 1_455
Ta2 Te0 2.960385 1_455
Ta3 Te0 2.960373 1_555
Ta3 Te1 2.960373 1_555
Ta3 Te2 2.960373 1_555
Te0 Zn0 2.564567 1_665
Te1 Zn0 2.564567 1_656
Te2 Zn0 2.564567 1_566
Te3 Zn0 2.564580 1_666
Se0 Ta3 2.547996 1_555
Se0 Ta1 2.548005 1_555
Se0 Ta2 2.548005 1_555
Se1 Ta3 2.547996 1_555
Se1 Ta2 2.548005 1_555
Se1 Ta0 2.548005 1_555
Se2 Ta3 2.547996 1_555
Se2 Ta1 2.548005 1_555
Se2 Ta0 2.548005 1_555
Se3 Ta0 2.547993 1_555
Se3 Ta1 2.547993 1_555
Se3 Ta2 2.547993 1_555
