# generated using pymatgen
data_K2MgCrF7
_symmetry_space_group_name_H-M   'P 1'
_cell_length_a   7.53036835
_cell_length_b   7.53036669
_cell_length_c   7.53036823
_cell_angle_alpha   120.78823739
_cell_angle_beta   116.63846675
_cell_angle_gamma   92.27949390
_symmetry_Int_Tables_number   1
_chemical_formula_structural   K2MgCrF7
_chemical_formula_sum   'K4 Mg2 Cr2 F14'
_cell_volume   307.07729023
_cell_formula_units_Z   2
loop_
 _symmetry_equiv_pos_site_id
 _symmetry_equiv_pos_as_xyz
  1  'x, y, z'
loop_
 _atom_site_type_symbol
 _atom_site_label
 _atom_site_symmetry_multiplicity
 _atom_site_fract_x
 _atom_site_fract_y
 _atom_site_fract_z
 _atom_site_occupancy
  K  K0  1  0.50000000  0.50000000  0.50000000  1
  K  K1  1  0.50000000  0.00000000  0.00000000  1
  K  K2  1  0.50000000  0.50000000  0.00000000  1
  K  K3  1  0.00000000  0.00000000  0.00000000  1
  Mg  Mg0  1  0.00000000  0.50000000  0.00000000  1
  Mg  Mg1  1  0.00000000  0.00000000  0.50000000  1
  Cr  Cr0  1  0.00000000  0.50000000  0.50000000  1
  Cr  Cr1  1  0.50000000  0.00000000  0.50000000  1
  F  F0  1  0.09325178  0.25000000  0.84325178  1
  F  F1  1  0.90674822  0.75000000  0.15674822  1
  F  F2  1  0.70285512  0.41226414  0.29059099  1
  F  F3  1  0.29714488  0.58773586  0.70940901  1
  F  F4  1  0.37832685  0.08773586  0.29059099  1
  F  F5  1  0.62167315  0.91226414  0.70940901  1
  F  F6  1  0.96144193  0.57082604  0.76290134  1
  F  F7  1  0.03855807  0.80145941  0.60938311  1
  F  F8  1  0.69207630  0.30145941  0.76290134  1
  F  F9  1  0.30792370  0.07082604  0.60938311  1
  F  F10  1  0.30792370  0.69854059  0.23709866  1
  F  F11  1  0.69207630  0.92917396  0.39061689  1
  F  F12  1  0.03855807  0.42917396  0.23709866  1
  F  F13  1  0.96144193  0.19854059  0.39061689  1
loop_
_geom_bond_atom_site_label_1
_geom_bond_atom_site_label_2
_geom_bond_distance
_geom_bond_site_symmetry_2
Cr0 F3 1.892567 1_555
Cr0 F2 1.892567 1_455
Cr0 F6 1.932611 1_455
Cr0 F12 1.932611 1_555
Cr0 F7 1.932612 1_555
Cr0 F13 1.932612 1_455
Cr1 F5 1.892567 1_545
Cr1 F4 1.892567 1_555
Cr1 F8 1.932612 1_555
Cr1 F10 1.932612 1_545
Cr1 F11 1.932613 1_545
Cr1 F9 1.932613 1_555
F0 Mg0 2.001020 1_556
F0 Mg1 2.001020 1_555
F0 K3 2.888520 1_556
F0 K2 2.888521 1_556
F1 Mg0 2.001020 1_655
F1 Mg1 2.001020 1_665
F1 K3 2.888520 1_665
F1 K2 2.888521 1_555
F2 K2 2.474128 1_555
F2 K1 2.535837 1_555
F2 K0 2.535837 1_555
F3 K2 2.474128 1_556
F3 K1 2.535837 1_566
F3 K0 2.535837 1_555
F4 K3 2.474128 1_555
F4 K0 2.535837 1_555
F4 K1 2.535837 1_555
F5 K3 2.474128 1_666
F5 K0 2.535837 1_555
F5 K1 2.535837 1_566
F6 Mg0 2.019620 1_656
F6 K3 2.696323 1_666
F6 K0 2.980122 1_555
F7 Mg1 2.019615 1_565
F7 K3 2.696330 1_566
F7 K1 2.980124 1_566
F8 Mg0 2.019615 1_656
F8 K2 2.696330 1_556
F8 K0 2.980124 1_555
F9 Mg1 2.019615 1_555
F9 K2 2.696325 1_556
F9 K1 2.980129 1_556
F10 Mg0 2.019615 1_555
F10 K2 2.696330 1_555
F10 K0 2.980124 1_555
F11 Mg1 2.019615 1_665
F11 K2 2.696325 1_555
F11 K1 2.980129 1_565
F12 Mg0 2.019620 1_555
F12 K3 2.696323 1_555
F12 K0 2.980122 1_555
F13 Mg1 2.019615 1_655
F13 K3 2.696330 1_655
F13 K1 2.980124 1_555
