# generated using pymatgen
data_Ga3Pt5
_symmetry_space_group_name_H-M   'P 1'
_cell_length_a   3.96455786
_cell_length_b   5.48826824
_cell_length_c   5.48826855
_cell_angle_alpha   93.66059402
_cell_angle_beta   90.00000000
_cell_angle_gamma   90.00000000
_symmetry_Int_Tables_number   1
_chemical_formula_structural   Ga3Pt5
_chemical_formula_sum   'Ga3 Pt5'
_cell_volume   119.17316561
_cell_formula_units_Z   1
loop_
 _symmetry_equiv_pos_site_id
 _symmetry_equiv_pos_as_xyz
  1  'x, y, z'
loop_
 _atom_site_type_symbol
 _atom_site_label
 _atom_site_symmetry_multiplicity
 _atom_site_fract_x
 _atom_site_fract_y
 _atom_site_fract_z
 _atom_site_occupancy
  Ga  Ga0  1  -0.00000000  0.00000000  -0.00000000  1
  Ga  Ga1  1  0.50000000  0.28623602  0.71376398  1
  Ga  Ga2  1  0.50000000  0.71376398  0.28623602  1
  Pt  Pt0  1  -0.00000000  0.50000000  0.50000000  1
  Pt  Pt1  1  -0.00000000  0.50000000  -0.00000000  1
  Pt  Pt2  1  0.00000000  0.00000000  0.50000000  1
  Pt  Pt3  1  0.50000000  0.20619751  0.20619751  1
  Pt  Pt4  1  0.50000000  0.79380249  0.79380249  1
loop_
_geom_bond_atom_site_label_1
_geom_bond_atom_site_label_2
_geom_bond_distance
_geom_bond_site_symmetry_2
Ga0 Pt4 2.515401 1_444
Ga0 Pt3 2.515401 1_555
Ga0 Pt3 2.515401 1_455
Ga0 Pt4 2.515401 1_544
Ga0 Pt1 2.744134 1_545
Ga0 Pt1 2.744134 1_555
Ga0 Pt2 2.744134 1_554
Ga0 Pt2 2.744134 1_555
Ga1 Pt0 2.618769 1_655
Ga1 Pt0 2.618769 1_555
Ga1 Pt2 2.745602 1_555
Ga1 Pt2 2.745602 1_655
Ga1 Pt1 2.745602 1_656
Ga1 Pt1 2.745602 1_556
Ga1 Pt4 2.765618 1_545
Ga1 Pt3 2.765618 1_556
Ga1 Pt4 2.792242 1_555
Ga1 Pt3 2.792242 1_555
Ga2 Pt0 2.618769 1_655
Ga2 Pt0 2.618769 1_555
Ga2 Pt2 2.745602 1_565
Ga2 Pt2 2.745602 1_665
Ga2 Pt1 2.745602 1_555
Ga2 Pt1 2.745602 1_655
Ga2 Pt3 2.765618 1_565
Ga2 Pt4 2.765618 1_554
Ga2 Pt3 2.792242 1_555
Ga2 Pt4 2.792242 1_555
Pt0 Pt2 2.744134 1_555
Pt0 Pt2 2.744134 1_565
Pt0 Pt1 2.744134 1_556
Pt0 Pt1 2.744134 1_555
Pt1 Pt3 2.836046 1_555
Pt1 Pt4 2.836046 1_554
Pt1 Pt3 2.836046 1_455
Pt1 Pt4 2.836046 1_454
Pt2 Pt4 2.836046 1_545
Pt2 Pt3 2.836046 1_455
Pt2 Pt4 2.836046 1_445
Pt2 Pt3 2.836046 1_555
