# generated using pymatgen
data_ErSnRh
_symmetry_space_group_name_H-M   'P 1'
_cell_length_a   7.54820786
_cell_length_b   7.54820735
_cell_length_c   3.73195186
_cell_angle_alpha   90.00000000
_cell_angle_beta   90.00000000
_cell_angle_gamma   120.00000224
_symmetry_Int_Tables_number   1
_chemical_formula_structural   ErSnRh
_chemical_formula_sum   'Er3 Sn3 Rh3'
_cell_volume   184.14262409
_cell_formula_units_Z   3
loop_
 _symmetry_equiv_pos_site_id
 _symmetry_equiv_pos_as_xyz
  1  'x, y, z'
loop_
 _atom_site_type_symbol
 _atom_site_label
 _atom_site_symmetry_multiplicity
 _atom_site_fract_x
 _atom_site_fract_y
 _atom_site_fract_z
 _atom_site_occupancy
  Er  Er0  1  0.00000000  0.59623461  -0.00000000  1
  Er  Er1  1  0.40376539  0.40376539  0.00000000  1
  Er  Er2  1  0.59623461  -0.00000000  -0.00000000  1
  Sn  Sn0  1  0.73503772  0.73503772  0.50000000  1
  Sn  Sn1  1  0.00000000  0.26496228  0.50000000  1
  Sn  Sn2  1  0.26496228  -0.00000000  0.50000000  1
  Rh  Rh0  1  0.33333300  0.66666700  0.50000000  1
  Rh  Rh1  1  0.66666700  0.33333300  0.50000000  1
  Rh  Rh2  1  -0.00000000  -0.00000000  -0.00000000  1
loop_
_geom_bond_atom_site_label_1
_geom_bond_atom_site_label_2
_geom_bond_distance
_geom_bond_site_symmetry_2
Er0 Rh0 2.959301 1_555
Er0 Rh0 2.959301 1_554
Er0 Rh1 2.959302 1_455
Er0 Rh1 2.959302 1_454
Er0 Rh2 3.047705 1_565
Er0 Sn1 3.120004 1_554
Er0 Sn1 3.120004 1_555
Er0 Sn2 3.267254 1_564
Er0 Sn2 3.267254 1_565
Er0 Sn0 3.267255 1_455
Er0 Sn0 3.267255 1_454
Er1 Rh0 2.959306 1_555
Er1 Rh0 2.959306 1_554
Er1 Rh1 2.959306 1_555
Er1 Rh1 2.959306 1_554
Er1 Rh2 3.047705 1_555
Er1 Sn0 3.120004 1_555
Er1 Sn0 3.120004 1_554
Er1 Sn2 3.267254 1_555
Er1 Sn2 3.267254 1_554
Er1 Sn1 3.267255 1_554
Er1 Sn1 3.267255 1_555
Er2 Rh1 2.959300 1_555
Er2 Rh1 2.959300 1_554
Er2 Rh0 2.959302 1_544
Er2 Rh0 2.959302 1_545
Er2 Rh2 3.047705 1_655
Er2 Sn2 3.120005 1_555
Er2 Sn2 3.120005 1_554
Er2 Sn0 3.267255 1_544
Er2 Sn0 3.267255 1_545
Er2 Sn1 3.267255 1_654
Er2 Sn1 3.267255 1_655
Rh0 Sn2 2.809877 1_565
Rh0 Sn1 2.809882 1_555
Rh0 Sn0 2.809885 1_555
Rh1 Sn1 2.809877 1_655
Rh1 Sn2 2.809882 1_555
Rh1 Sn0 2.809884 1_555
Rh2 Sn0 2.735293 1_444
Rh2 Sn1 2.735293 1_554
Rh2 Sn0 2.735293 1_445
Rh2 Sn1 2.735293 1_555
Rh2 Sn2 2.735293 1_555
Rh2 Sn2 2.735293 1_554
