# generated using pymatgen
data_Ca3Ru2O7
_symmetry_space_group_name_H-M   'P 1'
_cell_length_a   10.12351349
_cell_length_b   10.12351349
_cell_length_c   5.55599760
_cell_angle_alpha   90.00000000
_cell_angle_beta   90.00000000
_cell_angle_gamma   149.19887483
_symmetry_Int_Tables_number   1
_chemical_formula_structural   Ca3Ru2O7
_chemical_formula_sum   'Ca6 Ru4 O14'
_cell_volume   291.57159083
_cell_formula_units_Z   2
loop_
 _symmetry_equiv_pos_site_id
 _symmetry_equiv_pos_as_xyz
  1  'x, y, z'
loop_
 _atom_site_type_symbol
 _atom_site_label
 _atom_site_symmetry_multiplicity
 _atom_site_fract_x
 _atom_site_fract_y
 _atom_site_fract_z
 _atom_site_occupancy
  Ca  Ca0  1  0.55535055  0.93217682  0.30607330  1
  Ca  Ca1  1  0.44464945  0.06782318  0.80607330  1
  Ca  Ca2  1  0.06782318  0.44464945  0.80607330  1
  Ca  Ca3  1  0.93217682  0.55535055  0.30607330  1
  Ca  Ca4  1  0.26610828  0.26610828  0.69124430  1
  Ca  Ca5  1  0.73389172  0.73389172  0.19124430  1
  Ru  Ru0  1  0.65384820  0.85126489  0.75061960  1
  Ru  Ru1  1  0.34615180  0.14873511  0.25061960  1
  Ru  Ru2  1  0.14873511  0.34615180  0.25061960  1
  Ru  Ru3  1  0.85126489  0.65384820  0.75061960  1
  O  O0  1  0.06704567  0.83379874  0.04507964  1
  O  O1  1  0.93295433  0.16620126  0.54507964  1
  O  O2  1  0.16620126  0.93295433  0.54507964  1
  O  O3  1  0.83379874  0.06704567  0.04507964  1
  O  O4  1  0.52869062  0.36734875  0.95133738  1
  O  O5  1  0.47130938  0.63265125  0.45133738  1
  O  O6  1  0.63265125  0.47130938  0.45133738  1
  O  O7  1  0.36734875  0.52869062  0.95133738  1
  O  O8  1  0.16301244  0.16301244  0.27057399  1
  O  O9  1  0.83698756  0.83698756  0.77057399  1
  O  O10  1  0.12076282  0.51787800  0.23003092  1
  O  O11  1  0.87923718  0.48212200  0.73003092  1
  O  O12  1  0.48212200  0.87923718  0.73003092  1
  O  O13  1  0.51787800  0.12076282  0.23003092  1
loop_
_geom_bond_atom_site_label_1
_geom_bond_atom_site_label_2
_geom_bond_distance
_geom_bond_site_symmetry_2
Ca0 O13 2.282861 1_565
Ca0 O3 2.302435 1_565
Ca0 O10 2.329404 1_555
Ca0 O12 2.388029 1_555
Ca0 O5 2.477483 1_555
Ca0 O1 2.535932 1_565
Ca1 O12 2.282861 1_545
Ca1 O2 2.302435 1_545
Ca1 O11 2.329404 1_555
Ca1 O13 2.388029 1_556
Ca1 O4 2.477483 1_555
Ca1 O0 2.535932 1_546
Ca2 O11 2.282861 1_455
Ca2 O1 2.302435 1_455
Ca2 O12 2.329404 1_555
Ca2 O10 2.388029 1_556
Ca2 O7 2.477483 1_555
Ca2 O3 2.535932 1_456
Ca3 O10 2.282861 1_655
Ca3 O0 2.302435 1_655
Ca3 O13 2.329404 1_555
Ca3 O11 2.388029 1_555
Ca3 O6 2.477483 1_555
Ca3 O2 2.535932 1_655
Ca4 O9 2.349065 1_445
Ca4 O7 2.350456 1_555
Ca4 O4 2.350456 1_555
Ca4 O8 2.402082 1_555
Ca4 O5 2.572753 1_555
Ca4 O6 2.572753 1_555
Ca4 O1 2.682801 1_455
Ca4 O2 2.682801 1_545
Ca5 O8 2.349065 1_665
Ca5 O5 2.350456 1_555
Ca5 O6 2.350456 1_555
Ca5 O9 2.402082 1_554
Ca5 O4 2.572753 1_554
Ca5 O7 2.572753 1_554
Ca5 O3 2.682801 1_565
Ca5 O0 2.682801 1_655
O0 Ru3 1.982612 1_454
O0 Ru1 1.994242 1_565
O1 Ru2 1.982612 1_655
O1 Ru0 1.994242 1_545
O2 Ru1 1.982612 1_565
O2 Ru3 1.994242 1_455
O3 Ru0 1.982612 1_544
O3 Ru2 1.994242 1_655
O4 Ru3 2.012191 1_555
O4 Ru1 2.012966 1_556
O5 Ru2 2.012191 1_555
O5 Ru0 2.012966 1_555
O6 Ru1 2.012191 1_555
O6 Ru3 2.012966 1_555
O7 Ru0 2.012191 1_555
O7 Ru2 2.012966 1_556
O8 Ru1 1.982650 1_555
O8 Ru2 1.982650 1_555
O9 Ru3 1.982650 1_555
O9 Ru0 1.982650 1_555
O10 Ru2 1.990296 1_555
O11 Ru3 1.990296 1_555
O12 Ru0 1.990296 1_555
O13 Ru1 1.990296 1_555
