# generated using pymatgen
data_Mg3AsP6N13
_symmetry_space_group_name_H-M   'P 1'
_cell_length_a   7.07643995
_cell_length_b   7.07644096
_cell_length_c   7.07644054
_cell_angle_alpha   109.41556215
_cell_angle_beta   109.41556493
_cell_angle_gamma   109.41556064
_symmetry_Int_Tables_number   1
_chemical_formula_structural   Mg3AsP6N13
_chemical_formula_sum   'Mg3 As1 P6 N13'
_cell_volume   273.34706315
_cell_formula_units_Z   1
loop_
 _symmetry_equiv_pos_site_id
 _symmetry_equiv_pos_as_xyz
  1  'x, y, z'
loop_
 _atom_site_type_symbol
 _atom_site_label
 _atom_site_symmetry_multiplicity
 _atom_site_fract_x
 _atom_site_fract_y
 _atom_site_fract_z
 _atom_site_occupancy
  Mg  Mg0  1  0.99923201  0.68350808  0.99923201  1
  Mg  Mg1  1  0.68350808  0.99923201  0.99923201  1
  Mg  Mg2  1  0.99923201  0.99923201  0.68350808  1
  As  As0  1  0.24473754  0.24473754  0.24473754  1
  P  P0  1  0.50378806  0.25386192  0.75399770  1
  P  P1  1  0.50378806  0.75399770  0.25386192  1
  P  P2  1  0.75399770  0.25386192  0.50378806  1
  P  P3  1  0.25386192  0.50378806  0.75399770  1
  P  P4  1  0.75399770  0.50378806  0.25386192  1
  P  P5  1  0.25386192  0.75399770  0.50378806  1
  N  N0  1  0.99725019  0.99725019  0.99725019  1
  N  N1  1  0.00351079  0.73299726  0.45099583  1
  N  N2  1  0.27360891  0.72339375  0.27360891  1
  N  N3  1  0.28674617  0.56018916  0.56018916  1
  N  N4  1  0.56018916  0.56018916  0.28674617  1
  N  N5  1  0.56018916  0.28674617  0.56018916  1
  N  N6  1  0.73299726  0.00351079  0.45099583  1
  N  N7  1  0.45099583  0.00351079  0.73299726  1
  N  N8  1  0.73299726  0.45099583  0.00351079  1
  N  N9  1  0.27360891  0.27360891  0.72339375  1
  N  N10  1  0.72339375  0.27360891  0.27360891  1
  N  N11  1  0.00351079  0.45099583  0.73299726  1
  N  N12  1  0.45099583  0.73299726  0.00351079  1
loop_
_geom_bond_atom_site_label_1
_geom_bond_atom_site_label_2
_geom_bond_distance
_geom_bond_site_symmetry_2
Mg0 N8 2.065846 1_556
Mg0 N11 2.065846 1_655
Mg0 N2 2.093887 1_656
Mg0 N0 2.229541 1_555
Mg1 N7 2.065846 1_565
Mg1 N12 2.065846 1_556
Mg1 N10 2.093888 1_566
Mg1 N0 2.229540 1_555
Mg2 N6 2.065846 1_565
Mg2 N1 2.065846 1_655
Mg2 N9 2.093887 1_665
Mg2 N0 2.229541 1_555
As0 N0 1.756136 1_444
As0 N5 2.420580 1_555
As0 N4 2.420580 1_555
As0 N3 2.420580 1_555
N1 P5 1.627342 1_555
N1 P4 1.627443 1_455
N2 P1 1.629877 1_555
N2 P5 1.629877 1_555
N3 P3 1.615160 1_555
N3 P5 1.615160 1_555
N4 P4 1.615159 1_555
N4 P1 1.615160 1_555
N5 P2 1.615159 1_555
N5 P0 1.615160 1_555
N6 P2 1.627342 1_555
N6 P1 1.627443 1_545
N7 P0 1.627342 1_555
N7 P5 1.627443 1_545
N8 P4 1.627342 1_555
N8 P0 1.627443 1_554
N9 P0 1.629877 1_555
N9 P3 1.629877 1_555
N10 P2 1.629877 1_555
N10 P4 1.629877 1_555
N11 P3 1.627342 1_555
N11 P2 1.627443 1_455
N12 P1 1.627342 1_555
N12 P3 1.627443 1_554
