# generated using pymatgen
data_Ba3Al2F12
_symmetry_space_group_name_H-M   'P 1'
_cell_length_a   9.50439363
_cell_length_b   9.87995497
_cell_length_c   10.20611572
_cell_angle_alpha   90.00000000
_cell_angle_beta   90.00000000
_cell_angle_gamma   90.00000000
_symmetry_Int_Tables_number   1
_chemical_formula_structural   Ba3Al2F12
_chemical_formula_sum   'Ba12 Al8 F48'
_cell_volume   958.38469137
_cell_formula_units_Z   4
loop_
 _symmetry_equiv_pos_site_id
 _symmetry_equiv_pos_as_xyz
  1  'x, y, z'
loop_
 _atom_site_type_symbol
 _atom_site_label
 _atom_site_symmetry_multiplicity
 _atom_site_fract_x
 _atom_site_fract_y
 _atom_site_fract_z
 _atom_site_occupancy
  Ba  Ba0  1  0.50000000  0.85049644  0.85575996  1
  Ba  Ba1  1  0.50000000  0.14950356  0.14424004  1
  Ba  Ba2  1  0.00000000  0.35049644  0.64424004  1
  Ba  Ba3  1  0.00000000  0.64950356  0.35575996  1
  Ba  Ba4  1  0.50000000  0.70967345  0.27114897  1
  Ba  Ba5  1  0.50000000  0.29032655  0.72885103  1
  Ba  Ba6  1  0.00000000  0.20967345  0.22885103  1
  Ba  Ba7  1  0.00000000  0.79032655  0.77114897  1
  Ba  Ba8  1  0.25198571  -0.00000000  0.50000000  1
  Ba  Ba9  1  0.24801429  0.50000000  0.00000000  1
  Ba  Ba10  1  0.74801429  -0.00000000  0.50000000  1
  Ba  Ba11  1  0.75198571  0.50000000  0.00000000  1
  Al  Al0  1  0.18593207  0.14280301  0.89879607  1
  Al  Al1  1  0.18593207  0.85719699  0.10120393  1
  Al  Al2  1  0.31406793  0.64280301  0.60120393  1
  Al  Al3  1  0.31406793  0.35719699  0.39879607  1
  Al  Al4  1  0.81406793  0.85719699  0.10120393  1
  Al  Al5  1  0.81406793  0.14280301  0.89879607  1
  Al  Al6  1  0.68593207  0.35719699  0.39879607  1
  Al  Al7  1  0.68593207  0.64280301  0.60120393  1
  F  F0  1  0.14785049  0.05221447  0.75284781  1
  F  F1  1  0.14785049  0.94778553  0.24715219  1
  F  F2  1  0.35214951  0.55221447  0.74715219  1
  F  F3  1  0.35214951  0.44778553  0.25284781  1
  F  F4  1  0.85214951  0.94778553  0.24715219  1
  F  F5  1  0.85214951  0.05221447  0.75284781  1
  F  F6  1  0.64785049  0.44778553  0.25284781  1
  F  F7  1  0.64785049  0.55221447  0.74715219  1
  F  F8  1  0.36440602  0.09223183  0.89623857  1
  F  F9  1  0.36440602  0.90776817  0.10376143  1
  F  F10  1  0.13559398  0.59223183  0.60376143  1
  F  F11  1  0.13559398  0.40776817  0.39623857  1
  F  F12  1  0.63559398  0.90776817  0.10376143  1
  F  F13  1  0.63559398  0.09223183  0.89623857  1
  F  F14  1  0.86440602  0.40776817  0.39623857  1
  F  F15  1  0.86440602  0.59223183  0.60376143  1
  F  F16  1  0.71668635  0.73173643  0.44855723  1
  F  F17  1  0.28331365  0.26826357  0.55144277  1
  F  F18  1  0.21668635  0.76826357  0.94855723  1
  F  F19  1  0.21668635  0.23173643  0.05144277  1
  F  F20  1  0.86572021  -0.00000000  0.00000000  1
  F  F21  1  0.63427979  0.50000000  0.50000000  1
  F  F22  1  0.13427979  -0.00000000  0.00000000  1
  F  F23  1  0.36572021  0.50000000  0.50000000  1
  F  F24  1  0.00000000  0.19969271  0.90848335  1
  F  F25  1  0.00000000  0.80030729  0.09151665  1
  F  F26  1  0.50000000  0.69969271  0.59151665  1
  F  F27  1  0.50000000  0.30030729  0.40848335  1
  F  F28  1  0.00000000  0.85646961  0.52426371  1
  F  F29  1  0.00000000  0.14353039  0.47573629  1
  F  F30  1  0.50000000  0.35646961  0.97573629  1
  F  F31  1  0.50000000  0.64353039  0.02426371  1
  F  F32  1  0.00000000  0.53399222  0.85771101  1
  F  F33  1  0.00000000  0.46600778  0.14228899  1
  F  F34  1  0.50000000  0.03399222  0.64228899  1
  F  F35  1  0.50000000  0.96600778  0.35771101  1
  F  F36  1  0.72161373  0.79687393  0.68768051  1
  F  F37  1  0.72161373  0.20312607  0.31231949  1
  F  F38  1  0.77838627  0.29687393  0.81231949  1
  F  F39  1  0.77838627  0.70312607  0.18768051  1
  F  F40  1  0.27838627  0.20312607  0.31231949  1
  F  F41  1  0.27838627  0.79687393  0.68768051  1
  F  F42  1  0.22161373  0.70312607  0.18768051  1
  F  F43  1  0.22161373  0.29687393  0.81231949  1
  F  F44  1  0.78331365  0.76826357  0.94855723  1
  F  F45  1  0.78331365  0.23173643  0.05144277  1
  F  F46  1  0.71668635  0.26826357  0.55144277  1
  F  F47  1  0.28331365  0.73173643  0.44855723  1
loop_
_geom_bond_atom_site_label_1
_geom_bond_atom_site_label_2
_geom_bond_distance
_geom_bond_site_symmetry_2
Ba0 F31 2.671867 1_556
Ba0 F8 2.745117 1_565
Ba0 F13 2.745117 1_565
Ba0 F36 2.767656 1_555
Ba0 F41 2.767656 1_555
Ba0 F34 2.834341 1_565
Ba0 F9 2.896144 1_556
Ba0 F12 2.896144 1_556
Ba0 F18 2.967802 1_555
Ba0 F44 2.967802 1_555
Ba0 F26 3.081097 1_555
Ba1 F30 2.671867 1_554
Ba1 F12 2.745117 1_545
Ba1 F9 2.745117 1_545
Ba1 F37 2.767656 1_555
Ba1 F40 2.767656 1_555
Ba1 F35 2.834341 1_545
Ba1 F8 2.896144 1_554
Ba1 F13 2.896144 1_554
Ba1 F19 2.967802 1_555
Ba1 F45 2.967802 1_555
Ba1 F27 3.081097 1_555
Ba2 F29 2.671867 1_555
Ba2 F10 2.745117 1_555
Ba2 F15 2.745117 1_455
Ba2 F38 2.767656 1_455
Ba2 F43 2.767656 1_555
Ba2 F32 2.834341 1_555
Ba2 F11 2.896144 1_555
Ba2 F14 2.896144 1_455
Ba2 F17 2.967802 1_555
Ba2 F46 2.967802 1_455
Ba2 F24 3.081097 1_555
Ba3 F28 2.671867 1_555
Ba3 F14 2.745117 1_455
Ba3 F11 2.745117 1_555
Ba3 F39 2.767656 1_455
Ba3 F42 2.767656 1_555
Ba3 F33 2.834341 1_555
Ba3 F15 2.896144 1_455
Ba3 F10 2.896144 1_555
Ba3 F16 2.967802 1_455
Ba3 F47 2.967802 1_555
Ba3 F25 3.081097 1_555
Ba4 F31 2.603101 1_555
Ba4 F35 2.682242 1_555
Ba4 F47 2.750889 1_555
Ba4 F16 2.750889 1_555
Ba4 F42 2.780404 1_555
Ba4 F39 2.780404 1_555
Ba4 F12 2.899983 1_555
Ba4 F9 2.899983 1_555
Ba4 F6 2.950323 1_555
Ba4 F3 2.950323 1_555
Ba5 F30 2.603101 1_555
Ba5 F34 2.682242 1_555
Ba5 F17 2.750889 1_555
Ba5 F46 2.750889 1_555
Ba5 F43 2.780404 1_555
Ba5 F38 2.780404 1_555
Ba5 F13 2.899983 1_555
Ba5 F8 2.899983 1_555
Ba5 F7 2.950323 1_555
Ba5 F2 2.950323 1_555
Ba6 F29 2.603101 1_555
Ba6 F33 2.682242 1_555
Ba6 F19 2.750889 1_555
Ba6 F45 2.750889 1_455
Ba6 F40 2.780404 1_555
Ba6 F37 2.780404 1_455
Ba6 F11 2.899983 1_555
Ba6 F14 2.899983 1_455
Ba6 F4 2.950323 1_445
Ba6 F1 2.950323 1_545
Ba7 F28 2.603101 1_555
Ba7 F32 2.682242 1_555
Ba7 F44 2.750889 1_455
Ba7 F18 2.750889 1_555
Ba7 F41 2.780404 1_555
Ba7 F36 2.780404 1_455
Ba7 F15 2.899983 1_455
Ba7 F10 2.899983 1_555
Ba7 F5 2.950323 1_465
Ba7 F0 2.950323 1_565
Ba8 F17 2.718291 1_555
Ba8 F47 2.718291 1_545
Ba8 F40 2.785608 1_555
Ba8 F41 2.785608 1_545
Ba8 F35 2.788949 1_545
Ba8 F34 2.788949 1_555
Ba8 F29 2.794306 1_555
Ba8 F28 2.794306 1_545
Ba8 F0 2.811616 1_555
Ba8 F1 2.811616 1_545
Ba9 F18 2.718291 1_554
Ba9 F19 2.718291 1_555
Ba9 F43 2.785608 1_554
Ba9 F42 2.785608 1_555
Ba9 F32 2.788949 1_554
Ba9 F33 2.788949 1_555
Ba9 F30 2.794306 1_554
Ba9 F31 2.794306 1_555
Ba9 F2 2.811616 1_554
Ba9 F3 2.811616 1_555
Ba10 F46 2.718291 1_555
Ba10 F16 2.718291 1_545
Ba10 F36 2.785608 1_545
Ba10 F37 2.785608 1_555
Ba10 F34 2.788949 1_555
Ba10 F35 2.788949 1_545
Ba10 F29 2.794306 1_655
Ba10 F28 2.794306 1_645
Ba10 F4 2.811616 1_545
Ba10 F5 2.811616 1_555
Ba11 F44 2.718291 1_554
Ba11 F45 2.718291 1_555
Ba11 F38 2.785608 1_554
Ba11 F39 2.785608 1_555
Ba11 F32 2.788949 1_654
Ba11 F33 2.788949 1_655
Ba11 F30 2.794306 1_554
Ba11 F31 2.794306 1_555
Ba11 F6 2.811616 1_555
Ba11 F7 2.811616 1_554
Al0 F8 1.768534 1_555
Al0 F0 1.775063 1_555
Al0 F43 1.791957 1_555
Al0 F19 1.812354 1_556
Al0 F22 1.816174 1_556
Al0 F24 1.857038 1_555
Al1 F9 1.768534 1_555
Al1 F1 1.775063 1_555
Al1 F42 1.791957 1_555
Al1 F18 1.812354 1_554
Al1 F22 1.816174 1_565
Al1 F25 1.857038 1_555
Al2 F10 1.768534 1_555
Al2 F2 1.775063 1_555
Al2 F41 1.791957 1_555
Al2 F47 1.812354 1_555
Al2 F23 1.816174 1_555
Al2 F26 1.857038 1_555
Al3 F11 1.768534 1_555
Al3 F3 1.775063 1_555
Al3 F40 1.791957 1_555
Al3 F17 1.812354 1_555
Al3 F23 1.816174 1_555
Al3 F27 1.857038 1_555
Al4 F12 1.768534 1_555
Al4 F4 1.775063 1_555
Al4 F39 1.791957 1_555
Al4 F44 1.812354 1_554
Al4 F20 1.816174 1_565
Al4 F25 1.857038 1_655
Al5 F13 1.768534 1_555
Al5 F5 1.775063 1_555
Al5 F38 1.791957 1_555
Al5 F45 1.812354 1_556
Al5 F20 1.816174 1_556
Al5 F24 1.857038 1_655
Al6 F14 1.768534 1_555
Al6 F6 1.775063 1_555
Al6 F37 1.791957 1_555
Al6 F46 1.812354 1_555
Al6 F21 1.816174 1_555
Al6 F27 1.857038 1_555
Al7 F15 1.768534 1_555
Al7 F7 1.775063 1_555
Al7 F36 1.791957 1_555
Al7 F16 1.812354 1_555
Al7 F21 1.816174 1_555
Al7 F26 1.857038 1_555
