# generated using pymatgen
data_Sr5TcWN7
_symmetry_space_group_name_H-M   'P 1'
_cell_length_a   6.42256896
_cell_length_b   9.31115392
_cell_length_c   9.30641003
_cell_angle_alpha   115.10485931
_cell_angle_beta   97.95698206
_cell_angle_gamma   89.28967803
_symmetry_Int_Tables_number   1
_chemical_formula_structural   Sr5TcWN7
_chemical_formula_sum   'Sr10 Tc2 W2 N14'
_cell_volume   498.44438013
_cell_formula_units_Z   2
loop_
 _symmetry_equiv_pos_site_id
 _symmetry_equiv_pos_as_xyz
  1  'x, y, z'
loop_
 _atom_site_type_symbol
 _atom_site_label
 _atom_site_symmetry_multiplicity
 _atom_site_fract_x
 _atom_site_fract_y
 _atom_site_fract_z
 _atom_site_occupancy
  Sr  Sr0  1  0.85340010  0.59464111  0.32759696  1
  Sr  Sr1  1  0.26894080  0.98752949  0.56470979  1
  Sr  Sr2  1  0.70021638  0.41007031  0.84971759  1
  Sr  Sr3  1  0.29978362  0.58992969  0.15028241  1
  Sr  Sr4  1  0.39456590  0.78983164  0.91261173  1
  Sr  Sr5  1  0.60543410  0.21016836  0.08738827  1
  Sr  Sr6  1  0.14659990  0.40535889  0.67240304  1
  Sr  Sr7  1  0.89006574  0.85185471  0.75903598  1
  Sr  Sr8  1  0.10993426  0.14814529  0.24096402  1
  Sr  Sr9  1  0.73105920  0.01247051  0.43529021  1
  Tc  Tc0  1  0.57718315  0.35950439  0.47571722  1
  Tc  Tc1  1  0.42281685  0.64049561  0.52428278  1
  W  W0  1  0.12080968  0.21762773  0.91774701  1
  W  W1  1  0.87919032  0.78237227  0.08225299  1
  N  N0  1  0.52293602  0.54599002  0.66947961  1
  N  N1  1  0.47706398  0.45400998  0.33052039  1
  N  N2  1  0.16294770  0.71299981  0.56792281  1
  N  N3  1  0.83705230  0.28700019  0.43207719  1
  N  N4  1  0.41823868  0.19657590  0.47750004  1
  N  N5  1  0.58176132  0.80342410  0.52249996  1
  N  N6  1  0.94811368  0.13669548  0.71708937  1
  N  N7  1  0.05188632  0.86330452  0.28291063  1
  N  N8  1  0.23344252  0.05362957  0.96477609  1
  N  N9  1  0.76655748  0.94637043  0.03522391  1
  N  N10  1  0.35192467  0.33016741  0.90428815  1
  N  N11  1  0.96819651  0.34935047  0.08102182  1
  N  N12  1  0.03180349  0.65064953  0.91897818  1
  N  N13  1  0.64807533  0.66983259  0.09571185  1
loop_
_geom_bond_atom_site_label_1
_geom_bond_atom_site_label_2
_geom_bond_distance
_geom_bond_site_symmetry_2
N0 Tc1 1.941157 1_555
N0 Tc0 1.972339 1_555
N0 Sr2 2.635996 1_555
N0 Sr4 2.658048 1_555
N0 Sr6 2.772072 1_555
N1 Tc0 1.941157 1_555
N1 Tc1 1.972339 1_555
N1 Sr3 2.635996 1_555
N1 Sr5 2.658048 1_555
N1 Sr0 2.772072 1_555
N2 Tc1 1.825768 1_555
N2 Sr7 2.600405 1_455
N2 Sr0 2.626978 1_455
N2 Sr1 2.666843 1_555
N2 Sr4 3.126135 1_555
N3 Tc0 1.825768 1_555
N3 Sr8 2.600405 1_655
N3 Sr6 2.626978 1_655
N3 Sr9 2.666843 1_555
N3 Sr5 3.126135 1_555
N4 Tc0 1.846149 1_555
N4 Sr9 2.586724 1_555
N4 Sr8 2.634945 1_555
N4 Sr1 2.639910 1_545
N4 Sr6 2.812974 1_555
N5 Tc1 1.846149 1_555
N5 Sr1 2.586724 1_555
N5 Sr7 2.634945 1_555
N5 Sr9 2.639910 1_565
N5 Sr0 2.812974 1_555
N6 W0 1.881080 1_655
N6 Sr9 2.571527 1_555
N6 Sr1 2.693067 1_645
N6 Sr7 2.875566 1_545
N6 Sr2 2.883612 1_555
N6 Sr6 3.027291 1_655
N7 W1 1.881080 1_455
N7 Sr1 2.571527 1_555
N7 Sr9 2.693067 1_465
N7 Sr8 2.875566 1_565
N7 Sr3 2.883612 1_555
N7 Sr0 3.027291 1_455
N8 W0 1.870478 1_555
N8 Sr4 2.530612 1_545
N8 Sr8 2.576431 1_556
N8 Sr5 2.656087 1_556
N8 Sr7 2.817912 1_445
N9 W1 1.870478 1_555
N9 Sr5 2.530612 1_565
N9 Sr7 2.576431 1_554
N9 Sr4 2.656087 1_554
N9 Sr8 2.817912 1_665
N10 W0 1.875751 1_555
N10 Sr2 2.547878 1_555
N10 Sr3 2.587817 1_556
N10 Sr6 2.712468 1_555
N10 Sr5 2.757787 1_556
N11 W0 1.890774 1_654
N11 Sr0 2.646721 1_555
N11 Sr5 2.699908 1_555
N11 Sr2 2.810425 1_554
N11 Sr3 2.912351 1_655
N11 Sr8 2.915983 1_655
N12 W1 1.890774 1_456
N12 Sr6 2.646721 1_555
N12 Sr4 2.699908 1_555
N12 Sr3 2.810425 1_556
N12 Sr2 2.912351 1_455
N12 Sr7 2.915983 1_455
N13 W1 1.875751 1_555
N13 Sr3 2.547878 1_555
N13 Sr2 2.587817 1_554
N13 Sr0 2.712468 1_555
N13 Sr4 2.757787 1_554
