# generated using pymatgen
data_Lu2Si3PbO10
_symmetry_space_group_name_H-M   'P 1'
_cell_length_a   11.98511758
_cell_length_b   5.34742782
_cell_length_c   6.74471393
_cell_angle_alpha   72.34622584
_cell_angle_beta   90.00000000
_cell_angle_gamma   90.00000000
_symmetry_Int_Tables_number   1
_chemical_formula_structural   Lu2Si3PbO10
_chemical_formula_sum   'Lu4 Si6 Pb2 O20'
_cell_volume   411.90876841
_cell_formula_units_Z   2
loop_
 _symmetry_equiv_pos_site_id
 _symmetry_equiv_pos_as_xyz
  1  'x, y, z'
loop_
 _atom_site_type_symbol
 _atom_site_label
 _atom_site_symmetry_multiplicity
 _atom_site_fract_x
 _atom_site_fract_y
 _atom_site_fract_z
 _atom_site_occupancy
  Lu  Lu0  1  0.09998412  0.83947471  0.68047381  1
  Lu  Lu1  1  0.59998412  0.16052529  0.31952619  1
  Lu  Lu2  1  0.90001588  0.16052529  0.31952619  1
  Lu  Lu3  1  0.40001588  0.83947471  0.68047381  1
  Si  Si0  1  0.25000000  0.42585242  0.48337245  1
  Si  Si1  1  0.75000000  0.57414758  0.51662755  1
  Si  Si2  1  0.05697583  0.69829965  0.21203755  1
  Si  Si3  1  0.55697583  0.30170035  0.78796245  1
  Si  Si4  1  0.94302417  0.30170035  0.78796245  1
  Si  Si5  1  0.44302417  0.69829965  0.21203755  1
  Pb  Pb0  1  0.25000000  0.19805800  0.99206418  1
  Pb  Pb1  1  0.75000000  0.80194200  0.00793582  1
  O  O0  1  0.25000000  0.65142805  0.59835135  1
  O  O1  1  0.75000000  0.34857195  0.40164865  1
  O  O2  1  0.25000000  0.12984547  0.64895547  1
  O  O3  1  0.75000000  0.87015453  0.35104453  1
  O  O4  1  0.13968841  0.45249167  0.33867562  1
  O  O5  1  0.63968841  0.54750833  0.66132438  1
  O  O6  1  0.86031159  0.54750833  0.66132438  1
  O  O7  1  0.36031159  0.45249167  0.33867562  1
  O  O8  1  0.94063987  0.56197494  0.18572188  1
  O  O9  1  0.44063987  0.43802506  0.81427812  1
  O  O10  1  0.05936013  0.43802506  0.81427812  1
  O  O11  1  0.55936013  0.56197494  0.18572188  1
  O  O12  1  0.11903979  0.85483088  0.99597175  1
  O  O13  1  0.61903979  0.14516912  0.00402825  1
  O  O14  1  0.88096021  0.14516912  0.00402825  1
  O  O15  1  0.38096021  0.85483088  0.99597175  1
  O  O16  1  0.04304727  0.89264004  0.35719942  1
  O  O17  1  0.54304727  0.10735996  0.64280058  1
  O  O18  1  0.95695273  0.10735996  0.64280058  1
  O  O19  1  0.45695273  0.89264004  0.35719942  1
loop_
_geom_bond_atom_site_label_1
_geom_bond_atom_site_label_2
_geom_bond_distance
_geom_bond_site_symmetry_2
Lu0 O10 2.117751 1_555
Lu0 O12 2.166340 1_555
Lu0 O18 2.198747 1_465
Lu0 O0 2.210980 1_555
Lu0 O16 2.219150 1_555
Lu0 O2 2.342782 1_565
Lu1 O11 2.117751 1_555
Lu1 O13 2.166340 1_555
Lu1 O19 2.198747 1_545
Lu1 O1 2.210980 1_555
Lu1 O17 2.219150 1_555
Lu1 O3 2.342782 1_545
Lu2 O8 2.117751 1_555
Lu2 O14 2.166340 1_555
Lu2 O16 2.198747 1_645
Lu2 O1 2.210980 1_555
Lu2 O18 2.219150 1_555
Lu2 O3 2.342782 1_545
Lu3 O9 2.117751 1_555
Lu3 O15 2.166340 1_555
Lu3 O17 2.198747 1_565
Lu3 O0 2.210980 1_555
Lu3 O19 2.219150 1_555
Lu3 O2 2.342782 1_565
O0 Si0 1.619819 1_555
O1 Si1 1.619819 1_555
O2 Si0 1.637240 1_555
O2 Pb0 2.449575 1_555
O3 Si1 1.637240 1_555
O3 Pb1 2.449575 1_555
O4 Si0 1.623690 1_555
O4 Si2 1.661043 1_555
O5 Si1 1.623690 1_555
O5 Si3 1.661043 1_555
O6 Si1 1.623690 1_555
O6 Si4 1.661043 1_555
O7 Si0 1.623690 1_555
O7 Si5 1.661043 1_555
O8 Si2 1.607941 1_655
O8 Pb1 2.715092 1_555
O9 Si3 1.607941 1_555
O9 Pb0 2.715092 1_555
O10 Si4 1.607941 1_455
O10 Pb0 2.715092 1_555
O11 Si5 1.607941 1_555
O11 Pb1 2.715092 1_555
O12 Si2 1.624134 1_556
O12 Pb0 2.409055 1_565
O13 Si3 1.624134 1_554
O13 Pb1 2.409055 1_545
O14 Si4 1.624134 1_554
O14 Pb1 2.409055 1_545
O15 Si5 1.624134 1_556
O15 Pb0 2.409055 1_565
O16 Si2 1.638159 1_555
O17 Si3 1.638159 1_555
O18 Si4 1.638159 1_555
O19 Si5 1.638159 1_555
