# generated using pymatgen
data_Ca2ZnGaNi4
_symmetry_space_group_name_H-M   'P 1'
_cell_length_a   5.19593875
_cell_length_b   5.19593808
_cell_length_c   15.69211043
_cell_angle_alpha   90.00000000
_cell_angle_beta   90.00000000
_cell_angle_gamma   119.99999802
_symmetry_Int_Tables_number   1
_chemical_formula_structural   Ca2ZnGaNi4
_chemical_formula_sum   'Ca6 Zn3 Ga3 Ni12'
_cell_volume   366.89347330
_cell_formula_units_Z   3
loop_
 _symmetry_equiv_pos_site_id
 _symmetry_equiv_pos_as_xyz
  1  'x, y, z'
loop_
 _atom_site_type_symbol
 _atom_site_label
 _atom_site_symmetry_multiplicity
 _atom_site_fract_x
 _atom_site_fract_y
 _atom_site_fract_z
 _atom_site_occupancy
  Ca  Ca0  1  0.33333300  0.66666700  0.54262744  1
  Ca  Ca1  1  0.66666700  0.33333300  0.45771142  1
  Ca  Ca2  1  0.66666700  0.33333300  0.04228858  1
  Ca  Ca3  1  0.33333300  0.66666700  0.95737256  1
  Ca  Ca4  1  0.33333300  0.66666700  0.75000000  1
  Ca  Ca5  1  0.66666700  0.33333300  0.25000000  1
  Zn  Zn0  1  0.00000000  0.00000000  0.25000000  1
  Zn  Zn1  1  0.00000000  0.00000000  0.75000000  1
  Zn  Zn2  1  0.33333300  0.66666700  0.25000000  1
  Ga  Ga0  1  0.66666700  0.33333300  0.75000000  1
  Ga  Ga1  1  0.00000000  0.00000000  0.99938763  1
  Ga  Ga2  1  0.00000000  0.00000000  0.50061237  1
  Ni  Ni0  1  0.16855590  0.33710981  0.12594835  1
  Ni  Ni1  1  0.83183580  0.66367260  0.87286086  1
  Ni  Ni2  1  0.66289019  0.83144410  0.12594835  1
  Ni  Ni3  1  0.83183580  0.66367260  0.62713914  1
  Ni  Ni4  1  0.33632740  0.16816420  0.87286086  1
  Ni  Ni5  1  0.16855590  0.33710981  0.37405165  1
  Ni  Ni6  1  0.16855590  0.83144410  0.12594835  1
  Ni  Ni7  1  0.33632740  0.16816420  0.62713914  1
  Ni  Ni8  1  0.83183580  0.16816420  0.87286086  1
  Ni  Ni9  1  0.66289019  0.83144410  0.37405165  1
  Ni  Ni10  1  0.83183580  0.16816420  0.62713914  1
  Ni  Ni11  1  0.16855590  0.83144410  0.37405165  1
loop_
_geom_bond_atom_site_label_1
_geom_bond_atom_site_label_2
_geom_bond_distance
_geom_bond_site_symmetry_2
Ca0 Ni7 2.916906 1_565
Ca0 Ni7 2.916906 1_555
Ca0 Ni10 2.916907 1_565
Ca0 Ni10 2.916907 1_455
Ca0 Ni3 2.916907 1_555
Ca0 Ni3 2.916907 1_455
Ca0 Ni11 3.032615 1_555
Ca0 Ni5 3.032622 1_555
Ca0 Ni9 3.032622 1_555
Ca0 Ga2 3.071469 1_565
Ca0 Ga2 3.071474 1_555
Ca0 Ga2 3.071474 1_665
Ca0 Ca4 3.254113 1_555
Ca1 Ni9 2.910869 1_555
Ca1 Ni5 2.910869 1_555
Ca1 Ni11 2.910872 1_545
Ca1 Ni11 2.910872 1_655
Ca1 Ni9 2.910874 1_545
Ca1 Ni5 2.910874 1_655
Ca1 Ni10 3.046002 1_555
Ca1 Ni3 3.046006 1_555
Ca1 Ni7 3.046006 1_555
Ca1 Ga2 3.074483 1_655
Ca1 Ga2 3.074488 1_665
Ca1 Ga2 3.074488 1_555
Ca1 Ca5 3.259431 1_555
Ca2 Ni2 2.910869 1_555
Ca2 Ni0 2.910869 1_555
Ca2 Ni6 2.910872 1_545
Ca2 Ni6 2.910872 1_655
Ca2 Ni2 2.910874 1_545
Ca2 Ni0 2.910874 1_655
Ca2 Ni8 3.046002 1_554
Ca2 Ni1 3.046006 1_554
Ca2 Ni4 3.046006 1_554
Ca2 Ga1 3.074483 1_654
Ca2 Ga1 3.074488 1_664
Ca2 Ga1 3.074488 1_554
Ca2 Ca5 3.259431 1_555
Ca3 Ni4 2.916906 1_565
Ca3 Ni4 2.916906 1_555
Ca3 Ni8 2.916907 1_565
Ca3 Ni8 2.916907 1_455
Ca3 Ni1 2.916907 1_555
Ca3 Ni1 2.916907 1_455
Ca3 Ni6 3.032615 1_556
Ca3 Ni0 3.032622 1_556
Ca3 Ni2 3.032622 1_556
Ca3 Ga1 3.071469 1_565
Ca3 Ga1 3.071474 1_555
Ca3 Ga1 3.071474 1_665
Ca3 Ca4 3.254113 1_555
Ca4 Ga0 2.999873 1_565
Ca4 Zn1 2.999873 1_565
Ca4 Ga0 2.999874 1_455
Ca4 Zn1 2.999878 1_555
Ca4 Zn1 2.999878 1_665
Ca4 Ga0 2.999882 1_555
Ca4 Ni4 3.235213 1_565
Ca4 Ni7 3.235213 1_565
Ca4 Ni4 3.235213 1_555
Ca4 Ni7 3.235213 1_555
Ca4 Ni8 3.235213 1_565
Ca4 Ni10 3.235213 1_565
Ca4 Ni8 3.235213 1_455
Ca4 Ni10 3.235213 1_455
Ca4 Ni1 3.235213 1_555
Ca4 Ni3 3.235213 1_555
Ca4 Ni1 3.235213 1_455
Ca4 Ni3 3.235213 1_455
Ca5 Zn2 2.999873 1_545
Ca5 Zn0 2.999873 1_655
Ca5 Zn2 2.999874 1_655
Ca5 Zn0 2.999878 1_665
Ca5 Zn0 2.999878 1_555
Ca5 Zn2 2.999882 1_555
Ca5 Ni9 3.246397 1_555
Ca5 Ni2 3.246397 1_555
Ca5 Ni5 3.246398 1_555
Ca5 Ni0 3.246398 1_555
Ca5 Ni11 3.246400 1_545
Ca5 Ni6 3.246400 1_545
Ca5 Ni11 3.246400 1_655
Ca5 Ni6 3.246400 1_655
Ca5 Ni9 3.246401 1_545
Ca5 Ni2 3.246401 1_545
Ca5 Ni5 3.246402 1_655
Ca5 Ni0 3.246402 1_655
Ga0 Ni8 2.434447 1_555
Ga0 Ni10 2.434447 1_555
Ga0 Ni1 2.434453 1_555
Ga0 Ni3 2.434453 1_555
Ga0 Ni4 2.434453 1_555
Ga0 Ni7 2.434453 1_555
Ga1 Ni1 2.496500 1_445
Ga1 Ni4 2.496500 1_555
Ga1 Ni8 2.496503 1_455
Ga1 Ni0 2.499059 1_556
Ga1 Ni2 2.499059 1_446
Ga1 Ni6 2.499065 1_546
Ga2 Ni3 2.496500 1_445
Ga2 Ni7 2.496500 1_555
Ga2 Ni10 2.496503 1_455
Ga2 Ni5 2.499059 1_555
Ga2 Ni9 2.499059 1_445
Ga2 Ni11 2.499065 1_545
Ni0 Zn2 2.447142 1_555
Ni0 Zn0 2.467885 1_555
Ni0 Ni6 2.568530 1_555
Ni0 Ni2 2.568531 1_555
Ni0 Ni6 2.627408 1_545
Ni0 Ni2 2.627408 1_445
Ni1 Zn1 2.450998 1_665
Ni1 Ni8 2.574631 1_555
Ni1 Ni4 2.574631 1_555
Ni1 Ni8 2.621307 1_565
Ni1 Ni4 2.621307 1_665
Ni2 Zn2 2.447143 1_555
Ni2 Zn0 2.467885 1_665
Ni2 Ni6 2.568531 1_555
Ni2 Ni6 2.627408 1_655
Ni3 Zn1 2.450998 1_665
Ni3 Ni7 2.574631 1_555
Ni3 Ni7 2.621307 1_665
Ni4 Zn1 2.450998 1_555
Ni4 Ni8 2.574631 1_555
Ni4 Ni8 2.621307 1_455
Ni5 Zn2 2.447142 1_555
Ni5 Zn0 2.467885 1_555
Ni5 Ni9 2.568531 1_555
Ni5 Ni9 2.627408 1_445
Ni6 Zn2 2.447134 1_555
Ni6 Zn0 2.467891 1_565
Ni7 Zn1 2.450998 1_555
Ni8 Zn1 2.451000 1_655
Ni9 Zn2 2.447143 1_555
Ni9 Zn0 2.467885 1_665
Ni10 Zn1 2.451000 1_655
Ni10 Ni3 2.574631 1_555
Ni10 Ni7 2.574631 1_555
Ni10 Ni3 2.621307 1_545
Ni10 Ni7 2.621307 1_655
Ni11 Zn2 2.447134 1_555
Ni11 Zn0 2.467891 1_565
Ni11 Ni5 2.568530 1_555
Ni11 Ni9 2.568531 1_555
Ni11 Ni5 2.627408 1_565
Ni11 Ni9 2.627408 1_455
