# generated using pymatgen
data_SrLu6PtI12
_symmetry_space_group_name_H-M   'P 1'
_cell_length_a   9.61529780
_cell_length_b   9.61529732
_cell_length_c   9.61529728
_cell_angle_alpha   106.25283038
_cell_angle_beta   106.25283423
_cell_angle_gamma   106.25283379
_symmetry_Int_Tables_number   1
_chemical_formula_structural   SrLu6PtI12
_chemical_formula_sum   'Sr1 Lu6 Pt1 I12'
_cell_volume   754.92612302
_cell_formula_units_Z   1
loop_
 _symmetry_equiv_pos_site_id
 _symmetry_equiv_pos_as_xyz
  1  'x, y, z'
loop_
 _atom_site_type_symbol
 _atom_site_label
 _atom_site_symmetry_multiplicity
 _atom_site_fract_x
 _atom_site_fract_y
 _atom_site_fract_z
 _atom_site_occupancy
  Sr  Sr0  1  0.00000000  0.00000000  0.00000000  1
  Lu  Lu0  1  0.40677071  0.47860182  0.20584301  1
  Lu  Lu1  1  0.20584301  0.40677071  0.47860182  1
  Lu  Lu2  1  0.47860182  0.20584301  0.40677071  1
  Lu  Lu3  1  0.59322929  0.52139818  0.79415699  1
  Lu  Lu4  1  0.79415699  0.59322929  0.52139818  1
  Lu  Lu5  1  0.52139818  0.79415699  0.59322929  1
  Pt  Pt0  1  0.50000000  0.50000000  0.50000000  1
  I  I0  1  0.05177588  0.36857351  0.13121551  1
  I  I1  1  0.13121551  0.05177588  0.36857351  1
  I  I2  1  0.36857351  0.13121551  0.05177588  1
  I  I3  1  0.94822412  0.63142649  0.86878449  1
  I  I4  1  0.86878449  0.94822412  0.63142649  1
  I  I5  1  0.63142649  0.86878449  0.94822412  1
  I  I6  1  0.72145453  0.57256560  0.17232627  1
  I  I7  1  0.17232627  0.72145453  0.57256560  1
  I  I8  1  0.57256560  0.17232627  0.72145453  1
  I  I9  1  0.27854547  0.42743440  0.82767373  1
  I  I10  1  0.82767373  0.27854547  0.42743440  1
  I  I11  1  0.42743440  0.82767373  0.27854547  1
loop_
_geom_bond_atom_site_label_1
_geom_bond_atom_site_label_2
_geom_bond_distance
_geom_bond_site_symmetry_2
Lu0 Pt0 2.645294 1_555
Lu1 Pt0 2.645295 1_555
Lu2 Pt0 2.645295 1_555
Lu3 Pt0 2.645294 1_555
Lu4 Pt0 2.645295 1_555
Lu5 Pt0 2.645295 1_555
I0 Lu0 3.077012 1_555
I0 Lu1 3.118574 1_555
I0 Sr0 3.249186 1_555
I1 Lu1 3.077012 1_555
I1 Lu2 3.118574 1_555
I1 Sr0 3.249186 1_555
I2 Lu2 3.077012 1_555
I2 Lu0 3.118574 1_555
I2 Sr0 3.249186 1_555
I3 Lu3 3.077012 1_555
I3 Lu4 3.118574 1_555
I3 Sr0 3.249186 1_666
I4 Lu4 3.077012 1_555
I4 Lu5 3.118574 1_555
I4 Sr0 3.249186 1_666
I5 Lu5 3.077012 1_555
I5 Lu3 3.118574 1_555
I5 Sr0 3.249186 1_666
I6 Lu0 3.042051 1_555
I6 Lu4 3.166919 1_555
I6 Lu3 3.336733 1_554
I7 Lu1 3.042051 1_555
I7 Lu5 3.166920 1_555
I7 Lu4 3.336733 1_455
I8 Lu2 3.042051 1_555
I8 Lu3 3.166919 1_555
I8 Lu5 3.336733 1_545
I9 Lu3 3.042051 1_555
I9 Lu1 3.166919 1_555
I9 Lu0 3.336733 1_556
I10 Lu4 3.042051 1_555
I10 Lu2 3.166920 1_555
I10 Lu1 3.336733 1_655
I11 Lu5 3.042051 1_555
I11 Lu0 3.166919 1_555
I11 Lu2 3.336733 1_565
