# generated using pymatgen
data_MgTa2N3
_symmetry_space_group_name_H-M   'P 1'
_cell_length_a   5.21319805
_cell_length_b   5.21319792
_cell_length_c   10.45844829
_cell_angle_alpha   89.99999718
_cell_angle_beta   90.00000441
_cell_angle_gamma   119.99966921
_symmetry_Int_Tables_number   1
_chemical_formula_structural   MgTa2N3
_chemical_formula_sum   'Mg4 Ta8 N12'
_cell_volume   246.15449462
_cell_formula_units_Z   4
loop_
 _symmetry_equiv_pos_site_id
 _symmetry_equiv_pos_as_xyz
  1  'x, y, z'
loop_
 _atom_site_type_symbol
 _atom_site_label
 _atom_site_symmetry_multiplicity
 _atom_site_fract_x
 _atom_site_fract_y
 _atom_site_fract_z
 _atom_site_occupancy
  Mg  Mg0  1  0.33333354  0.66666646  0.00000104  1
  Mg  Mg1  1  0.33333353  0.66666648  0.49999886  1
  Mg  Mg2  1  0.66666636  0.33333347  0.49999888  1
  Mg  Mg3  1  0.66666641  0.33333357  0.00000109  1
  Ta  Ta0  1  0.00000018  0.33605858  0.25002097  1
  Ta  Ta1  1  0.66394134  -0.00000011  0.74997924  1
  Ta  Ta2  1  0.33605843  0.33605845  0.74997924  1
  Ta  Ta3  1  0.00000004  0.00000003  0.49999997  1
  Ta  Ta4  1  0.00000001  0.00000002  0.00000072  1
  Ta  Ta5  1  0.66394166  0.66394162  0.25002098  1
  Ta  Ta6  1  0.33605860  0.00000012  0.25002095  1
  Ta  Ta7  1  -0.00000011  0.66394132  0.74997927  1
  N  N0  1  0.67101829  0.67101830  0.61957658  1
  N  N1  1  0.67102103  0.67102106  0.88040730  1
  N  N2  1  0.32897992  0.32897994  0.11959369  1
  N  N3  1  0.32898221  0.32898219  0.38042268  1
  N  N4  1  0.32897931  -0.00000010  0.88040736  1
  N  N5  1  0.32898200  -0.00000017  0.61957656  1
  N  N6  1  0.00000016  0.67101746  0.38042275  1
  N  N7  1  0.00000012  0.67101972  0.11959362  1
  N  N8  1  0.67101972  0.00000013  0.11959362  1
  N  N9  1  0.67101750  0.00000010  0.38042275  1
  N  N10  1  -0.00000011  0.32897935  0.88040735  1
  N  N11  1  -0.00000014  0.32898200  0.61957654  1
loop_
_geom_bond_atom_site_label_1
_geom_bond_atom_site_label_2
_geom_bond_distance
_geom_bond_site_symmetry_2
Mg0 N2 2.150360 1_555
Mg0 N7 2.150361 1_555
Mg0 N8 2.150367 1_565
Mg0 N1 2.150369 1_554
Mg0 N4 2.150369 1_564
Mg0 N10 2.150376 1_554
Mg1 N3 2.150255 1_555
Mg1 N6 2.150255 1_555
Mg1 N9 2.150262 1_565
Mg1 N0 2.150265 1_555
Mg1 N5 2.150266 1_565
Mg1 N11 2.150273 1_555
Mg2 N3 2.150254 1_555
Mg2 N9 2.150256 1_555
Mg2 N6 2.150263 1_655
Mg2 N0 2.150265 1_555
Mg2 N11 2.150266 1_655
Mg2 N5 2.150273 1_555
Mg3 N2 2.150359 1_555
Mg3 N8 2.150360 1_555
Mg3 N7 2.150367 1_655
Mg3 N1 2.150369 1_554
Mg3 N10 2.150370 1_654
Mg3 N4 2.150376 1_554
N0 Ta3 2.122588 1_665
N0 Ta1 2.205900 1_565
N0 Ta7 2.205900 1_655
N0 Ta2 2.215686 1_555
N1 Ta4 2.122680 1_666
N1 Ta1 2.206059 1_565
N1 Ta7 2.206059 1_655
N1 Ta2 2.215861 1_555
N2 Ta4 2.122681 1_555
N2 Ta0 2.206055 1_555
N2 Ta6 2.206055 1_555
N2 Ta5 2.215852 1_555
N3 Ta3 2.122594 1_555
N3 Ta0 2.205894 1_555
N3 Ta6 2.205895 1_555
N3 Ta5 2.215678 1_555
N4 Ta4 2.122674 1_556
N4 Ta2 2.206060 1_555
N4 Ta7 2.206067 1_545
N4 Ta1 2.215852 1_555
N5 Ta3 2.122582 1_555
N5 Ta2 2.205902 1_555
N5 Ta7 2.205908 1_545
N5 Ta1 2.215677 1_555
N6 Ta3 2.122589 1_565
N6 Ta5 2.205896 1_455
N6 Ta6 2.205903 1_565
N6 Ta0 2.215669 1_555
N7 Ta4 2.122676 1_565
N7 Ta5 2.206057 1_455
N7 Ta6 2.206064 1_565
N7 Ta0 2.215843 1_555
N8 Ta4 2.122676 1_655
N8 Ta5 2.206057 1_545
N8 Ta0 2.206064 1_655
N8 Ta6 2.215843 1_555
N9 Ta3 2.122588 1_655
N9 Ta5 2.205896 1_545
N9 Ta0 2.205903 1_655
N9 Ta6 2.215669 1_555
N10 Ta4 2.122674 1_556
N10 Ta2 2.206061 1_555
N10 Ta1 2.206067 1_455
N10 Ta7 2.215851 1_555
N11 Ta3 2.122582 1_555
N11 Ta2 2.205901 1_555
N11 Ta1 2.205908 1_455
N11 Ta7 2.215677 1_555
