# generated using pymatgen
data_Sr2GaIrPt
_symmetry_space_group_name_H-M   'P 1'
_cell_length_a   5.86902644
_cell_length_b   5.86902496
_cell_length_c   7.88764710
_cell_angle_alpha   79.90508713
_cell_angle_beta   79.90509127
_cell_angle_gamma   61.74579608
_symmetry_Int_Tables_number   1
_chemical_formula_structural   Sr2GaIrPt
_chemical_formula_sum   'Sr4 Ga2 Ir2 Pt2'
_cell_volume   234.27951080
_cell_formula_units_Z   2
loop_
 _symmetry_equiv_pos_site_id
 _symmetry_equiv_pos_as_xyz
  1  'x, y, z'
loop_
 _atom_site_type_symbol
 _atom_site_label
 _atom_site_symmetry_multiplicity
 _atom_site_fract_x
 _atom_site_fract_y
 _atom_site_fract_z
 _atom_site_occupancy
  Sr  Sr0  1  0.78510094  0.51196800  0.35620487  1
  Sr  Sr1  1  0.48803200  0.21489906  0.14379513  1
  Sr  Sr2  1  0.21755850  0.48926881  0.64260110  1
  Sr  Sr3  1  0.51073119  0.78244150  0.85739890  1
  Ga  Ga0  1  0.09319305  0.90680695  0.25000000  1
  Ga  Ga1  1  0.92389910  0.07610090  0.75000000  1
  Ir  Ir0  1  0.00612562  0.73152419  0.00994228  1
  Ir  Ir1  1  0.26847581  0.99387438  0.49005772  1
  Pt  Pt0  1  0.99281068  0.28592789  0.99194675  1
  Pt  Pt1  1  0.71407211  0.00718932  0.50805325  1
loop_
_geom_bond_atom_site_label_1
_geom_bond_atom_site_label_2
_geom_bond_distance
_geom_bond_site_symmetry_2
Sr0 Sr2 3.625891 1_655
Sr0 Sr2 3.727288 1_555
Sr1 Sr3 3.625891 1_544
Sr1 Sr3 3.727287 1_554
Sr2 Sr3 3.693042 1_555
Ga0 Ir0 2.534657 1_555
Ga0 Ir1 2.534657 1_555
Ga0 Pt0 2.651907 1_464
Ga0 Pt1 2.651908 1_465
Ga0 Sr2 3.544874 1_555
Ga0 Sr3 3.544874 1_554
Ga1 Ir0 2.548698 1_646
Ga1 Ir1 2.548699 1_645
Ga1 Pt0 2.624512 1_555
Ga1 Pt1 2.624512 1_555
Ga1 Sr2 3.231270 1_645
Ga1 Sr3 3.231271 1_645
Ga1 Sr2 3.506144 1_655
Ga1 Sr3 3.506144 1_545
Ir0 Pt0 2.681999 1_454
Ir0 Sr3 3.125771 1_554
Ir0 Sr0 3.147925 1_455
Ir0 Sr1 3.180093 1_555
Ir0 Sr1 3.188459 1_465
Ir0 Pt0 3.196056 1_464
Ir0 Sr3 3.204400 1_454
Ir0 Sr2 3.235733 1_554
Ir1 Pt1 2.681999 1_565
Ir1 Sr2 3.125770 1_555
Ir1 Sr1 3.147925 1_565
Ir1 Sr0 3.180093 1_555
Ir1 Sr0 3.188459 1_465
Ir1 Pt1 3.196057 1_465
Ir1 Sr2 3.204399 1_565
Ir1 Sr3 3.235733 1_555
Pt0 Sr3 3.128204 1_555
Pt0 Sr2 3.133753 1_655
Pt0 Sr1 3.155007 1_656
Pt0 Sr0 3.174616 1_556
Pt0 Sr1 3.183617 1_556
Pt0 Sr3 3.249967 1_645
Pt1 Sr2 3.128204 1_555
Pt1 Sr3 3.133753 1_545
Pt1 Sr0 3.155007 1_545
Pt1 Sr1 3.174616 1_555
Pt1 Sr0 3.183616 1_555
Pt1 Sr2 3.249967 1_645
