# generated using pymatgen
data_Ba3LiSb2H
_symmetry_space_group_name_H-M   'P 1'
_cell_length_a   4.96800610
_cell_length_b   13.49190635
_cell_length_c   13.81931090
_cell_angle_alpha   90.00000000
_cell_angle_beta   90.00000000
_cell_angle_gamma   90.00000000
_symmetry_Int_Tables_number   1
_chemical_formula_structural   Ba3LiSb2H
_chemical_formula_sum   'Ba12 Li4 Sb8 H4'
_cell_volume   926.27901672
_cell_formula_units_Z   4
loop_
 _symmetry_equiv_pos_site_id
 _symmetry_equiv_pos_as_xyz
  1  'x, y, z'
loop_
 _atom_site_type_symbol
 _atom_site_label
 _atom_site_symmetry_multiplicity
 _atom_site_fract_x
 _atom_site_fract_y
 _atom_site_fract_z
 _atom_site_occupancy
  Ba  Ba0  1  0.25000000  0.06300625  0.62329442  1
  Ba  Ba1  1  0.25000000  0.56300625  0.87670558  1
  Ba  Ba2  1  0.75000000  0.93699375  0.37670558  1
  Ba  Ba3  1  0.75000000  0.43699375  0.12329442  1
  Ba  Ba4  1  0.25000000  0.20789554  0.29503381  1
  Ba  Ba5  1  0.25000000  0.70789554  0.20496619  1
  Ba  Ba6  1  0.75000000  0.79210446  0.70496619  1
  Ba  Ba7  1  0.75000000  0.29210446  0.79503381  1
  Ba  Ba8  1  0.25000000  0.37097709  0.56197548  1
  Ba  Ba9  1  0.25000000  0.87097709  0.93802452  1
  Ba  Ba10  1  0.75000000  0.62902291  0.43802452  1
  Ba  Ba11  1  0.75000000  0.12902291  0.06197548  1
  Li  Li0  1  0.25000000  0.14097424  0.85365323  1
  Li  Li1  1  0.25000000  0.64097424  0.64634677  1
  Li  Li2  1  0.75000000  0.85902576  0.14634677  1
  Li  Li3  1  0.75000000  0.35902576  0.35365323  1
  Sb  Sb0  1  0.25000000  0.30837006  0.98740716  1
  Sb  Sb1  1  0.25000000  0.80837006  0.51259284  1
  Sb  Sb2  1  0.75000000  0.69162994  0.01259284  1
  Sb  Sb3  1  0.75000000  0.19162994  0.48740716  1
  Sb  Sb4  1  0.25000000  0.47150115  0.32289692  1
  Sb  Sb5  1  0.25000000  0.97150115  0.17710308  1
  Sb  Sb6  1  0.75000000  0.52849885  0.67710308  1
  Sb  Sb7  1  0.75000000  0.02849885  0.82289692  1
  H  H0  1  0.25000000  0.23084796  0.73277349  1
  H  H1  1  0.25000000  0.73084796  0.76722651  1
  H  H2  1  0.75000000  0.76915204  0.26722651  1
  H  H3  1  0.75000000  0.26915204  0.23277349  1
loop_
_geom_bond_atom_site_label_1
_geom_bond_atom_site_label_2
_geom_bond_distance
_geom_bond_site_symmetry_2
Ba0 H0 2.723403 1_555
Ba0 Sb3 3.564856 1_555
Ba0 Sb3 3.564856 1_455
Ba0 Sb7 3.741073 1_555
Ba0 Sb7 3.741073 1_455
Ba0 Sb1 3.760744 1_545
Ba1 H1 2.723403 1_555
Ba1 Sb2 3.564856 1_456
Ba1 Sb2 3.564856 1_556
Ba1 Sb6 3.741073 1_455
Ba1 Sb6 3.741073 1_555
Ba1 Sb0 3.760744 1_555
Ba2 H2 2.723403 1_555
Ba2 Sb1 3.564856 1_655
Ba2 Sb1 3.564856 1_555
Ba2 Sb5 3.741073 1_555
Ba2 Sb5 3.741073 1_655
Ba2 Sb3 3.760744 1_565
Ba3 H3 2.723403 1_555
Ba3 Sb0 3.564856 1_654
Ba3 Sb0 3.564856 1_554
Ba3 Sb4 3.741073 1_555
Ba3 Sb4 3.741073 1_655
Ba3 Sb2 3.760744 1_555
Ba4 H3 2.755648 1_555
Ba4 H3 2.755648 1_455
Ba4 Sb4 3.577325 1_555
Ba4 Sb5 3.581666 1_545
Ba4 Sb3 3.644980 1_455
Ba4 Sb3 3.644980 1_555
Ba5 H2 2.755648 1_555
Ba5 H2 2.755648 1_455
Ba5 Sb5 3.577325 1_555
Ba5 Sb4 3.581666 1_555
Ba5 Sb2 3.644980 1_455
Ba5 Sb2 3.644980 1_555
Ba6 H1 2.755648 1_555
Ba6 H1 2.755648 1_655
Ba6 Sb6 3.577325 1_555
Ba6 Sb7 3.581666 1_565
Ba6 Sb1 3.644980 1_655
Ba6 Sb1 3.644980 1_555
Ba7 H0 2.755648 1_555
Ba7 H0 2.755648 1_655
Ba7 Sb7 3.577325 1_555
Ba7 Sb6 3.581666 1_555
Ba7 Sb0 3.644980 1_555
Ba7 Sb0 3.644980 1_655
Ba8 H0 3.024148 1_555
Ba8 Sb4 3.571443 1_555
Ba8 Sb3 3.617635 1_455
Ba8 Sb3 3.617635 1_555
Ba8 Sb6 3.635694 1_455
Ba8 Sb6 3.635694 1_555
Ba9 H1 3.024148 1_555
Ba9 Sb5 3.571443 1_556
Ba9 Sb2 3.617635 1_456
Ba9 Sb2 3.617635 1_556
Ba9 Sb7 3.635694 1_565
Ba9 Sb7 3.635694 1_465
Ba10 H2 3.024148 1_555
Ba10 Sb6 3.571443 1_555
Ba10 Sb1 3.617635 1_655
Ba10 Sb1 3.617635 1_555
Ba10 Sb4 3.635694 1_555
Ba10 Sb4 3.635694 1_655
Ba11 H3 3.024148 1_555
Ba11 Sb7 3.571443 1_554
Ba11 Sb0 3.617635 1_654
Ba11 Sb0 3.617635 1_554
Ba11 Sb5 3.635694 1_545
Ba11 Sb5 3.635694 1_645
Li0 Sb0 2.918443 1_555
Li0 Sb7 2.941726 1_455
Li0 Sb7 2.941726 1_555
Li1 Sb1 2.918443 1_555
Li1 Sb6 2.941726 1_455
Li1 Sb6 2.941726 1_555
Li2 Sb2 2.918443 1_555
Li2 Sb5 2.941726 1_555
Li2 Sb5 2.941726 1_655
Li3 Sb3 2.918443 1_555
Li3 Sb4 2.941726 1_555
Li3 Sb4 2.941726 1_655
H0 Li0 2.064172 1_555
H1 Li1 2.064172 1_555
H2 Li2 2.064172 1_555
H3 Li3 2.064172 1_555
