# generated using pymatgen
data_Lu4As6Ir4Ru3
_symmetry_space_group_name_H-M   'P 1'
_cell_length_a   7.14314794
_cell_length_b   7.14666151
_cell_length_c   7.14666064
_cell_angle_alpha   109.40834672
_cell_angle_beta   109.51264940
_cell_angle_gamma   109.51263882
_symmetry_Int_Tables_number   1
_chemical_formula_structural   Lu4As6Ir4Ru3
_chemical_formula_sum   'Lu4 As6 Ir4 Ru3'
_cell_volume   280.78032340
_cell_formula_units_Z   1
loop_
 _symmetry_equiv_pos_site_id
 _symmetry_equiv_pos_as_xyz
  1  'x, y, z'
loop_
 _atom_site_type_symbol
 _atom_site_label
 _atom_site_symmetry_multiplicity
 _atom_site_fract_x
 _atom_site_fract_y
 _atom_site_fract_z
 _atom_site_occupancy
  Lu  Lu0  1  1.00000000  0.00018414  0.50004482  1
  Lu  Lu1  1  0.50000000  0.99994829  0.00005171  1
  Lu  Lu2  1  0.00000000  0.49995518  0.99981586  1
  Lu  Lu3  1  0.50000000  0.49994829  0.50005171  1
  As  As0  1  0.68137002  0.68453944  0.99683059  1
  As  As1  1  0.31187247  0.31530519  0.99656728  1
  As  As2  1  0.00000000  0.67954458  0.68635029  1
  As  As3  1  1.00000000  0.31364971  0.32045542  1
  As  As4  1  0.68812753  0.00343272  0.68469481  1
  As  As5  1  0.31862998  0.00316941  0.31546056  1
  Ir  Ir0  1  0.50000000  0.25051493  0.74948507  1
  Ir  Ir1  1  0.50000000  0.75051493  0.24948507  1
  Ir  Ir2  1  0.74892151  0.49941613  0.24950538  1
  Ir  Ir3  1  0.25107849  0.75049462  0.50058387  1
  Ru  Ru0  1  0.00000000  0.99976396  0.00023604  1
  Ru  Ru1  1  0.25075839  0.50018893  0.75056946  1
  Ru  Ru2  1  0.74924161  0.24943054  0.49981107  1
loop_
_geom_bond_atom_site_label_1
_geom_bond_atom_site_label_2
_geom_bond_distance
_geom_bond_site_symmetry_2
Lu0 Ru2 2.917669 1_555
Lu0 Ru1 2.917669 1_655
Lu1 Ru2 2.916244 1_565
Lu1 Ru1 2.916245 1_554
Lu2 Ru2 2.917669 1_455
Lu2 Ru1 2.917669 1_555
Lu3 Ru2 2.916244 1_555
Lu3 Ru1 2.916244 1_555
As0 Ru1 2.535733 1_555
As0 Ir1 2.562435 1_556
As0 Ir0 2.562435 1_555
As0 Ir2 2.583834 1_556
As0 Ru0 2.599475 1_656
As0 Lu3 2.948957 1_555
As0 Lu1 2.948958 1_556
As0 Lu2 2.985448 1_655
As0 Lu0 2.985448 1_566
As1 Ru1 2.538432 1_555
As1 Ir0 2.568234 1_555
As1 Ir1 2.568234 1_556
As1 Ir2 2.578849 1_556
As1 Ru0 2.602154 1_546
As1 Lu2 2.946678 1_555
As1 Lu0 2.946678 1_455
As1 Lu3 2.987311 1_556
As1 Lu1 2.987311 1_546
As2 Ru1 2.537245 1_555
As2 Ru2 2.537245 1_455
As2 Ir2 2.582007 1_455
As2 Ir3 2.582007 1_555
As2 Ru0 2.618689 1_556
As2 Lu2 2.928619 1_555
As2 Lu3 2.966730 1_455
As2 Lu1 2.966730 1_556
As2 Lu0 3.008570 1_465
As3 Ru1 2.537245 1_655
As3 Ru2 2.537245 1_555
As3 Ir2 2.582007 1_555
As3 Ir3 2.582008 1_655
As3 Ru0 2.618688 1_645
As3 Lu0 2.928619 1_555
As3 Lu3 2.966730 1_655
As3 Lu1 2.966730 1_545
As3 Lu2 3.008570 1_654
As4 Ru2 2.538432 1_555
As4 Ir1 2.568234 1_545
As4 Ir0 2.568234 1_555
As4 Ir3 2.578849 1_545
As4 Ru0 2.602153 1_646
As4 Lu0 2.946678 1_555
As4 Lu2 2.946678 1_655
As4 Lu1 2.987311 1_546
As4 Lu3 2.987312 1_545
As5 Ru2 2.535733 1_555
As5 Ir0 2.562435 1_555
As5 Ir1 2.562435 1_545
As5 Ir3 2.583834 1_545
As5 Ru0 2.599474 1_545
As5 Lu1 2.948958 1_545
As5 Lu3 2.948958 1_555
As5 Lu0 2.985448 1_455
As5 Lu2 2.985448 1_544
Ir0 Lu3 2.909869 1_555
Ir0 Lu2 2.914332 1_655
Ir0 Lu0 2.914332 1_455
Ir0 Lu1 2.923090 1_546
Ir1 Lu1 2.909869 1_555
Ir1 Lu0 2.914332 1_565
Ir1 Lu2 2.914332 1_554
Ir1 Lu3 2.923090 1_555
Ir2 Lu3 2.914547 1_555
Ir2 Lu1 2.914548 1_545
Ir2 Lu2 2.922119 1_654
Ir2 Lu0 2.922120 1_565
Ir3 Lu1 2.914547 1_556
Ir3 Lu3 2.914547 1_555
Ir3 Lu2 2.922119 1_554
Ir3 Lu0 2.922119 1_465
