# generated using pymatgen
data_Lu2B4Ir4Rh
_symmetry_space_group_name_H-M   'P 1'
_cell_length_a   7.43478517
_cell_length_b   6.30871839
_cell_length_c   5.48923485
_cell_angle_alpha   77.78370331
_cell_angle_beta   56.02961079
_cell_angle_gamma   46.40293853
_symmetry_Int_Tables_number   1
_chemical_formula_structural   Lu2B4Ir4Rh
_chemical_formula_sum   'Lu2 B4 Ir4 Rh1'
_cell_volume   148.02662416
_cell_formula_units_Z   1
loop_
 _symmetry_equiv_pos_site_id
 _symmetry_equiv_pos_as_xyz
  1  'x, y, z'
loop_
 _atom_site_type_symbol
 _atom_site_label
 _atom_site_symmetry_multiplicity
 _atom_site_fract_x
 _atom_site_fract_y
 _atom_site_fract_z
 _atom_site_occupancy
  Lu  Lu0  1  0.86179627  0.86179627  0.13820373  1
  Lu  Lu1  1  0.13820373  0.13820373  0.86179627  1
  B  B0  1  0.21237197  0.51840852  0.48256627  1
  B  B1  1  0.78762803  0.48159148  0.51743373  1
  B  B2  1  0.51840852  0.21237197  0.78665324  1
  B  B3  1  0.48159148  0.78762803  0.21334676  1
  Ir  Ir0  1  0.74961461  0.74961461  0.75038539  1
  Ir  Ir1  1  0.25038539  0.25038539  0.24961461  1
  Ir  Ir2  1  0.00000000  0.00000000  0.50000000  1
  Ir  Ir3  1  0.50000000  0.50000000  0.50000000  1
  Rh  Rh0  1  0.50000000  0.50000000  0.00000000  1
loop_
_geom_bond_atom_site_label_1
_geom_bond_atom_site_label_2
_geom_bond_distance
_geom_bond_site_symmetry_2
Lu0 Rh0 3.173788 1_565
Lu0 Rh0 3.173789 1_655
Lu1 Rh0 3.173788 1_546
Lu1 Rh0 3.173789 1_456
B0 Ir1 2.103853 1_555
B0 Ir0 2.111823 1_455
B0 Ir3 2.115917 1_555
B0 Rh0 2.249573 1_555
B0 Ir2 2.251913 1_565
B0 Lu1 2.969681 1_555
B0 Lu0 3.077046 1_456
B0 Lu0 3.094369 1_545
B1 Ir0 2.103853 1_555
B1 Ir1 2.111823 1_655
B1 Ir3 2.115917 1_555
B1 Rh0 2.249573 1_556
B1 Ir2 2.251913 1_655
B1 Lu0 2.969681 1_555
B1 Lu1 3.077046 1_654
B1 Lu1 3.094369 1_565
B2 Ir1 2.103854 1_556
B2 Ir0 2.111823 1_545
B2 Ir3 2.115917 1_555
B2 Rh0 2.249573 1_556
B2 Ir2 2.251914 1_655
B2 Lu1 2.969682 1_555
B2 Lu0 3.077046 1_545
B2 Lu0 3.094369 1_456
B3 Ir0 2.103854 1_554
B3 Ir1 2.111823 1_565
B3 Ir3 2.115917 1_555
B3 Rh0 2.249573 1_555
B3 Ir2 2.251914 1_565
B3 Lu0 2.969682 1_555
B3 Lu1 3.077046 1_565
B3 Lu1 3.094369 1_654
Ir0 Lu0 3.027262 1_555
Ir0 Lu0 3.027262 1_556
Ir0 Lu1 3.034133 1_655
Ir0 Lu1 3.034134 1_565
Ir1 Lu1 3.027262 1_555
Ir1 Lu1 3.027262 1_554
Ir1 Lu0 3.034133 1_455
Ir1 Lu0 3.034134 1_545
Ir2 Lu0 3.163691 1_446
Ir2 Lu1 3.163691 1_554
Ir2 Lu1 3.163691 1_555
Ir2 Lu0 3.163691 1_445
Ir3 Lu1 3.141308 1_565
Ir3 Lu0 3.141308 1_545
Ir3 Lu1 3.141309 1_654
Ir3 Lu0 3.141309 1_456
