# generated using pymatgen
data_Lu12Fe2TcAg2
_symmetry_space_group_name_H-M   'P 1'
_cell_length_a   8.06622674
_cell_length_b   8.06622728
_cell_length_c   8.06622682
_cell_angle_alpha   108.73947244
_cell_angle_beta   108.73947017
_cell_angle_gamma   110.94484237
_symmetry_Int_Tables_number   1
_chemical_formula_structural   Lu12Fe2TcAg2
_chemical_formula_sum   'Lu12 Fe2 Tc1 Ag2'
_cell_volume   403.80648829
_cell_formula_units_Z   1
loop_
 _symmetry_equiv_pos_site_id
 _symmetry_equiv_pos_as_xyz
  1  'x, y, z'
loop_
 _atom_site_type_symbol
 _atom_site_label
 _atom_site_symmetry_multiplicity
 _atom_site_fract_x
 _atom_site_fract_y
 _atom_site_fract_z
 _atom_site_occupancy
  Lu  Lu0  1  0.31160097  0.31160097  0.62320195  1
  Lu  Lu1  1  0.68839903  0.68839903  0.37679805  1
  Lu  Lu2  1  0.68839903  0.31160097  1.00000000  1
  Lu  Lu3  1  0.31160097  0.68839903  0.00000000  1
  Lu  Lu4  1  0.18982098  0.43535062  0.24552964  1
  Lu  Lu5  1  0.81017902  0.56464938  0.75447036  1
  Lu  Lu6  1  0.18982098  0.94429035  0.75447036  1
  Lu  Lu7  1  0.94429035  0.18982098  0.75447036  1
  Lu  Lu8  1  0.81017902  0.05570965  0.24552964  1
  Lu  Lu9  1  0.05570965  0.81017902  0.24552964  1
  Lu  Lu10  1  0.43535062  0.18982098  0.24552964  1
  Lu  Lu11  1  0.56464938  0.81017902  0.75447036  1
  Fe  Fe0  1  0.37476582  0.37476582  1.00000000  1
  Fe  Fe1  1  0.62523418  0.62523418  0.00000000  1
  Tc  Tc0  1  0.00000000  0.00000000  0.00000000  1
  Ag  Ag0  1  0.00000000  0.50000000  0.50000000  1
  Ag  Ag1  1  0.50000000  0.00000000  0.50000000  1
loop_
_geom_bond_atom_site_label_1
_geom_bond_atom_site_label_2
_geom_bond_distance
_geom_bond_site_symmetry_2
Lu4 Tc0 2.887418 1_555
Lu5 Tc0 2.887418 1_666
Lu6 Tc0 2.887418 1_566
Lu7 Tc0 2.887419 1_656
Lu8 Tc0 2.887418 1_655
Lu9 Tc0 2.887419 1_565
Lu10 Tc0 2.887418 1_555
Lu11 Tc0 2.887418 1_666
Fe0 Fe1 2.290263 1_556
Fe0 Lu2 2.753396 1_555
Fe0 Lu0 2.753396 1_555
Fe0 Lu3 2.753396 1_556
Fe0 Lu1 2.753396 1_556
Fe0 Lu4 2.860837 1_556
Fe0 Lu10 2.860837 1_556
Fe0 Lu7 2.860843 1_455
Fe0 Lu6 2.860844 1_545
Fe1 Lu3 2.753396 1_555
Fe1 Lu1 2.753396 1_555
Fe1 Lu2 2.753396 1_554
Fe1 Lu0 2.753396 1_554
Fe1 Lu5 2.860837 1_554
Fe1 Lu11 2.860837 1_554
Fe1 Lu9 2.860843 1_655
Fe1 Lu8 2.860844 1_565
Ag0 Lu6 2.954992 1_555
Ag0 Lu8 2.954992 1_455
Ag0 Lu5 2.954998 1_455
Ag0 Lu4 2.954998 1_555
Ag0 Lu0 3.422077 1_555
Ag0 Lu1 3.422077 1_455
Ag0 Lu3 3.422077 1_556
Ag0 Lu2 3.422077 1_454
Ag0 Lu10 3.709941 1_455
Ag0 Lu11 3.709941 1_555
Ag0 Lu9 3.709941 1_555
Ag0 Lu7 3.709941 1_455
Ag1 Lu7 2.954992 1_555
Ag1 Lu9 2.954992 1_545
Ag1 Lu11 2.954998 1_545
Ag1 Lu10 2.954998 1_555
Ag1 Lu0 3.422077 1_555
Ag1 Lu1 3.422077 1_545
Ag1 Lu2 3.422077 1_555
Ag1 Lu3 3.422077 1_545
Ag1 Lu5 3.709941 1_555
Ag1 Lu4 3.709941 1_545
Ag1 Lu8 3.709941 1_555
Ag1 Lu6 3.709941 1_545
