# generated using pymatgen
data_K4Sr2HfAs4
_symmetry_space_group_name_H-M   'P 1'
_cell_length_a   10.40089250
_cell_length_b   10.40089296
_cell_length_c   7.83095693
_cell_angle_alpha   88.19083845
_cell_angle_beta   88.19083445
_cell_angle_gamma   119.67178134
_symmetry_Int_Tables_number   1
_chemical_formula_structural   K4Sr2HfAs4
_chemical_formula_sum   'K8 Sr4 Hf2 As8'
_cell_volume   734.60635603
_cell_formula_units_Z   2
loop_
 _symmetry_equiv_pos_site_id
 _symmetry_equiv_pos_as_xyz
  1  'x, y, z'
loop_
 _atom_site_type_symbol
 _atom_site_label
 _atom_site_symmetry_multiplicity
 _atom_site_fract_x
 _atom_site_fract_y
 _atom_site_fract_z
 _atom_site_occupancy
  K  K0  1  0.47488975  0.94203843  0.38336686  1
  K  K1  1  0.94203843  0.47488975  0.88336686  1
  K  K2  1  0.86557384  0.72065440  0.16975050  1
  K  K3  1  0.26758667  0.12671615  0.23644811  1
  K  K4  1  0.85535393  0.13915720  0.19828542  1
  K  K5  1  0.12671615  0.26758667  0.73644811  1
  K  K6  1  0.72065440  0.86557384  0.66975050  1
  K  K7  1  0.13915720  0.85535393  0.69828542  1
  Sr  Sr0  1  0.06921664  0.53226226  0.39281231  1
  Sr  Sr1  1  0.47487532  0.53101671  0.37697393  1
  Sr  Sr2  1  0.53226226  0.06921664  0.89281231  1
  Sr  Sr3  1  0.53101671  0.47487532  0.87697393  1
  Hf  Hf0  1  0.66454327  0.33481756  0.49020397  1
  Hf  Hf1  1  0.33481756  0.66454327  0.99020397  1
  As  As0  1  0.64385820  0.33038243  0.15963163  1
  As  As1  1  0.33038243  0.64385820  0.65963163  1
  As  As2  1  0.20842868  0.39894413  0.13079732  1
  As  As3  1  0.60728837  0.79848595  0.07651979  1
  As  As4  1  0.20768286  0.80634325  0.09924115  1
  As  As5  1  0.79848595  0.60728837  0.57651979  1
  As  As6  1  0.39894413  0.20842868  0.63079732  1
  As  As7  1  0.80634325  0.20768286  0.59924115  1
loop_
_geom_bond_atom_site_label_1
_geom_bond_atom_site_label_2
_geom_bond_distance
_geom_bond_site_symmetry_2
As0 Hf0 2.604352 1_555
As0 Sr3 3.199346 1_554
As0 Sr2 3.237528 1_554
As0 K1 3.363592 1_554
As0 K3 3.424646 1_555
As0 K2 3.544752 1_555
As0 K4 3.636196 1_555
As0 Sr1 3.742603 1_555
As0 K0 3.847547 1_545
As1 Hf1 2.604352 1_555
As1 Sr1 3.199346 1_555
As1 Sr0 3.237528 1_555
As1 K0 3.363592 1_555
As1 K5 3.424646 1_555
As1 K6 3.544752 1_555
As1 K7 3.636196 1_555
As1 Sr3 3.742603 1_555
As1 K1 3.847547 1_455
As2 Hf1 2.587024 1_554
As2 Sr1 3.165269 1_555
As2 Sr0 3.195165 1_555
As2 K3 3.269415 1_555
As2 K4 3.321030 1_455
As2 K5 3.377569 1_554
As2 Sr3 3.562066 1_554
As2 K1 3.803187 1_454
As3 Hf1 2.588535 1_554
As3 K2 3.262619 1_555
As3 Sr1 3.280329 1_555
As3 K6 3.291176 1_554
As3 K4 3.382090 1_565
As3 K0 3.457276 1_555
As3 Sr3 3.488098 1_554
As3 Sr2 3.549373 1_564
As4 Hf1 2.567455 1_554
As4 K2 3.235026 1_455
As4 Sr0 3.286049 1_555
As4 K3 3.295274 1_565
As4 K7 3.320624 1_554
As4 K0 3.372183 1_555
As4 Sr2 3.423934 1_564
As4 K1 3.689018 1_454
As5 Hf0 2.588535 1_555
As5 K6 3.262619 1_555
As5 Sr3 3.280329 1_555
As5 K2 3.291176 1_555
As5 K7 3.382090 1_655
As5 K1 3.457276 1_555
As5 Sr1 3.488098 1_555
As5 Sr0 3.549373 1_655
As6 Hf0 2.587024 1_555
As6 Sr3 3.165269 1_555
As6 Sr2 3.195165 1_555
As6 K5 3.269414 1_555
As6 K7 3.321030 1_545
As6 K3 3.377569 1_555
As6 Sr1 3.562066 1_555
As6 K0 3.803187 1_545
As7 Hf0 2.567455 1_555
As7 K6 3.235027 1_545
As7 Sr2 3.286049 1_555
As7 K5 3.295274 1_655
As7 K4 3.320624 1_555
As7 K1 3.372183 1_555
As7 Sr0 3.423934 1_655
As7 K0 3.689017 1_545
