# generated using pymatgen
data_Rb3LuBi2
_symmetry_space_group_name_H-M   'P 1'
_cell_length_a   10.27330212
_cell_length_b   10.27330225
_cell_length_c   10.27330177
_cell_angle_alpha   128.19390171
_cell_angle_beta   70.04839572
_cell_angle_gamma   136.29456551
_symmetry_Int_Tables_number   1
_chemical_formula_structural   Rb3LuBi2
_chemical_formula_sum   'Rb6 Lu2 Bi4'
_cell_volume   577.51091662
_cell_formula_units_Z   2
loop_
 _symmetry_equiv_pos_site_id
 _symmetry_equiv_pos_as_xyz
  1  'x, y, z'
loop_
 _atom_site_type_symbol
 _atom_site_label
 _atom_site_symmetry_multiplicity
 _atom_site_fract_x
 _atom_site_fract_y
 _atom_site_fract_z
 _atom_site_occupancy
  Rb  Rb0  1  0.25000000  0.25000000  0.00000000  1
  Rb  Rb1  1  0.75000000  0.75000000  0.00000000  1
  Rb  Rb2  1  0.31365897  0.80126214  0.11491911  1
  Rb  Rb3  1  0.18634103  0.30126114  0.48760317  1
  Rb  Rb4  1  0.81365897  0.69873886  0.51239783  1
  Rb  Rb5  1  0.68634103  0.19873786  0.88507989  1
  Lu  Lu0  1  0.75000000  0.25000000  0.50000000  1
  Lu  Lu1  1  0.25000000  0.74999900  0.49999900  1
  Bi  Bi0  1  0.90160547  0.30838051  0.20998498  1
  Bi  Bi1  1  0.59839453  0.80838051  0.40677504  1
  Bi  Bi2  1  0.40160547  0.19161949  0.59322496  1
  Bi  Bi3  1  0.09839453  0.69161949  0.79001402  1
loop_
_geom_bond_atom_site_label_1
_geom_bond_atom_site_label_2
_geom_bond_distance
_geom_bond_site_symmetry_2
Rb0 Rb1 3.823949 1_445
Rb0 Rb1 3.823949 1_555
Rb0 Rb4 4.560471 1_444
Rb0 Rb5 4.560479 1_554
Rb0 Rb3 4.560482 1_555
Rb0 Rb2 4.560487 1_555
Rb1 Rb4 4.560472 1_554
Rb1 Rb3 4.560478 1_665
Rb1 Rb2 4.560480 1_555
Rb1 Rb5 4.560482 1_554
Rb2 Rb5 4.478654 1_564
Rb2 Rb5 4.478673 1_454
Rb2 Rb3 4.972940 1_554
Rb2 Rb3 4.972949 1_565
Rb3 Rb4 4.478668 1_445
Rb3 Rb4 4.478675 1_555
Rb4 Rb5 4.972948 1_565
Rb4 Rb5 4.972956 1_554
Lu0 Rb4 4.082655 1_555
Lu0 Rb3 4.082657 1_655
Lu0 Rb5 4.082661 1_555
Lu0 Rb2 4.082664 1_545
Lu1 Rb3 4.082657 1_555
Lu1 Rb4 4.082659 1_455
Lu1 Rb5 4.082661 1_565
Lu1 Rb2 4.082667 1_555
Bi0 Lu1 3.058549 1_655
Bi0 Lu0 3.058559 1_555
Bi0 Rb0 3.749415 1_655
Bi0 Rb1 3.749419 1_545
Bi0 Rb5 3.753298 1_554
Bi0 Rb4 3.803437 1_555
Bi0 Rb2 4.100779 1_545
Bi0 Rb2 4.100786 1_655
Bi1 Lu1 3.058544 1_555
Bi1 Lu0 3.058549 1_565
Bi1 Rb0 3.749416 1_555
Bi1 Rb1 3.749417 1_555
Bi1 Rb4 3.753315 1_555
Bi1 Rb5 3.803435 1_565
Bi1 Rb3 4.100779 1_665
Bi1 Rb3 4.100786 1_555
Bi2 Lu0 3.058549 1_555
Bi2 Lu1 3.058554 1_545
Bi2 Rb1 3.749416 1_556
Bi2 Rb0 3.749417 1_556
Bi2 Rb3 3.753308 1_555
Bi2 Rb2 3.803442 1_545
Bi2 Rb4 4.100779 1_445
Bi2 Rb4 4.100779 1_555
Bi3 Lu0 3.058549 1_455
Bi3 Lu1 3.058554 1_555
Bi3 Rb0 3.749417 1_566
Bi3 Rb1 3.749417 1_456
Bi3 Rb2 3.753298 1_556
Bi3 Rb3 3.803435 1_555
Bi3 Rb5 4.100779 1_565
Bi3 Rb5 4.100786 1_455
