# generated using pymatgen
data_Zr6B4Ru9Rh
_symmetry_space_group_name_H-M   'P 1'
_cell_length_a   9.50886520
_cell_length_b   9.53713015
_cell_length_c   3.12169951
_cell_angle_alpha   90.00000000
_cell_angle_beta   90.00000000
_cell_angle_gamma   90.06049039
_symmetry_Int_Tables_number   1
_chemical_formula_structural   Zr6B4Ru9Rh
_chemical_formula_sum   'Zr6 B4 Ru9 Rh1'
_cell_volume   283.09829496
_cell_formula_units_Z   1
loop_
 _symmetry_equiv_pos_site_id
 _symmetry_equiv_pos_as_xyz
  1  'x, y, z'
loop_
 _atom_site_type_symbol
 _atom_site_label
 _atom_site_symmetry_multiplicity
 _atom_site_fract_x
 _atom_site_fract_y
 _atom_site_fract_z
 _atom_site_occupancy
  Zr  Zr0  1  0.67628250  0.17480758  0.00000000  1
  Zr  Zr1  1  0.32711873  0.81964545  0.00000000  1
  Zr  Zr2  1  0.17433696  0.32967906  0.00000000  1
  Zr  Zr3  1  0.82434177  0.67633170  0.00000000  1
  Zr  Zr4  1  0.99878280  0.99984921  0.00000000  1
  Zr  Zr5  1  0.50124176  0.49935562  0.00000000  1
  B  B0  1  0.12098281  0.62174609  0.00000000  1
  B  B1  1  0.87871461  0.37869485  0.00000000  1
  B  B2  1  0.62087808  0.87736713  0.00000000  1
  B  B3  1  0.38536826  0.12381056  0.00000000  1
  Ru  Ru0  1  0.77714663  0.92900658  0.50000000  1
  Ru  Ru1  1  0.07223475  0.77948616  0.50000000  1
  Ru  Ru2  1  0.72112067  0.42673050  0.50000000  1
  Ru  Ru3  1  0.92904957  0.22104039  0.50000000  1
  Ru  Ru4  1  0.27876058  0.57159863  0.50000000  1
  Ru  Ru5  1  0.57124479  0.72118428  0.50000000  1
  Ru  Ru6  1  0.42471405  0.27791589  0.50000000  1
  Ru  Ru7  1  0.49726541  0.99939403  0.50000000  1
  Ru  Ru8  1  0.99930301  0.50079525  0.50000000  1
  Rh  Rh0  1  0.22111225  0.07156505  0.50000000  1
loop_
_geom_bond_atom_site_label_1
_geom_bond_atom_site_label_2
_geom_bond_distance
_geom_bond_site_symmetry_2
B0 Ru1 2.217155 1_555
B0 Ru1 2.217155 1_554
B0 Ru4 2.217513 1_555
B0 Ru4 2.217513 1_554
B0 Ru8 2.258935 1_455
B0 Ru8 2.258935 1_454
B0 Zr1 2.719651 1_555
B0 Zr2 2.831834 1_555
B0 Zr3 2.868898 1_455
B1 Ru2 2.212057 1_554
B1 Ru2 2.212057 1_555
B1 Ru3 2.219816 1_555
B1 Ru3 2.219816 1_554
B1 Ru8 2.259268 1_555
B1 Ru8 2.259268 1_554
B1 Zr0 2.734669 1_555
B1 Zr2 2.850124 1_655
B1 Zr3 2.885840 1_555
B2 Ru5 2.208218 1_554
B2 Ru5 2.208218 1_555
B2 Ru0 2.210263 1_555
B2 Ru0 2.210263 1_554
B2 Ru7 2.274894 1_555
B2 Ru7 2.274894 1_554
B2 Zr3 2.725248 1_555
B2 Zr1 2.846476 1_555
B2 Zr0 2.884688 1_565
B3 Ru6 2.176040 1_554
B3 Ru6 2.176040 1_555
B3 Ru7 2.231369 1_545
B3 Ru7 2.231369 1_544
B3 Rh0 2.263267 1_554
B3 Rh0 2.263267 1_555
B3 Zr0 2.808190 1_555
B3 Zr2 2.808906 1_555
B3 Zr1 2.952694 1_545
Ru0 Zr4 2.707641 1_555
Ru0 Zr4 2.707641 1_556
Ru0 Zr3 2.906378 1_555
Ru0 Zr3 2.906378 1_556
Ru0 Zr0 2.975957 1_566
Ru0 Zr0 2.975957 1_565
Ru1 Zr4 2.709987 1_456
Ru1 Zr4 2.709987 1_455
Ru1 Zr1 2.907765 1_555
Ru1 Zr1 2.907765 1_556
Ru1 Zr3 2.992577 1_456
Ru1 Zr3 2.992577 1_455
Ru2 Zr5 2.700091 1_556
Ru2 Zr5 2.700091 1_555
Ru2 Zr0 2.896284 1_555
Ru2 Zr0 2.896284 1_556
Ru2 Zr3 3.010211 1_555
Ru2 Zr3 3.010211 1_556
Ru3 Zr4 2.707212 1_546
Ru3 Zr4 2.707212 1_545
Ru3 Zr0 2.899203 1_555
Ru3 Zr0 2.899203 1_556
Ru3 Zr2 2.990780 1_656
Ru3 Zr2 2.990780 1_655
Ru4 Zr5 2.718375 1_556
Ru4 Zr5 2.718375 1_555
Ru4 Zr1 2.870840 1_555
Ru4 Zr1 2.870840 1_556
Ru4 Zr2 2.956454 1_556
Ru4 Zr2 2.956454 1_555
Ru5 Zr5 2.711488 1_556
Ru5 Zr5 2.711488 1_555
Ru5 Zr3 2.900594 1_555
Ru5 Zr3 2.900594 1_556
Ru5 Zr1 2.951502 1_556
Ru5 Zr1 2.951502 1_555
Ru6 Zr5 2.724456 1_556
Ru6 Zr5 2.724456 1_555
Ru6 Zr2 2.889752 1_556
Ru6 Zr2 2.889752 1_555
Ru6 Zr0 3.021672 1_555
Ru6 Zr0 3.021672 1_556
Ru7 Zr1 2.826089 1_555
Ru7 Zr1 2.826089 1_556
Ru7 Zr0 2.850724 1_565
Ru7 Zr0 2.850724 1_566
Ru8 Zr2 2.806317 1_655
Ru8 Zr2 2.806317 1_656
Ru8 Zr3 2.830659 1_555
Ru8 Zr3 2.830659 1_556
Rh0 Zr4 2.714853 1_446
Rh0 Zr4 2.714853 1_445
Rh0 Zr2 2.948932 1_555
Rh0 Zr2 2.948932 1_556
Rh0 Zr1 3.038070 1_546
Rh0 Zr1 3.038070 1_545
