# generated using pymatgen
data_Lu4As6Ru2Rh5
_symmetry_space_group_name_H-M   'P 1'
_cell_length_a   7.12969312
_cell_length_b   7.12962899
_cell_length_c   7.12969282
_cell_angle_alpha   109.42969750
_cell_angle_beta   109.55755724
_cell_angle_gamma   109.42970769
_symmetry_Int_Tables_number   1
_chemical_formula_structural   Lu4As6Ru2Rh5
_chemical_formula_sum   'Lu4 As6 Ru2 Rh5'
_cell_volume   278.97704125
_cell_formula_units_Z   1
loop_
 _symmetry_equiv_pos_site_id
 _symmetry_equiv_pos_as_xyz
  1  'x, y, z'
loop_
 _atom_site_type_symbol
 _atom_site_label
 _atom_site_symmetry_multiplicity
 _atom_site_fract_x
 _atom_site_fract_y
 _atom_site_fract_z
 _atom_site_occupancy
  Lu  Lu0  1  0.00022929  0.00044452  0.50021769  1
  Lu  Lu1  1  0.49978231  0.99955548  0.99977071  1
  Lu  Lu2  1  0.00022244  0.50000000  0.99977756  1
  Lu  Lu3  1  0.49977664  0.50000000  0.50022336  1
  As  As0  1  0.68221699  0.68443495  0.99778953  1
  As  As1  1  0.31333883  0.31557292  0.99777675  1
  As  As2  1  0.00222325  0.68442708  0.68666117  1
  As  As3  1  0.00221047  0.31556505  0.31778301  1
  As  As4  1  0.68581482  0.00002809  0.68579761  1
  As  As5  1  0.31420239  0.99997191  0.31418518  1
  Ru  Ru0  1  0.99998842  0.00000000  0.00001158  1
  Ru  Ru1  1  0.24999238  0.50000000  0.75000762  1
  Rh  Rh0  1  0.74977206  0.24924730  0.50050803  1
  Rh  Rh1  1  0.49949474  0.24925474  0.74875371  1
  Rh  Rh2  1  0.49949197  0.75075270  0.25022794  1
  Rh  Rh3  1  0.74999571  0.50000000  0.25000429  1
  Rh  Rh4  1  0.25124629  0.75074526  0.50050526  1
loop_
_geom_bond_atom_site_label_1
_geom_bond_atom_site_label_2
_geom_bond_distance
_geom_bond_site_symmetry_2
Lu0 Rh1 2.905561 1_555
Lu0 Rh0 2.905634 1_455
Lu0 Ru1 2.909502 1_555
Lu0 Rh4 2.914096 1_545
Lu0 Rh2 2.914114 1_445
Lu0 Rh3 2.914680 1_445
Lu1 Rh4 2.905561 1_555
Lu1 Rh2 2.905633 1_556
Lu1 Ru1 2.909502 1_555
Lu1 Rh1 2.914095 1_565
Lu1 Rh0 2.914114 1_566
Lu1 Rh3 2.914680 1_566
Lu2 Rh2 2.905584 1_556
Lu2 Rh0 2.905584 1_455
Lu2 Ru1 2.909555 1_555
Lu2 Rh1 2.914057 1_455
Lu2 Rh4 2.914057 1_556
Lu2 Rh3 2.914876 1_456
Lu3 Rh1 2.905724 1_555
Lu3 Rh4 2.905724 1_555
Lu3 Ru1 2.909722 1_555
Lu3 Rh2 2.914281 1_555
Lu3 Rh0 2.914281 1_555
Lu3 Rh3 2.914787 1_555
As0 Ru1 2.541692 1_555
As0 Rh1 2.563869 1_555
As0 Rh2 2.563895 1_556
As0 Rh3 2.571054 1_556
As0 Ru0 2.599258 1_566
As0 Lu3 2.945329 1_555
As0 Lu1 2.945342 1_555
As0 Lu0 2.973728 1_666
As0 Lu2 2.973929 1_655
As1 Ru1 2.541616 1_555
As1 Rh2 2.563852 1_556
As1 Rh1 2.563987 1_555
As1 Rh3 2.571026 1_556
As1 Ru0 2.599440 1_456
As1 Lu0 2.945217 1_555
As1 Lu2 2.945274 1_555
As1 Lu3 2.973888 1_556
As1 Lu1 2.974026 1_545
As2 Ru1 2.541616 1_555
As2 Rh0 2.563852 1_455
As2 Rh4 2.563986 1_555
As2 Rh3 2.571026 1_455
As2 Ru0 2.599440 1_466
As2 Lu1 2.945216 1_555
As2 Lu2 2.945274 1_555
As2 Lu3 2.973888 1_455
As2 Lu0 2.974026 1_565
As3 Ru1 2.541692 1_555
As3 Rh4 2.563869 1_555
As3 Rh0 2.563895 1_455
As3 Rh3 2.571054 1_455
As3 Ru0 2.599258 1_455
As3 Lu3 2.945329 1_555
As3 Lu0 2.945341 1_555
As3 Lu1 2.973728 1_444
As3 Lu2 2.973929 1_554
As4 Rh0 2.556602 1_555
As4 Rh4 2.556887 1_545
As4 Rh1 2.561730 1_555
As4 Rh2 2.561771 1_545
As4 Ru0 2.584009 1_556
As4 Lu2 2.959391 1_655
As4 Lu0 2.959689 1_655
As4 Lu1 2.959750 1_545
As4 Lu3 2.959766 1_545
As5 Rh2 2.556602 1_555
As5 Rh1 2.556887 1_565
As5 Rh4 2.561730 1_555
As5 Rh0 2.561771 1_565
As5 Ru0 2.584009 1_465
As5 Lu2 2.959391 1_554
As5 Lu1 2.959689 1_554
As5 Lu0 2.959751 1_565
As5 Lu3 2.959766 1_565
Rh0 Ru1 2.911124 1_655
Rh1 Ru1 2.911388 1_555
Rh2 Ru1 2.911124 1_554
Rh4 Ru1 2.911388 1_555
