# generated using pymatgen
data_Ba10Sn2PtRh3
_symmetry_space_group_name_H-M   'P 1'
_cell_length_a   10.07075773
_cell_length_b   10.07075804
_cell_length_c   10.05463681
_cell_angle_alpha   129.51914513
_cell_angle_beta   129.51914419
_cell_angle_gamma   74.29795337
_symmetry_Int_Tables_number   1
_chemical_formula_structural   Ba10Sn2PtRh3
_chemical_formula_sum   'Ba10 Sn2 Pt1 Rh3'
_cell_volume   591.17177127
_cell_formula_units_Z   1
loop_
 _symmetry_equiv_pos_site_id
 _symmetry_equiv_pos_as_xyz
  1  'x, y, z'
loop_
 _atom_site_type_symbol
 _atom_site_label
 _atom_site_symmetry_multiplicity
 _atom_site_fract_x
 _atom_site_fract_y
 _atom_site_fract_z
 _atom_site_occupancy
  Ba  Ba0  1  0.99787154  0.99723956  0.99511109  1
  Ba  Ba1  1  0.50276044  0.50212846  0.00488891  1
  Ba  Ba2  1  0.81100264  0.30724988  0.85351954  1
  Ba  Ba3  1  0.19275012  0.68899736  0.14648046  1
  Ba  Ba4  1  0.45748309  0.95373034  0.14648046  1
  Ba  Ba5  1  0.30421267  0.46024522  0.50000000  1
  Ba  Ba6  1  0.03975478  0.19578733  0.50000000  1
  Ba  Ba7  1  0.54626966  0.04251691  0.85351954  1
  Ba  Ba8  1  0.69240225  0.54305063  0.50000000  1
  Ba  Ba9  1  0.95694937  0.80759775  0.50000000  1
  Sn  Sn0  1  0.25054536  0.24945464  0.00000000  1
  Sn  Sn1  1  0.75054536  0.74945464  0.00000000  1
  Pt  Pt0  1  0.38475320  0.11524680  0.50000000  1
  Rh  Rh0  1  0.11293967  0.61283464  0.72577331  1
  Rh  Rh1  1  0.88716536  0.38706033  0.27422669  1
  Rh  Rh2  1  0.61259448  0.88740552  0.50000000  1
loop_
_geom_bond_atom_site_label_1
_geom_bond_atom_site_label_2
_geom_bond_distance
_geom_bond_site_symmetry_2
Ba0 Rh2 3.434119 1_555
Ba0 Rh0 3.447696 1_655
Ba0 Pt0 3.466901 1_666
Ba0 Rh1 3.481694 1_566
Ba0 Ba9 3.783456 1_555
Ba0 Ba8 3.783456 1_555
Ba0 Ba7 3.792392 1_565
Ba0 Ba2 3.792392 1_565
Ba0 Ba4 3.836419 1_656
Ba0 Ba3 3.836419 1_656
Ba0 Ba6 3.841836 1_666
Ba0 Ba5 3.841837 1_666
Ba0 Sn1 4.013650 1_556
Ba0 Sn0 4.013650 1_666
Ba1 Rh2 3.434119 1_555
Ba1 Rh1 3.447696 1_555
Ba1 Pt0 3.466901 1_554
Ba1 Rh0 3.481694 1_554
Ba1 Ba8 3.783456 1_555
Ba1 Ba9 3.783456 1_555
Ba1 Ba3 3.792392 1_555
Ba1 Ba4 3.792392 1_555
Ba1 Ba2 3.836419 1_554
Ba1 Ba7 3.836419 1_554
Ba1 Ba5 3.841836 1_554
Ba1 Ba6 3.841837 1_554
Ba1 Sn1 4.013650 1_555
Ba1 Sn0 4.013650 1_555
Ba2 Rh2 3.303208 1_545
Ba2 Rh1 3.317411 1_556
Ba2 Pt0 3.335728 1_555
Ba2 Sn0 3.674430 1_656
Ba2 Sn1 3.701129 1_556
Ba3 Rh2 3.303208 1_555
Ba3 Rh0 3.317411 1_554
Ba3 Pt0 3.335728 1_565
Ba3 Sn0 3.674430 1_555
Ba3 Sn1 3.701129 1_455
Ba4 Rh2 3.303208 1_555
Ba4 Rh0 3.317401 1_554
Ba4 Pt0 3.335728 1_565
Ba4 Sn1 3.674430 1_555
Ba4 Sn0 3.701129 1_565
Ba5 Rh0 3.278479 1_555
Ba5 Rh1 3.278489 1_455
Ba5 Pt0 3.347232 1_555
Ba5 Sn0 3.695043 1_555
Ba5 Sn1 3.695043 1_556
Ba6 Rh1 3.278479 1_455
Ba6 Rh0 3.278489 1_555
Ba6 Pt0 3.347232 1_555
Ba6 Sn0 3.695043 1_556
Ba6 Sn1 3.695043 1_445
Ba7 Rh2 3.303208 1_545
Ba7 Rh1 3.317401 1_556
Ba7 Pt0 3.335728 1_555
Ba7 Sn1 3.674430 1_546
Ba7 Sn0 3.701129 1_556
Ba8 Rh1 3.305829 1_555
Ba8 Rh0 3.305839 1_655
Ba8 Rh2 3.341220 1_555
Ba8 Sn1 3.681105 1_556
Ba8 Sn0 3.681105 1_555
Ba9 Rh0 3.305829 1_655
Ba9 Rh1 3.305839 1_555
Ba9 Rh2 3.341220 1_555
Ba9 Sn1 3.681105 1_555
Ba9 Sn0 3.681105 1_666
Pt0 Rh2 2.771291 1_545
Rh0 Rh1 2.734067 1_455
