# generated using pymatgen
data_CuIrPtS4
_symmetry_space_group_name_H-M   'P 1'
_cell_length_a   7.01187569
_cell_length_b   7.01187570
_cell_length_c   7.01896696
_cell_angle_alpha   59.96654012
_cell_angle_beta   59.96654006
_cell_angle_gamma   60.04938924
_symmetry_Int_Tables_number   1
_chemical_formula_structural   CuIrPtS4
_chemical_formula_sum   'Cu2 Ir2 Pt2 S8'
_cell_volume   243.98799998
_cell_formula_units_Z   2
loop_
 _symmetry_equiv_pos_site_id
 _symmetry_equiv_pos_as_xyz
  1  'x, y, z'
loop_
 _atom_site_type_symbol
 _atom_site_label
 _atom_site_symmetry_multiplicity
 _atom_site_fract_x
 _atom_site_fract_y
 _atom_site_fract_z
 _atom_site_occupancy
  Cu  Cu0  1  0.00324290  0.00324290  0.99675710  1
  Cu  Cu1  1  0.24675710  0.24675710  0.25324290  1
  Ir  Ir0  1  0.62500000  0.62500000  0.62500000  1
  Ir  Ir1  1  0.62500000  0.62500000  0.12500000  1
  Pt  Pt0  1  0.12500000  0.62500000  0.62500000  1
  Pt  Pt1  1  0.62500000  0.12500000  0.62500000  1
  S  S0  1  0.38600827  0.38600827  0.84575177  1
  S  S1  1  0.38600827  0.38600827  0.38223169  1
  S  S2  1  0.86399173  0.86399173  0.86776831  1
  S  S3  1  0.86399173  0.86399173  0.40424823  1
  S  S4  1  0.38883594  0.84389745  0.38363330  1
  S  S5  1  0.84389745  0.38883594  0.38363330  1
  S  S6  1  0.40610255  0.86116406  0.86636670  1
  S  S7  1  0.86116406  0.40610255  0.86636670  1
loop_
_geom_bond_atom_site_label_1
_geom_bond_atom_site_label_2
_geom_bond_distance
_geom_bond_site_symmetry_2
Cu0 S6 2.307471 1_545
Cu0 S7 2.307471 1_455
Cu0 S2 2.334142 1_445
Cu0 S3 2.334142 1_446
Cu1 S5 2.307471 1_455
Cu1 S4 2.307471 1_545
Cu1 S1 2.334142 1_555
Cu1 S0 2.334142 1_554
Ir0 S3 2.371285 1_555
Ir0 S0 2.371285 1_555
Ir0 S7 2.373940 1_555
Ir0 S4 2.373940 1_555
Ir0 S6 2.373940 1_555
Ir0 S5 2.373940 1_555
Ir1 S2 2.371285 1_554
Ir1 S1 2.371285 1_555
Ir1 S4 2.373940 1_555
Ir1 S7 2.373940 1_554
Ir1 S5 2.373940 1_555
Ir1 S6 2.373940 1_554
Pt0 S0 2.394909 1_555
Pt0 S3 2.394909 1_455
Pt0 S2 2.394909 1_455
Pt0 S1 2.394909 1_555
Pt0 S4 2.396549 1_555
Pt0 S7 2.396549 1_455
Pt1 S0 2.394909 1_555
Pt1 S3 2.394909 1_545
Pt1 S2 2.394909 1_545
Pt1 S1 2.394909 1_555
Pt1 S5 2.396549 1_555
Pt1 S6 2.396549 1_545
