# generated using pymatgen
data_Sr5Bi2PbO12
_symmetry_space_group_name_H-M   'P 1'
_cell_length_a   5.95091091
_cell_length_b   6.11930616
_cell_length_c   8.44469755
_cell_angle_alpha   89.37462482
_cell_angle_beta   89.78905700
_cell_angle_gamma   90.04102195
_symmetry_Int_Tables_number   1
_chemical_formula_structural   Sr5Bi2PbO12
_chemical_formula_sum   'Sr5 Bi2 Pb1 O12'
_cell_volume   307.49693627
_cell_formula_units_Z   1
loop_
 _symmetry_equiv_pos_site_id
 _symmetry_equiv_pos_as_xyz
  1  'x, y, z'
loop_
 _atom_site_type_symbol
 _atom_site_label
 _atom_site_symmetry_multiplicity
 _atom_site_fract_x
 _atom_site_fract_y
 _atom_site_fract_z
 _atom_site_occupancy
  Sr  Sr0  1  0.00000000  0.00000000  0.00000000  1
  Sr  Sr1  1  0.98566160  0.44937913  0.24564773  1
  Sr  Sr2  1  0.51204068  0.95028909  0.24730811  1
  Sr  Sr3  1  0.48795932  0.04971091  0.75269189  1
  Sr  Sr4  1  0.01433840  0.55062087  0.75435227  1
  Bi  Bi0  1  0.50000000  0.50000000  0.00000000  1
  Bi  Bi1  1  0.00000000  0.00000000  0.50000000  1
  Pb  Pb0  1  0.50000000  0.50000000  0.50000000  1
  O  O0  1  0.89428202  0.95642614  0.72808296  1
  O  O1  1  0.79477074  0.71799378  0.43526044  1
  O  O2  1  0.79098925  0.67264653  0.04303377  1
  O  O3  1  0.71322699  0.20998759  0.44271517  1
  O  O4  1  0.66897551  0.21121505  0.04785065  1
  O  O5  1  0.60102649  0.45959983  0.74525506  1
  O  O6  1  0.39897351  0.54040017  0.25474494  1
  O  O7  1  0.33102449  0.78878495  0.95214935  1
  O  O8  1  0.28677301  0.79001241  0.55728483  1
  O  O9  1  0.20901075  0.32735347  0.95696623  1
  O  O10  1  0.20522926  0.28200622  0.56473956  1
  O  O11  1  0.10571798  0.04357386  0.27191704  1
loop_
_geom_bond_atom_site_label_1
_geom_bond_atom_site_label_2
_geom_bond_distance
_geom_bond_site_symmetry_2
Bi0 O2 2.063303 1_555
Bi0 O9 2.063303 1_554
Bi0 O7 2.070567 1_554
Bi0 O4 2.070567 1_555
Bi0 O6 2.247823 1_555
Bi0 O5 2.247823 1_554
Bi1 O0 2.038711 1_445
Bi1 O11 2.038711 1_555
Bi1 O10 2.188821 1_555
Bi1 O1 2.188821 1_445
Bi1 O8 2.189334 1_545
Bi1 O3 2.189334 1_455
O0 Sr0 2.400718 1_666
O0 Sr3 2.493308 1_565
O0 Sr4 2.591879 1_655
O1 Pb0 2.264750 1_555
O1 Sr1 2.569621 1_555
O1 Sr2 2.710069 1_555
O1 Sr4 3.159893 1_655
O2 Sr0 2.380975 1_665
O2 Sr1 2.470240 1_555
O2 Sr4 2.878276 1_654
O2 Sr2 2.943604 1_555
O3 Pb0 2.238532 1_555
O3 Sr2 2.598257 1_545
O3 Sr1 2.732646 1_555
O3 Sr3 3.086645 1_555
O4 Sr0 2.392382 1_655
O4 Sr2 2.487211 1_545
O4 Sr3 2.902036 1_554
O4 Sr1 2.921990 1_555
O5 Pb0 2.170308 1_555
O5 Sr4 2.523102 1_655
O5 Sr3 2.596489 1_555
O6 Pb0 2.170308 1_555
O6 Sr1 2.523102 1_455
O6 Sr2 2.596489 1_555
O7 Sr0 2.392382 1_566
O7 Sr3 2.487211 1_565
O7 Sr2 2.902036 1_556
O7 Sr4 2.921990 1_555
O8 Pb0 2.238532 1_555
O8 Sr3 2.598257 1_565
O8 Sr4 2.732646 1_555
O8 Sr2 3.086645 1_555
O9 Sr0 2.380975 1_556
O9 Sr4 2.470240 1_555
O9 Sr1 2.878276 1_456
O9 Sr3 2.943604 1_555
O10 Pb0 2.264750 1_555
O10 Sr4 2.569621 1_555
O10 Sr3 2.710069 1_555
O10 Sr1 3.159893 1_455
O11 Sr0 2.400718 1_555
O11 Sr2 2.493308 1_545
O11 Sr1 2.591879 1_455
