# generated using pymatgen
data_Sc2CuSb2Ir
_symmetry_space_group_name_H-M   'P 1'
_cell_length_a   7.65685967
_cell_length_b   7.65686041
_cell_length_c   7.65686048
_cell_angle_alpha   33.76500244
_cell_angle_beta   33.76500588
_cell_angle_gamma   33.76500298
_symmetry_Int_Tables_number   1
_chemical_formula_structural   Sc2CuSb2Ir
_chemical_formula_sum   'Sc2 Cu1 Sb2 Ir1'
_cell_volume   123.55550019
_cell_formula_units_Z   1
loop_
 _symmetry_equiv_pos_site_id
 _symmetry_equiv_pos_as_xyz
  1  'x, y, z'
loop_
 _atom_site_type_symbol
 _atom_site_label
 _atom_site_symmetry_multiplicity
 _atom_site_fract_x
 _atom_site_fract_y
 _atom_site_fract_z
 _atom_site_occupancy
  Sc  Sc0  1  0.25194835  0.25194835  0.25194835  1
  Sc  Sc1  1  0.74802754  0.74802754  0.74802754  1
  Cu  Cu0  1  0.87636578  0.87636578  0.87636578  1
  Sb  Sb0  1  0.00113527  0.00113527  0.00113527  1
  Sb  Sb1  1  0.49966427  0.49966427  0.49966427  1
  Ir  Ir0  1  0.37286080  0.37286080  0.37286080  1
loop_
_geom_bond_atom_site_label_1
_geom_bond_atom_site_label_2
_geom_bond_distance
_geom_bond_site_symmetry_2
Cu0 Sb0 2.700080 1_666
Cu0 Sc0 2.725552 1_656
Cu0 Sc0 2.725553 1_665
Cu0 Sc0 2.725553 1_566
Cu0 Sb1 2.733770 1_565
Cu0 Sb1 2.733771 1_556
Cu0 Sb1 2.733771 1_655
Cu0 Sc1 2.777310 1_555
Sb0 Sc1 3.099489 1_544
Sb0 Sc1 3.099489 1_454
Sb0 Sc1 3.099489 1_445
Sb0 Sc0 3.127574 1_455
Sb0 Sc0 3.127574 1_545
Sb0 Sc0 3.127574 1_554
Sb1 Sc1 3.158145 1_455
Sb1 Sc1 3.158145 1_545
Sb1 Sc1 3.158145 1_554
Sb1 Sc0 3.166322 1_655
Sb1 Sc0 3.166322 1_565
Sb1 Sc0 3.166322 1_556
Ir0 Sc0 2.616611 1_555
Ir0 Sb0 2.698698 1_565
Ir0 Sb0 2.698699 1_556
Ir0 Sb0 2.698699 1_655
Ir0 Sc1 2.722547 1_545
Ir0 Sc1 2.722547 1_554
Ir0 Sc1 2.722547 1_455
Ir0 Sb1 2.744096 1_555
