# generated using pymatgen
data_CsYBi2S5
_symmetry_space_group_name_H-M   'P 1'
_cell_length_a   4.02127638
_cell_length_b   11.92738035
_cell_length_c   22.16530722
_cell_angle_alpha   90.00000000
_cell_angle_beta   90.00000000
_cell_angle_gamma   90.00000000
_symmetry_Int_Tables_number   1
_chemical_formula_structural   CsYBi2S5
_chemical_formula_sum   'Cs4 Y4 Bi8 S20'
_cell_volume   1063.12112092
_cell_formula_units_Z   4
loop_
 _symmetry_equiv_pos_site_id
 _symmetry_equiv_pos_as_xyz
  1  'x, y, z'
loop_
 _atom_site_type_symbol
 _atom_site_label
 _atom_site_symmetry_multiplicity
 _atom_site_fract_x
 _atom_site_fract_y
 _atom_site_fract_z
 _atom_site_occupancy
  Cs  Cs0  1  0.25000000  0.48561892  0.21288186  1
  Cs  Cs1  1  0.75000000  0.51438108  0.78711814  1
  Cs  Cs2  1  0.75000000  0.98561892  0.28711814  1
  Cs  Cs3  1  0.25000000  0.01438108  0.71288186  1
  Y  Y0  1  0.25000000  0.36387263  0.02442702  1
  Y  Y1  1  0.75000000  0.63612737  0.97557298  1
  Y  Y2  1  0.75000000  0.86387263  0.47557298  1
  Y  Y3  1  0.25000000  0.13612737  0.52442702  1
  Bi  Bi0  1  0.25000000  0.79967051  0.11931455  1
  Bi  Bi1  1  0.75000000  0.20032949  0.88068545  1
  Bi  Bi2  1  0.75000000  0.29967051  0.38068545  1
  Bi  Bi3  1  0.25000000  0.70032949  0.61931455  1
  Bi  Bi4  1  0.25000000  0.59351075  0.42521828  1
  Bi  Bi5  1  0.75000000  0.40648925  0.57478172  1
  Bi  Bi6  1  0.75000000  0.09351075  0.07478172  1
  Bi  Bi7  1  0.25000000  0.90648925  0.92521828  1
  S  S0  1  0.25000000  0.80738911  0.39530637  1
  S  S1  1  0.75000000  0.19261089  0.60469363  1
  S  S2  1  0.75000000  0.30738911  0.10469363  1
  S  S3  1  0.25000000  0.69261089  0.89530637  1
  S  S4  1  0.25000000  0.24495901  0.30791890  1
  S  S5  1  0.75000000  0.75504099  0.69208110  1
  S  S6  1  0.75000000  0.74495901  0.19208110  1
  S  S7  1  0.25000000  0.25504099  0.80791890  1
  S  S8  1  0.25000000  0.35371390  0.48347465  1
  S  S9  1  0.75000000  0.64628610  0.51652535  1
  S  S10  1  0.75000000  0.85371390  0.01652535  1
  S  S11  1  0.25000000  0.14628610  0.98347465  1
  S  S12  1  0.25000000  0.02407766  0.15212181  1
  S  S13  1  0.75000000  0.97592234  0.84787819  1
  S  S14  1  0.75000000  0.52407766  0.34787819  1
  S  S15  1  0.25000000  0.47592234  0.65212181  1
  S  S16  1  0.25000000  0.58363460  0.05533944  1
  S  S17  1  0.75000000  0.41636540  0.94466056  1
  S  S18  1  0.75000000  0.08363460  0.44466056  1
  S  S19  1  0.25000000  0.91636540  0.55533944  1
loop_
_geom_bond_atom_site_label_1
_geom_bond_atom_site_label_2
_geom_bond_distance
_geom_bond_site_symmetry_2
Cs0 S4 3.560462 1_555
Cs0 S14 3.634082 1_455
Cs0 S14 3.634082 1_555
Cs0 S16 3.682475 1_555
Cs0 S6 3.717986 1_455
Cs0 S6 3.717986 1_555
Cs0 S2 3.783157 1_455
Cs0 S2 3.783157 1_555
Cs1 S5 3.560462 1_555
Cs1 S15 3.634082 1_655
Cs1 S15 3.634082 1_555
Cs1 S17 3.682475 1_555
Cs1 S7 3.717986 1_555
Cs1 S7 3.717986 1_655
Cs1 S3 3.783157 1_655
Cs1 S3 3.783157 1_555
Cs2 S6 3.560462 1_555
Cs2 S12 3.634082 1_665
Cs2 S12 3.634082 1_565
Cs2 S18 3.682475 1_565
Cs2 S4 3.717986 1_565
Cs2 S4 3.717986 1_665
Cs2 S0 3.783157 1_555
Cs2 S0 3.783157 1_655
Cs3 S7 3.560462 1_555
Cs3 S13 3.634082 1_545
Cs3 S13 3.634082 1_445
Cs3 S19 3.682475 1_545
Cs3 S5 3.717986 1_445
Cs3 S5 3.717986 1_545
Cs3 S1 3.783157 1_455
Cs3 S1 3.783157 1_555
Bi0 S6 2.658934 1_555
Bi0 S6 2.658934 1_455
Bi0 S12 2.773612 1_565
Bi0 S16 2.941157 1_555
Bi0 S10 3.106295 1_455
Bi0 S10 3.106295 1_555
Bi1 S7 2.658934 1_555
Bi1 S7 2.658934 1_655
Bi1 S13 2.773612 1_545
Bi1 S17 2.941157 1_555
Bi1 S11 3.106295 1_555
Bi1 S11 3.106295 1_655
Bi2 S4 2.658934 1_655
Bi2 S4 2.658934 1_555
Bi2 S14 2.773612 1_555
Bi2 S18 2.941157 1_555
Bi2 S8 3.106295 1_555
Bi2 S8 3.106295 1_655
Bi3 S5 2.658934 1_455
Bi3 S5 2.658934 1_555
Bi3 S15 2.773612 1_555
Bi3 S19 2.941157 1_555
Bi3 S9 3.106295 1_455
Bi3 S9 3.106295 1_555
Bi4 S0 2.635758 1_555
Bi4 S14 2.768974 1_555
Bi4 S14 2.768974 1_455
Bi4 S9 2.921449 1_455
Bi4 S9 2.921449 1_555
Bi4 S8 3.138125 1_555
Bi5 S1 2.635758 1_555
Bi5 S15 2.768974 1_555
Bi5 S15 2.768974 1_655
Bi5 S8 2.921449 1_655
Bi5 S8 2.921449 1_555
Bi5 S9 3.138125 1_555
Bi6 S2 2.635758 1_555
Bi6 S12 2.768974 1_555
Bi6 S12 2.768974 1_655
Bi6 S11 2.921449 1_554
Bi6 S11 2.921449 1_654
Bi6 S10 3.138125 1_545
Bi7 S3 2.635758 1_555
Bi7 S13 2.768974 1_455
Bi7 S13 2.768974 1_555
Bi7 S10 2.921449 1_556
Bi7 S10 2.921449 1_456
Bi7 S11 3.138125 1_565
S0 Y2 2.768006 1_455
S0 Y2 2.768006 1_555
S1 Y3 2.768006 1_555
S1 Y3 2.768006 1_655
S2 Y0 2.768006 1_655
S2 Y0 2.768006 1_555
S3 Y1 2.768006 1_455
S3 Y1 2.768006 1_555
S8 Y3 2.749403 1_555
S9 Y2 2.749403 1_555
S10 Y1 2.749403 1_554
S11 Y0 2.749403 1_556
S16 Y0 2.709259 1_555
S16 Y1 2.749666 1_554
S16 Y1 2.749666 1_454
S17 Y1 2.709259 1_555
S17 Y0 2.749666 1_556
S17 Y0 2.749666 1_656
S18 Y2 2.709259 1_545
S18 Y3 2.749666 1_655
S18 Y3 2.749666 1_555
S19 Y3 2.709259 1_565
S19 Y2 2.749666 1_455
S19 Y2 2.749666 1_555
