# generated using pymatgen
data_Sc4CoBiTe
_symmetry_space_group_name_H-M   'P 1'
_cell_length_a   8.22735671
_cell_length_b   8.22735609
_cell_length_c   8.22735555
_cell_angle_alpha   96.56743442
_cell_angle_beta   96.32727115
_cell_angle_gamma   140.84311247
_symmetry_Int_Tables_number   1
_chemical_formula_structural   Sc4CoBiTe
_chemical_formula_sum   'Sc8 Co2 Bi2 Te2'
_cell_volume   331.32294561
_cell_formula_units_Z   2
loop_
 _symmetry_equiv_pos_site_id
 _symmetry_equiv_pos_as_xyz
  1  'x, y, z'
loop_
 _atom_site_type_symbol
 _atom_site_label
 _atom_site_symmetry_multiplicity
 _atom_site_fract_x
 _atom_site_fract_y
 _atom_site_fract_z
 _atom_site_occupancy
  Sc  Sc0  1  0.68876382  0.57604518  0.26480899  1
  Sc  Sc1  1  0.57746011  0.30940687  0.88686697  1
  Sc  Sc2  1  0.07700681  0.19029727  0.26730408  1
  Sc  Sc3  1  0.92253989  0.80940687  0.73194676  1
  Sc  Sc4  1  0.19060776  0.92167043  0.11227819  1
  Sc  Sc5  1  0.81123618  0.07604518  0.88728136  1
  Sc  Sc6  1  0.30939224  0.42167043  0.73106366  1
  Sc  Sc7  1  0.42299319  0.69029727  0.11329046  1
  Co  Co0  1  0.25000000  0.24714906  0.99714906  1
  Co  Co1  1  0.75000000  0.74714906  0.99714906  1
  Bi  Bi0  1  0.64413420  0.85613363  0.50026783  1
  Bi  Bi1  1  0.85586580  0.35613363  0.21199743  1
  Te  Te0  1  0.14922709  0.64929856  0.79852766  1
  Te  Te1  1  0.35077291  0.14929856  0.50007047  1
loop_
_geom_bond_atom_site_label_1
_geom_bond_atom_site_label_2
_geom_bond_distance
_geom_bond_site_symmetry_2
Sc0 Te1 3.377254 1_555
Sc0 Te1 3.377260 1_665
Sc1 Te1 3.043609 1_555
Sc1 Te0 3.360758 1_655
Sc1 Te0 3.360767 1_545
Sc2 Te1 3.038034 1_555
Sc3 Te0 3.043604 1_655
Sc3 Te1 3.360768 1_555
Sc3 Te1 3.360771 1_665
Sc4 Te0 3.016751 1_554
Sc4 Te1 3.049982 1_565
Sc5 Te0 3.377253 1_655
Sc5 Te0 3.377263 1_545
Sc6 Te1 3.016773 1_555
Sc6 Te0 3.049991 1_555
Sc7 Te0 3.038026 1_554
Co0 Sc1 2.617047 1_555
Co0 Sc3 2.617047 1_445
Co0 Sc5 2.634138 1_455
Co0 Sc0 2.634138 1_556
Co0 Sc6 2.638115 1_555
Co0 Sc4 2.638123 1_546
Co0 Sc2 2.662212 1_556
Co0 Sc7 2.662213 1_556
Co1 Sc3 2.617047 1_555
Co1 Sc1 2.617047 1_555
Co1 Sc0 2.634137 1_556
Co1 Sc5 2.634137 1_565
Co1 Sc6 2.638119 1_555
Co1 Sc4 2.638123 1_656
Co1 Sc7 2.662213 1_556
Co1 Sc2 2.662213 1_666
Bi0 Sc5 3.026854 1_565
Bi0 Sc7 3.031200 1_555
Bi0 Sc3 3.098149 1_555
Bi0 Sc0 3.105745 1_555
Bi0 Sc6 3.377216 1_665
Bi0 Sc6 3.377219 1_555
Bi0 Sc2 3.382449 1_665
Bi0 Sc2 3.382450 1_555
Bi1 Sc0 3.026856 1_555
Bi1 Sc2 3.031202 1_655
Bi1 Sc1 3.098136 1_554
Bi1 Sc5 3.105732 1_554
Bi1 Sc4 3.377205 1_655
Bi1 Sc4 3.377214 1_545
Bi1 Sc7 3.382442 1_655
Bi1 Sc7 3.382451 1_545
