# generated using pymatgen
data_Sc(NbS2)3
_symmetry_space_group_name_H-M   'P 1'
_cell_length_a   5.83024090
_cell_length_b   5.83024006
_cell_length_c   12.99053644
_cell_angle_alpha   90.00000000
_cell_angle_beta   90.00000000
_cell_angle_gamma   120.00001045
_symmetry_Int_Tables_number   1
_chemical_formula_structural   Sc(NbS2)3
_chemical_formula_sum   'Sc2 Nb6 S12'
_cell_volume   382.41120495
_cell_formula_units_Z   2
loop_
 _symmetry_equiv_pos_site_id
 _symmetry_equiv_pos_as_xyz
  1  'x, y, z'
loop_
 _atom_site_type_symbol
 _atom_site_label
 _atom_site_symmetry_multiplicity
 _atom_site_fract_x
 _atom_site_fract_y
 _atom_site_fract_z
 _atom_site_occupancy
  Sc  Sc0  1  0.66666700  0.33333300  0.75000000  1
  Sc  Sc1  1  0.33333300  0.66666700  0.25000000  1
  Nb  Nb0  1  0.33333300  0.66666700  0.50114470  1
  Nb  Nb1  1  0.66666700  0.33333300  0.00114470  1
  Nb  Nb2  1  0.66666700  0.33333300  0.49885530  1
  Nb  Nb3  1  0.33333300  0.66666700  0.99885530  1
  Nb  Nb4  1  0.00000000  0.00000000  0.50000000  1
  Nb  Nb5  1  0.00000000  0.00000000  0.00000000  1
  S  S0  1  0.33211786  0.33174710  0.12156776  1
  S  S1  1  0.66825290  0.00037076  0.12156776  1
  S  S2  1  0.99962924  0.66788214  0.12156776  1
  S  S3  1  0.00037076  0.33211786  0.62156776  1
  S  S4  1  0.66788214  0.99962924  0.87843224  1
  S  S5  1  0.66788214  0.66825290  0.62156776  1
  S  S6  1  0.33174710  0.99962924  0.62156776  1
  S  S7  1  0.66825290  0.66788214  0.37843224  1
  S  S8  1  0.33211786  0.00037076  0.37843224  1
  S  S9  1  0.33174710  0.33211786  0.87843224  1
  S  S10  1  0.00037076  0.66825290  0.87843224  1
  S  S11  1  0.99962924  0.33174710  0.37843224  1
loop_
_geom_bond_atom_site_label_1
_geom_bond_atom_site_label_2
_geom_bond_distance
_geom_bond_site_symmetry_2
Nb0 S6 2.496740 1_555
Nb0 S3 2.496742 1_555
Nb0 S5 2.496744 1_555
Nb0 S8 2.517984 1_565
Nb0 S11 2.517987 1_455
Nb0 S7 2.517989 1_555
Nb1 S1 2.496740 1_555
Nb1 S2 2.496742 1_555
Nb1 S0 2.496744 1_555
Nb1 S4 2.517984 1_544
Nb1 S10 2.517987 1_654
Nb1 S9 2.517989 1_554
Nb2 S11 2.496740 1_555
Nb2 S8 2.496742 1_555
Nb2 S7 2.496744 1_555
Nb2 S3 2.517985 1_655
Nb2 S6 2.517987 1_545
Nb2 S5 2.517989 1_555
Nb3 S10 2.496740 1_555
Nb3 S4 2.496742 1_555
Nb3 S9 2.496744 1_555
Nb3 S2 2.517985 1_456
Nb3 S1 2.517987 1_566
Nb3 S0 2.517989 1_556
Nb4 S7 2.497829 1_445
Nb4 S5 2.497829 1_445
Nb4 S3 2.497829 1_555
Nb4 S11 2.497829 1_455
Nb4 S8 2.497829 1_555
Nb4 S6 2.497829 1_545
Nb5 S9 2.497829 1_554
Nb5 S0 2.497829 1_555
Nb5 S2 2.497829 1_445
Nb5 S10 2.497829 1_544
Nb5 S4 2.497829 1_444
Nb5 S1 2.497829 1_455
S0 Sc1 2.565674 1_555
S1 Sc1 2.565671 1_545
S2 Sc1 2.565670 1_655
S3 Sc0 2.565670 1_455
S4 Sc0 2.565669 1_565
S5 Sc0 2.565674 1_555
S6 Sc0 2.565671 1_565
S7 Sc1 2.565674 1_555
S8 Sc1 2.565669 1_545
S9 Sc0 2.565674 1_555
S10 Sc0 2.565671 1_455
S11 Sc1 2.565671 1_655
