# generated using pymatgen
data_Ca21Ga8Si6Hg
_symmetry_space_group_name_H-M   'P 1'
_cell_length_a   11.11480139
_cell_length_b   11.11480205
_cell_length_c   11.11480195
_cell_angle_alpha   60.00000324
_cell_angle_beta   60.00000128
_cell_angle_gamma   60.00000111
_symmetry_Int_Tables_number   1
_chemical_formula_structural   Ca21Ga8Si6Hg
_chemical_formula_sum   'Ca21 Ga8 Si6 Hg1'
_cell_volume   970.93507140
_cell_formula_units_Z   1
loop_
 _symmetry_equiv_pos_site_id
 _symmetry_equiv_pos_as_xyz
  1  'x, y, z'
loop_
 _atom_site_type_symbol
 _atom_site_label
 _atom_site_symmetry_multiplicity
 _atom_site_fract_x
 _atom_site_fract_y
 _atom_site_fract_z
 _atom_site_occupancy
  Ca  Ca0  1  0.87288835  0.87288835  0.38133396  1
  Ca  Ca1  1  0.61866604  0.12711165  0.12711165  1
  Ca  Ca2  1  0.87288835  0.38133396  0.87288835  1
  Ca  Ca3  1  0.12711165  0.12711165  0.12711165  1
  Ca  Ca4  1  0.38133396  0.87288835  0.87288835  1
  Ca  Ca5  1  0.87288835  0.87288835  0.87288835  1
  Ca  Ca6  1  0.17679392  0.82320608  0.50000000  1
  Ca  Ca7  1  0.82320608  0.50000000  0.50000000  1
  Ca  Ca8  1  0.12711165  0.12711165  0.61866604  1
  Ca  Ca9  1  0.82320608  0.17679392  0.50000000  1
  Ca  Ca10  1  0.17679392  0.50000000  0.50000000  1
  Ca  Ca11  1  0.12711165  0.61866604  0.12711165  1
  Ca  Ca12  1  0.50000000  0.50000000  0.17679392  1
  Ca  Ca13  1  0.50000000  0.17679392  0.82320608  1
  Ca  Ca14  1  0.50000000  0.82320608  0.17679392  1
  Ca  Ca15  1  0.50000000  0.50000000  0.82320608  1
  Ca  Ca16  1  0.50000000  0.17679392  0.50000000  1
  Ca  Ca17  1  0.17679392  0.50000000  0.82320608  1
  Ca  Ca18  1  0.00000000  0.00000000  0.00000000  1
  Ca  Ca19  1  0.50000000  0.82320608  0.50000000  1
  Ca  Ca20  1  0.82320608  0.50000000  0.17679392  1
  Ga  Ga0  1  0.69093764  0.92718807  0.69093764  1
  Ga  Ga1  1  0.69093764  0.69093764  0.92718807  1
  Ga  Ga2  1  0.69093764  0.69093764  0.69093764  1
  Ga  Ga3  1  0.30906236  0.07281193  0.30906236  1
  Ga  Ga4  1  0.92718807  0.69093764  0.69093764  1
  Ga  Ga5  1  0.30906236  0.30906236  0.07281193  1
  Ga  Ga6  1  0.07281193  0.30906236  0.30906236  1
  Ga  Ga7  1  0.30906236  0.30906236  0.30906236  1
  Si  Si0  1  0.78538802  0.21461198  0.78538802  1
  Si  Si1  1  0.78538802  0.21461198  0.21461198  1
  Si  Si2  1  0.21461198  0.78538802  0.21461198  1
  Si  Si3  1  0.21461198  0.78538802  0.78538802  1
  Si  Si4  1  0.78538802  0.78538802  0.21461198  1
  Si  Si5  1  0.21461198  0.21461198  0.78538802  1
  Hg  Hg0  1  0.50000000  0.50000000  0.50000000  1
loop_
_geom_bond_atom_site_label_1
_geom_bond_atom_site_label_2
_geom_bond_distance
_geom_bond_site_symmetry_2
Ca0 Si4 3.142593 1_555
Ca0 Si2 3.142601 1_655
Ca0 Si1 3.142602 1_565
Ca0 Ga2 3.192627 1_555
Ca0 Ga0 3.192636 1_555
Ca0 Ga4 3.192636 1_555
Ca1 Si1 3.142593 1_555
Ca1 Si0 3.142602 1_554
Ca1 Si4 3.142602 1_545
Ca1 Ga7 3.192627 1_555
Ca1 Ga5 3.192636 1_555
Ca1 Ga3 3.192636 1_555
Ca2 Si0 3.142593 1_555
Ca2 Si5 3.142601 1_655
Ca2 Si1 3.142602 1_556
Ca2 Ga2 3.192627 1_555
Ca2 Ga1 3.192636 1_555
Ca2 Ga4 3.192636 1_555
Ca3 Si1 3.142603 1_455
Ca3 Si5 3.142603 1_554
Ca3 Si2 3.142603 1_545
Ca3 Ga3 3.192617 1_555
Ca3 Ga5 3.192617 1_555
Ca3 Ga6 3.192617 1_555
Ca4 Si3 3.142593 1_555
Ca4 Si2 3.142602 1_556
Ca4 Si5 3.142602 1_565
Ca4 Ga2 3.192627 1_555
Ca4 Ga1 3.192636 1_555
Ca4 Ga0 3.192636 1_555
Ca5 Si3 3.142603 1_655
Ca5 Si4 3.142603 1_556
Ca5 Si0 3.142603 1_565
Ca5 Ga0 3.192617 1_555
Ca5 Ga1 3.192617 1_555
Ca5 Ga4 3.192617 1_555
Ca6 Ga4 3.071308 1_455
Ca6 Ga3 3.071308 1_565
Ca6 Si3 3.199761 1_555
Ca6 Si2 3.199761 1_555
Ca6 Hg0 3.592372 1_555
Ca7 Ga6 3.071314 1_655
Ca7 Ga2 3.071316 1_555
Ca7 Si4 3.199761 1_555
Ca7 Si0 3.199761 1_555
Ca7 Hg0 3.592371 1_555
Ca8 Si5 3.142593 1_555
Ca8 Si0 3.142601 1_455
Ca8 Si3 3.142602 1_545
Ca8 Ga7 3.192627 1_555
Ca8 Ga3 3.192636 1_555
Ca8 Ga6 3.192636 1_555
Ca9 Ga6 3.071308 1_655
Ca9 Ga0 3.071308 1_545
Ca9 Si1 3.199761 1_555
Ca9 Si0 3.199761 1_555
Ca9 Hg0 3.592372 1_555
Ca10 Ga4 3.071314 1_455
Ca10 Ga7 3.071316 1_555
Ca10 Si5 3.199761 1_555
Ca10 Si2 3.199761 1_555
Ca10 Hg0 3.592371 1_555
Ca11 Si2 3.142593 1_555
Ca11 Si4 3.142601 1_455
Ca11 Si3 3.142602 1_554
Ca11 Ga7 3.192627 1_555
Ca11 Ga5 3.192636 1_555
Ca11 Ga6 3.192636 1_555
Ca12 Ga1 3.071314 1_554
Ca12 Ga7 3.071316 1_555
Ca12 Si1 3.199761 1_555
Ca12 Si2 3.199761 1_555
Ca12 Hg0 3.592372 1_555
Ca13 Ga5 3.071308 1_556
Ca13 Ga0 3.071308 1_545
Ca13 Si5 3.199761 1_555
Ca13 Si0 3.199761 1_555
Ca13 Hg0 3.592372 1_555
Ca14 Ga1 3.071308 1_554
Ca14 Ga3 3.071308 1_565
Ca14 Si4 3.199761 1_555
Ca14 Si2 3.199761 1_555
Ca14 Hg0 3.592372 1_555
Ca15 Ga5 3.071314 1_556
Ca15 Ga2 3.071316 1_555
Ca15 Si3 3.199761 1_555
Ca15 Si0 3.199761 1_555
Ca15 Hg0 3.592372 1_555
Ca16 Ga0 3.071314 1_545
Ca16 Ga7 3.071316 1_555
Ca16 Si5 3.199761 1_555
Ca16 Si1 3.199761 1_555
Ca16 Hg0 3.592372 1_555
Ca17 Ga4 3.071308 1_455
Ca17 Ga5 3.071308 1_556
Ca17 Si5 3.199761 1_555
Ca17 Si3 3.199761 1_555
Ca17 Hg0 3.592372 1_555
Ca18 Si2 3.373422 1_545
Ca18 Si0 3.373422 1_454
Ca18 Si1 3.373422 1_455
Ca18 Si3 3.373422 1_544
Ca18 Si5 3.373422 1_554
Ca18 Si4 3.373422 1_445
Ca19 Ga3 3.071314 1_565
Ca19 Ga2 3.071316 1_555
Ca19 Si4 3.199761 1_555
Ca19 Si3 3.199761 1_555
Ca19 Hg0 3.592372 1_555
Ca20 Ga6 3.071308 1_655
Ca20 Ga1 3.071308 1_554
Ca20 Si4 3.199761 1_555
Ca20 Si1 3.199761 1_555
Ca20 Hg0 3.592372 1_555
Ga0 Ga4 2.625877 1_555
Ga0 Ga2 2.625877 1_555
Ga0 Ga1 2.625877 1_555
Ga1 Ga4 2.625877 1_555
Ga1 Ga2 2.625877 1_555
Ga2 Ga4 2.625877 1_555
Ga3 Ga6 2.625877 1_555
Ga3 Ga7 2.625877 1_555
Ga3 Ga5 2.625877 1_555
Ga5 Ga6 2.625877 1_555
Ga5 Ga7 2.625877 1_555
Ga6 Ga7 2.625877 1_555
