# generated using pymatgen
data_BiH7F12
_symmetry_space_group_name_H-M   'P 1'
_cell_length_a   7.90898681
_cell_length_b   7.90898677
_cell_length_c   5.13980390
_cell_angle_alpha   70.88223120
_cell_angle_beta   70.88223028
_cell_angle_gamma   45.00079319
_symmetry_Int_Tables_number   1
_chemical_formula_structural   BiH7F12
_chemical_formula_sum   'Bi1 H7 F12'
_cell_volume   212.57762134
_cell_formula_units_Z   1
loop_
 _symmetry_equiv_pos_site_id
 _symmetry_equiv_pos_as_xyz
  1  'x, y, z'
loop_
 _atom_site_type_symbol
 _atom_site_label
 _atom_site_symmetry_multiplicity
 _atom_site_fract_x
 _atom_site_fract_y
 _atom_site_fract_z
 _atom_site_occupancy
  Bi  Bi0  1  0.99875839  0.00124161  0.00000000  1
  H  H0  1  0.80391876  0.81680875  0.80168066  1
  H  H1  1  0.18319125  0.19608124  0.19831934  1
  H  H2  1  0.71838286  0.73529911  0.56598182  1
  H  H3  1  0.26470089  0.28161714  0.43401818  1
  H  H4  1  0.63212592  0.63951157  0.35859188  1
  H  H5  1  0.36048843  0.36787408  0.64140812  1
  H  H6  1  0.49904815  0.50095185  0.50000000  1
  F  F0  1  0.91044620  0.91172227  0.76502856  1
  F  F1  1  0.08827773  0.08955380  0.23497144  1
  F  F2  1  0.57126513  0.57244413  0.31338349  1
  F  F3  1  0.42755587  0.42873487  0.68661651  1
  F  F4  1  0.71488530  0.72801592  0.37678726  1
  F  F5  1  0.27198408  0.28511470  0.62321274  1
  F  F6  1  0.84975300  0.31830483  0.75064532  1
  F  F7  1  0.68169517  0.15024700  0.24935468  1
  F  F8  1  0.14860729  0.68442027  0.24997590  1
  F  F9  1  0.31557973  0.85139271  0.75002410  1
  F  F10  1  0.73138032  0.75204450  0.81463117  1
  F  F11  1  0.24795550  0.26861968  0.18536883  1
loop_
_geom_bond_atom_site_label_1
_geom_bond_atom_site_label_2
_geom_bond_distance
_geom_bond_site_symmetry_2
Bi0 F9 2.005739 1_644
Bi0 F8 2.005739 1_645
Bi0 F7 2.006146 1_555
Bi0 F6 2.006146 1_554
Bi0 F0 2.063889 1_544
Bi0 F1 2.063889 1_655
F0 H0 1.416568 1_555
F1 H1 1.416568 1_555
F2 H4 1.040251 1_555
F2 H6 1.143928 1_555
F3 H5 1.040251 1_555
F3 H6 1.143928 1_555
F4 H2 1.003122 1_555
F4 H4 1.287655 1_555
F5 H3 1.003122 1_555
F5 H5 1.287655 1_555
F10 H0 0.981922 1_555
F10 H2 1.370251 1_555
F11 H1 0.981922 1_555
F11 H3 1.370251 1_555
