# generated using pymatgen
data_MgBi3(Ru2O7)2
_symmetry_space_group_name_H-M   'P 1'
_cell_length_a   7.16442830
_cell_length_b   7.18246783
_cell_length_c   7.18325608
_cell_angle_alpha   60.71251821
_cell_angle_beta   60.61749369
_cell_angle_gamma   60.61301329
_symmetry_Int_Tables_number   1
_chemical_formula_structural   MgBi3(Ru2O7)2
_chemical_formula_sum   'Mg1 Bi3 Ru4 O14'
_cell_volume   265.19513308
_cell_formula_units_Z   1
loop_
 _symmetry_equiv_pos_site_id
 _symmetry_equiv_pos_as_xyz
  1  'x, y, z'
loop_
 _atom_site_type_symbol
 _atom_site_label
 _atom_site_symmetry_multiplicity
 _atom_site_fract_x
 _atom_site_fract_y
 _atom_site_fract_z
 _atom_site_occupancy
  Mg  Mg0  1  0.50000000  0.50000000  0.50000000  1
  Bi  Bi0  1  0.50000000  0.00000000  0.50000000  1
  Bi  Bi1  1  0.00000000  0.50000000  0.50000000  1
  Bi  Bi2  1  0.50000000  0.50000000  0.00000000  1
  Ru  Ru0  1  0.00000000  0.00000000  0.00000000  1
  Ru  Ru1  1  0.00000000  0.50000000  0.00000000  1
  Ru  Ru2  1  0.50000000  0.00000000  0.00000000  1
  Ru  Ru3  1  0.00000000  0.00000000  0.50000000  1
  O  O0  1  0.61025464  0.61310921  0.61312843  1
  O  O1  1  0.38974536  0.38689079  0.38687157  1
  O  O2  1  0.92022100  0.92040271  0.32795643  1
  O  O3  1  0.33035749  0.91833935  0.91837705  1
  O  O4  1  0.92023630  0.32792342  0.92045047  1
  O  O5  1  0.32301083  0.32376698  0.93255141  1
  O  O6  1  0.91875298  0.32964869  0.32962104  1
  O  O7  1  0.32301734  0.93251243  0.32380710  1
  O  O8  1  0.07977900  0.07959729  0.67204357  1
  O  O9  1  0.66964251  0.08166065  0.08162295  1
  O  O10  1  0.07976370  0.67207658  0.07954953  1
  O  O11  1  0.67698917  0.67623302  0.06744859  1
  O  O12  1  0.08124702  0.67035131  0.67037896  1
  O  O13  1  0.67698266  0.06748757  0.67619290  1
loop_
_geom_bond_atom_site_label_1
_geom_bond_atom_site_label_2
_geom_bond_distance
_geom_bond_site_symmetry_2
Mg0 O0 1.962123 1_555
Mg0 O1 1.962123 1_555
Mg0 O6 2.501040 1_555
Mg0 O12 2.501040 1_555
Mg0 O7 2.592732 1_555
Mg0 O13 2.592732 1_555
Mg0 O5 2.593352 1_555
Mg0 O11 2.593352 1_555
Bi0 O1 2.296201 1_555
Bi0 O0 2.296201 1_545
Bi0 O13 2.494545 1_555
Bi0 O7 2.494545 1_545
Bi0 O3 2.498772 1_545
Bi0 O9 2.498772 1_555
Bi0 O2 2.503831 1_545
Bi0 O8 2.503831 1_555
Bi1 O1 2.304410 1_555
Bi1 O0 2.304410 1_455
Bi1 O12 2.489355 1_555
Bi1 O6 2.489355 1_455
Bi1 O2 2.513943 1_455
Bi1 O8 2.513943 1_555
Bi1 O4 2.514596 1_455
Bi1 O10 2.514596 1_555
Bi2 O1 2.296445 1_555
Bi2 O0 2.296445 1_554
Bi2 O11 2.494582 1_555
Bi2 O5 2.494582 1_554
Bi2 O3 2.498166 1_554
Bi2 O9 2.498166 1_555
Bi2 O4 2.503905 1_554
Bi2 O10 2.503905 1_555
O2 Ru0 1.971042 1_665
O2 Ru3 1.971273 1_665
O3 Ru2 1.974914 1_566
O3 Ru0 1.975339 1_566
O4 Ru0 1.970593 1_656
O4 Ru1 1.971091 1_656
O5 Ru1 1.953815 1_556
O5 Ru2 1.963911 1_556
O6 Ru3 1.988471 1_655
O6 Ru1 1.988529 1_655
O7 Ru3 1.953881 1_565
O7 Ru2 1.964428 1_565
O8 Ru0 1.971042 1_556
O8 Ru3 1.971273 1_555
O9 Ru2 1.974914 1_555
O9 Ru0 1.975339 1_655
O10 Ru0 1.970593 1_565
O10 Ru1 1.971091 1_555
O11 Ru1 1.953815 1_655
O11 Ru2 1.963911 1_565
O12 Ru3 1.988471 1_565
O12 Ru1 1.988529 1_556
O13 Ru3 1.953881 1_655
O13 Ru2 1.964428 1_556
