# generated using pymatgen
data_HfAl3V2Ga
_symmetry_space_group_name_H-M   'P 1'
_cell_length_a   5.26727479
_cell_length_b   5.26727534
_cell_length_c   5.24111814
_cell_angle_alpha   103.59885062
_cell_angle_beta   103.59885475
_cell_angle_gamma   122.14676507
_symmetry_Int_Tables_number   1
_chemical_formula_structural   HfAl3V2Ga
_chemical_formula_sum   'Hf1 Al3 V2 Ga1'
_cell_volume   107.59245706
_cell_formula_units_Z   1
loop_
 _symmetry_equiv_pos_site_id
 _symmetry_equiv_pos_as_xyz
  1  'x, y, z'
loop_
 _atom_site_type_symbol
 _atom_site_label
 _atom_site_symmetry_multiplicity
 _atom_site_fract_x
 _atom_site_fract_y
 _atom_site_fract_z
 _atom_site_occupancy
  Hf  Hf0  1  0.00514179  0.99485821  0.00000000  1
  Al  Al0  1  0.30445038  0.30672716  0.61117754  1
  Al  Al1  1  0.69327284  0.69554962  0.38882246  1
  Al  Al2  1  0.69906387  0.30093613  1.00000000  1
  V  V0  1  0.24741003  0.75258997  0.50000000  1
  V  V1  1  0.74741003  0.25258997  0.50000000  1
  Ga  Ga0  1  0.30325006  0.69674994  0.00000000  1
loop_
_geom_bond_atom_site_label_1
_geom_bond_atom_site_label_2
_geom_bond_distance
_geom_bond_site_symmetry_2
Al0 Ga0 2.534662 1_556
Al0 Al2 2.564954 1_555
Al0 V1 2.670922 1_555
Al0 V0 2.670923 1_545
Al0 V1 2.693925 1_455
Al0 V0 2.693925 1_555
Al0 Al1 2.743739 1_555
Al0 Al1 2.743739 1_445
Al0 Hf0 2.799927 1_545
Al0 Hf0 3.108991 1_546
Al0 Hf0 3.108991 1_656
Al1 Ga0 2.534662 1_555
Al1 Al2 2.564954 1_554
Al1 V0 2.670922 1_655
Al1 V1 2.670923 1_555
Al1 V0 2.693925 1_555
Al1 V1 2.693925 1_565
Al1 Hf0 2.799927 1_656
Al1 Hf0 3.108991 1_655
Al1 Hf0 3.108991 1_545
Al2 V1 2.658202 1_556
Al2 V1 2.658202 1_555
Al2 V0 2.658202 1_656
Al2 V0 2.658202 1_545
Al2 Ga0 2.722809 1_656
Al2 Ga0 2.722810 1_546
Al2 Hf0 2.822118 1_646
Al2 Hf0 3.112536 1_546
Al2 Hf0 3.112536 1_656
V0 V1 2.547723 1_565
V0 V1 2.547723 1_455
Ga0 V0 2.670657 1_554
Ga0 V0 2.670657 1_555
Ga0 V1 2.670657 1_454
Ga0 V1 2.670658 1_565
Ga0 Hf0 2.748635 1_555
Ga0 Hf0 3.155321 1_655
Ga0 Hf0 3.155322 1_545
