# generated using pymatgen
data_Ti10AlGaSn4
_symmetry_space_group_name_H-M   'P 1'
_cell_length_a   5.17323246
_cell_length_b   7.89689648
_cell_length_c   7.89689570
_cell_angle_alpha   83.83114896
_cell_angle_beta   70.86806757
_cell_angle_gamma   70.86806421
_symmetry_Int_Tables_number   1
_chemical_formula_structural   Ti10AlGaSn4
_chemical_formula_sum   'Ti10 Al1 Ga1 Sn4'
_cell_volume   287.95439367
_cell_formula_units_Z   1
loop_
 _symmetry_equiv_pos_site_id
 _symmetry_equiv_pos_as_xyz
  1  'x, y, z'
loop_
 _atom_site_type_symbol
 _atom_site_label
 _atom_site_symmetry_multiplicity
 _atom_site_fract_x
 _atom_site_fract_y
 _atom_site_fract_z
 _atom_site_occupancy
  Ti  Ti0  1  0.71708770  0.85651671  0.70839743  1
  Ti  Ti1  1  0.28178231  0.14348805  0.29164171  1
  Ti  Ti2  1  0.78291230  0.29160257  0.14348329  1
  Ti  Ti3  1  0.21821769  0.70835829  0.85651195  1
  Ti  Ti4  1  0.57351845  0.70835701  0.14344434  1
  Ti  Ti5  1  0.42534429  0.29168530  0.85656854  1
  Ti  Ti6  1  0.07465571  0.14343146  0.70831470  1
  Ti  Ti7  1  0.92648155  0.85655566  0.29164299  1
  Ti  Ti8  1  0.75000000  0.49986249  0.50013751  1
  Ti  Ti9  1  0.25000000  0.50010767  0.49989233  1
  Al  Al0  1  0.25000000  0.99998857  0.00001143  1
  Ga  Ga0  1  0.75000000  0.00001552  0.99998448  1
  Sn  Sn0  1  0.16455683  0.50006223  0.17071799  1
  Sn  Sn1  1  0.83543103  0.49998902  0.82930156  1
  Sn  Sn2  1  0.33544317  0.82928201  0.49993777  1
  Sn  Sn3  1  0.66456897  0.17069844  0.50001098  1
loop_
_geom_bond_atom_site_label_1
_geom_bond_atom_site_label_2
_geom_bond_distance
_geom_bond_site_symmetry_2
Ti0 Ti3 3.017251 1_555
Ti0 Ti3 3.027063 1_655
Ti0 Ti7 3.109292 1_555
Ti1 Ti2 3.017251 1_455
Ti1 Ti2 3.027063 1_555
Ti1 Ti6 3.108689 1_555
Ti2 Ti4 3.109293 1_555
Ti3 Ti5 3.108689 1_555
Ti4 Ti7 3.016999 1_455
Ti4 Ti7 3.028071 1_555
Ti5 Ti6 3.018547 1_555
Ti5 Ti6 3.027124 1_655
Ti8 Ti9 2.586618 1_555
Ti8 Ti9 2.586618 1_655
Al0 Ga0 2.586616 1_464
Al0 Ga0 2.586616 1_564
Al0 Ti4 2.746496 1_555
Al0 Ti7 2.746496 1_455
Al0 Ti0 2.746682 1_554
Al0 Ti2 2.746682 1_465
Al0 Ti1 2.747012 1_565
Al0 Ti3 2.747012 1_554
Al0 Ti6 2.747252 1_564
Al0 Ti5 2.747252 1_564
Ga0 Ti5 2.749373 1_555
Ga0 Ti6 2.749373 1_655
Ga0 Ti0 2.749452 1_545
Ga0 Ti2 2.749452 1_556
Ga0 Ti1 2.749637 1_556
Ga0 Ti3 2.749637 1_645
Ga0 Ti7 2.749777 1_546
Ga0 Ti4 2.749778 1_546
Sn0 Ti9 2.775971 1_555
Sn0 Ti8 2.776859 1_455
Sn0 Ti7 2.808591 1_455
Sn0 Ti1 2.809077 1_555
Sn0 Ti3 2.812471 1_554
Sn0 Ti5 2.812576 1_554
Sn0 Ti4 3.022300 1_555
Sn0 Ti2 3.023082 1_455
Sn0 Ti4 3.026491 1_455
Sn0 Ti2 3.026954 1_555
Sn1 Ti8 2.775959 1_555
Sn1 Ti9 2.776735 1_655
Sn1 Ti0 2.808700 1_555
Sn1 Ti6 2.809190 1_655
Sn1 Ti4 2.812497 1_556
Sn1 Ti2 2.812692 1_556
Sn1 Ti5 3.021510 1_655
Sn1 Ti3 3.021797 1_555
Sn1 Ti5 3.027344 1_555
Sn1 Ti3 3.027522 1_655
Sn2 Ti9 2.775971 1_555
Sn2 Ti8 2.776859 1_555
Sn2 Ti4 2.808591 1_555
Sn2 Ti3 2.809076 1_555
Sn2 Ti1 2.812471 1_565
Sn2 Ti6 2.812576 1_565
Sn2 Ti7 3.022300 1_455
Sn2 Ti0 3.023081 1_555
Sn2 Ti7 3.026491 1_555
Sn2 Ti0 3.026954 1_455
Sn3 Ti8 2.775959 1_555
Sn3 Ti9 2.776735 1_555
Sn3 Ti2 2.808700 1_555
Sn3 Ti5 2.809190 1_555
Sn3 Ti7 2.812497 1_545
Sn3 Ti0 2.812692 1_545
Sn3 Ti6 3.021510 1_555
Sn3 Ti1 3.021797 1_655
Sn3 Ti6 3.027343 1_655
Sn3 Ti1 3.027522 1_555
