# generated using pymatgen
data_Lu5Co18ReP12
_symmetry_space_group_name_H-M   'P 1'
_cell_length_a   11.80342930
_cell_length_b   11.80343074
_cell_length_c   3.64026363
_cell_angle_alpha   90.00000000
_cell_angle_beta   90.00000000
_cell_angle_gamma   119.76152900
_symmetry_Int_Tables_number   1
_chemical_formula_structural   Lu5Co18ReP12
_chemical_formula_sum   'Lu5 Co18 Re1 P12'
_cell_volume   440.26942446
_cell_formula_units_Z   1
loop_
 _symmetry_equiv_pos_site_id
 _symmetry_equiv_pos_as_xyz
  1  'x, y, z'
loop_
 _atom_site_type_symbol
 _atom_site_label
 _atom_site_symmetry_multiplicity
 _atom_site_fract_x
 _atom_site_fract_y
 _atom_site_fract_z
 _atom_site_occupancy
  Lu  Lu0  1  0.66641264  0.33470153  0.00000000  1
  Lu  Lu1  1  0.33470153  0.66641264  0.00000000  1
  Lu  Lu2  1  0.81640591  0.81640591  0.50000000  1
  Lu  Lu3  1  0.18691156  0.99993574  0.50000000  1
  Lu  Lu4  1  0.99993574  0.18691156  0.50000000  1
  Co  Co0  1  0.87526000  0.35794555  0.50000000  1
  Co  Co1  1  0.64344464  0.51731926  0.50000000  1
  Co  Co2  1  0.48496298  0.12808726  0.50000000  1
  Co  Co3  1  0.35794555  0.87526000  0.50000000  1
  Co  Co4  1  0.51731926  0.64344464  0.50000000  1
  Co  Co5  1  0.12808726  0.48496298  0.50000000  1
  Co  Co6  1  0.55313595  0.00131065  0.00000000  1
  Co  Co7  1  0.00131065  0.55313595  0.00000000  1
  Co  Co8  1  0.80019177  0.17785572  0.00000000  1
  Co  Co9  1  0.82275387  0.62259686  0.00000000  1
  Co  Co10  1  0.37350540  0.19565150  0.00000000  1
  Co  Co11  1  0.17785572  0.80019177  0.00000000  1
  Co  Co12  1  0.62259686  0.82275387  0.00000000  1
  Co  Co13  1  0.19565150  0.37350540  0.00000000  1
  Co  Co14  1  0.28072325  0.28072325  0.50000000  1
  Co  Co15  1  0.71480782  0.99995098  0.50000000  1
  Co  Co16  1  0.99995098  0.71480782  0.50000000  1
  Co  Co17  1  0.99749212  0.99749212  0.00000000  1
  Re  Re0  1  0.44628708  0.44628708  0.00000000  1
  P  P0  1  0.68674596  0.16835773  0.50000000  1
  P  P1  1  0.83421056  0.51871735  0.50000000  1
  P  P2  1  0.48009029  0.31374484  0.50000000  1
  P  P3  1  0.16835773  0.68674596  0.50000000  1
  P  P4  1  0.51871735  0.83421056  0.50000000  1
  P  P5  1  0.31374484  0.48009029  0.50000000  1
  P  P6  1  0.17514305  0.17514305  0.00000000  1
  P  P7  1  0.82071347  0.00037581  0.00000000  1
  P  P8  1  0.00037581  0.82071347  0.00000000  1
  P  P9  1  0.64008445  0.64008445  0.00000000  1
  P  P10  1  0.36516969  0.99899476  0.00000000  1
  P  P11  1  0.99899476  0.36516969  0.00000000  1
loop_
_geom_bond_atom_site_label_1
_geom_bond_atom_site_label_2
_geom_bond_distance
_geom_bond_site_symmetry_2
Lu0 P2 2.769595 1_555
Lu0 P2 2.769595 1_554
Lu0 P1 2.771724 1_555
Lu0 P1 2.771724 1_554
Lu0 P0 2.773690 1_554
Lu0 P0 2.773690 1_555
Lu1 P5 2.769595 1_554
Lu1 P5 2.769595 1_555
Lu1 P4 2.771724 1_555
Lu1 P4 2.771724 1_554
Lu1 P3 2.773690 1_554
Lu1 P3 2.773690 1_555
Lu2 P9 2.770474 1_556
Lu2 P9 2.770474 1_555
Lu2 P8 2.814456 1_655
Lu2 P8 2.814456 1_656
Lu2 P7 2.814456 1_565
Lu2 P7 2.814456 1_566
Lu3 P10 2.786263 1_556
Lu3 P10 2.786263 1_555
Lu3 P6 2.809660 1_565
Lu3 P6 2.809660 1_566
Lu3 P8 2.830484 1_556
Lu3 P8 2.830484 1_555
Lu4 P11 2.786263 1_555
Lu4 P11 2.786263 1_556
Lu4 P6 2.809660 1_655
Lu4 P6 2.809660 1_656
Lu4 P7 2.830484 1_555
Lu4 P7 2.830484 1_556
Co0 P1 2.179151 1_555
Co0 P0 2.239515 1_555
Co0 P11 2.308584 1_555
Co0 P11 2.308584 1_556
Co0 Lu0 2.965384 1_556
Co0 Lu0 2.965384 1_555
Co0 Lu4 3.031588 1_555
Co1 P2 2.211764 1_555
Co1 P1 2.243546 1_555
Co1 P9 2.339072 1_556
Co1 P9 2.339072 1_555
Co1 Lu0 2.934752 1_556
Co1 Lu0 2.934752 1_555
Co1 Lu2 3.078216 1_555
Co2 P0 2.185096 1_555
Co2 P2 2.220507 1_555
Co2 P10 2.344141 1_546
Co2 P10 2.344141 1_545
Co2 Lu0 2.943121 1_556
Co2 Lu0 2.943121 1_555
Co2 Lu3 3.062925 1_545
Co3 P4 2.179150 1_555
Co3 P3 2.239515 1_555
Co3 P10 2.308584 1_555
Co3 P10 2.308584 1_556
Co3 Lu1 2.965384 1_556
Co3 Lu1 2.965384 1_555
Co3 Lu3 3.031588 1_555
Co4 P5 2.211764 1_555
Co4 P4 2.243547 1_555
Co4 P9 2.339072 1_556
Co4 P9 2.339072 1_555
Co4 Lu1 2.934752 1_556
Co4 Lu1 2.934752 1_555
Co4 Lu2 3.078215 1_555
Co5 P3 2.185096 1_555
Co5 P5 2.220507 1_555
Co5 P11 2.344141 1_455
Co5 P11 2.344141 1_456
Co5 Lu1 2.943121 1_556
Co5 Lu1 2.943121 1_555
Co5 Lu4 3.062925 1_455
Co6 P10 2.205205 1_545
Co6 P4 2.563709 1_544
Co6 P4 2.563709 1_545
Co6 P0 2.569167 1_555
Co6 P0 2.569167 1_554
Co7 P11 2.205205 1_455
Co7 P1 2.563709 1_454
Co7 P1 2.563709 1_455
Co7 P3 2.569166 1_554
Co7 P3 2.569166 1_555
Co8 P7 2.225069 1_555
Co8 P0 2.229230 1_554
Co8 P0 2.229230 1_555
Co8 P11 2.289967 1_555
Co8 Lu4 2.938144 1_554
Co8 Lu4 2.938144 1_555
Co8 Lu0 2.970356 1_555
Co9 P8 2.235305 1_655
Co9 P1 2.235885 1_555
Co9 P1 2.235885 1_554
Co9 P9 2.265684 1_555
Co9 Lu2 2.953274 1_555
Co9 Lu2 2.953274 1_554
Co9 Lu0 2.954190 1_555
Co10 P6 2.231113 1_555
Co10 P2 2.257790 1_554
Co10 P2 2.257790 1_555
Co10 P10 2.273989 1_545
Co10 Lu3 2.906735 1_544
Co10 Lu3 2.906735 1_545
Co10 Lu0 3.002222 1_555
Co11 P8 2.225069 1_555
Co11 P3 2.229230 1_554
Co11 P3 2.229230 1_555
Co11 P10 2.289967 1_555
Co11 Lu3 2.938145 1_555
Co11 Lu3 2.938145 1_554
Co11 Lu1 2.970356 1_555
Co12 P7 2.235305 1_565
Co12 P4 2.235885 1_555
Co12 P4 2.235885 1_554
Co12 P9 2.265685 1_555
Co12 Lu2 2.953274 1_554
Co12 Lu2 2.953274 1_555
Co12 Lu1 2.954190 1_555
Co13 P6 2.231113 1_555
Co13 P5 2.257790 1_554
Co13 P5 2.257790 1_555
Co13 P11 2.273989 1_455
Co13 Lu4 2.906735 1_455
Co13 Lu4 2.906735 1_454
Co13 Lu1 3.002222 1_555
Co14 P2 2.186081 1_555
Co14 P5 2.186082 1_555
Co14 P6 2.208421 1_555
Co14 P6 2.208421 1_556
Co14 Lu4 2.926946 1_455
Co14 Lu3 2.926947 1_545
Co15 P4 2.165401 1_555
Co15 P0 2.171318 1_565
Co15 P7 2.206651 1_566
Co15 P7 2.206651 1_565
Co15 Lu2 2.951429 1_555
Co15 Lu4 2.970369 1_565
Co16 P1 2.165401 1_555
Co16 P3 2.171318 1_655
Co16 P8 2.206651 1_655
Co16 P8 2.206651 1_656
Co16 Lu2 2.951429 1_555
Co16 Lu3 2.970369 1_655
Co17 P7 2.103698 1_565
Co17 P8 2.103698 1_655
Co17 P6 2.104444 1_665
Co17 Lu2 2.813272 1_555
Co17 Lu2 2.813272 1_554
Co17 Lu3 2.872018 1_654
Co17 Lu3 2.872018 1_655
Co17 Lu4 2.872018 1_565
Co17 Lu4 2.872018 1_564
P2 Re0 2.557204 1_555
P2 Re0 2.557204 1_556
P5 Re0 2.557204 1_555
P5 Re0 2.557204 1_556
P9 Re0 2.295714 1_555
