# generated using pymatgen
data_Zr3In2OF12
_symmetry_space_group_name_H-M   'P 1'
_cell_length_a   10.88267652
_cell_length_b   10.88267678
_cell_length_c   10.88267641
_cell_angle_alpha   41.56887688
_cell_angle_beta   41.56887738
_cell_angle_gamma   41.56887430
_symmetry_Int_Tables_number   1
_chemical_formula_structural   Zr3In2OF12
_chemical_formula_sum   'Zr6 In4 O2 F24'
_cell_volume   512.84263622
_cell_formula_units_Z   2
loop_
 _symmetry_equiv_pos_site_id
 _symmetry_equiv_pos_as_xyz
  1  'x, y, z'
loop_
 _atom_site_type_symbol
 _atom_site_label
 _atom_site_symmetry_multiplicity
 _atom_site_fract_x
 _atom_site_fract_y
 _atom_site_fract_z
 _atom_site_occupancy
  Zr  Zr0  1  0.57608429  0.57608429  0.02933869  1
  Zr  Zr1  1  0.02933869  0.57608429  0.57608429  1
  Zr  Zr2  1  0.57608429  0.02933869  0.57608429  1
  Zr  Zr3  1  0.42391571  0.97066131  0.42391571  1
  Zr  Zr4  1  0.97066131  0.42391571  0.42391571  1
  Zr  Zr5  1  0.42391571  0.42391571  0.97066131  1
  In  In0  1  0.00000000  0.00000000  0.00000000  1
  In  In1  1  0.50000000  0.50000000  0.50000000  1
  In  In2  1  0.14401481  0.14401481  0.14401481  1
  In  In3  1  0.85598519  0.85598519  0.85598519  1
  O  O0  1  0.71156614  0.71156614  0.71156614  1
  O  O1  1  0.28843386  0.28843386  0.28843386  1
  F  F0  1  0.70611102  0.70611102  0.37133706  1
  F  F1  1  0.37133706  0.70611102  0.70611102  1
  F  F2  1  0.70611102  0.37133706  0.70611102  1
  F  F3  1  0.29388898  0.62866294  0.29388898  1
  F  F4  1  0.29388898  0.29388898  0.62866294  1
  F  F5  1  0.62866294  0.29388898  0.29388898  1
  F  F6  1  0.90941827  0.90941827  0.40629097  1
  F  F7  1  0.40629097  0.90941827  0.90941827  1
  F  F8  1  0.64929596  0.35070404  1.00000000  1
  F  F9  1  0.35070404  1.00000000  0.64929596  1
  F  F10  1  0.00000000  0.64929596  0.35070404  1
  F  F11  1  0.35070404  0.64929596  0.00000000  1
  F  F12  1  0.64929596  0.00000000  0.35070404  1
  F  F13  1  1.00000000  0.35070404  0.64929596  1
  F  F14  1  0.92028228  0.34778535  0.34778535  1
  F  F15  1  0.34778535  0.34778535  0.92028228  1
  F  F16  1  0.34778535  0.92028228  0.34778535  1
  F  F17  1  0.65221465  0.07971772  0.65221465  1
  F  F18  1  0.07971772  0.65221465  0.65221465  1
  F  F19  1  0.65221465  0.65221465  0.07971772  1
  F  F20  1  0.59370903  0.09058173  0.09058173  1
  F  F21  1  0.09058173  0.09058173  0.59370903  1
  F  F22  1  0.09058173  0.59370903  0.09058173  1
  F  F23  1  0.90941827  0.40629097  0.90941827  1
loop_
_geom_bond_atom_site_label_1
_geom_bond_atom_site_label_2
_geom_bond_distance
_geom_bond_site_symmetry_2
O0 Zr1 2.073866 1_655
O0 Zr2 2.073866 1_565
O0 Zr0 2.073866 1_556
O1 Zr4 2.073866 1_455
O1 Zr3 2.073866 1_545
O1 Zr5 2.073866 1_554
F0 Zr4 2.157132 1_555
F0 Zr3 2.157132 1_555
F1 Zr5 2.157132 1_555
F1 Zr3 2.157132 1_555
F2 Zr5 2.157132 1_555
F2 Zr4 2.157132 1_555
F3 Zr0 2.157132 1_555
F3 Zr1 2.157132 1_555
F4 Zr1 2.157132 1_555
F4 Zr2 2.157132 1_555
F5 Zr0 2.157132 1_555
F5 Zr2 2.157132 1_555
F6 Zr2 2.184364 1_565
F6 Zr1 2.184364 1_655
F7 Zr0 2.184364 1_556
F7 Zr2 2.184364 1_565
F8 Zr5 2.149356 1_555
F8 Zr0 2.149356 1_556
F8 In0 2.708663 1_656
F9 Zr3 2.149356 1_555
F9 Zr2 2.149356 1_565
F9 In0 2.708663 1_566
F10 Zr1 2.149356 1_555
F10 Zr4 2.149356 1_455
F10 In0 2.708663 1_565
F11 Zr0 2.149356 1_555
F11 Zr5 2.149356 1_554
F11 In0 2.708663 1_565
F12 Zr2 2.149356 1_555
F12 Zr3 2.149356 1_545
F12 In0 2.708663 1_655
F13 Zr4 2.149356 1_555
F13 Zr1 2.149356 1_655
F13 In0 2.708663 1_656
F14 Zr4 2.014912 1_555
F14 In2 2.638849 1_655
F15 Zr5 2.014912 1_555
F15 In2 2.638849 1_556
F16 Zr3 2.014912 1_555
F16 In2 2.638849 1_565
F17 Zr2 2.014912 1_555
F17 In3 2.638849 1_545
F18 Zr1 2.014912 1_555
F18 In3 2.638849 1_455
F19 Zr0 2.014912 1_555
F19 In3 2.638849 1_554
F20 Zr5 2.184364 1_554
F20 Zr3 2.184364 1_545
F21 Zr3 2.184364 1_545
F21 Zr4 2.184364 1_455
F22 Zr5 2.184364 1_554
F22 Zr4 2.184364 1_455
F23 Zr0 2.184364 1_556
F23 Zr1 2.184364 1_655
