# generated using pymatgen
data_Rb4VInCl12
_symmetry_space_group_name_H-M   'P 1'
_cell_length_a   7.16389077
_cell_length_b   7.16389077
_cell_length_c   9.95564821
_cell_angle_alpha   90.00000000
_cell_angle_beta   90.00000000
_cell_angle_gamma   90.00000000
_symmetry_Int_Tables_number   1
_chemical_formula_structural   Rb4VInCl12
_chemical_formula_sum   'Rb4 V1 In1 Cl12'
_cell_volume   510.93711684
_cell_formula_units_Z   1
loop_
 _symmetry_equiv_pos_site_id
 _symmetry_equiv_pos_as_xyz
  1  'x, y, z'
loop_
 _atom_site_type_symbol
 _atom_site_label
 _atom_site_symmetry_multiplicity
 _atom_site_fract_x
 _atom_site_fract_y
 _atom_site_fract_z
 _atom_site_occupancy
  Rb  Rb0  1  0.50000000  0.00000000  0.77349037  1
  Rb  Rb1  1  0.00000000  0.50000000  0.22650963  1
  Rb  Rb2  1  0.50000000  0.00000000  0.22650963  1
  Rb  Rb3  1  0.00000000  0.50000000  0.77349037  1
  V  V0  1  0.50000000  0.50000000  0.50000000  1
  In  In0  1  0.00000000  0.00000000  0.00000000  1
  Cl  Cl0  1  0.00000000  0.00000000  0.74417383  1
  Cl  Cl1  1  0.50000000  0.50000000  0.27207184  1
  Cl  Cl2  1  0.72434744  0.72434744  0.50000000  1
  Cl  Cl3  1  0.24866631  0.24866631  0.00000000  1
  Cl  Cl4  1  0.72434744  0.27565256  0.50000000  1
  Cl  Cl5  1  0.24866631  0.75133369  0.00000000  1
  Cl  Cl6  1  0.00000000  0.00000000  0.25582617  1
  Cl  Cl7  1  0.50000000  0.50000000  0.72792816  1
  Cl  Cl8  1  0.27565256  0.27565256  0.50000000  1
  Cl  Cl9  1  0.75133369  0.75133369  0.00000000  1
  Cl  Cl10  1  0.27565256  0.72434744  0.50000000  1
  Cl  Cl11  1  0.75133369  0.24866631  0.00000000  1
loop_
_geom_bond_atom_site_label_1
_geom_bond_atom_site_label_2
_geom_bond_distance
_geom_bond_site_symmetry_2
Cl0 In0 2.546915 1_556
Cl0 Rb3 3.593817 1_545
Cl0 Rb3 3.593817 1_555
Cl0 Rb0 3.593817 1_455
Cl0 Rb0 3.593817 1_555
Cl1 V0 2.269173 1_555
Cl1 Rb2 3.610552 1_565
Cl1 Rb1 3.610552 1_655
Cl1 Rb1 3.610552 1_555
Cl1 Rb2 3.610552 1_555
Cl2 V0 2.272925 1_555
Cl2 Rb0 3.727762 1_565
Cl2 Rb3 3.727762 1_655
Cl2 Rb1 3.727762 1_655
Cl2 Rb2 3.727762 1_565
Cl3 In0 2.519306 1_555
Cl3 Rb1 3.391253 1_555
Cl3 Rb2 3.391253 1_555
Cl3 Rb0 3.391253 1_554
Cl3 Rb3 3.391253 1_554
Cl4 V0 2.272925 1_555
Cl4 Rb0 3.727762 1_555
Cl4 Rb2 3.727762 1_555
Cl4 Rb3 3.727762 1_655
Cl4 Rb1 3.727762 1_655
Cl5 In0 2.519306 1_565
Cl5 Rb1 3.391253 1_555
Cl5 Rb3 3.391253 1_554
Cl5 Rb2 3.391253 1_565
Cl5 Rb0 3.391253 1_564
Cl6 In0 2.546915 1_555
Cl6 Rb1 3.593817 1_545
Cl6 Rb1 3.593817 1_555
Cl6 Rb2 3.593817 1_555
Cl6 Rb2 3.593817 1_455
Cl7 V0 2.269173 1_555
Cl7 Rb0 3.610552 1_565
Cl7 Rb3 3.610552 1_555
Cl7 Rb3 3.610552 1_655
Cl7 Rb0 3.610552 1_555
Cl8 V0 2.272925 1_555
Cl8 Rb0 3.727762 1_555
Cl8 Rb3 3.727762 1_555
Cl8 Rb1 3.727762 1_555
Cl8 Rb2 3.727762 1_555
Cl9 In0 2.519306 1_665
Cl9 Rb2 3.391253 1_565
Cl9 Rb1 3.391253 1_655
Cl9 Rb3 3.391253 1_654
Cl9 Rb0 3.391253 1_564
Cl10 V0 2.272925 1_555
Cl10 Rb3 3.727762 1_555
Cl10 Rb1 3.727762 1_555
Cl10 Rb0 3.727762 1_565
Cl10 Rb2 3.727762 1_565
Cl11 In0 2.519306 1_655
Cl11 Rb2 3.391253 1_555
Cl11 Rb0 3.391253 1_554
Cl11 Rb1 3.391253 1_655
Cl11 Rb3 3.391253 1_654
