# generated using pymatgen
data_Hf3Ti(AuN)2
_symmetry_space_group_name_H-M   'P 1'
_cell_length_a   17.27632245
_cell_length_b   17.27632287
_cell_length_c   8.86161100
_cell_angle_alpha   90.00000000
_cell_angle_beta   90.00000000
_cell_angle_gamma   158.91870686
_symmetry_Int_Tables_number   1
_chemical_formula_structural   Hf3Ti(AuN)2
_chemical_formula_sum   'Hf24 Ti8 Au16 N16'
_cell_volume   951.36308206
_cell_formula_units_Z   8
loop_
 _symmetry_equiv_pos_site_id
 _symmetry_equiv_pos_as_xyz
  1  'x, y, z'
loop_
 _atom_site_type_symbol
 _atom_site_label
 _atom_site_symmetry_multiplicity
 _atom_site_fract_x
 _atom_site_fract_y
 _atom_site_fract_z
 _atom_site_occupancy
  Hf  Hf0_0  1  0.05471260  0.44528640  0.12500000  1
  Hf  Hf0_1  1  0.05471260  0.44528640  0.62500000  1
  Hf  Hf0_2  1  0.05471260  0.94528640  0.12500000  1
  Hf  Hf0_3  1  0.05471260  0.94528640  0.62500000  1
  Hf  Hf0_4  1  0.55471260  0.44528640  0.12500000  1
  Hf  Hf0_5  1  0.55471260  0.44528640  0.62500000  1
  Hf  Hf0_6  1  0.55471260  0.94528640  0.12500000  1
  Hf  Hf0_7  1  0.55471260  0.94528640  0.62500000  1
  Hf  Hf1_0  1  0.44570110  0.05429790  0.37500050  1
  Hf  Hf1_1  1  0.44570110  0.05429790  0.87500050  1
  Hf  Hf1_2  1  0.44570110  0.55429790  0.37500050  1
  Hf  Hf1_3  1  0.44570110  0.55429790  0.87500050  1
  Hf  Hf1_4  1  0.94570110  0.05429790  0.37500050  1
  Hf  Hf1_5  1  0.94570110  0.05429790  0.87500050  1
  Hf  Hf1_6  1  0.94570110  0.55429790  0.37500050  1
  Hf  Hf1_7  1  0.94570110  0.55429790  0.87500050  1
  Hf  Hf2_0  1  0.35656159  0.14343741  0.37500050  1
  Hf  Hf2_1  1  0.35656159  0.14343741  0.87500050  1
  Hf  Hf2_2  1  0.35656159  0.64343741  0.37500050  1
  Hf  Hf2_3  1  0.35656159  0.64343741  0.87500050  1
  Hf  Hf2_4  1  0.85656159  0.14343741  0.37500050  1
  Hf  Hf2_5  1  0.85656159  0.14343741  0.87500050  1
  Hf  Hf2_6  1  0.85656159  0.64343741  0.37500050  1
  Hf  Hf2_7  1  0.85656159  0.64343741  0.87500050  1
  Ti  Ti0_0  1  0.14246438  0.35753462  0.12500000  1
  Ti  Ti0_1  1  0.14246438  0.35753462  0.62500000  1
  Ti  Ti0_2  1  0.14246438  0.85753462  0.12500000  1
  Ti  Ti0_3  1  0.14246438  0.85753462  0.62500000  1
  Ti  Ti0_4  1  0.64246438  0.35753462  0.12500000  1
  Ti  Ti0_5  1  0.64246438  0.35753462  0.62500000  1
  Ti  Ti0_6  1  0.64246438  0.85753462  0.12500000  1
  Ti  Ti0_7  1  0.64246438  0.85753462  0.62500000  1
  Au  Au0_0  1  0.22517137  0.27482713  0.12500000  1
  Au  Au0_1  1  0.22517137  0.27482713  0.62500000  1
  Au  Au0_2  1  0.22517137  0.77482713  0.12500000  1
  Au  Au0_3  1  0.22517137  0.77482713  0.62500000  1
  Au  Au0_4  1  0.72517137  0.27482713  0.12500000  1
  Au  Au0_5  1  0.72517137  0.27482713  0.62500000  1
  Au  Au0_6  1  0.72517137  0.77482713  0.12500000  1
  Au  Au0_7  1  0.72517137  0.77482713  0.62500000  1
  Au  Au1_0  1  0.27350000  0.22649850  0.37500050  1
  Au  Au1_1  1  0.27350000  0.22649850  0.87500050  1
  Au  Au1_2  1  0.27350000  0.72649850  0.37500050  1
  Au  Au1_3  1  0.27350000  0.72649850  0.87500050  1
  Au  Au1_4  1  0.77350000  0.22649850  0.37500050  1
  Au  Au1_5  1  0.77350000  0.22649850  0.87500050  1
  Au  Au1_6  1  0.77350000  0.72649850  0.37500050  1
  Au  Au1_7  1  0.77350000  0.72649850  0.87500050  1
  N  N0_0  1  0.35064033  0.14935867  0.12500000  1
  N  N0_1  1  0.35064033  0.14935867  0.62500000  1
  N  N0_2  1  0.35064033  0.64935867  0.12500000  1
  N  N0_3  1  0.35064033  0.64935867  0.62500000  1
  N  N0_4  1  0.85064033  0.14935867  0.12500000  1
  N  N0_5  1  0.85064033  0.14935867  0.62500000  1
  N  N0_6  1  0.85064033  0.64935867  0.12500000  1
  N  N0_7  1  0.85064033  0.64935867  0.62500000  1
  N  N1_0  1  0.15124363  0.34875537  0.37500050  1
  N  N1_1  1  0.15124363  0.34875537  0.87500050  1
  N  N1_2  1  0.15124363  0.84875537  0.37500050  1
  N  N1_3  1  0.15124363  0.84875537  0.87500050  1
  N  N1_4  1  0.65124363  0.34875537  0.37500050  1
  N  N1_5  1  0.65124363  0.34875537  0.87500050  1
  N  N1_6  1  0.65124363  0.84875537  0.37500050  1
  N  N1_7  1  0.65124363  0.84875537  0.87500050  1
loop_
_geom_bond_atom_site_label_1
_geom_bond_atom_site_label_2
_geom_bond_distance
_geom_bond_site_symmetry_2
Hf0_0 N0_2 2.220608 1_555
Hf0_0 N0_4 2.220609 1_455
Hf0_1 N0_3 2.220608 1_555
Hf0_1 N0_5 2.220609 1_455
Hf0_2 N0_0 2.220608 1_565
Hf0_2 N0_6 2.220609 1_455
Hf0_3 N0_1 2.220608 1_565
Hf0_3 N0_7 2.220609 1_455
Hf0_4 N0_6 2.220608 1_555
Hf0_4 N0_0 2.220609 1_555
Hf0_5 N0_7 2.220608 1_555
Hf0_5 N0_1 2.220609 1_555
Hf0_6 N0_4 2.220608 1_565
Hf0_6 N0_2 2.220609 1_555
Hf0_7 N0_5 2.220608 1_565
Hf0_7 N0_3 2.220609 1_555
Hf1_0 N1_2 2.185808 1_545
Hf1_0 N1_4 2.185808 1_555
Hf1_1 N1_3 2.185808 1_545
Hf1_1 N1_5 2.185808 1_555
Hf1_2 N1_0 2.185808 1_555
Hf1_2 N1_6 2.185808 1_555
Hf1_3 N1_1 2.185808 1_555
Hf1_3 N1_7 2.185808 1_555
Hf1_4 N1_6 2.185808 1_545
Hf1_4 N1_0 2.185808 1_655
Hf1_5 N1_7 2.185808 1_545
Hf1_5 N1_1 2.185808 1_655
Hf1_6 N1_4 2.185808 1_555
Hf1_6 N1_2 2.185808 1_655
Hf1_7 N1_5 2.185808 1_555
Hf1_7 N1_3 2.185808 1_655
Hf2_0 N1_4 2.191085 1_555
Hf2_0 N1_2 2.191086 1_545
Hf2_0 N0_1 2.224511 1_555
Hf2_0 N0_0 2.224520 1_555
Hf2_1 N1_5 2.191085 1_555
Hf2_1 N1_3 2.191086 1_545
Hf2_1 N0_0 2.224511 1_556
Hf2_1 N0_1 2.224520 1_555
Hf2_2 N1_6 2.191085 1_555
Hf2_2 N1_0 2.191086 1_555
Hf2_2 N0_3 2.224511 1_555
Hf2_2 N0_2 2.224520 1_555
Hf2_3 N1_7 2.191085 1_555
Hf2_3 N1_1 2.191086 1_555
Hf2_3 N0_2 2.224511 1_556
Hf2_3 N0_3 2.224520 1_555
Hf2_4 N1_0 2.191085 1_655
Hf2_4 N1_6 2.191086 1_545
Hf2_4 N0_5 2.224511 1_555
Hf2_4 N0_4 2.224520 1_555
Hf2_5 N1_1 2.191085 1_655
Hf2_5 N1_7 2.191086 1_545
Hf2_5 N0_4 2.224511 1_556
Hf2_5 N0_5 2.224520 1_555
Hf2_6 N1_2 2.191085 1_655
Hf2_6 N1_4 2.191086 1_555
Hf2_6 N0_7 2.224511 1_555
Hf2_6 N0_6 2.224520 1_555
Hf2_7 N1_3 2.191085 1_655
Hf2_7 N1_5 2.191086 1_555
Hf2_7 N0_6 2.224511 1_556
Hf2_7 N0_7 2.224520 1_555
Au0_0 Au1_1 2.757386 1_554
Au0_0 Au1_0 2.757393 1_555
Au0_0 Ti0_0 2.809531 1_555
Au0_0 Hf1_5 2.899523 1_454
Au0_0 Hf1_3 2.899525 1_554
Au0_0 Hf1_4 2.899530 1_455
Au0_0 Hf1_2 2.899532 1_555
Au0_0 Hf0_2 3.130129 1_545
Au0_0 Hf0_4 3.130130 1_555
Au0_0 Au0_6 3.160410 1_555
Au0_0 Au0_6 3.160410 1_445
Au0_1 Au1_0 2.757386 1_555
Au0_1 Au1_1 2.757393 1_555
Au0_1 Ti0_1 2.809531 1_555
Au0_1 Hf1_4 2.899523 1_455
Au0_1 Hf1_2 2.899525 1_555
Au0_1 Hf1_5 2.899530 1_455
Au0_1 Hf1_3 2.899532 1_555
Au0_1 Hf0_3 3.130129 1_545
Au0_1 Hf0_5 3.130130 1_555
Au0_1 Au0_7 3.160410 1_555
Au0_1 Au0_7 3.160410 1_445
Au0_2 Au1_3 2.757386 1_554
Au0_2 Au1_2 2.757393 1_555
Au0_2 Ti0_2 2.809531 1_555
Au0_2 Hf1_7 2.899523 1_454
Au0_2 Hf1_1 2.899525 1_564
Au0_2 Hf1_6 2.899530 1_455
Au0_2 Hf1_0 2.899532 1_565
Au0_2 Hf0_0 3.130129 1_555
Au0_2 Hf0_6 3.130130 1_555
Au0_2 Au0_4 3.160410 1_455
Au0_2 Au0_4 3.160410 1_565
Au0_3 Au1_2 2.757386 1_555
Au0_3 Au1_3 2.757393 1_555
Au0_3 Ti0_3 2.809531 1_555
Au0_3 Hf1_6 2.899523 1_455
Au0_3 Hf1_0 2.899525 1_565
Au0_3 Hf1_7 2.899530 1_455
Au0_3 Hf1_1 2.899532 1_565
Au0_3 Hf0_1 3.130129 1_555
Au0_3 Hf0_7 3.130130 1_555
Au0_3 Au0_5 3.160410 1_565
Au0_3 Au0_5 3.160410 1_455
Au0_4 Au1_5 2.757386 1_554
Au0_4 Au1_4 2.757393 1_555
Au0_4 Ti0_4 2.809531 1_555
Au0_4 Hf1_1 2.899523 1_554
Au0_4 Hf1_7 2.899525 1_554
Au0_4 Hf1_0 2.899530 1_555
Au0_4 Hf1_6 2.899532 1_555
Au0_4 Hf0_6 3.130129 1_545
Au0_4 Hf0_0 3.130130 1_655
Au0_5 Au1_4 2.757386 1_555
Au0_5 Au1_5 2.757393 1_555
Au0_5 Ti0_5 2.809531 1_555
Au0_5 Hf1_0 2.899523 1_555
Au0_5 Hf1_6 2.899525 1_555
Au0_5 Hf1_1 2.899530 1_555
Au0_5 Hf1_7 2.899532 1_555
Au0_5 Hf0_7 3.130129 1_545
Au0_5 Hf0_1 3.130130 1_655
Au0_6 Au1_7 2.757386 1_554
Au0_6 Au1_6 2.757393 1_555
Au0_6 Ti0_6 2.809531 1_555
Au0_6 Hf1_3 2.899523 1_554
Au0_6 Hf1_5 2.899525 1_564
Au0_6 Hf1_2 2.899530 1_555
Au0_6 Hf1_4 2.899532 1_565
Au0_6 Hf0_4 3.130129 1_555
Au0_6 Hf0_2 3.130130 1_655
Au0_7 Au1_6 2.757386 1_555
Au0_7 Au1_7 2.757393 1_555
Au0_7 Ti0_7 2.809531 1_555
Au0_7 Hf1_2 2.899523 1_555
Au0_7 Hf1_4 2.899525 1_565
Au0_7 Hf1_3 2.899530 1_555
Au0_7 Hf1_5 2.899532 1_565
Au0_7 Hf0_5 3.130129 1_555
Au0_7 Hf0_3 3.130130 1_655
Au1_0 Hf2_0 2.821559 1_555
Au1_0 Hf0_3 2.920481 1_545
Au1_0 Hf0_5 2.920482 1_555
Au1_0 Hf0_2 2.920487 1_545
Au1_0 Hf0_4 2.920489 1_555
Au1_0 Hf1_4 3.079198 1_455
Au1_0 Hf1_2 3.079200 1_555
Au1_1 Hf2_1 2.821559 1_555
Au1_1 Hf0_2 2.920481 1_546
Au1_1 Hf0_4 2.920482 1_556
Au1_1 Hf0_3 2.920487 1_545
Au1_1 Hf0_5 2.920489 1_555
Au1_1 Hf1_5 3.079198 1_455
Au1_1 Hf1_3 3.079200 1_555
Au1_2 Hf2_2 2.821559 1_555
Au1_2 Hf0_1 2.920481 1_555
Au1_2 Hf0_7 2.920482 1_555
Au1_2 Hf0_0 2.920487 1_555
Au1_2 Hf0_6 2.920489 1_555
Au1_2 Hf1_6 3.079198 1_455
Au1_2 Hf1_0 3.079200 1_565
Au1_3 Hf2_3 2.821559 1_555
Au1_3 Hf0_0 2.920481 1_556
Au1_3 Hf0_6 2.920482 1_556
Au1_3 Hf0_1 2.920487 1_555
Au1_3 Hf0_7 2.920489 1_555
Au1_3 Hf1_7 3.079198 1_455
Au1_3 Hf1_1 3.079200 1_565
Au1_4 Hf2_4 2.821559 1_555
Au1_4 Hf0_7 2.920481 1_545
Au1_4 Hf0_1 2.920482 1_655
Au1_4 Hf0_6 2.920487 1_545
Au1_4 Hf0_0 2.920489 1_655
Au1_4 Hf1_0 3.079198 1_555
Au1_4 Hf1_6 3.079200 1_555
Au1_5 Hf2_5 2.821559 1_555
Au1_5 Hf0_6 2.920481 1_546
Au1_5 Hf0_0 2.920482 1_656
Au1_5 Hf0_7 2.920487 1_545
Au1_5 Hf0_1 2.920489 1_655
Au1_5 Hf1_1 3.079198 1_555
Au1_5 Hf1_7 3.079200 1_555
Au1_6 Hf2_6 2.821559 1_555
Au1_6 Hf0_5 2.920481 1_555
Au1_6 Hf0_3 2.920482 1_655
Au1_6 Hf0_4 2.920487 1_555
Au1_6 Hf0_2 2.920489 1_655
Au1_6 Hf1_2 3.079198 1_555
Au1_6 Hf1_4 3.079200 1_565
Au1_7 Hf2_7 2.821559 1_555
Au1_7 Hf0_4 2.920481 1_556
Au1_7 Hf0_2 2.920482 1_656
Au1_7 Hf0_5 2.920487 1_555
Au1_7 Hf0_3 2.920489 1_655
Au1_7 Hf1_3 3.079198 1_555
Au1_7 Hf1_5 3.079200 1_565
N0_0 Ti0_4 2.124986 1_555
N0_0 Ti0_2 2.124986 1_545
N0_1 Ti0_5 2.124986 1_555
N0_1 Ti0_3 2.124986 1_545
N0_2 Ti0_6 2.124986 1_555
N0_2 Ti0_0 2.124986 1_555
N0_3 Ti0_7 2.124986 1_555
N0_3 Ti0_1 2.124986 1_555
N0_4 Ti0_0 2.124986 1_655
N0_4 Ti0_6 2.124986 1_545
N0_5 Ti0_1 2.124986 1_655
N0_5 Ti0_7 2.124986 1_545
N0_6 Ti0_2 2.124986 1_655
N0_6 Ti0_4 2.124986 1_555
N0_7 Ti0_3 2.124986 1_655
N0_7 Ti0_5 2.124986 1_555
N1_0 Ti0_1 2.235381 1_555
N1_0 Ti0_0 2.235390 1_555
N1_1 Ti0_0 2.235381 1_556
N1_1 Ti0_1 2.235390 1_555
N1_2 Ti0_3 2.235381 1_555
N1_2 Ti0_2 2.235390 1_555
N1_3 Ti0_2 2.235381 1_556
N1_3 Ti0_3 2.235390 1_555
N1_4 Ti0_5 2.235381 1_555
N1_4 Ti0_4 2.235390 1_555
N1_5 Ti0_4 2.235381 1_556
N1_5 Ti0_5 2.235390 1_555
N1_6 Ti0_7 2.235381 1_555
N1_6 Ti0_6 2.235390 1_555
N1_7 Ti0_6 2.235381 1_556
N1_7 Ti0_7 2.235390 1_555
