# generated using pymatgen
data_Sc3Ta3Si7Ni16
_symmetry_space_group_name_H-M   'P 1'
_cell_length_a   7.92505034
_cell_length_b   7.94760920
_cell_length_c   7.96149004
_cell_angle_alpha   59.75472535
_cell_angle_beta   60.03562163
_cell_angle_gamma   60.20965284
_symmetry_Int_Tables_number   1
_chemical_formula_structural   Sc3Ta3Si7Ni16
_chemical_formula_sum   'Sc3 Ta3 Si7 Ni16'
_cell_volume   354.57161376
_cell_formula_units_Z   1
loop_
 _symmetry_equiv_pos_site_id
 _symmetry_equiv_pos_as_xyz
  1  'x, y, z'
loop_
 _atom_site_type_symbol
 _atom_site_label
 _atom_site_symmetry_multiplicity
 _atom_site_fract_x
 _atom_site_fract_y
 _atom_site_fract_z
 _atom_site_occupancy
  Sc  Sc0  1  0.79554013  0.20445987  0.79554013  1
  Sc  Sc1  1  0.20141020  0.20078336  0.79921764  1
  Sc  Sc2  1  0.79921764  0.79859080  0.20141020  1
  Ta  Ta0  1  0.79462673  0.20537327  0.20998642  1
  Ta  Ta1  1  0.20998642  0.79001358  0.79462673  1
  Ta  Ta2  1  0.20190472  0.79809528  0.20190572  1
  Si  Si0  1  0.50346858  0.49653142  0.50346858  1
  Si  Si1  1  0.50090050  0.49909950  0.00196332  1
  Si  Si2  1  0.00196332  0.99803668  0.50090050  1
  Si  Si3  1  0.49971734  0.00028266  0.49971734  1
  Si  Si4  1  0.00106052  0.50135751  0.49864249  1
  Si  Si5  1  0.49864249  0.99893948  0.00106052  1
  Si  Si6  1  0.99971734  0.50028266  0.99971734  1
  Ni  Ni0  1  0.50283005  0.83173661  0.83291758  1
  Ni  Ni1  1  0.83157505  0.50571194  0.83219448  1
  Ni  Ni2  1  0.83291758  0.83251376  0.50283005  1
  Ni  Ni3  1  0.16826339  0.49716995  0.16748624  1
  Ni  Ni4  1  0.16948347  0.16780552  0.49428806  1
  Ni  Ni5  1  0.49428806  0.16842495  0.16948347  1
  Ni  Ni6  1  0.83219448  0.83051653  0.83157505  1
  Ni  Ni7  1  0.38377366  0.38646835  0.37844507  1
  Ni  Ni8  1  0.14868708  0.62155493  0.61353165  1
  Ni  Ni9  1  0.62059915  0.14424366  0.61358500  1
  Ni  Ni10  1  0.61353165  0.61622634  0.14868708  1
  Ni  Ni11  1  0.37844507  0.85131292  0.38377366  1
  Ni  Ni12  1  0.37842881  0.38641500  0.85575634  1
  Ni  Ni13  1  0.85575634  0.37940085  0.37842881  1
  Ni  Ni14  1  0.61358500  0.62157119  0.62059915  1
  Ni  Ni15  1  0.16748624  0.16708242  0.16826339  1
loop_
_geom_bond_atom_site_label_1
_geom_bond_atom_site_label_2
_geom_bond_distance
_geom_bond_site_symmetry_2
Sc0 Si5 2.856953 1_546
Sc0 Si4 2.856953 1_655
Sc0 Si1 2.871772 1_556
Sc0 Si2 2.871772 1_645
Sc1 Si5 2.852020 1_546
Sc1 Si4 2.867388 1_555
Sc1 Si6 2.875289 1_455
Sc1 Si3 2.875300 1_555
Sc2 Si4 2.852022 1_655
Sc2 Si5 2.867390 1_555
Sc2 Si3 2.875291 1_565
Sc2 Si6 2.875302 1_554
Si1 Ta1 2.836548 1_554
Si1 Ta0 2.857924 1_555
Si1 Ta2 2.871118 1_555
Si2 Ta0 2.836548 1_465
Si2 Ta1 2.857924 1_555
Si2 Ta2 2.871106 1_555
Si3 Ta0 2.837670 1_555
Si3 Ta1 2.837670 1_545
Si4 Ta2 2.835048 1_555
Si5 Ta2 2.835048 1_555
Si6 Ta1 2.837670 1_655
Si6 Ta0 2.837670 1_556
Ni0 Si1 2.288191 1_556
Ni0 Si5 2.294100 1_556
Ni0 Si3 2.298890 1_565
Ni0 Ni14 2.514593 1_555
Ni0 Ni9 2.528880 1_565
Ni0 Ni10 2.528980 1_556
Ni0 Ni6 2.600114 1_555
Ni0 Ni1 2.606492 1_555
Ni0 Ni2 2.623357 1_555
Ni0 Ta1 2.676243 1_555
Ni0 Ta2 2.689415 1_556
Ni0 Sc1 2.695639 1_565
Ni1 Si6 2.283982 1_555
Ni1 Si1 2.285668 1_556
Ni1 Si4 2.310998 1_655
Ni1 Ni14 2.536565 1_555
Ni1 Ni10 2.545307 1_556
Ni1 Ni8 2.551121 1_655
Ni1 Ni6 2.581379 1_555
Ni1 Ni2 2.600114 1_555
Ni1 Sc1 2.710518 1_655
Ni1 Sc0 2.713962 1_555
Ni1 Ta0 2.722540 1_556
Ni2 Si2 2.288204 1_655
Ni2 Si4 2.294086 1_655
Ni2 Si3 2.298890 1_565
Ni2 Ni9 2.514600 1_565
Ni2 Ni8 2.528980 1_655
Ni2 Ni6 2.606492 1_555
Ni2 Ta0 2.676252 1_565
Ni2 Ta2 2.689407 1_655
Ni2 Sc2 2.695620 1_555
Ni3 Si1 2.288191 1_555
Ni3 Si4 2.294086 1_555
Ni3 Si6 2.298903 1_454
Ni3 Ni7 2.528967 1_555
Ni3 Ni4 2.600114 1_555
Ni3 Ni5 2.606492 1_555
Ni3 Ta1 2.676252 1_554
Ni3 Ta2 2.689406 1_555
Ni3 Sc2 2.695638 1_455
Ni4 Si3 2.283969 1_555
Ni4 Si2 2.285682 1_545
Ni4 Si4 2.310998 1_555
Ni4 Ni7 2.551108 1_555
Ni4 Ni5 2.581380 1_555
Ni4 Sc1 2.710517 1_555
Ni4 Sc0 2.713972 1_455
Ni4 Ta1 2.722539 1_545
Ni5 Si3 2.283969 1_555
Ni5 Si1 2.285668 1_555
Ni5 Si5 2.311012 1_545
Ni5 Ni7 2.545293 1_555
Ni5 Sc2 2.710516 1_545
Ni5 Sc0 2.713972 1_554
Ni5 Ta0 2.722530 1_555
Ni6 Si6 2.283973 1_555
Ni6 Si2 2.285673 1_655
Ni6 Si5 2.311003 1_556
Ni6 Ni9 2.536567 1_565
Ni6 Ni8 2.545298 1_655
Ni6 Sc2 2.710531 1_556
Ni6 Sc0 2.713978 1_565
Ni6 Ta1 2.722545 1_655
Ni7 Si0 2.302299 1_555
Ni7 Si1 2.447547 1_555
Ni7 Si4 2.485514 1_555
Ni7 Si3 2.509060 1_555
Ni7 Ni9 2.649946 1_555
Ni7 Ni8 2.654364 1_555
Ni7 Ta0 2.719894 1_555
Ni7 Ta2 2.731568 1_555
Ni7 Sc1 2.791333 1_555
Ni8 Si0 2.302299 1_555
Ni8 Si2 2.447547 1_555
Ni8 Si4 2.485514 1_555
Ni8 Si6 2.509060 1_455
Ni8 Ta1 2.719894 1_555
Ni8 Ta2 2.731563 1_555
Ni8 Sc1 2.791327 1_555
Ni9 Si0 2.286271 1_555
Ni9 Si3 2.459726 1_555
Ni9 Si2 2.478221 1_645
Ni9 Si5 2.515172 1_546
Ni9 Ta0 2.670091 1_555
Ni9 Sc0 2.759289 1_555
Ni9 Sc1 2.775549 1_555
Ni10 Si0 2.302299 1_555
Ni10 Si1 2.447547 1_555
Ni10 Si5 2.485514 1_555
Ni10 Si6 2.509060 1_554
Ni10 Ni6 2.551113 1_554
Ni10 Ni7 2.570531 1_555
Ni10 Ni13 2.649952 1_555
Ni10 Ni11 2.654364 1_555
Ni10 Ta0 2.719894 1_555
Ni10 Ta2 2.731568 1_555
Ni10 Sc2 2.791341 1_555
Ni11 Si0 2.302299 1_555
Ni11 Si2 2.447547 1_555
Ni11 Si5 2.485514 1_555
Ni11 Si3 2.509060 1_565
Ni11 Ni15 2.528972 1_565
Ni11 Ni4 2.545307 1_565
Ni11 Ni5 2.551121 1_565
Ni11 Ni8 2.570531 1_555
Ni11 Ni14 2.649946 1_555
Ni11 Ta1 2.719894 1_555
Ni11 Ta2 2.731562 1_555
Ni11 Sc2 2.791336 1_555
Ni12 Si0 2.286271 1_555
Ni12 Si6 2.459732 1_455
Ni12 Si1 2.478215 1_556
Ni12 Ni3 2.514600 1_556
Ni12 Si5 2.515172 1_546
Ni12 Ni15 2.528876 1_556
Ni12 Ni5 2.536571 1_556
Ni12 Ni14 2.630926 1_555
Ni12 Ni8 2.649952 1_555
Ni12 Ta1 2.670091 1_555
Ni12 Ni9 2.734358 1_555
Ni12 Sc0 2.759283 1_555
Ni12 Sc1 2.775550 1_555
Ni13 Si0 2.286271 1_555
Ni13 Si6 2.459732 1_554
Ni13 Si2 2.478221 1_645
Ni13 Ni15 2.514596 1_655
Ni13 Si4 2.515166 1_655
Ni13 Ni3 2.528880 1_655
Ni13 Ni4 2.536571 1_655
Ni13 Ni9 2.630937 1_555
Ni13 Ta0 2.670098 1_555
Ni13 Ni14 2.734346 1_555
Ni13 Sc0 2.759283 1_555
Ni13 Sc2 2.775557 1_555
Ni14 Si0 2.286265 1_555
Ni14 Si3 2.459733 1_565
Ni14 Si1 2.478222 1_556
Ni14 Si4 2.515172 1_655
Ni14 Ni2 2.528873 1_555
Ni14 Ta1 2.670092 1_555
Ni14 Sc0 2.759284 1_555
Ni14 Sc2 2.775553 1_555
Ni15 Si2 2.288195 1_545
Ni15 Si5 2.294091 1_545
Ni15 Si6 2.298894 1_454
Ni15 Ni5 2.600114 1_555
Ni15 Ni4 2.606492 1_555
Ni15 Ni3 2.623357 1_555
Ni15 Ta0 2.676258 1_455
Ni15 Ta2 2.689413 1_545
Ni15 Sc1 2.695638 1_554
