# generated using pymatgen
data_Rb2Mn2CdSe4
_symmetry_space_group_name_H-M   'P 1'
_cell_length_a   9.82957415
_cell_length_b   9.82957503
_cell_length_c   9.82957483
_cell_angle_alpha   143.00210857
_cell_angle_beta   105.77673908
_cell_angle_gamma   85.95458531
_symmetry_Int_Tables_number   1
_chemical_formula_structural   Rb2Mn2CdSe4
_chemical_formula_sum   'Rb4 Mn4 Cd2 Se8'
_cell_volume   532.09387310
_cell_formula_units_Z   2
loop_
 _symmetry_equiv_pos_site_id
 _symmetry_equiv_pos_as_xyz
  1  'x, y, z'
loop_
 _atom_site_type_symbol
 _atom_site_label
 _atom_site_symmetry_multiplicity
 _atom_site_fract_x
 _atom_site_fract_y
 _atom_site_fract_z
 _atom_site_occupancy
  Rb  Rb0  1  0.12437872  0.23743330  0.35967199  1
  Rb  Rb1  1  0.37562128  0.73529427  0.11305458  1
  Rb  Rb2  1  0.62223969  0.26256670  0.88694542  1
  Rb  Rb3  1  0.87776031  0.76470573  0.64032801  1
  Mn  Mn0  1  0.47662911  0.25000000  0.22662911  1
  Mn  Mn1  1  0.75000000  0.25000000  0.50000000  1
  Mn  Mn2  1  0.25000000  0.75000000  0.50000000  1
  Mn  Mn3  1  0.02337089  0.25000000  0.77337089  1
  Cd  Cd0  1  0.52606259  0.75000000  0.77606259  1
  Cd  Cd1  1  0.97393741  0.75000000  0.22393741  1
  Se  Se0  1  0.22752325  0.08613855  0.60409314  1
  Se  Se1  1  0.27247675  0.87656889  0.85861530  1
  Se  Se2  1  0.01795458  0.41386145  0.14138470  1
  Se  Se3  1  0.48204542  0.62343111  0.39590686  1
  Se  Se4  1  0.77318034  0.93185207  0.42018274  1
  Se  Se5  1  0.72681966  0.14700240  0.15867073  1
  Se  Se6  1  0.98833167  0.56814793  0.84132927  1
  Se  Se7  1  0.51166833  0.35299760  0.57981726  1
loop_
_geom_bond_atom_site_label_1
_geom_bond_atom_site_label_2
_geom_bond_distance
_geom_bond_site_symmetry_2
Rb0 Se7 3.559438 1_555
Rb0 Se6 3.607884 1_455
Rb0 Se2 3.629449 1_555
Rb0 Se0 3.630666 1_555
Rb0 Se5 3.667600 1_455
Rb0 Se1 3.719348 1_555
Rb0 Se1 3.771389 1_544
Rb0 Se6 3.876045 1_444
Rb1 Se6 3.559437 1_454
Rb1 Se7 3.607876 1_565
Rb1 Se3 3.629449 1_555
Rb1 Se1 3.630648 1_554
Rb1 Se4 3.667600 1_555
Rb1 Se0 3.719356 1_565
Rb1 Se0 3.771396 1_554
Rb1 Se7 3.876037 1_554
Rb2 Se5 3.559438 1_556
Rb2 Se4 3.607877 1_545
Rb2 Se0 3.629457 1_555
Rb2 Se2 3.630656 1_656
Rb2 Se7 3.667601 1_555
Rb2 Se3 3.719350 1_545
Rb2 Se3 3.771395 1_556
Rb2 Se4 3.876043 1_556
Rb3 Se4 3.559456 1_555
Rb3 Se5 3.607874 1_555
Rb3 Se1 3.629457 1_655
Rb3 Se3 3.630658 1_555
Rb3 Se6 3.667602 1_555
Rb3 Se2 3.719363 1_655
Rb3 Se2 3.771398 1_666
Rb3 Se5 3.876031 1_566
Mn0 Se1 2.543365 1_544
Mn0 Se3 2.543371 1_555
Mn0 Se5 2.642153 1_555
Mn0 Se7 2.642153 1_555
Mn1 Se4 2.554367 1_545
Mn1 Se6 2.554374 1_555
Mn1 Se7 2.554376 1_555
Mn1 Se5 2.554376 1_555
Mn2 Se3 2.575392 1_555
Mn2 Se2 2.575393 1_555
Mn2 Se0 2.575393 1_565
Mn2 Se1 2.575399 1_555
Mn3 Se0 2.543361 1_555
Mn3 Se2 2.543362 1_556
Mn3 Se6 2.642144 1_455
Mn3 Se4 2.642151 1_445
Cd0 Se5 2.622009 1_566
Cd0 Se7 2.622009 1_555
Cd0 Se1 2.733005 1_555
Cd0 Se3 2.733013 1_555
Cd1 Se6 2.622004 1_554
Cd1 Se4 2.622009 1_555
Cd1 Se0 2.733007 1_665
Cd1 Se2 2.733007 1_655
