# generated using pymatgen
data_Hf5Zr(HgN)2
_symmetry_space_group_name_H-M   'P 1'
_cell_length_a   6.01465631
_cell_length_b   6.01465588
_cell_length_c   9.03915952
_cell_angle_alpha   90.00000000
_cell_angle_beta   90.00000000
_cell_angle_gamma   147.79250582
_symmetry_Int_Tables_number   1
_chemical_formula_structural   Hf5Zr(HgN)2
_chemical_formula_sum   'Hf5 Zr1 Hg2 N2'
_cell_volume   174.28749538
_cell_formula_units_Z   1
loop_
 _symmetry_equiv_pos_site_id
 _symmetry_equiv_pos_as_xyz
  1  'x, y, z'
loop_
 _atom_site_type_symbol
 _atom_site_label
 _atom_site_symmetry_multiplicity
 _atom_site_fract_x
 _atom_site_fract_y
 _atom_site_fract_z
 _atom_site_occupancy
  Hf  Hf0  1  0.87570298  0.12429702  0.03877831  1
  Hf  Hf1  1  0.87570298  0.12429702  0.46122169  1
  Hf  Hf2  1  0.12352812  0.87647188  0.54125459  1
  Hf  Hf3  1  0.46350538  0.53649462  0.75000000  1
  Hf  Hf4  1  0.12352812  0.87647188  0.95874441  1
  Zr  Zr0  1  0.53647878  0.46352122  0.25000000  1
  Hg  Hg0  1  0.24982596  0.75017404  0.25000000  1
  Hg  Hg1  1  0.75312045  0.24687955  0.75000000  1
  N  N0  1  0.49930312  0.50069688  0.99632032  1
  N  N1  1  0.49930312  0.50069688  0.50367968  1
loop_
_geom_bond_atom_site_label_1
_geom_bond_atom_site_label_2
_geom_bond_distance
_geom_bond_site_symmetry_2
Hf0 N0 2.229614 1_544
Hf0 N0 2.229615 1_654
Hf0 Hg0 2.923194 1_655
Hf0 Hg0 2.923194 1_545
Hf0 Hg1 2.969989 1_554
Hf1 N1 2.229614 1_545
Hf1 N1 2.229615 1_655
Hf1 Hg0 2.923194 1_655
Hf1 Hg0 2.923194 1_545
Hf1 Hg1 2.969989 1_555
Hf2 N1 2.227091 1_565
Hf2 N1 2.227091 1_455
Hf2 Hg1 2.930336 1_455
Hf2 Hg1 2.930336 1_565
Hf2 Hg0 3.010266 1_555
Hf3 N0 2.264641 1_555
Hf3 N1 2.264641 1_555
Hf3 Hg1 2.948800 1_565
Hf3 Hg1 2.948800 1_455
Hf4 N0 2.227092 1_565
Hf4 N0 2.227092 1_455
Hf4 Hg1 2.930330 1_455
Hf4 Hg1 2.930330 1_565
Hf4 Hg0 3.010274 1_556
Hg0 Zr0 2.977093 1_565
Hg0 Zr0 2.977093 1_455
Hg0 Zr0 3.312931 1_555
N0 Zr0 2.332956 1_556
N1 Zr0 2.332956 1_555
