# generated using pymatgen
data_ZnTePtO6
_symmetry_space_group_name_H-M   'P 1'
_cell_length_a   4.61410084
_cell_length_b   4.61410084
_cell_length_c   9.29895914
_cell_angle_alpha   90.00000000
_cell_angle_beta   90.00000000
_cell_angle_gamma   90.00005467
_symmetry_Int_Tables_number   1
_chemical_formula_structural   ZnTePtO6
_chemical_formula_sum   'Zn2 Te2 Pt2 O12'
_cell_volume   197.97415728
_cell_formula_units_Z   2
loop_
 _symmetry_equiv_pos_site_id
 _symmetry_equiv_pos_as_xyz
  1  'x, y, z'
loop_
 _atom_site_type_symbol
 _atom_site_label
 _atom_site_symmetry_multiplicity
 _atom_site_fract_x
 _atom_site_fract_y
 _atom_site_fract_z
 _atom_site_occupancy
  Zn  Zn0  1  0.50000000  0.50000000  0.83359598  1
  Zn  Zn1  1  0.00000000  0.00000000  0.33359552  1
  Te  Te0  1  0.50000000  0.50000000  0.50173554  1
  Te  Te1  1  0.00000000  0.00000000  0.00171553  1
  Pt  Pt0  1  0.50000000  0.50000000  0.16614298  1
  Pt  Pt1  1  0.00000000  0.00000000  0.66613586  1
  O  O0  1  0.20100784  0.79899216  0.50041123  1
  O  O1  1  0.79899216  0.20100784  0.50041123  1
  O  O2  1  0.29899523  0.29899523  0.00042687  1
  O  O3  1  0.70100477  0.70100477  0.00042687  1
  O  O4  1  0.19225095  0.80774905  0.16062797  1
  O  O5  1  0.80774905  0.19225095  0.16062797  1
  O  O6  1  0.30774933  0.30774933  0.66061625  1
  O  O7  1  0.69225067  0.69225067  0.66061625  1
  O  O8  1  0.81181238  0.18818762  0.83822568  1
  O  O9  1  0.18818762  0.81181238  0.83822568  1
  O  O10  1  0.68819094  0.68819094  0.33823030  1
  O  O11  1  0.31181006  0.31181006  0.33823030  1
loop_
_geom_bond_atom_site_label_1
_geom_bond_atom_site_label_2
_geom_bond_distance
_geom_bond_site_symmetry_2
O0 Te0 1.951060 1_555
O0 Pt1 2.023682 1_565
O0 Zn1 2.031419 1_565
O1 Te0 1.951060 1_555
O1 Pt1 2.023682 1_655
O1 Zn1 2.031419 1_655
O2 Te1 1.951077 1_555
O2 Pt0 2.023608 1_555
O2 Zn0 2.031513 1_554
O3 Te1 1.951077 1_665
O3 Pt0 2.023608 1_555
O3 Zn0 2.031513 1_554
O4 Te1 1.938409 1_565
O4 Pt0 2.008818 1_555
O4 Zn1 2.039799 1_565
O5 Te1 1.938409 1_655
O5 Pt0 2.008818 1_555
O5 Zn1 2.039799 1_655
O6 Te0 1.938182 1_555
O6 Pt1 2.008819 1_555
O6 Zn0 2.039887 1_555
O7 Te0 1.938182 1_555
O7 Pt1 2.008819 1_665
O7 Zn0 2.039887 1_555
O8 Te1 1.954282 1_656
O8 Pt1 2.017119 1_655
O8 Zn0 2.035133 1_555
O9 Te1 1.954282 1_566
O9 Pt1 2.017119 1_565
O9 Zn0 2.035133 1_555
O10 Te0 1.954406 1_555
O10 Pt0 2.017113 1_555
O10 Zn1 2.035111 1_665
O11 Te0 1.954402 1_555
O11 Pt0 2.017109 1_555
O11 Zn1 2.035117 1_555
