# generated using pymatgen
data_Sr2Zn2Sb2O
_symmetry_space_group_name_H-M   'P 1'
_cell_length_a   4.46716452
_cell_length_b   4.46716198
_cell_length_c   19.66282353
_cell_angle_alpha   90.00002303
_cell_angle_beta   90.00004882
_cell_angle_gamma   59.99987035
_symmetry_Int_Tables_number   1
_chemical_formula_structural   Sr2Zn2Sb2O
_chemical_formula_sum   'Sr4 Zn4 Sb4 O2'
_cell_volume   339.81269071
_cell_formula_units_Z   2
loop_
 _symmetry_equiv_pos_site_id
 _symmetry_equiv_pos_as_xyz
  1  'x, y, z'
loop_
 _atom_site_type_symbol
 _atom_site_label
 _atom_site_symmetry_multiplicity
 _atom_site_fract_x
 _atom_site_fract_y
 _atom_site_fract_z
 _atom_site_occupancy
  Sr  Sr0  1  0.00000100  0.00000100  0.49999800  1
  Sr  Sr1  1  0.99999900  0.99999900  0.99999700  1
  Sr  Sr2  1  0.00000200  0.00000200  0.74999900  1
  Sr  Sr3  1  0.99999900  0.00000000  0.25000000  1
  Zn  Zn0  1  0.33333300  0.33333200  0.35246497  1
  Zn  Zn1  1  0.66666600  0.66666800  0.85246397  1
  Zn  Zn2  1  0.33333200  0.33333100  0.14754003  1
  Zn  Zn3  1  0.66667000  0.66666700  0.64753903  1
  Sb  Sb0  1  0.33333500  0.33333500  0.60952582  1
  Sb  Sb1  1  0.33333300  0.33333300  0.89047318  1
  Sb  Sb2  1  0.66666500  0.66666600  0.39047418  1
  Sb  Sb3  1  0.66666500  0.66666600  0.10952582  1
  O  O0  1  0.33333300  0.33333300  0.24999800  1
  O  O1  1  0.66666800  0.66666800  0.74999800  1
loop_
_geom_bond_atom_site_label_1
_geom_bond_atom_site_label_2
_geom_bond_distance
_geom_bond_site_symmetry_2
Sb0 Zn3 2.685234 1_455
Sb0 Zn3 2.685243 1_545
Sb0 Zn3 2.685245 1_555
Sb0 Sr0 3.360048 1_565
Sb0 Sr0 3.360050 1_655
Sb0 Sr0 3.360057 1_555
Sb1 Zn1 2.685210 1_545
Sb1 Zn1 2.685219 1_455
Sb1 Zn1 2.685227 1_555
Sb1 Sr1 3.359997 1_545
Sb1 Sr1 3.359997 1_455
Sb1 Sr1 3.360009 1_445
Sb2 Zn0 2.685214 1_565
Sb2 Zn0 2.685219 1_555
Sb2 Zn0 2.685223 1_655
Sb2 Sr0 3.359994 1_565
Sb2 Sr0 3.359994 1_655
Sb2 Sr0 3.360015 1_665
Sb3 Zn2 2.685238 1_565
Sb3 Zn2 2.685246 1_655
Sb3 Zn2 2.685255 1_555
Sb3 Sr1 3.360060 1_454
Sb3 Sr1 3.360063 1_544
Sb3 Sr1 3.360069 1_554
O0 Zn2 2.014613 1_555
O0 Zn0 2.014790 1_555
O0 Sr3 2.579113 1_555
O0 Sr3 2.579115 1_465
O0 Sr3 2.579121 1_455
O1 Zn3 2.014633 1_555
O1 Zn1 2.014770 1_555
O1 Sr2 2.579111 1_655
O1 Sr2 2.579113 1_565
O1 Sr2 2.579125 1_665
