# generated using pymatgen
data_CaY6IrCl12
_symmetry_space_group_name_H-M   'P 1'
_cell_length_a   8.85957391
_cell_length_b   8.85961730
_cell_length_c   8.85949752
_cell_angle_alpha   106.85858709
_cell_angle_beta   106.85844240
_cell_angle_gamma   106.85869042
_symmetry_Int_Tables_number   1
_chemical_formula_structural   CaY6IrCl12
_chemical_formula_sum   'Ca1 Y6 Ir1 Cl12'
_cell_volume   581.35853672
_cell_formula_units_Z   1
loop_
 _symmetry_equiv_pos_site_id
 _symmetry_equiv_pos_as_xyz
  1  'x, y, z'
loop_
 _atom_site_type_symbol
 _atom_site_label
 _atom_site_symmetry_multiplicity
 _atom_site_fract_x
 _atom_site_fract_y
 _atom_site_fract_z
 _atom_site_occupancy
  Ca  Ca0  1  0.50000000  0.50000000  0.50000000  1
  Y  Y0  1  0.11083442  0.32126984  0.01937432  1
  Y  Y1  1  0.32126984  0.01937532  0.11083442  1
  Y  Y2  1  0.01937432  0.11083542  0.32126984  1
  Y  Y3  1  0.98062668  0.88916458  0.67873116  1
  Y  Y4  1  0.67873016  0.98062568  0.88916558  1
  Y  Y5  1  0.88916558  0.67873016  0.98062568  1
  Ir  Ir0  1  0.00000000  0.00000000  0.00000000  1
  Cl  Cl0  1  0.21491832  0.67591348  0.07331527  1
  Cl  Cl1  1  0.45440524  0.36982919  0.16168665  1
  Cl  Cl2  1  0.67591048  0.07331427  0.21491732  1
  Cl  Cl3  1  0.92668773  0.78508368  0.32408952  1
  Cl  Cl4  1  0.16168465  0.45440224  0.36982719  1
  Cl  Cl5  1  0.36982719  0.16168565  0.45440424  1
  Cl  Cl6  1  0.63017281  0.83831435  0.54559676  1
  Cl  Cl7  1  0.83831635  0.54559776  0.63017281  1
  Cl  Cl8  1  0.07331327  0.21491632  0.67591148  1
  Cl  Cl9  1  0.32409052  0.92668673  0.78508268  1
  Cl  Cl10  1  0.54559476  0.63017081  0.83831435  1
  Cl  Cl11  1  0.78508168  0.32408652  0.92668473  1
loop_
_geom_bond_atom_site_label_1
_geom_bond_atom_site_label_2
_geom_bond_distance
_geom_bond_site_symmetry_2
Ca0 Cl1 2.738524 1_555
Ca0 Cl10 2.738532 1_555
Ca0 Cl4 2.738558 1_555
Ca0 Cl6 2.738564 1_555
Ca0 Cl7 2.738566 1_555
Ca0 Cl5 2.738566 1_555
Ir0 Y3 2.663228 1_444
Ir0 Y2 2.663233 1_555
Ir0 Y1 2.663254 1_555
Ir0 Y4 2.663257 1_444
Ir0 Y0 2.663267 1_555
Ir0 Y5 2.663267 1_444
Cl0 Y5 2.771855 1_454
Cl0 Y1 2.797574 1_565
Cl0 Y0 2.853745 1_555
Cl1 Y0 2.782060 1_555
Cl1 Y1 2.826797 1_555
Cl2 Y4 2.771831 1_544
Cl2 Y2 2.797573 1_655
Cl2 Y1 2.853711 1_555
Cl3 Y2 2.771867 1_665
Cl3 Y5 2.797545 1_554
Cl3 Y3 2.853694 1_555
Cl4 Y2 2.782043 1_555
Cl4 Y0 2.826755 1_555
Cl5 Y1 2.782032 1_555
Cl5 Y2 2.826781 1_555
Cl6 Y4 2.782025 1_555
Cl6 Y3 2.826789 1_555
Cl7 Y3 2.782040 1_555
Cl7 Y5 2.826758 1_555
Cl8 Y3 2.771867 1_445
Cl8 Y0 2.797539 1_556
Cl8 Y2 2.853694 1_555
Cl9 Y1 2.771835 1_566
Cl9 Y3 2.797571 1_455
Cl9 Y4 2.853703 1_555
Cl10 Y5 2.782059 1_555
Cl10 Y4 2.826808 1_555
Cl11 Y0 2.771855 1_656
Cl11 Y4 2.797565 1_545
Cl11 Y5 2.853745 1_555
