# generated using pymatgen
data_Ba6ScTc3O14
_symmetry_space_group_name_H-M   'P 1'
_cell_length_a   11.20319998
_cell_length_b   11.20320043
_cell_length_c   5.74256126
_cell_angle_alpha   90.00000000
_cell_angle_beta   90.00000000
_cell_angle_gamma   150.30295584
_symmetry_Int_Tables_number   1
_chemical_formula_structural   Ba6ScTc3O14
_chemical_formula_sum   'Ba6 Sc1 Tc3 O14'
_cell_volume   357.07379568
_cell_formula_units_Z   1
loop_
 _symmetry_equiv_pos_site_id
 _symmetry_equiv_pos_as_xyz
  1  'x, y, z'
loop_
 _atom_site_type_symbol
 _atom_site_label
 _atom_site_symmetry_multiplicity
 _atom_site_fract_x
 _atom_site_fract_y
 _atom_site_fract_z
 _atom_site_occupancy
  Ba  Ba0  1  0.50035772  0.49964228  0.00000000  1
  Ba  Ba1  1  0.00047485  0.99952515  0.50000000  1
  Ba  Ba2  1  0.68419902  0.31580098  0.00000000  1
  Ba  Ba3  1  0.18417648  0.81582352  0.50000000  1
  Ba  Ba4  1  0.81497696  0.18502304  0.50000000  1
  Ba  Ba5  1  0.31491959  0.68508041  0.00000000  1
  Sc  Sc0  1  0.40363542  0.59636458  0.50000000  1
  Tc  Tc0  1  0.90546377  0.09453623  0.00000000  1
  Tc  Tc1  1  0.09498422  0.90501578  0.00000000  1
  Tc  Tc2  1  0.59508979  0.40491021  0.50000000  1
  O  O0  1  0.66452572  0.85365704  0.75925658  1
  O  O1  1  0.14634296  0.33547428  0.24074342  1
  O  O2  1  0.14634296  0.33547428  0.75925658  1
  O  O3  1  0.66452572  0.85365704  0.24074342  1
  O  O4  1  0.84417400  0.65390035  0.75054112  1
  O  O5  1  0.34609965  0.15582600  0.24945888  1
  O  O6  1  0.34609965  0.15582600  0.75054112  1
  O  O7  1  0.84417400  0.65390035  0.24945888  1
  O  O8  1  0.81260984  0.18739016  0.00000000  1
  O  O9  1  0.30734157  0.69265843  0.50000000  1
  O  O10  1  0.68873234  0.31126766  0.50000000  1
  O  O11  1  0.18771905  0.81228095  0.00000000  1
  O  O12  1  0.50310692  0.49689308  0.50000000  1
  O  O13  1  0.99992880  0.00007120  0.00000000  1
loop_
_geom_bond_atom_site_label_1
_geom_bond_atom_site_label_2
_geom_bond_distance
_geom_bond_site_symmetry_2
Ba0 O13 2.870997 1_455
Ba0 O13 2.870997 1_565
Ba0 O12 2.871898 1_555
Ba0 O12 2.871898 1_554
Ba0 O7 2.882828 1_555
Ba0 O4 2.882828 1_554
Ba0 O5 2.882828 1_555
Ba0 O6 2.882828 1_554
Ba0 O1 2.889824 1_555
Ba0 O2 2.889824 1_554
Ba0 O3 2.889824 1_555
Ba0 O0 2.889824 1_554
Ba1 O13 2.871305 1_466
Ba1 O13 2.871305 1_465
Ba1 O12 2.871548 1_565
Ba1 O12 2.871548 1_455
Ba1 O6 2.889615 1_565
Ba1 O5 2.889615 1_565
Ba1 O4 2.889615 1_455
Ba1 O7 2.889615 1_455
Ba1 O0 2.892582 1_455
Ba1 O3 2.892582 1_455
Ba1 O2 2.892582 1_565
Ba1 O1 2.892582 1_565
Ba2 O8 2.781144 1_555
Ba2 O5 2.796014 1_555
Ba2 O6 2.796014 1_554
Ba2 O7 2.796014 1_555
Ba2 O4 2.796014 1_554
Ba2 O11 2.871994 1_655
Ba2 O11 2.871994 1_545
Ba2 O10 2.872959 1_554
Ba2 O10 2.872959 1_555
Ba3 O9 2.667531 1_555
Ba3 O4 2.804532 1_455
Ba3 O7 2.804532 1_455
Ba3 O6 2.804532 1_565
Ba3 O5 2.804532 1_565
Ba3 O11 2.872306 1_555
Ba3 O11 2.872306 1_556
Ba3 O10 2.872677 1_565
Ba3 O10 2.872677 1_455
Ba4 O10 2.734228 1_555
Ba4 O2 2.822807 1_655
Ba4 O1 2.822807 1_655
Ba4 O0 2.822807 1_545
Ba4 O3 2.822807 1_545
Ba4 O8 2.871738 1_555
Ba4 O8 2.871738 1_556
Ba4 O9 2.875740 1_545
Ba4 O9 2.875741 1_655
Ba5 O11 2.754932 1_555
Ba5 O3 2.822694 1_555
Ba5 O0 2.822694 1_554
Ba5 O1 2.822694 1_555
Ba5 O2 2.822694 1_554
Ba5 O8 2.871418 1_455
Ba5 O8 2.871418 1_565
Ba5 O9 2.875968 1_554
Ba5 O9 2.875968 1_555
O0 Tc0 1.955697 1_566
O0 Sc0 2.105057 1_555
O1 Tc0 1.955697 1_455
O1 Sc0 2.105057 1_555
O2 Tc0 1.955697 1_456
O2 Sc0 2.105057 1_555
O3 Tc0 1.955697 1_565
O3 Sc0 2.105057 1_555
O4 Tc2 2.028494 1_555
O4 Tc1 2.031920 1_656
O5 Tc2 2.028494 1_555
O5 Tc1 2.031920 1_545
O6 Tc2 2.028494 1_555
O6 Tc1 2.031920 1_546
O7 Tc2 2.028494 1_555
O7 Tc1 2.031920 1_655
O8 Tc0 2.011047 1_555
O9 Sc0 2.085549 1_555
O10 Tc2 2.028127 1_555
O11 Tc1 2.008467 1_555
O12 Tc2 1.992181 1_555
O12 Sc0 2.154371 1_555
O13 Tc0 2.045940 1_555
O13 Tc1 2.058727 1_645
