# generated using pymatgen
data_Sc6Al16Os6Ru
_symmetry_space_group_name_H-M   'P 1'
_cell_length_a   8.72632800
_cell_length_b   8.72632751
_cell_length_c   8.72632718
_cell_angle_alpha   60.00000125
_cell_angle_beta   60.00000310
_cell_angle_gamma   60.00000022
_symmetry_Int_Tables_number   1
_chemical_formula_structural   Sc6Al16Os6Ru
_chemical_formula_sum   'Sc6 Al16 Os6 Ru1'
_cell_volume   469.87198382
_cell_formula_units_Z   1
loop_
 _symmetry_equiv_pos_site_id
 _symmetry_equiv_pos_as_xyz
  1  'x, y, z'
loop_
 _atom_site_type_symbol
 _atom_site_label
 _atom_site_symmetry_multiplicity
 _atom_site_fract_x
 _atom_site_fract_y
 _atom_site_fract_z
 _atom_site_occupancy
  Sc  Sc0  1  0.71607873  0.71607873  0.28392127  1
  Sc  Sc1  1  0.28392127  0.71607873  0.28392127  1
  Sc  Sc2  1  0.71607873  0.28392127  0.28392127  1
  Sc  Sc3  1  0.28392127  0.28392127  0.71607873  1
  Sc  Sc4  1  0.71607873  0.28392127  0.71607873  1
  Sc  Sc5  1  0.28392127  0.71607873  0.71607873  1
  Al  Al0  1  0.87880083  0.87880083  0.36359650  1
  Al  Al1  1  0.87880083  0.36359650  0.87880083  1
  Al  Al2  1  0.36359650  0.87880083  0.87880083  1
  Al  Al3  1  0.87880083  0.87880083  0.87880083  1
  Al  Al4  1  0.12119917  0.12119917  0.63640350  1
  Al  Al5  1  0.12119917  0.63640350  0.12119917  1
  Al  Al6  1  0.63640350  0.12119917  0.12119917  1
  Al  Al7  1  0.12119917  0.12119917  0.12119917  1
  Al  Al8  1  0.66277585  0.66277585  0.01167245  1
  Al  Al9  1  0.66277585  0.01167245  0.66277585  1
  Al  Al10  1  0.01167245  0.66277585  0.66277585  1
  Al  Al11  1  0.66277585  0.66277585  0.66277585  1
  Al  Al12  1  0.33722415  0.33722415  0.98832755  1
  Al  Al13  1  0.33722415  0.98832755  0.33722415  1
  Al  Al14  1  0.98832755  0.33722415  0.33722415  1
  Al  Al15  1  0.33722415  0.33722415  0.33722415  1
  Os  Os0  1  0.00000000  0.00000000  0.50000000  1
  Os  Os1  1  0.50000000  0.00000000  0.50000000  1
  Os  Os2  1  0.00000000  0.50000000  0.50000000  1
  Os  Os3  1  0.50000000  0.50000000  0.00000000  1
  Os  Os4  1  0.00000000  0.50000000  0.00000000  1
  Os  Os5  1  0.50000000  0.00000000  0.00000000  1
  Ru  Ru0  1  0.00000000  0.00000000  0.00000000  1
loop_
_geom_bond_atom_site_label_1
_geom_bond_atom_site_label_2
_geom_bond_distance
_geom_bond_site_symmetry_2
Al0 Ru0 2.590631 1_665
Al0 Os2 2.700049 1_655
Al0 Os1 2.700049 1_565
Al0 Os0 2.700056 1_665
Al0 Al11 2.762930 1_555
Al0 Al10 2.762935 1_655
Al0 Al9 2.762935 1_565
Al0 Sc0 2.916649 1_555
Al0 Sc2 2.916657 1_565
Al0 Sc1 2.916657 1_655
Al0 Al6 2.991399 1_565
Al0 Al5 2.991399 1_655
Al0 Al7 2.991412 1_665
Al1 Ru0 2.590631 1_656
Al1 Os2 2.700049 1_655
Al1 Os3 2.700049 1_556
Al1 Os4 2.700056 1_656
Al1 Al11 2.762930 1_555
Al1 Al8 2.762935 1_556
Al1 Al10 2.762935 1_655
Al1 Sc4 2.916649 1_555
Al1 Sc2 2.916657 1_556
Al1 Sc3 2.916657 1_655
Al1 Al4 2.991399 1_655
Al1 Al6 2.991399 1_556
Al1 Al7 2.991411 1_656
Al2 Ru0 2.590631 1_566
Al2 Os1 2.700049 1_565
Al2 Os3 2.700049 1_556
Al2 Os5 2.700056 1_566
Al2 Al8 2.762935 1_556
Al2 Al9 2.762935 1_565
Al2 Sc5 2.916649 1_555
Al2 Sc1 2.916657 1_556
Al2 Sc3 2.916657 1_565
Al2 Al4 2.991399 1_565
Al2 Al5 2.991399 1_556
Al2 Al7 2.991411 1_566
Al3 Ru0 2.590638 1_666
Al3 Os0 2.700049 1_665
Al3 Os4 2.700049 1_656
Al3 Os5 2.700049 1_566
Al3 Al9 2.762928 1_565
Al3 Al8 2.762928 1_556
Al3 Sc4 2.916656 1_565
Al3 Sc0 2.916656 1_556
Al3 Sc5 2.916656 1_655
Al3 Al6 2.991411 1_566
Al3 Al5 2.991411 1_656
Al3 Al4 2.991412 1_665
Al4 Ru0 2.590631 1_556
Al4 Os2 2.700049 1_555
Al4 Os1 2.700049 1_555
Al4 Os0 2.700056 1_555
Al4 Sc3 2.916649 1_555
Al4 Sc5 2.916657 1_545
Al4 Sc4 2.916657 1_455
Al5 Ru0 2.590631 1_565
Al5 Os2 2.700049 1_555
Al5 Os3 2.700049 1_555
Al5 Os4 2.700056 1_555
Al5 Sc1 2.916649 1_555
Al5 Sc5 2.916657 1_554
Al5 Sc0 2.916657 1_455
Al6 Ru0 2.590631 1_655
Al6 Os1 2.700049 1_555
Al6 Os3 2.700049 1_555
Al6 Os5 2.700056 1_555
Al6 Sc2 2.916649 1_555
Al6 Sc4 2.916657 1_554
Al6 Sc0 2.916657 1_545
Al7 Ru0 2.590638 1_555
Al7 Os0 2.700049 1_555
Al7 Os4 2.700049 1_555
Al7 Os5 2.700049 1_555
Al7 Sc1 2.916656 1_545
Al7 Sc3 2.916656 1_554
Al7 Sc2 2.916656 1_455
Al8 Os5 2.520446 1_565
Al8 Os3 2.520446 1_555
Al8 Os4 2.520446 1_655
Al8 Sc0 2.916034 1_555
Al8 Sc2 2.916034 1_555
Al8 Sc1 2.916034 1_555
Al8 Al9 3.044586 1_564
Al9 Os5 2.520446 1_556
Al9 Os1 2.520446 1_555
Al9 Os0 2.520446 1_655
Al9 Sc4 2.916034 1_555
Al9 Sc2 2.916034 1_555
Al9 Sc3 2.916034 1_555
Al10 Os2 2.520446 1_555
Al10 Os4 2.520446 1_556
Al10 Os0 2.520446 1_565
Al10 Al3 2.762928 1_455
Al10 Sc3 2.916034 1_555
Al10 Sc1 2.916034 1_555
Al10 Sc5 2.916034 1_555
Al10 Al9 3.044586 1_465
Al10 Al11 3.044586 1_455
Al10 Al8 3.044586 1_456
Al11 Os1 2.520446 1_565
Al11 Os3 2.520446 1_556
Al11 Os2 2.520446 1_655
Al11 Al2 2.762930 1_555
Al11 Sc0 2.916034 1_555
Al11 Sc4 2.916034 1_555
Al11 Sc5 2.916034 1_555
Al11 Al8 3.044586 1_556
Al11 Al9 3.044586 1_565
Al12 Os5 2.520446 1_556
Al12 Os3 2.520446 1_556
Al12 Os4 2.520446 1_556
Al12 Al7 2.762928 1_556
Al12 Al5 2.762935 1_556
Al12 Al6 2.762935 1_556
Al12 Sc3 2.916034 1_555
Al12 Sc5 2.916034 1_555
Al12 Sc4 2.916034 1_555
Al12 Al15 3.044586 1_556
Al12 Al13 3.044586 1_546
Al12 Al14 3.044586 1_456
Al13 Os5 2.520446 1_565
Al13 Os1 2.520446 1_565
Al13 Os0 2.520446 1_565
Al13 Al7 2.762928 1_565
Al13 Al4 2.762935 1_565
Al13 Al6 2.762935 1_565
Al13 Sc1 2.916034 1_555
Al13 Sc5 2.916034 1_555
Al13 Sc0 2.916034 1_555
Al13 Al15 3.044586 1_565
Al13 Al14 3.044586 1_465
Al14 Os4 2.520446 1_655
Al14 Os2 2.520446 1_655
Al14 Os0 2.520446 1_655
Al14 Al7 2.762928 1_655
Al14 Al4 2.762935 1_655
Al14 Al5 2.762935 1_655
Al14 Sc0 2.916034 1_555
Al14 Sc4 2.916034 1_555
Al14 Sc2 2.916034 1_555
Al14 Al15 3.044586 1_655
Al15 Os1 2.520446 1_555
Al15 Os3 2.520446 1_555
Al15 Os2 2.520446 1_555
Al15 Al5 2.762930 1_555
Al15 Al6 2.762930 1_555
Al15 Al4 2.762930 1_555
Al15 Sc3 2.916034 1_555
Al15 Sc1 2.916034 1_555
Al15 Sc2 2.916034 1_555
Os0 Sc5 3.113493 1_545
Os0 Sc4 3.113493 1_455
Os0 Sc1 3.113493 1_545
Os0 Sc2 3.113493 1_455
Os1 Sc3 3.113493 1_555
Os1 Sc0 3.113493 1_545
Os1 Sc2 3.113493 1_555
Os1 Sc5 3.113493 1_545
Os2 Sc3 3.113493 1_555
Os2 Sc0 3.113493 1_455
Os2 Sc1 3.113494 1_555
Os2 Sc4 3.113494 1_455
Os3 Sc2 3.113493 1_555
Os3 Sc1 3.113493 1_555
Os3 Sc5 3.113493 1_554
Os3 Sc4 3.113493 1_554
Os4 Sc0 3.113493 1_455
Os4 Sc3 3.113493 1_554
Os4 Sc5 3.113494 1_554
Os4 Sc2 3.113494 1_455
Os5 Sc0 3.113493 1_545
Os5 Sc3 3.113493 1_554
Os5 Sc4 3.113493 1_554
Os5 Sc1 3.113493 1_545
