# generated using pymatgen
data_RbLi6BiO6
_symmetry_space_group_name_H-M   'P 1'
_cell_length_a   5.45216777
_cell_length_b   5.45216783
_cell_length_c   5.45216797
_cell_angle_alpha   101.49677700
_cell_angle_beta   101.49677276
_cell_angle_gamma   101.49676963
_symmetry_Int_Tables_number   1
_chemical_formula_structural   RbLi6BiO6
_chemical_formula_sum   'Rb1 Li6 Bi1 O6'
_cell_volume   150.73448150
_cell_formula_units_Z   1
loop_
 _symmetry_equiv_pos_site_id
 _symmetry_equiv_pos_as_xyz
  1  'x, y, z'
loop_
 _atom_site_type_symbol
 _atom_site_label
 _atom_site_symmetry_multiplicity
 _atom_site_fract_x
 _atom_site_fract_y
 _atom_site_fract_z
 _atom_site_occupancy
  Rb  Rb0  1  0.50000000  0.50000000  0.50000000  1
  Li  Li0  1  0.65562988  0.34436912  0.00000000  1
  Li  Li1  1  0.34436912  0.65562988  1.00000000  1
  Li  Li2  1  0.65562988  0.00000000  0.34437012  1
  Li  Li3  1  0.00000000  0.65562988  0.34437012  1
  Li  Li4  1  0.34437012  1.00000000  0.65562988  1
  Li  Li5  1  1.00000000  0.34437012  0.65562988  1
  Bi  Bi0  1  0.00000000  0.00000000  0.00000000  1
  O  O0  1  0.72081092  0.72081092  0.09380389  1
  O  O1  1  0.90619711  0.27919008  0.27919008  1
  O  O2  1  0.27919008  0.90619711  0.27919008  1
  O  O3  1  0.72081092  0.09380389  0.72081092  1
  O  O4  1  0.09380389  0.72081092  0.72081092  1
  O  O5  1  0.27919008  0.27919008  0.90619711  1
loop_
_geom_bond_atom_site_label_1
_geom_bond_atom_site_label_2
_geom_bond_distance
_geom_bond_site_symmetry_2
Li0 O5 1.954132 1_554
Li0 O0 1.954142 1_555
Li0 O3 1.972274 1_554
Li0 O1 1.972278 1_555
Li0 Rb0 3.026304 1_555
Li0 Rb0 3.026306 1_554
Li1 O5 1.954132 1_555
Li1 O0 1.954142 1_556
Li1 O4 1.972274 1_555
Li1 O2 1.972278 1_556
Li1 Rb0 3.026304 1_556
Li1 Rb0 3.026306 1_555
Li2 O2 1.954132 1_545
Li2 O3 1.954137 1_555
Li2 O0 1.972277 1_545
Li2 O1 1.972281 1_555
Li2 Rb0 3.026303 1_555
Li2 Rb0 3.026303 1_545
Li3 O1 1.954132 1_455
Li3 O4 1.954137 1_555
Li3 O0 1.972277 1_455
Li3 O2 1.972281 1_555
Li3 Rb0 3.026303 1_555
Li3 Rb0 3.026303 1_455
Li4 O2 1.954132 1_555
Li4 O3 1.954136 1_565
Li4 O4 1.972277 1_555
Li4 O5 1.972281 1_565
Li4 Rb0 3.026303 1_555
Li4 Rb0 3.026303 1_565
Li5 O1 1.954132 1_555
Li5 O4 1.954136 1_655
Li5 O3 1.972277 1_555
Li5 O5 1.972281 1_655
Li5 Rb0 3.026303 1_555
Li5 Rb0 3.026303 1_655
Bi0 O4 2.143056 1_544
Bi0 O3 2.143056 1_454
Bi0 O0 2.143056 1_445
Bi0 O1 2.143059 1_455
Bi0 O2 2.143060 1_545
Bi0 O5 2.143060 1_554
O0 Rb0 3.057989 1_555
O0 Rb0 3.113697 1_554
O1 Rb0 3.057989 1_555
O1 Rb0 3.113692 1_655
O2 Rb0 3.057989 1_555
O2 Rb0 3.113692 1_565
O3 Rb0 3.057989 1_555
O3 Rb0 3.113697 1_545
O4 Rb0 3.057989 1_555
O4 Rb0 3.113697 1_455
O5 Rb0 3.057989 1_555
O5 Rb0 3.113692 1_556
