# generated using pymatgen
data_Os(BrCl)2
_symmetry_space_group_name_H-M   'P 1'
_cell_length_a   6.06821334
_cell_length_b   6.06821327
_cell_length_c   3.76624467
_cell_angle_alpha   90.00000000
_cell_angle_beta   90.00000000
_cell_angle_gamma   96.57441046
_symmetry_Int_Tables_number   1
_chemical_formula_structural   Os(BrCl)2
_chemical_formula_sum   'Os1 Br2 Cl2'
_cell_volume   137.77323444
_cell_formula_units_Z   1
loop_
 _symmetry_equiv_pos_site_id
 _symmetry_equiv_pos_as_xyz
  1  'x, y, z'
loop_
 _atom_site_type_symbol
 _atom_site_label
 _atom_site_symmetry_multiplicity
 _atom_site_fract_x
 _atom_site_fract_y
 _atom_site_fract_z
 _atom_site_occupancy
  Os  Os0  1  0.00000000  0.00000000  0.00000000  1
  Br  Br0  1  0.18655043  0.81344957  0.50000000  1
  Br  Br1  1  0.81344957  0.18655043  0.50000000  1
  Cl  Cl0  1  0.28131173  0.28131173  0.00000000  1
  Cl  Cl1  1  0.71868827  0.71868827  0.00000000  1
loop_
_geom_bond_atom_site_label_1
_geom_bond_atom_site_label_2
_geom_bond_distance
_geom_bond_site_symmetry_2
Br0 Os0 2.530329 1_565
Br0 Os0 2.530329 1_566
Br1 Os0 2.530329 1_656
Br1 Os0 2.530329 1_655
Cl0 Os0 2.271745 1_555
Cl1 Os0 2.271745 1_665
