# generated using pymatgen
data_RbAs12Ir3Os
_symmetry_space_group_name_H-M   'P 1'
_cell_length_a   7.43877395
_cell_length_b   7.43877355
_cell_length_c   7.43522135
_cell_angle_alpha   109.46155028
_cell_angle_beta   109.46154920
_cell_angle_gamma   109.48089142
_symmetry_Int_Tables_number   1
_chemical_formula_structural   RbAs12Ir3Os
_chemical_formula_sum   'Rb1 As12 Ir3 Os1'
_cell_volume   316.75721960
_cell_formula_units_Z   1
loop_
 _symmetry_equiv_pos_site_id
 _symmetry_equiv_pos_as_xyz
  1  'x, y, z'
loop_
 _atom_site_type_symbol
 _atom_site_label
 _atom_site_symmetry_multiplicity
 _atom_site_fract_x
 _atom_site_fract_y
 _atom_site_fract_z
 _atom_site_occupancy
  Rb  Rb0  1  0.00000000  0.00000000  0.00000000  1
  As  As0  1  0.85373960  0.65173486  0.50200555  1
  As  As1  1  0.14626040  0.34826514  0.49799445  1
  As  As2  1  0.14704762  0.64831194  0.79511806  1
  As  As3  1  0.85295238  0.35168806  0.20488194  1
  As  As4  1  0.64831194  0.50126332  0.85319388  1
  As  As5  1  0.35168806  0.49873668  0.14680612  1
  As  As6  1  0.65173486  0.79799526  0.14972931  1
  As  As7  1  0.34826514  0.20200474  0.85027069  1
  As  As8  1  0.50126332  0.85295238  0.64807044  1
  As  As9  1  0.49873668  0.14704762  0.35192956  1
  As  As10  1  0.79799526  0.14626040  0.64826695  1
  As  As11  1  0.20200474  0.85373960  0.35173305  1
  Ir  Ir0  1  0.50000000  0.50000000  0.50000000  1
  Ir  Ir1  1  0.50000000  0.00000000  0.00000000  1
  Ir  Ir2  1  0.00000000  0.50000000  0.00000000  1
  Os  Os0  1  0.00000000  0.00000000  0.50000000  1
loop_
_geom_bond_atom_site_label_1
_geom_bond_atom_site_label_2
_geom_bond_distance
_geom_bond_site_symmetry_2
As0 Os0 2.460096 1_665
As0 Ir0 2.485974 1_555
As0 As2 2.533030 1_655
As0 As3 2.561102 1_555
As0 Rb0 3.263274 1_666
As1 Os0 2.460096 1_555
As1 Ir0 2.485974 1_555
As1 As3 2.533030 1_455
As1 As2 2.561102 1_555
As1 Rb0 3.263274 1_555
As2 Ir1 2.481147 1_566
As2 Ir2 2.481852 1_556
As2 Rb0 3.274855 1_566
As3 Ir1 2.481147 1_555
As3 Ir2 2.481852 1_655
As3 Rb0 3.274855 1_655
As4 Ir2 2.481144 1_656
As4 Ir0 2.481855 1_555
As4 As6 2.533035 1_556
As4 As7 2.561098 1_555
As4 Rb0 3.274860 1_666
As5 Ir2 2.481144 1_555
As5 Ir0 2.481855 1_555
As5 As7 2.533035 1_554
As5 As6 2.561098 1_555
As5 Rb0 3.274860 1_555
As6 Os0 2.460096 1_665
As6 Ir1 2.485974 1_565
As6 Rb0 3.263274 1_665
As7 Os0 2.460096 1_555
As7 Ir1 2.485974 1_556
As7 Rb0 3.263274 1_556
As8 Ir0 2.481151 1_555
As8 Ir1 2.481848 1_566
As8 Rb0 3.274861 1_666
As9 Ir0 2.481151 1_555
As9 Ir1 2.481848 1_555
As9 Rb0 3.274861 1_555
As10 Os0 2.460100 1_655
As10 Ir2 2.485970 1_656
As10 As8 2.533031 1_545
As10 As9 2.561103 1_555
As10 Rb0 3.263268 1_656
As11 Os0 2.460100 1_565
As11 Ir2 2.485970 1_555
As11 As9 2.533031 1_565
As11 As8 2.561103 1_555
As11 Rb0 3.263268 1_565
