# generated using pymatgen
data_NaAg3SeS
_symmetry_space_group_name_H-M   'P 1'
_cell_length_a   8.91735906
_cell_length_b   8.91735968
_cell_length_c   8.91735933
_cell_angle_alpha   59.96980408
_cell_angle_beta   59.96980369
_cell_angle_gamma   59.96979920
_symmetry_Int_Tables_number   1
_chemical_formula_structural   NaAg3SeS
_chemical_formula_sum   'Na4 Ag12 Se4 S4'
_cell_volume   501.06758271
_cell_formula_units_Z   4
loop_
 _symmetry_equiv_pos_site_id
 _symmetry_equiv_pos_as_xyz
  1  'x, y, z'
loop_
 _atom_site_type_symbol
 _atom_site_label
 _atom_site_symmetry_multiplicity
 _atom_site_fract_x
 _atom_site_fract_y
 _atom_site_fract_z
 _atom_site_occupancy
  Na  Na0  1  0.62881822  0.62881822  0.13258761  1
  Na  Na1  1  0.62881822  0.13258761  0.62881822  1
  Na  Na2  1  0.13258761  0.62881822  0.62881822  1
  Na  Na3  1  0.61326078  0.61326078  0.61326078  1
  Ag  Ag0  1  0.07444033  0.42187747  0.42187747  1
  Ag  Ag1  1  0.82770199  0.17121017  0.17121017  1
  Ag  Ag2  1  0.42187747  0.07444033  0.42187747  1
  Ag  Ag3  1  0.42187747  0.42187747  0.07444033  1
  Ag  Ag4  1  0.08103585  0.08103585  0.41742101  1
  Ag  Ag5  1  0.08103585  0.41742101  0.08103585  1
  Ag  Ag6  1  0.16597572  0.83188190  0.83188190  1
  Ag  Ag7  1  0.83188190  0.83188190  0.16597572  1
  Ag  Ag8  1  0.17121017  0.17121017  0.82770199  1
  Ag  Ag9  1  0.17121017  0.82770199  0.17121017  1
  Ag  Ag10  1  0.83188190  0.16597572  0.83188190  1
  Ag  Ag11  1  0.41742101  0.08103585  0.08103585  1
  Se  Se0  1  0.85518236  0.85518236  0.42761843  1
  Se  Se1  1  0.39098448  0.39098448  0.39098448  1
  Se  Se2  1  0.42761843  0.85518236  0.85518236  1
  Se  Se3  1  0.85518236  0.42761843  0.85518236  1
  S  S0  1  0.38466625  0.38466625  0.83835923  1
  S  S1  1  0.38466625  0.83835923  0.38466625  1
  S  S2  1  0.83835923  0.38466625  0.38466625  1
  S  S3  1  0.86230698  0.86230698  0.86230698  1
loop_
_geom_bond_atom_site_label_1
_geom_bond_atom_site_label_2
_geom_bond_distance
_geom_bond_site_symmetry_2
Na0 S2 2.918608 1_555
Na0 S1 2.918608 1_555
Na0 S3 2.961882 1_554
Na0 Se1 3.004132 1_555
Na0 Se2 3.038487 1_554
Na0 Se3 3.038487 1_554
Na1 S0 2.918608 1_555
Na1 S2 2.918608 1_555
Na1 S3 2.961882 1_545
Na1 Se1 3.004132 1_555
Na1 Se0 3.038487 1_545
Na1 Se2 3.038487 1_545
Na2 S0 2.918608 1_555
Na2 S1 2.918608 1_555
Na2 S3 2.961882 1_455
Na2 Se1 3.004132 1_555
Na2 Se0 3.038487 1_455
Na2 Se3 3.038487 1_455
Na3 S1 2.882348 1_555
Na3 S2 2.882348 1_555
Na3 S0 2.882348 1_555
Na3 Se3 3.091520 1_555
Na3 Se2 3.091520 1_555
Na3 Se0 3.091520 1_555
Ag0 S2 2.482093 1_455
Ag0 Se1 2.576613 1_555
Ag1 Se0 2.578767 1_545
Ag1 Se3 2.578767 1_554
Ag2 S1 2.482093 1_545
Ag2 Se1 2.576613 1_555
Ag3 S0 2.482093 1_554
Ag3 Se1 2.576613 1_555
Ag4 S1 2.464914 1_545
Ag4 S2 2.464914 1_455
Ag5 S0 2.464914 1_554
Ag5 S2 2.464914 1_455
Ag6 S3 2.466379 1_455
Ag6 Se2 2.558055 1_555
Ag7 S3 2.466379 1_554
Ag7 Se0 2.558055 1_555
Ag8 Se3 2.578767 1_455
Ag8 Se2 2.578767 1_545
Ag9 Se0 2.578767 1_455
Ag9 Se2 2.578767 1_554
Ag10 S3 2.466379 1_545
Ag10 Se3 2.558055 1_555
Ag11 S0 2.464914 1_554
Ag11 S1 2.464914 1_545
