# generated using pymatgen
data_LuTa(SeO3)4
_symmetry_space_group_name_H-M   'P 1'
_cell_length_a   8.56904742
_cell_length_b   8.65894383
_cell_length_c   8.56004750
_cell_angle_alpha   90.47144170
_cell_angle_beta   90.00000000
_cell_angle_gamma   90.00000000
_symmetry_Int_Tables_number   1
_chemical_formula_structural   LuTa(SeO3)4
_chemical_formula_sum   'Lu2 Ta2 Se8 O24'
_cell_volume   635.12461027
_cell_formula_units_Z   2
loop_
 _symmetry_equiv_pos_site_id
 _symmetry_equiv_pos_as_xyz
  1  'x, y, z'
loop_
 _atom_site_type_symbol
 _atom_site_label
 _atom_site_symmetry_multiplicity
 _atom_site_fract_x
 _atom_site_fract_y
 _atom_site_fract_z
 _atom_site_occupancy
  Lu  Lu0  1  0.00000000  0.50000000  0.00000000  1
  Lu  Lu1  1  0.50000000  0.50000000  0.50000000  1
  Ta  Ta0  1  0.00000000  0.00000000  0.50000000  1
  Ta  Ta1  1  0.50000000  0.00000000  0.00000000  1
  Se  Se0  1  0.32233865  0.69100242  0.18341646  1
  Se  Se1  1  0.82233865  0.30899758  0.31658354  1
  Se  Se2  1  0.70109382  0.81702322  0.69526983  1
  Se  Se3  1  0.20109382  0.18297678  0.80473017  1
  Se  Se4  1  0.67766135  0.30899758  0.81658354  1
  Se  Se5  1  0.17766135  0.69100242  0.68341646  1
  Se  Se6  1  0.29890618  0.18297678  0.30473017  1
  Se  Se7  1  0.79890618  0.81702322  0.19526983  1
  O  O0  1  0.23353643  0.56782292  0.06142011  1
  O  O1  1  0.73353643  0.43217708  0.43857989  1
  O  O2  1  0.78543408  0.95833928  0.58020081  1
  O  O3  1  0.28543408  0.04166072  0.91979919  1
  O  O4  1  0.56748651  0.93790961  0.78662280  1
  O  O5  1  0.46031445  0.58191655  0.26549176  1
  O  O6  1  0.96031445  0.41808345  0.23450824  1
  O  O7  1  0.06748651  0.06209039  0.71337720  1
  O  O8  1  0.94086302  0.21261238  0.45432045  1
  O  O9  1  0.58714035  0.73022661  0.56558374  1
  O  O10  1  0.44086302  0.78738762  0.04567955  1
  O  O11  1  0.08714035  0.26977339  0.93441626  1
  O  O12  1  0.76646357  0.43217708  0.93857989  1
  O  O13  1  0.26646357  0.56782292  0.56142011  1
  O  O14  1  0.21456592  0.04166072  0.41979919  1
  O  O15  1  0.71456592  0.95833928  0.08020081  1
  O  O16  1  0.43251349  0.06209039  0.21337720  1
  O  O17  1  0.53968555  0.41808345  0.73450824  1
  O  O18  1  0.03968555  0.58191655  0.76549176  1
  O  O19  1  0.93251349  0.93790961  0.28662280  1
  O  O20  1  0.05913698  0.78738762  0.54567955  1
  O  O21  1  0.41285965  0.26977339  0.43441626  1
  O  O22  1  0.55913698  0.21261238  0.95432045  1
  O  O23  1  0.91285965  0.73022661  0.06558374  1
loop_
_geom_bond_atom_site_label_1
_geom_bond_atom_site_label_2
_geom_bond_distance
_geom_bond_site_symmetry_2
Lu0 O0 2.149645 1_555
Lu0 O12 2.149645 1_454
Lu0 O18 2.161449 1_554
Lu0 O6 2.161449 1_455
Lu0 O23 2.197373 1_455
Lu0 O11 2.197373 1_554
Lu1 O13 2.149645 1_555
Lu1 O1 2.149645 1_555
Lu1 O5 2.161449 1_555
Lu1 O17 2.161449 1_555
Lu1 O9 2.197373 1_555
Lu1 O21 2.197373 1_555
O0 Se0 1.670004 1_555
O1 Se1 1.670004 1_555
O2 Se2 1.734844 1_555
O2 Ta0 1.996513 1_665
O3 Se3 1.734844 1_555
O3 Ta1 1.996513 1_556
O4 Se2 1.733344 1_555
O4 Ta1 1.985822 1_566
O5 Se0 1.671710 1_555
O6 Se1 1.671710 1_555
O7 Se3 1.733344 1_555
O7 Ta0 1.985822 1_555
O8 Se1 1.770421 1_555
O8 Ta0 1.952130 1_655
O9 Se2 1.654384 1_555
O10 Se0 1.770421 1_555
O10 Ta1 1.952130 1_565
O11 Se3 1.654384 1_555
O12 Se4 1.670004 1_555
O13 Se5 1.670004 1_555
O14 Se6 1.734844 1_555
O14 Ta0 1.996513 1_555
O15 Se7 1.734844 1_555
O15 Ta1 1.996513 1_565
O16 Se6 1.733344 1_555
O16 Ta1 1.985822 1_555
O17 Se4 1.671710 1_555
O18 Se5 1.671710 1_555
O19 Se7 1.733344 1_555
O19 Ta0 1.985822 1_665
O20 Se5 1.770421 1_555
O20 Ta0 1.952130 1_565
O21 Se6 1.654384 1_555
O22 Se4 1.770421 1_555
O22 Ta1 1.952130 1_556
O23 Se7 1.654384 1_555
