# generated using pymatgen
data_Rb3Li2NbP3
_symmetry_space_group_name_H-M   'P 1'
_cell_length_a   9.93355693
_cell_length_b   9.93355661
_cell_length_c   15.58954465
_cell_angle_alpha   90.00000000
_cell_angle_beta   90.00000000
_cell_angle_gamma   142.49705128
_symmetry_Int_Tables_number   1
_chemical_formula_structural   Rb3Li2NbP3
_chemical_formula_sum   'Rb12 Li8 Nb4 P12'
_cell_volume   936.52471080
_cell_formula_units_Z   4
loop_
 _symmetry_equiv_pos_site_id
 _symmetry_equiv_pos_as_xyz
  1  'x, y, z'
loop_
 _atom_site_type_symbol
 _atom_site_label
 _atom_site_symmetry_multiplicity
 _atom_site_fract_x
 _atom_site_fract_y
 _atom_site_fract_z
 _atom_site_occupancy
  Rb  Rb0  1  0.94905733  0.60994748  0.82734431  1
  Rb  Rb1  1  0.55094267  0.89005252  0.32734431  1
  Rb  Rb2  1  0.39005252  0.05094267  0.17265569  1
  Rb  Rb3  1  0.05094267  0.39005252  0.17265569  1
  Rb  Rb4  1  0.89005252  0.55094267  0.32734431  1
  Rb  Rb5  1  0.44905733  0.10994748  0.67265569  1
  Rb  Rb6  1  0.60994748  0.94905733  0.82734431  1
  Rb  Rb7  1  0.28879707  0.28879707  0.31461972  1
  Rb  Rb8  1  0.78879707  0.78879707  0.18538028  1
  Rb  Rb9  1  0.21120293  0.21120293  0.81461972  1
  Rb  Rb10  1  0.71120293  0.71120293  0.68538028  1
  Rb  Rb11  1  0.10994748  0.44905733  0.67265569  1
  Li  Li0  1  0.91909129  0.08090871  0.00000000  1
  Li  Li1  1  0.58090871  0.41909129  0.50000000  1
  Li  Li2  1  0.08090871  0.91909129  0.00000000  1
  Li  Li3  1  0.41909129  0.58090871  0.50000000  1
  Li  Li4  1  0.75007280  0.24992720  0.00000000  1
  Li  Li5  1  0.74992720  0.25007280  0.50000000  1
  Li  Li6  1  0.24992720  0.75007280  0.00000000  1
  Li  Li7  1  0.25007280  0.74992720  0.50000000  1
  Nb  Nb0  1  0.58314698  0.41685302  0.00000000  1
  Nb  Nb1  1  0.91685302  0.08314698  0.50000000  1
  Nb  Nb2  1  0.41685302  0.58314698  0.00000000  1
  Nb  Nb3  1  0.08314698  0.91685302  0.50000000  1
  P  P0  1  0.88449403  0.56681104  0.08478589  1
  P  P1  1  0.43318896  0.11550597  0.91521411  1
  P  P2  1  0.61550597  0.93318896  0.58478589  1
  P  P3  1  0.93318896  0.61550597  0.58478589  1
  P  P4  1  0.11550597  0.43318896  0.91521411  1
  P  P5  1  0.56681104  0.88449403  0.08478589  1
  P  P6  1  0.38449403  0.06681104  0.41521411  1
  P  P7  1  0.22059434  0.22059434  0.58506555  1
  P  P8  1  0.72059434  0.72059434  0.91493445  1
  P  P9  1  0.27940566  0.27940566  0.08506555  1
  P  P10  1  0.06681104  0.38449403  0.41521411  1
  P  P11  1  0.77940566  0.77940566  0.41493445  1
loop_
_geom_bond_atom_site_label_1
_geom_bond_atom_site_label_2
_geom_bond_distance
_geom_bond_site_symmetry_2
Li0 P4 2.639426 1_654
Li0 P5 2.639426 1_545
Li0 P8 2.694375 1_544
Li0 P9 2.694375 1_655
Li1 P6 2.639426 1_555
Li1 P3 2.639426 1_555
Li1 P11 2.694375 1_555
Li1 P7 2.694375 1_555
Li2 P0 2.639426 1_455
Li2 P1 2.639426 1_564
Li2 P9 2.694375 1_565
Li2 P8 2.694375 1_454
Li3 P2 2.639426 1_555
Li3 P10 2.639426 1_555
Li3 P7 2.694375 1_555
Li3 P11 2.694375 1_555
Li4 P0 2.601857 1_555
Li4 P1 2.601857 1_554
Li4 P5 2.784484 1_545
Li4 P4 2.784484 1_654
Li5 P2 2.601857 1_545
Li5 P10 2.601857 1_655
Li5 P3 2.784484 1_555
Li5 P6 2.784484 1_555
Li6 P4 2.601857 1_554
Li6 P5 2.601857 1_555
Li6 P1 2.784484 1_564
Li6 P0 2.784484 1_455
Li7 P6 2.601857 1_565
Li7 P3 2.601857 1_455
Li7 P10 2.784484 1_555
Li7 P2 2.784484 1_555
Nb0 P1 2.419046 1_554
Nb0 P0 2.419046 1_555
Nb0 P8 2.488014 1_554
Nb0 P9 2.488014 1_555
Nb1 P10 2.419046 1_655
Nb1 P2 2.419046 1_545
Nb1 P11 2.488014 1_545
Nb1 P7 2.488014 1_655
Nb2 P5 2.419046 1_555
Nb2 P4 2.419046 1_554
Nb2 P9 2.488014 1_555
Nb2 P8 2.488014 1_554
Nb3 P3 2.419046 1_455
Nb3 P6 2.419046 1_565
Nb3 P7 2.488014 1_565
Nb3 P11 2.488014 1_455
P0 Rb8 3.398738 1_555
P0 Rb2 3.450357 1_665
P0 Rb3 3.507073 1_655
P0 Rb2 3.510767 1_555
P0 Rb4 3.786886 1_555
P1 Rb9 3.398738 1_555
P1 Rb0 3.450357 1_445
P1 Rb6 3.507073 1_545
P1 Rb0 3.510767 1_555
P1 Rb5 3.786886 1_555
P2 Rb10 3.398738 1_555
P2 Rb11 3.450357 1_555
P2 Rb5 3.507073 1_565
P2 Rb11 3.510767 1_665
P2 Rb6 3.786886 1_555
P3 Rb10 3.398738 1_555
P3 Rb5 3.450357 1_555
P3 Rb11 3.507073 1_655
P3 Rb5 3.510767 1_665
P3 Rb0 3.786886 1_555
P4 Rb9 3.398738 1_555
P4 Rb6 3.450357 1_445
P4 Rb0 3.507073 1_455
P4 Rb6 3.510767 1_555
P4 Rb11 3.786886 1_555
P5 Rb8 3.398738 1_555
P5 Rb3 3.450357 1_665
P5 Rb2 3.507073 1_565
P5 Rb3 3.510767 1_555
P5 Rb1 3.786886 1_555
P6 Rb7 3.398738 1_555
P6 Rb4 3.450357 1_555
P6 Rb1 3.507073 1_545
P6 Rb4 3.510767 1_445
P6 Rb2 3.786886 1_555
P7 Rb11 3.490091 1_555
P7 Rb5 3.490091 1_555
P7 Rb10 3.501890 1_555
P7 Rb9 3.579148 1_555
P7 Rb10 3.609619 1_445
P8 Rb6 3.490091 1_555
P8 Rb0 3.490091 1_555
P8 Rb9 3.501890 1_665
P8 Rb10 3.579148 1_555
P8 Rb9 3.609619 1_555
P9 Rb2 3.490091 1_555
P9 Rb3 3.490091 1_555
P9 Rb8 3.501890 1_445
P9 Rb7 3.579148 1_555
P9 Rb8 3.609619 1_555
P10 Rb7 3.398738 1_555
P10 Rb1 3.450357 1_555
P10 Rb4 3.507073 1_455
P10 Rb1 3.510767 1_445
P10 Rb3 3.786886 1_555
P11 Rb4 3.490091 1_555
P11 Rb1 3.490091 1_555
P11 Rb7 3.501890 1_555
P11 Rb8 3.579148 1_555
P11 Rb7 3.609619 1_665
