# generated using pymatgen
data_Ni2Sb12OsRu
_symmetry_space_group_name_H-M   'P 1'
_cell_length_a   7.96848132
_cell_length_b   7.96974850
_cell_length_c   9.22433799
_cell_angle_alpha   55.10514314
_cell_angle_beta   55.10715442
_cell_angle_gamma   71.04047320
_symmetry_Int_Tables_number   1
_chemical_formula_structural   Ni2Sb12OsRu
_chemical_formula_sum   'Ni2 Sb12 Os1 Ru1'
_cell_volume   394.09989408
_cell_formula_units_Z   1
loop_
 _symmetry_equiv_pos_site_id
 _symmetry_equiv_pos_as_xyz
  1  'x, y, z'
loop_
 _atom_site_type_symbol
 _atom_site_label
 _atom_site_symmetry_multiplicity
 _atom_site_fract_x
 _atom_site_fract_y
 _atom_site_fract_z
 _atom_site_occupancy
  Ni  Ni0  1  0.00000000  0.50000000  0.50000000  1
  Ni  Ni1  1  0.50000000  0.00000000  0.50000000  1
  Sb  Sb0  1  0.15571498  0.15423206  0.17895940  1
  Sb  Sb1  1  0.84428502  0.84576794  0.82104060  1
  Sb  Sb2  1  0.84290089  0.84282069  0.49716385  1
  Sb  Sb3  1  0.15709911  0.15717931  0.50283615  1
  Sb  Sb4  1  0.81842504  0.50666927  0.33928443  1
  Sb  Sb5  1  0.18157496  0.49333073  0.66071557  1
  Sb  Sb6  1  0.50648575  0.81921803  0.33836044  1
  Sb  Sb7  1  0.49351425  0.18078197  0.66163956  1
  Sb  Sb8  1  0.66441310  0.34067703  0.84070548  1
  Sb  Sb9  1  0.33558690  0.65932297  0.15929452  1
  Sb  Sb10  1  0.65891411  0.33450458  0.15913996  1
  Sb  Sb11  1  0.34108589  0.66549542  0.84086004  1
  Os  Os0  1  0.00000000  0.50000000  0.00000000  1
  Ru  Ru0  1  0.50000000  0.00000000  0.00000000  1
loop_
_geom_bond_atom_site_label_1
_geom_bond_atom_site_label_2
_geom_bond_distance
_geom_bond_site_symmetry_2
Ni0 Sb5 2.570601 1_555
Ni0 Sb4 2.570601 1_455
Ni0 Sb9 2.581815 1_555
Ni0 Sb8 2.581815 1_455
Ni0 Sb2 2.601129 1_455
Ni0 Sb3 2.601129 1_555
Ni1 Sb7 2.573523 1_555
Ni1 Sb6 2.573523 1_545
Ni1 Sb11 2.577725 1_545
Ni1 Sb10 2.577725 1_555
Ni1 Sb2 2.601434 1_545
Ni1 Sb3 2.601434 1_555
Sb0 Sb2 2.881470 1_445
Sb0 Sb3 3.007370 1_555
Sb1 Sb3 2.881470 1_665
Sb1 Sb2 3.007370 1_555
Sb4 Sb6 2.891374 1_555
Sb4 Sb7 3.002686 1_555
Sb5 Sb7 2.891374 1_555
Sb5 Sb6 3.002686 1_555
Sb10 Sb8 2.884644 1_554
Sb10 Sb9 3.000922 1_555
Sb11 Sb9 2.884644 1_556
Sb11 Sb8 3.000922 1_555
Os0 Sb0 2.602946 1_555
Os0 Sb1 2.602946 1_454
Os0 Sb11 2.613655 1_554
Os0 Sb10 2.613655 1_455
Os0 Sb4 2.617399 1_455
Os0 Sb5 2.617399 1_554
Ru0 Sb0 2.590638 1_555
Ru0 Sb1 2.590638 1_544
Ru0 Sb8 2.606087 1_554
Ru0 Sb9 2.606087 1_545
Ru0 Sb6 2.609821 1_545
Ru0 Sb7 2.609821 1_554
