# generated using pymatgen
data_MgNbAsF12
_symmetry_space_group_name_H-M   'P 1'
_cell_length_a   5.30010556
_cell_length_b   10.67799632
_cell_length_c   5.30946023
_cell_angle_alpha   55.77774922
_cell_angle_beta   55.98517884
_cell_angle_gamma   57.05191324
_symmetry_Int_Tables_number   1
_chemical_formula_structural   MgNbAsF12
_chemical_formula_sum   'Mg1 Nb1 As1 F12'
_cell_volume   194.08327395
_cell_formula_units_Z   1
loop_
 _symmetry_equiv_pos_site_id
 _symmetry_equiv_pos_as_xyz
  1  'x, y, z'
loop_
 _atom_site_type_symbol
 _atom_site_label
 _atom_site_symmetry_multiplicity
 _atom_site_fract_x
 _atom_site_fract_y
 _atom_site_fract_z
 _atom_site_occupancy
  Mg  Mg0  1  0.50217390  0.73922931  0.51380146  1
  Nb  Nb0  1  0.01284845  0.01857138  0.96455594  1
  As  As0  1  0.97848212  0.49269821  0.02852046  1
  F  F0  1  0.40660122  0.05189764  0.75894329  1
  F  F1  1  0.32378022  0.55624239  0.78888084  1
  F  F2  1  0.07490772  0.39224307  0.36800946  1
  F  F3  1  0.13957087  0.87260941  0.35905739  1
  F  F4  1  0.19679505  0.33358582  0.90799441  1
  F  F5  1  0.25316006  0.81340620  0.87461223  1
  F  F6  1  0.93988018  0.11393142  0.57954776  1
  F  F7  1  0.87895821  0.61656585  0.66733014  1
  F  F8  1  0.62100386  0.45787530  0.23524032  1
  F  F9  1  0.65937769  0.92428219  0.24276237  1
  F  F10  1  0.74361450  0.19504918  0.08923385  1
  F  F11  1  0.76884696  0.67181465  0.12151007  1
loop_
_geom_bond_atom_site_label_1
_geom_bond_atom_site_label_2
_geom_bond_distance
_geom_bond_site_symmetry_2
As0 F4 1.700311 1_654
As0 F8 1.706861 1_555
As0 F2 1.708906 1_655
As0 F1 1.789710 1_654
As0 F7 1.795862 1_554
As0 F11 1.809193 1_555
F0 Nb0 1.869647 1_555
F1 Mg0 2.024747 1_555
F3 Mg0 1.967225 1_555
F3 Nb0 2.007694 1_564
F5 Mg0 1.944237 1_555
F5 Nb0 2.027507 1_565
F6 Nb0 1.865463 1_655
F7 Mg0 2.035477 1_555
F9 Mg0 1.980044 1_555
F9 Nb0 1.997040 1_664
F10 Nb0 1.856556 1_654
F11 Mg0 2.034759 1_555
