# generated using pymatgen
data_Ti5FeSb2
_symmetry_space_group_name_H-M   'P 1'
_cell_length_a   7.82579885
_cell_length_b   7.82579885
_cell_length_c   7.82579885
_cell_angle_alpha   96.19992611
_cell_angle_beta   96.19992611
_cell_angle_gamma   141.62864045
_symmetry_Int_Tables_number   1
_chemical_formula_structural   Ti5FeSb2
_chemical_formula_sum   'Ti10 Fe2 Sb4'
_cell_volume   280.98933399
_cell_formula_units_Z   2
loop_
 _symmetry_equiv_pos_site_id
 _symmetry_equiv_pos_as_xyz
  1  'x, y, z'
loop_
 _atom_site_type_symbol
 _atom_site_label
 _atom_site_symmetry_multiplicity
 _atom_site_fract_x
 _atom_site_fract_y
 _atom_site_fract_z
 _atom_site_occupancy
  Ti  Ti0  1  0.56896700  0.69864000  0.26760700  1
  Ti  Ti1  1  0.43103300  0.30136000  0.73239300  1
  Ti  Ti2  1  0.75000000  0.25000000  0.50000000  1
  Ti  Ti3  1  0.25000000  0.75000000  0.50000000  1
  Ti  Ti4  1  0.69864000  0.43103300  0.12967300  1
  Ti  Ti5  1  0.30136000  0.56896700  0.87032700  1
  Ti  Ti6  1  0.93103300  0.19864000  0.12967300  1
  Ti  Ti7  1  0.19864000  0.06896700  0.26760700  1
  Ti  Ti8  1  0.06896700  0.80136000  0.87032700  1
  Ti  Ti9  1  0.80136000  0.93103300  0.73239300  1
  Fe  Fe0  1  0.75000000  0.75000000  0.00000000  1
  Fe  Fe1  1  0.25000000  0.25000000  0.00000000  1
  Sb  Sb0  1  0.33583700  0.83583700  0.17167400  1
  Sb  Sb1  1  0.16416300  0.33583700  0.50000000  1
  Sb  Sb2  1  0.66416300  0.16416300  0.82832600  1
  Sb  Sb3  1  0.83583700  0.66416300  0.50000000  1
loop_
_geom_bond_atom_site_label_1
_geom_bond_atom_site_label_2
_geom_bond_distance
_geom_bond_site_symmetry_2
Ti2 Ti3 2.571797 1_545
Ti2 Ti3 2.571797 1_655
Fe0 Ti6 2.546429 1_565
Fe0 Ti7 2.546429 1_665
Fe0 Ti4 2.546429 1_555
Fe0 Ti8 2.546429 1_654
Fe0 Ti5 2.546429 1_554
Fe0 Ti1 2.546429 1_554
Fe0 Ti9 2.546429 1_554
Fe0 Ti0 2.546429 1_555
Fe0 Fe1 2.571797 1_665
Fe0 Fe1 2.571797 1_555
Fe1 Ti4 2.546429 1_555
Fe1 Ti7 2.546429 1_555
Fe1 Ti5 2.546429 1_554
Fe1 Ti6 2.546429 1_455
Fe1 Ti1 2.546429 1_554
Fe1 Ti9 2.546429 1_444
Fe1 Ti8 2.546429 1_544
Fe1 Ti0 2.546429 1_555
Sb0 Ti2 2.746348 1_565
Sb0 Ti3 2.746348 1_555
Sb0 Ti8 2.812682 1_554
Sb0 Ti5 2.812682 1_554
Sb0 Ti7 2.827489 1_565
Sb0 Ti0 2.827489 1_555
Sb0 Ti4 3.108188 1_565
Sb0 Ti6 3.108188 1_455
Sb0 Ti4 3.108188 1_455
Sb0 Ti6 3.108188 1_565
Sb1 Ti3 2.746348 1_555
Sb1 Ti2 2.746348 1_455
Sb1 Ti7 2.812682 1_555
Sb1 Ti1 2.812682 1_555
Sb1 Ti6 2.827489 1_455
Sb1 Ti5 2.827489 1_555
Sb1 Ti9 3.108188 1_445
Sb1 Ti0 3.108188 1_445
Sb1 Ti9 3.108188 1_555
Sb1 Ti0 3.108188 1_555
Sb2 Ti2 2.746348 1_555
Sb2 Ti3 2.746348 1_545
Sb2 Ti4 2.812682 1_556
Sb2 Ti6 2.812682 1_556
Sb2 Ti1 2.827489 1_555
Sb2 Ti9 2.827489 1_545
Sb2 Ti8 3.108188 1_545
Sb2 Ti8 3.108188 1_655
Sb2 Ti5 3.108188 1_545
Sb2 Ti5 3.108188 1_655
Sb3 Ti2 2.746348 1_555
Sb3 Ti3 2.746348 1_655
Sb3 Ti0 2.812682 1_555
Sb3 Ti9 2.812682 1_555
Sb3 Ti4 2.827489 1_555
Sb3 Ti8 2.827489 1_655
Sb3 Ti1 3.108188 1_555
Sb3 Ti7 3.108188 1_555
Sb3 Ti7 3.108188 1_665
Sb3 Ti1 3.108188 1_665
