# generated using pymatgen
data_RbNb6BiBr18
_symmetry_space_group_name_H-M   'P 1'
_cell_length_a   10.72272891
_cell_length_b   10.72272884
_cell_length_c   10.72272890
_cell_angle_alpha   55.30046271
_cell_angle_beta   55.30046146
_cell_angle_gamma   55.30047040
_symmetry_Int_Tables_number   1
_chemical_formula_structural   RbNb6BiBr18
_chemical_formula_sum   'Rb1 Nb6 Bi1 Br18'
_cell_volume   776.56442008
_cell_formula_units_Z   1
loop_
 _symmetry_equiv_pos_site_id
 _symmetry_equiv_pos_as_xyz
  1  'x, y, z'
loop_
 _atom_site_type_symbol
 _atom_site_label
 _atom_site_symmetry_multiplicity
 _atom_site_fract_x
 _atom_site_fract_y
 _atom_site_fract_z
 _atom_site_occupancy
  Rb  Rb0  1  0.22186647  0.22186647  0.22186647  1
  Nb  Nb0  1  0.80717183  0.14341603  0.91631407  1
  Nb  Nb1  1  0.91631407  0.80717183  0.14341603  1
  Nb  Nb2  1  0.14341603  0.91631407  0.80717183  1
  Nb  Nb3  1  0.19308581  0.85715023  0.08299802  1
  Nb  Nb4  1  0.08299802  0.19308581  0.85715023  1
  Nb  Nb5  1  0.85715023  0.08299802  0.19308581  1
  Bi  Bi0  1  0.49743663  0.49743663  0.49743663  1
  Br  Br0  1  0.86440037  0.41317868  0.72316250  1
  Br  Br1  1  0.72316250  0.86440037  0.41317868  1
  Br  Br2  1  0.41317868  0.72316250  0.86440037  1
  Br  Br3  1  0.13558495  0.58629171  0.27869369  1
  Br  Br4  1  0.27869369  0.13558495  0.58629171  1
  Br  Br5  1  0.58629171  0.27869369  0.13558495  1
  Br  Br6  1  0.52710143  0.33992422  0.81481802  1
  Br  Br7  1  0.81481802  0.52710143  0.33992422  1
  Br  Br8  1  0.33992422  0.81481802  0.52710143  1
  Br  Br9  1  0.47198141  0.66033376  0.18706058  1
  Br  Br10  1  0.18706058  0.47198141  0.66033376  1
  Br  Br11  1  0.66033376  0.18706058  0.47198141  1
  Br  Br12  1  0.66138230  0.93731292  0.07276521  1
  Br  Br13  1  0.07276521  0.66138230  0.93731292  1
  Br  Br14  1  0.93731292  0.07276521  0.66138230  1
  Br  Br15  1  0.34102928  0.06151679  0.92516507  1
  Br  Br16  1  0.92516507  0.34102928  0.06151679  1
  Br  Br17  1  0.06151679  0.92516507  0.34102928  1
loop_
_geom_bond_atom_site_label_1
_geom_bond_atom_site_label_2
_geom_bond_distance
_geom_bond_site_symmetry_2
Bi0 Br10 2.841560 1_555
Bi0 Br9 2.841560 1_555
Bi0 Br11 2.841560 1_555
Bi0 Br7 2.934641 1_555
Bi0 Br6 2.934641 1_555
Bi0 Br8 2.934641 1_555
Br0 Nb0 2.605033 1_555
Br0 Nb4 2.608357 1_655
Br1 Nb1 2.605033 1_555
Br1 Nb5 2.608356 1_565
Br2 Nb2 2.605034 1_555
Br2 Nb3 2.608357 1_556
Br3 Nb3 2.616403 1_555
Br3 Nb1 2.621641 1_455
Br3 Rb0 3.801296 1_555
Br4 Nb4 2.616403 1_555
Br4 Nb2 2.621641 1_545
Br4 Rb0 3.801296 1_555
Br5 Nb5 2.616404 1_555
Br5 Nb0 2.621641 1_554
Br5 Rb0 3.801296 1_555
Br6 Nb0 2.923817 1_555
Br6 Rb0 3.677914 1_556
Br7 Nb1 2.923816 1_555
Br7 Rb0 3.677915 1_655
Br8 Nb2 2.923816 1_555
Br8 Rb0 3.677915 1_565
Br9 Nb3 2.928248 1_555
Br10 Nb4 2.928248 1_555
Br11 Nb5 2.928248 1_555
Br12 Nb1 2.608575 1_555
Br12 Nb0 2.620806 1_564
Br12 Rb0 3.831434 1_565
Br13 Nb2 2.608575 1_555
Br13 Nb1 2.620807 1_456
Br13 Rb0 3.831433 1_556
Br14 Nb0 2.608575 1_555
Br14 Nb2 2.620807 1_645
Br14 Rb0 3.831433 1_655
Br15 Nb4 2.619006 1_555
Br15 Nb3 2.619456 1_546
Br15 Rb0 3.716037 1_556
Br16 Nb5 2.619006 1_555
Br16 Nb4 2.619457 1_654
Br16 Rb0 3.716037 1_655
Br17 Nb3 2.619006 1_555
Br17 Nb5 2.619457 1_465
Br17 Rb0 3.716037 1_565
