# generated using pymatgen
data_SrBiIr2O7
_symmetry_space_group_name_H-M   'P 1'
_cell_length_a   7.38313764
_cell_length_b   7.33364852
_cell_length_c   7.33364802
_cell_angle_alpha   59.32271067
_cell_angle_beta   59.77651077
_cell_angle_gamma   59.77651474
_symmetry_Int_Tables_number   1
_chemical_formula_structural   SrBiIr2O7
_chemical_formula_sum   'Sr2 Bi2 Ir4 O14'
_cell_volume   278.37698834
_cell_formula_units_Z   2
loop_
 _symmetry_equiv_pos_site_id
 _symmetry_equiv_pos_as_xyz
  1  'x, y, z'
loop_
 _atom_site_type_symbol
 _atom_site_label
 _atom_site_symmetry_multiplicity
 _atom_site_fract_x
 _atom_site_fract_y
 _atom_site_fract_z
 _atom_site_occupancy
  Sr  Sr0  1  0.12500000  0.62500000  0.12500000  1
  Sr  Sr1  1  0.12500000  0.12500000  0.62500000  1
  Bi  Bi0  1  0.62500000  0.12500000  0.12500000  1
  Bi  Bi1  1  0.12500000  0.12500000  0.12500000  1
  Ir  Ir0  1  0.12500000  0.62500000  0.62500000  1
  Ir  Ir1  1  0.62500000  0.12500000  0.62500000  1
  Ir  Ir2  1  0.62500000  0.62500000  0.12500000  1
  Ir  Ir3  1  0.62500000  0.62500000  0.62500000  1
  O  O0  1  0.69258467  0.71298976  0.29563813  1
  O  O1  1  0.29878744  0.29563813  0.71298976  1
  O  O2  1  0.69258467  0.29563813  0.71298976  1
  O  O3  1  0.29878744  0.71298976  0.29563813  1
  O  O4  1  0.30136801  0.69863199  0.69863199  1
  O  O5  1  0.70414994  0.29585006  0.29585006  1
  O  O6  1  0.55741533  0.53701024  0.95436187  1
  O  O7  1  0.95121256  0.95436187  0.53701024  1
  O  O8  1  0.55741533  0.95436187  0.53701024  1
  O  O9  1  0.95121256  0.53701024  0.95436187  1
  O  O10  1  0.94863199  0.55136801  0.55136801  1
  O  O11  1  0.54585006  0.95414994  0.95414994  1
  O  O12  1  0.26545988  0.23454012  0.23454012  1
  O  O13  1  0.98454012  0.01545988  0.01545988  1
loop_
_geom_bond_atom_site_label_1
_geom_bond_atom_site_label_2
_geom_bond_distance
_geom_bond_site_symmetry_2
Bi0 O13 2.168415 1_555
Bi0 O12 2.168415 1_555
Bi0 O8 2.489406 1_545
Bi0 O2 2.489406 1_554
Bi0 O6 2.489406 1_554
Bi0 O0 2.489406 1_545
Bi0 O5 2.560758 1_555
Bi0 O11 2.560758 1_544
Bi1 O12 2.168415 1_555
Bi1 O13 2.168415 1_455
Bi1 O7 2.489406 1_445
Bi1 O1 2.489406 1_554
Bi1 O9 2.489406 1_454
Bi1 O3 2.489406 1_545
Bi1 O11 2.560758 1_544
Bi1 O5 2.560758 1_455
Ir0 O10 1.998025 1_455
Ir0 O4 1.998025 1_555
Ir0 O9 2.004988 1_455
Ir0 O3 2.004988 1_555
Ir0 O7 2.004988 1_455
Ir0 O1 2.004988 1_555
Ir1 O11 1.992232 1_545
Ir1 O5 1.992232 1_555
Ir1 O7 2.002044 1_545
Ir1 O1 2.002044 1_555
Ir1 O2 2.002044 1_555
Ir1 O8 2.002044 1_545
Ir2 O11 1.992232 1_554
Ir2 O5 1.992232 1_555
Ir2 O9 2.002044 1_554
Ir2 O3 2.002044 1_555
Ir2 O0 2.002044 1_555
Ir2 O6 2.002044 1_554
Ir3 O4 1.998024 1_555
Ir3 O10 1.998024 1_555
Ir3 O6 2.004988 1_555
Ir3 O0 2.004988 1_555
Ir3 O8 2.004988 1_555
Ir3 O2 2.004988 1_555
O0 Sr0 2.627313 1_655
O1 Sr1 2.627313 1_555
O2 Sr1 2.627313 1_655
O3 Sr0 2.627313 1_555
O4 Sr0 2.578792 1_556
O4 Sr1 2.578792 1_565
O6 Sr0 2.627313 1_556
O7 Sr1 2.627313 1_665
O8 Sr1 2.627313 1_565
O9 Sr0 2.627313 1_656
O10 Sr0 2.578792 1_655
O10 Sr1 2.578792 1_655
O12 Sr1 2.328570 1_555
O12 Sr0 2.328570 1_555
O13 Sr1 2.328570 1_654
O13 Sr0 2.328570 1_645
