# generated using pymatgen
data_Ba4Hf(IrO4)3
_symmetry_space_group_name_H-M   'P 1'
_cell_length_a   10.20860385
_cell_length_b   10.20860376
_cell_length_c   10.20860451
_cell_angle_alpha   33.18334665
_cell_angle_beta   33.18335070
_cell_angle_gamma   33.18333943
_symmetry_Int_Tables_number   1
_chemical_formula_structural   Ba4Hf(IrO4)3
_chemical_formula_sum   'Ba4 Hf1 Ir3 O12'
_cell_volume   283.69970506
_cell_formula_units_Z   1
loop_
 _symmetry_equiv_pos_site_id
 _symmetry_equiv_pos_as_xyz
  1  'x, y, z'
loop_
 _atom_site_type_symbol
 _atom_site_label
 _atom_site_symmetry_multiplicity
 _atom_site_fract_x
 _atom_site_fract_y
 _atom_site_fract_z
 _atom_site_occupancy
  Ba  Ba0  1  0.71292793  0.71292793  0.71292793  1
  Ba  Ba1  1  0.28707207  0.28707207  0.28707207  1
  Ba  Ba2  1  0.87178007  0.87178007  0.87178007  1
  Ba  Ba3  1  0.12821993  0.12821993  0.12821993  1
  Hf  Hf0  1  0.00000000  0.00000000  0.00000000  1
  Ir  Ir0  1  0.41252730  0.41252730  0.41252730  1
  Ir  Ir1  1  0.50000000  0.50000000  0.50000000  1
  Ir  Ir2  1  0.58747270  0.58747270  0.58747270  1
  O  O0  1  0.20840034  0.20840034  0.70440467  1
  O  O1  1  0.70440467  0.20840034  0.20840034  1
  O  O2  1  0.20840034  0.70440467  0.20840034  1
  O  O3  1  0.79159966  0.29559533  0.79159966  1
  O  O4  1  0.79159966  0.79159966  0.29559533  1
  O  O5  1  0.29559533  0.79159966  0.79159966  1
  O  O6  1  0.38432695  0.38432695  0.86113198  1
  O  O7  1  0.86113198  0.38432695  0.38432695  1
  O  O8  1  0.13886802  0.61567305  0.61567305  1
  O  O9  1  0.61567305  0.61567305  0.13886802  1
  O  O10  1  0.61567305  0.13886802  0.61567305  1
  O  O11  1  0.38432695  0.86113198  0.38432695  1
loop_
_geom_bond_atom_site_label_1
_geom_bond_atom_site_label_2
_geom_bond_distance
_geom_bond_site_symmetry_2
Ba0 O10 2.841894 1_565
Ba0 O8 2.841894 1_655
Ba0 O9 2.841895 1_556
Ba0 O0 2.920007 1_565
Ba0 O0 2.920007 1_655
Ba0 O1 2.920007 1_556
Ba0 O1 2.920007 1_565
Ba0 O2 2.920008 1_556
Ba0 O2 2.920008 1_655
Ba0 O3 3.010974 1_555
Ba0 O5 3.010974 1_555
Ba0 O4 3.010975 1_555
Ba1 O11 2.841894 1_545
Ba1 O7 2.841894 1_455
Ba1 O6 2.841895 1_554
Ba1 O4 2.920007 1_545
Ba1 O4 2.920007 1_455
Ba1 O5 2.920007 1_554
Ba1 O5 2.920007 1_545
Ba1 O3 2.920008 1_554
Ba1 O3 2.920008 1_455
Ba1 O2 3.010974 1_555
Ba1 O1 3.010974 1_555
Ba1 O0 3.010975 1_555
Ba2 O6 2.919424 1_565
Ba2 O6 2.919424 1_655
Ba2 O7 2.919425 1_565
Ba2 O7 2.919425 1_556
Ba2 O11 2.919425 1_655
Ba2 O11 2.919425 1_556
Ba2 O10 2.946627 1_565
Ba2 O8 2.946627 1_655
Ba2 O9 2.946627 1_556
Ba2 O3 3.053685 1_565
Ba2 O5 3.053685 1_655
Ba2 O4 3.053685 1_556
Ba3 O9 2.919424 1_545
Ba3 O9 2.919424 1_455
Ba3 O8 2.919425 1_545
Ba3 O8 2.919425 1_554
Ba3 O10 2.919425 1_455
Ba3 O10 2.919425 1_554
Ba3 O11 2.946627 1_545
Ba3 O7 2.946627 1_455
Ba3 O6 2.946627 1_554
Ba3 O2 3.053685 1_545
Ba3 O1 3.053685 1_455
Ba3 O0 3.053685 1_554
Hf0 O2 2.059740 1_545
Hf0 O3 2.059740 1_454
Hf0 O1 2.059740 1_455
Hf0 O5 2.059740 1_544
Hf0 O0 2.059740 1_554
Hf0 O4 2.059740 1_445
Ir0 O2 2.011324 1_555
Ir0 O1 2.011324 1_555
Ir0 O0 2.011324 1_555
Ir0 O10 2.051778 1_555
Ir0 O8 2.051778 1_555
Ir0 O9 2.051778 1_555
Ir1 O11 2.034800 1_555
Ir1 O10 2.034800 1_555
Ir1 O8 2.034800 1_555
Ir1 O7 2.034800 1_555
Ir1 O6 2.034801 1_555
Ir1 O9 2.034801 1_555
Ir2 O3 2.011324 1_555
Ir2 O5 2.011324 1_555
Ir2 O4 2.011324 1_555
Ir2 O11 2.051778 1_555
Ir2 O7 2.051778 1_555
Ir2 O6 2.051778 1_555
