# generated using pymatgen
data_BaPF7
_symmetry_space_group_name_H-M   'P 1'
_cell_length_a   4.71274050
_cell_length_b   7.28082631
_cell_length_c   7.51611511
_cell_angle_alpha   106.07904906
_cell_angle_beta   102.13888343
_cell_angle_gamma   90.31329599
_symmetry_Int_Tables_number   1
_chemical_formula_structural   BaPF7
_chemical_formula_sum   'Ba2 P2 F14'
_cell_volume   241.71035397
_cell_formula_units_Z   2
loop_
 _symmetry_equiv_pos_site_id
 _symmetry_equiv_pos_as_xyz
  1  'x, y, z'
loop_
 _atom_site_type_symbol
 _atom_site_label
 _atom_site_symmetry_multiplicity
 _atom_site_fract_x
 _atom_site_fract_y
 _atom_site_fract_z
 _atom_site_occupancy
  Ba  Ba0  1  0.16743747  0.32954652  0.77514624  1
  Ba  Ba1  1  0.83256253  0.67045348  0.22485376  1
  P  P0  1  0.64110553  0.80830336  0.70509175  1
  P  P1  1  0.35889447  0.19169664  0.29490825  1
  F  F0  1  0.15185972  0.18133628  0.09335336  1
  F  F1  1  0.43696290  0.79452341  0.49677324  1
  F  F2  1  0.56303710  0.20547659  0.50322676  1
  F  F3  1  0.50238135  0.00376068  0.79546947  1
  F  F4  1  0.49761865  0.99623932  0.20453053  1
  F  F5  1  0.39342291  0.68460460  0.74697392  1
  F  F6  1  0.84814028  0.81866372  0.90664664  1
  F  F7  1  0.28434719  0.59213403  0.09348273  1
  F  F8  1  0.11032441  0.06926230  0.34517115  1
  F  F9  1  0.21495233  0.38727758  0.39320234  1
  F  F10  1  0.71565281  0.40786597  0.90651727  1
  F  F11  1  0.78504767  0.61272242  0.60679766  1
  F  F12  1  0.60657709  0.31539540  0.25302608  1
  F  F13  1  0.88967559  0.93073770  0.65482885  1
loop_
_geom_bond_atom_site_label_1
_geom_bond_atom_site_label_2
_geom_bond_distance
_geom_bond_site_symmetry_2
Ba0 F10 2.533560 1_455
Ba0 F10 2.564024 1_555
Ba0 F7 2.565876 1_556
Ba0 F5 2.868773 1_555
Ba0 F3 2.877775 1_555
Ba0 F0 2.896989 1_556
Ba0 F13 2.994765 1_445
Ba0 F2 3.011165 1_555
Ba0 F9 3.066864 1_555
Ba0 F2 3.099551 1_455
Ba0 F11 3.102609 1_455
Ba0 F8 3.216218 1_555
Ba1 F7 2.533560 1_655
Ba1 F7 2.564024 1_555
Ba1 F10 2.565876 1_554
Ba1 F12 2.868773 1_555
Ba1 F4 2.877775 1_555
Ba1 F6 2.896989 1_554
Ba1 F8 2.994765 1_665
Ba1 F1 3.011165 1_555
Ba1 F11 3.066864 1_555
Ba1 F1 3.099551 1_655
Ba1 F9 3.102609 1_655
Ba1 F13 3.216218 1_555
F0 P1 1.602153 1_555
F1 P0 1.632671 1_555
F2 P1 1.632671 1_555
F3 P0 1.604839 1_545
F4 P1 1.604839 1_565
F5 P0 1.603999 1_555
F6 P0 1.602153 1_555
F8 P1 1.634284 1_555
F9 P1 1.634725 1_555
F11 P0 1.634725 1_555
F12 P1 1.603999 1_555
F13 P0 1.634284 1_555
