# generated using pymatgen
data_Sr2GaFe3Br16
_symmetry_space_group_name_H-M   'P 1'
_cell_length_a   7.47508206
_cell_length_b   7.70728175
_cell_length_c   13.44352023
_cell_angle_alpha   84.93378582
_cell_angle_beta   90.06849648
_cell_angle_gamma   89.96697928
_symmetry_Int_Tables_number   1
_chemical_formula_structural   Sr2GaFe3Br16
_chemical_formula_sum   'Sr2 Ga1 Fe3 Br16'
_cell_volume   771.48913996
_cell_formula_units_Z   1
loop_
 _symmetry_equiv_pos_site_id
 _symmetry_equiv_pos_as_xyz
  1  'x, y, z'
loop_
 _atom_site_type_symbol
 _atom_site_label
 _atom_site_symmetry_multiplicity
 _atom_site_fract_x
 _atom_site_fract_y
 _atom_site_fract_z
 _atom_site_occupancy
  Sr  Sr0  1  0.14445129  0.49887998  0.25116908  1
  Sr  Sr1  1  0.85376073  0.49998286  0.74913472  1
  Ga  Ga0  1  0.26418028  0.67893990  0.57459829  1
  Fe  Fe0  1  0.73519724  0.67781950  0.07641571  1
  Fe  Fe1  1  0.73767145  0.31975824  0.42529085  1
  Fe  Fe2  1  0.26321756  0.32166547  0.92364461  1
  Br  Br0  1  0.53357327  0.74804313  0.65104846  1
  Br  Br1  1  0.30654188  0.75395839  0.40337776  1
  Br  Br2  1  0.81574520  0.38609899  0.11195094  1
  Br  Br3  1  0.18322418  0.61337084  0.88654781  1
  Br  Br4  1  0.46513374  0.25894701  0.34921405  1
  Br  Br5  1  0.30093342  0.24984864  0.09596680  1
  Br  Br6  1  0.69852563  0.24546406  0.59707213  1
  Br  Br7  1  0.46367253  0.74175763  0.15223306  1
  Br  Br8  1  0.18264128  0.38777825  0.61063624  1
  Br  Br9  1  0.53597450  0.25764207  0.84937579  1
  Br  Br10  1  0.81934981  0.61142974  0.39017453  1
  Br  Br11  1  0.97097549  0.84030460  0.13822371  1
  Br  Br12  1  0.69693601  0.75026989  0.90416735  1
  Br  Br13  1  0.02778529  0.15870528  0.86196625  1
  Br  Br14  1  0.97213462  0.15679476  0.36281208  1
  Br  Br15  1  0.02837559  0.84254077  0.63497979  1
loop_
_geom_bond_atom_site_label_1
_geom_bond_atom_site_label_2
_geom_bond_distance
_geom_bond_site_symmetry_2
Br0 Ga0 2.342657 1_555
Br0 Sr1 3.265646 1_555
Br1 Ga0 2.345163 1_555
Br1 Sr0 3.198029 1_555
Br2 Fe0 2.335374 1_555
Br2 Sr0 3.251852 1_655
Br3 Fe2 2.336799 1_555
Br3 Sr1 3.243184 1_455
Br4 Fe1 2.344525 1_555
Br4 Sr0 3.234198 1_555
Br5 Fe2 2.350397 1_554
Br5 Sr0 3.180570 1_555
Br6 Fe1 2.348370 1_555
Br6 Sr1 3.174706 1_555
Br7 Fe0 2.343881 1_555
Br7 Sr0 3.246556 1_555
Br8 Ga0 2.335020 1_555
Br8 Sr1 3.248263 1_455
Br9 Fe2 2.342673 1_555
Br9 Sr1 3.242802 1_555
Br10 Fe1 2.337511 1_555
Br10 Sr0 3.231873 1_655
Br11 Fe0 2.355381 1_555
Br11 Sr0 3.193319 1_655
Br12 Fe0 2.350656 1_556
Br12 Sr1 3.186304 1_555
Br13 Fe2 2.354818 1_555
Br13 Sr1 3.193482 1_455
Br14 Fe1 2.354158 1_555
Br14 Sr0 3.189485 1_655
Br15 Ga0 2.353175 1_555
Br15 Sr1 3.212882 1_455
