# generated using pymatgen
data_K10TaInAs6
_symmetry_space_group_name_H-M   'P 1'
_cell_length_a   8.31894660
_cell_length_b   9.10920020
_cell_length_c   17.57542094
_cell_angle_alpha   60.07329730
_cell_angle_beta   90.00000000
_cell_angle_gamma   90.00000000
_symmetry_Int_Tables_number   1
_chemical_formula_structural   K10TaInAs6
_chemical_formula_sum   'K20 Ta2 In2 As12'
_cell_volume   1154.26424576
_cell_formula_units_Z   2
loop_
 _symmetry_equiv_pos_site_id
 _symmetry_equiv_pos_as_xyz
  1  'x, y, z'
loop_
 _atom_site_type_symbol
 _atom_site_label
 _atom_site_symmetry_multiplicity
 _atom_site_fract_x
 _atom_site_fract_y
 _atom_site_fract_z
 _atom_site_occupancy
  K  K0  1  0.74448729  0.90791614  0.41268710  1
  K  K1  1  0.25551271  0.90791614  0.91268710  1
  K  K2  1  0.76498986  0.08820115  0.59157380  1
  K  K3  1  0.23501014  0.08820115  0.09157380  1
  K  K4  1  0.57147656  0.15985402  0.75419222  1
  K  K5  1  0.42852344  0.15985402  0.25419222  1
  K  K6  1  0.91495600  0.83999096  0.24105468  1
  K  K7  1  0.08504400  0.83999096  0.74105468  1
  K  K8  1  0.73777030  0.54158270  0.75410161  1
  K  K9  1  0.26222970  0.54158270  0.25410161  1
  K  K10  1  0.77381153  0.45603225  0.24117349  1
  K  K11  1  0.22618847  0.45603225  0.74117349  1
  K  K12  1  0.08790074  0.16063132  0.41835751  1
  K  K13  1  0.91209926  0.16063132  0.91835751  1
  K  K14  1  0.41773086  0.84184708  0.58270493  1
  K  K15  1  0.58226914  0.84184708  0.08270493  1
  K  K16  1  0.24155478  0.27981983  0.56997652  1
  K  K17  1  0.75844522  0.27981983  0.06997652  1
  K  K18  1  0.21874567  0.74194437  0.42096065  1
  K  K19  1  0.78125433  0.74194437  0.92096065  1
  Ta  Ta0  1  0.61812858  0.50332476  0.42431702  1
  Ta  Ta1  1  0.38187142  0.50332476  0.92431702  1
  In  In0  1  0.88072180  0.49150299  0.58355648  1
  In  In1  1  0.11927820  0.49150299  0.08355648  1
  As  As0  1  0.92093076  0.48303225  0.42817855  1
  As  As1  1  0.07906924  0.48303225  0.92817855  1
  As  As2  1  0.54629903  0.51754997  0.56009619  1
  As  As3  1  0.45370097  0.51754997  0.06009619  1
  As  As4  1  0.96355944  0.19582419  0.72561124  1
  As  As5  1  0.03644056  0.19582419  0.22561124  1
  As  As6  1  0.53208877  0.76646890  0.29021966  1
  As  As7  1  0.46791123  0.76646890  0.79021966  1
  As  As8  1  0.00066686  0.77224174  0.57768012  1
  As  As9  1  0.99933314  0.77224174  0.07768012  1
  As  As10  1  0.49829066  0.25223836  0.42355825  1
  As  As11  1  0.50170934  0.25223836  0.92355825  1
loop_
_geom_bond_atom_site_label_1
_geom_bond_atom_site_label_2
_geom_bond_distance
_geom_bond_site_symmetry_2
In0 K8 3.459925 1_555
In0 K0 3.650378 1_555
In1 K9 3.459925 1_555
In1 K1 3.650378 1_554
As0 Ta0 2.524202 1_555
As0 In0 2.790258 1_555
As0 K6 3.274352 1_555
As0 K12 3.330140 1_655
As0 K18 3.379059 1_655
As0 K16 3.485494 1_655
As0 K2 3.543966 1_555
As0 K10 3.628674 1_555
As1 Ta1 2.524202 1_555
As1 In1 2.790258 1_556
As1 K7 3.274352 1_555
As1 K13 3.330140 1_455
As1 K19 3.379059 1_455
As1 K17 3.485494 1_456
As1 K3 3.543966 1_556
As1 K11 3.628674 1_555
As2 Ta0 2.525309 1_555
As2 In0 2.805079 1_555
As2 K16 3.281990 1_555
As2 K14 3.346594 1_555
As2 K4 3.347701 1_555
As2 K18 3.549037 1_555
As2 K0 3.589262 1_555
As3 Ta1 2.525309 1_554
As3 In1 2.805079 1_555
As3 K17 3.281990 1_555
As3 K15 3.346594 1_555
As3 K5 3.347701 1_555
As3 K19 3.549037 1_554
As3 K1 3.589262 1_554
As4 In0 2.693144 1_555
As4 K13 3.267761 1_555
As4 K7 3.274689 1_645
As4 K4 3.291543 1_555
As4 K11 3.333658 1_655
As4 K16 3.365640 1_655
As4 K2 3.397624 1_555
As4 K1 3.870859 1_645
As5 In1 2.693144 1_555
As5 K12 3.267761 1_555
As5 K6 3.274689 1_445
As5 K5 3.291543 1_555
As5 K10 3.333658 1_455
As5 K17 3.365640 1_455
As5 K3 3.397624 1_555
As5 K0 3.870859 1_445
As6 Ta0 2.485120 1_555
As6 K6 3.280598 1_555
As6 K9 3.307072 1_555
As6 K15 3.383605 1_555
As6 K18 3.407716 1_555
As6 K5 3.423471 1_565
As6 K0 3.490313 1_555
As7 Ta1 2.485120 1_555
As7 K7 3.280598 1_555
As7 K8 3.307072 1_555
As7 K14 3.383605 1_555
As7 K19 3.407716 1_555
As7 K4 3.423471 1_565
As7 K1 3.490313 1_555
As8 In0 2.698626 1_455
As8 K7 3.299468 1_555
As8 K0 3.301856 1_455
As8 K12 3.316568 1_565
As8 K18 3.422383 1_555
As8 K11 3.437285 1_555
As8 K8 3.508780 1_455
As8 K14 3.536007 1_555
As8 K2 3.590047 1_465
As9 In1 2.698626 1_655
As9 K6 3.299468 1_555
As9 K1 3.301856 1_654
As9 K13 3.316568 1_564
As9 K19 3.422383 1_554
As9 K10 3.437285 1_555
As9 K9 3.508780 1_655
As9 K15 3.536007 1_555
As9 K3 3.590047 1_665
As10 Ta0 2.501147 1_555
As10 K2 3.387099 1_555
As10 K14 3.437249 1_545
As10 K9 3.441076 1_555
As10 K16 3.448471 1_555
As10 K5 3.522093 1_555
As10 K12 3.526510 1_555
As10 K10 3.610729 1_555
As10 K0 3.829724 1_545
As11 Ta1 2.501147 1_555
As11 K3 3.387099 1_556
As11 K15 3.437249 1_546
As11 K8 3.441076 1_555
As11 K17 3.448471 1_556
As11 K4 3.522093 1_555
As11 K13 3.526510 1_555
As11 K11 3.610729 1_555
As11 K1 3.829724 1_545
