# generated using pymatgen
data_Al39Fe7Cu24
_symmetry_space_group_name_H-M   'P 1'
_cell_length_a   12.58571553
_cell_length_b   12.58571553
_cell_length_c   12.58571553
_cell_angle_alpha   90.00000000
_cell_angle_beta   90.00000000
_cell_angle_gamma   90.00000000
_symmetry_Int_Tables_number   1
_chemical_formula_structural   Al39Fe7Cu24
_chemical_formula_sum   'Al78 Fe14 Cu48'
_cell_volume   1993.58030266
_cell_formula_units_Z   2
loop_
 _symmetry_equiv_pos_site_id
 _symmetry_equiv_pos_as_xyz
  1  'x, y, z'
loop_
 _atom_site_type_symbol
 _atom_site_label
 _atom_site_symmetry_multiplicity
 _atom_site_fract_x
 _atom_site_fract_y
 _atom_site_fract_z
 _atom_site_occupancy
  Al  Al0  1  0.00000000  0.17022892  0.29089776  1
  Al  Al1  1  0.29089776  0.00000000  0.17022892  1
  Al  Al2  1  0.17022892  0.29089776  0.00000000  1
  Al  Al3  1  0.82977108  0.70910224  0.00000000  1
  Al  Al4  1  0.29089776  0.00000000  0.82977108  1
  Al  Al5  1  0.82977108  0.29089776  0.00000000  1
  Al  Al6  1  0.70910224  0.00000000  0.17022892  1
  Al  Al7  1  0.70910224  0.00000000  0.82977108  1
  Al  Al8  1  0.17022892  0.70910224  0.00000000  1
  Al  Al9  1  0.00000000  0.82977108  0.70910224  1
  Al  Al10  1  0.00000000  0.17022892  0.70910224  1
  Al  Al11  1  0.00000000  0.82977108  0.29089776  1
  Al  Al12  1  0.60645043  0.50000000  0.32530496  1
  Al  Al13  1  0.32530496  0.60645043  0.50000000  1
  Al  Al14  1  0.50000000  0.32530496  0.60645043  1
  Al  Al15  1  0.50000000  0.67469504  0.60645043  1
  Al  Al16  1  0.32530496  0.39354957  0.50000000  1
  Al  Al17  1  0.50000000  0.32530496  0.39354957  1
  Al  Al18  1  0.67469504  0.39354957  0.50000000  1
  Al  Al19  1  0.67469504  0.60645043  0.50000000  1
  Al  Al20  1  0.50000000  0.67469504  0.39354957  1
  Al  Al21  1  0.60645043  0.50000000  0.67469504  1
  Al  Al22  1  0.39354957  0.50000000  0.67469504  1
  Al  Al23  1  0.39354957  0.50000000  0.32530496  1
  Al  Al24  1  0.17638522  0.30204851  0.38668743  1
  Al  Al25  1  0.38668743  0.17638522  0.30204851  1
  Al  Al26  1  0.30204851  0.38668743  0.17638522  1
  Al  Al27  1  0.69795149  0.61331257  0.17638522  1
  Al  Al28  1  0.38668743  0.82361478  0.69795149  1
  Al  Al29  1  0.69795149  0.38668743  0.82361478  1
  Al  Al30  1  0.61331257  0.82361478  0.30204851  1
  Al  Al31  1  0.61331257  0.17638522  0.69795149  1
  Al  Al32  1  0.30204851  0.61331257  0.82361478  1
  Al  Al33  1  0.17638522  0.69795149  0.61331257  1
  Al  Al34  1  0.82361478  0.30204851  0.61331257  1
  Al  Al35  1  0.82361478  0.69795149  0.38668743  1
  Al  Al36  1  0.82361478  0.69795149  0.61331257  1
  Al  Al37  1  0.61331257  0.82361478  0.69795149  1
  Al  Al38  1  0.69795149  0.61331257  0.82361478  1
  Al  Al39  1  0.30204851  0.38668743  0.82361478  1
  Al  Al40  1  0.61331257  0.17638522  0.30204851  1
  Al  Al41  1  0.30204851  0.61331257  0.17638522  1
  Al  Al42  1  0.38668743  0.17638522  0.69795149  1
  Al  Al43  1  0.38668743  0.82361478  0.30204851  1
  Al  Al44  1  0.69795149  0.38668743  0.17638522  1
  Al  Al45  1  0.82361478  0.30204851  0.38668743  1
  Al  Al46  1  0.17638522  0.69795149  0.38668743  1
  Al  Al47  1  0.17638522  0.30204851  0.61331257  1
  Al  Al48  1  0.10987047  0.50000000  0.50000000  1
  Al  Al49  1  0.50000000  0.10987047  0.50000000  1
  Al  Al50  1  0.50000000  0.50000000  0.10987047  1
  Al  Al51  1  0.50000000  0.89012953  0.50000000  1
  Al  Al52  1  0.50000000  0.50000000  0.89012953  1
  Al  Al53  1  0.89012953  0.50000000  0.50000000  1
  Al  Al54  1  0.00000000  0.60034077  0.31796192  1
  Al  Al55  1  0.31796192  0.00000000  0.60034077  1
  Al  Al56  1  0.60034077  0.31796192  0.00000000  1
  Al  Al57  1  0.39965923  0.68203808  0.00000000  1
  Al  Al58  1  0.31796192  0.00000000  0.39965923  1
  Al  Al59  1  0.39965923  0.31796192  0.00000000  1
  Al  Al60  1  0.68203808  0.00000000  0.60034077  1
  Al  Al61  1  0.68203808  0.00000000  0.39965923  1
  Al  Al62  1  0.60034077  0.68203808  0.00000000  1
  Al  Al63  1  0.00000000  0.39965923  0.68203808  1
  Al  Al64  1  0.00000000  0.60034077  0.68203808  1
  Al  Al65  1  0.00000000  0.39965923  0.31796192  1
  Al  Al66  1  0.11439793  0.12168433  0.50000000  1
  Al  Al67  1  0.50000000  0.11439793  0.12168433  1
  Al  Al68  1  0.12168433  0.50000000  0.11439793  1
  Al  Al69  1  0.87831567  0.50000000  0.11439793  1
  Al  Al70  1  0.50000000  0.88560207  0.87831567  1
  Al  Al71  1  0.87831567  0.50000000  0.88560207  1
  Al  Al72  1  0.50000000  0.88560207  0.12168433  1
  Al  Al73  1  0.50000000  0.11439793  0.87831567  1
  Al  Al74  1  0.12168433  0.50000000  0.88560207  1
  Al  Al75  1  0.11439793  0.87831567  0.50000000  1
  Al  Al76  1  0.88560207  0.12168433  0.50000000  1
  Al  Al77  1  0.88560207  0.87831567  0.50000000  1
  Fe  Fe0  1  0.00000000  0.00000000  0.00000000  1
  Fe  Fe1  1  0.09015896  0.00000000  0.17354685  1
  Fe  Fe2  1  0.17354685  0.09015896  0.00000000  1
  Fe  Fe3  1  0.00000000  0.17354685  0.09015896  1
  Fe  Fe4  1  0.00000000  0.82645315  0.09015896  1
  Fe  Fe5  1  0.17354685  0.90984104  0.00000000  1
  Fe  Fe6  1  0.00000000  0.17354685  0.90984104  1
  Fe  Fe7  1  0.82645315  0.90984104  0.00000000  1
  Fe  Fe8  1  0.82645315  0.09015896  0.00000000  1
  Fe  Fe9  1  0.00000000  0.82645315  0.90984104  1
  Fe  Fe10  1  0.09015896  0.00000000  0.82645315  1
  Fe  Fe11  1  0.90984104  0.00000000  0.82645315  1
  Fe  Fe12  1  0.90984104  0.00000000  0.17354685  1
  Fe  Fe13  1  0.50000000  0.50000000  0.50000000  1
  Cu  Cu0  1  0.19413566  0.12160710  0.30427889  1
  Cu  Cu1  1  0.30427889  0.19413566  0.12160710  1
  Cu  Cu2  1  0.12160710  0.30427889  0.19413566  1
  Cu  Cu3  1  0.87839290  0.69572111  0.19413566  1
  Cu  Cu4  1  0.30427889  0.80586434  0.87839290  1
  Cu  Cu5  1  0.87839290  0.30427889  0.80586434  1
  Cu  Cu6  1  0.69572111  0.80586434  0.12160710  1
  Cu  Cu7  1  0.69572111  0.19413566  0.87839290  1
  Cu  Cu8  1  0.12160710  0.69572111  0.80586434  1
  Cu  Cu9  1  0.19413566  0.87839290  0.69572111  1
  Cu  Cu10  1  0.80586434  0.12160710  0.69572111  1
  Cu  Cu11  1  0.80586434  0.87839290  0.30427889  1
  Cu  Cu12  1  0.80586434  0.87839290  0.69572111  1
  Cu  Cu13  1  0.69572111  0.80586434  0.87839290  1
  Cu  Cu14  1  0.87839290  0.69572111  0.80586434  1
  Cu  Cu15  1  0.12160710  0.30427889  0.80586434  1
  Cu  Cu16  1  0.69572111  0.19413566  0.12160710  1
  Cu  Cu17  1  0.12160710  0.69572111  0.19413566  1
  Cu  Cu18  1  0.30427889  0.19413566  0.87839290  1
  Cu  Cu19  1  0.30427889  0.80586434  0.12160710  1
  Cu  Cu20  1  0.87839290  0.30427889  0.19413566  1
  Cu  Cu21  1  0.80586434  0.12160710  0.30427889  1
  Cu  Cu22  1  0.19413566  0.87839290  0.30427889  1
  Cu  Cu23  1  0.19413566  0.12160710  0.69572111  1
  Cu  Cu24  1  0.00000000  0.00000000  0.38796622  1
  Cu  Cu25  1  0.38796622  0.00000000  0.00000000  1
  Cu  Cu26  1  0.00000000  0.38796622  0.00000000  1
  Cu  Cu27  1  0.00000000  0.61203378  0.00000000  1
  Cu  Cu28  1  0.61203378  0.00000000  0.00000000  1
  Cu  Cu29  1  0.00000000  0.00000000  0.61203378  1
  Cu  Cu30  1  0.18667299  0.50000000  0.30761376  1
  Cu  Cu31  1  0.30761376  0.18667299  0.50000000  1
  Cu  Cu32  1  0.50000000  0.30761376  0.18667299  1
  Cu  Cu33  1  0.50000000  0.69238624  0.18667299  1
  Cu  Cu34  1  0.30761376  0.81332701  0.50000000  1
  Cu  Cu35  1  0.50000000  0.30761376  0.81332701  1
  Cu  Cu36  1  0.69238624  0.81332701  0.50000000  1
  Cu  Cu37  1  0.69238624  0.18667299  0.50000000  1
  Cu  Cu38  1  0.50000000  0.69238624  0.81332701  1
  Cu  Cu39  1  0.18667299  0.50000000  0.69238624  1
  Cu  Cu40  1  0.81332701  0.50000000  0.69238624  1
  Cu  Cu41  1  0.81332701  0.50000000  0.30761376  1
  Cu  Cu42  1  0.00000000  0.30690955  0.50000000  1
  Cu  Cu43  1  0.50000000  0.00000000  0.30690955  1
  Cu  Cu44  1  0.30690955  0.50000000  0.00000000  1
  Cu  Cu45  1  0.69309045  0.50000000  0.00000000  1
  Cu  Cu46  1  0.50000000  0.00000000  0.69309045  1
  Cu  Cu47  1  0.00000000  0.69309045  0.50000000  1
loop_
_geom_bond_atom_site_label_1
_geom_bond_atom_site_label_2
_geom_bond_distance
_geom_bond_site_symmetry_2
Al0 Cu24 2.466292 1_555
Al0 Cu0 2.524426 1_555
Al0 Cu21 2.524426 1_455
Al0 Fe3 2.526787 1_555
Al0 Cu20 2.583004 1_455
Al0 Cu2 2.583004 1_555
Al0 Fe12 2.838846 1_455
Al0 Fe1 2.838846 1_555
Al0 Al65 2.907565 1_555
Al1 Cu25 2.466292 1_555
Al1 Cu1 2.524426 1_555
Al1 Cu19 2.524426 1_545
Al1 Fe1 2.526787 1_555
Al1 Cu22 2.583004 1_545
Al1 Cu0 2.583004 1_555
Al1 Fe2 2.838846 1_555
Al1 Fe5 2.838846 1_545
Al1 Al58 2.907565 1_555
Al2 Cu26 2.466292 1_555
Al2 Cu2 2.524426 1_555
Al2 Cu15 2.524426 1_554
Al2 Fe2 2.526787 1_555
Al2 Cu18 2.583004 1_554
Al2 Cu1 2.583004 1_555
Al2 Fe3 2.838846 1_555
Al2 Fe6 2.838846 1_554
Al2 Al59 2.907565 1_555
Al3 Cu27 2.466292 1_655
Al3 Cu3 2.524426 1_555
Al3 Cu14 2.524426 1_554
Al3 Fe7 2.526787 1_555
Al3 Cu6 2.583004 1_555
Al3 Cu13 2.583004 1_554
Al3 Fe9 2.838846 1_654
Al3 Fe4 2.838846 1_655
Al3 Al62 2.907565 1_555
Al4 Cu25 2.466292 1_556
Al4 Cu18 2.524426 1_555
Al4 Cu4 2.524426 1_545
Al4 Fe10 2.526787 1_555
Al4 Cu9 2.583004 1_545
Al4 Cu23 2.583004 1_555
Al4 Fe5 2.838846 1_546
Al4 Fe2 2.838846 1_556
Al4 Al55 2.907565 1_555
Al5 Cu26 2.466292 1_655
Al5 Cu20 2.524426 1_555
Al5 Cu5 2.524426 1_554
Al5 Fe8 2.526787 1_555
Al5 Cu7 2.583004 1_554
Al5 Cu16 2.583004 1_555
Al5 Fe6 2.838846 1_654
Al5 Fe3 2.838846 1_655
Al5 Al56 2.907565 1_555
Al6 Cu28 2.466292 1_555
Al6 Cu16 2.524426 1_555
Al6 Cu6 2.524426 1_545
Al6 Fe12 2.526787 1_555
Al6 Cu11 2.583004 1_545
Al6 Cu21 2.583004 1_555
Al6 Fe7 2.838846 1_545
Al6 Fe8 2.838846 1_555
Al6 Al61 2.907565 1_555
Al7 Cu28 2.466292 1_556
Al7 Cu7 2.524426 1_555
Al7 Cu13 2.524426 1_545
Al7 Fe11 2.526787 1_555
Al7 Cu12 2.583004 1_545
Al7 Cu10 2.583004 1_555
Al7 Fe8 2.838846 1_556
Al7 Fe7 2.838846 1_546
Al8 Cu27 2.466292 1_555
Al8 Cu17 2.524426 1_555
Al8 Cu8 2.524426 1_554
Al8 Fe5 2.526787 1_555
Al8 Cu4 2.583004 1_554
Al8 Cu19 2.583004 1_555
Al8 Fe4 2.838846 1_555
Al8 Fe9 2.838846 1_554
Al9 Cu29 2.466292 1_565
Al9 Cu9 2.524426 1_555
Al9 Cu12 2.524426 1_455
Al9 Fe9 2.526787 1_555
Al9 Cu14 2.583004 1_455
Al9 Cu8 2.583004 1_555
Al9 Fe10 2.838846 1_565
Al9 Fe11 2.838846 1_465
Al10 Cu29 2.466292 1_555
Al10 Cu23 2.524426 1_555
Al10 Cu10 2.524426 1_455
Al10 Fe6 2.526787 1_555
Al10 Cu15 2.583004 1_555
Al10 Cu5 2.583004 1_455
Al10 Fe10 2.838846 1_555
Al10 Fe11 2.838846 1_455
Al10 Al63 2.907565 1_555
Al11 Cu24 2.466292 1_565
Al11 Cu22 2.524426 1_555
Al11 Cu11 2.524426 1_455
Al11 Fe4 2.526787 1_555
Al11 Cu3 2.583004 1_455
Al11 Cu17 2.583004 1_555
Al11 Fe1 2.838846 1_565
Al11 Fe12 2.838846 1_465
Al11 Al54 2.907565 1_555
Al12 Fe13 2.574696 1_555
Al12 Cu41 2.613193 1_555
Al13 Fe13 2.574696 1_555
Al13 Cu34 2.613193 1_555
Al14 Fe13 2.574696 1_555
Al14 Cu35 2.613193 1_555
Al15 Fe13 2.574696 1_555
Al15 Cu38 2.613193 1_555
Al16 Fe13 2.574696 1_555
Al16 Cu31 2.613193 1_555
Al17 Fe13 2.574696 1_555
Al17 Cu32 2.613193 1_555
Al18 Fe13 2.574696 1_555
Al18 Cu37 2.613193 1_555
Al19 Fe13 2.574696 1_555
Al19 Cu36 2.613193 1_555
Al20 Fe13 2.574696 1_555
Al20 Cu33 2.613193 1_555
Al21 Fe13 2.574696 1_555
Al21 Cu40 2.613193 1_555
Al22 Fe13 2.574696 1_555
Al22 Cu39 2.613193 1_555
Al23 Fe13 2.574696 1_555
Al23 Cu30 2.613193 1_555
Al24 Cu0 2.506591 1_555
Al24 Cu2 2.519716 1_555
Al24 Cu31 2.621100 1_555
Al24 Cu42 2.639255 1_555
Al24 Al65 2.680574 1_555
Al24 Cu30 2.685901 1_555
Al25 Cu1 2.506591 1_555
Al25 Cu0 2.519716 1_555
Al25 Cu32 2.621100 1_555
Al25 Cu43 2.639255 1_555
Al25 Al58 2.680574 1_555
Al25 Cu31 2.685901 1_555
Al26 Cu2 2.506591 1_555
Al26 Cu1 2.519716 1_555
Al26 Cu30 2.621100 1_555
Al26 Cu44 2.639255 1_555
Al26 Al59 2.680574 1_555
Al26 Cu32 2.685901 1_555
Al27 Cu3 2.506591 1_555
Al27 Cu6 2.519716 1_555
Al27 Cu41 2.621100 1_555
Al27 Cu45 2.639255 1_555
Al27 Al62 2.680574 1_555
Al27 Cu33 2.685901 1_555
Al28 Cu4 2.506591 1_555
Al28 Cu9 2.519716 1_555
Al28 Cu38 2.621100 1_555
Al28 Cu46 2.639255 1_565
Al28 Al55 2.680574 1_565
Al28 Cu34 2.685901 1_555
Al29 Cu5 2.506591 1_555
Al29 Cu7 2.519716 1_555
Al29 Cu40 2.621100 1_555
Al29 Cu45 2.639255 1_556
Al29 Al56 2.680574 1_556
Al29 Cu35 2.685901 1_555
Al30 Cu6 2.506591 1_555
Al30 Cu11 2.519716 1_555
Al30 Cu33 2.621100 1_555
Al30 Cu43 2.639255 1_565
Al30 Al61 2.680574 1_565
Al30 Cu36 2.685901 1_555
Al31 Cu7 2.506591 1_555
Al31 Cu10 2.519716 1_555
Al31 Cu35 2.621100 1_555
Al31 Cu46 2.639255 1_555
Al31 Al60 2.680574 1_555
Al31 Cu37 2.685901 1_555
Al32 Cu8 2.506591 1_555
Al32 Cu4 2.519716 1_555
Al32 Cu39 2.621100 1_555
Al32 Cu44 2.639255 1_556
Al32 Al57 2.680574 1_556
Al32 Cu38 2.685901 1_555
Al33 Cu9 2.506591 1_555
Al33 Cu8 2.519716 1_555
Al33 Cu34 2.621100 1_555
Al33 Cu47 2.639255 1_555
Al33 Al64 2.680574 1_555
Al33 Cu39 2.685901 1_555
Al34 Cu10 2.506591 1_555
Al34 Cu5 2.519716 1_555
Al34 Cu37 2.621100 1_555
Al34 Cu42 2.639255 1_655
Al34 Al63 2.680574 1_655
Al34 Cu40 2.685901 1_555
Al35 Cu11 2.506591 1_555
Al35 Cu3 2.519716 1_555
Al35 Cu36 2.621100 1_555
Al35 Cu47 2.639255 1_655
Al35 Al54 2.680574 1_655
Al35 Cu41 2.685901 1_555
Al36 Cu12 2.506591 1_555
Al36 Cu14 2.519716 1_555
Al36 Cu36 2.621100 1_555
Al36 Cu47 2.639255 1_655
Al36 Al64 2.680574 1_655
Al36 Cu40 2.685901 1_555
Al37 Cu13 2.506591 1_555
Al37 Cu12 2.519716 1_555
Al37 Cu38 2.621100 1_555
Al37 Cu46 2.639255 1_565
Al37 Al60 2.680574 1_565
Al37 Cu36 2.685901 1_555
Al38 Cu14 2.506591 1_555
Al38 Cu13 2.519716 1_555
Al38 Cu40 2.621100 1_555
Al38 Cu45 2.639255 1_556
Al38 Al62 2.680574 1_556
Al38 Cu38 2.685901 1_555
Al39 Cu15 2.506591 1_555
Al39 Cu18 2.519716 1_555
Al39 Cu39 2.621100 1_555
Al39 Cu44 2.639255 1_556
Al39 Al59 2.680574 1_556
Al39 Cu35 2.685901 1_555
Al40 Cu16 2.506591 1_555
Al40 Cu21 2.519716 1_555
Al40 Cu32 2.621100 1_555
Al40 Cu43 2.639255 1_555
Al40 Al61 2.680574 1_555
Al40 Cu37 2.685901 1_555
Al41 Cu17 2.506591 1_555
Al41 Cu19 2.519716 1_555
Al41 Cu30 2.621100 1_555
Al41 Cu44 2.639255 1_555
Al41 Al57 2.680574 1_555
Al41 Cu33 2.685901 1_555
Al42 Cu18 2.506591 1_555
Al42 Cu23 2.519716 1_555
Al42 Cu35 2.621100 1_555
Al42 Cu46 2.639255 1_555
Al42 Al55 2.680574 1_555
Al42 Cu31 2.685901 1_555
Al43 Cu19 2.506591 1_555
Al43 Cu22 2.519716 1_555
Al43 Cu33 2.621100 1_555
Al43 Cu43 2.639255 1_565
Al43 Al58 2.680574 1_565
Al43 Cu34 2.685901 1_555
Al44 Cu20 2.506591 1_555
Al44 Cu16 2.519716 1_555
Al44 Cu41 2.621100 1_555
Al44 Cu45 2.639255 1_555
Al44 Al56 2.680574 1_555
Al44 Cu32 2.685901 1_555
Al45 Cu21 2.506591 1_555
Al45 Cu20 2.519716 1_555
Al45 Cu37 2.621100 1_555
Al45 Cu42 2.639255 1_655
Al45 Al65 2.680574 1_655
Al45 Cu41 2.685901 1_555
Al46 Cu22 2.506591 1_555
Al46 Cu17 2.519716 1_555
Al46 Cu34 2.621100 1_555
Al46 Cu47 2.639255 1_555
Al46 Al54 2.680574 1_555
Al46 Cu30 2.685901 1_555
Al47 Cu23 2.506591 1_555
Al47 Cu15 2.519716 1_555
Al47 Cu31 2.621100 1_555
Al47 Cu42 2.639255 1_555
Al47 Al63 2.680574 1_555
Al47 Cu39 2.685901 1_555
Al48 Cu30 2.607130 1_555
Al48 Cu39 2.607130 1_555
Al48 Cu42 2.796053 1_555
Al48 Cu47 2.796053 1_555
Al48 Al54 2.959053 1_555
Al48 Al64 2.959053 1_555
Al48 Al65 2.959053 1_555
Al48 Al63 2.959053 1_555
Al49 Cu31 2.607130 1_555
Al49 Cu37 2.607130 1_555
Al49 Cu43 2.796053 1_555
Al49 Cu46 2.796053 1_555
Al49 Al60 2.959053 1_555
Al49 Al55 2.959053 1_555
Al49 Al61 2.959053 1_555
Al49 Al58 2.959053 1_555
Al50 Cu32 2.607130 1_555
Al50 Cu33 2.607130 1_555
Al50 Cu44 2.796053 1_555
Al50 Cu45 2.796053 1_555
Al50 Al59 2.959053 1_555
Al50 Al62 2.959053 1_555
Al50 Al57 2.959053 1_555
Al50 Al56 2.959053 1_555
Al51 Cu34 2.607130 1_555
Al51 Cu36 2.607130 1_555
Al51 Cu46 2.796053 1_565
Al51 Cu43 2.796053 1_565
Al51 Al55 2.959053 1_565
Al51 Al60 2.959053 1_565
Al51 Al61 2.959053 1_565
Al51 Al58 2.959053 1_565
Al52 Cu35 2.607130 1_555
Al52 Cu38 2.607130 1_555
Al52 Cu45 2.796053 1_556
Al52 Cu44 2.796053 1_556
Al52 Al56 2.959053 1_556
Al52 Al62 2.959053 1_556
Al52 Al59 2.959053 1_556
Al52 Al57 2.959053 1_556
Al53 Cu41 2.607130 1_555
Al53 Cu40 2.607130 1_555
Al53 Cu47 2.796053 1_655
Al53 Cu42 2.796053 1_655
Al53 Al54 2.959053 1_655
Al53 Al64 2.959053 1_655
Al53 Al63 2.959053 1_655
Al53 Al65 2.959053 1_655
Al54 Cu17 2.492437 1_555
Al54 Cu3 2.492437 1_455
Al54 Al65 2.525721 1_555
Al54 Cu47 2.571319 1_555
Al54 Cu30 2.670491 1_555
Al54 Cu41 2.670491 1_455
Al55 Cu9 2.492437 1_545
Al55 Cu23 2.492437 1_555
Al55 Al58 2.525721 1_555
Al55 Cu46 2.571319 1_555
Al55 Cu31 2.670491 1_555
Al55 Cu34 2.670491 1_545
Al56 Cu7 2.492437 1_554
Al56 Cu16 2.492437 1_555
Al56 Al59 2.525721 1_555
Al56 Cu45 2.571319 1_555
Al56 Cu32 2.670491 1_555
Al56 Cu35 2.670491 1_554
Al57 Cu4 2.492437 1_554
Al57 Cu19 2.492437 1_555
Al57 Al62 2.525721 1_555
Al57 Cu44 2.571319 1_555
Al57 Cu33 2.670491 1_555
Al57 Cu38 2.670491 1_554
Al57 Al8 2.907565 1_555
Al58 Cu22 2.492437 1_545
Al58 Cu0 2.492437 1_555
Al58 Cu43 2.571319 1_555
Al58 Cu34 2.670491 1_545
Al58 Cu31 2.670491 1_555
Al59 Cu18 2.492437 1_554
Al59 Cu1 2.492437 1_555
Al59 Cu44 2.571319 1_555
Al59 Cu32 2.670491 1_555
Al59 Cu35 2.670491 1_554
Al60 Cu12 2.492437 1_545
Al60 Cu10 2.492437 1_555
Al60 Al61 2.525721 1_555
Al60 Cu46 2.571319 1_555
Al60 Cu37 2.670491 1_555
Al60 Cu36 2.670491 1_545
Al60 Al7 2.907565 1_555
Al61 Cu11 2.492437 1_545
Al61 Cu21 2.492437 1_555
Al61 Cu43 2.571319 1_555
Al61 Cu37 2.670491 1_555
Al61 Cu36 2.670491 1_545
Al62 Cu13 2.492437 1_554
Al62 Cu6 2.492437 1_555
Al62 Cu45 2.571319 1_555
Al62 Cu33 2.670491 1_555
Al62 Cu38 2.670491 1_554
Al63 Cu5 2.492437 1_455
Al63 Cu15 2.492437 1_555
Al63 Al64 2.525721 1_555
Al63 Cu42 2.571319 1_555
Al63 Cu40 2.670491 1_455
Al63 Cu39 2.670491 1_555
Al64 Cu14 2.492437 1_455
Al64 Cu8 2.492437 1_555
Al64 Cu47 2.571319 1_555
Al64 Cu39 2.670491 1_555
Al64 Cu40 2.670491 1_455
Al64 Al9 2.907565 1_555
Al65 Cu20 2.492437 1_455
Al65 Cu2 2.492437 1_555
Al65 Cu42 2.571319 1_555
Al65 Cu41 2.670491 1_455
Al65 Cu30 2.670491 1_555
Al66 Cu24 2.531123 1_555
Al66 Cu29 2.531123 1_555
Al66 Cu31 2.565631 1_555
Al66 Cu0 2.659873 1_555
Al66 Cu23 2.659873 1_555
Al66 Cu42 2.739967 1_555
Al67 Cu28 2.531123 1_555
Al67 Cu25 2.531123 1_555
Al67 Cu32 2.565631 1_555
Al67 Cu1 2.659873 1_555
Al67 Cu16 2.659873 1_555
Al67 Cu43 2.739967 1_555
Al68 Cu27 2.531123 1_555
Al68 Cu26 2.531123 1_555
Al68 Cu30 2.565631 1_555
Al68 Cu2 2.659873 1_555
Al68 Cu17 2.659873 1_555
Al68 Cu44 2.739967 1_555
Al69 Cu27 2.531123 1_655
Al69 Cu26 2.531123 1_655
Al69 Cu41 2.565631 1_555
Al69 Cu20 2.659873 1_555
Al69 Cu3 2.659873 1_555
Al69 Cu45 2.739967 1_555
Al70 Cu28 2.531123 1_566
Al70 Cu25 2.531123 1_566
Al70 Cu38 2.565631 1_555
Al70 Cu4 2.659873 1_555
Al70 Cu13 2.659873 1_555
Al70 Cu46 2.739967 1_565
Al71 Cu27 2.531123 1_656
Al71 Cu26 2.531123 1_656
Al71 Cu40 2.565631 1_555
Al71 Cu5 2.659873 1_555
Al71 Cu14 2.659873 1_555
Al71 Cu45 2.739967 1_556
Al72 Cu28 2.531123 1_565
Al72 Cu25 2.531123 1_565
Al72 Cu33 2.565631 1_555
Al72 Cu19 2.659873 1_555
Al72 Cu6 2.659873 1_555
Al72 Cu43 2.739967 1_565
Al73 Cu28 2.531123 1_556
Al73 Cu25 2.531123 1_556
Al73 Cu35 2.565631 1_555
Al73 Cu18 2.659873 1_555
Al73 Cu7 2.659873 1_555
Al73 Cu46 2.739967 1_555
Al74 Cu27 2.531123 1_556
Al74 Cu26 2.531123 1_556
Al74 Cu39 2.565631 1_555
Al74 Cu15 2.659873 1_555
Al74 Cu8 2.659873 1_555
Al74 Cu44 2.739967 1_556
Al75 Cu29 2.531123 1_565
Al75 Cu24 2.531123 1_565
Al75 Cu34 2.565631 1_555
Al75 Cu22 2.659873 1_555
Al75 Cu9 2.659873 1_555
Al75 Cu47 2.739967 1_555
Al76 Cu29 2.531123 1_655
Al76 Cu24 2.531123 1_655
Al76 Cu37 2.565631 1_555
Al76 Cu21 2.659873 1_555
Al76 Cu10 2.659873 1_555
Al76 Cu42 2.739967 1_655
Al77 Cu29 2.531123 1_665
Al77 Cu24 2.531123 1_665
Al77 Cu36 2.565631 1_555
Al77 Cu11 2.659873 1_555
Al77 Cu12 2.659873 1_555
Al77 Cu47 2.739967 1_655
Fe0 Fe5 2.461373 1_545
Fe0 Fe2 2.461373 1_555
Fe0 Fe12 2.461373 1_455
Fe0 Fe4 2.461373 1_545
Fe0 Fe3 2.461373 1_555
Fe0 Fe10 2.461373 1_554
Fe0 Fe6 2.461373 1_554
Fe0 Fe11 2.461373 1_454
Fe0 Fe8 2.461373 1_455
Fe0 Fe1 2.461373 1_555
Fe0 Fe9 2.461373 1_544
Fe0 Fe7 2.461373 1_445
Fe1 Fe12 2.269430 1_455
Fe1 Fe3 2.675780 1_555
Fe1 Fe2 2.675780 1_555
Fe1 Fe5 2.675780 1_545
Fe1 Fe4 2.675780 1_545
Fe2 Fe5 2.269430 1_545
Fe2 Fe3 2.675780 1_555
Fe2 Fe6 2.675780 1_554
Fe3 Fe6 2.269430 1_554
Fe3 Fe8 2.675780 1_455
Fe4 Fe9 2.269430 1_554
Fe4 Fe5 2.675780 1_555
Fe4 Fe7 2.675780 1_455
Fe5 Fe9 2.675780 1_554
Fe6 Fe8 2.675780 1_456
Fe7 Fe8 2.269430 1_565
Fe7 Fe9 2.675780 1_654
Fe10 Fe11 2.269430 1_455
Fe10 Fe5 2.675780 1_546
Fe10 Fe9 2.675780 1_545
Fe10 Fe2 2.675780 1_556
Fe10 Fe6 2.675780 1_555
Fe11 Fe6 2.675780 1_655
Fe11 Fe8 2.675780 1_556
Fe11 Fe7 2.675780 1_546
Fe11 Fe9 2.675780 1_645
Fe12 Fe3 2.675780 1_655
Fe12 Fe7 2.675780 1_545
Fe12 Fe8 2.675780 1_555
Fe12 Fe4 2.675780 1_645
Cu0 Fe1 2.600414 1_555
Cu1 Fe2 2.600414 1_555
Cu2 Fe3 2.600414 1_555
Cu3 Fe4 2.600414 1_655
Cu4 Fe5 2.600414 1_556
Cu5 Fe6 2.600414 1_655
Cu6 Fe7 2.600414 1_555
Cu7 Fe8 2.600414 1_556
Cu8 Fe9 2.600414 1_555
Cu9 Fe10 2.600414 1_565
Cu10 Fe11 2.600414 1_555
Cu11 Fe12 2.600414 1_565
Cu12 Fe11 2.600414 1_565
Cu13 Fe7 2.600414 1_556
Cu14 Fe9 2.600414 1_655
Cu15 Fe6 2.600414 1_555
Cu16 Fe8 2.600414 1_555
Cu17 Fe4 2.600414 1_555
Cu18 Fe2 2.600414 1_556
Cu19 Fe5 2.600414 1_555
Cu20 Fe3 2.600414 1_655
Cu21 Fe12 2.600414 1_555
Cu22 Fe1 2.600414 1_565
Cu23 Fe10 2.600414 1_555
Cu24 Fe1 2.927479 1_555
Cu24 Fe12 2.927479 1_455
Cu25 Fe2 2.927479 1_555
Cu25 Fe5 2.927479 1_545
Cu26 Fe3 2.927479 1_555
Cu26 Fe6 2.927479 1_554
Cu27 Fe9 2.927479 1_554
Cu27 Fe4 2.927479 1_555
Cu28 Fe7 2.927479 1_545
Cu28 Fe8 2.927479 1_555
Cu29 Fe11 2.927479 1_455
Cu29 Fe10 2.927479 1_555
