# generated using pymatgen
data_Lu6GaNiRh
_symmetry_space_group_name_H-M   'P 1'
_cell_length_a   8.10664341
_cell_length_b   8.10664310
_cell_length_c   8.10664324
_cell_angle_alpha   112.20938491
_cell_angle_beta   110.16987611
_cell_angle_gamma   106.09332668
_symmetry_Int_Tables_number   1
_chemical_formula_structural   Lu6GaNiRh
_chemical_formula_sum   'Lu12 Ga2 Ni2 Rh2'
_cell_volume   408.91179549
_cell_formula_units_Z   2
loop_
 _symmetry_equiv_pos_site_id
 _symmetry_equiv_pos_as_xyz
  1  'x, y, z'
loop_
 _atom_site_type_symbol
 _atom_site_label
 _atom_site_symmetry_multiplicity
 _atom_site_fract_x
 _atom_site_fract_y
 _atom_site_fract_z
 _atom_site_occupancy
  Lu  Lu0  1  0.43753468  0.24372180  0.19381288  1
  Lu  Lu1  1  0.56246532  0.75627820  0.80618712  1
  Lu  Lu2  1  0.04990992  0.24372180  0.80618712  1
  Lu  Lu3  1  0.95009008  0.75627820  0.19381288  1
  Lu  Lu4  1  0.17948924  0.27973146  0.45922070  1
  Lu  Lu5  1  0.82051076  0.72026854  0.54077930  1
  Lu  Lu6  1  0.17948924  0.72026854  0.89975779  1
  Lu  Lu7  1  0.82051076  0.27973146  0.10024221  1
  Lu  Lu8  1  0.32490821  0.63372836  0.30882115  1
  Lu  Lu9  1  0.67509179  0.36627164  0.69117885  1
  Lu  Lu10  1  0.32490821  0.01608706  0.69117885  1
  Lu  Lu11  1  0.67509179  0.98391294  0.30882115  1
  Ga  Ga0  1  0.50000000  0.50000000  0.00000000  1
  Ga  Ga1  1  0.00000000  0.00000000  0.00000000  1
  Ni  Ni0  1  0.11931620  0.61931620  0.50000000  1
  Ni  Ni1  1  0.88068380  0.38068380  0.50000000  1
  Rh  Rh0  1  0.33567172  1.00000000  0.33567172  1
  Rh  Rh1  1  0.66432828  0.00000000  0.66432828  1
loop_
_geom_bond_atom_site_label_1
_geom_bond_atom_site_label_2
_geom_bond_distance
_geom_bond_site_symmetry_2
Lu0 Rh0 2.715895 1_545
Lu0 Ni1 3.139346 1_555
Lu0 Lu9 3.392477 1_555
Lu0 Lu11 3.392479 1_545
Lu0 Lu7 3.404180 1_555
Lu0 Lu5 3.404180 1_555
Lu0 Lu8 3.414356 1_555
Lu0 Lu10 3.414363 1_554
Lu0 Lu4 3.472459 1_555
Lu0 Lu6 3.472459 1_544
Lu0 Lu2 3.597108 1_554
Lu1 Rh1 2.715895 1_565
Lu1 Ni0 3.139346 1_555
Lu1 Lu8 3.392477 1_555
Lu1 Lu10 3.392479 1_565
Lu1 Lu6 3.404180 1_555
Lu1 Lu4 3.404180 1_555
Lu1 Lu9 3.414356 1_555
Lu1 Lu11 3.414363 1_556
Lu1 Lu5 3.472459 1_555
Lu1 Lu7 3.472459 1_566
Lu1 Lu3 3.597108 1_556
Lu2 Rh1 2.715901 1_455
Lu2 Ni1 3.139348 1_455
Lu2 Lu9 3.392491 1_455
Lu2 Lu4 3.404175 1_555
Lu2 Lu6 3.404180 1_555
Lu2 Lu8 3.414361 1_556
Lu2 Lu5 3.472459 1_445
Lu2 Lu7 3.472465 1_456
Lu3 Rh0 2.715901 1_655
Lu3 Ni0 3.139348 1_655
Lu3 Lu8 3.392491 1_655
Lu3 Lu5 3.404175 1_555
Lu3 Lu7 3.404180 1_555
Lu3 Lu9 3.414361 1_554
Lu3 Lu4 3.472459 1_665
Lu3 Lu6 3.472465 1_654
Lu4 Ni0 2.844883 1_555
Lu4 Ni1 2.844883 1_455
Lu4 Rh0 2.915103 1_545
Lu4 Lu7 3.331270 1_455
Lu4 Lu9 3.521357 1_555
Lu4 Lu8 3.587798 1_555
Lu5 Ni1 2.844883 1_555
Lu5 Ni0 2.844883 1_655
Lu5 Rh1 2.915103 1_565
Lu5 Lu6 3.331270 1_655
Lu5 Lu8 3.521357 1_555
Lu5 Lu9 3.587798 1_555
Lu6 Ni0 2.844883 1_555
Lu6 Ni1 2.844883 1_455
Lu6 Rh0 2.915103 1_556
Lu6 Lu8 3.521364 1_556
Lu6 Lu9 3.587803 1_455
Lu7 Ni1 2.844883 1_555
Lu7 Ni0 2.844883 1_655
Lu7 Rh1 2.915103 1_554
Lu7 Lu9 3.521364 1_554
Lu7 Lu8 3.587803 1_655
Lu8 Ni0 2.646423 1_555
Lu8 Rh1 2.868097 1_565
Lu8 Rh0 2.868102 1_555
Lu9 Ni1 2.646423 1_555
Lu9 Rh0 2.868097 1_545
Lu9 Rh1 2.868102 1_555
Lu10 Ni0 2.646424 1_545
Lu10 Rh0 2.868094 1_545
Lu10 Rh1 2.868094 1_555
Lu10 Lu3 3.392482 1_445
Lu10 Lu2 3.414356 1_555
Lu10 Lu4 3.521359 1_555
Lu10 Lu7 3.521359 1_556
Lu10 Lu6 3.587805 1_545
Lu10 Lu5 3.587805 1_445
Lu11 Ni1 2.646424 1_565
Lu11 Rh1 2.868094 1_565
Lu11 Rh0 2.868094 1_555
Lu11 Lu2 3.392482 1_665
Lu11 Lu3 3.414356 1_555
Lu11 Lu5 3.521359 1_555
Lu11 Lu6 3.521359 1_554
Lu11 Lu7 3.587805 1_565
Lu11 Lu4 3.587805 1_665
Ga0 Lu3 3.078034 1_555
Ga0 Lu2 3.078034 1_554
Ga0 Lu1 3.078041 1_554
Ga0 Lu0 3.078041 1_555
Ga0 Lu8 3.272514 1_555
Ga0 Lu9 3.272514 1_554
Ga0 Lu11 3.272516 1_555
Ga0 Lu10 3.272516 1_554
Ga0 Lu6 3.579522 1_554
Ga0 Lu7 3.579522 1_555
Ga0 Lu5 3.579522 1_555
Ga0 Lu4 3.579522 1_554
Ga1 Lu1 2.979581 1_444
Ga1 Lu0 2.979581 1_555
Ga1 Lu2 2.979582 1_554
Ga1 Lu3 2.979582 1_445
Ga1 Lu7 3.028456 1_455
Ga1 Lu6 3.028456 1_544
Ga1 Lu4 3.028456 1_555
Ga1 Lu5 3.028456 1_444
Ga1 Rh0 3.114987 1_545
Ga1 Rh1 3.114987 1_454
Ni0 Ni1 2.325914 1_455
Rh0 Rh1 3.049887 1_565
