# generated using pymatgen
data_Ni(SCl6)2
_symmetry_space_group_name_H-M   'P 1'
_cell_length_a   8.16821672
_cell_length_b   8.16821723
_cell_length_c   8.16821661
_cell_angle_alpha   78.81605625
_cell_angle_beta   78.81605492
_cell_angle_gamma   78.81605361
_symmetry_Int_Tables_number   1
_chemical_formula_structural   Ni(SCl6)2
_chemical_formula_sum   'Ni1 S2 Cl12'
_cell_volume   517.51233830
_cell_formula_units_Z   1
loop_
 _symmetry_equiv_pos_site_id
 _symmetry_equiv_pos_as_xyz
  1  'x, y, z'
loop_
 _atom_site_type_symbol
 _atom_site_label
 _atom_site_symmetry_multiplicity
 _atom_site_fract_x
 _atom_site_fract_y
 _atom_site_fract_z
 _atom_site_occupancy
  Ni  Ni0  1  0.00000000  0.00000000  0.00000000  1
  S  S0  1  0.21175677  0.21175677  0.21175677  1
  S  S1  1  0.78824323  0.78824323  0.78824323  1
  Cl  Cl0  1  0.83305107  0.83305107  0.53282658  1
  Cl  Cl1  1  0.87309796  0.17820671  0.17820671  1
  Cl  Cl2  1  0.17820671  0.17820671  0.87309796  1
  Cl  Cl3  1  0.17820671  0.87309796  0.17820671  1
  Cl  Cl4  1  0.82179329  0.12690204  0.82179329  1
  Cl  Cl5  1  0.12690204  0.82179329  0.82179329  1
  Cl  Cl6  1  0.82179329  0.82179329  0.12690204  1
  Cl  Cl7  1  0.46717342  0.16694893  0.16694893  1
  Cl  Cl8  1  0.16694893  0.16694893  0.46717342  1
  Cl  Cl9  1  0.16694893  0.46717342  0.16694893  1
  Cl  Cl10  1  0.83305107  0.53282658  0.83305107  1
  Cl  Cl11  1  0.53282658  0.83305107  0.83305107  1
loop_
_geom_bond_atom_site_label_1
_geom_bond_atom_site_label_2
_geom_bond_distance
_geom_bond_site_symmetry_2
Cl0 S1 2.019926 1_555
Cl1 Ni0 2.227893 1_655
Cl2 Ni0 2.227893 1_556
Cl3 Ni0 2.227893 1_565
Cl4 Ni0 2.227893 1_656
Cl5 Ni0 2.227893 1_566
Cl6 Ni0 2.227893 1_665
Cl7 S0 2.019926 1_555
Cl8 S0 2.019926 1_555
Cl9 S0 2.019926 1_555
Cl10 S1 2.019926 1_555
Cl11 S1 2.019926 1_555
