# generated using pymatgen
data_Th6Cd7
_symmetry_space_group_name_H-M   'P 1'
_cell_length_a   6.02609668
_cell_length_b   9.88648379
_cell_length_c   11.63260018
_cell_angle_alpha   90.00000000
_cell_angle_beta   90.00000000
_cell_angle_gamma   90.00000000
_symmetry_Int_Tables_number   1
_chemical_formula_structural   Th6Cd7
_chemical_formula_sum   'Th12 Cd14'
_cell_volume   693.03434076
_cell_formula_units_Z   2
loop_
 _symmetry_equiv_pos_site_id
 _symmetry_equiv_pos_as_xyz
  1  'x, y, z'
loop_
 _atom_site_type_symbol
 _atom_site_label
 _atom_site_symmetry_multiplicity
 _atom_site_fract_x
 _atom_site_fract_y
 _atom_site_fract_z
 _atom_site_occupancy
  Th  Th0  1  -0.00000000  0.65587013  0.95653054  1
  Th  Th1  1  -0.00000000  0.34412987  0.04346946  1
  Th  Th2  1  -0.00000000  0.15587013  0.54346946  1
  Th  Th3  1  -0.00000000  0.84412987  0.45653054  1
  Th  Th4  1  0.50000000  0.83061669  0.91253030  1
  Th  Th5  1  0.50000000  0.16938331  0.08746970  1
  Th  Th6  1  0.50000000  0.33061669  0.58746970  1
  Th  Th7  1  0.50000000  0.66938331  0.41253030  1
  Th  Th8  1  0.50000000  0.44740192  0.87340469  1
  Th  Th9  1  0.50000000  0.55259808  0.12659531  1
  Th  Th10  1  0.50000000  0.94740192  0.62659531  1
  Th  Th11  1  0.50000000  0.05259808  0.37340469  1
  Cd  Cd0  1  -0.00000000  -0.00000000  0.00000000  1
  Cd  Cd1  1  -0.00000000  0.50000000  0.50000000  1
  Cd  Cd2  1  -0.00000000  0.90038038  0.75298635  1
  Cd  Cd3  1  -0.00000000  0.09961962  0.24701365  1
  Cd  Cd4  1  -0.00000000  0.40038038  0.74701365  1
  Cd  Cd5  1  -0.00000000  0.59961962  0.25298635  1
  Cd  Cd6  1  0.74475593  0.15142215  0.82042598  1
  Cd  Cd7  1  0.74475593  0.84857785  0.17957402  1
  Cd  Cd8  1  0.25524407  0.65142215  0.67957402  1
  Cd  Cd9  1  0.25524407  0.34857785  0.32042598  1
  Cd  Cd10  1  0.25524407  0.84857785  0.17957402  1
  Cd  Cd11  1  0.25524407  0.15142215  0.82042598  1
  Cd  Cd12  1  0.74475593  0.34857785  0.32042598  1
  Cd  Cd13  1  0.74475593  0.65142215  0.67957402  1
loop_
_geom_bond_atom_site_label_1
_geom_bond_atom_site_label_2
_geom_bond_distance
_geom_bond_site_symmetry_2
Th0 Th1 3.243701 1_556
Th0 Th4 3.510718 1_555
Th0 Th4 3.510718 1_455
Th0 Th9 3.746271 1_456
Th0 Th9 3.746271 1_556
Th0 Th8 3.776412 1_455
Th0 Th8 3.776412 1_555
Th1 Th5 3.510718 1_555
Th1 Th5 3.510718 1_455
Th1 Th8 3.746271 1_454
Th1 Th8 3.746271 1_554
Th1 Th9 3.776412 1_455
Th1 Th9 3.776412 1_555
Th2 Th3 3.243701 1_545
Th2 Th6 3.510718 1_555
Th2 Th6 3.510718 1_455
Th3 Th7 3.510718 1_555
Th3 Th7 3.510718 1_455
Th4 Th9 3.708869 1_556
Th4 Th8 3.815886 1_555
Th4 Th5 3.918984 1_566
Th5 Th8 3.708869 1_554
Th5 Th9 3.815886 1_555
Th6 Th8 3.520864 1_555
Th6 Th7 3.918984 1_555
Th7 Th9 3.520864 1_555
Th8 Th9 3.123496 1_556
Th10 Th11 3.123496 1_565
Th10 Th4 3.520864 1_555
Th10 Th7 3.708869 1_555
Th10 Th3 3.746271 1_655
Th10 Th3 3.746271 1_555
Th10 Th2 3.776412 1_565
Th10 Th2 3.776412 1_665
Th10 Th6 3.815886 1_565
Th11 Th5 3.520864 1_555
Th11 Th6 3.708869 1_555
Th11 Th2 3.746271 1_555
Th11 Th2 3.746271 1_655
Th11 Th3 3.776412 1_645
Th11 Th3 3.776412 1_545
Th11 Th7 3.815886 1_545
Cd0 Cd11 2.995078 1_554
Cd0 Cd6 2.995078 1_454
Cd0 Cd10 2.995078 1_545
Cd0 Cd7 2.995078 1_445
Cd0 Cd2 3.037515 1_544
Cd0 Cd3 3.037515 1_555
Cd0 Th0 3.439607 1_544
Cd0 Th1 3.439607 1_555
Cd0 Th4 3.594172 1_544
Cd0 Th4 3.594172 1_444
Cd0 Th5 3.594172 1_455
Cd0 Th5 3.594172 1_555
Cd1 Cd8 2.995078 1_555
Cd1 Cd12 2.995078 1_455
Cd1 Cd9 2.995078 1_555
Cd1 Cd13 2.995078 1_455
Cd1 Cd4 3.037515 1_555
Cd1 Cd5 3.037515 1_555
Cd1 Th3 3.439607 1_555
Cd1 Th2 3.439607 1_555
Cd1 Th7 3.594172 1_555
Cd1 Th7 3.594172 1_455
Cd1 Th6 3.594172 1_555
Cd1 Th6 3.594172 1_455
Cd2 Cd6 3.023441 1_465
Cd2 Cd8 3.025427 1_555
Cd2 Th0 3.383755 1_555
Cd2 Th10 3.384705 1_555
Cd2 Th10 3.384705 1_455
Cd2 Th3 3.493105 1_555
Cd2 Th2 3.510017 1_565
Cd2 Th4 3.605354 1_555
Cd2 Th4 3.605354 1_455
Cd3 Cd7 3.023441 1_445
Cd3 Cd9 3.025427 1_555
Cd3 Th1 3.383755 1_555
Cd3 Th11 3.384705 1_555
Cd3 Th11 3.384705 1_455
Cd3 Th2 3.493105 1_555
Cd3 Th3 3.510017 1_545
Cd3 Th5 3.605354 1_455
Cd3 Th5 3.605354 1_555
Cd4 Cd8 3.023441 1_555
Cd4 Cd6 3.025427 1_455
Cd4 Th2 3.383755 1_555
Cd4 Th8 3.384705 1_455
Cd4 Th8 3.384705 1_555
Cd4 Th1 3.493105 1_556
Cd4 Th0 3.510017 1_555
Cd4 Th6 3.605354 1_455
Cd4 Th6 3.605354 1_555
Cd5 Cd9 3.023441 1_555
Cd5 Cd7 3.025427 1_455
Cd5 Th3 3.383755 1_555
Cd5 Th9 3.384705 1_555
Cd5 Th9 3.384705 1_455
Cd5 Th0 3.493105 1_554
Cd5 Th1 3.510017 1_555
Cd5 Th7 3.605354 1_555
Cd5 Th7 3.605354 1_455
Cd6 Th8 3.334343 1_555
Cd6 Th10 3.365676 1_545
Cd6 Th5 3.443360 1_556
Cd6 Th6 3.557733 1_555
Cd6 Th1 3.567555 1_656
Cd6 Th2 3.570332 1_655
Cd6 Th4 3.658225 1_545
Cd7 Th9 3.334343 1_555
Cd7 Th11 3.365676 1_565
Cd7 Th4 3.443360 1_554
Cd7 Th7 3.557733 1_555
Cd7 Th0 3.567555 1_654
Cd7 Th3 3.570332 1_655
Cd7 Th5 3.658225 1_565
Cd8 Th10 3.334343 1_555
Cd8 Th8 3.365676 1_555
Cd8 Th7 3.443360 1_555
Cd8 Th4 3.557733 1_555
Cd8 Th3 3.567555 1_555
Cd8 Th0 3.570332 1_555
Cd8 Th6 3.658225 1_555
Cd9 Th11 3.334343 1_555
Cd9 Th9 3.365676 1_555
Cd9 Th6 3.443360 1_555
Cd9 Th5 3.557733 1_555
Cd9 Th2 3.567555 1_555
Cd9 Th1 3.570332 1_555
Cd9 Th7 3.658225 1_555
Cd10 Cd7 2.949846 1_555
Cd10 Cd3 3.023441 1_565
Cd10 Cd5 3.025427 1_555
Cd10 Cd7 3.076251 1_455
Cd10 Th9 3.334343 1_555
Cd10 Th11 3.365676 1_565
Cd10 Th4 3.443360 1_554
Cd10 Th7 3.557733 1_555
Cd10 Th0 3.567555 1_554
Cd10 Th3 3.570332 1_555
Cd10 Th5 3.658225 1_565
Cd11 Cd6 2.949846 1_555
Cd11 Cd2 3.023441 1_545
Cd11 Cd4 3.025427 1_555
Cd11 Cd6 3.076251 1_455
Cd11 Th8 3.334343 1_555
Cd11 Th10 3.365676 1_545
Cd11 Th5 3.443360 1_556
Cd11 Th6 3.557733 1_555
Cd11 Th1 3.567555 1_556
Cd11 Th2 3.570332 1_555
Cd11 Th4 3.658225 1_545
Cd12 Cd9 2.949846 1_555
Cd12 Cd5 3.023441 1_655
Cd12 Cd3 3.025427 1_655
Cd12 Cd9 3.076251 1_655
Cd12 Th11 3.334343 1_555
Cd12 Th9 3.365676 1_555
Cd12 Th6 3.443360 1_555
Cd12 Th5 3.557733 1_555
Cd12 Th2 3.567555 1_655
Cd12 Th1 3.570332 1_655
Cd12 Th7 3.658225 1_555
Cd13 Cd8 2.949846 1_555
Cd13 Cd4 3.023441 1_655
Cd13 Cd2 3.025427 1_655
Cd13 Cd8 3.076251 1_655
Cd13 Th10 3.334343 1_555
Cd13 Th8 3.365676 1_555
Cd13 Th7 3.443360 1_555
Cd13 Th4 3.557733 1_555
Cd13 Th3 3.567555 1_655
Cd13 Th0 3.570332 1_655
Cd13 Th6 3.658225 1_555
