# generated using pymatgen
data_GaMo3PtN
_symmetry_space_group_name_H-M   'P 1'
_cell_length_a   6.83884686
_cell_length_b   6.83884686
_cell_length_c   6.83884686
_cell_angle_alpha   90.00000000
_cell_angle_beta   90.00000000
_cell_angle_gamma   90.00000000
_symmetry_Int_Tables_number   1
_chemical_formula_structural   GaMo3PtN
_chemical_formula_sum   'Ga4 Mo12 Pt4 N4'
_cell_volume   319.85168003
_cell_formula_units_Z   4
loop_
 _symmetry_equiv_pos_site_id
 _symmetry_equiv_pos_as_xyz
  1  'x, y, z'
loop_
 _atom_site_type_symbol
 _atom_site_label
 _atom_site_symmetry_multiplicity
 _atom_site_fract_x
 _atom_site_fract_y
 _atom_site_fract_z
 _atom_site_occupancy
  Ga  Ga0  1  0.18051351  0.81948649  0.31948649  1
  Ga  Ga1  1  0.31948649  0.18051351  0.81948649  1
  Ga  Ga2  1  0.81948649  0.31948649  0.18051351  1
  Ga  Ga3  1  0.68051351  0.68051351  0.68051351  1
  Mo  Mo0  1  0.79983544  0.96723922  0.37901751  1
  Mo  Mo1  1  0.70016456  0.03276078  0.87901751  1
  Mo  Mo2  1  0.20016456  0.46723922  0.12098249  1
  Mo  Mo3  1  0.29983544  0.53276078  0.62098249  1
  Mo  Mo4  1  0.96723922  0.37901751  0.79983544  1
  Mo  Mo5  1  0.03276078  0.87901751  0.70016456  1
  Mo  Mo6  1  0.46723922  0.12098249  0.20016456  1
  Mo  Mo7  1  0.53276078  0.62098249  0.29983544  1
  Mo  Mo8  1  0.37901751  0.79983544  0.96723922  1
  Mo  Mo9  1  0.87901751  0.70016456  0.03276078  1
  Mo  Mo10  1  0.12098249  0.20016456  0.46723922  1
  Mo  Mo11  1  0.62098249  0.29983544  0.53276078  1
  Pt  Pt0  1  0.56852081  0.43147919  0.93147919  1
  Pt  Pt1  1  0.43147919  0.93147919  0.56852081  1
  Pt  Pt2  1  0.93147919  0.56852081  0.43147919  1
  Pt  Pt3  1  0.06852081  0.06852081  0.06852081  1
  N  N0  1  0.86823163  0.13176837  0.63176837  1
  N  N1  1  0.63176837  0.86823163  0.13176837  1
  N  N2  1  0.13176837  0.63176837  0.86823163  1
  N  N3  1  0.36823163  0.36823163  0.36823163  1
loop_
_geom_bond_atom_site_label_1
_geom_bond_atom_site_label_2
_geom_bond_distance
_geom_bond_site_symmetry_2
Ga0 Pt1 2.536320 1_555
Ga0 Pt2 2.536320 1_455
Ga0 Pt3 2.536320 1_565
Ga0 Mo7 2.768408 1_555
Ga0 Mo2 2.768408 1_555
Ga0 Mo8 2.768408 1_554
Ga0 Mo5 2.822138 1_555
Ga0 Mo10 2.822138 1_565
Ga0 Mo0 2.822138 1_455
Ga0 Mo3 2.960116 1_555
Ga0 Mo6 2.960116 1_565
Ga0 Mo9 2.960116 1_455
Ga1 Pt0 2.536320 1_555
Ga1 Pt1 2.536320 1_545
Ga1 Pt3 2.536320 1_556
Ga1 Mo3 2.768408 1_555
Ga1 Mo10 2.768408 1_555
Ga1 Mo4 2.768408 1_455
Ga1 Mo1 2.822138 1_555
Ga1 Mo6 2.822138 1_556
Ga1 Mo8 2.822138 1_545
Ga1 Mo11 2.960116 1_555
Ga1 Mo2 2.960116 1_556
Ga1 Mo5 2.960116 1_545
Ga2 Pt2 2.536320 1_555
Ga2 Pt0 2.536320 1_554
Ga2 Pt3 2.536320 1_655
Ga2 Mo11 2.768408 1_555
Ga2 Mo6 2.768408 1_555
Ga2 Mo0 2.768408 1_545
Ga2 Mo9 2.822138 1_555
Ga2 Mo2 2.822138 1_655
Ga2 Mo4 2.822138 1_554
Ga2 Mo7 2.960116 1_555
Ga2 Mo10 2.960116 1_655
Ga2 Mo1 2.960116 1_554
Ga3 Pt2 2.536320 1_555
Ga3 Pt0 2.536320 1_555
Ga3 Pt1 2.536320 1_555
Ga3 Mo1 2.768408 1_565
Ga3 Mo9 2.768408 1_556
Ga3 Mo5 2.768408 1_655
Ga3 Mo11 2.822138 1_555
Ga3 Mo3 2.822138 1_555
Ga3 Mo7 2.822138 1_555
Ga3 Mo4 2.960116 1_555
Ga3 Mo8 2.960116 1_555
Ga3 Mo0 2.960116 1_555
Mo0 N0 2.114862 1_565
Mo0 N1 2.153761 1_555
Mo0 Pt1 2.843485 1_555
Mo0 Pt3 2.892258 1_665
Mo0 Pt2 2.893880 1_555
Mo1 N1 2.114862 1_546
Mo1 N0 2.153761 1_555
Mo1 Pt3 2.843485 1_656
Mo1 Pt1 2.892258 1_545
Mo1 Pt0 2.893880 1_555
Mo2 N2 2.114862 1_554
Mo2 N3 2.153761 1_555
Mo2 Pt0 2.843485 1_554
Mo2 Pt2 2.892258 1_455
Mo2 Pt3 2.893880 1_555
Mo3 N3 2.114862 1_555
Mo3 N2 2.153761 1_555
Mo3 Pt2 2.843485 1_455
Mo3 Pt0 2.892258 1_555
Mo3 Pt1 2.893880 1_555
Mo4 N2 2.114862 1_655
Mo4 N0 2.153761 1_555
Mo4 Pt2 2.843485 1_555
Mo4 Pt3 2.892258 1_656
Mo4 Pt0 2.893880 1_555
Mo5 N0 2.114862 1_465
Mo5 N2 2.153761 1_555
Mo5 Pt3 2.843485 1_566
Mo5 Pt2 2.892258 1_455
Mo5 Pt1 2.893880 1_555
Mo6 N1 2.114862 1_545
Mo6 N3 2.153761 1_555
Mo6 Pt1 2.843485 1_545
Mo6 Pt0 2.892258 1_554
Mo6 Pt3 2.893880 1_555
Mo7 N3 2.114862 1_555
Mo7 N1 2.153761 1_555
Mo7 Pt0 2.843485 1_554
Mo7 Pt1 2.892258 1_555
Mo7 Pt2 2.893880 1_555
Mo8 N1 2.114862 1_556
Mo8 N2 2.153761 1_555
Mo8 Pt0 2.843485 1_555
Mo8 Pt3 2.892258 1_566
Mo8 Pt1 2.893880 1_555
Mo9 N2 2.114862 1_654
Mo9 N1 2.153761 1_555
Mo9 Pt3 2.843485 1_665
Mo9 Pt0 2.892258 1_554
Mo9 Pt2 2.893880 1_555
Mo10 N0 2.114862 1_455
Mo10 N3 2.153761 1_555
Mo10 Pt2 2.843485 1_455
Mo10 Pt1 2.892258 1_545
Mo10 Pt3 2.893880 1_555
Mo11 N3 2.114862 1_555
Mo11 N0 2.153761 1_555
Mo11 Pt1 2.843485 1_545
Mo11 Pt2 2.892258 1_555
Mo11 Pt0 2.893880 1_555
