# generated using pymatgen
data_Rb2BaOsO6
_symmetry_space_group_name_H-M   'P 1'
_cell_length_a   6.33003589
_cell_length_b   6.33003608
_cell_length_c   6.33003610
_cell_angle_alpha   120.00000523
_cell_angle_beta   120.00000624
_cell_angle_gamma   60.00000570
_symmetry_Int_Tables_number   1
_chemical_formula_structural   Rb2BaOsO6
_chemical_formula_sum   'Rb2 Ba1 Os1 O6'
_cell_volume   179.35088667
_cell_formula_units_Z   1
loop_
 _symmetry_equiv_pos_site_id
 _symmetry_equiv_pos_as_xyz
  1  'x, y, z'
loop_
 _atom_site_type_symbol
 _atom_site_label
 _atom_site_symmetry_multiplicity
 _atom_site_fract_x
 _atom_site_fract_y
 _atom_site_fract_z
 _atom_site_occupancy
  Rb  Rb0  1  0.74999800  0.74999800  0.24999800  1
  Rb  Rb1  1  0.25000000  0.25000000  0.74999900  1
  Ba  Ba0  1  0.50000000  0.50000000  0.49999900  1
  Os  Os0  1  0.00000000  0.00000000  0.00000000  1
  O  O0  1  0.20782930  0.20782930  0.20782830  1
  O  O1  1  0.79217070  0.20782830  0.20782830  1
  O  O2  1  0.20782830  0.79217070  0.20782830  1
  O  O3  1  0.79217170  0.79217170  0.79217070  1
  O  O4  1  0.79217070  0.20782930  0.79217070  1
  O  O5  1  0.20782930  0.79217070  0.79217070  1
loop_
_geom_bond_atom_site_label_1
_geom_bond_atom_site_label_2
_geom_bond_distance
_geom_bond_site_symmetry_2
Ba0 O0 2.615518 1_555
Ba0 O2 2.615519 1_555
Ba0 O1 2.615519 1_555
Ba0 O4 2.615523 1_555
Ba0 O5 2.615523 1_555
Ba0 O3 2.615527 1_555
O0 Os0 1.860492 1_555
O0 Rb0 3.187451 1_545
O0 Rb0 3.187451 1_455
O0 Rb1 3.187453 1_555
O0 Rb1 3.187453 1_554
O1 Os0 1.860488 1_655
O1 Rb0 3.187444 1_555
O1 Rb1 3.187452 1_655
O1 Rb1 3.187452 1_554
O1 Rb0 3.187463 1_545
O2 Os0 1.860488 1_565
O2 Rb0 3.187444 1_555
O2 Rb1 3.187453 1_565
O2 Rb1 3.187453 1_554
O2 Rb0 3.187463 1_455
O3 Os0 1.860483 1_666
O3 Rb0 3.187450 1_555
O3 Rb1 3.187454 1_565
O3 Rb1 3.187454 1_655
O3 Rb0 3.187462 1_556
O4 Os0 1.860493 1_656
O4 Rb0 3.187440 1_556
O4 Rb1 3.187450 1_555
O4 Rb1 3.187456 1_655
O4 Rb0 3.187465 1_545
O5 Os0 1.860493 1_566
O5 Rb0 3.187440 1_556
O5 Rb1 3.187450 1_555
O5 Rb1 3.187456 1_565
O5 Rb0 3.187465 1_455
