# generated using pymatgen
data_Ti8Ga15Ir5Rh2
_symmetry_space_group_name_H-M   'P 1'
_cell_length_a   8.61617031
_cell_length_b   8.61616962
_cell_length_c   8.61617067
_cell_angle_alpha   120.31115174
_cell_angle_beta   119.75995441
_cell_angle_gamma   89.93909885
_symmetry_Int_Tables_number   1
_chemical_formula_structural   Ti8Ga15Ir5Rh2
_chemical_formula_sum   'Ti8 Ga15 Ir5 Rh2'
_cell_volume   452.04482923
_cell_formula_units_Z   1
loop_
 _symmetry_equiv_pos_site_id
 _symmetry_equiv_pos_as_xyz
  1  'x, y, z'
loop_
 _atom_site_type_symbol
 _atom_site_label
 _atom_site_symmetry_multiplicity
 _atom_site_fract_x
 _atom_site_fract_y
 _atom_site_fract_z
 _atom_site_occupancy
  Ti  Ti0  1  0.79406797  0.28931924  0.07204982  1
  Ti  Ti1  1  0.21726942  0.28931924  0.49525227  1
  Ti  Ti2  1  0.20393334  0.70393334  0.50000000  1
  Ti  Ti3  1  0.21726942  0.72201715  0.92795018  1
  Ti  Ti4  1  0.79406797  0.72201715  0.50474773  1
  Ti  Ti5  1  0.77909224  0.27909224  0.50000000  1
  Ti  Ti6  1  0.37744330  0.12404300  0.74659970  1
  Ti  Ti7  1  0.37744330  0.63084259  0.25340030  1
  Ga  Ga0  1  0.99272540  0.49272540  0.50000000  1
  Ga  Ga1  1  0.15103210  0.34860687  0.19757377  1
  Ga  Ga2  1  0.15103210  0.95345733  0.80242623  1
  Ga  Ga3  1  0.14857016  0.35336575  0.79520341  1
  Ga  Ga4  1  0.55816034  0.35336575  0.20479659  1
  Ga  Ga5  1  0.85083042  0.64967881  0.79885039  1
  Ga  Ga6  1  0.85083042  0.05198003  0.20114961  1
  Ga  Ga7  1  0.84797965  0.64999561  0.19798404  1
  Ga  Ga8  1  0.45201057  0.64999561  0.80201596  1
  Ga  Ga9  1  0.37599828  0.12259034  0.25340794  1
  Ga  Ga10  1  0.86918339  0.12259034  0.74659206  1
  Ga  Ga11  1  0.62025869  0.87247849  0.25222080  1
  Ga  Ga12  1  0.62025869  0.36803789  0.74777920  1
  Ga  Ga13  1  0.61589242  0.87675839  0.73913403  1
  Ga  Ga14  1  0.13762336  0.87675839  0.26086597  1
  Ir  Ir0  1  0.00229468  0.00159053  0.50332881  1
  Ir  Ir1  1  0.49826172  0.00159053  0.99929585  1
  Ir  Ir2  1  0.49644321  0.49644321  1.00000000  1
  Ir  Ir3  1  0.49826172  0.49896487  0.49667119  1
  Ir  Ir4  1  0.00229468  0.49896487  0.00070415  1
  Rh  Rh0  1  0.99920454  0.99920454  0.00000000  1
  Rh  Rh1  1  0.50026850  0.00026850  0.50000000  1
loop_
_geom_bond_atom_site_label_1
_geom_bond_atom_site_label_2
_geom_bond_distance
_geom_bond_site_symmetry_2
Ti0 Ti6 2.960463 1_554
Ti1 Ti6 2.960457 1_555
Ti3 Ti7 2.960464 1_556
Ti4 Ti7 2.960463 1_555
Ga0 Ti2 2.574958 1_655
Ga0 Ti5 2.604525 1_555
Ga0 Ti4 2.610609 1_555
Ga0 Ti3 2.610615 1_655
Ga0 Ti1 2.610615 1_655
Ga0 Ti0 2.610616 1_555
Ga1 Ir4 2.500920 1_555
Ga1 Ir3 2.500935 1_555
Ga1 Rh0 2.509385 1_445
Ga1 Ti0 2.652126 1_455
Ga1 Ti1 2.652140 1_555
Ga1 Ti2 2.672476 1_555
Ga1 Ga10 2.791565 1_454
Ga1 Ga9 2.791573 1_555
Ga1 Ti7 2.801506 1_555
Ga2 Ir1 2.500933 1_565
Ga2 Ir0 2.500941 1_565
Ga2 Rh0 2.509376 1_456
Ga2 Ti4 2.652126 1_455
Ga2 Ti3 2.652126 1_555
Ga2 Ti2 2.672479 1_555
Ga2 Ga9 2.791565 1_566
Ga2 Ti6 2.801524 1_565
Ga3 Ir2 2.485757 1_555
Ga3 Ir0 2.503440 1_555
Ga3 Ir4 2.503446 1_556
Ga3 Ti5 2.708597 1_455
Ga3 Ti1 2.722606 1_555
Ga3 Ti3 2.722611 1_555
Ga3 Ti6 2.818623 1_555
Ga3 Ti7 2.818629 1_556
Ga4 Ir2 2.485767 1_554
Ga4 Ir3 2.503428 1_555
Ga4 Ir1 2.503442 1_554
Ga4 Ti5 2.708595 1_555
Ga4 Ti4 2.722618 1_555
Ga4 Ti0 2.722636 1_555
Ga4 Ti7 2.818613 1_555
Ga4 Ti6 2.818633 1_554
Ga5 Rh0 2.499561 1_556
Ga5 Ir4 2.537150 1_656
Ga5 Ir3 2.537157 1_555
Ga5 Ti5 2.707940 1_555
Ga5 Ti3 2.722538 1_655
Ga5 Ti4 2.722552 1_555
Ga6 Rh0 2.499547 1_545
Ga6 Ir1 2.537157 1_554
Ga6 Ir0 2.537157 1_655
Ga6 Ti5 2.707953 1_555
Ga6 Ti1 2.722538 1_655
Ga6 Ti0 2.722538 1_555
Ga7 Ir0 2.521463 1_665
Ga7 Ir4 2.521465 1_655
Ga7 Ir2 2.536863 1_554
Ga7 Ti4 2.673877 1_555
Ga7 Ti0 2.673882 1_555
Ga7 Ti2 2.693171 1_655
Ga8 Ir1 2.521462 1_565
Ga8 Ir3 2.521469 1_555
Ga8 Ir2 2.536861 1_555
Ga8 Ti3 2.673874 1_555
Ga8 Ti1 2.673880 1_555
Ga8 Ti2 2.693169 1_555
Ga9 Rh1 2.602119 1_555
Ga9 Ir3 2.640781 1_555
Ga9 Ir1 2.640789 1_554
Ga9 Rh0 2.657954 1_445
Ga9 Ti3 2.842467 1_544
Ga9 Ti1 2.842467 1_555
Ga9 Ti5 2.861388 1_555
Ga10 Rh1 2.602126 1_555
Ga10 Ir4 2.640781 1_656
Ga10 Ir0 2.640781 1_655
Ga10 Rh0 2.657954 1_546
Ga10 Ga2 2.791565 1_645
Ga10 Ti4 2.842467 1_545
Ga10 Ti0 2.842467 1_556
Ga10 Ti5 2.861388 1_555
Ga10 Ga11 3.010464 1_545
Ga10 Ga12 3.010470 1_555
Ga11 Rh1 2.579732 1_565
Ga11 Ir2 2.637597 1_554
Ga11 Ir0 2.694819 1_665
Ga11 Ir1 2.694826 1_564
Ga11 Ga7 2.782242 1_555
Ga11 Ga8 2.782246 1_554
Ga11 Ga6 2.844953 1_565
Ga11 Ti5 2.874863 1_565
Ga11 Ti4 2.875043 1_555
Ga11 Ti3 2.875049 1_554
Ga11 Ti7 2.960320 1_555
Ga11 Ga9 3.010470 1_565
Ga12 Rh1 2.579731 1_555
Ga12 Ir2 2.637604 1_555
Ga12 Ir3 2.694812 1_555
Ga12 Ir4 2.694818 1_656
Ga12 Ga7 2.782247 1_556
Ga12 Ga8 2.782252 1_555
Ga12 Ga5 2.844934 1_555
Ga12 Ti5 2.874856 1_555
Ga12 Ti1 2.875049 1_555
Ga12 Ti0 2.875049 1_556
Ga12 Ti6 2.960320 1_555
Ga12 Ga9 3.010464 1_555
Ga13 Rh1 2.558037 1_565
Ga13 Ir1 2.651095 1_565
Ga13 Ir3 2.651102 1_555
Ga13 Rh0 2.705031 1_556
Ga13 Ti0 2.927188 1_566
Ga13 Ti4 2.927195 1_555
Ga14 Rh1 2.558044 1_565
Ga14 Ir0 2.651088 1_565
Ga14 Ir4 2.651102 1_555
Ga14 Rh0 2.705031 1_455
Ga14 Ti1 2.927187 1_565
Ga14 Ti3 2.927194 1_554
Ir0 Ti6 2.646454 1_555
Ir0 Ti4 3.013679 1_445
Ir0 Ti5 3.069350 1_455
Ir0 Ti1 3.145409 1_555
Ir1 Ti6 2.646454 1_555
Ir1 Ti3 3.013684 1_545
Ir1 Ti5 3.069350 1_556
Ir1 Ti0 3.145415 1_556
Ir2 Ti6 2.612856 1_555
Ir2 Ti7 2.612856 1_556
Ir2 Ti3 3.110376 1_555
Ir2 Ti1 3.110376 1_555
Ir2 Ti4 3.110377 1_556
Ir2 Ti0 3.110382 1_556
Ir3 Ti7 2.646454 1_555
Ir3 Ti1 3.013679 1_555
Ir3 Ti5 3.069344 1_555
Ir3 Ti4 3.145421 1_555
Ir4 Ti7 2.646454 1_555
Ir4 Ti0 3.013672 1_455
Ir4 Ti5 3.069351 1_454
Ir4 Ti3 3.145416 1_554
Rh0 Ti0 3.044885 1_565
Rh0 Ti3 3.044891 1_654
Rh0 Ti1 3.044891 1_665
Rh0 Ti4 3.044892 1_554
Rh1 Ti6 2.591226 1_555
Rh1 Ti7 2.591232 1_545
