# generated using pymatgen
data_Al6Cu2PdRh
_symmetry_space_group_name_H-M   'P 1'
_cell_length_a   4.16257775
_cell_length_b   4.16257651
_cell_length_c   10.08601965
_cell_angle_alpha   90.00000000
_cell_angle_beta   90.00000000
_cell_angle_gamma   120.00000213
_symmetry_Int_Tables_number   1
_chemical_formula_structural   Al6Cu2PdRh
_chemical_formula_sum   'Al6 Cu2 Pd1 Rh1'
_cell_volume   151.34741941
_cell_formula_units_Z   1
loop_
 _symmetry_equiv_pos_site_id
 _symmetry_equiv_pos_as_xyz
  1  'x, y, z'
loop_
 _atom_site_type_symbol
 _atom_site_label
 _atom_site_symmetry_multiplicity
 _atom_site_fract_x
 _atom_site_fract_y
 _atom_site_fract_z
 _atom_site_occupancy
  Al  Al0  1  0.66666700  0.33333300  0.18234576  1
  Al  Al1  1  0.66666700  0.33333300  0.67602789  1
  Al  Al2  1  0.00000000  0.00000000  0.32508281  1
  Al  Al3  1  0.00000000  0.00000000  0.82240080  1
  Al  Al4  1  0.33333300  0.66666700  0.00096629  1
  Al  Al5  1  0.33333300  0.66666700  0.48151667  1
  Cu  Cu0  1  0.00000000  0.00000000  0.07776444  1
  Cu  Cu1  1  0.00000000  0.00000000  0.57826687  1
  Pd  Pd0  1  0.66666700  0.33333300  0.92681114  1
  Rh  Rh0  1  0.66666700  0.33333300  0.42881433  1
loop_
_geom_bond_atom_site_label_1
_geom_bond_atom_site_label_2
_geom_bond_distance
_geom_bond_site_symmetry_2
Al0 Rh0 2.485887 1_555
Al0 Pd0 2.577327 1_554
Al0 Cu0 2.624556 1_655
Al0 Cu0 2.624559 1_665
Al0 Cu0 2.624559 1_555
Al1 Rh0 2.493401 1_555
Al1 Pd0 2.529405 1_555
Al1 Cu1 2.597673 1_655
Al1 Cu1 2.597676 1_665
Al1 Cu1 2.597677 1_555
Al2 Cu0 2.494458 1_555
Al2 Cu1 2.553619 1_555
Al2 Rh0 2.621123 1_455
Al2 Rh0 2.621126 1_445
Al2 Rh0 2.621127 1_555
Al3 Cu1 2.462340 1_555
Al3 Cu0 2.575603 1_556
Al3 Pd0 2.623863 1_455
Al3 Pd0 2.623866 1_445
Al3 Pd0 2.623867 1_555
Al4 Pd0 2.516956 1_564
Al4 Pd0 2.516957 1_454
Al4 Pd0 2.516964 1_554
Al4 Cu0 2.525006 1_565
Al4 Cu0 2.525009 1_555
Al4 Cu0 2.525010 1_665
Al5 Rh0 2.461346 1_565
Al5 Rh0 2.461346 1_455
Al5 Rh0 2.461353 1_555
Al5 Cu1 2.593820 1_565
Al5 Cu1 2.593823 1_555
Al5 Cu1 2.593824 1_665
Cu0 Pd0 2.844949 1_454
Cu0 Pd0 2.844951 1_444
Cu0 Pd0 2.844952 1_554
Cu1 Rh0 2.836877 1_455
Cu1 Rh0 2.836879 1_445
Cu1 Rh0 2.836880 1_555
