# generated using pymatgen
data_Nb6In2PbCl18
_symmetry_space_group_name_H-M   'P 1'
_cell_length_a   10.26990963
_cell_length_b   10.26957947
_cell_length_c   10.26940552
_cell_angle_alpha   54.43017968
_cell_angle_beta   54.42863177
_cell_angle_gamma   54.42973050
_symmetry_Int_Tables_number   1
_chemical_formula_structural   Nb6In2PbCl18
_chemical_formula_sum   'Nb6 In2 Pb1 Cl18'
_cell_volume   666.37311930
_cell_formula_units_Z   1
loop_
 _symmetry_equiv_pos_site_id
 _symmetry_equiv_pos_as_xyz
  1  'x, y, z'
loop_
 _atom_site_type_symbol
 _atom_site_label
 _atom_site_symmetry_multiplicity
 _atom_site_fract_x
 _atom_site_fract_y
 _atom_site_fract_z
 _atom_site_occupancy
  Nb  Nb0  1  0.42466830  0.29076573  0.64758982  1
  Nb  Nb1  1  0.64757913  0.42467378  0.29078228  1
  Nb  Nb2  1  0.29079368  0.64757346  0.42465282  1
  Nb  Nb3  1  0.57530745  0.70921260  0.35243946  1
  Nb  Nb4  1  0.35245386  0.57529461  0.70920881  1
  Nb  Nb5  1  0.70917823  0.35245514  0.57533347  1
  In  In0  1  0.72218285  0.72217350  0.72219149  1
  In  In1  1  0.27791637  0.27792024  0.27790886  1
  Pb  Pb0  1  0.00000088  0.00000279  0.00000069  1
  Cl  Cl0  1  0.23662694  0.34289957  0.91987456  1
  Cl  Cl1  1  0.91986135  0.23664378  0.34291287  1
  Cl  Cl2  1  0.34291922  0.91988028  0.23661672  1
  Cl  Cl3  1  0.76336528  0.65704865  0.08010296  1
  Cl  Cl4  1  0.08010343  0.76335583  0.65702947  1
  Cl  Cl5  1  0.65702089  0.08010169  0.76338011  1
  Cl  Cl6  1  0.16478116  0.42628518  0.58326598  1
  Cl  Cl7  1  0.58330120  0.16472660  0.42633289  1
  Cl  Cl8  1  0.42635715  0.58325777  0.16474155  1
  Cl  Cl9  1  0.83524756  0.57370244  0.41669768  1
  Cl  Cl10  1  0.41669241  0.83528005  0.57366406  1
  Cl  Cl11  1  0.57363691  0.41673221  0.83525905  1
  Cl  Cl12  1  0.33947201  0.01777385  0.83107808  1
  Cl  Cl13  1  0.83108765  0.33947235  0.01778154  1
  Cl  Cl14  1  0.01781010  0.83105780  0.33946415  1
  Cl  Cl15  1  0.66052273  0.98225792  0.16890709  1
  Cl  Cl16  1  0.16889341  0.66053025  0.98224627  1
  Cl  Cl17  1  0.98222086  0.16892294  0.66053627  1
loop_
_geom_bond_atom_site_label_1
_geom_bond_atom_site_label_2
_geom_bond_distance
_geom_bond_site_symmetry_2
Cl0 Nb0 2.468021 1_555
Cl0 Nb4 2.468436 1_555
Cl1 Nb1 2.468144 1_555
Cl1 Nb5 2.468466 1_555
Cl2 Nb2 2.468259 1_555
Cl2 Nb3 2.468416 1_555
Cl3 Nb1 2.468064 1_555
Cl3 Nb3 2.468578 1_555
Cl4 Nb2 2.467977 1_555
Cl4 Nb4 2.468917 1_555
Cl5 Nb0 2.467967 1_555
Cl5 Nb5 2.468781 1_555
Cl6 Nb2 2.480928 1_555
Cl6 Nb0 2.481345 1_555
Cl7 Nb0 2.480704 1_555
Cl7 Nb1 2.481501 1_555
Cl8 Nb1 2.480647 1_555
Cl8 Nb2 2.481259 1_555
Cl9 Nb5 2.480926 1_555
Cl9 Nb3 2.481476 1_555
Cl10 Nb3 2.480654 1_555
Cl10 Nb4 2.481641 1_555
Cl11 Nb4 2.480418 1_555
Cl11 Nb5 2.481217 1_555
Cl12 Nb0 2.639254 1_555
Cl12 Pb0 2.921092 1_556
Cl13 Nb1 2.639235 1_555
Cl13 Pb0 2.921049 1_655
Cl14 Nb2 2.639210 1_555
Cl14 Pb0 2.921047 1_565
Cl15 Nb3 2.639775 1_555
Cl15 Pb0 2.921068 1_665
Cl16 Nb4 2.639687 1_555
Cl16 Pb0 2.920993 1_566
Cl17 Nb5 2.639749 1_555
Cl17 Pb0 2.920967 1_656
