# generated using pymatgen
data_Ca6TaReO12
_symmetry_space_group_name_H-M   'P 1'
_cell_length_a   5.85605551
_cell_length_b   5.56557626
_cell_length_c   9.75200657
_cell_angle_alpha   55.36060575
_cell_angle_beta   89.77009658
_cell_angle_gamma   89.92071675
_symmetry_Int_Tables_number   1
_chemical_formula_structural   Ca6TaReO12
_chemical_formula_sum   'Ca6 Ta1 Re1 O12'
_cell_volume   261.49970324
_cell_formula_units_Z   1
loop_
 _symmetry_equiv_pos_site_id
 _symmetry_equiv_pos_as_xyz
  1  'x, y, z'
loop_
 _atom_site_type_symbol
 _atom_site_label
 _atom_site_symmetry_multiplicity
 _atom_site_fract_x
 _atom_site_fract_y
 _atom_site_fract_z
 _atom_site_occupancy
  Ca  Ca0  1  0.56173579  0.23552786  0.24302232  1
  Ca  Ca1  1  0.05593322  0.78091651  0.23002505  1
  Ca  Ca2  1  0.50000000  0.00000000  0.00000000  1
  Ca  Ca3  1  0.00000000  0.00000000  0.50000000  1
  Ca  Ca4  1  0.94406678  0.21908349  0.76997495  1
  Ca  Ca5  1  0.43826421  0.76447214  0.75697768  1
  Ta  Ta0  1  0.00000000  0.50000000  0.00000000  1
  Re  Re0  1  0.50000000  0.50000000  0.50000000  1
  O  O0  1  0.55148563  0.39703725  0.71868070  1
  O  O1  1  0.05950785  0.61491516  0.76734486  1
  O  O2  1  0.44851437  0.60296275  0.28131930  1
  O  O3  1  0.94049215  0.38508484  0.23265514  1
  O  O4  1  0.77008357  0.73119663  0.42862304  1
  O  O5  1  0.28111286  0.25110254  0.07369348  1
  O  O6  1  0.22991643  0.26880337  0.57137696  1
  O  O7  1  0.71888714  0.74889746  0.92630652  1
  O  O8  1  0.18195930  0.84132582  0.94907549  1
  O  O9  1  0.66972869  0.17084889  0.55116560  1
  O  O10  1  0.81804070  0.15867418  0.05092451  1
  O  O11  1  0.33027131  0.82915111  0.44883440  1
loop_
_geom_bond_atom_site_label_1
_geom_bond_atom_site_label_2
_geom_bond_distance
_geom_bond_site_symmetry_2
Ca0 O5 2.300768 1_555
Ca0 O3 2.351661 1_555
Ca0 O2 2.371406 1_555
Ca0 O11 2.409805 1_545
Ca0 O10 2.613761 1_555
Ca0 O4 2.622220 1_545
Ca0 O9 2.888690 1_555
Ca0 O7 2.915876 1_554
Ca1 O10 2.290960 1_465
Ca1 O3 2.291455 1_455
Ca1 O2 2.440524 1_555
Ca1 O4 2.448594 1_455
Ca1 O5 2.523709 1_565
Ca1 O8 2.664882 1_554
Ca1 O11 2.808234 1_555
Ca2 O10 2.237373 1_555
Ca2 O8 2.237373 1_544
Ca2 O7 2.289547 1_544
Ca2 O5 2.289547 1_555
Ca2 O2 2.367227 1_545
Ca2 O0 2.367227 1_554
Ca3 O1 2.272682 1_545
Ca3 O3 2.272682 1_455
Ca3 O9 2.328165 1_455
Ca3 O11 2.328165 1_545
Ca3 O6 2.394241 1_555
Ca3 O4 2.394241 1_445
Ca4 O8 2.290960 1_645
Ca4 O1 2.291455 1_655
Ca4 O0 2.440524 1_555
Ca4 O6 2.448594 1_655
Ca4 O7 2.523709 1_545
Ca4 O10 2.664882 1_556
Ca4 O9 2.808234 1_555
Ca5 O7 2.300768 1_555
Ca5 O1 2.351661 1_555
Ca5 O0 2.371406 1_555
Ca5 O9 2.409805 1_565
Ca5 O8 2.613761 1_555
Ca5 O6 2.622220 1_565
Ca5 O11 2.888690 1_555
Ca5 O5 2.915876 1_556
O0 Re0 1.892770 1_555
O1 Ta0 2.005700 1_556
O2 Re0 1.892770 1_555
O3 Ta0 2.005700 1_655
O4 Re0 1.902721 1_555
O5 Ta0 2.004214 1_555
O6 Re0 1.902721 1_555
O7 Ta0 2.004214 1_656
O8 Ta0 1.979820 1_556
O9 Re0 1.884838 1_555
O10 Ta0 1.979820 1_655
O11 Re0 1.884838 1_555
