# generated using pymatgen
data_PrAlO3
_symmetry_space_group_name_H-M   'P 1'
_cell_length_a   5.31316182
_cell_length_b   5.31316168
_cell_length_c   5.31316087
_cell_angle_alpha   60.43271450
_cell_angle_beta   60.43271113
_cell_angle_gamma   60.43272144
_symmetry_Int_Tables_number   1
_chemical_formula_structural   PrAlO3
_chemical_formula_sum   'Pr2 Al2 O6'
_cell_volume   107.09578106
_cell_formula_units_Z   2
loop_
 _symmetry_equiv_pos_site_id
 _symmetry_equiv_pos_as_xyz
  1  'x, y, z'
loop_
 _atom_site_type_symbol
 _atom_site_label
 _atom_site_symmetry_multiplicity
 _atom_site_fract_x
 _atom_site_fract_y
 _atom_site_fract_z
 _atom_site_occupancy
  Pr  Pr0  1  0.75000000  0.75000000  0.75000000  1
  Pr  Pr1  1  0.25000000  0.25000000  0.25000000  1
  Al  Al0  1  0.50000000  0.50000000  0.50000000  1
  Al  Al1  1  0.00000000  -0.00000000  -0.00000000  1
  O  O0  1  0.29252979  0.75000000  0.20747021  1
  O  O1  1  0.75000000  0.20747021  0.29252979  1
  O  O2  1  0.20747021  0.29252979  0.75000000  1
  O  O3  1  0.70747021  0.25000000  0.79252979  1
  O  O4  1  0.79252979  0.70747021  0.25000000  1
  O  O5  1  0.25000000  0.79252979  0.70747021  1
loop_
_geom_bond_atom_site_label_1
_geom_bond_atom_site_label_2
_geom_bond_distance
_geom_bond_site_symmetry_2
Al0 O2 1.898307 1_555
Al0 O4 1.898307 1_555
Al0 O0 1.898307 1_555
Al0 O3 1.898307 1_555
Al0 O5 1.898307 1_555
Al0 O1 1.898307 1_555
Al1 O5 1.898307 1_544
Al1 O1 1.898307 1_455
Al1 O4 1.898307 1_445
Al1 O2 1.898307 1_554
Al1 O0 1.898308 1_545
Al1 O3 1.898308 1_454
O0 Pr0 2.446493 1_554
O0 Pr1 2.666299 1_555
O0 Pr1 2.666299 1_565
O0 Pr0 2.901381 1_455
O1 Pr0 2.446493 1_545
O1 Pr1 2.666299 1_655
O1 Pr1 2.666299 1_555
O1 Pr0 2.901381 1_554
O2 Pr0 2.446493 1_455
O2 Pr1 2.666299 1_555
O2 Pr1 2.666299 1_556
O2 Pr0 2.901381 1_545
O3 Pr1 2.446493 1_556
O3 Pr0 2.666299 1_555
O3 Pr0 2.666299 1_545
O3 Pr1 2.901381 1_655
O4 Pr1 2.446493 1_655
O4 Pr0 2.666299 1_555
O4 Pr0 2.666299 1_554
O4 Pr1 2.901381 1_565
O5 Pr1 2.446493 1_565
O5 Pr0 2.666299 1_455
O5 Pr0 2.666299 1_555
O5 Pr1 2.901381 1_556
