# generated using pymatgen
data_Ca2Si2Tc2C
_symmetry_space_group_name_H-M   'P 1'
_cell_length_a   5.90716227
_cell_length_b   5.90716242
_cell_length_c   7.22525993
_cell_angle_alpha   127.25316356
_cell_angle_beta   127.25315482
_cell_angle_gamma   39.94053825
_symmetry_Int_Tables_number   1
_chemical_formula_structural   Ca2Si2Tc2C
_chemical_formula_sum   'Ca2 Si2 Tc2 C1'
_cell_volume   123.81853286
_cell_formula_units_Z   1
loop_
 _symmetry_equiv_pos_site_id
 _symmetry_equiv_pos_as_xyz
  1  'x, y, z'
loop_
 _atom_site_type_symbol
 _atom_site_label
 _atom_site_symmetry_multiplicity
 _atom_site_fract_x
 _atom_site_fract_y
 _atom_site_fract_z
 _atom_site_occupancy
  Ca  Ca0  1  0.57389917  0.57389917  0.30341493  1
  Ca  Ca1  1  0.42610083  0.42610083  0.69658507  1
  Si  Si0  1  0.85256972  0.85256972  0.29689363  1
  Si  Si1  1  0.14743028  0.14743028  0.70310637  1
  Tc  Tc0  1  0.20246118  0.20246118  0.08770498  1
  Tc  Tc1  1  0.79753882  0.79753882  0.91229502  1
  C  C0  1  0.00000000  0.00000000  0.00000000  1
loop_
_geom_bond_atom_site_label_1
_geom_bond_atom_site_label_2
_geom_bond_distance
_geom_bond_site_symmetry_2
Ca0 Si0 3.124893 1_555
Ca0 Si0 3.156460 1_455
Ca0 Si0 3.156460 1_545
Ca0 Si1 3.168506 1_565
Ca0 Si1 3.168507 1_655
Ca1 Si1 3.124893 1_555
Ca1 Si1 3.156460 1_655
Ca1 Si1 3.156460 1_565
Ca1 Si0 3.168506 1_545
Ca1 Si0 3.168507 1_455
Si0 Tc0 2.426474 1_655
Si0 Tc0 2.426474 1_565
Si0 Tc1 2.430634 1_554
Si0 Si1 2.637366 1_665
Si1 Tc1 2.426474 1_455
Si1 Tc1 2.426474 1_545
Si1 Tc0 2.430634 1_556
C0 Tc0 1.902761 1_555
C0 Tc1 1.902761 1_444
C0 Ca0 2.689302 1_455
C0 Ca1 2.689302 1_544
C0 Ca0 2.689302 1_545
C0 Ca1 2.689302 1_454
