# generated using pymatgen
data_Li16Ta(NbN4)3
_symmetry_space_group_name_H-M   'P 1'
_cell_length_a   4.88245445
_cell_length_b   8.89785396
_cell_length_c   8.89794404
_cell_angle_alpha   104.95929805
_cell_angle_beta   105.88253084
_cell_angle_gamma   105.88211421
_symmetry_Int_Tables_number   1
_chemical_formula_structural   Li16Ta(NbN4)3
_chemical_formula_sum   'Li16 Ta1 Nb3 N12'
_cell_volume   333.63252090
_cell_formula_units_Z   1
loop_
 _symmetry_equiv_pos_site_id
 _symmetry_equiv_pos_as_xyz
  1  'x, y, z'
loop_
 _atom_site_type_symbol
 _atom_site_label
 _atom_site_symmetry_multiplicity
 _atom_site_fract_x
 _atom_site_fract_y
 _atom_site_fract_z
 _atom_site_occupancy
  Li  Li0  1  0.75001812  0.47617649  0.02384285  1
  Li  Li1  1  0.43850781  0.88104508  0.05076919  1
  Li  Li2  1  0.00690033  0.94908337  0.11856850  1
  Li  Li3  1  0.40872357  0.74925243  0.24931761  1
  Li  Li4  1  0.91014017  0.74994817  0.24890840  1
  Li  Li5  1  0.93817608  0.55061524  0.38127067  1
  Li  Li6  1  0.50595019  0.61835859  0.44922224  1
  Li  Li7  1  0.24998963  0.02405812  0.47591236  1
  Li  Li8  1  0.75000776  0.97588113  0.52413020  1
  Li  Li9  1  0.49308564  0.38144337  0.55090018  1
  Li  Li10  1  0.06149965  0.44922645  0.61894925  1
  Li  Li11  1  0.09125687  0.25067506  0.75073972  1
  Li  Li12  1  0.58983656  0.25108237  0.75004793  1
  Li  Li13  1  0.99404976  0.05078222  0.88164201  1
  Li  Li14  1  0.56183520  0.11872999  0.94938912  1
  Li  Li15  1  0.25000882  0.52463845  0.97535428  1
  Ta  Ta0  1  0.75000167  0.66880167  0.83119603  1
  Nb  Nb0  1  0.24999805  0.33147245  0.16852299  1
  Nb  Nb1  1  0.74999728  0.16851984  0.33148233  1
  Nb  Nb2  1  0.24999977  0.83130273  0.66871706  1
  N  N0  1  0.05828484  0.71091098  0.03940453  1
  N  N1  1  0.37992907  0.12969956  0.12969043  1
  N  N2  1  0.55898302  0.54061232  0.21114612  1
  N  N3  1  0.80780002  0.95944178  0.28942888  1
  N  N4  1  0.12006949  0.37030623  0.37029618  1
  N  N5  1  0.30638332  0.78879420  0.45951802  1
  N  N6  1  0.69219952  0.21056885  0.54056224  1
  N  N7  1  0.87891089  0.63066024  0.63204083  1
  N  N8  1  0.19361359  0.04050377  0.71121192  1
  N  N9  1  0.44171933  0.46059154  0.78908694  1
  N  N10  1  0.62110128  0.86796205  0.86934388  1
  N  N11  1  0.94101771  0.28885027  0.95938410  1
loop_
_geom_bond_atom_site_label_1
_geom_bond_atom_site_label_2
_geom_bond_distance
_geom_bond_site_symmetry_2
Li0 N2 2.150926 1_555
Li0 N11 2.150992 1_554
Li0 N0 2.159389 1_655
Li0 N9 2.159528 1_554
Li1 N0 2.007061 1_555
Li1 N10 2.040054 1_554
Li1 N3 2.167567 1_555
Li1 N1 2.263670 1_565
Li2 N3 2.012559 1_455
Li2 N1 2.031481 1_565
Li2 N0 2.160388 1_555
Li2 N10 2.264953 1_454
Li3 N0 2.033459 1_555
Li3 N5 2.034620 1_555
Li3 N2 2.157838 1_555
Li3 N3 2.168406 1_555
Li4 N3 2.028728 1_555
Li4 N2 2.033613 1_555
Li4 N0 2.158731 1_655
Li4 N5 2.165502 1_655
Li5 N2 2.008324 1_555
Li5 N4 2.029439 1_655
Li5 N5 2.162390 1_655
Li5 N7 2.283768 1_555
Li6 N5 2.010842 1_555
Li6 N7 2.037588 1_555
Li6 N2 2.162143 1_555
Li6 N4 2.261396 1_555
Li7 N3 2.147644 1_445
Li7 N6 2.147757 1_555
Li7 N5 2.158466 1_545
Li7 N8 2.158699 1_555
Li8 N8 2.154896 1_665
Li8 N5 2.155000 1_555
Li8 N6 2.156209 1_565
Li8 N3 2.156309 1_555
Li9 N6 2.012700 1_555
Li9 N4 2.031327 1_555
Li9 N9 2.160470 1_555
Li9 N7 2.264933 1_555
Li10 N9 2.007063 1_555
Li10 N7 2.040085 1_455
Li10 N6 2.167580 1_455
Li10 N4 2.263659 1_555
Li11 N9 2.033522 1_555
Li11 N8 2.034399 1_555
Li11 N11 2.157833 1_455
Li11 N6 2.168304 1_455
Li12 N6 2.028742 1_555
Li12 N11 2.033668 1_555
Li12 N9 2.158671 1_555
Li12 N8 2.165307 1_555
Li13 N8 2.010809 1_655
Li13 N10 2.037568 1_545
Li13 N11 2.162050 1_555
Li13 N1 2.261390 1_656
Li14 N11 2.008299 1_555
Li14 N1 2.029440 1_556
Li14 N8 2.162450 1_555
Li14 N10 2.283730 1_545
Li15 N9 2.145061 1_555
Li15 N0 2.145136 1_556
Li15 N2 2.166603 1_556
Li15 N11 2.166617 1_455
N0 Ta0 1.909160 1_454
N1 Nb0 2.041609 1_555
N1 Nb1 2.042172 1_555
N2 Nb0 1.915366 1_555
N3 Nb1 1.914765 1_565
N4 Nb0 2.041625 1_555
N4 Nb1 2.042169 1_455
N5 Nb2 1.912535 1_555
N6 Nb1 1.914790 1_555
N7 Ta0 2.017036 1_555
N7 Nb2 2.044916 1_655
N8 Nb2 1.912540 1_545
N9 Ta0 1.909163 1_555
N10 Ta0 2.017034 1_555
N10 Nb2 2.044920 1_555
N11 Nb0 1.915358 1_656
