# generated using pymatgen
data_RbS2IO8
_symmetry_space_group_name_H-M   'P 1'
_cell_length_a   4.41101653
_cell_length_b   5.04246344
_cell_length_c   9.00308178
_cell_angle_alpha   102.44136144
_cell_angle_beta   88.94853174
_cell_angle_gamma   105.73181511
_symmetry_Int_Tables_number   1
_chemical_formula_structural   RbS2IO8
_chemical_formula_sum   'Rb1 S2 I1 O8'
_cell_volume   188.05158078
_cell_formula_units_Z   1
loop_
 _symmetry_equiv_pos_site_id
 _symmetry_equiv_pos_as_xyz
  1  'x, y, z'
loop_
 _atom_site_type_symbol
 _atom_site_label
 _atom_site_symmetry_multiplicity
 _atom_site_fract_x
 _atom_site_fract_y
 _atom_site_fract_z
 _atom_site_occupancy
  Rb  Rb0  1  0.00000000  0.50000000  0.00000000  1
  S  S0  1  0.55001256  0.12344771  0.25521750  1
  S  S1  1  0.44998744  0.87655229  0.74478250  1
  I  I0  1  0.00000000  0.00000000  0.50000000  1
  O  O0  1  0.54108183  0.64440056  0.77991984  1
  O  O1  1  0.30925448  0.03767276  0.86339233  1
  O  O2  1  0.69074552  0.96232724  0.13660767  1
  O  O3  1  0.22616518  0.75240068  0.60243627  1
  O  O4  1  0.77383482  0.24759932  0.39756373  1
  O  O5  1  0.26457400  0.90913009  0.30338884  1
  O  O6  1  0.73542600  0.09086991  0.69661116  1
  O  O7  1  0.45891817  0.35559944  0.22008016  1
loop_
_geom_bond_atom_site_label_1
_geom_bond_atom_site_label_2
_geom_bond_distance
_geom_bond_site_symmetry_2
I0 O6 2.137732 1_455
I0 O5 2.137732 1_545
I0 O3 2.147059 1_545
I0 O4 2.147059 1_455
O0 S1 1.432192 1_555
O0 Rb0 3.107774 1_556
O0 Rb0 3.181514 1_656
O1 S1 1.435647 1_545
O1 Rb0 3.039043 1_556
O1 Rb0 3.177058 1_546
O1 Rb0 3.358762 1_656
O2 S0 1.435647 1_565
O2 Rb0 3.039043 1_655
O2 Rb0 3.177058 1_665
O2 Rb0 3.358762 1_555
O3 S1 1.540977 1_555
O4 S0 1.540977 1_555
O5 S0 1.544442 1_565
O5 Rb0 3.076064 1_555
O6 S1 1.544442 1_545
O6 Rb0 3.076064 1_656
O7 S0 1.432192 1_555
O7 Rb0 3.107774 1_655
O7 Rb0 3.181514 1_555
