# generated using pymatgen
data_Li2CoCl4
_symmetry_space_group_name_H-M   'P 1'
_cell_length_a   7.22294900
_cell_length_b   7.30610098
_cell_length_c   17.77156529
_cell_angle_alpha   89.25810798
_cell_angle_beta   89.32393432
_cell_angle_gamma   61.76177107
_symmetry_Int_Tables_number   1
_chemical_formula_structural   Li2CoCl4
_chemical_formula_sum   'Li12 Co6 Cl24'
_cell_volume   826.13392941
_cell_formula_units_Z   6
loop_
 _symmetry_equiv_pos_site_id
 _symmetry_equiv_pos_as_xyz
  1  'x, y, z'
loop_
 _atom_site_type_symbol
 _atom_site_label
 _atom_site_symmetry_multiplicity
 _atom_site_fract_x
 _atom_site_fract_y
 _atom_site_fract_z
 _atom_site_occupancy
  Li  Li0  1  0.44661500  0.78169400  0.81847800  1
  Li  Li1  1  0.50288400  0.99007100  0.00203500  1
  Li  Li2  1  0.33050200  0.33169500  0.83161900  1
  Li  Li3  1  0.11212500  0.44841900  0.48565800  1
  Li  Li4  1  0.99553300  0.00405100  0.49972200  1
  Li  Li5  1  0.16162500  0.17168100  0.66682200  1
  Li  Li6  1  0.77543200  0.10594100  0.15293800  1
  Li  Li7  1  0.88526500  0.23557000  0.84741200  1
  Li  Li8  1  0.82912800  0.83737400  0.33337600  1
  Li  Li9  1  0.66091800  0.67578100  0.16769400  1
  Li  Li10  1  0.55134700  0.89019700  0.51501600  1
  Li  Li11  1  0.21281300  0.57083500  0.17879500  1
  Co  Co0  1  0.01141000  0.49514300  0.99801400  1
  Co  Co1  1  0.49757700  0.50266500  0.99998400  1
  Co  Co2  1  0.68098400  0.16314000  0.66412700  1
  Co  Co3  1  0.34747500  0.82762400  0.33089700  1
  Co  Co4  1  0.17156200  0.65449700  0.66860900  1
  Co  Co5  1  0.83673100  0.32014700  0.33547600  1
  Cl  Cl0  1  0.67789100  0.64966500  0.92257200  1
  Cl  Cl1  1  0.49603100  0.02620700  0.74526600  1
  Cl  Cl2  1  0.64004900  0.19970400  0.92272600  1
  Cl  Cl3  1  0.34401500  0.33496200  0.59063200  1
  Cl  Cl4  1  0.49219100  0.49207600  0.74294100  1
  Cl  Cl5  1  0.16923000  0.18273900  0.92097500  1
  Cl  Cl6  1  0.16117000  0.69333200  0.41083600  1
  Cl  Cl7  1  0.30640900  0.83732500  0.58889200  1
  Cl  Cl8  1  0.02544900  0.49657100  0.74573800  1
  Cl  Cl9  1  0.18667900  0.64450300  0.92507500  1
  Cl  Cl10  1  0.16221000  0.15631000  0.41039400  1
  Cl  Cl11  1  0.01066000  0.00263600  0.25668400  1
  Cl  Cl12  1  0.84294300  0.83783500  0.58965200  1
  Cl  Cl13  1  0.99310800  0.99393200  0.74307000  1
  Cl  Cl14  1  0.81641000  0.35399400  0.07433500  1
  Cl  Cl15  1  0.97375600  0.50175000  0.25505100  1
  Cl  Cl16  1  0.69132300  0.16120100  0.41224300  1
  Cl  Cl17  1  0.84114700  0.30762500  0.58833700  1
  Cl  Cl18  1  0.84275100  0.80596200  0.08073700  1
  Cl  Cl19  1  0.51034800  0.50447700  0.25724100  1
  Cl  Cl20  1  0.66025000  0.66079900  0.40944700  1
  Cl  Cl21  1  0.35488100  0.79171500  0.08062100  1
  Cl  Cl22  1  0.50656900  0.97514700  0.25388200  1
  Cl  Cl23  1  0.33060300  0.33700800  0.07598500  1
loop_
_geom_bond_atom_site_label_1
_geom_bond_atom_site_label_2
_geom_bond_distance
_geom_bond_site_symmetry_2
Cl0 Li0 2.375945 1_555
Cl0 Co1 2.446514 1_555
Cl0 Co0 2.517697 1_655
Cl0 Li1 2.617523 1_556
Cl0 Li7 2.991673 1_555
Cl1 Li0 2.354532 1_545
Cl1 Co2 2.459002 1_555
Cl1 Li2 2.507251 1_555
Cl1 Li5 2.553241 1_555
Cl2 Li7 2.317619 1_555
Cl2 Co1 2.394461 1_555
Cl2 Li2 2.560310 1_555
Cl2 Li1 2.580877 1_546
Cl3 Li3 2.385934 1_555
Cl3 Co4 2.492666 1_555
Cl3 Co2 2.519339 1_555
Cl3 Li5 2.528880 1_555
Cl4 Li0 2.406613 1_555
Cl4 Co4 2.438769 1_555
Cl4 Li2 2.534610 1_555
Cl4 Co2 2.556930 1_555
Cl5 Li7 2.316467 1_455
Cl5 Co0 2.442441 1_555
Cl5 Li2 2.484792 1_555
Cl5 Li1 2.585326 1_546
Cl6 Li3 2.371182 1_555
Cl6 Co3 2.441286 1_555
Cl6 Li8 2.531103 1_455
Cl6 Li4 2.560932 1_465
Cl7 Li10 2.362548 1_555
Cl7 Co4 2.426830 1_555
Cl7 Li4 2.546130 1_465
Cl7 Li5 2.571999 1_565
Cl8 Co4 2.324033 1_555
Cl8 Li2 2.481030 1_555
Cl8 Li5 2.532401 1_555
Cl9 Co0 2.388637 1_555
Cl9 Co1 2.391985 1_555
Cl9 Li2 2.621389 1_555
Cl10 Li3 2.409682 1_555
Cl10 Co5 2.470223 1_455
Cl10 Li4 2.526552 1_455
Cl10 Co3 2.560435 1_545
Cl11 Li6 2.383306 1_455
Cl11 Co5 2.491018 1_455
Cl11 Co3 2.526136 1_545
Cl11 Li8 2.539296 1_445
Cl12 Li10 2.373188 1_555
Cl12 Co2 2.486554 1_565
Cl12 Li4 2.533460 1_565
Cl12 Co4 2.533468 1_655
Cl13 Li7 2.431338 1_565
Cl13 Co2 2.443667 1_565
Cl13 Li5 2.532882 1_665
Cl13 Co4 2.565649 1_655
Cl14 Li6 2.399091 1_555
Cl14 Co1 2.428326 1_554
Cl14 Co0 2.485980 1_654
Cl14 Li9 2.664544 1_555
Cl15 Li11 2.413413 1_655
Cl15 Co5 2.437817 1_555
Cl15 Li9 2.538827 1_555
Cl15 Li8 2.582973 1_555
Cl16 Co5 2.322103 1_555
Cl16 Li4 2.492057 1_555
Cl16 Li8 2.525326 1_545
Cl17 Co2 2.312746 1_555
Cl17 Li5 2.480921 1_655
Cl17 Li4 2.520208 1_555
Cl18 Li6 2.394986 1_565
Cl18 Li9 2.472611 1_555
Cl18 Co0 2.495708 1_654
Cl18 Li1 2.588336 1_555
Cl18 Li11 2.969815 1_655
Cl19 Li11 2.421651 1_555
Cl19 Co3 2.467164 1_555
Cl19 Co5 2.515734 1_555
Cl19 Li9 2.545059 1_555
Cl20 Li10 2.397220 1_555
Cl20 Co3 2.441884 1_555
Cl20 Li8 2.526825 1_555
Cl20 Co5 2.567177 1_555
Cl21 Co1 2.357874 1_554
Cl21 Li9 2.504648 1_555
Cl21 Li1 2.563561 1_555
Cl21 Li11 2.855361 1_555
Cl22 Co3 2.334986 1_555
Cl22 Li9 2.472221 1_555
Cl22 Li8 2.501757 1_555
Cl23 Li11 2.376846 1_555
Cl23 Co1 2.458486 1_554
Cl23 Co0 2.466508 1_554
Cl23 Li1 2.600680 1_545
