# generated using pymatgen
data_Ir(PdCl4)3
_symmetry_space_group_name_H-M   'P 1'
_cell_length_a   11.78454360
_cell_length_b   11.29137134
_cell_length_c   6.19903690
_cell_angle_alpha   78.85984844
_cell_angle_beta   70.06783799
_cell_angle_gamma   30.63571118
_symmetry_Int_Tables_number   1
_chemical_formula_structural   Ir(PdCl4)3
_chemical_formula_sum   'Ir1 Pd3 Cl12'
_cell_volume   386.42880280
_cell_formula_units_Z   1
loop_
 _symmetry_equiv_pos_site_id
 _symmetry_equiv_pos_as_xyz
  1  'x, y, z'
loop_
 _atom_site_type_symbol
 _atom_site_label
 _atom_site_symmetry_multiplicity
 _atom_site_fract_x
 _atom_site_fract_y
 _atom_site_fract_z
 _atom_site_occupancy
  Ir  Ir0  1  0.58423333  0.58423333  0.41576667  1
  Pd  Pd0  1  0.41687656  0.41687656  0.58312344  1
  Pd  Pd1  1  0.83331083  0.83331083  0.66668917  1
  Pd  Pd2  1  0.66694362  0.66694362  0.83305638  1
  Cl  Cl0  1  0.73321852  0.27645832  0.28024248  1
  Cl  Cl1  1  0.89715108  0.42434525  0.11690534  1
  Cl  Cl2  1  0.37470975  0.80115450  0.15574948  1
  Cl  Cl3  1  0.42434525  0.89715108  0.56159733  1
  Cl  Cl4  1  0.17695761  0.65010795  0.35549760  1
  Cl  Cl5  1  0.27645832  0.73321852  0.71008067  1
  Cl  Cl6  1  0.52151938  0.97116009  0.97557946  1
  Cl  Cl7  1  0.97116009  0.52151938  0.53174208  1
  Cl  Cl8  1  0.07196345  0.59989076  0.89342740  1
  Cl  Cl9  1  0.80115450  0.37470975  0.66838727  1
  Cl  Cl10  1  0.65010795  0.17695761  0.81743884  1
  Cl  Cl11  1  0.59989076  0.07196345  0.43471739  1
loop_
_geom_bond_atom_site_label_1
_geom_bond_atom_site_label_2
_geom_bond_distance
_geom_bond_site_symmetry_2
Cl0 Ir0 2.342678 1_555
Cl0 Pd0 2.478558 1_555
Cl1 Ir0 2.338370 1_555
Cl1 Pd2 2.561927 1_554
Cl2 Ir0 2.339805 1_555
Cl2 Pd2 2.377303 1_554
Cl3 Ir0 2.338368 1_555
Cl3 Pd2 2.561933 1_555
Cl4 Pd0 2.321927 1_555
Cl4 Pd1 2.490021 1_455
Cl5 Ir0 2.342678 1_555
Cl5 Pd0 2.478558 1_555
Cl6 Pd2 2.350960 1_555
Cl6 Pd1 2.470393 1_555
Cl7 Pd2 2.350958 1_555
Cl7 Pd1 2.470391 1_555
Cl8 Pd1 2.310793 1_455
Cl8 Pd0 2.498540 1_555
Cl9 Ir0 2.339810 1_555
Cl9 Pd2 2.377300 1_555
Cl10 Pd0 2.321937 1_555
Cl10 Pd1 2.490026 1_545
Cl11 Pd1 2.310798 1_545
Cl11 Pd0 2.498543 1_555
