# generated using pymatgen
data_Sr6Sn8BiBr
_symmetry_space_group_name_H-M   'P 1'
_cell_length_a   8.98645602
_cell_length_b   8.98645647
_cell_length_c   8.98645637
_cell_angle_alpha   120.34538347
_cell_angle_beta   120.34538246
_cell_angle_gamma   89.40281446
_symmetry_Int_Tables_number   1
_chemical_formula_structural   Sr6Sn8BiBr
_chemical_formula_sum   'Sr6 Sn8 Bi1 Br1'
_cell_volume   510.44819057
_cell_formula_units_Z   1
loop_
 _symmetry_equiv_pos_site_id
 _symmetry_equiv_pos_as_xyz
  1  'x, y, z'
loop_
 _atom_site_type_symbol
 _atom_site_label
 _atom_site_symmetry_multiplicity
 _atom_site_fract_x
 _atom_site_fract_y
 _atom_site_fract_z
 _atom_site_occupancy
  Sr  Sr0  1  0.24579181  0.24579181  0.00000000  1
  Sr  Sr1  1  0.75420819  0.75420819  0.00000000  1
  Sr  Sr2  1  0.16403703  0.66131146  0.82534848  1
  Sr  Sr3  1  0.83596297  0.33868854  0.17465152  1
  Sr  Sr4  1  0.66131146  0.83596297  0.49727443  1
  Sr  Sr5  1  0.33868854  0.16403703  0.50272557  1
  Sn  Sn0  1  0.83202031  0.33268568  0.78429113  1
  Sn  Sn1  1  0.16797969  0.66731432  0.21570887  1
  Sn  Sn2  1  0.54839455  0.04772918  0.21570887  1
  Sn  Sn3  1  0.33268568  0.54839455  0.50066538  1
  Sn  Sn4  1  0.95227082  0.16797969  0.50066538  1
  Sn  Sn5  1  0.45160545  0.95227082  0.78429113  1
  Sn  Sn6  1  0.66731432  0.45160545  0.49933462  1
  Sn  Sn7  1  0.04772918  0.83202031  0.49933462  1
  Bi  Bi0  1  0.50000000  0.50000000  0.00000000  1
  Br  Br0  1  0.00000000  0.00000000  0.00000000  1
loop_
_geom_bond_atom_site_label_1
_geom_bond_atom_site_label_2
_geom_bond_distance
_geom_bond_site_symmetry_2
Sn0 Sn4 2.965242 1_555
Sn0 Sn6 2.965242 1_555
Sn0 Sn1 3.125826 1_656
Sn0 Sr3 3.463116 1_556
Sn0 Sr0 3.518435 1_656
Sn0 Sr1 3.534185 1_556
Sn0 Sr5 3.644764 1_555
Sn0 Sr4 3.666436 1_545
Sn0 Sr2 3.966105 1_655
Sn1 Sn7 2.965242 1_555
Sn1 Sn3 2.965242 1_555
Sn1 Sr2 3.463116 1_554
Sn1 Sr1 3.518435 1_455
Sn1 Sr0 3.534185 1_555
Sn1 Sr4 3.644764 1_555
Sn1 Sr5 3.666436 1_565
Sn1 Sr3 3.966105 1_455
Sn2 Sn4 2.965242 1_555
Sn2 Sn6 2.965242 1_555
Sn2 Sn5 3.125826 1_544
Sn2 Sr2 3.463116 1_544
Sn2 Sr0 3.518435 1_555
Sn2 Sr1 3.534185 1_545
Sn2 Sr4 3.644764 1_545
Sn2 Sr5 3.666436 1_555
Sn2 Sr3 3.966105 1_555
Sn3 Sn5 2.965242 1_555
Sn3 Sn6 3.125826 1_555
Sn3 Sr5 3.463116 1_555
Sn3 Sr0 3.518435 1_555
Sn3 Sr1 3.534185 1_556
Sn3 Sr2 3.644764 1_555
Sn3 Sr3 3.666436 1_455
Sn3 Sr4 3.966105 1_555
Sn4 Sn7 3.125826 1_645
Sn4 Sr5 3.463116 1_655
Sn4 Sr1 3.518435 1_545
Sn4 Sr0 3.534185 1_656
Sn4 Sr2 3.644764 1_655
Sn4 Sr3 3.666436 1_555
Sn4 Sr4 3.966105 1_545
Sn5 Sn7 2.965242 1_555
Sn5 Sr3 3.463116 1_566
Sn5 Sr1 3.518435 1_556
Sn5 Sr0 3.534185 1_566
Sn5 Sr5 3.644764 1_565
Sn5 Sr4 3.666436 1_555
Sn5 Sr2 3.966105 1_555
Sn6 Sr4 3.463116 1_555
Sn6 Sr1 3.518435 1_556
Sn6 Sr0 3.534185 1_555
Sn6 Sr3 3.644764 1_555
Sn6 Sr2 3.666436 1_655
Sn6 Sr5 3.966105 1_555
Sn7 Sr4 3.463116 1_455
Sn7 Sr0 3.518435 1_566
Sn7 Sr1 3.534185 1_455
Sn7 Sr3 3.644764 1_455
Sn7 Sr2 3.666436 1_555
Sn7 Sr5 3.966105 1_565
Bi0 Sr1 3.247466 1_555
Bi0 Sr0 3.247466 1_555
Bi0 Sr5 3.331599 1_554
Bi0 Sr4 3.331599 1_555
Bi0 Sr3 3.331599 1_555
Bi0 Sr2 3.331599 1_554
Br0 Sr0 3.139948 1_555
Br0 Sr1 3.139948 1_445
Br0 Sr4 3.364129 1_444
Br0 Sr5 3.364129 1_555
Br0 Sr3 3.364129 1_455
Br0 Sr2 3.364129 1_544
