# generated using pymatgen
data_Th(Al2Cr)4
_symmetry_space_group_name_H-M   'P 1'
_cell_length_a   6.85313279
_cell_length_b   6.85313279
_cell_length_c   6.85313279
_cell_angle_alpha   97.72608549
_cell_angle_beta   97.72608549
_cell_angle_gamma   136.98081605
_symmetry_Int_Tables_number   1
_chemical_formula_structural   Th(Al2Cr)4
_chemical_formula_sum   'Th1 Al8 Cr4'
_cell_volume   204.29413978
_cell_formula_units_Z   1
loop_
 _symmetry_equiv_pos_site_id
 _symmetry_equiv_pos_as_xyz
  1  'x, y, z'
loop_
 _atom_site_type_symbol
 _atom_site_label
 _atom_site_symmetry_multiplicity
 _atom_site_fract_x
 _atom_site_fract_y
 _atom_site_fract_z
 _atom_site_occupancy
  Th  Th0  1  0.00000000  0.00000000  0.00000000  1
  Al  Al0  1  0.50000000  0.27583200  0.77583200  1
  Al  Al1  1  0.27583200  0.50000000  0.77583200  1
  Al  Al2  1  0.72416800  0.50000000  0.22416800  1
  Al  Al3  1  0.50000000  0.72416800  0.22416800  1
  Al  Al4  1  0.00000000  0.34449700  0.34449700  1
  Al  Al5  1  0.00000000  0.65550300  0.65550300  1
  Al  Al6  1  0.65550300  0.00000000  0.65550300  1
  Al  Al7  1  0.34449700  0.00000000  0.34449700  1
  Cr  Cr0  1  0.00000000  0.00000000  0.50000000  1
  Cr  Cr1  1  0.00000000  0.50000000  0.00000000  1
  Cr  Cr2  1  0.50000000  0.00000000  0.00000000  1
  Cr  Cr3  1  0.50000000  0.50000000  0.50000000  1
loop_
_geom_bond_atom_site_label_1
_geom_bond_atom_site_label_2
_geom_bond_distance
_geom_bond_site_symmetry_2
Al0 Cr2 2.591172 1_556
Al0 Cr1 2.591172 1_656
Al0 Cr0 2.591172 1_555
Al0 Cr3 2.591172 1_555
Al0 Al5 2.736987 1_545
Al0 Al5 2.736987 1_655
Al0 Al6 2.855137 1_555
Al0 Al7 2.855137 1_555
Al0 Al2 2.858525 1_556
Al0 Al1 2.858525 1_555
Al0 Th0 3.224824 1_556
Al0 Th0 3.224824 1_666
Al1 Cr1 2.591172 1_556
Al1 Cr2 2.591172 1_566
Al1 Cr0 2.591172 1_555
Al1 Cr3 2.591172 1_555
Al1 Al6 2.736987 1_455
Al1 Al6 2.736987 1_565
Al1 Al5 2.855137 1_555
Al1 Al4 2.855137 1_555
Al1 Al3 2.858525 1_556
Al1 Th0 3.224824 1_556
Al1 Th0 3.224824 1_666
Al2 Cr2 2.591172 1_555
Al2 Cr1 2.591172 1_655
Al2 Cr0 2.591172 1_665
Al2 Cr3 2.591172 1_555
Al2 Al7 2.736987 1_555
Al2 Al7 2.736987 1_665
Al2 Al5 2.855137 1_655
Al2 Al4 2.855137 1_655
Al2 Al3 2.858525 1_555
Al2 Th0 3.224824 1_665
Al2 Th0 3.224824 1_555
Al3 Cr0 2.591172 1_665
Al3 Cr1 2.591172 1_555
Al3 Cr3 2.591172 1_555
Al3 Cr2 2.591172 1_565
Al3 Al4 2.736987 1_555
Al3 Al4 2.736987 1_665
Al3 Al6 2.855137 1_565
Al3 Al7 2.855137 1_565
Al3 Th0 3.224824 1_665
Al3 Th0 3.224824 1_555
Al4 Cr2 2.717706 1_455
Al4 Cr1 2.717706 1_555
Al4 Cr3 2.717706 1_555
Al4 Cr0 2.717706 1_555
Al4 Al5 2.804285 1_555
Al4 Th0 3.106267 1_555
Al5 Cr1 2.717706 1_556
Al5 Cr2 2.717706 1_566
Al5 Cr3 2.717706 1_455
Al5 Cr0 2.717706 1_565
Al5 Th0 3.106267 1_566
Al6 Cr0 2.717706 1_655
Al6 Cr3 2.717706 1_545
Al6 Cr1 2.717706 1_656
Al6 Cr2 2.717706 1_556
Al6 Al7 2.804285 1_555
Al6 Th0 3.106267 1_656
Al7 Cr2 2.717706 1_555
Al7 Cr1 2.717706 1_545
Al7 Cr3 2.717706 1_555
Al7 Cr0 2.717706 1_555
Al7 Th0 3.106267 1_555
Cr0 Cr3 2.512749 1_555
Cr0 Cr3 2.512749 1_445
Cr0 Th0 3.426566 1_555
Cr0 Th0 3.426566 1_556
Cr1 Cr2 2.512749 1_565
Cr1 Cr2 2.512749 1_455
Cr1 Th0 3.426566 1_565
Cr1 Th0 3.426566 1_555
Cr2 Th0 3.426566 1_555
Cr2 Th0 3.426566 1_655
Cr3 Th0 3.426566 1_666
Cr3 Th0 3.426566 1_555
