# generated using pymatgen
data_Rb4TiCr7Se16
_symmetry_space_group_name_H-M   'P 1'
_cell_length_a   6.26971058
_cell_length_b   7.18877436
_cell_length_c   16.74683988
_cell_angle_alpha   90.09254686
_cell_angle_beta   90.04396288
_cell_angle_gamma   89.96213070
_symmetry_Int_Tables_number   1
_chemical_formula_structural   Rb4TiCr7Se16
_chemical_formula_sum   'Rb4 Ti1 Cr7 Se16'
_cell_volume   754.80440272
_cell_formula_units_Z   1
loop_
 _symmetry_equiv_pos_site_id
 _symmetry_equiv_pos_as_xyz
  1  'x, y, z'
loop_
 _atom_site_type_symbol
 _atom_site_label
 _atom_site_symmetry_multiplicity
 _atom_site_fract_x
 _atom_site_fract_y
 _atom_site_fract_z
 _atom_site_occupancy
  Rb  Rb0  1  0.36250367  0.99644493  0.99871924  1
  Rb  Rb1  1  0.63749633  0.50355507  0.50128076  1
  Rb  Rb2  1  0.02513935  0.99547293  0.50155226  1
  Rb  Rb3  1  0.97486065  0.50452707  0.99844774  1
  Ti  Ti0  1  0.50000000  0.25000000  0.25000000  1
  Cr  Cr0  1  0.00266048  0.00166784  0.25078491  1
  Cr  Cr1  1  0.00354277  0.00053309  0.74903850  1
  Cr  Cr2  1  0.99733952  0.49833216  0.24921509  1
  Cr  Cr3  1  0.99645723  0.49946691  0.75096150  1
  Cr  Cr4  1  0.50000000  0.75000000  0.75000000  1
  Cr  Cr5  1  0.50000000  0.75000000  0.25000000  1
  Cr  Cr6  1  0.50000000  0.25000000  0.75000000  1
  Se  Se0  1  0.83400573  0.25112758  0.33818594  1
  Se  Se1  1  0.83298655  0.74925270  0.66459891  1
  Se  Se2  1  0.16539377  0.75040470  0.16530639  1
  Se  Se3  1  0.16764319  0.24983019  0.83592050  1
  Se  Se4  1  0.16599427  0.24887242  0.16181406  1
  Se  Se5  1  0.16701345  0.75074730  0.83540109  1
  Se  Se6  1  0.83460623  0.74959530  0.33469361  1
  Se  Se7  1  0.83235681  0.25016981  0.66407950  1
  Se  Se8  1  0.67450745  0.99737286  0.16340974  1
  Se  Se9  1  0.67427543  0.00031020  0.83484655  1
  Se  Se10  1  0.32549255  0.50262714  0.33659026  1
  Se  Se11  1  0.32572457  0.49968980  0.66515345  1
  Se  Se12  1  0.33651522  0.99798379  0.33760497  1
  Se  Se13  1  0.33818451  0.99974589  0.66399910  1
  Se  Se14  1  0.66348478  0.50201621  0.16239503  1
  Se  Se15  1  0.66181549  0.50025411  0.83600090  1
loop_
_geom_bond_atom_site_label_1
_geom_bond_atom_site_label_2
_geom_bond_distance
_geom_bond_site_symmetry_2
Rb0 Se9 3.370713 1_565
Rb0 Se8 3.380111 1_556
Rb0 Se5 3.476296 1_555
Rb0 Se3 3.500231 1_565
Rb0 Se4 3.501031 1_566
Rb0 Se2 3.530270 1_556
Rb1 Se11 3.370713 1_555
Rb1 Se10 3.380111 1_555
Rb1 Se1 3.476296 1_555
Rb1 Se7 3.500231 1_555
Rb1 Se0 3.501031 1_555
Rb1 Se6 3.530270 1_555
Rb2 Se13 3.353464 1_555
Rb2 Se12 3.370208 1_555
Rb2 Se1 3.473266 1_455
Rb2 Se7 3.493946 1_465
Rb2 Se0 3.508134 1_465
Rb2 Se6 3.513038 1_455
Rb3 Se15 3.353464 1_555
Rb3 Se14 3.370208 1_556
Rb3 Se5 3.473266 1_655
Rb3 Se3 3.493946 1_655
Rb3 Se4 3.508134 1_656
Rb3 Se2 3.513038 1_656
Cr0 Se2 2.518779 1_545
Cr0 Se8 2.523963 1_445
Cr0 Se6 2.526160 1_445
Cr0 Se4 2.537737 1_555
Cr0 Se0 2.543201 1_455
Cr0 Se12 2.547834 1_545
Cr1 Se9 2.516221 1_455
Cr1 Se5 2.523943 1_545
Cr1 Se3 2.525681 1_555
Cr1 Se1 2.529468 1_445
Cr1 Se7 2.529856 1_455
Cr1 Se13 2.536692 1_545
Cr2 Se6 2.518779 1_555
Cr2 Se10 2.523963 1_655
Cr2 Se2 2.526160 1_655
Cr2 Se0 2.537737 1_555
Cr2 Se4 2.543201 1_655
Cr2 Se14 2.547834 1_555
Cr3 Se11 2.516221 1_655
Cr3 Se1 2.523943 1_555
Cr3 Se7 2.525681 1_555
Cr3 Se5 2.529468 1_655
Cr3 Se3 2.529856 1_655
Cr3 Se15 2.536692 1_555
Cr4 Se15 2.516074 1_555
Cr4 Se13 2.516074 1_555
Cr4 Se5 2.531532 1_555
Cr4 Se1 2.531532 1_555
Cr4 Se9 2.538261 1_565
Cr4 Se11 2.538261 1_555
Cr5 Se12 2.524379 1_555
Cr5 Se14 2.524379 1_555
Cr5 Se6 2.531459 1_555
Cr5 Se2 2.531459 1_555
Cr5 Se10 2.544725 1_555
Cr5 Se8 2.544725 1_555
Cr6 Se15 2.516319 1_555
Cr6 Se13 2.516319 1_545
Cr6 Se7 2.533215 1_555
Cr6 Se3 2.533215 1_555
Cr6 Se9 2.537331 1_555
Cr6 Se11 2.537331 1_555
Se0 Ti0 2.561578 1_555
Se4 Ti0 2.561578 1_555
Se8 Ti0 2.566974 1_565
Se10 Ti0 2.566974 1_555
Se12 Ti0 2.549234 1_565
Se14 Ti0 2.549234 1_555
