# generated using pymatgen
data_CsRb5(Al2Sb3)2
_symmetry_space_group_name_H-M   'P 1'
_cell_length_a   6.74300547
_cell_length_b   8.23308372
_cell_length_c   11.66576435
_cell_angle_alpha   69.23973862
_cell_angle_beta   90.00000000
_cell_angle_gamma   90.00000000
_symmetry_Int_Tables_number   1
_chemical_formula_structural   CsRb5(Al2Sb3)2
_chemical_formula_sum   'Cs1 Rb5 Al4 Sb6'
_cell_volume   605.58369826
_cell_formula_units_Z   1
loop_
 _symmetry_equiv_pos_site_id
 _symmetry_equiv_pos_as_xyz
  1  'x, y, z'
loop_
 _atom_site_type_symbol
 _atom_site_label
 _atom_site_symmetry_multiplicity
 _atom_site_fract_x
 _atom_site_fract_y
 _atom_site_fract_z
 _atom_site_occupancy
  Cs  Cs0  1  0.25000000  0.84244072  0.11027174  1
  Rb  Rb0  1  0.25000000  0.40657973  0.45277109  1
  Rb  Rb1  1  0.75000000  0.13324915  0.89031780  1
  Rb  Rb2  1  0.75000000  0.47344356  0.15064679  1
  Rb  Rb3  1  0.25000000  0.52187446  0.84813517  1
  Rb  Rb4  1  0.75000000  0.59844043  0.54649258  1
  Al  Al0  1  0.00144319  0.05042994  0.34472777  1
  Al  Al1  1  0.50008068  0.95372211  0.65589654  1
  Al  Al2  1  0.49855681  0.05042994  0.34472777  1
  Al  Al3  1  0.99991932  0.95372211  0.65589654  1
  Sb  Sb0  1  0.25000000  0.81605063  0.51941611  1
  Sb  Sb1  1  0.75000000  0.18727418  0.48196648  1
  Sb  Sb2  1  0.25000000  0.27911982  0.19071110  1
  Sb  Sb3  1  0.75000000  0.72379654  0.80993256  1
  Sb  Sb4  1  0.25000000  0.11017003  0.76094443  1
  Sb  Sb5  1  0.75000000  0.89925464  0.23714352  1
loop_
_geom_bond_atom_site_label_1
_geom_bond_atom_site_label_2
_geom_bond_distance
_geom_bond_site_symmetry_2
Cs0 Sb5 3.777192 1_455
Cs0 Sb5 3.777192 1_555
Cs0 Sb4 3.885579 1_564
Cs0 Sb2 4.024651 1_565
Cs0 Sb2 4.393757 1_555
Rb0 Sb4 3.558149 1_555
Rb0 Sb2 3.566728 1_555
Rb0 Sb0 3.718543 1_555
Rb0 Sb1 3.782477 1_455
Rb0 Sb1 3.782477 1_555
Rb1 Sb4 3.726156 1_655
Rb1 Sb4 3.726156 1_555
Rb1 Sb3 3.805846 1_545
Rb1 Sb5 3.815192 1_546
Rb2 Sb2 3.689852 1_655
Rb2 Sb2 3.689852 1_555
Rb2 Sb1 3.746239 1_555
Rb2 Sb3 3.773432 1_554
Rb2 Sb5 3.976953 1_555
Rb3 Sb3 3.715391 1_555
Rb3 Sb3 3.715391 1_455
Rb3 Sb0 3.739939 1_555
Rb3 Sb2 3.781989 1_556
Rb3 Sb4 3.868863 1_555
Rb4 Sb3 3.571894 1_555
Rb4 Sb5 3.580647 1_555
Rb4 Sb1 3.719196 1_555
Rb4 Sb0 3.778288 1_555
Rb4 Sb0 3.778288 1_655
Al0 Sb5 2.665771 1_445
Al0 Sb2 2.680312 1_555
Al0 Sb0 2.810306 1_545
Al0 Sb1 2.825934 1_455
Al0 Rb2 3.813150 1_455
Al1 Sb4 2.668973 1_565
Al1 Sb3 2.690895 1_555
Al1 Sb1 2.808627 1_565
Al1 Sb0 2.818262 1_555
Al1 Rb3 3.855063 1_555
Al2 Sb5 2.665771 1_545
Al2 Sb2 2.680312 1_555
Al2 Sb0 2.810306 1_545
Al2 Sb1 2.825934 1_555
Al2 Rb2 3.813150 1_555
Al3 Sb4 2.668973 1_665
Al3 Sb3 2.690895 1_555
Al3 Sb1 2.808627 1_565
Al3 Sb0 2.818262 1_655
Al3 Rb3 3.855063 1_655
