# generated using pymatgen
data_Pr2Zn17
_symmetry_space_group_name_H-M   'P 1'
_cell_length_a   6.77496029
_cell_length_b   6.77495883
_cell_length_c   6.77496026
_cell_angle_alpha   82.96534912
_cell_angle_beta   82.96535979
_cell_angle_gamma   82.96534439
_symmetry_Int_Tables_number   1
_chemical_formula_structural   Pr2Zn17
_chemical_formula_sum   'Pr2 Zn17'
_cell_volume   304.47834880
_cell_formula_units_Z   1
loop_
 _symmetry_equiv_pos_site_id
 _symmetry_equiv_pos_as_xyz
  1  'x, y, z'
loop_
 _atom_site_type_symbol
 _atom_site_label
 _atom_site_symmetry_multiplicity
 _atom_site_fract_x
 _atom_site_fract_y
 _atom_site_fract_z
 _atom_site_occupancy
  Pr  Pr0  1  0.66335134  0.66335134  0.66335134  1
  Pr  Pr1  1  0.33664866  0.33664866  0.33664866  1
  Zn  Zn0  1  0.34856050  0.34856050  0.83912826  1
  Zn  Zn1  1  0.34856050  0.83912826  0.34856050  1
  Zn  Zn2  1  0.09854734  0.09854734  0.09854734  1
  Zn  Zn3  1  0.90145266  0.90145266  0.90145266  1
  Zn  Zn4  1  0.00000000  -0.00000000  0.50000000  1
  Zn  Zn5  1  0.50000000  -0.00000000  -0.00000000  1
  Zn  Zn6  1  0.00000000  0.50000000  -0.00000000  1
  Zn  Zn7  1  0.70890872  0.29109128  -0.00000000  1
  Zn  Zn8  1  0.00000000  0.70890872  0.29109128  1
  Zn  Zn9  1  0.29109128  -0.00000000  0.70890872  1
  Zn  Zn10  1  0.29109128  0.70890872  0.00000000  1
  Zn  Zn11  1  -0.00000000  0.29109128  0.70890872  1
  Zn  Zn12  1  0.70890872  0.00000000  0.29109128  1
  Zn  Zn13  1  0.65143950  0.16087174  0.65143950  1
  Zn  Zn14  1  0.65143950  0.65143950  0.16087174  1
  Zn  Zn15  1  0.16087174  0.65143950  0.65143950  1
  Zn  Zn16  1  0.83912826  0.34856050  0.34856050  1
loop_
_geom_bond_atom_site_label_1
_geom_bond_atom_site_label_2
_geom_bond_distance
_geom_bond_site_symmetry_2
Pr0 Zn3 3.117477 1_555
Pr0 Zn11 3.198556 1_655
Pr0 Zn7 3.198556 1_556
Pr0 Zn9 3.198556 1_565
Pr0 Zn12 3.198556 1_565
Pr0 Zn10 3.198556 1_556
Pr0 Zn8 3.198556 1_655
Pr0 Zn1 3.222556 1_555
Pr0 Zn16 3.222556 1_555
Pr0 Zn0 3.222556 1_555
Pr0 Zn13 3.353036 1_565
Pr0 Zn14 3.353036 1_556
Pr0 Zn15 3.353036 1_655
Pr0 Zn6 3.415604 1_656
Pr0 Zn5 3.415604 1_566
Pr0 Zn4 3.415604 1_665
Pr0 Zn13 3.426123 1_555
Pr0 Zn14 3.426124 1_555
Pr0 Zn15 3.426124 1_555
Pr1 Zn2 3.117477 1_555
Pr1 Zn8 3.198556 1_555
Pr1 Zn10 3.198556 1_555
Pr1 Zn12 3.198556 1_555
Pr1 Zn9 3.198556 1_555
Pr1 Zn7 3.198556 1_555
Pr1 Zn11 3.198556 1_555
Pr1 Zn13 3.222556 1_555
Pr1 Zn15 3.222556 1_555
Pr1 Zn14 3.222556 1_555
Pr1 Zn1 3.353036 1_545
Pr1 Zn0 3.353036 1_554
Pr1 Zn16 3.353036 1_455
Pr1 Zn6 3.415604 1_555
Pr1 Zn5 3.415604 1_555
Pr1 Zn4 3.415604 1_555
Pr1 Zn1 3.426123 1_555
Pr1 Zn0 3.426124 1_555
Pr1 Zn16 3.426124 1_555
Zn0 Zn15 2.561707 1_555
Zn0 Zn13 2.561707 1_555
Zn0 Zn5 2.620529 1_556
Zn0 Zn6 2.620530 1_556
Zn0 Zn9 2.706691 1_555
Zn0 Zn11 2.706691 1_555
Zn0 Zn10 2.759459 1_556
Zn0 Zn7 2.759459 1_556
Zn0 Zn2 2.841037 1_556
Zn1 Zn14 2.561707 1_555
Zn1 Zn15 2.561708 1_555
Zn1 Zn4 2.620530 1_565
Zn1 Zn5 2.620530 1_565
Zn1 Zn10 2.706691 1_555
Zn1 Zn8 2.706691 1_555
Zn1 Zn9 2.759459 1_565
Zn1 Zn12 2.759459 1_565
Zn1 Zn2 2.841036 1_565
Zn2 Zn3 2.580574 1_444
Zn2 Zn6 2.740180 1_555
Zn2 Zn5 2.740181 1_555
Zn2 Zn4 2.740181 1_555
Zn2 Zn8 2.913898 1_545
Zn2 Zn7 2.913898 1_455
Zn2 Zn9 2.913899 1_554
Zn3 Zn6 2.740180 1_656
Zn3 Zn5 2.740181 1_566
Zn3 Zn4 2.740181 1_665
Zn3 Zn7 2.913898 1_566
Zn3 Zn8 2.913899 1_656
Zn3 Zn9 2.913899 1_665
Zn4 Zn8 2.564410 1_545
Zn4 Zn9 2.564410 1_555
Zn5 Zn7 2.564410 1_555
Zn5 Zn9 2.564410 1_554
Zn6 Zn8 2.564410 1_555
Zn6 Zn7 2.564411 1_455
Zn10 Zn5 2.564410 1_565
Zn10 Zn6 2.564411 1_555
Zn10 Zn9 2.612655 1_564
Zn10 Zn8 2.612655 1_555
Zn10 Zn15 2.706691 1_554
Zn10 Zn14 2.759459 1_555
Zn10 Zn2 2.913898 1_565
Zn10 Zn3 2.913898 1_454
Zn11 Zn4 2.564410 1_555
Zn11 Zn6 2.564410 1_556
Zn11 Zn9 2.612654 1_555
Zn11 Zn7 2.612655 1_456
Zn11 Zn13 2.706691 1_455
Zn11 Zn15 2.759459 1_555
Zn11 Zn16 2.759459 1_455
Zn11 Zn3 2.913898 1_445
Zn11 Zn2 2.913899 1_556
Zn12 Zn5 2.564410 1_555
Zn12 Zn4 2.564410 1_655
Zn12 Zn8 2.612654 1_645
Zn12 Zn7 2.612655 1_555
Zn12 Zn14 2.706691 1_545
Zn12 Zn16 2.706691 1_555
Zn12 Zn13 2.759459 1_555
Zn12 Zn3 2.913899 1_544
Zn12 Zn2 2.913899 1_655
Zn13 Zn16 2.561708 1_555
Zn13 Zn4 2.620530 1_655
Zn13 Zn5 2.620530 1_556
Zn13 Zn7 2.706691 1_556
Zn13 Zn9 2.759459 1_555
Zn13 Zn3 2.841036 1_545
Zn14 Zn16 2.561707 1_555
Zn14 Zn5 2.620529 1_565
Zn14 Zn6 2.620530 1_655
Zn14 Zn8 2.706691 1_655
Zn14 Zn7 2.759459 1_555
Zn14 Zn3 2.841037 1_554
Zn15 Zn4 2.620529 1_565
Zn15 Zn6 2.620530 1_556
Zn15 Zn9 2.706691 1_565
Zn15 Zn8 2.759459 1_555
Zn15 Zn3 2.841037 1_455
Zn16 Zn4 2.620529 1_655
Zn16 Zn6 2.620530 1_655
Zn16 Zn7 2.706691 1_555
Zn16 Zn8 2.759459 1_655
Zn16 Zn2 2.841037 1_655
