# generated using pymatgen
data_ZrBe9Mo2
_symmetry_space_group_name_H-M   'P 1'
_cell_length_a   7.54131514
_cell_length_b   7.54131421
_cell_length_c   7.54131595
_cell_angle_alpha   34.63102799
_cell_angle_beta   34.63102794
_cell_angle_gamma   34.63102698
_symmetry_Int_Tables_number   1
_chemical_formula_structural   ZrBe9Mo2
_chemical_formula_sum   'Zr1 Be9 Mo2'
_cell_volume   123.59512536
_cell_formula_units_Z   1
loop_
 _symmetry_equiv_pos_site_id
 _symmetry_equiv_pos_as_xyz
  1  'x, y, z'
loop_
 _atom_site_type_symbol
 _atom_site_label
 _atom_site_symmetry_multiplicity
 _atom_site_fract_x
 _atom_site_fract_y
 _atom_site_fract_z
 _atom_site_occupancy
  Zr  Zr0  1  0.00000000  0.00000000  0.00000000  1
  Be  Be0  1  0.50000000  0.50000000  0.50000000  1
  Be  Be1  1  0.33401200  0.33401200  0.33401300  1
  Be  Be2  1  0.66598800  0.66598800  0.66598700  1
  Be  Be3  1  0.07908154  0.58637775  0.58637775  1
  Be  Be4  1  0.58637775  0.58637775  0.07908154  1
  Be  Be5  1  0.58637775  0.07908154  0.58637775  1
  Be  Be6  1  0.41362225  0.92091846  0.41362225  1
  Be  Be7  1  0.92091846  0.41362225  0.41362225  1
  Be  Be8  1  0.41362225  0.41362225  0.92091846  1
  Mo  Mo0  1  0.14507327  0.14507327  0.14507327  1
  Mo  Mo1  1  0.85492673  0.85492673  0.85492673  1
loop_
_geom_bond_atom_site_label_1
_geom_bond_atom_site_label_2
_geom_bond_distance
_geom_bond_site_symmetry_2
Be0 Be6 2.194865 1_555
Be0 Be5 2.194865 1_555
Be0 Be7 2.194865 1_555
Be0 Be3 2.194865 1_555
Be0 Be8 2.194865 1_555
Be0 Be4 2.194865 1_555
Be0 Mo1 2.632070 1_455
Be0 Mo0 2.632070 1_655
Be0 Mo1 2.632070 1_545
Be0 Mo0 2.632070 1_565
Be0 Mo1 2.632070 1_554
Be0 Mo0 2.632070 1_556
Be1 Be3 2.204159 1_555
Be1 Be5 2.204159 1_555
Be1 Be4 2.204161 1_555
Be1 Be6 2.205268 1_545
Be1 Be7 2.205268 1_455
Be1 Be8 2.205271 1_554
Be1 Zr0 2.591818 1_556
Be1 Zr0 2.591821 1_565
Be1 Zr0 2.591821 1_655
Be1 Be2 2.591938 1_545
Be1 Be2 2.591938 1_455
Be1 Be2 2.591946 1_554
Be2 Be7 2.204159 1_555
Be2 Be6 2.204159 1_555
Be2 Be8 2.204161 1_555
Be2 Be5 2.205268 1_565
Be2 Be3 2.205268 1_655
Be2 Be4 2.205271 1_556
Be2 Zr0 2.591818 1_665
Be2 Zr0 2.591821 1_656
Be2 Zr0 2.591821 1_566
Be3 Be5 2.211794 1_465
Be3 Be4 2.211794 1_456
Be3 Be5 2.277300 1_555
Be3 Be4 2.277301 1_555
Be3 Mo1 2.557819 1_455
Be3 Mo0 2.593259 1_565
Be3 Mo0 2.593260 1_556
Be3 Zr0 2.866917 1_556
Be3 Zr0 2.866918 1_565
Be4 Be5 2.211794 1_564
Be4 Be5 2.277301 1_555
Be4 Mo1 2.557819 1_554
Be4 Mo0 2.593259 1_565
Be4 Mo0 2.593259 1_655
Be4 Zr0 2.866917 1_655
Be4 Zr0 2.866918 1_565
Be5 Mo1 2.557820 1_545
Be5 Mo0 2.593259 1_655
Be5 Mo0 2.593260 1_556
Be5 Zr0 2.866918 1_556
Be5 Zr0 2.866918 1_655
Be6 Be7 2.211794 1_465
Be6 Be8 2.211794 1_564
Be6 Be7 2.277300 1_555
Be6 Be8 2.277301 1_555
Be6 Mo0 2.557820 1_565
Be6 Mo1 2.593259 1_455
Be6 Mo1 2.593260 1_554
Be6 Zr0 2.866918 1_665
Be6 Zr0 2.866918 1_566
Be7 Be8 2.211794 1_654
Be7 Be8 2.277301 1_555
Be7 Mo0 2.557819 1_655
Be7 Mo1 2.593259 1_545
Be7 Mo1 2.593260 1_554
Be7 Zr0 2.866917 1_665
Be7 Zr0 2.866918 1_656
Be8 Mo0 2.557819 1_556
Be8 Mo1 2.593259 1_545
Be8 Mo1 2.593259 1_455
Be8 Zr0 2.866917 1_566
Be8 Zr0 2.866918 1_656
Mo0 Mo1 2.749400 1_454
Mo0 Mo1 2.749401 1_544
Mo0 Mo1 2.749401 1_445
Mo0 Zr0 3.082208 1_555
Mo1 Zr0 3.082208 1_666
