# generated using pymatgen
data_Zr3Ti3BAs2
_symmetry_space_group_name_H-M   'P 1'
_cell_length_a   6.91181635
_cell_length_b   6.91181611
_cell_length_c   3.63297334
_cell_angle_alpha   90.00000000
_cell_angle_beta   90.00000000
_cell_angle_gamma   120.00000584
_symmetry_Int_Tables_number   1
_chemical_formula_structural   Zr3Ti3BAs2
_chemical_formula_sum   'Zr3 Ti3 B1 As2'
_cell_volume   150.30629942
_cell_formula_units_Z   1
loop_
 _symmetry_equiv_pos_site_id
 _symmetry_equiv_pos_as_xyz
  1  'x, y, z'
loop_
 _atom_site_type_symbol
 _atom_site_label
 _atom_site_symmetry_multiplicity
 _atom_site_fract_x
 _atom_site_fract_y
 _atom_site_fract_z
 _atom_site_occupancy
  Zr  Zr0  1  1.00000000  0.60291726  0.50000000  1
  Zr  Zr1  1  0.39708274  0.39708274  0.50000000  1
  Zr  Zr2  1  0.60291726  1.00000000  0.50000000  1
  Ti  Ti0  1  0.22840070  1.00000000  0.00000000  1
  Ti  Ti1  1  0.77159930  0.77159930  0.00000000  1
  Ti  Ti2  1  1.00000000  0.22840070  0.00000000  1
  B  B0  1  0.00000000  0.00000000  0.50000000  1
  As  As0  1  0.33333300  0.66666700  0.00000000  1
  As  As1  1  0.66666700  0.33333300  0.00000000  1
loop_
_geom_bond_atom_site_label_1
_geom_bond_atom_site_label_2
_geom_bond_distance
_geom_bond_site_symmetry_2
B0 Ti1 2.406616 1_446
B0 Ti1 2.406616 1_445
B0 Ti2 2.406616 1_456
B0 Ti2 2.406616 1_455
B0 Ti0 2.406616 1_545
B0 Ti0 2.406616 1_546
B0 Zr1 2.744563 1_555
B0 Zr0 2.744563 1_445
B0 Zr2 2.744563 1_445
As0 Ti0 2.739549 1_555
As0 Ti2 2.739553 1_455
As0 Ti1 2.739555 1_555
As0 Zr0 2.790470 1_454
As0 Zr0 2.790470 1_455
As0 Zr2 2.790472 1_554
As0 Zr2 2.790472 1_555
As0 Zr1 2.790475 1_555
As0 Zr1 2.790475 1_554
As1 Ti2 2.739549 1_555
As1 Ti0 2.739553 1_545
As1 Ti1 2.739555 1_555
As1 Zr2 2.790470 1_545
As1 Zr2 2.790470 1_544
As1 Zr0 2.790472 1_555
As1 Zr0 2.790472 1_554
As1 Zr1 2.790475 1_555
As1 Zr1 2.790475 1_554
