# generated using pymatgen
data_Y3Al7CuPd
_symmetry_space_group_name_H-M   'P 1'
_cell_length_a   9.12275794
_cell_length_b   9.12275864
_cell_length_c   9.12275805
_cell_angle_alpha   34.94978196
_cell_angle_beta   34.94977633
_cell_angle_gamma   34.94977705
_symmetry_Int_Tables_number   1
_chemical_formula_structural   Y3Al7CuPd
_chemical_formula_sum   'Y3 Al7 Cu1 Pd1'
_cell_volume   222.44822833
_cell_formula_units_Z   1
loop_
 _symmetry_equiv_pos_site_id
 _symmetry_equiv_pos_as_xyz
  1  'x, y, z'
loop_
 _atom_site_type_symbol
 _atom_site_label
 _atom_site_symmetry_multiplicity
 _atom_site_fract_x
 _atom_site_fract_y
 _atom_site_fract_z
 _atom_site_occupancy
  Y  Y0  1  0.99985861  0.99985861  0.99985861  1
  Y  Y1  1  0.85720531  0.85720531  0.85720531  1
  Y  Y2  1  0.14294350  0.14294350  0.14294350  1
  Al  Al0  1  0.41706615  0.41706615  0.92873634  1
  Al  Al1  1  0.92873634  0.41706615  0.41706615  1
  Al  Al2  1  0.41706615  0.92873634  0.41706615  1
  Al  Al3  1  0.50000650  0.50000650  0.50000650  1
  Al  Al4  1  0.58094001  0.07511635  0.58094001  1
  Al  Al5  1  0.07511635  0.58094001  0.58094001  1
  Al  Al6  1  0.58094001  0.58094001  0.07511635  1
  Cu  Cu0  1  0.33545402  0.33545402  0.33545402  1
  Pd  Pd0  1  0.66466605  0.66466605  0.66466605  1
loop_
_geom_bond_atom_site_label_1
_geom_bond_atom_site_label_2
_geom_bond_distance
_geom_bond_site_symmetry_2
Al0 Pd0 2.555596 1_555
Al0 Cu0 2.593681 1_556
Al0 Al3 2.770978 1_555
Al0 Y1 3.191257 1_455
Al0 Y1 3.191258 1_545
Al0 Y2 3.248994 1_556
Al1 Pd0 2.555596 1_555
Al1 Cu0 2.593681 1_655
Al1 Al3 2.770978 1_555
Al1 Y1 3.191258 1_554
Al1 Y1 3.191258 1_545
Al1 Y2 3.248994 1_655
Al2 Pd0 2.555596 1_555
Al2 Cu0 2.593682 1_565
Al2 Al3 2.770978 1_555
Al2 Y1 3.191257 1_554
Al2 Y1 3.191257 1_455
Al2 Y2 3.248994 1_565
Al3 Al5 2.761429 1_555
Al3 Al6 2.761429 1_555
Al3 Al4 2.761430 1_555
Al3 Y2 3.221366 1_655
Al3 Y2 3.221366 1_556
Al3 Y2 3.221366 1_565
Al3 Y1 3.222027 1_455
Al3 Y1 3.222027 1_554
Al3 Y1 3.222027 1_545
Al4 Cu0 2.540630 1_555
Al4 Pd0 2.601350 1_545
Al4 Y2 3.193651 1_556
Al4 Y2 3.193651 1_655
Al4 Y1 3.262193 1_545
Al5 Cu0 2.540630 1_555
Al5 Pd0 2.601350 1_455
Al5 Y2 3.193652 1_556
Al5 Y2 3.193652 1_565
Al5 Y1 3.262193 1_455
Al6 Cu0 2.540630 1_555
Al6 Pd0 2.601350 1_554
Al6 Y2 3.193651 1_655
Al6 Y2 3.193652 1_565
Al6 Y1 3.262193 1_554
Cu0 Y0 3.163780 1_544
Cu0 Y0 3.163781 1_445
Cu0 Y0 3.163781 1_454
Cu0 Pd0 3.165016 1_455
Cu0 Pd0 3.165016 1_554
Cu0 Pd0 3.165017 1_545
Pd0 Y0 3.163607 1_455
Pd0 Y0 3.163608 1_554
Pd0 Y0 3.163608 1_545
