# generated using pymatgen
data_CsY3S5
_symmetry_space_group_name_H-M   'P 1'
_cell_length_a   4.00522210
_cell_length_b   12.02443000
_cell_length_c   21.34778597
_cell_angle_alpha   90.00000000
_cell_angle_beta   90.00000000
_cell_angle_gamma   90.00000000
_symmetry_Int_Tables_number   1
_chemical_formula_structural   CsY3S5
_chemical_formula_sum   'Cs4 Y12 S20'
_cell_volume   1028.12031811
_cell_formula_units_Z   4
loop_
 _symmetry_equiv_pos_site_id
 _symmetry_equiv_pos_as_xyz
  1  'x, y, z'
loop_
 _atom_site_type_symbol
 _atom_site_label
 _atom_site_symmetry_multiplicity
 _atom_site_fract_x
 _atom_site_fract_y
 _atom_site_fract_z
 _atom_site_occupancy
  Cs  Cs0  1  0.25000000  0.85289905  0.09523725  1
  Cs  Cs1  1  0.75000000  0.14710095  0.90476275  1
  Cs  Cs2  1  0.75000000  0.35289905  0.40476275  1
  Cs  Cs3  1  0.25000000  0.64710095  0.59523725  1
  Y  Y0  1  0.75000000  0.79771510  0.82534464  1
  Y  Y1  1  0.25000000  0.20228490  0.17465536  1
  Y  Y2  1  0.25000000  0.29771510  0.67465536  1
  Y  Y3  1  0.75000000  0.70228490  0.32534464  1
  Y  Y4  1  0.25000000  0.95962537  0.69761077  1
  Y  Y5  1  0.75000000  0.04037463  0.30238923  1
  Y  Y6  1  0.75000000  0.45962537  0.80238923  1
  Y  Y7  1  0.25000000  0.54037463  0.19761077  1
  Y  Y8  1  0.75000000  0.39012951  0.05235740  1
  Y  Y9  1  0.25000000  0.60987049  0.94764260  1
  Y  Y10  1  0.25000000  0.89012951  0.44764260  1
  Y  Y11  1  0.75000000  0.10987049  0.55235740  1
  S  S0  1  0.25000000  0.95275456  0.56893155  1
  S  S1  1  0.75000000  0.04724544  0.43106845  1
  S  S2  1  0.75000000  0.45275456  0.93106845  1
  S  S3  1  0.25000000  0.54724544  0.06893155  1
  S  S4  1  0.75000000  0.76194638  0.95177321  1
  S  S5  1  0.25000000  0.23805362  0.04822679  1
  S  S6  1  0.25000000  0.26194638  0.54822679  1
  S  S7  1  0.75000000  0.73805362  0.45177321  1
  S  S8  1  0.25000000  0.94674341  0.82444302  1
  S  S9  1  0.75000000  0.05325659  0.17555698  1
  S  S10  1  0.75000000  0.44674341  0.67555698  1
  S  S11  1  0.25000000  0.55325659  0.32444302  1
  S  S12  1  0.75000000  0.12706946  0.68281702  1
  S  S13  1  0.25000000  0.87293054  0.31718298  1
  S  S14  1  0.25000000  0.62706946  0.81718298  1
  S  S15  1  0.75000000  0.37293054  0.18281702  1
  S  S16  1  0.75000000  0.68786832  0.19867813  1
  S  S17  1  0.25000000  0.31213168  0.80132187  1
  S  S18  1  0.25000000  0.18786832  0.30132187  1
  S  S19  1  0.75000000  0.81213168  0.69867813  1
loop_
_geom_bond_atom_site_label_1
_geom_bond_atom_site_label_2
_geom_bond_distance
_geom_bond_site_symmetry_2
Cs0 S9 3.571364 1_465
Cs0 S9 3.571364 1_565
Cs0 S16 3.581144 1_455
Cs0 S16 3.581144 1_555
Cs0 S3 3.717965 1_555
Cs0 S4 3.819200 1_554
Cs0 S4 3.819200 1_454
Cs1 S8 3.571364 1_545
Cs1 S8 3.571364 1_645
Cs1 S17 3.581144 1_655
Cs1 S17 3.581144 1_555
Cs1 S2 3.717965 1_555
Cs1 S5 3.819200 1_556
Cs1 S5 3.819200 1_656
Cs2 S11 3.571364 1_555
Cs2 S11 3.571364 1_655
Cs2 S18 3.581144 1_655
Cs2 S18 3.581144 1_555
Cs2 S1 3.717965 1_555
Cs2 S6 3.819200 1_555
Cs2 S6 3.819200 1_655
Cs3 S10 3.571364 1_455
Cs3 S10 3.571364 1_555
Cs3 S19 3.581144 1_455
Cs3 S19 3.581144 1_555
Cs3 S0 3.717965 1_555
Cs3 S7 3.819200 1_455
Cs3 S7 3.819200 1_555
S0 Y10 2.696530 1_555
S0 Y4 2.748258 1_555
S0 Y11 2.775757 1_465
S0 Y11 2.775757 1_565
S1 Y11 2.696530 1_555
S1 Y5 2.748258 1_555
S1 Y10 2.775757 1_645
S1 Y10 2.775757 1_545
S2 Y8 2.696530 1_556
S2 Y6 2.748258 1_555
S2 Y9 2.775757 1_555
S2 Y9 2.775757 1_655
S3 Y9 2.696530 1_554
S3 Y7 2.748258 1_555
S3 Y8 2.775757 1_455
S3 Y8 2.775757 1_555
S4 Y9 2.713319 1_655
S4 Y9 2.713319 1_555
S4 Y0 2.733025 1_555
S5 Y8 2.713319 1_555
S5 Y8 2.713319 1_455
S5 Y1 2.733025 1_555
S6 Y11 2.713319 1_555
S6 Y11 2.713319 1_455
S6 Y2 2.733025 1_555
S7 Y10 2.713319 1_555
S7 Y10 2.713319 1_655
S7 Y3 2.733025 1_555
S8 Y0 2.687381 1_455
S8 Y0 2.687381 1_555
S8 Y4 2.712015 1_555
S9 Y1 2.687381 1_655
S9 Y1 2.687381 1_555
S9 Y5 2.712015 1_555
S10 Y2 2.687381 1_555
S10 Y2 2.687381 1_655
S10 Y6 2.712015 1_555
S11 Y3 2.687381 1_455
S11 Y3 2.687381 1_555
S11 Y7 2.712015 1_555
S12 Y11 2.792692 1_555
S12 Y4 2.857280 1_645
S12 Y4 2.857280 1_545
S12 Y2 2.872485 1_655
S12 Y2 2.872485 1_555
S13 Y10 2.792692 1_555
S13 Y5 2.857280 1_565
S13 Y5 2.857280 1_465
S13 Y3 2.872485 1_555
S13 Y3 2.872485 1_455
S14 Y9 2.792692 1_555
S14 Y6 2.857280 1_455
S14 Y6 2.857280 1_555
S14 Y0 2.872485 1_555
S14 Y0 2.872485 1_455
S15 Y8 2.792692 1_555
S15 Y7 2.857280 1_555
S15 Y7 2.857280 1_655
S15 Y1 2.872485 1_555
S15 Y1 2.872485 1_655
S16 Y7 2.675139 1_555
S16 Y7 2.675139 1_655
S16 Y3 2.709600 1_555
S17 Y6 2.675139 1_455
S17 Y6 2.675139 1_555
S17 Y2 2.709600 1_555
S18 Y5 2.675139 1_555
S18 Y5 2.675139 1_455
S18 Y1 2.709600 1_555
S19 Y4 2.675139 1_655
S19 Y4 2.675139 1_555
S19 Y0 2.709600 1_555
