# generated using pymatgen
data_Zr10InNi2Bi5
_symmetry_space_group_name_H-M   'P 1'
_cell_length_a   8.78214637
_cell_length_b   8.78214644
_cell_length_c   5.87653564
_cell_angle_alpha   90.00000000
_cell_angle_beta   90.00000000
_cell_angle_gamma   120.21666004
_symmetry_Int_Tables_number   1
_chemical_formula_structural   Zr10InNi2Bi5
_chemical_formula_sum   'Zr10 In1 Ni2 Bi5'
_cell_volume   391.65263230
_cell_formula_units_Z   1
loop_
 _symmetry_equiv_pos_site_id
 _symmetry_equiv_pos_as_xyz
  1  'x, y, z'
loop_
 _atom_site_type_symbol
 _atom_site_label
 _atom_site_symmetry_multiplicity
 _atom_site_fract_x
 _atom_site_fract_y
 _atom_site_fract_z
 _atom_site_occupancy
  Zr  Zr0  1  0.74934523  0.74934523  0.75000000  1
  Zr  Zr1  1  0.25425355  0.00689157  0.75000000  1
  Zr  Zr2  1  0.00689157  0.25425355  0.75000000  1
  Zr  Zr3  1  0.24330647  0.24330647  0.25000000  1
  Zr  Zr4  1  0.75179419  0.99687954  0.25000000  1
  Zr  Zr5  1  0.99687954  0.75179419  0.25000000  1
  Zr  Zr6  1  0.66578029  0.33250875  0.99797121  1
  Zr  Zr7  1  0.33250875  0.66578029  0.99797121  1
  Zr  Zr8  1  0.33250875  0.66578029  0.50202879  1
  Zr  Zr9  1  0.66578029  0.33250875  0.50202879  1
  In  In0  1  0.39400070  0.39400070  0.75000000  1
  Ni  Ni0  1  0.00108467  0.00108467  0.99355590  1
  Ni  Ni1  1  0.00108467  0.00108467  0.50644410  1
  Bi  Bi0  1  0.61270459  0.00066395  0.75000000  1
  Bi  Bi1  1  0.00066395  0.61270459  0.75000000  1
  Bi  Bi2  1  0.60163460  0.60163460  0.25000000  1
  Bi  Bi3  1  0.39035391  0.99942126  0.25000000  1
  Bi  Bi4  1  0.99942126  0.39035391  0.25000000  1
loop_
_geom_bond_atom_site_label_1
_geom_bond_atom_site_label_2
_geom_bond_distance
_geom_bond_site_symmetry_2
Zr6 Zr9 2.914423 1_555
Zr6 Zr9 2.962112 1_556
Zr7 Zr8 2.914423 1_555
Zr7 Zr8 2.962112 1_556
In0 Zr2 2.977283 1_555
In0 Zr1 2.977283 1_555
In0 Zr9 3.067464 1_555
In0 Zr6 3.067464 1_555
In0 Zr8 3.067464 1_555
In0 Zr7 3.067464 1_555
In0 Zr0 3.110462 1_555
In0 Zr3 3.220776 1_555
In0 Zr3 3.220776 1_556
Ni0 Zr3 2.601259 1_556
Ni0 Zr1 2.623042 1_555
Ni0 Zr2 2.623042 1_555
Ni0 Zr0 2.627591 1_445
Ni0 Zr4 2.642745 1_446
Ni0 Zr5 2.642745 1_446
Ni1 Zr3 2.601259 1_555
Ni1 Zr1 2.623042 1_555
Ni1 Zr2 2.623042 1_555
Ni1 Zr0 2.627591 1_445
Ni1 Zr4 2.642745 1_445
Ni1 Zr5 2.642745 1_445
Bi0 Zr0 2.996203 1_545
Bi0 Zr2 3.030481 1_655
Bi0 Zr9 3.076789 1_555
Bi0 Zr6 3.076789 1_555
Bi0 Zr8 3.089297 1_545
Bi0 Zr7 3.089297 1_545
Bi0 Zr1 3.175846 1_555
Bi0 Zr4 3.188645 1_545
Bi0 Zr4 3.188645 1_546
Bi1 Zr0 2.996203 1_455
Bi1 Zr1 3.030481 1_565
Bi1 Zr8 3.076789 1_555
Bi1 Zr7 3.076789 1_555
Bi1 Zr6 3.089297 1_455
Bi1 Zr9 3.089297 1_455
Bi1 Zr2 3.175846 1_555
Bi1 Zr5 3.188645 1_455
Bi1 Zr5 3.188645 1_456
Bi2 Zr5 3.029883 1_555
Bi2 Zr4 3.029883 1_555
Bi2 Zr7 3.071999 1_554
Bi2 Zr8 3.071999 1_555
Bi2 Zr6 3.071999 1_554
Bi2 Zr9 3.071999 1_555
Bi2 Zr3 3.136579 1_555
Bi2 Zr0 3.210168 1_555
Bi2 Zr0 3.210168 1_554
Bi3 Zr3 3.006526 1_565
Bi3 Zr5 3.017647 1_455
Bi3 Zr6 3.078847 1_564
Bi3 Zr9 3.078847 1_565
Bi3 Zr7 3.088487 1_554
Bi3 Zr8 3.088487 1_555
Bi3 Zr1 3.185166 1_565
Bi3 Zr1 3.185166 1_564
Bi3 Zr4 3.185514 1_555
Bi4 Zr3 3.006526 1_655
Bi4 Zr4 3.017647 1_545
Bi4 Zr7 3.078847 1_654
Bi4 Zr8 3.078847 1_655
Bi4 Zr6 3.088487 1_554
Bi4 Zr9 3.088487 1_555
Bi4 Zr2 3.185166 1_654
Bi4 Zr2 3.185166 1_655
Bi4 Zr5 3.185514 1_555
