# generated using pymatgen
data_LiPb4BrO4
_symmetry_space_group_name_H-M   'P 1'
_cell_length_a   8.23067025
_cell_length_b   8.23067025
_cell_length_c   6.32433983
_cell_angle_alpha   90.00000000
_cell_angle_beta   90.00000000
_cell_angle_gamma   90.00000000
_symmetry_Int_Tables_number   1
_chemical_formula_structural   LiPb4BrO4
_chemical_formula_sum   'Li2 Pb8 Br2 O8'
_cell_volume   428.43565240
_cell_formula_units_Z   2
loop_
 _symmetry_equiv_pos_site_id
 _symmetry_equiv_pos_as_xyz
  1  'x, y, z'
loop_
 _atom_site_type_symbol
 _atom_site_label
 _atom_site_symmetry_multiplicity
 _atom_site_fract_x
 _atom_site_fract_y
 _atom_site_fract_z
 _atom_site_occupancy
  Li  Li0  1  0.50000000  0.00000000  0.99644975  1
  Li  Li1  1  0.00000000  0.50000000  0.00355025  1
  Pb  Pb0  1  0.19111704  0.14671461  0.22923435  1
  Pb  Pb1  1  0.35328539  0.69111704  0.22923435  1
  Pb  Pb2  1  0.64671461  0.30888296  0.22923435  1
  Pb  Pb3  1  0.30888296  0.35328539  0.77076565  1
  Pb  Pb4  1  0.14671461  0.80888296  0.77076565  1
  Pb  Pb5  1  0.85328539  0.19111704  0.77076565  1
  Pb  Pb6  1  0.80888296  0.85328539  0.22923435  1
  Pb  Pb7  1  0.69111704  0.64671461  0.77076565  1
  Br  Br0  1  0.00000000  0.50000000  0.43965819  1
  Br  Br1  1  0.50000000  0.00000000  0.56034181  1
  O  O0  1  0.73939649  0.08518629  0.06729902  1
  O  O1  1  0.41481371  0.23939649  0.06729902  1
  O  O2  1  0.26060351  0.91481371  0.06729902  1
  O  O3  1  0.58518629  0.76060351  0.06729902  1
  O  O4  1  0.91481371  0.73939649  0.93270098  1
  O  O5  1  0.23939649  0.58518629  0.93270098  1
  O  O6  1  0.08518629  0.26060351  0.93270098  1
  O  O7  1  0.76060351  0.41481371  0.93270098  1
loop_
_geom_bond_atom_site_label_1
_geom_bond_atom_site_label_2
_geom_bond_distance
_geom_bond_site_symmetry_2
Li0 O3 2.138883 1_546
Li0 O0 2.138883 1_556
Li0 O2 2.138883 1_546
Li0 O1 2.138883 1_556
Li1 O6 2.138883 1_554
Li1 O5 2.138883 1_554
Li1 O7 2.138883 1_454
Li1 O4 2.138883 1_454
Br0 Li1 2.758095 1_555
Br1 Li0 2.758095 1_555
O0 Pb6 2.240330 1_545
O0 Pb2 2.240689 1_555
O0 Pb5 2.270661 1_554
O1 Pb2 2.240330 1_555
O1 Pb0 2.240689 1_555
O1 Pb3 2.270661 1_554
O2 Pb0 2.240330 1_565
O2 Pb1 2.240689 1_555
O2 Pb4 2.270661 1_554
O3 Pb1 2.240330 1_555
O3 Pb6 2.240689 1_555
O3 Pb7 2.270661 1_554
O4 Pb4 2.240330 1_655
O4 Pb7 2.240689 1_555
O4 Pb6 2.270661 1_556
O5 Pb3 2.240330 1_555
O5 Pb4 2.240689 1_555
O5 Pb1 2.270661 1_556
O6 Pb5 2.240330 1_455
O6 Pb3 2.240689 1_555
O6 Pb0 2.270661 1_556
O7 Pb7 2.240330 1_555
O7 Pb5 2.240689 1_555
O7 Pb2 2.270661 1_556
