# generated using pymatgen
data_V(PtRh3)2
_symmetry_space_group_name_H-M   'P 1'
_cell_length_a   6.05415498
_cell_length_b   6.05415331
_cell_length_c   6.05415433
_cell_angle_alpha   95.86862397
_cell_angle_beta   95.49638301
_cell_angle_gamma   143.31857268
_symmetry_Int_Tables_number   1
_chemical_formula_structural   V(PtRh3)2
_chemical_formula_sum   'V1 Pt2 Rh6'
_cell_volume   125.82190603
_cell_formula_units_Z   1
loop_
 _symmetry_equiv_pos_site_id
 _symmetry_equiv_pos_as_xyz
  1  'x, y, z'
loop_
 _atom_site_type_symbol
 _atom_site_label
 _atom_site_symmetry_multiplicity
 _atom_site_fract_x
 _atom_site_fract_y
 _atom_site_fract_z
 _atom_site_occupancy
  V  V0  1  0.00000000  0.00000000  0.00000000  1
  Pt  Pt0  1  0.67104374  1.00000000  0.67104374  1
  Pt  Pt1  1  0.32895626  0.00000000  0.32895626  1
  Rh  Rh0  1  0.34016274  0.33892903  0.67909178  1
  Rh  Rh1  1  0.65983726  0.66107097  0.32090822  1
  Rh  Rh2  1  0.65983726  0.33892903  0.99876729  1
  Rh  Rh3  1  0.34016274  0.66107097  0.00123271  1
  Rh  Rh4  1  1.00000000  0.32549382  0.32549382  1
  Rh  Rh5  1  0.00000000  0.67450618  0.67450618  1
loop_
_geom_bond_atom_site_label_1
_geom_bond_atom_site_label_2
_geom_bond_distance
_geom_bond_site_symmetry_2
Pt0 V0 2.678200 1_666
Pt0 Rh3 2.689301 1_556
Pt0 Rh3 2.689303 1_666
Pt0 Rh0 2.689306 1_555
Pt0 Rh0 2.689307 1_665
Pt0 Rh1 2.751024 1_555
Pt0 Rh2 2.751028 1_565
Pt0 Rh5 2.751812 1_665
Pt0 Rh4 2.751813 1_455
Pt0 Rh4 2.751813 1_565
Pt0 Rh5 2.751813 1_555
Pt0 Pt1 2.785108 1_565
Pt1 V0 2.678200 1_555
Pt1 Rh2 2.689301 1_554
Pt1 Rh2 2.689303 1_444
Pt1 Rh1 2.689306 1_555
Pt1 Rh1 2.689307 1_445
Pt1 Rh0 2.751024 1_555
Pt1 Rh3 2.751028 1_545
Pt1 Rh4 2.751812 1_445
Pt1 Rh5 2.751813 1_655
Pt1 Rh5 2.751813 1_545
Pt1 Rh4 2.751813 1_555
Rh0 Rh2 2.602637 1_555
Rh0 Rh3 2.613324 1_556
Rh0 V0 2.651411 1_666
Rh0 V0 2.651412 1_556
Rh0 Rh5 2.664916 1_545
Rh0 Rh5 2.664918 1_655
Rh0 Rh4 2.771582 1_455
Rh0 Rh1 2.804706 1_445
Rh0 Rh1 2.804706 1_555
Rh1 Rh3 2.602637 1_555
Rh1 Rh2 2.613324 1_554
Rh1 V0 2.651411 1_555
Rh1 V0 2.651412 1_665
Rh1 Rh4 2.664916 1_565
Rh1 Rh4 2.664918 1_455
Rh1 Rh5 2.771582 1_655
Rh2 V0 2.651411 1_556
Rh2 V0 2.651412 1_666
Rh2 Rh5 2.664920 1_545
Rh2 Rh5 2.664923 1_655
Rh2 Rh4 2.771578 1_556
Rh2 Rh3 2.804703 1_546
Rh2 Rh3 2.804709 1_656
Rh3 V0 2.651411 1_665
Rh3 V0 2.651412 1_555
Rh3 Rh4 2.664920 1_565
Rh3 Rh4 2.664923 1_455
Rh3 Rh5 2.771578 1_554
Rh4 V0 2.640520 1_655
Rh4 Rh5 2.831310 1_655
Rh5 V0 2.640520 1_566
