# generated using pymatgen
data_Ca2TaH9
_symmetry_space_group_name_H-M   'P 1'
_cell_length_a   8.72887453
_cell_length_b   8.72887508
_cell_length_c   5.03722770
_cell_angle_alpha   90.00000000
_cell_angle_beta   90.00000000
_cell_angle_gamma   119.99999795
_symmetry_Int_Tables_number   1
_chemical_formula_structural   Ca2TaH9
_chemical_formula_sum   'Ca6 Ta3 H27'
_cell_volume   332.38296119
_cell_formula_units_Z   3
loop_
 _symmetry_equiv_pos_site_id
 _symmetry_equiv_pos_as_xyz
  1  'x, y, z'
loop_
 _atom_site_type_symbol
 _atom_site_label
 _atom_site_symmetry_multiplicity
 _atom_site_fract_x
 _atom_site_fract_y
 _atom_site_fract_z
 _atom_site_occupancy
  Ca  Ca0  1  0.26480954  0.00000000  0.50000000  1
  Ca  Ca1  1  1.00000000  0.26480954  0.50000000  1
  Ca  Ca2  1  0.73519046  0.73519046  0.50000000  1
  Ca  Ca3  1  0.60093290  0.00000000  0.00000000  1
  Ca  Ca4  1  1.00000000  0.60093290  0.00000000  1
  Ca  Ca5  1  0.39906710  0.39906710  0.00000000  1
  Ta  Ta0  1  0.00000000  0.00000000  0.00000000  1
  Ta  Ta1  1  0.33333300  0.66666700  0.50000000  1
  Ta  Ta2  1  0.66666700  0.33333300  0.50000000  1
  H  H0  1  0.84760239  0.00000000  0.25467507  1
  H  H1  1  0.00000000  0.84760239  0.25467507  1
  H  H2  1  0.84760239  0.00000000  0.74532493  1
  H  H3  1  0.00000000  0.84760239  0.74532493  1
  H  H4  1  0.15239761  0.15239761  0.25467507  1
  H  H5  1  0.15239761  0.15239761  0.74532493  1
  H  H6  1  0.21012070  0.00000000  0.00000000  1
  H  H7  1  1.00000000  0.21012070  0.00000000  1
  H  H8  1  0.78987930  0.78987930  0.00000000  1
  H  H9  1  0.17728110  0.52101620  0.23960627  1
  H  H10  1  0.47898380  0.65626390  0.23960627  1
  H  H11  1  0.17728110  0.52101620  0.76039373  1
  H  H12  1  0.52101620  0.17728110  0.76039373  1
  H  H13  1  0.34373610  0.82271890  0.23960627  1
  H  H14  1  0.47898380  0.65626390  0.76039373  1
  H  H15  1  0.65626390  0.47898380  0.76039373  1
  H  H16  1  0.52101620  0.17728110  0.23960627  1
  H  H17  1  0.34373610  0.82271890  0.76039373  1
  H  H18  1  0.65626390  0.47898380  0.23960627  1
  H  H19  1  0.82271890  0.34373610  0.76039373  1
  H  H20  1  0.82271890  0.34373610  0.23960627  1
  H  H21  1  0.30907201  0.44783677  0.50000000  1
  H  H22  1  0.55216323  0.86123523  0.50000000  1
  H  H23  1  0.44783677  0.30907201  0.50000000  1
  H  H24  1  0.13876477  0.69092799  0.50000000  1
  H  H25  1  0.86123523  0.55216323  0.50000000  1
  H  H26  1  0.69092799  0.13876477  0.50000000  1
loop_
_geom_bond_atom_site_label_1
_geom_bond_atom_site_label_2
_geom_bond_distance
_geom_bond_site_symmetry_2
Ca0 H24 2.349606 1_545
Ca0 H23 2.349606 1_555
Ca0 H5 2.358981 1_555
Ca0 H4 2.358981 1_555
Ca0 H3 2.358981 1_545
Ca0 H1 2.358981 1_545
Ca0 H12 2.378199 1_555
Ca0 H16 2.378199 1_555
Ca0 H17 2.378204 1_545
Ca0 H13 2.378204 1_545
Ca0 H6 2.563455 1_555
Ca0 H6 2.563455 1_556
Ca1 H26 2.349606 1_555
Ca1 H21 2.349606 1_655
Ca1 H5 2.358981 1_655
Ca1 H4 2.358981 1_655
Ca1 H2 2.358981 1_555
Ca1 H0 2.358981 1_555
Ca1 H11 2.378199 1_655
Ca1 H9 2.378199 1_655
Ca1 H19 2.378204 1_555
Ca1 H20 2.378204 1_555
Ca1 H7 2.563455 1_555
Ca1 H7 2.563455 1_556
Ca2 H22 2.349606 1_555
Ca2 H25 2.349606 1_555
Ca2 H3 2.358981 1_655
Ca2 H1 2.358981 1_655
Ca2 H2 2.358981 1_565
Ca2 H0 2.358981 1_565
Ca2 H14 2.378197 1_555
Ca2 H10 2.378197 1_555
Ca2 H15 2.378197 1_555
Ca2 H18 2.378197 1_555
Ca2 H8 2.563455 1_556
Ca2 H8 2.563455 1_555
Ca3 H13 2.327544 1_545
Ca3 H17 2.327544 1_544
Ca3 H16 2.327549 1_555
Ca3 H12 2.327549 1_554
Ca3 H0 2.506344 1_555
Ca3 H2 2.506344 1_554
Ca4 H20 2.327544 1_555
Ca4 H19 2.327544 1_554
Ca4 H9 2.327549 1_655
Ca4 H11 2.327549 1_654
Ca4 H1 2.506345 1_655
Ca4 H3 2.506345 1_654
Ca5 H18 2.327542 1_555
Ca5 H15 2.327542 1_554
Ca5 H10 2.327542 1_555
Ca5 H14 2.327542 1_554
Ca5 H4 2.506345 1_555
Ca5 H5 2.506345 1_554
H0 Ta0 1.848056 1_655
H1 Ta0 1.848056 1_565
H2 Ta0 1.848056 1_656
H3 Ta0 1.848056 1_566
H4 Ta0 1.848056 1_555
H5 Ta0 1.848056 1_556
H6 Ta0 1.834117 1_555
H7 Ta0 1.834117 1_655
H8 Ta0 1.834117 1_665
H9 Ta1 1.860243 1_555
H10 Ta1 1.860250 1_555
H11 Ta1 1.860243 1_555
H12 Ta2 1.860243 1_555
H13 Ta1 1.860238 1_555
H14 Ta1 1.860250 1_555
H15 Ta2 1.860250 1_555
H16 Ta2 1.860243 1_555
H17 Ta1 1.860238 1_555
H18 Ta2 1.860250 1_555
H19 Ta2 1.860237 1_555
H20 Ta2 1.860237 1_555
H21 Ta1 1.813553 1_555
H22 Ta1 1.813550 1_555
H23 Ta2 1.813553 1_555
H24 Ta1 1.813544 1_555
H25 Ta2 1.813550 1_555
H26 Ta2 1.813545 1_555
