# generated using pymatgen
data_SrCd(Pd3O4)2
_symmetry_space_group_name_H-M   'P 1'
_cell_length_a   5.80473233
_cell_length_b   5.80473233
_cell_length_c   5.80473233
_cell_angle_alpha   90.00000000
_cell_angle_beta   90.00000000
_cell_angle_gamma   90.00000000
_symmetry_Int_Tables_number   1
_chemical_formula_structural   SrCd(Pd3O4)2
_chemical_formula_sum   'Sr1 Cd1 Pd6 O8'
_cell_volume   195.58997699
_cell_formula_units_Z   1
loop_
 _symmetry_equiv_pos_site_id
 _symmetry_equiv_pos_as_xyz
  1  'x, y, z'
loop_
 _atom_site_type_symbol
 _atom_site_label
 _atom_site_symmetry_multiplicity
 _atom_site_fract_x
 _atom_site_fract_y
 _atom_site_fract_z
 _atom_site_occupancy
  Sr  Sr0  1  0.00000000  0.00000000  0.00000000  1
  Cd  Cd0  1  0.50000000  0.50000000  0.50000000  1
  Pd  Pd0  1  0.74711037  0.00000000  0.50000000  1
  Pd  Pd1  1  0.00000000  0.50000000  0.25288963  1
  Pd  Pd2  1  0.00000000  0.50000000  0.74711037  1
  Pd  Pd3  1  0.25288963  0.00000000  0.50000000  1
  Pd  Pd4  1  0.50000000  0.74711037  0.00000000  1
  Pd  Pd5  1  0.50000000  0.25288963  0.00000000  1
  O  O0  1  0.74389365  0.25610635  0.25610635  1
  O  O1  1  0.25610635  0.25610635  0.74389365  1
  O  O2  1  0.25610635  0.74389365  0.25610635  1
  O  O3  1  0.74389365  0.74389365  0.74389365  1
  O  O4  1  0.25610635  0.25610635  0.25610635  1
  O  O5  1  0.74389365  0.74389365  0.25610635  1
  O  O6  1  0.74389365  0.25610635  0.74389365  1
  O  O7  1  0.25610635  0.74389365  0.74389365  1
loop_
_geom_bond_atom_site_label_1
_geom_bond_atom_site_label_2
_geom_bond_distance
_geom_bond_site_symmetry_2
Cd0 O3 2.452129 1_555
Cd0 O5 2.452129 1_555
Cd0 O6 2.452129 1_555
Cd0 O7 2.452129 1_555
Cd0 O2 2.452129 1_555
Cd0 O0 2.452129 1_555
Cd0 O1 2.452129 1_555
Cd0 O4 2.452129 1_555
O0 Pd5 2.052980 1_555
O0 Pd0 2.052980 1_555
O0 Pd1 2.052980 1_655
O0 Sr0 2.574917 1_655
O1 Pd3 2.052980 1_555
O1 Pd2 2.052980 1_555
O1 Pd5 2.052980 1_556
O1 Sr0 2.574917 1_556
O2 Pd1 2.052980 1_555
O2 Pd4 2.052980 1_555
O2 Pd3 2.052980 1_565
O2 Sr0 2.574917 1_565
O3 Pd2 2.052980 1_655
O3 Pd4 2.052980 1_556
O3 Pd0 2.052980 1_565
O3 Sr0 2.574917 1_666
O4 Pd1 2.052980 1_555
O4 Pd3 2.052980 1_555
O4 Pd5 2.052980 1_555
O4 Sr0 2.574917 1_555
O5 Pd4 2.052980 1_555
O5 Pd1 2.052980 1_655
O5 Pd0 2.052980 1_565
O5 Sr0 2.574917 1_665
O6 Pd0 2.052980 1_555
O6 Pd5 2.052980 1_556
O6 Pd2 2.052980 1_655
O6 Sr0 2.574917 1_656
O7 Pd2 2.052980 1_555
O7 Pd3 2.052980 1_565
O7 Pd4 2.052980 1_556
O7 Sr0 2.574917 1_566
