# generated using pymatgen
data_Be3V2Si
_symmetry_space_group_name_H-M   'P 1'
_cell_length_a   4.37722131
_cell_length_b   4.37722119
_cell_length_c   7.32469181
_cell_angle_alpha   90.00000000
_cell_angle_beta   90.00000000
_cell_angle_gamma   120.00000087
_symmetry_Int_Tables_number   1
_chemical_formula_structural   Be3V2Si
_chemical_formula_sum   'Be6 V4 Si2'
_cell_volume   121.53937053
_cell_formula_units_Z   2
loop_
 _symmetry_equiv_pos_site_id
 _symmetry_equiv_pos_as_xyz
  1  'x, y, z'
loop_
 _atom_site_type_symbol
 _atom_site_label
 _atom_site_symmetry_multiplicity
 _atom_site_fract_x
 _atom_site_fract_y
 _atom_site_fract_z
 _atom_site_occupancy
  Be  Be0  1  0.82563974  0.65128047  0.25000000  1
  Be  Be1  1  0.17436026  0.82563974  0.75000000  1
  Be  Be2  1  0.65128047  0.82563974  0.75000000  1
  Be  Be3  1  0.34871953  0.17436026  0.25000000  1
  Be  Be4  1  0.82563974  0.17436026  0.25000000  1
  Be  Be5  1  0.17436026  0.34871953  0.75000000  1
  V  V0  1  0.33333300  0.66666700  0.06154578  1
  V  V1  1  0.66666700  0.33333300  0.56154578  1
  V  V2  1  0.66666700  0.33333300  0.93845422  1
  V  V3  1  0.33333300  0.66666700  0.43845422  1
  Si  Si0  1  0.00000000  0.00000000  0.00000000  1
  Si  Si1  1  0.00000000  0.00000000  0.50000000  1
loop_
_geom_bond_atom_site_label_1
_geom_bond_atom_site_label_2
_geom_bond_distance
_geom_bond_site_symmetry_2
Be0 Be3 2.087585 1_555
Be0 Be4 2.087585 1_555
Be0 Si1 2.258466 1_665
Be0 Si0 2.258466 1_665
Be0 Be4 2.289636 1_565
Be0 Be3 2.289636 1_665
Be0 V1 2.580716 1_555
Be0 V2 2.580716 1_554
Be0 V3 2.588211 1_555
Be0 V0 2.588211 1_555
Be0 V3 2.588211 1_655
Be0 V0 2.588211 1_655
Be1 Be5 2.087585 1_555
Be1 Be2 2.087585 1_555
Be1 Si0 2.258468 1_566
Be1 Si1 2.258468 1_565
Be1 Be5 2.289636 1_565
Be1 Be2 2.289636 1_455
Be1 V0 2.580712 1_556
Be1 V3 2.580712 1_555
Be1 V2 2.588211 1_565
Be1 V1 2.588211 1_565
Be1 V2 2.588211 1_455
Be1 V1 2.588211 1_455
Be2 Be5 2.087585 1_555
Be2 Si1 2.258466 1_665
Be2 Si0 2.258466 1_666
Be2 Be5 2.289636 1_665
Be2 V0 2.580716 1_556
Be2 V3 2.580716 1_555
Be2 V2 2.588211 1_565
Be2 V1 2.588211 1_565
Be2 V2 2.588211 1_555
Be2 V1 2.588211 1_555
Be3 Be4 2.087585 1_555
Be3 Si1 2.258466 1_555
Be3 Si0 2.258466 1_555
Be3 Be4 2.289636 1_455
Be3 V1 2.580716 1_555
Be3 V2 2.580716 1_554
Be3 V3 2.588211 1_545
Be3 V0 2.588211 1_545
Be3 V3 2.588211 1_555
Be3 V0 2.588211 1_555
Be4 Si0 2.258468 1_655
Be4 Si1 2.258468 1_655
Be4 V1 2.580712 1_555
Be4 V2 2.580712 1_554
Be4 V3 2.588211 1_545
Be4 V0 2.588211 1_545
Be4 V3 2.588211 1_655
Be4 V0 2.588211 1_655
Be5 Si0 2.258466 1_556
Be5 Si1 2.258466 1_555
Be5 V0 2.580716 1_556
Be5 V3 2.580716 1_555
Be5 V2 2.588211 1_555
Be5 V1 2.588211 1_555
Be5 V2 2.588211 1_455
Be5 V1 2.588211 1_455
V0 V2 2.683202 1_564
V0 V2 2.683202 1_454
V0 V2 2.683209 1_554
V0 V3 2.760738 1_555
V1 V3 2.683202 1_545
V1 V3 2.683202 1_655
V1 V3 2.683209 1_555
V1 V2 2.760738 1_555
Si0 V0 2.567080 1_545
Si0 V2 2.567080 1_454
Si0 V0 2.567084 1_555
Si0 V2 2.567084 1_444
Si0 V2 2.567084 1_554
Si0 V0 2.567084 1_445
Si1 V1 2.567080 1_455
Si1 V3 2.567080 1_545
Si1 V3 2.567084 1_555
Si1 V1 2.567084 1_445
Si1 V1 2.567084 1_555
Si1 V3 2.567084 1_445
