# generated using pymatgen
data_Y2Si2Rh
_symmetry_space_group_name_H-M   'P 1'
_cell_length_a   4.19783053
_cell_length_b   5.71336551
_cell_length_c   9.05872712
_cell_angle_alpha   82.63402554
_cell_angle_beta   76.60276404
_cell_angle_gamma   68.44653289
_symmetry_Int_Tables_number   1
_chemical_formula_structural   Y2Si2Rh
_chemical_formula_sum   'Y4 Si4 Rh2'
_cell_volume   196.34818596
_cell_formula_units_Z   2
loop_
 _symmetry_equiv_pos_site_id
 _symmetry_equiv_pos_as_xyz
  1  'x, y, z'
loop_
 _atom_site_type_symbol
 _atom_site_label
 _atom_site_symmetry_multiplicity
 _atom_site_fract_x
 _atom_site_fract_y
 _atom_site_fract_z
 _atom_site_occupancy
  Y  Y0  1  0.99682567  0.32883941  0.67751025  1
  Y  Y1  1  0.81392488  0.26757230  0.10457794  1
  Y  Y2  1  0.00317433  0.67116059  0.32248975  1
  Y  Y3  1  0.18607512  0.73242770  0.89542206  1
  Si  Si0  1  0.64239620  0.28016917  0.43503842  1
  Si  Si1  1  0.50617217  0.86486281  0.12279386  1
  Si  Si2  1  0.35760380  0.71983083  0.56496158  1
  Si  Si3  1  0.49382783  0.13513719  0.87720614  1
  Rh  Rh0  1  0.27148372  0.07794740  0.37908716  1
  Rh  Rh1  1  0.72851628  0.92205260  0.62091284  1
loop_
_geom_bond_atom_site_label_1
_geom_bond_atom_site_label_2
_geom_bond_distance
_geom_bond_site_symmetry_2
Si0 Si2 2.650261 1_555
Si0 Y1 2.916042 1_555
Si0 Y0 3.015046 1_455
Si0 Y0 3.015049 1_555
Si0 Y2 3.083759 1_655
Si0 Y2 3.083762 1_555
Si1 Si3 2.539738 1_564
Si1 Y2 2.896402 1_655
Si1 Y2 2.896408 1_555
Si1 Y1 2.996304 1_565
Si1 Y1 2.996307 1_465
Si1 Y3 3.008254 1_654
Si1 Y3 3.008258 1_554
Si1 Y1 3.185600 1_555
Si2 Y3 2.916042 1_555
Si2 Y2 3.015046 1_655
Si2 Y2 3.015049 1_555
Si2 Y0 3.083759 1_455
Si2 Y0 3.083762 1_555
Si3 Y0 2.896402 1_455
Si3 Y0 2.896408 1_555
Si3 Y3 2.996304 1_545
Si3 Y3 2.996307 1_645
Si3 Y1 3.008254 1_456
Si3 Y1 3.008258 1_556
Si3 Y3 3.185600 1_555
Rh0 Si0 2.419444 1_555
Rh0 Si0 2.419452 1_455
Rh0 Si2 2.450997 1_545
Rh0 Si1 2.574208 1_545
Rh0 Y0 3.004504 1_455
Rh0 Y2 3.070733 1_645
Rh0 Y2 3.070741 1_545
Rh0 Y2 3.167917 1_555
Rh0 Y1 3.322699 1_555
Rh0 Y1 3.322705 1_455
Rh1 Si2 2.419444 1_555
Rh1 Si2 2.419452 1_655
Rh1 Si0 2.450997 1_565
Rh1 Si3 2.574208 1_565
Rh1 Y2 3.004504 1_655
Rh1 Y0 3.070733 1_465
Rh1 Y0 3.070741 1_565
Rh1 Y0 3.167917 1_555
Rh1 Y3 3.322699 1_555
Rh1 Y3 3.322705 1_655
