# generated using pymatgen
data_Y2VRu3
_symmetry_space_group_name_H-M   'P 1'
_cell_length_a   5.07922245
_cell_length_b   5.07922323
_cell_length_c   5.07922401
_cell_angle_alpha   66.96710479
_cell_angle_beta   66.96709485
_cell_angle_gamma   66.96710483
_symmetry_Int_Tables_number   1
_chemical_formula_structural   Y2VRu3
_chemical_formula_sum   'Y2 V1 Ru3'
_cell_volume   106.49792145
_cell_formula_units_Z   1
loop_
 _symmetry_equiv_pos_site_id
 _symmetry_equiv_pos_as_xyz
  1  'x, y, z'
loop_
 _atom_site_type_symbol
 _atom_site_label
 _atom_site_symmetry_multiplicity
 _atom_site_fract_x
 _atom_site_fract_y
 _atom_site_fract_z
 _atom_site_occupancy
  Y  Y0  1  0.12932944  0.12932944  0.12932944  1
  Y  Y1  1  0.87067056  0.87067056  0.87067056  1
  V  V0  1  0.50000000  0.50000000  0.50000000  1
  Ru  Ru0  1  0.50000000  0.00000000  0.50000000  1
  Ru  Ru1  1  0.00000000  0.50000000  0.50000000  1
  Ru  Ru2  1  0.50000000  0.50000000  0.00000000  1
loop_
_geom_bond_atom_site_label_1
_geom_bond_atom_site_label_2
_geom_bond_distance
_geom_bond_site_symmetry_2
Y0 Y1 3.038102 1_444
Y0 Y1 3.352465 1_544
Y0 Y1 3.352466 1_454
Y0 Y1 3.352466 1_445
V0 Y1 3.265280 1_455
V0 Y0 3.265280 1_655
V0 Y1 3.265280 1_554
V0 Y0 3.265280 1_556
V0 Y1 3.265280 1_545
V0 Y0 3.265280 1_565
Ru0 V0 2.539612 1_555
Ru0 V0 2.539612 1_545
Ru0 Ru1 2.802195 1_645
Ru0 Ru1 2.802195 1_555
Ru0 Ru2 2.802195 1_546
Ru0 Ru2 2.802195 1_555
Ru0 Y1 2.891186 1_545
Ru0 Y0 2.891186 1_555
Ru0 Y0 3.187446 1_655
Ru0 Y1 3.187446 1_445
Ru0 Y0 3.187446 1_556
Ru0 Y1 3.187446 1_544
Ru1 V0 2.539611 1_455
Ru1 V0 2.539611 1_555
Ru1 Ru2 2.802195 1_555
Ru1 Ru2 2.802195 1_456
Ru1 Y1 2.891186 1_455
Ru1 Y0 2.891186 1_555
Ru1 Y0 3.187446 1_565
Ru1 Y1 3.187446 1_445
Ru1 Y0 3.187447 1_556
Ru1 Y1 3.187447 1_454
Ru2 V0 2.539612 1_555
Ru2 V0 2.539612 1_554
Ru2 Y1 2.891185 1_554
Ru2 Y0 2.891185 1_555
Ru2 Y0 3.187446 1_655
Ru2 Y1 3.187446 1_454
Ru2 Y0 3.187446 1_565
Ru2 Y1 3.187446 1_544
