# generated using pymatgen
data_Cs4TaGaAs4
_symmetry_space_group_name_H-M   'P 1'
_cell_length_a   8.95553419
_cell_length_b   8.95553510
_cell_length_c   8.95553388
_cell_angle_alpha   138.38329059
_cell_angle_beta   127.13272165
_cell_angle_gamma   69.43512308
_symmetry_Int_Tables_number   1
_chemical_formula_structural   Cs4TaGaAs4
_chemical_formula_sum   'Cs4 Ta1 Ga1 As4'
_cell_volume   373.45061480
_cell_formula_units_Z   1
loop_
 _symmetry_equiv_pos_site_id
 _symmetry_equiv_pos_as_xyz
  1  'x, y, z'
loop_
 _atom_site_type_symbol
 _atom_site_label
 _atom_site_symmetry_multiplicity
 _atom_site_fract_x
 _atom_site_fract_y
 _atom_site_fract_z
 _atom_site_occupancy
  Cs  Cs0  1  0.99456959  0.14312229  0.83742922  1
  Cs  Cs1  1  0.00543041  0.84285963  0.14855269  1
  Cs  Cs2  1  0.69430693  0.35687771  0.35144731  1
  Cs  Cs3  1  0.30569307  0.65714037  0.66257078  1
  Ta  Ta0  1  0.50000000  0.25000000  0.75000000  1
  Ga  Ga0  1  0.50000000  0.75000000  0.25000000  1
  As  As0  1  0.23546292  0.40151165  0.82520300  1
  As  As1  1  0.76453708  0.58974008  0.16604873  1
  As  As2  1  0.42369135  0.09848835  0.33395127  1
  As  As3  1  0.57630865  0.91025992  0.67479700  1
loop_
_geom_bond_atom_site_label_1
_geom_bond_atom_site_label_2
_geom_bond_distance
_geom_bond_site_symmetry_2
As0 Ta0 2.491750 1_555
As0 Ga0 2.527034 1_556
As0 Cs1 3.552479 1_556
As0 Cs1 3.582381 1_545
As0 Cs0 3.767209 1_455
As0 Cs3 3.854947 1_555
As0 Cs2 3.955763 1_455
As1 Ta0 2.491750 1_554
As1 Ga0 2.527035 1_555
As1 Cs0 3.552478 1_565
As1 Cs0 3.582381 1_554
As1 Cs1 3.767209 1_655
As1 Cs2 3.854947 1_555
As1 Cs3 3.955763 1_655
As2 Ta0 2.491749 1_555
As2 Ga0 2.527035 1_545
As2 Cs3 3.552478 1_544
As2 Cs3 3.582381 1_555
As2 Cs2 3.767209 1_555
As2 Cs1 3.854947 1_545
As2 Cs0 3.955763 1_454
As3 Ta0 2.491750 1_565
As3 Ga0 2.527034 1_555
As3 Cs2 3.552479 1_555
As3 Cs2 3.582380 1_566
As3 Cs3 3.767209 1_555
As3 Cs0 3.854947 1_565
As3 Cs1 3.955763 1_656
