# generated using pymatgen
data_CuB2Ir2Pd
_symmetry_space_group_name_H-M   'P 1'
_cell_length_a   6.65736545
_cell_length_b   6.00085930
_cell_length_c   5.46161821
_cell_angle_alpha   70.83494397
_cell_angle_beta   58.36740233
_cell_angle_gamma   51.29211572
_symmetry_Int_Tables_number   1
_chemical_formula_structural   CuB2Ir2Pd
_chemical_formula_sum   'Cu2 B4 Ir4 Pd2'
_cell_volume   144.96785235
_cell_formula_units_Z   2
loop_
 _symmetry_equiv_pos_site_id
 _symmetry_equiv_pos_as_xyz
  1  'x, y, z'
loop_
 _atom_site_type_symbol
 _atom_site_label
 _atom_site_symmetry_multiplicity
 _atom_site_fract_x
 _atom_site_fract_y
 _atom_site_fract_z
 _atom_site_occupancy
  Cu  Cu0  1  0.93561579  0.80180441  0.38443451  1
  Cu  Cu1  1  0.44819559  0.31438421  0.37185572  1
  B  B0  1  0.05199082  0.98599182  0.57129609  1
  B  B1  1  0.69091525  0.83864431  0.19535132  1
  B  B2  1  0.41135569  0.55908475  0.97490988  1
  B  B3  1  0.26400818  0.19800918  0.85927874  1
  Ir  Ir0  1  0.10370612  0.63551605  0.86976254  1
  Ir  Ir1  1  0.37891613  0.84111957  0.16043564  1
  Ir  Ir2  1  0.61448395  0.14629388  0.85898470  1
  Ir  Ir3  1  0.40888043  0.87108387  0.63047134  1
  Pd  Pd0  1  0.85512598  0.35799392  0.30244980  1
  Pd  Pd1  1  0.89200608  0.39487402  0.76556770  1
loop_
_geom_bond_atom_site_label_1
_geom_bond_atom_site_label_2
_geom_bond_distance
_geom_bond_site_symmetry_2
Cu0 Pd1 2.701051 1_555
Cu1 Pd0 2.701053 1_555
B0 Ir1 2.078365 1_555
B0 Ir2 2.136670 1_465
B0 Ir0 2.152004 1_555
B0 Ir3 2.198894 1_555
B0 Pd0 2.250390 1_465
B0 Cu0 2.346158 1_455
B0 Pd1 2.352878 1_465
B1 Ir0 2.075498 1_654
B1 Ir3 2.092137 1_555
B1 Ir2 2.149642 1_564
B1 Ir1 2.173920 1_555
B1 Cu0 2.221154 1_555
B1 Pd0 2.340060 1_555
B1 Cu1 2.468593 1_565
B2 Ir2 2.075496 1_555
B2 Ir1 2.092141 1_556
B2 Ir0 2.149638 1_555
B2 Ir3 2.173917 1_555
B2 Cu1 2.221163 1_556
B2 Pd1 2.340059 1_555
B2 Cu0 2.468593 1_456
B3 Ir3 2.078365 1_545
B3 Ir0 2.136670 1_555
B3 Ir2 2.152004 1_555
B3 Ir1 2.198894 1_546
B3 Pd1 2.250397 1_455
B3 Cu1 2.346154 1_555
B3 Pd0 2.352884 1_456
