# generated using pymatgen
data_Ta8ReOs4W3
_symmetry_space_group_name_H-M   'P 1'
_cell_length_a   6.39102422
_cell_length_b   4.52184463
_cell_length_c   9.03671975
_cell_angle_alpha   90.00000000
_cell_angle_beta   90.00001870
_cell_angle_gamma   90.00000000
_symmetry_Int_Tables_number   1
_chemical_formula_structural   Ta8ReOs4W3
_chemical_formula_sum   'Ta8 Re1 Os4 W3'
_cell_volume   261.15413843
_cell_formula_units_Z   1
loop_
 _symmetry_equiv_pos_site_id
 _symmetry_equiv_pos_as_xyz
  1  'x, y, z'
loop_
 _atom_site_type_symbol
 _atom_site_label
 _atom_site_symmetry_multiplicity
 _atom_site_fract_x
 _atom_site_fract_y
 _atom_site_fract_z
 _atom_site_occupancy
  Ta  Ta0  1  0.99990000  0.75000100  0.12528401  1
  Ta  Ta1  1  0.50014326  0.75000100  0.12528311  1
  Ta  Ta2  1  0.99980248  0.25000000  0.37500689  1
  Ta  Ta3  1  0.50021886  0.25000000  0.37500289  1
  Ta  Ta4  1  0.50010463  0.75000100  0.62471536  1
  Ta  Ta5  1  0.99986154  0.75000100  0.62471519  1
  Ta  Ta6  1  0.50025296  0.25000000  0.87500035  1
  Ta  Ta7  1  0.99971441  0.25000000  0.87500028  1
  Re  Re0  1  0.24996036  0.75000100  0.87499004  1
  Os  Os0  1  0.25001641  0.25000000  0.12348831  1
  Os  Os1  1  0.75001363  0.75000100  0.37500509  1
  Os  Os2  1  0.24999223  0.25000000  0.62650851  1
  Os  Os3  1  0.74998557  0.75000100  0.87499919  1
  W  W0  1  0.75000737  0.25000000  0.12416615  1
  W  W1  1  0.25003503  0.75000100  0.37500537  1
  W  W2  1  0.74999327  0.25000000  0.62582926  1
loop_
_geom_bond_atom_site_label_1
_geom_bond_atom_site_label_2
_geom_bond_distance
_geom_bond_site_symmetry_2
Ta0 W1 2.765520 1_655
Ta0 W0 2.768119 1_565
Ta0 W0 2.768126 1_555
Ta1 W1 2.765429 1_555
Ta1 W0 2.768014 1_565
Ta1 W0 2.768021 1_555
Ta2 W1 2.769355 1_645
Ta2 W1 2.769362 1_655
Ta2 W2 2.772446 1_555
Ta2 W0 2.772529 1_555
Ta3 W1 2.769175 1_545
Ta3 W1 2.769182 1_555
Ta3 W2 2.772347 1_555
Ta3 W0 2.772476 1_555
Ta4 W1 2.765195 1_555
Ta4 W2 2.768104 1_565
Ta4 W2 2.768112 1_555
Ta5 W1 2.765578 1_655
Ta5 W2 2.768029 1_565
Ta5 W2 2.768037 1_555
Ta6 W2 2.760006 1_555
Ta6 W0 2.760018 1_556
Ta7 W0 2.759844 1_556
Ta7 W2 2.759933 1_555
Re0 Ta7 2.769404 1_465
Re0 Ta7 2.769411 1_455
Re0 Ta5 2.769470 1_455
Re0 Ta0 2.769470 1_456
Re0 Ta6 2.769576 1_565
Re0 Ta6 2.769584 1_555
Re0 Ta4 2.769637 1_555
Re0 Ta1 2.769915 1_556
Os0 Ta6 2.756810 1_554
Os0 Ta7 2.757052 1_454
Os0 Ta0 2.768974 1_445
Os0 Ta0 2.768981 1_455
Os0 Ta1 2.769012 1_545
Os0 Ta1 2.769020 1_555
Os0 Ta3 2.779007 1_555
Os0 Ta2 2.779080 1_455
Os1 Ta5 2.764377 1_555
Os1 Ta1 2.764548 1_555
Os1 Ta0 2.764601 1_555
Os1 Ta4 2.764605 1_555
Os1 Ta2 2.767718 1_565
Os1 Ta2 2.767725 1_555
Os1 Ta3 2.767740 1_565
Os1 Ta3 2.767747 1_555
Os2 Ta6 2.756928 1_555
Os2 Ta7 2.756991 1_455
Os2 Ta4 2.768959 1_545
Os2 Ta4 2.768966 1_555
Os2 Ta5 2.769026 1_445
Os2 Ta5 2.769034 1_455
Os2 Ta2 2.778865 1_455
Os2 Ta3 2.779031 1_555
Os3 Ta7 2.767497 1_565
Os3 Ta7 2.767504 1_555
Os3 Ta6 2.767511 1_565
Os3 Ta6 2.767518 1_555
Os3 Ta1 2.768592 1_556
Os3 Ta5 2.768716 1_555
Os3 Ta4 2.768733 1_555
Os3 Ta0 2.768864 1_556
