# generated using pymatgen
data_CsTiNbO5
_symmetry_space_group_name_H-M   'P 1'
_cell_length_a   3.84910923
_cell_length_b   6.51619520
_cell_length_c   20.01247831
_cell_angle_alpha   90.00000000
_cell_angle_beta   90.00000000
_cell_angle_gamma   90.00000000
_symmetry_Int_Tables_number   1
_chemical_formula_structural   CsTiNbO5
_chemical_formula_sum   'Cs4 Ti4 Nb4 O20'
_cell_volume   501.94391687
_cell_formula_units_Z   4
loop_
 _symmetry_equiv_pos_site_id
 _symmetry_equiv_pos_as_xyz
  1  'x, y, z'
loop_
 _atom_site_type_symbol
 _atom_site_label
 _atom_site_symmetry_multiplicity
 _atom_site_fract_x
 _atom_site_fract_y
 _atom_site_fract_z
 _atom_site_occupancy
  Cs  Cs0  1  0.25000000  0.77398394  0.19381799  1
  Cs  Cs1  1  0.25000000  0.27398394  0.30618201  1
  Cs  Cs2  1  0.75000000  0.22601606  0.80618201  1
  Cs  Cs3  1  0.75000000  0.72601606  0.69381799  1
  Ti  Ti0  1  0.25000000  0.32285553  0.96888067  1
  Ti  Ti1  1  0.25000000  0.82285553  0.53111933  1
  Ti  Ti2  1  0.75000000  0.67714447  0.03111933  1
  Ti  Ti3  1  0.75000000  0.17714447  0.46888067  1
  Nb  Nb0  1  0.25000000  0.77718590  0.89961295  1
  Nb  Nb1  1  0.25000000  0.27718590  0.60038705  1
  Nb  Nb2  1  0.75000000  0.22281410  0.10038705  1
  Nb  Nb3  1  0.75000000  0.72281410  0.39961295  1
  O  O0  1  0.25000000  0.07092787  0.93258021  1
  O  O1  1  0.25000000  0.57092787  0.56741979  1
  O  O2  1  0.75000000  0.92907213  0.06741979  1
  O  O3  1  0.75000000  0.42907213  0.43258021  1
  O  O4  1  0.25000000  0.47121103  0.88962394  1
  O  O5  1  0.25000000  0.97121103  0.61037606  1
  O  O6  1  0.75000000  0.52878897  0.11037606  1
  O  O7  1  0.75000000  0.02878897  0.38962394  1
  O  O8  1  0.25000000  0.23468457  0.07197780  1
  O  O9  1  0.25000000  0.73468457  0.42802220  1
  O  O10  1  0.75000000  0.76531543  0.92802220  1
  O  O11  1  0.75000000  0.26531543  0.57197780  1
  O  O12  1  0.25000000  0.64209390  0.01010807  1
  O  O13  1  0.25000000  0.14209390  0.48989193  1
  O  O14  1  0.75000000  0.35790610  0.98989193  1
  O  O15  1  0.75000000  0.85790610  0.51010807  1
  O  O16  1  0.25000000  0.83823036  0.81166063  1
  O  O17  1  0.25000000  0.33823036  0.68833937  1
  O  O18  1  0.75000000  0.16176964  0.18833937  1
  O  O19  1  0.75000000  0.66176964  0.31166063  1
loop_
_geom_bond_atom_site_label_1
_geom_bond_atom_site_label_2
_geom_bond_distance
_geom_bond_site_symmetry_2
Cs0 O6 3.007520 1_555
Cs0 O6 3.007520 1_455
Cs0 O19 3.130538 1_455
Cs0 O19 3.130538 1_555
Cs0 O18 3.178221 1_565
Cs0 O18 3.178221 1_465
Cs0 O2 3.335232 1_455
Cs0 O2 3.335232 1_555
Cs1 O7 3.007520 1_455
Cs1 O7 3.007520 1_555
Cs1 O18 3.130538 1_455
Cs1 O18 3.130538 1_555
Cs1 O19 3.178221 1_555
Cs1 O19 3.178221 1_455
Cs1 O3 3.335232 1_555
Cs1 O3 3.335232 1_455
Cs2 O4 3.007520 1_555
Cs2 O4 3.007520 1_655
Cs2 O17 3.130538 1_555
Cs2 O17 3.130538 1_655
Cs2 O16 3.178221 1_545
Cs2 O16 3.178221 1_645
Cs2 O0 3.335232 1_555
Cs2 O0 3.335232 1_655
Cs3 O5 3.007520 1_655
Cs3 O5 3.007520 1_555
Cs3 O16 3.130538 1_555
Cs3 O16 3.130538 1_655
Cs3 O17 3.178221 1_555
Cs3 O17 3.178221 1_655
Cs3 O1 3.335232 1_655
Cs3 O1 3.335232 1_555
Nb0 O16 1.804532 1_555
Nb0 O4 2.003789 1_555
Nb0 O10 2.008266 1_455
Nb0 O10 2.008266 1_555
Nb0 O0 2.024594 1_565
Nb0 O12 2.380056 1_556
Nb1 O17 1.804532 1_555
Nb1 O5 2.003789 1_545
Nb1 O11 2.008266 1_555
Nb1 O11 2.008266 1_455
Nb1 O1 2.024594 1_555
Nb1 O13 2.380056 1_555
Nb2 O18 1.804532 1_555
Nb2 O6 2.003789 1_555
Nb2 O8 2.008266 1_655
Nb2 O8 2.008266 1_555
Nb2 O2 2.024594 1_545
Nb2 O14 2.380056 1_554
Nb3 O19 1.804532 1_555
Nb3 O7 2.003789 1_565
Nb3 O9 2.008266 1_555
Nb3 O9 2.008266 1_655
Nb3 O3 2.024594 1_555
Nb3 O15 2.380056 1_555
O0 Ti0 1.795169 1_555
O1 Ti1 1.795169 1_555
O2 Ti2 1.795169 1_555
O3 Ti3 1.795169 1_555
O4 Ti0 1.857504 1_555
O5 Ti1 1.857504 1_555
O6 Ti2 1.857504 1_555
O7 Ti3 1.857504 1_555
O8 Ti0 2.141731 1_554
O9 Ti1 2.141731 1_555
O10 Ti2 2.141731 1_556
O11 Ti3 2.141731 1_555
O12 Ti2 1.983150 1_455
O12 Ti2 1.983150 1_555
O12 Ti0 2.237865 1_554
O13 Ti3 1.983150 1_455
O13 Ti3 1.983150 1_555
O13 Ti1 2.237865 1_545
O14 Ti0 1.983150 1_555
O14 Ti0 1.983150 1_655
O14 Ti2 2.237865 1_556
O15 Ti1 1.983150 1_555
O15 Ti1 1.983150 1_655
O15 Ti3 2.237865 1_565
