# generated using pymatgen
data_KCuRhF6
_symmetry_space_group_name_H-M   'P 1'
_cell_length_a   10.01267482
_cell_length_b   6.75808758
_cell_length_c   7.28312759
_cell_angle_alpha   87.74974390
_cell_angle_beta   90.00000000
_cell_angle_gamma   90.00000000
_symmetry_Int_Tables_number   1
_chemical_formula_structural   KCuRhF6
_chemical_formula_sum   'K4 Cu4 Rh4 F24'
_cell_volume   492.44396033
_cell_formula_units_Z   4
loop_
 _symmetry_equiv_pos_site_id
 _symmetry_equiv_pos_as_xyz
  1  'x, y, z'
loop_
 _atom_site_type_symbol
 _atom_site_label
 _atom_site_symmetry_multiplicity
 _atom_site_fract_x
 _atom_site_fract_y
 _atom_site_fract_z
 _atom_site_occupancy
  K  K0  1  0.11512534  0.50803567  0.24460038  1
  K  K1  1  0.88487466  0.49196433  0.75539962  1
  K  K2  1  0.61512534  0.99196433  0.75539962  1
  K  K3  1  0.38487466  0.00803567  0.24460038  1
  Cu  Cu0  1  0.73599219  0.17414363  0.24917563  1
  Cu  Cu1  1  0.23599219  0.32585637  0.75082437  1
  Cu  Cu2  1  0.26400781  0.82585637  0.75082437  1
  Cu  Cu3  1  0.76400781  0.67414363  0.24917563  1
  Rh  Rh0  1  0.00000000  0.00000000  0.50000000  1
  Rh  Rh1  1  0.50000000  0.50000000  0.00000000  1
  Rh  Rh2  1  0.00000000  0.00000000  0.00000000  1
  Rh  Rh3  1  0.50000000  0.50000000  0.50000000  1
  F  F0  1  0.93705991  0.73433227  0.43565381  1
  F  F1  1  0.97338784  0.89146507  0.75359250  1
  F  F2  1  0.81519777  0.10392871  0.49581133  1
  F  F3  1  0.17665952  0.87069711  0.02203351  1
  F  F4  1  0.82334048  0.12930289  0.97796649  1
  F  F5  1  0.33040008  0.08545641  0.75647018  1
  F  F6  1  0.47338784  0.60853493  0.24640750  1
  F  F7  1  0.52661216  0.39146507  0.75359250  1
  F  F8  1  0.56294009  0.23433227  0.43565381  1
  F  F9  1  0.06294009  0.26566773  0.56434619  1
  F  F10  1  0.32334048  0.37069711  0.02203351  1
  F  F11  1  0.31519777  0.39607129  0.50418867  1
  F  F12  1  0.16959992  0.58545641  0.75647018  1
  F  F13  1  0.67665952  0.62930289  0.97796649  1
  F  F14  1  0.41848115  0.75790089  0.92737672  1
  F  F15  1  0.02661216  0.10853493  0.24640750  1
  F  F16  1  0.18480223  0.89607129  0.50418867  1
  F  F17  1  0.68480223  0.60392871  0.49581133  1
  F  F18  1  0.83040008  0.41454359  0.24352982  1
  F  F19  1  0.08151885  0.25790089  0.92737672  1
  F  F20  1  0.66959992  0.91454359  0.24352982  1
  F  F21  1  0.58151885  0.24209911  0.07262328  1
  F  F22  1  0.91848115  0.74209911  0.07262328  1
  F  F23  1  0.43705991  0.76566773  0.56434619  1
loop_
_geom_bond_atom_site_label_1
_geom_bond_atom_site_label_2
_geom_bond_distance
_geom_bond_site_symmetry_2
Cu0 F20 1.878080 1_545
Cu0 F18 1.878685 1_555
Cu0 F2 2.003446 1_555
Cu0 F21 2.051879 1_555
Cu0 F4 2.192113 1_554
Cu0 F8 2.248486 1_555
Cu1 F12 1.878080 1_555
Cu1 F5 1.878685 1_555
Cu1 F11 2.003446 1_555
Cu1 F19 2.051879 1_555
Cu1 F10 2.192113 1_556
Cu1 F9 2.248486 1_555
Cu2 F5 1.878080 1_565
Cu2 F12 1.878685 1_555
Cu2 F16 2.003446 1_555
Cu2 F14 2.051879 1_555
Cu2 F3 2.192113 1_556
Cu2 F23 2.248486 1_555
Cu3 F18 1.878080 1_555
Cu3 F20 1.878685 1_555
Cu3 F17 2.003446 1_555
Cu3 F22 2.051879 1_555
Cu3 F13 2.192113 1_554
Cu3 F0 2.248486 1_555
F0 Rh0 1.976444 1_665
F0 K0 2.760601 1_655
F0 K1 2.842432 1_555
F1 Rh0 1.978341 1_665
F1 Rh2 1.983186 1_666
F1 K1 2.841140 1_555
F2 Rh0 1.978991 1_655
F2 K2 2.836843 1_545
F3 Rh2 1.976641 1_565
F3 K3 2.820202 1_565
F3 K0 2.949934 1_555
F4 Rh2 1.976641 1_656
F4 K2 2.820202 1_545
F4 K1 2.949934 1_555
F5 K2 2.920114 1_545
F6 Rh3 1.978341 1_555
F6 Rh1 1.983186 1_555
F6 K3 2.841140 1_565
F7 Rh3 1.978341 1_555
F7 Rh1 1.983186 1_556
F7 K2 2.841140 1_545
F8 Rh3 1.976444 1_555
F8 K3 2.760601 1_555
F8 K2 2.842432 1_545
F9 Rh0 1.976444 1_555
F9 K1 2.760601 1_455
F9 K0 2.842432 1_555
F10 Rh1 1.976641 1_555
F10 K0 2.820202 1_555
F10 K3 2.949934 1_555
F11 Rh3 1.978991 1_555
F11 K0 2.836843 1_555
F12 K1 2.920114 1_455
F13 Rh1 1.976641 1_556
F13 K1 2.820202 1_555
F13 K2 2.949934 1_555
F14 Rh1 1.977712 1_556
F14 K2 2.791435 1_555
F14 K3 2.935191 1_566
F15 Rh0 1.978341 1_555
F15 Rh2 1.983186 1_555
F15 K0 2.841140 1_555
F16 Rh0 1.978991 1_565
F16 K3 2.836843 1_565
F17 Rh3 1.978991 1_555
F17 K1 2.836843 1_555
F18 K0 2.920114 1_655
F19 Rh2 1.977712 1_556
F19 K1 2.791435 1_455
F19 K0 2.935191 1_556
F20 K3 2.920114 1_565
F21 Rh1 1.977712 1_555
F21 K3 2.791435 1_555
F21 K2 2.935191 1_544
F22 Rh2 1.977712 1_665
F22 K0 2.791435 1_655
F22 K1 2.935191 1_554
F23 Rh3 1.976444 1_555
F23 K2 2.760601 1_555
F23 K3 2.842432 1_565
