# generated using pymatgen
data_Cs2SrAs2O7
_symmetry_space_group_name_H-M   'P 1'
_cell_length_a   6.20496286
_cell_length_b   6.20496391
_cell_length_c   7.89980499
_cell_angle_alpha   65.50603719
_cell_angle_beta   65.50603483
_cell_angle_gamma   60.63472307
_symmetry_Int_Tables_number   1
_chemical_formula_structural   Cs2SrAs2O7
_chemical_formula_sum   'Cs2 Sr1 As2 O7'
_cell_volume   232.50091525
_cell_formula_units_Z   1
loop_
 _symmetry_equiv_pos_site_id
 _symmetry_equiv_pos_as_xyz
  1  'x, y, z'
loop_
 _atom_site_type_symbol
 _atom_site_label
 _atom_site_symmetry_multiplicity
 _atom_site_fract_x
 _atom_site_fract_y
 _atom_site_fract_z
 _atom_site_occupancy
  Cs  Cs0  1  0.79102022  0.79102022  0.67469497  1
  Cs  Cs1  1  0.19503504  0.19503504  0.38847771  1
  Sr  Sr0  1  0.99928917  0.99928917  0.01100335  1
  As  As0  1  0.44417742  0.44417742  0.72901631  1
  As  As1  1  0.56851054  0.56851054  0.25641577  1
  O  O0  1  0.26890349  0.71757669  0.79664649  1
  O  O1  1  0.71757669  0.26890349  0.79664649  1
  O  O2  1  0.70898805  0.25707730  0.25642882  1
  O  O3  1  0.25707730  0.70898805  0.25642882  1
  O  O4  1  0.27785878  0.27785878  0.75900340  1
  O  O5  1  0.74216812  0.74216812  0.09996097  1
  O  O6  1  0.57389216  0.57389216  0.47787692  1
loop_
_geom_bond_atom_site_label_1
_geom_bond_atom_site_label_2
_geom_bond_distance
_geom_bond_site_symmetry_2
Cs0 O5 3.141882 1_556
Cs0 O0 3.182367 1_555
Cs0 O1 3.182368 1_555
Cs0 O4 3.191227 1_565
Cs0 O4 3.191227 1_655
Cs0 O0 3.256980 1_655
Cs0 O1 3.256981 1_565
Cs0 O6 3.361831 1_555
Cs0 O3 3.401110 1_655
Cs0 O2 3.401110 1_565
Cs1 O2 3.085299 1_555
Cs1 O3 3.085300 1_555
Cs1 O6 3.333658 1_455
Cs1 O6 3.333658 1_545
Cs1 O1 3.369990 1_455
Cs1 O0 3.369991 1_545
Cs1 O2 3.386604 1_455
Cs1 O3 3.386605 1_545
Cs1 O4 3.442345 1_555
As0 O1 1.675227 1_555
As0 O0 1.675228 1_555
As0 O4 1.680852 1_555
As0 O6 1.794128 1_555
As1 O5 1.667299 1_555
As1 O3 1.685821 1_555
As1 O2 1.685821 1_555
As1 O6 1.777908 1_555
O0 Sr0 2.441147 1_456
O1 Sr0 2.441146 1_546
O2 Sr0 2.532220 1_545
O3 Sr0 2.532220 1_455
O4 Sr0 2.676243 1_446
O5 Sr0 2.494326 1_555
