# generated using pymatgen
data_V5B2P
_symmetry_space_group_name_H-M   'P 1'
_cell_length_a   6.65087952
_cell_length_b   6.65087917
_cell_length_c   6.65088024
_cell_angle_alpha   129.15245582
_cell_angle_beta   129.15244960
_cell_angle_gamma   74.76539233
_symmetry_Int_Tables_number   1
_chemical_formula_structural   V5B2P
_chemical_formula_sum   'V10 B4 P2'
_cell_volume   172.34019274
_cell_formula_units_Z   2
loop_
 _symmetry_equiv_pos_site_id
 _symmetry_equiv_pos_as_xyz
  1  'x, y, z'
loop_
 _atom_site_type_symbol
 _atom_site_label
 _atom_site_symmetry_multiplicity
 _atom_site_fract_x
 _atom_site_fract_y
 _atom_site_fract_z
 _atom_site_occupancy
  V  V0  1  0.19043862  0.69043862  0.16102425  1
  V  V1  1  0.47058663  0.97058663  0.16102425  1
  V  V2  1  0.00000000  0.00000000  0.00000000  1
  V  V3  1  0.50000000  0.50000000  0.00000000  1
  V  V4  1  0.52941337  0.02941337  0.83897575  1
  V  V5  1  0.02941337  0.19043862  0.50000000  1
  V  V6  1  0.69043862  0.52941337  0.50000000  1
  V  V7  1  0.97058663  0.80956138  0.50000000  1
  V  V8  1  0.30956138  0.47058663  0.50000000  1
  V  V9  1  0.80956138  0.30956138  0.83897575  1
  B  B0  1  0.88511969  0.38511969  0.27023937  1
  B  B1  1  0.38511969  0.11488031  0.50000000  1
  B  B2  1  0.61488031  0.88511969  0.50000000  1
  B  B3  1  0.11488031  0.61488031  0.72976063  1
  P  P0  1  0.75000000  0.75000000  0.00000000  1
  P  P1  1  0.25000000  0.25000000  0.00000000  1
loop_
_geom_bond_atom_site_label_1
_geom_bond_atom_site_label_2
_geom_bond_distance
_geom_bond_site_symmetry_2
B0 B3 1.855541 1_655
B0 V7 2.219514 1_555
B0 V8 2.219514 1_655
B0 V6 2.219514 1_555
B0 V5 2.219514 1_655
B0 V9 2.285722 1_554
B0 V4 2.285729 1_554
B0 V2 2.295017 1_655
B0 V3 2.295017 1_555
B1 B2 1.855541 1_545
B1 V0 2.219513 1_545
B1 V9 2.219513 1_555
B1 V1 2.219520 1_545
B1 V4 2.219520 1_555
B1 V8 2.285728 1_555
B1 V5 2.285729 1_555
B1 V3 2.295017 1_556
B1 V2 2.295018 1_555
B2 V9 2.219513 1_565
B2 V0 2.219513 1_555
B2 V4 2.219520 1_565
B2 V1 2.219520 1_555
B2 V6 2.285728 1_555
B2 V7 2.285729 1_555
B2 V3 2.295017 1_555
B2 V2 2.295018 1_666
B3 V5 2.219514 1_555
B3 V6 2.219514 1_455
B3 V8 2.219514 1_555
B3 V7 2.219514 1_455
B3 V0 2.285722 1_556
B3 V1 2.285729 1_556
B3 V2 2.295017 1_566
B3 V3 2.295017 1_556
P0 V1 2.418479 1_555
P0 V4 2.418479 1_564
P0 V5 2.418483 1_665
P0 V8 2.418483 1_554
P0 V6 2.418483 1_554
P0 V7 2.418483 1_555
P0 V9 2.418484 1_554
P0 V0 2.418484 1_655
P0 V3 2.642388 1_555
P0 V2 2.642388 1_665
P1 V4 2.418479 1_554
P1 V1 2.418479 1_545
P1 V7 2.418483 1_444
P1 V6 2.418483 1_555
P1 V8 2.418483 1_555
P1 V5 2.418483 1_554
P1 V0 2.418484 1_555
P1 V9 2.418484 1_454
P1 V2 2.642388 1_555
P1 V3 2.642388 1_555
