# generated using pymatgen
data_KMn(Sb4Ru)3
_symmetry_space_group_name_H-M   'P 1'
_cell_length_a   8.10336361
_cell_length_b   8.16136933
_cell_length_c   8.16137027
_cell_angle_alpha   109.61475088
_cell_angle_beta   109.32730203
_cell_angle_gamma   109.32731395
_symmetry_Int_Tables_number   1
_chemical_formula_structural   KMn(Sb4Ru)3
_chemical_formula_sum   'K1 Mn1 Sb12 Ru3'
_cell_volume   416.23423623
_cell_formula_units_Z   1
loop_
 _symmetry_equiv_pos_site_id
 _symmetry_equiv_pos_as_xyz
  1  'x, y, z'
loop_
 _atom_site_type_symbol
 _atom_site_label
 _atom_site_symmetry_multiplicity
 _atom_site_fract_x
 _atom_site_fract_y
 _atom_site_fract_z
 _atom_site_occupancy
  K  K0  1  0.00000000  0.00000000  0.00000000  1
  Mn  Mn0  1  0.50000000  0.00000000  0.00000000  1
  Sb  Sb0  1  0.15701124  0.49781209  0.33930894  1
  Sb  Sb1  1  0.49756549  0.64630062  0.83844368  1
  Sb  Sb2  1  0.34087819  0.83844368  0.19214406  1
  Sb  Sb3  1  0.81770030  0.66069106  0.15850214  1
  Sb  Sb4  1  0.65919916  0.84149786  0.50218791  1
  Sb  Sb5  1  0.18229970  0.33930894  0.84149786  1
  Sb  Sb6  1  0.65912181  0.16155632  0.80785594  1
  Sb  Sb7  1  0.34080084  0.15850214  0.49781209  1
  Sb  Sb8  1  0.50243451  0.35369938  0.16155632  1
  Sb  Sb9  1  0.84298876  0.50218791  0.66069106  1
  Sb  Sb10  1  0.85126387  0.19214406  0.35369938  1
  Sb  Sb11  1  0.14873613  0.80785594  0.64630062  1
  Ru  Ru0  1  0.50000000  0.50000000  0.50000000  1
  Ru  Ru1  1  0.00000000  0.50000000  0.00000000  1
  Ru  Ru2  1  0.00000000  0.00000000  0.50000000  1
loop_
_geom_bond_atom_site_label_1
_geom_bond_atom_site_label_2
_geom_bond_distance
_geom_bond_site_symmetry_2
K0 Sb3 3.533611 1_445
K0 Sb5 3.533611 1_554
K0 Sb9 3.533613 1_444
K0 Sb0 3.533613 1_555
K0 Sb7 3.533616 1_555
K0 Sb4 3.533616 1_444
K0 Sb8 3.572035 1_555
K0 Sb1 3.572035 1_444
K0 Sb6 3.572038 1_454
K0 Sb2 3.572038 1_545
K0 Sb10 3.572043 1_455
K0 Sb11 3.572043 1_544
Mn0 Sb10 2.731561 1_555
Mn0 Sb11 2.731561 1_544
Mn0 Sb8 2.731565 1_555
Mn0 Sb1 2.731565 1_544
Mn0 Sb2 2.731573 1_545
Mn0 Sb6 2.731573 1_554
Sb0 Sb11 2.941391 1_555
Sb0 Sb10 2.945112 1_455
Sb1 Sb5 2.941395 1_555
Sb1 Sb3 2.945099 1_556
Sb2 Sb4 2.941391 1_555
Sb2 Sb7 2.945103 1_565
Sb3 Sb8 2.941395 1_555
Sb4 Sb6 2.945103 1_565
Sb5 Sb8 2.945099 1_556
Sb6 Sb7 2.941391 1_555
Sb10 Sb9 2.941391 1_555
Sb11 Sb9 2.945112 1_455
Ru0 Sb1 2.625450 1_555
Ru0 Sb8 2.625450 1_555
Ru0 Sb9 2.642685 1_555
Ru0 Sb0 2.642685 1_555
Ru0 Sb7 2.646470 1_555
Ru0 Sb4 2.646470 1_555
Ru1 Sb6 2.625449 1_454
Ru1 Sb2 2.625449 1_555
Ru1 Sb3 2.642695 1_455
Ru1 Sb5 2.642695 1_554
Ru1 Sb0 2.646463 1_555
Ru1 Sb9 2.646463 1_454
Ru2 Sb11 2.625462 1_545
Ru2 Sb10 2.625462 1_455
Ru2 Sb4 2.642684 1_445
Ru2 Sb7 2.642684 1_555
Ru2 Sb5 2.646465 1_555
Ru2 Sb3 2.646465 1_445
