# generated using pymatgen
data_RbCO3
_symmetry_space_group_name_H-M   'P 1'
_cell_length_a   10.71095900
_cell_length_b   7.87814400
_cell_length_c   8.04467863
_cell_angle_alpha   78.49516639
_cell_angle_beta   90.00000000
_cell_angle_gamma   90.00000000
_symmetry_Int_Tables_number   1
_chemical_formula_structural   RbCO3
_chemical_formula_sum   'Rb8 C8 O24'
_cell_volume   665.19078202
_cell_formula_units_Z   8
loop_
 _symmetry_equiv_pos_site_id
 _symmetry_equiv_pos_as_xyz
  1  'x, y, z'
loop_
 _atom_site_type_symbol
 _atom_site_label
 _atom_site_symmetry_multiplicity
 _atom_site_fract_x
 _atom_site_fract_y
 _atom_site_fract_z
 _atom_site_occupancy
  Rb  Rb0  1  0.91366800  0.00610500  0.25152800  1
  Rb  Rb1  1  0.41366800  0.49389500  0.74847200  1
  Rb  Rb2  1  0.08633200  0.99389500  0.74847200  1
  Rb  Rb3  1  0.58633200  0.50610500  0.25152800  1
  Rb  Rb4  1  0.51293800  0.00563700  0.25420100  1
  Rb  Rb5  1  0.01293800  0.49436300  0.74579900  1
  Rb  Rb6  1  0.48706200  0.99436300  0.74579900  1
  Rb  Rb7  1  0.98706200  0.50563700  0.25420100  1
  C  C0  1  0.22549100  0.18571600  0.03668200  1
  C  C1  1  0.27450900  0.68571600  0.03668200  1
  C  C2  1  0.77450900  0.81428400  0.96331800  1
  C  C3  1  0.72549100  0.31428400  0.96331800  1
  C  C4  1  0.77845400  0.19386900  0.55278500  1
  C  C5  1  0.27845400  0.30613100  0.44721500  1
  C  C6  1  0.22154600  0.80613100  0.44721500  1
  C  C7  1  0.72154600  0.69386900  0.55278500  1
  O  O0  1  0.70538000  0.77184100  0.82743900  1
  O  O1  1  0.20538000  0.72815900  0.17256100  1
  O  O2  1  0.29462000  0.22815900  0.17256100  1
  O  O3  1  0.79462000  0.27184100  0.82743900  1
  O  O4  1  0.79090000  0.72572900  0.69311200  1
  O  O5  1  0.29090000  0.77427100  0.30688800  1
  O  O6  1  0.20910000  0.27427100  0.30688800  1
  O  O7  1  0.70910000  0.22572900  0.69311200  1
  O  O8  1  0.69811900  0.85808700  0.06650800  1
  O  O9  1  0.19811900  0.64191300  0.93349200  1
  O  O10  1  0.30188100  0.14191300  0.93349200  1
  O  O11  1  0.80188100  0.35808700  0.06650800  1
  O  O12  1  0.60538100  0.71200300  0.54713700  1
  O  O13  1  0.10538100  0.78799700  0.45286300  1
  O  O14  1  0.39461900  0.28799700  0.45286300  1
  O  O15  1  0.89461900  0.21200300  0.54713700  1
  O  O16  1  0.79687400  0.64945500  0.44888000  1
  O  O17  1  0.29687400  0.85054500  0.55112000  1
  O  O18  1  0.20312600  0.35054500  0.55112000  1
  O  O19  1  0.70312600  0.14945500  0.44888000  1
  O  O20  1  0.39093500  0.69663100  0.03297600  1
  O  O21  1  0.10906500  0.19663100  0.03297600  1
  O  O22  1  0.60906500  0.30336900  0.96702400  1
  O  O23  1  0.89093500  0.80336900  0.96702400  1
loop_
_geom_bond_atom_site_label_1
_geom_bond_atom_site_label_2
_geom_bond_distance
_geom_bond_site_symmetry_2
C0 O21 1.249942 1_555
C0 O10 1.261721 1_554
C0 O2 1.414470 1_555
C1 O20 1.249942 1_555
C1 O9 1.261721 1_554
C1 O1 1.414470 1_555
C2 O23 1.249942 1_555
C2 O8 1.261721 1_556
C2 O0 1.414470 1_555
C3 O22 1.249942 1_555
C3 O11 1.261721 1_556
C3 O3 1.414470 1_555
C4 O15 1.252204 1_555
C4 O19 1.260468 1_555
C4 O7 1.415003 1_555
C5 O14 1.252204 1_555
C5 O18 1.260468 1_555
C5 O6 1.415003 1_555
C6 O13 1.252204 1_555
C6 O17 1.260468 1_555
C6 O5 1.415003 1_555
C7 O12 1.252204 1_555
C7 O16 1.260468 1_555
C7 O4 1.415003 1_555
O0 Rb6 2.917770 1_555
O1 Rb7 2.917770 1_455
O2 Rb4 2.917770 1_555
O3 Rb5 2.917770 1_655
O4 Rb5 2.974871 1_655
O5 Rb4 2.974871 1_565
O6 Rb7 2.974871 1_455
O7 Rb6 2.974871 1_545
O8 Rb4 2.874959 1_565
O8 Rb0 3.098038 1_565
O8 Rb3 3.113194 1_555
O8 Rb6 3.437227 1_554
O9 Rb5 2.874959 1_555
O9 Rb1 3.098038 1_555
O9 Rb2 3.113194 1_555
O9 Rb7 3.437227 1_456
O10 Rb6 2.874959 1_545
O10 Rb2 3.098038 1_545
O10 Rb1 3.113194 1_555
O10 Rb4 3.437227 1_556
O11 Rb7 2.874959 1_555
O11 Rb3 3.098038 1_555
O11 Rb0 3.113194 1_555
O11 Rb5 3.437227 1_654
O12 Rb1 2.946568 1_555
O12 Rb4 3.116180 1_565
O12 Rb3 3.141151 1_555
O12 Rb6 3.244478 1_555
O13 Rb0 2.946568 1_465
O13 Rb5 3.116180 1_555
O13 Rb2 3.141151 1_555
O13 Rb7 3.244478 1_455
O14 Rb3 2.946568 1_555
O14 Rb6 3.116180 1_545
O14 Rb1 3.141151 1_555
O14 Rb4 3.244478 1_555
O15 Rb2 2.946568 1_645
O15 Rb7 3.116180 1_555
O15 Rb0 3.141151 1_555
O15 Rb5 3.244478 1_655
O16 Rb7 2.931567 1_555
O16 Rb3 3.097853 1_555
O16 Rb0 3.193858 1_565
O16 Rb5 3.374900 1_655
O17 Rb6 2.931567 1_555
O17 Rb2 3.097853 1_555
O17 Rb1 3.193858 1_555
O17 Rb4 3.374900 1_565
O18 Rb5 2.931567 1_555
O18 Rb1 3.097853 1_555
O18 Rb2 3.193858 1_545
O18 Rb7 3.374900 1_455
O19 Rb4 2.931567 1_555
O19 Rb0 3.097853 1_555
O19 Rb3 3.193858 1_555
O19 Rb6 3.374900 1_545
O20 Rb3 2.944767 1_555
O20 Rb1 3.050710 1_554
O20 Rb6 3.120493 1_554
O20 Rb4 3.539691 1_565
O21 Rb0 2.944767 1_455
O21 Rb2 3.050710 1_544
O21 Rb5 3.120493 1_554
O21 Rb7 3.539691 1_455
O22 Rb1 2.944767 1_555
O22 Rb3 3.050710 1_556
O22 Rb4 3.120493 1_556
O22 Rb6 3.539691 1_545
O23 Rb2 2.944767 1_655
O23 Rb0 3.050710 1_566
O23 Rb7 3.120493 1_556
O23 Rb5 3.539691 1_655
