# generated using pymatgen
data_KSr2B2Pt7
_symmetry_space_group_name_H-M   'P 1'
_cell_length_a   8.39158174
_cell_length_b   8.39158117
_cell_length_c   8.39158040
_cell_angle_alpha   38.94188651
_cell_angle_beta   38.94189183
_cell_angle_gamma   38.94188155
_symmetry_Int_Tables_number   1
_chemical_formula_structural   KSr2B2Pt7
_chemical_formula_sum   'K1 Sr2 B2 Pt7'
_cell_volume   209.91848418
_cell_formula_units_Z   1
loop_
 _symmetry_equiv_pos_site_id
 _symmetry_equiv_pos_as_xyz
  1  'x, y, z'
loop_
 _atom_site_type_symbol
 _atom_site_label
 _atom_site_symmetry_multiplicity
 _atom_site_fract_x
 _atom_site_fract_y
 _atom_site_fract_z
 _atom_site_occupancy
  K  K0  1  0.85593123  0.85593123  0.85593123  1
  Sr  Sr0  1  0.14613985  0.14613985  0.14613985  1
  Sr  Sr1  1  0.99695923  0.99695923  0.99695923  1
  B  B0  1  0.66975956  0.66975956  0.66975956  1
  B  B1  1  0.33107129  0.33107129  0.33107129  1
  Pt  Pt0  1  0.43824109  0.93148843  0.43824109  1
  Pt  Pt1  1  0.43824109  0.43824109  0.93148843  1
  Pt  Pt2  1  0.93148843  0.43824109  0.43824109  1
  Pt  Pt3  1  0.56152392  0.06910839  0.56152392  1
  Pt  Pt4  1  0.56152392  0.56152392  0.06910839  1
  Pt  Pt5  1  0.06910839  0.56152392  0.56152392  1
  Pt  Pt6  1  0.50001001  0.50001001  0.50001001  1
loop_
_geom_bond_atom_site_label_1
_geom_bond_atom_site_label_2
_geom_bond_distance
_geom_bond_site_symmetry_2
K0 Pt6 3.272240 1_565
K0 Pt6 3.272240 1_655
K0 Pt6 3.272241 1_556
K0 Sr1 3.276827 1_555
K0 Pt5 3.339469 1_655
K0 Pt3 3.339469 1_565
K0 Pt4 3.339470 1_556
K0 Pt2 3.359296 1_556
K0 Pt1 3.359296 1_565
K0 Pt0 3.359297 1_556
K0 Pt1 3.359297 1_655
K0 Pt2 3.359297 1_565
K0 Pt0 3.359297 1_655
K0 Sr0 3.381736 1_656
K0 Sr0 3.381736 1_665
K0 Sr0 3.381736 1_566
Sr0 Sr1 3.466255 1_444
B0 Pt4 2.166552 1_556
B0 Pt3 2.166552 1_565
B0 Pt5 2.166553 1_655
B0 Pt0 2.229127 1_555
B0 Pt2 2.229127 1_555
B0 Pt1 2.229127 1_555
B0 Sr1 3.233019 1_545
B0 Sr1 3.233020 1_455
B0 Sr1 3.233020 1_554
B1 Pt1 2.176554 1_554
B1 Pt0 2.176554 1_545
B1 Pt2 2.176554 1_455
B1 Pt3 2.214420 1_555
B1 Pt5 2.214420 1_555
B1 Pt4 2.214420 1_555
B1 Sr1 3.229927 1_454
B1 Sr1 3.229928 1_544
B1 Sr1 3.229928 1_445
Pt0 Pt6 2.868174 1_555
Pt0 Sr1 3.135507 1_455
Pt0 Sr1 3.135508 1_554
Pt0 Sr0 3.297148 1_565
Pt1 Pt6 2.868174 1_555
Pt1 Sr1 3.135507 1_455
Pt1 Sr1 3.135507 1_545
Pt1 Sr0 3.297149 1_556
Pt2 Pt6 2.868175 1_555
Pt2 Sr1 3.135507 1_545
Pt2 Sr1 3.135507 1_554
Pt2 Sr0 3.297148 1_655
Pt3 Pt6 2.866252 1_555
Pt3 Sr1 3.202330 1_544
Pt3 Sr1 3.202330 1_445
Pt3 Sr0 3.385646 1_556
Pt3 Sr0 3.385647 1_655
Pt4 Pt6 2.866252 1_555
Pt4 Sr1 3.202329 1_544
Pt4 Sr1 3.202330 1_454
Pt4 Sr0 3.385646 1_565
Pt4 Sr0 3.385646 1_655
Pt5 Pt6 2.866253 1_555
Pt5 Sr1 3.202329 1_454
Pt5 Sr1 3.202330 1_445
Pt5 Sr0 3.385646 1_556
Pt5 Sr0 3.385646 1_565
Pt6 Sr0 3.264935 1_565
Pt6 Sr0 3.264936 1_655
Pt6 Sr0 3.264936 1_556
