# generated using pymatgen
data_SrYIO6
_symmetry_space_group_name_H-M   'P 1'
_cell_length_a   5.57696702
_cell_length_b   5.57696818
_cell_length_c   5.14408487
_cell_angle_alpha   90.00000000
_cell_angle_beta   90.00000000
_cell_angle_gamma   119.99999883
_symmetry_Int_Tables_number   1
_chemical_formula_structural   SrYIO6
_chemical_formula_sum   'Sr1 Y1 I1 O6'
_cell_volume   138.55908456
_cell_formula_units_Z   1
loop_
 _symmetry_equiv_pos_site_id
 _symmetry_equiv_pos_as_xyz
  1  'x, y, z'
loop_
 _atom_site_type_symbol
 _atom_site_label
 _atom_site_symmetry_multiplicity
 _atom_site_fract_x
 _atom_site_fract_y
 _atom_site_fract_z
 _atom_site_occupancy
  Sr  Sr0  1  0.00000000  0.00000000  0.00000000  1
  Y  Y0  1  0.33333300  0.66666700  0.50000000  1
  I  I0  1  0.66666700  0.33333300  0.50000000  1
  O  O0  1  0.39421423  0.04945558  0.70701329  1
  O  O1  1  0.95054442  0.34475765  0.70701329  1
  O  O2  1  0.65524235  0.60578577  0.70701329  1
  O  O3  1  0.95054442  0.60578577  0.29298671  1
  O  O4  1  0.65524235  0.04945558  0.29298671  1
  O  O5  1  0.39421423  0.34475765  0.29298671  1
loop_
_geom_bond_atom_site_label_1
_geom_bond_atom_site_label_2
_geom_bond_distance
_geom_bond_site_symmetry_2
I0 O1 1.882453 1_555
I0 O5 1.882453 1_555
I0 O3 1.882453 1_555
I0 O0 1.882453 1_555
I0 O2 1.882453 1_555
I0 O4 1.882453 1_555
O0 Y0 2.254289 1_545
O0 Sr0 2.564114 1_556
O1 Y0 2.254292 1_655
O1 Sr0 2.564110 1_656
O2 Y0 2.254298 1_555
O2 Sr0 2.564112 1_666
O3 Y0 2.254288 1_655
O3 Sr0 2.564114 1_665
O4 Y0 2.254292 1_545
O4 Sr0 2.564109 1_655
O5 Y0 2.254298 1_555
O5 Sr0 2.564112 1_555
