# generated using pymatgen
data_Cs2Co2RhS4
_symmetry_space_group_name_H-M   'P 1'
_cell_length_a   9.09366310
_cell_length_b   8.15567622
_cell_length_c   5.74172345
_cell_angle_alpha   79.67390105
_cell_angle_beta   61.92433960
_cell_angle_gamma   39.44561591
_symmetry_Int_Tables_number   1
_chemical_formula_structural   Cs2Co2RhS4
_chemical_formula_sum   'Cs2 Co2 Rh1 S4'
_cell_volume   225.46217463
_cell_formula_units_Z   1
loop_
 _symmetry_equiv_pos_site_id
 _symmetry_equiv_pos_as_xyz
  1  'x, y, z'
loop_
 _atom_site_type_symbol
 _atom_site_label
 _atom_site_symmetry_multiplicity
 _atom_site_fract_x
 _atom_site_fract_y
 _atom_site_fract_z
 _atom_site_occupancy
  Cs  Cs0  1  0.66360373  0.66359716  0.33640003  1
  Cs  Cs1  1  0.33640284  0.33639627  0.66360092  1
  Co  Co0  1  0.99999456  0.00000544  0.00000018  1
  Co  Co1  1  0.99999374  0.00000626  0.50000238  1
  Rh  Rh0  1  0.50000751  0.49999249  0.99999771  1
  S  S0  1  0.25036700  0.94484885  0.07646878  1
  S  S1  1  0.05515115  0.74963300  0.27168563  1
  S  S2  1  0.94484938  0.25037192  0.72831454  1
  S  S3  1  0.74962808  0.05515062  0.92353484  1
loop_
_geom_bond_atom_site_label_1
_geom_bond_atom_site_label_2
_geom_bond_distance
_geom_bond_site_symmetry_2
Cs0 S2 3.514097 1_555
Cs0 S0 3.514148 1_555
Cs0 S0 3.520398 1_645
Cs0 S2 3.520429 1_465
Cs0 S2 3.548267 1_554
Cs0 S0 3.548286 1_556
Cs0 S3 3.978442 1_564
Cs0 S1 3.978464 1_655
Cs1 S3 3.514092 1_555
Cs1 S1 3.514143 1_555
Cs1 S1 3.520398 1_645
Cs1 S3 3.520429 1_465
Cs1 S3 3.548272 1_554
Cs1 S1 3.548291 1_556
Cs1 S2 3.978440 1_455
Cs1 S0 3.978462 1_546
Co0 S2 2.206181 1_554
Co0 S3 2.206185 1_554
Co0 S0 2.206191 1_645
Co0 S1 2.206195 1_645
Co1 S1 2.213283 1_645
Co1 S0 2.213287 1_645
Co1 S3 2.213300 1_555
Co1 S2 2.213304 1_555
Rh0 S3 2.328415 1_555
Rh0 S2 2.328415 1_555
Rh0 S0 2.328457 1_556
Rh0 S1 2.328458 1_556
