# generated using pymatgen
data_CaRe3Si2Os
_symmetry_space_group_name_H-M   'P 1'
_cell_length_a   7.33255519
_cell_length_b   7.33255532
_cell_length_c   4.06195537
_cell_angle_alpha   90.00000000
_cell_angle_beta   90.00000000
_cell_angle_gamma   147.71737995
_symmetry_Int_Tables_number   1
_chemical_formula_structural   CaRe3Si2Os
_chemical_formula_sum   'Ca1 Re3 Si2 Os1'
_cell_volume   116.64472417
_cell_formula_units_Z   1
loop_
 _symmetry_equiv_pos_site_id
 _symmetry_equiv_pos_as_xyz
  1  'x, y, z'
loop_
 _atom_site_type_symbol
 _atom_site_label
 _atom_site_symmetry_multiplicity
 _atom_site_fract_x
 _atom_site_fract_y
 _atom_site_fract_z
 _atom_site_occupancy
  Ca  Ca0  1  0.99804308  0.00195692  0.00000000  1
  Re  Re0  1  0.69669711  0.30330089  0.00000000  1
  Re  Re1  1  0.30309420  0.69690380  0.00000000  1
  Re  Re2  1  0.18735194  0.81264606  0.50000100  1
  Si  Si0  1  0.58734661  0.41265139  0.50000100  1
  Si  Si1  1  0.41121953  0.58877847  0.50000100  1
  Os  Os0  1  0.81624251  0.18375549  0.50000100  1
loop_
_geom_bond_atom_site_label_1
_geom_bond_atom_site_label_2
_geom_bond_distance
_geom_bond_site_symmetry_2
Ca0 Si1 3.126697 1_654
Ca0 Si1 3.126702 1_544
Ca0 Si1 3.126702 1_655
Ca0 Si1 3.126707 1_545
Ca0 Si0 3.140538 1_654
Ca0 Si0 3.140544 1_655
Ca0 Si0 3.140544 1_544
Ca0 Si0 3.140549 1_545
Ca0 Os0 3.268582 1_554
Ca0 Os0 3.268587 1_555
Ca0 Re2 3.352121 1_644
Ca0 Re2 3.352126 1_645
Ca0 Re1 3.420126 1_655
Ca0 Re1 3.420131 1_545
Ca0 Re0 3.462199 1_655
Ca0 Re0 3.462203 1_545
Re0 Re1 2.530207 1_655
Re0 Re1 2.530207 1_545
Re0 Si0 2.549068 1_554
Re0 Si0 2.549075 1_555
Re0 Re2 2.880570 1_544
Re0 Re2 2.880570 1_654
Re0 Re2 2.880576 1_545
Re0 Re2 2.880576 1_655
Re1 Si1 2.538676 1_554
Re1 Si1 2.538682 1_555
Re1 Re2 2.604469 1_554
Re1 Re2 2.604475 1_555
Re2 Si0 2.477931 1_455
Re2 Si0 2.477932 1_565
Si0 Si1 2.481102 1_555
Os0 Si1 2.438357 1_655
Os0 Si1 2.438357 1_545
Os0 Re0 2.638338 1_556
Os0 Re0 2.638345 1_555
Os0 Re2 2.729871 1_545
Os0 Re2 2.729871 1_655
Os0 Re1 2.883515 1_546
Os0 Re1 2.883515 1_656
Os0 Re1 2.883521 1_545
Os0 Re1 2.883521 1_655
