# generated using pymatgen
data_Na6NbSbSe8
_symmetry_space_group_name_H-M   'P 1'
_cell_length_a   7.46968769
_cell_length_b   7.46968669
_cell_length_c   7.46968817
_cell_angle_alpha   91.32904856
_cell_angle_beta   91.32904328
_cell_angle_gamma   91.32906366
_symmetry_Int_Tables_number   1
_chemical_formula_structural   Na6NbSbSe8
_chemical_formula_sum   'Na6 Nb1 Sb1 Se8'
_cell_volume   416.43874928
_cell_formula_units_Z   1
loop_
 _symmetry_equiv_pos_site_id
 _symmetry_equiv_pos_as_xyz
  1  'x, y, z'
loop_
 _atom_site_type_symbol
 _atom_site_label
 _atom_site_symmetry_multiplicity
 _atom_site_fract_x
 _atom_site_fract_y
 _atom_site_fract_z
 _atom_site_occupancy
  Na  Na0  1  0.47726661  0.99790698  0.54263575  1
  Na  Na1  1  0.54263575  0.47726661  0.99790698  1
  Na  Na2  1  0.99790698  0.54263575  0.47726661  1
  Na  Na3  1  0.04560972  0.50300830  0.97569933  1
  Na  Na4  1  0.97569933  0.04560972  0.50300830  1
  Na  Na5  1  0.50300830  0.97569933  0.04560972  1
  Nb  Nb0  1  0.99806297  0.99806297  0.99806297  1
  Sb  Sb0  1  0.49601781  0.49601781  0.49601781  1
  Se  Se0  1  0.18310029  0.83628249  0.79026339  1
  Se  Se1  1  0.69282280  0.69282280  0.69282280  1
  Se  Se2  1  0.28441452  0.32495312  0.68709860  1
  Se  Se3  1  0.79026339  0.18310029  0.83628249  1
  Se  Se4  1  0.83628249  0.79026339  0.18310029  1
  Se  Se5  1  0.32495312  0.68709860  0.28441452  1
  Se  Se6  1  0.68709860  0.28441452  0.32495312  1
  Se  Se7  1  0.18785733  0.18785733  0.18785733  1
loop_
_geom_bond_atom_site_label_1
_geom_bond_atom_site_label_2
_geom_bond_distance
_geom_bond_site_symmetry_2
Na0 Se1 3.041286 1_555
Na0 Se2 3.052966 1_565
Na0 Se6 3.131260 1_565
Na0 Se0 3.142652 1_555
Na0 Se5 3.157972 1_555
Na0 Se3 3.415018 1_565
Na1 Se1 3.041285 1_555
Na1 Se6 3.052966 1_556
Na1 Se5 3.131261 1_556
Na1 Se3 3.142652 1_555
Na1 Se2 3.157973 1_555
Na1 Se4 3.415018 1_556
Na2 Se1 3.041286 1_555
Na2 Se5 3.052965 1_655
Na2 Se2 3.131261 1_655
Na2 Se4 3.142653 1_555
Na2 Se6 3.157972 1_555
Na2 Se0 3.415018 1_655
Na3 Se0 3.046000 1_555
Na3 Se7 3.064819 1_556
Na3 Se4 3.092380 1_456
Na3 Se2 3.123076 1_555
Na3 Se3 3.164453 1_455
Na3 Se5 3.325520 1_556
Na4 Se3 3.046001 1_555
Na4 Se7 3.064819 1_655
Na4 Se0 3.092380 1_645
Na4 Se6 3.123076 1_555
Na4 Se4 3.164453 1_545
Na4 Se2 3.325519 1_655
Na5 Se4 3.046001 1_555
Na5 Se7 3.064819 1_565
Na5 Se3 3.092379 1_564
Na5 Se5 3.123075 1_555
Na5 Se0 3.164453 1_554
Na5 Se6 3.325519 1_565
Nb0 Se7 2.397906 1_666
Nb0 Se4 2.422820 1_556
Nb0 Se0 2.422820 1_655
Nb0 Se3 2.422820 1_565
Sb0 Se1 2.486480 1_555
Sb0 Se2 2.502777 1_555
Sb0 Se6 2.502777 1_555
Sb0 Se5 2.502777 1_555
