# generated using pymatgen
data_LuAg(PS3)2
_symmetry_space_group_name_H-M   'P 1'
_cell_length_a   6.27084057
_cell_length_b   6.27083923
_cell_length_c   13.49254153
_cell_angle_alpha   90.00000000
_cell_angle_beta   90.00000000
_cell_angle_gamma   119.99999134
_symmetry_Int_Tables_number   1
_chemical_formula_structural   LuAg(PS3)2
_chemical_formula_sum   'Lu2 Ag2 P4 S12'
_cell_volume   459.48978332
_cell_formula_units_Z   2
loop_
 _symmetry_equiv_pos_site_id
 _symmetry_equiv_pos_as_xyz
  1  'x, y, z'
loop_
 _atom_site_type_symbol
 _atom_site_label
 _atom_site_symmetry_multiplicity
 _atom_site_fract_x
 _atom_site_fract_y
 _atom_site_fract_z
 _atom_site_occupancy
  Lu  Lu0  1  0.00000000  0.00000000  0.25000000  1
  Lu  Lu1  1  0.00000000  0.00000000  0.75000000  1
  Ag  Ag0  1  0.66666700  0.33333300  0.25000000  1
  Ag  Ag1  1  0.33333300  0.66666700  0.75000000  1
  P  P0  1  0.66666700  0.33333300  0.66758871  1
  P  P1  1  0.66666700  0.33333300  0.83241129  1
  P  P2  1  0.33333300  0.66666700  0.33241129  1
  P  P3  1  0.33333300  0.66666700  0.16758871  1
  S  S0  1  0.96800470  0.31724792  0.87472906  1
  S  S1  1  0.34924222  0.31724792  0.62527094  1
  S  S2  1  0.96800470  0.65075778  0.62527094  1
  S  S3  1  0.68275208  0.03199530  0.62527094  1
  S  S4  1  0.31724792  0.34924222  0.12527094  1
  S  S5  1  0.65075778  0.96800470  0.12527094  1
  S  S6  1  0.03199530  0.68275208  0.12527094  1
  S  S7  1  0.65075778  0.68275208  0.37472906  1
  S  S8  1  0.03199530  0.34924222  0.37472906  1
  S  S9  1  0.31724792  0.96800470  0.37472906  1
  S  S10  1  0.68275208  0.65075778  0.87472906  1
  S  S11  1  0.34924222  0.03199530  0.87472906  1
loop_
_geom_bond_atom_site_label_1
_geom_bond_atom_site_label_2
_geom_bond_distance
_geom_bond_site_symmetry_2
Lu0 S8 2.688741 1_555
Lu0 S5 2.688741 1_445
Lu0 S4 2.688743 1_555
Lu0 S7 2.688743 1_445
Lu0 S6 2.688746 1_545
Lu0 S9 2.688746 1_545
Lu1 S2 2.688741 1_445
Lu1 S11 2.688741 1_555
Lu1 S10 2.688743 1_445
Lu1 S1 2.688743 1_555
Lu1 S0 2.688746 1_455
Lu1 S3 2.688746 1_455
Ag0 S7 2.803905 1_555
Ag0 S5 2.803905 1_545
Ag0 S4 2.803906 1_555
Ag0 S8 2.803906 1_655
Ag0 S9 2.803906 1_545
Ag0 S6 2.803906 1_655
Ag1 S1 2.803905 1_555
Ag1 S11 2.803905 1_565
Ag1 S10 2.803906 1_555
Ag1 S2 2.803906 1_455
Ag1 S3 2.803906 1_565
Ag1 S0 2.803906 1_455
P0 S3 2.024235 1_555
P0 S2 2.024242 1_555
P0 S1 2.024248 1_555
P0 P1 2.223875 1_555
P1 S0 2.024236 1_555
P1 S11 2.024242 1_555
P1 S10 2.024247 1_555
P2 S9 2.024235 1_555
P2 S8 2.024242 1_555
P2 S7 2.024248 1_555
P2 P3 2.223875 1_555
P3 S6 2.024236 1_555
P3 S5 2.024242 1_555
P3 S4 2.024247 1_555
