# generated using pymatgen
data_Cs2Ca(BrCl)2
_symmetry_space_group_name_H-M   'P 1'
_cell_length_a   9.85114702
_cell_length_b   9.85114633
_cell_length_c   7.65828669
_cell_angle_alpha   90.00000000
_cell_angle_beta   90.00000000
_cell_angle_gamma   134.34980987
_symmetry_Int_Tables_number   1
_chemical_formula_structural   Cs2Ca(BrCl)2
_chemical_formula_sum   'Cs4 Ca2 Br4 Cl4'
_cell_volume   531.45076925
_cell_formula_units_Z   2
loop_
 _symmetry_equiv_pos_site_id
 _symmetry_equiv_pos_as_xyz
  1  'x, y, z'
loop_
 _atom_site_type_symbol
 _atom_site_label
 _atom_site_symmetry_multiplicity
 _atom_site_fract_x
 _atom_site_fract_y
 _atom_site_fract_z
 _atom_site_occupancy
  Cs  Cs0  1  0.86034014  0.13965986  0.50000000  1
  Cs  Cs1  1  0.36034014  0.63965986  0.00000000  1
  Cs  Cs2  1  0.13965986  0.86034014  0.50000000  1
  Cs  Cs3  1  0.63965986  0.36034014  0.00000000  1
  Ca  Ca0  1  0.00000000  0.00000000  0.00000000  1
  Ca  Ca1  1  0.50000000  0.50000000  0.50000000  1
  Br  Br0  1  0.84036862  0.15963138  0.00000000  1
  Br  Br1  1  0.15963138  0.84036862  0.00000000  1
  Br  Br2  1  0.34036862  0.65963138  0.50000000  1
  Br  Br3  1  0.65963138  0.34036862  0.50000000  1
  Cl  Cl0  1  0.74994801  0.74994801  0.24992678  1
  Cl  Cl1  1  0.25005199  0.25005199  0.75007322  1
  Cl  Cl2  1  0.24994801  0.24994801  0.25007322  1
  Cl  Cl3  1  0.75005199  0.75005199  0.74992678  1
loop_
_geom_bond_atom_site_label_1
_geom_bond_atom_site_label_2
_geom_bond_distance
_geom_bond_site_symmetry_2
Ca0 Cl1 2.704778 1_554
Ca0 Cl0 2.704778 1_445
Ca0 Cl2 2.705011 1_555
Ca0 Cl3 2.705011 1_444
Ca1 Cl3 2.704778 1_555
Ca1 Cl2 2.704778 1_555
Ca1 Cl0 2.705011 1_555
Ca1 Cl1 2.705011 1_555
Br0 Ca0 2.898822 1_655
Br0 Cs3 3.644765 1_555
Br0 Cs1 3.838621 1_545
Br0 Cs1 3.838621 1_655
Br0 Cs0 3.846280 1_554
Br0 Cs0 3.846280 1_555
Br1 Ca0 2.898822 1_565
Br1 Cs1 3.644765 1_555
Br1 Cs3 3.838621 1_565
Br1 Cs3 3.838621 1_455
Br1 Cs2 3.846280 1_554
Br1 Cs2 3.846280 1_555
Br2 Ca1 2.898822 1_555
Br2 Cs2 3.644765 1_555
Br2 Cs0 3.838621 1_455
Br2 Cs0 3.838621 1_565
Br2 Cs1 3.846280 1_556
Br2 Cs1 3.846280 1_555
Br3 Ca1 2.898822 1_555
Br3 Cs0 3.644765 1_555
Br3 Cs2 3.838621 1_655
Br3 Cs2 3.838621 1_545
Br3 Cs3 3.846280 1_556
Br3 Cs3 3.846280 1_555
Cl0 Cs3 3.707404 1_555
Cl0 Cs1 3.707404 1_555
Cl0 Cs0 3.708392 1_565
Cl0 Cs2 3.708393 1_655
Cl1 Cs1 3.707404 1_556
Cl1 Cs3 3.707404 1_556
Cl1 Cs2 3.708392 1_545
Cl1 Cs0 3.708393 1_455
Cl2 Cs2 3.707404 1_545
Cl2 Cs0 3.707404 1_455
Cl2 Cs1 3.708392 1_555
Cl2 Cs3 3.708393 1_555
Cl3 Cs0 3.707404 1_565
Cl3 Cs2 3.707404 1_655
Cl3 Cs3 3.708392 1_556
Cl3 Cs1 3.708393 1_556
