# generated using pymatgen
data_Th3Sn13Rh4
_symmetry_space_group_name_H-M   'P 1'
_cell_length_a   9.74979695
_cell_length_b   9.74980096
_cell_length_c   9.74979411
_cell_angle_alpha   90.00002480
_cell_angle_beta   90.00001798
_cell_angle_gamma   89.99999506
_symmetry_Int_Tables_number   1
_chemical_formula_structural   Th3Sn13Rh4
_chemical_formula_sum   'Th6 Sn26 Rh8'
_cell_volume   926.80158010
_cell_formula_units_Z   2
loop_
 _symmetry_equiv_pos_site_id
 _symmetry_equiv_pos_as_xyz
  1  'x, y, z'
loop_
 _atom_site_type_symbol
 _atom_site_label
 _atom_site_symmetry_multiplicity
 _atom_site_fract_x
 _atom_site_fract_y
 _atom_site_fract_z
 _atom_site_occupancy
  Th  Th0  1  0.50000065  0.99999200  0.74999280  1
  Th  Th1  1  0.00000027  0.25000088  0.49999912  1
  Th  Th2  1  0.74999502  0.50000880  0.00000124  1
  Th  Th3  1  0.50000139  0.99999213  0.25000779  1
  Th  Th4  1  0.99999797  0.74999928  0.49999865  1
  Th  Th5  1  0.25000554  0.50000630  0.00000028  1
  Sn  Sn0  1  0.49999972  0.50000521  0.49999742  1
  Sn  Sn1  1  0.00000013  0.99999519  0.00000281  1
  Sn  Sn2  1  0.65193259  0.19220241  0.49999697  1
  Sn  Sn3  1  0.80778996  0.50000295  0.65193187  1
  Sn  Sn4  1  0.49999935  0.34806627  0.80778890  1
  Sn  Sn5  1  0.34806611  0.80779171  0.49999684  1
  Sn  Sn6  1  0.19220954  0.50000305  0.34806454  1
  Sn  Sn7  1  0.49999958  0.65193800  0.19221136  1
  Sn  Sn8  1  0.65193400  0.80779191  0.49999675  1
  Sn  Sn9  1  0.80779045  0.50000314  0.34806484  1
  Sn  Sn10  1  0.34806719  0.19220448  0.49999702  1
  Sn  Sn11  1  0.19221036  0.50000303  0.65193243  1
  Sn  Sn12  1  0.49999969  0.65193737  0.80778942  1
  Sn  Sn13  1  0.49999937  0.34806660  0.19221236  1
  Sn  Sn14  1  0.15194070  0.99999616  0.69219762  1
  Sn  Sn15  1  0.30779895  0.15193641  0.00000326  1
  Sn  Sn16  1  0.00000071  0.30779863  0.84806158  1
  Sn  Sn17  1  0.84805926  0.99999583  0.30780139  1
  Sn  Sn18  1  0.69219979  0.84805987  0.00000314  1
  Sn  Sn19  1  0.00000036  0.69220655  0.15194267  1
  Sn  Sn20  1  0.15194077  0.99999626  0.30780113  1
  Sn  Sn21  1  0.30780016  0.84805969  0.00000313  1
  Sn  Sn22  1  0.84805943  0.99999643  0.69219555  1
  Sn  Sn23  1  0.69220060  0.15193586  0.00000318  1
  Sn  Sn24  1  0.00000063  0.30779907  0.15194136  1
  Sn  Sn25  1  0.00000049  0.69220693  0.84806096  1
  Rh  Rh0  1  0.74999883  0.24999945  0.74999690  1
  Rh  Rh1  1  0.25000291  0.75000035  0.25000145  1
  Rh  Rh2  1  0.74999719  0.75000108  0.25000226  1
  Rh  Rh3  1  0.25000108  0.24999991  0.74999707  1
  Rh  Rh4  1  0.25000233  0.75000006  0.74999840  1
  Rh  Rh5  1  0.74999874  0.24999887  0.25000367  1
  Rh  Rh6  1  0.25000187  0.24999923  0.25000275  1
  Rh  Rh7  1  0.74999736  0.75000066  0.74999813  1
loop_
_geom_bond_atom_site_label_1
_geom_bond_atom_site_label_2
_geom_bond_distance
_geom_bond_site_symmetry_2
Sn0 Sn7 3.346551 1_555
Sn0 Sn5 3.346559 1_555
Sn0 Sn8 3.346564 1_555
Sn0 Sn13 3.346566 1_555
Sn0 Sn6 3.346586 1_555
Sn0 Sn11 3.346589 1_555
Sn0 Sn9 3.346591 1_555
Sn0 Sn3 3.346594 1_555
Sn0 Sn12 3.346599 1_555
Sn0 Sn4 3.346625 1_555
Sn0 Sn10 3.346679 1_555
Sn0 Sn2 3.346698 1_555
Sn1 Sn19 3.346605 1_555
Sn1 Sn25 3.346609 1_554
Sn1 Sn21 3.346685 1_555
Sn1 Sn18 3.346687 1_455
Sn1 Sn20 3.346690 1_555
Sn1 Sn17 3.346695 1_455
Sn1 Sn15 3.346699 1_565
Sn1 Sn23 3.346703 1_465
Sn1 Sn24 3.346732 1_565
Sn1 Sn16 3.346740 1_564
Sn1 Sn14 3.346751 1_554
Sn1 Sn22 3.346769 1_454
Sn2 Sn22 3.267989 1_545
Sn2 Th3 3.412741 1_545
Sn2 Th0 3.412793 1_545
Sn2 Th1 3.440059 1_655
Sn3 Sn9 2.962641 1_555
Sn3 Th4 3.412789 1_555
Sn3 Th1 3.412839 1_655
Sn3 Th2 3.440069 1_556
Sn4 Th5 3.412817 1_556
Sn4 Th2 3.412845 1_556
Sn4 Th0 3.440120 1_545
Sn5 Sn8 2.962650 1_555
Sn5 Th3 3.412706 1_555
Sn5 Th0 3.412749 1_555
Sn5 Th4 3.440054 1_455
Sn6 Th4 3.412810 1_455
Sn6 Th1 3.412843 1_555
Sn6 Th5 3.440021 1_555
Sn7 Th2 3.412776 1_555
Sn7 Th5 3.412781 1_555
Sn7 Th3 3.439927 1_555
Sn8 Th3 3.412693 1_555
Sn8 Th0 3.412744 1_555
Sn8 Th4 3.440014 1_555
Sn9 Th4 3.412787 1_555
Sn9 Th1 3.412844 1_655
Sn9 Th2 3.440014 1_555
Sn10 Sn2 2.962626 1_555
Sn10 Sn20 3.267983 1_545
Sn10 Sn14 3.268012 1_545
Sn10 Th3 3.412766 1_545
Sn10 Th0 3.412809 1_545
Sn10 Th1 3.440048 1_555
Sn11 Sn6 2.962649 1_555
Sn11 Sn25 3.268049 1_555
Sn11 Sn16 3.268056 1_555
Sn11 Th4 3.412814 1_455
Sn11 Th1 3.412840 1_555
Sn11 Th5 3.440054 1_556
Sn12 Sn4 2.962683 1_555
Sn12 Sn21 3.268011 1_556
Sn12 Sn18 3.268015 1_556
Sn12 Th5 3.412780 1_556
Sn12 Th2 3.412782 1_556
Sn12 Th0 3.439932 1_555
Sn13 Sn7 2.962686 1_555
Sn13 Sn15 3.268035 1_555
Sn13 Sn23 3.268043 1_555
Sn13 Th5 3.412820 1_555
Sn13 Th2 3.412839 1_555
Sn13 Th3 3.440121 1_545
Sn14 Sn22 2.962781 1_455
Sn14 Sn5 3.267984 1_555
Sn14 Th4 3.412783 1_455
Sn14 Th1 3.412827 1_565
Sn14 Th0 3.439979 1_555
Sn15 Sn21 2.962738 1_545
Sn15 Sn4 3.268064 1_554
Sn15 Th3 3.412862 1_545
Sn15 Th0 3.412900 1_544
Sn15 Th5 3.440074 1_555
Sn16 Sn24 2.962765 1_556
Sn16 Sn3 3.268064 1_455
Sn16 Th5 3.412868 1_556
Sn16 Th2 3.412892 1_456
Sn16 Th1 3.440007 1_555
Sn17 Sn20 2.962783 1_655
Sn17 Sn8 3.267951 1_555
Sn17 Sn2 3.267974 1_565
Sn17 Th4 3.412756 1_555
Sn17 Th1 3.412826 1_665
Sn17 Th3 3.439957 1_555
Sn18 Sn23 2.962730 1_565
Sn18 Sn7 3.267983 1_555
Sn18 Th3 3.412790 1_555
Sn18 Th0 3.412833 1_554
Sn18 Th2 3.439895 1_555
Sn19 Sn25 2.962784 1_554
Sn19 Sn6 3.268006 1_555
Sn19 Sn9 3.268012 1_455
Sn19 Th2 3.412830 1_455
Sn19 Th5 3.412847 1_555
Sn19 Th4 3.439936 1_455
Sn20 Sn5 3.267956 1_555
Sn20 Th4 3.412778 1_455
Sn20 Th1 3.412823 1_565
Sn20 Th3 3.439983 1_555
Sn21 Sn7 3.267976 1_555
Sn21 Th3 3.412805 1_555
Sn21 Th0 3.412842 1_554
Sn21 Th5 3.439917 1_555
Sn22 Sn8 3.267973 1_555
Sn22 Th4 3.412757 1_555
Sn22 Th1 3.412816 1_665
Sn22 Th0 3.439972 1_555
Sn23 Sn4 3.268070 1_554
Sn23 Th3 3.412844 1_545
Sn23 Th0 3.412887 1_544
Sn23 Th2 3.440105 1_555
Sn24 Sn6 3.268013 1_555
Sn24 Sn9 3.268023 1_455
Sn24 Th5 3.412878 1_555
Sn24 Th2 3.412891 1_455
Sn24 Th1 3.439962 1_555
Sn25 Sn3 3.268056 1_455
Sn25 Th2 3.412830 1_456
Sn25 Th5 3.412835 1_556
Sn25 Th4 3.439997 1_455
Rh0 Sn4 2.678210 1_555
Rh0 Sn2 2.678221 1_555
Rh0 Sn16 2.678238 1_655
Rh0 Sn3 2.678239 1_555
Rh0 Sn22 2.678240 1_545
Rh0 Sn23 2.678272 1_556
Rh0 Th1 3.447068 1_655
Rh0 Th0 3.447113 1_545
Rh0 Th2 3.447168 1_556
Rh1 Sn5 2.678159 1_555
Rh1 Sn7 2.678166 1_555
Rh1 Sn20 2.678178 1_555
Rh1 Sn6 2.678182 1_555
Rh1 Sn21 2.678185 1_555
Rh1 Sn19 2.678213 1_555
Rh1 Th3 3.447007 1_555
Rh1 Th5 3.447040 1_555
Rh1 Th4 3.447089 1_455
Rh2 Sn8 2.678150 1_555
Rh2 Sn17 2.678167 1_555
Rh2 Sn7 2.678178 1_555
Rh2 Sn9 2.678185 1_555
Rh2 Sn18 2.678190 1_555
Rh2 Sn19 2.678223 1_655
Rh2 Th3 3.446984 1_555
Rh2 Th2 3.447027 1_555
Rh2 Th4 3.447053 1_555
Rh3 Sn4 2.678197 1_555
Rh3 Sn10 2.678219 1_555
Rh3 Sn16 2.678224 1_555
Rh3 Sn11 2.678233 1_555
Rh3 Sn14 2.678241 1_545
Rh3 Sn15 2.678270 1_556
Rh3 Th1 3.447064 1_555
Rh3 Th0 3.447126 1_545
Rh3 Th5 3.447139 1_556
Rh4 Sn12 2.678175 1_555
Rh4 Sn14 2.678181 1_555
Rh4 Sn11 2.678186 1_555
Rh4 Sn5 2.678217 1_555
Rh4 Sn25 2.678219 1_555
Rh4 Sn21 2.678243 1_556
Rh4 Th0 3.447007 1_555
Rh4 Th5 3.447045 1_556
Rh4 Th4 3.447101 1_455
Rh5 Sn2 2.678162 1_555
Rh5 Sn13 2.678211 1_555
Rh5 Sn23 2.678217 1_555
Rh5 Sn17 2.678232 1_545
Rh5 Sn9 2.678233 1_555
Rh5 Sn24 2.678233 1_655
Rh5 Th1 3.447052 1_655
Rh5 Th3 3.447103 1_545
Rh5 Th2 3.447160 1_555
Rh6 Sn10 2.678164 1_555
Rh6 Sn13 2.678192 1_555
Rh6 Sn15 2.678206 1_555
Rh6 Sn24 2.678223 1_555
Rh6 Sn6 2.678232 1_555
Rh6 Sn20 2.678235 1_545
Rh6 Th1 3.447060 1_555
Rh6 Th3 3.447120 1_545
Rh6 Th5 3.447140 1_555
Rh7 Sn12 2.678181 1_555
Rh7 Sn22 2.678184 1_555
Rh7 Sn3 2.678194 1_555
Rh7 Sn8 2.678213 1_555
Rh7 Sn25 2.678232 1_655
Rh7 Sn18 2.678243 1_556
Rh7 Th0 3.446992 1_555
Rh7 Th2 3.447040 1_556
Rh7 Th4 3.447074 1_555
