# generated using pymatgen
data_Lu5Sc(AlAu)6
_symmetry_space_group_name_H-M   'P 1'
_cell_length_a   7.21251068
_cell_length_b   7.21310402
_cell_length_c   7.79193168
_cell_angle_alpha   90.00000000
_cell_angle_beta   90.00000000
_cell_angle_gamma   119.98284138
_symmetry_Int_Tables_number   1
_chemical_formula_structural   Lu5Sc(AlAu)6
_chemical_formula_sum   'Lu5 Sc1 Al6 Au6'
_cell_volume   351.12317628
_cell_formula_units_Z   1
loop_
 _symmetry_equiv_pos_site_id
 _symmetry_equiv_pos_as_xyz
  1  'x, y, z'
loop_
 _atom_site_type_symbol
 _atom_site_label
 _atom_site_symmetry_multiplicity
 _atom_site_fract_x
 _atom_site_fract_y
 _atom_site_fract_z
 _atom_site_occupancy
  Lu  Lu0  1  0.58858519  0.99922163  0.75000000  1
  Lu  Lu1  1  0.00024540  0.58910101  0.75000000  1
  Lu  Lu2  1  0.99920449  0.58828080  0.25000000  1
  Lu  Lu3  1  0.58878223  0.00019331  0.25000000  1
  Lu  Lu4  1  0.41206057  0.41156664  0.25000000  1
  Sc  Sc0  1  0.40783044  0.40851649  0.75000000  1
  Al  Al0  1  0.75004262  0.75001084  0.99662584  1
  Al  Al1  1  0.24912096  0.00199496  0.99903634  1
  Al  Al2  1  0.00197469  0.24913920  0.99902482  1
  Al  Al3  1  0.75004262  0.75001084  0.50337416  1
  Al  Al4  1  0.24912096  0.00199496  0.50096366  1
  Al  Al5  1  0.00197469  0.24913920  0.50097518  1
  Au  Au0  1  0.00307922  0.00303760  0.75000000  1
  Au  Au1  1  0.99915258  0.99915549  0.25000000  1
  Au  Au2  1  0.66512686  0.33423113  0.99618180  1
  Au  Au3  1  0.66512686  0.33423113  0.50381820  1
  Au  Au4  1  0.33426582  0.66508689  0.50231166  1
  Au  Au5  1  0.33426582  0.66508689  0.99768834  1
loop_
_geom_bond_atom_site_label_1
_geom_bond_atom_site_label_2
_geom_bond_distance
_geom_bond_site_symmetry_2
Al0 Au0 2.650567 1_665
Al0 Au1 2.669889 1_556
Al0 Au5 2.744462 1_555
Al0 Au2 2.744749 1_555
Al0 Al1 3.118003 1_665
Al0 Al2 3.118567 1_665
Al0 Sc0 3.126636 1_555
Al0 Lu4 3.138766 1_556
Al0 Lu0 3.220640 1_555
Al0 Lu1 3.223353 1_655
Al0 Lu2 3.253230 1_556
Al0 Lu3 3.256519 1_566
Al1 Au0 2.632103 1_555
Al1 Au1 2.652905 1_446
Al1 Au2 2.749448 1_555
Al1 Au5 2.788276 1_545
Al1 Al2 3.087306 1_555
Al1 Lu0 3.131997 1_545
Al1 Lu3 3.139667 1_556
Al1 Sc0 3.212354 1_555
Al1 Lu4 3.234618 1_556
Al1 Lu1 3.242569 1_545
Al1 Lu2 3.256077 1_446
Al2 Au0 2.632579 1_555
Al2 Au1 2.653189 1_446
Al2 Au5 2.749330 1_555
Al2 Au2 2.787505 1_455
Al2 Lu1 3.131933 1_555
Al2 Lu2 3.139706 1_456
Al2 Sc0 3.208113 1_555
Al2 Lu4 3.237548 1_556
Al2 Lu0 3.245382 1_445
Al2 Lu3 3.252915 1_456
Al3 Au0 2.650567 1_665
Al3 Au1 2.669889 1_555
Al3 Au4 2.744462 1_555
Al3 Au3 2.744749 1_555
Al3 Al4 3.118003 1_665
Al3 Al5 3.118567 1_665
Al3 Sc0 3.126636 1_555
Al3 Lu4 3.138766 1_555
Al3 Lu0 3.220640 1_555
Al3 Lu1 3.223353 1_655
Al3 Lu2 3.253230 1_555
Al3 Lu3 3.256519 1_565
Al4 Au0 2.632103 1_555
Al4 Au1 2.652905 1_445
Al4 Au3 2.749448 1_555
Al4 Au4 2.788276 1_545
Al4 Al5 3.087306 1_555
Al4 Lu0 3.131997 1_545
Al4 Lu3 3.139667 1_555
Al4 Sc0 3.212354 1_555
Al4 Lu4 3.234618 1_555
Al4 Lu1 3.242569 1_545
Al4 Lu2 3.256077 1_445
Al5 Au0 2.632579 1_555
Al5 Au1 2.653189 1_445
Al5 Au4 2.749330 1_555
Al5 Au3 2.787505 1_455
Al5 Lu1 3.131933 1_555
Al5 Lu2 3.139706 1_455
Al5 Sc0 3.208113 1_555
Al5 Lu4 3.237548 1_555
Al5 Lu0 3.245382 1_445
Al5 Lu3 3.252915 1_455
Au0 Sc0 2.922779 1_555
Au0 Lu1 2.975606 1_545
Au0 Lu0 2.975883 1_445
Au1 Lu3 2.963549 1_565
Au1 Lu2 2.963869 1_555
Au1 Lu4 2.977207 1_665
Au2 Sc0 2.899033 1_555
Au2 Lu1 2.908651 1_655
Au2 Lu0 2.913815 1_545
Au2 Lu4 2.927758 1_556
Au2 Lu2 2.943155 1_556
Au2 Lu3 2.948565 1_556
Au3 Sc0 2.899033 1_555
Au3 Lu1 2.908651 1_655
Au3 Lu0 2.913815 1_545
Au3 Lu4 2.927758 1_555
Au3 Lu2 2.943155 1_555
Au3 Lu3 2.948565 1_555
Au4 Sc0 2.900468 1_555
Au4 Lu0 2.911974 1_555
Au4 Lu1 2.917077 1_555
Au4 Lu4 2.923956 1_555
Au4 Lu3 2.939849 1_565
Au4 Lu2 2.945172 1_455
Au5 Sc0 2.900468 1_555
Au5 Lu0 2.911974 1_555
Au5 Lu1 2.917077 1_555
Au5 Lu4 2.923956 1_556
Au5 Lu3 2.939849 1_566
Au5 Lu2 2.945172 1_456
