# generated using pymatgen
data_Sc2Ni3BRh3
_symmetry_space_group_name_H-M   'P 1'
_cell_length_a   5.53392018
_cell_length_b   5.53391957
_cell_length_c   5.44600202
_cell_angle_alpha   59.46452754
_cell_angle_beta   59.46452947
_cell_angle_gamma   60.00000582
_symmetry_Int_Tables_number   1
_chemical_formula_structural   Sc2Ni3BRh3
_chemical_formula_sum   'Sc2 Ni3 B1 Rh3'
_cell_volume   116.96763145
_cell_formula_units_Z   1
loop_
 _symmetry_equiv_pos_site_id
 _symmetry_equiv_pos_as_xyz
  1  'x, y, z'
loop_
 _atom_site_type_symbol
 _atom_site_label
 _atom_site_symmetry_multiplicity
 _atom_site_fract_x
 _atom_site_fract_y
 _atom_site_fract_z
 _atom_site_occupancy
  Sc  Sc0  1  0.25000621  0.25000621  0.24998138  1
  Sc  Sc1  1  0.75411718  0.75411718  0.73764945  1
  Ni  Ni0  1  0.73770117  0.27188618  0.25271447  1
  Ni  Ni1  1  0.27188618  0.73770117  0.25271447  1
  Ni  Ni2  1  0.73769917  0.73769917  0.25271647  1
  B  B0  1  0.98933691  0.98933691  0.03198828  1
  Rh  Rh0  1  0.25726421  0.25726421  0.74074682  1
  Rh  Rh1  1  0.74472475  0.25726621  0.74074482  1
  Rh  Rh2  1  0.25726621  0.74472475  0.74074482  1
loop_
_geom_bond_atom_site_label_1
_geom_bond_atom_site_label_2
_geom_bond_distance
_geom_bond_site_symmetry_2
Ni0 Rh1 2.637301 1_555
Ni0 Rh0 2.637315 1_555
Ni0 Sc1 2.715720 1_554
Ni0 Sc1 2.736243 1_545
Ni0 Sc0 2.769133 1_655
Ni0 Sc0 2.769150 1_555
Ni1 Rh2 2.637301 1_555
Ni1 Rh0 2.637315 1_555
Ni1 Sc1 2.715720 1_554
Ni1 Sc1 2.736243 1_455
Ni1 Sc0 2.769133 1_565
Ni1 Sc0 2.769149 1_555
Ni2 Rh1 2.637293 1_555
Ni2 Rh2 2.637293 1_555
Ni2 Sc1 2.715725 1_554
Ni2 Sc1 2.736238 1_555
Ni2 Sc0 2.769141 1_565
Ni2 Sc0 2.769141 1_655
B0 Ni2 1.964836 1_555
B0 Ni0 1.964837 1_565
B0 Ni1 1.964837 1_655
B0 Rh0 2.081224 1_664
B0 Rh2 2.081228 1_654
B0 Rh1 2.081228 1_564
Rh0 Sc0 2.714108 1_555
Rh0 Sc0 2.733060 1_556
Rh0 Sc1 2.767284 1_545
Rh0 Sc1 2.767284 1_455
Rh1 Sc0 2.714103 1_655
Rh1 Sc0 2.733065 1_556
Rh1 Sc1 2.767281 1_555
Rh1 Sc1 2.767286 1_545
Rh2 Sc0 2.714103 1_565
Rh2 Sc0 2.733065 1_556
Rh2 Sc1 2.767281 1_555
Rh2 Sc1 2.767287 1_455
