# generated using pymatgen
data_Zr6Si7(NiRu)8
_symmetry_space_group_name_H-M   'P 1'
_cell_length_a   8.26781239
_cell_length_b   8.26781276
_cell_length_c   8.26781256
_cell_angle_alpha   60.00000083
_cell_angle_beta   59.99999931
_cell_angle_gamma   60.00000558
_symmetry_Int_Tables_number   1
_chemical_formula_structural   Zr6Si7(NiRu)8
_chemical_formula_sum   'Zr6 Si7 Ni8 Ru8'
_cell_volume   399.62890118
_cell_formula_units_Z   1
loop_
 _symmetry_equiv_pos_site_id
 _symmetry_equiv_pos_as_xyz
  1  'x, y, z'
loop_
 _atom_site_type_symbol
 _atom_site_label
 _atom_site_symmetry_multiplicity
 _atom_site_fract_x
 _atom_site_fract_y
 _atom_site_fract_z
 _atom_site_occupancy
  Zr  Zr0  1  0.70645156  0.70645156  0.29354844  1
  Zr  Zr1  1  0.29354844  0.70645156  0.29354844  1
  Zr  Zr2  1  0.70645156  0.29354844  0.29354844  1
  Zr  Zr3  1  0.29354844  0.29354844  0.70645156  1
  Zr  Zr4  1  0.70645156  0.29354844  0.70645156  1
  Zr  Zr5  1  0.29354844  0.70645156  0.70645156  1
  Si  Si0  1  0.00000000  0.00000000  0.00000000  1
  Si  Si1  1  0.00000000  0.00000000  0.50000000  1
  Si  Si2  1  0.50000000  0.00000000  0.50000000  1
  Si  Si3  1  0.00000000  0.50000000  0.50000000  1
  Si  Si4  1  0.50000000  0.50000000  0.00000000  1
  Si  Si5  1  0.00000000  0.50000000  0.00000000  1
  Si  Si6  1  0.50000000  0.00000000  0.00000000  1
  Ni  Ni0  1  0.66705858  0.66705858  0.99882427  1
  Ni  Ni1  1  0.66705858  0.99882427  0.66705858  1
  Ni  Ni2  1  0.99882427  0.66705858  0.66705858  1
  Ni  Ni3  1  0.66705858  0.66705858  0.66705858  1
  Ni  Ni4  1  0.33294142  0.33294142  0.00117573  1
  Ni  Ni5  1  0.33294142  0.00117573  0.33294142  1
  Ni  Ni6  1  0.00117573  0.33294142  0.33294142  1
  Ni  Ni7  1  0.33294142  0.33294142  0.33294142  1
  Ru  Ru0  1  0.87763378  0.87763378  0.36709767  1
  Ru  Ru1  1  0.87763378  0.36709767  0.87763378  1
  Ru  Ru2  1  0.36709767  0.87763378  0.87763378  1
  Ru  Ru3  1  0.87763378  0.87763378  0.87763378  1
  Ru  Ru4  1  0.12236622  0.12236622  0.63290233  1
  Ru  Ru5  1  0.12236622  0.63290233  0.12236622  1
  Ru  Ru6  1  0.63290233  0.12236622  0.12236622  1
  Ru  Ru7  1  0.12236622  0.12236622  0.12236622  1
loop_
_geom_bond_atom_site_label_1
_geom_bond_atom_site_label_2
_geom_bond_distance
_geom_bond_site_symmetry_2
Si1 Zr5 2.967131 1_545
Si1 Zr4 2.967131 1_455
Si1 Zr1 2.967131 1_545
Si1 Zr2 2.967131 1_455
Si2 Zr2 2.967130 1_555
Si2 Zr5 2.967130 1_545
Si2 Zr3 2.967131 1_555
Si2 Zr0 2.967131 1_545
Si3 Zr1 2.967130 1_555
Si3 Zr4 2.967130 1_455
Si3 Zr3 2.967131 1_555
Si3 Zr0 2.967131 1_455
Si4 Zr2 2.967131 1_555
Si4 Zr1 2.967131 1_555
Si4 Zr5 2.967131 1_554
Si4 Zr4 2.967131 1_554
Si5 Zr5 2.967130 1_554
Si5 Zr2 2.967130 1_455
Si5 Zr0 2.967131 1_455
Si5 Zr3 2.967131 1_554
Si6 Zr4 2.967130 1_554
Si6 Zr1 2.967130 1_545
Si6 Zr0 2.967131 1_545
Si6 Zr3 2.967131 1_554
Ni0 Si4 2.386725 1_556
Ni0 Si5 2.386725 1_656
Ni0 Si6 2.386725 1_566
Ni0 Ru3 2.570658 1_555
Ni0 Ru2 2.570665 1_555
Ni0 Ru1 2.570665 1_555
Ni0 Zr1 2.800555 1_556
Ni0 Zr0 2.800555 1_556
Ni0 Zr2 2.800555 1_556
Ni1 Si1 2.386725 1_665
Ni1 Si6 2.386725 1_566
Ni1 Si2 2.386725 1_565
Ni1 Ru3 2.570658 1_555
Ni1 Ru2 2.570664 1_555
Ni1 Ru0 2.570664 1_555
Ni1 Zr4 2.800555 1_565
Ni1 Zr2 2.800555 1_565
Ni1 Zr3 2.800555 1_565
Ni2 Si5 2.386725 1_656
Ni2 Si3 2.386725 1_655
Ni2 Si1 2.386725 1_665
Ni2 Ru3 2.570658 1_555
Ni2 Ru1 2.570664 1_555
Ni2 Ru0 2.570665 1_555
Ni2 Zr5 2.800555 1_655
Ni2 Zr1 2.800555 1_655
Ni2 Zr3 2.800555 1_655
Ni3 Si4 2.386725 1_556
Ni3 Si3 2.386725 1_655
Ni3 Si2 2.386725 1_565
Ni3 Ru0 2.570660 1_555
Ni3 Ru2 2.570660 1_555
Ni3 Ru1 2.570660 1_555
Ni3 Zr5 2.800555 1_555
Ni3 Zr0 2.800555 1_555
Ni3 Zr4 2.800555 1_555
Ni4 Si4 2.386725 1_555
Ni4 Si5 2.386725 1_555
Ni4 Si6 2.386725 1_555
Ni4 Ru7 2.570658 1_555
Ni4 Ru6 2.570665 1_555
Ni4 Ru5 2.570665 1_555
Ni4 Zr4 2.800555 1_554
Ni4 Zr3 2.800555 1_554
Ni4 Zr5 2.800555 1_554
Ni5 Si1 2.386725 1_555
Ni5 Si6 2.386725 1_555
Ni5 Si2 2.386725 1_555
Ni5 Ru7 2.570658 1_555
Ni5 Ru6 2.570664 1_555
Ni5 Ru4 2.570664 1_555
Ni5 Zr1 2.800555 1_545
Ni5 Zr5 2.800555 1_545
Ni5 Zr0 2.800555 1_545
Ni6 Si5 2.386725 1_555
Ni6 Si3 2.386725 1_555
Ni6 Si1 2.386725 1_555
Ni6 Ru7 2.570658 1_555
Ni6 Ru5 2.570664 1_555
Ni6 Ru4 2.570665 1_555
Ni6 Zr2 2.800555 1_455
Ni6 Zr4 2.800555 1_455
Ni6 Zr0 2.800555 1_455
Ni7 Si4 2.386725 1_555
Ni7 Si3 2.386725 1_555
Ni7 Si2 2.386725 1_555
Ni7 Ru4 2.570660 1_555
Ni7 Ru6 2.570660 1_555
Ni7 Ru5 2.570660 1_555
Ni7 Zr2 2.800555 1_555
Ni7 Zr3 2.800555 1_555
Ni7 Zr1 2.800555 1_555
Ru0 Si0 2.478144 1_665
Ru0 Si2 2.549766 1_565
Ru0 Si3 2.549766 1_655
Ru0 Si1 2.549773 1_665
Ru0 Zr0 2.846100 1_555
Ru0 Zr1 2.846107 1_655
Ru0 Zr2 2.846107 1_565
Ru1 Si0 2.478145 1_656
Ru1 Si3 2.549766 1_655
Ru1 Si4 2.549766 1_556
Ru1 Si5 2.549773 1_656
Ru1 Zr4 2.846100 1_555
Ru1 Zr2 2.846107 1_556
Ru1 Zr3 2.846107 1_655
Ru2 Si0 2.478144 1_566
Ru2 Si2 2.549766 1_565
Ru2 Si4 2.549766 1_556
Ru2 Si6 2.549773 1_566
Ru2 Zr5 2.846100 1_555
Ru2 Zr1 2.846107 1_556
Ru2 Zr3 2.846107 1_565
Ru3 Si0 2.478151 1_666
Ru3 Si1 2.549766 1_665
Ru3 Si6 2.549766 1_566
Ru3 Si5 2.549766 1_656
Ru3 Zr0 2.846106 1_556
Ru3 Zr5 2.846106 1_655
Ru3 Zr4 2.846106 1_565
Ru4 Si0 2.478144 1_556
Ru4 Si2 2.549766 1_555
Ru4 Si3 2.549766 1_555
Ru4 Si1 2.549773 1_555
Ru4 Zr3 2.846100 1_555
Ru4 Zr4 2.846107 1_455
Ru4 Zr5 2.846107 1_545
Ru5 Si0 2.478145 1_565
Ru5 Si3 2.549766 1_555
Ru5 Si4 2.549766 1_555
Ru5 Si5 2.549773 1_555
Ru5 Zr1 2.846100 1_555
Ru5 Zr5 2.846107 1_554
Ru5 Zr0 2.846107 1_455
Ru6 Si0 2.478144 1_655
Ru6 Si2 2.549766 1_555
Ru6 Si4 2.549766 1_555
Ru6 Si6 2.549773 1_555
Ru6 Zr2 2.846100 1_555
Ru6 Zr4 2.846107 1_554
Ru6 Zr0 2.846107 1_545
Ru7 Si0 2.478151 1_555
Ru7 Si1 2.549766 1_555
Ru7 Si6 2.549766 1_555
Ru7 Si5 2.549766 1_555
Ru7 Zr3 2.846106 1_554
Ru7 Zr2 2.846106 1_455
Ru7 Zr1 2.846106 1_545
