# generated using pymatgen
data_Al10CoIr2Rh
_symmetry_space_group_name_H-M   'P 1'
_cell_length_a   7.83423018
_cell_length_b   7.83945284
_cell_length_c   7.76424686
_cell_angle_alpha   90.00000000
_cell_angle_beta   90.00000000
_cell_angle_gamma   120.02505917
_symmetry_Int_Tables_number   1
_chemical_formula_structural   Al10CoIr2Rh
_chemical_formula_sum   'Al20 Co2 Ir4 Rh2'
_cell_volume   412.85954138
_cell_formula_units_Z   2
loop_
 _symmetry_equiv_pos_site_id
 _symmetry_equiv_pos_as_xyz
  1  'x, y, z'
loop_
 _atom_site_type_symbol
 _atom_site_label
 _atom_site_symmetry_multiplicity
 _atom_site_fract_x
 _atom_site_fract_y
 _atom_site_fract_z
 _atom_site_occupancy
  Al  Al0  1  0.00001443  0.99987764  0.99999810  1
  Al  Al1  1  0.00001443  0.99987764  0.50000190  1
  Al  Al2  1  0.47435474  0.95242917  0.25000000  1
  Al  Al3  1  0.52564300  0.47806087  0.75000000  1
  Al  Al4  1  0.95277823  0.47832286  0.75000000  1
  Al  Al5  1  0.04720809  0.52553429  0.25000000  1
  Al  Al6  1  0.47732695  0.52301198  0.25000000  1
  Al  Al7  1  0.52268743  0.04572146  0.75000000  1
  Al  Al8  1  0.19529470  0.39091690  0.93592153  1
  Al  Al9  1  0.80470048  0.19564703  0.43591169  1
  Al  Al10  1  0.39226346  0.19686163  0.43711191  1
  Al  Al11  1  0.60774144  0.80458896  0.93708195  1
  Al  Al12  1  0.19734494  0.80363197  0.93874891  1
  Al  Al13  1  0.80262211  0.60626493  0.06122788  1
  Al  Al14  1  0.80470048  0.19564703  0.06408831  1
  Al  Al15  1  0.80262211  0.60626493  0.43877212  1
  Al  Al16  1  0.39226346  0.19686163  0.06288809  1
  Al  Al17  1  0.60774144  0.80458896  0.56291805  1
  Al  Al18  1  0.19529470  0.39091690  0.56407847  1
  Al  Al19  1  0.19734494  0.80363197  0.56125109  1
  Co  Co0  1  0.33326852  0.66640632  0.75000000  1
  Co  Co1  1  0.66670002  0.33316380  0.25000000  1
  Ir  Ir0  1  0.13127791  0.26190330  0.25000000  1
  Ir  Ir1  1  0.86877727  0.13061927  0.75000000  1
  Ir  Ir2  1  0.26162085  0.13035449  0.75000000  1
  Ir  Ir3  1  0.73839687  0.86871788  0.25000000  1
  Rh  Rh0  1  0.12950389  0.86983869  0.25000000  1
  Rh  Rh1  1  0.87049012  0.74033450  0.75000000  1
loop_
_geom_bond_atom_site_label_1
_geom_bond_atom_site_label_2
_geom_bond_distance
_geom_bond_site_symmetry_2
Al0 Rh1 2.621266 1_455
Al0 Rh0 2.621275 1_556
Al0 Ir2 2.629899 1_565
Al0 Ir3 2.629972 1_456
Al0 Ir1 2.632458 1_465
Al0 Ir0 2.632640 1_566
Al1 Rh1 2.621266 1_455
Al1 Rh0 2.621275 1_555
Al1 Ir2 2.629899 1_565
Al1 Ir3 2.629972 1_455
Al1 Ir1 2.632458 1_465
Al1 Ir0 2.632640 1_565
Al2 Rh0 2.442853 1_555
Al2 Ir3 2.463364 1_555
Al2 Co1 2.584252 1_565
Al3 Rh1 2.442793 1_555
Al3 Ir2 2.462937 1_555
Al3 Co0 2.584272 1_555
Al4 Rh1 2.441267 1_555
Al4 Ir1 2.463316 1_555
Al4 Co0 2.580895 1_655
Al5 Rh0 2.441228 1_555
Al5 Ir0 2.463198 1_555
Al5 Co1 2.581012 1_455
Al6 Ir3 2.445579 1_555
Al6 Ir0 2.446658 1_555
Al6 Co1 2.574065 1_555
Al7 Ir2 2.445665 1_555
Al7 Ir1 2.447132 1_555
Al7 Co0 2.574586 1_545
Al8 Co0 2.362250 1_555
Al8 Ir0 2.591044 1_556
Al8 Ir1 2.750898 1_455
Al8 Ir2 2.754723 1_555
Al9 Co1 2.362420 1_555
Al9 Ir1 2.591338 1_555
Al9 Ir0 2.751236 1_655
Al9 Ir3 2.754959 1_545
Al10 Co1 2.361303 1_555
Al10 Ir2 2.585928 1_555
Al10 Ir0 2.755788 1_555
Al10 Rh0 2.763902 1_545
Al11 Co0 2.361355 1_555
Al11 Ir3 2.586177 1_556
Al11 Ir1 2.755685 1_565
Al11 Rh1 2.763774 1_555
Al12 Co0 2.363322 1_555
Al12 Rh0 2.582252 1_556
Al12 Ir2 2.769637 1_565
Al12 Rh1 2.771147 1_455
Al13 Co1 2.363112 1_555
Al13 Rh1 2.582121 1_554
Al13 Ir3 2.769592 1_555
Al13 Rh0 2.771329 1_655
Al14 Co1 2.362420 1_555
Al14 Ir1 2.591338 1_554
Al14 Ir0 2.751236 1_655
Al14 Ir3 2.754959 1_545
Al15 Co1 2.363112 1_555
Al15 Rh1 2.582121 1_555
Al15 Ir3 2.769592 1_555
Al15 Rh0 2.771329 1_655
Al16 Co1 2.361303 1_555
Al16 Ir2 2.585928 1_554
Al16 Ir0 2.755788 1_555
Al16 Rh0 2.763902 1_545
Al17 Co0 2.361355 1_555
Al17 Ir3 2.586177 1_555
Al17 Ir1 2.755685 1_565
Al17 Rh1 2.763774 1_555
Al18 Co0 2.362250 1_555
Al18 Ir0 2.591044 1_555
Al18 Ir1 2.750898 1_455
Al18 Ir2 2.754723 1_555
Al19 Co0 2.363322 1_555
Al19 Rh0 2.582252 1_555
Al19 Ir2 2.769637 1_565
Al19 Rh1 2.771147 1_455
