# generated using pymatgen
data_Sr3Tl2O6
_symmetry_space_group_name_H-M   'P 1'
_cell_length_a   3.52859700
_cell_length_b   12.02279900
_cell_length_c   17.23286900
_cell_angle_alpha   90.00000000
_cell_angle_beta   90.00000000
_cell_angle_gamma   90.00000000
_symmetry_Int_Tables_number   1
_chemical_formula_structural   Sr3Tl2O6
_chemical_formula_sum   'Sr12 Tl8 O24'
_cell_volume   731.08055643
_cell_formula_units_Z   4
loop_
 _symmetry_equiv_pos_site_id
 _symmetry_equiv_pos_as_xyz
  1  'x, y, z'
loop_
 _atom_site_type_symbol
 _atom_site_label
 _atom_site_symmetry_multiplicity
 _atom_site_fract_x
 _atom_site_fract_y
 _atom_site_fract_z
 _atom_site_occupancy
  Sr  Sr0  1  0.50000000  0.09634700  0.85382800  1
  Sr  Sr1  1  0.50000000  0.90365300  0.14617200  1
  Sr  Sr2  1  0.50000000  0.59634700  0.64617200  1
  Sr  Sr3  1  0.50000000  0.40365300  0.35382800  1
  Sr  Sr4  1  0.50000000  0.36709800  0.95895500  1
  Sr  Sr5  1  0.50000000  0.63290200  0.04104500  1
  Sr  Sr6  1  0.50000000  0.86709800  0.54104500  1
  Sr  Sr7  1  0.50000000  0.13290200  0.45895500  1
  Sr  Sr8  1  0.50000000  0.32526100  0.72558100  1
  Sr  Sr9  1  0.50000000  0.67473900  0.27441900  1
  Sr  Sr10  1  0.50000000  0.82526100  0.77441900  1
  Sr  Sr11  1  0.50000000  0.17473900  0.22558100  1
  Tl  Tl0  1  0.00000000  0.40886000  0.14732200  1
  Tl  Tl1  1  0.00000000  0.59114000  0.85267800  1
  Tl  Tl2  1  0.00000000  0.90886000  0.35267800  1
  Tl  Tl3  1  0.00000000  0.09114000  0.64732200  1
  Tl  Tl4  1  0.00000000  0.36814600  0.54231600  1
  Tl  Tl5  1  0.00000000  0.63185400  0.45768400  1
  Tl  Tl6  1  0.00000000  0.86814600  0.95768400  1
  Tl  Tl7  1  0.00000000  0.13185400  0.04231600  1
  O  O0  1  0.00000000  0.18621400  0.76128400  1
  O  O1  1  0.00000000  0.81378600  0.23871600  1
  O  O2  1  0.00000000  0.68621400  0.73871600  1
  O  O3  1  0.00000000  0.31378600  0.26128400  1
  O  O4  1  0.50000000  0.47284500  0.83029900  1
  O  O5  1  0.50000000  0.52715500  0.16970100  1
  O  O6  1  0.50000000  0.97284500  0.66970100  1
  O  O7  1  0.50000000  0.02715500  0.33029900  1
  O  O8  1  0.50000000  0.21304000  0.59648100  1
  O  O9  1  0.50000000  0.78696000  0.40351900  1
  O  O10  1  0.50000000  0.71304000  0.90351900  1
  O  O11  1  0.50000000  0.28696000  0.09648100  1
  O  O12  1  0.50000000  0.50000000  0.50000000  1
  O  O13  1  0.50000000  0.00000000  0.00000000  1
  O  O14  1  0.00000000  0.21301900  0.93442000  1
  O  O15  1  0.00000000  0.78698100  0.06558000  1
  O  O16  1  0.00000000  0.71301900  0.56558000  1
  O  O17  1  0.00000000  0.28698100  0.43442000  1
  O  O18  1  0.00000000  0.00000000  0.50000000  1
  O  O19  1  0.00000000  0.50000000  0.00000000  1
  O  O20  1  0.00000000  0.06128700  0.15381200  1
  O  O21  1  0.00000000  0.93871300  0.84618800  1
  O  O22  1  0.00000000  0.56128700  0.34618800  1
  O  O23  1  0.00000000  0.43871300  0.65381200  1
loop_
_geom_bond_atom_site_label_1
_geom_bond_atom_site_label_2
_geom_bond_distance
_geom_bond_site_symmetry_2
O0 Tl3 2.272322 1_555
O0 Sr8 2.507189 1_555
O0 Sr8 2.507189 1_455
O0 Sr0 2.612185 1_455
O0 Sr0 2.612185 1_555
O1 Tl2 2.272322 1_555
O1 Sr9 2.507189 1_455
O1 Sr9 2.507189 1_555
O1 Sr1 2.612185 1_555
O1 Sr1 2.612185 1_455
O2 Tl1 2.272322 1_555
O2 Sr10 2.507189 1_455
O2 Sr10 2.507189 1_555
O2 Sr2 2.612185 1_555
O2 Sr2 2.612185 1_455
O3 Tl0 2.272322 1_555
O3 Sr11 2.507189 1_455
O3 Sr11 2.507189 1_555
O3 Sr3 2.612185 1_555
O3 Sr3 2.612185 1_455
O4 Tl1 2.298747 1_555
O4 Tl1 2.298747 1_655
O4 Sr8 2.530800 1_555
O4 Sr4 2.555774 1_555
O5 Tl0 2.298747 1_555
O5 Tl0 2.298747 1_655
O5 Sr9 2.530800 1_555
O5 Sr5 2.555774 1_555
O6 Tl3 2.298747 1_565
O6 Tl3 2.298747 1_665
O6 Sr10 2.530800 1_555
O6 Sr6 2.555774 1_555
O7 Tl2 2.298747 1_645
O7 Tl2 2.298747 1_545
O7 Sr11 2.530800 1_555
O7 Sr7 2.555774 1_555
O8 Tl3 2.455257 1_655
O8 Tl3 2.455257 1_555
O8 Sr7 2.558329 1_555
O8 Sr8 2.601911 1_555
O8 Tl4 2.731580 1_655
O8 Tl4 2.731580 1_555
O9 Tl2 2.455257 1_555
O9 Tl2 2.455257 1_655
O9 Sr6 2.558329 1_555
O9 Sr9 2.601911 1_555
O9 Tl5 2.731580 1_555
O9 Tl5 2.731580 1_655
O10 Tl1 2.455257 1_655
O10 Tl1 2.455257 1_555
O10 Sr5 2.558329 1_556
O10 Sr10 2.601911 1_555
O10 Tl6 2.731580 1_555
O10 Tl6 2.731580 1_655
O11 Tl0 2.455257 1_555
O11 Tl0 2.455257 1_655
O11 Sr4 2.558329 1_554
O11 Sr11 2.601911 1_555
O11 Tl7 2.731580 1_555
O11 Tl7 2.731580 1_655
O12 Tl4 2.481441 1_655
O12 Tl5 2.481441 1_555
O12 Tl4 2.481441 1_555
O12 Tl5 2.481441 1_655
O12 Sr2 2.772539 1_555
O12 Sr3 2.772539 1_555
O13 Tl7 2.481441 1_555
O13 Tl7 2.481441 1_655
O13 Tl6 2.481441 1_644
O13 Tl6 2.481441 1_544
O13 Sr1 2.772539 1_545
O13 Sr0 2.772539 1_554
O14 Tl7 2.099870 1_556
O14 Sr4 2.592899 1_455
O14 Sr4 2.592899 1_555
O14 Sr0 2.647496 1_555
O14 Sr0 2.647496 1_455
O15 Tl6 2.099870 1_554
O15 Sr5 2.592899 1_455
O15 Sr5 2.592899 1_555
O15 Sr1 2.647496 1_455
O15 Sr1 2.647496 1_555
O16 Tl5 2.099870 1_555
O16 Sr6 2.592899 1_555
O16 Sr6 2.592899 1_455
O16 Sr2 2.647496 1_455
O16 Sr2 2.647496 1_555
O17 Tl4 2.099870 1_555
O17 Sr7 2.592899 1_455
O17 Sr7 2.592899 1_555
O17 Sr3 2.647496 1_555
O17 Sr3 2.647496 1_455
O18 Sr7 2.483182 1_455
O18 Sr7 2.483182 1_555
O18 Sr6 2.483182 1_445
O18 Sr6 2.483182 1_545
O18 Tl3 2.765157 1_555
O18 Tl2 2.765157 1_545
O19 Sr5 2.483182 1_455
O19 Sr5 2.483182 1_555
O19 Sr4 2.483182 1_554
O19 Sr4 2.483182 1_454
O19 Tl0 2.765157 1_555
O19 Tl1 2.765157 1_554
O20 Tl7 2.100373 1_555
O20 Sr11 2.550081 1_555
O20 Sr11 2.550081 1_455
O20 Sr1 2.592658 1_545
O20 Sr1 2.592658 1_445
O21 Tl6 2.100373 1_555
O21 Sr10 2.550081 1_455
O21 Sr10 2.550081 1_555
O21 Sr0 2.592658 1_565
O21 Sr0 2.592658 1_465
O22 Tl5 2.100373 1_555
O22 Sr9 2.550081 1_455
O22 Sr9 2.550081 1_555
O22 Sr3 2.592658 1_555
O22 Sr3 2.592658 1_455
O23 Tl4 2.100373 1_555
O23 Sr8 2.550081 1_555
O23 Sr8 2.550081 1_455
O23 Sr2 2.592658 1_455
O23 Sr2 2.592658 1_555
