# generated using pymatgen
data_Y4TaReOs6
_symmetry_space_group_name_H-M   'P 1'
_cell_length_a   5.23378957
_cell_length_b   5.23379012
_cell_length_c   9.06210896
_cell_angle_alpha   90.00000000
_cell_angle_beta   90.00000000
_cell_angle_gamma   116.47110604
_symmetry_Int_Tables_number   1
_chemical_formula_structural   Y4TaReOs6
_chemical_formula_sum   'Y4 Ta1 Re1 Os6'
_cell_volume   222.20925841
_cell_formula_units_Z   1
loop_
 _symmetry_equiv_pos_site_id
 _symmetry_equiv_pos_as_xyz
  1  'x, y, z'
loop_
 _atom_site_type_symbol
 _atom_site_label
 _atom_site_symmetry_multiplicity
 _atom_site_fract_x
 _atom_site_fract_y
 _atom_site_fract_z
 _atom_site_occupancy
  Y  Y0  1  0.33040985  0.66959015  0.43859258  1
  Y  Y1  1  0.66833731  0.33166269  0.56807130  1
  Y  Y2  1  0.66833731  0.33166269  0.93192870  1
  Y  Y3  1  0.33040985  0.66959015  0.06140742  1
  Ta  Ta0  1  0.84337812  0.15662188  0.25000000  1
  Re  Re0  1  0.15838953  0.84161047  0.75000000  1
  Os  Os0  1  0.00355320  0.99644680  0.50436592  1
  Os  Os1  1  0.00355320  0.99644680  0.99563408  1
  Os  Os2  1  0.82493948  0.64859648  0.25000000  1
  Os  Os3  1  0.35140352  0.17506052  0.25000000  1
  Os  Os4  1  0.17141224  0.35412359  0.75000000  1
  Os  Os5  1  0.64587641  0.82858776  0.75000000  1
loop_
_geom_bond_atom_site_label_1
_geom_bond_atom_site_label_2
_geom_bond_distance
_geom_bond_site_symmetry_2
Y0 Y1 3.228251 1_555
Y0 Y1 3.323927 1_455
Y0 Y1 3.323927 1_565
Y0 Y3 3.418093 1_555
Y1 Y2 3.297315 1_555
Y2 Y3 3.228251 1_556
Y2 Y3 3.323927 1_656
Y2 Y3 3.323927 1_546
Ta0 Y0 3.244283 1_545
Ta0 Y3 3.244283 1_545
Ta0 Y0 3.244283 1_655
Ta0 Y3 3.244283 1_655
Ta0 Y1 3.276432 1_555
Ta0 Y2 3.276432 1_554
Re0 Y3 3.210529 1_556
Re0 Y0 3.210529 1_555
Re0 Y2 3.212028 1_565
Re0 Y1 3.212028 1_565
Re0 Y2 3.212028 1_455
Re0 Y1 3.212028 1_455
Os0 Re0 2.617977 1_555
Os0 Ta0 2.710267 1_465
Os0 Os5 2.786569 1_455
Os0 Os4 2.786569 1_565
Os0 Os3 2.825702 1_565
Os0 Os2 2.825702 1_455
Os0 Y0 2.969377 1_555
Os0 Y1 3.038678 1_465
Os0 Y1 3.174148 1_565
Os0 Y1 3.174149 1_455
Os0 Y0 3.212623 1_455
Os0 Y0 3.212623 1_565
Os1 Re0 2.617977 1_555
Os1 Ta0 2.710267 1_466
Os1 Os5 2.786569 1_455
Os1 Os4 2.786569 1_565
Os1 Os3 2.825702 1_566
Os1 Os2 2.825702 1_456
Os1 Y3 2.969377 1_556
Os1 Y2 3.038678 1_465
Os1 Y2 3.174148 1_565
Os1 Y2 3.174149 1_455
Os1 Y3 3.212623 1_456
Os1 Y3 3.212623 1_566
Os2 Os3 2.609387 1_555
Os2 Ta0 2.617308 1_565
Os2 Ta0 2.619333 1_555
Os2 Os3 2.901043 1_665
Os2 Y0 3.110077 1_655
Os2 Y3 3.110077 1_655
Os2 Y0 3.144130 1_555
Os2 Y3 3.144130 1_555
Os2 Y1 3.243371 1_555
Os2 Y2 3.243371 1_554
Os3 Ta0 2.617308 1_455
Os3 Ta0 2.619333 1_555
Os3 Y0 3.110077 1_545
Os3 Y3 3.110077 1_545
Os3 Y0 3.144130 1_555
Os3 Y3 3.144130 1_555
Os3 Y1 3.243371 1_555
Os3 Y2 3.243371 1_554
Os4 Re0 2.582506 1_555
Os4 Os5 2.614502 1_555
Os4 Re0 2.652707 1_545
Os4 Os5 2.895929 1_445
Os4 Y2 3.064079 1_455
Os4 Y1 3.064079 1_455
Os4 Y2 3.125480 1_555
Os4 Y1 3.125480 1_555
Os4 Y3 3.187071 1_556
Os4 Y0 3.187071 1_555
Os5 Re0 2.582506 1_555
Os5 Re0 2.652706 1_655
Os5 Y2 3.064080 1_565
Os5 Y1 3.064080 1_565
Os5 Y2 3.125480 1_555
Os5 Y1 3.125480 1_555
Os5 Y3 3.187071 1_556
Os5 Y0 3.187071 1_555
