# generated using pymatgen
data_Zr6Al16IrPd6
_symmetry_space_group_name_H-M   'P 1'
_cell_length_a   8.72945112
_cell_length_b   8.72945202
_cell_length_c   8.72945199
_cell_angle_alpha   60.00000383
_cell_angle_beta   60.00000041
_cell_angle_gamma   60.00000584
_symmetry_Int_Tables_number   1
_chemical_formula_structural   Zr6Al16IrPd6
_chemical_formula_sum   'Zr6 Al16 Ir1 Pd6'
_cell_volume   470.37684650
_cell_formula_units_Z   1
loop_
 _symmetry_equiv_pos_site_id
 _symmetry_equiv_pos_as_xyz
  1  'x, y, z'
loop_
 _atom_site_type_symbol
 _atom_site_label
 _atom_site_symmetry_multiplicity
 _atom_site_fract_x
 _atom_site_fract_y
 _atom_site_fract_z
 _atom_site_occupancy
  Zr  Zr0  1  0.68755588  0.68755588  0.31244412  1
  Zr  Zr1  1  0.31244412  0.68755588  0.31244412  1
  Zr  Zr2  1  0.68755588  0.31244412  0.31244412  1
  Zr  Zr3  1  0.31244412  0.31244412  0.68755588  1
  Zr  Zr4  1  0.68755588  0.31244412  0.68755588  1
  Zr  Zr5  1  0.31244412  0.68755588  0.68755588  1
  Al  Al0  1  0.88105814  0.88105814  0.35682858  1
  Al  Al1  1  0.88105814  0.35682858  0.88105814  1
  Al  Al2  1  0.35682858  0.88105814  0.88105814  1
  Al  Al3  1  0.88105814  0.88105814  0.88105814  1
  Al  Al4  1  0.11894186  0.11894186  0.64317142  1
  Al  Al5  1  0.11894186  0.64317142  0.11894186  1
  Al  Al6  1  0.64317142  0.11894186  0.11894186  1
  Al  Al7  1  0.11894186  0.11894186  0.11894186  1
  Al  Al8  1  0.66695297  0.66695297  0.99914110  1
  Al  Al9  1  0.66695297  0.99914110  0.66695297  1
  Al  Al10  1  0.99914110  0.66695297  0.66695297  1
  Al  Al11  1  0.66695297  0.66695297  0.66695297  1
  Al  Al12  1  0.33304703  0.33304703  0.00085890  1
  Al  Al13  1  0.33304703  0.00085890  0.33304703  1
  Al  Al14  1  0.00085890  0.33304703  0.33304703  1
  Al  Al15  1  0.33304703  0.33304703  0.33304703  1
  Ir  Ir0  1  0.00000000  0.00000000  0.00000000  1
  Pd  Pd0  1  0.00000000  0.00000000  0.50000000  1
  Pd  Pd1  1  0.50000000  0.00000000  0.50000000  1
  Pd  Pd2  1  0.00000000  0.50000000  0.50000000  1
  Pd  Pd3  1  0.50000000  0.50000000  0.00000000  1
  Pd  Pd4  1  0.00000000  0.50000000  0.00000000  1
  Pd  Pd5  1  0.50000000  0.00000000  0.00000000  1
loop_
_geom_bond_atom_site_label_1
_geom_bond_atom_site_label_2
_geom_bond_distance
_geom_bond_site_symmetry_2
Zr0 Zr1 3.274520 1_555
Zr0 Zr5 3.274520 1_555
Zr0 Zr2 3.274520 1_555
Zr0 Zr4 3.274520 1_555
Zr1 Zr5 3.274520 1_555
Zr1 Zr2 3.274520 1_555
Zr1 Zr3 3.274520 1_555
Zr2 Zr3 3.274520 1_555
Zr2 Zr4 3.274520 1_555
Zr3 Zr4 3.274520 1_555
Zr3 Zr5 3.274520 1_555
Zr4 Zr5 3.274520 1_555
Al0 Ir0 2.543320 1_665
Al0 Pd0 2.718740 1_665
Al0 Pd1 2.718761 1_565
Al0 Pd2 2.718761 1_655
Al0 Al9 2.772900 1_555
Al0 Al10 2.772900 1_555
Al0 Al11 2.772913 1_555
Al0 Al7 2.936748 1_665
Al0 Al6 2.936785 1_565
Al0 Al5 2.936785 1_655
Al0 Zr1 3.165247 1_655
Al0 Zr2 3.165248 1_565
Al0 Zr0 3.165270 1_555
Al1 Ir0 2.543320 1_656
Al1 Pd4 2.718740 1_656
Al1 Pd3 2.718761 1_556
Al1 Pd2 2.718761 1_655
Al1 Al10 2.772900 1_555
Al1 Al8 2.772900 1_555
Al1 Al11 2.772914 1_555
Al1 Al7 2.936748 1_656
Al1 Al6 2.936785 1_556
Al1 Al4 2.936785 1_655
Al1 Zr3 3.165247 1_655
Al1 Zr2 3.165248 1_556
Al1 Zr4 3.165270 1_555
Al2 Ir0 2.543320 1_566
Al2 Pd5 2.718740 1_566
Al2 Pd1 2.718761 1_565
Al2 Pd3 2.718761 1_556
Al2 Al9 2.772899 1_555
Al2 Al8 2.772900 1_555
Al2 Al7 2.936748 1_566
Al2 Al5 2.936785 1_556
Al2 Al4 2.936785 1_565
Al2 Zr1 3.165248 1_556
Al2 Zr3 3.165248 1_565
Al2 Zr5 3.165270 1_555
Al3 Ir0 2.543298 1_666
Al3 Pd5 2.718762 1_566
Al3 Pd0 2.718762 1_665
Al3 Pd4 2.718762 1_656
Al3 Al8 2.772921 1_555
Al3 Al9 2.772921 1_555
Al3 Al4 2.936748 1_665
Al3 Al6 2.936748 1_566
Al3 Al5 2.936748 1_656
Al3 Zr5 3.165253 1_655
Al3 Zr0 3.165253 1_556
Al3 Zr4 3.165253 1_565
Al4 Ir0 2.543320 1_556
Al4 Pd0 2.718740 1_555
Al4 Pd1 2.718761 1_555
Al4 Pd2 2.718761 1_555
Al4 Zr4 3.165247 1_455
Al4 Zr5 3.165248 1_545
Al4 Zr3 3.165270 1_555
Al5 Ir0 2.543320 1_565
Al5 Pd4 2.718740 1_555
Al5 Pd3 2.718761 1_555
Al5 Pd2 2.718761 1_555
Al5 Zr0 3.165247 1_455
Al5 Zr5 3.165248 1_554
Al5 Zr1 3.165270 1_555
Al6 Ir0 2.543320 1_655
Al6 Pd5 2.718740 1_555
Al6 Pd1 2.718761 1_555
Al6 Pd3 2.718761 1_555
Al6 Zr4 3.165248 1_554
Al6 Zr0 3.165248 1_545
Al6 Zr2 3.165270 1_555
Al7 Ir0 2.543298 1_555
Al7 Pd5 2.718762 1_555
Al7 Pd0 2.718762 1_555
Al7 Pd4 2.718762 1_555
Al7 Zr2 3.165253 1_455
Al7 Zr3 3.165253 1_554
Al7 Zr1 3.165253 1_545
Al8 Pd3 2.519983 1_556
Al8 Pd4 2.519983 1_656
Al8 Pd5 2.519983 1_566
Al8 Al9 2.899821 1_555
Al8 Zr1 2.925892 1_556
Al8 Zr0 2.925892 1_556
Al8 Zr2 2.925892 1_556
Al9 Pd0 2.519983 1_665
Al9 Pd1 2.519983 1_565
Al9 Pd5 2.519983 1_566
Al9 Zr4 2.925892 1_565
Al9 Zr3 2.925892 1_565
Al9 Zr2 2.925892 1_565
Al10 Pd2 2.519983 1_655
Al10 Pd4 2.519983 1_656
Al10 Pd0 2.519983 1_665
Al10 Al3 2.772921 1_555
Al10 Al11 2.899820 1_555
Al10 Al8 2.899820 1_555
Al10 Al9 2.899821 1_555
Al10 Zr5 2.925892 1_655
Al10 Zr1 2.925892 1_655
Al10 Zr3 2.925892 1_655
Al11 Pd2 2.519983 1_655
Al11 Pd3 2.519983 1_556
Al11 Pd1 2.519983 1_565
Al11 Al2 2.772913 1_555
Al11 Al8 2.899820 1_555
Al11 Al9 2.899820 1_555
Al11 Zr5 2.925892 1_555
Al11 Zr0 2.925892 1_555
Al11 Zr4 2.925892 1_555
Al12 Pd3 2.519983 1_555
Al12 Pd4 2.519983 1_555
Al12 Pd5 2.519983 1_555
Al12 Al6 2.772900 1_555
Al12 Al5 2.772900 1_555
Al12 Al7 2.772921 1_555
Al12 Al14 2.899820 1_555
Al12 Al15 2.899820 1_555
Al12 Al13 2.899821 1_555
Al12 Zr4 2.925892 1_554
Al12 Zr3 2.925892 1_554
Al12 Zr5 2.925892 1_554
Al13 Pd0 2.519983 1_555
Al13 Pd1 2.519983 1_555
Al13 Pd5 2.519983 1_555
Al13 Al6 2.772899 1_555
Al13 Al4 2.772900 1_555
Al13 Al7 2.772921 1_555
Al13 Al15 2.899820 1_555
Al13 Al14 2.899821 1_555
Al13 Zr1 2.925892 1_545
Al13 Zr0 2.925892 1_545
Al13 Zr5 2.925892 1_545
Al14 Pd2 2.519983 1_555
Al14 Pd4 2.519983 1_555
Al14 Pd0 2.519983 1_555
Al14 Al5 2.772900 1_555
Al14 Al4 2.772900 1_555
Al14 Al7 2.772921 1_555
Al14 Al15 2.899820 1_555
Al14 Zr2 2.925892 1_455
Al14 Zr4 2.925892 1_455
Al14 Zr0 2.925892 1_455
Al15 Pd2 2.519983 1_555
Al15 Pd3 2.519983 1_555
Al15 Pd1 2.519983 1_555
Al15 Al4 2.772913 1_555
Al15 Al6 2.772913 1_555
Al15 Al5 2.772914 1_555
Al15 Zr2 2.925892 1_555
Al15 Zr3 2.925892 1_555
Al15 Zr1 2.925892 1_555
Pd0 Zr4 3.181146 1_455
Pd0 Zr5 3.181146 1_545
Pd0 Zr2 3.181146 1_455
Pd0 Zr1 3.181146 1_545
Pd1 Zr2 3.181146 1_555
Pd1 Zr5 3.181146 1_545
Pd1 Zr3 3.181146 1_555
Pd1 Zr0 3.181146 1_545
Pd2 Zr1 3.181146 1_555
Pd2 Zr4 3.181146 1_455
Pd2 Zr3 3.181146 1_555
Pd2 Zr0 3.181146 1_455
Pd3 Zr2 3.181146 1_555
Pd3 Zr1 3.181146 1_555
Pd3 Zr5 3.181146 1_554
Pd3 Zr4 3.181146 1_554
Pd4 Zr5 3.181146 1_554
Pd4 Zr2 3.181146 1_455
Pd4 Zr0 3.181146 1_455
Pd4 Zr3 3.181146 1_554
Pd5 Zr4 3.181146 1_554
Pd5 Zr1 3.181146 1_545
Pd5 Zr0 3.181146 1_545
Pd5 Zr3 3.181146 1_554
