# generated using pymatgen
data_RbVNiAs2
_symmetry_space_group_name_H-M   'P 1'
_cell_length_a   7.79032404
_cell_length_b   7.79032524
_cell_length_c   7.79032654
_cell_angle_alpha   150.98294612
_cell_angle_beta   150.98294754
_cell_angle_gamma   41.50043361
_symmetry_Int_Tables_number   1
_chemical_formula_structural   RbVNiAs2
_chemical_formula_sum   'Rb1 V1 Ni1 As2'
_cell_volume   110.99399864
_cell_formula_units_Z   1
loop_
 _symmetry_equiv_pos_site_id
 _symmetry_equiv_pos_as_xyz
  1  'x, y, z'
loop_
 _atom_site_type_symbol
 _atom_site_label
 _atom_site_symmetry_multiplicity
 _atom_site_fract_x
 _atom_site_fract_y
 _atom_site_fract_z
 _atom_site_occupancy
  Rb  Rb0  1  0.00000000  0.00000000  0.00000000  1
  V  V0  1  0.25000000  0.75000000  0.50000000  1
  Ni  Ni0  1  0.75000000  0.25000000  0.50000000  1
  As  As0  1  0.34496512  0.34496512  1.00000000  1
  As  As1  1  0.65503488  0.65503488  0.00000000  1
loop_
_geom_bond_atom_site_label_1
_geom_bond_atom_site_label_2
_geom_bond_distance
_geom_bond_site_symmetry_2
Ni0 V0 2.760070 1_555
Ni0 V0 2.760070 1_645
Ni0 V0 2.760070 1_656
Ni0 V0 2.760070 1_544
As0 Ni0 2.392374 1_455
As0 V0 2.392374 1_545
As0 V0 2.392375 1_556
As0 Ni0 2.392375 1_556
As0 Rb0 3.566569 1_667
As0 Rb0 3.566569 1_656
As0 Rb0 3.566570 1_566
As0 Rb0 3.566571 1_555
As1 V0 2.392374 1_655
As1 Ni0 2.392374 1_565
As1 Ni0 2.392375 1_554
As1 V0 2.392375 1_554
As1 Rb0 3.566569 1_554
As1 Rb0 3.566569 1_565
As1 Rb0 3.566570 1_655
As1 Rb0 3.566571 1_666
