# generated using pymatgen
data_CsMnBiTe3
_symmetry_space_group_name_H-M   'P 1'
_cell_length_a   8.84777538
_cell_length_b   8.84777479
_cell_length_c   11.95811727
_cell_angle_alpha   90.00000000
_cell_angle_beta   90.00000000
_cell_angle_gamma   150.07290095
_symmetry_Int_Tables_number   1
_chemical_formula_structural   CsMnBiTe3
_chemical_formula_sum   'Cs2 Mn2 Bi2 Te6'
_cell_volume   467.02750288
_cell_formula_units_Z   2
loop_
 _symmetry_equiv_pos_site_id
 _symmetry_equiv_pos_as_xyz
  1  'x, y, z'
loop_
 _atom_site_type_symbol
 _atom_site_label
 _atom_site_symmetry_multiplicity
 _atom_site_fract_x
 _atom_site_fract_y
 _atom_site_fract_z
 _atom_site_occupancy
  Cs  Cs0  1  0.25648142  0.74351858  0.25000000  1
  Cs  Cs1  1  0.74351858  0.25648142  0.75000000  1
  Mn  Mn0  1  0.53748546  0.46251454  0.25000000  1
  Mn  Mn1  1  0.46251454  0.53748546  0.75000000  1
  Bi  Bi0  1  0.00000000  0.00000000  0.50000000  1
  Bi  Bi1  1  0.00000000  0.00000000  0.00000000  1
  Te  Te0  1  0.62194591  0.37805409  0.44349147  1
  Te  Te1  1  0.37805409  0.62194591  0.55650853  1
  Te  Te2  1  0.62194591  0.37805409  0.05650853  1
  Te  Te3  1  0.37805409  0.62194591  0.94349147  1
  Te  Te4  1  0.94106807  0.05893193  0.25000000  1
  Te  Te5  1  0.05893193  0.94106807  0.75000000  1
loop_
_geom_bond_atom_site_label_1
_geom_bond_atom_site_label_2
_geom_bond_distance
_geom_bond_site_symmetry_2
Cs0 Te4 3.895756 1_455
Cs0 Te4 3.895757 1_565
Cs0 Te0 3.982778 1_565
Cs0 Te2 3.982778 1_565
Cs0 Te0 3.982778 1_455
Cs0 Te2 3.982778 1_455
Cs0 Te1 4.213512 1_555
Cs0 Te3 4.213512 1_554
Cs1 Te5 3.895756 1_655
Cs1 Te5 3.895757 1_545
Cs1 Te3 3.982778 1_545
Cs1 Te1 3.982778 1_545
Cs1 Te3 3.982778 1_655
Cs1 Te1 3.982778 1_655
Cs1 Te2 4.213512 1_556
Cs1 Te0 4.213512 1_555
Mn0 Te0 2.727356 1_555
Mn0 Te2 2.727356 1_555
Mn0 Te4 2.817091 1_565
Mn0 Te4 2.817092 1_455
Mn1 Te3 2.727356 1_555
Mn1 Te1 2.727356 1_555
Mn1 Te5 2.817091 1_545
Mn1 Te5 2.817092 1_655
Bi0 Te4 3.154724 1_455
Bi0 Te5 3.154724 1_545
Bi0 Te1 3.165723 1_555
Bi0 Te0 3.165723 1_445
Bi0 Te0 3.165723 1_555
Bi0 Te1 3.165723 1_445
Bi1 Te4 3.154724 1_455
Bi1 Te5 3.154724 1_544
Bi1 Te3 3.165723 1_554
Bi1 Te2 3.165723 1_445
Bi1 Te2 3.165723 1_555
Bi1 Te3 3.165723 1_444
