# generated using pymatgen
data_Rb2Ag2SnTe4
_symmetry_space_group_name_H-M   'P 1'
_cell_length_a   6.32135544
_cell_length_b   8.30976353
_cell_length_c   13.35991659
_cell_angle_alpha   66.38110908
_cell_angle_beta   90.00000000
_cell_angle_gamma   90.00000000
_symmetry_Int_Tables_number   1
_chemical_formula_structural   Rb2Ag2SnTe4
_chemical_formula_sum   'Rb4 Ag4 Sn2 Te8'
_cell_volume   642.99478893
_cell_formula_units_Z   2
loop_
 _symmetry_equiv_pos_site_id
 _symmetry_equiv_pos_as_xyz
  1  'x, y, z'
loop_
 _atom_site_type_symbol
 _atom_site_label
 _atom_site_symmetry_multiplicity
 _atom_site_fract_x
 _atom_site_fract_y
 _atom_site_fract_z
 _atom_site_occupancy
  Rb  Rb0  1  0.52051044  0.00000000  0.25000000  1
  Rb  Rb1  1  0.00000000  0.00000000  0.00000000  1
  Rb  Rb2  1  0.47948956  0.00000000  0.75000000  1
  Rb  Rb3  1  0.00000000  0.00000000  0.50000000  1
  Ag  Ag0  1  0.75137257  0.49831516  0.02126902  1
  Ag  Ag1  1  0.24862743  0.49831516  0.52126902  1
  Ag  Ag2  1  0.24862743  0.50168484  0.97873098  1
  Ag  Ag3  1  0.75137257  0.50168484  0.47873098  1
  Sn  Sn0  1  0.25125487  0.50000000  0.25000000  1
  Sn  Sn1  1  0.74874513  0.50000000  0.75000000  1
  Te  Te0  1  0.02367157  0.72496026  0.31609353  1
  Te  Te1  1  0.51812126  0.27686615  0.92756402  1
  Te  Te2  1  0.48187874  0.72313385  0.07243598  1
  Te  Te3  1  0.51812126  0.72313385  0.57243598  1
  Te  Te4  1  0.02367157  0.27503974  0.18390647  1
  Te  Te5  1  0.48187874  0.27686615  0.42756402  1
  Te  Te6  1  0.97632843  0.72496026  0.81609353  1
  Te  Te7  1  0.97632843  0.27503974  0.68390647  1
loop_
_geom_bond_atom_site_label_1
_geom_bond_atom_site_label_2
_geom_bond_distance
_geom_bond_site_symmetry_2
Rb0 Te0 3.774933 1_545
Rb0 Te4 3.774933 1_555
Rb0 Te4 3.808248 1_655
Rb0 Te0 3.808248 1_645
Rb0 Te5 3.918378 1_555
Rb0 Te2 3.918378 1_545
Rb0 Te3 3.988528 1_545
Rb0 Te1 3.988528 1_554
Rb1 Te2 3.704661 1_545
Rb1 Te1 3.704661 1_454
Rb1 Te1 3.895222 1_554
Rb1 Te2 3.895222 1_445
Rb1 Te0 3.917350 1_545
Rb1 Te7 3.917350 1_454
Rb1 Te4 3.972704 1_555
Rb1 Te6 3.972704 1_444
Rb2 Te6 3.774933 1_545
Rb2 Te7 3.774933 1_555
Rb2 Te6 3.808248 1_445
Rb2 Te7 3.808248 1_455
Rb2 Te1 3.918378 1_555
Rb2 Te3 3.918378 1_545
Rb2 Te2 3.988528 1_546
Rb2 Te5 3.988528 1_555
Rb3 Te5 3.704661 1_555
Rb3 Te3 3.704661 1_445
Rb3 Te3 3.895222 1_545
Rb3 Te5 3.895222 1_455
Rb3 Te6 3.917350 1_445
Rb3 Te4 3.917350 1_555
Rb3 Te7 3.972704 1_455
Rb3 Te0 3.972704 1_545
Ag0 Te2 2.807647 1_555
Ag0 Te4 2.809992 1_655
Ag0 Te6 2.991028 1_554
Ag0 Te1 2.995587 1_554
Ag1 Te3 2.807647 1_555
Ag1 Te7 2.809992 1_455
Ag1 Te0 2.991028 1_555
Ag1 Te5 2.995587 1_555
Ag2 Te1 2.807647 1_555
Ag2 Te6 2.809992 1_455
Ag2 Te4 2.991028 1_556
Ag2 Te2 2.995587 1_556
Ag3 Te5 2.807647 1_555
Ag3 Te0 2.809992 1_655
Ag3 Te7 2.991028 1_555
Ag3 Te3 2.995587 1_555
Sn0 Te5 2.768807 1_555
Sn0 Te2 2.768807 1_555
Sn0 Te0 2.768858 1_555
Sn0 Te4 2.768858 1_555
Sn1 Te1 2.768807 1_555
Sn1 Te3 2.768807 1_555
Sn1 Te6 2.768858 1_555
Sn1 Te7 2.768858 1_555
