# generated using pymatgen
data_Sr5Sb3H
_symmetry_space_group_name_H-M   'P 1'
_cell_length_a   9.51382215
_cell_length_b   9.51380158
_cell_length_c   7.33004873
_cell_angle_alpha   90.00000000
_cell_angle_beta   90.00000000
_cell_angle_gamma   120.00042922
_symmetry_Int_Tables_number   1
_chemical_formula_structural   Sr5Sb3H
_chemical_formula_sum   'Sr10 Sb6 H2'
_cell_volume   574.57236445
_cell_formula_units_Z   2
loop_
 _symmetry_equiv_pos_site_id
 _symmetry_equiv_pos_as_xyz
  1  'x, y, z'
loop_
 _atom_site_type_symbol
 _atom_site_label
 _atom_site_symmetry_multiplicity
 _atom_site_fract_x
 _atom_site_fract_y
 _atom_site_fract_z
 _atom_site_occupancy
  Sr  Sr0  1  0.75484403  0.75484351  0.25000000  1
  Sr  Sr1  1  0.75484110  0.99999944  0.75000000  1
  Sr  Sr2  1  0.00000104  0.24515783  0.25000000  1
  Sr  Sr3  1  0.99999896  0.75484217  0.75000000  1
  Sr  Sr4  1  0.24515597  0.24515649  0.75000000  1
  Sr  Sr5  1  0.24515890  0.00000056  0.25000000  1
  Sr  Sr6  1  0.33333430  0.66667021  0.50000002  1
  Sr  Sr7  1  0.66666570  0.33332979  0.00000002  1
  Sr  Sr8  1  0.66666570  0.33332979  0.49999998  1
  Sr  Sr9  1  0.33333430  0.66667021  0.99999998  1
  Sb  Sb0  1  0.39136623  0.99999727  0.75000000  1
  Sb  Sb1  1  0.39135962  0.39135725  0.25000000  1
  Sb  Sb2  1  0.00000493  0.60864112  0.25000000  1
  Sb  Sb3  1  0.99999507  0.39135888  0.75000000  1
  Sb  Sb4  1  0.60864038  0.60864275  0.75000000  1
  Sb  Sb5  1  0.60863377  0.00000273  0.25000000  1
  H  H0  1  0.00000000  0.00000000  0.50000000  1
  H  H1  1  0.00000000  0.00000000  0.00000000  1
loop_
_geom_bond_atom_site_label_1
_geom_bond_atom_site_label_2
_geom_bond_distance
_geom_bond_site_symmetry_2
Sb0 Sr3 3.258708 1_455
Sb0 Sr4 3.258750 1_565
Sb0 Sr1 3.458025 1_555
Sb0 Sr6 3.459568 1_555
Sb0 Sr9 3.459568 1_555
Sb0 Sr7 3.459599 1_566
Sb0 Sr8 3.459599 1_565
Sb0 Sr5 3.920115 1_566
Sb0 Sr5 3.920115 1_565
Sb1 Sr5 3.258631 1_555
Sb1 Sr2 3.258657 1_555
Sb1 Sr0 3.458109 1_555
Sb1 Sr8 3.459644 1_555
Sb1 Sr7 3.459644 1_555
Sb1 Sr9 3.459684 1_554
Sb1 Sr6 3.459684 1_555
Sb1 Sr4 3.920088 1_555
Sb1 Sr4 3.920088 1_554
Sb2 Sr5 3.258643 1_565
Sb2 Sr0 3.258708 1_455
Sb2 Sr2 3.458089 1_555
Sb2 Sr9 3.459601 1_554
Sb2 Sr6 3.459601 1_555
Sb2 Sr8 3.459669 1_455
Sb2 Sr7 3.459669 1_455
Sb2 Sr3 3.920097 1_454
Sb2 Sr3 3.920097 1_455
Sb3 Sr1 3.258643 1_545
Sb3 Sr4 3.258708 1_655
Sb3 Sr3 3.458089 1_555
Sb3 Sr7 3.459601 1_556
Sb3 Sr8 3.459601 1_555
Sb3 Sr6 3.459669 1_655
Sb3 Sr9 3.459669 1_655
Sb3 Sr2 3.920097 1_655
Sb3 Sr2 3.920097 1_656
Sb4 Sr1 3.258631 1_555
Sb4 Sr3 3.258657 1_555
Sb4 Sr4 3.458109 1_555
Sb4 Sr6 3.459644 1_555
Sb4 Sr9 3.459644 1_555
Sb4 Sr7 3.459684 1_556
Sb4 Sr8 3.459684 1_555
Sb4 Sr0 3.920088 1_555
Sb4 Sr0 3.920088 1_556
Sb5 Sr2 3.258708 1_655
Sb5 Sr0 3.258750 1_545
Sb5 Sr5 3.458025 1_555
Sb5 Sr8 3.459568 1_555
Sb5 Sr7 3.459568 1_555
Sb5 Sr9 3.459599 1_544
Sb5 Sr6 3.459599 1_545
Sb5 Sr1 3.920115 1_544
Sb5 Sr1 3.920115 1_545
H0 Sr4 2.966139 1_555
H0 Sr0 2.966139 1_445
H0 Sr2 2.966157 1_555
H0 Sr3 2.966157 1_445
H0 Sr5 2.966171 1_555
H0 Sr1 2.966171 1_445
H1 Sr4 2.966139 1_554
H1 Sr0 2.966139 1_445
H1 Sr2 2.966157 1_555
H1 Sr3 2.966157 1_444
H1 Sr5 2.966171 1_555
H1 Sr1 2.966171 1_444
