# generated using pymatgen
data_KCr2InO8
_symmetry_space_group_name_H-M   'P 1'
_cell_length_a   5.31561501
_cell_length_b   5.31561607
_cell_length_c   7.52822536
_cell_angle_alpha   90.00000000
_cell_angle_beta   90.00000000
_cell_angle_gamma   120.00000540
_symmetry_Int_Tables_number   1
_chemical_formula_structural   KCr2InO8
_chemical_formula_sum   'K1 Cr2 In1 O8'
_cell_volume   184.21727095
_cell_formula_units_Z   1
loop_
 _symmetry_equiv_pos_site_id
 _symmetry_equiv_pos_as_xyz
  1  'x, y, z'
loop_
 _atom_site_type_symbol
 _atom_site_label
 _atom_site_symmetry_multiplicity
 _atom_site_fract_x
 _atom_site_fract_y
 _atom_site_fract_z
 _atom_site_occupancy
  K  K0  1  0.00000000  0.00000000  0.50000100  1
  Cr  Cr0  1  0.33333400  0.66666800  0.24603993  1
  Cr  Cr1  1  0.66666600  0.33333400  0.75396007  1
  In  In0  1  0.00000000  0.00000000  0.00000000  1
  O  O0  1  0.07258320  0.34453609  0.17621550  1
  O  O1  1  0.65546491  0.72804811  0.17621550  1
  O  O2  1  0.27195189  0.92741580  0.17621550  1
  O  O3  1  0.33333400  0.66666800  0.45930992  1
  O  O4  1  0.66666600  0.33333400  0.54069008  1
  O  O5  1  0.72804711  0.07258320  0.82378450  1
  O  O6  1  0.34453709  0.27195389  0.82378450  1
  O  O7  1  0.92741480  0.65546291  0.82378450  1
loop_
_geom_bond_atom_site_label_1
_geom_bond_atom_site_label_2
_geom_bond_distance
_geom_bond_site_symmetry_2
K0 O5 2.955983 1_455
K0 O7 2.955985 1_445
K0 O6 2.955986 1_555
K0 O1 2.955993 1_445
K0 O2 2.955995 1_545
K0 O0 2.955996 1_555
K0 O4 3.084218 1_555
K0 O4 3.084218 1_445
K0 O3 3.084219 1_445
K0 O3 3.084220 1_545
K0 O4 3.084227 1_455
K0 O3 3.084229 1_555
Cr0 O3 1.605545 1_555
Cr0 O2 1.660153 1_555
Cr0 O1 1.660161 1_555
Cr0 O0 1.660164 1_555
Cr1 O4 1.605545 1_555
Cr1 O6 1.660151 1_555
Cr1 O7 1.660151 1_555
Cr1 O5 1.660164 1_555
In0 O1 2.134521 1_445
In0 O2 2.134524 1_545
In0 O5 2.134525 1_454
In0 O0 2.134526 1_555
In0 O7 2.134527 1_444
In0 O6 2.134529 1_554
