# generated using pymatgen
data_Ba4ScMn3O12
_symmetry_space_group_name_H-M   'P 1'
_cell_length_a   5.73739022
_cell_length_b   5.73739169
_cell_length_c   9.92273501
_cell_angle_alpha   73.19573002
_cell_angle_beta   73.19572384
_cell_angle_gamma   60.00000471
_symmetry_Int_Tables_number   1
_chemical_formula_structural   Ba4ScMn3O12
_chemical_formula_sum   'Ba4 Sc1 Mn3 O12'
_cell_volume   266.64540181
_cell_formula_units_Z   1
loop_
 _symmetry_equiv_pos_site_id
 _symmetry_equiv_pos_as_xyz
  1  'x, y, z'
loop_
 _atom_site_type_symbol
 _atom_site_label
 _atom_site_symmetry_multiplicity
 _atom_site_fract_x
 _atom_site_fract_y
 _atom_site_fract_z
 _atom_site_occupancy
  Ba  Ba0  1  0.28629025  0.28629025  0.14113024  1
  Ba  Ba1  1  0.12845047  0.12845047  0.61464958  1
  Ba  Ba2  1  0.71370975  0.71370975  0.85886976  1
  Ba  Ba3  1  0.87154953  0.87154953  0.38535042  1
  Sc  Sc0  1  0.00000000  0.00000000  0.00000000  1
  Mn  Mn0  1  0.40951978  0.40951978  0.77144165  1
  Mn  Mn1  1  0.59048022  0.59048022  0.22855835  1
  Mn  Mn2  1  0.50000000  0.50000000  0.50000000  1
  O  O0  1  0.78294556  0.78294556  0.12766764  1
  O  O1  1  0.21705444  0.21705444  0.87233236  1
  O  O2  1  0.78294556  0.30644024  0.12766764  1
  O  O3  1  0.83460339  0.39688346  0.37162868  1
  O  O4  1  0.21705444  0.69355976  0.87233236  1
  O  O5  1  0.39688346  0.83460339  0.37162868  1
  O  O6  1  0.39688346  0.39688346  0.37162868  1
  O  O7  1  0.60311654  0.16539661  0.62837132  1
  O  O8  1  0.60311654  0.60311654  0.62837132  1
  O  O9  1  0.30644024  0.78294556  0.12766764  1
  O  O10  1  0.16539661  0.60311654  0.62837132  1
  O  O11  1  0.69355976  0.21705444  0.87233236  1
loop_
_geom_bond_atom_site_label_1
_geom_bond_atom_site_label_2
_geom_bond_distance
_geom_bond_site_symmetry_2
Ba0 O6 2.849078 1_555
Ba0 O3 2.849085 1_455
Ba0 O5 2.849085 1_545
Ba0 O2 2.872506 1_555
Ba0 O9 2.872507 1_555
Ba0 O0 2.872513 1_455
Ba0 O0 2.872513 1_545
Ba0 O2 2.872518 1_455
Ba0 O9 2.872518 1_545
Ba0 O1 2.968605 1_554
Ba0 O11 2.968605 1_554
Ba0 O4 2.968606 1_554
Ba1 O7 2.878966 1_455
Ba1 O7 2.878966 1_555
Ba1 O8 2.878966 1_455
Ba1 O8 2.878967 1_545
Ba1 O10 2.878967 1_555
Ba1 O10 2.878967 1_545
Ba1 O6 2.938711 1_555
Ba1 O5 2.938717 1_545
Ba1 O3 2.938717 1_455
Ba1 O1 2.969215 1_555
Ba1 O11 2.969215 1_455
Ba1 O4 2.969216 1_545
Ba2 O8 2.849078 1_555
Ba2 O10 2.849085 1_655
Ba2 O7 2.849085 1_565
Ba2 O4 2.872506 1_555
Ba2 O11 2.872507 1_555
Ba2 O1 2.872513 1_655
Ba2 O1 2.872513 1_565
Ba2 O4 2.872518 1_655
Ba2 O11 2.872518 1_565
Ba2 O0 2.968605 1_556
Ba2 O9 2.968605 1_556
Ba2 O2 2.968606 1_556
Ba3 O5 2.878966 1_655
Ba3 O5 2.878966 1_555
Ba3 O6 2.878966 1_655
Ba3 O6 2.878967 1_565
Ba3 O3 2.878967 1_555
Ba3 O3 2.878967 1_565
Ba3 O8 2.938711 1_555
Ba3 O7 2.938717 1_565
Ba3 O10 2.938717 1_655
Ba3 O0 2.969215 1_555
Ba3 O9 2.969215 1_655
Ba3 O2 2.969216 1_565
Mn0 O11 1.839004 1_555
Mn0 O1 1.839004 1_555
Mn0 O4 1.839004 1_555
Mn0 O10 1.973102 1_555
Mn0 O7 1.973102 1_555
Mn0 O8 1.973102 1_555
Mn1 O9 1.839004 1_555
Mn1 O0 1.839004 1_555
Mn1 O2 1.839004 1_555
Mn1 O3 1.973102 1_555
Mn1 O5 1.973102 1_555
Mn1 O6 1.973102 1_555
Mn2 O10 1.882566 1_555
Mn2 O3 1.882566 1_555
Mn2 O7 1.882567 1_555
Mn2 O5 1.882567 1_555
Mn2 O8 1.882570 1_555
Mn2 O6 1.882570 1_555
O0 Sc0 2.105463 1_665
O1 Sc0 2.105463 1_556
O2 Sc0 2.105459 1_655
O4 Sc0 2.105459 1_566
O9 Sc0 2.105459 1_565
O11 Sc0 2.105459 1_656
