# generated using pymatgen
data_Lu4As6Ir6Ru
_symmetry_space_group_name_H-M   'P 1'
_cell_length_a   7.16472622
_cell_length_b   7.16472657
_cell_length_c   7.16472768
_cell_angle_alpha   109.47121823
_cell_angle_beta   109.47121924
_cell_angle_gamma   109.47122494
_symmetry_Int_Tables_number   1
_chemical_formula_structural   Lu4As6Ir6Ru
_chemical_formula_sum   'Lu4 As6 Ir6 Ru1'
_cell_volume   283.12421526
_cell_formula_units_Z   1
loop_
 _symmetry_equiv_pos_site_id
 _symmetry_equiv_pos_as_xyz
  1  'x, y, z'
loop_
 _atom_site_type_symbol
 _atom_site_label
 _atom_site_symmetry_multiplicity
 _atom_site_fract_x
 _atom_site_fract_y
 _atom_site_fract_z
 _atom_site_occupancy
  Lu  Lu0  1  0.00000000  0.00000000  0.50000000  1
  Lu  Lu1  1  0.00000000  0.50000000  0.00000000  1
  Lu  Lu2  1  0.50000000  0.00000000  0.00000000  1
  Lu  Lu3  1  0.50000000  0.50000000  0.50000000  1
  As  As0  1  0.68550158  0.68550158  1.00000000  1
  As  As1  1  0.31449842  1.00000000  0.31449842  1
  As  As2  1  1.00000000  0.31449842  0.31449842  1
  As  As3  1  0.31449842  0.31449842  0.00000000  1
  As  As4  1  0.68550158  0.00000000  0.68550158  1
  As  As5  1  0.00000000  0.68550158  0.68550158  1
  Ir  Ir0  1  0.75000000  0.25000000  0.50000000  1
  Ir  Ir1  1  0.75000000  0.50000000  0.25000000  1
  Ir  Ir2  1  0.50000000  0.25000000  0.75000000  1
  Ir  Ir3  1  0.25000000  0.50000000  0.75000000  1
  Ir  Ir4  1  0.25000000  0.75000000  0.50000000  1
  Ir  Ir5  1  0.50000000  0.75000000  0.25000000  1
  Ru  Ru0  1  0.00000000  0.00000000  0.00000000  1
loop_
_geom_bond_atom_site_label_1
_geom_bond_atom_site_label_2
_geom_bond_distance
_geom_bond_site_symmetry_2
As0 Ir3 2.575462 1_555
As0 Ir2 2.575462 1_555
As0 Ir5 2.575462 1_556
As0 Ir1 2.575462 1_556
As0 Ru0 2.601881 1_666
As0 Lu1 2.973261 1_656
As0 Lu2 2.973261 1_566
As0 Lu0 2.973262 1_666
As0 Lu3 2.973262 1_555
As1 Ir0 2.575462 1_565
As1 Ir5 2.575462 1_555
As1 Ir4 2.575462 1_555
As1 Ir2 2.575463 1_565
As1 Ru0 2.601881 1_565
As1 Lu3 2.973261 1_565
As1 Lu1 2.973261 1_555
As1 Lu0 2.973261 1_565
As1 Lu2 2.973262 1_565
As2 Ir4 2.575462 1_655
As2 Ir1 2.575462 1_555
As2 Ir0 2.575462 1_555
As2 Ir3 2.575463 1_655
As2 Ru0 2.601881 1_655
As2 Lu3 2.973261 1_655
As2 Lu2 2.973261 1_555
As2 Lu0 2.973261 1_655
As2 Lu1 2.973262 1_655
As3 Ir1 2.575462 1_555
As3 Ir5 2.575462 1_555
As3 Ir2 2.575462 1_554
As3 Ir3 2.575462 1_554
As3 Ru0 2.601881 1_555
As3 Lu1 2.973261 1_555
As3 Lu2 2.973261 1_555
As3 Lu0 2.973262 1_554
As3 Lu3 2.973262 1_555
As4 Ir4 2.575462 1_545
As4 Ir2 2.575462 1_555
As4 Ir0 2.575462 1_555
As4 Ir5 2.575463 1_545
As4 Ru0 2.601881 1_656
As4 Lu3 2.973261 1_545
As4 Lu1 2.973261 1_656
As4 Lu0 2.973261 1_655
As4 Lu2 2.973262 1_556
As5 Ir0 2.575462 1_455
As5 Ir3 2.575462 1_555
As5 Ir4 2.575462 1_555
As5 Ir1 2.575463 1_455
As5 Ru0 2.601881 1_566
As5 Lu3 2.973261 1_455
As5 Lu2 2.973261 1_566
As5 Lu0 2.973261 1_565
As5 Lu1 2.973262 1_556
Ir0 Lu3 2.924987 1_555
Ir0 Lu0 2.924987 1_655
Ir0 Lu1 2.924988 1_656
Ir0 Lu2 2.924988 1_555
Ir1 Lu0 2.924987 1_665
Ir1 Lu2 2.924987 1_555
Ir1 Lu1 2.924988 1_655
Ir1 Lu3 2.924988 1_555
Ir2 Lu1 2.924987 1_656
Ir2 Lu0 2.924987 1_555
Ir2 Lu2 2.924988 1_556
Ir2 Lu3 2.924988 1_555
Ir3 Lu0 2.924987 1_555
Ir3 Lu2 2.924987 1_566
Ir3 Lu3 2.924988 1_555
Ir3 Lu1 2.924988 1_556
Ir4 Lu3 2.924987 1_555
Ir4 Lu0 2.924987 1_565
Ir4 Lu2 2.924988 1_566
Ir4 Lu1 2.924988 1_555
Ir5 Lu0 2.924987 1_665
Ir5 Lu1 2.924987 1_555
Ir5 Lu2 2.924988 1_565
Ir5 Lu3 2.924988 1_555
