# generated using pymatgen
data_NaScFeH6
_symmetry_space_group_name_H-M   'P 1'
_cell_length_a   6.62516365
_cell_length_b   6.62516365
_cell_length_c   6.62516365
_cell_angle_alpha   90.00000000
_cell_angle_beta   90.00000000
_cell_angle_gamma   90.00000000
_symmetry_Int_Tables_number   1
_chemical_formula_structural   NaScFeH6
_chemical_formula_sum   'Na4 Sc4 Fe4 H24'
_cell_volume   290.79693903
_cell_formula_units_Z   4
loop_
 _symmetry_equiv_pos_site_id
 _symmetry_equiv_pos_as_xyz
  1  'x, y, z'
loop_
 _atom_site_type_symbol
 _atom_site_label
 _atom_site_symmetry_multiplicity
 _atom_site_fract_x
 _atom_site_fract_y
 _atom_site_fract_z
 _atom_site_occupancy
  Na  Na0  1  0.00000000  0.00000000  0.50000000  1
  Na  Na1  1  0.00000000  0.50000000  0.00000000  1
  Na  Na2  1  0.50000000  0.00000000  0.00000000  1
  Na  Na3  1  0.00000000  0.00000000  0.00000000  1
  Sc  Sc0  1  0.50000000  0.50000000  0.50000000  1
  Sc  Sc1  1  0.00000000  0.50000000  0.50000000  1
  Sc  Sc2  1  0.50000000  0.00000000  0.50000000  1
  Sc  Sc3  1  0.50000000  0.50000000  0.00000000  1
  Fe  Fe0  1  0.27260244  0.72739756  0.72739756  1
  Fe  Fe1  1  0.72739756  0.27260244  0.72739756  1
  Fe  Fe2  1  0.72739756  0.72739756  0.27260244  1
  Fe  Fe3  1  0.27260244  0.27260244  0.27260244  1
  H  H0  1  0.73694245  0.73694245  0.50789095  1
  H  H1  1  0.26305755  0.26305755  0.50789095  1
  H  H2  1  0.03446338  0.72996842  0.72996842  1
  H  H3  1  0.27003158  0.96553662  0.72996842  1
  H  H4  1  0.72996842  0.03446338  0.72996842  1
  H  H5  1  0.96553662  0.27003158  0.72996842  1
  H  H6  1  0.73694245  0.50789095  0.73694245  1
  H  H7  1  0.50789095  0.73694245  0.73694245  1
  H  H8  1  0.49210905  0.26305755  0.73694245  1
  H  H9  1  0.26305755  0.49210905  0.73694245  1
  H  H10  1  0.27003158  0.72996842  0.96553662  1
  H  H11  1  0.72996842  0.27003158  0.96553662  1
  H  H12  1  0.72996842  0.72996842  0.03446338  1
  H  H13  1  0.27003158  0.27003158  0.03446338  1
  H  H14  1  0.26305755  0.50789095  0.26305755  1
  H  H15  1  0.49210905  0.73694245  0.26305755  1
  H  H16  1  0.50789095  0.26305755  0.26305755  1
  H  H17  1  0.73694245  0.49210905  0.26305755  1
  H  H18  1  0.96553662  0.72996842  0.27003158  1
  H  H19  1  0.72996842  0.96553662  0.27003158  1
  H  H20  1  0.27003158  0.03446338  0.27003158  1
  H  H21  1  0.03446338  0.27003158  0.27003158  1
  H  H22  1  0.26305755  0.73694245  0.49210905  1
  H  H23  1  0.73694245  0.26305755  0.49210905  1
loop_
_geom_bond_atom_site_label_1
_geom_bond_atom_site_label_2
_geom_bond_distance
_geom_bond_site_symmetry_2
Fe0 H7 1.561388 1_555
Fe0 H9 1.561388 1_555
Fe0 H22 1.561388 1_555
Fe0 H3 1.577894 1_555
Fe0 H2 1.577894 1_555
Fe0 H10 1.577894 1_555
Fe1 H8 1.561388 1_555
Fe1 H6 1.561388 1_555
Fe1 H23 1.561388 1_555
Fe1 H5 1.577894 1_555
Fe1 H4 1.577894 1_555
Fe1 H11 1.577894 1_555
Fe2 H17 1.561388 1_555
Fe2 H15 1.561388 1_555
Fe2 H0 1.561388 1_555
Fe2 H18 1.577894 1_555
Fe2 H19 1.577894 1_555
Fe2 H12 1.577894 1_555
Fe3 H16 1.561388 1_555
Fe3 H14 1.561388 1_555
Fe3 H1 1.561388 1_555
Fe3 H20 1.577894 1_555
Fe3 H21 1.577894 1_555
Fe3 H13 1.577894 1_555
H0 Sc0 2.220623 1_555
H0 Sc2 2.346124 1_565
H0 Sc1 2.346124 1_655
H0 Na0 2.465245 1_665
H1 Sc0 2.220623 1_555
H1 Sc1 2.346124 1_555
H1 Sc2 2.346124 1_555
H1 Na0 2.465245 1_555
H2 Sc1 2.166729 1_555
H2 Na1 2.360923 1_556
H2 Na0 2.360923 1_565
H2 Na3 2.540315 1_566
H3 Sc2 2.166729 1_565
H3 Na0 2.360923 1_565
H3 Na2 2.360923 1_566
H3 Na3 2.540315 1_566
H4 Sc2 2.166729 1_555
H4 Na2 2.360923 1_556
H4 Na0 2.360923 1_655
H4 Na3 2.540315 1_656
H5 Sc1 2.166729 1_655
H5 Na0 2.360923 1_655
H5 Na1 2.360923 1_656
H5 Na3 2.540315 1_656
H6 Sc0 2.220623 1_555
H6 Sc3 2.346124 1_556
H6 Sc1 2.346124 1_655
H6 Na1 2.465245 1_656
H7 Sc0 2.220623 1_555
H7 Sc3 2.346124 1_556
H7 Sc2 2.346124 1_565
H7 Na2 2.465245 1_566
H8 Sc0 2.220623 1_555
H8 Sc2 2.346124 1_555
H8 Sc3 2.346124 1_556
H8 Na2 2.465245 1_556
H9 Sc0 2.220623 1_555
H9 Sc1 2.346124 1_555
H9 Sc3 2.346124 1_556
H9 Na1 2.465245 1_556
H10 Sc3 2.166729 1_556
H10 Na1 2.360923 1_556
H10 Na2 2.360923 1_566
H10 Na3 2.540315 1_566
H11 Sc3 2.166729 1_556
H11 Na2 2.360923 1_556
H11 Na1 2.360923 1_656
H11 Na3 2.540315 1_656
H12 Sc3 2.166729 1_555
H12 Na2 2.360923 1_565
H12 Na1 2.360923 1_655
H12 Na3 2.540315 1_665
H13 Sc3 2.166729 1_555
H13 Na1 2.360923 1_555
H13 Na2 2.360923 1_555
H13 Na3 2.540315 1_555
H14 Sc0 2.220623 1_555
H14 Sc1 2.346124 1_555
H14 Sc3 2.346124 1_555
H14 Na1 2.465245 1_555
H15 Sc0 2.220623 1_555
H15 Sc3 2.346124 1_555
H15 Sc2 2.346124 1_565
H15 Na2 2.465245 1_565
H16 Sc0 2.220623 1_555
H16 Sc3 2.346124 1_555
H16 Sc2 2.346124 1_555
H16 Na2 2.465245 1_555
H17 Sc0 2.220623 1_555
H17 Sc3 2.346124 1_555
H17 Sc1 2.346124 1_655
H17 Na1 2.465245 1_655
H18 Sc1 2.166729 1_655
H18 Na1 2.360923 1_655
H18 Na0 2.360923 1_665
H18 Na3 2.540315 1_665
H19 Sc2 2.166729 1_565
H19 Na2 2.360923 1_565
H19 Na0 2.360923 1_665
H19 Na3 2.540315 1_665
H20 Sc2 2.166729 1_555
H20 Na2 2.360923 1_555
H20 Na0 2.360923 1_555
H20 Na3 2.540315 1_555
H21 Sc1 2.166729 1_555
H21 Na1 2.360923 1_555
H21 Na0 2.360923 1_555
H21 Na3 2.540315 1_555
H22 Sc0 2.220623 1_555
H22 Sc1 2.346124 1_555
H22 Sc2 2.346124 1_565
H22 Na0 2.465245 1_565
H23 Sc0 2.220623 1_555
H23 Sc2 2.346124 1_555
H23 Sc1 2.346124 1_655
H23 Na0 2.465245 1_655
