# generated using pymatgen
data_Cd3Os4PbO14
_symmetry_space_group_name_H-M   'P 1'
_cell_length_a   7.24171788
_cell_length_b   7.24171781
_cell_length_c   7.27968387
_cell_angle_alpha   60.17236825
_cell_angle_beta   60.17236359
_cell_angle_gamma   59.99999791
_symmetry_Int_Tables_number   1
_chemical_formula_structural   Cd3Os4PbO14
_chemical_formula_sum   'Cd3 Os4 Pb1 O14'
_cell_volume   270.64953601
_cell_formula_units_Z   1
loop_
 _symmetry_equiv_pos_site_id
 _symmetry_equiv_pos_as_xyz
  1  'x, y, z'
loop_
 _atom_site_type_symbol
 _atom_site_label
 _atom_site_symmetry_multiplicity
 _atom_site_fract_x
 _atom_site_fract_y
 _atom_site_fract_z
 _atom_site_occupancy
  Cd  Cd0  1  0.12500000  0.12500000  0.12500000  1
  Cd  Cd1  1  0.62500000  0.12500000  0.12500000  1
  Cd  Cd2  1  0.12500000  0.62500000  0.12500000  1
  Os  Os0  1  0.62500000  0.62500000  0.62500000  1
  Os  Os1  1  0.12500000  0.62500000  0.62500000  1
  Os  Os2  1  0.62500000  0.12500000  0.62500000  1
  Os  Os3  1  0.62500000  0.62500000  0.12500000  1
  Pb  Pb0  1  0.12500000  0.12500000  0.62500000  1
  O  O0  1  0.25802052  0.25802052  0.22593745  1
  O  O1  1  0.99197948  0.99197948  0.02406255  1
  O  O2  1  0.55195673  0.95095157  0.54614013  1
  O  O3  1  0.30860148  0.68977099  0.31185653  1
  O  O4  1  0.56022901  0.56022901  0.93814347  1
  O  O5  1  0.95095157  0.55195673  0.54614013  1
  O  O6  1  0.56022901  0.94139852  0.93814347  1
  O  O7  1  0.95095157  0.95095157  0.54614013  1
  O  O8  1  0.94139852  0.56022901  0.93814347  1
  O  O9  1  0.68977099  0.30860148  0.31185653  1
  O  O10  1  0.29904843  0.69804327  0.70385987  1
  O  O11  1  0.69804327  0.29904843  0.70385987  1
  O  O12  1  0.29904843  0.29904843  0.70385987  1
  O  O13  1  0.68977099  0.68977099  0.31185653  1
loop_
_geom_bond_atom_site_label_1
_geom_bond_atom_site_label_2
_geom_bond_distance
_geom_bond_site_symmetry_2
Cd0 O0 2.175318 1_555
Cd0 O1 2.175318 1_445
Cd0 O7 2.544972 1_445
Cd0 O12 2.544972 1_554
Cd0 O6 2.625952 1_544
Cd0 O9 2.625952 1_455
Cd0 O8 2.625952 1_454
Cd0 O3 2.625952 1_545
Cd1 O1 2.175324 1_545
Cd1 O0 2.175324 1_555
Cd1 O2 2.544972 1_545
Cd1 O11 2.544972 1_554
Cd1 O4 2.625952 1_554
Cd1 O13 2.625952 1_545
Cd1 O9 2.625952 1_555
Cd1 O6 2.625952 1_544
Cd2 O1 2.175324 1_455
Cd2 O0 2.175324 1_555
Cd2 O5 2.544972 1_455
Cd2 O10 2.544972 1_554
Cd2 O4 2.625952 1_554
Cd2 O13 2.625952 1_455
Cd2 O3 2.625952 1_555
Cd2 O8 2.625952 1_454
O0 Pb0 2.378124 1_555
O1 Pb0 2.378124 1_664
O2 Os0 1.971439 1_555
O2 Os2 1.971439 1_565
O2 Pb0 2.556374 1_565
O3 Os1 1.931114 1_555
O3 Os3 1.944155 1_555
O4 Os0 1.931114 1_555
O4 Os3 1.944156 1_556
O5 Os0 1.971439 1_555
O5 Os1 1.971439 1_655
O5 Pb0 2.556375 1_655
O6 Os2 1.931114 1_565
O6 Os3 1.944155 1_556
O7 Os2 1.971439 1_565
O7 Os1 1.971439 1_655
O7 Pb0 2.556375 1_665
O8 Os1 1.931114 1_655
O8 Os3 1.944155 1_556
O9 Os2 1.931114 1_555
O9 Os3 1.944155 1_555
O10 Os0 1.971439 1_555
O10 Os1 1.971439 1_555
O10 Pb0 2.556375 1_565
O11 Os0 1.971439 1_555
O11 Os2 1.971439 1_555
O11 Pb0 2.556374 1_655
O12 Os2 1.971439 1_555
O12 Os1 1.971439 1_555
O12 Pb0 2.556375 1_555
O13 Os0 1.931114 1_555
O13 Os3 1.944156 1_555
