# generated using pymatgen
data_K2Hf(AsSe3)2
_symmetry_space_group_name_H-M   'P 1'
_cell_length_a   7.03927037
_cell_length_b   7.03927073
_cell_length_c   7.45942560
_cell_angle_alpha   90.00000000
_cell_angle_beta   90.00000000
_cell_angle_gamma   119.99999372
_symmetry_Int_Tables_number   1
_chemical_formula_structural   K2Hf(AsSe3)2
_chemical_formula_sum   'K2 Hf1 As2 Se6'
_cell_volume   320.10419130
_cell_formula_units_Z   1
loop_
 _symmetry_equiv_pos_site_id
 _symmetry_equiv_pos_as_xyz
  1  'x, y, z'
loop_
 _atom_site_type_symbol
 _atom_site_label
 _atom_site_symmetry_multiplicity
 _atom_site_fract_x
 _atom_site_fract_y
 _atom_site_fract_z
 _atom_site_occupancy
  K  K0  1  0.33333300  0.66666700  0.58106706  1
  K  K1  1  0.66666700  0.33333300  0.41893294  1
  Hf  Hf0  1  0.00000000  0.00000000  0.00000000  1
  As  As0  1  0.33333300  0.66666700  0.05988128  1
  As  As1  1  0.66666700  0.33333300  0.94011872  1
  Se  Se0  1  0.24774743  0.91456061  0.21983115  1
  Se  Se1  1  0.91456061  0.66681418  0.78016885  1
  Se  Se2  1  0.75225257  0.08543939  0.78016885  1
  Se  Se3  1  0.33318582  0.24774743  0.78016885  1
  Se  Se4  1  0.66681418  0.75225257  0.21983115  1
  Se  Se5  1  0.08543939  0.33318582  0.21983115  1
loop_
_geom_bond_atom_site_label_1
_geom_bond_atom_site_label_2
_geom_bond_distance
_geom_bond_site_symmetry_2
K0 Se1 3.301312 1_455
K0 Se3 3.301312 1_555
K0 Se2 3.301312 1_565
K0 Se0 3.423474 1_555
K0 Se5 3.423480 1_555
K0 Se4 3.423482 1_555
K1 Se5 3.301312 1_655
K1 Se4 3.301312 1_555
K1 Se0 3.301312 1_545
K1 Se2 3.423474 1_555
K1 Se1 3.423480 1_555
K1 Se3 3.423482 1_555
Hf0 Se5 2.672256 1_555
Hf0 Se1 2.672256 1_444
Hf0 Se3 2.672258 1_554
Hf0 Se4 2.672258 1_445
Hf0 Se0 2.672262 1_545
Hf0 Se2 2.672262 1_454
As0 Se0 2.425449 1_555
As0 Se5 2.425458 1_555
As0 Se4 2.425461 1_555
As0 K0 3.571679 1_554
As1 Se2 2.425449 1_555
As1 Se1 2.425458 1_555
As1 Se3 2.425461 1_555
As1 K1 3.571679 1_556
