# generated using pymatgen
data_Cu3Ag(Se3I)4
_symmetry_space_group_name_H-M   'P 1'
_cell_length_a   4.95834297
_cell_length_b   7.99098962
_cell_length_c   14.46636430
_cell_angle_alpha   89.32874606
_cell_angle_beta   90.00000000
_cell_angle_gamma   90.00000000
_symmetry_Int_Tables_number   1
_chemical_formula_structural   Cu3Ag(Se3I)4
_chemical_formula_sum   'Cu3 Ag1 Se12 I4'
_cell_volume   573.14792266
_cell_formula_units_Z   1
loop_
 _symmetry_equiv_pos_site_id
 _symmetry_equiv_pos_as_xyz
  1  'x, y, z'
loop_
 _atom_site_type_symbol
 _atom_site_label
 _atom_site_symmetry_multiplicity
 _atom_site_fract_x
 _atom_site_fract_y
 _atom_site_fract_z
 _atom_site_occupancy
  Cu  Cu0  1  0.69821019  0.25000000  0.75000000  1
  Cu  Cu1  1  0.31859900  0.75000000  0.25000000  1
  Cu  Cu2  1  0.31407084  0.75000000  0.75000000  1
  Ag  Ag0  1  0.70120121  0.25000000  0.25000000  1
  Se  Se0  1  0.41171117  0.35936169  0.63113234  1
  Se  Se1  1  0.59237049  0.85472771  0.87165830  1
  Se  Se2  1  0.63837469  0.25506702  0.99728178  1
  Se  Se3  1  0.58459214  0.85621259  0.12409144  1
  Se  Se4  1  0.35250201  0.73444569  0.99733101  1
  Se  Se5  1  0.59237049  0.64527229  0.62834170  1
  Se  Se6  1  0.38420758  0.36719784  0.38209241  1
  Se  Se7  1  0.63837469  0.24493298  0.50271822  1
  Se  Se8  1  0.35250201  0.76555431  0.50266899  1
  Se  Se9  1  0.58459214  0.64378741  0.37590856  1
  Se  Se10  1  0.38420758  0.13280216  0.11790759  1
  Se  Se11  1  0.41171117  0.14063831  0.86886766  1
  I  I0  1  0.01721997  0.51353227  0.17441862  1
  I  I1  1  0.01721997  0.98646773  0.32558138  1
  I  I2  1  0.00298232  0.00126558  0.68125610  1
  I  I3  1  0.00298232  0.49873442  0.81874390  1
loop_
_geom_bond_atom_site_label_1
_geom_bond_atom_site_label_2
_geom_bond_distance
_geom_bond_site_symmetry_2
Cu0 Se11 2.388192 1_555
Cu0 Se0 2.388192 1_555
Cu0 I3 2.696220 1_655
Cu0 I2 2.696220 1_655
Cu1 Se3 2.396089 1_555
Cu1 Se9 2.396089 1_555
Cu1 I1 2.654730 1_555
Cu1 I0 2.654730 1_555
Cu2 Se1 2.395088 1_555
Cu2 Se5 2.395088 1_555
Cu2 I2 2.711633 1_565
Cu2 I3 2.711633 1_555
Ag0 Se6 2.653485 1_555
Ag0 Se10 2.653485 1_555
Ag0 I1 2.834001 1_645
Ag0 I0 2.834001 1_655
Se0 Se7 2.364322 1_555
Se0 Se5 2.453929 1_555
Se1 Se4 2.366999 1_555
Se1 Se11 2.453929 1_565
Se3 Se4 2.382351 1_554
Se5 Se8 2.366999 1_555
Se6 Se7 2.355403 1_555
Se6 Se9 2.423975 1_555
Se8 Se9 2.382351 1_555
Se10 Se2 2.355403 1_554
Se10 Se3 2.423975 1_545
Se11 Se2 2.364322 1_555
