# generated using pymatgen
data_Lu12Cd2FeOs2
_symmetry_space_group_name_H-M   'P 1'
_cell_length_a   8.18333087
_cell_length_b   8.18333095
_cell_length_c   8.18333079
_cell_angle_alpha   108.41687844
_cell_angle_beta   108.41688424
_cell_angle_gamma   111.60112196
_symmetry_Int_Tables_number   1
_chemical_formula_structural   Lu12Cd2FeOs2
_chemical_formula_sum   'Lu12 Cd2 Fe1 Os2'
_cell_volume   421.42107530
_cell_formula_units_Z   1
loop_
 _symmetry_equiv_pos_site_id
 _symmetry_equiv_pos_as_xyz
  1  'x, y, z'
loop_
 _atom_site_type_symbol
 _atom_site_label
 _atom_site_symmetry_multiplicity
 _atom_site_fract_x
 _atom_site_fract_y
 _atom_site_fract_z
 _atom_site_occupancy
  Lu  Lu0  1  0.30912890  0.30912890  0.61855140  1
  Lu  Lu1  1  0.69057650  0.69057650  0.38144860  1
  Lu  Lu2  1  0.69057650  0.30912890  0.00000000  1
  Lu  Lu3  1  0.30912890  0.69057650  1.00000000  1
  Lu  Lu4  1  0.18804735  0.42821346  0.24016612  1
  Lu  Lu5  1  0.81186818  0.57174642  0.75987824  1
  Lu  Lu6  1  0.18804735  0.94788023  0.75983388  1
  Lu  Lu7  1  0.94788023  0.18804735  0.75983388  1
  Lu  Lu8  1  0.81186818  0.05198995  0.24012176  1
  Lu  Lu9  1  0.05198995  0.81186818  0.24012176  1
  Lu  Lu10  1  0.42821346  0.18804735  0.24016612  1
  Lu  Lu11  1  0.57174642  0.81186818  0.75987824  1
  Cd  Cd0  1  0.99884750  0.49884750  0.50000000  1
  Cd  Cd1  1  0.49884750  0.99884750  0.50000000  1
  Fe  Fe0  1  0.63170386  0.63170386  1.00000000  1
  Os  Os0  1  0.37298042  0.37298042  0.00000000  1
  Os  Os1  1  0.99854981  0.99854981  1.00000000  1
loop_
_geom_bond_atom_site_label_1
_geom_bond_atom_site_label_2
_geom_bond_distance
_geom_bond_site_symmetry_2
Lu0 Os0 2.833325 1_556
Lu0 Lu6 3.432850 1_545
Lu0 Lu7 3.432850 1_455
Lu0 Lu5 3.434392 1_555
Lu0 Lu11 3.434392 1_555
Lu0 Lu8 3.491754 1_455
Lu0 Lu9 3.491755 1_545
Lu0 Lu4 3.492627 1_555
Lu0 Lu10 3.492627 1_555
Lu1 Os0 2.833321 1_555
Lu1 Lu4 3.432835 1_555
Lu1 Lu10 3.432835 1_555
Lu1 Lu8 3.434399 1_565
Lu1 Lu9 3.434400 1_655
Lu1 Lu5 3.491750 1_555
Lu1 Lu11 3.491750 1_555
Lu1 Lu6 3.492633 1_655
Lu1 Lu7 3.492633 1_565
Lu2 Os0 2.833317 1_555
Lu2 Lu6 3.432839 1_544
Lu2 Lu5 3.434394 1_554
Lu2 Lu9 3.434394 1_655
Lu2 Lu8 3.491757 1_555
Lu2 Lu7 3.492627 1_554
Lu2 Lu4 3.492634 1_655
Lu3 Os0 2.833317 1_556
Lu3 Lu4 3.432837 1_556
Lu3 Lu7 3.432839 1_455
Lu3 Lu8 3.434394 1_566
Lu3 Lu5 3.491757 1_455
Lu3 Lu9 3.491757 1_556
Lu3 Lu6 3.492627 1_555
Lu4 Os0 2.859878 1_555
Lu4 Os1 2.885054 1_444
Lu4 Lu7 3.251042 1_454
Lu4 Lu8 3.460583 1_455
Lu4 Lu9 3.697407 1_555
Lu5 Os1 2.869136 1_555
Lu5 Lu9 3.250442 1_656
Lu5 Lu6 3.460579 1_655
Lu5 Lu7 3.697402 1_555
Lu6 Os0 2.859885 1_566
Lu6 Os1 2.885055 1_455
Lu6 Lu7 3.251055 1_465
Lu6 Lu9 3.697409 1_555
Lu7 Os0 2.859885 1_656
Lu7 Os1 2.885055 1_545
Lu7 Lu8 3.697409 1_555
Lu8 Os1 2.869136 1_544
Lu8 Lu9 3.250441 1_645
Lu9 Os1 2.869136 1_454
Lu10 Os0 2.859878 1_555
Lu10 Os1 2.885054 1_444
Lu10 Lu4 3.251042 1_555
Lu10 Lu6 3.251042 1_544
Lu10 Lu2 3.432837 1_555
Lu10 Lu9 3.460583 1_545
Lu10 Lu3 3.492635 1_544
Lu10 Lu8 3.697407 1_555
Lu10 Lu5 3.697407 1_555
Lu11 Os1 2.869136 1_555
Lu11 Lu5 3.250441 1_555
Lu11 Lu8 3.250442 1_566
Lu11 Lu3 3.434394 1_555
Lu11 Lu7 3.460579 1_565
Lu11 Lu2 3.491757 1_566
Lu11 Lu6 3.697402 1_555
Lu11 Lu4 3.697407 1_555
Cd0 Lu5 3.024302 1_555
Cd0 Lu8 3.024302 1_555
Cd0 Lu6 3.035612 1_655
Cd0 Lu4 3.035618 1_655
Cd0 Lu1 3.477996 1_555
Cd0 Lu0 3.477996 1_655
Cd0 Lu2 3.477998 1_555
Cd0 Lu3 3.477998 1_655
Cd0 Lu10 3.789501 1_555
Cd0 Lu7 3.789501 1_555
Cd0 Lu9 3.805214 1_655
Cd0 Lu11 3.805214 1_655
Cd1 Lu11 3.024301 1_555
Cd1 Lu9 3.024302 1_555
Cd1 Lu7 3.035612 1_565
Cd1 Lu10 3.035618 1_565
Cd1 Lu1 3.477996 1_555
Cd1 Lu0 3.477996 1_565
Cd1 Lu3 3.477998 1_554
Cd1 Lu2 3.477998 1_566
Cd1 Lu4 3.789501 1_555
Cd1 Lu6 3.789501 1_555
Cd1 Lu8 3.805214 1_565
Cd1 Lu5 3.805214 1_565
Fe0 Os0 2.380073 1_556
Fe0 Lu11 2.833657 1_555
Fe0 Lu9 2.833657 1_656
Fe0 Lu5 2.833657 1_555
Fe0 Lu8 2.833657 1_566
Fe0 Lu3 2.852490 1_555
Fe0 Lu2 2.852490 1_556
Fe0 Lu0 2.852494 1_555
Fe0 Lu1 2.852498 1_556
