# generated using pymatgen
data_SrHg3(Pt2O7)2
_symmetry_space_group_name_H-M   'P 1'
_cell_length_a   7.25882908
_cell_length_b   7.28619763
_cell_length_c   7.25882818
_cell_angle_alpha   60.12417249
_cell_angle_beta   59.99999526
_cell_angle_gamma   60.12417402
_symmetry_Int_Tables_number   1
_chemical_formula_structural   SrHg3(Pt2O7)2
_chemical_formula_sum   'Sr1 Hg3 Pt4 O14'
_cell_volume   271.97663297
_cell_formula_units_Z   1
loop_
 _symmetry_equiv_pos_site_id
 _symmetry_equiv_pos_as_xyz
  1  'x, y, z'
loop_
 _atom_site_type_symbol
 _atom_site_label
 _atom_site_symmetry_multiplicity
 _atom_site_fract_x
 _atom_site_fract_y
 _atom_site_fract_z
 _atom_site_occupancy
  Sr  Sr0  1  0.12500000  0.62500000  0.12500000  1
  Hg  Hg0  1  0.12500000  0.12500000  0.12500000  1
  Hg  Hg1  1  0.62500000  0.12500000  0.12500000  1
  Hg  Hg2  1  0.12500000  0.12500000  0.62500000  1
  Pt  Pt0  1  0.62500000  0.62500000  0.12500000  1
  Pt  Pt1  1  0.62500000  0.62500000  0.62500000  1
  Pt  Pt2  1  0.62500000  0.12500000  0.62500000  1
  Pt  Pt3  1  0.12500000  0.62500000  0.62500000  1
  O  O0  1  0.70200252  0.29803154  0.29796243  1
  O  O1  1  0.70200252  0.29803154  0.70200252  1
  O  O2  1  0.98482546  0.04552263  0.98482546  1
  O  O3  1  0.29794071  0.70237225  0.29794071  1
  O  O4  1  0.70174532  0.70237225  0.29794071  1
  O  O5  1  0.95205929  0.54762775  0.54825468  1
  O  O6  1  0.29794071  0.70237225  0.70174532  1
  O  O7  1  0.26517454  0.20447737  0.26517454  1
  O  O8  1  0.95205929  0.54762775  0.95205929  1
  O  O9  1  0.54799748  0.95196846  0.54799748  1
  O  O10  1  0.54825468  0.54762775  0.95205929  1
  O  O11  1  0.95203757  0.95196846  0.54799748  1
  O  O12  1  0.54799748  0.95196846  0.95203757  1
  O  O13  1  0.29796243  0.29803154  0.70200252  1
loop_
_geom_bond_atom_site_label_1
_geom_bond_atom_site_label_2
_geom_bond_distance
_geom_bond_site_symmetry_2
Hg0 O7 2.148325 1_555
Hg0 O2 2.148325 1_454
Hg0 O11 2.541444 1_445
Hg0 O13 2.541444 1_554
Hg0 O12 2.541444 1_544
Hg0 O0 2.541444 1_455
Hg0 O8 2.551042 1_454
Hg0 O3 2.551042 1_545
Hg1 O2 2.148319 1_554
Hg1 O7 2.148319 1_555
Hg1 O0 2.541439 1_555
Hg1 O12 2.541439 1_544
Hg1 O9 2.541445 1_545
Hg1 O1 2.541445 1_554
Hg1 O10 2.551043 1_554
Hg1 O4 2.551043 1_545
Hg2 O2 2.148319 1_455
Hg2 O7 2.148319 1_555
Hg2 O13 2.541439 1_555
Hg2 O11 2.541439 1_445
Hg2 O9 2.541445 1_545
Hg2 O1 2.541445 1_455
Hg2 O5 2.551043 1_455
Hg2 O6 2.551043 1_545
O0 Pt2 1.982636 1_555
O0 Pt0 1.989890 1_555
O1 Pt2 1.982631 1_555
O1 Pt1 1.989892 1_555
O2 Sr0 2.506440 1_646
O3 Pt3 1.980232 1_555
O3 Pt0 1.980232 1_555
O3 Sr0 2.540785 1_555
O4 Pt0 1.980226 1_555
O4 Pt1 1.980233 1_555
O4 Sr0 2.540791 1_655
O5 Pt3 1.980227 1_655
O5 Pt1 1.980233 1_555
O5 Sr0 2.540791 1_655
O6 Pt3 1.980227 1_555
O6 Pt1 1.980233 1_555
O6 Sr0 2.540791 1_556
O7 Sr0 2.506440 1_555
O8 Pt3 1.980232 1_655
O8 Pt0 1.980232 1_556
O8 Sr0 2.540785 1_656
O9 Pt2 1.982631 1_565
O9 Pt1 1.989892 1_555
O10 Pt0 1.980226 1_556
O10 Pt1 1.980233 1_555
O10 Sr0 2.540791 1_556
O11 Pt2 1.982636 1_565
O11 Pt3 1.989890 1_655
O12 Pt2 1.982636 1_565
O12 Pt0 1.989890 1_556
O13 Pt2 1.982636 1_555
O13 Pt3 1.989890 1_555
