# generated using pymatgen
data_Sr3Te(BrO2)2
_symmetry_space_group_name_H-M   'P 1'
_cell_length_a   7.18780948
_cell_length_b   7.18780893
_cell_length_c   5.69914711
_cell_angle_alpha   90.00000000
_cell_angle_beta   90.00000000
_cell_angle_gamma   133.22921481
_symmetry_Int_Tables_number   1
_chemical_formula_structural   Sr3Te(BrO2)2
_chemical_formula_sum   'Sr3 Te1 Br2 O4'
_cell_volume   214.53775386
_cell_formula_units_Z   1
loop_
 _symmetry_equiv_pos_site_id
 _symmetry_equiv_pos_as_xyz
  1  'x, y, z'
loop_
 _atom_site_type_symbol
 _atom_site_label
 _atom_site_symmetry_multiplicity
 _atom_site_fract_x
 _atom_site_fract_y
 _atom_site_fract_z
 _atom_site_occupancy
  Sr  Sr0  1  0.14349913  0.85650087  0.00000000  1
  Sr  Sr1  1  0.64893445  0.35106555  0.50000000  1
  Sr  Sr2  1  0.33805673  0.66194327  0.50000000  1
  Te  Te0  1  0.80619883  0.19380117  0.00000000  1
  Br  Br0  1  0.50464481  0.49535519  0.00000000  1
  Br  Br1  1  0.01684746  0.98315254  0.50000000  1
  O  O0  1  0.97893425  0.47816046  0.77194796  1
  O  O1  1  0.52183954  0.02106575  0.22805204  1
  O  O2  1  0.52183954  0.02106575  0.77194796  1
  O  O3  1  0.97893425  0.47816046  0.22805204  1
loop_
_geom_bond_atom_site_label_1
_geom_bond_atom_site_label_2
_geom_bond_distance
_geom_bond_site_symmetry_2
Br0 Sr0 3.390581 1_545
Br0 Sr0 3.390581 1_655
Br0 Sr1 3.427065 1_554
Br0 Sr1 3.427065 1_555
Br0 Sr2 3.598841 1_555
Br0 Sr2 3.598841 1_554
Br1 Sr0 3.303448 1_555
Br1 Sr0 3.303448 1_556
Br1 Sr1 3.343174 1_455
Br1 Sr1 3.343175 1_565
Br1 Sr2 3.701975 1_565
Br1 Sr2 3.701975 1_455
O0 Te0 1.982960 1_556
O0 Sr1 2.427888 1_555
O0 Sr0 2.465229 1_656
O0 Sr2 2.477754 1_655
O1 Te0 1.982960 1_555
O1 Sr1 2.427888 1_555
O1 Sr0 2.465229 1_545
O1 Sr2 2.477754 1_545
O2 Te0 1.982960 1_556
O2 Sr1 2.427888 1_555
O2 Sr0 2.465229 1_546
O2 Sr2 2.477754 1_545
O3 Te0 1.982960 1_555
O3 Sr1 2.427888 1_555
O3 Sr0 2.465229 1_655
O3 Sr2 2.477754 1_655
