# generated using pymatgen
data_Ti5SiSn2
_symmetry_space_group_name_H-M   'P 1'
_cell_length_a   7.84872204
_cell_length_b   7.84872145
_cell_length_c   7.84872163
_cell_angle_alpha   95.95258651
_cell_angle_beta   95.95258586
_cell_angle_gamma   142.42813315
_symmetry_Int_Tables_number   1
_chemical_formula_structural   Ti5SiSn2
_chemical_formula_sum   'Ti10 Si2 Sn4'
_cell_volume   279.11186611
_cell_formula_units_Z   2
loop_
 _symmetry_equiv_pos_site_id
 _symmetry_equiv_pos_as_xyz
  1  'x, y, z'
loop_
 _atom_site_type_symbol
 _atom_site_label
 _atom_site_symmetry_multiplicity
 _atom_site_fract_x
 _atom_site_fract_y
 _atom_site_fract_z
 _atom_site_occupancy
  Ti  Ti0  1  0.42763322  0.29245929  0.72009251  1
  Ti  Ti1  1  0.20754071  0.07236678  0.27990649  1
  Ti  Ti2  1  0.57236678  0.70754071  0.27990649  1
  Ti  Ti3  1  0.25000000  0.75000000  0.50000000  1
  Ti  Ti4  1  0.29245929  0.57236678  0.86482606  1
  Ti  Ti5  1  0.70754071  0.42763322  0.13517394  1
  Ti  Ti6  1  0.75000000  0.25000000  0.50000000  1
  Ti  Ti7  1  0.92763322  0.20754071  0.13517394  1
  Ti  Ti8  1  0.79245929  0.92763322  0.72009351  1
  Ti  Ti9  1  0.07236678  0.79245929  0.86482606  1
  Si  Si0  1  0.25000000  0.25000000  0.00000000  1
  Si  Si1  1  0.75000000  0.75000000  0.00000000  1
  Sn  Sn0  1  0.16514598  0.33485402  0.50000000  1
  Sn  Sn1  1  0.66514598  0.16514598  0.83029196  1
  Sn  Sn2  1  0.83485402  0.66514598  0.50000000  1
  Sn  Sn3  1  0.33485402  0.83485402  0.16970804  1
loop_
_geom_bond_atom_site_label_1
_geom_bond_atom_site_label_2
_geom_bond_distance
_geom_bond_site_symmetry_2
Ti3 Ti6 2.527550 1_565
Ti3 Ti6 2.527550 1_455
Si0 Si1 2.527550 1_555
Si0 Si1 2.527550 1_445
Si0 Ti1 2.632844 1_555
Si0 Ti2 2.632847 1_555
Si0 Ti8 2.632847 1_444
Si0 Ti9 2.632851 1_544
Si0 Ti4 2.632851 1_554
Si0 Ti0 2.632852 1_554
Si0 Ti7 2.632852 1_455
Si0 Ti5 2.632852 1_555
Si1 Ti8 2.632844 1_554
Si1 Ti2 2.632844 1_555
Si1 Ti1 2.632847 1_665
Si1 Ti7 2.632851 1_565
Si1 Ti0 2.632851 1_554
Si1 Ti5 2.632851 1_555
Si1 Ti9 2.632852 1_654
Si1 Ti4 2.632852 1_554
Sn0 Ti3 2.760537 1_555
Sn0 Ti6 2.760538 1_455
Sn0 Ti0 2.794084 1_555
Sn0 Ti1 2.794088 1_555
Sn0 Ti4 2.831851 1_555
Sn0 Ti7 2.831851 1_455
Sn0 Ti2 3.021418 1_445
Sn0 Ti8 3.021418 1_555
Sn0 Ti8 3.021423 1_445
Sn0 Ti2 3.021423 1_555
Sn1 Ti3 2.760537 1_545
Sn1 Ti6 2.760537 1_555
Sn1 Ti5 2.794084 1_556
Sn1 Ti7 2.794084 1_556
Sn1 Ti8 2.831849 1_545
Sn1 Ti0 2.831851 1_555
Sn1 Ti9 3.021416 1_655
Sn1 Ti4 3.021416 1_545
Sn1 Ti9 3.021417 1_545
Sn1 Ti4 3.021417 1_655
Sn2 Ti6 2.760537 1_555
Sn2 Ti3 2.760538 1_655
Sn2 Ti8 2.794088 1_555
Sn2 Ti2 2.794088 1_555
Sn2 Ti5 2.831851 1_555
Sn2 Ti9 2.831851 1_655
Sn2 Ti0 3.021416 1_665
Sn2 Ti0 3.021416 1_555
Sn2 Ti1 3.021418 1_555
Sn2 Ti1 3.021423 1_665
Sn3 Ti6 2.760537 1_565
Sn3 Ti3 2.760537 1_555
Sn3 Ti4 2.794084 1_554
Sn3 Ti9 2.794084 1_554
Sn3 Ti1 2.831849 1_565
Sn3 Ti2 2.831849 1_555
Sn3 Ti7 3.021416 1_455
Sn3 Ti5 3.021416 1_565
Sn3 Ti7 3.021417 1_565
Sn3 Ti5 3.021417 1_455
