# generated using pymatgen
data_YMg2ZrIn4
_symmetry_space_group_name_H-M   'P 1'
_cell_length_a   6.32287215
_cell_length_b   6.32287244
_cell_length_c   4.53256356
_cell_angle_alpha   90.00000000
_cell_angle_beta   90.00000000
_cell_angle_gamma   91.54679289
_symmetry_Int_Tables_number   1
_chemical_formula_structural   YMg2ZrIn4
_chemical_formula_sum   'Y1 Mg2 Zr1 In4'
_cell_volume   181.14003352
_cell_formula_units_Z   1
loop_
 _symmetry_equiv_pos_site_id
 _symmetry_equiv_pos_as_xyz
  1  'x, y, z'
loop_
 _atom_site_type_symbol
 _atom_site_label
 _atom_site_symmetry_multiplicity
 _atom_site_fract_x
 _atom_site_fract_y
 _atom_site_fract_z
 _atom_site_occupancy
  Y  Y0  1  0.50000000  0.50000000  0.50000000  1
  Mg  Mg0  1  0.75681029  0.24318971  0.00000000  1
  Mg  Mg1  1  0.24318971  0.75681029  0.00000000  1
  Zr  Zr0  1  0.00000000  0.00000000  0.50000000  1
  In  In0  1  0.50000000  0.00000000  0.50000000  1
  In  In1  1  0.00000000  0.50000000  0.50000000  1
  In  In2  1  0.75484199  0.75484199  0.00000000  1
  In  In3  1  0.24515801  0.24515801  0.00000000  1
loop_
_geom_bond_atom_site_label_1
_geom_bond_atom_site_label_2
_geom_bond_distance
_geom_bond_site_symmetry_2
Mg0 Zr0 3.161085 1_654
Mg0 Zr0 3.161085 1_655
Mg0 Y0 3.248337 1_554
Mg0 Y0 3.248337 1_555
Mg1 Zr0 3.161085 1_565
Mg1 Zr0 3.161085 1_564
Mg1 Y0 3.248337 1_555
Mg1 Y0 3.248337 1_554
In0 Zr0 3.161436 1_655
In0 Zr0 3.161436 1_555
In0 Y0 3.161436 1_555
In0 Y0 3.161436 1_545
In0 Mg0 3.162639 1_556
In0 Mg0 3.162639 1_555
In0 Mg1 3.162639 1_545
In0 Mg1 3.162639 1_546
In0 In2 3.204698 1_545
In0 In3 3.204698 1_555
In0 In2 3.204698 1_546
In0 In3 3.204698 1_556
In1 Y0 3.161436 1_455
In1 Y0 3.161436 1_555
In1 Zr0 3.161436 1_555
In1 Zr0 3.161436 1_565
In1 Mg1 3.162639 1_556
In1 Mg1 3.162639 1_555
In1 Mg0 3.162639 1_456
In1 Mg0 3.162639 1_455
In1 In3 3.204698 1_555
In1 In3 3.204698 1_556
In1 In2 3.204698 1_456
In1 In2 3.204698 1_455
In2 Mg1 3.087449 1_655
In2 Mg0 3.087449 1_565
In2 Zr0 3.132403 1_664
In2 Zr0 3.132403 1_665
In2 Y0 3.191967 1_555
In2 Y0 3.191967 1_554
In2 Mg1 3.235472 1_555
In2 Mg0 3.235472 1_555
In3 Mg0 3.087449 1_455
In3 Mg1 3.087449 1_545
In3 Zr0 3.132403 1_554
In3 Zr0 3.132403 1_555
In3 Y0 3.191967 1_554
In3 Y0 3.191967 1_555
In3 Mg0 3.235472 1_555
In3 Mg1 3.235472 1_555
