# generated using pymatgen
data_H5IrPb
_symmetry_space_group_name_H-M   'P 1'
_cell_length_a   4.66497321
_cell_length_b   5.08101841
_cell_length_c   13.28374749
_cell_angle_alpha   90.00000000
_cell_angle_beta   90.00000000
_cell_angle_gamma   90.00000000
_symmetry_Int_Tables_number   1
_chemical_formula_structural   H5IrPb
_chemical_formula_sum   'H20 Ir4 Pb4'
_cell_volume   314.86220571
_cell_formula_units_Z   4
loop_
 _symmetry_equiv_pos_site_id
 _symmetry_equiv_pos_as_xyz
  1  'x, y, z'
loop_
 _atom_site_type_symbol
 _atom_site_label
 _atom_site_symmetry_multiplicity
 _atom_site_fract_x
 _atom_site_fract_y
 _atom_site_fract_z
 _atom_site_occupancy
  H  H0  1  0.69294202  0.35415825  0.54943372  1
  H  H1  1  0.19294202  0.14584175  0.45056628  1
  H  H2  1  0.80705798  0.64584175  0.04943372  1
  H  H3  1  0.30705798  0.85415825  0.95056628  1
  H  H4  1  0.05367490  0.04563990  0.83336864  1
  H  H5  1  0.55367490  0.45436010  0.16663136  1
  H  H6  1  0.44632510  0.95436010  0.33336864  1
  H  H7  1  0.94632510  0.54563990  0.66663136  1
  H  H8  1  0.23539653  0.44554878  0.85722336  1
  H  H9  1  0.73539653  0.05445122  0.14277664  1
  H  H10  1  0.26460347  0.55445122  0.35722336  1
  H  H11  1  0.76460347  0.94554878  0.64277664  1
  H  H12  1  0.50947517  0.10693414  0.84664202  1
  H  H13  1  0.00947517  0.39306586  0.15335798  1
  H  H14  1  0.99052483  0.89306586  0.34664202  1
  H  H15  1  0.49052483  0.60693414  0.65335798  1
  H  H16  1  0.91080851  0.12809508  0.98416817  1
  H  H17  1  0.41080851  0.37190492  0.01583183  1
  H  H18  1  0.58919149  0.87190492  0.48416817  1
  H  H19  1  0.08919149  0.62809508  0.51583183  1
  Ir  Ir0  1  0.24822410  0.16748184  0.92203282  1
  Ir  Ir1  1  0.74822410  0.33251816  0.07796718  1
  Ir  Ir2  1  0.25177590  0.83251816  0.42203282  1
  Ir  Ir3  1  0.75177590  0.66748184  0.57796718  1
  Pb  Pb0  1  0.23249330  0.07351733  0.62116221  1
  Pb  Pb1  1  0.73249330  0.42648267  0.37883779  1
  Pb  Pb2  1  0.26750670  0.92648267  0.12116221  1
  Pb  Pb3  1  0.76750670  0.57351733  0.87883779  1
loop_
_geom_bond_atom_site_label_1
_geom_bond_atom_site_label_2
_geom_bond_distance
_geom_bond_site_symmetry_2
H0 Ir3 1.659357 1_555
H0 Pb1 2.303158 1_555
H1 Ir2 1.659357 1_545
H1 Pb0 2.303158 1_555
H2 Ir1 1.659357 1_555
H2 Pb3 2.303158 1_554
H3 Ir0 1.659357 1_565
H3 Pb2 2.303158 1_556
H4 Ir0 1.610632 1_555
H5 Ir1 1.610632 1_555
H6 Ir2 1.610632 1_555
H7 Ir3 1.610632 1_555
H8 Ir0 1.655577 1_555
H8 Pb3 2.295509 1_455
H9 Ir1 1.655577 1_555
H9 Pb2 2.295509 1_545
H10 Ir2 1.655577 1_555
H10 Pb1 2.295509 1_555
H11 Ir3 1.655577 1_555
H11 Pb0 2.295509 1_665
H12 Ir0 1.607138 1_555
H13 Ir1 1.607138 1_455
H14 Ir2 1.607138 1_655
H15 Ir3 1.607138 1_555
H16 Ir0 1.788548 1_655
H16 Ir1 1.790704 1_556
H17 Ir1 1.788548 1_555
H17 Ir0 1.790704 1_554
H18 Ir2 1.788548 1_555
H18 Ir3 1.790704 1_555
H19 Ir3 1.788548 1_455
H19 Ir2 1.790704 1_555
