# generated using pymatgen
data_RuRh3Pb4O13
_symmetry_space_group_name_H-M   'P 1'
_cell_length_a   7.25511502
_cell_length_b   7.18432880
_cell_length_c   7.18432913
_cell_angle_alpha   60.00000290
_cell_angle_beta   60.32223156
_cell_angle_gamma   60.32222565
_symmetry_Int_Tables_number   1
_chemical_formula_structural   RuRh3Pb4O13
_chemical_formula_sum   'Ru1 Rh3 Pb4 O13'
_cell_volume   266.07243024
_cell_formula_units_Z   1
loop_
 _symmetry_equiv_pos_site_id
 _symmetry_equiv_pos_as_xyz
  1  'x, y, z'
loop_
 _atom_site_type_symbol
 _atom_site_label
 _atom_site_symmetry_multiplicity
 _atom_site_fract_x
 _atom_site_fract_y
 _atom_site_fract_z
 _atom_site_occupancy
  Ru  Ru0  1  0.37708038  0.87430654  0.87430654  1
  Rh  Rh0  1  0.87556179  0.37525219  0.87459251  1
  Rh  Rh1  1  0.87556179  0.87459251  0.37525219  1
  Rh  Rh2  1  0.87556179  0.87459251  0.87459251  1
  Pb  Pb0  1  0.87273610  0.37575463  0.37575463  1
  Pb  Pb1  1  0.37072760  0.37161386  0.37161386  1
  Pb  Pb2  1  0.37072760  0.37161386  0.88604567  1
  Pb  Pb3  1  0.37072760  0.88604567  0.37161386  1
  O  O0  1  0.20310589  0.79953525  0.79953525  1
  O  O1  1  0.20310589  0.79953525  0.19782361  1
  O  O2  1  0.55248328  0.94617353  0.94617353  1
  O  O3  1  0.55248328  0.94617353  0.55516866  1
  O  O4  1  0.95713083  0.95132846  0.54577035  1
  O  O5  1  0.79285662  0.79443641  0.20635349  1
  O  O6  1  0.55248328  0.55516866  0.94617353  1
  O  O7  1  0.79285662  0.20635349  0.79443641  1
  O  O8  1  0.79285662  0.20635349  0.20635349  1
  O  O9  1  0.95713083  0.54577035  0.95132846  1
  O  O10  1  0.95713083  0.54577035  0.54577035  1
  O  O11  1  0.20310589  0.19782361  0.79953525  1
  O  O12  1  0.49458353  0.50180582  0.50180582  1
loop_
_geom_bond_atom_site_label_1
_geom_bond_atom_site_label_2
_geom_bond_distance
_geom_bond_site_symmetry_2
O0 Ru0 1.949792 1_555
O0 Rh2 1.995399 1_455
O0 Pb2 2.540111 1_555
O0 Pb3 2.540112 1_555
O1 Ru0 1.949792 1_554
O1 Rh1 1.995398 1_455
O1 Pb1 2.540112 1_555
O1 Pb3 2.540118 1_555
O2 Ru0 1.928847 1_555
O2 Rh2 1.974915 1_555
O2 Pb2 2.553478 1_565
O2 Pb3 2.553478 1_556
O3 Ru0 1.928852 1_555
O3 Rh1 1.974915 1_555
O3 Pb3 2.553466 1_555
O3 Pb1 2.553475 1_565
O4 Rh2 1.967546 1_555
O4 Rh1 1.967552 1_555
O4 Pb3 2.502996 1_655
O4 Pb0 2.516325 1_565
O5 Rh1 1.981413 1_555
O5 Rh2 1.981420 1_554
O5 Pb0 2.485203 1_555
O5 Pb3 2.531211 1_555
O6 Ru0 1.928852 1_555
O6 Rh0 1.974915 1_555
O6 Pb2 2.553466 1_555
O6 Pb1 2.553476 1_556
O7 Rh0 1.981413 1_555
O7 Rh2 1.981420 1_545
O7 Pb0 2.485204 1_555
O7 Pb2 2.531211 1_555
O8 Rh1 1.981419 1_545
O8 Rh0 1.981419 1_554
O8 Pb0 2.485203 1_555
O8 Pb1 2.531211 1_555
O9 Rh2 1.967546 1_555
O9 Rh0 1.967552 1_555
O9 Pb2 2.502996 1_655
O9 Pb0 2.516325 1_556
O10 Rh1 1.967547 1_555
O10 Rh0 1.967547 1_555
O10 Pb1 2.502995 1_655
O10 Pb0 2.516325 1_555
O11 Ru0 1.949792 1_545
O11 Rh0 1.995398 1_455
O11 Pb1 2.540113 1_555
O11 Pb2 2.540118 1_555
O12 Pb0 2.250940 1_555
O12 Pb3 2.257572 1_555
O12 Pb1 2.257572 1_555
O12 Pb2 2.257572 1_555
