# generated using pymatgen
data_Lu4ScZn2Bi
_symmetry_space_group_name_H-M   'P 1'
_cell_length_a   8.34968386
_cell_length_b   8.34968391
_cell_length_c   8.34968468
_cell_angle_alpha   124.14216942
_cell_angle_beta   124.14216428
_cell_angle_gamma   82.96379070
_symmetry_Int_Tables_number   1
_chemical_formula_structural   Lu4ScZn2Bi
_chemical_formula_sum   'Lu8 Sc2 Zn4 Bi2'
_cell_volume   382.68065727
_cell_formula_units_Z   2
loop_
 _symmetry_equiv_pos_site_id
 _symmetry_equiv_pos_as_xyz
  1  'x, y, z'
loop_
 _atom_site_type_symbol
 _atom_site_label
 _atom_site_symmetry_multiplicity
 _atom_site_fract_x
 _atom_site_fract_y
 _atom_site_fract_z
 _atom_site_occupancy
  Lu  Lu0  1  0.79400318  0.29400318  0.80582984  1
  Lu  Lu1  1  0.20599682  0.70599682  0.19417016  1
  Lu  Lu2  1  0.48817534  0.98817534  0.19417016  1
  Lu  Lu3  1  0.29400318  0.48817534  0.50000000  1
  Lu  Lu4  1  0.01182466  0.20599682  0.50000000  1
  Lu  Lu5  1  0.51182466  0.01182466  0.80582984  1
  Lu  Lu6  1  0.70599682  0.51182466  0.50000000  1
  Lu  Lu7  1  0.98817534  0.79400318  0.50000000  1
  Sc  Sc0  1  0.00000000  0.00000000  0.00000000  1
  Sc  Sc1  1  0.50000000  0.50000000  0.00000000  1
  Zn  Zn0  1  0.14066985  0.64066985  0.78133969  1
  Zn  Zn1  1  0.85933015  0.35933015  0.21866031  1
  Zn  Zn2  1  0.64066985  0.85933015  0.50000000  1
  Zn  Zn3  1  0.35933015  0.14066985  0.50000000  1
  Bi  Bi0  1  0.25000000  0.25000000  0.00000000  1
  Bi  Bi1  1  0.75000000  0.75000000  0.00000000  1
loop_
_geom_bond_atom_site_label_1
_geom_bond_atom_site_label_2
_geom_bond_distance
_geom_bond_site_symmetry_2
Lu0 Zn1 2.885956 1_556
Lu0 Zn2 2.897881 1_545
Lu0 Zn3 2.897881 1_555
Lu1 Zn0 2.885956 1_554
Lu1 Zn3 2.897881 1_565
Lu1 Zn2 2.897881 1_555
Lu2 Zn0 2.885971 1_554
Lu2 Zn3 2.897897 1_565
Lu2 Zn2 2.897897 1_555
Lu3 Zn3 2.885972 1_555
Lu3 Zn0 2.897882 1_555
Lu3 Zn1 2.897883 1_455
Lu4 Zn3 2.885972 1_555
Lu4 Zn0 2.897882 1_555
Lu4 Zn1 2.897883 1_455
Lu5 Zn1 2.885971 1_556
Lu5 Zn2 2.897897 1_545
Lu5 Zn3 2.897897 1_555
Lu6 Zn2 2.885972 1_555
Lu6 Zn1 2.897882 1_555
Lu6 Zn0 2.897883 1_655
Lu7 Zn2 2.885972 1_555
Lu7 Zn1 2.897882 1_555
Lu7 Zn0 2.897883 1_655
Sc0 Zn0 3.018219 1_544
Sc0 Zn1 3.018219 1_455
Sc0 Zn3 3.018220 1_555
Sc0 Zn2 3.018220 1_444
Sc1 Zn1 3.018219 1_555
Sc1 Zn0 3.018219 1_554
Sc1 Zn2 3.018220 1_555
Sc1 Zn3 3.018220 1_554
Bi0 Sc0 3.127646 1_555
Bi0 Sc1 3.127646 1_555
Bi0 Lu5 3.264485 1_554
Bi0 Lu2 3.264485 1_545
Bi0 Lu7 3.264494 1_444
Bi0 Lu3 3.264494 1_555
Bi0 Lu6 3.264494 1_555
Bi0 Lu4 3.264494 1_554
Bi0 Lu1 3.264495 1_555
Bi0 Lu0 3.264495 1_454
Bi1 Sc0 3.127646 1_665
Bi1 Sc1 3.127646 1_555
Bi1 Lu2 3.264485 1_555
Bi1 Lu5 3.264485 1_564
Bi1 Lu4 3.264494 1_665
Bi1 Lu6 3.264494 1_554
Bi1 Lu3 3.264494 1_554
Bi1 Lu7 3.264494 1_555
Bi1 Lu0 3.264495 1_554
Bi1 Lu1 3.264495 1_655
