# generated using pymatgen
data_Ca10InTcN10
_symmetry_space_group_name_H-M   'P 1'
_cell_length_a   6.96673172
_cell_length_b   6.96673160
_cell_length_c   8.72930592
_cell_angle_alpha   82.88588383
_cell_angle_beta   82.88587378
_cell_angle_gamma   60.38550441
_symmetry_Int_Tables_number   1
_chemical_formula_structural   Ca10InTcN10
_chemical_formula_sum   'Ca10 In1 Tc1 N10'
_cell_volume   364.53395370
_cell_formula_units_Z   1
loop_
 _symmetry_equiv_pos_site_id
 _symmetry_equiv_pos_as_xyz
  1  'x, y, z'
loop_
 _atom_site_type_symbol
 _atom_site_label
 _atom_site_symmetry_multiplicity
 _atom_site_fract_x
 _atom_site_fract_y
 _atom_site_fract_z
 _atom_site_occupancy
  Ca  Ca0  1  0.90320333  0.37215629  0.83607558  1
  Ca  Ca1  1  0.88985443  0.88985443  0.80547506  1
  Ca  Ca2  1  0.73929827  0.73929827  0.53413911  1
  Ca  Ca3  1  0.74501799  0.26582695  0.52196021  1
  Ca  Ca4  1  0.60496535  0.11877879  0.13422793  1
  Ca  Ca5  1  0.37215629  0.90320333  0.83607558  1
  Ca  Ca6  1  0.26582695  0.74501799  0.52196021  1
  Ca  Ca7  1  0.24733054  0.24733054  0.50537642  1
  Ca  Ca8  1  0.12242778  0.12242778  0.17680672  1
  Ca  Ca9  1  0.11877879  0.60496535  0.13422793  1
  In  In0  1  0.38003217  0.38003217  0.78146395  1
  Tc  Tc0  1  0.62796998  0.62796998  0.22682345  1
  N  N0  1  0.89218870  0.47168662  0.31860612  1
  N  N1  1  0.97685956  0.97685956  0.03910246  1
  N  N2  1  0.68549851  0.68549851  0.02776794  1
  N  N3  1  0.56067328  0.56067328  0.69278026  1
  N  N4  1  0.47168662  0.89218870  0.31860612  1
  N  N5  1  0.56535414  0.07186787  0.65492653  1
  N  N6  1  0.47425627  0.47425627  0.27616466  1
  N  N7  1  0.27666574  0.27666574  0.00046356  1
  N  N8  1  0.07037644  0.07037644  0.64785267  1
  N  N9  1  0.07186787  0.56535414  0.65492653  1
loop_
_geom_bond_atom_site_label_1
_geom_bond_atom_site_label_2
_geom_bond_distance
_geom_bond_site_symmetry_2
Ca0 N3 2.493797 1_555
Ca0 N9 2.503701 1_655
Ca0 N8 2.537294 1_655
Ca0 N2 2.621012 1_556
Ca0 N7 2.872083 1_656
Ca0 N1 2.933956 1_546
Ca1 N8 2.400527 1_665
Ca1 N1 2.422702 1_556
Ca1 N9 2.436335 1_655
Ca1 N5 2.436336 1_565
Ca1 N2 2.907554 1_556
Ca2 N5 2.337110 1_565
Ca2 N9 2.337110 1_655
Ca2 N3 2.385748 1_555
Ca2 N0 2.561273 1_555
Ca2 N4 2.561274 1_555
Ca3 N8 2.322846 1_655
Ca3 N5 2.379720 1_555
Ca3 N3 2.401945 1_555
Ca3 N0 2.575089 1_555
Ca3 N6 2.791796 1_555
Ca4 N1 2.349152 1_545
Ca4 N7 2.379387 1_555
Ca4 N4 2.528581 1_545
Ca4 N6 2.597930 1_555
Ca4 N2 3.030171 1_545
Ca5 N3 2.493797 1_555
Ca5 N5 2.503701 1_565
Ca5 N8 2.537294 1_565
Ca5 N2 2.621013 1_556
Ca5 N7 2.872082 1_566
Ca5 N1 2.933956 1_456
Ca6 N8 2.322845 1_565
Ca6 N9 2.379720 1_555
Ca6 N3 2.401946 1_555
Ca6 N4 2.575089 1_555
Ca6 N6 2.791796 1_555
Ca7 N8 2.308435 1_555
Ca7 N9 2.398285 1_555
Ca7 N5 2.398285 1_555
Ca7 N4 2.787226 1_545
Ca7 N0 2.787227 1_455
Ca7 N6 3.147264 1_555
Ca8 N7 2.236200 1_555
Ca8 N1 2.263240 1_445
Ca8 N0 2.534241 1_455
Ca8 N4 2.534242 1_545
Ca9 N1 2.349152 1_455
Ca9 N7 2.379387 1_555
Ca9 N0 2.528581 1_455
Ca9 N6 2.597930 1_555
Ca9 N2 3.030171 1_455
In0 N7 2.126584 1_556
In0 N3 2.202155 1_555
In0 N5 2.234024 1_555
In0 N9 2.234024 1_555
N0 Tc0 1.839608 1_555
N2 Tc0 1.776044 1_555
N4 Tc0 1.839607 1_555
N6 Tc0 1.839564 1_555
