# generated using pymatgen
data_Y8MoW3C8
_symmetry_space_group_name_H-M   'P 1'
_cell_length_a   5.73185106
_cell_length_b   5.73189749
_cell_length_c   9.88868235
_cell_angle_alpha   90.00000000
_cell_angle_beta   90.00000000
_cell_angle_gamma   89.99138606
_symmetry_Int_Tables_number   1
_chemical_formula_structural   Y8MoW3C8
_chemical_formula_sum   'Y8 Mo1 W3 C8'
_cell_volume   324.88655059
_cell_formula_units_Z   1
loop_
 _symmetry_equiv_pos_site_id
 _symmetry_equiv_pos_as_xyz
  1  'x, y, z'
loop_
 _atom_site_type_symbol
 _atom_site_label
 _atom_site_symmetry_multiplicity
 _atom_site_fract_x
 _atom_site_fract_y
 _atom_site_fract_z
 _atom_site_occupancy
  Y  Y0  1  0.30022240  0.69977653  0.15737551  1
  Y  Y1  1  0.69942140  0.30058047  0.84236587  1
  Y  Y2  1  0.80053374  0.79891428  0.34259977  1
  Y  Y3  1  0.20108412  0.19946544  0.65739949  1
  Y  Y4  1  0.69942140  0.30058047  0.15763413  1
  Y  Y5  1  0.30022240  0.69977653  0.84262449  1
  Y  Y6  1  0.20108412  0.19946544  0.34260051  1
  Y  Y7  1  0.80053374  0.79891428  0.65740023  1
  Mo  Mo0  1  0.67740864  0.32259051  0.50000000  1
  W  W0  1  0.32319424  0.67682514  0.50000000  1
  W  W1  1  0.82182780  0.82220970  0.00000000  1
  W  W2  1  0.17779051  0.17816954  0.00000000  1
  C  C0  1  0.99981009  0.00018633  0.84676540  1
  C  C1  1  0.49851413  0.50148581  0.65365784  1
  C  C2  1  0.49851413  0.50148581  0.34634216  1
  C  C3  1  0.49997005  0.00025094  0.00000000  1
  C  C4  1  0.49967532  0.99878595  0.50000000  1
  C  C5  1  0.99974561  0.50002850  0.00000000  1
  C  C6  1  0.00121306  0.50032498  0.50000000  1
  C  C7  1  0.99981009  0.00018633  0.15323460  1
loop_
_geom_bond_atom_site_label_1
_geom_bond_atom_site_label_2
_geom_bond_distance
_geom_bond_site_symmetry_2
C0 W1 2.092331 1_546
C0 W2 2.092344 1_656
C0 Y1 2.435207 1_555
C0 Y5 2.435322 1_645
C0 Y7 2.478417 1_545
C0 Y3 2.478435 1_655
C1 W0 2.080484 1_555
C1 Mo0 2.100330 1_555
C1 Y7 2.430127 1_555
C1 Y3 2.430136 1_555
C1 Y5 2.464756 1_555
C1 Y1 2.476703 1_555
C2 W0 2.080484 1_555
C2 Mo0 2.100330 1_555
C2 Y2 2.430127 1_555
C2 Y6 2.430136 1_555
C2 Y0 2.464756 1_555
C2 Y4 2.476703 1_555
C3 W1 2.108156 1_545
C3 W2 2.109430 1_555
C3 Y0 2.588357 1_545
C3 Y5 2.588357 1_544
C3 Y4 2.588593 1_555
C3 Y1 2.588593 1_554
C4 W0 2.104636 1_555
C4 Mo0 2.117355 1_565
C4 Y3 2.583469 1_565
C4 Y6 2.583469 1_565
C4 Y7 2.590049 1_555
C4 Y2 2.590049 1_555
C5 W2 2.108181 1_655
C5 W1 2.109445 1_555
C5 Y0 2.588362 1_655
C5 Y5 2.588362 1_654
C5 Y4 2.588559 1_555
C5 Y1 2.588559 1_554
C6 W0 2.104782 1_555
C6 Mo0 2.117348 1_455
C6 Y7 2.583471 1_455
C6 Y2 2.583471 1_455
C6 Y3 2.590053 1_555
C6 Y6 2.590053 1_555
C7 W1 2.092331 1_545
C7 W2 2.092344 1_655
C7 Y4 2.435207 1_555
C7 Y0 2.435322 1_645
C7 Y2 2.478417 1_545
C7 Y6 2.478435 1_655
