# generated using pymatgen
data_Sc3GeSb3Au4
_symmetry_space_group_name_H-M   'P 1'
_cell_length_a   7.81601764
_cell_length_b   7.81601681
_cell_length_c   7.82130043
_cell_angle_alpha   131.91157354
_cell_angle_beta   131.91156160
_cell_angle_gamma   70.31377728
_symmetry_Int_Tables_number   1
_chemical_formula_structural   Sc3GeSb3Au4
_chemical_formula_sum   'Sc3 Ge1 Sb3 Au4'
_cell_volume   259.39962947
_cell_formula_units_Z   1
loop_
 _symmetry_equiv_pos_site_id
 _symmetry_equiv_pos_as_xyz
  1  'x, y, z'
loop_
 _atom_site_type_symbol
 _atom_site_label
 _atom_site_symmetry_multiplicity
 _atom_site_fract_x
 _atom_site_fract_y
 _atom_site_fract_z
 _atom_site_occupancy
  Sc  Sc0  1  0.99847396  0.99847396  1.00000000  1
  Sc  Sc1  1  0.75009213  0.25009113  0.50000100  1
  Sc  Sc2  1  0.25009113  0.75009213  0.50000100  1
  Ge  Ge0  1  0.25474556  0.25474556  0.00000000  1
  Sb  Sb0  1  0.74622698  0.74622698  1.00000000  1
  Sb  Sb1  1  0.49887255  0.99887155  0.50000100  1
  Sb  Sb2  1  0.99887155  0.49887255  0.50000100  1
  Au  Au0  1  0.60986036  0.13513959  0.00000000  1
  Au  Au1  1  0.13513959  0.60986036  0.00000000  1
  Au  Au2  1  0.89159215  0.89159215  0.52555712  1
  Au  Au3  1  0.36603604  0.36603604  0.47444388  1
loop_
_geom_bond_atom_site_label_1
_geom_bond_atom_site_label_2
_geom_bond_distance
_geom_bond_site_symmetry_2
Sb0 Sc1 3.186029 1_555
Sb0 Sc1 3.186030 1_566
Sb0 Sc2 3.186030 1_555
Sb0 Sc2 3.186030 1_656
Sb0 Sc0 3.223821 1_555
Sb1 Sc2 3.179517 1_555
Sb1 Sc0 3.185645 1_555
Sb1 Sc0 3.185658 1_454
Sb1 Sc1 3.210690 1_565
Sb2 Sc1 3.179517 1_555
Sb2 Sc0 3.185644 1_555
Sb2 Sc0 3.185657 1_544
Sb2 Sc2 3.210690 1_655
Au0 Ge0 2.613355 1_555
Au0 Sc2 2.746795 1_544
Au0 Sc1 2.746803 1_555
Au0 Sb1 2.775952 1_544
Au0 Sb2 2.775960 1_555
Au0 Sc0 2.860232 1_544
Au0 Sb0 2.862385 1_544
Au1 Ge0 2.613355 1_555
Au1 Sc1 2.746796 1_454
Au1 Sc2 2.746803 1_555
Au1 Sb2 2.775953 1_454
Au1 Sb1 2.775960 1_555
Au1 Sc0 2.860232 1_454
Au1 Sb0 2.862385 1_454
Au2 Ge0 2.677382 1_666
Au2 Sc0 2.711619 1_555
Au2 Sc1 2.734874 1_565
Au2 Sc2 2.734874 1_655
Au2 Sb2 2.799120 1_555
Au2 Sb1 2.799121 1_555
Au2 Sb0 2.805235 1_554
Au3 Ge0 2.677382 1_555
Au3 Sc0 2.711627 1_444
Au3 Sc2 2.734878 1_555
Au3 Sc1 2.734878 1_555
Au3 Sb1 2.799132 1_545
Au3 Sb2 2.799132 1_455
Au3 Sb0 2.805228 1_555
