# generated using pymatgen
data_Mo3(PO4)4
_symmetry_space_group_name_H-M   'P 1'
_cell_length_a   5.15703200
_cell_length_b   8.78882100
_cell_length_c   15.51266795
_cell_angle_alpha   61.34875243
_cell_angle_beta   90.00000000
_cell_angle_gamma   90.00000000
_symmetry_Int_Tables_number   1
_chemical_formula_structural   Mo3(PO4)4
_chemical_formula_sum   'Mo6 P8 O32'
_cell_volume   617.00832191
_cell_formula_units_Z   2
loop_
 _symmetry_equiv_pos_site_id
 _symmetry_equiv_pos_as_xyz
  1  'x, y, z'
loop_
 _atom_site_type_symbol
 _atom_site_label
 _atom_site_symmetry_multiplicity
 _atom_site_fract_x
 _atom_site_fract_y
 _atom_site_fract_z
 _atom_site_occupancy
  Mo  Mo0  1  0.96980700  0.80331600  0.20164800  1
  Mo  Mo1  1  0.53019300  0.80331600  0.70164800  1
  Mo  Mo2  1  0.46980700  0.19668400  0.29835200  1
  Mo  Mo3  1  0.50000000  0.50000000  0.00000000  1
  Mo  Mo4  1  0.03019300  0.19668400  0.79835200  1
  Mo  Mo5  1  0.00000000  0.50000000  0.50000000  1
  P  P0  1  0.99911200  0.53822200  0.84613000  1
  P  P1  1  0.00088800  0.46177800  0.15387000  1
  P  P2  1  0.00496500  0.07323700  0.61527800  1
  P  P3  1  0.99503500  0.92676300  0.38472200  1
  P  P4  1  0.50496500  0.92676300  0.88472200  1
  P  P5  1  0.49503500  0.07323700  0.11527800  1
  P  P6  1  0.50088800  0.53822200  0.34613000  1
  P  P7  1  0.49911200  0.46177800  0.65387000  1
  O  O0  1  0.78042500  0.04635600  0.38211900  1
  O  O1  1  0.16099700  0.46624400  0.06897800  1
  O  O2  1  0.33900300  0.46624400  0.56897800  1
  O  O3  1  0.71957500  0.04635600  0.88211900  1
  O  O4  1  0.38995100  0.32372500  0.75154300  1
  O  O5  1  0.97641200  0.74584900  0.47698000  1
  O  O6  1  0.23423100  0.99964900  0.89385200  1
  O  O7  1  0.88995100  0.67627500  0.74845700  1
  O  O8  1  0.97292700  0.35604400  0.85410000  1
  O  O9  1  0.52358800  0.74584900  0.97698000  1
  O  O10  1  0.76576900  0.00035100  0.10614800  1
  O  O11  1  0.11004900  0.32372500  0.25154300  1
  O  O12  1  0.21005200  0.58388500  0.35552900  1
  O  O13  1  0.50505700  0.90592400  0.79141400  1
  O  O14  1  0.78994800  0.41611500  0.64447100  1
  O  O15  1  0.47641200  0.25415100  0.02302000  1
  O  O16  1  0.28994800  0.58388500  0.85552900  1
  O  O17  1  0.26576900  0.99964900  0.39385200  1
  O  O18  1  0.73423100  0.00035100  0.60614800  1
  O  O19  1  0.21957500  0.95364400  0.61788100  1
  O  O20  1  0.52707300  0.35604400  0.35410000  1
  O  O21  1  0.49494300  0.09407600  0.20858600  1
  O  O22  1  0.99494300  0.90592400  0.29141400  1
  O  O23  1  0.02707300  0.64395600  0.14590000  1
  O  O24  1  0.02358800  0.25415100  0.52302000  1
  O  O25  1  0.47292700  0.64395600  0.64590000  1
  O  O26  1  0.83900300  0.53375600  0.93102200  1
  O  O27  1  0.66099700  0.53375600  0.43102200  1
  O  O28  1  0.28042500  0.95364400  0.11788100  1
  O  O29  1  0.61004900  0.67627500  0.24845700  1
  O  O30  1  0.71005200  0.41611500  0.14447100  1
  O  O31  1  0.00505700  0.09407600  0.70858600  1
loop_
_geom_bond_atom_site_label_1
_geom_bond_atom_site_label_2
_geom_bond_distance
_geom_bond_site_symmetry_2
Mo0 O10 1.959736 1_565
Mo0 O23 1.989535 1_655
Mo0 O22 1.993330 1_555
Mo0 O28 2.086567 1_655
Mo0 O29 2.106782 1_555
Mo0 O12 2.556926 1_655
Mo1 O18 1.959736 1_565
Mo1 O25 1.989535 1_555
Mo1 O13 1.993330 1_555
Mo1 O19 2.086567 1_555
Mo1 O7 2.106782 1_555
Mo1 O16 2.556926 1_555
Mo2 O17 1.959736 1_545
Mo2 O20 1.989535 1_555
Mo2 O21 1.993330 1_555
Mo2 O0 2.086567 1_555
Mo2 O11 2.106782 1_555
Mo2 O30 2.556926 1_555
Mo3 O1 1.996231 1_555
Mo3 O26 1.996231 1_554
Mo3 O15 2.017701 1_555
Mo3 O9 2.017701 1_554
Mo3 O30 2.270500 1_555
Mo3 O16 2.270500 1_554
Mo4 O6 1.959736 1_545
Mo4 O8 1.989535 1_455
Mo4 O31 1.993330 1_555
Mo4 O3 2.086567 1_455
Mo4 O4 2.106782 1_555
Mo4 O14 2.556926 1_455
Mo5 O2 1.996231 1_555
Mo5 O27 1.996231 1_455
Mo5 O24 2.017701 1_555
Mo5 O5 2.017701 1_455
Mo5 O14 2.270500 1_455
Mo5 O12 2.270500 1_555
O0 P3 1.513473 1_545
O1 P1 1.538818 1_555
O2 P7 1.538818 1_555
O3 P4 1.513473 1_545
O4 P7 1.523768 1_555
O5 P3 1.550306 1_555
O6 P4 1.570585 1_555
O7 P0 1.523768 1_555
O8 P0 1.551549 1_555
O9 P4 1.550306 1_555
O10 P5 1.570585 1_555
O11 P1 1.523768 1_555
O12 P6 1.577334 1_555
O13 P4 1.543662 1_555
O14 P7 1.577334 1_555
O15 P5 1.550306 1_555
O16 P0 1.577334 1_455
O17 P3 1.570585 1_455
O18 P2 1.570585 1_655
O19 P2 1.513473 1_565
O20 P6 1.551549 1_555
O21 P5 1.543662 1_555
O22 P3 1.543662 1_555
O23 P1 1.551549 1_555
O24 P2 1.550306 1_555
O25 P7 1.551549 1_555
O26 P0 1.538818 1_555
O27 P6 1.538818 1_555
O28 P5 1.513473 1_565
O29 P6 1.523768 1_555
O30 P1 1.577334 1_655
O31 P2 1.543662 1_555
