# generated using pymatgen
data_Cs4TaVBr12
_symmetry_space_group_name_H-M   'P 1'
_cell_length_a   7.58642684
_cell_length_b   7.58642684
_cell_length_c   11.06725099
_cell_angle_alpha   90.00000000
_cell_angle_beta   90.00000000
_cell_angle_gamma   90.00000000
_symmetry_Int_Tables_number   1
_chemical_formula_structural   Cs4TaVBr12
_chemical_formula_sum   'Cs4 Ta1 V1 Br12'
_cell_volume   636.96314887
_cell_formula_units_Z   1
loop_
 _symmetry_equiv_pos_site_id
 _symmetry_equiv_pos_as_xyz
  1  'x, y, z'
loop_
 _atom_site_type_symbol
 _atom_site_label
 _atom_site_symmetry_multiplicity
 _atom_site_fract_x
 _atom_site_fract_y
 _atom_site_fract_z
 _atom_site_occupancy
  Cs  Cs0  1  0.50000000  0.00000000  0.77211822  1
  Cs  Cs1  1  0.00000000  0.50000000  0.22788178  1
  Cs  Cs2  1  0.50000000  0.00000000  0.22788178  1
  Cs  Cs3  1  0.00000000  0.50000000  0.77211822  1
  Ta  Ta0  1  0.50000000  0.50000000  0.50000000  1
  V  V0  1  0.00000000  0.00000000  0.00000000  1
  Br  Br0  1  0.00000000  0.00000000  0.76407498  1
  Br  Br1  1  0.50000000  0.50000000  0.27089311  1
  Br  Br2  1  0.73538090  0.73538090  0.50000000  1
  Br  Br3  1  0.23723869  0.23723869  0.00000000  1
  Br  Br4  1  0.73538090  0.26461910  0.50000000  1
  Br  Br5  1  0.23723869  0.76276131  0.00000000  1
  Br  Br6  1  0.00000000  0.00000000  0.23592502  1
  Br  Br7  1  0.50000000  0.50000000  0.72910689  1
  Br  Br8  1  0.26461910  0.26461910  0.50000000  1
  Br  Br9  1  0.76276131  0.76276131  0.00000000  1
  Br  Br10  1  0.26461910  0.73538090  0.50000000  1
  Br  Br11  1  0.76276131  0.23723869  0.00000000  1
loop_
_geom_bond_atom_site_label_1
_geom_bond_atom_site_label_2
_geom_bond_distance
_geom_bond_site_symmetry_2
Br0 V0 2.611041 1_556
Br0 Cs0 3.794258 1_455
Br0 Cs3 3.794258 1_545
Br0 Cs3 3.794258 1_555
Br0 Cs0 3.794258 1_555
Br1 Ta0 2.535584 1_555
Br1 Cs1 3.822965 1_655
Br1 Cs2 3.822965 1_555
Br1 Cs1 3.822965 1_555
Br1 Cs2 3.822965 1_565
Br2 Ta0 2.525361 1_555
Br2 Cs1 4.035910 1_655
Br2 Cs0 4.035910 1_565
Br2 Cs3 4.035910 1_655
Br2 Cs2 4.035910 1_565
Br3 V0 2.545293 1_555
Br3 Cs3 3.684235 1_554
Br3 Cs0 3.684235 1_554
Br3 Cs2 3.684235 1_555
Br3 Cs1 3.684235 1_555
Br4 Ta0 2.525361 1_555
Br4 Cs0 4.035910 1_555
Br4 Cs2 4.035910 1_555
Br4 Cs3 4.035910 1_655
Br4 Cs1 4.035910 1_655
Br5 V0 2.545293 1_565
Br5 Cs3 3.684235 1_554
Br5 Cs1 3.684235 1_555
Br5 Cs2 3.684235 1_565
Br5 Cs0 3.684235 1_564
Br6 V0 2.611041 1_555
Br6 Cs2 3.794258 1_555
Br6 Cs1 3.794258 1_555
Br6 Cs2 3.794258 1_455
Br6 Cs1 3.794258 1_545
Br7 Ta0 2.535584 1_555
Br7 Cs3 3.822965 1_555
Br7 Cs0 3.822965 1_565
Br7 Cs0 3.822965 1_555
Br7 Cs3 3.822965 1_655
Br8 Ta0 2.525361 1_555
Br8 Cs2 4.035910 1_555
Br8 Cs3 4.035910 1_555
Br8 Cs1 4.035910 1_555
Br8 Cs0 4.035910 1_555
Br9 V0 2.545293 1_665
Br9 Cs0 3.684235 1_564
Br9 Cs3 3.684235 1_654
Br9 Cs2 3.684235 1_565
Br9 Cs1 3.684235 1_655
Br10 Ta0 2.525361 1_555
Br10 Cs1 4.035910 1_555
Br10 Cs3 4.035910 1_555
Br10 Cs2 4.035910 1_565
Br10 Cs0 4.035910 1_565
Br11 V0 2.545293 1_655
Br11 Cs0 3.684235 1_554
Br11 Cs2 3.684235 1_555
Br11 Cs3 3.684235 1_654
Br11 Cs1 3.684235 1_655
