# generated using pymatgen
data_Ba8As5Cl
_symmetry_space_group_name_H-M   'P 1'
_cell_length_a   8.68966262
_cell_length_b   8.68967539
_cell_length_c   8.68967231
_cell_angle_alpha   109.51032541
_cell_angle_beta   109.51023814
_cell_angle_gamma   109.39315528
_symmetry_Int_Tables_number   1
_chemical_formula_structural   Ba8As5Cl
_chemical_formula_sum   'Ba8 As5 Cl1'
_cell_volume   505.11145642
_cell_formula_units_Z   1
loop_
 _symmetry_equiv_pos_site_id
 _symmetry_equiv_pos_as_xyz
  1  'x, y, z'
loop_
 _atom_site_type_symbol
 _atom_site_label
 _atom_site_symmetry_multiplicity
 _atom_site_fract_x
 _atom_site_fract_y
 _atom_site_fract_z
 _atom_site_occupancy
  Ba  Ba0  1  0.74337233  0.36636499  0.24450941  1
  Ba  Ba1  1  0.98463181  0.73574133  0.10205713  1
  Ba  Ba2  1  0.63368520  0.88257568  0.89794387  1
  Ba  Ba3  1  0.12185558  0.49886293  0.75549059  1
  Ba  Ba4  1  0.63363601  0.87814442  0.37700835  1
  Ba  Ba5  1  0.50113707  0.25662767  0.62299165  1
  Ba  Ba6  1  0.26425967  0.36631380  0.24888948  1
  Ba  Ba7  1  0.11742332  0.01536819  0.75111052  1
  As  As0  1  0.74685444  0.63132894  0.62444670  1
  As  As1  1  0.36867206  0.99311975  0.11552549  1
  As  As2  1  0.00688125  0.12240674  0.37555330  1
  As  As3  1  0.50000000  0.50000000  0.00000000  1
  As  As4  1  0.87759326  0.25314556  0.88447451  1
  Cl  Cl0  1  0.25000000  0.75000000  0.50000000  1
loop_
_geom_bond_atom_site_label_1
_geom_bond_atom_site_label_2
_geom_bond_distance
_geom_bond_site_symmetry_2
Ba0 Cl0 3.768959 1_655
Ba1 Cl0 3.389448 1_655
Ba2 Cl0 3.389453 1_555
Ba3 Cl0 3.768964 1_555
Ba4 Cl0 3.768961 1_555
Ba5 Cl0 3.768966 1_545
Ba6 Cl0 3.389468 1_555
Ba7 Cl0 3.389463 1_545
As0 Ba5 3.240134 1_555
As0 Ba7 3.280251 1_665
As0 Ba2 3.301971 1_555
As0 Ba0 3.318401 1_555
As0 Ba1 3.581776 1_556
As0 Ba6 3.600693 1_555
As0 Ba4 3.641380 1_555
As0 Ba3 3.758773 1_655
As1 Ba0 3.240122 1_565
As1 Ba1 3.280275 1_455
As1 Ba7 3.301963 1_564
As1 Ba4 3.318421 1_555
As1 Ba6 3.581744 1_565
As1 Ba2 3.600694 1_554
As1 Ba3 3.641396 1_554
As1 Ba5 3.758767 1_565
As2 Ba4 3.240125 1_445
As2 Ba6 3.280277 1_555
As2 Ba1 3.301967 1_445
As2 Ba3 3.318403 1_555
As2 Ba2 3.581765 1_444
As2 Ba7 3.600703 1_555
As2 Ba5 3.641387 1_555
As2 Ba0 3.758777 1_455
As3 Ba3 3.257749 1_554
As3 Ba0 3.257751 1_555
As3 Ba4 3.257751 1_555
As3 Ba5 3.257756 1_554
As3 Ba6 3.644257 1_555
As3 Ba1 3.644262 1_555
As3 Ba2 3.644271 1_554
As3 Ba7 3.644271 1_554
As4 Ba3 3.240133 1_655
As4 Ba2 3.280263 1_545
As4 Ba6 3.301970 1_656
As4 Ba5 3.318410 1_555
As4 Ba7 3.581748 1_655
As4 Ba1 3.600703 1_556
As4 Ba0 3.641390 1_556
As4 Ba4 3.758767 1_545
