# generated using pymatgen
data_Li2IrRhS8
_symmetry_space_group_name_H-M   'P 1'
_cell_length_a   5.74526167
_cell_length_b   5.86237054
_cell_length_c   5.71898047
_cell_angle_alpha   90.09328017
_cell_angle_beta   90.06851312
_cell_angle_gamma   88.89468976
_symmetry_Int_Tables_number   1
_chemical_formula_structural   Li2IrRhS8
_chemical_formula_sum   'Li2 Ir1 Rh1 S8'
_cell_volume   192.58391245
_cell_formula_units_Z   1
loop_
 _symmetry_equiv_pos_site_id
 _symmetry_equiv_pos_as_xyz
  1  'x, y, z'
loop_
 _atom_site_type_symbol
 _atom_site_label
 _atom_site_symmetry_multiplicity
 _atom_site_fract_x
 _atom_site_fract_y
 _atom_site_fract_z
 _atom_site_occupancy
  Li  Li0  1  0.00000000  0.50000000  0.50000000  1
  Li  Li1  1  0.50000000  0.50000000  0.00000000  1
  Ir  Ir0  1  0.50000000  0.00000000  0.50000000  1
  Rh  Rh0  1  0.00000000  0.00000000  0.00000000  1
  S  S0  1  0.38690473  0.09550475  0.88811389  1
  S  S1  1  0.11387241  0.90380417  0.38935123  1
  S  S2  1  0.89926803  0.38918627  0.09519093  1
  S  S3  1  0.60171821  0.61142504  0.59644685  1
  S  S4  1  0.39828179  0.38857496  0.40355315  1
  S  S5  1  0.10073197  0.61081373  0.90480907  1
  S  S6  1  0.88612759  0.09619583  0.61064877  1
  S  S7  1  0.61309527  0.90449525  0.11188611  1
loop_
_geom_bond_atom_site_label_1
_geom_bond_atom_site_label_2
_geom_bond_distance
_geom_bond_site_symmetry_2
Li0 S4 2.431279 1_555
Li0 S3 2.431279 1_455
Li0 S5 2.474474 1_555
Li0 S2 2.474474 1_455
Li0 S1 2.549105 1_555
Li0 S6 2.549105 1_455
Li1 S2 2.433317 1_555
Li1 S5 2.433317 1_554
Li1 S3 2.473365 1_554
Li1 S4 2.473365 1_555
Li1 S7 2.551119 1_555
Li1 S0 2.551119 1_554
Ir0 S0 2.376494 1_555
Ir0 S7 2.376494 1_545
Ir0 S6 2.384013 1_555
Ir0 S1 2.384013 1_545
Ir0 S4 2.405591 1_555
Ir0 S3 2.405591 1_545
Rh0 S1 2.385490 1_545
Rh0 S6 2.385490 1_454
Rh0 S0 2.390949 1_554
Rh0 S7 2.390949 1_445
Rh0 S2 2.404694 1_455
Rh0 S5 2.404694 1_544
S0 S7 2.127193 1_546
S1 S6 2.127970 1_465
S2 S5 2.068552 1_654
S3 S4 2.083489 1_555
