# generated using pymatgen
data_CsAs(PO3)4
_symmetry_space_group_name_H-M   'P 1'
_cell_length_a   13.70413900
_cell_length_b   5.29986465
_cell_length_c   7.42635285
_cell_angle_alpha   79.14017440
_cell_angle_beta   90.00000000
_cell_angle_gamma   90.00000000
_symmetry_Int_Tables_number   1
_chemical_formula_structural   CsAs(PO3)4
_chemical_formula_sum   'Cs2 As2 P8 O24'
_cell_volume   529.71695191
_cell_formula_units_Z   2
loop_
 _symmetry_equiv_pos_site_id
 _symmetry_equiv_pos_as_xyz
  1  'x, y, z'
loop_
 _atom_site_type_symbol
 _atom_site_label
 _atom_site_symmetry_multiplicity
 _atom_site_fract_x
 _atom_site_fract_y
 _atom_site_fract_z
 _atom_site_occupancy
  Cs  Cs0  1  0.00176087  0.44456845  0.82546573  1
  Cs  Cs1  1  0.50176087  0.55543155  0.17453427  1
  As  As0  1  0.24094131  0.44868431  0.45705105  1
  As  As1  1  0.74094131  0.55131569  0.54294895  1
  P  P0  1  0.88545718  0.05497836  0.44845969  1
  P  P1  1  0.81899325  0.81022351  0.15454297  1
  P  P2  1  0.38545718  0.94502164  0.55154031  1
  P  P3  1  0.16142231  0.87823598  0.04576868  1
  P  P4  1  0.10268610  0.98687336  0.41131810  1
  P  P5  1  0.60268610  0.01312664  0.58868190  1
  P  P6  1  0.66142231  0.12176402  0.95423132  1
  P  P7  1  0.31899325  0.18977649  0.84545703  1
  O  O0  1  0.15705735  0.76110700  0.51332861  1
  O  O1  1  0.12435855  0.24532490  0.46339790  1
  O  O2  1  0.61038134  0.97716116  0.80128418  1
  O  O3  1  0.99174094  0.92871948  0.45490398  1
  O  O4  1  0.89087090  0.31792886  0.48456360  1
  O  O5  1  0.84955020  0.05316647  0.24604074  1
  O  O6  1  0.11038134  0.02283884  0.19871582  1
  O  O7  1  0.60059001  0.06546306  0.11943096  1
  O  O8  1  0.10059001  0.93453694  0.88056904  1
  O  O9  1  0.24465514  0.34484861  0.71251591  1
  O  O10  1  0.39087090  0.68207114  0.51543640  1
  O  O11  1  0.62435855  0.75467510  0.53660210  1
  O  O12  1  0.65705735  0.23889300  0.48667139  1
  O  O13  1  0.49174094  0.07128052  0.54509602  1
  O  O14  1  0.26026005  0.05183271  0.01690937  1
  O  O15  1  0.90432399  0.67764355  0.10248978  1
  O  O16  1  0.68872452  0.38617922  0.86657651  1
  O  O17  1  0.76026005  0.94816729  0.98309063  1
  O  O18  1  0.40432399  0.32235645  0.89751022  1
  O  O19  1  0.82599000  0.86033800  0.57812131  1
  O  O20  1  0.32599000  0.13966200  0.42187869  1
  O  O21  1  0.34955020  0.94683353  0.75395926  1
  O  O22  1  0.74465514  0.65515139  0.28748409  1
  O  O23  1  0.18872452  0.61382078  0.13342349  1
loop_
_geom_bond_atom_site_label_1
_geom_bond_atom_site_label_2
_geom_bond_distance
_geom_bond_site_symmetry_2
Cs0 O15 2.915281 1_456
Cs0 O8 2.981895 1_545
Cs0 O8 3.024134 1_555
Cs0 O4 3.131994 1_455
Cs1 O18 2.915281 1_554
Cs1 O7 2.981895 1_565
Cs1 O7 3.024134 1_555
Cs1 O10 3.131994 1_555
As0 O9 1.873844 1_555
As0 O1 1.922816 1_555
As0 O20 2.066439 1_555
As0 O0 2.120986 1_555
As0 O10 2.478239 1_555
As0 O23 2.502326 1_555
As1 O22 1.873844 1_555
As1 O11 1.922816 1_555
As1 O19 2.066439 1_555
As1 O12 2.120986 1_555
As1 O4 2.478239 1_555
As1 O16 2.502326 1_555
O0 P4 1.489705 1_555
O1 P4 1.521072 1_545
O2 P5 1.557835 1_565
O2 P6 1.641564 1_565
O3 P4 1.572836 1_655
O3 P0 1.599832 1_565
O4 P0 1.469802 1_555
O5 P0 1.583472 1_555
O5 P1 1.620051 1_545
O6 P4 1.557835 1_545
O6 P3 1.641564 1_545
O7 P6 1.466693 1_554
O8 P3 1.466693 1_556
O9 P7 1.543450 1_555
O10 P2 1.469802 1_555
O11 P5 1.521072 1_565
O12 P5 1.489705 1_555
O13 P5 1.572836 1_555
O13 P2 1.599832 1_545
O14 P7 1.566132 1_554
O14 P3 1.628722 1_545
O15 P1 1.453605 1_555
O16 P6 1.477775 1_555
O17 P1 1.566132 1_556
O17 P6 1.628722 1_565
O18 P7 1.453605 1_555
O19 P0 1.510357 1_565
O20 P2 1.510357 1_545
O21 P2 1.583472 1_555
O21 P7 1.620051 1_565
O22 P1 1.543450 1_555
O23 P3 1.477775 1_555
