# generated using pymatgen
data_Mn4ZnPd9Au2
_symmetry_space_group_name_H-M   'P 1'
_cell_length_a   6.80459087
_cell_length_b   6.80459093
_cell_length_c   6.80459093
_cell_angle_alpha   107.53025624
_cell_angle_beta   107.53025166
_cell_angle_gamma   113.42706611
_symmetry_Int_Tables_number   1
_chemical_formula_structural   Mn4ZnPd9Au2
_chemical_formula_sum   'Mn4 Zn1 Pd9 Au2'
_cell_volume   241.66699184
_cell_formula_units_Z   1
loop_
 _symmetry_equiv_pos_site_id
 _symmetry_equiv_pos_as_xyz
  1  'x, y, z'
loop_
 _atom_site_type_symbol
 _atom_site_label
 _atom_site_symmetry_multiplicity
 _atom_site_fract_x
 _atom_site_fract_y
 _atom_site_fract_z
 _atom_site_occupancy
  Mn  Mn0  1  0.24152457  0.24152457  0.48305014  1
  Mn  Mn1  1  0.75847543  0.75847543  0.51694986  1
  Mn  Mn2  1  0.24152457  0.75847543  0.00000000  1
  Mn  Mn3  1  0.75847543  0.24152457  1.00000000  1
  Zn  Zn0  1  0.50000000  0.50000000  0.00000000  1
  Pd  Pd0  1  0.50526760  0.26018740  0.24507920  1
  Pd  Pd1  1  0.49473240  0.73981260  0.75492080  1
  Pd  Pd2  1  0.01510820  0.26018740  0.75492080  1
  Pd  Pd3  1  0.26018740  0.01510820  0.75492080  1
  Pd  Pd4  1  0.98489180  0.73981260  0.24507920  1
  Pd  Pd5  1  0.73981260  0.98489180  0.24507920  1
  Pd  Pd6  1  0.26018740  0.50526760  0.24507920  1
  Pd  Pd7  1  0.73981260  0.49473240  0.75492080  1
  Pd  Pd8  1  0.00000000  0.00000000  0.00000000  1
  Au  Au0  1  0.50000000  0.00000000  0.50000000  1
  Au  Au1  1  0.00000000  0.50000000  0.50000000  1
loop_
_geom_bond_atom_site_label_1
_geom_bond_atom_site_label_2
_geom_bond_distance
_geom_bond_site_symmetry_2
Mn0 Pd2 2.746495 1_555
Mn0 Pd3 2.746495 1_555
Mn0 Pd1 2.746500 1_555
Mn0 Pd7 2.746500 1_555
Mn0 Pd8 2.747690 1_555
Mn0 Pd4 2.748152 1_445
Mn0 Pd5 2.748152 1_445
Mn0 Pd0 2.748163 1_555
Mn0 Pd6 2.748163 1_555
Mn0 Zn0 2.940519 1_556
Mn1 Pd4 2.746495 1_555
Mn1 Pd5 2.746495 1_555
Mn1 Pd0 2.746500 1_555
Mn1 Pd6 2.746500 1_555
Mn1 Pd8 2.747690 1_666
Mn1 Pd2 2.748152 1_665
Mn1 Pd3 2.748152 1_665
Mn1 Pd1 2.748163 1_555
Mn1 Pd7 2.748163 1_555
Mn1 Zn0 2.940519 1_555
Mn2 Pd1 2.746495 1_554
Mn2 Pd6 2.746495 1_555
Mn2 Pd2 2.746501 1_554
Mn2 Pd5 2.746501 1_555
Mn2 Pd8 2.747685 1_565
Mn2 Pd0 2.748151 1_565
Mn2 Pd7 2.748151 1_454
Mn2 Pd4 2.748152 1_455
Mn2 Pd3 2.748152 1_564
Mn2 Zn0 2.940525 1_555
Mn3 Pd0 2.746495 1_556
Mn3 Pd7 2.746495 1_555
Mn3 Pd4 2.746501 1_556
Mn3 Pd3 2.746501 1_555
Mn3 Pd8 2.747685 1_656
Mn3 Pd1 2.748151 1_545
Mn3 Pd6 2.748151 1_656
Mn3 Pd2 2.748152 1_655
Mn3 Pd5 2.748152 1_546
Mn3 Zn0 2.940525 1_556
Pd0 Zn0 2.663669 1_555
Pd0 Pd8 2.768299 1_555
Pd0 Pd3 2.788123 1_554
Pd0 Pd6 2.788135 1_555
Pd0 Pd5 2.904070 1_545
Pd0 Pd7 2.904076 1_555
Pd1 Zn0 2.663669 1_556
Pd1 Pd8 2.768299 1_666
Pd1 Pd5 2.788123 1_556
Pd1 Pd7 2.788135 1_555
Pd1 Pd3 2.904070 1_565
Pd1 Pd6 2.904076 1_555
Pd2 Zn0 2.663668 1_556
Pd2 Pd8 2.768294 1_556
Pd2 Pd6 2.788123 1_556
Pd2 Pd3 2.788124 1_555
Pd2 Pd7 2.904070 1_455
Pd2 Pd5 2.904076 1_445
Pd3 Zn0 2.663668 1_556
Pd3 Pd8 2.768294 1_556
Pd3 Pd4 2.904076 1_445
Pd4 Zn0 2.663668 1_555
Pd4 Pd8 2.768294 1_665
Pd4 Pd7 2.788123 1_554
Pd4 Pd5 2.788124 1_555
Pd4 Pd6 2.904070 1_655
Pd5 Zn0 2.663668 1_555
Pd5 Pd8 2.768294 1_665
Pd6 Zn0 2.663669 1_555
Pd6 Pd8 2.768299 1_555
Pd7 Zn0 2.663669 1_556
Pd7 Pd8 2.768299 1_666
Au0 Pd6 2.722780 1_545
Au0 Pd7 2.722780 1_555
Au0 Pd3 2.722785 1_555
Au0 Pd5 2.722785 1_545
Au0 Pd0 2.825222 1_555
Au0 Pd1 2.825222 1_545
Au0 Pd2 2.825223 1_655
Au0 Pd4 2.825223 1_445
Au0 Mn1 2.845738 1_545
Au0 Mn0 2.845738 1_555
Au0 Mn3 2.845738 1_555
Au0 Mn2 2.845738 1_545
Au1 Pd0 2.722780 1_455
Au1 Pd1 2.722780 1_555
Au1 Pd2 2.722785 1_555
Au1 Pd4 2.722785 1_455
Au1 Pd6 2.825222 1_555
Au1 Pd7 2.825222 1_455
Au1 Pd3 2.825222 1_565
Au1 Pd5 2.825222 1_445
Au1 Mn1 2.845738 1_455
Au1 Mn0 2.845738 1_555
Au1 Mn2 2.845738 1_556
Au1 Mn3 2.845738 1_454
