# generated using pymatgen
data_Ba5Ir2O9F
_symmetry_space_group_name_H-M   'P 1'
_cell_length_a   6.06826033
_cell_length_b   6.06826067
_cell_length_c   17.72210246
_cell_angle_alpha   90.00000000
_cell_angle_beta   90.00000000
_cell_angle_gamma   120.46350940
_symmetry_Int_Tables_number   1
_chemical_formula_structural   Ba5Ir2O9F
_chemical_formula_sum   'Ba10 Ir4 O18 F2'
_cell_volume   562.50562669
_cell_formula_units_Z   2
loop_
 _symmetry_equiv_pos_site_id
 _symmetry_equiv_pos_as_xyz
  1  'x, y, z'
loop_
 _atom_site_type_symbol
 _atom_site_label
 _atom_site_symmetry_multiplicity
 _atom_site_fract_x
 _atom_site_fract_y
 _atom_site_fract_z
 _atom_site_occupancy
  Ba  Ba0  1  0.17044275  0.82955725  0.01332960  1
  Ba  Ba1  1  0.82955725  0.17044275  0.51332960  1
  Ba  Ba2  1  0.83173952  0.16826048  0.74616268  1
  Ba  Ba3  1  0.16826048  0.83173952  0.24616268  1
  Ba  Ba4  1  0.50049945  0.49950055  0.35712580  1
  Ba  Ba5  1  0.49950055  0.50049945  0.85712580  1
  Ba  Ba6  1  0.49873844  0.50126156  0.63497277  1
  Ba  Ba7  1  0.83629212  0.16370788  0.97896145  1
  Ba  Ba8  1  0.50126156  0.49873844  0.13497277  1
  Ba  Ba9  1  0.16370788  0.83629212  0.47896145  1
  Ir  Ir0  1  0.16925612  0.83074388  0.67455658  1
  Ir  Ir1  1  0.16246894  0.83753106  0.81777083  1
  Ir  Ir2  1  0.83074388  0.16925612  0.17455658  1
  Ir  Ir3  1  0.83753106  0.16246894  0.31777083  1
  O  O0  1  0.46732233  0.00000738  0.88252925  1
  O  O1  1  0.00905627  0.99094373  0.88113806  1
  O  O2  1  0.67889260  0.32110740  0.24852856  1
  O  O3  1  0.31845868  0.14541940  0.74496917  1
  O  O4  1  0.00000738  0.46732233  0.38252925  1
  O  O5  1  0.99999262  0.53267767  0.88252925  1
  O  O6  1  0.02562290  0.52278360  0.61146297  1
  O  O7  1  0.01950008  0.98049992  0.60760381  1
  O  O8  1  0.52278360  0.02562290  0.11146297  1
  O  O9  1  0.85458060  0.68154132  0.74496917  1
  O  O10  1  0.68154132  0.85458060  0.24496917  1
  O  O11  1  0.14541940  0.31845868  0.24496917  1
  O  O12  1  0.99094373  0.00905627  0.38113806  1
  O  O13  1  0.32110740  0.67889260  0.74852856  1
  O  O14  1  0.47721640  0.97437710  0.61146297  1
  O  O15  1  0.97437710  0.47721640  0.11146297  1
  O  O16  1  0.53267767  0.99999262  0.38252925  1
  O  O17  1  0.98049992  0.01950008  0.10760381  1
  F  F0  1  0.43649462  0.56350538  0.99612908  1
  F  F1  1  0.56350538  0.43649462  0.49612908  1
loop_
_geom_bond_atom_site_label_1
_geom_bond_atom_site_label_2
_geom_bond_distance
_geom_bond_site_symmetry_2
Ba0 O8 2.536174 1_565
Ba0 O15 2.536174 1_455
Ba0 O17 2.606828 1_465
Ba0 O0 2.792731 1_564
Ba0 O5 2.792731 1_454
Ba0 F0 2.819382 1_554
Ba0 O1 2.894650 1_554
Ba1 O14 2.536174 1_545
Ba1 O6 2.536174 1_655
Ba1 O7 2.606828 1_645
Ba1 O16 2.792731 1_545
Ba1 O4 2.792731 1_655
Ba1 F1 2.819382 1_555
Ba1 O12 2.894650 1_555
Ba2 O13 3.015221 1_545
Ba2 O13 3.015221 1_655
Ba2 O14 3.023992 1_545
Ba2 O6 3.023992 1_655
Ba2 O3 3.026243 1_655
Ba2 O9 3.026244 1_545
Ba2 O1 3.035034 1_645
Ba2 O3 3.046867 1_555
Ba2 O9 3.046867 1_555
Ba2 O0 3.079563 1_555
Ba2 O5 3.079563 1_555
Ba2 O7 3.153166 1_645
Ba3 O2 3.015221 1_565
Ba3 O2 3.015221 1_455
Ba3 O8 3.023992 1_565
Ba3 O15 3.023992 1_455
Ba3 O10 3.026243 1_455
Ba3 O11 3.026244 1_565
Ba3 O12 3.035034 1_465
Ba3 O10 3.046867 1_555
Ba3 O11 3.046867 1_555
Ba3 O16 3.079563 1_555
Ba3 O4 3.079563 1_555
Ba3 O17 3.153166 1_465
Ba4 F1 2.551289 1_555
Ba4 O2 2.689983 1_555
Ba4 O11 2.720336 1_555
Ba4 O10 2.720336 1_555
Ba4 O4 2.977172 1_555
Ba4 O16 2.977172 1_555
Ba4 O12 3.044418 1_455
Ba4 O12 3.044418 1_565
Ba4 O4 3.166828 1_655
Ba4 O16 3.166828 1_545
Ba5 F0 2.551289 1_555
Ba5 O13 2.689983 1_555
Ba5 O9 2.720336 1_555
Ba5 O3 2.720336 1_555
Ba5 O5 2.977172 1_555
Ba5 O0 2.977172 1_555
Ba5 O1 3.044418 1_655
Ba5 O1 3.044418 1_545
Ba5 O5 3.166828 1_455
Ba5 O0 3.166828 1_565
Ba6 F1 2.553453 1_555
Ba6 O9 2.695234 1_555
Ba6 O3 2.695234 1_555
Ba6 O13 2.748066 1_555
Ba6 O6 2.968740 1_555
Ba6 O14 2.968740 1_555
Ba6 O7 3.059470 1_655
Ba6 O7 3.059470 1_545
Ba6 O6 3.160663 1_655
Ba6 O14 3.160663 1_545
Ba7 O1 2.513592 1_645
Ba7 O0 2.581722 1_555
Ba7 O5 2.581722 1_555
Ba7 O17 2.739636 1_556
Ba7 O8 2.866899 1_556
Ba7 O15 2.866899 1_556
Ba7 F0 3.206896 1_655
Ba7 F0 3.206896 1_545
Ba8 F0 2.553453 1_554
Ba8 O11 2.695234 1_555
Ba8 O10 2.695234 1_555
Ba8 O2 2.748066 1_555
Ba8 O15 2.968740 1_555
Ba8 O8 2.968740 1_555
Ba8 O17 3.059470 1_455
Ba8 O17 3.059470 1_565
Ba8 O15 3.160663 1_455
Ba8 O8 3.160663 1_565
Ba9 O12 2.513592 1_465
Ba9 O16 2.581722 1_555
Ba9 O4 2.581722 1_555
Ba9 O7 2.739636 1_555
Ba9 O14 2.866899 1_555
Ba9 O6 2.866899 1_555
Ba9 F1 3.206896 1_455
Ba9 F1 3.206896 1_565
Ir0 O14 1.962320 1_555
Ir0 O6 1.962320 1_555
Ir0 O7 1.974071 1_555
Ir0 O9 2.066436 1_455
Ir0 O3 2.066436 1_565
Ir0 O13 2.068277 1_555
Ir1 O0 1.965201 1_565
Ir1 O5 1.965201 1_455
Ir1 O1 1.968054 1_555
Ir1 O9 2.063512 1_455
Ir1 O3 2.063512 1_565
Ir1 O13 2.073382 1_555
Ir2 O8 1.962320 1_555
Ir2 O15 1.962320 1_555
Ir2 O17 1.974071 1_555
Ir2 O11 2.066436 1_655
Ir2 O10 2.066436 1_545
Ir2 O2 2.068277 1_555
Ir3 O16 1.965201 1_545
Ir3 O4 1.965201 1_655
Ir3 O12 1.968054 1_555
Ir3 O11 2.063512 1_655
Ir3 O10 2.063512 1_545
Ir3 O2 2.073382 1_555
