# generated using pymatgen
data_AgSn2(PO4)3
_symmetry_space_group_name_H-M   'P 1'
_cell_length_a   8.48677247
_cell_length_b   8.44821854
_cell_length_c   9.06412390
_cell_angle_alpha   62.73172945
_cell_angle_beta   63.47159294
_cell_angle_gamma   60.31484713
_symmetry_Int_Tables_number   1
_chemical_formula_structural   AgSn2(PO4)3
_chemical_formula_sum   'Ag2 Sn4 P6 O24'
_cell_volume   481.09962619
_cell_formula_units_Z   2
loop_
 _symmetry_equiv_pos_site_id
 _symmetry_equiv_pos_as_xyz
  1  'x, y, z'
loop_
 _atom_site_type_symbol
 _atom_site_label
 _atom_site_symmetry_multiplicity
 _atom_site_fract_x
 _atom_site_fract_y
 _atom_site_fract_z
 _atom_site_occupancy
  Ag  Ag0  1  0.84175985  0.52916802  0.47225793  1
  Ag  Ag1  1  0.15824015  0.47083198  0.52774207  1
  Sn  Sn0  1  0.15093160  0.64365506  0.06137390  1
  Sn  Sn1  1  0.65422627  0.14372803  0.55147318  1
  Sn  Sn2  1  0.34577373  0.85627197  0.44852682  1
  Sn  Sn3  1  0.84906840  0.35634494  0.93862610  1
  P  P0  1  0.52549472  0.45853059  0.75844127  1
  P  P1  1  0.75088836  0.96335721  0.25326195  1
  P  P2  1  0.03886483  0.24978035  0.25221864  1
  P  P3  1  0.96113517  0.75021965  0.74778136  1
  P  P4  1  0.24911164  0.03664279  0.74673805  1
  P  P5  1  0.47450528  0.54146941  0.24155873  1
  O  O0  1  0.89731811  0.76984857  0.22167286  1
  O  O1  1  0.49799027  0.65877872  0.62337691  1
  O  O2  1  0.38303569  0.46699867  0.93365261  1
  O  O3  1  0.72716883  0.38421551  0.77233254  1
  O  O4  1  0.10847571  0.39589672  0.23679481  1
  O  O5  1  0.78141403  0.12231288  0.08559787  1
  O  O6  1  0.51433160  0.32692177  0.69492820  1
  O  O7  1  0.21082195  0.02858892  0.60071697  1
  O  O8  1  0.85519996  0.26901649  0.40430180  1
  O  O9  1  0.55193412  0.96789654  0.30717525  1
  O  O10  1  0.00295448  0.30020910  0.08393942  1
  O  O11  1  0.18660403  0.04862157  0.28659122  1
  O  O12  1  0.81339597  0.95137843  0.71340878  1
  O  O13  1  0.99704552  0.69979090  0.91606058  1
  O  O14  1  0.44806588  0.03210346  0.69282475  1
  O  O15  1  0.14480004  0.73098351  0.59569820  1
  O  O16  1  0.78917805  0.97141108  0.39928303  1
  O  O17  1  0.48566840  0.67307823  0.30507180  1
  O  O18  1  0.21858597  0.87768712  0.91440213  1
  O  O19  1  0.89152429  0.60410328  0.76320519  1
  O  O20  1  0.27283117  0.61578449  0.22766746  1
  O  O21  1  0.61696431  0.53300133  0.06634739  1
  O  O22  1  0.50200973  0.34122128  0.37662309  1
  O  O23  1  0.10268189  0.23015143  0.77832714  1
loop_
_geom_bond_atom_site_label_1
_geom_bond_atom_site_label_2
_geom_bond_distance
_geom_bond_site_symmetry_2
Ag0 O0 2.297115 1_555
Ag0 O3 2.368120 1_555
Ag0 O8 2.480371 1_555
Ag0 O1 2.495476 1_555
Ag0 O4 2.511692 1_655
Ag1 O23 2.297115 1_555
Ag1 O20 2.368120 1_555
Ag1 O15 2.480371 1_555
Ag1 O22 2.495476 1_555
Ag1 O19 2.511692 1_455
O0 P1 1.548465 1_555
O0 Sn0 2.057524 1_655
O1 P0 1.543244 1_555
O1 Sn2 2.058019 1_555
O2 P0 1.514028 1_555
O2 Sn0 2.020414 1_556
O3 P0 1.547648 1_555
O3 Sn3 2.055273 1_555
O4 P2 1.543617 1_555
O4 Sn0 2.055427 1_555
O5 P1 1.517528 1_545
O5 Sn3 2.010256 1_554
O6 P0 1.521907 1_555
O6 Sn1 2.034850 1_555
O7 P4 1.533178 1_555
O7 Sn2 2.027647 1_545
O8 P2 1.546374 1_655
O8 Sn1 2.066603 1_555
O9 P1 1.518950 1_555
O9 Sn2 2.028971 1_555
O10 P2 1.513980 1_555
O10 Sn3 2.004035 1_454
O11 P2 1.520043 1_555
O11 Sn2 2.007797 1_545
O12 P3 1.520043 1_555
O12 Sn1 2.007797 1_565
O13 P3 1.513980 1_555
O13 Sn0 2.004035 1_656
O14 P4 1.518950 1_555
O14 Sn1 2.028971 1_555
O15 P3 1.546374 1_455
O15 Sn2 2.066603 1_555
O16 P1 1.533178 1_555
O16 Sn1 2.027647 1_565
O17 P5 1.521907 1_555
O17 Sn2 2.034850 1_555
O18 P4 1.517528 1_565
O18 Sn0 2.010256 1_556
O19 P3 1.543617 1_555
O19 Sn3 2.055427 1_555
O20 P5 1.547648 1_555
O20 Sn0 2.055273 1_555
O21 P5 1.514028 1_555
O21 Sn3 2.020414 1_554
O22 P5 1.543244 1_555
O22 Sn1 2.058019 1_555
O23 P4 1.548465 1_555
O23 Sn3 2.057524 1_455
