# generated using pymatgen
data_Rb4Ba2SnAs4
_symmetry_space_group_name_H-M   'P 1'
_cell_length_a   10.83902424
_cell_length_b   10.83902354
_cell_length_c   8.11288064
_cell_angle_alpha   88.34100227
_cell_angle_beta   88.34100385
_cell_angle_gamma   119.41598601
_symmetry_Int_Tables_number   1
_chemical_formula_structural   Rb4Ba2SnAs4
_chemical_formula_sum   'Rb8 Ba4 Sn2 As8'
_cell_volume   828.88705731
_cell_formula_units_Z   2
loop_
 _symmetry_equiv_pos_site_id
 _symmetry_equiv_pos_as_xyz
  1  'x, y, z'
loop_
 _atom_site_type_symbol
 _atom_site_label
 _atom_site_symmetry_multiplicity
 _atom_site_fract_x
 _atom_site_fract_y
 _atom_site_fract_z
 _atom_site_occupancy
  Rb  Rb0  1  0.05024886  0.52194182  0.61541137  1
  Rb  Rb1  1  0.52194182  0.05024886  0.11541137  1
  Rb  Rb2  1  0.28083414  0.13662153  0.83061966  1
  Rb  Rb3  1  0.87063318  0.72719341  0.76705270  1
  Rb  Rb4  1  0.85689273  0.14986978  0.80451991  1
  Rb  Rb5  1  0.72719341  0.87063318  0.26705270  1
  Rb  Rb6  1  0.13662153  0.28083414  0.33061966  1
  Rb  Rb7  1  0.14986978  0.85689273  0.30451991  1
  Ba  Ba0  1  0.47003085  0.93977710  0.60916691  1
  Ba  Ba1  1  0.47094093  0.52079742  0.62181013  1
  Ba  Ba2  1  0.93977710  0.47003085  0.10916691  1
  Ba  Ba3  1  0.52079742  0.47094093  0.12181013  1
  Sn  Sn0  1  0.66710330  0.33570256  0.50211390  1
  Sn  Sn1  1  0.33570256  0.66710330  0.00211390  1
  As  As0  1  0.66727832  0.35258183  0.83256213  1
  As  As1  1  0.35258183  0.66727832  0.33256213  1
  As  As2  1  0.59993783  0.79234078  0.86867196  1
  As  As3  1  0.20288032  0.39653872  0.91877099  1
  As  As4  1  0.19606491  0.79378768  0.89804835  1
  As  As5  1  0.39653872  0.20288032  0.41877099  1
  As  As6  1  0.79234078  0.59993783  0.36867196  1
  As  As7  1  0.79378768  0.19606491  0.39804835  1
loop_
_geom_bond_atom_site_label_1
_geom_bond_atom_site_label_2
_geom_bond_distance
_geom_bond_site_symmetry_2
Ba1 Sn0 3.697596 1_555
Ba3 Sn1 3.697596 1_555
As0 Sn0 2.692394 1_555
As0 Ba3 3.410679 1_556
As0 Ba2 3.498001 1_556
As0 Rb3 3.555797 1_555
As0 Rb1 3.573576 1_556
As0 Rb2 3.660509 1_555
As0 Rb4 3.679826 1_555
As0 Ba1 3.823388 1_555
As0 Rb0 3.950781 1_655
As1 Sn1 2.692394 1_555
As1 Ba1 3.410679 1_555
As1 Ba0 3.498001 1_555
As1 Rb5 3.555797 1_555
As1 Rb0 3.573576 1_555
As1 Rb6 3.660508 1_555
As1 Rb7 3.679826 1_555
As1 Ba3 3.823388 1_555
As1 Rb1 3.950781 1_565
As2 Sn1 2.670935 1_556
As2 Ba1 3.330145 1_555
As2 Ba0 3.340070 1_555
As2 Rb3 3.422850 1_555
As2 Rb4 3.498971 1_565
As2 Rb5 3.512229 1_556
As2 Ba3 3.692923 1_556
As2 Rb1 3.883801 1_566
As3 Sn1 2.674730 1_556
As3 Rb2 3.403265 1_555
As3 Ba1 3.409269 1_555
As3 Rb6 3.462144 1_556
As3 Rb4 3.544994 1_455
As3 Rb0 3.590623 1_555
As3 Ba3 3.593588 1_556
As3 Ba2 3.633294 1_456
As4 Sn1 2.633902 1_556
As4 Rb2 3.383986 1_565
As4 Ba0 3.403135 1_555
As4 Rb3 3.442847 1_455
As4 Rb7 3.458975 1_556
As4 Rb0 3.530502 1_555
As4 Ba2 3.572921 1_456
As4 Rb1 3.783241 1_566
As5 Sn0 2.674730 1_555
As5 Rb6 3.403265 1_555
As5 Ba3 3.409269 1_555
As5 Rb2 3.462144 1_555
As5 Rb7 3.544994 1_545
As5 Rb1 3.590623 1_555
As5 Ba1 3.593588 1_555
As5 Ba0 3.633293 1_545
As6 Sn0 2.670935 1_555
As6 Ba3 3.330145 1_555
As6 Ba2 3.340070 1_555
As6 Rb5 3.422850 1_555
As6 Rb7 3.498971 1_655
As6 Rb3 3.512229 1_555
As6 Ba1 3.692923 1_555
As6 Rb0 3.883801 1_655
As7 Sn0 2.633902 1_555
As7 Rb6 3.383986 1_655
As7 Ba2 3.403134 1_555
As7 Rb5 3.442847 1_545
As7 Rb4 3.458975 1_555
As7 Rb1 3.530503 1_555
As7 Ba0 3.572922 1_545
As7 Rb0 3.783241 1_655
