# generated using pymatgen
data_Sr2Nb2O7
_symmetry_space_group_name_H-M   'P 1'
_cell_length_a   13.64793068
_cell_length_b   13.64793068
_cell_length_c   5.76557783
_cell_angle_alpha   90.00000000
_cell_angle_beta   90.00000000
_cell_angle_gamma   163.18073381
_symmetry_Int_Tables_number   1
_chemical_formula_structural   Sr2Nb2O7
_chemical_formula_sum   'Sr4 Nb4 O14'
_cell_volume   310.74594948
_cell_formula_units_Z   2
loop_
 _symmetry_equiv_pos_site_id
 _symmetry_equiv_pos_as_xyz
  1  'x, y, z'
loop_
 _atom_site_type_symbol
 _atom_site_label
 _atom_site_symmetry_multiplicity
 _atom_site_fract_x
 _atom_site_fract_y
 _atom_site_fract_z
 _atom_site_occupancy
  Sr  Sr0  1  0.29227939  0.70772061  0.03833928  1
  Sr  Sr1  1  0.70772061  0.29227939  0.53833928  1
  Sr  Sr2  1  0.44862919  0.55137081  0.47086721  1
  Sr  Sr3  1  0.55137081  0.44862919  0.97086721  1
  Nb  Nb0  1  0.83818974  0.16181026  0.50263112  1
  Nb  Nb1  1  0.16181026  0.83818974  0.00263112  1
  Nb  Nb2  1  0.05823470  0.94176530  0.47114390  1
  Nb  Nb3  1  0.94176530  0.05823470  0.97114390  1
  O  O0  1  0.45166091  0.54833909  0.94334317  1
  O  O1  1  0.54833909  0.45166091  0.44334317  1
  O  O2  1  0.90790494  0.09209506  0.66335283  1
  O  O3  1  0.09209506  0.90790494  0.16335283  1
  O  O4  1  0.80014635  0.19985365  0.76774056  1
  O  O5  1  0.19985365  0.80014635  0.26774056  1
  O  O6  1  0.21531953  0.78468047  0.79081469  1
  O  O7  1  0.78468047  0.21531953  0.29081469  1
  O  O8  1  0.99175268  0.00824732  0.22279418  1
  O  O9  1  0.00824732  0.99175268  0.72279418  1
  O  O10  1  0.88836989  0.11163011  0.17256826  1
  O  O11  1  0.11163011  0.88836989  0.67256826  1
  O  O12  1  0.34935227  0.65064773  0.46652480  1
  O  O13  1  0.65064773  0.34935227  0.96652480  1
loop_
_geom_bond_atom_site_label_1
_geom_bond_atom_site_label_2
_geom_bond_distance
_geom_bond_site_symmetry_2
Nb0 O4 1.841632 1_555
Nb0 O7 1.891853 1_555
Nb0 O12 2.029337 1_545
Nb0 O12 2.029337 1_655
Nb0 O2 2.098190 1_555
Nb0 O10 2.336108 1_555
Nb1 O5 1.841632 1_555
Nb1 O6 1.891853 1_554
Nb1 O13 2.029337 1_454
Nb1 O13 2.029337 1_564
Nb1 O3 2.098190 1_555
Nb1 O11 2.336108 1_554
Nb2 O11 1.851345 1_555
Nb2 O9 1.981675 1_555
Nb2 O3 1.996283 1_555
Nb2 O1 2.020176 1_565
Nb2 O1 2.020176 1_455
Nb2 O8 2.296284 1_465
Nb3 O10 1.851345 1_556
Nb3 O8 1.981675 1_556
Nb3 O2 1.996283 1_555
Nb3 O0 2.020176 1_545
Nb3 O0 2.020176 1_655
Nb3 O9 2.296284 1_645
O0 Sr3 2.697076 1_555
O0 Sr2 2.725327 1_555
O0 Sr2 3.042582 1_556
O1 Sr2 2.697076 1_555
O1 Sr3 2.725327 1_554
O1 Sr3 3.042582 1_555
O2 Sr2 2.534736 1_545
O2 Sr2 2.534736 1_655
O3 Sr3 2.534736 1_454
O3 Sr3 2.534736 1_564
O4 Sr0 2.542290 1_656
O4 Sr0 2.542290 1_546
O4 Sr1 2.824525 1_555
O5 Sr1 2.542290 1_565
O5 Sr1 2.542290 1_455
O5 Sr0 2.824525 1_555
O6 Sr1 2.478929 1_565
O6 Sr1 2.478929 1_455
O6 Sr0 2.520947 1_556
O7 Sr0 2.478929 1_655
O7 Sr0 2.478929 1_545
O7 Sr1 2.520947 1_555
O8 Sr2 2.717654 1_655
O8 Sr2 2.717654 1_545
O8 Sr3 2.947091 1_654
O8 Sr3 2.947091 1_544
O9 Sr3 2.717654 1_565
O9 Sr3 2.717654 1_455
O9 Sr2 2.947091 1_565
O9 Sr2 2.947091 1_455
O10 Sr2 3.096701 1_545
O10 Sr2 3.096701 1_655
O11 Sr3 3.096701 1_455
O11 Sr3 3.096701 1_565
O12 Sr2 2.680829 1_555
O12 Sr0 2.910268 1_555
O13 Sr3 2.680829 1_555
O13 Sr1 2.910268 1_555
