# generated using pymatgen
data_Na4Li3VAs4
_symmetry_space_group_name_H-M   'P 1'
_cell_length_a   7.22265833
_cell_length_b   7.67715736
_cell_length_c   8.57944169
_cell_angle_alpha   90.00000000
_cell_angle_beta   90.00000000
_cell_angle_gamma   90.00741414
_symmetry_Int_Tables_number   1
_chemical_formula_structural   Na4Li3VAs4
_chemical_formula_sum   'Na8 Li6 V2 As8'
_cell_volume   475.72561536
_cell_formula_units_Z   2
loop_
 _symmetry_equiv_pos_site_id
 _symmetry_equiv_pos_as_xyz
  1  'x, y, z'
loop_
 _atom_site_type_symbol
 _atom_site_label
 _atom_site_symmetry_multiplicity
 _atom_site_fract_x
 _atom_site_fract_y
 _atom_site_fract_z
 _atom_site_occupancy
  Na  Na0  1  0.87352425  0.46159387  0.70153051  1
  Na  Na1  1  0.37352767  0.53839601  0.79848491  1
  Na  Na2  1  0.37352767  0.53839601  0.20151509  1
  Na  Na3  1  0.87352425  0.46159387  0.29846949  1
  Na  Na4  1  0.87383419  0.04759530  0.00000000  1
  Na  Na5  1  0.37385645  0.95239230  0.50000000  1
  Na  Na6  1  0.39017216  0.95363804  0.00000000  1
  Na  Na7  1  0.89015539  0.04633783  0.50000000  1
  Li  Li0  1  0.71444044  0.82576670  0.73970543  1
  Li  Li1  1  0.21436310  0.17422904  0.76030895  1
  Li  Li2  1  0.21436310  0.17422904  0.23969105  1
  Li  Li3  1  0.71444044  0.82576670  0.26029457  1
  Li  Li4  1  0.19154133  0.64547063  0.50000000  1
  Li  Li5  1  0.69153536  0.35450868  0.00000000  1
  V  V0  1  0.99502491  0.67481860  0.00000000  1
  V  V1  1  0.49504266  0.32522986  0.50000000  1
  As  As0  1  0.66824377  0.67959853  0.00000000  1
  As  As1  1  0.16826521  0.32035907  0.50000000  1
  As  As2  1  0.08841716  0.82455630  0.76766540  1
  As  As3  1  0.58836398  0.17543890  0.73231868  1
  As  As4  1  0.58836398  0.17543890  0.26768132  1
  As  As5  1  0.08841716  0.82455630  0.23233460  1
  As  As6  1  0.58122286  0.62223845  0.50000000  1
  As  As7  1  0.08105354  0.37784805  0.00000000  1
loop_
_geom_bond_atom_site_label_1
_geom_bond_atom_site_label_2
_geom_bond_distance
_geom_bond_site_symmetry_2
Na4 V0 2.992842 1_545
Na5 V1 2.993063 1_565
Li0 Na7 2.950754 1_565
Li0 Na4 3.035163 1_566
Li0 Na5 3.350554 1_555
Li1 Na6 2.951237 1_546
Li1 Na5 3.035729 1_545
Li1 Na4 3.350020 1_456
Li2 Na6 2.951237 1_545
Li2 Na5 3.035729 1_545
Li2 Na4 3.350020 1_455
Li3 Na7 2.950754 1_565
Li3 Na4 3.035163 1_565
Li3 Na5 3.350554 1_555
Li4 Na5 2.699119 1_555
Li5 Na4 2.699303 1_555
As0 V0 2.360519 1_555
As0 Li5 2.501451 1_555
As0 Li0 2.521422 1_554
As0 Li3 2.521422 1_555
As0 Na6 2.908778 1_555
As0 Na1 2.948672 1_554
As0 Na2 2.948672 1_555
As0 Na4 3.191465 1_565
As1 V1 2.360493 1_555
As1 Li4 2.501566 1_555
As1 Li1 2.521345 1_555
As1 Li2 2.521345 1_555
As1 Na7 2.908491 1_455
As1 Na0 2.949172 1_455
As1 Na3 2.949172 1_455
As1 Na5 3.191604 1_545
As2 V0 2.397820 1_456
As2 Li0 2.711754 1_455
As2 Li4 2.778281 1_555
As2 Li1 2.835021 1_565
As2 Na1 3.022909 1_555
As2 Na4 3.050900 1_466
As2 Na6 3.115259 1_556
As2 Na7 3.197461 1_465
As2 Na5 3.238290 1_555
As2 Na0 3.239525 1_455
As3 V1 2.397842 1_555
As3 Li1 2.711948 1_555
As3 Li5 2.778330 1_556
As3 Li0 2.835548 1_545
As3 Na0 3.022713 1_555
As3 Na5 3.050342 1_545
As3 Na7 3.115582 1_555
As3 Na6 3.197214 1_546
As3 Na4 3.238708 1_556
As3 Na1 3.239687 1_555
As4 V1 2.397842 1_555
As4 Li2 2.711948 1_555
As4 Li5 2.778330 1_555
As4 Li3 2.835548 1_545
As4 Na3 3.022713 1_555
As4 Na5 3.050342 1_545
As4 Na7 3.115582 1_555
As4 Na6 3.197214 1_545
As4 Na4 3.238708 1_555
As4 Na2 3.239687 1_555
As5 V0 2.397820 1_455
As5 Li3 2.711754 1_455
As5 Li4 2.778281 1_555
As5 Li2 2.835021 1_565
As5 Na2 3.022909 1_555
As5 Na4 3.050900 1_465
As5 Na6 3.115259 1_555
As5 Na7 3.197461 1_465
As5 Na5 3.238290 1_555
As5 Na3 3.239525 1_455
As6 V1 2.363537 1_555
As6 Li3 2.756125 1_555
As6 Li0 2.756125 1_555
As6 Li4 2.820205 1_555
As6 Na5 2.944251 1_555
As6 Na0 2.994717 1_555
As6 Na3 2.994717 1_555
As6 Na2 3.036819 1_555
As6 Na1 3.036819 1_555
As7 V0 2.363122 1_455
As7 Li2 2.756802 1_555
As7 Li1 2.756802 1_554
As7 Li5 2.819034 1_455
As7 Na4 2.944031 1_455
As7 Na1 2.994990 1_554
As7 Na2 2.994990 1_555
As7 Na3 3.036040 1_455
As7 Na0 3.036040 1_454
