# generated using pymatgen
data_Be7Si(MoW)2
_symmetry_space_group_name_H-M   'P 1'
_cell_length_a   4.46796876
_cell_length_b   4.46796782
_cell_length_c   7.38927234
_cell_angle_alpha   90.00000000
_cell_angle_beta   90.00000000
_cell_angle_gamma   120.00000698
_symmetry_Int_Tables_number   1
_chemical_formula_structural   Be7Si(MoW)2
_chemical_formula_sum   'Be7 Si1 Mo2 W2'
_cell_volume   127.74750860
_cell_formula_units_Z   1
loop_
 _symmetry_equiv_pos_site_id
 _symmetry_equiv_pos_as_xyz
  1  'x, y, z'
loop_
 _atom_site_type_symbol
 _atom_site_label
 _atom_site_symmetry_multiplicity
 _atom_site_fract_x
 _atom_site_fract_y
 _atom_site_fract_z
 _atom_site_occupancy
  Be  Be0  1  0.00000000  0.00000000  0.00000000  1
  Be  Be1  1  0.82903492  0.17096508  0.24398827  1
  Be  Be2  1  0.82903492  0.65806984  0.24398827  1
  Be  Be3  1  0.34193016  0.17096508  0.24398827  1
  Be  Be4  1  0.17096508  0.82903492  0.75601173  1
  Be  Be5  1  0.17096508  0.34193016  0.75601173  1
  Be  Be6  1  0.65806984  0.82903492  0.75601173  1
  Si  Si0  1  0.00000000  0.00000000  0.50000000  1
  Mo  Mo0  1  0.33333300  0.66666700  0.43632858  1
  Mo  Mo1  1  0.66666700  0.33333300  0.56367142  1
  W  W0  1  0.66666700  0.33333300  0.93770677  1
  W  W1  1  0.33333300  0.66666700  0.06229323  1
loop_
_geom_bond_atom_site_label_1
_geom_bond_atom_site_label_2
_geom_bond_distance
_geom_bond_site_symmetry_2
Be0 Be5 2.236271 1_554
Be0 Be2 2.236271 1_445
Be0 Be3 2.236271 1_555
Be0 Be6 2.236271 1_444
Be0 Be4 2.236271 1_544
Be0 Be1 2.236271 1_455
Be0 W1 2.620327 1_545
Be0 W0 2.620327 1_454
Be0 W1 2.620330 1_555
Be0 W0 2.620330 1_444
Be0 W0 2.620330 1_554
Be0 W1 2.620330 1_445
Be1 Be2 2.176368 1_555
Be1 Be3 2.176369 1_555
Be1 Be2 2.291599 1_545
Be1 Be3 2.291600 1_655
Be1 Si0 2.308497 1_655
Be1 W0 2.588613 1_554
Be1 W1 2.606597 1_545
Be1 W1 2.606597 1_655
Be1 Mo0 2.647972 1_545
Be1 Mo0 2.647972 1_655
Be1 Mo1 2.675624 1_555
Be2 Be3 2.176368 1_555
Be2 Be3 2.291599 1_665
Be2 Si0 2.308497 1_665
Be2 W0 2.588615 1_554
Be2 W1 2.606596 1_655
Be2 W1 2.606600 1_555
Be2 Mo0 2.647971 1_655
Be2 Mo0 2.647974 1_555
Be2 Mo1 2.675626 1_555
Be3 Si0 2.308497 1_555
Be3 W0 2.588615 1_554
Be3 W1 2.606595 1_545
Be3 W1 2.606599 1_555
Be3 Mo0 2.647970 1_545
Be3 Mo0 2.647974 1_555
Be3 Mo1 2.675626 1_555
Be4 Be5 2.176368 1_555
Be4 Be6 2.176369 1_555
Be4 Be5 2.291599 1_565
Be4 Be6 2.291600 1_455
Be4 Si0 2.308497 1_565
Be4 W1 2.588613 1_556
Be4 W0 2.606597 1_565
Be4 W0 2.606597 1_455
Be4 Mo1 2.647972 1_565
Be4 Mo1 2.647972 1_455
Be4 Mo0 2.675624 1_555
Be5 Be6 2.176368 1_555
Be5 Be6 2.291599 1_445
Be5 Si0 2.308497 1_555
Be5 W1 2.588615 1_556
Be5 W0 2.606596 1_455
Be5 W0 2.606600 1_555
Be5 Mo1 2.647971 1_455
Be5 Mo1 2.647974 1_555
Be5 Mo0 2.675626 1_555
Be6 Si0 2.308497 1_665
Be6 W1 2.588615 1_556
Be6 W0 2.606595 1_565
Be6 W0 2.606599 1_555
Be6 Mo1 2.647970 1_565
Be6 Mo1 2.647974 1_555
Be6 Mo0 2.675626 1_555
Mo0 Si0 2.622135 1_565
Mo0 Si0 2.622138 1_555
Mo0 Si0 2.622139 1_665
Mo0 Mo1 2.745844 1_565
Mo0 Mo1 2.745844 1_455
Mo0 Mo1 2.745851 1_555
Mo0 W1 2.763849 1_555
Mo1 Si0 2.622135 1_655
Mo1 Si0 2.622138 1_665
Mo1 Si0 2.622139 1_555
Mo1 W0 2.763849 1_555
W0 W1 2.738931 1_546
W0 W1 2.738931 1_656
W0 W1 2.738939 1_556
