# generated using pymatgen
data_Na(PRh)2
_symmetry_space_group_name_H-M   'P 1'
_cell_length_a   5.57416527
_cell_length_b   5.57416491
_cell_length_c   5.57416435
_cell_angle_alpha   138.15150432
_cell_angle_beta   138.15149763
_cell_angle_gamma   60.67104603
_symmetry_Int_Tables_number   1
_chemical_formula_structural   Na(PRh)2
_chemical_formula_sum   'Na1 P2 Rh2'
_cell_volume   76.26277283
_cell_formula_units_Z   1
loop_
 _symmetry_equiv_pos_site_id
 _symmetry_equiv_pos_as_xyz
  1  'x, y, z'
loop_
 _atom_site_type_symbol
 _atom_site_label
 _atom_site_symmetry_multiplicity
 _atom_site_fract_x
 _atom_site_fract_y
 _atom_site_fract_z
 _atom_site_occupancy
  Na  Na0  1  0.00000000  0.00000000  0.00000000  1
  P  P0  1  0.38014533  0.38014533  0.00000000  1
  P  P1  1  0.61985467  0.61985467  1.00000000  1
  Rh  Rh0  1  0.75000000  0.25000000  0.50000000  1
  Rh  Rh1  1  0.25000000  0.75000000  0.50000000  1
loop_
_geom_bond_atom_site_label_1
_geom_bond_atom_site_label_2
_geom_bond_distance
_geom_bond_site_symmetry_2
Na0 P1 3.042347 1_443
Na0 P0 3.042347 1_556
Na0 P1 3.042348 1_454
Na0 P0 3.042348 1_545
Na0 P1 3.042348 1_555
Na0 P0 3.042348 1_444
Na0 P1 3.042348 1_544
Na0 P0 3.042348 1_455
Na0 Rh1 3.122389 1_544
Na0 Rh0 3.122389 1_455
Na0 Rh1 3.122389 1_545
Na0 Rh0 3.122389 1_454
Na0 Rh1 3.122389 1_555
Na0 Rh0 3.122389 1_444
Na0 Rh0 3.122389 1_555
Na0 Rh1 3.122389 1_444
P0 P1 2.306466 1_554
P0 Rh1 2.351828 1_555
P0 Rh0 2.351828 1_555
P0 Rh1 2.351828 1_544
P0 Rh0 2.351828 1_454
P1 Rh0 2.351828 1_555
P1 Rh1 2.351828 1_555
P1 Rh0 2.351828 1_566
P1 Rh1 2.351828 1_656
