# generated using pymatgen
data_SrBiAu
_symmetry_space_group_name_H-M   'P 1'
_cell_length_a   5.52994538
_cell_length_b   5.52994538
_cell_length_c   6.65831000
_cell_angle_alpha   90.00000000
_cell_angle_beta   90.00000000
_cell_angle_gamma   119.99999257
_symmetry_Int_Tables_number   1
_chemical_formula_structural   SrBiAu
_chemical_formula_sum   'Sr2 Bi2 Au2'
_cell_volume   176.33412163
_cell_formula_units_Z   2
loop_
 _symmetry_equiv_pos_site_id
 _symmetry_equiv_pos_as_xyz
  1  'x, y, z'
loop_
 _atom_site_type_symbol
 _atom_site_label
 _atom_site_symmetry_multiplicity
 _atom_site_fract_x
 _atom_site_fract_y
 _atom_site_fract_z
 _atom_site_occupancy
  Sr  Sr0  1  0.66666700  0.33333300  0.25000000  1
  Sr  Sr1  1  0.33333300  0.66666700  0.75000000  1
  Bi  Bi0  1  0.33333300  0.66666700  0.25000000  1
  Bi  Bi1  1  0.66666700  0.33333300  0.75000000  1
  Au  Au0  1  0.00000000  0.00000000  0.00000000  1
  Au  Au1  1  0.00000000  0.00000000  0.50000000  1
loop_
_geom_bond_atom_site_label_1
_geom_bond_atom_site_label_2
_geom_bond_distance
_geom_bond_site_symmetry_2
Bi0 Sr0 3.192712 1_455
Bi0 Sr0 3.192712 1_565
Bi0 Sr0 3.192722 1_555
Bi0 Sr1 3.329155 1_554
Bi0 Sr1 3.329155 1_555
Bi1 Sr1 3.192712 1_545
Bi1 Sr1 3.192712 1_655
Bi1 Sr1 3.192722 1_555
Bi1 Sr0 3.329155 1_555
Bi1 Sr0 3.329155 1_556
Au0 Au1 3.329155 1_555
Au0 Au1 3.329155 1_554
Au0 Sr1 3.600587 1_544
Au0 Sr0 3.600587 1_455
Au0 Sr1 3.600592 1_444
Au0 Sr0 3.600592 1_555
Au0 Sr1 3.600592 1_554
Au0 Sr0 3.600592 1_445
Au1 Sr0 3.600587 1_455
Au1 Sr1 3.600587 1_545
Au1 Sr1 3.600592 1_445
Au1 Sr0 3.600592 1_555
Au1 Sr0 3.600592 1_445
Au1 Sr1 3.600592 1_555
