# generated using pymatgen
data_Bi2INO8
_symmetry_space_group_name_H-M   'P 1'
_cell_length_a   5.69030750
_cell_length_b   5.67092460
_cell_length_c   10.86918146
_cell_angle_alpha   90.00000000
_cell_angle_beta   85.62044695
_cell_angle_gamma   90.00000000
_symmetry_Int_Tables_number   1
_chemical_formula_structural   Bi2INO8
_chemical_formula_sum   'Bi4 I2 N2 O16'
_cell_volume   349.71678961
_cell_formula_units_Z   2
loop_
 _symmetry_equiv_pos_site_id
 _symmetry_equiv_pos_as_xyz
  1  'x, y, z'
loop_
 _atom_site_type_symbol
 _atom_site_label
 _atom_site_symmetry_multiplicity
 _atom_site_fract_x
 _atom_site_fract_y
 _atom_site_fract_z
 _atom_site_occupancy
  Bi  Bi0  1  0.51294679  0.28350542  0.88694997  1
  Bi  Bi1  1  0.48705321  0.78350542  0.11305003  1
  Bi  Bi2  1  0.01273591  0.77416121  0.88895803  1
  Bi  Bi3  1  0.98726409  0.27416121  0.11104197  1
  I  I0  1  0.60966107  0.82919865  0.62634929  1
  I  I1  1  0.39033893  0.32919865  0.37365071  1
  N  N0  1  0.03877101  0.27688837  0.69394076  1
  N  N1  1  0.96122899  0.77688837  0.30605924  1
  O  O0  1  0.23985945  0.03355338  0.99873641  1
  O  O1  1  0.76014055  0.53355338  0.00126359  1
  O  O2  1  0.26153521  0.52709444  0.00280710  1
  O  O3  1  0.73846479  0.02709444  0.99719290  1
  O  O4  1  0.16846022  0.41533655  0.74984671  1
  O  O5  1  0.83153978  0.91533655  0.25015329  1
  O  O6  1  0.38448231  0.96520018  0.73220407  1
  O  O7  1  0.61551769  0.46520018  0.26779593  1
  O  O8  1  0.89876116  0.14239398  0.76159712  1
  O  O9  1  0.10123884  0.64239398  0.23840288  1
  O  O10  1  0.70830145  0.62695167  0.74609006  1
  O  O11  1  0.29169855  0.12695167  0.25390994  1
  O  O12  1  0.03904097  0.26739231  0.58178964  1
  O  O13  1  0.96095903  0.76739231  0.41821036  1
  O  O14  1  0.43761608  0.63514684  0.54113640  1
  O  O15  1  0.56238392  0.13514684  0.45886360  1
loop_
_geom_bond_atom_site_label_1
_geom_bond_atom_site_label_2
_geom_bond_distance
_geom_bond_site_symmetry_2
Bi0 O2 2.294660 1_556
Bi0 O3 2.330620 1_555
Bi0 O0 2.368941 1_555
Bi0 O1 2.408318 1_556
Bi0 O6 2.609496 1_545
Bi0 O8 2.619101 1_555
Bi0 O4 2.658621 1_555
Bi0 O10 2.667061 1_555
Bi1 O3 2.294660 1_564
Bi1 O2 2.330620 1_555
Bi1 O1 2.368941 1_555
Bi1 O0 2.408318 1_564
Bi1 O7 2.609496 1_555
Bi1 O9 2.619101 1_555
Bi1 O5 2.658621 1_555
Bi1 O11 2.667061 1_565
Bi2 O1 2.269319 1_456
Bi2 O0 2.343795 1_565
Bi2 O3 2.365737 1_465
Bi2 O2 2.401300 1_556
Bi2 O10 2.553444 1_455
Bi2 O8 2.614328 1_465
Bi2 O4 2.647166 1_555
Bi2 O6 2.828576 1_555
Bi3 O0 2.269319 1_654
Bi3 O1 2.343795 1_555
Bi3 O2 2.365737 1_655
Bi3 O3 2.401300 1_554
Bi3 O11 2.553444 1_655
Bi3 O9 2.614328 1_655
Bi3 O5 2.647166 1_545
Bi3 O7 2.828576 1_555
I0 O14 1.779251 1_555
I0 O6 1.826274 1_555
I0 O10 1.853624 1_555
I0 O15 2.543895 1_565
I1 O15 1.779251 1_555
I1 O7 1.826274 1_555
I1 O11 1.853624 1_555
I1 O14 2.543895 1_555
N0 O12 1.220064 1_555
N0 O4 1.264420 1_555
N0 O8 1.291411 1_455
N1 O13 1.220064 1_555
N1 O5 1.264420 1_555
N1 O9 1.291411 1_655
