# generated using pymatgen
data_Hf10Ga6S
_symmetry_space_group_name_H-M   'P 1'
_cell_length_a   8.02291091
_cell_length_b   8.02291199
_cell_length_c   5.71559560
_cell_angle_alpha   90.00000000
_cell_angle_beta   90.00000000
_cell_angle_gamma   120.00000763
_symmetry_Int_Tables_number   1
_chemical_formula_structural   Hf10Ga6S
_chemical_formula_sum   'Hf10 Ga6 S1'
_cell_volume   318.60756924
_cell_formula_units_Z   1
loop_
 _symmetry_equiv_pos_site_id
 _symmetry_equiv_pos_as_xyz
  1  'x, y, z'
loop_
 _atom_site_type_symbol
 _atom_site_label
 _atom_site_symmetry_multiplicity
 _atom_site_fract_x
 _atom_site_fract_y
 _atom_site_fract_z
 _atom_site_occupancy
  Hf  Hf0  1  1.00000000  0.74773828  0.23853144  1
  Hf  Hf1  1  0.25226172  0.25226172  0.23853144  1
  Hf  Hf2  1  0.74773828  1.00000000  0.23853144  1
  Hf  Hf3  1  0.00000000  0.25226172  0.76146856  1
  Hf  Hf4  1  0.74773828  0.74773828  0.76146856  1
  Hf  Hf5  1  0.25226172  0.00000000  0.76146856  1
  Hf  Hf6  1  0.33333300  0.66666700  0.50000000  1
  Hf  Hf7  1  0.66666700  0.33333300  0.50000000  1
  Hf  Hf8  1  0.66666700  0.33333300  0.00000000  1
  Hf  Hf9  1  0.33333300  0.66666700  0.00000000  1
  Ga  Ga0  1  0.00000000  0.39323154  0.24889405  1
  Ga  Ga1  1  0.60676846  0.60676846  0.24889405  1
  Ga  Ga2  1  0.39323154  0.00000000  0.24889405  1
  Ga  Ga3  1  1.00000000  0.60676846  0.75110595  1
  Ga  Ga4  1  0.39323154  0.39323154  0.75110595  1
  Ga  Ga5  1  0.60676846  1.00000000  0.75110595  1
  S  S0  1  0.00000000  0.00000000  0.50000000  1
loop_
_geom_bond_atom_site_label_1
_geom_bond_atom_site_label_2
_geom_bond_distance
_geom_bond_site_symmetry_2
Hf0 S0 2.515838 1_665
Hf1 S0 2.515838 1_555
Hf2 S0 2.515838 1_665
Hf3 S0 2.515838 1_555
Hf4 S0 2.515838 1_665
Hf5 S0 2.515838 1_555
Ga0 Hf2 2.769058 1_445
Ga0 Hf1 2.769058 1_555
Ga0 Hf0 2.844793 1_455
Ga0 Hf8 2.849805 1_455
Ga0 Hf9 2.849807 1_555
Ga0 Hf7 2.856137 1_455
Ga0 Hf6 2.856139 1_555
Ga0 Hf3 3.006746 1_554
Ga0 Hf3 3.140397 1_555
Ga1 Hf0 2.769058 1_555
Ga1 Hf2 2.769058 1_555
Ga1 Hf1 2.844792 1_555
Ga1 Hf9 2.849812 1_555
Ga1 Hf8 2.849812 1_555
Ga1 Hf6 2.856144 1_555
Ga1 Hf7 2.856144 1_555
Ga1 Hf4 3.006746 1_554
Ga1 Hf4 3.140397 1_555
Ga2 Hf0 2.769058 1_445
Ga2 Hf1 2.769058 1_555
Ga2 Hf2 2.844793 1_545
Ga2 Hf9 2.849805 1_545
Ga2 Hf8 2.849807 1_555
Ga2 Hf6 2.856137 1_545
Ga2 Hf7 2.856139 1_555
Ga2 Hf5 3.006746 1_554
Ga2 Hf5 3.140397 1_555
Ga3 Hf5 2.769058 1_665
Ga3 Hf4 2.769058 1_555
Ga3 Hf3 2.844793 1_655
Ga3 Hf9 2.849805 1_656
Ga3 Hf8 2.849807 1_556
Ga3 Hf6 2.856137 1_655
Ga3 Hf7 2.856139 1_555
Ga3 Hf0 3.006746 1_556
Ga3 Hf0 3.140397 1_555
Ga4 Hf3 2.769058 1_555
Ga4 Hf5 2.769058 1_555
Ga4 Hf4 2.844792 1_555
Ga4 Hf8 2.849812 1_556
Ga4 Hf9 2.849812 1_556
Ga4 Hf7 2.856144 1_555
Ga4 Hf6 2.856144 1_555
Ga4 Hf1 3.006746 1_556
Ga4 Hf1 3.140397 1_555
Ga5 Hf3 2.769058 1_665
Ga5 Hf4 2.769058 1_555
Ga5 Hf5 2.844793 1_565
Ga5 Hf8 2.849805 1_566
Ga5 Hf9 2.849807 1_556
Ga5 Hf7 2.856137 1_565
Ga5 Hf6 2.856139 1_555
Ga5 Hf2 3.006746 1_556
Ga5 Hf2 3.140397 1_555
