# generated using pymatgen
data_LiY6CoBr12
_symmetry_space_group_name_H-M   'P 1'
_cell_length_a   9.06647300
_cell_length_b   9.06647375
_cell_length_c   9.06647479
_cell_angle_alpha   107.65035426
_cell_angle_beta   107.65035619
_cell_angle_gamma   107.65036374
_symmetry_Int_Tables_number   1
_chemical_formula_structural   LiY6CoBr12
_chemical_formula_sum   'Li1 Y6 Co1 Br12'
_cell_volume   609.32366187
_cell_formula_units_Z   1
loop_
 _symmetry_equiv_pos_site_id
 _symmetry_equiv_pos_as_xyz
  1  'x, y, z'
loop_
 _atom_site_type_symbol
 _atom_site_label
 _atom_site_symmetry_multiplicity
 _atom_site_fract_x
 _atom_site_fract_y
 _atom_site_fract_z
 _atom_site_occupancy
  Li  Li0  1  0.50000000  0.50000000  0.50000000  1
  Y  Y0  1  0.31759511  0.11031147  0.03399809  1
  Y  Y1  1  0.11031147  0.03399809  0.31759511  1
  Y  Y2  1  0.03399809  0.31759511  0.11031147  1
  Y  Y3  1  0.68240489  0.88968853  0.96600191  1
  Y  Y4  1  0.88968853  0.96600191  0.68240489  1
  Y  Y5  1  0.96600191  0.68240489  0.88968853  1
  Co  Co0  1  0.00000000  0.00000000  0.00000000  1
  Br  Br0  1  0.22342185  0.07254395  0.68159380  1
  Br  Br1  1  0.07254395  0.68159380  0.22342185  1
  Br  Br2  1  0.68159380  0.22342185  0.07254395  1
  Br  Br3  1  0.77657815  0.92745605  0.31840620  1
  Br  Br4  1  0.92745605  0.31840620  0.77657815  1
  Br  Br5  1  0.31840620  0.77657815  0.92745605  1
  Br  Br6  1  0.38478265  0.46361260  0.16588969  1
  Br  Br7  1  0.46361260  0.16588969  0.38478265  1
  Br  Br8  1  0.16588969  0.38478265  0.46361260  1
  Br  Br9  1  0.61521735  0.53638740  0.83411031  1
  Br  Br10  1  0.53638740  0.83411031  0.61521735  1
  Br  Br11  1  0.83411031  0.61521735  0.53638740  1
loop_
_geom_bond_atom_site_label_1
_geom_bond_atom_site_label_2
_geom_bond_distance
_geom_bond_site_symmetry_2
Co0 Y0 2.629646 1_555
Co0 Y3 2.629646 1_444
Co0 Y2 2.629647 1_555
Co0 Y5 2.629647 1_444
Co0 Y1 2.629647 1_555
Co0 Y4 2.629647 1_444
Br0 Y4 2.886846 1_445
Br0 Y0 2.925688 1_556
Br0 Y1 3.015951 1_555
Br1 Y5 2.886847 1_454
Br1 Y1 2.925688 1_565
Br1 Y2 3.015950 1_555
Br2 Y3 2.886847 1_544
Br2 Y2 2.925687 1_655
Br2 Y0 3.015950 1_555
Br3 Y1 2.886846 1_665
Br3 Y3 2.925688 1_554
Br3 Y4 3.015951 1_555
Br4 Y2 2.886847 1_656
Br4 Y4 2.925688 1_545
Br4 Y5 3.015950 1_555
Br5 Y0 2.886847 1_566
Br5 Y5 2.925687 1_455
Br5 Y3 3.015950 1_555
Br6 Li0 2.764455 1_555
Br6 Y0 2.848452 1_555
Br6 Y2 2.862119 1_555
Br7 Li0 2.764455 1_555
Br7 Y1 2.848451 1_555
Br7 Y0 2.862120 1_555
Br8 Li0 2.764454 1_555
Br8 Y2 2.848452 1_555
Br8 Y1 2.862119 1_555
Br9 Li0 2.764455 1_555
Br9 Y3 2.848452 1_555
Br9 Y5 2.862119 1_555
Br10 Li0 2.764455 1_555
Br10 Y4 2.848451 1_555
Br10 Y3 2.862120 1_555
Br11 Li0 2.764454 1_555
Br11 Y5 2.848452 1_555
Br11 Y4 2.862119 1_555
