# generated using pymatgen
data_KGe2IrPt
_symmetry_space_group_name_H-M   'P 1'
_cell_length_a   7.47329614
_cell_length_b   7.47329651
_cell_length_c   7.47329727
_cell_angle_alpha   148.70921543
_cell_angle_beta   148.70921492
_cell_angle_gamma   44.83950049
_symmetry_Int_Tables_number   1
_chemical_formula_structural   KGe2IrPt
_chemical_formula_sum   'K1 Ge2 Ir1 Pt1'
_cell_volume   112.24576256
_cell_formula_units_Z   1
loop_
 _symmetry_equiv_pos_site_id
 _symmetry_equiv_pos_as_xyz
  1  'x, y, z'
loop_
 _atom_site_type_symbol
 _atom_site_label
 _atom_site_symmetry_multiplicity
 _atom_site_fract_x
 _atom_site_fract_y
 _atom_site_fract_z
 _atom_site_occupancy
  K  K0  1  0.00000000  0.00000000  0.00000000  1
  Ge  Ge0  1  0.35352619  0.35352619  1.00000000  1
  Ge  Ge1  1  0.64647381  0.64647381  0.00000000  1
  Ir  Ir0  1  0.25000100  0.75000100  0.50000100  1
  Pt  Pt0  1  0.75000100  0.25000100  0.50000100  1
loop_
_geom_bond_atom_site_label_1
_geom_bond_atom_site_label_2
_geom_bond_distance
_geom_bond_site_symmetry_2
Ge0 Pt0 2.471426 1_455
Ge0 Ir0 2.471426 1_545
Ge0 Ir0 2.471430 1_556
Ge0 Pt0 2.471430 1_556
Ge0 K0 3.495658 1_656
Ge0 K0 3.495658 1_667
Ge0 K0 3.495658 1_566
Ge0 K0 3.495659 1_555
Ge1 Pt0 2.471435 1_554
Ge1 Ir0 2.471435 1_554
Ge1 Ir0 2.471437 1_655
Ge1 Pt0 2.471438 1_565
Ge1 K0 3.495658 1_565
Ge1 K0 3.495658 1_554
Ge1 K0 3.495658 1_655
Ge1 K0 3.495659 1_666
