# generated using pymatgen
data_Ti8VBi4Ir
_symmetry_space_group_name_H-M   'P 1'
_cell_length_a   7.92221290
_cell_length_b   7.92221277
_cell_length_c   7.92221230
_cell_angle_alpha   95.82324179
_cell_angle_beta   95.82325078
_cell_angle_gamma   142.85216244
_symmetry_Int_Tables_number   1
_chemical_formula_structural   Ti8VBi4Ir
_chemical_formula_sum   'Ti8 V1 Bi4 Ir1'
_cell_volume   284.61274150
_cell_formula_units_Z   1
loop_
 _symmetry_equiv_pos_site_id
 _symmetry_equiv_pos_as_xyz
  1  'x, y, z'
loop_
 _atom_site_type_symbol
 _atom_site_label
 _atom_site_symmetry_multiplicity
 _atom_site_fract_x
 _atom_site_fract_y
 _atom_site_fract_z
 _atom_site_occupancy
  Ti  Ti0  1  0.59006165  0.70741170  0.28467521  1
  Ti  Ti1  1  0.90993835  0.19461356  0.11735105  1
  Ti  Ti2  1  0.30538644  0.59006165  0.88264895  1
  Ti  Ti3  1  0.79258830  0.90993835  0.71532479  1
  Ti  Ti4  1  0.70741170  0.42273850  0.11735105  1
  Ti  Ti5  1  0.07726150  0.79258830  0.88264895  1
  Ti  Ti6  1  0.42273850  0.30538644  0.71532479  1
  Ti  Ti7  1  0.19461356  0.07726150  0.28467521  1
  V  V0  1  0.75000000  0.75000000  0.00000000  1
  Bi  Bi0  1  0.35904687  0.85904687  0.21809174  1
  Bi  Bi1  1  0.14095313  0.35904687  0.50000000  1
  Bi  Bi2  1  0.64095313  0.14095313  0.78190826  1
  Bi  Bi3  1  0.85904687  0.64095313  0.50000000  1
  Ir  Ir0  1  0.25000000  0.25000000  0.00000000  1
loop_
_geom_bond_atom_site_label_1
_geom_bond_atom_site_label_2
_geom_bond_distance
_geom_bond_site_symmetry_2
Ti0 V0 2.618823 1_555
Ti1 V0 2.618824 1_545
Ti2 V0 2.618824 1_556
Ti3 V0 2.618823 1_556
Ti4 V0 2.618812 1_555
Ti5 V0 2.618812 1_456
Ti6 V0 2.618826 1_556
Ti7 V0 2.618826 1_445
Bi0 Ti7 2.916880 1_565
Bi0 Ti0 2.916895 1_555
Bi0 Ti2 2.993534 1_554
Bi0 Ti5 2.993542 1_554
Bi0 Ti1 3.064766 1_565
Bi0 Ti4 3.064782 1_455
Bi0 Ti4 3.117507 1_565
Bi0 Ti1 3.117507 1_455
Bi1 Ti1 2.916885 1_455
Bi1 Ti2 2.916885 1_555
Bi1 Ti6 2.993553 1_555
Bi1 Ti7 2.993553 1_555
Bi1 Ti3 3.064778 1_555
Bi1 Ti0 3.064778 1_445
Bi1 Ti3 3.117506 1_445
Bi1 Ti0 3.117506 1_555
Bi2 Ti6 2.916880 1_555
Bi2 Ti3 2.916895 1_545
Bi2 Ti1 2.993534 1_556
Bi2 Ti4 2.993542 1_556
Bi2 Ti2 3.064766 1_545
Bi2 Ti5 3.064782 1_655
Bi2 Ti5 3.117507 1_545
Bi2 Ti2 3.117507 1_655
Bi3 Ti5 2.916882 1_655
Bi3 Ti4 2.916882 1_555
Bi3 Ti0 2.993540 1_555
Bi3 Ti3 2.993540 1_555
Bi3 Ti7 3.064770 1_665
Bi3 Ti6 3.064770 1_555
Bi3 Ti7 3.117507 1_555
Bi3 Ti6 3.117507 1_665
Ir0 V0 2.523445 1_445
Ir0 V0 2.523445 1_555
Ir0 Ti4 2.649751 1_555
Ir0 Ti5 2.649751 1_544
Ir0 Ti3 2.649759 1_444
Ir0 Ti0 2.649760 1_555
Ir0 Ti2 2.649763 1_554
Ir0 Ti1 2.649763 1_455
Ir0 Ti7 2.649767 1_555
Ir0 Ti6 2.649767 1_554
