# generated using pymatgen
data_Na4AgSb2Au
_symmetry_space_group_name_H-M   'P 1'
_cell_length_a   6.01076603
_cell_length_b   6.01076593
_cell_length_c   5.83076975
_cell_angle_alpha   89.30238740
_cell_angle_beta   89.30238882
_cell_angle_gamma   100.40151896
_symmetry_Int_Tables_number   1
_chemical_formula_structural   Na4AgSb2Au
_chemical_formula_sum   'Na4 Ag1 Sb2 Au1'
_cell_volume   207.16231913
_cell_formula_units_Z   1
loop_
 _symmetry_equiv_pos_site_id
 _symmetry_equiv_pos_as_xyz
  1  'x, y, z'
loop_
 _atom_site_type_symbol
 _atom_site_label
 _atom_site_symmetry_multiplicity
 _atom_site_fract_x
 _atom_site_fract_y
 _atom_site_fract_z
 _atom_site_occupancy
  Na  Na0  1  0.01838113  0.66309384  0.24435651  1
  Na  Na1  1  0.98161887  0.33690616  0.75564349  1
  Na  Na2  1  0.66309384  0.01838113  0.24435651  1
  Na  Na3  1  0.33690616  0.98161887  0.75564349  1
  Ag  Ag0  1  0.50000000  0.50000000  0.50000000  1
  Sb  Sb0  1  0.79414237  0.79414237  0.74634447  1
  Sb  Sb1  1  0.20585763  0.20585763  0.25365553  1
  Au  Au0  1  0.50000000  0.50000000  0.00000000  1
loop_
_geom_bond_atom_site_label_1
_geom_bond_atom_site_label_2
_geom_bond_distance
_geom_bond_site_symmetry_2
Na0 Sb1 3.153147 1_555
Na0 Sb1 3.254922 1_565
Na0 Sb0 3.360381 1_454
Na0 Sb0 3.368650 1_455
Na1 Sb0 3.153147 1_555
Na1 Sb0 3.254922 1_545
Na1 Sb1 3.360381 1_656
Na1 Sb1 3.368650 1_655
Na2 Sb1 3.153147 1_555
Na2 Sb1 3.254922 1_655
Na2 Sb0 3.360381 1_544
Na2 Sb0 3.368650 1_545
Na3 Sb0 3.153147 1_555
Na3 Sb0 3.254922 1_455
Na3 Sb1 3.360381 1_566
Na3 Sb1 3.368650 1_565
Ag0 Sb0 2.703687 1_555
Ag0 Sb1 2.703687 1_555
Ag0 Au0 2.915385 1_556
Ag0 Au0 2.915385 1_555
Ag0 Na2 3.411729 1_565
Ag0 Na3 3.411729 1_545
Ag0 Na0 3.411729 1_655
Ag0 Na1 3.411729 1_455
Ag0 Na1 3.557750 1_555
Ag0 Na0 3.557750 1_555
Ag0 Na3 3.557750 1_555
Ag0 Na2 3.557750 1_555
Au0 Sb0 2.680145 1_554
Au0 Sb1 2.680145 1_555
Au0 Na2 3.426196 1_565
Au0 Na3 3.426196 1_544
Au0 Na0 3.426196 1_655
Au0 Na1 3.426196 1_454
Au0 Na3 3.511381 1_554
Au0 Na2 3.511381 1_555
Au0 Na1 3.511382 1_554
Au0 Na0 3.511382 1_555
