# generated using pymatgen
data_Hf3Zn2CuC
_symmetry_space_group_name_H-M   'P 1'
_cell_length_a   8.44767464
_cell_length_b   8.44767352
_cell_length_c   8.44767450
_cell_angle_alpha   59.99999999
_cell_angle_beta   60.00000437
_cell_angle_gamma   60.00000295
_symmetry_Int_Tables_number   1
_chemical_formula_structural   Hf3Zn2CuC
_chemical_formula_sum   'Hf12 Zn8 Cu4 C4'
_cell_volume   426.28151276
_cell_formula_units_Z   4
loop_
 _symmetry_equiv_pos_site_id
 _symmetry_equiv_pos_as_xyz
  1  'x, y, z'
loop_
 _atom_site_type_symbol
 _atom_site_label
 _atom_site_symmetry_multiplicity
 _atom_site_fract_x
 _atom_site_fract_y
 _atom_site_fract_z
 _atom_site_occupancy
  Hf  Hf0  1  0.44077102  0.44077102  0.05922898  1
  Hf  Hf1  1  0.05922898  0.44077102  0.05922898  1
  Hf  Hf2  1  0.44077102  0.05922898  0.05922898  1
  Hf  Hf3  1  0.05922898  0.05922898  0.44077102  1
  Hf  Hf4  1  0.44077102  0.05922898  0.44077102  1
  Hf  Hf5  1  0.05922898  0.44077102  0.44077102  1
  Hf  Hf6  1  0.80922898  0.80922898  0.19077102  1
  Hf  Hf7  1  0.19077102  0.80922898  0.19077102  1
  Hf  Hf8  1  0.80922898  0.19077102  0.19077102  1
  Hf  Hf9  1  0.19077102  0.19077102  0.80922898  1
  Hf  Hf10  1  0.80922898  0.19077102  0.80922898  1
  Hf  Hf11  1  0.19077102  0.80922898  0.80922898  1
  Zn  Zn0  1  0.83019329  0.83019329  0.50942013  1
  Zn  Zn1  1  0.83019329  0.50942013  0.83019329  1
  Zn  Zn2  1  0.50942013  0.83019329  0.83019329  1
  Zn  Zn3  1  0.83019329  0.83019329  0.83019329  1
  Zn  Zn4  1  0.41980671  0.41980671  0.74057987  1
  Zn  Zn5  1  0.41980671  0.74057987  0.41980671  1
  Zn  Zn6  1  0.74057987  0.41980671  0.41980671  1
  Zn  Zn7  1  0.41980671  0.41980671  0.41980671  1
  Cu  Cu0  1  0.62500000  0.62500000  0.12500000  1
  Cu  Cu1  1  0.62500000  0.12500000  0.62500000  1
  Cu  Cu2  1  0.12500000  0.62500000  0.62500000  1
  Cu  Cu3  1  0.62500000  0.62500000  0.62500000  1
  C  C0  1  0.12500000  0.12500000  0.62500000  1
  C  C1  1  0.12500000  0.62500000  0.12500000  1
  C  C2  1  0.62500000  0.12500000  0.12500000  1
  C  C3  1  0.12500000  0.12500000  0.12500000  1
loop_
_geom_bond_atom_site_label_1
_geom_bond_atom_site_label_2
_geom_bond_distance
_geom_bond_site_symmetry_2
Hf0 Zn4 2.879855 1_554
Hf0 Zn7 2.879855 1_555
Hf0 Zn2 3.053323 1_554
Hf0 Zn1 3.053324 1_554
Hf1 Zn6 2.879855 1_455
Hf1 Zn4 2.879855 1_554
Hf1 Zn3 3.053324 1_454
Hf1 Zn1 3.053324 1_454
Hf2 Zn4 2.879855 1_554
Hf2 Zn5 2.879855 1_545
Hf2 Zn2 3.053324 1_544
Hf2 Zn3 3.053324 1_544
Hf3 Zn6 2.879855 1_455
Hf3 Zn5 2.879855 1_545
Hf3 Zn0 3.053324 1_445
Hf3 Zn3 3.053324 1_445
Hf4 Zn7 2.879855 1_555
Hf4 Zn5 2.879855 1_545
Hf4 Zn2 3.053324 1_545
Hf4 Zn0 3.053324 1_545
Hf5 Zn6 2.879855 1_455
Hf5 Zn7 2.879855 1_555
Hf5 Zn0 3.053323 1_455
Hf5 Zn1 3.053324 1_455
Hf6 Zn0 2.879855 1_555
Hf6 Zn3 2.879855 1_554
Hf6 Zn6 3.053323 1_555
Hf6 Zn5 3.053324 1_555
Hf7 Zn2 2.879855 1_554
Hf7 Zn0 2.879855 1_455
Hf7 Zn7 3.053324 1_555
Hf7 Zn5 3.053324 1_555
Hf8 Zn0 2.879855 1_545
Hf8 Zn1 2.879855 1_554
Hf8 Zn6 3.053324 1_555
Hf8 Zn7 3.053324 1_555
Hf9 Zn2 2.879855 1_545
Hf9 Zn1 2.879855 1_455
Hf9 Zn4 3.053324 1_555
Hf9 Zn7 3.053324 1_555
Hf10 Zn3 2.879855 1_545
Hf10 Zn1 2.879855 1_555
Hf10 Zn6 3.053324 1_555
Hf10 Zn4 3.053324 1_555
Hf11 Zn2 2.879855 1_555
Hf11 Zn3 2.879855 1_455
Hf11 Zn4 3.053323 1_555
Hf11 Zn5 3.053324 1_555
Zn0 Zn1 2.709787 1_555
Zn0 Zn3 2.709787 1_555
Zn0 Zn2 2.709787 1_555
Zn1 Zn3 2.709787 1_555
Zn1 Zn2 2.709787 1_555
Zn2 Zn3 2.709787 1_555
Zn4 Zn5 2.709787 1_555
Zn4 Zn7 2.709787 1_555
Zn4 Zn6 2.709787 1_555
Zn5 Zn7 2.709787 1_555
Zn5 Zn6 2.709787 1_555
Zn6 Zn7 2.709787 1_555
Cu0 Zn3 2.565634 1_554
Cu0 Zn7 2.565634 1_555
Cu0 Zn6 2.565634 1_555
Cu0 Zn2 2.565634 1_554
Cu0 Zn5 2.565635 1_555
Cu0 Zn1 2.565635 1_554
Cu0 Hf2 3.050308 1_565
Cu0 Hf8 3.050308 1_555
Cu0 Hf6 3.050308 1_555
Cu0 Hf0 3.050308 1_555
Cu0 Hf1 3.050308 1_655
Cu0 Hf7 3.050308 1_555
Cu1 Zn6 2.565634 1_555
Cu1 Zn2 2.565634 1_545
Cu1 Zn4 2.565634 1_555
Cu1 Zn0 2.565634 1_545
Cu1 Zn3 2.565634 1_545
Cu1 Zn7 2.565634 1_555
Cu1 Hf10 3.050308 1_555
Cu1 Hf4 3.050308 1_555
Cu1 Hf2 3.050308 1_556
Cu1 Hf8 3.050308 1_555
Cu1 Hf3 3.050308 1_655
Cu1 Hf9 3.050308 1_555
Cu2 Zn5 2.565635 1_555
Cu2 Zn1 2.565635 1_455
Cu2 Zn4 2.565635 1_555
Cu2 Zn0 2.565635 1_455
Cu2 Zn3 2.565635 1_455
Cu2 Zn7 2.565635 1_555
Cu2 Hf3 3.050308 1_565
Cu2 Hf9 3.050308 1_555
Cu2 Hf11 3.050308 1_555
Cu2 Hf5 3.050308 1_555
Cu2 Hf1 3.050308 1_556
Cu2 Hf7 3.050308 1_555
Cu3 Zn0 2.565634 1_555
Cu3 Zn4 2.565634 1_555
Cu3 Zn2 2.565634 1_555
Cu3 Zn6 2.565634 1_555
Cu3 Zn1 2.565635 1_555
Cu3 Zn5 2.565635 1_555
Cu3 Hf4 3.050308 1_565
Cu3 Hf10 3.050308 1_555
Cu3 Hf0 3.050308 1_556
Cu3 Hf6 3.050308 1_555
Cu3 Hf5 3.050308 1_655
Cu3 Hf11 3.050308 1_555
C0 Hf5 2.253355 1_555
C0 Hf11 2.253355 1_545
C0 Hf9 2.253355 1_555
C0 Hf3 2.253355 1_555
C0 Hf4 2.253355 1_555
C0 Hf10 2.253355 1_455
C1 Hf7 2.253355 1_555
C1 Hf1 2.253355 1_555
C1 Hf5 2.253355 1_555
C1 Hf11 2.253355 1_554
C1 Hf0 2.253355 1_555
C1 Hf6 2.253355 1_455
C2 Hf0 2.253355 1_555
C2 Hf6 2.253355 1_545
C2 Hf8 2.253355 1_555
C2 Hf2 2.253355 1_555
C2 Hf4 2.253355 1_555
C2 Hf10 2.253355 1_554
C3 Hf1 2.253355 1_555
C3 Hf7 2.253355 1_545
C3 Hf3 2.253355 1_555
C3 Hf9 2.253355 1_554
C3 Hf2 2.253355 1_555
C3 Hf8 2.253355 1_455
