# generated using pymatgen
data_Sr4GaSi6Ni
_symmetry_space_group_name_H-M   'P 1'
_cell_length_a   8.50647314
_cell_length_b   8.16518542
_cell_length_c   6.24464440
_cell_angle_alpha   70.94542502
_cell_angle_beta   65.12657901
_cell_angle_gamma   43.93521791
_symmetry_Int_Tables_number   1
_chemical_formula_structural   Sr4GaSi6Ni
_chemical_formula_sum   'Sr4 Ga1 Si6 Ni1'
_cell_volume   272.83657499
_cell_formula_units_Z   1
loop_
 _symmetry_equiv_pos_site_id
 _symmetry_equiv_pos_as_xyz
  1  'x, y, z'
loop_
 _atom_site_type_symbol
 _atom_site_label
 _atom_site_symmetry_multiplicity
 _atom_site_fract_x
 _atom_site_fract_y
 _atom_site_fract_z
 _atom_site_occupancy
  Sr  Sr0  1  0.24588942  0.75015601  0.24979518  1
  Sr  Sr1  1  0.25198432  0.25194773  0.24803205  1
  Sr  Sr2  1  0.75197689  0.75194348  0.74803766  1
  Sr  Sr3  1  0.75017959  0.24587113  0.75409968  1
  Ga  Ga0  1  0.66610748  0.66615796  0.33387476  1
  Si  Si0  1  0.83951826  0.83958352  0.16045236  1
  Si  Si1  1  0.83957100  0.32037031  0.16046141  1
  Si  Si2  1  0.64748109  0.17703598  0.35256559  1
  Si  Si3  1  0.32038459  0.83954891  0.67963827  1
  Si  Si4  1  0.17704142  0.64749137  0.82290594  1
  Si  Si5  1  0.17610616  0.17608097  0.82386189  1
  Ni  Ni0  1  0.33375078  0.33381964  0.66627719  1
loop_
_geom_bond_atom_site_label_1
_geom_bond_atom_site_label_2
_geom_bond_distance
_geom_bond_site_symmetry_2
Ga0 Si3 2.443937 1_555
Ga0 Si1 2.444086 1_555
Ga0 Si0 2.453011 1_555
Ga0 Sr1 3.349895 1_565
Ga0 Sr2 3.349939 1_555
Ga0 Sr2 3.350143 1_554
Ga0 Sr1 3.350206 1_655
Ga0 Sr0 3.366952 1_555
Ga0 Sr3 3.367260 1_555
Si0 Si2 2.393084 1_565
Si0 Si4 2.393390 1_654
Si0 Sr0 3.242660 1_655
Si0 Sr3 3.242932 1_564
Si0 Sr1 3.358727 1_565
Si0 Sr2 3.359067 1_554
Si0 Sr2 3.359254 1_555
Si0 Sr1 3.359491 1_655
Si1 Si2 2.380629 1_555
Si1 Si5 2.387229 1_654
Si1 Sr0 3.268639 1_645
Si1 Sr3 3.268775 1_554
Si1 Sr1 3.392646 1_655
Si1 Sr2 3.393036 1_554
Si1 Sr3 3.393087 1_555
Si1 Sr0 3.393201 1_555
Si2 Sr1 3.277439 1_555
Si2 Sr2 3.277608 1_545
Si2 Sr3 3.291870 1_555
Si2 Sr0 3.292408 1_555
Si2 Sr0 3.410441 1_645
Si2 Sr3 3.411012 1_554
Si3 Si4 2.380472 1_555
Si3 Si5 2.386826 1_565
Si3 Sr0 3.268379 1_556
Si3 Sr3 3.268505 1_465
Si3 Sr2 3.392656 1_555
Si3 Sr1 3.393103 1_565
Si3 Sr3 3.393283 1_555
Si3 Sr0 3.393477 1_555
Si4 Sr2 3.277233 1_455
Si4 Sr1 3.277967 1_556
Si4 Sr0 3.292269 1_555
Si4 Sr3 3.292278 1_555
Si4 Sr3 3.410489 1_465
Si4 Sr0 3.410504 1_556
Si5 Sr1 3.301437 1_555
Si5 Sr2 3.301553 1_545
Si5 Sr2 3.301592 1_455
Si5 Sr1 3.301804 1_556
Si5 Sr3 3.440014 1_455
Si5 Sr0 3.440473 1_546
Ni0 Si4 2.216961 1_555
Ni0 Si2 2.217582 1_555
Ni0 Si5 2.230558 1_555
Ni0 Sr3 3.328365 1_555
Ni0 Sr0 3.328982 1_555
Ni0 Sr2 3.329592 1_455
Ni0 Sr1 3.329660 1_556
Ni0 Sr1 3.330167 1_555
Ni0 Sr2 3.330252 1_545
