# generated using pymatgen
data_YZnCdAg3
_symmetry_space_group_name_H-M   'P 1'
_cell_length_a   5.53175901
_cell_length_b   5.38005086
_cell_length_c   5.53175984
_cell_angle_alpha   59.06274783
_cell_angle_beta   60.00000657
_cell_angle_gamma   59.06273860
_symmetry_Int_Tables_number   1
_chemical_formula_structural   YZnCdAg3
_chemical_formula_sum   'Y1 Zn1 Cd1 Ag3'
_cell_volume   114.73554089
_cell_formula_units_Z   1
loop_
 _symmetry_equiv_pos_site_id
 _symmetry_equiv_pos_as_xyz
  1  'x, y, z'
loop_
 _atom_site_type_symbol
 _atom_site_label
 _atom_site_symmetry_multiplicity
 _atom_site_fract_x
 _atom_site_fract_y
 _atom_site_fract_z
 _atom_site_occupancy
  Y  Y0  1  0.75004568  0.74986495  0.75004568  1
  Zn  Zn0  1  0.37432094  0.87703717  0.37432094  1
  Cd  Cd0  1  0.00243835  0.99268296  0.00243835  1
  Ag  Ag0  1  0.37375881  0.37680497  0.37375881  1
  Ag  Ag1  1  0.87567841  0.37680497  0.37375881  1
  Ag  Ag2  1  0.37375881  0.37680497  0.87567841  1
loop_
_geom_bond_atom_site_label_1
_geom_bond_atom_site_label_2
_geom_bond_distance
_geom_bond_site_symmetry_2
Y0 Zn0 3.240873 1_655
Y0 Zn0 3.240873 1_556
Y0 Zn0 3.240882 1_555
Cd0 Zn0 3.232769 1_455
Cd0 Zn0 3.232769 1_554
Cd0 Zn0 3.232778 1_555
Cd0 Y0 3.278242 1_464
Cd0 Y0 3.362327 1_454
Cd0 Y0 3.362345 1_554
Cd0 Y0 3.362346 1_455
Ag0 Zn0 2.685582 1_545
Ag0 Zn0 2.694475 1_555
Ag0 Ag1 2.755261 1_455
Ag0 Ag2 2.755261 1_554
Ag0 Ag1 2.776498 1_555
Ag0 Ag2 2.776499 1_555
Ag0 Cd0 3.104922 1_555
Ag0 Y0 3.152362 1_545
Ag0 Y0 3.202954 1_455
Ag0 Y0 3.202955 1_554
Ag0 Cd0 3.227371 1_645
Ag0 Cd0 3.227371 1_546
Ag1 Zn0 2.685579 1_645
Ag1 Zn0 2.694478 1_555
Ag1 Ag2 2.755261 1_654
Ag1 Ag2 2.776499 1_555
Ag1 Cd0 3.104914 1_655
Ag1 Y0 3.152359 1_545
Ag1 Y0 3.202952 1_554
Ag1 Y0 3.202957 1_555
Ag1 Cd0 3.227364 1_646
Ag1 Cd0 3.227378 1_645
Ag2 Zn0 2.685580 1_546
Ag2 Zn0 2.694479 1_555
Ag2 Cd0 3.104914 1_556
Ag2 Y0 3.152359 1_545
Ag2 Y0 3.202952 1_455
Ag2 Y0 3.202957 1_555
Ag2 Cd0 3.227363 1_646
Ag2 Cd0 3.227378 1_546
