# generated using pymatgen
data_NaSm2Se3
_symmetry_space_group_name_H-M   'P 1'
_cell_length_a   7.22076911
_cell_length_b   7.22076911
_cell_length_c   7.20317394
_cell_angle_alpha   80.28859291
_cell_angle_beta   80.28859291
_cell_angle_gamma   119.54999552
_symmetry_Int_Tables_number   1
_chemical_formula_structural   NaSm2Se3
_chemical_formula_sum   'Na2 Sm4 Se6'
_cell_volume   307.82856903
_cell_formula_units_Z   2
loop_
 _symmetry_equiv_pos_site_id
 _symmetry_equiv_pos_as_xyz
  1  'x, y, z'
loop_
 _atom_site_type_symbol
 _atom_site_label
 _atom_site_symmetry_multiplicity
 _atom_site_fract_x
 _atom_site_fract_y
 _atom_site_fract_z
 _atom_site_occupancy
  Na  Na0  1  0.41752922  0.58247078  0.75000000  1
  Na  Na1  1  0.58247078  0.41752922  0.25000000  1
  Sm  Sm0  1  0.74871461  0.25128539  0.75000000  1
  Sm  Sm1  1  0.08349930  0.91650070  0.75000000  1
  Sm  Sm2  1  0.91650070  0.08349930  0.25000000  1
  Sm  Sm3  1  0.25128539  0.74871461  0.25000000  1
  Se  Se0  1  0.16379749  0.33126072  0.50210165  1
  Se  Se1  1  0.83620251  0.66873928  0.49789835  1
  Se  Se2  1  0.66873928  0.83620251  0.99789835  1
  Se  Se3  1  0.50000000  0.00000000  0.50000000  1
  Se  Se4  1  0.33126072  0.16379749  0.00210165  1
  Se  Se5  1  0.00000000  0.50000000  -0.00000000  1
loop_
_geom_bond_atom_site_label_1
_geom_bond_atom_site_label_2
_geom_bond_distance
_geom_bond_site_symmetry_2
Na0 Se5 2.953416 1_556
Na0 Se3 2.953416 1_565
Na0 Se4 2.955298 1_556
Na0 Se1 2.955298 1_555
Na0 Se0 2.958728 1_555
Na0 Se2 2.958728 1_555
Na1 Se3 2.953416 1_555
Na1 Se5 2.953416 1_655
Na1 Se2 2.955298 1_554
Na1 Se0 2.955298 1_555
Na1 Se4 2.958728 1_555
Na1 Se1 2.958728 1_555
Se0 Sm1 2.937310 1_545
Se0 Sm0 2.940173 1_455
Se0 Sm3 2.944640 1_555
Se0 Sm2 2.953949 1_455
Se1 Sm2 2.937310 1_565
Se1 Sm3 2.940173 1_655
Se1 Sm0 2.944640 1_555
Se1 Sm1 2.953949 1_655
Se2 Sm1 2.937310 1_655
Se2 Sm0 2.940173 1_565
Se2 Sm3 2.944640 1_556
Se2 Sm2 2.953949 1_566
Se3 Sm2 2.944346 1_555
Se3 Sm1 2.944346 1_545
Se3 Sm3 2.956299 1_545
Se3 Sm0 2.956299 1_555
Se4 Sm2 2.937310 1_455
Se4 Sm3 2.940173 1_545
Se4 Sm0 2.944640 1_554
Se4 Sm1 2.953949 1_544
Se5 Sm1 2.944346 1_554
Se5 Sm2 2.944346 1_455
Se5 Sm0 2.956299 1_454
Se5 Sm3 2.956299 1_555
