# generated using pymatgen
data_KCr3FeSb12
_symmetry_space_group_name_H-M   'P 1'
_cell_length_a   8.18519634
_cell_length_b   8.18519054
_cell_length_c   8.18515362
_cell_angle_alpha   109.18778675
_cell_angle_beta   109.18950897
_cell_angle_gamma   109.18959628
_symmetry_Int_Tables_number   1
_chemical_formula_structural   KCr3FeSb12
_chemical_formula_sum   'K1 Cr3 Fe1 Sb12'
_cell_volume   426.50065205
_cell_formula_units_Z   1
loop_
 _symmetry_equiv_pos_site_id
 _symmetry_equiv_pos_as_xyz
  1  'x, y, z'
loop_
 _atom_site_type_symbol
 _atom_site_label
 _atom_site_symmetry_multiplicity
 _atom_site_fract_x
 _atom_site_fract_y
 _atom_site_fract_z
 _atom_site_occupancy
  K  K0  1  0.00000000  0.00000000  0.00000000  1
  Cr  Cr0  1  0.00000000  0.00000000  0.50000000  1
  Cr  Cr1  1  0.00000000  0.50000000  0.00000000  1
  Cr  Cr2  1  0.50000000  0.00000000  0.00000000  1
  Fe  Fe0  1  0.50000000  0.50000000  0.50000000  1
  Sb  Sb0  1  0.65137214  0.80109236  0.15184406  1
  Sb  Sb1  1  0.84815769  0.34863282  0.19890483  1
  Sb  Sb2  1  0.50455644  0.83071445  0.64787714  1
  Sb  Sb3  1  0.83071562  0.64788736  0.50455779  1
  Sb  Sb4  1  0.49544356  0.16928555  0.35212286  1
  Sb  Sb5  1  0.15184231  0.65136718  0.80109517  1
  Sb  Sb6  1  0.80110323  0.15185387  0.65137883  1
  Sb  Sb7  1  0.19889677  0.84814613  0.34862117  1
  Sb  Sb8  1  0.16928438  0.35211264  0.49544221  1
  Sb  Sb9  1  0.64788389  0.50455844  0.83071779  1
  Sb  Sb10  1  0.35211611  0.49544156  0.16928221  1
  Sb  Sb11  1  0.34862786  0.19890764  0.84815594  1
loop_
_geom_bond_atom_site_label_1
_geom_bond_atom_site_label_2
_geom_bond_distance
_geom_bond_site_symmetry_2
K0 Sb10 3.559441 1_555
K0 Sb9 3.559441 1_444
K0 Sb4 3.559448 1_555
K0 Sb2 3.559448 1_444
K0 Sb8 3.559467 1_555
K0 Sb3 3.559467 1_444
K0 Sb7 3.598006 1_545
K0 Sb6 3.598006 1_454
K0 Sb11 3.598030 1_554
K0 Sb0 3.598030 1_445
K0 Sb1 3.598100 1_455
K0 Sb5 3.598100 1_544
Cr0 Sb6 2.715621 1_455
Cr0 Sb7 2.715621 1_545
Cr0 Sb11 2.732172 1_555
Cr0 Sb0 2.732172 1_445
Cr0 Sb8 2.776195 1_555
Cr0 Sb3 2.776195 1_445
Cr1 Sb5 2.715542 1_554
Cr1 Sb1 2.715542 1_455
Cr1 Sb7 2.732147 1_555
Cr1 Sb6 2.732147 1_454
Cr1 Sb10 2.776223 1_555
Cr1 Sb9 2.776223 1_454
Cr2 Sb0 2.715595 1_545
Cr2 Sb11 2.715595 1_554
Cr2 Sb1 2.732208 1_555
Cr2 Sb5 2.732208 1_544
Cr2 Sb4 2.776297 1_555
Cr2 Sb2 2.776297 1_544
Fe0 Sb9 2.558161 1_555
Fe0 Sb10 2.558161 1_555
Fe0 Sb3 2.558162 1_555
Fe0 Sb8 2.558162 1_555
Fe0 Sb2 2.558183 1_555
Fe0 Sb4 2.558183 1_555
Sb0 Sb9 2.917597 1_554
Sb0 Sb10 2.952175 1_555
Sb1 Sb8 2.917594 1_655
Sb1 Sb3 2.952256 1_555
Sb2 Sb6 2.917603 1_565
Sb2 Sb7 2.952183 1_555
Sb3 Sb5 2.917594 1_655
Sb4 Sb7 2.917603 1_545
Sb4 Sb6 2.952183 1_555
Sb5 Sb8 2.952256 1_555
Sb10 Sb11 2.917597 1_554
Sb11 Sb9 2.952175 1_555
