# generated using pymatgen
data_CdIn11Co3Ir
_symmetry_space_group_name_H-M   'P 1'
_cell_length_a   6.92261269
_cell_length_b   6.85741150
_cell_length_c   7.08006161
_cell_angle_alpha   90.00000000
_cell_angle_beta   90.00000000
_cell_angle_gamma   89.81167525
_symmetry_Int_Tables_number   1
_chemical_formula_structural   CdIn11Co3Ir
_chemical_formula_sum   'Cd1 In11 Co3 Ir1'
_cell_volume   336.09723247
_cell_formula_units_Z   1
loop_
 _symmetry_equiv_pos_site_id
 _symmetry_equiv_pos_as_xyz
  1  'x, y, z'
loop_
 _atom_site_type_symbol
 _atom_site_label
 _atom_site_symmetry_multiplicity
 _atom_site_fract_x
 _atom_site_fract_y
 _atom_site_fract_z
 _atom_site_occupancy
  Cd  Cd0  1  0.00078000  0.50284895  0.00000000  1
  In  In0  1  0.99169473  0.49502636  0.50000000  1
  In  In1  1  0.50538865  0.00839203  0.50000000  1
  In  In2  1  0.49831753  0.99873238  0.00000000  1
  In  In3  1  0.14930598  0.16085317  0.24954565  1
  In  In4  1  0.34537881  0.64407344  0.76618395  1
  In  In5  1  0.66383898  0.34579779  0.76738180  1
  In  In6  1  0.66383898  0.34579779  0.23261820  1
  In  In7  1  0.34537881  0.64407344  0.23381605  1
  In  In8  1  0.84294999  0.84736627  0.24954756  1
  In  In9  1  0.14930598  0.16085317  0.75045435  1
  In  In10  1  0.84294999  0.84736627  0.75045244  1
  Co  Co0  1  0.35632710  0.34272782  0.00000000  1
  Co  Co1  1  0.84478544  0.15451525  0.50000000  1
  Co  Co2  1  0.64523514  0.65474367  0.00000000  1
  Ir  Ir0  1  0.15452489  0.84683220  0.50000000  1
loop_
_geom_bond_atom_site_label_1
_geom_bond_atom_site_label_2
_geom_bond_distance
_geom_bond_site_symmetry_2
Cd0 Co2 2.669472 1_455
Cd0 Co0 2.691829 1_555
Cd0 In6 3.054411 1_455
Cd0 In5 3.054411 1_454
Cd0 In7 3.063369 1_555
Cd0 In4 3.063369 1_554
Cd0 In3 3.108518 1_555
Cd0 In9 3.108518 1_554
Cd0 In8 3.143217 1_455
Cd0 In10 3.143217 1_454
In0 Ir0 2.666182 1_655
In1 Ir0 2.672942 1_545
In3 Ir0 2.789651 1_545
In4 Ir0 2.686715 1_555
In7 Ir0 2.686715 1_555
In8 Ir0 2.792228 1_655
In9 Ir0 2.789651 1_545
In10 Ir0 2.792228 1_655
Co0 In2 2.552535 1_545
Co0 In3 2.596663 1_555
Co0 In9 2.596663 1_554
Co0 In7 2.648658 1_555
Co0 In4 2.648658 1_554
Co0 In6 2.691638 1_555
Co0 In5 2.691638 1_554
Co1 In0 2.549948 1_555
Co1 In1 2.557292 1_555
Co1 In5 2.619652 1_555
Co1 In6 2.619652 1_555
Co1 In10 2.753347 1_545
Co1 In8 2.753347 1_545
Co1 In9 2.755147 1_655
Co1 In3 2.755147 1_655
Co1 Ir0 3.003264 1_645
Co2 In2 2.565717 1_555
Co2 In8 2.598387 1_555
Co2 In10 2.598387 1_554
Co2 In7 2.656258 1_555
Co2 In4 2.656258 1_554
Co2 In6 2.686182 1_555
Co2 In5 2.686182 1_554
