# generated using pymatgen
data_Ti12Ge4C3N
_symmetry_space_group_name_H-M   'P 1'
_cell_length_a   5.48198522
_cell_length_b   5.48198566
_cell_length_c   16.44364266
_cell_angle_alpha   89.80685617
_cell_angle_beta   89.80685667
_cell_angle_gamma   33.78720080
_symmetry_Int_Tables_number   1
_chemical_formula_structural   Ti12Ge4C3N
_chemical_formula_sum   'Ti12 Ge4 C3 N1'
_cell_volume   274.80951902
_cell_formula_units_Z   1
loop_
 _symmetry_equiv_pos_site_id
 _symmetry_equiv_pos_as_xyz
  1  'x, y, z'
loop_
 _atom_site_type_symbol
 _atom_site_label
 _atom_site_symmetry_multiplicity
 _atom_site_fract_x
 _atom_site_fract_y
 _atom_site_fract_z
 _atom_site_occupancy
  Ti  Ti0  1  0.87014458  0.87014458  0.22790015  1
  Ti  Ti1  1  0.87247709  0.87247709  0.72468011  1
  Ti  Ti2  1  0.12752291  0.12752291  0.27531989  1
  Ti  Ti3  1  0.12985542  0.12985542  0.77209985  1
  Ti  Ti4  1  0.87118023  0.87118023  0.02348797  1
  Ti  Ti5  1  0.87244036  0.87244036  0.52218859  1
  Ti  Ti6  1  0.12755964  0.12755964  0.47781141  1
  Ti  Ti7  1  0.12881977  0.12881977  0.97651203  1
  Ti  Ti8  1  0.54586855  0.54586855  0.12580498  1
  Ti  Ti9  1  0.54825254  0.54825254  0.62321194  1
  Ti  Ti10  1  0.45174746  0.45174746  0.37678806  1
  Ti  Ti11  1  0.45413145  0.45413145  0.87419502  1
  Ge  Ge0  1  0.24725914  0.24725914  0.12574952  1
  Ge  Ge1  1  0.24812802  0.24812802  0.62373260  1
  Ge  Ge2  1  0.75187198  0.75187198  0.37626740  1
  Ge  Ge3  1  0.75274086  0.75274086  0.87425048  1
  C  C0  1  0.49903911  0.49903911  0.25132183  1
  C  C1  1  0.50096089  0.50096089  0.74867817  1
  C  C2  1  0.50000000  0.50000000  0.00000000  1
  N  N0  1  0.50000000  0.50000000  0.50000000  1
loop_
_geom_bond_atom_site_label_1
_geom_bond_atom_site_label_2
_geom_bond_distance
_geom_bond_site_symmetry_2
Ge0 Ti8 2.646034 1_455
Ge0 Ti8 2.646034 1_545
Ge0 Ti0 2.652636 1_545
Ge0 Ti0 2.652637 1_455
Ge0 Ti4 2.653315 1_545
Ge0 Ti4 2.653315 1_455
Ge0 Ti7 2.754544 1_554
Ge0 Ti2 2.757744 1_555
Ge1 Ti9 2.633400 1_455
Ge1 Ti9 2.633400 1_545
Ge1 Ti1 2.647685 1_545
Ge1 Ti1 2.647685 1_455
Ge1 Ti5 2.647884 1_545
Ge1 Ti5 2.647884 1_455
Ge1 Ti6 2.716385 1_555
Ge1 Ti3 2.733190 1_555
Ge2 Ti10 2.633400 1_655
Ge2 Ti10 2.633400 1_565
Ge2 Ti2 2.647685 1_565
Ge2 Ti2 2.647685 1_655
Ge2 Ti6 2.647884 1_565
Ge2 Ti6 2.647884 1_655
Ge2 Ti5 2.716385 1_555
Ge2 Ti0 2.733190 1_555
Ge3 Ti11 2.646034 1_655
Ge3 Ti11 2.646034 1_565
Ge3 Ti3 2.652636 1_565
Ge3 Ti3 2.652637 1_655
Ge3 Ti7 2.653315 1_565
Ge3 Ti7 2.653315 1_655
Ge3 Ti4 2.754544 1_556
Ge3 Ti1 2.757744 1_555
C0 Ti8 2.119934 1_555
C0 Ti10 2.120237 1_555
C0 Ti2 2.124637 1_655
C0 Ti2 2.124637 1_565
C0 Ti0 2.125617 1_455
C0 Ti0 2.125617 1_545
C1 Ti11 2.119934 1_555
C1 Ti9 2.120237 1_555
C1 Ti1 2.124637 1_455
C1 Ti1 2.124637 1_545
C1 Ti3 2.125617 1_655
C1 Ti3 2.125617 1_565
C2 Ti4 2.123587 1_455
C2 Ti7 2.123587 1_654
C2 Ti7 2.123587 1_564
C2 Ti4 2.123587 1_545
C2 Ti8 2.125571 1_555
C2 Ti11 2.125571 1_554
N0 Ti9 2.090064 1_555
N0 Ti10 2.090064 1_555
N0 Ti6 2.111458 1_655
N0 Ti5 2.111458 1_455
N0 Ti6 2.111458 1_565
N0 Ti5 2.111458 1_545
