# generated using pymatgen
data_Rb6InSe4Br
_symmetry_space_group_name_H-M   'P 1'
_cell_length_a   11.07507728
_cell_length_b   11.07507709
_cell_length_c   8.20534989
_cell_angle_alpha   90.00000000
_cell_angle_beta   90.00000000
_cell_angle_gamma   120.00000344
_symmetry_Int_Tables_number   1
_chemical_formula_structural   Rb6InSe4Br
_chemical_formula_sum   'Rb12 In2 Se8 Br2'
_cell_volume   871.60807382
_cell_formula_units_Z   2
loop_
 _symmetry_equiv_pos_site_id
 _symmetry_equiv_pos_as_xyz
  1  'x, y, z'
loop_
 _atom_site_type_symbol
 _atom_site_label
 _atom_site_symmetry_multiplicity
 _atom_site_fract_x
 _atom_site_fract_y
 _atom_site_fract_z
 _atom_site_occupancy
  Rb  Rb0  1  0.13698926  0.86301074  0.51286648  1
  Rb  Rb1  1  0.72601848  0.86301074  0.51286648  1
  Rb  Rb2  1  0.94624282  0.47312141  0.32110641  1
  Rb  Rb3  1  0.52687859  0.47312141  0.32110641  1
  Rb  Rb4  1  0.86301074  0.72601848  0.01286648  1
  Rb  Rb5  1  0.27398152  0.13698926  0.01286648  1
  Rb  Rb6  1  0.52687859  0.05375718  0.32110641  1
  Rb  Rb7  1  0.13698926  0.27398152  0.51286648  1
  Rb  Rb8  1  0.86301074  0.13698926  0.01286648  1
  Rb  Rb9  1  0.05375718  0.52687859  0.82110641  1
  Rb  Rb10  1  0.47312141  0.94624282  0.82110641  1
  Rb  Rb11  1  0.47312141  0.52687859  0.82110641  1
  In  In0  1  0.66666700  0.33333300  0.70914299  1
  In  In1  1  0.33333300  0.66666700  0.20914299  1
  Se  Se0  1  0.40880991  0.20440546  0.60901786  1
  Se  Se1  1  0.59119009  0.79559454  0.10901786  1
  Se  Se2  1  0.66666700  0.33333300  0.03261156  1
  Se  Se3  1  0.79559454  0.59119009  0.60901786  1
  Se  Se4  1  0.20440546  0.40880991  0.10901786  1
  Se  Se5  1  0.33333300  0.66666700  0.53261156  1
  Se  Se6  1  0.20440546  0.79559454  0.10901786  1
  Se  Se7  1  0.79559454  0.20440546  0.60901786  1
  Br  Br0  1  0.00000000  0.00000000  0.26987521  1
  Br  Br1  1  0.00000000  0.00000000  0.76987521  1
loop_
_geom_bond_atom_site_label_1
_geom_bond_atom_site_label_2
_geom_bond_distance
_geom_bond_site_symmetry_2
Rb0 Se0 3.549444 1_565
Rb0 Se3 3.549444 1_455
Rb0 Se6 3.557126 1_555
Rb0 Se5 3.769866 1_555
Rb1 Se7 3.549437 1_565
Rb1 Se3 3.549458 1_555
Rb1 Se1 3.557112 1_555
Rb1 Se5 3.769846 1_555
Rb2 Se7 3.500886 1_555
Rb2 Se3 3.500893 1_555
Rb2 Se2 3.576878 1_555
Rb2 Se6 3.707706 1_655
Rb2 Se4 3.707713 1_655
Rb3 Se0 3.500886 1_555
Rb3 Se3 3.500886 1_555
Rb3 Se2 3.576885 1_555
Rb3 Se1 3.707703 1_555
Rb3 Se4 3.707703 1_555
Rb4 Se6 3.549437 1_655
Rb4 Se1 3.549458 1_555
Rb4 Se3 3.557112 1_554
Rb4 Se2 3.769846 1_555
Rb5 Se6 3.549437 1_545
Rb5 Se4 3.549458 1_555
Rb5 Se0 3.557112 1_554
Rb5 Se2 3.769846 1_555
Rb6 Se7 3.500886 1_555
Rb6 Se0 3.500893 1_555
Rb6 Se2 3.576878 1_555
Rb6 Se6 3.707706 1_545
Rb6 Se1 3.707713 1_545
Rb7 Se7 3.549437 1_455
Rb7 Se0 3.549458 1_555
Rb7 Se4 3.557112 1_555
Rb7 Se5 3.769846 1_555
Rb8 Se1 3.549444 1_545
Rb8 Se4 3.549444 1_655
Rb8 Se7 3.557126 1_554
Rb8 Se2 3.769866 1_555
Rb9 Se6 3.500886 1_556
Rb9 Se4 3.500893 1_556
Rb9 Se5 3.576878 1_555
Rb9 Se7 3.707706 1_455
Rb9 Se3 3.707713 1_455
Rb10 Se6 3.500886 1_556
Rb10 Se1 3.500893 1_556
Rb10 Se5 3.576878 1_555
Rb10 Se7 3.707706 1_565
Rb10 Se0 3.707713 1_565
Rb11 Se1 3.500886 1_556
Rb11 Se4 3.500886 1_556
Rb11 Se5 3.576885 1_555
Rb11 Se0 3.707703 1_555
Rb11 Se3 3.707703 1_555
In0 Se7 2.606052 1_555
In0 Se3 2.606070 1_555
In0 Se0 2.606071 1_555
In0 Se2 2.654173 1_556
In1 Se6 2.606052 1_555
In1 Se4 2.606070 1_555
In1 Se1 2.606071 1_555
In1 Se5 2.654173 1_555
Br0 Rb0 3.298596 1_545
Br0 Rb7 3.298619 1_555
Br0 Rb1 3.298619 1_445
Br0 Rb8 3.369365 1_455
Br0 Rb4 3.369387 1_445
Br0 Rb5 3.369387 1_555
Br1 Rb8 3.298596 1_456
Br1 Rb4 3.298619 1_446
Br1 Rb5 3.298619 1_556
Br1 Rb0 3.369365 1_545
Br1 Rb7 3.369387 1_555
Br1 Rb1 3.369387 1_445
