# generated using pymatgen
data_Hf3Tc2MoAs3
_symmetry_space_group_name_H-M   'P 1'
_cell_length_a   7.76467613
_cell_length_b   7.76467795
_cell_length_c   7.76467684
_cell_angle_alpha   126.84556843
_cell_angle_beta   125.23566611
_cell_angle_gamma   79.82815106
_symmetry_Int_Tables_number   1
_chemical_formula_structural   Hf3Tc2MoAs3
_chemical_formula_sum   'Hf6 Tc4 Mo2 As6'
_cell_volume   295.53893661
_cell_formula_units_Z   2
loop_
 _symmetry_equiv_pos_site_id
 _symmetry_equiv_pos_as_xyz
  1  'x, y, z'
loop_
 _atom_site_type_symbol
 _atom_site_label
 _atom_site_symmetry_multiplicity
 _atom_site_fract_x
 _atom_site_fract_y
 _atom_site_fract_z
 _atom_site_occupancy
  Hf  Hf0  1  0.45841093  0.67338172  0.71497079  1
  Hf  Hf1  1  0.54158907  0.25655986  0.21497079  1
  Hf  Hf2  1  0.74900718  0.84558548  0.59657830  1
  Hf  Hf3  1  0.25099282  0.84757212  0.09657830  1
  Hf  Hf4  1  0.05452523  0.25967155  0.70514632  1
  Hf  Hf5  1  0.94547477  0.65062209  0.20514632  1
  Tc  Tc0  1  0.09937993  0.25289680  0.09958746  1
  Tc  Tc1  1  0.90062007  0.00020753  0.15351587  1
  Tc  Tc2  1  0.34669166  0.00020753  0.59958746  1
  Tc  Tc3  1  0.65330834  0.25289680  0.65351587  1
  Mo  Mo0  1  0.50000000  0.50378054  0.00378054  1
  Mo  Mo1  1  1.00000000  0.50378054  0.50378054  1
  As  As0  1  0.26920965  0.26311244  0.49390380  1
  As  As1  1  0.73079035  0.22469615  0.99390380  1
  As  As2  1  0.32980900  0.58778621  0.25433672  1
  As  As3  1  0.67019100  0.92452772  0.25797721  1
  As  As4  1  0.16655052  0.92452772  0.75433672  1
  As  As5  1  0.83344948  0.58778621  0.75797721  1
loop_
_geom_bond_atom_site_label_1
_geom_bond_atom_site_label_2
_geom_bond_distance
_geom_bond_site_symmetry_2
Hf0 Tc1 3.007905 1_566
Hf0 Tc2 3.007906 1_565
Hf0 Mo1 3.069749 1_455
Hf0 Mo0 3.069749 1_556
Hf1 Tc3 3.007901 1_555
Hf1 Tc0 3.007905 1_555
Hf1 Mo1 3.069749 1_555
Hf1 Mo0 3.069749 1_555
Hf2 Tc0 2.936324 1_666
Hf2 Tc3 2.936328 1_565
Hf2 Mo1 2.976747 1_555
Hf2 Mo0 2.976747 1_555
Hf2 Tc2 3.150604 1_565
Hf2 Tc1 3.150604 1_566
Hf3 Tc1 2.936319 1_465
Hf3 Tc2 2.936323 1_565
Hf3 Mo1 2.976747 1_454
Hf3 Mo0 2.976752 1_555
Hf3 Tc3 3.150604 1_565
Hf3 Tc0 3.150605 1_565
Hf4 Tc2 2.903087 1_555
Hf4 Tc1 2.903087 1_455
Hf4 Tc0 2.908637 1_556
Hf4 Tc3 2.908641 1_455
Hf4 Mo0 2.953569 1_556
Hf4 Mo1 2.953569 1_455
Hf5 Tc3 2.903087 1_554
Hf5 Tc0 2.903087 1_655
Hf5 Tc1 2.908634 1_565
Hf5 Tc2 2.908638 1_665
Hf5 Mo0 2.953571 1_555
Hf5 Mo1 2.953576 1_555
Mo0 Tc3 3.028393 1_554
Mo0 Tc2 3.028393 1_554
Mo1 Tc0 3.028393 1_655
Mo1 Tc1 3.028393 1_555
As0 Tc3 2.491252 1_555
As0 Tc0 2.491263 1_555
As0 Tc2 2.491612 1_555
As0 Tc1 2.491617 1_455
As0 Mo0 2.549669 1_556
As0 Mo1 2.549674 1_455
As0 Hf0 2.727251 1_555
As0 Hf3 2.769079 1_545
As0 Hf4 2.948394 1_555
As1 Tc2 2.491256 1_555
As1 Tc1 2.491268 1_556
As1 Tc3 2.491614 1_555
As1 Tc0 2.491619 1_656
As1 Mo0 2.549659 1_556
As1 Mo1 2.549669 1_556
As1 Hf1 2.727249 1_556
As1 Hf2 2.769093 1_545
As1 Hf5 2.948391 1_556
As2 Tc0 2.611893 1_555
As2 Tc2 2.627839 1_565
As2 Mo0 2.663990 1_555
As2 Hf0 2.737481 1_555
As2 Hf1 2.748708 1_555
As2 Hf2 2.757581 1_555
As2 Hf3 2.757953 1_555
As2 Hf4 2.760464 1_554
As2 Hf5 2.771927 1_455
As3 Tc1 2.611899 1_565
As3 Tc3 2.627841 1_565
As3 Mo0 2.663991 1_555
As3 Hf1 2.737482 1_565
As3 Hf0 2.748708 1_554
As3 Hf3 2.757579 1_555
As3 Hf2 2.757945 1_555
As3 Hf5 2.760460 1_555
As3 Hf4 2.771927 1_665
As4 Tc2 2.611899 1_565
As4 Tc0 2.627841 1_566
As4 Mo1 2.663991 1_455
As4 Hf1 2.737481 1_566
As4 Hf0 2.748707 1_555
As4 Hf3 2.757575 1_556
As4 Hf2 2.757945 1_455
As4 Hf5 2.760464 1_455
As4 Hf4 2.771927 1_565
As5 Tc3 2.611892 1_555
As5 Tc1 2.627839 1_566
As5 Mo1 2.663990 1_555
As5 Hf0 2.737481 1_555
As5 Hf1 2.748708 1_555
As5 Hf2 2.757581 1_555
As5 Hf3 2.757948 1_656
As5 Hf4 2.760464 1_655
As5 Hf5 2.771923 1_556
