# generated using pymatgen
data_Sr3Sn4Te
_symmetry_space_group_name_H-M   'P 1'
_cell_length_a   9.04317098
_cell_length_b   9.04317051
_cell_length_c   9.04317129
_cell_angle_alpha   120.61358926
_cell_angle_beta   120.61358871
_cell_angle_gamma   88.94048252
_symmetry_Int_Tables_number   1
_chemical_formula_structural   Sr3Sn4Te
_chemical_formula_sum   'Sr6 Sn8 Te2'
_cell_volume   517.98844042
_cell_formula_units_Z   2
loop_
 _symmetry_equiv_pos_site_id
 _symmetry_equiv_pos_as_xyz
  1  'x, y, z'
loop_
 _atom_site_type_symbol
 _atom_site_label
 _atom_site_symmetry_multiplicity
 _atom_site_fract_x
 _atom_site_fract_y
 _atom_site_fract_z
 _atom_site_occupancy
  Sr  Sr0  1  0.25000000  0.25000000  0.00000000  1
  Sr  Sr1  1  0.75000000  0.75000000  0.00000000  1
  Sr  Sr2  1  0.16451326  0.66451326  0.82902652  1
  Sr  Sr3  1  0.83548674  0.33548674  0.17097348  1
  Sr  Sr4  1  0.66451326  0.83548674  0.50000000  1
  Sr  Sr5  1  0.33548674  0.16451326  0.50000000  1
  Sn  Sn0  1  0.83297484  0.33297484  0.78332932  1
  Sn  Sn1  1  0.16702516  0.66702516  0.21667068  1
  Sn  Sn2  1  0.54964552  0.04964552  0.21667068  1
  Sn  Sn3  1  0.33297484  0.54964552  0.50000000  1
  Sn  Sn4  1  0.95035448  0.16702516  0.50000000  1
  Sn  Sn5  1  0.45035448  0.95035448  0.78332932  1
  Sn  Sn6  1  0.66702516  0.45035448  0.50000000  1
  Sn  Sn7  1  0.04964552  0.83297484  0.50000000  1
  Te  Te0  1  0.00000000  0.00000000  0.00000000  1
  Te  Te1  1  0.50000000  0.50000000  0.00000000  1
loop_
_geom_bond_atom_site_label_1
_geom_bond_atom_site_label_2
_geom_bond_distance
_geom_bond_site_symmetry_2
Sr0 Te0 3.226668 1_555
Sr0 Te1 3.226668 1_555
Sr1 Te0 3.226668 1_665
Sr1 Te1 3.226668 1_555
Sr2 Te0 3.347614 1_566
Sr2 Te1 3.347614 1_556
Sr3 Te0 3.347614 1_655
Sr3 Te1 3.347614 1_555
Sr4 Te1 3.347614 1_555
Sr4 Te0 3.347614 1_666
Sr5 Te1 3.347614 1_556
Sr5 Te0 3.347614 1_555
Sn0 Sn6 2.956116 1_555
Sn0 Sn4 2.956116 1_555
Sn0 Sn1 3.135538 1_656
Sn0 Sr3 3.482471 1_556
Sn0 Sr1 3.534296 1_556
Sn0 Sr0 3.534296 1_656
Sn0 Sr4 3.696396 1_545
Sn0 Sr5 3.696396 1_555
Sn1 Sn3 2.956116 1_555
Sn1 Sn7 2.956116 1_555
Sn1 Sr2 3.482471 1_554
Sn1 Sr0 3.534296 1_555
Sn1 Sr1 3.534296 1_455
Sn1 Sr5 3.696396 1_565
Sn1 Sr4 3.696396 1_555
Sn2 Sn6 2.956116 1_555
Sn2 Sn4 2.956116 1_555
Sn2 Sn5 3.135539 1_544
Sn2 Sr2 3.482471 1_544
Sn2 Sr1 3.534296 1_545
Sn2 Sr0 3.534296 1_555
Sn2 Sr4 3.696396 1_545
Sn2 Sr5 3.696396 1_555
Sn3 Sn5 2.956116 1_555
Sn3 Sn6 3.135539 1_555
Sn3 Sr5 3.482471 1_555
Sn3 Sr1 3.534296 1_556
Sn3 Sr0 3.534296 1_555
Sn3 Sr3 3.696396 1_455
Sn3 Sr2 3.696396 1_555
Sn4 Sn7 3.135539 1_645
Sn4 Sr5 3.482471 1_655
Sn4 Sr1 3.534295 1_545
Sn4 Sr0 3.534296 1_656
Sn4 Sr2 3.696396 1_655
Sn4 Sr3 3.696396 1_555
Sn5 Sn7 2.956116 1_555
Sn5 Sr3 3.482471 1_566
Sn5 Sr0 3.534296 1_566
Sn5 Sr1 3.534296 1_556
Sn5 Sr5 3.696396 1_565
Sn5 Sr4 3.696396 1_555
Sn6 Sr4 3.482471 1_555
Sn6 Sr0 3.534296 1_555
Sn6 Sr1 3.534296 1_556
Sn6 Sr2 3.696396 1_655
Sn6 Sr3 3.696396 1_555
Sn7 Sr4 3.482471 1_455
Sn7 Sr0 3.534295 1_566
Sn7 Sr1 3.534296 1_455
Sn7 Sr3 3.696396 1_455
Sn7 Sr2 3.696396 1_555
