# generated using pymatgen
data_Mn2AlCo4Sb
_symmetry_space_group_name_H-M   'P 1'
_cell_length_a   7.14523446
_cell_length_b   7.14523407
_cell_length_c   7.14523574
_cell_angle_alpha   33.42809849
_cell_angle_beta   33.42810309
_cell_angle_gamma   33.42811317
_symmetry_Int_Tables_number   1
_chemical_formula_structural   Mn2AlCo4Sb
_chemical_formula_sum   'Mn2 Al1 Co4 Sb1'
_cell_volume   98.58943885
_cell_formula_units_Z   1
loop_
 _symmetry_equiv_pos_site_id
 _symmetry_equiv_pos_as_xyz
  1  'x, y, z'
loop_
 _atom_site_type_symbol
 _atom_site_label
 _atom_site_symmetry_multiplicity
 _atom_site_fract_x
 _atom_site_fract_y
 _atom_site_fract_z
 _atom_site_occupancy
  Mn  Mn0  1  0.25427005  0.25427005  0.25427005  1
  Mn  Mn1  1  0.74572995  0.74572995  0.74572995  1
  Al  Al0  1  0.00000000  0.00000000  0.00000000  1
  Co  Co0  1  0.37361811  0.37361811  0.37361811  1
  Co  Co1  1  0.87698923  0.87698923  0.87698923  1
  Co  Co2  1  0.62638189  0.62638189  0.62638189  1
  Co  Co3  1  0.12301077  0.12301077  0.12301077  1
  Sb  Sb0  1  0.50000000  0.50000000  0.50000000  1
loop_
_geom_bond_atom_site_label_1
_geom_bond_atom_site_label_2
_geom_bond_distance
_geom_bond_site_symmetry_2
Al0 Co3 2.487180 1_555
Al0 Co1 2.487180 1_444
Al0 Co0 2.508745 1_554
Al0 Co2 2.508745 1_445
Al0 Co0 2.508746 1_545
Al0 Co2 2.508746 1_454
Al0 Co0 2.508747 1_455
Al0 Co2 2.508747 1_544
Co0 Mn0 2.413123 1_555
Co0 Mn1 2.499023 1_554
Co0 Mn1 2.499024 1_545
Co0 Mn1 2.499024 1_455
Co0 Sb0 2.555341 1_555
Co1 Sb0 2.531696 1_556
Co1 Sb0 2.531698 1_565
Co1 Sb0 2.531698 1_655
Co1 Mn0 2.533758 1_665
Co1 Mn0 2.533759 1_656
Co1 Mn0 2.533759 1_566
Co1 Mn1 2.653958 1_555
Co2 Mn1 2.413123 1_555
Co2 Mn0 2.499023 1_556
Co2 Mn0 2.499024 1_565
Co2 Mn0 2.499024 1_655
Co2 Sb0 2.555341 1_555
Co3 Sb0 2.531696 1_554
Co3 Sb0 2.531698 1_545
Co3 Sb0 2.531698 1_455
Co3 Mn1 2.533758 1_445
Co3 Mn1 2.533759 1_454
Co3 Mn1 2.533759 1_544
Co3 Mn0 2.653958 1_555
