# generated using pymatgen
data_Sr3Tc4(P3Pd)2
_symmetry_space_group_name_H-M   'P 1'
_cell_length_a   8.67019725
_cell_length_b   8.67826047
_cell_length_c   8.67752035
_cell_angle_alpha   153.02192951
_cell_angle_beta   95.37783724
_cell_angle_gamma   90.87098219
_symmetry_Int_Tables_number   1
_chemical_formula_structural   Sr3Tc4(P3Pd)2
_chemical_formula_sum   'Sr3 Tc4 P6 Pd2'
_cell_volume   287.76001825
_cell_formula_units_Z   1
loop_
 _symmetry_equiv_pos_site_id
 _symmetry_equiv_pos_as_xyz
  1  'x, y, z'
loop_
 _atom_site_type_symbol
 _atom_site_label
 _atom_site_symmetry_multiplicity
 _atom_site_fract_x
 _atom_site_fract_y
 _atom_site_fract_z
 _atom_site_occupancy
  Sr  Sr0  1  0.33027996  0.33002480  0.99964404  1
  Sr  Sr1  1  0.66667538  0.66668501  0.99997471  1
  Sr  Sr2  1  0.00306241  0.00330395  0.00038506  1
  Tc  Tc0  1  0.58371959  0.83036301  0.75305943  1
  Tc  Tc1  1  0.25612423  0.50276374  0.75326092  1
  Tc  Tc2  1  0.74960664  0.50296074  0.24691760  1
  Tc  Tc3  1  0.07724088  0.83057816  0.24676452  1
  P  P0  1  0.31645657  0.66614160  0.64965724  1
  P  P1  1  0.69826092  0.34443162  0.35347333  1
  P  P2  1  0.99070225  0.34452448  0.64627269  1
  P  P3  1  0.34264637  0.98882275  0.35371870  1
  P  P4  1  0.01684607  0.66718566  0.35036000  1
  P  P5  1  0.63505377  0.98885745  0.64651296  1
  Pd  Pd0  1  0.42495694  0.16644355  0.25804270  1
  Pd  Pd1  1  0.90836901  0.16691449  0.74195608  1
loop_
_geom_bond_atom_site_label_1
_geom_bond_atom_site_label_2
_geom_bond_distance
_geom_bond_site_symmetry_2
Sr1 Tc1 3.502409 1_555
Sr1 Tc3 3.502667 1_656
Sr1 Tc0 3.506062 1_555
Sr1 Tc2 3.506641 1_556
P0 Tc1 2.330160 1_555
P0 Tc0 2.331599 1_555
P0 Pd0 2.386587 1_555
P0 Pd0 2.386923 1_566
P0 Sr2 3.332529 1_555
P0 Sr2 3.335691 1_566
P0 Sr0 3.339231 1_554
P0 Sr0 3.339947 1_565
P1 Tc2 2.296016 1_555
P1 Tc0 2.345461 1_544
P1 Tc0 2.345919 1_555
P1 Pd0 2.434687 1_555
P1 Sr2 3.274785 1_655
P1 Sr2 3.277235 1_666
P1 Sr1 3.422683 1_544
P1 Sr1 3.422892 1_555
P2 Tc1 2.296653 1_655
P2 Tc3 2.345832 1_656
P2 Tc3 2.346134 1_645
P2 Pd1 2.435852 1_555
P2 Sr2 3.276265 1_655
P2 Sr2 3.278190 1_666
P2 Sr1 3.419069 1_555
P2 Sr1 3.419361 1_544
P3 Tc3 2.296592 1_555
P3 Tc1 2.345637 1_554
P3 Tc1 2.345982 1_565
P3 Pd0 2.435817 1_565
P3 Sr0 3.276673 1_565
P3 Sr0 3.278534 1_554
P3 Sr1 3.419169 1_554
P3 Sr1 3.419411 1_565
P4 Tc3 2.330349 1_555
P4 Tc2 2.331325 1_455
P4 Pd1 2.386648 1_465
P4 Pd1 2.387022 1_454
P4 Sr0 3.332756 1_565
P4 Sr0 3.335983 1_554
P4 Sr2 3.339245 1_566
P4 Sr2 3.340026 1_555
P5 Tc0 2.295630 1_555
P5 Tc2 2.345415 1_566
P5 Tc2 2.345825 1_555
P5 Pd1 2.434933 1_565
P5 Sr0 3.274672 1_565
P5 Sr0 3.276985 1_554
P5 Sr1 3.423525 1_565
P5 Sr1 3.423715 1_554
Pd0 Tc0 2.841906 1_544
Pd0 Tc1 2.842150 1_544
Pd0 Tc0 2.842770 1_555
Pd0 Tc1 2.842880 1_555
Pd0 Sr1 3.473054 1_544
Pd0 Sr1 3.473657 1_555
Pd0 Sr2 3.612651 1_555
Pd0 Sr0 3.616723 1_554
Pd1 Tc2 2.841879 1_556
Pd1 Tc3 2.842102 1_656
Pd1 Tc2 2.842905 1_545
Pd1 Tc3 2.842916 1_645
Pd1 Sr1 3.473155 1_555
Pd1 Sr1 3.473905 1_544
Pd1 Sr0 3.612877 1_655
Pd1 Sr2 3.617239 1_656
