# generated using pymatgen
data_TaNb9(B2P)2
_symmetry_space_group_name_H-M   'P 1'
_cell_length_a   7.27140948
_cell_length_b   7.27140873
_cell_length_c   7.27140947
_cell_angle_alpha   129.35352028
_cell_angle_beta   129.35351450
_cell_angle_gamma   74.44241665
_symmetry_Int_Tables_number   1
_chemical_formula_structural   TaNb9(B2P)2
_chemical_formula_sum   'Ta1 Nb9 B4 P2'
_cell_volume   224.03927028
_cell_formula_units_Z   1
loop_
 _symmetry_equiv_pos_site_id
 _symmetry_equiv_pos_as_xyz
  1  'x, y, z'
loop_
 _atom_site_type_symbol
 _atom_site_label
 _atom_site_symmetry_multiplicity
 _atom_site_fract_x
 _atom_site_fract_y
 _atom_site_fract_z
 _atom_site_occupancy
  Ta  Ta0  1  0.00000000  0.00000000  0.00000000  1
  Nb  Nb0  1  0.50000000  0.50000000  0.00000000  1
  Nb  Nb1  1  0.80856577  0.30872194  0.83656798  1
  Nb  Nb2  1  0.19143423  0.69127806  0.16343202  1
  Nb  Nb3  1  0.47215396  0.97199779  0.16343202  1
  Nb  Nb4  1  0.30872194  0.47215396  0.50015617  1
  Nb  Nb5  1  0.02800221  0.19143423  0.50015617  1
  Nb  Nb6  1  0.52784604  0.02800221  0.83656798  1
  Nb  Nb7  1  0.69127806  0.52784604  0.49984383  1
  Nb  Nb8  1  0.97199779  0.80856577  0.49984383  1
  B  B0  1  0.11256832  0.61476257  0.72732990  1
  B  B1  1  0.88743168  0.38523743  0.27267010  1
  B  B2  1  0.61476257  0.88743168  0.50219425  1
  B  B3  1  0.38523743  0.11256832  0.49780575  1
  P  P0  1  0.24950581  0.24950581  1.00000000  1
  P  P1  1  0.75049419  0.75049419  0.00000000  1
loop_
_geom_bond_atom_site_label_1
_geom_bond_atom_site_label_2
_geom_bond_distance
_geom_bond_site_symmetry_2
Nb0 P1 2.900857 1_555
Nb0 P0 2.900857 1_554
Nb1 P0 2.637030 1_655
Nb1 P1 2.641391 1_556
Nb1 Ta0 2.828139 1_656
Nb2 P1 2.637030 1_455
Nb2 P0 2.641391 1_554
Nb2 Ta0 2.828139 1_565
Nb3 P0 2.637029 1_564
Nb3 P1 2.641391 1_555
Nb3 Ta0 2.828139 1_565
Nb4 P0 2.637029 1_554
Nb4 P1 2.641391 1_556
Nb4 Ta0 2.828139 1_555
Nb5 P1 2.637029 1_445
Nb5 P0 2.641391 1_555
Nb5 Ta0 2.828139 1_555
Nb6 P1 2.637029 1_546
Nb6 P0 2.641391 1_555
Nb6 Ta0 2.828139 1_656
Nb7 P1 2.637029 1_556
Nb7 P0 2.641391 1_554
Nb7 Ta0 2.828139 1_666
Nb8 P0 2.637029 1_665
Nb8 P1 2.641391 1_555
Nb8 Ta0 2.828139 1_666
B0 B1 1.999883 1_455
B0 Nb8 2.409611 1_455
B0 Nb7 2.409619 1_455
B0 Nb4 2.420873 1_555
B0 Nb5 2.420881 1_555
B0 Ta0 2.496510 1_566
B0 Nb0 2.513456 1_556
B0 Nb3 2.514261 1_556
B0 Nb2 2.514269 1_556
B1 Nb5 2.409611 1_655
B1 Nb4 2.409619 1_655
B1 Nb7 2.420873 1_555
B1 Nb8 2.420881 1_555
B1 Ta0 2.496510 1_655
B1 Nb0 2.513456 1_555
B1 Nb6 2.514261 1_554
B1 Nb1 2.514269 1_554
B2 B3 1.999892 1_565
B2 Nb1 2.409616 1_565
B2 Nb6 2.409617 1_565
B2 Nb2 2.420879 1_555
B2 Nb3 2.420879 1_555
B2 Ta0 2.496508 1_666
B2 Nb0 2.513454 1_555
B2 Nb7 2.514261 1_555
B2 Nb8 2.514261 1_555
B3 Nb2 2.409616 1_545
B3 Nb3 2.409617 1_545
B3 Nb1 2.420879 1_555
B3 Nb6 2.420879 1_555
B3 Ta0 2.496508 1_555
B3 Nb0 2.513454 1_556
B3 Nb4 2.514261 1_555
B3 Nb5 2.514261 1_555
P0 Ta0 2.889411 1_556
P1 Ta0 2.889411 1_665
