# generated using pymatgen
data_Y4Sn5GeIr7
_symmetry_space_group_name_H-M   'P 1'
_cell_length_a   7.51348427
_cell_length_b   7.51348301
_cell_length_c   7.51348487
_cell_angle_alpha   109.32243504
_cell_angle_beta   109.54567058
_cell_angle_gamma   109.54565742
_symmetry_Int_Tables_number   1
_chemical_formula_structural   Y4Sn5GeIr7
_chemical_formula_sum   'Y4 Sn5 Ge1 Ir7'
_cell_volume   326.51266099
_cell_formula_units_Z   1
loop_
 _symmetry_equiv_pos_site_id
 _symmetry_equiv_pos_as_xyz
  1  'x, y, z'
loop_
 _atom_site_type_symbol
 _atom_site_label
 _atom_site_symmetry_multiplicity
 _atom_site_fract_x
 _atom_site_fract_y
 _atom_site_fract_z
 _atom_site_occupancy
  Y  Y0  1  1.00000000  0.99058256  0.52629371  1
  Y  Y1  1  0.00000000  0.52629371  0.99058256  1
  Y  Y2  1  0.46428885  0.99058256  0.99058256  1
  Y  Y3  1  0.53571115  0.52629371  0.52629371  1
  Sn  Sn0  1  0.68479999  0.69795219  0.01315219  1
  Sn  Sn1  1  0.31520001  0.01315219  0.32835220  1
  Sn  Sn2  1  0.00000000  0.29495651  0.29495651  1
  Sn  Sn3  1  0.31520001  0.32835220  0.01315219  1
  Sn  Sn4  1  0.68479999  0.01315219  0.69795219  1
  Ge  Ge0  1  1.00000000  0.65622402  0.65622402  1
  Ir  Ir0  1  0.75441569  0.24829642  0.49388173  1
  Ir  Ir1  1  0.75441569  0.49388173  0.24829642  1
  Ir  Ir2  1  0.50000000  0.25947350  0.75947350  1
  Ir  Ir3  1  0.24558431  0.49388173  0.73946604  1
  Ir  Ir4  1  0.24558431  0.73946604  0.49388173  1
  Ir  Ir5  1  0.50000000  0.75947350  0.25947350  1
  Ir  Ir6  1  0.00000000  0.96799023  0.96799023  1
loop_
_geom_bond_atom_site_label_1
_geom_bond_atom_site_label_2
_geom_bond_distance
_geom_bond_site_symmetry_2
Sn0 Y1 3.077108 1_654
Sn0 Y3 3.077109 1_554
Sn0 Y2 3.178697 1_554
Sn0 Y0 3.178697 1_555
Sn1 Y1 3.077108 1_544
Sn1 Y2 3.077109 1_544
Sn1 Y3 3.178697 1_555
Sn1 Y0 3.178698 1_445
Sn2 Y0 3.298731 1_445
Sn2 Y1 3.298732 1_554
Sn2 Y2 3.298732 1_444
Sn2 Y3 3.298732 1_555
Sn3 Y2 3.077108 1_544
Sn3 Y0 3.077109 1_444
Sn3 Y1 3.178697 1_554
Sn3 Y3 3.178698 1_555
Sn4 Y3 3.077108 1_545
Sn4 Y0 3.077109 1_545
Sn4 Y1 3.178697 1_655
Sn4 Y2 3.178698 1_545
Ge0 Ir3 2.553887 1_655
Ge0 Ir4 2.553888 1_655
Ge0 Ir0 2.553894 1_555
Ge0 Ir1 2.553894 1_555
Ge0 Ir6 2.709793 1_655
Ge0 Y0 2.981129 1_555
Ge0 Y2 2.981130 1_655
Ge0 Y3 2.981130 1_555
Ge0 Y1 2.981130 1_655
Ir0 Sn4 2.730736 1_555
Ir0 Sn1 2.730741 1_555
Ir0 Sn2 2.742405 1_655
Ir0 Y1 3.057777 1_655
Ir0 Y3 3.057783 1_555
Ir0 Y0 3.100885 1_545
Ir0 Y2 3.100892 1_544
Ir1 Sn0 2.730736 1_555
Ir1 Sn3 2.730741 1_555
Ir1 Sn2 2.742405 1_655
Ir1 Y0 3.057777 1_555
Ir1 Y3 3.057783 1_555
Ir1 Y1 3.100885 1_654
Ir1 Y2 3.100891 1_544
Ir2 Sn4 2.673863 1_555
Ir2 Sn1 2.673863 1_555
Ir2 Sn0 2.725336 1_556
Ir2 Sn3 2.725336 1_556
Ir2 Y2 3.072368 1_545
Ir2 Y3 3.072368 1_555
Ir2 Y0 3.072368 1_445
Ir2 Y1 3.072368 1_655
Ir3 Sn3 2.730742 1_556
Ir3 Sn0 2.730742 1_556
Ir3 Sn2 2.742405 1_555
Ir3 Y2 3.057776 1_555
Ir3 Y1 3.057777 1_555
Ir3 Y0 3.100891 1_445
Ir3 Y3 3.100892 1_555
Ir4 Sn1 2.730742 1_565
Ir4 Sn4 2.730742 1_565
Ir4 Sn2 2.742404 1_555
Ir4 Y0 3.057776 1_455
Ir4 Y2 3.057777 1_555
Ir4 Y3 3.100891 1_555
Ir4 Y1 3.100892 1_554
Ir5 Sn3 2.673863 1_555
Ir5 Sn0 2.673863 1_555
Ir5 Sn1 2.725336 1_565
Ir5 Sn4 2.725336 1_565
Ir5 Y3 3.072368 1_555
Ir5 Y2 3.072368 1_554
Ir5 Y0 3.072368 1_555
Ir5 Y1 3.072368 1_554
Ir6 Sn4 2.760162 1_465
Ir6 Sn3 2.760162 1_566
Ir6 Sn1 2.760162 1_566
Ir6 Sn0 2.760162 1_456
Ir6 Sn2 2.841908 1_566
Ir6 Y1 3.378645 1_555
Ir6 Y3 3.378646 1_455
Ir6 Y2 3.378646 1_555
Ir6 Y0 3.378646 1_455
