# generated using pymatgen
data_Hf5BeSn2Sb
_symmetry_space_group_name_H-M   'P 1'
_cell_length_a   8.47930103
_cell_length_b   8.47930165
_cell_length_c   5.72557385
_cell_angle_alpha   90.00000000
_cell_angle_beta   90.00000000
_cell_angle_gamma   120.01327338
_symmetry_Int_Tables_number   1
_chemical_formula_structural   Hf5BeSn2Sb
_chemical_formula_sum   'Hf10 Be2 Sn4 Sb2'
_cell_volume   356.46072724
_cell_formula_units_Z   2
loop_
 _symmetry_equiv_pos_site_id
 _symmetry_equiv_pos_as_xyz
  1  'x, y, z'
loop_
 _atom_site_type_symbol
 _atom_site_label
 _atom_site_symmetry_multiplicity
 _atom_site_fract_x
 _atom_site_fract_y
 _atom_site_fract_z
 _atom_site_occupancy
  Hf  Hf0  1  0.66696922  0.33243594  0.99844634  1
  Hf  Hf1  1  0.33243594  0.66696922  0.99844634  1
  Hf  Hf2  1  0.33243594  0.66696922  0.50155366  1
  Hf  Hf3  1  0.66696922  0.33243594  0.50155366  1
  Hf  Hf4  1  0.74310344  0.74310344  0.75000000  1
  Hf  Hf5  1  0.25830152  0.00069965  0.75000000  1
  Hf  Hf6  1  0.00069965  0.25830152  0.75000000  1
  Hf  Hf7  1  0.24183459  0.24183459  0.25000000  1
  Hf  Hf8  1  0.75767134  0.99904802  0.25000000  1
  Hf  Hf9  1  0.99904802  0.75767134  0.25000000  1
  Be  Be0  1  0.00003679  0.00003679  0.52454495  1
  Be  Be1  1  0.00003679  0.00003679  0.97545505  1
  Sn  Sn0  1  0.38932452  0.38932452  0.75000000  1
  Sn  Sn1  1  0.61330425  0.99961430  0.75000000  1
  Sn  Sn2  1  0.99961430  0.61330425  0.75000000  1
  Sn  Sn3  1  0.60294460  0.60294460  0.25000000  1
  Sb  Sb0  1  0.39537398  0.99989291  0.25000000  1
  Sb  Sb1  1  0.99989291  0.39537398  0.25000000  1
loop_
_geom_bond_atom_site_label_1
_geom_bond_atom_site_label_2
_geom_bond_distance
_geom_bond_site_symmetry_2
Hf0 Sb1 2.970052 1_556
Hf0 Sb0 2.971964 1_546
Hf0 Sn3 2.979271 1_556
Hf0 Sn1 2.984979 1_545
Hf0 Sn2 2.988477 1_555
Hf0 Sn0 2.989093 1_555
Hf1 Sb0 2.970052 1_556
Hf1 Sb1 2.971964 1_456
Hf1 Sn3 2.979271 1_556
Hf1 Sn2 2.984979 1_455
Hf1 Sn1 2.988477 1_555
Hf1 Sn0 2.989093 1_555
Hf2 Sb0 2.970052 1_555
Hf2 Sb1 2.971964 1_455
Hf2 Sn3 2.979271 1_555
Hf2 Sn2 2.984979 1_455
Hf2 Sn1 2.988477 1_555
Hf2 Sn0 2.989093 1_555
Hf3 Sb1 2.970052 1_555
Hf3 Sb0 2.971964 1_545
Hf3 Sn3 2.979271 1_555
Hf3 Sn1 2.984979 1_545
Hf3 Sn2 2.988477 1_555
Hf3 Sn0 2.989093 1_555
Hf4 Sn2 2.887372 1_555
Hf4 Sn1 2.887372 1_555
Hf4 Sn0 2.999196 1_555
Hf4 Sn3 3.099580 1_556
Hf4 Sn3 3.099580 1_555
Hf5 Sn2 2.897141 1_445
Hf5 Sn0 2.903552 1_555
Hf5 Sn1 3.014789 1_545
Hf5 Sb0 3.091026 1_546
Hf5 Sb0 3.091026 1_545
Hf6 Sn1 2.897141 1_445
Hf6 Sn0 2.903552 1_555
Hf6 Sn2 3.014789 1_455
Hf6 Sb1 3.091026 1_455
Hf6 Sb1 3.091026 1_456
Hf7 Sb1 2.928400 1_455
Hf7 Sb0 2.928400 1_545
Hf7 Sn3 3.061346 1_555
Hf7 Sn0 3.123932 1_555
Hf7 Sn0 3.123932 1_554
Hf8 Sn3 2.931508 1_555
Hf8 Sb1 2.933745 1_565
Hf8 Sb0 3.075618 1_555
Hf8 Sn1 3.114475 1_555
Hf8 Sn1 3.114475 1_554
Hf9 Sn3 2.931508 1_555
Hf9 Sb0 2.933744 1_655
Hf9 Sb1 3.075618 1_555
Hf9 Sn2 3.114475 1_554
Hf9 Sn2 3.114475 1_555
Be0 Hf4 2.531952 1_445
Be0 Hf5 2.539629 1_555
Be0 Hf6 2.539630 1_555
Be0 Hf7 2.583196 1_555
Be0 Hf8 2.584024 1_445
Be0 Hf9 2.584025 1_445
Be1 Hf4 2.531952 1_445
Be1 Hf5 2.539629 1_555
Be1 Hf6 2.539630 1_555
Be1 Hf7 2.583196 1_556
Be1 Hf8 2.584024 1_446
Be1 Hf9 2.584025 1_446
