# generated using pymatgen
data_Sr4H12PdAu
_symmetry_space_group_name_H-M   'P 1'
_cell_length_a   7.39778042
_cell_length_b   7.39778088
_cell_length_c   5.64047017
_cell_angle_alpha   90.00378810
_cell_angle_beta   90.00377971
_cell_angle_gamma   135.19285306
_symmetry_Int_Tables_number   1
_chemical_formula_structural   Sr4H12PdAu
_chemical_formula_sum   'Sr4 H12 Pd1 Au1'
_cell_volume   217.53867062
_cell_formula_units_Z   1
loop_
 _symmetry_equiv_pos_site_id
 _symmetry_equiv_pos_as_xyz
  1  'x, y, z'
loop_
 _atom_site_type_symbol
 _atom_site_label
 _atom_site_symmetry_multiplicity
 _atom_site_fract_x
 _atom_site_fract_y
 _atom_site_fract_z
 _atom_site_occupancy
  Sr  Sr0  1  0.64591257  0.35408743  1.00000000  1
  Sr  Sr1  1  0.35408743  0.64591257  0.00000000  1
  Sr  Sr2  1  0.85268628  0.14731372  0.50000000  1
  Sr  Sr3  1  0.14731372  0.85268628  0.50000000  1
  H  H0  1  0.87842392  0.12157608  0.00000000  1
  H  H1  1  0.12157608  0.87842392  1.00000000  1
  H  H2  1  0.62158786  0.37841214  0.50000000  1
  H  H3  1  0.37841214  0.62158786  0.50000000  1
  H  H4  1  0.00010904  0.50007698  0.24773058  1
  H  H5  1  0.99989096  0.49992302  0.75226942  1
  H  H6  1  0.49992302  0.99989096  0.75226942  1
  H  H7  1  0.50007698  0.00010904  0.24773058  1
  H  H8  1  0.27690737  0.27690737  0.28052049  1
  H  H9  1  0.72309263  0.72309263  0.71947951  1
  H  H10  1  0.28025979  0.28025979  0.72265723  1
  H  H11  1  0.71974021  0.71974021  0.27734277  1
  Pd  Pd0  1  0.50000000  0.50000000  0.50000000  1
  Au  Au0  1  0.00000000  0.00000000  0.00000000  1
loop_
_geom_bond_atom_site_label_1
_geom_bond_atom_site_label_2
_geom_bond_distance
_geom_bond_site_symmetry_2
H0 Sr1 2.839086 1_545
H0 Sr1 2.839086 1_655
H0 Sr2 2.842125 1_555
H0 Sr2 2.842125 1_554
H1 Sr0 2.839086 1_565
H1 Sr0 2.839086 1_455
H1 Sr3 2.842125 1_555
H1 Sr3 2.842125 1_556
H2 Pd0 1.663179 1_555
H2 Sr0 2.839795 1_554
H2 Sr0 2.839795 1_555
H2 Sr3 2.841377 1_655
H2 Sr3 2.841377 1_545
H3 Pd0 1.663179 1_555
H3 Sr1 2.839795 1_556
H3 Sr1 2.839795 1_555
H3 Sr2 2.841377 1_455
H3 Sr2 2.841377 1_565
H4 Sr1 2.442470 1_555
H4 Sr0 2.443052 1_454
H4 Sr3 2.446122 1_555
H4 Sr2 2.446759 1_455
H5 Sr0 2.442470 1_555
H5 Sr1 2.443052 1_656
H5 Sr2 2.446122 1_555
H5 Sr3 2.446759 1_655
H6 Sr1 2.442470 1_556
H6 Sr0 2.443052 1_565
H6 Sr3 2.446122 1_555
H6 Sr2 2.446759 1_565
H7 Sr0 2.442470 1_554
H7 Sr1 2.443052 1_545
H7 Sr2 2.446122 1_555
H7 Sr3 2.446759 1_545
H8 Pd0 1.764834 1_555
H8 Sr2 2.834078 1_455
H8 Sr3 2.834079 1_545
H8 Sr0 2.840870 1_554
H8 Sr1 2.840870 1_555
H9 Pd0 1.764834 1_555
H9 Sr3 2.834078 1_655
H9 Sr2 2.834079 1_565
H9 Sr1 2.840870 1_556
H9 Sr0 2.840870 1_555
H10 Pd0 1.764429 1_555
H10 Sr1 2.822335 1_556
H10 Sr0 2.822335 1_555
H10 Sr2 2.852146 1_455
H10 Sr3 2.852146 1_545
H11 Pd0 1.764429 1_555
H11 Sr0 2.822335 1_554
H11 Sr1 2.822335 1_555
H11 Sr3 2.852146 1_655
H11 Sr2 2.852146 1_565
Au0 H1 1.663018 1_544
Au0 H0 1.663018 1_455
Au0 H8 2.222822 1_555
Au0 H9 2.222822 1_444
Au0 H10 2.223881 1_554
Au0 H11 2.223881 1_445
