# generated using pymatgen
data_BaAuSeF
_symmetry_space_group_name_H-M   'P 1'
_cell_length_a   9.29728383
_cell_length_b   6.47211127
_cell_length_c   6.35429242
_cell_angle_alpha   89.99987901
_cell_angle_beta   89.94283689
_cell_angle_gamma   89.99942632
_symmetry_Int_Tables_number   1
_chemical_formula_structural   BaAuSeF
_chemical_formula_sum   'Ba4 Au4 Se4 F4'
_cell_volume   382.35700001
_cell_formula_units_Z   4
loop_
 _symmetry_equiv_pos_site_id
 _symmetry_equiv_pos_as_xyz
  1  'x, y, z'
loop_
 _atom_site_type_symbol
 _atom_site_label
 _atom_site_symmetry_multiplicity
 _atom_site_fract_x
 _atom_site_fract_y
 _atom_site_fract_z
 _atom_site_occupancy
  Ba  Ba0  1  0.65543628  0.49990909  0.24969294  1
  Ba  Ba1  1  0.34456137  0.99991433  0.25030791  1
  Ba  Ba2  1  0.65543963  0.00008567  0.74969109  1
  Ba  Ba3  1  0.34456272  0.50009091  0.75030606  1
  Au  Au0  1  0.99995878  0.74984393  0.24869875  1
  Au  Au1  1  0.00004682  0.24985644  0.25130843  1
  Au  Au2  1  0.99995218  0.75014356  0.74869457  1
  Au  Au3  1  0.00004322  0.25015607  0.75130225  1
  Se  Se0  1  0.80050448  0.99988451  0.24953897  1
  Se  Se1  1  0.19950070  0.49987569  0.25045144  1
  Se  Se2  1  0.80050030  0.50012531  0.74954956  1
  Se  Se3  1  0.19949452  0.00011649  0.75046003  1
  F  F0  1  0.49995190  0.24993294  0.99994997  1
  F  F1  1  0.50004910  0.75006706  0.00005003  1
  F  F2  1  0.50004759  0.74993508  0.50004675  1
  F  F3  1  0.49995041  0.25006492  0.49995225  1
loop_
_geom_bond_atom_site_label_1
_geom_bond_atom_site_label_2
_geom_bond_distance
_geom_bond_site_symmetry_2
Ba0 F3 2.688634 1_555
Ba0 F1 2.688735 1_555
Ba0 F0 2.688910 1_554
Ba0 F2 2.689198 1_555
Ba0 Se2 3.451158 1_554
Ba0 Se2 3.451958 1_555
Ba0 Se0 3.505740 1_555
Ba0 Se0 3.506009 1_545
Ba1 F1 2.688636 1_555
Ba1 F3 2.688742 1_565
Ba1 F2 2.688894 1_555
Ba1 F0 2.689207 1_564
Ba1 Se3 3.451220 1_565
Ba1 Se3 3.451917 1_564
Ba1 Se1 3.505604 1_565
Ba1 Se1 3.506091 1_555
Ba2 F0 2.688640 1_555
Ba2 F2 2.688757 1_545
Ba2 F3 2.688909 1_555
Ba2 F1 2.689211 1_546
Ba2 Se0 3.451212 1_545
Ba2 Se0 3.451910 1_546
Ba2 Se2 3.505598 1_545
Ba2 Se2 3.506097 1_555
Ba3 F2 2.688629 1_555
Ba3 F0 2.688749 1_555
Ba3 F1 2.688924 1_556
Ba3 F3 2.689193 1_555
Ba3 Se1 3.451163 1_556
Ba3 Se1 3.451939 1_555
Ba3 Se3 3.505734 1_555
Ba3 Se3 3.506015 1_565
Au0 Se0 2.461209 1_555
Au0 Se1 2.461547 1_655
Au0 Au2 3.177120 1_555
Au0 Au2 3.177173 1_554
Au0 Au1 3.236017 1_655
Au0 Au1 3.236179 1_665
Au0 Ba0 3.588419 1_555
Au0 Ba1 3.589503 1_655
Au1 Se1 2.461140 1_555
Au1 Se0 2.461591 1_445
Au1 Au3 3.177108 1_555
Au1 Au3 3.177186 1_554
Au1 Ba1 3.588346 1_545
Au1 Ba0 3.589489 1_455
Au2 Se2 2.461122 1_555
Au2 Se3 2.461595 1_665
Au2 Au3 3.236017 1_655
Au2 Au3 3.236179 1_665
Au2 Ba2 3.588329 1_565
Au2 Ba3 3.589489 1_655
Au3 Se3 2.461184 1_555
Au3 Se2 2.461558 1_455
Au3 Ba3 3.588394 1_555
Au3 Ba2 3.589512 1_455
