# generated using pymatgen
data_SrCrP3N5O2
_symmetry_space_group_name_H-M   'P 1'
_cell_length_a   6.66709775
_cell_length_b   7.08777779
_cell_length_c   13.81572620
_cell_angle_alpha   60.41798673
_cell_angle_beta   90.00000000
_cell_angle_gamma   90.00000000
_symmetry_Int_Tables_number   1
_chemical_formula_structural   SrCrP3N5O2
_chemical_formula_sum   'Sr4 Cr4 P12 N20 O8'
_cell_volume   567.76041498
_cell_formula_units_Z   4
loop_
 _symmetry_equiv_pos_site_id
 _symmetry_equiv_pos_as_xyz
  1  'x, y, z'
loop_
 _atom_site_type_symbol
 _atom_site_label
 _atom_site_symmetry_multiplicity
 _atom_site_fract_x
 _atom_site_fract_y
 _atom_site_fract_z
 _atom_site_occupancy
  Sr  Sr0  1  0.76183598  0.51403403  0.60188380  1
  Sr  Sr1  1  0.26183598  0.48596597  0.89811620  1
  Sr  Sr2  1  0.23816402  0.48596597  0.39811620  1
  Sr  Sr3  1  0.73816402  0.51403403  0.10188380  1
  Cr  Cr0  1  0.48613608  0.98569955  0.87214158  1
  Cr  Cr1  1  0.98613608  0.01430045  0.62785842  1
  Cr  Cr2  1  0.51386392  0.01430045  0.12785842  1
  Cr  Cr3  1  0.01386392  0.98569955  0.37214158  1
  P  P0  1  0.00624453  0.94106266  0.87893152  1
  P  P1  1  0.50624453  0.05893734  0.62106848  1
  P  P2  1  0.99375547  0.05893734  0.12106848  1
  P  P3  1  0.49375547  0.94106266  0.37893152  1
  P  P4  1  0.27938033  0.74379009  0.58936317  1
  P  P5  1  0.77938033  0.25620991  0.91063683  1
  P  P6  1  0.72061967  0.25620991  0.41063683  1
  P  P7  1  0.22061967  0.74379009  0.08936317  1
  P  P8  1  0.76003002  0.71305115  0.79345193  1
  P  P9  1  0.26003002  0.28694885  0.70654807  1
  P  P10  1  0.23996998  0.28694885  0.20654807  1
  P  P11  1  0.73996998  0.71305115  0.29345193  1
  N  N0  1  0.30157600  0.93662710  0.62050078  1
  N  N1  1  0.80157600  0.06337290  0.87949922  1
  N  N2  1  0.69842400  0.06337290  0.37949922  1
  N  N3  1  0.19842400  0.93662710  0.12050078  1
  N  N4  1  0.69452421  0.89070856  0.66605692  1
  N  N5  1  0.19452421  0.10929144  0.83394308  1
  N  N6  1  0.30547579  0.10929144  0.33394308  1
  N  N7  1  0.80547579  0.89070856  0.16605692  1
  N  N8  1  0.97347854  0.82268908  0.80310711  1
  N  N9  1  0.47347854  0.17731092  0.69689289  1
  N  N10  1  0.02652146  0.17731092  0.19689289  1
  N  N11  1  0.52652146  0.82268908  0.30310711  1
  N  N12  1  0.80117842  0.48638137  0.79690838  1
  N  N13  1  0.30117842  0.51361863  0.70309162  1
  N  N14  1  0.19882158  0.51361863  0.20309162  1
  N  N15  1  0.69882158  0.48638137  0.29690838  1
  N  N16  1  0.56169791  0.25707851  0.49883036  1
  N  N17  1  0.06169791  0.74292149  0.00116964  1
  N  N18  1  0.43830209  0.74292149  0.50116964  1
  N  N19  1  0.93830209  0.25707851  0.99883036  1
  O  O0  1  0.06334007  0.77663440  0.54033117  1
  O  O1  1  0.56334007  0.22336560  0.95966883  1
  O  O2  1  0.93665993  0.22336560  0.45966883  1
  O  O3  1  0.43665993  0.77663440  0.04033117  1
  O  O4  1  0.60733301  0.68545976  0.88278963  1
  O  O5  1  0.10733301  0.31454024  0.61721037  1
  O  O6  1  0.39266699  0.31454024  0.11721037  1
  O  O7  1  0.89266699  0.68545976  0.38278963  1
loop_
_geom_bond_atom_site_label_1
_geom_bond_atom_site_label_2
_geom_bond_distance
_geom_bond_site_symmetry_2
Cr0 O3 2.074691 1_556
Cr0 N5 2.090302 1_565
Cr0 N9 2.113558 1_565
Cr0 N1 2.188965 1_565
Cr0 O4 2.212236 1_555
Cr0 O1 2.564387 1_565
Cr1 O2 2.074691 1_555
Cr1 N4 2.090302 1_545
Cr1 N8 2.113558 1_545
Cr1 N0 2.188965 1_645
Cr1 O5 2.212236 1_655
Cr1 O0 2.564387 1_645
Cr2 O1 2.074691 1_554
Cr2 N7 2.090302 1_545
Cr2 N11 2.113558 1_545
Cr2 N3 2.188965 1_545
Cr2 O6 2.212236 1_555
Cr2 O3 2.564387 1_545
Cr3 O0 2.074691 1_555
Cr3 N6 2.090302 1_565
Cr3 N10 2.113558 1_565
Cr3 N2 2.188965 1_465
Cr3 O7 2.212236 1_455
Cr3 O2 2.564387 1_465
N0 P1 1.618730 1_565
N0 P4 1.629600 1_555
N1 P0 1.618730 1_645
N1 P5 1.629600 1_555
N2 P3 1.618730 1_545
N2 P6 1.629600 1_555
N3 P2 1.618730 1_465
N3 P7 1.629600 1_555
N4 P1 1.628515 1_565
N4 P8 1.638875 1_555
N5 P0 1.628515 1_545
N5 P9 1.638875 1_555
N6 P3 1.628515 1_545
N6 P10 1.638875 1_555
N7 P2 1.628515 1_565
N7 P11 1.638875 1_555
N8 P0 1.648284 1_655
N8 P8 1.658062 1_555
N8 Sr1 2.832295 1_655
N9 P1 1.648284 1_555
N9 P9 1.658062 1_555
N9 Sr0 2.832295 1_555
N10 P2 1.648284 1_455
N10 P10 1.658062 1_555
N10 Sr3 2.832295 1_455
N11 P3 1.648284 1_555
N11 P11 1.658062 1_555
N11 Sr2 2.832295 1_555
N12 P8 1.607143 1_555
N12 P5 1.618804 1_555
N12 Sr0 2.616416 1_555
N13 P9 1.607143 1_555
N13 P4 1.618804 1_555
N13 Sr1 2.616416 1_555
N14 P10 1.607143 1_555
N14 P7 1.618804 1_555
N14 Sr2 2.616416 1_555
N15 P11 1.607143 1_555
N15 P6 1.618804 1_555
N15 Sr3 2.616416 1_555
N16 P6 1.617010 1_555
N16 P1 1.618440 1_555
N16 Sr2 2.644240 1_555
N17 P7 1.617010 1_555
N17 P0 1.618440 1_554
N17 Sr3 2.644240 1_455
N18 P4 1.617010 1_555
N18 P3 1.618440 1_555
N18 Sr0 2.644240 1_555
N19 P5 1.617010 1_555
N19 P2 1.618440 1_556
N19 Sr1 2.644240 1_655
O0 P4 1.559494 1_555
O0 Sr0 2.581745 1_455
O1 P5 1.559494 1_555
O1 Sr1 2.581745 1_555
O2 P6 1.559494 1_555
O2 Sr2 2.581745 1_655
O3 P7 1.559494 1_555
O3 Sr3 2.581745 1_555
O4 P8 1.536149 1_555
O4 Sr1 2.656025 1_555
O4 Sr3 2.787163 1_556
O5 P9 1.536149 1_555
O5 Sr0 2.656025 1_455
O5 Sr2 2.787163 1_555
O6 P10 1.536149 1_555
O6 Sr3 2.656025 1_555
O6 Sr1 2.787163 1_554
O7 P11 1.536149 1_555
O7 Sr2 2.656025 1_655
O7 Sr0 2.787163 1_555
