# generated using pymatgen
data_Pb(AuF4)2
_symmetry_space_group_name_H-M   'P 1'
_cell_length_a   5.85885458
_cell_length_b   5.85885458
_cell_length_c   11.26307015
_cell_angle_alpha   90.00000000
_cell_angle_beta   90.00000000
_cell_angle_gamma   90.00000000
_symmetry_Int_Tables_number   1
_chemical_formula_structural   Pb(AuF4)2
_chemical_formula_sum   'Pb2 Au4 F16'
_cell_volume   386.61813983
_cell_formula_units_Z   2
loop_
 _symmetry_equiv_pos_site_id
 _symmetry_equiv_pos_as_xyz
  1  'x, y, z'
loop_
 _atom_site_type_symbol
 _atom_site_label
 _atom_site_symmetry_multiplicity
 _atom_site_fract_x
 _atom_site_fract_y
 _atom_site_fract_z
 _atom_site_occupancy
  Pb  Pb0  1  0.00000000  0.00000000  0.75000000  1
  Pb  Pb1  1  0.00000000  0.00000000  0.25000000  1
  Au  Au0  1  0.50000000  0.00000000  0.50000000  1
  Au  Au1  1  0.00000000  0.50000000  0.50000000  1
  Au  Au2  1  0.50000000  0.00000000  0.00000000  1
  Au  Au3  1  0.00000000  0.50000000  0.00000000  1
  F  F0  1  0.68371077  0.84925078  0.62034605  1
  F  F1  1  0.31628923  0.15074922  0.62034605  1
  F  F2  1  0.84925078  0.68371077  0.87965395  1
  F  F3  1  0.84925078  0.31628923  0.62034605  1
  F  F4  1  0.15074922  0.68371077  0.62034605  1
  F  F5  1  0.31628923  0.84925078  0.87965395  1
  F  F6  1  0.84925078  0.68371077  0.12034605  1
  F  F7  1  0.31628923  0.84925078  0.12034605  1
  F  F8  1  0.68371077  0.15074922  0.12034605  1
  F  F9  1  0.84925078  0.31628923  0.37965395  1
  F  F10  1  0.15074922  0.68371077  0.37965395  1
  F  F11  1  0.15074922  0.31628923  0.12034605  1
  F  F12  1  0.68371077  0.84925078  0.37965395  1
  F  F13  1  0.31628923  0.15074922  0.37965395  1
  F  F14  1  0.15074922  0.31628923  0.87965395  1
  F  F15  1  0.68371077  0.15074922  0.87965395  1
loop_
_geom_bond_atom_site_label_1
_geom_bond_atom_site_label_2
_geom_bond_distance
_geom_bond_site_symmetry_2
Au0 F0 1.943157 1_545
Au0 F1 1.943157 1_555
Au0 F12 1.943157 1_545
Au0 F13 1.943157 1_555
Au1 F4 1.943157 1_555
Au1 F3 1.943157 1_455
Au1 F10 1.943157 1_555
Au1 F9 1.943157 1_455
Au2 F8 1.943157 1_555
Au2 F7 1.943157 1_545
Au2 F15 1.943157 1_554
Au2 F5 1.943157 1_544
Au3 F6 1.943157 1_455
Au3 F11 1.943157 1_555
Au3 F2 1.943157 1_454
Au3 F14 1.943157 1_554
F0 Pb0 2.519227 1_665
F1 Pb0 2.519227 1_555
F2 Pb0 2.519227 1_665
F3 Pb0 2.519227 1_655
F4 Pb0 2.519227 1_565
F5 Pb0 2.519227 1_565
F6 Pb1 2.519227 1_665
F7 Pb1 2.519227 1_565
F8 Pb1 2.519227 1_655
F9 Pb1 2.519227 1_655
F10 Pb1 2.519227 1_565
F11 Pb1 2.519227 1_555
F12 Pb1 2.519227 1_665
F13 Pb1 2.519227 1_555
F14 Pb0 2.519227 1_555
F15 Pb0 2.519227 1_655
