# generated using pymatgen
data_BaH12(IrPb)2
_symmetry_space_group_name_H-M   'P 1'
_cell_length_a   5.22042291
_cell_length_b   5.22042218
_cell_length_c   8.63752760
_cell_angle_alpha   90.00000000
_cell_angle_beta   90.00000000
_cell_angle_gamma   119.99999223
_symmetry_Int_Tables_number   1
_chemical_formula_structural   BaH12(IrPb)2
_chemical_formula_sum   'Ba1 H12 Ir2 Pb2'
_cell_volume   203.85972168
_cell_formula_units_Z   1
loop_
 _symmetry_equiv_pos_site_id
 _symmetry_equiv_pos_as_xyz
  1  'x, y, z'
loop_
 _atom_site_type_symbol
 _atom_site_label
 _atom_site_symmetry_multiplicity
 _atom_site_fract_x
 _atom_site_fract_y
 _atom_site_fract_z
 _atom_site_occupancy
  Ba  Ba0  1  0.00000000  0.00000000  0.00000000  1
  H  H0  1  0.17211767  0.82788233  0.34890736  1
  H  H1  1  0.65576365  0.82788233  0.34890736  1
  H  H2  1  0.17211767  0.34423635  0.34890736  1
  H  H3  1  0.82788233  0.17211767  0.65109264  1
  H  H4  1  0.34423635  0.17211767  0.65109264  1
  H  H5  1  0.82788233  0.65576365  0.65109264  1
  H  H6  1  0.52267819  0.04535639  0.86815373  1
  H  H7  1  0.52267819  0.47732181  0.86815373  1
  H  H8  1  0.95464361  0.47732181  0.86815373  1
  H  H9  1  0.47732181  0.95464361  0.13184627  1
  H  H10  1  0.47732181  0.52267819  0.13184627  1
  H  H11  1  0.04535639  0.52267819  0.13184627  1
  Ir  Ir0  1  0.66666700  0.33333300  0.74866807  1
  Ir  Ir1  1  0.33333300  0.66666700  0.25133193  1
  Pb  Pb0  1  0.66666700  0.33333300  0.37088523  1
  Pb  Pb1  1  0.33333300  0.66666700  0.62911477  1
loop_
_geom_bond_atom_site_label_1
_geom_bond_atom_site_label_2
_geom_bond_distance
_geom_bond_site_symmetry_2
Ba0 H11 2.855201 1_545
Ba0 H8 2.855201 1_454
Ba0 H11 2.855201 1_555
Ba0 H8 2.855201 1_444
Ba0 H9 2.855202 1_545
Ba0 H6 2.855202 1_454
Ba0 H9 2.855202 1_445
Ba0 H6 2.855202 1_554
Ba0 H10 2.855202 1_555
Ba0 H7 2.855202 1_444
Ba0 H7 2.855202 1_554
Ba0 H10 2.855202 1_445
H0 Ir1 1.683824 1_555
H1 Ir1 1.683824 1_555
H2 Ir1 1.683824 1_555
H3 Ir0 1.683824 1_555
H4 Ir0 1.683824 1_555
H5 Ir0 1.683824 1_555
H6 Ir0 1.661390 1_555
H7 Ir0 1.661394 1_555
H8 Ir0 1.661390 1_555
H9 Ir1 1.661390 1_555
H10 Ir1 1.661394 1_555
H11 Ir1 1.661390 1_555
