# generated using pymatgen
data_Na2GaCuPt2
_symmetry_space_group_name_H-M   'P 1'
_cell_length_a   5.50350418
_cell_length_b   5.28483319
_cell_length_c   5.07663513
_cell_angle_alpha   59.60767700
_cell_angle_beta   57.17721778
_cell_angle_gamma   58.62154037
_symmetry_Int_Tables_number   1
_chemical_formula_structural   Na2GaCuPt2
_chemical_formula_sum   'Na2 Ga1 Cu1 Pt2'
_cell_volume   100.65400203
_cell_formula_units_Z   1
loop_
 _symmetry_equiv_pos_site_id
 _symmetry_equiv_pos_as_xyz
  1  'x, y, z'
loop_
 _atom_site_type_symbol
 _atom_site_label
 _atom_site_symmetry_multiplicity
 _atom_site_fract_x
 _atom_site_fract_y
 _atom_site_fract_z
 _atom_site_occupancy
  Na  Na0  1  0.50620907  0.49800330  0.48957657  1
  Na  Na1  1  0.74379093  0.75199670  0.76042343  1
  Ga  Ga0  1  0.12500000  0.12500000  0.62500000  1
  Cu  Cu0  1  0.12500000  0.62500000  0.12500000  1
  Pt  Pt0  1  0.12500000  0.12500000  0.12500000  1
  Pt  Pt1  1  0.62500000  0.12500000  0.12500000  1
loop_
_geom_bond_atom_site_label_1
_geom_bond_atom_site_label_2
_geom_bond_distance
_geom_bond_site_symmetry_2
Na0 Na1 2.960876 1_554
Na0 Pt1 2.962539 1_555
Na0 Pt0 2.962544 1_655
Na0 Pt0 3.037947 1_556
Na0 Pt1 3.037952 1_556
Na0 Pt0 3.093776 1_565
Na0 Pt1 3.093782 1_565
Na0 Na1 3.199900 1_545
Na0 Na1 3.323582 1_455
Na0 Na1 3.323600 1_555
Na1 Pt1 2.962539 1_566
Na1 Pt0 2.962544 1_566
Na1 Pt0 3.037947 1_665
Na1 Pt1 3.037952 1_565
Na1 Pt0 3.093776 1_656
Na1 Pt1 3.093782 1_556
Ga0 Pt0 2.538318 1_556
Ga0 Pt0 2.538318 1_555
Ga0 Pt1 2.538318 1_555
Ga0 Pt1 2.538318 1_456
Ga0 Na1 3.058738 1_455
Ga0 Na0 3.058738 1_545
Ga0 Na0 3.183073 1_555
Ga0 Na1 3.183073 1_445
Ga0 Na1 3.183081 1_545
Ga0 Na0 3.183081 1_455
Cu0 Ga0 2.576575 1_555
Cu0 Ga0 2.576575 1_564
Cu0 Pt1 2.642416 1_555
Cu0 Pt1 2.642416 1_465
Cu0 Pt0 2.642417 1_565
Cu0 Pt0 2.642417 1_555
Cu0 Na1 2.940307 1_455
Cu0 Na0 2.940307 1_554
Cu0 Na0 3.124709 1_555
Cu0 Na1 3.124709 1_454
Cu0 Na1 3.124719 1_554
Cu0 Na0 3.124719 1_455
Pt0 Pt1 2.751752 1_455
Pt0 Pt1 2.751752 1_555
