# generated using pymatgen
data_V3GaAuN
_symmetry_space_group_name_H-M   'P 1'
_cell_length_a   6.66969171
_cell_length_b   6.66969171
_cell_length_c   6.66969171
_cell_angle_alpha   90.00000000
_cell_angle_beta   90.00000000
_cell_angle_gamma   90.00000000
_symmetry_Int_Tables_number   1
_chemical_formula_structural   V3GaAuN
_chemical_formula_sum   'V12 Ga4 Au4 N4'
_cell_volume   296.69981878
_cell_formula_units_Z   4
loop_
 _symmetry_equiv_pos_site_id
 _symmetry_equiv_pos_as_xyz
  1  'x, y, z'
loop_
 _atom_site_type_symbol
 _atom_site_label
 _atom_site_symmetry_multiplicity
 _atom_site_fract_x
 _atom_site_fract_y
 _atom_site_fract_z
 _atom_site_occupancy
  V  V0  1  0.78141242  0.96106468  0.37749671  1
  V  V1  1  0.71858758  0.03893532  0.87749671  1
  V  V2  1  0.21858758  0.46106468  0.12250329  1
  V  V3  1  0.28141242  0.53893532  0.62250329  1
  V  V4  1  0.96106468  0.37749671  0.78141242  1
  V  V5  1  0.03893532  0.87749671  0.71858758  1
  V  V6  1  0.46106468  0.12250329  0.21858758  1
  V  V7  1  0.53893532  0.62250329  0.28141242  1
  V  V8  1  0.37749671  0.78141242  0.96106468  1
  V  V9  1  0.87749671  0.71858758  0.03893532  1
  V  V10  1  0.12250329  0.21858758  0.46106468  1
  V  V11  1  0.62250329  0.28141242  0.53893532  1
  Ga  Ga0  1  0.57029643  0.42970357  0.92970357  1
  Ga  Ga1  1  0.42970357  0.92970357  0.57029643  1
  Ga  Ga2  1  0.92970357  0.57029643  0.42970357  1
  Ga  Ga3  1  0.07029643  0.07029643  0.07029643  1
  Au  Au0  1  0.17786036  0.82213964  0.32213964  1
  Au  Au1  1  0.32213964  0.17786036  0.82213964  1
  Au  Au2  1  0.82213964  0.32213964  0.17786036  1
  Au  Au3  1  0.67786036  0.67786036  0.67786036  1
  N  N0  1  0.87565946  0.12434054  0.62434054  1
  N  N1  1  0.62434054  0.87565946  0.12434054  1
  N  N2  1  0.12434054  0.62434054  0.87565946  1
  N  N3  1  0.37565946  0.37565946  0.37565946  1
loop_
_geom_bond_atom_site_label_1
_geom_bond_atom_site_label_2
_geom_bond_distance
_geom_bond_site_symmetry_2
Au0 Ga3 2.464871 1_565
Au0 Ga2 2.464871 1_455
Au0 Ga1 2.464871 1_555
Au0 V8 2.765217 1_554
Au0 V2 2.765217 1_555
Au0 V7 2.765217 1_555
Au0 V5 2.826057 1_555
Au0 V0 2.826057 1_455
Au0 V10 2.826057 1_565
Au0 V9 2.838704 1_455
Au0 V3 2.838704 1_555
Au0 V6 2.838704 1_565
Au1 Ga3 2.464871 1_556
Au1 Ga1 2.464871 1_545
Au1 Ga0 2.464871 1_555
Au1 V4 2.765217 1_455
Au1 V10 2.765217 1_555
Au1 V3 2.765217 1_555
Au1 V1 2.826057 1_555
Au1 V8 2.826057 1_545
Au1 V6 2.826057 1_556
Au1 V5 2.838704 1_545
Au1 V11 2.838704 1_555
Au1 V2 2.838704 1_556
Au2 Ga3 2.464871 1_655
Au2 Ga0 2.464871 1_554
Au2 Ga2 2.464871 1_555
Au2 V0 2.765217 1_545
Au2 V6 2.765217 1_555
Au2 V11 2.765217 1_555
Au2 V9 2.826057 1_555
Au2 V4 2.826057 1_554
Au2 V2 2.826057 1_655
Au2 V1 2.838704 1_554
Au2 V7 2.838704 1_555
Au2 V10 2.838704 1_655
Au3 Ga1 2.464871 1_555
Au3 Ga2 2.464871 1_555
Au3 Ga0 2.464871 1_555
Au3 V1 2.765217 1_565
Au3 V9 2.765217 1_556
Au3 V5 2.765217 1_655
Au3 V11 2.826057 1_555
Au3 V7 2.826057 1_555
Au3 V3 2.826057 1_555
Au3 V4 2.838704 1_555
Au3 V8 2.838704 1_555
Au3 V0 2.838704 1_555
N0 V11 2.067106 1_555
N0 V1 2.067106 1_555
N0 V4 2.067106 1_555
N0 V10 2.071617 1_655
N0 V0 2.071617 1_545
N0 V5 2.071617 1_645
N1 V9 2.067106 1_555
N1 V7 2.067106 1_555
N1 V0 2.067106 1_555
N1 V6 2.071617 1_565
N1 V8 2.071617 1_554
N1 V1 2.071617 1_564
N2 V5 2.067106 1_555
N2 V3 2.067106 1_555
N2 V8 2.067106 1_555
N2 V2 2.071617 1_556
N2 V4 2.071617 1_455
N2 V9 2.071617 1_456
N3 V2 2.067106 1_555
N3 V6 2.067106 1_555
N3 V10 2.067106 1_555
N3 V3 2.071617 1_555
N3 V11 2.071617 1_555
N3 V7 2.071617 1_555
