# generated using pymatgen
data_VCuIr3S8
_symmetry_space_group_name_H-M   'P 1'
_cell_length_a   6.66537003
_cell_length_b   6.66537045
_cell_length_c   6.66536981
_cell_angle_alpha   63.75306092
_cell_angle_beta   63.75306101
_cell_angle_gamma   63.75305425
_symmetry_Int_Tables_number   1
_chemical_formula_structural   VCuIr3S8
_chemical_formula_sum   'V1 Cu1 Ir3 S8'
_cell_volume   226.73339676
_cell_formula_units_Z   1
loop_
 _symmetry_equiv_pos_site_id
 _symmetry_equiv_pos_as_xyz
  1  'x, y, z'
loop_
 _atom_site_type_symbol
 _atom_site_label
 _atom_site_symmetry_multiplicity
 _atom_site_fract_x
 _atom_site_fract_y
 _atom_site_fract_z
 _atom_site_occupancy
  V  V0  1  0.40511193  0.40511193  0.40511193  1
  Cu  Cu0  1  0.98773843  0.98773843  0.98773843  1
  Ir  Ir0  1  0.86131452  0.37354900  0.37354900  1
  Ir  Ir1  1  0.37354900  0.86131452  0.37354900  1
  Ir  Ir2  1  0.37354900  0.37354900  0.86131452  1
  S  S0  1  0.12971993  0.12971993  0.12971993  1
  S  S1  1  0.58842097  0.14152490  0.14152490  1
  S  S2  1  0.14152490  0.58842097  0.14152490  1
  S  S3  1  0.14152490  0.14152490  0.58842097  1
  S  S4  1  0.61781058  0.61781058  0.61781058  1
  S  S5  1  0.12248494  0.62862545  0.62862545  1
  S  S6  1  0.62862545  0.12248494  0.62862545  1
  S  S7  1  0.62862545  0.62862545  0.12248494  1
loop_
_geom_bond_atom_site_label_1
_geom_bond_atom_site_label_2
_geom_bond_distance
_geom_bond_site_symmetry_2
Cu0 S0 2.250156 1_666
Cu0 S1 2.299715 1_566
Cu0 S3 2.299716 1_665
Cu0 S2 2.299716 1_656
Ir0 S7 2.354422 1_555
Ir0 S6 2.354423 1_555
Ir0 S4 2.367638 1_555
Ir0 S0 2.382453 1_655
Ir0 S3 2.404857 1_655
Ir0 S2 2.404858 1_655
Ir1 S7 2.354423 1_555
Ir1 S5 2.354423 1_555
Ir1 S4 2.367638 1_555
Ir1 S0 2.382453 1_565
Ir1 S3 2.404857 1_565
Ir1 S1 2.404858 1_565
Ir2 S5 2.354422 1_555
Ir2 S6 2.354423 1_555
Ir2 S4 2.367638 1_555
Ir2 S0 2.382453 1_556
Ir2 S1 2.404857 1_556
Ir2 S2 2.404857 1_556
S1 V0 2.568875 1_555
S2 V0 2.568875 1_555
S3 V0 2.568876 1_555
S5 V0 2.232995 1_555
S6 V0 2.232995 1_555
S7 V0 2.232996 1_555
