# generated using pymatgen
data_NiAg2SnO4
_symmetry_space_group_name_H-M   'P 1'
_cell_length_a   5.39436404
_cell_length_b   6.21237963
_cell_length_c   7.23718347
_cell_angle_alpha   64.53727317
_cell_angle_beta   104.38904455
_cell_angle_gamma   90.00277097
_symmetry_Int_Tables_number   1
_chemical_formula_structural   NiAg2SnO4
_chemical_formula_sum   'Ni2 Ag4 Sn2 O8'
_cell_volume   210.51679675
_cell_formula_units_Z   2
loop_
 _symmetry_equiv_pos_site_id
 _symmetry_equiv_pos_as_xyz
  1  'x, y, z'
loop_
 _atom_site_type_symbol
 _atom_site_label
 _atom_site_symmetry_multiplicity
 _atom_site_fract_x
 _atom_site_fract_y
 _atom_site_fract_z
 _atom_site_occupancy
  Ni  Ni0  1  0.49996272  0.25338653  0.49988816  1
  Ni  Ni1  1  0.00002472  0.49662594  0.50008450  1
  Ag  Ag0  1  0.99701006  0.00380396  0.99641779  1
  Ag  Ag1  1  0.49704372  0.24974716  0.99642454  1
  Ag  Ag2  1  0.00301034  0.50030041  0.00358417  1
  Ag  Ag3  1  0.50295836  0.74621921  0.00356789  1
  Sn  Sn0  1  0.50000287  0.73891729  0.50000610  1
  Sn  Sn1  1  0.00002213  0.01105509  0.50001676  1
  O  O0  1  0.89086268  0.67124889  0.66764931  1
  O  O1  1  0.39082563  0.91071354  0.66764625  1
  O  O2  1  0.88617585  0.16877833  0.66579827  1
  O  O3  1  0.38625297  0.41509395  0.66579544  1
  O  O4  1  0.10920256  0.83925144  0.33236754  1
  O  O5  1  0.60918802  0.07869657  0.33237900  1
  O  O6  1  0.11371000  0.33492003  0.33418628  1
  O  O7  1  0.61375135  0.58124165  0.33418800  1
loop_
_geom_bond_atom_site_label_1
_geom_bond_atom_site_label_2
_geom_bond_distance
_geom_bond_site_symmetry_2
Ni0 O7 2.056406 1_555
Ni0 O3 2.056792 1_555
Ni0 O6 2.066873 1_555
Ni0 O2 2.067026 1_555
Ni0 O5 2.116807 1_555
Ni0 O1 2.117842 1_545
Ni1 O2 2.056539 1_455
Ni1 O6 2.056670 1_555
Ni1 O3 2.066773 1_555
Ni1 O7 2.067286 1_455
Ni1 O0 2.116695 1_455
Ni1 O4 2.117648 1_555
Ag0 O2 2.076913 1_555
Ag0 O4 2.110516 1_646
Ag1 O3 2.076970 1_555
Ag1 O5 2.110492 1_556
Ag2 O6 2.076799 1_555
Ag2 O0 2.110364 1_454
Ag3 O7 2.076916 1_555
Ag3 O1 2.110342 1_554
O0 Sn0 2.093893 1_555
O0 Sn1 2.104217 1_665
O1 Sn1 2.093646 1_565
O1 Sn0 2.103907 1_555
O2 Sn1 2.038096 1_655
O3 Sn0 2.038009 1_555
O4 Sn0 2.093642 1_555
O4 Sn1 2.104005 1_565
O5 Sn1 2.093772 1_655
O5 Sn0 2.104141 1_545
O6 Sn1 2.038120 1_555
O7 Sn0 2.037874 1_555
