# generated using pymatgen
data_AlCr(SiTe3)2
_symmetry_space_group_name_H-M   'P 1'
_cell_length_a   8.33690224
_cell_length_b   8.33831832
_cell_length_c   8.33671817
_cell_angle_alpha   48.55193603
_cell_angle_beta   48.55667412
_cell_angle_gamma   48.55068146
_symmetry_Int_Tables_number   1
_chemical_formula_structural   AlCr(SiTe3)2
_chemical_formula_sum   'Al1 Cr1 Si2 Te6'
_cell_volume   298.67208963
_cell_formula_units_Z   1
loop_
 _symmetry_equiv_pos_site_id
 _symmetry_equiv_pos_as_xyz
  1  'x, y, z'
loop_
 _atom_site_type_symbol
 _atom_site_label
 _atom_site_symmetry_multiplicity
 _atom_site_fract_x
 _atom_site_fract_y
 _atom_site_fract_z
 _atom_site_occupancy
  Al  Al0  1  0.66668762  0.66667251  0.66665023  1
  Cr  Cr0  1  0.33341311  0.33346870  0.33336527  1
  Si  Si0  1  0.05182435  0.05171452  0.05185963  1
  Si  Si1  1  0.94821276  0.94831180  0.94821194  1
  Te  Te0  1  0.43439827  0.72120384  0.08309221  1
  Te  Te1  1  0.08309450  0.43425202  0.72130759  1
  Te  Te2  1  0.72128984  0.08297642  0.43443924  1
  Te  Te3  1  0.27461133  0.92480704  0.56175942  1
  Te  Te4  1  0.92474994  0.56187361  0.27455056  1
  Te  Te5  1  0.56171829  0.27471955  0.92476290  1
loop_
_geom_bond_atom_site_label_1
_geom_bond_atom_site_label_2
_geom_bond_distance
_geom_bond_site_symmetry_2
Al0 Te1 2.834236 1_655
Al0 Te2 2.834364 1_565
Al0 Te0 2.834474 1_556
Al0 Te3 2.838900 1_555
Al0 Te4 2.839112 1_555
Al0 Te5 2.839164 1_555
Cr0 Te5 2.803273 1_554
Cr0 Te4 2.803535 1_455
Cr0 Te0 2.804039 1_555
Cr0 Te1 2.804103 1_555
Cr0 Te3 2.804197 1_545
Cr0 Te2 2.804354 1_555
Si0 Si1 2.279595 1_444
Si0 Te0 2.519497 1_545
Si0 Te1 2.519778 1_554
Si0 Te2 2.519786 1_455
Si1 Te4 2.519334 1_556
Si1 Te5 2.519372 1_565
Si1 Te3 2.519404 1_655
