# generated using pymatgen
data_PPdCl9
_symmetry_space_group_name_H-M   'P 1'
_cell_length_a   6.89268758
_cell_length_b   9.01013996
_cell_length_c   9.47392579
_cell_angle_alpha   100.98735098
_cell_angle_beta   95.53791412
_cell_angle_gamma   95.47399112
_symmetry_Int_Tables_number   1
_chemical_formula_structural   PPdCl9
_chemical_formula_sum   'P2 Pd2 Cl18'
_cell_volume   570.97679825
_cell_formula_units_Z   2
loop_
 _symmetry_equiv_pos_site_id
 _symmetry_equiv_pos_as_xyz
  1  'x, y, z'
loop_
 _atom_site_type_symbol
 _atom_site_label
 _atom_site_symmetry_multiplicity
 _atom_site_fract_x
 _atom_site_fract_y
 _atom_site_fract_z
 _atom_site_occupancy
  P  P0  1  0.55060316  0.18727484  0.77991851  1
  P  P1  1  0.44939684  0.81272516  0.22008149  1
  Pd  Pd0  1  0.89312142  0.37504266  0.33728757  1
  Pd  Pd1  1  0.10687858  0.62495734  0.66271343  1
  Cl  Cl0  1  0.65999082  0.89581819  0.12463441  1
  Cl  Cl1  1  0.34000918  0.10418181  0.87536559  1
  Cl  Cl2  1  0.21350741  0.48345667  0.45024212  1
  Cl  Cl3  1  0.78649259  0.51654333  0.54975788  1
  Cl  Cl4  1  0.08096613  0.83558022  0.55561599  1
  Cl  Cl5  1  0.91903387  0.16441978  0.44438401  1
  Cl  Cl6  1  0.98705784  0.75572841  0.86169221  1
  Cl  Cl7  1  0.01294216  0.24427159  0.13830779  1
  Cl  Cl8  1  0.13095580  0.42072597  0.77984118  1
  Cl  Cl9  1  0.86904420  0.57927403  0.22015882  1
  Cl  Cl10  1  0.42479511  0.71436517  0.75275799  1
  Cl  Cl11  1  0.57520489  0.28563483  0.24724201  1
  Cl  Cl12  1  0.44862922  0.19821166  0.58513521  1
  Cl  Cl13  1  0.55137078  0.80178834  0.41486479  1
  Cl  Cl14  1  0.75474336  0.05127074  0.77042989  1
  Cl  Cl15  1  0.24525664  0.94872926  0.22957011  1
  Cl  Cl16  1  0.65961508  0.38546230  0.88981870  1
  Cl  Cl17  1  0.34038492  0.61453770  0.11018130  1
loop_
_geom_bond_atom_site_label_1
_geom_bond_atom_site_label_2
_geom_bond_distance
_geom_bond_site_symmetry_2
Cl0 P1 1.946610 1_555
Cl1 P0 1.946610 1_555
Cl2 Pd1 2.388223 1_555
Cl2 Pd0 2.389540 1_455
Cl3 Pd0 2.388216 1_555
Cl3 Pd1 2.389542 1_655
Cl4 Pd1 2.329478 1_555
Cl5 Pd0 2.329473 1_555
Cl6 Pd1 2.294236 1_655
Cl7 Pd0 2.294243 1_455
Cl8 Pd1 2.333694 1_555
Cl9 Pd0 2.333700 1_555
Cl10 Pd1 2.284500 1_555
Cl11 Pd0 2.284502 1_555
Cl12 P0 1.934242 1_555
Cl13 P1 1.934242 1_555
Cl14 P0 1.949609 1_555
Cl15 P1 1.949609 1_555
Cl16 P0 1.929161 1_555
Cl17 P1 1.929161 1_555
