# generated using pymatgen
data_Sr(TcP)2
_symmetry_space_group_name_H-M   'P 1'
_cell_length_a   6.31578986
_cell_length_b   6.31579016
_cell_length_c   6.31579114
_cell_angle_alpha   142.24908296
_cell_angle_beta   142.24908479
_cell_angle_gamma   54.45377784
_symmetry_Int_Tables_number   1
_chemical_formula_structural   Sr(TcP)2
_chemical_formula_sum   'Sr1 Tc2 P2'
_cell_volume   93.78310458
_cell_formula_units_Z   1
loop_
 _symmetry_equiv_pos_site_id
 _symmetry_equiv_pos_as_xyz
  1  'x, y, z'
loop_
 _atom_site_type_symbol
 _atom_site_label
 _atom_site_symmetry_multiplicity
 _atom_site_fract_x
 _atom_site_fract_y
 _atom_site_fract_z
 _atom_site_occupancy
  Sr  Sr0  1  0.00000000  0.00000000  0.00000000  1
  Tc  Tc0  1  0.25000000  0.75000000  0.50000000  1
  Tc  Tc1  1  0.75000000  0.25000000  0.50000000  1
  P  P0  1  0.64800958  0.64800958  0.00000000  1
  P  P1  1  0.35199042  0.35199042  1.00000000  1
loop_
_geom_bond_atom_site_label_1
_geom_bond_atom_site_label_2
_geom_bond_distance
_geom_bond_site_symmetry_2
Sr0 Tc0 3.472708 1_444
Sr0 Tc1 3.472708 1_555
Sr0 Tc1 3.472708 1_444
Sr0 Tc0 3.472708 1_555
Sr0 Tc1 3.472709 1_455
Sr0 Tc0 3.472709 1_544
Sr0 Tc0 3.472709 1_545
Sr0 Tc1 3.472709 1_454
P0 Tc0 2.342459 1_655
P0 Tc1 2.342459 1_565
P0 Tc0 2.342459 1_554
P0 Tc1 2.342459 1_554
P0 Sr0 3.333668 1_554
P0 Sr0 3.333669 1_565
P0 Sr0 3.333669 1_655
P0 Sr0 3.333670 1_666
P1 Tc1 2.342459 1_455
P1 Tc0 2.342459 1_545
P1 Tc1 2.342459 1_556
P1 Tc0 2.342459 1_556
P1 Sr0 3.333668 1_667
P1 Sr0 3.333669 1_656
P1 Sr0 3.333669 1_566
P1 Sr0 3.333670 1_555
