# generated using pymatgen
data_Sc12AlNi4Ru
_symmetry_space_group_name_H-M   'P 1'
_cell_length_a   7.70812568
_cell_length_b   7.70812689
_cell_length_c   7.70812509
_cell_angle_alpha   111.04022113
_cell_angle_beta   110.80954322
_cell_angle_gamma   106.60153673
_symmetry_Int_Tables_number   1
_chemical_formula_structural   Sc12AlNi4Ru
_chemical_formula_sum   'Sc12 Al1 Ni4 Ru1'
_cell_volume   351.89249021
_cell_formula_units_Z   1
loop_
 _symmetry_equiv_pos_site_id
 _symmetry_equiv_pos_as_xyz
  1  'x, y, z'
loop_
 _atom_site_type_symbol
 _atom_site_label
 _atom_site_symmetry_multiplicity
 _atom_site_fract_x
 _atom_site_fract_y
 _atom_site_fract_z
 _atom_site_occupancy
  Sc  Sc0  1  0.42237635  0.22886987  0.19350748  1
  Sc  Sc1  1  0.57762365  0.77113013  0.80649252  1
  Sc  Sc2  1  0.03536239  0.22886987  0.80649252  1
  Sc  Sc3  1  0.96463761  0.77113013  0.19350748  1
  Sc  Sc4  1  0.18195384  0.27786569  0.45981853  1
  Sc  Sc5  1  0.81804616  0.72213431  0.54018147  1
  Sc  Sc6  1  0.18195384  0.72213431  0.90408815  1
  Sc  Sc7  1  0.81804616  0.27786569  0.09591185  1
  Sc  Sc8  1  0.32296042  0.62085816  0.29789774  1
  Sc  Sc9  1  0.67703958  0.37914184  0.70210226  1
  Sc  Sc10  1  0.32296042  0.02506267  0.70210226  1
  Sc  Sc11  1  0.67703958  0.97493733  0.29789774  1
  Al  Al0  1  0.50000000  0.50000000  0.00000000  1
  Ni  Ni0  1  0.35422867  0.00000000  0.35422867  1
  Ni  Ni1  1  0.64577133  1.00000000  0.64577133  1
  Ni  Ni2  1  0.12379420  0.62379420  0.50000000  1
  Ni  Ni3  1  0.87620580  0.37620580  0.50000000  1
  Ru  Ru0  1  0.00000000  0.00000000  0.00000000  1
loop_
_geom_bond_atom_site_label_1
_geom_bond_atom_site_label_2
_geom_bond_distance
_geom_bond_site_symmetry_2
Al0 Sc3 3.018015 1_555
Al0 Sc2 3.018015 1_554
Al0 Sc1 3.018017 1_554
Al0 Sc0 3.018017 1_555
Al0 Sc8 3.069153 1_555
Al0 Sc9 3.069153 1_554
Al0 Sc11 3.069153 1_555
Al0 Sc10 3.069153 1_554
Al0 Sc7 3.392372 1_555
Al0 Sc6 3.392372 1_554
Al0 Sc5 3.392378 1_555
Al0 Sc4 3.392378 1_554
Ni0 Sc0 2.534782 1_555
Ni0 Sc3 2.534783 1_445
Ni0 Ni1 2.551863 1_545
Ni0 Sc10 2.720192 1_555
Ni0 Sc11 2.720193 1_545
Ni0 Sc9 2.720193 1_555
Ni0 Sc8 2.720193 1_545
Ni0 Sc4 2.855634 1_555
Ni0 Sc6 2.855635 1_544
Ni0 Ru0 3.100551 1_555
Ni1 Sc1 2.534782 1_555
Ni1 Sc2 2.534783 1_665
Ni1 Sc11 2.720192 1_555
Ni1 Sc10 2.720193 1_565
Ni1 Sc8 2.720193 1_555
Ni1 Sc9 2.720193 1_565
Ni1 Sc5 2.855634 1_555
Ni1 Sc7 2.855635 1_566
Ni1 Ru0 3.100551 1_666
Ni2 Ni3 2.281026 1_455
Ni2 Sc8 2.545190 1_555
Ni2 Sc10 2.545191 1_565
Ni2 Sc4 2.756018 1_555
Ni2 Sc6 2.756019 1_555
Ni2 Sc7 2.756019 1_455
Ni2 Sc5 2.756022 1_455
Ni2 Sc3 3.006579 1_455
Ni2 Sc1 3.006585 1_555
Ni3 Sc9 2.545190 1_555
Ni3 Sc11 2.545191 1_545
Ni3 Sc5 2.756018 1_555
Ni3 Sc7 2.756019 1_555
Ni3 Sc6 2.756019 1_655
Ni3 Sc4 2.756022 1_655
Ni3 Sc2 3.006579 1_655
Ni3 Sc0 3.006585 1_555
Ru0 Sc0 2.704603 1_555
Ru0 Sc1 2.704603 1_444
Ru0 Sc2 2.704610 1_554
Ru0 Sc3 2.704610 1_445
Ru0 Sc4 2.901258 1_555
Ru0 Sc5 2.901258 1_444
Ru0 Sc7 2.901264 1_455
Ru0 Sc6 2.901264 1_544
