# generated using pymatgen
data_Hf16NbTc3Ni4
_symmetry_space_group_name_H-M   'P 1'
_cell_length_a   8.62178201
_cell_length_b   8.62178242
_cell_length_c   8.62178267
_cell_angle_alpha   60.12561113
_cell_angle_beta   60.12561315
_cell_angle_gamma   60.12561047
_symmetry_Int_Tables_number   1
_chemical_formula_structural   Hf16NbTc3Ni4
_chemical_formula_sum   'Hf16 Nb1 Tc3 Ni4'
_cell_volume   454.47528600
_cell_formula_units_Z   1
loop_
 _symmetry_equiv_pos_site_id
 _symmetry_equiv_pos_as_xyz
  1  'x, y, z'
loop_
 _atom_site_type_symbol
 _atom_site_label
 _atom_site_symmetry_multiplicity
 _atom_site_fract_x
 _atom_site_fract_y
 _atom_site_fract_z
 _atom_site_occupancy
  Hf  Hf0  1  0.69523403  0.10133376  0.10133376  1
  Hf  Hf1  1  0.10133376  0.69523403  0.10133376  1
  Hf  Hf2  1  0.10133376  0.10133376  0.69523403  1
  Hf  Hf3  1  0.10223311  0.10223311  0.10223311  1
  Hf  Hf4  1  0.31501733  0.31501733  0.68938728  1
  Hf  Hf5  1  0.68525400  0.68525400  0.31502376  1
  Hf  Hf6  1  0.31501733  0.68938728  0.31501733  1
  Hf  Hf7  1  0.68525400  0.31502376  0.68525400  1
  Hf  Hf8  1  0.68938728  0.31501733  0.31501733  1
  Hf  Hf9  1  0.31502376  0.68525400  0.68525400  1
  Hf  Hf10  1  0.95377163  0.95377163  0.54613586  1
  Hf  Hf11  1  0.55003048  0.55003048  0.94997261  1
  Hf  Hf12  1  0.95377163  0.54613586  0.95377163  1
  Hf  Hf13  1  0.55003048  0.94997261  0.55003048  1
  Hf  Hf14  1  0.54613586  0.95377163  0.95377163  1
  Hf  Hf15  1  0.94997261  0.55003048  0.55003048  1
  Nb  Nb0  1  0.32802584  0.32802584  0.32802584  1
  Tc  Tc0  1  0.99538360  0.33374790  0.33374790  1
  Tc  Tc1  1  0.33374790  0.99538360  0.33374790  1
  Tc  Tc2  1  0.33374790  0.33374790  0.99538360  1
  Ni  Ni0  1  0.32573792  0.89159762  0.89159762  1
  Ni  Ni1  1  0.89159762  0.32573792  0.89159762  1
  Ni  Ni2  1  0.89159762  0.89159762  0.32573792  1
  Ni  Ni3  1  0.89136052  0.89136052  0.89136052  1
loop_
_geom_bond_atom_site_label_1
_geom_bond_atom_site_label_2
_geom_bond_distance
_geom_bond_site_symmetry_2
Hf0 Ni3 2.565103 1_544
Hf0 Ni2 2.570501 1_545
Hf0 Ni1 2.570501 1_554
Hf0 Nb0 3.023293 1_555
Hf0 Tc2 3.058509 1_554
Hf0 Tc1 3.058509 1_545
Hf0 Hf5 3.136283 1_545
Hf0 Hf7 3.136283 1_554
Hf0 Hf8 3.160251 1_555
Hf1 Ni3 2.565102 1_454
Hf1 Ni0 2.570501 1_554
Hf1 Ni2 2.570501 1_455
Hf1 Nb0 3.023293 1_555
Hf1 Tc0 3.058509 1_455
Hf1 Tc2 3.058509 1_554
Hf1 Hf5 3.136283 1_455
Hf1 Hf9 3.136283 1_554
Hf1 Hf6 3.160251 1_555
Hf2 Ni3 2.565102 1_445
Hf2 Ni0 2.570500 1_545
Hf2 Ni1 2.570501 1_455
Hf2 Nb0 3.023293 1_555
Hf2 Tc0 3.058509 1_455
Hf2 Tc1 3.058509 1_545
Hf2 Hf7 3.136283 1_455
Hf2 Hf9 3.136283 1_545
Hf2 Hf4 3.160251 1_555
Hf3 Ni1 2.573417 1_454
Hf3 Ni2 2.573417 1_445
Hf3 Ni0 2.573417 1_544
Hf3 Tc1 3.020381 1_545
Hf3 Tc2 3.020381 1_554
Hf3 Tc0 3.020381 1_455
Hf3 Hf6 3.121448 1_545
Hf3 Hf8 3.121448 1_455
Hf3 Hf4 3.121448 1_554
Hf4 Tc2 2.808430 1_555
Hf4 Nb0 3.008042 1_555
Hf4 Ni1 3.139930 1_455
Hf4 Ni0 3.139930 1_545
Hf4 Hf7 3.174527 1_555
Hf4 Hf9 3.174527 1_555
Hf4 Hf6 3.233863 1_555
Hf4 Hf8 3.233863 1_555
Hf5 Tc1 2.868832 1_555
Hf5 Tc0 2.868832 1_555
Hf5 Ni2 3.133527 1_555
Hf5 Ni3 3.141843 1_554
Hf5 Hf6 3.174527 1_555
Hf5 Hf8 3.174527 1_555
Hf5 Hf7 3.198103 1_555
Hf5 Hf9 3.198103 1_555
Hf6 Tc1 2.808430 1_555
Hf6 Nb0 3.008042 1_555
Hf6 Ni2 3.139929 1_455
Hf6 Ni0 3.139930 1_554
Hf6 Hf9 3.174528 1_555
Hf6 Hf8 3.233862 1_555
Hf7 Tc2 2.868832 1_555
Hf7 Tc0 2.868832 1_555
Hf7 Ni1 3.133527 1_555
Hf7 Ni3 3.141843 1_545
Hf7 Hf8 3.174528 1_555
Hf7 Hf9 3.198103 1_555
Hf8 Tc0 2.808430 1_555
Hf8 Nb0 3.008042 1_555
Hf8 Ni2 3.139930 1_545
Hf8 Ni1 3.139930 1_554
Hf9 Tc2 2.868832 1_555
Hf9 Tc1 2.868832 1_555
Hf9 Ni0 3.133527 1_555
Hf9 Ni3 3.141843 1_455
Hf10 Ni2 2.549765 1_555
Hf10 Ni3 2.556511 1_555
Hf10 Tc1 2.958837 1_655
Hf10 Tc0 2.958837 1_565
Hf10 Hf8 3.183845 1_565
Hf10 Hf6 3.183845 1_655
Hf10 Hf9 3.204900 1_655
Hf10 Hf7 3.204900 1_565
Hf11 Ni1 2.546611 1_555
Hf11 Ni0 2.546611 1_555
Hf11 Tc2 3.019474 1_555
Hf11 Nb0 3.028367 1_556
Hf11 Hf9 3.205702 1_555
Hf11 Hf7 3.205703 1_555
Hf11 Hf8 3.231694 1_556
Hf11 Hf6 3.231694 1_556
Hf12 Ni1 2.549764 1_555
Hf12 Ni3 2.556511 1_555
Hf12 Tc2 2.958837 1_655
Hf12 Tc0 2.958837 1_556
Hf12 Hf4 3.183845 1_655
Hf12 Hf8 3.183845 1_556
Hf12 Hf9 3.204900 1_655
Hf12 Hf5 3.204900 1_556
Hf13 Ni2 2.546612 1_555
Hf13 Ni0 2.546612 1_555
Hf13 Tc1 3.019474 1_555
Hf13 Nb0 3.028367 1_565
Hf13 Hf9 3.205702 1_555
Hf13 Hf5 3.205703 1_555
Hf13 Hf8 3.231694 1_565
Hf13 Hf4 3.231694 1_565
Hf14 Ni0 2.549764 1_555
Hf14 Ni3 2.556511 1_555
Hf14 Tc2 2.958837 1_565
Hf14 Tc1 2.958837 1_556
Hf14 Hf4 3.183845 1_565
Hf14 Hf6 3.183845 1_556
Hf14 Hf5 3.204900 1_556
Hf14 Hf7 3.204900 1_565
Hf15 Ni2 2.546612 1_555
Hf15 Ni1 2.546612 1_555
Hf15 Tc0 3.019475 1_555
Hf15 Nb0 3.028367 1_655
Hf15 Hf5 3.205702 1_555
Hf15 Hf7 3.205702 1_555
Hf15 Hf4 3.231693 1_655
Hf15 Hf6 3.231694 1_655
Nb0 Tc0 2.819687 1_455
Nb0 Tc1 2.819687 1_545
Nb0 Tc2 2.819687 1_554
Tc0 Tc1 2.922840 1_645
Tc0 Tc2 2.922841 1_654
Tc1 Tc2 2.922841 1_564
