# generated using pymatgen
data_Mn4SbPd9Au2
_symmetry_space_group_name_H-M   'P 1'
_cell_length_a   6.87827831
_cell_length_b   6.87827807
_cell_length_c   6.87827864
_cell_angle_alpha   107.41474243
_cell_angle_beta   107.41473817
_cell_angle_gamma   113.66744965
_symmetry_Int_Tables_number   1
_chemical_formula_structural   Mn4SbPd9Au2
_chemical_formula_sum   'Mn4 Sb1 Pd9 Au2'
_cell_volume   249.49005257
_cell_formula_units_Z   1
loop_
 _symmetry_equiv_pos_site_id
 _symmetry_equiv_pos_as_xyz
  1  'x, y, z'
loop_
 _atom_site_type_symbol
 _atom_site_label
 _atom_site_symmetry_multiplicity
 _atom_site_fract_x
 _atom_site_fract_y
 _atom_site_fract_z
 _atom_site_occupancy
  Mn  Mn0  1  0.23440129  0.23440129  0.46880158  1
  Mn  Mn1  1  0.76559871  0.76559871  0.53119842  1
  Mn  Mn2  1  0.23440129  0.76559871  0.00000000  1
  Mn  Mn3  1  0.76559871  0.23440129  1.00000000  1
  Sb  Sb0  1  0.50000000  0.50000000  0.00000000  1
  Pd  Pd0  1  0.50702824  0.25875181  0.24827544  1
  Pd  Pd1  1  0.49297176  0.74124819  0.75172456  1
  Pd  Pd2  1  0.01047537  0.25875181  0.75172456  1
  Pd  Pd3  1  0.25875181  0.01047537  0.75172456  1
  Pd  Pd4  1  0.98952463  0.74124819  0.24827544  1
  Pd  Pd5  1  0.74124819  0.98952463  0.24827544  1
  Pd  Pd6  1  0.25875181  0.50702824  0.24827544  1
  Pd  Pd7  1  0.74124819  0.49297176  0.75172456  1
  Pd  Pd8  1  0.00000000  0.00000000  0.00000000  1
  Au  Au0  1  0.50000000  0.00000000  0.50000000  1
  Au  Au1  1  0.00000000  0.50000000  0.50000000  1
loop_
_geom_bond_atom_site_label_1
_geom_bond_atom_site_label_2
_geom_bond_distance
_geom_bond_site_symmetry_2
Mn0 Pd8 2.699225 1_555
Mn0 Pd4 2.729053 1_445
Mn0 Pd5 2.729053 1_445
Mn0 Pd0 2.729053 1_555
Mn0 Pd6 2.729053 1_555
Mn0 Pd1 2.827264 1_555
Mn0 Pd7 2.827264 1_555
Mn0 Pd2 2.827274 1_555
Mn0 Pd3 2.827274 1_555
Mn0 Sb0 3.058488 1_556
Mn1 Pd8 2.699225 1_666
Mn1 Pd2 2.729053 1_665
Mn1 Pd3 2.729053 1_665
Mn1 Pd1 2.729053 1_555
Mn1 Pd7 2.729053 1_555
Mn1 Pd0 2.827264 1_555
Mn1 Pd6 2.827264 1_555
Mn1 Pd4 2.827274 1_555
Mn1 Pd5 2.827274 1_555
Mn1 Sb0 3.058488 1_555
Mn2 Pd8 2.699231 1_565
Mn2 Pd4 2.729047 1_455
Mn2 Pd3 2.729047 1_564
Mn2 Pd0 2.729052 1_565
Mn2 Pd7 2.729052 1_454
Mn2 Pd1 2.827257 1_554
Mn2 Pd6 2.827257 1_555
Mn2 Pd2 2.827261 1_554
Mn2 Pd5 2.827262 1_555
Mn2 Sb0 3.058483 1_555
Mn3 Pd8 2.699231 1_656
Mn3 Pd2 2.729047 1_655
Mn3 Pd5 2.729047 1_546
Mn3 Pd1 2.729052 1_545
Mn3 Pd6 2.729052 1_656
Mn3 Pd0 2.827257 1_556
Mn3 Pd7 2.827257 1_555
Mn3 Pd4 2.827261 1_556
Mn3 Pd3 2.827262 1_555
Mn3 Sb0 3.058483 1_556
Pd0 Sb0 2.717222 1_555
Pd1 Sb0 2.717222 1_556
Pd2 Sb0 2.717227 1_556
Pd3 Sb0 2.717227 1_556
Pd4 Sb0 2.717227 1_555
Pd5 Sb0 2.717227 1_555
Pd6 Sb0 2.717222 1_555
Pd7 Sb0 2.717222 1_556
Au0 Pd7 2.738175 1_555
Au0 Pd6 2.738175 1_545
Au0 Pd5 2.738180 1_545
Au0 Pd3 2.738180 1_555
Au0 Pd4 2.827240 1_445
Au0 Pd2 2.827240 1_655
Au0 Pd1 2.827245 1_545
Au0 Pd0 2.827245 1_555
Au0 Mn3 2.884455 1_555
Au0 Mn2 2.884455 1_545
Au0 Mn1 2.884456 1_545
Au0 Mn0 2.884456 1_555
Au1 Pd0 2.738175 1_455
Au1 Pd1 2.738175 1_555
Au1 Pd2 2.738181 1_555
Au1 Pd4 2.738181 1_455
Au1 Pd3 2.827240 1_565
Au1 Pd5 2.827240 1_445
Au1 Pd7 2.827245 1_455
Au1 Pd6 2.827245 1_555
Au1 Mn2 2.884455 1_556
Au1 Mn3 2.884455 1_454
Au1 Mn1 2.884456 1_455
Au1 Mn0 2.884456 1_555
