# generated using pymatgen
data_Co6Ni2IrS8
_symmetry_space_group_name_H-M   'P 1'
_cell_length_a   6.95742504
_cell_length_b   6.95741320
_cell_length_c   6.95071646
_cell_angle_alpha   60.03226293
_cell_angle_beta   60.03227214
_cell_angle_gamma   60.04807468
_symmetry_Int_Tables_number   1
_chemical_formula_structural   Co6Ni2IrS8
_chemical_formula_sum   'Co6 Ni2 Ir1 S8'
_cell_volume   238.11143184
_cell_formula_units_Z   1
loop_
 _symmetry_equiv_pos_site_id
 _symmetry_equiv_pos_as_xyz
  1  'x, y, z'
loop_
 _atom_site_type_symbol
 _atom_site_label
 _atom_site_symmetry_multiplicity
 _atom_site_fract_x
 _atom_site_fract_y
 _atom_site_fract_z
 _atom_site_occupancy
  Co  Co0  1  0.12594329  0.12594182  0.62372524  1
  Co  Co1  1  0.12593551  0.12593454  0.12439222  1
  Co  Co2  1  0.37671288  0.87408401  0.87460547  1
  Co  Co3  1  0.87408284  0.37671355  0.87460470  1
  Co  Co4  1  0.87322598  0.87322570  0.37942905  1
  Co  Co5  1  0.87321980  0.87322027  0.87412116  1
  Ni  Ni0  1  0.61801705  0.12815621  0.12692828  1
  Ni  Ni1  1  0.12815619  0.61802038  0.12692205  1
  Ir  Ir0  1  0.50199747  0.50199575  0.49800005  1
  S  S0  1  0.24404465  0.24404592  0.25594966  1
  S  S1  1  0.74807504  0.74807488  0.75192097  1
  S  S2  1  0.74822379  0.25657202  0.25685977  1
  S  S3  1  0.74822021  0.25657510  0.73834086  1
  S  S4  1  0.74363308  0.74363508  0.25636489  1
  S  S5  1  0.25657722  0.74822044  0.73833850  1
  S  S6  1  0.25657341  0.74822421  0.25685905  1
  S  S7  1  0.25736459  0.25736311  0.74263708  1
loop_
_geom_bond_atom_site_label_1
_geom_bond_atom_site_label_2
_geom_bond_distance
_geom_bond_site_symmetry_2
Co0 S0 2.088624 1_555
Co0 S5 2.147953 1_545
Co0 S3 2.147967 1_455
Co0 S7 2.167958 1_555
Co1 S0 2.088619 1_555
Co1 S6 2.147892 1_545
Co1 S2 2.147904 1_455
Co1 S7 2.167982 1_554
Co2 S1 2.110762 1_555
Co2 S6 2.170865 1_556
Co2 S5 2.170921 1_555
Co2 S7 2.179001 1_565
Co3 S1 2.110753 1_555
Co3 S2 2.170873 1_556
Co3 S3 2.170913 1_555
Co3 S7 2.179020 1_655
Co4 S1 2.114801 1_555
Co4 S4 2.170310 1_555
Co4 S2 2.179360 1_565
Co4 S6 2.179370 1_655
Co5 S1 2.114775 1_555
Co5 S4 2.170304 1_556
Co5 S3 2.179409 1_565
Co5 S5 2.179428 1_655
Ni0 S0 2.126174 1_555
Ni0 S4 2.185545 1_545
Ni0 S2 2.205935 1_555
Ni0 S3 2.206143 1_554
Ni1 S0 2.126182 1_555
Ni1 S4 2.185560 1_455
Ni1 S6 2.205958 1_555
Ni1 S5 2.206121 1_554
Ir0 S4 2.377833 1_555
Ir0 S5 2.393607 1_555
Ir0 S3 2.393611 1_555
Ir0 S2 2.393612 1_555
Ir0 S6 2.393619 1_555
Ir0 S7 2.407308 1_555
