# generated using pymatgen
data_Zr2Ti2ReMo
_symmetry_space_group_name_H-M   'P 1'
_cell_length_a   5.33520499
_cell_length_b   5.38243096
_cell_length_c   5.33520533
_cell_angle_alpha   122.21774918
_cell_angle_beta   116.26859485
_cell_angle_gamma   91.11110014
_symmetry_Int_Tables_number   1
_chemical_formula_structural   Zr2Ti2ReMo
_chemical_formula_sum   'Zr2 Ti2 Re1 Mo1'
_cell_volume   109.45079054
_cell_formula_units_Z   1
loop_
 _symmetry_equiv_pos_site_id
 _symmetry_equiv_pos_as_xyz
  1  'x, y, z'
loop_
 _atom_site_type_symbol
 _atom_site_label
 _atom_site_symmetry_multiplicity
 _atom_site_fract_x
 _atom_site_fract_y
 _atom_site_fract_z
 _atom_site_occupancy
  Zr  Zr0  1  0.37242820  0.12295070  0.25052250  1
  Zr  Zr1  1  0.62757180  0.87704930  0.74947750  1
  Ti  Ti0  1  0.50000000  0.50000000  0.00000000  1
  Ti  Ti1  1  0.00000000  0.50000000  0.50000000  1
  Re  Re0  1  0.00000000  0.50000000  0.00000000  1
  Mo  Mo0  1  0.00000000  0.00000000  0.50000000  1
loop_
_geom_bond_atom_site_label_1
_geom_bond_atom_site_label_2
_geom_bond_distance
_geom_bond_site_symmetry_2
Zr0 Zr1 3.204513 1_544
Zr0 Zr1 3.235914 1_555
Zr0 Zr1 3.363084 1_444
Zr0 Zr1 3.363084 1_545
Ti0 Ti1 2.816615 1_554
Ti0 Ti1 2.816615 1_655
Ti0 Zr0 3.074971 1_554
Ti0 Zr1 3.074971 1_555
Ti0 Zr0 3.099581 1_565
Ti0 Zr1 3.099581 1_544
Ti0 Zr1 3.164226 1_554
Ti0 Zr0 3.164226 1_555
Ti1 Zr0 3.074971 1_555
Ti1 Zr1 3.074971 1_455
Ti1 Zr0 3.099581 1_566
Ti1 Zr1 3.099581 1_444
Ti1 Zr1 3.164226 1_555
Ti1 Zr0 3.164226 1_455
Re0 Ti0 2.667602 1_455
Re0 Ti0 2.667602 1_555
Re0 Ti1 2.667603 1_555
Re0 Ti1 2.667603 1_554
Re0 Zr0 3.096666 1_565
Re0 Zr1 3.096666 1_444
Re0 Zr1 3.248246 1_555
Re0 Zr0 3.248246 1_454
Re0 Zr1 3.248247 1_454
Re0 Zr0 3.248247 1_555
Mo0 Re0 2.589178 1_556
Mo0 Re0 2.589178 1_545
Mo0 Ti0 2.691215 1_445
Mo0 Ti0 2.691215 1_556
Mo0 Ti1 2.691215 1_545
Mo0 Ti1 2.691215 1_555
Mo0 Zr0 3.063793 1_555
Mo0 Zr1 3.063793 1_445
Mo0 Zr1 3.240455 1_545
Mo0 Zr0 3.240455 1_455
Mo0 Zr1 3.240455 1_444
Mo0 Zr0 3.240455 1_556
