# generated using pymatgen
data_BaCa2(H6Rh)2
_symmetry_space_group_name_H-M   'P 1'
_cell_length_a   5.06977819
_cell_length_b   5.06977969
_cell_length_c   8.49970533
_cell_angle_alpha   90.00000000
_cell_angle_beta   90.00000000
_cell_angle_gamma   119.99998381
_symmetry_Int_Tables_number   1
_chemical_formula_structural   BaCa2(H6Rh)2
_chemical_formula_sum   'Ba1 Ca2 H12 Rh2'
_cell_volume   189.19629109
_cell_formula_units_Z   1
loop_
 _symmetry_equiv_pos_site_id
 _symmetry_equiv_pos_as_xyz
  1  'x, y, z'
loop_
 _atom_site_type_symbol
 _atom_site_label
 _atom_site_symmetry_multiplicity
 _atom_site_fract_x
 _atom_site_fract_y
 _atom_site_fract_z
 _atom_site_occupancy
  Ba  Ba0  1  0.00000000  0.00000000  0.00000000  1
  Ca  Ca0  1  0.66666700  0.33333300  0.36777126  1
  Ca  Ca1  1  0.33333300  0.66666700  0.63222874  1
  H  H0  1  0.17805266  0.82194734  0.37543834  1
  H  H1  1  0.64389467  0.82194734  0.37543834  1
  H  H2  1  0.17805266  0.35610533  0.37543834  1
  H  H3  1  0.82194734  0.17805266  0.62456166  1
  H  H4  1  0.35610533  0.17805266  0.62456166  1
  H  H5  1  0.82194734  0.64389467  0.62456166  1
  H  H6  1  0.51464008  0.02927916  0.84897231  1
  H  H7  1  0.51464008  0.48535992  0.84897231  1
  H  H8  1  0.97072084  0.48535992  0.84897231  1
  H  H9  1  0.48535992  0.97072084  0.15102769  1
  H  H10  1  0.48535992  0.51464008  0.15102769  1
  H  H11  1  0.02927916  0.51464008  0.15102769  1
  Rh  Rh0  1  0.66666700  0.33333300  0.73437537  1
  Rh  Rh1  1  0.33333300  0.66666700  0.26562463  1
loop_
_geom_bond_atom_site_label_1
_geom_bond_atom_site_label_2
_geom_bond_distance
_geom_bond_site_symmetry_2
Ba0 H9 2.844299 1_545
Ba0 H6 2.844299 1_454
Ba0 H11 2.844300 1_545
Ba0 H8 2.844300 1_454
Ba0 H7 2.844302 1_554
Ba0 H10 2.844302 1_445
Ba0 H10 2.844303 1_555
Ba0 H7 2.844303 1_444
Ba0 H9 2.844304 1_445
Ba0 H6 2.844304 1_554
Ba0 H11 2.844304 1_555
Ba0 H8 2.844304 1_444
Ca0 H11 2.434870 1_655
Ca0 H9 2.434871 1_545
Ca0 H10 2.434876 1_555
Ca0 H2 2.537695 1_655
Ca0 H1 2.537695 1_545
Ca0 H0 2.537698 1_655
Ca0 H0 2.537698 1_545
Ca0 H2 2.537700 1_555
Ca0 H1 2.537700 1_555
Ca0 H3 2.573549 1_555
Ca0 H4 2.573552 1_555
Ca0 H5 2.573552 1_555
Ca1 H8 2.434870 1_455
Ca1 H6 2.434871 1_565
Ca1 H7 2.434876 1_555
Ca1 H5 2.537695 1_455
Ca1 H4 2.537695 1_565
Ca1 H3 2.537698 1_455
Ca1 H3 2.537698 1_565
Ca1 H5 2.537700 1_555
Ca1 H4 2.537700 1_555
Ca1 H0 2.573549 1_555
Ca1 H1 2.573552 1_555
Ca1 H2 2.573552 1_555
H0 Rh1 1.652402 1_555
H1 Rh1 1.652406 1_555
H2 Rh1 1.652406 1_555
H3 Rh0 1.652402 1_555
H4 Rh0 1.652406 1_555
H5 Rh0 1.652406 1_555
H6 Rh0 1.652540 1_555
H7 Rh0 1.652540 1_555
H8 Rh0 1.652540 1_555
H9 Rh1 1.652540 1_555
H10 Rh1 1.652540 1_555
H11 Rh1 1.652540 1_555
