# generated using pymatgen
data_VB3Mo3W
_symmetry_space_group_name_H-M   'P 1'
_cell_length_a   5.81024471
_cell_length_b   5.81024426
_cell_length_c   6.78266283
_cell_angle_alpha   115.37539877
_cell_angle_beta   115.37539294
_cell_angle_gamma   89.96906001
_symmetry_Int_Tables_number   1
_chemical_formula_structural   VB3Mo3W
_chemical_formula_sum   'V2 B6 Mo6 W2'
_cell_volume   182.16044582
_cell_formula_units_Z   2
loop_
 _symmetry_equiv_pos_site_id
 _symmetry_equiv_pos_as_xyz
  1  'x, y, z'
loop_
 _atom_site_type_symbol
 _atom_site_label
 _atom_site_symmetry_multiplicity
 _atom_site_fract_x
 _atom_site_fract_y
 _atom_site_fract_z
 _atom_site_occupancy
  V  V0  1  0.50064092  0.50064092  0.00128284  1
  V  V1  1  0.00064092  0.00064092  0.00128284  1
  B  B0  1  0.25091257  0.25091257  0.50182614  1
  B  B1  1  0.75091257  0.75091257  0.50182614  1
  B  B2  1  0.62010624  0.12010624  0.00002827  1
  B  B3  1  0.37992303  0.87992303  0.00002827  1
  B  B4  1  0.87913746  0.61969181  0.99882927  1
  B  B5  1  0.11969181  0.37913746  0.99882927  1
  Mo  Mo0  1  0.18754119  0.02649961  0.71404179  1
  Mo  Mo1  1  0.52649961  0.68754119  0.71404179  1
  Mo  Mo2  1  0.97278051  0.47278051  0.28442407  1
  Mo  Mo3  1  0.31164356  0.81164356  0.28442407  1
  Mo  Mo4  1  0.81286390  0.97431991  0.28718380  1
  Mo  Mo5  1  0.47431991  0.31286390  0.28718380  1
  W  W0  1  0.02601713  0.52601713  0.71238481  1
  W  W1  1  0.68636668  0.18636668  0.71238481  1
loop_
_geom_bond_atom_site_label_1
_geom_bond_atom_site_label_2
_geom_bond_distance
_geom_bond_site_symmetry_2
V0 W1 2.661185 1_554
V0 W0 2.661185 1_554
V1 W0 2.661184 1_544
V1 W1 2.661185 1_454
B0 W0 2.437761 1_555
B0 W1 2.437762 1_555
B0 Mo1 2.443546 1_555
B0 Mo0 2.443546 1_555
B0 Mo4 2.450167 1_445
B0 Mo5 2.450173 1_555
B0 Mo3 2.456058 1_545
B0 Mo2 2.456061 1_455
B0 V0 2.695027 1_556
B0 V1 2.700891 1_555
B1 W1 2.437761 1_565
B1 W0 2.437762 1_655
B1 Mo1 2.443546 1_555
B1 Mo0 2.443546 1_665
B1 Mo5 2.450166 1_555
B1 Mo4 2.450173 1_555
B1 Mo3 2.456059 1_555
B1 Mo2 2.456061 1_555
B1 V1 2.695027 1_666
B1 V0 2.700891 1_555
B2 B3 1.974101 1_545
B2 Mo1 2.300849 1_544
B2 Mo0 2.300850 1_554
B2 Mo5 2.304056 1_555
B2 Mo4 2.304056 1_545
B2 Mo2 2.312488 1_555
B2 V0 2.314666 1_555
B2 V1 2.314666 1_655
B2 W1 2.321744 1_554
B3 Mo1 2.300842 1_554
B3 Mo0 2.300843 1_564
B3 Mo5 2.304052 1_565
B3 Mo4 2.304052 1_555
B3 Mo3 2.312495 1_555
B3 V0 2.314673 1_555
B3 V1 2.314673 1_565
B3 W0 2.321756 1_554
B4 B5 1.976084 1_655
B4 Mo2 2.300073 1_556
B4 Mo3 2.300073 1_656
B4 W0 2.305103 1_655
B4 W1 2.305107 1_555
B4 Mo1 2.311765 1_555
B4 V1 2.314710 1_666
B4 V0 2.314717 1_556
B4 Mo4 2.325868 1_556
B5 Mo3 2.300073 1_556
B5 Mo2 2.300073 1_456
B5 W0 2.305103 1_555
B5 W1 2.305108 1_455
B5 Mo0 2.311764 1_555
B5 V0 2.314710 1_556
B5 V1 2.314717 1_556
B5 Mo5 2.325868 1_556
Mo0 V0 2.657433 1_556
Mo0 V1 2.657433 1_556
Mo1 V0 2.657433 1_556
Mo1 V1 2.657433 1_666
Mo2 V1 2.643918 1_655
Mo2 V0 2.643918 1_555
Mo2 W0 2.660470 1_655
Mo3 V0 2.643916 1_555
Mo3 V1 2.643916 1_565
Mo3 W1 2.660466 1_565
Mo4 V1 2.653644 1_665
Mo4 V0 2.653650 1_555
Mo5 V0 2.653644 1_555
Mo5 V1 2.653650 1_555
