# generated using pymatgen
data_Hf6NiBr15
_symmetry_space_group_name_H-M   'P 1'
_cell_length_a   9.23050189
_cell_length_b   9.23050238
_cell_length_c   9.23050225
_cell_angle_alpha   109.47122035
_cell_angle_beta   109.47122141
_cell_angle_gamma   109.47121880
_symmetry_Int_Tables_number   1
_chemical_formula_structural   Hf6NiBr15
_chemical_formula_sum   'Hf6 Ni1 Br15'
_cell_volume   605.41629069
_cell_formula_units_Z   1
loop_
 _symmetry_equiv_pos_site_id
 _symmetry_equiv_pos_as_xyz
  1  'x, y, z'
loop_
 _atom_site_type_symbol
 _atom_site_label
 _atom_site_symmetry_multiplicity
 _atom_site_fract_x
 _atom_site_fract_y
 _atom_site_fract_z
 _atom_site_occupancy
  Hf  Hf0  1  0.00000000  0.23126123  0.23126123  1
  Hf  Hf1  1  1.00000000  0.76873877  0.76873877  1
  Hf  Hf2  1  0.23126123  0.00000000  0.23126123  1
  Hf  Hf3  1  0.76873877  0.00000000  0.76873877  1
  Hf  Hf4  1  0.23126123  0.23126123  0.00000000  1
  Hf  Hf5  1  0.76873877  0.76873877  1.00000000  1
  Ni  Ni0  1  0.00000000  0.00000000  0.00000000  1
  Br  Br0  1  0.49795209  0.24897654  0.24897654  1
  Br  Br1  1  0.50204791  0.75102346  0.75102346  1
  Br  Br2  1  1.00000000  0.24897654  0.75102346  1
  Br  Br3  1  0.00000000  0.75102346  0.24897654  1
  Br  Br4  1  0.24897654  0.49795209  0.24897654  1
  Br  Br5  1  0.75102346  0.00000000  0.24897654  1
  Br  Br6  1  0.75102346  0.50204791  0.75102346  1
  Br  Br7  1  0.24897654  0.00000000  0.75102346  1
  Br  Br8  1  0.24897654  0.24897654  0.49795209  1
  Br  Br9  1  0.75102346  0.75102346  0.50204791  1
  Br  Br10  1  0.75102346  0.24897654  1.00000000  1
  Br  Br11  1  0.24897654  0.75102346  0.00000000  1
  Br  Br12  1  0.00000000  0.50000000  0.50000000  1
  Br  Br13  1  0.50000000  0.00000000  0.50000000  1
  Br  Br14  1  0.50000000  0.50000000  0.00000000  1
loop_
_geom_bond_atom_site_label_1
_geom_bond_atom_site_label_2
_geom_bond_distance
_geom_bond_site_symmetry_2
Hf0 Ni0 2.464890 1_555
Hf1 Ni0 2.464890 1_666
Hf2 Ni0 2.464890 1_555
Hf3 Ni0 2.464890 1_656
Hf4 Ni0 2.464890 1_555
Hf5 Ni0 2.464890 1_666
Br0 Hf4 2.660411 1_555
Br0 Hf2 2.660411 1_555
Br1 Hf5 2.660411 1_555
Br1 Hf3 2.660411 1_565
Br2 Hf4 2.660417 1_656
Br2 Hf3 2.660417 1_555
Br3 Hf5 2.660417 1_454
Br3 Hf2 2.660417 1_565
Br4 Hf0 2.660411 1_555
Br4 Hf4 2.660411 1_555
Br5 Hf5 2.660417 1_544
Br5 Hf0 2.660417 1_655
Br6 Hf1 2.660411 1_555
Br6 Hf5 2.660411 1_555
Br7 Hf4 2.660417 1_556
Br7 Hf1 2.660417 1_445
Br8 Hf0 2.660411 1_555
Br8 Hf2 2.660411 1_555
Br9 Hf1 2.660411 1_555
Br9 Hf3 2.660411 1_565
Br10 Hf0 2.660417 1_656
Br10 Hf3 2.660417 1_555
Br11 Hf1 2.660417 1_454
Br11 Hf2 2.660417 1_565
Br12 Hf1 2.864343 1_455
Br12 Hf0 2.864343 1_555
Br13 Hf3 2.864343 1_555
Br13 Hf2 2.864343 1_555
Br14 Hf5 2.864343 1_554
Br14 Hf4 2.864343 1_555
