# generated using pymatgen
data_LuSnBRh6
_symmetry_space_group_name_H-M   'P 1'
_cell_length_a   5.69024896
_cell_length_b   5.69024971
_cell_length_c   5.69025005
_cell_angle_alpha   60.00000363
_cell_angle_beta   59.99999931
_cell_angle_gamma   60.00000386
_symmetry_Int_Tables_number   1
_chemical_formula_structural   LuSnBRh6
_chemical_formula_sum   'Lu1 Sn1 B1 Rh6'
_cell_volume   130.28036580
_cell_formula_units_Z   1
loop_
 _symmetry_equiv_pos_site_id
 _symmetry_equiv_pos_as_xyz
  1  'x, y, z'
loop_
 _atom_site_type_symbol
 _atom_site_label
 _atom_site_symmetry_multiplicity
 _atom_site_fract_x
 _atom_site_fract_y
 _atom_site_fract_z
 _atom_site_occupancy
  Lu  Lu0  1  0.25000000  0.25000000  0.25000000  1
  Sn  Sn0  1  0.75000000  0.75000000  0.75000000  1
  B  B0  1  0.00000000  0.00000000  0.00000000  1
  Rh  Rh0  1  0.74299768  0.25700332  0.25700332  1
  Rh  Rh1  1  0.25700332  0.74299768  0.25700332  1
  Rh  Rh2  1  0.74299668  0.74299668  0.25700432  1
  Rh  Rh3  1  0.25700332  0.25700332  0.74299768  1
  Rh  Rh4  1  0.74299668  0.25700432  0.74299668  1
  Rh  Rh5  1  0.25700432  0.74299668  0.74299668  1
loop_
_geom_bond_atom_site_label_1
_geom_bond_atom_site_label_2
_geom_bond_distance
_geom_bond_site_symmetry_2
Lu0 Rh0 2.845677 1_455
Lu0 Rh1 2.845677 1_545
Lu0 Rh3 2.845677 1_554
Lu0 Rh4 2.845683 1_455
Lu0 Rh4 2.845683 1_554
Lu0 Rh2 2.845683 1_455
Lu0 Rh2 2.845683 1_545
Lu0 Rh5 2.845683 1_545
Lu0 Rh5 2.845683 1_554
Lu0 Rh0 2.845688 1_555
Lu0 Rh1 2.845689 1_555
Lu0 Rh3 2.845689 1_555
B0 Rh3 2.068164 1_554
B0 Rh2 2.068164 1_445
B0 Rh1 2.068164 1_545
B0 Rh5 2.068164 1_544
B0 Rh0 2.068164 1_455
B0 Rh4 2.068164 1_454
Rh0 Sn0 2.845683 1_545
Rh0 Sn0 2.845683 1_554
Rh1 Sn0 2.845683 1_455
Rh1 Sn0 2.845683 1_554
Rh2 Sn0 2.845677 1_555
Rh2 Sn0 2.845689 1_554
Rh3 Sn0 2.845683 1_455
Rh3 Sn0 2.845683 1_545
Rh4 Sn0 2.845677 1_555
Rh4 Sn0 2.845689 1_545
Rh5 Sn0 2.845677 1_555
Rh5 Sn0 2.845688 1_455
