# generated using pymatgen
data_CsMnMoF6
_symmetry_space_group_name_H-M   'P 1'
_cell_length_a   7.65978651
_cell_length_b   7.65978770
_cell_length_c   7.65978713
_cell_angle_alpha   120.50987073
_cell_angle_beta   120.30709669
_cell_angle_gamma   89.29401894
_symmetry_Int_Tables_number   1
_chemical_formula_structural   CsMnMoF6
_chemical_formula_sum   'Cs2 Mn2 Mo2 F12'
_cell_volume   315.79692428
_cell_formula_units_Z   2
loop_
 _symmetry_equiv_pos_site_id
 _symmetry_equiv_pos_as_xyz
  1  'x, y, z'
loop_
 _atom_site_type_symbol
 _atom_site_label
 _atom_site_symmetry_multiplicity
 _atom_site_fract_x
 _atom_site_fract_y
 _atom_site_fract_z
 _atom_site_occupancy
  Cs  Cs0  1  0.60940785  0.85940785  0.75000000  1
  Cs  Cs1  1  0.39059215  0.14059215  0.25000000  1
  Mn  Mn0  1  0.50000000  0.50000000  0.00000000  1
  Mn  Mn1  1  0.00000000  0.50000000  0.50000000  1
  Mo  Mo0  1  0.00000000  0.50000000  0.00000000  1
  Mo  Mo1  1  0.00000000  0.00000000  0.50000000  1
  F  F0  1  0.07637177  0.82637177  0.25000000  1
  F  F1  1  0.68052138  0.43052138  0.25000000  1
  F  F2  1  0.07755263  0.83211577  0.65284849  1
  F  F3  1  0.67926728  0.42470415  0.84715151  1
  F  F4  1  0.67926728  0.83211577  0.25456314  1
  F  F5  1  0.07755263  0.42470415  0.24543686  1
  F  F6  1  0.92362823  0.17362823  0.75000000  1
  F  F7  1  0.31947862  0.56947862  0.75000000  1
  F  F8  1  0.92244737  0.16788423  0.34715151  1
  F  F9  1  0.32073272  0.57529585  0.15284849  1
  F  F10  1  0.32073272  0.16788423  0.74543686  1
  F  F11  1  0.92244737  0.57529585  0.75456314  1
loop_
_geom_bond_atom_site_label_1
_geom_bond_atom_site_label_2
_geom_bond_distance
_geom_bond_site_symmetry_2
Cs0 F7 3.159970 1_555
Cs0 F11 3.217267 1_555
Cs0 F10 3.217267 1_565
Cs0 F9 3.217267 1_555
Cs0 F8 3.217267 1_566
Cs0 F6 3.424721 1_565
Cs1 F1 3.159970 1_555
Cs1 F5 3.217267 1_555
Cs1 F4 3.217267 1_545
Cs1 F3 3.217267 1_555
Cs1 F2 3.217267 1_544
Cs1 F0 3.424721 1_545
F0 Mo1 2.074490 1_565
F0 Mo0 2.074490 1_555
F1 Mn1 2.050967 1_655
F1 Mn0 2.050967 1_555
F2 Mo1 2.045794 1_565
F2 Mn1 2.122814 1_555
F3 Mo0 2.045794 1_656
F3 Mn0 2.122814 1_556
F4 Mo1 2.045794 1_665
F4 Mn0 2.122814 1_555
F5 Mo0 2.045794 1_555
F5 Mn1 2.122814 1_555
F6 Mo1 2.074490 1_655
F6 Mo0 2.074490 1_656
F7 Mn1 2.050967 1_555
F7 Mn0 2.050967 1_556
F8 Mo1 2.045794 1_655
F8 Mn1 2.122814 1_655
F9 Mo0 2.045794 1_555
F9 Mn0 2.122814 1_555
F10 Mo1 2.045794 1_555
F10 Mn0 2.122814 1_556
F11 Mo0 2.045794 1_656
F11 Mn1 2.122814 1_655
