# generated using pymatgen
data_Rb3AlTe3
_symmetry_space_group_name_H-M   'P 1'
_cell_length_a   14.22358460
_cell_length_b   8.97310136
_cell_length_c   11.61409982
_cell_angle_alpha   52.79669191
_cell_angle_beta   90.00000000
_cell_angle_gamma   90.00000000
_symmetry_Int_Tables_number   1
_chemical_formula_structural   Rb3AlTe3
_chemical_formula_sum   'Rb12 Al4 Te12'
_cell_volume   1180.64748673
_cell_formula_units_Z   4
loop_
 _symmetry_equiv_pos_site_id
 _symmetry_equiv_pos_as_xyz
  1  'x, y, z'
loop_
 _atom_site_type_symbol
 _atom_site_label
 _atom_site_symmetry_multiplicity
 _atom_site_fract_x
 _atom_site_fract_y
 _atom_site_fract_z
 _atom_site_occupancy
  Rb  Rb0  1  0.31031332  0.14483304  0.07968087  1
  Rb  Rb1  1  0.68968668  0.85516696  0.92031913  1
  Rb  Rb2  1  0.81031332  0.85516696  0.42031913  1
  Rb  Rb3  1  0.90184163  0.32707851  0.39605138  1
  Rb  Rb4  1  0.61583927  0.36746313  0.47316102  1
  Rb  Rb5  1  0.11583927  0.63253687  0.02683898  1
  Rb  Rb6  1  0.38416073  0.63253687  0.52683898  1
  Rb  Rb7  1  0.88416073  0.36746313  0.97316102  1
  Rb  Rb8  1  0.59815837  0.32707851  0.89605138  1
  Rb  Rb9  1  0.09815837  0.67292149  0.60394862  1
  Rb  Rb10  1  0.40184163  0.67292149  0.10394862  1
  Rb  Rb11  1  0.18968668  0.14483304  0.57968087  1
  Al  Al0  1  0.06305125  0.94061660  0.15931306  1
  Al  Al1  1  0.56305125  0.05938340  0.34068694  1
  Al  Al2  1  0.43694875  0.94061660  0.65931306  1
  Al  Al3  1  0.93694875  0.05938340  0.84068694  1
  Te  Te0  1  0.39649908  0.16548825  0.37394737  1
  Te  Te1  1  0.89649908  0.83451175  0.12605263  1
  Te  Te2  1  0.60350092  0.83451175  0.62605263  1
  Te  Te3  1  0.10350092  0.16548825  0.87394737  1
  Te  Te4  1  0.68426970  0.33251021  0.19462040  1
  Te  Te5  1  0.18426970  0.66748979  0.30537960  1
  Te  Te6  1  0.31573030  0.66748979  0.80537960  1
  Te  Te7  1  0.81573030  0.33251021  0.69462040  1
  Te  Te8  1  0.55485672  0.87171719  0.23729138  1
  Te  Te9  1  0.05485672  0.12828281  0.26270862  1
  Te  Te10  1  0.44514328  0.12828281  0.76270862  1
  Te  Te11  1  0.94514328  0.87171719  0.73729138  1
loop_
_geom_bond_atom_site_label_1
_geom_bond_atom_site_label_2
_geom_bond_distance
_geom_bond_site_symmetry_2
Rb0 Te3 3.723060 1_554
Rb0 Te0 3.739435 1_555
Rb0 Te6 3.752602 1_554
Rb0 Te5 3.854091 1_545
Rb0 Te8 4.003777 1_545
Rb0 Te9 4.166689 1_555
Rb0 Te10 4.232413 1_554
Rb1 Te1 3.723060 1_556
Rb1 Te2 3.739435 1_555
Rb1 Te4 3.752602 1_556
Rb1 Te7 3.854091 1_565
Rb1 Te10 4.003777 1_565
Rb1 Te11 4.166689 1_555
Rb1 Te8 4.232413 1_556
Rb2 Te2 3.723060 1_555
Rb2 Te1 3.739435 1_555
Rb2 Te7 3.752602 1_555
Rb2 Te4 3.854091 1_565
Rb2 Te9 4.003777 1_665
Rb2 Te8 4.166689 1_555
Rb2 Te11 4.232413 1_555
Rb3 Te11 3.633027 1_545
Rb3 Te1 3.647568 1_555
Rb3 Te9 3.695650 1_655
Rb3 Te7 3.705569 1_555
Rb3 Te4 3.861909 1_555
Rb4 Te4 3.569020 1_555
Rb4 Te10 3.616869 1_555
Rb4 Te8 3.706833 1_555
Rb4 Te7 3.717781 1_555
Rb4 Te2 3.972978 1_545
Rb4 Te0 4.107418 1_555
Rb5 Te5 3.569020 1_555
Rb5 Te11 3.616869 1_454
Rb5 Te9 3.706833 1_555
Rb5 Te6 3.717781 1_554
Rb5 Te3 3.972978 1_564
Rb5 Te1 4.107418 1_455
Rb6 Te6 3.569020 1_555
Rb6 Te8 3.616869 1_555
Rb6 Te10 3.706833 1_555
Rb6 Te5 3.717781 1_555
Rb6 Te0 3.972978 1_565
Rb6 Te2 4.107418 1_555
Rb7 Te7 3.569020 1_555
Rb7 Te9 3.616869 1_656
Rb7 Te11 3.706833 1_555
Rb7 Te4 3.717781 1_556
Rb7 Te1 3.972978 1_546
Rb7 Te3 4.107418 1_655
Rb8 Te8 3.633027 1_546
Rb8 Te2 3.647568 1_555
Rb8 Te10 3.695650 1_555
Rb8 Te4 3.705569 1_556
Rb8 Te7 3.861909 1_555
Rb9 Te9 3.633027 1_565
Rb9 Te3 3.647568 1_555
Rb9 Te11 3.695650 1_455
Rb9 Te5 3.705569 1_555
Rb9 Te6 3.861909 1_555
Rb10 Te10 3.633027 1_564
Rb10 Te0 3.647568 1_555
Rb10 Te8 3.695650 1_555
Rb10 Te6 3.705569 1_554
Rb10 Te5 3.861909 1_555
Rb11 Te0 3.723060 1_555
Rb11 Te3 3.739435 1_555
Rb11 Te5 3.752602 1_555
Rb11 Te6 3.854091 1_545
Rb11 Te11 4.003777 1_445
Rb11 Te10 4.166689 1_555
Rb11 Te9 4.232413 1_555
Al0 Te9 2.595511 1_565
Al0 Te5 2.613284 1_555
Al0 Te1 2.666920 1_455
Al0 Te3 2.701801 1_564
Al0 Rb0 3.812185 1_565
Al1 Te8 2.595511 1_545
Al1 Te4 2.613284 1_555
Al1 Te0 2.666920 1_555
Al1 Te2 2.701801 1_545
Al1 Rb2 3.812185 1_545
Al2 Te10 2.595511 1_565
Al2 Te6 2.613284 1_555
Al2 Te2 2.666920 1_555
Al2 Te0 2.701801 1_565
Al2 Rb11 3.812185 1_565
Al3 Te11 2.595511 1_545
Al3 Te7 2.613284 1_555
Al3 Te3 2.666920 1_655
Al3 Te1 2.701801 1_546
Al3 Rb1 3.812185 1_545
