# generated using pymatgen
data_RbY6(CBr6)2
_symmetry_space_group_name_H-M   'P 1'
_cell_length_a   8.82159236
_cell_length_b   8.78446386
_cell_length_c   9.32154010
_cell_angle_alpha   71.94047960
_cell_angle_beta   70.77957378
_cell_angle_gamma   72.67884668
_symmetry_Int_Tables_number   1
_chemical_formula_structural   RbY6(CBr6)2
_chemical_formula_sum   'Rb1 Y6 C2 Br12'
_cell_volume   632.89463066
_cell_formula_units_Z   1
loop_
 _symmetry_equiv_pos_site_id
 _symmetry_equiv_pos_as_xyz
  1  'x, y, z'
loop_
 _atom_site_type_symbol
 _atom_site_label
 _atom_site_symmetry_multiplicity
 _atom_site_fract_x
 _atom_site_fract_y
 _atom_site_fract_z
 _atom_site_occupancy
  Rb  Rb0  1  0.99999897  0.49999824  0.99999962  1
  Y  Y0  1  0.47360965  0.12010392  0.18012338  1
  Y  Y1  1  0.77857770  0.03357075  0.40509642  1
  Y  Y2  1  0.59466516  0.72310692  0.47534804  1
  Y  Y3  1  0.40533157  0.27689197  0.52465154  1
  Y  Y4  1  0.22141900  0.96643028  0.59490128  1
  Y  Y5  1  0.52640328  0.87989084  0.81986834  1
  C  C0  1  0.49262451  0.02711118  0.42173150  1
  C  C1  1  0.50737011  0.97289032  0.57826735  1
  Br  Br0  1  0.79883980  0.16381986  0.07836520  1
  Br  Br1  1  0.58528827  0.78469009  0.13902465  1
  Br  Br2  1  0.34849615  0.43881874  0.22253686  1
  Br  Br3  1  0.13417512  0.07272044  0.29402049  1
  Br  Br4  1  0.92584728  0.72167712  0.35115088  1
  Br  Br5  1  0.71516173  0.36707281  0.43015059  1
  Br  Br6  1  0.28482780  0.63290243  0.56987179  1
  Br  Br7  1  0.07415405  0.27835409  0.64881689  1
  Br  Br8  1  0.86583819  0.92727283  0.70597790  1
  Br  Br9  1  0.65147535  0.56115327  0.77746213  1
  Br  Br10  1  0.41472461  0.21531808  0.86097817  1
  Br  Br11  1  0.20117469  0.83620181  0.92165600  1
loop_
_geom_bond_atom_site_label_1
_geom_bond_atom_site_label_2
_geom_bond_distance
_geom_bond_site_symmetry_2
C0 C1 1.424812 1_545
C0 Y0 2.189552 1_555
C0 Y3 2.477999 1_555
C0 Y1 2.492553 1_555
C0 Y2 2.495797 1_545
C0 Y4 2.509356 1_545
C1 Y5 2.189540 1_555
C1 Y2 2.478015 1_555
C1 Y4 2.492539 1_555
C1 Y3 2.495775 1_565
C1 Y1 2.509373 1_565
Br0 Y0 2.813726 1_555
Br0 Y1 2.867014 1_555
Br0 Rb0 3.651463 1_554
Br1 Y0 2.919194 1_565
Br1 Y5 3.006038 1_554
Br1 Y2 3.036547 1_555
Br1 Rb0 3.841571 1_554
Br2 Y0 2.787829 1_555
Br2 Y3 2.868253 1_555
Br2 Rb0 4.070266 1_454
Br3 Y0 2.939664 1_555
Br3 Y4 2.949575 1_545
Br3 Y1 3.051854 1_455
Br3 Rb0 4.014108 1_454
Br4 Y2 2.763359 1_555
Br4 Y1 2.784216 1_565
Br4 Rb0 4.088772 1_554
Br5 Y3 2.853997 1_555
Br5 Y1 2.883151 1_555
Br5 Y2 3.103483 1_555
Br5 Rb0 3.995663 1_554
Br6 Y2 2.854134 1_555
Br6 Y4 2.883306 1_555
Br6 Y3 3.103357 1_555
Br6 Rb0 3.995450 1_455
Br7 Y3 2.763249 1_555
Br7 Y4 2.784358 1_545
Br7 Rb0 4.088821 1_455
Br8 Y5 2.939664 1_555
Br8 Y1 2.949648 1_565
Br8 Y4 3.051736 1_655
Br8 Rb0 4.014061 1_555
Br9 Y5 2.787975 1_555
Br9 Y2 2.868204 1_555
Br9 Rb0 4.070528 1_555
Br10 Y5 2.919341 1_545
Br10 Y0 3.005930 1_556
Br10 Y3 3.036634 1_555
Br10 Rb0 3.841601 1_455
Br11 Y5 2.813623 1_555
Br11 Y4 2.867226 1_555
Br11 Rb0 3.651800 1_455
