# generated using pymatgen
data_Li3InSiPt3
_symmetry_space_group_name_H-M   'P 1'
_cell_length_a   6.85436196
_cell_length_b   6.85436152
_cell_length_c   6.85436120
_cell_angle_alpha   61.89228105
_cell_angle_beta   61.89228705
_cell_angle_gamma   61.89229905
_symmetry_Int_Tables_number   1
_chemical_formula_structural   Li3InSiPt3
_chemical_formula_sum   'Li6 In2 Si2 Pt6'
_cell_volume   237.35767964
_cell_formula_units_Z   2
loop_
 _symmetry_equiv_pos_site_id
 _symmetry_equiv_pos_as_xyz
  1  'x, y, z'
loop_
 _atom_site_type_symbol
 _atom_site_label
 _atom_site_symmetry_multiplicity
 _atom_site_fract_x
 _atom_site_fract_y
 _atom_site_fract_z
 _atom_site_occupancy
  Li  Li0  1  0.56369032  0.83133679  0.34105347  1
  Li  Li1  1  0.34105347  0.56369032  0.83133679  1
  Li  Li2  1  0.83133679  0.34105347  0.56369032  1
  Li  Li3  1  0.65894653  0.16866321  0.43630968  1
  Li  Li4  1  0.16866321  0.43630968  0.65894653  1
  Li  Li5  1  0.43630968  0.65894653  0.16866321  1
  In  In0  1  0.28390342  0.28390342  0.28390342  1
  In  In1  1  0.71609658  0.71609658  0.71609658  1
  Si  Si0  1  0.89972900  0.89972900  0.89972900  1
  Si  Si1  1  0.10027100  0.10027100  0.10027100  1
  Pt  Pt0  1  0.89666511  0.50000000  0.10333489  1
  Pt  Pt1  1  0.10333489  0.89666511  0.50000000  1
  Pt  Pt2  1  0.50000000  0.10333489  0.89666511  1
  Pt  Pt3  1  0.25741040  1.00000000  0.74258960  1
  Pt  Pt4  1  0.74258960  0.25741040  0.00000000  1
  Pt  Pt5  1  0.00000000  0.74258960  0.25741040  1
loop_
_geom_bond_atom_site_label_1
_geom_bond_atom_site_label_2
_geom_bond_distance
_geom_bond_site_symmetry_2
Li0 Pt5 2.577096 1_655
Li0 Pt1 2.689481 1_555
Li0 Si0 2.791354 1_554
Li0 Pt2 2.842472 1_564
Li0 Pt0 2.849658 1_555
Li0 Pt3 2.930133 1_555
Li1 Pt3 2.577096 1_555
Li1 Pt2 2.689481 1_555
Li1 Si0 2.791355 1_455
Li1 Pt0 2.842473 1_456
Li1 Pt1 2.849658 1_555
Li1 Pt4 2.930133 1_556
Li2 Pt4 2.577095 1_556
Li2 Pt0 2.689481 1_555
Li2 Si0 2.791354 1_545
Li2 Pt1 2.842473 1_645
Li2 Pt2 2.849657 1_555
Li2 Pt5 2.930132 1_655
Li3 Pt4 2.577095 1_555
Li3 Pt2 2.689481 1_555
Li3 Si1 2.791354 1_655
Li3 Pt1 2.842473 1_645
Li3 Pt0 2.849657 1_555
Li3 Pt3 2.930132 1_545
Li4 Pt3 2.577096 1_545
Li4 Pt1 2.689481 1_555
Li4 Si1 2.791354 1_556
Li4 Pt0 2.842473 1_456
Li4 Pt2 2.849658 1_555
Li4 Pt5 2.930132 1_555
Li5 Pt5 2.577096 1_555
Li5 Pt0 2.689481 1_555
Li5 Si1 2.791354 1_565
Li5 Pt2 2.842472 1_564
Li5 Pt1 2.849658 1_555
Li5 Pt4 2.930133 1_555
In0 Li1 2.722380 1_554
In0 Li2 2.722381 1_455
In0 Li0 2.722381 1_545
In0 Pt3 2.781124 1_545
In0 Pt4 2.781125 1_555
In0 Pt5 2.781125 1_555
In0 Li5 2.857127 1_555
In0 Li4 2.857127 1_555
In0 Li3 2.857127 1_555
In0 Pt1 2.904224 1_545
In0 Pt2 2.904224 1_554
In0 Pt0 2.904224 1_455
In0 Si1 3.038301 1_555
In1 Li5 2.722381 1_556
In1 Li3 2.722381 1_565
In1 Li4 2.722381 1_655
In1 Pt4 2.781124 1_556
In1 Pt5 2.781124 1_655
In1 Pt3 2.781125 1_555
In1 Li0 2.857127 1_555
In1 Li1 2.857127 1_555
In1 Li2 2.857127 1_555
In1 Pt1 2.904224 1_655
In1 Pt0 2.904224 1_556
In1 Pt2 2.904224 1_565
In1 Si0 3.038301 1_555
Pt0 Si0 2.424606 1_554
Pt0 Si1 2.424606 1_655
Pt0 Pt4 2.801990 1_555
Pt0 Pt5 2.801990 1_655
Pt1 Si1 2.424606 1_565
Pt1 Si0 2.424606 1_455
Pt1 Pt5 2.801990 1_555
Pt1 Pt3 2.801990 1_555
Pt2 Si1 2.424606 1_556
Pt2 Si0 2.424607 1_545
Pt2 Pt4 2.801990 1_556
Pt2 Pt3 2.801990 1_545
Pt3 Si0 2.458700 1_455
Pt3 Si1 2.458700 1_566
Pt4 Si0 2.458701 1_544
Pt4 Si1 2.458701 1_655
Pt5 Si1 2.458700 1_565
Pt5 Si0 2.458700 1_454
