# generated using pymatgen
data_Zr2SiNiBr2
_symmetry_space_group_name_H-M   'P 1'
_cell_length_a   3.79631463
_cell_length_b   3.79631406
_cell_length_c   10.61116461
_cell_angle_alpha   90.00000000
_cell_angle_beta   90.00000000
_cell_angle_gamma   119.99997933
_symmetry_Int_Tables_number   1
_chemical_formula_structural   Zr2SiNiBr2
_chemical_formula_sum   'Zr2 Si1 Ni1 Br2'
_cell_volume   132.43967456
_cell_formula_units_Z   1
loop_
 _symmetry_equiv_pos_site_id
 _symmetry_equiv_pos_as_xyz
  1  'x, y, z'
loop_
 _atom_site_type_symbol
 _atom_site_label
 _atom_site_symmetry_multiplicity
 _atom_site_fract_x
 _atom_site_fract_y
 _atom_site_fract_z
 _atom_site_occupancy
  Zr  Zr0  1  0.00000000  0.00000000  0.84187129  1
  Zr  Zr1  1  0.00000000  0.00000000  0.16640710  1
  Si  Si0  1  0.66666700  0.33333300  0.01483452  1
  Ni  Ni0  1  0.33333300  0.66666700  0.97610082  1
  Br  Br0  1  0.33333300  0.66666700  0.33465132  1
  Br  Br1  1  0.66666700  0.33333300  0.66613495  1
loop_
_geom_bond_atom_site_label_1
_geom_bond_atom_site_label_2
_geom_bond_distance
_geom_bond_site_symmetry_2
Si0 Zr1 2.718606 1_655
Si0 Zr1 2.718609 1_665
Si0 Zr1 2.718609 1_555
Si0 Zr0 2.858753 1_654
Si0 Zr0 2.858756 1_664
Si0 Zr0 2.858756 1_554
Ni0 Si0 2.230005 1_566
Ni0 Si0 2.230005 1_456
Ni0 Si0 2.230011 1_556
Ni0 Zr0 2.613945 1_565
Ni0 Zr0 2.613949 1_555
Ni0 Zr0 2.613949 1_665
Ni0 Zr1 2.980243 1_566
Ni0 Zr1 2.980246 1_556
Ni0 Zr1 2.980246 1_666
Br0 Zr1 2.826866 1_565
Br0 Zr1 2.826868 1_555
Br0 Zr1 2.826869 1_665
Br1 Zr0 2.877733 1_655
Br1 Zr0 2.877736 1_665
Br1 Zr0 2.877736 1_555
