# generated using pymatgen
data_K6MgTe4
_symmetry_space_group_name_H-M   'P 1'
_cell_length_a   11.03333615
_cell_length_b   11.03333650
_cell_length_c   8.46976584
_cell_angle_alpha   90.00000000
_cell_angle_beta   90.00000000
_cell_angle_gamma   120.00000190
_symmetry_Int_Tables_number   1
_chemical_formula_structural   K6MgTe4
_chemical_formula_sum   'K12 Mg2 Te8'
_cell_volume   892.92655988
_cell_formula_units_Z   2
loop_
 _symmetry_equiv_pos_site_id
 _symmetry_equiv_pos_as_xyz
  1  'x, y, z'
loop_
 _atom_site_type_symbol
 _atom_site_label
 _atom_site_symmetry_multiplicity
 _atom_site_fract_x
 _atom_site_fract_y
 _atom_site_fract_z
 _atom_site_occupancy
  K  K0  1  0.14811418  0.85188582  0.54508365  1
  K  K1  1  0.29622837  0.14811418  0.04508365  1
  K  K2  1  0.85188582  0.70377163  0.04508365  1
  K  K3  1  0.14811418  0.29622837  0.54508365  1
  K  K4  1  0.70377163  0.85188582  0.54508365  1
  K  K5  1  0.85188582  0.14811418  0.04508365  1
  K  K6  1  0.52651598  0.47348402  0.36516211  1
  K  K7  1  0.05303097  0.52651598  0.86516211  1
  K  K8  1  0.47348402  0.94696903  0.86516211  1
  K  K9  1  0.52651598  0.05303097  0.36516211  1
  K  K10  1  0.94696903  0.47348402  0.36516211  1
  K  K11  1  0.47348402  0.52651598  0.86516211  1
  Mg  Mg0  1  0.33333300  0.66666700  0.24936748  1
  Mg  Mg1  1  0.66666700  0.33333300  0.74936748  1
  Te  Te0  1  0.33333300  0.66666700  0.58405236  1
  Te  Te1  1  0.66666700  0.33333300  0.08405236  1
  Te  Te2  1  0.19253379  0.80746621  0.14577962  1
  Te  Te3  1  0.38506759  0.19253379  0.64577962  1
  Te  Te4  1  0.80746621  0.61493241  0.64577962  1
  Te  Te5  1  0.19253379  0.38506759  0.14577962  1
  Te  Te6  1  0.61493241  0.80746621  0.14577962  1
  Te  Te7  1  0.80746621  0.19253379  0.64577962  1
loop_
_geom_bond_atom_site_label_1
_geom_bond_atom_site_label_2
_geom_bond_distance
_geom_bond_site_symmetry_2
K0 Te4 3.444195 1_455
K0 Te3 3.444195 1_565
K0 Te2 3.486916 1_555
K0 Te0 3.554942 1_555
K1 Te2 3.444195 1_545
K1 Te5 3.444195 1_555
K1 Te3 3.486916 1_554
K1 Te1 3.554951 1_555
K2 Te2 3.444195 1_655
K2 Te6 3.444195 1_555
K2 Te4 3.486916 1_554
K2 Te1 3.554952 1_555
K3 Te7 3.444195 1_455
K3 Te3 3.444195 1_555
K3 Te5 3.486916 1_555
K3 Te0 3.554952 1_555
K4 Te7 3.444195 1_565
K4 Te4 3.444195 1_555
K4 Te6 3.486916 1_555
K4 Te0 3.554951 1_555
K5 Te5 3.444195 1_655
K5 Te6 3.444195 1_545
K5 Te7 3.486916 1_554
K5 Te1 3.554942 1_555
K6 Te1 3.583613 1_555
K6 Te4 3.585496 1_555
K6 Te3 3.585496 1_555
K6 Te5 3.793187 1_555
K6 Te6 3.793187 1_555
K7 Te0 3.583613 1_555
K7 Te2 3.585496 1_556
K7 Te5 3.585503 1_556
K7 Te4 3.793177 1_455
K7 Te7 3.793184 1_455
K8 Te0 3.583613 1_555
K8 Te2 3.585496 1_556
K8 Te6 3.585503 1_556
K8 Te3 3.793177 1_565
K8 Te7 3.793184 1_565
K9 Te1 3.583613 1_555
K9 Te7 3.585496 1_555
K9 Te3 3.585503 1_555
K9 Te6 3.793177 1_545
K9 Te2 3.793184 1_545
K10 Te1 3.583613 1_555
K10 Te7 3.585496 1_555
K10 Te4 3.585503 1_555
K10 Te5 3.793177 1_655
K10 Te2 3.793184 1_655
K11 Te0 3.583613 1_555
K11 Te5 3.585496 1_556
K11 Te6 3.585496 1_556
K11 Te4 3.793187 1_555
K11 Te3 3.793187 1_555
Mg0 Te2 2.830144 1_555
Mg0 Te6 2.830153 1_555
Mg0 Te5 2.830153 1_555
Mg0 Te0 2.834703 1_555
Mg1 Te7 2.830144 1_555
Mg1 Te3 2.830153 1_555
Mg1 Te4 2.830153 1_555
Mg1 Te1 2.834703 1_556
