# generated using pymatgen
data_ScCdIO6
_symmetry_space_group_name_H-M   'P 1'
_cell_length_a   5.29885988
_cell_length_b   5.29885829
_cell_length_c   4.75925014
_cell_angle_alpha   90.00000000
_cell_angle_beta   90.00000000
_cell_angle_gamma   119.99999181
_symmetry_Int_Tables_number   1
_chemical_formula_structural   ScCdIO6
_chemical_formula_sum   'Sc1 Cd1 I1 O6'
_cell_volume   115.72679868
_cell_formula_units_Z   1
loop_
 _symmetry_equiv_pos_site_id
 _symmetry_equiv_pos_as_xyz
  1  'x, y, z'
loop_
 _atom_site_type_symbol
 _atom_site_label
 _atom_site_symmetry_multiplicity
 _atom_site_fract_x
 _atom_site_fract_y
 _atom_site_fract_z
 _atom_site_occupancy
  Sc  Sc0  1  0.33333300  0.66666600  0.50000000  1
  Cd  Cd0  1  0.66666700  0.33333300  0.00000000  1
  I  I0  1  0.00000000  0.00000000  0.50000000  1
  O  O0  1  0.01547493  0.30196393  0.27958864  1
  O  O1  1  0.69803507  0.71351100  0.27958864  1
  O  O2  1  0.28648900  0.98452407  0.27958864  1
  O  O3  1  0.28648800  0.30196393  0.72041136  1
  O  O4  1  0.01547493  0.71351100  0.72041136  1
  O  O5  1  0.69803607  0.98452407  0.72041136  1
loop_
_geom_bond_atom_site_label_1
_geom_bond_atom_site_label_2
_geom_bond_distance
_geom_bond_site_symmetry_2
Cd0 O0 2.349806 1_655
Cd0 O4 2.349809 1_654
Cd0 O5 2.349810 1_544
Cd0 O2 2.349810 1_545
Cd0 O1 2.349812 1_555
Cd0 O3 2.349815 1_554
I0 O3 1.880453 1_555
I0 O5 1.880453 1_445
I0 O0 1.880455 1_555
I0 O4 1.880455 1_545
I0 O2 1.880458 1_545
I0 O1 1.880458 1_445
O0 Sc0 2.101640 1_555
O1 Sc0 2.101638 1_555
O2 Sc0 2.101639 1_555
O3 Sc0 2.101637 1_555
O4 Sc0 2.101642 1_555
O5 Sc0 2.101642 1_555
