# generated using pymatgen
data_SrGa4PbCl16
_symmetry_space_group_name_H-M   'P 1'
_cell_length_a   7.07435379
_cell_length_b   7.27004832
_cell_length_c   12.72224402
_cell_angle_alpha   85.38674050
_cell_angle_beta   90.00000000
_cell_angle_gamma   90.00000000
_symmetry_Int_Tables_number   1
_chemical_formula_structural   SrGa4PbCl16
_chemical_formula_sum   'Sr1 Ga4 Pb1 Cl16'
_cell_volume   652.19658798
_cell_formula_units_Z   1
loop_
 _symmetry_equiv_pos_site_id
 _symmetry_equiv_pos_as_xyz
  1  'x, y, z'
loop_
 _atom_site_type_symbol
 _atom_site_label
 _atom_site_symmetry_multiplicity
 _atom_site_fract_x
 _atom_site_fract_y
 _atom_site_fract_z
 _atom_site_occupancy
  Sr  Sr0  1  0.15912887  0.50000000  0.25000000  1
  Ga  Ga0  1  0.26141513  0.31784708  0.92108970  1
  Ga  Ga1  1  0.73889552  0.68036217  0.07817170  1
  Ga  Ga2  1  0.26141513  0.68215292  0.57891030  1
  Ga  Ga3  1  0.73889552  0.31963783  0.42182830  1
  Pb  Pb0  1  0.84721941  0.50000000  0.75000000  1
  Cl  Cl0  1  0.31019252  0.25466998  0.08982970  1
  Cl  Cl1  1  0.17713441  0.60637878  0.88580001  1
  Cl  Cl2  1  0.02218430  0.16092016  0.86433328  1
  Cl  Cl3  1  0.82354240  0.60710633  0.38625388  1
  Cl  Cl4  1  0.52324761  0.74977527  0.65730422  1
  Cl  Cl5  1  0.47524511  0.74676129  0.15619768  1
  Cl  Cl6  1  0.68936027  0.25482045  0.59042901  1
  Cl  Cl7  1  0.31019252  0.74533002  0.41017030  1
  Cl  Cl8  1  0.52324761  0.25022473  0.84269578  1
  Cl  Cl9  1  0.47524511  0.25323871  0.34380232  1
  Cl  Cl10  1  0.17713441  0.39362122  0.61419999  1
  Cl  Cl11  1  0.82354240  0.39289367  0.11374612  1
  Cl  Cl12  1  0.68936027  0.74517955  0.90957099  1
  Cl  Cl13  1  0.97560858  0.83942301  0.13530445  1
  Cl  Cl14  1  0.97560858  0.16057699  0.36469555  1
  Cl  Cl15  1  0.02218430  0.83907984  0.63566672  1
loop_
_geom_bond_atom_site_label_1
_geom_bond_atom_site_label_2
_geom_bond_distance
_geom_bond_site_symmetry_2
Cl0 Ga0 2.186313 1_554
Cl0 Sr0 3.010003 1_555
Cl1 Ga0 2.192182 1_555
Cl1 Pb0 3.040589 1_455
Cl2 Ga0 2.195382 1_555
Cl2 Pb0 3.024550 1_455
Cl3 Ga3 2.186091 1_555
Cl3 Sr0 3.076437 1_655
Cl4 Ga2 2.178591 1_555
Cl4 Pb0 3.097814 1_555
Cl5 Ga1 2.185017 1_555
Cl5 Sr0 3.049459 1_555
Cl6 Ga3 2.187053 1_555
Cl6 Pb0 3.021211 1_555
Cl7 Ga2 2.186313 1_555
Cl7 Sr0 3.010003 1_555
Cl8 Ga0 2.178591 1_555
Cl8 Pb0 3.097814 1_555
Cl9 Ga3 2.185017 1_555
Cl9 Sr0 3.049459 1_555
Cl10 Ga2 2.192182 1_555
Cl10 Pb0 3.040589 1_455
Cl11 Ga1 2.186091 1_555
Cl11 Sr0 3.076437 1_655
Cl12 Ga1 2.187053 1_556
Cl12 Pb0 3.021211 1_555
Cl13 Ga1 2.192031 1_555
Cl13 Sr0 3.053640 1_655
Cl14 Ga3 2.192031 1_555
Cl14 Sr0 3.053640 1_655
Cl15 Ga2 2.195382 1_555
Cl15 Pb0 3.024550 1_455
