# generated using pymatgen
data_Zr4NiPt
_symmetry_space_group_name_H-M   'P 1'
_cell_length_a   5.37438391
_cell_length_b   5.37438413
_cell_length_c   5.37438277
_cell_angle_alpha   104.21956084
_cell_angle_beta   104.21956227
_cell_angle_gamma   120.57883946
_symmetry_Int_Tables_number   1
_chemical_formula_structural   Zr4NiPt
_chemical_formula_sum   'Zr4 Ni1 Pt1'
_cell_volume   116.07630673
_cell_formula_units_Z   1
loop_
 _symmetry_equiv_pos_site_id
 _symmetry_equiv_pos_as_xyz
  1  'x, y, z'
loop_
 _atom_site_type_symbol
 _atom_site_label
 _atom_site_symmetry_multiplicity
 _atom_site_fract_x
 _atom_site_fract_y
 _atom_site_fract_z
 _atom_site_occupancy
  Zr  Zr0  1  0.91129843  0.41129843  0.82259586  1
  Zr  Zr1  1  0.58870157  0.08870157  0.17740414  1
  Zr  Zr2  1  0.08870157  0.91129843  0.50000000  1
  Zr  Zr3  1  0.41129843  0.58870157  0.50000000  1
  Ni  Ni0  1  0.50000000  0.50000000  0.00000000  1
  Pt  Pt0  1  0.00000000  0.00000000  0.00000000  1
loop_
_geom_bond_atom_site_label_1
_geom_bond_atom_site_label_2
_geom_bond_distance
_geom_bond_site_symmetry_2
Ni0 Pt0 2.663647 1_665
Ni0 Pt0 2.663647 1_555
Ni0 Zr2 2.811892 1_655
Ni0 Zr2 2.811892 1_544
Ni0 Zr3 2.811892 1_554
Ni0 Zr3 2.811892 1_555
Ni0 Zr0 2.811893 1_454
Ni0 Zr1 2.811893 1_565
Ni0 Zr0 2.811895 1_554
Ni0 Zr1 2.811895 1_555
Pt0 Zr3 2.811892 1_444
Pt0 Zr3 2.811892 1_555
Pt0 Zr2 2.811892 1_545
Pt0 Zr2 2.811892 1_544
Pt0 Zr1 2.811893 1_555
Pt0 Zr0 2.811893 1_444
Pt0 Zr1 2.811895 1_455
Pt0 Zr0 2.811895 1_454
