# generated using pymatgen
data_CdNi21SnP6
_symmetry_space_group_name_H-M   'P 1'
_cell_length_a   7.77771256
_cell_length_b   7.77771292
_cell_length_c   7.77771256
_cell_angle_alpha   119.99999849
_cell_angle_beta   90.00000000
_cell_angle_gamma   119.99999849
_symmetry_Int_Tables_number   1
_chemical_formula_structural   CdNi21SnP6
_chemical_formula_sum   'Cd1 Ni21 Sn1 P6'
_cell_volume   332.69073668
_cell_formula_units_Z   1
loop_
 _symmetry_equiv_pos_site_id
 _symmetry_equiv_pos_as_xyz
  1  'x, y, z'
loop_
 _atom_site_type_symbol
 _atom_site_label
 _atom_site_symmetry_multiplicity
 _atom_site_fract_x
 _atom_site_fract_y
 _atom_site_fract_z
 _atom_site_occupancy
  Cd  Cd0  1  0.75000100  0.50000100  0.25000000  1
  Ni  Ni0  1  0.00000000  0.00000000  0.00000000  1
  Ni  Ni1  1  0.34739674  0.99852630  0.99926315  1
  Ni  Ni2  1  0.65112955  0.99852630  0.99926315  1
  Ni  Ni3  1  0.00073685  0.34813359  0.99926315  1
  Ni  Ni4  1  0.34739674  0.34813359  0.99926315  1
  Ni  Ni5  1  0.00073685  0.65186641  0.99926315  1
  Ni  Ni6  1  0.65112955  0.65186641  0.99926315  1
  Ni  Ni7  1  0.38303919  0.76607837  0.14911756  1
  Ni  Ni8  1  0.00073685  0.00147370  0.34887045  1
  Ni  Ni9  1  0.00073685  0.34813359  0.34887045  1
  Ni  Ni10  1  0.34739674  0.34813359  0.34887045  1
  Ni  Ni11  1  0.61343503  0.22686907  0.38656497  1
  Ni  Ni12  1  0.15969590  0.77313093  0.38656497  1
  Ni  Ni13  1  0.61343503  0.77313093  0.38656497  1
  Ni  Ni14  1  0.38303919  0.23392163  0.61696081  1
  Ni  Ni15  1  0.85088244  0.23392163  0.61696081  1
  Ni  Ni16  1  0.38303919  0.76607837  0.61696081  1
  Ni  Ni17  1  0.00073685  0.00147370  0.65260326  1
  Ni  Ni18  1  0.00073685  0.65186641  0.65260326  1
  Ni  Ni19  1  0.65112955  0.65186641  0.65260326  1
  Ni  Ni20  1  0.61343503  0.22686907  0.84030410  1
  Sn  Sn0  1  0.25000000  0.50000100  0.75000100  1
  P  P0  1  0.73794425  0.00000000  0.26205575  1
  P  P1  1  0.26205575  0.00000000  0.26205575  1
  P  P2  1  0.26205575  0.52411050  0.26205575  1
  P  P3  1  0.26205575  0.00000000  0.73794425  1
  P  P4  1  0.73794425  0.47588950  0.73794425  1
  P  P5  1  0.73794425  0.00000000  0.73794425  1
loop_
_geom_bond_atom_site_label_1
_geom_bond_atom_site_label_2
_geom_bond_distance
_geom_bond_site_symmetry_2
Cd0 Ni12 2.601758 1_655
Cd0 Ni13 2.601764 1_555
Cd0 Ni20 2.601764 1_554
Cd0 Ni11 2.601770 1_555
Cd0 Ni5 3.000229 1_654
Cd0 Ni8 3.000229 1_665
Cd0 Ni3 3.000232 1_654
Cd0 Ni17 3.000232 1_665
Cd0 Ni6 3.000232 1_554
Cd0 Ni18 3.000235 1_655
Cd0 Ni9 3.000235 1_655
Cd0 Ni4 3.000238 1_554
Cd0 Ni19 3.000239 1_555
Cd0 Ni2 3.000239 1_544
Cd0 Ni10 3.000242 1_555
Cd0 Ni1 3.000242 1_544
Ni0 Ni1 2.707695 1_544
Ni0 Ni17 2.707695 1_554
Ni0 Ni8 2.707695 1_555
Ni0 Ni2 2.707695 1_444
Ni0 Ni9 2.707695 1_555
Ni0 Ni6 2.707695 1_444
Ni0 Ni10 2.707695 1_555
Ni0 Ni3 2.707695 1_554
Ni0 Ni5 2.707695 1_544
Ni0 Ni19 2.707695 1_444
Ni0 Ni4 2.707695 1_554
Ni0 Ni18 2.707695 1_544
Ni0 P2 2.882437 1_555
Ni0 P4 2.882437 1_444
Ni0 P1 2.882442 1_555
Ni0 P0 2.882442 1_455
Ni0 P3 2.882442 1_554
Ni0 P5 2.882442 1_454
Ni1 P3 2.145348 1_565
Ni1 P1 2.145348 1_566
Ni2 P5 2.145348 1_565
Ni2 P0 2.145348 1_566
Ni3 P5 2.145348 1_455
Ni3 P2 2.145350 1_556
Ni4 P2 2.145345 1_556
Ni4 P3 2.145348 1_555
Ni5 P1 2.145348 1_566
Ni5 P4 2.145350 1_455
Ni6 P4 2.145345 1_555
Ni6 P0 2.145348 1_566
Ni7 P0 2.254106 1_565
Ni7 P1 2.254106 1_565
Ni7 P2 2.254112 1_555
Ni7 Sn0 2.534580 1_554
Ni8 P1 2.145348 1_555
Ni8 P0 2.145348 1_455
Ni9 P2 2.145345 1_555
Ni9 P0 2.145348 1_455
Ni10 P2 2.145340 1_555
Ni10 P1 2.145348 1_555
Ni11 P0 2.233635 1_555
Ni11 P1 2.233641 1_555
Ni11 P4 2.233642 1_555
Ni12 P1 2.233635 1_565
Ni12 P3 2.233641 1_565
Ni12 P2 2.233648 1_555
Ni13 P0 2.233635 1_565
Ni13 P5 2.233641 1_565
Ni13 P2 2.233642 1_555
Ni14 P3 2.254106 1_555
Ni14 P1 2.254106 1_555
Ni14 P4 2.254106 1_555
Ni14 Sn0 2.534593 1_555
Ni15 P5 2.254106 1_555
Ni15 P0 2.254106 1_555
Ni15 P4 2.254112 1_555
Ni15 Sn0 2.534586 1_655
Ni16 P5 2.254106 1_565
Ni16 P3 2.254106 1_565
Ni16 P2 2.254106 1_555
Ni16 Sn0 2.534586 1_555
Ni17 P3 2.145348 1_555
Ni17 P5 2.145348 1_455
Ni18 P4 2.145345 1_455
Ni18 P3 2.145348 1_565
Ni19 P4 2.145340 1_555
Ni19 P5 2.145348 1_565
Ni20 P5 2.233635 1_555
Ni20 P3 2.233641 1_555
Ni20 P4 2.233648 1_555
