# generated using pymatgen
data_KSr(RuO3)2
_symmetry_space_group_name_H-M   'P 1'
_cell_length_a   5.62525095
_cell_length_b   9.58859731
_cell_length_c   5.62521884
_cell_angle_alpha   90.00027316
_cell_angle_beta   119.99979034
_cell_angle_gamma   90.00011265
_symmetry_Int_Tables_number   1
_chemical_formula_structural   KSr(RuO3)2
_chemical_formula_sum   'K2 Sr2 Ru4 O12'
_cell_volume   262.76526348
_cell_formula_units_Z   2
loop_
 _symmetry_equiv_pos_site_id
 _symmetry_equiv_pos_as_xyz
  1  'x, y, z'
loop_
 _atom_site_type_symbol
 _atom_site_label
 _atom_site_symmetry_multiplicity
 _atom_site_fract_x
 _atom_site_fract_y
 _atom_site_fract_z
 _atom_site_occupancy
  K  K0  1  0.99998688  0.50361246  0.00003226  1
  K  K1  1  0.99999592  0.99624837  0.99999938  1
  Sr  Sr0  1  0.66666807  0.74986473  0.33333234  1
  Sr  Sr1  1  0.33332487  0.25010874  0.66664993  1
  Ru  Ru0  1  0.33333532  0.89102115  0.66666884  1
  Ru  Ru1  1  0.33333654  0.60900791  0.66666517  1
  Ru  Ru2  1  0.66666452  0.10927020  0.33333462  1
  Ru  Ru3  1  0.66666661  0.39075669  0.33332852  1
  O  O0  1  0.49996075  0.50396286  0.50003052  1
  O  O1  1  0.49996400  0.50396677  0.99992158  1
  O  O2  1  0.00008182  0.50396141  0.50003418  1
  O  O3  1  0.49993904  0.99604332  0.50006425  1
  O  O4  1  0.49994117  0.99603999  0.99988026  1
  O  O5  1  0.00012446  0.99604222  0.50006331  1
  O  O6  1  0.18298230  0.75000605  0.81702849  1
  O  O7  1  0.18298287  0.75000647  0.36595074  1
  O  O8  1  0.63405111  0.75000779  0.81702328  1
  O  O9  1  0.81448733  0.25002153  0.18550729  1
  O  O10  1  0.81448519  0.25002814  0.62897526  1
  O  O11  1  0.37102323  0.25002419  0.18550977  1
loop_
_geom_bond_atom_site_label_1
_geom_bond_atom_site_label_2
_geom_bond_distance
_geom_bond_site_symmetry_2
K0 O2 2.812355 1_655
K0 O1 2.812445 1_554
K0 O0 2.812550 1_655
K0 O0 2.812707 1_554
K0 O1 2.812810 1_654
K0 O2 2.812868 1_654
K0 O7 2.959625 1_655
K0 O8 2.959708 1_554
K0 O6 2.959870 1_654
K0 O9 3.029638 1_555
K0 O11 3.029808 1_655
K0 O10 3.029815 1_554
K1 O4 2.812599 1_555
K1 O3 2.812605 1_555
K1 O5 2.812608 1_656
K1 O5 2.812612 1_655
K1 O3 2.812650 1_656
K1 O4 2.812653 1_655
K1 O8 2.958536 1_555
K1 O7 2.958576 1_656
K1 O6 2.958584 1_655
K1 O9 3.031158 1_566
K1 O11 3.031211 1_666
K1 O10 3.031243 1_565
O0 Ru1 1.910568 1_555
O0 Ru3 1.953559 1_555
O0 Sr0 2.863139 1_555
O0 Sr1 2.925847 1_555
O1 Ru1 1.910546 1_555
O1 Ru3 1.953584 1_556
O1 Sr0 2.863112 1_556
O1 Sr1 2.925911 1_555
O2 Ru1 1.910564 1_555
O2 Ru3 1.953586 1_455
O2 Sr0 2.863183 1_455
O2 Sr1 2.925812 1_555
O3 Ru0 1.910246 1_555
O3 Ru2 1.953863 1_565
O3 Sr0 2.865473 1_555
O3 Sr1 2.927378 1_565
O4 Ru0 1.910236 1_555
O4 Ru2 1.953871 1_566
O4 Sr0 2.865434 1_556
O4 Sr1 2.927499 1_565
O5 Ru0 1.910262 1_555
O5 Ru2 1.953900 1_465
O5 Sr0 2.865453 1_455
O5 Sr1 2.927389 1_565
O6 Ru1 1.993483 1_555
O6 Ru0 1.993579 1_555
O6 Sr0 2.817082 1_556
O6 Sr0 2.817142 1_455
O7 Ru1 1.993483 1_555
O7 Ru0 1.993588 1_555
O7 Sr0 2.817078 1_555
O7 Sr0 2.817144 1_455
O8 Ru1 1.993487 1_555
O8 Ru0 1.993589 1_555
O8 Sr0 2.817091 1_555
O8 Sr0 2.817098 1_556
O9 Ru3 1.973658 1_555
O9 Ru2 1.973797 1_555
O9 Sr1 2.818560 1_655
O9 Sr1 2.818669 1_554
O10 Ru3 1.973640 1_555
O10 Ru2 1.973798 1_555
O10 Sr1 2.818593 1_555
O10 Sr1 2.818622 1_655
O11 Ru3 1.973649 1_555
O11 Ru2 1.973792 1_555
O11 Sr1 2.818539 1_555
O11 Sr1 2.818659 1_554
