# generated using pymatgen
data_NbAg2OsF12
_symmetry_space_group_name_H-M   'P 1'
_cell_length_a   4.99168262
_cell_length_b   4.99168262
_cell_length_c   9.25953453
_cell_angle_alpha   90.00000000
_cell_angle_beta   90.00000000
_cell_angle_gamma   92.10132265
_symmetry_Int_Tables_number   1
_chemical_formula_structural   NbAg2OsF12
_chemical_formula_sum   'Nb1 Ag2 Os1 F12'
_cell_volume   230.56370532
_cell_formula_units_Z   1
loop_
 _symmetry_equiv_pos_site_id
 _symmetry_equiv_pos_as_xyz
  1  'x, y, z'
loop_
 _atom_site_type_symbol
 _atom_site_label
 _atom_site_symmetry_multiplicity
 _atom_site_fract_x
 _atom_site_fract_y
 _atom_site_fract_z
 _atom_site_occupancy
  Nb  Nb0  1  0.00000000  0.00000000  0.00000000  1
  Ag  Ag0  1  0.50000000  0.50000000  0.26335233  1
  Ag  Ag1  1  0.50000000  0.50000000  0.73664767  1
  Os  Os0  1  0.00000000  0.00000000  0.50000000  1
  F  F0  1  0.19018704  0.80981296  0.35693155  1
  F  F1  1  0.80981296  0.19018704  0.35693155  1
  F  F2  1  0.80088855  0.80088855  0.14617099  1
  F  F3  1  0.19911145  0.19911145  0.14617099  1
  F  F4  1  0.26851708  0.73148292  0.00000000  1
  F  F5  1  0.72391831  0.72391831  0.50000000  1
  F  F6  1  0.27608169  0.27608169  0.50000000  1
  F  F7  1  0.73148292  0.26851708  0.00000000  1
  F  F8  1  0.19911145  0.19911145  0.85382901  1
  F  F9  1  0.19018704  0.80981296  0.64306845  1
  F  F10  1  0.80981296  0.19018704  0.64306845  1
  F  F11  1  0.80088855  0.80088855  0.85382901  1
loop_
_geom_bond_atom_site_label_1
_geom_bond_atom_site_label_2
_geom_bond_distance
_geom_bond_site_symmetry_2
Ag0 F2 2.350222 1_555
Ag0 F3 2.350222 1_555
Ag0 F0 2.389447 1_555
Ag0 F1 2.389447 1_555
Ag0 F5 2.684881 1_555
Ag0 F6 2.684881 1_555
Ag1 F11 2.350222 1_555
Ag1 F8 2.350222 1_555
Ag1 F9 2.389447 1_555
Ag1 F10 2.389447 1_555
Ag1 F5 2.684881 1_555
Ag1 F6 2.684881 1_555
F0 Os0 1.903574 1_565
F1 Os0 1.903574 1_655
F2 Nb0 1.932649 1_665
F3 Nb0 1.932649 1_555
F4 Nb0 1.929983 1_565
F5 Os0 1.912880 1_665
F6 Os0 1.912880 1_555
F7 Nb0 1.929983 1_655
F8 Nb0 1.932649 1_556
F9 Os0 1.903574 1_565
F10 Os0 1.903574 1_655
F11 Nb0 1.932649 1_666
