# generated using pymatgen
data_K3Na2GeP3
_symmetry_space_group_name_H-M   'P 1'
_cell_length_a   10.37138416
_cell_length_b   10.37138456
_cell_length_c   14.57012876
_cell_angle_alpha   90.00000000
_cell_angle_beta   90.00000000
_cell_angle_gamma   142.87150851
_symmetry_Int_Tables_number   1
_chemical_formula_structural   K3Na2GeP3
_chemical_formula_sum   'K12 Na8 Ge4 P12'
_cell_volume   945.99608187
_cell_formula_units_Z   4
loop_
 _symmetry_equiv_pos_site_id
 _symmetry_equiv_pos_as_xyz
  1  'x, y, z'
loop_
 _atom_site_type_symbol
 _atom_site_label
 _atom_site_symmetry_multiplicity
 _atom_site_fract_x
 _atom_site_fract_y
 _atom_site_fract_z
 _atom_site_occupancy
  K  K0  1  0.93193169  0.60414076  0.82543135  1
  K  K1  1  0.56806831  0.89585924  0.32543135  1
  K  K2  1  0.39585924  0.06806831  0.17456865  1
  K  K3  1  0.06806831  0.39585924  0.17456865  1
  K  K4  1  0.89585924  0.56806831  0.32543135  1
  K  K5  1  0.43193169  0.10414076  0.67456865  1
  K  K6  1  0.60414076  0.93193169  0.82543135  1
  K  K7  1  0.25675429  0.25675429  0.32061694  1
  K  K8  1  0.75675429  0.75675429  0.17938306  1
  K  K9  1  0.24324571  0.24324571  0.82061694  1
  K  K10  1  0.74324571  0.74324571  0.67938306  1
  K  K11  1  0.10414076  0.43193169  0.67456865  1
  Na  Na0  1  0.92096195  0.07903805  0.00000000  1
  Na  Na1  1  0.57903805  0.42096195  0.50000000  1
  Na  Na2  1  0.07903805  0.92096195  0.00000000  1
  Na  Na3  1  0.42096195  0.57903805  0.50000000  1
  Na  Na4  1  0.75566207  0.24433793  0.00000000  1
  Na  Na5  1  0.74433793  0.25566207  0.50000000  1
  Na  Na6  1  0.24433793  0.75566207  0.00000000  1
  Na  Na7  1  0.25566207  0.74433793  0.50000000  1
  Ge  Ge0  1  0.58639475  0.41360525  0.00000000  1
  Ge  Ge1  1  0.91360525  0.08639475  0.50000000  1
  Ge  Ge2  1  0.41360525  0.58639475  0.00000000  1
  Ge  Ge3  1  0.08639475  0.91360525  0.50000000  1
  P  P0  1  0.86057033  0.55355248  0.09799660  1
  P  P1  1  0.44644752  0.13942967  0.90200340  1
  P  P2  1  0.63942967  0.94644752  0.59799660  1
  P  P3  1  0.94644752  0.63942967  0.59799660  1
  P  P4  1  0.13942967  0.44644752  0.90200340  1
  P  P5  1  0.55355248  0.86057033  0.09799660  1
  P  P6  1  0.36057033  0.05355248  0.40200340  1
  P  P7  1  0.18846751  0.18846751  0.58501865  1
  P  P8  1  0.68846751  0.68846751  0.91498135  1
  P  P9  1  0.31153249  0.31153249  0.08501865  1
  P  P10  1  0.05355248  0.36057033  0.40200340  1
  P  P11  1  0.81153249  0.81153249  0.41498135  1
loop_
_geom_bond_atom_site_label_1
_geom_bond_atom_site_label_2
_geom_bond_distance
_geom_bond_site_symmetry_2
K0 P3 3.324112 1_555
K0 P1 3.336180 1_555
K0 P8 3.516337 1_555
K0 P1 3.647206 1_665
K0 P4 3.763399 1_655
K1 P5 3.324112 1_555
K1 P10 3.336180 1_665
K1 P11 3.516337 1_555
K1 P10 3.647206 1_555
K1 P6 3.763399 1_565
K2 P6 3.324112 1_555
K2 P0 3.336180 1_555
K2 P9 3.516337 1_555
K2 P0 3.647206 1_445
K2 P5 3.763399 1_545
K3 P10 3.324112 1_555
K3 P5 3.336180 1_555
K3 P9 3.516337 1_555
K3 P5 3.647206 1_445
K3 P0 3.763399 1_455
K4 P0 3.324112 1_555
K4 P6 3.336180 1_665
K4 P11 3.516337 1_555
K4 P6 3.647206 1_555
K4 P10 3.763399 1_655
K5 P1 3.324112 1_555
K5 P3 3.336180 1_445
K5 P7 3.516337 1_555
K5 P3 3.647206 1_555
K5 P2 3.763399 1_545
K6 P2 3.324112 1_555
K6 P4 3.336180 1_555
K6 P8 3.516337 1_555
K6 P4 3.647206 1_665
K6 P1 3.763399 1_565
K7 P11 3.245759 1_445
K7 P10 3.259645 1_555
K7 P6 3.259645 1_555
K7 P9 3.451706 1_555
K8 P9 3.245759 1_555
K8 P5 3.259645 1_555
K8 P0 3.259645 1_555
K8 P11 3.451706 1_555
K9 P8 3.245759 1_555
K9 P1 3.259645 1_555
K9 P4 3.259645 1_555
K9 P7 3.451706 1_555
K10 P7 3.245759 1_665
K10 P3 3.259645 1_555
K10 P2 3.259645 1_555
K10 P8 3.451706 1_555
K11 P4 3.324112 1_555
K11 P2 3.336180 1_445
K11 P7 3.516337 1_555
K11 P2 3.647206 1_555
K11 P3 3.763399 1_455
Na0 P5 2.815203 1_545
Na0 P4 2.815203 1_654
Na0 P9 2.860488 1_655
Na0 P8 2.860488 1_544
Na1 P3 2.815203 1_555
Na1 P6 2.815203 1_555
Na1 P7 2.860488 1_555
Na1 P11 2.860488 1_555
Na2 P1 2.815203 1_564
Na2 P0 2.815203 1_455
Na2 P8 2.860488 1_454
Na2 P9 2.860488 1_565
Na3 P10 2.815203 1_555
Na3 P2 2.815203 1_555
Na3 P11 2.860488 1_555
Na3 P7 2.860488 1_555
Na4 P1 2.818381 1_554
Na4 P0 2.818381 1_555
Na4 P4 2.995142 1_654
Na4 P5 2.995142 1_545
Na5 P10 2.818381 1_655
Na5 P2 2.818381 1_545
Na5 P6 2.995142 1_555
Na5 P3 2.995142 1_555
Na6 P5 2.818381 1_555
Na6 P4 2.818381 1_554
Na6 P0 2.995142 1_455
Na6 P1 2.995142 1_564
Na7 P3 2.818381 1_455
Na7 P6 2.818381 1_565
Na7 P2 2.995142 1_555
Na7 P10 2.995142 1_555
Ge0 P0 2.376985 1_555
Ge0 P1 2.376985 1_554
Ge0 P9 2.443255 1_555
Ge0 P8 2.443255 1_554
Ge1 P2 2.376985 1_545
Ge1 P10 2.376985 1_655
Ge1 P7 2.443255 1_655
Ge1 P11 2.443255 1_545
Ge2 P4 2.376985 1_554
Ge2 P5 2.376985 1_555
Ge2 P8 2.443255 1_554
Ge2 P9 2.443255 1_555
Ge3 P6 2.376985 1_565
Ge3 P3 2.376985 1_455
Ge3 P11 2.443255 1_455
Ge3 P7 2.443255 1_565
