# generated using pymatgen
data_Zn8Pd3PtO16
_symmetry_space_group_name_H-M   'P 1'
_cell_length_a   6.03723394
_cell_length_b   6.04721753
_cell_length_c   8.46346365
_cell_angle_alpha   90.24308795
_cell_angle_beta   90.00000000
_cell_angle_gamma   90.00000000
_symmetry_Int_Tables_number   1
_chemical_formula_structural   Zn8Pd3PtO16
_chemical_formula_sum   'Zn8 Pd3 Pt1 O16'
_cell_volume   308.98530144
_cell_formula_units_Z   1
loop_
 _symmetry_equiv_pos_site_id
 _symmetry_equiv_pos_as_xyz
  1  'x, y, z'
loop_
 _atom_site_type_symbol
 _atom_site_label
 _atom_site_symmetry_multiplicity
 _atom_site_fract_x
 _atom_site_fract_y
 _atom_site_fract_z
 _atom_site_occupancy
  Zn  Zn0  1  0.00029893  0.23321973  0.00127788  1
  Zn  Zn1  1  0.00029893  0.76678027  0.49872212  1
  Zn  Zn2  1  0.25165085  0.25232929  0.62433294  1
  Zn  Zn3  1  0.25165085  0.74767071  0.87566706  1
  Zn  Zn4  1  0.23457200  0.00000000  0.25000000  1
  Zn  Zn5  1  0.76579078  0.00000000  0.75000000  1
  Zn  Zn6  1  0.74816740  0.25114237  0.37467275  1
  Zn  Zn7  1  0.74816740  0.74885763  0.12532725  1
  Pd  Pd0  1  0.24804344  0.50000000  0.25000000  1
  Pd  Pd1  1  0.49944291  0.75309695  0.49912289  1
  Pd  Pd2  1  0.49944291  0.24690305  0.00087711  1
  Pt  Pt0  1  0.75163913  0.50000000  0.75000000  1
  O  O0  1  0.51960464  0.74466985  0.73652407  1
  O  O1  1  0.51960464  0.25533015  0.76347593  1
  O  O2  1  0.73813701  0.98241075  0.50412772  1
  O  O3  1  0.73813701  0.01758925  0.99587228  1
  O  O4  1  0.74374350  0.52148584  0.51157859  1
  O  O5  1  0.74374350  0.47851416  0.98842141  1
  O  O6  1  0.98272382  0.73944105  0.74476778  1
  O  O7  1  0.98272382  0.26055895  0.75523222  1
  O  O8  1  0.01879080  0.73830211  0.25381235  1
  O  O9  1  0.01879080  0.26169789  0.24618765  1
  O  O10  1  0.25608472  0.52034907  0.48720681  1
  O  O11  1  0.25608472  0.47965093  0.01279319  1
  O  O12  1  0.26173535  0.98225000  0.49512613  1
  O  O13  1  0.26173535  0.01775000  0.00487387  1
  O  O14  1  0.47959840  0.74375273  0.26231772  1
  O  O15  1  0.47959840  0.25624727  0.23768228  1
loop_
_geom_bond_atom_site_label_1
_geom_bond_atom_site_label_2
_geom_bond_distance
_geom_bond_site_symmetry_2
O0 Zn3 2.000979 1_555
O0 Pd1 2.013781 1_555
O0 Pt0 2.041064 1_555
O0 Zn5 2.145834 1_565
O1 Zn2 2.000979 1_555
O1 Pd2 2.013781 1_556
O1 Pt0 2.041064 1_555
O1 Zn5 2.145834 1_555
O2 Zn6 1.964708 1_565
O2 Pd1 2.000223 1_555
O2 Zn1 2.051086 1_655
O2 Zn5 2.089876 1_565
O3 Zn7 1.964708 1_546
O3 Pd2 2.000223 1_556
O3 Zn0 2.051086 1_656
O3 Zn5 2.089876 1_555
O4 Zn6 1.999969 1_555
O4 Pt0 2.023161 1_555
O4 Pd1 2.037004 1_555
O4 Zn1 2.147691 1_655
O5 Zn7 1.999969 1_556
O5 Pt0 2.023161 1_555
O5 Pd2 2.037004 1_556
O5 Zn0 2.147691 1_656
O6 Zn3 1.966053 1_655
O6 Pt0 2.011320 1_555
O6 Zn5 2.049222 1_565
O6 Zn1 2.092342 1_655
O7 Zn2 1.966053 1_655
O7 Pt0 2.011320 1_555
O7 Zn5 2.049222 1_555
O7 Zn0 2.092342 1_656
O8 Zn7 1.963803 1_455
O8 Pd0 1.998228 1_555
O8 Zn4 2.050123 1_565
O8 Zn1 2.082193 1_555
O9 Zn6 1.963803 1_455
O9 Pd0 1.998228 1_555
O9 Zn4 2.050123 1_555
O9 Zn0 2.082193 1_555
O10 Zn2 1.997621 1_555
O10 Pd0 2.011424 1_555
O10 Pd1 2.036796 1_555
O10 Zn1 2.147953 1_555
O11 Zn3 1.997621 1_554
O11 Pd0 2.011424 1_555
O11 Pd2 2.036796 1_555
O11 Zn0 2.147953 1_555
O12 Zn2 1.962603 1_565
O12 Pd1 1.995323 1_555
O12 Zn1 2.047010 1_555
O12 Zn4 2.084307 1_565
O13 Zn3 1.962603 1_544
O13 Pd2 1.995323 1_555
O13 Zn0 2.047010 1_555
O13 Zn4 2.084307 1_555
O14 Zn7 1.993610 1_555
O14 Pd1 2.008325 1_555
O14 Pd0 2.033860 1_555
O14 Zn4 2.145162 1_565
O15 Zn6 1.993610 1_555
O15 Pd2 2.008325 1_555
O15 Pd0 2.033860 1_555
O15 Zn4 2.145162 1_555
