# generated using pymatgen
data_LiDySe2
_symmetry_space_group_name_H-M   'P 1'
_cell_length_a   7.03459202
_cell_length_b   7.03459202
_cell_length_c   7.03459202
_cell_angle_alpha   132.53464419
_cell_angle_beta   132.53464419
_cell_angle_gamma   69.38591400
_symmetry_Int_Tables_number   1
_chemical_formula_structural   LiDySe2
_chemical_formula_sum   'Li2 Dy2 Se4'
_cell_volume   185.45072016
_cell_formula_units_Z   2
loop_
 _symmetry_equiv_pos_site_id
 _symmetry_equiv_pos_as_xyz
  1  'x, y, z'
loop_
 _atom_site_type_symbol
 _atom_site_label
 _atom_site_symmetry_multiplicity
 _atom_site_fract_x
 _atom_site_fract_y
 _atom_site_fract_z
 _atom_site_occupancy
  Li  Li0  1  0.00000000  0.00000000  -0.00000000  1
  Li  Li1  1  0.75000000  0.25000000  0.50000000  1
  Dy  Dy0  1  0.50000000  0.50000000  -0.00000000  1
  Dy  Dy1  1  0.25000000  0.75000000  0.50000000  1
  Se  Se0  1  0.74566565  0.74566565  -0.00000000  1
  Se  Se1  1  0.25433435  0.25433435  0.00000000  1
  Se  Se2  1  0.00433435  0.50433435  0.50000000  1
  Se  Se3  1  0.49566565  0.99566565  0.50000000  1
loop_
_geom_bond_atom_site_label_1
_geom_bond_atom_site_label_2
_geom_bond_distance
_geom_bond_site_symmetry_2
Li0 Se3 2.831656 1_545
Li0 Se2 2.831656 1_544
Li0 Se3 2.831656 1_444
Li0 Se2 2.831656 1_555
Li0 Se0 2.942109 1_445
Li0 Se1 2.942109 1_555
Li1 Se1 2.831656 1_656
Li1 Se0 2.831656 1_556
Li1 Se1 2.831656 1_555
Li1 Se0 2.831656 1_545
Li1 Se3 2.942109 1_545
Li1 Se2 2.942109 1_655
Dy0 Se3 2.831656 1_544
Dy0 Se2 2.831656 1_655
Dy0 Se2 2.831656 1_554
Dy0 Se3 2.831656 1_555
Dy0 Se1 2.841831 1_555
Dy0 Se0 2.841831 1_555
Dy1 Se1 2.831656 1_566
Dy1 Se0 2.831656 1_556
Dy1 Se1 2.831656 1_555
Dy1 Se0 2.831656 1_455
Dy1 Se2 2.841831 1_555
Dy1 Se3 2.841831 1_555
