# generated using pymatgen
data_KSb12Ir3Ru
_symmetry_space_group_name_H-M   'P 1'
_cell_length_a   8.11357083
_cell_length_b   8.11357062
_cell_length_c   8.09976426
_cell_angle_alpha   109.43675402
_cell_angle_beta   109.43675348
_cell_angle_gamma   109.50566287
_symmetry_Int_Tables_number   1
_chemical_formula_structural   KSb12Ir3Ru
_chemical_formula_sum   'K1 Sb12 Ir3 Ru1'
_cell_volume   410.63797783
_cell_formula_units_Z   1
loop_
 _symmetry_equiv_pos_site_id
 _symmetry_equiv_pos_as_xyz
  1  'x, y, z'
loop_
 _atom_site_type_symbol
 _atom_site_label
 _atom_site_symmetry_multiplicity
 _atom_site_fract_x
 _atom_site_fract_y
 _atom_site_fract_z
 _atom_site_occupancy
  K  K0  1  0.00000000  0.00000000  0.00000000  1
  Sb  Sb0  1  0.84542560  0.66131425  0.50303613  1
  Sb  Sb1  1  0.15457440  0.33868575  0.49696387  1
  Sb  Sb2  1  0.15503027  0.65719484  0.81158796  1
  Sb  Sb3  1  0.84496973  0.34280516  0.18841204  1
  Sb  Sb4  1  0.65719484  0.50216357  0.84560688  1
  Sb  Sb5  1  0.34280516  0.49783643  0.15439312  1
  Sb  Sb6  1  0.66131425  0.81588965  0.15827912  1
  Sb  Sb7  1  0.33868575  0.18411035  0.84172088  1
  Sb  Sb8  1  0.50216357  0.84496973  0.65655669  1
  Sb  Sb9  1  0.49783643  0.15503027  0.34344331  1
  Sb  Sb10  1  0.18411035  0.84542560  0.34239046  1
  Sb  Sb11  1  0.81588965  0.15457440  0.65760954  1
  Ir  Ir0  1  0.50000000  0.50000000  0.50000000  1
  Ir  Ir1  1  0.50000000  0.00000000  0.00000000  1
  Ir  Ir2  1  0.00000000  0.50000000  0.00000000  1
  Ru  Ru0  1  0.00000000  0.00000000  0.50000000  1
loop_
_geom_bond_atom_site_label_1
_geom_bond_atom_site_label_2
_geom_bond_distance
_geom_bond_site_symmetry_2
K0 Sb1 3.507727 1_555
K0 Sb0 3.507727 1_444
K0 Sb10 3.507731 1_545
K0 Sb11 3.507731 1_454
K0 Sb7 3.507731 1_554
K0 Sb6 3.507731 1_445
K0 Sb2 3.526489 1_544
K0 Sb3 3.526489 1_455
K0 Sb5 3.526496 1_555
K0 Sb4 3.526496 1_444
K0 Sb9 3.526498 1_555
K0 Sb8 3.526498 1_444
Sb0 Sb2 2.913882 1_655
Sb0 Sb3 2.962596 1_555
Sb1 Sb3 2.913882 1_455
Sb1 Sb2 2.962596 1_555
Sb4 Sb6 2.913896 1_556
Sb4 Sb7 2.962591 1_555
Sb5 Sb7 2.913896 1_554
Sb5 Sb6 2.962591 1_555
Sb10 Sb9 2.913891 1_565
Sb10 Sb8 2.962586 1_555
Sb11 Sb8 2.913891 1_545
Sb11 Sb9 2.962586 1_555
Ir0 Sb8 2.651903 1_555
Ir0 Sb9 2.651903 1_555
Ir0 Sb4 2.653196 1_555
Ir0 Sb5 2.653196 1_555
Ir0 Sb0 2.655468 1_555
Ir0 Sb1 2.655468 1_555
Ir1 Sb3 2.651900 1_555
Ir1 Sb2 2.651900 1_544
Ir1 Sb9 2.653195 1_555
Ir1 Sb8 2.653195 1_544
Ir1 Sb6 2.655465 1_545
Ir1 Sb7 2.655465 1_554
Ir2 Sb5 2.651896 1_555
Ir2 Sb4 2.651896 1_454
Ir2 Sb3 2.653192 1_455
Ir2 Sb2 2.653192 1_554
Ir2 Sb10 2.655473 1_555
Ir2 Sb11 2.655473 1_454
Ru0 Sb11 2.624634 1_455
Ru0 Sb10 2.624634 1_545
Ru0 Sb7 2.624642 1_555
Ru0 Sb6 2.624642 1_445
Ru0 Sb1 2.624646 1_555
Ru0 Sb0 2.624646 1_445
