# generated using pymatgen
data_Ba2Ag3(PdO2)7
_symmetry_space_group_name_H-M   'P 1'
_cell_length_a   6.08452885
_cell_length_b   6.08452875
_cell_length_c   10.99053305
_cell_angle_alpha   89.93547664
_cell_angle_beta   89.93547480
_cell_angle_gamma   60.97068844
_symmetry_Int_Tables_number   1
_chemical_formula_structural   Ba2Ag3(PdO2)7
_chemical_formula_sum   'Ba2 Ag3 Pd7 O14'
_cell_volume   355.76917521
_cell_formula_units_Z   1
loop_
 _symmetry_equiv_pos_site_id
 _symmetry_equiv_pos_as_xyz
  1  'x, y, z'
loop_
 _atom_site_type_symbol
 _atom_site_label
 _atom_site_symmetry_multiplicity
 _atom_site_fract_x
 _atom_site_fract_y
 _atom_site_fract_z
 _atom_site_occupancy
  Ba  Ba0  1  0.49916572  0.49916572  0.71193553  1
  Ba  Ba1  1  0.50083428  0.50083428  0.28806447  1
  Ag  Ag0  1  0.83232492  0.83232492  0.19518090  1
  Ag  Ag1  1  0.16767508  0.16767508  0.80481910  1
  Ag  Ag2  1  0.00000000  0.00000000  0.50000000  1
  Pd  Pd0  1  0.00000000  0.00000000  0.00000000  1
  Pd  Pd1  1  0.83350535  0.83350535  0.77547496  1
  Pd  Pd2  1  0.16649465  0.16649465  0.22452504  1
  Pd  Pd3  1  0.00000000  0.50000000  0.00000000  1
  Pd  Pd4  1  0.50000000  0.00000000  0.50000000  1
  Pd  Pd5  1  0.00000000  0.50000000  0.50000000  1
  Pd  Pd6  1  0.50000000  0.00000000  0.00000000  1
  O  O0  1  0.68862160  0.12650811  0.89668941  1
  O  O1  1  0.68619616  0.68619616  0.89845034  1
  O  O2  1  0.48399980  0.00428958  0.31802153  1
  O  O3  1  0.36334734  0.36334734  0.50084515  1
  O  O4  1  0.99571042  0.51600020  0.68197847  1
  O  O5  1  0.00558819  0.00558819  0.31677782  1
  O  O6  1  0.51600020  0.99571042  0.68197847  1
  O  O7  1  0.12650811  0.68862160  0.89668941  1
  O  O8  1  0.31137840  0.87349189  0.10331059  1
  O  O9  1  0.63665266  0.63665266  0.49915485  1
  O  O10  1  0.31380384  0.31380384  0.10154966  1
  O  O11  1  0.00428958  0.48399980  0.31802153  1
  O  O12  1  0.99441181  0.99441181  0.68322218  1
  O  O13  1  0.87349189  0.31137840  0.10331059  1
loop_
_geom_bond_atom_site_label_1
_geom_bond_atom_site_label_2
_geom_bond_distance
_geom_bond_site_symmetry_2
Ba0 O3 2.723903 1_555
Ba0 O9 2.745704 1_555
Ba0 O7 2.837503 1_555
Ba0 O0 2.837503 1_555
Ba0 O1 2.838922 1_555
Ba0 O6 3.033200 1_545
Ba0 O4 3.033200 1_455
Ba0 O6 3.089468 1_555
Ba0 O4 3.089468 1_555
Ba0 O12 3.103287 1_545
Ba0 O12 3.103287 1_455
Ba1 O9 2.723903 1_555
Ba1 O3 2.745704 1_555
Ba1 O13 2.837503 1_555
Ba1 O8 2.837503 1_555
Ba1 O10 2.838922 1_555
Ba1 O2 3.033200 1_565
Ba1 O11 3.033200 1_655
Ba1 O2 3.089468 1_555
Ba1 O11 3.089468 1_555
Ba1 O5 3.103287 1_565
Ba1 O5 3.103287 1_655
Ag0 O5 2.256935 1_665
Ag0 O2 2.292140 1_565
Ag0 O11 2.292140 1_655
Ag1 O12 2.256935 1_445
Ag1 O6 2.292140 1_545
Ag1 O4 2.292140 1_455
Ag2 O12 2.014485 1_445
Ag2 O5 2.014485 1_555
O0 Pd6 2.012794 1_556
O0 Pd0 2.014629 1_656
O0 Pd1 2.051260 1_545
O1 Pd6 2.019247 1_566
O1 Pd3 2.019247 1_656
O1 Pd1 2.051263 1_555
O2 Pd2 1.978345 1_555
O2 Pd4 2.002043 1_555
O3 Pd4 1.948095 1_555
O3 Pd5 1.948095 1_555
O4 Pd1 1.978345 1_555
O4 Pd5 2.002043 1_655
O5 Pd2 1.967443 1_555
O6 Pd1 1.978345 1_555
O6 Pd4 2.002043 1_565
O7 Pd3 2.012794 1_556
O7 Pd0 2.014629 1_566
O7 Pd1 2.051260 1_455
O8 Pd6 2.012794 1_565
O8 Pd0 2.014629 1_565
O8 Pd2 2.051260 1_565
O9 Pd4 1.948095 1_565
O9 Pd5 1.948095 1_655
O10 Pd6 2.019247 1_555
O10 Pd3 2.019247 1_555
O10 Pd2 2.051263 1_555
O11 Pd2 1.978345 1_555
O11 Pd5 2.002043 1_555
O12 Pd1 1.967443 1_555
O13 Pd3 2.012794 1_655
O13 Pd0 2.014629 1_655
O13 Pd2 2.051260 1_655
