# generated using pymatgen
data_Sc6Al16Ni2Os5
_symmetry_space_group_name_H-M   'P 1'
_cell_length_a   8.64582303
_cell_length_b   8.64582294
_cell_length_c   8.71787943
_cell_angle_alpha   59.72392379
_cell_angle_beta   59.72392414
_cell_angle_gamma   60.55495619
_symmetry_Int_Tables_number   1
_chemical_formula_structural   Sc6Al16Ni2Os5
_chemical_formula_sum   'Sc6 Al16 Ni2 Os5'
_cell_volume   460.74060527
_cell_formula_units_Z   1
loop_
 _symmetry_equiv_pos_site_id
 _symmetry_equiv_pos_as_xyz
  1  'x, y, z'
loop_
 _atom_site_type_symbol
 _atom_site_label
 _atom_site_symmetry_multiplicity
 _atom_site_fract_x
 _atom_site_fract_y
 _atom_site_fract_z
 _atom_site_occupancy
  Sc  Sc0  1  0.70337636  0.70337636  0.29662364  1
  Sc  Sc1  1  0.28349616  0.71650384  0.29495009  1
  Sc  Sc2  1  0.71650384  0.28349616  0.29495009  1
  Sc  Sc3  1  0.29662364  0.29662364  0.70337636  1
  Sc  Sc4  1  0.71650384  0.28349616  0.70504991  1
  Sc  Sc5  1  0.28349616  0.71650384  0.70504991  1
  Al  Al0  1  0.87695835  0.87695835  0.36184794  1
  Al  Al1  1  0.88090237  0.35715640  0.88097161  1
  Al  Al2  1  0.35715640  0.88090237  0.88097161  1
  Al  Al3  1  0.87695835  0.87695835  0.88423637  1
  Al  Al4  1  0.12304165  0.12304165  0.63815206  1
  Al  Al5  1  0.11909763  0.64284360  0.11902839  1
  Al  Al6  1  0.64284360  0.11909763  0.11902839  1
  Al  Al7  1  0.12304165  0.12304165  0.11576363  1
  Al  Al8  1  0.65968937  0.65968937  0.00885643  1
  Al  Al9  1  0.66485638  0.99903109  0.66805577  1
  Al  Al10  1  0.99903109  0.66485638  0.66805577  1
  Al  Al11  1  0.65968937  0.65968937  0.67176383  1
  Al  Al12  1  0.34031063  0.34031063  0.99114357  1
  Al  Al13  1  0.33514362  0.00096891  0.33194423  1
  Al  Al14  1  0.00096891  0.33514362  0.33194423  1
  Al  Al15  1  0.34031063  0.34031063  0.32823617  1
  Ni  Ni0  1  0.00000000  0.00000000  0.00000000  1
  Ni  Ni1  1  0.50000000  0.50000000  0.00000000  1
  Os  Os0  1  0.00000000  0.00000000  0.50000000  1
  Os  Os1  1  0.50000000  0.00000000  0.50000000  1
  Os  Os2  1  0.00000000  0.50000000  0.50000000  1
  Os  Os3  1  0.00000000  0.50000000  0.00000000  1
  Os  Os4  1  0.50000000  0.00000000  0.00000000  1
loop_
_geom_bond_atom_site_label_1
_geom_bond_atom_site_label_2
_geom_bond_distance
_geom_bond_site_symmetry_2
Sc0 Sc2 3.583038 1_555
Sc0 Sc1 3.583039 1_555
Sc0 Sc4 3.583039 1_555
Sc0 Sc5 3.583039 1_555
Sc1 Sc5 3.575201 1_555
Sc1 Sc3 3.583039 1_555
Sc1 Sc2 3.775067 1_555
Sc2 Sc4 3.575201 1_555
Sc2 Sc3 3.583039 1_555
Sc3 Sc5 3.583038 1_555
Sc3 Sc4 3.583039 1_555
Sc4 Sc5 3.775067 1_555
Al0 Ni0 2.561169 1_665
Al0 Os2 2.670072 1_655
Al0 Os1 2.670072 1_565
Al0 Os0 2.722191 1_665
Al0 Al11 2.755217 1_555
Al0 Al10 2.757682 1_555
Al0 Al9 2.757682 1_555
Al0 Sc2 2.928082 1_565
Al0 Sc1 2.928082 1_655
Al0 Al6 2.940515 1_565
Al0 Al5 2.940515 1_655
Al0 Sc0 2.960272 1_555
Al0 Al7 2.983519 1_665
Al1 Ni0 2.528351 1_656
Al1 Os3 2.698548 1_656
Al1 Os2 2.698562 1_655
Al1 Ni1 2.700926 1_556
Al1 Al10 2.710422 1_555
Al1 Al8 2.759426 1_556
Al1 Al11 2.759440 1_555
Al1 Al6 2.886229 1_556
Al1 Al7 2.940496 1_656
Al1 Al4 2.940515 1_655
Al1 Sc2 2.975025 1_556
Al1 Sc4 2.975040 1_555
Al1 Sc3 2.990997 1_655
Al2 Ni0 2.528351 1_566
Al2 Os4 2.698548 1_566
Al2 Os1 2.698562 1_565
Al2 Ni1 2.700926 1_556
Al2 Al9 2.710422 1_555
Al2 Al8 2.759426 1_556
Al2 Al5 2.886229 1_556
Al2 Al7 2.940496 1_566
Al2 Al4 2.940515 1_565
Al2 Sc1 2.975025 1_556
Al2 Sc5 2.975040 1_555
Al2 Sc3 2.990997 1_565
Al3 Ni0 2.561162 1_666
Al3 Os3 2.670072 1_656
Al3 Os4 2.670073 1_566
Al3 Os0 2.722199 1_665
Al3 Al8 2.755222 1_556
Al3 Al9 2.757697 1_555
Al3 Sc4 2.928083 1_565
Al3 Sc5 2.928083 1_655
Al3 Al6 2.940496 1_566
Al3 Al5 2.940496 1_656
Al3 Sc0 2.960266 1_556
Al3 Al4 2.983519 1_665
Al4 Ni0 2.561169 1_556
Al4 Os2 2.670072 1_555
Al4 Os1 2.670072 1_555
Al4 Os0 2.722191 1_555
Al4 Sc5 2.928082 1_545
Al4 Sc4 2.928082 1_455
Al4 Sc3 2.960272 1_555
Al5 Ni0 2.528351 1_565
Al5 Os3 2.698548 1_555
Al5 Os2 2.698562 1_555
Al5 Ni1 2.700926 1_555
Al5 Sc5 2.975025 1_554
Al5 Sc1 2.975040 1_555
Al5 Sc0 2.990997 1_455
Al6 Ni0 2.528351 1_655
Al6 Os4 2.698548 1_555
Al6 Os1 2.698562 1_555
Al6 Ni1 2.700926 1_555
Al6 Sc4 2.975025 1_554
Al6 Sc2 2.975040 1_555
Al6 Sc0 2.990997 1_545
Al7 Ni0 2.561162 1_555
Al7 Os3 2.670072 1_555
Al7 Os4 2.670073 1_555
Al7 Os0 2.722199 1_555
Al7 Sc1 2.928083 1_545
Al7 Sc2 2.928083 1_455
Al7 Sc3 2.960266 1_554
Al8 Ni1 2.430518 1_555
Al8 Os4 2.540395 1_565
Al8 Os3 2.540395 1_655
Al8 Sc2 2.919851 1_555
Al8 Sc1 2.919851 1_555
Al8 Sc0 2.937720 1_555
Al8 Al9 2.939815 1_554
Al9 Os1 2.501920 1_565
Al9 Os4 2.501928 1_566
Al9 Os0 2.504691 1_665
Al9 Sc2 2.894298 1_565
Al9 Sc4 2.894303 1_565
Al9 Sc3 2.933833 1_565
Al10 Os2 2.501920 1_655
Al10 Os3 2.501928 1_656
Al10 Os0 2.504691 1_665
Al10 Al3 2.757697 1_555
Al10 Sc1 2.894298 1_655
Al10 Sc5 2.894303 1_655
Al10 Al9 2.913417 1_555
Al10 Sc3 2.933833 1_655
Al10 Al11 2.939815 1_555
Al10 Al8 2.939816 1_556
Al11 Ni1 2.430524 1_556
Al11 Os1 2.540392 1_565
Al11 Os2 2.540392 1_655
Al11 Al2 2.759440 1_555
Al11 Sc4 2.919848 1_555
Al11 Sc5 2.919848 1_555
Al11 Sc0 2.937712 1_555
Al11 Al8 2.938733 1_556
Al11 Al9 2.939815 1_555
Al12 Ni1 2.430518 1_556
Al12 Os4 2.540395 1_556
Al12 Os3 2.540395 1_556
Al12 Al7 2.755222 1_556
Al12 Al5 2.759426 1_556
Al12 Al6 2.759426 1_556
Al12 Sc5 2.919851 1_555
Al12 Sc4 2.919851 1_555
Al12 Sc3 2.937720 1_555
Al12 Al15 2.938733 1_556
Al12 Al13 2.939815 1_556
Al12 Al14 2.939816 1_556
Al13 Os1 2.501920 1_555
Al13 Os4 2.501928 1_555
Al13 Os0 2.504691 1_555
Al13 Al6 2.710422 1_555
Al13 Al4 2.757682 1_555
Al13 Al7 2.757697 1_555
Al13 Sc5 2.894298 1_545
Al13 Sc1 2.894303 1_545
Al13 Al14 2.913417 1_555
Al13 Sc0 2.933833 1_545
Al13 Al15 2.939815 1_555
Al14 Os2 2.501920 1_555
Al14 Os3 2.501928 1_555
Al14 Os0 2.504691 1_555
Al14 Al5 2.710422 1_555
Al14 Al4 2.757682 1_555
Al14 Al7 2.757697 1_555
Al14 Sc4 2.894298 1_455
Al14 Sc2 2.894303 1_455
Al14 Sc0 2.933833 1_455
Al14 Al15 2.939815 1_555
Al15 Ni1 2.430524 1_555
Al15 Os1 2.540392 1_555
Al15 Os2 2.540392 1_555
Al15 Al4 2.755217 1_555
Al15 Al5 2.759440 1_555
Al15 Al6 2.759440 1_555
Al15 Sc1 2.919848 1_555
Al15 Sc2 2.919848 1_555
Al15 Sc3 2.937712 1_555
Ni1 Sc1 3.189760 1_555
Ni1 Sc2 3.189760 1_555
Ni1 Sc5 3.189760 1_554
Ni1 Sc4 3.189760 1_554
Os0 Sc5 3.050289 1_545
Os0 Sc4 3.050289 1_455
Os0 Sc2 3.050289 1_455
Os0 Sc1 3.050289 1_545
Os1 Sc2 3.070152 1_555
Os1 Sc5 3.070152 1_545
Os1 Sc3 3.133704 1_555
Os1 Sc0 3.133704 1_545
Os2 Sc1 3.070152 1_555
Os2 Sc4 3.070152 1_455
Os2 Sc3 3.133704 1_555
Os2 Sc0 3.133704 1_455
Os3 Sc2 3.070152 1_455
Os3 Sc5 3.070152 1_554
Os3 Sc0 3.133704 1_455
Os3 Sc3 3.133704 1_554
Os4 Sc4 3.070152 1_554
Os4 Sc1 3.070152 1_545
Os4 Sc0 3.133704 1_545
Os4 Sc3 3.133704 1_554
