# generated using pymatgen
data_Ta3Al2OsN
_symmetry_space_group_name_H-M   'P 1'
_cell_length_a   8.22733102
_cell_length_b   8.22733139
_cell_length_c   8.22733124
_cell_angle_alpha   60.00000063
_cell_angle_beta   59.99999912
_cell_angle_gamma   59.99999864
_symmetry_Int_Tables_number   1
_chemical_formula_structural   Ta3Al2OsN
_chemical_formula_sum   'Ta12 Al8 Os4 N4'
_cell_volume   393.78751369
_cell_formula_units_Z   4
loop_
 _symmetry_equiv_pos_site_id
 _symmetry_equiv_pos_as_xyz
  1  'x, y, z'
loop_
 _atom_site_type_symbol
 _atom_site_label
 _atom_site_symmetry_multiplicity
 _atom_site_fract_x
 _atom_site_fract_y
 _atom_site_fract_z
 _atom_site_occupancy
  Ta  Ta0  1  0.56006119  0.93993881  0.56006119  1
  Ta  Ta1  1  0.31006119  0.68993881  0.68993881  1
  Ta  Ta2  1  0.68993881  0.31006119  0.31006119  1
  Ta  Ta3  1  0.31006119  0.68993881  0.31006119  1
  Ta  Ta4  1  0.68993881  0.68993881  0.31006119  1
  Ta  Ta5  1  0.31006119  0.31006119  0.68993881  1
  Ta  Ta6  1  0.56006119  0.56006119  0.93993881  1
  Ta  Ta7  1  0.93993881  0.56006119  0.56006119  1
  Ta  Ta8  1  0.56006119  0.93993881  0.93993881  1
  Ta  Ta9  1  0.93993881  0.93993881  0.56006119  1
  Ta  Ta10  1  0.68993881  0.31006119  0.68993881  1
  Ta  Ta11  1  0.93993881  0.56006119  0.93993881  1
  Al  Al0  1  0.91665682  0.91665682  0.91665682  1
  Al  Al1  1  0.99996945  0.33334318  0.33334318  1
  Al  Al2  1  0.33334318  0.99996945  0.33334318  1
  Al  Al3  1  0.33334318  0.33334318  0.99996945  1
  Al  Al4  1  0.91665682  0.25003055  0.91665682  1
  Al  Al5  1  0.91665682  0.91665682  0.25003055  1
  Al  Al6  1  0.25003055  0.91665682  0.91665682  1
  Al  Al7  1  0.33334318  0.33334318  0.33334318  1
  Os  Os0  1  0.12500000  0.12500000  0.12500000  1
  Os  Os1  1  0.62500000  0.12500000  0.12500000  1
  Os  Os2  1  0.12500000  0.62500000  0.12500000  1
  Os  Os3  1  0.12500000  0.12500000  0.62500000  1
  N  N0  1  0.62500000  0.62500000  0.62500000  1
  N  N1  1  0.12500000  0.62500000  0.62500000  1
  N  N2  1  0.62500000  0.12500000  0.62500000  1
  N  N3  1  0.62500000  0.62500000  0.12500000  1
loop_
_geom_bond_atom_site_label_1
_geom_bond_atom_site_label_2
_geom_bond_distance
_geom_bond_site_symmetry_2
Al0 Os1 2.519162 1_566
Al0 Os2 2.519162 1_656
Al0 Os3 2.519162 1_665
Al1 Os0 2.519159 1_655
Al1 Os3 2.519166 1_655
Al1 Os2 2.519166 1_655
Al2 Os0 2.519159 1_565
Al2 Os1 2.519166 1_565
Al2 Os3 2.519166 1_565
Al3 Os0 2.519159 1_556
Al3 Os1 2.519166 1_556
Al3 Os2 2.519166 1_556
Al4 Os0 2.519159 1_656
Al4 Os1 2.519166 1_556
Al4 Os3 2.519166 1_655
Al5 Os0 2.519159 1_665
Al5 Os1 2.519166 1_565
Al5 Os2 2.519166 1_655
Al6 Os0 2.519159 1_566
Al6 Os3 2.519166 1_565
Al6 Os2 2.519166 1_556
Al7 Os1 2.519162 1_555
Al7 Os2 2.519162 1_555
Al7 Os3 2.519162 1_555
Os0 Ta8 2.977740 1_544
Os0 Ta2 2.977740 1_455
Os0 Ta9 2.977740 1_445
Os0 Ta5 2.977740 1_554
Os0 Ta11 2.977740 1_454
Os0 Ta3 2.977740 1_545
Os1 Ta0 2.977740 1_545
Os1 Ta2 2.977740 1_555
Os1 Ta10 2.977740 1_554
Os1 Ta8 2.977740 1_544
Os1 Ta6 2.977740 1_554
Os1 Ta4 2.977740 1_545
Os2 Ta6 2.977740 1_554
Os2 Ta4 2.977740 1_455
Os2 Ta3 2.977740 1_555
Os2 Ta7 2.977740 1_455
Os2 Ta11 2.977740 1_454
Os2 Ta1 2.977740 1_554
Os3 Ta0 2.977740 1_545
Os3 Ta10 2.977740 1_455
Os3 Ta5 2.977740 1_555
Os3 Ta9 2.977740 1_445
Os3 Ta7 2.977740 1_455
Os3 Ta1 2.977740 1_545
N0 Ta7 2.191223 1_555
N0 Ta1 2.191223 1_555
N0 Ta6 2.191223 1_555
N0 Ta4 2.191223 1_555
N0 Ta0 2.191223 1_555
N0 Ta10 2.191223 1_555
N1 Ta1 2.191223 1_555
N1 Ta11 2.191223 1_455
N1 Ta3 2.191223 1_555
N1 Ta7 2.191223 1_455
N1 Ta9 2.191223 1_455
N1 Ta5 2.191223 1_555
N2 Ta9 2.191223 1_545
N2 Ta5 2.191223 1_555
N2 Ta10 2.191223 1_555
N2 Ta8 2.191223 1_545
N2 Ta2 2.191223 1_555
N2 Ta0 2.191223 1_545
N3 Ta11 2.191223 1_554
N3 Ta3 2.191223 1_555
N3 Ta4 2.191223 1_555
N3 Ta6 2.191223 1_554
N3 Ta8 2.191223 1_554
N3 Ta2 2.191223 1_555
