# generated using pymatgen
data_K4Sn(TeS)2
_symmetry_space_group_name_H-M   'P 1'
_cell_length_a   8.22746519
_cell_length_b   10.41845537
_cell_length_c   15.38869856
_cell_angle_alpha   90.00000000
_cell_angle_beta   90.00000000
_cell_angle_gamma   90.00000000
_symmetry_Int_Tables_number   1
_chemical_formula_structural   K4Sn(TeS)2
_chemical_formula_sum   'K16 Sn4 Te8 S8'
_cell_volume   1319.08044418
_cell_formula_units_Z   4
loop_
 _symmetry_equiv_pos_site_id
 _symmetry_equiv_pos_as_xyz
  1  'x, y, z'
loop_
 _atom_site_type_symbol
 _atom_site_label
 _atom_site_symmetry_multiplicity
 _atom_site_fract_x
 _atom_site_fract_y
 _atom_site_fract_z
 _atom_site_occupancy
  K  K0  1  0.50000000  0.50000000  0.50000000  1
  K  K1  1  0.11932998  0.46502906  0.26585022  1
  K  K2  1  0.11932998  0.03497094  0.26585022  1
  K  K3  1  0.96771971  0.75000000  0.46155465  1
  K  K4  1  0.03228029  0.25000000  0.53844535  1
  K  K5  1  0.61932998  0.96502906  0.23414978  1
  K  K6  1  0.38067002  0.03497094  0.76585022  1
  K  K7  1  0.88067002  0.96502906  0.73414978  1
  K  K8  1  0.38067002  0.46502906  0.76585022  1
  K  K9  1  0.00000000  0.50000000  0.00000000  1
  K  K10  1  0.46771971  0.25000000  0.03844535  1
  K  K11  1  0.61932998  0.53497094  0.23414978  1
  K  K12  1  0.53228029  0.75000000  0.96155465  1
  K  K13  1  0.00000000  0.00000000  0.00000000  1
  K  K14  1  0.88067002  0.53497094  0.73414978  1
  K  K15  1  0.50000000  0.00000000  0.50000000  1
  Sn  Sn0  1  0.75525808  0.25000000  0.84025527  1
  Sn  Sn1  1  0.74474192  0.25000000  0.34025527  1
  Sn  Sn2  1  0.25525808  0.75000000  0.65974473  1
  Sn  Sn3  1  0.24474192  0.75000000  0.15974473  1
  Te  Te0  1  0.59226793  0.75000000  0.65065882  1
  Te  Te1  1  0.40773207  0.25000000  0.34934118  1
  Te  Te2  1  0.33864777  0.75000000  0.33429231  1
  Te  Te3  1  0.16135223  0.75000000  0.83429231  1
  Te  Te4  1  0.09226793  0.25000000  0.84934118  1
  Te  Te5  1  0.90773207  0.75000000  0.15065882  1
  Te  Te6  1  0.66135223  0.25000000  0.66570769  1
  Te  Te7  1  0.83864777  0.25000000  0.16570769  1
  S  S0  1  0.84215074  0.44223600  0.40658728  1
  S  S1  1  0.65784926  0.05776400  0.90658728  1
  S  S2  1  0.34215074  0.94223600  0.09341272  1
  S  S3  1  0.34215074  0.55776400  0.09341272  1
  S  S4  1  0.15784926  0.55776400  0.59341272  1
  S  S5  1  0.84215074  0.05776400  0.40658728  1
  S  S6  1  0.15784926  0.94223600  0.59341272  1
  S  S7  1  0.65784926  0.44223600  0.90658728  1
loop_
_geom_bond_atom_site_label_1
_geom_bond_atom_site_label_2
_geom_bond_distance
_geom_bond_site_symmetry_2
K0 S4 3.217607 1_555
K0 S0 3.217607 1_555
K0 Te0 3.568679 1_555
K0 Te1 3.568679 1_555
K0 Te6 3.879298 1_555
K0 Te2 3.879298 1_555
K1 S0 3.153967 1_455
K1 S3 3.366867 1_555
K1 Te1 3.507112 1_555
K1 Sn3 3.541960 1_555
K1 Te7 3.567432 1_455
K1 Te2 3.630424 1_555
K1 Te5 3.871403 1_455
K2 S5 3.153967 1_455
K2 S2 3.366867 1_545
K2 Te1 3.507112 1_555
K2 Sn3 3.541960 1_545
K2 Te7 3.567432 1_455
K2 Te2 3.630424 1_545
K2 Te5 3.871403 1_445
K3 S6 3.252006 1_655
K3 S4 3.252006 1_655
K3 S5 3.473326 1_565
K3 S0 3.473326 1_555
K3 Te2 3.626128 1_655
K4 S0 3.252006 1_455
K4 S5 3.252006 1_455
K4 S4 3.473326 1_555
K4 S6 3.473326 1_545
K4 Te6 3.626128 1_455
K5 S2 3.153967 1_555
K5 S5 3.366867 1_565
K5 Te5 3.507112 1_555
K5 Sn1 3.541960 1_565
K5 Te2 3.567432 1_555
K5 Te7 3.630424 1_565
K5 Te1 3.871403 1_565
K6 S1 3.153967 1_555
K6 S6 3.366867 1_545
K6 Te4 3.507112 1_555
K6 Sn2 3.541960 1_545
K6 Te6 3.567432 1_555
K6 Te3 3.630424 1_545
K6 Te0 3.871403 1_545
K7 S6 3.153967 1_655
K7 S1 3.366867 1_565
K7 Te0 3.507112 1_555
K7 Sn0 3.541960 1_565
K7 Te3 3.567432 1_655
K7 Te6 3.630424 1_565
K7 Te4 3.871403 1_665
K8 S7 3.153967 1_555
K8 S4 3.366867 1_555
K8 Te4 3.507112 1_555
K8 Sn2 3.541960 1_555
K8 Te6 3.567432 1_555
K8 Te3 3.630424 1_555
K8 Te0 3.871403 1_555
K9 S3 3.217607 1_555
K9 S7 3.217607 1_454
K9 Te5 3.568679 1_455
K9 Te4 3.568679 1_554
K9 Te7 3.879298 1_455
K9 Te3 3.879298 1_554
K10 S7 3.252006 1_554
K10 S1 3.252006 1_554
K10 S3 3.473326 1_555
K10 S2 3.473326 1_545
K10 Te7 3.626128 1_555
K11 S3 3.153967 1_555
K11 S0 3.366867 1_555
K11 Te5 3.507112 1_555
K11 Sn1 3.541960 1_555
K11 Te2 3.567432 1_555
K11 Te7 3.630424 1_555
K11 Te1 3.871403 1_555
K12 S2 3.252006 1_556
K12 S3 3.252006 1_556
K12 S1 3.473326 1_565
K12 S7 3.473326 1_555
K12 Te3 3.626128 1_555
K13 S2 3.217607 1_545
K13 S1 3.217607 1_454
K13 Te5 3.568679 1_445
K13 Te4 3.568679 1_554
K13 Te7 3.879298 1_455
K13 Te3 3.879298 1_544
K14 S4 3.153967 1_655
K14 S7 3.366867 1_555
K14 Te0 3.507112 1_555
K14 Sn0 3.541960 1_555
K14 Te3 3.567432 1_655
K14 Te6 3.630424 1_555
K14 Te4 3.871403 1_655
K15 S5 3.217607 1_555
K15 S6 3.217607 1_545
K15 Te0 3.568679 1_545
K15 Te1 3.568679 1_555
K15 Te6 3.879298 1_555
K15 Te2 3.879298 1_545
Sn0 Te4 2.776260 1_655
Sn0 Te6 2.794967 1_555
Sn1 Te1 2.776260 1_555
Sn1 Te7 2.794967 1_555
Sn2 Te0 2.776260 1_555
Sn2 Te3 2.794967 1_555
Sn3 Te5 2.776260 1_455
Sn3 Te2 2.794967 1_555
S0 Sn1 2.386516 1_555
S1 Sn0 2.386516 1_555
S2 Sn3 2.386516 1_555
S3 Sn3 2.386516 1_555
S4 Sn2 2.386516 1_555
S5 Sn1 2.386516 1_555
S6 Sn2 2.386516 1_555
S7 Sn0 2.386516 1_555
