# generated using pymatgen
data_Nb6AlAsC2
_symmetry_space_group_name_H-M   'P 1'
_cell_length_a   5.64871311
_cell_length_b   5.64871227
_cell_length_c   8.40000426
_cell_angle_alpha   90.00000000
_cell_angle_beta   90.00000000
_cell_angle_gamma   145.77561422
_symmetry_Int_Tables_number   1
_chemical_formula_structural   Nb6AlAsC2
_chemical_formula_sum   'Nb6 Al1 As1 C2'
_cell_volume   150.74783428
_cell_formula_units_Z   1
loop_
 _symmetry_equiv_pos_site_id
 _symmetry_equiv_pos_as_xyz
  1  'x, y, z'
loop_
 _atom_site_type_symbol
 _atom_site_label
 _atom_site_symmetry_multiplicity
 _atom_site_fract_x
 _atom_site_fract_y
 _atom_site_fract_z
 _atom_site_occupancy
  Nb  Nb0  1  0.86890939  0.13108861  0.04891471  1
  Nb  Nb1  1  0.54699338  0.45300462  0.25000000  1
  Nb  Nb2  1  0.86890939  0.13108861  0.45108529  1
  Nb  Nb3  1  0.13294926  0.86704874  0.55685077  1
  Nb  Nb4  1  0.44591764  0.55408036  0.75000000  1
  Nb  Nb5  1  0.13294926  0.86704874  0.94314923  1
  Al  Al0  1  0.24530474  0.75469326  0.25000000  1
  As  As0  1  0.75772567  0.24227233  0.75000000  1
  C  C0  1  0.50016563  0.49983237  0.99764928  1
  C  C1  1  0.50016563  0.49983237  0.50235072  1
loop_
_geom_bond_atom_site_label_1
_geom_bond_atom_site_label_2
_geom_bond_distance
_geom_bond_site_symmetry_2
Al0 Nb1 2.710612 1_565
Al0 Nb1 2.710613 1_455
Al0 Nb2 2.719712 1_455
Al0 Nb0 2.719712 1_455
Al0 Nb2 2.719712 1_565
Al0 Nb0 2.719712 1_565
Al0 Nb3 2.848763 1_555
Al0 Nb5 2.848763 1_554
As0 Nb4 2.625156 1_545
As0 Nb4 2.625157 1_655
As0 Nb5 2.685145 1_655
As0 Nb3 2.685145 1_655
As0 Nb5 2.685145 1_545
As0 Nb3 2.685145 1_545
As0 Nb0 2.783110 1_556
As0 Nb2 2.783110 1_555
C0 Nb4 2.161144 1_555
C0 Nb1 2.179214 1_556
C0 Nb0 2.226320 1_566
C0 Nb0 2.226321 1_456
C0 Nb5 2.242244 1_545
C0 Nb5 2.242244 1_655
C1 Nb4 2.161144 1_555
C1 Nb1 2.179214 1_555
C1 Nb2 2.226320 1_565
C1 Nb2 2.226321 1_455
C1 Nb3 2.242244 1_545
C1 Nb3 2.242244 1_655
