# generated using pymatgen
data_Ba2GaRhI
_symmetry_space_group_name_H-M   'P 1'
_cell_length_a   4.46733470
_cell_length_b   4.46733605
_cell_length_c   19.44295865
_cell_angle_alpha   90.00000000
_cell_angle_beta   90.00000000
_cell_angle_gamma   120.00000468
_symmetry_Int_Tables_number   1
_chemical_formula_structural   Ba2GaRhI
_chemical_formula_sum   'Ba4 Ga2 Rh2 I2'
_cell_volume   336.03930512
_cell_formula_units_Z   2
loop_
 _symmetry_equiv_pos_site_id
 _symmetry_equiv_pos_as_xyz
  1  'x, y, z'
loop_
 _atom_site_type_symbol
 _atom_site_label
 _atom_site_symmetry_multiplicity
 _atom_site_fract_x
 _atom_site_fract_y
 _atom_site_fract_z
 _atom_site_occupancy
  Ba  Ba0  1  0.00000000  0.00000000  0.38718237  1
  Ba  Ba1  1  0.00000000  0.00000000  0.88718237  1
  Ba  Ba2  1  0.00000000  0.00000000  0.61295808  1
  Ba  Ba3  1  0.00000000  0.00000000  0.11295808  1
  Ga  Ga0  1  0.33333300  0.66666700  0.50037466  1
  Ga  Ga1  1  0.66666700  0.33333300  0.00037466  1
  Rh  Rh0  1  0.66666700  0.33333300  0.49947508  1
  Rh  Rh1  1  0.33333300  0.66666700  0.99947508  1
  I  I0  1  0.33333300  0.66666700  0.25000781  1
  I  I1  1  0.66666700  0.33333300  0.75000781  1
loop_
_geom_bond_atom_site_label_1
_geom_bond_atom_site_label_2
_geom_bond_distance
_geom_bond_site_symmetry_2
Ba0 Rh0 3.379225 1_455
Ba0 Rh0 3.379227 1_555
Ba0 Rh0 3.379228 1_445
Ba0 Ga0 3.390551 1_545
Ba0 Ga0 3.390554 1_445
Ba0 Ga0 3.390555 1_555
Ba0 I0 3.710210 1_545
Ba0 I0 3.710213 1_445
Ba0 I0 3.710213 1_555
Ba1 Rh1 3.379225 1_545
Ba1 Rh1 3.379227 1_445
Ba1 Rh1 3.379228 1_555
Ba1 Ga1 3.390551 1_456
Ba1 Ga1 3.390554 1_556
Ba1 Ga1 3.390555 1_446
Ba1 I1 3.710210 1_455
Ba1 I1 3.710213 1_555
Ba1 I1 3.710213 1_445
Ba2 Ga0 3.382879 1_545
Ba2 Ga0 3.382882 1_445
Ba2 Ga0 3.382882 1_555
Ba2 Rh0 3.394223 1_455
Ba2 Rh0 3.394225 1_555
Ba2 Rh0 3.394226 1_445
Ba2 I1 3.708466 1_455
Ba2 I1 3.708468 1_555
Ba2 I1 3.708469 1_445
Ba3 Ga1 3.382879 1_455
Ba3 Ga1 3.382882 1_555
Ba3 Ga1 3.382882 1_445
Ba3 Rh1 3.394223 1_544
Ba3 Rh1 3.394225 1_444
Ba3 Rh1 3.394226 1_554
Ba3 I0 3.708466 1_545
Ba3 I0 3.708468 1_445
Ba3 I0 3.708469 1_555
Ga0 Rh0 2.579273 1_455
Ga0 Rh0 2.579274 1_565
Ga0 Rh0 2.579282 1_555
Ga1 Rh1 2.579273 1_654
Ga1 Rh1 2.579274 1_544
Ga1 Rh1 2.579282 1_554
