# generated using pymatgen
data_LiNi(PO3)4
_symmetry_space_group_name_H-M   'P 1'
_cell_length_a   8.24761998
_cell_length_b   8.24761998
_cell_length_c   7.81759183
_cell_angle_alpha   82.88446840
_cell_angle_beta   82.88446840
_cell_angle_gamma   110.26408644
_symmetry_Int_Tables_number   1
_chemical_formula_structural   LiNi(PO3)4
_chemical_formula_sum   'Li2 Ni2 P8 O24'
_cell_volume   487.01298999
_cell_formula_units_Z   2
loop_
 _symmetry_equiv_pos_site_id
 _symmetry_equiv_pos_as_xyz
  1  'x, y, z'
loop_
 _atom_site_type_symbol
 _atom_site_label
 _atom_site_symmetry_multiplicity
 _atom_site_fract_x
 _atom_site_fract_y
 _atom_site_fract_z
 _atom_site_occupancy
  Li  Li0  1  0.50044600  0.80792800  0.25965000  1
  Li  Li1  1  0.80792800  0.50044600  0.75965000  1
  Ni  Ni0  1  0.12699400  0.86933100  0.74535500  1
  Ni  Ni1  1  0.86933100  0.12699400  0.24535500  1
  P  P0  1  0.76604100  0.42234300  0.38227800  1
  P  P1  1  0.05091400  0.20670300  0.81907900  1
  P  P2  1  0.94781900  0.79058900  0.16613600  1
  P  P3  1  0.79058900  0.94781900  0.66613600  1
  P  P4  1  0.42234300  0.76604100  0.88227800  1
  P  P5  1  0.20670300  0.05091400  0.31907900  1
  P  P6  1  0.24261500  0.57677900  0.63459500  1
  P  P7  1  0.57677900  0.24261500  0.13459500  1
  O  O0  1  0.84556800  0.63145700  0.32204100  1
  O  O1  1  0.12614200  0.87757300  0.23644800  1
  O  O2  1  0.36644000  0.60129300  0.78175000  1
  O  O3  1  0.84151300  0.91021100  0.16584500  1
  O  O4  1  0.08942100  0.63653000  0.69411100  1
  O  O5  1  0.35224000  0.90149100  0.80155500  1
  O  O6  1  0.87757300  0.12614200  0.73644800  1
  O  O7  1  0.91021100  0.84151300  0.66584500  1
  O  O8  1  0.34402400  0.64833500  0.45566500  1
  O  O9  1  0.01031300  0.26949900  0.98488100  1
  O  O10  1  0.36787000  0.15943900  0.16195900  1
  O  O11  1  0.08069200  0.14809700  0.33048800  1
  O  O12  1  0.63145700  0.84556800  0.82204100  1
  O  O13  1  0.63653000  0.08942100  0.19411100  1
  O  O14  1  0.70935600  0.39147000  0.57404300  1
  O  O15  1  0.72749900  0.97960100  0.49802300  1
  O  O16  1  0.64833500  0.34402400  0.95566500  1
  O  O17  1  0.97960100  0.72749900  0.99802300  1
  O  O18  1  0.26949900  0.01031300  0.48488100  1
  O  O19  1  0.14809700  0.08069200  0.83048800  1
  O  O20  1  0.60129300  0.36644000  0.28175000  1
  O  O21  1  0.15943900  0.36787000  0.66195900  1
  O  O22  1  0.90149100  0.35224000  0.30155500  1
  O  O23  1  0.39147000  0.70935600  0.07404300  1
loop_
_geom_bond_atom_site_label_1
_geom_bond_atom_site_label_2
_geom_bond_distance
_geom_bond_site_symmetry_2
Li0 O8 1.891913 1_555
Li0 O23 1.919206 1_555
Li0 O13 2.161047 1_565
Li1 O16 1.891913 1_555
Li1 O14 1.919206 1_555
Li1 O4 2.161047 1_655
Ni0 O5 1.898510 1_555
Ni0 O19 1.902108 1_565
Ni0 O7 1.913699 1_455
Ni0 O4 1.937081 1_555
Ni0 O17 2.143701 1_455
Ni0 O18 2.180297 1_565
Ni1 O22 1.898510 1_555
Ni1 O11 1.902108 1_655
Ni1 O3 1.913699 1_545
Ni1 O13 1.937081 1_555
Ni1 O15 2.143701 1_545
Ni1 O9 2.180297 1_654
O0 P2 1.581644 1_555
O0 P0 1.601625 1_555
O1 P2 1.595928 1_455
O1 P5 1.606172 1_565
O2 P4 1.611469 1_555
O2 P6 1.616453 1_555
O3 P2 1.530111 1_555
O4 P6 1.548613 1_555
O5 P4 1.530913 1_555
O6 P3 1.595928 1_545
O6 P1 1.606172 1_655
O7 P3 1.530111 1_555
O8 P6 1.472482 1_555
O9 P1 1.496446 1_555
O10 P7 1.593321 1_555
O10 P5 1.604917 1_555
O11 P5 1.517335 1_555
O12 P3 1.581644 1_555
O12 P4 1.601625 1_555
O13 P7 1.548613 1_555
O14 P0 1.476538 1_555
O15 P3 1.498413 1_555
O16 P7 1.472482 1_556
O17 P2 1.498413 1_556
O18 P5 1.496446 1_555
O19 P1 1.517335 1_555
O20 P0 1.611469 1_555
O20 P7 1.616453 1_555
O21 P6 1.593321 1_555
O21 P1 1.604917 1_555
O22 P0 1.530913 1_555
O23 P4 1.476538 1_554
