# generated using pymatgen
data_HfZr2PdN
_symmetry_space_group_name_H-M   'P 1'
_cell_length_a   5.93308382
_cell_length_b   5.93308339
_cell_length_c   8.93614723
_cell_angle_alpha   90.00000000
_cell_angle_beta   90.00000000
_cell_angle_gamma   147.59200477
_symmetry_Int_Tables_number   1
_chemical_formula_structural   HfZr2PdN
_chemical_formula_sum   'Hf2 Zr4 Pd2 N2'
_cell_volume   168.58974729
_cell_formula_units_Z   2
loop_
 _symmetry_equiv_pos_site_id
 _symmetry_equiv_pos_as_xyz
  1  'x, y, z'
loop_
 _atom_site_type_symbol
 _atom_site_label
 _atom_site_symmetry_multiplicity
 _atom_site_fract_x
 _atom_site_fract_y
 _atom_site_fract_z
 _atom_site_occupancy
  Hf  Hf0  1  0.37279845  0.62719955  0.55605599  1
  Hf  Hf1  1  0.37279845  0.62719955  0.94394401  1
  Zr  Zr0  1  0.62823732  0.37176068  0.05397045  1
  Zr  Zr1  1  0.94537293  0.05462507  0.25000000  1
  Zr  Zr2  1  0.62823732  0.37176068  0.44602955  1
  Zr  Zr3  1  0.05418681  0.94581119  0.75000000  1
  Pd  Pd0  1  0.24990078  0.75009722  0.25000000  1
  Pd  Pd1  1  0.75449791  0.24550009  0.75000000  1
  N  N0  1  0.99698202  0.00301798  0.99917265  1
  N  N1  1  0.99698202  0.00301798  0.50082735  1
loop_
_geom_bond_atom_site_label_1
_geom_bond_atom_site_label_2
_geom_bond_distance
_geom_bond_site_symmetry_2
Hf0 N1 2.233190 1_455
Hf0 N1 2.233195 1_565
Hf0 Pd1 2.749921 1_565
Hf0 Pd1 2.749921 1_455
Hf0 Pd0 3.072639 1_555
Hf1 N0 2.233190 1_455
Hf1 N0 2.233195 1_565
Hf1 Pd1 2.749921 1_565
Hf1 Pd1 2.749921 1_455
Hf1 Pd0 3.072639 1_556
Pd0 Zr1 2.775319 1_455
Pd0 Zr1 2.775320 1_565
Pd0 Zr2 2.780609 1_565
Pd0 Zr0 2.780609 1_565
Pd0 Zr2 2.780610 1_455
Pd0 Zr0 2.780610 1_455
Pd1 Zr3 2.819763 1_655
Pd1 Zr3 2.819764 1_545
Pd1 Zr0 3.073810 1_556
Pd1 Zr2 3.073810 1_555
N0 Zr0 2.284286 1_656
N0 Zr0 2.284291 1_546
N0 Zr1 2.317289 1_556
N0 Zr3 2.320096 1_645
N1 Zr2 2.284286 1_655
N1 Zr2 2.284291 1_545
N1 Zr1 2.317289 1_555
N1 Zr3 2.320096 1_645
