# generated using pymatgen
data_Ca5Zn(BiN)2
_symmetry_space_group_name_H-M   'P 1'
_cell_length_a   7.05609464
_cell_length_b   7.05591072
_cell_length_c   8.91165419
_cell_angle_alpha   90.00000000
_cell_angle_beta   90.00000000
_cell_angle_gamma   90.00000000
_symmetry_Int_Tables_number   1
_chemical_formula_structural   Ca5Zn(BiN)2
_chemical_formula_sum   'Ca10 Zn2 Bi4 N4'
_cell_volume   443.68607641
_cell_formula_units_Z   2
loop_
 _symmetry_equiv_pos_site_id
 _symmetry_equiv_pos_as_xyz
  1  'x, y, z'
loop_
 _atom_site_type_symbol
 _atom_site_label
 _atom_site_symmetry_multiplicity
 _atom_site_fract_x
 _atom_site_fract_y
 _atom_site_fract_z
 _atom_site_occupancy
  Ca  Ca0  1  0.74995362  0.74995447  0.97623001  1
  Ca  Ca1  1  0.75004638  0.24995347  0.52376999  1
  Ca  Ca2  1  0.25004193  0.25004127  0.52470362  1
  Ca  Ca3  1  0.24995907  0.75004027  0.97529538  1
  Ca  Ca4  1  0.25004193  0.25004127  0.97529638  1
  Ca  Ca5  1  0.24995907  0.75004027  0.52470462  1
  Ca  Ca6  1  0.74995362  0.74995447  0.52376999  1
  Ca  Ca7  1  0.75004638  0.24995347  0.97623001  1
  Ca  Ca8  1  0.49903787  0.00000252  0.25000000  1
  Ca  Ca9  1  0.00096213  0.50000452  0.25000000  1
  Zn  Zn0  1  0.50133221  0.99999709  0.75000000  1
  Zn  Zn1  1  0.99866779  0.49999709  0.75000000  1
  Bi  Bi0  1  0.49994097  0.50000905  0.25000000  1
  Bi  Bi1  1  0.00005803  0.00000805  0.25000000  1
  Bi  Bi2  1  0.50073752  0.50000046  0.75000000  1
  Bi  Bi3  1  0.99926248  0.00000046  0.75000000  1
  N  N0  1  0.00007242  0.50000020  0.97367918  1
  N  N1  1  0.49992658  0.00000020  0.52631982  1
  N  N2  1  0.00007242  0.50000020  0.52632082  1
  N  N3  1  0.49992658  0.00000020  0.97368018  1
loop_
_geom_bond_atom_site_label_1
_geom_bond_atom_site_label_2
_geom_bond_distance
_geom_bond_site_symmetry_2
Ca0 N3 2.495140 1_565
Ca0 N0 2.495142 1_655
Ca1 N2 2.495140 1_655
Ca1 N1 2.495142 1_555
Ca2 N1 2.494345 1_555
Ca2 N2 2.494358 1_555
Ca3 N0 2.494350 1_555
Ca3 N3 2.494353 1_565
Ca4 N3 2.494345 1_555
Ca4 N0 2.494358 1_555
Ca5 N2 2.494350 1_555
Ca5 N1 2.494353 1_565
Ca6 N1 2.495140 1_565
Ca6 N2 2.495142 1_655
Ca7 N0 2.495140 1_655
Ca7 N3 2.495142 1_555
Ca8 N1 2.462475 1_555
Ca8 N3 2.462475 1_554
Ca9 N2 2.462484 1_555
Ca9 N0 2.462484 1_554
Bi0 Ca6 3.489226 1_555
Bi0 Ca0 3.489226 1_554
Bi0 Ca1 3.489950 1_555
Bi0 Ca7 3.489950 1_554
Bi0 Ca2 3.494724 1_555
Bi0 Ca4 3.494724 1_554
Bi0 Ca5 3.495251 1_555
Bi0 Ca3 3.495251 1_554
Bi0 Ca9 3.520842 1_555
Bi0 Ca8 3.527915 1_565
Bi0 Ca8 3.528007 1_555
Bi0 Ca9 3.535253 1_655
Bi1 Ca1 3.489223 1_455
Bi1 Ca7 3.489223 1_454
Bi1 Ca6 3.489940 1_445
Bi1 Ca0 3.489940 1_444
Bi1 Ca5 3.494738 1_545
Bi1 Ca3 3.494738 1_544
Bi1 Ca2 3.495259 1_555
Bi1 Ca4 3.495259 1_554
Bi1 Ca8 3.520849 1_555
Bi1 Ca9 3.527936 1_555
Bi1 Ca9 3.527986 1_545
Bi1 Ca8 3.535246 1_455
Bi2 Ca0 3.204272 1_555
Bi2 Ca6 3.204272 1_555
Bi2 Ca4 3.204814 1_555
Bi2 Ca2 3.204814 1_555
Bi2 Ca7 3.204993 1_555
Bi2 Ca1 3.204993 1_555
Bi2 Ca3 3.205445 1_555
Bi2 Ca5 3.205445 1_555
Bi3 Ca7 3.204268 1_555
Bi3 Ca1 3.204268 1_555
Bi3 Ca3 3.204817 1_645
Bi3 Ca5 3.204817 1_645
Bi3 Ca0 3.204989 1_545
Bi3 Ca6 3.204989 1_545
Bi3 Ca4 3.205458 1_655
Bi3 Ca2 3.205458 1_655
N0 Zn1 1.993376 1_455
N1 Zn0 1.993385 1_545
N2 Zn1 1.993376 1_455
N3 Zn0 1.993385 1_545
