# generated using pymatgen
data_Rb2CdSnS4
_symmetry_space_group_name_H-M   'P 1'
_cell_length_a   7.94050283
_cell_length_b   7.94050295
_cell_length_c   15.56318498
_cell_angle_alpha   84.31770166
_cell_angle_beta   84.31770217
_cell_angle_gamma   90.01725787
_symmetry_Int_Tables_number   1
_chemical_formula_structural   Rb2CdSnS4
_chemical_formula_sum   'Rb8 Cd4 Sn4 S16'
_cell_volume   971.61295258
_cell_formula_units_Z   4
loop_
 _symmetry_equiv_pos_site_id
 _symmetry_equiv_pos_as_xyz
  1  'x, y, z'
loop_
 _atom_site_type_symbol
 _atom_site_label
 _atom_site_symmetry_multiplicity
 _atom_site_fract_x
 _atom_site_fract_y
 _atom_site_fract_z
 _atom_site_occupancy
  Rb  Rb0  1  0.85813270  0.70844529  0.11377169  1
  Rb  Rb1  1  0.29155471  0.14186730  0.38622831  1
  Rb  Rb2  1  0.14186730  0.29155471  0.88622831  1
  Rb  Rb3  1  0.70844529  0.85813270  0.61377169  1
  Rb  Rb4  1  0.34444302  0.69354332  0.11558906  1
  Rb  Rb5  1  0.30645668  0.65555698  0.38441094  1
  Rb  Rb6  1  0.65555698  0.30645668  0.88441094  1
  Rb  Rb7  1  0.69354332  0.34444302  0.61558906  1
  Cd  Cd0  1  0.90915716  0.81334726  0.83415108  1
  Cd  Cd1  1  0.18665274  0.09084284  0.66584892  1
  Cd  Cd2  1  0.09084284  0.18665274  0.16584892  1
  Cd  Cd3  1  0.81334726  0.90915716  0.33415108  1
  Sn  Sn0  1  0.40302145  0.79904369  0.84845868  1
  Sn  Sn1  1  0.20095631  0.59697855  0.65154132  1
  Sn  Sn2  1  0.59697855  0.20095631  0.15154132  1
  Sn  Sn3  1  0.79904369  0.40302145  0.34845868  1
  S  S0  1  0.14182161  0.75219208  0.93764007  1
  S  S1  1  0.24780792  0.85817839  0.56235993  1
  S  S2  1  0.85817839  0.24780792  0.06235993  1
  S  S3  1  0.75219208  0.14182161  0.43764007  1
  S  S4  1  0.63230799  0.73614862  0.93450643  1
  S  S5  1  0.26385138  0.36769201  0.56549357  1
  S  S6  1  0.36769201  0.26385138  0.06549357  1
  S  S7  1  0.73614862  0.63230799  0.43450643  1
  S  S8  1  0.90777571  0.09222429  0.75000000  1
  S  S9  1  0.09222429  0.90777571  0.25000000  1
  S  S10  1  0.93290625  0.56831992  0.73440913  1
  S  S11  1  0.43168008  0.06709375  0.76559087  1
  S  S12  1  0.06709375  0.43168008  0.26559087  1
  S  S13  1  0.56831992  0.93290625  0.23440913  1
  S  S14  1  0.42833601  0.57166399  0.75000000  1
  S  S15  1  0.57166399  0.42833601  0.25000000  1
loop_
_geom_bond_atom_site_label_1
_geom_bond_atom_site_label_2
_geom_bond_distance
_geom_bond_site_symmetry_2
Rb0 S0 3.361135 1_654
Rb0 S13 3.436140 1_555
Rb0 S9 3.449425 1_655
Rb0 S4 3.452095 1_554
Rb0 S15 3.567146 1_555
Rb0 S12 3.593867 1_655
Rb0 S2 3.820787 1_555
Rb1 S1 3.361135 1_545
Rb1 S12 3.436140 1_555
Rb1 S9 3.449425 1_545
Rb1 S5 3.452095 1_555
Rb1 S15 3.567146 1_555
Rb1 S13 3.593867 1_545
Rb1 S3 3.820787 1_555
Rb2 S2 3.361135 1_456
Rb2 S11 3.436140 1_555
Rb2 S8 3.449425 1_455
Rb2 S6 3.452095 1_556
Rb2 S14 3.567146 1_555
Rb2 S10 3.593867 1_455
Rb2 S0 3.820787 1_555
Rb3 S3 3.361135 1_565
Rb3 S10 3.436140 1_555
Rb3 S8 3.449425 1_565
Rb3 S7 3.452095 1_555
Rb3 S14 3.567146 1_555
Rb3 S11 3.593867 1_565
Rb3 S1 3.820787 1_555
Rb4 S0 3.332082 1_554
Rb4 S9 3.340323 1_555
Rb4 S13 3.396656 1_555
Rb4 S4 3.437552 1_554
Rb4 S15 3.455904 1_555
Rb4 S12 3.555489 1_555
Rb4 S6 3.575209 1_555
Rb5 S1 3.332082 1_555
Rb5 S9 3.340323 1_555
Rb5 S12 3.396656 1_555
Rb5 S5 3.437552 1_555
Rb5 S15 3.455904 1_555
Rb5 S13 3.555489 1_555
Rb5 S7 3.575209 1_555
Rb6 S2 3.332082 1_556
Rb6 S8 3.340323 1_555
Rb6 S11 3.396656 1_555
Rb6 S6 3.437552 1_556
Rb6 S14 3.455904 1_555
Rb6 S10 3.555489 1_555
Rb6 S4 3.575209 1_555
Rb7 S3 3.332082 1_555
Rb7 S8 3.340323 1_555
Rb7 S10 3.396656 1_555
Rb7 S7 3.437552 1_555
Rb7 S14 3.455904 1_555
Rb7 S11 3.555489 1_555
Rb7 S5 3.575209 1_555
Cd0 S8 2.459179 1_565
Cd0 S0 2.584174 1_655
Cd0 S10 2.602125 1_555
Cd0 S4 2.603353 1_555
Cd1 S8 2.459179 1_455
Cd1 S1 2.584174 1_545
Cd1 S11 2.602125 1_555
Cd1 S5 2.603353 1_555
Cd2 S9 2.459179 1_545
Cd2 S2 2.584174 1_455
Cd2 S12 2.602125 1_555
Cd2 S6 2.603353 1_555
Cd3 S9 2.459179 1_655
Cd3 S3 2.584174 1_565
Cd3 S13 2.602125 1_555
Cd3 S7 2.603353 1_555
S0 Sn0 2.386158 1_555
S1 Sn1 2.386158 1_555
S2 Sn2 2.386158 1_555
S3 Sn3 2.386158 1_555
S4 Sn0 2.389248 1_555
S5 Sn1 2.389248 1_555
S6 Sn2 2.389248 1_555
S7 Sn3 2.389248 1_555
S10 Sn1 2.375583 1_655
S11 Sn0 2.375583 1_545
S12 Sn3 2.375583 1_455
S13 Sn2 2.375583 1_565
S14 Sn1 2.476972 1_555
S14 Sn0 2.476972 1_555
S15 Sn3 2.476972 1_555
S15 Sn2 2.476972 1_555
