# generated using pymatgen
data_Nd(C2N3)3
_symmetry_space_group_name_H-M   'P 1'
_cell_length_a   6.99209925
_cell_length_b   6.99209925
_cell_length_c   10.25048161
_cell_angle_alpha   90.00000000
_cell_angle_beta   90.00000000
_cell_angle_gamma   111.53836173
_symmetry_Int_Tables_number   1
_chemical_formula_structural   Nd(C2N3)3
_chemical_formula_sum   'Nd2 C12 N18'
_cell_volume   466.14678023
_cell_formula_units_Z   2
loop_
 _symmetry_equiv_pos_site_id
 _symmetry_equiv_pos_as_xyz
  1  'x, y, z'
loop_
 _atom_site_type_symbol
 _atom_site_label
 _atom_site_symmetry_multiplicity
 _atom_site_fract_x
 _atom_site_fract_y
 _atom_site_fract_z
 _atom_site_occupancy
  Nd  Nd0  1  0.71566718  0.28433282  0.75000000  1
  Nd  Nd1  1  0.28433282  0.71566718  0.25000000  1
  C  C0  1  0.72673857  0.55876653  0.25000000  1
  C  C1  1  -0.00138829  0.28862208  0.44932628  1
  C  C2  1  0.00138829  0.71137792  0.94932628  1
  C  C3  1  0.27326143  0.44123347  0.75000000  1
  C  C4  1  0.55876653  0.72673857  0.75000000  1
  C  C5  1  0.44123347  0.27326143  0.25000000  1
  C  C6  1  0.28862208  -0.00138829  0.94932628  1
  C  C7  1  0.71137792  0.00138829  0.44932628  1
  C  C8  1  -0.00138829  0.28862208  0.05067372  1
  C  C9  1  0.00138829  0.71137792  0.55067372  1
  C  C10  1  0.71137792  0.00138829  0.05067372  1
  C  C11  1  0.28862208  -0.00138829  0.55067372  1
  N  N0  1  0.14194483  0.41573866  0.40291779  1
  N  N1  1  0.85805517  0.58426134  0.90291779  1
  N  N2  1  0.52758646  0.47241354  0.25000000  1
  N  N3  1  0.47241354  0.52758646  0.75000000  1
  N  N4  1  0.90486161  0.64662633  0.25000000  1
  N  N5  1  0.09513839  0.35337367  0.75000000  1
  N  N6  1  0.64662633  0.90486161  0.75000000  1
  N  N7  1  0.35337367  0.09513839  0.25000000  1
  N  N8  1  0.15783139  0.84216861  0.01004977  1
  N  N9  1  0.84216861  0.15783139  0.51004977  1
  N  N10  1  0.84216861  0.15783139  0.98995023  1
  N  N11  1  0.15783139  0.84216861  0.48995023  1
  N  N12  1  0.41573866  0.14194483  0.90291779  1
  N  N13  1  0.58426134  0.85805517  0.40291779  1
  N  N14  1  0.14194483  0.41573866  0.09708221  1
  N  N15  1  0.85805517  0.58426134  0.59708221  1
  N  N16  1  0.58426134  0.85805517  0.09708221  1
  N  N17  1  0.41573866  0.14194483  0.59708221  1
loop_
_geom_bond_atom_site_label_1
_geom_bond_atom_site_label_2
_geom_bond_distance
_geom_bond_site_symmetry_2
C0 N4 1.169088 1_555
C0 N2 1.298560 1_555
C1 N0 1.169036 1_555
C1 N9 1.298381 1_455
C2 N1 1.169036 1_455
C2 N8 1.298381 1_556
C3 N5 1.169088 1_555
C3 N3 1.298560 1_555
C4 N6 1.169088 1_555
C4 N3 1.298560 1_555
C5 N7 1.169088 1_555
C5 N2 1.298560 1_555
C6 N12 1.169036 1_555
C6 N8 1.298381 1_546
C7 N13 1.169036 1_545
C7 N9 1.298381 1_555
C8 N14 1.169036 1_555
C8 N10 1.298381 1_454
C9 N15 1.169036 1_455
C9 N11 1.298381 1_555
C10 N16 1.169036 1_545
C10 N10 1.298381 1_554
C11 N17 1.169036 1_555
C11 N11 1.298381 1_545
N0 Nd1 2.512594 1_555
N1 Nd0 2.512594 1_555
N2 Nd1 2.812457 1_555
N3 Nd0 2.812457 1_555
N4 Nd1 2.516461 1_655
N5 Nd0 2.516461 1_455
N6 Nd0 2.516461 1_565
N7 Nd1 2.516461 1_545
N8 Nd1 2.861612 1_555
N9 Nd0 2.861612 1_555
N10 Nd0 2.861612 1_555
N11 Nd1 2.861612 1_555
N12 Nd0 2.512594 1_555
N13 Nd1 2.512594 1_555
N14 Nd1 2.512594 1_555
N15 Nd0 2.512594 1_555
N16 Nd1 2.512594 1_555
N17 Nd0 2.512594 1_555
