# generated using pymatgen
data_HoInAg2
_symmetry_space_group_name_H-M   'P 1'
_cell_length_a   4.89227778
_cell_length_b   4.89227803
_cell_length_c   4.89227953
_cell_angle_alpha   60.00000387
_cell_angle_beta   60.00000217
_cell_angle_gamma   60.00000720
_symmetry_Int_Tables_number   1
_chemical_formula_structural   HoInAg2
_chemical_formula_sum   'Ho1 In1 Ag2'
_cell_volume   82.79775233
_cell_formula_units_Z   1
loop_
 _symmetry_equiv_pos_site_id
 _symmetry_equiv_pos_as_xyz
  1  'x, y, z'
loop_
 _atom_site_type_symbol
 _atom_site_label
 _atom_site_symmetry_multiplicity
 _atom_site_fract_x
 _atom_site_fract_y
 _atom_site_fract_z
 _atom_site_occupancy
  Ho  Ho0  1  0.00000000  -0.00000000  0.00000000  1
  In  In0  1  0.50000000  0.50000000  0.50000000  1
  Ag  Ag0  1  0.25000000  0.25000000  0.25000000  1
  Ag  Ag1  1  0.75000000  0.75000000  0.75000000  1
loop_
_geom_bond_atom_site_label_1
_geom_bond_atom_site_label_2
_geom_bond_distance
_geom_bond_site_symmetry_2
Ho0 In0 3.459363 1_445
Ho0 In0 3.459363 1_554
Ho0 In0 3.459364 1_455
Ho0 In0 3.459364 1_544
Ho0 In0 3.459364 1_454
Ho0 In0 3.459364 1_545
Ag0 Ho0 2.995896 1_655
Ag0 In0 2.995896 1_455
Ag0 Ho0 2.995896 1_555
Ag0 In0 2.995896 1_555
Ag0 In0 2.995896 1_545
Ag0 Ho0 2.995896 1_565
Ag0 Ho0 2.995897 1_556
Ag0 In0 2.995897 1_554
Ag1 In0 2.995896 1_655
Ag1 Ho0 2.995896 1_566
Ag1 Ho0 2.995896 1_666
Ag1 In0 2.995896 1_555
Ag1 In0 2.995896 1_565
Ag1 Ho0 2.995896 1_656
Ag1 In0 2.995897 1_556
Ag1 Ho0 2.995897 1_665
