# generated using pymatgen
data_Rb4ScNbBr12
_symmetry_space_group_name_H-M   'P 1'
_cell_length_a   7.55477493
_cell_length_b   7.55477493
_cell_length_c   10.77078014
_cell_angle_alpha   90.00000000
_cell_angle_beta   90.00000000
_cell_angle_gamma   90.00000000
_symmetry_Int_Tables_number   1
_chemical_formula_structural   Rb4ScNbBr12
_chemical_formula_sum   'Rb4 Sc1 Nb1 Br12'
_cell_volume   614.73823025
_cell_formula_units_Z   1
loop_
 _symmetry_equiv_pos_site_id
 _symmetry_equiv_pos_as_xyz
  1  'x, y, z'
loop_
 _atom_site_type_symbol
 _atom_site_label
 _atom_site_symmetry_multiplicity
 _atom_site_fract_x
 _atom_site_fract_y
 _atom_site_fract_z
 _atom_site_occupancy
  Rb  Rb0  1  0.50000000  0.00000000  0.78089534  1
  Rb  Rb1  1  0.00000000  0.50000000  0.21910466  1
  Rb  Rb2  1  0.50000000  0.00000000  0.21910466  1
  Rb  Rb3  1  0.00000000  0.50000000  0.78089534  1
  Sc  Sc0  1  0.00000000  0.00000000  0.00000000  1
  Nb  Nb0  1  0.50000000  0.50000000  0.50000000  1
  Br  Br0  1  0.00000000  0.00000000  0.75205034  1
  Br  Br1  1  0.50000000  0.50000000  0.26333110  1
  Br  Br2  1  0.73778518  0.73778518  0.50000000  1
  Br  Br3  1  0.24795561  0.24795561  0.00000000  1
  Br  Br4  1  0.73778518  0.26221482  0.50000000  1
  Br  Br5  1  0.24795561  0.75204439  0.00000000  1
  Br  Br6  1  0.00000000  0.00000000  0.24794966  1
  Br  Br7  1  0.50000000  0.50000000  0.73666890  1
  Br  Br8  1  0.26221482  0.26221482  0.50000000  1
  Br  Br9  1  0.75204439  0.75204439  0.00000000  1
  Br  Br10  1  0.26221482  0.73778518  0.50000000  1
  Br  Br11  1  0.75204439  0.24795561  0.00000000  1
loop_
_geom_bond_atom_site_label_1
_geom_bond_atom_site_label_2
_geom_bond_distance
_geom_bond_site_symmetry_2
Br0 Sc0 2.670611 1_556
Br0 Rb0 3.790142 1_455
Br0 Rb0 3.790142 1_555
Br0 Rb3 3.790142 1_545
Br0 Rb3 3.790142 1_555
Br1 Nb0 2.549109 1_555
Br1 Rb1 3.807305 1_655
Br1 Rb2 3.807305 1_555
Br1 Rb2 3.807305 1_565
Br1 Rb1 3.807305 1_555
Br2 Nb0 2.540512 1_555
Br2 Rb0 4.037918 1_565
Br2 Rb3 4.037918 1_655
Br2 Rb1 4.037918 1_655
Br2 Rb2 4.037918 1_565
Br3 Sc0 2.649174 1_555
Br3 Rb2 3.564276 1_555
Br3 Rb1 3.564276 1_555
Br3 Rb0 3.564276 1_554
Br3 Rb3 3.564276 1_554
Br4 Nb0 2.540512 1_555
Br4 Rb3 4.037918 1_655
Br4 Rb0 4.037918 1_555
Br4 Rb1 4.037918 1_655
Br4 Rb2 4.037918 1_555
Br5 Sc0 2.649174 1_565
Br5 Rb1 3.564276 1_555
Br5 Rb3 3.564276 1_554
Br5 Rb2 3.564276 1_565
Br5 Rb0 3.564276 1_564
Br6 Sc0 2.670611 1_555
Br6 Rb2 3.790142 1_455
Br6 Rb1 3.790142 1_545
Br6 Rb1 3.790142 1_555
Br6 Rb2 3.790142 1_555
Br7 Nb0 2.549109 1_555
Br7 Rb0 3.807305 1_565
Br7 Rb3 3.807305 1_655
Br7 Rb3 3.807305 1_555
Br7 Rb0 3.807305 1_555
Br8 Nb0 2.540512 1_555
Br8 Rb3 4.037918 1_555
Br8 Rb0 4.037918 1_555
Br8 Rb1 4.037918 1_555
Br8 Rb2 4.037918 1_555
Br9 Sc0 2.649174 1_665
Br9 Rb2 3.564276 1_565
Br9 Rb1 3.564276 1_655
Br9 Rb3 3.564276 1_654
Br9 Rb0 3.564276 1_564
Br10 Nb0 2.540512 1_555
Br10 Rb0 4.037918 1_565
Br10 Rb3 4.037918 1_555
Br10 Rb2 4.037918 1_565
Br10 Rb1 4.037918 1_555
Br11 Sc0 2.649174 1_655
Br11 Rb2 3.564276 1_555
Br11 Rb0 3.564276 1_554
Br11 Rb1 3.564276 1_655
Br11 Rb3 3.564276 1_654
