# generated using pymatgen
data_Ba2Ga6CoTc
_symmetry_space_group_name_H-M   'P 1'
_cell_length_a   6.75469390
_cell_length_b   6.75469356
_cell_length_c   6.75469387
_cell_angle_alpha   120.00000150
_cell_angle_beta   119.99999983
_cell_angle_gamma   59.99999844
_symmetry_Int_Tables_number   1
_chemical_formula_structural   Ba2Ga6CoTc
_chemical_formula_sum   'Ba2 Ga6 Co1 Tc1'
_cell_volume   217.92245764
_cell_formula_units_Z   1
loop_
 _symmetry_equiv_pos_site_id
 _symmetry_equiv_pos_as_xyz
  1  'x, y, z'
loop_
 _atom_site_type_symbol
 _atom_site_label
 _atom_site_symmetry_multiplicity
 _atom_site_fract_x
 _atom_site_fract_y
 _atom_site_fract_z
 _atom_site_occupancy
  Ba  Ba0  1  0.75000000  0.75000000  0.25000100  1
  Ba  Ba1  1  0.24999900  0.24999900  0.75000000  1
  Ga  Ga0  1  0.74201375  0.25798725  0.25798725  1
  Ga  Ga1  1  0.25798725  0.74201375  0.25798725  1
  Ga  Ga2  1  0.25798725  0.25798725  0.25798725  1
  Ga  Ga3  1  0.74201275  0.74201275  0.74201275  1
  Ga  Ga4  1  0.74201375  0.25798625  0.74201275  1
  Ga  Ga5  1  0.25798625  0.74201375  0.74201275  1
  Co  Co0  1  0.50000000  0.50000000  0.50000100  1
  Tc  Tc0  1  0.00000000  0.00000000  0.00000000  1
loop_
_geom_bond_atom_site_label_1
_geom_bond_atom_site_label_2
_geom_bond_distance
_geom_bond_site_symmetry_2
Ba0 Ga0 3.378202 1_555
Ba0 Ga1 3.378202 1_555
Ba0 Ga4 3.378202 1_565
Ba0 Ga3 3.378202 1_555
Ba0 Ga5 3.378202 1_655
Ba0 Ga2 3.378209 1_565
Ba0 Ga2 3.378209 1_655
Ba0 Ga0 3.378215 1_565
Ba0 Ga1 3.378215 1_655
Ba0 Ga4 3.378215 1_554
Ba0 Ga3 3.378215 1_554
Ba0 Ga5 3.378215 1_554
Ba1 Ga5 3.378195 1_545
Ba1 Ga4 3.378195 1_455
Ba1 Ga1 3.378202 1_545
Ba1 Ga0 3.378202 1_455
Ba1 Ga2 3.378202 1_556
Ba1 Ga3 3.378208 1_545
Ba1 Ga3 3.378208 1_455
Ba1 Ga1 3.378215 1_556
Ba1 Ga0 3.378215 1_556
Ba1 Ga2 3.378216 1_555
Ba1 Ga5 3.378222 1_555
Ba1 Ga4 3.378222 1_555
Ga0 Tc0 2.464439 1_655
Ga1 Tc0 2.464439 1_565
Ga2 Tc0 2.464444 1_555
Ga3 Tc0 2.464444 1_666
Ga4 Tc0 2.464439 1_656
Ga5 Tc0 2.464439 1_566
Co0 Ga4 2.311846 1_555
Co0 Ga5 2.311846 1_555
Co0 Ga3 2.311846 1_555
Co0 Ga2 2.311846 1_555
Co0 Ga1 2.311856 1_555
Co0 Ga0 2.311856 1_555
