# generated using pymatgen
data_Cu6SnClO8
_symmetry_space_group_name_H-M   'P 1'
_cell_length_a   6.44554329
_cell_length_b   6.44552638
_cell_length_c   6.44553486
_cell_angle_alpha   60.00213635
_cell_angle_beta   60.00209966
_cell_angle_gamma   60.00197702
_symmetry_Int_Tables_number   1
_chemical_formula_structural   Cu6SnClO8
_chemical_formula_sum   'Cu6 Sn1 Cl1 O8'
_cell_volume   189.35739680
_cell_formula_units_Z   1
loop_
 _symmetry_equiv_pos_site_id
 _symmetry_equiv_pos_as_xyz
  1  'x, y, z'
loop_
 _atom_site_type_symbol
 _atom_site_label
 _atom_site_symmetry_multiplicity
 _atom_site_fract_x
 _atom_site_fract_y
 _atom_site_fract_z
 _atom_site_occupancy
  Cu  Cu0  1  0.00000000  0.00000000  0.50000000  1
  Cu  Cu1  1  0.50000000  0.00000000  0.00000000  1
  Cu  Cu2  1  0.00000000  0.50000000  0.00000000  1
  Cu  Cu3  1  0.50000000  0.50000000  0.00000000  1
  Cu  Cu4  1  0.00000000  0.50000000  0.50000000  1
  Cu  Cu5  1  0.50000000  0.00000000  0.50000000  1
  Sn  Sn0  1  0.00000000  0.00000000  0.00000000  1
  Cl  Cl0  1  0.50000000  0.50000000  0.50000000  1
  O  O0  1  0.13956477  0.13956276  0.58130730  1
  O  O1  1  0.13956434  0.58130917  0.13956234  1
  O  O2  1  0.58130784  0.13956423  0.13956362  1
  O  O3  1  0.86043566  0.41869083  0.86043766  1
  O  O4  1  0.13956490  0.13956398  0.13956458  1
  O  O5  1  0.86043510  0.86043602  0.86043542  1
  O  O6  1  0.86043523  0.86043724  0.41869270  1
  O  O7  1  0.41869216  0.86043577  0.86043638  1
loop_
_geom_bond_atom_site_label_1
_geom_bond_atom_site_label_2
_geom_bond_distance
_geom_bond_site_symmetry_2
Cu0 O0 1.909201 1_555
Cu0 O6 1.909201 1_445
Cu0 O5 1.909290 1_445
Cu0 O4 1.909290 1_555
Cu1 O2 1.909204 1_555
Cu1 O7 1.909204 1_544
Cu1 O5 1.909287 1_544
Cu1 O4 1.909287 1_555
Cu2 O1 1.909205 1_555
Cu2 O3 1.909205 1_454
Cu2 O5 1.909289 1_454
Cu2 O4 1.909289 1_555
Cu3 O7 1.909278 1_554
Cu3 O2 1.909278 1_555
Cu3 O3 1.909281 1_554
Cu3 O1 1.909281 1_555
Cu4 O6 1.909285 1_455
Cu4 O0 1.909285 1_555
Cu4 O3 1.909291 1_455
Cu4 O1 1.909291 1_555
Cu5 O6 1.909279 1_545
Cu5 O0 1.909279 1_555
Cu5 O7 1.909285 1_545
Cu5 O2 1.909285 1_555
O0 Sn0 2.203538 1_556
O1 Sn0 2.203522 1_565
O2 Sn0 2.203534 1_655
O3 Sn0 2.203522 1_656
O4 Sn0 2.203448 1_555
O5 Sn0 2.203448 1_666
O6 Sn0 2.203538 1_665
O7 Sn0 2.203534 1_566
