# generated using pymatgen
data_Y5Sc(Be2Rh5)2
_symmetry_space_group_name_H-M   'P 1'
_cell_length_a   9.75538396
_cell_length_b   9.75538396
_cell_length_c   3.30862459
_cell_angle_alpha   90.00000000
_cell_angle_beta   90.00000000
_cell_angle_gamma   90.00000000
_symmetry_Int_Tables_number   1
_chemical_formula_structural   Y5Sc(Be2Rh5)2
_chemical_formula_sum   'Y5 Sc1 Be4 Rh10'
_cell_volume   314.87358396
_cell_formula_units_Z   1
loop_
 _symmetry_equiv_pos_site_id
 _symmetry_equiv_pos_as_xyz
  1  'x, y, z'
loop_
 _atom_site_type_symbol
 _atom_site_label
 _atom_site_symmetry_multiplicity
 _atom_site_fract_x
 _atom_site_fract_y
 _atom_site_fract_z
 _atom_site_occupancy
  Y  Y0  1  0.82267335  0.32619717  0.00000000  1
  Y  Y1  1  0.32619717  0.17732665  0.00000000  1
  Y  Y2  1  0.67380283  0.82267335  0.00000000  1
  Y  Y3  1  0.17732665  0.67380283  0.00000000  1
  Y  Y4  1  0.00000000  0.00000000  0.00000000  1
  Sc  Sc0  1  0.50000000  0.50000000  0.00000000  1
  Be  Be0  1  0.61703835  0.12133502  0.00000000  1
  Be  Be1  1  0.12133502  0.38296165  0.00000000  1
  Be  Be2  1  0.87866498  0.61703835  0.00000000  1
  Be  Be3  1  0.38296165  0.87866498  0.00000000  1
  Rh  Rh0  1  0.07355219  0.22405263  0.50000000  1
  Rh  Rh1  1  0.22405263  0.92644781  0.50000000  1
  Rh  Rh2  1  0.77594737  0.07355219  0.50000000  1
  Rh  Rh3  1  0.92644781  0.77594737  0.50000000  1
  Rh  Rh4  1  0.43232103  0.71646756  0.50000000  1
  Rh  Rh5  1  0.56767897  0.28353244  0.50000000  1
  Rh  Rh6  1  0.71646756  0.56767897  0.50000000  1
  Rh  Rh7  1  0.28353244  0.43232103  0.50000000  1
  Rh  Rh8  1  0.50000000  0.00000000  0.50000000  1
  Rh  Rh9  1  0.00000000  0.50000000  0.50000000  1
loop_
_geom_bond_atom_site_label_1
_geom_bond_atom_site_label_2
_geom_bond_distance
_geom_bond_site_symmetry_2
Be0 Rh2 2.314565 1_555
Be0 Rh2 2.314565 1_554
Be0 Rh8 2.332686 1_555
Be0 Rh8 2.332686 1_554
Be0 Rh5 2.339290 1_554
Be0 Rh5 2.339290 1_555
Be0 Y0 2.831655 1_555
Be0 Y1 2.889367 1_555
Be0 Y2 2.965717 1_545
Be1 Rh0 2.314565 1_555
Be1 Rh0 2.314565 1_554
Be1 Rh9 2.332686 1_555
Be1 Rh9 2.332686 1_554
Be1 Rh7 2.339290 1_555
Be1 Rh7 2.339290 1_554
Be1 Y1 2.831655 1_555
Be1 Y3 2.889367 1_555
Be1 Y0 2.965717 1_455
Be2 Rh3 2.314565 1_554
Be2 Rh3 2.314565 1_555
Be2 Rh9 2.332686 1_654
Be2 Rh9 2.332686 1_655
Be2 Rh6 2.339290 1_555
Be2 Rh6 2.339290 1_554
Be2 Y2 2.831655 1_555
Be2 Y0 2.889367 1_555
Be2 Y3 2.965717 1_655
Be3 Rh1 2.314565 1_554
Be3 Rh1 2.314565 1_555
Be3 Rh8 2.332686 1_565
Be3 Rh8 2.332686 1_564
Be3 Rh4 2.339290 1_555
Be3 Rh4 2.339290 1_554
Be3 Y3 2.831655 1_555
Be3 Y2 2.889367 1_555
Be3 Y1 2.965717 1_565
Rh0 Y4 2.833543 1_556
Rh0 Y4 2.833543 1_555
Rh0 Y1 3.003169 1_555
Rh0 Y1 3.003169 1_556
Rh0 Y0 3.117618 1_456
Rh0 Y0 3.117618 1_455
Rh1 Y4 2.833543 1_566
Rh1 Y4 2.833543 1_565
Rh1 Y3 3.003169 1_555
Rh1 Y3 3.003169 1_556
Rh1 Y1 3.117618 1_565
Rh1 Y1 3.117618 1_566
Rh2 Y4 2.833543 1_656
Rh2 Y4 2.833543 1_655
Rh2 Y0 3.003169 1_555
Rh2 Y0 3.003169 1_556
Rh2 Y2 3.117618 1_546
Rh2 Y2 3.117618 1_545
Rh3 Y4 2.833543 1_665
Rh3 Y4 2.833543 1_666
Rh3 Y2 3.003169 1_556
Rh3 Y2 3.003169 1_555
Rh3 Y3 3.117618 1_655
Rh3 Y3 3.117618 1_656
Rh4 Sc0 2.762614 1_555
Rh4 Sc0 2.762614 1_556
Rh4 Y3 3.016285 1_555
Rh4 Y3 3.016285 1_556
Rh4 Y2 3.059372 1_556
Rh4 Y2 3.059372 1_555
Rh5 Sc0 2.762614 1_555
Rh5 Sc0 2.762614 1_556
Rh5 Y0 3.016285 1_556
Rh5 Y0 3.016285 1_555
Rh5 Y1 3.059372 1_556
Rh5 Y1 3.059372 1_555
Rh6 Sc0 2.762614 1_555
Rh6 Sc0 2.762614 1_556
Rh6 Y2 3.016285 1_556
Rh6 Y2 3.016285 1_555
Rh6 Y0 3.059372 1_556
Rh6 Y0 3.059372 1_555
Rh7 Sc0 2.762614 1_555
Rh7 Sc0 2.762614 1_556
Rh7 Y1 3.016285 1_556
Rh7 Y1 3.016285 1_555
Rh7 Y3 3.059372 1_555
Rh7 Y3 3.059372 1_556
Rh8 Y1 2.933263 1_556
Rh8 Y1 2.933263 1_555
Rh8 Y2 2.933263 1_546
Rh8 Y2 2.933263 1_545
Rh9 Y3 2.933263 1_556
Rh9 Y3 2.933263 1_555
Rh9 Y0 2.933263 1_456
Rh9 Y0 2.933263 1_455
