# generated using pymatgen
data_Lu(ScS2)3
_symmetry_space_group_name_H-M   'P 1'
_cell_length_a   6.42372574
_cell_length_b   6.42372634
_cell_length_c   6.55234260
_cell_angle_alpha   99.41447815
_cell_angle_beta   99.41447347
_cell_angle_gamma   119.94951755
_symmetry_Int_Tables_number   1
_chemical_formula_structural   Lu(ScS2)3
_chemical_formula_sum   'Lu1 Sc3 S6'
_cell_volume   221.40156129
_cell_formula_units_Z   1
loop_
 _symmetry_equiv_pos_site_id
 _symmetry_equiv_pos_as_xyz
  1  'x, y, z'
loop_
 _atom_site_type_symbol
 _atom_site_label
 _atom_site_symmetry_multiplicity
 _atom_site_fract_x
 _atom_site_fract_y
 _atom_site_fract_z
 _atom_site_occupancy
  Lu  Lu0  1  0.00000000  0.00000000  0.50000000  1
  Sc  Sc0  1  0.83297967  0.16702033  0.00000000  1
  Sc  Sc1  1  0.50000000  0.50000000  0.00000000  1
  Sc  Sc2  1  0.16702033  0.83297967  1.00000000  1
  S  S0  1  0.91092247  0.58478938  0.23325965  1
  S  S1  1  0.58478938  0.91092247  0.23325965  1
  S  S2  1  0.23798417  0.23798417  0.23671481  1
  S  S3  1  0.76201483  0.76201483  0.76328419  1
  S  S4  1  0.41520962  0.08907553  0.76673935  1
  S  S5  1  0.08907553  0.41520962  0.76673935  1
loop_
_geom_bond_atom_site_label_1
_geom_bond_atom_site_label_2
_geom_bond_distance
_geom_bond_site_symmetry_2
Lu0 S3 2.653733 1_445
Lu0 S2 2.653733 1_555
Lu0 S4 2.668325 1_555
Lu0 S5 2.668326 1_555
Lu0 S1 2.668328 1_445
Lu0 S0 2.668329 1_445
S0 Sc1 2.563725 1_555
S0 Sc2 2.566152 1_654
S0 Sc0 2.618161 1_555
S1 Sc1 2.563726 1_555
S1 Sc0 2.566152 1_565
S1 Sc2 2.618160 1_554
S2 Sc0 2.578070 1_455
S2 Sc2 2.578070 1_544
S2 Sc1 2.636480 1_555
S3 Sc2 2.578075 1_655
S3 Sc0 2.578075 1_566
S3 Sc1 2.636480 1_556
S4 Sc1 2.563736 1_556
S4 Sc2 2.566149 1_545
S4 Sc0 2.618163 1_556
S5 Sc1 2.563736 1_556
S5 Sc0 2.566149 1_456
S5 Sc2 2.618163 1_555
