# generated using pymatgen
data_Na4Mn(CdS2)3
_symmetry_space_group_name_H-M   'P 1'
_cell_length_a   10.15086833
_cell_length_b   10.15512369
_cell_length_c   7.12263630
_cell_angle_alpha   69.76407549
_cell_angle_beta   69.99407799
_cell_angle_gamma   83.15669758
_symmetry_Int_Tables_number   1
_chemical_formula_structural   Na4Mn(CdS2)3
_chemical_formula_sum   'Na8 Mn2 Cd6 S12'
_cell_volume   647.33521301
_cell_formula_units_Z   2
loop_
 _symmetry_equiv_pos_site_id
 _symmetry_equiv_pos_as_xyz
  1  'x, y, z'
loop_
 _atom_site_type_symbol
 _atom_site_label
 _atom_site_symmetry_multiplicity
 _atom_site_fract_x
 _atom_site_fract_y
 _atom_site_fract_z
 _atom_site_occupancy
  Na  Na0  1  0.99144166  0.81771697  0.12812544  1
  Na  Na1  1  0.18747495  0.01451254  0.35600741  1
  Na  Na2  1  0.01602784  0.17882598  0.86939274  1
  Na  Na3  1  0.82640488  0.99163925  0.63175045  1
  Na  Na4  1  0.28123980  0.72267355  0.24690161  1
  Na  Na5  1  0.71968024  0.27715884  0.75481339  1
  Na  Na6  1  0.57167278  0.42806287  0.24639480  1
  Na  Na7  1  0.42228866  0.57522204  0.75414916  1
  Mn  Mn0  1  0.21577160  0.36944430  0.29746509  1
  Mn  Mn1  1  0.44373718  0.92110045  0.73931683  1
  Cd  Cd0  1  0.08590868  0.55861583  0.75198251  1
  Cd  Cd1  1  0.91193297  0.43585387  0.25187192  1
  Cd  Cd2  1  0.55904391  0.08734785  0.25542707  1
  Cd  Cd3  1  0.36562077  0.22047775  0.79852588  1
  Cd  Cd4  1  0.77699266  0.63731994  0.69914469  1
  Cd  Cd5  1  0.63094104  0.78100039  0.20115457  1
  S  S0  1  0.22880549  0.99430257  0.95601838  1
  S  S1  1  0.01225527  0.22145213  0.46465124  1
  S  S2  1  0.78091006  0.99935832  0.03601491  1
  S  S3  1  0.59176517  0.13750496  0.56435479  1
  S  S4  1  0.85227232  0.40688988  0.94632780  1
  S  S5  1  0.40817683  0.85512709  0.46065559  1
  S  S6  1  0.99938603  0.78097405  0.53051373  1
  S  S7  1  0.14586193  0.58358845  0.06168037  1
  S  S8  1  0.43018449  0.29335168  0.06717101  1
  S  S9  1  0.70162861  0.55367707  0.44929203  1
  S  S10  1  0.55333210  0.71784331  0.93654839  1
  S  S11  1  0.28924609  0.43895708  0.54434721  1
loop_
_geom_bond_atom_site_label_1
_geom_bond_atom_site_label_2
_geom_bond_distance
_geom_bond_site_symmetry_2
Na0 S2 2.753689 1_555
Na0 S7 2.777895 1_655
Na0 S6 2.787695 1_555
Na0 S0 2.830529 1_654
Na1 S1 2.733331 1_555
Na1 S5 2.763738 1_545
Na1 S0 2.810859 1_544
Na1 S6 2.868948 1_445
Na2 S0 2.775722 1_545
Na2 S1 2.776303 1_555
Na2 S4 2.786498 1_455
Na2 S2 2.833439 1_446
Na3 S6 2.735965 1_555
Na3 S3 2.747222 1_565
Na3 S2 2.783555 1_556
Na3 S1 2.830813 1_665
Na4 S10 2.895260 1_554
Na4 S7 2.935283 1_555
Na4 S11 2.938643 1_555
Na4 S0 2.938695 1_554
Na4 S5 2.993245 1_555
Na4 S6 3.014296 1_455
Na5 S4 2.886149 1_555
Na5 S3 2.917620 1_555
Na5 S9 2.928712 1_555
Na5 S2 2.980211 1_546
Na5 S8 3.045793 1_556
Na5 S1 3.101650 1_655
Na6 S9 2.904590 1_555
Na6 S8 2.914539 1_555
Na6 S11 2.942594 1_555
Na6 S4 2.955284 1_554
Na6 S10 3.036919 1_554
Na6 S3 3.070311 1_555
Na7 S5 2.909888 1_555
Na7 S10 2.915166 1_555
Na7 S7 2.923203 1_556
Na7 S9 2.961591 1_555
Na7 S8 2.970445 1_556
Na7 S11 3.037839 1_555
Mn0 S1 2.400643 1_555
Mn0 S7 2.444257 1_555
Mn0 S11 2.455254 1_555
Mn0 S8 2.461304 1_555
Mn1 S0 2.407912 1_555
Mn1 S5 2.446699 1_555
Mn1 S10 2.447004 1_555
Mn1 S3 2.500300 1_565
Cd0 S6 2.523858 1_455
Cd0 S11 2.545759 1_555
Cd0 S7 2.577368 1_556
Cd0 S4 2.657789 1_455
Cd1 S1 2.513846 1_655
Cd1 S9 2.543106 1_555
Cd1 S4 2.564475 1_554
Cd1 S7 2.639426 1_655
Cd2 S2 2.528052 1_545
Cd2 S8 2.548104 1_555
Cd2 S3 2.554827 1_555
Cd2 S5 2.643397 1_545
Cd3 S0 2.524758 1_545
Cd3 S11 2.563788 1_555
Cd3 S8 2.567439 1_556
Cd3 S3 2.579337 1_555
Cd4 S6 2.526751 1_555
Cd4 S10 2.563152 1_555
Cd4 S9 2.570177 1_555
Cd4 S4 2.608416 1_555
Cd5 S2 2.528441 1_555
Cd5 S10 2.560583 1_554
Cd5 S9 2.572593 1_555
Cd5 S5 2.606398 1_555
