# generated using pymatgen
data_Na2PPd3
_symmetry_space_group_name_H-M   'P 1'
_cell_length_a   4.90725890
_cell_length_b   4.90725865
_cell_length_c   4.90725786
_cell_angle_alpha   68.57944374
_cell_angle_beta   68.57944518
_cell_angle_gamma   68.57943968
_symmetry_Int_Tables_number   1
_chemical_formula_structural   Na2PPd3
_chemical_formula_sum   'Na2 P1 Pd3'
_cell_volume   98.67844270
_cell_formula_units_Z   1
loop_
 _symmetry_equiv_pos_site_id
 _symmetry_equiv_pos_as_xyz
  1  'x, y, z'
loop_
 _atom_site_type_symbol
 _atom_site_label
 _atom_site_symmetry_multiplicity
 _atom_site_fract_x
 _atom_site_fract_y
 _atom_site_fract_z
 _atom_site_occupancy
  Na  Na0  1  0.87786674  0.87786674  0.87786674  1
  Na  Na1  1  0.12213326  0.12213326  0.12213326  1
  P  P0  1  0.50000000  0.50000000  0.50000000  1
  Pd  Pd0  1  0.50000000  0.50000000  0.00000000  1
  Pd  Pd1  1  0.00000000  0.50000000  0.50000000  1
  Pd  Pd2  1  0.50000000  0.00000000  0.50000000  1
loop_
_geom_bond_atom_site_label_1
_geom_bond_atom_site_label_2
_geom_bond_distance
_geom_bond_site_symmetry_2
Na0 Na1 2.731112 1_666
Na0 Pd1 2.850255 1_655
Na0 Pd2 2.850255 1_565
Na0 Pd0 2.850256 1_556
Na0 Pd1 3.083501 1_656
Na0 Pd2 3.083501 1_566
Na0 Pd0 3.083501 1_566
Na0 Pd0 3.083502 1_656
Na0 Pd1 3.083502 1_665
Na0 Pd2 3.083502 1_665
Na0 P0 3.230930 1_565
Na0 P0 3.230930 1_655
Na0 P0 3.230930 1_556
Na1 Pd1 2.850255 1_555
Na1 Pd2 2.850255 1_555
Na1 Pd0 2.850256 1_555
Na1 Pd1 3.083501 1_554
Na1 Pd2 3.083501 1_554
Na1 Pd0 3.083501 1_545
Na1 Pd0 3.083502 1_455
Na1 Pd1 3.083502 1_545
Na1 Pd2 3.083502 1_455
Na1 P0 3.230930 1_545
Na1 P0 3.230930 1_455
Na1 P0 3.230930 1_554
P0 Pd0 2.453629 1_556
P0 Pd0 2.453629 1_555
P0 Pd2 2.453629 1_565
P0 Pd2 2.453629 1_555
P0 Pd1 2.453629 1_555
P0 Pd1 2.453629 1_655
Pd0 Pd2 2.764641 1_555
Pd0 Pd2 2.764641 1_564
Pd0 Pd1 2.764641 1_654
Pd0 Pd1 2.764641 1_555
Pd1 Pd2 2.764641 1_465
Pd1 Pd2 2.764641 1_555
