# generated using pymatgen
data_Ba4GeSb2Se11
_symmetry_space_group_name_H-M   'P 1'
_cell_length_a   13.81593292
_cell_length_b   13.81593235
_cell_length_c   8.94981971
_cell_angle_alpha   90.00000000
_cell_angle_beta   90.00000000
_cell_angle_gamma   139.77491479
_symmetry_Int_Tables_number   1
_chemical_formula_structural   Ba4GeSb2Se11
_chemical_formula_sum   'Ba8 Ge2 Sb4 Se22'
_cell_volume   1103.23334996
_cell_formula_units_Z   2
loop_
 _symmetry_equiv_pos_site_id
 _symmetry_equiv_pos_as_xyz
  1  'x, y, z'
loop_
 _atom_site_type_symbol
 _atom_site_label
 _atom_site_symmetry_multiplicity
 _atom_site_fract_x
 _atom_site_fract_y
 _atom_site_fract_z
 _atom_site_occupancy
  Ba  Ba0  1  0.96274732  0.54239275  0.99769221  1
  Ba  Ba1  1  0.45760725  0.03725268  0.99769221  1
  Ba  Ba2  1  0.03725268  0.45760725  0.49769221  1
  Ba  Ba3  1  0.54239275  0.96274732  0.49769221  1
  Ba  Ba4  1  0.78576886  0.70692267  0.24140475  1
  Ba  Ba5  1  0.29307733  0.21423114  0.24140475  1
  Ba  Ba6  1  0.21423114  0.29307733  0.74140475  1
  Ba  Ba7  1  0.70692267  0.78576886  0.74140475  1
  Ge  Ge0  1  0.92007027  0.07992973  0.40824139  1
  Ge  Ge1  1  0.07992973  0.92007027  0.90824139  1
  Sb  Sb0  1  0.35188123  0.64811877  0.06736912  1
  Sb  Sb1  1  0.64811877  0.35188123  0.56736912  1
  Sb  Sb2  1  0.85446747  0.14553253  0.06830484  1
  Sb  Sb3  1  0.14553253  0.85446747  0.56830484  1
  Se  Se0  1  0.61614606  0.38385394  0.09250935  1
  Se  Se1  1  0.38385394  0.61614606  0.59250935  1
  Se  Se2  1  0.55465282  0.44534718  0.89514128  1
  Se  Se3  1  0.44534718  0.55465282  0.39514128  1
  Se  Se4  1  0.52772479  0.47227521  0.52227690  1
  Se  Se5  1  0.47227521  0.52772479  0.02227690  1
  Se  Se6  1  0.73214890  0.26785110  0.72339709  1
  Se  Se7  1  0.26785110  0.73214890  0.22339709  1
  Se  Se8  1  0.88036849  0.55264619  0.39731463  1
  Se  Se9  1  0.44735381  0.11963151  0.39731463  1
  Se  Se10  1  0.11963151  0.44735381  0.89731463  1
  Se  Se11  1  0.55264619  0.88036849  0.89731463  1
  Se  Se12  1  0.76800392  0.23199608  0.20680331  1
  Se  Se13  1  0.23199608  0.76800392  0.70680331  1
  Se  Se14  1  0.90744236  0.70491622  0.75440150  1
  Se  Se15  1  0.29508378  0.09255764  0.75440150  1
  Se  Se16  1  0.09255764  0.29508378  0.25440150  1
  Se  Se17  1  0.70491622  0.90744236  0.25440150  1
  Se  Se18  1  0.87382392  0.12617608  0.63213430  1
  Se  Se19  1  0.12617608  0.87382392  0.13213430  1
  Se  Se20  1  0.00691408  0.99308592  0.48579421  1
  Se  Se21  1  0.99308592  0.00691408  0.98579421  1
loop_
_geom_bond_atom_site_label_1
_geom_bond_atom_site_label_2
_geom_bond_distance
_geom_bond_site_symmetry_2
Ba0 Se12 3.393077 1_556
Ba0 Se10 3.402235 1_655
Ba0 Se19 3.424242 1_656
Ba0 Se7 3.441947 1_656
Ba0 Se6 3.480040 1_555
Ba0 Se0 3.525902 1_556
Ba0 Se13 3.553219 1_655
Ba0 Se14 3.603711 1_555
Ba0 Se8 3.788579 1_556
Ba1 Se12 3.393077 1_556
Ba1 Se11 3.402235 1_545
Ba1 Se19 3.424242 1_546
Ba1 Se7 3.441947 1_546
Ba1 Se6 3.480040 1_555
Ba1 Se0 3.525902 1_556
Ba1 Se13 3.553219 1_545
Ba1 Se15 3.603711 1_555
Ba1 Se9 3.788579 1_556
Ba2 Se13 3.393077 1_555
Ba2 Se8 3.402235 1_455
Ba2 Se18 3.424242 1_455
Ba2 Se6 3.441947 1_455
Ba2 Se7 3.480040 1_555
Ba2 Se1 3.525902 1_555
Ba2 Se12 3.553219 1_455
Ba2 Se16 3.603711 1_555
Ba2 Se10 3.788579 1_555
Ba3 Se13 3.393077 1_555
Ba3 Se9 3.402235 1_565
Ba3 Se18 3.424242 1_565
Ba3 Se6 3.441947 1_565
Ba3 Se7 3.480040 1_555
Ba3 Se1 3.525902 1_555
Ba3 Se12 3.553219 1_565
Ba3 Se17 3.603711 1_555
Ba3 Se11 3.788579 1_555
Ba4 Se0 3.349264 1_555
Ba4 Se20 3.362181 1_655
Ba4 Se19 3.439763 1_655
Ba4 Se4 3.448176 1_555
Ba4 Se5 3.515747 1_555
Ba4 Se8 3.528798 1_555
Ba4 Se21 3.533793 1_564
Ba4 Se3 3.651070 1_555
Ba4 Se17 3.696199 1_555
Ba5 Se0 3.349265 1_555
Ba5 Se20 3.362181 1_545
Ba5 Se19 3.439763 1_545
Ba5 Se4 3.448176 1_555
Ba5 Se5 3.515747 1_555
Ba5 Se9 3.528798 1_555
Ba5 Se21 3.533793 1_454
Ba5 Se3 3.651070 1_555
Ba5 Se16 3.696199 1_555
Ba6 Se1 3.349264 1_555
Ba6 Se21 3.362181 1_455
Ba6 Se18 3.439763 1_455
Ba6 Se5 3.448176 1_556
Ba6 Se4 3.515747 1_555
Ba6 Se10 3.528798 1_555
Ba6 Se20 3.533793 1_545
Ba6 Se2 3.651070 1_555
Ba6 Se15 3.696199 1_555
Ba7 Se1 3.349265 1_555
Ba7 Se21 3.362181 1_565
Ba7 Se18 3.439763 1_565
Ba7 Se5 3.448176 1_556
Ba7 Se4 3.515747 1_555
Ba7 Se11 3.528798 1_555
Ba7 Se20 3.533793 1_655
Ba7 Se2 3.651070 1_555
Ba7 Se14 3.696199 1_555
Ge0 Se18 2.335614 1_555
Ge0 Se20 2.357799 1_645
Ge0 Se16 2.365085 1_655
Ge0 Se17 2.365085 1_545
Ge1 Se19 2.335614 1_556
Ge1 Se21 2.357799 1_465
Ge1 Se14 2.365085 1_455
Ge1 Se15 2.365085 1_565
Sb0 Se7 2.589165 1_555
Sb0 Se11 2.591363 1_554
Sb0 Se10 2.591363 1_554
Sb0 Se5 3.149804 1_555
Sb1 Se6 2.589165 1_555
Sb1 Se9 2.591363 1_555
Sb1 Se8 2.591363 1_555
Sb1 Se4 3.149804 1_555
Sb2 Se12 2.563113 1_555
Sb2 Se17 2.735862 1_545
Sb2 Se16 2.735862 1_655
Sb2 Se10 3.134295 1_654
Sb2 Se11 3.134295 1_544
Sb3 Se13 2.563113 1_555
Sb3 Se15 2.735862 1_565
Sb3 Se14 2.735862 1_455
Sb3 Se8 3.134295 1_455
Sb3 Se9 3.134295 1_565
Se0 Se2 2.380335 1_554
Se1 Se3 2.380335 1_555
Se2 Se5 2.421431 1_556
Se3 Se4 2.421431 1_555
