# generated using pymatgen
data_Er3GaO6
_symmetry_space_group_name_H-M   'P 1'
_cell_length_a   6.99935713
_cell_length_b   6.99935713
_cell_length_c   5.34979191
_cell_angle_alpha   90.00000000
_cell_angle_beta   90.00000000
_cell_angle_gamma   102.83349121
_symmetry_Int_Tables_number   1
_chemical_formula_structural   Er3GaO6
_chemical_formula_sum   'Er6 Ga2 O12'
_cell_volume   255.54452459
_cell_formula_units_Z   2
loop_
 _symmetry_equiv_pos_site_id
 _symmetry_equiv_pos_as_xyz
  1  'x, y, z'
loop_
 _atom_site_type_symbol
 _atom_site_label
 _atom_site_symmetry_multiplicity
 _atom_site_fract_x
 _atom_site_fract_y
 _atom_site_fract_z
 _atom_site_occupancy
  Er  Er0  1  0.39831441  0.60168559  0.06974028  1
  Er  Er1  1  0.60168559  0.39831441  0.56974028  1
  Er  Er2  1  0.91187537  0.70173377  0.02113395  1
  Er  Er3  1  0.08812463  0.29826623  0.52113395  1
  Er  Er4  1  0.29826623  0.08812463  0.02113395  1
  Er  Er5  1  0.70173377  0.91187537  0.52113395  1
  Ga  Ga0  1  0.19341283  0.80658717  0.49176838  1
  Ga  Ga1  1  0.80658717  0.19341283  0.99176838  1
  O  O0  1  0.21608702  0.78391298  0.83198765  1
  O  O1  1  0.78391298  0.21608702  0.33198765  1
  O  O2  1  0.03795201  0.96204799  0.34489086  1
  O  O3  1  0.96204799  0.03795201  0.84489086  1
  O  O4  1  0.67811470  0.64292156  0.29489142  1
  O  O5  1  0.32188530  0.35707844  0.79489142  1
  O  O6  1  0.35707844  0.32188530  0.29489142  1
  O  O7  1  0.64292156  0.67811470  0.79489142  1
  O  O8  1  0.57580322  0.10546685  0.80989204  1
  O  O9  1  0.42419678  0.89453315  0.30989204  1
  O  O10  1  0.89453315  0.42419678  0.80989204  1
  O  O11  1  0.10546685  0.57580322  0.30989204  1
loop_
_geom_bond_atom_site_label_1
_geom_bond_atom_site_label_2
_geom_bond_distance
_geom_bond_site_symmetry_2
Er0 O7 2.229932 1_554
Er0 O5 2.229932 1_554
Er0 O4 2.262403 1_555
Er0 O6 2.262403 1_555
Er0 O0 2.365200 1_554
Er0 O11 2.391637 1_555
Er0 O9 2.391637 1_555
Er1 O6 2.229932 1_555
Er1 O4 2.229932 1_555
Er1 O7 2.262403 1_555
Er1 O5 2.262403 1_555
Er1 O1 2.365200 1_555
Er1 O8 2.391637 1_555
Er1 O10 2.391637 1_555
Er2 O4 2.166151 1_555
Er2 O7 2.213108 1_554
Er2 O10 2.227269 1_554
Er2 O0 2.311830 1_654
Er2 O11 2.351587 1_655
Er2 O3 2.486617 1_564
Er2 O2 2.526696 1_655
Er3 O5 2.166151 1_555
Er3 O6 2.213108 1_555
Er3 O11 2.227269 1_555
Er3 O1 2.311830 1_455
Er3 O10 2.351587 1_455
Er3 O2 2.486617 1_545
Er3 O3 2.526696 1_455
Er4 O6 2.166151 1_555
Er4 O5 2.213108 1_554
Er4 O8 2.227269 1_554
Er4 O0 2.311830 1_544
Er4 O9 2.351587 1_545
Er4 O3 2.486617 1_454
Er4 O2 2.526696 1_545
Er5 O7 2.166151 1_555
Er5 O4 2.213108 1_555
Er5 O9 2.227269 1_555
Er5 O1 2.311830 1_565
Er5 O8 2.351587 1_565
Er5 O2 2.486617 1_655
Er5 O3 2.526696 1_565
Ga0 O0 1.836937 1_555
Ga0 O11 1.869023 1_555
Ga0 O9 1.869023 1_555
Ga0 O2 1.873885 1_555
Ga1 O1 1.836937 1_556
Ga1 O8 1.869023 1_555
Ga1 O10 1.869023 1_555
Ga1 O3 1.873885 1_555
