# generated using pymatgen
data_Hf10InGa2Sb5
_symmetry_space_group_name_H-M   'P 1'
_cell_length_a   8.59067087
_cell_length_b   8.57579475
_cell_length_c   5.75361552
_cell_angle_alpha   90.00000000
_cell_angle_beta   90.00000000
_cell_angle_gamma   119.94273593
_symmetry_Int_Tables_number   1
_chemical_formula_structural   Hf10InGa2Sb5
_chemical_formula_sum   'Hf10 In1 Ga2 Sb5'
_cell_volume   367.30195523
_cell_formula_units_Z   1
loop_
 _symmetry_equiv_pos_site_id
 _symmetry_equiv_pos_as_xyz
  1  'x, y, z'
loop_
 _atom_site_type_symbol
 _atom_site_label
 _atom_site_symmetry_multiplicity
 _atom_site_fract_x
 _atom_site_fract_y
 _atom_site_fract_z
 _atom_site_occupancy
  Hf  Hf0  1  0.73593930  0.73594425  0.75000000  1
  Hf  Hf1  1  0.26406070  0.00000394  0.75000000  1
  Hf  Hf2  1  1.00000000  0.26298093  0.75000000  1
  Hf  Hf3  1  0.27203324  0.27112257  0.25000000  1
  Hf  Hf4  1  0.72796676  0.99909033  0.25000000  1
  Hf  Hf5  1  0.00000000  0.73015531  0.25000000  1
  Hf  Hf6  1  0.66560076  0.33348040  0.00148993  1
  Hf  Hf7  1  0.33439924  0.66788164  0.00148993  1
  Hf  Hf8  1  0.33439924  0.66788164  0.49851007  1
  Hf  Hf9  1  0.66560076  0.33348040  0.49851007  1
  In  In0  1  0.00000000  0.38492570  0.25000000  1
  Ga  Ga0  1  0.00000000  0.00111891  0.00725149  1
  Ga  Ga1  1  0.00000000  0.00111891  0.49274851  1
  Sb  Sb0  1  0.39126390  0.39240439  0.75000000  1
  Sb  Sb1  1  0.60873610  0.00114150  0.75000000  1
  Sb  Sb2  1  1.00000000  0.60419162  0.75000000  1
  Sb  Sb3  1  0.61178622  0.61243239  0.25000000  1
  Sb  Sb4  1  0.38821378  0.00064617  0.25000000  1
loop_
_geom_bond_atom_site_label_1
_geom_bond_atom_site_label_2
_geom_bond_distance
_geom_bond_site_symmetry_2
Hf0 Sb0 2.956144 1_555
Hf0 Sb1 2.974458 1_565
Hf0 Sb2 2.996864 1_555
Hf0 Sb3 3.067205 1_556
Hf0 Sb3 3.067205 1_555
Hf1 Sb1 2.956136 1_555
Hf1 Sb0 2.974458 1_555
Hf1 Sb2 2.996858 1_445
Hf1 Sb4 3.067203 1_556
Hf1 Sb4 3.067203 1_555
Hf2 Sb2 2.926153 1_555
Hf2 Sb1 2.967406 1_555
Hf2 Sb0 2.967407 1_655
Hf2 In0 3.060991 1_655
Hf2 In0 3.060991 1_656
Hf3 Sb3 2.925393 1_555
Hf3 Sb4 2.947459 1_555
Hf3 In0 2.947984 1_555
Hf3 Sb0 3.056706 1_554
Hf3 Sb0 3.056706 1_555
Hf4 Sb4 2.925389 1_565
Hf4 Sb3 2.947467 1_555
Hf4 In0 2.947978 1_665
Hf4 Sb1 3.056706 1_564
Hf4 Sb1 3.056706 1_565
Hf5 In0 2.960618 1_555
Hf5 Sb4 2.963186 1_565
Hf5 Sb3 2.963186 1_455
Hf5 Sb2 3.072936 1_454
Hf5 Sb2 3.072936 1_455
Hf6 Hf9 2.859663 1_555
Hf6 Hf9 2.893953 1_554
Hf6 Sb1 3.010883 1_554
Hf6 Sb2 3.013012 1_554
Hf6 Sb4 3.013314 1_555
Hf6 Sb3 3.014125 1_555
Hf6 Sb0 3.015319 1_554
Hf6 In0 3.037490 1_655
Hf7 Hf8 2.859663 1_555
Hf7 Hf8 2.893953 1_554
Hf7 Sb0 3.010905 1_554
Hf7 Sb2 3.013007 1_454
Hf7 Sb3 3.013324 1_555
Hf7 Sb4 3.014111 1_565
Hf7 Sb1 3.015314 1_564
Hf7 In0 3.037495 1_555
Hf8 Sb0 3.010905 1_555
Hf8 Sb2 3.013007 1_455
Hf8 Sb3 3.013324 1_555
Hf8 Sb4 3.014111 1_565
Hf8 Sb1 3.015314 1_565
Hf8 In0 3.037495 1_555
Hf9 Sb1 3.010883 1_555
Hf9 Sb2 3.013012 1_555
Hf9 Sb4 3.013314 1_555
Hf9 Sb3 3.014125 1_555
Hf9 Sb0 3.015319 1_555
Hf9 In0 3.037490 1_655
Ga0 Hf2 2.689578 1_454
Ga0 Hf5 2.711168 1_545
Ga0 Hf0 2.712637 1_444
Ga0 Hf1 2.712641 1_554
Ga0 Hf3 2.715095 1_555
Ga0 Hf4 2.715099 1_445
Ga1 Hf2 2.689578 1_455
Ga1 Hf5 2.711168 1_545
Ga1 Hf0 2.712637 1_445
Ga1 Hf1 2.712641 1_555
Ga1 Hf3 2.715095 1_555
Ga1 Hf4 2.715099 1_445
