# generated using pymatgen
data_Sr3CaPtO6
_symmetry_space_group_name_H-M   'P 1'
_cell_length_a   6.81515009
_cell_length_b   6.81514992
_cell_length_c   6.81515052
_cell_angle_alpha   91.27624251
_cell_angle_beta   91.27623931
_cell_angle_gamma   91.27623495
_symmetry_Int_Tables_number   1
_chemical_formula_structural   Sr3CaPtO6
_chemical_formula_sum   'Sr6 Ca2 Pt2 O12'
_cell_volume   316.29919059
_cell_formula_units_Z   2
loop_
 _symmetry_equiv_pos_site_id
 _symmetry_equiv_pos_as_xyz
  1  'x, y, z'
loop_
 _atom_site_type_symbol
 _atom_site_label
 _atom_site_symmetry_multiplicity
 _atom_site_fract_x
 _atom_site_fract_y
 _atom_site_fract_z
 _atom_site_occupancy
  Sr  Sr0  1  0.88487238  0.25000000  0.61512762  1
  Sr  Sr1  1  0.38487238  0.11512762  0.75000000  1
  Sr  Sr2  1  0.75000000  0.38487238  0.11512762  1
  Sr  Sr3  1  0.25000000  0.61512762  0.88487238  1
  Sr  Sr4  1  0.61512762  0.88487238  0.25000000  1
  Sr  Sr5  1  0.11512762  0.75000000  0.38487238  1
  Ca  Ca0  1  0.75000000  0.75000000  0.75000000  1
  Ca  Ca1  1  0.25000000  0.25000000  0.25000000  1
  Pt  Pt0  1  0.50000000  0.50000000  0.50000000  1
  Pt  Pt1  1  0.00000000  0.00000000  0.00000000  1
  O  O0  1  0.91795603  0.71339991  0.05009249  1
  O  O1  1  0.44990751  0.78660009  0.58204397  1
  O  O2  1  0.05009249  0.91795603  0.71339991  1
  O  O3  1  0.28660009  0.94990751  0.08204397  1
  O  O4  1  0.94990751  0.08204397  0.28660009  1
  O  O5  1  0.71339991  0.05009249  0.91795603  1
  O  O6  1  0.58204397  0.44990751  0.78660009  1
  O  O7  1  0.78660009  0.58204397  0.44990751  1
  O  O8  1  0.41795603  0.55009249  0.21339991  1
  O  O9  1  0.21339991  0.41795603  0.55009249  1
  O  O10  1  0.55009249  0.21339991  0.41795603  1
  O  O11  1  0.08204397  0.28660009  0.94990751  1
loop_
_geom_bond_atom_site_label_1
_geom_bond_atom_site_label_2
_geom_bond_distance
_geom_bond_site_symmetry_2
Ca0 O5 2.342293 1_565
Ca0 O1 2.342293 1_555
Ca0 O7 2.342293 1_555
Ca0 O6 2.342293 1_555
Ca0 O2 2.342293 1_655
Ca0 O0 2.342293 1_556
Ca1 O3 2.342293 1_545
Ca1 O10 2.342293 1_555
Ca1 O9 2.342293 1_555
Ca1 O8 2.342293 1_555
Ca1 O4 2.342293 1_455
Ca1 O11 2.342293 1_554
O0 Pt1 2.057625 1_665
O0 Sr2 2.544065 1_555
O0 Sr5 2.626143 1_655
O0 Sr3 2.642858 1_654
O0 Sr4 2.764580 1_555
O1 Pt0 2.057625 1_555
O1 Sr1 2.544065 1_565
O1 Sr5 2.626143 1_555
O1 Sr4 2.642859 1_555
O1 Sr3 2.764581 1_555
O2 Pt1 2.057625 1_566
O2 Sr5 2.544065 1_555
O2 Sr1 2.626143 1_565
O2 Sr0 2.642858 1_465
O2 Sr3 2.764580 1_555
O3 Pt1 2.057625 1_565
O3 Sr4 2.544065 1_555
O3 Sr3 2.626143 1_554
O3 Sr1 2.642859 1_564
O3 Sr5 2.764581 1_555
O4 Pt1 2.057625 1_655
O4 Sr0 2.544065 1_555
O4 Sr4 2.626143 1_545
O4 Sr5 2.642858 1_645
O4 Sr2 2.764580 1_555
O5 Pt1 2.057625 1_656
O5 Sr1 2.544065 1_555
O5 Sr2 2.626143 1_556
O5 Sr4 2.642859 1_546
O5 Sr0 2.764581 1_555
O6 Pt0 2.057625 1_555
O6 Sr2 2.544065 1_556
O6 Sr1 2.626143 1_555
O6 Sr3 2.642858 1_555
O6 Sr0 2.764580 1_555
O7 Pt0 2.057625 1_555
O7 Sr5 2.544065 1_655
O7 Sr2 2.626143 1_555
O7 Sr0 2.642859 1_555
O7 Sr4 2.764580 1_555
O8 Pt0 2.057625 1_555
O8 Sr3 2.544065 1_554
O8 Sr4 2.626143 1_555
O8 Sr2 2.642858 1_555
O8 Sr5 2.764580 1_555
O9 Pt0 2.057625 1_555
O9 Sr0 2.544065 1_455
O9 Sr3 2.626143 1_555
O9 Sr5 2.642859 1_555
O9 Sr1 2.764580 1_555
O10 Pt0 2.057625 1_555
O10 Sr4 2.544065 1_545
O10 Sr0 2.626143 1_555
O10 Sr1 2.642859 1_555
O10 Sr2 2.764581 1_555
O11 Pt1 2.057625 1_556
O11 Sr3 2.544065 1_555
O11 Sr0 2.626143 1_455
O11 Sr2 2.642858 1_456
O11 Sr1 2.764580 1_555
