# generated using pymatgen
data_La6Mo8O33
_symmetry_space_group_name_H-M   'P 1'
_cell_length_a   12.15245400
_cell_length_b   10.87511100
_cell_length_c   11.95181445
_cell_angle_alpha   63.95728854
_cell_angle_beta   90.00000000
_cell_angle_gamma   90.00000000
_symmetry_Int_Tables_number   1
_chemical_formula_structural   La6Mo8O33
_chemical_formula_sum   'La12 Mo16 O66'
_cell_volume   1419.16751646
_cell_formula_units_Z   2
loop_
 _symmetry_equiv_pos_site_id
 _symmetry_equiv_pos_as_xyz
  1  'x, y, z'
loop_
 _atom_site_type_symbol
 _atom_site_label
 _atom_site_symmetry_multiplicity
 _atom_site_fract_x
 _atom_site_fract_y
 _atom_site_fract_z
 _atom_site_occupancy
  La  La0  1  0.99934000  0.16038800  0.88512200  1
  La  La1  1  0.49934000  0.83961200  0.11487800  1
  La  La2  1  0.25087300  0.43209000  0.87552300  1
  La  La3  1  0.75087300  0.56791000  0.12447700  1
  La  La4  1  0.00779200  0.71752900  0.89060500  1
  La  La5  1  0.50779200  0.28247100  0.10939500  1
  La  La6  1  0.50098600  0.05287300  0.65818300  1
  La  La7  1  0.00098600  0.94712700  0.34181700  1
  La  La8  1  0.75487000  0.32381800  0.61297400  1
  La  La9  1  0.25487000  0.67618200  0.38702600  1
  La  La10  1  0.75494400  0.80520100  0.63432200  1
  La  La11  1  0.25494400  0.19479900  0.36567800  1
  Mo  Mo0  1  0.50985900  0.18240400  0.87209100  1
  Mo  Mo1  1  0.00985900  0.81759600  0.12790900  1
  Mo  Mo2  1  0.76648300  0.43464700  0.87643100  1
  Mo  Mo3  1  0.26648300  0.56535300  0.12356900  1
  Mo  Mo4  1  0.51270600  0.67025600  0.88221500  1
  Mo  Mo5  1  0.01270600  0.32974400  0.11778500  1
  Mo  Mo6  1  0.78356000  0.93590800  0.87489800  1
  Mo  Mo7  1  0.28356000  0.06409200  0.12510200  1
  Mo  Mo8  1  0.99347600  0.07261400  0.60154200  1
  Mo  Mo9  1  0.49347600  0.92738600  0.39845800  1
  Mo  Mo10  1  0.24650600  0.30336400  0.63142100  1
  Mo  Mo11  1  0.74650600  0.69663600  0.36857900  1
  Mo  Mo12  1  0.00291700  0.56388200  0.63550600  1
  Mo  Mo13  1  0.50291700  0.43611800  0.36449400  1
  Mo  Mo14  1  0.24373000  0.82434000  0.62346600  1
  Mo  Mo15  1  0.74373000  0.17566000  0.37653400  1
  O  O0  1  0.61287600  0.22020000  0.96051000  1
  O  O1  1  0.11287600  0.77980000  0.03949000  1
  O  O2  1  0.40173400  0.30588500  0.84023200  1
  O  O3  1  0.90173400  0.69411500  0.15976800  1
  O  O4  1  0.57606900  0.22556700  0.71975600  1
  O  O5  1  0.07606900  0.77443300  0.28024400  1
  O  O6  1  0.48443400  0.00473400  0.89409400  1
  O  O7  1  0.98443400  0.99526600  0.10590600  1
  O  O8  1  0.68264300  0.44119400  0.00368400  1
  O  O9  1  0.18264300  0.55880600  0.99631600  1
  O  O10  1  0.84839600  0.59078100  0.79973300  1
  O  O11  1  0.34839600  0.40921900  0.20026700  1
  O  O12  1  0.69709800  0.42695900  0.74900900  1
  O  O13  1  0.19709800  0.57304100  0.25099100  1
  O  O14  1  0.85963100  0.29505700  0.94390800  1
  O  O15  1  0.35963100  0.70494300  0.05609200  1
  O  O16  1  0.08048400  0.30843600  0.99241000  1
  O  O17  1  0.58048400  0.69156400  0.00759000  1
  O  O18  1  0.43545600  0.82021900  0.79292300  1
  O  O19  1  0.93545600  0.17978100  0.20707700  1
  O  O20  1  0.61483400  0.66448900  0.77724100  1
  O  O21  1  0.11483400  0.33551100  0.22275900  1
  O  O22  1  0.43328000  0.51085000  0.94345400  1
  O  O23  1  0.93328000  0.48915000  0.05654600  1
  O  O24  1  0.20078100  0.07330700  0.00220300  1
  O  O25  1  0.70078100  0.92669300  0.99779700  1
  O  O26  1  0.82520900  0.12528200  0.79358100  1
  O  O27  1  0.32520900  0.87471800  0.20641900  1
  O  O28  1  0.68849200  0.94720600  0.74618200  1
  O  O29  1  0.18849200  0.05279400  0.25381800  1
  O  O30  1  0.81043800  0.74527900  0.92153300  1
  O  O31  1  0.31043800  0.25472100  0.07846700  1
  O  O32  1  0.07057400  0.10516400  0.71151700  1
  O  O33  1  0.57057400  0.89483600  0.28848300  1
  O  O34  1  0.89680100  0.20851800  0.53617300  1
  O  O35  1  0.39680100  0.79148200  0.46382700  1
  O  O36  1  0.07509400  0.06660900  0.47521900  1
  O  O37  1  0.57509400  0.93339100  0.52478100  1
  O  O38  1  0.91879600  0.91101700  0.69149600  1
  O  O39  1  0.41879600  0.08898300  0.30850400  1
  O  O40  1  0.16247900  0.31155300  0.75796300  1
  O  O41  1  0.66247900  0.68844700  0.24203700  1
  O  O42  1  0.32335300  0.45886100  0.56509000  1
  O  O43  1  0.82335300  0.54113900  0.43491000  1
  O  O44  1  0.18178300  0.29174700  0.50095700  1
  O  O45  1  0.68178300  0.70825300  0.49904300  1
  O  O46  1  0.33932000  0.16247600  0.69548400  1
  O  O47  1  0.83932000  0.83752400  0.30451600  1
  O  O48  1  0.07675100  0.57207000  0.76421500  1
  O  O49  1  0.57675100  0.42793000  0.23578500  1
  O  O50  1  0.42763200  0.27606800  0.44708400  1
  O  O51  1  0.92763200  0.72393200  0.55291600  1
  O  O52  1  0.60127000  0.44696800  0.46903200  1
  O  O53  1  0.10127000  0.55303200  0.53096800  1
  O  O54  1  0.92456500  0.40601300  0.68833800  1
  O  O55  1  0.42456500  0.59398700  0.31166200  1
  O  O56  1  0.14614800  0.84428500  0.72587200  1
  O  O57  1  0.64614800  0.15571500  0.27412800  1
  O  O58  1  0.82873600  0.01836000  0.44147400  1
  O  O59  1  0.32873600  0.98164000  0.55852600  1
  O  O60  1  0.66734200  0.18473300  0.50313800  1
  O  O61  1  0.16734200  0.81526700  0.49686200  1
  O  O62  1  0.30687700  0.66151800  0.70898300  1
  O  O63  1  0.80687700  0.33848200  0.29101700  1
  O  O64  1  0.94258300  0.91959300  0.93177900  1
  O  O65  1  0.44258300  0.08040700  0.06822100  1
loop_
_geom_bond_atom_site_label_1
_geom_bond_atom_site_label_2
_geom_bond_distance
_geom_bond_site_symmetry_2
La0 O7 2.461655 1_546
La0 O26 2.487470 1_555
La0 O64 2.522282 1_545
La0 O14 2.534681 1_555
La0 O32 2.551360 1_655
La0 O40 2.597865 1_655
La0 O16 2.649849 1_655
La0 O24 2.772013 1_656
La0 O54 2.824195 1_555
La1 O6 2.461655 1_564
La1 O27 2.487470 1_555
La1 O65 2.522282 1_565
La1 O15 2.534681 1_555
La1 O33 2.551360 1_555
La1 O41 2.597865 1_555
La1 O17 2.649849 1_555
La1 O25 2.772013 1_554
La1 O55 2.824195 1_555
La2 O2 2.435380 1_555
La2 O31 2.453508 1_556
La2 O62 2.507906 1_555
La2 O16 2.529421 1_555
La2 O9 2.533322 1_555
La2 O40 2.542381 1_555
La2 O48 2.605075 1_555
La2 O22 2.630051 1_555
La3 O3 2.435380 1_555
La3 O30 2.453508 1_554
La3 O63 2.507906 1_555
La3 O17 2.529421 1_555
La3 O8 2.533322 1_555
La3 O41 2.542381 1_555
La3 O49 2.605075 1_555
La3 O23 2.630051 1_555
La4 O30 2.465295 1_455
La4 O56 2.494085 1_555
La4 O1 2.512761 1_556
La4 O23 2.568392 1_456
La4 O64 2.578479 1_455
La4 O38 2.619825 1_455
La4 O9 2.678786 1_555
La4 O48 2.754044 1_555
La4 O10 2.854168 1_455
La5 O31 2.465295 1_555
La5 O57 2.494085 1_555
La5 O0 2.512761 1_554
La5 O22 2.568392 1_554
La5 O65 2.578479 1_555
La5 O39 2.619825 1_555
La5 O8 2.678786 1_555
La5 O49 2.754044 1_555
La5 O11 2.854168 1_555
La6 O46 2.438419 1_555
La6 O18 2.459954 1_545
La6 O4 2.472819 1_555
La6 O28 2.560805 1_545
La6 O37 2.619294 1_545
La6 O6 2.639763 1_555
La6 O59 2.685279 1_545
La6 O60 2.691447 1_555
La6 O50 2.770287 1_555
La7 O47 2.438419 1_455
La7 O19 2.459954 1_465
La7 O5 2.472819 1_555
La7 O29 2.560805 1_565
La7 O36 2.619294 1_565
La7 O7 2.639763 1_455
La7 O58 2.685279 1_465
La7 O61 2.691447 1_555
La7 O51 2.770287 1_455
La8 O26 2.441203 1_555
La8 O12 2.448638 1_555
La8 O52 2.492877 1_555
La8 O4 2.508870 1_555
La8 O43 2.528021 1_555
La8 O34 2.529909 1_555
La8 O54 2.563211 1_555
La8 O60 2.624133 1_555
La9 O27 2.441203 1_555
La9 O13 2.448638 1_555
La9 O53 2.492877 1_555
La9 O5 2.508870 1_555
La9 O42 2.528021 1_555
La9 O35 2.529909 1_555
La9 O55 2.563211 1_555
La9 O61 2.624133 1_555
La10 O20 2.421434 1_555
La10 O45 2.452148 1_555
La10 O38 2.539010 1_555
La10 O10 2.566649 1_555
La10 O28 2.576312 1_555
La10 O58 2.607444 1_565
La10 O37 2.613771 1_555
La10 O51 2.624284 1_555
La11 O21 2.421434 1_555
La11 O44 2.452148 1_555
La11 O39 2.539010 1_555
La11 O11 2.566649 1_555
La11 O29 2.576312 1_555
La11 O59 2.607444 1_545
La11 O36 2.613771 1_555
La11 O50 2.624284 1_555
Mo0 O2 1.796066 1_555
Mo0 O0 1.798443 1_555
Mo0 O4 1.852614 1_555
Mo0 O6 1.857896 1_555
Mo0 O65 2.260643 1_556
Mo1 O3 1.796066 1_455
Mo1 O1 1.798443 1_555
Mo1 O5 1.852614 1_555
Mo1 O7 1.857896 1_455
Mo1 O64 2.260643 1_454
Mo2 O12 1.774564 1_555
Mo2 O14 1.777992 1_555
Mo2 O10 1.829643 1_555
Mo2 O8 1.857790 1_556
Mo3 O13 1.774564 1_555
Mo3 O15 1.777992 1_555
Mo3 O11 1.829643 1_555
Mo3 O9 1.857790 1_554
Mo4 O18 1.775295 1_555
Mo4 O20 1.785348 1_555
Mo4 O17 1.811741 1_556
Mo4 O22 1.832607 1_555
Mo5 O19 1.775295 1_455
Mo5 O21 1.785348 1_555
Mo5 O16 1.811741 1_554
Mo5 O23 1.832607 1_455
Mo6 O25 1.746519 1_555
Mo6 O28 1.884279 1_555
Mo6 O26 1.919528 1_565
Mo6 O30 1.923675 1_555
Mo6 O64 2.030362 1_555
Mo7 O24 1.746519 1_555
Mo7 O29 1.884279 1_555
Mo7 O27 1.919528 1_545
Mo7 O31 1.923675 1_555
Mo7 O65 2.030362 1_555
Mo8 O32 1.771820 1_655
Mo8 O34 1.777952 1_555
Mo8 O36 1.831417 1_655
Mo8 O38 1.846313 1_545
Mo9 O33 1.771820 1_555
Mo9 O35 1.777952 1_555
Mo9 O37 1.831417 1_555
Mo9 O39 1.846313 1_565
Mo10 O46 1.782103 1_555
Mo10 O42 1.784122 1_555
Mo10 O44 1.799707 1_555
Mo10 O40 1.859109 1_555
Mo11 O47 1.782103 1_555
Mo11 O43 1.784122 1_555
Mo11 O45 1.799707 1_555
Mo11 O41 1.859109 1_555
Mo12 O53 1.770027 1_555
Mo12 O48 1.816501 1_555
Mo12 O54 1.816859 1_455
Mo12 O51 1.825464 1_455
Mo13 O52 1.770027 1_555
Mo13 O49 1.816501 1_555
Mo13 O55 1.816859 1_555
Mo13 O50 1.825464 1_555
Mo14 O62 1.783195 1_555
Mo14 O56 1.784502 1_555
Mo14 O61 1.814441 1_555
Mo14 O59 1.852040 1_555
Mo15 O63 1.783195 1_555
Mo15 O57 1.784502 1_555
Mo15 O60 1.814441 1_555
Mo15 O58 1.852040 1_555
