# generated using pymatgen
data_Nb3V(P5W3)2
_symmetry_space_group_name_H-M   'P 1'
_cell_length_a   3.25464546
_cell_length_b   6.44575978
_cell_length_c   14.57131271
_cell_angle_alpha   77.22167093
_cell_angle_beta   83.58783254
_cell_angle_gamma   89.99999883
_symmetry_Int_Tables_number   1
_chemical_formula_structural   Nb3V(P5W3)2
_chemical_formula_sum   'Nb3 V1 P10 W6'
_cell_volume   296.15455030
_cell_formula_units_Z   1
loop_
 _symmetry_equiv_pos_site_id
 _symmetry_equiv_pos_as_xyz
  1  'x, y, z'
loop_
 _atom_site_type_symbol
 _atom_site_label
 _atom_site_symmetry_multiplicity
 _atom_site_fract_x
 _atom_site_fract_y
 _atom_site_fract_z
 _atom_site_occupancy
  Nb  Nb0  1  0.01280572  0.51280572  0.97439155  1
  Nb  Nb1  1  0.41086998  0.91086998  0.17825903  1
  Nb  Nb2  1  0.80853026  0.30853026  0.38293948  1
  V  V0  1  0.20979497  0.70979497  0.58040806  1
  P  P0  1  0.94468921  0.19970389  0.11061959  1
  P  P1  1  0.34309465  0.59671899  0.31381071  1
  P  P2  1  0.74139089  0.98372638  0.51721822  1
  P  P3  1  0.14540006  0.39914106  0.70920088  1
  P  P4  1  0.54629732  0.80475594  0.90740536  1
  P  P5  1  0.94468921  0.68967552  0.11061959  1
  P  P6  1  0.34309465  0.08947231  0.31381071  1
  P  P7  1  0.74139089  0.49905440  0.51721822  1
  P  P8  1  0.14540006  0.89165906  0.70920088  1
  P  P9  1  0.54629732  0.28783970  0.90740536  1
  W  W0  1  0.20996337  0.20996337  0.58007326  1
  W  W1  1  0.61173335  0.61173335  0.77653429  1
  W  W2  1  0.01151041  0.01151041  0.97698018  1
  W  W3  1  0.41034069  0.41034069  0.17931862  1
  W  W4  1  0.80929008  0.80929008  0.38142084  1
  W  W5  1  0.61341691  0.11341691  0.77316717  1
loop_
_geom_bond_atom_site_label_1
_geom_bond_atom_site_label_2
_geom_bond_distance
_geom_bond_site_symmetry_2
Nb0 P5 2.488369 1_456
Nb0 P0 2.488386 1_456
Nb0 P4 2.513523 1_555
Nb0 P4 2.513529 1_455
Nb0 P9 2.513531 1_555
Nb0 P9 2.513538 1_455
Nb1 P1 2.486715 1_555
Nb1 P6 2.486727 1_565
Nb1 P5 2.502375 1_555
Nb1 P0 2.502376 1_565
Nb1 P5 2.502378 1_455
Nb1 P0 2.502378 1_465
Nb2 P6 2.504609 1_655
Nb2 P6 2.504609 1_555
Nb2 P1 2.504618 1_655
Nb2 P1 2.504618 1_555
Nb2 P7 2.520257 1_555
Nb2 P2 2.520262 1_545
P0 W3 2.466242 1_555
P0 W3 2.466246 1_655
P0 W2 2.502221 1_654
P1 W4 2.465998 1_455
P1 W4 2.466001 1_555
P1 W3 2.505458 1_555
P2 V0 2.425674 1_655
P2 V0 2.425678 1_555
P2 W4 2.472853 1_555
P2 W0 2.488758 1_565
P2 W0 2.488758 1_665
P3 V0 2.413562 1_555
P3 W0 2.449074 1_555
P3 W1 2.464003 1_455
P3 W1 2.464004 1_555
P3 W5 2.477628 1_455
P3 W5 2.477628 1_555
P4 W5 2.452581 1_565
P4 W2 2.457002 1_565
P4 W2 2.457005 1_665
P4 W1 2.487704 1_555
P5 W3 2.466238 1_555
P5 W3 2.466242 1_655
P5 W2 2.502229 1_664
P6 W4 2.466003 1_445
P6 W4 2.466005 1_545
P6 W3 2.505450 1_555
P7 V0 2.425670 1_655
P7 V0 2.425674 1_555
P7 W4 2.472862 1_555
P7 W0 2.488754 1_555
P7 W0 2.488754 1_655
P8 V0 2.413575 1_555
P8 W0 2.449070 1_565
P8 W1 2.464004 1_455
P8 W1 2.464004 1_555
P8 W5 2.477628 1_465
P8 W5 2.477628 1_565
P9 W5 2.452580 1_555
P9 W2 2.457003 1_555
P9 W2 2.457005 1_655
P9 W1 2.487704 1_555
