# generated using pymatgen
data_CaAlSi2Pd
_symmetry_space_group_name_H-M   'P 1'
_cell_length_a   6.00869390
_cell_length_b   6.00869384
_cell_length_c   6.00869353
_cell_angle_alpha   140.30119394
_cell_angle_beta   140.30119342
_cell_angle_gamma   57.39626612
_symmetry_Int_Tables_number   1
_chemical_formula_structural   CaAlSi2Pd
_chemical_formula_sum   'Ca1 Al1 Si2 Pd1'
_cell_volume   87.75765260
_cell_formula_units_Z   1
loop_
 _symmetry_equiv_pos_site_id
 _symmetry_equiv_pos_as_xyz
  1  'x, y, z'
loop_
 _atom_site_type_symbol
 _atom_site_label
 _atom_site_symmetry_multiplicity
 _atom_site_fract_x
 _atom_site_fract_y
 _atom_site_fract_z
 _atom_site_occupancy
  Ca  Ca0  1  0.00000000  0.00000000  0.00000000  1
  Al  Al0  1  0.25000000  0.75000000  0.50000000  1
  Si  Si0  1  0.38841894  0.38841894  0.00000000  1
  Si  Si1  1  0.61158106  0.61158106  1.00000000  1
  Pd  Pd0  1  0.75000000  0.25000000  0.50000000  1
loop_
_geom_bond_atom_site_label_1
_geom_bond_atom_site_label_2
_geom_bond_distance
_geom_bond_site_symmetry_2
Ca0 Si1 3.115871 1_443
Ca0 Si0 3.115871 1_556
Ca0 Si1 3.115871 1_555
Ca0 Si0 3.115871 1_444
Ca0 Si1 3.115871 1_454
Ca0 Si0 3.115871 1_545
Ca0 Si1 3.115871 1_544
Ca0 Si0 3.115871 1_455
Ca0 Pd0 3.332777 1_454
Ca0 Pd0 3.332777 1_455
Ca0 Pd0 3.332777 1_444
Ca0 Pd0 3.332777 1_555
Al0 Si0 2.508302 1_555
Al0 Si1 2.508302 1_555
Al0 Si0 2.508302 1_566
Al0 Si1 2.508302 1_454
Al0 Pd0 2.885344 1_566
Al0 Pd0 2.885344 1_454
Al0 Pd0 2.885344 1_465
Al0 Pd0 2.885344 1_555
Al0 Ca0 3.332777 1_565
Al0 Ca0 3.332777 1_566
Al0 Ca0 3.332777 1_555
Al0 Ca0 3.332777 1_666
Si0 Si1 2.352395 1_554
Pd0 Si1 2.508302 1_555
Pd0 Si0 2.508302 1_555
Pd0 Si1 2.508302 1_544
Pd0 Si0 2.508302 1_656
