# generated using pymatgen
data_Hf18Ta5Re3P2
_symmetry_space_group_name_H-M   'P 1'
_cell_length_a   8.62047288
_cell_length_b   8.68039319
_cell_length_c   8.71240735
_cell_angle_alpha   90.00000000
_cell_angle_beta   90.00000000
_cell_angle_gamma   120.23019834
_symmetry_Int_Tables_number   1
_chemical_formula_structural   Hf18Ta5Re3P2
_chemical_formula_sum   'Hf18 Ta5 Re3 P2'
_cell_volume   563.28373163
_cell_formula_units_Z   1
loop_
 _symmetry_equiv_pos_site_id
 _symmetry_equiv_pos_as_xyz
  1  'x, y, z'
loop_
 _atom_site_type_symbol
 _atom_site_label
 _atom_site_symmetry_multiplicity
 _atom_site_fract_x
 _atom_site_fract_y
 _atom_site_fract_z
 _atom_site_occupancy
  Hf  Hf0  1  0.19865131  0.80237323  0.45300946  1
  Hf  Hf1  1  0.19865131  0.39627709  0.45300946  1
  Hf  Hf2  1  0.60732207  0.80366053  0.45464847  1
  Hf  Hf3  1  0.80243450  0.19721074  0.55032634  1
  Hf  Hf4  1  0.80243450  0.60522476  0.55032634  1
  Hf  Hf5  1  0.39491178  0.19745639  0.54925745  1
  Hf  Hf6  1  0.80243450  0.19721074  0.94967366  1
  Hf  Hf7  1  0.80243450  0.60522476  0.94967366  1
  Hf  Hf8  1  0.39491178  0.19745639  0.95074255  1
  Hf  Hf9  1  0.19865131  0.80237323  0.04699054  1
  Hf  Hf10  1  0.19865131  0.39627709  0.04699054  1
  Hf  Hf11  1  0.60732207  0.80366053  0.04535153  1
  Hf  Hf12  1  0.53901497  0.46205362  0.25000000  1
  Hf  Hf13  1  0.53901497  0.07696135  0.25000000  1
  Hf  Hf14  1  0.92290548  0.46145324  0.25000000  1
  Hf  Hf15  1  0.46239403  0.54177013  0.75000000  1
  Hf  Hf16  1  0.46239403  0.92062290  0.75000000  1
  Hf  Hf17  1  0.07807092  0.53903546  0.75000000  1
  Ta  Ta0  1  0.88947864  0.11048948  0.25000000  1
  Ta  Ta1  1  0.88947864  0.77898717  0.25000000  1
  Ta  Ta2  1  0.22185163  0.11092531  0.25000000  1
  Ta  Ta3  1  0.10460368  0.88688959  0.75000000  1
  Ta  Ta4  1  0.10460368  0.21771409  0.75000000  1
  Re  Re0  1  0.77634619  0.88817309  0.75000000  1
  Re  Re1  1  0.99948523  0.99974211  0.49898527  1
  Re  Re2  1  0.99948523  0.99974211  0.00101473  1
  P  P0  1  0.33451636  0.66725918  0.25000000  1
  P  P1  1  0.66754736  0.33377268  0.75000000  1
loop_
_geom_bond_atom_site_label_1
_geom_bond_atom_site_label_2
_geom_bond_distance
_geom_bond_site_symmetry_2
Hf0 P0 2.694221 1_555
Hf0 Ta3 2.913692 1_555
Hf0 Re1 3.000887 1_455
Hf0 Ta1 3.118987 1_455
Hf0 Ta2 3.130893 1_565
Hf1 P0 2.694239 1_555
Hf1 Ta4 2.913688 1_555
Hf1 Re1 3.000887 1_445
Hf1 Ta0 3.118991 1_455
Hf1 Ta2 3.130893 1_555
Hf2 P0 2.703267 1_555
Hf2 Re0 2.864674 1_555
Hf2 Re1 2.946330 1_555
Hf2 Ta0 3.108959 1_565
Hf2 Ta1 3.108963 1_555
Hf3 P1 2.677983 1_555
Hf3 Ta0 2.923167 1_555
Hf3 Re1 2.992601 1_545
Hf3 Ta4 3.062089 1_655
Hf3 Re0 3.108956 1_545
Hf4 P1 2.678000 1_555
Hf4 Ta1 2.923157 1_555
Hf4 Re1 2.992586 1_555
Hf4 Ta3 3.062086 1_655
Hf4 Re0 3.108948 1_555
Hf5 P1 2.679984 1_555
Hf5 Ta2 2.908477 1_555
Hf5 Re1 2.977594 1_445
Hf5 Ta4 3.129832 1_555
Hf5 Ta3 3.129836 1_545
Hf6 P1 2.677983 1_555
Hf6 Ta0 2.923167 1_556
Hf6 Re2 2.992601 1_546
Hf6 Ta4 3.062089 1_655
Hf6 Re0 3.108956 1_545
Hf7 P1 2.678000 1_555
Hf7 Ta1 2.923157 1_556
Hf7 Re2 2.992586 1_556
Hf7 Ta3 3.062086 1_655
Hf7 Re0 3.108948 1_555
Hf8 P1 2.679984 1_555
Hf8 Ta2 2.908477 1_556
Hf8 Re2 2.977594 1_446
Hf8 Ta4 3.129832 1_555
Hf8 Ta3 3.129836 1_545
Hf9 P0 2.694221 1_555
Hf9 Ta3 2.913692 1_554
Hf9 Re2 3.000887 1_455
Hf9 Ta1 3.118987 1_455
Hf9 Ta2 3.130893 1_565
Hf10 P0 2.694239 1_555
Hf10 Ta4 2.913688 1_554
Hf10 Re2 3.000887 1_445
Hf10 Ta0 3.118991 1_455
Hf10 Ta2 3.130893 1_555
Hf11 P0 2.703267 1_555
Hf11 Re0 2.864674 1_554
Hf11 Re2 2.946330 1_555
Hf11 Ta0 3.108959 1_565
Hf11 Ta1 3.108963 1_555
Hf12 Ta1 2.885602 1_555
Hf12 Ta2 2.893771 1_555
Hf12 P0 3.072882 1_555
Hf13 Ta0 2.885610 1_555
Hf13 Ta2 2.893766 1_555
Hf13 P0 3.072867 1_545
Hf14 Ta1 2.912061 1_555
Hf14 Ta0 2.912087 1_555
Hf14 P0 3.065748 1_655
Hf15 Re0 2.858617 1_555
Hf15 Ta4 2.947769 1_555
Hf15 P1 3.098829 1_555
Hf16 Re0 2.858612 1_555
Hf16 Ta3 2.947772 1_555
Hf16 P1 3.098822 1_565
Hf17 Ta4 2.911069 1_555
Hf17 Ta3 2.911069 1_555
Hf17 P1 3.057650 1_455
Ta0 Ta2 2.863309 1_655
Ta0 Ta1 2.877570 1_545
Ta1 Ta2 2.863314 1_665
Ta3 Ta4 2.871687 1_565
Re0 Re2 2.746796 1_556
Re0 Re1 2.746796 1_555
Re0 Ta3 2.835361 1_655
Re0 Ta4 2.835361 1_665
Re1 Ta0 2.728940 1_565
Re1 Ta1 2.728945 1_555
Re1 Ta2 2.729243 1_665
Re1 Ta3 2.730814 1_655
Re1 Ta4 2.730819 1_665
Re2 Ta0 2.728940 1_565
Re2 Ta1 2.728945 1_555
Re2 Ta2 2.729243 1_665
Re2 Ta3 2.730814 1_654
Re2 Ta4 2.730819 1_664
