# generated using pymatgen
data_RbSc(SeO4)2
_symmetry_space_group_name_H-M   'P 1'
_cell_length_a   5.19600011
_cell_length_b   5.19600058
_cell_length_c   8.34165004
_cell_angle_alpha   93.68967408
_cell_angle_beta   93.68967684
_cell_angle_gamma   64.83390845
_symmetry_Int_Tables_number   1
_chemical_formula_structural   RbSc(SeO4)2
_chemical_formula_sum   'Rb1 Sc1 Se2 O8'
_cell_volume   203.24092048
_cell_formula_units_Z   1
loop_
 _symmetry_equiv_pos_site_id
 _symmetry_equiv_pos_as_xyz
  1  'x, y, z'
loop_
 _atom_site_type_symbol
 _atom_site_label
 _atom_site_symmetry_multiplicity
 _atom_site_fract_x
 _atom_site_fract_y
 _atom_site_fract_z
 _atom_site_occupancy
  Rb  Rb0  1  0.50000000  0.50000000  0.49999900  1
  Sc  Sc0  1  0.50000000  0.50000000  0.00000000  1
  Se  Se0  1  0.86971149  0.86971149  0.20409110  1
  Se  Se1  1  0.13028851  0.13028851  0.79590790  1
  O  O0  1  0.73339292  0.73339292  0.05650851  1
  O  O1  1  0.73845170  0.21818615  0.18061450  1
  O  O2  1  0.21818615  0.73845170  0.18061450  1
  O  O3  1  0.81035706  0.81035706  0.38342796  1
  O  O4  1  0.18964194  0.18964194  0.61657304  1
  O  O5  1  0.78181485  0.26154830  0.81938650  1
  O  O6  1  0.26154830  0.78181485  0.81938650  1
  O  O7  1  0.26660708  0.26660708  0.94349149  1
loop_
_geom_bond_atom_site_label_1
_geom_bond_atom_site_label_2
_geom_bond_distance
_geom_bond_site_symmetry_2
O0 Se0 1.649609 1_555
O0 Sc0 2.065710 1_555
O1 Se0 1.661388 1_545
O1 Sc0 2.109476 1_555
O1 Rb0 3.026047 1_555
O2 Se0 1.661388 1_455
O2 Sc0 2.109476 1_555
O2 Rb0 3.026046 1_555
O3 Se0 1.621047 1_555
O3 Rb0 2.960062 1_555
O3 Rb0 3.350438 1_655
O3 Rb0 3.350438 1_565
O4 Se1 1.621028 1_555
O4 Rb0 2.960081 1_555
O4 Rb0 3.350440 1_455
O4 Rb0 3.350441 1_545
O5 Se1 1.661386 1_655
O5 Sc0 2.109473 1_556
O5 Rb0 3.026070 1_555
O6 Se1 1.661386 1_565
O6 Sc0 2.109473 1_556
O6 Rb0 3.026070 1_555
O7 Se1 1.649614 1_555
O7 Sc0 2.065710 1_556
