# generated using pymatgen
data_V2CoF12
_symmetry_space_group_name_H-M   'P 1'
_cell_length_a   5.20144535
_cell_length_b   10.56576788
_cell_length_c   5.24842158
_cell_angle_alpha   56.27881003
_cell_angle_beta   55.98869310
_cell_angle_gamma   56.76027844
_symmetry_Int_Tables_number   1
_chemical_formula_structural   V2CoF12
_chemical_formula_sum   'V2 Co1 F12'
_cell_volume   186.68326852
_cell_formula_units_Z   1
loop_
 _symmetry_equiv_pos_site_id
 _symmetry_equiv_pos_as_xyz
  1  'x, y, z'
loop_
 _atom_site_type_symbol
 _atom_site_label
 _atom_site_symmetry_multiplicity
 _atom_site_fract_x
 _atom_site_fract_y
 _atom_site_fract_z
 _atom_site_occupancy
  V  V0  1  0.49305730  0.23620268  0.52444856  1
  V  V1  1  0.50694270  0.76379732  0.47555144  1
  Co  Co0  1  0.00000000  0.50000000  0.00000000  1
  F  F0  1  0.12204431  0.20377150  0.72994149  1
  F  F1  1  0.15046051  0.68997013  0.72942174  1
  F  F2  1  0.38217420  0.36813689  0.14840180  1
  F  F3  1  0.41207358  0.86331110  0.12724613  1
  F  F4  1  0.72952154  0.07246591  0.39804479  1
  F  F5  1  0.73416279  0.57208061  0.37966111  1
  F  F6  1  0.26583721  0.42791939  0.62033889  1
  F  F7  1  0.27047846  0.92753409  0.60195521  1
  F  F8  1  0.58792642  0.13668890  0.87275387  1
  F  F9  1  0.61782580  0.63186311  0.85159820  1
  F  F10  1  0.84953949  0.31002987  0.27057826  1
  F  F11  1  0.87795569  0.79622850  0.27005851  1
loop_
_geom_bond_atom_site_label_1
_geom_bond_atom_site_label_2
_geom_bond_distance
_geom_bond_site_symmetry_2
Co0 F5 1.977532 1_455
Co0 F6 1.977532 1_554
Co0 F1 1.992963 1_554
Co0 F10 1.992963 1_455
Co0 F2 1.997586 1_555
Co0 F9 1.997586 1_454
F0 V0 1.729439 1_555
F1 V1 1.868075 1_555
F2 V0 1.873091 1_555
F3 V1 1.731201 1_555
F4 V0 1.724702 1_555
F5 V1 1.896108 1_555
F6 V0 1.896108 1_555
F7 V1 1.724702 1_555
F8 V0 1.731201 1_555
F9 V1 1.873091 1_555
F10 V0 1.868075 1_555
F11 V1 1.729439 1_555
