# generated using pymatgen
data_Sc16Pt5Au3O4
_symmetry_space_group_name_H-M   'P 1'
_cell_length_a   8.77061499
_cell_length_b   8.77061487
_cell_length_c   8.77061589
_cell_angle_alpha   59.97106061
_cell_angle_beta   59.97106322
_cell_angle_gamma   59.97105357
_symmetry_Int_Tables_number   1
_chemical_formula_structural   Sc16Pt5Au3O4
_chemical_formula_sum   'Sc16 Pt5 Au3 O4'
_cell_volume   476.74930460
_cell_formula_units_Z   1
loop_
 _symmetry_equiv_pos_site_id
 _symmetry_equiv_pos_as_xyz
  1  'x, y, z'
loop_
 _atom_site_type_symbol
 _atom_site_label
 _atom_site_symmetry_multiplicity
 _atom_site_fract_x
 _atom_site_fract_y
 _atom_site_fract_z
 _atom_site_occupancy
  Sc  Sc0  1  0.11706080  0.62589456  0.62589456  1
  Sc  Sc1  1  0.62589456  0.11706080  0.62589456  1
  Sc  Sc2  1  0.62589456  0.62589456  0.11706080  1
  Sc  Sc3  1  0.62928081  0.62928081  0.62928081  1
  Sc  Sc4  1  0.82011199  0.82011199  0.17989403  1
  Sc  Sc5  1  0.18028143  0.18028143  0.81891760  1
  Sc  Sc6  1  0.82011199  0.17989403  0.82011199  1
  Sc  Sc7  1  0.18028143  0.81891760  0.18028143  1
  Sc  Sc8  1  0.17989403  0.82011199  0.82011199  1
  Sc  Sc9  1  0.81891760  0.18028143  0.18028143  1
  Sc  Sc10  1  0.43238570  0.43238570  0.07223440  1
  Sc  Sc11  1  0.06694203  0.06694203  0.43293910  1
  Sc  Sc12  1  0.43238570  0.07223440  0.43238570  1
  Sc  Sc13  1  0.06694203  0.43293910  0.06694203  1
  Sc  Sc14  1  0.07223440  0.43238570  0.43238570  1
  Sc  Sc15  1  0.43293910  0.06694203  0.06694203  1
  Pt  Pt0  1  0.41098447  0.41098447  0.41098447  1
  Pt  Pt1  1  0.47689561  0.84156769  0.84156769  1
  Pt  Pt2  1  0.84156769  0.47689561  0.84156769  1
  Pt  Pt3  1  0.84156769  0.84156769  0.47689561  1
  Pt  Pt4  1  0.84039292  0.84039292  0.84039292  1
  Au  Au0  1  0.76237150  0.41264123  0.41264123  1
  Au  Au1  1  0.41264123  0.76237150  0.41264123  1
  Au  Au2  1  0.41264123  0.41264123  0.76237150  1
  O  O0  1  0.62358909  0.12493305  0.12493305  1
  O  O1  1  0.12493305  0.62358909  0.12493305  1
  O  O2  1  0.12493305  0.12493305  0.62358909  1
  O  O3  1  0.12592433  0.12592433  0.12592433  1
loop_
_geom_bond_atom_site_label_1
_geom_bond_atom_site_label_2
_geom_bond_distance
_geom_bond_site_symmetry_2
Pt0 Sc1 2.753271 1_555
Pt0 Sc0 2.753271 1_555
Pt0 Sc2 2.753271 1_555
Pt0 Sc12 2.795805 1_555
Pt0 Sc14 2.795805 1_555
Pt0 Sc10 2.795805 1_555
Pt0 Sc7 3.255070 1_555
Pt0 Sc9 3.255071 1_555
Pt0 Sc5 3.255071 1_555
Pt1 Sc3 2.684761 1_555
Pt1 Sc2 2.689942 1_556
Pt1 Sc1 2.689942 1_565
Pt1 Sc5 2.797131 1_565
Pt1 Sc7 2.797131 1_556
Pt1 Sc8 2.805874 1_555
Pt2 Sc3 2.684761 1_555
Pt2 Sc2 2.689942 1_556
Pt2 Sc0 2.689942 1_655
Pt2 Sc5 2.797131 1_655
Pt2 Sc9 2.797131 1_556
Pt2 Sc6 2.805874 1_555
Pt3 Sc3 2.684761 1_555
Pt3 Sc0 2.689942 1_655
Pt3 Sc1 2.689942 1_565
Pt3 Sc9 2.797131 1_565
Pt3 Sc7 2.797131 1_655
Pt3 Sc4 2.805875 1_555
Pt4 Sc1 2.714935 1_565
Pt4 Sc0 2.714935 1_655
Pt4 Sc2 2.714935 1_556
Pt4 Sc6 2.810876 1_565
Pt4 Sc8 2.810876 1_655
Pt4 Sc4 2.810876 1_556
Au0 Sc2 2.768344 1_555
Au0 Sc1 2.768344 1_555
Au0 Sc3 2.785087 1_555
Au0 Sc11 2.861771 1_655
Au0 Sc13 2.861772 1_655
Au0 Sc14 2.901361 1_655
Au0 Pt0 3.096492 1_555
Au1 Sc0 2.768344 1_555
Au1 Sc2 2.768344 1_555
Au1 Sc3 2.785087 1_555
Au1 Sc11 2.861771 1_565
Au1 Sc15 2.861771 1_565
Au1 Sc12 2.901361 1_565
Au1 Pt0 3.096492 1_555
Au2 Sc0 2.768344 1_555
Au2 Sc1 2.768344 1_555
Au2 Sc3 2.785087 1_555
Au2 Sc15 2.861771 1_556
Au2 Sc13 2.861771 1_556
Au2 Sc10 2.901361 1_556
Au2 Pt0 3.096492 1_555
O0 Sc15 2.296672 1_555
O0 Sc4 2.297897 1_545
O0 Sc6 2.297897 1_554
O0 Sc10 2.302083 1_555
O0 Sc12 2.302083 1_555
O0 Sc9 2.303641 1_555
O1 Sc13 2.296672 1_555
O1 Sc4 2.297897 1_455
O1 Sc8 2.297897 1_554
O1 Sc10 2.302083 1_555
O1 Sc14 2.302083 1_555
O1 Sc7 2.303641 1_555
O2 Sc11 2.296672 1_555
O2 Sc8 2.297897 1_545
O2 Sc6 2.297897 1_455
O2 Sc14 2.302083 1_555
O2 Sc12 2.302083 1_555
O2 Sc5 2.303642 1_555
O3 Sc13 2.294640 1_555
O3 Sc15 2.294640 1_555
O3 Sc11 2.294640 1_555
O3 Sc7 2.315751 1_545
O3 Sc9 2.315751 1_455
O3 Sc5 2.315752 1_554
