# generated using pymatgen
data_Rb3V2BiO8
_symmetry_space_group_name_H-M   'P 1'
_cell_length_a   6.07297157
_cell_length_b   6.07297067
_cell_length_c   7.88347759
_cell_angle_alpha   90.00000000
_cell_angle_beta   90.00000000
_cell_angle_gamma   119.99999459
_symmetry_Int_Tables_number   1
_chemical_formula_structural   Rb3V2BiO8
_chemical_formula_sum   'Rb3 V2 Bi1 O8'
_cell_volume   251.79721601
_cell_formula_units_Z   1
loop_
 _symmetry_equiv_pos_site_id
 _symmetry_equiv_pos_as_xyz
  1  'x, y, z'
loop_
 _atom_site_type_symbol
 _atom_site_label
 _atom_site_symmetry_multiplicity
 _atom_site_fract_x
 _atom_site_fract_y
 _atom_site_fract_z
 _atom_site_occupancy
  Rb  Rb0  1  0.33333300  0.66666700  0.69301075  1
  Rb  Rb1  1  0.66666700  0.33333300  0.30698925  1
  Rb  Rb2  1  0.00000000  0.00000000  0.00000000  1
  V  V0  1  0.33333300  0.66666700  0.24695923  1
  V  V1  1  0.66666700  0.33333300  0.75304077  1
  Bi  Bi0  1  0.00000000  0.00000000  0.50000000  1
  O  O0  1  0.33333300  0.66666700  0.03654319  1
  O  O1  1  0.66666700  0.33333300  0.96345681  1
  O  O2  1  0.17701605  0.82298395  0.32186702  1
  O  O3  1  0.82298395  0.17701605  0.67813298  1
  O  O4  1  0.17701605  0.35403310  0.32186702  1
  O  O5  1  0.82298395  0.64596690  0.67813298  1
  O  O6  1  0.64596690  0.82298395  0.32186702  1
  O  O7  1  0.35403310  0.17701605  0.67813298  1
loop_
_geom_bond_atom_site_label_1
_geom_bond_atom_site_label_2
_geom_bond_distance
_geom_bond_site_symmetry_2
Bi0 O3 2.332175 1_455
Bi0 O2 2.332175 1_545
Bi0 O5 2.332179 1_445
Bi0 O4 2.332179 1_555
Bi0 O7 2.332179 1_555
Bi0 O6 2.332179 1_445
O0 V0 1.658810 1_555
O0 Rb0 2.708230 1_554
O0 Rb2 3.518043 1_565
O0 Rb2 3.518049 1_555
O0 Rb2 3.518049 1_665
O1 V1 1.658810 1_555
O1 Rb1 2.708230 1_556
O1 Rb2 3.518043 1_656
O1 Rb2 3.518049 1_666
O1 Rb2 3.518049 1_556
O2 V0 1.747080 1_555
O2 Rb1 3.040699 1_565
O2 Rb1 3.040699 1_455
O2 Rb2 3.147303 1_565
O2 Rb0 3.356258 1_555
O3 V1 1.747080 1_555
O3 Rb0 3.040699 1_545
O3 Rb0 3.040699 1_655
O3 Rb2 3.147303 1_656
O3 Rb1 3.356258 1_555
O4 V0 1.747080 1_555
O4 Rb1 3.040694 1_455
O4 Rb1 3.040706 1_555
O4 Rb2 3.147307 1_555
O4 Rb0 3.356258 1_555
O5 V1 1.747080 1_555
O5 Rb0 3.040694 1_655
O5 Rb0 3.040706 1_555
O5 Rb2 3.147307 1_666
O5 Rb1 3.356258 1_555
O6 V0 1.747080 1_555
O6 Rb1 3.040693 1_565
O6 Rb1 3.040705 1_555
O6 Rb2 3.147307 1_665
O6 Rb0 3.356258 1_555
O7 V1 1.747080 1_555
O7 Rb0 3.040693 1_545
O7 Rb0 3.040705 1_555
O7 Rb2 3.147307 1_556
O7 Rb1 3.356258 1_555
