# generated using pymatgen
data_Hf5Zr(InC2)2
_symmetry_space_group_name_H-M   'P 1'
_cell_length_a   3.31607472
_cell_length_b   3.31607528
_cell_length_c   20.11181387
_cell_angle_alpha   90.00000000
_cell_angle_beta   90.00000000
_cell_angle_gamma   120.00000424
_symmetry_Int_Tables_number   1
_chemical_formula_structural   Hf5Zr(InC2)2
_chemical_formula_sum   'Hf5 Zr1 In2 C4'
_cell_volume   191.52723667
_cell_formula_units_Z   1
loop_
 _symmetry_equiv_pos_site_id
 _symmetry_equiv_pos_as_xyz
  1  'x, y, z'
loop_
 _atom_site_type_symbol
 _atom_site_label
 _atom_site_symmetry_multiplicity
 _atom_site_fract_x
 _atom_site_fract_y
 _atom_site_fract_z
 _atom_site_occupancy
  Hf  Hf0  1  0.00000000  0.00000000  0.99924772  1
  Hf  Hf1  1  0.33333300  0.66666600  0.37540133  1
  Hf  Hf2  1  0.00000000  0.00000000  0.50081463  1
  Hf  Hf3  1  0.66666500  0.33333300  0.62627443  1
  Hf  Hf4  1  0.66666500  0.33333300  0.87345505  1
  Zr  Zr0  1  0.33333300  0.66666600  0.12599070  1
  In  In0  1  0.00000000  0.00000000  0.25136341  1
  In  In1  1  0.00000000  0.00000000  0.74977289  1
  C  C0  1  0.66666500  0.33333300  0.06643699  1
  C  C1  1  0.66666500  0.33333300  0.43199879  1
  C  C2  1  0.33333300  0.66666600  0.56942040  1
  C  C3  1  0.33333300  0.66666600  0.92982165  1
loop_
_geom_bond_atom_site_label_1
_geom_bond_atom_site_label_2
_geom_bond_distance
_geom_bond_site_symmetry_2
Hf1 In0 3.144616 1_555
Hf1 In0 3.144618 1_665
Hf1 In0 3.144618 1_565
Hf3 In1 3.136014 1_555
Hf3 In1 3.136018 1_665
Hf3 In1 3.136020 1_655
Hf4 In1 3.138941 1_555
Hf4 In1 3.138945 1_665
Hf4 In1 3.138947 1_655
In0 Zr0 3.165955 1_555
In0 Zr0 3.165956 1_445
In0 Zr0 3.165956 1_545
C0 Zr0 2.258317 1_555
C0 Zr0 2.258322 1_545
C0 Zr0 2.258324 1_655
C0 Hf0 2.343382 1_554
C0 Hf0 2.343387 1_664
C0 Hf0 2.343389 1_654
C1 Hf1 2.227355 1_555
C1 Hf1 2.227360 1_545
C1 Hf1 2.227362 1_655
C1 Hf2 2.362397 1_555
C1 Hf2 2.362402 1_665
C1 Hf2 2.362404 1_655
C2 Hf3 2.229996 1_555
C2 Hf3 2.230001 1_565
C2 Hf3 2.230003 1_455
C2 Hf2 2.359927 1_555
C2 Hf2 2.359929 1_665
C2 Hf2 2.359929 1_565
C3 Hf4 2.224985 1_555
C3 Hf4 2.224990 1_565
C3 Hf4 2.224993 1_455
C3 Hf0 2.369610 1_555
C3 Hf0 2.369612 1_665
C3 Hf0 2.369613 1_565
