# generated using pymatgen
data_BeIn2(Ni10B3)2
_symmetry_space_group_name_H-M   'P 1'
_cell_length_a   7.40503282
_cell_length_b   7.40503267
_cell_length_c   7.40503124
_cell_angle_alpha   60.00000202
_cell_angle_beta   60.00000272
_cell_angle_gamma   59.99999859
_symmetry_Int_Tables_number   1
_chemical_formula_structural   BeIn2(Ni10B3)2
_chemical_formula_sum   'Be1 In2 Ni20 B6'
_cell_volume   287.12160607
_cell_formula_units_Z   1
loop_
 _symmetry_equiv_pos_site_id
 _symmetry_equiv_pos_as_xyz
  1  'x, y, z'
loop_
 _atom_site_type_symbol
 _atom_site_label
 _atom_site_symmetry_multiplicity
 _atom_site_fract_x
 _atom_site_fract_y
 _atom_site_fract_z
 _atom_site_occupancy
  Be  Be0  1  0.00000000  0.00000000  0.00000000  1
  In  In0  1  0.75000000  0.75000000  0.75000000  1
  In  In1  1  0.25000000  0.25000000  0.25000000  1
  Ni  Ni0  1  0.00000000  0.33275639  0.66724361  1
  Ni  Ni1  1  1.00000000  1.00000000  0.66724361  1
  Ni  Ni2  1  0.66724361  0.33275639  0.00000000  1
  Ni  Ni3  1  0.00000000  0.33275639  1.00000000  1
  Ni  Ni4  1  0.33275639  0.00000000  0.66724361  1
  Ni  Ni5  1  0.33275639  0.00000000  1.00000000  1
  Ni  Ni6  1  0.66724361  1.00000000  0.00000000  1
  Ni  Ni7  1  0.33275639  0.66724361  1.00000000  1
  Ni  Ni8  1  0.66724361  1.00000000  0.33275639  1
  Ni  Ni9  1  0.00000000  0.00000000  0.33275639  1
  Ni  Ni10  1  1.00000000  0.66724361  0.00000000  1
  Ni  Ni11  1  1.00000000  0.66724361  0.33275639  1
  Ni  Ni12  1  0.61408404  0.15774789  0.61408404  1
  Ni  Ni13  1  0.38591596  0.38591596  0.84225211  1
  Ni  Ni14  1  0.84225211  0.38591596  0.38591596  1
  Ni  Ni15  1  0.38591596  0.38591596  0.38591596  1
  Ni  Ni16  1  0.15774789  0.61408404  0.61408404  1
  Ni  Ni17  1  0.61408404  0.61408404  0.61408404  1
  Ni  Ni18  1  0.61408404  0.61408404  0.15774789  1
  Ni  Ni19  1  0.38591596  0.84225211  0.38591596  1
  B  B0  1  0.72651406  0.27348594  0.72651406  1
  B  B1  1  0.72651406  0.27348594  0.27348594  1
  B  B2  1  0.27348594  0.72651406  0.72651406  1
  B  B3  1  0.27348594  0.27348594  0.72651406  1
  B  B4  1  0.72651406  0.72651406  0.27348594  1
  B  B5  1  0.27348594  0.72651406  0.27348594  1
loop_
_geom_bond_atom_site_label_1
_geom_bond_atom_site_label_2
_geom_bond_distance
_geom_bond_site_symmetry_2
Be0 Ni9 2.464071 1_555
Be0 Ni1 2.464071 1_444
Be0 Ni0 2.464072 1_554
Be0 Ni11 2.464072 1_445
Be0 Ni4 2.464072 1_554
Be0 Ni8 2.464072 1_445
Be0 Ni2 2.464072 1_455
Be0 Ni7 2.464072 1_544
Be0 Ni3 2.464072 1_554
Be0 Ni10 2.464072 1_445
Be0 Ni5 2.464072 1_554
Be0 Ni6 2.464072 1_445
In0 Ni18 2.465318 1_556
In0 Ni17 2.465319 1_555
In0 Ni12 2.465319 1_565
In0 Ni16 2.465319 1_655
In1 Ni13 2.465318 1_554
In1 Ni15 2.465319 1_555
In1 Ni19 2.465319 1_545
In1 Ni14 2.465319 1_455
B0 Ni14 2.059367 1_555
B0 Ni12 2.059367 1_555
B0 Ni17 2.059367 1_555
B0 Ni13 2.059367 1_555
B0 Ni2 2.072186 1_556
B0 Ni6 2.072186 1_546
B0 Ni1 2.072186 1_545
B0 Ni0 2.072186 1_655
B1 Ni12 2.059367 1_555
B1 Ni14 2.059367 1_555
B1 Ni18 2.059367 1_555
B1 Ni15 2.059367 1_555
B1 Ni2 2.072186 1_555
B1 Ni9 2.072186 1_655
B1 Ni3 2.072186 1_654
B1 Ni8 2.072186 1_545
B2 Ni19 2.059367 1_555
B2 Ni16 2.059367 1_555
B2 Ni13 2.059367 1_555
B2 Ni17 2.059367 1_555
B2 Ni7 2.072186 1_555
B2 Ni1 2.072186 1_455
B2 Ni10 2.072186 1_456
B2 Ni4 2.072186 1_565
B3 Ni15 2.059367 1_555
B3 Ni13 2.059367 1_555
B3 Ni16 2.059367 1_555
B3 Ni12 2.059367 1_555
B3 Ni5 2.072186 1_555
B3 Ni3 2.072186 1_555
B3 Ni4 2.072186 1_555
B3 Ni0 2.072186 1_555
B4 Ni17 2.059367 1_555
B4 Ni18 2.059367 1_555
B4 Ni14 2.059367 1_555
B4 Ni19 2.059367 1_555
B4 Ni6 2.072186 1_555
B4 Ni10 2.072186 1_555
B4 Ni8 2.072186 1_555
B4 Ni11 2.072186 1_555
B5 Ni16 2.059367 1_555
B5 Ni19 2.059367 1_555
B5 Ni15 2.059367 1_555
B5 Ni18 2.059367 1_555
B5 Ni7 2.072186 1_554
B5 Ni5 2.072186 1_564
B5 Ni9 2.072186 1_565
B5 Ni11 2.072186 1_455
