# generated using pymatgen
data_Hf2Zn2NiPt
_symmetry_space_group_name_H-M   'P 1'
_cell_length_a   4.91471147
_cell_length_b   4.91471179
_cell_length_c   5.14705305
_cell_angle_alpha   90.00000000
_cell_angle_beta   90.00000000
_cell_angle_gamma   129.15013814
_symmetry_Int_Tables_number   1
_chemical_formula_structural   Hf2Zn2NiPt
_chemical_formula_sum   'Hf2 Zn2 Ni1 Pt1'
_cell_volume   96.41248837
_cell_formula_units_Z   1
loop_
 _symmetry_equiv_pos_site_id
 _symmetry_equiv_pos_as_xyz
  1  'x, y, z'
loop_
 _atom_site_type_symbol
 _atom_site_label
 _atom_site_symmetry_multiplicity
 _atom_site_fract_x
 _atom_site_fract_y
 _atom_site_fract_z
 _atom_site_occupancy
  Hf  Hf0  1  0.70370842  0.29629158  0.25000000  1
  Hf  Hf1  1  0.30054373  0.69945627  0.75000000  1
  Zn  Zn0  1  0.99592180  0.00407820  0.49303641  1
  Zn  Zn1  1  0.99592180  0.00407820  0.00696359  1
  Ni  Ni0  1  0.39543640  0.60456360  0.25000000  1
  Pt  Pt0  1  0.60846886  0.39153114  0.75000000  1
loop_
_geom_bond_atom_site_label_1
_geom_bond_atom_site_label_2
_geom_bond_distance
_geom_bond_site_symmetry_2
Hf0 Pt0 2.708852 1_555
Hf0 Pt0 2.708852 1_554
Hf0 Ni0 2.710937 1_655
Hf0 Ni0 2.710937 1_545
Hf0 Ni0 2.736663 1_555
Hf0 Zn1 2.879961 1_555
Hf0 Zn0 2.879961 1_555
Hf0 Zn0 3.069136 1_455
Hf0 Zn1 3.069136 1_455
Hf0 Zn1 3.069136 1_565
Hf0 Zn0 3.069136 1_565
Hf1 Ni0 2.707892 1_555
Hf1 Ni0 2.707892 1_556
Hf1 Pt0 2.712872 1_455
Hf1 Pt0 2.712872 1_565
Hf1 Pt0 2.733584 1_555
Hf1 Zn0 3.010366 1_465
Hf1 Zn1 3.010366 1_466
Hf1 Zn1 3.034769 1_566
Hf1 Zn0 3.034769 1_565
Hf1 Zn0 3.034769 1_455
Hf1 Zn1 3.034769 1_456
Zn0 Zn1 2.501843 1_555
Zn0 Zn1 2.645210 1_556
Ni0 Zn0 2.610127 1_565
Ni0 Zn1 2.610127 1_565
Ni0 Zn0 2.610127 1_455
Ni0 Zn1 2.610127 1_455
Pt0 Zn0 2.683234 1_455
Pt0 Zn1 2.683234 1_456
Pt0 Zn0 2.683234 1_565
Pt0 Zn1 2.683234 1_566
