# generated using pymatgen
data_La(SbO3)3
_symmetry_space_group_name_H-M   'P 1'
_cell_length_a   5.51991590
_cell_length_b   5.51991590
_cell_length_c   11.81003255
_cell_angle_alpha   90.00000000
_cell_angle_beta   90.00000000
_cell_angle_gamma   107.18975851
_symmetry_Int_Tables_number   1
_chemical_formula_structural   La(SbO3)3
_chemical_formula_sum   'La2 Sb6 O18'
_cell_volume   343.77158815
_cell_formula_units_Z   2
loop_
 _symmetry_equiv_pos_site_id
 _symmetry_equiv_pos_as_xyz
  1  'x, y, z'
loop_
 _atom_site_type_symbol
 _atom_site_label
 _atom_site_symmetry_multiplicity
 _atom_site_fract_x
 _atom_site_fract_y
 _atom_site_fract_z
 _atom_site_occupancy
  La  La0  1  0.75540068  0.24459932  0.75000000  1
  La  La1  1  0.24459932  0.75540068  0.25000000  1
  Sb  Sb0  1  0.12186721  0.87813279  0.90832527  1
  Sb  Sb1  1  0.87813279  0.12186721  0.40832527  1
  Sb  Sb2  1  0.87813279  0.12186721  0.09167473  1
  Sb  Sb3  1  0.12186721  0.87813279  0.59167473  1
  Sb  Sb4  1  0.50000000  0.50000000  0.00000000  1
  Sb  Sb5  1  0.50000000  0.50000000  0.50000000  1
  O  O0  1  0.94019258  0.05980742  0.25000000  1
  O  O1  1  0.05980742  0.94019258  0.75000000  1
  O  O2  1  0.10390743  0.89609257  0.07410795  1
  O  O3  1  0.89609257  0.10390743  0.57410795  1
  O  O4  1  0.89609257  0.10390743  0.92589205  1
  O  O5  1  0.10390743  0.89609257  0.42589205  1
  O  O6  1  0.33666007  0.66333993  0.88431094  1
  O  O7  1  0.66333993  0.33666007  0.38431094  1
  O  O8  1  0.41674370  0.19160939  0.59834343  1
  O  O9  1  0.58325630  0.80839061  0.09834343  1
  O  O10  1  0.19160939  0.41674370  0.40165657  1
  O  O11  1  0.80839061  0.58325630  0.90165657  1
  O  O12  1  0.58325630  0.80839061  0.40165657  1
  O  O13  1  0.41674370  0.19160939  0.90165657  1
  O  O14  1  0.80839061  0.58325630  0.59834343  1
  O  O15  1  0.19160939  0.41674370  0.09834343  1
  O  O16  1  0.33666007  0.66333993  0.61568906  1
  O  O17  1  0.66333993  0.33666007  0.11568906  1
loop_
_geom_bond_atom_site_label_1
_geom_bond_atom_site_label_2
_geom_bond_distance
_geom_bond_site_symmetry_2
La0 O3 2.424431 1_555
La0 O4 2.424431 1_555
La0 O11 2.542596 1_555
La0 O14 2.542596 1_555
La0 O8 2.542596 1_555
La0 O13 2.542596 1_555
La0 O1 2.704747 1_645
La1 O2 2.424431 1_555
La1 O5 2.424431 1_555
La1 O9 2.542596 1_555
La1 O12 2.542596 1_555
La1 O15 2.542596 1_555
La1 O10 2.542596 1_555
La1 O0 2.704747 1_465
O0 Sb1 1.949440 1_555
O0 Sb2 1.949440 1_555
O1 Sb3 1.949440 1_555
O1 Sb0 1.949440 1_555
O2 Sb0 1.964391 1_554
O2 Sb2 2.016776 1_465
O3 Sb1 1.964391 1_555
O3 Sb3 2.016776 1_645
O4 Sb2 1.964391 1_556
O4 Sb0 2.016776 1_645
O5 Sb3 1.964391 1_555
O5 Sb1 2.016776 1_465
O6 Sb0 1.929458 1_555
O6 Sb4 1.993263 1_556
O7 Sb1 1.929458 1_555
O7 Sb5 1.993263 1_555
O8 Sb3 1.996243 1_545
O8 Sb5 1.998882 1_555
O9 Sb2 1.996243 1_565
O9 Sb4 1.998882 1_555
O10 Sb1 1.996243 1_455
O10 Sb5 1.998882 1_555
O11 Sb0 1.996243 1_655
O11 Sb4 1.998882 1_556
O12 Sb1 1.996243 1_565
O12 Sb5 1.998882 1_555
O13 Sb0 1.996243 1_545
O13 Sb4 1.998882 1_556
O14 Sb3 1.996243 1_655
O14 Sb5 1.998882 1_555
O15 Sb2 1.996243 1_455
O15 Sb4 1.998882 1_555
O16 Sb3 1.929458 1_555
O16 Sb5 1.993263 1_555
O17 Sb2 1.929458 1_555
O17 Sb4 1.993263 1_555
