# generated using pymatgen
data_Ba3ZnPt2O9
_symmetry_space_group_name_H-M   'P 1'
_cell_length_a   5.79269537
_cell_length_b   5.79269624
_cell_length_c   14.50566464
_cell_angle_alpha   90.00000000
_cell_angle_beta   90.00000000
_cell_angle_gamma   119.99998946
_symmetry_Int_Tables_number   1
_chemical_formula_structural   Ba3ZnPt2O9
_chemical_formula_sum   'Ba6 Zn2 Pt4 O18'
_cell_volume   421.53123020
_cell_formula_units_Z   2
loop_
 _symmetry_equiv_pos_site_id
 _symmetry_equiv_pos_as_xyz
  1  'x, y, z'
loop_
 _atom_site_type_symbol
 _atom_site_label
 _atom_site_symmetry_multiplicity
 _atom_site_fract_x
 _atom_site_fract_y
 _atom_site_fract_z
 _atom_site_occupancy
  Ba  Ba0  1  0.33333300  0.66666700  0.58455415  1
  Ba  Ba1  1  0.66666700  0.33333300  0.08455415  1
  Ba  Ba2  1  0.66666700  0.33333300  0.41544585  1
  Ba  Ba3  1  0.33333300  0.66666700  0.91544585  1
  Ba  Ba4  1  0.00000000  0.00000000  0.75000000  1
  Ba  Ba5  1  0.00000000  0.00000000  0.25000000  1
  Zn  Zn0  1  0.00000000  0.00000000  0.00000000  1
  Zn  Zn1  1  0.00000000  0.00000000  0.50000000  1
  Pt  Pt0  1  0.66666700  0.33333300  0.65472952  1
  Pt  Pt1  1  0.33333300  0.66666700  0.15472952  1
  Pt  Pt2  1  0.66666700  0.33333300  0.84527048  1
  Pt  Pt3  1  0.33333300  0.66666700  0.34527048  1
  O  O0  1  0.16849323  0.83150677  0.08155497  1
  O  O1  1  0.16849323  0.33698646  0.08155497  1
  O  O2  1  0.66301354  0.83150677  0.08155497  1
  O  O3  1  0.33698646  0.16849323  0.58155497  1
  O  O4  1  0.83150677  0.66301354  0.91844503  1
  O  O5  1  0.83150677  0.16849323  0.58155497  1
  O  O6  1  0.83150677  0.66301354  0.58155497  1
  O  O7  1  0.16849323  0.83150677  0.41844503  1
  O  O8  1  0.66301354  0.83150677  0.41844503  1
  O  O9  1  0.33698646  0.16849323  0.91844503  1
  O  O10  1  0.83150677  0.16849323  0.91844503  1
  O  O11  1  0.16849323  0.33698646  0.41844503  1
  O  O12  1  0.48321251  0.96642402  0.25000000  1
  O  O13  1  0.51678749  0.48321251  0.75000000  1
  O  O14  1  0.96642402  0.48321251  0.75000000  1
  O  O15  1  0.03357598  0.51678749  0.25000000  1
  O  O16  1  0.48321251  0.51678749  0.25000000  1
  O  O17  1  0.51678749  0.03357598  0.75000000  1
loop_
_geom_bond_atom_site_label_1
_geom_bond_atom_site_label_2
_geom_bond_distance
_geom_bond_site_symmetry_2
Ba0 O6 2.896729 1_455
Ba0 O3 2.896730 1_565
Ba0 O5 2.896733 1_455
Ba0 O5 2.896733 1_565
Ba0 O6 2.896735 1_555
Ba0 O3 2.896736 1_555
Ba0 O7 2.922518 1_555
Ba0 O8 2.922521 1_555
Ba0 O11 2.922521 1_555
Ba0 O13 3.024483 1_555
Ba0 O14 3.024483 1_455
Ba0 O17 3.024483 1_565
Ba1 O1 2.896729 1_655
Ba1 O2 2.896730 1_545
Ba1 O0 2.896733 1_655
Ba1 O0 2.896733 1_545
Ba1 O1 2.896735 1_555
Ba1 O2 2.896736 1_555
Ba1 O10 2.922518 1_554
Ba1 O9 2.922521 1_554
Ba1 O4 2.922521 1_554
Ba1 O16 3.024483 1_555
Ba1 O15 3.024483 1_655
Ba1 O12 3.024483 1_545
Ba2 O11 2.896729 1_655
Ba2 O8 2.896730 1_545
Ba2 O7 2.896733 1_655
Ba2 O7 2.896733 1_545
Ba2 O11 2.896735 1_555
Ba2 O8 2.896736 1_555
Ba2 O5 2.922518 1_555
Ba2 O3 2.922521 1_555
Ba2 O6 2.922521 1_555
Ba2 O16 3.024483 1_555
Ba2 O15 3.024483 1_655
Ba2 O12 3.024483 1_545
Ba3 O4 2.896729 1_455
Ba3 O9 2.896730 1_565
Ba3 O10 2.896733 1_455
Ba3 O10 2.896733 1_565
Ba3 O4 2.896735 1_555
Ba3 O9 2.896736 1_555
Ba3 O0 2.922518 1_556
Ba3 O2 2.922521 1_556
Ba3 O1 2.922521 1_556
Ba3 O13 3.024483 1_555
Ba3 O14 3.024483 1_455
Ba3 O17 3.024483 1_565
Ba4 O17 2.901238 1_555
Ba4 O14 2.901239 1_445
Ba4 O13 2.901242 1_555
Ba4 O13 2.901242 1_445
Ba4 O17 2.901244 1_455
Ba4 O14 2.901245 1_455
Ba4 O10 2.971219 1_455
Ba4 O5 2.971219 1_455
Ba4 O9 2.971219 1_555
Ba4 O3 2.971219 1_555
Ba4 O4 2.971219 1_445
Ba4 O6 2.971219 1_445
Ba5 O12 2.901238 1_445
Ba5 O15 2.901239 1_555
Ba5 O16 2.901242 1_445
Ba5 O16 2.901242 1_555
Ba5 O12 2.901244 1_545
Ba5 O15 2.901245 1_545
Ba5 O7 2.971219 1_545
Ba5 O0 2.971219 1_545
Ba5 O8 2.971219 1_445
Ba5 O2 2.971219 1_445
Ba5 O11 2.971219 1_555
Ba5 O1 2.971219 1_555
O0 Pt1 1.965191 1_555
O0 Zn0 2.063350 1_565
O1 Pt1 1.965196 1_555
O1 Zn0 2.063350 1_555
O2 Pt1 1.965196 1_555
O2 Zn0 2.063350 1_665
O3 Pt0 1.965196 1_555
O3 Zn1 2.063350 1_555
O4 Pt2 1.965196 1_555
O4 Zn0 2.063350 1_666
O5 Pt0 1.965191 1_555
O5 Zn1 2.063350 1_655
O6 Pt0 1.965196 1_555
O6 Zn1 2.063350 1_665
O7 Pt3 1.965191 1_555
O7 Zn1 2.063350 1_565
O8 Pt3 1.965196 1_555
O8 Zn1 2.063350 1_665
O9 Pt2 1.965196 1_555
O9 Zn0 2.063350 1_556
O10 Pt2 1.965191 1_555
O10 Zn0 2.063350 1_656
O11 Pt3 1.965196 1_555
O11 Zn1 2.063350 1_555
O12 Pt3 2.042336 1_555
O12 Pt1 2.042336 1_555
O13 Pt2 2.042343 1_555
O13 Pt0 2.042343 1_555
O14 Pt2 2.042336 1_555
O14 Pt0 2.042336 1_555
O15 Pt3 2.042336 1_555
O15 Pt1 2.042336 1_555
O16 Pt3 2.042343 1_555
O16 Pt1 2.042343 1_555
O17 Pt2 2.042336 1_555
O17 Pt0 2.042336 1_555
