# generated using pymatgen
data_RbSb12PdRu3
_symmetry_space_group_name_H-M   'P 1'
_cell_length_a   8.14419562
_cell_length_b   8.14419535
_cell_length_c   8.14419485
_cell_angle_alpha   109.51275784
_cell_angle_beta   109.51276031
_cell_angle_gamma   109.51276774
_symmetry_Int_Tables_number   1
_chemical_formula_structural   RbSb12PdRu3
_chemical_formula_sum   'Rb1 Sb12 Pd1 Ru3'
_cell_volume   415.19573586
_cell_formula_units_Z   1
loop_
 _symmetry_equiv_pos_site_id
 _symmetry_equiv_pos_as_xyz
  1  'x, y, z'
loop_
 _atom_site_type_symbol
 _atom_site_label
 _atom_site_symmetry_multiplicity
 _atom_site_fract_x
 _atom_site_fract_y
 _atom_site_fract_z
 _atom_site_occupancy
  Rb  Rb0  1  0.00000000  0.00000000  0.00000000  1
  Sb  Sb0  1  0.65756214  0.84935599  0.49677899  1
  Sb  Sb1  1  0.34243786  0.15064401  0.50322101  1
  Sb  Sb2  1  0.84097139  0.18215431  0.34160583  1
  Sb  Sb3  1  0.81784569  0.65839417  0.15902861  1
  Sb  Sb4  1  0.84935599  0.49677899  0.65756214  1
  Sb  Sb5  1  0.18215431  0.34160583  0.84097139  1
  Sb  Sb6  1  0.15902861  0.81784569  0.65839417  1
  Sb  Sb7  1  0.49677899  0.65756214  0.84935599  1
  Sb  Sb8  1  0.50322101  0.34243786  0.15064401  1
  Sb  Sb9  1  0.15064401  0.50322101  0.34243786  1
  Sb  Sb10  1  0.34160583  0.84097139  0.18215431  1
  Sb  Sb11  1  0.65839417  0.15902861  0.81784569  1
  Pd  Pd0  1  0.50000000  0.50000000  0.50000000  1
  Ru  Ru0  1  0.00000000  0.00000000  0.50000000  1
  Ru  Ru1  1  0.50000000  0.00000000  0.00000000  1
  Ru  Ru2  1  0.00000000  0.50000000  0.00000000  1
loop_
_geom_bond_atom_site_label_1
_geom_bond_atom_site_label_2
_geom_bond_distance
_geom_bond_site_symmetry_2
Rb0 Sb5 3.542855 1_554
Rb0 Sb3 3.542855 1_445
Rb0 Sb2 3.542855 1_455
Rb0 Sb6 3.542855 1_544
Rb0 Sb10 3.542855 1_545
Rb0 Sb11 3.542855 1_454
Rb0 Sb1 3.577599 1_555
Rb0 Sb0 3.577599 1_444
Rb0 Sb8 3.577599 1_555
Rb0 Sb7 3.577599 1_444
Rb0 Sb9 3.577599 1_555
Rb0 Sb4 3.577599 1_444
Sb0 Sb10 2.924523 1_555
Sb0 Sb11 2.961302 1_565
Sb1 Sb11 2.924523 1_555
Sb1 Sb10 2.961302 1_545
Sb2 Sb4 2.924523 1_555
Sb2 Sb9 2.961302 1_655
Sb3 Sb8 2.924523 1_555
Sb3 Sb7 2.961302 1_554
Sb4 Sb6 2.961302 1_655
Sb5 Sb7 2.924523 1_555
Sb5 Sb8 2.961302 1_556
Sb6 Sb9 2.924523 1_555
Pd0 Sb0 2.715872 1_555
Pd0 Sb1 2.715872 1_555
Pd0 Sb7 2.715872 1_555
Pd0 Sb8 2.715872 1_555
Pd0 Sb4 2.715872 1_555
Pd0 Sb9 2.715872 1_555
Ru0 Sb1 2.632042 1_555
Ru0 Sb0 2.632042 1_445
Ru0 Sb5 2.642356 1_555
Ru0 Sb3 2.642356 1_445
Ru0 Sb6 2.643509 1_545
Ru0 Sb2 2.643509 1_455
Ru1 Sb8 2.632042 1_555
Ru1 Sb7 2.632042 1_544
Ru1 Sb2 2.642356 1_555
Ru1 Sb6 2.642356 1_544
Ru1 Sb11 2.643509 1_554
Ru1 Sb10 2.643509 1_545
Ru2 Sb9 2.632042 1_555
Ru2 Sb4 2.632042 1_454
Ru2 Sb10 2.642356 1_555
Ru2 Sb11 2.642356 1_454
Ru2 Sb3 2.643509 1_455
Ru2 Sb5 2.643509 1_554
