# generated using pymatgen
data_Sb12RuPtRh2
_symmetry_space_group_name_H-M   'P 1'
_cell_length_a   8.07286129
_cell_length_b   8.09162596
_cell_length_c   8.08582078
_cell_angle_alpha   109.50895111
_cell_angle_beta   109.43090716
_cell_angle_gamma   109.44778845
_symmetry_Int_Tables_number   1
_chemical_formula_structural   Sb12RuPtRh2
_chemical_formula_sum   'Sb12 Ru1 Pt1 Rh2'
_cell_volume   406.72858898
_cell_formula_units_Z   1
loop_
 _symmetry_equiv_pos_site_id
 _symmetry_equiv_pos_as_xyz
  1  'x, y, z'
loop_
 _atom_site_type_symbol
 _atom_site_label
 _atom_site_symmetry_multiplicity
 _atom_site_fract_x
 _atom_site_fract_y
 _atom_site_fract_z
 _atom_site_occupancy
  Sb  Sb0  1  0.15622769  0.81884186  0.66485108  1
  Sb  Sb1  1  0.84377231  0.18115814  0.33514892  1
  Sb  Sb2  1  0.84395491  0.50361973  0.65358906  1
  Sb  Sb3  1  0.15604509  0.49638027  0.34641094  1
  Sb  Sb4  1  0.80965821  0.66005522  0.15643013  1
  Sb  Sb5  1  0.19034179  0.33994478  0.84356987  1
  Sb  Sb6  1  0.50841485  0.66510605  0.84624688  1
  Sb  Sb7  1  0.49158515  0.33489395  0.15375312  1
  Sb  Sb8  1  0.65525782  0.14881087  0.81300446  1
  Sb  Sb9  1  0.34474218  0.85118913  0.18699554  1
  Sb  Sb10  1  0.65996569  0.84478492  0.50547814  1
  Sb  Sb11  1  0.34003431  0.15521508  0.49452186  1
  Ru  Ru0  1  0.50000000  0.00000000  0.00000000  1
  Pt  Pt0  1  0.00000000  0.50000000  0.00000000  1
  Rh  Rh0  1  0.00000000  0.00000000  0.50000000  1
  Rh  Rh1  1  0.50000000  0.50000000  0.50000000  1
loop_
_geom_bond_atom_site_label_1
_geom_bond_atom_site_label_2
_geom_bond_distance
_geom_bond_site_symmetry_2
Sb0 Sb2 2.877439 1_455
Sb0 Sb3 2.990923 1_555
Sb1 Sb3 2.877439 1_655
Sb1 Sb2 2.990923 1_555
Sb4 Sb6 2.877977 1_554
Sb4 Sb7 2.990427 1_555
Sb5 Sb7 2.877977 1_556
Sb5 Sb6 2.990427 1_555
Sb10 Sb8 2.876797 1_565
Sb10 Sb9 2.987792 1_555
Sb11 Sb9 2.876797 1_545
Sb11 Sb8 2.987792 1_555
Ru0 Sb8 2.603648 1_554
Ru0 Sb9 2.603648 1_545
Ru0 Sb7 2.611908 1_555
Ru0 Sb6 2.611908 1_544
Ru0 Sb1 2.613139 1_555
Ru0 Sb0 2.613139 1_544
Pt0 Sb4 2.676292 1_455
Pt0 Sb5 2.676292 1_554
Pt0 Sb3 2.676783 1_555
Pt0 Sb2 2.676783 1_454
Pt0 Sb9 2.677864 1_555
Pt0 Sb8 2.677864 1_454
Rh0 Sb5 2.624204 1_555
Rh0 Sb4 2.624204 1_445
Rh0 Sb0 2.633205 1_545
Rh0 Sb1 2.633205 1_455
Rh0 Sb11 2.633809 1_555
Rh0 Sb10 2.633809 1_445
Rh1 Sb2 2.623059 1_555
Rh1 Sb3 2.623059 1_555
Rh1 Sb10 2.633121 1_555
Rh1 Sb11 2.633121 1_555
Rh1 Sb6 2.634872 1_555
Rh1 Sb7 2.634872 1_555
