# generated using pymatgen
data_KNa3(Ga3Te5)4
_symmetry_space_group_name_H-M   'P 1'
_cell_length_a   10.52611137
_cell_length_b   10.52611072
_cell_length_c   10.52611105
_cell_angle_alpha   90.03018805
_cell_angle_beta   90.03018378
_cell_angle_gamma   90.03019085
_symmetry_Int_Tables_number   1
_chemical_formula_structural   KNa3(Ga3Te5)4
_chemical_formula_sum   'K1 Na3 Ga12 Te20'
_cell_volume   1166.28223766
_cell_formula_units_Z   1
loop_
 _symmetry_equiv_pos_site_id
 _symmetry_equiv_pos_as_xyz
  1  'x, y, z'
loop_
 _atom_site_type_symbol
 _atom_site_label
 _atom_site_symmetry_multiplicity
 _atom_site_fract_x
 _atom_site_fract_y
 _atom_site_fract_z
 _atom_site_occupancy
  K  K0  1  0.50000000  0.50000000  0.50000000  1
  Na  Na0  1  0.25259668  1.00000000  0.74740332  1
  Na  Na1  1  0.74740332  0.25259668  0.00000000  1
  Na  Na2  1  1.00000000  0.74740332  0.25259668  1
  Ga  Ga0  1  0.84009593  0.88002082  0.57284857  1
  Ga  Ga1  1  0.57284857  0.84009593  0.88002082  1
  Ga  Ga2  1  0.88002082  0.57284857  0.84009593  1
  Ga  Ga3  1  0.15990407  0.42715143  0.11997918  1
  Ga  Ga4  1  0.11997918  0.15990407  0.42715143  1
  Ga  Ga5  1  0.42715143  0.11997918  0.15990407  1
  Ga  Ga6  1  0.74833981  0.16273899  0.34292641  1
  Ga  Ga7  1  0.34292641  0.74833981  0.16273899  1
  Ga  Ga8  1  0.16273899  0.34292641  0.74833981  1
  Ga  Ga9  1  0.25166019  0.65707359  0.83726101  1
  Ga  Ga10  1  0.83726101  0.25166019  0.65707359  1
  Ga  Ga11  1  0.65707359  0.83726101  0.25166019  1
  Te  Te0  1  0.17372570  0.82627430  1.00000000  1
  Te  Te1  1  0.82627430  1.00000000  0.17372570  1
  Te  Te2  1  0.17605935  0.17605935  0.17605935  1
  Te  Te3  1  0.82394065  0.82394065  0.82394065  1
  Te  Te4  1  0.00000000  0.17372570  0.82627430  1
  Te  Te5  1  0.92360775  0.50000000  0.07639225  1
  Te  Te6  1  0.07639225  0.92360775  0.50000000  1
  Te  Te7  1  0.50000000  0.07639225  0.92360775  1
  Te  Te8  1  0.75566854  0.69511104  0.42852684  1
  Te  Te9  1  0.42852684  0.75566854  0.69511104  1
  Te  Te10  1  0.69511104  0.42852684  0.75566854  1
  Te  Te11  1  0.24433146  0.57147316  0.30488896  1
  Te  Te12  1  0.30488896  0.24433146  0.57147316  1
  Te  Te13  1  0.57147316  0.30488896  0.24433146  1
  Te  Te14  1  0.67748348  0.07204396  0.57116828  1
  Te  Te15  1  0.57116828  0.67748348  0.07204396  1
  Te  Te16  1  0.07204396  0.57116828  0.67748348  1
  Te  Te17  1  0.32251652  0.42883172  0.92795604  1
  Te  Te18  1  0.92795604  0.32251652  0.42883172  1
  Te  Te19  1  0.42883172  0.92795604  0.32251652  1
loop_
_geom_bond_atom_site_label_1
_geom_bond_atom_site_label_2
_geom_bond_distance
_geom_bond_site_symmetry_2
K0 Te12 3.467623 1_555
K0 Te8 3.467623 1_555
K0 Te9 3.467623 1_555
K0 Te13 3.467623 1_555
K0 Te10 3.467623 1_555
K0 Te11 3.467623 1_555
Na0 Te12 3.217364 1_565
Na0 Te9 3.217364 1_555
Na0 Te6 3.295398 1_555
Na0 Te7 3.295398 1_565
Na0 Te0 3.332958 1_555
Na0 Te4 3.332959 1_565
Na1 Te13 3.217364 1_555
Na1 Te10 3.217364 1_554
Na1 Te5 3.295398 1_555
Na1 Te7 3.295398 1_554
Na1 Te4 3.332958 1_654
Na1 Te1 3.332959 1_545
Na2 Te8 3.217364 1_555
Na2 Te11 3.217364 1_655
Na2 Te5 3.295398 1_555
Na2 Te6 3.295398 1_655
Na2 Te0 3.332958 1_654
Na2 Te1 3.332959 1_555
Ga0 Te8 2.622902 1_555
Ga0 Te6 2.643151 1_655
Ga0 Te14 2.649393 1_565
Ga0 Te3 2.713846 1_555
Ga1 Te9 2.622902 1_555
Ga1 Te7 2.643151 1_565
Ga1 Te15 2.649393 1_556
Ga1 Te3 2.713846 1_555
Ga2 Te10 2.622902 1_555
Ga2 Te5 2.643151 1_556
Ga2 Te16 2.649393 1_655
Ga2 Te3 2.713846 1_555
Ga3 Te11 2.622902 1_555
Ga3 Te5 2.643151 1_455
Ga3 Te17 2.649393 1_554
Ga3 Te2 2.713846 1_555
Ga4 Te12 2.622903 1_555
Ga4 Te6 2.643151 1_545
Ga4 Te18 2.649393 1_455
Ga4 Te2 2.713846 1_555
Ga5 Te13 2.622902 1_555
Ga5 Te7 2.643151 1_554
Ga5 Te19 2.649393 1_545
Ga5 Te2 2.713846 1_555
Ga6 Te1 2.603694 1_545
Ga6 Te13 2.604703 1_555
Ga6 Te18 2.685904 1_555
Ga6 Te14 2.691324 1_555
Ga7 Te0 2.603695 1_554
Ga7 Te11 2.604703 1_555
Ga7 Te19 2.685904 1_555
Ga7 Te15 2.691324 1_555
Ga8 Te4 2.603694 1_555
Ga8 Te12 2.604703 1_555
Ga8 Te17 2.685904 1_555
Ga8 Te16 2.691324 1_555
Ga9 Te0 2.603694 1_555
Ga9 Te9 2.604703 1_555
Ga9 Te16 2.685904 1_555
Ga9 Te17 2.691324 1_555
Ga10 Te4 2.603695 1_655
Ga10 Te10 2.604703 1_555
Ga10 Te14 2.685904 1_555
Ga10 Te18 2.691324 1_555
Ga11 Te1 2.603694 1_555
Ga11 Te8 2.604703 1_555
Ga11 Te15 2.685904 1_555
Ga11 Te19 2.691324 1_555
