# generated using pymatgen
data_Cs4Ba2TiSb4
_symmetry_space_group_name_H-M   'P 1'
_cell_length_a   11.65340484
_cell_length_b   11.65340492
_cell_length_c   8.62312578
_cell_angle_alpha   87.45509075
_cell_angle_beta   87.45509265
_cell_angle_gamma   119.11094004
_symmetry_Int_Tables_number   1
_chemical_formula_structural   Cs4Ba2TiSb4
_chemical_formula_sum   'Cs8 Ba4 Ti2 Sb8'
_cell_volume   1019.17450599
_cell_formula_units_Z   2
loop_
 _symmetry_equiv_pos_site_id
 _symmetry_equiv_pos_as_xyz
  1  'x, y, z'
loop_
 _atom_site_type_symbol
 _atom_site_label
 _atom_site_symmetry_multiplicity
 _atom_site_fract_x
 _atom_site_fract_y
 _atom_site_fract_z
 _atom_site_occupancy
  Cs  Cs0  1  0.47938907  0.95185614  0.39087865  1
  Cs  Cs1  1  0.95185614  0.47938907  0.89087865  1
  Cs  Cs2  1  0.86550820  0.71741802  0.14638073  1
  Cs  Cs3  1  0.25667586  0.12011681  0.24181186  1
  Cs  Cs4  1  0.85242989  0.14641544  0.18177579  1
  Cs  Cs5  1  0.12011681  0.25667586  0.74181186  1
  Cs  Cs6  1  0.71741802  0.86550820  0.64638073  1
  Cs  Cs7  1  0.14641544  0.85242989  0.68177579  1
  Ba  Ba0  1  0.06791491  0.53137417  0.40027657  1
  Ba  Ba1  1  0.47860449  0.52490867  0.37973433  1
  Ba  Ba2  1  0.53137417  0.06791491  0.90027657  1
  Ba  Ba3  1  0.52490867  0.47860449  0.87973433  1
  Ti  Ti0  1  0.66469932  0.33877696  0.49461801  1
  Ti  Ti1  1  0.33877696  0.66469932  0.99461801  1
  Sb  Sb0  1  0.63761572  0.33108858  0.17985189  1
  Sb  Sb1  1  0.33108858  0.63761572  0.67985189  1
  Sb  Sb2  1  0.21815366  0.41539608  0.13335580  1
  Sb  Sb3  1  0.59212782  0.79200630  0.07031038  1
  Sb  Sb4  1  0.21945435  0.79818252  0.09503798  1
  Sb  Sb5  1  0.79200630  0.59212782  0.57031038  1
  Sb  Sb6  1  0.41539608  0.21815366  0.63335580  1
  Sb  Sb7  1  0.79818252  0.21945435  0.59503798  1
loop_
_geom_bond_atom_site_label_1
_geom_bond_atom_site_label_2
_geom_bond_distance
_geom_bond_site_symmetry_2
Cs0 Sb4 3.834627 1_555
Cs0 Sb1 3.905826 1_555
Cs0 Sb3 3.918346 1_555
Cs0 Sb7 4.052334 1_565
Cs0 Sb6 4.153052 1_565
Cs0 Sb0 4.159445 1_565
Cs1 Sb7 3.834627 1_555
Cs1 Sb0 3.905826 1_556
Cs1 Sb5 3.918346 1_555
Cs1 Sb4 4.052334 1_656
Cs1 Sb2 4.153052 1_656
Cs1 Sb1 4.159445 1_655
Cs2 Sb4 3.757440 1_655
Cs2 Sb3 3.763580 1_555
Cs2 Sb5 3.776234 1_555
Cs2 Sb0 3.948132 1_555
Cs3 Sb2 3.764471 1_555
Cs3 Sb4 3.840807 1_545
Cs3 Sb6 3.868724 1_555
Cs3 Sb0 3.884595 1_555
Cs4 Sb7 3.796876 1_555
Cs4 Sb2 3.858873 1_655
Cs4 Sb3 3.950240 1_545
Cs4 Sb0 4.017546 1_555
Cs5 Sb6 3.764471 1_555
Cs5 Sb7 3.840807 1_455
Cs5 Sb2 3.868724 1_556
Cs5 Sb1 3.884595 1_555
Cs6 Sb7 3.757440 1_565
Cs6 Sb5 3.763580 1_555
Cs6 Sb3 3.776234 1_556
Cs6 Sb1 3.948132 1_555
Cs7 Sb4 3.796876 1_556
Cs7 Sb6 3.858873 1_565
Cs7 Sb5 3.950240 1_455
Cs7 Sb1 4.017546 1_555
Ba0 Sb2 3.522854 1_555
Ba0 Sb4 3.637556 1_555
Ba0 Sb7 3.712875 1_455
Ba0 Sb1 3.738673 1_555
Ba0 Sb5 3.857136 1_455
Ba1 Sb2 3.521225 1_555
Ba1 Sb1 3.671705 1_555
Ba1 Sb3 3.674251 1_555
Ba1 Sb5 3.810047 1_555
Ba1 Sb6 3.834706 1_555
Ba1 Sb0 3.954813 1_555
Ba2 Sb6 3.522854 1_555
Ba2 Sb7 3.637556 1_555
Ba2 Sb4 3.712875 1_546
Ba2 Sb0 3.738673 1_556
Ba2 Sb3 3.857136 1_546
Ba3 Sb6 3.521225 1_555
Ba3 Sb0 3.671705 1_556
Ba3 Sb5 3.674251 1_555
Ba3 Sb3 3.810047 1_556
Ba3 Sb2 3.834706 1_556
Ba3 Sb1 3.954813 1_555
Sb0 Ti0 2.746825 1_555
Sb1 Ti1 2.746825 1_555
Sb2 Ti1 2.723231 1_554
Sb3 Ti1 2.709048 1_554
Sb4 Ti1 2.687071 1_554
Sb5 Ti0 2.709048 1_555
Sb6 Ti0 2.723231 1_555
Sb7 Ti0 2.687071 1_555
