# generated using pymatgen
data_Li6Nb5AlIr12
_symmetry_space_group_name_H-M   'P 1'
_cell_length_a   4.32635702
_cell_length_b   6.10228743
_cell_length_c   12.91492020
_cell_angle_alpha   90.00011791
_cell_angle_beta   89.99792261
_cell_angle_gamma   90.00011743
_symmetry_Int_Tables_number   1
_chemical_formula_structural   Li6Nb5AlIr12
_chemical_formula_sum   'Li6 Nb5 Al1 Ir12'
_cell_volume   340.96259852
_cell_formula_units_Z   1
loop_
 _symmetry_equiv_pos_site_id
 _symmetry_equiv_pos_as_xyz
  1  'x, y, z'
loop_
 _atom_site_type_symbol
 _atom_site_label
 _atom_site_symmetry_multiplicity
 _atom_site_fract_x
 _atom_site_fract_y
 _atom_site_fract_z
 _atom_site_occupancy
  Li  Li0  1  0.99999855  0.00000003  0.00000274  1
  Li  Li1  1  0.49993220  0.50000006  0.16619103  1
  Li  Li2  1  0.99992352  0.00000008  0.32874866  1
  Li  Li3  1  0.50000123  0.50000037  0.49999996  1
  Li  Li4  1  0.00007275  0.99999908  0.67125269  1
  Li  Li5  1  0.50006933  0.49999863  0.83381179  1
  Nb  Nb0  1  0.49989283  0.99999858  0.16064884  1
  Nb  Nb1  1  0.99990404  0.50000321  0.32973784  1
  Nb  Nb2  1  0.50000028  0.99999880  0.50000756  1
  Nb  Nb3  1  0.00010514  0.50000139  0.67025888  1
  Nb  Nb4  1  0.50010279  0.00000286  0.83935128  1
  Al  Al0  1  0.99999943  0.49999850  0.00000231  1
  Ir  Ir0  1  0.49999703  0.26064575  0.99999806  1
  Ir  Ir1  1  0.49999664  0.73935365  0.99999768  1
  Ir  Ir2  1  0.99987844  0.25465375  0.16192333  1
  Ir  Ir3  1  0.99987888  0.74534656  0.16192374  1
  Ir  Ir4  1  0.49988366  0.24930146  0.33196945  1
  Ir  Ir5  1  0.49988412  0.75070092  0.33196915  1
  Ir  Ir6  1  0.00000291  0.24988489  0.49999988  1
  Ir  Ir7  1  0.00000203  0.75011680  0.49999997  1
  Ir  Ir8  1  0.50011552  0.24929502  0.66803183  1
  Ir  Ir9  1  0.50011606  0.75070305  0.66803139  1
  Ir  Ir10  1  0.00011937  0.25465515  0.83806980  1
  Ir  Ir11  1  0.00011925  0.74534244  0.83807014  1
loop_
_geom_bond_atom_site_label_1
_geom_bond_atom_site_label_2
_geom_bond_distance
_geom_bond_site_symmetry_2
Al0 Ir2 2.571890 1_555
Al0 Ir3 2.571901 1_555
Al0 Ir10 2.572001 1_654
Al0 Ir11 2.572004 1_654
Al0 Ir0 2.610107 1_654
Al0 Ir1 2.610109 1_654
Al0 Ir0 2.610119 1_554
Al0 Ir1 2.610134 1_554
Ir0 Li5 2.596131 1_555
Ir0 Li1 2.596202 1_556
Ir0 Nb4 2.614246 1_555
Ir0 Nb0 2.614308 1_546
Ir0 Li0 2.684977 1_456
Ir0 Li0 2.684993 1_556
Ir1 Li5 2.596129 1_555
Ir1 Li1 2.596208 1_556
Ir1 Nb4 2.614271 1_565
Ir1 Nb0 2.614298 1_556
Ir1 Li0 2.684983 1_466
Ir1 Li0 2.684991 1_566
Ir2 Li0 2.605358 1_555
Ir2 Li1 2.631142 1_555
Ir2 Li1 2.631522 1_655
Ir2 Nb1 2.634162 1_555
Ir2 Li2 2.656475 1_555
Ir2 Nb0 2.663491 1_545
Ir2 Nb0 2.663596 1_645
Ir3 Li0 2.605367 1_565
Ir3 Li1 2.631139 1_555
Ir3 Li1 2.631526 1_655
Ir3 Nb1 2.634142 1_555
Ir3 Li2 2.656465 1_565
Ir3 Nb0 2.663486 1_555
Ir3 Nb0 2.663578 1_655
Ir4 Li1 2.631417 1_555
Ir4 Li2 2.644749 1_455
Ir4 Li2 2.645034 1_555
Ir4 Nb1 2.649578 1_455
Ir4 Nb1 2.649715 1_555
Ir4 Nb2 2.650317 1_545
Ir4 Li3 2.655132 1_555
Ir4 Nb0 2.685136 1_545
Ir5 Li1 2.631417 1_555
Ir5 Li2 2.644748 1_465
Ir5 Li2 2.645019 1_565
Ir5 Nb1 2.649560 1_455
Ir5 Nb1 2.649704 1_555
Ir5 Nb2 2.650298 1_555
Ir5 Li3 2.655146 1_555
Ir5 Nb0 2.685120 1_555
Ir6 Nb2 2.646612 1_545
Ir6 Nb2 2.646625 1_445
Ir6 Li3 2.647417 1_555
Ir6 Li3 2.647434 1_455
Ir6 Nb3 2.676678 1_555
Ir6 Nb1 2.676722 1_455
Ir6 Li2 2.686412 1_455
Ir6 Li4 2.686438 1_545
Ir7 Nb2 2.646596 1_555
Ir7 Nb2 2.646613 1_455
Ir7 Li3 2.647428 1_555
Ir7 Li3 2.647429 1_455
Ir7 Nb3 2.676678 1_555
Ir7 Nb1 2.676701 1_455
Ir7 Li2 2.686413 1_465
Ir7 Li4 2.686419 1_555
Ir8 Li5 2.631445 1_555
Ir8 Li4 2.644725 1_645
Ir8 Li4 2.645020 1_545
Ir8 Nb3 2.649624 1_655
Ir8 Nb3 2.649700 1_555
Ir8 Nb2 2.650143 1_545
Ir8 Li3 2.655174 1_555
Ir8 Nb4 2.685092 1_555
Ir9 Li5 2.631458 1_555
Ir9 Li4 2.644718 1_655
Ir9 Li4 2.645027 1_555
Ir9 Nb3 2.649610 1_655
Ir9 Nb3 2.649681 1_555
Ir9 Nb2 2.650142 1_555
Ir9 Li3 2.655155 1_555
Ir9 Nb4 2.685118 1_565
Ir10 Li0 2.605497 1_456
Ir10 Li5 2.631137 1_555
Ir10 Li5 2.631502 1_455
Ir10 Nb3 2.634118 1_555
Ir10 Li4 2.656393 1_545
Ir10 Nb4 2.663478 1_555
Ir10 Nb4 2.663589 1_455
Ir11 Li0 2.605497 1_466
Ir11 Li5 2.631144 1_555
Ir11 Li5 2.631497 1_455
Ir11 Nb3 2.634098 1_555
Ir11 Li4 2.656403 1_555
Ir11 Nb4 2.663503 1_565
Ir11 Nb4 2.663622 1_465
