# generated using pymatgen
data_Lu10Zn3AgBi2
_symmetry_space_group_name_H-M   'P 1'
_cell_length_a   8.44450839
_cell_length_b   8.44450858
_cell_length_c   8.45092980
_cell_angle_alpha   124.13923461
_cell_angle_beta   124.13923141
_cell_angle_gamma   82.91941703
_symmetry_Int_Tables_number   1
_chemical_formula_structural   Lu10Zn3AgBi2
_chemical_formula_sum   'Lu10 Zn3 Ag1 Bi2'
_cell_volume   396.34175921
_cell_formula_units_Z   1
loop_
 _symmetry_equiv_pos_site_id
 _symmetry_equiv_pos_as_xyz
  1  'x, y, z'
loop_
 _atom_site_type_symbol
 _atom_site_label
 _atom_site_symmetry_multiplicity
 _atom_site_fract_x
 _atom_site_fract_y
 _atom_site_fract_z
 _atom_site_occupancy
  Lu  Lu0  1  0.00002523  0.00064658  0.00067181  1
  Lu  Lu1  1  0.50064658  0.50002523  0.00067181  1
  Lu  Lu2  1  0.79449491  0.29449491  0.80680157  1
  Lu  Lu3  1  0.20812674  0.70812674  0.19884943  1
  Lu  Lu4  1  0.49072369  0.99072369  0.19884943  1
  Lu  Lu5  1  0.29424782  0.48743670  0.49781146  1
  Lu  Lu6  1  0.01037476  0.20356363  0.49781146  1
  Lu  Lu7  1  0.51230566  0.01230566  0.80680157  1
  Lu  Lu8  1  0.70356363  0.51037476  0.49781146  1
  Lu  Lu9  1  0.98743670  0.79424782  0.49781146  1
  Zn  Zn0  1  0.86083922  0.36083922  0.22167843  1
  Zn  Zn1  1  0.63978123  0.86223951  0.50202074  1
  Zn  Zn2  1  0.36223951  0.13978123  0.50202074  1
  Ag  Ag0  1  0.13479888  0.63479888  0.76959875  1
  Bi  Bi0  1  0.25019722  0.25019722  0.00039445  1
  Bi  Bi1  1  0.75019722  0.75019722  0.00039445  1
loop_
_geom_bond_atom_site_label_1
_geom_bond_atom_site_label_2
_geom_bond_distance
_geom_bond_site_symmetry_2
Lu0 Zn0 3.054129 1_455
Lu0 Zn1 3.055843 1_444
Lu0 Zn2 3.072473 1_555
Lu1 Zn0 3.054129 1_555
Lu1 Zn2 3.055843 1_554
Lu1 Zn1 3.072473 1_555
Lu2 Zn1 2.917354 1_545
Lu2 Zn2 2.917354 1_555
Lu2 Zn0 2.930595 1_556
Lu3 Zn2 2.913672 1_565
Lu3 Zn1 2.913672 1_555
Lu4 Zn2 2.913680 1_565
Lu4 Zn1 2.913680 1_555
Lu5 Zn0 2.926052 1_455
Lu5 Zn2 2.937425 1_555
Lu6 Zn0 2.926052 1_455
Lu6 Zn2 2.937425 1_555
Lu7 Zn1 2.917362 1_545
Lu7 Zn2 2.917362 1_555
Lu7 Zn0 2.930603 1_556
Lu8 Zn0 2.926052 1_555
Lu8 Zn1 2.937425 1_555
Lu9 Zn0 2.926052 1_555
Lu9 Zn1 2.937425 1_555
Ag0 Lu6 2.913257 1_555
Ag0 Lu8 2.913257 1_455
Ag0 Lu5 2.913265 1_555
Ag0 Lu9 2.913265 1_455
Ag0 Lu3 2.996363 1_556
Ag0 Lu4 2.996378 1_556
Ag0 Zn0 3.068762 1_455
Ag0 Lu0 3.083716 1_566
Ag0 Lu1 3.083716 1_556
Bi0 Lu1 3.164250 1_555
Bi0 Lu0 3.164250 1_555
Bi0 Lu8 3.286140 1_555
Bi0 Lu5 3.286140 1_555
Bi0 Lu7 3.300091 1_554
Bi0 Lu2 3.300097 1_454
Bi0 Lu4 3.308065 1_545
Bi0 Lu3 3.308070 1_555
Bi0 Lu9 3.310704 1_444
Bi0 Lu6 3.310704 1_554
Bi1 Lu0 3.164250 1_665
Bi1 Lu1 3.164250 1_555
Bi1 Lu6 3.286139 1_665
Bi1 Lu9 3.286140 1_555
Bi1 Lu7 3.300091 1_564
Bi1 Lu2 3.300097 1_554
Bi1 Lu4 3.308064 1_555
Bi1 Lu3 3.308070 1_655
Bi1 Lu5 3.310704 1_554
Bi1 Lu8 3.310704 1_554
