# generated using pymatgen
data_ErGaPd
_symmetry_space_group_name_H-M   'P 1'
_cell_length_a   4.42110712
_cell_length_b   6.87011240
_cell_length_c   7.53136668
_cell_angle_alpha   90.00000000
_cell_angle_beta   90.00000000
_cell_angle_gamma   90.00000000
_symmetry_Int_Tables_number   1
_chemical_formula_structural   ErGaPd
_chemical_formula_sum   'Er4 Ga4 Pd4'
_cell_volume   228.75398730
_cell_formula_units_Z   4
loop_
 _symmetry_equiv_pos_site_id
 _symmetry_equiv_pos_as_xyz
  1  'x, y, z'
loop_
 _atom_site_type_symbol
 _atom_site_label
 _atom_site_symmetry_multiplicity
 _atom_site_fract_x
 _atom_site_fract_y
 _atom_site_fract_z
 _atom_site_occupancy
  Er  Er0  1  0.25000000  0.48493646  0.79958802  1
  Er  Er1  1  0.75000000  0.51506354  0.20041198  1
  Er  Er2  1  0.25000000  0.98493646  0.70041198  1
  Er  Er3  1  0.75000000  0.01506354  0.29958802  1
  Ga  Ga0  1  0.25000000  0.82092059  0.07790152  1
  Ga  Ga1  1  0.75000000  0.17907941  0.92209848  1
  Ga  Ga2  1  0.25000000  0.32092059  0.42209848  1
  Ga  Ga3  1  0.75000000  0.67907941  0.57790152  1
  Pd  Pd0  1  0.75000000  0.78169089  0.90636358  1
  Pd  Pd1  1  0.25000000  0.21830911  0.09363642  1
  Pd  Pd2  1  0.75000000  0.28169089  0.59363642  1
  Pd  Pd3  1  0.25000000  0.71830911  0.40636358  1
loop_
_geom_bond_atom_site_label_1
_geom_bond_atom_site_label_2
_geom_bond_distance
_geom_bond_site_symmetry_2
Er0 Pd1 2.873976 1_556
Er0 Pd2 3.040092 1_455
Er0 Pd2 3.040092 1_555
Er0 Ga2 3.058172 1_555
Er0 Ga3 3.074589 1_455
Er0 Ga3 3.074589 1_555
Er0 Pd0 3.112824 1_555
Er0 Pd0 3.112824 1_455
Er0 Ga0 3.117943 1_556
Er0 Ga1 3.186411 1_555
Er0 Ga1 3.186411 1_455
Er1 Pd0 2.873976 1_554
Er1 Pd3 3.040092 1_555
Er1 Pd3 3.040092 1_655
Er1 Ga3 3.058172 1_555
Er1 Ga2 3.074589 1_655
Er1 Ga2 3.074589 1_555
Er1 Pd1 3.112824 1_555
Er1 Pd1 3.112824 1_655
Er1 Ga1 3.117943 1_554
Er1 Ga0 3.186411 1_655
Er1 Ga0 3.186411 1_555
Er2 Pd3 2.873976 1_555
Er2 Pd0 3.040092 1_555
Er2 Pd0 3.040092 1_455
Er2 Ga0 3.058172 1_556
Er2 Ga1 3.074589 1_565
Er2 Ga1 3.074589 1_465
Er2 Pd2 3.112824 1_565
Er2 Pd2 3.112824 1_465
Er2 Ga2 3.117943 1_565
Er2 Ga3 3.186411 1_455
Er2 Ga3 3.186411 1_555
Er3 Pd2 2.873976 1_555
Er3 Pd1 3.040092 1_555
Er3 Pd1 3.040092 1_655
Er3 Ga1 3.058172 1_554
Er3 Ga0 3.074589 1_645
Er3 Ga0 3.074589 1_545
Er3 Pd3 3.112824 1_545
Er3 Pd3 3.112824 1_645
Er3 Ga3 3.117943 1_545
Er3 Ga2 3.186411 1_555
Er3 Ga2 3.186411 1_655
Ga0 Pd3 2.572253 1_555
Ga0 Pd0 2.574535 1_454
Ga0 Pd0 2.574535 1_554
Ga0 Pd1 2.732675 1_565
Ga1 Pd2 2.572253 1_555
Ga1 Pd1 2.574535 1_656
Ga1 Pd1 2.574535 1_556
Ga1 Pd0 2.732675 1_545
Ga2 Pd1 2.572253 1_555
Ga2 Pd2 2.574535 1_455
Ga2 Pd2 2.574535 1_555
Ga2 Pd3 2.732675 1_555
Ga3 Pd0 2.572253 1_555
Ga3 Pd3 2.574535 1_555
Ga3 Pd3 2.574535 1_655
Ga3 Pd2 2.732675 1_555
