# generated using pymatgen
data_Ba4Ti(IrO4)3
_symmetry_space_group_name_H-M   'P 1'
_cell_length_a   10.10653692
_cell_length_b   10.10653741
_cell_length_c   10.10653692
_cell_angle_alpha   33.15285231
_cell_angle_beta   33.15284737
_cell_angle_gamma   33.15284708
_symmetry_Int_Tables_number   1
_chemical_formula_structural   Ba4Ti(IrO4)3
_chemical_formula_sum   'Ba4 Ti1 Ir3 O12'
_cell_volume   274.81347154
_cell_formula_units_Z   1
loop_
 _symmetry_equiv_pos_site_id
 _symmetry_equiv_pos_as_xyz
  1  'x, y, z'
loop_
 _atom_site_type_symbol
 _atom_site_label
 _atom_site_symmetry_multiplicity
 _atom_site_fract_x
 _atom_site_fract_y
 _atom_site_fract_z
 _atom_site_occupancy
  Ba  Ba0  1  0.71116663  0.71116663  0.71116663  1
  Ba  Ba1  1  0.28883337  0.28883337  0.28883337  1
  Ba  Ba2  1  0.87402230  0.87402230  0.87402230  1
  Ba  Ba3  1  0.12597770  0.12597770  0.12597770  1
  Ti  Ti0  1  0.00000000  0.00000000  0.00000000  1
  Ir  Ir0  1  0.41120821  0.41120821  0.41120821  1
  Ir  Ir1  1  0.50000000  0.50000000  0.50000000  1
  Ir  Ir2  1  0.58879179  0.58879179  0.58879179  1
  O  O0  1  0.20278385  0.20278385  0.71193336  1
  O  O1  1  0.71193336  0.20278385  0.20278385  1
  O  O2  1  0.20278385  0.71193336  0.20278385  1
  O  O3  1  0.79721615  0.28806664  0.79721615  1
  O  O4  1  0.79721615  0.79721615  0.28806664  1
  O  O5  1  0.28806664  0.79721615  0.79721615  1
  O  O6  1  0.38460959  0.38460959  0.86279722  1
  O  O7  1  0.86279722  0.38460959  0.38460959  1
  O  O8  1  0.13720278  0.61539041  0.61539041  1
  O  O9  1  0.61539041  0.61539041  0.13720278  1
  O  O10  1  0.61539041  0.13720278  0.61539041  1
  O  O11  1  0.38460959  0.86279722  0.38460959  1
loop_
_geom_bond_atom_site_label_1
_geom_bond_atom_site_label_2
_geom_bond_distance
_geom_bond_site_symmetry_2
Ba0 O8 2.832813 1_655
Ba0 O9 2.832814 1_556
Ba0 O10 2.832814 1_565
Ba0 O2 2.887534 1_556
Ba0 O2 2.887534 1_655
Ba0 O0 2.887534 1_565
Ba0 O0 2.887534 1_655
Ba0 O1 2.887534 1_565
Ba0 O1 2.887535 1_556
Ba0 O5 2.934331 1_555
Ba0 O4 2.934331 1_555
Ba0 O3 2.934331 1_555
Ba1 O7 2.832813 1_455
Ba1 O6 2.832814 1_554
Ba1 O11 2.832814 1_545
Ba1 O3 2.887534 1_554
Ba1 O3 2.887534 1_455
Ba1 O4 2.887534 1_545
Ba1 O4 2.887534 1_455
Ba1 O5 2.887534 1_545
Ba1 O5 2.887535 1_554
Ba1 O1 2.934331 1_555
Ba1 O0 2.934331 1_555
Ba1 O2 2.934331 1_555
Ba2 O11 2.885811 1_655
Ba2 O11 2.885811 1_556
Ba2 O6 2.885811 1_655
Ba2 O6 2.885811 1_565
Ba2 O7 2.885812 1_556
Ba2 O7 2.885812 1_565
Ba2 O5 2.974333 1_655
Ba2 O4 2.974333 1_556
Ba2 O3 2.974334 1_565
Ba2 O8 2.982745 1_655
Ba2 O10 2.982745 1_565
Ba2 O9 2.982746 1_556
Ba3 O10 2.885811 1_455
Ba3 O10 2.885811 1_554
Ba3 O9 2.885811 1_455
Ba3 O9 2.885811 1_545
Ba3 O8 2.885812 1_554
Ba3 O8 2.885812 1_545
Ba3 O1 2.974333 1_455
Ba3 O0 2.974333 1_554
Ba3 O2 2.974334 1_545
Ba3 O7 2.982745 1_455
Ba3 O11 2.982745 1_545
Ba3 O6 2.982746 1_554
Ir0 O1 2.025199 1_555
Ir0 O2 2.025200 1_555
Ir0 O0 2.025200 1_555
Ir0 O8 2.044135 1_555
Ir0 O10 2.044136 1_555
Ir0 O9 2.044136 1_555
Ir1 O7 2.030189 1_555
Ir1 O8 2.030189 1_555
Ir1 O6 2.030190 1_555
Ir1 O9 2.030190 1_555
Ir1 O11 2.030190 1_555
Ir1 O10 2.030190 1_555
Ir2 O5 2.025199 1_555
Ir2 O3 2.025200 1_555
Ir2 O4 2.025200 1_555
Ir2 O7 2.044135 1_555
Ir2 O11 2.044136 1_555
Ir2 O6 2.044136 1_555
O0 Ti0 1.981892 1_556
O1 Ti0 1.981892 1_655
O2 Ti0 1.981892 1_565
O3 Ti0 1.981892 1_656
O4 Ti0 1.981892 1_665
O5 Ti0 1.981892 1_566
