# generated using pymatgen
data_CdBi3(Ru2O7)2
_symmetry_space_group_name_H-M   'P 1'
_cell_length_a   7.21990249
_cell_length_b   7.21990244
_cell_length_c   7.21990251
_cell_angle_alpha   60.81683159
_cell_angle_beta   60.81683625
_cell_angle_gamma   60.81683068
_symmetry_Int_Tables_number   1
_chemical_formula_structural   CdBi3(Ru2O7)2
_chemical_formula_sum   'Cd1 Bi3 Ru4 O14'
_cell_volume   271.02331655
_cell_formula_units_Z   1
loop_
 _symmetry_equiv_pos_site_id
 _symmetry_equiv_pos_as_xyz
  1  'x, y, z'
loop_
 _atom_site_type_symbol
 _atom_site_label
 _atom_site_symmetry_multiplicity
 _atom_site_fract_x
 _atom_site_fract_y
 _atom_site_fract_z
 _atom_site_occupancy
  Cd  Cd0  1  0.12500000  0.12500000  0.12500000  1
  Bi  Bi0  1  0.12500000  0.62500000  0.12500000  1
  Bi  Bi1  1  0.12500000  0.12500000  0.62500000  1
  Bi  Bi2  1  0.62500000  0.12500000  0.12500000  1
  Ru  Ru0  1  0.62500000  0.12500000  0.62500000  1
  Ru  Ru1  1  0.62500000  0.62500000  0.12500000  1
  Ru  Ru2  1  0.12500000  0.62500000  0.62500000  1
  Ru  Ru3  1  0.62500000  0.62500000  0.62500000  1
  O  O0  1  0.70331035  0.70331035  0.29877859  1
  O  O1  1  0.95122141  0.54668965  0.54668965  1
  O  O2  1  0.55723538  0.95038914  0.95038914  1
  O  O3  1  0.95038914  0.95038914  0.55723538  1
  O  O4  1  0.95038914  0.55723538  0.95038914  1
  O  O5  1  0.54668965  0.95122141  0.54668965  1
  O  O6  1  0.29961086  0.69276462  0.29961086  1
  O  O7  1  0.29877859  0.70331035  0.70331035  1
  O  O8  1  0.69276462  0.29961086  0.29961086  1
  O  O9  1  0.70331035  0.29877859  0.70331035  1
  O  O10  1  0.54668965  0.54668965  0.95122141  1
  O  O11  1  0.29961086  0.29961086  0.69276462  1
  O  O12  1  0.24530294  0.24530294  0.24530294  1
  O  O13  1  0.00469706  0.00469706  0.00469706  1
loop_
_geom_bond_atom_site_label_1
_geom_bond_atom_site_label_2
_geom_bond_distance
_geom_bond_site_symmetry_2
Cd0 O12 2.114338 1_555
Cd0 O13 2.114338 1_555
Cd0 O4 2.606523 1_454
Cd0 O6 2.606523 1_545
Cd0 O2 2.606524 1_544
Cd0 O8 2.606524 1_455
Cd0 O3 2.606524 1_445
Cd0 O11 2.606524 1_554
Bi0 O13 2.261768 1_565
Bi0 O12 2.261768 1_555
Bi0 O6 2.484120 1_555
Bi0 O4 2.484120 1_454
Bi0 O10 2.539900 1_554
Bi0 O0 2.539900 1_455
Bi0 O1 2.539901 1_455
Bi0 O7 2.539901 1_554
Bi1 O13 2.261768 1_556
Bi1 O12 2.261768 1_555
Bi1 O11 2.484120 1_555
Bi1 O3 2.484120 1_445
Bi1 O1 2.539900 1_455
Bi1 O7 2.539900 1_545
Bi1 O5 2.539900 1_545
Bi1 O9 2.539900 1_455
Bi2 O13 2.261768 1_655
Bi2 O12 2.261768 1_555
Bi2 O8 2.484120 1_555
Bi2 O2 2.484120 1_544
Bi2 O0 2.539900 1_545
Bi2 O10 2.539900 1_554
Bi2 O5 2.539900 1_545
Bi2 O9 2.539900 1_554
O0 Ru3 1.975137 1_555
O0 Ru1 1.977080 1_555
O1 Ru3 1.975137 1_555
O1 Ru2 1.977080 1_655
O2 Ru1 1.984977 1_556
O2 Ru0 1.984977 1_565
O3 Ru2 1.984977 1_655
O3 Ru0 1.984977 1_565
O4 Ru1 1.984977 1_556
O4 Ru2 1.984977 1_655
O5 Ru3 1.975137 1_555
O5 Ru0 1.977080 1_565
O6 Ru1 1.984977 1_555
O6 Ru2 1.984977 1_555
O7 Ru3 1.975137 1_555
O7 Ru2 1.977080 1_555
O8 Ru1 1.984977 1_555
O8 Ru0 1.984977 1_555
O9 Ru3 1.975137 1_555
O9 Ru0 1.977080 1_555
O10 Ru3 1.975137 1_555
O10 Ru1 1.977080 1_556
O11 Ru2 1.984977 1_555
O11 Ru0 1.984977 1_555
