# generated using pymatgen
data_Hf10Sn6PAu
_symmetry_space_group_name_H-M   'P 1'
_cell_length_a   8.55314762
_cell_length_b   8.55314790
_cell_length_c   5.86878232
_cell_angle_alpha   90.00000000
_cell_angle_beta   90.00000000
_cell_angle_gamma   119.99999895
_symmetry_Int_Tables_number   1
_chemical_formula_structural   Hf10Sn6PAu
_chemical_formula_sum   'Hf10 Sn6 P1 Au1'
_cell_volume   371.81815134
_cell_formula_units_Z   1
loop_
 _symmetry_equiv_pos_site_id
 _symmetry_equiv_pos_as_xyz
  1  'x, y, z'
loop_
 _atom_site_type_symbol
 _atom_site_label
 _atom_site_symmetry_multiplicity
 _atom_site_fract_x
 _atom_site_fract_y
 _atom_site_fract_z
 _atom_site_occupancy
  Hf  Hf0  1  0.33333300  0.66666700  0.00000000  1
  Hf  Hf1  1  0.66666700  0.33333300  0.50000000  1
  Hf  Hf2  1  0.66666700  0.33333300  0.00000000  1
  Hf  Hf3  1  0.33333300  0.66666700  0.50000000  1
  Hf  Hf4  1  0.26301766  0.00000000  0.26745177  1
  Hf  Hf5  1  0.26301766  0.26301766  0.73254823  1
  Hf  Hf6  1  1.00000000  0.73698234  0.73254823  1
  Hf  Hf7  1  0.00000000  0.26301766  0.26745177  1
  Hf  Hf8  1  0.73698234  0.73698234  0.26745177  1
  Hf  Hf9  1  0.73698234  0.00000000  0.73254823  1
  Sn  Sn0  1  0.60818605  0.00000000  0.24164242  1
  Sn  Sn1  1  0.60818605  0.60818605  0.75835758  1
  Sn  Sn2  1  1.00000000  0.39181395  0.75835758  1
  Sn  Sn3  1  0.00000000  0.60818605  0.24164242  1
  Sn  Sn4  1  0.39181395  0.39181395  0.24164242  1
  Sn  Sn5  1  0.39181395  0.00000000  0.75835758  1
  P  P0  1  0.00000000  0.00000000  0.50000000  1
  Au  Au0  1  0.00000000  0.00000000  0.00000000  1
loop_
_geom_bond_atom_site_label_1
_geom_bond_atom_site_label_2
_geom_bond_distance
_geom_bond_site_symmetry_2
Hf0 Sn3 2.993947 1_555
Hf0 Sn5 2.993947 1_564
Hf0 Sn2 2.993950 1_454
Hf0 Sn0 2.993950 1_565
Hf0 Sn1 2.993955 1_554
Hf0 Sn4 2.993955 1_555
Hf1 Sn2 3.041640 1_555
Hf1 Sn0 3.041640 1_555
Hf1 Sn3 3.041643 1_655
Hf1 Sn5 3.041643 1_555
Hf1 Sn4 3.041648 1_555
Hf1 Sn1 3.041648 1_555
Hf2 Sn2 2.993947 1_554
Hf2 Sn0 2.993947 1_555
Hf2 Sn3 2.993950 1_655
Hf2 Sn5 2.993950 1_554
Hf2 Sn4 2.993955 1_555
Hf2 Sn1 2.993955 1_554
Hf3 Sn3 3.041640 1_555
Hf3 Sn5 3.041640 1_565
Hf3 Sn2 3.041643 1_455
Hf3 Sn0 3.041643 1_565
Hf3 Sn1 3.041648 1_555
Hf3 Sn4 3.041648 1_555
Hf4 P0 2.631243 1_555
Hf4 Sn0 2.956159 1_555
Hf4 Sn4 2.962355 1_555
Hf4 Sn3 2.962355 1_545
Hf4 Sn5 3.084449 1_555
Hf4 Sn5 3.184381 1_554
Hf5 P0 2.631243 1_555
Hf5 Sn1 2.956159 1_555
Hf5 Sn2 2.962355 1_455
Hf5 Sn5 2.962355 1_555
Hf5 Sn4 3.084449 1_555
Hf5 Sn4 3.184381 1_556
Hf6 P0 2.631243 1_665
Hf6 Sn2 2.956159 1_555
Hf6 Sn1 2.962355 1_555
Hf6 Sn5 2.962355 1_665
Hf6 Sn3 3.084449 1_655
Hf6 Sn3 3.184381 1_656
Hf7 P0 2.631243 1_555
Hf7 Sn3 2.956159 1_555
Hf7 Sn4 2.962355 1_555
Hf7 Sn0 2.962355 1_455
Hf7 Sn2 3.084449 1_455
Hf7 Sn2 3.184381 1_454
Hf8 P0 2.631243 1_665
Hf8 Sn4 2.956159 1_555
Hf8 Sn3 2.962355 1_655
Hf8 Sn0 2.962355 1_565
Hf8 Sn1 3.084449 1_555
Hf8 Sn1 3.184381 1_554
Hf9 P0 2.631243 1_655
Hf9 Sn5 2.956159 1_555
Hf9 Sn2 2.962355 1_555
Hf9 Sn1 2.962355 1_545
Hf9 Sn0 3.084449 1_555
Hf9 Sn0 3.184381 1_556
Au0 Hf4 2.743087 1_555
Au0 Hf9 2.743087 1_454
Au0 Hf7 2.743087 1_555
Au0 Hf5 2.743087 1_554
Au0 Hf6 2.743087 1_444
Au0 Hf8 2.743087 1_445
