# generated using pymatgen
data_Mo2(PO4)3
_symmetry_space_group_name_H-M   'P 1'
_cell_length_a   8.65763291
_cell_length_b   8.65796193
_cell_length_c   8.85197080
_cell_angle_alpha   60.73038243
_cell_angle_beta   60.72371111
_cell_angle_gamma   59.98081985
_symmetry_Int_Tables_number   1
_chemical_formula_structural   Mo2(PO4)3
_chemical_formula_sum   'Mo4 P6 O24'
_cell_volume   474.20012509
_cell_formula_units_Z   2
loop_
 _symmetry_equiv_pos_site_id
 _symmetry_equiv_pos_as_xyz
  1  'x, y, z'
loop_
 _atom_site_type_symbol
 _atom_site_label
 _atom_site_symmetry_multiplicity
 _atom_site_fract_x
 _atom_site_fract_y
 _atom_site_fract_z
 _atom_site_occupancy
  Mo  Mo0  1  0.64087047  0.64289426  0.07366322  1
  Mo  Mo1  1  0.14281165  0.14226327  0.57525847  1
  Mo  Mo2  1  0.85899821  0.85784101  0.42478277  1
  Mo  Mo3  1  0.35722592  0.35726155  0.92614116  1
  P  P0  1  0.25025763  0.96652783  0.24874148  1
  P  P1  1  0.03403770  0.46507867  0.74978043  1
  P  P2  1  0.96532369  0.53478428  0.24974277  1
  P  P3  1  0.75159997  0.03399245  0.74963223  1
  P  P4  1  0.46595444  0.74898595  0.75104331  1
  P  P5  1  0.53467822  0.24820235  0.25107433  1
  O  O0  1  0.57679488  0.20778593  0.77501541  1
  O  O1  1  0.49758952  0.27321009  0.08720648  1
  O  O2  1  0.71435556  0.08037439  0.26686202  1
  O  O3  1  0.56271056  0.42442670  0.21884840  1
  O  O4  1  0.48500862  0.73113197  0.92099226  1
  O  O5  1  0.28779436  0.91729816  0.72266028  1
  O  O6  1  0.45047697  0.57417531  0.76852281  1
  O  O7  1  0.72342239  0.86046184  0.91774324  1
  O  O8  1  0.21771936  0.00225972  0.41583332  1
  O  O9  1  0.86077861  0.49678143  0.91560064  1
  O  O10  1  0.63674810  0.78455623  0.58263556  1
  O  O11  1  0.91873444  0.06206793  0.73357340  1
  O  O12  1  0.20701119  0.44327358  0.77525864  1
  O  O13  1  0.06455009  0.28486246  0.73142907  1
  O  O14  1  0.78201060  0.00718193  0.57820458  1
  O  O15  1  0.00831074  0.63044944  0.57776610  1
  O  O16  1  0.99910056  0.36685573  0.42064290  1
  O  O17  1  0.26896581  0.13599819  0.07844012  1
  O  O18  1  0.93089377  0.71553143  0.26982782  1
  O  O19  1  0.79142020  0.55333244  0.23072356  1
  O  O20  1  0.08118446  0.92844684  0.27792812  1
  O  O21  1  0.36934561  0.22162415  0.42460497  1
  O  O22  1  0.13748277  0.50788331  0.08058167  1
  O  O23  1  0.42583391  0.79219417  0.22923946  1
loop_
_geom_bond_atom_site_label_1
_geom_bond_atom_site_label_2
_geom_bond_distance
_geom_bond_site_symmetry_2
Mo0 O3 1.934005 1_555
Mo0 O7 1.950405 1_554
Mo0 O23 1.964346 1_555
Mo0 O9 1.974410 1_554
Mo0 O19 1.984927 1_555
Mo0 O4 1.993345 1_554
Mo1 O5 1.934486 1_545
Mo1 O13 1.951991 1_555
Mo1 O16 1.960792 1_455
Mo1 O8 1.967858 1_555
Mo1 O11 1.986663 1_455
Mo1 O21 1.997835 1_555
Mo2 O20 1.928127 1_655
Mo2 O10 1.944859 1_555
Mo2 O18 1.958867 1_555
Mo2 O2 1.974533 1_565
Mo2 O14 1.982399 1_565
Mo2 O15 1.984832 1_655
Mo3 O12 1.946006 1_555
Mo3 O0 1.955050 1_555
Mo3 O1 1.958119 1_556
Mo3 O22 1.976384 1_556
Mo3 O6 1.994650 1_555
Mo3 O17 2.000748 1_556
O0 P3 1.524620 1_555
O1 P5 1.527404 1_555
O2 P5 1.517604 1_555
O3 P5 1.531459 1_555
O4 P4 1.517923 1_555
O5 P4 1.528988 1_555
O6 P4 1.512033 1_555
O7 P3 1.535158 1_565
O8 P0 1.521677 1_545
O9 P1 1.519373 1_655
O10 P4 1.534412 1_555
O11 P3 1.513287 1_555
O12 P1 1.528053 1_555
O13 P1 1.524528 1_555
O14 P3 1.522648 1_555
O15 P1 1.516216 1_555
O16 P2 1.531168 1_555
O17 P0 1.512535 1_545
O18 P2 1.524097 1_555
O19 P2 1.516738 1_555
O20 P0 1.532256 1_555
O21 P5 1.514880 1_555
O22 P2 1.526058 1_455
O23 P0 1.523512 1_555
