# generated using pymatgen
data_Ti10Ga2Sn3Bi
_symmetry_space_group_name_H-M   'P 1'
_cell_length_a   5.18238720
_cell_length_b   7.88350411
_cell_length_c   7.90130258
_cell_angle_alpha   83.83413308
_cell_angle_beta   70.89147138
_cell_angle_gamma   70.85778941
_symmetry_Int_Tables_number   1
_chemical_formula_structural   Ti10Ga2Sn3Bi
_chemical_formula_sum   'Ti10 Ga2 Sn3 Bi1'
_cell_volume   288.15833884
_cell_formula_units_Z   1
loop_
 _symmetry_equiv_pos_site_id
 _symmetry_equiv_pos_as_xyz
  1  'x, y, z'
loop_
 _atom_site_type_symbol
 _atom_site_label
 _atom_site_symmetry_multiplicity
 _atom_site_fract_x
 _atom_site_fract_y
 _atom_site_fract_z
 _atom_site_occupancy
  Ti  Ti0  1  0.71889027  0.85570598  0.70624599  1
  Ti  Ti1  1  0.28930993  0.13430202  0.28748846  1
  Ti  Ti2  1  0.78605169  0.28638371  0.14197478  1
  Ti  Ti3  1  0.21815357  0.70874934  0.85437971  1
  Ti  Ti4  1  0.57184500  0.71350888  0.14222934  1
  Ti  Ti5  1  0.42759318  0.29122310  0.85432361  1
  Ti  Ti6  1  0.07432598  0.14437652  0.70625702  1
  Ti  Ti7  1  0.92386693  0.86553126  0.28757379  1
  Ti  Ti8  1  0.74263283  0.50037498  0.51000055  1
  Ti  Ti9  1  0.24702514  0.49989885  0.51034384  1
  Ga  Ga0  1  0.25223781  0.99992883  0.99562059  1
  Ga  Ga1  1  0.75221674  0.99981196  0.99577104  1
  Sn  Sn0  1  0.83237942  0.50016002  0.83495209  1
  Sn  Sn1  1  0.33540785  0.82952461  0.49961469  1
  Sn  Sn2  1  0.66495697  0.17051167  0.49946435  1
  Bi  Bi0  1  0.16310671  0.50000928  0.17376114  1
loop_
_geom_bond_atom_site_label_1
_geom_bond_atom_site_label_2
_geom_bond_distance
_geom_bond_site_symmetry_2
Ti8 Ti9 2.568778 1_555
Ti8 Ti9 2.613617 1_655
Ga0 Ga1 2.591172 1_555
Ga0 Ga1 2.591216 1_455
Ga0 Ti4 2.724956 1_556
Ga0 Ti1 2.725013 1_566
Ga0 Ti7 2.725288 1_456
Ga0 Ti2 2.725358 1_466
Ga0 Ti3 2.737024 1_555
Ga0 Ti5 2.738513 1_565
Ga0 Ti0 2.739336 1_555
Ga0 Ti6 2.739808 1_565
Ga1 Ti4 2.724273 1_556
Ga1 Ti2 2.724374 1_566
Ga1 Ti1 2.725538 1_566
Ga1 Ti7 2.725577 1_556
Ga1 Ti3 2.737630 1_655
Ga1 Ti0 2.738489 1_555
Ga1 Ti5 2.738946 1_565
Ga1 Ti6 2.739671 1_665
Sn0 Ti9 2.754219 1_655
Sn0 Ti8 2.754810 1_555
Sn0 Ti4 2.790735 1_556
Sn0 Ti2 2.790805 1_556
Sn0 Ti0 2.816865 1_555
Sn0 Ti6 2.818625 1_655
Sn0 Ti3 3.022551 1_655
Sn0 Ti5 3.023056 1_555
Sn0 Ti3 3.026809 1_555
Sn0 Ti5 3.028905 1_655
Sn1 Ti1 2.767662 1_565
Sn1 Ti8 2.769475 1_555
Sn1 Ti9 2.770846 1_555
Sn1 Ti3 2.797164 1_555
Sn1 Ti4 2.804688 1_555
Sn1 Ti6 2.806994 1_565
Sn1 Ti0 3.020511 1_555
Sn1 Ti0 3.023415 1_455
Sn1 Ti7 3.045731 1_455
Sn1 Ti7 3.050923 1_555
Sn2 Ti7 2.768081 1_545
Sn2 Ti9 2.771095 1_555
Sn2 Ti8 2.772443 1_555
Sn2 Ti5 2.797794 1_555
Sn2 Ti2 2.804986 1_555
Sn2 Ti0 2.807096 1_545
Sn2 Ti6 3.020515 1_655
Sn2 Ti6 3.024571 1_555
Sn2 Ti1 3.046059 1_555
Sn2 Ti1 3.050396 1_655
Bi0 Ti8 2.830861 1_455
Bi0 Ti9 2.831653 1_555
Bi0 Ti3 2.846414 1_554
Bi0 Ti5 2.847136 1_554
Bi0 Ti7 2.851852 1_455
Bi0 Ti1 2.852869 1_555
Bi0 Ti4 3.047051 1_555
Bi0 Ti2 3.047626 1_455
Bi0 Ti4 3.051456 1_455
Bi0 Ti2 3.052189 1_555
