# generated using pymatgen
data_Rb5Bi2Au
_symmetry_space_group_name_H-M   'P 1'
_cell_length_a   6.31461307
_cell_length_b   6.31461242
_cell_length_c   21.54536908
_cell_angle_alpha   90.00000000
_cell_angle_beta   90.00000000
_cell_angle_gamma   119.99999340
_symmetry_Int_Tables_number   1
_chemical_formula_structural   Rb5Bi2Au
_chemical_formula_sum   'Rb10 Bi4 Au2'
_cell_volume   744.00874892
_cell_formula_units_Z   2
loop_
 _symmetry_equiv_pos_site_id
 _symmetry_equiv_pos_as_xyz
  1  'x, y, z'
loop_
 _atom_site_type_symbol
 _atom_site_label
 _atom_site_symmetry_multiplicity
 _atom_site_fract_x
 _atom_site_fract_y
 _atom_site_fract_z
 _atom_site_occupancy
  Rb  Rb0  1  0.33333300  0.66666700  0.55004771  1
  Rb  Rb1  1  0.66666700  0.33333300  0.05004771  1
  Rb  Rb2  1  0.66666700  0.33333300  0.44995229  1
  Rb  Rb3  1  0.33333300  0.66666700  0.94995229  1
  Rb  Rb4  1  0.00000000  0.00000000  0.15388664  1
  Rb  Rb5  1  0.00000000  0.00000000  0.65388664  1
  Rb  Rb6  1  0.00000000  0.00000000  0.84611336  1
  Rb  Rb7  1  0.00000000  0.00000000  0.34611336  1
  Rb  Rb8  1  0.33333300  0.66666700  0.75000000  1
  Rb  Rb9  1  0.66666700  0.33333300  0.25000000  1
  Bi  Bi0  1  0.33333300  0.66666700  0.37757737  1
  Bi  Bi1  1  0.66666700  0.33333300  0.87757737  1
  Bi  Bi2  1  0.66666700  0.33333300  0.62242263  1
  Bi  Bi3  1  0.33333300  0.66666700  0.12242263  1
  Au  Au0  1  0.33333300  0.66666700  0.25000000  1
  Au  Au1  1  0.66666700  0.33333300  0.75000000  1
loop_
_geom_bond_atom_site_label_1
_geom_bond_atom_site_label_2
_geom_bond_distance
_geom_bond_site_symmetry_2
Rb0 Rb2 4.235837 1_565
Rb0 Rb2 4.235837 1_455
Rb0 Rb2 4.235846 1_555
Rb0 Rb5 4.277464 1_565
Rb0 Rb5 4.277469 1_555
Rb0 Rb5 4.277469 1_665
Rb0 Rb8 4.308046 1_555
Rb1 Rb3 4.235837 1_544
Rb1 Rb3 4.235837 1_654
Rb1 Rb3 4.235846 1_554
Rb1 Rb4 4.277464 1_655
Rb1 Rb4 4.277469 1_665
Rb1 Rb4 4.277469 1_555
Rb1 Rb9 4.308046 1_555
Rb2 Rb7 4.277464 1_655
Rb2 Rb7 4.277469 1_665
Rb2 Rb7 4.277469 1_555
Rb2 Rb9 4.308046 1_555
Rb3 Rb6 4.277464 1_565
Rb3 Rb6 4.277469 1_555
Rb3 Rb6 4.277469 1_665
Rb3 Rb8 4.308046 1_555
Rb4 Rb7 4.141596 1_555
Rb4 Rb9 4.192806 1_455
Rb4 Rb9 4.192811 1_445
Rb4 Rb9 4.192811 1_555
Rb5 Rb6 4.141596 1_555
Rb5 Rb8 4.192806 1_545
Rb5 Rb8 4.192811 1_555
Rb5 Rb8 4.192811 1_445
Rb6 Rb8 4.192806 1_545
Rb6 Rb8 4.192811 1_555
Rb6 Rb8 4.192811 1_445
Rb7 Rb9 4.192806 1_455
Rb7 Rb9 4.192811 1_445
Rb7 Rb9 4.192811 1_555
Bi0 Rb7 3.708230 1_565
Bi0 Rb7 3.708236 1_555
Bi0 Rb7 3.708236 1_665
Bi0 Rb0 3.715937 1_555
Bi0 Rb2 3.965220 1_565
Bi0 Rb2 3.965221 1_455
Bi0 Rb2 3.965230 1_555
Bi1 Rb6 3.708230 1_655
Bi1 Rb6 3.708236 1_665
Bi1 Rb6 3.708236 1_555
Bi1 Rb1 3.715937 1_556
Bi1 Rb3 3.965220 1_545
Bi1 Rb3 3.965221 1_655
Bi1 Rb3 3.965230 1_555
Bi2 Rb5 3.708230 1_655
Bi2 Rb5 3.708236 1_665
Bi2 Rb5 3.708236 1_555
Bi2 Rb2 3.715937 1_555
Bi2 Rb0 3.965220 1_545
Bi2 Rb0 3.965221 1_655
Bi2 Rb0 3.965230 1_555
Bi3 Rb4 3.708230 1_565
Bi3 Rb4 3.708236 1_555
Bi3 Rb4 3.708236 1_665
Bi3 Rb3 3.715937 1_554
Bi3 Rb1 3.965220 1_565
Bi3 Rb1 3.965221 1_455
Bi3 Rb1 3.965230 1_555
Au0 Bi0 2.748702 1_555
Au0 Bi3 2.748702 1_555
Au0 Rb9 3.645740 1_565
Au0 Rb9 3.645740 1_455
Au0 Rb9 3.645751 1_555
Au0 Rb4 4.192806 1_565
Au0 Rb7 4.192806 1_565
Au0 Rb4 4.192811 1_555
Au0 Rb7 4.192811 1_555
Au0 Rb4 4.192811 1_665
Au0 Rb7 4.192811 1_665
Au1 Bi1 2.748702 1_555
Au1 Bi2 2.748702 1_555
Au1 Rb8 3.645740 1_545
Au1 Rb8 3.645740 1_655
Au1 Rb8 3.645751 1_555
Au1 Rb6 4.192806 1_655
Au1 Rb5 4.192806 1_655
Au1 Rb6 4.192811 1_665
Au1 Rb5 4.192811 1_665
Au1 Rb6 4.192811 1_555
Au1 Rb5 4.192811 1_555
