# generated using pymatgen
data_Rb2Cd5P4
_symmetry_space_group_name_H-M   'P 1'
_cell_length_a   7.13504894
_cell_length_b   7.13504849
_cell_length_c   12.25314993
_cell_angle_alpha   90.00000000
_cell_angle_beta   90.00000000
_cell_angle_gamma   116.99561298
_symmetry_Int_Tables_number   1
_chemical_formula_structural   Rb2Cd5P4
_chemical_formula_sum   'Rb4 Cd10 P8'
_cell_volume   555.82676868
_cell_formula_units_Z   2
loop_
 _symmetry_equiv_pos_site_id
 _symmetry_equiv_pos_as_xyz
  1  'x, y, z'
loop_
 _atom_site_type_symbol
 _atom_site_label
 _atom_site_symmetry_multiplicity
 _atom_site_fract_x
 _atom_site_fract_y
 _atom_site_fract_z
 _atom_site_occupancy
  Rb  Rb0  1  0.20583184  0.79416816  0.50000000  1
  Rb  Rb1  1  0.20583184  0.79416816  0.00000000  1
  Rb  Rb2  1  0.79416816  0.20583184  0.50000000  1
  Rb  Rb3  1  0.79416816  0.20583184  0.00000000  1
  Cd  Cd0  1  0.53091808  0.23073715  0.25000000  1
  Cd  Cd1  1  0.76926285  0.46908192  0.75000000  1
  Cd  Cd2  1  0.46908192  0.76926285  0.75000000  1
  Cd  Cd3  1  0.23073715  0.53091808  0.25000000  1
  Cd  Cd4  1  0.65506701  0.65506701  0.39584370  1
  Cd  Cd5  1  0.34493299  0.34493299  0.60415630  1
  Cd  Cd6  1  0.65506701  0.65506701  0.10415630  1
  Cd  Cd7  1  0.34493299  0.34493299  0.89584370  1
  Cd  Cd8  1  0.01289494  0.01289494  0.25000000  1
  Cd  Cd9  1  0.98710506  0.98710506  0.75000000  1
  P  P0  1  0.60003408  0.90886784  0.25000000  1
  P  P1  1  0.09113216  0.39996592  0.75000000  1
  P  P2  1  0.39996592  0.09113216  0.75000000  1
  P  P3  1  0.90886784  0.60003408  0.25000000  1
  P  P4  1  0.28051056  0.28051056  0.39913061  1
  P  P5  1  0.71948944  0.71948944  0.60086939  1
  P  P6  1  0.28051056  0.28051056  0.10086939  1
  P  P7  1  0.71948944  0.71948944  0.89913061  1
loop_
_geom_bond_atom_site_label_1
_geom_bond_atom_site_label_2
_geom_bond_distance
_geom_bond_site_symmetry_2
Cd0 P0 2.558421 1_545
Cd0 P4 2.689506 1_555
Cd0 P6 2.689506 1_555
Cd0 P3 2.786446 1_555
Cd0 Rb2 3.639553 1_555
Cd0 Rb3 3.639553 1_555
Cd1 P1 2.558421 1_655
Cd1 P7 2.689506 1_555
Cd1 P5 2.689506 1_555
Cd1 P2 2.786446 1_555
Cd1 Rb2 3.639553 1_555
Cd1 Rb3 3.639553 1_556
Cd2 P2 2.558421 1_565
Cd2 P7 2.689506 1_555
Cd2 P5 2.689506 1_555
Cd2 P1 2.786446 1_555
Cd2 Rb0 3.639553 1_555
Cd2 Rb1 3.639553 1_556
Cd3 P3 2.558421 1_455
Cd3 P4 2.689506 1_555
Cd3 P6 2.689506 1_555
Cd3 P0 2.786446 1_555
Cd3 Rb0 3.639553 1_555
Cd3 Rb1 3.639553 1_555
Cd4 P5 2.557725 1_555
Cd4 P0 2.696765 1_555
Cd4 P3 2.696765 1_555
Cd4 P4 2.793197 1_555
Cd5 P4 2.557725 1_555
Cd5 P2 2.696765 1_555
Cd5 P1 2.696765 1_555
Cd5 P5 2.793197 1_555
Cd6 P7 2.557725 1_554
Cd6 P0 2.696765 1_555
Cd6 P3 2.696765 1_555
Cd6 P6 2.793197 1_555
Cd7 P6 2.557725 1_556
Cd7 P2 2.696765 1_555
Cd7 P1 2.696765 1_555
Cd7 P7 2.793197 1_555
Cd8 P3 2.691389 1_445
Cd8 P0 2.691389 1_445
Cd8 P4 2.705753 1_555
Cd8 P6 2.705753 1_555
Cd9 P1 2.691389 1_665
Cd9 P2 2.691389 1_665
Cd9 P7 2.705753 1_555
Cd9 P5 2.705753 1_555
P0 Rb3 3.623183 1_565
P0 Rb2 3.623183 1_565
P1 Rb2 3.623183 1_455
P1 Rb3 3.623183 1_456
P2 Rb1 3.623183 1_546
P2 Rb0 3.623183 1_545
P3 Rb0 3.623183 1_655
P3 Rb1 3.623183 1_655
P4 Rb0 3.489179 1_545
P4 Rb2 3.489180 1_455
P5 Rb2 3.489179 1_565
P5 Rb0 3.489180 1_655
P6 Rb1 3.489179 1_545
P6 Rb3 3.489180 1_455
P7 Rb3 3.489179 1_566
P7 Rb1 3.489180 1_656
