# generated using pymatgen
data_Hf3MgScRe24
_symmetry_space_group_name_H-M   'P 1'
_cell_length_a   8.41326773
_cell_length_b   8.41067170
_cell_length_c   8.41067252
_cell_angle_alpha   109.46497053
_cell_angle_beta   109.47747264
_cell_angle_gamma   109.47747601
_symmetry_Int_Tables_number   1
_chemical_formula_structural   Hf3MgScRe24
_chemical_formula_sum   'Hf3 Mg1 Sc1 Re24'
_cell_volume   458.11095354
_cell_formula_units_Z   1
loop_
 _symmetry_equiv_pos_site_id
 _symmetry_equiv_pos_as_xyz
  1  'x, y, z'
loop_
 _atom_site_type_symbol
 _atom_site_label
 _atom_site_symmetry_multiplicity
 _atom_site_fract_x
 _atom_site_fract_y
 _atom_site_fract_z
 _atom_site_occupancy
  Hf  Hf0  1  0.00012967  0.63392212  1.00000000  1
  Hf  Hf1  1  0.00012967  0.00000000  0.63392212  1
  Hf  Hf2  1  0.36620756  0.36607788  0.36607788  1
  Mg  Mg0  1  0.99702536  1.00000000  1.00000000  1
  Sc  Sc0  1  0.63376100  1.00000000  1.00000000  1
  Re  Re0  1  0.39603809  0.67556268  1.00000000  1
  Re  Re1  1  0.72047641  0.32443732  0.32443732  1
  Re  Re2  1  0.39603809  1.00000000  0.67556268  1
  Re  Re3  1  0.67690208  0.39573163  1.00000000  1
  Re  Re4  1  0.99883308  0.39621585  0.67568416  1
  Re  Re5  1  0.32314892  0.72053269  0.32431584  1
  Re  Re6  1  0.32314892  0.32431584  0.72053269  1
  Re  Re7  1  0.99883308  0.67568416  0.39621585  1
  Re  Re8  1  0.67690208  1.00000000  0.39573163  1
  Re  Re9  1  0.60261623  0.60378415  0.27946731  1
  Re  Re10  1  0.28117045  0.60426837  0.60426837  1
  Re  Re11  1  0.60261623  0.27946731  0.60378415  1
  Re  Re12  1  0.37648240  0.19202770  0.00000000  1
  Re  Re13  1  0.18445370  0.80797230  0.80797230  1
  Re  Re14  1  0.37648240  0.00000000  0.19202770  1
  Re  Re15  1  0.19352025  0.37642494  0.00000000  1
  Re  Re16  1  0.00009536  0.37608252  0.19196967  1
  Re  Re17  1  0.80812569  0.18411285  0.80803033  1
  Re  Re18  1  0.80812569  0.80803033  0.18411285  1
  Re  Re19  1  0.00009536  0.19196967  0.37608252  1
  Re  Re20  1  0.19352025  0.00000000  0.37642494  1
  Re  Re21  1  0.62401284  0.62391748  0.81588715  1
  Re  Re22  1  0.81709531  0.62357506  0.62357506  1
  Re  Re23  1  0.62401284  0.81588715  0.62391748  1
loop_
_geom_bond_atom_site_label_1
_geom_bond_atom_site_label_2
_geom_bond_distance
_geom_bond_site_symmetry_2
Hf0 Re5 2.787241 1_556
Hf0 Re4 2.787245 1_455
Hf0 Re3 2.788453 1_455
Hf0 Re20 2.979623 1_566
Hf0 Re22 2.979623 1_455
Hf0 Re21 2.980955 1_455
Hf0 Re18 2.980955 1_456
Hf0 Re13 2.981339 1_555
Hf0 Re14 2.981343 1_566
Hf0 Mg0 3.087768 1_455
Hf0 Re17 3.105351 1_455
Hf0 Re16 3.105352 1_556
Hf0 Re15 3.112479 1_556
Hf0 Re0 3.231021 1_555
Hf0 Re7 3.236566 1_456
Hf0 Re11 3.236571 1_455
Hf1 Re6 2.787241 1_555
Hf1 Re7 2.787245 1_445
Hf1 Re8 2.788453 1_445
Hf1 Re15 2.979623 1_556
Hf1 Re22 2.979623 1_445
Hf1 Re23 2.980955 1_445
Hf1 Re17 2.980955 1_455
Hf1 Re13 2.981339 1_545
Hf1 Re12 2.981344 1_556
Hf1 Mg0 3.087768 1_445
Hf1 Re18 3.105352 1_445
Hf1 Re19 3.105352 1_555
Hf1 Re20 3.112479 1_555
Hf1 Re2 3.231021 1_545
Hf1 Re4 3.236566 1_455
Hf1 Re9 3.236571 1_445
Hf2 Re9 2.787246 1_555
Hf2 Re11 2.787246 1_555
Hf2 Re10 2.788453 1_555
Hf2 Re20 2.979623 1_555
Hf2 Re15 2.979623 1_555
Hf2 Re19 2.980955 1_555
Hf2 Re16 2.980955 1_555
Hf2 Re14 2.981344 1_555
Hf2 Re12 2.981344 1_555
Hf2 Mg0 3.087767 1_444
Hf2 Re23 3.105351 1_555
Hf2 Re21 3.105351 1_555
Hf2 Re22 3.112479 1_555
Hf2 Re1 3.231029 1_555
Hf2 Re5 3.236574 1_555
Hf2 Re6 3.236574 1_555
Mg0 Re21 3.021064 1_555
Mg0 Re16 3.021064 1_666
Mg0 Re23 3.021064 1_555
Mg0 Re18 3.021064 1_556
Mg0 Re17 3.021064 1_565
Mg0 Re19 3.021064 1_666
Mg0 Re15 3.044024 1_666
Mg0 Re22 3.044024 1_555
Mg0 Re20 3.044024 1_666
Mg0 Sc0 3.056240 1_555
Mg0 Re13 3.059717 1_655
Mg0 Re12 3.059724 1_666
Mg0 Re14 3.059724 1_666
Re0 Re15 2.524744 1_556
Re0 Re14 2.760611 1_566
Re0 Re13 2.760616 1_555
Re0 Sc0 2.794033 1_555
Re0 Re9 2.798413 1_556
Re0 Re6 2.798419 1_555
Re0 Re18 2.890209 1_556
Re0 Re21 2.890209 1_555
Re0 Re8 2.917179 1_556
Re0 Re10 2.917180 1_555
Re0 Re5 2.922692 1_556
Re0 Re4 2.922693 1_455
Re1 Re22 2.524747 1_555
Re1 Re14 2.760616 1_555
Re1 Re12 2.760616 1_555
Re1 Sc0 2.794029 1_544
Re1 Re7 2.798419 1_555
Re1 Re4 2.798419 1_555
Re1 Re19 2.890202 1_655
Re1 Re16 2.890202 1_655
Re1 Re8 2.917178 1_545
Re1 Re3 2.917179 1_554
Re1 Re9 2.922705 1_555
Re1 Re11 2.922705 1_555
Re2 Re20 2.524745 1_565
Re2 Sc0 2.794033 1_555
Re2 Re5 2.798419 1_555
Re2 Re23 2.890209 1_555
Re2 Re3 2.917179 1_565
Re2 Re6 2.922692 1_565
Re2 Re7 2.922693 1_455
Re3 Re6 2.818736 1_555
Re3 Re9 2.818740 1_556
Re3 Re7 2.912689 1_556
Re3 Sc0 3.225548 1_545
Re4 Re8 2.912689 1_545
Re4 Re6 2.918736 1_655
Re5 Re8 2.818736 1_555
Re5 Re7 2.918736 1_455
Re5 Re9 2.918736 1_555
Re7 Re9 2.918744 1_555
Re8 Re9 2.912686 1_555
Re8 Sc0 3.225548 1_554
Re10 Re13 2.536909 1_555
Re10 Re23 2.752735 1_555
Re10 Re21 2.752735 1_555
Re10 Re4 2.818740 1_455
Re10 Re7 2.818740 1_455
Re10 Re19 2.893070 1_555
Re10 Re16 2.893071 1_555
Re10 Re6 2.912694 1_555
Re10 Re5 2.912694 1_555
Re10 Re2 2.917179 1_555
Re10 Sc0 3.225547 1_555
Re11 Re17 2.538867 1_555
Re11 Re21 2.757071 1_555
Re11 Re22 2.766947 1_555
Re11 Re2 2.798413 1_545
Re11 Re8 2.818740 1_545
Re11 Re20 2.871946 1_555
Re11 Re14 2.887345 1_555
Re11 Re3 2.912686 1_555
Re11 Re6 2.918736 1_555
Re11 Re4 2.918744 1_555
Re12 Re15 2.523256 1_555
Re12 Re3 2.536902 1_554
Re12 Re13 2.637316 1_544
Re12 Re14 2.637316 1_555
Re12 Re2 2.760611 1_544
Re12 Re6 2.887339 1_554
Re12 Re9 2.887345 1_555
Re12 Sc0 3.102438 1_544
Re13 Re22 2.523249 1_455
Re13 Re14 2.637316 1_566
Re13 Re2 2.760616 1_555
Re13 Re4 2.887346 1_455
Re13 Re7 2.887347 1_455
Re13 Sc0 3.102446 1_555
Re14 Re20 2.523256 1_555
Re14 Re8 2.536902 1_545
Re14 Re5 2.887339 1_545
Re14 Sc0 3.102438 1_544
Re15 Re17 2.647133 1_454
Re15 Re16 2.647133 1_555
Re15 Re4 2.766939 1_454
Re15 Re5 2.766943 1_555
Re15 Re9 2.871946 1_555
Re15 Re6 2.871946 1_554
Re16 Re19 2.528613 1_555
Re16 Re7 2.538868 1_455
Re16 Re17 2.636519 1_454
Re16 Re3 2.752735 1_454
Re16 Re5 2.757074 1_555
Re16 Sc0 2.981236 1_444
Re17 Re23 2.528613 1_545
Re17 Re3 2.752735 1_555
Re17 Re4 2.757069 1_555
Re17 Re2 2.890209 1_545
Re17 Re8 2.893071 1_545
Re17 Sc0 2.981237 1_545
Re18 Re21 2.528613 1_554
Re18 Re9 2.538866 1_555
Re18 Re19 2.636519 1_665
Re18 Re20 2.647133 1_665
Re18 Re8 2.752735 1_555
Re18 Re7 2.757069 1_555
Re18 Re3 2.893070 1_554
Re18 Sc0 2.981237 1_554
Re19 Re4 2.538868 1_455
Re19 Re20 2.647133 1_555
Re19 Re8 2.752735 1_445
Re19 Re6 2.757074 1_555
Re19 Sc0 2.981236 1_444
Re20 Re7 2.766938 1_445
Re20 Re6 2.766943 1_555
Re20 Re5 2.871946 1_545
Re21 Re6 2.538871 1_555
Re21 Re23 2.636519 1_555
Re21 Re22 2.647133 1_555
Re21 Re3 2.893071 1_555
Re21 Sc0 2.981236 1_555
Re22 Re23 2.647133 1_555
Re22 Re9 2.766948 1_555
Re22 Re4 2.871953 1_555
Re22 Re7 2.871953 1_555
Re23 Re5 2.538871 1_555
Re23 Re9 2.757072 1_555
Re23 Re8 2.893071 1_555
Re23 Sc0 2.981237 1_555
