# generated using pymatgen
data_Mn3V(SiOs)2
_symmetry_space_group_name_H-M   'P 1'
_cell_length_a   7.07650570
_cell_length_b   7.07650582
_cell_length_c   7.07650437
_cell_angle_alpha   33.71702471
_cell_angle_beta   33.71701909
_cell_angle_gamma   33.71703322
_symmetry_Int_Tables_number   1
_chemical_formula_structural   Mn3V(SiOs)2
_chemical_formula_sum   'Mn3 V1 Si2 Os2'
_cell_volume   97.28437642
_cell_formula_units_Z   1
loop_
 _symmetry_equiv_pos_site_id
 _symmetry_equiv_pos_as_xyz
  1  'x, y, z'
loop_
 _atom_site_type_symbol
 _atom_site_label
 _atom_site_symmetry_multiplicity
 _atom_site_fract_x
 _atom_site_fract_y
 _atom_site_fract_z
 _atom_site_occupancy
  Mn  Mn0  1  0.99959007  0.99959007  0.99959007  1
  Mn  Mn1  1  0.87542665  0.87542665  0.87542665  1
  Mn  Mn2  1  0.37423071  0.37423071  0.37423071  1
  V  V0  1  0.50022685  0.50022685  0.50022685  1
  Si  Si0  1  0.25024979  0.25024979  0.25024979  1
  Si  Si1  1  0.75021326  0.75021326  0.75021326  1
  Os  Os0  1  0.62521087  0.62521087  0.62521087  1
  Os  Os1  1  0.12485180  0.12485180  0.12485180  1
loop_
_geom_bond_atom_site_label_1
_geom_bond_atom_site_label_2
_geom_bond_distance
_geom_bond_site_symmetry_2
Mn0 Mn1 2.483739 1_555
Mn0 Os1 2.505709 1_666
Mn0 Os0 2.507950 1_556
Mn0 Os0 2.507950 1_655
Mn0 Os0 2.507950 1_565
Mn0 Mn2 2.509667 1_665
Mn0 Mn2 2.509667 1_566
Mn0 Mn2 2.509667 1_656
Mn1 Si1 2.504742 1_555
Mn1 Si0 2.510871 1_665
Mn1 Si0 2.510871 1_566
Mn1 Si0 2.510872 1_656
Mn1 V0 2.513372 1_556
Mn1 V0 2.513372 1_655
Mn1 V0 2.513372 1_565
Mn1 Os0 2.894841 1_556
Mn1 Os0 2.894842 1_655
Mn1 Os0 2.894843 1_565
Mn1 Os1 2.903954 1_665
Mn1 Os1 2.903955 1_566
Mn1 Os1 2.903955 1_656
Mn2 Si0 2.480088 1_555
Mn2 Si1 2.518632 1_554
Mn2 Si1 2.518633 1_455
Mn2 Si1 2.518633 1_545
Mn2 V0 2.520400 1_555
Mn2 Os0 2.886086 1_554
Mn2 Os0 2.886087 1_455
Mn2 Os0 2.886088 1_545
Mn2 Os1 2.904488 1_556
Mn2 Os1 2.904490 1_655
Mn2 Os1 2.904490 1_565
Os0 V0 2.500154 1_555
Os0 Si1 2.500521 1_555
Os0 Si0 2.511785 1_556
Os0 Si0 2.511785 1_655
Os0 Si0 2.511785 1_565
Os1 Si0 2.508435 1_555
Os1 Si1 2.509653 1_445
Os1 Si1 2.509653 1_544
Os1 Si1 2.509654 1_454
Os1 V0 2.514542 1_554
Os1 V0 2.514542 1_455
Os1 V0 2.514543 1_545
