# generated using pymatgen
data_H5NF2
_symmetry_space_group_name_H-M   'P 1'
_cell_length_a   3.55133965
_cell_length_b   8.13278487
_cell_length_c   8.29853196
_cell_angle_alpha   90.00000000
_cell_angle_beta   90.00000000
_cell_angle_gamma   90.00000000
_symmetry_Int_Tables_number   1
_chemical_formula_structural   H5NF2
_chemical_formula_sum   'H20 N4 F8'
_cell_volume   239.68053506
_cell_formula_units_Z   4
loop_
 _symmetry_equiv_pos_site_id
 _symmetry_equiv_pos_as_xyz
  1  'x, y, z'
loop_
 _atom_site_type_symbol
 _atom_site_label
 _atom_site_symmetry_multiplicity
 _atom_site_fract_x
 _atom_site_fract_y
 _atom_site_fract_z
 _atom_site_occupancy
  H  H0  1  0.37576299  0.79463780  0.34165790  1
  H  H1  1  0.37576299  0.70536220  0.15834210  1
  H  H2  1  0.62423701  0.29463780  0.15834210  1
  H  H3  1  0.62423701  0.20536220  0.34165790  1
  H  H4  1  0.62423701  0.20536220  0.65834210  1
  H  H5  1  0.62423701  0.29463780  0.84165790  1
  H  H6  1  0.37576299  0.70536220  0.84165790  1
  H  H7  1  0.37576299  0.79463780  0.65834210  1
  H  H8  1  0.71104674  0.84356210  0.20655140  1
  H  H9  1  0.71104674  0.65643790  0.29344860  1
  H  H10  1  0.28895326  0.34356210  0.29344860  1
  H  H11  1  0.28895326  0.15643790  0.20655140  1
  H  H12  1  -0.00000000  -0.00000000  -0.00000000  1
  H  H13  1  -0.00000000  0.50000000  0.50000000  1
  H  H14  1  -0.00000000  -0.00000000  0.50000000  1
  H  H15  1  -0.00000000  0.50000000  -0.00000000  1
  H  H16  1  0.71104674  0.84356210  0.79344860  1
  H  H17  1  0.71104674  0.65643790  0.70655140  1
  H  H18  1  0.28895326  0.34356210  0.70655140  1
  H  H19  1  0.28895326  0.15643790  0.79344860  1
  N  N0  1  0.54317175  0.75000000  0.75000000  1
  N  N1  1  0.45682825  0.25000000  0.75000000  1
  N  N2  1  0.45682825  0.25000000  0.25000000  1
  N  N3  1  0.54317175  0.75000000  0.25000000  1
  F  F0  1  -0.00000000  0.50000000  0.36272052  1
  F  F1  1  -0.00000000  -0.00000000  0.13727948  1
  F  F2  1  -0.00000000  0.50000000  0.63727948  1
  F  F3  1  -0.00000000  -0.00000000  0.86272052  1
  F  F4  1  0.09228254  0.63428459  -0.00000000  1
  F  F5  1  0.09228254  0.86571541  0.50000000  1
  F  F6  1  0.90771746  0.13428459  0.50000000  1
  F  F7  1  0.90771746  0.36571541  -0.00000000  1
loop_
_geom_bond_atom_site_label_1
_geom_bond_atom_site_label_2
_geom_bond_distance
_geom_bond_site_symmetry_2
H0 N3 1.031408 1_555
H1 N3 1.031408 1_555
H2 N2 1.031408 1_555
H3 N2 1.031408 1_555
H4 N1 1.031408 1_555
H5 N1 1.031408 1_555
H6 N0 1.031408 1_555
H7 N0 1.031408 1_555
H8 N3 1.031715 1_555
H9 N3 1.031715 1_555
H10 N2 1.031715 1_555
H11 N2 1.031715 1_555
H16 N0 1.031715 1_555
H17 N0 1.031715 1_555
H18 N1 1.031715 1_555
H19 N1 1.031715 1_555
F0 H13 1.139218 1_555
F1 H12 1.139218 1_555
F2 H13 1.139218 1_555
F3 H12 1.139218 1_556
F4 H15 1.140221 1_555
F5 H14 1.140221 1_565
F6 H14 1.140221 1_655
F7 H15 1.140221 1_655
