# generated using pymatgen
data_Sr3Ga2(SbAs)2
_symmetry_space_group_name_H-M   'P 1'
_cell_length_a   8.89906468
_cell_length_b   8.89906466
_cell_length_c   7.01237315
_cell_angle_alpha   90.10079506
_cell_angle_beta   90.10078986
_cell_angle_gamma   75.46908395
_symmetry_Int_Tables_number   1
_chemical_formula_structural   Sr3Ga2(SbAs)2
_chemical_formula_sum   'Sr6 Ga4 Sb4 As4'
_cell_volume   537.56822389
_cell_formula_units_Z   2
loop_
 _symmetry_equiv_pos_site_id
 _symmetry_equiv_pos_as_xyz
  1  'x, y, z'
loop_
 _atom_site_type_symbol
 _atom_site_label
 _atom_site_symmetry_multiplicity
 _atom_site_fract_x
 _atom_site_fract_y
 _atom_site_fract_z
 _atom_site_occupancy
  Sr  Sr0  1  0.73950203  0.00271625  0.98130850  1
  Sr  Sr1  1  0.99728375  0.26049797  0.51869150  1
  Sr  Sr2  1  0.26049797  0.99728375  0.01869150  1
  Sr  Sr3  1  0.00271625  0.73950203  0.48130850  1
  Sr  Sr4  1  0.58942543  0.41057457  0.25000000  1
  Sr  Sr5  1  0.41057457  0.58942543  0.75000000  1
  Ga  Ga0  1  0.59106857  0.81099741  0.40487695  1
  Ga  Ga1  1  0.18900259  0.40893143  0.09512305  1
  Ga  Ga2  1  0.40893143  0.18900259  0.59512305  1
  Ga  Ga3  1  0.81099741  0.59106857  0.90487695  1
  Sb  Sb0  1  0.70742087  0.06065573  0.48470669  1
  Sb  Sb1  1  0.93934427  0.29257913  0.01529331  1
  Sb  Sb2  1  0.29257913  0.93934427  0.51529331  1
  Sb  Sb3  1  0.06065573  0.70742087  0.98470669  1
  As  As0  1  0.56917554  0.73903131  0.06535949  1
  As  As1  1  0.26096869  0.43082446  0.43464051  1
  As  As2  1  0.43082446  0.26096869  0.93464051  1
  As  As3  1  0.73903131  0.56917554  0.56535949  1
loop_
_geom_bond_atom_site_label_1
_geom_bond_atom_site_label_2
_geom_bond_distance
_geom_bond_site_symmetry_2
Ga0 Sb2 2.727922 1_555
Ga0 Sb0 2.733038 1_565
Ga1 Sb3 2.727922 1_554
Ga1 Sb1 2.733038 1_455
Ga2 Sb0 2.727922 1_555
Ga2 Sb2 2.733038 1_545
Ga3 Sb1 2.727922 1_556
Ga3 Sb3 2.733038 1_655
Sb0 Sr3 3.362354 1_645
Sb0 Sr4 3.446631 1_555
Sb0 Sr1 3.488801 1_555
Sb0 Sr0 3.521807 1_555
Sb0 Sr0 3.568143 1_554
Sb1 Sr2 3.362354 1_645
Sb1 Sr4 3.446631 1_555
Sb1 Sr0 3.488801 1_554
Sb1 Sr1 3.521806 1_554
Sb1 Sr1 3.568143 1_555
Sb2 Sr1 3.362354 1_465
Sb2 Sr5 3.446631 1_555
Sb2 Sr3 3.488801 1_555
Sb2 Sr2 3.521807 1_555
Sb2 Sr2 3.568143 1_556
Sb3 Sr0 3.362354 1_465
Sb3 Sr5 3.446631 1_555
Sb3 Sr2 3.488801 1_556
Sb3 Sr3 3.521806 1_556
Sb3 Sr3 3.568143 1_555
As0 Ga0 2.484360 1_555
As0 Ga3 2.492524 1_554
As0 Sr5 3.094593 1_554
As0 Sr2 3.125076 1_555
As0 Sr0 3.153408 1_564
As0 Sr4 3.162398 1_555
As1 Ga1 2.484360 1_555
As1 Ga2 2.492524 1_555
As1 Sr5 3.094593 1_555
As1 Sr3 3.125076 1_555
As1 Sr1 3.153408 1_455
As1 Sr4 3.162398 1_555
As2 Ga2 2.484360 1_555
As2 Ga1 2.492524 1_556
As2 Sr4 3.094593 1_556
As2 Sr0 3.125076 1_555
As2 Sr2 3.153408 1_546
As2 Sr5 3.162398 1_555
As3 Ga3 2.484360 1_555
As3 Ga0 2.492524 1_555
As3 Sr4 3.094593 1_555
As3 Sr1 3.125076 1_555
As3 Sr3 3.153408 1_655
As3 Sr5 3.162398 1_555
