# generated using pymatgen
data_NdTi3Fe(CuO4)3
_symmetry_space_group_name_H-M   'P 1'
_cell_length_a   6.49069480
_cell_length_b   6.49069480
_cell_length_c   6.49069509
_cell_angle_alpha   109.49715971
_cell_angle_beta   109.49715971
_cell_angle_gamma   109.49715239
_symmetry_Int_Tables_number   1
_chemical_formula_structural   NdTi3Fe(CuO4)3
_chemical_formula_sum   'Nd1 Ti3 Fe1 Cu3 O12'
_cell_volume   210.29742161
_cell_formula_units_Z   1
loop_
 _symmetry_equiv_pos_site_id
 _symmetry_equiv_pos_as_xyz
  1  'x, y, z'
loop_
 _atom_site_type_symbol
 _atom_site_label
 _atom_site_symmetry_multiplicity
 _atom_site_fract_x
 _atom_site_fract_y
 _atom_site_fract_z
 _atom_site_occupancy
  Nd  Nd0  1  0.00000000  0.00000000  0.00000000  1
  Ti  Ti0  1  0.00000000  0.50000000  0.00000000  1
  Ti  Ti1  1  0.00000000  0.00000000  0.50000000  1
  Ti  Ti2  1  0.50000000  0.00000000  0.00000000  1
  Fe  Fe0  1  0.50000000  0.50000000  0.50000000  1
  Cu  Cu0  1  0.50000000  0.00000000  0.50000000  1
  Cu  Cu1  1  0.50000000  0.50000000  0.00000000  1
  Cu  Cu2  1  0.00000000  0.50000000  0.50000000  1
  O  O0  1  0.47591000  0.16862400  0.29577500  1
  O  O1  1  0.30083800  0.12488800  0.82520800  1
  O  O2  1  0.87511200  0.17479200  0.69916200  1
  O  O3  1  0.16862400  0.29577500  0.47591000  1
  O  O4  1  0.70422500  0.52409000  0.83137600  1
  O  O5  1  0.82520800  0.30083800  0.12488800  1
  O  O6  1  0.17479200  0.69916200  0.87511200  1
  O  O7  1  0.29577500  0.47591000  0.16862400  1
  O  O8  1  0.83137600  0.70422500  0.52409000  1
  O  O9  1  0.12488800  0.82520800  0.30083800  1
  O  O10  1  0.69916200  0.87511200  0.17479200  1
  O  O11  1  0.52409000  0.83137600  0.70422500  1
loop_
_geom_bond_atom_site_label_1
_geom_bond_atom_site_label_2
_geom_bond_distance
_geom_bond_site_symmetry_2
Nd0 O5 2.606366 1_455
Nd0 O6 2.606366 1_544
Nd0 O9 2.606366 1_545
Nd0 O2 2.606366 1_454
Nd0 O1 2.606366 1_554
Nd0 O10 2.606366 1_445
Nd0 O0 2.609104 1_555
Nd0 O11 2.609104 1_444
Nd0 O3 2.609104 1_555
Nd0 O8 2.609104 1_444
Nd0 O7 2.609104 1_555
Nd0 O4 2.609104 1_444
Fe0 O0 2.035129 1_555
Fe0 O11 2.035129 1_555
Fe0 O7 2.035129 1_555
Fe0 O4 2.035129 1_555
Fe0 O8 2.035129 1_555
Fe0 O3 2.035129 1_555
Cu0 O11 1.980857 1_545
Cu0 O0 1.980857 1_555
Cu0 O2 1.990570 1_555
Cu0 O9 1.990570 1_545
Cu1 O4 1.980857 1_554
Cu1 O7 1.980857 1_555
Cu1 O10 1.990570 1_555
Cu1 O1 1.990570 1_554
Cu2 O8 1.980856 1_455
Cu2 O3 1.980856 1_555
Cu2 O6 1.990570 1_555
Cu2 O5 1.990570 1_455
O0 Ti2 1.954471 1_555
O1 Ti2 1.987381 1_556
O1 Ti1 1.993853 1_555
O2 Ti1 1.987381 1_655
O2 Ti0 1.993853 1_656
O3 Ti1 1.954471 1_555
O4 Ti0 1.954471 1_656
O5 Ti0 1.987381 1_655
O5 Ti2 1.993853 1_555
O6 Ti0 1.987381 1_556
O6 Ti2 1.993853 1_566
O7 Ti0 1.954471 1_555
O8 Ti1 1.954471 1_665
O9 Ti1 1.987381 1_565
O9 Ti0 1.993853 1_555
O10 Ti2 1.987381 1_565
O10 Ti1 1.993853 1_665
O11 Ti2 1.954471 1_566
