# generated using pymatgen
data_CaSn6PdRu3
_symmetry_space_group_name_H-M   'P 1'
_cell_length_a   6.93530878
_cell_length_b   6.94665563
_cell_length_c   6.93810664
_cell_angle_alpha   120.06378947
_cell_angle_beta   120.00970515
_cell_angle_gamma   89.96013111
_symmetry_Int_Tables_number   1
_chemical_formula_structural   CaSn6PdRu3
_chemical_formula_sum   'Ca1 Sn6 Pd1 Ru3'
_cell_volume   236.17601867
_cell_formula_units_Z   1
loop_
 _symmetry_equiv_pos_site_id
 _symmetry_equiv_pos_as_xyz
  1  'x, y, z'
loop_
 _atom_site_type_symbol
 _atom_site_label
 _atom_site_symmetry_multiplicity
 _atom_site_fract_x
 _atom_site_fract_y
 _atom_site_fract_z
 _atom_site_occupancy
  Ca  Ca0  1  0.00570382  0.00375746  0.00000000  1
  Sn  Sn0  1  0.88127707  0.54207797  0.00000000  1
  Sn  Sn1  1  0.53195550  0.87033944  0.00000000  1
  Sn  Sn2  1  0.46748410  0.48143379  0.36184453  1
  Sn  Sn3  1  0.49787353  0.00097481  0.48580844  1
  Sn  Sn4  1  0.01206509  0.51516636  0.51419156  1
  Sn  Sn5  1  0.10564057  0.11959026  0.63815647  1
  Pd  Pd0  1  0.59071310  0.23998407  0.00000000  1
  Ru  Ru0  1  0.24865704  0.58455311  0.00000000  1
  Ru  Ru1  1  0.74959018  0.74133545  0.34054917  1
  Ru  Ru2  1  0.40904200  0.40078728  0.65945183  1
loop_
_geom_bond_atom_site_label_1
_geom_bond_atom_site_label_2
_geom_bond_distance
_geom_bond_site_symmetry_2
Ca0 Ru1 3.306122 1_444
Ca0 Ru2 3.306128 1_555
Ca0 Pd0 3.312047 1_455
Ca0 Sn0 3.321775 1_445
Ca0 Sn2 3.346007 1_555
Ca0 Sn5 3.346008 1_554
Ca0 Ru0 3.363389 1_545
Ca0 Sn4 3.401326 1_544
Ca0 Sn3 3.401326 1_555
Ca0 Sn1 3.414428 1_445
Ca0 Sn4 3.534743 1_555
Ca0 Sn3 3.534744 1_454
Ca0 Sn2 3.754072 1_444
Ca0 Sn5 3.754073 1_555
Ca0 Sn1 3.764931 1_545
Ca0 Sn0 3.837217 1_455
Pd0 Sn1 2.600208 1_545
Pd0 Sn3 2.769036 1_554
Pd0 Sn4 2.769036 1_655
Pd0 Sn5 2.787752 1_554
Pd0 Sn2 2.787757 1_555
Pd0 Ru2 2.842974 1_554
Pd0 Ru1 2.842974 1_555
Pd0 Sn0 2.910429 1_555
Ru0 Sn0 2.565125 1_455
Ru0 Sn5 2.666115 1_554
Ru0 Sn2 2.666120 1_555
Ru0 Sn4 2.669582 1_554
Ru0 Sn3 2.669582 1_565
Ru0 Sn1 2.794096 1_555
Ru0 Ru2 2.838029 1_554
Ru0 Ru1 2.838030 1_555
Ru1 Sn5 2.595797 1_665
Ru1 Sn4 2.632919 1_655
Ru1 Sn0 2.685643 1_555
Ru1 Sn1 2.686296 1_555
Ru1 Sn3 2.692701 1_565
Ru1 Sn2 2.769598 1_555
Ru2 Sn2 2.595789 1_555
Ru2 Sn3 2.632921 1_555
Ru2 Sn0 2.685638 1_556
Ru2 Sn1 2.686291 1_556
Ru2 Sn4 2.692704 1_555
Ru2 Sn5 2.769598 1_555
