# generated using pymatgen
data_BaCd4Rh
_symmetry_space_group_name_H-M   'P 1'
_cell_length_a   8.73792723
_cell_length_b   4.41984869
_cell_length_c   7.77102740
_cell_angle_alpha   90.00000000
_cell_angle_beta   90.00000000
_cell_angle_gamma   90.00000000
_symmetry_Int_Tables_number   1
_chemical_formula_structural   BaCd4Rh
_chemical_formula_sum   'Ba2 Cd8 Rh2'
_cell_volume   300.11953555
_cell_formula_units_Z   2
loop_
 _symmetry_equiv_pos_site_id
 _symmetry_equiv_pos_as_xyz
  1  'x, y, z'
loop_
 _atom_site_type_symbol
 _atom_site_label
 _atom_site_symmetry_multiplicity
 _atom_site_fract_x
 _atom_site_fract_y
 _atom_site_fract_z
 _atom_site_occupancy
  Ba  Ba0  1  0.75000000  0.00000000  0.40594853  1
  Ba  Ba1  1  0.25000000  0.00000000  0.59405147  1
  Cd  Cd0  1  0.00000000  0.00000000  0.00000000  1
  Cd  Cd1  1  0.50000100  0.00000000  0.00000000  1
  Cd  Cd2  1  0.75000000  0.50000100  0.03683089  1
  Cd  Cd3  1  0.06243378  0.50000100  0.28975166  1
  Cd  Cd4  1  0.43756622  0.50000100  0.28975166  1
  Cd  Cd5  1  0.56243378  0.50000100  0.71024934  1
  Cd  Cd6  1  0.93756622  0.50000100  0.71024934  1
  Cd  Cd7  1  0.25000000  0.50000100  0.96317011  1
  Rh  Rh0  1  0.25000000  0.00000000  0.20115207  1
  Rh  Rh1  1  0.75000000  0.00000000  0.79884893  1
loop_
_geom_bond_atom_site_label_1
_geom_bond_atom_site_label_2
_geom_bond_distance
_geom_bond_site_symmetry_2
Ba0 Rh1 3.053240 1_555
Ba0 Cd2 3.620994 1_545
Ba0 Cd2 3.620999 1_555
Ba1 Rh0 3.053232 1_555
Ba1 Cd7 3.621000 1_545
Ba1 Cd7 3.621006 1_555
Cd0 Rh1 2.686150 1_454
Cd0 Rh0 2.686154 1_555
Cd0 Cd7 3.120516 1_544
Cd0 Cd2 3.120517 1_445
Cd0 Cd7 3.120522 1_554
Cd0 Cd2 3.120523 1_455
Cd1 Rh1 2.686143 1_554
Cd1 Rh0 2.686161 1_555
Cd1 Cd2 3.120511 1_545
Cd1 Cd2 3.120517 1_555
Cd1 Cd7 3.120522 1_544
Cd1 Cd7 3.120528 1_554
Cd2 Rh1 2.881648 1_564
Cd2 Rh1 2.881655 1_554
Cd2 Cd6 3.021081 1_554
Cd2 Cd5 3.021081 1_554
Cd2 Cd3 3.363932 1_655
Cd2 Cd4 3.363932 1_555
Cd3 Rh0 2.836180 1_565
Cd3 Rh0 2.836187 1_555
Cd3 Cd7 3.021081 1_554
Cd4 Rh0 2.836180 1_565
Cd4 Rh0 2.836187 1_555
Cd4 Cd7 3.021081 1_554
Cd5 Rh1 2.836180 1_565
Cd5 Rh1 2.836187 1_555
Cd5 Cd7 3.363932 1_555
Cd6 Rh1 2.836180 1_565
Cd6 Rh1 2.836187 1_555
Cd6 Cd7 3.363932 1_655
Cd7 Rh0 2.881648 1_566
Cd7 Rh0 2.881655 1_556
