# generated using pymatgen
data_K6YAlSb4
_symmetry_space_group_name_H-M   'P 1'
_cell_length_a   9.69099753
_cell_length_b   9.69099786
_cell_length_c   9.69099811
_cell_angle_alpha   128.06559152
_cell_angle_beta   69.88266361
_cell_angle_gamma   136.66724849
_symmetry_Int_Tables_number   1
_chemical_formula_structural   K6YAlSb4
_chemical_formula_sum   'K6 Y1 Al1 Sb4'
_cell_volume   482.43224239
_cell_formula_units_Z   1
loop_
 _symmetry_equiv_pos_site_id
 _symmetry_equiv_pos_as_xyz
  1  'x, y, z'
loop_
 _atom_site_type_symbol
 _atom_site_label
 _atom_site_symmetry_multiplicity
 _atom_site_fract_x
 _atom_site_fract_y
 _atom_site_fract_z
 _atom_site_occupancy
  K  K0  1  0.80477468  0.18185827  0.00496160  1
  K  K1  1  0.69522632  0.70018791  0.37708259  1
  K  K2  1  0.75000000  0.25000000  0.50000000  1
  K  K3  1  0.25000000  0.75000000  0.49999900  1
  K  K4  1  0.32310432  0.31814273  0.62291641  1
  K  K5  1  0.17689568  0.79981309  0.99503840  1
  Y  Y0  1  0.25000000  0.25000000  0.00000000  1
  Al  Al0  1  0.75000000  0.75000000  0.00000000  1
  Sb  Sb0  1  0.42142401  0.71454833  0.09304644  1
  Sb  Sb1  1  0.07857499  0.17162143  0.29312333  1
  Sb  Sb2  1  0.87849711  0.78545067  0.70687767  1
  Sb  Sb3  1  0.62150189  0.32837857  0.90695256  1
loop_
_geom_bond_atom_site_label_1
_geom_bond_atom_site_label_2
_geom_bond_distance
_geom_bond_site_symmetry_2
K0 Sb2 3.535766 1_544
K0 Sb3 3.544734 1_554
K0 Sb0 3.626234 1_545
K0 Sb0 4.035616 1_655
K1 Sb3 3.535766 1_554
K1 Sb2 3.544746 1_555
K1 Sb1 3.626221 1_665
K1 Sb1 4.035629 1_555
K2 Sb3 3.461915 1_555
K2 Sb2 3.461918 1_555
K2 Sb1 3.461924 1_655
K2 Sb0 3.461926 1_545
K3 Sb0 3.617169 1_555
K3 Sb3 3.617179 1_565
K3 Sb1 3.617181 1_555
K3 Sb2 3.617185 1_455
K4 Sb0 3.535767 1_556
K4 Sb1 3.544728 1_555
K4 Sb2 3.626220 1_555
K4 Sb2 4.035641 1_445
K5 Sb1 3.535759 1_566
K5 Sb0 3.544727 1_556
K5 Sb3 3.626227 1_455
K5 Sb3 4.035629 1_565
Al0 Sb2 2.808156 1_554
Al0 Sb3 2.808166 1_554
Al0 Sb1 2.808170 1_665
Al0 Sb0 2.808179 1_555
Sb0 Y0 2.997483 1_555
Sb1 Y0 2.997479 1_555
Sb2 Y0 2.997480 1_666
Sb3 Y0 2.997480 1_556
