# generated using pymatgen
data_HfNi2
_symmetry_space_group_name_H-M   'P 1'
_cell_length_a   4.84529521
_cell_length_b   4.84529477
_cell_length_c   4.84529437
_cell_angle_alpha   59.99999587
_cell_angle_beta   59.99999883
_cell_angle_gamma   60.00000016
_symmetry_Int_Tables_number   1
_chemical_formula_structural   HfNi2
_chemical_formula_sum   'Hf2 Ni4'
_cell_volume   80.43509858
_cell_formula_units_Z   2
loop_
 _symmetry_equiv_pos_site_id
 _symmetry_equiv_pos_as_xyz
  1  'x, y, z'
loop_
 _atom_site_type_symbol
 _atom_site_label
 _atom_site_symmetry_multiplicity
 _atom_site_fract_x
 _atom_site_fract_y
 _atom_site_fract_z
 _atom_site_occupancy
  Hf  Hf0  1  0.12500000  0.12500000  0.12500000  1
  Hf  Hf1  1  0.87500000  0.87500000  0.87500000  1
  Ni  Ni0  1  0.50000000  -0.00000000  0.50000000  1
  Ni  Ni1  1  0.00000000  0.50000000  0.50000000  1
  Ni  Ni2  1  0.50000000  0.50000000  0.50000000  1
  Ni  Ni3  1  0.50000000  0.50000000  0.00000000  1
loop_
_geom_bond_atom_site_label_1
_geom_bond_atom_site_label_2
_geom_bond_distance
_geom_bond_site_symmetry_2
Hf0 Ni1 2.840806 1_554
Hf0 Ni0 2.840806 1_554
Hf0 Ni2 2.840806 1_554
Hf0 Ni1 2.840806 1_545
Hf0 Ni2 2.840806 1_545
Hf0 Ni1 2.840806 1_555
Hf0 Ni0 2.840806 1_555
Hf0 Ni3 2.840806 1_545
Hf0 Ni2 2.840806 1_455
Hf0 Ni3 2.840806 1_555
Hf0 Ni0 2.840806 1_455
Hf0 Ni3 2.840806 1_455
Hf0 Hf1 2.967125 1_445
Hf0 Hf1 2.967125 1_454
Hf0 Hf1 2.967125 1_444
Hf0 Hf1 2.967125 1_544
Hf1 Ni1 2.840806 1_656
Hf1 Ni0 2.840806 1_566
Hf1 Ni2 2.840806 1_556
Hf1 Ni1 2.840806 1_665
Hf1 Ni2 2.840806 1_565
Hf1 Ni1 2.840806 1_655
Hf1 Ni0 2.840806 1_565
Hf1 Ni3 2.840806 1_566
Hf1 Ni2 2.840806 1_655
Hf1 Ni3 2.840806 1_556
Hf1 Ni0 2.840806 1_665
Hf1 Ni3 2.840806 1_656
Ni0 Ni3 2.422647 1_546
Ni0 Ni3 2.422647 1_555
Ni0 Ni2 2.422647 1_555
Ni0 Ni2 2.422647 1_545
Ni0 Ni1 2.422648 1_645
Ni0 Ni1 2.422648 1_555
Ni1 Ni3 2.422647 1_456
Ni1 Ni3 2.422647 1_555
Ni1 Ni2 2.422648 1_455
Ni1 Ni2 2.422648 1_555
Ni2 Ni3 2.422647 1_555
Ni2 Ni3 2.422647 1_556
