# generated using pymatgen
data_CeHg2
_symmetry_space_group_name_H-M   'P 1'
_cell_length_a   10.12132062
_cell_length_b   10.12132443
_cell_length_c   6.79374874
_cell_angle_alpha   90.00000000
_cell_angle_beta   90.00000000
_cell_angle_gamma   119.99999440
_symmetry_Int_Tables_number   1
_chemical_formula_structural   CeHg2
_chemical_formula_sum   'Ce8 Hg16'
_cell_volume   602.71869921
_cell_formula_units_Z   8
loop_
 _symmetry_equiv_pos_site_id
 _symmetry_equiv_pos_as_xyz
  1  'x, y, z'
loop_
 _atom_site_type_symbol
 _atom_site_label
 _atom_site_symmetry_multiplicity
 _atom_site_fract_x
 _atom_site_fract_y
 _atom_site_fract_z
 _atom_site_occupancy
  Ce  Ce0_0  1  0.00000000  0.00000000  0.00000000  1
  Ce  Ce0_1  1  0.00000000  0.00000000  0.50000000  1
  Ce  Ce0_2  1  0.00000000  0.50000000  0.00000000  1
  Ce  Ce0_3  1  0.00000000  0.50000000  0.50000000  1
  Ce  Ce0_4  1  0.50000000  0.00000000  0.00000000  1
  Ce  Ce0_5  1  0.50000000  0.00000000  0.50000000  1
  Ce  Ce0_6  1  0.50000000  0.50000000  0.00000000  1
  Ce  Ce0_7  1  0.50000000  0.50000000  0.50000000  1
  Hg  Hg0_0  1  0.16666650  0.33333350  0.25000000  1
  Hg  Hg0_1  1  0.16666650  0.33333350  0.75000000  1
  Hg  Hg0_2  1  0.16666650  0.83333350  0.25000000  1
  Hg  Hg0_3  1  0.16666650  0.83333350  0.75000000  1
  Hg  Hg0_4  1  0.66666650  0.33333350  0.25000000  1
  Hg  Hg0_5  1  0.66666650  0.33333350  0.75000000  1
  Hg  Hg0_6  1  0.66666650  0.83333350  0.25000000  1
  Hg  Hg0_7  1  0.66666650  0.83333350  0.75000000  1
  Hg  Hg1_0  1  0.33333350  0.16666650  0.25000000  1
  Hg  Hg1_1  1  0.33333350  0.16666650  0.75000000  1
  Hg  Hg1_2  1  0.33333350  0.66666650  0.25000000  1
  Hg  Hg1_3  1  0.33333350  0.66666650  0.75000000  1
  Hg  Hg1_4  1  0.83333350  0.16666650  0.25000000  1
  Hg  Hg1_5  1  0.83333350  0.16666650  0.75000000  1
  Hg  Hg1_6  1  0.83333350  0.66666650  0.25000000  1
  Hg  Hg1_7  1  0.83333350  0.66666650  0.75000000  1
loop_
_geom_bond_atom_site_label_1
_geom_bond_atom_site_label_2
_geom_bond_distance
_geom_bond_site_symmetry_2
Ce0_0 Hg0_3 3.379561 1_544
Ce0_0 Hg1_5 3.379561 1_454
Ce0_0 Hg1_4 3.379561 1_455
Ce0_0 Hg0_2 3.379561 1_545
Ce0_0 Hg0_7 3.379565 1_444
Ce0_0 Hg0_6 3.379565 1_445
Ce0_0 Hg1_1 3.379565 1_554
Ce0_0 Hg1_0 3.379565 1_555
Ce0_0 Hg1_7 3.379566 1_444
Ce0_0 Hg0_1 3.379566 1_554
Ce0_0 Hg1_6 3.379566 1_445
Ce0_0 Hg0_0 3.379566 1_555
Ce0_0 Ce0_1 3.396874 1_555
Ce0_0 Ce0_1 3.396874 1_554
Ce0_1 Hg1_4 3.379561 1_455
Ce0_1 Hg0_3 3.379561 1_545
Ce0_1 Hg0_2 3.379561 1_545
Ce0_1 Hg1_5 3.379561 1_455
Ce0_1 Hg0_7 3.379565 1_445
Ce0_1 Hg0_6 3.379565 1_445
Ce0_1 Hg1_0 3.379565 1_555
Ce0_1 Hg1_1 3.379565 1_555
Ce0_1 Hg1_6 3.379566 1_445
Ce0_1 Hg0_0 3.379566 1_555
Ce0_1 Hg1_7 3.379566 1_445
Ce0_1 Hg0_1 3.379566 1_555
Ce0_2 Hg1_7 3.379561 1_454
Ce0_2 Hg1_6 3.379561 1_455
Ce0_2 Hg0_0 3.379561 1_555
Ce0_2 Hg0_1 3.379561 1_554
Ce0_2 Hg0_5 3.379565 1_454
Ce0_2 Hg0_4 3.379565 1_455
Ce0_2 Hg1_3 3.379565 1_554
Ce0_2 Hg1_2 3.379565 1_555
Ce0_2 Hg0_2 3.379566 1_555
Ce0_2 Hg0_3 3.379566 1_554
Ce0_2 Hg1_5 3.379566 1_454
Ce0_2 Hg1_4 3.379566 1_455
Ce0_2 Ce0_3 3.396874 1_554
Ce0_2 Ce0_3 3.396874 1_555
Ce0_3 Hg1_6 3.379561 1_455
Ce0_3 Hg1_7 3.379561 1_455
Ce0_3 Hg0_0 3.379561 1_555
Ce0_3 Hg0_1 3.379561 1_555
Ce0_3 Hg0_4 3.379565 1_455
Ce0_3 Hg0_5 3.379565 1_455
Ce0_3 Hg1_2 3.379565 1_555
Ce0_3 Hg1_3 3.379565 1_555
Ce0_3 Hg0_2 3.379566 1_555
Ce0_3 Hg0_3 3.379566 1_555
Ce0_3 Hg1_4 3.379566 1_455
Ce0_3 Hg1_5 3.379566 1_455
Ce0_4 Hg1_1 3.379561 1_554
Ce0_4 Hg1_0 3.379561 1_555
Ce0_4 Hg0_7 3.379561 1_544
Ce0_4 Hg0_6 3.379561 1_545
Ce0_4 Hg0_3 3.379565 1_544
Ce0_4 Hg0_2 3.379565 1_545
Ce0_4 Hg1_5 3.379565 1_554
Ce0_4 Hg1_4 3.379565 1_555
Ce0_4 Hg1_2 3.379566 1_545
Ce0_4 Hg1_3 3.379566 1_544
Ce0_4 Hg0_4 3.379566 1_555
Ce0_4 Hg0_5 3.379566 1_554
Ce0_4 Ce0_5 3.396874 1_555
Ce0_4 Ce0_5 3.396874 1_554
Ce0_5 Hg1_0 3.379561 1_555
Ce0_5 Hg1_1 3.379561 1_555
Ce0_5 Hg0_6 3.379561 1_545
Ce0_5 Hg0_7 3.379561 1_545
Ce0_5 Hg0_3 3.379565 1_545
Ce0_5 Hg0_2 3.379565 1_545
Ce0_5 Hg1_4 3.379565 1_555
Ce0_5 Hg1_5 3.379565 1_555
Ce0_5 Hg1_2 3.379566 1_545
Ce0_5 Hg1_3 3.379566 1_545
Ce0_5 Hg0_4 3.379566 1_555
Ce0_5 Hg0_5 3.379566 1_555
Ce0_6 Hg1_3 3.379561 1_554
Ce0_6 Hg1_2 3.379561 1_555
Ce0_6 Hg0_5 3.379561 1_554
Ce0_6 Hg0_4 3.379561 1_555
Ce0_6 Hg1_7 3.379565 1_554
Ce0_6 Hg1_6 3.379565 1_555
Ce0_6 Hg0_1 3.379565 1_554
Ce0_6 Hg0_0 3.379565 1_555
Ce0_6 Hg0_7 3.379566 1_554
Ce0_6 Hg0_6 3.379566 1_555
Ce0_6 Hg1_1 3.379566 1_554
Ce0_6 Hg1_0 3.379566 1_555
Ce0_6 Ce0_7 3.396874 1_555
Ce0_6 Ce0_7 3.396874 1_554
Ce0_7 Hg1_2 3.379561 1_555
Ce0_7 Hg1_3 3.379561 1_555
Ce0_7 Hg0_4 3.379561 1_555
Ce0_7 Hg0_5 3.379561 1_555
Ce0_7 Hg1_7 3.379565 1_555
Ce0_7 Hg1_6 3.379565 1_555
Ce0_7 Hg0_0 3.379565 1_555
Ce0_7 Hg0_1 3.379565 1_555
Ce0_7 Hg0_6 3.379566 1_555
Ce0_7 Hg0_7 3.379566 1_555
Ce0_7 Hg1_1 3.379566 1_555
Ce0_7 Hg1_0 3.379566 1_555
Hg0_0 Hg1_4 2.921771 1_455
Hg0_0 Hg1_2 2.921772 1_555
Hg0_0 Hg1_0 2.921780 1_555
Hg0_1 Hg1_5 2.921771 1_455
Hg0_1 Hg1_3 2.921772 1_555
Hg0_1 Hg1_1 2.921780 1_555
Hg0_2 Hg1_6 2.921771 1_455
Hg0_2 Hg1_0 2.921772 1_565
Hg0_2 Hg1_2 2.921780 1_555
Hg0_3 Hg1_7 2.921771 1_455
Hg0_3 Hg1_1 2.921772 1_565
Hg0_3 Hg1_3 2.921780 1_555
Hg0_4 Hg1_0 2.921771 1_555
Hg0_4 Hg1_6 2.921772 1_555
Hg0_4 Hg1_4 2.921780 1_555
Hg0_5 Hg1_1 2.921771 1_555
Hg0_5 Hg1_7 2.921772 1_555
Hg0_5 Hg1_5 2.921780 1_555
Hg0_6 Hg1_2 2.921771 1_555
Hg0_6 Hg1_4 2.921772 1_565
Hg0_6 Hg1_6 2.921780 1_555
Hg0_7 Hg1_3 2.921771 1_555
Hg0_7 Hg1_5 2.921772 1_565
Hg0_7 Hg1_7 2.921780 1_555
