# generated using pymatgen
data_MgSnIrRu
_symmetry_space_group_name_H-M   'P 1'
_cell_length_a   4.45016652
_cell_length_b   4.45016621
_cell_length_c   4.45016702
_cell_angle_alpha   59.99999399
_cell_angle_beta   59.99999628
_cell_angle_gamma   59.99999940
_symmetry_Int_Tables_number   1
_chemical_formula_structural   MgSnIrRu
_chemical_formula_sum   'Mg1 Sn1 Ir1 Ru1'
_cell_volume   62.31803812
_cell_formula_units_Z   1
loop_
 _symmetry_equiv_pos_site_id
 _symmetry_equiv_pos_as_xyz
  1  'x, y, z'
loop_
 _atom_site_type_symbol
 _atom_site_label
 _atom_site_symmetry_multiplicity
 _atom_site_fract_x
 _atom_site_fract_y
 _atom_site_fract_z
 _atom_site_occupancy
  Mg  Mg0  1  0.50000000  0.50000000  0.50000000  1
  Sn  Sn0  1  0.00000000  0.00000000  0.00000000  1
  Ir  Ir0  1  0.75000000  0.75000000  0.75000000  1
  Ru  Ru0  1  0.25000000  0.25000000  0.25000000  1
loop_
_geom_bond_atom_site_label_1
_geom_bond_atom_site_label_2
_geom_bond_distance
_geom_bond_site_symmetry_2
Mg0 Ru0 2.725159 1_565
Mg0 Ru0 2.725159 1_655
Mg0 Ru0 2.725159 1_555
Mg0 Ru0 2.725159 1_556
Ir0 Sn0 2.725159 1_656
Ir0 Mg0 2.725159 1_565
Ir0 Mg0 2.725159 1_655
Ir0 Sn0 2.725159 1_566
Ir0 Mg0 2.725159 1_555
Ir0 Sn0 2.725159 1_666
Ir0 Mg0 2.725159 1_556
Ir0 Sn0 2.725159 1_665
Ru0 Sn0 2.725159 1_565
Ru0 Sn0 2.725159 1_655
Ru0 Sn0 2.725159 1_555
Ru0 Sn0 2.725159 1_556
