# generated using pymatgen
data_FePdPt4
_symmetry_space_group_name_H-M   'P 1'
_cell_length_a   6.13749497
_cell_length_b   6.13749551
_cell_length_c   3.93591702
_cell_angle_alpha   90.00000000
_cell_angle_beta   90.00000000
_cell_angle_gamma   143.07590362
_symmetry_Int_Tables_number   1
_chemical_formula_structural   FePdPt4
_chemical_formula_sum   'Fe1 Pd1 Pt4'
_cell_volume   89.06903373
_cell_formula_units_Z   1
loop_
 _symmetry_equiv_pos_site_id
 _symmetry_equiv_pos_as_xyz
  1  'x, y, z'
loop_
 _atom_site_type_symbol
 _atom_site_label
 _atom_site_symmetry_multiplicity
 _atom_site_fract_x
 _atom_site_fract_y
 _atom_site_fract_z
 _atom_site_occupancy
  Fe  Fe0  1  0.99876924  0.00123076  0.00000000  1
  Pd  Pd0  1  0.66090667  0.33909533  0.00000000  1
  Pt  Pt0  1  0.33969989  0.66030211  0.00000000  1
  Pt  Pt1  1  0.83586711  0.16413489  0.50000100  1
  Pt  Pt2  1  0.50069148  0.49931052  0.50000100  1
  Pt  Pt3  1  0.16407060  0.83593140  0.50000100  1
loop_
_geom_bond_atom_site_label_1
_geom_bond_atom_site_label_2
_geom_bond_distance
_geom_bond_site_symmetry_2
Fe0 Pt0 2.684738 1_545
Fe0 Pt0 2.684744 1_655
Fe0 Pd0 2.709489 1_545
Fe0 Pd0 2.709494 1_655
Fe0 Pt1 2.733202 1_554
Fe0 Pt1 2.733208 1_555
Fe0 Pt3 2.752645 1_644
Fe0 Pt3 2.752650 1_645
Fe0 Pt2 2.766028 1_544
Fe0 Pt2 2.766034 1_654
Fe0 Pt2 2.766034 1_545
Fe0 Pt2 2.766039 1_655
Pd0 Pt2 2.711577 1_554
Pd0 Pt2 2.711583 1_555
Pd0 Pt3 2.766186 1_654
Pd0 Pt3 2.766186 1_544
Pd0 Pt3 2.766191 1_655
Pd0 Pt3 2.766191 1_545
Pd0 Pt1 2.832428 1_554
Pd0 Pt1 2.832434 1_555
Pd0 Pt0 2.848015 1_655
Pd0 Pt0 2.848016 1_545
Pt0 Pt2 2.717804 1_554
Pt0 Pt2 2.717810 1_555
Pt0 Pt1 2.766300 1_454
Pt0 Pt1 2.766300 1_564
Pt0 Pt1 2.766306 1_455
Pt0 Pt1 2.766306 1_565
Pt0 Pt3 2.838034 1_554
Pt0 Pt3 2.838040 1_555
Pt1 Pt2 2.731389 1_655
Pt1 Pt2 2.731389 1_545
Pt1 Pt3 2.789024 1_545
Pt1 Pt3 2.789024 1_655
Pt2 Pt3 2.719592 1_655
Pt2 Pt3 2.719593 1_545
