# generated using pymatgen
data_Zr3ScMn8
_symmetry_space_group_name_H-M   'P 1'
_cell_length_a   8.73517699
_cell_length_b   8.73517619
_cell_length_c   8.73517648
_cell_angle_alpha   35.27514014
_cell_angle_beta   35.27515074
_cell_angle_gamma   35.27514160
_symmetry_Int_Tables_number   1
_chemical_formula_structural   Zr3ScMn8
_chemical_formula_sum   'Zr3 Sc1 Mn8'
_cell_volume   198.57411885
_cell_formula_units_Z   1
loop_
 _symmetry_equiv_pos_site_id
 _symmetry_equiv_pos_as_xyz
  1  'x, y, z'
loop_
 _atom_site_type_symbol
 _atom_site_label
 _atom_site_symmetry_multiplicity
 _atom_site_fract_x
 _atom_site_fract_y
 _atom_site_fract_z
 _atom_site_occupancy
  Zr  Zr0  1  0.62525611  0.62525611  0.62525611  1
  Zr  Zr1  1  0.00021018  0.00021018  0.00021018  1
  Zr  Zr2  1  0.50038122  0.50038122  0.50038122  1
  Sc  Sc0  1  0.12530360  0.12530360  0.12530360  1
  Mn  Mn0  1  0.56235769  0.06138067  0.56235769  1
  Mn  Mn1  1  0.06258825  0.56283113  0.06258825  1
  Mn  Mn2  1  0.06138067  0.56235769  0.56235769  1
  Mn  Mn3  1  0.56283113  0.06258825  0.06258825  1
  Mn  Mn4  1  0.81233042  0.81233042  0.81233042  1
  Mn  Mn5  1  0.31241478  0.31241478  0.31241478  1
  Mn  Mn6  1  0.56235769  0.56235769  0.06138067  1
  Mn  Mn7  1  0.06258825  0.06258825  0.56283113  1
loop_
_geom_bond_atom_site_label_1
_geom_bond_atom_site_label_2
_geom_bond_distance
_geom_bond_site_symmetry_2
Zr0 Zr2 3.065593 1_555
Zr0 Zr1 3.222439 1_656
Zr0 Zr1 3.222440 1_665
Zr0 Zr1 3.222440 1_566
Sc0 Zr1 3.070957 1_555
Sc0 Zr2 3.223402 1_545
Sc0 Zr2 3.223403 1_554
Sc0 Zr2 3.223403 1_455
Mn0 Mn5 2.547745 1_555
Mn0 Mn4 2.557565 1_545
Mn0 Mn6 2.641542 1_546
Mn0 Mn2 2.641542 1_645
Mn0 Mn6 2.651885 1_555
Mn0 Mn2 2.651885 1_555
Mn0 Zr0 2.962210 1_545
Mn0 Zr2 2.998432 1_555
Mn0 Zr1 3.050978 1_655
Mn0 Zr1 3.050979 1_556
Mn0 Sc0 3.068838 1_556
Mn0 Sc0 3.068838 1_655
Mn1 Mn5 2.548918 1_555
Mn1 Mn4 2.559699 1_454
Mn1 Mn7 2.645428 1_564
Mn1 Mn3 2.645428 1_465
Mn1 Mn7 2.647999 1_555
Mn1 Mn3 2.647999 1_555
Mn1 Sc0 2.976543 1_555
Mn1 Zr1 2.979476 1_565
Mn1 Zr2 3.056686 1_554
Mn1 Zr2 3.056686 1_455
Mn1 Zr0 3.060363 1_455
Mn1 Zr0 3.060363 1_554
Mn2 Mn5 2.547745 1_555
Mn2 Mn4 2.557565 1_455
Mn2 Mn6 2.641543 1_456
Mn2 Mn6 2.651886 1_555
Mn2 Zr0 2.962211 1_455
Mn2 Zr2 2.998432 1_555
Mn2 Zr1 3.050978 1_556
Mn2 Zr1 3.050978 1_565
Mn2 Sc0 3.068837 1_565
Mn2 Sc0 3.068837 1_556
Mn3 Mn5 2.548918 1_555
Mn3 Mn4 2.559699 1_544
Mn3 Mn7 2.645429 1_654
Mn3 Mn7 2.648000 1_555
Mn3 Sc0 2.976544 1_555
Mn3 Zr1 2.979477 1_655
Mn3 Zr2 3.056685 1_545
Mn3 Zr2 3.056685 1_554
Mn3 Zr0 3.060362 1_554
Mn3 Zr0 3.060362 1_545
Mn4 Mn6 2.557565 1_556
Mn4 Mn7 2.559700 1_665
Mn4 Sc0 3.096764 1_656
Mn4 Sc0 3.096765 1_665
Mn4 Sc0 3.096765 1_566
Mn4 Zr2 3.100921 1_565
Mn4 Zr2 3.100922 1_556
Mn4 Zr2 3.100922 1_655
Mn5 Mn6 2.547746 1_555
Mn5 Mn7 2.548918 1_555
Mn5 Zr0 3.097288 1_545
Mn5 Zr0 3.097289 1_554
Mn5 Zr0 3.097289 1_455
Mn5 Zr1 3.099866 1_565
Mn5 Zr1 3.099866 1_556
Mn5 Zr1 3.099867 1_655
Mn6 Zr0 2.962210 1_554
Mn6 Zr2 2.998432 1_555
Mn6 Zr1 3.050978 1_655
Mn6 Zr1 3.050978 1_565
Mn6 Sc0 3.068837 1_565
Mn6 Sc0 3.068837 1_655
Mn7 Sc0 2.976543 1_555
Mn7 Zr1 2.979477 1_556
Mn7 Zr2 3.056685 1_545
Mn7 Zr2 3.056685 1_455
Mn7 Zr0 3.060362 1_455
Mn7 Zr0 3.060363 1_545
