# generated using pymatgen
data_K6InSe4F
_symmetry_space_group_name_H-M   'P 1'
_cell_length_a   10.61661366
_cell_length_b   10.61662872
_cell_length_c   7.46803883
_cell_angle_alpha   90.00000000
_cell_angle_beta   90.00000000
_cell_angle_gamma   119.99072628
_symmetry_Int_Tables_number   1
_chemical_formula_structural   K6InSe4F
_chemical_formula_sum   'K12 In2 Se8 F2'
_cell_volume   729.03842448
_cell_formula_units_Z   2
loop_
 _symmetry_equiv_pos_site_id
 _symmetry_equiv_pos_as_xyz
  1  'x, y, z'
loop_
 _atom_site_type_symbol
 _atom_site_label
 _atom_site_symmetry_multiplicity
 _atom_site_fract_x
 _atom_site_fract_y
 _atom_site_fract_z
 _atom_site_occupancy
  K  K0  1  0.11149307  0.88850393  0.50663430  1
  K  K1  1  0.77701534  0.88850691  0.50656742  1
  K  K2  1  0.95211767  0.47605693  0.32146265  1
  K  K3  1  0.52396280  0.47603820  0.32149362  1
  K  K4  1  0.88850891  0.77702034  0.00657442  1
  K  K5  1  0.22298466  0.11149309  0.00656742  1
  K  K6  1  0.52394307  0.04788533  0.32145565  1
  K  K7  1  0.11149109  0.22297966  0.50657442  1
  K  K8  1  0.88850693  0.11149607  0.00663430  1
  K  K9  1  0.04788233  0.52394307  0.82146265  1
  K  K10  1  0.47605693  0.95211467  0.82145565  1
  K  K11  1  0.47603720  0.52396180  0.82149362  1
  In  In0  1  0.66668318  0.33331582  0.71275579  1
  In  In1  1  0.33331682  0.66668418  0.21275579  1
  Se  Se0  1  0.39799108  0.19899607  0.60469791  1
  Se  Se1  1  0.60200892  0.80100393  0.10469791  1
  Se  Se2  1  0.66670280  0.33329720  0.05666067  1
  Se  Se3  1  0.80100293  0.60200792  0.60469891  1
  Se  Se4  1  0.19899707  0.39799208  0.10469891  1
  Se  Se5  1  0.33329720  0.66670280  0.55666067  1
  Se  Se6  1  0.19898341  0.80101759  0.10463414  1
  Se  Se7  1  0.80101659  0.19898241  0.60463414  1
  F  F0  1  0.99999768  0.00000232  0.27296551  1
  F  F1  1  0.00000232  0.99999768  0.77296551  1
loop_
_geom_bond_atom_site_label_1
_geom_bond_atom_site_label_2
_geom_bond_distance
_geom_bond_site_symmetry_2
K0 Se3 3.260414 1_455
K0 Se0 3.260433 1_565
K0 Se6 3.406003 1_555
K1 Se7 3.259842 1_565
K1 Se3 3.260057 1_555
K1 Se1 3.405378 1_555
K2 Se2 3.286078 1_555
K2 Se3 3.313717 1_555
K2 Se7 3.313754 1_555
K2 Se4 3.514089 1_655
K2 Se6 3.514830 1_655
K3 Se2 3.286410 1_555
K3 Se3 3.313630 1_555
K3 Se0 3.313642 1_555
K3 Se4 3.514642 1_555
K3 Se1 3.514650 1_555
K4 Se6 3.259833 1_655
K4 Se1 3.260027 1_555
K4 Se3 3.405445 1_554
K5 Se6 3.259842 1_545
K5 Se4 3.260057 1_555
K5 Se0 3.405378 1_554
K6 Se2 3.286027 1_555
K6 Se0 3.313723 1_555
K6 Se7 3.313776 1_555
K6 Se1 3.514095 1_545
K6 Se6 3.514803 1_545
K7 Se7 3.259833 1_455
K7 Se0 3.260027 1_555
K7 Se4 3.405445 1_555
K8 Se4 3.260414 1_655
K8 Se1 3.260433 1_545
K8 Se7 3.406003 1_554
K9 Se5 3.286078 1_555
K9 Se4 3.313717 1_556
K9 Se6 3.313754 1_556
K9 Se3 3.514089 1_455
K9 Se7 3.514830 1_455
K10 Se5 3.286027 1_555
K10 Se1 3.313723 1_556
K10 Se6 3.313776 1_556
K10 Se0 3.514095 1_565
K10 Se7 3.514803 1_565
K11 Se5 3.286410 1_555
K11 Se4 3.313630 1_556
K11 Se1 3.313642 1_556
K11 Se3 3.514642 1_555
K11 Se0 3.514650 1_555
In0 Se2 2.568295 1_556
In0 Se7 2.598706 1_555
In0 Se0 2.599106 1_555
In0 Se3 2.599107 1_555
In1 Se5 2.568295 1_555
In1 Se6 2.598706 1_555
In1 Se1 2.599106 1_555
In1 Se4 2.599107 1_555
F0 K1 2.692095 1_545
F0 K7 2.692096 1_655
F0 K0 2.692281 1_645
F0 K8 2.856370 1_555
F0 K4 2.856872 1_545
F0 K5 2.856939 1_655
F1 K5 2.692095 1_566
F1 K4 2.692096 1_456
F1 K8 2.692281 1_466
F1 K0 2.856370 1_555
F1 K7 2.856872 1_565
F1 K1 2.856939 1_455
