# generated using pymatgen
data_KP2IrOs
_symmetry_space_group_name_H-M   'P 1'
_cell_length_a   7.10808017
_cell_length_b   7.10808003
_cell_length_c   7.10808077
_cell_angle_alpha   147.54882609
_cell_angle_beta   147.54882193
_cell_angle_gamma   46.55183840
_symmetry_Int_Tables_number   1
_chemical_formula_structural   KP2IrOs
_chemical_formula_sum   'K1 P2 Ir1 Os1'
_cell_volume   103.03010310
_cell_formula_units_Z   1
loop_
 _symmetry_equiv_pos_site_id
 _symmetry_equiv_pos_as_xyz
  1  'x, y, z'
loop_
 _atom_site_type_symbol
 _atom_site_label
 _atom_site_symmetry_multiplicity
 _atom_site_fract_x
 _atom_site_fract_y
 _atom_site_fract_z
 _atom_site_occupancy
  K  K0  1  0.00000000  0.00000000  0.00000000  1
  P  P0  1  0.34383255  0.34383255  1.00000000  1
  P  P1  1  0.65616745  0.65616745  0.00000000  1
  Ir  Ir0  1  0.25000000  0.75000000  0.50000000  1
  Os  Os0  1  0.75000000  0.25000000  0.50000000  1
loop_
_geom_bond_atom_site_label_1
_geom_bond_atom_site_label_2
_geom_bond_distance
_geom_bond_site_symmetry_2
K0 P1 3.471124 1_455
K0 P0 3.471124 1_544
K0 P1 3.471124 1_545
K0 P0 3.471124 1_454
K0 P1 3.471124 1_556
K0 P0 3.471124 1_443
K0 P1 3.471125 1_444
K0 P0 3.471125 1_555
Ir0 P0 2.333728 1_565
Ir0 P1 2.333728 1_455
Ir0 P0 2.333728 1_554
Ir0 P1 2.333729 1_556
Os0 P1 2.333728 1_545
Os0 P0 2.333728 1_655
Os0 P1 2.333728 1_556
Os0 P0 2.333729 1_554
