# generated using pymatgen
data_Ta5Nb3Cd4O24
_symmetry_space_group_name_H-M   'P 1'
_cell_length_a   5.16106853
_cell_length_b   5.90494881
_cell_length_c   14.88370116
_cell_angle_alpha   90.50749619
_cell_angle_beta   90.04726813
_cell_angle_gamma   89.96020419
_symmetry_Int_Tables_number   1
_chemical_formula_structural   Ta5Nb3Cd4O24
_chemical_formula_sum   'Ta5 Nb3 Cd4 O24'
_cell_volume   453.57532125
_cell_formula_units_Z   1
loop_
 _symmetry_equiv_pos_site_id
 _symmetry_equiv_pos_as_xyz
  1  'x, y, z'
loop_
 _atom_site_type_symbol
 _atom_site_label
 _atom_site_symmetry_multiplicity
 _atom_site_fract_x
 _atom_site_fract_y
 _atom_site_fract_z
 _atom_site_occupancy
  Ta  Ta0  1  0.26726056  0.82089443  0.16661230  1
  Ta  Ta1  1  0.26798071  0.32319066  0.33514697  1
  Ta  Ta2  1  0.73446010  0.17877109  0.83343622  1
  Ta  Ta3  1  0.76630027  0.67588851  0.33437443  1
  Ta  Ta4  1  0.23399453  0.32341249  0.66604833  1
  Nb  Nb0  1  0.23246014  0.82051117  0.83614551  1
  Nb  Nb1  1  0.76888624  0.17809421  0.16435085  1
  Nb  Nb2  1  0.73236232  0.68113217  0.66369824  1
  Cd  Cd0  1  0.24608032  0.81326154  0.49915629  1
  Cd  Cd1  1  0.75191719  0.19157937  0.49927234  1
  Cd  Cd2  1  0.74536300  0.69037048  0.00009424  1
  Cd  Cd3  1  0.25603956  0.30893685  0.99968422  1
  O  O0  1  0.10567919  0.61847541  0.91547122  1
  O  O1  1  0.89526906  0.38051932  0.08533451  1
  O  O2  1  0.60419017  0.88347694  0.58482819  1
  O  O3  1  0.39421946  0.61387048  0.08738618  1
  O  O4  1  0.39233534  0.11958668  0.41415936  1
  O  O5  1  0.60686886  0.38571377  0.91291565  1
  O  O6  1  0.89142300  0.88348546  0.41336249  1
  O  O7  1  0.10429669  0.11695878  0.58703696  1
  O  O8  1  0.04998729  0.58856244  0.60324615  1
  O  O9  1  0.95112660  0.41176442  0.39578469  1
  O  O10  1  0.54968237  0.91463799  0.89675043  1
  O  O11  1  0.45055396  0.59038609  0.39635087  1
  O  O12  1  0.45104975  0.08459203  0.10363802  1
  O  O13  1  0.54799518  0.40822681  0.60307570  1
  O  O14  1  0.95257646  0.90514253  0.10384833  1
  O  O15  1  0.04802255  0.09367299  0.89698125  1
  O  O16  1  0.40341041  0.63021176  0.74340275  1
  O  O17  1  0.59211082  0.36758376  0.25673784  1
  O  O18  1  0.90295081  0.87209341  0.75682783  1
  O  O19  1  0.09019946  0.63042575  0.25550669  1
  O  O20  1  0.09796138  0.12942135  0.24425770  1
  O  O21  1  0.91306421  0.36718931  0.74530369  1
  O  O22  1  0.58915532  0.86274663  0.24512151  1
  O  O23  1  0.41276873  0.13521190  0.75464704  1
loop_
_geom_bond_atom_site_label_1
_geom_bond_atom_site_label_2
_geom_bond_distance
_geom_bond_site_symmetry_2
Nb0 O0 1.809057 1_555
Nb0 O10 1.947554 1_555
Nb0 O16 1.979819 1_555
Nb0 O15 2.073926 1_565
Nb0 O18 2.093060 1_455
Nb0 O23 2.415533 1_565
Nb1 O1 1.806815 1_555
Nb1 O12 1.949923 1_555
Nb1 O17 1.987100 1_555
Nb1 O14 2.069068 1_545
Nb1 O20 2.093705 1_655
Nb1 O22 2.411847 1_545
Nb2 O2 1.807119 1_555
Nb2 O8 1.946297 1_655
Nb2 O18 1.984853 1_555
Nb2 O13 2.071569 1_555
Nb2 O16 2.095327 1_555
Nb2 O21 2.411898 1_555
Cd0 O11 2.269811 1_555
Cd0 O6 2.270985 1_455
Cd0 O2 2.280699 1_555
Cd0 O8 2.285992 1_555
Cd0 O7 2.328195 1_565
Cd0 O4 2.342234 1_565
Cd1 O13 2.257655 1_555
Cd1 O9 2.271549 1_555
Cd1 O7 2.283231 1_655
Cd1 O4 2.284133 1_555
Cd1 O6 2.328439 1_545
Cd1 O2 2.357401 1_545
Cd2 O14 2.258593 1_555
Cd2 O10 2.274030 1_554
Cd2 O3 2.278555 1_555
Cd2 O0 2.284305 1_654
Cd2 O5 2.321586 1_554
Cd2 O1 2.365021 1_555
Cd3 O15 2.251607 1_555
Cd3 O5 2.273145 1_555
Cd3 O12 2.278965 1_556
Cd3 O1 2.294328 1_456
Cd3 O3 2.326652 1_556
Cd3 O0 2.356081 1_555
O3 Ta0 1.813520 1_555
O4 Ta1 1.806395 1_555
O5 Ta2 1.816812 1_555
O6 Ta3 1.810016 1_555
O7 Ta4 1.814288 1_555
O8 Ta4 2.061407 1_555
O9 Ta1 1.937832 1_655
O9 Ta3 2.049285 1_555
O10 Ta2 2.063904 1_565
O11 Ta3 1.942482 1_555
O11 Ta1 2.045056 1_555
O12 Ta0 2.057245 1_545
O13 Ta4 1.941009 1_555
O14 Ta0 1.939709 1_655
O15 Ta2 1.941837 1_455
O16 Ta4 2.309906 1_555
O17 Ta1 2.058725 1_555
O17 Ta3 2.328311 1_555
O18 Ta2 2.301862 1_565
O19 Ta0 1.969863 1_555
O19 Ta3 2.059484 1_455
O19 Ta1 2.360562 1_555
O20 Ta1 1.970067 1_555
O20 Ta0 2.319534 1_545
O21 Ta2 1.958954 1_555
O21 Ta4 2.049149 1_655
O22 Ta3 1.959738 1_555
O22 Ta0 2.044193 1_555
O23 Ta4 1.961573 1_555
O23 Ta2 2.046916 1_555
