# generated using pymatgen
data_HfZnIrRh
_symmetry_space_group_name_H-M   'P 1'
_cell_length_a   4.41798587
_cell_length_b   4.41798543
_cell_length_c   4.41798537
_cell_angle_alpha   60.00000043
_cell_angle_beta   60.00000373
_cell_angle_gamma   59.99999498
_symmetry_Int_Tables_number   1
_chemical_formula_structural   HfZnIrRh
_chemical_formula_sum   'Hf1 Zn1 Ir1 Rh1'
_cell_volume   60.97585159
_cell_formula_units_Z   1
loop_
 _symmetry_equiv_pos_site_id
 _symmetry_equiv_pos_as_xyz
  1  'x, y, z'
loop_
 _atom_site_type_symbol
 _atom_site_label
 _atom_site_symmetry_multiplicity
 _atom_site_fract_x
 _atom_site_fract_y
 _atom_site_fract_z
 _atom_site_occupancy
  Hf  Hf0  1  0.75000000  0.75000000  0.75000000  1
  Zn  Zn0  1  0.25000000  0.25000000  0.25000000  1
  Ir  Ir0  1  0.50000000  0.50000000  0.50000000  1
  Rh  Rh0  1  0.00000000  0.00000000  0.00000000  1
loop_
_geom_bond_atom_site_label_1
_geom_bond_atom_site_label_2
_geom_bond_distance
_geom_bond_site_symmetry_2
Hf0 Rh0 2.705452 1_656
Hf0 Ir0 2.705452 1_565
Hf0 Rh0 2.705453 1_666
Hf0 Ir0 2.705453 1_555
Hf0 Ir0 2.705453 1_556
Hf0 Rh0 2.705453 1_665
Hf0 Rh0 2.705453 1_566
Hf0 Ir0 2.705453 1_655
Ir0 Zn0 2.705452 1_565
Ir0 Zn0 2.705453 1_555
Ir0 Zn0 2.705453 1_556
Ir0 Zn0 2.705453 1_655
Rh0 Zn0 2.705452 1_545
Rh0 Zn0 2.705453 1_555
Rh0 Zn0 2.705453 1_554
Rh0 Zn0 2.705453 1_455
