# generated using pymatgen
data_Fe4PdPt3
_symmetry_space_group_name_H-M   'P 1'
_cell_length_a   5.47410929
_cell_length_b   5.35661782
_cell_length_c   5.35661766
_cell_angle_alpha   61.45651835
_cell_angle_beta   59.27174484
_cell_angle_gamma   59.27174056
_symmetry_Int_Tables_number   1
_chemical_formula_structural   Fe4PdPt3
_chemical_formula_sum   'Fe4 Pd1 Pt3'
_cell_volume   110.95637989
_cell_formula_units_Z   1
loop_
 _symmetry_equiv_pos_site_id
 _symmetry_equiv_pos_as_xyz
  1  'x, y, z'
loop_
 _atom_site_type_symbol
 _atom_site_label
 _atom_site_symmetry_multiplicity
 _atom_site_fract_x
 _atom_site_fract_y
 _atom_site_fract_z
 _atom_site_occupancy
  Fe  Fe0  1  0.00000000  0.49999900  0.00000000  1
  Fe  Fe1  1  0.49999900  0.49999900  0.00000000  1
  Fe  Fe2  1  0.00000000  0.00000000  0.49999900  1
  Fe  Fe3  1  0.49999900  0.00000000  0.49999900  1
  Pd  Pd0  1  0.49999900  0.49999900  0.49999900  1
  Pt  Pt0  1  0.00000000  0.00000000  0.00000000  1
  Pt  Pt1  1  0.49999900  0.00000000  0.00000000  1
  Pt  Pt2  1  0.00000000  0.49999900  0.49999900  1
loop_
_geom_bond_atom_site_label_1
_geom_bond_atom_site_label_2
_geom_bond_distance
_geom_bond_site_symmetry_2
Fe0 Pt2 2.678303 1_555
Fe0 Pt1 2.678304 1_555
Fe0 Pt0 2.678304 1_555
Fe0 Pd0 2.678309 1_554
Fe0 Pd0 2.678309 1_455
Fe0 Pt2 2.678314 1_554
Fe0 Pt1 2.678314 1_465
Fe0 Pt0 2.678314 1_565
Fe0 Fe2 2.737049 1_555
Fe0 Fe1 2.737049 1_555
Fe0 Fe2 2.737060 1_564
Fe0 Fe1 2.737060 1_455
Fe1 Pd0 2.678303 1_555
Fe1 Pt1 2.678304 1_555
Fe1 Pt2 2.678304 1_555
Fe1 Pt0 2.678309 1_565
Fe1 Pt0 2.678309 1_655
Fe1 Pd0 2.678314 1_554
Fe1 Pt1 2.678314 1_565
Fe1 Pt2 2.678314 1_654
Fe1 Fe3 2.737049 1_555
Fe1 Fe3 2.737060 1_564
Fe2 Pt0 2.678303 1_555
Fe2 Pt2 2.678304 1_555
Fe2 Pt1 2.678304 1_555
Fe2 Pd0 2.678309 1_545
Fe2 Pd0 2.678309 1_455
Fe2 Pt0 2.678314 1_556
Fe2 Pt2 2.678314 1_545
Fe2 Pt1 2.678314 1_456
Fe2 Fe3 2.737049 1_555
Fe2 Fe3 2.737060 1_455
Fe3 Pt1 2.678303 1_555
Fe3 Pt2 2.678304 1_555
Fe3 Pd0 2.678304 1_555
Fe3 Pt0 2.678309 1_556
Fe3 Pt0 2.678309 1_655
Fe3 Pt1 2.678314 1_556
Fe3 Pt2 2.678314 1_645
Fe3 Pd0 2.678314 1_545
Pd0 Pt2 2.737049 1_555
Pd0 Pt1 2.737055 1_556
Pd0 Pt1 2.737055 1_565
Pd0 Pt2 2.737060 1_655
Pt0 Pt1 2.737049 1_555
Pt0 Pt2 2.737055 1_554
Pt0 Pt2 2.737055 1_545
Pt0 Pt1 2.737060 1_455
