# generated using pymatgen
data_Ta8CdPbO22
_symmetry_space_group_name_H-M   'P 1'
_cell_length_a   6.24481075
_cell_length_b   6.24480952
_cell_length_c   12.38462012
_cell_angle_alpha   90.00000000
_cell_angle_beta   90.00000000
_cell_angle_gamma   120.00000133
_symmetry_Int_Tables_number   1
_chemical_formula_structural   Ta8CdPbO22
_chemical_formula_sum   'Ta8 Cd1 Pb1 O22'
_cell_volume   418.26525855
_cell_formula_units_Z   1
loop_
 _symmetry_equiv_pos_site_id
 _symmetry_equiv_pos_as_xyz
  1  'x, y, z'
loop_
 _atom_site_type_symbol
 _atom_site_label
 _atom_site_symmetry_multiplicity
 _atom_site_fract_x
 _atom_site_fract_y
 _atom_site_fract_z
 _atom_site_occupancy
  Ta  Ta0  1  0.66666700  0.33333300  0.75000000  1
  Ta  Ta1  1  0.33333300  0.66666700  0.25000000  1
  Ta  Ta2  1  0.64298155  0.00132123  0.49845972  1
  Ta  Ta3  1  0.64298155  0.64166132  0.00154028  1
  Ta  Ta4  1  0.99867877  0.35701845  0.00154028  1
  Ta  Ta5  1  0.99867877  0.64166132  0.49845972  1
  Ta  Ta6  1  0.35833868  0.35701845  0.49845972  1
  Ta  Ta7  1  0.35833868  0.00132123  0.00154028  1
  Cd  Cd0  1  0.66666700  0.33333300  0.25000000  1
  Pb  Pb0  1  0.33333300  0.66666700  0.75000000  1
  O  O0  1  0.33333300  0.66666700  0.53029824  1
  O  O1  1  0.66666700  0.33333300  0.03227868  1
  O  O2  1  0.66666700  0.33333300  0.46772132  1
  O  O3  1  0.33333300  0.66666700  0.96970176  1
  O  O4  1  0.24474642  0.99913165  0.49812653  1
  O  O5  1  0.24474642  0.24561477  0.00187347  1
  O  O6  1  0.00086835  0.75525358  0.00187347  1
  O  O7  1  0.00086835  0.24561477  0.49812653  1
  O  O8  1  0.75438523  0.75525358  0.49812653  1
  O  O9  1  0.75438523  0.99913165  0.00187347  1
  O  O10  1  0.38505702  0.94883000  0.15671406  1
  O  O11  1  0.43370181  0.37099123  0.65328896  1
  O  O12  1  0.93728841  0.56629819  0.65328896  1
  O  O13  1  0.05117000  0.43622701  0.15671406  1
  O  O14  1  0.56377299  0.61494298  0.15671406  1
  O  O15  1  0.43370181  0.06271159  0.84671104  1
  O  O16  1  0.62900877  0.56629819  0.84671104  1
  O  O17  1  0.62900877  0.06271159  0.65328896  1
  O  O18  1  0.93728841  0.37099123  0.84671104  1
  O  O19  1  0.05117000  0.61494298  0.34328594  1
  O  O20  1  0.56377299  0.94883000  0.34328594  1
  O  O21  1  0.38505702  0.43622701  0.34328594  1
loop_
_geom_bond_atom_site_label_1
_geom_bond_atom_site_label_2
_geom_bond_distance
_geom_bond_site_symmetry_2
Cd0 O20 2.443412 1_545
Cd0 O13 2.443413 1_655
Cd0 O10 2.443414 1_545
Cd0 O19 2.443414 1_655
Cd0 O14 2.443418 1_555
Cd0 O21 2.443418 1_555
Cd0 O1 2.696396 1_555
Cd0 O2 2.696396 1_555
O0 Ta6 2.054508 1_555
O0 Ta2 2.054508 1_565
O0 Ta5 2.054508 1_455
O0 Pb0 2.720923 1_555
O1 Ta4 2.039340 1_555
O1 Ta7 2.039345 1_555
O1 Ta3 2.039352 1_555
O2 Ta2 2.039340 1_555
O2 Ta5 2.039346 1_555
O2 Ta6 2.039353 1_555
O3 Ta7 2.054508 1_566
O3 Ta4 2.054508 1_456
O3 Ta3 2.054508 1_556
O3 Pb0 2.720923 1_555
O4 Ta6 1.978072 1_565
O4 Ta5 1.978461 1_455
O4 Ta2 2.480098 1_565
O5 Ta7 1.978066 1_555
O5 Ta4 1.978465 1_455
O5 Ta3 2.480101 1_555
O6 Ta3 1.978072 1_455
O6 Ta7 1.978461 1_565
O6 Ta4 2.480097 1_455
O7 Ta2 1.978071 1_455
O7 Ta6 1.978460 1_555
O7 Ta5 2.480104 1_455
O8 Ta5 1.978066 1_555
O8 Ta2 1.978465 1_565
O8 Ta6 2.480101 1_555
O9 Ta4 1.978070 1_565
O9 Ta3 1.978459 1_555
O9 Ta7 2.480104 1_565
O10 Ta7 1.970578 1_565
O10 Ta1 1.993679 1_555
O11 Ta6 1.965922 1_555
O11 Ta0 1.987083 1_555
O11 Pb0 2.528650 1_555
O12 Ta5 1.965922 1_555
O12 Ta0 1.987077 1_555
O12 Pb0 2.528650 1_655
O13 Ta4 1.970577 1_455
O13 Ta1 1.993681 1_555
O14 Ta3 1.970577 1_555
O14 Ta1 1.993684 1_555
O15 Ta7 1.965922 1_556
O15 Ta0 1.987077 1_555
O15 Pb0 2.528650 1_545
O16 Ta3 1.965922 1_556
O16 Ta0 1.987083 1_555
O16 Pb0 2.528650 1_555
O17 Ta2 1.965922 1_555
O17 Ta0 1.987073 1_555
O17 Pb0 2.528650 1_545
O18 Ta4 1.965922 1_556
O18 Ta0 1.987073 1_555
O18 Pb0 2.528650 1_655
O19 Ta5 1.970578 1_455
O19 Ta1 1.993679 1_555
O20 Ta2 1.970577 1_565
O20 Ta1 1.993681 1_555
O21 Ta6 1.970577 1_555
O21 Ta1 1.993684 1_555
