# generated using pymatgen
data_Cs4NiPtSe32
_symmetry_space_group_name_H-M   'P 1'
_cell_length_a   12.74648816
_cell_length_b   12.74648816
_cell_length_c   7.20043220
_cell_angle_alpha   90.00000000
_cell_angle_beta   90.00000000
_cell_angle_gamma   90.00000000
_symmetry_Int_Tables_number   1
_chemical_formula_structural   Cs4NiPtSe32
_chemical_formula_sum   'Cs4 Ni1 Pt1 Se32'
_cell_volume   1169.87553681
_cell_formula_units_Z   1
loop_
 _symmetry_equiv_pos_site_id
 _symmetry_equiv_pos_as_xyz
  1  'x, y, z'
loop_
 _atom_site_type_symbol
 _atom_site_label
 _atom_site_symmetry_multiplicity
 _atom_site_fract_x
 _atom_site_fract_y
 _atom_site_fract_z
 _atom_site_occupancy
  Cs  Cs0  1  0.50000000  0.00000000  0.99818149  1
  Cs  Cs1  1  0.00000000  0.50000000  0.00181851  1
  Cs  Cs2  1  0.50000000  0.50000000  0.50000000  1
  Cs  Cs3  1  0.00000000  0.00000000  0.50000000  1
  Ni  Ni0  1  0.00000000  0.00000000  0.00000000  1
  Pt  Pt0  1  0.50000000  0.50000000  0.00000000  1
  Se  Se0  1  0.19213353  0.42338864  0.58348112  1
  Se  Se1  1  0.80786647  0.57661136  0.58348112  1
  Se  Se2  1  0.57661136  0.19213353  0.41651888  1
  Se  Se3  1  0.42338864  0.80786647  0.41651888  1
  Se  Se4  1  0.30805073  0.92129446  0.58465501  1
  Se  Se5  1  0.07870554  0.30805073  0.41534499  1
  Se  Se6  1  0.82520735  0.96215446  0.95345866  1
  Se  Se7  1  0.03784554  0.82520735  0.04654134  1
  Se  Se8  1  0.96215446  0.17479265  0.04654134  1
  Se  Se9  1  0.17479265  0.03784554  0.95345866  1
  Se  Se10  1  0.53572252  0.68803355  0.02776000  1
  Se  Se11  1  0.46427748  0.31196645  0.02776000  1
  Se  Se12  1  0.68803355  0.46427748  0.97224000  1
  Se  Se13  1  0.31196645  0.53572252  0.97224000  1
  Se  Se14  1  0.78410061  0.19733423  0.12866535  1
  Se  Se15  1  0.80266577  0.78410061  0.87133465  1
  Se  Se16  1  0.19733423  0.21589939  0.87133465  1
  Se  Se17  1  0.21589939  0.80266577  0.12866535  1
  Se  Se18  1  0.29457268  0.71229379  0.87455083  1
  Se  Se19  1  0.70542732  0.28770621  0.87455083  1
  Se  Se20  1  0.71229379  0.70542732  0.12544917  1
  Se  Se21  1  0.28770621  0.29457268  0.12544917  1
  Se  Se22  1  0.92114344  0.30576041  0.58936831  1
  Se  Se23  1  0.69423959  0.92114344  0.41063169  1
  Se  Se24  1  0.30576041  0.07885656  0.41063169  1
  Se  Se25  1  0.07885656  0.69423959  0.58936831  1
  Se  Se26  1  0.19181827  0.58331807  0.41619925  1
  Se  Se27  1  0.80818173  0.41668193  0.41619925  1
  Se  Se28  1  0.58331807  0.80818173  0.58380075  1
  Se  Se29  1  0.41668193  0.19181827  0.58380075  1
  Se  Se30  1  0.69194927  0.07870554  0.58465501  1
  Se  Se31  1  0.92129446  0.69194927  0.41534499  1
loop_
_geom_bond_atom_site_label_1
_geom_bond_atom_site_label_2
_geom_bond_distance
_geom_bond_site_symmetry_2
Cs0 Se30 3.982287 1_555
Cs0 Se4 3.982287 1_545
Cs0 Se23 3.995008 1_546
Cs0 Se24 3.995008 1_556
Cs0 Se29 4.001066 1_555
Cs0 Se28 4.001066 1_545
Cs0 Se2 4.003092 1_556
Cs0 Se3 4.003092 1_546
Cs0 Se11 4.008124 1_556
Cs0 Se10 4.008124 1_546
Cs0 Se6 4.185632 1_545
Cs0 Se9 4.185632 1_555
Cs1 Se31 3.982287 1_455
Cs1 Se5 3.982287 1_555
Cs1 Se25 3.995008 1_554
Cs1 Se22 3.995008 1_454
Cs1 Se26 4.001066 1_555
Cs1 Se27 4.001066 1_455
Cs1 Se0 4.003092 1_554
Cs1 Se1 4.003092 1_454
Cs1 Se13 4.008124 1_554
Cs1 Se12 4.008124 1_454
Cs1 Se7 4.185632 1_555
Cs1 Se8 4.185632 1_455
Cs2 Pt0 3.600216 1_555
Cs2 Pt0 3.600216 1_556
Cs2 Se1 4.088325 1_555
Cs2 Se3 4.088325 1_555
Cs2 Se2 4.088325 1_555
Cs2 Se0 4.088325 1_555
Cs2 Se28 4.113757 1_555
Cs2 Se27 4.113757 1_555
Cs2 Se29 4.113757 1_555
Cs2 Se26 4.113757 1_555
Cs2 Se12 4.184983 1_555
Cs2 Se10 4.184983 1_555
Cs2 Se13 4.184983 1_555
Cs2 Se11 4.184983 1_555
Cs3 Ni0 3.600216 1_555
Cs3 Ni0 3.600216 1_556
Cs3 Se9 3.982151 1_555
Cs3 Se8 3.982151 1_455
Cs3 Se6 3.982151 1_445
Cs3 Se7 3.982151 1_545
Cs3 Se24 4.076015 1_555
Cs3 Se22 4.076015 1_455
Cs3 Se25 4.076015 1_545
Cs3 Se23 4.076015 1_445
Cs3 Se5 4.098282 1_555
Cs3 Se4 4.098282 1_545
Cs3 Se30 4.098282 1_455
Cs3 Se31 4.098282 1_445
Ni0 Se8 2.304118 1_455
Ni0 Se9 2.304118 1_554
Ni0 Se7 2.304118 1_545
Ni0 Se6 2.304118 1_444
Pt0 Se10 2.447811 1_555
Pt0 Se12 2.447811 1_554
Pt0 Se13 2.447811 1_554
Pt0 Se11 2.447811 1_555
Se0 Se26 2.367801 1_555
Se0 Se5 2.391107 1_555
Se1 Se27 2.367801 1_555
Se1 Se31 2.391107 1_555
Se2 Se29 2.367801 1_555
Se2 Se30 2.391107 1_555
Se3 Se4 2.391107 1_555
Se10 Se20 2.368421 1_555
Se11 Se21 2.368421 1_555
Se12 Se19 2.368421 1_555
Se13 Se18 2.368421 1_555
Se14 Se8 2.362866 1_555
Se14 Se19 2.383377 1_554
Se15 Se6 2.362866 1_555
Se15 Se20 2.383377 1_556
Se16 Se9 2.362866 1_555
Se16 Se21 2.383377 1_556
Se17 Se7 2.362866 1_555
Se17 Se18 2.383377 1_554
Se22 Se5 2.367381 1_655
Se22 Se27 2.372120 1_555
Se23 Se30 2.367381 1_565
Se23 Se28 2.372120 1_555
Se24 Se4 2.367381 1_545
Se24 Se29 2.372120 1_555
Se25 Se31 2.367381 1_455
Se25 Se26 2.372120 1_555
Se28 Se3 2.367801 1_555
