# generated using pymatgen
data_Sc16OsPt7O4
_symmetry_space_group_name_H-M   'P 1'
_cell_length_a   8.72419121
_cell_length_b   8.68127770
_cell_length_c   8.68127892
_cell_angle_alpha   60.00000287
_cell_angle_beta   60.16258612
_cell_angle_gamma   60.16257976
_symmetry_Int_Tables_number   1
_chemical_formula_structural   Sc16OsPt7O4
_chemical_formula_sum   'Sc16 Os1 Pt7 O4'
_cell_volume   466.05850584
_cell_formula_units_Z   1
loop_
 _symmetry_equiv_pos_site_id
 _symmetry_equiv_pos_as_xyz
  1  'x, y, z'
loop_
 _atom_site_type_symbol
 _atom_site_label
 _atom_site_symmetry_multiplicity
 _atom_site_fract_x
 _atom_site_fract_y
 _atom_site_fract_z
 _atom_site_occupancy
  Sc  Sc0  1  0.12646395  0.62451168  0.62451168  1
  Sc  Sc1  1  0.62640999  0.12520440  0.62419280  1
  Sc  Sc2  1  0.62640999  0.62419280  0.12520440  1
  Sc  Sc3  1  0.62640999  0.62419280  0.62419280  1
  Sc  Sc4  1  0.81809274  0.81343191  0.18423768  1
  Sc  Sc5  1  0.18294054  0.18225828  0.81740059  1
  Sc  Sc6  1  0.81809274  0.18423768  0.81343191  1
  Sc  Sc7  1  0.18294054  0.81740059  0.18225828  1
  Sc  Sc8  1  0.18294054  0.81740059  0.81740059  1
  Sc  Sc9  1  0.81809274  0.18423768  0.18423768  1
  Sc  Sc10  1  0.43172217  0.43098575  0.06864604  1
  Sc  Sc11  1  0.06278837  0.07435498  0.43142833  1
  Sc  Sc12  1  0.43172217  0.06864604  0.43098575  1
  Sc  Sc13  1  0.06278837  0.43142833  0.07435498  1
  Sc  Sc14  1  0.06278837  0.43142833  0.43142833  1
  Sc  Sc15  1  0.43172217  0.06864604  0.06864604  1
  Os  Os0  1  0.76358710  0.41213697  0.41213697  1
  Pt  Pt0  1  0.41243297  0.76648907  0.41053848  1
  Pt  Pt1  1  0.41243297  0.41053848  0.76648907  1
  Pt  Pt2  1  0.41243297  0.41053848  0.41053848  1
  Pt  Pt3  1  0.48215912  0.83928096  0.83928096  1
  Pt  Pt4  1  0.83977749  0.48259552  0.83881450  1
  Pt  Pt5  1  0.83977749  0.83881450  0.48259552  1
  Pt  Pt6  1  0.83977749  0.83881450  0.83881450  1
  O  O0  1  0.62336401  0.12554533  0.12554533  1
  O  O1  1  0.12731068  0.62621461  0.12323686  1
  O  O2  1  0.12731068  0.12323686  0.62621461  1
  O  O3  1  0.12731068  0.12323686  0.12323686  1
loop_
_geom_bond_atom_site_label_1
_geom_bond_atom_site_label_2
_geom_bond_distance
_geom_bond_site_symmetry_2
Os0 Sc1 2.685978 1_555
Os0 Sc2 2.685978 1_555
Os0 Sc3 2.685992 1_555
Os0 Sc11 2.787060 1_655
Os0 Sc13 2.787061 1_655
Os0 Sc14 2.787070 1_655
Pt0 Sc2 2.703805 1_555
Pt0 Sc3 2.703812 1_555
Pt0 Sc0 2.711603 1_555
Pt0 Sc15 2.806261 1_565
Pt0 Sc12 2.806266 1_565
Pt0 Sc11 2.881404 1_565
Pt1 Sc1 2.703805 1_555
Pt1 Sc3 2.703812 1_555
Pt1 Sc0 2.711603 1_555
Pt1 Sc15 2.806261 1_556
Pt1 Sc10 2.806266 1_556
Pt1 Sc13 2.881405 1_556
Pt2 Sc1 2.703810 1_555
Pt2 Sc2 2.703810 1_555
Pt2 Sc0 2.711603 1_555
Pt2 Sc12 2.806257 1_555
Pt2 Sc10 2.806258 1_555
Pt2 Sc14 2.881401 1_555
Pt3 Sc1 2.714187 1_565
Pt3 Sc2 2.714187 1_556
Pt3 Sc3 2.714201 1_555
Pt3 Sc5 2.812367 1_565
Pt3 Sc7 2.812368 1_556
Pt3 Sc8 2.812377 1_555
Pt4 Sc2 2.707659 1_556
Pt4 Sc3 2.707673 1_555
Pt4 Sc0 2.716342 1_655
Pt4 Sc9 2.809425 1_556
Pt4 Sc6 2.809435 1_555
Pt4 Sc5 2.821179 1_655
Pt5 Sc1 2.707659 1_565
Pt5 Sc3 2.707673 1_555
Pt5 Sc0 2.716342 1_655
Pt5 Sc9 2.809425 1_565
Pt5 Sc4 2.809435 1_555
Pt5 Sc7 2.821179 1_655
Pt6 Sc1 2.707669 1_565
Pt6 Sc2 2.707669 1_556
Pt6 Sc0 2.716357 1_655
Pt6 Sc6 2.809418 1_565
Pt6 Sc4 2.809418 1_556
Pt6 Sc8 2.821171 1_655
O0 Sc10 2.273960 1_555
O0 Sc15 2.273960 1_555
O0 Sc12 2.273961 1_555
O0 Sc4 2.321128 1_545
O0 Sc9 2.321128 1_555
O0 Sc6 2.321129 1_554
O1 Sc8 2.269846 1_554
O1 Sc7 2.269852 1_555
O1 Sc10 2.285155 1_555
O1 Sc13 2.293223 1_555
O1 Sc14 2.293229 1_555
O1 Sc4 2.296878 1_455
O2 Sc8 2.269846 1_545
O2 Sc5 2.269852 1_555
O2 Sc12 2.285155 1_555
O2 Sc11 2.293223 1_555
O2 Sc14 2.293229 1_555
O2 Sc6 2.296878 1_455
O3 Sc7 2.269843 1_545
O3 Sc5 2.269844 1_554
O3 Sc15 2.285157 1_555
O3 Sc13 2.293231 1_555
O3 Sc11 2.293231 1_555
O3 Sc9 2.296876 1_455
