# generated using pymatgen
data_CsPtRhSe4
_symmetry_space_group_name_H-M   'P 1'
_cell_length_a   6.49337385
_cell_length_b   7.50331109
_cell_length_c   16.73019795
_cell_angle_alpha   90.00000000
_cell_angle_beta   90.00000000
_cell_angle_gamma   90.00000000
_symmetry_Int_Tables_number   1
_chemical_formula_structural   CsPtRhSe4
_chemical_formula_sum   'Cs4 Pt4 Rh4 Se16'
_cell_volume   815.12542610
_cell_formula_units_Z   4
loop_
 _symmetry_equiv_pos_site_id
 _symmetry_equiv_pos_as_xyz
  1  'x, y, z'
loop_
 _atom_site_type_symbol
 _atom_site_label
 _atom_site_symmetry_multiplicity
 _atom_site_fract_x
 _atom_site_fract_y
 _atom_site_fract_z
 _atom_site_occupancy
  Cs  Cs0  1  0.35954103  0.00000000  0.00000000  1
  Cs  Cs1  1  0.64045897  0.50000000  0.50000000  1
  Cs  Cs2  1  0.01525803  0.00000000  0.50000000  1
  Cs  Cs3  1  0.98474197  0.50000000  0.00000000  1
  Pt  Pt0  1  0.50000000  0.25000000  0.25000000  1
  Pt  Pt1  1  0.50000000  0.75000000  0.75000000  1
  Pt  Pt2  1  0.50000000  0.75000000  0.25000000  1
  Pt  Pt3  1  0.50000000  0.25000000  0.75000000  1
  Rh  Rh0  1  0.00187550  0.00000000  0.25127227  1
  Rh  Rh1  1  0.00187550  0.00000000  0.74872773  1
  Rh  Rh2  1  0.99812450  0.50000000  0.24872773  1
  Rh  Rh3  1  0.99812450  0.50000000  0.75127227  1
  Se  Se0  1  0.83593265  0.25144632  0.32661785  1
  Se  Se1  1  0.83593265  0.74855368  0.67338215  1
  Se  Se2  1  0.16406735  0.75144632  0.17338215  1
  Se  Se3  1  0.16406735  0.24855368  0.82661785  1
  Se  Se4  1  0.16406735  0.24855368  0.17338215  1
  Se  Se5  1  0.16406735  0.75144632  0.82661785  1
  Se  Se6  1  0.83593265  0.74855368  0.32661785  1
  Se  Se7  1  0.83593265  0.25144632  0.67338215  1
  Se  Se8  1  0.67418755  0.00000000  0.17481347  1
  Se  Se9  1  0.67418755  0.00000000  0.82518653  1
  Se  Se10  1  0.32581245  0.50000000  0.32518653  1
  Se  Se11  1  0.32581245  0.50000000  0.67481347  1
  Se  Se12  1  0.33581778  0.00000000  0.32656579  1
  Se  Se13  1  0.33581778  0.00000000  0.67343421  1
  Se  Se14  1  0.66418222  0.50000000  0.17343421  1
  Se  Se15  1  0.66418222  0.50000000  0.82656579  1
loop_
_geom_bond_atom_site_label_1
_geom_bond_atom_site_label_2
_geom_bond_distance
_geom_bond_site_symmetry_2
Cs0 Se8 3.567631 1_555
Cs0 Se9 3.567631 1_554
Cs0 Se2 3.674694 1_545
Cs0 Se4 3.674694 1_555
Cs0 Se5 3.674694 1_544
Cs0 Se3 3.674694 1_554
Cs1 Se11 3.567631 1_555
Cs1 Se10 3.567631 1_555
Cs1 Se7 3.674694 1_555
Cs1 Se1 3.674694 1_555
Cs1 Se0 3.674694 1_555
Cs1 Se6 3.674694 1_555
Cs2 Se13 3.570983 1_555
Cs2 Se12 3.570983 1_555
Cs2 Se1 3.650974 1_445
Cs2 Se7 3.650974 1_455
Cs2 Se6 3.650974 1_445
Cs2 Se0 3.650974 1_455
Cs3 Se14 3.570983 1_555
Cs3 Se15 3.570983 1_554
Cs3 Se4 3.650974 1_655
Cs3 Se2 3.650974 1_655
Cs3 Se3 3.650974 1_654
Cs3 Se5 3.650974 1_654
Pt0 Se12 2.509213 1_555
Pt0 Se14 2.509213 1_555
Pt0 Se10 2.525928 1_555
Pt0 Se8 2.525928 1_555
Pt0 Se0 2.530106 1_555
Pt0 Se4 2.530106 1_555
Pt1 Se15 2.509213 1_555
Pt1 Se13 2.509213 1_565
Pt1 Se9 2.525928 1_565
Pt1 Se11 2.525928 1_555
Pt1 Se1 2.530106 1_555
Pt1 Se5 2.530106 1_555
Pt2 Se12 2.509213 1_565
Pt2 Se14 2.509213 1_555
Pt2 Se10 2.525928 1_555
Pt2 Se8 2.525928 1_565
Pt2 Se6 2.530106 1_555
Pt2 Se2 2.530106 1_555
Pt3 Se15 2.509213 1_555
Pt3 Se13 2.509213 1_555
Pt3 Se9 2.525928 1_555
Pt3 Se11 2.525928 1_555
Pt3 Se7 2.530106 1_555
Pt3 Se3 2.530106 1_555
Rh0 Se8 2.482703 1_455
Rh0 Se2 2.507074 1_545
Rh0 Se4 2.507074 1_555
Rh0 Se12 2.507747 1_555
Rh0 Se6 2.511893 1_445
Rh0 Se0 2.511893 1_455
Rh1 Se9 2.482703 1_455
Rh1 Se5 2.507074 1_545
Rh1 Se3 2.507074 1_555
Rh1 Se13 2.507747 1_555
Rh1 Se7 2.511893 1_455
Rh1 Se1 2.511893 1_445
Rh2 Se10 2.482703 1_655
Rh2 Se0 2.507074 1_555
Rh2 Se6 2.507074 1_555
Rh2 Se14 2.507747 1_555
Rh2 Se4 2.511893 1_655
Rh2 Se2 2.511893 1_655
Rh3 Se11 2.482703 1_655
Rh3 Se7 2.507074 1_555
Rh3 Se1 2.507074 1_555
Rh3 Se15 2.507747 1_555
Rh3 Se3 2.511893 1_655
Rh3 Se5 2.511893 1_655
