# generated using pymatgen
data_K3Ag2As2Au
_symmetry_space_group_name_H-M   'P 1'
_cell_length_a   7.80055736
_cell_length_b   7.95642744
_cell_length_c   7.80055777
_cell_angle_alpha   45.11355968
_cell_angle_beta   44.80559324
_cell_angle_gamma   45.11355967
_symmetry_Int_Tables_number   1
_chemical_formula_structural   K3Ag2As2Au
_chemical_formula_sum   'K3 Ag2 As2 Au1'
_cell_volume   220.40813908
_cell_formula_units_Z   1
loop_
 _symmetry_equiv_pos_site_id
 _symmetry_equiv_pos_as_xyz
  1  'x, y, z'
loop_
 _atom_site_type_symbol
 _atom_site_label
 _atom_site_symmetry_multiplicity
 _atom_site_fract_x
 _atom_site_fract_y
 _atom_site_fract_z
 _atom_site_occupancy
  K  K0  1  0.08899368  0.08979185  0.08899368  1
  K  K1  1  0.91100632  0.91020815  0.91100632  1
  K  K2  1  0.50000000  0.50000000  0.50000000  1
  Ag  Ag0  1  0.00000000  0.50000000  0.50000000  1
  Ag  Ag1  1  0.50000000  0.50000000  0.00000000  1
  As  As0  1  0.75409013  0.75593099  0.75409013  1
  As  As1  1  0.24590987  0.24406901  0.24590987  1
  Au  Au0  1  0.50000000  0.00000000  0.50000000  1
loop_
_geom_bond_atom_site_label_1
_geom_bond_atom_site_label_2
_geom_bond_distance
_geom_bond_site_symmetry_2
K0 K2 3.833460 1_545
K0 K2 3.839595 1_554
K0 K2 3.839595 1_455
K1 K2 3.833460 1_565
K1 K2 3.839595 1_556
K1 K2 3.839595 1_655
Ag0 As0 2.557915 1_455
Ag0 As1 2.557915 1_555
Ag0 Ag1 2.972913 1_456
Ag0 Ag1 2.972913 1_555
Ag0 Au0 3.023037 1_465
Ag0 Au0 3.023037 1_555
Ag0 K0 3.522338 1_556
Ag0 K1 3.522338 1_454
Ag0 K0 3.603711 1_565
Ag0 K1 3.603711 1_445
Ag0 K2 3.900279 1_555
Ag0 K2 3.900279 1_455
Ag1 As0 2.557915 1_554
Ag1 As1 2.557915 1_555
Ag1 Au0 3.023037 1_555
Ag1 Au0 3.023037 1_564
Ag1 K0 3.522338 1_655
Ag1 K1 3.522338 1_454
Ag1 K0 3.603711 1_565
Ag1 K1 3.603711 1_544
Ag1 K2 3.900279 1_554
Ag1 K2 3.900279 1_555
As0 Au0 2.517475 1_565
As0 K1 3.297054 1_555
As0 K0 3.450826 1_566
As0 K0 3.450826 1_665
As0 K0 3.512822 1_656
As0 K2 3.813027 1_655
As0 K2 3.813028 1_556
As0 K2 3.918762 1_565
As1 Au0 2.517475 1_555
As1 K0 3.297054 1_555
As1 K1 3.450826 1_544
As1 K1 3.450826 1_445
As1 K1 3.512822 1_454
As1 K2 3.813027 1_455
As1 K2 3.813028 1_554
As1 K2 3.918762 1_545
Au0 K0 3.520832 1_655
Au0 K1 3.520832 1_445
Au0 K0 3.520833 1_556
Au0 K1 3.520833 1_544
Au0 K2 3.978214 1_555
Au0 K2 3.978214 1_545
