# generated using pymatgen
data_Ti8Al15Ir6Pt
_symmetry_space_group_name_H-M   'P 1'
_cell_length_a   8.61715935
_cell_length_b   8.60269526
_cell_length_c   8.61409439
_cell_angle_alpha   120.03072232
_cell_angle_beta   119.90426374
_cell_angle_gamma   90.03503171
_symmetry_Int_Tables_number   1
_chemical_formula_structural   Ti8Al15Ir6Pt
_chemical_formula_sum   'Ti8 Al15 Ir6 Pt1'
_cell_volume   451.84192949
_cell_formula_units_Z   1
loop_
 _symmetry_equiv_pos_site_id
 _symmetry_equiv_pos_as_xyz
  1  'x, y, z'
loop_
 _atom_site_type_symbol
 _atom_site_label
 _atom_site_symmetry_multiplicity
 _atom_site_fract_x
 _atom_site_fract_y
 _atom_site_fract_z
 _atom_site_occupancy
  Ti  Ti0  1  0.79232426  0.29137374  0.07671965  1
  Ti  Ti1  1  0.21635220  0.29141608  0.49875428  1
  Ti  Ti2  1  0.20849196  0.70675600  0.50048949  1
  Ti  Ti3  1  0.21409122  0.71577057  0.92236669  1
  Ti  Ti4  1  0.79137397  0.71479302  0.50156300  1
  Ti  Ti5  1  0.78213400  0.28474018  0.49950705  1
  Ti  Ti6  1  0.38451059  0.12509361  0.74786654  1
  Ti  Ti7  1  0.37912125  0.63503897  0.25644352  1
  Al  Al0  1  0.99647785  0.49585615  0.49974340  1
  Al  Al1  1  0.15446715  0.34289789  0.18883287  1
  Al  Al2  1  0.15516084  0.96578582  0.81253725  1
  Al  Al3  1  0.15032015  0.34799818  0.80422528  1
  Al  Al4  1  0.54178692  0.34623040  0.19627566  1
  Al  Al5  1  0.84487438  0.65281037  0.80790316  1
  Al  Al6  1  0.84459150  0.03852111  0.19089355  1
  Al  Al7  1  0.84224693  0.65296416  0.18672357  1
  Al  Al8  1  0.46785638  0.65506135  0.81245631  1
  Al  Al9  1  0.37889310  0.12138319  0.25728033  1
  Al  Al10  1  0.86261851  0.12319206  0.74560303  1
  Al  Al11  1  0.61764241  0.87697554  0.25363978  1
  Al  Al12  1  0.62180459  0.36572189  0.74353347  1
  Al  Al13  1  0.62230871  0.87739967  0.74389111  1
  Al  Al14  1  0.13536799  0.87692677  0.25289872  1
  Ir  Ir0  1  0.49836077  0.99979322  0.99817517  1
  Ir  Ir1  1  0.49733848  0.49749393  0.00047736  1
  Ir  Ir2  1  0.49780801  0.49975290  0.49817373  1
  Ir  Ir3  1  0.00184886  0.49981874  0.00208081  1
  Ir  Ir4  1  0.99935045  0.99949762  0.99969548  1
  Ir  Ir5  1  0.49931932  0.99941701  0.50061989  1
  Pt  Pt0  1  0.00115226  0.99951783  0.50062887  1
loop_
_geom_bond_atom_site_label_1
_geom_bond_atom_site_label_2
_geom_bond_distance
_geom_bond_site_symmetry_2
Ti0 Ti6 2.903828 1_554
Ti1 Ti6 2.954159 1_555
Ti2 Ti7 2.957514 1_555
Ti2 Ti6 2.981212 1_565
Ti3 Ti7 2.950821 1_556
Ti4 Ti7 2.935430 1_555
Al0 Ti2 2.569455 1_655
Al0 Ti3 2.577569 1_655
Al0 Ti0 2.579916 1_555
Al0 Ti4 2.583314 1_555
Al0 Ti1 2.586166 1_655
Al0 Ti5 2.588137 1_555
Al1 Ir4 2.484836 1_444
Al1 Ir3 2.491214 1_555
Al1 Ir2 2.491980 1_555
Al1 Ti1 2.715138 1_555
Al1 Ti0 2.726235 1_455
Al1 Ti2 2.750054 1_555
Al2 Ir4 2.485318 1_455
Al2 Ir0 2.490815 1_555
Al2 Pt0 2.507962 1_555
Al2 Ti3 2.708861 1_555
Al2 Ti4 2.737561 1_455
Al2 Ti2 2.764008 1_555
Al3 Ir3 2.489114 1_556
Al3 Ir1 2.496476 1_556
Al3 Pt0 2.504973 1_545
Al3 Ti5 2.741625 1_455
Al3 Ti3 2.750452 1_555
Al3 Ti1 2.774163 1_555
Al4 Ir2 2.489260 1_555
Al4 Ir0 2.491109 1_544
Al4 Ir1 2.497597 1_555
Al4 Ti5 2.717047 1_555
Al4 Ti4 2.756914 1_555
Al4 Ti0 2.770562 1_555
Al5 Ir4 2.503357 1_555
Al5 Ir3 2.511857 1_656
Al5 Ir2 2.513806 1_555
Al5 Ti5 2.742615 1_555
Al5 Ti4 2.766948 1_555
Al5 Ti3 2.779121 1_655
Al6 Ir4 2.498183 1_544
Al6 Ir0 2.504981 1_544
Al6 Pt0 2.521681 1_645
Al6 Ti0 2.757268 1_555
Al6 Ti5 2.763206 1_555
Al6 Ti1 2.788215 1_655
Al7 Ir3 2.498587 1_655
Al7 Ir1 2.507823 1_555
Al7 Pt0 2.511765 1_655
Al7 Ti0 2.720422 1_555
Al7 Ti4 2.751768 1_555
Al7 Ti2 2.778592 1_655
Al8 Ir0 2.500861 1_555
Al8 Ir2 2.501528 1_555
Al8 Ir1 2.512516 1_556
Al8 Ti1 2.734303 1_555
Al8 Ti3 2.742587 1_555
Al8 Ti2 2.761027 1_555
Al9 Ir5 2.570102 1_545
Al9 Ir2 2.658209 1_555
Al9 Ir0 2.662924 1_544
Al9 Ir4 2.674061 1_444
Al9 Ti5 2.869229 1_555
Al9 Ti1 2.879272 1_555
Al9 Ti3 2.889324 1_544
Al10 Ir5 2.558762 1_545
Al10 Ir3 2.646803 1_656
Al10 Ir4 2.659448 1_545
Al10 Pt0 2.697455 1_645
Al10 Ti0 2.861623 1_556
Al10 Ti5 2.896620 1_555
Al10 Ti4 2.908191 1_545
Al11 Ir5 2.568388 1_555
Al11 Ir0 2.662451 1_554
Al11 Ir1 2.665261 1_555
Al11 Pt0 2.701736 1_655
Al11 Ti3 2.880541 1_554
Al11 Ti5 2.892093 1_565
Al11 Ti4 2.923319 1_555
Al12 Ir5 2.572241 1_545
Al12 Ir2 2.669687 1_555
Al12 Ir3 2.677153 1_656
Al12 Ir1 2.681682 1_556
Al12 Ti5 2.871229 1_555
Al12 Ti1 2.892079 1_555
Al12 Ti0 2.905016 1_556
Al13 Ir5 2.570019 1_555
Al13 Ir2 2.652232 1_555
Al13 Ir4 2.656231 1_555
Al13 Ir0 2.659524 1_555
Al13 Ti4 2.923816 1_555
Al13 Ti0 2.938478 1_566
Al13 Ti2 2.953771 1_555
Al14 Ir5 2.563609 1_555
Al14 Ir4 2.645250 1_454
Al14 Ir3 2.649035 1_555
Al14 Pt0 2.685791 1_555
Al14 Ti3 2.909468 1_554
Al14 Ti1 2.941307 1_565
Al14 Ti2 2.979107 1_555
Ir0 Ti6 2.644228 1_565
Ir0 Ti3 3.032753 1_555
Ir0 Ti2 3.077475 1_555
Ir0 Ti5 3.083075 1_566
Ir0 Ti0 3.122670 1_566
Ir1 Ti6 2.617764 1_554
Ir1 Ti7 2.632338 1_555
Ir1 Ti0 3.089261 1_555
Ir1 Ti4 3.091683 1_555
Ir1 Ti3 3.093361 1_554
Ir1 Ti1 3.094467 1_554
Ir2 Ti7 2.653310 1_555
Ir2 Ti1 3.018325 1_555
Ir2 Ti2 3.067004 1_555
Ir2 Ti5 3.069712 1_555
Ir2 Ti4 3.112725 1_555
Ir3 Ti7 2.657953 1_555
Ir3 Ti0 3.032536 1_455
Ir3 Ti2 3.081523 1_555
Ir3 Ti5 3.091196 1_454
Ir3 Ti3 3.129329 1_554
Ir4 Ti4 3.070896 1_555
Ir4 Ti3 3.071267 1_655
Ir4 Ti0 3.073387 1_566
Ir4 Ti1 3.075223 1_666
Ir5 Ti6 2.545825 1_565
Ir5 Ti7 2.558754 1_555
Pt0 Ti6 2.700609 1_565
Pt0 Ti4 3.048967 1_455
Pt0 Ti2 3.088671 1_555
Pt0 Ti5 3.097388 1_465
Pt0 Ti1 3.132018 1_565
