# generated using pymatgen
data_Sr10TcSnN10
_symmetry_space_group_name_H-M   'P 1'
_cell_length_a   7.32543199
_cell_length_b   7.32543183
_cell_length_c   9.39656763
_cell_angle_alpha   81.91359202
_cell_angle_beta   81.91359271
_cell_angle_gamma   59.90078033
_symmetry_Int_Tables_number   1
_chemical_formula_structural   Sr10TcSnN10
_chemical_formula_sum   'Sr10 Tc1 Sn1 N10'
_cell_volume   430.45849683
_cell_formula_units_Z   1
loop_
 _symmetry_equiv_pos_site_id
 _symmetry_equiv_pos_as_xyz
  1  'x, y, z'
loop_
 _atom_site_type_symbol
 _atom_site_label
 _atom_site_symmetry_multiplicity
 _atom_site_fract_x
 _atom_site_fract_y
 _atom_site_fract_z
 _atom_site_occupancy
  Sr  Sr0  1  0.88890937  0.35808768  0.84076447  1
  Sr  Sr1  1  0.88001895  0.88001895  0.81600348  1
  Sr  Sr2  1  0.73807237  0.73807237  0.53485622  1
  Sr  Sr3  1  0.74323349  0.25452087  0.51189873  1
  Sr  Sr4  1  0.62528145  0.12247100  0.14040771  1
  Sr  Sr5  1  0.35808768  0.88890937  0.84076447  1
  Sr  Sr6  1  0.25452087  0.74323349  0.51189873  1
  Sr  Sr7  1  0.24070037  0.24070037  0.50298067  1
  Sr  Sr8  1  0.13211000  0.13211000  0.16845480  1
  Sr  Sr9  1  0.12247100  0.62528145  0.14040771  1
  Tc  Tc0  1  0.63517317  0.63517317  0.22860911  1
  Sn  Sn0  1  0.37075455  0.37075455  0.77438665  1
  N  N0  1  0.88541420  0.48202822  0.31677024  1
  N  N1  1  0.99384899  0.99384899  0.01710029  1
  N  N2  1  0.69225134  0.69225134  0.04113140  1
  N  N3  1  0.54117354  0.54117354  0.69977660  1
  N  N4  1  0.48202822  0.88541420  0.31677024  1
  N  N5  1  0.54439437  0.08021629  0.66881173  1
  N  N6  1  0.48918938  0.48918938  0.27004540  1
  N  N7  1  0.29975299  0.29975299  0.98948080  1
  N  N8  1  0.06468542  0.06468542  0.64567483  1
  N  N9  1  0.08021629  0.54439437  0.66881173  1
loop_
_geom_bond_atom_site_label_1
_geom_bond_atom_site_label_2
_geom_bond_distance
_geom_bond_site_symmetry_2
N0 Tc0 1.846150 1_555
N0 Sr2 2.703888 1_555
N0 Sr9 2.718829 1_655
N0 Sr8 2.725601 1_655
N0 Sr3 2.751045 1_555
N0 Sr7 2.959157 1_655
N1 Sr8 2.431805 1_665
N1 Sr9 2.528901 1_655
N1 Sr4 2.528901 1_565
N1 Sr1 2.558370 1_554
N1 Sr0 2.740990 1_564
N1 Sr5 2.740990 1_654
N2 Tc0 1.792750 1_555
N2 Sr1 2.918790 1_554
N2 Sr0 2.934082 1_554
N2 Sr5 2.934082 1_554
N2 Sr4 3.192295 1_565
N2 Sr9 3.192295 1_655
N3 Sn0 2.163141 1_555
N3 Sr6 2.628169 1_555
N3 Sr3 2.628169 1_555
N3 Sr5 2.658113 1_555
N3 Sr0 2.658113 1_555
N3 Sr2 2.718707 1_555
N4 Tc0 1.846150 1_555
N4 Sr2 2.703888 1_555
N4 Sr4 2.718829 1_565
N4 Sr8 2.725601 1_565
N4 Sr6 2.751045 1_555
N4 Sr7 2.959157 1_565
N5 Sn0 2.157666 1_555
N5 Sr7 2.568290 1_555
N5 Sr3 2.580222 1_555
N5 Sr2 2.587977 1_545
N5 Sr1 2.622588 1_545
N5 Sr5 2.664240 1_545
N6 Tc0 1.830726 1_555
N6 Sr4 2.754482 1_555
N6 Sr9 2.754482 1_555
N6 Sr3 2.909483 1_555
N6 Sr6 2.909483 1_555
N7 Sn0 2.075071 1_555
N7 Sr8 2.488994 1_556
N7 Sr9 2.590648 1_556
N7 Sr4 2.590648 1_556
N8 Sr7 2.411971 1_555
N8 Sr6 2.472950 1_545
N8 Sr3 2.472950 1_455
N8 Sr1 2.615103 1_445
N8 Sr0 2.703070 1_455
N8 Sr5 2.703070 1_545
N9 Sn0 2.157666 1_555
N9 Sr7 2.568290 1_555
N9 Sr6 2.580222 1_555
N9 Sr2 2.587977 1_455
N9 Sr1 2.622588 1_455
N9 Sr0 2.664240 1_455
