# generated using pymatgen
data_Al2O3
_symmetry_space_group_name_H-M   'P 1'
_cell_length_a   16.66478317
_cell_length_b   5.59870206
_cell_length_c   5.59869353
_cell_angle_alpha   90.05735159
_cell_angle_beta   60.42748209
_cell_angle_gamma   59.11295961
_symmetry_Int_Tables_number   1
_chemical_formula_structural   Al2O3
_chemical_formula_sum   'Al16 O24'
_cell_volume   366.54952598
_cell_formula_units_Z   8
loop_
 _symmetry_equiv_pos_site_id
 _symmetry_equiv_pos_as_xyz
  1  'x, y, z'
loop_
 _atom_site_type_symbol
 _atom_site_label
 _atom_site_symmetry_multiplicity
 _atom_site_fract_x
 _atom_site_fract_y
 _atom_site_fract_z
 _atom_site_occupancy
  Al  Al0  1  -0.00000033  -0.00038434  -0.00038366  1
  Al  Al1  1  0.09183095  0.34368663  0.10519899  1
  Al  Al2  1  0.09010592  0.34677236  0.61528266  1
  Al  Al3  1  0.33265685  0.01703651  0.00534628  1
  Al  Al4  1  0.16734315  0.73296349  0.24465372  1
  Al  Al5  1  0.25000000  0.37500000  0.62500000  1
  Al  Al6  1  0.40816905  0.40631337  0.14480101  1
  Al  Al7  1  0.40989408  0.40322764  0.63471734  1
  Al  Al8  1  0.66734434  0.00331453  0.01500491  1
  Al  Al9  1  0.50000033  0.75038434  0.25038366  1
  Al  Al10  1  0.59183141  0.36930955  0.63082021  1
  Al  Al11  1  0.75000000  0.37500000  0.12500000  1
  Al  Al12  1  0.59010758  0.86439843  0.63290854  1
  Al  Al13  1  0.83265566  0.74668547  0.23499509  1
  Al  Al14  1  0.90816859  0.38069045  0.61917979  1
  Al  Al15  1  0.90989242  0.88560157  0.61709146  1
  O  O0  1  0.08047780  0.13731221  0.37610723  1
  O  O1  1  0.07359740  0.15895158  0.88607131  1
  O  O2  1  0.07514125  0.60970649  0.38408957  1
  O  O3  1  0.24525690  0.15111998  0.38741577  1
  O  O4  1  0.08621911  0.59930997  0.86724557  1
  O  O5  1  0.25423657  0.59831263  0.37146877  1
  O  O6  1  0.24576343  0.15168737  0.87853123  1
  O  O7  1  0.41378089  0.15069003  0.38275443  1
  O  O8  1  0.25474310  0.59888002  0.86258423  1
  O  O9  1  0.42485875  0.14029351  0.86591043  1
  O  O10  1  0.42640260  0.59104842  0.36392869  1
  O  O11  1  0.57514141  0.14048858  0.41486924  1
  O  O12  1  0.41952220  0.61268779  0.87389277  1
  O  O13  1  0.58621805  0.62410085  0.39203260  1
  O  O14  1  0.58047864  0.13245870  0.87125317  1
  O  O15  1  0.74576322  0.13417800  0.36102172  1
  O  O16  1  0.57359689  0.64313865  0.87026097  1
  O  O17  1  0.75474291  0.12318709  0.88689062  1
  O  O18  1  0.74525709  0.62681291  0.36310938  1
  O  O19  1  0.92640311  0.10686135  0.37973903  1
  O  O20  1  0.75423678  0.61582200  0.88897828  1
  O  O21  1  0.91952136  0.61754130  0.37874683  1
  O  O22  1  0.91378195  0.12589915  0.85796740  1
  O  O23  1  0.92485859  0.60951142  0.83513076  1
loop_
_geom_bond_atom_site_label_1
_geom_bond_atom_site_label_2
_geom_bond_distance
_geom_bond_site_symmetry_2
Al0 O19 1.748987 1_455
Al0 O1 1.749020 1_554
Al0 O22 1.809987 1_454
Al0 O4 1.810003 1_544
Al1 O6 1.816423 1_554
Al1 O1 1.831732 1_554
Al1 O0 1.901576 1_555
Al1 O4 1.954782 1_554
Al1 O2 1.968503 1_555
Al1 O21 2.018950 1_455
Al2 O3 1.829240 1_555
Al2 O1 1.835325 1_555
Al2 O0 1.896365 1_555
Al2 O23 1.937539 1_455
Al2 O4 1.950647 1_555
Al2 O2 1.962186 1_555
Al3 O3 1.749176 1_555
Al3 O6 1.750538 1_554
Al3 O12 1.828275 1_544
Al3 O9 1.830925 1_554
Al4 O8 1.749176 1_554
Al4 O5 1.750538 1_555
Al4 O0 1.828275 1_565
Al4 O2 1.830925 1_555
Al5 O8 1.883837 1_555
Al5 O3 1.883837 1_555
Al5 O6 1.891618 1_555
Al5 O5 1.891618 1_555
Al5 O4 1.920856 1_555
Al5 O7 1.920856 1_555
Al6 O5 1.816423 1_555
Al6 O10 1.831732 1_555
Al6 O12 1.901576 1_554
Al6 O7 1.954782 1_555
Al6 O9 1.968503 1_554
Al6 O14 2.018950 1_554
Al7 O8 1.829240 1_555
Al7 O10 1.835325 1_555
Al7 O12 1.896365 1_555
Al7 O11 1.937539 1_555
Al7 O7 1.950647 1_555
Al7 O9 1.962186 1_555
Al8 O17 1.749173 1_554
Al8 O20 1.750526 1_544
Al8 O14 1.828275 1_554
Al8 O11 1.830929 1_555
Al9 O16 1.748987 1_554
Al9 O10 1.749020 1_555
Al9 O13 1.809987 1_555
Al9 O7 1.810003 1_565
Al10 O15 1.816415 1_555
Al10 O16 1.831744 1_555
Al10 O14 1.901581 1_555
Al10 O13 1.954791 1_555
Al10 O11 1.968506 1_555
Al10 O12 2.018947 1_555
Al11 O18 1.883837 1_555
Al11 O17 1.883837 1_554
Al11 O15 1.891618 1_555
Al11 O20 1.891618 1_554
Al11 O22 1.920867 1_554
Al11 O13 1.920867 1_555
Al12 O18 1.829223 1_555
Al12 O16 1.835339 1_555
Al12 O14 1.896359 1_565
Al12 O9 1.937556 1_565
Al12 O13 1.950656 1_555
Al12 O11 1.962196 1_565
Al13 O18 1.749173 1_555
Al13 O15 1.750526 1_565
Al13 O21 1.828275 1_555
Al13 O23 1.830929 1_554
Al14 O20 1.816415 1_555
Al14 O19 1.831744 1_555
Al14 O21 1.901581 1_555
Al14 O22 1.954791 1_555
Al14 O23 1.968506 1_555
Al14 O0 2.018947 1_655
Al15 O17 1.829223 1_565
Al15 O19 1.835339 1_565
Al15 O21 1.896359 1_555
Al15 O2 1.937556 1_655
Al15 O22 1.950656 1_565
Al15 O23 1.962196 1_555
