# generated using pymatgen
data_Sr2GaPbF9
_symmetry_space_group_name_H-M   'P 1'
_cell_length_a   5.63953966
_cell_length_b   5.63428359
_cell_length_c   12.64027051
_cell_angle_alpha   91.17436066
_cell_angle_beta   101.23958677
_cell_angle_gamma   92.24947408
_symmetry_Int_Tables_number   1
_chemical_formula_structural   Sr2GaPbF9
_chemical_formula_sum   'Sr4 Ga2 Pb2 F18'
_cell_volume   393.47251408
_cell_formula_units_Z   2
loop_
 _symmetry_equiv_pos_site_id
 _symmetry_equiv_pos_as_xyz
  1  'x, y, z'
loop_
 _atom_site_type_symbol
 _atom_site_label
 _atom_site_symmetry_multiplicity
 _atom_site_fract_x
 _atom_site_fract_y
 _atom_site_fract_z
 _atom_site_occupancy
  Sr  Sr0  1  0.95336325  0.24276430  0.38135293  1
  Sr  Sr1  1  0.04663675  0.75723570  0.61864707  1
  Sr  Sr2  1  0.55288754  0.26226220  0.61885678  1
  Sr  Sr3  1  0.44711246  0.73773780  0.38114322  1
  Ga  Ga0  1  0.79295077  0.79428617  0.17434765  1
  Ga  Ga1  1  0.20704923  0.20571383  0.82565235  1
  Pb  Pb0  1  0.74209272  0.70727006  0.90077208  1
  Pb  Pb1  1  0.25790728  0.29272994  0.09922792  1
  F  F0  1  0.14066698  0.95657117  0.91434407  1
  F  F1  1  0.85933302  0.04342883  0.08565593  1
  F  F2  1  0.26190143  0.44322693  0.72735777  1
  F  F3  1  0.73809857  0.55677307  0.27264223  1
  F  F4  1  0.62045044  0.00550983  0.25292542  1
  F  F5  1  0.37954956  0.99449017  0.74707458  1
  F  F6  1  0.96038039  0.58765167  0.09408770  1
  F  F7  1  0.03961961  0.41234833  0.90591230  1
  F  F8  1  0.07754481  0.89514221  0.27493050  1
  F  F9  1  0.92245519  0.10485779  0.72506950  1
  F  F10  1  0.50014757  0.68732539  0.08387465  1
  F  F11  1  0.49985243  0.31267461  0.91612535  1
  F  F12  1  0.74848162  0.99669849  0.49973569  1
  F  F13  1  0.25151838  0.00330151  0.50026431  1
  F  F14  1  0.74923994  0.49380807  0.49591746  1
  F  F15  1  0.25076006  0.50619193  0.50408254  1
  F  F16  1  0.74820936  0.61365559  0.72123655  1
  F  F17  1  0.25179064  0.38634441  0.27876345  1
loop_
_geom_bond_atom_site_label_1
_geom_bond_atom_site_label_2
_geom_bond_distance
_geom_bond_site_symmetry_2
F0 Ga1 1.885294 1_565
F0 Pb0 2.578152 1_455
F1 Ga0 1.885294 1_545
F1 Pb1 2.578152 1_655
F2 Ga1 1.901508 1_555
F2 Sr1 2.471862 1_555
F2 Sr2 2.562209 1_555
F3 Ga0 1.901508 1_555
F3 Sr0 2.471862 1_555
F3 Sr3 2.562209 1_555
F4 Ga0 1.941222 1_545
F4 Sr3 2.541758 1_545
F4 Sr0 2.544219 1_555
F5 Ga1 1.941222 1_565
F5 Sr2 2.541758 1_565
F5 Sr1 2.544219 1_555
F6 Ga0 1.920297 1_555
F6 Pb1 2.400328 1_655
F6 Pb0 2.626915 1_554
F7 Ga1 1.920297 1_555
F7 Pb0 2.400328 1_455
F7 Pb1 2.626915 1_556
F8 Ga0 1.902273 1_455
F8 Sr3 2.456819 1_555
F8 Sr0 2.550116 1_465
F9 Ga1 1.902273 1_655
F9 Sr2 2.456819 1_555
F9 Sr1 2.550116 1_645
F10 Ga0 1.885526 1_555
F10 Pb1 2.594121 1_555
F11 Ga1 1.885526 1_555
F11 Pb0 2.594121 1_555
F12 Sr3 2.446848 1_555
F12 Sr0 2.475808 1_565
F12 Sr1 2.486536 1_655
F12 Sr2 2.531288 1_565
F13 Sr2 2.446848 1_555
F13 Sr1 2.475808 1_545
F13 Sr0 2.486536 1_455
F13 Sr3 2.531288 1_545
F14 Sr2 2.446127 1_555
F14 Sr0 2.473181 1_555
F14 Sr1 2.473548 1_655
F14 Sr3 2.489725 1_555
F15 Sr3 2.446127 1_555
F15 Sr1 2.473181 1_555
F15 Sr0 2.473548 1_455
F15 Sr2 2.489725 1_555
F16 Pb0 2.326445 1_555
F16 Sr1 2.440363 1_655
F16 Sr2 2.444579 1_555
F17 Pb1 2.326445 1_555
F17 Sr0 2.440363 1_455
F17 Sr3 2.444579 1_555
