# generated using pymatgen
data_Sc4As6Ir3Ru4
_symmetry_space_group_name_H-M   'P 1'
_cell_length_a   7.03710989
_cell_length_b   7.04804106
_cell_length_c   7.04804090
_cell_angle_alpha   109.50261023
_cell_angle_beta   109.43980980
_cell_angle_gamma   109.43980153
_symmetry_Int_Tables_number   1
_chemical_formula_structural   Sc4As6Ir3Ru4
_chemical_formula_sum   'Sc4 As6 Ir3 Ru4'
_cell_volume   269.20154711
_cell_formula_units_Z   1
loop_
 _symmetry_equiv_pos_site_id
 _symmetry_equiv_pos_as_xyz
  1  'x, y, z'
loop_
 _atom_site_type_symbol
 _atom_site_label
 _atom_site_symmetry_multiplicity
 _atom_site_fract_x
 _atom_site_fract_y
 _atom_site_fract_z
 _atom_site_occupancy
  Sc  Sc0  1  0.00040856  0.00081712  0.50040856  1
  Sc  Sc1  1  0.50000000  0.00000000  0.00000000  1
  Sc  Sc2  1  0.99959144  0.49959144  0.99918288  1
  Sc  Sc3  1  0.50000000  0.49959144  0.50040856  1
  As  As0  1  0.68273661  0.68249116  0.99356810  1
  As  As1  1  0.31083049  0.31107494  0.99356810  1
  As  As2  1  0.99975555  0.68249116  0.68892506  1
  As  As3  1  0.00024445  0.31107494  0.31750884  1
  As  As4  1  0.68916951  0.00643190  0.68892506  1
  As  As5  1  0.31726339  0.00643190  0.31750884  1
  Ir  Ir0  1  0.50000000  0.75091823  0.24908177  1
  Ir  Ir1  1  0.74908177  0.49816254  0.24908177  1
  Ir  Ir2  1  0.25091823  0.75091823  0.50183746  1
  Ru  Ru0  1  0.00000000  0.00000000  0.00000000  1
  Ru  Ru1  1  0.24968976  0.49938052  0.74968976  1
  Ru  Ru2  1  0.75031024  0.25031024  0.50061948  1
  Ru  Ru3  1  0.50000000  0.25031024  0.74968976  1
loop_
_geom_bond_atom_site_label_1
_geom_bond_atom_site_label_2
_geom_bond_distance
_geom_bond_site_symmetry_2
As0 Ru3 2.512364 1_555
As0 Ru1 2.514170 1_555
As0 Ir0 2.550243 1_556
As0 Ru0 2.556115 1_666
As0 Ir1 2.560304 1_556
As0 Sc3 2.885541 1_555
As0 Sc2 2.919525 1_555
As0 Sc1 2.924049 1_566
As0 Sc0 2.964212 1_666
As1 Ru1 2.512380 1_555
As1 Ru3 2.514173 1_555
As1 Ir1 2.550248 1_556
As1 Ru0 2.556103 1_556
As1 Ir0 2.560309 1_556
As1 Sc0 2.885539 1_555
As1 Sc2 2.919529 1_455
As1 Sc1 2.924041 1_556
As1 Sc3 2.964210 1_556
As2 Ru2 2.512362 1_555
As2 Ru1 2.514156 1_655
As2 Ir2 2.550243 1_655
As2 Ru0 2.556111 1_666
As2 Ir1 2.560310 1_555
As2 Sc2 2.885529 1_555
As2 Sc3 2.919531 1_555
As2 Sc1 2.924043 1_666
As2 Sc0 2.964222 1_665
As3 Ru1 2.512362 1_555
As3 Ru2 2.514156 1_455
As3 Ir1 2.550243 1_455
As3 Ru0 2.556111 1_555
As3 Ir2 2.560310 1_555
As3 Sc0 2.885529 1_555
As3 Sc3 2.919531 1_555
As3 Sc1 2.924043 1_455
As3 Sc2 2.964222 1_454
As4 Ru2 2.512380 1_555
As4 Ru3 2.514173 1_555
As4 Ir2 2.550248 1_545
As4 Ru0 2.556103 1_656
As4 Ir0 2.560309 1_545
As4 Sc2 2.885540 1_555
As4 Sc0 2.919529 1_655
As4 Sc1 2.924041 1_556
As4 Sc3 2.964210 1_545
As5 Ru3 2.512364 1_555
As5 Ru2 2.514170 1_555
As5 Ir0 2.550243 1_545
As5 Ru0 2.556115 1_555
As5 Ir2 2.560304 1_545
As5 Sc3 2.885542 1_555
As5 Sc0 2.919526 1_555
As5 Sc1 2.924049 1_555
As5 Sc2 2.964212 1_444
Ir0 Sc1 2.867338 1_565
Ir0 Sc0 2.876931 1_665
Ir0 Sc2 2.876931 1_454
Ir0 Sc3 2.893181 1_555
Ir1 Sc1 2.867332 1_555
Ir1 Sc3 2.876930 1_555
Ir1 Sc2 2.876930 1_554
Ir1 Sc0 2.893188 1_665
Ir2 Sc1 2.867332 1_566
Ir2 Sc3 2.876930 1_555
Ir2 Sc0 2.876930 1_565
Ir2 Sc2 2.893187 1_454
Ru1 Sc0 2.869640 1_555
Ru1 Sc3 2.872210 1_555
Ru1 Sc2 2.872210 1_455
Ru1 Sc1 2.881474 1_566
Ru2 Sc2 2.869639 1_555
Ru2 Sc3 2.872210 1_555
Ru2 Sc0 2.872210 1_655
Ru2 Sc1 2.881474 1_555
Ru3 Sc3 2.869633 1_555
Ru3 Sc2 2.872210 1_555
Ru3 Sc0 2.872210 1_555
Ru3 Sc1 2.881479 1_556
