# generated using pymatgen
data_Zn22AgPtRh2
_symmetry_space_group_name_H-M   'P 1'
_cell_length_a   7.84946457
_cell_length_b   7.82040503
_cell_length_c   7.82840307
_cell_angle_alpha   109.40453107
_cell_angle_beta   109.55496439
_cell_angle_gamma   109.48798626
_symmetry_Int_Tables_number   1
_chemical_formula_structural   Zn22AgPtRh2
_chemical_formula_sum   'Zn22 Ag1 Pt1 Rh2'
_cell_volume   369.77590249
_cell_formula_units_Z   1
loop_
 _symmetry_equiv_pos_site_id
 _symmetry_equiv_pos_as_xyz
  1  'x, y, z'
loop_
 _atom_site_type_symbol
 _atom_site_label
 _atom_site_symmetry_multiplicity
 _atom_site_fract_x
 _atom_site_fract_y
 _atom_site_fract_z
 _atom_site_occupancy
  Zn  Zn0  1  0.99634905  0.78183770  1.00000000  1
  Zn  Zn1  1  0.78591770  0.99313415  0.00000000  1
  Zn  Zn2  1  0.99688153  0.99329853  0.77863112  1
  Zn  Zn3  1  0.21824941  0.21466642  0.22136888  1
  Zn  Zn4  1  0.35569939  0.62313193  0.35329183  1
  Zn  Zn5  1  0.26966666  0.00768053  0.65060410  1
  Zn  Zn6  1  0.65475888  0.00633945  0.27371397  1
  Zn  Zn7  1  0.28397429  0.65346656  1.00000000  1
  Zn  Zn8  1  0.73050143  0.73537636  0.38121854  1
  Zn  Zn9  1  0.38104491  0.73262548  0.72628603  1
  Zn  Zn10  1  0.00124334  0.65597987  0.28591099  1
  Zn  Zn11  1  0.00240756  0.26984110  0.64670817  1
  Zn  Zn12  1  0.64853676  0.27361204  0.00000000  1
  Zn  Zn13  1  0.34928290  0.35415782  0.61878146  1
  Zn  Zn14  1  0.61906257  0.35707644  0.34939590  1
  Zn  Zn15  1  0.71533234  0.37006987  0.71408901  1
  Zn  Zn16  1  0.35581606  0.35646212  0.00000000  1
  Zn  Zn17  1  0.99776596  0.63367759  0.64940891  1
  Zn  Zn18  1  0.99686560  0.35364266  0.35517448  1
  Zn  Zn19  1  0.34835706  0.98427069  0.35059109  1
  Zn  Zn20  1  0.64169111  0.99846818  0.64482552  1
  Zn  Zn21  1  0.64761453  0.63717049  1.00000000  1
  Ag  Ag0  1  0.00033564  0.35481362  0.00000000  1
  Pt  Pt0  1  0.34691074  0.00153003  0.00000000  1
  Rh  Rh0  1  0.00071127  0.00168068  0.34568898  1
  Rh  Rh1  1  0.65502229  0.65599170  0.65431102  1
loop_
_geom_bond_atom_site_label_1
_geom_bond_atom_site_label_2
_geom_bond_distance
_geom_bond_site_symmetry_2
Zn0 Zn21 2.589762 1_555
Zn0 Zn19 2.606007 1_656
Zn0 Zn17 2.606008 1_555
Zn0 Zn1 2.698145 1_556
Zn0 Zn15 2.722383 1_555
Zn0 Zn10 2.722388 1_656
Zn0 Zn7 2.759955 1_655
Zn0 Zn3 2.764489 1_666
Zn0 Zn2 2.764495 1_555
Zn1 Zn21 2.628988 1_554
Zn1 Zn20 2.648716 1_554
Zn1 Zn18 2.648716 1_565
Zn1 Zn6 2.657554 1_565
Zn1 Zn9 2.657554 1_554
Zn1 Zn12 2.748145 1_565
Zn1 Zn3 2.768830 1_665
Zn1 Zn2 2.768836 1_554
Zn2 Zn8 2.604051 1_555
Zn2 Zn5 2.636812 1_665
Zn2 Zn20 2.649612 1_555
Zn2 Zn3 2.829027 1_666
Zn3 Zn4 2.682740 1_555
Zn4 Zn7 2.739548 1_554
Zn6 Zn7 2.686034 1_544
Zn7 Zn9 2.686034 1_555
Zn10 Zn18 2.587606 1_455
Zn10 Zn5 2.654051 1_565
Zn10 Zn8 2.663200 1_455
Zn10 Zn12 2.738091 1_455
Zn10 Zn4 2.769446 1_555
Zn10 Zn19 2.795865 1_555
Zn10 Zn21 2.843610 1_454
Zn10 Zn17 2.916720 1_455
Zn11 Zn18 2.566405 1_455
Zn11 Zn2 2.682741 1_445
Zn11 Zn7 2.739545 1_555
Zn11 Zn15 2.769446 1_455
Zn11 Zn17 2.850876 1_455
Zn11 Zn16 2.858107 1_556
Zn11 Zn20 2.909144 1_445
Zn12 Zn16 2.586994 1_555
Zn12 Zn14 2.701671 1_555
Zn12 Zn5 2.701671 1_554
Zn12 Zn15 2.738094 1_554
Zn12 Zn21 2.845597 1_554
Zn12 Zn18 2.865519 1_555
Zn12 Zn20 2.865519 1_544
Zn13 Zn21 2.600621 1_555
Zn13 Zn3 2.604049 1_555
Zn13 Zn15 2.663197 1_555
Zn13 Zn18 2.841917 1_455
Zn13 Zn19 2.952254 1_545
Zn13 Zn16 2.961485 1_556
Zn14 Zn17 2.586876 1_555
Zn14 Zn3 2.636818 1_555
Zn14 Zn15 2.654048 1_555
Zn14 Zn16 2.819988 1_555
Zn14 Zn18 2.959966 1_555
Zn14 Zn19 2.985514 1_545
Zn15 Zn20 2.587614 1_545
Zn15 Zn17 2.795852 1_555
Zn15 Zn21 2.843606 1_555
Zn15 Zn19 2.916717 1_545
Zn16 Zn7 2.566486 1_554
Zn16 Zn21 2.590460 1_554
Zn16 Zn2 2.670105 1_444
Zn16 Zn3 2.670112 1_555
Zn16 Zn5 2.819988 1_554
Zn16 Zn4 2.858104 1_555
Zn16 Zn8 2.961485 1_555
Zn17 Zn18 2.593955 1_555
Zn17 Zn9 2.633902 1_655
Zn17 Zn2 2.657099 1_555
Zn17 Zn7 2.821692 1_655
Zn17 Zn8 2.952265 1_555
Zn17 Zn5 2.985526 1_665
Zn18 Zn3 2.649609 1_655
Zn18 Zn6 2.798407 1_555
Zn18 Zn4 2.909141 1_655
Zn18 Zn9 2.961194 1_655
Zn19 Zn5 2.586878 1_565
Zn19 Zn20 2.593964 1_555
Zn19 Zn6 2.633904 1_565
Zn19 Zn3 2.657081 1_565
Zn19 Zn7 2.821700 1_554
Zn19 Zn4 2.850900 1_555
Zn20 Zn4 2.566410 1_555
Zn20 Zn9 2.798407 1_555
Zn20 Zn8 2.841917 1_555
Zn20 Zn5 2.959966 1_565
Zn20 Zn6 2.961194 1_565
Zn21 Zn8 2.600621 1_556
Zn21 Zn7 2.899387 1_555
Zn21 Zn9 2.937777 1_555
Zn21 Zn6 2.937777 1_566
Ag0 Zn12 2.618921 1_455
Ag0 Zn4 2.628139 1_555
Ag0 Zn11 2.628140 1_554
Ag0 Zn7 2.634835 1_554
Ag0 Zn10 2.651829 1_555
Ag0 Zn15 2.651834 1_454
Ag0 Zn1 2.767075 1_445
Ag0 Zn2 2.767454 1_444
Ag0 Zn3 2.767456 1_555
Ag0 Zn16 2.786057 1_555
Ag0 Zn18 2.792700 1_455
Ag0 Zn20 2.792700 1_444
Pt0 Zn7 2.599251 1_544
Pt0 Zn12 2.602259 1_555
Pt0 Zn5 2.616872 1_554
Pt0 Zn14 2.616872 1_555
Pt0 Zn6 2.617561 1_555
Pt0 Zn9 2.617561 1_544
Pt0 Zn2 2.678951 1_444
Pt0 Zn3 2.678953 1_555
Pt0 Zn0 2.714661 1_444
Pt0 Zn16 2.753182 1_555
Pt0 Zn19 2.788785 1_545
Pt0 Zn17 2.788791 1_444
Rh0 Zn11 2.574456 1_555
Rh0 Zn5 2.577400 1_555
Rh0 Zn10 2.587704 1_545
Rh0 Zn8 2.597274 1_445
Rh0 Zn6 2.597760 1_455
Rh0 Zn13 2.606026 1_555
Rh0 Zn1 2.630752 1_445
Rh0 Zn3 2.632336 1_555
Rh0 Zn0 2.662263 1_444
Rh0 Zn18 2.739293 1_455
Rh0 Zn19 2.765467 1_545
Rh0 Zn21 2.777198 1_444
Rh1 Zn4 2.574452 1_555
Rh1 Zn14 2.577400 1_555
Rh1 Zn15 2.587697 1_555
Rh1 Zn13 2.597275 1_555
Rh1 Zn9 2.597760 1_555
Rh1 Zn8 2.606026 1_555
Rh1 Zn1 2.630753 1_556
Rh1 Zn2 2.632345 1_555
Rh1 Zn0 2.662263 1_555
Rh1 Zn20 2.739293 1_555
Rh1 Zn17 2.765473 1_555
Rh1 Zn21 2.777198 1_555
