# generated using pymatgen
data_TaAg2AsF12
_symmetry_space_group_name_H-M   'P 1'
_cell_length_a   5.24361915
_cell_length_b   5.87737355
_cell_length_c   7.88856632
_cell_angle_alpha   99.79592223
_cell_angle_beta   90.01117716
_cell_angle_gamma   90.29482642
_symmetry_Int_Tables_number   1
_chemical_formula_structural   TaAg2AsF12
_chemical_formula_sum   'Ta1 Ag2 As1 F12'
_cell_volume   239.56749248
_cell_formula_units_Z   1
loop_
 _symmetry_equiv_pos_site_id
 _symmetry_equiv_pos_as_xyz
  1  'x, y, z'
loop_
 _atom_site_type_symbol
 _atom_site_label
 _atom_site_symmetry_multiplicity
 _atom_site_fract_x
 _atom_site_fract_y
 _atom_site_fract_z
 _atom_site_occupancy
  Ta  Ta0  1  0.00000000  0.00000000  0.50000000  1
  Ag  Ag0  1  0.00000000  0.00000000  0.00000000  1
  Ag  Ag1  1  0.50000000  0.50000000  0.50000000  1
  As  As0  1  0.50000000  0.50000000  0.00000000  1
  F  F0  1  0.83877441  0.99305065  0.71653294  1
  F  F1  1  0.12550925  0.30530715  0.58155571  1
  F  F2  1  0.23410700  0.63122528  0.92461130  1
  F  F3  1  0.34697154  0.50005438  0.19729954  1
  F  F4  1  0.36967629  0.22765742  0.92197200  1
  F  F5  1  0.30072882  0.87066554  0.58236772  1
  F  F6  1  0.69927118  0.12933446  0.41763228  1
  F  F7  1  0.63032371  0.77234258  0.07802800  1
  F  F8  1  0.65302846  0.49994562  0.80270046  1
  F  F9  1  0.76589300  0.36877472  0.07538870  1
  F  F10  1  0.87449075  0.69469285  0.41844429  1
  F  F11  1  0.16122559  0.00694935  0.28346706  1
loop_
_geom_bond_atom_site_label_1
_geom_bond_atom_site_label_2
_geom_bond_distance
_geom_bond_site_symmetry_2
Ag0 F11 2.384233 1_555
Ag0 F0 2.384233 1_444
Ag0 F9 2.479393 1_455
Ag0 F2 2.479393 1_544
Ag0 F4 2.486116 1_554
Ag0 F7 2.486116 1_445
Ag1 F6 2.408747 1_555
Ag1 F5 2.408747 1_555
Ag1 F10 2.409820 1_555
Ag1 F1 2.409820 1_555
Ag1 F8 2.518994 1_555
Ag1 F3 2.518994 1_555
As0 F9 1.749071 1_555
As0 F2 1.749071 1_554
As0 F7 1.749656 1_555
As0 F4 1.749656 1_554
As0 F3 1.751176 1_555
As0 F8 1.751176 1_554
F0 Ta0 1.912603 1_665
F1 Ta0 1.913575 1_555
F5 Ta0 1.914852 1_565
F6 Ta0 1.914852 1_655
F10 Ta0 1.913575 1_665
F11 Ta0 1.912603 1_555
