# generated using pymatgen
data_Cd4Os3PdO14
_symmetry_space_group_name_H-M   'P 1'
_cell_length_a   7.15332815
_cell_length_b   7.15332751
_cell_length_c   7.15332773
_cell_angle_alpha   60.86804842
_cell_angle_beta   60.86805120
_cell_angle_gamma   60.86805063
_symmetry_Int_Tables_number   1
_chemical_formula_structural   Cd4Os3PdO14
_chemical_formula_sum   'Cd4 Os3 Pd1 O14'
_cell_volume   263.89215319
_cell_formula_units_Z   1
loop_
 _symmetry_equiv_pos_site_id
 _symmetry_equiv_pos_as_xyz
  1  'x, y, z'
loop_
 _atom_site_type_symbol
 _atom_site_label
 _atom_site_symmetry_multiplicity
 _atom_site_fract_x
 _atom_site_fract_y
 _atom_site_fract_z
 _atom_site_occupancy
  Cd  Cd0  1  0.12500000  0.12500000  0.12500000  1
  Cd  Cd1  1  0.62500000  0.12500000  0.12500000  1
  Cd  Cd2  1  0.12500000  0.62500000  0.12500000  1
  Cd  Cd3  1  0.12500000  0.12500000  0.62500000  1
  Os  Os0  1  0.12500000  0.62500000  0.62500000  1
  Os  Os1  1  0.62500000  0.12500000  0.62500000  1
  Os  Os2  1  0.62500000  0.62500000  0.12500000  1
  Pd  Pd0  1  0.62500000  0.62500000  0.62500000  1
  O  O0  1  0.24850237  0.24850237  0.24850237  1
  O  O1  1  0.00149763  0.00149763  0.00149763  1
  O  O2  1  0.54221619  0.96614173  0.54221619  1
  O  O3  1  0.31375994  0.70149974  0.31375994  1
  O  O4  1  0.54221619  0.54221619  0.96614173  1
  O  O5  1  0.96614173  0.54221619  0.54221619  1
  O  O6  1  0.54850026  0.93624006  0.93624006  1
  O  O7  1  0.93624006  0.93624006  0.54850026  1
  O  O8  1  0.93624006  0.54850026  0.93624006  1
  O  O9  1  0.70149974  0.31375994  0.31375994  1
  O  O10  1  0.28385827  0.70778381  0.70778381  1
  O  O11  1  0.70778381  0.28385827  0.70778381  1
  O  O12  1  0.31375994  0.31375994  0.70149974  1
  O  O13  1  0.70778381  0.70778381  0.28385827  1
loop_
_geom_bond_atom_site_label_1
_geom_bond_atom_site_label_2
_geom_bond_distance
_geom_bond_site_symmetry_2
Cd0 O0 2.149703 1_555
Cd0 O1 2.149703 1_555
Cd0 O8 2.575578 1_454
Cd0 O3 2.575578 1_545
Cd0 O7 2.575578 1_445
Cd0 O12 2.575578 1_554
Cd0 O6 2.575578 1_544
Cd0 O9 2.575578 1_455
Cd1 O1 2.222847 1_655
Cd1 O0 2.222847 1_555
Cd1 O4 2.486260 1_554
Cd1 O13 2.486260 1_545
Cd1 O2 2.486260 1_545
Cd1 O11 2.486260 1_554
Cd1 O9 2.675796 1_555
Cd1 O6 2.675796 1_544
Cd2 O1 2.222846 1_565
Cd2 O0 2.222846 1_555
Cd2 O5 2.486260 1_455
Cd2 O10 2.486260 1_554
Cd2 O4 2.486261 1_554
Cd2 O13 2.486261 1_455
Cd2 O3 2.675796 1_555
Cd2 O8 2.675796 1_454
Cd3 O1 2.222846 1_556
Cd3 O0 2.222846 1_555
Cd3 O5 2.486260 1_455
Cd3 O10 2.486260 1_545
Cd3 O2 2.486261 1_545
Cd3 O11 2.486261 1_455
Cd3 O12 2.675796 1_555
Cd3 O7 2.675796 1_445
O2 Os1 1.909060 1_565
O2 Pd0 2.045440 1_555
O3 Os0 1.919823 1_555
O3 Os2 1.919824 1_555
O4 Os2 1.909060 1_556
O4 Pd0 2.045440 1_555
O5 Os0 1.909060 1_655
O5 Pd0 2.045440 1_555
O6 Os2 1.919823 1_556
O6 Os1 1.919823 1_565
O7 Os0 1.919823 1_655
O7 Os1 1.919824 1_565
O8 Os0 1.919823 1_655
O8 Os2 1.919824 1_556
O9 Os2 1.919823 1_555
O9 Os1 1.919823 1_555
O10 Os0 1.909060 1_555
O10 Pd0 2.045440 1_555
O11 Os1 1.909060 1_555
O11 Pd0 2.045440 1_555
O12 Os0 1.919823 1_555
O12 Os1 1.919824 1_555
O13 Os2 1.909060 1_555
O13 Pd0 2.045440 1_555
