# generated using pymatgen
data_Sr4AlSi6Ni
_symmetry_space_group_name_H-M   'P 1'
_cell_length_a   8.53670519
_cell_length_b   8.20183230
_cell_length_c   6.26372232
_cell_angle_alpha   70.89530089
_cell_angle_beta   65.21063293
_cell_angle_gamma   43.89406637
_symmetry_Int_Tables_number   1
_chemical_formula_structural   Sr4AlSi6Ni
_chemical_formula_sum   'Sr4 Al1 Si6 Ni1'
_cell_volume   275.83005760
_cell_formula_units_Z   1
loop_
 _symmetry_equiv_pos_site_id
 _symmetry_equiv_pos_as_xyz
  1  'x, y, z'
loop_
 _atom_site_type_symbol
 _atom_site_label
 _atom_site_symmetry_multiplicity
 _atom_site_fract_x
 _atom_site_fract_y
 _atom_site_fract_z
 _atom_site_occupancy
  Sr  Sr0  1  0.24387013  0.75034470  0.24965630  1
  Sr  Sr1  1  0.25291470  0.25291570  0.24708530  1
  Sr  Sr2  1  0.75291370  0.75291570  0.74708530  1
  Sr  Sr3  1  0.75034370  0.24387213  0.75612887  1
  Al  Al0  1  0.66590070  0.66590270  0.33409830  1
  Si  Si0  1  0.83992124  0.83992224  0.16007876  1
  Si  Si1  1  0.84027108  0.31920778  0.15972892  1
  Si  Si2  1  0.64759507  0.17723609  0.35240393  1
  Si  Si3  1  0.31920678  0.84027208  0.68079322  1
  Si  Si4  1  0.17723509  0.64759607  0.82276391  1
  Si  Si5  1  0.17596634  0.17596734  0.82403266  1
  Ni  Ni0  1  0.33385246  0.33385446  0.66614654  1
loop_
_geom_bond_atom_site_label_1
_geom_bond_atom_site_label_2
_geom_bond_distance
_geom_bond_site_symmetry_2
Al0 Si1 2.462434 1_555
Al0 Si3 2.462434 1_555
Al0 Si0 2.472202 1_555
Al0 Sr1 3.366987 1_565
Al0 Sr2 3.366987 1_554
Al0 Sr2 3.366987 1_555
Al0 Sr1 3.366994 1_655
Al0 Sr3 3.391342 1_555
Al0 Sr0 3.391344 1_555
Si0 Si2 2.403623 1_565
Si0 Si4 2.403630 1_654
Si0 Sr0 3.232218 1_655
Si0 Sr3 3.232226 1_564
Si0 Sr2 3.366953 1_555
Si0 Sr1 3.366954 1_655
Si0 Sr1 3.366954 1_565
Si0 Sr2 3.366960 1_554
Si1 Si2 2.386148 1_555
Si1 Si5 2.392849 1_654
Si1 Sr0 3.270426 1_645
Si1 Sr3 3.270427 1_554
Si1 Sr2 3.415407 1_554
Si1 Sr1 3.415409 1_655
Si1 Sr3 3.419691 1_555
Si1 Sr0 3.419697 1_555
Si2 Sr1 3.279348 1_555
Si2 Sr2 3.279356 1_545
Si2 Sr0 3.304334 1_555
Si2 Sr3 3.304340 1_555
Si2 Sr3 3.409564 1_554
Si2 Sr0 3.409565 1_645
Si3 Si4 2.386149 1_555
Si3 Si5 2.392842 1_565
Si3 Sr0 3.270426 1_556
Si3 Sr3 3.270427 1_465
Si3 Sr2 3.415401 1_555
Si3 Sr1 3.415409 1_565
Si3 Sr3 3.419691 1_555
Si3 Sr0 3.419697 1_555
Si4 Sr1 3.279355 1_556
Si4 Sr2 3.279356 1_455
Si4 Sr0 3.304330 1_555
Si4 Sr3 3.304336 1_555
Si4 Sr3 3.409569 1_465
Si4 Sr0 3.409570 1_556
Si5 Sr1 3.317155 1_555
Si5 Sr2 3.317156 1_545
Si5 Sr2 3.317161 1_455
Si5 Sr1 3.317167 1_556
Si5 Sr3 3.452121 1_455
Si5 Sr0 3.452129 1_546
Ni0 Si4 2.228372 1_555
Ni0 Si2 2.228379 1_555
Ni0 Si5 2.243003 1_555
Ni0 Sr0 3.336155 1_555
Ni0 Sr3 3.336163 1_555
Ni0 Sr1 3.336266 1_555
Ni0 Sr2 3.336272 1_545
Ni0 Sr2 3.336272 1_455
Ni0 Sr1 3.336273 1_556
