# generated using pymatgen
data_BaHg2(BrO)2
_symmetry_space_group_name_H-M   'P 1'
_cell_length_a   12.18099297
_cell_length_b   12.18099297
_cell_length_c   4.46947701
_cell_angle_alpha   90.00000000
_cell_angle_beta   90.00000000
_cell_angle_gamma   90.00000000
_symmetry_Int_Tables_number   1
_chemical_formula_structural   BaHg2(BrO)2
_chemical_formula_sum   'Ba4 Hg8 Br8 O8'
_cell_volume   663.16575742
_cell_formula_units_Z   4
loop_
 _symmetry_equiv_pos_site_id
 _symmetry_equiv_pos_as_xyz
  1  'x, y, z'
loop_
 _atom_site_type_symbol
 _atom_site_label
 _atom_site_symmetry_multiplicity
 _atom_site_fract_x
 _atom_site_fract_y
 _atom_site_fract_z
 _atom_site_occupancy
  Ba  Ba0  1  0.64064488  0.14064488  0.00000000  1
  Ba  Ba1  1  0.35935512  0.85935512  0.00000000  1
  Ba  Ba2  1  0.14064488  0.35935512  0.00000000  1
  Ba  Ba3  1  0.85935512  0.64064488  0.00000000  1
  Hg  Hg0  1  0.67272009  0.42359486  0.50000000  1
  Hg  Hg1  1  0.32727991  0.57640514  0.50000000  1
  Hg  Hg2  1  0.17272009  0.07640514  0.50000000  1
  Hg  Hg3  1  0.57640514  0.67272009  0.50000000  1
  Hg  Hg4  1  0.82727991  0.92359486  0.50000000  1
  Hg  Hg5  1  0.07640514  0.82727991  0.50000000  1
  Hg  Hg6  1  0.92359486  0.17272009  0.50000000  1
  Hg  Hg7  1  0.42359486  0.32727991  0.50000000  1
  Br  Br0  1  0.50000000  0.00000000  0.50000000  1
  Br  Br1  1  0.33183628  0.16816372  0.00000000  1
  Br  Br2  1  0.66816372  0.83183628  0.00000000  1
  Br  Br3  1  0.83183628  0.33183628  0.00000000  1
  Br  Br4  1  0.00000000  0.00000000  0.00000000  1
  Br  Br5  1  0.50000000  0.50000000  0.00000000  1
  Br  Br6  1  0.16816372  0.66816372  0.00000000  1
  Br  Br7  1  0.00000000  0.50000000  0.50000000  1
  O  O0  1  0.58699044  0.27389337  0.50000000  1
  O  O1  1  0.41300956  0.72610663  0.50000000  1
  O  O2  1  0.27389337  0.41300956  0.50000000  1
  O  O3  1  0.91300956  0.77389337  0.50000000  1
  O  O4  1  0.22610663  0.91300956  0.50000000  1
  O  O5  1  0.08699044  0.22610663  0.50000000  1
  O  O6  1  0.77389337  0.08699044  0.50000000  1
  O  O7  1  0.72610663  0.58699044  0.50000000  1
loop_
_geom_bond_atom_site_label_1
_geom_bond_atom_site_label_2
_geom_bond_distance
_geom_bond_site_symmetry_2
Ba0 O0 2.838248 1_554
Ba0 O0 2.838248 1_555
Ba0 O6 2.838248 1_555
Ba0 O6 2.838248 1_554
Ba0 Br3 3.293563 1_555
Ba0 Br0 3.296077 1_555
Ba0 Br0 3.296077 1_554
Ba0 Br2 3.776502 1_545
Ba0 Br1 3.776502 1_555
Ba1 O4 2.838248 1_554
Ba1 O1 2.838248 1_554
Ba1 O4 2.838248 1_555
Ba1 O1 2.838248 1_555
Ba1 Br6 3.293563 1_555
Ba1 Br0 3.296077 1_565
Ba1 Br0 3.296077 1_564
Ba1 Br1 3.776502 1_565
Ba1 Br2 3.776502 1_555
Ba2 O5 2.838248 1_554
Ba2 O2 2.838248 1_555
Ba2 O2 2.838248 1_554
Ba2 O5 2.838248 1_555
Ba2 Br1 3.293563 1_555
Ba2 Br7 3.296077 1_555
Ba2 Br7 3.296077 1_554
Ba2 Br3 3.776502 1_455
Ba2 Br6 3.776502 1_555
Ba3 O7 2.838248 1_554
Ba3 O7 2.838248 1_555
Ba3 O3 2.838248 1_555
Ba3 O3 2.838248 1_554
Ba3 Br2 3.293563 1_555
Ba3 Br7 3.296077 1_654
Ba3 Br7 3.296077 1_655
Ba3 Br6 3.776502 1_655
Ba3 Br3 3.776502 1_555
Hg0 O7 2.093864 1_555
Hg0 O0 2.101358 1_555
Hg1 O2 2.093864 1_555
Hg1 O1 2.101358 1_555
Hg2 O4 2.093864 1_545
Hg2 O5 2.101358 1_555
Hg3 O1 2.093864 1_555
Hg3 O7 2.101358 1_555
Hg4 O6 2.093864 1_565
Hg4 O3 2.101358 1_555
Hg5 O3 2.093864 1_455
Hg5 O4 2.101358 1_555
Hg6 O5 2.093864 1_655
Hg6 O6 2.101358 1_555
Hg7 O0 2.093864 1_555
Hg7 O2 2.101358 1_555
Br1 Hg2 3.162266 1_555
Br1 Hg2 3.162266 1_554
Br1 Hg7 3.162266 1_555
Br1 Hg7 3.162266 1_554
Br2 Hg4 3.162266 1_555
Br2 Hg4 3.162266 1_554
Br2 Hg3 3.162266 1_555
Br2 Hg3 3.162266 1_554
Br3 Hg6 3.162266 1_554
Br3 Hg6 3.162266 1_555
Br3 Hg0 3.162266 1_555
Br3 Hg0 3.162266 1_554
Br4 Hg2 3.207280 1_555
Br4 Hg2 3.207280 1_554
Br4 Hg6 3.207280 1_455
Br4 Hg6 3.207280 1_454
Br4 Hg5 3.207280 1_545
Br4 Hg5 3.207280 1_544
Br4 Hg4 3.207280 1_445
Br4 Hg4 3.207280 1_444
Br5 Hg0 3.207280 1_555
Br5 Hg0 3.207280 1_554
Br5 Hg7 3.207280 1_555
Br5 Hg7 3.207280 1_554
Br5 Hg3 3.207280 1_555
Br5 Hg3 3.207280 1_554
Br5 Hg1 3.207280 1_555
Br5 Hg1 3.207280 1_554
Br6 Hg1 3.162266 1_555
Br6 Hg1 3.162266 1_554
Br6 Hg5 3.162266 1_555
Br6 Hg5 3.162266 1_554
