# generated using pymatgen
data_Sc12AlNi4Hg
_symmetry_space_group_name_H-M   'P 1'
_cell_length_a   7.75419740
_cell_length_b   7.75419586
_cell_length_c   7.75419601
_cell_angle_alpha   110.72912539
_cell_angle_beta   110.88227942
_cell_angle_gamma   106.83404545
_symmetry_Int_Tables_number   1
_chemical_formula_structural   Sc12AlNi4Hg
_chemical_formula_sum   'Sc12 Al1 Ni4 Hg1'
_cell_volume   358.34480740
_cell_formula_units_Z   1
loop_
 _symmetry_equiv_pos_site_id
 _symmetry_equiv_pos_as_xyz
  1  'x, y, z'
loop_
 _atom_site_type_symbol
 _atom_site_label
 _atom_site_symmetry_multiplicity
 _atom_site_fract_x
 _atom_site_fract_y
 _atom_site_fract_z
 _atom_site_occupancy
  Sc  Sc0  1  0.44158073  0.23796125  0.20361848  1
  Sc  Sc1  1  0.55841927  0.76203875  0.79638152  1
  Sc  Sc2  1  0.03434376  0.23796125  0.79638152  1
  Sc  Sc3  1  0.96565624  0.76203875  0.20361848  1
  Sc  Sc4  1  0.18431184  0.28018910  0.46449995  1
  Sc  Sc5  1  0.81568816  0.71981090  0.53550005  1
  Sc  Sc6  1  0.18431184  0.71981090  0.90412274  1
  Sc  Sc7  1  0.81568816  0.28018910  0.09587726  1
  Sc  Sc8  1  0.32429325  0.62203605  0.29774180  1
  Sc  Sc9  1  0.67570675  0.37796395  0.70225820  1
  Sc  Sc10  1  0.32429325  0.02655144  0.70225820  1
  Sc  Sc11  1  0.67570675  0.97344856  0.29774180  1
  Al  Al0  1  0.00000000  0.00000000  0.00000000  1
  Ni  Ni0  1  0.34944635  0.00000000  0.34944635  1
  Ni  Ni1  1  0.65055365  1.00000000  0.65055365  1
  Ni  Ni2  1  0.12388381  0.62388381  0.50000000  1
  Ni  Ni3  1  0.87611619  0.37611619  0.50000000  1
  Hg  Hg0  1  0.50000000  0.50000000  0.00000000  1
loop_
_geom_bond_atom_site_label_1
_geom_bond_atom_site_label_2
_geom_bond_distance
_geom_bond_site_symmetry_2
Sc0 Sc11 3.210511 1_545
Sc0 Sc9 3.210518 1_555
Sc0 Sc7 3.254482 1_555
Sc0 Sc5 3.254488 1_555
Sc0 Sc10 3.276072 1_554
Sc0 Sc8 3.276086 1_555
Sc0 Sc6 3.311421 1_544
Sc0 Sc4 3.311421 1_555
Sc0 Sc2 3.582535 1_554
Sc1 Sc10 3.210511 1_565
Sc1 Sc8 3.210518 1_555
Sc1 Sc6 3.254482 1_555
Sc1 Sc4 3.254488 1_555
Sc1 Sc11 3.276072 1_556
Sc1 Sc9 3.276086 1_555
Sc1 Sc7 3.311421 1_566
Sc1 Sc5 3.311421 1_555
Sc1 Sc3 3.582535 1_556
Sc2 Sc9 3.210518 1_455
Sc2 Sc6 3.254489 1_555
Sc2 Sc4 3.254492 1_555
Sc2 Sc8 3.276077 1_556
Sc2 Sc5 3.311420 1_445
Sc2 Sc7 3.311427 1_456
Sc3 Sc8 3.210518 1_655
Sc3 Sc7 3.254489 1_555
Sc3 Sc5 3.254492 1_555
Sc3 Sc9 3.276077 1_554
Sc3 Sc4 3.311420 1_665
Sc3 Sc6 3.311427 1_654
Sc4 Sc7 3.242843 1_455
Sc4 Sc9 3.289672 1_555
Sc4 Sc8 3.411335 1_555
Sc5 Sc6 3.242843 1_655
Sc5 Sc8 3.289672 1_555
Sc5 Sc9 3.411335 1_555
Sc6 Sc8 3.289663 1_556
Sc6 Sc9 3.411337 1_455
Sc7 Sc9 3.289663 1_554
Sc7 Sc8 3.411337 1_655
Sc10 Sc3 3.210518 1_445
Sc10 Sc9 3.248037 1_555
Sc10 Sc2 3.276067 1_555
Sc10 Sc7 3.289669 1_556
Sc10 Sc4 3.289673 1_555
Sc10 Sc6 3.411334 1_545
Sc10 Sc5 3.411337 1_445
Sc11 Sc2 3.210518 1_665
Sc11 Sc8 3.248037 1_555
Sc11 Sc3 3.276067 1_555
Sc11 Sc6 3.289669 1_554
Sc11 Sc5 3.289673 1_555
Sc11 Sc7 3.411334 1_565
Sc11 Sc4 3.411337 1_665
Al0 Sc2 2.836568 1_554
Al0 Sc3 2.836568 1_445
Al0 Sc0 2.836574 1_555
Al0 Sc1 2.836574 1_444
Al0 Sc4 2.954347 1_555
Al0 Sc5 2.954347 1_444
Al0 Sc7 2.954353 1_455
Al0 Sc6 2.954353 1_544
Al0 Ni1 3.074141 1_444
Al0 Ni0 3.074141 1_555
Ni0 Sc0 2.546222 1_555
Ni0 Sc3 2.546227 1_445
Ni0 Ni1 2.648894 1_545
Ni0 Sc8 2.751320 1_545
Ni0 Sc9 2.751325 1_555
Ni0 Sc10 2.751328 1_555
Ni0 Sc11 2.751328 1_545
Ni0 Sc4 2.865234 1_555
Ni0 Sc6 2.865235 1_544
Ni1 Sc1 2.546222 1_555
Ni1 Sc2 2.546227 1_665
Ni1 Sc9 2.751320 1_565
Ni1 Sc8 2.751325 1_555
Ni1 Sc11 2.751328 1_555
Ni1 Sc10 2.751328 1_565
Ni1 Sc5 2.865234 1_555
Ni1 Sc7 2.865235 1_566
Ni2 Ni3 2.290064 1_455
Ni2 Sc10 2.570871 1_565
Ni2 Sc8 2.570871 1_555
Ni2 Sc4 2.773784 1_555
Ni2 Sc6 2.773785 1_555
Ni2 Sc7 2.773785 1_455
Ni2 Sc5 2.773788 1_455
Ni2 Sc1 2.903215 1_555
Ni2 Sc3 2.903222 1_455
Ni3 Sc11 2.570871 1_545
Ni3 Sc9 2.570871 1_555
Ni3 Sc5 2.773784 1_555
Ni3 Sc7 2.773785 1_555
Ni3 Sc6 2.773785 1_655
Ni3 Sc4 2.773788 1_655
Ni3 Sc0 2.903215 1_555
Ni3 Sc2 2.903222 1_655
Hg0 Sc3 3.012397 1_555
Hg0 Sc2 3.012397 1_554
Hg0 Sc1 3.012402 1_554
Hg0 Sc0 3.012402 1_555
Hg0 Sc11 3.086218 1_555
Hg0 Sc10 3.086218 1_554
Hg0 Sc8 3.086220 1_555
Hg0 Sc9 3.086220 1_554
Hg0 Sc7 3.386209 1_555
Hg0 Sc6 3.386209 1_554
Hg0 Sc4 3.386215 1_554
Hg0 Sc5 3.386215 1_555
