# generated using pymatgen
data_Li3Zr(Ta2N3)4
_symmetry_space_group_name_H-M   'P 1'
_cell_length_a   5.23490090
_cell_length_b   5.23490062
_cell_length_c   10.36934025
_cell_angle_alpha   90.00000000
_cell_angle_beta   90.00000000
_cell_angle_gamma   119.99999557
_symmetry_Int_Tables_number   1
_chemical_formula_structural   Li3Zr(Ta2N3)4
_chemical_formula_sum   'Li3 Zr1 Ta8 N12'
_cell_volume   246.09267269
_cell_formula_units_Z   1
loop_
 _symmetry_equiv_pos_site_id
 _symmetry_equiv_pos_as_xyz
  1  'x, y, z'
loop_
 _atom_site_type_symbol
 _atom_site_label
 _atom_site_symmetry_multiplicity
 _atom_site_fract_x
 _atom_site_fract_y
 _atom_site_fract_z
 _atom_site_occupancy
  Li  Li0  1  0.33333300  0.66666700  0.50000000  1
  Li  Li1  1  0.66666700  0.33333300  0.50000000  1
  Li  Li2  1  0.66666700  0.33333300  0.00000000  1
  Zr  Zr0  1  0.33333300  0.66666700  0.00000000  1
  Ta  Ta0  1  0.99769096  0.34191349  0.25296959  1
  Ta  Ta1  1  0.65808651  0.00230904  0.74703041  1
  Ta  Ta2  1  0.34422253  0.34191349  0.74703041  1
  Ta  Ta3  1  0.00000000  0.00000000  0.50000000  1
  Ta  Ta4  1  0.00000000  0.00000000  0.00000000  1
  Ta  Ta5  1  0.65808651  0.65577747  0.25296959  1
  Ta  Ta6  1  0.34422253  0.00230904  0.25296959  1
  Ta  Ta7  1  0.99769096  0.65577747  0.74703041  1
  N  N0  1  0.67714387  0.67798343  0.62280214  1
  N  N1  1  0.67723291  0.67145069  0.87779476  1
  N  N2  1  0.32854931  0.32276709  0.12220524  1
  N  N3  1  0.32201657  0.32285613  0.37719786  1
  N  N4  1  0.32854931  0.00578221  0.87779476  1
  N  N5  1  0.32201657  0.99916045  0.62280214  1
  N  N6  1  0.00083955  0.67798343  0.37719786  1
  N  N7  1  0.99421779  0.67145069  0.12220524  1
  N  N8  1  0.67723291  0.00578221  0.12220524  1
  N  N9  1  0.67714387  0.99916045  0.37719786  1
  N  N10  1  0.99421779  0.32276709  0.87779476  1
  N  N11  1  0.00083955  0.32285613  0.62280214  1
loop_
_geom_bond_atom_site_label_1
_geom_bond_atom_site_label_2
_geom_bond_distance
_geom_bond_site_symmetry_2
Li0 N5 2.181214 1_555
Li0 N6 2.181214 1_555
Li0 N11 2.181217 1_555
Li0 N9 2.181217 1_555
Li0 N3 2.181218 1_555
Li0 N0 2.181219 1_555
Li1 N9 2.186482 1_545
Li1 N11 2.186482 1_655
Li1 N6 2.186484 1_655
Li1 N5 2.186484 1_545
Li1 N0 2.186486 1_555
Li1 N3 2.186486 1_555
Li2 N8 2.154959 1_555
Li2 N10 2.154959 1_554
Li2 N7 2.154961 1_555
Li2 N4 2.154961 1_554
Li2 N1 2.154963 1_554
Li2 N2 2.154963 1_555
N0 Ta3 2.114376 1_665
N0 Ta7 2.164195 1_555
N0 Ta1 2.172848 1_565
N0 Ta2 2.173880 1_555
N1 Ta4 2.124325 1_666
N1 Ta7 2.190245 1_555
N1 Zr0 2.191421 1_556
N1 Ta2 2.201413 1_555
N1 Ta1 2.240999 1_565
N2 Ta4 2.124325 1_555
N2 Ta6 2.190245 1_555
N2 Zr0 2.191420 1_555
N2 Ta5 2.201413 1_555
N2 Ta0 2.240999 1_455
N3 Ta3 2.114376 1_555
N3 Ta6 2.164195 1_555
N3 Ta0 2.172848 1_455
N3 Ta5 2.173880 1_555
N4 Ta4 2.124325 1_556
N4 Ta2 2.190245 1_555
N4 Zr0 2.191416 1_546
N4 Ta1 2.201413 1_555
N4 Ta7 2.241000 1_445
N5 Ta3 2.114376 1_565
N5 Ta2 2.164195 1_565
N5 Ta7 2.172848 1_455
N5 Ta1 2.173880 1_565
N6 Ta3 2.114376 1_565
N6 Ta5 2.164195 1_455
N6 Ta6 2.172848 1_565
N6 Ta0 2.173880 1_455
N7 Ta4 2.124325 1_665
N7 Ta5 2.190245 1_555
N7 Zr0 2.191416 1_655
N7 Ta0 2.201413 1_555
N7 Ta6 2.241000 1_665
N8 Ta4 2.124325 1_655
N8 Ta0 2.190245 1_555
N8 Zr0 2.191419 1_545
N8 Ta6 2.201413 1_555
N8 Ta5 2.240999 1_545
N9 Ta3 2.114376 1_665
N9 Ta0 2.164195 1_565
N9 Ta5 2.172848 1_555
N9 Ta6 2.173880 1_565
N10 Ta4 2.124325 1_656
N10 Ta1 2.190245 1_555
N10 Zr0 2.191419 1_656
N10 Ta7 2.201413 1_555
N10 Ta2 2.240999 1_655
N11 Ta3 2.114376 1_555
N11 Ta1 2.164195 1_455
N11 Ta2 2.172848 1_555
N11 Ta7 2.173880 1_455
