# generated using pymatgen
data_RuPt3Pb4O13
_symmetry_space_group_name_H-M   'P 1'
_cell_length_a   7.30484867
_cell_length_b   7.30390834
_cell_length_c   7.30390963
_cell_angle_alpha   60.00000290
_cell_angle_beta   60.00426109
_cell_angle_gamma   60.00424837
_symmetry_Int_Tables_number   1
_chemical_formula_structural   RuPt3Pb4O13
_chemical_formula_sum   'Ru1 Pt3 Pb4 O13'
_cell_volume   275.57185990
_cell_formula_units_Z   1
loop_
 _symmetry_equiv_pos_site_id
 _symmetry_equiv_pos_as_xyz
  1  'x, y, z'
loop_
 _atom_site_type_symbol
 _atom_site_label
 _atom_site_symmetry_multiplicity
 _atom_site_fract_x
 _atom_site_fract_y
 _atom_site_fract_z
 _atom_site_occupancy
  Ru  Ru0  1  0.37386553  0.87537782  0.87537782  1
  Pt  Pt0  1  0.87300240  0.37748412  0.87475624  1
  Pt  Pt1  1  0.87300240  0.87475624  0.37748412  1
  Pt  Pt2  1  0.87300240  0.87475624  0.87475624  1
  Pb  Pb0  1  0.89365548  0.36878184  0.36878184  1
  Pb  Pb1  1  0.37590807  0.37188081  0.37188081  1
  Pb  Pb2  1  0.37590807  0.37188081  0.88033230  1
  Pb  Pb3  1  0.37590807  0.88033230  0.37188081  1
  O  O0  1  0.20315133  0.79936051  0.79936051  1
  O  O1  1  0.20315133  0.79936051  0.19812665  1
  O  O2  1  0.54635475  0.94861469  0.94861469  1
  O  O3  1  0.54635475  0.94861469  0.55641588  1
  O  O4  1  0.95320438  0.95195512  0.54741975  1
  O  O5  1  0.79062193  0.79585075  0.20676366  1
  O  O6  1  0.54635475  0.55641588  0.94861469  1
  O  O7  1  0.79062193  0.20676366  0.79585075  1
  O  O8  1  0.79062193  0.20676366  0.20676366  1
  O  O9  1  0.95320438  0.54741975  0.95195512  1
  O  O10  1  0.95320438  0.54741975  0.54741975  1
  O  O11  1  0.20315133  0.19812665  0.79936051  1
  O  O12  1  0.50574939  0.49808420  0.49808420  1
loop_
_geom_bond_atom_site_label_1
_geom_bond_atom_site_label_2
_geom_bond_distance
_geom_bond_site_symmetry_2
O0 Ru0 1.965840 1_555
O0 Pt2 2.017470 1_455
O0 Pb2 2.578937 1_555
O0 Pb3 2.578937 1_555
O1 Ru0 1.965840 1_554
O1 Pt1 2.017470 1_455
O1 Pb1 2.578939 1_555
O1 Pb3 2.578956 1_555
O2 Ru0 1.947779 1_555
O2 Pt2 1.998123 1_555
O2 Pb2 2.566457 1_565
O2 Pb3 2.566458 1_556
O3 Ru0 1.947774 1_555
O3 Pt1 1.998124 1_555
O3 Pb3 2.566444 1_555
O3 Pb1 2.566454 1_565
O4 Pt1 1.989713 1_555
O4 Pt2 1.989713 1_555
O4 Pb0 2.536025 1_565
O4 Pb3 2.559127 1_655
O5 Pt1 2.016129 1_555
O5 Pt2 2.016136 1_554
O5 Pb3 2.496933 1_555
O5 Pb0 2.559020 1_555
O6 Ru0 1.947774 1_555
O6 Pt0 1.998124 1_555
O6 Pb2 2.566444 1_555
O6 Pb1 2.566455 1_556
O7 Pt0 2.016129 1_555
O7 Pt2 2.016136 1_545
O7 Pb2 2.496932 1_555
O7 Pb0 2.559021 1_555
O8 Pt1 2.016135 1_545
O8 Pt0 2.016135 1_554
O8 Pb1 2.496934 1_555
O8 Pb0 2.559027 1_555
O9 Pt2 1.989713 1_555
O9 Pt0 1.989713 1_555
O9 Pb0 2.536025 1_556
O9 Pb2 2.559127 1_655
O10 Pt1 1.989713 1_555
O10 Pt0 1.989713 1_555
O10 Pb0 2.536012 1_555
O10 Pb1 2.559124 1_655
O11 Ru0 1.965840 1_545
O11 Pt0 2.017470 1_455
O11 Pb1 2.578940 1_555
O11 Pb2 2.578956 1_555
O12 Pb3 2.279683 1_555
O12 Pb1 2.279684 1_555
O12 Pb2 2.279684 1_555
O12 Pb0 2.313770 1_555
