# generated using pymatgen
data_Ca2InPtRh
_symmetry_space_group_name_H-M   'P 1'
_cell_length_a   5.85454938
_cell_length_b   5.85454892
_cell_length_c   8.05109803
_cell_angle_alpha   76.97284880
_cell_angle_beta   76.97285125
_cell_angle_gamma   57.94409821
_symmetry_Int_Tables_number   1
_chemical_formula_structural   Ca2InPtRh
_chemical_formula_sum   'Ca4 In2 Pt2 Rh2'
_cell_volume   225.98565499
_cell_formula_units_Z   2
loop_
 _symmetry_equiv_pos_site_id
 _symmetry_equiv_pos_as_xyz
  1  'x, y, z'
loop_
 _atom_site_type_symbol
 _atom_site_label
 _atom_site_symmetry_multiplicity
 _atom_site_fract_x
 _atom_site_fract_y
 _atom_site_fract_z
 _atom_site_occupancy
  Ca  Ca0  1  0.49910477  0.79327156  0.35291694  1
  Ca  Ca1  1  0.20672844  0.50089523  0.14708306  1
  Ca  Ca2  1  0.49862301  0.20434601  0.64638623  1
  Ca  Ca3  1  0.79565399  0.50137699  0.85361377  1
  In  In0  1  0.87389782  0.12610218  0.25000000  1
  In  In1  1  0.13580786  0.86419214  0.75000000  1
  Pt  Pt0  1  0.70685507  0.00849747  0.00740203  1
  Pt  Pt1  1  0.99150253  0.29314493  0.49259797  1
  Rh  Rh0  1  0.28294316  0.99111664  0.99028467  1
  Rh  Rh1  1  0.00888336  0.71705684  0.50971533  1
loop_
_geom_bond_atom_site_label_1
_geom_bond_atom_site_label_2
_geom_bond_distance
_geom_bond_site_symmetry_2
Ca0 Pt1 3.027464 1_555
Ca0 Pt0 3.053950 1_565
Ca0 Pt1 3.066923 1_465
Ca0 Rh1 3.082502 1_555
Ca0 Rh0 3.170545 1_554
Ca0 Rh1 3.275844 1_655
Ca0 In0 3.309048 1_465
Ca0 In1 3.392977 1_555
Ca0 In0 3.505599 1_565
Ca0 In0 3.507085 1_555
Ca1 Pt0 3.027464 1_555
Ca1 Pt1 3.053950 1_455
Ca1 Pt0 3.066923 1_465
Ca1 Rh0 3.082502 1_554
Ca1 Rh1 3.170545 1_555
Ca1 Rh0 3.275843 1_544
Ca1 In0 3.309047 1_465
Ca1 In1 3.392977 1_554
Ca1 In0 3.505599 1_455
Ca1 In0 3.507085 1_555
Ca2 Rh1 3.026639 1_645
Ca2 Rh1 3.039633 1_555
Ca2 Rh0 3.059041 1_545
Ca2 Pt1 3.133915 1_555
Ca2 Pt0 3.140112 1_556
Ca2 Pt1 3.216631 1_455
Ca2 In1 3.368395 1_645
Ca2 In0 3.413407 1_555
Ca2 In1 3.474917 1_555
Ca2 In1 3.480812 1_545
Ca3 Rh0 3.026639 1_645
Ca3 Rh0 3.039633 1_555
Ca3 Rh1 3.059041 1_655
Ca3 Pt0 3.133915 1_556
Ca3 Pt1 3.140112 1_555
Ca3 Pt0 3.216631 1_566
Ca3 In1 3.368395 1_645
Ca3 In0 3.413406 1_556
Ca3 In1 3.474918 1_555
Ca3 In1 3.480811 1_655
In0 Rh1 2.685202 1_645
In0 Rh0 2.685203 1_644
In0 Pt1 2.725352 1_555
In0 Pt0 2.725352 1_555
In1 Rh1 2.667495 1_555
In1 Rh0 2.667495 1_555
In1 Pt1 2.739731 1_465
In1 Pt0 2.739731 1_466
Pt0 Rh0 2.572418 1_544
Pt1 Rh1 2.572417 1_655
