# generated using pymatgen
data_Ag6PS5I
_symmetry_space_group_name_H-M   'P 1'
_cell_length_a   7.45892185
_cell_length_b   7.45892188
_cell_length_c   12.94435232
_cell_angle_alpha   72.82112786
_cell_angle_beta   72.82112849
_cell_angle_gamma   59.76278996
_symmetry_Int_Tables_number   1
_chemical_formula_structural   Ag6PS5I
_chemical_formula_sum   'Ag12 P2 S10 I2'
_cell_volume   584.97488301
_cell_formula_units_Z   2
loop_
 _symmetry_equiv_pos_site_id
 _symmetry_equiv_pos_as_xyz
  1  'x, y, z'
loop_
 _atom_site_type_symbol
 _atom_site_label
 _atom_site_symmetry_multiplicity
 _atom_site_fract_x
 _atom_site_fract_y
 _atom_site_fract_z
 _atom_site_occupancy
  Ag  Ag0  1  0.03090605  0.98437894  0.61155233  1
  Ag  Ag1  1  0.98437894  0.03090605  0.11155233  1
  Ag  Ag2  1  0.57840013  0.42614210  0.17263291  1
  Ag  Ag3  1  0.42614210  0.57840013  0.67263291  1
  Ag  Ag4  1  0.64456575  0.71615727  0.88132125  1
  Ag  Ag5  1  0.71615727  0.64456575  0.38132125  1
  Ag  Ag6  1  0.54345510  0.06914121  0.55112394  1
  Ag  Ag7  1  0.06914121  0.54345510  0.05112394  1
  Ag  Ag8  1  0.80133821  0.23435943  0.88519716  1
  Ag  Ag9  1  0.23435943  0.80133821  0.38519716  1
  Ag  Ag10  1  0.24457794  0.22104749  0.38592591  1
  Ag  Ag11  1  0.22104749  0.24457794  0.88592591  1
  P  P0  1  0.50579191  0.99348052  0.12257505  1
  P  P1  1  0.99348052  0.50579191  0.62257505  1
  S  S0  1  0.81598782  0.78667267  0.67962485  1
  S  S1  1  0.78667267  0.81598782  0.17962485  1
  S  S2  1  0.33366142  0.27764651  0.17836098  1
  S  S3  1  0.27764651  0.33366142  0.67836098  1
  S  S4  1  0.56817116  0.04879164  0.95303349  1
  S  S5  1  0.04879164  0.56817116  0.45303349  1
  S  S6  1  0.86709900  0.39580284  0.00433919  1
  S  S7  1  0.39580284  0.86709900  0.50433919  1
  S  S8  1  0.82520563  0.33383459  0.67799344  1
  S  S9  1  0.33383459  0.82520563  0.17799344  1
  I  I0  1  0.24003164  0.77335203  0.86872049  1
  I  I1  1  0.77335203  0.24003164  0.36872049  1
loop_
_geom_bond_atom_site_label_1
_geom_bond_atom_site_label_2
_geom_bond_distance
_geom_bond_site_symmetry_2
Ag0 S7 2.487368 1_555
Ag0 S0 2.509947 1_455
Ag0 S8 2.530763 1_465
Ag1 S6 2.487368 1_555
Ag1 S1 2.509947 1_545
Ag1 S9 2.530763 1_645
Ag2 S6 2.542299 1_555
Ag2 S2 2.544144 1_555
Ag2 S9 2.602120 1_555
Ag2 I1 2.924032 1_555
Ag3 S7 2.542299 1_555
Ag3 S3 2.544144 1_555
Ag3 S8 2.602120 1_555
Ag3 I0 2.924032 1_555
Ag4 S6 2.513874 1_556
Ag4 S0 2.573355 1_555
Ag4 S4 2.639379 1_565
Ag4 I0 2.875132 1_555
Ag5 S7 2.513875 1_555
Ag5 S1 2.573355 1_555
Ag5 S5 2.639379 1_655
Ag5 I1 2.875132 1_555
Ag6 S7 2.540761 1_545
Ag6 S3 2.566548 1_555
Ag6 S0 2.636607 1_545
Ag6 I1 2.858666 1_555
Ag7 S6 2.540761 1_455
Ag7 S2 2.566548 1_555
Ag7 S1 2.636607 1_455
Ag7 I0 2.858666 1_554
Ag8 S6 2.491562 1_556
Ag8 S8 2.539961 1_555
Ag8 S4 2.552654 1_555
Ag8 I0 3.356389 1_645
Ag9 S7 2.491562 1_555
Ag9 S9 2.539961 1_555
Ag9 S5 2.552654 1_555
Ag9 I1 3.356389 1_465
Ag10 S7 2.494669 1_545
Ag10 S5 2.522310 1_555
Ag10 S2 2.529132 1_555
Ag11 S6 2.494669 1_456
Ag11 S4 2.522310 1_555
Ag11 S3 2.529132 1_555
P0 S1 2.056754 1_555
P0 S4 2.063566 1_564
P0 S2 2.068354 1_565
P0 S9 2.069089 1_555
P1 S0 2.056754 1_555
P1 S5 2.063566 1_655
P1 S3 2.068354 1_655
P1 S8 2.069089 1_555
