# generated using pymatgen
data_Hf6Al16Co6Cu
_symmetry_space_group_name_H-M   'P 1'
_cell_length_a   8.47363840
_cell_length_b   8.40629950
_cell_length_c   8.40629988
_cell_angle_alpha   60.27622607
_cell_angle_beta   59.73466655
_cell_angle_gamma   59.73465421
_symmetry_Int_Tables_number   1
_chemical_formula_structural   Hf6Al16Co6Cu
_chemical_formula_sum   'Hf6 Al16 Co6 Cu1'
_cell_volume   422.57346928
_cell_formula_units_Z   1
loop_
 _symmetry_equiv_pos_site_id
 _symmetry_equiv_pos_as_xyz
  1  'x, y, z'
loop_
 _atom_site_type_symbol
 _atom_site_label
 _atom_site_symmetry_multiplicity
 _atom_site_fract_x
 _atom_site_fract_y
 _atom_site_fract_z
 _atom_site_occupancy
  Hf  Hf0  1  0.69612847  0.69619556  0.30380444  1
  Hf  Hf1  1  0.30387153  0.69619556  0.30380444  1
  Hf  Hf2  1  0.67936671  0.32063329  0.32063329  1
  Hf  Hf3  1  0.30387153  0.30380444  0.69619556  1
  Hf  Hf4  1  0.69612847  0.30380444  0.69619556  1
  Hf  Hf5  1  0.32063329  0.67936671  0.67936671  1
  Al  Al0  1  0.88158231  0.88129760  0.35553479  1
  Al  Al1  1  0.88158231  0.35553479  0.88129760  1
  Al  Al2  1  0.35366583  0.87633206  0.87633206  1
  Al  Al3  1  0.89366804  0.87633206  0.87633206  1
  Al  Al4  1  0.11841769  0.11870240  0.64446521  1
  Al  Al5  1  0.11841769  0.64446521  0.11870240  1
  Al  Al6  1  0.64633417  0.12366794  0.12366794  1
  Al  Al7  1  0.10633196  0.12366794  0.12366794  1
  Al  Al8  1  0.66786645  0.66139001  0.00287809  1
  Al  Al9  1  0.66786645  0.00287809  0.66139001  1
  Al  Al10  1  0.00443775  0.66382629  0.66382629  1
  Al  Al11  1  0.66790967  0.66382629  0.66382629  1
  Al  Al12  1  0.33213355  0.33860999  0.99712191  1
  Al  Al13  1  0.33213355  0.99712191  0.33860999  1
  Al  Al14  1  0.99556225  0.33617371  0.33617371  1
  Al  Al15  1  0.33209033  0.33617371  0.33617371  1
  Co  Co0  1  0.00000000  0.00000000  0.00000000  1
  Co  Co1  1  0.00000000  0.00000000  0.50000000  1
  Co  Co2  1  0.50000000  0.00000000  0.50000000  1
  Co  Co3  1  0.00000000  0.50000000  0.50000000  1
  Co  Co4  1  0.50000000  0.50000000  0.00000000  1
  Co  Co5  1  0.00000000  0.50000000  0.00000000  1
  Cu  Cu0  1  0.50000000  0.00000000  0.00000000  1
loop_
_geom_bond_atom_site_label_1
_geom_bond_atom_site_label_2
_geom_bond_distance
_geom_bond_site_symmetry_2
Hf0 Hf2 3.161685 1_555
Hf0 Hf5 3.161686 1_555
Hf1 Hf2 3.161685 1_555
Hf1 Hf5 3.161685 1_555
Hf2 Hf4 3.161685 1_555
Hf2 Hf3 3.161686 1_555
Hf3 Hf5 3.161685 1_555
Hf4 Hf5 3.161685 1_555
Al0 Co0 2.442133 1_665
Al0 Co3 2.623338 1_655
Al0 Co2 2.629939 1_565
Al0 Co1 2.629959 1_665
Al0 Al9 2.642231 1_565
Al0 Al11 2.691670 1_555
Al0 Al10 2.691683 1_655
Al0 Al6 2.794372 1_565
Al0 Al7 2.794402 1_665
Al0 Al5 2.798274 1_655
Al0 Hf0 2.984040 1_555
Al0 Hf1 2.984062 1_655
Al0 Hf2 3.116903 1_565
Al1 Co0 2.442133 1_656
Al1 Co3 2.623338 1_655
Al1 Co4 2.629939 1_556
Al1 Co5 2.629959 1_656
Al1 Al8 2.642231 1_556
Al1 Al11 2.691669 1_555
Al1 Al10 2.691683 1_655
Al1 Al6 2.794372 1_556
Al1 Al7 2.794401 1_656
Al1 Al4 2.798274 1_655
Al1 Hf4 2.984040 1_555
Al1 Hf3 2.984062 1_655
Al1 Hf2 3.116904 1_556
Al2 Co0 2.435849 1_566
Al2 Co4 2.590430 1_556
Al2 Co2 2.590431 1_565
Al2 Cu0 2.714693 1_566
Al2 Al8 2.754016 1_556
Al2 Al9 2.754016 1_565
Al2 Al4 2.794372 1_565
Al2 Al5 2.794372 1_556
Al2 Al7 2.922378 1_566
Al2 Hf3 3.017237 1_565
Al2 Hf1 3.017237 1_556
Al2 Hf5 3.035503 1_555
Al3 Co0 2.435862 1_666
Al3 Co5 2.590429 1_656
Al3 Co1 2.590429 1_665
Al3 Cu0 2.714679 1_566
Al3 Al9 2.753995 1_565
Al3 Al8 2.753995 1_556
Al3 Al5 2.794401 1_656
Al3 Al4 2.794402 1_665
Al3 Al6 2.922378 1_566
Al3 Hf4 3.017233 1_565
Al3 Hf0 3.017234 1_556
Al3 Hf5 3.035514 1_655
Al4 Co0 2.442133 1_556
Al4 Co3 2.623338 1_555
Al4 Co2 2.629939 1_555
Al4 Co1 2.629959 1_555
Al4 Hf3 2.984040 1_555
Al4 Hf4 2.984062 1_455
Al4 Hf5 3.116903 1_545
Al5 Co0 2.442133 1_565
Al5 Co3 2.623338 1_555
Al5 Co4 2.629939 1_555
Al5 Co5 2.629959 1_555
Al5 Hf1 2.984040 1_555
Al5 Hf0 2.984062 1_455
Al5 Hf5 3.116904 1_554
Al6 Co0 2.435849 1_655
Al6 Co4 2.590430 1_555
Al6 Co2 2.590431 1_555
Al6 Cu0 2.714693 1_555
Al6 Hf0 3.017237 1_545
Al6 Hf4 3.017237 1_554
Al6 Hf2 3.035503 1_555
Al7 Co0 2.435862 1_555
Al7 Co5 2.590429 1_555
Al7 Co1 2.590429 1_555
Al7 Cu0 2.714679 1_555
Al7 Hf1 3.017233 1_545
Al7 Hf3 3.017234 1_554
Al7 Hf2 3.035514 1_455
Al8 Co5 2.424255 1_655
Al8 Co4 2.424262 1_555
Al8 Cu0 2.451793 1_565
Al8 Hf2 2.782692 1_555
Al8 Hf0 2.820900 1_555
Al8 Hf1 2.820906 1_555
Al9 Co1 2.424255 1_655
Al9 Co2 2.424262 1_555
Al9 Cu0 2.451793 1_556
Al9 Hf2 2.782692 1_555
Al9 Hf4 2.820900 1_555
Al9 Hf3 2.820905 1_555
Al10 Co3 2.404116 1_555
Al10 Co1 2.443344 1_565
Al10 Co5 2.443345 1_556
Al10 Al3 2.654716 1_455
Al10 Hf3 2.794658 1_555
Al10 Hf1 2.794659 1_555
Al10 Hf5 2.817001 1_555
Al11 Co3 2.404116 1_655
Al11 Co2 2.443344 1_565
Al11 Co4 2.443345 1_556
Al11 Al2 2.654721 1_555
Al11 Hf4 2.794658 1_555
Al11 Hf0 2.794658 1_555
Al11 Hf5 2.817001 1_555
Al12 Co5 2.424255 1_556
Al12 Co4 2.424262 1_556
Al12 Cu0 2.451793 1_556
Al12 Al5 2.642231 1_556
Al12 Al7 2.753995 1_556
Al12 Al6 2.754016 1_556
Al12 Hf5 2.782692 1_555
Al12 Hf3 2.820900 1_555
Al12 Hf4 2.820906 1_555
Al13 Co1 2.424255 1_565
Al13 Co2 2.424262 1_565
Al13 Cu0 2.451793 1_565
Al13 Al4 2.642231 1_565
Al13 Al7 2.753995 1_565
Al13 Al6 2.754016 1_565
Al13 Hf5 2.782692 1_555
Al13 Hf1 2.820900 1_555
Al13 Hf0 2.820905 1_555
Al14 Co3 2.404116 1_655
Al14 Co1 2.443344 1_655
Al14 Co5 2.443345 1_655
Al14 Al7 2.654716 1_655
Al14 Al4 2.691683 1_655
Al14 Al5 2.691683 1_655
Al14 Hf0 2.794658 1_555
Al14 Hf4 2.794659 1_555
Al14 Hf2 2.817001 1_555
Al15 Co3 2.404116 1_555
Al15 Co2 2.443344 1_555
Al15 Co4 2.443345 1_555
Al15 Al6 2.654721 1_555
Al15 Al5 2.691669 1_555
Al15 Al4 2.691670 1_555
Al15 Hf1 2.794658 1_555
Al15 Hf3 2.794658 1_555
Al15 Hf2 2.817001 1_555
Co1 Hf4 3.023231 1_455
Co1 Hf1 3.023231 1_545
Co1 Hf2 3.104464 1_455
Co1 Hf5 3.104464 1_545
Co2 Hf3 3.023231 1_555
Co2 Hf0 3.023231 1_545
Co2 Hf5 3.104465 1_545
Co2 Hf2 3.104465 1_555
Co3 Hf3 3.061529 1_555
Co3 Hf0 3.061529 1_455
Co3 Hf1 3.061530 1_555
Co3 Hf4 3.061530 1_455
Co4 Hf1 3.023231 1_555
Co4 Hf4 3.023231 1_554
Co4 Hf5 3.104465 1_554
Co4 Hf2 3.104465 1_555
Co5 Hf0 3.023231 1_455
Co5 Hf3 3.023231 1_554
Co5 Hf2 3.104465 1_455
Co5 Hf5 3.104465 1_554
Cu0 Hf0 3.055942 1_545
Cu0 Hf3 3.055942 1_554
Cu0 Hf4 3.055942 1_554
Cu0 Hf1 3.055942 1_545
