# generated using pymatgen
data_Ca6TaOsO12
_symmetry_space_group_name_H-M   'P 1'
_cell_length_a   5.85890539
_cell_length_b   5.57447898
_cell_length_c   9.73298320
_cell_angle_alpha   55.26394109
_cell_angle_beta   90.00971283
_cell_angle_gamma   90.13898084
_symmetry_Int_Tables_number   1
_chemical_formula_structural   Ca6TaOsO12
_chemical_formula_sum   'Ca6 Ta1 Os1 O12'
_cell_volume   261.23028236
_cell_formula_units_Z   1
loop_
 _symmetry_equiv_pos_site_id
 _symmetry_equiv_pos_as_xyz
  1  'x, y, z'
loop_
 _atom_site_type_symbol
 _atom_site_label
 _atom_site_symmetry_multiplicity
 _atom_site_fract_x
 _atom_site_fract_y
 _atom_site_fract_z
 _atom_site_occupancy
  Ca  Ca0  1  0.05543397  0.72047718  0.76495171  1
  Ca  Ca1  1  0.94456603  0.27952282  0.23504829  1
  Ca  Ca2  1  0.56370980  0.27119391  0.75381986  1
  Ca  Ca3  1  0.43629020  0.72880609  0.24618014  1
  Ca  Ca4  1  0.50000000  0.50000000  0.00000000  1
  Ca  Ca5  1  0.00000000  0.50000000  0.50000000  1
  Ta  Ta0  1  0.00000000  0.00000000  0.00000000  1
  Os  Os0  1  0.50000000  0.00000000  0.50000000  1
  O  O0  1  0.45137586  0.89683978  0.71780846  1
  O  O1  1  0.54862414  0.10316022  0.28219154  1
  O  O2  1  0.94043349  0.10997554  0.76819210  1
  O  O3  1  0.05956651  0.89002446  0.23180790  1
  O  O4  1  0.77054199  0.76264169  0.57171610  1
  O  O5  1  0.22945801  0.23735831  0.42828390  1
  O  O6  1  0.27982434  0.25358254  0.92316143  1
  O  O7  1  0.72017566  0.74641746  0.07683857  1
  O  O8  1  0.32518950  0.66884881  0.55441051  1
  O  O9  1  0.67481050  0.33115119  0.44558949  1
  O  O10  1  0.81600006  0.34101664  0.94669013  1
  O  O11  1  0.18399994  0.65898336  0.05330987  1
loop_
_geom_bond_atom_site_label_1
_geom_bond_atom_site_label_2
_geom_bond_distance
_geom_bond_site_symmetry_2
Ca0 O2 2.292257 1_465
Ca0 O10 2.300807 1_455
Ca0 O4 2.423973 1_455
Ca0 O0 2.456361 1_555
Ca0 O6 2.514407 1_555
Ca0 O8 2.730441 1_555
Ca0 O11 2.732393 1_556
Ca1 O3 2.292257 1_645
Ca1 O11 2.300807 1_655
Ca1 O5 2.423973 1_655
Ca1 O1 2.456361 1_555
Ca1 O7 2.514407 1_555
Ca1 O9 2.730441 1_555
Ca1 O10 2.732393 1_554
Ca2 O6 2.303989 1_555
Ca2 O2 2.359063 1_555
Ca2 O0 2.395342 1_545
Ca2 O8 2.396846 1_555
Ca2 O4 2.562482 1_555
Ca2 O10 2.586352 1_555
Ca2 O9 2.896959 1_555
Ca2 O7 2.968746 1_546
Ca3 O7 2.303989 1_555
Ca3 O3 2.359063 1_555
Ca3 O1 2.395342 1_565
Ca3 O9 2.396846 1_555
Ca3 O5 2.562482 1_555
Ca3 O11 2.586352 1_555
Ca3 O8 2.896959 1_555
Ca3 O6 2.968746 1_564
Ca4 O11 2.239356 1_555
Ca4 O10 2.239356 1_554
Ca4 O7 2.296101 1_555
Ca4 O6 2.296101 1_554
Ca4 O1 2.365851 1_555
Ca4 O0 2.365851 1_554
Ca5 O2 2.278527 1_455
Ca5 O3 2.278527 1_555
Ca5 O9 2.314171 1_455
Ca5 O8 2.314171 1_555
Ca5 O4 2.369092 1_455
Ca5 O5 2.369092 1_555
O0 Os0 1.875122 1_565
O1 Os0 1.875122 1_555
O2 Ta0 2.003127 1_656
O3 Ta0 2.003127 1_565
O4 Os0 1.925545 1_565
O5 Os0 1.925545 1_555
O6 Ta0 2.007438 1_556
O7 Ta0 2.007438 1_665
O8 Os0 1.901074 1_565
O9 Os0 1.901074 1_555
O10 Ta0 1.982639 1_656
O11 Ta0 1.982639 1_565
