# generated using pymatgen
data_Rb6AlInSb4
_symmetry_space_group_name_H-M   'P 1'
_cell_length_a   9.70348470
_cell_length_b   9.70348553
_cell_length_c   9.70348526
_cell_angle_alpha   125.61651253
_cell_angle_beta   73.39484368
_cell_angle_gamma   134.70182463
_symmetry_Int_Tables_number   1
_chemical_formula_structural   Rb6AlInSb4
_chemical_formula_sum   'Rb6 Al1 In1 Sb4'
_cell_volume   515.65115699
_cell_formula_units_Z   1
loop_
 _symmetry_equiv_pos_site_id
 _symmetry_equiv_pos_as_xyz
  1  'x, y, z'
loop_
 _atom_site_type_symbol
 _atom_site_label
 _atom_site_symmetry_multiplicity
 _atom_site_fract_x
 _atom_site_fract_y
 _atom_site_fract_z
 _atom_site_occupancy
  Rb  Rb0  1  0.82330382  0.19597774  0.01949939  1
  Rb  Rb1  1  0.67669618  0.69619558  0.37267392  1
  Rb  Rb2  1  0.75000000  0.25000000  0.50000000  1
  Rb  Rb3  1  0.25000000  0.75000000  0.50000000  1
  Rb  Rb4  1  0.32352165  0.30402226  0.62732608  1
  Rb  Rb5  1  0.17647835  0.80380442  0.98050061  1
  Al  Al0  1  0.75000000  0.75000000  0.00000000  1
  In  In0  1  0.25000000  0.25000000  0.00000000  1
  Sb  Sb0  1  0.42091827  0.69389508  0.08961572  1
  Sb  Sb1  1  0.07908173  0.16869746  0.27297581  1
  Sb  Sb2  1  0.89572064  0.80610492  0.72702419  1
  Sb  Sb3  1  0.60427936  0.33130254  0.91038428  1
loop_
_geom_bond_atom_site_label_1
_geom_bond_atom_site_label_2
_geom_bond_distance
_geom_bond_site_symmetry_2
Rb0 Sb2 3.599335 1_544
Rb0 Sb3 3.767477 1_554
Rb0 Sb0 3.876184 1_545
Rb0 Sb0 4.055155 1_655
Rb1 Sb3 3.599336 1_554
Rb1 Sb2 3.767486 1_555
Rb1 Sb1 3.876190 1_665
Rb1 Sb1 4.055154 1_555
Rb2 Sb2 3.629242 1_555
Rb2 Sb0 3.629243 1_545
Rb2 Sb3 3.629243 1_555
Rb2 Sb1 3.629245 1_655
Rb3 Sb1 3.724923 1_555
Rb3 Sb3 3.724924 1_565
Rb3 Sb0 3.724925 1_555
Rb3 Sb2 3.724927 1_455
Rb4 Sb0 3.599336 1_556
Rb4 Sb1 3.767485 1_555
Rb4 Sb2 3.876183 1_555
Rb4 Sb2 4.055161 1_445
Rb5 Sb1 3.599335 1_566
Rb5 Sb0 3.767477 1_556
Rb5 Sb3 3.876184 1_455
Rb5 Sb3 4.055155 1_565
Al0 Sb2 2.787097 1_554
Al0 Sb1 2.787102 1_665
Al0 Sb0 2.787106 1_555
Al0 Sb3 2.787106 1_554
Al0 Rb5 3.749942 1_654
Al0 Rb4 3.749942 1_554
Al0 Rb1 3.749942 1_555
Al0 Rb0 3.749942 1_565
In0 Sb1 2.910596 1_555
In0 Sb2 2.910601 1_444
In0 Sb3 2.910604 1_554
In0 Sb0 2.910604 1_555
In0 Rb0 3.750753 1_455
In0 Rb1 3.750753 1_555
In0 Rb4 3.750753 1_554
In0 Rb5 3.750753 1_544
