# generated using pymatgen
data_NaGaPbF6
_symmetry_space_group_name_H-M   'P 1'
_cell_length_a   5.45730139
_cell_length_b   9.28592114
_cell_length_c   10.28386790
_cell_angle_alpha   90.00000000
_cell_angle_beta   90.00000000
_cell_angle_gamma   90.00000000
_symmetry_Int_Tables_number   1
_chemical_formula_structural   NaGaPbF6
_chemical_formula_sum   'Na4 Ga4 Pb4 F24'
_cell_volume   521.14601292
_cell_formula_units_Z   4
loop_
 _symmetry_equiv_pos_site_id
 _symmetry_equiv_pos_as_xyz
  1  'x, y, z'
loop_
 _atom_site_type_symbol
 _atom_site_label
 _atom_site_symmetry_multiplicity
 _atom_site_fract_x
 _atom_site_fract_y
 _atom_site_fract_z
 _atom_site_occupancy
  Na  Na0  1  0.04345078  0.64636122  0.08819439  1
  Na  Na1  1  0.45654922  0.35363878  0.58819439  1
  Na  Na2  1  0.95654922  0.14636122  0.41180561  1
  Na  Na3  1  0.54345078  0.85363878  0.91180561  1
  Ga  Ga0  1  0.03874320  0.99796460  0.12289373  1
  Ga  Ga1  1  0.46125680  0.00203540  0.62289373  1
  Ga  Ga2  1  0.96125680  0.49796460  0.37710627  1
  Ga  Ga3  1  0.53874320  0.50203540  0.87710627  1
  Pb  Pb0  1  0.50487897  0.31454288  0.17902602  1
  Pb  Pb1  1  0.99512103  0.68545712  0.67902602  1
  Pb  Pb2  1  0.49512103  0.81454288  0.32097398  1
  Pb  Pb3  1  0.00487897  0.18545712  0.82097398  1
  F  F0  1  0.21981052  0.14116839  0.57627966  1
  F  F1  1  0.28018948  0.85883161  0.07627966  1
  F  F2  1  0.78018948  0.64116839  0.92372034  1
  F  F3  1  0.71981052  0.35883161  0.42372034  1
  F  F4  1  0.20009767  0.61782417  0.29843570  1
  F  F5  1  0.29990233  0.38217583  0.79843570  1
  F  F6  1  0.79990233  0.11782417  0.20156430  1
  F  F7  1  0.70009767  0.88217583  0.70156430  1
  F  F8  1  0.21242766  0.15567234  0.04551104  1
  F  F9  1  0.28757234  0.84432766  0.54551104  1
  F  F10  1  0.78757234  0.65567234  0.45448896  1
  F  F11  1  0.71242766  0.34432766  0.95448896  1
  F  F12  1  0.14715319  0.33711583  0.31931479  1
  F  F13  1  0.35284681  0.66288417  0.81931479  1
  F  F14  1  0.85284681  0.83711583  0.18068521  1
  F  F15  1  0.64715319  0.16288417  0.68068521  1
  F  F16  1  0.36152057  0.50783996  0.03630264  1
  F  F17  1  0.13847943  0.49216004  0.53630264  1
  F  F18  1  0.63847943  0.00783996  0.46369736  1
  F  F19  1  0.86152057  0.99216004  0.96369736  1
  F  F20  1  0.21842812  0.01920381  0.28123194  1
  F  F21  1  0.28157188  0.98079619  0.78123194  1
  F  F22  1  0.78157188  0.51920381  0.21876806  1
  F  F23  1  0.71842812  0.48079619  0.71876806  1
loop_
_geom_bond_atom_site_label_1
_geom_bond_atom_site_label_2
_geom_bond_distance
_geom_bond_site_symmetry_2
F0 Ga1 1.906618 1_555
F0 Na2 2.219765 1_455
F0 Na1 2.361530 1_555
F1 Ga0 1.906618 1_555
F1 Na3 2.219765 1_554
F1 Na0 2.361530 1_555
F2 Ga3 1.906618 1_555
F2 Na0 2.219765 1_656
F2 Na3 2.361530 1_555
F3 Ga2 1.906618 1_555
F3 Na1 2.219765 1_555
F3 Na2 2.361530 1_555
F4 Ga2 1.895322 1_455
F4 Na0 2.340015 1_555
F4 Pb2 2.445978 1_555
F5 Ga3 1.895322 1_555
F5 Na1 2.340015 1_555
F5 Pb3 2.445978 1_555
F6 Ga0 1.895322 1_645
F6 Na2 2.340015 1_555
F6 Pb0 2.445978 1_555
F7 Ga1 1.895322 1_565
F7 Na3 2.340015 1_555
F7 Pb1 2.445978 1_555
F8 Ga0 1.917381 1_545
F8 Pb0 2.570770 1_555
F8 Pb3 2.586772 1_554
F9 Ga1 1.917381 1_565
F9 Pb1 2.570770 1_455
F9 Pb2 2.586772 1_555
F10 Ga2 1.917381 1_555
F10 Pb2 2.570770 1_555
F10 Pb1 2.586772 1_555
F11 Ga3 1.917381 1_555
F11 Pb3 2.570770 1_655
F11 Pb0 2.586772 1_556
F12 Ga2 1.900878 1_455
F12 Na2 2.263694 1_455
F12 Pb0 2.436494 1_555
F13 Ga3 1.900878 1_555
F13 Na3 2.263694 1_555
F13 Pb1 2.436494 1_455
F14 Ga0 1.900878 1_655
F14 Na0 2.263694 1_655
F14 Pb2 2.436494 1_555
F15 Ga1 1.900878 1_555
F15 Na1 2.263694 1_555
F15 Pb3 2.436494 1_655
F16 Ga3 1.902255 1_554
F16 Na0 2.225388 1_555
F16 Pb0 2.447074 1_555
F17 Ga2 1.902255 1_455
F17 Na1 2.225388 1_555
F17 Pb1 2.447074 1_455
F18 Ga1 1.902255 1_555
F18 Na2 2.225388 1_555
F18 Pb2 2.447074 1_545
F19 Ga0 1.902255 1_656
F19 Na3 2.225388 1_555
F19 Pb3 2.447074 1_665
F20 Ga0 1.911000 1_545
F20 Na2 2.289065 1_455
F20 Pb2 2.461482 1_545
F21 Ga1 1.911000 1_565
F21 Na3 2.289065 1_555
F21 Pb3 2.461482 1_565
F22 Ga2 1.911000 1_555
F22 Na0 2.289065 1_655
F22 Pb0 2.461482 1_555
F23 Ga3 1.911000 1_555
F23 Na1 2.289065 1_555
F23 Pb1 2.461482 1_555
