# generated using pymatgen
data_HRuPb2F10
_symmetry_space_group_name_H-M   'P 1'
_cell_length_a   4.61341745
_cell_length_b   4.79072325
_cell_length_c   9.10034069
_cell_angle_alpha   86.68514878
_cell_angle_beta   76.76875145
_cell_angle_gamma   82.94663822
_symmetry_Int_Tables_number   1
_chemical_formula_structural   HRuPb2F10
_chemical_formula_sum   'H1 Ru1 Pb2 F10'
_cell_volume   194.21926577
_cell_formula_units_Z   1
loop_
 _symmetry_equiv_pos_site_id
 _symmetry_equiv_pos_as_xyz
  1  'x, y, z'
loop_
 _atom_site_type_symbol
 _atom_site_label
 _atom_site_symmetry_multiplicity
 _atom_site_fract_x
 _atom_site_fract_y
 _atom_site_fract_z
 _atom_site_occupancy
  H  H0  1  0.50004658  0.49998874  0.49995345  1
  Ru  Ru0  1  0.00001162  0.50000096  0.99999057  1
  Pb  Pb0  1  0.32992938  0.01990775  0.31788233  1
  Pb  Pb1  1  0.67006185  0.98009137  0.68214146  1
  F  F0  1  0.63109799  0.72343423  0.04026373  1
  F  F1  1  0.83286793  0.19906630  0.11578151  1
  F  F2  1  0.07665100  0.61942507  0.17860377  1
  F  F3  1  0.40180366  0.52444101  0.39505766  1
  F  F4  1  0.78512480  0.98537114  0.41976753  1
  F  F5  1  0.21480061  0.01455903  0.58023918  1
  F  F6  1  0.59826590  0.47553556  0.60488686  1
  F  F7  1  0.92332215  0.38060264  0.82142199  1
  F  F8  1  0.16714728  0.80097786  0.88423833  1
  F  F9  1  0.36886726  0.27660034  0.95976864  1
loop_
_geom_bond_atom_site_label_1
_geom_bond_atom_site_label_2
_geom_bond_distance
_geom_bond_site_symmetry_2
F0 Ru0 1.867929 1_654
F1 Ru0 1.873187 1_654
F2 Ru0 1.874755 1_554
F3 H0 1.141255 1_555
F3 Pb0 2.440884 1_565
F3 Pb0 2.635380 1_555
F4 Pb1 2.323706 1_555
F4 Pb0 2.466845 1_565
F4 Pb0 2.494374 1_665
F5 Pb0 2.323546 1_555
F5 Pb1 2.467235 1_545
F5 Pb1 2.494057 1_445
F6 H0 1.141508 1_555
F6 Pb1 2.440942 1_545
F6 Pb1 2.635626 1_555
F7 Ru0 1.874429 1_655
F8 Ru0 1.873183 1_555
F9 Ru0 1.867633 1_555
