# generated using pymatgen
data_Ca14Si(SnAs6)2
_symmetry_space_group_name_H-M   'P 1'
_cell_length_a   9.04076201
_cell_length_b   9.04075166
_cell_length_c   9.04077689
_cell_angle_alpha   86.99559676
_cell_angle_beta   86.99563818
_cell_angle_gamma   86.99525314
_symmetry_Int_Tables_number   1
_chemical_formula_structural   Ca14Si(SnAs6)2
_chemical_formula_sum   'Ca14 Si1 Sn2 As12'
_cell_volume   736.00585709
_cell_formula_units_Z   1
loop_
 _symmetry_equiv_pos_site_id
 _symmetry_equiv_pos_as_xyz
  1  'x, y, z'
loop_
 _atom_site_type_symbol
 _atom_site_label
 _atom_site_symmetry_multiplicity
 _atom_site_fract_x
 _atom_site_fract_y
 _atom_site_fract_z
 _atom_site_occupancy
  Ca  Ca0  1  0.41352065  0.26788854  0.77487601  1
  Ca  Ca1  1  0.77487501  0.41351965  0.26788854  1
  Ca  Ca2  1  0.26788854  0.77487601  0.41352065  1
  Ca  Ca3  1  0.98712745  0.54079002  0.65219993  1
  Ca  Ca4  1  0.65220093  0.98712945  0.54079102  1
  Ca  Ca5  1  0.54079102  0.65220093  0.98712745  1
  Ca  Ca6  1  0.17771937  0.53336544  0.02249319  1
  Ca  Ca7  1  0.02249419  0.17771737  0.53336144  1
  Ca  Ca8  1  0.53336544  0.02249119  0.17771837  1
  Ca  Ca9  1  0.76424903  0.25919630  0.91003702  1
  Ca  Ca10  1  0.91003702  0.76424703  0.25919630  1
  Ca  Ca11  1  0.25919530  0.91003702  0.76424803  1
  Ca  Ca12  1  0.18830694  0.18830794  0.18830694  1
  Ca  Ca13  1  0.40112295  0.40112195  0.40112195  1
  Si  Si0  1  0.00835044  0.00835044  0.00835044  1
  Sn  Sn0  1  0.84842509  0.84842409  0.84842509  1
  Sn  Sn1  1  0.61221646  0.61222046  0.61221746  1
  As  As0  1  0.70519915  0.32081616  0.58621606  1
  As  As1  1  0.58621606  0.70519915  0.32081316  1
  As  As2  1  0.32081416  0.58621806  0.70519815  1
  As  As3  1  0.57840153  0.96776824  0.86344451  1
  As  As4  1  0.86344451  0.57840153  0.96776724  1
  As  As5  1  0.96776724  0.86344351  0.57840153  1
  As  As6  1  0.47313491  0.34407932  0.08520282  1
  As  As7  1  0.08519982  0.47313291  0.34408232  1
  As  As8  1  0.34407932  0.08520282  0.47313291  1
  As  As9  1  0.09747911  0.21250974  0.85859761  1
  As  As10  1  0.85859861  0.09747811  0.21251074  1
  As  As11  1  0.21251074  0.85859561  0.09748011  1
loop_
_geom_bond_atom_site_label_1
_geom_bond_atom_site_label_2
_geom_bond_distance
_geom_bond_site_symmetry_2
Ca3 Sn1 3.451198 1_555
Ca4 Sn1 3.451181 1_555
Ca5 Sn1 3.451190 1_555
Ca9 Si0 3.205146 1_656
Ca10 Si0 3.205174 1_665
Ca11 Si0 3.205157 1_566
Ca12 Si0 2.961976 1_555
Ca13 Sn1 3.474505 1_555
Si0 Sn0 2.632276 1_444
As0 Sn1 2.741280 1_555
As0 Ca1 2.999029 1_555
As0 Ca9 3.021232 1_555
As0 Ca7 3.108521 1_655
As0 Ca0 3.109205 1_555
As0 Ca4 3.130691 1_545
As0 Ca13 3.321209 1_555
As0 Ca3 3.409207 1_555
As1 Sn1 2.741280 1_555
As1 Ca2 2.999031 1_555
As1 Ca10 3.021224 1_555
As1 Ca8 3.108481 1_565
As1 Ca1 3.109188 1_555
As1 Ca5 3.130687 1_554
As1 Ca13 3.321225 1_555
As1 Ca4 3.409241 1_555
As2 Sn1 2.741269 1_555
As2 Ca0 2.999042 1_555
As2 Ca11 3.021203 1_555
As2 Ca6 3.108518 1_556
As2 Ca2 3.109182 1_555
As2 Ca3 3.130699 1_455
As2 Ca13 3.321227 1_555
As2 Ca5 3.409226 1_555
As3 Sn0 2.616604 1_555
As3 Ca8 2.913483 1_566
As3 Ca4 2.956284 1_555
As3 Ca5 3.038555 1_555
As3 Ca0 3.114260 1_565
As3 Ca11 3.143754 1_555
As3 Ca9 3.255295 1_565
As4 Sn0 2.616592 1_555
As4 Ca6 2.913491 1_656
As4 Ca5 2.956275 1_555
As4 Ca3 3.038561 1_555
As4 Ca1 3.114290 1_556
As4 Ca9 3.143740 1_555
As4 Ca10 3.255290 1_556
As5 Sn0 2.616608 1_555
As5 Ca7 2.913489 1_665
As5 Ca3 2.956273 1_555
As5 Ca4 3.038549 1_555
As5 Ca2 3.114273 1_655
As5 Ca10 3.143745 1_555
As5 Ca11 3.255289 1_655
As6 Ca13 2.961708 1_555
As6 Ca5 2.963620 1_554
As6 Ca0 3.006048 1_554
As6 Ca8 3.012627 1_555
As6 Ca12 3.077999 1_555
As6 Ca9 3.082600 1_554
As6 Ca6 3.156085 1_555
As6 Ca1 3.365155 1_555
As7 Ca13 2.961727 1_555
As7 Ca3 2.963584 1_455
As7 Ca1 3.006034 1_455
As7 Ca6 3.012658 1_555
As7 Ca12 3.077988 1_555
As7 Ca10 3.082585 1_455
As7 Ca7 3.156059 1_555
As7 Ca2 3.365190 1_555
As8 Ca13 2.961704 1_555
As8 Ca4 2.963614 1_545
As8 Ca2 3.006040 1_545
As8 Ca7 3.012598 1_555
As8 Ca12 3.077983 1_555
As8 Ca11 3.082617 1_545
As8 Ca8 3.156094 1_555
As8 Ca0 3.365181 1_555
As9 Si0 2.380907 1_556
As9 Ca0 2.978429 1_555
As9 Ca9 3.034949 1_455
As9 Ca7 3.087500 1_555
As9 Ca12 3.126800 1_556
As9 Ca11 3.168237 1_545
As9 Ca6 3.452560 1_556
As9 Ca3 3.548224 1_455
As10 Si0 2.380902 1_655
As10 Ca1 2.978420 1_555
As10 Ca10 3.034952 1_545
As10 Ca8 3.087478 1_555
As10 Ca12 3.126798 1_655
As10 Ca9 3.168262 1_554
As10 Ca7 3.452521 1_655
As10 Ca4 3.548231 1_545
As11 Si0 2.380915 1_565
As11 Ca2 2.978415 1_555
As11 Ca11 3.034974 1_554
As11 Ca6 3.087445 1_555
As11 Ca12 3.126816 1_565
As11 Ca10 3.168257 1_455
As11 Ca8 3.452552 1_565
As11 Ca5 3.548210 1_554
