# generated using pymatgen
data_CsP2IrRu
_symmetry_space_group_name_H-M   'P 1'
_cell_length_a   7.72122616
_cell_length_b   7.72122588
_cell_length_c   7.72122478
_cell_angle_alpha   150.12349683
_cell_angle_beta   150.12349557
_cell_angle_gamma   42.76015608
_symmetry_Int_Tables_number   1
_chemical_formula_structural   CsP2IrRu
_chemical_formula_sum   'Cs1 P2 Ir1 Ru1'
_cell_volume   113.93180501
_cell_formula_units_Z   1
loop_
 _symmetry_equiv_pos_site_id
 _symmetry_equiv_pos_as_xyz
  1  'x, y, z'
loop_
 _atom_site_type_symbol
 _atom_site_label
 _atom_site_symmetry_multiplicity
 _atom_site_fract_x
 _atom_site_fract_y
 _atom_site_fract_z
 _atom_site_occupancy
  Cs  Cs0  1  0.00000000  0.00000000  0.00000000  1
  P  P0  1  0.33359750  0.33359750  1.00000000  1
  P  P1  1  0.66640250  0.66640250  0.00000000  1
  Ir  Ir0  1  0.25000000  0.75000000  0.50000000  1
  Ru  Ru0  1  0.75000000  0.25000000  0.50000000  1
loop_
_geom_bond_atom_site_label_1
_geom_bond_atom_site_label_2
_geom_bond_distance
_geom_bond_site_symmetry_2
Cs0 P1 3.694412 1_444
Cs0 P0 3.694412 1_555
Cs0 P1 3.694413 1_455
Cs0 P0 3.694413 1_544
Cs0 P1 3.694414 1_545
Cs0 P0 3.694414 1_454
Cs0 P1 3.694414 1_556
Cs0 P0 3.694414 1_443
P0 Ru0 2.325211 1_556
P0 Ru0 2.325212 1_455
P1 Ru0 2.325211 1_554
P1 Ru0 2.325212 1_565
Ir0 P0 2.325211 1_554
Ir0 P1 2.325211 1_556
Ir0 P0 2.325212 1_565
Ir0 P1 2.325212 1_455
