# generated using pymatgen
data_KTcP2Pt
_symmetry_space_group_name_H-M   'P 1'
_cell_length_a   7.14690329
_cell_length_b   7.14690326
_cell_length_c   7.14690366
_cell_angle_alpha   147.52359644
_cell_angle_beta   147.52359194
_cell_angle_gamma   46.58913451
_symmetry_Int_Tables_number   1
_chemical_formula_structural   KTcP2Pt
_chemical_formula_sum   'K1 Tc1 P2 Pt1'
_cell_volume   104.87137011
_cell_formula_units_Z   1
loop_
 _symmetry_equiv_pos_site_id
 _symmetry_equiv_pos_as_xyz
  1  'x, y, z'
loop_
 _atom_site_type_symbol
 _atom_site_label
 _atom_site_symmetry_multiplicity
 _atom_site_fract_x
 _atom_site_fract_y
 _atom_site_fract_z
 _atom_site_occupancy
  K  K0  1  0.00000000  0.00000000  0.00000000  1
  Tc  Tc0  1  0.75000000  0.25000000  0.50000000  1
  P  P0  1  0.34539493  0.34539493  1.00000000  1
  P  P1  1  0.65460507  0.65460507  0.00000000  1
  Pt  Pt0  1  0.25000000  0.75000000  0.50000000  1
loop_
_geom_bond_atom_site_label_1
_geom_bond_atom_site_label_2
_geom_bond_distance
_geom_bond_site_symmetry_2
K0 P1 3.479639 1_455
K0 P0 3.479639 1_544
K0 P1 3.479639 1_545
K0 P0 3.479639 1_454
K0 P1 3.479639 1_556
K0 P0 3.479639 1_443
K0 P1 3.479639 1_444
K0 P0 3.479639 1_555
P0 Pt0 2.358498 1_545
P0 Pt0 2.358498 1_556
P0 Tc0 2.358498 1_455
P0 Tc0 2.358498 1_556
P1 Tc0 2.358498 1_565
P1 Tc0 2.358498 1_554
P1 Pt0 2.358498 1_655
P1 Pt0 2.358498 1_554
