# generated using pymatgen
data_Zr6Ti6Sn9Sb
_symmetry_space_group_name_H-M   'P 1'
_cell_length_a   9.52570928
_cell_length_b   9.57671703
_cell_length_c   5.79648850
_cell_angle_alpha   90.00000000
_cell_angle_beta   90.00000000
_cell_angle_gamma   119.82397258
_symmetry_Int_Tables_number   1
_chemical_formula_structural   Zr6Ti6Sn9Sb
_chemical_formula_sum   'Zr6 Ti6 Sn9 Sb1'
_cell_volume   458.75118309
_cell_formula_units_Z   1
loop_
 _symmetry_equiv_pos_site_id
 _symmetry_equiv_pos_as_xyz
  1  'x, y, z'
loop_
 _atom_site_type_symbol
 _atom_site_label
 _atom_site_symmetry_multiplicity
 _atom_site_fract_x
 _atom_site_fract_y
 _atom_site_fract_z
 _atom_site_occupancy
  Zr  Zr0  1  0.84413230  0.68826460  0.75000000  1
  Zr  Zr1  1  0.15407841  0.84485322  0.25000000  1
  Zr  Zr2  1  0.69077481  0.84485322  0.25000000  1
  Zr  Zr3  1  0.30602567  0.15685935  0.75000000  1
  Zr  Zr4  1  0.85083369  0.15685935  0.75000000  1
  Zr  Zr5  1  0.15368164  0.30736229  0.25000000  1
  Ti  Ti0  1  0.49988940  0.99977880  0.49913212  1
  Ti  Ti1  1  0.49868901  0.50050989  0.99938161  1
  Ti  Ti2  1  0.00182088  0.50050989  0.99938161  1
  Ti  Ti3  1  0.00182088  0.50050989  0.50061839  1
  Ti  Ti4  1  0.49988940  0.99977880  0.00086788  1
  Ti  Ti5  1  0.49868901  0.50050989  0.50061839  1
  Sn  Sn0  1  0.78941507  0.21174213  0.25000000  1
  Sn  Sn1  1  0.42232706  0.21174213  0.25000000  1
  Sn  Sn2  1  0.58154289  0.79296939  0.75000000  1
  Sn  Sn3  1  0.21142850  0.79296939  0.75000000  1
  Sn  Sn4  1  0.78754488  0.57508975  0.25000000  1
  Sn  Sn5  1  0.66586748  0.33173297  0.75000000  1
  Sn  Sn6  1  0.33448710  0.66897521  0.25000000  1
  Sn  Sn7  1  0.99819552  0.99639203  0.49939683  1
  Sn  Sn8  1  0.99819552  0.99639203  0.00060317  1
  Sb  Sb0  1  0.21067189  0.42134378  0.75000000  1
loop_
_geom_bond_atom_site_label_1
_geom_bond_atom_site_label_2
_geom_bond_distance
_geom_bond_site_symmetry_2
Ti0 Ti4 2.888183 1_555
Ti0 Ti4 2.908306 1_556
Ti0 Zr1 3.205685 1_555
Ti0 Zr2 3.205685 1_555
Ti0 Zr4 3.248230 1_565
Ti0 Zr3 3.248230 1_565
Ti1 Ti5 2.891075 1_555
Ti1 Ti5 2.905413 1_556
Ti1 Zr0 3.203971 1_555
Ti1 Zr3 3.206396 1_555
Ti1 Zr5 3.207162 1_556
Ti1 Zr2 3.214224 1_556
Ti2 Ti3 2.891075 1_555
Ti2 Ti3 2.905413 1_556
Ti2 Zr0 3.203971 1_455
Ti2 Zr4 3.206396 1_455
Ti2 Zr5 3.207170 1_556
Ti2 Zr1 3.214224 1_556
Ti3 Zr0 3.203971 1_455
Ti3 Zr4 3.206396 1_455
Ti3 Zr5 3.207170 1_555
Ti3 Zr1 3.214224 1_555
Ti4 Zr1 3.205685 1_555
Ti4 Zr2 3.205685 1_555
Ti4 Zr4 3.248230 1_564
Ti4 Zr3 3.248230 1_564
Ti5 Zr0 3.203971 1_555
Ti5 Zr3 3.206396 1_555
Ti5 Zr5 3.207162 1_555
Ti5 Zr2 3.214224 1_555
Sn0 Ti0 2.871169 1_545
Sn0 Ti4 2.871169 1_545
Sn0 Ti3 2.878592 1_655
Sn0 Ti2 2.878592 1_654
Sn0 Zr4 3.053560 1_555
Sn0 Zr4 3.053560 1_554
Sn0 Zr5 3.117401 1_655
Sn0 Zr2 3.153467 1_545
Sn1 Ti0 2.871169 1_545
Sn1 Ti4 2.871169 1_545
Sn1 Ti5 2.878592 1_555
Sn1 Ti1 2.878592 1_554
Sn1 Zr3 3.053560 1_554
Sn1 Zr3 3.053560 1_555
Sn1 Zr5 3.117392 1_555
Sn1 Zr1 3.153467 1_545
Sn2 Ti4 2.859096 1_556
Sn2 Ti0 2.859096 1_555
Sn2 Ti1 2.891061 1_555
Sn2 Ti5 2.891061 1_555
Sn2 Zr2 3.035641 1_556
Sn2 Zr2 3.035641 1_555
Sn2 Zr0 3.123625 1_555
Sn2 Zr4 3.135726 1_565
Sn3 Ti4 2.859084 1_556
Sn3 Ti0 2.859084 1_555
Sn3 Ti2 2.891065 1_555
Sn3 Ti3 2.891065 1_555
Sn3 Zr1 3.035646 1_555
Sn3 Zr1 3.035646 1_556
Sn3 Zr0 3.123643 1_455
Sn3 Zr3 3.135731 1_565
Sn4 Ti5 2.869977 1_555
Sn4 Ti1 2.869977 1_554
Sn4 Ti3 2.869977 1_655
Sn4 Ti2 2.869977 1_654
Sn4 Zr0 3.046962 1_555
Sn4 Zr0 3.046962 1_554
Sn4 Zr1 3.145262 1_655
Sn4 Zr2 3.145262 1_555
Sn5 Zr0 2.962190 1_555
Sn5 Zr4 2.973904 1_555
Sn5 Zr3 2.973920 1_555
Sn5 Ti4 3.117865 1_546
Sn5 Ti0 3.117865 1_545
Sn5 Ti2 3.130228 1_655
Sn5 Ti3 3.130228 1_655
Sn5 Ti1 3.130242 1_555
Sn5 Ti5 3.130242 1_555
Sn6 Zr1 2.944391 1_555
Sn6 Zr2 2.944399 1_555
Sn6 Zr5 3.004407 1_555
Sn6 Ti0 3.104719 1_555
Sn6 Ti4 3.104719 1_555
Sn6 Ti3 3.109627 1_555
Sn6 Ti2 3.109627 1_554
Sn6 Ti5 3.109634 1_555
Sn6 Ti1 3.109634 1_554
Sn7 Zr2 2.923061 1_555
Sn7 Zr1 2.923068 1_655
Sn7 Zr4 2.930501 1_565
Sn7 Zr3 2.930508 1_665
Sn7 Zr0 2.943444 1_555
Sn7 Zr5 2.960588 1_665
Sn8 Zr2 2.923061 1_555
Sn8 Zr1 2.923068 1_655
Sn8 Zr4 2.930501 1_564
Sn8 Zr3 2.930508 1_664
Sn8 Zr0 2.943444 1_554
Sn8 Zr5 2.960588 1_665
Sb0 Ti1 2.850013 1_555
Sb0 Ti5 2.850013 1_555
Sb0 Ti2 2.850013 1_555
Sb0 Ti3 2.850013 1_555
Sb0 Zr5 3.049037 1_556
Sb0 Zr5 3.049037 1_555
Sb0 Zr4 3.086904 1_455
Sb0 Zr3 3.086905 1_555
