# generated using pymatgen
data_Ti4CuTcOs2
_symmetry_space_group_name_H-M   'P 1'
_cell_length_a   4.35044548
_cell_length_b   4.34981326
_cell_length_c   7.55271403
_cell_angle_alpha   73.28508181
_cell_angle_beta   90.00008225
_cell_angle_gamma   120.00538535
_symmetry_Int_Tables_number   1
_chemical_formula_structural   Ti4CuTcOs2
_chemical_formula_sum   'Ti4 Cu1 Tc1 Os2'
_cell_volume   116.74418532
_cell_formula_units_Z   1
loop_
 _symmetry_equiv_pos_site_id
 _symmetry_equiv_pos_as_xyz
  1  'x, y, z'
loop_
 _atom_site_type_symbol
 _atom_site_label
 _atom_site_symmetry_multiplicity
 _atom_site_fract_x
 _atom_site_fract_y
 _atom_site_fract_z
 _atom_site_occupancy
  Ti  Ti0  1  0.00049206  0.00098412  0.99859430  1
  Ti  Ti1  1  0.49899688  0.99798975  0.50301140  1
  Ti  Ti2  1  0.25100512  0.50201125  0.24698960  1
  Ti  Ti3  1  0.74950994  0.49901588  0.75140670  1
  Cu  Cu0  1  0.87499900  0.74999900  0.37499900  1
  Tc  Tc0  1  0.37499800  0.74999900  0.87500000  1
  Os  Os0  1  0.62323316  0.24647031  0.13032434  1
  Os  Os1  1  0.12676784  0.25353069  0.61967566  1
loop_
_geom_bond_atom_site_label_1
_geom_bond_atom_site_label_2
_geom_bond_distance
_geom_bond_site_symmetry_2
Cu0 Ti2 2.671851 1_555
Cu0 Ti2 2.671868 1_655
Cu0 Ti1 2.671875 1_555
Cu0 Ti1 2.671876 1_655
Cu0 Ti1 2.672036 1_545
Cu0 Ti2 2.672046 1_665
Cu0 Ti0 2.681507 1_664
Cu0 Ti3 2.681528 1_555
Tc0 Ti1 2.650047 1_555
Tc0 Ti2 2.650054 1_556
Tc0 Ti0 2.661272 1_555
Tc0 Ti3 2.661279 1_565
Tc0 Ti3 2.661362 1_455
Tc0 Ti0 2.661386 1_665
Tc0 Ti0 2.661394 1_565
Tc0 Ti3 2.661404 1_555
Os0 Ti2 2.645361 1_655
Os0 Ti2 2.645369 1_555
Os0 Ti2 2.645560 1_545
Os0 Ti1 2.655023 1_545
Os0 Ti0 2.680964 1_554
Os0 Ti0 2.680995 1_654
Os0 Ti0 2.681293 1_664
Os0 Ti3 2.699409 1_554
Os1 Ti1 2.645354 1_445
Os1 Ti1 2.645369 1_545
Os1 Ti1 2.645560 1_555
Os1 Ti2 2.655015 1_555
Os1 Ti3 2.680971 1_555
Os1 Ti3 2.680992 1_455
Os1 Ti3 2.681296 1_445
Os1 Ti0 2.699416 1_555
