# generated using pymatgen
data_Cs8Si3SnTe14
_symmetry_space_group_name_H-M   'P 1'
_cell_length_a   9.18815774
_cell_length_b   9.12997179
_cell_length_c   19.26210341
_cell_angle_alpha   75.90533446
_cell_angle_beta   75.60787947
_cell_angle_gamma   51.33076064
_symmetry_Int_Tables_number   1
_chemical_formula_structural   Cs8Si3SnTe14
_chemical_formula_sum   'Cs8 Si3 Sn1 Te14'
_cell_volume   1213.66682916
_cell_formula_units_Z   1
loop_
 _symmetry_equiv_pos_site_id
 _symmetry_equiv_pos_as_xyz
  1  'x, y, z'
loop_
 _atom_site_type_symbol
 _atom_site_label
 _atom_site_symmetry_multiplicity
 _atom_site_fract_x
 _atom_site_fract_y
 _atom_site_fract_z
 _atom_site_occupancy
  Cs  Cs0  1  0.02249528  0.48041175  0.14636869  1
  Cs  Cs1  1  0.68244537  0.14434571  0.93532092  1
  Cs  Cs2  1  0.85769921  0.31434672  0.56501812  1
  Cs  Cs3  1  0.14299038  0.67888111  0.43883455  1
  Cs  Cs4  1  0.53948180  0.96154468  0.35433197  1
  Cs  Cs5  1  0.31851077  0.85030261  0.06199462  1
  Cs  Cs6  1  0.46837482  0.02700772  0.64910985  1
  Cs  Cs7  1  0.96989182  0.52710332  0.85380879  1
  Si  Si0  1  0.22206326  0.69621771  0.65844762  1
  Si  Si1  1  0.70353653  0.21934182  0.15378649  1
  Si  Si2  1  0.30152228  0.77791219  0.84303049  1
  Sn  Sn0  1  0.77928509  0.31204563  0.34358148  1
  Te  Te0  1  0.19265107  0.64781008  0.95277720  1
  Te  Te1  1  0.38855475  0.97612392  0.85694508  1
  Te  Te2  1  0.00164962  0.39993863  0.35782203  1
  Te  Te3  1  0.02305848  0.60959363  0.64628784  1
  Te  Te4  1  0.35191298  0.80267654  0.54787442  1
  Te  Te5  1  0.81117486  0.34896928  0.04396134  1
  Te  Te6  1  0.46369564  0.38798048  0.72941876  1
  Te  Te7  1  0.06198586  0.94012585  0.75064049  1
  Te  Te8  1  0.63900495  0.18707136  0.46241568  1
  Te  Te9  1  0.94895398  0.04501350  0.24287341  1
  Te  Te10  1  0.39595694  0.45419558  0.22682627  1
  Te  Te11  1  0.61011154  0.53420147  0.77174492  1
  Te  Te12  1  0.50404937  0.64363755  0.26393505  1
  Te  Te13  1  0.59894337  0.03320015  0.14284292  1
loop_
_geom_bond_atom_site_label_1
_geom_bond_atom_site_label_2
_geom_bond_distance
_geom_bond_site_symmetry_2
Cs0 Te5 3.882004 1_455
Cs0 Te2 3.936579 1_555
Cs0 Te10 3.958584 1_555
Cs0 Te0 3.999678 1_554
Cs0 Te13 4.005173 1_465
Cs0 Te12 4.177399 1_455
Cs0 Te13 4.202416 1_555
Cs0 Te9 4.341344 1_455
Cs1 Te13 3.881956 1_556
Cs1 Te5 3.894126 1_556
Cs1 Te0 3.955353 1_555
Cs1 Te11 3.957409 1_555
Cs1 Te0 4.015515 1_645
Cs1 Te7 4.150952 1_645
Cs1 Te6 4.335507 1_555
Cs1 Te1 4.502023 1_545
Cs2 Te8 3.912091 1_555
Cs2 Te2 3.928978 1_655
Cs2 Te4 3.967039 1_555
Cs2 Te6 3.985250 1_555
Cs2 Te4 4.006156 1_645
Cs2 Te7 4.165682 1_645
Cs2 Te11 4.329438 1_555
Cs2 Te3 4.514507 1_655
Cs3 Te3 3.877284 1_555
Cs3 Te4 3.904558 1_555
Cs3 Te8 3.949903 1_555
Cs3 Te12 4.012100 1_555
Cs3 Te8 4.038418 1_465
Cs3 Te2 4.205173 1_555
Cs3 Te9 4.284030 1_465
Cs3 Te10 4.437411 1_555
Cs4 Te8 3.846747 1_565
Cs4 Te13 3.919686 1_565
Cs4 Te12 3.935279 1_555
Cs4 Te2 3.961546 1_565
Cs4 Te4 4.033416 1_555
Cs4 Te10 4.101159 1_565
Cs4 Te2 4.134310 1_655
Cs4 Te9 4.256238 1_565
Cs5 Te1 3.845027 1_554
Cs5 Te0 3.867340 1_554
Cs5 Te5 3.957615 1_555
Cs5 Te10 3.997566 1_555
Cs5 Te5 4.011456 1_465
Cs5 Te9 4.052322 1_465
Cs5 Te12 4.159212 1_555
Cs5 Te13 4.526682 1_565
Cs6 Te1 3.852383 1_545
Cs6 Te4 3.855354 1_545
Cs6 Te8 3.876397 1_555
Cs6 Te6 3.940707 1_555
Cs6 Te3 4.024010 1_645
Cs6 Te11 4.068207 1_545
Cs6 Te7 4.208567 1_545
Cs6 Te3 4.220109 1_555
Cs7 Te3 3.847982 1_655
Cs7 Te0 3.849599 1_655
Cs7 Te5 3.949001 1_556
Cs7 Te11 3.963670 1_555
Cs7 Te1 3.986497 1_645
Cs7 Te6 4.100773 1_655
Cs7 Te1 4.235194 1_555
Cs7 Te7 4.287937 1_655
Si0 Te4 2.466203 1_555
Si0 Te3 2.476682 1_555
Si0 Te6 2.558302 1_555
Si0 Te7 2.609690 1_555
Si1 Te5 2.461136 1_555
Si1 Te13 2.484415 1_555
Si1 Te10 2.546370 1_555
Si1 Te9 2.582826 1_555
Si2 Te0 2.468001 1_555
Si2 Te1 2.477376 1_555
Si2 Te11 2.558214 1_555
Si2 Te7 2.606629 1_555
Sn0 Te8 2.702189 1_555
Sn0 Te2 2.707057 1_655
Sn0 Te12 2.830807 1_555
Sn0 Te9 2.861417 1_555
Te10 Te12 2.755088 1_555
Te11 Te6 2.752522 1_555
