# generated using pymatgen
data_Sr2CdIn3Pd2
_symmetry_space_group_name_H-M   'P 1'
_cell_length_a   5.81626296
_cell_length_b   5.81626371
_cell_length_c   8.06015382
_cell_angle_alpha   89.86550144
_cell_angle_beta   90.13449637
_cell_angle_gamma   134.07048735
_symmetry_Int_Tables_number   1
_chemical_formula_structural   Sr2CdIn3Pd2
_chemical_formula_sum   'Sr2 Cd1 In3 Pd2'
_cell_volume   195.90591185
_cell_formula_units_Z   1
loop_
 _symmetry_equiv_pos_site_id
 _symmetry_equiv_pos_as_xyz
  1  'x, y, z'
loop_
 _atom_site_type_symbol
 _atom_site_label
 _atom_site_symmetry_multiplicity
 _atom_site_fract_x
 _atom_site_fract_y
 _atom_site_fract_z
 _atom_site_occupancy
  Sr  Sr0  1  0.93958024  0.06041976  0.75545667  1
  Sr  Sr1  1  0.06048727  0.93951273  0.24780304  1
  Cd  Cd0  1  0.65231446  0.34768554  0.94539651  1
  In  In0  1  0.34393066  0.65606934  0.05230116  1
  In  In1  1  0.34764172  0.65235828  0.44419607  1
  In  In2  1  0.65302067  0.34697933  0.55695480  1
  Pd  Pd0  1  0.22117720  0.77882280  0.74483362  1
  Pd  Pd1  1  0.78184778  0.21815222  0.25305813  1
loop_
_geom_bond_atom_site_label_1
_geom_bond_atom_site_label_2
_geom_bond_distance
_geom_bond_site_symmetry_2
Cd0 Pd1 2.838430 1_556
Cd0 Pd0 2.883244 1_655
Cd0 Pd0 2.883244 1_545
Cd0 In2 3.130928 1_555
Cd0 In0 3.177296 1_656
Cd0 In0 3.177297 1_546
Cd0 In0 3.415642 1_556
Cd0 Sr0 3.440119 1_555
Cd0 Sr1 3.474248 1_546
Cd0 Sr1 3.474248 1_656
Cd0 Sr0 3.559120 1_455
Cd0 Sr0 3.559121 1_565
In0 Pd0 2.802434 1_554
In0 Pd1 2.866307 1_455
In0 Pd1 2.866308 1_565
In0 In1 3.158882 1_555
In0 Sr1 3.424007 1_555
In0 Sr0 3.454901 1_564
In0 Sr0 3.454902 1_454
In0 Sr1 3.604720 1_655
In0 Sr1 3.604720 1_545
In1 Pd0 2.779075 1_555
In1 Pd1 2.830943 1_455
In1 Pd1 2.830943 1_565
In1 Sr1 3.455461 1_555
In1 Sr0 3.521493 1_565
In1 Sr0 3.521494 1_455
In1 Sr1 3.587607 1_655
In1 Sr1 3.587607 1_545
In2 Pd1 2.814417 1_555
In2 Pd0 2.823152 1_655
In2 Pd0 2.823152 1_545
In2 Sr0 3.457592 1_555
In2 Sr1 3.511198 1_545
In2 Sr1 3.511198 1_655
In2 Sr0 3.599217 1_455
In2 Sr0 3.599218 1_565
Pd0 Sr0 3.017503 1_465
Pd0 Sr0 3.260063 1_565
Pd0 Sr0 3.260064 1_455
Pd1 Sr1 2.984802 1_645
Pd1 Sr1 3.282101 1_545
Pd1 Sr1 3.282101 1_655
