# generated using pymatgen
data_Sc6Nb3Al13Ru7
_symmetry_space_group_name_H-M   'P 1'
_cell_length_a   8.82442833
_cell_length_b   8.82442797
_cell_length_c   8.82442783
_cell_angle_alpha   59.81451928
_cell_angle_beta   59.81452047
_cell_angle_gamma   59.81451484
_symmetry_Int_Tables_number   1
_chemical_formula_structural   Sc6Nb3Al13Ru7
_chemical_formula_sum   'Sc6 Nb3 Al13 Ru7'
_cell_volume   483.85180653
_cell_formula_units_Z   1
loop_
 _symmetry_equiv_pos_site_id
 _symmetry_equiv_pos_as_xyz
  1  'x, y, z'
loop_
 _atom_site_type_symbol
 _atom_site_label
 _atom_site_symmetry_multiplicity
 _atom_site_fract_x
 _atom_site_fract_y
 _atom_site_fract_z
 _atom_site_occupancy
  Sc  Sc0  1  0.71279523  0.71279523  0.28030314  1
  Sc  Sc1  1  0.29013811  0.71043129  0.29013811  1
  Sc  Sc2  1  0.71043129  0.29013811  0.29013811  1
  Sc  Sc3  1  0.29013811  0.29013811  0.71043129  1
  Sc  Sc4  1  0.71279523  0.28030314  0.71279523  1
  Sc  Sc5  1  0.28030314  0.71279523  0.71279523  1
  Nb  Nb0  1  0.87783818  0.87783818  0.36133205  1
  Nb  Nb1  1  0.87783818  0.36133205  0.87783818  1
  Nb  Nb2  1  0.36133205  0.87783818  0.87783818  1
  Al  Al0  1  0.88137489  0.88137489  0.88137489  1
  Al  Al1  1  0.12071054  0.12071054  0.63685019  1
  Al  Al2  1  0.12071054  0.63685019  0.12071054  1
  Al  Al3  1  0.63685019  0.12071054  0.12071054  1
  Al  Al4  1  0.12161393  0.12161393  0.12161393  1
  Al  Al5  1  0.66821123  0.66821123  0.00291045  1
  Al  Al6  1  0.66821123  0.00291045  0.66821123  1
  Al  Al7  1  0.00291045  0.66821123  0.66821123  1
  Al  Al8  1  0.66231697  0.66231697  0.66231697  1
  Al  Al9  1  0.33519866  0.33519866  0.99799702  1
  Al  Al10  1  0.33519866  0.99799702  0.33519866  1
  Al  Al11  1  0.99799702  0.33519866  0.33519866  1
  Al  Al12  1  0.33473744  0.33473744  0.33473744  1
  Ru  Ru0  1  0.00127888  0.00127888  0.00127888  1
  Ru  Ru1  1  0.99949063  0.99949063  0.49780312  1
  Ru  Ru2  1  0.50267070  0.99694509  0.50267070  1
  Ru  Ru3  1  0.99694509  0.50267070  0.50267070  1
  Ru  Ru4  1  0.50267070  0.50267070  0.99694509  1
  Ru  Ru5  1  0.99949063  0.49780312  0.99949063  1
  Ru  Ru6  1  0.49780312  0.99949063  0.99949063  1
loop_
_geom_bond_atom_site_label_1
_geom_bond_atom_site_label_2
_geom_bond_distance
_geom_bond_site_symmetry_2
Sc0 Sc2 3.697242 1_555
Sc0 Sc1 3.697242 1_555
Sc1 Sc5 3.697242 1_555
Sc1 Sc2 3.698444 1_555
Sc1 Sc3 3.698444 1_555
Sc2 Sc4 3.697242 1_555
Sc2 Sc3 3.698444 1_555
Sc3 Sc5 3.697242 1_555
Sc3 Sc4 3.697242 1_555
Nb0 Ru0 2.588554 1_665
Nb0 Ru3 2.699530 1_555
Nb0 Ru2 2.699530 1_555
Nb0 Ru1 2.741193 1_555
Nb0 Sc0 2.996827 1_555
Nb0 Sc2 3.007354 1_565
Nb0 Sc1 3.007354 1_655
Nb1 Ru0 2.588554 1_656
Nb1 Ru3 2.699530 1_555
Nb1 Ru4 2.699530 1_555
Nb1 Ru5 2.741193 1_555
Nb1 Sc4 2.996827 1_555
Nb1 Sc2 3.007354 1_556
Nb1 Sc3 3.007354 1_655
Nb2 Ru0 2.588554 1_566
Nb2 Ru4 2.699530 1_555
Nb2 Ru2 2.699530 1_555
Nb2 Ru6 2.741193 1_555
Nb2 Sc5 2.996827 1_555
Nb2 Sc3 3.007354 1_565
Nb2 Sc1 3.007354 1_556
Al0 Ru0 2.595393 1_666
Al0 Ru5 2.761639 1_555
Al0 Ru1 2.761639 1_555
Al0 Ru6 2.761639 1_555
Al0 Al7 2.779870 1_655
Al0 Al6 2.779870 1_565
Al0 Al5 2.779870 1_556
Al0 Sc4 2.917463 1_565
Al0 Sc5 2.917463 1_655
Al0 Sc0 2.917463 1_556
Al0 Al3 2.982803 1_566
Al0 Al2 2.982803 1_656
Al0 Al1 2.982803 1_665
Al1 Ru0 2.619884 1_556
Al1 Ru3 2.746068 1_455
Al1 Ru2 2.746068 1_545
Al1 Ru1 2.753993 1_445
Al1 Al11 2.758962 1_455
Al1 Al10 2.758962 1_545
Al1 Al12 2.775228 1_555
Al1 Sc5 2.969035 1_545
Al1 Sc4 2.969035 1_455
Al1 Nb1 3.000925 1_455
Al1 Nb2 3.000925 1_545
Al1 Sc3 3.015387 1_555
Al2 Ru0 2.619884 1_565
Al2 Ru3 2.746068 1_455
Al2 Ru4 2.746068 1_554
Al2 Ru5 2.753993 1_454
Al2 Al9 2.758962 1_554
Al2 Sc5 2.969035 1_554
Al2 Sc0 2.969035 1_455
Al2 Nb0 3.000925 1_455
Al2 Nb2 3.000925 1_554
Al2 Sc1 3.015387 1_555
Al3 Ru0 2.619884 1_655
Al3 Ru4 2.746068 1_554
Al3 Ru2 2.746068 1_545
Al3 Ru6 2.753993 1_544
Al3 Al9 2.758962 1_554
Al3 Sc0 2.969035 1_545
Al3 Sc4 2.969035 1_554
Al3 Nb0 3.000925 1_545
Al3 Nb1 3.000925 1_554
Al3 Sc2 3.015387 1_555
Al4 Ru0 2.604724 1_555
Al4 Ru5 2.704748 1_454
Al4 Ru1 2.704749 1_445
Al4 Ru6 2.704749 1_544
Al4 Al9 2.780617 1_554
Al4 Sc1 2.993376 1_545
Al4 Sc2 2.993377 1_455
Al4 Sc3 2.993377 1_554
Al4 Nb2 3.038320 1_544
Al4 Nb1 3.038320 1_454
Al4 Nb0 3.038320 1_445
Al5 Ru6 2.518821 1_554
Al5 Ru5 2.518821 1_554
Al5 Ru4 2.563435 1_554
Al5 Nb1 2.808644 1_554
Al5 Nb2 2.808644 1_554
Al5 Sc0 2.897238 1_555
Al5 Al6 2.945245 1_564
Al5 Al7 2.945245 1_654
Al5 Sc2 2.981601 1_555
Al5 Sc1 2.981602 1_555
Al5 Al8 3.058730 1_554
Al6 Ru6 2.518821 1_545
Al6 Ru1 2.518822 1_545
Al6 Ru2 2.563435 1_545
Al6 Nb0 2.808644 1_545
Al6 Nb2 2.808644 1_545
Al6 Sc4 2.897238 1_555
Al6 Al7 2.945245 1_645
Al6 Sc3 2.981601 1_555
Al6 Sc2 2.981602 1_555
Al6 Al8 3.058730 1_545
Al7 Ru5 2.518821 1_455
Al7 Ru1 2.518821 1_455
Al7 Ru3 2.563435 1_455
Al7 Nb0 2.808644 1_455
Al7 Nb1 2.808644 1_455
Al7 Sc5 2.897238 1_555
Al7 Sc3 2.981601 1_555
Al7 Sc1 2.981602 1_555
Al7 Al8 3.058730 1_455
Al8 Ru2 2.513595 1_555
Al8 Ru3 2.513596 1_555
Al8 Ru4 2.513596 1_555
Al8 Nb1 2.786847 1_555
Al8 Nb2 2.786847 1_555
Al8 Nb0 2.786847 1_555
Al8 Sc0 2.990038 1_555
Al8 Sc4 2.990038 1_555
Al8 Sc5 2.990038 1_555
Al9 Ru4 2.556718 1_555
Al9 Ru6 2.557393 1_545
Al9 Ru5 2.557393 1_455
Al9 Sc5 2.973424 1_555
Al9 Sc4 2.973424 1_555
Al9 Sc3 2.990657 1_555
Al10 Ru2 2.556718 1_555
Al10 Ru6 2.557393 1_554
Al10 Ru1 2.557394 1_455
Al10 Al3 2.758962 1_565
Al10 Al4 2.780617 1_565
Al10 Al11 2.967265 1_465
Al10 Al9 2.967265 1_564
Al10 Al12 2.967454 1_565
Al10 Sc0 2.973423 1_555
Al10 Sc5 2.973424 1_555
Al10 Sc1 2.990657 1_555
Al11 Ru3 2.556718 1_555
Al11 Ru5 2.557393 1_554
Al11 Ru1 2.557393 1_545
Al11 Al2 2.758962 1_655
Al11 Al4 2.780617 1_655
Al11 Al9 2.967266 1_654
Al11 Al12 2.967454 1_655
Al11 Sc0 2.973423 1_555
Al11 Sc4 2.973424 1_555
Al11 Sc2 2.990657 1_555
Al12 Ru2 2.569374 1_545
Al12 Ru3 2.569374 1_455
Al12 Ru4 2.569374 1_554
Al12 Al2 2.775227 1_555
Al12 Al3 2.775227 1_555
Al12 Al9 2.967454 1_554
Al12 Sc3 2.971949 1_555
Al12 Sc1 2.971949 1_555
Al12 Sc2 2.971949 1_555
Ru1 Sc4 3.120418 1_565
Ru1 Sc5 3.120418 1_655
Ru1 Sc1 3.136577 1_655
Ru1 Sc2 3.136577 1_565
Ru2 Sc3 3.163117 1_565
Ru2 Sc2 3.163118 1_565
Ru3 Sc3 3.163117 1_655
Ru3 Sc1 3.163118 1_655
Ru4 Sc1 3.163117 1_556
Ru4 Sc2 3.163117 1_556
Ru5 Sc0 3.120418 1_556
Ru5 Sc5 3.120419 1_655
Ru5 Sc3 3.136577 1_655
Ru5 Sc2 3.136577 1_556
Ru6 Sc0 3.120418 1_556
Ru6 Sc4 3.120418 1_565
Ru6 Sc3 3.136577 1_565
Ru6 Sc1 3.136577 1_556
