# generated using pymatgen
data_Ba3MgPdO6
_symmetry_space_group_name_H-M   'P 1'
_cell_length_a   6.99761190
_cell_length_b   6.99761284
_cell_length_c   6.99761242
_cell_angle_alpha   93.79874852
_cell_angle_beta   93.79874930
_cell_angle_gamma   93.79874552
_symmetry_Int_Tables_number   1
_chemical_formula_structural   Ba3MgPdO6
_chemical_formula_sum   'Ba6 Mg2 Pd2 O12'
_cell_volume   340.28533832
_cell_formula_units_Z   2
loop_
 _symmetry_equiv_pos_site_id
 _symmetry_equiv_pos_as_xyz
  1  'x, y, z'
loop_
 _atom_site_type_symbol
 _atom_site_label
 _atom_site_symmetry_multiplicity
 _atom_site_fract_x
 _atom_site_fract_y
 _atom_site_fract_z
 _atom_site_occupancy
  Ba  Ba0  1  0.61475323  0.25000000  0.88524677  1
  Ba  Ba1  1  0.88524677  0.61475323  0.25000000  1
  Ba  Ba2  1  0.75000000  0.11475323  0.38524677  1
  Ba  Ba3  1  0.38524677  0.75000000  0.11475323  1
  Ba  Ba4  1  0.11475323  0.38524677  0.75000000  1
  Ba  Ba5  1  0.25000000  0.88524677  0.61475323  1
  Mg  Mg0  1  0.25000000  0.25000000  0.25000000  1
  Mg  Mg1  1  0.75000000  0.75000000  0.75000000  1
  Pd  Pd0  1  0.00000000  0.00000000  0.00000000  1
  Pd  Pd1  1  0.50000000  0.50000000  0.50000000  1
  O  O0  1  0.59765677  0.77744123  0.47173185  1
  O  O1  1  0.47173185  0.59765677  0.77744123  1
  O  O2  1  0.77744123  0.47173185  0.59765677  1
  O  O3  1  0.90234323  0.02826815  0.72255877  1
  O  O4  1  0.72255877  0.90234323  0.02826815  1
  O  O5  1  0.02826815  0.72255877  0.90234323  1
  O  O6  1  0.40234323  0.22255877  0.52826815  1
  O  O7  1  0.52826815  0.40234323  0.22255877  1
  O  O8  1  0.22255877  0.52826815  0.40234323  1
  O  O9  1  0.09765677  0.97173185  0.27744123  1
  O  O10  1  0.97173185  0.27744123  0.09765677  1
  O  O11  1  0.27744123  0.09765677  0.97173185  1
loop_
_geom_bond_atom_site_label_1
_geom_bond_atom_site_label_2
_geom_bond_distance
_geom_bond_site_symmetry_2
Ba0 O11 2.648666 1_555
Ba0 O7 2.648666 1_556
Ba0 O10 2.809410 1_556
Ba0 O6 2.809410 1_555
Ba0 O1 2.820428 1_555
Ba0 O4 2.820428 1_546
Ba0 O3 2.869956 1_555
Ba0 O2 2.869956 1_555
Ba1 O8 2.648666 1_655
Ba1 O10 2.648666 1_555
Ba1 O7 2.809410 1_555
Ba1 O9 2.809410 1_655
Ba1 O5 2.820428 1_654
Ba1 O2 2.820428 1_555
Ba1 O0 2.869956 1_555
Ba1 O4 2.869956 1_555
Ba2 O3 2.648666 1_555
Ba2 O0 2.648666 1_545
Ba2 O4 2.809410 1_545
Ba2 O2 2.809410 1_555
Ba2 O9 2.820428 1_645
Ba2 O6 2.820428 1_555
Ba2 O7 2.869956 1_555
Ba2 O10 2.869956 1_555
Ba3 O4 2.648666 1_555
Ba3 O1 2.648666 1_554
Ba3 O5 2.809410 1_554
Ba3 O0 2.809410 1_555
Ba3 O7 2.820428 1_555
Ba3 O11 2.820428 1_564
Ba3 O9 2.869956 1_555
Ba3 O8 2.869956 1_555
Ba4 O2 2.648666 1_455
Ba4 O5 2.648666 1_555
Ba4 O1 2.809410 1_555
Ba4 O3 2.809410 1_455
Ba4 O10 2.820428 1_456
Ba4 O8 2.820428 1_555
Ba4 O6 2.869956 1_555
Ba4 O11 2.869956 1_555
Ba5 O9 2.648666 1_555
Ba5 O6 2.648666 1_565
Ba5 O11 2.809410 1_565
Ba5 O8 2.809410 1_555
Ba5 O3 2.820428 1_465
Ba5 O0 2.820428 1_555
Ba5 O1 2.869956 1_555
Ba5 O5 2.869956 1_555
Mg0 O10 2.183246 1_455
Mg0 O6 2.183246 1_555
Mg0 O7 2.183246 1_555
Mg0 O11 2.183246 1_554
Mg0 O8 2.183246 1_555
Mg0 O9 2.183247 1_545
Mg1 O5 2.183246 1_655
Mg1 O0 2.183246 1_555
Mg1 O1 2.183246 1_555
Mg1 O4 2.183246 1_556
Mg1 O2 2.183246 1_555
Mg1 O3 2.183247 1_565
O0 Pd1 2.041631 1_555
O1 Pd1 2.041630 1_555
O2 Pd1 2.041630 1_555
O3 Pd0 2.041630 1_656
O4 Pd0 2.041630 1_665
O5 Pd0 2.041630 1_566
O6 Pd1 2.041631 1_555
O7 Pd1 2.041630 1_555
O8 Pd1 2.041630 1_555
O9 Pd0 2.041630 1_565
O10 Pd0 2.041630 1_655
O11 Pd0 2.041630 1_556
