# generated using pymatgen
data_Ta4CrB2P
_symmetry_space_group_name_H-M   'P 1'
_cell_length_a   5.99964993
_cell_length_b   5.99964990
_cell_length_c   7.10893368
_cell_angle_alpha   114.95964230
_cell_angle_beta   114.95963509
_cell_angle_gamma   89.99999308
_symmetry_Int_Tables_number   1
_chemical_formula_structural   Ta4CrB2P
_chemical_formula_sum   'Ta8 Cr2 B4 P2'
_cell_volume   205.33081023
_cell_formula_units_Z   2
loop_
 _symmetry_equiv_pos_site_id
 _symmetry_equiv_pos_as_xyz
  1  'x, y, z'
loop_
 _atom_site_type_symbol
 _atom_site_label
 _atom_site_symmetry_multiplicity
 _atom_site_fract_x
 _atom_site_fract_y
 _atom_site_fract_z
 _atom_site_occupancy
  Ta  Ta0  1  0.03151977  0.53151977  0.72308481  1
  Ta  Ta1  1  0.69156504  0.19156504  0.72308481  1
  Ta  Ta2  1  0.19156504  0.03151977  0.72308481  1
  Ta  Ta3  1  0.53151977  0.69156504  0.72308481  1
  Ta  Ta4  1  0.96848023  0.46848023  0.27691519  1
  Ta  Ta5  1  0.30843496  0.80843496  0.27691519  1
  Ta  Ta6  1  0.80843496  0.96848023  0.27691519  1
  Ta  Ta7  1  0.46848023  0.30843496  0.27691519  1
  Cr  Cr0  1  0.50000000  0.50000000  0.00000000  1
  Cr  Cr1  1  0.00000000  0.00000000  0.00000000  1
  B  B0  1  0.37958704  0.87958704  0.00000000  1
  B  B1  1  0.62041296  0.12041296  1.00000000  1
  B  B2  1  0.12041296  0.37958704  0.00000000  1
  B  B3  1  0.87958704  0.62041296  1.00000000  1
  P  P0  1  0.25000000  0.25000000  0.50000000  1
  P  P1  1  0.75000000  0.75000000  0.50000000  1
loop_
_geom_bond_atom_site_label_1
_geom_bond_atom_site_label_2
_geom_bond_distance
_geom_bond_site_symmetry_2
Cr0 Ta5 2.730502 1_555
Cr0 Ta1 2.730502 1_554
Cr0 Ta6 2.730502 1_555
Cr0 Ta2 2.730502 1_554
Cr0 Ta4 2.730502 1_555
Cr0 Ta0 2.730502 1_554
Cr0 Ta3 2.730502 1_554
Cr0 Ta7 2.730502 1_555
Cr0 P1 2.852150 1_555
Cr0 P0 2.852150 1_554
Cr1 Ta4 2.730502 1_455
Cr1 Ta0 2.730502 1_544
Cr1 Ta7 2.730502 1_555
Cr1 Ta3 2.730502 1_444
Cr1 Ta5 2.730502 1_545
Cr1 Ta1 2.730502 1_454
Cr1 Ta2 2.730502 1_554
Cr1 Ta6 2.730502 1_445
Cr1 P0 2.852150 1_555
Cr1 P1 2.852150 1_444
B0 B1 2.043357 1_564
B0 Ta7 2.370440 1_565
B0 Ta3 2.370441 1_554
B0 Ta6 2.370441 1_555
B0 Ta2 2.370441 1_564
B0 Ta0 2.378696 1_554
B0 Ta5 2.378697 1_555
B0 Cr0 2.389229 1_555
B0 Cr1 2.389229 1_565
B1 Ta3 2.370440 1_545
B1 Ta7 2.370441 1_556
B1 Ta2 2.370441 1_555
B1 Ta6 2.370441 1_546
B1 Ta4 2.378696 1_556
B1 Ta1 2.378697 1_555
B1 Cr0 2.389229 1_556
B1 Cr1 2.389229 1_656
B2 B3 2.043356 1_454
B2 Ta5 2.370440 1_555
B2 Ta1 2.370441 1_454
B2 Ta4 2.370441 1_455
B2 Ta0 2.370441 1_554
B2 Ta2 2.378696 1_554
B2 Ta7 2.378697 1_555
B2 Cr1 2.389229 1_555
B2 Cr0 2.389229 1_555
B3 Ta1 2.370440 1_555
B3 Ta5 2.370441 1_656
B3 Ta0 2.370441 1_655
B3 Ta4 2.370441 1_556
B3 Ta6 2.378696 1_556
B3 Ta3 2.378697 1_555
B3 Cr1 2.389229 1_666
B3 Cr0 2.389229 1_556
P0 Ta5 2.565121 1_545
P0 Ta0 2.565121 1_555
P0 Ta3 2.565121 1_555
P0 Ta1 2.565121 1_555
P0 Ta6 2.565121 1_445
P0 Ta4 2.565121 1_455
P0 Ta7 2.565121 1_555
P0 Ta2 2.565121 1_555
P1 Ta1 2.565121 1_565
P1 Ta4 2.565121 1_555
P1 Ta7 2.565121 1_555
P1 Ta5 2.565121 1_555
P1 Ta2 2.565121 1_665
P1 Ta0 2.565121 1_655
P1 Ta3 2.565121 1_555
P1 Ta6 2.565121 1_555
