# generated using pymatgen
data_Y2TcNiRu2
_symmetry_space_group_name_H-M   'P 1'
_cell_length_a   5.38757906
_cell_length_b   5.27633396
_cell_length_c   5.38757915
_cell_angle_alpha   57.02908483
_cell_angle_beta   60.50816479
_cell_angle_gamma   57.02909099
_symmetry_Int_Tables_number   1
_chemical_formula_structural   Y2TcNiRu2
_chemical_formula_sum   'Y2 Tc1 Ni1 Ru2'
_cell_volume   103.52275860
_cell_formula_units_Z   1
loop_
 _symmetry_equiv_pos_site_id
 _symmetry_equiv_pos_as_xyz
  1  'x, y, z'
loop_
 _atom_site_type_symbol
 _atom_site_label
 _atom_site_symmetry_multiplicity
 _atom_site_fract_x
 _atom_site_fract_y
 _atom_site_fract_z
 _atom_site_occupancy
  Y  Y0  1  0.12556888  0.11844244  0.12556888  1
  Y  Y1  1  0.87443112  0.88155756  0.87443112  1
  Tc  Tc0  1  0.50000000  0.00000000  0.50000000  1
  Ni  Ni0  1  0.50000000  0.50000000  0.50000000  1
  Ru  Ru0  1  0.00000000  0.50000000  0.50000000  1
  Ru  Ru1  1  0.50000000  0.50000000  0.00000000  1
loop_
_geom_bond_atom_site_label_1
_geom_bond_atom_site_label_2
_geom_bond_distance
_geom_bond_site_symmetry_2
Y0 Y1 3.133191 1_454
Y0 Y1 3.263091 1_445
Y0 Y1 3.263091 1_544
Y0 Y1 3.272211 1_444
Tc0 Y1 3.129183 1_545
Tc0 Y0 3.129183 1_555
Tc0 Y0 3.169401 1_655
Tc0 Y1 3.169401 1_445
Tc0 Y0 3.169401 1_556
Tc0 Y1 3.169401 1_544
Ni0 Tc0 2.638167 1_565
Ni0 Tc0 2.638167 1_555
Ni0 Ru0 2.693790 1_555
Ni0 Ru0 2.693790 1_655
Ni0 Ru1 2.693790 1_556
Ni0 Ru1 2.693790 1_555
Ni0 Y1 2.909311 1_545
Ni0 Y0 2.909311 1_565
Ni0 Y0 3.134084 1_556
Ni0 Y1 3.134084 1_554
Ni0 Y1 3.134084 1_455
Ni0 Y0 3.134084 1_655
Ru0 Tc0 2.545848 1_465
Ru0 Tc0 2.545848 1_555
Ru0 Ru1 2.714454 1_456
Ru0 Ru1 2.714454 1_555
Ru0 Y0 3.011532 1_565
Ru0 Y1 3.011532 1_445
Ru0 Y0 3.040895 1_556
Ru0 Y1 3.040895 1_454
Ru0 Y1 3.189734 1_455
Ru0 Y0 3.189734 1_555
Ru1 Tc0 2.545848 1_555
Ru1 Tc0 2.545848 1_564
Ru1 Y0 3.011533 1_565
Ru1 Y1 3.011533 1_544
Ru1 Y0 3.040895 1_655
Ru1 Y1 3.040895 1_454
Ru1 Y1 3.189734 1_554
Ru1 Y0 3.189734 1_555
