# generated using pymatgen
data_BaNaPd4
_symmetry_space_group_name_H-M   'P 1'
_cell_length_a   5.54017379
_cell_length_b   5.54017423
_cell_length_c   5.54017459
_cell_angle_alpha   59.99999788
_cell_angle_beta   59.99999525
_cell_angle_gamma   60.00000280
_symmetry_Int_Tables_number   1
_chemical_formula_structural   BaNaPd4
_chemical_formula_sum   'Ba1 Na1 Pd4'
_cell_volume   120.24173982
_cell_formula_units_Z   1
loop_
 _symmetry_equiv_pos_site_id
 _symmetry_equiv_pos_as_xyz
  1  'x, y, z'
loop_
 _atom_site_type_symbol
 _atom_site_label
 _atom_site_symmetry_multiplicity
 _atom_site_fract_x
 _atom_site_fract_y
 _atom_site_fract_z
 _atom_site_occupancy
  Ba  Ba0  1  0.75000000  0.75000000  0.75000000  1
  Na  Na0  1  0.50000000  0.50000000  0.50000000  1
  Pd  Pd0  1  0.12550650  0.12550650  0.12550650  1
  Pd  Pd1  1  0.62347950  0.12550650  0.12550650  1
  Pd  Pd2  1  0.12550650  0.62347950  0.12550650  1
  Pd  Pd3  1  0.12550650  0.12550650  0.62347950  1
loop_
_geom_bond_atom_site_label_1
_geom_bond_atom_site_label_2
_geom_bond_distance
_geom_bond_site_symmetry_2
Ba0 Pd3 3.249416 1_665
Ba0 Pd2 3.249416 1_656
Ba0 Pd1 3.249416 1_566
Ba0 Pd0 3.249418 1_665
Ba0 Pd0 3.249419 1_566
Ba0 Pd0 3.249419 1_656
Ba0 Pd2 3.249421 1_556
Ba0 Pd1 3.249421 1_556
Ba0 Pd3 3.249421 1_565
Ba0 Pd2 3.249421 1_655
Ba0 Pd3 3.249421 1_655
Ba0 Pd1 3.249421 1_565
Ba0 Na0 3.392650 1_655
Ba0 Na0 3.392650 1_556
Ba0 Na0 3.392650 1_555
Ba0 Na0 3.392650 1_565
Na0 Pd2 3.247023 1_655
Na0 Pd1 3.247023 1_565
Na0 Pd3 3.247023 1_655
Na0 Pd2 3.247023 1_556
Na0 Pd3 3.247023 1_565
Na0 Pd1 3.247023 1_556
Na0 Pd0 3.247025 1_556
Na0 Pd0 3.247026 1_655
Na0 Pd0 3.247026 1_565
Na0 Pd3 3.247028 1_555
Na0 Pd2 3.247028 1_555
Na0 Pd1 3.247028 1_555
Pd0 Pd1 2.758857 1_555
Pd0 Pd2 2.758857 1_555
Pd0 Pd3 2.758857 1_555
Pd0 Pd1 2.781317 1_455
Pd0 Pd2 2.781317 1_545
Pd0 Pd3 2.781317 1_554
Pd1 Pd3 2.758857 1_555
Pd1 Pd2 2.758857 1_555
Pd1 Pd3 2.781317 1_654
Pd1 Pd2 2.781317 1_645
Pd2 Pd3 2.758857 1_555
Pd2 Pd3 2.781317 1_564
