# generated using pymatgen
data_Na2SnH2F8
_symmetry_space_group_name_H-M   'P 1'
_cell_length_a   5.52129200
_cell_length_b   5.47892875
_cell_length_c   5.47892896
_cell_angle_alpha   96.20822492
_cell_angle_beta   105.94772801
_cell_angle_gamma   105.94772565
_symmetry_Int_Tables_number   1
_chemical_formula_structural   Na2SnH2F8
_chemical_formula_sum   'Na2 Sn1 H2 F8'
_cell_volume   150.17623682
_cell_formula_units_Z   1
loop_
 _symmetry_equiv_pos_site_id
 _symmetry_equiv_pos_as_xyz
  1  'x, y, z'
loop_
 _atom_site_type_symbol
 _atom_site_label
 _atom_site_symmetry_multiplicity
 _atom_site_fract_x
 _atom_site_fract_y
 _atom_site_fract_z
 _atom_site_occupancy
  Na  Na0  1  0.49999900  0.72958492  0.27041308  1
  Na  Na1  1  0.49999900  0.27041308  0.72958492  1
  Sn  Sn0  1  0.00000000  0.00000000  0.00000000  1
  H  H0  1  0.77372031  0.35494933  0.35494933  1
  H  H1  1  0.22627969  0.64505167  0.64505167  1
  F  F0  1  0.75935519  0.66114071  0.00455293  1
  F  F1  1  0.76918112  0.15178333  0.15178333  1
  F  F2  1  0.24064481  0.99544807  0.33886029  1
  F  F3  1  0.73715827  0.47376488  0.47376488  1
  F  F4  1  0.26284173  0.52623512  0.52623512  1
  F  F5  1  0.75935519  0.00455293  0.66114071  1
  F  F6  1  0.23081888  0.84821567  0.84821567  1
  F  F7  1  0.24064481  0.33886029  0.99544807  1
loop_
_geom_bond_atom_site_label_1
_geom_bond_atom_site_label_2
_geom_bond_distance
_geom_bond_site_symmetry_2
F0 Sn0 1.971187 1_665
F0 Na1 2.309866 1_554
F0 Na0 2.374055 1_555
F1 H0 1.476517 1_555
F1 Sn0 2.005617 1_655
F1 Na1 2.636097 1_554
F1 Na0 2.636097 1_545
F2 Sn0 1.971189 1_565
F2 Na1 2.309846 1_565
F2 Na0 2.374063 1_555
F3 H0 0.970092 1_555
F3 Na0 2.337748 1_555
F3 Na1 2.337748 1_555
F4 H1 0.970099 1_555
F4 Na1 2.337746 1_555
F4 Na0 2.337746 1_555
F5 Sn0 1.971187 1_656
F5 Na0 2.309866 1_545
F5 Na1 2.374055 1_555
F6 H1 1.476503 1_555
F6 Sn0 2.005623 1_566
F6 Na0 2.636091 1_556
F6 Na1 2.636091 1_565
F7 Sn0 1.971189 1_556
F7 Na0 2.309846 1_556
F7 Na1 2.374063 1_555
