# generated using pymatgen
data_Ba3GaO4F
_symmetry_space_group_name_H-M   'P 1'
_cell_length_a   7.82024900
_cell_length_b   7.82024821
_cell_length_c   7.82024859
_cell_angle_alpha   124.57171232
_cell_angle_beta   124.57170231
_cell_angle_gamma   82.24864088
_symmetry_Int_Tables_number   1
_chemical_formula_structural   Ba3GaO4F
_chemical_formula_sum   'Ba6 Ga2 O8 F2'
_cell_volume   311.67340017
_cell_formula_units_Z   2
loop_
 _symmetry_equiv_pos_site_id
 _symmetry_equiv_pos_as_xyz
  1  'x, y, z'
loop_
 _atom_site_type_symbol
 _atom_site_label
 _atom_site_symmetry_multiplicity
 _atom_site_fract_x
 _atom_site_fract_y
 _atom_site_fract_z
 _atom_site_occupancy
  Ba  Ba0  1  0.83160252  0.33160252  0.16320605  1
  Ba  Ba1  1  0.33160252  0.16839748  0.50000000  1
  Ba  Ba2  1  0.66839748  0.83160252  0.50000000  1
  Ba  Ba3  1  0.16839748  0.66839748  0.83679395  1
  Ba  Ba4  1  0.25000000  0.25000000  0.00000000  1
  Ba  Ba5  1  0.75000000  0.75000000  0.00000000  1
  Ga  Ga0  1  0.75000000  0.25000000  0.50000000  1
  Ga  Ga1  1  0.25000000  0.75000000  0.50000000  1
  O  O0  1  0.50818453  0.00818453  0.21807217  1
  O  O1  1  0.20988563  0.70988563  0.21807217  1
  O  O2  1  0.49181547  0.99181547  0.78192783  1
  O  O3  1  0.99181547  0.20988563  0.50000000  1
  O  O4  1  0.70988563  0.49181547  0.50000000  1
  O  O5  1  0.00818453  0.79011437  0.50000000  1
  O  O6  1  0.29011437  0.50818453  0.50000000  1
  O  O7  1  0.79011437  0.29011437  0.78192783  1
  F  F0  1  0.50000000  0.50000000  0.00000000  1
  F  F1  1  0.00000000  0.00000000  0.00000000  1
loop_
_geom_bond_atom_site_label_1
_geom_bond_atom_site_label_2
_geom_bond_distance
_geom_bond_site_symmetry_2
Ba0 O2 2.633158 1_544
Ba0 O7 2.633182 1_554
Ba0 F1 2.705202 1_655
Ba0 F0 2.705202 1_555
Ba0 O4 2.862031 1_555
Ba0 O3 2.862031 1_555
Ba0 O5 2.862038 1_655
Ba0 O6 2.862039 1_655
Ba1 O6 2.633158 1_555
Ba1 O3 2.633158 1_455
Ba1 F0 2.705200 1_556
Ba1 F1 2.705200 1_555
Ba1 O0 2.862025 1_555
Ba1 O2 2.862026 1_545
Ba1 O1 2.862040 1_545
Ba1 O7 2.862040 1_555
Ba2 O4 2.633158 1_555
Ba2 O5 2.633158 1_655
Ba2 F0 2.705200 1_555
Ba2 F1 2.705200 1_666
Ba2 O2 2.862025 1_555
Ba2 O0 2.862026 1_565
Ba2 O7 2.862040 1_565
Ba2 O1 2.862040 1_555
Ba3 O0 2.633158 1_566
Ba3 O1 2.633182 1_556
Ba3 F1 2.705202 1_566
Ba3 F0 2.705202 1_556
Ba3 O6 2.862031 1_555
Ba3 O5 2.862031 1_555
Ba3 O3 2.862038 1_455
Ba3 O4 2.862039 1_455
Ba4 F0 2.945435 1_555
Ba4 F1 2.945435 1_555
Ba4 O1 3.046849 1_555
Ba4 O7 3.046850 1_454
Ba4 O5 3.046850 1_544
Ba4 O6 3.046850 1_555
Ba4 O3 3.046851 1_454
Ba4 O4 3.046851 1_555
Ba4 O2 3.046859 1_544
Ba4 O0 3.046859 1_555
Ba5 F0 2.945435 1_555
Ba5 F1 2.945435 1_665
Ba5 O7 3.046849 1_554
Ba5 O1 3.046850 1_655
Ba5 O3 3.046850 1_565
Ba5 O4 3.046850 1_554
Ba5 O5 3.046851 1_655
Ba5 O6 3.046851 1_554
Ba5 O0 3.046859 1_565
Ba5 O2 3.046859 1_554
Ga0 O7 1.874680 1_555
Ga0 O0 1.874695 1_555
Ga0 O4 1.874695 1_555
Ga0 O3 1.874696 1_555
Ga1 O1 1.874680 1_555
Ga1 O2 1.874695 1_555
Ga1 O6 1.874695 1_555
Ga1 O5 1.874696 1_555
