# generated using pymatgen
data_Ga6TcRh
_symmetry_space_group_name_H-M   'P 1'
_cell_length_a   6.50739845
_cell_length_b   6.50739845
_cell_length_c   6.73363923
_cell_angle_alpha   90.00000000
_cell_angle_beta   90.00000000
_cell_angle_gamma   89.62995492
_symmetry_Int_Tables_number   1
_chemical_formula_structural   Ga6TcRh
_chemical_formula_sum   'Ga12 Tc2 Rh2'
_cell_volume   285.13831961
_cell_formula_units_Z   2
loop_
 _symmetry_equiv_pos_site_id
 _symmetry_equiv_pos_as_xyz
  1  'x, y, z'
loop_
 _atom_site_type_symbol
 _atom_site_label
 _atom_site_symmetry_multiplicity
 _atom_site_fract_x
 _atom_site_fract_y
 _atom_site_fract_z
 _atom_site_occupancy
  Ga  Ga0  1  0.00000000  0.50000000  0.50000000  1
  Ga  Ga1  1  0.50000000  0.00000000  0.00000000  1
  Ga  Ga2  1  0.50000000  0.00000000  0.50000000  1
  Ga  Ga3  1  0.00000000  0.50000000  0.00000000  1
  Ga  Ga4  1  0.34788812  0.65211188  0.23817898  1
  Ga  Ga5  1  0.65211188  0.34788812  0.23817898  1
  Ga  Ga6  1  0.15673626  0.15673626  0.73095271  1
  Ga  Ga7  1  0.84326374  0.84326374  0.73095271  1
  Ga  Ga8  1  0.65211188  0.34788812  0.76182102  1
  Ga  Ga9  1  0.34788812  0.65211188  0.76182102  1
  Ga  Ga10  1  0.84326374  0.84326374  0.26904729  1
  Ga  Ga11  1  0.15673626  0.15673626  0.26904729  1
  Tc  Tc0  1  0.16159498  0.83840502  0.50000000  1
  Tc  Tc1  1  0.83840502  0.16159498  0.50000000  1
  Rh  Rh0  1  0.34185477  0.34185477  0.00000000  1
  Rh  Rh1  1  0.65814523  0.65814523  0.00000000  1
loop_
_geom_bond_atom_site_label_1
_geom_bond_atom_site_label_2
_geom_bond_distance
_geom_bond_site_symmetry_2
Ga0 Tc0 2.446446 1_555
Ga0 Tc1 2.446446 1_455
Ga1 Rh0 2.445053 1_555
Ga1 Rh1 2.445053 1_545
Ga2 Tc1 2.446446 1_555
Ga2 Tc0 2.446446 1_545
Ga3 Rh0 2.445053 1_555
Ga3 Rh1 2.445053 1_455
Ga4 Tc0 2.455296 1_555
Ga4 Rh1 2.578954 1_555
Ga4 Rh0 2.578954 1_555
Ga5 Tc1 2.455296 1_555
Ga5 Rh0 2.578954 1_555
Ga5 Rh1 2.578954 1_555
Ga6 Rh0 2.490622 1_556
Ga6 Tc0 2.590328 1_545
Ga6 Tc1 2.590328 1_455
Ga7 Rh1 2.490622 1_556
Ga7 Tc0 2.590328 1_655
Ga7 Tc1 2.590328 1_565
Ga8 Tc1 2.455296 1_555
Ga8 Rh0 2.578954 1_556
Ga8 Rh1 2.578954 1_556
Ga9 Tc0 2.455296 1_555
Ga9 Rh0 2.578954 1_556
Ga9 Rh1 2.578954 1_556
Ga10 Rh1 2.490622 1_555
Ga10 Tc1 2.590328 1_565
Ga10 Tc0 2.590328 1_655
Ga11 Rh0 2.490622 1_555
Ga11 Tc1 2.590328 1_455
Ga11 Tc0 2.590328 1_545
