# generated using pymatgen
data_LuBiCO5
_symmetry_space_group_name_H-M   'P 1'
_cell_length_a   5.27069019
_cell_length_b   5.29342639
_cell_length_c   13.45218352
_cell_angle_alpha   90.00000000
_cell_angle_beta   90.00000000
_cell_angle_gamma   90.00000000
_symmetry_Int_Tables_number   1
_chemical_formula_structural   LuBiCO5
_chemical_formula_sum   'Lu4 Bi4 C4 O20'
_cell_volume   375.31606224
_cell_formula_units_Z   4
loop_
 _symmetry_equiv_pos_site_id
 _symmetry_equiv_pos_as_xyz
  1  'x, y, z'
loop_
 _atom_site_type_symbol
 _atom_site_label
 _atom_site_symmetry_multiplicity
 _atom_site_fract_x
 _atom_site_fract_y
 _atom_site_fract_z
 _atom_site_occupancy
  Lu  Lu0  1  0.00000000  0.75000000  0.41893371  1
  Lu  Lu1  1  0.00000000  0.25000000  0.58106629  1
  Lu  Lu2  1  0.50000000  0.25000000  0.41893371  1
  Lu  Lu3  1  0.50000000  0.75000000  0.58106629  1
  Bi  Bi0  1  0.50000000  0.25000000  0.09702731  1
  Bi  Bi1  1  0.00000000  0.25000000  0.90297269  1
  Bi  Bi2  1  0.00000000  0.75000000  0.09702731  1
  Bi  Bi3  1  0.50000000  0.75000000  0.90297269  1
  C  C0  1  0.00000000  0.25000000  0.26033163  1
  C  C1  1  0.50000000  0.75000000  0.26033163  1
  C  C2  1  0.00000000  0.75000000  0.73966837  1
  C  C3  1  0.50000000  0.25000000  0.73966837  1
  O  O0  1  0.65442769  0.10315341  0.69457068  1
  O  O1  1  0.15442769  0.89684659  0.69457068  1
  O  O2  1  0.75000000  0.49764128  0.00000000  1
  O  O3  1  0.15442769  0.39684659  0.30542932  1
  O  O4  1  0.34557231  0.89684659  0.30542932  1
  O  O5  1  0.84557231  0.10315341  0.30542932  1
  O  O6  1  0.34557231  0.39684659  0.69457068  1
  O  O7  1  0.25000000  0.00235872  0.00000000  1
  O  O8  1  0.25000000  0.50235872  0.00000000  1
  O  O9  1  0.00000000  0.25000000  0.16235835  1
  O  O10  1  0.65442769  0.60315341  0.30542932  1
  O  O11  1  0.50000000  0.25000000  0.83764165  1
  O  O12  1  0.00000000  0.75000000  0.83764165  1
  O  O13  1  0.84557231  0.60315341  0.69457068  1
  O  O14  1  0.50000000  0.75000000  0.16235835  1
  O  O15  1  0.75000000  0.99764128  0.00000000  1
  O  O16  1  0.25000000  0.51013583  0.50000000  1
  O  O17  1  0.25000000  0.01013583  0.50000000  1
  O  O18  1  0.75000000  0.98986417  0.50000000  1
  O  O19  1  0.75000000  0.48986417  0.50000000  1
loop_
_geom_bond_atom_site_label_1
_geom_bond_atom_site_label_2
_geom_bond_distance
_geom_bond_site_symmetry_2
Lu0 O18 2.130173 1_455
Lu0 O16 2.130173 1_555
Lu0 O17 2.195825 1_565
Lu0 O19 2.195825 1_455
Lu0 O4 2.500622 1_555
Lu0 O10 2.500622 1_455
Lu0 O5 2.547252 1_465
Lu0 O3 2.547252 1_555
Lu1 O19 2.130173 1_455
Lu1 O17 2.130173 1_555
Lu1 O16 2.195825 1_555
Lu1 O18 2.195825 1_445
Lu1 O6 2.500622 1_555
Lu1 O0 2.500622 1_455
Lu1 O13 2.547252 1_455
Lu1 O1 2.547252 1_545
Lu2 O19 2.130173 1_555
Lu2 O17 2.130173 1_555
Lu2 O16 2.195825 1_555
Lu2 O18 2.195825 1_545
Lu2 O5 2.500622 1_555
Lu2 O3 2.500622 1_555
Lu2 O10 2.547252 1_555
Lu2 O4 2.547252 1_545
Lu3 O18 2.130173 1_555
Lu3 O16 2.130173 1_555
Lu3 O17 2.195825 1_565
Lu3 O19 2.195825 1_555
Lu3 O13 2.500622 1_555
Lu3 O1 2.500622 1_555
Lu3 O0 2.547252 1_565
Lu3 O6 2.547252 1_555
Bi0 O7 2.271182 1_555
Bi0 O2 2.271182 1_555
Bi0 O8 2.285686 1_555
Bi0 O15 2.285686 1_545
Bi0 O9 2.778023 1_555
Bi0 O9 2.778023 1_655
Bi0 O14 2.788810 1_555
Bi0 O14 2.788810 1_545
Bi1 O7 2.271182 1_556
Bi1 O2 2.271182 1_456
Bi1 O8 2.285686 1_556
Bi1 O15 2.285686 1_446
Bi1 O11 2.778023 1_455
Bi1 O11 2.778023 1_555
Bi1 O12 2.788810 1_545
Bi1 O12 2.788810 1_555
Bi2 O15 2.271182 1_455
Bi2 O8 2.271182 1_555
Bi2 O2 2.285686 1_455
Bi2 O7 2.285686 1_565
Bi2 O14 2.778023 1_555
Bi2 O14 2.778023 1_455
Bi2 O9 2.788810 1_555
Bi2 O9 2.788810 1_565
Bi3 O15 2.271182 1_556
Bi3 O8 2.271182 1_556
Bi3 O2 2.285686 1_556
Bi3 O7 2.285686 1_566
Bi3 O12 2.778023 1_555
Bi3 O12 2.778023 1_655
Bi3 O11 2.788810 1_565
Bi3 O11 2.788810 1_555
C0 O3 1.278580 1_555
C0 O5 1.278580 1_455
C0 O9 1.317955 1_555
C1 O4 1.278580 1_555
C1 O10 1.278580 1_555
C1 O14 1.317955 1_555
C2 O1 1.278580 1_555
C2 O13 1.278580 1_455
C2 O12 1.317955 1_555
C3 O0 1.278580 1_555
C3 O6 1.278580 1_555
C3 O11 1.317955 1_555
