# generated using pymatgen
data_CsCdGaF6
_symmetry_space_group_name_H-M   'P 1'
_cell_length_a   7.56747880
_cell_length_b   7.43660917
_cell_length_c   10.37175894
_cell_angle_alpha   90.00000000
_cell_angle_beta   90.00000000
_cell_angle_gamma   90.00000000
_symmetry_Int_Tables_number   1
_chemical_formula_structural   CsCdGaF6
_chemical_formula_sum   'Cs4 Cd4 Ga4 F24'
_cell_volume   583.68507050
_cell_formula_units_Z   4
loop_
 _symmetry_equiv_pos_site_id
 _symmetry_equiv_pos_as_xyz
  1  'x, y, z'
loop_
 _atom_site_type_symbol
 _atom_site_label
 _atom_site_symmetry_multiplicity
 _atom_site_fract_x
 _atom_site_fract_y
 _atom_site_fract_z
 _atom_site_occupancy
  Cs  Cs0  1  0.02839902  0.25000000  0.62615735  1
  Cs  Cs1  1  0.97160098  0.75000000  0.37384265  1
  Cs  Cs2  1  0.47160098  0.75000000  0.12615735  1
  Cs  Cs3  1  0.52839902  0.25000000  0.87384265  1
  Cd  Cd0  1  0.20272536  0.25000000  0.25369100  1
  Cd  Cd1  1  0.79727464  0.75000000  0.74630900  1
  Cd  Cd2  1  0.29727464  0.75000000  0.75369100  1
  Cd  Cd3  1  0.70272536  0.25000000  0.24630900  1
  Ga  Ga0  1  0.00000000  0.00000000  0.00000000  1
  Ga  Ga1  1  0.50000000  0.00000000  0.50000000  1
  Ga  Ga2  1  0.00000000  0.50000000  0.00000000  1
  Ga  Ga3  1  0.50000000  0.50000000  0.50000000  1
  F  F0  1  0.28967817  0.05300346  0.41073998  1
  F  F1  1  0.71032183  0.94699654  0.58926002  1
  F  F2  1  0.21032183  0.94699654  0.91073998  1
  F  F3  1  0.71032183  0.55300346  0.58926002  1
  F  F4  1  0.78967817  0.05300346  0.08926002  1
  F  F5  1  0.28967817  0.44699654  0.41073998  1
  F  F6  1  0.78967817  0.44699654  0.08926002  1
  F  F7  1  0.21032183  0.55300346  0.91073998  1
  F  F8  1  0.56892243  0.25000000  0.50435804  1
  F  F9  1  0.43107757  0.75000000  0.49564196  1
  F  F10  1  0.93107757  0.75000000  0.00435804  1
  F  F11  1  0.06892243  0.25000000  0.99564196  1
  F  F12  1  0.12324278  0.51732291  0.15798959  1
  F  F13  1  0.87675722  0.48267709  0.84201041  1
  F  F14  1  0.37675722  0.48267709  0.65798959  1
  F  F15  1  0.87675722  0.01732291  0.84201041  1
  F  F16  1  0.62324278  0.51732291  0.34201041  1
  F  F17  1  0.12324278  0.98267709  0.15798959  1
  F  F18  1  0.62324278  0.98267709  0.34201041  1
  F  F19  1  0.37675722  0.01732291  0.65798959  1
  F  F20  1  0.44817014  0.25000000  0.14966978  1
  F  F21  1  0.55182986  0.75000000  0.85033022  1
  F  F22  1  0.05182986  0.75000000  0.64966978  1
  F  F23  1  0.94817014  0.25000000  0.35033022  1
loop_
_geom_bond_atom_site_label_1
_geom_bond_atom_site_label_2
_geom_bond_distance
_geom_bond_site_symmetry_2
Cs0 F23 2.924527 1_455
Cs0 F13 3.053362 1_455
Cs0 F15 3.053362 1_455
Cs0 F14 3.170577 1_555
Cs0 F19 3.170577 1_555
Cs0 F3 3.319299 1_455
Cs0 F1 3.319299 1_445
Cs0 F5 3.323779 1_555
Cs0 F0 3.323779 1_555
Cs1 F22 2.924527 1_655
Cs1 F17 3.053362 1_655
Cs1 F12 3.053362 1_655
Cs1 F18 3.170577 1_555
Cs1 F16 3.170577 1_555
Cs1 F0 3.319299 1_665
Cs1 F5 3.319299 1_655
Cs1 F1 3.323779 1_555
Cs1 F3 3.323779 1_555
Cs2 F21 2.924527 1_554
Cs2 F18 3.053362 1_555
Cs2 F16 3.053362 1_555
Cs2 F17 3.170577 1_555
Cs2 F12 3.170577 1_555
Cs2 F4 3.319299 1_565
Cs2 F6 3.319299 1_555
Cs2 F2 3.323779 1_554
Cs2 F7 3.323779 1_554
Cs3 F20 2.924527 1_556
Cs3 F14 3.053362 1_555
Cs3 F19 3.053362 1_555
Cs3 F13 3.170577 1_555
Cs3 F15 3.170577 1_555
Cs3 F7 3.319299 1_555
Cs3 F2 3.319299 1_545
Cs3 F6 3.323779 1_556
Cs3 F4 3.323779 1_556
Cd0 F20 2.148003 1_555
Cd0 F23 2.171505 1_455
Cd0 F5 2.287443 1_555
Cd0 F0 2.287443 1_555
Cd0 F12 2.301971 1_555
Cd0 F17 2.301971 1_545
Cd1 F21 2.148003 1_555
Cd1 F22 2.171505 1_655
Cd1 F1 2.287443 1_555
Cd1 F3 2.287443 1_555
Cd1 F15 2.301971 1_565
Cd1 F13 2.301971 1_555
Cd2 F22 2.148003 1_555
Cd2 F21 2.171505 1_555
Cd2 F2 2.287443 1_555
Cd2 F7 2.287443 1_555
Cd2 F19 2.301971 1_565
Cd2 F14 2.301971 1_555
Cd3 F23 2.148003 1_555
Cd3 F20 2.171505 1_555
Cd3 F6 2.287443 1_555
Cd3 F4 2.287443 1_555
Cd3 F16 2.301971 1_555
Cd3 F18 2.301971 1_545
F0 Ga1 1.882990 1_555
F1 Ga1 1.882990 1_565
F2 Ga0 1.882990 1_566
F3 Ga3 1.882990 1_555
F4 Ga0 1.882990 1_655
F5 Ga3 1.882990 1_555
F6 Ga2 1.882990 1_655
F7 Ga2 1.882990 1_556
F8 Ga1 1.931457 1_555
F8 Ga3 1.931457 1_555
F9 Ga1 1.931457 1_565
F9 Ga3 1.931457 1_555
F10 Ga0 1.931457 1_665
F10 Ga2 1.931457 1_655
F11 Ga0 1.931457 1_556
F11 Ga2 1.931457 1_556
F12 Ga2 1.889845 1_555
F13 Ga2 1.889845 1_656
F14 Ga3 1.889845 1_555
F15 Ga0 1.889845 1_656
F16 Ga3 1.889845 1_555
F17 Ga0 1.889845 1_565
F18 Ga1 1.889845 1_565
F19 Ga1 1.889845 1_555
