# generated using pymatgen
data_Y6Cd23P
_symmetry_space_group_name_H-M   'P 1'
_cell_length_a   9.82951859
_cell_length_b   9.82951847
_cell_length_c   9.82951780
_cell_angle_alpha   60.00000224
_cell_angle_beta   60.00000265
_cell_angle_gamma   60.00000700
_symmetry_Int_Tables_number   1
_chemical_formula_structural   Y6Cd23P
_chemical_formula_sum   'Y6 Cd23 P1'
_cell_volume   671.55524646
_cell_formula_units_Z   1
loop_
 _symmetry_equiv_pos_site_id
 _symmetry_equiv_pos_as_xyz
  1  'x, y, z'
loop_
 _atom_site_type_symbol
 _atom_site_label
 _atom_site_symmetry_multiplicity
 _atom_site_fract_x
 _atom_site_fract_y
 _atom_site_fract_z
 _atom_site_occupancy
  Y  Y0  1  0.79958931  0.79958931  0.20041069  1
  Y  Y1  1  0.20041069  0.79958931  0.20041069  1
  Y  Y2  1  0.79958931  0.20041069  0.20041069  1
  Y  Y3  1  0.20041069  0.20041069  0.79958931  1
  Y  Y4  1  0.79958931  0.20041069  0.79958931  1
  Y  Y5  1  0.20041069  0.79958931  0.79958931  1
  Cd  Cd0  1  0.83319539  0.83319539  0.50041583  1
  Cd  Cd1  1  0.83319539  0.50041583  0.83319539  1
  Cd  Cd2  1  0.50041583  0.83319539  0.83319539  1
  Cd  Cd3  1  0.83319539  0.83319539  0.83319539  1
  Cd  Cd4  1  0.16680461  0.16680461  0.49958417  1
  Cd  Cd5  1  0.16680461  0.49958417  0.16680461  1
  Cd  Cd6  1  0.49958417  0.16680461  0.16680461  1
  Cd  Cd7  1  0.16680461  0.16680461  0.16680461  1
  Cd  Cd8  1  0.62130764  0.62130764  0.13607808  1
  Cd  Cd9  1  0.62130764  0.13607808  0.62130764  1
  Cd  Cd10  1  0.13607808  0.62130764  0.62130764  1
  Cd  Cd11  1  0.62130764  0.62130764  0.62130764  1
  Cd  Cd12  1  0.37869236  0.37869236  0.86392192  1
  Cd  Cd13  1  0.37869236  0.86392192  0.37869236  1
  Cd  Cd14  1  0.86392192  0.37869236  0.37869236  1
  Cd  Cd15  1  0.37869236  0.37869236  0.37869236  1
  Cd  Cd16  1  0.00000000  0.00000000  0.50000000  1
  Cd  Cd17  1  0.50000000  0.00000000  0.50000000  1
  Cd  Cd18  1  0.00000000  0.50000000  0.50000000  1
  Cd  Cd19  1  0.50000000  0.50000000  0.00000000  1
  Cd  Cd20  1  0.00000000  0.50000000  0.00000000  1
  Cd  Cd21  1  0.50000000  0.00000000  0.00000000  1
  Cd  Cd22  1  0.50000000  0.50000000  0.50000000  1
  P  P0  1  0.00000000  0.00000000  0.00000000  1
loop_
_geom_bond_atom_site_label_1
_geom_bond_atom_site_label_2
_geom_bond_distance
_geom_bond_site_symmetry_2
Cd0 Cd16 2.837528 1_665
Cd0 Cd18 2.837545 1_655
Cd0 Cd17 2.837545 1_565
Cd0 Cd9 3.078265 1_565
Cd0 Cd10 3.078265 1_655
Cd0 Cd11 3.078273 1_555
Cd0 Cd3 3.271063 1_555
Cd0 Cd1 3.271063 1_555
Cd0 Cd2 3.271063 1_555
Cd0 Y2 3.312335 1_565
Cd0 Y1 3.312335 1_655
Cd0 Y0 3.312346 1_555
Cd1 Cd20 2.837528 1_656
Cd1 Cd18 2.837545 1_655
Cd1 Cd19 2.837545 1_556
Cd1 Cd8 3.078265 1_556
Cd1 Cd10 3.078265 1_655
Cd1 Cd11 3.078273 1_555
Cd1 Cd3 3.271063 1_555
Cd1 Cd2 3.271063 1_555
Cd1 Y2 3.312334 1_556
Cd1 Y3 3.312335 1_655
Cd1 Y4 3.312346 1_555
Cd2 Cd21 2.837528 1_566
Cd2 Cd8 3.078265 1_556
Cd2 Cd9 3.078265 1_565
Cd2 Cd3 3.271063 1_555
Cd2 Y1 3.312335 1_556
Cd2 Y3 3.312335 1_565
Cd2 Y5 3.312346 1_555
Cd3 Cd8 3.078270 1_556
Cd3 Cd9 3.078271 1_565
Cd3 Y0 3.312327 1_556
Cd3 Y4 3.312327 1_565
Cd3 Y5 3.312327 1_655
Cd4 Cd7 3.271063 1_555
Cd4 Cd5 3.271063 1_555
Cd4 Cd6 3.271063 1_555
Cd4 Y5 3.312335 1_545
Cd4 Y4 3.312335 1_455
Cd4 Y3 3.312346 1_555
Cd5 Cd7 3.271063 1_555
Cd5 Cd6 3.271063 1_555
Cd5 Y5 3.312334 1_554
Cd5 Y0 3.312335 1_455
Cd5 Y1 3.312346 1_555
Cd6 Cd7 3.271063 1_555
Cd6 Y4 3.312335 1_554
Cd6 Y0 3.312335 1_545
Cd6 Y2 3.312346 1_555
Cd7 Y3 3.312327 1_554
Cd7 Y1 3.312327 1_545
Cd7 Y2 3.312327 1_455
Cd8 Y0 3.439354 1_555
Cd8 Y2 3.439363 1_555
Cd8 Y1 3.439363 1_555
Cd9 Y4 3.439354 1_555
Cd9 Y2 3.439362 1_555
Cd9 Y3 3.439363 1_555
Cd10 Cd22 2.920753 1_555
Cd10 Cd20 3.040453 1_556
Cd10 Cd16 3.040453 1_565
Cd10 Cd18 3.040461 1_555
Cd10 Cd3 3.078271 1_455
Cd10 Cd13 3.372590 1_555
Cd10 Cd12 3.372591 1_555
Cd10 Cd15 3.372604 1_555
Cd10 Y5 3.439354 1_555
Cd10 Y1 3.439362 1_555
Cd10 Y3 3.439362 1_555
Cd11 Cd22 2.920761 1_555
Cd11 Cd19 3.040452 1_556
Cd11 Cd17 3.040453 1_565
Cd11 Cd18 3.040453 1_655
Cd11 Cd2 3.078273 1_555
Cd11 Cd12 3.372604 1_555
Cd11 Cd14 3.372604 1_555
Cd11 Cd13 3.372604 1_555
Cd11 Y0 3.439361 1_555
Cd11 Y4 3.439361 1_555
Cd11 Y5 3.439361 1_555
Cd12 Cd22 2.920753 1_555
Cd12 Cd21 3.040453 1_556
Cd12 Cd20 3.040453 1_556
Cd12 Cd19 3.040461 1_556
Cd12 Cd6 3.078265 1_556
Cd12 Cd5 3.078265 1_556
Cd12 Cd7 3.078270 1_556
Cd12 Cd9 3.372591 1_555
Cd12 Y3 3.439354 1_555
Cd12 Y5 3.439363 1_555
Cd12 Y4 3.439363 1_555
Cd13 Cd22 2.920753 1_555
Cd13 Cd21 3.040453 1_565
Cd13 Cd16 3.040453 1_565
Cd13 Cd17 3.040461 1_565
Cd13 Cd6 3.078265 1_565
Cd13 Cd4 3.078265 1_565
Cd13 Cd7 3.078271 1_565
Cd13 Cd8 3.372591 1_555
Cd13 Y1 3.439354 1_555
Cd13 Y5 3.439362 1_555
Cd13 Y0 3.439363 1_555
Cd14 Cd22 2.920753 1_555
Cd14 Cd20 3.040453 1_655
Cd14 Cd16 3.040453 1_655
Cd14 Cd18 3.040461 1_655
Cd14 Cd5 3.078265 1_655
Cd14 Cd4 3.078265 1_655
Cd14 Cd7 3.078271 1_655
Cd14 Cd9 3.372590 1_555
Cd14 Cd8 3.372591 1_555
Cd14 Y2 3.439354 1_555
Cd14 Y4 3.439362 1_555
Cd14 Y0 3.439362 1_555
Cd15 Cd22 2.920761 1_555
Cd15 Cd19 3.040452 1_555
Cd15 Cd17 3.040453 1_555
Cd15 Cd18 3.040453 1_555
Cd15 Cd6 3.078273 1_555
Cd15 Cd4 3.078273 1_555
Cd15 Cd5 3.078273 1_555
Cd15 Cd8 3.372604 1_555
Cd15 Cd9 3.372604 1_555
Cd15 Y3 3.439361 1_555
Cd15 Y1 3.439361 1_555
Cd15 Y2 3.439361 1_555
Cd16 Cd4 2.837528 1_555
Cd16 Cd7 2.837539 1_555
Cd16 Cd3 2.837539 1_445
Cd16 Cd9 3.040453 1_455
Cd16 Y5 3.542968 1_545
Cd16 Y4 3.542968 1_455
Cd16 Y2 3.542968 1_455
Cd16 Y1 3.542968 1_545
Cd17 Cd2 2.837545 1_545
Cd17 Cd6 2.837545 1_555
Cd17 Cd4 2.837545 1_555
Cd17 Cd9 3.040461 1_555
Cd17 Y2 3.542968 1_555
Cd17 Y5 3.542968 1_545
Cd17 Y3 3.542968 1_555
Cd17 Y0 3.542968 1_545
Cd18 Cd5 2.837545 1_555
Cd18 Cd4 2.837545 1_555
Cd18 Y1 3.542968 1_555
Cd18 Y4 3.542968 1_455
Cd18 Y3 3.542968 1_555
Cd18 Y0 3.542968 1_455
Cd19 Cd2 2.837545 1_554
Cd19 Cd6 2.837545 1_555
Cd19 Cd5 2.837545 1_555
Cd19 Cd8 3.040461 1_555
Cd19 Y2 3.542968 1_555
Cd19 Y1 3.542968 1_555
Cd19 Y5 3.542968 1_554
Cd19 Y4 3.542968 1_554
Cd20 Cd5 2.837528 1_555
Cd20 Cd7 2.837540 1_555
Cd20 Cd3 2.837540 1_454
Cd20 Cd8 3.040453 1_455
Cd20 Y5 3.542968 1_554
Cd20 Y2 3.542968 1_455
Cd20 Y0 3.542968 1_455
Cd20 Y3 3.542968 1_554
Cd21 Cd6 2.837528 1_555
Cd21 Cd3 2.837540 1_544
Cd21 Cd7 2.837540 1_555
Cd21 Cd9 3.040453 1_554
Cd21 Cd8 3.040453 1_545
Cd21 Y4 3.542968 1_554
Cd21 Y1 3.542968 1_545
Cd21 Y0 3.542968 1_545
Cd21 Y3 3.542968 1_554
Cd22 Cd8 2.920753 1_555
Cd22 Cd9 2.920753 1_555
P0 Y3 2.785917 1_554
P0 Y0 2.785917 1_445
P0 Y1 2.785917 1_545
P0 Y2 2.785917 1_455
P0 Y4 2.785917 1_454
P0 Y5 2.785917 1_544
