# generated using pymatgen
data_LiTaMnO4
_symmetry_space_group_name_H-M   'P 1'
_cell_length_a   6.17131222
_cell_length_b   8.50458634
_cell_length_c   6.17128196
_cell_angle_alpha   89.99994382
_cell_angle_beta   90.00069269
_cell_angle_gamma   89.99994095
_symmetry_Int_Tables_number   1
_chemical_formula_structural   LiTaMnO4
_chemical_formula_sum   'Li4 Ta4 Mn4 O16'
_cell_volume   323.89638590
_cell_formula_units_Z   4
loop_
 _symmetry_equiv_pos_site_id
 _symmetry_equiv_pos_as_xyz
  1  'x, y, z'
loop_
 _atom_site_type_symbol
 _atom_site_label
 _atom_site_symmetry_multiplicity
 _atom_site_fract_x
 _atom_site_fract_y
 _atom_site_fract_z
 _atom_site_occupancy
  Li  Li0  1  0.21650395  0.99999450  0.00003207  1
  Li  Li1  1  0.78348130  0.49995758  0.99979686  1
  Li  Li2  1  0.99988953  0.24997291  0.21651565  1
  Li  Li3  1  0.00002271  0.74998970  0.78350366  1
  Ta  Ta0  1  0.77672907  0.50000768  0.49996707  1
  Ta  Ta1  1  0.50001139  0.75000206  0.77672959  1
  Ta  Ta2  1  0.49997853  0.25000574  0.22329757  1
  Ta  Ta3  1  0.22328955  0.00000259  0.50001925  1
  Mn  Mn0  1  0.25217020  0.62500392  0.25217903  1
  Mn  Mn1  1  0.25218765  0.37500562  0.74783896  1
  Mn  Mn2  1  0.74783170  0.87500372  0.25217980  1
  Mn  Mn3  1  0.74783119  0.12500463  0.74783218  1
  O  O0  1  0.26477832  0.25248281  0.02768461  1
  O  O1  1  0.73518238  0.24752774  0.02766521  1
  O  O2  1  0.02767055  0.99752697  0.26480942  1
  O  O3  1  0.97232601  0.50248287  0.26476606  1
  O  O4  1  0.02767139  0.00248234  0.73521588  1
  O  O5  1  0.97235628  0.49752710  0.73517804  1
  O  O6  1  0.26480864  0.74752578  0.97234472  1
  O  O7  1  0.73521346  0.75248147  0.97234171  1
  O  O8  1  0.48235135  0.01843342  0.27027993  1
  O  O9  1  0.51764124  0.48157117  0.27028694  1
  O  O10  1  0.27027614  0.23157132  0.48236817  1
  O  O11  1  0.72974913  0.26843120  0.48234712  1
  O  O12  1  0.27027271  0.76843159  0.51766391  1
  O  O13  1  0.72974166  0.73157286  0.51765861  1
  O  O14  1  0.51767960  0.51842777  0.72975628  1
  O  O15  1  0.48235335  0.98157296  0.72974668  1
loop_
_geom_bond_atom_site_label_1
_geom_bond_atom_site_label_2
_geom_bond_distance
_geom_bond_site_symmetry_2
Li0 O2 2.007121 1_555
Li0 O4 2.007292 1_564
Li0 O6 2.174461 1_554
Li0 O0 2.174583 1_565
Li0 O8 2.344709 1_565
Li0 O15 2.344900 1_554
Li1 O5 2.006470 1_555
Li1 O3 2.008108 1_556
Li1 O1 2.174218 1_556
Li1 O7 2.174780 1_555
Li1 O14 2.343619 1_555
Li1 O9 2.345739 1_556
Li2 O1 2.006807 1_555
Li2 O0 2.007679 1_655
Li2 O2 2.174305 1_645
Li2 O3 2.174702 1_555
Li2 O11 2.344208 1_555
Li2 O10 2.345319 1_655
Li3 O6 2.007171 1_555
Li3 O7 2.007303 1_455
Li3 O5 2.174417 1_455
Li3 O4 2.174629 1_565
Li3 O12 2.344715 1_555
Li3 O13 2.344832 1_455
Mn0 O6 2.018453 1_554
Mn0 O3 2.018498 1_455
Mn0 O9 2.045610 1_555
Mn0 O12 2.045647 1_555
Mn1 O5 2.018447 1_455
Mn1 O0 2.018504 1_556
Mn1 O10 2.045608 1_555
Mn1 O14 2.045656 1_555
Mn2 O7 2.018470 1_554
Mn2 O2 2.018488 1_655
Mn2 O13 2.045629 1_555
Mn2 O8 2.045641 1_565
Mn3 O1 2.018456 1_556
Mn3 O4 2.018488 1_655
Mn3 O15 2.045633 1_545
Mn3 O11 2.045633 1_555
O0 Ta2 1.887995 1_555
O1 Ta2 1.888112 1_555
O2 Ta3 1.888063 1_565
O3 Ta0 1.887956 1_555
O4 Ta3 1.888020 1_555
O5 Ta0 1.888101 1_555
O6 Ta1 1.888038 1_555
O7 Ta1 1.888001 1_555
O8 Ta2 1.993625 1_555
O8 Ta3 2.142603 1_555
O9 Ta2 1.993586 1_555
O9 Ta0 2.142459 1_555
O10 Ta3 1.993608 1_555
O10 Ta2 2.142494 1_555
O11 Ta0 1.993656 1_555
O11 Ta2 2.142644 1_555
O12 Ta3 1.993620 1_565
O12 Ta1 2.142590 1_555
O13 Ta0 1.993592 1_555
O13 Ta1 2.142606 1_555
O14 Ta1 1.993648 1_555
O14 Ta0 2.142743 1_555
O15 Ta1 1.993624 1_555
O15 Ta3 2.142537 1_565
