# generated using pymatgen
data_LiSc2B2RuRh4
_symmetry_space_group_name_H-M   'P 1'
_cell_length_a   9.25044257
_cell_length_b   9.25044257
_cell_length_c   3.01137322
_cell_angle_alpha   90.00000000
_cell_angle_beta   90.00000000
_cell_angle_gamma   90.00000000
_symmetry_Int_Tables_number   1
_chemical_formula_structural   LiSc2B2RuRh4
_chemical_formula_sum   'Li2 Sc4 B4 Ru2 Rh8'
_cell_volume   257.68527760
_cell_formula_units_Z   2
loop_
 _symmetry_equiv_pos_site_id
 _symmetry_equiv_pos_as_xyz
  1  'x, y, z'
loop_
 _atom_site_type_symbol
 _atom_site_label
 _atom_site_symmetry_multiplicity
 _atom_site_fract_x
 _atom_site_fract_y
 _atom_site_fract_z
 _atom_site_occupancy
  Li  Li0  1  0.50000000  0.50000000  0.00000000  1
  Li  Li1  1  0.00000000  0.00000000  0.00000000  1
  Sc  Sc0  1  0.67347271  0.17347271  0.00000000  1
  Sc  Sc1  1  0.32652729  0.82652729  0.00000000  1
  Sc  Sc2  1  0.17347271  0.32652729  0.00000000  1
  Sc  Sc3  1  0.82652729  0.67347271  0.00000000  1
  B  B0  1  0.12527339  0.62527339  0.00000000  1
  B  B1  1  0.87472661  0.37472661  0.00000000  1
  B  B2  1  0.62527339  0.87472661  0.00000000  1
  B  B3  1  0.37472661  0.12527339  0.00000000  1
  Ru  Ru0  1  0.50000000  0.00000000  0.50000000  1
  Ru  Ru1  1  0.00000000  0.50000000  0.50000000  1
  Rh  Rh0  1  0.57204419  0.71306286  0.50000000  1
  Rh  Rh1  1  0.42795581  0.28693714  0.50000000  1
  Rh  Rh2  1  0.07204419  0.78693714  0.50000000  1
  Rh  Rh3  1  0.92795581  0.21306286  0.50000000  1
  Rh  Rh4  1  0.28693714  0.57204419  0.50000000  1
  Rh  Rh5  1  0.71306286  0.42795581  0.50000000  1
  Rh  Rh6  1  0.21306286  0.07204419  0.50000000  1
  Rh  Rh7  1  0.78693714  0.92795581  0.50000000  1
loop_
_geom_bond_atom_site_label_1
_geom_bond_atom_site_label_2
_geom_bond_distance
_geom_bond_site_symmetry_2
Li0 Rh0 2.568226 1_554
Li0 Rh0 2.568226 1_555
Li0 Rh5 2.568226 1_555
Li0 Rh5 2.568226 1_554
Li0 Rh4 2.568226 1_554
Li0 Rh4 2.568226 1_555
Li0 Rh1 2.568226 1_555
Li0 Rh1 2.568226 1_554
Li1 Rh6 2.568226 1_555
Li1 Rh6 2.568226 1_554
Li1 Rh3 2.568226 1_455
Li1 Rh3 2.568226 1_454
Li1 Rh2 2.568226 1_544
Li1 Rh2 2.568226 1_545
Li1 Rh7 2.568226 1_444
Li1 Rh7 2.568226 1_445
B0 Rh2 2.178520 1_554
B0 Rh4 2.178520 1_555
B0 Rh4 2.178520 1_554
B0 Rh2 2.178520 1_555
B0 Ru1 2.225508 1_555
B0 Ru1 2.225508 1_554
B0 Sc1 2.632824 1_555
B0 Sc3 2.799270 1_455
B0 Sc2 2.799270 1_555
B1 Rh5 2.178520 1_554
B1 Rh5 2.178520 1_555
B1 Rh3 2.178520 1_554
B1 Rh3 2.178520 1_555
B1 Ru1 2.225508 1_654
B1 Ru1 2.225508 1_655
B1 Sc0 2.632824 1_555
B1 Sc2 2.799270 1_655
B1 Sc3 2.799270 1_555
B2 Rh7 2.178520 1_555
B2 Rh0 2.178520 1_554
B2 Rh7 2.178520 1_554
B2 Rh0 2.178520 1_555
B2 Ru0 2.225508 1_565
B2 Ru0 2.225508 1_564
B2 Sc3 2.632824 1_555
B2 Sc0 2.799270 1_565
B2 Sc1 2.799270 1_555
B3 Rh1 2.178520 1_554
B3 Rh6 2.178520 1_555
B3 Rh6 2.178520 1_554
B3 Rh1 2.178520 1_555
B3 Ru0 2.225508 1_554
B3 Ru0 2.225508 1_555
B3 Sc2 2.632824 1_555
B3 Sc1 2.799270 1_545
B3 Sc0 2.799270 1_555
Ru0 Sc0 2.723456 1_556
Ru0 Sc0 2.723456 1_555
Ru0 Sc1 2.723456 1_545
Ru0 Sc1 2.723456 1_546
Ru1 Sc2 2.723456 1_556
Ru1 Sc2 2.723456 1_555
Ru1 Sc3 2.723456 1_456
Ru1 Sc3 2.723456 1_455
Rh0 Sc3 2.818317 1_555
Rh0 Sc3 2.818317 1_556
Rh0 Sc1 2.920072 1_556
Rh0 Sc1 2.920072 1_555
Rh1 Sc2 2.818317 1_555
Rh1 Sc2 2.818317 1_556
Rh1 Sc0 2.920072 1_556
Rh1 Sc0 2.920072 1_555
Rh2 Sc1 2.818317 1_555
Rh2 Sc1 2.818317 1_556
Rh2 Sc3 2.920072 1_456
Rh2 Sc3 2.920072 1_455
Rh3 Sc0 2.818317 1_556
Rh3 Sc0 2.818317 1_555
Rh3 Sc2 2.920072 1_655
Rh3 Sc2 2.920072 1_656
Rh4 Sc1 2.818317 1_555
Rh4 Sc1 2.818317 1_556
Rh4 Sc2 2.920072 1_555
Rh4 Sc2 2.920072 1_556
Rh5 Sc0 2.818317 1_555
Rh5 Sc0 2.818317 1_556
Rh5 Sc3 2.920072 1_555
Rh5 Sc3 2.920072 1_556
Rh6 Sc2 2.818317 1_555
Rh6 Sc2 2.818317 1_556
Rh6 Sc1 2.920072 1_545
Rh6 Sc1 2.920072 1_546
Rh7 Sc3 2.818317 1_555
Rh7 Sc3 2.818317 1_556
Rh7 Sc0 2.920072 1_565
Rh7 Sc0 2.920072 1_566
