# generated using pymatgen
data_LiTa2(Co10B3)2
_symmetry_space_group_name_H-M   'P 1'
_cell_length_a   7.38541755
_cell_length_b   7.38541842
_cell_length_c   7.38541842
_cell_angle_alpha   60.00000440
_cell_angle_beta   60.00000047
_cell_angle_gamma   60.00000171
_symmetry_Int_Tables_number   1
_chemical_formula_structural   LiTa2(Co10B3)2
_chemical_formula_sum   'Li1 Ta2 Co20 B6'
_cell_volume   284.84610710
_cell_formula_units_Z   1
loop_
 _symmetry_equiv_pos_site_id
 _symmetry_equiv_pos_as_xyz
  1  'x, y, z'
loop_
 _atom_site_type_symbol
 _atom_site_label
 _atom_site_symmetry_multiplicity
 _atom_site_fract_x
 _atom_site_fract_y
 _atom_site_fract_z
 _atom_site_occupancy
  Li  Li0  1  0.00000000  0.00000000  0.00000000  1
  Ta  Ta0  1  0.75000000  0.75000000  0.75000000  1
  Ta  Ta1  1  0.25000000  0.25000000  0.25000000  1
  Co  Co0  1  0.61607112  0.61607112  0.15178665  1
  Co  Co1  1  0.61607112  0.15178665  0.61607112  1
  Co  Co2  1  0.15178665  0.61607112  0.61607112  1
  Co  Co3  1  0.61607112  0.61607112  0.61607112  1
  Co  Co4  1  0.38392888  0.38392888  0.84821335  1
  Co  Co5  1  0.38392888  0.84821335  0.38392888  1
  Co  Co6  1  0.84821335  0.38392888  0.38392888  1
  Co  Co7  1  0.38392888  0.38392888  0.38392888  1
  Co  Co8  1  0.00000000  0.00000000  0.34434451  1
  Co  Co9  1  0.65565549  0.00000000  0.34434451  1
  Co  Co10  1  1.00000000  0.65565549  0.34434451  1
  Co  Co11  1  0.65565549  0.34434451  0.00000000  1
  Co  Co12  1  0.00000000  0.34434451  0.00000000  1
  Co  Co13  1  0.00000000  0.34434451  0.65565549  1
  Co  Co14  1  0.34434451  0.65565549  1.00000000  1
  Co  Co15  1  0.34434451  1.00000000  0.65565549  1
  Co  Co16  1  0.34434451  1.00000000  1.00000000  1
  Co  Co17  1  1.00000000  1.00000000  0.65565549  1
  Co  Co18  1  1.00000000  0.65565549  1.00000000  1
  Co  Co19  1  0.65565549  0.00000000  0.00000000  1
  B  B0  1  0.72751671  0.72751671  0.27248329  1
  B  B1  1  0.27248329  0.72751671  0.27248329  1
  B  B2  1  0.72751671  0.27248329  0.27248329  1
  B  B3  1  0.27248329  0.27248329  0.72751671  1
  B  B4  1  0.72751671  0.27248329  0.72751671  1
  B  B5  1  0.27248329  0.72751671  0.72751671  1
loop_
_geom_bond_atom_site_label_1
_geom_bond_atom_site_label_2
_geom_bond_distance
_geom_bond_site_symmetry_2
Co0 Ta0 2.422841 1_554
Co0 Co18 2.589339 1_554
Co0 Co14 2.589339 1_554
Co0 Co12 2.589339 1_655
Co0 Co11 2.589339 1_555
Co0 Co16 2.589339 1_554
Co0 Co19 2.589339 1_565
Co1 Ta0 2.422841 1_545
Co1 Co17 2.589339 1_545
Co1 Co15 2.589339 1_545
Co1 Co8 2.589339 1_655
Co1 Co9 2.589339 1_555
Co1 Co16 2.589339 1_545
Co1 Co19 2.589339 1_556
Co2 Ta0 2.422841 1_455
Co2 Co8 2.589339 1_565
Co3 Ta0 2.422841 1_555
Co3 Co9 2.589339 1_565
Co4 Ta1 2.422841 1_556
Co5 Ta1 2.422841 1_565
Co5 Co8 2.589339 1_565
Co5 Co9 2.589339 1_565
Co6 Ta1 2.422841 1_655
Co6 Co8 2.589339 1_655
Co7 Ta1 2.422841 1_555
Co7 Co9 2.589339 1_555
Co8 Co9 2.543128 1_455
Co8 Li0 2.543128 1_555
Co8 Ta1 2.852996 1_555
Co8 Ta0 2.852996 1_445
Co9 Li0 2.543128 1_655
Co9 Ta1 2.852996 1_555
Co9 Ta0 2.852996 1_545
Co10 Co13 2.299162 1_655
Co10 Co14 2.543128 1_654
Co10 Co9 2.543128 1_565
Co10 Co18 2.543128 1_554
Co10 Co8 2.543128 1_665
Co10 Li0 2.543128 1_665
Co10 Co3 2.589339 1_555
Co10 Co7 2.589339 1_655
Co10 Co6 2.589339 1_555
Co10 Co2 2.589339 1_655
Co10 Ta0 2.852996 1_555
Co10 Ta1 2.852996 1_655
Co11 Co14 2.299162 1_554
Co11 Co12 2.543128 1_655
Co11 Co13 2.543128 1_654
Co11 Li0 2.543128 1_655
Co11 Co19 2.543128 1_555
Co11 Co9 2.543128 1_555
Co11 Co4 2.589339 1_554
Co11 Co7 2.589339 1_555
Co11 Co3 2.589339 1_554
Co11 Ta1 2.852996 1_555
Co11 Ta0 2.852996 1_554
Co12 Co18 2.299162 1_454
Co12 Co16 2.543128 1_544
Co12 Co13 2.543128 1_554
Co12 Li0 2.543128 1_555
Co12 Co8 2.543128 1_555
Co12 Co4 2.589339 1_554
Co12 Co6 2.589339 1_455
Co12 Co2 2.589339 1_554
Co12 Ta1 2.852996 1_555
Co12 Ta0 2.852996 1_454
Co13 Co15 2.543128 1_545
Co13 Co17 2.543128 1_445
Co13 Li0 2.543128 1_556
Co13 Co7 2.589339 1_555
Co13 Co3 2.589339 1_455
Co13 Co2 2.589339 1_555
Co13 Co6 2.589339 1_455
Co13 Ta1 2.852996 1_555
Co13 Ta0 2.852996 1_455
Co14 Co18 2.543128 1_455
Co14 Li0 2.543128 1_566
Co14 Co16 2.543128 1_555
Co14 Co15 2.543128 1_555
Co14 Co3 2.589339 1_555
Co14 Co4 2.589339 1_555
Co14 Co7 2.589339 1_556
Co14 Ta0 2.852996 1_555
Co14 Ta1 2.852996 1_556
Co15 Co9 2.299162 1_565
Co15 Co17 2.543128 1_455
Co15 Li0 2.543128 1_566
Co15 Co16 2.543128 1_555
Co15 Co5 2.589339 1_555
Co15 Co3 2.589339 1_555
Co15 Co7 2.589339 1_565
Co15 Ta0 2.852996 1_555
Co15 Ta1 2.852996 1_565
Co16 Co19 2.299162 1_566
Co16 Li0 2.543128 1_566
Co16 Co8 2.543128 1_566
Co16 Co4 2.589339 1_565
Co16 Co5 2.589339 1_556
Co16 Ta0 2.852996 1_555
Co16 Ta1 2.852996 1_566
Co17 Co8 2.299162 1_665
Co17 Co19 2.543128 1_566
Co17 Li0 2.543128 1_666
Co17 Co18 2.543128 1_555
Co17 Co5 2.589339 1_655
Co17 Co2 2.589339 1_655
Co17 Co6 2.589339 1_565
Co17 Ta0 2.852996 1_555
Co17 Ta1 2.852996 1_665
Co18 Co19 2.543128 1_566
Co18 Li0 2.543128 1_666
Co18 Co4 2.589339 1_655
Co18 Co2 2.589339 1_655
Co18 Co6 2.589339 1_556
Co18 Ta0 2.852996 1_555
Co18 Ta1 2.852996 1_656
Co19 Li0 2.543128 1_655
Co19 Co9 2.543128 1_555
Co19 Co5 2.589339 1_545
Co19 Co4 2.589339 1_554
Co19 Ta1 2.852996 1_555
Co19 Ta0 2.852996 1_544
B0 Co5 2.072268 1_555
B0 Co0 2.072268 1_555
B0 Co3 2.072268 1_555
B0 Co6 2.072268 1_555
B0 Co10 2.081210 1_555
B0 Co18 2.081210 1_554
B0 Co9 2.081210 1_565
B0 Co19 2.081210 1_565
B1 Co0 2.072268 1_555
B1 Co5 2.072268 1_555
B1 Co2 2.072268 1_555
B1 Co7 2.072268 1_555
B1 Co10 2.081210 1_455
B1 Co8 2.081210 1_565
B1 Co14 2.081210 1_554
B1 Co16 2.081210 1_554
B2 Co7 2.072268 1_555
B2 Co6 2.072268 1_555
B2 Co1 2.072268 1_555
B2 Co0 2.072268 1_555
B2 Co12 2.081210 1_655
B2 Co8 2.081210 1_655
B2 Co9 2.081210 1_555
B2 Co11 2.081210 1_555
B3 Co1 2.072268 1_555
B3 Co4 2.072268 1_555
B3 Co7 2.072268 1_555
B3 Co2 2.072268 1_555
B3 Co13 2.081210 1_555
B3 Co12 2.081210 1_556
B3 Co15 2.081210 1_545
B3 Co16 2.081210 1_545
B4 Co4 2.072268 1_555
B4 Co1 2.072268 1_555
B4 Co6 2.072268 1_555
B4 Co3 2.072268 1_555
B4 Co13 2.081210 1_655
B4 Co17 2.081210 1_545
B4 Co11 2.081210 1_556
B4 Co19 2.081210 1_556
B5 Co3 2.072268 1_555
B5 Co2 2.072268 1_555
B5 Co5 2.072268 1_555
B5 Co4 2.072268 1_555
B5 Co18 2.081210 1_455
B5 Co17 2.081210 1_455
B5 Co15 2.081210 1_555
B5 Co14 2.081210 1_555
