# generated using pymatgen
data_K6FeTe4Cl
_symmetry_space_group_name_H-M   'P 1'
_cell_length_a   11.12401612
_cell_length_b   11.12401663
_cell_length_c   8.13550787
_cell_angle_alpha   90.00000000
_cell_angle_beta   90.00000000
_cell_angle_gamma   120.00000136
_symmetry_Int_Tables_number   1
_chemical_formula_structural   K6FeTe4Cl
_chemical_formula_sum   'K12 Fe2 Te8 Cl2'
_cell_volume   871.84350037
_cell_formula_units_Z   2
loop_
 _symmetry_equiv_pos_site_id
 _symmetry_equiv_pos_as_xyz
  1  'x, y, z'
loop_
 _atom_site_type_symbol
 _atom_site_label
 _atom_site_symmetry_multiplicity
 _atom_site_fract_x
 _atom_site_fract_y
 _atom_site_fract_z
 _atom_site_occupancy
  K  K0  1  0.12464550  0.87535450  0.51439632  1
  K  K1  1  0.75070800  0.87535450  0.51439632  1
  K  K2  1  0.95540890  0.47770445  0.31915118  1
  K  K3  1  0.52229555  0.47770445  0.31915118  1
  K  K4  1  0.87535450  0.75070800  0.01439632  1
  K  K5  1  0.24929200  0.12464550  0.01439632  1
  K  K6  1  0.52229555  0.04459110  0.31915118  1
  K  K7  1  0.12464550  0.24929200  0.51439632  1
  K  K8  1  0.87535450  0.12464550  0.01439632  1
  K  K9  1  0.04459110  0.52229555  0.81915118  1
  K  K10  1  0.47770445  0.95540890  0.81915118  1
  K  K11  1  0.47770445  0.52229555  0.81915118  1
  Fe  Fe0  1  0.66666700  0.33333300  0.71019915  1
  Fe  Fe1  1  0.33333300  0.66666700  0.21019915  1
  Te  Te0  1  0.40962125  0.20481112  0.60745534  1
  Te  Te1  1  0.59037875  0.79518888  0.10745534  1
  Te  Te2  1  0.66666700  0.33333300  0.03307043  1
  Te  Te3  1  0.79518888  0.59037875  0.60745534  1
  Te  Te4  1  0.20481112  0.40962125  0.10745534  1
  Te  Te5  1  0.33333300  0.66666700  0.53307043  1
  Te  Te6  1  0.20481112  0.79518888  0.10745534  1
  Te  Te7  1  0.79518888  0.20481112  0.60745534  1
  Cl  Cl0  1  0.00000000  0.00000000  0.27432588  1
  Cl  Cl1  1  0.00000000  0.00000000  0.77432588  1
loop_
_geom_bond_atom_site_label_1
_geom_bond_atom_site_label_2
_geom_bond_distance
_geom_bond_site_symmetry_2
K0 Te3 3.526465 1_455
K0 Te0 3.526465 1_565
K0 Te6 3.653255 1_555
K1 Te3 3.526465 1_555
K1 Te7 3.526465 1_565
K1 Te1 3.653247 1_555
K2 Te7 3.533098 1_555
K2 Te3 3.533104 1_555
K2 Te2 3.626901 1_555
K2 Te6 3.652112 1_655
K2 Te4 3.652119 1_655
K3 Te3 3.533097 1_555
K3 Te0 3.533097 1_555
K3 Te2 3.626908 1_555
K3 Te4 3.652109 1_555
K3 Te1 3.652109 1_555
K4 Te6 3.526465 1_655
K4 Te1 3.526465 1_555
K4 Te3 3.653247 1_554
K5 Te4 3.526465 1_555
K5 Te6 3.526465 1_545
K5 Te0 3.653247 1_554
K6 Te7 3.533098 1_555
K6 Te0 3.533104 1_555
K6 Te2 3.626901 1_555
K6 Te6 3.652112 1_545
K6 Te1 3.652119 1_545
K7 Te7 3.526465 1_455
K7 Te0 3.526465 1_555
K7 Te4 3.653247 1_555
K8 Te4 3.526465 1_655
K8 Te1 3.526465 1_545
K8 Te7 3.653255 1_554
K9 Te6 3.533098 1_556
K9 Te4 3.533104 1_556
K9 Te5 3.626901 1_555
K9 Te7 3.652112 1_455
K9 Te3 3.652119 1_455
K10 Te6 3.533098 1_556
K10 Te1 3.533104 1_556
K10 Te5 3.626901 1_555
K10 Te7 3.652112 1_565
K10 Te0 3.652119 1_565
K11 Te4 3.533097 1_556
K11 Te1 3.533097 1_556
K11 Te5 3.626908 1_555
K11 Te3 3.652109 1_555
K11 Te0 3.652109 1_555
Fe0 Te7 2.613548 1_555
Fe0 Te0 2.613566 1_555
Fe0 Te3 2.613566 1_555
Fe0 Te2 2.626722 1_556
Fe1 Te6 2.613548 1_555
Fe1 Te1 2.613566 1_555
Fe1 Te4 2.613566 1_555
Fe1 Te5 2.626722 1_555
Cl0 K0 3.095515 1_545
Cl0 K1 3.095523 1_445
Cl0 K7 3.095523 1_555
Cl0 K8 3.199909 1_455
Cl0 K5 3.199916 1_555
Cl0 K4 3.199916 1_445
Cl1 K8 3.095515 1_456
Cl1 K5 3.095523 1_556
Cl1 K4 3.095523 1_446
Cl1 K0 3.199909 1_545
Cl1 K1 3.199916 1_445
Cl1 K7 3.199916 1_555
