# generated using pymatgen
data_HoInCu2
_symmetry_space_group_name_H-M   'P 1'
_cell_length_a   4.63403771
_cell_length_b   4.63403781
_cell_length_c   4.63403590
_cell_angle_alpha   59.99999181
_cell_angle_beta   59.99999107
_cell_angle_gamma   59.99999058
_symmetry_Int_Tables_number   1
_chemical_formula_structural   HoInCu2
_chemical_formula_sum   'Ho1 In1 Cu2'
_cell_volume   70.36609426
_cell_formula_units_Z   1
loop_
 _symmetry_equiv_pos_site_id
 _symmetry_equiv_pos_as_xyz
  1  'x, y, z'
loop_
 _atom_site_type_symbol
 _atom_site_label
 _atom_site_symmetry_multiplicity
 _atom_site_fract_x
 _atom_site_fract_y
 _atom_site_fract_z
 _atom_site_occupancy
  Ho  Ho0  1  0.50000000  0.50000000  0.50000000  1
  In  In0  1  -0.00000000  -0.00000000  0.00000000  1
  Cu  Cu0  1  0.25000000  0.25000000  0.25000000  1
  Cu  Cu1  1  0.75000000  0.75000000  0.75000000  1
loop_
_geom_bond_atom_site_label_1
_geom_bond_atom_site_label_2
_geom_bond_distance
_geom_bond_site_symmetry_2
Ho0 In0 3.276759 1_656
Ho0 In0 3.276759 1_565
Ho0 In0 3.276759 1_566
Ho0 In0 3.276759 1_655
Ho0 In0 3.276759 1_665
Ho0 In0 3.276759 1_556
Cu0 Ho0 2.837756 1_554
Cu0 In0 2.837756 1_556
Cu0 Ho0 2.837757 1_455
Cu0 In0 2.837757 1_655
Cu0 In0 2.837757 1_565
Cu0 Ho0 2.837757 1_545
Cu0 In0 2.837757 1_555
Cu0 Ho0 2.837757 1_555
Cu1 Ho0 2.837756 1_556
Cu1 In0 2.837756 1_665
Cu1 Ho0 2.837757 1_655
Cu1 In0 2.837757 1_566
Cu1 In0 2.837757 1_656
Cu1 Ho0 2.837757 1_565
Cu1 In0 2.837757 1_666
Cu1 Ho0 2.837757 1_555
