# generated using pymatgen
data_Na16TiSnAs8
_symmetry_space_group_name_H-M   'P 1'
_cell_length_a   9.76546382
_cell_length_b   9.76546472
_cell_length_c   9.76546578
_cell_angle_alpha   60.00000297
_cell_angle_beta   59.99999993
_cell_angle_gamma   60.00000110
_symmetry_Int_Tables_number   1
_chemical_formula_structural   Na16TiSnAs8
_chemical_formula_sum   'Na16 Ti1 Sn1 As8'
_cell_volume   658.51211385
_cell_formula_units_Z   1
loop_
 _symmetry_equiv_pos_site_id
 _symmetry_equiv_pos_as_xyz
  1  'x, y, z'
loop_
 _atom_site_type_symbol
 _atom_site_label
 _atom_site_symmetry_multiplicity
 _atom_site_fract_x
 _atom_site_fract_y
 _atom_site_fract_z
 _atom_site_occupancy
  Na  Na0  1  0.62478163  0.62478163  0.12565311  1
  Na  Na1  1  0.62478163  0.12565311  0.62478163  1
  Na  Na2  1  0.12565311  0.62478163  0.62478163  1
  Na  Na3  1  0.62478163  0.62478163  0.62478163  1
  Na  Na4  1  0.03004459  0.46995541  0.46995541  1
  Na  Na5  1  0.77337853  0.22662147  0.22662147  1
  Na  Na6  1  0.46995541  0.03004459  0.46995541  1
  Na  Na7  1  0.46995541  0.46995541  0.03004459  1
  Na  Na8  1  0.03004459  0.03004459  0.46995541  1
  Na  Na9  1  0.03004459  0.46995541  0.03004459  1
  Na  Na10  1  0.46995541  0.03004459  0.03004459  1
  Na  Na11  1  0.77337853  0.22662147  0.77337853  1
  Na  Na12  1  0.22662147  0.77337853  0.22662147  1
  Na  Na13  1  0.22662147  0.22662147  0.77337853  1
  Na  Na14  1  0.77337853  0.77337853  0.22662147  1
  Na  Na15  1  0.22662147  0.77337853  0.77337853  1
  Ti  Ti0  1  0.50000000  0.50000000  0.50000000  1
  Sn  Sn0  1  0.75000000  0.75000000  0.75000000  1
  As  As0  1  0.86072021  0.86072021  0.41784138  1
  As  As1  1  0.86072021  0.41784138  0.86072021  1
  As  As2  1  0.39559836  0.39559836  0.81320491  1
  As  As3  1  0.39559836  0.81320491  0.39559836  1
  As  As4  1  0.81320491  0.39559836  0.39559836  1
  As  As5  1  0.86072021  0.86072021  0.86072021  1
  As  As6  1  0.41784138  0.86072021  0.86072021  1
  As  As7  1  0.39559836  0.39559836  0.39559836  1
loop_
_geom_bond_atom_site_label_1
_geom_bond_atom_site_label_2
_geom_bond_distance
_geom_bond_site_symmetry_2
Na0 Ti0 2.984844 1_555
Na0 Sn0 2.995259 1_554
Na1 Ti0 2.984843 1_555
Na1 Sn0 2.995258 1_545
Na2 Ti0 2.984843 1_555
Na2 Sn0 2.995258 1_455
Na3 Ti0 2.984827 1_555
Na3 Sn0 2.995274 1_555
As0 Sn0 2.648457 1_555
As0 Na12 2.975708 1_655
As0 Na5 2.975709 1_565
As0 Na14 2.975723 1_555
As0 Na8 3.185046 1_665
As0 Na6 3.185062 1_565
As0 Na4 3.185063 1_655
As0 Na2 3.270672 1_655
As0 Na1 3.270672 1_565
As0 Na3 3.270701 1_555
As1 Sn0 2.648456 1_555
As1 Na13 2.975708 1_655
As1 Na5 2.975709 1_556
As1 Na11 2.975723 1_555
As1 Na9 3.185046 1_656
As1 Na7 3.185062 1_556
As1 Na4 3.185063 1_655
As1 Na2 3.270671 1_655
As1 Na0 3.270672 1_556
As1 Na3 3.270701 1_555
As2 Ti0 2.497330 1_555
As2 Na9 3.023408 1_556
As2 Na7 3.023409 1_556
As2 Na10 3.023409 1_556
As2 Na11 3.098980 1_555
As2 Na13 3.098980 1_555
As2 Na15 3.098980 1_555
As2 Na3 3.190055 1_555
As2 Na2 3.190070 1_555
As2 Na1 3.190070 1_555
As3 Ti0 2.497330 1_555
As3 Na8 3.023408 1_565
As3 Na6 3.023409 1_565
As3 Na10 3.023409 1_565
As3 Na14 3.098980 1_555
As3 Na12 3.098980 1_555
As3 Na15 3.098981 1_555
As3 Na3 3.190055 1_555
As3 Na2 3.190070 1_555
As3 Na0 3.190070 1_555
As4 Ti0 2.497329 1_555
As4 Na4 3.023408 1_655
As4 Na8 3.023409 1_655
As4 Na9 3.023409 1_655
As4 Na5 3.098980 1_555
As4 Na14 3.098981 1_555
As4 Na11 3.098981 1_555
As4 Na3 3.190055 1_555
As4 Na1 3.190070 1_555
As4 Na0 3.190070 1_555
As5 Sn0 2.648472 1_555
As5 Na15 2.975705 1_655
As5 Na11 2.975705 1_565
As5 Na14 2.975706 1_556
As5 Na10 3.185059 1_566
As5 Na9 3.185059 1_656
As5 Na8 3.185059 1_665
As5 Na0 3.270697 1_556
As5 Na2 3.270697 1_655
As5 Na1 3.270697 1_565
As6 Sn0 2.648456 1_555
As6 Na13 2.975709 1_565
As6 Na12 2.975709 1_556
As6 Na15 2.975723 1_555
As6 Na10 3.185046 1_566
As6 Na7 3.185063 1_556
As6 Na6 3.185063 1_565
As6 Na1 3.270671 1_565
As6 Na0 3.270672 1_556
As6 Na3 3.270701 1_555
As7 Ti0 2.497330 1_555
As7 Na4 3.023408 1_555
As7 Na6 3.023409 1_555
As7 Na7 3.023409 1_555
As7 Na5 3.098980 1_555
As7 Na12 3.098981 1_555
As7 Na13 3.098981 1_555
As7 Na0 3.190057 1_555
As7 Na2 3.190057 1_555
As7 Na1 3.190057 1_555
