# generated using pymatgen
data_CsVNiAs2
_symmetry_space_group_name_H-M   'P 1'
_cell_length_a   8.14488945
_cell_length_b   8.14488913
_cell_length_c   8.14488819
_cell_angle_alpha   152.05855673
_cell_angle_beta   152.05855304
_cell_angle_gamma   39.92780430
_symmetry_Int_Tables_number   1
_chemical_formula_structural   CsVNiAs2
_chemical_formula_sum   'Cs1 V1 Ni1 As2'
_cell_volume   118.40473539
_cell_formula_units_Z   1
loop_
 _symmetry_equiv_pos_site_id
 _symmetry_equiv_pos_as_xyz
  1  'x, y, z'
loop_
 _atom_site_type_symbol
 _atom_site_label
 _atom_site_symmetry_multiplicity
 _atom_site_fract_x
 _atom_site_fract_y
 _atom_site_fract_z
 _atom_site_occupancy
  Cs  Cs0  1  0.00000000  0.00000000  0.00000000  1
  V  V0  1  0.75000000  0.25000000  0.50000000  1
  Ni  Ni0  1  0.25000000  0.75000000  0.50000000  1
  As  As0  1  0.33916550  0.33916550  0.00000000  1
  As  As1  1  0.66083450  0.66083450  1.00000000  1
loop_
_geom_bond_atom_site_label_1
_geom_bond_atom_site_label_2
_geom_bond_distance
_geom_bond_site_symmetry_2
Ni0 V0 2.780893 1_454
Ni0 V0 2.780893 1_566
Ni0 V0 2.780894 1_465
Ni0 V0 2.780894 1_555
As0 Ni0 2.393838 1_555
As0 V0 2.393839 1_555
As0 Ni0 2.393839 1_544
As0 V0 2.393839 1_454
As0 Cs0 3.714480 1_554
As0 Cs0 3.714481 1_666
As0 Cs0 3.714481 1_565
As0 Cs0 3.714481 1_655
As1 V0 2.393838 1_555
As1 Ni0 2.393839 1_555
As1 V0 2.393839 1_566
As1 Ni0 2.393839 1_656
As1 Cs0 3.714480 1_667
As1 Cs0 3.714481 1_555
As1 Cs0 3.714481 1_656
As1 Cs0 3.714481 1_566
