# generated using pymatgen
data_K4Ag3AuO4
_symmetry_space_group_name_H-M   'P 1'
_cell_length_a   7.39934384
_cell_length_b   7.39934346
_cell_length_c   7.51885054
_cell_angle_alpha   97.69431747
_cell_angle_beta   97.69431024
_cell_angle_gamma   136.71060722
_symmetry_Int_Tables_number   1
_chemical_formula_structural   K4Ag3AuO4
_chemical_formula_sum   'K4 Ag3 Au1 O4'
_cell_volume   263.01561631
_cell_formula_units_Z   1
loop_
 _symmetry_equiv_pos_site_id
 _symmetry_equiv_pos_as_xyz
  1  'x, y, z'
loop_
 _atom_site_type_symbol
 _atom_site_label
 _atom_site_symmetry_multiplicity
 _atom_site_fract_x
 _atom_site_fract_y
 _atom_site_fract_z
 _atom_site_occupancy
  K  K0  1  0.49746407  0.18074473  0.67820880  1
  K  K1  1  0.50333104  0.81941772  0.32274876  1
  K  K2  1  0.81941772  0.50333104  0.32274876  1
  K  K3  1  0.18074473  0.49746407  0.67820880  1
  Ag  Ag0  1  0.15038846  0.84793324  0.99832170  1
  Ag  Ag1  1  0.85195145  0.85195145  0.70390190  1
  Ag  Ag2  1  0.84793324  0.15038846  0.99832170  1
  Au  Au0  1  0.14964440  0.14964440  0.29928981  1
  O  O0  1  0.29406348  0.99952858  0.29359205  1
  O  O1  1  0.00184993  0.70368291  0.70553284  1
  O  O2  1  0.99952858  0.29406348  0.29359205  1
  O  O3  1  0.70368291  0.00184993  0.70553284  1
loop_
_geom_bond_atom_site_label_1
_geom_bond_atom_site_label_2
_geom_bond_distance
_geom_bond_site_symmetry_2
K0 O3 2.655570 1_555
K0 O0 2.698949 1_545
K0 O1 2.738925 1_655
K0 O1 2.738925 1_545
K1 O3 2.684623 1_565
K1 O0 2.685772 1_555
K1 O2 2.740891 1_455
K1 O2 2.740891 1_565
K2 O1 2.684623 1_655
K2 O2 2.685772 1_555
K2 O0 2.740891 1_545
K2 O0 2.740891 1_655
K3 O1 2.655570 1_555
K3 O2 2.698949 1_455
K3 O3 2.738925 1_565
K3 O3 2.738925 1_455
Ag0 O1 2.051497 1_555
Ag0 O0 2.069387 1_556
Ag1 O3 2.050708 1_565
Ag1 O1 2.050708 1_655
Ag2 O3 2.051497 1_555
Ag2 O2 2.069387 1_556
Au0 O0 2.026089 1_545
Au0 O2 2.026089 1_455
