# generated using pymatgen
data_Hf9ScPb6
_symmetry_space_group_name_H-M   'P 1'
_cell_length_a   8.51690407
_cell_length_b   8.51690365
_cell_length_c   5.80392553
_cell_angle_alpha   90.00000000
_cell_angle_beta   90.00000000
_cell_angle_gamma   59.87537151
_symmetry_Int_Tables_number   1
_chemical_formula_structural   Hf9ScPb6
_chemical_formula_sum   'Hf9 Sc1 Pb6'
_cell_volume   364.14066218
_cell_formula_units_Z   1
loop_
 _symmetry_equiv_pos_site_id
 _symmetry_equiv_pos_as_xyz
  1  'x, y, z'
loop_
 _atom_site_type_symbol
 _atom_site_label
 _atom_site_symmetry_multiplicity
 _atom_site_fract_x
 _atom_site_fract_y
 _atom_site_fract_z
 _atom_site_occupancy
  Hf  Hf0  1  0.16942681  0.16505796  0.00014501  1
  Hf  Hf1  1  0.83494104  0.83057219  0.00014501  1
  Hf  Hf2  1  0.24935133  0.50260139  0.25000100  1
  Hf  Hf3  1  0.49739861  0.75064767  0.25000100  1
  Hf  Hf4  1  0.16942681  0.16505796  0.49985499  1
  Hf  Hf5  1  0.83494104  0.83057219  0.49985499  1
  Hf  Hf6  1  0.49906554  0.25640908  0.75000000  1
  Hf  Hf7  1  0.74358992  0.50093446  0.75000000  1
  Hf  Hf8  1  0.26056377  0.73943723  0.75000000  1
  Sc  Sc0  1  0.74309011  0.25691089  0.25000100  1
  Pb  Pb0  1  0.50240506  0.11136159  0.25000100  1
  Pb  Pb1  1  0.88863841  0.49759494  0.25000100  1
  Pb  Pb2  1  0.10674119  0.89325981  0.25000100  1
  Pb  Pb3  1  0.89127051  0.10873049  0.75000000  1
  Pb  Pb4  1  0.10805183  0.49890597  0.75000000  1
  Pb  Pb5  1  0.50109403  0.89194817  0.75000000  1
loop_
_geom_bond_atom_site_label_1
_geom_bond_atom_site_label_2
_geom_bond_distance
_geom_bond_site_symmetry_2
Hf0 Pb5 2.983681 1_544
Hf0 Pb4 2.995629 1_554
Hf0 Pb2 2.997859 1_545
Hf0 Pb1 3.007440 1_455
Hf0 Pb0 3.008789 1_555
Hf0 Pb3 3.015133 1_454
Hf1 Pb4 2.983679 1_654
Hf1 Pb5 2.995619 1_554
Hf1 Pb2 2.997884 1_655
Hf1 Pb0 3.007438 1_565
Hf1 Pb1 3.008779 1_555
Hf1 Pb3 3.015158 1_564
Hf2 Pb2 2.913603 1_555
Hf2 Pb0 2.922270 1_555
Hf2 Pb1 3.093777 1_455
Hf2 Pb4 3.147796 1_555
Hf2 Pb4 3.147806 1_554
Hf3 Pb2 2.913593 1_555
Hf3 Pb1 2.922269 1_555
Hf3 Pb0 3.093785 1_565
Hf3 Pb5 3.147799 1_555
Hf3 Pb5 3.147810 1_554
Hf4 Pb5 2.983681 1_545
Hf4 Pb4 2.995629 1_555
Hf4 Pb2 2.997853 1_545
Hf4 Pb1 3.007434 1_455
Hf4 Pb0 3.008783 1_555
Hf4 Pb3 3.015133 1_455
Hf5 Pb4 2.983679 1_655
Hf5 Pb5 2.995619 1_555
Hf5 Pb2 2.997878 1_655
Hf5 Pb0 3.007432 1_565
Hf5 Pb1 3.008773 1_555
Hf5 Pb3 3.015158 1_565
Hf6 Pb4 2.907245 1_555
Hf6 Pb3 2.919390 1_555
Hf6 Pb5 3.095444 1_545
Hf6 Pb0 3.148491 1_555
Hf6 Pb0 3.148502 1_556
Hf7 Pb5 2.907244 1_555
Hf7 Pb3 2.919379 1_555
Hf7 Pb4 3.095453 1_655
Hf7 Pb1 3.148495 1_555
Hf7 Pb1 3.148505 1_556
Hf8 Pb5 2.924859 1_555
Hf8 Pb4 2.924874 1_555
Hf8 Pb3 3.139308 1_465
Hf8 Pb2 3.182960 1_555
Hf8 Pb2 3.182970 1_556
Pb0 Sc0 2.879133 1_555
Pb1 Sc0 2.879119 1_555
Pb2 Sc0 3.091345 1_465
Pb3 Sc0 3.163558 1_555
Pb3 Sc0 3.163568 1_556
