# generated using pymatgen
data_Hf10Sn6GeAu
_symmetry_space_group_name_H-M   'P 1'
_cell_length_a   8.60008081
_cell_length_b   8.60008197
_cell_length_c   5.84474290
_cell_angle_alpha   90.00000000
_cell_angle_beta   90.00000000
_cell_angle_gamma   120.00000680
_symmetry_Int_Tables_number   1
_chemical_formula_structural   Hf10Sn6GeAu
_chemical_formula_sum   'Hf10 Sn6 Ge1 Au1'
_cell_volume   374.37008420
_cell_formula_units_Z   1
loop_
 _symmetry_equiv_pos_site_id
 _symmetry_equiv_pos_as_xyz
  1  'x, y, z'
loop_
 _atom_site_type_symbol
 _atom_site_label
 _atom_site_symmetry_multiplicity
 _atom_site_fract_x
 _atom_site_fract_y
 _atom_site_fract_z
 _atom_site_occupancy
  Hf  Hf0  1  0.73095555  0.73095555  0.76279439  1
  Hf  Hf1  1  0.26904445  1.00000000  0.76279439  1
  Hf  Hf2  1  1.00000000  0.26904445  0.76279439  1
  Hf  Hf3  1  0.26904445  0.26904445  0.23720561  1
  Hf  Hf4  1  0.73095555  0.00000000  0.23720561  1
  Hf  Hf5  1  0.00000000  0.73095555  0.23720561  1
  Hf  Hf6  1  0.66666700  0.33333300  0.00000000  1
  Hf  Hf7  1  0.33333300  0.66666700  0.00000000  1
  Hf  Hf8  1  0.33333300  0.66666700  0.50000000  1
  Hf  Hf9  1  0.66666700  0.33333300  0.50000000  1
  Sn  Sn0  1  0.38891194  0.38891194  0.74449463  1
  Sn  Sn1  1  0.61108806  1.00000000  0.74449463  1
  Sn  Sn2  1  1.00000000  0.61108806  0.74449463  1
  Sn  Sn3  1  0.61108806  0.61108806  0.25550537  1
  Sn  Sn4  1  0.38891194  0.00000000  0.25550537  1
  Sn  Sn5  1  0.00000000  0.38891194  0.25550537  1
  Ge  Ge0  1  0.00000000  0.00000000  0.00000000  1
  Au  Au0  1  0.00000000  0.00000000  0.50000000  1
loop_
_geom_bond_atom_site_label_1
_geom_bond_atom_site_label_2
_geom_bond_distance
_geom_bond_site_symmetry_2
Hf0 Sn0 2.943546 1_555
Hf0 Sn2 2.968679 1_555
Hf0 Sn1 2.968679 1_555
Hf0 Sn3 3.058719 1_556
Hf0 Sn3 3.139070 1_555
Hf1 Sn1 2.943546 1_555
Hf1 Sn2 2.968679 1_455
Hf1 Sn0 2.968679 1_565
Hf1 Sn4 3.058719 1_566
Hf1 Sn4 3.139070 1_565
Hf2 Sn2 2.943547 1_555
Hf2 Sn1 2.968679 1_545
Hf2 Sn0 2.968679 1_655
Hf2 Sn5 3.058719 1_656
Hf2 Sn5 3.139071 1_655
Hf3 Sn3 2.943546 1_555
Hf3 Sn5 2.968679 1_555
Hf3 Sn4 2.968679 1_555
Hf3 Sn0 3.058719 1_554
Hf3 Sn0 3.139070 1_555
Hf4 Sn4 2.943546 1_555
Hf4 Sn5 2.968679 1_655
Hf4 Sn3 2.968679 1_545
Hf4 Sn1 3.058719 1_544
Hf4 Sn1 3.139070 1_545
Hf5 Sn5 2.943547 1_555
Hf5 Sn4 2.968679 1_565
Hf5 Sn3 2.968679 1_455
Hf5 Sn2 3.058719 1_454
Hf5 Sn2 3.139071 1_455
Hf6 Sn5 3.050621 1_655
Hf6 Sn1 3.050621 1_544
Hf6 Sn2 3.050623 1_554
Hf6 Sn4 3.050623 1_555
Hf6 Sn0 3.050628 1_554
Hf6 Sn3 3.050628 1_555
Hf7 Sn2 3.050621 1_454
Hf7 Sn4 3.050621 1_565
Hf7 Sn5 3.050623 1_555
Hf7 Sn1 3.050623 1_554
Hf7 Sn3 3.050628 1_555
Hf7 Sn0 3.050628 1_554
Hf8 Sn2 3.019639 1_455
Hf8 Sn4 3.019639 1_565
Hf8 Sn5 3.019641 1_555
Hf8 Sn1 3.019641 1_555
Hf8 Sn3 3.019646 1_555
Hf8 Sn0 3.019647 1_555
Hf9 Sn5 3.019639 1_655
Hf9 Sn1 3.019639 1_545
Hf9 Sn2 3.019641 1_555
Hf9 Sn4 3.019641 1_555
Hf9 Sn0 3.019646 1_555
Hf9 Sn3 3.019647 1_555
Ge0 Hf3 2.697371 1_555
Ge0 Hf0 2.697371 1_444
Ge0 Hf4 2.697371 1_455
Ge0 Hf1 2.697371 1_544
Ge0 Hf2 2.697371 1_454
Ge0 Hf5 2.697371 1_545
Au0 Hf3 2.777207 1_555
Au0 Hf0 2.777207 1_445
Au0 Hf1 2.777207 1_545
Au0 Hf4 2.777207 1_455
Au0 Hf2 2.777207 1_455
Au0 Hf5 2.777207 1_545
Au0 Ge0 2.922371 1_555
Au0 Ge0 2.922371 1_556
