# generated using pymatgen
data_KSrMnN3
_symmetry_space_group_name_H-M   'P 1'
_cell_length_a   6.26787214
_cell_length_b   6.26787225
_cell_length_c   12.29375695
_cell_angle_alpha   90.00000000
_cell_angle_beta   90.00000000
_cell_angle_gamma   127.42252811
_symmetry_Int_Tables_number   1
_chemical_formula_structural   KSrMnN3
_chemical_formula_sum   'K4 Sr4 Mn4 N12'
_cell_volume   383.56723952
_cell_formula_units_Z   4
loop_
 _symmetry_equiv_pos_site_id
 _symmetry_equiv_pos_as_xyz
  1  'x, y, z'
loop_
 _atom_site_type_symbol
 _atom_site_label
 _atom_site_symmetry_multiplicity
 _atom_site_fract_x
 _atom_site_fract_y
 _atom_site_fract_z
 _atom_site_occupancy
  K  K0  1  0.54646473  0.45353527  0.64089968  1
  K  K1  1  0.45353527  0.54646473  0.35910032  1
  K  K2  1  0.95353527  0.04646473  0.14089968  1
  K  K3  1  0.04646473  0.95353527  0.85910032  1
  Sr  Sr0  1  0.84923686  0.15076314  0.58476629  1
  Sr  Sr1  1  0.15076314  0.84923686  0.41523371  1
  Sr  Sr2  1  0.65076314  0.34923686  0.08476629  1
  Sr  Sr3  1  0.34923686  0.65076314  0.91523371  1
  Mn  Mn0  1  0.72581555  0.27418445  0.83394152  1
  Mn  Mn1  1  0.27418445  0.72581555  0.16605848  1
  Mn  Mn2  1  0.77418445  0.22581555  0.33394152  1
  Mn  Mn3  1  0.22581555  0.77418445  0.66605848  1
  N  N0  1  0.81832537  0.18167463  0.94172863  1
  N  N1  1  0.18167463  0.81832537  0.05827137  1
  N  N2  1  0.68167463  0.31832537  0.44172863  1
  N  N3  1  0.31832537  0.68167463  0.55827137  1
  N  N4  1  0.58558126  0.41441874  0.87521874  1
  N  N5  1  0.41441874  0.58558126  0.12478126  1
  N  N6  1  0.91441874  0.08558126  0.37521874  1
  N  N7  1  0.08558126  0.91441874  0.62478126  1
  N  N8  1  0.50856626  0.99143374  0.75000000  1
  N  N9  1  0.99143374  0.50856626  0.25000000  1
  N  N10  1  0.49143374  0.00856626  0.25000000  1
  N  N11  1  0.00856626  0.49143374  0.75000000  1
loop_
_geom_bond_atom_site_label_1
_geom_bond_atom_site_label_2
_geom_bond_distance
_geom_bond_site_symmetry_2
K0 N3 2.757993 1_555
K0 N7 2.817583 1_655
K0 N7 2.817583 1_545
K0 N2 2.881804 1_555
K0 N4 2.914017 1_555
K0 N11 3.067292 1_655
K0 N8 3.067292 1_545
K1 N2 2.757993 1_555
K1 N6 2.817583 1_455
K1 N6 2.817583 1_565
K1 N3 2.881804 1_555
K1 N5 2.914017 1_555
K1 N9 3.067292 1_455
K1 N10 3.067292 1_565
K2 N1 2.757993 1_645
K2 N5 2.817583 1_545
K2 N5 2.817583 1_655
K2 N0 2.881804 1_554
K2 N6 2.914017 1_555
K2 N10 3.067292 1_555
K2 N9 3.067292 1_555
K3 N0 2.757993 1_465
K3 N4 2.817583 1_565
K3 N4 2.817583 1_455
K3 N1 2.881804 1_556
K3 N7 2.914017 1_555
K3 N8 3.067292 1_555
K3 N11 3.067292 1_555
Mn0 N4 1.655800 1_555
Mn0 N0 1.684330 1_555
Mn0 N11 1.768328 1_655
Mn0 N8 1.768328 1_545
Mn1 N5 1.655800 1_555
Mn1 N1 1.684330 1_555
Mn1 N9 1.768328 1_455
Mn1 N10 1.768328 1_565
Mn2 N6 1.655800 1_555
Mn2 N2 1.684330 1_555
Mn2 N10 1.768328 1_555
Mn2 N9 1.768328 1_555
Mn3 N7 1.655800 1_555
Mn3 N3 1.684330 1_555
Mn3 N8 1.768328 1_555
Mn3 N11 1.768328 1_555
N0 Sr2 2.576610 1_556
N0 Sr3 2.816562 1_655
N0 Sr3 2.816562 1_545
N1 Sr3 2.576610 1_554
N1 Sr2 2.816562 1_455
N1 Sr2 2.816562 1_565
N2 Sr0 2.576610 1_555
N2 Sr1 2.816562 1_545
N2 Sr1 2.816562 1_655
N3 Sr1 2.576610 1_555
N3 Sr0 2.816562 1_565
N3 Sr0 2.816562 1_455
N4 Sr2 2.678268 1_556
N4 Sr3 2.701493 1_555
N5 Sr3 2.678268 1_554
N5 Sr2 2.701493 1_555
N6 Sr0 2.678268 1_555
N6 Sr1 2.701493 1_645
N7 Sr1 2.678268 1_555
N7 Sr0 2.701493 1_465
N8 Sr0 2.662970 1_565
N8 Sr3 2.662970 1_555
N9 Sr2 2.662970 1_555
N9 Sr1 2.662970 1_655
N10 Sr1 2.662970 1_545
N10 Sr2 2.662970 1_555
N11 Sr3 2.662970 1_555
N11 Sr0 2.662970 1_455
