# generated using pymatgen
data_Cu3RuS8
_symmetry_space_group_name_H-M   'P 1'
_cell_length_a   5.74083484
_cell_length_b   5.74083484
_cell_length_c   5.74083484
_cell_angle_alpha   90.44050066
_cell_angle_beta   90.44050066
_cell_angle_gamma   89.55949934
_symmetry_Int_Tables_number   1
_chemical_formula_structural   Cu3RuS8
_chemical_formula_sum   'Cu3 Ru1 S8'
_cell_volume   189.18506479
_cell_formula_units_Z   1
loop_
 _symmetry_equiv_pos_site_id
 _symmetry_equiv_pos_as_xyz
  1  'x, y, z'
loop_
 _atom_site_type_symbol
 _atom_site_label
 _atom_site_symmetry_multiplicity
 _atom_site_fract_x
 _atom_site_fract_y
 _atom_site_fract_z
 _atom_site_occupancy
  Cu  Cu0  1  0.00000000  0.00000000  0.00000000  1
  Cu  Cu1  1  0.00000000  0.50000000  0.50000000  1
  Cu  Cu2  1  0.50000000  0.50000000  0.00000000  1
  Ru  Ru0  1  0.50000000  0.00000000  0.50000000  1
  S  S0  1  0.88861181  0.10103366  0.59901702  1
  S  S1  1  0.11138819  0.89896634  0.40098298  1
  S  S2  1  0.89966938  0.39966938  0.10033062  1
  S  S3  1  0.60103366  0.90098298  0.11138819  1
  S  S4  1  0.59901702  0.61138819  0.60103366  1
  S  S5  1  0.40098298  0.38861181  0.39896634  1
  S  S6  1  0.39896634  0.09901702  0.88861181  1
  S  S7  1  0.10033062  0.60033062  0.89966938  1
loop_
_geom_bond_atom_site_label_1
_geom_bond_atom_site_label_2
_geom_bond_distance
_geom_bond_site_symmetry_2
Cu0 S2 2.427428 1_455
Cu0 S7 2.427428 1_544
Cu0 S6 2.454811 1_554
Cu0 S3 2.454811 1_445
Cu0 S1 2.456954 1_545
Cu0 S0 2.456954 1_454
Cu1 S7 2.427428 1_555
Cu1 S2 2.427428 1_455
Cu1 S1 2.454811 1_555
Cu1 S0 2.454811 1_455
Cu1 S5 2.456954 1_555
Cu1 S4 2.456954 1_455
Cu2 S2 2.427428 1_555
Cu2 S7 2.427428 1_554
Cu2 S5 2.454811 1_555
Cu2 S4 2.454811 1_554
Cu2 S3 2.456954 1_555
Cu2 S6 2.456954 1_554
Ru0 S0 2.373192 1_555
Ru0 S6 2.373192 1_555
Ru0 S5 2.373192 1_555
Ru0 S4 2.373192 1_545
Ru0 S3 2.373192 1_545
Ru0 S1 2.373192 1_545
S0 S1 2.062302 1_645
S2 S7 2.010540 1_654
S3 S6 2.062302 1_564
S4 S5 2.062302 1_555
