# generated using pymatgen
data_Sc5VSi7Ni16
_symmetry_space_group_name_H-M   'P 1'
_cell_length_a   7.99618845
_cell_length_b   7.99618852
_cell_length_c   7.96661757
_cell_angle_alpha   60.12636757
_cell_angle_beta   60.12636730
_cell_angle_gamma   59.75932772
_symmetry_Int_Tables_number   1
_chemical_formula_structural   Sc5VSi7Ni16
_chemical_formula_sum   'Sc5 V1 Si7 Ni16'
_cell_volume   360.20750324
_cell_formula_units_Z   1
loop_
 _symmetry_equiv_pos_site_id
 _symmetry_equiv_pos_as_xyz
  1  'x, y, z'
loop_
 _atom_site_type_symbol
 _atom_site_label
 _atom_site_symmetry_multiplicity
 _atom_site_fract_x
 _atom_site_fract_y
 _atom_site_fract_z
 _atom_site_occupancy
  Sc  Sc0  1  0.29665850  0.70705761  0.29294401  1
  Sc  Sc1  1  0.70705761  0.29665850  0.29294401  1
  Sc  Sc2  1  0.28722074  0.28722074  0.71277704  1
  Sc  Sc3  1  0.70705971  0.29665729  0.70334442  1
  Sc  Sc4  1  0.29665729  0.70705971  0.70334442  1
  V  V0  1  0.70868483  0.70868483  0.29131613  1
  Si  Si0  1  0.00247766  0.00247766  0.99752143  1
  Si  Si1  1  0.99898452  0.99898452  0.50101499  1
  Si  Si2  1  0.50633864  0.99474027  0.49365783  1
  Si  Si3  1  0.99474027  0.50633864  0.49365783  1
  Si  Si4  1  0.49897280  0.49897280  0.00102730  1
  Si  Si5  1  0.99474258  0.50633211  0.00526454  1
  Si  Si6  1  0.50633211  0.99474258  0.00526454  1
  Ni  Ni0  1  0.88011736  0.88011736  0.35460604  1
  Ni  Ni1  1  0.88012717  0.35843467  0.88072612  1
  Ni  Ni2  1  0.35843467  0.88012717  0.88072612  1
  Ni  Ni3  1  0.88011043  0.88011043  0.88515868  1
  Ni  Ni4  1  0.11928007  0.11928007  0.64155378  1
  Ni  Ni5  1  0.11484006  0.64538131  0.11988383  1
  Ni  Ni6  1  0.64538131  0.11484006  0.11988383  1
  Ni  Ni7  1  0.11928601  0.11928601  0.11988749  1
  Ni  Ni8  1  0.66885707  0.66885707  0.99201859  1
  Ni  Ni9  1  0.66819305  0.99233644  0.66973129  1
  Ni  Ni10  1  0.99233644  0.66819305  0.66973129  1
  Ni  Ni11  1  0.66886795  0.66886795  0.67027901  1
  Ni  Ni12  1  0.33026205  0.33026205  0.00767126  1
  Ni  Ni13  1  0.32973295  0.00799471  0.33113660  1
  Ni  Ni14  1  0.00799471  0.32973295  0.33113660  1
  Ni  Ni15  1  0.33025045  0.33025045  0.33179199  1
loop_
_geom_bond_atom_site_label_1
_geom_bond_atom_site_label_2
_geom_bond_distance
_geom_bond_site_symmetry_2
Sc0 Si6 2.856628 1_555
Sc0 Si4 2.861742 1_555
Sc0 Si1 2.861783 1_455
Sc0 Si3 2.908937 1_455
Sc0 V0 3.294759 1_555
Sc1 Si5 2.856628 1_555
Sc1 Si4 2.861742 1_555
Sc1 Si1 2.861783 1_545
Sc1 Si2 2.908937 1_545
Sc1 V0 3.294759 1_555
Sc2 Si3 2.911945 1_455
Sc2 Si2 2.911945 1_545
Sc2 Si5 2.911995 1_456
Sc2 Si6 2.911995 1_546
Sc3 Si3 2.856582 1_555
Sc3 Si4 2.861723 1_556
Sc3 Si1 2.861796 1_545
Sc3 Si6 2.909022 1_546
Sc3 V0 3.294979 1_555
Sc4 Si2 2.856582 1_555
Sc4 Si4 2.861723 1_556
Sc4 Si1 2.861796 1_455
Sc4 Si5 2.909022 1_456
Sc4 V0 3.294979 1_555
Si2 V0 2.792027 1_555
Si3 V0 2.792027 1_555
Si5 V0 2.792121 1_555
Si6 V0 2.792121 1_555
Ni0 Si0 2.329390 1_664
Ni0 Si2 2.440097 1_555
Ni0 Si3 2.440097 1_555
Ni0 Si1 2.507202 1_555
Ni0 Ni11 2.538040 1_555
Ni0 Ni9 2.540439 1_555
Ni0 Ni10 2.540439 1_555
Ni0 Ni5 2.644653 1_655
Ni0 Ni6 2.644653 1_565
Ni0 V0 2.698568 1_555
Ni0 Ni7 2.714877 1_665
Ni0 Sc0 2.766717 1_655
Ni0 Sc1 2.766717 1_565
Ni1 Si0 2.321212 1_655
Ni1 Si4 2.486674 1_556
Ni1 Ni8 2.505555 1_555
Ni1 Ni11 2.505598 1_555
Ni1 Ni10 2.520728 1_555
Ni1 Si5 2.527702 1_556
Ni1 Si3 2.528025 1_555
Ni1 Ni7 2.694576 1_656
Ni1 Ni4 2.694614 1_655
Ni1 Sc2 2.695162 1_655
Ni1 Ni6 2.714896 1_556
Ni1 Sc3 2.736456 1_555
Ni1 Sc1 2.736599 1_556
Ni2 Si0 2.321212 1_565
Ni2 Si4 2.486674 1_556
Ni2 Ni8 2.505555 1_555
Ni2 Ni9 2.520728 1_555
Ni2 Si6 2.527702 1_556
Ni2 Si2 2.528025 1_555
Ni2 Ni7 2.694576 1_566
Ni2 Ni4 2.694614 1_565
Ni2 Sc2 2.695162 1_565
Ni2 Ni5 2.714896 1_556
Ni2 Sc4 2.736456 1_555
Ni2 Sc0 2.736599 1_556
Ni3 Si0 2.329278 1_665
Ni3 Si6 2.440082 1_556
Ni3 Si5 2.440082 1_556
Ni3 Si1 2.507400 1_555
Ni3 Ni8 2.537866 1_555
Ni3 Ni9 2.540342 1_555
Ni3 Ni6 2.644633 1_566
Ni3 Ni5 2.644633 1_656
Ni3 V0 2.698799 1_556
Ni3 Ni4 2.714893 1_665
Ni3 Sc4 2.766773 1_655
Ni3 Sc3 2.766773 1_565
Ni4 Si0 2.321285 1_555
Ni4 Si1 2.486315 1_445
Ni4 Si2 2.527956 1_545
Ni4 Si3 2.527956 1_455
Ni4 Sc2 2.695029 1_555
Ni4 Sc3 2.736592 1_455
Ni4 Sc4 2.736592 1_545
Ni5 Si0 2.329458 1_564
Ni5 Si5 2.439817 1_455
Ni5 Si3 2.440071 1_455
Ni5 Si4 2.507338 1_555
Ni5 V0 2.698745 1_455
Ni5 Sc0 2.766600 1_555
Ni5 Sc4 2.766697 1_554
Ni6 Si0 2.329458 1_654
Ni6 Si6 2.439817 1_545
Ni6 Si2 2.440071 1_545
Ni6 Si4 2.507338 1_555
Ni6 V0 2.698745 1_545
Ni6 Sc1 2.766600 1_555
Ni6 Sc3 2.766697 1_554
Ni7 Si0 2.321193 1_554
Ni7 Si1 2.486496 1_445
Ni7 Si6 2.527857 1_545
Ni7 Si5 2.527857 1_455
Ni7 Sc2 2.695284 1_554
Ni7 Sc1 2.736673 1_455
Ni7 Sc0 2.736673 1_545
Ni8 Si5 2.284002 1_556
Ni8 Si6 2.284002 1_556
Ni8 Si4 2.315230 1_556
Ni8 Ni9 2.582001 1_555
Ni8 Sc0 2.721091 1_556
Ni8 Sc1 2.721091 1_556
Ni8 V0 2.739202 1_556
Ni9 Si1 2.309683 1_555
Ni9 Si2 2.323687 1_555
Ni9 Si6 2.323895 1_556
Ni9 Sc2 2.736273 1_565
Ni9 Sc3 2.753827 1_565
Ni9 Sc1 2.753970 1_565
Ni10 Si1 2.309683 1_555
Ni10 Si3 2.323687 1_555
Ni10 Si5 2.323895 1_556
Ni10 Ni3 2.540342 1_555
Ni10 Ni11 2.581633 1_555
Ni10 Ni8 2.582001 1_555
Ni10 Ni9 2.582477 1_555
Ni10 Sc2 2.736273 1_655
Ni10 Sc4 2.753827 1_655
Ni10 Sc0 2.753970 1_655
Ni11 Si3 2.284047 1_555
Ni11 Si2 2.284047 1_555
Ni11 Si4 2.315421 1_556
Ni11 Ni2 2.505598 1_555
Ni11 Ni8 2.563089 1_555
Ni11 Ni9 2.581633 1_555
Ni11 Sc4 2.721107 1_555
Ni11 Sc3 2.721107 1_555
Ni11 V0 2.739422 1_555
Ni12 Si4 2.309440 1_555
Ni12 Si5 2.323803 1_455
Ni12 Si6 2.323803 1_545
Ni12 Ni7 2.520527 1_555
Ni12 Ni6 2.540371 1_555
Ni12 Ni5 2.540371 1_555
Ni12 Ni14 2.581865 1_555
Ni12 Ni13 2.581865 1_555
Ni12 Ni15 2.582053 1_555
Ni12 Sc2 2.736127 1_554
Ni12 Sc3 2.754032 1_554
Ni12 Sc4 2.754032 1_554
Ni13 Si2 2.283809 1_545
Ni13 Si6 2.283938 1_545
Ni13 Si1 2.315289 1_445
Ni13 Ni7 2.505355 1_555
Ni13 Ni4 2.505495 1_555
Ni13 Ni6 2.537902 1_555
Ni13 Ni14 2.563315 1_555
Ni13 Ni15 2.581511 1_555
Ni13 Sc0 2.720956 1_545
Ni13 Sc4 2.721167 1_545
Ni13 V0 2.739428 1_545
Ni14 Si3 2.283809 1_455
Ni14 Si5 2.283938 1_455
Ni14 Si1 2.315289 1_445
Ni14 Ni7 2.505355 1_555
Ni14 Ni4 2.505495 1_555
Ni14 Ni5 2.537902 1_555
Ni14 Ni15 2.581511 1_555
Ni14 Sc1 2.720956 1_455
Ni14 Sc3 2.721167 1_455
Ni14 V0 2.739428 1_455
Ni15 Si4 2.309628 1_555
Ni15 Si3 2.323870 1_455
Ni15 Si2 2.323870 1_545
Ni15 Ni4 2.520676 1_555
Ni15 Ni6 2.540397 1_555
Ni15 Ni5 2.540397 1_555
Ni15 Sc2 2.736343 1_555
Ni15 Sc1 2.754072 1_555
Ni15 Sc0 2.754072 1_555
