# generated using pymatgen
data_K6Na3GaBi4
_symmetry_space_group_name_H-M   'P 1'
_cell_length_a   10.38112635
_cell_length_b   10.38112582
_cell_length_c   10.68335946
_cell_angle_alpha   90.00000000
_cell_angle_beta   90.00000000
_cell_angle_gamma   120.00000475
_symmetry_Int_Tables_number   1
_chemical_formula_structural   K6Na3GaBi4
_chemical_formula_sum   'K12 Na6 Ga2 Bi8'
_cell_volume   997.07398267
_cell_formula_units_Z   2
loop_
 _symmetry_equiv_pos_site_id
 _symmetry_equiv_pos_as_xyz
  1  'x, y, z'
loop_
 _atom_site_type_symbol
 _atom_site_label
 _atom_site_symmetry_multiplicity
 _atom_site_fract_x
 _atom_site_fract_y
 _atom_site_fract_z
 _atom_site_occupancy
  K  K0  1  0.20743776  0.41487552  0.53766842  1
  K  K1  1  0.79256224  0.20743776  0.03766842  1
  K  K2  1  0.41487552  0.20743776  0.03766842  1
  K  K3  1  0.58512448  0.79256224  0.53766842  1
  K  K4  1  0.20743776  0.79256224  0.53766842  1
  K  K5  1  0.79256224  0.58512448  0.46233158  1
  K  K6  1  0.79256224  0.20743776  0.46233158  1
  K  K7  1  0.79256224  0.58512448  0.03766842  1
  K  K8  1  0.41487552  0.20743776  0.46233158  1
  K  K9  1  0.58512448  0.79256224  0.96233158  1
  K  K10  1  0.20743776  0.41487552  0.96233158  1
  K  K11  1  0.20743776  0.79256224  0.96233158  1
  Na  Na0  1  0.11494945  0.22989790  0.25000000  1
  Na  Na1  1  0.88505055  0.11494945  0.75000000  1
  Na  Na2  1  0.22989790  0.11494945  0.75000000  1
  Na  Na3  1  0.77010210  0.88505055  0.25000000  1
  Na  Na4  1  0.11494945  0.88505055  0.25000000  1
  Na  Na5  1  0.88505055  0.77010210  0.75000000  1
  Ga  Ga0  1  0.33333300  0.66666700  0.25000000  1
  Ga  Ga1  1  0.66666700  0.33333300  0.75000000  1
  Bi  Bi0  1  0.48329279  0.51670721  0.25000000  1
  Bi  Bi1  1  0.96658659  0.48329279  0.75000000  1
  Bi  Bi2  1  0.51670721  0.03341341  0.75000000  1
  Bi  Bi3  1  0.48329279  0.96658659  0.25000000  1
  Bi  Bi4  1  0.03341341  0.51670721  0.25000000  1
  Bi  Bi5  1  0.51670721  0.48329279  0.75000000  1
  Bi  Bi6  1  0.00000000  0.00000000  0.00000000  1
  Bi  Bi7  1  0.00000000  0.00000000  0.50000000  1
loop_
_geom_bond_atom_site_label_1
_geom_bond_atom_site_label_2
_geom_bond_distance
_geom_bond_site_symmetry_2
K0 Na0 3.494360 1_555
K0 K6 3.815713 1_455
K0 K8 3.815713 1_555
K0 K3 3.920813 1_555
K0 K4 3.920813 1_555
K0 Na2 3.952259 1_555
K0 Na1 3.952264 1_455
K0 K10 4.536829 1_555
K1 Na1 3.494356 1_554
K1 K9 3.815713 1_544
K1 K10 3.815713 1_654
K1 K7 3.920813 1_555
K1 K2 3.920814 1_555
K1 Na3 3.952268 1_545
K1 Na0 3.952268 1_655
K1 K6 4.536829 1_555
K2 Na2 3.494360 1_554
K2 K7 3.920813 1_555
K2 Na0 3.952259 1_555
K2 Na4 3.952264 1_545
K2 K8 4.536829 1_555
K3 Na3 3.494360 1_555
K3 K6 3.815713 1_565
K3 K5 3.815713 1_555
K3 K4 3.920814 1_555
K3 Na5 3.952259 1_555
K3 Na1 3.952264 1_565
K3 K9 4.536829 1_555
K4 Na4 3.494356 1_555
K4 K8 3.815713 1_565
K4 K5 3.815713 1_455
K4 Na2 3.952268 1_565
K4 Na5 3.952268 1_455
K5 Na5 3.494360 1_555
K5 K8 3.920813 1_555
K5 K6 3.920813 1_555
K5 Na3 3.952259 1_555
K5 Na4 3.952264 1_655
K5 K7 4.536829 1_555
K6 Na1 3.494356 1_555
K6 K8 3.920814 1_555
K6 Na3 3.952268 1_545
K6 Na0 3.952268 1_655
K7 Na5 3.494360 1_554
K7 K9 3.815713 1_554
K7 Na3 3.952259 1_555
K7 Na4 3.952264 1_655
K8 Na2 3.494360 1_555
K8 Na0 3.952259 1_555
K8 Na4 3.952264 1_545
K9 Na3 3.494360 1_556
K9 Na5 3.952259 1_555
K9 Na1 3.952264 1_565
K10 Na0 3.494360 1_556
K10 K2 3.815713 1_556
K10 K9 3.920813 1_555
K10 K11 3.920813 1_555
K10 Na2 3.952259 1_555
K10 Na1 3.952264 1_455
K11 Na4 3.494356 1_556
K11 K2 3.815713 1_566
K11 K7 3.815713 1_456
K11 K9 3.920814 1_555
K11 Na2 3.952268 1_565
K11 Na5 3.952268 1_455
K11 K4 4.536829 1_555
Na0 Na3 3.579904 1_445
Na0 Na4 3.579904 1_545
Na1 Na5 3.579904 1_545
Na1 Na2 3.579904 1_655
Na2 Na5 3.579904 1_445
Na3 Na4 3.579904 1_655
Ga0 K4 3.816961 1_555
Ga0 K11 3.816961 1_554
Ga0 K0 3.816966 1_555
Ga0 K10 3.816966 1_554
Ga0 K3 3.816966 1_555
Ga0 K9 3.816966 1_554
Ga1 K1 3.816961 1_556
Ga1 K6 3.816961 1_555
Ga1 K7 3.816966 1_556
Ga1 K5 3.816966 1_555
Ga1 K2 3.816966 1_556
Ga1 K8 3.816966 1_555
Bi0 Ga0 2.696373 1_555
Bi0 Na3 3.478716 1_555
Bi0 Na0 3.478717 1_555
Bi0 K8 3.698322 1_555
Bi0 K2 3.698322 1_555
Bi0 K5 3.698322 1_555
Bi0 K7 3.698322 1_555
Bi0 K3 3.966849 1_555
Bi0 K9 3.966849 1_554
Bi0 K0 3.966849 1_555
Bi0 K10 3.966849 1_554
Bi1 Ga1 2.696373 1_555
Bi1 Na1 3.478710 1_555
Bi1 Na5 3.478731 1_555
Bi1 K10 3.698314 1_655
Bi1 K0 3.698314 1_655
Bi1 K11 3.698320 1_655
Bi1 K4 3.698320 1_655
Bi1 K1 3.966850 1_556
Bi1 K6 3.966850 1_555
Bi1 K7 3.966855 1_556
Bi1 K5 3.966855 1_555
Bi2 Ga1 2.696373 1_555
Bi2 Na1 3.478710 1_555
Bi2 Na2 3.478731 1_555
Bi2 K9 3.698314 1_545
Bi2 K3 3.698314 1_545
Bi2 K11 3.698320 1_545
Bi2 K4 3.698320 1_545
Bi2 K1 3.966850 1_556
Bi2 K6 3.966850 1_555
Bi2 K2 3.966855 1_556
Bi2 K8 3.966855 1_555
Bi3 Ga0 2.696373 1_555
Bi3 Na4 3.478710 1_555
Bi3 Na3 3.478731 1_555
Bi3 K8 3.698314 1_565
Bi3 K2 3.698314 1_565
Bi3 K6 3.698320 1_565
Bi3 K1 3.698320 1_565
Bi3 K4 3.966850 1_555
Bi3 K11 3.966850 1_554
Bi3 K3 3.966855 1_555
Bi3 K9 3.966855 1_554
Bi4 Ga0 2.696373 1_555
Bi4 Na4 3.478710 1_555
Bi4 Na0 3.478731 1_555
Bi4 K5 3.698314 1_455
Bi4 K7 3.698314 1_455
Bi4 K6 3.698320 1_455
Bi4 K1 3.698320 1_455
Bi4 K4 3.966850 1_555
Bi4 K11 3.966850 1_554
Bi4 K0 3.966855 1_555
Bi4 K10 3.966855 1_554
Bi5 Ga1 2.696373 1_555
Bi5 Na2 3.478716 1_555
Bi5 Na5 3.478717 1_555
Bi5 K9 3.698322 1_555
Bi5 K3 3.698322 1_555
Bi5 K10 3.698322 1_555
Bi5 K0 3.698322 1_555
Bi5 K2 3.966849 1_556
Bi5 K8 3.966849 1_555
Bi5 K7 3.966849 1_556
Bi5 K5 3.966849 1_555
Bi6 Na0 3.377170 1_555
Bi6 Na5 3.377170 1_444
Bi6 Na2 3.377170 1_554
Bi6 Na3 3.377170 1_445
Bi6 Na4 3.377175 1_545
Bi6 Na1 3.377175 1_454
Bi6 K10 3.751510 1_554
Bi6 K7 3.751510 1_445
Bi6 K2 3.751510 1_555
Bi6 K9 3.751510 1_444
Bi6 K11 3.751510 1_544
Bi6 K1 3.751510 1_455
Bi7 Na0 3.377170 1_555
Bi7 Na5 3.377170 1_445
Bi7 Na2 3.377170 1_555
Bi7 Na3 3.377170 1_445
Bi7 Na4 3.377175 1_545
Bi7 Na1 3.377175 1_455
Bi7 K0 3.751510 1_555
Bi7 K5 3.751510 1_445
Bi7 K8 3.751510 1_555
Bi7 K3 3.751510 1_445
Bi7 K4 3.751510 1_545
Bi7 K6 3.751510 1_455
