# generated using pymatgen
data_Ba6TaV3S16
_symmetry_space_group_name_H-M   'P 1'
_cell_length_a   11.21112972
_cell_length_b   11.21112890
_cell_length_c   11.21112968
_cell_angle_alpha   51.43199214
_cell_angle_beta   51.43199330
_cell_angle_gamma   51.43199655
_symmetry_Int_Tables_number   1
_chemical_formula_structural   Ba6TaV3S16
_chemical_formula_sum   'Ba6 Ta1 V3 S16'
_cell_volume   795.37008075
_cell_formula_units_Z   1
loop_
 _symmetry_equiv_pos_site_id
 _symmetry_equiv_pos_as_xyz
  1  'x, y, z'
loop_
 _atom_site_type_symbol
 _atom_site_label
 _atom_site_symmetry_multiplicity
 _atom_site_fract_x
 _atom_site_fract_y
 _atom_site_fract_z
 _atom_site_occupancy
  Ba  Ba0  1  0.74450975  0.43409696  0.07016950  1
  Ba  Ba1  1  0.57619181  0.92712437  0.24934067  1
  Ba  Ba2  1  0.07016950  0.74450975  0.43409796  1
  Ba  Ba3  1  0.92712537  0.24934067  0.57619181  1
  Ba  Ba4  1  0.43409796  0.07017050  0.74450875  1
  Ba  Ba5  1  0.24934067  0.57619181  0.92712537  1
  Ta  Ta0  1  0.16069328  0.16069328  0.16069328  1
  V  V0  1  0.33879736  0.33879736  0.33879736  1
  V  V1  1  0.66122002  0.66122002  0.66122002  1
  V  V2  1  0.83877173  0.83877173  0.83877173  1
  S  S0  1  0.61754789  0.79376837  0.03043265  1
  S  S1  1  0.08206589  0.08206589  0.08206589  1
  S  S2  1  0.53238209  0.28955590  0.12008676  1
  S  S3  1  0.95332062  0.38863613  0.21901713  1
  S  S4  1  0.12008676  0.53238109  0.28955590  1
  S  S5  1  0.21901613  0.95332162  0.38863613  1
  S  S6  1  0.41339876  0.41339876  0.41339876  1
  S  S7  1  0.71113554  0.87976167  0.46767281  1
  S  S8  1  0.28955590  0.12008676  0.53238209  1
  S  S9  1  0.58686936  0.58686936  0.58686936  1
  S  S10  1  0.79376837  0.03043265  0.61754789  1
  S  S11  1  0.87976167  0.46767381  0.71113554  1
  S  S12  1  0.03043265  0.61754789  0.79376837  1
  S  S13  1  0.46767381  0.71113554  0.87976167  1
  S  S14  1  0.91342998  0.91342998  0.91342998  1
  S  S15  1  0.38863713  0.21901613  0.95332062  1
loop_
_geom_bond_atom_site_label_1
_geom_bond_atom_site_label_2
_geom_bond_distance
_geom_bond_site_symmetry_2
Ba0 S11 3.139278 1_554
Ba0 S0 3.142982 1_555
Ba0 S2 3.257282 1_555
Ba0 S6 3.284911 1_555
Ba0 S3 3.293575 1_555
Ba0 S1 3.356400 1_655
Ba0 S13 3.436656 1_554
Ba0 S12 3.463515 1_654
Ba1 S5 3.141331 1_555
Ba1 S2 3.147787 1_565
Ba1 S7 3.249205 1_555
Ba1 S14 3.277809 1_554
Ba1 S0 3.281049 1_555
Ba1 S9 3.298762 1_555
Ba1 S8 3.500361 1_565
Ba1 S15 3.567054 1_564
Ba2 S7 3.139286 1_455
Ba2 S12 3.142972 1_555
Ba2 S4 3.257302 1_555
Ba2 S6 3.284912 1_555
Ba2 S5 3.293569 1_555
Ba2 S1 3.356405 1_565
Ba2 S11 3.436656 1_455
Ba2 S10 3.463508 1_465
Ba3 S3 3.141330 1_555
Ba3 S8 3.147778 1_655
Ba3 S11 3.249209 1_555
Ba3 S14 3.277809 1_545
Ba3 S10 3.281058 1_555
Ba3 S9 3.298767 1_555
Ba3 S4 3.500346 1_655
Ba3 S5 3.567053 1_645
Ba4 S13 3.139289 1_545
Ba4 S10 3.142971 1_555
Ba4 S8 3.257287 1_555
Ba4 S6 3.284902 1_555
Ba4 S15 3.293566 1_555
Ba4 S1 3.356410 1_556
Ba4 S7 3.436663 1_545
Ba4 S0 3.463516 1_546
Ba5 S15 3.141337 1_555
Ba5 S4 3.147773 1_556
Ba5 S13 3.249209 1_555
Ba5 S14 3.277810 1_455
Ba5 S12 3.281059 1_555
Ba5 S9 3.298766 1_555
Ba5 S2 3.500354 1_556
Ba5 S3 3.567060 1_456
S0 V2 2.141595 1_554
S1 Ta0 2.288624 1_555
S2 V0 2.141438 1_555
S3 Ta0 2.267858 1_655
S4 V0 2.141437 1_555
S5 Ta0 2.267853 1_565
S6 V0 2.171438 1_555
S7 V1 2.142681 1_555
S8 V0 2.141438 1_555
S9 V1 2.164140 1_555
S10 V2 2.141595 1_545
S11 V1 2.142680 1_555
S12 V2 2.141595 1_455
S13 V1 2.142680 1_555
S14 V2 2.173093 1_555
S15 Ta0 2.267862 1_556
