# generated using pymatgen
data_Sc2MnTcOs2
_symmetry_space_group_name_H-M   'P 1'
_cell_length_a   5.11669560
_cell_length_b   5.19883843
_cell_length_c   8.61118633
_cell_angle_alpha   90.00000000
_cell_angle_beta   90.00000000
_cell_angle_gamma   120.53249466
_symmetry_Int_Tables_number   1
_chemical_formula_structural   Sc2MnTcOs2
_chemical_formula_sum   'Sc4 Mn2 Tc2 Os4'
_cell_volume   197.30318563
_cell_formula_units_Z   2
loop_
 _symmetry_equiv_pos_site_id
 _symmetry_equiv_pos_as_xyz
  1  'x, y, z'
loop_
 _atom_site_type_symbol
 _atom_site_label
 _atom_site_symmetry_multiplicity
 _atom_site_fract_x
 _atom_site_fract_y
 _atom_site_fract_z
 _atom_site_occupancy
  Sc  Sc0  1  0.33308085  0.66416127  0.06171780  1
  Sc  Sc1  1  0.66691915  0.33108042  0.56171780  1
  Sc  Sc2  1  0.66691915  0.33108042  0.93828220  1
  Sc  Sc3  1  0.33308085  0.66416127  0.43828220  1
  Mn  Mn0  1  0.82686745  0.17057320  0.25000000  1
  Mn  Mn1  1  0.17313255  0.34370675  0.75000000  1
  Tc  Tc0  1  0.65794180  0.83600317  0.75000000  1
  Tc  Tc1  1  0.34205820  0.17806136  0.25000000  1
  Os  Os0  1  1.00000000  0.99364951  0.00000000  1
  Os  Os1  1  1.00000000  0.99364951  0.50000000  1
  Os  Os2  1  0.82420951  0.65904083  0.25000000  1
  Os  Os3  1  0.17579049  0.83483132  0.75000000  1
loop_
_geom_bond_atom_site_label_1
_geom_bond_atom_site_label_2
_geom_bond_distance
_geom_bond_site_symmetry_2
Sc0 Tc1 3.022464 1_555
Sc0 Tc0 3.042615 1_554
Sc0 Tc1 3.105484 1_565
Sc0 Sc2 3.122411 1_454
Sc0 Sc2 3.170412 1_564
Sc0 Sc2 3.170412 1_554
Sc0 Sc3 3.242666 1_555
Sc1 Tc0 3.022464 1_545
Sc1 Tc1 3.042615 1_555
Sc1 Tc0 3.105484 1_555
Sc1 Sc3 3.122411 1_655
Sc1 Sc3 3.170412 1_545
Sc1 Sc3 3.170412 1_555
Sc1 Sc2 3.242666 1_555
Sc2 Tc0 3.022464 1_545
Sc2 Tc1 3.042615 1_556
Sc2 Tc0 3.105484 1_555
Sc3 Tc1 3.022464 1_555
Sc3 Tc0 3.042615 1_555
Sc3 Tc1 3.105484 1_565
Mn0 Tc1 2.500624 1_555
Mn0 Os2 2.546400 1_555
Mn0 Tc1 2.616512 1_655
Mn0 Os2 2.652491 1_545
Mn0 Os1 2.663310 1_545
Mn0 Os0 2.663310 1_545
Mn0 Sc3 3.028055 1_655
Mn0 Sc0 3.028055 1_655
Mn0 Sc3 3.030678 1_545
Mn0 Sc0 3.030678 1_545
Mn0 Sc1 3.043885 1_555
Mn0 Sc2 3.043885 1_554
Mn1 Tc0 2.500621 1_555
Mn1 Os3 2.546395 1_555
Mn1 Tc0 2.616514 1_445
Mn1 Os3 2.652496 1_545
Mn1 Os0 2.663313 1_446
Mn1 Os1 2.663313 1_445
Mn1 Sc2 3.028053 1_455
Mn1 Sc1 3.028053 1_455
Mn1 Sc2 3.030681 1_555
Mn1 Sc1 3.030681 1_555
Mn1 Sc0 3.043883 1_556
Mn1 Sc3 3.043883 1_555
Os0 Os2 2.622954 1_555
Os0 Os3 2.622954 1_654
Os0 Tc1 2.629070 1_665
Os0 Tc0 2.629070 1_554
Os0 Sc2 2.986993 1_664
Os0 Sc0 2.986993 1_555
Os0 Sc2 3.014537 1_554
Os0 Sc0 3.014537 1_655
Os0 Sc0 3.049935 1_665
Os0 Sc2 3.049935 1_564
Os1 Os2 2.622954 1_555
Os1 Os3 2.622954 1_655
Os1 Tc1 2.629070 1_665
Os1 Tc0 2.629070 1_555
Os1 Sc1 2.986993 1_665
Os1 Sc3 2.986993 1_555
Os1 Sc1 3.014537 1_555
Os1 Sc3 3.014537 1_655
Os1 Sc3 3.049935 1_665
Os1 Sc1 3.049935 1_565
Os2 Tc1 2.463932 1_555
Os2 Tc1 2.652774 1_665
Os2 Sc3 3.002057 1_555
Os2 Sc0 3.002057 1_555
Os2 Sc3 3.055890 1_655
Os2 Sc0 3.055890 1_655
Os2 Sc1 3.060360 1_555
Os2 Sc2 3.060360 1_554
Os3 Tc0 2.463932 1_555
Os3 Tc0 2.652774 1_455
Os3 Sc2 3.002057 1_565
Os3 Sc1 3.002057 1_565
Os3 Sc2 3.055890 1_455
Os3 Sc1 3.055890 1_455
Os3 Sc0 3.060360 1_556
Os3 Sc3 3.060360 1_555
