# generated using pymatgen
data_Rb4Ba(AsSe4)2
_symmetry_space_group_name_H-M   'P 1'
_cell_length_a   12.22992865
_cell_length_b   12.22992851
_cell_length_c   12.22992831
_cell_angle_alpha   133.46424374
_cell_angle_beta   127.93657622
_cell_angle_gamma   72.38072237
_symmetry_Int_Tables_number   1
_chemical_formula_structural   Rb4Ba(AsSe4)2
_chemical_formula_sum   'Rb8 Ba2 As4 Se16'
_cell_volume   1023.77022770
_cell_formula_units_Z   2
loop_
 _symmetry_equiv_pos_site_id
 _symmetry_equiv_pos_as_xyz
  1  'x, y, z'
loop_
 _atom_site_type_symbol
 _atom_site_label
 _atom_site_symmetry_multiplicity
 _atom_site_fract_x
 _atom_site_fract_y
 _atom_site_fract_z
 _atom_site_occupancy
  Rb  Rb0  1  0.41564581  0.29523207  0.87958627  1
  Rb  Rb1  1  0.58435419  0.70476793  0.12041373  1
  Rb  Rb2  1  0.91564581  0.53605954  0.62041373  1
  Rb  Rb3  1  0.08435419  0.46394046  0.37958627  1
  Rb  Rb4  1  0.49098693  0.24098693  0.25000000  1
  Rb  Rb5  1  0.00901307  0.75901307  0.25000000  1
  Rb  Rb6  1  0.50901307  0.75901307  0.75000000  1
  Rb  Rb7  1  0.99098693  0.24098693  0.75000000  1
  Ba  Ba0  1  0.25000000  0.00000000  0.25000000  1
  Ba  Ba1  1  0.75000000  0.00000000  0.75000000  1
  As  As0  1  0.87086896  0.08186305  0.21099509  1
  As  As1  1  0.12913104  0.91813695  0.78900491  1
  As  As2  1  0.37086896  0.65987386  0.28900491  1
  As  As3  1  0.62913104  0.34012614  0.71099509  1
  Se  Se0  1  0.24347775  0.98174966  0.73827192  1
  Se  Se1  1  0.75652225  0.01825034  0.26172808  1
  Se  Se2  1  0.74347775  0.50520683  0.76172808  1
  Se  Se3  1  0.25652225  0.49479317  0.23827192  1
  Se  Se4  1  0.24975675  0.77171408  0.86938010  1
  Se  Se5  1  0.09766603  0.22828592  0.47804268  1
  Se  Se6  1  0.40233397  0.38037665  0.63061990  1
  Se  Se7  1  0.25024325  0.61962335  0.02195732  1
  Se  Se8  1  0.75024325  0.22828592  0.13061990  1
  Se  Se9  1  0.90233397  0.77171408  0.52195732  1
  Se  Se10  1  0.59766603  0.61962335  0.36938010  1
  Se  Se11  1  0.74975675  0.38037665  0.97804268  1
  Se  Se12  1  0.39121018  0.91932636  0.52811617  1
  Se  Se13  1  0.60878982  0.08067364  0.47188383  1
  Se  Se14  1  0.89121018  0.86309401  0.97188383  1
  Se  Se15  1  0.10878982  0.13690599  0.02811617  1
loop_
_geom_bond_atom_site_label_1
_geom_bond_atom_site_label_2
_geom_bond_distance
_geom_bond_site_symmetry_2
Rb0 Se12 3.430128 1_545
Rb0 Se5 3.581038 1_555
Rb0 Se8 3.581038 1_556
Rb0 Se7 3.582141 1_556
Rb0 Se10 3.582141 1_556
Rb0 Se0 3.662722 1_545
Rb0 Se6 3.745920 1_555
Rb0 Se11 3.745920 1_555
Rb1 Se13 3.430128 1_565
Rb1 Se9 3.581038 1_555
Rb1 Se4 3.581038 1_554
Rb1 Se11 3.582141 1_554
Rb1 Se6 3.582141 1_554
Rb1 Se1 3.662722 1_565
Rb1 Se10 3.745920 1_555
Rb1 Se7 3.745920 1_555
Rb2 Se14 3.430128 1_555
Rb2 Se10 3.581038 1_555
Rb2 Se7 3.581038 1_656
Rb2 Se8 3.582141 1_555
Rb2 Se5 3.582141 1_655
Rb2 Se2 3.662715 1_555
Rb2 Se9 3.745920 1_555
Rb2 Se4 3.745920 1_655
Rb3 Se15 3.430128 1_555
Rb3 Se6 3.581038 1_555
Rb3 Se11 3.581038 1_454
Rb3 Se4 3.582141 1_555
Rb3 Se9 3.582141 1_455
Rb3 Se3 3.662715 1_555
Rb3 Se5 3.745920 1_555
Rb3 Se8 3.745920 1_455
Rb4 Se3 3.549159 1_555
Rb4 Se1 3.549167 1_555
Rb4 Se2 3.687805 1_555
Rb4 Se0 3.687805 1_544
Rb4 Se13 3.753147 1_555
Rb4 Se15 3.753147 1_555
Rb5 Se0 3.549167 1_555
Rb5 Se2 3.549167 1_454
Rb5 Se1 3.687805 1_465
Rb5 Se3 3.687813 1_555
Rb5 Se14 3.753147 1_454
Rb5 Se12 3.753147 1_555
Rb6 Se2 3.549159 1_555
Rb6 Se0 3.549167 1_555
Rb6 Se3 3.687805 1_555
Rb6 Se1 3.687805 1_566
Rb6 Se12 3.753147 1_555
Rb6 Se14 3.753147 1_555
Rb7 Se1 3.549167 1_555
Rb7 Se3 3.549167 1_656
Rb7 Se0 3.687805 1_645
Rb7 Se2 3.687813 1_555
Rb7 Se15 3.753147 1_656
Rb7 Se13 3.753147 1_555
Ba0 Se4 3.401636 1_544
Ba0 Se5 3.401636 1_555
Ba0 Se7 3.401636 1_545
Ba0 Se6 3.401636 1_555
Ba0 Se12 3.447888 1_545
Ba0 Se15 3.447888 1_555
Ba0 Se13 3.447888 1_555
Ba0 Se14 3.447888 1_444
Ba1 Se8 3.401636 1_556
Ba1 Se9 3.401636 1_545
Ba1 Se11 3.401636 1_555
Ba1 Se10 3.401636 1_545
Ba1 Se13 3.447888 1_555
Ba1 Se14 3.447888 1_545
Ba1 Se12 3.447888 1_545
Ba1 Se15 3.447888 1_656
As0 Se1 2.309874 1_555
As0 Se5 2.321369 1_655
As0 Se8 2.321378 1_555
As0 Se14 2.345018 1_544
As1 Se0 2.309874 1_555
As1 Se9 2.321369 1_455
As1 Se4 2.321378 1_555
As1 Se15 2.345018 1_566
As2 Se3 2.309894 1_555
As2 Se7 2.321367 1_555
As2 Se10 2.321367 1_555
As2 Se12 2.345021 1_555
As3 Se2 2.309894 1_555
As3 Se11 2.321367 1_555
As3 Se6 2.321367 1_555
As3 Se13 2.345021 1_555
