# generated using pymatgen
data_Rb2TiFeSe4
_symmetry_space_group_name_H-M   'P 1'
_cell_length_a   7.29345171
_cell_length_b   7.29345162
_cell_length_c   5.75698458
_cell_angle_alpha   78.57574654
_cell_angle_beta   78.57575578
_cell_angle_gamma   116.64463820
_symmetry_Int_Tables_number   1
_chemical_formula_structural   Rb2TiFeSe4
_chemical_formula_sum   'Rb2 Ti1 Fe1 Se4'
_cell_volume   253.50166611
_cell_formula_units_Z   1
loop_
 _symmetry_equiv_pos_site_id
 _symmetry_equiv_pos_as_xyz
  1  'x, y, z'
loop_
 _atom_site_type_symbol
 _atom_site_label
 _atom_site_symmetry_multiplicity
 _atom_site_fract_x
 _atom_site_fract_y
 _atom_site_fract_z
 _atom_site_occupancy
  Rb  Rb0  1  0.14405274  0.85594726  0.25000000  1
  Rb  Rb1  1  0.85589618  0.14410382  0.75000000  1
  Ti  Ti0  1  0.50221571  0.49778429  0.25000000  1
  Fe  Fe0  1  0.49737487  0.50262513  0.75000000  1
  Se  Se0  1  0.19402261  0.41017433  0.10763695  1
  Se  Se1  1  0.58982567  0.80597739  0.39236305  1
  Se  Se2  1  0.80523755  0.58862533  0.89881903  1
  Se  Se3  1  0.41137467  0.19476245  0.60118097  1
loop_
_geom_bond_atom_site_label_1
_geom_bond_atom_site_label_2
_geom_bond_distance
_geom_bond_site_symmetry_2
Rb0 Se3 3.605146 1_564
Rb0 Se2 3.605146 1_455
Rb0 Se2 3.635194 1_454
Rb0 Se3 3.635194 1_565
Rb0 Se1 3.657187 1_555
Rb0 Se0 3.657187 1_555
Rb0 Se0 3.793691 1_565
Rb0 Se1 3.793691 1_455
Rb1 Se1 3.574254 1_546
Rb1 Se0 3.574254 1_655
Rb1 Se0 3.659032 1_656
Rb1 Se1 3.659032 1_545
Rb1 Se3 3.664842 1_555
Rb1 Se2 3.664842 1_555
Rb1 Se2 3.800136 1_545
Rb1 Se3 3.800136 1_655
Fe0 Se2 2.425065 1_555
Fe0 Se3 2.425065 1_555
Fe0 Se1 2.428227 1_555
Fe0 Se0 2.428227 1_556
Se0 Ti0 2.404497 1_555
Se1 Ti0 2.404497 1_555
Se2 Ti0 2.407661 1_556
Se3 Ti0 2.407661 1_555
