# generated using pymatgen
data_P2S2O3
_symmetry_space_group_name_H-M   'P 1'
_cell_length_a   9.40009831
_cell_length_b   9.40011863
_cell_length_c   9.39812990
_cell_angle_alpha   122.18345093
_cell_angle_beta   122.18437124
_cell_angle_gamma   86.26995945
_symmetry_Int_Tables_number   1
_chemical_formula_structural   P2S2O3
_chemical_formula_sum   'P8 S8 O12'
_cell_volume   566.44933857
_cell_formula_units_Z   4
loop_
 _symmetry_equiv_pos_site_id
 _symmetry_equiv_pos_as_xyz
  1  'x, y, z'
loop_
 _atom_site_type_symbol
 _atom_site_label
 _atom_site_symmetry_multiplicity
 _atom_site_fract_x
 _atom_site_fract_y
 _atom_site_fract_z
 _atom_site_occupancy
  P  P0  1  0.02495257  0.71965495  0.39197365  1
  P  P1  1  0.32767076  0.63297792  0.60802420  1
  P  P2  1  0.52490214  0.13288359  0.30521793  1
  P  P3  1  0.28031202  0.67233631  0.30522473  1
  P  P4  1  0.36711529  0.97508319  0.69477043  1
  P  P5  1  0.78034631  0.47505364  0.60802833  1
  P  P6  1  0.86702529  0.17232522  0.39197247  1
  P  P7  1  0.82767038  0.21968804  0.69478723  1
  S  S0  1  0.78585819  0.68691421  0.27653084  1
  S  S1  1  0.91044533  0.18705608  0.90125382  1
  S  S2  1  0.31294510  0.58955803  0.09874785  1
  S  S3  1  0.49082878  0.21418958  0.90125811  1
  S  S4  1  0.81308657  0.71413307  0.72346168  1
  S  S5  1  0.99067288  0.08963511  0.27654105  1
  S  S6  1  0.28580534  0.00918284  0.09874990  1
  S  S7  1  0.41036843  0.50932541  0.72346288  1
  O  O0  1  0.12144087  0.62145038  0.49999518  1
  O  O1  1  0.84252172  0.41918397  0.76293684  1
  O  O2  1  0.65625333  0.07959026  0.23707149  1
  O  O3  1  0.58082044  0.34365493  0.42330599  1
  O  O4  1  0.34248391  0.57964868  0.42330932  1
  O  O5  1  0.15634538  0.91917638  0.57668625  1
  O  O6  1  0.92035198  0.15751469  0.57669176  1
  O  O7  1  0.42040730  0.84374167  0.76292639  1
  O  O8  1  0.37860605  0.87860124  0.49999565  1
  O  O9  1  0.87854874  0.37855652  0.50000339  1
  O  O10  1  0.62139840  0.12140393  0.50000808  1
  O  O11  1  0.08081549  0.65748016  0.23706357  1
loop_
_geom_bond_atom_site_label_1
_geom_bond_atom_site_label_2
_geom_bond_distance
_geom_bond_site_symmetry_2
P0 S0 1.860052 1_455
P1 S7 1.860032 1_555
P2 S6 1.859919 1_555
P3 S2 1.860020 1_555
P4 S3 1.860029 1_565
P5 S4 1.859958 1_555
P6 S5 1.859951 1_555
P7 S1 1.859914 1_555
O0 P0 1.616769 1_555
O0 P1 1.616806 1_555
O1 P5 1.614007 1_555
O1 P7 1.614231 1_555
O2 P6 1.613967 1_555
O2 P2 1.614249 1_555
O3 P2 1.614045 1_555
O3 P5 1.614230 1_555
O4 P3 1.614037 1_555
O4 P1 1.614213 1_555
O5 P4 1.614016 1_555
O5 P0 1.614195 1_555
O6 P7 1.614079 1_555
O6 P6 1.614235 1_555
O7 P1 1.613925 1_555
O7 P4 1.614212 1_555
O8 P3 1.616896 1_555
O8 P4 1.616902 1_555
O9 P5 1.616802 1_555
O9 P6 1.616843 1_555
O10 P7 1.616930 1_555
O10 P2 1.616940 1_555
O11 P0 1.613984 1_555
O11 P3 1.614192 1_555
