# generated using pymatgen
data_Sc4TcOs7
_symmetry_space_group_name_H-M   'P 1'
_cell_length_a   5.22847107
_cell_length_b   5.14423026
_cell_length_c   8.62046799
_cell_angle_alpha   90.00000000
_cell_angle_beta   90.00000000
_cell_angle_gamma   120.54320774
_symmetry_Int_Tables_number   1
_chemical_formula_structural   Sc4TcOs7
_chemical_formula_sum   'Sc4 Tc1 Os7'
_cell_volume   199.68859312
_cell_formula_units_Z   1
loop_
 _symmetry_equiv_pos_site_id
 _symmetry_equiv_pos_as_xyz
  1  'x, y, z'
loop_
 _atom_site_type_symbol
 _atom_site_label
 _atom_site_symmetry_multiplicity
 _atom_site_fract_x
 _atom_site_fract_y
 _atom_site_fract_z
 _atom_site_occupancy
  Sc  Sc0  1  0.33364513  0.66729126  0.43295546  1
  Sc  Sc1  1  0.66855998  0.33711797  0.56560820  1
  Sc  Sc2  1  0.66855998  0.33711797  0.93439180  1
  Sc  Sc3  1  0.33364513  0.66729126  0.06704454  1
  Tc  Tc0  1  0.17005910  0.34011620  0.75000000  1
  Os  Os0  1  0.17102822  0.82199504  0.75000000  1
  Os  Os1  1  0.34083890  0.16731652  0.25000000  1
  Os  Os2  1  0.82387405  0.64774910  0.25000000  1
  Os  Os3  1  0.65096882  0.82199504  0.75000000  1
  Os  Os4  1  0.00617253  0.01234606  0.99992185  1
  Os  Os5  1  0.82647762  0.16731652  0.25000000  1
  Os  Os6  1  0.00617253  0.01234606  0.50007815  1
loop_
_geom_bond_atom_site_label_1
_geom_bond_atom_site_label_2
_geom_bond_distance
_geom_bond_site_symmetry_2
Sc0 Tc0 3.093675 1_555
Sc1 Tc0 3.059584 1_655
Sc1 Tc0 3.059584 1_555
Sc2 Tc0 3.059584 1_655
Sc2 Tc0 3.059584 1_555
Sc3 Tc0 3.093675 1_554
Os0 Tc0 2.476325 1_555
Os0 Os3 2.509356 1_555
Os0 Tc0 2.667913 1_565
Os0 Os4 2.683518 1_565
Os0 Os6 2.683518 1_565
Os0 Os3 2.719116 1_455
Os0 Sc2 2.998317 1_455
Os0 Sc1 2.998317 1_455
Os0 Sc2 3.051134 1_565
Os0 Sc1 3.051134 1_565
Os0 Sc3 3.084423 1_556
Os0 Sc0 3.084423 1_555
Os1 Os2 2.478398 1_555
Os1 Os5 2.539148 1_555
Os1 Os6 2.631912 1_555
Os1 Os4 2.631912 1_554
Os1 Os2 2.665885 1_445
Os1 Os5 2.689323 1_455
Os1 Sc0 3.001161 1_545
Os1 Sc3 3.001161 1_545
Os1 Sc0 3.033527 1_555
Os1 Sc3 3.033527 1_555
Os1 Sc1 3.095147 1_555
Os1 Sc2 3.095147 1_554
Os2 Os5 2.478401 1_555
Os2 Os5 2.665882 1_565
Os2 Os6 2.693830 1_665
Os2 Os4 2.693830 1_664
Os2 Sc1 3.048964 1_555
Os2 Sc2 3.048964 1_554
Os2 Sc0 3.054368 1_655
Os2 Sc3 3.054368 1_655
Os2 Sc0 3.054368 1_555
Os2 Sc3 3.054368 1_555
Os3 Tc0 2.476324 1_555
Os3 Tc0 2.667913 1_665
Os3 Os4 2.683510 1_665
Os3 Os6 2.683510 1_665
Os3 Sc2 2.998318 1_555
Os3 Sc1 2.998318 1_555
Os3 Sc2 3.051134 1_565
Os3 Sc1 3.051134 1_565
Os3 Sc3 3.084429 1_556
Os3 Sc0 3.084429 1_555
Os4 Tc0 2.598157 1_555
Os4 Os5 2.631909 1_456
Os4 Sc3 2.958831 1_556
Os4 Sc2 3.037053 1_455
Os4 Sc2 3.037066 1_555
Os4 Sc2 3.044431 1_445
Os4 Sc3 3.083198 1_446
Os4 Sc3 3.083198 1_546
Os5 Os6 2.631909 1_655
Os5 Sc0 3.001163 1_545
Os5 Sc3 3.001163 1_545
Os5 Sc0 3.033524 1_655
Os5 Sc3 3.033524 1_655
Os5 Sc1 3.095143 1_555
Os5 Sc2 3.095143 1_554
Os6 Tc0 2.598157 1_555
Os6 Sc0 2.958831 1_555
Os6 Sc1 3.037053 1_455
Os6 Sc1 3.037066 1_555
Os6 Sc1 3.044431 1_445
Os6 Sc0 3.083198 1_445
Os6 Sc0 3.083198 1_545
