# generated using pymatgen
data_Ba2H6Au
_symmetry_space_group_name_H-M   'P 1'
_cell_length_a   7.84371004
_cell_length_b   7.84370988
_cell_length_c   6.06970196
_cell_angle_alpha   90.00000000
_cell_angle_beta   90.00000000
_cell_angle_gamma   134.45221711
_symmetry_Int_Tables_number   1
_chemical_formula_structural   Ba2H6Au
_chemical_formula_sum   'Ba4 H12 Au2'
_cell_volume   266.56805139
_cell_formula_units_Z   2
loop_
 _symmetry_equiv_pos_site_id
 _symmetry_equiv_pos_as_xyz
  1  'x, y, z'
loop_
 _atom_site_type_symbol
 _atom_site_label
 _atom_site_symmetry_multiplicity
 _atom_site_fract_x
 _atom_site_fract_y
 _atom_site_fract_z
 _atom_site_occupancy
  Ba  Ba0  1  0.35582585  0.64417415  0.00000000  1
  Ba  Ba1  1  0.85582585  0.14417415  0.50000000  1
  Ba  Ba2  1  0.64417415  0.35582585  0.00000000  1
  Ba  Ba3  1  0.14417415  0.85582585  0.50000000  1
  H  H0  1  0.00079964  0.50079964  0.25000000  1
  H  H1  1  0.49920036  0.99920036  0.75000000  1
  H  H2  1  0.99920036  0.49920036  0.75000000  1
  H  H3  1  0.50079964  0.00079964  0.25000000  1
  H  H4  1  0.11622604  0.88377396  0.00000000  1
  H  H5  1  0.61622604  0.38377396  0.50000000  1
  H  H6  1  0.88377396  0.11622604  0.00000000  1
  H  H7  1  0.38377396  0.61622604  0.50000000  1
  H  H8  1  0.79232094  0.79232094  0.20559696  1
  H  H9  1  0.20767906  0.20767906  0.79440304  1
  H  H10  1  0.70767906  0.70767906  0.70559696  1
  H  H11  1  0.29232094  0.29232094  0.29440304  1
  Au  Au0  1  0.00000000  0.00000000  0.00000000  1
  Au  Au1  1  0.50000000  0.50000000  0.50000000  1
loop_
_geom_bond_atom_site_label_1
_geom_bond_atom_site_label_2
_geom_bond_distance
_geom_bond_site_symmetry_2
Ba0 H1 2.633564 1_554
Ba0 H0 2.633564 1_555
Ba0 H3 2.639156 1_565
Ba0 H2 2.639156 1_454
Ba0 H9 3.009525 1_554
Ba0 H8 3.009525 1_555
Ba0 H11 3.022001 1_555
Ba0 H10 3.022002 1_554
Ba0 H7 3.061657 1_554
Ba0 H7 3.061657 1_555
Ba0 H6 3.063058 1_455
Ba0 H6 3.063058 1_565
Ba1 H2 2.633564 1_555
Ba1 H3 2.633564 1_555
Ba1 H0 2.639156 1_655
Ba1 H1 2.639156 1_545
Ba1 H10 3.009525 1_545
Ba1 H11 3.009525 1_655
Ba1 H8 3.022001 1_545
Ba1 H9 3.022002 1_655
Ba1 H6 3.061657 1_555
Ba1 H6 3.061657 1_556
Ba1 H7 3.063058 1_545
Ba1 H7 3.063058 1_655
Ba2 H3 2.633564 1_555
Ba2 H2 2.633564 1_554
Ba2 H1 2.639156 1_544
Ba2 H0 2.639156 1_655
Ba2 H8 3.009525 1_555
Ba2 H9 3.009525 1_554
Ba2 H10 3.022001 1_554
Ba2 H11 3.022002 1_555
Ba2 H5 3.061657 1_555
Ba2 H5 3.061657 1_554
Ba2 H4 3.063058 1_655
Ba2 H4 3.063058 1_545
Ba3 H0 2.633564 1_555
Ba3 H1 2.633564 1_555
Ba3 H2 2.639156 1_455
Ba3 H3 2.639156 1_565
Ba3 H11 3.009525 1_565
Ba3 H10 3.009525 1_455
Ba3 H9 3.022001 1_565
Ba3 H8 3.022002 1_455
Ba3 H4 3.061657 1_555
Ba3 H4 3.061657 1_556
Ba3 H5 3.063058 1_565
Ba3 H5 3.063058 1_455
Au0 H4 1.681143 1_545
Au0 H6 1.681143 1_455
Au0 H8 1.774191 1_445
Au0 H9 1.774191 1_554
Au1 H7 1.681143 1_555
Au1 H5 1.681143 1_555
Au1 H10 1.774191 1_555
Au1 H11 1.774191 1_555
