# generated using pymatgen
data_Rb2NaMnAs2
_symmetry_space_group_name_H-M   'P 1'
_cell_length_a   9.07111074
_cell_length_b   9.07070098
_cell_length_c   9.06817192
_cell_angle_alpha   137.00852763
_cell_angle_beta   134.97552608
_cell_angle_gamma   63.98917302
_symmetry_Int_Tables_number   1
_chemical_formula_structural   Rb2NaMnAs2
_chemical_formula_sum   'Rb4 Na2 Mn2 As4'
_cell_volume   355.12725180
_cell_formula_units_Z   2
loop_
 _symmetry_equiv_pos_site_id
 _symmetry_equiv_pos_as_xyz
  1  'x, y, z'
loop_
 _atom_site_type_symbol
 _atom_site_label
 _atom_site_symmetry_multiplicity
 _atom_site_fract_x
 _atom_site_fract_y
 _atom_site_fract_z
 _atom_site_occupancy
  Rb  Rb0  1  0.08837301  0.32570474  0.76286820  1
  Rb  Rb1  1  0.43695213  0.17437865  0.26256204  1
  Rb  Rb2  1  0.91162699  0.67429526  0.23713180  1
  Rb  Rb3  1  0.56304787  0.82562135  0.73743796  1
  Na  Na0  1  0.50002942  0.75001951  0.25006488  1
  Na  Na1  1  0.49997058  0.24998049  0.74993512  1
  Mn  Mn0  1  0.00009064  0.75005533  0.74999196  1
  Mn  Mn1  1  0.99990936  0.24994467  0.25000804  1
  As  As0  1  0.11795502  0.91404930  0.20403169  1
  As  As1  1  0.88204498  0.08595070  0.79596831  1
  As  As2  1  0.28993125  0.58598666  0.70381180  1
  As  As3  1  0.71006875  0.41401334  0.29618820  1
loop_
_geom_bond_atom_site_label_1
_geom_bond_atom_site_label_2
_geom_bond_distance
_geom_bond_site_symmetry_2
As0 Mn1 2.552402 1_465
As0 Mn0 2.553510 1_554
As0 Na0 2.956454 1_555
As0 Na1 2.956997 1_565
As0 Rb3 3.514633 1_454
As0 Rb0 3.613465 1_565
As0 Rb0 3.614210 1_554
As0 Rb2 3.693455 1_455
As1 Mn0 2.552402 1_645
As1 Mn1 2.553510 1_556
As1 Na1 2.956454 1_555
As1 Na0 2.956997 1_545
As1 Rb1 3.514633 1_656
As1 Rb2 3.613465 1_545
As1 Rb2 3.614210 1_556
As1 Rb0 3.693455 1_655
As2 Mn0 2.552565 1_555
As2 Mn1 2.554623 1_455
As2 Na1 2.956247 1_555
As2 Na0 2.956875 1_556
As2 Rb2 3.513700 1_455
As2 Rb1 3.612521 1_555
As2 Rb1 3.614760 1_566
As2 Rb3 3.693415 1_555
As3 Mn1 2.552565 1_555
As3 Mn0 2.554623 1_655
As3 Na0 2.956247 1_555
As3 Na1 2.956875 1_554
As3 Rb0 3.513700 1_655
As3 Rb3 3.612521 1_555
As3 Rb3 3.614760 1_544
As3 Rb1 3.693415 1_555
