# generated using pymatgen
data_MgOs2F12
_symmetry_space_group_name_H-M   'P 1'
_cell_length_a   5.39756159
_cell_length_b   10.80692547
_cell_length_c   5.42388016
_cell_angle_alpha   54.92802178
_cell_angle_beta   55.34411763
_cell_angle_gamma   55.62821251
_symmetry_Int_Tables_number   1
_chemical_formula_structural   MgOs2F12
_chemical_formula_sum   'Mg1 Os2 F12'
_cell_volume   199.26421195
_cell_formula_units_Z   1
loop_
 _symmetry_equiv_pos_site_id
 _symmetry_equiv_pos_as_xyz
  1  'x, y, z'
loop_
 _atom_site_type_symbol
 _atom_site_label
 _atom_site_symmetry_multiplicity
 _atom_site_fract_x
 _atom_site_fract_y
 _atom_site_fract_z
 _atom_site_occupancy
  Mg  Mg0  1  0.50000000  0.75000000  0.50000000  1
  Os  Os0  1  0.00831715  0.00661370  0.98260310  1
  Os  Os1  1  0.99168285  0.49338630  0.01739690  1
  F  F0  1  0.38802347  0.04809208  0.75490453  1
  F  F1  1  0.36732847  0.55858503  0.76155384  1
  F  F2  1  0.09032058  0.38265618  0.38519738  1
  F  F3  1  0.11940832  0.87668692  0.36994986  1
  F  F4  1  0.22903833  0.31306974  0.90903085  1
  F  F5  1  0.24715178  0.81118005  0.88300469  1
  F  F6  1  0.90967942  0.11734382  0.61480262  1
  F  F7  1  0.88059168  0.62331308  0.63005014  1
  F  F8  1  0.61197653  0.45190792  0.24509547  1
  F  F9  1  0.63267153  0.94141497  0.23844616  1
  F  F10  1  0.77096167  0.18693026  0.09096915  1
  F  F11  1  0.75284822  0.68881995  0.11699531  1
loop_
_geom_bond_atom_site_label_1
_geom_bond_atom_site_label_2
_geom_bond_distance
_geom_bond_site_symmetry_2
F0 Os0 1.857162 1_555
F1 Os1 1.955171 1_456
F1 Mg0 1.987269 1_555
F2 Os1 1.854783 1_455
F3 Os0 1.958808 1_564
F3 Mg0 1.988592 1_555
F4 Os1 1.850699 1_456
F5 Os0 1.964513 1_565
F5 Mg0 1.987565 1_555
F6 Os0 1.854783 1_655
F7 Os1 1.958808 1_556
F7 Mg0 1.988592 1_555
F8 Os1 1.857162 1_555
F9 Os0 1.955171 1_664
F9 Mg0 1.987269 1_555
F10 Os0 1.850699 1_654
F11 Os1 1.964513 1_555
F11 Mg0 1.987565 1_555
