# generated using pymatgen
data_CsNaSi2Se5
_symmetry_space_group_name_H-M   'P 1'
_cell_length_a   10.09712161
_cell_length_b   10.09712229
_cell_length_c   11.31633871
_cell_angle_alpha   90.00000000
_cell_angle_beta   90.00000000
_cell_angle_gamma   91.36289641
_symmetry_Int_Tables_number   1
_chemical_formula_structural   CsNaSi2Se5
_chemical_formula_sum   'Cs4 Na4 Si8 Se20'
_cell_volume   1153.39552653
_cell_formula_units_Z   4
loop_
 _symmetry_equiv_pos_site_id
 _symmetry_equiv_pos_as_xyz
  1  'x, y, z'
loop_
 _atom_site_type_symbol
 _atom_site_label
 _atom_site_symmetry_multiplicity
 _atom_site_fract_x
 _atom_site_fract_y
 _atom_site_fract_z
 _atom_site_occupancy
  Cs  Cs0  1  0.56149746  0.11435474  0.75000000  1
  Cs  Cs1  1  0.43850254  0.88564526  0.25000000  1
  Cs  Cs2  1  0.88564526  0.43850254  0.75000000  1
  Cs  Cs3  1  0.11435474  0.56149746  0.25000000  1
  Na  Na0  1  0.14852810  0.14852810  0.50000000  1
  Na  Na1  1  0.85147190  0.85147190  0.00000000  1
  Na  Na2  1  0.85147190  0.85147190  0.50000000  1
  Na  Na3  1  0.14852810  0.14852810  0.00000000  1
  Si  Si0  1  0.54400469  0.71685724  0.75000000  1
  Si  Si1  1  0.45599531  0.28314276  0.25000000  1
  Si  Si2  1  0.28314276  0.45599531  0.75000000  1
  Si  Si3  1  0.71685724  0.54400469  0.25000000  1
  Si  Si4  1  0.22948672  0.77051328  0.91121278  1
  Si  Si5  1  0.77051328  0.22948672  0.41121278  1
  Si  Si6  1  0.22948672  0.77051328  0.58878722  1
  Si  Si7  1  0.77051328  0.22948672  0.08878722  1
  Se  Se0  1  0.77254274  0.75605451  0.25000000  1
  Se  Se1  1  0.22745726  0.24394549  0.75000000  1
  Se  Se2  1  0.24394549  0.22745726  0.25000000  1
  Se  Se3  1  0.75605451  0.77254274  0.75000000  1
  Se  Se4  1  0.13873440  0.86126560  0.06697274  1
  Se  Se5  1  0.86126560  0.13873440  0.56697274  1
  Se  Se6  1  0.13873440  0.86126560  0.43302726  1
  Se  Se7  1  0.86126560  0.13873440  0.93302726  1
  Se  Se8  1  0.13397519  0.86602481  0.75000000  1
  Se  Se9  1  0.86602481  0.13397519  0.25000000  1
  Se  Se10  1  0.54506376  0.18889523  0.08294414  1
  Se  Se11  1  0.45493624  0.81110477  0.58294414  1
  Se  Se12  1  0.81110477  0.45493624  0.41705586  1
  Se  Se13  1  0.18889523  0.54506376  0.91705586  1
  Se  Se14  1  0.45493624  0.81110477  0.91705586  1
  Se  Se15  1  0.54506376  0.18889523  0.41705586  1
  Se  Se16  1  0.18889523  0.54506376  0.58294414  1
  Se  Se17  1  0.81110477  0.45493624  0.08294414  1
  Se  Se18  1  0.50924430  0.49075570  0.75000000  1
  Se  Se19  1  0.49075570  0.50924430  0.25000000  1
loop_
_geom_bond_atom_site_label_1
_geom_bond_atom_site_label_2
_geom_bond_distance
_geom_bond_site_symmetry_2
Cs0 Se1 3.646667 1_555
Cs0 Se7 3.671036 1_555
Cs0 Se5 3.671036 1_555
Cs0 Se14 3.735019 1_545
Cs0 Se11 3.735019 1_545
Cs0 Se10 3.846502 1_556
Cs0 Se15 3.846502 1_555
Cs0 Se18 3.849424 1_555
Cs0 Se3 4.011638 1_545
Cs1 Se0 3.646667 1_555
Cs1 Se6 3.671036 1_555
Cs1 Se4 3.671036 1_555
Cs1 Se15 3.735019 1_565
Cs1 Se10 3.735019 1_565
Cs1 Se11 3.846502 1_555
Cs1 Se14 3.846502 1_554
Cs1 Se19 3.849424 1_555
Cs1 Se2 4.011638 1_565
Cs2 Se3 3.646667 1_555
Cs2 Se7 3.671036 1_555
Cs2 Se5 3.671036 1_555
Cs2 Se13 3.735019 1_655
Cs2 Se16 3.735019 1_655
Cs2 Se17 3.846502 1_556
Cs2 Se12 3.846502 1_555
Cs2 Se18 3.849423 1_555
Cs2 Se1 4.011638 1_655
Cs3 Se2 3.646667 1_555
Cs3 Se6 3.671036 1_555
Cs3 Se4 3.671036 1_555
Cs3 Se12 3.735019 1_455
Cs3 Se17 3.735019 1_455
Cs3 Se16 3.846502 1_555
Cs3 Se13 3.846502 1_554
Cs3 Se19 3.849423 1_555
Cs3 Se0 4.011638 1_455
Na0 Se5 2.997260 1_455
Na0 Se6 2.997260 1_545
Na0 Se2 3.087160 1_555
Na0 Se1 3.087160 1_555
Na1 Se4 2.997260 1_655
Na1 Se7 2.997260 1_564
Na1 Se3 3.087160 1_554
Na1 Se0 3.087160 1_555
Na2 Se6 2.997260 1_655
Na2 Se5 2.997260 1_565
Na2 Se3 3.087160 1_555
Na2 Se0 3.087160 1_555
Na3 Se7 2.997260 1_454
Na3 Se4 2.997260 1_545
Na3 Se2 3.087160 1_555
Na3 Se1 3.087160 1_554
Se0 Si3 2.200716 1_555
Se1 Si2 2.200716 1_555
Se2 Si1 2.200716 1_555
Se3 Si0 2.200716 1_555
Se4 Si4 2.196853 1_554
Se5 Si5 2.196853 1_555
Se6 Si6 2.196853 1_555
Se7 Si7 2.196853 1_556
Se8 Si4 2.287478 1_555
Se8 Si6 2.287478 1_555
Se9 Si5 2.287478 1_555
Se9 Si7 2.287478 1_555
Se10 Si7 2.304329 1_555
Se10 Si1 2.308453 1_555
Se11 Si6 2.304329 1_555
Se11 Si0 2.308453 1_555
Se12 Si5 2.304329 1_555
Se12 Si3 2.308453 1_555
Se13 Si4 2.304329 1_555
Se13 Si2 2.308453 1_555
Se14 Si4 2.304329 1_555
Se14 Si0 2.308453 1_555
Se15 Si5 2.304329 1_555
Se15 Si1 2.308453 1_555
Se16 Si6 2.304329 1_555
Se16 Si2 2.308453 1_555
Se17 Si7 2.304329 1_555
Se17 Si3 2.308453 1_555
Se18 Si2 2.301531 1_555
Se18 Si0 2.301531 1_555
Se19 Si3 2.301531 1_555
Se19 Si1 2.301531 1_555
