# generated using pymatgen
data_PrSO
_symmetry_space_group_name_H-M   'P 1'
_cell_length_a   6.04564600
_cell_length_b   5.86666100
_cell_length_c   6.56263686
_cell_angle_alpha   76.91115283
_cell_angle_beta   90.00000000
_cell_angle_gamma   90.00000000
_symmetry_Int_Tables_number   1
_chemical_formula_structural   PrSO
_chemical_formula_sum   'Pr4 S4 O4'
_cell_volume   226.71485933
_cell_formula_units_Z   4
loop_
 _symmetry_equiv_pos_site_id
 _symmetry_equiv_pos_as_xyz
  1  'x, y, z'
loop_
 _atom_site_type_symbol
 _atom_site_label
 _atom_site_symmetry_multiplicity
 _atom_site_fract_x
 _atom_site_fract_y
 _atom_site_fract_z
 _atom_site_occupancy
  Pr  Pr0  1  0.99622600  0.71098300  0.67507400  1
  Pr  Pr1  1  0.00377400  0.28901700  0.32492600  1
  Pr  Pr2  1  0.50377400  0.21098300  0.67507400  1
  Pr  Pr3  1  0.49622600  0.78901700  0.32492600  1
  S  S0  1  0.93520400  0.84483300  0.09214900  1
  S  S1  1  0.56479600  0.34483300  0.09214900  1
  S  S2  1  0.06479600  0.15516700  0.90785100  1
  S  S3  1  0.43520400  0.65516700  0.90785100  1
  O  O0  1  0.75172300  0.50581700  0.50508500  1
  O  O1  1  0.74827700  0.00581700  0.50508500  1
  O  O2  1  0.25172300  0.99418300  0.49491500  1
  O  O3  1  0.24827700  0.49418300  0.49491500  1
loop_
_geom_bond_atom_site_label_1
_geom_bond_atom_site_label_2
_geom_bond_distance
_geom_bond_site_symmetry_2
Pr0 S0 3.036113 1_556
Pr0 S3 3.042619 1_655
Pr0 S2 3.298800 1_655
Pr1 S2 3.036113 1_554
Pr1 S1 3.042619 1_455
Pr1 S0 3.298800 1_455
Pr2 S1 3.036113 1_556
Pr2 S2 3.042619 1_555
Pr2 S3 3.298800 1_545
Pr3 S3 3.036113 1_554
Pr3 S0 3.042619 1_555
Pr3 S1 3.298800 1_565
S0 S2 2.096186 1_664
S1 S3 2.096186 1_554
O0 Pr0 2.342314 1_555
O0 Pr2 2.368421 1_555
O0 Pr3 2.377915 1_555
O0 Pr1 2.453301 1_655
O1 Pr2 2.342314 1_555
O1 Pr0 2.368421 1_545
O1 Pr1 2.377915 1_655
O1 Pr3 2.453301 1_545
O2 Pr3 2.342314 1_555
O2 Pr1 2.368421 1_565
O2 Pr0 2.377915 1_455
O2 Pr2 2.453301 1_565
O3 Pr1 2.342314 1_555
O3 Pr3 2.368421 1_555
O3 Pr2 2.377915 1_555
O3 Pr0 2.453301 1_455
