# generated using pymatgen
data_Ba3Sr2SiBi2
_symmetry_space_group_name_H-M   'P 1'
_cell_length_a   8.92854026
_cell_length_b   10.28557448
_cell_length_c   14.58466038
_cell_angle_alpha   90.00000000
_cell_angle_beta   90.00000000
_cell_angle_gamma   90.00000000
_symmetry_Int_Tables_number   1
_chemical_formula_structural   Ba3Sr2SiBi2
_chemical_formula_sum   'Ba12 Sr8 Si4 Bi8'
_cell_volume   1339.38470602
_cell_formula_units_Z   4
loop_
 _symmetry_equiv_pos_site_id
 _symmetry_equiv_pos_as_xyz
  1  'x, y, z'
loop_
 _atom_site_type_symbol
 _atom_site_label
 _atom_site_symmetry_multiplicity
 _atom_site_fract_x
 _atom_site_fract_y
 _atom_site_fract_z
 _atom_site_occupancy
  Ba  Ba0  1  0.19036359  0.75000000  0.21068368  1
  Ba  Ba1  1  0.30963641  0.75000000  0.71068368  1
  Ba  Ba2  1  0.80963641  0.25000000  0.78931632  1
  Ba  Ba3  1  0.69036359  0.25000000  0.28931632  1
  Ba  Ba4  1  0.44569119  0.75000000  0.99954142  1
  Ba  Ba5  1  0.05430881  0.75000000  0.49954142  1
  Ba  Ba6  1  0.55430881  0.25000000  0.00045858  1
  Ba  Ba7  1  0.94569119  0.25000000  0.50045858  1
  Ba  Ba8  1  0.67259907  0.75000000  0.30968496  1
  Ba  Ba9  1  0.82740093  0.75000000  0.80968496  1
  Ba  Ba10  1  0.32740093  0.25000000  0.69031504  1
  Ba  Ba11  1  0.17259907  0.25000000  0.19031504  1
  Sr  Sr0  1  0.84928510  0.52114394  0.09085384  1
  Sr  Sr1  1  0.65071490  0.97885606  0.59085384  1
  Sr  Sr2  1  0.15071490  0.02114394  0.90914616  1
  Sr  Sr3  1  0.34928510  0.47885606  0.40914616  1
  Sr  Sr4  1  0.15071490  0.47885606  0.90914616  1
  Sr  Sr5  1  0.34928510  0.02114394  0.40914616  1
  Sr  Sr6  1  0.84928510  0.97885606  0.09085384  1
  Sr  Sr7  1  0.65071490  0.52114394  0.59085384  1
  Si  Si0  1  0.45476242  0.75000000  0.49574060  1
  Si  Si1  1  0.04523758  0.75000000  0.99574060  1
  Si  Si2  1  0.54523758  0.25000000  0.50425940  1
  Si  Si3  1  0.95476242  0.25000000  0.00425940  1
  Bi  Bi0  1  0.97502356  0.50128097  0.32732715  1
  Bi  Bi1  1  0.52497644  0.99871903  0.82732715  1
  Bi  Bi2  1  0.02497644  0.00128097  0.67267285  1
  Bi  Bi3  1  0.47502356  0.49871903  0.17267285  1
  Bi  Bi4  1  0.02497644  0.49871903  0.67267285  1
  Bi  Bi5  1  0.47502356  0.00128097  0.17267285  1
  Bi  Bi6  1  0.97502356  0.99871903  0.32732715  1
  Bi  Bi7  1  0.52497644  0.50128097  0.82732715  1
loop_
_geom_bond_atom_site_label_1
_geom_bond_atom_site_label_2
_geom_bond_distance
_geom_bond_site_symmetry_2
Ba0 Si1 3.392112 1_554
Ba0 Bi6 3.624258 1_455
Ba0 Bi0 3.624258 1_455
Ba0 Bi5 3.667022 1_565
Ba0 Bi3 3.667022 1_555
Ba1 Si0 3.392112 1_555
Ba1 Bi1 3.624258 1_555
Ba1 Bi7 3.624258 1_555
Ba1 Bi2 3.667022 1_565
Ba1 Bi4 3.667022 1_555
Ba2 Si3 3.392112 1_556
Ba2 Bi4 3.624258 1_655
Ba2 Bi2 3.624258 1_655
Ba2 Bi7 3.667022 1_555
Ba2 Bi1 3.667022 1_545
Ba3 Si2 3.392112 1_555
Ba3 Bi3 3.624258 1_555
Ba3 Bi5 3.624258 1_555
Ba3 Bi0 3.667022 1_555
Ba3 Bi6 3.667022 1_545
Ba4 Si1 3.575896 1_555
Ba4 Bi5 3.622779 1_566
Ba4 Bi3 3.622779 1_556
Ba4 Bi1 3.654336 1_555
Ba4 Bi7 3.654336 1_555
Ba5 Si0 3.575896 1_555
Ba5 Bi2 3.622779 1_565
Ba5 Bi4 3.622779 1_555
Ba5 Bi6 3.654336 1_455
Ba5 Bi0 3.654336 1_455
Ba6 Si3 3.575896 1_555
Ba6 Bi7 3.622779 1_554
Ba6 Bi1 3.622779 1_544
Ba6 Bi3 3.654336 1_555
Ba6 Bi5 3.654336 1_555
Ba7 Si2 3.575896 1_555
Ba7 Bi0 3.622779 1_555
Ba7 Bi6 3.622779 1_545
Ba7 Bi4 3.654336 1_655
Ba7 Bi2 3.654336 1_655
Ba8 Si0 3.338605 1_555
Ba8 Bi5 3.712817 1_565
Ba8 Bi3 3.712817 1_555
Ba8 Bi6 3.728514 1_555
Ba8 Bi0 3.728514 1_555
Ba9 Si1 3.338605 1_655
Ba9 Bi2 3.712817 1_665
Ba9 Bi4 3.712817 1_655
Ba9 Bi1 3.728514 1_555
Ba9 Bi7 3.728514 1_555
Ba10 Si2 3.338605 1_555
Ba10 Bi7 3.712817 1_555
Ba10 Bi1 3.712817 1_545
Ba10 Bi4 3.728514 1_555
Ba10 Bi2 3.728514 1_555
Ba11 Si3 3.338605 1_455
Ba11 Bi0 3.712817 1_455
Ba11 Bi6 3.712817 1_445
Ba11 Bi3 3.728514 1_555
Ba11 Bi5 3.728514 1_555
Si0 Sr5 3.203085 1_565
Si0 Sr3 3.203085 1_555
Si0 Sr1 3.244414 1_555
Si0 Sr7 3.244414 1_555
Si1 Sr2 3.203085 1_565
Si1 Sr4 3.203085 1_555
Si1 Sr6 3.244414 1_456
Si1 Sr0 3.244414 1_456
Si2 Sr7 3.203085 1_555
Si2 Sr1 3.203085 1_545
Si2 Sr3 3.244414 1_555
Si2 Sr5 3.244414 1_555
Si3 Sr0 3.203085 1_555
Si3 Sr6 3.203085 1_545
Si3 Sr4 3.244414 1_654
Si3 Sr2 3.244414 1_654
Bi0 Sr3 3.555773 1_655
Bi0 Sr0 3.632754 1_555
Bi1 Sr2 3.555773 1_565
Bi1 Sr1 3.632754 1_555
Bi2 Sr1 3.555773 1_445
Bi2 Sr2 3.632754 1_555
Bi3 Sr0 3.555773 1_555
Bi3 Sr3 3.632754 1_555
Bi4 Sr7 3.555773 1_455
Bi4 Sr4 3.632754 1_555
Bi5 Sr6 3.555773 1_545
Bi5 Sr5 3.632754 1_555
Bi6 Sr5 3.555773 1_665
Bi6 Sr6 3.632754 1_555
Bi7 Sr4 3.555773 1_555
Bi7 Sr7 3.632754 1_555
