# generated using pymatgen
data_Lu3TcB7
_symmetry_space_group_name_H-M   'P 1'
_cell_length_a   7.88955890
_cell_length_b   7.88955880
_cell_length_c   9.18307795
_cell_angle_alpha   90.00000000
_cell_angle_beta   90.00000000
_cell_angle_gamma   154.59554762
_symmetry_Int_Tables_number   1
_chemical_formula_structural   Lu3TcB7
_chemical_formula_sum   'Lu6 Tc2 B14'
_cell_volume   245.22028761
_cell_formula_units_Z   2
loop_
 _symmetry_equiv_pos_site_id
 _symmetry_equiv_pos_as_xyz
  1  'x, y, z'
loop_
 _atom_site_type_symbol
 _atom_site_label
 _atom_site_symmetry_multiplicity
 _atom_site_fract_x
 _atom_site_fract_y
 _atom_site_fract_z
 _atom_site_occupancy
  Lu  Lu0  1  0.75819501  0.24180499  0.25000000  1
  Lu  Lu1  1  0.24180499  0.75819501  0.75000000  1
  Lu  Lu2  1  0.89494248  0.10505752  0.55851778  1
  Lu  Lu3  1  0.10505752  0.89494248  0.44148222  1
  Lu  Lu4  1  0.10505752  0.89494248  0.05851778  1
  Lu  Lu5  1  0.89494248  0.10505752  0.94148222  1
  Tc  Tc0  1  0.94763192  0.05236808  0.25000000  1
  Tc  Tc1  1  0.05236808  0.94763192  0.75000000  1
  B  B0  1  0.54739568  0.45260432  0.25000000  1
  B  B1  1  0.45260432  0.54739568  0.75000000  1
  B  B2  1  0.51917927  0.48082073  0.90504867  1
  B  B3  1  0.48082073  0.51917927  0.09495133  1
  B  B4  1  0.48082073  0.51917927  0.40504867  1
  B  B5  1  0.51917927  0.48082073  0.59495133  1
  B  B6  1  0.63218459  0.36781541  0.84961134  1
  B  B7  1  0.36781541  0.63218459  0.15038866  1
  B  B8  1  0.72776907  0.27223093  0.96568097  1
  B  B9  1  0.27223093  0.72776907  0.03431903  1
  B  B10  1  0.27223093  0.72776907  0.46568097  1
  B  B11  1  0.72776907  0.27223093  0.53431903  1
  B  B12  1  0.63218459  0.36781541  0.65038866  1
  B  B13  1  0.36781541  0.63218459  0.34961134  1
loop_
_geom_bond_atom_site_label_1
_geom_bond_atom_site_label_2
_geom_bond_distance
_geom_bond_site_symmetry_2
Lu0 Tc0 2.915991 1_555
Lu1 Tc1 2.915991 1_555
B0 B4 1.754268 1_555
B0 B3 1.754268 1_555
B0 Tc0 2.316837 1_565
B0 Tc0 2.316837 1_455
B0 Lu3 2.624739 1_545
B0 Lu4 2.624739 1_545
B0 Lu3 2.624739 1_655
B0 Lu4 2.624739 1_655
B0 Lu0 3.244821 1_555
B1 B2 1.754268 1_555
B1 B5 1.754268 1_555
B1 Tc1 2.316837 1_545
B1 Tc1 2.316837 1_655
B1 Lu5 2.624739 1_565
B1 Lu2 2.624739 1_565
B1 Lu5 2.624739 1_455
B1 Lu2 2.624739 1_455
B1 Lu1 3.244821 1_555
B2 B6 1.812449 1_555
B2 B3 1.841138 1_556
B2 Tc1 2.301686 1_545
B2 Tc1 2.301686 1_655
B2 Lu4 2.596756 1_546
B2 Lu4 2.596756 1_656
B2 Lu5 2.603572 1_565
B2 Lu5 2.603572 1_455
B3 B7 1.812449 1_555
B3 Tc0 2.301686 1_565
B3 Tc0 2.301686 1_455
B3 Lu5 2.596756 1_564
B3 Lu5 2.596756 1_454
B3 Lu4 2.603572 1_545
B3 Lu4 2.603572 1_655
B4 B5 1.841138 1_555
B4 Tc0 2.301686 1_565
B4 Tc0 2.301686 1_455
B4 Lu2 2.596756 1_565
B4 Lu2 2.596756 1_455
B4 Lu3 2.603572 1_545
B4 Lu3 2.603572 1_655
B5 Tc1 2.301686 1_545
B5 Tc1 2.301686 1_655
B5 Lu3 2.596756 1_545
B5 Lu3 2.596756 1_655
B5 Lu2 2.603572 1_565
B5 Lu2 2.603572 1_455
B6 B8 1.816836 1_555
B6 Tc1 2.314243 1_655
B6 Tc1 2.314244 1_545
B6 Lu1 2.587178 1_545
B6 Lu1 2.587178 1_655
B6 Lu4 2.619948 1_656
B6 Lu4 2.619948 1_546
B7 B9 1.816836 1_555
B7 Tc0 2.314243 1_455
B7 Tc0 2.314244 1_565
B7 Lu0 2.587178 1_565
B7 Lu0 2.587178 1_455
B7 Lu5 2.619948 1_454
B7 Lu5 2.619948 1_564
B8 B9 1.968548 1_546
B8 B9 1.968548 1_656
B8 Lu5 2.582867 1_555
B8 Lu1 2.641781 1_545
B8 Lu1 2.641781 1_655
B8 Lu0 2.652597 1_556
B8 Lu4 2.702629 1_656
B8 Lu4 2.702630 1_546
B9 Lu4 2.582867 1_555
B9 Lu0 2.641781 1_565
B9 Lu0 2.641781 1_455
B9 Lu1 2.652597 1_554
B9 Lu5 2.702629 1_454
B9 Lu5 2.702630 1_564
B10 B13 1.816836 1_555
B10 B11 1.968548 1_565
B10 B11 1.968548 1_455
B10 Lu3 2.582867 1_555
B10 Lu0 2.641781 1_565
B10 Lu0 2.641781 1_455
B10 Lu1 2.652597 1_555
B10 Lu2 2.702629 1_455
B10 Lu2 2.702630 1_565
B11 B12 1.816836 1_555
B11 Lu2 2.582867 1_555
B11 Lu1 2.641781 1_545
B11 Lu1 2.641781 1_655
B11 Lu0 2.652597 1_555
B11 Lu3 2.702629 1_655
B11 Lu3 2.702630 1_545
B12 B5 1.812449 1_555
B12 B6 1.829477 1_555
B12 Tc1 2.314243 1_655
B12 Tc1 2.314244 1_545
B12 Lu1 2.587178 1_545
B12 Lu1 2.587178 1_655
B12 Lu3 2.619948 1_655
B12 Lu3 2.619948 1_545
B13 B4 1.812449 1_555
B13 B7 1.829477 1_555
B13 Tc0 2.314243 1_455
B13 Tc0 2.314244 1_565
B13 Lu0 2.587178 1_565
B13 Lu0 2.587178 1_455
B13 Lu2 2.619948 1_455
B13 Lu2 2.619948 1_565
