# generated using pymatgen
data_Sb4Ir3RhS4
_symmetry_space_group_name_H-M   'P 1'
_cell_length_a   6.07336797
_cell_length_b   6.07336797
_cell_length_c   6.07336797
_cell_angle_alpha   89.96373949
_cell_angle_beta   90.03626051
_cell_angle_gamma   89.96373949
_symmetry_Int_Tables_number   1
_chemical_formula_structural   Sb4Ir3RhS4
_chemical_formula_sum   'Sb4 Ir3 Rh1 S4'
_cell_volume   224.02089287
_cell_formula_units_Z   1
loop_
 _symmetry_equiv_pos_site_id
 _symmetry_equiv_pos_as_xyz
  1  'x, y, z'
loop_
 _atom_site_type_symbol
 _atom_site_label
 _atom_site_symmetry_multiplicity
 _atom_site_fract_x
 _atom_site_fract_y
 _atom_site_fract_z
 _atom_site_occupancy
  Sb  Sb0  1  0.37681891  0.37922779  0.37957803  1
  Sb  Sb1  1  0.12077221  0.62042197  0.87681891  1
  Sb  Sb2  1  0.87957803  0.12318109  0.62077221  1
  Sb  Sb3  1  0.62257954  0.87742046  0.12257954  1
  Ir  Ir0  1  0.51054103  0.48759113  0.98902064  1
  Ir  Ir1  1  0.48902064  0.98945897  0.51240887  1
  Ir  Ir2  1  0.01240887  0.01097936  0.01054103  1
  Rh  Rh0  1  0.98767147  0.51232853  0.48767147  1
  S  S0  1  0.38374148  0.11625852  0.88374148  1
  S  S1  1  0.11919045  0.88526595  0.38294332  1
  S  S2  1  0.88294332  0.38080955  0.11473405  1
  S  S3  1  0.61473405  0.61705668  0.61919045  1
loop_
_geom_bond_atom_site_label_1
_geom_bond_atom_site_label_2
_geom_bond_distance
_geom_bond_site_symmetry_2
Ir0 S3 2.462503 1_555
Ir0 S0 2.468074 1_555
Ir0 S2 2.472712 1_556
Ir0 Sb1 2.591082 1_555
Ir0 Sb0 2.592341 1_556
Ir0 Sb3 2.594258 1_556
Ir1 S1 2.462503 1_555
Ir1 S0 2.468074 1_565
Ir1 S3 2.472712 1_555
Ir1 Sb0 2.591082 1_565
Ir1 Sb2 2.592341 1_565
Ir1 Sb3 2.594258 1_555
Ir2 S2 2.462503 1_455
Ir2 S0 2.468074 1_554
Ir2 S1 2.472712 1_545
Ir2 Sb2 2.591082 1_454
Ir2 Sb1 2.592341 1_544
Ir2 Sb3 2.594258 1_445
Rh0 S1 2.484725 1_655
Rh0 S3 2.484725 1_555
Rh0 S2 2.484725 1_555
Rh0 Sb1 2.582729 1_655
Rh0 Sb0 2.582729 1_655
Rh0 Sb2 2.582729 1_555
S0 Sb3 2.510838 1_546
S1 Sb2 2.508910 1_465
S2 Sb1 2.508910 1_654
S3 Sb0 2.508910 1_555
