# generated using pymatgen
data_Sr6Li12In4N
_symmetry_space_group_name_H-M   'P 1'
_cell_length_a   9.18912668
_cell_length_b   9.18912778
_cell_length_c   9.18912706
_cell_angle_alpha   109.47121683
_cell_angle_beta   109.47121925
_cell_angle_gamma   109.47122899
_symmetry_Int_Tables_number   1
_chemical_formula_structural   Sr6Li12In4N
_chemical_formula_sum   'Sr6 Li12 In4 N1'
_cell_volume   597.31150251
_cell_formula_units_Z   1
loop_
 _symmetry_equiv_pos_site_id
 _symmetry_equiv_pos_as_xyz
  1  'x, y, z'
loop_
 _atom_site_type_symbol
 _atom_site_label
 _atom_site_symmetry_multiplicity
 _atom_site_fract_x
 _atom_site_fract_y
 _atom_site_fract_z
 _atom_site_occupancy
  Sr  Sr0  1  0.00000000  0.24452924  0.24452924  1
  Sr  Sr1  1  0.24452924  1.00000000  0.24452924  1
  Sr  Sr2  1  0.75547076  0.00000000  0.75547076  1
  Sr  Sr3  1  0.75547076  0.75547076  0.00000000  1
  Sr  Sr4  1  0.24452924  0.24452924  1.00000000  1
  Sr  Sr5  1  0.00000000  0.75547076  0.75547076  1
  Li  Li0  1  0.65819163  0.32909581  0.32909581  1
  Li  Li1  1  0.32909581  1.00000000  0.67090419  1
  Li  Li2  1  0.32909581  0.65819163  0.32909581  1
  Li  Li3  1  0.32909581  0.32909581  0.65819163  1
  Li  Li4  1  0.32909581  0.67090419  1.00000000  1
  Li  Li5  1  1.00000000  0.32909581  0.67090419  1
  Li  Li6  1  0.00000000  0.67090419  0.32909581  1
  Li  Li7  1  0.67090419  0.67090419  0.34180837  1
  Li  Li8  1  0.67090419  0.00000000  0.32909581  1
  Li  Li9  1  0.67090419  0.32909581  0.00000000  1
  Li  Li10  1  0.67090419  0.34180837  0.67090419  1
  Li  Li11  1  0.34180837  0.67090419  0.67090419  1
  In  In0  1  0.50000000  0.50000000  0.50000000  1
  In  In1  1  0.50000000  0.00000000  0.00000000  1
  In  In2  1  0.00000000  0.50000000  0.00000000  1
  In  In3  1  0.00000000  0.00000000  0.50000000  1
  N  N0  1  0.00000000  0.00000000  0.00000000  1
loop_
_geom_bond_atom_site_label_1
_geom_bond_atom_site_label_2
_geom_bond_distance
_geom_bond_site_symmetry_2
In0 Li7 2.906095 1_555
In0 Li3 2.906095 1_555
In0 Li10 2.906095 1_555
In0 Li2 2.906095 1_555
In0 Li11 2.906095 1_555
In0 Li0 2.906095 1_555
In1 Li9 2.906095 1_555
In1 Li4 2.906095 1_544
In1 Li8 2.906095 1_555
In1 Li1 2.906095 1_544
In1 Li0 2.906095 1_555
In1 Li11 2.906095 1_544
In2 Li4 2.906095 1_554
In2 Li9 2.906095 1_455
In2 Li2 2.906095 1_555
In2 Li10 2.906095 1_454
In2 Li6 2.906095 1_555
In2 Li5 2.906095 1_454
In3 Li3 2.906095 1_555
In3 Li7 2.906095 1_445
In3 Li1 2.906095 1_545
In3 Li8 2.906095 1_455
In3 Li5 2.906096 1_455
In3 Li6 2.906096 1_545
N0 Sr4 2.594624 1_554
N0 Sr3 2.594624 1_445
N0 Sr1 2.594624 1_545
N0 Sr2 2.594624 1_454
N0 Sr0 2.594624 1_555
N0 Sr5 2.594624 1_544
