# generated using pymatgen
data_V(Sb4Pd)3
_symmetry_space_group_name_H-M   'P 1'
_cell_length_a   8.23130023
_cell_length_b   8.23130030
_cell_length_c   8.23130030
_cell_angle_alpha   109.56310419
_cell_angle_beta   109.56310671
_cell_angle_gamma   109.56309931
_symmetry_Int_Tables_number   1
_chemical_formula_structural   V(Sb4Pd)3
_chemical_formula_sum   'V1 Sb12 Pd3'
_cell_volume   427.85556753
_cell_formula_units_Z   1
loop_
 _symmetry_equiv_pos_site_id
 _symmetry_equiv_pos_as_xyz
  1  'x, y, z'
loop_
 _atom_site_type_symbol
 _atom_site_label
 _atom_site_symmetry_multiplicity
 _atom_site_fract_x
 _atom_site_fract_y
 _atom_site_fract_z
 _atom_site_occupancy
  V  V0  1  0.50000000  0.50000000  0.50000000  1
  Sb  Sb0  1  0.84766574  0.65700167  0.50401167  1
  Sb  Sb1  1  0.84756979  0.34571777  0.19223079  1
  Sb  Sb2  1  0.15243021  0.65428223  0.80776921  1
  Sb  Sb3  1  0.34299833  0.49598833  0.15233426  1
  Sb  Sb4  1  0.15233426  0.34299833  0.49598833  1
  Sb  Sb5  1  0.65428223  0.80776921  0.15243021  1
  Sb  Sb6  1  0.19223079  0.84756979  0.34571777  1
  Sb  Sb7  1  0.65700167  0.50401167  0.84766574  1
  Sb  Sb8  1  0.80776921  0.15243021  0.65428223  1
  Sb  Sb9  1  0.34571777  0.19223079  0.84756979  1
  Sb  Sb10  1  0.50401167  0.84766574  0.65700167  1
  Sb  Sb11  1  0.49598833  0.15233426  0.34299833  1
  Pd  Pd0  1  0.00000000  0.00000000  0.50000000  1
  Pd  Pd1  1  0.00000000  0.50000000  0.00000000  1
  Pd  Pd2  1  0.50000000  0.00000000  0.00000000  1
loop_
_geom_bond_atom_site_label_1
_geom_bond_atom_site_label_2
_geom_bond_distance
_geom_bond_site_symmetry_2
Sb0 V0 2.700404 1_555
Sb0 Sb2 2.901687 1_655
Sb0 Sb1 2.957203 1_555
Sb1 Sb4 2.901687 1_655
Sb2 Sb4 2.957203 1_555
Sb3 V0 2.700404 1_555
Sb3 Sb9 2.901688 1_554
Sb3 Sb5 2.957203 1_555
Sb4 V0 2.700404 1_555
Sb5 Sb7 2.901688 1_554
Sb7 V0 2.700404 1_555
Sb7 Sb9 2.957203 1_555
Sb10 V0 2.700404 1_555
Sb10 Sb8 2.901688 1_565
Sb10 Sb6 2.957202 1_555
Sb11 V0 2.700404 1_555
Sb11 Sb6 2.901688 1_545
Sb11 Sb8 2.957202 1_555
Pd0 Sb0 2.695155 1_445
Pd0 Sb4 2.695155 1_555
Pd0 Sb5 2.699531 1_445
Pd0 Sb9 2.699531 1_555
Pd0 Sb8 2.701648 1_455
Pd0 Sb6 2.701648 1_545
Pd1 Sb3 2.695155 1_555
Pd1 Sb7 2.695155 1_454
Pd1 Sb6 2.699531 1_555
Pd1 Sb8 2.699531 1_454
Pd1 Sb2 2.701648 1_554
Pd1 Sb1 2.701648 1_455
Pd2 Sb11 2.695155 1_555
Pd2 Sb10 2.695155 1_544
Pd2 Sb1 2.699531 1_555
Pd2 Sb2 2.699531 1_544
Pd2 Sb9 2.701648 1_554
Pd2 Sb5 2.701648 1_545
