# generated using pymatgen
data_H2PbF4
_symmetry_space_group_name_H-M   'P 1'
_cell_length_a   7.90205848
_cell_length_b   6.40985016
_cell_length_c   6.16748522
_cell_angle_alpha   77.81997092
_cell_angle_beta   52.45757962
_cell_angle_gamma   49.72245641
_symmetry_Int_Tables_number   1
_chemical_formula_structural   H2PbF4
_chemical_formula_sum   'H4 Pb2 F8'
_cell_volume   180.12138861
_cell_formula_units_Z   2
loop_
 _symmetry_equiv_pos_site_id
 _symmetry_equiv_pos_as_xyz
  1  'x, y, z'
loop_
 _atom_site_type_symbol
 _atom_site_label
 _atom_site_symmetry_multiplicity
 _atom_site_fract_x
 _atom_site_fract_y
 _atom_site_fract_z
 _atom_site_occupancy
  H  H0  1  0.37279417  0.37279417  0.12720583  1
  H  H1  1  0.12720583  0.12720583  0.37279417  1
  H  H2  1  0.87720583  0.87720583  0.12279417  1
  H  H3  1  0.12279417  0.12279417  0.87720583  1
  Pb  Pb0  1  0.50000000  0.50000000  0.50000000  1
  Pb  Pb1  1  0.75000000  0.75000000  0.75000000  1
  F  F0  1  0.28453504  0.45737181  0.34788094  1
  F  F1  1  0.91021322  0.34788094  0.45737181  1
  F  F2  1  0.34788094  0.91021322  0.28453504  1
  F  F3  1  0.45737181  0.28453504  0.91021322  1
  F  F4  1  0.96546496  0.79262819  0.90211906  1
  F  F5  1  0.33978678  0.90211906  0.79262819  1
  F  F6  1  0.90211906  0.33978678  0.96546496  1
  F  F7  1  0.79262819  0.96546496  0.33978678  1
loop_
_geom_bond_atom_site_label_1
_geom_bond_atom_site_label_2
_geom_bond_distance
_geom_bond_site_symmetry_2
F0 H0 1.139447 1_555
F0 Pb1 2.542204 1_455
F0 Pb0 2.551508 1_555
F1 H1 1.139443 1_655
F1 Pb1 2.542200 1_555
F1 Pb0 2.551515 1_555
F2 H1 1.139445 1_565
F2 Pb1 2.542204 1_554
F2 Pb0 2.551512 1_555
F3 H0 1.139441 1_556
F3 Pb1 2.542205 1_545
F3 Pb0 2.551512 1_555
F4 H2 1.139447 1_556
F4 Pb0 2.542204 1_655
F4 Pb1 2.551508 1_555
F5 H3 1.139443 1_565
F5 Pb0 2.542200 1_555
F5 Pb1 2.551515 1_555
F6 H3 1.139445 1_655
F6 Pb0 2.542204 1_556
F6 Pb1 2.551512 1_555
F7 H2 1.139441 1_555
F7 Pb0 2.542205 1_565
F7 Pb1 2.551512 1_555
