# generated using pymatgen
data_Hf6PBr15
_symmetry_space_group_name_H-M   'P 1'
_cell_length_a   9.19064623
_cell_length_b   9.19064657
_cell_length_c   9.19064706
_cell_angle_alpha   109.47121960
_cell_angle_beta   109.47122036
_cell_angle_gamma   109.47122015
_symmetry_Int_Tables_number   1
_chemical_formula_structural   Hf6PBr15
_chemical_formula_sum   'Hf6 P1 Br15'
_cell_volume   597.60788917
_cell_formula_units_Z   1
loop_
 _symmetry_equiv_pos_site_id
 _symmetry_equiv_pos_as_xyz
  1  'x, y, z'
loop_
 _atom_site_type_symbol
 _atom_site_label
 _atom_site_symmetry_multiplicity
 _atom_site_fract_x
 _atom_site_fract_y
 _atom_site_fract_z
 _atom_site_occupancy
  Hf  Hf0  1  0.77116720  0.77116720  1.00000000  1
  Hf  Hf1  1  0.22883280  1.00000000  0.22883280  1
  Hf  Hf2  1  0.77116720  0.00000000  0.77116720  1
  Hf  Hf3  1  0.00000000  0.77116720  0.77116720  1
  Hf  Hf4  1  1.00000000  0.22883280  0.22883280  1
  Hf  Hf5  1  0.22883280  0.22883280  0.00000000  1
  P  P0  1  0.00000000  0.00000000  0.00000000  1
  Br  Br0  1  0.50000000  0.00000000  0.50000000  1
  Br  Br1  1  0.00000000  0.50000000  0.50000000  1
  Br  Br2  1  0.50000000  0.50000000  0.00000000  1
  Br  Br3  1  0.50133042  0.75066471  0.75066471  1
  Br  Br4  1  0.75066471  1.00000000  0.24933529  1
  Br  Br5  1  0.49866958  0.24933529  0.24933529  1
  Br  Br6  1  0.24933529  0.24933529  0.49866958  1
  Br  Br7  1  0.24933529  0.75066471  0.00000000  1
  Br  Br8  1  0.00000000  0.24933529  0.75066471  1
  Br  Br9  1  1.00000000  0.75066471  0.24933529  1
  Br  Br10  1  0.24933529  0.00000000  0.75066471  1
  Br  Br11  1  0.24933529  0.49866958  0.24933529  1
  Br  Br12  1  0.75066471  0.24933529  1.00000000  1
  Br  Br13  1  0.75066471  0.50133042  0.75066471  1
  Br  Br14  1  0.75066471  0.75066471  0.50133042  1
loop_
_geom_bond_atom_site_label_1
_geom_bond_atom_site_label_2
_geom_bond_distance
_geom_bond_site_symmetry_2
Hf0 P0 2.428475 1_666
Hf1 P0 2.428475 1_565
Hf2 P0 2.428475 1_656
Hf3 P0 2.428476 1_566
Hf4 P0 2.428476 1_655
Hf5 P0 2.428475 1_555
Br0 Hf2 2.877747 1_555
Br0 Hf1 2.877747 1_545
Br1 Hf3 2.877747 1_555
Br1 Hf4 2.877747 1_455
Br2 Hf0 2.877747 1_554
Br2 Hf5 2.877747 1_555
Br3 Hf2 2.654982 1_565
Br3 Hf0 2.654982 1_555
Br4 Hf4 2.654988 1_565
Br4 Hf0 2.654988 1_554
Br5 Hf1 2.654982 1_545
Br5 Hf5 2.654982 1_555
Br6 Hf4 2.654982 1_455
Br6 Hf1 2.654982 1_545
Br7 Hf3 2.654988 1_554
Br7 Hf1 2.654988 1_555
Br8 Hf2 2.654988 1_455
Br8 Hf5 2.654988 1_556
Br9 Hf1 2.654988 1_655
Br9 Hf0 2.654988 1_554
Br10 Hf3 2.654988 1_545
Br10 Hf5 2.654988 1_556
Br11 Hf4 2.654982 1_455
Br11 Hf5 2.654982 1_555
Br12 Hf4 2.654988 1_556
Br12 Hf2 2.654988 1_555
Br13 Hf3 2.654982 1_655
Br13 Hf0 2.654982 1_555
Br14 Hf3 2.654982 1_655
Br14 Hf2 2.654982 1_565
