# generated using pymatgen
data_Ca8ScNbN8
_symmetry_space_group_name_H-M   'P 1'
_cell_length_a   6.07841969
_cell_length_b   6.08301343
_cell_length_c   9.24733761
_cell_angle_alpha   70.77816900
_cell_angle_beta   81.33678206
_cell_angle_gamma   68.65664357
_symmetry_Int_Tables_number   1
_chemical_formula_structural   Ca8ScNbN8
_chemical_formula_sum   'Ca8 Sc1 Nb1 N8'
_cell_volume   300.53208273
_cell_formula_units_Z   1
loop_
 _symmetry_equiv_pos_site_id
 _symmetry_equiv_pos_as_xyz
  1  'x, y, z'
loop_
 _atom_site_type_symbol
 _atom_site_label
 _atom_site_symmetry_multiplicity
 _atom_site_fract_x
 _atom_site_fract_y
 _atom_site_fract_z
 _atom_site_occupancy
  Ca  Ca0  1  0.24666294  0.94317051  0.60277659  1
  Ca  Ca1  1  0.73524675  0.61666943  0.18843632  1
  Ca  Ca2  1  0.75336283  0.24370283  0.98997770  1
  Ca  Ca3  1  0.26048640  0.52662874  0.42644761  1
  Ca  Ca4  1  0.75327054  0.05134151  0.41066106  1
  Ca  Ca5  1  0.26441839  0.38546537  0.80323071  1
  Ca  Ca6  1  0.73251087  0.47701520  0.58035851  1
  Ca  Ca7  1  0.24883069  0.75604207  0.00522559  1
  Sc  Sc0  1  0.72026490  0.84392604  0.76495354  1
  Nb  Nb0  1  0.28244614  0.15713914  0.23921932  1
  N  N0  1  0.98623236  0.69698367  0.60882668  1
  N  N1  1  0.50875113  0.18813172  0.61631651  1
  N  N2  1  0.02245417  0.29611235  0.37751293  1
  N  N3  1  0.50796190  0.61783361  0.80199470  1
  N  N4  1  0.15981755  0.14747111  0.05856275  1
  N  N5  1  0.48204284  0.82908152  0.37005386  1
  N  N6  1  0.48215123  0.37041396  0.19781412  1
  N  N7  1  0.85308738  0.85287122  0.95763248  1
loop_
_geom_bond_atom_site_label_1
_geom_bond_atom_site_label_2
_geom_bond_distance
_geom_bond_site_symmetry_2
Ca0 N3 2.454765 1_555
Ca0 N0 2.528931 1_455
Ca0 N5 2.548162 1_555
Ca0 N2 2.566434 1_565
Ca0 N1 2.585515 1_565
Ca1 N7 2.324264 1_554
Ca1 N5 2.462027 1_555
Ca1 N2 2.470585 1_655
Ca1 N6 2.483938 1_555
Ca2 N7 2.339593 1_545
Ca2 N4 2.454310 1_656
Ca2 N6 2.470148 1_556
Ca2 N3 2.476167 1_555
Ca3 N0 2.396569 1_455
Ca3 N1 2.399105 1_555
Ca3 N2 2.521170 1_555
Ca3 N5 2.535898 1_555
Ca3 N6 2.592525 1_555
Ca4 N1 2.410058 1_555
Ca4 N0 2.443076 1_545
Ca4 N2 2.511941 1_655
Ca4 N6 2.547644 1_555
Ca4 N5 2.613470 1_545
Ca5 N3 2.386836 1_555
Ca5 N1 2.435022 1_555
Ca5 N0 2.454014 1_455
Ca5 N4 2.458077 1_556
Ca6 N0 2.468719 1_555
Ca6 N3 2.501914 1_555
Ca6 N1 2.503453 1_555
Ca6 N5 2.542175 1_555
Ca6 N2 2.605206 1_655
Ca7 N7 2.333221 1_454
Ca7 N3 2.429897 1_554
Ca7 N4 2.441441 1_565
Ca7 N6 2.504835 1_555
N0 Sc0 2.142831 1_555
N1 Sc0 2.145715 1_545
N2 Nb0 1.994526 1_555
N3 Sc0 2.126664 1_555
N4 Nb0 1.954910 1_555
N5 Nb0 2.002033 1_565
N6 Nb0 1.995624 1_555
N7 Sc0 2.087736 1_555
