# generated using pymatgen
data_DyMg2
_symmetry_space_group_name_H-M   'P 1'
_cell_length_a   6.02304246
_cell_length_b   6.02304301
_cell_length_c   9.79477254
_cell_angle_alpha   90.00000000
_cell_angle_beta   90.00000000
_cell_angle_gamma   120.00002358
_symmetry_Int_Tables_number   1
_chemical_formula_structural   DyMg2
_chemical_formula_sum   'Dy4 Mg8'
_cell_volume   307.72074322
_cell_formula_units_Z   4
loop_
 _symmetry_equiv_pos_site_id
 _symmetry_equiv_pos_as_xyz
  1  'x, y, z'
loop_
 _atom_site_type_symbol
 _atom_site_label
 _atom_site_symmetry_multiplicity
 _atom_site_fract_x
 _atom_site_fract_y
 _atom_site_fract_z
 _atom_site_occupancy
  Dy  Dy0  1  0.33333300  0.66666700  0.43590462  1
  Dy  Dy1  1  0.66666700  0.33333300  0.93590462  1
  Dy  Dy2  1  0.66666700  0.33333300  0.56409538  1
  Dy  Dy3  1  0.33333300  0.66666700  0.06409538  1
  Mg  Mg0  1  0.17087640  0.34175179  0.75000000  1
  Mg  Mg1  1  0.82912360  0.17087640  0.25000000  1
  Mg  Mg2  1  0.34175179  0.17087640  0.25000000  1
  Mg  Mg3  1  0.65824821  0.82912360  0.75000000  1
  Mg  Mg4  1  0.00000000  0.00000000  0.00000000  1
  Mg  Mg5  1  0.00000000  0.00000000  0.50000000  1
  Mg  Mg6  1  0.82912360  0.65824821  0.25000000  1
  Mg  Mg7  1  0.17087640  0.82912360  0.75000000  1
loop_
_geom_bond_atom_site_label_1
_geom_bond_atom_site_label_2
_geom_bond_distance
_geom_bond_site_symmetry_2
Dy0 Mg7 3.512420 1_555
Dy0 Mg3 3.512425 1_555
Dy0 Mg0 3.512425 1_555
Dy0 Mg1 3.519494 1_455
Dy0 Mg1 3.519494 1_565
Dy0 Mg6 3.519494 1_555
Dy0 Mg6 3.519495 1_455
Dy0 Mg2 3.519495 1_555
Dy0 Mg2 3.519495 1_565
Dy0 Mg5 3.533618 1_565
Dy0 Mg5 3.533622 1_665
Dy0 Mg5 3.533622 1_555
Dy0 Dy3 3.641787 1_555
Dy0 Dy2 3.697140 1_455
Dy0 Dy2 3.697141 1_565
Dy0 Dy2 3.697151 1_555
Dy1 Mg1 3.512420 1_556
Dy1 Mg2 3.512425 1_556
Dy1 Mg6 3.512425 1_556
Dy1 Mg7 3.519494 1_655
Dy1 Mg7 3.519494 1_545
Dy1 Mg0 3.519494 1_555
Dy1 Mg0 3.519495 1_655
Dy1 Mg3 3.519495 1_555
Dy1 Mg3 3.519495 1_545
Dy1 Mg4 3.533618 1_656
Dy1 Mg4 3.533622 1_556
Dy1 Mg4 3.533622 1_666
Dy1 Dy2 3.641787 1_555
Dy1 Dy3 3.697140 1_656
Dy1 Dy3 3.697141 1_546
Dy1 Dy3 3.697151 1_556
Dy2 Mg1 3.512420 1_555
Dy2 Mg2 3.512425 1_555
Dy2 Mg6 3.512425 1_555
Dy2 Mg7 3.519494 1_655
Dy2 Mg7 3.519494 1_545
Dy2 Mg0 3.519494 1_555
Dy2 Mg0 3.519495 1_655
Dy2 Mg3 3.519495 1_555
Dy2 Mg3 3.519495 1_545
Dy2 Mg5 3.533618 1_655
Dy2 Mg5 3.533622 1_555
Dy2 Mg5 3.533622 1_665
Dy3 Mg7 3.512420 1_554
Dy3 Mg3 3.512425 1_554
Dy3 Mg0 3.512425 1_554
Dy3 Mg1 3.519494 1_455
Dy3 Mg1 3.519494 1_565
Dy3 Mg6 3.519494 1_555
Dy3 Mg6 3.519495 1_455
Dy3 Mg2 3.519495 1_555
Dy3 Mg2 3.519495 1_565
Dy3 Mg4 3.533618 1_565
Dy3 Mg4 3.533622 1_665
Dy3 Mg4 3.533622 1_555
Mg0 Mg3 2.935460 1_555
Mg0 Mg7 2.935461 1_555
Mg0 Mg4 3.028830 1_556
Mg0 Mg5 3.028830 1_555
Mg0 Mg3 3.087580 1_445
Mg0 Mg7 3.087582 1_545
Mg1 Mg2 2.935461 1_555
Mg1 Mg6 2.935461 1_555
Mg1 Mg5 3.028833 1_655
Mg1 Mg4 3.028833 1_655
Mg1 Mg2 3.087581 1_655
Mg1 Mg6 3.087582 1_545
Mg2 Mg6 2.935460 1_555
Mg2 Mg5 3.028830 1_555
Mg2 Mg4 3.028830 1_555
Mg2 Mg6 3.087580 1_445
Mg3 Mg7 2.935461 1_555
Mg3 Mg4 3.028830 1_666
Mg3 Mg5 3.028830 1_665
Mg3 Mg7 3.087581 1_655
Mg4 Mg6 3.028830 1_445
Mg4 Mg7 3.028833 1_544
Mg5 Mg6 3.028830 1_445
Mg5 Mg7 3.028833 1_545
