# generated using pymatgen
data_Lu3ZnHg2C
_symmetry_space_group_name_H-M   'P 1'
_cell_length_a   9.13471301
_cell_length_b   9.13471367
_cell_length_c   9.13471502
_cell_angle_alpha   59.99999865
_cell_angle_beta   59.99999625
_cell_angle_gamma   59.99999583
_symmetry_Int_Tables_number   1
_chemical_formula_structural   Lu3ZnHg2C
_chemical_formula_sum   'Lu12 Zn4 Hg8 C4'
_cell_volume   538.97648916
_cell_formula_units_Z   4
loop_
 _symmetry_equiv_pos_site_id
 _symmetry_equiv_pos_as_xyz
  1  'x, y, z'
loop_
 _atom_site_type_symbol
 _atom_site_label
 _atom_site_symmetry_multiplicity
 _atom_site_fract_x
 _atom_site_fract_y
 _atom_site_fract_z
 _atom_site_occupancy
  Lu  Lu0  1  0.44208852  0.44208852  0.05791148  1
  Lu  Lu1  1  0.05791148  0.44208852  0.05791148  1
  Lu  Lu2  1  0.44208852  0.05791148  0.05791148  1
  Lu  Lu3  1  0.05791148  0.05791148  0.44208852  1
  Lu  Lu4  1  0.44208852  0.05791148  0.44208852  1
  Lu  Lu5  1  0.05791148  0.44208852  0.44208852  1
  Lu  Lu6  1  0.80791148  0.80791148  0.19208852  1
  Lu  Lu7  1  0.19208852  0.80791148  0.19208852  1
  Lu  Lu8  1  0.80791148  0.19208852  0.19208852  1
  Lu  Lu9  1  0.19208852  0.19208852  0.80791148  1
  Lu  Lu10  1  0.80791148  0.19208852  0.80791148  1
  Lu  Lu11  1  0.19208852  0.80791148  0.80791148  1
  Zn  Zn0  1  0.62500000  0.62500000  0.12500000  1
  Zn  Zn1  1  0.62500000  0.12500000  0.62500000  1
  Zn  Zn2  1  0.12500000  0.62500000  0.62500000  1
  Zn  Zn3  1  0.62500000  0.62500000  0.62500000  1
  Hg  Hg0  1  0.83553038  0.83553038  0.49341087  1
  Hg  Hg1  1  0.83553038  0.49341087  0.83553038  1
  Hg  Hg2  1  0.49341087  0.83553038  0.83553038  1
  Hg  Hg3  1  0.83553038  0.83553038  0.83553038  1
  Hg  Hg4  1  0.41446962  0.41446962  0.75658913  1
  Hg  Hg5  1  0.41446962  0.75658913  0.41446962  1
  Hg  Hg6  1  0.75658913  0.41446962  0.41446962  1
  Hg  Hg7  1  0.41446962  0.41446962  0.41446962  1
  C  C0  1  0.12500000  0.12500000  0.62500000  1
  C  C1  1  0.12500000  0.62500000  0.12500000  1
  C  C2  1  0.62500000  0.12500000  0.12500000  1
  C  C3  1  0.12500000  0.12500000  0.12500000  1
loop_
_geom_bond_atom_site_label_1
_geom_bond_atom_site_label_2
_geom_bond_distance
_geom_bond_site_symmetry_2
Lu0 Zn0 3.286126 1_555
Lu0 Zn3 3.286127 1_554
Lu1 Zn0 3.286126 1_455
Lu1 Zn2 3.286127 1_554
Lu2 Zn0 3.286126 1_545
Lu2 Zn1 3.286127 1_554
Lu3 Zn1 3.286126 1_455
Lu3 Zn2 3.286126 1_545
Lu4 Zn3 3.286126 1_545
Lu4 Zn1 3.286127 1_555
Lu5 Zn3 3.286126 1_455
Lu5 Zn2 3.286127 1_555
Lu6 Zn0 3.286126 1_555
Lu6 Zn3 3.286127 1_555
Lu7 Zn0 3.286126 1_555
Lu7 Zn2 3.286127 1_555
Lu8 Zn0 3.286126 1_555
Lu8 Zn1 3.286127 1_555
Lu9 Zn1 3.286126 1_555
Lu9 Zn2 3.286126 1_555
Lu10 Zn3 3.286126 1_555
Lu10 Zn1 3.286127 1_555
Lu11 Zn3 3.286126 1_555
Lu11 Zn2 3.286127 1_555
Hg0 Zn2 2.813681 1_655
Hg0 Zn1 2.813682 1_565
Hg0 Zn3 2.813696 1_555
Hg0 Lu7 3.025882 1_655
Hg0 Lu8 3.025883 1_565
Hg0 Lu6 3.025893 1_555
Hg0 Lu3 3.270276 1_665
Hg0 Lu4 3.270292 1_565
Hg0 Lu5 3.270292 1_655
Hg1 Zn2 2.813681 1_655
Hg1 Zn0 2.813682 1_556
Hg1 Zn3 2.813697 1_555
Hg1 Lu9 3.025882 1_655
Hg1 Lu8 3.025883 1_556
Hg1 Lu10 3.025893 1_555
Hg1 Lu1 3.270276 1_656
Hg1 Lu0 3.270292 1_556
Hg1 Lu5 3.270292 1_655
Hg2 Zn1 2.813682 1_565
Hg2 Zn0 2.813682 1_556
Hg2 Zn3 2.813697 1_555
Hg2 Lu9 3.025882 1_565
Hg2 Lu7 3.025882 1_556
Hg2 Lu11 3.025893 1_555
Hg2 Lu2 3.270276 1_566
Hg2 Lu0 3.270292 1_556
Hg2 Lu4 3.270292 1_565
Hg3 Zn2 2.813692 1_655
Hg3 Zn0 2.813692 1_556
Hg3 Zn1 2.813692 1_565
Hg3 Lu11 3.025875 1_655
Hg3 Lu10 3.025875 1_565
Hg3 Lu6 3.025875 1_556
Hg3 Lu2 3.270285 1_566
Hg3 Lu1 3.270285 1_656
Hg3 Lu3 3.270285 1_665
Hg4 Zn2 2.813681 1_555
Hg4 Zn1 2.813682 1_555
Hg4 Zn3 2.813696 1_555
Hg4 Lu1 3.025882 1_556
Hg4 Lu2 3.025883 1_556
Hg4 Lu0 3.025893 1_556
Hg4 Lu9 3.270276 1_555
Hg4 Lu10 3.270292 1_555
Hg4 Lu11 3.270292 1_555
Hg5 Zn2 2.813681 1_555
Hg5 Zn0 2.813682 1_555
Hg5 Zn3 2.813697 1_555
Hg5 Lu3 3.025882 1_565
Hg5 Lu2 3.025883 1_565
Hg5 Lu4 3.025893 1_565
Hg5 Lu7 3.270276 1_555
Hg5 Lu6 3.270292 1_555
Hg5 Lu11 3.270292 1_555
Hg6 Zn1 2.813682 1_555
Hg6 Zn0 2.813682 1_555
Hg6 Zn3 2.813697 1_555
Hg6 Lu3 3.025882 1_655
Hg6 Lu1 3.025882 1_655
Hg6 Lu5 3.025893 1_655
Hg6 Lu8 3.270276 1_555
Hg6 Lu6 3.270292 1_555
Hg6 Lu10 3.270292 1_555
Hg7 Zn2 2.813692 1_555
Hg7 Zn0 2.813692 1_555
Hg7 Zn1 2.813692 1_555
Hg7 Lu5 3.025875 1_555
Hg7 Lu4 3.025875 1_555
Hg7 Lu0 3.025875 1_555
Hg7 Lu8 3.270285 1_555
Hg7 Lu7 3.270285 1_555
Hg7 Lu9 3.270285 1_555
C0 Lu4 2.442605 1_555
C0 Lu10 2.442605 1_455
C0 Lu5 2.442605 1_555
C0 Lu11 2.442605 1_545
C0 Lu9 2.442605 1_555
C0 Lu3 2.442605 1_555
C1 Lu6 2.442605 1_455
C1 Lu0 2.442605 1_555
C1 Lu7 2.442605 1_555
C1 Lu1 2.442605 1_555
C1 Lu5 2.442605 1_555
C1 Lu11 2.442605 1_554
C2 Lu0 2.442605 1_555
C2 Lu6 2.442605 1_545
C2 Lu8 2.442605 1_555
C2 Lu2 2.442605 1_555
C2 Lu4 2.442605 1_555
C2 Lu10 2.442605 1_554
C3 Lu2 2.442605 1_555
C3 Lu8 2.442605 1_455
C3 Lu1 2.442605 1_555
C3 Lu7 2.442605 1_545
C3 Lu3 2.442605 1_555
C3 Lu9 2.442605 1_554
