# generated using pymatgen
data_MgHg2(P3Pd10)2
_symmetry_space_group_name_H-M   'P 1'
_cell_length_a   8.54968043
_cell_length_b   8.54968015
_cell_length_c   8.54968075
_cell_angle_alpha   59.99999768
_cell_angle_beta   59.99999876
_cell_angle_gamma   59.99999153
_symmetry_Int_Tables_number   1
_chemical_formula_structural   MgHg2(P3Pd10)2
_chemical_formula_sum   'Mg1 Hg2 P6 Pd20'
_cell_volume   441.91079451
_cell_formula_units_Z   1
loop_
 _symmetry_equiv_pos_site_id
 _symmetry_equiv_pos_as_xyz
  1  'x, y, z'
loop_
 _atom_site_type_symbol
 _atom_site_label
 _atom_site_symmetry_multiplicity
 _atom_site_fract_x
 _atom_site_fract_y
 _atom_site_fract_z
 _atom_site_occupancy
  Mg  Mg0  1  0.00000000  0.00000000  0.00000000  1
  Hg  Hg0  1  0.25000000  0.25000000  0.25000000  1
  Hg  Hg1  1  0.75000000  0.75000000  0.75000000  1
  P  P0  1  0.73476897  0.73476897  0.26523103  1
  P  P1  1  0.26523103  0.26523103  0.73476897  1
  P  P2  1  0.26523103  0.73476897  0.73476897  1
  P  P3  1  0.73476897  0.26523103  0.73476897  1
  P  P4  1  0.26523103  0.73476897  0.26523103  1
  P  P5  1  0.73476897  0.26523103  0.26523103  1
  Pd  Pd0  1  0.61609197  0.61609197  0.61609197  1
  Pd  Pd1  1  0.38390803  0.84827592  0.38390803  1
  Pd  Pd2  1  0.65824297  0.34175703  0.00000000  1
  Pd  Pd3  1  0.00000000  0.34175703  0.65824297  1
  Pd  Pd4  1  0.65824297  1.00000000  0.00000000  1
  Pd  Pd5  1  0.61609197  0.61609197  0.15172408  1
  Pd  Pd6  1  0.00000000  0.00000000  0.65824297  1
  Pd  Pd7  1  0.00000000  0.34175703  0.00000000  1
  Pd  Pd8  1  0.65824297  1.00000000  0.34175703  1
  Pd  Pd9  1  0.34175703  0.00000000  0.00000000  1
  Pd  Pd10  1  1.00000000  0.65824297  1.00000000  1
  Pd  Pd11  1  0.34175703  0.00000000  0.65824297  1
  Pd  Pd12  1  1.00000000  0.65824297  0.34175703  1
  Pd  Pd13  1  0.34175703  0.65824297  1.00000000  1
  Pd  Pd14  1  0.15172408  0.61609197  0.61609197  1
  Pd  Pd15  1  0.38390803  0.38390803  0.38390803  1
  Pd  Pd16  1  0.84827592  0.38390803  0.38390803  1
  Pd  Pd17  1  0.38390803  0.38390803  0.84827592  1
  Pd  Pd18  1  0.61609197  0.15172408  0.61609197  1
  Pd  Pd19  1  0.00000000  0.00000000  0.34175703  1
loop_
_geom_bond_atom_site_label_1
_geom_bond_atom_site_label_2
_geom_bond_distance
_geom_bond_site_symmetry_2
Mg0 Pd13 2.921913 1_544
Mg0 Pd2 2.921913 1_455
Mg0 Pd7 2.921913 1_555
Mg0 Pd12 2.921913 1_445
Mg0 Pd3 2.921913 1_554
Mg0 Pd10 2.921913 1_444
Mg0 Pd9 2.921913 1_555
Mg0 Pd4 2.921913 1_445
Mg0 Pd8 2.921913 1_445
Mg0 Pd11 2.921913 1_554
Mg0 Pd19 2.921914 1_555
Mg0 Pd6 2.921914 1_554
Hg0 Pd1 2.804349 1_545
Hg0 Pd16 2.804349 1_455
Hg0 Pd15 2.804349 1_555
Hg0 Pd17 2.804349 1_554
Hg0 Pd12 3.311727 1_455
Hg0 Pd10 3.311727 1_454
Hg0 Pd4 3.311727 1_545
Hg0 Pd8 3.311727 1_545
Hg0 Pd13 3.311728 1_554
Hg0 Pd11 3.311728 1_555
Hg0 Pd9 3.311728 1_555
Hg0 Pd3 3.311728 1_555
Hg0 Pd7 3.311728 1_555
Hg0 Pd2 3.311728 1_555
Hg0 Pd6 3.311728 1_555
Hg0 Pd19 3.311728 1_555
Hg1 Pd18 2.804349 1_565
Hg1 Pd14 2.804349 1_655
Hg1 Pd0 2.804349 1_555
Hg1 Pd5 2.804349 1_556
Hg1 Pd7 3.311727 1_656
Hg1 Pd3 3.311727 1_655
Hg1 Pd9 3.311727 1_566
Hg1 Pd11 3.311727 1_565
Hg1 Pd2 3.311728 1_556
Hg1 Pd8 3.311728 1_555
Hg1 Pd4 3.311728 1_556
Hg1 Pd10 3.311728 1_555
Hg1 Pd12 3.311728 1_555
Hg1 Pd13 3.311728 1_555
Hg1 Pd6 3.311728 1_665
Hg1 Pd19 3.311728 1_665
P0 Pd4 2.360141 1_555
P0 Pd8 2.360141 1_555
P0 Pd10 2.360141 1_554
P0 Pd12 2.360141 1_555
P0 Pd16 2.449417 1_555
P0 Pd1 2.449418 1_555
P0 Pd5 2.449418 1_555
P0 Pd0 2.449418 1_555
P1 Pd9 2.360141 1_556
P1 Pd11 2.360141 1_555
P1 Pd7 2.360141 1_556
P1 Pd3 2.360141 1_555
P1 Pd14 2.449417 1_555
P1 Pd18 2.449418 1_555
P1 Pd17 2.449418 1_555
P1 Pd15 2.449418 1_555
P2 Pd6 2.360141 1_565
P2 Pd11 2.360141 1_565
P2 Pd10 2.360141 1_455
P2 Pd13 2.360141 1_555
P2 Pd17 2.449417 1_555
P2 Pd0 2.449418 1_555
P2 Pd14 2.449418 1_555
P2 Pd1 2.449418 1_555
P3 Pd6 2.360141 1_655
P3 Pd4 2.360141 1_546
P3 Pd3 2.360141 1_655
P3 Pd2 2.360141 1_556
P3 Pd0 2.449417 1_555
P3 Pd17 2.449418 1_555
P3 Pd16 2.449418 1_555
P3 Pd18 2.449418 1_555
P4 Pd19 2.360141 1_565
P4 Pd9 2.360141 1_565
P4 Pd12 2.360141 1_455
P4 Pd13 2.360141 1_554
P4 Pd15 2.449417 1_555
P4 Pd5 2.449418 1_555
P4 Pd14 2.449418 1_555
P4 Pd1 2.449418 1_555
P5 Pd19 2.360141 1_655
P5 Pd8 2.360141 1_545
P5 Pd7 2.360141 1_655
P5 Pd2 2.360141 1_555
P5 Pd5 2.449417 1_555
P5 Pd15 2.449418 1_555
P5 Pd16 2.449418 1_555
P5 Pd18 2.449418 1_555
Pd0 Pd11 3.007263 1_565
Pd0 Pd3 3.007264 1_655
Pd0 Pd8 3.007264 1_555
Pd0 Pd2 3.007264 1_556
Pd0 Pd12 3.007264 1_555
Pd0 Pd13 3.007264 1_555
Pd1 Pd19 3.007264 1_565
Pd1 Pd6 3.007264 1_565
Pd1 Pd9 3.007264 1_565
Pd1 Pd11 3.007264 1_565
Pd1 Pd4 3.007264 1_555
Pd1 Pd8 3.007264 1_555
Pd2 Pd4 2.921913 1_545
Pd2 Pd8 2.921913 1_545
Pd2 Pd3 2.921913 1_654
Pd2 Pd7 2.921913 1_655
Pd2 Pd5 3.007264 1_555
Pd3 Pd6 2.921913 1_555
Pd3 Pd7 2.921914 1_556
Pd4 Pd9 2.705854 1_565
Pd4 Pd6 2.921913 1_664
Pd4 Pd8 2.921914 1_555
Pd4 Pd5 3.007264 1_555
Pd5 Pd9 3.007263 1_565
Pd5 Pd7 3.007264 1_655
Pd7 Pd9 2.921913 1_555
Pd10 Pd7 2.705854 1_656
Pd10 Pd4 2.921913 1_556
Pd10 Pd6 2.921913 1_665
Pd10 Pd13 2.921913 1_655
Pd10 Pd12 2.921914 1_556
Pd10 Pd17 3.007264 1_655
Pd10 Pd5 3.007264 1_556
Pd10 Pd16 3.007264 1_556
Pd10 Pd14 3.007264 1_655
Pd11 Pd8 2.705854 1_545
Pd11 Pd3 2.921913 1_555
Pd11 Pd13 2.921913 1_545
Pd11 Pd6 2.921913 1_555
Pd11 Pd9 2.921914 1_556
Pd11 Pd15 3.007264 1_555
Pd11 Pd18 3.007264 1_555
Pd12 Pd3 2.705854 1_655
Pd12 Pd8 2.921913 1_555
Pd12 Pd19 2.921913 1_665
Pd12 Pd13 2.921913 1_654
Pd12 Pd15 3.007264 1_655
Pd12 Pd16 3.007264 1_555
Pd12 Pd14 3.007264 1_655
Pd13 Pd2 2.705853 1_556
Pd13 Pd9 2.921913 1_566
Pd13 Pd15 3.007264 1_556
Pd13 Pd17 3.007264 1_555
Pd13 Pd5 3.007264 1_556
Pd14 Pd6 3.007264 1_565
Pd14 Pd19 3.007264 1_565
Pd14 Pd7 3.007264 1_556
Pd14 Pd3 3.007264 1_555
Pd15 Pd8 3.007263 1_545
Pd15 Pd3 3.007264 1_555
Pd15 Pd2 3.007264 1_555
Pd16 Pd19 3.007264 1_655
Pd16 Pd6 3.007264 1_655
Pd16 Pd7 3.007264 1_655
Pd16 Pd3 3.007264 1_655
Pd17 Pd4 3.007263 1_546
Pd17 Pd9 3.007264 1_556
Pd17 Pd7 3.007264 1_556
Pd17 Pd2 3.007264 1_556
Pd18 Pd6 3.007264 1_655
Pd18 Pd19 3.007264 1_655
Pd18 Pd4 3.007264 1_546
Pd18 Pd8 3.007264 1_545
Pd18 Pd9 3.007264 1_556
Pd19 Pd6 2.705854 1_555
Pd19 Pd7 2.921913 1_555
Pd19 Pd8 2.921913 1_445
Pd19 Pd9 2.921913 1_555
