# generated using pymatgen
data_ZnIr2PtCl12
_symmetry_space_group_name_H-M   'P 1'
_cell_length_a   11.67814581
_cell_length_b   11.13534543
_cell_length_c   6.13107699
_cell_angle_alpha   79.36173348
_cell_angle_beta   69.57521630
_cell_angle_gamma   31.29781478
_symmetry_Int_Tables_number   1
_chemical_formula_structural   ZnIr2PtCl12
_chemical_formula_sum   'Zn1 Ir2 Pt1 Cl12'
_cell_volume   377.42795702
_cell_formula_units_Z   1
loop_
 _symmetry_equiv_pos_site_id
 _symmetry_equiv_pos_as_xyz
  1  'x, y, z'
loop_
 _atom_site_type_symbol
 _atom_site_label
 _atom_site_symmetry_multiplicity
 _atom_site_fract_x
 _atom_site_fract_y
 _atom_site_fract_z
 _atom_site_occupancy
  Zn  Zn0  1  0.41988855  0.41988855  0.58011145  1
  Ir  Ir0  1  0.66640006  0.66640006  0.83359994  1
  Ir  Ir1  1  0.58394929  0.58394929  0.41605071  1
  Pt  Pt0  1  0.83268452  0.83268452  0.66731548  1
  Cl  Cl0  1  0.72463876  0.28238225  0.26537778  1
  Cl  Cl1  1  0.88520819  0.43967284  0.08590303  1
  Cl  Cl2  1  0.36797962  0.80937234  0.16157855  1
  Cl  Cl3  1  0.43967284  0.88520819  0.58921393  1
  Cl  Cl4  1  0.14565185  0.67136332  0.35840241  1
  Cl  Cl5  1  0.28238225  0.72463876  0.72760120  1
  Cl  Cl6  1  0.52907658  0.97043593  0.97436126  1
  Cl  Cl7  1  0.97043593  0.52907658  0.52612623  1
  Cl  Cl8  1  0.07405422  0.59724166  0.89110321  1
  Cl  Cl9  1  0.80937234  0.36797962  0.66106948  1
  Cl  Cl10  1  0.67136332  0.14565185  0.82458342  1
  Cl  Cl11  1  0.59724166  0.07405422  0.43759891  1
loop_
_geom_bond_atom_site_label_1
_geom_bond_atom_site_label_2
_geom_bond_distance
_geom_bond_site_symmetry_2
Cl0 Ir1 2.342347 1_555
Cl0 Zn0 2.391441 1_555
Cl1 Ir0 2.363955 1_554
Cl1 Ir1 2.372067 1_555
Cl2 Ir0 2.352117 1_554
Cl2 Ir1 2.361648 1_555
Cl3 Ir0 2.363965 1_555
Cl3 Ir1 2.372061 1_555
Cl4 Pt0 2.318791 1_455
Cl4 Zn0 2.500540 1_555
Cl5 Ir1 2.342346 1_555
Cl5 Zn0 2.391441 1_555
Cl6 Pt0 2.362440 1_555
Cl6 Ir0 2.369133 1_555
Cl7 Pt0 2.362441 1_555
Cl7 Ir0 2.369133 1_555
Cl8 Pt0 2.333104 1_455
Cl8 Zn0 2.496365 1_555
Cl9 Ir0 2.352118 1_555
Cl9 Ir1 2.361648 1_555
Cl10 Pt0 2.318794 1_545
Cl10 Zn0 2.500545 1_555
Cl11 Pt0 2.333114 1_545
Cl11 Zn0 2.496369 1_555
