# generated using pymatgen
data_KY6(CI6)2
_symmetry_space_group_name_H-M   'P 1'
_cell_length_a   9.41672517
_cell_length_b   9.41794766
_cell_length_c   9.81999932
_cell_angle_alpha   72.47418390
_cell_angle_beta   71.62913613
_cell_angle_gamma   72.99741301
_symmetry_Int_Tables_number   1
_chemical_formula_structural   KY6(CI6)2
_chemical_formula_sum   'K1 Y6 C2 I12'
_cell_volume   769.14995405
_cell_formula_units_Z   1
loop_
 _symmetry_equiv_pos_site_id
 _symmetry_equiv_pos_as_xyz
  1  'x, y, z'
loop_
 _atom_site_type_symbol
 _atom_site_label
 _atom_site_symmetry_multiplicity
 _atom_site_fract_x
 _atom_site_fract_y
 _atom_site_fract_z
 _atom_site_occupancy
  K  K0  1  0.99996981  0.50002066  0.99996582  1
  Y  Y0  1  0.47210717  0.10756828  0.19482683  1
  Y  Y1  1  0.76328542  0.03181549  0.41159968  1
  Y  Y2  1  0.58745427  0.73885504  0.47631595  1
  Y  Y3  1  0.41252786  0.26116772  0.52369721  1
  Y  Y4  1  0.23670965  0.96824055  0.58840027  1
  Y  Y5  1  0.52787844  0.89240953  0.80517845  1
  C  C0  1  0.49275043  0.02487232  0.42585666  1
  C  C1  1  0.50727477  0.97513649  0.57413073  1
  I  I0  1  0.79667646  0.16005298  0.07698390  1
  I  I1  1  0.58323196  0.77983828  0.13912825  1
  I  I2  1  0.34799322  0.43378956  0.22017999  1
  I  I3  1  0.13424240  0.06809090  0.29296575  1
  I  I4  1  0.92389045  0.72006063  0.35462525  1
  I  I5  1  0.71494249  0.36396017  0.43349593  1
  I  I6  1  0.28511341  0.63596271  0.56656751  1
  I  I7  1  0.07606702  0.27994074  0.64535832  1
  I  I8  1  0.86572832  0.93193921  0.70700244  1
  I  I9  1  0.65198137  0.56616947  0.77988150  1
  I  I10  1  0.41688881  0.22013811  0.86083541  1
  I  I11  1  0.20329128  0.83997017  0.92300414  1
loop_
_geom_bond_atom_site_label_1
_geom_bond_atom_site_label_2
_geom_bond_distance
_geom_bond_site_symmetry_2
C0 C1 1.426708 1_545
C0 Y0 2.217361 1_555
C0 Y3 2.508655 1_555
C0 Y2 2.523211 1_545
C0 Y1 2.526064 1_555
C0 Y4 2.541455 1_545
C1 Y5 2.217418 1_555
C1 Y2 2.508427 1_555
C1 Y3 2.523375 1_565
C1 Y4 2.526179 1_555
C1 Y1 2.541324 1_565
I0 Y0 3.038841 1_555
I0 Y1 3.087961 1_555
I0 K0 3.962557 1_554
I1 Y0 3.112557 1_565
I1 Y2 3.227813 1_555
I1 Y5 3.287918 1_554
I1 K0 4.117400 1_554
I2 Y0 3.007403 1_555
I2 Y3 3.088935 1_555
I3 Y0 3.119733 1_555
I3 Y4 3.134146 1_545
I3 Y1 3.401387 1_455
I4 Y2 2.984868 1_555
I4 Y1 3.013306 1_565
I5 Y3 3.055712 1_555
I5 Y1 3.090178 1_555
I5 Y2 3.490161 1_555
I6 Y2 3.055487 1_555
I6 Y4 3.091117 1_555
I6 Y3 3.489419 1_555
I7 Y3 2.985083 1_555
I7 Y4 3.012855 1_545
I8 Y5 3.119741 1_555
I8 Y1 3.133721 1_565
I8 Y4 3.401681 1_655
I9 Y5 3.007413 1_555
I9 Y2 3.089429 1_555
I10 Y5 3.112406 1_545
I10 Y3 3.227638 1_555
I10 Y0 3.287826 1_556
I10 K0 4.118740 1_455
I11 Y5 3.038849 1_555
I11 Y4 3.087855 1_555
I11 K0 3.962692 1_455
