# generated using pymatgen
data_Ta2ReSi2W
_symmetry_space_group_name_H-M   'P 1'
_cell_length_a   7.61380767
_cell_length_b   7.62104276
_cell_length_c   7.61369258
_cell_angle_alpha   126.42303202
_cell_angle_beta   128.23849377
_cell_angle_gamma   77.70639191
_symmetry_Int_Tables_number   1
_chemical_formula_structural   Ta2ReSi2W
_chemical_formula_sum   'Ta6 Re3 Si6 W3'
_cell_volume   270.73382069
_cell_formula_units_Z   3
loop_
 _symmetry_equiv_pos_site_id
 _symmetry_equiv_pos_as_xyz
  1  'x, y, z'
loop_
 _atom_site_type_symbol
 _atom_site_label
 _atom_site_symmetry_multiplicity
 _atom_site_fract_x
 _atom_site_fract_y
 _atom_site_fract_z
 _atom_site_occupancy
  Ta  Ta0  1  0.55100704  0.09012592  0.03768248  1
  Ta  Ta1  1  0.44601229  0.49274824  0.54618761  1
  Ta  Ta2  1  0.94688566  0.49220231  0.04654667  1
  Ta  Ta3  1  0.05230138  0.09039533  0.53959628  1
  Ta  Ta4  1  0.75348591  0.90663098  0.65458752  1
  Ta  Ta5  1  0.25177219  0.90638856  0.15288368  1
  Re  Re0  1  0.86925323  0.49632498  0.62662146  1
  Re  Re1  1  0.62853474  0.75352568  0.12486996  1
  Re  Re2  1  0.37063061  0.49691990  0.12688699  1
  Si  Si0  1  0.74726072  0.50048289  0.25204945  1
  Si  Si1  1  0.24822033  0.50054676  0.75342331  1
  Si  Si2  1  0.33377653  0.82502112  0.49095721  1
  Si  Si3  1  0.66904468  0.16359611  0.49404759  1
  Si  Si4  1  0.83276945  0.82448901  0.99195917  1
  Si  Si5  1  0.16976790  0.16574371  0.99654648  1
  W  W0  1  0.50048158  0.24170657  0.74086272  1
  W  W1  1  0.99954997  0.24033698  0.24084819  1
  W  W2  1  0.12924678  0.75501395  0.62564023  1
loop_
_geom_bond_atom_site_label_1
_geom_bond_atom_site_label_2
_geom_bond_distance
_geom_bond_site_symmetry_2
Ta0 W2 2.860745 1_544
Ta0 W1 2.896390 1_555
Ta0 W0 2.902463 1_554
Ta1 W0 2.880595 1_555
Ta1 W1 2.889954 1_455
Ta1 W2 2.914630 1_555
Ta2 W0 2.882391 1_554
Ta2 W1 2.888524 1_555
Ta2 W2 2.915272 1_655
Ta3 W2 2.860231 1_545
Ta3 W1 2.898444 1_455
Ta3 W0 2.902855 1_555
Ta4 W1 2.845828 1_566
Ta4 W0 2.853576 1_565
Ta4 W2 2.939259 1_655
Ta5 W1 2.846106 1_465
Ta5 W0 2.852921 1_565
Ta5 W2 2.939203 1_554
Re0 Si0 2.410954 1_555
Re0 Si1 2.410998 1_655
Re0 Si4 2.543393 1_555
Re0 Si3 2.544497 1_555
Re0 Ta1 2.887012 1_555
Re0 Ta2 2.888667 1_556
Re0 Ta0 2.970174 1_555
Re0 Ta3 2.970655 1_655
Re0 Ta5 2.977277 1_656
Re0 Ta4 2.977937 1_555
Re1 Si0 2.421825 1_555
Re1 Si1 2.421861 1_554
Re1 Si3 2.582358 1_565
Re1 Si4 2.586586 1_554
Re1 Ta3 2.874250 1_665
Re1 Ta0 2.874338 1_565
Re1 Ta1 2.914082 1_554
Re1 Ta2 2.918959 1_555
Re1 Ta4 2.944044 1_555
Re1 Ta5 2.944610 1_555
Re2 Si0 2.398261 1_555
Re2 Si1 2.399251 1_554
Re2 Si2 2.539308 1_555
Re2 Si5 2.546478 1_554
Re2 Ta2 2.892213 1_455
Re2 Ta1 2.892515 1_555
Re2 Ta3 2.966222 1_554
Re2 Ta0 2.966440 1_555
Re2 Ta4 2.978293 1_555
Re2 Ta5 2.980240 1_555
Si0 W2 2.433532 1_655
Si0 W0 2.445092 1_554
Si0 W1 2.451114 1_555
Si0 Ta2 2.747338 1_555
Si0 Ta0 2.754408 1_555
Si0 Ta4 2.755661 1_555
Si1 W2 2.435050 1_555
Si1 W0 2.445266 1_555
Si1 W1 2.451482 1_455
Si1 Ta1 2.748243 1_555
Si1 Ta5 2.753241 1_556
Si1 Ta3 2.753652 1_555
Si2 W2 2.596417 1_555
Si2 W0 2.620595 1_565
Si2 Ta0 2.656785 1_566
Si2 Ta3 2.658489 1_565
Si2 Ta5 2.672246 1_555
Si2 Ta4 2.673718 1_555
Si2 Ta2 2.685487 1_455
Si2 Ta1 2.686560 1_555
Si3 W0 2.620022 1_555
Si3 Ta5 2.659568 1_545
Si3 Ta4 2.660076 1_545
Si3 Ta1 2.678002 1_555
Si3 Ta2 2.678193 1_556
Si3 Ta3 2.688921 1_655
Si3 Ta0 2.689374 1_555
Si4 W1 2.617398 1_566
Si4 Ta0 2.657051 1_566
Si4 Ta3 2.658423 1_666
Si4 Ta5 2.677589 1_656
Si4 Ta4 2.680178 1_555
Si4 Ta1 2.681689 1_555
Si4 Ta2 2.684471 1_556
Si5 W2 2.589204 1_545
Si5 W1 2.622443 1_456
Si5 Ta5 2.657392 1_546
Si5 Ta4 2.658736 1_445
Si5 Ta2 2.663017 1_456
Si5 Ta1 2.664447 1_556
Si5 Ta3 2.688537 1_555
Si5 Ta0 2.689310 1_556
