# generated using pymatgen
data_Th7Co3
_symmetry_space_group_name_H-M   'P 1'
_cell_length_a   9.70535916
_cell_length_b   9.70533685
_cell_length_c   6.20273879
_cell_angle_alpha   90.00000000
_cell_angle_beta   90.00000000
_cell_angle_gamma   119.99992009
_symmetry_Int_Tables_number   1
_chemical_formula_structural   Th7Co3
_chemical_formula_sum   'Th14 Co6'
_cell_volume   505.98390078
_cell_formula_units_Z   2
loop_
 _symmetry_equiv_pos_site_id
 _symmetry_equiv_pos_as_xyz
  1  'x, y, z'
loop_
 _atom_site_type_symbol
 _atom_site_label
 _atom_site_symmetry_multiplicity
 _atom_site_fract_x
 _atom_site_fract_y
 _atom_site_fract_z
 _atom_site_occupancy
  Th  Th0  1  0.33333041  0.66666571  0.04758964  1
  Th  Th1  1  0.66666959  0.33333429  0.54758964  1
  Th  Th2  1  0.12572721  0.87426452  0.24684409  1
  Th  Th3  1  0.25145835  0.12573067  0.74685140  1
  Th  Th4  1  0.87427279  0.74853731  0.74684409  1
  Th  Th5  1  0.12572721  0.25146269  0.24684409  1
  Th  Th6  1  0.74854165  0.87426933  0.24685140  1
  Th  Th7  1  0.87427279  0.12573548  0.74684409  1
  Th  Th8  1  0.54428238  0.45572324  0.05144602  1
  Th  Th9  1  0.08855699  0.54427850  0.55145154  1
  Th  Th10  1  0.45571762  0.91144186  0.55144602  1
  Th  Th11  1  0.54428238  0.08855814  0.05144602  1
  Th  Th12  1  0.91144301  0.45572150  0.05145154  1
  Th  Th13  1  0.45571762  0.54427676  0.55144602  1
  Co  Co0  1  0.81544649  0.18455690  0.29584375  1
  Co  Co1  1  0.63088916  0.81544408  0.79584069  1
  Co  Co2  1  0.18455351  0.36910842  0.79584375  1
  Co  Co3  1  0.81544649  0.63089158  0.29584375  1
  Co  Co4  1  0.36911084  0.18455592  0.29584069  1
  Co  Co5  1  0.18455351  0.81544310  0.79584375  1
loop_
_geom_bond_atom_site_label_1
_geom_bond_atom_site_label_2
_geom_bond_distance
_geom_bond_site_symmetry_2
Co0 Th5 2.761711 1_655
Co0 Th6 2.761766 1_545
Co0 Th12 2.764077 1_555
Co0 Th11 2.764094 1_555
Co0 Th1 2.948416 1_555
Co0 Th7 2.967062 1_555
Co1 Th4 2.761794 1_555
Co1 Th7 2.761801 1_565
Co1 Th13 2.764109 1_555
Co1 Th10 2.764121 1_555
Co1 Th0 2.948463 1_556
Co1 Th6 2.967137 1_556
Co2 Th7 2.761705 1_455
Co2 Th3 2.761719 1_555
Co2 Th9 2.764092 1_555
Co2 Th13 2.764098 1_555
Co2 Th0 2.948437 1_556
Co2 Th5 2.967056 1_556
Co3 Th2 2.761705 1_655
Co3 Th6 2.761719 1_555
Co3 Th12 2.764092 1_555
Co3 Th8 2.764098 1_555
Co3 Th1 2.948437 1_555
Co3 Th4 2.967056 1_555
Co4 Th5 2.761794 1_555
Co4 Th2 2.761801 1_545
Co4 Th8 2.764109 1_555
Co4 Th11 2.764121 1_555
Co4 Th1 2.948463 1_555
Co4 Th3 2.967137 1_555
Co5 Th4 2.761711 1_455
Co5 Th3 2.761766 1_565
Co5 Th9 2.764077 1_555
Co5 Th10 2.764094 1_555
Co5 Th0 2.948416 1_556
Co5 Th2 2.967062 1_556
