# generated using pymatgen
data_K2TcNiP2
_symmetry_space_group_name_H-M   'P 1'
_cell_length_a   3.85361090
_cell_length_b   3.85361090
_cell_length_c   10.71237736
_cell_angle_alpha   90.00000000
_cell_angle_beta   90.00000000
_cell_angle_gamma   90.00000000
_symmetry_Int_Tables_number   1
_chemical_formula_structural   K2TcNiP2
_chemical_formula_sum   'K2 Tc1 Ni1 P2'
_cell_volume   159.08219948
_cell_formula_units_Z   1
loop_
 _symmetry_equiv_pos_site_id
 _symmetry_equiv_pos_as_xyz
  1  'x, y, z'
loop_
 _atom_site_type_symbol
 _atom_site_label
 _atom_site_symmetry_multiplicity
 _atom_site_fract_x
 _atom_site_fract_y
 _atom_site_fract_z
 _atom_site_occupancy
  K  K0  1  0.00000000  0.50000000  0.28877889  1
  K  K1  1  0.50000000  0.00000000  0.71122111  1
  Tc  Tc0  1  0.00000000  0.00000000  0.00000000  1
  Ni  Ni0  1  0.50000000  0.50000000  0.00000000  1
  P  P0  1  0.00000000  0.50000000  0.88321304  1
  P  P1  1  0.50000000  0.00000000  0.11678696  1
loop_
_geom_bond_atom_site_label_1
_geom_bond_atom_site_label_2
_geom_bond_distance
_geom_bond_site_symmetry_2
K0 P1 3.289339 1_565
K0 P1 3.289339 1_465
K0 P1 3.289339 1_555
K0 P1 3.289339 1_455
K1 P0 3.289339 1_645
K1 P0 3.289339 1_555
K1 P0 3.289339 1_655
K1 P0 3.289339 1_545
Ni0 P1 2.297334 1_565
Ni0 P1 2.297334 1_555
Ni0 P0 2.297334 1_554
Ni0 P0 2.297334 1_654
P0 Tc0 2.297334 1_566
P0 Tc0 2.297334 1_556
P1 Tc0 2.297334 1_555
P1 Tc0 2.297334 1_655
