# generated using pymatgen
data_Y3Ag(Ir2O7)2
_symmetry_space_group_name_H-M   'P 1'
_cell_length_a   7.26914469
_cell_length_b   7.26914517
_cell_length_c   7.11414864
_cell_angle_alpha   59.27664049
_cell_angle_beta   59.27664084
_cell_angle_gamma   60.00000435
_symmetry_Int_Tables_number   1
_chemical_formula_structural   Y3Ag(Ir2O7)2
_chemical_formula_sum   'Y3 Ag1 Ir4 O14'
_cell_volume   262.86856834
_cell_formula_units_Z   1
loop_
 _symmetry_equiv_pos_site_id
 _symmetry_equiv_pos_as_xyz
  1  'x, y, z'
loop_
 _atom_site_type_symbol
 _atom_site_label
 _atom_site_symmetry_multiplicity
 _atom_site_fract_x
 _atom_site_fract_y
 _atom_site_fract_z
 _atom_site_occupancy
  Y  Y0  1  0.62500000  0.12500000  0.12500000  1
  Y  Y1  1  0.12500000  0.62500000  0.12500000  1
  Y  Y2  1  0.12500000  0.12500000  0.12500000  1
  Ag  Ag0  1  0.12500000  0.12500000  0.62500000  1
  Ir  Ir0  1  0.12500000  0.62500000  0.62500000  1
  Ir  Ir1  1  0.62500000  0.12500000  0.62500000  1
  Ir  Ir2  1  0.62500000  0.62500000  0.12500000  1
  Ir  Ir3  1  0.62500000  0.62500000  0.62500000  1
  O  O0  1  0.71205295  0.71205295  0.28527866  1
  O  O1  1  0.29845672  0.29845672  0.70904285  1
  O  O2  1  0.69404271  0.29845672  0.70904285  1
  O  O3  1  0.29061544  0.71205295  0.28527866  1
  O  O4  1  0.29845672  0.69404271  0.70904285  1
  O  O5  1  0.71205295  0.29061544  0.28527866  1
  O  O6  1  0.53794705  0.53794705  0.96472134  1
  O  O7  1  0.95154328  0.95154328  0.54095715  1
  O  O8  1  0.55595729  0.95154328  0.54095715  1
  O  O9  1  0.95938456  0.53794705  0.96472134  1
  O  O10  1  0.95154328  0.55595729  0.54095715  1
  O  O11  1  0.53794705  0.95938456  0.96472134  1
  O  O12  1  0.25012244  0.25012244  0.24963369  1
  O  O13  1  0.99987756  0.99987756  0.00036631  1
loop_
_geom_bond_atom_site_label_1
_geom_bond_atom_site_label_2
_geom_bond_distance
_geom_bond_site_symmetry_2
Ag0 O13 2.156238 1_446
Ag0 O12 2.156238 1_555
Ag0 O1 2.582158 1_555
Ag0 O7 2.582158 1_445
Ag0 O8 2.582165 1_545
Ag0 O2 2.582165 1_455
Ag0 O10 2.582165 1_455
Ag0 O4 2.582165 1_545
Ir0 O4 1.977095 1_555
Ir0 O10 1.977095 1_455
Ir0 O7 1.977101 1_455
Ir0 O1 1.977101 1_555
Ir0 O9 1.979138 1_455
Ir0 O3 1.979138 1_555
Ir1 O2 1.977095 1_555
Ir1 O8 1.977095 1_545
Ir1 O7 1.977100 1_545
Ir1 O1 1.977100 1_555
Ir1 O11 1.979138 1_545
Ir1 O5 1.979138 1_555
Ir2 O0 1.993993 1_555
Ir2 O6 1.993993 1_554
Ir2 O3 1.993993 1_555
Ir2 O9 1.993993 1_554
Ir2 O11 1.993993 1_554
Ir2 O5 1.993993 1_555
Ir3 O10 1.977102 1_555
Ir3 O4 1.977102 1_555
Ir3 O8 1.977102 1_555
Ir3 O2 1.977102 1_555
Ir3 O6 1.979138 1_555
Ir3 O0 1.979138 1_555
O0 Y1 2.460010 1_655
O0 Y0 2.460010 1_565
O1 Y2 2.429256 1_556
O2 Y0 2.429257 1_556
O3 Y1 2.460010 1_555
O3 Y2 2.460010 1_565
O4 Y1 2.429257 1_556
O5 Y0 2.460010 1_555
O5 Y2 2.460010 1_655
O6 Y1 2.460010 1_556
O6 Y0 2.460010 1_556
O7 Y2 2.429256 1_665
O8 Y0 2.429257 1_565
O9 Y1 2.460010 1_656
O9 Y2 2.460010 1_656
O10 Y1 2.429257 1_655
O11 Y0 2.460010 1_566
O11 Y2 2.460010 1_566
O12 Y0 2.217191 1_555
O12 Y1 2.217191 1_555
O12 Y2 2.217196 1_555
O13 Y0 2.217191 1_565
O13 Y1 2.217191 1_655
O13 Y2 2.217196 1_665
