# generated using pymatgen
data_TiTcSbRu
_symmetry_space_group_name_H-M   'P 1'
_cell_length_a   4.43415961
_cell_length_b   4.43415959
_cell_length_c   4.43416049
_cell_angle_alpha   60.00000792
_cell_angle_beta   60.00000805
_cell_angle_gamma   60.00001369
_symmetry_Int_Tables_number   1
_chemical_formula_structural   TiTcSbRu
_chemical_formula_sum   'Ti1 Tc1 Sb1 Ru1'
_cell_volume   61.64802230
_cell_formula_units_Z   1
loop_
 _symmetry_equiv_pos_site_id
 _symmetry_equiv_pos_as_xyz
  1  'x, y, z'
loop_
 _atom_site_type_symbol
 _atom_site_label
 _atom_site_symmetry_multiplicity
 _atom_site_fract_x
 _atom_site_fract_y
 _atom_site_fract_z
 _atom_site_occupancy
  Ti  Ti0  1  0.25000000  0.25000000  0.25000000  1
  Tc  Tc0  1  0.00000000  0.00000000  0.00000000  1
  Sb  Sb0  1  0.75000000  0.75000000  0.75000000  1
  Ru  Ru0  1  0.50000000  0.50000000  0.50000000  1
loop_
_geom_bond_atom_site_label_1
_geom_bond_atom_site_label_2
_geom_bond_distance
_geom_bond_site_symmetry_2
Tc0 Ti0 2.715357 1_555
Tc0 Ti0 2.715357 1_545
Tc0 Ti0 2.715358 1_455
Tc0 Ti0 2.715358 1_554
Sb0 Tc0 2.715357 1_666
Sb0 Tc0 2.715357 1_656
Sb0 Tc0 2.715358 1_566
Sb0 Tc0 2.715358 1_665
Sb0 Ti0 3.135424 1_556
Sb0 Ti0 3.135424 1_665
Sb0 Ti0 3.135425 1_655
Sb0 Ti0 3.135425 1_566
Sb0 Ti0 3.135425 1_565
Sb0 Ti0 3.135425 1_656
Ru0 Ti0 2.715357 1_555
Ru0 Sb0 2.715357 1_555
Ru0 Sb0 2.715357 1_545
Ru0 Ti0 2.715357 1_565
Ru0 Ti0 2.715358 1_655
Ru0 Sb0 2.715358 1_455
Ru0 Sb0 2.715358 1_554
Ru0 Ti0 2.715358 1_556
