# generated using pymatgen
data_FeHg4Ir3O14
_symmetry_space_group_name_H-M   'P 1'
_cell_length_a   7.22875964
_cell_length_b   7.18970147
_cell_length_c   7.18970103
_cell_angle_alpha   60.35974439
_cell_angle_beta   90.00000000
_cell_angle_gamma   59.82013054
_symmetry_Int_Tables_number   1
_chemical_formula_structural   FeHg4Ir3O14
_chemical_formula_sum   'Fe1 Hg4 Ir3 O14'
_cell_volume   264.93378525
_cell_formula_units_Z   1
loop_
 _symmetry_equiv_pos_site_id
 _symmetry_equiv_pos_as_xyz
  1  'x, y, z'
loop_
 _atom_site_type_symbol
 _atom_site_label
 _atom_site_symmetry_multiplicity
 _atom_site_fract_x
 _atom_site_fract_y
 _atom_site_fract_z
 _atom_site_occupancy
  Fe  Fe0  1  0.00000000  0.00000000  0.50000000  1
  Hg  Hg0  1  0.49999900  0.00000000  0.00000000  1
  Hg  Hg1  1  0.00000000  0.50000000  0.00000000  1
  Hg  Hg2  1  0.50000100  0.50000000  0.00000000  1
  Hg  Hg3  1  0.50000100  0.00000000  0.50000000  1
  Ir  Ir0  1  0.00000000  0.00000000  0.00000000  1
  Ir  Ir1  1  0.00000000  0.49999800  0.50000200  1
  Ir  Ir2  1  0.50000100  0.49999800  0.50000200  1
  O  O0  1  0.37563367  0.24873166  0.12436433  1
  O  O1  1  0.32554488  0.74585943  0.17445212  1
  O  O2  1  0.92859470  0.74585943  0.17445212  1
  O  O3  1  0.93524444  0.12951012  0.18684420  1
  O  O4  1  0.06475356  0.24840224  0.43524344  1
  O  O5  1  0.68684420  0.24840224  0.43524344  1
  O  O6  1  0.67445312  0.65109475  0.42859670  1
  O  O7  1  0.31315580  0.75159876  0.56475556  1
  O  O8  1  0.93524444  0.75159876  0.56475556  1
  O  O9  1  0.32554688  0.34890425  0.57140530  1
  O  O10  1  0.06475656  0.87048888  0.81315480  1
  O  O11  1  0.07140530  0.25414257  0.82554688  1
  O  O12  1  0.67445212  0.25414257  0.82554688  1
  O  O13  1  0.62436533  0.75126934  0.87563567  1
loop_
_geom_bond_atom_site_label_1
_geom_bond_atom_site_label_2
_geom_bond_distance
_geom_bond_site_symmetry_2
Fe0 O10 1.908793 1_545
Fe0 O3 1.908802 1_455
Fe0 O7 1.908802 1_545
Fe0 O4 1.908802 1_555
Fe0 O5 1.908802 1_455
Fe0 O8 1.908807 1_445
Hg0 O13 2.184231 1_544
Hg0 O0 2.184237 1_555
Hg0 O11 2.559702 1_554
Hg0 O9 2.559707 1_554
Hg0 O1 2.559709 1_545
Hg0 O12 2.559714 1_554
Hg0 O2 2.559715 1_545
Hg0 O6 2.559718 1_545
Hg1 O0 2.215066 1_555
Hg1 O13 2.215072 1_454
Hg1 O11 2.497949 1_554
Hg1 O2 2.497955 1_455
Hg1 O4 2.614071 1_555
Hg1 O8 2.614075 1_454
Hg1 O10 2.614080 1_554
Hg1 O3 2.614081 1_455
Hg2 O13 2.215066 1_554
Hg2 O0 2.215078 1_555
Hg2 O12 2.497947 1_554
Hg2 O1 2.497957 1_555
Hg2 O5 2.614070 1_555
Hg2 O3 2.614071 1_555
Hg2 O10 2.614075 1_554
Hg2 O7 2.614077 1_554
Hg3 O13 2.215078 1_545
Hg3 O0 2.215078 1_555
Hg3 O6 2.497939 1_545
Hg3 O9 2.497943 1_555
Hg3 O8 2.614069 1_545
Hg3 O5 2.614080 1_555
Hg3 O7 2.614087 1_545
Hg3 O4 2.614092 1_555
Ir0 O3 1.920866 1_455
Ir0 O10 1.920878 1_544
Ir0 O1 1.964607 1_545
Ir0 O2 1.964613 1_445
Ir0 O11 1.964625 1_554
Ir0 O12 1.964625 1_454
Ir1 O4 1.920862 1_555
Ir1 O8 1.920867 1_455
Ir1 O11 1.964605 1_555
Ir1 O6 1.964615 1_455
Ir1 O9 1.964619 1_555
Ir1 O2 1.964639 1_455
Ir2 O5 1.920864 1_555
Ir2 O7 1.920867 1_555
Ir2 O12 1.964606 1_555
Ir2 O9 1.964626 1_555
Ir2 O6 1.964629 1_555
Ir2 O1 1.964639 1_555
