# generated using pymatgen
data_CaCd5PdO8
_symmetry_space_group_name_H-M   'P 1'
_cell_length_a   6.61891341
_cell_length_b   6.61991111
_cell_length_c   6.61991214
_cell_angle_alpha   59.79515809
_cell_angle_beta   60.00498779
_cell_angle_gamma   60.00499024
_symmetry_Int_Tables_number   1
_chemical_formula_structural   CaCd5PdO8
_chemical_formula_sum   'Ca1 Cd5 Pd1 O8'
_cell_volume   204.80091295
_cell_formula_units_Z   1
loop_
 _symmetry_equiv_pos_site_id
 _symmetry_equiv_pos_as_xyz
  1  'x, y, z'
loop_
 _atom_site_type_symbol
 _atom_site_label
 _atom_site_symmetry_multiplicity
 _atom_site_fract_x
 _atom_site_fract_y
 _atom_site_fract_z
 _atom_site_occupancy
  Ca  Ca0  1  0.00000000  0.50000000  0.50000000  1
  Cd  Cd0  1  0.50000000  0.00000000  0.00000000  1
  Cd  Cd1  1  0.50000000  0.00000000  0.50000000  1
  Cd  Cd2  1  0.00000000  0.00000000  0.50000000  1
  Cd  Cd3  1  0.50000000  0.50000000  0.00000000  1
  Cd  Cd4  1  0.00000000  0.50000000  0.00000000  1
  Pd  Pd0  1  0.00000000  0.00000000  0.00000000  1
  O  O0  1  0.78381866  0.21618134  0.21618134  1
  O  O1  1  0.24963810  0.25036190  0.25036190  1
  O  O2  1  0.21860106  0.78341954  0.21658046  1
  O  O3  1  0.21860106  0.21658046  0.78341954  1
  O  O4  1  0.78139894  0.21658046  0.78341954  1
  O  O5  1  0.78139894  0.78341954  0.21658046  1
  O  O6  1  0.75036190  0.74963810  0.74963810  1
  O  O7  1  0.21618134  0.78381866  0.78381866  1
loop_
_geom_bond_atom_site_label_1
_geom_bond_atom_site_label_2
_geom_bond_distance
_geom_bond_site_symmetry_2
Ca0 O6 2.340892 1_455
Ca0 O1 2.340892 1_555
Ca0 O2 2.364724 1_555
Ca0 O4 2.364724 1_455
Ca0 O3 2.364724 1_555
Ca0 O5 2.364724 1_455
Cd0 O1 2.347679 1_555
Cd0 O6 2.347679 1_544
Cd0 O4 2.347768 1_554
Cd0 O2 2.347768 1_545
Cd0 O5 2.347768 1_545
Cd0 O3 2.347768 1_554
Cd1 O6 2.336696 1_545
Cd1 O1 2.336696 1_555
Cd1 O0 2.358114 1_555
Cd1 O7 2.358114 1_545
Cd1 O3 2.363791 1_555
Cd1 O5 2.363791 1_545
Cd2 O1 2.336695 1_555
Cd2 O6 2.336695 1_445
Cd2 O7 2.358114 1_545
Cd2 O0 2.358114 1_455
Cd2 O4 2.363791 1_455
Cd2 O2 2.363791 1_545
Cd3 O6 2.336695 1_554
Cd3 O1 2.336695 1_555
Cd3 O0 2.358114 1_555
Cd3 O7 2.358114 1_554
Cd3 O2 2.363791 1_555
Cd3 O4 2.363791 1_554
Cd4 O1 2.336696 1_555
Cd4 O6 2.336696 1_454
Cd4 O7 2.358114 1_554
Cd4 O0 2.358114 1_455
Cd4 O5 2.363791 1_455
Cd4 O3 2.363791 1_554
O0 Pd0 2.027163 1_655
O2 Pd0 2.033821 1_565
O3 Pd0 2.033821 1_556
O4 Pd0 2.033821 1_656
O5 Pd0 2.033821 1_665
O7 Pd0 2.027163 1_566
