# generated using pymatgen
data_Ta3Ga(AsO4)6
_symmetry_space_group_name_H-M   'P 1'
_cell_length_a   9.20848551
_cell_length_b   9.20848487
_cell_length_c   9.20848464
_cell_angle_alpha   56.80550653
_cell_angle_beta   56.80550147
_cell_angle_gamma   56.80550037
_symmetry_Int_Tables_number   1
_chemical_formula_structural   Ta3Ga(AsO4)6
_chemical_formula_sum   'Ta3 Ga1 As6 O24'
_cell_volume   511.43218224
_cell_formula_units_Z   1
loop_
 _symmetry_equiv_pos_site_id
 _symmetry_equiv_pos_as_xyz
  1  'x, y, z'
loop_
 _atom_site_type_symbol
 _atom_site_label
 _atom_site_symmetry_multiplicity
 _atom_site_fract_x
 _atom_site_fract_y
 _atom_site_fract_z
 _atom_site_occupancy
  Ta  Ta0  1  0.14422266  0.14422266  0.14422266  1
  Ta  Ta1  1  0.35846558  0.35846558  0.35846558  1
  Ta  Ta2  1  0.63865800  0.63865800  0.63865800  1
  Ga  Ga0  1  0.85464513  0.85464513  0.85464513  1
  As  As0  1  0.03015520  0.48532275  0.74475966  1
  As  As1  1  0.48532275  0.74475966  0.03015520  1
  As  As2  1  0.74475966  0.03015520  0.48532275  1
  As  As3  1  0.23631275  0.96720062  0.53936253  1
  As  As4  1  0.53936253  0.23631275  0.96720062  1
  As  As5  1  0.96720062  0.53936253  0.23631275  1
  O  O0  1  0.12954960  0.49783488  0.30256551  1
  O  O1  1  0.30256551  0.12954960  0.49783488  1
  O  O2  1  0.02668560  0.31555090  0.95663572  1
  O  O3  1  0.49783488  0.30256551  0.12954960  1
  O  O4  1  0.23500467  0.39704670  0.59376537  1
  O  O5  1  0.01704174  0.68905954  0.70885141  1
  O  O6  1  0.31555090  0.95663572  0.02668560  1
  O  O7  1  0.39704670  0.59376537  0.23500467  1
  O  O8  1  0.59376537  0.23500467  0.39704670  1
  O  O9  1  0.26811173  0.98844340  0.32951569  1
  O  O10  1  0.02221038  0.99519856  0.69207774  1
  O  O11  1  0.32951569  0.26811173  0.98844340  1
  O  O12  1  0.68905954  0.70885141  0.01704174  1
  O  O13  1  0.95663572  0.02668560  0.31555090  1
  O  O14  1  0.70885141  0.01704174  0.68905954  1
  O  O15  1  0.40044959  0.76142353  0.60634188  1
  O  O16  1  0.60634188  0.40044959  0.76142353  1
  O  O17  1  0.69207774  0.02221038  0.99519856  1
  O  O18  1  0.98844340  0.32951569  0.26811173  1
  O  O19  1  0.76142353  0.60634188  0.40044959  1
  O  O20  1  0.49933728  0.70508684  0.86310586  1
  O  O21  1  0.99519856  0.69207774  0.02221038  1
  O  O22  1  0.70508684  0.86310586  0.49933728  1
  O  O23  1  0.86310586  0.49933728  0.70508684  1
loop_
_geom_bond_atom_site_label_1
_geom_bond_atom_site_label_2
_geom_bond_distance
_geom_bond_site_symmetry_2
Ga0 O17 1.957819 1_565
Ga0 O21 1.957819 1_556
Ga0 O10 1.957819 1_655
Ga0 O5 1.977401 1_655
Ga0 O14 1.977401 1_565
Ga0 O12 1.977401 1_556
As0 O5 1.661351 1_555
As0 O4 1.684955 1_555
As0 O23 1.691964 1_455
As0 O2 1.702436 1_555
As1 O12 1.661351 1_555
As1 O7 1.684955 1_555
As1 O20 1.691964 1_554
As1 O6 1.702436 1_555
As2 O14 1.661351 1_555
As2 O8 1.684955 1_555
As2 O22 1.691964 1_545
As2 O13 1.702436 1_555
As3 O10 1.653993 1_555
As3 O15 1.691314 1_555
As3 O1 1.694308 1_565
As3 O9 1.699211 1_555
As4 O17 1.653993 1_555
As4 O16 1.691314 1_555
As4 O3 1.694308 1_556
As4 O11 1.699211 1_555
As5 O21 1.653993 1_555
As5 O19 1.691314 1_555
As5 O0 1.694308 1_655
As5 O18 1.699211 1_555
O0 Ta1 1.964206 1_555
O1 Ta1 1.964206 1_555
O2 Ta0 1.959020 1_556
O3 Ta1 1.964205 1_555
O4 Ta1 1.953688 1_555
O6 Ta0 1.959020 1_565
O7 Ta1 1.953689 1_555
O8 Ta1 1.953689 1_555
O9 Ta0 1.982433 1_565
O11 Ta0 1.982433 1_556
O13 Ta0 1.959020 1_655
O15 Ta2 1.951742 1_555
O16 Ta2 1.951742 1_555
O18 Ta0 1.982432 1_655
O19 Ta2 1.951742 1_555
O20 Ta2 1.978260 1_555
O22 Ta2 1.978260 1_555
O23 Ta2 1.978260 1_555
