# generated using pymatgen
data_RbAg7S4
_symmetry_space_group_name_H-M   'P 1'
_cell_length_a   11.21437600
_cell_length_b   11.21437600
_cell_length_c   8.52521000
_cell_angle_alpha   90.00000000
_cell_angle_beta   90.00000000
_cell_angle_gamma   90.00000000
_symmetry_Int_Tables_number   1
_chemical_formula_structural   RbAg7S4
_chemical_formula_sum   'Rb4 Ag28 S16'
_cell_volume   1072.14941288
_cell_formula_units_Z   4
loop_
 _symmetry_equiv_pos_site_id
 _symmetry_equiv_pos_as_xyz
  1  'x, y, z'
loop_
 _atom_site_type_symbol
 _atom_site_label
 _atom_site_symmetry_multiplicity
 _atom_site_fract_x
 _atom_site_fract_y
 _atom_site_fract_z
 _atom_site_occupancy
  Rb  Rb0  1  0.50000000  0.00000000  0.12428700  1
  Rb  Rb1  1  0.00000000  0.50000000  0.87571300  1
  Rb  Rb2  1  0.50000000  0.00000000  0.62368000  1
  Rb  Rb3  1  0.00000000  0.50000000  0.37632000  1
  Ag  Ag0  1  0.86288300  0.01893700  0.12304000  1
  Ag  Ag1  1  0.01893700  0.13711700  0.87696000  1
  Ag  Ag2  1  0.98106300  0.86288300  0.87696000  1
  Ag  Ag3  1  0.63711700  0.48106300  0.87696000  1
  Ag  Ag4  1  0.36288300  0.51893700  0.87696000  1
  Ag  Ag5  1  0.04034300  0.14217300  0.38368900  1
  Ag  Ag6  1  0.95965700  0.85782700  0.38368900  1
  Ag  Ag7  1  0.64217300  0.45965700  0.38368900  1
  Ag  Ag8  1  0.14217300  0.95965700  0.61631100  1
  Ag  Ag9  1  0.45965700  0.35782700  0.61631100  1
  Ag  Ag10  1  0.54034300  0.64217300  0.61631100  1
  Ag  Ag11  1  0.85782700  0.04034300  0.61631100  1
  Ag  Ag12  1  0.51893700  0.63711700  0.12304000  1
  Ag  Ag13  1  0.48106300  0.36288300  0.12304000  1
  Ag  Ag14  1  0.13711700  0.98106300  0.12304000  1
  Ag  Ag15  1  0.21158800  0.22757200  0.66134400  1
  Ag  Ag16  1  0.72757200  0.28841200  0.66134400  1
  Ag  Ag17  1  0.27242800  0.71158800  0.66134400  1
  Ag  Ag18  1  0.78841200  0.77242800  0.66134400  1
  Ag  Ag19  1  0.28841200  0.27242800  0.33865600  1
  Ag  Ag20  1  0.77242800  0.21158800  0.33865600  1
  Ag  Ag21  1  0.22757200  0.78841200  0.33865600  1
  Ag  Ag22  1  0.71158800  0.72757200  0.33865600  1
  Ag  Ag23  1  0.25000000  0.75000000  0.00000000  1
  Ag  Ag24  1  0.25000000  0.25000000  0.00000000  1
  Ag  Ag25  1  0.75000000  0.75000000  0.00000000  1
  Ag  Ag26  1  0.75000000  0.25000000  0.00000000  1
  Ag  Ag27  1  0.35782700  0.54034300  0.38368900  1
  S  S0  1  0.05455700  0.75183800  0.62440700  1
  S  S1  1  0.94203800  0.24295300  0.13275100  1
  S  S2  1  0.74295300  0.55796200  0.13275100  1
  S  S3  1  0.25704700  0.44203800  0.13275100  1
  S  S4  1  0.25183800  0.44544300  0.62440700  1
  S  S5  1  0.74816200  0.55455700  0.62440700  1
  S  S6  1  0.94544300  0.24816200  0.62440700  1
  S  S7  1  0.44544300  0.74816200  0.37559300  1
  S  S8  1  0.24816200  0.05455700  0.37559300  1
  S  S9  1  0.05796200  0.75704700  0.13275100  1
  S  S10  1  0.75183800  0.94544300  0.37559300  1
  S  S11  1  0.44203800  0.74295300  0.86724900  1
  S  S12  1  0.24295300  0.05796200  0.86724900  1
  S  S13  1  0.75704700  0.94203800  0.86724900  1
  S  S14  1  0.55796200  0.25704700  0.86724900  1
  S  S15  1  0.55455700  0.25183800  0.37559300  1
loop_
_geom_bond_atom_site_label_1
_geom_bond_atom_site_label_2
_geom_bond_distance
_geom_bond_site_symmetry_2
Rb0 S8 3.597291 1_555
Rb0 S7 3.597291 1_545
Rb0 S15 3.597291 1_555
Rb0 S10 3.597291 1_545
Rb0 S14 3.678835 1_554
Rb0 S13 3.678835 1_544
Rb0 S12 3.678835 1_554
Rb0 S11 3.678835 1_544
Rb1 S5 3.597291 1_455
Rb1 S6 3.597291 1_455
Rb1 S0 3.597291 1_555
Rb1 S4 3.597291 1_555
Rb1 S1 3.678835 1_456
Rb1 S2 3.678835 1_456
Rb1 S9 3.678835 1_556
Rb1 S3 3.678835 1_556
Rb2 S8 3.581015 1_555
Rb2 S7 3.581015 1_545
Rb2 S15 3.581015 1_555
Rb2 S10 3.581015 1_545
Rb2 S14 3.611617 1_555
Rb2 S13 3.611617 1_545
Rb2 S11 3.611617 1_545
Rb2 S12 3.611617 1_555
Rb3 S4 3.581015 1_555
Rb3 S5 3.581015 1_455
Rb3 S6 3.581015 1_455
Rb3 S0 3.581015 1_555
Rb3 S3 3.611617 1_555
Rb3 S2 3.611617 1_455
Rb3 S9 3.611617 1_555
Rb3 S1 3.611617 1_455
Ag0 S10 2.620260 1_545
Ag0 S13 2.628253 1_544
Ag0 S1 2.665702 1_555
Ag1 S6 2.620260 1_455
Ag1 S1 2.628253 1_456
Ag1 S12 2.665702 1_555
Ag2 S0 2.620260 1_655
Ag2 S9 2.628253 1_656
Ag2 S13 2.665702 1_555
Ag3 S5 2.620260 1_555
Ag3 S2 2.628253 1_556
Ag3 S14 2.665702 1_555
Ag4 S4 2.620260 1_555
Ag4 S3 2.628253 1_556
Ag4 S11 2.665702 1_555
Ag5 S8 2.530158 1_555
Ag5 S6 2.599384 1_455
Ag5 S1 2.658810 1_455
Ag6 S10 2.530158 1_555
Ag6 S0 2.599384 1_655
Ag6 S9 2.658810 1_655
Ag7 S15 2.530158 1_555
Ag7 S5 2.599384 1_555
Ag7 S2 2.658810 1_555
Ag8 S0 2.530158 1_555
Ag8 S8 2.599384 1_565
Ag8 S12 2.658810 1_565
Ag9 S4 2.530158 1_555
Ag9 S15 2.599384 1_555
Ag9 S14 2.658810 1_555
Ag10 S5 2.530158 1_555
Ag10 S7 2.599384 1_555
Ag10 S11 2.658810 1_555
Ag11 S6 2.530158 1_555
Ag11 S10 2.599384 1_545
Ag11 S13 2.658810 1_545
Ag12 S7 2.620260 1_555
Ag12 S11 2.628253 1_554
Ag12 S2 2.665702 1_555
Ag13 S15 2.620260 1_555
Ag13 S14 2.628253 1_554
Ag13 S3 2.665702 1_555
Ag14 S8 2.620260 1_565
Ag14 S12 2.628253 1_564
Ag14 S9 2.665702 1_555
Ag15 S4 2.504507 1_555
Ag15 S12 2.612080 1_555
Ag15 S6 3.010085 1_455
Ag15 S8 3.141232 1_555
Ag16 S6 2.504507 1_555
Ag16 S14 2.612080 1_555
Ag16 S5 3.010085 1_555
Ag16 S15 3.141232 1_555
Ag17 S0 2.504507 1_555
Ag17 S11 2.612080 1_555
Ag17 S4 3.010085 1_555
Ag17 S7 3.141232 1_555
Ag18 S5 2.504507 1_555
Ag18 S13 2.612080 1_555
Ag18 S0 3.010085 1_655
Ag18 S10 3.141232 1_555
Ag19 S8 2.504507 1_555
Ag19 S3 2.612080 1_555
Ag19 S15 3.010085 1_555
Ag19 S4 3.141232 1_555
Ag20 S15 2.504507 1_555
Ag20 S1 2.612080 1_555
Ag20 S10 3.010085 1_545
Ag20 S6 3.141232 1_555
Ag21 S7 2.504507 1_555
Ag21 S9 2.612080 1_555
Ag21 S8 3.010085 1_565
Ag21 S0 3.141232 1_555
Ag22 S10 2.504507 1_555
Ag22 S2 2.612080 1_555
Ag22 S7 3.010085 1_555
Ag22 S5 3.141232 1_555
Ag23 S11 2.434131 1_554
Ag23 S9 2.434131 1_555
Ag24 S12 2.434131 1_554
Ag24 S3 2.434131 1_555
Ag25 S13 2.434131 1_554
Ag25 S2 2.434131 1_555
Ag26 S14 2.434131 1_554
Ag26 S1 2.434131 1_555
Ag27 S7 2.530158 1_555
Ag27 S4 2.599384 1_555
Ag27 S3 2.658810 1_555
