# generated using pymatgen
data_CaTa4Cd3O14
_symmetry_space_group_name_H-M   'P 1'
_cell_length_a   7.33327107
_cell_length_b   7.40734545
_cell_length_c   7.33327076
_cell_angle_alpha   60.33025517
_cell_angle_beta   60.00000142
_cell_angle_gamma   60.33025221
_symmetry_Int_Tables_number   1
_chemical_formula_structural   CaTa4Cd3O14
_chemical_formula_sum   'Ca1 Ta4 Cd3 O14'
_cell_volume   283.06946758
_cell_formula_units_Z   1
loop_
 _symmetry_equiv_pos_site_id
 _symmetry_equiv_pos_as_xyz
  1  'x, y, z'
loop_
 _atom_site_type_symbol
 _atom_site_label
 _atom_site_symmetry_multiplicity
 _atom_site_fract_x
 _atom_site_fract_y
 _atom_site_fract_z
 _atom_site_occupancy
  Ca  Ca0  1  0.12500000  0.62500000  0.12500000  1
  Ta  Ta0  1  0.62500000  0.62500000  0.12500000  1
  Ta  Ta1  1  0.62500000  0.12500000  0.62500000  1
  Ta  Ta2  1  0.12500000  0.62500000  0.62500000  1
  Ta  Ta3  1  0.62500000  0.62500000  0.62500000  1
  Cd  Cd0  1  0.12500000  0.12500000  0.62500000  1
  Cd  Cd1  1  0.62500000  0.12500000  0.12500000  1
  Cd  Cd2  1  0.12500000  0.12500000  0.12500000  1
  O  O0  1  0.30603024  0.69005951  0.30603024  1
  O  O1  1  0.55884862  0.93991351  0.55884862  1
  O  O2  1  0.30760976  0.31008649  0.69115138  1
  O  O3  1  0.69115138  0.31008649  0.30760976  1
  O  O4  1  0.30603024  0.69005951  0.69788001  1
  O  O5  1  0.69788001  0.69005951  0.30603024  1
  O  O6  1  0.94239024  0.93991351  0.55884862  1
  O  O7  1  0.55211999  0.55994049  0.94396976  1
  O  O8  1  0.99452839  0.01641483  0.99452839  1
  O  O9  1  0.25547161  0.23358517  0.25547161  1
  O  O10  1  0.69115138  0.31008649  0.69115138  1
  O  O11  1  0.94396976  0.55994049  0.55211999  1
  O  O12  1  0.55884862  0.93991351  0.94239024  1
  O  O13  1  0.94396976  0.55994049  0.94396976  1
loop_
_geom_bond_atom_site_label_1
_geom_bond_atom_site_label_2
_geom_bond_distance
_geom_bond_site_symmetry_2
Ca0 O8 2.379053 1_464
Ca0 O9 2.379053 1_555
Ca0 O0 2.605015 1_555
Ca0 O11 2.605015 1_455
Ca0 O13 2.605015 1_454
Ca0 O4 2.605015 1_554
Ca0 O7 2.605015 1_554
Ca0 O5 2.605015 1_455
Cd0 O9 2.217429 1_555
Cd0 O8 2.217429 1_455
Cd0 O2 2.652142 1_555
Cd0 O6 2.652142 1_445
Cd0 O1 2.652149 1_545
Cd0 O10 2.652149 1_455
Cd0 O11 2.682969 1_455
Cd0 O4 2.682969 1_545
Cd1 O8 2.217429 1_554
Cd1 O9 2.217429 1_555
Cd1 O3 2.652142 1_555
Cd1 O12 2.652142 1_544
Cd1 O1 2.652148 1_545
Cd1 O10 2.652148 1_554
Cd1 O7 2.682969 1_554
Cd1 O5 2.682969 1_545
Cd2 O9 2.217429 1_555
Cd2 O8 2.217429 1_454
Cd2 O12 2.652147 1_544
Cd2 O3 2.652147 1_455
Cd2 O6 2.652147 1_445
Cd2 O2 2.652147 1_554
Cd2 O13 2.682969 1_454
Cd2 O0 2.682969 1_545
O0 Ta2 1.969292 1_555
O0 Ta0 1.969292 1_555
O1 Ta1 1.975470 1_565
O1 Ta3 1.976561 1_555
O2 Ta1 1.975475 1_555
O2 Ta2 1.976559 1_555
O3 Ta1 1.975475 1_555
O3 Ta0 1.976559 1_555
O4 Ta2 1.969292 1_555
O4 Ta3 1.969292 1_555
O5 Ta0 1.969292 1_555
O5 Ta3 1.969292 1_555
O6 Ta1 1.975475 1_565
O6 Ta2 1.976559 1_655
O7 Ta0 1.969292 1_556
O7 Ta3 1.969292 1_555
O10 Ta1 1.975470 1_555
O10 Ta3 1.976561 1_555
O11 Ta2 1.969292 1_655
O11 Ta3 1.969292 1_555
O12 Ta1 1.975475 1_565
O12 Ta0 1.976559 1_556
O13 Ta2 1.969292 1_655
O13 Ta0 1.969292 1_556
