# generated using pymatgen
data_Ca5(Ga3O7)2
_symmetry_space_group_name_H-M   'P 1'
_cell_length_a   8.14450823
_cell_length_b   8.14450823
_cell_length_c   10.59712300
_cell_angle_alpha   90.00000000
_cell_angle_beta   90.00000000
_cell_angle_gamma   91.11678573
_symmetry_Int_Tables_number   1
_chemical_formula_structural   Ca5(Ga3O7)2
_chemical_formula_sum   'Ca10 Ga12 O28'
_cell_volume   702.80558409
_cell_formula_units_Z   2
loop_
 _symmetry_equiv_pos_site_id
 _symmetry_equiv_pos_as_xyz
  1  'x, y, z'
loop_
 _atom_site_type_symbol
 _atom_site_label
 _atom_site_symmetry_multiplicity
 _atom_site_fract_x
 _atom_site_fract_y
 _atom_site_fract_z
 _atom_site_occupancy
  Ca  Ca0  1  0.94113800  0.25820800  0.24968200  1
  Ca  Ca1  1  0.05886200  0.74179200  0.74968200  1
  Ca  Ca2  1  0.74179200  0.05886200  0.74968200  1
  Ca  Ca3  1  0.25820800  0.94113800  0.24968200  1
  Ca  Ca4  1  0.95803600  0.67205300  0.20204300  1
  Ca  Ca5  1  0.04196400  0.32794700  0.70204300  1
  Ca  Ca6  1  0.32794700  0.04196400  0.70204300  1
  Ca  Ca7  1  0.67205300  0.95803600  0.20204300  1
  Ca  Ca8  1  0.52701000  0.52701000  0.24748800  1
  Ca  Ca9  1  0.47299000  0.47299000  0.74748800  1
  Ga  Ga0  1  0.21117900  0.49783900  0.00966200  1
  Ga  Ga1  1  0.78882100  0.50216100  0.50966200  1
  Ga  Ga2  1  0.49783900  0.21117900  0.00966200  1
  Ga  Ga3  1  0.50216100  0.78882100  0.50966200  1
  Ga  Ga4  1  0.29992200  0.29992200  0.44375600  1
  Ga  Ga5  1  0.70007800  0.70007800  0.94375600  1
  Ga  Ga6  1  0.00043700  0.00043700  0.46692100  1
  Ga  Ga7  1  0.99956300  0.99956300  0.96692100  1
  Ga  Ga8  1  0.15917400  0.64774000  0.47855300  1
  Ga  Ga9  1  0.84082600  0.35226000  0.97855300  1
  Ga  Ga10  1  0.35226000  0.84082600  0.97855300  1
  Ga  Ga11  1  0.64774000  0.15917400  0.47855300  1
  O  O0  1  0.70185600  0.70185600  0.11723400  1
  O  O1  1  0.29814400  0.29814400  0.61723400  1
  O  O2  1  0.50082200  0.25141200  0.36932900  1
  O  O3  1  0.49917900  0.74858800  0.86932900  1
  O  O4  1  0.74858800  0.49917900  0.86932900  1
  O  O5  1  0.25141200  0.50082100  0.36932900  1
  O  O6  1  0.98902400  0.98902400  0.13821800  1
  O  O7  1  0.01097600  0.01097600  0.63821800  1
  O  O8  1  0.48857800  0.81001500  0.33723200  1
  O  O9  1  0.51142200  0.18998500  0.83723200  1
  O  O10  1  0.18998500  0.51142200  0.83723200  1
  O  O11  1  0.81001500  0.48857800  0.33723200  1
  O  O12  1  0.85323300  0.85323300  0.87854700  1
  O  O13  1  0.14676700  0.14676700  0.37854700  1
  O  O14  1  0.80785300  0.06069400  0.37951900  1
  O  O15  1  0.19214700  0.93930600  0.87951900  1
  O  O16  1  0.93930600  0.19214700  0.87951900  1
  O  O17  1  0.06069400  0.80785300  0.37951900  1
  O  O18  1  0.29376600  0.76341800  0.59319300  1
  O  O19  1  0.70623400  0.23658200  0.09319300  1
  O  O20  1  0.23658200  0.70623400  0.09319300  1
  O  O21  1  0.76341800  0.29376600  0.59319300  1
  O  O22  1  0.99176100  0.56513600  0.58524100  1
  O  O23  1  0.00823900  0.43486400  0.08524100  1
  O  O24  1  0.43486400  0.00823900  0.08524100  1
  O  O25  1  0.56513600  0.99176100  0.58524100  1
  O  O26  1  0.61261200  0.61261200  0.57553000  1
  O  O27  1  0.38738800  0.38738800  0.07553000  1
loop_
_geom_bond_atom_site_label_1
_geom_bond_atom_site_label_2
_geom_bond_distance
_geom_bond_site_symmetry_2
Ca0 O23 2.318352 1_655
Ca0 O13 2.356414 1_655
Ca0 O14 2.364571 1_555
Ca0 O11 2.366363 1_555
Ca0 O6 2.527282 1_545
Ca0 O19 2.535390 1_555
Ca1 O22 2.318352 1_455
Ca1 O12 2.356414 1_455
Ca1 O15 2.364571 1_555
Ca1 O10 2.366363 1_555
Ca1 O7 2.527282 1_565
Ca1 O18 2.535390 1_555
Ca2 O25 2.318352 1_545
Ca2 O12 2.356414 1_545
Ca2 O16 2.364571 1_555
Ca2 O9 2.366363 1_555
Ca2 O7 2.527282 1_655
Ca2 O21 2.535390 1_555
Ca3 O24 2.318352 1_565
Ca3 O13 2.356414 1_565
Ca3 O17 2.364571 1_555
Ca3 O8 2.366363 1_555
Ca3 O6 2.527282 1_455
Ca3 O20 2.535390 1_555
Ca4 O0 2.289038 1_555
Ca4 O17 2.328834 1_655
Ca4 O23 2.337058 1_655
Ca4 O11 2.380862 1_555
Ca4 O20 2.555401 1_655
Ca4 O6 2.675870 1_555
Ca5 O1 2.289038 1_555
Ca5 O16 2.328834 1_455
Ca5 O22 2.337058 1_455
Ca5 O10 2.380862 1_555
Ca5 O21 2.555401 1_455
Ca5 O7 2.675870 1_555
Ca6 O1 2.289038 1_555
Ca6 O15 2.328834 1_545
Ca6 O25 2.337058 1_545
Ca6 O9 2.380862 1_555
Ca6 O18 2.555401 1_545
Ca6 O7 2.675870 1_555
Ca7 O0 2.289038 1_555
Ca7 O14 2.328834 1_565
Ca7 O24 2.337058 1_565
Ca7 O8 2.380862 1_555
Ca7 O19 2.555401 1_565
Ca7 O6 2.675870 1_555
Ca8 O27 2.420012 1_555
Ca8 O0 2.425279 1_555
Ca8 O8 2.518588 1_555
Ca8 O11 2.518588 1_555
Ca8 O2 2.594650 1_555
Ca8 O5 2.594651 1_555
Ca9 O26 2.420012 1_555
Ca9 O1 2.425279 1_555
Ca9 O9 2.518588 1_555
Ca9 O10 2.518588 1_555
Ca9 O4 2.594651 1_555
Ca9 O3 2.594651 1_555
Ga0 O10 1.838930 1_554
Ga0 O27 1.845639 1_555
Ga0 O23 1.898261 1_555
Ga0 O20 1.921827 1_555
Ga1 O11 1.838930 1_555
Ga1 O26 1.845639 1_555
Ga1 O22 1.898261 1_555
Ga1 O21 1.921827 1_555
Ga2 O9 1.838930 1_554
Ga2 O27 1.845639 1_555
Ga2 O24 1.898261 1_555
Ga2 O19 1.921827 1_555
Ga3 O8 1.838930 1_555
Ga3 O26 1.845639 1_555
Ga3 O25 1.898261 1_555
Ga3 O18 1.921827 1_555
Ga4 O1 1.838480 1_555
Ga4 O5 1.865634 1_555
Ga4 O2 1.865641 1_555
Ga4 O13 1.878495 1_555
Ga5 O0 1.838480 1_556
Ga5 O3 1.865634 1_555
Ga5 O4 1.865634 1_555
Ga5 O12 1.878495 1_555
Ga6 O7 1.819231 1_555
Ga6 O17 1.894444 1_545
Ga6 O14 1.894444 1_455
Ga6 O13 1.913738 1_555
Ga7 O6 1.819231 1_556
Ga7 O16 1.894444 1_565
Ga7 O15 1.894444 1_655
Ga7 O12 1.913738 1_555
Ga8 O5 1.836006 1_555
Ga8 O17 1.867087 1_555
Ga8 O18 1.877462 1_555
Ga8 O22 1.885261 1_455
Ga9 O4 1.836006 1_555
Ga9 O16 1.867087 1_555
Ga9 O19 1.877462 1_556
Ga9 O23 1.885261 1_656
Ga10 O3 1.836006 1_555
Ga10 O15 1.867087 1_555
Ga10 O20 1.877462 1_556
Ga10 O24 1.885261 1_566
Ga11 O2 1.836000 1_555
Ga11 O14 1.867087 1_555
Ga11 O21 1.877462 1_555
Ga11 O25 1.885261 1_545
