# generated using pymatgen
data_Li2MgPb
_symmetry_space_group_name_H-M   'P 1'
_cell_length_a   4.76580371
_cell_length_b   4.76580342
_cell_length_c   4.76580400
_cell_angle_alpha   59.99999597
_cell_angle_beta   59.99999800
_cell_angle_gamma   59.99999664
_symmetry_Int_Tables_number   1
_chemical_formula_structural   Li2MgPb
_chemical_formula_sum   'Li2 Mg1 Pb1'
_cell_volume   76.54087532
_cell_formula_units_Z   1
loop_
 _symmetry_equiv_pos_site_id
 _symmetry_equiv_pos_as_xyz
  1  'x, y, z'
loop_
 _atom_site_type_symbol
 _atom_site_label
 _atom_site_symmetry_multiplicity
 _atom_site_fract_x
 _atom_site_fract_y
 _atom_site_fract_z
 _atom_site_occupancy
  Li  Li0  1  0.25000000  0.25000000  0.25000000  1
  Li  Li1  1  0.75000000  0.75000000  0.75000000  1
  Mg  Mg0  1  0.00000000  0.00000000  0.00000000  1
  Pb  Pb0  1  0.50000000  0.50000000  0.50000000  1
loop_
_geom_bond_atom_site_label_1
_geom_bond_atom_site_label_2
_geom_bond_distance
_geom_bond_site_symmetry_2
Li0 Mg0 2.918446 1_565
Li0 Pb0 2.918446 1_545
Li0 Mg0 2.918447 1_655
Li0 Pb0 2.918447 1_455
Li0 Mg0 2.918447 1_556
Li0 Pb0 2.918447 1_554
Li0 Mg0 2.918447 1_555
Li0 Pb0 2.918447 1_555
Li1 Pb0 2.918446 1_565
Li1 Mg0 2.918446 1_656
Li1 Mg0 2.918447 1_566
Li1 Pb0 2.918447 1_655
Li1 Mg0 2.918447 1_665
Li1 Mg0 2.918447 1_666
Li1 Pb0 2.918447 1_556
Li1 Pb0 2.918447 1_555
Mg0 Pb0 3.369932 1_554
Mg0 Pb0 3.369932 1_445
Mg0 Pb0 3.369932 1_454
Mg0 Pb0 3.369932 1_545
Mg0 Pb0 3.369932 1_455
Mg0 Pb0 3.369932 1_544
