# generated using pymatgen
data_Y4Ga6(CuPt5)3
_symmetry_space_group_name_H-M   'P 1'
_cell_length_a   7.67267463
_cell_length_b   7.65803905
_cell_length_c   10.07474062
_cell_angle_alpha   67.46775358
_cell_angle_beta   67.46808167
_cell_angle_gamma   59.87665826
_symmetry_Int_Tables_number   1
_chemical_formula_structural   Y4Ga6(CuPt5)3
_chemical_formula_sum   'Y4 Ga6 Cu3 Pt15'
_cell_volume   459.23815005
_cell_formula_units_Z   1
loop_
 _symmetry_equiv_pos_site_id
 _symmetry_equiv_pos_as_xyz
  1  'x, y, z'
loop_
 _atom_site_type_symbol
 _atom_site_label
 _atom_site_symmetry_multiplicity
 _atom_site_fract_x
 _atom_site_fract_y
 _atom_site_fract_z
 _atom_site_occupancy
  Y  Y0  1  0.42381881  0.24840782  0.25067739  1
  Y  Y1  1  0.58342766  0.74518577  0.74880371  1
  Y  Y2  1  0.75135970  0.57641048  0.24896928  1
  Y  Y3  1  0.24077093  0.42461745  0.75144625  1
  Ga  Ga0  1  0.49857613  0.99926684  0.99962896  1
  Ga  Ga1  1  0.00182761  0.50269753  0.49623692  1
  Ga  Ga2  1  0.64193080  0.17667799  0.50257459  1
  Ga  Ga3  1  0.35734796  0.82027751  0.49743139  1
  Ga  Ga4  1  0.81934590  0.36017698  0.00145774  1
  Ga  Ga5  1  0.17882668  0.64283679  0.00160317  1
  Cu  Cu0  1  0.27371269  0.91467708  0.25362263  1
  Cu  Cu1  1  0.72563631  0.08578642  0.74681661  1
  Cu  Cu2  1  0.08626009  0.72403668  0.24719333  1
  Pt  Pt0  1  0.91358562  0.29584182  0.75266698  1
  Pt  Pt1  1  0.46058817  0.65179456  0.08274422  1
  Pt  Pt2  1  0.52995098  0.34488131  0.92339224  1
  Pt  Pt3  1  0.34830012  0.53909220  0.41846911  1
  Pt  Pt4  1  0.64493799  0.46052135  0.57704278  1
  Pt  Pt5  1  0.87520834  0.12457678  0.25111144  1
  Pt  Pt6  1  0.12919013  0.87036713  0.74921431  1
  Pt  Pt7  1  0.81282433  0.95931269  0.08448512  1
  Pt  Pt8  1  0.19428768  0.02681851  0.92224298  1
  Pt  Pt9  1  0.04107518  0.18892732  0.41659538  1
  Pt  Pt10  1  0.96126585  0.82145403  0.57697091  1
  Pt  Pt11  1  0.70371693  0.84958987  0.41748715  1
  Pt  Pt12  1  0.30452937  0.14204990  0.57847095  1
  Pt  Pt13  1  0.14903664  0.29573608  0.08284973  1
  Pt  Pt14  1  0.84866040  0.70798114  0.91979475  1
loop_
_geom_bond_atom_site_label_1
_geom_bond_atom_site_label_2
_geom_bond_distance
_geom_bond_site_symmetry_2
Ga0 Pt14 2.557941 1_555
Ga0 Pt2 2.567658 1_565
Ga0 Pt13 2.583434 1_566
Ga0 Pt1 2.598182 1_556
Ga0 Pt8 2.622542 1_565
Ga0 Pt7 2.697554 1_556
Ga0 Y2 3.428393 1_556
Ga0 Y1 3.439710 1_555
Ga0 Y0 3.443022 1_566
Ga0 Y3 3.443272 1_565
Ga1 Pt0 2.498314 1_455
Ga1 Pt11 2.568049 1_455
Ga1 Pt3 2.595869 1_555
Ga1 Pt12 2.644053 1_555
Ga1 Pt9 2.659773 1_555
Ga1 Pt4 2.691297 1_455
Ga1 Pt10 2.698577 1_455
Ga1 Y1 3.406788 1_455
Ga1 Y0 3.408911 1_555
Ga1 Y3 3.415203 1_555
Ga1 Y2 3.423463 1_455
Ga2 Pt5 2.522644 1_555
Ga2 Pt12 2.524544 1_555
Ga2 Pt4 2.569391 1_555
Ga2 Pt3 2.623183 1_555
Ga2 Pt10 2.668319 1_545
Ga2 Pt11 2.715917 1_545
Ga2 Pt9 2.886356 1_655
Ga2 Y0 3.287335 1_555
Ga2 Y3 3.351675 1_555
Ga2 Y2 3.397814 1_555
Ga2 Y1 3.409884 1_545
Ga3 Pt6 2.512911 1_555
Ga3 Pt11 2.565459 1_555
Ga3 Pt4 2.581374 1_555
Ga3 Pt3 2.603794 1_555
Ga3 Pt12 2.681198 1_565
Ga3 Pt9 2.719965 1_565
Ga3 Pt10 2.826564 1_455
Ga3 Y1 3.317025 1_555
Ga3 Y2 3.318019 1_555
Ga3 Y3 3.398995 1_555
Ga3 Y0 3.413160 1_565
Ga4 Pt0 2.499598 1_554
Ga4 Pt5 2.517388 1_555
Ga4 Pt14 2.569382 1_554
Ga4 Pt1 2.595919 1_555
Ga4 Pt2 2.689362 1_554
Ga4 Pt13 2.709513 1_655
Ga4 Pt8 2.803657 1_654
Ga4 Pt7 2.877528 1_545
Ga4 Y2 3.245470 1_555
Ga4 Y1 3.297170 1_554
Ga4 Y0 3.371495 1_555
Ga4 Y3 3.383821 1_654
Ga5 Pt6 2.515391 1_554
Ga5 Pt13 2.566461 1_555
Ga5 Pt2 2.581896 1_554
Ga5 Pt1 2.625431 1_555
Ga5 Pt14 2.713323 1_454
Ga5 Pt7 2.716552 1_455
Ga5 Pt8 2.788496 1_564
Ga5 Y3 3.298934 1_554
Ga5 Y0 3.325807 1_555
Ga5 Y1 3.404544 1_554
Ga5 Y2 3.415471 1_455
Cu0 Ga3 2.519787 1_555
Cu0 Ga0 2.532228 1_554
Cu0 Cu2 2.540799 1_555
Cu0 Pt3 2.602644 1_555
Cu0 Pt9 2.631887 1_565
Cu0 Pt1 2.634306 1_555
Cu0 Pt13 2.646207 1_565
Cu0 Pt5 2.651092 1_465
Cu0 Y2 3.252090 1_555
Cu0 Y0 3.275542 1_565
Cu1 Ga2 2.530158 1_555
Cu1 Ga0 2.534939 1_545
Cu1 Pt4 2.609712 1_555
Cu1 Pt10 2.627676 1_545
Cu1 Pt14 2.637072 1_545
Cu1 Pt2 2.650257 1_555
Cu1 Pt0 2.671493 1_555
Cu1 Pt6 2.684980 1_645
Cu1 Y1 3.285452 1_545
Cu1 Y3 3.293284 1_555
Cu2 Ga1 2.486988 1_555
Cu2 Ga5 2.530247 1_555
Cu2 Pt1 2.600136 1_555
Cu2 Pt7 2.629251 1_455
Cu2 Pt3 2.636940 1_555
Cu2 Pt11 2.656174 1_455
Cu2 Pt5 2.662833 1_465
Cu2 Y0 3.237132 1_555
Cu2 Y2 3.278144 1_455
Pt0 Pt2 2.696117 1_555
Pt0 Pt4 2.728669 1_555
Pt0 Pt12 2.732812 1_655
Pt0 Pt8 2.733224 1_655
Pt0 Pt6 2.826113 1_645
Pt0 Y1 3.079479 1_555
Pt0 Y3 3.118758 1_655
Pt1 Pt8 2.849673 1_564
Pt1 Pt14 2.957085 1_554
Pt1 Y2 2.990796 1_555
Pt1 Y0 2.998041 1_555
Pt1 Y1 3.020108 1_554
Pt1 Pt3 3.033665 1_555
Pt1 Pt2 3.060454 1_554
Pt2 Pt7 2.942374 1_546
Pt2 Y0 2.959771 1_556
Pt2 Y3 3.011963 1_555
Pt2 Y1 3.039184 1_555
Pt2 Pt4 3.129690 1_555
Pt3 Pt4 2.961410 1_555
Pt3 Y0 2.997914 1_555
Pt3 Y2 3.004553 1_555
Pt3 Y3 3.008959 1_555
Pt4 Pt9 2.939912 1_655
Pt4 Y2 2.964775 1_555
Pt4 Y3 3.014800 1_555
Pt4 Y1 3.033483 1_555
Pt5 Pt7 2.738811 1_545
Pt5 Pt9 2.743598 1_655
Pt5 Y2 3.087777 1_555
Pt5 Y0 3.099365 1_555
Pt6 Pt8 2.755430 1_565
Pt6 Y3 3.067328 1_555
Pt6 Y1 3.115158 1_555
Pt7 Y2 2.937980 1_555
Pt7 Pt8 2.951274 1_664
Pt7 Y0 2.998623 1_565
Pt8 Y3 2.995187 1_555
Pt8 Y1 3.007637 1_545
Pt9 Y0 2.936432 1_555
Pt9 Y2 3.002363 1_455
Pt10 Pt6 2.740029 1_655
Pt10 Pt11 2.876405 1_555
Pt10 Pt9 2.896809 1_665
Pt10 Pt3 2.934460 1_655
Pt10 Y1 2.969973 1_555
Pt10 Y3 3.029494 1_655
Pt10 Pt14 3.097919 1_555
Pt11 Pt5 2.713155 1_565
Pt11 Pt4 2.964330 1_555
Pt11 Y2 2.978504 1_555
Pt11 Y1 2.994510 1_555
Pt11 Y0 3.002177 1_565
Pt11 Pt7 3.009211 1_555
Pt11 Pt12 3.019784 1_565
Pt12 Pt6 2.718562 1_545
Pt12 Pt9 2.867761 1_555
Pt12 Y0 2.962675 1_555
Pt12 Pt3 2.968154 1_555
Pt12 Y1 3.008345 1_545
Pt12 Y3 3.022087 1_555
Pt12 Pt8 3.106618 1_555
Pt13 Pt5 2.708786 1_455
Pt13 Pt2 2.882106 1_554
Pt13 Pt8 2.895749 1_554
Pt13 Y0 2.988411 1_555
Pt13 Y3 2.997968 1_554
Pt13 Y2 2.998589 1_455
Pt13 Pt9 3.016387 1_555
Pt13 Pt14 3.098496 1_454
Pt14 Pt6 2.710450 1_655
Pt14 Pt7 2.846011 1_556
Pt14 Y2 2.977807 1_556
Pt14 Y1 2.986452 1_555
Pt14 Y3 2.999012 1_655
