# generated using pymatgen
data_Ca6ZnGe3Pd4
_symmetry_space_group_name_H-M   'P 1'
_cell_length_a   5.67336947
_cell_length_b   8.05929592
_cell_length_c   13.57097556
_cell_angle_alpha   90.00000000
_cell_angle_beta   90.00000000
_cell_angle_gamma   90.00000000
_symmetry_Int_Tables_number   1
_chemical_formula_structural   Ca6ZnGe3Pd4
_chemical_formula_sum   'Ca12 Zn2 Ge6 Pd8'
_cell_volume   620.51064776
_cell_formula_units_Z   2
loop_
 _symmetry_equiv_pos_site_id
 _symmetry_equiv_pos_as_xyz
  1  'x, y, z'
loop_
 _atom_site_type_symbol
 _atom_site_label
 _atom_site_symmetry_multiplicity
 _atom_site_fract_x
 _atom_site_fract_y
 _atom_site_fract_z
 _atom_site_occupancy
  Ca  Ca0  1  0.13969384  0.60284942  0.10436073  1
  Ca  Ca1  1  0.13969384  0.89715058  0.89563927  1
  Ca  Ca2  1  0.86030616  0.10284942  0.39563927  1
  Ca  Ca3  1  0.86030616  0.39715058  0.60436073  1
  Ca  Ca4  1  0.86341390  0.38817166  0.89687066  1
  Ca  Ca5  1  0.86341390  0.11182834  0.10312934  1
  Ca  Ca6  1  0.13658610  0.88817166  0.60312934  1
  Ca  Ca7  1  0.13658610  0.61182834  0.39687066  1
  Ca  Ca8  1  0.35296825  0.25004891  0.24997913  1
  Ca  Ca9  1  0.35296825  0.24995109  0.75002087  1
  Ca  Ca10  1  0.64703175  0.75004891  0.25002087  1
  Ca  Ca11  1  0.64703175  0.74995109  0.74997913  1
  Zn  Zn0  1  0.63133203  0.75000000  0.00000000  1
  Zn  Zn1  1  0.36866797  0.25000000  0.50000000  1
  Ge  Ge0  1  0.35509882  0.25000000  0.00000000  1
  Ge  Ge1  1  0.64490118  0.75000000  0.50000000  1
  Ge  Ge2  1  0.84548488  0.39870565  0.25172998  1
  Ge  Ge3  1  0.84548488  0.10129435  0.74827002  1
  Ge  Ge4  1  0.15451512  0.89870565  0.24827002  1
  Ge  Ge5  1  0.15451512  0.60129435  0.75172998  1
  Pd  Pd0  1  0.62291192  0.46306738  0.08959371  1
  Pd  Pd1  1  0.62291192  0.03693262  0.91040629  1
  Pd  Pd2  1  0.37708808  0.96306738  0.41040629  1
  Pd  Pd3  1  0.37708808  0.53693262  0.58959371  1
  Pd  Pd4  1  0.37282580  0.53091679  0.90991120  1
  Pd  Pd5  1  0.37282580  0.96908321  0.09008880  1
  Pd  Pd6  1  0.62717420  0.03091679  0.59008880  1
  Pd  Pd7  1  0.62717420  0.46908321  0.40991120  1
loop_
_geom_bond_atom_site_label_1
_geom_bond_atom_site_label_2
_geom_bond_distance
_geom_bond_site_symmetry_2
Ca0 Pd0 2.970681 1_555
Ca0 Pd4 3.008173 1_554
Ca0 Ge2 3.081027 1_455
Ca0 Ge4 3.083272 1_555
Ca0 Pd0 3.147264 1_455
Ca0 Pd5 3.240179 1_555
Ca0 Zn0 3.345468 1_555
Ca0 Ge0 3.403826 1_555
Ca0 Zn0 3.424974 1_455
Ca1 Pd1 2.970681 1_565
Ca1 Pd5 3.008173 1_556
Ca1 Ge3 3.081027 1_465
Ca1 Ge5 3.083272 1_555
Ca1 Pd1 3.147264 1_465
Ca1 Pd4 3.240179 1_555
Ca1 Zn0 3.345468 1_556
Ca1 Ge0 3.403826 1_566
Ca1 Zn0 3.424974 1_456
Ca2 Pd2 2.970681 1_545
Ca2 Pd6 3.008173 1_555
Ca2 Ge4 3.081027 1_645
Ca2 Ge2 3.083272 1_555
Ca2 Pd2 3.147264 1_645
Ca2 Pd7 3.240179 1_555
Ca2 Zn1 3.345468 1_555
Ca2 Ge1 3.403826 1_545
Ca2 Zn1 3.424974 1_655
Ca3 Pd3 2.970681 1_555
Ca3 Pd7 3.008173 1_555
Ca3 Ge5 3.081027 1_655
Ca3 Ge3 3.083272 1_555
Ca3 Pd3 3.147264 1_655
Ca3 Pd6 3.240179 1_555
Ca3 Zn1 3.345468 1_555
Ca3 Ge1 3.403826 1_555
Ca3 Zn1 3.424974 1_655
Ca4 Pd0 3.011081 1_556
Ca4 Pd4 3.016867 1_555
Ca4 Ge3 3.069646 1_555
Ca4 Ge5 3.091516 1_655
Ca4 Pd4 3.115665 1_655
Ca4 Pd1 3.147788 1_555
Ca4 Ge0 3.313636 1_656
Ca4 Ge0 3.393443 1_556
Ca5 Pd1 3.011081 1_554
Ca5 Pd5 3.016867 1_545
Ca5 Ge2 3.069646 1_555
Ca5 Ge4 3.091516 1_645
Ca5 Pd5 3.115665 1_645
Ca5 Pd0 3.147788 1_555
Ca5 Ge0 3.313636 1_655
Ca5 Ge0 3.393443 1_555
Ca6 Pd2 3.011081 1_555
Ca6 Pd6 3.016867 1_565
Ca6 Ge5 3.069646 1_555
Ca6 Ge3 3.091516 1_465
Ca6 Pd6 3.115665 1_465
Ca6 Pd3 3.147788 1_555
Ca6 Ge1 3.313636 1_455
Ca6 Ge1 3.393443 1_555
Ca7 Pd3 3.011081 1_555
Ca7 Pd7 3.016867 1_555
Ca7 Ge4 3.069646 1_555
Ca7 Ge2 3.091516 1_455
Ca7 Pd7 3.115665 1_455
Ca7 Pd2 3.147788 1_555
Ca7 Ge1 3.313636 1_455
Ca7 Ge1 3.393443 1_555
Ca8 Ge2 3.040337 1_555
Ca8 Ge4 3.047298 1_545
Ca8 Ge2 3.118555 1_455
Ca8 Pd5 3.138226 1_545
Ca8 Pd0 3.167068 1_555
Ca8 Pd2 3.179321 1_545
Ca8 Pd7 3.201101 1_555
Ca8 Ge0 3.392482 1_555
Ca8 Zn1 3.394196 1_555
Ca9 Ge3 3.040337 1_555
Ca9 Ge5 3.047298 1_555
Ca9 Ge3 3.118555 1_455
Ca9 Pd4 3.138226 1_555
Ca9 Pd1 3.167068 1_555
Ca9 Pd3 3.179321 1_555
Ca9 Pd6 3.201101 1_555
Ca9 Ge0 3.392482 1_556
Ca9 Zn1 3.394196 1_555
Ca10 Ge4 3.040337 1_555
Ca10 Ge2 3.047298 1_555
Ca10 Ge4 3.118555 1_655
Ca10 Pd7 3.138226 1_555
Ca10 Pd2 3.167068 1_555
Ca10 Pd0 3.179321 1_555
Ca10 Pd5 3.201101 1_555
Ca10 Ge1 3.392482 1_555
Ca10 Zn0 3.394196 1_555
Ca11 Ge5 3.040337 1_555
Ca11 Ge3 3.047298 1_565
Ca11 Ge5 3.118555 1_655
Ca11 Pd6 3.138226 1_565
Ca11 Pd3 3.167068 1_555
Ca11 Pd1 3.179321 1_565
Ca11 Pd4 3.201101 1_555
Ca11 Ge1 3.392482 1_555
Ca11 Zn0 3.394196 1_556
Ge0 Pd4 2.574977 1_554
Ge0 Pd5 2.574977 1_545
Ge0 Pd0 2.595307 1_555
Ge0 Pd1 2.595307 1_554
Ge1 Pd6 2.574977 1_565
Ge1 Pd7 2.574977 1_555
Ge1 Pd2 2.595307 1_555
Ge1 Pd3 2.595307 1_555
Ge2 Pd7 2.542428 1_555
Ge2 Pd0 2.589420 1_555
Ge3 Pd6 2.542428 1_555
Ge3 Pd1 2.589420 1_555
Ge4 Pd5 2.542428 1_555
Ge4 Pd2 2.589420 1_555
Ge5 Pd4 2.542428 1_555
Ge5 Pd3 2.589420 1_555
Pd0 Zn0 2.613077 1_555
Pd1 Zn0 2.613077 1_546
Pd2 Zn1 2.613077 1_565
Pd3 Zn1 2.613077 1_555
Pd4 Zn0 2.600614 1_556
Pd5 Zn0 2.600614 1_555
Pd6 Zn1 2.600614 1_555
Pd7 Zn1 2.600614 1_555
