# generated using pymatgen
data_RbAg2AsS3
_symmetry_space_group_name_H-M   'P 1'
_cell_length_a   8.31458820
_cell_length_b   9.25359103
_cell_length_c   9.85656513
_cell_angle_alpha   71.74689794
_cell_angle_beta   90.00000000
_cell_angle_gamma   90.00000000
_symmetry_Int_Tables_number   1
_chemical_formula_structural   RbAg2AsS3
_chemical_formula_sum   'Rb4 Ag8 As4 S12'
_cell_volume   720.20300024
_cell_formula_units_Z   4
loop_
 _symmetry_equiv_pos_site_id
 _symmetry_equiv_pos_as_xyz
  1  'x, y, z'
loop_
 _atom_site_type_symbol
 _atom_site_label
 _atom_site_symmetry_multiplicity
 _atom_site_fract_x
 _atom_site_fract_y
 _atom_site_fract_z
 _atom_site_occupancy
  Rb  Rb0  1  0.93857421  0.24761116  0.08327986  1
  Rb  Rb1  1  0.43857421  0.25238884  0.91672014  1
  Rb  Rb2  1  0.06142579  0.75238884  0.91672014  1
  Rb  Rb3  1  0.56142579  0.74761116  0.08327986  1
  Ag  Ag0  1  0.76317849  0.93820541  0.44387992  1
  Ag  Ag1  1  0.26317849  0.56179459  0.55612008  1
  Ag  Ag2  1  0.23682151  0.06179459  0.55612008  1
  Ag  Ag3  1  0.73682151  0.43820541  0.44387992  1
  Ag  Ag4  1  0.97800533  0.20639964  0.67772960  1
  Ag  Ag5  1  0.47800533  0.29360036  0.32227040  1
  Ag  Ag6  1  0.02199467  0.79360036  0.32227040  1
  Ag  Ag7  1  0.52199467  0.70639964  0.67772960  1
  As  As0  1  0.13321526  0.45101968  0.34006065  1
  As  As1  1  0.63321526  0.04898032  0.65993935  1
  As  As2  1  0.86678474  0.54898032  0.65993935  1
  As  As3  1  0.36678474  0.95101968  0.34006065  1
  S  S0  1  0.01555573  0.21389856  0.42515982  1
  S  S1  1  0.51555573  0.28610144  0.57484018  1
  S  S2  1  0.98444427  0.78610144  0.57484018  1
  S  S3  1  0.48444427  0.71389856  0.42515982  1
  S  S4  1  0.77615114  0.05237349  0.84979330  1
  S  S5  1  0.27615114  0.44762651  0.15020670  1
  S  S6  1  0.22384886  0.94762651  0.15020670  1
  S  S7  1  0.72384886  0.55237349  0.84979330  1
  S  S8  1  0.90370317  0.57692079  0.24071083  1
  S  S9  1  0.40370317  0.92307921  0.75928917  1
  S  S10  1  0.09629683  0.42307921  0.75928917  1
  S  S11  1  0.59629683  0.07692079  0.24071083  1
loop_
_geom_bond_atom_site_label_1
_geom_bond_atom_site_label_2
_geom_bond_distance
_geom_bond_site_symmetry_2
Rb0 S0 3.347205 1_655
Rb0 S10 3.362448 1_654
Rb0 S11 3.386214 1_555
Rb0 S7 3.517296 1_554
Rb0 S5 3.536084 1_655
Rb0 S6 3.552459 1_645
Rb0 S4 3.603980 1_554
Rb0 S8 3.839280 1_555
Rb1 S1 3.347205 1_555
Rb1 S11 3.362448 1_556
Rb1 S10 3.386214 1_555
Rb1 S6 3.517296 1_546
Rb1 S4 3.536084 1_555
Rb1 S7 3.552459 1_555
Rb1 S5 3.603980 1_556
Rb1 S9 3.839280 1_545
Rb2 S2 3.347205 1_455
Rb2 S8 3.362448 1_456
Rb2 S9 3.386214 1_555
Rb2 S5 3.517296 1_556
Rb2 S7 3.536084 1_455
Rb2 S4 3.552459 1_465
Rb2 S6 3.603980 1_556
Rb2 S10 3.839280 1_555
Rb3 S3 3.347205 1_555
Rb3 S9 3.362448 1_554
Rb3 S8 3.386214 1_555
Rb3 S4 3.517296 1_564
Rb3 S6 3.536084 1_555
Rb3 S5 3.552459 1_555
Rb3 S7 3.603980 1_554
Rb3 S11 3.839280 1_565
Ag0 S2 2.427713 1_555
Ag0 S11 2.443958 1_565
Ag0 As1 2.849761 1_565
Ag1 S3 2.427713 1_555
Ag1 S10 2.443958 1_555
Ag1 As0 2.849761 1_555
Ag2 S0 2.427713 1_555
Ag2 S9 2.443958 1_545
Ag2 As3 2.849761 1_545
Ag3 S1 2.427713 1_555
Ag3 S8 2.443958 1_555
Ag3 As2 2.849761 1_555
Ag4 S0 2.488281 1_655
Ag4 S4 2.492049 1_555
Ag4 S10 2.577521 1_655
Ag5 S1 2.488281 1_555
Ag5 S5 2.492049 1_555
Ag5 S11 2.577521 1_555
Ag6 S2 2.488281 1_455
Ag6 S6 2.492049 1_555
Ag6 S8 2.577521 1_455
Ag7 S3 2.488281 1_555
Ag7 S7 2.492049 1_555
Ag7 S9 2.577521 1_555
As0 S5 2.225310 1_555
As0 S8 2.289797 1_455
As0 S0 2.307009 1_555
As1 S4 2.225310 1_555
As1 S9 2.289797 1_545
As1 S1 2.307009 1_555
As2 S7 2.225310 1_555
As2 S10 2.289797 1_655
As2 S2 2.307009 1_555
As3 S6 2.225310 1_555
As3 S11 2.289797 1_565
As3 S3 2.307009 1_555
