# generated using pymatgen
data_Rb2AlZn3Sb4
_symmetry_space_group_name_H-M   'P 1'
_cell_length_a   8.71078555
_cell_length_b   8.71078507
_cell_length_c   6.04215840
_cell_angle_alpha   90.00000000
_cell_angle_beta   90.00000000
_cell_angle_gamma   139.87133781
_symmetry_Int_Tables_number   1
_chemical_formula_structural   Rb2AlZn3Sb4
_chemical_formula_sum   'Rb2 Al1 Zn3 Sb4'
_cell_volume   295.48390271
_cell_formula_units_Z   1
loop_
 _symmetry_equiv_pos_site_id
 _symmetry_equiv_pos_as_xyz
  1  'x, y, z'
loop_
 _atom_site_type_symbol
 _atom_site_label
 _atom_site_symmetry_multiplicity
 _atom_site_fract_x
 _atom_site_fract_y
 _atom_site_fract_z
 _atom_site_occupancy
  Rb  Rb0  1  0.50000000  0.00000000  0.25092987  1
  Rb  Rb1  1  0.00000000  0.50000000  0.74907013  1
  Al  Al0  1  0.00000000  0.00000000  0.00000000  1
  Zn  Zn0  1  0.50000000  0.50000000  0.50000000  1
  Zn  Zn1  1  0.50000000  0.50000000  0.00000000  1
  Zn  Zn2  1  0.00000000  0.00000000  0.50000000  1
  Sb  Sb0  1  0.64598198  0.85552170  0.75087615  1
  Sb  Sb1  1  0.14447830  0.35401802  0.24912385  1
  Sb  Sb2  1  0.85552170  0.64598198  0.24912385  1
  Sb  Sb3  1  0.35401802  0.14447830  0.75087615  1
loop_
_geom_bond_atom_site_label_1
_geom_bond_atom_site_label_2
_geom_bond_distance
_geom_bond_site_symmetry_2
Rb0 Sb1 3.814742 1_655
Rb0 Sb2 3.814742 1_445
Rb0 Sb2 3.821776 1_555
Rb0 Sb1 3.821776 1_545
Rb0 Sb0 3.843579 1_545
Rb0 Sb3 3.843579 1_555
Rb0 Sb0 3.844090 1_544
Rb0 Sb3 3.844090 1_554
Rb1 Sb3 3.814742 1_565
Rb1 Sb0 3.814742 1_445
Rb1 Sb0 3.821776 1_555
Rb1 Sb3 3.821776 1_455
Rb1 Sb2 3.843579 1_455
Rb1 Sb1 3.843579 1_555
Rb1 Sb2 3.844090 1_456
Rb1 Sb1 3.844090 1_556
Al0 Sb1 2.724794 1_555
Al0 Sb2 2.724794 1_445
Al0 Sb3 2.724794 1_554
Al0 Sb0 2.724794 1_444
Sb0 Zn1 2.729718 1_556
Sb0 Zn2 2.730657 1_665
Sb0 Zn0 2.735570 1_555
Sb1 Zn1 2.729718 1_555
Sb1 Zn2 2.730657 1_555
Sb1 Zn0 2.735570 1_555
Sb2 Zn1 2.729718 1_555
Sb2 Zn2 2.730657 1_665
Sb2 Zn0 2.735570 1_555
Sb3 Zn1 2.729718 1_556
Sb3 Zn2 2.730657 1_555
Sb3 Zn0 2.735570 1_555
