# generated using pymatgen
data_Hf10CuSn2Sb5
_symmetry_space_group_name_H-M   'P 1'
_cell_length_a   5.79605890
_cell_length_b   8.62973429
_cell_length_c   8.61789976
_cell_angle_alpha   120.04543361
_cell_angle_beta   90.00198145
_cell_angle_gamma   89.99604276
_symmetry_Int_Tables_number   1
_chemical_formula_structural   Hf10CuSn2Sb5
_chemical_formula_sum   'Hf10 Cu1 Sn2 Sb5'
_cell_volume   373.13266711
_cell_formula_units_Z   1
loop_
 _symmetry_equiv_pos_site_id
 _symmetry_equiv_pos_as_xyz
  1  'x, y, z'
loop_
 _atom_site_type_symbol
 _atom_site_label
 _atom_site_symmetry_multiplicity
 _atom_site_fract_x
 _atom_site_fract_y
 _atom_site_fract_z
 _atom_site_occupancy
  Hf  Hf0  1  0.49842351  0.33276019  0.66640260  1
  Hf  Hf1  1  0.49842351  0.66635759  0.33359740  1
  Hf  Hf2  1  0.00135659  0.66649159  0.33321999  1
  Hf  Hf3  1  0.00135659  0.33327159  0.66678001  1
  Hf  Hf4  1  0.73280595  0.27074611  0.00000000  1
  Hf  Hf5  1  0.73200825  0.73005381  0.72955354  1
  Hf  Hf6  1  0.73200825  0.00050027  0.27044646  1
  Hf  Hf7  1  0.26817404  0.72369904  1.00000000  1
  Hf  Hf8  1  0.26913669  0.27498382  0.27490921  1
  Hf  Hf9  1  0.26913669  0.00007461  0.72509079  1
  Cu  Cu0  1  0.49405353  0.99934457  0.00000000  1
  Sn  Sn0  1  0.24523849  0.61459439  0.61488840  1
  Sn  Sn1  1  0.24523849  0.99970599  0.38511160  1
  Sb  Sb0  1  0.75294243  0.61085444  0.00000000  1
  Sb  Sb1  1  0.75359055  0.39085410  0.39141250  1
  Sb  Sb2  1  0.75359055  0.99944060  0.60858750  1
  Sb  Sb3  1  0.24731416  0.38667029  1.00000000  1
  Sb  Sb4  1  0.00520271  0.99959599  1.00000000  1
loop_
_geom_bond_atom_site_label_1
_geom_bond_atom_site_label_2
_geom_bond_distance
_geom_bond_site_symmetry_2
Hf0 Sb1 3.040535 1_555
Hf0 Sb3 3.043144 1_555
Hf0 Sb2 3.045310 1_545
Hf0 Sb0 3.048286 1_556
Hf0 Sn1 3.051911 1_545
Hf0 Sn0 3.057226 1_555
Hf1 Sb2 3.040531 1_555
Hf1 Sb3 3.043144 1_554
Hf1 Sb1 3.045303 1_555
Hf1 Sb0 3.048285 1_555
Hf1 Sn0 3.051911 1_555
Hf1 Sn1 3.057226 1_555
Hf2 Sb2 3.020144 1_455
Hf2 Sb3 3.027497 1_554
Hf2 Sb1 3.027698 1_455
Hf2 Sb0 3.028063 1_455
Hf2 Sn0 3.029725 1_555
Hf2 Sn1 3.029807 1_555
Hf3 Sb1 3.020148 1_455
Hf3 Sb3 3.027497 1_555
Hf3 Sb2 3.027706 1_445
Hf3 Sb0 3.028063 1_456
Hf3 Sn1 3.029725 1_545
Hf3 Sn0 3.029807 1_555
Hf4 Sb4 2.822688 1_644
Hf4 Sb0 2.937372 1_555
Hf4 Sb3 2.986412 1_554
Hf4 Sb1 2.994316 1_555
Hf4 Sb2 2.994317 1_544
Hf4 Sb3 3.145511 1_654
Hf5 Sb4 2.814514 1_655
Hf5 Sb1 2.921326 1_555
Hf5 Sb0 2.984236 1_556
Hf5 Sb2 2.988921 1_555
Hf5 Sn0 2.990569 1_555
Hf5 Sn0 3.135606 1_655
Hf6 Sb4 2.814514 1_644
Hf6 Sb2 2.921330 1_545
Hf6 Sb0 2.984236 1_545
Hf6 Sb1 2.988930 1_555
Hf6 Sn1 2.990569 1_545
Hf6 Sn1 3.135606 1_645
Hf7 Sb4 2.826914 1_555
Hf7 Sb3 2.910989 1_555
Hf7 Sn0 2.964762 1_555
Hf7 Sn1 2.964762 1_556
Hf7 Sb0 2.973654 1_556
Hf7 Sb0 3.141145 1_456
Hf8 Sb4 2.821898 1_544
Hf8 Sn0 2.931585 1_555
Hf8 Sn1 2.970482 1_545
Hf8 Sb3 2.973939 1_554
Hf8 Sb1 2.981142 1_555
Hf8 Sb1 3.151401 1_455
Hf9 Sb4 2.821898 1_545
Hf9 Sn1 2.931585 1_545
Hf9 Sn0 2.970482 1_545
Hf9 Sb3 2.973939 1_555
Hf9 Sb2 2.981140 1_545
Hf9 Sb2 3.151400 1_445
Cu0 Hf6 2.703861 1_565
Cu0 Hf5 2.703861 1_554
Cu0 Hf9 2.706852 1_564
Cu0 Hf8 2.706853 1_565
Cu0 Hf7 2.715309 1_554
Cu0 Hf4 2.720470 1_565
Cu0 Sb4 2.833409 1_554
Cu0 Sb4 2.962652 1_654
