# generated using pymatgen
data_Ta6Si6TcW5
_symmetry_space_group_name_H-M   'P 1'
_cell_length_a   7.65164940
_cell_length_b   7.65868430
_cell_length_c   7.65152529
_cell_angle_alpha   126.40916904
_cell_angle_beta   128.64326785
_cell_angle_gamma   77.38634371
_symmetry_Int_Tables_number   1
_chemical_formula_structural   Ta6Si6TcW5
_chemical_formula_sum   'Ta6 Si6 Tc1 W5'
_cell_volume   273.45770357
_cell_formula_units_Z   1
loop_
 _symmetry_equiv_pos_site_id
 _symmetry_equiv_pos_as_xyz
  1  'x, y, z'
loop_
 _atom_site_type_symbol
 _atom_site_label
 _atom_site_symmetry_multiplicity
 _atom_site_fract_x
 _atom_site_fract_y
 _atom_site_fract_z
 _atom_site_occupancy
  Ta  Ta0  1  0.55053511  0.09036722  0.04103705  1
  Ta  Ta1  1  0.44910545  0.49679363  0.55002949  1
  Ta  Ta2  1  0.94697452  0.49681717  0.04792395  1
  Ta  Ta3  1  0.04963854  0.09042031  0.54015805  1
  Ta  Ta4  1  0.75456940  0.90339020  0.65115813  1
  Ta  Ta5  1  0.25217800  0.90342746  0.14881580  1
  Si  Si0  1  0.74454964  0.49669452  0.24785415  1
  Si  Si1  1  0.24871093  0.49671479  0.75201941  1
  Si  Si2  1  0.33409143  0.82495037  0.49089823  1
  Si  Si3  1  0.66812059  0.16503757  0.49702302  1
  Si  Si4  1  0.83414026  0.82865369  0.99454228  1
  Si  Si5  1  0.17011784  0.16856810  0.99852099  1
  Tc  Tc0  1  0.37019967  0.49669041  0.12621275  1
  W  W0  1  0.49922201  0.23774119  0.73840988  1
  W  W1  1  0.00073787  0.23984810  0.23911559  1
  W  W2  1  0.12899148  0.75474852  0.62564399  1
  W  W3  1  0.86938515  0.49691551  0.62725543  1
  W  W4  1  0.62873210  0.75441924  0.12558183  1
loop_
_geom_bond_atom_site_label_1
_geom_bond_atom_site_label_2
_geom_bond_distance
_geom_bond_site_symmetry_2
Ta0 W4 2.866432 1_545
Ta0 W2 2.869104 1_544
Ta0 W0 2.926332 1_554
Ta0 W1 2.935359 1_655
Ta0 W3 2.972792 1_555
Ta0 Tc0 2.975381 1_555
Ta1 W3 2.884117 1_555
Ta1 Tc0 2.903866 1_555
Ta1 W4 2.913074 1_556
Ta1 W1 2.915457 1_555
Ta1 W0 2.921145 1_555
Ta1 W2 2.921794 1_555
Ta2 W3 2.885983 1_554
Ta2 Tc0 2.902139 1_655
Ta2 W4 2.914150 1_555
Ta2 W1 2.914625 1_655
Ta2 W2 2.920415 1_655
Ta2 W0 2.922429 1_554
Ta3 W2 2.867743 1_545
Ta3 W4 2.868255 1_445
Ta3 W0 2.924749 1_555
Ta3 W1 2.936214 1_555
Ta3 Tc0 2.973052 1_556
Ta3 W3 2.974603 1_455
Ta4 W1 2.863907 1_666
Ta4 W0 2.869645 1_565
Ta4 W2 2.924423 1_655
Ta4 W4 2.932254 1_555
Ta4 W3 2.970982 1_555
Ta4 Tc0 2.980007 1_555
Ta5 W1 2.863456 1_565
Ta5 W0 2.869168 1_565
Ta5 W2 2.924855 1_554
Ta5 W4 2.932306 1_555
Ta5 W3 2.972014 1_454
Ta5 Tc0 2.979260 1_555
Si0 Tc0 2.396112 1_555
Si0 W3 2.423107 1_555
Si0 W4 2.439128 1_555
Si0 W0 2.441655 1_554
Si0 W1 2.457648 1_655
Si0 W2 2.460140 1_655
Si0 Ta4 2.762063 1_555
Si0 Ta0 2.762232 1_555
Si0 Ta2 2.775044 1_555
Si1 Tc0 2.395455 1_556
Si1 W3 2.423817 1_455
Si1 W4 2.439234 1_556
Si1 W0 2.441840 1_555
Si1 W1 2.457064 1_555
Si1 W2 2.459883 1_555
Si1 Ta3 2.762034 1_555
Si1 Ta5 2.762267 1_556
Si1 Ta1 2.775089 1_555
Si2 Tc0 2.552427 1_555
Si2 W0 2.612732 1_565
Si2 W2 2.619597 1_555
Si2 Ta2 2.679223 1_455
Si2 Ta1 2.679957 1_555
Si2 Ta3 2.682392 1_565
Si2 Ta0 2.683259 1_566
Si2 Ta4 2.694109 1_555
Si2 Ta5 2.694285 1_555
Si3 W3 2.571261 1_555
Si3 W4 2.606184 1_545
Si3 W0 2.614875 1_555
Si3 Ta4 2.663869 1_545
Si3 Ta5 2.664547 1_545
Si3 Ta1 2.682263 1_555
Si3 Ta2 2.682836 1_556
Si3 Ta0 2.691683 1_555
Si3 Ta3 2.692476 1_655
Si4 W3 2.568450 1_555
Si4 W1 2.611997 1_666
Si4 W4 2.614187 1_556
Si4 Ta0 2.659177 1_566
Si4 Ta3 2.660402 1_666
Si4 Ta1 2.683529 1_555
Si4 Ta2 2.684144 1_556
Si4 Ta5 2.689742 1_656
Si4 Ta4 2.690120 1_555
Si5 Tc0 2.551668 1_556
Si5 W1 2.616204 1_556
Si5 W2 2.619890 1_545
Si5 Ta5 2.674617 1_546
Si5 Ta4 2.675188 1_445
Si5 Ta2 2.679818 1_456
Si5 Ta1 2.680281 1_556
Si5 Ta3 2.686913 1_555
Si5 Ta0 2.687867 1_556
