# generated using pymatgen
data_K2PSe3
_symmetry_space_group_name_H-M   'P 1'
_cell_length_a   12.48146539
_cell_length_b   8.81836477
_cell_length_c   13.81773725
_cell_angle_alpha   88.76095627
_cell_angle_beta   90.00000000
_cell_angle_gamma   90.00000000
_symmetry_Int_Tables_number   1
_chemical_formula_structural   K2PSe3
_chemical_formula_sum   'K16 P8 Se24'
_cell_volume   1520.50904430
_cell_formula_units_Z   8
loop_
 _symmetry_equiv_pos_site_id
 _symmetry_equiv_pos_as_xyz
  1  'x, y, z'
loop_
 _atom_site_type_symbol
 _atom_site_label
 _atom_site_symmetry_multiplicity
 _atom_site_fract_x
 _atom_site_fract_y
 _atom_site_fract_z
 _atom_site_occupancy
  K  K0  1  0.26484322  0.72489451  0.07896917  1
  K  K1  1  0.56501277  0.32307524  0.18707372  1
  K  K2  1  0.93498723  0.82307524  0.18707372  1
  K  K3  1  0.78973133  0.66837147  0.56218241  1
  K  K4  1  0.06501277  0.17692476  0.81292628  1
  K  K5  1  0.76484322  0.77510549  0.92103083  1
  K  K6  1  0.73515678  0.27510549  0.92103083  1
  K  K7  1  0.23515678  0.22489451  0.07896917  1
  K  K8  1  0.28973133  0.83162853  0.43781759  1
  K  K9  1  0.21026867  0.33162853  0.43781759  1
  K  K10  1  0.71026867  0.16837147  0.56218241  1
  K  K11  1  0.89641979  0.28501424  0.29325722  1
  K  K12  1  0.39641979  0.21498576  0.70674278  1
  K  K13  1  0.10358021  0.71498576  0.70674278  1
  K  K14  1  0.43498723  0.67692476  0.81292628  1
  K  K15  1  0.60358021  0.78501424  0.29325722  1
  P  P0  1  0.99212275  0.92883479  0.43184743  1
  P  P1  1  0.00787725  0.07116521  0.56815257  1
  P  P2  1  0.50787725  0.42883479  0.43184743  1
  P  P3  1  0.52809878  0.93723679  0.06917559  1
  P  P4  1  0.02809878  0.56276321  0.93082441  1
  P  P5  1  0.47190122  0.06276321  0.93082441  1
  P  P6  1  0.97190122  0.43723679  0.06917559  1
  P  P7  1  0.49212275  0.57116521  0.56815257  1
  Se  Se0  1  0.67661279  0.45275473  0.38997478  1
  Se  Se1  1  0.17661279  0.04724527  0.61002522  1
  Se  Se2  1  0.32338721  0.54724527  0.61002522  1
  Se  Se3  1  0.82338721  0.95275473  0.38997478  1
  Se  Se4  1  0.46557370  0.19528449  0.46830332  1
  Se  Se5  1  0.96557370  0.30471551  0.53169668  1
  Se  Se6  1  0.53442630  0.80471551  0.53169668  1
  Se  Se7  1  0.03442630  0.69528449  0.46830332  1
  Se  Se8  1  0.40099061  0.53185677  0.32279905  1
  Se  Se9  1  0.90099061  0.96814323  0.67720095  1
  Se  Se10  1  0.59900939  0.46814323  0.67720095  1
  Se  Se11  1  0.09900939  0.03185677  0.32279905  1
  Se  Se12  1  0.08454339  0.49815134  0.18357684  1
  Se  Se13  1  0.58454339  0.00184866  0.81642316  1
  Se  Se14  1  0.91545661  0.50184866  0.81642316  1
  Se  Se15  1  0.41545661  0.99815134  0.18357684  1
  Se  Se16  1  0.97099035  0.19401149  0.04016497  1
  Se  Se17  1  0.47099035  0.30598851  0.95983503  1
  Se  Se18  1  0.02900965  0.80598851  0.95983503  1
  Se  Se19  1  0.52900965  0.69401149  0.04016497  1
  Se  Se20  1  0.80957062  0.51928401  0.09853282  1
  Se  Se21  1  0.30957062  0.98071599  0.90146718  1
  Se  Se22  1  0.19042938  0.48071599  0.90146718  1
  Se  Se23  1  0.69042938  0.01928401  0.09853282  1
loop_
_geom_bond_atom_site_label_1
_geom_bond_atom_site_label_2
_geom_bond_distance
_geom_bond_site_symmetry_2
K0 Se12 3.320640 1_555
K0 Se21 3.343231 1_554
K0 Se19 3.352522 1_555
K0 Se15 3.403001 1_555
K0 Se22 3.426833 1_554
K0 Se18 3.440177 1_554
K1 Se0 3.353656 1_555
K1 Se8 3.353712 1_555
K1 Se23 3.356440 1_555
K1 Se17 3.358494 1_554
K1 Se15 3.420928 1_545
K1 P2 3.599191 1_555
K1 Se20 3.703562 1_555
K1 Se19 3.838649 1_555
K2 Se3 3.353656 1_555
K2 Se11 3.353712 1_665
K2 Se20 3.356440 1_555
K2 Se18 3.358494 1_654
K2 Se12 3.420928 1_655
K2 P0 3.599191 1_555
K2 Se23 3.703562 1_565
K2 Se16 3.838649 1_565
K3 Se7 3.324691 1_655
K3 Se10 3.344978 1_555
K3 Se0 3.386218 1_555
K3 Se9 3.409408 1_555
K3 Se6 3.428621 1_555
K3 Se3 3.445220 1_555
K4 Se1 3.353656 1_555
K4 Se9 3.353712 1_445
K4 Se22 3.356440 1_555
K4 Se16 3.358494 1_456
K4 Se14 3.420928 1_455
K4 P1 3.599191 1_555
K4 Se21 3.703562 1_545
K4 Se18 3.838649 1_545
K5 Se13 3.320640 1_565
K5 Se20 3.343231 1_556
K5 Se18 3.352522 1_655
K5 Se14 3.403001 1_555
K5 Se23 3.426833 1_566
K5 Se19 3.440177 1_556
K6 Se14 3.320640 1_555
K6 Se23 3.343231 1_556
K6 Se17 3.352522 1_555
K6 Se13 3.403001 1_555
K6 Se20 3.426833 1_556
K6 Se16 3.440177 1_556
K7 Se15 3.320640 1_545
K7 Se22 3.343231 1_554
K7 Se16 3.352522 1_455
K7 Se12 3.403001 1_555
K7 Se21 3.426833 1_544
K7 Se17 3.440177 1_554
K8 Se6 3.324691 1_555
K8 Se11 3.344978 1_565
K8 Se1 3.386218 1_565
K8 Se8 3.409408 1_555
K8 Se7 3.428621 1_555
K8 Se2 3.445220 1_555
K9 Se5 3.324691 1_455
K9 Se8 3.344978 1_555
K9 Se2 3.386218 1_555
K9 Se11 3.409408 1_555
K9 Se4 3.428621 1_555
K9 Se1 3.445220 1_555
K10 Se4 3.324691 1_555
K10 Se9 3.344978 1_545
K10 Se3 3.386218 1_545
K10 Se10 3.409408 1_555
K10 Se5 3.428621 1_555
K10 Se0 3.445220 1_555
K11 Se3 3.321508 1_545
K11 Se12 3.349572 1_655
K11 Se11 3.391884 1_655
K11 Se0 3.403879 1_555
K11 Se5 3.413936 1_555
K11 P6 3.478050 1_555
K11 Se20 3.527339 1_555
K11 Se16 3.723145 1_555
K12 Se2 3.321508 1_555
K12 Se13 3.349572 1_555
K12 Se10 3.391884 1_555
K12 Se1 3.403879 1_555
K12 Se4 3.413936 1_555
K12 P5 3.478050 1_555
K12 Se21 3.527339 1_545
K12 Se17 3.723145 1_555
K13 Se1 3.321508 1_565
K13 Se14 3.349572 1_455
K13 Se9 3.391884 1_455
K13 Se2 3.403879 1_555
K13 Se7 3.413936 1_555
K13 P4 3.478050 1_555
K13 Se22 3.527339 1_555
K13 Se18 3.723145 1_555
K14 Se2 3.353656 1_555
K14 Se10 3.353712 1_555
K14 Se21 3.356440 1_555
K14 Se19 3.358494 1_556
K14 Se13 3.420928 1_565
K14 P7 3.599191 1_555
K14 Se22 3.703562 1_555
K14 Se17 3.838649 1_555
K15 Se0 3.321508 1_555
K15 Se15 3.349572 1_555
K15 Se8 3.391884 1_555
K15 Se3 3.403879 1_555
K15 Se6 3.413936 1_555
K15 P3 3.478050 1_555
K15 Se23 3.527339 1_565
K15 Se19 3.723145 1_555
P0 Se7 2.174707 1_655
P0 Se3 2.193056 1_555
P0 Se11 2.194635 1_665
P1 Se5 2.174707 1_455
P1 Se1 2.193056 1_555
P1 Se9 2.194635 1_445
P2 Se4 2.174707 1_555
P2 Se0 2.193056 1_555
P2 Se8 2.194635 1_555
P3 Se19 2.190521 1_555
P3 Se15 2.191063 1_555
P3 Se23 2.192238 1_565
P4 Se18 2.190521 1_555
P4 Se14 2.191063 1_455
P4 Se22 2.192238 1_555
P5 Se17 2.190521 1_555
P5 Se13 2.191063 1_555
P5 Se21 2.192238 1_545
P6 Se16 2.190521 1_555
P6 Se12 2.191063 1_655
P6 Se20 2.192238 1_555
P7 Se6 2.174707 1_555
P7 Se2 2.193056 1_555
P7 Se10 2.194635 1_555
