# generated using pymatgen
data_Y2TcNiOs2
_symmetry_space_group_name_H-M   'P 1'
_cell_length_a   5.37526104
_cell_length_b   5.35395693
_cell_length_c   5.37526072
_cell_angle_alpha   57.71929693
_cell_angle_beta   58.70442120
_cell_angle_gamma   57.71930195
_symmetry_Int_Tables_number   1
_chemical_formula_structural   Y2TcNiOs2
_chemical_formula_sum   'Y2 Tc1 Ni1 Os2'
_cell_volume   104.46581316
_cell_formula_units_Z   1
loop_
 _symmetry_equiv_pos_site_id
 _symmetry_equiv_pos_as_xyz
  1  'x, y, z'
loop_
 _atom_site_type_symbol
 _atom_site_label
 _atom_site_symmetry_multiplicity
 _atom_site_fract_x
 _atom_site_fract_y
 _atom_site_fract_z
 _atom_site_occupancy
  Y  Y0  1  0.12361283  0.12265007  0.12361283  1
  Y  Y1  1  0.87638717  0.87734993  0.87638717  1
  Tc  Tc0  1  0.50000000  0.00000000  0.50000000  1
  Ni  Ni0  1  0.50000000  0.50000000  0.50000000  1
  Os  Os0  1  0.00000000  0.50000000  0.50000000  1
  Os  Os1  1  0.50000000  0.50000000  0.00000000  1
loop_
_geom_bond_atom_site_label_1
_geom_bond_atom_site_label_2
_geom_bond_distance
_geom_bond_site_symmetry_2
Y0 Y1 3.197252 1_454
Y0 Y1 3.235015 1_445
Y0 Y1 3.235016 1_544
Y0 Y1 3.289358 1_444
Tc0 Y0 3.106009 1_556
Tc0 Y1 3.106009 1_544
Tc0 Y0 3.106009 1_655
Tc0 Y1 3.106009 1_445
Tc0 Y1 3.167347 1_545
Tc0 Y0 3.167347 1_555
Ni0 Tc0 2.676978 1_555
Ni0 Tc0 2.676978 1_565
Ni0 Os1 2.687630 1_555
Ni0 Os1 2.687630 1_556
Ni0 Os0 2.687631 1_555
Ni0 Os0 2.687631 1_655
Ni0 Y0 3.023903 1_565
Ni0 Y1 3.023903 1_545
Ni0 Y1 3.081871 1_554
Ni0 Y0 3.081871 1_556
Ni0 Y1 3.081871 1_455
Ni0 Y0 3.081871 1_655
Os0 Tc0 2.589330 1_555
Os0 Tc0 2.589330 1_465
Os0 Os1 2.634829 1_555
Os0 Os1 2.634829 1_456
Os0 Y0 3.066922 1_556
Os0 Y1 3.066922 1_454
Os0 Y0 3.068090 1_565
Os0 Y1 3.068090 1_445
Os0 Y1 3.186206 1_455
Os0 Y0 3.186206 1_555
Os1 Tc0 2.589329 1_555
Os1 Tc0 2.589329 1_564
Os1 Y0 3.066923 1_655
Os1 Y1 3.066923 1_454
Os1 Y0 3.068091 1_565
Os1 Y1 3.068091 1_544
Os1 Y1 3.186206 1_554
Os1 Y0 3.186206 1_555
