# generated using pymatgen
data_NaLu(IO3)4
_symmetry_space_group_name_H-M   'P 1'
_cell_length_a   5.04529288
_cell_length_b   7.24168070
_cell_length_c   15.52358087
_cell_angle_alpha   78.62672486
_cell_angle_beta   90.00000000
_cell_angle_gamma   90.00000000
_symmetry_Int_Tables_number   1
_chemical_formula_structural   NaLu(IO3)4
_chemical_formula_sum   'Na2 Lu2 I8 O24'
_cell_volume   556.03827983
_cell_formula_units_Z   2
loop_
 _symmetry_equiv_pos_site_id
 _symmetry_equiv_pos_as_xyz
  1  'x, y, z'
loop_
 _atom_site_type_symbol
 _atom_site_label
 _atom_site_symmetry_multiplicity
 _atom_site_fract_x
 _atom_site_fract_y
 _atom_site_fract_z
 _atom_site_occupancy
  Na  Na0  1  0.50000000  0.50000000  0.00000000  1
  Na  Na1  1  0.00000000  0.50000000  0.50000000  1
  Lu  Lu0  1  0.50000000  0.00000000  0.00000000  1
  Lu  Lu1  1  0.00000000  0.00000000  0.50000000  1
  I  I0  1  0.92189235  0.66637897  0.16399137  1
  I  I1  1  0.42189235  0.33362103  0.33600863  1
  I  I2  1  0.07810765  0.33362103  0.83600863  1
  I  I3  1  0.57810765  0.66637897  0.66399137  1
  I  I4  1  0.99075420  0.18494792  0.14156628  1
  I  I5  1  0.49075420  0.81505208  0.35843372  1
  I  I6  1  0.00924580  0.81505208  0.85843372  1
  I  I7  1  0.50924580  0.18494792  0.64156628  1
  O  O0  1  0.68056582  0.74631413  0.07589515  1
  O  O1  1  0.18056582  0.25368587  0.42410485  1
  O  O2  1  0.31943418  0.25368587  0.92410485  1
  O  O3  1  0.81943418  0.74631413  0.57589515  1
  O  O4  1  0.81897723  0.82560157  0.23438214  1
  O  O5  1  0.31897723  0.17439843  0.26561786  1
  O  O6  1  0.18102277  0.17439843  0.76561786  1
  O  O7  1  0.68102277  0.82560157  0.73438214  1
  O  O8  1  0.74420816  0.45124297  0.20960612  1
  O  O9  1  0.24420816  0.54875703  0.29039388  1
  O  O10  1  0.25579184  0.54875703  0.79039388  1
  O  O11  1  0.75579184  0.45124297  0.70960612  1
  O  O12  1  0.73632579  0.19673074  0.05588329  1
  O  O13  1  0.23632579  0.80326926  0.44411671  1
  O  O14  1  0.26367421  0.80326926  0.94411671  1
  O  O15  1  0.76367421  0.19673074  0.55588329  1
  O  O16  1  0.20186391  0.01138049  0.10316139  1
  O  O17  1  0.70186391  0.98861951  0.39683861  1
  O  O18  1  0.79813609  0.98861951  0.89683861  1
  O  O19  1  0.29813609  0.01138049  0.60316139  1
  O  O20  1  0.15426354  0.39944387  0.09264536  1
  O  O21  1  0.65426354  0.60055613  0.40735464  1
  O  O22  1  0.84573646  0.60055613  0.90735464  1
  O  O23  1  0.34573646  0.39944387  0.59264536  1
loop_
_geom_bond_atom_site_label_1
_geom_bond_atom_site_label_2
_geom_bond_distance
_geom_bond_site_symmetry_2
Na0 O20 2.286555 1_555
Na0 O22 2.286555 1_554
Na0 O0 2.495703 1_555
Na0 O2 2.495703 1_554
Na0 O14 2.499204 1_554
Na0 O12 2.499204 1_555
Na1 O23 2.286555 1_555
Na1 O21 2.286555 1_455
Na1 O3 2.495703 1_455
Na1 O1 2.495703 1_555
Na1 O13 2.499204 1_555
Na1 O15 2.499204 1_455
Lu0 O12 2.165948 1_555
Lu0 O14 2.165948 1_544
Lu0 O2 2.177002 1_554
Lu0 O0 2.177002 1_545
Lu0 O16 2.210431 1_555
Lu0 O18 2.210431 1_544
Lu1 O15 2.165948 1_455
Lu1 O13 2.165948 1_545
Lu1 O1 2.177002 1_555
Lu1 O3 2.177002 1_445
Lu1 O19 2.210431 1_555
Lu1 O17 2.210431 1_445
I0 O4 1.813852 1_555
I0 O8 1.815810 1_555
I0 O0 1.837272 1_555
I1 O5 1.813852 1_555
I1 O9 1.815810 1_555
I1 O1 1.837272 1_555
I2 O6 1.813852 1_555
I2 O10 1.815810 1_555
I2 O2 1.837272 1_555
I3 O7 1.813852 1_555
I3 O11 1.815810 1_555
I3 O3 1.837272 1_555
I4 O20 1.790198 1_655
I4 O16 1.834471 1_655
I4 O12 1.838342 1_555
I5 O21 1.790198 1_555
I5 O17 1.834471 1_555
I5 O13 1.838342 1_555
I6 O22 1.790198 1_455
I6 O18 1.834471 1_455
I6 O14 1.838342 1_555
I7 O23 1.790198 1_555
I7 O19 1.834471 1_555
I7 O15 1.838342 1_555
