# generated using pymatgen
data_LuFeCoSi2
_symmetry_space_group_name_H-M   'P 1'
_cell_length_a   5.43786382
_cell_length_b   5.43786428
_cell_length_c   5.43786395
_cell_angle_alpha   138.38484762
_cell_angle_beta   138.38485780
_cell_angle_gamma   60.31408962
_symmetry_Int_Tables_number   1
_chemical_formula_structural   LuFeCoSi2
_chemical_formula_sum   'Lu1 Fe1 Co1 Si2'
_cell_volume   70.17893514
_cell_formula_units_Z   1
loop_
 _symmetry_equiv_pos_site_id
 _symmetry_equiv_pos_as_xyz
  1  'x, y, z'
loop_
 _atom_site_type_symbol
 _atom_site_label
 _atom_site_symmetry_multiplicity
 _atom_site_fract_x
 _atom_site_fract_y
 _atom_site_fract_z
 _atom_site_occupancy
  Lu  Lu0  1  0.00000000  0.00000000  0.00000000  1
  Fe  Fe0  1  0.25000000  0.75000000  0.50000000  1
  Co  Co0  1  0.75000000  0.25000000  0.50000000  1
  Si  Si0  1  0.36932875  0.36932875  1.00000000  1
  Si  Si1  1  0.63067125  0.63067125  0.00000000  1
loop_
_geom_bond_atom_site_label_1
_geom_bond_atom_site_label_2
_geom_bond_distance
_geom_bond_site_symmetry_2
Lu0 Si1 2.995468 1_556
Lu0 Si0 2.995468 1_443
Lu0 Si1 2.995468 1_444
Lu0 Si0 2.995468 1_555
Lu0 Si1 2.995469 1_545
Lu0 Si0 2.995469 1_454
Lu0 Si1 2.995469 1_455
Lu0 Si0 2.995469 1_544
Fe0 Si1 2.233972 1_455
Fe0 Si1 2.233972 1_556
Fe0 Si0 2.233972 1_554
Fe0 Si0 2.233972 1_565
Fe0 Lu0 3.042748 1_666
Fe0 Lu0 3.042748 1_565
Fe0 Lu0 3.042748 1_566
Fe0 Lu0 3.042748 1_555
Co0 Si0 2.233972 1_655
Co0 Si0 2.233972 1_554
Co0 Si1 2.233972 1_556
Co0 Si1 2.233972 1_545
Co0 Fe0 2.731830 1_656
Co0 Fe0 2.731830 1_544
Co0 Fe0 2.731830 1_555
Co0 Fe0 2.731830 1_645
Co0 Lu0 3.042748 1_555
Co0 Lu0 3.042748 1_656
Co0 Lu0 3.042748 1_655
Co0 Lu0 3.042748 1_666
Si0 Si1 2.457591 1_556
