# generated using pymatgen
data_Ca6Al24Os7Pd
_symmetry_space_group_name_H-M   'P 1'
_cell_length_a   8.83196461
_cell_length_b   8.83196497
_cell_length_c   9.59120179
_cell_angle_alpha   89.85122256
_cell_angle_beta   90.14877568
_cell_angle_gamma   119.96188661
_symmetry_Int_Tables_number   1
_chemical_formula_structural   Ca6Al24Os7Pd
_chemical_formula_sum   'Ca6 Al24 Os7 Pd1'
_cell_volume   648.16120016
_cell_formula_units_Z   1
loop_
 _symmetry_equiv_pos_site_id
 _symmetry_equiv_pos_as_xyz
  1  'x, y, z'
loop_
 _atom_site_type_symbol
 _atom_site_label
 _atom_site_symmetry_multiplicity
 _atom_site_fract_x
 _atom_site_fract_y
 _atom_site_fract_z
 _atom_site_occupancy
  Ca  Ca0  1  0.19101196  0.38592134  0.25117807  1
  Ca  Ca1  1  0.80898804  0.61407866  0.74882193  1
  Ca  Ca2  1  0.61407866  0.80898804  0.25117807  1
  Ca  Ca3  1  0.38592134  0.19101196  0.74882193  1
  Ca  Ca4  1  0.19598765  0.80401235  0.25126240  1
  Ca  Ca5  1  0.80401235  0.19598765  0.74873760  1
  Al  Al0  1  0.33087503  0.66912497  0.99215479  1
  Al  Al1  1  0.66912497  0.33087503  0.00784521  1
  Al  Al2  1  0.66642965  0.33357035  0.49842858  1
  Al  Al3  1  0.33357035  0.66642965  0.50157142  1
  Al  Al4  1  0.16271173  0.32489879  0.57189207  1
  Al  Al5  1  0.83728827  0.67510121  0.42810793  1
  Al  Al6  1  0.67510121  0.83728827  0.57189207  1
  Al  Al7  1  0.84535864  0.67731508  0.07575078  1
  Al  Al8  1  0.32489879  0.16271173  0.42810793  1
  Al  Al9  1  0.15464136  0.32268492  0.92424922  1
  Al  Al10  1  0.16286870  0.83713130  0.57059286  1
  Al  Al11  1  0.32268492  0.15464136  0.07575078  1
  Al  Al12  1  0.83713130  0.16286870  0.42940714  1
  Al  Al13  1  0.67731508  0.84535864  0.92424922  1
  Al  Al14  1  0.83799157  0.16200843  0.07188085  1
  Al  Al15  1  0.16200843  0.83799157  0.92811915  1
  Al  Al16  1  0.56076382  0.12258696  0.25018380  1
  Al  Al17  1  0.43923618  0.87741304  0.74981620  1
  Al  Al18  1  0.87741304  0.43923618  0.25018380  1
  Al  Al19  1  0.12258696  0.56076382  0.74981620  1
  Al  Al20  1  0.56241299  0.43758701  0.25257613  1
  Al  Al21  1  0.43758701  0.56241299  0.74742387  1
  Al  Al22  1  0.00105657  0.99894343  0.25026067  1
  Al  Al23  1  0.99894343  0.00105657  0.74973933  1
  Os  Os0  1  0.50000000  0.00000000  0.00000000  1
  Os  Os1  1  0.00000000  0.50000000  0.00000000  1
  Os  Os2  1  0.50000000  0.00000000  0.50000000  1
  Os  Os3  1  0.00000000  0.50000000  0.50000000  1
  Os  Os4  1  0.50000000  0.50000000  0.50000000  1
  Os  Os5  1  0.00000000  0.00000000  0.00000000  1
  Os  Os6  1  0.00000000  0.00000000  0.50000000  1
  Pd  Pd0  1  0.50000000  0.50000000  0.00000000  1
loop_
_geom_bond_atom_site_label_1
_geom_bond_atom_site_label_2
_geom_bond_distance
_geom_bond_site_symmetry_2
Ca0 Os3 3.359716 1_555
Ca0 Os1 3.365852 1_555
Ca0 Os4 3.374922 1_555
Ca0 Pd0 3.397255 1_555
Ca1 Os3 3.359716 1_655
Ca1 Os1 3.365852 1_656
Ca1 Os4 3.374922 1_555
Ca1 Pd0 3.397255 1_556
Ca2 Os2 3.359716 1_565
Ca2 Os0 3.365852 1_565
Ca2 Os4 3.374922 1_555
Ca2 Pd0 3.397255 1_555
Ca3 Os2 3.359716 1_555
Ca3 Os0 3.365852 1_556
Ca3 Os4 3.374922 1_555
Ca3 Pd0 3.397255 1_556
Ca4 Os3 3.353055 1_555
Ca4 Os2 3.353055 1_565
Ca4 Os0 3.373850 1_565
Ca4 Os1 3.373851 1_555
Ca5 Os3 3.353055 1_655
Ca5 Os2 3.353055 1_555
Ca5 Os0 3.373850 1_556
Ca5 Os1 3.373851 1_656
Al0 Os1 2.533197 1_556
Al0 Os0 2.533197 1_566
Al0 Pd0 2.587546 1_556
Al0 Ca4 3.234631 1_556
Al0 Ca0 3.294176 1_556
Al0 Ca2 3.294176 1_556
Al1 Os1 2.533197 1_655
Al1 Os0 2.533197 1_555
Al1 Pd0 2.587546 1_555
Al1 Ca5 3.234631 1_554
Al1 Ca1 3.294176 1_554
Al1 Ca3 3.294176 1_554
Al2 Os4 2.545544 1_555
Al2 Os3 2.552383 1_655
Al2 Os2 2.552383 1_555
Al2 Ca5 3.187673 1_555
Al2 Ca3 3.223358 1_555
Al2 Ca1 3.223358 1_555
Al3 Os4 2.545544 1_555
Al3 Os3 2.552383 1_555
Al3 Os2 2.552383 1_565
Al3 Ca4 3.187673 1_555
Al3 Ca2 3.223358 1_555
Al3 Ca0 3.223358 1_555
Al4 Os6 2.580860 1_555
Al4 Os3 2.672338 1_555
Al4 Os4 2.672940 1_555
Al4 Ca0 3.110586 1_555
Al4 Ca3 3.234958 1_555
Al4 Ca5 3.259556 1_455
Al5 Os6 2.580860 1_665
Al5 Os3 2.672338 1_655
Al5 Os4 2.672940 1_555
Al5 Ca1 3.110586 1_555
Al5 Ca2 3.234958 1_555
Al5 Ca4 3.259556 1_655
Al6 Os6 2.580860 1_665
Al6 Os2 2.672338 1_565
Al6 Os4 2.672940 1_555
Al6 Ca2 3.110586 1_555
Al6 Ca1 3.234958 1_555
Al6 Ca5 3.259556 1_565
Al7 Os5 2.573301 1_665
Al7 Os1 2.644465 1_655
Al7 Pd0 2.739929 1_555
Al7 Ca1 3.173644 1_554
Al7 Ca4 3.193300 1_655
Al7 Ca2 3.279725 1_555
Al8 Os6 2.580860 1_555
Al8 Os2 2.672338 1_555
Al8 Os4 2.672940 1_555
Al8 Ca3 3.110586 1_555
Al8 Ca0 3.234958 1_555
Al8 Ca4 3.259556 1_545
Al9 Os5 2.573301 1_556
Al9 Os1 2.644465 1_556
Al9 Pd0 2.739929 1_556
Al9 Ca0 3.173644 1_556
Al9 Ca5 3.193300 1_455
Al9 Ca3 3.279725 1_555
Al10 Os6 2.579408 1_565
Al10 Os2 2.668440 1_565
Al10 Os3 2.668441 1_555
Al10 Ca4 3.105866 1_555
Al10 Ca1 3.229822 1_455
Al10 Ca3 3.229822 1_565
Al11 Os5 2.573301 1_555
Al11 Os0 2.644465 1_555
Al11 Pd0 2.739929 1_555
Al11 Ca3 3.173644 1_554
Al11 Ca4 3.193300 1_545
Al11 Ca0 3.279726 1_555
Al12 Os6 2.579408 1_655
Al12 Os2 2.668440 1_555
Al12 Os3 2.668441 1_655
Al12 Ca5 3.105866 1_555
Al12 Ca0 3.229822 1_655
Al12 Ca2 3.229822 1_545
Al13 Os5 2.573301 1_666
Al13 Os0 2.644465 1_566
Al13 Pd0 2.739929 1_556
Al13 Ca2 3.173644 1_556
Al13 Ca5 3.193300 1_565
Al13 Ca1 3.279726 1_555
Al14 Os5 2.573948 1_655
Al14 Os0 2.676139 1_555
Al14 Os1 2.676139 1_655
Al14 Ca5 3.141064 1_554
Al14 Ca2 3.228047 1_545
Al14 Ca0 3.228047 1_655
Al15 Os5 2.573948 1_566
Al15 Os0 2.676139 1_566
Al15 Os1 2.676139 1_556
Al15 Ca4 3.141064 1_556
Al15 Ca3 3.228047 1_565
Al15 Ca1 3.228047 1_455
Al16 Os2 2.571779 1_555
Al16 Os0 2.577703 1_555
Al16 Ca2 3.032415 1_545
Al16 Ca4 3.040026 1_545
Al17 Os2 2.571779 1_565
Al17 Os0 2.577703 1_566
Al17 Ca3 3.032415 1_565
Al17 Ca5 3.040026 1_565
Al18 Os3 2.571779 1_655
Al18 Os1 2.577703 1_655
Al18 Ca0 3.032415 1_655
Al18 Ca4 3.040026 1_655
Al19 Os3 2.571779 1_555
Al19 Os1 2.577703 1_556
Al19 Ca1 3.032415 1_455
Al19 Ca5 3.040026 1_455
Al20 Os4 2.560540 1_555
Al20 Pd0 2.601132 1_555
Al20 Ca0 3.077801 1_555
Al20 Ca2 3.077801 1_555
Al21 Os4 2.560540 1_555
Al21 Pd0 2.601132 1_556
Al21 Ca1 3.077801 1_555
Al21 Ca3 3.077801 1_555
Al22 Os6 2.395403 1_565
Al22 Os5 2.400306 1_565
Al22 Ca2 2.961187 1_455
Al22 Ca0 2.961187 1_565
Al22 Ca4 2.981355 1_555
Al23 Os6 2.395403 1_655
Al23 Os5 2.400306 1_656
Al23 Ca3 2.961187 1_655
Al23 Ca1 2.961187 1_545
Al23 Ca5 2.981355 1_555
