# generated using pymatgen
data_Sr(SmS2)2
_symmetry_space_group_name_H-M   'P 1'
_cell_length_a   7.46400498
_cell_length_b   7.46400649
_cell_length_c   7.46400577
_cell_angle_alpha   109.38980692
_cell_angle_beta   109.38980607
_cell_angle_gamma   109.63416764
_symmetry_Int_Tables_number   1
_chemical_formula_structural   Sr(SmS2)2
_chemical_formula_sum   'Sr2 Sm4 S8'
_cell_volume   320.10421463
_cell_formula_units_Z   2
loop_
 _symmetry_equiv_pos_site_id
 _symmetry_equiv_pos_as_xyz
  1  'x, y, z'
loop_
 _atom_site_type_symbol
 _atom_site_label
 _atom_site_symmetry_multiplicity
 _atom_site_fract_x
 _atom_site_fract_y
 _atom_site_fract_z
 _atom_site_occupancy
  Sr  Sr0  1  0.75000011  0.25000021  0.50000029  1
  Sr  Sr1  1  0.49999998  0.49999989  -0.00000008  1
  Sm  Sm0  1  0.99898611  0.37500023  0.12398607  1
  Sm  Sm1  1  0.62500025  0.74898628  0.62398623  1
  Sm  Sm2  1  0.25101451  0.87500015  0.87601429  1
  Sm  Sm3  1  0.12499989  0.00101408  0.37601398  1
  S  S0  1  0.51340103  0.11230273  0.74800020  1
  S  S1  1  0.01540089  0.11430252  0.75199978  1
  S  S2  1  0.36230276  0.26340099  0.24800028  1
  S  S3  1  0.23459931  0.48659893  0.59890175  1
  S  S4  1  0.88569751  0.63769741  0.90109837  1
  S  S5  1  0.36430251  0.76540074  0.25199971  1
  S  S6  1  0.88769726  0.63569742  0.40109829  1
  S  S7  1  0.73659888  0.98459941  0.09890182  1
loop_
_geom_bond_atom_site_label_1
_geom_bond_atom_site_label_2
_geom_bond_distance
_geom_bond_site_symmetry_2
S0 Sm2 2.814400 1_545
S0 Sm3 2.882555 1_555
S0 Sr1 2.937209 1_556
S0 Sm1 3.044301 1_545
S0 Sm0 3.110214 1_556
S0 Sr0 3.132967 1_555
S1 Sm1 2.814400 1_445
S1 Sm0 2.882556 1_456
S1 Sr0 2.937210 1_455
S1 Sm2 3.044304 1_545
S1 Sm3 3.110212 1_555
S1 Sr1 3.132968 1_556
S2 Sm3 2.814401 1_555
S2 Sm2 2.882555 1_544
S2 Sr0 2.937209 1_555
S2 Sm0 3.044303 1_455
S2 Sm1 3.110215 1_555
S2 Sr1 3.132969 1_555
S3 Sm1 2.814402 1_555
S3 Sm2 2.882555 1_555
S3 Sr1 2.937209 1_556
S3 Sm0 3.044303 1_455
S3 Sm3 3.110212 1_555
S3 Sr0 3.132969 1_455
S4 Sm2 2.814403 1_655
S4 Sm1 2.882554 1_555
S4 Sr0 2.937209 1_555
S4 Sm3 3.044302 1_666
S4 Sm0 3.110213 1_556
S4 Sr1 3.132968 1_556
S5 Sm0 2.814400 1_455
S5 Sm1 2.882555 1_555
S5 Sr1 2.937210 1_555
S5 Sm3 3.044304 1_565
S5 Sm2 3.110212 1_554
S5 Sr0 3.132970 1_565
S6 Sm3 2.814402 1_665
S6 Sm0 2.882554 1_555
S6 Sr1 2.937210 1_555
S6 Sm2 3.044305 1_655
S6 Sm1 3.110213 1_555
S6 Sr0 3.132968 1_555
S7 Sm0 2.814402 1_565
S7 Sm3 2.882555 1_665
S7 Sr0 2.937210 1_565
S7 Sm1 3.044302 1_554
S7 Sm2 3.110209 1_554
S7 Sr1 3.132970 1_555
