# generated using pymatgen
data_K3Ta2Cu3Te8
_symmetry_space_group_name_H-M   'P 1'
_cell_length_a   5.98853809
_cell_length_b   13.41587552
_cell_length_c   14.93134167
_cell_angle_alpha   69.72749973
_cell_angle_beta   78.43170729
_cell_angle_gamma   77.10362550
_symmetry_Int_Tables_number   1
_chemical_formula_structural   K3Ta2Cu3Te8
_chemical_formula_sum   'K6 Ta4 Cu6 Te16'
_cell_volume   1086.90909368
_cell_formula_units_Z   2
loop_
 _symmetry_equiv_pos_site_id
 _symmetry_equiv_pos_as_xyz
  1  'x, y, z'
loop_
 _atom_site_type_symbol
 _atom_site_label
 _atom_site_symmetry_multiplicity
 _atom_site_fract_x
 _atom_site_fract_y
 _atom_site_fract_z
 _atom_site_occupancy
  K  K0  1  0.73366888  0.70280837  0.90182006  1
  K  K1  1  0.33829831  0.79719163  0.59817994  1
  K  K2  1  0.26633112  0.29719163  0.09817994  1
  K  K3  1  0.66170169  0.20280837  0.40182006  1
  K  K4  1  0.00000000  0.50000000  0.50000000  1
  K  K5  1  0.00000000  0.00000000  0.00000000  1
  Ta  Ta0  1  0.15345428  0.46831200  0.77363053  1
  Ta  Ta1  1  0.39539681  0.03168800  0.72636947  1
  Ta  Ta2  1  0.84654572  0.53168800  0.22636947  1
  Ta  Ta3  1  0.60460319  0.96831200  0.27363053  1
  Cu  Cu0  1  0.26769596  0.25000000  0.75000000  1
  Cu  Cu1  1  0.73230404  0.75000000  0.25000000  1
  Cu  Cu2  1  0.89295670  0.03318129  0.72800897  1
  Cu  Cu3  1  0.65414796  0.46681871  0.77199103  1
  Cu  Cu4  1  0.10704330  0.96681871  0.27199103  1
  Cu  Cu5  1  0.34585204  0.53318129  0.22800897  1
  Te  Te0  1  0.93239912  0.30724530  0.87337577  1
  Te  Te1  1  0.11301918  0.19275470  0.62662423  1
  Te  Te2  1  0.06760088  0.69275470  0.12662423  1
  Te  Te3  1  0.88698082  0.80724530  0.37337577  1
  Te  Te4  1  0.49149537  0.40817907  0.65070326  1
  Te  Te5  1  0.55037669  0.09182093  0.84929674  1
  Te  Te6  1  0.50850463  0.59182093  0.34929674  1
  Te  Te7  1  0.44962331  0.90817907  0.15070326  1
  Te  Te8  1  0.86856626  0.63210283  0.67795885  1
  Te  Te9  1  0.17862894  0.86789717  0.82204115  1
  Te  Te10  1  0.13143374  0.36789717  0.32204115  1
  Te  Te11  1  0.82137106  0.13210283  0.17795885  1
  Te  Te12  1  0.73788008  0.96912516  0.60928129  1
  Te  Te13  1  0.31628653  0.53087484  0.89071871  1
  Te  Te14  1  0.26211992  0.03087484  0.39071871  1
  Te  Te15  1  0.68371347  0.46912516  0.10928129  1
loop_
_geom_bond_atom_site_label_1
_geom_bond_atom_site_label_2
_geom_bond_distance
_geom_bond_site_symmetry_2
K0 Te15 3.582034 1_556
K0 Te9 3.599699 1_655
K0 Te8 3.673848 1_555
K0 Te9 3.721042 1_555
K0 Te13 3.736571 1_655
K0 Te13 3.821034 1_555
K1 Te14 3.582035 1_565
K1 Te8 3.599690 1_555
K1 Te9 3.673848 1_555
K1 Te8 3.721052 1_455
K1 Te12 3.736566 1_555
K1 Te12 3.821039 1_455
K2 Te13 3.582034 1_554
K2 Te11 3.599699 1_455
K2 Te10 3.673848 1_555
K2 Te11 3.721042 1_555
K2 Te15 3.736571 1_455
K2 Te15 3.821034 1_555
K3 Te12 3.582035 1_545
K3 Te10 3.599690 1_555
K3 Te11 3.673848 1_555
K3 Te10 3.721052 1_655
K3 Te14 3.736566 1_555
K3 Te14 3.821039 1_655
K4 Te8 3.552867 1_455
K4 Te10 3.552867 1_555
K4 Te4 3.586009 1_455
K4 Te6 3.586009 1_555
K4 Te4 3.789609 1_555
K4 Te6 3.789609 1_455
K4 Te3 3.858848 1_455
K4 Te1 3.858848 1_555
K5 Te11 3.552868 1_455
K5 Te9 3.552868 1_544
K5 Te5 3.586014 1_454
K5 Te7 3.586014 1_545
K5 Te5 3.789604 1_554
K5 Te7 3.789604 1_445
K5 Te0 3.858849 1_454
K5 Te2 3.858849 1_545
Ta0 Te13 2.603421 1_555
Ta0 Te0 2.625989 1_455
Ta0 Te8 2.628430 1_455
Ta0 Te4 2.631486 1_555
Ta1 Te12 2.603421 1_545
Ta1 Te1 2.625993 1_555
Ta1 Te9 2.628426 1_545
Ta1 Te5 2.631482 1_555
Ta2 Te15 2.603421 1_555
Ta2 Te2 2.625989 1_655
Ta2 Te10 2.628430 1_655
Ta2 Te6 2.631486 1_555
Ta3 Te14 2.603421 1_565
Ta3 Te3 2.625993 1_555
Ta3 Te11 2.628426 1_565
Ta3 Te7 2.631482 1_555
Cu0 Te5 2.605772 1_555
Cu0 Te4 2.605775 1_555
Cu0 Te0 2.612223 1_455
Cu0 Te1 2.612226 1_555
Cu0 Ta0 2.982543 1_555
Cu0 Ta1 2.982543 1_555
Cu1 Te7 2.605772 1_555
Cu1 Te6 2.605775 1_555
Cu1 Te2 2.612223 1_655
Cu1 Te3 2.612226 1_555
Cu1 Ta2 2.982543 1_555
Cu1 Ta3 2.982543 1_555
Cu2 Te12 2.610730 1_545
Cu2 Te1 2.612452 1_655
Cu2 Te5 2.623773 1_555
Cu2 Te9 2.632027 1_645
Cu2 Ta1 2.989246 1_555
Cu2 Ta1 2.999710 1_655
Cu3 Te13 2.610734 1_555
Cu3 Te0 2.612452 1_555
Cu3 Te4 2.623772 1_555
Cu3 Te8 2.632020 1_555
Cu3 Ta0 2.989252 1_555
Cu3 Ta0 2.999704 1_655
Cu4 Te14 2.610730 1_565
Cu4 Te3 2.612452 1_455
Cu4 Te7 2.623773 1_555
Cu4 Te11 2.632027 1_465
Cu4 Ta3 2.989246 1_555
Cu4 Ta3 2.999710 1_455
Cu5 Te15 2.610734 1_555
Cu5 Te2 2.612452 1_555
Cu5 Te6 2.623772 1_555
Cu5 Te10 2.632020 1_555
Cu5 Ta2 2.989252 1_555
Cu5 Ta2 2.999704 1_455
