# generated using pymatgen
data_SrZnSbH
_symmetry_space_group_name_H-M   'P 1'
_cell_length_a   4.34489865
_cell_length_b   4.35172154
_cell_length_c   18.17207196
_cell_angle_alpha   90.00000000
_cell_angle_beta   90.00000000
_cell_angle_gamma   90.00000000
_symmetry_Int_Tables_number   1
_chemical_formula_structural   SrZnSbH
_chemical_formula_sum   'Sr4 Zn4 Sb4 H4'
_cell_volume   343.59370333
_cell_formula_units_Z   4
loop_
 _symmetry_equiv_pos_site_id
 _symmetry_equiv_pos_as_xyz
  1  'x, y, z'
loop_
 _atom_site_type_symbol
 _atom_site_label
 _atom_site_symmetry_multiplicity
 _atom_site_fract_x
 _atom_site_fract_y
 _atom_site_fract_z
 _atom_site_occupancy
  Sr  Sr0  1  0.25000000  0.75135827  0.56890959  1
  Sr  Sr1  1  0.75000000  0.24864173  0.43109041  1
  Sr  Sr2  1  0.75000000  0.25135827  0.93109041  1
  Sr  Sr3  1  0.25000000  0.74864173  0.06890959  1
  Zn  Zn0  1  0.25000000  0.25589829  0.75021703  1
  Zn  Zn1  1  0.75000000  0.74410171  0.24978297  1
  Zn  Zn2  1  0.75000000  0.75589829  0.74978297  1
  Zn  Zn3  1  0.25000000  0.24410171  0.25021703  1
  Sb  Sb0  1  0.25000000  0.74512816  0.34180799  1
  Sb  Sb1  1  0.75000000  0.25487184  0.65819201  1
  Sb  Sb2  1  0.75000000  0.24512816  0.15819201  1
  Sb  Sb3  1  0.25000000  0.75487184  0.84180799  1
  H  H0  1  0.25000000  0.24969600  0.99999224  1
  H  H1  1  0.75000000  0.75030400  0.00000776  1
  H  H2  1  0.75000000  0.74969600  0.50000776  1
  H  H3  1  0.25000000  0.25030400  0.49999224  1
loop_
_geom_bond_atom_site_label_1
_geom_bond_atom_site_label_2
_geom_bond_distance
_geom_bond_site_symmetry_2
Sb0 Zn3 2.735904 1_565
Sb0 Zn1 2.741550 1_455
Sb0 Zn1 2.741550 1_555
Sb0 Zn3 2.743000 1_555
Sb0 Sr1 3.466978 1_455
Sb0 Sr1 3.466978 1_555
Sb0 Sr1 3.486117 1_465
Sb0 Sr1 3.486117 1_565
Sb1 Zn2 2.735904 1_545
Sb1 Zn0 2.741550 1_655
Sb1 Zn0 2.741550 1_555
Sb1 Zn2 2.743000 1_555
Sb1 Sr0 3.466978 1_555
Sb1 Sr0 3.466978 1_655
Sb1 Sr0 3.486117 1_645
Sb1 Sr0 3.486117 1_545
Sb2 Zn1 2.735904 1_555
Sb2 Zn3 2.741550 1_655
Sb2 Zn3 2.741550 1_555
Sb2 Zn1 2.743000 1_545
Sb2 Sr3 3.466978 1_545
Sb2 Sr3 3.466978 1_645
Sb2 Sr3 3.486117 1_555
Sb2 Sr3 3.486117 1_655
Sb3 Zn0 2.735904 1_555
Sb3 Zn2 2.741550 1_555
Sb3 Zn2 2.741550 1_455
Sb3 Zn0 2.743000 1_565
Sb3 Sr2 3.466978 1_565
Sb3 Sr2 3.466978 1_465
Sb3 Sr2 3.486117 1_455
Sb3 Sr2 3.486117 1_555
H0 Sr3 2.506563 1_556
H0 Sr2 2.507452 1_455
H0 Sr2 2.507452 1_555
H0 Sr3 2.514516 1_546
H1 Sr2 2.506563 1_554
H1 Sr3 2.507452 1_555
H1 Sr3 2.507452 1_655
H1 Sr2 2.514516 1_564
H2 Sr1 2.506563 1_565
H2 Sr0 2.507452 1_655
H2 Sr0 2.507452 1_555
H2 Sr1 2.514516 1_555
H3 Sr0 2.506563 1_545
H3 Sr1 2.507452 1_555
H3 Sr1 2.507452 1_455
H3 Sr0 2.514516 1_555
