# generated using pymatgen
data_RbHf2Cl9
_symmetry_space_group_name_H-M   'P 1'
_cell_length_a   6.41054160
_cell_length_b   9.57392024
_cell_length_c   12.42967938
_cell_angle_alpha   67.40824316
_cell_angle_beta   90.00000000
_cell_angle_gamma   90.00000000
_symmetry_Int_Tables_number   1
_chemical_formula_structural   RbHf2Cl9
_chemical_formula_sum   'Rb2 Hf4 Cl18'
_cell_volume   704.32168440
_cell_formula_units_Z   2
loop_
 _symmetry_equiv_pos_site_id
 _symmetry_equiv_pos_as_xyz
  1  'x, y, z'
loop_
 _atom_site_type_symbol
 _atom_site_label
 _atom_site_symmetry_multiplicity
 _atom_site_fract_x
 _atom_site_fract_y
 _atom_site_fract_z
 _atom_site_occupancy
  Rb  Rb0  1  0.60886510  0.50000000  0.75000000  1
  Rb  Rb1  1  0.39113490  0.50000000  0.25000000  1
  Hf  Hf0  1  0.26071248  0.82242877  0.86661954  1
  Hf  Hf1  1  0.73928752  0.17757123  0.13338046  1
  Hf  Hf2  1  0.26071248  0.17757123  0.63338046  1
  Hf  Hf3  1  0.73928752  0.82242877  0.36661954  1
  Cl  Cl0  1  0.10658015  0.78829675  0.04518708  1
  Cl  Cl1  1  0.89341985  0.21170325  0.95481292  1
  Cl  Cl2  1  0.10658015  0.21170325  0.45481292  1
  Cl  Cl3  1  0.89341985  0.78829675  0.54518708  1
  Cl  Cl4  1  0.11391037  0.61383630  0.83788901  1
  Cl  Cl5  1  0.88608963  0.38616370  0.16211099  1
  Cl  Cl6  1  0.11391037  0.38616370  0.66211099  1
  Cl  Cl7  1  0.88608963  0.61383630  0.33788901  1
  Cl  Cl8  1  0.97028623  0.00000000  0.75000000  1
  Cl  Cl9  1  0.02971377  0.00000000  0.25000000  1
  Cl  Cl10  1  0.41110114  0.08127927  0.84356825  1
  Cl  Cl11  1  0.58889886  0.91872073  0.15643175  1
  Cl  Cl12  1  0.41110114  0.91872073  0.65643175  1
  Cl  Cl13  1  0.58889886  0.08127927  0.34356825  1
  Cl  Cl14  1  0.58184937  0.70341793  0.93949747  1
  Cl  Cl15  1  0.41815063  0.29658207  0.06050253  1
  Cl  Cl16  1  0.58184937  0.29658207  0.56050253  1
  Cl  Cl17  1  0.41815063  0.70341793  0.43949747  1
loop_
_geom_bond_atom_site_label_1
_geom_bond_atom_site_label_2
_geom_bond_distance
_geom_bond_site_symmetry_2
Cl0 Hf0 2.334985 1_554
Cl0 Rb1 3.468140 1_555
Cl1 Hf1 2.334985 1_556
Cl1 Rb0 3.468140 1_555
Cl2 Hf2 2.334985 1_555
Cl2 Rb1 3.468140 1_555
Cl3 Hf3 2.334985 1_555
Cl3 Rb0 3.468140 1_555
Cl4 Hf0 2.355697 1_555
Cl4 Rb0 3.655604 1_555
Cl4 Rb0 3.711888 1_455
Cl5 Hf1 2.355697 1_555
Cl5 Rb1 3.655604 1_555
Cl5 Rb1 3.711888 1_655
Cl6 Hf2 2.355697 1_555
Cl6 Rb0 3.655604 1_555
Cl6 Rb0 3.711888 1_455
Cl7 Hf3 2.355697 1_555
Cl7 Rb1 3.655604 1_555
Cl7 Rb1 3.711888 1_655
Cl8 Hf2 2.562076 1_655
Cl8 Hf0 2.562076 1_645
Cl9 Hf1 2.562076 1_455
Cl9 Hf3 2.562076 1_445
Cl10 Hf0 2.570510 1_545
Cl10 Hf2 2.598906 1_555
Cl10 Rb0 3.930415 1_555
Cl11 Hf1 2.570510 1_565
Cl11 Hf3 2.598906 1_555
Cl11 Rb1 3.930415 1_555
Cl12 Hf2 2.570510 1_565
Cl12 Hf0 2.598906 1_555
Cl12 Rb0 3.930415 1_555
Cl13 Hf3 2.570510 1_545
Cl13 Hf1 2.598906 1_555
Cl13 Rb1 3.930415 1_555
Cl14 Hf0 2.358787 1_555
Cl14 Rb0 3.590971 1_555
Cl14 Rb1 3.795769 1_556
Cl15 Hf1 2.358787 1_555
Cl15 Rb1 3.590971 1_555
Cl15 Rb0 3.795769 1_554
Cl16 Hf2 2.358787 1_555
Cl16 Rb0 3.590971 1_555
Cl16 Rb1 3.795769 1_555
Cl17 Hf3 2.358787 1_555
Cl17 Rb1 3.590971 1_555
Cl17 Rb0 3.795769 1_555
