# generated using pymatgen
data_Tb2FeSi2
_symmetry_space_group_name_H-M   'P 1'
_cell_length_a   5.69023780
_cell_length_b   5.69023780
_cell_length_c   10.02398781
_cell_angle_alpha   62.64004072
_cell_angle_beta   62.64004072
_cell_angle_gamma   42.75820026
_symmetry_Int_Tables_number   1
_chemical_formula_structural   Tb2FeSi2
_chemical_formula_sum   'Tb4 Fe2 Si4'
_cell_volume   191.64249787
_cell_formula_units_Z   2
loop_
 _symmetry_equiv_pos_site_id
 _symmetry_equiv_pos_as_xyz
  1  'x, y, z'
loop_
 _atom_site_type_symbol
 _atom_site_label
 _atom_site_symmetry_multiplicity
 _atom_site_fract_x
 _atom_site_fract_y
 _atom_site_fract_z
 _atom_site_occupancy
  Tb  Tb0  1  0.18882400  0.18882400  0.89158100  1
  Tb  Tb1  1  0.81117600  0.81117600  0.10841900  1
  Tb  Tb2  1  0.99855800  0.99855800  0.67239500  1
  Tb  Tb3  1  0.00144200  0.00144200  0.32760500  1
  Fe  Fe0  1  0.72763500  0.72763500  0.62316300  1
  Fe  Fe1  1  0.27236500  0.27236500  0.37683700  1
  Si  Si0  1  0.50193300  0.50193300  0.87268000  1
  Si  Si1  1  0.49806700  0.49806700  0.12732000  1
  Si  Si2  1  0.34262900  0.34262900  0.56425300  1
  Si  Si3  1  0.65737100  0.65737100  0.43574700  1
loop_
_geom_bond_atom_site_label_1
_geom_bond_atom_site_label_2
_geom_bond_distance
_geom_bond_site_symmetry_2
Fe0 Si2 2.329417 1_655
Fe0 Si2 2.329417 1_565
Fe0 Si3 2.337648 1_555
Fe0 Si0 2.464066 1_555
Fe0 Tb3 2.951504 1_665
Fe0 Tb2 3.042538 1_545
Fe0 Tb2 3.042538 1_455
Fe0 Tb2 3.144069 1_555
Fe0 Tb0 3.258679 1_565
Fe0 Tb0 3.258679 1_655
Fe1 Si3 2.329417 1_545
Fe1 Si3 2.329417 1_455
Fe1 Si2 2.337648 1_555
Fe1 Si1 2.464066 1_555
Fe1 Tb2 2.951504 1_445
Fe1 Tb3 3.042538 1_565
Fe1 Tb3 3.042538 1_655
Fe1 Tb3 3.144069 1_555
Fe1 Tb1 3.258679 1_545
Fe1 Tb1 3.258679 1_455
Si0 Si1 2.532539 1_556
Si0 Tb2 2.899236 1_545
Si0 Tb2 2.899236 1_455
Si0 Tb0 2.937961 1_565
Si0 Tb0 2.937961 1_655
Si0 Tb1 3.042702 1_546
Si0 Tb1 3.042702 1_456
Si0 Tb0 3.228832 1_555
Si1 Tb3 2.899236 1_565
Si1 Tb3 2.899236 1_655
Si1 Tb1 2.937961 1_455
Si1 Tb1 2.937961 1_545
Si1 Tb0 3.042702 1_654
Si1 Tb0 3.042702 1_564
Si1 Tb1 3.228832 1_555
Si2 Tb0 2.853695 1_555
Si2 Tb3 2.970116 1_565
Si2 Tb3 2.970116 1_655
Si2 Tb2 3.158559 1_545
Si2 Tb2 3.158559 1_455
Si3 Tb1 2.853695 1_555
Si3 Tb2 2.970116 1_455
Si3 Tb2 2.970116 1_545
Si3 Tb3 3.158559 1_655
Si3 Tb3 3.158559 1_565
