# generated using pymatgen
data_Y7Sn23(RuRh)3
_symmetry_space_group_name_H-M   'P 1'
_cell_length_a   9.85085032
_cell_length_b   9.85085275
_cell_length_c   9.96111982
_cell_angle_alpha   90.00000000
_cell_angle_beta   90.00000000
_cell_angle_gamma   120.00000510
_symmetry_Int_Tables_number   1
_chemical_formula_structural   Y7Sn23(RuRh)3
_chemical_formula_sum   'Y7 Sn23 Ru3 Rh3'
_cell_volume   837.11730681
_cell_formula_units_Z   1
loop_
 _symmetry_equiv_pos_site_id
 _symmetry_equiv_pos_as_xyz
  1  'x, y, z'
loop_
 _atom_site_type_symbol
 _atom_site_label
 _atom_site_symmetry_multiplicity
 _atom_site_fract_x
 _atom_site_fract_y
 _atom_site_fract_z
 _atom_site_occupancy
  Y  Y0  1  0.00000000  0.00000000  0.99632394  1
  Y  Y1  1  0.03805522  0.51902761  0.30657636  1
  Y  Y2  1  0.48097239  0.96194478  0.30657636  1
  Y  Y3  1  0.48097239  0.51902761  0.30657636  1
  Y  Y4  1  0.96565547  0.48282674  0.69442009  1
  Y  Y5  1  0.51717326  0.03434453  0.69442009  1
  Y  Y6  1  0.51717326  0.48282674  0.69442009  1
  Sn  Sn0  1  0.00000000  0.00000000  0.49698679  1
  Sn  Sn1  1  0.11685347  0.88314653  0.28171383  1
  Sn  Sn2  1  0.76629206  0.88314653  0.28171383  1
  Sn  Sn3  1  0.11685347  0.23370794  0.28171383  1
  Sn  Sn4  1  0.88445822  0.11554178  0.72057361  1
  Sn  Sn5  1  0.23108355  0.11554178  0.72057361  1
  Sn  Sn6  1  0.88445822  0.76891645  0.72057361  1
  Sn  Sn7  1  0.34982843  0.99887691  0.99949662  1
  Sn  Sn8  1  0.64904847  0.65017157  0.99949662  1
  Sn  Sn9  1  0.00112309  0.35095153  0.99949662  1
  Sn  Sn10  1  0.34982843  0.35095153  0.99949662  1
  Sn  Sn11  1  0.00112309  0.65017157  0.99949662  1
  Sn  Sn12  1  0.64904847  0.99887691  0.99949662  1
  Sn  Sn13  1  0.77772053  0.55544107  0.45895553  1
  Sn  Sn14  1  0.77772053  0.22227947  0.45895553  1
  Sn  Sn15  1  0.44455893  0.22227947  0.45895553  1
  Sn  Sn16  1  0.22144790  0.44289579  0.54144871  1
  Sn  Sn17  1  0.22144790  0.77855210  0.54144871  1
  Sn  Sn18  1  0.55710421  0.77855210  0.54144871  1
  Sn  Sn19  1  0.66666700  0.33333300  0.17706837  1
  Sn  Sn20  1  0.33333300  0.66666700  0.82415879  1
  Sn  Sn21  1  0.66666700  0.33333300  0.87667648  1
  Sn  Sn22  1  0.33333300  0.66666700  0.12375599  1
  Ru  Ru0  1  0.16858447  0.83141553  0.79966061  1
  Ru  Ru1  1  0.66283107  0.83141553  0.79966061  1
  Ru  Ru2  1  0.16858447  0.33716893  0.79966061  1
  Rh  Rh0  1  0.83043177  0.16956823  0.19933291  1
  Rh  Rh1  1  0.33913647  0.16956823  0.19933291  1
  Rh  Rh2  1  0.83043177  0.66086353  0.19933291  1
loop_
_geom_bond_atom_site_label_1
_geom_bond_atom_site_label_2
_geom_bond_distance
_geom_bond_site_symmetry_2
Sn0 Sn1 2.928040 1_545
Sn0 Sn2 2.928045 1_445
Sn0 Sn3 2.928045 1_555
Sn0 Sn5 2.974341 1_555
Sn0 Sn4 2.974341 1_455
Sn0 Sn6 2.974341 1_445
Sn1 Sn17 3.143039 1_555
Sn1 Y2 3.278008 1_555
Sn1 Y1 3.278009 1_555
Sn1 Sn7 3.442844 1_554
Sn1 Sn11 3.442844 1_554
Sn1 Sn2 3.453328 1_455
Sn1 Sn3 3.453329 1_565
Sn1 Y0 3.472271 1_564
Sn2 Y2 3.277999 1_555
Sn2 Y3 3.278006 1_555
Sn2 Sn8 3.442844 1_554
Sn2 Sn3 3.453328 1_665
Sn2 Y0 3.472276 1_664
Sn3 Y1 3.277999 1_555
Sn3 Y3 3.278005 1_555
Sn3 Sn9 3.442839 1_554
Sn3 Y0 3.472276 1_554
Sn4 Y5 3.302138 1_555
Sn4 Y4 3.302139 1_555
Sn4 Y0 3.381007 1_655
Sn4 Sn5 3.414554 1_655
Sn4 Sn6 3.414555 1_545
Sn4 Sn9 3.428236 1_655
Sn5 Y6 3.302145 1_555
Sn5 Y5 3.302158 1_555
Sn5 Y0 3.381006 1_555
Sn5 Sn6 3.414554 1_445
Sn5 Sn7 3.428236 1_545
Sn6 Y6 3.302144 1_555
Sn6 Y4 3.302158 1_555
Sn6 Y0 3.381007 1_665
Sn6 Sn8 3.428236 1_555
Sn7 Y5 3.390953 1_565
Sn7 Y2 3.409975 1_556
Sn7 Y0 3.451797 1_565
Sn8 Y6 3.390950 1_555
Sn8 Y3 3.409975 1_556
Sn8 Y0 3.451797 1_665
Sn9 Y4 3.390945 1_455
Sn9 Y1 3.409975 1_556
Sn9 Y0 3.451798 1_555
Sn10 Sn8 2.947572 1_555
Sn10 Y6 3.390950 1_555
Sn10 Y3 3.409975 1_556
Sn10 Sn22 3.425835 1_556
Sn10 Sn5 3.428236 1_555
Sn10 Sn21 3.436573 1_555
Sn10 Sn3 3.442843 1_556
Sn10 Y0 3.451797 1_555
Sn11 Sn9 2.947573 1_555
Sn11 Y4 3.390953 1_455
Sn11 Y1 3.409975 1_556
Sn11 Sn22 3.425825 1_556
Sn11 Sn6 3.428236 1_455
Sn11 Sn21 3.436569 1_455
Sn11 Y0 3.451798 1_565
Sn12 Sn7 2.947572 1_555
Sn12 Y5 3.390945 1_565
Sn12 Y2 3.409975 1_556
Sn12 Sn22 3.425829 1_556
Sn12 Sn4 3.428236 1_565
Sn12 Sn21 3.436565 1_565
Sn12 Sn2 3.442839 1_556
Sn12 Y0 3.451797 1_665
Sn13 Y3 3.151070 1_555
Sn13 Y1 3.151070 1_655
Sn13 Sn6 3.179303 1_555
Sn13 Y6 3.280940 1_555
Sn13 Y4 3.280953 1_555
Sn13 Sn15 3.281925 1_555
Sn13 Sn14 3.281926 1_555
Sn13 Sn19 3.387436 1_555
Sn14 Y2 3.151070 1_545
Sn14 Y1 3.151070 1_655
Sn14 Sn4 3.179303 1_555
Sn14 Y5 3.280943 1_555
Sn14 Y4 3.280944 1_555
Sn14 Sn15 3.281925 1_555
Sn14 Sn19 3.387431 1_555
Sn15 Y2 3.151071 1_545
Sn15 Y3 3.151071 1_555
Sn15 Sn5 3.179303 1_555
Sn15 Y6 3.280940 1_555
Sn15 Y5 3.280954 1_555
Sn15 Sn19 3.387436 1_555
Sn16 Y4 3.133211 1_455
Sn16 Y6 3.133228 1_555
Sn16 Sn3 3.143034 1_555
Sn16 Y3 3.264155 1_555
Sn16 Y1 3.264155 1_555
Sn16 Sn18 3.306500 1_555
Sn16 Sn17 3.306501 1_555
Sn16 Sn20 3.402175 1_555
Sn17 Y5 3.133221 1_565
Sn17 Y4 3.133221 1_455
Sn17 Y2 3.264155 1_555
Sn17 Y1 3.264155 1_555
Sn17 Sn18 3.306500 1_555
Sn17 Sn20 3.402170 1_555
Sn18 Y5 3.133211 1_565
Sn18 Y6 3.133228 1_555
Sn18 Sn2 3.143034 1_555
Sn18 Y2 3.264155 1_555
Sn18 Y3 3.264155 1_555
Sn18 Sn20 3.402175 1_555
Sn19 Sn21 2.992240 1_554
Sn19 Y1 3.420910 1_655
Sn19 Y2 3.420911 1_545
Sn19 Y3 3.420918 1_555
Sn20 Sn22 2.984324 1_556
Sn20 Y4 3.392487 1_455
Sn20 Y5 3.392487 1_565
Sn20 Y6 3.392511 1_555
Sn21 Y6 3.130810 1_555
Sn21 Y4 3.130816 1_555
Sn21 Y5 3.130817 1_555
Sn21 Sn9 3.436564 1_655
Sn21 Sn7 3.436569 1_545
Sn21 Sn8 3.436574 1_555
Sn22 Y1 3.108368 1_555
Sn22 Y2 3.108369 1_555
Sn22 Y3 3.108376 1_555
Sn22 Sn7 3.425825 1_554
Sn22 Sn9 3.425829 1_554
Sn22 Sn8 3.425834 1_554
Ru0 Sn7 2.631759 1_555
Ru0 Sn11 2.631759 1_555
Ru0 Sn6 2.666503 1_455
Ru0 Sn5 2.666504 1_565
Ru0 Sn17 2.725644 1_555
Ru0 Sn20 2.821541 1_555
Ru0 Y5 3.165795 1_565
Ru0 Y4 3.165796 1_455
Ru0 Y0 3.480145 1_565
Ru1 Sn12 2.631760 1_555
Ru1 Sn8 2.631760 1_555
Ru1 Sn6 2.666503 1_555
Ru1 Sn4 2.666504 1_565
Ru1 Sn18 2.725644 1_555
Ru1 Sn20 2.821549 1_555
Ru1 Y5 3.165780 1_565
Ru1 Y6 3.165798 1_555
Ru1 Y0 3.480145 1_665
Ru2 Sn10 2.631759 1_555
Ru2 Sn9 2.631759 1_555
Ru2 Sn4 2.666503 1_455
Ru2 Sn5 2.666504 1_555
Ru2 Sn16 2.725644 1_555
Ru2 Sn20 2.821550 1_555
Ru2 Y4 3.165780 1_455
Ru2 Y6 3.165797 1_555
Ru2 Y0 3.480145 1_555
Rh0 Sn12 2.641580 1_544
Rh0 Sn9 2.641580 1_654
Rh0 Sn3 2.692720 1_655
Rh0 Sn2 2.692721 1_545
Rh0 Sn14 2.738054 1_555
Rh0 Sn19 2.802971 1_555
Rh0 Y2 3.183417 1_545
Rh0 Y1 3.183418 1_655
Rh0 Y0 3.529859 1_654
Rh1 Sn7 2.641580 1_544
Rh1 Sn10 2.641580 1_554
Rh1 Sn1 2.692724 1_545
Rh1 Sn3 2.692730 1_555
Rh1 Sn15 2.738054 1_555
Rh1 Sn19 2.802979 1_555
Rh1 Y2 3.183418 1_545
Rh1 Y3 3.183418 1_555
Rh1 Y0 3.529858 1_554
Rh2 Sn8 2.641580 1_554
Rh2 Sn11 2.641580 1_654
Rh2 Sn1 2.692723 1_655
Rh2 Sn2 2.692730 1_555
Rh2 Sn13 2.738054 1_555
Rh2 Sn19 2.802980 1_555
Rh2 Y3 3.183417 1_555
Rh2 Y1 3.183418 1_655
Rh2 Y0 3.529859 1_664
