# generated using pymatgen
data_Tl9SbTe6
_symmetry_space_group_name_H-M   'P 1'
_cell_length_a   8.94515962
_cell_length_b   8.94477745
_cell_length_c   9.24953427
_cell_angle_alpha   118.91647129
_cell_angle_beta   118.90085127
_cell_angle_gamma   90.00400641
_symmetry_Int_Tables_number   1
_chemical_formula_structural   Tl9SbTe6
_chemical_formula_sum   'Tl9 Sb1 Te6'
_cell_volume   540.09862368
_cell_formula_units_Z   1
loop_
 _symmetry_equiv_pos_site_id
 _symmetry_equiv_pos_as_xyz
  1  'x, y, z'
loop_
 _atom_site_type_symbol
 _atom_site_label
 _atom_site_symmetry_multiplicity
 _atom_site_fract_x
 _atom_site_fract_y
 _atom_site_fract_z
 _atom_site_occupancy
  Tl  Tl0  1  0.20374404  0.99322553  0.70179578  1
  Tl  Tl1  1  0.00856067  0.52752283  0.33129148  1
  Tl  Tl2  1  0.00137252  0.00132073  0.00278011  1
  Tl  Tl3  1  0.32250288  0.80396485  0.33141543  1
  Tl  Tl4  1  0.49817924  0.70878723  0.70199500  1
  Tl  Tl5  1  0.70891147  0.20360517  0.70212378  1
  Tl  Tl6  1  0.52736308  0.32231490  0.33129718  1
  Tl  Tl7  1  0.80392814  0.00880162  0.33122260  1
  Tl  Tl8  1  0.99296388  0.49841640  0.70198655  1
  Sb  Sb0  1  0.49151982  0.49163656  -0.01670813  1
  Te  Te0  1  0.27795801  0.27791678  0.55588140  1
  Te  Te1  1  0.18814086  0.35647245  0.01422448  1
  Te  Te2  1  0.35611947  0.82605225  0.01395035  1
  Te  Te3  1  0.75446561  0.75442979  0.50884928  1
  Te  Te4  1  0.65790019  0.18772505  0.01412504  1
  Te  Te5  1  0.82646712  0.65790587  0.01396765  1
loop_
_geom_bond_atom_site_label_1
_geom_bond_atom_site_label_2
_geom_bond_distance
_geom_bond_site_symmetry_2
Sb0 Te0 2.885098 1_554
Sb0 Te1 3.161124 1_555
Sb0 Te2 3.163425 1_555
Sb0 Te4 3.166420 1_555
Sb0 Te5 3.168426 1_555
Te1 Tl6 3.188553 1_555
Te1 Tl0 3.199570 1_544
Te1 Tl3 3.362755 1_555
Te1 Tl8 3.416672 1_454
Te1 Tl2 3.520970 1_555
Te1 Tl5 3.577713 1_454
Te2 Tl3 3.188486 1_555
Te2 Tl8 3.198098 1_454
Te2 Tl7 3.365609 1_565
Te2 Tl4 3.414417 1_554
Te2 Tl2 3.518315 1_565
Te2 Tl0 3.577965 1_554
Te3 Tl2 3.334123 1_666
Te3 Tl1 3.516828 1_655
Te3 Tl7 3.519902 1_565
Te3 Tl3 3.520504 1_555
Te3 Tl6 3.521219 1_555
Te4 Tl1 3.188175 1_655
Te4 Tl5 3.197791 1_554
Te4 Tl6 3.363808 1_555
Te4 Tl0 3.416267 1_544
Te4 Tl2 3.517660 1_655
Te4 Tl4 3.574949 1_544
Te5 Tl7 3.188725 1_565
Te5 Tl4 3.199516 1_554
Te5 Tl1 3.364159 1_655
Te5 Tl5 3.416294 1_554
Te5 Tl2 3.515328 1_665
Te5 Tl8 3.571246 1_554
