# generated using pymatgen
data_Y4Co5Si10Ru
_symmetry_space_group_name_H-M   'P 1'
_cell_length_a   7.90180713
_cell_length_b   7.90180685
_cell_length_c   7.90180733
_cell_angle_alpha   139.09969009
_cell_angle_beta   106.30565171
_cell_angle_gamma   87.90185653
_symmetry_Int_Tables_number   1
_chemical_formula_structural   Y4Co5Si10Ru
_chemical_formula_sum   'Y4 Co5 Si10 Ru1'
_cell_volume   297.69200473
_cell_formula_units_Z   1
loop_
 _symmetry_equiv_pos_site_id
 _symmetry_equiv_pos_as_xyz
  1  'x, y, z'
loop_
 _atom_site_type_symbol
 _atom_site_label
 _atom_site_symmetry_multiplicity
 _atom_site_fract_x
 _atom_site_fract_y
 _atom_site_fract_z
 _atom_site_occupancy
  Y  Y0  1  0.86656396  0.62444560  0.22255426  1
  Y  Y1  1  0.13343604  0.35599031  0.75788265  1
  Y  Y2  1  0.59810766  0.87555440  0.74211735  1
  Y  Y3  1  0.40189234  0.14400969  0.27744574  1
  Co  Co0  1  0.74392802  0.12462309  0.59064200  1
  Co  Co1  1  0.53398109  0.65328702  0.90935800  1
  Co  Co2  1  0.46601891  0.37537691  0.11930593  1
  Co  Co3  1  0.00000000  0.75000000  0.75000000  1
  Co  Co4  1  0.25607198  0.84671298  0.38069407  1
  Si  Si0  1  0.06044805  0.88325875  0.14649067  1
  Si  Si1  1  0.93955195  0.08604163  0.82280971  1
  Si  Si2  1  0.26323192  0.61674125  0.67719029  1
  Si  Si3  1  0.73676808  0.41395837  0.35350933  1
  Si  Si4  1  0.22966407  0.97966407  0.75000000  1
  Si  Si5  1  0.77033593  0.52033593  0.75000000  1
  Si  Si6  1  0.77739284  0.02739284  0.25000000  1
  Si  Si7  1  0.50000000  0.25000000  0.75000000  1
  Si  Si8  1  0.50000000  0.75000000  0.25000000  1
  Si  Si9  1  0.22260716  0.47260716  0.25000000  1
  Ru  Ru0  1  0.00000000  0.25000000  0.25000000  1
loop_
_geom_bond_atom_site_label_1
_geom_bond_atom_site_label_2
_geom_bond_distance
_geom_bond_site_symmetry_2
Co0 Si1 2.250896 1_555
Co0 Si6 2.272438 1_555
Co0 Si8 2.276513 1_545
Co0 Si5 2.313966 1_555
Co0 Si7 2.370540 1_555
Co0 Y0 2.990643 1_545
Co0 Y1 3.006254 1_655
Co0 Y0 3.036669 1_556
Co0 Y3 3.199955 1_555
Co0 Y2 3.336950 1_545
Co1 Si2 2.250889 1_555
Co1 Si6 2.272434 1_566
Co1 Si8 2.276517 1_556
Co1 Si5 2.313966 1_555
Co1 Si7 2.370547 1_555
Co1 Y3 2.990634 1_566
Co1 Y2 3.006254 1_555
Co1 Y3 3.036670 1_555
Co1 Y0 3.199965 1_556
Co1 Y1 3.336960 1_555
Co2 Si3 2.250889 1_555
Co2 Si9 2.272434 1_555
Co2 Si8 2.276517 1_555
Co2 Si4 2.313966 1_544
Co2 Si7 2.370547 1_554
Co2 Y2 2.990635 1_555
Co2 Y3 3.006247 1_555
Co2 Y2 3.036666 1_544
Co2 Y1 3.199960 1_554
Co2 Y0 3.336957 1_555
Co3 Si1 2.315597 1_465
Co3 Si2 2.315599 1_555
Co3 Si3 2.315599 1_455
Co3 Si0 2.315601 1_556
Co3 Si4 2.613018 1_555
Co3 Si5 2.613018 1_455
Co3 Ru0 2.760831 1_555
Co3 Ru0 2.760831 1_566
Co3 Y0 3.290087 1_455
Co3 Y1 3.290092 1_555
Co3 Y3 3.290092 1_566
Co3 Y2 3.290094 1_455
Co4 Si0 2.250896 1_555
Co4 Si9 2.272434 1_555
Co4 Si8 2.276510 1_555
Co4 Si4 2.313969 1_555
Co4 Si7 2.370543 1_565
Co4 Y1 2.990633 1_554
Co4 Y0 3.006256 1_455
Co4 Y1 3.036674 1_565
Co4 Y2 3.199951 1_555
Co4 Y3 3.336957 1_565
Si0 Si5 2.482166 1_454
Si0 Si6 2.530063 1_465
Si0 Y3 2.865604 1_565
Si0 Y1 2.932369 1_554
Si0 Y1 2.989698 1_565
Si0 Y0 3.081462 1_455
Si1 Si4 2.482163 1_645
Si1 Si9 2.530067 1_656
Si1 Y2 2.865601 1_545
Si1 Y0 2.932364 1_545
Si1 Y0 2.989698 1_556
Si1 Y1 3.081455 1_655
Si2 Si4 2.482171 1_555
Si2 Si9 2.530071 1_555
Si2 Y1 2.865597 1_555
Si2 Y3 2.932365 1_566
Si2 Y3 2.989700 1_555
Si2 Y2 3.081464 1_555
Si3 Si5 2.482171 1_555
Si3 Si6 2.530071 1_555
Si3 Y0 2.865590 1_555
Si3 Y2 2.932369 1_555
Si3 Y2 2.989698 1_544
Si3 Y3 3.081460 1_555
Si4 Si9 2.761998 1_555
Si4 Si9 2.761998 1_566
Si4 Y2 3.000952 1_555
Si4 Y1 3.000953 1_565
Si4 Y0 3.109890 1_455
Si4 Y3 3.109891 1_566
Si5 Si6 2.761998 1_566
Si5 Si6 2.761998 1_555
Si5 Y3 3.000953 1_555
Si5 Y0 3.000959 1_556
Si5 Y1 3.109891 1_655
Si5 Y2 3.109898 1_555
Si6 Y1 3.034020 1_655
Si6 Y2 3.034025 1_544
Si6 Y3 3.091774 1_555
Si6 Y0 3.091782 1_545
Si7 Y2 2.989966 1_545
Si7 Y0 2.989973 1_556
Si7 Y1 2.989974 1_555
Si7 Y3 2.989974 1_555
Si8 Y2 3.039431 1_555
Si8 Y3 3.039436 1_565
Si8 Y1 3.039436 1_554
Si8 Y0 3.039438 1_555
Si9 Y0 3.034017 1_455
Si9 Y3 3.034020 1_555
Si9 Y1 3.091774 1_554
Si9 Y2 3.091775 1_555
Ru0 Si0 2.414537 1_545
Ru0 Si3 2.414539 1_455
Ru0 Si2 2.414539 1_555
Ru0 Si1 2.414540 1_454
Ru0 Si9 2.532728 1_555
Ru0 Si6 2.532728 1_455
Ru0 Y0 3.244446 1_455
Ru0 Y2 3.244454 1_444
Ru0 Y3 3.244454 1_555
Ru0 Y1 3.244454 1_555
