# generated using pymatgen
data_RbNa3(In2Se3)2
_symmetry_space_group_name_H-M   'P 1'
_cell_length_a   7.27491023
_cell_length_b   7.27490916
_cell_length_c   9.14772482
_cell_angle_alpha   82.32528978
_cell_angle_beta   82.32528777
_cell_angle_gamma   119.99792763
_symmetry_Int_Tables_number   1
_chemical_formula_structural   RbNa3(In2Se3)2
_chemical_formula_sum   'Rb1 Na3 In4 Se6'
_cell_volume   404.05190823
_cell_formula_units_Z   1
loop_
 _symmetry_equiv_pos_site_id
 _symmetry_equiv_pos_as_xyz
  1  'x, y, z'
loop_
 _atom_site_type_symbol
 _atom_site_label
 _atom_site_symmetry_multiplicity
 _atom_site_fract_x
 _atom_site_fract_y
 _atom_site_fract_z
 _atom_site_occupancy
  Rb  Rb0  1  0.50000000  0.50000000  0.50000000  1
  Na  Na0  1  0.66223562  0.33776438  0.00000000  1
  Na  Na1  1  0.33776438  0.66223562  1.00000000  1
  Na  Na2  1  0.00000000  0.00000000  0.00000000  1
  In  In0  1  0.88480304  0.21890271  0.34177152  1
  In  In1  1  0.78109729  0.11519696  0.65822848  1
  In  In2  1  0.21890271  0.88480304  0.34177152  1
  In  In3  1  0.11519696  0.78109729  0.65822848  1
  Se  Se0  1  0.40369389  0.05660886  0.78968773  1
  Se  Se1  1  0.05660886  0.40369389  0.78968773  1
  Se  Se2  1  0.94339114  0.59630611  0.21031227  1
  Se  Se3  1  0.75100664  0.75100664  0.79044722  1
  Se  Se4  1  0.59630611  0.94339114  0.21031227  1
  Se  Se5  1  0.24899336  0.24899336  0.20955278  1
loop_
_geom_bond_atom_site_label_1
_geom_bond_atom_site_label_2
_geom_bond_distance
_geom_bond_site_symmetry_2
Rb0 Se0 3.588755 1_555
Rb0 Se4 3.588755 1_555
Rb0 Se1 3.588755 1_555
Rb0 Se2 3.588755 1_555
Rb0 Se3 3.603568 1_555
Rb0 Se5 3.603568 1_555
Na0 Se4 3.010970 1_545
Na0 Se1 3.010971 1_654
Na0 Se3 3.052584 1_554
Na0 Se5 3.052584 1_555
Na0 Se0 3.097299 1_554
Na0 Se2 3.097299 1_555
Na1 Se0 3.010970 1_565
Na1 Se2 3.010971 1_456
Na1 Se5 3.052584 1_556
Na1 Se3 3.052584 1_555
Na1 Se4 3.097299 1_556
Na1 Se1 3.097299 1_555
Na2 Se5 2.968320 1_555
Na2 Se3 2.968320 1_444
Na2 Se2 3.092859 1_445
Na2 Se1 3.092859 1_554
Na2 Se4 3.092860 1_445
Na2 Se0 3.092860 1_554
In0 Se2 2.641411 1_555
In0 Se4 2.641947 1_545
In0 Se5 2.650250 1_655
In1 Se0 2.641411 1_555
In1 Se1 2.641947 1_655
In1 Se3 2.650249 1_545
In2 Se4 2.641411 1_555
In2 Se2 2.641947 1_455
In2 Se5 2.650249 1_565
In3 Se1 2.641411 1_555
In3 Se0 2.641947 1_565
In3 Se3 2.650250 1_455
