# generated using pymatgen
data_Cs2Pb3S4
_symmetry_space_group_name_H-M   'P 1'
_cell_length_a   7.71650760
_cell_length_b   10.79681789
_cell_length_c   15.52445436
_cell_angle_alpha   90.00000000
_cell_angle_beta   90.00000000
_cell_angle_gamma   90.00000000
_symmetry_Int_Tables_number   1
_chemical_formula_structural   Cs2Pb3S4
_chemical_formula_sum   'Cs8 Pb12 S16'
_cell_volume   1293.40015721
_cell_formula_units_Z   4
loop_
 _symmetry_equiv_pos_site_id
 _symmetry_equiv_pos_as_xyz
  1  'x, y, z'
loop_
 _atom_site_type_symbol
 _atom_site_label
 _atom_site_symmetry_multiplicity
 _atom_site_fract_x
 _atom_site_fract_y
 _atom_site_fract_z
 _atom_site_occupancy
  Cs  Cs0  1  0.04665296  0.25000000  0.55154784  1
  Cs  Cs1  1  0.54665296  0.75000000  0.94845216  1
  Cs  Cs2  1  0.95334704  0.75000000  0.44845216  1
  Cs  Cs3  1  0.45334704  0.25000000  0.05154784  1
  Cs  Cs4  1  0.00000000  0.00000000  0.00000000  1
  Cs  Cs5  1  0.50000000  0.50000000  0.50000000  1
  Cs  Cs6  1  0.00000000  0.50000000  0.00000000  1
  Cs  Cs7  1  0.50000000  0.00000000  0.50000000  1
  Pb  Pb0  1  0.33755507  0.07668716  0.78715827  1
  Pb  Pb1  1  0.83755507  0.92331284  0.71284173  1
  Pb  Pb2  1  0.66244493  0.57668716  0.21284173  1
  Pb  Pb3  1  0.16244493  0.42331284  0.28715827  1
  Pb  Pb4  1  0.66244493  0.92331284  0.21284173  1
  Pb  Pb5  1  0.16244493  0.07668716  0.28715827  1
  Pb  Pb6  1  0.33755507  0.42331284  0.78715827  1
  Pb  Pb7  1  0.83755507  0.57668716  0.71284173  1
  Pb  Pb8  1  0.72245795  0.25000000  0.29326774  1
  Pb  Pb9  1  0.22245795  0.75000000  0.20673226  1
  Pb  Pb10  1  0.27754205  0.75000000  0.70673226  1
  Pb  Pb11  1  0.77754205  0.25000000  0.79326774  1
  S  S0  1  0.63396602  0.06974146  0.88383375  1
  S  S1  1  0.13396602  0.93025854  0.61616625  1
  S  S2  1  0.36603398  0.56974146  0.11616625  1
  S  S3  1  0.86603398  0.43025854  0.38383375  1
  S  S4  1  0.36603398  0.93025854  0.11616625  1
  S  S5  1  0.86603398  0.06974146  0.38383375  1
  S  S6  1  0.63396602  0.43025854  0.88383375  1
  S  S7  1  0.13396602  0.56974146  0.61616625  1
  S  S8  1  0.04175025  0.25000000  0.17699130  1
  S  S9  1  0.54175025  0.75000000  0.32300870  1
  S  S10  1  0.95824975  0.75000000  0.82300870  1
  S  S11  1  0.45824975  0.25000000  0.67699130  1
  S  S12  1  0.84992555  0.75000000  0.12440315  1
  S  S13  1  0.65007445  0.75000000  0.62440315  1
  S  S14  1  0.15007445  0.25000000  0.87559685  1
  S  S15  1  0.34992555  0.25000000  0.37559685  1
loop_
_geom_bond_atom_site_label_1
_geom_bond_atom_site_label_2
_geom_bond_distance
_geom_bond_site_symmetry_2
Cs0 S3 3.536862 1_455
Cs0 S5 3.536862 1_455
Cs0 S15 3.596928 1_555
Cs0 S7 3.657581 1_555
Cs0 S1 3.657581 1_545
Cs0 S11 3.725597 1_555
Cs0 Pb11 4.288826 1_455
Cs1 S4 3.536862 1_556
Cs1 S2 3.536862 1_556
Cs1 S12 3.596928 1_556
Cs1 S0 3.657581 1_565
Cs1 S6 3.657581 1_555
Cs1 S10 3.725597 1_555
Cs1 Pb10 4.288826 1_555
Cs2 S1 3.536862 1_655
Cs2 S7 3.536862 1_655
Cs2 S13 3.596928 1_555
Cs2 S5 3.657581 1_565
Cs2 S3 3.657581 1_555
Cs2 S9 3.725597 1_555
Cs2 Pb9 4.288826 1_655
Cs3 S6 3.536862 1_554
Cs3 S0 3.536862 1_554
Cs3 S14 3.596928 1_554
Cs3 S2 3.657581 1_555
Cs3 S4 3.657581 1_545
Cs3 S8 3.725597 1_555
Cs3 Pb8 4.288826 1_555
Cs4 S4 3.434694 1_545
Cs4 S0 3.434694 1_454
Cs4 S12 3.515206 1_445
Cs4 S14 3.515206 1_554
Cs4 S8 3.865141 1_555
Cs4 S10 3.865141 1_444
Cs5 S7 3.434694 1_555
Cs5 S3 3.434694 1_555
Cs5 S13 3.515206 1_555
Cs5 S15 3.515206 1_555
Cs5 S11 3.865141 1_555
Cs5 S9 3.865141 1_555
Cs6 S2 3.434694 1_555
Cs6 S6 3.434694 1_454
Cs6 S12 3.515206 1_455
Cs6 S14 3.515206 1_554
Cs6 S8 3.865141 1_555
Cs6 S10 3.865141 1_454
Cs7 S5 3.434694 1_555
Cs7 S1 3.434694 1_545
Cs7 S13 3.515206 1_545
Cs7 S15 3.515206 1_555
Cs7 S11 3.865141 1_555
Cs7 S9 3.865141 1_545
Pb0 S11 2.700732 1_555
Pb0 S14 2.734857 1_555
Pb0 S0 2.736727 1_555
Pb1 S10 2.700732 1_555
Pb1 S13 2.734857 1_555
Pb1 S1 2.736727 1_655
Pb2 S9 2.700732 1_555
Pb2 S12 2.734857 1_555
Pb2 S2 2.736727 1_555
Pb3 S8 2.700732 1_555
Pb3 S15 2.734857 1_555
Pb3 S3 2.736727 1_455
Pb4 S9 2.700732 1_555
Pb4 S12 2.734857 1_555
Pb4 S4 2.736727 1_555
Pb5 S8 2.700732 1_555
Pb5 S15 2.734857 1_555
Pb5 S5 2.736727 1_455
Pb6 S11 2.700732 1_555
Pb6 S14 2.734857 1_555
Pb6 S6 2.736727 1_555
Pb7 S10 2.700732 1_555
Pb7 S13 2.734857 1_555
Pb7 S7 2.736727 1_655
Pb8 S3 2.644243 1_555
Pb8 S5 2.644243 1_555
Pb8 S8 3.054326 1_655
Pb8 S15 3.145979 1_555
Pb9 S4 2.644243 1_555
Pb9 S2 2.644243 1_555
Pb9 S9 3.054326 1_555
Pb9 S12 3.145979 1_455
Pb10 S1 2.644243 1_555
Pb10 S7 2.644243 1_555
Pb10 S10 3.054326 1_455
Pb10 S13 3.145979 1_555
Pb11 S6 2.644243 1_555
Pb11 S0 2.644243 1_555
Pb11 S11 3.054326 1_555
Pb11 S14 3.145979 1_655
