# generated using pymatgen
data_Ba4NbSbO9
_symmetry_space_group_name_H-M   'P 1'
_cell_length_a   6.12584535
_cell_length_b   6.12598662
_cell_length_c   16.64493221
_cell_angle_alpha   90.00000000
_cell_angle_beta   90.00000000
_cell_angle_gamma   119.99963037
_symmetry_Int_Tables_number   1
_chemical_formula_structural   Ba4NbSbO9
_chemical_formula_sum   'Ba8 Nb2 Sb2 O18'
_cell_volume   540.94903791
_cell_formula_units_Z   2
loop_
 _symmetry_equiv_pos_site_id
 _symmetry_equiv_pos_as_xyz
  1  'x, y, z'
loop_
 _atom_site_type_symbol
 _atom_site_label
 _atom_site_symmetry_multiplicity
 _atom_site_fract_x
 _atom_site_fract_y
 _atom_site_fract_z
 _atom_site_occupancy
  Ba  Ba0  1  0.00001925  0.00000207  0.75614303  1
  Ba  Ba1  1  0.99998075  0.99999793  0.25614303  1
  Ba  Ba2  1  0.66666298  0.33333629  0.63583580  1
  Ba  Ba3  1  0.33333702  0.66666371  0.13583580  1
  Ba  Ba4  1  0.33330403  0.66667154  0.37230547  1
  Ba  Ba5  1  0.66669597  0.33332846  0.87230547  1
  Ba  Ba6  1  0.99998996  0.00000570  0.49666576  1
  Ba  Ba7  1  0.00001004  0.99999430  0.99666576  1
  Nb  Nb0  1  0.33336157  0.66671589  0.65544759  1
  Nb  Nb1  1  0.66663843  0.33328411  0.15544759  1
  Sb  Sb0  1  0.66665542  0.33329874  0.33507333  1
  Sb  Sb1  1  0.33334458  0.66670126  0.83507333  1
  O  O0  1  0.52080089  0.95438594  0.75110624  1
  O  O1  1  0.04562679  0.56641768  0.75111079  1
  O  O2  1  0.43359478  0.47919929  0.75110280  1
  O  O3  1  0.47919911  0.04561406  0.25110624  1
  O  O4  1  0.95437321  0.43358232  0.25111079  1
  O  O5  1  0.56640522  0.52080071  0.25110280  1
  O  O6  1  0.10706144  0.35448089  0.60725367  1
  O  O7  1  0.64549729  0.75258434  0.60724673  1
  O  O8  1  0.24741272  0.89291803  0.60725063  1
  O  O9  1  0.89293856  0.64551911  0.10725367  1
  O  O10  1  0.35450271  0.24741566  0.10724673  1
  O  O11  1  0.75258728  0.10708197  0.10725063  1
  O  O12  1  0.88246843  0.64722390  0.39115386  1
  O  O13  1  0.35277129  0.23527248  0.39114762  1
  O  O14  1  0.76470719  0.11750920  0.39115568  1
  O  O15  1  0.11753157  0.35277610  0.89115386  1
  O  O16  1  0.64722871  0.76472752  0.89114762  1
  O  O17  1  0.23529281  0.88249080  0.89115568  1
loop_
_geom_bond_atom_site_label_1
_geom_bond_atom_site_label_2
_geom_bond_distance
_geom_bond_site_symmetry_2
Ba0 O2 2.807517 1_555
Ba0 O1 2.807523 1_545
Ba0 O0 2.807603 1_445
Ba0 O16 2.946642 1_445
Ba0 O15 2.946685 1_555
Ba0 O17 2.946722 1_545
Ba0 O8 3.140571 1_545
Ba0 O6 3.140598 1_555
Ba0 O7 3.140771 1_445
Ba0 O0 3.339783 1_545
Ba0 O2 3.339981 1_445
Ba0 O1 3.339992 1_555
Ba1 O5 2.807517 1_555
Ba1 O4 2.807523 1_565
Ba1 O3 2.807603 1_665
Ba1 O13 2.946642 1_665
Ba1 O12 2.946685 1_555
Ba1 O14 2.946722 1_565
Ba1 O11 3.140571 1_565
Ba1 O9 3.140598 1_555
Ba1 O10 3.140771 1_665
Ba1 O3 3.339783 1_565
Ba1 O5 3.339981 1_665
Ba1 O4 3.339992 1_555
Ba2 O6 2.678033 1_655
Ba2 O8 2.678144 1_545
Ba2 O7 2.678145 1_555
Ba2 O2 2.791720 1_555
Ba2 O0 2.791869 1_545
Ba2 O1 2.791935 1_655
Ba3 O9 2.678033 1_455
Ba3 O11 2.678144 1_565
Ba3 O10 2.678145 1_555
Ba3 O5 2.791720 1_555
Ba3 O3 2.791869 1_565
Ba3 O4 2.791935 1_455
Ba4 O12 2.722289 1_455
Ba4 O14 2.722392 1_565
Ba4 O13 2.722469 1_555
Ba4 O4 2.860437 1_455
Ba4 O3 2.860537 1_565
Ba4 O5 2.860679 1_555
Ba5 O15 2.722289 1_655
Ba5 O17 2.722392 1_545
Ba5 O16 2.722469 1_555
Ba5 O1 2.860437 1_655
Ba5 O0 2.860537 1_545
Ba5 O2 2.860679 1_555
Ba6 O14 2.591766 1_555
Ba6 O12 2.591784 1_545
Ba6 O13 2.591831 1_655
Ba6 O7 2.666364 1_545
Ba6 O6 2.666395 1_655
Ba6 O8 2.666462 1_645
Ba7 O17 2.591766 1_555
Ba7 O15 2.591784 1_565
Ba7 O16 2.591831 1_455
Ba7 O10 2.666364 1_566
Ba7 O9 2.666395 1_456
Ba7 O11 2.666462 1_466
Nb0 O8 1.889595 1_555
Nb0 O7 1.889628 1_555
Nb0 O6 1.890053 1_555
Nb0 O0 2.221653 1_555
Nb0 O1 2.221891 1_555
Nb0 O2 2.221919 1_555
Nb1 O11 1.889595 1_555
Nb1 O10 1.889628 1_555
Nb1 O9 1.890053 1_555
Nb1 O3 2.221653 1_555
Nb1 O4 2.221891 1_555
Nb1 O5 2.221919 1_555
O0 Sb1 2.086664 1_555
O1 Sb1 2.086684 1_555
O2 Sb1 2.086962 1_555
O3 Sb0 2.086664 1_555
O4 Sb0 2.086684 1_555
O5 Sb0 2.086962 1_555
O12 Sb0 1.942951 1_555
O13 Sb0 1.942754 1_555
O14 Sb0 1.942592 1_555
O15 Sb1 1.942951 1_555
O16 Sb1 1.942754 1_555
O17 Sb1 1.942592 1_555
