# generated using pymatgen
data_Ca5BiHPb2
_symmetry_space_group_name_H-M   'P 1'
_cell_length_a   9.50241968
_cell_length_b   9.50241950
_cell_length_c   9.50242020
_cell_angle_alpha   128.45552358
_cell_angle_beta   128.45552698
_cell_angle_gamma   75.88824508
_symmetry_Int_Tables_number   1
_chemical_formula_structural   Ca5BiHPb2
_chemical_formula_sum   'Ca10 Bi2 H2 Pb4'
_cell_volume   511.67480267
_cell_formula_units_Z   2
loop_
 _symmetry_equiv_pos_site_id
 _symmetry_equiv_pos_as_xyz
  1  'x, y, z'
loop_
 _atom_site_type_symbol
 _atom_site_label
 _atom_site_symmetry_multiplicity
 _atom_site_fract_x
 _atom_site_fract_y
 _atom_site_fract_z
 _atom_site_occupancy
  Ca  Ca0  1  0.50000000  0.50000000  0.00000000  1
  Ca  Ca1  1  0.00000000  0.00000000  0.00000000  1
  Ca  Ca2  1  0.51106104  0.01106104  0.81670235  1
  Ca  Ca3  1  0.19435869  0.69435869  0.18329765  1
  Ca  Ca4  1  0.01106104  0.19435869  0.50000000  1
  Ca  Ca5  1  0.69435869  0.51106104  0.50000000  1
  Ca  Ca6  1  0.48893896  0.98893896  0.18329765  1
  Ca  Ca7  1  0.80564131  0.30564131  0.81670235  1
  Ca  Ca8  1  0.98893896  0.80564131  0.50000000  1
  Ca  Ca9  1  0.30564131  0.48893896  0.50000000  1
  Bi  Bi0  1  0.25000000  0.25000000  0.00000000  1
  Bi  Bi1  1  0.75000000  0.75000000  0.00000000  1
  H  H0  1  0.25000000  0.75000000  0.50000000  1
  H  H1  1  0.75000000  0.25000000  0.50000000  1
  Pb  Pb0  1  0.86652145  0.36652145  0.23304390  1
  Pb  Pb1  1  0.13347855  0.63347855  0.76695610  1
  Pb  Pb2  1  0.36652145  0.13347855  0.50000000  1
  Pb  Pb3  1  0.63347855  0.86652145  0.50000000  1
loop_
_geom_bond_atom_site_label_1
_geom_bond_atom_site_label_2
_geom_bond_distance
_geom_bond_site_symmetry_2
Ca0 Pb3 3.223228 1_555
Ca0 Pb2 3.223228 1_554
Ca0 Pb0 3.223230 1_555
Ca0 Pb1 3.223230 1_554
Ca1 Pb2 3.223228 1_555
Ca1 Pb3 3.223228 1_444
Ca1 Pb0 3.223230 1_455
Ca1 Pb1 3.223230 1_544
Ca2 H0 2.407052 1_545
Ca2 Pb2 3.275726 1_555
Ca2 Pb3 3.275726 1_545
Ca2 Pb0 3.284952 1_556
Ca3 H0 2.407052 1_555
Ca3 Pb3 3.275726 1_555
Ca3 Pb2 3.275726 1_565
Ca3 Pb1 3.284962 1_554
Ca4 H1 2.407052 1_455
Ca4 Pb0 3.275718 1_455
Ca4 Pb1 3.275728 1_555
Ca4 Pb2 3.284952 1_555
Ca5 H1 2.407052 1_555
Ca5 Pb0 3.275718 1_555
Ca5 Pb1 3.275728 1_655
Ca5 Pb3 3.284952 1_555
Ca6 H1 2.407052 1_565
Ca6 Pb3 3.275726 1_555
Ca6 Pb2 3.275726 1_565
Ca6 Pb1 3.284952 1_554
Ca7 H1 2.407052 1_555
Ca7 Pb2 3.275726 1_555
Ca7 Pb3 3.275726 1_545
Ca7 Pb0 3.284962 1_556
Ca8 H0 2.407052 1_655
Ca8 Pb1 3.275718 1_655
Ca8 Pb0 3.275728 1_555
Ca8 Pb3 3.284952 1_555
Ca9 H0 2.407052 1_555
Ca9 Pb1 3.275718 1_555
Ca9 Pb0 3.275728 1_455
Ca9 Pb2 3.284952 1_555
Bi0 Ca6 3.471560 1_545
Bi0 Ca7 3.471561 1_454
Bi0 Ca3 3.471561 1_555
Bi0 Ca2 3.471561 1_554
Bi0 Ca5 3.471561 1_555
Bi0 Ca4 3.471561 1_554
Bi0 Ca8 3.471561 1_444
Bi0 Ca9 3.471561 1_555
Bi0 Ca1 3.746855 1_555
Bi0 Ca0 3.746855 1_555
Bi1 Ca2 3.471560 1_564
Bi1 Ca3 3.471561 1_655
Bi1 Ca7 3.471561 1_554
Bi1 Ca6 3.471561 1_555
Bi1 Ca9 3.471561 1_554
Bi1 Ca8 3.471561 1_555
Bi1 Ca4 3.471561 1_665
Bi1 Ca5 3.471561 1_554
Bi1 Ca1 3.746855 1_665
Bi1 Ca0 3.746855 1_555
