# generated using pymatgen
data_Sc5Si2GeH
_symmetry_space_group_name_H-M   'P 1'
_cell_length_a   7.91809141
_cell_length_b   7.91751031
_cell_length_c   5.78020224
_cell_angle_alpha   90.00000000
_cell_angle_beta   90.00000000
_cell_angle_gamma   119.99757300
_symmetry_Int_Tables_number   1
_chemical_formula_structural   Sc5Si2GeH
_chemical_formula_sum   'Sc10 Si4 Ge2 H2'
_cell_volume   313.82926128
_cell_formula_units_Z   2
loop_
 _symmetry_equiv_pos_site_id
 _symmetry_equiv_pos_as_xyz
  1  'x, y, z'
loop_
 _atom_site_type_symbol
 _atom_site_label
 _atom_site_symmetry_multiplicity
 _atom_site_fract_x
 _atom_site_fract_y
 _atom_site_fract_z
 _atom_site_occupancy
  Sc  Sc0  1  0.66782320  0.33426375  0.00258879  1
  Sc  Sc1  1  0.33217680  0.66644155  0.00258879  1
  Sc  Sc2  1  0.33217680  0.66644155  0.49741121  1
  Sc  Sc3  1  0.66782320  0.33426375  0.49741121  1
  Sc  Sc4  1  0.75273164  0.75071953  0.75000000  1
  Sc  Sc5  1  0.24726836  0.99798788  0.75000000  1
  Sc  Sc6  1  0.00000000  0.25056407  0.75000000  1
  Sc  Sc7  1  0.24953936  0.24923034  0.25000000  1
  Sc  Sc8  1  0.75046064  0.99969097  0.25000000  1
  Sc  Sc9  1  0.00000000  0.75109187  0.25000000  1
  Si  Si0  1  0.00000000  0.60947162  0.75000000  1
  Si  Si1  1  0.61084546  0.61126412  0.25000000  1
  Si  Si2  1  0.38915454  0.00041766  0.25000000  1
  Si  Si3  1  0.00000000  0.38952762  0.25000000  1
  Ge  Ge0  1  0.38944933  0.38904492  0.75000000  1
  Ge  Ge1  1  0.61055067  0.99959559  0.75000000  1
  H  H0  1  0.00000000  0.99999061  0.50118118  1
  H  H1  1  0.00000000  0.99999061  0.99881882  1
loop_
_geom_bond_atom_site_label_1
_geom_bond_atom_site_label_2
_geom_bond_distance
_geom_bond_site_symmetry_2
Sc0 Si3 2.829102 1_655
Sc0 Si1 2.836898 1_555
Sc0 Si0 2.840212 1_654
Sc0 Si2 2.840535 1_555
Sc1 Si3 2.829104 1_555
Sc1 Si2 2.836884 1_565
Sc1 Si0 2.840209 1_554
Sc1 Si1 2.840535 1_555
Sc2 Si3 2.829104 1_555
Sc2 Si2 2.836884 1_565
Sc2 Si0 2.840209 1_555
Sc2 Si1 2.840535 1_555
Sc3 Si3 2.829102 1_655
Sc3 Si1 2.836898 1_555
Sc3 Si0 2.840212 1_655
Sc3 Si2 2.840535 1_555
Sc4 Si0 2.696929 1_655
Sc4 Si1 3.097356 1_555
Sc4 Si1 3.097356 1_556
Sc5 Si0 2.696929 1_555
Sc5 Si2 3.097357 1_565
Sc5 Si2 3.097357 1_566
Sc6 Si0 2.841654 1_555
Sc6 Si3 3.092446 1_555
Sc6 Si3 3.092446 1_556
Sc7 Si2 2.698246 1_555
Sc7 Si3 2.707882 1_555
Sc7 Si1 2.863740 1_555
Sc8 Si1 2.698238 1_555
Sc8 Si3 2.707882 1_665
Sc8 Si2 2.863736 1_565
Sc9 Si2 2.703578 1_565
Sc9 Si1 2.703580 1_455
Sc9 Si3 2.862689 1_555
Sc9 Si0 3.099992 1_555
Sc9 Si0 3.099992 1_554
Ge0 Sc6 2.707496 1_555
Ge0 Sc5 2.714484 1_545
Ge0 Sc0 2.852047 1_556
Ge0 Sc3 2.852047 1_555
Ge0 Sc1 2.856030 1_556
Ge0 Sc2 2.856030 1_555
Ge0 Sc4 2.870160 1_555
Ge0 Sc7 3.095014 1_555
Ge0 Sc7 3.095014 1_556
Ge1 Sc6 2.707496 1_665
Ge1 Sc4 2.714484 1_555
Ge1 Sc1 2.852042 1_556
Ge1 Sc2 2.852042 1_555
Ge1 Sc0 2.856023 1_566
Ge1 Sc3 2.856023 1_565
Ge1 Sc5 2.870160 1_555
Ge1 Sc8 3.095014 1_555
Ge1 Sc8 3.095014 1_556
H0 Sc4 2.435801 1_455
H0 Sc5 2.435801 1_555
H0 Sc9 2.447743 1_555
H0 Sc6 2.450391 1_565
H0 Sc7 2.450990 1_565
H0 Sc8 2.450990 1_455
H1 Sc4 2.435801 1_455
H1 Sc5 2.435801 1_555
H1 Sc9 2.447743 1_556
H1 Sc6 2.450391 1_565
H1 Sc7 2.450990 1_566
H1 Sc8 2.450990 1_456
