# generated using pymatgen
data_Na8Si3GeSe12
_symmetry_space_group_name_H-M   'P 1'
_cell_length_a   16.01612514
_cell_length_b   6.04751769
_cell_length_c   7.09221843
_cell_angle_alpha   65.97360865
_cell_angle_beta   89.75534563
_cell_angle_gamma   90.06139362
_symmetry_Int_Tables_number   1
_chemical_formula_structural   Na8Si3GeSe12
_chemical_formula_sum   'Na8 Si3 Ge1 Se12'
_cell_volume   627.41042655
_cell_formula_units_Z   1
loop_
 _symmetry_equiv_pos_site_id
 _symmetry_equiv_pos_as_xyz
  1  'x, y, z'
loop_
 _atom_site_type_symbol
 _atom_site_label
 _atom_site_symmetry_multiplicity
 _atom_site_fract_x
 _atom_site_fract_y
 _atom_site_fract_z
 _atom_site_occupancy
  Na  Na0  1  0.33218475  0.47244801  0.57081919  1
  Na  Na1  1  0.83199087  0.02839554  0.42953997  1
  Na  Na2  1  0.66780028  0.52874459  0.42966924  1
  Na  Na3  1  0.16776593  0.97229331  0.57105342  1
  Na  Na4  1  0.97490278  0.33410303  0.78885406  1
  Na  Na5  1  0.52504710  0.83412292  0.78796992  1
  Na  Na6  1  0.47177819  0.16617090  0.21000384  1
  Na  Na7  1  0.02820551  0.66715995  0.21078644  1
  Si  Si0  1  0.67045058  0.15888416  0.02975206  1
  Si  Si1  1  0.17192158  0.34134114  0.96957505  1
  Si  Si2  1  0.32776156  0.84203951  0.96884409  1
  Ge  Ge0  1  0.82988872  0.65975754  0.03079698  1
  Se  Se0  1  0.14714057  0.44389376  0.63378647  1
  Se  Se1  1  0.64464128  0.06001413  0.36515470  1
  Se  Se2  1  0.85498926  0.55294936  0.37901979  1
  Se  Se3  1  0.35340356  0.94459480  0.63276057  1
  Se  Se4  1  0.80386450  0.31748607  0.94707553  1
  Se  Se5  1  0.30327748  0.16931178  0.05441398  1
  Se  Se6  1  0.19629741  0.66911903  0.05452174  1
  Se  Se7  1  0.69256403  0.82974686  0.94726226  1
  Se  Se8  1  0.06670478  0.16435565  0.18870867  1
  Se  Se9  1  0.56628571  0.33730982  0.81098170  1
  Se  Se10  1  0.93873597  0.84032925  0.80247966  1
  Se  Se11  1  0.43239561  0.66542989  0.18617166  1
loop_
_geom_bond_atom_site_label_1
_geom_bond_atom_site_label_2
_geom_bond_distance
_geom_bond_site_symmetry_2
Na0 Se11 2.957372 1_555
Na0 Se0 2.989568 1_555
Na0 Se3 3.059458 1_545
Na0 Se3 3.079275 1_555
Na0 Se5 3.194200 1_556
Na1 Se10 2.967393 1_545
Na1 Se1 3.031599 1_555
Na1 Se2 3.061256 1_545
Na1 Se2 3.065619 1_555
Na1 Se4 3.179815 1_554
Na2 Se9 2.950623 1_555
Na2 Se2 3.014260 1_555
Na2 Se1 3.072063 1_555
Na2 Se1 3.078366 1_565
Na2 Se7 3.176756 1_554
Na3 Se8 2.966291 1_565
Na3 Se3 3.001993 1_555
Na3 Se0 3.058934 1_555
Na3 Se0 3.078165 1_565
Na3 Se6 3.197393 1_556
Na4 Se0 2.938651 1_655
Na4 Se4 2.941901 1_555
Na4 Se8 2.987634 1_656
Na4 Se10 3.003753 1_545
Na4 Se10 3.156160 1_555
Na4 Se2 3.287733 1_555
Na5 Se7 2.911535 1_555
Na5 Se3 2.940464 1_555
Na5 Se11 2.972093 1_556
Na5 Se9 3.015906 1_555
Na5 Se9 3.181815 1_565
Na5 Se1 3.337183 1_565
Na6 Se5 2.917127 1_555
Na6 Se1 2.956798 1_555
Na6 Se9 2.990972 1_554
Na6 Se11 3.021901 1_555
Na6 Se11 3.163902 1_545
Na6 Se3 3.324768 1_545
Na7 Se6 2.905165 1_555
Na7 Se2 2.982229 1_455
Na7 Se8 3.009549 1_565
Na7 Se10 3.017432 1_454
Na7 Se8 3.168847 1_555
Na7 Se0 3.347760 1_555
Ge0 Se10 2.320682 1_554
Ge0 Se2 2.321236 1_555
Ge0 Se7 2.401089 1_554
Ge0 Se4 2.410776 1_554
Se0 Si1 2.240428 1_555
Se1 Si0 2.240468 1_555
Se3 Si2 2.240992 1_555
Se4 Si0 2.314415 1_556
Se5 Si1 2.318654 1_554
Se5 Si2 2.327440 1_544
Se6 Si2 2.315823 1_554
Se6 Si1 2.327549 1_554
Se7 Si0 2.318977 1_566
Se8 Si1 2.240523 1_554
Se9 Si0 2.240000 1_556
Se11 Si2 2.238349 1_554
