# generated using pymatgen
data_Ba11Sr9(Bi2As)4
_symmetry_space_group_name_H-M   'P 1'
_cell_length_a   9.08549371
_cell_length_b   10.31730492
_cell_length_c   13.74351593
_cell_angle_alpha   89.85808005
_cell_angle_beta   89.99025908
_cell_angle_gamma   90.02372403
_symmetry_Int_Tables_number   1
_chemical_formula_structural   Ba11Sr9(Bi2As)4
_chemical_formula_sum   'Ba11 Sr9 Bi8 As4'
_cell_volume   1288.28298955
_cell_formula_units_Z   1
loop_
 _symmetry_equiv_pos_site_id
 _symmetry_equiv_pos_as_xyz
  1  'x, y, z'
loop_
 _atom_site_type_symbol
 _atom_site_label
 _atom_site_symmetry_multiplicity
 _atom_site_fract_x
 _atom_site_fract_y
 _atom_site_fract_z
 _atom_site_occupancy
  Ba  Ba0  1  0.85491382  0.74537039  0.79987637  1
  Ba  Ba1  1  0.14665883  0.25363181  0.20064620  1
  Ba  Ba2  1  0.35385034  0.25246376  0.69987405  1
  Ba  Ba3  1  0.64538905  0.74803641  0.30034467  1
  Ba  Ba4  1  0.68358430  0.96591421  0.57215753  1
  Ba  Ba5  1  0.81391755  0.96630304  0.07359760  1
  Ba  Ba6  1  0.18693281  0.03349332  0.92723965  1
  Ba  Ba7  1  0.32828216  0.74774473  0.71391415  1
  Ba  Ba8  1  0.67133819  0.25150775  0.28534781  1
  Ba  Ba9  1  0.82759672  0.25294156  0.78477642  1
  Ba  Ba10  1  0.17456973  0.74748986  0.21750599  1
  Sr  Sr0  1  0.04377673  0.74716309  0.50136863  1
  Sr  Sr1  1  0.96007532  0.25202665  0.49796520  1
  Sr  Sr2  1  0.54353983  0.25563953  0.99884388  1
  Sr  Sr3  1  0.45700584  0.74461912  0.00213404  1
  Sr  Sr4  1  0.68426146  0.53338804  0.57154533  1
  Sr  Sr5  1  0.31667759  0.46424999  0.42636627  1
  Sr  Sr6  1  0.18308678  0.46416183  0.92680190  1
  Sr  Sr7  1  0.31008811  0.03281994  0.42602952  1
  Sr  Sr8  1  0.81837838  0.53600410  0.07450446  1
  Bi  Bi0  1  0.55827133  0.50923784  0.83091791  1
  Bi  Bi1  1  0.44245061  0.49100818  0.16830363  1
  Bi  Bi2  1  0.05905639  0.49030242  0.66704828  1
  Bi  Bi3  1  0.43671666  0.00890906  0.16958477  1
  Bi  Bi4  1  0.94083813  0.50865500  0.33337399  1
  Bi  Bi5  1  0.56434680  0.99130120  0.83474965  1
  Bi  Bi6  1  0.94151812  0.99212132  0.33462678  1
  Bi  Bi7  1  0.06456286  0.00874876  0.66562118  1
  As  As0  1  0.08093629  0.73947503  0.98611561  1
  As  As1  1  0.91967869  0.26070873  0.01432757  1
  As  As2  1  0.57521006  0.25780487  0.51316999  1
  As  As3  1  0.41249153  0.74675844  0.48132299  1
loop_
_geom_bond_atom_site_label_1
_geom_bond_atom_site_label_2
_geom_bond_distance
_geom_bond_site_symmetry_2
Ba0 Bi0 3.656521 1_555
Ba0 Bi5 3.694357 1_555
Ba0 Bi2 3.704682 1_655
Ba0 Bi7 3.792936 1_665
Ba1 Bi1 3.661494 1_555
Ba1 Bi3 3.675952 1_555
Ba1 Bi4 3.711334 1_455
Ba1 Bi6 3.756874 1_445
Ba2 Bi2 3.660444 1_555
Ba2 Bi7 3.667847 1_555
Ba2 Bi0 3.705684 1_555
Ba2 Bi5 3.786109 1_545
Ba3 Bi4 3.675820 1_555
Ba3 Bi1 3.707550 1_555
Ba3 Bi6 3.715264 1_555
Ba3 Bi3 3.748278 1_565
Ba4 Bi7 3.718803 1_665
Ba4 Bi5 3.777597 1_555
Ba4 Bi6 4.026712 1_555
Ba5 Bi3 3.698759 1_565
Ba5 Bi6 3.780306 1_555
Ba5 Bi5 3.997788 1_554
Ba6 Bi5 3.683174 1_545
Ba6 Bi7 3.772925 1_555
Ba6 Bi3 4.038169 1_556
Ba7 Bi0 3.604603 1_555
Ba7 Bi7 3.664689 1_565
Ba7 Bi2 3.668321 1_555
Ba7 Bi5 3.699969 1_555
Ba8 Bi1 3.606062 1_555
Ba8 Bi3 3.654653 1_555
Ba8 Bi4 3.670643 1_555
Ba8 Bi6 3.693675 1_545
Ba9 Bi2 3.607270 1_655
Ba9 Bi0 3.659934 1_555
Ba9 Bi5 3.669332 1_545
Ba9 Bi7 3.699750 1_655
Ba10 Bi4 3.618343 1_455
Ba10 Bi3 3.656001 1_565
Ba10 Bi1 3.660165 1_555
Ba10 Bi6 3.669873 1_455
Bi0 Sr2 3.487089 1_555
Bi0 Sr3 3.508655 1_556
Bi0 Sr6 3.683266 1_555
Bi0 Sr4 3.751450 1_555
Bi1 Sr3 3.471243 1_555
Bi1 Sr2 3.491959 1_554
Bi1 Sr8 3.679289 1_555
Bi1 Sr5 3.735573 1_555
Bi1 Sr6 4.080754 1_554
Bi2 Sr0 3.492520 1_555
Bi2 Sr1 3.504210 1_455
Bi2 Sr4 3.676361 1_455
Bi2 Sr6 3.752843 1_555
Bi2 Sr5 4.061364 1_555
Bi3 Sr3 3.577265 1_545
Bi3 Sr2 3.591103 1_554
Bi3 Sr7 3.716100 1_555
Bi4 Sr1 3.482629 1_555
Bi4 Sr0 3.505387 1_655
Bi4 Sr5 3.674676 1_655
Bi4 Sr8 3.737904 1_555
Bi4 Sr4 4.026893 1_555
Bi5 Sr2 3.548309 1_565
Bi5 Sr3 3.562142 1_556
Bi6 Sr1 3.505409 1_565
Bi6 Sr0 3.532132 1_655
Bi6 Sr7 3.601474 1_665
Bi7 Sr0 3.527790 1_545
Bi7 Sr1 3.533340 1_455
Bi7 Sr7 3.984158 1_555
As0 Sr6 3.099620 1_555
As0 Ba6 3.281662 1_565
As0 Ba0 3.282262 1_455
As0 Ba10 3.293304 1_556
As0 Sr8 3.399310 1_456
As0 Sr3 3.424298 1_556
As0 Ba5 3.581263 1_456
As1 Sr8 3.100314 1_555
As1 Ba9 3.265187 1_554
As1 Ba5 3.286055 1_545
As1 Ba1 3.288792 1_655
As1 Sr6 3.400424 1_654
As1 Sr2 3.424448 1_554
As1 Ba6 3.583509 1_654
As2 Sr4 3.117494 1_555
As2 Ba8 3.251272 1_555
As2 Ba2 3.260286 1_555
As2 Ba4 3.269044 1_545
As2 Sr5 3.386703 1_555
As2 Sr1 3.503435 1_555
As2 Sr7 3.554532 1_555
As3 Sr5 3.135750 1_555
As3 Sr7 3.185149 1_565
As3 Ba3 3.265297 1_555
As3 Ba7 3.286818 1_555
As3 Sr0 3.361224 1_555
As3 Sr4 3.531645 1_555
As3 Ba4 3.570416 1_555
