# generated using pymatgen
data_Sr3InCoO6
_symmetry_space_group_name_H-M   'P 1'
_cell_length_a   6.66052918
_cell_length_b   6.66009260
_cell_length_c   6.66022138
_cell_angle_alpha   92.17513747
_cell_angle_beta   92.18172304
_cell_angle_gamma   92.17922917
_symmetry_Int_Tables_number   1
_chemical_formula_structural   Sr3InCoO6
_chemical_formula_sum   'Sr6 In2 Co2 O12'
_cell_volume   294.78824822
_cell_formula_units_Z   2
loop_
 _symmetry_equiv_pos_site_id
 _symmetry_equiv_pos_as_xyz
  1  'x, y, z'
loop_
 _atom_site_type_symbol
 _atom_site_label
 _atom_site_symmetry_multiplicity
 _atom_site_fract_x
 _atom_site_fract_y
 _atom_site_fract_z
 _atom_site_occupancy
  Sr  Sr0  1  0.88152549  0.24993985  0.61848311  1
  Sr  Sr1  1  0.24998156  0.61853928  0.88146792  1
  Sr  Sr2  1  0.61849244  0.88151034  0.25007164  1
  Sr  Sr3  1  0.75001213  0.38146989  0.11853476  1
  Sr  Sr4  1  0.38151157  0.11848933  0.74993453  1
  Sr  Sr5  1  0.11848525  0.75005536  0.38151976  1
  In  In0  1  0.74997312  0.74989864  0.75012117  1
  In  In1  1  0.25002025  0.25009509  0.24987526  1
  Co  Co0  1  0.99998440  0.00001813  0.99999796  1
  Co  Co1  1  0.50001574  0.49998056  0.49999754  1
  O  O0  1  0.22049442  0.41210433  0.54137947  1
  O  O1  1  0.41218350  0.54160870  0.22045244  1
  O  O2  1  0.54151774  0.22048779  0.41200446  1
  O  O3  1  0.91217502  0.72047204  0.04162688  1
  O  O4  1  0.72042889  0.04138889  0.91218071  1
  O  O5  1  0.04142225  0.91204031  0.72049114  1
  O  O6  1  0.77955477  0.58787331  0.45862624  1
  O  O7  1  0.58784312  0.45836112  0.77954498  1
  O  O8  1  0.45848597  0.77948111  0.58799126  1
  O  O9  1  0.08779903  0.27958051  0.95837960  1
  O  O10  1  0.27954126  0.95861965  0.08781377  1
  O  O11  1  0.95855207  0.08798777  0.27950339  1
loop_
_geom_bond_atom_site_label_1
_geom_bond_atom_site_label_2
_geom_bond_distance
_geom_bond_site_symmetry_2
In0 O6 2.204238 1_555
In0 O4 2.204254 1_565
In0 O5 2.204378 1_655
In0 O8 2.204476 1_555
In0 O7 2.204571 1_555
In0 O3 2.204597 1_556
In1 O10 2.204153 1_545
In1 O0 2.204190 1_555
In1 O11 2.204380 1_455
In1 O1 2.204534 1_555
In1 O2 2.204557 1_555
In1 O9 2.204653 1_554
Co0 O4 1.962992 1_555
Co0 O11 1.963026 1_556
Co0 O10 1.963032 1_646
Co0 O5 1.963056 1_645
Co0 O3 1.963150 1_546
Co0 O9 1.963248 1_655
Co1 O0 1.962929 1_555
Co1 O2 1.963037 1_555
Co1 O6 1.963057 1_555
Co1 O8 1.963122 1_555
Co1 O7 1.963184 1_555
Co1 O1 1.963189 1_555
O0 Sr0 2.544086 1_455
O0 Sr1 2.601648 1_555
O0 Sr5 2.627620 1_555
O0 Sr4 2.675034 1_555
O1 Sr1 2.543842 1_554
O1 Sr2 2.600137 1_555
O1 Sr3 2.627764 1_555
O1 Sr5 2.675445 1_555
O2 Sr2 2.543263 1_545
O2 Sr0 2.601310 1_555
O2 Sr4 2.628017 1_555
O2 Sr3 2.674101 1_555
O3 Sr3 2.543819 1_555
O3 Sr5 2.600076 1_655
O3 Sr1 2.627739 1_654
O3 Sr2 2.675296 1_555
O4 Sr4 2.543940 1_555
O4 Sr3 2.601334 1_556
O4 Sr2 2.627254 1_546
O4 Sr0 2.675730 1_555
O5 Sr5 2.543554 1_555
O5 Sr4 2.601703 1_565
O5 Sr0 2.627457 1_465
O5 Sr1 2.674388 1_555
O6 Sr5 2.543912 1_655
O6 Sr3 2.601570 1_555
O6 Sr0 2.627438 1_555
O6 Sr2 2.675267 1_555
O7 Sr3 2.543720 1_556
O7 Sr4 2.600041 1_555
O7 Sr1 2.628079 1_555
O7 Sr0 2.675260 1_555
O8 Sr4 2.543470 1_565
O8 Sr5 2.601243 1_555
O8 Sr2 2.628013 1_555
O8 Sr1 2.674063 1_555
O9 Sr1 2.543624 1_555
O9 Sr0 2.599985 1_455
O9 Sr3 2.627533 1_456
O9 Sr4 2.675594 1_555
O10 Sr2 2.544184 1_555
O10 Sr1 2.601300 1_554
O10 Sr4 2.627222 1_564
O10 Sr5 2.675709 1_555
O11 Sr0 2.543455 1_555
O11 Sr2 2.601627 1_545
O11 Sr5 2.627769 1_645
O11 Sr3 2.674200 1_555
