# generated using pymatgen
data_CaZnSi2Ag
_symmetry_space_group_name_H-M   'P 1'
_cell_length_a   6.02180796
_cell_length_b   6.02180780
_cell_length_c   6.02180786
_cell_angle_alpha   139.25313178
_cell_angle_beta   139.25312550
_cell_angle_gamma   58.98909265
_symmetry_Int_Tables_number   1
_chemical_formula_structural   CaZnSi2Ag
_chemical_formula_sum   'Ca1 Zn1 Si2 Ag1'
_cell_volume   92.14299714
_cell_formula_units_Z   1
loop_
 _symmetry_equiv_pos_site_id
 _symmetry_equiv_pos_as_xyz
  1  'x, y, z'
loop_
 _atom_site_type_symbol
 _atom_site_label
 _atom_site_symmetry_multiplicity
 _atom_site_fract_x
 _atom_site_fract_y
 _atom_site_fract_z
 _atom_site_occupancy
  Ca  Ca0  1  0.00000000  0.00000000  0.00000000  1
  Zn  Zn0  1  0.75000000  0.25000000  0.50000000  1
  Si  Si0  1  0.61028810  0.61028810  0.00000000  1
  Si  Si1  1  0.38971190  0.38971190  0.00000000  1
  Ag  Ag0  1  0.25000000  0.75000000  0.50000000  1
loop_
_geom_bond_atom_site_label_1
_geom_bond_atom_site_label_2
_geom_bond_distance
_geom_bond_site_symmetry_2
Ca0 Si0 3.182225 1_556
Ca0 Si1 3.182225 1_444
Ca0 Si0 3.182225 1_444
Ca0 Si1 3.182225 1_556
Ca0 Si0 3.182225 1_455
Ca0 Si1 3.182225 1_545
Ca0 Si0 3.182225 1_545
Ca0 Si1 3.182225 1_455
Ca0 Zn0 3.356043 1_444
Ca0 Zn0 3.356043 1_455
Ca0 Zn0 3.356043 1_454
Ca0 Zn0 3.356043 1_555
Si0 Si1 2.312255 1_555
Si0 Zn0 2.557329 1_565
Si0 Zn0 2.557329 1_554
Si1 Zn0 2.557329 1_555
Si1 Zn0 2.557329 1_454
Ag0 Si1 2.557329 1_566
Ag0 Si1 2.557329 1_555
Ag0 Si0 2.557329 1_556
Ag0 Si0 2.557329 1_455
Ag0 Zn0 2.964781 1_454
Ag0 Zn0 2.964781 1_566
Ag0 Zn0 2.964781 1_555
Ag0 Zn0 2.964781 1_465
Ag0 Ca0 3.356043 1_555
Ag0 Ca0 3.356043 1_566
Ag0 Ca0 3.356043 1_565
Ag0 Ca0 3.356043 1_666
