# generated using pymatgen
data_BaLaZnRuO6
_symmetry_space_group_name_H-M   'P 1'
_cell_length_a   5.69471400
_cell_length_b   5.71738099
_cell_length_c   5.72082360
_cell_angle_alpha   90.43124182
_cell_angle_beta   119.35121455
_cell_angle_gamma   119.74964445
_symmetry_Int_Tables_number   1
_chemical_formula_structural   BaLaZnRuO6
_chemical_formula_sum   'Ba1 La1 Zn1 Ru1 O6'
_cell_volume   132.99236216
_cell_formula_units_Z   1
loop_
 _symmetry_equiv_pos_site_id
 _symmetry_equiv_pos_as_xyz
  1  'x, y, z'
loop_
 _atom_site_type_symbol
 _atom_site_label
 _atom_site_symmetry_multiplicity
 _atom_site_fract_x
 _atom_site_fract_y
 _atom_site_fract_z
 _atom_site_occupancy
  Ba  Ba0  1  0.49946300  0.75043100  0.24967400  1
  La  La0  1  0.48271500  0.24988800  0.73525000  1
  Zn  Zn0  1  0.99289900  0.00115900  0.99862400  1
  Ru  Ru0  1  0.99989300  0.50047200  0.50142800  1
  O  O0  1  0.05066600  0.80555600  0.32233700  1
  O  O1  1  0.48588700  0.67947300  0.72128100  1
  O  O2  1  0.91006500  0.26104100  0.16757200  1
  O  O3  1  0.04755100  0.74097100  0.78845200  1
  O  O4  1  0.51790800  0.28685600  0.30554600  1
  O  O5  1  0.01295300  0.22415300  0.70983700  1
loop_
_geom_bond_atom_site_label_1
_geom_bond_atom_site_label_2
_geom_bond_distance
_geom_bond_site_symmetry_2
Ba0 O3 2.605929 1_554
Ba0 O5 2.702382 1_665
Ba0 O4 2.719215 1_555
Ba0 O1 2.763963 1_555
Ba0 O0 2.803954 1_655
Ba0 O2 2.903413 1_455
Ba0 O2 2.921216 1_565
Ba0 O0 2.939904 1_555
Ba0 O1 3.004905 1_554
Ba0 O4 3.025224 1_565
Ba0 O5 3.076723 1_554
Ba0 O3 3.159767 1_655
La0 O2 2.446762 1_556
La0 O1 2.449385 1_555
La0 O0 2.469062 1_545
La0 O5 2.535161 1_555
La0 O4 2.564497 1_555
O0 Ru0 1.998151 1_455
O0 Zn0 2.141846 1_464
O1 Ru0 2.011502 1_455
O1 Zn0 2.105132 1_565
O2 Ru0 2.022708 1_555
O2 Zn0 2.117861 1_554
O3 Ru0 1.954315 1_455
O3 Zn0 2.134210 1_465
O4 Ru0 1.979496 1_555
O4 Zn0 2.157268 1_454
O5 Ru0 1.995221 1_455
O5 Zn0 2.107159 1_455
