# generated using pymatgen
data_Mn2Al3IrS8
_symmetry_space_group_name_H-M   'P 1'
_cell_length_a   7.11041157
_cell_length_b   7.11041074
_cell_length_c   7.17288489
_cell_angle_alpha   60.28769666
_cell_angle_beta   60.28769847
_cell_angle_gamma   60.00000586
_symmetry_Int_Tables_number   1
_chemical_formula_structural   Mn2Al3IrS8
_chemical_formula_sum   'Mn2 Al3 Ir1 S8'
_cell_volume   257.53913751
_cell_formula_units_Z   1
loop_
 _symmetry_equiv_pos_site_id
 _symmetry_equiv_pos_as_xyz
  1  'x, y, z'
loop_
 _atom_site_type_symbol
 _atom_site_label
 _atom_site_symmetry_multiplicity
 _atom_site_fract_x
 _atom_site_fract_y
 _atom_site_fract_z
 _atom_site_occupancy
  Mn  Mn0  1  0.25112126  0.25112126  0.24663521  1
  Mn  Mn1  1  0.99887874  0.99887874  0.00336479  1
  Al  Al0  1  0.12500000  0.62500000  0.62500000  1
  Al  Al1  1  0.62500000  0.12500000  0.62500000  1
  Al  Al2  1  0.62500000  0.62500000  0.62500000  1
  Ir  Ir0  1  0.62500000  0.62500000  0.12500000  1
  S  S0  1  0.83783816  0.38875637  0.38464709  1
  S  S1  1  0.38875637  0.83783816  0.38464709  1
  S  S2  1  0.38505133  0.38505133  0.84484402  1
  S  S3  1  0.38875637  0.38875637  0.38464709  1
  S  S4  1  0.41216184  0.86124363  0.86535291  1
  S  S5  1  0.86124363  0.41216184  0.86535291  1
  S  S6  1  0.86494867  0.86494867  0.40515598  1
  S  S7  1  0.86124363  0.86124363  0.86535291  1
loop_
_geom_bond_atom_site_label_1
_geom_bond_atom_site_label_2
_geom_bond_distance
_geom_bond_site_symmetry_2
Mn0 S2 2.363326 1_554
Mn0 S3 2.402901 1_555
Mn0 S1 2.402907 1_545
Mn0 S0 2.402907 1_455
Mn1 S6 2.363326 1_555
Mn1 S7 2.402901 1_554
Mn1 S5 2.402907 1_564
Mn1 S4 2.402907 1_654
Al0 S1 2.413806 1_555
Al0 S5 2.413806 1_455
Al0 S7 2.413815 1_455
Al0 S3 2.413815 1_555
Al0 S2 2.425963 1_555
Al0 S6 2.425963 1_455
Al1 S0 2.413806 1_555
Al1 S4 2.413806 1_545
Al1 S7 2.413815 1_545
Al1 S3 2.413815 1_555
Al1 S2 2.425963 1_555
Al1 S6 2.425963 1_545
Al2 S4 2.413816 1_555
Al2 S0 2.413816 1_555
Al2 S5 2.413816 1_555
Al2 S1 2.413816 1_555
Al2 S6 2.425973 1_555
Al2 S2 2.425973 1_555
Ir0 S1 2.393990 1_555
Ir0 S5 2.393990 1_554
Ir0 S0 2.393990 1_555
Ir0 S4 2.393990 1_554
Ir0 S7 2.393999 1_554
Ir0 S3 2.393999 1_555
