# generated using pymatgen
data_Nb12Ga9Cu3N4
_symmetry_space_group_name_H-M   'P 1'
_cell_length_a   8.23866447
_cell_length_b   8.22922752
_cell_length_c   8.22922684
_cell_angle_alpha   59.99999479
_cell_angle_beta   60.03787862
_cell_angle_gamma   60.03787633
_symmetry_Int_Tables_number   1
_chemical_formula_structural   Nb12Ga9Cu3N4
_chemical_formula_sum   'Nb12 Ga9 Cu3 N4'
_cell_volume   394.73743009
_cell_formula_units_Z   1
loop_
 _symmetry_equiv_pos_site_id
 _symmetry_equiv_pos_as_xyz
  1  'x, y, z'
loop_
 _atom_site_type_symbol
 _atom_site_label
 _atom_site_symmetry_multiplicity
 _atom_site_fract_x
 _atom_site_fract_y
 _atom_site_fract_z
 _atom_site_occupancy
  Nb  Nb0  1  0.81544182  0.81149511  0.18653204  1
  Nb  Nb1  1  0.18743940  0.19503015  0.80876523  1
  Nb  Nb2  1  0.81544182  0.18653204  0.81149511  1
  Nb  Nb3  1  0.18743940  0.80876523  0.19503015  1
  Nb  Nb4  1  0.18743940  0.80876523  0.80876523  1
  Nb  Nb5  1  0.81544182  0.18653204  0.18653204  1
  Nb  Nb6  1  0.43455818  0.43850489  0.06346796  1
  Nb  Nb7  1  0.06256060  0.05496985  0.44123477  1
  Nb  Nb8  1  0.43455818  0.06346796  0.43850489  1
  Nb  Nb9  1  0.06256060  0.44123477  0.05496985  1
  Nb  Nb10  1  0.06256060  0.44123477  0.44123477  1
  Nb  Nb11  1  0.43455818  0.06346796  0.06346796  1
  Ga  Ga0  1  0.12500000  0.62500000  0.62500000  1
  Ga  Ga1  1  0.76219528  0.41260191  0.41260191  1
  Ga  Ga2  1  0.42762476  0.75539940  0.40848842  1
  Ga  Ga3  1  0.42762476  0.40848842  0.75539940  1
  Ga  Ga4  1  0.42762476  0.40848842  0.40848842  1
  Ga  Ga5  1  0.48780472  0.83739809  0.83739809  1
  Ga  Ga6  1  0.82237524  0.49460060  0.84151158  1
  Ga  Ga7  1  0.82237524  0.84151158  0.49460060  1
  Ga  Ga8  1  0.82237524  0.84151158  0.84151158  1
  Cu  Cu0  1  0.62500000  0.12500000  0.62500000  1
  Cu  Cu1  1  0.62500000  0.62500000  0.12500000  1
  Cu  Cu2  1  0.62500000  0.62500000  0.62500000  1
  N  N0  1  0.62500000  0.12500000  0.12500000  1
  N  N1  1  0.12500000  0.62500000  0.12500000  1
  N  N2  1  0.12500000  0.12500000  0.62500000  1
  N  N3  1  0.12500000  0.12500000  0.12500000  1
loop_
_geom_bond_atom_site_label_1
_geom_bond_atom_site_label_2
_geom_bond_distance
_geom_bond_site_symmetry_2
Ga0 Ga4 2.620207 1_555
Ga0 Ga8 2.620207 1_455
Ga0 Ga3 2.620211 1_555
Ga0 Ga7 2.620211 1_455
Ga0 Ga2 2.620211 1_555
Ga0 Ga6 2.620211 1_455
Ga0 Nb9 2.946074 1_556
Ga0 Nb3 2.946074 1_555
Ga0 Nb7 2.946075 1_565
Ga0 Nb1 2.946075 1_555
Ga0 Nb4 2.946075 1_555
Ga0 Nb10 2.946075 1_555
Ga1 Nb10 2.730399 1_655
Ga1 Nb9 2.730404 1_655
Ga1 Nb7 2.730404 1_655
Ga1 Ga3 2.790637 1_555
Ga1 Ga2 2.790637 1_555
Ga1 Ga4 2.790637 1_555
Ga1 Nb2 2.990841 1_555
Ga1 Nb0 2.990841 1_555
Ga1 Nb5 2.990841 1_555
Ga2 Nb8 2.697463 1_565
Ga2 Nb11 2.697472 1_565
Ga2 Nb7 2.764890 1_565
Ga2 Ga3 2.854809 1_555
Ga2 Ga4 2.854809 1_555
Ga2 Nb0 2.925536 1_555
Ga2 Nb4 3.004441 1_555
Ga2 Nb3 3.004448 1_555
Ga3 Nb6 2.697463 1_556
Ga3 Nb11 2.697472 1_556
Ga3 Nb9 2.764890 1_556
Ga3 Ga4 2.854809 1_555
Ga3 Nb2 2.925536 1_555
Ga3 Nb4 3.004441 1_555
Ga3 Nb1 3.004448 1_555
Ga4 Nb6 2.697479 1_555
Ga4 Nb8 2.697479 1_555
Ga4 Nb10 2.764893 1_555
Ga4 Nb5 2.925536 1_555
Ga4 Nb3 3.004444 1_555
Ga4 Nb1 3.004444 1_555
Ga5 Nb4 2.730399 1_555
Ga5 Nb3 2.730404 1_556
Ga5 Nb1 2.730404 1_565
Ga5 Ga7 2.790637 1_555
Ga5 Ga6 2.790637 1_555
Ga5 Ga8 2.790637 1_555
Ga5 Nb8 2.990841 1_565
Ga5 Nb6 2.990841 1_556
Ga5 Nb11 2.990841 1_566
Ga6 Nb2 2.697463 1_555
Ga6 Nb5 2.697472 1_556
Ga6 Nb1 2.764890 1_655
Ga6 Ga7 2.854809 1_555
Ga6 Ga8 2.854809 1_555
Ga6 Nb6 2.925536 1_556
Ga6 Nb10 3.004441 1_655
Ga6 Nb9 3.004448 1_656
Ga7 Nb0 2.697463 1_555
Ga7 Nb5 2.697472 1_565
Ga7 Nb3 2.764890 1_655
Ga7 Ga8 2.854809 1_555
Ga7 Nb8 2.925536 1_565
Ga7 Nb10 3.004441 1_655
Ga7 Nb7 3.004448 1_665
Ga8 Nb0 2.697479 1_556
Ga8 Nb2 2.697479 1_565
Ga8 Nb4 2.764893 1_655
Ga8 Nb11 2.925536 1_566
Ga8 Nb9 3.004444 1_656
Ga8 Nb7 3.004444 1_665
Cu0 Ga4 2.491856 1_555
Cu0 Ga8 2.491856 1_545
Cu0 Ga3 2.491861 1_555
Cu0 Ga7 2.491861 1_545
Cu0 Ga1 2.548737 1_555
Cu0 Ga5 2.548737 1_545
Cu0 Nb7 2.994249 1_655
Cu0 Nb1 2.994249 1_555
Cu0 Nb11 3.008201 1_556
Cu0 Nb5 3.008201 1_555
Cu0 Nb2 3.008209 1_555
Cu0 Nb8 3.008209 1_555
Cu1 Ga8 2.491856 1_554
Cu1 Ga4 2.491856 1_555
Cu1 Ga2 2.491861 1_555
Cu1 Ga6 2.491861 1_554
Cu1 Ga1 2.548737 1_555
Cu1 Ga5 2.548737 1_554
Cu1 Nb9 2.994249 1_655
Cu1 Nb3 2.994249 1_555
Cu1 Nb11 3.008201 1_565
Cu1 Nb5 3.008201 1_555
Cu1 Nb0 3.008209 1_555
Cu1 Nb6 3.008209 1_555
Cu2 Ga6 2.491854 1_555
Cu2 Ga2 2.491854 1_555
Cu2 Ga7 2.491854 1_555
Cu2 Ga3 2.491854 1_555
Cu2 Ga5 2.548731 1_555
Cu2 Ga1 2.548731 1_555
Cu2 Nb10 2.994249 1_655
Cu2 Nb4 2.994249 1_555
Cu2 Nb6 3.008203 1_556
Cu2 Nb0 3.008203 1_555
Cu2 Nb2 3.008203 1_555
Cu2 Nb8 3.008203 1_565
N0 Nb8 2.195000 1_555
N0 Nb2 2.195000 1_554
N0 Nb6 2.195000 1_555
N0 Nb0 2.195000 1_545
N0 Nb5 2.195006 1_555
N0 Nb11 2.195006 1_555
N1 Nb6 2.166482 1_555
N1 Nb0 2.166482 1_455
N1 Nb10 2.197334 1_555
N1 Nb4 2.197334 1_554
N1 Nb3 2.197334 1_555
N1 Nb9 2.197334 1_555
N2 Nb8 2.166482 1_555
N2 Nb2 2.166482 1_455
N2 Nb10 2.197334 1_555
N2 Nb4 2.197334 1_545
N2 Nb1 2.197334 1_555
N2 Nb7 2.197334 1_555
N3 Nb11 2.166480 1_555
N3 Nb5 2.166480 1_455
N3 Nb7 2.197334 1_555
N3 Nb1 2.197334 1_554
N3 Nb9 2.197334 1_555
N3 Nb3 2.197334 1_545
