# generated using pymatgen
data_Lu6B14MoOs
_symmetry_space_group_name_H-M   'P 1'
_cell_length_a   7.91487295
_cell_length_b   7.91487160
_cell_length_c   9.23137796
_cell_angle_alpha   90.00000000
_cell_angle_beta   90.00000000
_cell_angle_gamma   154.89582613
_symmetry_Int_Tables_number   1
_chemical_formula_structural   Lu6B14MoOs
_chemical_formula_sum   'Lu6 B14 Mo1 Os1'
_cell_volume   245.35333180
_cell_formula_units_Z   1
loop_
 _symmetry_equiv_pos_site_id
 _symmetry_equiv_pos_as_xyz
  1  'x, y, z'
loop_
 _atom_site_type_symbol
 _atom_site_label
 _atom_site_symmetry_multiplicity
 _atom_site_fract_x
 _atom_site_fract_y
 _atom_site_fract_z
 _atom_site_occupancy
  Lu  Lu0  1  0.25639023  0.74360977  0.25000000  1
  Lu  Lu1  1  0.74432918  0.25567082  0.75000000  1
  Lu  Lu2  1  0.60616610  0.39383390  0.06009103  1
  Lu  Lu3  1  0.39338765  0.60661235  0.94203824  1
  Lu  Lu4  1  0.39338765  0.60661235  0.55796176  1
  Lu  Lu5  1  0.60616610  0.39383390  0.43990897  1
  B  B0  1  0.98040093  0.01959907  0.09579405  1
  B  B1  1  0.01781122  0.98218878  0.90954857  1
  B  B2  1  0.01781122  0.98218878  0.59045143  1
  B  B3  1  0.98040093  0.01959907  0.40420595  1
  B  B4  1  0.77292410  0.22707590  0.03651301  1
  B  B5  1  0.22865027  0.77134973  0.96746372  1
  B  B6  1  0.22865027  0.77134973  0.53253628  1
  B  B7  1  0.77292410  0.22707590  0.46348699  1
  B  B8  1  0.86804314  0.13195686  0.15040994  1
  B  B9  1  0.13481811  0.86518189  0.85341160  1
  B  B10  1  0.13481811  0.86518189  0.64658840  1
  B  B11  1  0.86804314  0.13195686  0.34959006  1
  B  B12  1  0.04672225  0.95327775  0.25000000  1
  B  B13  1  0.94947025  0.05052975  0.75000000  1
  Mo  Mo0  1  0.55216331  0.44783669  0.75000000  1
  Os  Os0  1  0.44652374  0.55347626  0.25000000  1
loop_
_geom_bond_atom_site_label_1
_geom_bond_atom_site_label_2
_geom_bond_distance
_geom_bond_site_symmetry_2
Lu0 Os0 2.937828 1_555
Lu1 Mo0 2.969231 1_555
B0 B12 1.754017 1_645
B0 B8 1.807813 1_555
B0 B1 1.813872 1_644
B0 Os0 2.293304 1_655
B0 Os0 2.293305 1_545
B0 Lu3 2.604045 1_654
B0 Lu3 2.604045 1_544
B0 Lu2 2.616034 1_545
B0 Lu2 2.616035 1_655
B1 B13 1.812279 1_465
B1 B9 1.880725 1_555
B1 Mo0 2.325904 1_455
B1 Mo0 2.325904 1_565
B1 Lu3 2.597080 1_565
B1 Lu3 2.597081 1_455
B1 Lu2 2.598825 1_456
B1 Lu2 2.598826 1_566
B2 B3 1.813872 1_465
B2 Mo0 2.325904 1_455
B2 Mo0 2.325904 1_565
B2 Lu4 2.597080 1_565
B2 Lu4 2.597081 1_455
B2 Lu5 2.598825 1_455
B2 Lu5 2.598826 1_565
B3 Os0 2.293304 1_655
B3 Os0 2.293305 1_545
B3 Lu4 2.604045 1_655
B3 Lu4 2.604045 1_545
B3 Lu5 2.616034 1_545
B3 Lu5 2.616035 1_655
B4 B8 1.807091 1_555
B4 B5 1.957827 1_654
B4 B5 1.957827 1_544
B4 Lu2 2.585821 1_555
B4 Lu0 2.628314 1_655
B4 Lu0 2.628314 1_545
B4 Lu3 2.680291 1_544
B4 Lu3 2.680292 1_654
B4 Lu1 2.681560 1_554
B5 B9 1.791798 1_555
B5 Lu3 2.556221 1_555
B5 Lu0 2.643184 1_556
B5 Lu1 2.654714 1_455
B5 Lu1 2.654714 1_565
B5 Lu2 2.696610 1_566
B5 Lu2 2.696611 1_456
B6 B7 1.957827 1_455
B6 B7 1.957827 1_565
B6 Lu4 2.556221 1_555
B6 Lu0 2.643184 1_555
B6 Lu1 2.654714 1_455
B6 Lu1 2.654714 1_565
B6 Lu5 2.696610 1_565
B6 Lu5 2.696611 1_455
B7 Lu5 2.585821 1_555
B7 Lu0 2.628314 1_655
B7 Lu0 2.628314 1_545
B7 Lu4 2.680291 1_545
B7 Lu4 2.680292 1_655
B7 Lu1 2.681560 1_555
B8 Os0 2.296626 1_545
B8 Os0 2.296627 1_655
B8 Lu0 2.603901 1_655
B8 Lu0 2.603902 1_545
B8 Lu3 2.610025 1_544
B8 Lu3 2.610025 1_654
B9 Mo0 2.345460 1_565
B9 Mo0 2.345461 1_455
B9 Lu1 2.594863 1_455
B9 Lu1 2.594864 1_565
B9 Lu2 2.606725 1_566
B9 Lu2 2.606725 1_456
B10 B6 1.791798 1_555
B10 B2 1.880725 1_555
B10 B9 1.909263 1_555
B10 Mo0 2.345460 1_565
B10 Mo0 2.345461 1_455
B10 Lu1 2.594863 1_455
B10 Lu1 2.594864 1_565
B10 Lu5 2.606725 1_565
B10 Lu5 2.606725 1_455
B11 B7 1.807091 1_555
B11 B3 1.807813 1_555
B11 B8 1.838707 1_555
B11 Os0 2.296626 1_545
B11 Os0 2.296627 1_655
B11 Lu0 2.603901 1_655
B11 Lu0 2.603902 1_545
B11 Lu4 2.610025 1_545
B11 Lu4 2.610025 1_655
B12 B3 1.754017 1_465
B12 Os0 2.314247 1_565
B12 Os0 2.314248 1_455
B12 Lu5 2.622186 1_455
B12 Lu2 2.622186 1_455
B12 Lu5 2.622186 1_565
B12 Lu2 2.622186 1_565
B12 Lu0 3.239663 1_555
B13 B2 1.812279 1_645
B13 Mo0 2.340208 1_545
B13 Mo0 2.340209 1_655
B13 Lu3 2.617719 1_655
B13 Lu4 2.617719 1_655
B13 Lu3 2.617720 1_545
B13 Lu4 2.617720 1_545
B13 Lu1 3.169716 1_555
