# generated using pymatgen
data_YSiPtRh
_symmetry_space_group_name_H-M   'P 1'
_cell_length_a   9.12304050
_cell_length_b   9.12304039
_cell_length_c   4.07415826
_cell_angle_alpha   90.00000000
_cell_angle_beta   90.00000000
_cell_angle_gamma   154.87464338
_symmetry_Int_Tables_number   1
_chemical_formula_structural   YSiPtRh
_chemical_formula_sum   'Y2 Si2 Pt2 Rh2'
_cell_volume   143.97836424
_cell_formula_units_Z   2
loop_
 _symmetry_equiv_pos_site_id
 _symmetry_equiv_pos_as_xyz
  1  'x, y, z'
loop_
 _atom_site_type_symbol
 _atom_site_label
 _atom_site_symmetry_multiplicity
 _atom_site_fract_x
 _atom_site_fract_y
 _atom_site_fract_z
 _atom_site_occupancy
  Y  Y0  1  0.10228875  0.89771125  0.75000000  1
  Y  Y1  1  0.89771125  0.10228875  0.25000000  1
  Si  Si0  1  0.32080846  0.67919154  0.75000000  1
  Si  Si1  1  0.67919154  0.32080846  0.25000000  1
  Pt  Pt0  1  0.54786265  0.45213735  0.25000000  1
  Pt  Pt1  1  0.45213735  0.54786265  0.75000000  1
  Rh  Rh0  1  0.25084955  0.74915045  0.25000000  1
  Rh  Rh1  1  0.74915045  0.25084955  0.75000000  1
loop_
_geom_bond_atom_site_label_1
_geom_bond_atom_site_label_2
_geom_bond_distance
_geom_bond_site_symmetry_2
Si0 Y1 3.156423 1_456
Si0 Y1 3.156423 1_455
Si0 Y1 3.156423 1_566
Si0 Y1 3.156423 1_565
Si1 Y0 3.156423 1_655
Si1 Y0 3.156423 1_654
Si1 Y0 3.156423 1_545
Si1 Y0 3.156423 1_544
Pt0 Si1 2.338868 1_555
Pt0 Pt1 2.656317 1_555
Pt0 Pt1 2.656317 1_554
Pt0 Y0 3.004459 1_544
Pt0 Y0 3.004459 1_545
Pt0 Y0 3.004459 1_655
Pt0 Y0 3.004459 1_654
Pt0 Y1 3.329908 1_565
Pt0 Y1 3.329908 1_455
Pt1 Si0 2.338868 1_555
Pt1 Y1 3.004459 1_565
Pt1 Y1 3.004459 1_566
Pt1 Y1 3.004459 1_456
Pt1 Y1 3.004459 1_455
Pt1 Y0 3.329908 1_545
Pt1 Y0 3.329908 1_655
Rh0 Si1 2.359277 1_565
Rh0 Si1 2.359277 1_455
Rh0 Si0 2.387885 1_555
Rh0 Si0 2.387885 1_554
Rh0 Y1 3.283045 1_455
Rh0 Y1 3.283045 1_565
Rh0 Y0 3.339119 1_555
Rh0 Y0 3.339119 1_554
Rh1 Si0 2.359277 1_545
Rh1 Si0 2.359277 1_655
Rh1 Si1 2.387885 1_555
Rh1 Si1 2.387885 1_556
Rh1 Y0 3.283045 1_655
Rh1 Y0 3.283045 1_545
Rh1 Y1 3.339119 1_556
Rh1 Y1 3.339119 1_555
