# generated using pymatgen
data_Hf7Ti(Rh2C)2
_symmetry_space_group_name_H-M   'P 1'
_cell_length_a   8.60835692
_cell_length_b   8.63615598
_cell_length_c   8.63615498
_cell_angle_alpha   60.20377910
_cell_angle_beta   60.10642621
_cell_angle_gamma   60.10642019
_symmetry_Int_Tables_number   1
_chemical_formula_structural   Hf7Ti(Rh2C)2
_chemical_formula_sum   'Hf14 Ti2 Rh8 C4'
_cell_volume   455.41720411
_cell_formula_units_Z   2
loop_
 _symmetry_equiv_pos_site_id
 _symmetry_equiv_pos_as_xyz
  1  'x, y, z'
loop_
 _atom_site_type_symbol
 _atom_site_label
 _atom_site_symmetry_multiplicity
 _atom_site_fract_x
 _atom_site_fract_y
 _atom_site_fract_z
 _atom_site_occupancy
  Hf  Hf0  1  0.12500000  0.62500000  0.62500000  1
  Hf  Hf1  1  0.62500000  0.62500000  0.62500000  1
  Hf  Hf2  1  0.81371427  0.81446125  0.18421183  1
  Hf  Hf3  1  0.18761265  0.18421183  0.81446125  1
  Hf  Hf4  1  0.81371427  0.18421183  0.81446125  1
  Hf  Hf5  1  0.18761265  0.81446125  0.18421183  1
  Hf  Hf6  1  0.18365180  0.81634820  0.81634820  1
  Hf  Hf7  1  0.81222237  0.18777763  0.18777763  1
  Hf  Hf8  1  0.43628573  0.43553875  0.06578817  1
  Hf  Hf9  1  0.06238735  0.06578817  0.43553875  1
  Hf  Hf10  1  0.43628573  0.06578817  0.43553875  1
  Hf  Hf11  1  0.06238735  0.43553875  0.06578817  1
  Hf  Hf12  1  0.06634820  0.43365180  0.43365180  1
  Hf  Hf13  1  0.43777763  0.06222237  0.06222237  1
  Ti  Ti0  1  0.62500000  0.12500000  0.62500000  1
  Ti  Ti1  1  0.62500000  0.62500000  0.12500000  1
  Rh  Rh0  1  0.75317320  0.41265428  0.41265428  1
  Rh  Rh1  1  0.41814303  0.75573367  0.40797827  1
  Rh  Rh2  1  0.41814303  0.40797827  0.75573367  1
  Rh  Rh3  1  0.42151624  0.41265428  0.41265428  1
  Rh  Rh4  1  0.49682680  0.83734572  0.83734572  1
  Rh  Rh5  1  0.83185697  0.49426633  0.84202173  1
  Rh  Rh6  1  0.83185697  0.84202173  0.49426633  1
  Rh  Rh7  1  0.82848376  0.83734572  0.83734572  1
  C  C0  1  0.62500000  0.12500000  0.12500000  1
  C  C1  1  0.12500000  0.62500000  0.12500000  1
  C  C2  1  0.12500000  0.12500000  0.62500000  1
  C  C3  1  0.12500000  0.12500000  0.12500000  1
loop_
_geom_bond_atom_site_label_1
_geom_bond_atom_site_label_2
_geom_bond_distance
_geom_bond_site_symmetry_2
Hf0 Rh2 2.679171 1_555
Hf0 Rh6 2.679171 1_455
Hf0 Rh1 2.679171 1_555
Hf0 Rh5 2.679171 1_455
Hf0 Rh7 2.692934 1_455
Hf0 Rh3 2.692934 1_555
Hf1 Rh5 2.679185 1_555
Hf1 Rh1 2.679185 1_555
Hf1 Rh6 2.679185 1_555
Hf1 Rh2 2.679185 1_555
Hf1 Rh4 2.692939 1_555
Hf1 Rh0 2.692939 1_555
Hf2 Rh7 2.843556 1_554
Hf2 Rh6 2.887614 1_555
Hf2 Rh0 3.190483 1_555
Hf3 Rh4 2.843564 1_545
Hf3 Rh5 2.887604 1_455
Hf3 Rh3 3.190476 1_555
Hf4 Rh7 2.843556 1_545
Hf4 Rh5 2.887614 1_555
Hf4 Rh0 3.190483 1_555
Hf5 Rh4 2.843564 1_554
Hf5 Rh6 2.887604 1_455
Hf5 Rh3 3.190476 1_555
Hf6 Rh7 2.888069 1_455
Hf6 Rh4 2.888086 1_555
Hf7 Rh5 2.835273 1_554
Hf7 Rh6 2.835273 1_545
Hf7 Rh0 3.095483 1_555
Hf7 Rh3 3.095491 1_555
Hf8 Rh3 2.843556 1_555
Hf8 Rh2 2.887614 1_554
Hf8 Rh4 3.190483 1_554
Hf9 Rh0 2.843564 1_455
Hf9 Rh1 2.887604 1_545
Hf9 Rh7 3.190476 1_445
Hf10 Rh3 2.843556 1_555
Hf10 Rh1 2.887614 1_545
Hf10 Rh4 3.190483 1_545
Hf11 Rh0 2.843564 1_455
Hf11 Rh2 2.887604 1_554
Hf11 Rh7 3.190476 1_454
Hf12 Rh3 2.888069 1_555
Hf12 Rh0 2.888086 1_455
Hf13 Rh1 2.835273 1_545
Hf13 Rh2 2.835273 1_554
Hf13 Rh4 3.095483 1_544
Hf13 Rh7 3.095491 1_544
Rh0 Ti1 2.634289 1_555
Rh0 Ti0 2.634289 1_555
Rh0 Rh3 2.855021 1_555
Rh0 Rh1 2.928766 1_555
Rh0 Rh2 2.928766 1_555
Rh1 Ti1 2.611210 1_555
Rh1 Rh3 2.928766 1_555
Rh2 Ti0 2.611210 1_555
Rh2 Rh3 2.928766 1_555
Rh3 Ti0 2.634298 1_555
Rh3 Ti1 2.634298 1_555
Rh4 Ti1 2.634289 1_556
Rh4 Ti0 2.634289 1_565
Rh4 Rh7 2.855021 1_555
Rh4 Rh5 2.928766 1_555
Rh4 Rh6 2.928766 1_555
Rh5 Ti1 2.611210 1_556
Rh5 Rh7 2.928766 1_555
Rh6 Ti0 2.611210 1_565
Rh6 Rh7 2.928766 1_555
Rh7 Ti0 2.634298 1_565
Rh7 Ti1 2.634298 1_556
C0 Hf10 2.283708 1_555
C0 Hf4 2.283708 1_554
C0 Hf8 2.283708 1_555
C0 Hf2 2.283708 1_545
C0 Hf7 2.284608 1_555
C0 Hf13 2.284608 1_555
C1 Hf6 2.281096 1_554
C1 Hf12 2.281096 1_555
C1 Hf8 2.283539 1_555
C1 Hf2 2.283539 1_455
C1 Hf5 2.283539 1_555
C1 Hf11 2.283539 1_555
C2 Hf12 2.281096 1_555
C2 Hf6 2.281096 1_545
C2 Hf3 2.283539 1_555
C2 Hf9 2.283539 1_555
C2 Hf10 2.283539 1_555
C2 Hf4 2.283539 1_455
C3 Hf9 2.283707 1_555
C3 Hf3 2.283707 1_554
C3 Hf11 2.283708 1_555
C3 Hf5 2.283708 1_545
C3 Hf13 2.284608 1_555
C3 Hf7 2.284608 1_455
