# generated using pymatgen
data_Ba4HfPdO8
_symmetry_space_group_name_H-M   'P 1'
_cell_length_a   7.34860555
_cell_length_b   7.34860696
_cell_length_c   5.76536011
_cell_angle_alpha   90.00000000
_cell_angle_beta   90.00000000
_cell_angle_gamma   133.76035357
_symmetry_Int_Tables_number   1
_chemical_formula_structural   Ba4HfPdO8
_chemical_formula_sum   'Ba4 Hf1 Pd1 O8'
_cell_volume   224.86265084
_cell_formula_units_Z   1
loop_
 _symmetry_equiv_pos_site_id
 _symmetry_equiv_pos_as_xyz
  1  'x, y, z'
loop_
 _atom_site_type_symbol
 _atom_site_label
 _atom_site_symmetry_multiplicity
 _atom_site_fract_x
 _atom_site_fract_y
 _atom_site_fract_z
 _atom_site_occupancy
  Ba  Ba0  1  0.35440329  0.64559671  0.00000000  1
  Ba  Ba1  1  0.85336905  0.14663095  0.50000000  1
  Ba  Ba2  1  0.14663095  0.85336905  0.50000000  1
  Ba  Ba3  1  0.64559671  0.35440329  0.00000000  1
  Hf  Hf0  1  0.00000000  0.00000000  0.00000000  1
  Pd  Pd0  1  0.50000000  0.50000000  0.50000000  1
  O  O0  1  0.25218723  0.25218723  0.74623298  1
  O  O1  1  0.74781277  0.74781277  0.25376702  1
  O  O2  1  0.74781277  0.74781277  0.74623298  1
  O  O3  1  0.25218723  0.25218723  0.25376702  1
  O  O4  1  0.15443606  0.84556394  0.00000000  1
  O  O5  1  0.65351860  0.34648140  0.50000000  1
  O  O6  1  0.34648140  0.65351860  0.50000000  1
  O  O7  1  0.84556394  0.15443606  0.00000000  1
loop_
_geom_bond_atom_site_label_1
_geom_bond_atom_site_label_2
_geom_bond_distance
_geom_bond_site_symmetry_2
Ba0 O4 2.702920 1_555
Ba0 O1 2.838802 1_555
Ba0 O2 2.838802 1_554
Ba0 O3 2.838803 1_555
Ba0 O0 2.838803 1_554
Ba0 O6 2.884668 1_555
Ba0 O6 2.884668 1_554
Ba0 O7 2.887942 1_455
Ba0 O7 2.887942 1_565
Ba1 O5 2.701342 1_555
Ba1 O0 2.839304 1_655
Ba1 O3 2.839304 1_655
Ba1 O2 2.839305 1_545
Ba1 O1 2.839305 1_545
Ba1 O7 2.884610 1_556
Ba1 O7 2.884610 1_555
Ba1 O6 2.886971 1_545
Ba1 O6 2.886971 1_655
Ba2 O6 2.701342 1_555
Ba2 O2 2.839304 1_455
Ba2 O1 2.839304 1_455
Ba2 O0 2.839305 1_565
Ba2 O3 2.839305 1_565
Ba2 O4 2.884610 1_556
Ba2 O4 2.884610 1_555
Ba2 O5 2.886971 1_565
Ba2 O5 2.886971 1_455
Ba3 O7 2.702920 1_555
Ba3 O3 2.838802 1_555
Ba3 O0 2.838802 1_554
Ba3 O1 2.838803 1_555
Ba3 O2 2.838803 1_554
Ba3 O5 2.884668 1_555
Ba3 O5 2.884668 1_554
Ba3 O4 2.887942 1_655
Ba3 O4 2.887942 1_545
Hf0 O3 2.063638 1_555
Hf0 O1 2.063638 1_445
Hf0 O0 2.063638 1_554
Hf0 O2 2.063638 1_444
Hf0 O7 2.087484 1_455
Hf0 O4 2.087484 1_545
O0 Pd0 2.015080 1_555
O1 Pd0 2.015080 1_555
O2 Pd0 2.015080 1_555
O3 Pd0 2.015080 1_555
O5 Pd0 2.075083 1_555
O6 Pd0 2.075083 1_555
