# generated using pymatgen
data_Hf6Tc6BAs5
_symmetry_space_group_name_H-M   'P 1'
_cell_length_a   7.66326854
_cell_length_b   7.66319794
_cell_length_c   7.66327030
_cell_angle_alpha   127.28435641
_cell_angle_beta   125.21771241
_cell_angle_gamma   79.48736907
_symmetry_Int_Tables_number   1
_chemical_formula_structural   Hf6Tc6BAs5
_chemical_formula_sum   'Hf6 Tc6 B1 As5'
_cell_volume   282.71646539
_cell_formula_units_Z   1
loop_
 _symmetry_equiv_pos_site_id
 _symmetry_equiv_pos_as_xyz
  1  'x, y, z'
loop_
 _atom_site_type_symbol
 _atom_site_label
 _atom_site_symmetry_multiplicity
 _atom_site_fract_x
 _atom_site_fract_y
 _atom_site_fract_z
 _atom_site_occupancy
  Hf  Hf0  1  0.44763880  0.64923905  0.70160025  1
  Hf  Hf1  1  0.54988032  0.25357067  0.20369035  1
  Hf  Hf2  1  0.74995565  0.84506452  0.59510887  1
  Hf  Hf3  1  0.24996044  0.86146365  0.11150121  1
  Hf  Hf4  1  0.05235920  0.25387423  0.70151503  1
  Hf  Hf5  1  0.95010534  0.65389036  0.20378402  1
  Tc  Tc0  1  0.47550965  0.49542966  0.97089629  1
  Tc  Tc1  1  0.02453337  0.49542966  0.51992001  1
  Tc  Tc2  1  0.14712938  0.25400770  0.15935209  1
  Tc  Tc3  1  0.90535850  0.01229154  0.15934652  1
  Tc  Tc4  1  0.35294503  0.01229154  0.60693304  1
  Tc  Tc5  1  0.59465661  0.25400770  0.60687832  1
  B  B0  1  0.25003782  0.25442640  0.50438958  1
  As  As0  1  0.74998887  0.24855036  0.99856250  1
  As  As1  1  0.33302221  0.58728654  0.25380493  1
  As  As2  1  0.66650008  0.92074394  0.25380681  1
  As  As3  1  0.16693613  0.92074394  0.75424386  1
  As  As4  1  0.83348261  0.58728654  0.75426433  1
loop_
_geom_bond_atom_site_label_1
_geom_bond_atom_site_label_2
_geom_bond_distance
_geom_bond_site_symmetry_2
Hf0 Tc2 2.829124 1_555
Hf0 Tc5 2.829126 1_555
Hf0 Tc1 2.835566 1_555
Hf0 Tc0 2.835566 1_555
Hf0 Tc4 3.145570 1_565
Hf0 Tc3 3.145571 1_566
Hf1 Tc5 2.903330 1_555
Hf1 Tc2 2.903333 1_555
Hf1 Tc1 3.064350 1_655
Hf1 Tc0 3.064351 1_554
Hf1 Tc3 3.069775 1_555
Hf1 Tc4 3.069776 1_554
Hf2 Tc1 3.067408 1_655
Hf2 Tc0 3.067409 1_554
Hf2 Tc4 3.108248 1_565
Hf2 Tc3 3.108249 1_566
Hf2 Tc5 3.108968 1_565
Hf2 Tc2 3.108971 1_666
Hf3 Tc3 2.816663 1_465
Hf3 Tc4 2.816672 1_565
Hf3 Tc2 2.817132 1_565
Hf3 Tc5 2.817143 1_565
Hf3 Tc1 2.955266 1_554
Hf3 Tc0 2.955272 1_554
Hf4 Tc4 2.828862 1_555
Hf4 Tc3 2.828863 1_455
Hf4 Tc0 2.836056 1_555
Hf4 Tc1 2.836056 1_555
Hf4 Tc5 3.145508 1_455
Hf4 Tc2 3.145517 1_556
Hf5 Tc3 2.903721 1_565
Hf5 Tc4 2.903725 1_665
Hf5 Tc0 3.063779 1_554
Hf5 Tc1 3.063784 1_655
Hf5 Tc5 3.070254 1_554
Hf5 Tc2 3.070260 1_655
B0 Tc2 2.280114 1_555
B0 Tc5 2.280116 1_555
B0 Tc4 2.280405 1_555
B0 Tc3 2.280410 1_455
B0 Tc0 2.284219 1_555
B0 Tc1 2.284223 1_555
B0 Hf3 2.673430 1_545
B0 Hf0 2.687647 1_555
B0 Hf4 2.688172 1_555
As0 Tc3 2.537266 1_556
As0 Tc4 2.537272 1_555
As0 Tc2 2.537939 1_656
As0 Tc5 2.537947 1_555
As0 Tc1 2.562808 1_656
As0 Tc0 2.562813 1_555
As0 Hf1 2.740358 1_556
As0 Hf5 2.740747 1_556
As0 Hf2 2.745329 1_545
As1 Tc2 2.640976 1_555
As1 Tc4 2.642102 1_565
As1 Tc0 2.643670 1_554
As1 Hf2 2.712314 1_555
As1 Hf5 2.722369 1_455
As1 Hf1 2.728473 1_555
As1 Hf4 2.733450 1_554
As1 Hf0 2.733973 1_555
As1 Hf3 2.737922 1_555
As2 Tc3 2.641729 1_565
As2 Tc5 2.641852 1_565
As2 Tc0 2.642962 1_554
As2 Hf2 2.712795 1_555
As2 Hf1 2.722215 1_565
As2 Hf5 2.727927 1_555
As2 Hf0 2.733067 1_554
As2 Hf4 2.733835 1_665
As2 Hf3 2.738406 1_555
As3 Tc4 2.641735 1_565
As3 Tc2 2.641853 1_566
As3 Tc1 2.642960 1_555
As3 Hf2 2.712787 1_455
As3 Hf1 2.722219 1_566
As3 Hf5 2.727934 1_455
As3 Hf0 2.733072 1_555
As3 Hf4 2.733835 1_565
As3 Hf3 2.738395 1_556
As4 Tc5 2.640976 1_555
As4 Tc3 2.642104 1_566
As4 Tc1 2.643663 1_655
As4 Hf2 2.712313 1_555
As4 Hf5 2.722368 1_556
As4 Hf1 2.728474 1_555
As4 Hf4 2.733445 1_655
As4 Hf0 2.733979 1_555
As4 Hf3 2.737907 1_656
