# generated using pymatgen
data_YZnCdPd3
_symmetry_space_group_name_H-M   'P 1'
_cell_length_a   5.48706140
_cell_length_b   5.48706214
_cell_length_c   5.13712898
_cell_angle_alpha   57.71986381
_cell_angle_beta   57.71987329
_cell_angle_gamma   59.99999724
_symmetry_Int_Tables_number   1
_chemical_formula_structural   YZnCdPd3
_chemical_formula_sum   'Y1 Zn1 Cd1 Pd3'
_cell_volume   105.44457347
_cell_formula_units_Z   1
loop_
 _symmetry_equiv_pos_site_id
 _symmetry_equiv_pos_as_xyz
  1  'x, y, z'
loop_
 _atom_site_type_symbol
 _atom_site_label
 _atom_site_symmetry_multiplicity
 _atom_site_fract_x
 _atom_site_fract_y
 _atom_site_fract_z
 _atom_site_occupancy
  Y  Y0  1  0.75094137  0.75094137  0.74717689  1
  Zn  Zn0  1  0.37388465  0.37388465  0.87834606  1
  Cd  Cd0  1  0.00347217  0.00347217  0.98958450  1
  Pd  Pd0  1  0.37328270  0.87513742  0.37829719  1
  Pd  Pd1  1  0.37328270  0.37328270  0.37829719  1
  Pd  Pd2  1  0.87513742  0.37328270  0.37829719  1
loop_
_geom_bond_atom_site_label_1
_geom_bond_atom_site_label_2
_geom_bond_distance
_geom_bond_site_symmetry_2
Y0 Zn0 3.212058 1_655
Y0 Zn0 3.212058 1_565
Y0 Zn0 3.212063 1_555
Cd0 Pd1 2.932829 1_555
Cd0 Pd2 2.932831 1_455
Cd0 Pd0 2.932832 1_545
Cd0 Y0 3.063723 1_446
Cd0 Pd0 3.161969 1_546
Cd0 Pd2 3.161970 1_456
Cd0 Pd1 3.161972 1_546
Cd0 Pd1 3.161972 1_456
Cd0 Pd0 3.161974 1_446
Cd0 Pd2 3.161975 1_446
Cd0 Zn0 3.199734 1_555
Cd0 Zn0 3.199738 1_455
Cd0 Zn0 3.199738 1_545
Cd0 Y0 3.316164 1_545
Cd0 Y0 3.316164 1_455
Cd0 Y0 3.316164 1_445
Pd0 Zn0 2.564789 1_564
Pd0 Zn0 2.572347 1_555
Pd0 Pd2 2.733354 1_465
Pd0 Pd1 2.733354 1_565
Pd0 Pd2 2.753708 1_555
Pd0 Pd1 2.753708 1_555
Pd0 Y0 3.006942 1_554
Pd0 Y0 3.122871 1_455
Pd0 Y0 3.122876 1_555
Pd1 Zn0 2.564789 1_554
Pd1 Zn0 2.572347 1_555
Pd1 Pd2 2.733354 1_455
Pd1 Pd2 2.753708 1_555
Pd1 Y0 3.006944 1_554
Pd1 Y0 3.122874 1_545
Pd1 Y0 3.122874 1_455
Pd2 Zn0 2.564789 1_654
Pd2 Zn0 2.572347 1_555
Pd2 Y0 3.006941 1_554
Pd2 Y0 3.122872 1_545
Pd2 Y0 3.122877 1_555
