# generated using pymatgen
data_Co5Si7(BW6)2
_symmetry_space_group_name_H-M   'P 1'
_cell_length_a   7.71719533
_cell_length_b   7.71719428
_cell_length_c   7.71719427
_cell_angle_alpha   60.31113857
_cell_angle_beta   60.31113960
_cell_angle_gamma   60.31114626
_symmetry_Int_Tables_number   1
_chemical_formula_structural   Co5Si7(BW6)2
_chemical_formula_sum   'Co5 Si7 B2 W12'
_cell_volume   327.27305361
_cell_formula_units_Z   1
loop_
 _symmetry_equiv_pos_site_id
 _symmetry_equiv_pos_as_xyz
  1  'x, y, z'
loop_
 _atom_site_type_symbol
 _atom_site_label
 _atom_site_symmetry_multiplicity
 _atom_site_fract_x
 _atom_site_fract_y
 _atom_site_fract_z
 _atom_site_occupancy
  Co  Co0  1  0.82844719  0.82844719  0.82844719  1
  Co  Co1  1  0.61693496  0.61693496  0.14316638  1
  Co  Co2  1  0.61693496  0.14316638  0.61693496  1
  Co  Co3  1  0.14316638  0.61693496  0.61693496  1
  Co  Co4  1  0.62768493  0.62768493  0.62768493  1
  Si  Si0  1  0.41584895  0.41584895  0.75516017  1
  Si  Si1  1  0.41584895  0.75516017  0.41584895  1
  Si  Si2  1  0.75516017  0.41584895  0.41584895  1
  Si  Si3  1  0.41480749  0.41480749  0.41480749  1
  Si  Si4  1  0.83568426  0.83568426  0.50600100  1
  Si  Si5  1  0.83568426  0.50600100  0.83568426  1
  Si  Si6  1  0.50600100  0.83568426  0.83568426  1
  B  B0  1  0.24900719  0.24900719  0.24900719  1
  B  B1  1  0.99872867  0.99872867  0.99872867  1
  W  W0  1  0.04900070  0.04900070  0.45306851  1
  W  W1  1  0.44708446  0.05318255  0.44708446  1
  W  W2  1  0.05318255  0.44708446  0.44708446  1
  W  W3  1  0.44708446  0.44708446  0.05318255  1
  W  W4  1  0.04900070  0.45306851  0.04900070  1
  W  W5  1  0.45306851  0.04900070  0.04900070  1
  W  W6  1  0.19393739  0.19393739  0.80554943  1
  W  W7  1  0.80339869  0.19141866  0.80339869  1
  W  W8  1  0.19141866  0.80339869  0.80339869  1
  W  W9  1  0.80339869  0.80339869  0.19141866  1
  W  W10  1  0.19393739  0.80554943  0.19393739  1
  W  W11  1  0.80554943  0.19393739  0.19393739  1
loop_
_geom_bond_atom_site_label_1
_geom_bond_atom_site_label_2
_geom_bond_distance
_geom_bond_site_symmetry_2
Co0 Si4 2.434344 1_555
Co0 Si5 2.434344 1_555
Co0 Si6 2.434344 1_555
Co0 Co1 2.452068 1_556
Co0 Co2 2.452068 1_565
Co0 Co3 2.452068 1_655
Co0 W9 2.623984 1_556
Co0 W7 2.623984 1_565
Co0 W8 2.623985 1_655
Co0 W0 2.699476 1_665
Co0 W4 2.699476 1_656
Co0 W5 2.699476 1_566
Co1 Si3 2.278766 1_555
Co1 Si1 2.307231 1_555
Co1 Si2 2.307231 1_555
Co1 Si5 2.413715 1_554
Co1 Si6 2.413715 1_554
Co1 W9 2.718951 1_555
Co1 W3 2.724645 1_555
Co1 W11 2.742162 1_555
Co1 W10 2.742162 1_555
Co1 W5 2.752874 1_565
Co1 W4 2.752875 1_655
Co2 Si3 2.278766 1_555
Co2 Si2 2.307231 1_555
Co2 Si0 2.307231 1_555
Co2 Si6 2.413715 1_545
Co2 Si4 2.413715 1_545
Co2 W7 2.718951 1_555
Co2 W1 2.724645 1_555
Co2 W11 2.742162 1_555
Co2 W6 2.742162 1_555
Co2 W5 2.752874 1_556
Co2 W0 2.752875 1_655
Co3 Si3 2.278766 1_555
Co3 Si1 2.307231 1_555
Co3 Si0 2.307231 1_555
Co3 Si5 2.413715 1_455
Co3 Si4 2.413716 1_455
Co3 W8 2.718951 1_555
Co3 W2 2.724645 1_555
Co3 W10 2.742162 1_555
Co3 W6 2.742162 1_555
Co3 W4 2.752874 1_556
Co3 W0 2.752874 1_565
Co4 Si6 2.366640 1_555
Co4 Si4 2.366640 1_555
Co4 Si5 2.366640 1_555
Co4 Si2 2.402909 1_555
Co4 Si0 2.402909 1_555
Co4 Si1 2.402909 1_555
Co4 W3 2.743115 1_556
Co4 W1 2.743115 1_565
Co4 W2 2.743116 1_655
Co4 W9 2.790934 1_555
Co4 W7 2.790934 1_555
Co4 W8 2.790934 1_555
Si0 W3 2.561568 1_556
Si0 W5 2.592266 1_556
Si0 W4 2.592266 1_556
Si0 Si1 2.630835 1_555
Si0 Si2 2.630836 1_555
Si0 Si3 2.634554 1_555
Si0 W8 2.723270 1_555
Si0 W7 2.723270 1_555
Si0 W6 2.757276 1_555
Si1 W1 2.561568 1_565
Si1 W5 2.592266 1_565
Si1 W0 2.592266 1_565
Si1 Si2 2.630836 1_555
Si1 Si3 2.634554 1_555
Si1 W8 2.723270 1_555
Si1 W9 2.723270 1_555
Si1 W10 2.757277 1_555
Si2 W2 2.561568 1_655
Si2 W4 2.592266 1_655
Si2 W0 2.592266 1_655
Si2 Si3 2.634554 1_555
Si2 W9 2.723270 1_555
Si2 W7 2.723270 1_555
Si2 W11 2.757276 1_555
Si3 W3 2.568374 1_555
Si3 W1 2.568374 1_555
Si3 W2 2.568375 1_555
Si3 W6 2.756563 1_555
Si3 W10 2.756563 1_555
Si3 W11 2.756563 1_555
Si4 Si5 2.556186 1_555
Si4 Si6 2.556186 1_555
Si4 W11 2.611489 1_565
Si4 W10 2.611489 1_655
Si4 W0 2.634209 1_665
Si4 W9 2.697718 1_555
Si4 W2 2.761512 1_655
Si4 W1 2.761512 1_565
Si5 Si6 2.556186 1_555
Si5 W11 2.611489 1_556
Si5 W6 2.611490 1_655
Si5 W4 2.634209 1_656
Si5 W7 2.697718 1_555
Si5 W2 2.761512 1_655
Si5 W3 2.761512 1_556
Si6 W10 2.611489 1_556
Si6 W6 2.611489 1_565
Si6 W5 2.634209 1_566
Si6 W8 2.697719 1_555
Si6 W3 2.761512 1_556
Si6 W1 2.761512 1_565
B0 W3 2.166807 1_555
B0 W2 2.166808 1_555
B0 W1 2.166808 1_555
B0 W0 2.188389 1_555
B0 W5 2.188390 1_555
B0 W4 2.188390 1_555
B1 W6 2.135426 1_665
B1 W11 2.135426 1_566
B1 W10 2.135426 1_656
B1 W9 2.136761 1_556
B1 W8 2.136761 1_655
B1 W7 2.136761 1_565
