# generated using pymatgen
data_NaHfFeH6
_symmetry_space_group_name_H-M   'P 1'
_cell_length_a   4.55438965
_cell_length_b   4.55438948
_cell_length_c   4.55438885
_cell_angle_alpha   59.99999054
_cell_angle_beta   59.99999177
_cell_angle_gamma   59.99999734
_symmetry_Int_Tables_number   1
_chemical_formula_structural   NaHfFeH6
_chemical_formula_sum   'Na1 Hf1 Fe1 H6'
_cell_volume   66.79983589
_cell_formula_units_Z   1
loop_
 _symmetry_equiv_pos_site_id
 _symmetry_equiv_pos_as_xyz
  1  'x, y, z'
loop_
 _atom_site_type_symbol
 _atom_site_label
 _atom_site_symmetry_multiplicity
 _atom_site_fract_x
 _atom_site_fract_y
 _atom_site_fract_z
 _atom_site_occupancy
  Na  Na0  1  0.75000000  0.75000000  0.75000000  1
  Hf  Hf0  1  0.25000000  0.25000000  0.25000000  1
  Fe  Fe0  1  0.00000000  0.00000000  0.00000000  1
  H  H0  1  0.75320079  0.75320079  0.24679921  1
  H  H1  1  0.24679921  0.75320079  0.24679921  1
  H  H2  1  0.75320079  0.24679921  0.24679921  1
  H  H3  1  0.24679921  0.24679921  0.75320079  1
  H  H4  1  0.75320079  0.24679921  0.75320079  1
  H  H5  1  0.24679921  0.75320079  0.75320079  1
loop_
_geom_bond_atom_site_label_1
_geom_bond_atom_site_label_2
_geom_bond_distance
_geom_bond_site_symmetry_2
Fe0 H3 1.589604 1_554
Fe0 H0 1.589604 1_445
Fe0 H1 1.589604 1_545
Fe0 H2 1.589604 1_455
Fe0 H4 1.589604 1_454
Fe0 H5 1.589604 1_544
H0 Na0 2.277288 1_555
H0 Na0 2.277288 1_554
H0 Hf0 2.277288 1_655
H0 Hf0 2.277288 1_565
H1 Na0 2.277288 1_455
H1 Na0 2.277288 1_554
H1 Hf0 2.277288 1_555
H1 Hf0 2.277288 1_565
H2 Na0 2.277288 1_545
H2 Na0 2.277288 1_554
H2 Hf0 2.277288 1_555
H2 Hf0 2.277288 1_655
H3 Hf0 2.277288 1_555
H3 Hf0 2.277288 1_556
H3 Na0 2.277288 1_455
H3 Na0 2.277288 1_545
H4 Hf0 2.277288 1_655
H4 Hf0 2.277288 1_556
H4 Na0 2.277288 1_555
H4 Na0 2.277288 1_545
H5 Hf0 2.277288 1_565
H5 Hf0 2.277288 1_556
H5 Na0 2.277288 1_555
H5 Na0 2.277288 1_455
