# generated using pymatgen
data_Zn8GePd3O16
_symmetry_space_group_name_H-M   'P 1'
_cell_length_a   6.00442096
_cell_length_b   6.01644316
_cell_length_c   8.40692327
_cell_angle_alpha   89.81274387
_cell_angle_beta   90.00000000
_cell_angle_gamma   90.00000000
_symmetry_Int_Tables_number   1
_chemical_formula_structural   Zn8GePd3O16
_chemical_formula_sum   'Zn8 Ge1 Pd3 O16'
_cell_volume   303.70064513
_cell_formula_units_Z   1
loop_
 _symmetry_equiv_pos_site_id
 _symmetry_equiv_pos_as_xyz
  1  'x, y, z'
loop_
 _atom_site_type_symbol
 _atom_site_label
 _atom_site_symmetry_multiplicity
 _atom_site_fract_x
 _atom_site_fract_y
 _atom_site_fract_z
 _atom_site_occupancy
  Zn  Zn0  1  0.99952627  0.23836972  0.99888347  1
  Zn  Zn1  1  0.99952627  0.76163028  0.50111653  1
  Zn  Zn2  1  0.25477788  0.24973092  0.62807542  1
  Zn  Zn3  1  0.25477788  0.75026908  0.87192458  1
  Zn  Zn4  1  0.23401185  0.00000000  0.25000000  1
  Zn  Zn5  1  0.76425132  0.00000000  0.75000000  1
  Zn  Zn6  1  0.74729423  0.25119396  0.37719602  1
  Zn  Zn7  1  0.74729423  0.74880604  0.12280398  1
  Ge  Ge0  1  0.76191527  0.50000000  0.75000000  1
  Pd  Pd0  1  0.24701902  0.50000000  0.25000000  1
  Pd  Pd1  1  0.50076055  0.74824715  0.50197004  1
  Pd  Pd2  1  0.50076055  0.25175285  0.99802996  1
  O  O0  1  0.52853039  0.73047765  0.73862316  1
  O  O1  1  0.52853039  0.26952235  0.76137684  1
  O  O2  1  0.73943076  0.97807563  0.50562706  1
  O  O3  1  0.73943076  0.02192437  0.99437294  1
  O  O4  1  0.73939396  0.51200330  0.52337053  1
  O  O5  1  0.73939396  0.48799670  0.97662947  1
  O  O6  1  0.97395834  0.72798306  0.75105270  1
  O  O7  1  0.97395834  0.27201694  0.74894730  1
  O  O8  1  0.01594293  0.73799650  0.25468959  1
  O  O9  1  0.01594293  0.26200350  0.24531041  1
  O  O10  1  0.25489465  0.51873353  0.48823709  1
  O  O11  1  0.25489465  0.48126647  0.01176291  1
  O  O12  1  0.26216421  0.97976240  0.49814570  1
  O  O13  1  0.26216421  0.02023760  0.00185430  1
  O  O14  1  0.47972709  0.74386471  0.26272021  1
  O  O15  1  0.47972709  0.25613529  0.23727979  1
loop_
_geom_bond_atom_site_label_1
_geom_bond_atom_site_label_2
_geom_bond_distance
_geom_bond_site_symmetry_2
Ge0 O6 1.871524 1_555
Ge0 O7 1.871524 1_555
Ge0 O4 1.911179 1_555
Ge0 O5 1.911179 1_555
Ge0 O0 1.973538 1_555
Ge0 O1 1.973538 1_555
O0 Zn3 1.993176 1_555
O0 Pd1 1.999012 1_555
O0 Zn5 2.154740 1_565
O1 Zn2 1.993176 1_555
O1 Pd2 1.999012 1_555
O1 Zn5 2.154740 1_555
O2 Zn6 1.963801 1_565
O2 Pd1 1.991715 1_555
O2 Zn1 2.033850 1_555
O2 Zn5 2.064471 1_565
O3 Zn7 1.963801 1_546
O3 Pd2 1.991715 1_555
O3 Zn0 2.033850 1_555
O3 Zn5 2.064471 1_555
O4 Zn6 1.996800 1_555
O4 Pd1 2.025833 1_555
O4 Zn1 2.174497 1_555
O5 Zn7 1.996800 1_556
O5 Pd2 2.025833 1_555
O5 Zn0 2.174497 1_555
O6 Zn3 1.973470 1_655
O6 Zn5 2.064913 1_565
O6 Zn1 2.115842 1_555
O7 Zn2 1.973470 1_655
O7 Zn5 2.064913 1_555
O7 Zn0 2.115842 1_555
O8 Zn7 1.958345 1_455
O8 Pd0 1.994326 1_555
O8 Zn4 2.049495 1_565
O8 Zn1 2.079368 1_455
O9 Zn6 1.958345 1_455
O9 Pd0 1.994326 1_555
O9 Zn4 2.049495 1_555
O9 Zn0 2.079368 1_454
O10 Zn2 1.997240 1_555
O10 Pd0 2.006935 1_555
O10 Pd1 2.024980 1_555
O10 Zn1 2.121203 1_455
O11 Zn3 1.997240 1_554
O11 Pd0 2.006935 1_555
O11 Pd2 2.024980 1_554
O11 Zn0 2.121203 1_454
O12 Zn2 1.960840 1_565
O12 Pd1 1.998335 1_555
O12 Zn1 2.051741 1_455
O12 Zn4 2.096122 1_565
O13 Zn3 1.960840 1_544
O13 Pd2 1.998335 1_554
O13 Zn0 2.051741 1_454
O13 Zn4 2.096122 1_555
O14 Zn7 1.991324 1_555
O14 Pd1 2.015575 1_555
O14 Pd0 2.029166 1_555
O14 Zn4 2.135849 1_565
O15 Zn6 1.991324 1_555
O15 Pd2 2.015575 1_554
O15 Pd0 2.029166 1_555
O15 Zn4 2.135849 1_555
