# generated using pymatgen
data_Li3Ni2RuO6
_symmetry_space_group_name_H-M   'P 1'
_cell_length_a   5.09937576
_cell_length_b   5.06501695
_cell_length_c   5.06501699
_cell_angle_alpha   119.87463008
_cell_angle_beta   99.65952546
_cell_angle_gamma   99.65953807
_symmetry_Int_Tables_number   1
_chemical_formula_structural   Li3Ni2RuO6
_chemical_formula_sum   'Li3 Ni2 Ru1 O6'
_cell_volume   106.88483319
_cell_formula_units_Z   1
loop_
 _symmetry_equiv_pos_site_id
 _symmetry_equiv_pos_as_xyz
  1  'x, y, z'
loop_
 _atom_site_type_symbol
 _atom_site_label
 _atom_site_symmetry_multiplicity
 _atom_site_fract_x
 _atom_site_fract_y
 _atom_site_fract_z
 _atom_site_occupancy
  Li  Li0  1  0.50000000  0.83028713  0.16971287  1
  Li  Li1  1  0.50000000  0.16971287  0.83028713  1
  Li  Li2  1  0.50000000  0.50000000  0.50000000  1
  Ni  Ni0  1  1.00000000  0.66683083  0.33316917  1
  Ni  Ni1  1  0.00000000  0.33316917  0.66683083  1
  Ru  Ru0  1  0.00000000  0.00000000  0.00000000  1
  O  O0  1  0.23350012  0.75945966  0.75945966  1
  O  O1  1  0.76649988  0.24054034  0.24054034  1
  O  O2  1  0.23668087  0.07946992  0.39873474  1
  O  O3  1  0.23668087  0.39873474  0.07946992  1
  O  O4  1  0.76331913  0.92053008  0.60126526  1
  O  O5  1  0.76331913  0.60126526  0.92053008  1
loop_
_geom_bond_atom_site_label_1
_geom_bond_atom_site_label_2
_geom_bond_distance
_geom_bond_site_symmetry_2
Li0 O5 2.091526 1_554
Li0 O2 2.091526 1_565
Li0 O1 2.107008 1_565
Li0 O0 2.107008 1_554
Li0 O3 2.145579 1_555
Li0 O4 2.145579 1_555
Li1 O3 2.091526 1_556
Li1 O4 2.091526 1_545
Li1 O0 2.107008 1_545
Li1 O1 2.107008 1_556
Li1 O5 2.145579 1_555
Li1 O2 2.145579 1_555
Li2 O4 2.079346 1_555
Li2 O2 2.079346 1_555
Li2 O5 2.079346 1_555
Li2 O3 2.079346 1_555
Li2 O1 2.186113 1_555
Li2 O0 2.186113 1_555
Ni0 O1 2.059246 1_555
Ni0 O0 2.059246 1_655
Ni0 O2 2.064627 1_665
Ni0 O5 2.064627 1_554
Ni0 O4 2.069771 1_555
Ni0 O3 2.069771 1_655
Ni1 O0 2.059246 1_555
Ni1 O1 2.059246 1_455
Ni1 O4 2.064627 1_445
Ni1 O3 2.064627 1_556
Ni1 O2 2.069771 1_555
Ni1 O5 2.069771 1_455
O0 Ru0 1.970132 1_566
O1 Ru0 1.970132 1_655
O2 Ru0 1.976513 1_555
O3 Ru0 1.976513 1_555
O4 Ru0 1.976513 1_666
O5 Ru0 1.976513 1_666
