# generated using pymatgen
data_In3Ag(Pt2O7)2
_symmetry_space_group_name_H-M   'P 1'
_cell_length_a   7.03085519
_cell_length_b   7.03085519
_cell_length_c   7.03085510
_cell_angle_alpha   60.99459781
_cell_angle_beta   60.99460241
_cell_angle_gamma   60.99460021
_symmetry_Int_Tables_number   1
_chemical_formula_structural   In3Ag(Pt2O7)2
_chemical_formula_sum   'In3 Ag1 Pt4 O14'
_cell_volume   251.26501445
_cell_formula_units_Z   1
loop_
 _symmetry_equiv_pos_site_id
 _symmetry_equiv_pos_as_xyz
  1  'x, y, z'
loop_
 _atom_site_type_symbol
 _atom_site_label
 _atom_site_symmetry_multiplicity
 _atom_site_fract_x
 _atom_site_fract_y
 _atom_site_fract_z
 _atom_site_occupancy
  In  In0  1  0.62500000  0.12500000  0.12500000  1
  In  In1  1  0.12500000  0.62500000  0.12500000  1
  In  In2  1  0.12500000  0.12500000  0.62500000  1
  Ag  Ag0  1  0.12500000  0.12500000  0.12500000  1
  Pt  Pt0  1  0.62500000  0.62500000  0.12500000  1
  Pt  Pt1  1  0.62500000  0.12500000  0.62500000  1
  Pt  Pt2  1  0.12500000  0.62500000  0.62500000  1
  Pt  Pt3  1  0.62500000  0.62500000  0.62500000  1
  O  O0  1  0.24587149  0.24587149  0.24587149  1
  O  O1  1  0.70029763  0.28857994  0.28857994  1
  O  O2  1  0.71880330  0.28350623  0.71880330  1
  O  O3  1  0.28857994  0.70029763  0.28857994  1
  O  O4  1  0.71880330  0.71880330  0.28350623  1
  O  O5  1  0.28857994  0.28857994  0.70029763  1
  O  O6  1  0.96649377  0.53119670  0.53119670  1
  O  O7  1  0.28350623  0.71880330  0.71880330  1
  O  O8  1  0.96142006  0.96142006  0.54970237  1
  O  O9  1  0.53119670  0.96649377  0.53119670  1
  O  O10  1  0.53119670  0.53119670  0.96649377  1
  O  O11  1  0.96142006  0.54970237  0.96142006  1
  O  O12  1  0.54970237  0.96142006  0.96142006  1
  O  O13  1  0.00412851  0.00412851  0.00412851  1
loop_
_geom_bond_atom_site_label_1
_geom_bond_atom_site_label_2
_geom_bond_distance
_geom_bond_site_symmetry_2
In0 O0 2.203749 1_555
In0 O13 2.203749 1_655
In0 O1 2.321528 1_555
In0 O12 2.321528 1_544
In0 O10 2.373345 1_554
In0 O4 2.373345 1_545
In0 O9 2.373345 1_545
In0 O2 2.373345 1_554
In1 O13 2.203749 1_565
In1 O0 2.203749 1_555
In1 O3 2.321528 1_555
In1 O11 2.321528 1_454
In1 O6 2.373345 1_455
In1 O7 2.373345 1_554
In1 O10 2.373345 1_554
In1 O4 2.373345 1_455
In2 O13 2.203749 1_556
In2 O0 2.203749 1_555
In2 O5 2.321528 1_555
In2 O8 2.321528 1_445
In2 O7 2.373345 1_545
In2 O6 2.373345 1_455
In2 O9 2.373345 1_545
In2 O2 2.373345 1_455
Ag0 O0 2.065865 1_555
Ag0 O13 2.065865 1_555
Ag0 O11 2.486693 1_454
Ag0 O3 2.486693 1_545
Ag0 O8 2.486693 1_445
Ag0 O5 2.486693 1_554
Ag0 O12 2.486693 1_544
Ag0 O1 2.486693 1_455
O1 Pt0 1.983856 1_555
O1 Pt1 1.983856 1_555
O2 Pt1 1.989792 1_555
O2 Pt3 1.996300 1_555
O3 Pt2 1.983856 1_555
O3 Pt0 1.983856 1_555
O4 Pt0 1.989792 1_555
O4 Pt3 1.996300 1_555
O5 Pt2 1.983856 1_555
O5 Pt1 1.983856 1_555
O6 Pt2 1.989792 1_655
O6 Pt3 1.996300 1_555
O7 Pt2 1.989792 1_555
O7 Pt3 1.996300 1_555
O8 Pt2 1.983856 1_655
O8 Pt1 1.983856 1_565
O9 Pt1 1.989792 1_565
O9 Pt3 1.996300 1_555
O10 Pt0 1.989792 1_556
O10 Pt3 1.996300 1_555
O11 Pt2 1.983856 1_655
O11 Pt0 1.983856 1_556
O12 Pt0 1.983856 1_556
O12 Pt1 1.983856 1_565
