# generated using pymatgen
data_LuB4W
_symmetry_space_group_name_H-M   'P 1'
_cell_length_a   5.96216736
_cell_length_b   5.96216743
_cell_length_c   3.58012309
_cell_angle_alpha   90.00000000
_cell_angle_beta   90.00000000
_cell_angle_gamma   104.02180799
_symmetry_Int_Tables_number   1
_chemical_formula_structural   LuB4W
_chemical_formula_sum   'Lu2 B8 W2'
_cell_volume   123.47219246
_cell_formula_units_Z   2
loop_
 _symmetry_equiv_pos_site_id
 _symmetry_equiv_pos_as_xyz
  1  'x, y, z'
loop_
 _atom_site_type_symbol
 _atom_site_label
 _atom_site_symmetry_multiplicity
 _atom_site_fract_x
 _atom_site_fract_y
 _atom_site_fract_z
 _atom_site_occupancy
  Lu  Lu0  1  0.20153466  0.79846534  0.00000000  1
  Lu  Lu1  1  0.79846534  0.20153466  0.00000000  1
  B  B0  1  0.88461932  0.56695958  0.50000000  1
  B  B1  1  0.40695047  0.59304953  0.50000000  1
  B  B2  1  0.87754585  0.87754585  0.50000000  1
  B  B3  1  0.56695958  0.88461932  0.50000000  1
  B  B4  1  0.43304042  0.11538068  0.50000000  1
  B  B5  1  0.12245415  0.12245415  0.50000000  1
  B  B6  1  0.59304953  0.40695047  0.50000000  1
  B  B7  1  0.11538068  0.43304042  0.50000000  1
  W  W0  1  0.67064932  0.67064932  0.00000000  1
  W  W1  1  0.32935068  0.32935068  0.00000000  1
loop_
_geom_bond_atom_site_label_1
_geom_bond_atom_site_label_2
_geom_bond_distance
_geom_bond_site_symmetry_2
Lu0 W0 3.070919 1_455
Lu0 W1 3.070919 1_565
Lu0 W0 3.071883 1_555
Lu0 W1 3.071883 1_555
Lu1 W1 3.070919 1_655
Lu1 W0 3.070919 1_545
Lu1 W1 3.071883 1_555
Lu1 W0 3.071883 1_555
B0 B7 1.750080 1_655
B0 B6 1.768747 1_555
B0 B2 1.862435 1_555
B0 W0 2.365621 1_556
B0 W0 2.365621 1_555
B0 Lu0 2.723214 1_655
B0 Lu0 2.723214 1_656
B0 Lu1 2.769964 1_556
B0 Lu1 2.769964 1_555
B1 B6 1.748940 1_555
B1 B7 1.768747 1_555
B1 B3 1.768747 1_555
B1 W0 2.353243 1_555
B1 W0 2.353243 1_556
B1 W1 2.353243 1_556
B1 W1 2.353243 1_555
B1 Lu0 2.632691 1_556
B1 Lu0 2.632691 1_555
B2 B5 1.797520 1_665
B2 B3 1.862435 1_555
B2 W0 2.347393 1_556
B2 W0 2.347393 1_555
B2 Lu0 2.756689 1_655
B2 Lu0 2.756689 1_656
B2 Lu1 2.756689 1_565
B2 Lu1 2.756689 1_566
B3 B4 1.750080 1_565
B3 W0 2.365621 1_556
B3 W0 2.365621 1_555
B3 Lu1 2.723214 1_566
B3 Lu1 2.723214 1_565
B3 Lu0 2.769964 1_556
B3 Lu0 2.769964 1_555
B4 B6 1.768747 1_555
B4 B5 1.862435 1_555
B4 W1 2.365621 1_555
B4 W1 2.365621 1_556
B4 Lu0 2.723214 1_545
B4 Lu0 2.723214 1_546
B4 Lu1 2.769964 1_556
B4 Lu1 2.769964 1_555
B5 B7 1.862435 1_555
B5 W1 2.347393 1_556
B5 W1 2.347393 1_555
B5 Lu1 2.756689 1_455
B5 Lu1 2.756689 1_456
B5 Lu0 2.756689 1_545
B5 Lu0 2.756689 1_546
B6 W1 2.353243 1_556
B6 W1 2.353243 1_555
B6 W0 2.353243 1_556
B6 W0 2.353243 1_555
B6 Lu1 2.632691 1_555
B6 Lu1 2.632691 1_556
B7 W1 2.365621 1_555
B7 W1 2.365621 1_556
B7 Lu1 2.723214 1_455
B7 Lu1 2.723214 1_456
B7 Lu0 2.769964 1_556
B7 Lu0 2.769964 1_555
