# generated using pymatgen
data_KTiAg3Se4
_symmetry_space_group_name_H-M   'P 1'
_cell_length_a   6.39272404
_cell_length_b   6.39272404
_cell_length_c   6.39272404
_cell_angle_alpha   90.00000000
_cell_angle_beta   90.00000000
_cell_angle_gamma   90.00000000
_symmetry_Int_Tables_number   1
_chemical_formula_structural   KTiAg3Se4
_chemical_formula_sum   'K1 Ti1 Ag3 Se4'
_cell_volume   261.25094616
_cell_formula_units_Z   1
loop_
 _symmetry_equiv_pos_site_id
 _symmetry_equiv_pos_as_xyz
  1  'x, y, z'
loop_
 _atom_site_type_symbol
 _atom_site_label
 _atom_site_symmetry_multiplicity
 _atom_site_fract_x
 _atom_site_fract_y
 _atom_site_fract_z
 _atom_site_occupancy
  K  K0  1  0.50000000  0.50000000  0.50000000  1
  Ti  Ti0  1  0.00000000  0.00000000  0.00000000  1
  Ag  Ag0  1  0.00000000  0.50000000  0.00000000  1
  Ag  Ag1  1  0.00000000  0.00000000  0.50000000  1
  Ag  Ag2  1  0.50000000  0.00000000  0.00000000  1
  Se  Se0  1  0.21870461  0.21870461  0.21870461  1
  Se  Se1  1  0.78129539  0.78129539  0.21870461  1
  Se  Se2  1  0.21870461  0.78129539  0.78129539  1
  Se  Se3  1  0.78129539  0.21870461  0.78129539  1
loop_
_geom_bond_atom_site_label_1
_geom_bond_atom_site_label_2
_geom_bond_distance
_geom_bond_site_symmetry_2
K0 Se1 3.114650 1_555
K0 Se3 3.114650 1_555
K0 Se2 3.114650 1_555
K0 Se0 3.114650 1_555
Ag0 Se1 2.672667 1_455
Ag0 Se2 2.672667 1_554
Ag0 Se0 2.672667 1_555
Ag0 Se3 2.672667 1_454
Ag1 Se2 2.672667 1_545
Ag1 Se3 2.672667 1_455
Ag1 Se0 2.672667 1_555
Ag1 Se1 2.672667 1_445
Ag2 Se1 2.672667 1_545
Ag2 Se3 2.672667 1_554
Ag2 Se0 2.672667 1_555
Ag2 Se2 2.672667 1_544
Se0 Ti0 2.421612 1_555
Se1 Ti0 2.421612 1_665
Se2 Ti0 2.421612 1_566
Se3 Ti0 2.421612 1_656
