# generated using pymatgen
data_NaTiAg3Te4
_symmetry_space_group_name_H-M   'P 1'
_cell_length_a   6.57472918
_cell_length_b   6.57472918
_cell_length_c   6.57472918
_cell_angle_alpha   90.00000000
_cell_angle_beta   90.00000000
_cell_angle_gamma   90.00000000
_symmetry_Int_Tables_number   1
_chemical_formula_structural   NaTiAg3Te4
_chemical_formula_sum   'Na1 Ti1 Ag3 Te4'
_cell_volume   284.20623770
_cell_formula_units_Z   1
loop_
 _symmetry_equiv_pos_site_id
 _symmetry_equiv_pos_as_xyz
  1  'x, y, z'
loop_
 _atom_site_type_symbol
 _atom_site_label
 _atom_site_symmetry_multiplicity
 _atom_site_fract_x
 _atom_site_fract_y
 _atom_site_fract_z
 _atom_site_occupancy
  Na  Na0  1  0.50000000  0.50000000  0.50000000  1
  Ti  Ti0  1  0.00000000  0.00000000  0.00000000  1
  Ag  Ag0  1  0.00000000  0.50000000  0.00000000  1
  Ag  Ag1  1  0.00000000  0.00000000  0.50000000  1
  Ag  Ag2  1  0.50000000  0.00000000  0.00000000  1
  Te  Te0  1  0.23262567  0.23262567  0.23262567  1
  Te  Te1  1  0.76737433  0.76737433  0.23262567  1
  Te  Te2  1  0.23262567  0.76737433  0.76737433  1
  Te  Te3  1  0.76737433  0.23262567  0.76737433  1
loop_
_geom_bond_atom_site_label_1
_geom_bond_atom_site_label_2
_geom_bond_distance
_geom_bond_site_symmetry_2
Na0 Te2 3.044796 1_555
Na0 Te1 3.044796 1_555
Na0 Te3 3.044796 1_555
Na0 Te0 3.044796 1_555
Ag0 Te1 2.787239 1_455
Ag0 Te2 2.787239 1_554
Ag0 Te0 2.787239 1_555
Ag0 Te3 2.787239 1_454
Ag0 Ti0 3.287365 1_555
Ag0 Ti0 3.287365 1_565
Ag1 Te2 2.787239 1_545
Ag1 Te3 2.787239 1_455
Ag1 Te0 2.787239 1_555
Ag1 Te1 2.787239 1_445
Ag1 Ti0 3.287365 1_555
Ag1 Ti0 3.287365 1_556
Ag2 Te1 2.787239 1_545
Ag2 Te3 2.787239 1_554
Ag2 Te0 2.787239 1_555
Ag2 Te2 2.787239 1_544
Ag2 Ti0 3.287365 1_555
Ag2 Ti0 3.287365 1_655
Te0 Ti0 2.649086 1_555
Te1 Ti0 2.649086 1_665
Te2 Ti0 2.649086 1_566
Te3 Ti0 2.649086 1_656
