# generated using pymatgen
data_Ba6Zr2Fe2O13
_symmetry_space_group_name_H-M   'P 1'
_cell_length_a   11.36437816
_cell_length_b   11.36437800
_cell_length_c   5.79930826
_cell_angle_alpha   90.00000000
_cell_angle_beta   90.00000000
_cell_angle_gamma   150.44197193
_symmetry_Int_Tables_number   1
_chemical_formula_structural   Ba6Zr2Fe2O13
_chemical_formula_sum   'Ba6 Zr2 Fe2 O13'
_cell_volume   369.47313989
_cell_formula_units_Z   1
loop_
 _symmetry_equiv_pos_site_id
 _symmetry_equiv_pos_as_xyz
  1  'x, y, z'
loop_
 _atom_site_type_symbol
 _atom_site_label
 _atom_site_symmetry_multiplicity
 _atom_site_fract_x
 _atom_site_fract_y
 _atom_site_fract_z
 _atom_site_occupancy
  Ba  Ba0  1  0.50000000  0.50000000  0.00000000  1
  Ba  Ba1  1  0.00000000  0.00000000  0.50000000  1
  Ba  Ba2  1  0.18287746  0.81712254  0.50000000  1
  Ba  Ba3  1  0.68395843  0.31604157  0.00000000  1
  Ba  Ba4  1  0.31604157  0.68395843  0.00000000  1
  Ba  Ba5  1  0.81712254  0.18287746  0.50000000  1
  Zr  Zr0  1  0.90485826  0.09514174  0.00000000  1
  Zr  Zr1  1  0.09514174  0.90485826  0.00000000  1
  Fe  Fe0  1  0.39127610  0.60872390  0.50000000  1
  Fe  Fe1  1  0.60872390  0.39127610  0.50000000  1
  O  O0  1  0.64926610  0.83330511  0.74145269  1
  O  O1  1  0.16669489  0.35073390  0.25854731  1
  O  O2  1  0.83330511  0.64926610  0.74145269  1
  O  O3  1  0.35073390  0.16669489  0.25854731  1
  O  O4  1  0.16669489  0.35073390  0.74145269  1
  O  O5  1  0.64926610  0.83330511  0.25854731  1
  O  O6  1  0.35073390  0.16669489  0.74145269  1
  O  O7  1  0.83330511  0.64926610  0.25854731  1
  O  O8  1  0.30534248  0.69465752  0.50000000  1
  O  O9  1  0.80957930  0.19042070  0.00000000  1
  O  O10  1  0.19042070  0.80957930  0.00000000  1
  O  O11  1  0.69465752  0.30534248  0.50000000  1
  O  O12  1  0.00000000  0.00000000  0.00000000  1
loop_
_geom_bond_atom_site_label_1
_geom_bond_atom_site_label_2
_geom_bond_distance
_geom_bond_site_symmetry_2
Ba0 O5 2.880093 1_555
Ba0 O3 2.880093 1_555
Ba0 O0 2.880093 1_554
Ba0 O6 2.880093 1_554
Ba0 O7 2.880094 1_555
Ba0 O2 2.880094 1_554
Ba0 O1 2.880094 1_555
Ba0 O4 2.880094 1_554
Ba0 O12 2.898958 1_665
Ba0 O12 2.898958 1_555
Ba1 O4 2.881044 1_555
Ba1 O1 2.881044 1_555
Ba1 O2 2.881044 1_445
Ba1 O7 2.881044 1_445
Ba1 O6 2.881044 1_555
Ba1 O3 2.881044 1_555
Ba1 O0 2.881044 1_445
Ba1 O5 2.881044 1_445
Ba1 O12 2.899654 1_556
Ba1 O12 2.899654 1_555
Ba2 O8 2.691392 1_555
Ba2 O6 2.863184 1_565
Ba2 O3 2.863184 1_565
Ba2 O2 2.863184 1_455
Ba2 O7 2.863184 1_455
Ba2 O10 2.904389 1_556
Ba2 O10 2.904389 1_555
Ba2 O11 2.910495 1_455
Ba2 O11 2.910495 1_565
Ba3 O9 2.760747 1_555
Ba3 O7 2.878850 1_555
Ba3 O2 2.878850 1_554
Ba3 O3 2.878850 1_555
Ba3 O6 2.878850 1_554
Ba3 O10 2.902434 1_545
Ba3 O10 2.902434 1_655
Ba3 O11 2.909172 1_554
Ba3 O11 2.909172 1_555
Ba4 O10 2.760747 1_555
Ba4 O1 2.878850 1_555
Ba4 O4 2.878850 1_554
Ba4 O5 2.878850 1_555
Ba4 O0 2.878850 1_554
Ba4 O9 2.902434 1_565
Ba4 O9 2.902434 1_455
Ba4 O8 2.909172 1_555
Ba4 O8 2.909172 1_554
Ba5 O11 2.691392 1_555
Ba5 O0 2.863184 1_545
Ba5 O5 2.863184 1_545
Ba5 O4 2.863184 1_655
Ba5 O1 2.863184 1_655
Ba5 O9 2.904389 1_556
Ba5 O9 2.904389 1_555
Ba5 O8 2.910495 1_655
Ba5 O8 2.910495 1_545
Fe0 O8 1.888548 1_555
Fe0 O4 2.013098 1_555
Fe0 O1 2.013098 1_555
Fe0 O0 2.013098 1_555
Fe0 O5 2.013098 1_555
Fe1 O11 1.888548 1_555
Fe1 O2 2.013098 1_555
Fe1 O7 2.013098 1_555
Fe1 O6 2.013098 1_555
Fe1 O3 2.013098 1_555
O0 Zr0 2.122006 1_566
O1 Zr0 2.122006 1_455
O2 Zr1 2.122006 1_656
O3 Zr1 2.122006 1_545
O4 Zr0 2.122006 1_456
O5 Zr0 2.122006 1_565
O6 Zr1 2.122006 1_546
O7 Zr1 2.122006 1_655
O9 Zr0 2.093928 1_555
O10 Zr1 2.093928 1_555
O12 Zr0 2.090913 1_455
O12 Zr1 2.090913 1_545
