# generated using pymatgen
data_Cs13Rb3(SnAs4)2
_symmetry_space_group_name_H-M   'P 1'
_cell_length_a   11.83269360
_cell_length_b   11.83269340
_cell_length_c   11.83269379
_cell_angle_alpha   59.57302601
_cell_angle_beta   59.57302604
_cell_angle_gamma   59.57302565
_symmetry_Int_Tables_number   1
_chemical_formula_structural   Cs13Rb3(SnAs4)2
_chemical_formula_sum   'Cs13 Rb3 Sn2 As8'
_cell_volume   1160.11197084
_cell_formula_units_Z   1
loop_
 _symmetry_equiv_pos_site_id
 _symmetry_equiv_pos_as_xyz
  1  'x, y, z'
loop_
 _atom_site_type_symbol
 _atom_site_label
 _atom_site_symmetry_multiplicity
 _atom_site_fract_x
 _atom_site_fract_y
 _atom_site_fract_z
 _atom_site_occupancy
  Cs  Cs0  1  0.62500000  0.62500000  0.62500000  1
  Cs  Cs1  1  0.02300969  0.02300969  0.47673547  1
  Cs  Cs2  1  0.77326453  0.22699031  0.22699031  1
  Cs  Cs3  1  0.22589450  0.77271735  0.77271735  1
  Cs  Cs4  1  0.77271735  0.77271735  0.22589450  1
  Cs  Cs5  1  0.77271735  0.22589450  0.77271735  1
  Cs  Cs6  1  0.22699031  0.77326453  0.22699031  1
  Cs  Cs7  1  0.47728265  0.02410550  0.47728265  1
  Cs  Cs8  1  0.47673547  0.02300969  0.02300969  1
  Cs  Cs9  1  0.02410550  0.47728265  0.47728265  1
  Cs  Cs10  1  0.02300969  0.47673547  0.02300969  1
  Cs  Cs11  1  0.22699031  0.22699031  0.77326453  1
  Cs  Cs12  1  0.47728265  0.47728265  0.02410550  1
  Rb  Rb0  1  0.62500000  0.12500000  0.62500000  1
  Rb  Rb1  1  0.62500000  0.62500000  0.12500000  1
  Rb  Rb2  1  0.12500000  0.62500000  0.62500000  1
  Sn  Sn0  1  0.75093386  0.75093386  0.75093386  1
  Sn  Sn1  1  0.49906614  0.49906614  0.49906614  1
  As  As0  1  0.40326352  0.78402129  0.40326352  1
  As  As1  1  0.84673648  0.84673648  0.46597871  1
  As  As2  1  0.46597871  0.84673648  0.84673648  1
  As  As3  1  0.84474675  0.84474675  0.84474675  1
  As  As4  1  0.78402129  0.40326352  0.40326352  1
  As  As5  1  0.40525325  0.40525325  0.40525325  1
  As  As6  1  0.40326352  0.40326352  0.78402129  1
  As  As7  1  0.84673648  0.46597871  0.84673648  1
loop_
_geom_bond_atom_site_label_1
_geom_bond_atom_site_label_2
_geom_bond_distance
_geom_bond_site_symmetry_2
Cs0 Sn0 3.661809 1_555
Cs0 Sn1 3.661809 1_555
Cs1 Rb2 3.838350 1_545
Cs1 Rb0 3.838350 1_455
Cs2 Rb1 3.838350 1_555
Cs2 Rb0 3.838350 1_555
Cs3 Rb2 3.854510 1_555
Cs4 Rb1 3.854510 1_555
Cs5 Rb0 3.854510 1_555
Cs6 Rb1 3.838350 1_555
Cs6 Rb2 3.838350 1_555
Cs7 Rb0 3.854510 1_555
Cs8 Rb1 3.838350 1_545
Cs8 Rb0 3.838350 1_554
Cs9 Rb2 3.854510 1_555
Cs10 Rb1 3.838350 1_455
Cs10 Rb2 3.838350 1_554
Cs11 Rb2 3.838350 1_555
Cs11 Rb0 3.838350 1_555
Cs12 Rb1 3.854510 1_555
Rb0 Sn1 3.594474 1_555
Rb0 Sn0 3.594474 1_545
Rb1 Sn1 3.594474 1_555
Rb1 Sn0 3.594474 1_554
Rb2 Sn1 3.594474 1_555
Rb2 Sn0 3.594474 1_455
As0 Sn1 2.738188 1_555
As0 Cs6 3.696154 1_555
As0 Rb2 3.713550 1_555
As0 Rb1 3.713550 1_555
As0 Cs4 3.732661 1_555
As0 Cs3 3.732662 1_555
As0 Cs0 3.778917 1_555
As0 Cs1 3.825953 1_565
As0 Cs8 3.825954 1_565
As0 Cs7 3.927080 1_565
As1 Sn0 2.738188 1_555
As1 Cs1 3.696154 1_665
As1 Rb0 3.713550 1_565
As1 Rb2 3.713550 1_655
As1 Cs9 3.732661 1_655
As1 Cs7 3.732661 1_565
As1 Cs0 3.778916 1_555
As1 Cs2 3.825953 1_565
As1 Cs6 3.825954 1_655
As1 Cs4 3.927080 1_555
As2 Sn0 2.738188 1_555
As2 Cs8 3.696154 1_566
As2 Rb0 3.713550 1_565
As2 Rb1 3.713550 1_556
As2 Cs12 3.732661 1_556
As2 Cs7 3.732662 1_565
As2 Cs0 3.778916 1_555
As2 Cs11 3.825953 1_565
As2 Cs6 3.825954 1_556
As2 Cs3 3.927080 1_555
As3 Sn0 2.727820 1_555
As3 Cs10 3.709492 1_656
As3 Cs8 3.709492 1_566
As3 Cs1 3.709492 1_665
As3 Rb2 3.728216 1_655
As3 Rb1 3.728216 1_556
As3 Rb0 3.728216 1_565
As3 Cs5 3.839527 1_565
As3 Cs3 3.839527 1_655
As3 Cs4 3.839527 1_556
As4 Sn1 2.738188 1_555
As4 Cs2 3.696154 1_555
As4 Rb0 3.713550 1_555
As4 Rb1 3.713550 1_555
As4 Cs4 3.732661 1_555
As4 Cs5 3.732662 1_555
As4 Cs0 3.778916 1_555
As4 Cs1 3.825953 1_655
As4 Cs10 3.825954 1_655
As4 Cs9 3.927080 1_655
As5 Sn1 2.727820 1_555
As5 Cs6 3.709492 1_555
As5 Cs2 3.709492 1_555
As5 Cs11 3.709492 1_555
As5 Rb2 3.728216 1_555
As5 Rb1 3.728216 1_555
As5 Rb0 3.728216 1_555
As5 Cs7 3.839527 1_555
As5 Cs9 3.839527 1_555
As5 Cs12 3.839527 1_555
As6 Sn1 2.738188 1_555
As6 Cs11 3.696154 1_555
As6 Rb0 3.713550 1_555
As6 Rb2 3.713550 1_555
As6 Cs3 3.732661 1_555
As6 Cs5 3.732661 1_555
As6 Cs0 3.778916 1_555
As6 Cs8 3.825953 1_556
As6 Cs10 3.825954 1_556
As6 Cs12 3.927080 1_556
As7 Sn0 2.738188 1_555
As7 Cs10 3.696154 1_656
As7 Rb2 3.713550 1_655
As7 Rb1 3.713550 1_556
As7 Cs12 3.732661 1_556
As7 Cs9 3.732662 1_655
As7 Cs0 3.778917 1_555
As7 Cs11 3.825953 1_655
As7 Cs2 3.825954 1_556
As7 Cs5 3.927080 1_555
