# generated using pymatgen
data_NbAgP2F12
_symmetry_space_group_name_H-M   'P 1'
_cell_length_a   8.43013214
_cell_length_b   8.69741029
_cell_length_c   7.90977268
_cell_angle_alpha   90.00000000
_cell_angle_beta   117.96372654
_cell_angle_gamma   90.00000000
_symmetry_Int_Tables_number   1
_chemical_formula_structural   NbAgP2F12
_chemical_formula_sum   'Nb2 Ag2 P4 F24'
_cell_volume   512.23511872
_cell_formula_units_Z   2
loop_
 _symmetry_equiv_pos_site_id
 _symmetry_equiv_pos_as_xyz
  1  'x, y, z'
loop_
 _atom_site_type_symbol
 _atom_site_label
 _atom_site_symmetry_multiplicity
 _atom_site_fract_x
 _atom_site_fract_y
 _atom_site_fract_z
 _atom_site_occupancy
  Nb  Nb0  1  0.00000000  0.50000000  0.50000000  1
  Nb  Nb1  1  0.00000000  0.00000000  0.00000000  1
  Ag  Ag0  1  0.00000000  0.00000000  0.50000000  1
  Ag  Ag1  1  0.00000000  0.50000000  0.00000000  1
  P  P0  1  0.68222309  0.02450844  0.34421089  1
  P  P1  1  0.31777691  0.52450844  0.15578911  1
  P  P2  1  0.31777691  0.97549156  0.65578911  1
  P  P3  1  0.68222309  0.47549156  0.84421089  1
  F  F0  1  0.15972863  0.41788491  0.74952428  1
  F  F1  1  0.84027137  0.91788491  0.75047572  1
  F  F2  1  0.84027137  0.58211509  0.25047572  1
  F  F3  1  0.15972863  0.08211509  0.24952428  1
  F  F4  1  0.14780850  0.41454949  0.39656980  1
  F  F5  1  0.85219150  0.91454949  0.10343020  1
  F  F6  1  0.85219150  0.58545051  0.60343020  1
  F  F7  1  0.14780850  0.08545051  0.89656980  1
  F  F8  1  0.13657518  0.68916975  0.56193500  1
  F  F9  1  0.86342482  0.18916975  0.93806500  1
  F  F10  1  0.86342482  0.31083025  0.43806500  1
  F  F11  1  0.13657518  0.81083025  0.06193500  1
  F  F12  1  0.59444972  0.11186790  0.44878840  1
  F  F13  1  0.40555028  0.61186790  0.05121160  1
  F  F14  1  0.40555028  0.88813210  0.55121160  1
  F  F15  1  0.59444972  0.38813210  0.94878840  1
  F  F16  1  0.59504968  0.10900175  0.14975478  1
  F  F17  1  0.40495032  0.60900175  0.35024522  1
  F  F18  1  0.40495032  0.89099825  0.85024522  1
  F  F19  1  0.59504968  0.39099825  0.64975478  1
  F  F20  1  0.56947519  0.87509530  0.28912570  1
  F  F21  1  0.43052481  0.37509530  0.21087430  1
  F  F22  1  0.43052481  0.12490470  0.71087430  1
  F  F23  1  0.56947519  0.62490470  0.78912570  1
loop_
_geom_bond_atom_site_label_1
_geom_bond_atom_site_label_2
_geom_bond_distance
_geom_bond_site_symmetry_2
Ag0 P2 2.375828 1_545
Ag0 P0 2.375828 1_455
Ag1 P1 2.375828 1_555
Ag1 P3 2.375828 1_454
F0 Nb0 1.930348 1_555
F1 Nb1 1.930348 1_666
F2 Nb0 1.930348 1_655
F3 Nb1 1.930348 1_555
F4 Nb0 1.931397 1_555
F5 Nb1 1.931397 1_665
F6 Nb0 1.931397 1_655
F7 Nb1 1.931397 1_556
F8 Nb0 1.934837 1_555
F9 Nb1 1.934837 1_656
F10 Nb0 1.934837 1_655
F11 Nb1 1.934837 1_565
F12 P0 1.543715 1_555
F13 P1 1.543715 1_555
F14 P2 1.543715 1_555
F15 P3 1.543715 1_555
F16 P0 1.544605 1_555
F17 P1 1.544605 1_555
F18 P2 1.544605 1_555
F19 P3 1.544605 1_555
F20 P0 1.547123 1_565
F21 P1 1.547123 1_555
F22 P2 1.547123 1_545
F23 P3 1.547123 1_555
