# generated using pymatgen
data_Zn2SiO4
_symmetry_space_group_name_H-M   'P 1'
_cell_length_a   8.63505483
_cell_length_b   8.63505483
_cell_length_c   8.63505514
_cell_angle_alpha   107.86349873
_cell_angle_beta   107.86349868
_cell_angle_gamma   107.86349957
_symmetry_Int_Tables_number   1
_chemical_formula_structural   Zn2SiO4
_chemical_formula_sum   'Zn12 Si6 O24'
_cell_volume   523.07300911
_cell_formula_units_Z   6
loop_
 _symmetry_equiv_pos_site_id
 _symmetry_equiv_pos_as_xyz
  1  'x, y, z'
loop_
 _atom_site_type_symbol
 _atom_site_label
 _atom_site_symmetry_multiplicity
 _atom_site_fract_x
 _atom_site_fract_y
 _atom_site_fract_z
 _atom_site_occupancy
  Zn  Zn0  1  0.61042003  0.43941890  0.20456379  1
  Zn  Zn1  1  0.20456379  0.61042003  0.43941890  1
  Zn  Zn2  1  0.43941890  0.20456379  0.61042003  1
  Zn  Zn3  1  0.38957997  0.56058110  0.79543621  1
  Zn  Zn4  1  0.79543621  0.38957997  0.56058110  1
  Zn  Zn5  1  0.56058110  0.79543621  0.38957997  1
  Zn  Zn6  1  0.89951944  0.12513824  0.72242283  1
  Zn  Zn7  1  0.12513824  0.72242283  0.89951944  1
  Zn  Zn8  1  0.72242283  0.89951944  0.12513824  1
  Zn  Zn9  1  0.10048056  0.87486176  0.27757717  1
  Zn  Zn10  1  0.87486176  0.27757717  0.10048056  1
  Zn  Zn11  1  0.27757717  0.10048056  0.87486176  1
  Si  Si0  1  0.23481780  0.46028532  0.05344398  1
  Si  Si1  1  0.46028532  0.05344398  0.23481780  1
  Si  Si2  1  0.05344398  0.23481780  0.46028532  1
  Si  Si3  1  0.76518220  0.53971468  0.94655602  1
  Si  Si4  1  0.53971468  0.94655602  0.76518220  1
  Si  Si5  1  0.94655602  0.76518220  0.53971468  1
  O  O0  1  0.36066366  0.35401345  0.03386319  1
  O  O1  1  0.03386319  0.36066366  0.35401345  1
  O  O2  1  0.35401345  0.03386319  0.36066366  1
  O  O3  1  0.63933634  0.64598655  0.96613681  1
  O  O4  1  0.96613681  0.63933634  0.64598655  1
  O  O5  1  0.64598655  0.96613681  0.63933634  1
  O  O6  1  0.73291075  0.68758140  0.39993754  1
  O  O7  1  0.39993754  0.73291075  0.68758140  1
  O  O8  1  0.68758140  0.39993754  0.73291075  1
  O  O9  1  0.26708925  0.31241860  0.60006246  1
  O  O10  1  0.60006246  0.26708925  0.31241860  1
  O  O11  1  0.31241860  0.60006246  0.26708925  1
  O  O12  1  0.02576172  0.97308268  0.69072583  1
  O  O13  1  0.69072583  0.02576172  0.97308268  1
  O  O14  1  0.97308268  0.69072583  0.02576172  1
  O  O15  1  0.97423828  0.02691732  0.30927417  1
  O  O16  1  0.30927417  0.97423828  0.02691732  1
  O  O17  1  0.02691732  0.30927417  0.97423828  1
  O  O18  1  0.24865985  0.57305330  0.93322315  1
  O  O19  1  0.57305330  0.93322315  0.24865985  1
  O  O20  1  0.93322315  0.24865985  0.57305330  1
  O  O21  1  0.75134015  0.42694670  0.06677685  1
  O  O22  1  0.42694670  0.06677685  0.75134015  1
  O  O23  1  0.06677685  0.75134015  0.42694670  1
loop_
_geom_bond_atom_site_label_1
_geom_bond_atom_site_label_2
_geom_bond_distance
_geom_bond_site_symmetry_2
O0 Si0 1.637347 1_555
O0 Zn0 1.942886 1_555
O0 Zn11 1.944400 1_554
O1 Si2 1.637347 1_555
O1 Zn1 1.942886 1_555
O1 Zn10 1.944401 1_455
O2 Si1 1.637347 1_555
O2 Zn2 1.942886 1_555
O2 Zn9 1.944400 1_545
O3 Si3 1.637347 1_555
O3 Zn3 1.942886 1_555
O3 Zn8 1.944400 1_556
O4 Si5 1.637347 1_555
O4 Zn4 1.942886 1_555
O4 Zn7 1.944401 1_655
O5 Si4 1.637347 1_555
O5 Zn5 1.942886 1_555
O5 Zn6 1.944400 1_565
O6 Si5 1.639689 1_555
O6 Zn0 1.963091 1_555
O6 Zn5 1.977232 1_555
O7 Si4 1.639689 1_555
O7 Zn1 1.963091 1_555
O7 Zn3 1.977232 1_555
O8 Si3 1.639689 1_555
O8 Zn2 1.963091 1_555
O8 Zn4 1.977232 1_555
O9 Si2 1.639689 1_555
O9 Zn3 1.963091 1_555
O9 Zn2 1.977232 1_555
O10 Si1 1.639689 1_555
O10 Zn4 1.963091 1_555
O10 Zn0 1.977232 1_555
O11 Si0 1.639689 1_555
O11 Zn5 1.963091 1_555
O11 Zn1 1.977232 1_555
O12 Si5 1.629236 1_455
O12 Zn11 1.950585 1_565
O12 Zn6 1.956510 1_465
O13 Si4 1.629236 1_545
O13 Zn10 1.950585 1_556
O13 Zn8 1.956510 1_546
O14 Si3 1.629236 1_554
O14 Zn9 1.950585 1_655
O14 Zn7 1.956510 1_654
O15 Si2 1.629236 1_655
O15 Zn8 1.950585 1_545
O15 Zn9 1.956510 1_645
O16 Si1 1.629236 1_565
O16 Zn7 1.950585 1_554
O16 Zn11 1.956510 1_564
O17 Si0 1.629236 1_556
O17 Zn6 1.950585 1_455
O17 Zn10 1.956510 1_456
O18 Si0 1.632501 1_556
O18 Zn7 1.941612 1_555
O18 Zn3 1.948838 1_555
O19 Si1 1.632501 1_565
O19 Zn8 1.941612 1_555
O19 Zn5 1.948838 1_555
O20 Si2 1.632501 1_655
O20 Zn6 1.941612 1_555
O20 Zn4 1.948838 1_555
O21 Si3 1.632501 1_554
O21 Zn10 1.941612 1_555
O21 Zn0 1.948838 1_555
O22 Si4 1.632501 1_545
O22 Zn11 1.941612 1_555
O22 Zn2 1.948838 1_555
O23 Si5 1.632501 1_455
O23 Zn9 1.941612 1_555
O23 Zn1 1.948838 1_555
