# generated using pymatgen
data_LiIr3
_symmetry_space_group_name_H-M   'P 1'
_cell_length_a   5.36698083
_cell_length_b   9.33222877
_cell_length_c   10.25758660
_cell_angle_alpha   117.03557232
_cell_angle_beta   105.20465338
_cell_angle_gamma   89.99296637
_symmetry_Int_Tables_number   1
_chemical_formula_structural   LiIr3
_chemical_formula_sum   'Li8 Ir24'
_cell_volume   437.34110360
_cell_formula_units_Z   8
loop_
 _symmetry_equiv_pos_site_id
 _symmetry_equiv_pos_as_xyz
  1  'x, y, z'
loop_
 _atom_site_type_symbol
 _atom_site_label
 _atom_site_symmetry_multiplicity
 _atom_site_fract_x
 _atom_site_fract_y
 _atom_site_fract_z
 _atom_site_occupancy
  Li  Li0_0  1  0.49935686  0.00832390  0.00008200  1
  Li  Li0_1  1  0.49935686  0.00832390  0.50008200  1
  Li  Li0_2  1  0.49935686  0.50832390  0.00008199  1
  Li  Li0_3  1  0.49935686  0.50832390  0.50008199  1
  Li  Li0_4  1  0.99935686  0.00832390  0.00008200  1
  Li  Li0_5  1  0.99935686  0.00832390  0.50008199  1
  Li  Li0_6  1  0.99935685  0.50832390  0.00008199  1
  Li  Li0_7  1  0.99935686  0.50832390  0.50008199  1
  Ir  Ir0_0  1  0.12052172  0.46677231  0.24026993  1
  Ir  Ir0_1  1  0.12052172  0.46677231  0.74026993  1
  Ir  Ir0_2  1  0.12052172  0.96677231  0.24026993  1
  Ir  Ir0_3  1  0.12052173  0.96677231  0.74026993  1
  Ir  Ir0_4  1  0.62052173  0.46677231  0.24026993  1
  Ir  Ir0_5  1  0.62052173  0.46677231  0.74026993  1
  Ir  Ir0_6  1  0.62052173  0.96677231  0.24026993  1
  Ir  Ir0_7  1  0.62052173  0.96677231  0.74026993  1
  Ir  Ir1_0  1  0.37983948  0.22644635  0.25967520  1
  Ir  Ir1_1  1  0.37983947  0.22644635  0.75967520  1
  Ir  Ir1_2  1  0.37983948  0.72644635  0.25967520  1
  Ir  Ir1_3  1  0.37983948  0.72644635  0.75967520  1
  Ir  Ir1_4  1  0.87983948  0.22644635  0.25967520  1
  Ir  Ir1_5  1  0.87983948  0.22644635  0.75967520  1
  Ir  Ir1_6  1  0.87983948  0.72644635  0.25967520  1
  Ir  Ir1_7  1  0.87983948  0.72644635  0.75967520  1
  Ir  Ir2_0  1  0.25028294  0.25045744  0.99997188  1
  Ir  Ir2_1  1  0.25028294  0.25045744  0.49997188  1
  Ir  Ir2_2  1  0.25028294  0.75045744  0.99997188  1
  Ir  Ir2_3  1  0.25028294  0.75045744  0.49997188  1
  Ir  Ir2_4  1  0.75028294  0.25045744  0.99997188  1
  Ir  Ir2_5  1  0.75028294  0.25045744  0.49997188  1
  Ir  Ir2_6  1  0.75028294  0.75045744  0.99997188  1
  Ir  Ir2_7  1  0.75028294  0.75045744  0.49997188  1
loop_
_geom_bond_atom_site_label_1
_geom_bond_atom_site_label_2
_geom_bond_distance
_geom_bond_site_symmetry_2
Li0_0 Li0_4 2.683490 1_455
Li0_0 Li0_4 2.683490 1_555
Li0_1 Li0_5 2.683490 1_455
Li0_1 Li0_5 2.683490 1_555
Li0_2 Li0_6 2.683490 1_555
Li0_2 Li0_6 2.683490 1_455
Li0_3 Li0_7 2.683490 1_455
Li0_3 Li0_7 2.683490 1_555
Ir0_0 Li0_6 2.582898 1_455
Ir0_0 Ir2_4 2.647187 1_454
Ir0_0 Ir2_0 2.648089 1_554
Ir0_0 Ir0_4 2.683490 1_455
Ir0_0 Ir0_4 2.683490 1_555
Ir0_0 Ir2_3 2.684447 1_555
Ir0_0 Ir1_2 2.695582 1_555
Ir0_0 Ir1_0 2.695628 1_555
Ir0_0 Ir1_6 2.697472 1_455
Ir0_0 Ir1_4 2.698087 1_455
Ir0_0 Li0_3 2.757758 1_555
Ir0_0 Li0_7 2.764999 1_455
Ir0_1 Li0_7 2.582898 1_455
Ir0_1 Ir2_5 2.647187 1_455
Ir0_1 Ir2_1 2.648089 1_555
Ir0_1 Ir0_5 2.683490 1_455
Ir0_1 Ir0_5 2.683490 1_555
Ir0_1 Ir2_2 2.684447 1_555
Ir0_1 Ir1_3 2.695582 1_555
Ir0_1 Ir1_1 2.695628 1_555
Ir0_1 Ir1_7 2.697472 1_455
Ir0_1 Ir1_5 2.698087 1_455
Ir0_1 Li0_2 2.757758 1_556
Ir0_1 Li0_6 2.764999 1_456
Ir0_2 Li0_4 2.582898 1_465
Ir0_2 Ir2_6 2.647187 1_454
Ir0_2 Ir2_2 2.648089 1_554
Ir0_2 Ir0_6 2.683490 1_455
Ir0_2 Ir0_6 2.683490 1_555
Ir0_2 Ir2_1 2.684447 1_565
Ir0_2 Ir1_0 2.695582 1_565
Ir0_2 Ir1_2 2.695628 1_555
Ir0_2 Ir1_4 2.697472 1_465
Ir0_2 Ir1_6 2.698087 1_455
Ir0_2 Li0_1 2.757758 1_565
Ir0_2 Li0_5 2.764999 1_465
Ir0_3 Li0_5 2.582898 1_465
Ir0_3 Ir2_7 2.647187 1_455
Ir0_3 Ir2_3 2.648089 1_555
Ir0_3 Ir0_7 2.683490 1_555
Ir0_3 Ir0_7 2.683490 1_455
Ir0_3 Ir2_0 2.684447 1_565
Ir0_3 Ir1_1 2.695582 1_565
Ir0_3 Ir1_3 2.695628 1_555
Ir0_3 Ir1_5 2.697472 1_465
Ir0_3 Ir1_7 2.698087 1_455
Ir0_3 Li0_0 2.757758 1_566
Ir0_3 Li0_4 2.764999 1_466
Ir0_4 Li0_2 2.582898 1_555
Ir0_4 Ir2_0 2.647187 1_554
Ir0_4 Ir2_4 2.648089 1_554
Ir0_4 Ir2_7 2.684447 1_555
Ir0_4 Ir1_6 2.695582 1_555
Ir0_4 Ir1_4 2.695628 1_555
Ir0_4 Ir1_2 2.697472 1_555
Ir0_4 Ir1_0 2.698087 1_555
Ir0_4 Li0_7 2.757758 1_555
Ir0_4 Li0_3 2.764999 1_555
Ir0_5 Li0_3 2.582898 1_555
Ir0_5 Ir2_1 2.647187 1_555
Ir0_5 Ir2_5 2.648089 1_555
Ir0_5 Ir2_6 2.684447 1_555
Ir0_5 Ir1_7 2.695582 1_555
Ir0_5 Ir1_5 2.695628 1_555
Ir0_5 Ir1_3 2.697472 1_555
Ir0_5 Ir1_1 2.698087 1_555
Ir0_5 Li0_6 2.757758 1_556
Ir0_5 Li0_2 2.764999 1_556
Ir0_6 Li0_0 2.582898 1_565
Ir0_6 Ir2_2 2.647187 1_554
Ir0_6 Ir2_6 2.648089 1_554
Ir0_6 Ir2_5 2.684447 1_565
Ir0_6 Ir1_4 2.695582 1_565
Ir0_6 Ir1_6 2.695628 1_555
Ir0_6 Ir1_0 2.697472 1_565
Ir0_6 Ir1_2 2.698087 1_555
Ir0_6 Li0_5 2.757758 1_565
Ir0_6 Li0_1 2.764999 1_565
Ir0_7 Li0_1 2.582898 1_565
Ir0_7 Ir2_3 2.647187 1_555
Ir0_7 Ir2_7 2.648089 1_555
Ir0_7 Ir2_4 2.684447 1_565
Ir0_7 Ir1_5 2.695582 1_565
Ir0_7 Ir1_7 2.695628 1_555
Ir0_7 Ir1_1 2.697472 1_565
Ir0_7 Ir1_3 2.698087 1_555
Ir0_7 Li0_4 2.757758 1_566
Ir0_7 Li0_0 2.764999 1_566
Ir1_0 Li0_3 2.585708 1_555
Ir1_0 Ir2_5 2.646894 1_555
Ir1_0 Ir2_1 2.646903 1_555
Ir1_0 Ir1_4 2.683490 1_455
Ir1_0 Ir1_4 2.683490 1_555
Ir1_0 Ir2_0 2.683511 1_554
Ir1_0 Li0_0 2.759270 1_555
Ir1_0 Li0_4 2.761391 1_455
Ir1_1 Li0_2 2.585708 1_556
Ir1_1 Ir2_4 2.646894 1_555
Ir1_1 Ir2_0 2.646903 1_555
Ir1_1 Ir1_5 2.683490 1_455
Ir1_1 Ir1_5 2.683490 1_555
Ir1_1 Ir2_1 2.683511 1_555
Ir1_1 Li0_1 2.759270 1_555
Ir1_1 Li0_5 2.761391 1_455
Ir1_2 Li0_1 2.585708 1_565
Ir1_2 Ir2_7 2.646894 1_555
Ir1_2 Ir2_3 2.646903 1_555
Ir1_2 Ir1_6 2.683490 1_455
Ir1_2 Ir1_6 2.683490 1_555
Ir1_2 Ir2_2 2.683511 1_554
Ir1_2 Li0_2 2.759270 1_555
Ir1_2 Li0_6 2.761391 1_455
Ir1_3 Li0_0 2.585708 1_566
Ir1_3 Ir2_6 2.646894 1_555
Ir1_3 Ir2_2 2.646903 1_555
Ir1_3 Ir1_7 2.683490 1_455
Ir1_3 Ir1_7 2.683490 1_555
Ir1_3 Ir2_3 2.683511 1_555
Ir1_3 Li0_3 2.759270 1_555
Ir1_3 Li0_7 2.761391 1_455
Ir1_4 Li0_7 2.585708 1_555
Ir1_4 Ir2_1 2.646894 1_655
Ir1_4 Ir2_5 2.646903 1_555
Ir1_4 Ir2_4 2.683511 1_554
Ir1_4 Li0_4 2.759270 1_555
Ir1_4 Li0_0 2.761391 1_555
Ir1_5 Li0_6 2.585708 1_556
Ir1_5 Ir2_0 2.646894 1_655
Ir1_5 Ir2_4 2.646903 1_555
Ir1_5 Ir2_5 2.683511 1_555
Ir1_5 Li0_5 2.759270 1_555
Ir1_5 Li0_1 2.761391 1_555
Ir1_6 Li0_5 2.585708 1_565
Ir1_6 Ir2_3 2.646894 1_655
Ir1_6 Ir2_7 2.646903 1_555
Ir1_6 Ir2_6 2.683511 1_554
Ir1_6 Li0_6 2.759270 1_555
Ir1_6 Li0_2 2.761391 1_555
Ir1_7 Li0_4 2.585708 1_566
Ir1_7 Ir2_2 2.646894 1_655
Ir1_7 Ir2_6 2.646903 1_555
Ir1_7 Ir2_7 2.683511 1_555
Ir1_7 Li0_7 2.759270 1_555
Ir1_7 Li0_3 2.761391 1_555
Ir2_0 Li0_0 2.625596 1_556
Ir2_0 Li0_4 2.631256 1_456
Ir2_0 Ir2_4 2.683490 1_455
Ir2_0 Ir2_4 2.683490 1_555
Ir2_0 Li0_2 2.752378 1_556
Ir2_0 Li0_6 2.757221 1_456
Ir2_1 Li0_1 2.625596 1_555
Ir2_1 Li0_5 2.631256 1_455
Ir2_1 Ir2_5 2.683490 1_455
Ir2_1 Ir2_5 2.683490 1_555
Ir2_1 Li0_3 2.752378 1_555
Ir2_1 Li0_7 2.757221 1_455
Ir2_2 Li0_2 2.625596 1_556
Ir2_2 Li0_6 2.631256 1_456
Ir2_2 Ir2_6 2.683490 1_455
Ir2_2 Ir2_6 2.683490 1_555
Ir2_2 Li0_0 2.752378 1_566
Ir2_2 Li0_4 2.757221 1_466
Ir2_3 Li0_3 2.625596 1_555
Ir2_3 Li0_7 2.631256 1_455
Ir2_3 Ir2_7 2.683490 1_555
Ir2_3 Ir2_7 2.683490 1_455
Ir2_3 Li0_1 2.752378 1_565
Ir2_3 Li0_5 2.757221 1_465
Ir2_4 Li0_4 2.625596 1_556
Ir2_4 Li0_0 2.631256 1_556
Ir2_4 Li0_6 2.752378 1_556
Ir2_4 Li0_2 2.757221 1_556
Ir2_5 Li0_5 2.625596 1_555
Ir2_5 Li0_1 2.631256 1_555
Ir2_5 Li0_7 2.752378 1_555
Ir2_5 Li0_3 2.757221 1_555
Ir2_6 Li0_6 2.625596 1_556
Ir2_6 Li0_2 2.631256 1_556
Ir2_6 Li0_4 2.752378 1_566
Ir2_6 Li0_0 2.757221 1_566
Ir2_7 Li0_7 2.625596 1_555
Ir2_7 Li0_3 2.631256 1_555
Ir2_7 Li0_5 2.752378 1_565
Ir2_7 Li0_1 2.757221 1_565
