# generated using pymatgen
data_Sr5Ca5(SnSb3)4
_symmetry_space_group_name_H-M   'P 1'
_cell_length_a   4.51932289
_cell_length_b   12.79580076
_cell_length_c   14.75231496
_cell_angle_alpha   90.06290562
_cell_angle_beta   90.00000000
_cell_angle_gamma   90.00000000
_symmetry_Int_Tables_number   1
_chemical_formula_structural   Sr5Ca5(SnSb3)4
_chemical_formula_sum   'Sr5 Ca5 Sn4 Sb12'
_cell_volume   853.10159647
_cell_formula_units_Z   1
loop_
 _symmetry_equiv_pos_site_id
 _symmetry_equiv_pos_as_xyz
  1  'x, y, z'
loop_
 _atom_site_type_symbol
 _atom_site_label
 _atom_site_symmetry_multiplicity
 _atom_site_fract_x
 _atom_site_fract_y
 _atom_site_fract_z
 _atom_site_occupancy
  Sr  Sr0  1  0.00000000  0.86721327  0.44238801  1
  Sr  Sr1  1  0.00000000  0.13278673  0.55761199  1
  Sr  Sr2  1  0.00000000  0.37069810  0.05938525  1
  Sr  Sr3  1  0.00000000  0.62930190  0.94061475  1
  Sr  Sr4  1  0.00000000  0.00000000  0.00000000  1
  Ca  Ca0  1  0.00000000  0.62764855  0.26525575  1
  Ca  Ca1  1  0.00000000  0.37235145  0.73474425  1
  Ca  Ca2  1  0.00000000  0.12877883  0.23751432  1
  Ca  Ca3  1  0.00000000  0.87122117  0.76248568  1
  Ca  Ca4  1  0.00000000  0.50000000  0.50000000  1
  Sn  Sn0  1  0.50000000  0.78465238  0.10790404  1
  Sn  Sn1  1  0.50000000  0.21534762  0.89209596  1
  Sn  Sn2  1  0.50000000  0.28595480  0.39212374  1
  Sn  Sn3  1  0.50000000  0.71404520  0.60787626  1
  Sb  Sb0  1  0.50000000  0.56497979  0.12571551  1
  Sb  Sb1  1  0.50000000  0.43502021  0.87428449  1
  Sb  Sb2  1  0.50000000  0.06535140  0.37649115  1
  Sb  Sb3  1  0.50000000  0.93464860  0.62350885  1
  Sb  Sb4  1  0.50000000  0.66311140  0.42019154  1
  Sb  Sb5  1  0.50000000  0.33688860  0.57980846  1
  Sb  Sb6  1  0.50000000  0.17242014  0.08291106  1
  Sb  Sb7  1  0.50000000  0.82757986  0.91708894  1
  Sb  Sb8  1  0.00000000  0.87418385  0.20351386  1
  Sb  Sb9  1  0.00000000  0.12581615  0.79648614  1
  Sb  Sb10  1  0.00000000  0.37643411  0.29927690  1
  Sb  Sb11  1  0.00000000  0.62356589  0.70072310  1
loop_
_geom_bond_atom_site_label_1
_geom_bond_atom_site_label_2
_geom_bond_distance
_geom_bond_site_symmetry_2
Ca0 Sb0 3.159601 1_455
Ca0 Sb0 3.159601 1_555
Ca0 Sb4 3.245605 1_455
Ca0 Sb4 3.245605 1_555
Ca0 Sb10 3.253979 1_555
Ca0 Sb8 3.284439 1_555
Ca1 Sb1 3.159601 1_455
Ca1 Sb1 3.159601 1_555
Ca1 Sb5 3.245605 1_455
Ca1 Sb5 3.245605 1_555
Ca1 Sb11 3.253979 1_555
Ca1 Sb9 3.284439 1_555
Ca2 Sb2 3.157827 1_555
Ca2 Sb2 3.157827 1_455
Ca2 Sb6 3.259226 1_555
Ca2 Sb6 3.259226 1_455
Ca2 Sb8 3.295590 1_545
Ca2 Sb10 3.296372 1_555
Ca3 Sb3 3.157827 1_455
Ca3 Sb3 3.157827 1_555
Ca3 Sb7 3.259226 1_455
Ca3 Sb7 3.259226 1_555
Ca3 Sb9 3.295590 1_565
Ca3 Sb11 3.296372 1_555
Ca4 Sb4 3.294510 1_455
Ca4 Sb4 3.294510 1_555
Ca4 Sb5 3.294510 1_455
Ca4 Sb5 3.294510 1_555
Ca4 Sb11 3.355289 1_555
Ca4 Sb10 3.355289 1_555
Sb0 Sn0 2.823429 1_555
Sb0 Sr2 3.498340 1_555
Sb0 Sr2 3.498340 1_655
Sb0 Sr3 3.639361 1_654
Sb0 Sr3 3.639361 1_554
Sb1 Sn1 2.823429 1_555
Sb1 Sr3 3.498340 1_555
Sb1 Sr3 3.498340 1_655
Sb1 Sr2 3.639361 1_556
Sb1 Sr2 3.639361 1_656
Sb2 Sn2 2.831950 1_555
Sb2 Sr0 3.533334 1_645
Sb2 Sr0 3.533334 1_545
Sb2 Sr1 3.603458 1_655
Sb2 Sr1 3.603458 1_555
Sb3 Sn3 2.831950 1_555
Sb3 Sr1 3.533334 1_565
Sb3 Sr1 3.533334 1_665
Sb3 Sr0 3.603458 1_655
Sb3 Sr0 3.603458 1_555
Sb4 Sn3 2.843759 1_555
Sb4 Sr0 3.468734 1_655
Sb4 Sr0 3.468734 1_555
Sb5 Sn2 2.843759 1_555
Sb5 Sr1 3.468734 1_555
Sb5 Sr1 3.468734 1_655
Sb6 Sn1 2.868648 1_554
Sb6 Sr4 3.385816 1_555
Sb6 Sr4 3.385816 1_655
Sb6 Sr2 3.415473 1_555
Sb6 Sr2 3.415473 1_655
Sb7 Sn0 2.868648 1_556
Sb7 Sr4 3.385816 1_666
Sb7 Sr4 3.385816 1_566
Sb7 Sr3 3.415473 1_555
Sb7 Sr3 3.415473 1_655
Sb8 Sn0 2.899034 1_555
Sb8 Sn0 2.899034 1_455
Sb8 Sr4 3.408263 1_565
Sb8 Sr0 3.525173 1_555
Sb9 Sn1 2.899034 1_455
Sb9 Sn1 2.899034 1_555
Sb9 Sr4 3.408263 1_556
Sb9 Sr1 3.525173 1_555
Sb10 Sn2 2.885488 1_455
Sb10 Sn2 2.885488 1_555
Sb10 Sr2 3.539638 1_555
Sb11 Sn3 2.885488 1_555
Sb11 Sn3 2.885488 1_455
Sb11 Sr3 3.539638 1_555
