# generated using pymatgen
data_K10Ti4Zn4S17
_symmetry_space_group_name_H-M   'P 1'
_cell_length_a   9.82892914
_cell_length_b   9.82892886
_cell_length_c   9.82895424
_cell_angle_alpha   89.42786329
_cell_angle_beta   89.42786778
_cell_angle_gamma   89.42773924
_symmetry_Int_Tables_number   1
_chemical_formula_structural   K10Ti4Zn4S17
_chemical_formula_sum   'K10 Ti4 Zn4 S17'
_cell_volume   949.41298525
_cell_formula_units_Z   1
loop_
 _symmetry_equiv_pos_site_id
 _symmetry_equiv_pos_as_xyz
  1  'x, y, z'
loop_
 _atom_site_type_symbol
 _atom_site_label
 _atom_site_symmetry_multiplicity
 _atom_site_fract_x
 _atom_site_fract_y
 _atom_site_fract_z
 _atom_site_occupancy
  K  K0  1  0.99924976  0.99924976  0.49926431  1
  K  K1  1  0.49927217  0.99927363  0.99927412  1
  K  K2  1  0.99927363  0.49927217  0.99927412  1
  K  K3  1  0.49792333  0.96791644  0.49792642  1
  K  K4  1  0.49792420  0.49792420  0.96791569  1
  K  K5  1  0.96791644  0.49792333  0.49792642  1
  K  K6  1  0.66143165  0.32725937  0.32725639  1
  K  K7  1  0.32725937  0.66143165  0.32725639  1
  K  K8  1  0.32725279  0.32725279  0.66142253  1
  K  K9  1  0.67541034  0.67541034  0.67538612  1
  Ti  Ti0  1  0.21767255  0.21767255  0.21767463  1
  Ti  Ti1  1  0.22248729  0.77860618  0.77860756  1
  Ti  Ti2  1  0.77861032  0.77861032  0.22248283  1
  Ti  Ti3  1  0.77860618  0.22248729  0.77860756  1
  Zn  Zn0  1  0.86403292  0.13406096  0.13406202  1
  Zn  Zn1  1  0.13406096  0.86403292  0.13406202  1
  Zn  Zn2  1  0.13406081  0.13406081  0.86403427  1
  Zn  Zn3  1  0.86569122  0.86569122  0.86569448  1
  S  S0  1  0.99901724  0.99901724  0.99901847  1
  S  S1  1  0.34530303  0.34530303  0.34529970  1
  S  S2  1  0.35790933  0.65158640  0.65158796  1
  S  S3  1  0.65159219  0.65159219  0.35790318  1
  S  S4  1  0.65158640  0.35790933  0.65158796  1
  S  S5  1  0.27160591  0.99506035  0.27160732  1
  S  S6  1  0.27160335  0.27160335  0.99506591  1
  S  S7  1  0.99506035  0.27160591  0.27160732  1
  S  S8  1  0.27359826  0.00053909  0.72509763  1
  S  S9  1  0.27359698  0.72509363  0.00054047  1
  S  S10  1  0.00090384  0.72630515  0.72630728  1
  S  S11  1  0.72509698  0.00054301  0.27359821  1
  S  S12  1  0.72630532  0.72630532  0.00090314  1
  S  S13  1  0.00054301  0.72509698  0.27359821  1
  S  S14  1  0.72630515  0.00090384  0.72630728  1
  S  S15  1  0.72509363  0.27359698  0.00054047  1
  S  S16  1  0.00053909  0.27359826  0.72509763  1
loop_
_geom_bond_atom_site_label_1
_geom_bond_atom_site_label_2
_geom_bond_distance
_geom_bond_site_symmetry_2
K0 S7 3.472011 1_565
K0 S5 3.472011 1_655
K0 S10 3.472425 1_655
K0 S14 3.472425 1_565
K0 S11 3.507007 1_565
K0 S13 3.507007 1_655
K0 S8 3.509904 1_665
K0 S16 3.509904 1_665
K1 S6 3.471881 1_565
K1 S5 3.471901 1_556
K1 S14 3.472531 1_565
K1 S12 3.472534 1_556
K1 S8 3.507241 1_565
K1 S9 3.507274 1_556
K1 S15 3.509634 1_566
K1 S11 3.509663 1_566
K2 S6 3.471881 1_655
K2 S7 3.471901 1_556
K2 S10 3.472531 1_655
K2 S12 3.472534 1_556
K2 S16 3.507241 1_655
K2 S15 3.507274 1_556
K2 S9 3.509634 1_656
K2 S13 3.509663 1_656
K3 S8 3.138756 1_565
K3 S11 3.138799 1_565
K3 S5 3.169041 1_555
K3 S14 3.211325 1_565
K4 S15 3.138753 1_556
K4 S9 3.138753 1_556
K4 S6 3.169081 1_555
K4 S12 3.211321 1_556
K5 S16 3.138756 1_655
K5 S13 3.138799 1_655
K5 S7 3.169041 1_555
K5 S10 3.211325 1_655
K6 S1 3.113880 1_555
K6 S3 3.205445 1_555
K6 S4 3.205445 1_555
K6 S11 3.311962 1_555
K6 S15 3.311968 1_555
K6 S7 3.359459 1_555
K7 S1 3.113880 1_555
K7 S3 3.205445 1_555
K7 S2 3.205445 1_555
K7 S13 3.311962 1_555
K7 S9 3.311968 1_555
K7 S5 3.359459 1_555
K8 S1 3.113838 1_555
K8 S2 3.205463 1_555
K8 S4 3.205463 1_555
K8 S8 3.311950 1_555
K8 S16 3.311950 1_555
K8 S6 3.359603 1_555
K9 S3 3.142859 1_555
K9 S4 3.143016 1_555
K9 S2 3.143017 1_555
K9 S14 3.287082 1_565
K9 S10 3.287082 1_655
K9 S12 3.287273 1_556
S0 Zn1 2.291015 1_656
S0 Zn0 2.291015 1_566
S0 Zn2 2.291017 1_665
S0 Zn3 2.292314 1_555
S1 Ti0 2.194369 1_555
S2 Ti1 2.203134 1_555
S3 Ti2 2.203110 1_555
S4 Ti3 2.203134 1_555
S5 Ti0 2.304087 1_565
S5 Zn1 2.328094 1_555
S6 Ti0 2.304051 1_556
S6 Zn2 2.328088 1_555
S7 Ti0 2.304087 1_655
S7 Zn0 2.328094 1_555
S8 Ti1 2.298050 1_545
S8 Zn2 2.330376 1_555
S9 Ti1 2.298057 1_554
S9 Zn1 2.330382 1_555
S10 Ti1 2.306921 1_555
S10 Zn3 2.341988 1_455
S11 Ti2 2.298063 1_545
S11 Zn0 2.330348 1_555
S12 Ti2 2.306911 1_555
S12 Zn3 2.341961 1_554
S13 Ti2 2.298063 1_455
S13 Zn1 2.330348 1_555
S14 Ti3 2.306921 1_555
S14 Zn3 2.341988 1_545
S15 Ti3 2.298057 1_554
S15 Zn0 2.330382 1_555
S16 Ti3 2.298051 1_455
S16 Zn2 2.330376 1_555
