# generated using pymatgen
data_ScNiBi
_symmetry_space_group_name_H-M   'P 1'
_cell_length_a   4.40002879
_cell_length_b   4.40002790
_cell_length_c   4.40002842
_cell_angle_alpha   59.99998844
_cell_angle_beta   59.99999510
_cell_angle_gamma   59.99999450
_symmetry_Int_Tables_number   1
_chemical_formula_structural   ScNiBi
_chemical_formula_sum   'Sc1 Ni1 Bi1'
_cell_volume   60.23533920
_cell_formula_units_Z   1
loop_
 _symmetry_equiv_pos_site_id
 _symmetry_equiv_pos_as_xyz
  1  'x, y, z'
loop_
 _atom_site_type_symbol
 _atom_site_label
 _atom_site_symmetry_multiplicity
 _atom_site_fract_x
 _atom_site_fract_y
 _atom_site_fract_z
 _atom_site_occupancy
  Sc  Sc0  1  0.50000000  0.50000000  0.50000000  1
  Ni  Ni0  1  0.25000000  0.25000000  0.25000000  1
  Bi  Bi0  1  -0.00000000  0.00000000  0.00000000  1
loop_
_geom_bond_atom_site_label_1
_geom_bond_atom_site_label_2
_geom_bond_distance
_geom_bond_site_symmetry_2
Ni0 Sc0 2.694455 1_545
Ni0 Sc0 2.694456 1_554
Ni0 Sc0 2.694456 1_455
Ni0 Sc0 2.694456 1_555
Bi0 Ni0 2.694455 1_545
Bi0 Ni0 2.694456 1_554
Bi0 Ni0 2.694456 1_455
Bi0 Ni0 2.694456 1_555
Bi0 Sc0 3.111290 1_445
Bi0 Sc0 3.111290 1_554
Bi0 Sc0 3.111290 1_455
Bi0 Sc0 3.111290 1_454
Bi0 Sc0 3.111290 1_544
Bi0 Sc0 3.111290 1_545
