# generated using pymatgen
data_ZrTaBRh6
_symmetry_space_group_name_H-M   'P 1'
_cell_length_a   5.63175681
_cell_length_b   5.63175623
_cell_length_c   5.63175642
_cell_angle_alpha   59.99999886
_cell_angle_beta   60.00000228
_cell_angle_gamma   59.99999810
_symmetry_Int_Tables_number   1
_chemical_formula_structural   ZrTaBRh6
_chemical_formula_sum   'Zr1 Ta1 B1 Rh6'
_cell_volume   126.30385426
_cell_formula_units_Z   1
loop_
 _symmetry_equiv_pos_site_id
 _symmetry_equiv_pos_as_xyz
  1  'x, y, z'
loop_
 _atom_site_type_symbol
 _atom_site_label
 _atom_site_symmetry_multiplicity
 _atom_site_fract_x
 _atom_site_fract_y
 _atom_site_fract_z
 _atom_site_occupancy
  Zr  Zr0  1  0.25000000  0.25000000  0.25000000  1
  Ta  Ta0  1  0.75000000  0.75000000  0.75000000  1
  B  B0  1  0.50000000  0.50000000  0.50000000  1
  Rh  Rh0  1  0.75704190  0.75704190  0.24295810  1
  Rh  Rh1  1  0.75704190  0.24295810  0.24295810  1
  Rh  Rh2  1  0.24295810  0.75704190  0.24295810  1
  Rh  Rh3  1  0.24295810  0.24295810  0.75704190  1
  Rh  Rh4  1  0.75704190  0.24295810  0.75704190  1
  Rh  Rh5  1  0.24295810  0.75704190  0.75704190  1
loop_
_geom_bond_atom_site_label_1
_geom_bond_atom_site_label_2
_geom_bond_distance
_geom_bond_site_symmetry_2
B0 Rh5 2.047212 1_555
B0 Rh4 2.047212 1_555
B0 Rh1 2.047212 1_555
B0 Rh2 2.047212 1_555
B0 Rh0 2.047212 1_555
B0 Rh3 2.047212 1_555
Rh0 Zr0 2.816437 1_655
Rh0 Zr0 2.816437 1_565
Rh0 Ta0 2.816437 1_554
Rh0 Ta0 2.816437 1_555
Rh1 Ta0 2.816437 1_554
Rh1 Ta0 2.816437 1_545
Rh1 Zr0 2.816437 1_655
Rh1 Zr0 2.816437 1_555
Rh2 Zr0 2.816437 1_555
Rh2 Zr0 2.816437 1_565
Rh2 Ta0 2.816437 1_455
Rh2 Ta0 2.816437 1_554
Rh3 Ta0 2.816437 1_455
Rh3 Ta0 2.816437 1_545
Rh3 Zr0 2.816437 1_555
Rh3 Zr0 2.816437 1_556
Rh4 Ta0 2.816437 1_555
Rh4 Ta0 2.816437 1_545
Rh4 Zr0 2.816437 1_655
Rh4 Zr0 2.816437 1_556
Rh5 Zr0 2.816437 1_556
Rh5 Zr0 2.816437 1_565
Rh5 Ta0 2.816437 1_455
Rh5 Ta0 2.816437 1_555
