# generated using pymatgen
data_LiHfAlIr
_symmetry_space_group_name_H-M   'P 1'
_cell_length_a   4.42258641
_cell_length_b   4.42258670
_cell_length_c   4.42258613
_cell_angle_alpha   59.99999693
_cell_angle_beta   59.99999474
_cell_angle_gamma   59.99999444
_symmetry_Int_Tables_number   1
_chemical_formula_structural   LiHfAlIr
_chemical_formula_sum   'Li1 Hf1 Al1 Ir1'
_cell_volume   61.16654347
_cell_formula_units_Z   1
loop_
 _symmetry_equiv_pos_site_id
 _symmetry_equiv_pos_as_xyz
  1  'x, y, z'
loop_
 _atom_site_type_symbol
 _atom_site_label
 _atom_site_symmetry_multiplicity
 _atom_site_fract_x
 _atom_site_fract_y
 _atom_site_fract_z
 _atom_site_occupancy
  Li  Li0  1  0.25000000  0.25000000  0.25000000  1
  Hf  Hf0  1  0.00000000  0.00000000  0.00000000  1
  Al  Al0  1  0.50000000  0.50000000  0.50000000  1
  Ir  Ir0  1  0.75000000  0.75000000  0.75000000  1
loop_
_geom_bond_atom_site_label_1
_geom_bond_atom_site_label_2
_geom_bond_distance
_geom_bond_site_symmetry_2
Hf0 Li0 2.708270 1_554
Hf0 Ir0 2.708270 1_445
Hf0 Li0 2.708270 1_455
Hf0 Ir0 2.708270 1_544
Hf0 Li0 2.708270 1_545
Hf0 Ir0 2.708270 1_454
Hf0 Ir0 2.708270 1_444
Hf0 Li0 2.708270 1_555
Al0 Li0 2.708270 1_556
Al0 Ir0 2.708270 1_554
Al0 Ir0 2.708270 1_455
Al0 Li0 2.708270 1_655
Al0 Ir0 2.708270 1_545
Al0 Li0 2.708270 1_565
Al0 Ir0 2.708270 1_555
Al0 Li0 2.708270 1_555
