# generated using pymatgen
data_Ca2HgSb2
_symmetry_space_group_name_H-M   'P 1'
_cell_length_a   4.60817322
_cell_length_b   7.36184925
_cell_length_c   17.56511830
_cell_angle_alpha   90.00000000
_cell_angle_beta   90.00000000
_cell_angle_gamma   90.00000000
_symmetry_Int_Tables_number   1
_chemical_formula_structural   Ca2HgSb2
_chemical_formula_sum   'Ca8 Hg4 Sb8'
_cell_volume   595.89095685
_cell_formula_units_Z   4
loop_
 _symmetry_equiv_pos_site_id
 _symmetry_equiv_pos_as_xyz
  1  'x, y, z'
loop_
 _atom_site_type_symbol
 _atom_site_label
 _atom_site_symmetry_multiplicity
 _atom_site_fract_x
 _atom_site_fract_y
 _atom_site_fract_z
 _atom_site_occupancy
  Ca  Ca0  1  0.75000000  0.79121529  0.44560229  1
  Ca  Ca1  1  0.25000000  0.70878471  0.94560229  1
  Ca  Ca2  1  0.25000000  0.53415583  0.72775495  1
  Ca  Ca3  1  0.75000000  0.96584417  0.22775495  1
  Ca  Ca4  1  0.75000000  0.29121529  0.05439771  1
  Ca  Ca5  1  0.25000000  0.20878471  0.55439771  1
  Ca  Ca6  1  0.75000000  0.46584417  0.27224505  1
  Ca  Ca7  1  0.25000000  0.03415583  0.77224505  1
  Hg  Hg0  1  0.25000000  0.63391202  0.14974993  1
  Hg  Hg1  1  0.75000000  0.86608798  0.64974993  1
  Hg  Hg2  1  0.75000000  0.36608798  0.85025007  1
  Hg  Hg3  1  0.25000000  0.13391202  0.35025007  1
  Sb  Sb0  1  0.75000000  0.25545032  0.68294896  1
  Sb  Sb1  1  0.25000000  0.74454968  0.31705104  1
  Sb  Sb2  1  0.25000000  0.24454968  0.18294896  1
  Sb  Sb3  1  0.75000000  0.76353466  0.07025210  1
  Sb  Sb4  1  0.75000000  0.75545032  0.81705104  1
  Sb  Sb5  1  0.25000000  0.23646534  0.92974790  1
  Sb  Sb6  1  0.75000000  0.26353466  0.42974790  1
  Sb  Sb7  1  0.25000000  0.73646534  0.57025210  1
loop_
_geom_bond_atom_site_label_1
_geom_bond_atom_site_label_2
_geom_bond_distance
_geom_bond_site_symmetry_2
Ca0 Sb7 3.203925 1_555
Ca0 Sb7 3.203925 1_655
Ca0 Sb1 3.244300 1_655
Ca0 Sb1 3.244300 1_555
Ca0 Sb6 3.488278 1_565
Ca0 Hg1 3.627994 1_555
Ca0 Hg3 3.805121 1_565
Ca0 Hg3 3.805121 1_665
Ca1 Sb3 3.203925 1_456
Ca1 Sb3 3.203925 1_556
Ca1 Sb4 3.244300 1_555
Ca1 Sb4 3.244300 1_455
Ca1 Sb5 3.488278 1_555
Ca1 Hg0 3.627994 1_556
Ca1 Hg2 3.805121 1_555
Ca1 Hg2 3.805121 1_455
Ca2 Sb7 3.141984 1_555
Ca2 Sb0 3.184031 1_555
Ca2 Sb0 3.184031 1_455
Ca2 Sb4 3.228480 1_455
Ca2 Sb4 3.228480 1_555
Ca2 Hg2 3.386630 1_455
Ca2 Hg2 3.386630 1_555
Ca2 Hg1 3.627330 1_455
Ca2 Hg1 3.627330 1_555
Ca3 Sb3 3.141984 1_555
Ca3 Sb2 3.184031 1_565
Ca3 Sb2 3.184031 1_665
Ca3 Sb1 3.228480 1_655
Ca3 Sb1 3.228480 1_555
Ca3 Hg3 3.386630 1_665
Ca3 Hg3 3.386630 1_565
Ca3 Hg0 3.627330 1_555
Ca3 Hg0 3.627330 1_655
Ca4 Sb5 3.203925 1_554
Ca4 Sb5 3.203925 1_654
Ca4 Sb2 3.244300 1_555
Ca4 Sb2 3.244300 1_655
Ca4 Sb3 3.488278 1_555
Ca4 Hg2 3.627994 1_554
Ca4 Hg0 3.805121 1_555
Ca4 Hg0 3.805121 1_655
Ca5 Sb6 3.203925 1_455
Ca5 Sb6 3.203925 1_555
Ca5 Sb0 3.244300 1_555
Ca5 Sb0 3.244300 1_455
Ca5 Sb7 3.488278 1_545
Ca5 Hg3 3.627994 1_555
Ca5 Hg1 3.805121 1_545
Ca5 Hg1 3.805121 1_445
Ca6 Sb6 3.141984 1_555
Ca6 Sb1 3.184031 1_655
Ca6 Sb1 3.184031 1_555
Ca6 Sb2 3.228480 1_555
Ca6 Sb2 3.228480 1_655
Ca6 Hg0 3.386630 1_655
Ca6 Hg0 3.386630 1_555
Ca6 Hg3 3.627330 1_555
Ca6 Hg3 3.627330 1_655
Ca7 Sb5 3.141984 1_555
Ca7 Sb4 3.184031 1_445
Ca7 Sb4 3.184031 1_545
Ca7 Sb0 3.228480 1_455
Ca7 Sb0 3.228480 1_555
Ca7 Hg1 3.386630 1_445
Ca7 Hg1 3.386630 1_545
Ca7 Hg2 3.627330 1_555
Ca7 Hg2 3.627330 1_455
Hg0 Sb3 2.858205 1_455
Hg0 Sb3 2.858205 1_555
Hg0 Sb2 2.925143 1_555
Hg0 Sb1 3.049451 1_555
Hg1 Sb7 2.858205 1_555
Hg1 Sb7 2.858205 1_655
Hg1 Sb0 2.925143 1_565
Hg1 Sb4 3.049451 1_555
Hg2 Sb5 2.858205 1_555
Hg2 Sb5 2.858205 1_655
Hg2 Sb4 2.925143 1_555
Hg2 Sb0 3.049451 1_555
Hg3 Sb6 2.858205 1_455
Hg3 Sb6 2.858205 1_555
Hg3 Sb1 2.925143 1_545
Hg3 Sb2 3.049451 1_555
