# generated using pymatgen
data_Na(Zr3Te4)4
_symmetry_space_group_name_H-M   'P 1'
_cell_length_a   7.99689271
_cell_length_b   11.08603197
_cell_length_c   11.78773289
_cell_angle_alpha   118.06113188
_cell_angle_beta   109.83299520
_cell_angle_gamma   90.02606714
_symmetry_Int_Tables_number   1
_chemical_formula_structural   Na(Zr3Te4)4
_chemical_formula_sum   'Na1 Zr12 Te16'
_cell_volume   851.20361710
_cell_formula_units_Z   1
loop_
 _symmetry_equiv_pos_site_id
 _symmetry_equiv_pos_as_xyz
  1  'x, y, z'
loop_
 _atom_site_type_symbol
 _atom_site_label
 _atom_site_symmetry_multiplicity
 _atom_site_fract_x
 _atom_site_fract_y
 _atom_site_fract_z
 _atom_site_occupancy
  Na  Na0  1  0.50000000  0.00000000  0.00000000  1
  Zr  Zr0  1  0.12221357  0.12663543  0.49243323  1
  Zr  Zr1  1  0.62017815  0.12651622  0.49147107  1
  Zr  Zr2  1  0.31194673  0.36723103  0.87442956  1
  Zr  Zr3  1  0.81196176  0.36446530  0.87262276  1
  Zr  Zr4  1  0.19173799  0.50872469  0.63515505  1
  Zr  Zr5  1  0.69361210  0.50724099  0.63434867  1
  Zr  Zr6  1  0.37982185  0.87348378  0.50852893  1
  Zr  Zr7  1  0.87778643  0.87336457  0.50756677  1
  Zr  Zr8  1  0.18803824  0.63553470  0.12737724  1
  Zr  Zr9  1  0.68805327  0.63276897  0.12557044  1
  Zr  Zr10  1  0.30638790  0.49275901  0.36565133  1
  Zr  Zr11  1  0.80826201  0.49127531  0.36484495  1
  Te  Te0  1  0.73012657  0.05291057  0.70850113  1
  Te  Te1  1  0.22921037  0.05256956  0.70985227  1
  Te  Te2  1  0.84858903  0.65532376  0.94683924  1
  Te  Te3  1  0.34871068  0.65875968  0.94863176  1
  Te  Te4  1  0.54504448  0.29086566  0.34256593  1
  Te  Te5  1  0.04730288  0.29169102  0.34474451  1
  Te  Te6  1  0.77078963  0.94743044  0.29014773  1
  Te  Te7  1  0.26987343  0.94708943  0.29149887  1
  Te  Te8  1  0.65128932  0.34124032  0.05136824  1
  Te  Te9  1  0.15141097  0.34467624  0.05316076  1
  Te  Te10  1  0.95269712  0.70830898  0.65525549  1
  Te  Te11  1  0.45495552  0.70913434  0.65743407  1
  Te  Te12  1  0.95874892  0.33296600  0.66636308  1
  Te  Te13  1  0.45839446  0.33389298  0.66677737  1
  Te  Te14  1  0.54160554  0.66610702  0.33322263  1
  Te  Te15  1  0.04125108  0.66703400  0.33363692  1
loop_
_geom_bond_atom_site_label_1
_geom_bond_atom_site_label_2
_geom_bond_distance
_geom_bond_site_symmetry_2
Na0 Te8 3.672205 1_555
Na0 Te3 3.672205 1_544
Na0 Te6 3.684752 1_545
Na0 Te1 3.684752 1_554
Na0 Te4 3.687135 1_555
Na0 Te11 3.687135 1_544
Te0 Zr1 2.902090 1_555
Te0 Zr7 2.903575 1_545
Te0 Zr6 2.909201 1_545
Te0 Zr3 2.992112 1_555
Te1 Zr0 2.909834 1_555
Te1 Zr7 2.919137 1_445
Te1 Zr6 2.921135 1_545
Te1 Zr2 3.021573 1_555
Te2 Zr3 2.901656 1_555
Te2 Zr8 2.909574 1_656
Te2 Zr9 2.912051 1_556
Te2 Zr5 3.001780 1_555
Te3 Zr2 2.908900 1_555
Te3 Zr8 2.916127 1_556
Te3 Zr9 2.919381 1_556
Te3 Zr4 3.010774 1_555
Te4 Zr5 2.908225 1_555
Te4 Zr11 2.916766 1_555
Te4 Zr10 2.917063 1_555
Te4 Zr1 3.009273 1_555
Te5 Zr4 2.899529 1_555
Te5 Zr11 2.902386 1_455
Te5 Zr10 2.907670 1_555
Te5 Zr0 3.004702 1_555
Te6 Zr7 2.909834 1_555
Te6 Zr0 2.919137 1_665
Te6 Zr1 2.921135 1_565
Te6 Zr9 3.021573 1_555
Te7 Zr6 2.902090 1_555
Te7 Zr0 2.903575 1_565
Te7 Zr1 2.909201 1_565
Te7 Zr8 2.992112 1_555
Te8 Zr9 2.908900 1_555
Te8 Zr3 2.916127 1_554
Te8 Zr2 2.919381 1_554
Te8 Zr11 3.010774 1_555
Te9 Zr8 2.901656 1_555
Te9 Zr3 2.909574 1_454
Te9 Zr2 2.912051 1_554
Te9 Zr10 3.001780 1_555
Te10 Zr11 2.899529 1_555
Te10 Zr4 2.902386 1_655
Te10 Zr5 2.907670 1_555
Te10 Zr7 3.004702 1_555
Te11 Zr10 2.908225 1_555
Te11 Zr4 2.916766 1_555
Te11 Zr5 2.917063 1_555
Te11 Zr6 3.009273 1_555
Te12 Zr5 2.918458 1_555
Te12 Zr4 2.922240 1_655
Te12 Zr3 2.923940 1_555
Te12 Zr0 2.924645 1_655
Te12 Zr2 2.925617 1_655
Te12 Zr1 2.930288 1_555
Te13 Zr0 2.921142 1_555
Te13 Zr5 2.924580 1_555
Te13 Zr3 2.926944 1_555
Te13 Zr1 2.928590 1_555
Te13 Zr4 2.930336 1_555
Te13 Zr2 2.931561 1_555
Te14 Zr7 2.921142 1_555
Te14 Zr10 2.924580 1_555
Te14 Zr8 2.926944 1_555
Te14 Zr6 2.928590 1_555
Te14 Zr11 2.930336 1_555
Te14 Zr9 2.931561 1_555
Te15 Zr10 2.918458 1_555
Te15 Zr11 2.922240 1_455
Te15 Zr8 2.923940 1_555
Te15 Zr7 2.924645 1_455
Te15 Zr9 2.925617 1_455
Te15 Zr6 2.930288 1_555
