# generated using pymatgen
data_Rb4Ba2TiAs4
_symmetry_space_group_name_H-M   'P 1'
_cell_length_a   10.68815508
_cell_length_b   10.68815619
_cell_length_c   8.15027739
_cell_angle_alpha   88.35827397
_cell_angle_beta   88.35826670
_cell_angle_gamma   119.45780823
_symmetry_Int_Tables_number   1
_chemical_formula_structural   Rb4Ba2TiAs4
_chemical_formula_sum   'Rb8 Ba4 Ti2 As8'
_cell_volume   809.38087602
_cell_formula_units_Z   2
loop_
 _symmetry_equiv_pos_site_id
 _symmetry_equiv_pos_as_xyz
  1  'x, y, z'
loop_
 _atom_site_type_symbol
 _atom_site_label
 _atom_site_symmetry_multiplicity
 _atom_site_fract_x
 _atom_site_fract_y
 _atom_site_fract_z
 _atom_site_occupancy
  Rb  Rb0  1  0.47546581  0.94658188  0.38603626  1
  Rb  Rb1  1  0.94658188  0.47546581  0.88603626  1
  Rb  Rb2  1  0.86557125  0.72084310  0.16797860  1
  Rb  Rb3  1  0.26428837  0.12505666  0.23576287  1
  Rb  Rb4  1  0.85392338  0.14163072  0.19665609  1
  Rb  Rb5  1  0.12505666  0.26428837  0.73576287  1
  Rb  Rb6  1  0.72084310  0.86557125  0.66797860  1
  Rb  Rb7  1  0.14163072  0.85392338  0.69665609  1
  Ba  Ba0  1  0.06469615  0.53287607  0.39493557  1
  Ba  Ba1  1  0.47664878  0.53132819  0.37966725  1
  Ba  Ba2  1  0.53287607  0.06469615  0.89493557  1
  Ba  Ba3  1  0.53132819  0.47664878  0.87966725  1
  Ti  Ti0  1  0.66454363  0.33463743  0.49116270  1
  Ti  Ti1  1  0.33463743  0.66454363  0.99116270  1
  As  As0  1  0.64644748  0.33176648  0.18239067  1
  As  As1  1  0.33176648  0.64644748  0.68239067  1
  As  As2  1  0.21450902  0.41378181  0.11899252  1
  As  As3  1  0.59241695  0.79270133  0.07230846  1
  As  As4  1  0.21332170  0.79677282  0.09177601  1
  As  As5  1  0.79270133  0.59241695  0.57230846  1
  As  As6  1  0.41378181  0.21450902  0.61899252  1
  As  As7  1  0.79677282  0.21332170  0.59177601  1
loop_
_geom_bond_atom_site_label_1
_geom_bond_atom_site_label_2
_geom_bond_distance
_geom_bond_site_symmetry_2
As0 Ti0 2.529425 1_555
As0 Ba3 3.439237 1_554
As0 Ba2 3.499800 1_554
As0 Rb3 3.566706 1_555
As0 Rb1 3.602912 1_554
As0 Rb2 3.628922 1_555
As0 Rb4 3.673481 1_555
As0 Ba1 3.776894 1_555
As0 Rb0 3.883069 1_545
As1 Ti1 2.529425 1_555
As1 Ba1 3.439237 1_555
As1 Ba0 3.499800 1_555
As1 Rb5 3.566706 1_555
As1 Rb0 3.602912 1_555
As1 Rb6 3.628922 1_555
As1 Rb7 3.673481 1_555
As1 Ba3 3.776895 1_555
As1 Rb1 3.883069 1_455
As2 Ti1 2.509191 1_554
As2 Ba1 3.312717 1_555
As2 Ba0 3.347331 1_555
As2 Rb5 3.489617 1_554
As2 Rb3 3.491056 1_555
As2 Rb4 3.527536 1_455
As2 Ba3 3.609871 1_554
As2 Rb1 3.786396 1_454
As3 Ti1 2.519741 1_554
As3 Ba1 3.410587 1_555
As3 Rb6 3.448572 1_554
As3 Rb2 3.467419 1_555
As3 Ba3 3.534935 1_554
As3 Ba2 3.546514 1_564
As3 Rb4 3.588061 1_565
As3 Rb0 3.589639 1_555
As4 Ti1 2.481731 1_554
As4 Ba0 3.398958 1_555
As4 Rb2 3.425066 1_455
As4 Rb7 3.438001 1_554
As4 Ba2 3.498907 1_564
As4 Rb0 3.515463 1_555
As4 Rb3 3.518219 1_565
As4 Rb1 3.702353 1_454
As5 Ti0 2.519741 1_555
As5 Ba3 3.410586 1_555
As5 Rb2 3.448572 1_555
As5 Rb6 3.467419 1_555
As5 Ba1 3.534935 1_555
As5 Ba0 3.546513 1_655
As5 Rb7 3.588061 1_655
As5 Rb1 3.589639 1_555
As6 Ti0 2.509191 1_555
As6 Ba3 3.312717 1_555
As6 Ba2 3.347332 1_555
As6 Rb3 3.489617 1_555
As6 Rb5 3.491055 1_555
As6 Rb7 3.527536 1_545
As6 Ba1 3.609871 1_555
As6 Rb0 3.786396 1_545
As7 Ti0 2.481731 1_555
As7 Ba2 3.398958 1_555
As7 Rb6 3.425066 1_545
As7 Rb4 3.438001 1_555
As7 Ba0 3.498907 1_655
As7 Rb1 3.515463 1_555
As7 Rb5 3.518219 1_655
As7 Rb0 3.702353 1_545
