# generated using pymatgen
data_Ga5Pd13
_symmetry_space_group_name_H-M   'P 1'
_cell_length_a   4.05210777
_cell_length_b   5.49546981
_cell_length_c   12.33682548
_cell_angle_alpha   102.31232722
_cell_angle_beta   99.43272371
_cell_angle_gamma   90.02275839
_symmetry_Int_Tables_number   1
_chemical_formula_structural   Ga5Pd13
_chemical_formula_sum   'Ga5 Pd13'
_cell_volume   264.59348943
_cell_formula_units_Z   1
loop_
 _symmetry_equiv_pos_site_id
 _symmetry_equiv_pos_as_xyz
  1  'x, y, z'
loop_
 _atom_site_type_symbol
 _atom_site_label
 _atom_site_symmetry_multiplicity
 _atom_site_fract_x
 _atom_site_fract_y
 _atom_site_fract_z
 _atom_site_occupancy
  Ga  Ga0  1  0.00001280  0.99989554  -0.00006785  1
  Ga  Ga1  1  0.89442854  0.35443779  0.78850612  1
  Ga  Ga2  1  0.10555961  0.64554669  0.21146700  1
  Ga  Ga3  1  0.67654657  0.31114287  0.35416059  1
  Ga  Ga4  1  0.32345091  0.68888254  0.64587375  1
  Pd  Pd0  1  -0.00005086  0.49997310  -0.00004623  1
  Pd  Pd1  1  0.88746438  0.87634989  0.77444430  1
  Pd  Pd2  1  0.11255302  0.12363627  0.22555652  1
  Pd  Pd3  1  0.78856444  0.40826205  0.57579498  1
  Pd  Pd4  1  0.21149528  0.59181927  0.42428650  1
  Pd  Pd5  1  0.77508267  0.89038748  0.55054059  1
  Pd  Pd6  1  0.22486911  0.10969579  0.44951237  1
  Pd  Pd7  1  0.65960731  0.83004172  0.31981737  1
  Pd  Pd8  1  0.34038136  0.16993942  0.68021556  1
  Pd  Pd9  1  0.57087694  0.37524596  0.14216534  1
  Pd  Pd10  1  0.42911167  0.62474637  0.85779641  1
  Pd  Pd11  1  0.54447280  0.84917673  0.08926708  1
  Pd  Pd12  1  0.45557444  0.15082051  0.91070460  1
loop_
_geom_bond_atom_site_label_1
_geom_bond_atom_site_label_2
_geom_bond_distance
_geom_bond_site_symmetry_2
Ga0 Pd12 2.522190 1_464
Ga0 Pd12 2.522204 1_564
Ga0 Pd11 2.522264 1_555
Ga0 Pd11 2.522486 1_455
Ga0 Pd1 2.680636 1_454
Ga0 Pd2 2.682280 1_565
Ga0 Pd0 2.747365 1_555
Ga0 Pd0 2.748104 1_565
Ga0 Pd10 3.130733 1_454
Ga0 Pd9 3.131591 1_565
Ga0 Pd10 3.131898 1_554
Ga0 Pd9 3.133205 1_465
Ga1 Pd8 2.508083 1_555
Ga1 Pd8 2.508645 1_655
Ga1 Pd0 2.524201 1_656
Ga1 Pd10 2.545644 1_655
Ga1 Pd10 2.545878 1_555
Ga1 Pd1 2.595697 1_545
Ga1 Pd3 2.668330 1_555
Ga1 Pd12 2.878132 1_555
Ga1 Pd12 2.879743 1_655
Ga1 Pd1 2.909957 1_555
Ga2 Pd7 2.508301 1_555
Ga2 Pd7 2.509055 1_455
Ga2 Pd0 2.524981 1_555
Ga2 Pd9 2.545631 1_455
Ga2 Pd9 2.545904 1_555
Ga2 Pd2 2.595655 1_565
Ga2 Pd4 2.669471 1_555
Ga2 Pd11 2.878348 1_555
Ga2 Pd11 2.879618 1_455
Ga2 Pd2 2.910039 1_555
Ga3 Pd4 2.576808 1_655
Ga3 Pd4 2.578039 1_555
Ga3 Pd7 2.585903 1_545
Ga3 Pd2 2.629502 1_555
Ga3 Pd2 2.631230 1_655
Ga3 Pd3 2.633954 1_555
Ga3 Pd9 2.678334 1_555
Ga3 Pd6 2.686747 1_555
Ga3 Pd6 2.691958 1_655
Ga3 Pd7 2.970134 1_555
Ga4 Pd3 2.576408 1_455
Ga4 Pd3 2.577884 1_555
Ga4 Pd8 2.585664 1_565
Ga4 Pd1 2.629352 1_555
Ga4 Pd1 2.630851 1_455
Ga4 Pd4 2.633398 1_555
Ga4 Pd10 2.677520 1_555
Ga4 Pd5 2.686621 1_555
Ga4 Pd5 2.692168 1_455
Ga4 Pd8 2.970369 1_555
Pd0 Pd12 2.838894 1_454
Pd0 Pd11 2.839583 1_555
Pd0 Pd12 2.840894 1_554
Pd0 Pd11 2.840906 1_455
Pd0 Pd10 2.842662 1_454
Pd0 Pd10 2.842820 1_554
Pd0 Pd9 2.842979 1_455
Pd0 Pd9 2.843186 1_555
Pd1 Pd5 2.742628 1_555
Pd1 Pd10 2.765699 1_555
Pd1 Pd10 2.766843 1_655
Pd1 Pd12 2.836860 1_665
Pd1 Pd12 2.837019 1_565
Pd1 Pd8 2.969768 1_665
Pd1 Pd8 2.971007 1_565
Pd1 Pd3 3.126064 1_555
Pd2 Pd6 2.743132 1_555
Pd2 Pd9 2.765917 1_555
Pd2 Pd9 2.767116 1_455
Pd2 Pd7 2.970106 1_445
Pd2 Pd7 2.971097 1_545
Pd2 Pd4 3.126991 1_555
Pd3 Pd5 2.732494 1_555
Pd3 Pd5 2.795659 1_545
Pd3 Pd6 2.838987 1_655
Pd3 Pd6 2.842013 1_555
Pd3 Pd8 2.855225 1_655
Pd3 Pd8 2.856130 1_555
Pd3 Pd4 3.049734 1_655
Pd3 Pd4 3.058175 1_555
Pd4 Pd6 2.732370 1_555
Pd4 Pd6 2.795707 1_565
Pd4 Pd5 2.839118 1_455
Pd4 Pd5 2.841602 1_555
Pd4 Pd7 2.855376 1_455
Pd4 Pd7 2.856012 1_555
Pd5 Pd7 2.755288 1_555
Pd5 Pd6 2.776446 1_565
Pd5 Pd6 2.776909 1_665
Pd5 Pd8 2.810657 1_565
Pd5 Pd8 2.813252 1_665
Pd6 Pd8 2.755102 1_555
Pd6 Pd7 2.811141 1_545
Pd6 Pd7 2.813461 1_445
Pd7 Pd9 2.929866 1_555
Pd10 Pd12 2.814776 1_555
Pd10 Pd11 2.820308 1_556
Pd10 Pd12 2.822693 1_565
Pd10 Pd8 2.929429 1_555
Pd11 Pd9 2.814750 1_555
Pd11 Pd9 2.822666 1_565
Pd11 Pd7 2.830401 1_555
Pd11 Pd2 2.836874 1_665
Pd11 Pd2 2.837289 1_565
Pd11 Pd12 3.004685 1_564
Pd12 Pd9 2.820193 1_556
Pd12 Pd8 2.829634 1_555
