# generated using pymatgen
data_KSnPIr2
_symmetry_space_group_name_H-M   'P 1'
_cell_length_a   7.83896177
_cell_length_b   7.83896164
_cell_length_c   7.83896061
_cell_angle_alpha   150.23579774
_cell_angle_beta   150.23579216
_cell_angle_gamma   42.59538737
_symmetry_Int_Tables_number   1
_chemical_formula_structural   KSnPIr2
_chemical_formula_sum   'K1 Sn1 P1 Ir2'
_cell_volume   118.41561494
_cell_formula_units_Z   1
loop_
 _symmetry_equiv_pos_site_id
 _symmetry_equiv_pos_as_xyz
  1  'x, y, z'
loop_
 _atom_site_type_symbol
 _atom_site_label
 _atom_site_symmetry_multiplicity
 _atom_site_fract_x
 _atom_site_fract_y
 _atom_site_fract_z
 _atom_site_occupancy
  K  K0  1  0.02364333  0.02364333  1.00000000  1
  Sn  Sn0  1  0.35328804  0.35328804  0.00000000  1
  P  P0  1  0.65729146  0.65729146  1.00000000  1
  Ir  Ir0  1  0.73288909  0.23288909  0.50000000  1
  Ir  Ir1  1  0.23288909  0.73288909  0.50000000  1
loop_
_geom_bond_atom_site_label_1
_geom_bond_atom_site_label_2
_geom_bond_distance
_geom_bond_site_symmetry_2
K0 P0 3.452222 1_444
K0 P0 3.452223 1_455
K0 P0 3.452223 1_545
K0 P0 3.452224 1_556
K0 Sn0 3.781384 1_557
K0 Sn0 3.781384 1_546
K0 Sn0 3.781384 1_456
K0 Sn0 3.781385 1_445
Ir0 P0 2.296244 1_555
Ir0 P0 2.296245 1_544
Ir0 Sn0 2.673261 1_555
Ir0 Sn0 2.673262 1_656
Ir1 P0 2.296245 1_555
Ir1 P0 2.296245 1_454
Ir1 Sn0 2.673261 1_555
Ir1 Sn0 2.673262 1_566
