# generated using pymatgen
data_Bi2TeSe2
_symmetry_space_group_name_H-M   'P 1'
_cell_length_a   4.27706673
_cell_length_b   4.27706673
_cell_length_c   10.85019555
_cell_angle_alpha   78.63278193
_cell_angle_beta   78.63278193
_cell_angle_gamma   59.99998864
_symmetry_Int_Tables_number   1
_chemical_formula_structural   Bi2TeSe2
_chemical_formula_sum   'Bi2 Te1 Se2'
_cell_volume   167.38290112
_cell_formula_units_Z   1
loop_
 _symmetry_equiv_pos_site_id
 _symmetry_equiv_pos_as_xyz
  1  'x, y, z'
loop_
 _atom_site_type_symbol
 _atom_site_label
 _atom_site_symmetry_multiplicity
 _atom_site_fract_x
 _atom_site_fract_y
 _atom_site_fract_z
 _atom_site_occupancy
  Bi  Bi0  1  0.59937400  0.59937400  0.20187800  1
  Bi  Bi1  1  0.40062600  0.40062600  0.79812200  1
  Te  Te0  1  0.00000000  0.00000000  0.00000000  1
  Se  Se0  1  0.21819800  0.21819800  0.34540600  1
  Se  Se1  1  0.78180200  0.78180200  0.65459400  1
loop_
_geom_bond_atom_site_label_1
_geom_bond_atom_site_label_2
_geom_bond_distance
_geom_bond_site_symmetry_2
Bi0 Se0 2.897819 1_655
Bi0 Se0 2.897819 1_565
Bi0 Se0 2.897819 1_555
Bi0 Te0 3.263001 1_665
Bi0 Te0 3.263001 1_565
Bi0 Te0 3.263001 1_655
Bi1 Se1 2.897819 1_455
Bi1 Se1 2.897819 1_545
Bi1 Se1 2.897819 1_555
Bi1 Te0 3.263001 1_556
Bi1 Te0 3.263001 1_566
Bi1 Te0 3.263001 1_656
