# generated using pymatgen
data_Lu4Zn4In3Sn
_symmetry_space_group_name_H-M   'P 1'
_cell_length_a   4.58661881
_cell_length_b   4.58661910
_cell_length_c   14.07091955
_cell_angle_alpha   90.00000000
_cell_angle_beta   90.00000000
_cell_angle_gamma   120.00000498
_symmetry_Int_Tables_number   1
_chemical_formula_structural   Lu4Zn4In3Sn
_chemical_formula_sum   'Lu4 Zn4 In3 Sn1'
_cell_volume   256.35300480
_cell_formula_units_Z   1
loop_
 _symmetry_equiv_pos_site_id
 _symmetry_equiv_pos_as_xyz
  1  'x, y, z'
loop_
 _atom_site_type_symbol
 _atom_site_label
 _atom_site_symmetry_multiplicity
 _atom_site_fract_x
 _atom_site_fract_y
 _atom_site_fract_z
 _atom_site_occupancy
  Lu  Lu0  1  0.00000000  0.00000000  0.25027869  1
  Lu  Lu1  1  0.00000000  0.00000000  0.74855116  1
  Lu  Lu2  1  0.00000000  0.00000000  0.00426217  1
  Lu  Lu3  1  0.00000000  0.00000000  0.49900320  1
  Zn  Zn0  1  0.33333300  0.66666700  0.10403787  1
  Zn  Zn1  1  0.66666700  0.33333300  0.84204634  1
  Zn  Zn2  1  0.66666700  0.33333300  0.65154287  1
  Zn  Zn3  1  0.33333300  0.66666700  0.40098872  1
  In  In0  1  0.33333300  0.66666700  0.60937259  1
  In  In1  1  0.66666700  0.33333300  0.36181262  1
  In  In2  1  0.66666700  0.33333300  0.13687984  1
  Sn  Sn0  1  0.33333300  0.66666700  0.89122292  1
loop_
_geom_bond_atom_site_label_1
_geom_bond_atom_site_label_2
_geom_bond_distance
_geom_bond_site_symmetry_2
Lu0 Zn0 3.353602 1_545
Lu0 Zn0 3.353605 1_445
Lu0 Zn0 3.353606 1_555
Lu0 Zn3 3.392552 1_545
Lu0 Zn3 3.392555 1_445
Lu0 Zn3 3.392555 1_555
Lu0 Lu2 3.461679 1_555
Lu0 Lu3 3.499783 1_555
Lu1 Zn1 2.956865 1_455
Lu1 Zn1 2.956868 1_555
Lu1 Zn1 2.956868 1_445
Lu1 Zn2 2.979187 1_455
Lu1 Zn2 2.979191 1_555
Lu1 Zn2 2.979191 1_445
Lu1 Sn0 3.323025 1_545
Lu1 Sn0 3.323028 1_445
Lu1 Sn0 3.323028 1_555
Lu1 Lu3 3.511369 1_555
Lu1 Lu2 3.598089 1_556
Lu2 Zn0 2.997229 1_545
Lu2 Zn0 2.997232 1_445
Lu2 Zn0 2.997232 1_555
Lu2 Sn0 3.089052 1_544
Lu2 Sn0 3.089056 1_444
Lu2 Sn0 3.089056 1_554
Lu2 Zn1 3.496036 1_454
Lu2 Zn1 3.496039 1_554
Lu2 Zn1 3.496039 1_444
Lu3 Zn3 2.985701 1_545
Lu3 Zn3 2.985704 1_445
Lu3 Zn3 2.985704 1_555
Lu3 Zn2 3.408704 1_455
Lu3 Zn2 3.408707 1_555
Lu3 Zn2 3.408707 1_445
Zn1 Zn2 2.680559 1_555
In0 Zn2 2.713749 1_455
In0 Zn2 2.713750 1_565
In0 Zn2 2.713757 1_555
In0 Zn3 2.932153 1_555
In0 Lu3 3.069878 1_565
In0 Lu3 3.069881 1_665
In0 Lu3 3.069881 1_555
In0 Lu1 3.293563 1_565
In0 Lu1 3.293566 1_665
In0 Lu1 3.293566 1_555
In1 Zn3 2.704850 1_655
In1 Zn3 2.704850 1_545
In1 Zn3 2.704858 1_555
In1 Lu0 3.078200 1_655
In1 Lu0 3.078203 1_555
In1 Lu0 3.078203 1_665
In1 In2 3.165011 1_555
In1 Lu3 3.277008 1_655
In1 Lu3 3.277011 1_555
In1 Lu3 3.277011 1_665
In2 Zn0 2.688102 1_655
In2 Zn0 2.688103 1_545
In2 Zn0 2.688111 1_555
In2 Lu0 3.091661 1_655
In2 Lu0 3.091664 1_555
In2 Lu0 3.091664 1_665
In2 Lu2 3.239521 1_655
In2 Lu2 3.239524 1_555
In2 Lu2 3.239524 1_665
Sn0 Zn1 2.736997 1_455
Sn0 Zn1 2.736997 1_565
Sn0 Zn1 2.737005 1_555
Sn0 Zn0 2.994502 1_556
