# generated using pymatgen
data_Be15(Nb3Ir4)2
_symmetry_space_group_name_H-M   'P 1'
_cell_length_a   7.87288517
_cell_length_b   7.87288485
_cell_length_c   7.87288494
_cell_angle_alpha   60.00000380
_cell_angle_beta   60.00000516
_cell_angle_gamma   60.00000449
_symmetry_Int_Tables_number   1
_chemical_formula_structural   Be15(Nb3Ir4)2
_chemical_formula_sum   'Be15 Nb6 Ir8'
_cell_volume   345.05376228
_cell_formula_units_Z   1
loop_
 _symmetry_equiv_pos_site_id
 _symmetry_equiv_pos_as_xyz
  1  'x, y, z'
loop_
 _atom_site_type_symbol
 _atom_site_label
 _atom_site_symmetry_multiplicity
 _atom_site_fract_x
 _atom_site_fract_y
 _atom_site_fract_z
 _atom_site_occupancy
  Be  Be0  1  0.32856301  0.32856301  0.32856301  1
  Be  Be1  1  0.67143699  0.67143699  0.67143699  1
  Be  Be2  1  0.32856301  0.32856301  0.01431198  1
  Be  Be3  1  0.32856301  0.01431198  0.32856301  1
  Be  Be4  1  0.67143699  0.67143699  0.98568802  1
  Be  Be5  1  0.67143699  0.98568802  0.67143699  1
  Be  Be6  1  0.01431198  0.32856301  0.32856301  1
  Be  Be7  1  0.98568802  0.67143699  0.67143699  1
  Be  Be8  1  0.50000000  0.00000000  0.00000000  1
  Be  Be9  1  0.00000000  0.50000000  0.50000000  1
  Be  Be10  1  0.00000000  0.50000000  0.00000000  1
  Be  Be11  1  0.50000000  0.00000000  0.50000000  1
  Be  Be12  1  0.00000000  0.00000000  0.50000000  1
  Be  Be13  1  0.50000000  0.50000000  0.00000000  1
  Be  Be14  1  0.00000000  0.00000000  0.00000000  1
  Nb  Nb0  1  0.70030450  0.29969550  0.29969550  1
  Nb  Nb1  1  0.29969550  0.70030450  0.70030450  1
  Nb  Nb2  1  0.29969550  0.70030450  0.29969550  1
  Nb  Nb3  1  0.70030450  0.29969550  0.70030450  1
  Nb  Nb4  1  0.29969550  0.29969550  0.70030450  1
  Nb  Nb5  1  0.70030450  0.70030450  0.29969550  1
  Ir  Ir0  1  0.12517126  0.12517126  0.12517126  1
  Ir  Ir1  1  0.87482874  0.87482874  0.87482874  1
  Ir  Ir2  1  0.12517126  0.12517126  0.62448621  1
  Ir  Ir3  1  0.12517126  0.62448621  0.12517126  1
  Ir  Ir4  1  0.87482874  0.87482874  0.37551379  1
  Ir  Ir5  1  0.87482874  0.37551379  0.87482874  1
  Ir  Ir6  1  0.62448621  0.12517126  0.12517126  1
  Ir  Ir7  1  0.37551379  0.87482874  0.87482874  1
loop_
_geom_bond_atom_site_label_1
_geom_bond_atom_site_label_2
_geom_bond_distance
_geom_bond_site_symmetry_2
Be0 Be11 2.274567 1_555
Be0 Be13 2.274567 1_555
Be0 Be9 2.274567 1_555
Be0 Ir3 2.378842 1_555
Be0 Ir2 2.378843 1_555
Be0 Ir6 2.378843 1_555
Be0 Be3 2.474062 1_555
Be0 Be2 2.474062 1_555
Be0 Be6 2.474062 1_555
Be0 Nb2 2.718475 1_555
Be0 Nb4 2.718475 1_555
Be0 Nb0 2.718475 1_555
Be1 Be11 2.274567 1_565
Be1 Be13 2.274567 1_556
Be1 Be9 2.274567 1_655
Be1 Ir5 2.378842 1_555
Be1 Ir4 2.378843 1_555
Be1 Ir7 2.378843 1_555
Be1 Be5 2.474062 1_555
Be1 Be4 2.474062 1_555
Be1 Be7 2.474062 1_555
Be1 Nb3 2.718475 1_555
Be1 Nb5 2.718475 1_555
Be1 Nb1 2.718475 1_555
Be2 Be8 2.274570 1_555
Be2 Ir3 2.378838 1_555
Be2 Ir6 2.378838 1_555
Be2 Ir0 2.378845 1_555
Be2 Be3 2.474062 1_555
Be2 Be6 2.474062 1_555
Be2 Nb1 2.718478 1_554
Be2 Nb3 2.718478 1_554
Be2 Nb4 2.718482 1_554
Be3 Be8 2.274570 1_555
Be3 Ir2 2.378838 1_555
Be3 Ir6 2.378838 1_555
Be3 Ir0 2.378845 1_555
Be3 Be6 2.474062 1_555
Be3 Nb1 2.718478 1_545
Be3 Nb5 2.718478 1_545
Be3 Nb2 2.718482 1_545
Be4 Be8 2.274570 1_566
Be4 Ir5 2.378838 1_555
Be4 Ir7 2.378838 1_555
Be4 Ir1 2.378845 1_555
Be4 Be5 2.474062 1_555
Be4 Be7 2.474062 1_555
Be4 Nb0 2.718478 1_556
Be4 Nb2 2.718478 1_556
Be4 Nb5 2.718482 1_556
Be5 Be8 2.274570 1_566
Be5 Ir4 2.378838 1_555
Be5 Ir7 2.378838 1_555
Be5 Ir1 2.378845 1_555
Be5 Be7 2.474062 1_555
Be5 Nb0 2.718478 1_565
Be5 Nb4 2.718478 1_565
Be5 Nb3 2.718482 1_565
Be6 Be9 2.274563 1_555
Be6 Ir3 2.378838 1_555
Be6 Ir2 2.378838 1_555
Be6 Ir0 2.378845 1_555
Be6 Nb5 2.718478 1_455
Be6 Nb3 2.718478 1_455
Be6 Nb0 2.718482 1_455
Be7 Be9 2.274563 1_655
Be7 Ir5 2.378838 1_555
Be7 Ir4 2.378838 1_555
Be7 Ir1 2.378845 1_555
Be7 Nb4 2.718478 1_655
Be7 Nb2 2.718478 1_655
Be7 Nb1 2.718482 1_655
Be8 Ir6 2.409470 1_555
Be8 Ir7 2.409470 1_544
Be8 Ir1 2.409470 1_544
Be8 Ir0 2.409470 1_555
Be8 Nb5 2.837946 1_545
Be8 Nb4 2.837946 1_554
Be8 Nb3 2.837946 1_554
Be8 Nb2 2.837946 1_545
Be9 Ir4 2.409470 1_455
Be9 Ir2 2.409470 1_555
Be9 Ir5 2.409470 1_455
Be9 Ir3 2.409470 1_555
Be9 Nb4 2.837946 1_555
Be9 Nb5 2.837946 1_455
Be9 Nb2 2.837946 1_555
Be9 Nb3 2.837946 1_455
Be10 Be6 2.274570 1_555
Be10 Be7 2.274570 1_454
Be10 Be2 2.274570 1_555
Be10 Be4 2.274570 1_454
Be10 Ir3 2.409470 1_555
Be10 Ir5 2.409470 1_454
Be10 Ir1 2.409470 1_454
Be10 Ir0 2.409470 1_555
Be10 Nb5 2.837946 1_455
Be10 Nb4 2.837946 1_554
Be10 Nb1 2.837946 1_554
Be10 Nb0 2.837946 1_455
Be11 Be5 2.274563 1_545
Be11 Be3 2.274563 1_555
Be11 Ir7 2.409470 1_545
Be11 Ir6 2.409470 1_555
Be11 Ir4 2.409470 1_545
Be11 Ir2 2.409470 1_555
Be11 Nb4 2.837946 1_555
Be11 Nb5 2.837946 1_545
Be11 Nb0 2.837946 1_555
Be11 Nb1 2.837946 1_545
Be12 Be6 2.274570 1_555
Be12 Be7 2.274570 1_445
Be12 Be3 2.274570 1_555
Be12 Be5 2.274570 1_445
Be12 Ir2 2.409470 1_555
Be12 Ir4 2.409470 1_445
Be12 Ir1 2.409470 1_445
Be12 Ir0 2.409470 1_555
Be12 Nb3 2.837946 1_455
Be12 Nb2 2.837946 1_545
Be12 Nb1 2.837946 1_545
Be12 Nb0 2.837946 1_455
Be13 Be4 2.274563 1_554
Be13 Be2 2.274563 1_555
Be13 Ir7 2.409470 1_554
Be13 Ir6 2.409470 1_555
Be13 Ir5 2.409470 1_554
Be13 Ir3 2.409470 1_555
Be13 Nb0 2.837946 1_555
Be13 Nb1 2.837946 1_554
Be13 Nb2 2.837946 1_555
Be13 Nb3 2.837946 1_554
Be14 Ir0 2.413872 1_555
Be14 Ir1 2.413872 1_444
Be14 Ir5 2.413872 1_454
Be14 Ir3 2.413872 1_545
Be14 Ir4 2.413872 1_445
Be14 Ir2 2.413872 1_554
Be14 Ir7 2.413872 1_544
Be14 Ir6 2.413872 1_455
Nb0 Nb5 3.153949 1_555
Nb0 Nb3 3.153949 1_555
Nb0 Nb2 3.153949 1_555
Nb0 Nb4 3.153949 1_555
Nb1 Nb4 3.153949 1_555
Nb1 Nb2 3.153949 1_555
Nb1 Nb3 3.153949 1_555
Nb1 Nb5 3.153949 1_555
Nb2 Nb5 3.153949 1_555
Nb2 Nb4 3.153949 1_555
Nb3 Nb4 3.153949 1_555
Nb3 Nb5 3.153949 1_555
Ir0 Nb2 2.767728 1_545
Ir0 Nb4 2.767729 1_554
Ir0 Nb0 2.767729 1_455
Ir0 Ir7 2.787299 1_544
Ir0 Ir5 2.787299 1_454
Ir0 Ir4 2.787299 1_445
Ir1 Nb3 2.767728 1_565
Ir1 Nb5 2.767729 1_556
Ir1 Nb1 2.767729 1_655
Ir1 Ir6 2.787299 1_566
Ir1 Ir3 2.787299 1_656
Ir1 Ir2 2.787299 1_665
Ir2 Nb4 2.767728 1_555
Ir2 Nb1 2.767728 1_545
Ir2 Nb3 2.767729 1_455
Ir2 Ir5 2.787299 1_455
Ir2 Ir7 2.787299 1_545
Ir3 Nb2 2.767728 1_555
Ir3 Nb1 2.767728 1_554
Ir3 Nb5 2.767729 1_455
Ir3 Ir4 2.787299 1_455
Ir3 Ir7 2.787299 1_554
Ir4 Nb5 2.767728 1_555
Ir4 Nb0 2.767728 1_565
Ir4 Nb2 2.767729 1_655
Ir4 Ir6 2.787299 1_565
Ir5 Nb3 2.767728 1_555
Ir5 Nb0 2.767728 1_556
Ir5 Nb4 2.767729 1_655
Ir5 Ir6 2.787299 1_556
Ir6 Nb0 2.767728 1_555
Ir6 Nb5 2.767728 1_545
Ir6 Nb3 2.767728 1_554
Ir7 Nb1 2.767728 1_555
Ir7 Nb4 2.767728 1_565
Ir7 Nb2 2.767728 1_556
