# generated using pymatgen
data_Ti13Al9(FeRh3)2
_symmetry_space_group_name_H-M   'P 1'
_cell_length_a   8.64192744
_cell_length_b   8.64192644
_cell_length_c   8.64192630
_cell_angle_alpha   59.74263405
_cell_angle_beta   59.74263674
_cell_angle_gamma   59.74264444
_symmetry_Int_Tables_number   1
_chemical_formula_structural   Ti13Al9(FeRh3)2
_chemical_formula_sum   'Ti13 Al9 Fe2 Rh6'
_cell_volume   453.70242680
_cell_formula_units_Z   1
loop_
 _symmetry_equiv_pos_site_id
 _symmetry_equiv_pos_as_xyz
  1  'x, y, z'
loop_
 _atom_site_type_symbol
 _atom_site_label
 _atom_site_symmetry_multiplicity
 _atom_site_fract_x
 _atom_site_fract_y
 _atom_site_fract_z
 _atom_site_occupancy
  Ti  Ti0  1  0.20580218  0.20580218  0.79427196  1
  Ti  Ti1  1  0.79427196  0.20580218  0.20580218  1
  Ti  Ti2  1  0.20580218  0.79427196  0.20580218  1
  Ti  Ti3  1  0.80499344  0.80499344  0.17864719  1
  Ti  Ti4  1  0.17864719  0.80499344  0.80499344  1
  Ti  Ti5  1  0.80499344  0.17864719  0.80499344  1
  Ti  Ti6  1  0.38218131  0.38218131  0.38218131  1
  Ti  Ti7  1  0.38325093  0.85482761  0.38325093  1
  Ti  Ti8  1  0.85482761  0.38325093  0.38325093  1
  Ti  Ti9  1  0.38325093  0.38325093  0.85482761  1
  Ti  Ti10  1  0.84484352  0.46892261  0.84484352  1
  Ti  Ti11  1  0.46892261  0.84484352  0.84484352  1
  Ti  Ti12  1  0.84484352  0.84484352  0.46892261  1
  Al  Al0  1  0.15625385  0.15625385  0.15625385  1
  Al  Al1  1  0.16201072  0.52022773  0.16201072  1
  Al  Al2  1  0.52022773  0.16201072  0.16201072  1
  Al  Al3  1  0.16201072  0.16201072  0.52022773  1
  Al  Al4  1  0.61751008  0.61751008  0.61751008  1
  Al  Al5  1  0.61851292  0.14840771  0.61851292  1
  Al  Al6  1  0.14840771  0.61851292  0.61851292  1
  Al  Al7  1  0.61851292  0.61851292  0.14840771  1
  Al  Al8  1  0.82778422  0.82778422  0.82778422  1
  Fe  Fe0  1  0.50039808  0.50039808  0.50039808  1
  Fe  Fe1  1  0.00363215  0.00363215  0.00363215  1
  Rh  Rh0  1  0.00380093  0.00380093  0.49935997  1
  Rh  Rh1  1  0.49935997  0.00380093  0.00380093  1
  Rh  Rh2  1  0.00380093  0.49935997  0.00380093  1
  Rh  Rh3  1  0.50051431  0.50051431  0.00011563  1
  Rh  Rh4  1  0.00011563  0.50051431  0.50051431  1
  Rh  Rh5  1  0.50051431  0.00011563  0.50051431  1
loop_
_geom_bond_atom_site_label_1
_geom_bond_atom_site_label_2
_geom_bond_distance
_geom_bond_site_symmetry_2
Ti0 Ti11 2.751625 1_545
Ti0 Ti10 2.751625 1_455
Ti0 Ti6 2.954620 1_555
Ti0 Ti9 2.994073 1_555
Ti1 Ti10 2.751625 1_554
Ti1 Ti12 2.751625 1_545
Ti1 Ti6 2.954621 1_555
Ti1 Ti8 2.994073 1_555
Ti2 Ti6 2.954621 1_555
Ti2 Ti7 2.994073 1_555
Ti3 Ti8 3.047395 1_555
Ti3 Ti7 3.047395 1_555
Ti4 Ti7 3.047395 1_555
Ti4 Ti9 3.047395 1_555
Ti5 Ti8 3.047395 1_555
Ti5 Ti9 3.047396 1_555
Ti10 Ti5 2.896670 1_555
Ti11 Ti2 2.751625 1_556
Ti11 Ti4 2.896670 1_555
Ti12 Ti2 2.751625 1_655
Ti12 Ti3 2.896670 1_555
Al0 Rh0 2.477689 1_555
Al0 Rh2 2.477690 1_555
Al0 Rh1 2.477690 1_555
Al0 Ti0 2.763595 1_554
Al0 Ti2 2.763595 1_545
Al0 Ti1 2.763596 1_455
Al0 Ti9 2.839134 1_554
Al0 Ti7 2.839135 1_545
Al0 Ti8 2.839135 1_455
Al1 Rh2 2.480327 1_555
Al1 Rh4 2.481404 1_555
Al1 Rh3 2.481405 1_555
Al1 Ti6 2.781558 1_555
Al1 Ti2 2.801055 1_555
Al1 Ti4 2.802464 1_554
Al1 Ti3 2.802465 1_455
Al1 Ti8 2.806241 1_455
Al1 Ti9 2.806241 1_554
Al2 Rh1 2.480327 1_555
Al2 Rh5 2.481404 1_555
Al2 Rh3 2.481404 1_555
Al2 Ti6 2.781558 1_555
Al2 Ti1 2.801055 1_555
Al2 Ti5 2.802464 1_554
Al2 Ti3 2.802465 1_545
Al2 Ti7 2.806241 1_545
Al2 Ti9 2.806241 1_554
Al3 Rh0 2.480327 1_555
Al3 Rh4 2.481405 1_555
Al3 Rh5 2.481405 1_555
Al3 Ti6 2.781558 1_555
Al3 Ti0 2.801055 1_555
Al3 Ti4 2.802464 1_545
Al3 Ti5 2.802464 1_455
Al3 Ti7 2.806241 1_545
Al3 Ti8 2.806241 1_455
Al4 Fe0 2.483874 1_555
Al4 Rh3 2.696161 1_556
Al4 Rh5 2.696161 1_565
Al4 Rh4 2.696161 1_655
Al4 Ti9 2.857415 1_555
Al4 Ti8 2.857415 1_555
Al4 Ti7 2.857415 1_555
Al4 Ti12 2.858879 1_555
Al4 Ti11 2.858879 1_555
Al4 Ti10 2.858879 1_555
Al4 Ti3 3.145545 1_555
Al4 Ti5 3.145545 1_555
Al4 Ti4 3.145545 1_555
Al5 Fe0 2.475611 1_555
Al5 Rh1 2.712333 1_556
Al5 Rh0 2.712334 1_655
Al5 Rh5 2.721016 1_555
Al5 Al8 2.723042 1_545
Al5 Ti11 2.842096 1_545
Al5 Ti12 2.842097 1_545
Al5 Ti8 2.873560 1_555
Al5 Ti9 2.873561 1_555
Al5 Ti6 2.882924 1_555
Al5 Ti5 2.954419 1_555
Al5 Ti1 2.964935 1_555
Al5 Ti0 2.964935 1_555
Al6 Fe0 2.475612 1_555
Al6 Rh2 2.712333 1_556
Al6 Rh0 2.712334 1_565
Al6 Rh4 2.721016 1_555
Al6 Al8 2.723042 1_455
Al6 Ti10 2.842097 1_455
Al6 Ti12 2.842097 1_455
Al6 Ti7 2.873560 1_555
Al6 Ti9 2.873561 1_555
Al6 Ti6 2.882924 1_555
Al6 Ti4 2.954419 1_555
Al6 Ti2 2.964935 1_555
Al6 Ti0 2.964935 1_555
Al7 Fe0 2.475611 1_555
Al7 Rh1 2.712333 1_565
Al7 Rh2 2.712334 1_655
Al7 Rh3 2.721016 1_555
Al7 Al8 2.723041 1_554
Al7 Ti11 2.842097 1_554
Al7 Ti10 2.842097 1_554
Al7 Ti7 2.873561 1_555
Al7 Ti8 2.873561 1_555
Al7 Ti6 2.882924 1_555
Al7 Ti3 2.954419 1_555
Al7 Ti1 2.964935 1_555
Al7 Ti2 2.964935 1_555
Al8 Rh0 2.512620 1_665
Al8 Rh2 2.512620 1_656
Al8 Rh1 2.512620 1_566
Al8 Ti3 2.847249 1_556
Al8 Ti5 2.847249 1_565
Al8 Ti4 2.847249 1_655
Al8 Ti12 2.960008 1_555
Al8 Ti10 2.960008 1_555
Al8 Ti11 2.960008 1_555
Fe0 Ti9 2.492881 1_555
Fe0 Ti7 2.492881 1_555
Fe0 Ti8 2.492882 1_555
Fe0 Ti6 2.507306 1_555
Fe1 Ti3 2.432654 1_445
Fe1 Ti4 2.432654 1_544
Fe1 Ti5 2.432654 1_454
Fe1 Ti0 2.466463 1_554
Fe1 Ti1 2.466464 1_455
Fe1 Ti2 2.466464 1_545
Rh0 Ti12 2.544263 1_445
Rh0 Ti8 2.673712 1_455
Rh0 Ti7 2.673712 1_545
Rh0 Ti5 3.007296 1_455
Rh0 Ti4 3.007296 1_545
Rh0 Ti2 3.121352 1_545
Rh0 Ti1 3.121352 1_455
Rh1 Ti11 2.544263 1_544
Rh1 Ti7 2.673711 1_545
Rh1 Ti9 2.673712 1_554
Rh1 Ti5 3.007296 1_554
Rh1 Ti3 3.007296 1_545
Rh1 Ti2 3.121352 1_545
Rh1 Ti0 3.121352 1_554
Rh2 Ti10 2.544263 1_454
Rh2 Ti8 2.673711 1_455
Rh2 Ti9 2.673712 1_554
Rh2 Ti4 3.007295 1_554
Rh2 Ti3 3.007296 1_455
Rh2 Ti1 3.121352 1_455
Rh2 Ti0 3.121352 1_554
Rh3 Ti11 2.501250 1_554
Rh3 Ti10 2.501250 1_554
Rh3 Ti9 2.688823 1_554
Rh3 Ti6 2.691048 1_555
Rh3 Ti2 3.091966 1_555
Rh3 Ti1 3.091966 1_555
Rh4 Ti10 2.501250 1_455
Rh4 Ti12 2.501250 1_455
Rh4 Ti8 2.688823 1_455
Rh4 Ti6 2.691049 1_555
Rh4 Ti2 3.091966 1_555
Rh4 Ti0 3.091966 1_555
Rh5 Ti11 2.501250 1_545
Rh5 Ti12 2.501251 1_545
Rh5 Ti7 2.688823 1_545
Rh5 Ti6 2.691049 1_555
Rh5 Ti1 3.091966 1_555
Rh5 Ti0 3.091966 1_555
