# generated using pymatgen
data_Sr3SiO
_symmetry_space_group_name_H-M   'P 1'
_cell_length_a   7.15066135
_cell_length_b   7.13016274
_cell_length_c   10.10705953
_cell_angle_alpha   90.00000000
_cell_angle_beta   90.00000000
_cell_angle_gamma   90.00000000
_symmetry_Int_Tables_number   1
_chemical_formula_structural   Sr3SiO
_chemical_formula_sum   'Sr12 Si4 O4'
_cell_volume   515.31226197
_cell_formula_units_Z   4
loop_
 _symmetry_equiv_pos_site_id
 _symmetry_equiv_pos_as_xyz
  1  'x, y, z'
loop_
 _atom_site_type_symbol
 _atom_site_label
 _atom_site_symmetry_multiplicity
 _atom_site_fract_x
 _atom_site_fract_y
 _atom_site_fract_z
 _atom_site_occupancy
  Sr  Sr0  1  0.21834294  0.78162215  0.03059498  1
  Sr  Sr1  1  0.71834294  0.71837785  0.46940502  1
  Sr  Sr2  1  0.28165706  0.28162215  0.96940502  1
  Sr  Sr3  1  0.78165706  0.21837785  0.53059498  1
  Sr  Sr4  1  0.21834294  0.78162215  0.46940502  1
  Sr  Sr5  1  0.71834294  0.71837785  0.03059498  1
  Sr  Sr6  1  0.28165706  0.28162215  0.53059498  1
  Sr  Sr7  1  0.78165706  0.21837785  0.96940502  1
  Sr  Sr8  1  0.50845310  0.05880105  0.25000000  1
  Sr  Sr9  1  0.00845310  0.44119895  0.25000000  1
  Sr  Sr10  1  0.99154690  0.55880105  0.75000000  1
  Sr  Sr11  1  0.49154690  0.94119895  0.75000000  1
  Si  Si0  1  0.97504498  0.99470711  0.25000000  1
  Si  Si1  1  0.47504498  0.50529289  0.25000000  1
  Si  Si2  1  0.52495502  0.49470711  0.75000000  1
  Si  Si3  1  0.02495502  0.00529289  0.75000000  1
  O  O0  1  -0.00000000  0.50000000  0.50000000  1
  O  O1  1  0.50000000  -0.00000000  0.00000000  1
  O  O2  1  0.50000000  -0.00000000  0.50000000  1
  O  O3  1  -0.00000000  0.50000000  0.00000000  1
loop_
_geom_bond_atom_site_label_1
_geom_bond_atom_site_label_2
_geom_bond_distance
_geom_bond_site_symmetry_2
Si0 Sr9 3.192510 1_665
Si0 Sr0 3.201960 1_655
Si0 Sr4 3.201960 1_655
Si0 Sr8 3.367593 1_565
Si0 Sr1 3.488387 1_555
Si0 Sr5 3.488387 1_555
Si0 Sr7 3.535327 1_564
Si0 Sr3 3.535327 1_565
Si1 Sr8 3.192510 1_555
Si1 Sr1 3.201960 1_555
Si1 Sr5 3.201960 1_555
Si1 Sr9 3.367593 1_555
Si1 Sr0 3.488387 1_555
Si1 Sr4 3.488387 1_555
Si1 Sr2 3.535327 1_554
Si1 Sr6 3.535327 1_555
Si2 Sr11 3.192510 1_555
Si2 Sr6 3.201960 1_555
Si2 Sr2 3.201960 1_555
Si2 Sr10 3.367593 1_555
Si2 Sr3 3.488387 1_555
Si2 Sr7 3.488387 1_555
Si2 Sr1 3.535327 1_555
Si2 Sr5 3.535327 1_556
Si3 Sr10 3.192510 1_445
Si3 Sr3 3.201960 1_455
Si3 Sr7 3.201960 1_455
Si3 Sr11 3.367593 1_545
Si3 Sr6 3.488387 1_555
Si3 Sr2 3.488387 1_555
Si3 Sr4 3.535327 1_545
Si3 Sr0 3.535327 1_546
O0 Sr9 2.562025 1_555
O0 Sr10 2.562025 1_455
O0 Sr3 2.562299 1_455
O0 Sr4 2.562299 1_555
O0 Sr6 2.564453 1_555
O0 Sr1 2.564453 1_455
O1 Sr8 2.562025 1_555
O1 Sr11 2.562025 1_544
O1 Sr5 2.562299 1_545
O1 Sr2 2.562299 1_554
O1 Sr7 2.564453 1_554
O1 Sr0 2.564453 1_545
O2 Sr8 2.562025 1_555
O2 Sr11 2.562025 1_545
O2 Sr1 2.562299 1_545
O2 Sr6 2.562299 1_555
O2 Sr4 2.564453 1_545
O2 Sr3 2.564453 1_555
O3 Sr9 2.562025 1_555
O3 Sr10 2.562025 1_454
O3 Sr7 2.562299 1_454
O3 Sr0 2.562299 1_555
O3 Sr5 2.564453 1_455
O3 Sr2 2.564453 1_554
