# generated using pymatgen
data_Ba(Cr5Se8)2
_symmetry_space_group_name_H-M   'P 1'
_cell_length_a   7.30708798
_cell_length_b   9.64952699
_cell_length_c   9.77675722
_cell_angle_alpha   72.06637181
_cell_angle_beta   68.04966336
_cell_angle_gamma   79.08587926
_symmetry_Int_Tables_number   1
_chemical_formula_structural   Ba(Cr5Se8)2
_chemical_formula_sum   'Ba1 Cr10 Se16'
_cell_volume   606.16395528
_cell_formula_units_Z   1
loop_
 _symmetry_equiv_pos_site_id
 _symmetry_equiv_pos_as_xyz
  1  'x, y, z'
loop_
 _atom_site_type_symbol
 _atom_site_label
 _atom_site_symmetry_multiplicity
 _atom_site_fract_x
 _atom_site_fract_y
 _atom_site_fract_z
 _atom_site_occupancy
  Ba  Ba0  1  0.00000000  0.00000000  0.00000000  1
  Cr  Cr0  1  0.84129263  0.68542777  0.47504344  1
  Cr  Cr1  1  0.34201121  0.68396392  0.47382405  1
  Cr  Cr2  1  0.65798879  0.31603608  0.52617595  1
  Cr  Cr3  1  0.15870737  0.31457223  0.52495656  1
  Cr  Cr4  1  0.81541155  0.41093526  0.16511588  1
  Cr  Cr5  1  0.31522393  0.40599241  0.16519056  1
  Cr  Cr6  1  0.68477607  0.59400759  0.83480944  1
  Cr  Cr7  1  0.18458845  0.58906474  0.83488412  1
  Cr  Cr8  1  0.50000000  0.00000000  0.50000000  1
  Cr  Cr9  1  0.00000000  0.00000000  0.50000000  1
  Se  Se0  1  0.78882981  0.15153879  0.34642359  1
  Se  Se1  1  0.28812876  0.15200152  0.34793663  1
  Se  Se2  1  0.71187124  0.84799848  0.65206337  1
  Se  Se3  1  0.21117019  0.84846121  0.65357641  1
  Se  Se4  1  0.95868700  0.47555348  0.34451767  1
  Se  Se5  1  0.45928510  0.47588597  0.34445762  1
  Se  Se6  1  0.54071490  0.52411403  0.65554238  1
  Se  Se7  1  0.04131300  0.52444652  0.65548233  1
  Se  Se8  1  0.63156520  0.83222951  0.32200932  1
  Se  Se9  1  0.13063729  0.83244074  0.32190958  1
  Se  Se10  1  0.86936271  0.16755926  0.67809042  1
  Se  Se11  1  0.36843480  0.16777049  0.67799068  1
  Se  Se12  1  0.33768129  0.65837137  0.99143737  1
  Se  Se13  1  0.84149531  0.66138455  0.99029781  1
  Se  Se14  1  0.15850469  0.33861545  0.00970219  1
  Se  Se15  1  0.66231871  0.34162863  0.00856263  1
loop_
_geom_bond_atom_site_label_1
_geom_bond_atom_site_label_2
_geom_bond_distance
_geom_bond_site_symmetry_2
Ba0 Se11 3.457643 1_554
Ba0 Se8 3.457643 1_445
Ba0 Se9 3.458086 1_545
Ba0 Se10 3.458086 1_454
Ba0 Se14 3.705797 1_555
Ba0 Se13 3.705797 1_444
Ba0 Se15 3.728002 1_455
Ba0 Se12 3.728002 1_544
Ba0 Se0 3.778726 1_455
Ba0 Se3 3.778726 1_544
Cr0 Se8 2.486093 1_555
Cr0 Se9 2.487046 1_655
Cr0 Se2 2.497417 1_555
Cr0 Se4 2.565349 1_555
Cr0 Se7 2.653591 1_655
Cr0 Se6 2.658280 1_555
Cr1 Se9 2.492142 1_555
Cr1 Se8 2.493445 1_555
Cr1 Se3 2.531638 1_555
Cr1 Se5 2.543141 1_555
Cr1 Se7 2.651641 1_555
Cr1 Se6 2.652647 1_555
Cr2 Se10 2.492142 1_555
Cr2 Se11 2.493445 1_555
Cr2 Se0 2.531638 1_555
Cr2 Se6 2.543141 1_555
Cr2 Se4 2.651641 1_555
Cr2 Se5 2.652647 1_555
Cr3 Se11 2.486093 1_555
Cr3 Se10 2.487046 1_455
Cr3 Se1 2.497417 1_555
Cr3 Se7 2.565349 1_555
Cr3 Se4 2.653591 1_455
Cr3 Se5 2.658280 1_555
Cr4 Se13 2.487012 1_554
Cr4 Se14 2.494690 1_655
Cr4 Se15 2.497015 1_555
Cr4 Se0 2.576710 1_555
Cr4 Se4 2.618161 1_555
Cr4 Se5 2.624285 1_555
Cr5 Se14 2.497413 1_555
Cr5 Se12 2.497750 1_554
Cr5 Se15 2.499778 1_555
Cr5 Se1 2.541823 1_555
Cr5 Se4 2.638078 1_455
Cr5 Se5 2.647802 1_555
Cr6 Se13 2.497413 1_555
Cr6 Se15 2.497750 1_556
Cr6 Se12 2.499778 1_555
Cr6 Se2 2.541823 1_555
Cr6 Se7 2.638078 1_655
Cr6 Se6 2.647802 1_555
Cr7 Se14 2.487012 1_556
Cr7 Se13 2.494690 1_455
Cr7 Se12 2.497015 1_555
Cr7 Se3 2.576710 1_555
Cr7 Se7 2.618161 1_555
Cr7 Se6 2.624285 1_555
Cr8 Se2 2.505262 1_545
Cr8 Se1 2.505262 1_555
Cr8 Se3 2.508863 1_545
Cr8 Se0 2.508863 1_555
Cr8 Se11 2.543251 1_555
Cr8 Se8 2.543251 1_545
Cr9 Se1 2.506126 1_555
Cr9 Se2 2.506126 1_445
Cr9 Se0 2.509825 1_455
Cr9 Se3 2.509825 1_545
Cr9 Se10 2.542388 1_455
Cr9 Se9 2.542388 1_545
