# generated using pymatgen
data_Sr5MnSi9(Pb3O11)3
_symmetry_space_group_name_H-M   'P 1'
_cell_length_a   9.85123485
_cell_length_b   9.85123330
_cell_length_c   10.41017134
_cell_angle_alpha   90.00000000
_cell_angle_beta   90.00000000
_cell_angle_gamma   119.99999351
_symmetry_Int_Tables_number   1
_chemical_formula_structural   Sr5MnSi9(Pb3O11)3
_chemical_formula_sum   'Sr5 Mn1 Si9 Pb9 O33'
_cell_volume   874.92296232
_cell_formula_units_Z   1
loop_
 _symmetry_equiv_pos_site_id
 _symmetry_equiv_pos_as_xyz
  1  'x, y, z'
loop_
 _atom_site_type_symbol
 _atom_site_label
 _atom_site_symmetry_multiplicity
 _atom_site_fract_x
 _atom_site_fract_y
 _atom_site_fract_z
 _atom_site_occupancy
  Sr  Sr0  1  0.00000000  0.00000000  0.16797572  1
  Sr  Sr1  1  0.33333300  0.66666700  0.17544096  1
  Sr  Sr2  1  0.00000000  0.00000000  0.83202428  1
  Sr  Sr3  1  0.33333300  0.66666700  0.82455904  1
  Sr  Sr4  1  0.00000000  0.00000000  0.50000000  1
  Mn  Mn0  1  0.33333300  0.66666700  0.50000000  1
  Si  Si0  1  0.27047094  0.95149150  0.35517165  1
  Si  Si1  1  0.04850850  0.31897943  0.35517165  1
  Si  Si2  1  0.64768793  0.93564160  0.00000000  1
  Si  Si3  1  0.68102057  0.72952906  0.64482835  1
  Si  Si4  1  0.28795468  0.35231207  0.00000000  1
  Si  Si5  1  0.27047094  0.95149150  0.64482835  1
  Si  Si6  1  0.06435840  0.71204532  0.00000000  1
  Si  Si7  1  0.04850850  0.31897943  0.64482835  1
  Si  Si8  1  0.68102057  0.72952906  0.35517165  1
  Pb  Pb0  1  0.93009132  0.58965183  0.67894704  1
  Pb  Pb1  1  0.41034817  0.34043948  0.32105296  1
  Pb  Pb2  1  0.66658534  0.58753637  0.00000000  1
  Pb  Pb3  1  0.92095103  0.33341466  0.00000000  1
  Pb  Pb4  1  0.65956052  0.06990868  0.67894704  1
  Pb  Pb5  1  0.41246363  0.07904897  0.00000000  1
  Pb  Pb6  1  0.93009132  0.58965183  0.32105296  1
  Pb  Pb7  1  0.41034817  0.34043948  0.67894704  1
  Pb  Pb8  1  0.65956052  0.06990868  0.32105296  1
  O  O0  1  0.18992321  0.16422375  0.00000000  1
  O  O1  1  0.29571322  0.03856443  0.50000000  1
  O  O2  1  0.96143557  0.25714779  0.50000000  1
  O  O3  1  0.40593117  0.42522185  0.12421439  1
  O  O4  1  0.14313050  0.22202796  0.33576836  1
  O  O5  1  0.34679961  0.08940452  0.75279163  1
  O  O6  1  0.16129722  0.50517301  0.64284983  1
  O  O7  1  0.01929068  0.59406883  0.12421439  1
  O  O8  1  0.34387580  0.83870278  0.35715017  1
  O  O9  1  0.16129722  0.50517301  0.35715017  1
  O  O10  1  0.77797204  0.92110253  0.33576836  1
  O  O11  1  0.34387580  0.83870278  0.64284983  1
  O  O12  1  0.91059548  0.25739509  0.75279163  1
  O  O13  1  0.34679961  0.08940452  0.24720837  1
  O  O14  1  0.97430054  0.81007679  0.00000000  1
  O  O15  1  0.74260491  0.65320039  0.75279163  1
  O  O16  1  0.74260491  0.65320039  0.24720837  1
  O  O17  1  0.74285221  0.70428678  0.50000000  1
  O  O18  1  0.56353743  0.74382861  0.00000000  1
  O  O19  1  0.14313050  0.22202796  0.66423164  1
  O  O20  1  0.57477815  0.98070932  0.87578561  1
  O  O21  1  0.07889747  0.85686950  0.33576836  1
  O  O22  1  0.91059548  0.25739509  0.24720837  1
  O  O23  1  0.49482699  0.65612420  0.64284983  1
  O  O24  1  0.07889747  0.85686950  0.66423164  1
  O  O25  1  0.57477815  0.98070932  0.12421439  1
  O  O26  1  0.25617139  0.81970682  0.00000000  1
  O  O27  1  0.18029318  0.43646257  0.00000000  1
  O  O28  1  0.49482699  0.65612420  0.35715017  1
  O  O29  1  0.77797204  0.92110253  0.66423164  1
  O  O30  1  0.83577625  0.02569946  0.00000000  1
  O  O31  1  0.01929068  0.59406883  0.87578561  1
  O  O32  1  0.40593117  0.42522185  0.87578561  1
loop_
_geom_bond_atom_site_label_1
_geom_bond_atom_site_label_2
_geom_bond_distance
_geom_bond_site_symmetry_2
Mn0 O8 2.217755 1_555
Mn0 O11 2.217755 1_555
Mn0 O9 2.217758 1_555
Mn0 O6 2.217758 1_555
Mn0 O28 2.217762 1_555
Mn0 O23 2.217762 1_555
O0 Si4 1.605141 1_555
O0 Sr2 2.479672 1_554
O0 Sr0 2.479672 1_555
O0 Pb5 2.711038 1_555
O1 Si5 1.690395 1_545
O1 Si0 1.690395 1_545
O1 Sr4 2.742990 1_555
O2 Si7 1.690396 1_655
O2 Si1 1.690396 1_655
O2 Sr4 2.742980 1_655
O3 Si4 1.644371 1_555
O3 Pb1 2.221423 1_555
O3 Pb2 2.591612 1_555
O3 Sr1 2.855586 1_555
O4 Si1 1.646868 1_555
O4 Pb1 2.289787 1_555
O4 Sr4 2.571216 1_555
O4 Sr0 2.596013 1_555
O5 Si5 1.628753 1_545
O5 Pb7 2.355937 1_555
O5 Pb5 2.667892 1_556
O6 Si7 1.600429 1_555
O6 Sr3 2.507041 1_555
O7 Si6 1.644370 1_555
O7 Pb6 2.221423 1_455
O7 Pb3 2.591612 1_455
O7 Sr1 2.855577 1_555
O8 Si0 1.600429 1_555
O8 Sr1 2.507038 1_555
O9 Si1 1.600429 1_555
O9 Sr1 2.507041 1_555
O10 Si8 1.646868 1_555
O10 Pb8 2.289786 1_565
O10 Sr4 2.571216 1_665
O10 Sr0 2.596013 1_665
O11 Si5 1.600429 1_555
O11 Sr3 2.507038 1_555
O12 Si7 1.628753 1_655
O12 Pb4 2.355937 1_555
O12 Pb3 2.667892 1_556
O13 Si0 1.628753 1_545
O13 Pb1 2.355937 1_555
O13 Pb5 2.667892 1_555
O14 Si6 1.605149 1_655
O14 Sr2 2.479672 1_664
O14 Sr0 2.479672 1_665
O14 Pb2 2.711038 1_555
O15 Si3 1.628753 1_555
O15 Pb0 2.355937 1_555
O15 Pb2 2.667892 1_556
O16 Si8 1.628753 1_555
O16 Pb6 2.355937 1_555
O16 Pb2 2.667892 1_555
O17 Si3 1.690400 1_555
O17 Si8 1.690400 1_555
O17 Sr4 2.742986 1_665
O18 Si2 1.640530 1_555
O18 Pb2 2.228029 1_555
O18 Sr3 2.707860 1_554
O18 Sr1 2.707860 1_555
O19 Si7 1.646868 1_555
O19 Pb7 2.289787 1_555
O19 Sr4 2.571216 1_555
O19 Sr2 2.596013 1_555
O20 Si2 1.644375 1_556
O20 Pb4 2.221423 1_565
O20 Pb5 2.591612 1_566
O20 Sr3 2.855579 1_555
O21 Si0 1.646868 1_555
O21 Pb6 2.289787 1_455
O21 Sr4 2.571216 1_565
O21 Sr0 2.596013 1_565
O22 Si1 1.628753 1_655
O22 Pb8 2.355937 1_555
O22 Pb3 2.667892 1_555
O23 Si3 1.600430 1_555
O23 Sr3 2.507044 1_555
O24 Si5 1.646868 1_555
O24 Pb0 2.289787 1_455
O24 Sr4 2.571216 1_565
O24 Sr2 2.596013 1_565
O25 Si2 1.644375 1_555
O25 Pb8 2.221423 1_565
O25 Pb5 2.591612 1_565
O25 Sr1 2.855579 1_555
O26 Si6 1.640529 1_555
O26 Pb5 2.228045 1_565
O26 Sr3 2.707839 1_554
O26 Sr1 2.707839 1_555
O27 Si4 1.640521 1_555
O27 Pb3 2.228047 1_455
O27 Sr3 2.707856 1_554
O27 Sr1 2.707856 1_555
O28 Si8 1.600430 1_555
O28 Sr1 2.507044 1_555
O29 Si3 1.646868 1_555
O29 Pb4 2.289786 1_565
O29 Sr4 2.571216 1_665
O29 Sr2 2.596013 1_665
O30 Si2 1.605141 1_545
O30 Sr2 2.479672 1_654
O30 Sr0 2.479672 1_655
O30 Pb3 2.711037 1_555
O31 Si6 1.644370 1_556
O31 Pb0 2.221423 1_455
O31 Pb3 2.591612 1_456
O31 Sr3 2.855577 1_555
O32 Si4 1.644371 1_556
O32 Pb7 2.221423 1_555
O32 Pb2 2.591612 1_556
O32 Sr3 2.855586 1_555
