# generated using pymatgen
data_Hf5Zr3(ScSn3)2
_symmetry_space_group_name_H-M   'P 1'
_cell_length_a   8.44328976
_cell_length_b   8.46439643
_cell_length_c   5.79194051
_cell_angle_alpha   90.00000000
_cell_angle_beta   90.00000000
_cell_angle_gamma   120.08271721
_symmetry_Int_Tables_number   1
_chemical_formula_structural   Hf5Zr3(ScSn3)2
_chemical_formula_sum   'Hf5 Zr3 Sc2 Sn6'
_cell_volume   358.17875216
_cell_formula_units_Z   1
loop_
 _symmetry_equiv_pos_site_id
 _symmetry_equiv_pos_as_xyz
  1  'x, y, z'
loop_
 _atom_site_type_symbol
 _atom_site_label
 _atom_site_symmetry_multiplicity
 _atom_site_fract_x
 _atom_site_fract_y
 _atom_site_fract_z
 _atom_site_occupancy
  Hf  Hf0  1  1.00000000  0.25097185  0.75000000  1
  Hf  Hf1  1  0.66767529  0.33225842  0.00031228  1
  Hf  Hf2  1  0.33232471  0.66458413  0.00031228  1
  Hf  Hf3  1  0.33232471  0.66458413  0.49968772  1
  Hf  Hf4  1  0.66767529  0.33225842  0.49968772  1
  Zr  Zr0  1  0.24311882  0.24386922  0.25000000  1
  Zr  Zr1  1  0.75688118  0.00074940  0.25000000  1
  Zr  Zr2  1  0.00000000  0.75267357  0.25000000  1
  Sc  Sc0  1  0.75497276  0.75671651  0.75000000  1
  Sc  Sc1  1  0.24502724  0.00174375  0.75000000  1
  Sn  Sn0  1  0.39273072  0.39145181  0.75000000  1
  Sn  Sn1  1  0.60726928  0.99872109  0.75000000  1
  Sn  Sn2  1  0.00000000  0.61035530  0.75000000  1
  Sn  Sn3  1  0.60803706  0.60758210  0.25000000  1
  Sn  Sn4  1  0.39196294  0.99954603  0.25000000  1
  Sn  Sn5  1  0.00000000  0.39193327  0.25000000  1
loop_
_geom_bond_atom_site_label_1
_geom_bond_atom_site_label_2
_geom_bond_distance
_geom_bond_site_symmetry_2
Hf0 Sn0 2.908022 1_655
Hf0 Sn1 2.908023 1_545
Hf0 Sn2 3.041964 1_655
Hf0 Sn5 3.132133 1_656
Hf0 Sn5 3.132133 1_655
Hf1 Sn5 2.966290 1_655
Hf1 Sn4 2.978150 1_545
Hf1 Sn1 2.981433 1_544
Hf1 Sn2 2.982380 1_654
Hf1 Sn0 2.984634 1_554
Hf1 Sn3 2.992054 1_555
Hf2 Sn5 2.966292 1_555
Hf2 Sn3 2.978159 1_555
Hf2 Sn0 2.981440 1_554
Hf2 Sn2 2.982377 1_554
Hf2 Sn1 2.984630 1_554
Hf2 Sn4 2.992054 1_555
Hf3 Sn5 2.966292 1_555
Hf3 Sn3 2.978159 1_555
Hf3 Sn0 2.981440 1_555
Hf3 Sn2 2.982377 1_555
Hf3 Sn1 2.984630 1_555
Hf3 Sn4 2.992054 1_555
Hf4 Sn5 2.966290 1_655
Hf4 Sn4 2.978150 1_545
Hf4 Sn1 2.981433 1_545
Hf4 Sn2 2.982380 1_655
Hf4 Sn0 2.984634 1_555
Hf4 Sn3 2.992054 1_555
Sc0 Sn1 2.883103 1_555
Sc0 Sn2 2.895558 1_655
Sc0 Sn0 3.071419 1_555
Sc0 Sn3 3.154247 1_556
Sc0 Sn3 3.154247 1_555
Sc1 Sn0 2.883103 1_555
Sc1 Sn2 2.895559 1_545
Sc1 Sn1 3.071419 1_545
Sc1 Sn4 3.154246 1_545
Sc1 Sn4 3.154246 1_546
Sn0 Zr0 3.156090 1_556
Sn0 Zr0 3.156090 1_555
Sn1 Zr1 3.156091 1_566
Sn1 Zr1 3.156091 1_565
Sn2 Zr2 3.136526 1_555
Sn2 Zr2 3.136526 1_556
Sn3 Zr2 2.895897 1_655
Sn3 Zr1 2.908898 1_565
Sn3 Zr0 3.076009 1_555
Sn4 Zr2 2.895899 1_555
Sn4 Zr0 2.908898 1_565
Sn4 Zr1 3.076017 1_565
Sn5 Zr0 2.891957 1_555
Sn5 Zr1 2.891964 1_455
Sn5 Zr2 3.053449 1_555
