# generated using pymatgen
data_Na4Sr2SnP4
_symmetry_space_group_name_H-M   'P 1'
_cell_length_a   9.52339034
_cell_length_b   9.52339137
_cell_length_c   7.37095930
_cell_angle_alpha   89.51318455
_cell_angle_beta   89.51318205
_cell_angle_gamma   120.17469077
_symmetry_Int_Tables_number   1
_chemical_formula_structural   Na4Sr2SnP4
_chemical_formula_sum   'Na8 Sr4 Sn2 P8'
_cell_volume   577.84004345
_cell_formula_units_Z   2
loop_
 _symmetry_equiv_pos_site_id
 _symmetry_equiv_pos_as_xyz
  1  'x, y, z'
loop_
 _atom_site_type_symbol
 _atom_site_label
 _atom_site_symmetry_multiplicity
 _atom_site_fract_x
 _atom_site_fract_y
 _atom_site_fract_z
 _atom_site_occupancy
  Na  Na0  1  0.46893826  0.93122924  0.38222130  1
  Na  Na1  1  0.93122924  0.46893826  0.88222130  1
  Na  Na2  1  0.86627332  0.72344259  0.18932459  1
  Na  Na3  1  0.28947425  0.13381841  0.23256799  1
  Na  Na4  1  0.84940807  0.13935322  0.21381515  1
  Na  Na5  1  0.13381841  0.28947425  0.73256799  1
  Na  Na6  1  0.72344259  0.86627332  0.68932459  1
  Na  Na7  1  0.13935322  0.84940807  0.71381515  1
  Sr  Sr0  1  0.05292215  0.53047359  0.38438372  1
  Sr  Sr1  1  0.48111268  0.53345419  0.37791082  1
  Sr  Sr2  1  0.53047359  0.05292215  0.88438372  1
  Sr  Sr3  1  0.53345419  0.48111268  0.87791082  1
  Sn  Sn0  1  0.66046821  0.32366370  0.49908006  1
  Sn  Sn1  1  0.32366370  0.66046821  0.99908006  1
  P  P0  1  0.19129139  0.37236571  0.11768155  1
  P  P1  1  0.62358305  0.81181169  0.09133798  1
  P  P2  1  0.19416267  0.81733588  0.10471017  1
  P  P3  1  0.81181169  0.62358305  0.59133798  1
  P  P4  1  0.37236571  0.19129139  0.61768155  1
  P  P5  1  0.81733588  0.19416267  0.60471017  1
  P  P6  1  0.66538436  0.34005034  0.15509469  1
  P  P7  1  0.34005034  0.66538436  0.65509469  1
loop_
_geom_bond_atom_site_label_1
_geom_bond_atom_site_label_2
_geom_bond_distance
_geom_bond_site_symmetry_2
Na0 P7 2.951166 1_555
Na0 P2 3.079550 1_555
Na0 P1 3.119448 1_555
Na1 P6 2.951165 1_556
Na1 P5 3.079550 1_555
Na1 P3 3.119448 1_555
Na2 P2 2.844258 1_655
Na2 P1 2.923196 1_555
Na2 P3 3.063374 1_555
Na2 P6 3.171236 1_555
Na3 P2 2.847597 1_545
Na3 P4 2.934424 1_555
Na3 P0 2.978010 1_555
Na3 P6 3.142845 1_555
Na4 P1 2.916718 1_545
Na4 P0 2.949254 1_655
Na4 P5 2.972935 1_555
Na4 P6 3.205929 1_555
Na5 P5 2.847596 1_455
Na5 P0 2.934424 1_556
Na5 P4 2.978009 1_555
Na5 P7 3.142845 1_555
Na6 P5 2.844258 1_565
Na6 P3 2.923196 1_555
Na6 P1 3.063374 1_556
Na6 P7 3.171236 1_555
Na7 P3 2.916718 1_455
Na7 P4 2.949254 1_565
Na7 P2 2.972935 1_556
Na7 P7 3.205929 1_555
Sn0 Sr1 3.336625 1_555
Sn1 Sr3 3.336625 1_555
P0 Sn1 2.518897 1_554
P0 Sr1 3.087743 1_555
P0 Sr0 3.141517 1_555
P0 Sr3 3.360466 1_554
P1 Sn1 2.570831 1_554
P1 Sr1 3.093625 1_555
P1 Sr2 3.224288 1_564
P1 Sr3 3.243425 1_554
P2 Sn1 2.492906 1_554
P2 Sr0 3.112125 1_555
P2 Sr2 3.248868 1_564
P3 Sn0 2.570831 1_555
P3 Sr3 3.093625 1_555
P3 Sr0 3.224288 1_655
P3 Sr1 3.243425 1_555
P4 Sn0 2.518897 1_555
P4 Sr3 3.087744 1_555
P4 Sr2 3.141517 1_555
P4 Sr1 3.360467 1_555
P5 Sn0 2.492906 1_555
P5 Sr2 3.112125 1_555
P5 Sr0 3.248868 1_655
P6 Sn0 2.537564 1_555
P6 Sr3 3.041604 1_554
P6 Sr2 3.116730 1_554
P6 Sr1 3.524374 1_555
P7 Sn1 2.537564 1_555
P7 Sr1 3.041604 1_555
P7 Sr0 3.116730 1_555
P7 Sr3 3.524374 1_555
