# generated using pymatgen
data_Ca2Al3SiPd6
_symmetry_space_group_name_H-M   'P 1'
_cell_length_a   6.78285065
_cell_length_b   6.78903322
_cell_length_c   6.78285088
_cell_angle_alpha   129.53729079
_cell_angle_beta   114.16114876
_cell_angle_gamma   87.33921203
_symmetry_Int_Tables_number   1
_chemical_formula_structural   Ca2Al3SiPd6
_chemical_formula_sum   'Ca2 Al3 Si1 Pd6'
_cell_volume   209.35676670
_cell_formula_units_Z   1
loop_
 _symmetry_equiv_pos_site_id
 _symmetry_equiv_pos_as_xyz
  1  'x, y, z'
loop_
 _atom_site_type_symbol
 _atom_site_label
 _atom_site_symmetry_multiplicity
 _atom_site_fract_x
 _atom_site_fract_y
 _atom_site_fract_z
 _atom_site_occupancy
  Ca  Ca0  1  0.00117656  0.96627675  0.96510019  1
  Ca  Ca1  1  0.49787998  0.05397364  0.55609465  1
  Al  Al0  1  0.34796444  0.40311310  0.05514866  1
  Al  Al1  1  0.81109209  0.24793447  0.43684338  1
  Al  Al2  1  0.65245085  0.70390849  0.05145665  1
  Si  Si0  1  0.18623908  0.62281848  0.43658041  1
  Pd  Pd0  1  0.96493392  0.50437841  0.96624174  1
  Pd  Pd1  1  0.53813567  0.50437841  0.53944450  1
  Pd  Pd2  1  0.04399038  0.99678862  0.54355873  1
  Pd  Pd3  1  0.78405406  0.49231950  0.27347042  1
  Pd  Pd4  1  0.21885108  0.49231950  0.70826543  1
  Pd  Pd5  1  0.45323090  0.99678862  0.95279825  1
loop_
_geom_bond_atom_site_label_1
_geom_bond_atom_site_label_2
_geom_bond_distance
_geom_bond_site_symmetry_2
Ca0 Pd2 3.121208 1_555
Ca0 Pd5 3.121214 1_555
Ca0 Pd0 3.161969 1_455
Ca0 Pd1 3.161974 1_455
Ca0 Pd3 3.177437 1_455
Ca0 Pd4 3.177445 1_555
Ca0 Si0 3.279550 1_566
Ca0 Pd4 3.438175 1_566
Ca0 Pd3 3.438176 1_466
Ca1 Pd5 3.080705 1_545
Ca1 Pd2 3.080712 1_545
Ca1 Si0 3.137535 1_545
Ca1 Pd0 3.159105 1_555
Ca1 Pd1 3.159108 1_555
Ca1 Pd4 3.266355 1_555
Ca1 Pd3 3.266360 1_556
Al0 Pd2 2.527067 1_544
Al0 Pd5 2.527069 1_544
Al0 Pd0 2.581778 1_454
Al0 Pd1 2.581778 1_555
Al0 Pd3 2.597661 1_555
Al0 Pd4 2.597662 1_554
Al0 Si0 2.716598 1_555
Al0 Ca1 3.238725 1_554
Al0 Ca1 3.252352 1_565
Al1 Pd0 2.481134 1_555
Al1 Pd1 2.481144 1_555
Al1 Pd3 2.482033 1_555
Al1 Pd4 2.482040 1_655
Al1 Pd2 2.512322 1_645
Al1 Pd5 2.512325 1_544
Al1 Ca1 3.150257 1_555
Al1 Ca0 3.303885 1_644
Al2 Pd1 2.529996 1_554
Al2 Pd0 2.530002 1_554
Al2 Pd4 2.581191 1_554
Al2 Pd3 2.581207 1_555
Al2 Pd5 2.632822 1_554
Al2 Pd2 2.632831 1_655
Al2 Ca1 3.244770 1_554
Al2 Ca1 3.288312 1_565
Pd0 Si0 2.450175 1_656
Pd1 Si0 2.450162 1_555
Pd2 Si0 2.429738 1_555
Pd3 Si0 2.440604 1_655
Pd4 Si0 2.440595 1_555
Pd5 Si0 2.429735 1_555
