# generated using pymatgen
data_BeAl2O4
_symmetry_space_group_name_H-M   'P 1'
_cell_length_a   4.42148734
_cell_length_b   5.46804335
_cell_length_c   9.39372523
_cell_angle_alpha   90.00000000
_cell_angle_beta   90.00000000
_cell_angle_gamma   90.00000000
_symmetry_Int_Tables_number   1
_chemical_formula_structural   BeAl2O4
_chemical_formula_sum   'Be4 Al8 O16'
_cell_volume   227.11100941
_cell_formula_units_Z   4
loop_
 _symmetry_equiv_pos_site_id
 _symmetry_equiv_pos_as_xyz
  1  'x, y, z'
loop_
 _atom_site_type_symbol
 _atom_site_label
 _atom_site_symmetry_multiplicity
 _atom_site_fract_x
 _atom_site_fract_y
 _atom_site_fract_z
 _atom_site_occupancy
  Be  Be0  1  0.06660599  0.25000000  0.59243377  1
  Be  Be1  1  0.93339401  0.75000000  0.40756623  1
  Be  Be2  1  0.43339401  0.25000000  0.09243377  1
  Be  Be3  1  0.56660599  0.75000000  0.90756623  1
  Al  Al0  1  0.49478183  0.75000000  0.22748873  1
  Al  Al1  1  0.99478183  0.25000000  0.27251127  1
  Al  Al2  1  0.50521817  0.25000000  0.77251127  1
  Al  Al3  1  0.00521817  0.75000000  0.72748873  1
  Al  Al4  1  0.50000000  0.50000000  0.50000000  1
  Al  Al5  1  -0.00000000  0.50000000  -0.00000000  1
  Al  Al6  1  0.50000000  0.00000000  0.50000000  1
  Al  Al7  1  -0.00000000  0.00000000  -0.00000000  1
  O  O0  1  0.75660239  0.51547486  0.33669928  1
  O  O1  1  0.25660239  0.48452514  0.16330072  1
  O  O2  1  0.24339761  0.01547486  0.66330072  1
  O  O3  1  0.74339761  0.98452514  0.83669928  1
  O  O4  1  0.25660239  0.01547486  0.16330072  1
  O  O5  1  0.24339761  0.48452514  0.66330072  1
  O  O6  1  0.75660239  0.98452514  0.33669928  1
  O  O7  1  0.74339761  0.51547486  0.83669928  1
  O  O8  1  0.21255557  0.75000000  0.90966647  1
  O  O9  1  0.71255557  0.25000000  0.59033353  1
  O  O10  1  0.78744443  0.25000000  0.09033353  1
  O  O11  1  0.28744443  0.75000000  0.40966647  1
  O  O12  1  0.75900366  0.75000000  0.56684871  1
  O  O13  1  0.25900366  0.25000000  0.93315129  1
  O  O14  1  0.24099634  0.25000000  0.43315129  1
  O  O15  1  0.74099634  0.75000000  0.06684871  1
loop_
_geom_bond_atom_site_label_1
_geom_bond_atom_site_label_2
_geom_bond_distance
_geom_bond_site_symmetry_2
Be0 O9 1.565554 1_455
Be0 O2 1.642779 1_555
Be0 O5 1.642779 1_555
Be0 O14 1.683248 1_555
Be1 O11 1.565554 1_655
Be1 O0 1.642779 1_555
Be1 O6 1.642779 1_555
Be1 O12 1.683248 1_555
Be2 O10 1.565554 1_555
Be2 O4 1.642779 1_555
Be2 O1 1.642779 1_555
Be2 O13 1.683248 1_554
Be3 O8 1.565554 1_555
Be3 O3 1.642779 1_555
Be3 O7 1.642779 1_555
Be3 O15 1.683248 1_556
Al0 O15 1.860707 1_555
Al0 O1 1.892043 1_555
Al0 O4 1.892043 1_565
Al0 O11 1.941405 1_555
Al0 O6 2.009257 1_555
Al0 O0 2.009257 1_555
Al1 O14 1.860707 1_655
Al1 O0 1.892043 1_555
Al1 O6 1.892043 1_545
Al1 O10 1.941405 1_555
Al1 O1 2.009257 1_655
Al1 O4 2.009257 1_655
Al2 O13 1.860707 1_555
Al2 O3 1.892043 1_545
Al2 O7 1.892043 1_555
Al2 O9 1.941405 1_555
Al2 O5 2.009257 1_555
Al2 O2 2.009257 1_555
Al3 O12 1.860707 1_455
Al3 O5 1.892043 1_555
Al3 O2 1.892043 1_565
Al3 O8 1.941405 1_555
Al3 O7 2.009257 1_455
Al3 O3 2.009257 1_455
Al4 O11 1.863339 1_555
Al4 O9 1.863339 1_555
Al4 O12 1.890632 1_555
Al4 O14 1.890632 1_555
Al4 O5 1.909858 1_555
Al4 O0 1.909858 1_555
Al5 O8 1.863339 1_554
Al5 O10 1.863339 1_455
Al5 O15 1.890632 1_455
Al5 O13 1.890632 1_554
Al5 O7 1.909858 1_454
Al5 O1 1.909858 1_555
Al6 O11 1.863339 1_545
Al6 O9 1.863339 1_555
Al6 O14 1.890632 1_555
Al6 O12 1.890632 1_545
Al6 O6 1.909858 1_545
Al6 O2 1.909858 1_555
Al7 O8 1.863339 1_544
Al7 O10 1.863339 1_455
Al7 O15 1.890632 1_445
Al7 O13 1.890632 1_554
Al7 O3 1.909858 1_444
Al7 O4 1.909858 1_555
