# generated using pymatgen
data_Hf5Zr7Zn12O2
_symmetry_space_group_name_H-M   'P 1'
_cell_length_a   8.44757591
_cell_length_b   8.42772639
_cell_length_c   8.46623113
_cell_angle_alpha   59.97274006
_cell_angle_beta   59.94711881
_cell_angle_gamma   59.90786137
_symmetry_Int_Tables_number   1
_chemical_formula_structural   Hf5Zr7Zn12O2
_chemical_formula_sum   'Hf5 Zr7 Zn12 O2'
_cell_volume   425.64873227
_cell_formula_units_Z   1
loop_
 _symmetry_equiv_pos_site_id
 _symmetry_equiv_pos_as_xyz
  1  'x, y, z'
loop_
 _atom_site_type_symbol
 _atom_site_label
 _atom_site_symmetry_multiplicity
 _atom_site_fract_x
 _atom_site_fract_y
 _atom_site_fract_z
 _atom_site_occupancy
  Hf  Hf0  1  0.05683659  0.44122709  0.44510826  1
  Hf  Hf1  1  0.19397561  0.19309583  0.80598266  1
  Hf  Hf2  1  0.80731118  0.19297399  0.19364502  1
  Hf  Hf3  1  0.80740371  0.19305353  0.80552710  1
  Hf  Hf4  1  0.05678040  0.05650278  0.44408136  1
  Zr  Zr0  1  0.19363964  0.80829199  0.19321375  1
  Zr  Zr1  1  0.44267499  0.05583275  0.44532412  1
  Zr  Zr2  1  0.44245343  0.05680351  0.05685297  1
  Zr  Zr3  1  0.44338666  0.44288436  0.05660415  1
  Zr  Zr4  1  0.19340593  0.80876867  0.80473225  1
  Zr  Zr5  1  0.05648657  0.44294703  0.05566114  1
  Zr  Zr6  1  0.80565812  0.80796802  0.19319040  1
  Zn  Zn0  1  0.83317659  0.50245960  0.83125750  1
  Zn  Zn1  1  0.41974177  0.41768848  0.74331778  1
  Zn  Zn2  1  0.74678373  0.41592770  0.41944637  1
  Zn  Zn3  1  0.41786231  0.41787572  0.41907324  1
  Zn  Zn4  1  0.83266885  0.83199904  0.50442662  1
  Zn  Zn5  1  0.41825723  0.74250011  0.41946945  1
  Zn  Zn6  1  0.83153101  0.83282910  0.83000083  1
  Zn  Zn7  1  0.50694676  0.83168307  0.83076406  1
  Zn  Zn8  1  0.62526835  0.12503775  0.62448973  1
  Zn  Zn9  1  0.62571162  0.62409186  0.12494432  1
  Zn  Zn10  1  0.12444483  0.62483581  0.62507858  1
  Zn  Zn11  1  0.62600296  0.62441401  0.62491086  1
  O  O0  1  0.99761812  0.00976499  0.99592128  1
  O  O1  1  0.24397504  0.24854219  0.25697620  1
loop_
_geom_bond_atom_site_label_1
_geom_bond_atom_site_label_2
_geom_bond_distance
_geom_bond_site_symmetry_2
Hf0 O1 2.272757 1_555
Hf0 Zn2 2.851170 1_455
Hf0 Zn3 2.856009 1_555
Hf0 Zn0 3.007986 1_455
Hf0 Zn11 3.019134 1_455
Hf0 Zn4 3.022097 1_455
Hf0 Zn10 3.026502 1_555
Hf1 O0 2.266337 1_455
Hf1 Zn0 2.840684 1_455
Hf1 Zn7 2.855190 1_545
Hf1 Zn3 3.012119 1_555
Hf1 Zn1 3.017118 1_555
Hf1 Zn10 3.018372 1_555
Hf1 Zn8 3.023819 1_555
Hf2 O0 2.274409 1_554
Hf2 Zn4 2.850222 1_545
Hf2 Zn0 2.855679 1_554
Hf2 Zn9 3.013670 1_555
Hf2 Zn2 3.016480 1_555
Hf2 Zn3 3.022739 1_555
Hf2 Zn8 3.028582 1_555
Hf3 O0 2.275876 1_555
Hf3 Zn0 2.842479 1_555
Hf3 Zn6 2.844865 1_545
Hf3 Zn2 3.006948 1_555
Hf3 Zn1 3.016358 1_555
Hf3 Zn11 3.016552 1_555
Hf3 Zn8 3.028326 1_555
Hf4 O1 2.262952 1_555
Hf4 Zn2 2.834972 1_455
Hf4 Zn5 2.860455 1_545
Hf4 Zn6 3.009173 1_445
Hf4 Zn4 3.013452 1_445
Hf4 Zn10 3.020340 1_545
Hf4 Zn8 3.024776 1_455
Zn0 Zn10 2.570194 1_655
Zn0 Zn11 2.575405 1_555
Zn0 Zn9 2.586378 1_556
Zn0 Zn7 2.761415 1_555
Zn0 Zn4 2.771012 1_555
Zn0 Zn6 2.772025 1_555
Zn0 Zr5 3.017752 1_656
Zn0 Zr3 3.023471 1_556
Zn1 Zn8 2.559158 1_555
Zn1 Zn11 2.573508 1_555
Zn1 Zn10 2.580237 1_555
Zn1 Zn5 2.738504 1_555
Zn1 Zn2 2.750169 1_555
Zn1 Zn3 2.752323 1_555
Zn1 Zr2 2.859762 1_556
Zn1 Zr5 2.869714 1_556
Zn1 Zr3 2.873467 1_556
Zn1 Zr4 3.031371 1_555
Zn2 Zn8 2.560617 1_555
Zn2 Zn9 2.591826 1_555
Zn2 Zn5 2.759979 1_555
Zn2 Zn3 2.771972 1_555
Zn2 Zr5 2.864817 1_655
Zn2 Zr6 3.031921 1_555
Zn3 Zn8 2.570083 1_555
Zn3 Zn9 2.579469 1_555
Zn3 Zn5 2.739201 1_555
Zn3 Zr1 2.851279 1_555
Zn3 Zr3 2.871173 1_555
Zn3 Zr0 3.025158 1_555
Zn4 Zn8 2.567438 1_565
Zn4 Zn7 2.755017 1_555
Zn4 Zn6 2.755087 1_555
Zn4 Zr0 2.854680 1_655
Zn4 Zr6 2.866868 1_555
Zn4 Zr1 3.022749 1_565
Zn5 Zn9 2.577692 1_555
Zn5 Zr1 2.869424 1_565
Zn5 Zr2 2.873822 1_565
Zn5 Zr0 3.016551 1_555
Zn5 Zr4 3.018717 1_555
Zn5 Zr6 3.026171 1_555
Zn6 Zn8 2.563828 1_565
Zn6 Zn9 2.583652 1_556
Zn6 Zn7 2.743570 1_555
Zn6 Zr4 2.863340 1_655
Zn6 Zr6 2.876521 1_556
Zn6 Zr2 3.023044 1_566
Zn6 Zr5 3.024893 1_656
Zn7 Zn8 2.563155 1_565
Zn7 Zn9 2.579173 1_556
Zn7 Zr4 2.870794 1_555
Zn7 Zr0 2.871104 1_556
Zn7 Zr1 3.014717 1_565
Zn7 Zr2 3.018905 1_566
Zn7 Zr3 3.024324 1_556
Zn8 Zr1 3.025104 1_555
Zn8 Zr2 3.039178 1_556
Zn9 Zr5 3.017351 1_655
Zn9 Zr2 3.025967 1_565
Zn9 Zr0 3.028079 1_555
Zn9 Zr3 3.028994 1_555
Zn9 Zr6 3.030519 1_555
Zn10 Zn5 2.566503 1_555
Zn10 Zn4 2.566790 1_455
Zn10 Zn6 2.568999 1_455
Zn10 Zn3 2.570442 1_555
Zn10 Zr5 3.026892 1_556
Zn10 Zr4 3.034536 1_555
Zn10 Zr0 3.034539 1_555
Zn11 Zn7 2.574825 1_555
Zn11 Zn2 2.576383 1_555
Zn11 Zn4 2.577235 1_555
Zn11 Zn5 2.582439 1_555
Zn11 Zr1 3.018112 1_565
Zn11 Zr4 3.031107 1_555
Zn11 Zr6 3.032351 1_555
Zn11 Zr3 3.033395 1_556
O0 Zr4 2.340564 1_645
O0 Zr6 2.349776 1_546
O0 Zr0 2.351048 1_646
O1 Zr1 2.313690 1_555
O1 Zr5 2.324778 1_555
O1 Zr2 2.339000 1_555
O1 Zr3 2.349852 1_555
