# generated using pymatgen
data_Li12SnOsN8
_symmetry_space_group_name_H-M   'P 1'
_cell_length_a   6.80423434
_cell_length_b   6.80423434
_cell_length_c   4.83602138
_cell_angle_alpha   90.00000000
_cell_angle_beta   90.00000000
_cell_angle_gamma   90.00000000
_symmetry_Int_Tables_number   1
_chemical_formula_structural   Li12SnOsN8
_chemical_formula_sum   'Li12 Sn1 Os1 N8'
_cell_volume   223.89620743
_cell_formula_units_Z   1
loop_
 _symmetry_equiv_pos_site_id
 _symmetry_equiv_pos_as_xyz
  1  'x, y, z'
loop_
 _atom_site_type_symbol
 _atom_site_label
 _atom_site_symmetry_multiplicity
 _atom_site_fract_x
 _atom_site_fract_y
 _atom_site_fract_z
 _atom_site_occupancy
  Li  Li0  1  0.50000000  0.00000000  0.55014729  1
  Li  Li1  1  0.00000000  0.50000000  0.91893564  1
  Li  Li2  1  0.00000000  0.50000000  0.44985271  1
  Li  Li3  1  0.50000000  0.00000000  0.08106436  1
  Li  Li4  1  0.22339985  0.22339985  0.50000000  1
  Li  Li5  1  0.77660015  0.77660015  0.50000000  1
  Li  Li6  1  0.70576124  0.70576124  0.00000000  1
  Li  Li7  1  0.29423876  0.29423876  0.00000000  1
  Li  Li8  1  0.22339985  0.77660015  0.50000000  1
  Li  Li9  1  0.77660015  0.22339985  0.50000000  1
  Li  Li10  1  0.70576124  0.29423876  0.00000000  1
  Li  Li11  1  0.29423876  0.70576124  0.00000000  1
  Sn  Sn0  1  0.50000000  0.50000000  0.50000000  1
  Os  Os0  1  0.00000000  0.00000000  0.00000000  1
  N  N0  1  0.50000000  0.23389166  0.29215221  1
  N  N1  1  0.50000000  0.76610834  0.29215221  1
  N  N2  1  0.00000000  0.77635951  0.20177703  1
  N  N3  1  0.00000000  0.22364049  0.20177703  1
  N  N4  1  0.23389166  0.50000000  0.70784779  1
  N  N5  1  0.76610834  0.50000000  0.70784779  1
  N  N6  1  0.77635951  0.00000000  0.79822297  1
  N  N7  1  0.22364049  0.00000000  0.79822297  1
loop_
_geom_bond_atom_site_label_1
_geom_bond_atom_site_label_2
_geom_bond_distance
_geom_bond_site_symmetry_2
Li0 N0 2.022228 1_555
Li0 N1 2.022228 1_545
Li0 N7 2.230524 1_555
Li0 N6 2.230524 1_555
Li1 N4 1.890717 1_555
Li1 N5 1.890717 1_455
Li1 N3 2.325276 1_556
Li1 N2 2.325276 1_556
Li2 N4 2.022228 1_555
Li2 N5 2.022228 1_455
Li2 N3 2.230524 1_555
Li2 N2 2.230524 1_555
Li3 N0 1.890717 1_555
Li3 N1 1.890717 1_545
Li3 N7 2.325276 1_554
Li3 N6 2.325276 1_554
Li4 N7 2.095370 1_555
Li4 N3 2.095370 1_555
Li4 N0 2.134843 1_555
Li4 N4 2.134843 1_555
Li5 N2 2.095370 1_655
Li5 N6 2.095370 1_565
Li5 N5 2.134843 1_555
Li5 N1 2.134843 1_555
Li6 N5 2.030984 1_554
Li6 N1 2.030984 1_555
Li6 N6 2.278424 1_564
Li6 N2 2.278424 1_655
Li7 N4 2.030984 1_554
Li7 N0 2.030984 1_555
Li7 N7 2.278424 1_554
Li7 N3 2.278424 1_555
Li8 N2 2.095370 1_555
Li8 N7 2.095370 1_565
Li8 N4 2.134843 1_555
Li8 N1 2.134843 1_555
Li9 N6 2.095370 1_555
Li9 N3 2.095370 1_655
Li9 N0 2.134843 1_555
Li9 N5 2.134843 1_555
Li10 N0 2.030984 1_555
Li10 N5 2.030984 1_554
Li10 N6 2.278424 1_554
Li10 N3 2.278424 1_655
Li11 N4 2.030984 1_554
Li11 N1 2.030984 1_555
Li11 N2 2.278424 1_555
Li11 N7 2.278424 1_564
N0 Sn0 2.070952 1_555
N1 Sn0 2.070952 1_555
N2 Os0 1.807695 1_565
N3 Os0 1.807695 1_555
N4 Sn0 2.070952 1_555
N5 Sn0 2.070952 1_555
N6 Os0 1.807695 1_656
N7 Os0 1.807695 1_556
