# generated using pymatgen
data_CdHg3(Ir2O7)2
_symmetry_space_group_name_H-M   'P 1'
_cell_length_a   7.25443617
_cell_length_b   7.20573185
_cell_length_c   7.20573154
_cell_angle_alpha   60.00000592
_cell_angle_beta   60.22184681
_cell_angle_gamma   60.22184661
_symmetry_Int_Tables_number   1
_chemical_formula_structural   CdHg3(Ir2O7)2
_chemical_formula_sum   'Cd1 Hg3 Ir4 O14'
_cell_volume   267.23481162
_cell_formula_units_Z   1
loop_
 _symmetry_equiv_pos_site_id
 _symmetry_equiv_pos_as_xyz
  1  'x, y, z'
loop_
 _atom_site_type_symbol
 _atom_site_label
 _atom_site_symmetry_multiplicity
 _atom_site_fract_x
 _atom_site_fract_y
 _atom_site_fract_z
 _atom_site_occupancy
  Cd  Cd0  1  0.62500000  0.12500000  0.12500000  1
  Hg  Hg0  1  0.12500000  0.12500000  0.62500000  1
  Hg  Hg1  1  0.12500000  0.12500000  0.12500000  1
  Hg  Hg2  1  0.12500000  0.62500000  0.12500000  1
  Ir  Ir0  1  0.62500000  0.62500000  0.62500000  1
  Ir  Ir1  1  0.12500000  0.62500000  0.62500000  1
  Ir  Ir2  1  0.62500000  0.12500000  0.62500000  1
  Ir  Ir3  1  0.62500000  0.62500000  0.12500000  1
  O  O0  1  0.94566107  0.55349110  0.55349110  1
  O  O1  1  0.30433893  0.30264227  0.69650890  1
  O  O2  1  0.94566107  0.55349110  0.94735773  1
  O  O3  1  0.69289627  0.30061746  0.30061746  1
  O  O4  1  0.55710373  0.54412919  0.94938254  1
  O  O5  1  0.55710373  0.94938254  0.54412919  1
  O  O6  1  0.55710373  0.94938254  0.94938254  1
  O  O7  1  0.24036950  0.25321050  0.25321050  1
  O  O8  1  0.30433893  0.69650890  0.69650890  1
  O  O9  1  0.69289627  0.30061746  0.70587081  1
  O  O10  1  0.00963050  0.99678950  0.99678950  1
  O  O11  1  0.94566107  0.94735773  0.55349110  1
  O  O12  1  0.30433893  0.69650890  0.30264227  1
  O  O13  1  0.69289627  0.70587081  0.30061746  1
loop_
_geom_bond_atom_site_label_1
_geom_bond_atom_site_label_2
_geom_bond_distance
_geom_bond_site_symmetry_2
Cd0 O7 2.285862 1_555
Cd0 O10 2.285862 1_644
Cd0 O5 2.506966 1_545
Cd0 O9 2.506966 1_554
Cd0 O4 2.506966 1_554
Cd0 O13 2.506966 1_545
Cd0 O3 2.506978 1_555
Cd0 O6 2.506978 1_544
Hg0 O10 2.190200 1_545
Hg0 O7 2.190200 1_555
Hg0 O1 2.564416 1_555
Hg0 O11 2.564416 1_445
Hg0 O0 2.564422 1_455
Hg0 O8 2.564422 1_545
Hg0 O5 2.598069 1_545
Hg0 O9 2.598069 1_455
Hg1 O7 2.190206 1_555
Hg1 O10 2.190206 1_544
Hg1 O11 2.564421 1_445
Hg1 O1 2.564421 1_554
Hg1 O2 2.564421 1_454
Hg1 O12 2.564421 1_545
Hg1 O6 2.598071 1_544
Hg1 O3 2.598071 1_455
Hg2 O10 2.190200 1_554
Hg2 O7 2.190200 1_555
Hg2 O12 2.564416 1_555
Hg2 O2 2.564416 1_454
Hg2 O0 2.564422 1_455
Hg2 O8 2.564422 1_554
Hg2 O4 2.598069 1_554
Hg2 O13 2.598069 1_455
Ir0 O4 1.955795 1_555
Ir0 O13 1.955795 1_555
Ir0 O5 1.955795 1_555
Ir0 O9 1.955795 1_555
Ir0 O0 1.956174 1_555
Ir0 O8 1.956174 1_555
Ir1 O8 1.954706 1_555
Ir1 O0 1.954706 1_455
Ir1 O2 1.954711 1_455
Ir1 O12 1.954711 1_555
Ir1 O11 1.954711 1_455
Ir1 O1 1.954711 1_555
Ir2 O3 1.955797 1_555
Ir2 O6 1.955797 1_545
Ir2 O9 1.955808 1_555
Ir2 O5 1.955808 1_545
Ir2 O11 1.956173 1_545
Ir2 O1 1.956173 1_555
Ir3 O6 1.955797 1_554
Ir3 O3 1.955797 1_555
Ir3 O13 1.955808 1_555
Ir3 O4 1.955808 1_554
Ir3 O2 1.956173 1_554
Ir3 O12 1.956173 1_555
