# generated using pymatgen
data_Be5Nb6ZnRu6
_symmetry_space_group_name_H-M   'P 1'
_cell_length_a   7.35534824
_cell_length_b   7.35479491
_cell_length_c   7.35517621
_cell_angle_alpha   126.35424419
_cell_angle_beta   128.98817348
_cell_angle_gamma   77.17554892
_symmetry_Int_Tables_number   1
_chemical_formula_structural   Be5Nb6ZnRu6
_chemical_formula_sum   'Be5 Nb6 Zn1 Ru6'
_cell_volume   241.72481431
_cell_formula_units_Z   1
loop_
 _symmetry_equiv_pos_site_id
 _symmetry_equiv_pos_as_xyz
  1  'x, y, z'
loop_
 _atom_site_type_symbol
 _atom_site_label
 _atom_site_symmetry_multiplicity
 _atom_site_fract_x
 _atom_site_fract_y
 _atom_site_fract_z
 _atom_site_occupancy
  Be  Be0  1  0.74984728  0.49672904  0.24640375  1
  Be  Be1  1  0.25014027  0.49653126  0.74678184  1
  Be  Be2  1  0.33210170  0.82989501  0.49816188  1
  Be  Be3  1  0.66582374  0.16345937  0.49626306  1
  Be  Be4  1  0.83476242  0.83067363  0.99598237  1
  Nb  Nb0  1  0.55379295  0.08549771  0.03868235  1
  Nb  Nb1  1  0.45905390  0.50884807  0.55648137  1
  Nb  Nb2  1  0.95245145  0.50838884  0.04925577  1
  Nb  Nb3  1  0.04647188  0.08533115  0.53177281  1
  Nb  Nb4  1  0.74068200  0.89671911  0.64881350  1
  Nb  Nb5  1  0.24772091  0.89622890  0.15586753  1
  Zn  Zn0  1  0.16726698  0.16336222  0.99741717  1
  Ru  Ru0  1  0.49944254  0.24212282  0.74284751  1
  Ru  Ru1  1  0.99504376  0.24072392  0.24588955  1
  Ru  Ru2  1  0.12726448  0.74193594  0.61468040  1
  Ru  Ru3  1  0.87302151  0.49913767  0.62572041  1
  Ru  Ru4  1  0.62799301  0.75061471  0.12254353  1
  Ru  Ru5  1  0.37711922  0.50599963  0.12863621  1
loop_
_geom_bond_atom_site_label_1
_geom_bond_atom_site_label_2
_geom_bond_distance
_geom_bond_site_symmetry_2
Be0 Ru2 2.294570 1_655
Be0 Ru5 2.295624 1_555
Be0 Ru1 2.300107 1_555
Be0 Ru0 2.311150 1_554
Be0 Ru4 2.316536 1_555
Be0 Ru3 2.317937 1_555
Be0 Nb0 2.692023 1_555
Be0 Nb2 2.693337 1_555
Be0 Nb4 2.694348 1_555
Be1 Ru5 2.293827 1_556
Be1 Ru2 2.295324 1_555
Be1 Ru1 2.298809 1_455
Be1 Ru0 2.311672 1_555
Be1 Ru4 2.317738 1_556
Be1 Ru3 2.318646 1_455
Be1 Nb1 2.692047 1_555
Be1 Nb3 2.692858 1_555
Be1 Nb5 2.693185 1_556
Be2 Ru2 2.477443 1_555
Be2 Ru5 2.505566 1_555
Be2 Nb5 2.513419 1_555
Be2 Nb4 2.514102 1_555
Be2 Nb0 2.518224 1_566
Be2 Ru0 2.519207 1_565
Be2 Nb1 2.519789 1_555
Be2 Nb3 2.520938 1_565
Be2 Nb2 2.522765 1_455
Be3 Ru0 2.521188 1_555
Be3 Ru4 2.523973 1_545
Be3 Ru3 2.526220 1_555
Be3 Nb5 2.598002 1_545
Be3 Nb1 2.600153 1_555
Be3 Nb4 2.600696 1_545
Be3 Nb0 2.601367 1_555
Be3 Nb2 2.602900 1_556
Be3 Nb3 2.604008 1_655
Be4 Ru1 2.478576 1_566
Be4 Ru3 2.495696 1_555
Be4 Nb1 2.506138 1_555
Be4 Nb0 2.506309 1_566
Be4 Nb2 2.506951 1_556
Be4 Nb3 2.507050 1_666
Be4 Nb5 2.514904 1_656
Be4 Nb4 2.516536 1_555
Be4 Ru4 2.520928 1_556
Nb0 Zn0 2.626862 1_554
Nb0 Ru1 2.741843 1_555
Nb0 Ru4 2.743253 1_545
Nb0 Ru2 2.796164 1_544
Nb0 Ru0 2.809634 1_554
Nb0 Ru3 2.872716 1_555
Nb0 Ru5 2.926281 1_555
Nb1 Zn0 2.626811 1_554
Nb1 Ru3 2.744283 1_555
Nb1 Ru2 2.768584 1_555
Nb1 Ru4 2.781076 1_556
Nb1 Ru5 2.794194 1_555
Nb1 Ru0 2.869215 1_555
Nb1 Ru1 2.931200 1_455
Nb2 Zn0 2.629140 1_654
Nb2 Ru3 2.743449 1_554
Nb2 Ru2 2.771650 1_655
Nb2 Ru4 2.784352 1_555
Nb2 Ru5 2.791221 1_655
Nb2 Ru0 2.869112 1_554
Nb2 Ru1 2.932043 1_555
Nb3 Zn0 2.629779 1_555
Nb3 Ru4 2.741463 1_445
Nb3 Ru1 2.743537 1_455
Nb3 Ru2 2.794151 1_545
Nb3 Ru0 2.813375 1_555
Nb3 Ru3 2.874043 1_455
Nb3 Ru5 2.926180 1_556
Nb4 Zn0 2.629103 1_665
Nb4 Ru0 2.745999 1_565
Nb4 Ru5 2.747675 1_555
Nb4 Ru1 2.788837 1_566
Nb4 Ru3 2.807585 1_555
Nb4 Ru4 2.872604 1_555
Nb4 Ru2 2.926880 1_655
Nb5 Zn0 2.626623 1_564
Nb5 Ru5 2.743887 1_555
Nb5 Ru0 2.747848 1_565
Nb5 Ru1 2.789489 1_465
Nb5 Ru3 2.807001 1_454
Nb5 Ru4 2.872645 1_555
Nb5 Ru2 2.927573 1_554
Ru1 Zn0 2.574636 1_654
Ru2 Zn0 2.576130 1_565
Ru5 Zn0 2.575517 1_554
