# generated using pymatgen
data_Lu5SbI18
_symmetry_space_group_name_H-M   'P 1'
_cell_length_a   7.50356753
_cell_length_b   7.50391359
_cell_length_c   24.26988118
_cell_angle_alpha   90.09270325
_cell_angle_beta   89.95364937
_cell_angle_gamma   120.00153104
_symmetry_Int_Tables_number   1
_chemical_formula_structural   Lu5SbI18
_chemical_formula_sum   'Lu5 Sb1 I18'
_cell_volume   1183.44105838
_cell_formula_units_Z   1
loop_
 _symmetry_equiv_pos_site_id
 _symmetry_equiv_pos_as_xyz
  1  'x, y, z'
loop_
 _atom_site_type_symbol
 _atom_site_label
 _atom_site_symmetry_multiplicity
 _atom_site_fract_x
 _atom_site_fract_y
 _atom_site_fract_z
 _atom_site_occupancy
  Lu  Lu0  1  0.55621485  0.77810643  0.00000000  1
  Lu  Lu1  1  0.22196390  0.44504745  0.33328266  1
  Lu  Lu2  1  0.88842328  0.77805629  0.33335654  1
  Lu  Lu3  1  0.88842428  0.11036799  0.66664246  1
  Lu  Lu4  1  0.22196190  0.77691645  0.66671634  1
  Sb  Sb0  1  0.22270972  0.11135486  0.00000000  1
  I  I0  1  0.54531283  0.45136784  0.07160568  1
  I  I1  1  0.88194486  0.09183815  0.07187833  1
  I  I2  1  0.24090616  0.79033968  0.07161572  1
  I  I3  1  0.20271070  0.75888025  0.26282499  1
  I  I4  1  0.90833151  0.11121239  0.26266739  1
  I  I5  1  0.55505383  0.46412455  0.26260683  1
  I  I6  1  0.90847389  0.46519517  0.40414120  1
  I  I7  1  0.20173395  0.11249875  0.40409923  1
  I  I8  1  0.55568581  0.75918127  0.40401813  1
  I  I9  1  0.55568581  0.79650454  0.59598187  1
  I  I10  1  0.20173295  0.08923521  0.59590077  1
  I  I11  1  0.90847389  0.44327772  0.59585880  1
  I  I12  1  0.55505383  0.09092927  0.73739317  1
  I  I13  1  0.90833151  0.79711912  0.73733261  1
  I  I14  1  0.20270970  0.44382945  0.73717501  1
  I  I15  1  0.24090716  0.45056748  0.92838428  1
  I  I16  1  0.88194386  0.79010770  0.92812167  1
  I  I17  1  0.54531183  0.09394499  0.92839432  1
loop_
_geom_bond_atom_site_label_1
_geom_bond_atom_site_label_2
_geom_bond_distance
_geom_bond_site_symmetry_2
I0 Lu0 2.975104 1_555
I0 Sb0 3.034074 1_555
I1 Lu0 2.966254 1_545
I1 Sb0 3.036738 1_655
I2 Lu0 2.972732 1_555
I2 Sb0 3.030703 1_565
I3 Lu2 2.973960 1_455
I3 Lu1 2.973977 1_555
I4 Lu1 2.974543 1_655
I4 Lu2 2.975823 1_545
I5 Lu1 2.974154 1_555
I5 Lu2 2.975894 1_555
I6 Lu2 2.975273 1_555
I6 Lu1 2.976890 1_655
I7 Lu1 2.973004 1_555
I7 Lu2 2.977465 1_445
I8 Lu2 2.972360 1_555
I8 Lu1 2.977435 1_555
I9 Lu3 2.972352 1_565
I9 Lu4 2.977433 1_555
I10 Lu4 2.972987 1_545
I10 Lu3 2.977443 1_455
I11 Lu3 2.975250 1_555
I11 Lu4 2.976873 1_655
I12 Lu4 2.974174 1_545
I12 Lu3 2.975912 1_555
I13 Lu4 2.974545 1_655
I13 Lu3 2.975840 1_565
I14 Lu3 2.973962 1_455
I14 Lu4 2.973999 1_555
I15 Lu0 2.972719 1_556
I15 Sb0 3.030706 1_556
I16 Lu0 2.966239 1_556
I16 Sb0 3.036739 1_666
I17 Lu0 2.975120 1_546
I17 Sb0 3.034069 1_556
