# generated using pymatgen
data_Ta6Si6RuW5
_symmetry_space_group_name_H-M   'P 1'
_cell_length_a   7.64975744
_cell_length_b   7.65013309
_cell_length_c   7.65013197
_cell_angle_alpha   126.61811977
_cell_angle_beta   128.42941059
_cell_angle_gamma   77.40788089
_symmetry_Int_Tables_number   1
_chemical_formula_structural   Ta6Si6RuW5
_chemical_formula_sum   'Ta6 Si6 Ru1 W5'
_cell_volume   273.06328459
_cell_formula_units_Z   1
loop_
 _symmetry_equiv_pos_site_id
 _symmetry_equiv_pos_as_xyz
  1  'x, y, z'
loop_
 _atom_site_type_symbol
 _atom_site_label
 _atom_site_symmetry_multiplicity
 _atom_site_fract_x
 _atom_site_fract_y
 _atom_site_fract_z
 _atom_site_occupancy
  Ta  Ta0  1  0.54153776  0.09674679  0.05029336  1
  Ta  Ta1  1  0.45846224  0.50875560  0.55520803  1
  Ta  Ta2  1  0.95365840  0.50884106  0.05046222  1
  Ta  Ta3  1  0.04634160  0.09680382  0.55518266  1
  Ta  Ta4  1  0.74710583  0.88727030  0.63438504  1
  Ta  Ta5  1  0.25289417  0.88727921  0.14016647  1
  Si  Si0  1  0.33465515  0.83490214  0.50017047  1
  Si  Si1  1  0.66534485  0.16551432  0.50024699  1
  Si  Si2  1  0.83759655  0.84227500  0.00464900  1
  Si  Si3  1  0.16240345  0.16705146  0.00467746  1
  Si  Si4  1  0.75126593  0.48657295  0.23781773  1
  Si  Si5  1  0.24873407  0.48655180  0.73530802  1
  Ru  Ru0  1  1.00000000  0.23738073  0.23738073  1
  W  W0  1  0.12813583  0.75286755  0.62485401  1
  W  W1  1  0.87186417  0.49671718  0.62473272  1
  W  W2  1  0.62887712  0.75509218  0.12625274  1
  W  W3  1  0.37112288  0.49737563  0.12621607  1
  W  W4  1  0.50000000  0.23399529  0.73399529  1
loop_
_geom_bond_atom_site_label_1
_geom_bond_atom_site_label_2
_geom_bond_distance
_geom_bond_site_symmetry_2
Ta0 W0 2.851822 1_544
Ta0 W2 2.860657 1_545
Ta0 W3 2.916459 1_555
Ta0 W1 2.930148 1_555
Ta0 W4 2.998010 1_554
Ta1 W1 2.851814 1_555
Ta1 W3 2.860642 1_555
Ta1 W2 2.916466 1_556
Ta1 W0 2.930151 1_555
Ta1 W4 2.998017 1_555
Ta2 W1 2.852912 1_554
Ta2 W3 2.860048 1_655
Ta2 W2 2.916290 1_555
Ta2 W0 2.930003 1_655
Ta2 W4 2.998389 1_554
Ta3 W0 2.852925 1_545
Ta3 W2 2.860052 1_445
Ta3 W3 2.916293 1_556
Ta3 W1 2.929996 1_455
Ta3 W4 2.998389 1_555
Ta4 W3 2.879288 1_555
Ta4 W2 2.879329 1_555
Ta4 W4 2.895304 1_565
Ta4 W1 2.902456 1_555
Ta4 W0 2.902846 1_655
Ta5 W2 2.879296 1_555
Ta5 W3 2.879327 1_555
Ta5 W4 2.895295 1_565
Ta5 W0 2.902460 1_554
Ta5 W1 2.902850 1_454
Si0 W4 2.545022 1_565
Si0 W3 2.606735 1_555
Si0 W0 2.611352 1_555
Si0 Ta2 2.649592 1_455
Si0 Ta1 2.650813 1_555
Si0 Ta5 2.683765 1_555
Si0 Ta4 2.683840 1_555
Si0 Ta0 2.697141 1_566
Si0 Ta3 2.697592 1_565
Si1 W4 2.545019 1_555
Si1 W2 2.606735 1_545
Si1 W1 2.611348 1_555
Si1 Ta3 2.649592 1_655
Si1 Ta0 2.650820 1_555
Si1 Ta4 2.683773 1_545
Si1 Ta5 2.683839 1_545
Si1 Ta1 2.697147 1_555
Si1 Ta2 2.697593 1_556
Si2 W2 2.628783 1_555
Si2 W1 2.642628 1_554
Si2 Ta1 2.666148 1_554
Si2 Ta2 2.666456 1_555
Si2 Ta4 2.691268 1_554
Si2 Ta5 2.691286 1_655
Si2 Ta0 2.700133 1_565
Si2 Ta3 2.700301 1_665
Si3 W3 2.628781 1_555
Si3 W0 2.642623 1_544
Si3 Ta0 2.666144 1_555
Si3 Ta3 2.666452 1_554
Si3 Ta5 2.691277 1_545
Si3 Ta4 2.691290 1_444
Si3 Ta1 2.700134 1_555
Si3 Ta2 2.700307 1_455
Si4 W4 2.410235 1_554
Si4 W1 2.445626 1_555
Si4 W0 2.445858 1_655
Si4 W2 2.466660 1_555
Si4 W3 2.466839 1_555
Si4 Ta4 2.754049 1_555
Si4 Ta2 2.765012 1_555
Si4 Ta0 2.765312 1_555
Si5 W4 2.410236 1_555
Si5 W0 2.445619 1_555
Si5 W1 2.445858 1_455
Si5 W3 2.466659 1_556
Si5 W2 2.466837 1_556
Si5 Ta5 2.754053 1_556
Si5 Ta3 2.765008 1_555
Si5 Ta1 2.765325 1_555
Ru0 Si4 2.381890 1_555
Ru0 Si5 2.381895 1_655
Ru0 Si2 2.513416 1_545
Ru0 Si3 2.513420 1_655
Ru0 Ta5 2.936358 1_645
Ru0 Ta4 2.936360 1_544
Ru0 Ta0 3.012359 1_555
Ru0 Ta1 3.012362 1_655
Ru0 Ta3 3.012407 1_655
Ru0 Ta2 3.012407 1_555
