# generated using pymatgen
data_Hf10Sn2Sb5
_symmetry_space_group_name_H-M   'P 1'
_cell_length_a   5.83916236
_cell_length_b   8.52375682
_cell_length_c   8.51218584
_cell_angle_alpha   120.04498193
_cell_angle_beta   89.95668668
_cell_angle_gamma   90.08651109
_symmetry_Int_Tables_number   1
_chemical_formula_structural   Hf10Sn2Sb5
_chemical_formula_sum   'Hf10 Sn2 Sb5'
_cell_volume   366.73791011
_cell_formula_units_Z   1
loop_
 _symmetry_equiv_pos_site_id
 _symmetry_equiv_pos_as_xyz
  1  'x, y, z'
loop_
 _atom_site_type_symbol
 _atom_site_label
 _atom_site_symmetry_multiplicity
 _atom_site_fract_x
 _atom_site_fract_y
 _atom_site_fract_z
 _atom_site_occupancy
  Hf  Hf0  1  0.50015838  0.33330044  0.66748632  1
  Hf  Hf1  1  0.50015838  0.66581413  0.33251368  1
  Hf  Hf2  1  0.00192836  0.66642502  0.33339023  1
  Hf  Hf3  1  0.00192836  0.33303480  0.66660977  1
  Hf  Hf4  1  0.77931172  0.26713513  1.00000000  1
  Hf  Hf5  1  0.78182443  0.73484951  0.73403778  1
  Hf  Hf6  1  0.78182443  0.00080973  0.26596222  1
  Hf  Hf7  1  0.21782928  0.73170891  0.00000000  1
  Hf  Hf8  1  0.21693114  0.26645941  0.26702521  1
  Hf  Hf9  1  0.21693114  0.99943520  0.73297479  1
  Sn  Sn0  1  0.26039423  0.61265705  0.61292955  1
  Sn  Sn1  1  0.26039423  0.99972750  0.38707045  1
  Sb  Sb0  1  0.74222584  0.61212751  0.00000000  1
  Sb  Sb1  1  0.74205282  0.38976938  0.39005965  1
  Sb  Sb2  1  0.74205282  0.99970973  0.60994035  1
  Sb  Sb3  1  0.25647391  0.38744362  1.00000000  1
  Sb  Sb4  1  0.49757954  0.99959596  1.00000000  1
loop_
_geom_bond_atom_site_label_1
_geom_bond_atom_site_label_2
_geom_bond_distance
_geom_bond_site_symmetry_2
Hf0 Sb0 2.986216 1_556
Hf0 Sb1 2.989071 1_555
Hf0 Sb2 2.989402 1_545
Hf0 Sb3 2.989449 1_555
Hf0 Sn1 2.989803 1_545
Hf0 Sn0 2.994002 1_555
Hf1 Sb0 2.986216 1_555
Hf1 Sb2 2.989071 1_555
Hf1 Sb1 2.989402 1_555
Hf1 Sb3 2.989449 1_554
Hf1 Sn0 2.989803 1_555
Hf1 Sn1 2.994002 1_555
Hf2 Sb3 3.027246 1_554
Hf2 Sb1 3.037000 1_455
Hf2 Sb2 3.037372 1_455
Hf2 Sn1 3.040715 1_555
Hf2 Sn0 3.041268 1_555
Hf2 Sb0 3.042457 1_455
Hf3 Sb3 3.027246 1_555
Hf3 Sb2 3.037000 1_445
Hf3 Sb1 3.037372 1_455
Hf3 Sn0 3.040715 1_555
Hf3 Sn1 3.041268 1_545
Hf3 Sb0 3.042457 1_456
Hf4 Sb4 2.809868 1_545
Hf4 Sb2 2.947595 1_545
Hf4 Sb1 2.947595 1_556
Hf4 Sb0 2.948920 1_556
Hf4 Sb3 2.967498 1_655
Hf4 Sb3 3.222030 1_555
Hf5 Sb4 2.803989 1_555
Hf5 Sb0 2.939881 1_556
Hf5 Sb1 2.941724 1_555
Hf5 Sb2 2.942203 1_555
Hf5 Sn0 2.980896 1_655
Hf5 Sn0 3.215250 1_555
Hf6 Sb4 2.803996 1_544
Hf6 Sb0 2.939868 1_545
Hf6 Sb2 2.941716 1_545
Hf6 Sb1 2.942219 1_555
Hf6 Sn1 2.980892 1_645
Hf6 Sn1 3.215247 1_545
Hf7 Sb4 2.805533 1_554
Hf7 Sn1 2.932378 1_555
Hf7 Sn0 2.932378 1_554
Hf7 Sb3 2.943437 1_554
Hf7 Sb0 2.956825 1_455
Hf7 Sb0 3.228689 1_555
Hf8 Sb4 2.802567 1_544
Hf8 Sn1 2.933627 1_545
Hf8 Sb3 2.937482 1_554
Hf8 Sn0 2.956375 1_555
Hf8 Sb1 2.965236 1_455
Hf8 Sb1 3.239819 1_555
Hf9 Sb4 2.802570 1_555
Hf9 Sn0 2.933635 1_555
Hf9 Sb3 2.937476 1_565
Hf9 Sn1 2.956371 1_555
Hf9 Sb2 2.965235 1_455
Hf9 Sb2 3.239818 1_555
