# generated using pymatgen
data_Hf4Ta2VH16
_symmetry_space_group_name_H-M   'P 1'
_cell_length_a   6.38400801
_cell_length_b   6.57529687
_cell_length_c   6.38400825
_cell_angle_alpha   59.00376197
_cell_angle_beta   61.99248149
_cell_angle_gamma   59.00376891
_symmetry_Int_Tables_number   1
_chemical_formula_structural   Hf4Ta2VH16
_chemical_formula_sum   'Hf4 Ta2 V1 H16'
_cell_volume   189.13957368
_cell_formula_units_Z   1
loop_
 _symmetry_equiv_pos_site_id
 _symmetry_equiv_pos_as_xyz
  1  'x, y, z'
loop_
 _atom_site_type_symbol
 _atom_site_label
 _atom_site_symmetry_multiplicity
 _atom_site_fract_x
 _atom_site_fract_y
 _atom_site_fract_z
 _atom_site_occupancy
  Hf  Hf0  1  0.00000000  0.00000000  0.50000000  1
  Hf  Hf1  1  0.00000000  0.50000000  0.50000000  1
  Hf  Hf2  1  0.50000000  0.50000000  0.00000000  1
  Hf  Hf3  1  0.50000000  0.00000000  0.00000000  1
  Ta  Ta0  1  0.50000000  0.00000000  0.50000000  1
  Ta  Ta1  1  0.00000000  0.50000000  0.00000000  1
  V  V0  1  0.00000000  0.00000000  0.00000000  1
  H  H0  1  0.86977939  0.88222213  0.36577535  1
  H  H1  1  0.88222213  0.36577535  0.88222213  1
  H  H2  1  0.36577535  0.88222213  0.86977939  1
  H  H3  1  0.88222213  0.86977939  0.88222213  1
  H  H4  1  0.13022061  0.11777787  0.63422465  1
  H  H5  1  0.11777787  0.63422465  0.11777787  1
  H  H6  1  0.63422465  0.11777787  0.13022061  1
  H  H7  1  0.11777787  0.13022061  0.11777787  1
  H  H8  1  0.63356120  0.61680836  0.13282207  1
  H  H9  1  0.61680836  0.13282207  0.61680836  1
  H  H10  1  0.13282207  0.61680836  0.63356120  1
  H  H11  1  0.61680836  0.63356120  0.61680836  1
  H  H12  1  0.36643880  0.38319164  0.86717793  1
  H  H13  1  0.38319164  0.86717793  0.38319164  1
  H  H14  1  0.86717793  0.38319164  0.36643880  1
  H  H15  1  0.38319164  0.36643880  0.38319164  1
loop_
_geom_bond_atom_site_label_1
_geom_bond_atom_site_label_2
_geom_bond_distance
_geom_bond_site_symmetry_2
H0 V0 1.928979 1_665
H0 Ta0 1.951286 1_565
H0 Hf1 2.010146 1_655
H0 Hf0 2.010151 1_665
H1 V0 1.928979 1_656
H1 Ta1 1.951291 1_656
H1 Hf1 2.010146 1_655
H1 Hf2 2.010146 1_556
H2 V0 1.928979 1_566
H2 Ta0 1.951286 1_565
H2 Hf2 2.010146 1_556
H2 Hf3 2.010151 1_566
H3 V0 1.928984 1_666
H3 Ta1 1.951286 1_656
H3 Hf0 2.010146 1_665
H3 Hf3 2.010146 1_566
H4 V0 1.928979 1_556
H4 Ta0 1.951286 1_555
H4 Hf1 2.010146 1_555
H4 Hf0 2.010151 1_555
H5 V0 1.928979 1_565
H5 Ta1 1.951291 1_555
H5 Hf1 2.010146 1_555
H5 Hf2 2.010146 1_555
H6 V0 1.928979 1_655
H6 Ta0 1.951286 1_555
H6 Hf2 2.010146 1_555
H6 Hf3 2.010151 1_555
H7 V0 1.928984 1_555
H7 Ta1 1.951286 1_555
H7 Hf0 2.010146 1_555
H7 Hf3 2.010146 1_555
H8 Ta1 1.933567 1_655
H8 Hf2 2.014998 1_555
H8 Hf3 2.014999 1_565
H9 Ta0 1.933567 1_555
H9 Hf3 2.014998 1_556
H9 Hf0 2.014998 1_655
H10 Ta1 1.933567 1_556
H10 Hf1 2.014998 1_555
H10 Hf0 2.014999 1_565
H11 Ta0 1.933567 1_565
H11 Hf2 2.014998 1_556
H11 Hf1 2.014998 1_655
H12 Ta1 1.933567 1_556
H12 Hf2 2.014998 1_556
H12 Hf3 2.014999 1_556
H13 Ta0 1.933567 1_565
H13 Hf3 2.014998 1_565
H13 Hf0 2.014998 1_565
H14 Ta1 1.933567 1_655
H14 Hf1 2.014998 1_655
H14 Hf0 2.014999 1_655
H15 Ta0 1.933567 1_555
H15 Hf2 2.014998 1_555
H15 Hf1 2.014998 1_555
