# generated using pymatgen
data_Hf6SiTc6Ge5
_symmetry_space_group_name_H-M   'P 1'
_cell_length_a   7.79566052
_cell_length_b   7.79215275
_cell_length_c   7.79566053
_cell_angle_alpha   126.54451284
_cell_angle_beta   128.23695482
_cell_angle_gamma   77.63194781
_symmetry_Int_Tables_number   1
_chemical_formula_structural   Hf6SiTc6Ge5
_chemical_formula_sum   'Hf6 Si1 Tc6 Ge5'
_cell_volume   289.74785425
_cell_formula_units_Z   1
loop_
 _symmetry_equiv_pos_site_id
 _symmetry_equiv_pos_as_xyz
  1  'x, y, z'
loop_
 _atom_site_type_symbol
 _atom_site_label
 _atom_site_symmetry_multiplicity
 _atom_site_fract_x
 _atom_site_fract_y
 _atom_site_fract_z
 _atom_site_occupancy
  Hf  Hf0  1  0.55022356  0.09695473  0.04673117  1
  Hf  Hf1  1  0.44928216  0.49748310  0.54819993  1
  Hf  Hf2  1  0.94981606  0.49629942  0.04648437  1
  Hf  Hf3  1  0.05054609  0.09873601  0.54818992  1
  Hf  Hf4  1  0.74993004  0.89731423  0.64738419  1
  Hf  Hf5  1  0.24986807  0.89482867  0.14495960  1
  Si  Si0  1  0.24999529  0.49661216  0.74661587  1
  Tc  Tc0  1  0.13263568  0.75103035  0.62934214  1
  Tc  Tc1  1  0.87834102  0.49685028  0.62926119  1
  Tc  Tc2  1  0.62168921  0.75103035  0.11839567  1
  Tc  Tc3  1  0.36758909  0.49685028  0.11851026  1
  Tc  Tc4  1  0.49485243  0.24268456  0.73740425  1
  Tc  Tc5  1  0.00528030  0.24268456  0.24783212  1
  Ge  Ge0  1  0.33299807  0.83024437  0.49665016  1
  Ge  Ge1  1  0.66619661  0.16344721  0.49641596  1
  Ge  Ge2  1  0.83359321  0.83024437  0.99724431  1
  Ge  Ge3  1  0.16703025  0.16344721  0.99725060  1
  Ge  Ge4  1  0.75013187  0.49725715  0.24712628  1
loop_
_geom_bond_atom_site_label_1
_geom_bond_atom_site_label_2
_geom_bond_distance
_geom_bond_site_symmetry_2
Hf0 Tc0 2.941591 1_544
Hf0 Tc2 2.941595 1_545
Hf0 Tc4 3.008861 1_554
Hf0 Tc5 3.008861 1_655
Hf0 Tc3 3.009836 1_555
Hf0 Tc1 3.009837 1_555
Hf1 Si0 2.792445 1_555
Hf1 Tc0 2.958396 1_555
Hf1 Tc2 2.958404 1_556
Hf1 Tc5 2.963171 1_555
Hf1 Tc4 2.963174 1_555
Hf1 Tc3 2.994535 1_555
Hf1 Tc1 2.994547 1_555
Hf2 Tc3 2.943073 1_655
Hf2 Tc1 2.943081 1_554
Hf2 Tc5 3.007332 1_655
Hf2 Tc4 3.007336 1_554
Hf2 Tc2 3.012002 1_555
Hf2 Tc0 3.012002 1_655
Hf3 Si0 2.792647 1_555
Hf3 Tc1 2.959125 1_455
Hf3 Tc3 2.959128 1_556
Hf3 Tc5 2.966587 1_555
Hf3 Tc4 2.966587 1_555
Hf3 Tc2 2.991289 1_445
Hf3 Tc0 2.991293 1_545
Hf4 Tc4 2.979068 1_565
Hf4 Tc5 2.979068 1_666
Hf4 Tc3 3.011862 1_555
Hf4 Tc1 3.011863 1_555
Hf4 Tc2 3.015240 1_555
Hf4 Tc0 3.015244 1_655
Hf5 Si0 2.792647 1_554
Hf5 Tc5 2.952268 1_565
Hf5 Tc4 2.952272 1_565
Hf5 Tc1 2.958910 1_454
Hf5 Tc3 2.958917 1_555
Hf5 Tc0 2.962353 1_554
Hf5 Tc2 2.962361 1_555
Si0 Tc5 2.438501 1_555
Si0 Tc4 2.438505 1_555
Si0 Tc0 2.439076 1_555
Si0 Tc2 2.439085 1_556
Si0 Tc1 2.439257 1_455
Si0 Tc3 2.439269 1_556
Ge0 Tc0 2.657840 1_555
Ge0 Tc4 2.658124 1_565
Ge0 Tc3 2.659943 1_555
Ge0 Hf0 2.735194 1_566
Ge0 Hf4 2.736203 1_555
Ge0 Hf2 2.736499 1_455
Ge0 Hf1 2.736712 1_555
Ge0 Hf5 2.737526 1_555
Ge0 Hf3 2.739970 1_565
Ge1 Tc2 2.658186 1_545
Ge1 Tc4 2.658261 1_555
Ge1 Tc1 2.659556 1_555
Ge1 Hf2 2.734823 1_556
Ge1 Hf4 2.736289 1_545
Ge1 Hf0 2.736692 1_555
Ge1 Hf3 2.737323 1_655
Ge1 Hf5 2.737686 1_545
Ge1 Hf1 2.739611 1_555
Ge2 Tc2 2.657846 1_556
Ge2 Tc5 2.658121 1_666
Ge2 Tc1 2.659943 1_555
Ge2 Hf0 2.735192 1_566
Ge2 Hf4 2.736191 1_555
Ge2 Hf2 2.736511 1_556
Ge2 Hf1 2.736712 1_555
Ge2 Hf5 2.737523 1_656
Ge2 Hf3 2.739980 1_666
Ge3 Tc0 2.658188 1_545
Ge3 Tc5 2.658254 1_556
Ge3 Tc3 2.659556 1_556
Ge3 Hf2 2.734815 1_456
Ge3 Hf4 2.736284 1_445
Ge3 Hf0 2.736699 1_556
Ge3 Hf3 2.737326 1_555
Ge3 Hf5 2.737681 1_546
Ge3 Hf1 2.739607 1_556
Ge4 Tc2 2.488211 1_555
Ge4 Tc0 2.488211 1_655
Ge4 Tc1 2.489519 1_555
Ge4 Tc3 2.489526 1_555
Ge4 Tc5 2.490083 1_655
Ge4 Tc4 2.490088 1_554
Ge4 Hf0 2.804352 1_555
Ge4 Hf2 2.804433 1_555
Ge4 Hf4 2.806072 1_555
