# generated using pymatgen
data_Y6AlCoOs
_symmetry_space_group_name_H-M   'P 1'
_cell_length_a   8.38198173
_cell_length_b   8.38199278
_cell_length_c   8.38198059
_cell_angle_alpha   112.67158255
_cell_angle_beta   110.14372259
_cell_angle_gamma   105.67464690
_symmetry_Int_Tables_number   1
_chemical_formula_structural   Y6AlCoOs
_chemical_formula_sum   'Y12 Al2 Co2 Os2'
_cell_volume   451.61846493
_cell_formula_units_Z   2
loop_
 _symmetry_equiv_pos_site_id
 _symmetry_equiv_pos_as_xyz
  1  'x, y, z'
loop_
 _atom_site_type_symbol
 _atom_site_label
 _atom_site_symmetry_multiplicity
 _atom_site_fract_x
 _atom_site_fract_y
 _atom_site_fract_z
 _atom_site_occupancy
  Y  Y0  1  0.05075199  0.74374867  0.30700532  1
  Y  Y1  1  0.94924801  0.25625133  0.69299468  1
  Y  Y2  1  0.56325665  0.25625133  0.30700432  1
  Y  Y3  1  0.43674335  0.74374867  0.69299568  1
  Y  Y4  1  0.67537048  0.85705897  0.18168850  1
  Y  Y5  1  0.32463052  0.50631902  0.18168950  1
  Y  Y6  1  0.32462952  0.14294103  0.81831150  1
  Y  Y7  1  0.67536948  0.49368098  0.81831050  1
  Y  Y8  1  0.18057145  0.21848763  0.39905908  1
  Y  Y9  1  0.81942855  0.21848763  0.03791618  1
  Y  Y10  1  0.18057145  0.78151237  0.96208382  1
  Y  Y11  1  0.81942855  0.78151237  0.60094092  1
  Al  Al0  1  0.00000000  0.50000000  0.50000000  1
  Al  Al1  1  0.50000000  0.00000000  0.50000000  1
  Co  Co0  1  0.89113082  0.89113082  0.00000000  1
  Co  Co1  1  0.10886918  0.10886918  1.00000000  1
  Os  Os0  1  0.67765019  0.50000000  0.17765019  1
  Os  Os1  1  0.32234981  0.50000000  0.82234981  1
loop_
_geom_bond_atom_site_label_1
_geom_bond_atom_site_label_2
_geom_bond_distance
_geom_bond_site_symmetry_2
Y0 Y4 3.465976 1_455
Y0 Y7 3.465994 1_454
Y0 Y8 3.511265 1_565
Y0 Y10 3.511269 1_554
Y0 Y6 3.584944 1_565
Y0 Y5 3.584957 1_555
Y0 Y11 3.598684 1_455
Y0 Y9 3.598705 1_455
Y0 Y3 3.704811 1_555
Y1 Y6 3.465976 1_655
Y1 Y5 3.465994 1_656
Y1 Y11 3.511265 1_545
Y1 Y9 3.511269 1_556
Y1 Y4 3.584944 1_545
Y1 Y7 3.584957 1_555
Y1 Y8 3.598684 1_655
Y1 Y10 3.598705 1_655
Y1 Y2 3.704811 1_555
Y2 Y6 3.465983 1_554
Y2 Y5 3.465988 1_555
Y2 Y8 3.511265 1_555
Y2 Y7 3.584944 1_555
Y2 Y4 3.584945 1_545
Y2 Y9 3.598691 1_555
Y3 Y4 3.465983 1_556
Y3 Y7 3.465988 1_555
Y3 Y9 3.511266 1_566
Y3 Y5 3.584944 1_555
Y3 Y6 3.584945 1_565
Y3 Y8 3.598705 1_555
Y4 Y7 3.376752 1_554
Y4 Y5 3.551873 1_555
Y4 Y9 3.732040 1_565
Y4 Y8 3.732041 1_665
Y5 Y6 3.376752 1_554
Y5 Y8 3.732041 1_555
Y5 Y9 3.732046 1_455
Y6 Y7 3.551873 1_555
Y6 Y8 3.662567 1_555
Y6 Y9 3.662568 1_556
Y7 Y8 3.662562 1_555
Y7 Y9 3.662570 1_556
Y8 Y9 3.466316 1_455
Y10 Y11 3.466316 1_455
Y10 Y2 3.511266 1_566
Y10 Y3 3.598691 1_555
Y10 Y4 3.662568 1_556
Y10 Y5 3.662570 1_556
Y10 Y6 3.732040 1_565
Y10 Y7 3.732046 1_455
Y11 Y3 3.511265 1_555
Y11 Y2 3.598705 1_555
Y11 Y5 3.662562 1_555
Y11 Y4 3.662567 1_555
Y11 Y6 3.732041 1_665
Y11 Y7 3.732041 1_555
Al0 Y0 3.086149 1_555
Al0 Y1 3.086149 1_455
Al0 Y3 3.086150 1_555
Al0 Y2 3.086150 1_455
Al0 Os1 3.093972 1_555
Al0 Os0 3.093972 1_455
Al0 Y9 3.138044 1_455
Al0 Y10 3.138044 1_555
Al0 Y11 3.138044 1_455
Al0 Y8 3.138044 1_555
Al1 Y2 3.188331 1_555
Al1 Y3 3.188331 1_545
Al1 Y1 3.188339 1_555
Al1 Y0 3.188339 1_545
Al1 Y7 3.450146 1_555
Al1 Y5 3.450146 1_545
Al1 Y6 3.450147 1_555
Al1 Y4 3.450147 1_545
Al1 Y10 3.677256 1_544
Al1 Y9 3.677256 1_556
Al1 Y11 3.677257 1_545
Al1 Y8 3.677257 1_555
Co0 Co1 2.204989 1_664
Co0 Y4 2.761274 1_555
Co0 Y7 2.761286 1_554
Co0 Y11 2.888180 1_554
Co0 Y10 2.888181 1_654
Co0 Y8 2.888184 1_665
Co0 Y9 2.888184 1_565
Co0 Y0 3.303112 1_655
Co0 Y3 3.303115 1_554
Co1 Y6 2.761274 1_555
Co1 Y5 2.761286 1_556
Co1 Y8 2.888180 1_556
Co1 Y9 2.888181 1_456
Co1 Y11 2.888184 1_445
Co1 Y10 2.888184 1_545
Co1 Y1 3.303112 1_455
Co1 Y2 3.303115 1_556
Os0 Y0 2.763039 1_655
Os0 Y2 2.763045 1_555
Os0 Y11 2.948779 1_555
Os0 Y9 2.948780 1_555
Os0 Y5 2.985292 1_555
Os0 Y7 2.985297 1_554
Os0 Y4 2.985299 1_555
Os0 Y6 2.985299 1_554
Os0 Os1 3.410238 1_554
Os1 Y1 2.763039 1_455
Os1 Y3 2.763045 1_555
Os1 Y8 2.948779 1_555
Os1 Y10 2.948780 1_555
Os1 Y7 2.985292 1_555
Os1 Y5 2.985297 1_556
Os1 Y6 2.985299 1_555
Os1 Y4 2.985299 1_556
