# generated using pymatgen
data_Zn(TcO4)2
_symmetry_space_group_name_H-M   'P 1'
_cell_length_a   5.67073583
_cell_length_b   5.67073577
_cell_length_c   6.26987223
_cell_angle_alpha   90.00000000
_cell_angle_beta   90.00000000
_cell_angle_gamma   120.00000582
_symmetry_Int_Tables_number   1
_chemical_formula_structural   Zn(TcO4)2
_chemical_formula_sum   'Zn1 Tc2 O8'
_cell_volume   174.60960294
_cell_formula_units_Z   1
loop_
 _symmetry_equiv_pos_site_id
 _symmetry_equiv_pos_as_xyz
  1  'x, y, z'
loop_
 _atom_site_type_symbol
 _atom_site_label
 _atom_site_symmetry_multiplicity
 _atom_site_fract_x
 _atom_site_fract_y
 _atom_site_fract_z
 _atom_site_occupancy
  Zn  Zn0  1  0.00000000  0.00000000  0.00000000  1
  Tc  Tc0  1  0.33333300  0.66666700  0.28082701  1
  Tc  Tc1  1  0.66666700  0.33333300  0.71917299  1
  O  O0  1  0.66666700  0.33333300  0.45030364  1
  O  O1  1  0.33333300  0.66666700  0.54969636  1
  O  O2  1  0.81037786  0.14867425  0.81010213  1
  O  O3  1  0.14867425  0.33829740  0.18989787  1
  O  O4  1  0.66170260  0.81037786  0.18989787  1
  O  O5  1  0.18962214  0.85132575  0.18989787  1
  O  O6  1  0.85132575  0.66170260  0.81010213  1
  O  O7  1  0.33829740  0.18962214  0.81010213  1
loop_
_geom_bond_atom_site_label_1
_geom_bond_atom_site_label_2
_geom_bond_distance
_geom_bond_site_symmetry_2
O0 Tc1 1.685776 1_555
O1 Tc0 1.685776 1_555
O2 Tc1 1.714370 1_555
O2 Zn0 2.047256 1_656
O3 Tc0 1.714370 1_555
O3 Zn0 2.047260 1_555
O4 Tc0 1.714370 1_555
O4 Zn0 2.047259 1_665
O5 Tc0 1.714370 1_555
O5 Zn0 2.047256 1_565
O6 Tc1 1.714370 1_555
O6 Zn0 2.047260 1_666
O7 Tc1 1.714370 1_555
O7 Zn0 2.047259 1_556
