# generated using pymatgen
data_KSb3O5
_symmetry_space_group_name_H-M   'P 1'
_cell_length_a   13.96369204
_cell_length_b   6.98414635
_cell_length_c   7.93191141
_cell_angle_alpha   60.10862630
_cell_angle_beta   90.00000000
_cell_angle_gamma   90.00000000
_symmetry_Int_Tables_number   1
_chemical_formula_structural   KSb3O5
_chemical_formula_sum   'K4 Sb12 O20'
_cell_volume   670.65075106
_cell_formula_units_Z   4
loop_
 _symmetry_equiv_pos_site_id
 _symmetry_equiv_pos_as_xyz
  1  'x, y, z'
loop_
 _atom_site_type_symbol
 _atom_site_label
 _atom_site_symmetry_multiplicity
 _atom_site_fract_x
 _atom_site_fract_y
 _atom_site_fract_z
 _atom_site_occupancy
  K  K0  1  0.24248229  0.94960113  0.95182818  1
  K  K1  1  0.74248229  0.05039887  0.54817182  1
  K  K2  1  0.75751771  0.05039887  0.04817182  1
  K  K3  1  0.25751771  0.94960113  0.45182818  1
  Sb  Sb0  1  0.60160945  0.53863482  0.63605513  1
  Sb  Sb1  1  0.10160945  0.46136518  0.86394487  1
  Sb  Sb2  1  0.39839055  0.46136518  0.36394487  1
  Sb  Sb3  1  0.89839055  0.53863482  0.13605513  1
  Sb  Sb4  1  0.01305609  0.98752412  0.21319971  1
  Sb  Sb5  1  0.51305609  0.01247588  0.28680029  1
  Sb  Sb6  1  0.98694391  0.01247588  0.78680029  1
  Sb  Sb7  1  0.48694391  0.98752412  0.71319971  1
  Sb  Sb8  1  0.64177676  0.51059168  0.07942659  1
  Sb  Sb9  1  0.14177676  0.48940832  0.42057341  1
  Sb  Sb10  1  0.35822324  0.48940832  0.92057341  1
  Sb  Sb11  1  0.85822324  0.51059168  0.57942659  1
  O  O0  1  0.13109180  0.17762611  0.10785241  1
  O  O1  1  0.63109180  0.82237389  0.39214759  1
  O  O2  1  0.86890820  0.82237389  0.89214759  1
  O  O3  1  0.36890820  0.17762611  0.60785241  1
  O  O4  1  0.15415855  0.33175686  0.71014873  1
  O  O5  1  0.65415855  0.66824314  0.78985127  1
  O  O6  1  0.84584145  0.66824314  0.28985127  1
  O  O7  1  0.34584145  0.33175686  0.21014873  1
  O  O8  1  0.09577500  0.74358175  0.43728824  1
  O  O9  1  0.59577500  0.25641825  0.06271176  1
  O  O10  1  0.90422500  0.25641825  0.56271176  1
  O  O11  1  0.40422500  0.74358175  0.93728824  1
  O  O12  1  0.46150898  0.80373687  0.59093410  1
  O  O13  1  0.96150898  0.19626313  0.90906590  1
  O  O14  1  0.53849102  0.19626313  0.40906590  1
  O  O15  1  0.03849102  0.80373687  0.09093410  1
  O  O16  1  0.27336110  0.60961530  0.36005250  1
  O  O17  1  0.77336110  0.39038470  0.13994750  1
  O  O18  1  0.72663890  0.39038470  0.63994750  1
  O  O19  1  0.22663890  0.60961530  0.86005250  1
loop_
_geom_bond_atom_site_label_1
_geom_bond_atom_site_label_2
_geom_bond_distance
_geom_bond_site_symmetry_2
K0 O4 2.686999 1_565
K0 O11 2.711085 1_555
K0 O19 2.817805 1_555
K0 O0 2.907163 1_566
K0 O16 2.940316 1_556
K0 O3 2.960749 1_565
K0 O15 3.041167 1_556
K1 O5 2.686999 1_545
K1 O10 2.711085 1_555
K1 O18 2.817805 1_555
K1 O1 2.907163 1_545
K1 O17 2.940316 1_555
K1 O2 2.960749 1_545
K1 O14 3.041167 1_555
K2 O6 2.686999 1_545
K2 O9 2.711085 1_555
K2 O17 2.817805 1_555
K2 O2 2.907163 1_544
K2 O18 2.940316 1_554
K2 O1 2.960749 1_545
K2 O13 3.041167 1_554
K3 O7 2.686999 1_565
K3 O8 2.711085 1_555
K3 O16 2.817805 1_555
K3 O3 2.907163 1_565
K3 O19 2.940316 1_555
K3 O0 2.960749 1_565
K3 O12 3.041167 1_555
O0 Sb1 2.004531 1_554
O0 Sb4 2.017882 1_545
O1 Sb0 2.004531 1_555
O1 Sb5 2.017882 1_565
O2 Sb3 2.004531 1_556
O2 Sb6 2.017882 1_565
O3 Sb2 2.004531 1_555
O3 Sb7 2.017882 1_545
O4 Sb1 1.986606 1_555
O4 Sb9 1.999302 1_555
O5 Sb0 1.986606 1_555
O5 Sb8 1.999302 1_556
O6 Sb3 1.986606 1_555
O6 Sb11 1.999302 1_555
O7 Sb2 1.986606 1_555
O7 Sb10 1.999302 1_554
O8 Sb9 1.953473 1_555
O8 Sb4 2.092330 1_555
O9 Sb8 1.953473 1_555
O9 Sb5 2.092330 1_555
O10 Sb11 1.953473 1_555
O10 Sb6 2.092330 1_555
O11 Sb10 1.953473 1_555
O11 Sb7 2.092330 1_555
O12 Sb7 1.988723 1_555
O12 Sb5 2.226570 1_565
O12 Sb0 2.592856 1_555
O13 Sb6 1.988723 1_555
O13 Sb4 2.226570 1_646
O13 Sb1 2.592856 1_655
O14 Sb5 1.988723 1_555
O14 Sb7 2.226570 1_545
O14 Sb2 2.592856 1_555
O15 Sb4 1.988723 1_555
O15 Sb6 2.226570 1_464
O15 Sb3 2.592856 1_455
O16 Sb9 1.977279 1_555
O16 Sb2 2.022181 1_555
O17 Sb8 1.977279 1_555
O17 Sb3 2.022181 1_555
O18 Sb11 1.977279 1_555
O18 Sb0 2.022181 1_555
O19 Sb10 1.977279 1_555
O19 Sb1 2.022181 1_555
