# generated using pymatgen
data_Y4Bi3Sb3Rh7
_symmetry_space_group_name_H-M   'P 1'
_cell_length_a   7.66428629
_cell_length_b   7.69988332
_cell_length_c   7.66428595
_cell_angle_alpha   109.56533427
_cell_angle_beta   109.37695395
_cell_angle_gamma   109.56533393
_symmetry_Int_Tables_number   1
_chemical_formula_structural   Y4Bi3Sb3Rh7
_chemical_formula_sum   'Y4 Bi3 Sb3 Rh7'
_cell_volume   347.77620912
_cell_formula_units_Z   1
loop_
 _symmetry_equiv_pos_site_id
 _symmetry_equiv_pos_as_xyz
  1  'x, y, z'
loop_
 _atom_site_type_symbol
 _atom_site_label
 _atom_site_symmetry_multiplicity
 _atom_site_fract_x
 _atom_site_fract_y
 _atom_site_fract_z
 _atom_site_occupancy
  Y  Y0  1  0.51374098  0.00305454  1.00000000  1
  Y  Y1  1  0.00000000  0.46655701  0.00000000  1
  Y  Y2  1  1.00000000  0.00305454  0.51374098  1
  Y  Y3  1  0.48625902  0.48931356  0.48625902  1
  Bi  Bi0  1  0.29997930  0.98859850  0.29997930  1
  Bi  Bi1  1  1.00000000  0.68862020  0.70002070  1
  Bi  Bi2  1  0.70002070  0.68862020  1.00000000  1
  Sb  Sb0  1  0.66487407  0.98984578  0.66487407  1
  Sb  Sb1  1  0.00000000  0.32497171  0.33512593  1
  Sb  Sb2  1  0.33512593  0.32497171  0.00000000  1
  Rh  Rh0  1  0.25304599  0.49594429  0.75200428  1
  Rh  Rh1  1  0.49895829  0.24289830  0.74695401  1
  Rh  Rh2  1  0.74695401  0.24289830  0.49895829  1
  Rh  Rh3  1  0.50104171  0.74394001  0.24799572  1
  Rh  Rh4  1  0.00000000  0.06682905  0.00000000  1
  Rh  Rh5  1  0.24799572  0.74394001  0.50104171  1
  Rh  Rh6  1  0.75200428  0.49594429  0.25304599  1
loop_
_geom_bond_atom_site_label_1
_geom_bond_atom_site_label_2
_geom_bond_distance
_geom_bond_site_symmetry_2
Bi0 Rh5 2.816258 1_555
Bi0 Rh3 2.816258 1_555
Bi0 Rh1 2.817112 1_565
Bi0 Rh2 2.817112 1_565
Bi0 Rh4 3.046697 1_565
Bi0 Y3 3.196131 1_565
Bi0 Y0 3.245186 1_564
Bi0 Y2 3.245186 1_465
Bi0 Y1 3.292800 1_555
Bi1 Rh2 2.816264 1_555
Bi1 Rh0 2.816264 1_655
Bi1 Rh6 2.817111 1_555
Bi1 Rh5 2.817111 1_655
Bi1 Rh4 3.046692 1_666
Bi1 Y2 3.196124 1_565
Bi1 Y0 3.245184 1_665
Bi1 Y3 3.245185 1_555
Bi1 Y1 3.292806 1_656
Bi2 Rh1 2.816264 1_555
Bi2 Rh6 2.816264 1_556
Bi2 Rh0 2.817111 1_555
Bi2 Rh3 2.817111 1_556
Bi2 Rh4 3.046692 1_666
Bi2 Y0 3.196124 1_565
Bi2 Y2 3.245184 1_566
Bi2 Y3 3.245184 1_555
Bi2 Y1 3.292806 1_656
Sb0 Y1 3.108239 1_666
Sb0 Y0 3.134871 1_565
Sb0 Y2 3.134871 1_565
Sb0 Y3 3.207928 1_555
Sb1 Y1 3.108239 1_555
Sb1 Y0 3.134870 1_454
Sb1 Y3 3.134870 1_555
Sb1 Y2 3.207928 1_455
Sb2 Y1 3.108239 1_555
Sb2 Y2 3.134870 1_454
Sb2 Y3 3.134870 1_555
Sb2 Y0 3.207928 1_554
Rh0 Sb1 2.657802 1_555
Rh0 Sb2 2.679307 1_556
Rh0 Y2 3.094822 1_455
Rh0 Y3 3.122974 1_555
Rh0 Y1 3.140931 1_556
Rh0 Y0 3.183611 1_565
Rh1 Sb2 2.657803 1_556
Rh1 Sb0 2.679307 1_545
Rh1 Y0 3.094822 1_555
Rh1 Y2 3.122974 1_455
Rh1 Y1 3.140930 1_656
Rh1 Y3 3.183611 1_555
Rh2 Sb1 2.657803 1_655
Rh2 Sb0 2.679307 1_545
Rh2 Y2 3.094822 1_555
Rh2 Y0 3.122974 1_554
Rh2 Y1 3.140930 1_656
Rh2 Y3 3.183611 1_555
Rh3 Sb0 2.657802 1_555
Rh3 Sb2 2.679307 1_555
Rh3 Y3 3.094822 1_555
Rh3 Y2 3.122974 1_565
Rh3 Y1 3.140930 1_555
Rh3 Y0 3.183611 1_564
Rh4 Sb0 2.669955 1_444
Rh4 Sb1 2.669956 1_555
Rh4 Sb2 2.669956 1_555
Rh4 Y1 3.077859 1_555
Rh5 Sb0 2.657802 1_555
Rh5 Sb1 2.679307 1_555
Rh5 Y3 3.094822 1_555
Rh5 Y0 3.122974 1_565
Rh5 Y1 3.140930 1_555
Rh5 Y2 3.183611 1_465
Rh6 Sb2 2.657802 1_555
Rh6 Sb1 2.679307 1_655
Rh6 Y0 3.094822 1_554
Rh6 Y3 3.122974 1_555
Rh6 Y1 3.140931 1_655
Rh6 Y2 3.183611 1_565
