# generated using pymatgen
data_RbNi9As2P3
_symmetry_space_group_name_H-M   'P 1'
_cell_length_a   6.59359589
_cell_length_b   6.59359654
_cell_length_c   10.94937862
_cell_angle_alpha   90.00000000
_cell_angle_beta   90.00000000
_cell_angle_gamma   120.00000167
_symmetry_Int_Tables_number   1
_chemical_formula_structural   RbNi9As2P3
_chemical_formula_sum   'Rb2 Ni18 As4 P6'
_cell_volume   412.25391966
_cell_formula_units_Z   2
loop_
 _symmetry_equiv_pos_site_id
 _symmetry_equiv_pos_as_xyz
  1  'x, y, z'
loop_
 _atom_site_type_symbol
 _atom_site_label
 _atom_site_symmetry_multiplicity
 _atom_site_fract_x
 _atom_site_fract_y
 _atom_site_fract_z
 _atom_site_occupancy
  Rb  Rb0  1  0.00000000  0.00000000  0.50000000  1
  Rb  Rb1  1  0.00000000  0.00000000  0.00000000  1
  Ni  Ni0  1  0.46209824  0.92419648  0.88514475  1
  Ni  Ni1  1  0.92419648  0.46209824  0.11485525  1
  Ni  Ni2  1  0.53790176  0.07580352  0.11485525  1
  Ni  Ni3  1  0.07580352  0.53790176  0.61485525  1
  Ni  Ni4  1  0.20072145  0.40144291  0.25000000  1
  Ni  Ni5  1  0.79927855  0.20072145  0.75000000  1
  Ni  Ni6  1  0.40144291  0.20072145  0.75000000  1
  Ni  Ni7  1  0.59855709  0.79927855  0.25000000  1
  Ni  Ni8  1  0.20072145  0.79927855  0.25000000  1
  Ni  Ni9  1  0.79927855  0.59855709  0.75000000  1
  Ni  Ni10  1  0.46209824  0.92419648  0.61485525  1
  Ni  Ni11  1  0.53790176  0.46209824  0.38514475  1
  Ni  Ni12  1  0.92419648  0.46209824  0.38514475  1
  Ni  Ni13  1  0.07580352  0.53790176  0.88514475  1
  Ni  Ni14  1  0.46209824  0.53790176  0.88514475  1
  Ni  Ni15  1  0.53790176  0.07580352  0.38514475  1
  Ni  Ni16  1  0.53790176  0.46209824  0.11485525  1
  Ni  Ni17  1  0.46209824  0.53790176  0.61485525  1
  As  As0  1  0.33333300  0.66666700  0.43894512  1
  As  As1  1  0.66666700  0.33333300  0.93894512  1
  As  As2  1  0.66666700  0.33333300  0.56105488  1
  As  As3  1  0.33333300  0.66666700  0.06105488  1
  P  P0  1  0.17266817  0.34533634  0.75000000  1
  P  P1  1  0.82733183  0.17266817  0.25000000  1
  P  P2  1  0.17266817  0.82733183  0.75000000  1
  P  P3  1  0.82733183  0.65466366  0.25000000  1
  P  P4  1  0.34533634  0.17266817  0.25000000  1
  P  P5  1  0.65466366  0.82733183  0.75000000  1
loop_
_geom_bond_atom_site_label_1
_geom_bond_atom_site_label_2
_geom_bond_distance
_geom_bond_site_symmetry_2
Ni0 P2 2.240682 1_555
Ni0 P5 2.240682 1_555
Ni0 Rb1 3.554966 1_666
Ni0 Rb1 3.554966 1_566
Ni1 P3 2.240682 1_555
Ni1 P1 2.240682 1_555
Ni1 Rb1 3.554966 1_655
Ni1 Rb1 3.554966 1_665
Ni2 P1 2.240682 1_555
Ni2 P4 2.240682 1_555
Ni2 Rb1 3.554966 1_555
Ni2 Rb1 3.554966 1_655
Ni3 P0 2.240682 1_555
Ni3 P2 2.240682 1_555
Ni3 Rb0 3.554966 1_565
Ni3 Rb0 3.554966 1_555
Ni4 P1 2.150115 1_455
Ni4 P4 2.150115 1_555
Ni4 Rb0 3.570410 1_555
Ni4 Rb1 3.570410 1_555
Ni5 P0 2.150115 1_655
Ni5 P5 2.150115 1_545
Ni5 Rb0 3.570409 1_655
Ni5 Rb1 3.570409 1_656
Ni6 P0 2.150115 1_555
Ni6 P2 2.150115 1_545
Ni6 Rb1 3.570409 1_556
Ni6 Rb0 3.570409 1_555
Ni7 P3 2.150115 1_555
Ni7 P1 2.150115 1_565
Ni7 Rb0 3.570409 1_665
Ni7 Rb1 3.570409 1_665
Ni8 P3 2.150115 1_455
Ni8 P4 2.150115 1_565
Ni8 Rb1 3.570409 1_565
Ni8 Rb0 3.570409 1_565
Ni9 P2 2.150115 1_655
Ni9 P5 2.150115 1_555
Ni9 Rb0 3.570410 1_665
Ni9 Rb1 3.570410 1_666
Ni10 P2 2.240682 1_555
Ni10 P5 2.240682 1_555
Ni10 Rb0 3.554966 1_665
Ni10 Rb0 3.554966 1_565
Ni11 P3 2.240682 1_555
Ni11 P4 2.240682 1_555
Ni11 Rb0 3.554966 1_555
Ni11 Rb0 3.554966 1_665
Ni12 P3 2.240682 1_555
Ni12 P1 2.240682 1_555
Ni12 Rb0 3.554966 1_655
Ni12 Rb0 3.554966 1_665
Ni13 P0 2.240682 1_555
Ni13 P2 2.240682 1_555
Ni13 Rb1 3.554966 1_566
Ni13 Rb1 3.554966 1_556
Ni14 P0 2.240682 1_555
Ni14 P5 2.240682 1_555
Ni14 Rb1 3.554966 1_666
Ni14 Rb1 3.554966 1_556
Ni15 P1 2.240682 1_555
Ni15 P4 2.240682 1_555
Ni15 Rb0 3.554966 1_555
Ni15 Rb0 3.554966 1_655
Ni16 P3 2.240682 1_555
Ni16 P4 2.240682 1_555
Ni16 Rb1 3.554966 1_555
Ni16 Rb1 3.554966 1_665
Ni17 P0 2.240682 1_555
Ni17 P5 2.240682 1_555
Ni17 Rb0 3.554966 1_665
Ni17 Rb0 3.554966 1_555
As0 Ni12 2.409383 1_455
As0 Ni15 2.409383 1_565
As0 Ni11 2.409389 1_555
As0 Ni3 2.423305 1_555
As0 Ni10 2.423305 1_555
As0 Ni17 2.423308 1_555
As0 Ni8 2.563927 1_555
As0 Ni7 2.563930 1_555
As0 Ni4 2.563930 1_555
As1 Ni13 2.409383 1_655
As1 Ni0 2.409383 1_545
As1 Ni14 2.409389 1_555
As1 Ni1 2.423305 1_556
As1 Ni2 2.423305 1_556
As1 Ni16 2.423308 1_556
As1 Ni5 2.563927 1_555
As1 Ni6 2.563930 1_555
As1 Ni9 2.563930 1_555
As2 Ni3 2.409383 1_655
As2 Ni10 2.409383 1_545
As2 Ni17 2.409389 1_555
As2 Ni12 2.423305 1_555
As2 Ni15 2.423305 1_555
As2 Ni11 2.423308 1_555
As2 Ni5 2.563927 1_555
As2 Ni6 2.563930 1_555
As2 Ni9 2.563930 1_555
As3 Ni1 2.409383 1_455
As3 Ni2 2.409383 1_565
As3 Ni16 2.409389 1_555
As3 Ni13 2.423305 1_554
As3 Ni0 2.423305 1_554
As3 Ni14 2.423308 1_554
As3 Ni8 2.563927 1_555
As3 Ni7 2.563930 1_555
As3 Ni4 2.563930 1_555
P0 Rb1 3.373667 1_556
P0 Rb0 3.373667 1_555
P1 Rb0 3.373667 1_655
P1 Rb1 3.373667 1_655
P2 Rb1 3.373667 1_566
P2 Rb0 3.373667 1_565
P3 Rb0 3.373667 1_665
P3 Rb1 3.373667 1_665
P4 Rb1 3.373667 1_555
P4 Rb0 3.373667 1_555
P5 Rb0 3.373667 1_665
P5 Rb1 3.373667 1_666
