# generated using pymatgen
data_Cr4CuAgSe8
_symmetry_space_group_name_H-M   'P 1'
_cell_length_a   7.44239071
_cell_length_b   7.44239065
_cell_length_c   7.44239061
_cell_angle_alpha   60.00000020
_cell_angle_beta   60.00000045
_cell_angle_gamma   60.00000004
_symmetry_Int_Tables_number   1
_chemical_formula_structural   Cr4CuAgSe8
_chemical_formula_sum   'Cr4 Cu1 Ag1 Se8'
_cell_volume   291.48914892
_cell_formula_units_Z   1
loop_
 _symmetry_equiv_pos_site_id
 _symmetry_equiv_pos_as_xyz
  1  'x, y, z'
loop_
 _atom_site_type_symbol
 _atom_site_label
 _atom_site_symmetry_multiplicity
 _atom_site_fract_x
 _atom_site_fract_y
 _atom_site_fract_z
 _atom_site_occupancy
  Cr  Cr0  1  0.62789433  0.12403456  0.12403456  1
  Cr  Cr1  1  0.12403456  0.62789433  0.12403456  1
  Cr  Cr2  1  0.12403456  0.12403456  0.62789433  1
  Cr  Cr3  1  0.12403456  0.12403456  0.12403456  1
  Cu  Cu0  1  0.75000000  0.75000000  0.75000000  1
  Ag  Ag0  1  0.50000000  0.50000000  0.50000000  1
  Se  Se0  1  0.35284555  0.88238482  0.88238482  1
  Se  Se1  1  0.88238482  0.35284555  0.88238482  1
  Se  Se2  1  0.88238482  0.88238482  0.35284555  1
  Se  Se3  1  0.88238482  0.88238482  0.88238482  1
  Se  Se4  1  0.91440839  0.36186320  0.36186320  1
  Se  Se5  1  0.36186320  0.91440839  0.36186320  1
  Se  Se6  1  0.36186320  0.36186320  0.91440839  1
  Se  Se7  1  0.36186320  0.36186320  0.36186320  1
loop_
_geom_bond_atom_site_label_1
_geom_bond_atom_site_label_2
_geom_bond_distance
_geom_bond_site_symmetry_2
Cr0 Se7 2.511962 1_555
Cr0 Se6 2.511962 1_554
Cr0 Se5 2.511962 1_545
Cr0 Se3 2.545190 1_544
Cr0 Se2 2.545200 1_545
Cr0 Se1 2.545200 1_554
Cr1 Se7 2.511962 1_555
Cr1 Se6 2.511962 1_554
Cr1 Se4 2.511962 1_455
Cr1 Se3 2.545190 1_454
Cr1 Se2 2.545200 1_455
Cr1 Se0 2.545200 1_554
Cr2 Se4 2.511962 1_455
Cr2 Se5 2.511962 1_545
Cr2 Se7 2.511962 1_555
Cr2 Se3 2.545190 1_445
Cr2 Se0 2.545200 1_545
Cr2 Se1 2.545200 1_455
Cr3 Se4 2.511962 1_455
Cr3 Se5 2.511962 1_545
Cr3 Se6 2.511962 1_554
Cr3 Se0 2.545189 1_544
Cr3 Se1 2.545189 1_454
Cr3 Se2 2.545189 1_445
Cu0 Se3 2.413383 1_555
Cu0 Se2 2.413383 1_555
Cu0 Se1 2.413383 1_555
Cu0 Se0 2.413383 1_555
Ag0 Se6 2.518230 1_555
Ag0 Se5 2.518230 1_555
Ag0 Se4 2.518230 1_555
Ag0 Se7 2.518242 1_555
