# generated using pymatgen
data_SrMg(GaPt)2
_symmetry_space_group_name_H-M   'P 1'
_cell_length_a   4.36396643
_cell_length_b   4.36396683
_cell_length_c   7.36832498
_cell_angle_alpha   90.00000000
_cell_angle_beta   90.00000000
_cell_angle_gamma   119.99999704
_symmetry_Int_Tables_number   1
_chemical_formula_structural   SrMg(GaPt)2
_chemical_formula_sum   'Sr1 Mg1 Ga2 Pt2'
_cell_volume   121.52405670
_cell_formula_units_Z   1
loop_
 _symmetry_equiv_pos_site_id
 _symmetry_equiv_pos_as_xyz
  1  'x, y, z'
loop_
 _atom_site_type_symbol
 _atom_site_label
 _atom_site_symmetry_multiplicity
 _atom_site_fract_x
 _atom_site_fract_y
 _atom_site_fract_z
 _atom_site_occupancy
  Sr  Sr0  1  0.00000000  0.00000000  0.00000000  1
  Mg  Mg0  1  0.00000000  0.00000000  0.50000000  1
  Ga  Ga0  1  0.33333300  0.66666700  0.31024398  1
  Ga  Ga1  1  0.66666700  0.33333300  0.68975602  1
  Pt  Pt0  1  0.33333300  0.66666700  0.68179732  1
  Pt  Pt1  1  0.66666700  0.33333300  0.31820268  1
loop_
_geom_bond_atom_site_label_1
_geom_bond_atom_site_label_2
_geom_bond_distance
_geom_bond_site_symmetry_2
Mg0 Pt0 2.853494 1_545
Mg0 Pt1 2.853494 1_455
Mg0 Pt1 2.853497 1_555
Mg0 Pt0 2.853497 1_445
Mg0 Pt0 2.853497 1_555
Mg0 Pt1 2.853497 1_445
Ga0 Pt1 2.520217 1_455
Ga0 Pt1 2.520217 1_565
Ga0 Pt1 2.520225 1_555
Ga0 Pt0 2.737726 1_555
Ga0 Mg0 2.881488 1_565
Ga0 Mg0 2.881491 1_665
Ga0 Mg0 2.881492 1_555
Ga0 Sr0 3.402022 1_565
Ga0 Sr0 3.402025 1_665
Ga0 Sr0 3.402025 1_555
Ga1 Pt0 2.520217 1_655
Ga1 Pt0 2.520217 1_545
Ga1 Pt0 2.520225 1_555
Ga1 Pt1 2.737726 1_555
Ga1 Mg0 2.881488 1_655
Ga1 Mg0 2.881491 1_555
Ga1 Mg0 2.881492 1_665
Ga1 Sr0 3.402022 1_656
Ga1 Sr0 3.402025 1_556
Ga1 Sr0 3.402025 1_666
Pt0 Sr0 3.441700 1_566
Pt0 Sr0 3.441703 1_666
Pt0 Sr0 3.441703 1_556
Pt1 Sr0 3.441700 1_655
Pt1 Sr0 3.441703 1_555
Pt1 Sr0 3.441703 1_665
