# generated using pymatgen
data_NbInF6
_symmetry_space_group_name_H-M   'P 1'
_cell_length_a   5.35371011
_cell_length_b   5.35371011
_cell_length_c   9.99408268
_cell_angle_alpha   90.00000000
_cell_angle_beta   90.00000000
_cell_angle_gamma   90.00000000
_symmetry_Int_Tables_number   1
_chemical_formula_structural   NbInF6
_chemical_formula_sum   'Nb2 In2 F12'
_cell_volume   286.45251653
_cell_formula_units_Z   2
loop_
 _symmetry_equiv_pos_site_id
 _symmetry_equiv_pos_as_xyz
  1  'x, y, z'
loop_
 _atom_site_type_symbol
 _atom_site_label
 _atom_site_symmetry_multiplicity
 _atom_site_fract_x
 _atom_site_fract_y
 _atom_site_fract_z
 _atom_site_occupancy
  Nb  Nb0  1  0.00000000  0.00000000  0.50000000  1
  Nb  Nb1  1  0.00000000  0.00000000  0.00000000  1
  In  In0  1  0.50000000  0.50000000  0.25000000  1
  In  In1  1  0.50000000  0.50000000  0.75000000  1
  F  F0  1  0.18059615  0.81940385  0.36366175  1
  F  F1  1  0.81940385  0.18059615  0.36366175  1
  F  F2  1  0.81940385  0.81940385  0.13633825  1
  F  F3  1  0.18059615  0.18059615  0.13633825  1
  F  F4  1  0.25570974  0.74429026  0.00000000  1
  F  F5  1  0.74429026  0.74429026  0.50000000  1
  F  F6  1  0.25570974  0.25570974  0.50000000  1
  F  F7  1  0.74429026  0.25570974  0.00000000  1
  F  F8  1  0.18059615  0.18059615  0.86366175  1
  F  F9  1  0.18059615  0.81940385  0.63633825  1
  F  F10  1  0.81940385  0.18059615  0.63633825  1
  F  F11  1  0.81940385  0.81940385  0.86366175  1
loop_
_geom_bond_atom_site_label_1
_geom_bond_atom_site_label_2
_geom_bond_distance
_geom_bond_site_symmetry_2
F0 Nb0 1.930349 1_565
F0 In0 2.671805 1_555
F1 Nb0 1.930349 1_655
F1 In0 2.671805 1_555
F2 Nb1 1.930349 1_665
F2 In0 2.671805 1_555
F3 Nb1 1.930349 1_555
F3 In0 2.671805 1_555
F4 Nb1 1.936052 1_565
F5 Nb0 1.936052 1_665
F6 Nb0 1.936052 1_555
F7 Nb1 1.936052 1_655
F8 Nb1 1.930349 1_556
F8 In1 2.671805 1_555
F9 Nb0 1.930349 1_565
F9 In1 2.671805 1_555
F10 Nb0 1.930349 1_655
F10 In1 2.671805 1_555
F11 Nb1 1.930349 1_666
F11 In1 2.671805 1_555
