# generated using pymatgen
data_Ti6Tc5P6Os
_symmetry_space_group_name_H-M   'P 1'
_cell_length_a   7.32268609
_cell_length_b   7.29696192
_cell_length_c   7.31957933
_cell_angle_alpha   127.50883172
_cell_angle_beta   123.97241644
_cell_angle_gamma   80.42602352
_symmetry_Int_Tables_number   1
_chemical_formula_structural   Ti6Tc5P6Os
_chemical_formula_sum   'Ti6 Tc5 P6 Os1'
_cell_volume   248.13923925
_cell_formula_units_Z   1
loop_
 _symmetry_equiv_pos_site_id
 _symmetry_equiv_pos_as_xyz
  1  'x, y, z'
loop_
 _atom_site_type_symbol
 _atom_site_label
 _atom_site_symmetry_multiplicity
 _atom_site_fract_x
 _atom_site_fract_y
 _atom_site_fract_z
 _atom_site_occupancy
  Ti  Ti0  1  0.44574824  0.41306129  0.47042968  1
  Ti  Ti1  1  0.55084046  0.00117946  0.95419488  1
  Ti  Ti2  1  0.03711134  0.00159835  0.46026667  1
  Ti  Ti3  1  0.96237094  0.42299839  0.95856867  1
  Ti  Ti4  1  0.24902540  0.58511203  0.83838805  1
  Ti  Ti5  1  0.75358681  0.59910972  0.34368383  1
  Tc  Tc0  1  0.97373410  0.25545576  0.22947427  1
  Tc  Tc1  1  0.52236908  0.25469113  0.78036582  1
  Tc  Tc2  1  0.39711791  0.74860886  0.40236571  1
  Tc  Tc3  1  0.59418312  0.00361851  0.34513995  1
  Tc  Tc4  1  0.84711912  0.75069807  0.85077131  1
  P  P0  1  0.23157176  0.99568998  0.26644264  1
  P  P1  1  0.77451100  0.00679891  0.73022061  1
  P  P2  1  0.16652522  0.67292954  0.50496029  1
  P  P3  1  0.82929894  0.33581470  0.49877288  1
  P  P4  1  0.66766014  0.67216600  0.00545634  1
  P  P5  1  0.33563872  0.33479402  0.00622065  1
  Os  Os0  1  0.16158769  0.00367426  0.91227773  1
loop_
_geom_bond_atom_site_label_1
_geom_bond_atom_site_label_2
_geom_bond_distance
_geom_bond_site_symmetry_2
Tc0 Ti5 2.682242 1_555
Tc0 Ti1 2.734494 1_554
Tc0 Ti4 2.868925 1_655
Tc0 Ti0 2.901613 1_655
Tc1 Ti5 2.679222 1_556
Tc1 Ti1 2.743327 1_555
Tc1 Ti4 2.845664 1_555
Tc1 Ti0 2.889840 1_555
Tc2 Ti0 2.714262 1_555
Tc2 Ti1 2.742631 1_565
Tc2 Ti5 2.814865 1_555
Tc2 Ti4 3.011690 1_554
Tc3 Ti1 2.685962 1_554
Tc3 Ti0 2.765129 1_555
Tc3 Ti4 2.787188 1_544
Tc3 Ti5 2.984053 1_545
Tc4 Ti0 2.714849 1_555
Tc4 Ti1 2.729877 1_565
Tc4 Ti5 2.807200 1_555
Tc4 Ti4 3.018522 1_655
P0 Tc3 2.384713 1_565
P0 Tc2 2.412348 1_555
P0 Tc4 2.419976 1_454
P0 Tc1 2.446565 1_565
P0 Tc0 2.468622 1_465
P0 Ti2 2.491013 1_565
P0 Ti0 2.720044 1_565
P0 Ti4 2.774540 1_554
P1 Tc3 2.336624 1_555
P1 Tc0 2.371198 1_556
P1 Tc1 2.377738 1_555
P1 Tc4 2.388883 1_545
P1 Tc2 2.399995 1_545
P1 Ti5 2.509130 1_545
P1 Ti3 2.558895 1_555
P1 Ti1 2.911525 1_555
P2 Tc2 2.439757 1_555
P2 Tc0 2.471382 1_455
P2 Ti0 2.558218 1_555
P2 Ti5 2.570086 1_455
P2 Ti2 2.570950 1_565
P2 Ti1 2.603553 1_565
P2 Ti4 2.619126 1_555
P2 Ti3 2.626529 1_454
P3 Tc3 2.451458 1_555
P3 Tc0 2.462522 1_555
P3 Tc4 2.465245 1_555
P3 Ti3 2.571906 1_555
P3 Ti1 2.594002 1_554
P3 Ti4 2.597978 1_655
P3 Ti2 2.598175 1_655
P3 Ti5 2.624019 1_555
P3 Ti0 2.685835 1_555
P4 Tc4 2.457782 1_554
P4 Tc3 2.461750 1_565
P4 Tc1 2.476588 1_554
P4 Ti0 2.538697 1_554
P4 Ti2 2.555934 1_665
P4 Ti5 2.561987 1_555
P4 Ti1 2.586793 1_564
P4 Ti4 2.609339 1_554
P4 Ti3 2.616001 1_554
P5 Tc1 2.455199 1_554
P5 Tc2 2.461571 1_555
P5 Ti3 2.574816 1_454
P5 Ti4 2.593086 1_554
P5 Ti1 2.611546 1_554
P5 Ti2 2.613922 1_554
P5 Ti5 2.627025 1_555
P5 Ti0 2.692525 1_555
Os0 P1 2.367401 1_455
Os0 P0 2.382334 1_546
Os0 P5 2.440655 1_556
Os0 P2 2.458413 1_545
Os0 Ti1 2.689103 1_555
Os0 Ti0 2.765759 1_556
Os0 Ti4 2.784912 1_545
Os0 Tc4 2.855919 1_445
Os0 Tc0 2.862226 1_456
Os0 Ti2 2.889751 1_555
Os0 Tc3 2.976171 1_556
Os0 Ti5 3.006301 1_445
Os0 Ti3 3.067627 1_455
