# generated using pymatgen
data_Mg2TcSn8Os
_symmetry_space_group_name_H-M   'P 1'
_cell_length_a   7.37958400
_cell_length_b   7.37958449
_cell_length_c   7.37958405
_cell_angle_alpha   124.76674990
_cell_angle_beta   124.76675253
_cell_angle_gamma   81.92472991
_symmetry_Int_Tables_number   1
_chemical_formula_structural   Mg2TcSn8Os
_chemical_formula_sum   'Mg2 Tc1 Sn8 Os1'
_cell_volume   260.84493792
_cell_formula_units_Z   1
loop_
 _symmetry_equiv_pos_site_id
 _symmetry_equiv_pos_as_xyz
  1  'x, y, z'
loop_
 _atom_site_type_symbol
 _atom_site_label
 _atom_site_symmetry_multiplicity
 _atom_site_fract_x
 _atom_site_fract_y
 _atom_site_fract_z
 _atom_site_occupancy
  Mg  Mg0  1  0.49835987  0.49835987  0.00000000  1
  Mg  Mg1  1  0.00164013  0.00164013  1.00000000  1
  Tc  Tc0  1  0.75000000  0.75000000  0.00000000  1
  Sn  Sn0  1  0.70700472  0.51537746  0.50301876  1
  Sn  Sn1  1  0.51537746  0.01235870  0.80837174  1
  Sn  Sn2  1  0.20398696  0.70700472  0.19162826  1
  Sn  Sn3  1  0.79299528  0.29601304  0.80837174  1
  Sn  Sn4  1  0.48764130  0.98462254  0.19162826  1
  Sn  Sn5  1  0.29601304  0.48764130  0.50301876  1
  Sn  Sn6  1  0.98462254  0.79299528  0.49698124  1
  Sn  Sn7  1  0.01235870  0.20398696  0.49698124  1
  Os  Os0  1  0.25000000  0.25000000  0.00000000  1
loop_
_geom_bond_atom_site_label_1
_geom_bond_atom_site_label_2
_geom_bond_distance
_geom_bond_site_symmetry_2
Mg0 Os0 2.768031 1_555
Mg0 Tc0 2.804591 1_555
Mg0 Sn5 3.023780 1_554
Mg0 Sn4 3.023781 1_555
Mg0 Sn6 3.023782 1_555
Mg0 Sn3 3.023787 1_554
Mg0 Sn2 3.028233 1_555
Mg0 Sn7 3.028234 1_554
Mg0 Sn1 3.028234 1_554
Mg0 Sn0 3.028236 1_555
Mg1 Os0 2.768031 1_556
Mg1 Tc0 2.804591 1_446
Mg1 Sn1 3.023780 1_455
Mg1 Sn7 3.023780 1_556
Mg1 Sn0 3.023782 1_445
Mg1 Sn2 3.023787 1_546
Mg1 Sn3 3.028233 1_455
Mg1 Sn4 3.028234 1_546
Mg1 Sn5 3.028234 1_556
Mg1 Sn6 3.028236 1_445
Sn0 Tc0 2.852079 1_556
Sn0 Sn7 2.983819 1_655
Sn0 Sn5 3.068399 1_555
Sn0 Sn6 3.127899 1_555
Sn0 Sn3 3.215865 1_555
Sn0 Sn4 3.242853 1_545
Sn1 Tc0 2.852083 1_546
Sn1 Sn2 2.983814 1_545
Sn1 Sn4 3.068407 1_546
Sn1 Sn3 3.127894 1_555
Sn1 Sn5 3.215869 1_545
Sn1 Sn6 3.242853 1_445
Sn2 Tc0 2.852085 1_455
Sn2 Sn3 3.068398 1_454
Sn2 Sn4 3.127894 1_555
Sn2 Sn6 3.215865 1_455
Sn2 Sn5 3.242849 1_555
Sn3 Tc0 2.852085 1_556
Sn3 Sn4 2.983814 1_545
Sn3 Sn7 3.242849 1_655
Sn4 Tc0 2.852083 1_555
Sn4 Sn7 3.215869 1_665
Sn5 Tc0 2.852083 1_556
Sn5 Sn6 2.983819 1_455
Sn5 Sn7 3.127888 1_555
Sn6 Tc0 2.852079 1_555
Sn6 Sn7 3.068400 1_665
Sn7 Tc0 2.852083 1_445
Os0 Sn3 2.876742 1_454
Os0 Sn2 2.876742 1_555
Os0 Sn0 2.876744 1_555
Os0 Sn6 2.876745 1_444
Os0 Sn7 2.876748 1_554
Os0 Sn5 2.876748 1_555
Os0 Sn1 2.876749 1_554
Os0 Sn4 2.876749 1_545
