# generated using pymatgen
data_Be4Rh2W6C
_symmetry_space_group_name_H-M   'P 1'
_cell_length_a   7.66076858
_cell_length_b   7.66076867
_cell_length_c   7.66076775
_cell_angle_alpha   59.99999545
_cell_angle_beta   59.99999505
_cell_angle_gamma   59.99999710
_symmetry_Int_Tables_number   1
_chemical_formula_structural   Be4Rh2W6C
_chemical_formula_sum   'Be8 Rh4 W12 C2'
_cell_volume   317.90836017
_cell_formula_units_Z   2
loop_
 _symmetry_equiv_pos_site_id
 _symmetry_equiv_pos_as_xyz
  1  'x, y, z'
loop_
 _atom_site_type_symbol
 _atom_site_label
 _atom_site_symmetry_multiplicity
 _atom_site_fract_x
 _atom_site_fract_y
 _atom_site_fract_z
 _atom_site_occupancy
  Be  Be0  1  0.91810801  0.24567696  0.91810801  1
  Be  Be1  1  0.33189199  0.00432304  0.33189199  1
  Be  Be2  1  0.33189199  0.33189199  0.33189199  1
  Be  Be3  1  0.00432304  0.33189199  0.33189199  1
  Be  Be4  1  0.91810801  0.91810801  0.24567696  1
  Be  Be5  1  0.24567696  0.91810801  0.91810801  1
  Be  Be6  1  0.33189199  0.33189199  0.00432304  1
  Be  Be7  1  0.91810801  0.91810801  0.91810801  1
  Rh  Rh0  1  0.12500000  0.12500000  0.62500000  1
  Rh  Rh1  1  0.12500000  0.62500000  0.12500000  1
  Rh  Rh2  1  0.12500000  0.12500000  0.12500000  1
  Rh  Rh3  1  0.62500000  0.12500000  0.12500000  1
  W  W0  1  0.30330254  0.69669746  0.69669746  1
  W  W1  1  0.30330254  0.30330254  0.69669746  1
  W  W2  1  0.55330254  0.94669746  0.55330254  1
  W  W3  1  0.94669746  0.55330254  0.55330254  1
  W  W4  1  0.55330254  0.94669746  0.94669746  1
  W  W5  1  0.69669746  0.30330254  0.30330254  1
  W  W6  1  0.94669746  0.55330254  0.94669746  1
  W  W7  1  0.30330254  0.69669746  0.30330254  1
  W  W8  1  0.55330254  0.55330254  0.94669746  1
  W  W9  1  0.69669746  0.30330254  0.69669746  1
  W  W10  1  0.69669746  0.69669746  0.30330254  1
  W  W11  1  0.94669746  0.94669746  0.55330254  1
  C  C0  1  0.75000000  0.75000000  0.75000000  1
  C  C1  1  0.50000000  0.50000000  0.50000000  1
loop_
_geom_bond_atom_site_label_1
_geom_bond_atom_site_label_2
_geom_bond_distance
_geom_bond_site_symmetry_2
Be0 Rh2 2.336743 1_656
Be0 Rh0 2.336749 1_655
Be0 Rh3 2.336749 1_556
Be0 W6 2.594222 1_555
Be0 W3 2.594226 1_555
Be0 W8 2.594227 1_555
Be0 W5 2.707083 1_556
Be0 W1 2.707084 1_655
Be0 W9 2.707090 1_555
Be1 Rh2 2.336743 1_555
Be1 Rh0 2.336749 1_555
Be1 Rh3 2.336749 1_555
Be1 W7 2.594222 1_545
Be1 W0 2.594226 1_545
Be1 W10 2.594227 1_545
Be1 W4 2.707083 1_544
Be1 W11 2.707084 1_445
Be1 W2 2.707090 1_545
Be2 Rh0 2.336745 1_555
Be2 Rh3 2.336745 1_555
Be2 Rh1 2.336745 1_555
Be2 W1 2.594230 1_555
Be2 W5 2.594230 1_555
Be2 W7 2.594230 1_555
Be2 W8 2.707087 1_554
Be2 W3 2.707087 1_455
Be2 W2 2.707087 1_545
Be3 Rh2 2.336743 1_555
Be3 Rh0 2.336749 1_555
Be3 Rh1 2.336749 1_555
Be3 W5 2.594222 1_455
Be3 W9 2.594226 1_455
Be3 W10 2.594227 1_455
Be3 W6 2.707083 1_454
Be3 W11 2.707084 1_445
Be3 W3 2.707090 1_455
Be4 Rh2 2.336743 1_665
Be4 Rh3 2.336749 1_565
Be4 Rh1 2.336749 1_655
Be4 W11 2.594222 1_555
Be4 W2 2.594227 1_555
Be4 W3 2.594227 1_555
Be4 W7 2.707084 1_655
Be4 W5 2.707084 1_565
Be4 W10 2.707090 1_555
Be5 Rh2 2.336743 1_566
Be5 Rh0 2.336749 1_565
Be5 Rh1 2.336749 1_556
Be5 W4 2.594222 1_555
Be5 W2 2.594226 1_555
Be5 W8 2.594227 1_555
Be5 W7 2.707083 1_556
Be5 W1 2.707084 1_565
Be5 W0 2.707090 1_555
Be6 Rh2 2.336743 1_555
Be6 Rh3 2.336749 1_555
Be6 Rh1 2.336749 1_555
Be6 W1 2.594222 1_554
Be6 W9 2.594227 1_554
Be6 W0 2.594227 1_554
Be6 W6 2.707084 1_454
Be6 W4 2.707084 1_544
Be6 W8 2.707090 1_554
Be7 Rh0 2.336745 1_665
Be7 Rh3 2.336745 1_566
Be7 Rh1 2.336745 1_656
Be7 W11 2.594230 1_555
Be7 W4 2.594230 1_555
Be7 W6 2.594230 1_555
Be7 W10 2.707087 1_556
Be7 W0 2.707087 1_655
Be7 W9 2.707087 1_565
C0 W4 2.131013 1_555
C0 W3 2.131013 1_555
C0 W6 2.131013 1_555
C0 W2 2.131013 1_555
C0 W11 2.131013 1_555
C0 W8 2.131013 1_555
C1 W0 2.131013 1_555
C1 W5 2.131013 1_555
C1 W9 2.131013 1_555
C1 W7 2.131013 1_555
C1 W10 2.131013 1_555
C1 W1 2.131013 1_555
