# generated using pymatgen
data_K2Si(AgSe2)2
_symmetry_space_group_name_H-M   'P 1'
_cell_length_a   12.89572573
_cell_length_b   11.40771012
_cell_length_c   7.62560448
_cell_angle_alpha   82.74014132
_cell_angle_beta   61.34463408
_cell_angle_gamma   35.91522396
_symmetry_Int_Tables_number   1
_chemical_formula_structural   K2Si(AgSe2)2
_chemical_formula_sum   'K4 Si2 Ag4 Se8'
_cell_volume   497.04334416
_cell_formula_units_Z   2
loop_
 _symmetry_equiv_pos_site_id
 _symmetry_equiv_pos_as_xyz
  1  'x, y, z'
loop_
 _atom_site_type_symbol
 _atom_site_label
 _atom_site_symmetry_multiplicity
 _atom_site_fract_x
 _atom_site_fract_y
 _atom_site_fract_z
 _atom_site_occupancy
  K  K0  1  0.31391922  0.31391922  0.68608078  1
  K  K1  1  0.68608078  0.68608078  0.31391922  1
  K  K2  1  0.56391922  0.56391922  0.93608078  1
  K  K3  1  0.93608078  0.93608078  0.56391922  1
  Si  Si0  1  0.50000000  0.50000000  0.50000000  1
  Si  Si1  1  0.75000000  0.75000000  0.75000000  1
  Ag  Ag0  1  0.17915037  0.17915037  0.32084963  1
  Ag  Ag1  1  0.92915037  0.92915037  0.07084963  1
  Ag  Ag2  1  0.07084963  0.07084963  0.92915037  1
  Ag  Ag3  1  0.32084963  0.32084963  0.17915037  1
  Se  Se0  1  0.89582482  0.72332344  0.39801531  1
  Se  Se1  1  0.98283743  0.39801531  0.72332344  1
  Se  Se2  1  0.52667656  0.35417518  0.26716257  1
  Se  Se3  1  0.39801531  0.98283743  0.89582482  1
  Se  Se4  1  0.26716257  0.85198469  0.52667656  1
  Se  Se5  1  0.72332344  0.89582482  0.98283743  1
  Se  Se6  1  0.85198469  0.26716257  0.35417518  1
  Se  Se7  1  0.35417518  0.52667656  0.85198469  1
loop_
_geom_bond_atom_site_label_1
_geom_bond_atom_site_label_2
_geom_bond_distance
_geom_bond_site_symmetry_2
K0 Se7 3.347760 1_555
K0 Se2 3.347764 1_555
K0 Se1 3.391370 1_455
K0 Se3 3.391373 1_545
K0 Se5 3.545094 1_455
K0 Se0 3.545095 1_545
K1 Se6 3.347770 1_555
K1 Se4 3.347772 1_555
K1 Se5 3.391378 1_554
K1 Se0 3.391382 1_555
K1 Se1 3.545091 1_554
K1 Se3 3.545098 1_555
K2 Se3 3.347770 1_555
K2 Se1 3.347772 1_555
K2 Se2 3.391378 1_556
K2 Se7 3.391382 1_555
K2 Se4 3.545091 1_556
K2 Se6 3.545098 1_555
K3 Se0 3.347760 1_555
K3 Se5 3.347764 1_555
K3 Se4 3.391370 1_655
K3 Se6 3.391373 1_565
K3 Se2 3.545094 1_655
K3 Se7 3.545095 1_565
Ag0 Se3 2.511734 1_544
Ag0 Se1 2.511741 1_455
Ag0 Se4 3.323815 1_545
Ag0 Se6 3.323819 1_455
Ag0 K1 3.815803 1_455
Ag0 K1 3.815803 1_545
Ag1 Se7 2.511736 1_654
Ag1 Se2 2.511737 1_565
Ag1 Se5 3.323806 1_554
Ag1 Se0 3.323810 1_555
Ag1 K3 3.815803 1_554
Ag1 K3 3.815803 1_555
Ag2 Se6 2.511734 1_456
Ag2 Se4 2.511741 1_545
Ag2 Se1 3.323815 1_455
Ag2 Se3 3.323819 1_545
Ag2 K2 3.815803 1_545
Ag2 K2 3.815803 1_455
Ag3 Se0 2.511736 1_455
Ag3 Se5 2.511737 1_544
Ag3 Se2 3.323806 1_555
Ag3 Se7 3.323810 1_554
Ag3 K0 3.815803 1_555
Ag3 K0 3.815803 1_554
Se0 Si1 2.296054 1_555
Se1 Si1 2.296053 1_555
Se2 Si0 2.296061 1_555
Se3 Si1 2.296050 1_555
Se4 Si0 2.296053 1_555
Se5 Si1 2.296061 1_555
Se6 Si0 2.296050 1_555
Se7 Si0 2.296054 1_555
