# generated using pymatgen
data_Rb5Na(TcH9)3
_symmetry_space_group_name_H-M   'P 1'
_cell_length_a   9.73220552
_cell_length_b   9.73220483
_cell_length_c   5.73608796
_cell_angle_alpha   90.00000000
_cell_angle_beta   90.00000000
_cell_angle_gamma   122.41475533
_symmetry_Int_Tables_number   1
_chemical_formula_structural   Rb5Na(TcH9)3
_chemical_formula_sum   'Rb5 Na1 Tc3 H27'
_cell_volume   458.64690750
_cell_formula_units_Z   1
loop_
 _symmetry_equiv_pos_site_id
 _symmetry_equiv_pos_as_xyz
  1  'x, y, z'
loop_
 _atom_site_type_symbol
 _atom_site_label
 _atom_site_symmetry_multiplicity
 _atom_site_fract_x
 _atom_site_fract_y
 _atom_site_fract_z
 _atom_site_occupancy
  Rb  Rb0  1  0.25113171  0.99089150  0.50000000  1
  Rb  Rb1  1  0.99089150  0.25113171  0.50000000  1
  Rb  Rb2  1  0.59418733  0.00573385  0.00000000  1
  Rb  Rb3  1  0.00573385  0.59418733  0.00000000  1
  Rb  Rb4  1  0.42241135  0.42241135  0.00000000  1
  Na  Na0  1  0.72693805  0.72693805  0.50000000  1
  Tc  Tc0  1  0.97371523  0.97371523  0.00000000  1
  Tc  Tc1  1  0.35608481  0.67309941  0.50000000  1
  Tc  Tc2  1  0.67309941  0.35608481  0.50000000  1
  H  H0  1  0.84922978  0.96646805  0.20909292  1
  H  H1  1  0.96646805  0.84922978  0.20909292  1
  H  H2  1  0.84922978  0.96646805  0.79090708  1
  H  H3  1  0.96646805  0.84922978  0.79090708  1
  H  H4  1  0.10565043  0.10565043  0.19907991  1
  H  H5  1  0.10565043  0.10565043  0.80092009  1
  H  H6  1  0.14242720  0.97091692  0.00000000  1
  H  H7  1  0.97091692  0.14242720  0.00000000  1
  H  H8  1  0.79743315  0.79743315  0.00000000  1
  H  H9  1  0.24917611  0.54024441  0.28588689  1
  H  H10  1  0.49570426  0.70505403  0.29684754  1
  H  H11  1  0.24917611  0.54024441  0.71411311  1
  H  H12  1  0.54024441  0.24917611  0.71411311  1
  H  H13  1  0.32779707  0.77629486  0.28987433  1
  H  H14  1  0.49570426  0.70505403  0.70315246  1
  H  H15  1  0.70505403  0.49570426  0.70315246  1
  H  H16  1  0.54024441  0.24917611  0.28588689  1
  H  H17  1  0.32779707  0.77629486  0.71012567  1
  H  H18  1  0.70505403  0.49570426  0.29684754  1
  H  H19  1  0.77629486  0.32779707  0.71012567  1
  H  H20  1  0.77629486  0.32779707  0.28987433  1
  H  H21  1  0.38203637  0.51881379  0.50000000  1
  H  H22  1  0.50667601  0.86609319  0.50000000  1
  H  H23  1  0.51881379  0.38203637  0.50000000  1
  H  H24  1  0.16499169  0.62517648  0.50000000  1
  H  H25  1  0.86609319  0.50667601  0.50000000  1
  H  H26  1  0.62517648  0.16499169  0.50000000  1
loop_
_geom_bond_atom_site_label_1
_geom_bond_atom_site_label_2
_geom_bond_distance
_geom_bond_site_symmetry_2
H0 Tc0 1.679179 1_555
H0 Na0 2.580846 1_555
H0 Rb1 2.874981 1_565
H0 Rb2 2.960133 1_565
H1 Tc0 1.679179 1_555
H1 Na0 2.580846 1_555
H1 Rb0 2.874981 1_655
H1 Rb3 2.960133 1_655
H2 Tc0 1.679179 1_556
H2 Na0 2.580846 1_555
H2 Rb1 2.874981 1_565
H2 Rb2 2.960133 1_566
H3 Tc0 1.679179 1_556
H3 Na0 2.580846 1_555
H3 Rb0 2.874981 1_655
H3 Rb3 2.960133 1_656
H4 Tc0 1.683414 1_445
H4 Rb1 2.815448 1_455
H4 Rb0 2.815448 1_545
H4 Rb4 3.181584 1_555
H5 Tc0 1.683414 1_446
H5 Rb1 2.815448 1_455
H5 Rb0 2.815448 1_545
H5 Rb4 3.181584 1_556
H6 Tc0 1.656698 1_455
H6 Rb3 3.159619 1_555
H7 Tc0 1.656697 1_545
H7 Rb2 3.159619 1_555
H8 Tc0 1.652619 1_555
H9 Tc1 1.679426 1_555
H9 Rb1 2.856800 1_455
H9 Rb4 2.986559 1_555
H9 Rb3 3.148255 1_555
H10 Tc1 1.687588 1_555
H10 Na0 2.440043 1_555
H10 Rb4 2.978445 1_555
H10 Rb2 3.061728 1_565
H11 Tc1 1.679426 1_555
H11 Rb1 2.856800 1_455
H11 Rb4 2.986559 1_556
H11 Rb3 3.148255 1_556
H12 Tc2 1.679426 1_555
H12 Rb0 2.856800 1_545
H12 Rb4 2.986559 1_556
H12 Rb2 3.148255 1_556
H13 Tc1 1.683335 1_555
H13 Rb0 2.835821 1_555
H13 Rb2 2.875027 1_565
H13 Rb3 3.126438 1_555
H14 Tc1 1.687588 1_555
H14 Na0 2.440043 1_555
H14 Rb4 2.978445 1_556
H14 Rb2 3.061728 1_566
H15 Tc2 1.687588 1_555
H15 Na0 2.440042 1_555
H15 Rb4 2.978445 1_556
H15 Rb3 3.061728 1_656
H16 Tc2 1.679426 1_555
H16 Rb0 2.856800 1_545
H16 Rb4 2.986559 1_555
H16 Rb2 3.148255 1_555
H17 Tc1 1.683335 1_555
H17 Rb0 2.835821 1_555
H17 Rb2 2.875027 1_566
H17 Rb3 3.126438 1_556
H18 Tc2 1.687588 1_555
H18 Na0 2.440042 1_555
H18 Rb4 2.978445 1_555
H18 Rb3 3.061728 1_655
H19 Tc2 1.683335 1_555
H19 Rb1 2.835821 1_555
H19 Rb3 2.875027 1_656
H19 Rb2 3.126438 1_556
H20 Tc2 1.683335 1_555
H20 Rb1 2.835821 1_555
H20 Rb3 2.875027 1_655
H20 Rb2 3.126438 1_555
H21 Tc1 1.650753 1_555
H21 Rb4 3.107337 1_555
H21 Rb4 3.107337 1_556
H22 Tc1 1.650636 1_555
H22 Rb2 3.091450 1_566
H22 Rb2 3.091450 1_565
H23 Tc2 1.650753 1_555
H23 Rb4 3.107337 1_555
H23 Rb4 3.107337 1_556
H24 Tc1 1.657200 1_555
H24 Rb3 3.196525 1_556
H24 Rb3 3.196525 1_555
H25 Tc2 1.650636 1_555
H25 Rb3 3.091450 1_656
H25 Rb3 3.091450 1_655
H26 Tc2 1.657200 1_555
H26 Rb2 3.196525 1_555
H26 Rb2 3.196525 1_556
