# generated using pymatgen
data_Hf4Si6Ir5Os2
_symmetry_space_group_name_H-M   'P 1'
_cell_length_a   6.94775964
_cell_length_b   6.94776013
_cell_length_c   6.94775917
_cell_angle_alpha   109.33050607
_cell_angle_beta   109.54161070
_cell_angle_gamma   109.54162769
_symmetry_Int_Tables_number   1
_chemical_formula_structural   Hf4Si6Ir5Os2
_chemical_formula_sum   'Hf4 Si6 Ir5 Os2'
_cell_volume   258.17283954
_cell_formula_units_Z   1
loop_
 _symmetry_equiv_pos_site_id
 _symmetry_equiv_pos_as_xyz
  1  'x, y, z'
loop_
 _atom_site_type_symbol
 _atom_site_label
 _atom_site_symmetry_multiplicity
 _atom_site_fract_x
 _atom_site_fract_y
 _atom_site_fract_z
 _atom_site_occupancy
  Hf  Hf0  1  0.50000000  0.50251451  0.49748549  1
  Hf  Hf1  1  0.99496998  0.99748549  0.49748549  1
  Hf  Hf2  1  0.00503002  0.50251451  0.00251451  1
  Hf  Hf3  1  0.50000000  0.99748549  0.00251451  1
  Si  Si0  1  1.00000000  0.31651235  0.31651235  1
  Si  Si1  1  0.31673482  0.00016397  0.31689878  1
  Si  Si2  1  0.31673482  0.31657085  0.99983603  1
  Si  Si3  1  0.00000000  0.68348765  0.68348765  1
  Si  Si4  1  0.68326518  0.00016397  0.68342915  1
  Si  Si5  1  0.68326518  0.68310122  0.99983603  1
  Ir  Ir0  1  0.24968971  0.49951525  0.74920496  1
  Ir  Ir1  1  0.75031029  0.25079504  0.50048475  1
  Ir  Ir2  1  0.75031029  0.49951525  0.24982553  1
  Ir  Ir3  1  0.50000000  0.25000000  0.75000000  1
  Ir  Ir4  1  0.24968971  0.75017447  0.50048475  1
  Os  Os0  1  0.50000000  0.75000000  0.25000000  1
  Os  Os1  1  0.00000000  0.00000000  0.00000000  1
loop_
_geom_bond_atom_site_label_1
_geom_bond_atom_site_label_2
_geom_bond_distance
_geom_bond_site_symmetry_2
Hf0 Os0 2.805442 1_555
Hf0 Ir2 2.826309 1_555
Hf0 Ir4 2.826310 1_555
Hf0 Ir0 2.849223 1_555
Hf0 Ir1 2.849224 1_555
Hf0 Ir3 2.862450 1_555
Hf0 Si2 2.870910 1_554
Hf0 Si4 2.870910 1_565
Hf0 Si0 2.884057 1_455
Hf0 Si3 2.884057 1_655
Hf0 Si5 2.904517 1_555
Hf0 Si1 2.904517 1_555
Hf1 Os0 2.805437 1_555
Hf1 Ir1 2.826304 1_565
Hf1 Ir2 2.826310 1_555
Hf1 Ir0 2.849224 1_665
Hf1 Ir4 2.849229 1_655
Hf1 Ir3 2.862456 1_665
Hf1 Si4 2.870903 1_565
Hf1 Si5 2.870909 1_554
Hf1 Si0 2.884056 1_565
Hf1 Si3 2.884057 1_655
Hf1 Si2 2.904518 1_665
Hf1 Si1 2.904523 1_665
Hf2 Os0 2.805437 1_555
Hf2 Ir0 2.826304 1_554
Hf2 Ir4 2.826310 1_555
Hf2 Ir1 2.849224 1_454
Hf2 Ir2 2.849229 1_455
Hf2 Ir3 2.862456 1_454
Hf2 Si2 2.870904 1_554
Hf2 Si1 2.870909 1_565
Hf2 Si3 2.884056 1_554
Hf2 Si0 2.884057 1_455
Hf2 Si4 2.904518 1_454
Hf2 Si5 2.904523 1_454
Hf3 Os0 2.805442 1_555
Hf3 Ir1 2.826310 1_565
Hf3 Ir0 2.826310 1_554
Hf3 Ir4 2.849224 1_554
Hf3 Ir2 2.849224 1_565
Hf3 Ir3 2.862450 1_564
Hf3 Si1 2.870909 1_565
Hf3 Si5 2.870910 1_554
Hf3 Si0 2.884057 1_565
Hf3 Si3 2.884057 1_554
Hf3 Si4 2.904516 1_564
Hf3 Si2 2.904517 1_564
Ir0 Si0 2.483674 1_455
Ir0 Si2 2.486667 1_555
Ir0 Si5 2.486668 1_555
Ir0 Si3 2.488295 1_555
Ir1 Si3 2.483674 1_655
Ir1 Si4 2.486667 1_555
Ir1 Si1 2.486668 1_555
Ir1 Si0 2.488295 1_555
Ir2 Si0 2.483674 1_555
Ir2 Si5 2.486667 1_554
Ir2 Si2 2.486668 1_554
Ir2 Si3 2.488295 1_655
Ir3 Si2 2.487811 1_555
Ir3 Si4 2.487812 1_555
Ir3 Si1 2.487812 1_555
Ir3 Si5 2.487812 1_555
Ir4 Si3 2.483673 1_555
Ir4 Si1 2.486667 1_565
Ir4 Si4 2.486668 1_565
Ir4 Si0 2.488295 1_455
Os0 Si5 2.489939 1_554
Os0 Si1 2.489939 1_565
Os0 Si4 2.489939 1_565
Os0 Si2 2.489939 1_554
Os1 Si2 2.538823 1_554
Os1 Si5 2.538823 1_444
Os1 Si4 2.538823 1_454
Os1 Si1 2.538823 1_555
Os1 Si0 2.543654 1_455
Os1 Si3 2.543654 1_544
