# generated using pymatgen
data_Li4TiZnPd6
_symmetry_space_group_name_H-M   'P 1'
_cell_length_a   4.27071487
_cell_length_b   4.27071487
_cell_length_c   10.34376166
_cell_angle_alpha   90.00000000
_cell_angle_beta   90.00000000
_cell_angle_gamma   120.00001507
_symmetry_Int_Tables_number   1
_chemical_formula_structural   Li4TiZnPd6
_chemical_formula_sum   'Li4 Ti1 Zn1 Pd6'
_cell_volume   163.38426354
_cell_formula_units_Z   1
loop_
 _symmetry_equiv_pos_site_id
 _symmetry_equiv_pos_as_xyz
  1  'x, y, z'
loop_
 _atom_site_type_symbol
 _atom_site_label
 _atom_site_symmetry_multiplicity
 _atom_site_fract_x
 _atom_site_fract_y
 _atom_site_fract_z
 _atom_site_occupancy
  Li  Li0  1  0.00000000  0.00000000  0.49494587  1
  Li  Li1  1  0.33333300  0.66666700  0.16418821  1
  Li  Li2  1  0.66666700  0.33333300  0.84087169  1
  Li  Li3  1  0.00000000  0.00000000  0.00306744  1
  Ti  Ti0  1  0.33333300  0.66666700  0.66929859  1
  Zn  Zn0  1  0.66666700  0.33333300  0.32906727  1
  Pd  Pd0  1  0.33333300  0.66666700  0.41825442  1
  Pd  Pd1  1  0.66666700  0.33333300  0.08286696  1
  Pd  Pd2  1  0.00000000  0.00000000  0.74986055  1
  Pd  Pd3  1  0.00000000  0.00000000  0.25017544  1
  Pd  Pd4  1  0.33333300  0.66666700  0.91506217  1
  Pd  Pd5  1  0.66666700  0.33333300  0.58234139  1
loop_
_geom_bond_atom_site_label_1
_geom_bond_atom_site_label_2
_geom_bond_distance
_geom_bond_site_symmetry_2
Li0 Pd3 2.531847 1_555
Li0 Pd0 2.590164 1_545
Li0 Pd0 2.590167 1_555
Li0 Pd0 2.590167 1_445
Li0 Pd5 2.626189 1_455
Li0 Pd5 2.626192 1_445
Li0 Pd5 2.626192 1_555
Li0 Pd2 2.636777 1_555
Li1 Pd4 2.576900 1_554
Li1 Pd1 2.605229 1_565
Li1 Pd1 2.605229 1_455
Li1 Pd1 2.605236 1_555
Li1 Pd3 2.621211 1_565
Li1 Pd3 2.621214 1_555
Li1 Pd3 2.621214 1_665
Li1 Pd0 2.628000 1_555
Li2 Pd1 2.503141 1_556
Li2 Pd4 2.582358 1_545
Li2 Pd4 2.582358 1_655
Li2 Pd4 2.582365 1_555
Li2 Pd2 2.639297 1_655
Li2 Pd2 2.639300 1_665
Li2 Pd2 2.639300 1_555
Li2 Pd5 2.674176 1_555
Li3 Pd3 2.556026 1_555
Li3 Pd1 2.600190 1_455
Li3 Pd1 2.600193 1_445
Li3 Pd1 2.600193 1_555
Li3 Pd2 2.619112 1_554
Li3 Pd4 2.628367 1_544
Li3 Pd4 2.628370 1_554
Li3 Pd4 2.628370 1_444
Pd0 Ti0 2.596741 1_555
Pd0 Zn0 2.632626 1_565
Pd0 Zn0 2.632626 1_455
Pd0 Zn0 2.632633 1_555
Pd1 Zn0 2.546637 1_555
Pd2 Ti0 2.602704 1_545
Pd2 Ti0 2.602707 1_555
Pd2 Ti0 2.602707 1_445
Pd3 Zn0 2.597225 1_455
Pd3 Zn0 2.597228 1_445
Pd3 Zn0 2.597228 1_555
Pd4 Ti0 2.542120 1_555
Pd5 Zn0 2.619807 1_555
Pd5 Ti0 2.624632 1_545
Pd5 Ti0 2.624632 1_655
Pd5 Ti0 2.624639 1_555
