# generated using pymatgen
data_KGaAsH
_symmetry_space_group_name_H-M   'P 1'
_cell_length_a   4.05766552
_cell_length_b   4.05766570
_cell_length_c   5.96377741
_cell_angle_alpha   90.00000000
_cell_angle_beta   90.00000000
_cell_angle_gamma   119.99998272
_symmetry_Int_Tables_number   1
_chemical_formula_structural   KGaAsH
_chemical_formula_sum   'K1 Ga1 As1 H1'
_cell_volume   85.03635605
_cell_formula_units_Z   1
loop_
 _symmetry_equiv_pos_site_id
 _symmetry_equiv_pos_as_xyz
  1  'x, y, z'
loop_
 _atom_site_type_symbol
 _atom_site_label
 _atom_site_symmetry_multiplicity
 _atom_site_fract_x
 _atom_site_fract_y
 _atom_site_fract_z
 _atom_site_occupancy
  K  K0  1  0.00000000  0.00000000  0.02205017  1
  Ga  Ga0  1  0.66666700  0.33333300  0.56642684  1
  As  As0  1  0.33333300  0.66666700  0.42843230  1
  H  H0  1  0.66666700  0.33333300  0.84019168  1
loop_
_geom_bond_atom_site_label_1
_geom_bond_atom_site_label_2
_geom_bond_distance
_geom_bond_site_symmetry_2
Ga0 H0 1.632673 1_555
As0 Ga0 2.483039 1_455
As0 Ga0 2.483040 1_565
As0 Ga0 2.483046 1_555
As0 K0 3.370743 1_565
As0 K0 3.370746 1_665
As0 K0 3.370746 1_555
H0 K0 2.581566 1_656
H0 K0 2.581570 1_556
H0 K0 2.581570 1_666
