# generated using pymatgen
data_Mg2AgIO6
_symmetry_space_group_name_H-M   'P 1'
_cell_length_a   5.44684743
_cell_length_b   5.26226513
_cell_length_c   9.71475266
_cell_angle_alpha   57.19435156
_cell_angle_beta   90.00000000
_cell_angle_gamma   90.00000000
_symmetry_Int_Tables_number   1
_chemical_formula_structural   Mg2AgIO6
_chemical_formula_sum   'Mg4 Ag2 I2 O12'
_cell_volume   234.04222576
_cell_formula_units_Z   2
loop_
 _symmetry_equiv_pos_site_id
 _symmetry_equiv_pos_as_xyz
  1  'x, y, z'
loop_
 _atom_site_type_symbol
 _atom_site_label
 _atom_site_symmetry_multiplicity
 _atom_site_fract_x
 _atom_site_fract_y
 _atom_site_fract_z
 _atom_site_occupancy
  Mg  Mg0  1  0.00028654  0.29084492  0.70938639  1
  Mg  Mg1  1  0.50028654  0.70915508  0.79061361  1
  Mg  Mg2  1  0.99971346  0.70915508  0.29061361  1
  Mg  Mg3  1  0.49971346  0.29084492  0.20938639  1
  Ag  Ag0  1  0.00000000  0.50000000  0.00000000  1
  Ag  Ag1  1  0.50000000  0.50000000  0.50000000  1
  I  I0  1  0.00000000  0.00000000  0.50000000  1
  I  I1  1  0.50000000  0.00000000  0.00000000  1
  O  O0  1  0.20500799  0.69515086  0.66296603  1
  O  O1  1  0.70500799  0.30484914  0.83703397  1
  O  O2  1  0.79499201  0.30484914  0.33703397  1
  O  O3  1  0.29499201  0.69515086  0.16296603  1
  O  O4  1  0.15838446  0.31311915  0.49958419  1
  O  O5  1  0.65838446  0.68688085  0.00041581  1
  O  O6  1  0.84161554  0.68688085  0.50041581  1
  O  O7  1  0.34161554  0.31311915  0.99958419  1
  O  O8  1  0.29615107  0.02152132  0.83644646  1
  O  O9  1  0.79615107  0.97847868  0.66355354  1
  O  O10  1  0.20384893  0.02152132  0.33644646  1
  O  O11  1  0.70384893  0.97847868  0.16355354  1
loop_
_geom_bond_atom_site_label_1
_geom_bond_atom_site_label_2
_geom_bond_distance
_geom_bond_site_symmetry_2
Mg0 O1 2.056444 1_455
Mg0 O8 2.057584 1_555
Mg0 O6 2.151057 1_455
Mg0 O4 2.156522 1_555
Mg0 O9 2.220259 1_445
Mg0 O0 2.221187 1_555
Mg1 O0 2.056444 1_555
Mg1 O9 2.057584 1_555
Mg1 O7 2.151057 1_555
Mg1 O5 2.156522 1_556
Mg1 O8 2.220259 1_565
Mg1 O1 2.221187 1_555
Mg2 O3 2.056444 1_655
Mg2 O11 2.057584 1_555
Mg2 O4 2.151057 1_655
Mg2 O6 2.156522 1_555
Mg2 O10 2.220259 1_665
Mg2 O2 2.221187 1_555
Mg3 O2 2.056444 1_555
Mg3 O10 2.057584 1_555
Mg3 O5 2.151057 1_555
Mg3 O7 2.156522 1_554
Mg3 O11 2.220259 1_545
Mg3 O3 2.221187 1_555
Ag0 O7 2.105644 1_554
Ag0 O5 2.105644 1_455
Ag1 O6 2.105644 1_555
Ag1 O4 2.105644 1_555
I0 O4 1.857960 1_555
I0 O6 1.857960 1_445
I0 O0 1.890712 1_545
I0 O2 1.890712 1_455
I0 O9 1.890828 1_445
I0 O10 1.890828 1_555
I1 O7 1.857960 1_554
I1 O5 1.857960 1_545
I1 O1 1.890712 1_554
I1 O3 1.890712 1_545
I1 O11 1.890828 1_545
I1 O8 1.890828 1_554
