# generated using pymatgen
data_CsCaHfF7
_symmetry_space_group_name_H-M   'P 1'
_cell_length_a   6.63771580
_cell_length_b   6.63771504
_cell_length_c   8.58148608
_cell_angle_alpha   90.00000000
_cell_angle_beta   90.00000000
_cell_angle_gamma   117.78174399
_symmetry_Int_Tables_number   1
_chemical_formula_structural   CsCaHfF7
_chemical_formula_sum   'Cs2 Ca2 Hf2 F14'
_cell_volume   334.51090898
_cell_formula_units_Z   2
loop_
 _symmetry_equiv_pos_site_id
 _symmetry_equiv_pos_as_xyz
  1  'x, y, z'
loop_
 _atom_site_type_symbol
 _atom_site_label
 _atom_site_symmetry_multiplicity
 _atom_site_fract_x
 _atom_site_fract_y
 _atom_site_fract_z
 _atom_site_occupancy
  Cs  Cs0  1  0.00000000  0.00000000  0.00000000  1
  Cs  Cs1  1  0.00000000  0.00000000  0.50000000  1
  Ca  Ca0  1  0.31092930  0.68907070  0.75000000  1
  Ca  Ca1  1  0.68907070  0.31092930  0.25000000  1
  Hf  Hf0  1  0.69210632  0.30789368  0.75000000  1
  Hf  Hf1  1  0.30789368  0.69210632  0.25000000  1
  F  F0  1  0.35322832  0.06421942  0.75000000  1
  F  F1  1  0.64677168  0.93578058  0.25000000  1
  F  F2  1  0.93578058  0.64677168  0.75000000  1
  F  F3  1  0.06421942  0.35322832  0.25000000  1
  F  F4  1  0.51302970  0.48697030  0.75000000  1
  F  F5  1  0.48697030  0.51302970  0.25000000  1
  F  F6  1  0.69767568  0.30232432  0.98371178  1
  F  F7  1  0.30232432  0.69767568  0.01628822  1
  F  F8  1  0.30232432  0.69767568  0.48371178  1
  F  F9  1  0.69767568  0.30232432  0.51628822  1
  F  F10  1  0.66850097  0.98341239  0.75000000  1
  F  F11  1  0.33149903  0.01658761  0.25000000  1
  F  F12  1  0.01658761  0.33149903  0.75000000  1
  F  F13  1  0.98341239  0.66850097  0.25000000  1
loop_
_geom_bond_atom_site_label_1
_geom_bond_atom_site_label_2
_geom_bond_distance
_geom_bond_site_symmetry_2
Cs0 F12 3.038196 1_554
Cs0 F13 3.038196 1_445
Cs0 F11 3.038196 1_555
Cs0 F10 3.038196 1_444
Cs0 F2 3.057763 1_444
Cs0 F3 3.057763 1_555
Cs0 F0 3.057764 1_554
Cs0 F1 3.057764 1_445
Cs0 F6 3.439127 1_454
Cs0 F7 3.439127 1_545
Cs1 F12 3.038196 1_555
Cs1 F13 3.038196 1_445
Cs1 F11 3.038196 1_555
Cs1 F10 3.038196 1_445
Cs1 F2 3.057763 1_445
Cs1 F3 3.057763 1_555
Cs1 F0 3.057764 1_555
Cs1 F1 3.057764 1_445
Cs1 F8 3.439127 1_545
Cs1 F9 3.439127 1_455
Ca0 F12 2.264435 1_555
Ca0 F10 2.264435 1_555
Ca0 F8 2.287241 1_555
Ca0 F7 2.287241 1_556
Ca0 F4 2.297118 1_555
Ca0 F0 2.372304 1_565
Ca0 F2 2.372304 1_455
Ca1 F13 2.264435 1_555
Ca1 F11 2.264435 1_555
Ca1 F6 2.287241 1_554
Ca1 F9 2.287241 1_555
Ca1 F5 2.297118 1_555
Ca1 F1 2.372304 1_545
Ca1 F3 2.372304 1_655
F0 Hf0 2.069834 1_555
F1 Hf1 2.069834 1_555
F2 Hf0 2.069833 1_555
F3 Hf1 2.069833 1_555
F4 Hf0 2.035425 1_555
F5 Hf1 2.035425 1_555
F6 Hf0 2.006593 1_555
F7 Hf1 2.006593 1_555
F8 Hf1 2.006593 1_555
F9 Hf0 2.006593 1_555
F10 Hf0 2.085395 1_565
F11 Hf1 2.085395 1_545
F12 Hf0 2.085395 1_455
F13 Hf1 2.085395 1_655
