# generated using pymatgen
data_Ba4BiAsO
_symmetry_space_group_name_H-M   'P 1'
_cell_length_a   9.99444421
_cell_length_b   9.99444372
_cell_length_c   9.99444394
_cell_angle_alpha   149.61780225
_cell_angle_beta   149.61779829
_cell_angle_gamma   43.50271906
_symmetry_Int_Tables_number   1
_chemical_formula_structural   Ba4BiAsO
_chemical_formula_sum   'Ba4 Bi1 As1 O1'
_cell_volume   254.67788630
_cell_formula_units_Z   1
loop_
 _symmetry_equiv_pos_site_id
 _symmetry_equiv_pos_as_xyz
  1  'x, y, z'
loop_
 _atom_site_type_symbol
 _atom_site_label
 _atom_site_symmetry_multiplicity
 _atom_site_fract_x
 _atom_site_fract_y
 _atom_site_fract_z
 _atom_site_occupancy
  Ba  Ba0  1  0.66553316  0.66553316  0.00000000  1
  Ba  Ba1  1  0.30790448  0.30790448  0.00000000  1
  Ba  Ba2  1  0.50444538  0.00444538  0.50000000  1
  Ba  Ba3  1  0.00444538  0.50444538  0.50000000  1
  Bi  Bi0  1  0.86073458  0.86073458  0.00000000  1
  As  As0  1  0.13110133  0.13110133  0.00000000  1
  O  O0  1  0.52583670  0.52583670  0.00000000  1
loop_
_geom_bond_atom_site_label_1
_geom_bond_atom_site_label_2
_geom_bond_distance
_geom_bond_site_symmetry_2
Ba0 O0 2.593562 1_555
Ba0 Bi0 3.624050 1_555
Ba1 Bi0 3.831407 1_455
Ba1 Bi0 3.831407 1_545
Ba1 Bi0 3.831408 1_444
Ba1 Bi0 3.831408 1_556
Ba2 O0 2.648878 1_556
Ba2 O0 2.648878 1_545
Ba2 Bi0 3.738655 1_546
Ba2 Bi0 3.738655 1_445
Ba3 O0 2.648878 1_455
Ba3 O0 2.648878 1_556
Ba3 Bi0 3.738654 1_445
Ba3 Bi0 3.738655 1_456
As0 Ba1 3.282473 1_555
As0 Ba3 3.519684 1_544
As0 Ba3 3.519684 1_555
As0 Ba2 3.519684 1_555
As0 Ba2 3.519684 1_454
As0 Ba0 3.758497 1_455
As0 Ba0 3.758497 1_545
As0 Ba0 3.758497 1_444
As0 Ba0 3.758497 1_556
