# generated using pymatgen
data_BaNa2SnSe4
_symmetry_space_group_name_H-M   'P 1'
_cell_length_a   6.81353666
_cell_length_b   6.81353610
_cell_length_c   6.81353684
_cell_angle_alpha   112.05094137
_cell_angle_beta   112.03760811
_cell_angle_gamma   104.43928793
_symmetry_Int_Tables_number   1
_chemical_formula_structural   BaNa2SnSe4
_chemical_formula_sum   'Ba1 Na2 Sn1 Se4'
_cell_volume   242.10619311
_cell_formula_units_Z   1
loop_
 _symmetry_equiv_pos_site_id
 _symmetry_equiv_pos_as_xyz
  1  'x, y, z'
loop_
 _atom_site_type_symbol
 _atom_site_label
 _atom_site_symmetry_multiplicity
 _atom_site_fract_x
 _atom_site_fract_y
 _atom_site_fract_z
 _atom_site_occupancy
  Ba  Ba0  1  0.00000000  0.00000000  0.00000000  1
  Na  Na0  1  0.25208710  0.75208710  0.50000000  1
  Na  Na1  1  0.74791290  0.24791290  0.50000000  1
  Sn  Sn0  1  0.50000000  0.50000000  0.00000000  1
  Se  Se0  1  0.47611918  0.86509405  0.99898222  1
  Se  Se1  1  0.86611283  0.47713695  0.00101778  1
  Se  Se2  1  0.52388082  0.52286305  0.38897488  1
  Se  Se3  1  0.13388717  0.13490595  0.61102512  1
loop_
_geom_bond_atom_site_label_1
_geom_bond_atom_site_label_2
_geom_bond_distance
_geom_bond_site_symmetry_2
Ba0 Se3 3.453475 1_554
Ba0 Se1 3.453478 1_445
Ba0 Se0 3.453479 1_444
Ba0 Se2 3.453479 1_555
Ba0 Se1 3.587201 1_455
Ba0 Se0 3.587205 1_544
Ba0 Se2 3.587205 1_444
Ba0 Se3 3.587207 1_555
Na0 Se1 2.834702 1_455
Na0 Se0 2.834704 1_555
Na0 Se2 2.836823 1_555
Na0 Se3 2.836827 1_565
Na1 Se3 2.834698 1_655
Na1 Se2 2.834704 1_555
Na1 Se1 2.836821 1_556
Na1 Se0 2.836823 1_544
Se0 Sn0 2.535458 1_556
Se1 Sn0 2.535465 1_555
Se2 Sn0 2.535459 1_555
Se3 Sn0 2.535461 1_556
