# generated using pymatgen
data_Na5Si2AgS7
_symmetry_space_group_name_H-M   'P 1'
_cell_length_a   6.78486131
_cell_length_b   6.78486133
_cell_length_c   14.59857273
_cell_angle_alpha   80.68348044
_cell_angle_beta   80.68348076
_cell_angle_gamma   95.97616536
_symmetry_Int_Tables_number   1
_chemical_formula_structural   Na5Si2AgS7
_chemical_formula_sum   'Na10 Si4 Ag2 S14'
_cell_volume   648.53611712
_cell_formula_units_Z   2
loop_
 _symmetry_equiv_pos_site_id
 _symmetry_equiv_pos_as_xyz
  1  'x, y, z'
loop_
 _atom_site_type_symbol
 _atom_site_label
 _atom_site_symmetry_multiplicity
 _atom_site_fract_x
 _atom_site_fract_y
 _atom_site_fract_z
 _atom_site_occupancy
  Na  Na0  1  0.02295475  0.73234604  0.58326103  1
  Na  Na1  1  0.26765396  0.97704525  0.91673897  1
  Na  Na2  1  0.97704525  0.26765396  0.41673897  1
  Na  Na3  1  0.73234604  0.02295475  0.08326103  1
  Na  Na4  1  0.50000000  0.50000000  0.50000000  1
  Na  Na5  1  0.50000000  0.50000000  0.00000000  1
  Na  Na6  1  0.96957195  0.52786721  0.13951755  1
  Na  Na7  1  0.47213279  0.03042805  0.36048245  1
  Na  Na8  1  0.03042805  0.47213279  0.86048245  1
  Na  Na9  1  0.52786721  0.96957195  0.63951755  1
  Si  Si0  1  0.91658629  0.76727681  0.35908337  1
  Si  Si1  1  0.23272319  0.08341371  0.14091663  1
  Si  Si2  1  0.08341371  0.23272319  0.64091663  1
  Si  Si3  1  0.76727681  0.91658629  0.85908337  1
  Ag  Ag0  1  0.41332624  0.58667376  0.25000000  1
  Ag  Ag1  1  0.58667376  0.41332624  0.75000000  1
  S  S0  1  0.74183311  0.87086799  0.47063388  1
  S  S1  1  0.12913201  0.25816689  0.02936612  1
  S  S2  1  0.25816689  0.12913201  0.52936612  1
  S  S3  1  0.87086799  0.74183311  0.97063388  1
  S  S4  1  0.18902774  0.67804193  0.39255392  1
  S  S5  1  0.32195807  0.81097226  0.10744608  1
  S  S6  1  0.81097226  0.32195807  0.60744608  1
  S  S7  1  0.67804193  0.18902774  0.89255392  1
  S  S8  1  0.74785342  0.53055445  0.31570664  1
  S  S9  1  0.46944555  0.25214658  0.18429336  1
  S  S10  1  0.25214658  0.46944555  0.68429336  1
  S  S11  1  0.53055445  0.74785342  0.81570664  1
  S  S12  1  0.96150982  0.03849018  0.25000000  1
  S  S13  1  0.03849018  0.96150982  0.75000000  1
loop_
_geom_bond_atom_site_label_1
_geom_bond_atom_site_label_2
_geom_bond_distance
_geom_bond_site_symmetry_2
Na0 S0 2.848352 1_455
Na0 S10 2.871176 1_555
Na0 S2 2.902845 1_565
Na0 S4 2.925613 1_555
Na0 S6 2.937632 1_455
Na0 S13 3.102917 1_555
Na1 S1 2.848352 1_566
Na1 S11 2.871176 1_555
Na1 S3 2.902845 1_455
Na1 S5 2.925613 1_556
Na1 S7 2.937632 1_565
Na1 S13 3.102917 1_555
Na2 S2 2.848352 1_655
Na2 S8 2.871176 1_555
Na2 S0 2.902845 1_545
Na2 S6 2.925613 1_555
Na2 S4 2.937632 1_655
Na2 S12 3.102917 1_555
Na3 S3 2.848352 1_544
Na3 S9 2.871176 1_555
Na3 S1 2.902845 1_655
Na3 S7 2.925613 1_554
Na3 S5 2.937632 1_545
Na3 S12 3.102917 1_555
Na4 S0 2.787648 1_555
Na4 S2 2.787648 1_555
Na4 S10 2.896762 1_555
Na4 S8 2.896762 1_555
Na4 S6 3.059425 1_555
Na4 S4 3.059425 1_555
Na5 S3 2.787648 1_554
Na5 S1 2.787648 1_555
Na5 S9 2.896762 1_555
Na5 S11 2.896762 1_554
Na5 S5 3.059425 1_555
Na5 S7 3.059425 1_554
Na6 S8 2.765356 1_555
Na6 S1 2.812096 1_655
Na6 S5 2.831120 1_655
Na6 S3 2.865777 1_554
Na7 S9 2.765356 1_555
Na7 S0 2.812096 1_545
Na7 S4 2.831120 1_545
Na7 S2 2.865777 1_555
Na8 S10 2.765356 1_555
Na8 S3 2.812096 1_455
Na8 S7 2.831120 1_455
Na8 S1 2.865777 1_556
Na9 S11 2.765356 1_555
Na9 S2 2.812096 1_565
Na9 S6 2.831120 1_565
Na9 S0 2.865777 1_555
Ag0 S5 2.572921 1_555
Ag0 S4 2.572921 1_555
Ag0 S8 2.642601 1_555
Ag0 S9 2.642601 1_555
Ag1 S7 2.572921 1_555
Ag1 S6 2.572921 1_555
Ag1 S10 2.642601 1_555
Ag1 S11 2.642601 1_555
S0 Si0 2.114408 1_555
S1 Si1 2.114408 1_555
S2 Si2 2.114408 1_555
S3 Si3 2.114408 1_555
S4 Si0 2.109948 1_455
S5 Si1 2.109948 1_565
S6 Si2 2.109948 1_655
S7 Si3 2.109948 1_545
S8 Si0 2.114809 1_555
S9 Si1 2.114809 1_555
S10 Si2 2.114809 1_555
S11 Si3 2.114809 1_555
S12 Si0 2.189119 1_545
S12 Si1 2.189119 1_655
S13 Si2 2.189119 1_565
S13 Si3 2.189119 1_455
