# generated using pymatgen
data_Ba4TaSbO9
_symmetry_space_group_name_H-M   'P 1'
_cell_length_a   6.12362846
_cell_length_b   6.12360274
_cell_length_c   16.57724289
_cell_angle_alpha   90.00000000
_cell_angle_beta   90.00000000
_cell_angle_gamma   119.99998799
_symmetry_Int_Tables_number   1
_chemical_formula_structural   Ba4TaSbO9
_chemical_formula_sum   'Ba8 Ta2 Sb2 O18'
_cell_volume   538.34269760
_cell_formula_units_Z   2
loop_
 _symmetry_equiv_pos_site_id
 _symmetry_equiv_pos_as_xyz
  1  'x, y, z'
loop_
 _atom_site_type_symbol
 _atom_site_label
 _atom_site_symmetry_multiplicity
 _atom_site_fract_x
 _atom_site_fract_y
 _atom_site_fract_z
 _atom_site_occupancy
  Ba  Ba0  1  0.00001551  0.00002614  0.75499160  1
  Ba  Ba1  1  0.99998449  0.99997386  0.25499160  1
  Ba  Ba2  1  0.66667269  0.33334429  0.63331375  1
  Ba  Ba3  1  0.33332731  0.66665571  0.13331375  1
  Ba  Ba4  1  0.33331680  0.66663653  0.37258465  1
  Ba  Ba5  1  0.66668320  0.33336347  0.87258465  1
  Ba  Ba6  1  0.99999438  0.99998631  0.49797810  1
  Ba  Ba7  1  0.00000562  0.00001369  0.99797810  1
  Ta  Ta0  1  0.33331250  0.66665016  0.65699451  1
  Ta  Ta1  1  0.66668750  0.33334984  0.15699451  1
  Sb  Sb0  1  0.66665025  0.33330626  0.33601082  1
  Sb  Sb1  1  0.33334975  0.66669374  0.83601082  1
  O  O0  1  0.51991319  0.95221908  0.75044651  1
  O  O1  1  0.04780929  0.56772629  0.75044533  1
  O  O2  1  0.43230675  0.48011626  0.75044748  1
  O  O3  1  0.48008681  0.04778092  0.25044651  1
  O  O4  1  0.95219071  0.43227371  0.25044533  1
  O  O5  1  0.56769325  0.51988374  0.25044748  1
  O  O6  1  0.10962580  0.35761949  0.60731798  1
  O  O7  1  0.64239804  0.75201093  0.60731979  1
  O  O8  1  0.24800310  0.89039813  0.60731782  1
  O  O9  1  0.89037420  0.64238051  0.10731798  1
  O  O10  1  0.35760196  0.24798907  0.10731979  1
  O  O11  1  0.75199690  0.10960187  0.10731782  1
  O  O12  1  0.88347916  0.64729507  0.39161279  1
  O  O13  1  0.35265997  0.23614820  0.39160863  1
  O  O14  1  0.76382077  0.11647810  0.39160825  1
  O  O15  1  0.11652084  0.35270493  0.89161279  1
  O  O16  1  0.64734003  0.76385180  0.89160863  1
  O  O17  1  0.23617923  0.88352190  0.89160825  1
loop_
_geom_bond_atom_site_label_1
_geom_bond_atom_site_label_2
_geom_bond_distance
_geom_bond_site_symmetry_2
Ba0 O2 2.806024 1_555
Ba0 O1 2.806055 1_545
Ba0 O0 2.806085 1_445
Ba0 O17 2.959922 1_545
Ba0 O16 2.959959 1_445
Ba0 O15 2.960016 1_555
Ba0 O6 3.125474 1_555
Ba0 O8 3.125546 1_545
Ba0 O7 3.125550 1_445
Ba0 O1 3.340517 1_555
Ba0 O0 3.340523 1_545
Ba0 O2 3.340564 1_445
Ba1 O5 2.806024 1_555
Ba1 O4 2.806055 1_565
Ba1 O3 2.806085 1_665
Ba1 O14 2.959922 1_565
Ba1 O13 2.959959 1_665
Ba1 O12 2.960016 1_555
Ba1 O9 3.125474 1_555
Ba1 O11 3.125546 1_565
Ba1 O10 3.125550 1_665
Ba1 O4 3.340517 1_555
Ba1 O3 3.340523 1_565
Ba1 O5 3.340564 1_665
Ba2 O7 2.676132 1_555
Ba2 O8 2.676166 1_545
Ba2 O6 2.676217 1_655
Ba2 O0 2.815576 1_545
Ba2 O1 2.815618 1_655
Ba2 O2 2.815636 1_555
Ba3 O10 2.676132 1_555
Ba3 O11 2.676166 1_565
Ba3 O9 2.676217 1_455
Ba3 O3 2.815576 1_565
Ba3 O4 2.815618 1_455
Ba3 O5 2.815636 1_555
Ba4 O13 2.715689 1_555
Ba4 O12 2.715751 1_455
Ba4 O14 2.715771 1_565
Ba4 O5 2.873441 1_555
Ba4 O4 2.873449 1_455
Ba4 O3 2.873499 1_565
Ba5 O16 2.715689 1_555
Ba5 O15 2.715751 1_655
Ba5 O17 2.715771 1_545
Ba5 O2 2.873441 1_555
Ba5 O1 2.873449 1_655
Ba5 O0 2.873499 1_545
Ba6 O13 2.596416 1_665
Ba6 O14 2.596429 1_565
Ba6 O12 2.596463 1_555
Ba6 O7 2.657307 1_555
Ba6 O8 2.657318 1_655
Ba6 O6 2.657428 1_665
Ba7 O16 2.596416 1_445
Ba7 O17 2.596429 1_545
Ba7 O15 2.596463 1_555
Ba7 O10 2.657307 1_556
Ba7 O11 2.657318 1_456
Ba7 O9 2.657428 1_446
O0 Sb1 2.092045 1_555
O0 Ta0 2.182988 1_555
O1 Sb1 2.092122 1_555
O1 Ta0 2.182745 1_555
O2 Sb1 2.092077 1_555
O2 Ta0 2.182815 1_555
O3 Sb0 2.092045 1_555
O3 Ta1 2.182988 1_555
O4 Sb0 2.092122 1_555
O4 Ta1 2.182745 1_555
O5 Sb0 2.092077 1_555
O5 Ta1 2.182815 1_555
O6 Ta0 1.882394 1_555
O7 Ta0 1.882654 1_555
O8 Ta0 1.882584 1_555
O9 Ta1 1.882394 1_555
O10 Ta1 1.882654 1_555
O11 Ta1 1.882584 1_555
O12 Sb0 1.938180 1_555
O13 Sb0 1.938163 1_555
O14 Sb0 1.938183 1_555
O15 Sb1 1.938180 1_555
O16 Sb1 1.938163 1_555
O17 Sb1 1.938183 1_555
