# generated using pymatgen
data_Sr2SiIrI
_symmetry_space_group_name_H-M   'P 1'
_cell_length_a   4.24057354
_cell_length_b   4.24057262
_cell_length_c   18.42287001
_cell_angle_alpha   90.00000000
_cell_angle_beta   90.00000000
_cell_angle_gamma   119.99999940
_symmetry_Int_Tables_number   1
_chemical_formula_structural   Sr2SiIrI
_chemical_formula_sum   'Sr4 Si2 Ir2 I2'
_cell_volume   286.90427933
_cell_formula_units_Z   2
loop_
 _symmetry_equiv_pos_site_id
 _symmetry_equiv_pos_as_xyz
  1  'x, y, z'
loop_
 _atom_site_type_symbol
 _atom_site_label
 _atom_site_symmetry_multiplicity
 _atom_site_fract_x
 _atom_site_fract_y
 _atom_site_fract_z
 _atom_site_occupancy
  Sr  Sr0  1  0.00000000  0.00000000  0.38815169  1
  Sr  Sr1  1  0.00000000  0.00000000  0.88815169  1
  Sr  Sr2  1  0.00000000  0.00000000  0.61147638  1
  Sr  Sr3  1  0.00000000  0.00000000  0.11147638  1
  Si  Si0  1  0.33333300  0.66666700  0.50038937  1
  Si  Si1  1  0.66666700  0.33333300  0.00038937  1
  Ir  Ir0  1  0.66666700  0.33333300  0.49916193  1
  Ir  Ir1  1  0.33333300  0.66666700  0.99916193  1
  I  I0  1  0.33333300  0.66666700  0.25082163  1
  I  I1  1  0.66666700  0.33333300  0.75082163  1
loop_
_geom_bond_atom_site_label_1
_geom_bond_atom_site_label_2
_geom_bond_distance
_geom_bond_site_symmetry_2
Si0 Sr2 3.190999 1_565
Si0 Sr2 3.191001 1_555
Si0 Sr2 3.191002 1_665
Si0 Sr0 3.204636 1_565
Si0 Sr0 3.204638 1_555
Si0 Sr0 3.204639 1_665
Si1 Sr3 3.190999 1_655
Si1 Sr3 3.191001 1_665
Si1 Sr3 3.191002 1_555
Si1 Sr1 3.204636 1_654
Si1 Sr1 3.204638 1_664
Si1 Sr1 3.204639 1_554
Ir0 Si0 2.448398 1_545
Ir0 Si0 2.448398 1_655
Ir0 Si0 2.448405 1_555
Ir0 Sr0 3.190092 1_655
Ir0 Sr0 3.190095 1_665
Ir0 Sr0 3.190095 1_555
Ir0 Sr2 3.205549 1_655
Ir0 Sr2 3.205551 1_665
Ir0 Sr2 3.205552 1_555
Ir1 Si1 2.448398 1_566
Ir1 Si1 2.448398 1_456
Ir1 Si1 2.448405 1_556
Ir1 Sr1 3.190092 1_565
Ir1 Sr1 3.190095 1_555
Ir1 Sr1 3.190095 1_665
Ir1 Sr3 3.205549 1_566
Ir1 Sr3 3.205551 1_556
Ir1 Sr3 3.205552 1_666
I0 Sr0 3.520669 1_565
I0 Sr0 3.520672 1_555
I0 Sr0 3.520672 1_665
I0 Sr3 3.547442 1_565
I0 Sr3 3.547444 1_555
I0 Sr3 3.547445 1_665
I1 Sr1 3.520669 1_655
I1 Sr1 3.520672 1_665
I1 Sr1 3.520672 1_555
I1 Sr2 3.547442 1_655
I1 Sr2 3.547444 1_665
I1 Sr2 3.547445 1_555
