# generated using pymatgen
data_LuBeOs2C
_symmetry_space_group_name_H-M   'P 1'
_cell_length_a   5.62291778
_cell_length_b   5.62291691
_cell_length_c   6.97195087
_cell_angle_alpha   90.00000000
_cell_angle_beta   90.00000000
_cell_angle_gamma   141.21294056
_symmetry_Int_Tables_number   1
_chemical_formula_structural   LuBeOs2C
_chemical_formula_sum   'Lu2 Be2 Os4 C2'
_cell_volume   138.08570603
_cell_formula_units_Z   2
loop_
 _symmetry_equiv_pos_site_id
 _symmetry_equiv_pos_as_xyz
  1  'x, y, z'
loop_
 _atom_site_type_symbol
 _atom_site_label
 _atom_site_symmetry_multiplicity
 _atom_site_fract_x
 _atom_site_fract_y
 _atom_site_fract_z
 _atom_site_occupancy
  Lu  Lu0  1  0.54484789  0.45515211  0.25000000  1
  Lu  Lu1  1  0.45515211  0.54484789  0.75000000  1
  Be  Be0  1  0.27020200  0.72979800  0.25000000  1
  Be  Be1  1  0.72979800  0.27020200  0.75000000  1
  Os  Os0  1  0.82573501  0.17426499  0.05819846  1
  Os  Os1  1  0.17426499  0.82573501  0.94180154  1
  Os  Os2  1  0.17426499  0.82573501  0.55819846  1
  Os  Os3  1  0.82573501  0.17426499  0.44180154  1
  C  C0  1  0.00000000  0.00000000  0.00000000  1
  C  C1  1  0.00000000  0.00000000  0.50000000  1
loop_
_geom_bond_atom_site_label_1
_geom_bond_atom_site_label_2
_geom_bond_distance
_geom_bond_site_symmetry_2
Be0 Os3 2.370933 1_455
Be0 Os0 2.370933 1_455
Be0 Os3 2.370933 1_565
Be0 Os0 2.370933 1_565
Be0 Os2 2.377555 1_555
Be0 Os1 2.377555 1_554
Be1 Os1 2.370933 1_655
Be1 Os2 2.370933 1_655
Be1 Os1 2.370933 1_545
Be1 Os2 2.370933 1_545
Be1 Os0 2.377555 1_556
Be1 Os3 2.377555 1_555
C0 Os0 1.892567 1_455
C0 Os1 1.892567 1_544
C0 Lu1 2.598163 1_554
C0 Lu0 2.598163 1_445
C0 Lu0 2.598163 1_555
C0 Lu1 2.598163 1_444
C1 Os2 1.892567 1_545
C1 Os3 1.892567 1_455
C1 Lu1 2.598163 1_555
C1 Lu0 2.598163 1_445
C1 Lu0 2.598163 1_555
C1 Lu1 2.598163 1_445
