# generated using pymatgen
data_Rb2VZn3As4
_symmetry_space_group_name_H-M   'P 1'
_cell_length_a   7.81881948
_cell_length_b   7.81881908
_cell_length_c   5.82490384
_cell_angle_alpha   90.00000000
_cell_angle_beta   90.00000000
_cell_angle_gamma   136.28679176
_symmetry_Int_Tables_number   1
_chemical_formula_structural   Rb2VZn3As4
_chemical_formula_sum   'Rb2 V1 Zn3 As4'
_cell_volume   246.08207978
_cell_formula_units_Z   1
loop_
 _symmetry_equiv_pos_site_id
 _symmetry_equiv_pos_as_xyz
  1  'x, y, z'
loop_
 _atom_site_type_symbol
 _atom_site_label
 _atom_site_symmetry_multiplicity
 _atom_site_fract_x
 _atom_site_fract_y
 _atom_site_fract_z
 _atom_site_occupancy
  Rb  Rb0  1  0.50000000  0.00000000  0.25629240  1
  Rb  Rb1  1  0.00000000  0.50000000  0.74370760  1
  V  V0  1  0.00000000  0.00000000  0.00000000  1
  Zn  Zn0  1  0.50000000  0.50000000  0.50000000  1
  Zn  Zn1  1  0.50000000  0.50000000  0.00000000  1
  Zn  Zn2  1  0.00000000  0.00000000  0.50000000  1
  As  As0  1  0.66151271  0.86010993  0.76123328  1
  As  As1  1  0.13989007  0.33848729  0.23876672  1
  As  As2  1  0.86010993  0.66151271  0.23876672  1
  As  As3  1  0.33848729  0.13989007  0.76123328  1
loop_
_geom_bond_atom_site_label_1
_geom_bond_atom_site_label_2
_geom_bond_distance
_geom_bond_site_symmetry_2
As0 V0 2.439321 1_666
As0 Zn1 2.513305 1_556
As0 Zn2 2.516232 1_665
As0 Zn0 2.588018 1_555
As0 Rb1 3.592326 1_665
As0 Rb0 3.619868 1_566
As0 Rb0 3.665887 1_565
As0 Rb1 3.692917 1_555
As1 V0 2.439321 1_555
As1 Zn1 2.513305 1_555
As1 Zn2 2.516232 1_555
As1 Zn0 2.588019 1_555
As1 Rb0 3.592327 1_455
As1 Rb1 3.619868 1_554
As1 Rb1 3.665887 1_555
As1 Rb0 3.692917 1_565
As2 V0 2.439321 1_665
As2 Zn1 2.513305 1_555
As2 Zn2 2.516232 1_665
As2 Zn0 2.588019 1_555
As2 Rb0 3.592327 1_665
As2 Rb1 3.619868 1_654
As2 Rb1 3.665887 1_655
As2 Rb0 3.692917 1_555
As3 V0 2.439321 1_556
As3 Zn1 2.513305 1_556
As3 Zn2 2.516232 1_555
As3 Zn0 2.588018 1_555
As3 Rb1 3.592326 1_545
As3 Rb0 3.619868 1_556
As3 Rb0 3.665887 1_555
As3 Rb1 3.692917 1_655
