# generated using pymatgen
data_AsOsF8
_symmetry_space_group_name_H-M   'P 1'
_cell_length_a   8.02820331
_cell_length_b   5.54902724
_cell_length_c   6.85538827
_cell_angle_alpha   84.22545371
_cell_angle_beta   90.00000000
_cell_angle_gamma   90.00000000
_symmetry_Int_Tables_number   1
_chemical_formula_structural   AsOsF8
_chemical_formula_sum   'As2 Os2 F16'
_cell_volume   303.84902038
_cell_formula_units_Z   2
loop_
 _symmetry_equiv_pos_site_id
 _symmetry_equiv_pos_as_xyz
  1  'x, y, z'
loop_
 _atom_site_type_symbol
 _atom_site_label
 _atom_site_symmetry_multiplicity
 _atom_site_fract_x
 _atom_site_fract_y
 _atom_site_fract_z
 _atom_site_occupancy
  As  As0  1  0.25000000  0.48959290  0.31064144  1
  As  As1  1  0.75000000  0.51040710  0.68935856  1
  Os  Os0  1  0.25000000  0.79204592  0.78830469  1
  Os  Os1  1  0.75000000  0.20795408  0.21169531  1
  F  F0  1  0.48518789  0.77943552  0.78905180  1
  F  F1  1  0.98518789  0.22056448  0.21094820  1
  F  F2  1  0.51481211  0.22056448  0.21094820  1
  F  F3  1  0.01481211  0.77943552  0.78905180  1
  F  F4  1  0.25000000  0.02742841  0.96244310  1
  F  F5  1  0.75000000  0.97257159  0.03755690  1
  F  F6  1  0.09107178  0.69993395  0.29946061  1
  F  F7  1  0.59107178  0.30006605  0.70053939  1
  F  F8  1  0.90892822  0.30006605  0.70053939  1
  F  F9  1  0.40892822  0.69993395  0.29946061  1
  F  F10  1  0.25000000  0.53262245  0.00875687  1
  F  F11  1  0.75000000  0.46737755  0.99124313  1
  F  F12  1  0.25000000  0.52613511  0.61910987  1
  F  F13  1  0.75000000  0.47386489  0.38089013  1
  F  F14  1  0.25000000  0.01956756  0.56960400  1
  F  F15  1  0.75000000  0.98043244  0.43039600  1
loop_
_geom_bond_atom_site_label_1
_geom_bond_atom_site_label_2
_geom_bond_distance
_geom_bond_site_symmetry_2
As0 F9 1.725729 1_555
As0 F6 1.725729 1_555
As0 F10 2.059261 1_555
As0 F12 2.144583 1_555
As1 F7 1.725729 1_555
As1 F8 1.725729 1_555
As1 F11 2.059261 1_555
As1 F13 2.144583 1_555
F0 Os0 1.889420 1_555
F1 Os1 1.889420 1_555
F2 Os1 1.889420 1_555
F3 Os0 1.889420 1_555
F4 Os0 1.856045 1_545
F5 Os1 1.856045 1_565
F10 Os0 1.979519 1_554
F11 Os1 1.979519 1_556
F12 Os0 1.966468 1_555
F13 Os1 1.966468 1_555
F14 Os0 1.860350 1_545
F15 Os1 1.860350 1_565
