# generated using pymatgen
data_Y2BIrPt5
_symmetry_space_group_name_H-M   'P 1'
_cell_length_a   5.90528015
_cell_length_b   5.89108081
_cell_length_c   5.89108096
_cell_angle_alpha   60.15952953
_cell_angle_beta   59.92023691
_cell_angle_gamma   59.92023669
_symmetry_Int_Tables_number   1
_chemical_formula_structural   Y2BIrPt5
_chemical_formula_sum   'Y2 B1 Ir1 Pt5'
_cell_volume   144.91402880
_cell_formula_units_Z   1
loop_
 _symmetry_equiv_pos_site_id
 _symmetry_equiv_pos_as_xyz
  1  'x, y, z'
loop_
 _atom_site_type_symbol
 _atom_site_label
 _atom_site_symmetry_multiplicity
 _atom_site_fract_x
 _atom_site_fract_y
 _atom_site_fract_z
 _atom_site_occupancy
  Y  Y0  1  0.24874795  0.25125205  0.25125205  1
  Y  Y1  1  0.74874795  0.75125205  0.75125205  1
  B  B0  1  0.00600344  0.99399656  0.99399656  1
  Ir  Ir0  1  0.25548164  0.74451936  0.74451936  1
  Pt  Pt0  1  0.74579294  0.25420806  0.25420806  1
  Pt  Pt1  1  0.25635838  0.74364262  0.25874334  1
  Pt  Pt2  1  0.74125566  0.74364062  0.25874534  1
  Pt  Pt3  1  0.25635838  0.25874334  0.74364262  1
  Pt  Pt4  1  0.74125566  0.25874534  0.74364062  1
loop_
_geom_bond_atom_site_label_1
_geom_bond_atom_site_label_2
_geom_bond_distance
_geom_bond_site_symmetry_2
B0 Ir0 2.073434 1_555
B0 Pt3 2.151723 1_565
B0 Pt1 2.151723 1_556
B0 Pt2 2.151731 1_456
B0 Pt4 2.151731 1_465
B0 Pt0 2.162648 1_466
Ir0 Y1 2.953164 1_555
Ir0 Y0 2.953170 1_565
Ir0 Y0 2.953170 1_556
Ir0 Y1 2.953176 1_455
Pt0 Y0 2.952736 1_655
Pt0 Y1 2.952742 1_545
Pt0 Y1 2.952742 1_554
Pt0 Y0 2.952748 1_555
Pt1 Y1 2.945866 1_554
Pt1 Y0 2.945872 1_555
Pt1 Y0 2.946559 1_565
Pt1 Y1 2.946565 1_455
Pt2 Y0 2.945866 1_655
Pt2 Y1 2.945872 1_554
Pt2 Y1 2.946559 1_555
Pt2 Y0 2.946565 1_565
Pt3 Y1 2.945866 1_545
Pt3 Y0 2.945872 1_555
Pt3 Y0 2.946559 1_556
Pt3 Y1 2.946565 1_455
Pt4 Y0 2.945866 1_655
Pt4 Y1 2.945872 1_545
Pt4 Y1 2.946559 1_555
Pt4 Y0 2.946565 1_556
