# generated using pymatgen
data_Li12HfOsN8
_symmetry_space_group_name_H-M   'P 1'
_cell_length_a   6.81007527
_cell_length_b   6.81007527
_cell_length_c   4.85164981
_cell_angle_alpha   90.00000000
_cell_angle_beta   90.00000000
_cell_angle_gamma   90.00000000
_symmetry_Int_Tables_number   1
_chemical_formula_structural   Li12HfOsN8
_chemical_formula_sum   'Li12 Hf1 Os1 N8'
_cell_volume   225.00557078
_cell_formula_units_Z   1
loop_
 _symmetry_equiv_pos_site_id
 _symmetry_equiv_pos_as_xyz
  1  'x, y, z'
loop_
 _atom_site_type_symbol
 _atom_site_label
 _atom_site_symmetry_multiplicity
 _atom_site_fract_x
 _atom_site_fract_y
 _atom_site_fract_z
 _atom_site_occupancy
  Li  Li0  1  0.50000000  0.00000000  0.54143854  1
  Li  Li1  1  0.00000000  0.50000000  0.92264458  1
  Li  Li2  1  0.00000000  0.50000000  0.45856146  1
  Li  Li3  1  0.50000000  0.00000000  0.07735542  1
  Li  Li4  1  0.22168179  0.22168179  0.50000000  1
  Li  Li5  1  0.77831821  0.77831821  0.50000000  1
  Li  Li6  1  0.70524268  0.70524268  0.00000000  1
  Li  Li7  1  0.29475732  0.29475732  0.00000000  1
  Li  Li8  1  0.22168179  0.77831821  0.50000000  1
  Li  Li9  1  0.77831821  0.22168179  0.50000000  1
  Li  Li10  1  0.70524268  0.29475732  0.00000000  1
  Li  Li11  1  0.29475732  0.70524268  0.00000000  1
  Hf  Hf0  1  0.50000000  0.50000000  0.50000000  1
  Os  Os0  1  0.00000000  0.00000000  0.00000000  1
  N  N0  1  0.50000000  0.23908867  0.29176906  1
  N  N1  1  0.50000000  0.76091133  0.29176906  1
  N  N2  1  0.00000000  0.77715915  0.20191226  1
  N  N3  1  0.00000000  0.22284085  0.20191226  1
  N  N4  1  0.23908867  0.50000000  0.70823094  1
  N  N5  1  0.76091133  0.50000000  0.70823094  1
  N  N6  1  0.77715915  0.00000000  0.79808774  1
  N  N7  1  0.22284085  0.00000000  0.79808774  1
loop_
_geom_bond_atom_site_label_1
_geom_bond_atom_site_label_2
_geom_bond_distance
_geom_bond_site_symmetry_2
Li0 N0 2.029370 1_555
Li0 N1 2.029370 1_545
Li0 N6 2.261197 1_555
Li0 N7 2.261197 1_555
Li1 N4 1.932153 1_555
Li1 N5 1.932153 1_455
Li1 N2 2.323433 1_556
Li1 N3 2.323433 1_556
Li2 N4 2.029370 1_555
Li2 N5 2.029370 1_455
Li2 N2 2.261197 1_555
Li2 N3 2.261197 1_555
Li3 N0 1.932153 1_555
Li3 N1 1.932153 1_545
Li3 N6 2.323433 1_554
Li3 N7 2.323433 1_554
Li4 N3 2.090624 1_555
Li4 N7 2.090624 1_555
Li4 N4 2.151071 1_555
Li4 N0 2.151071 1_555
Li5 N2 2.090624 1_655
Li5 N6 2.090624 1_565
Li5 N5 2.151071 1_555
Li5 N1 2.151071 1_555
Li6 N1 2.025130 1_555
Li6 N5 2.025130 1_554
Li6 N2 2.286662 1_655
Li6 N6 2.286662 1_564
Li7 N0 2.025130 1_555
Li7 N4 2.025130 1_554
Li7 N7 2.286662 1_554
Li7 N3 2.286662 1_555
Li8 N2 2.090624 1_555
Li8 N7 2.090624 1_565
Li8 N4 2.151071 1_555
Li8 N1 2.151071 1_555
Li9 N6 2.090624 1_555
Li9 N3 2.090624 1_655
Li9 N0 2.151071 1_555
Li9 N5 2.151071 1_555
Li10 N0 2.025130 1_555
Li10 N5 2.025130 1_554
Li10 N6 2.286662 1_554
Li10 N3 2.286662 1_655
Li11 N4 2.025130 1_554
Li11 N1 2.025130 1_555
Li11 N2 2.286662 1_555
Li11 N7 2.286662 1_564
Hf0 N5 2.043953 1_555
Hf0 N1 2.043953 1_555
Hf0 N4 2.043953 1_555
Hf0 N0 2.043953 1_555
N2 Os0 1.806275 1_565
N3 Os0 1.806275 1_555
N6 Os0 1.806275 1_656
N7 Os0 1.806275 1_556
