# generated using pymatgen
data_Sr2(Al3Rh)3
_symmetry_space_group_name_H-M   'P 1'
_cell_length_a   7.64347301
_cell_length_b   7.64347303
_cell_length_c   9.72633483
_cell_angle_alpha   90.00000000
_cell_angle_beta   90.00000000
_cell_angle_gamma   118.71393321
_symmetry_Int_Tables_number   1
_chemical_formula_structural   Sr2(Al3Rh)3
_chemical_formula_sum   'Sr4 Al18 Rh6'
_cell_volume   498.36188588
_cell_formula_units_Z   2
loop_
 _symmetry_equiv_pos_site_id
 _symmetry_equiv_pos_as_xyz
  1  'x, y, z'
loop_
 _atom_site_type_symbol
 _atom_site_label
 _atom_site_symmetry_multiplicity
 _atom_site_fract_x
 _atom_site_fract_y
 _atom_site_fract_z
 _atom_site_occupancy
  Sr  Sr0  1  0.96928133  0.66642915  0.25000000  1
  Sr  Sr1  1  0.03071867  0.33357085  0.75000000  1
  Sr  Sr2  1  0.66642915  0.96928133  0.25000000  1
  Sr  Sr3  1  0.33357085  0.03071867  0.75000000  1
  Al  Al0  1  0.12680972  0.12680972  0.25000000  1
  Al  Al1  1  0.87319028  0.87319028  0.75000000  1
  Al  Al2  1  0.99086882  0.33140766  0.07109196  1
  Al  Al3  1  0.00913118  0.66859234  0.92890804  1
  Al  Al4  1  0.00913118  0.66859234  0.57109196  1
  Al  Al5  1  0.33140766  0.99086882  0.42890804  1
  Al  Al6  1  0.99086882  0.33140766  0.42890804  1
  Al  Al7  1  0.66859234  0.00913118  0.57109196  1
  Al  Al8  1  0.66859234  0.00913118  0.92890804  1
  Al  Al9  1  0.33140766  0.99086882  0.07109196  1
  Al  Al10  1  0.33127544  0.33127544  0.49441860  1
  Al  Al11  1  0.66872456  0.66872456  0.50558140  1
  Al  Al12  1  0.66872456  0.66872456  0.99441860  1
  Al  Al13  1  0.33127544  0.33127544  0.00558140  1
  Al  Al14  1  0.30845498  0.53256095  0.25000000  1
  Al  Al15  1  0.69154502  0.46743905  0.75000000  1
  Al  Al16  1  0.53256095  0.30845498  0.25000000  1
  Al  Al17  1  0.46743905  0.69154502  0.75000000  1
  Rh  Rh0  1  0.66745560  0.33254440  0.00000000  1
  Rh  Rh1  1  0.33254440  0.66745560  0.00000000  1
  Rh  Rh2  1  0.33254440  0.66745560  0.50000000  1
  Rh  Rh3  1  0.66745560  0.33254440  0.50000000  1
  Rh  Rh4  1  0.00000000  0.00000000  0.00000000  1
  Rh  Rh5  1  0.00000000  0.00000000  0.50000000  1
loop_
_geom_bond_atom_site_label_1
_geom_bond_atom_site_label_2
_geom_bond_distance
_geom_bond_site_symmetry_2
Al0 Rh4 2.624659 1_555
Al0 Rh5 2.624659 1_555
Al0 Al16 2.721871 1_555
Al0 Al14 2.721871 1_555
Al0 Al5 2.848614 1_545
Al0 Al9 2.848614 1_545
Al0 Al6 2.848614 1_455
Al0 Al2 2.848614 1_455
Al0 Al10 2.861737 1_555
Al0 Al13 2.861737 1_555
Al0 Sr2 3.124302 1_445
Al0 Sr0 3.124302 1_445
Al1 Rh4 2.624659 1_666
Al1 Rh5 2.624659 1_665
Al1 Al17 2.721871 1_555
Al1 Al15 2.721871 1_555
Al1 Al8 2.848614 1_565
Al1 Al7 2.848614 1_565
Al1 Al3 2.848614 1_655
Al1 Al4 2.848614 1_655
Al1 Al12 2.861737 1_555
Al1 Al11 2.861737 1_555
Al1 Sr3 3.124302 1_665
Al1 Sr1 3.124302 1_665
Al2 Rh0 2.570918 1_555
Al2 Rh4 2.658852 1_655
Al2 Rh1 2.729559 1_655
Al2 Al8 2.866672 1_554
Al2 Al3 2.868550 1_654
Al2 Sr1 3.137139 1_654
Al2 Sr0 3.165212 1_555
Al2 Sr2 3.200551 1_545
Al3 Rh1 2.570918 1_556
Al3 Rh4 2.658852 1_566
Al3 Rh0 2.729559 1_456
Al3 Al9 2.866672 1_556
Al3 Sr0 3.137139 1_456
Al3 Sr1 3.165212 1_555
Al3 Sr3 3.200551 1_565
Al4 Rh2 2.570918 1_555
Al4 Rh5 2.658852 1_565
Al4 Rh3 2.729559 1_455
Al4 Al5 2.866672 1_555
Al4 Al6 2.868550 1_455
Al4 Sr0 3.137139 1_455
Al4 Sr1 3.165212 1_555
Al4 Sr3 3.200551 1_565
Al5 Rh2 2.570918 1_555
Al5 Rh5 2.658852 1_565
Al5 Rh3 2.729559 1_565
Al5 Al7 2.868550 1_565
Al5 Sr3 3.137139 1_565
Al5 Sr2 3.165212 1_555
Al5 Sr0 3.200551 1_455
Al6 Rh3 2.570918 1_555
Al6 Rh5 2.658852 1_655
Al6 Rh2 2.729559 1_655
Al6 Al7 2.866672 1_555
Al6 Sr1 3.137139 1_655
Al6 Sr0 3.165212 1_555
Al6 Sr2 3.200551 1_545
Al7 Rh3 2.570918 1_555
Al7 Rh5 2.658852 1_655
Al7 Rh2 2.729559 1_545
Al7 Sr2 3.137139 1_545
Al7 Sr3 3.165212 1_555
Al7 Sr1 3.200551 1_655
Al8 Rh0 2.570918 1_556
Al8 Rh4 2.658852 1_656
Al8 Rh1 2.729559 1_546
Al8 Al9 2.868550 1_546
Al8 Sr2 3.137139 1_546
Al8 Sr3 3.165212 1_555
Al8 Sr1 3.200551 1_655
Al9 Rh1 2.570918 1_555
Al9 Rh4 2.658852 1_565
Al9 Rh0 2.729559 1_565
Al9 Sr3 3.137139 1_564
Al9 Sr2 3.165212 1_555
Al9 Sr0 3.200551 1_455
Al10 Rh3 2.565513 1_555
Al10 Rh2 2.565513 1_555
Al10 Rh5 2.581726 1_555
Al10 Al11 2.631499 1_555
Al10 Al6 2.679244 1_455
Al10 Al5 2.679244 1_545
Al10 Al16 2.882164 1_555
Al10 Al14 2.882164 1_555
Al10 Sr1 3.390599 1_555
Al10 Sr3 3.390599 1_555
Al11 Rh2 2.565513 1_555
Al11 Rh3 2.565513 1_555
Al11 Rh5 2.581726 1_665
Al11 Al4 2.679244 1_655
Al11 Al7 2.679244 1_565
Al11 Al17 2.882164 1_555
Al11 Al15 2.882164 1_555
Al11 Sr0 3.390599 1_555
Al11 Sr2 3.390599 1_555
Al12 Rh1 2.565513 1_556
Al12 Rh0 2.565513 1_556
Al12 Rh4 2.581726 1_666
Al12 Al13 2.631499 1_556
Al12 Al3 2.679244 1_655
Al12 Al8 2.679244 1_565
Al12 Al17 2.882164 1_555
Al12 Al15 2.882164 1_555
Al12 Sr0 3.390599 1_556
Al12 Sr2 3.390599 1_556
Al13 Rh0 2.565513 1_555
Al13 Rh1 2.565513 1_555
Al13 Rh4 2.581726 1_555
Al13 Al2 2.679244 1_455
Al13 Al9 2.679244 1_545
Al13 Al16 2.882164 1_555
Al13 Al14 2.882164 1_555
Al13 Sr1 3.390599 1_554
Al13 Sr3 3.390599 1_554
Al14 Rh1 2.612886 1_555
Al14 Rh2 2.612886 1_555
Al14 Al6 2.774582 1_455
Al14 Al2 2.774582 1_455
Al14 Al16 2.947502 1_555
Al14 Sr2 3.138969 1_555
Al14 Sr0 3.211964 1_455
Al15 Rh0 2.612886 1_556
Al15 Rh3 2.612886 1_555
Al15 Al3 2.774582 1_655
Al15 Al4 2.774582 1_655
Al15 Al17 2.947502 1_555
Al15 Sr3 3.138969 1_555
Al15 Sr1 3.211964 1_655
Al16 Rh0 2.612886 1_555
Al16 Rh3 2.612886 1_555
Al16 Al5 2.774582 1_545
Al16 Al9 2.774582 1_545
Al16 Sr0 3.138969 1_555
Al16 Sr2 3.211964 1_545
Al17 Rh1 2.612886 1_556
Al17 Rh2 2.612886 1_555
Al17 Al8 2.774582 1_565
Al17 Al7 2.774582 1_565
Al17 Sr1 3.138969 1_555
Al17 Sr3 3.211964 1_565
