# generated using pymatgen
data_Rb2Te3PtO12
_symmetry_space_group_name_H-M   'P 1'
_cell_length_a   7.06050860
_cell_length_b   7.06050860
_cell_length_c   7.06083175
_cell_angle_alpha   61.58025693
_cell_angle_beta   61.58025920
_cell_angle_gamma   61.58256063
_symmetry_Int_Tables_number   1
_chemical_formula_structural   Rb2Te3PtO12
_chemical_formula_sum   'Rb2 Te3 Pt1 O12'
_cell_volume   257.72126865
_cell_formula_units_Z   1
loop_
 _symmetry_equiv_pos_site_id
 _symmetry_equiv_pos_as_xyz
  1  'x, y, z'
loop_
 _atom_site_type_symbol
 _atom_site_label
 _atom_site_symmetry_multiplicity
 _atom_site_fract_x
 _atom_site_fract_y
 _atom_site_fract_z
 _atom_site_occupancy
  Rb  Rb0  1  0.12085997  0.12869178  0.62476130  1
  Rb  Rb1  1  0.87130822  0.87914003  0.37523870  1
  Te  Te0  1  0.49726913  0.00264218  0.00000914  1
  Te  Te1  1  0.99735782  0.50273087  0.99999086  1
  Te  Te2  1  0.49740033  0.50259967  0.50000000  1
  Pt  Pt0  1  0.49751271  0.50248729  0.00000000  1
  O  O0  1  0.81635308  0.82151024  0.92728297  1
  O  O1  1  0.41668082  0.42115195  0.33626166  1
  O  O2  1  0.41658821  0.83873273  0.91868461  1
  O  O3  1  0.81635804  0.42965457  0.31891259  1
  O  O4  1  0.83368972  0.42145849  0.91902681  1
  O  O5  1  0.42458629  0.82145536  0.31891273  1
  O  O6  1  0.17848976  0.18364692  0.07271703  1
  O  O7  1  0.57884805  0.58331918  0.66373834  1
  O  O8  1  0.57854151  0.16631028  0.08097319  1
  O  O9  1  0.17854464  0.57541371  0.68108727  1
  O  O10  1  0.16126727  0.58341179  0.08131539  1
  O  O11  1  0.57034543  0.18364196  0.68108741  1
loop_
_geom_bond_atom_site_label_1
_geom_bond_atom_site_label_2
_geom_bond_distance
_geom_bond_site_symmetry_2
O0 Te1 1.936382 1_555
O0 Te0 1.938148 1_566
O0 Rb0 3.089678 1_665
O1 Te2 1.887881 1_555
O1 Pt0 2.004257 1_555
O1 Rb0 2.971056 1_555
O2 Te0 1.888091 1_566
O2 Pt0 2.004006 1_556
O2 Rb0 2.978244 1_565
O3 Te1 1.937178 1_554
O3 Te2 1.937453 1_555
O3 Rb0 3.082924 1_655
O4 Te1 1.887759 1_555
O4 Pt0 2.003803 1_556
O4 Rb0 2.964797 1_655
O5 Te2 1.936908 1_555
O5 Te0 1.937320 1_565
O5 Rb0 3.096991 1_565
O6 Te0 1.936382 1_555
O6 Te1 1.938148 1_454
O6 Rb1 3.089678 1_445
O7 Te2 1.887881 1_555
O7 Pt0 2.004257 1_556
O7 Rb1 2.971056 1_555
O8 Te0 1.887759 1_555
O8 Pt0 2.003803 1_555
O8 Rb1 2.964797 1_545
O9 Te2 1.936908 1_555
O9 Te1 1.937320 1_455
O9 Rb1 3.096991 1_455
O10 Te1 1.888091 1_454
O10 Pt0 2.004006 1_555
O10 Rb1 2.978244 1_455
O11 Te0 1.937178 1_556
O11 Te2 1.937453 1_555
O11 Rb1 3.082924 1_545
