# generated using pymatgen
data_CdTcF6
_symmetry_space_group_name_H-M   'P 1'
_cell_length_a   5.73803131
_cell_length_b   5.73803180
_cell_length_c   5.73803204
_cell_angle_alpha   54.12238191
_cell_angle_beta   54.12238436
_cell_angle_gamma   54.12237727
_symmetry_Int_Tables_number   1
_chemical_formula_structural   CdTcF6
_chemical_formula_sum   'Cd1 Tc1 F6'
_cell_volume   115.25814541
_cell_formula_units_Z   1
loop_
 _symmetry_equiv_pos_site_id
 _symmetry_equiv_pos_as_xyz
  1  'x, y, z'
loop_
 _atom_site_type_symbol
 _atom_site_label
 _atom_site_symmetry_multiplicity
 _atom_site_fract_x
 _atom_site_fract_y
 _atom_site_fract_z
 _atom_site_occupancy
  Cd  Cd0  1  0.00000000  0.00000000  0.00000000  1
  Tc  Tc0  1  0.50000000  0.50000000  0.50000000  1
  F  F0  1  0.41730691  0.12305357  0.72835927  1
  F  F1  1  0.72835927  0.41730691  0.12305357  1
  F  F2  1  0.87694643  0.27164073  0.58269309  1
  F  F3  1  0.27164073  0.58269309  0.87694643  1
  F  F4  1  0.58269309  0.87694643  0.27164073  1
  F  F5  1  0.12305357  0.72835927  0.41730691  1
loop_
_geom_bond_atom_site_label_1
_geom_bond_atom_site_label_2
_geom_bond_distance
_geom_bond_site_symmetry_2
Cd0 F0 2.231335 1_554
Cd0 F4 2.231335 1_445
Cd0 F1 2.231335 1_455
Cd0 F3 2.231335 1_544
Cd0 F5 2.231335 1_545
Cd0 F2 2.231335 1_454
F0 Tc0 1.942323 1_555
F1 Tc0 1.942323 1_555
F2 Tc0 1.942323 1_555
F3 Tc0 1.942323 1_555
F4 Tc0 1.942323 1_555
F5 Tc0 1.942323 1_555
