# generated using pymatgen
data_Zn3P6PbN13
_symmetry_space_group_name_H-M   'P 1'
_cell_length_a   7.02736711
_cell_length_b   7.16384976
_cell_length_c   7.02736803
_cell_angle_alpha   109.86511905
_cell_angle_beta   109.07445107
_cell_angle_gamma   109.86513820
_symmetry_Int_Tables_number   1
_chemical_formula_structural   Zn3P6PbN13
_chemical_formula_sum   'Zn3 P6 Pb1 N13'
_cell_volume   271.00391093
_cell_formula_units_Z   1
loop_
 _symmetry_equiv_pos_site_id
 _symmetry_equiv_pos_as_xyz
  1  'x, y, z'
loop_
 _atom_site_type_symbol
 _atom_site_label
 _atom_site_symmetry_multiplicity
 _atom_site_fract_x
 _atom_site_fract_y
 _atom_site_fract_z
 _atom_site_occupancy
  Zn  Zn0  1  0.69801245  0.00851303  1.00000000  1
  Zn  Zn1  1  0.00000000  0.00851303  0.69801245  1
  Zn  Zn2  1  0.30198755  0.31049958  0.30198755  1
  P  P0  1  0.49522785  0.23861518  0.74664922  1
  P  P1  1  0.50477215  0.74338733  0.25142038  1
  P  P2  1  0.74857962  0.49196696  0.25335078  1
  P  P3  1  0.25142038  0.74338733  0.50477215  1
  P  P4  1  0.74664922  0.23861518  0.49522785  1
  P  P5  1  0.25335078  0.49196696  0.74857962  1
  Pb  Pb0  1  1.00000000  0.73296471  0.00000000  1
  N  N0  1  0.00000000  0.72572608  0.45543473  1
  N  N1  1  0.28342306  0.54570189  0.55060908  1
  N  N2  1  0.72561165  0.43722385  1.00000000  1
  N  N3  1  0.27438835  0.71161321  0.27438835  1
  N  N4  1  0.44939092  0.99509380  0.73281498  1
  N  N5  1  0.71657694  0.26227782  0.26718502  1
  N  N6  1  0.54456527  0.27029035  0.54456527  1
  N  N7  1  0.73281498  0.99509380  0.44939092  1
  N  N8  1  0.26718502  0.26227782  0.71657694  1
  N  N9  1  0.45543473  0.72572608  1.00000000  1
  N  N10  1  0.55060908  0.54570189  0.28342306  1
  N  N11  1  0.00000000  0.43722385  0.72561165  1
  N  N12  1  0.00000000  0.07761925  1.00000000  1
loop_
_geom_bond_atom_site_label_1
_geom_bond_atom_site_label_2
_geom_bond_distance
_geom_bond_site_symmetry_2
N0 P3 1.635778 1_555
N0 P2 1.635779 1_455
N0 Zn1 2.159396 1_565
N1 P5 1.621466 1_555
N1 P3 1.624516 1_555
N1 Zn2 2.050929 1_555
N2 P2 1.626124 1_556
N2 P0 1.626128 1_555
N2 Pb0 2.330307 1_556
N3 P1 1.626132 1_555
N3 P3 1.626132 1_555
N3 Pb0 2.330303 1_455
N4 P3 1.621469 1_555
N4 P0 1.624509 1_565
N4 Zn0 2.050924 1_565
N5 P4 1.621466 1_555
N5 P2 1.624523 1_555
N5 Zn0 2.050916 1_554
N6 P4 1.635782 1_555
N6 P0 1.635782 1_555
N6 Zn2 2.159396 1_555
N7 P1 1.621469 1_555
N7 P4 1.624509 1_565
N7 Zn1 2.050924 1_665
N8 P0 1.621466 1_555
N8 P5 1.624523 1_555
N8 Zn1 2.050916 1_555
N9 P1 1.635778 1_556
N9 P5 1.635779 1_555
N9 Zn0 2.159395 1_565
N10 P2 1.621466 1_555
N10 P1 1.624516 1_555
N10 Zn2 2.050928 1_555
N11 P5 1.626124 1_555
N11 P4 1.626128 1_455
N11 Pb0 2.330308 1_456
N12 Zn2 2.008659 1_556
N12 Zn0 2.008659 1_455
N12 Zn1 2.008660 1_555
N12 Pb0 2.469053 1_446
