# generated using pymatgen
data_Zr2B(PdRh2)2
_symmetry_space_group_name_H-M   'P 1'
_cell_length_a   5.71506223
_cell_length_b   5.71506198
_cell_length_c   5.69946951
_cell_angle_alpha   60.09019391
_cell_angle_beta   60.09019539
_cell_angle_gamma   59.67588001
_symmetry_Int_Tables_number   1
_chemical_formula_structural   Zr2B(PdRh2)2
_chemical_formula_sum   'Zr2 B1 Pd2 Rh4'
_cell_volume   131.48435410
_cell_formula_units_Z   1
loop_
 _symmetry_equiv_pos_site_id
 _symmetry_equiv_pos_as_xyz
  1  'x, y, z'
loop_
 _atom_site_type_symbol
 _atom_site_label
 _atom_site_symmetry_multiplicity
 _atom_site_fract_x
 _atom_site_fract_y
 _atom_site_fract_z
 _atom_site_occupancy
  Zr  Zr0  1  0.75044833  0.75044833  0.74740617  1
  Zr  Zr1  1  0.24955167  0.24955167  0.24830283  1
  B  B0  1  1.00000000  1.00000000  0.01043643  1
  Pd  Pd0  1  0.74314777  0.25685223  0.74224902  1
  Pd  Pd1  1  0.25685223  0.74314777  0.74224902  1
  Rh  Rh0  1  0.74581230  0.74581230  0.25192559  1
  Rh  Rh1  1  0.25838313  0.74161687  0.25693988  1
  Rh  Rh2  1  0.74161687  0.25838313  0.25693988  1
  Rh  Rh3  1  0.25418770  0.25418770  0.74354818  1
loop_
_geom_bond_atom_site_label_1
_geom_bond_atom_site_label_2
_geom_bond_distance
_geom_bond_site_symmetry_2
B0 Rh2 2.033001 1_565
B0 Rh1 2.033001 1_655
B0 Rh0 2.063503 1_555
B0 Rh3 2.063503 1_664
B0 Pd0 2.114266 1_564
B0 Pd1 2.114266 1_654
Pd0 Zr1 2.857100 1_556
Pd0 Zr0 2.857101 1_555
Pd0 Zr1 2.858853 1_655
Pd0 Zr0 2.858854 1_545
Pd1 Zr1 2.857100 1_556
Pd1 Zr0 2.857101 1_555
Pd1 Zr1 2.858853 1_565
Pd1 Zr0 2.858854 1_455
Rh0 Zr1 2.843682 1_565
Rh0 Zr1 2.843682 1_655
Rh0 Zr0 2.849318 1_554
Rh0 Zr0 2.850648 1_555
Rh1 Zr0 2.853716 1_455
Rh1 Zr1 2.853716 1_565
Rh1 Zr0 2.863075 1_554
Rh1 Zr1 2.863076 1_555
Rh2 Zr0 2.853716 1_545
Rh2 Zr1 2.853716 1_655
Rh2 Zr0 2.863075 1_554
Rh2 Zr1 2.863076 1_555
Rh3 Zr0 2.843682 1_545
Rh3 Zr0 2.843682 1_455
Rh3 Zr1 2.849307 1_555
Rh3 Zr1 2.850659 1_556
