# generated using pymatgen
data_Ta4CrGeB2
_symmetry_space_group_name_H-M   'P 1'
_cell_length_a   7.20043327
_cell_length_b   7.20043327
_cell_length_c   7.20043300
_cell_angle_alpha   130.04264498
_cell_angle_beta   130.04264614
_cell_angle_gamma   73.33860473
_symmetry_Int_Tables_number   1
_chemical_formula_structural   Ta4CrGeB2
_chemical_formula_sum   'Ta8 Cr2 Ge2 B4'
_cell_volume   213.58219215
_cell_formula_units_Z   2
loop_
 _symmetry_equiv_pos_site_id
 _symmetry_equiv_pos_as_xyz
  1  'x, y, z'
loop_
 _atom_site_type_symbol
 _atom_site_label
 _atom_site_symmetry_multiplicity
 _atom_site_fract_x
 _atom_site_fract_y
 _atom_site_fract_z
 _atom_site_occupancy
  Ta  Ta0  1  0.53337535  0.69608372  0.50000000  1
  Ta  Ta1  1  0.19608372  0.03337535  0.50000000  1
  Ta  Ta2  1  0.03337535  0.53337535  0.83729162  1
  Ta  Ta3  1  0.69608372  0.19608372  0.16270838  1
  Ta  Ta4  1  0.46662465  0.30391628  0.50000000  1
  Ta  Ta5  1  0.80391628  0.96662465  0.50000000  1
  Ta  Ta6  1  0.96662465  0.46662465  0.16270838  1
  Ta  Ta7  1  0.30391628  0.80391628  0.83729162  1
  Cr  Cr0  1  0.50000000  0.50000000  0.00000000  1
  Cr  Cr1  1  0.00000000  0.00000000  0.00000000  1
  Ge  Ge0  1  0.25000000  0.25000000  0.00000000  1
  Ge  Ge1  1  0.75000000  0.75000000  0.00000000  1
  B  B0  1  0.87837313  0.62162687  0.50000000  1
  B  B1  1  0.12162687  0.37837313  0.50000000  1
  B  B2  1  0.37837313  0.87837313  0.25674626  1
  B  B3  1  0.62162687  0.12162687  0.74325374  1
loop_
_geom_bond_atom_site_label_1
_geom_bond_atom_site_label_2
_geom_bond_distance
_geom_bond_site_symmetry_2
Cr0 Ta5 2.748371 1_555
Cr0 Ta1 2.748371 1_554
Cr0 Ta0 2.748371 1_555
Cr0 Ta4 2.748371 1_554
Cr0 Ta6 2.748371 1_555
Cr0 Ta2 2.748371 1_554
Cr0 Ta7 2.748371 1_554
Cr0 Ta3 2.748371 1_555
Cr0 Ge0 2.887718 1_555
Cr0 Ge1 2.887718 1_555
Cr1 Ta4 2.748371 1_555
Cr1 Ta0 2.748371 1_444
Cr1 Ta1 2.748371 1_555
Cr1 Ta5 2.748371 1_444
Cr1 Ta6 2.748371 1_455
Cr1 Ta2 2.748371 1_544
Cr1 Ta7 2.748371 1_544
Cr1 Ta3 2.748371 1_455
Cr1 Ge1 2.887718 1_445
Cr1 Ge0 2.887718 1_555
Ge0 Ta5 2.620760 1_444
Ge0 Ta0 2.620760 1_555
Ge0 Ta4 2.620760 1_555
Ge0 Ta1 2.620761 1_554
Ge0 Ta3 2.620761 1_555
Ge0 Ta7 2.620761 1_544
Ge0 Ta2 2.620761 1_554
Ge0 Ta6 2.620761 1_455
Ge1 Ta1 2.620760 1_665
Ge1 Ta4 2.620760 1_554
Ge1 Ta0 2.620760 1_554
Ge1 Ta5 2.620761 1_555
Ge1 Ta7 2.620761 1_554
Ge1 Ta3 2.620761 1_565
Ge1 Ta6 2.620761 1_555
Ge1 Ta2 2.620761 1_654
B0 B1 2.092014 1_655
B0 Ta7 2.374680 1_655
B0 Ta3 2.374680 1_555
B0 Ta2 2.374680 1_655
B0 Ta6 2.374680 1_555
B0 Ta0 2.386347 1_555
B0 Ta5 2.386347 1_555
B0 Cr0 2.416922 1_555
B0 Cr1 2.416922 1_666
B1 Ta3 2.374680 1_455
B1 Ta7 2.374680 1_555
B1 Ta6 2.374680 1_455
B1 Ta2 2.374680 1_555
B1 Ta4 2.386347 1_555
B1 Ta1 2.386347 1_555
B1 Cr0 2.416922 1_556
B1 Cr1 2.416922 1_555
B2 B3 2.092014 1_565
B2 Ta5 2.374680 1_555
B2 Ta4 2.374680 1_565
B2 Ta0 2.374680 1_555
B2 Ta1 2.374680 1_565
B2 Ta2 2.386347 1_554
B2 Ta7 2.386347 1_554
B2 Cr1 2.416923 1_565
B2 Cr0 2.416923 1_555
B3 Ta1 2.374680 1_555
B3 Ta0 2.374680 1_545
B3 Ta4 2.374680 1_555
B3 Ta5 2.374680 1_545
B3 Ta6 2.386347 1_556
B3 Ta3 2.386347 1_556
B3 Cr1 2.416923 1_656
B3 Cr0 2.416923 1_556
