# generated using pymatgen
data_Fe5Si7(W6C)2
_symmetry_space_group_name_H-M   'P 1'
_cell_length_a   7.69198411
_cell_length_b   7.69198453
_cell_length_c   7.69198387
_cell_angle_alpha   60.29987800
_cell_angle_beta   60.29987362
_cell_angle_gamma   60.29987253
_symmetry_Int_Tables_number   1
_chemical_formula_structural   Fe5Si7(W6C)2
_chemical_formula_sum   'Fe5 Si7 W12 C2'
_cell_volume   323.99423891
_cell_formula_units_Z   1
loop_
 _symmetry_equiv_pos_site_id
 _symmetry_equiv_pos_as_xyz
  1  'x, y, z'
loop_
 _atom_site_type_symbol
 _atom_site_label
 _atom_site_symmetry_multiplicity
 _atom_site_fract_x
 _atom_site_fract_y
 _atom_site_fract_z
 _atom_site_occupancy
  Fe  Fe0  1  0.13063092  0.13063092  0.61569442  1
  Fe  Fe1  1  0.91516278  0.91516278  0.91516278  1
  Fe  Fe2  1  0.13063092  0.61569442  0.13063092  1
  Fe  Fe3  1  0.12427723  0.12427723  0.12427723  1
  Fe  Fe4  1  0.61569442  0.13063092  0.13063092  1
  Si  Si0  1  0.91677507  0.24107853  0.91677507  1
  Si  Si1  1  0.33320066  0.00036074  0.33320066  1
  Si  Si2  1  0.33439237  0.33439237  0.33439237  1
  Si  Si3  1  0.00036074  0.33320066  0.33320066  1
  Si  Si4  1  0.91677507  0.91677507  0.24107853  1
  Si  Si5  1  0.24107853  0.91677507  0.91677507  1
  Si  Si6  1  0.33320066  0.33320066  0.00036074  1
  W  W0  1  0.30242391  0.69907262  0.69907262  1
  W  W1  1  0.30563462  0.30563462  0.69596703  1
  W  W2  1  0.55552128  0.94408715  0.55552128  1
  W  W3  1  0.94408715  0.55552128  0.55552128  1
  W  W4  1  0.56137817  0.94182870  0.94182870  1
  W  W5  1  0.69596703  0.30563462  0.30563462  1
  W  W6  1  0.94182870  0.56137817  0.94182870  1
  W  W7  1  0.30563462  0.69596703  0.30563462  1
  W  W8  1  0.55552128  0.55552128  0.94408715  1
  W  W9  1  0.69907262  0.30242391  0.69907262  1
  W  W10  1  0.69907262  0.69907262  0.30242391  1
  W  W11  1  0.94182870  0.94182870  0.56137817  1
  C  C0  1  0.74772865  0.74772865  0.74772865  1
  C  C1  1  0.50211929  0.50211929  0.50211929  1
loop_
_geom_bond_atom_site_label_1
_geom_bond_atom_site_label_2
_geom_bond_distance
_geom_bond_site_symmetry_2
Fe0 Si2 2.303924 1_555
Fe0 Si1 2.325723 1_555
Fe0 Si3 2.325723 1_555
Fe0 Si0 2.362398 1_455
Fe0 Si5 2.362398 1_545
Fe0 Fe1 2.440423 1_445
Fe0 W1 2.729142 1_555
Fe0 W2 2.732531 1_545
Fe0 W3 2.732531 1_455
Fe0 W9 2.749597 1_455
Fe0 W0 2.749598 1_545
Fe0 W11 2.772203 1_445
Fe1 Fe4 2.440423 1_566
Fe1 Fe2 2.440423 1_656
Fe1 Si4 2.519289 1_556
Fe1 Si5 2.519289 1_655
Fe1 Si0 2.519289 1_565
Fe1 W11 2.534782 1_555
Fe1 W4 2.534782 1_555
Fe1 W6 2.534782 1_555
Fe1 W0 2.706278 1_655
Fe1 W10 2.706278 1_556
Fe1 W9 2.706278 1_565
Fe2 Si2 2.303924 1_555
Fe2 Si6 2.325723 1_555
Fe2 Si3 2.325723 1_555
Fe2 Si4 2.362398 1_455
Fe2 Si5 2.362398 1_554
Fe2 W7 2.729142 1_555
Fe2 W3 2.732531 1_455
Fe2 W8 2.732531 1_554
Fe2 W10 2.749597 1_455
Fe2 W0 2.749597 1_554
Fe2 W6 2.772203 1_454
Fe3 Si5 2.363206 1_544
Fe3 Si0 2.363206 1_454
Fe3 Si4 2.363206 1_445
Fe3 Si3 2.365807 1_555
Fe3 Si1 2.365807 1_555
Fe3 Si6 2.365807 1_555
Fe3 W5 2.750662 1_455
Fe3 W1 2.750662 1_554
Fe3 W7 2.750662 1_545
Fe3 W4 2.800649 1_544
Fe3 W11 2.800649 1_445
Fe3 W6 2.800650 1_454
Fe4 Si2 2.303924 1_555
Fe4 Si6 2.325723 1_555
Fe4 Si1 2.325723 1_555
Fe4 Si4 2.362398 1_545
Fe4 Si0 2.362398 1_554
Fe4 W5 2.729142 1_555
Fe4 W2 2.732531 1_545
Fe4 W8 2.732531 1_554
Fe4 W9 2.749598 1_554
Fe4 W10 2.749598 1_545
Fe4 W4 2.772203 1_544
Si0 Si5 2.505835 1_645
Si0 Si4 2.505835 1_546
Si0 W8 2.623127 1_555
Si0 W3 2.623128 1_555
Si0 W9 2.653996 1_555
Si0 W6 2.668718 1_555
Si0 W5 2.771270 1_556
Si0 W1 2.771270 1_655
Si1 W7 2.569144 1_545
Si1 Si3 2.571795 1_555
Si1 Si6 2.571795 1_555
Si1 Si2 2.578482 1_555
Si1 W10 2.601464 1_545
Si1 W0 2.601464 1_545
Si1 W2 2.732582 1_545
Si1 W4 2.769508 1_544
Si1 W11 2.769508 1_445
Si2 Si6 2.578482 1_555
Si2 Si3 2.578482 1_555
Si2 W1 2.581144 1_555
Si2 W5 2.581144 1_555
Si2 W7 2.581144 1_555
Si2 W3 2.747017 1_455
Si2 W8 2.747017 1_554
Si2 W2 2.747017 1_545
Si3 W5 2.569143 1_455
Si3 Si6 2.571795 1_555
Si3 W9 2.601464 1_455
Si3 W10 2.601464 1_455
Si3 W3 2.732582 1_455
Si3 W6 2.769508 1_454
Si3 W11 2.769508 1_445
Si4 Si5 2.505835 1_654
Si4 W2 2.623127 1_555
Si4 W3 2.623128 1_555
Si4 W10 2.653996 1_555
Si4 W11 2.668718 1_555
Si4 W7 2.771270 1_655
Si4 W5 2.771270 1_565
Si5 W2 2.623127 1_555
Si5 W8 2.623127 1_555
Si5 W0 2.653996 1_555
Si5 W4 2.668718 1_555
Si5 W7 2.771270 1_556
Si5 W1 2.771271 1_565
Si6 W1 2.569143 1_554
Si6 W9 2.601464 1_554
Si6 W0 2.601464 1_554
Si6 W8 2.732582 1_554
Si6 W6 2.769508 1_454
Si6 W4 2.769508 1_544
C0 W3 2.096040 1_555
C0 W2 2.096041 1_555
C0 W8 2.096041 1_555
C0 W4 2.116686 1_555
C0 W6 2.116686 1_555
C0 W11 2.116686 1_555
C1 W5 2.142193 1_555
C1 W7 2.142193 1_555
C1 W1 2.142194 1_555
C1 W0 2.147576 1_555
C1 W9 2.147576 1_555
C1 W10 2.147576 1_555
