# generated using pymatgen
data_Sc7BI12
_symmetry_space_group_name_H-M   'P 1'
_cell_length_a   9.32018193
_cell_length_b   9.32018152
_cell_length_c   9.32018276
_cell_angle_alpha   107.73309195
_cell_angle_beta   107.73308874
_cell_angle_gamma   107.73310041
_symmetry_Int_Tables_number   1
_chemical_formula_structural   Sc7BI12
_chemical_formula_sum   'Sc7 B1 I12'
_cell_volume   660.29934961
_cell_formula_units_Z   1
loop_
 _symmetry_equiv_pos_site_id
 _symmetry_equiv_pos_as_xyz
  1  'x, y, z'
loop_
 _atom_site_type_symbol
 _atom_site_label
 _atom_site_symmetry_multiplicity
 _atom_site_fract_x
 _atom_site_fract_y
 _atom_site_fract_z
 _atom_site_occupancy
  Sc  Sc0  1  0.48830009  0.48830009  0.48830009  1
  Sc  Sc1  1  0.91164090  0.97483032  0.72447838  1
  Sc  Sc2  1  0.97483032  0.72447838  0.91164090  1
  Sc  Sc3  1  0.72447838  0.91164090  0.97483032  1
  Sc  Sc4  1  0.03627401  0.28336544  0.09843761  1
  Sc  Sc5  1  0.28336544  0.09843761  0.03627401  1
  Sc  Sc6  1  0.09843761  0.03627401  0.28336544  1
  B  B0  1  0.00241709  0.00241709  0.00241709  1
  I  I0  1  0.22592797  0.07745696  0.69787614  1
  I  I1  1  0.07745696  0.69787614  0.22592797  1
  I  I2  1  0.69787614  0.22592797  0.07745696  1
  I  I3  1  0.54405907  0.84418914  0.61867758  1
  I  I4  1  0.84418914  0.61867758  0.54405907  1
  I  I5  1  0.61867758  0.54405907  0.84418914  1
  I  I6  1  0.92638168  0.30716152  0.78063311  1
  I  I7  1  0.30716152  0.78063311  0.92638168  1
  I  I8  1  0.78063311  0.92638168  0.30716152  1
  I  I9  1  0.38729747  0.46371384  0.15108170  1
  I  I10  1  0.46371384  0.15108170  0.38729747  1
  I  I11  1  0.15108170  0.38729747  0.46371384  1
loop_
_geom_bond_atom_site_label_1
_geom_bond_atom_site_label_2
_geom_bond_distance
_geom_bond_site_symmetry_2
B0 Sc2 2.370436 1_444
B0 Sc3 2.370436 1_444
B0 Sc1 2.370437 1_444
B0 Sc4 2.377835 1_555
B0 Sc5 2.377835 1_555
B0 Sc6 2.377835 1_555
I0 Sc1 2.904612 1_445
I0 Sc5 2.967174 1_556
I0 Sc6 3.536509 1_555
I1 Sc2 2.904613 1_454
I1 Sc6 2.967173 1_565
I1 Sc4 3.536509 1_555
I2 Sc3 2.904612 1_544
I2 Sc4 2.967173 1_655
I2 Sc5 3.536509 1_555
I3 Sc0 2.976369 1_555
I3 Sc1 2.976828 1_555
I3 Sc3 2.987626 1_555
I4 Sc0 2.976369 1_555
I4 Sc2 2.976828 1_555
I4 Sc1 2.987625 1_555
I5 Sc0 2.976370 1_555
I5 Sc3 2.976827 1_555
I5 Sc2 2.987625 1_555
I6 Sc4 2.926113 1_656
I6 Sc1 2.931904 1_545
I6 Sc2 3.538928 1_555
I7 Sc5 2.926112 1_566
I7 Sc2 2.931904 1_455
I7 Sc3 3.538928 1_555
I8 Sc6 2.926112 1_665
I8 Sc3 2.931905 1_554
I8 Sc1 3.538929 1_555
I9 Sc0 2.905907 1_555
I9 Sc5 2.968855 1_555
I9 Sc4 2.989870 1_555
I10 Sc0 2.905906 1_555
I10 Sc6 2.968855 1_555
I10 Sc5 2.989871 1_555
I11 Sc0 2.905906 1_555
I11 Sc4 2.968856 1_555
I11 Sc6 2.989871 1_555
