# generated using pymatgen
data_Ca2ScTcO6
_symmetry_space_group_name_H-M   'P 1'
_cell_length_a   5.62969811
_cell_length_b   5.46219998
_cell_length_c   9.47199003
_cell_angle_alpha   55.05966303
_cell_angle_beta   90.00000000
_cell_angle_gamma   90.00000000
_symmetry_Int_Tables_number   1
_chemical_formula_structural   Ca2ScTcO6
_chemical_formula_sum   'Ca4 Sc2 Tc2 O12'
_cell_volume   238.76725348
_cell_formula_units_Z   2
loop_
 _symmetry_equiv_pos_site_id
 _symmetry_equiv_pos_as_xyz
  1  'x, y, z'
loop_
 _atom_site_type_symbol
 _atom_site_label
 _atom_site_symmetry_multiplicity
 _atom_site_fract_x
 _atom_site_fract_y
 _atom_site_fract_z
 _atom_site_occupancy
  Ca  Ca0  1  0.44783188  0.23317678  0.75192772  1
  Ca  Ca1  1  0.55216812  0.76682322  0.24807228  1
  Ca  Ca2  1  0.94783188  0.76682322  0.74807228  1
  Ca  Ca3  1  0.05216812  0.23317678  0.25192772  1
  Sc  Sc0  1  0.00000000  0.00000000  0.00000000  1
  Sc  Sc1  1  0.50000000  0.00000000  0.50000000  1
  Tc  Tc0  1  0.00000000  0.50000000  0.50000000  1
  Tc  Tc1  1  0.50000000  0.50000000  0.00000000  1
  O  O0  1  0.02878977  0.35152958  0.74023061  1
  O  O1  1  0.97121023  0.64847042  0.25976939  1
  O  O2  1  0.52878977  0.64847042  0.75976939  1
  O  O3  1  0.47121023  0.35152958  0.24023061  1
  O  O4  1  0.70008232  0.84102971  0.95018639  1
  O  O5  1  0.29991768  0.15897029  0.04981361  1
  O  O6  1  0.20008232  0.15897029  0.54981361  1
  O  O7  1  0.79991768  0.84102971  0.45018639  1
  O  O8  1  0.21578761  0.74108621  0.94980627  1
  O  O9  1  0.78421239  0.25891379  0.05019373  1
  O  O10  1  0.71578761  0.25891379  0.55019373  1
  O  O11  1  0.28421239  0.74108621  0.44980627  1
loop_
_geom_bond_atom_site_label_1
_geom_bond_atom_site_label_2
_geom_bond_distance
_geom_bond_site_symmetry_2
Ca0 O4 2.350277 1_545
Ca0 O2 2.356258 1_555
Ca0 O10 2.374639 1_555
Ca0 O0 2.431751 1_555
Ca0 O6 2.581373 1_555
Ca0 O8 2.583339 1_545
Ca0 O5 2.740248 1_556
Ca0 O11 2.764161 1_555
Ca1 O5 2.350277 1_565
Ca1 O3 2.356258 1_555
Ca1 O11 2.374639 1_555
Ca1 O1 2.431751 1_555
Ca1 O7 2.581373 1_555
Ca1 O9 2.583339 1_565
Ca1 O4 2.740248 1_554
Ca1 O10 2.764161 1_555
Ca2 O6 2.350277 1_665
Ca2 O0 2.356258 1_655
Ca2 O8 2.374639 1_655
Ca2 O2 2.431751 1_555
Ca2 O4 2.581373 1_555
Ca2 O10 2.583339 1_565
Ca2 O7 2.740248 1_555
Ca2 O9 2.764161 1_556
Ca3 O7 2.350277 1_445
Ca3 O1 2.356258 1_455
Ca3 O9 2.374639 1_455
Ca3 O3 2.431751 1_555
Ca3 O5 2.581373 1_555
Ca3 O11 2.583339 1_545
Ca3 O6 2.740248 1_555
Ca3 O8 2.764161 1_554
O0 Tc0 1.935959 1_555
O0 Sc0 2.087026 1_556
O1 Tc0 1.935959 1_655
O1 Sc0 2.087026 1_665
O2 Tc1 1.935959 1_556
O2 Sc1 2.087026 1_565
O3 Tc1 1.935959 1_555
O3 Sc1 2.087026 1_555
O4 Tc1 1.988612 1_556
O4 Sc0 2.072864 1_666
O5 Tc1 1.988612 1_555
O5 Sc0 2.072864 1_555
O6 Tc0 1.988612 1_555
O6 Sc1 2.072864 1_555
O7 Tc0 1.988612 1_655
O7 Sc1 2.072864 1_565
O8 Tc1 1.950158 1_556
O8 Sc0 2.114726 1_566
O9 Tc1 1.950158 1_555
O9 Sc0 2.114726 1_655
O10 Tc0 1.950158 1_655
O10 Sc1 2.114726 1_555
O11 Tc0 1.950158 1_555
O11 Sc1 2.114726 1_565
