# generated using pymatgen
data_TaBWC
_symmetry_space_group_name_H-M   'P 1'
_cell_length_a   8.94075382
_cell_length_b   8.94075360
_cell_length_c   3.11942420
_cell_angle_alpha   90.00000000
_cell_angle_beta   90.00000000
_cell_angle_gamma   159.79036576
_symmetry_Int_Tables_number   1
_chemical_formula_structural   TaBWC
_chemical_formula_sum   'Ta2 B2 W2 C2'
_cell_volume   86.14209730
_cell_formula_units_Z   2
loop_
 _symmetry_equiv_pos_site_id
 _symmetry_equiv_pos_as_xyz
  1  'x, y, z'
loop_
 _atom_site_type_symbol
 _atom_site_label
 _atom_site_symmetry_multiplicity
 _atom_site_fract_x
 _atom_site_fract_y
 _atom_site_fract_z
 _atom_site_occupancy
  Ta  Ta0  1  0.68203326  0.31796674  0.75000000  1
  Ta  Ta1  1  0.31796674  0.68203326  0.25000000  1
  B  B0  1  0.53044168  0.46955832  0.75000000  1
  B  B1  1  0.46955832  0.53044168  0.25000000  1
  W  W0  1  0.93097109  0.06902891  0.75000000  1
  W  W1  1  0.06902891  0.93097109  0.25000000  1
  C  C0  1  0.80859253  0.19140747  0.75000000  1
  C  C1  1  0.19140747  0.80859253  0.25000000  1
loop_
_geom_bond_atom_site_label_1
_geom_bond_atom_site_label_2
_geom_bond_distance
_geom_bond_site_symmetry_2
B0 B1 1.892473 1_555
B0 B1 1.892473 1_556
B0 W1 2.314046 1_545
B0 W1 2.314046 1_546
B0 W1 2.314046 1_655
B0 W1 2.314046 1_656
B0 W0 2.350956 1_565
B0 W0 2.350956 1_455
B0 Ta0 2.668639 1_555
B1 W0 2.314046 1_564
B1 W0 2.314046 1_565
B1 W0 2.314046 1_455
B1 W0 2.314046 1_454
B1 W1 2.350956 1_545
B1 W1 2.350956 1_655
B1 Ta1 2.668639 1_555
C0 W0 2.154369 1_555
C0 Ta1 2.218243 1_546
C0 Ta1 2.218243 1_545
C0 Ta1 2.218243 1_655
C0 Ta1 2.218243 1_656
C0 Ta0 2.227967 1_555
C1 W1 2.154369 1_555
C1 Ta0 2.218243 1_564
C1 Ta0 2.218243 1_565
C1 Ta0 2.218243 1_454
C1 Ta0 2.218243 1_455
C1 Ta1 2.227967 1_555
