# generated using pymatgen
data_Ni4P16W
_symmetry_space_group_name_H-M   'P 1'
_cell_length_a   10.24486436
_cell_length_b   10.24486436
_cell_length_c   11.16185634
_cell_angle_alpha   79.48513677
_cell_angle_beta   79.48513677
_cell_angle_gamma   32.27550464
_symmetry_Int_Tables_number   1
_chemical_formula_structural   Ni4P16W
_chemical_formula_sum   'Ni8 P32 W2'
_cell_volume   614.18717989
_cell_formula_units_Z   2
loop_
 _symmetry_equiv_pos_site_id
 _symmetry_equiv_pos_as_xyz
  1  'x, y, z'
loop_
 _atom_site_type_symbol
 _atom_site_label
 _atom_site_symmetry_multiplicity
 _atom_site_fract_x
 _atom_site_fract_y
 _atom_site_fract_z
 _atom_site_occupancy
  Ni  Ni0  1  0.19549300  0.30545200  0.62846100  1
  Ni  Ni1  1  0.69454800  0.80450700  0.87153900  1
  Ni  Ni2  1  0.80450700  0.69454800  0.37153900  1
  Ni  Ni3  1  0.30545200  0.19549300  0.12846100  1
  Ni  Ni4  1  0.98820900  0.79954700  0.07439300  1
  Ni  Ni5  1  0.20045300  0.01179100  0.42560700  1
  Ni  Ni6  1  0.01179100  0.20045300  0.92560700  1
  Ni  Ni7  1  0.79954700  0.98820900  0.57439300  1
  P  P0  1  0.73266400  0.25901100  0.60742200  1
  P  P1  1  0.74098900  0.26733600  0.89257800  1
  P  P2  1  0.26733600  0.74098900  0.39257800  1
  P  P3  1  0.25901100  0.73266400  0.10742200  1
  P  P4  1  0.62592500  0.61567000  0.66079800  1
  P  P5  1  0.38433000  0.37407500  0.83920200  1
  P  P6  1  0.37407500  0.38433000  0.33920200  1
  P  P7  1  0.61567000  0.62592500  0.16079800  1
  P  P8  1  0.01478000  0.26722900  0.71953200  1
  P  P9  1  0.73277100  0.98522000  0.78046800  1
  P  P10  1  0.88643800  0.99062400  0.36793800  1
  P  P11  1  0.00937600  0.11356200  0.13206200  1
  P  P12  1  0.11356200  0.00937600  0.63206200  1
  P  P13  1  0.99062400  0.88643800  0.86793800  1
  P  P14  1  0.65643300  0.21959800  0.08029500  1
  P  P15  1  0.78040200  0.34356700  0.41970500  1
  P  P16  1  0.34356700  0.78040200  0.91970500  1
  P  P17  1  0.21959800  0.65643300  0.58029500  1
  P  P18  1  0.31916600  0.39747100  0.04253900  1
  P  P19  1  0.60252900  0.68083400  0.45746100  1
  P  P20  1  0.68083400  0.60252900  0.95746100  1
  P  P21  1  0.39747100  0.31916600  0.54253900  1
  P  P22  1  0.72073600  0.85344200  0.05429100  1
  P  P23  1  0.14655800  0.27926400  0.44570900  1
  P  P24  1  0.27926400  0.14655800  0.94570900  1
  P  P25  1  0.85344200  0.72073600  0.55429100  1
  P  P26  1  0.44135600  0.11618300  0.31204900  1
  P  P27  1  0.88381700  0.55864400  0.18795100  1
  P  P28  1  0.55864400  0.88381700  0.68795100  1
  P  P29  1  0.11618300  0.44135600  0.81204900  1
  P  P30  1  0.26722900  0.01478000  0.21953200  1
  P  P31  1  0.98522000  0.73277100  0.28046800  1
  W  W0  1  0.39476500  0.60523500  0.75000000  1
  W  W1  1  0.60523500  0.39476500  0.25000000  1
loop_
_geom_bond_atom_site_label_1
_geom_bond_atom_site_label_2
_geom_bond_distance
_geom_bond_site_symmetry_2
Ni0 P21 2.222472 1_555
Ni0 P8 2.237862 1_555
Ni0 P23 2.298857 1_555
Ni0 P29 2.306197 1_555
Ni0 P28 2.370840 1_545
Ni0 P25 2.372498 1_455
Ni1 P20 2.222472 1_555
Ni1 P9 2.237862 1_555
Ni1 P22 2.298857 1_556
Ni1 P28 2.306197 1_555
Ni1 P29 2.370840 1_655
Ni1 P24 2.372498 1_565
Ni2 P19 2.222472 1_555
Ni2 P31 2.237862 1_555
Ni2 P25 2.298857 1_555
Ni2 P27 2.306197 1_555
Ni2 P26 2.370840 1_565
Ni2 P23 2.372498 1_655
Ni3 P18 2.222472 1_555
Ni3 P30 2.237862 1_555
Ni3 P24 2.298857 1_554
Ni3 P26 2.306197 1_555
Ni3 P27 2.370840 1_455
Ni3 P22 2.372498 1_545
Ni4 P18 2.251177 1_655
Ni4 P31 2.279290 1_555
Ni4 P14 2.316038 1_565
Ni4 P3 2.317087 1_655
Ni4 P13 2.317569 1_554
Ni4 P22 2.341957 1_555
Ni5 P19 2.251177 1_545
Ni5 P30 2.279290 1_555
Ni5 P15 2.316038 1_455
Ni5 P2 2.317087 1_545
Ni5 P12 2.317569 1_555
Ni5 P23 2.341957 1_555
Ni6 P20 2.251177 1_455
Ni6 P8 2.279290 1_555
Ni6 P16 2.316038 1_545
Ni6 P1 2.317087 1_455
Ni6 P11 2.317569 1_556
Ni6 P24 2.341957 1_555
Ni7 P21 2.251177 1_565
Ni7 P9 2.279290 1_555
Ni7 P17 2.316038 1_655
Ni7 P0 2.317087 1_565
Ni7 P10 2.317569 1_555
Ni7 P25 2.341957 1_555
P0 P15 2.249377 1_555
P0 P12 2.258988 1_655
P0 W0 2.526633 1_555
P1 P14 2.249377 1_556
P1 P13 2.258988 1_545
P1 W0 2.526633 1_555
P2 W1 2.526633 1_555
P3 W1 2.526633 1_555
P4 P8 2.257175 1_655
P4 W0 2.477865 1_555
P5 P9 2.257175 1_545
P5 W0 2.477865 1_555
P6 W1 2.477865 1_555
P7 W1 2.477865 1_555
P10 P31 2.239611 1_555
P10 P2 2.258988 1_655
P10 W1 2.529833 1_565
P11 P30 2.239611 1_555
P11 P3 2.258988 1_545
P11 W1 2.529833 1_455
P12 P8 2.239611 1_555
P12 W0 2.529833 1_545
P13 P9 2.239611 1_555
P13 W0 2.529833 1_655
P14 P18 2.245238 1_555
P14 W1 2.523890 1_555
P15 P19 2.245238 1_555
P15 W1 2.523890 1_555
P16 P20 2.245238 1_555
P16 P3 2.249377 1_556
P16 W0 2.523890 1_555
P17 P21 2.245238 1_555
P17 P2 2.249377 1_555
P17 W0 2.523890 1_555
P18 P5 2.242600 1_554
P19 P4 2.242600 1_555
P20 P7 2.242600 1_556
P21 P6 2.242600 1_555
P22 P27 2.207079 1_555
P23 P26 2.207079 1_555
P24 P29 2.207079 1_555
P25 P28 2.207079 1_555
P26 P6 2.267016 1_555
P27 P7 2.267016 1_555
P28 P4 2.267016 1_555
P29 P5 2.267016 1_555
P30 P7 2.257175 1_545
P31 P6 2.257175 1_655
