# generated using pymatgen
data_CsK4SiSb3
_symmetry_space_group_name_H-M   'P 1'
_cell_length_a   5.53102316
_cell_length_b   15.37362432
_cell_length_c   17.26476006
_cell_angle_alpha   90.00000000
_cell_angle_beta   90.00000000
_cell_angle_gamma   90.00000000
_symmetry_Int_Tables_number   1
_chemical_formula_structural   CsK4SiSb3
_chemical_formula_sum   'Cs4 K16 Si4 Sb12'
_cell_volume   1468.05486951
_cell_formula_units_Z   4
loop_
 _symmetry_equiv_pos_site_id
 _symmetry_equiv_pos_as_xyz
  1  'x, y, z'
loop_
 _atom_site_type_symbol
 _atom_site_label
 _atom_site_symmetry_multiplicity
 _atom_site_fract_x
 _atom_site_fract_y
 _atom_site_fract_z
 _atom_site_occupancy
  Cs  Cs0  1  0.25000000  0.12997030  0.52146668  1
  Cs  Cs1  1  0.75000000  0.87002970  0.47853332  1
  Cs  Cs2  1  0.75000000  0.62997030  0.97853332  1
  Cs  Cs3  1  0.25000000  0.37002970  0.02146668  1
  K  K0  1  0.25000000  0.42575841  0.56927420  1
  K  K1  1  0.75000000  0.57424159  0.43072580  1
  K  K2  1  0.75000000  0.92575841  0.93072580  1
  K  K3  1  0.25000000  0.07424159  0.06927420  1
  K  K4  1  0.25000000  0.81775744  0.08171769  1
  K  K5  1  0.75000000  0.18224256  0.91828231  1
  K  K6  1  0.75000000  0.31775744  0.41828231  1
  K  K7  1  0.25000000  0.68224256  0.58171769  1
  K  K8  1  0.25000000  0.22808091  0.26181683  1
  K  K9  1  0.75000000  0.77191909  0.73818317  1
  K  K10  1  0.75000000  0.72808091  0.23818317  1
  K  K11  1  0.25000000  0.27191909  0.76181683  1
  K  K12  1  0.25000000  0.94927958  0.28738387  1
  K  K13  1  0.75000000  0.05072042  0.71261613  1
  K  K14  1  0.75000000  0.44927958  0.21261613  1
  K  K15  1  0.25000000  0.55072042  0.78738387  1
  Si  Si0  1  0.25000000  0.58753337  0.29199268  1
  Si  Si1  1  0.75000000  0.41246663  0.70800732  1
  Si  Si2  1  0.75000000  0.08753337  0.20800732  1
  Si  Si3  1  0.25000000  0.91246663  0.79199268  1
  Sb  Sb0  1  0.25000000  0.59578707  0.14625688  1
  Sb  Sb1  1  0.75000000  0.40421293  0.85374312  1
  Sb  Sb2  1  0.75000000  0.09578707  0.35374312  1
  Sb  Sb3  1  0.25000000  0.90421293  0.64625688  1
  Sb  Sb4  1  0.25000000  0.44052264  0.35681251  1
  Sb  Sb5  1  0.75000000  0.55947736  0.64318749  1
  Sb  Sb6  1  0.75000000  0.94052264  0.14318749  1
  Sb  Sb7  1  0.25000000  0.05947736  0.85681251  1
  Sb  Sb8  1  0.25000000  0.72301181  0.37485297  1
  Sb  Sb9  1  0.75000000  0.27698819  0.62514703  1
  Sb  Sb10  1  0.75000000  0.22301181  0.12514703  1
  Sb  Sb11  1  0.25000000  0.77698819  0.87485297  1
loop_
_geom_bond_atom_site_label_1
_geom_bond_atom_site_label_2
_geom_bond_distance
_geom_bond_site_symmetry_2
Cs0 Sb9 3.995085 1_555
Cs0 Sb9 3.995085 1_455
Cs0 Sb2 4.038483 1_455
Cs0 Sb2 4.038483 1_555
Cs0 Sb3 4.085043 1_545
Cs1 Sb8 3.995085 1_655
Cs1 Sb8 3.995085 1_555
Cs1 Sb3 4.038483 1_655
Cs1 Sb3 4.038483 1_555
Cs1 Sb2 4.085043 1_565
Cs2 Sb11 3.995085 1_655
Cs2 Sb11 3.995085 1_555
Cs2 Sb0 4.038483 1_556
Cs2 Sb0 4.038483 1_656
Cs2 Sb1 4.085043 1_555
Cs3 Sb10 3.995085 1_455
Cs3 Sb10 3.995085 1_555
Cs3 Sb1 4.038483 1_454
Cs3 Sb1 4.038483 1_554
Cs3 Sb0 4.085043 1_555
K0 Si1 3.664255 1_455
K0 Si1 3.664255 1_555
K0 Sb5 3.674583 1_555
K0 Sb5 3.674583 1_455
K0 Sb4 3.675116 1_555
K0 Sb9 3.716122 1_555
K0 Sb9 3.716122 1_455
K1 Si0 3.664255 1_555
K1 Si0 3.664255 1_655
K1 Sb4 3.674583 1_655
K1 Sb4 3.674583 1_555
K1 Sb5 3.675116 1_555
K1 Sb8 3.716122 1_555
K1 Sb8 3.716122 1_655
K2 Si3 3.664255 1_555
K2 Si3 3.664255 1_655
K2 Sb7 3.674583 1_565
K2 Sb7 3.674583 1_665
K2 Sb6 3.675116 1_556
K2 Sb11 3.716122 1_555
K2 Sb11 3.716122 1_655
K3 Si2 3.664255 1_455
K3 Si2 3.664255 1_555
K3 Sb6 3.674583 1_545
K3 Sb6 3.674583 1_445
K3 Sb7 3.675116 1_554
K3 Sb10 3.716122 1_455
K3 Sb10 3.716122 1_555
K4 Sb6 3.512322 1_455
K4 Sb6 3.512322 1_555
K4 Sb0 3.589797 1_555
K4 Sb11 3.626050 1_554
K5 Sb7 3.512322 1_555
K5 Sb7 3.512322 1_655
K5 Sb1 3.589797 1_555
K5 Sb10 3.626050 1_556
K6 Sb4 3.512322 1_555
K6 Sb4 3.512322 1_655
K6 Sb2 3.589797 1_555
K6 Sb9 3.626050 1_555
K7 Sb5 3.512322 1_455
K7 Sb5 3.512322 1_555
K7 Sb3 3.589797 1_555
K7 Sb8 3.626050 1_555
K8 Si2 3.630405 1_455
K8 Si2 3.630405 1_555
K8 Sb10 3.636166 1_455
K8 Sb10 3.636166 1_555
K8 Sb4 3.654669 1_555
K8 Sb2 3.781981 1_455
K8 Sb2 3.781981 1_555
K9 Si3 3.630405 1_655
K9 Si3 3.630405 1_555
K9 Sb11 3.636166 1_555
K9 Sb11 3.636166 1_655
K9 Sb5 3.654669 1_555
K9 Sb3 3.781981 1_655
K9 Sb3 3.781981 1_555
K10 Si0 3.630405 1_555
K10 Si0 3.630405 1_655
K10 Sb8 3.636166 1_555
K10 Sb8 3.636166 1_655
K10 Sb6 3.654669 1_555
K10 Sb0 3.781981 1_555
K10 Sb0 3.781981 1_655
K11 Si1 3.630405 1_555
K11 Si1 3.630405 1_455
K11 Sb9 3.636166 1_455
K11 Sb9 3.636166 1_555
K11 Sb7 3.654669 1_555
K11 Sb1 3.781981 1_455
K11 Sb1 3.781981 1_555
K12 Sb6 3.723422 1_555
K12 Sb6 3.723422 1_455
K12 Sb2 3.746160 1_465
K12 Sb2 3.746160 1_565
K12 Si2 3.747491 1_565
K12 Si2 3.747491 1_465
K12 Sb8 3.792209 1_555
K13 Sb7 3.723422 1_555
K13 Sb7 3.723422 1_655
K13 Sb3 3.746160 1_645
K13 Sb3 3.746160 1_545
K13 Si3 3.747491 1_645
K13 Si3 3.747491 1_545
K13 Sb9 3.792209 1_555
K14 Sb4 3.723422 1_555
K14 Sb4 3.723422 1_655
K14 Sb0 3.746160 1_555
K14 Sb0 3.746160 1_655
K14 Si0 3.747491 1_555
K14 Si0 3.747491 1_655
K14 Sb10 3.792209 1_555
K15 Sb5 3.723422 1_555
K15 Sb5 3.723422 1_455
K15 Sb1 3.746160 1_455
K15 Sb1 3.746160 1_555
K15 Si1 3.747491 1_555
K15 Si1 3.747491 1_455
K15 Sb11 3.792209 1_555
Sb0 Si0 2.519291 1_555
Sb1 Si1 2.519291 1_555
Sb2 Si2 2.519291 1_555
Sb3 Si3 2.519291 1_555
Sb4 Si0 2.521979 1_555
Sb5 Si1 2.521979 1_555
Sb6 Si2 2.521979 1_565
Sb7 Si3 2.521979 1_545
Sb8 Si0 2.526766 1_555
Sb9 Si1 2.526766 1_555
Sb10 Si2 2.526766 1_555
Sb11 Si3 2.526766 1_555
