# generated using pymatgen
data_Hf8Al14GaRh7
_symmetry_space_group_name_H-M   'P 1'
_cell_length_a   8.79726848
_cell_length_b   8.79722899
_cell_length_c   8.79723829
_cell_angle_alpha   120.22906523
_cell_angle_beta   119.84396188
_cell_angle_gamma   89.93726622
_symmetry_Int_Tables_number   1
_chemical_formula_structural   Hf8Al14GaRh7
_chemical_formula_sum   'Hf8 Al14 Ga1 Rh7'
_cell_volume   481.14753419
_cell_formula_units_Z   1
loop_
 _symmetry_equiv_pos_site_id
 _symmetry_equiv_pos_as_xyz
  1  'x, y, z'
loop_
 _atom_site_type_symbol
 _atom_site_label
 _atom_site_symmetry_multiplicity
 _atom_site_fract_x
 _atom_site_fract_y
 _atom_site_fract_z
 _atom_site_occupancy
  Hf  Hf0  1  0.80320513  0.29736310  0.08568902  1
  Hf  Hf1  1  0.21167142  0.29736033  0.49415633  1
  Hf  Hf2  1  0.19525922  0.69526041  0.49999800  1
  Hf  Hf3  1  0.21166375  0.71750472  0.91430093  1
  Hf  Hf4  1  0.80320150  0.71751372  0.50584693  1
  Hf  Hf5  1  0.78070598  0.28071150  0.50000611  1
  Hf  Hf6  1  0.37976122  0.11989827  0.74013824  1
  Hf  Hf7  1  0.37975945  0.63962030  0.25985723  1
  Al  Al0  1  0.16126093  0.33216441  0.17090614  1
  Al  Al1  1  0.16125882  0.99034901  0.82909444  1
  Al  Al2  1  0.15232567  0.34150379  0.81081961  1
  Al  Al3  1  0.53068598  0.34150684  0.18918211  1
  Al  Al4  1  0.83766876  0.65956922  0.82190107  1
  Al  Al5  1  0.83767214  0.01578062  0.17811101  1
  Al  Al6  1  0.83661446  0.66292519  0.17369392  1
  Al  Al7  1  0.48923524  0.66292547  0.82631125  1
  Al  Al8  1  0.37919218  0.12126748  0.25792214  1
  Al  Al9  1  0.86334727  0.12127214  0.74207536  1
  Al  Al10  1  0.62208994  0.87633745  0.25424760  1
  Al  Al11  1  0.62208904  0.36784623  0.74575785  1
  Al  Al12  1  0.62330238  0.87859226  0.74470425  1
  Al  Al13  1  0.13389059  0.87859740  0.25529452  1
  Ga  Ga0  1  0.98586863  0.48587247  0.49999749  1
  Rh  Rh0  1  0.99949363  0.99991208  0.50194905  1
  Rh  Rh1  1  0.49795901  0.99989925  0.00041589  1
  Rh  Rh2  1  0.49848535  0.49849268  0.99999544  1
  Rh  Rh3  1  0.49796283  0.49753559  0.49805383  1
  Rh  Rh4  1  0.99948366  0.49754241  0.99957618  1
  Rh  Rh5  1  0.99916090  0.99915815  0.00000250  1
  Rh  Rh6  1  0.50571591  0.00571951  0.49999358  1
loop_
_geom_bond_atom_site_label_1
_geom_bond_atom_site_label_2
_geom_bond_distance
_geom_bond_site_symmetry_2
Hf0 Hf6 3.085201 1_554
Hf0 Rh5 3.116779 1_545
Hf1 Hf6 3.085200 1_555
Hf1 Rh5 3.116729 1_445
Hf2 Hf6 3.115538 1_565
Hf2 Hf7 3.115572 1_555
Hf3 Hf7 3.085184 1_556
Hf3 Rh5 3.116766 1_456
Hf4 Hf7 3.085191 1_555
Hf4 Rh5 3.116732 1_556
Hf6 Rh6 2.624985 1_555
Hf6 Rh2 2.715577 1_555
Hf6 Rh0 2.738608 1_445
Hf6 Rh1 2.738668 1_546
Hf7 Rh6 2.624973 1_565
Hf7 Rh2 2.715539 1_554
Hf7 Rh4 2.738665 1_454
Hf7 Rh3 2.738702 1_555
Al0 Rh5 2.513262 1_445
Al0 Rh3 2.545999 1_555
Al0 Rh4 2.546050 1_454
Al0 Al8 2.768646 1_555
Al0 Al9 2.768652 1_454
Al0 Hf1 2.828135 1_555
Al0 Hf0 2.828151 1_455
Al0 Hf7 2.829493 1_555
Al0 Hf2 2.915972 1_555
Al0 Al1 2.996587 1_544
Al1 Rh5 2.513258 1_456
Al1 Rh1 2.546003 1_556
Al1 Rh0 2.546027 1_455
Al1 Al8 2.768627 1_566
Al1 Al9 2.768679 1_465
Al1 Hf3 2.828129 1_555
Al1 Hf4 2.828136 1_455
Al1 Hf6 2.829528 1_565
Al1 Hf2 2.915963 1_555
Al2 Rh0 2.524330 1_445
Al2 Rh4 2.524401 1_455
Al2 Rh2 2.569325 1_555
Al2 Al9 2.807682 1_455
Al2 Hf5 2.843388 1_455
Al2 Hf7 2.863459 1_556
Al2 Hf6 2.863492 1_555
Al2 Hf3 2.922552 1_555
Al2 Hf1 2.922606 1_555
Al3 Rh3 2.524359 1_555
Al3 Rh1 2.524443 1_545
Al3 Rh2 2.569392 1_554
Al3 Al8 2.807719 1_555
Al3 Hf5 2.843379 1_555
Al3 Hf7 2.863476 1_555
Al3 Hf6 2.863498 1_554
Al3 Hf4 2.922571 1_555
Al3 Hf0 2.922630 1_555
Al4 Rh5 2.545348 1_556
Al4 Rh4 2.554538 1_555
Al4 Rh3 2.554571 1_555
Al4 Hf5 2.909692 1_555
Al4 Hf4 2.944507 1_555
Al4 Hf3 2.944521 1_655
Al5 Rh5 2.545393 1_545
Al5 Rh0 2.554553 1_545
Al5 Rh1 2.554583 1_545
Al5 Hf5 2.909715 1_555
Al5 Hf1 2.944489 1_655
Al5 Hf0 2.944526 1_555
Al6 Rh0 2.540026 1_555
Al6 Rh4 2.540032 1_554
Al6 Rh2 2.556477 1_554
Al6 Hf0 2.880382 1_555
Al6 Hf4 2.880430 1_555
Al6 Hf2 2.905393 1_655
Al7 Rh1 2.539949 1_556
Al7 Rh3 2.540029 1_555
Al7 Rh2 2.556417 1_555
Al7 Hf1 2.880415 1_555
Al7 Hf3 2.880433 1_555
Al7 Hf2 2.905435 1_555
Al8 Rh6 2.573959 1_555
Al8 Rh3 2.698333 1_555
Al8 Rh1 2.698380 1_545
Al8 Rh5 2.735534 1_445
Al8 Hf5 2.914719 1_555
Al8 Hf1 2.948251 1_555
Al8 Hf3 2.948295 1_544
Al9 Rh6 2.574049 1_555
Al9 Rh4 2.698348 1_555
Al9 Rh0 2.698380 1_545
Al9 Rh5 2.735600 1_546
Al9 Hf5 2.914674 1_555
Al9 Hf0 2.948252 1_556
Al9 Hf4 2.948259 1_545
Al10 Rh6 2.596145 1_565
Al10 Rh2 2.708354 1_554
Al10 Rh1 2.715685 1_555
Al10 Rh0 2.715763 1_555
Al10 Al7 2.751767 1_554
Al10 Al6 2.751773 1_555
Al10 Al5 2.765320 1_565
Al10 Hf5 2.922378 1_565
Al10 Hf4 2.998161 1_555
Al10 Hf3 2.998196 1_554
Al10 Hf7 3.016908 1_555
Al10 Al9 3.032874 1_565
Al10 Al8 3.032887 1_565
Al11 Rh6 2.596183 1_555
Al11 Rh2 2.708340 1_555
Al11 Rh3 2.715683 1_555
Al11 Rh4 2.715697 1_555
Al11 Al7 2.751752 1_555
Al11 Al6 2.751757 1_556
Al11 Al4 2.765311 1_555
Al11 Hf5 2.922359 1_555
Al11 Hf0 2.998102 1_556
Al11 Hf1 2.998131 1_555
Al11 Hf6 3.016902 1_555
Al11 Al9 3.032915 1_555
Al11 Al8 3.032924 1_555
Al12 Rh6 2.675925 1_565
Al12 Rh5 2.705585 1_556
Al12 Rh1 2.732077 1_556
Al12 Rh3 2.732078 1_555
Al12 Al7 2.779427 1_555
Al12 Al4 2.786590 1_555
Al12 Al5 2.786664 1_566
Al12 Hf7 3.014707 1_555
Al12 Hf6 3.014720 1_565
Al12 Al9 3.020930 1_565
Al12 Hf4 3.038885 1_555
Al12 Hf0 3.038968 1_566
Al12 Hf2 3.140778 1_555
Al13 Rh6 2.675840 1_565
Al13 Rh5 2.705539 1_455
Al13 Rh0 2.732051 1_455
Al13 Rh4 2.732065 1_454
Al13 Al6 2.779468 1_455
Al13 Al4 2.786606 1_454
Al13 Al5 2.786651 1_465
Al13 Hf6 3.014686 1_565
Al13 Hf7 3.014712 1_555
Al13 Al8 3.020870 1_565
Al13 Hf1 3.038918 1_565
Al13 Hf3 3.038962 1_554
Al13 Hf2 3.140760 1_555
Ga0 Hf5 2.553907 1_555
Ga0 Hf3 2.589781 1_655
Ga0 Hf0 2.589821 1_555
Ga0 Hf4 2.589823 1_555
Ga0 Hf1 2.589870 1_655
Ga0 Hf2 2.606474 1_655
