# generated using pymatgen
data_Na5HfP3
_symmetry_space_group_name_H-M   'P 1'
_cell_length_a   7.33719409
_cell_length_b   8.19016157
_cell_length_c   15.71000820
_cell_angle_alpha   59.14263437
_cell_angle_beta   90.00000000
_cell_angle_gamma   90.00000000
_symmetry_Int_Tables_number   1
_chemical_formula_structural   Na5HfP3
_chemical_formula_sum   'Na20 Hf4 P12'
_cell_volume   810.42396404
_cell_formula_units_Z   4
loop_
 _symmetry_equiv_pos_site_id
 _symmetry_equiv_pos_as_xyz
  1  'x, y, z'
loop_
 _atom_site_type_symbol
 _atom_site_label
 _atom_site_symmetry_multiplicity
 _atom_site_fract_x
 _atom_site_fract_y
 _atom_site_fract_z
 _atom_site_occupancy
  Na  Na0  1  0.49277762  0.91480757  0.26346677  1
  Na  Na1  1  0.99277762  0.08519243  0.23653323  1
  Na  Na2  1  0.50722238  0.08519243  0.73653323  1
  Na  Na3  1  0.00722238  0.91480757  0.76346677  1
  Na  Na4  1  0.00914906  0.25733470  0.40691265  1
  Na  Na5  1  0.50914906  0.74266530  0.09308735  1
  Na  Na6  1  0.99085094  0.74266530  0.59308735  1
  Na  Na7  1  0.49085094  0.25733470  0.90691265  1
  Na  Na8  1  0.47049816  0.59612938  0.58586180  1
  Na  Na9  1  0.97049816  0.40387062  0.91413820  1
  Na  Na10  1  0.52950184  0.40387062  0.41413820  1
  Na  Na11  1  0.02950184  0.59612938  0.08586180  1
  Na  Na12  1  0.84460691  0.67917769  0.24219435  1
  Na  Na13  1  0.34460691  0.32082231  0.25780565  1
  Na  Na14  1  0.15539309  0.32082231  0.75780565  1
  Na  Na15  1  0.65539309  0.67917769  0.74219435  1
  Na  Na16  1  0.66343382  0.99957716  0.41903247  1
  Na  Na17  1  0.16343382  0.00042284  0.08096753  1
  Na  Na18  1  0.33656618  0.00042284  0.58096753  1
  Na  Na19  1  0.83656618  0.99957716  0.91903247  1
  Hf  Hf0  1  0.14158077  0.66237048  0.41335483  1
  Hf  Hf1  1  0.64158077  0.33762952  0.08664517  1
  Hf  Hf2  1  0.85841923  0.33762952  0.58664517  1
  Hf  Hf3  1  0.35841923  0.66237048  0.91335483  1
  P  P0  1  0.79636320  0.65326534  0.43094678  1
  P  P1  1  0.29636320  0.34673466  0.06905322  1
  P  P2  1  0.20363680  0.34673466  0.56905322  1
  P  P3  1  0.70363680  0.65326534  0.93094678  1
  P  P4  1  0.25800438  0.94302485  0.41732339  1
  P  P5  1  0.75800438  0.05697515  0.08267661  1
  P  P6  1  0.74199562  0.05697515  0.58267661  1
  P  P7  1  0.24199562  0.94302485  0.91732339  1
  P  P8  1  0.23489636  0.64873264  0.26553032  1
  P  P9  1  0.73489636  0.35126736  0.23446968  1
  P  P10  1  0.76510364  0.35126736  0.73446968  1
  P  P11  1  0.26510364  0.64873264  0.76553032  1
loop_
_geom_bond_atom_site_label_1
_geom_bond_atom_site_label_2
_geom_bond_distance
_geom_bond_site_symmetry_2
Na0 P8 2.873607 1_555
Na0 P4 3.071809 1_555
Na0 P5 3.133236 1_565
Na0 P0 3.269765 1_555
Na1 P9 2.873607 1_555
Na1 P5 3.071809 1_555
Na1 P4 3.133236 1_645
Na1 P1 3.269765 1_655
Na2 P10 2.873607 1_555
Na2 P6 3.071809 1_555
Na2 P7 3.133236 1_545
Na2 P2 3.269765 1_555
Na3 P11 2.873607 1_555
Na3 P7 3.071809 1_555
Na3 P6 3.133236 1_465
Na3 P3 3.269765 1_455
Na4 P6 3.084065 1_455
Na4 P4 3.091201 1_545
Na4 P9 3.137222 1_455
Na4 P8 3.263287 1_555
Na4 P2 3.312706 1_555
Na5 P7 3.084065 1_554
Na5 P5 3.091201 1_565
Na5 P8 3.137222 1_555
Na5 P9 3.263287 1_555
Na5 P3 3.312706 1_554
Na6 P4 3.084065 1_655
Na6 P6 3.091201 1_565
Na6 P11 3.137222 1_655
Na6 P10 3.263287 1_555
Na6 P0 3.312706 1_555
Na7 P5 3.084065 1_556
Na7 P7 3.091201 1_545
Na7 P10 3.137222 1_555
Na7 P11 3.263287 1_555
Na7 P1 3.312706 1_556
Na8 P2 2.937513 1_555
Na8 P10 3.056462 1_555
Na8 P4 3.129963 1_555
Na8 P0 3.269598 1_555
Na8 P11 3.416313 1_555
Na9 P3 2.937513 1_555
Na9 P11 3.056462 1_655
Na9 P5 3.129963 1_556
Na9 P1 3.269598 1_656
Na9 P10 3.416313 1_555
Na10 P0 2.937513 1_555
Na10 P8 3.056462 1_555
Na10 P6 3.129963 1_555
Na10 P2 3.269598 1_555
Na10 P9 3.416313 1_555
Na11 P1 2.937513 1_555
Na11 P9 3.056462 1_455
Na11 P7 3.129963 1_554
Na11 P3 3.269598 1_454
Na11 P8 3.416313 1_555
Na12 P9 2.865254 1_555
Na12 P8 2.881524 1_655
Na12 P5 2.881637 1_565
Na12 P0 2.884059 1_555
Na13 P8 2.865254 1_555
Na13 P9 2.881524 1_555
Na13 P4 2.881637 1_545
Na13 P1 2.884059 1_555
Na14 P11 2.865254 1_555
Na14 P10 2.881524 1_455
Na14 P7 2.881637 1_545
Na14 P2 2.884059 1_555
Na15 P10 2.865254 1_555
Na15 P11 2.881524 1_555
Na15 P6 2.881637 1_565
Na15 P3 2.884059 1_555
Na16 P6 2.898667 1_565
Na16 P9 2.900249 1_565
Na16 P0 2.913175 1_555
Na16 P4 3.012795 1_555
Na17 P7 2.898667 1_544
Na17 P8 2.900249 1_545
Na17 P1 2.913175 1_555
Na17 P5 3.012795 1_455
Na18 P4 2.898667 1_545
Na18 P11 2.900249 1_545
Na18 P2 2.913175 1_555
Na18 P6 3.012795 1_555
Na19 P5 2.898667 1_566
Na19 P10 2.900249 1_565
Na19 P3 2.913175 1_555
Na19 P7 3.012795 1_655
Hf0 P8 2.478010 1_555
Hf0 P4 2.482775 1_555
Hf0 P2 2.527196 1_555
Hf0 P0 2.544902 1_455
Hf1 P9 2.478010 1_555
Hf1 P5 2.482775 1_555
Hf1 P3 2.527196 1_554
Hf1 P1 2.544902 1_555
Hf2 P10 2.478010 1_555
Hf2 P6 2.482775 1_555
Hf2 P0 2.527196 1_555
Hf2 P2 2.544902 1_655
Hf3 P11 2.478010 1_555
Hf3 P7 2.482775 1_555
Hf3 P1 2.527196 1_556
Hf3 P3 2.544902 1_555
