# generated using pymatgen
data_Tl3PdBr5
_symmetry_space_group_name_H-M   'P 1'
_cell_length_a   8.14596000
_cell_length_b   17.33608800
_cell_length_c   17.45799600
_cell_angle_alpha   90.00000000
_cell_angle_beta   90.00000000
_cell_angle_gamma   90.00000000
_symmetry_Int_Tables_number   1
_chemical_formula_structural   Tl3PdBr5
_chemical_formula_sum   'Tl24 Pd8 Br40'
_cell_volume   2465.40212337
_cell_formula_units_Z   8
loop_
 _symmetry_equiv_pos_site_id
 _symmetry_equiv_pos_as_xyz
  1  'x, y, z'
loop_
 _atom_site_type_symbol
 _atom_site_label
 _atom_site_symmetry_multiplicity
 _atom_site_fract_x
 _atom_site_fract_y
 _atom_site_fract_z
 _atom_site_occupancy
  Tl  Tl0  1  0.61731600  0.06526700  0.30367300  1
  Tl  Tl1  1  0.11731600  0.43473300  0.69632700  1
  Tl  Tl2  1  0.38268400  0.56526700  0.19632700  1
  Tl  Tl3  1  0.88268400  0.93473300  0.80367300  1
  Tl  Tl4  1  0.38268400  0.93473300  0.69632700  1
  Tl  Tl5  1  0.88268400  0.56526700  0.30367300  1
  Tl  Tl6  1  0.61731600  0.43473300  0.80367300  1
  Tl  Tl7  1  0.11731600  0.06526700  0.19632700  1
  Tl  Tl8  1  0.41913300  0.20028200  0.64705300  1
  Tl  Tl9  1  0.91913300  0.29971800  0.35294700  1
  Tl  Tl10  1  0.58086700  0.70028200  0.85294700  1
  Tl  Tl11  1  0.08086700  0.79971800  0.14705300  1
  Tl  Tl12  1  0.58086700  0.79971800  0.35294700  1
  Tl  Tl13  1  0.08086700  0.70028200  0.64705300  1
  Tl  Tl14  1  0.41913300  0.29971800  0.14705300  1
  Tl  Tl15  1  0.91913300  0.20028200  0.85294700  1
  Tl  Tl16  1  0.89526100  0.09401900  0.58724400  1
  Tl  Tl17  1  0.39526100  0.40598100  0.41275600  1
  Tl  Tl18  1  0.10473900  0.59401900  0.91275600  1
  Tl  Tl19  1  0.60473900  0.90598100  0.08724400  1
  Tl  Tl20  1  0.10473900  0.90598100  0.41275600  1
  Tl  Tl21  1  0.60473900  0.59401900  0.58724400  1
  Tl  Tl22  1  0.89526100  0.40598100  0.08724400  1
  Tl  Tl23  1  0.39526100  0.09401900  0.91275600  1
  Pd  Pd0  1  0.30861300  0.14349800  0.42756500  1
  Pd  Pd1  1  0.80861300  0.35650200  0.57243500  1
  Pd  Pd2  1  0.69138700  0.64349800  0.07243500  1
  Pd  Pd3  1  0.19138700  0.85650200  0.92756500  1
  Pd  Pd4  1  0.69138700  0.85650200  0.57243500  1
  Pd  Pd5  1  0.19138700  0.64349800  0.42756500  1
  Pd  Pd6  1  0.30861300  0.35650200  0.92756500  1
  Pd  Pd7  1  0.80861300  0.14349800  0.07243500  1
  Br  Br0  1  0.57222100  0.19796700  0.47369200  1
  Br  Br1  1  0.07222100  0.30203300  0.52630800  1
  Br  Br2  1  0.42777900  0.69796700  0.02630800  1
  Br  Br3  1  0.92777900  0.80203300  0.97369200  1
  Br  Br4  1  0.42777900  0.80203300  0.52630800  1
  Br  Br5  1  0.92777900  0.69796700  0.47369200  1
  Br  Br6  1  0.57222100  0.30203300  0.97369200  1
  Br  Br7  1  0.07222100  0.19796700  0.02630800  1
  Br  Br8  1  0.29190600  0.05471600  0.53812800  1
  Br  Br9  1  0.79190600  0.44528400  0.46187200  1
  Br  Br10  1  0.70809400  0.55471600  0.96187200  1
  Br  Br11  1  0.20809400  0.94528400  0.03812800  1
  Br  Br12  1  0.70809400  0.94528400  0.46187200  1
  Br  Br13  1  0.20809400  0.55471600  0.53812800  1
  Br  Br14  1  0.29190600  0.44528400  0.03812800  1
  Br  Br15  1  0.79190600  0.05471600  0.96187200  1
  Br  Br16  1  0.31633800  0.23055300  0.31630900  1
  Br  Br17  1  0.81633800  0.26944700  0.68369100  1
  Br  Br18  1  0.68366200  0.73055300  0.18369100  1
  Br  Br19  1  0.18366200  0.76944700  0.81630900  1
  Br  Br20  1  0.68366200  0.76944700  0.68369100  1
  Br  Br21  1  0.18366200  0.73055300  0.31630900  1
  Br  Br22  1  0.31633800  0.26944700  0.81630900  1
  Br  Br23  1  0.81633800  0.23055300  0.18369100  1
  Br  Br24  1  0.03854400  0.09496000  0.38283300  1
  Br  Br25  1  0.53854400  0.40504000  0.61716700  1
  Br  Br26  1  0.96145600  0.59496000  0.11716700  1
  Br  Br27  1  0.46145600  0.90504000  0.88283300  1
  Br  Br28  1  0.96145600  0.90504000  0.61716700  1
  Br  Br29  1  0.46145600  0.59496000  0.38283300  1
  Br  Br30  1  0.03854400  0.40504000  0.88283300  1
  Br  Br31  1  0.53854400  0.09496000  0.11716700  1
  Br  Br32  1  0.36863000  0.93199700  0.26258100  1
  Br  Br33  1  0.86863000  0.56800300  0.73741900  1
  Br  Br34  1  0.63137000  0.43199700  0.23741900  1
  Br  Br35  1  0.13137000  0.06800300  0.76258100  1
  Br  Br36  1  0.63137000  0.06800300  0.73741900  1
  Br  Br37  1  0.13137000  0.43199700  0.26258100  1
  Br  Br38  1  0.36863000  0.56800300  0.76258100  1
  Br  Br39  1  0.86863000  0.93199700  0.23741900  1
loop_
_geom_bond_atom_site_label_1
_geom_bond_atom_site_label_2
_geom_bond_distance
_geom_bond_site_symmetry_2
Br0 Pd0 2.480165 1_555
Br0 Tl8 3.273631 1_555
Br1 Pd1 2.480165 1_455
Br1 Tl9 3.273631 1_455
Br2 Pd2 2.480165 1_555
Br2 Tl10 3.273631 1_554
Br3 Pd3 2.480165 1_655
Br3 Tl11 3.273631 1_656
Br4 Pd4 2.480165 1_555
Br4 Tl12 3.273631 1_555
Br5 Pd5 2.480165 1_655
Br5 Tl13 3.273631 1_655
Br6 Pd6 2.480165 1_555
Br6 Tl14 3.273631 1_556
Br7 Pd7 2.480165 1_455
Br7 Tl15 3.273631 1_454
Br8 Pd0 2.472480 1_555
Br8 Tl8 3.325433 1_555
Br8 Tl16 3.411629 1_455
Br9 Pd1 2.472480 1_555
Br9 Tl9 3.325433 1_555
Br9 Tl17 3.411629 1_555
Br10 Pd2 2.472480 1_556
Br10 Tl10 3.325433 1_555
Br10 Tl18 3.411629 1_655
Br11 Pd3 2.472480 1_554
Br11 Tl11 3.325433 1_555
Br11 Tl19 3.411629 1_555
Br12 Pd4 2.472480 1_555
Br12 Tl12 3.325433 1_555
Br12 Tl20 3.411629 1_655
Br13 Pd5 2.472480 1_555
Br13 Tl13 3.325433 1_555
Br13 Tl21 3.411629 1_555
Br14 Pd6 2.472480 1_554
Br14 Tl14 3.325433 1_555
Br14 Tl22 3.411629 1_455
Br15 Pd7 2.472480 1_556
Br15 Tl15 3.325433 1_555
Br15 Tl23 3.411629 1_555
Br16 Pd0 2.460524 1_555
Br16 Tl14 3.296993 1_555
Br17 Pd1 2.460524 1_555
Br17 Tl15 3.296993 1_555
Br18 Pd2 2.460524 1_555
Br18 Tl12 3.296993 1_555
Br19 Pd3 2.460524 1_555
Br19 Tl13 3.296993 1_555
Br20 Pd4 2.460524 1_555
Br20 Tl10 3.296993 1_555
Br21 Pd5 2.460524 1_555
Br21 Tl11 3.296993 1_555
Br22 Pd6 2.460524 1_555
Br22 Tl8 3.296993 1_555
Br23 Pd7 2.460524 1_555
Br23 Tl9 3.296993 1_555
Br24 Pd0 2.481488 1_555
Br24 Tl7 3.358332 1_555
Br24 Tl20 3.361080 1_545
Br25 Pd1 2.481488 1_555
Br25 Tl6 3.358332 1_555
Br25 Tl21 3.361080 1_555
Br26 Pd2 2.481488 1_555
Br26 Tl5 3.358332 1_555
Br26 Tl22 3.361080 1_555
Br27 Pd3 2.481488 1_555
Br27 Tl4 3.358332 1_555
Br27 Tl23 3.361080 1_565
Br28 Pd4 2.481488 1_555
Br28 Tl3 3.358332 1_555
Br28 Tl16 3.361080 1_565
Br29 Pd5 2.481488 1_555
Br29 Tl2 3.358332 1_555
Br29 Tl17 3.361080 1_555
Br30 Pd6 2.481488 1_555
Br30 Tl1 3.358332 1_555
Br30 Tl18 3.361080 1_555
Br31 Pd7 2.481488 1_555
Br31 Tl0 3.358332 1_555
Br31 Tl19 3.361080 1_545
Br32 Tl0 3.155362 1_565
Br32 Tl12 3.276679 1_555
Br32 Tl7 3.296472 1_565
Br32 Tl20 3.420232 1_555
Br33 Tl1 3.155362 1_655
Br33 Tl13 3.276679 1_655
Br33 Tl6 3.296472 1_555
Br33 Tl21 3.420232 1_555
Br34 Tl2 3.155362 1_555
Br34 Tl14 3.276679 1_555
Br34 Tl5 3.296472 1_555
Br34 Tl22 3.420232 1_555
Br35 Tl3 3.155362 1_445
Br35 Tl15 3.276679 1_455
Br35 Tl4 3.296472 1_545
Br35 Tl23 3.420232 1_555
Br36 Tl4 3.155362 1_545
Br36 Tl8 3.276679 1_555
Br36 Tl3 3.296472 1_545
Br36 Tl16 3.420232 1_555
Br37 Tl5 3.155362 1_455
Br37 Tl9 3.276679 1_455
Br37 Tl2 3.296472 1_555
Br37 Tl17 3.420232 1_555
Br38 Tl6 3.155362 1_555
Br38 Tl10 3.276679 1_555
Br38 Tl1 3.296472 1_555
Br38 Tl18 3.420232 1_555
Br39 Tl7 3.155362 1_665
Br39 Tl11 3.276679 1_655
Br39 Tl0 3.296472 1_565
Br39 Tl19 3.420232 1_555
