# generated using pymatgen
data_RhPb2
_symmetry_space_group_name_H-M   'P 1'
_cell_length_a   5.59701006
_cell_length_b   5.59701019
_cell_length_c   5.59701019
_cell_angle_alpha   106.05512814
_cell_angle_beta   106.05512019
_cell_angle_gamma   116.54341037
_symmetry_Int_Tables_number   1
_chemical_formula_structural   RhPb2
_chemical_formula_sum   'Rh2 Pb4'
_cell_volume   133.41231477
_cell_formula_units_Z   2
loop_
 _symmetry_equiv_pos_site_id
 _symmetry_equiv_pos_as_xyz
  1  'x, y, z'
loop_
 _atom_site_type_symbol
 _atom_site_label
 _atom_site_symmetry_multiplicity
 _atom_site_fract_x
 _atom_site_fract_y
 _atom_site_fract_z
 _atom_site_occupancy
  Rh  Rh0  1  0.75000000  0.75000000  -0.00000000  1
  Rh  Rh1  1  0.25000000  0.25000000  -0.00000000  1
  Pb  Pb0  1  0.83461483  0.66538517  0.50000000  1
  Pb  Pb1  1  0.33461483  0.83461483  0.16923066  1
  Pb  Pb2  1  0.16538517  0.33461483  0.50000000  1
  Pb  Pb3  1  0.66538517  0.16538517  0.83076934  1
loop_
_geom_bond_atom_site_label_1
_geom_bond_atom_site_label_2
_geom_bond_distance
_geom_bond_site_symmetry_2
Rh0 Rh1 2.943421 1_555
Rh0 Rh1 2.943421 1_665
Pb0 Rh0 2.912158 1_556
Pb0 Rh0 2.912158 1_555
Pb0 Rh1 2.912158 1_666
Pb0 Rh1 2.912158 1_555
Pb0 Pb2 3.149294 1_655
Pb1 Rh1 2.912158 1_555
Pb1 Rh0 2.912158 1_455
Pb1 Rh0 2.912160 1_555
Pb1 Rh1 2.912161 1_565
Pb1 Pb3 3.149285 1_565
Pb2 Rh1 2.912158 1_555
Pb2 Rh1 2.912158 1_556
Pb2 Rh0 2.912158 1_445
Pb2 Rh0 2.912158 1_556
Pb3 Rh0 2.912158 1_556
Pb3 Rh1 2.912158 1_656
Pb3 Rh1 2.912160 1_556
Pb3 Rh0 2.912161 1_546
