# generated using pymatgen
data_BeNb8SiSb4
_symmetry_space_group_name_H-M   'P 1'
_cell_length_a   7.78758830
_cell_length_b   7.78758929
_cell_length_c   7.78758826
_cell_angle_alpha   95.64083163
_cell_angle_beta   95.64083611
_cell_angle_gamma   143.45750923
_symmetry_Int_Tables_number   1
_chemical_formula_structural   BeNb8SiSb4
_chemical_formula_sum   'Be1 Nb8 Si1 Sb4'
_cell_volume   267.03271166
_cell_formula_units_Z   1
loop_
 _symmetry_equiv_pos_site_id
 _symmetry_equiv_pos_as_xyz
  1  'x, y, z'
loop_
 _atom_site_type_symbol
 _atom_site_label
 _atom_site_symmetry_multiplicity
 _atom_site_fract_x
 _atom_site_fract_y
 _atom_site_fract_z
 _atom_site_occupancy
  Be  Be0  1  0.25000000  0.25000000  0.00000000  1
  Nb  Nb0  1  0.92088762  0.80250705  0.71436794  1
  Nb  Nb1  1  0.80250705  0.08813911  0.88161843  1
  Nb  Nb2  1  0.41186089  0.69749295  0.11838157  1
  Nb  Nb3  1  0.57911238  0.29347931  0.88161843  1
  Nb  Nb4  1  0.69749295  0.57911238  0.28563206  1
  Nb  Nb5  1  0.29347931  0.41186089  0.71436794  1
  Nb  Nb6  1  0.20652069  0.92088762  0.11838157  1
  Nb  Nb7  1  0.08813911  0.20652069  0.28563206  1
  Si  Si0  1  0.75000000  0.75000000  0.00000000  1
  Sb  Sb0  1  0.64231582  0.85768418  0.50000000  1
  Sb  Sb1  1  0.14231582  0.64231582  0.78463063  1
  Sb  Sb2  1  0.85768418  0.35768418  0.21536837  1
  Sb  Sb3  1  0.35768418  0.14231582  0.50000000  1
loop_
_geom_bond_atom_site_label_1
_geom_bond_atom_site_label_2
_geom_bond_distance
_geom_bond_site_symmetry_2
Be0 Si0 2.441533 1_555
Be0 Si0 2.441533 1_445
Be0 Nb4 2.581639 1_555
Be0 Nb0 2.581639 1_444
Be0 Nb7 2.581640 1_555
Be0 Nb5 2.581640 1_554
Be0 Nb1 2.581640 1_454
Be0 Nb2 2.581640 1_555
Be0 Nb3 2.581647 1_554
Be0 Nb6 2.581647 1_545
Nb0 Si0 2.602398 1_556
Nb0 Sb1 2.869580 1_655
Nb0 Sb0 2.933394 1_555
Nb0 Sb3 2.980159 1_665
Nb0 Sb3 3.016056 1_555
Nb1 Si0 2.602402 1_546
Nb1 Sb0 2.869574 1_545
Nb1 Sb2 2.933401 1_556
Nb1 Sb1 2.980160 1_655
Nb1 Sb1 3.016055 1_545
Nb2 Si0 2.602401 1_555
Nb2 Sb0 2.869574 1_555
Nb2 Sb1 2.933407 1_554
Nb2 Sb2 2.980156 1_455
Nb2 Sb2 3.016056 1_565
Nb3 Si0 2.602407 1_556
Nb3 Sb3 2.869575 1_555
Nb3 Sb2 2.933397 1_556
Nb3 Sb1 2.980154 1_545
Nb3 Sb1 3.016053 1_655
Nb4 Si0 2.602398 1_555
Nb4 Sb2 2.869581 1_555
Nb4 Sb0 2.933395 1_555
Nb4 Sb3 2.980159 1_555
Nb4 Sb3 3.016055 1_665
Nb5 Si0 2.602402 1_556
Nb5 Sb1 2.869572 1_555
Nb5 Sb3 2.933401 1_555
Nb5 Sb0 2.980156 1_445
Nb5 Sb0 3.016055 1_555
Nb6 Si0 2.602406 1_455
Nb6 Sb3 2.869575 1_565
Nb6 Sb1 2.933403 1_554
Nb6 Sb2 2.980154 1_565
Nb6 Sb2 3.016050 1_455
Nb7 Si0 2.602402 1_445
Nb7 Sb2 2.869574 1_455
Nb7 Sb3 2.933401 1_555
Nb7 Sb0 2.980157 1_555
Nb7 Sb0 3.016055 1_445
