# generated using pymatgen
data_Ag3Bi(Ir2O7)2
_symmetry_space_group_name_H-M   'P 1'
_cell_length_a   7.13991379
_cell_length_b   7.13991381
_cell_length_c   7.20227259
_cell_angle_alpha   60.28600446
_cell_angle_beta   60.28600468
_cell_angle_gamma   60.00000159
_symmetry_Int_Tables_number   1
_chemical_formula_structural   Ag3Bi(Ir2O7)2
_chemical_formula_sum   'Ag3 Bi1 Ir4 O14'
_cell_volume   260.73808467
_cell_formula_units_Z   1
loop_
 _symmetry_equiv_pos_site_id
 _symmetry_equiv_pos_as_xyz
  1  'x, y, z'
loop_
 _atom_site_type_symbol
 _atom_site_label
 _atom_site_symmetry_multiplicity
 _atom_site_fract_x
 _atom_site_fract_y
 _atom_site_fract_z
 _atom_site_occupancy
  Ag  Ag0  1  0.62500000  0.12500000  0.12500000  1
  Ag  Ag1  1  0.12500000  0.62500000  0.12500000  1
  Ag  Ag2  1  0.12500000  0.12500000  0.12500000  1
  Bi  Bi0  1  0.12500000  0.12500000  0.62500000  1
  Ir  Ir0  1  0.12500000  0.62500000  0.62500000  1
  Ir  Ir1  1  0.62500000  0.12500000  0.62500000  1
  Ir  Ir2  1  0.62500000  0.62500000  0.12500000  1
  Ir  Ir3  1  0.62500000  0.62500000  0.62500000  1
  O  O0  1  0.69651247  0.69651247  0.30595249  1
  O  O1  1  0.29498833  0.29498833  0.69561588  1
  O  O2  1  0.71440846  0.29498833  0.69561588  1
  O  O3  1  0.30102257  0.69651247  0.30595249  1
  O  O4  1  0.29498833  0.71440846  0.69561588  1
  O  O5  1  0.69651247  0.30102257  0.30595249  1
  O  O6  1  0.55348753  0.55348753  0.94404751  1
  O  O7  1  0.95501167  0.95501167  0.55438412  1
  O  O8  1  0.53559154  0.95501167  0.55438412  1
  O  O9  1  0.94897743  0.55348753  0.94404751  1
  O  O10  1  0.95501167  0.53559154  0.55438412  1
  O  O11  1  0.55348753  0.94897743  0.94404751  1
  O  O12  1  0.25427168  0.25427168  0.23718397  1
  O  O13  1  0.99572832  0.99572832  0.01281603  1
loop_
_geom_bond_atom_site_label_1
_geom_bond_atom_site_label_2
_geom_bond_distance
_geom_bond_site_symmetry_2
Ag0 O13 2.164989 1_545
Ag0 O12 2.164989 1_555
Ag0 O5 2.542412 1_555
Ag0 O11 2.542412 1_544
Ag0 O6 2.542412 1_554
Ag0 O0 2.542412 1_545
Ag0 O8 2.557572 1_545
Ag0 O2 2.557572 1_554
Ag1 O13 2.164989 1_455
Ag1 O12 2.164989 1_555
Ag1 O3 2.542412 1_555
Ag1 O9 2.542412 1_454
Ag1 O6 2.542412 1_554
Ag1 O0 2.542412 1_455
Ag1 O10 2.557572 1_455
Ag1 O4 2.557572 1_554
Ag2 O12 2.164983 1_555
Ag2 O13 2.164983 1_445
Ag2 O9 2.542412 1_454
Ag2 O3 2.542412 1_545
Ag2 O11 2.542412 1_544
Ag2 O5 2.542412 1_455
Ag2 O7 2.557573 1_445
Ag2 O1 2.557573 1_554
Bi0 O13 2.290412 1_446
Bi0 O12 2.290412 1_555
Bi0 O8 2.429348 1_545
Bi0 O2 2.429348 1_455
Bi0 O10 2.429348 1_455
Bi0 O4 2.429348 1_545
Bi0 O1 2.429354 1_555
Bi0 O7 2.429354 1_445
Ir0 O9 1.932893 1_455
Ir0 O3 1.932893 1_555
Ir0 O7 1.961587 1_455
Ir0 O1 1.961587 1_555
Ir0 O4 1.961592 1_555
Ir0 O10 1.961592 1_455
Ir1 O11 1.932893 1_545
Ir1 O5 1.932893 1_555
Ir1 O7 1.961587 1_545
Ir1 O1 1.961587 1_555
Ir1 O2 1.961592 1_555
Ir1 O8 1.961592 1_545
Ir2 O0 1.949354 1_555
Ir2 O6 1.949354 1_554
Ir2 O11 1.949355 1_554
Ir2 O5 1.949355 1_555
Ir2 O9 1.949355 1_554
Ir2 O3 1.949355 1_555
Ir3 O6 1.932893 1_555
Ir3 O0 1.932893 1_555
Ir3 O10 1.961586 1_555
Ir3 O4 1.961586 1_555
Ir3 O8 1.961586 1_555
Ir3 O2 1.961586 1_555
