# generated using pymatgen
data_Ba5Lu2TaAl2O13
_symmetry_space_group_name_H-M   'P 1'
_cell_length_a   5.88798796
_cell_length_b   5.88798828
_cell_length_c   24.55386738
_cell_angle_alpha   90.00000000
_cell_angle_beta   90.00000000
_cell_angle_gamma   119.99999824
_symmetry_Int_Tables_number   1
_chemical_formula_structural   Ba5Lu2TaAl2O13
_chemical_formula_sum   'Ba10 Lu4 Ta2 Al4 O26'
_cell_volume   737.19841936
_cell_formula_units_Z   2
loop_
 _symmetry_equiv_pos_site_id
 _symmetry_equiv_pos_as_xyz
  1  'x, y, z'
loop_
 _atom_site_type_symbol
 _atom_site_label
 _atom_site_symmetry_multiplicity
 _atom_site_fract_x
 _atom_site_fract_y
 _atom_site_fract_z
 _atom_site_occupancy
  Ba  Ba0  1  0.33333300  0.66666700  0.54609217  1
  Ba  Ba1  1  0.66666700  0.33333300  0.45390783  1
  Ba  Ba2  1  0.66666700  0.33333300  0.04609217  1
  Ba  Ba3  1  0.33333300  0.66666700  0.95390783  1
  Ba  Ba4  1  0.00000000  0.00000000  0.14428306  1
  Ba  Ba5  1  0.00000000  0.00000000  0.85571694  1
  Ba  Ba6  1  0.00000000  0.00000000  0.64428306  1
  Ba  Ba7  1  0.00000000  0.00000000  0.35571694  1
  Ba  Ba8  1  0.33333300  0.66666700  0.25000000  1
  Ba  Ba9  1  0.66666700  0.33333300  0.75000000  1
  Lu  Lu0  1  0.33333300  0.66666700  0.10228492  1
  Lu  Lu1  1  0.66666700  0.33333300  0.89771508  1
  Lu  Lu2  1  0.66666700  0.33333300  0.60228492  1
  Lu  Lu3  1  0.33333300  0.66666700  0.39771508  1
  Ta  Ta0  1  0.00000000  0.00000000  0.00000000  1
  Ta  Ta1  1  0.00000000  0.00000000  0.50000000  1
  Al  Al0  1  0.33333300  0.66666700  0.67998268  1
  Al  Al1  1  0.66666700  0.33333300  0.32001732  1
  Al  Al2  1  0.66666700  0.33333300  0.17998268  1
  Al  Al3  1  0.33333300  0.66666700  0.82001732  1
  O  O0  1  0.50609100  0.01218300  0.15269162  1
  O  O1  1  0.49390900  0.98781700  0.84730838  1
  O  O2  1  0.98781700  0.49390900  0.15269162  1
  O  O3  1  0.49390900  0.98781700  0.65269162  1
  O  O4  1  0.01218300  0.50609100  0.84730838  1
  O  O5  1  0.50609100  0.01218300  0.34730838  1
  O  O6  1  0.50609100  0.49390900  0.15269162  1
  O  O7  1  0.01218300  0.50609100  0.65269162  1
  O  O8  1  0.49390900  0.50609100  0.84730838  1
  O  O9  1  0.98781700  0.49390900  0.34730838  1
  O  O10  1  0.49390900  0.50609100  0.65269162  1
  O  O11  1  0.50609100  0.49390900  0.34730838  1
  O  O12  1  0.15992077  0.31984155  0.04727819  1
  O  O13  1  0.84007923  0.68015845  0.95272181  1
  O  O14  1  0.68015845  0.84007923  0.04727819  1
  O  O15  1  0.84007923  0.68015845  0.54727819  1
  O  O16  1  0.31984155  0.15992077  0.95272181  1
  O  O17  1  0.15992077  0.31984155  0.45272181  1
  O  O18  1  0.15992077  0.84007923  0.04727819  1
  O  O19  1  0.31984155  0.15992077  0.54727819  1
  O  O20  1  0.84007923  0.15992077  0.95272181  1
  O  O21  1  0.68015845  0.84007923  0.45272181  1
  O  O22  1  0.84007923  0.15992077  0.54727819  1
  O  O23  1  0.15992077  0.84007923  0.45272181  1
  O  O24  1  0.33333300  0.66666700  0.75000000  1
  O  O25  1  0.66666700  0.33333300  0.25000000  1
loop_
_geom_bond_atom_site_label_1
_geom_bond_atom_site_label_2
_geom_bond_distance
_geom_bond_site_symmetry_2
Ba0 O23 2.895454 1_555
Ba0 O21 2.895457 1_555
Ba0 O17 2.895457 1_555
Ba0 O15 2.944939 1_455
Ba0 O19 2.944939 1_565
Ba0 O22 2.944942 1_565
Ba0 O22 2.944942 1_455
Ba0 O15 2.944945 1_555
Ba0 O19 2.944945 1_555
Ba0 O7 3.087497 1_555
Ba0 O3 3.087497 1_555
Ba0 O10 3.087502 1_555
Ba1 O22 2.895454 1_555
Ba1 O19 2.895457 1_555
Ba1 O15 2.895457 1_555
Ba1 O17 2.944939 1_655
Ba1 O21 2.944939 1_545
Ba1 O23 2.944942 1_545
Ba1 O23 2.944942 1_655
Ba1 O17 2.944945 1_555
Ba1 O21 2.944945 1_555
Ba1 O9 3.087497 1_555
Ba1 O5 3.087497 1_555
Ba1 O11 3.087502 1_555
Ba2 O20 2.895454 1_554
Ba2 O16 2.895457 1_554
Ba2 O13 2.895457 1_554
Ba2 O12 2.944939 1_655
Ba2 O14 2.944939 1_545
Ba2 O18 2.944942 1_545
Ba2 O18 2.944942 1_655
Ba2 O12 2.944945 1_555
Ba2 O14 2.944945 1_555
Ba2 O2 3.087497 1_555
Ba2 O0 3.087497 1_555
Ba2 O6 3.087502 1_555
Ba3 O18 2.895454 1_556
Ba3 O14 2.895457 1_556
Ba3 O12 2.895457 1_556
Ba3 O13 2.944939 1_455
Ba3 O16 2.944939 1_565
Ba3 O20 2.944942 1_565
Ba3 O20 2.944942 1_455
Ba3 O13 2.944945 1_555
Ba3 O16 2.944945 1_555
Ba3 O4 3.087497 1_555
Ba3 O1 3.087497 1_555
Ba3 O8 3.087502 1_555
Ba4 O14 2.886708 1_445
Ba4 O18 2.886708 1_545
Ba4 O12 2.886708 1_555
Ba4 O0 2.951876 1_555
Ba4 O2 2.951876 1_445
Ba4 O6 2.951879 1_555
Ba4 O6 2.951879 1_445
Ba4 O0 2.951881 1_455
Ba4 O2 2.951882 1_455
Ba5 O16 2.886708 1_555
Ba5 O20 2.886708 1_455
Ba5 O13 2.886708 1_445
Ba5 O1 2.951876 1_445
Ba5 O4 2.951876 1_555
Ba5 O8 2.951879 1_445
Ba5 O8 2.951879 1_555
Ba5 O1 2.951881 1_545
Ba5 O4 2.951882 1_545
Ba6 O19 2.886708 1_555
Ba6 O22 2.886708 1_455
Ba6 O15 2.886708 1_445
Ba6 O3 2.951876 1_445
Ba6 O7 2.951876 1_555
Ba6 O10 2.951879 1_445
Ba6 O10 2.951879 1_555
Ba6 O3 2.951881 1_545
Ba6 O7 2.951882 1_545
Ba7 O21 2.886708 1_445
Ba7 O23 2.886708 1_545
Ba7 O17 2.886708 1_555
Ba7 O5 2.951876 1_555
Ba7 O9 2.951876 1_445
Ba7 O11 2.951879 1_555
Ba7 O11 2.951879 1_445
Ba7 O5 2.951881 1_455
Ba7 O9 2.951882 1_455
Ba8 O11 2.968638 1_555
Ba8 O6 2.968638 1_555
Ba8 O9 2.968638 1_455
Ba8 O2 2.968638 1_455
Ba8 O5 2.968638 1_565
Ba8 O0 2.968638 1_565
Ba8 O25 3.399428 1_455
Ba8 O25 3.399428 1_565
Ba8 O25 3.399438 1_555
Ba9 O8 2.968638 1_555
Ba9 O10 2.968638 1_555
Ba9 O4 2.968638 1_655
Ba9 O7 2.968638 1_655
Ba9 O1 2.968638 1_545
Ba9 O3 2.968638 1_545
Ba9 O24 3.399428 1_655
Ba9 O24 3.399428 1_545
Ba9 O24 3.399438 1_555
Lu0 O6 2.153119 1_555
Lu0 O2 2.153119 1_455
Lu0 O0 2.153119 1_565
Lu0 O18 2.225269 1_555
Lu0 O14 2.225273 1_555
Lu0 O12 2.225273 1_555
Lu1 O8 2.153119 1_555
Lu1 O4 2.153119 1_655
Lu1 O1 2.153119 1_545
Lu1 O20 2.225269 1_555
Lu1 O16 2.225273 1_555
Lu1 O13 2.225273 1_555
Lu2 O10 2.153119 1_555
Lu2 O7 2.153119 1_655
Lu2 O3 2.153119 1_545
Lu2 O22 2.225269 1_555
Lu2 O19 2.225273 1_555
Lu2 O15 2.225273 1_555
Lu3 O11 2.153119 1_555
Lu3 O9 2.153119 1_455
Lu3 O5 2.153119 1_565
Lu3 O23 2.225269 1_555
Lu3 O21 2.225273 1_555
Lu3 O17 2.225273 1_555
Al0 O24 1.719196 1_555
Al0 O7 1.769390 1_555
Al0 O3 1.769390 1_555
Al0 O10 1.769399 1_555
Al1 O25 1.719196 1_555
Al1 O9 1.769390 1_555
Al1 O5 1.769390 1_555
Al1 O11 1.769399 1_555
Al2 O25 1.719196 1_555
Al2 O2 1.769390 1_555
Al2 O0 1.769390 1_555
Al2 O6 1.769399 1_555
Al3 O24 1.719196 1_555
Al3 O4 1.769390 1_555
Al3 O1 1.769390 1_555
Al3 O8 1.769399 1_555
O12 Ta0 2.001874 1_555
O13 Ta0 2.001874 1_666
O14 Ta0 2.001874 1_665
O15 Ta1 2.001874 1_665
O16 Ta0 2.001874 1_556
O17 Ta1 2.001874 1_555
O18 Ta0 2.001874 1_565
O19 Ta1 2.001874 1_555
O20 Ta0 2.001874 1_656
O21 Ta1 2.001874 1_665
O22 Ta1 2.001874 1_655
O23 Ta1 2.001874 1_565
