# generated using pymatgen
data_K5ZrAs3
_symmetry_space_group_name_H-M   'P 1'
_cell_length_a   8.37314269
_cell_length_b   9.10087542
_cell_length_c   17.83202334
_cell_angle_alpha   59.70732748
_cell_angle_beta   90.00000000
_cell_angle_gamma   90.00000000
_symmetry_Int_Tables_number   1
_chemical_formula_structural   K5ZrAs3
_chemical_formula_sum   'K20 Zr4 As12'
_cell_volume   1173.31478292
_cell_formula_units_Z   4
loop_
 _symmetry_equiv_pos_site_id
 _symmetry_equiv_pos_as_xyz
  1  'x, y, z'
loop_
 _atom_site_type_symbol
 _atom_site_label
 _atom_site_symmetry_multiplicity
 _atom_site_fract_x
 _atom_site_fract_y
 _atom_site_fract_z
 _atom_site_occupancy
  K  K0  1  0.17193233  0.84193293  0.74218536  1
  K  K1  1  0.67193233  0.15806707  0.75781464  1
  K  K2  1  0.82806767  0.15806707  0.25781464  1
  K  K3  1  0.32806767  0.84193293  0.24218536  1
  K  K4  1  0.16763621  0.16396099  0.41917135  1
  K  K5  1  0.66763621  0.83603901  0.08082865  1
  K  K6  1  0.83236379  0.83603901  0.58082865  1
  K  K7  1  0.33236379  0.16396099  0.91917135  1
  K  K8  1  0.00630372  0.08001056  0.09295005  1
  K  K9  1  0.50630372  0.91998944  0.40704995  1
  K  K10  1  0.99369628  0.91998944  0.90704995  1
  K  K11  1  0.49369628  0.08001056  0.59295005  1
  K  K12  1  0.51646506  0.25192122  0.07940523  1
  K  K13  1  0.01646506  0.74807878  0.42059477  1
  K  K14  1  0.48353494  0.74807878  0.92059477  1
  K  K15  1  0.98353494  0.25192122  0.57940523  1
  K  K16  1  0.98706406  0.54262797  0.25903903  1
  K  K17  1  0.48706406  0.45737203  0.24096097  1
  K  K18  1  0.01293594  0.45737203  0.74096097  1
  K  K19  1  0.51293594  0.54262797  0.75903903  1
  Zr  Zr0  1  0.36691902  0.49455333  0.58212188  1
  Zr  Zr1  1  0.86691902  0.50544667  0.91787812  1
  Zr  Zr2  1  0.63308098  0.50544667  0.41787812  1
  Zr  Zr3  1  0.13308098  0.49455333  0.08212188  1
  As  As0  1  0.31556010  0.48688189  0.43630483  1
  As  As1  1  0.81556010  0.51311811  0.06369517  1
  As  As2  1  0.68443990  0.51311811  0.56369517  1
  As  As3  1  0.18443990  0.48688189  0.93630483  1
  As  As4  1  0.21675091  0.21180163  0.22162101  1
  As  As5  1  0.71675091  0.78819837  0.27837899  1
  As  As6  1  0.78324909  0.78819837  0.77837899  1
  As  As7  1  0.28324909  0.21180163  0.72162101  1
  As  As8  1  0.25228642  0.76377334  0.07862505  1
  As  As9  1  0.75228642  0.23622666  0.42137495  1
  As  As10  1  0.74771358  0.23622666  0.92137495  1
  As  As11  1  0.24771358  0.76377334  0.57862505  1
loop_
_geom_bond_atom_site_label_1
_geom_bond_atom_site_label_2
_geom_bond_distance
_geom_bond_site_symmetry_2
As0 Zr0 2.670965 1_555
As0 Zr2 2.673746 1_555
As0 K3 3.339218 1_555
As0 K4 3.342183 1_555
As0 K13 3.365890 1_555
As0 K11 3.647464 1_555
As0 K15 3.648041 1_455
As1 Zr1 2.670965 1_554
As1 Zr3 2.673746 1_655
As1 K2 3.339218 1_555
As1 K5 3.342183 1_555
As1 K12 3.365890 1_555
As1 K10 3.647464 1_554
As1 K14 3.648041 1_554
As2 Zr2 2.670965 1_555
As2 Zr0 2.673746 1_555
As2 K1 3.339218 1_555
As2 K6 3.342183 1_555
As2 K15 3.365890 1_555
As2 K9 3.647464 1_555
As2 K13 3.648041 1_655
As3 Zr3 2.670965 1_556
As3 Zr1 2.673746 1_455
As3 K0 3.339218 1_555
As3 K7 3.342183 1_555
As3 K14 3.365890 1_555
As3 K8 3.647464 1_556
As3 K12 3.648041 1_556
As4 Zr3 2.615875 1_555
As4 K2 3.305913 1_455
As4 K17 3.318757 1_555
As4 K3 3.329981 1_545
As4 K4 3.349768 1_555
As4 K12 3.453736 1_555
As4 K8 3.547463 1_555
As5 Zr2 2.615875 1_555
As5 K3 3.305913 1_555
As5 K16 3.318757 1_555
As5 K2 3.329981 1_565
As5 K5 3.349768 1_555
As5 K13 3.453736 1_655
As5 K9 3.547463 1_555
As6 Zr1 2.615875 1_555
As6 K0 3.305913 1_655
As6 K19 3.318757 1_555
As6 K1 3.329981 1_565
As6 K6 3.349768 1_555
As6 K14 3.453736 1_555
As6 K10 3.547463 1_555
As7 Zr0 2.615875 1_555
As7 K1 3.305913 1_555
As7 K18 3.318757 1_555
As7 K0 3.329981 1_545
As7 K7 3.349768 1_555
As7 K15 3.453736 1_455
As7 K11 3.547463 1_555
As8 Zr3 2.617095 1_555
As8 K7 3.369233 1_564
As8 K3 3.392373 1_555
As8 K10 3.417886 1_454
As8 K17 3.446244 1_555
As8 K14 3.480913 1_554
As8 K5 3.543323 1_555
As8 K16 3.577748 1_455
As8 K8 3.651323 1_565
As9 Zr2 2.617095 1_555
As9 K6 3.369233 1_545
As9 K2 3.392373 1_555
As9 K11 3.417886 1_555
As9 K16 3.446244 1_555
As9 K15 3.480913 1_555
As9 K4 3.543323 1_655
As9 K17 3.577748 1_555
As9 K9 3.651323 1_545
As10 Zr1 2.617095 1_555
As10 K5 3.369233 1_546
As10 K1 3.392373 1_555
As10 K8 3.417886 1_656
As10 K19 3.446244 1_555
As10 K12 3.480913 1_556
As10 K7 3.543323 1_555
As10 K18 3.577748 1_655
As10 K10 3.651323 1_545
As11 Zr0 2.617095 1_555
As11 K4 3.369233 1_565
As11 K0 3.392373 1_555
As11 K9 3.417886 1_555
As11 K18 3.446244 1_555
As11 K13 3.480913 1_555
As11 K6 3.543323 1_455
As11 K19 3.577748 1_555
As11 K11 3.651323 1_565
