# generated using pymatgen
data_K2TiBe3P4
_symmetry_space_group_name_H-M   'P 1'
_cell_length_a   7.30025773
_cell_length_b   7.30025614
_cell_length_c   5.36874904
_cell_angle_alpha   90.00000000
_cell_angle_beta   90.00000000
_cell_angle_gamma   136.80856078
_symmetry_Int_Tables_number   1
_chemical_formula_structural   K2TiBe3P4
_chemical_formula_sum   'K2 Ti1 Be3 P4'
_cell_volume   195.83198339
_cell_formula_units_Z   1
loop_
 _symmetry_equiv_pos_site_id
 _symmetry_equiv_pos_as_xyz
  1  'x, y, z'
loop_
 _atom_site_type_symbol
 _atom_site_label
 _atom_site_symmetry_multiplicity
 _atom_site_fract_x
 _atom_site_fract_y
 _atom_site_fract_z
 _atom_site_occupancy
  K  K0  1  0.50000000  0.00000000  0.25242056  1
  K  K1  1  0.00000000  0.50000000  0.74757944  1
  Ti  Ti0  1  0.00000000  0.00000000  0.00000000  1
  Be  Be0  1  0.50000000  0.50000000  0.50000000  1
  Be  Be1  1  0.50000000  0.50000000  0.00000000  1
  Be  Be2  1  0.00000000  0.00000000  0.50000000  1
  P  P0  1  0.64876667  0.83464891  0.74185616  1
  P  P1  1  0.16535109  0.35123333  0.25814384  1
  P  P2  1  0.83464891  0.64876667  0.25814384  1
  P  P3  1  0.35123333  0.16535109  0.74185616  1
loop_
_geom_bond_atom_site_label_1
_geom_bond_atom_site_label_2
_geom_bond_distance
_geom_bond_site_symmetry_2
K0 P0 3.384187 1_545
K0 P3 3.384187 1_555
K0 P2 3.395443 1_555
K0 P1 3.395443 1_545
K0 P2 3.465250 1_445
K0 P1 3.465250 1_655
K0 P3 3.472999 1_554
K0 P0 3.472999 1_544
K1 P2 3.384187 1_455
K1 P1 3.384187 1_555
K1 P0 3.395444 1_555
K1 P3 3.395444 1_455
K1 P3 3.465249 1_565
K1 P0 3.465249 1_445
K1 P2 3.472999 1_456
K1 P1 3.472999 1_556
Be0 P0 2.228248 1_555
Be0 P3 2.228248 1_555
Be0 P1 2.228249 1_555
Be0 P2 2.228249 1_555
Be1 P0 2.280312 1_554
Be1 P3 2.280312 1_554
Be1 P1 2.280313 1_555
Be1 P2 2.280313 1_555
Be2 P1 2.281348 1_555
Be2 P2 2.281348 1_445
Be2 P3 2.281349 1_555
Be2 P0 2.281349 1_445
P0 Ti0 2.332228 1_666
P1 Ti0 2.332227 1_555
P2 Ti0 2.332227 1_665
P3 Ti0 2.332228 1_556
