# generated using pymatgen
data_Sr10MnTcN10
_symmetry_space_group_name_H-M   'P 1'
_cell_length_a   7.60537489
_cell_length_b   7.60537433
_cell_length_c   8.95123031
_cell_angle_alpha   76.42472368
_cell_angle_beta   76.42472837
_cell_angle_gamma   96.80508352
_symmetry_Int_Tables_number   1
_chemical_formula_structural   Sr10MnTcN10
_chemical_formula_sum   'Sr10 Mn1 Tc1 N10'
_cell_volume   480.90277133
_cell_formula_units_Z   1
loop_
 _symmetry_equiv_pos_site_id
 _symmetry_equiv_pos_as_xyz
  1  'x, y, z'
loop_
 _atom_site_type_symbol
 _atom_site_label
 _atom_site_symmetry_multiplicity
 _atom_site_fract_x
 _atom_site_fract_y
 _atom_site_fract_z
 _atom_site_occupancy
  Sr  Sr0  1  0.38688554  0.39413935  0.38672356  1
  Sr  Sr1  1  0.60586065  0.61311446  0.61327644  1
  Sr  Sr2  1  0.66532654  0.66725375  0.01029865  1
  Sr  Sr3  1  0.33274625  0.33467346  0.98970135  1
  Sr  Sr4  1  0.93251496  0.91717196  0.19996326  1
  Sr  Sr5  1  0.08282804  0.06748504  0.80003674  1
  Sr  Sr6  1  0.54911766  0.08944695  0.75461182  1
  Sr  Sr7  1  0.91055305  0.45088234  0.24538818  1
  Sr  Sr8  1  0.43238361  0.89355287  0.24466910  1
  Sr  Sr9  1  0.10644713  0.56761639  0.75533090  1
  Mn  Mn0  1  0.24417444  0.75582556  0.00000000  1
  Tc  Tc0  1  0.75639795  0.24360205  0.00000000  1
  N  N0  1  0.65806213  0.65813241  0.31396559  1
  N  N1  1  0.34186759  0.34193787  0.68603441  1
  N  N2  1  0.71675588  0.01258221  0.98135362  1
  N  N3  1  0.98741779  0.28324412  0.01864638  1
  N  N4  1  0.28082624  0.98695531  0.01305594  1
  N  N5  1  0.01304469  0.71917376  0.98694406  1
  N  N6  1  0.39975527  0.73138603  0.82754755  1
  N  N7  1  0.26861397  0.60024473  0.17245145  1
  N  N8  1  0.59325560  0.26483400  0.17471839  1
  N  N9  1  0.73516600  0.40674440  0.82528061  1
loop_
_geom_bond_atom_site_label_1
_geom_bond_atom_site_label_2
_geom_bond_distance
_geom_bond_site_symmetry_2
Mn0 N7 1.773937 1_555
Mn0 N6 1.773944 1_554
Mn0 N4 1.782395 1_555
Mn0 N5 1.782395 1_554
N0 Sr4 2.522155 1_555
N0 Sr0 2.546186 1_555
N0 Sr1 2.547702 1_555
N0 Sr7 2.677111 1_555
N0 Sr2 2.690076 1_555
N0 Sr8 2.691307 1_555
N1 Sr5 2.522155 1_555
N1 Sr1 2.546186 1_555
N1 Sr0 2.547702 1_555
N1 Sr6 2.677111 1_555
N1 Sr3 2.690076 1_555
N1 Sr9 2.691307 1_555
N2 Tc0 1.800426 1_556
N2 Sr2 2.550957 1_546
N2 Sr6 2.630779 1_555
N2 Sr8 2.682120 1_546
N2 Sr5 2.800878 1_655
N2 Sr4 2.858556 1_546
N3 Tc0 1.800426 1_555
N3 Sr3 2.550957 1_654
N3 Sr7 2.630779 1_555
N3 Sr9 2.682120 1_654
N3 Sr4 2.800877 1_545
N3 Sr5 2.858556 1_654
N4 Sr3 2.578254 1_564
N4 Sr6 2.585234 1_564
N4 Sr8 2.599226 1_555
N4 Sr4 2.695846 1_455
N4 Sr5 2.701256 1_564
N5 Sr2 2.578254 1_456
N5 Sr7 2.585234 1_456
N5 Sr9 2.599226 1_555
N5 Sr5 2.695846 1_565
N5 Sr4 2.701256 1_456
N6 Sr1 2.584094 1_555
N6 Sr6 2.686358 1_565
N6 Sr9 2.709573 1_555
N6 Sr2 2.898849 1_556
N6 Sr3 2.949947 1_555
N7 Sr0 2.584100 1_555
N7 Sr7 2.686358 1_455
N7 Sr8 2.709578 1_555
N7 Sr3 2.898843 1_554
N7 Sr2 2.949945 1_555
N8 Tc0 1.807365 1_555
N8 Sr0 2.622105 1_555
N8 Sr8 2.802512 1_545
N8 Sr3 2.885677 1_554
N8 Sr7 2.924599 1_555
N8 Sr2 2.990430 1_555
N9 Tc0 1.807371 1_556
N9 Sr1 2.622099 1_555
N9 Sr9 2.802513 1_655
N9 Sr2 2.885683 1_556
N9 Sr6 2.924594 1_555
N9 Sr3 2.990432 1_555
