# generated using pymatgen
data_Hf16ZrPt7O4
_symmetry_space_group_name_H-M   'P 1'
_cell_length_a   8.82835986
_cell_length_b   8.75804437
_cell_length_c   8.75804457
_cell_angle_alpha   60.00000664
_cell_angle_beta   60.26312980
_cell_angle_gamma   60.26312464
_symmetry_Int_Tables_number   1
_chemical_formula_structural   Hf16ZrPt7O4
_chemical_formula_sum   'Hf16 Zr1 Pt7 O4'
_cell_volume   480.72333533
_cell_formula_units_Z   1
loop_
 _symmetry_equiv_pos_site_id
 _symmetry_equiv_pos_as_xyz
  1  'x, y, z'
loop_
 _atom_site_type_symbol
 _atom_site_label
 _atom_site_symmetry_multiplicity
 _atom_site_fract_x
 _atom_site_fract_y
 _atom_site_fract_z
 _atom_site_occupancy
  Hf  Hf0  1  0.14054661  0.61981746  0.61981746  1
  Hf  Hf1  1  0.63083904  0.09229997  0.63843049  1
  Hf  Hf2  1  0.63083904  0.63843049  0.09229997  1
  Hf  Hf3  1  0.63083904  0.63843049  0.63843049  1
  Hf  Hf4  1  0.81320173  0.80585118  0.19047404  1
  Hf  Hf5  1  0.18541482  0.19071661  0.81193479  1
  Hf  Hf6  1  0.81320173  0.19047404  0.80585118  1
  Hf  Hf7  1  0.18541482  0.81193479  0.19071661  1
  Hf  Hf8  1  0.18541482  0.81193479  0.81193479  1
  Hf  Hf9  1  0.81320173  0.19047404  0.19047404  1
  Hf  Hf10  1  0.43061290  0.43538407  0.06700151  1
  Hf  Hf11  1  0.05433116  0.07556373  0.43505256  1
  Hf  Hf12  1  0.43061290  0.06700151  0.43538407  1
  Hf  Hf13  1  0.05433116  0.43505256  0.07556373  1
  Hf  Hf14  1  0.05433116  0.43505256  0.43505256  1
  Hf  Hf15  1  0.43061290  0.06700151  0.06700151  1
  Zr  Zr0  1  0.73319488  0.42226804  0.42226804  1
  Pt  Pt0  1  0.41867102  0.78142692  0.39995103  1
  Pt  Pt1  1  0.41867102  0.39995103  0.78142692  1
  Pt  Pt2  1  0.41867102  0.39995103  0.39995103  1
  Pt  Pt3  1  0.43958411  0.85347196  0.85347196  1
  Pt  Pt4  1  0.86099111  0.45900425  0.84000182  1
  Pt  Pt5  1  0.86099111  0.84000182  0.45900425  1
  Pt  Pt6  1  0.86099111  0.84000182  0.84000182  1
  O  O0  1  0.61769188  0.12743604  0.12743604  1
  O  O1  1  0.12893374  0.62535622  0.12285502  1
  O  O2  1  0.12893374  0.12285502  0.62535622  1
  O  O3  1  0.12893374  0.12285502  0.12285502  1
loop_
_geom_bond_atom_site_label_1
_geom_bond_atom_site_label_2
_geom_bond_distance
_geom_bond_site_symmetry_2
Hf0 Pt2 2.787805 1_555
Hf0 Pt1 2.787810 1_555
Hf0 Pt0 2.787810 1_555
Hf0 Pt5 2.793626 1_455
Hf0 Pt6 2.793627 1_455
Hf0 Pt4 2.793627 1_455
Hf1 Pt3 2.680036 1_545
Hf1 Pt6 2.707615 1_545
Hf1 Pt5 2.707620 1_545
Hf1 Zr0 2.859106 1_555
Hf1 Pt1 2.894374 1_555
Hf1 Pt2 2.894374 1_555
Hf2 Pt3 2.680036 1_554
Hf2 Pt6 2.707615 1_554
Hf2 Pt4 2.707620 1_554
Hf2 Zr0 2.859106 1_555
Hf2 Pt0 2.894374 1_555
Hf2 Pt2 2.894374 1_555
Hf3 Pt3 2.680036 1_555
Hf3 Pt4 2.707614 1_555
Hf3 Pt5 2.707614 1_555
Hf3 Zr0 2.859113 1_555
Hf3 Pt0 2.894374 1_555
Hf3 Pt1 2.894374 1_555
Hf4 O1 2.355116 1_655
Hf4 O0 2.405043 1_565
Hf4 Pt5 2.758864 1_555
Hf4 Pt6 2.758882 1_554
Hf4 Pt0 3.090433 1_555
Hf4 Zr0 3.165045 1_555
Hf5 O3 2.312031 1_556
Hf5 O2 2.312039 1_555
Hf5 Pt4 2.643409 1_455
Hf5 Pt3 2.655506 1_545
Hf5 Pt1 3.221498 1_555
Hf5 Pt2 3.221503 1_555
Hf6 O2 2.355116 1_655
Hf6 O0 2.405043 1_556
Hf6 Pt4 2.758864 1_555
Hf6 Pt6 2.758882 1_545
Hf6 Pt1 3.090433 1_555
Hf6 Zr0 3.165045 1_555
Hf7 O3 2.312030 1_565
Hf7 O1 2.312039 1_555
Hf7 Pt5 2.643409 1_455
Hf7 Pt3 2.655506 1_554
Hf7 Pt0 3.221498 1_555
Hf7 Pt2 3.221503 1_555
Hf8 O2 2.312033 1_565
Hf8 O1 2.312033 1_556
Hf8 Pt6 2.643416 1_455
Hf8 Pt3 2.655500 1_555
Hf8 Pt1 3.221506 1_555
Hf8 Pt0 3.221506 1_555
Hf9 O3 2.355114 1_655
Hf9 O0 2.405049 1_555
Hf9 Pt5 2.758875 1_545
Hf9 Pt4 2.758875 1_554
Hf9 Pt2 3.090430 1_555
Hf9 Zr0 3.165030 1_555
Hf10 O1 2.286114 1_555
Hf10 O0 2.302747 1_555
Hf10 Pt1 2.726348 1_554
Hf10 Pt2 2.726348 1_555
Hf10 Pt3 3.194408 1_554
Hf11 O2 2.330893 1_555
Hf11 O3 2.330893 1_555
Hf11 Pt0 2.944086 1_545
Hf11 Zr0 2.950463 1_455
Hf12 O2 2.286114 1_555
Hf12 O0 2.302747 1_555
Hf12 Pt0 2.726348 1_545
Hf12 Pt2 2.726348 1_555
Hf12 Pt3 3.194408 1_545
Hf13 O1 2.330893 1_555
Hf13 O3 2.330893 1_555
Hf13 Pt1 2.944087 1_554
Hf13 Zr0 2.950464 1_455
Hf14 O2 2.330893 1_555
Hf14 O1 2.330893 1_555
Hf14 Pt2 2.944086 1_555
Hf14 Zr0 2.950468 1_455
Hf15 O3 2.286114 1_555
Hf15 O0 2.302747 1_555
Hf15 Pt1 2.726348 1_554
Hf15 Pt0 2.726348 1_545
Hf15 Pt3 3.194408 1_544
Pt0 Zr0 2.983565 1_555
Pt1 Zr0 2.983566 1_555
Pt2 Zr0 2.983560 1_555
