# generated using pymatgen
data_MnZn(S2O7)2
_symmetry_space_group_name_H-M   'P 1'
_cell_length_a   4.91799113
_cell_length_b   7.16411097
_cell_length_c   8.18688407
_cell_angle_alpha   92.76256297
_cell_angle_beta   93.67537841
_cell_angle_gamma   107.58091569
_symmetry_Int_Tables_number   1
_chemical_formula_structural   MnZn(S2O7)2
_chemical_formula_sum   'Mn1 Zn1 S4 O14'
_cell_volume   273.71731553
_cell_formula_units_Z   1
loop_
 _symmetry_equiv_pos_site_id
 _symmetry_equiv_pos_as_xyz
  1  'x, y, z'
loop_
 _atom_site_type_symbol
 _atom_site_label
 _atom_site_symmetry_multiplicity
 _atom_site_fract_x
 _atom_site_fract_y
 _atom_site_fract_z
 _atom_site_occupancy
  Mn  Mn0  1  0.50000000  0.00000000  0.50000000  1
  Zn  Zn0  1  0.00000000  0.50000000  0.00000000  1
  S  S0  1  0.52988997  0.64521995  0.77315108  1
  S  S1  1  0.47011003  0.35478005  0.22684892  1
  S  S2  1  0.13938541  0.25538297  0.69344293  1
  S  S3  1  0.86061459  0.74461703  0.30655707  1
  O  O0  1  0.77043167  0.57245871  0.80393509  1
  O  O1  1  0.22956833  0.42754129  0.19606491  1
  O  O2  1  0.38189978  0.66742830  0.91605822  1
  O  O3  1  0.61810022  0.33257170  0.08394178  1
  O  O4  1  0.59342173  0.81114550  0.67498050  1
  O  O5  1  0.40657827  0.18885450  0.32501950  1
  O  O6  1  0.29968069  0.47968485  0.64763011  1
  O  O7  1  0.70031931  0.52031515  0.35236989  1
  O  O8  1  0.91948321  0.19621037  0.56010381  1
  O  O9  1  0.08051679  0.80378963  0.43989619  1
  O  O10  1  0.35027205  0.15289808  0.69054507  1
  O  O11  1  0.64972795  0.84710192  0.30945493  1
  O  O12  1  0.03933938  0.26910518  0.85432762  1
  O  O13  1  0.96066062  0.73089482  0.14567238  1
loop_
_geom_bond_atom_site_label_1
_geom_bond_atom_site_label_2
_geom_bond_distance
_geom_bond_site_symmetry_2
Mn0 O8 2.127297 1_555
Mn0 O9 2.127297 1_545
Mn0 O5 2.138174 1_555
Mn0 O4 2.138174 1_545
Mn0 O10 2.155322 1_555
Mn0 O11 2.155322 1_545
O0 S0 1.442792 1_555
O0 Zn0 2.079113 1_656
O1 S1 1.442792 1_555
O1 Zn0 2.079113 1_555
O2 S0 1.443962 1_555
O2 Zn0 2.079078 1_556
O3 S1 1.443962 1_555
O3 Zn0 2.079078 1_655
O4 S0 1.434058 1_555
O5 S1 1.434058 1_555
O6 S0 1.632932 1_555
O6 S2 1.635565 1_555
O7 S1 1.632932 1_555
O7 S3 1.635565 1_555
O8 S2 1.438067 1_655
O9 S3 1.438067 1_455
O10 S2 1.441103 1_555
O11 S3 1.441103 1_555
O12 S2 1.444454 1_555
O12 Zn0 2.056384 1_556
O13 S3 1.444454 1_555
O13 Zn0 2.056384 1_655
