# generated using pymatgen
data_K2RbLiSn4
_symmetry_space_group_name_H-M   'P 1'
_cell_length_a   8.62188920
_cell_length_b   8.62188811
_cell_length_c   10.32108903
_cell_angle_alpha   90.00000000
_cell_angle_beta   90.00000000
_cell_angle_gamma   131.64102563
_symmetry_Int_Tables_number   1
_chemical_formula_structural   K2RbLiSn4
_chemical_formula_sum   'K4 Rb2 Li2 Sn8'
_cell_volume   573.37454194
_cell_formula_units_Z   2
loop_
 _symmetry_equiv_pos_site_id
 _symmetry_equiv_pos_as_xyz
  1  'x, y, z'
loop_
 _atom_site_type_symbol
 _atom_site_label
 _atom_site_symmetry_multiplicity
 _atom_site_fract_x
 _atom_site_fract_y
 _atom_site_fract_z
 _atom_site_occupancy
  K  K0  1  0.61191037  0.38808963  0.03988576  1
  K  K1  1  0.38808963  0.61191037  0.96011424  1
  K  K2  1  0.38808963  0.61191037  0.53988576  1
  K  K3  1  0.61191037  0.38808963  0.46011424  1
  Rb  Rb0  1  0.22113647  0.77886353  0.25000000  1
  Rb  Rb1  1  0.77886353  0.22113647  0.75000000  1
  Li  Li0  1  0.00000000  0.00000000  0.00000000  1
  Li  Li1  1  0.00000000  0.00000000  0.50000000  1
  Sn  Sn0  1  0.17915318  0.24777252  0.25000000  1
  Sn  Sn1  1  0.82084682  0.75222748  0.75000000  1
  Sn  Sn2  1  0.75222748  0.82084682  0.25000000  1
  Sn  Sn3  1  0.24777252  0.17915318  0.75000000  1
  Sn  Sn4  1  0.83192426  0.16807574  0.10982483  1
  Sn  Sn5  1  0.16807574  0.83192426  0.89017517  1
  Sn  Sn6  1  0.16807574  0.83192426  0.60982483  1
  Sn  Sn7  1  0.83192426  0.16807574  0.39017517  1
loop_
_geom_bond_atom_site_label_1
_geom_bond_atom_site_label_2
_geom_bond_distance
_geom_bond_site_symmetry_2
K0 Sn4 3.535497 1_555
K0 K1 3.615890 1_554
K0 Sn2 3.753595 1_555
K0 Sn0 3.753595 1_555
K0 Sn1 3.812830 1_554
K0 Sn3 3.812830 1_554
K0 Sn5 3.954701 1_544
K0 Sn5 3.954701 1_654
K0 Li0 3.967382 1_665
K0 Li0 3.967383 1_555
K0 Rb1 3.981116 1_554
K0 K3 4.337216 1_555
K0 Rb0 4.486270 1_545
K0 Rb0 4.486271 1_655
K1 Sn5 3.535497 1_555
K1 Sn3 3.753595 1_555
K1 Sn1 3.753595 1_555
K1 Sn0 3.812830 1_556
K1 Sn2 3.812830 1_556
K1 Sn4 3.954701 1_566
K1 Sn4 3.954701 1_456
K1 Li0 3.967382 1_556
K1 Li0 3.967383 1_666
K1 Rb0 3.981116 1_556
K1 K2 4.337216 1_555
K1 Rb1 4.486270 1_565
K1 Rb1 4.486271 1_455
K2 Sn6 3.535497 1_555
K2 K3 3.615890 1_555
K2 Sn3 3.753595 1_555
K2 Sn1 3.753595 1_555
K2 Sn0 3.812830 1_555
K2 Sn2 3.812830 1_555
K2 Sn7 3.954701 1_565
K2 Sn7 3.954701 1_455
K2 Li1 3.967382 1_555
K2 Li1 3.967383 1_665
K2 Rb0 3.981116 1_555
K2 Rb1 4.486270 1_565
K2 Rb1 4.486271 1_455
K3 Sn7 3.535497 1_555
K3 Sn2 3.753595 1_555
K3 Sn0 3.753595 1_555
K3 Sn1 3.812830 1_555
K3 Sn3 3.812830 1_555
K3 Sn6 3.954701 1_545
K3 Sn6 3.954701 1_655
K3 Li1 3.967382 1_665
K3 Li1 3.967383 1_555
K3 Rb1 3.981116 1_555
K3 Rb0 4.486270 1_545
K3 Rb0 4.486271 1_655
Rb0 Sn6 3.806430 1_555
Rb0 Sn5 3.806430 1_554
Rb0 Sn7 4.195462 1_455
Rb0 Sn4 4.195462 1_455
Rb0 Sn7 4.195463 1_565
Rb0 Sn4 4.195463 1_565
Rb1 Sn4 3.806430 1_556
Rb1 Sn7 3.806430 1_555
Rb1 Sn5 4.195462 1_655
Rb1 Sn6 4.195462 1_655
Rb1 Sn5 4.195463 1_545
Rb1 Sn6 4.195463 1_545
Li0 Sn4 2.876720 1_455
Li0 Sn5 2.876720 1_544
Li0 Sn0 3.036811 1_555
Li0 Sn1 3.036811 1_444
Li0 Sn3 3.036811 1_554
Li0 Sn2 3.036811 1_445
Li1 Sn6 2.876720 1_545
Li1 Sn7 2.876720 1_455
Li1 Sn0 3.036811 1_555
Li1 Sn1 3.036811 1_445
Li1 Sn3 3.036811 1_555
Li1 Sn2 3.036811 1_445
Sn0 Sn7 2.965495 1_455
Sn0 Sn4 2.965495 1_455
Sn0 Sn2 3.015372 1_445
Sn1 Sn5 2.965495 1_655
Sn1 Sn6 2.965495 1_655
Sn1 Sn3 3.015372 1_665
Sn2 Sn7 2.965495 1_565
Sn2 Sn4 2.965495 1_565
Sn3 Sn5 2.965495 1_545
Sn3 Sn6 2.965495 1_545
Sn4 Sn7 2.893521 1_555
Sn5 Sn6 2.893521 1_555
