# generated using pymatgen
data_Bi7Te4AuO24
_symmetry_space_group_name_H-M   'P 1'
_cell_length_a   5.42570655
_cell_length_b   9.35626128
_cell_length_c   10.14564754
_cell_angle_alpha   89.93792081
_cell_angle_beta   90.82028680
_cell_angle_gamma   91.05509585
_symmetry_Int_Tables_number   1
_chemical_formula_structural   Bi7Te4AuO24
_chemical_formula_sum   'Bi7 Te4 Au1 O24'
_cell_volume   514.89671011
_cell_formula_units_Z   1
loop_
 _symmetry_equiv_pos_site_id
 _symmetry_equiv_pos_as_xyz
  1  'x, y, z'
loop_
 _atom_site_type_symbol
 _atom_site_label
 _atom_site_symmetry_multiplicity
 _atom_site_fract_x
 _atom_site_fract_y
 _atom_site_fract_z
 _atom_site_occupancy
  Bi  Bi0  1  0.02518756  0.20686703  0.13584021  1
  Bi  Bi1  1  0.48362564  0.78645123  0.64136286  1
  Bi  Bi2  1  0.99359183  0.71151604  0.36874474  1
  Bi  Bi3  1  0.50684252  0.29470947  0.84463088  1
  Bi  Bi4  1  0.03108492  0.11991123  0.55575278  1
  Bi  Bi5  1  0.47876978  0.89540185  0.05288320  1
  Bi  Bi6  1  0.98230825  0.60279299  0.95197538  1
  Te  Te0  1  0.54434353  0.00461655  0.36151334  1
  Te  Te1  1  0.96153883  0.99627201  0.85845341  1
  Te  Te2  1  0.47143031  0.50454834  0.13971793  1
  Te  Te3  1  0.02046928  0.50023570  0.63652529  1
  Au  Au0  1  0.57465671  0.36123055  0.40032722  1
  O  O0  1  0.45031357  0.17047817  0.46796330  1
  O  O1  1  0.08109606  0.84916519  0.97283077  1
  O  O2  1  0.59827065  0.65525378  0.03573665  1
  O  O3  1  0.84548362  0.35218530  0.53519441  1
  O  O4  1  0.72789645  0.38855287  0.06621226  1
  O  O5  1  0.80289733  0.64583177  0.56640222  1
  O  O6  1  0.27409475  0.90378485  0.44519051  1
  O  O7  1  0.21953006  0.11798161  0.93671590  1
  O  O8  1  0.26865742  0.42042509  0.99946749  1
  O  O9  1  0.22701832  0.56655601  0.49597493  1
  O  O10  1  0.73970279  0.93602489  0.50960354  1
  O  O11  1  0.76503355  0.07428991  0.00146034  1
  O  O12  1  0.20548484  0.62953881  0.17849844  1
  O  O13  1  0.22670429  0.33979900  0.68195691  1
  O  O14  1  0.82992136  0.11695216  0.31409731  1
  O  O15  1  0.69682407  0.85967474  0.82241089  1
  O  O16  1  0.34003328  0.05239769  0.21118819  1
  O  O17  1  0.16907586  0.95789813  0.71275896  1
  O  O18  1  0.67556940  0.53943976  0.30050182  1
  O  O19  1  0.79290699  0.47306071  0.78168272  1
  O  O20  1  0.33137646  0.35790728  0.25415124  1
  O  O21  1  0.19998925  0.62366066  0.75590541  1
  O  O22  1  0.64573927  0.84730625  0.25858042  1
  O  O23  1  0.81253419  0.13728233  0.74778112  1
loop_
_geom_bond_atom_site_label_1
_geom_bond_atom_site_label_2
_geom_bond_distance
_geom_bond_site_symmetry_2
Bi0 O14 2.262679 1_455
Bi0 O11 2.296499 1_455
Bi0 O16 2.375383 1_555
Bi0 O7 2.445770 1_554
Bi0 O4 2.460947 1_455
Bi0 O20 2.461277 1_555
Bi0 O8 2.756975 1_554
Bi1 O15 2.257023 1_555
Bi1 O5 2.331092 1_555
Bi1 O10 2.377688 1_555
Bi1 O21 2.449431 1_555
Bi1 O17 2.479767 1_555
Bi1 O6 2.536795 1_555
Bi2 O9 2.263282 1_655
Bi2 O5 2.345845 1_555
Bi2 O12 2.394747 1_655
Bi2 O18 2.432012 1_555
Bi2 O6 2.454038 1_655
Bi2 O22 2.539739 1_555
Bi3 O13 2.272097 1_555
Bi3 O19 2.352051 1_555
Bi3 O8 2.374764 1_555
Bi3 O7 2.445498 1_555
Bi3 O23 2.454737 1_555
Bi3 O4 2.674249 1_556
Bi4 O23 2.302637 1_455
Bi4 O17 2.323392 1_545
Bi4 O10 2.357774 1_445
Bi4 O3 2.419517 1_455
Bi4 O0 2.491681 1_555
Bi4 O13 2.623923 1_555
Bi4 O14 2.669370 1_455
Bi4 O6 2.689088 1_545
Bi5 O22 2.310266 1_555
Bi5 O16 2.320410 1_565
Bi5 O11 2.326261 1_565
Bi5 O1 2.327767 1_554
Bi5 O2 2.357306 1_555
Bi5 O15 2.659799 1_554
Bi5 O7 2.785578 1_564
Bi6 O2 2.322515 1_556
Bi6 O19 2.328559 1_555
Bi6 O21 2.334124 1_655
Bi6 O1 2.366001 1_655
Bi6 O8 2.373141 1_655
Bi6 O12 2.592511 1_656
Bi6 O4 2.684314 1_556
Au0 O20 1.971105 1_555
Au0 O3 1.996353 1_555
Au0 O0 2.019296 1_555
Au0 O18 2.020955 1_555
O0 Te0 1.970654 1_555
O1 Te1 1.915634 1_455
O2 Te2 1.885893 1_555
O3 Te3 1.950334 1_655
O4 Te2 1.938398 1_555
O5 Te3 1.946394 1_655
O6 Te0 1.934870 1_565
O7 Te1 1.948858 1_445
O8 Te2 1.944312 1_556
O9 Te3 1.921608 1_555
O10 Te0 1.941690 1_565
O11 Te1 1.962124 1_544
O12 Te2 1.919344 1_555
O13 Te3 1.939951 1_555
O14 Te0 1.922814 1_555
O15 Te1 1.936061 1_555
O16 Te0 1.929540 1_555
O17 Te1 1.909327 1_455
O18 Te2 1.982536 1_555
O19 Te3 1.948764 1_655
O20 Te2 1.947097 1_555
O21 Te3 1.917572 1_555
O22 Te0 1.899781 1_565
O23 Te1 1.914441 1_545
