# generated using pymatgen
data_Rb5SrNbAs4
_symmetry_space_group_name_H-M   'P 1'
_cell_length_a   10.75515450
_cell_length_b   10.75515540
_cell_length_c   8.10056734
_cell_angle_alpha   87.96757869
_cell_angle_beta   87.96757492
_cell_angle_gamma   120.66554936
_symmetry_Int_Tables_number   1
_chemical_formula_structural   Rb5SrNbAs4
_chemical_formula_sum   'Rb10 Sr2 Nb2 As8'
_cell_volume   803.91448698
_cell_formula_units_Z   2
loop_
 _symmetry_equiv_pos_site_id
 _symmetry_equiv_pos_as_xyz
  1  'x, y, z'
loop_
 _atom_site_type_symbol
 _atom_site_label
 _atom_site_symmetry_multiplicity
 _atom_site_fract_x
 _atom_site_fract_y
 _atom_site_fract_z
 _atom_site_occupancy
  Rb  Rb0  1  0.46724671  0.52450645  0.60397137  1
  Rb  Rb1  1  0.05776672  0.52731302  0.60686235  1
  Rb  Rb2  1  0.52450645  0.46724671  0.10397137  1
  Rb  Rb3  1  0.52731302  0.05776672  0.10686235  1
  Rb  Rb4  1  0.86458424  0.14132928  0.79187807  1
  Rb  Rb5  1  0.29754564  0.15482044  0.83970505  1
  Rb  Rb6  1  0.85611531  0.71916994  0.76187579  1
  Rb  Rb7  1  0.14132928  0.86458424  0.29187807  1
  Rb  Rb8  1  0.71916994  0.85611531  0.26187579  1
  Rb  Rb9  1  0.15482044  0.29754564  0.33970505  1
  Sr  Sr0  1  0.46334803  0.93470471  0.59987127  1
  Sr  Sr1  1  0.93470471  0.46334803  0.09987127  1
  Nb  Nb0  1  0.67098868  0.32803147  0.50025644  1
  Nb  Nb1  1  0.32803147  0.67098868  0.00025644  1
  As  As0  1  0.69070874  0.34246544  0.80726829  1
  As  As1  1  0.34246544  0.69070874  0.30726829  1
  As  As2  1  0.19545237  0.79009106  0.89223459  1
  As  As3  1  0.57935429  0.79903556  0.86670910  1
  As  As4  1  0.18688993  0.40853297  0.93656868  1
  As  As5  1  0.79009106  0.19545237  0.39223459  1
  As  As6  1  0.40853297  0.18688993  0.43656868  1
  As  As7  1  0.79903556  0.57935429  0.36670910  1
loop_
_geom_bond_atom_site_label_1
_geom_bond_atom_site_label_2
_geom_bond_distance
_geom_bond_site_symmetry_2
As0 Nb0 2.507053 1_555
As0 Sr1 3.372604 1_556
As0 Rb3 3.469191 1_556
As0 Rb6 3.494367 1_555
As0 Rb4 3.510189 1_555
As0 Rb2 3.625476 1_556
As0 Rb5 3.633330 1_555
As0 Rb1 3.671975 1_655
As1 Nb1 2.507053 1_555
As1 Sr0 3.372604 1_555
As1 Rb1 3.469191 1_555
As1 Rb8 3.494367 1_555
As1 Rb7 3.510189 1_555
As1 Rb0 3.625476 1_555
As1 Rb9 3.633331 1_555
As1 Rb3 3.671975 1_565
As2 Nb1 2.512357 1_556
As2 Sr0 3.318606 1_555
As2 Rb1 3.458521 1_555
As2 Rb7 3.462244 1_556
As2 Rb5 3.497043 1_565
As2 Sr1 3.498070 1_456
As2 Rb6 3.536596 1_455
As2 Rb3 3.789962 1_566
As3 Nb1 2.502591 1_556
As3 Sr0 3.191021 1_555
As3 Rb4 3.394252 1_565
As3 Rb0 3.420196 1_555
As3 Rb8 3.524789 1_556
As3 Rb6 3.577666 1_555
As3 Rb3 3.706296 1_566
As3 Rb2 3.749876 1_556
As4 Nb1 2.515233 1_556
As4 Sr1 3.299379 1_456
As4 Rb9 3.381102 1_556
As4 Rb4 3.466159 1_455
As4 Rb1 3.539008 1_555
As4 Rb5 3.588343 1_555
As4 Rb0 3.640819 1_555
As4 Rb2 3.673381 1_556
As5 Nb0 2.512357 1_555
As5 Sr1 3.318607 1_555
As5 Rb3 3.458521 1_555
As5 Rb4 3.462244 1_555
As5 Rb9 3.497043 1_655
As5 Sr0 3.498069 1_545
As5 Rb8 3.536596 1_545
As5 Rb1 3.789962 1_655
As6 Nb0 2.515233 1_555
As6 Sr0 3.299380 1_545
As6 Rb5 3.381102 1_555
As6 Rb7 3.466159 1_545
As6 Rb3 3.539008 1_555
As6 Rb9 3.588343 1_555
As6 Rb2 3.640819 1_555
As6 Rb0 3.673381 1_555
As7 Nb0 2.502592 1_555
As7 Sr1 3.191021 1_555
As7 Rb7 3.394252 1_655
As7 Rb2 3.420196 1_555
As7 Rb6 3.524789 1_555
As7 Rb8 3.577666 1_555
As7 Rb1 3.706296 1_655
As7 Rb0 3.749875 1_555
