# generated using pymatgen
data_LiGa2AgSe4
_symmetry_space_group_name_H-M   'P 1'
_cell_length_a   6.88592047
_cell_length_b   6.88592067
_cell_length_c   6.88592111
_cell_angle_alpha   128.85953224
_cell_angle_beta   128.85953440
_cell_angle_gamma   75.23669502
_symmetry_Int_Tables_number   1
_chemical_formula_structural   LiGa2AgSe4
_chemical_formula_sum   'Li1 Ga2 Ag1 Se4'
_cell_volume   192.71712631
_cell_formula_units_Z   1
loop_
 _symmetry_equiv_pos_site_id
 _symmetry_equiv_pos_as_xyz
  1  'x, y, z'
loop_
 _atom_site_type_symbol
 _atom_site_label
 _atom_site_symmetry_multiplicity
 _atom_site_fract_x
 _atom_site_fract_y
 _atom_site_fract_z
 _atom_site_occupancy
  Li  Li0  1  0.75000000  0.25000000  0.50000000  1
  Ga  Ga0  1  0.50000000  0.50000000  0.00000000  1
  Ga  Ga1  1  0.25000000  0.75000000  0.50000000  1
  Ag  Ag0  1  0.00000000  0.00000000  0.00000000  1
  Se  Se0  1  0.87204282  0.85314302  0.46757922  1
  Se  Se1  1  0.14685698  0.61443620  0.01889980  1
  Se  Se2  1  0.38556380  0.40446360  0.53242078  1
  Se  Se3  1  0.59553640  0.12795718  0.98110020  1
loop_
_geom_bond_atom_site_label_1
_geom_bond_atom_site_label_2
_geom_bond_distance
_geom_bond_site_symmetry_2
Li0 Se2 2.554079 1_555
Li0 Se0 2.554079 1_545
Li0 Se1 2.554079 1_656
Li0 Se3 2.554079 1_554
Ga0 Se1 2.417220 1_555
Ga0 Se3 2.417220 1_554
Ga0 Se0 2.417220 1_555
Ga0 Se2 2.417221 1_554
Ga1 Se0 2.419820 1_455
Ga1 Se2 2.419820 1_555
Ga1 Se3 2.419820 1_565
Ga1 Se1 2.419821 1_555
Ag0 Se3 2.643573 1_454
Ag0 Se1 2.643573 1_545
Ag0 Se2 2.643573 1_555
Ag0 Se0 2.643574 1_444
