# generated using pymatgen
data_SrY6CoI12
_symmetry_space_group_name_H-M   'P 1'
_cell_length_a   9.72500314
_cell_length_b   9.72500131
_cell_length_c   9.72500199
_cell_angle_alpha   106.39197227
_cell_angle_beta   106.39196518
_cell_angle_gamma   106.39196163
_symmetry_Int_Tables_number   1
_chemical_formula_structural   SrY6CoI12
_chemical_formula_sum   'Sr1 Y6 Co1 I12'
_cell_volume   778.33086566
_cell_formula_units_Z   1
loop_
 _symmetry_equiv_pos_site_id
 _symmetry_equiv_pos_as_xyz
  1  'x, y, z'
loop_
 _atom_site_type_symbol
 _atom_site_label
 _atom_site_symmetry_multiplicity
 _atom_site_fract_x
 _atom_site_fract_y
 _atom_site_fract_z
 _atom_site_occupancy
  Sr  Sr0  1  0.50000000  0.50000000  0.50000000  1
  Y  Y0  1  0.71045149  0.98192368  0.91010429  1
  Y  Y1  1  0.98192368  0.91010429  0.71045149  1
  Y  Y2  1  0.08989571  0.28954851  0.01807632  1
  Y  Y3  1  0.28954851  0.01807632  0.08989571  1
  Y  Y4  1  0.91010429  0.71045149  0.98192368  1
  Y  Y5  1  0.01807632  0.08989571  0.28954851  1
  Co  Co0  1  0.00000000  0.00000000  0.00000000  1
  I  I0  1  0.07362422  0.22650999  0.67599423  1
  I  I1  1  0.36771802  0.13328254  0.44767364  1
  I  I2  1  0.63228198  0.86671746  0.55232636  1
  I  I3  1  0.22650999  0.67599423  0.07362422  1
  I  I4  1  0.77349001  0.32400577  0.92637578  1
  I  I5  1  0.67599423  0.07362422  0.22650999  1
  I  I6  1  0.55232636  0.63228198  0.86671746  1
  I  I7  1  0.86671746  0.55232636  0.63228198  1
  I  I8  1  0.92637578  0.77349001  0.32400577  1
  I  I9  1  0.32400577  0.92637578  0.77349001  1
  I  I10  1  0.44767364  0.36771802  0.13328254  1
  I  I11  1  0.13328254  0.44767364  0.36771802  1
loop_
_geom_bond_atom_site_label_1
_geom_bond_atom_site_label_2
_geom_bond_distance
_geom_bond_site_symmetry_2
Co0 Y2 2.639829 1_555
Co0 Y4 2.639829 1_444
Co0 Y5 2.639829 1_555
Co0 Y1 2.639829 1_444
Co0 Y0 2.639829 1_444
Co0 Y3 2.639829 1_555
I0 Y1 3.094775 1_445
I0 Y2 3.156763 1_556
I0 Y5 3.436831 1_555
I1 Y3 3.124978 1_555
I1 Y5 3.158699 1_555
I1 Sr0 3.263331 1_555
I2 Y0 3.124978 1_555
I2 Y1 3.158699 1_555
I2 Sr0 3.263331 1_555
I3 Y4 3.094776 1_454
I3 Y3 3.156763 1_565
I3 Y2 3.436831 1_555
I4 Y2 3.094776 1_656
I4 Y0 3.156763 1_545
I4 Y4 3.436831 1_555
I5 Y0 3.094775 1_544
I5 Y5 3.156763 1_655
I5 Y3 3.436831 1_555
I6 Y4 3.124978 1_555
I6 Y0 3.158698 1_555
I6 Sr0 3.263331 1_555
I7 Y1 3.124978 1_555
I7 Y4 3.158698 1_555
I7 Sr0 3.263332 1_555
I8 Y5 3.094775 1_665
I8 Y4 3.156763 1_554
I8 Y1 3.436831 1_555
I9 Y3 3.094775 1_566
I9 Y1 3.156763 1_455
I9 Y0 3.436831 1_555
I10 Y2 3.124978 1_555
I10 Y3 3.158698 1_555
I10 Sr0 3.263331 1_555
I11 Y5 3.124978 1_555
I11 Y2 3.158698 1_555
I11 Sr0 3.263332 1_555
