# generated using pymatgen
data_Al2CoO4
_symmetry_space_group_name_H-M   'P 1'
_cell_length_a   5.71383308
_cell_length_b   5.71383331
_cell_length_c   5.71358827
_cell_angle_alpha   59.99858220
_cell_angle_beta   59.99858262
_cell_angle_gamma   60.00000135
_symmetry_Int_Tables_number   1
_chemical_formula_structural   Al2CoO4
_chemical_formula_sum   'Al4 Co2 O8'
_cell_volume   131.89846999
_cell_formula_units_Z   2
loop_
 _symmetry_equiv_pos_site_id
 _symmetry_equiv_pos_as_xyz
  1  'x, y, z'
loop_
 _atom_site_type_symbol
 _atom_site_label
 _atom_site_symmetry_multiplicity
 _atom_site_fract_x
 _atom_site_fract_y
 _atom_site_fract_z
 _atom_site_occupancy
  Al  Al0  1  0.12500000  0.62500000  0.62500000  1
  Al  Al1  1  0.62500000  0.62500000  0.12500000  1
  Al  Al2  1  0.62500000  0.12500000  0.62500000  1
  Al  Al3  1  0.62500000  0.62500000  0.62500000  1
  Co  Co0  1  0.00002802  0.00002802  -0.00008407  1
  Co  Co1  1  0.24997198  0.24997198  0.25008407  1
  O  O0  1  0.83169658  0.38944988  0.38940365  1
  O  O1  1  0.86055012  0.86055012  0.86059635  1
  O  O2  1  0.38944988  0.83169658  0.38940365  1
  O  O3  1  0.38943675  0.38943675  0.83169074  1
  O  O4  1  0.86056325  0.86056325  0.41830926  1
  O  O5  1  0.86055012  0.41830342  0.86059635  1
  O  O6  1  0.38944988  0.38944988  0.38940365  1
  O  O7  1  0.41830342  0.86055012  0.86059635  1
loop_
_geom_bond_atom_site_label_1
_geom_bond_atom_site_label_2
_geom_bond_distance
_geom_bond_site_symmetry_2
Al0 O3 1.910596 1_555
Al0 O4 1.910596 1_455
Al0 O5 1.910665 1_455
Al0 O2 1.910665 1_555
Al0 O1 1.910665 1_455
Al0 O6 1.910665 1_555
Al1 O7 1.910457 1_554
Al1 O0 1.910457 1_555
Al1 O6 1.910457 1_555
Al1 O1 1.910457 1_554
Al1 O2 1.910457 1_555
Al1 O5 1.910457 1_554
Al2 O4 1.910596 1_545
Al2 O3 1.910596 1_555
Al2 O0 1.910665 1_555
Al2 O7 1.910665 1_545
Al2 O6 1.910665 1_555
Al2 O1 1.910665 1_545
Al3 O4 1.910592 1_555
Al3 O3 1.910592 1_555
Al3 O5 1.910665 1_555
Al3 O2 1.910665 1_555
Al3 O7 1.910665 1_555
Al3 O0 1.910665 1_555
Co0 O1 1.951377 1_444
Co0 O7 1.951377 1_544
Co0 O5 1.951377 1_454
Co0 O4 1.951815 1_445
Co1 O6 1.951377 1_555
Co1 O0 1.951377 1_455
Co1 O2 1.951377 1_545
Co1 O3 1.951815 1_554
