# generated using pymatgen
data_MgTePtO6
_symmetry_space_group_name_H-M   'P 1'
_cell_length_a   5.12782082
_cell_length_b   5.12763299
_cell_length_c   8.95588619
_cell_angle_alpha   90.00023555
_cell_angle_beta   89.99951995
_cell_angle_gamma   119.99825635
_symmetry_Int_Tables_number   1
_chemical_formula_structural   MgTePtO6
_chemical_formula_sum   'Mg2 Te2 Pt2 O12'
_cell_volume   203.93727035
_cell_formula_units_Z   2
loop_
 _symmetry_equiv_pos_site_id
 _symmetry_equiv_pos_as_xyz
  1  'x, y, z'
loop_
 _atom_site_type_symbol
 _atom_site_label
 _atom_site_symmetry_multiplicity
 _atom_site_fract_x
 _atom_site_fract_y
 _atom_site_fract_z
 _atom_site_occupancy
  Mg  Mg0  1  0.99999900  0.99999900  0.00000000  1
  Mg  Mg1  1  0.00000000  0.00000000  0.50000000  1
  Te  Te0  1  0.66660998  0.33330131  0.25000016  1
  Te  Te1  1  0.33339102  0.66669969  0.74999984  1
  Pt  Pt0  1  0.33331346  0.66665925  0.25000329  1
  Pt  Pt1  1  0.66668754  0.33334175  0.74999671  1
  O  O0  1  0.35421850  0.01117112  0.13247407  1
  O  O1  1  0.65691212  0.64572574  0.13248965  1
  O  O2  1  0.98875438  0.34303988  0.13249333  1
  O  O3  1  0.98874647  0.64570941  0.36750462  1
  O  O4  1  0.65690672  0.01118215  0.36750674  1
  O  O5  1  0.35421936  0.34304825  0.36752640  1
  O  O6  1  0.64578064  0.65695175  0.63247460  1
  O  O7  1  0.34309428  0.98881785  0.63249326  1
  O  O8  1  0.01125253  0.35428959  0.63249638  1
  O  O9  1  0.01124462  0.65695912  0.86750567  1
  O  O10  1  0.34308988  0.35427526  0.86751035  1
  O  O11  1  0.64577950  0.98882788  0.86752593  1
loop_
_geom_bond_atom_site_label_1
_geom_bond_atom_site_label_2
_geom_bond_distance
_geom_bond_site_symmetry_2
Mg0 O0 2.146179 1_665
Mg0 O11 2.146181 1_554
Mg0 O2 2.146339 1_565
Mg0 O9 2.146342 1_654
Mg0 O1 2.146452 1_555
Mg0 O10 2.146467 1_664
Mg1 O5 2.146177 1_555
Mg1 O6 2.146182 1_445
Mg1 O3 2.146354 1_445
Mg1 O8 2.146357 1_555
Mg1 O4 2.146488 1_455
Mg1 O7 2.146492 1_545
O0 Te0 1.938155 1_555
O0 Pt0 2.012635 1_545
O1 Te0 1.938070 1_555
O1 Pt0 2.012632 1_555
O2 Te0 1.938104 1_555
O2 Pt0 2.012750 1_655
O3 Te0 1.938102 1_555
O3 Pt0 2.012702 1_655
O4 Te0 1.938026 1_555
O4 Pt0 2.012574 1_545
O5 Te0 1.938149 1_555
O5 Pt0 2.012626 1_555
O6 Te1 1.938142 1_555
O6 Pt1 2.012619 1_555
O7 Te1 1.938022 1_555
O7 Pt1 2.012577 1_565
O8 Te1 1.938106 1_555
O8 Pt1 2.012692 1_455
O9 Te1 1.938104 1_555
O9 Pt1 2.012737 1_455
O10 Te1 1.938072 1_555
O10 Pt1 2.012627 1_555
O11 Te1 1.938145 1_555
O11 Pt1 2.012637 1_565
