# generated using pymatgen
data_Sr9Mg38
_symmetry_space_group_name_H-M   'P 1'
_cell_length_a   10.51816467
_cell_length_b   10.51816467
_cell_length_c   27.90024700
_cell_angle_alpha   90.00000000
_cell_angle_beta   90.00000000
_cell_angle_gamma   120.00000422
_symmetry_Int_Tables_number   1
_chemical_formula_structural   Sr9Mg38
_chemical_formula_sum   'Sr18 Mg76'
_cell_volume   2673.12084708
_cell_formula_units_Z   2
loop_
 _symmetry_equiv_pos_site_id
 _symmetry_equiv_pos_as_xyz
  1  'x, y, z'
loop_
 _atom_site_type_symbol
 _atom_site_label
 _atom_site_symmetry_multiplicity
 _atom_site_fract_x
 _atom_site_fract_y
 _atom_site_fract_z
 _atom_site_occupancy
  Sr  Sr0  1  0.52276500  0.04553000  0.25000000  1
  Sr  Sr1  1  0.47723500  0.52276500  0.75000000  1
  Sr  Sr2  1  0.04553000  0.52276500  0.75000000  1
  Sr  Sr3  1  0.95447000  0.47723500  0.25000000  1
  Sr  Sr4  1  0.52276500  0.47723500  0.25000000  1
  Sr  Sr5  1  0.47723500  0.95447000  0.75000000  1
  Sr  Sr6  1  0.13876000  0.27751900  0.06275300  1
  Sr  Sr7  1  0.86124000  0.13876000  0.56275300  1
  Sr  Sr8  1  0.27751900  0.13876000  0.56275300  1
  Sr  Sr9  1  0.72248100  0.86124000  0.06275300  1
  Sr  Sr10  1  0.13876000  0.86124000  0.06275300  1
  Sr  Sr11  1  0.86124000  0.72248100  0.93724700  1
  Sr  Sr12  1  0.86124000  0.13876000  0.93724700  1
  Sr  Sr13  1  0.86124000  0.72248100  0.56275300  1
  Sr  Sr14  1  0.27751900  0.13876000  0.93724700  1
  Sr  Sr15  1  0.72248100  0.86124000  0.43724700  1
  Sr  Sr16  1  0.13876000  0.27751900  0.43724700  1
  Sr  Sr17  1  0.13876000  0.86124000  0.43724700  1
  Mg  Mg0  1  0.00000000  0.00000000  0.15738500  1
  Mg  Mg1  1  0.00000000  0.00000000  0.65738500  1
  Mg  Mg2  1  0.00000000  0.00000000  0.84261500  1
  Mg  Mg3  1  0.00000000  0.00000000  0.34261500  1
  Mg  Mg4  1  0.33333300  0.66666700  0.04200500  1
  Mg  Mg5  1  0.66666700  0.33333300  0.54200500  1
  Mg  Mg6  1  0.66666700  0.33333300  0.95799500  1
  Mg  Mg7  1  0.33333300  0.66666700  0.45799500  1
  Mg  Mg8  1  0.33333300  0.66666700  0.15701300  1
  Mg  Mg9  1  0.66666700  0.33333300  0.65701300  1
  Mg  Mg10  1  0.66666700  0.33333300  0.84298700  1
  Mg  Mg11  1  0.33333300  0.66666700  0.34298700  1
  Mg  Mg12  1  0.33333300  0.66666700  0.65071700  1
  Mg  Mg13  1  0.66666700  0.33333300  0.15071700  1
  Mg  Mg14  1  0.66666700  0.33333300  0.34928300  1
  Mg  Mg15  1  0.33333300  0.66666700  0.84928300  1
  Mg  Mg16  1  0.50000000  0.00000000  0.00000000  1
  Mg  Mg17  1  0.50000000  0.50000000  0.50000000  1
  Mg  Mg18  1  0.00000000  0.50000000  0.50000000  1
  Mg  Mg19  1  0.00000000  0.50000000  0.00000000  1
  Mg  Mg20  1  0.50000000  0.50000000  0.00000000  1
  Mg  Mg21  1  0.50000000  0.00000000  0.50000000  1
  Mg  Mg22  1  0.90176200  0.80352400  0.25000000  1
  Mg  Mg23  1  0.09823800  0.90176200  0.75000000  1
  Mg  Mg24  1  0.80352400  0.90176200  0.75000000  1
  Mg  Mg25  1  0.19647600  0.09823800  0.25000000  1
  Mg  Mg26  1  0.90176200  0.09823800  0.25000000  1
  Mg  Mg27  1  0.09823800  0.19647600  0.75000000  1
  Mg  Mg28  1  0.23402800  0.46805600  0.55486900  1
  Mg  Mg29  1  0.76597200  0.23402800  0.05486900  1
  Mg  Mg30  1  0.46805600  0.23402800  0.05486900  1
  Mg  Mg31  1  0.53194400  0.76597200  0.55486900  1
  Mg  Mg32  1  0.23402800  0.76597200  0.55486900  1
  Mg  Mg33  1  0.76597200  0.53194400  0.44513100  1
  Mg  Mg34  1  0.76597200  0.23402800  0.44513100  1
  Mg  Mg35  1  0.76597200  0.53194400  0.05486900  1
  Mg  Mg36  1  0.46805600  0.23402800  0.44513100  1
  Mg  Mg37  1  0.53194400  0.76597200  0.94513100  1
  Mg  Mg38  1  0.23402800  0.46805600  0.94513100  1
  Mg  Mg39  1  0.23402800  0.76597200  0.94513100  1
  Mg  Mg40  1  0.50485300  0.00970600  0.61897700  1
  Mg  Mg41  1  0.49514700  0.50485300  0.11897700  1
  Mg  Mg42  1  0.00970600  0.50485300  0.11897700  1
  Mg  Mg43  1  0.99029400  0.49514700  0.61897700  1
  Mg  Mg44  1  0.50485300  0.49514700  0.61897700  1
  Mg  Mg45  1  0.49514700  0.99029400  0.38102300  1
  Mg  Mg46  1  0.49514700  0.50485300  0.38102300  1
  Mg  Mg47  1  0.49514700  0.99029400  0.11897700  1
  Mg  Mg48  1  0.00970600  0.50485300  0.38102300  1
  Mg  Mg49  1  0.99029400  0.49514700  0.88102300  1
  Mg  Mg50  1  0.50485300  0.00970600  0.88102300  1
  Mg  Mg51  1  0.50485300  0.49514700  0.88102300  1
  Mg  Mg52  1  0.16758900  0.33517800  0.65378200  1
  Mg  Mg53  1  0.83241100  0.16758900  0.15378200  1
  Mg  Mg54  1  0.33517800  0.16758900  0.15378200  1
  Mg  Mg55  1  0.66482200  0.83241100  0.65378200  1
  Mg  Mg56  1  0.16758900  0.83241100  0.65378200  1
  Mg  Mg57  1  0.83241100  0.66482200  0.34621800  1
  Mg  Mg58  1  0.83241100  0.16758900  0.34621800  1
  Mg  Mg59  1  0.83241100  0.66482200  0.15378200  1
  Mg  Mg60  1  0.33517800  0.16758900  0.34621800  1
  Mg  Mg61  1  0.66482200  0.83241100  0.84621800  1
  Mg  Mg62  1  0.16758900  0.33517800  0.84621800  1
  Mg  Mg63  1  0.16758900  0.83241100  0.84621800  1
  Mg  Mg64  1  0.16994700  0.33989500  0.18983000  1
  Mg  Mg65  1  0.83005300  0.16994700  0.68983000  1
  Mg  Mg66  1  0.33989500  0.16994700  0.68983000  1
  Mg  Mg67  1  0.66010500  0.83005300  0.18983000  1
  Mg  Mg68  1  0.16994700  0.83005300  0.18983000  1
  Mg  Mg69  1  0.83005300  0.66010500  0.81017000  1
  Mg  Mg70  1  0.83005300  0.16994700  0.81017000  1
  Mg  Mg71  1  0.83005300  0.66010500  0.68983000  1
  Mg  Mg72  1  0.33989500  0.16994700  0.81017000  1
  Mg  Mg73  1  0.66010500  0.83005300  0.31017000  1
  Mg  Mg74  1  0.16994700  0.33989500  0.31017000  1
  Mg  Mg75  1  0.16994700  0.83005300  0.31017000  1
loop_
_geom_bond_atom_site_label_1
_geom_bond_atom_site_label_2
_geom_bond_distance
_geom_bond_site_symmetry_2
Mg0 Mg54 3.054790 1_555
Mg0 Mg59 3.054790 1_445
Mg0 Mg53 3.054790 1_455
Mg0 Mg25 3.143244 1_555
Mg0 Mg22 3.143244 1_445
Mg0 Mg26 3.143244 1_455
Mg0 Mg68 3.225713 1_545
Mg0 Mg67 3.225722 1_445
Mg0 Mg64 3.225722 1_555
Mg0 Sr9 3.655316 1_445
Mg0 Sr6 3.655316 1_555
Mg0 Sr10 3.655322 1_545
Mg1 Mg52 3.054790 1_555
Mg1 Mg55 3.054790 1_445
Mg1 Mg56 3.054790 1_545
Mg1 Mg24 3.143244 1_445
Mg1 Mg27 3.143244 1_555
Mg1 Mg23 3.143244 1_545
Mg1 Mg65 3.225713 1_455
Mg1 Mg71 3.225722 1_445
Mg1 Mg66 3.225722 1_555
Mg1 Sr13 3.655316 1_445
Mg1 Sr8 3.655316 1_555
Mg1 Sr7 3.655322 1_455
Mg2 Mg61 3.054790 1_445
Mg2 Mg62 3.054790 1_555
Mg2 Mg63 3.054790 1_545
Mg2 Mg24 3.143244 1_445
Mg2 Mg27 3.143244 1_555
Mg2 Mg23 3.143244 1_545
Mg2 Mg70 3.225713 1_455
Mg2 Mg69 3.225722 1_445
Mg2 Mg72 3.225722 1_555
Mg2 Sr11 3.655316 1_445
Mg2 Sr14 3.655316 1_555
Mg2 Sr12 3.655322 1_455
Mg3 Mg57 3.054790 1_445
Mg3 Mg60 3.054790 1_555
Mg3 Mg58 3.054790 1_455
Mg3 Mg75 3.225713 1_545
Mg3 Mg73 3.225722 1_445
Mg3 Mg74 3.225722 1_555
Mg3 Sr15 3.655316 1_445
Mg3 Sr16 3.655316 1_555
Mg3 Sr17 3.655322 1_545
Mg4 Mg8 3.208752 1_555
Mg4 Sr10 3.591686 1_555
Mg4 Sr6 3.591704 1_555
Mg4 Sr9 3.591704 1_555
Mg5 Mg9 3.208752 1_555
Mg5 Sr7 3.591686 1_555
Mg5 Sr8 3.591704 1_555
Mg5 Sr13 3.591704 1_555
Mg6 Sr12 3.591686 1_555
Mg6 Sr14 3.591704 1_555
Mg6 Sr11 3.591704 1_555
Mg7 Sr17 3.591686 1_555
Mg7 Sr16 3.591704 1_555
Mg7 Sr15 3.591704 1_555
Mg10 Mg72 3.114204 1_555
Mg10 Mg69 3.114204 1_555
Mg10 Mg70 3.114205 1_555
Mg10 Mg49 3.133112 1_555
Mg10 Mg50 3.133112 1_555
Mg10 Mg51 3.133121 1_555
Mg10 Mg6 3.208752 1_555
Mg11 Mg74 3.114204 1_555
Mg11 Mg73 3.114204 1_555
Mg11 Mg75 3.114205 1_555
Mg11 Mg45 3.133112 1_555
Mg11 Mg48 3.133112 1_555
Mg11 Mg46 3.133121 1_555
Mg11 Mg7 3.208752 1_555
Mg12 Mg56 3.020734 1_555
Mg12 Mg55 3.020743 1_555
Mg12 Mg52 3.020743 1_555
Mg12 Mg32 3.228658 1_555
Mg12 Mg31 3.228663 1_555
Mg12 Mg28 3.228663 1_555
Mg12 Mg40 3.247801 1_565
Mg12 Mg43 3.247801 1_455
Mg12 Mg44 3.247810 1_555
Mg12 Sr5 3.813893 1_555
Mg12 Sr2 3.813893 1_555
Mg12 Sr1 3.813900 1_555
Mg13 Mg53 3.020734 1_555
Mg13 Mg54 3.020743 1_555
Mg13 Mg59 3.020743 1_555
Mg13 Mg29 3.228658 1_555
Mg13 Mg35 3.228663 1_555
Mg13 Mg30 3.228663 1_555
Mg13 Mg47 3.247801 1_545
Mg13 Mg42 3.247801 1_655
Mg13 Mg41 3.247810 1_555
Mg13 Sr0 3.813893 1_555
Mg13 Sr3 3.813893 1_555
Mg13 Sr4 3.813900 1_555
Mg14 Mg58 3.020734 1_555
Mg14 Mg60 3.020743 1_555
Mg14 Mg57 3.020743 1_555
Mg14 Mg34 3.228658 1_555
Mg14 Mg33 3.228663 1_555
Mg14 Mg36 3.228663 1_555
Mg14 Mg48 3.247801 1_655
Mg14 Mg45 3.247801 1_545
Mg14 Mg46 3.247810 1_555
Mg14 Sr0 3.813893 1_555
Mg14 Sr3 3.813893 1_555
Mg14 Sr4 3.813900 1_555
Mg15 Mg63 3.020734 1_555
Mg15 Mg61 3.020743 1_555
Mg15 Mg62 3.020743 1_555
Mg15 Mg39 3.228658 1_555
Mg15 Mg38 3.228663 1_555
Mg15 Mg37 3.228663 1_555
Mg15 Mg49 3.247801 1_455
Mg15 Mg50 3.247801 1_565
Mg15 Mg51 3.247810 1_555
Mg15 Sr2 3.813893 1_555
Mg15 Sr5 3.813893 1_555
Mg15 Sr1 3.813900 1_555
Mg16 Mg39 3.056580 1_544
Mg16 Mg29 3.056580 1_555
Mg16 Mg37 3.056580 1_544
Mg16 Mg30 3.056580 1_555
Mg16 Mg6 3.254653 1_554
Mg16 Mg4 3.254653 1_545
Mg16 Mg47 3.320665 1_545
Mg16 Mg50 3.320665 1_554
Mg16 Sr12 3.753246 1_554
Mg16 Sr10 3.753246 1_545
Mg16 Sr14 3.753255 1_554
Mg16 Sr9 3.753255 1_545
Mg17 Mg31 3.056580 1_555
Mg17 Mg28 3.056580 1_555
Mg17 Mg33 3.056580 1_555
Mg17 Mg36 3.056580 1_555
Mg17 Mg5 3.254661 1_555
Mg17 Mg7 3.254661 1_555
Mg17 Mg44 3.320665 1_555
Mg17 Mg46 3.320665 1_555
Mg17 Sr8 3.753247 1_555
Mg17 Sr13 3.753247 1_555
Mg17 Sr15 3.753247 1_555
Mg17 Sr16 3.753247 1_555
Mg18 Mg32 3.056580 1_555
Mg18 Mg34 3.056580 1_455
Mg18 Mg28 3.056580 1_555
Mg18 Mg33 3.056580 1_455
Mg18 Mg5 3.254653 1_455
Mg18 Mg7 3.254653 1_555
Mg18 Mg43 3.320665 1_455
Mg18 Mg48 3.320665 1_555
Mg18 Sr7 3.753246 1_455
Mg18 Sr17 3.753246 1_555
Mg18 Sr13 3.753255 1_455
Mg18 Sr16 3.753255 1_555
Mg19 Mg39 3.056580 1_554
Mg19 Mg29 3.056580 1_455
Mg19 Mg38 3.056580 1_554
Mg19 Mg35 3.056580 1_455
Mg19 Mg6 3.254653 1_454
Mg19 Mg4 3.254653 1_555
Mg19 Mg49 3.320665 1_454
Mg19 Mg42 3.320665 1_555
Mg19 Sr12 3.753246 1_454
Mg19 Sr10 3.753246 1_555
Mg19 Sr11 3.753255 1_454
Mg19 Sr6 3.753255 1_555
Mg20 Mg38 3.056580 1_554
Mg20 Mg37 3.056580 1_554
Mg20 Mg30 3.056580 1_555
Mg20 Mg35 3.056580 1_555
Mg20 Mg6 3.254661 1_554
Mg20 Mg4 3.254661 1_555
Mg20 Mg51 3.320665 1_554
Mg20 Mg41 3.320665 1_555
Mg20 Sr11 3.753247 1_554
Mg20 Sr14 3.753247 1_554
Mg20 Sr9 3.753247 1_555
Mg20 Sr6 3.753247 1_555
Mg21 Mg32 3.056580 1_545
Mg21 Mg34 3.056580 1_555
Mg21 Mg31 3.056580 1_545
Mg21 Mg36 3.056580 1_555
Mg21 Mg5 3.254653 1_555
Mg21 Mg7 3.254653 1_545
Mg21 Mg40 3.320665 1_555
Mg21 Mg45 3.320665 1_545
Mg21 Sr7 3.753246 1_555
Mg21 Sr17 3.753246 1_545
Mg21 Sr8 3.753255 1_555
Mg21 Sr15 3.753255 1_545
Mg22 Mg59 2.966959 1_555
Mg22 Mg57 2.966959 1_555
Mg22 Mg25 3.099850 1_665
Mg22 Mg26 3.099850 1_565
Mg22 Mg3 3.143244 1_665
Mg22 Mg75 3.172691 1_655
Mg22 Mg68 3.172691 1_655
Mg22 Mg67 3.172700 1_555
Mg22 Mg73 3.172700 1_555
Mg22 Sr4 3.740101 1_555
Mg22 Sr3 3.740102 1_555
Mg23 Mg63 2.966959 1_555
Mg23 Mg56 2.966959 1_555
Mg23 Mg24 3.099850 1_455
Mg23 Mg27 3.099850 1_565
Mg23 Mg71 3.172695 1_455
Mg23 Mg69 3.172695 1_455
Mg23 Mg66 3.172695 1_565
Mg23 Mg72 3.172695 1_565
Mg23 Sr2 3.740101 1_555
Mg23 Sr5 3.740101 1_555
Mg24 Mg55 2.966959 1_555
Mg24 Mg61 2.966959 1_555
Mg24 Mg27 3.099850 1_665
Mg24 Mg70 3.172691 1_565
Mg24 Mg65 3.172691 1_565
Mg24 Mg69 3.172700 1_555
Mg24 Mg71 3.172700 1_555
Mg24 Sr1 3.740101 1_555
Mg24 Sr5 3.740102 1_555
Mg25 Mg54 2.966959 1_555
Mg25 Mg60 2.966959 1_555
Mg25 Mg26 3.099850 1_455
Mg25 Mg3 3.143244 1_555
Mg25 Mg68 3.172691 1_545
Mg25 Mg75 3.172691 1_545
Mg25 Mg64 3.172700 1_555
Mg25 Mg74 3.172700 1_555
Mg25 Sr4 3.740101 1_555
Mg25 Sr0 3.740102 1_555
Mg26 Mg53 2.966959 1_555
Mg26 Mg58 2.966959 1_555
Mg26 Mg3 3.143244 1_655
Mg26 Mg67 3.172695 1_545
Mg26 Mg73 3.172695 1_545
Mg26 Mg64 3.172695 1_655
Mg26 Mg74 3.172695 1_655
Mg26 Sr0 3.740101 1_555
Mg26 Sr3 3.740101 1_555
Mg27 Mg62 2.966959 1_555
Mg27 Mg52 2.966959 1_555
Mg27 Mg70 3.172691 1_455
Mg27 Mg65 3.172691 1_455
Mg27 Mg66 3.172700 1_555
Mg27 Mg72 3.172700 1_555
Mg27 Sr1 3.740101 1_555
Mg27 Sr2 3.740102 1_555
Mg28 Mg52 3.013463 1_555
Mg28 Mg31 3.133529 1_555
Mg28 Mg32 3.133530 1_555
Mg28 Mg7 3.252413 1_555
Mg28 Mg44 3.253169 1_555
Mg28 Mg43 3.253169 1_455
Mg28 Sr16 3.712378 1_555
Mg28 Sr8 3.720013 1_555
Mg28 Sr7 3.720019 1_455
Mg29 Mg53 3.013463 1_555
Mg29 Mg35 3.133530 1_555
Mg29 Mg30 3.133530 1_555
Mg29 Mg6 3.252408 1_554
Mg29 Mg42 3.253169 1_655
Mg29 Mg47 3.253169 1_545
Mg29 Sr12 3.712374 1_554
Mg29 Sr6 3.720023 1_655
Mg29 Sr9 3.720023 1_545
Mg30 Mg54 3.013463 1_555
Mg30 Mg35 3.133529 1_555
Mg30 Mg6 3.252413 1_554
Mg30 Mg41 3.253169 1_555
Mg30 Mg47 3.253169 1_545
Mg30 Sr14 3.712378 1_554
Mg30 Sr6 3.720013 1_555
Mg30 Sr10 3.720019 1_545
Mg31 Mg55 3.013463 1_555
Mg31 Mg32 3.133530 1_555
Mg31 Mg7 3.252413 1_555
Mg31 Mg44 3.253169 1_555
Mg31 Mg40 3.253169 1_565
Mg31 Sr15 3.712378 1_555
Mg31 Sr13 3.720013 1_555
Mg31 Sr7 3.720019 1_565
Mg32 Mg56 3.013463 1_555
Mg32 Mg7 3.252408 1_555
Mg32 Mg40 3.253169 1_565
Mg32 Mg43 3.253169 1_455
Mg32 Sr17 3.712374 1_555
Mg32 Sr8 3.720023 1_565
Mg32 Sr13 3.720023 1_455
Mg33 Mg57 3.013463 1_555
Mg33 Mg36 3.133529 1_555
Mg33 Mg34 3.133530 1_555
Mg33 Mg5 3.252413 1_555
Mg33 Mg46 3.253169 1_555
Mg33 Mg48 3.253169 1_655
Mg33 Sr13 3.712378 1_555
Mg33 Sr15 3.720013 1_555
Mg33 Sr17 3.720019 1_655
Mg34 Mg58 3.013463 1_555
Mg34 Mg36 3.133530 1_555
Mg34 Mg5 3.252408 1_555
Mg34 Mg48 3.253169 1_655
Mg34 Mg45 3.253169 1_545
Mg34 Sr7 3.712374 1_555
Mg34 Sr15 3.720023 1_545
Mg34 Sr16 3.720023 1_655
Mg35 Mg59 3.013463 1_555
Mg35 Mg6 3.252413 1_554
Mg35 Mg41 3.253169 1_555
Mg35 Mg42 3.253169 1_655
Mg35 Sr11 3.712378 1_554
Mg35 Sr9 3.720013 1_555
Mg35 Sr10 3.720019 1_655
Mg36 Mg60 3.013463 1_555
Mg36 Mg5 3.252413 1_555
Mg36 Mg46 3.253169 1_555
Mg36 Mg45 3.253169 1_545
Mg36 Sr8 3.712378 1_555
Mg36 Sr16 3.720013 1_555
Mg36 Sr17 3.720019 1_545
Mg37 Mg61 3.013463 1_555
Mg37 Mg38 3.133529 1_555
Mg37 Mg39 3.133530 1_555
Mg37 Mg4 3.252413 1_556
Mg37 Mg51 3.253169 1_555
Mg37 Mg50 3.253169 1_565
Mg37 Sr9 3.712378 1_556
Mg37 Sr11 3.720013 1_555
Mg37 Sr12 3.720019 1_565
Mg38 Mg62 3.013463 1_555
Mg38 Mg39 3.133530 1_555
Mg38 Mg4 3.252413 1_556
Mg38 Mg51 3.253169 1_555
Mg38 Mg49 3.253169 1_455
Mg38 Sr6 3.712378 1_556
Mg38 Sr14 3.720013 1_555
Mg38 Sr12 3.720019 1_455
Mg39 Mg63 3.013463 1_555
Mg39 Mg4 3.252408 1_556
Mg39 Mg49 3.253169 1_455
Mg39 Mg50 3.253169 1_565
Mg39 Sr10 3.712374 1_556
Mg39 Sr14 3.720023 1_565
Mg39 Sr11 3.720023 1_455
Mg40 Mg9 3.133112 1_555
Mg40 Mg56 3.223244 1_545
Mg40 Mg55 3.223244 1_545
Mg40 Sr7 3.642320 1_555
Mg40 Sr8 3.642329 1_555
Mg40 Sr5 3.690037 1_545
Mg41 Mg8 3.133121 1_555
Mg41 Mg59 3.223244 1_555
Mg41 Mg54 3.223244 1_555
Mg41 Sr6 3.642321 1_555
Mg41 Sr9 3.642321 1_555
Mg41 Sr4 3.690037 1_555
Mg42 Mg8 3.133112 1_555
Mg42 Mg53 3.223244 1_455
Mg42 Mg59 3.223244 1_455
Mg42 Sr10 3.642320 1_555
Mg42 Sr6 3.642329 1_555
Mg42 Sr3 3.690037 1_455
Mg43 Mg9 3.133112 1_555
Mg43 Mg56 3.223244 1_655
Mg43 Mg52 3.223244 1_655
Mg43 Sr7 3.642320 1_555
Mg43 Sr13 3.642329 1_555
Mg43 Sr2 3.690037 1_655
Mg44 Mg9 3.133121 1_555
Mg44 Mg52 3.223244 1_555
Mg44 Mg55 3.223244 1_555
Mg44 Sr8 3.642321 1_555
Mg44 Sr13 3.642321 1_555
Mg44 Sr1 3.690037 1_555
Mg45 Mg58 3.223244 1_565
Mg45 Mg60 3.223244 1_565
Mg45 Sr17 3.642320 1_555
Mg45 Sr15 3.642329 1_555
Mg45 Sr0 3.690037 1_565
Mg46 Mg57 3.223244 1_555
Mg46 Mg60 3.223244 1_555
Mg46 Sr16 3.642321 1_555
Mg46 Sr15 3.642321 1_555
Mg46 Sr4 3.690037 1_555
Mg47 Mg8 3.133112 1_555
Mg47 Mg53 3.223244 1_565
Mg47 Mg54 3.223244 1_565
Mg47 Sr10 3.642320 1_555
Mg47 Sr9 3.642329 1_555
Mg47 Sr0 3.690037 1_565
Mg48 Mg58 3.223244 1_455
Mg48 Mg57 3.223244 1_455
Mg48 Sr17 3.642320 1_555
Mg48 Sr16 3.642329 1_555
Mg48 Sr3 3.690037 1_455
Mg49 Mg63 3.223244 1_655
Mg49 Mg62 3.223244 1_655
Mg49 Sr12 3.642320 1_555
Mg49 Sr11 3.642329 1_555
Mg49 Sr2 3.690037 1_655
Mg50 Mg63 3.223244 1_545
Mg50 Mg61 3.223244 1_545
Mg50 Sr12 3.642320 1_555
Mg50 Sr14 3.642329 1_555
Mg50 Sr5 3.690037 1_545
Mg51 Mg62 3.223244 1_555
Mg51 Mg61 3.223244 1_555
Mg51 Sr14 3.642321 1_555
Mg51 Sr11 3.642321 1_555
Mg51 Sr1 3.690037 1_555
Mg52 Mg65 3.235146 1_455
Mg52 Mg66 3.235155 1_555
Mg52 Sr8 3.800545 1_555
Mg52 Sr7 3.800551 1_455
Mg52 Sr1 3.909081 1_555
Mg52 Sr2 3.909082 1_555
Mg53 Mg67 3.235146 1_545
Mg53 Mg64 3.235146 1_655
Mg53 Sr9 3.800552 1_545
Mg53 Sr6 3.800552 1_655
Mg53 Sr0 3.909081 1_555
Mg53 Sr3 3.909081 1_555
Mg54 Mg68 3.235146 1_545
Mg54 Mg64 3.235155 1_555
Mg54 Sr6 3.800545 1_555
Mg54 Sr10 3.800551 1_545
Mg54 Sr4 3.909081 1_555
Mg54 Sr0 3.909082 1_555
Mg55 Mg65 3.235146 1_565
Mg55 Mg71 3.235155 1_555
Mg55 Sr13 3.800545 1_555
Mg55 Sr7 3.800551 1_565
Mg55 Sr1 3.909081 1_555
Mg55 Sr5 3.909082 1_555
Mg56 Mg71 3.235146 1_455
Mg56 Mg66 3.235146 1_565
Mg56 Sr8 3.800552 1_565
Mg56 Sr13 3.800552 1_455
Mg56 Sr2 3.909081 1_555
Mg56 Sr5 3.909081 1_555
Mg57 Mg75 3.235146 1_655
Mg57 Mg73 3.235155 1_555
Mg57 Sr15 3.800545 1_555
Mg57 Sr17 3.800551 1_655
Mg57 Sr4 3.909081 1_555
Mg57 Sr3 3.909082 1_555
Mg58 Mg73 3.235146 1_545
Mg58 Mg74 3.235146 1_655
Mg58 Sr16 3.800552 1_655
Mg58 Sr15 3.800552 1_545
Mg58 Sr0 3.909081 1_555
Mg58 Sr3 3.909081 1_555
Mg59 Mg68 3.235146 1_655
Mg59 Mg67 3.235155 1_555
Mg59 Sr9 3.800545 1_555
Mg59 Sr10 3.800551 1_655
Mg59 Sr4 3.909081 1_555
Mg59 Sr3 3.909082 1_555
Mg60 Mg75 3.235146 1_545
Mg60 Mg74 3.235155 1_555
Mg60 Sr16 3.800545 1_555
Mg60 Sr17 3.800551 1_545
Mg60 Sr4 3.909081 1_555
Mg60 Sr0 3.909082 1_555
Mg61 Mg70 3.235146 1_565
Mg61 Mg69 3.235155 1_555
Mg61 Sr11 3.800545 1_555
Mg61 Sr12 3.800551 1_565
Mg61 Sr1 3.909081 1_555
Mg61 Sr5 3.909082 1_555
Mg62 Mg70 3.235146 1_455
Mg62 Mg72 3.235155 1_555
Mg62 Sr14 3.800545 1_555
Mg62 Sr12 3.800551 1_455
Mg62 Sr1 3.909081 1_555
Mg62 Sr2 3.909082 1_555
Mg63 Mg69 3.235146 1_455
Mg63 Mg72 3.235146 1_565
Mg63 Sr14 3.800552 1_565
Mg63 Sr11 3.800552 1_455
Mg63 Sr2 3.909081 1_555
Mg63 Sr5 3.909081 1_555
Mg64 Mg8 3.114204 1_555
Mg64 Mg74 3.357516 1_555
Mg64 Sr6 3.590718 1_555
Mg64 Sr3 3.649063 1_455
Mg64 Sr4 3.649071 1_555
Mg65 Mg9 3.114205 1_555
Mg65 Mg70 3.357516 1_555
Mg65 Sr7 3.590715 1_555
Mg65 Sr2 3.649070 1_655
Mg65 Sr5 3.649070 1_545
Mg66 Mg9 3.114204 1_555
Mg66 Mg72 3.357516 1_555
Mg66 Sr8 3.590718 1_555
Mg66 Sr5 3.649063 1_545
Mg66 Sr1 3.649071 1_555
Mg67 Mg8 3.114204 1_555
Mg67 Mg73 3.357516 1_555
Mg67 Sr9 3.590718 1_555
Mg67 Sr0 3.649063 1_565
Mg67 Sr4 3.649071 1_555
Mg68 Mg8 3.114205 1_555
Mg68 Mg75 3.357516 1_555
Mg68 Sr10 3.590715 1_555
Mg68 Sr3 3.649070 1_455
Mg68 Sr0 3.649070 1_565
Mg69 Mg71 3.357516 1_555
Mg69 Sr11 3.590718 1_555
Mg69 Sr2 3.649063 1_655
Mg69 Sr1 3.649071 1_555
Mg70 Sr12 3.590715 1_555
Mg70 Sr2 3.649070 1_655
Mg70 Sr5 3.649070 1_545
Mg71 Mg9 3.114204 1_555
Mg71 Sr13 3.590718 1_555
Mg71 Sr2 3.649063 1_655
Mg71 Sr1 3.649071 1_555
Mg72 Sr14 3.590718 1_555
Mg72 Sr5 3.649063 1_545
Mg72 Sr1 3.649071 1_555
Mg73 Sr15 3.590718 1_555
Mg73 Sr0 3.649063 1_565
Mg73 Sr4 3.649071 1_555
Mg74 Sr16 3.590718 1_555
Mg74 Sr3 3.649063 1_455
Mg74 Sr4 3.649071 1_555
Mg75 Sr17 3.590715 1_555
Mg75 Sr3 3.649070 1_455
Mg75 Sr0 3.649070 1_565
