# generated using pymatgen
data_Sc22Tc5Ag2Os
_symmetry_space_group_name_H-M   'P 1'
_cell_length_a   9.52722740
_cell_length_b   9.62759629
_cell_length_c   9.62759492
_cell_angle_alpha   59.31146826
_cell_angle_beta   60.34426728
_cell_angle_gamma   60.34426724
_symmetry_Int_Tables_number   1
_chemical_formula_structural   Sc22Tc5Ag2Os
_chemical_formula_sum   'Sc22 Tc5 Ag2 Os1'
_cell_volume   624.30064333
_cell_formula_units_Z   1
loop_
 _symmetry_equiv_pos_site_id
 _symmetry_equiv_pos_as_xyz
  1  'x, y, z'
loop_
 _atom_site_type_symbol
 _atom_site_label
 _atom_site_symmetry_multiplicity
 _atom_site_fract_x
 _atom_site_fract_y
 _atom_site_fract_z
 _atom_site_occupancy
  Sc  Sc0  1  0.85558085  0.83706462  0.83706462  1
  Sc  Sc1  1  0.52970908  0.16293538  0.16293538  1
  Sc  Sc2  1  0.16293538  0.14441915  0.52970908  1
  Sc  Sc3  1  0.16293538  0.52970908  0.14441915  1
  Sc  Sc4  1  0.83706462  0.85558085  0.47029092  1
  Sc  Sc5  1  0.83706462  0.47029092  0.85558085  1
  Sc  Sc6  1  0.47029092  0.83706462  0.83706462  1
  Sc  Sc7  1  0.14441915  0.16293538  0.16293538  1
  Sc  Sc8  1  0.19501020  0.80498980  0.19501020  1
  Sc  Sc9  1  0.19695868  0.80304132  0.80304132  1
  Sc  Sc10  1  0.80304132  0.19695868  0.19695868  1
  Sc  Sc11  1  0.80498980  0.80498980  0.19501020  1
  Sc  Sc12  1  0.19501020  0.19501020  0.80498980  1
  Sc  Sc13  1  0.80498980  0.19501020  0.80498980  1
  Sc  Sc14  1  0.39172860  0.38128873  0.38128873  1
  Sc  Sc15  1  0.15430806  0.61871127  0.61871127  1
  Sc  Sc16  1  0.61871127  0.15430806  0.60827140  1
  Sc  Sc17  1  0.61871127  0.60827140  0.15430806  1
  Sc  Sc18  1  0.38128873  0.84569194  0.39172860  1
  Sc  Sc19  1  0.38128873  0.39172860  0.84569194  1
  Sc  Sc20  1  0.84569194  0.38128873  0.38128873  1
  Sc  Sc21  1  0.60827140  0.61871127  0.61871127  1
  Tc  Tc0  1  0.50000000  0.50000000  0.00000000  1
  Tc  Tc1  1  0.00000000  0.00000000  0.50000000  1
  Tc  Tc2  1  0.50000000  0.00000000  0.50000000  1
  Tc  Tc3  1  0.00000000  0.50000000  0.00000000  1
  Tc  Tc4  1  0.00000000  0.00000000  0.00000000  1
  Ag  Ag0  1  0.00000000  0.50000000  0.50000000  1
  Ag  Ag1  1  0.50000000  0.00000000  0.00000000  1
  Os  Os0  1  0.50000000  0.50000000  0.50000000  1
loop_
_geom_bond_atom_site_label_1
_geom_bond_atom_site_label_2
_geom_bond_distance
_geom_bond_site_symmetry_2
Sc0 Tc1 2.721391 1_665
Sc0 Tc3 2.721391 1_656
Sc1 Tc2 2.721393 1_555
Sc1 Tc0 2.721393 1_555
Sc2 Tc1 2.721385 1_555
Sc2 Tc2 2.721394 1_555
Sc3 Tc3 2.721385 1_555
Sc3 Tc0 2.721394 1_555
Sc4 Tc1 2.721385 1_665
Sc4 Tc2 2.721394 1_565
Sc5 Tc3 2.721385 1_656
Sc5 Tc0 2.721394 1_556
Sc6 Tc2 2.721393 1_565
Sc6 Tc0 2.721393 1_556
Sc7 Tc1 2.721391 1_555
Sc7 Tc3 2.721391 1_555
Sc8 Tc4 2.627476 1_565
Sc9 Tc4 2.709355 1_566
Sc10 Tc4 2.709355 1_655
Sc11 Tc4 2.627477 1_665
Sc12 Tc4 2.627477 1_556
Sc13 Tc4 2.627476 1_656
Sc14 Tc0 2.997121 1_555
Sc14 Tc2 2.997121 1_555
Sc15 Tc3 2.997122 1_556
Sc15 Tc1 2.997123 1_565
Sc16 Tc1 2.997123 1_655
Sc16 Tc2 2.997138 1_555
Sc17 Tc3 2.997123 1_655
Sc17 Tc0 2.997138 1_555
Sc18 Tc1 2.997123 1_565
Sc18 Tc2 2.997138 1_565
Sc19 Tc3 2.997123 1_556
Sc19 Tc0 2.997138 1_556
Sc20 Tc3 2.997122 1_655
Sc20 Tc1 2.997123 1_655
Sc21 Tc0 2.997121 1_556
Sc21 Tc2 2.997121 1_565
Ag0 Sc5 2.896928 1_455
Ag0 Sc3 2.896928 1_555
Ag0 Sc4 2.896928 1_455
Ag0 Sc2 2.896928 1_555
Ag0 Sc21 3.071215 1_455
Ag0 Sc14 3.071215 1_555
Ag0 Sc15 3.071230 1_555
Ag0 Sc20 3.071230 1_455
Ag0 Sc12 3.448905 1_555
Ag0 Sc11 3.448905 1_455
Ag0 Sc8 3.448906 1_555
Ag0 Sc13 3.448906 1_455
Ag1 Sc1 2.896919 1_555
Ag1 Sc6 2.896919 1_544
Ag1 Sc0 2.896926 1_544
Ag1 Sc7 2.896926 1_555
Ag1 Sc16 3.071215 1_554
Ag1 Sc18 3.071215 1_545
Ag1 Sc17 3.071215 1_545
Ag1 Sc19 3.071215 1_554
Ag1 Sc11 3.448906 1_545
Ag1 Sc12 3.448906 1_554
Ag1 Sc13 3.448906 1_554
Ag1 Sc8 3.448906 1_545
Os0 Sc19 2.709803 1_555
Os0 Sc17 2.709803 1_555
Os0 Sc18 2.709803 1_555
Os0 Sc16 2.709803 1_555
Os0 Sc20 2.709804 1_555
Os0 Sc15 2.709804 1_555
Os0 Sc14 2.709819 1_555
Os0 Sc21 2.709819 1_555
