# generated using pymatgen
data_SrIr4Pb3O14
_symmetry_space_group_name_H-M   'P 1'
_cell_length_a   7.29509751
_cell_length_b   7.29514544
_cell_length_c   7.29514483
_cell_angle_alpha   59.99999839
_cell_angle_beta   59.99978107
_cell_angle_gamma   59.99978480
_symmetry_Int_Tables_number   1
_chemical_formula_structural   SrIr4Pb3O14
_chemical_formula_sum   'Sr1 Ir4 Pb3 O14'
_cell_volume   274.52540842
_cell_formula_units_Z   1
loop_
 _symmetry_equiv_pos_site_id
 _symmetry_equiv_pos_as_xyz
  1  'x, y, z'
loop_
 _atom_site_type_symbol
 _atom_site_label
 _atom_site_symmetry_multiplicity
 _atom_site_fract_x
 _atom_site_fract_y
 _atom_site_fract_z
 _atom_site_occupancy
  Sr  Sr0  1  0.62500000  0.12500000  0.12500000  1
  Ir  Ir0  1  0.12500000  0.62500000  0.62500000  1
  Ir  Ir1  1  0.62500000  0.12500000  0.62500000  1
  Ir  Ir2  1  0.62500000  0.62500000  0.12500000  1
  Ir  Ir3  1  0.62500000  0.62500000  0.62500000  1
  Pb  Pb0  1  0.12500000  0.62500000  0.12500000  1
  Pb  Pb1  1  0.12500000  0.12500000  0.62500000  1
  Pb  Pb2  1  0.12500000  0.12500000  0.12500000  1
  O  O0  1  0.71253319  0.69046435  0.29850073  1
  O  O1  1  0.29355640  0.29644114  0.70500123  1
  O  O2  1  0.71253319  0.29850073  0.69046435  1
  O  O3  1  0.29355640  0.70500123  0.29644114  1
  O  O4  1  0.29355640  0.70500123  0.70500123  1
  O  O5  1  0.71253319  0.29850073  0.29850073  1
  O  O6  1  0.53746681  0.55953565  0.95149927  1
  O  O7  1  0.95644360  0.95355886  0.54499877  1
  O  O8  1  0.53746681  0.95149927  0.55953565  1
  O  O9  1  0.95644360  0.54499877  0.95355886  1
  O  O10  1  0.95644360  0.54499877  0.54499877  1
  O  O11  1  0.53746681  0.95149927  0.95149927  1
  O  O12  1  0.23210227  0.25596591  0.25596591  1
  O  O13  1  0.01789773  0.99403409  0.99403409  1
loop_
_geom_bond_atom_site_label_1
_geom_bond_atom_site_label_2
_geom_bond_distance
_geom_bond_site_symmetry_2
Ir0 O3 1.992268 1_555
Ir0 O9 1.992268 1_455
Ir0 O4 1.992268 1_555
Ir0 O10 1.992268 1_455
Ir0 O7 1.992268 1_455
Ir0 O1 1.992268 1_555
Ir1 O2 1.988854 1_555
Ir1 O8 1.988854 1_545
Ir1 O11 1.988859 1_545
Ir1 O5 1.988859 1_555
Ir1 O7 2.011427 1_545
Ir1 O1 2.011427 1_555
Ir2 O0 1.988854 1_555
Ir2 O6 1.988854 1_554
Ir2 O11 1.988860 1_554
Ir2 O5 1.988860 1_555
Ir2 O9 2.011427 1_554
Ir2 O3 2.011427 1_555
Ir3 O6 1.988861 1_555
Ir3 O0 1.988861 1_555
Ir3 O8 1.988861 1_555
Ir3 O2 1.988861 1_555
Ir3 O10 2.011427 1_555
Ir3 O4 2.011427 1_555
O0 Pb0 2.498602 1_655
O0 Sr0 2.613498 1_565
O1 Pb2 2.530278 1_556
O1 Pb1 2.530279 1_555
O2 Pb1 2.498602 1_655
O2 Sr0 2.613497 1_556
O3 Pb0 2.530279 1_555
O3 Pb2 2.530279 1_565
O4 Pb0 2.530278 1_556
O4 Pb1 2.530279 1_565
O5 Pb2 2.498601 1_655
O5 Sr0 2.613491 1_555
O6 Pb0 2.498602 1_556
O6 Sr0 2.613498 1_556
O7 Pb2 2.530278 1_665
O7 Pb1 2.530279 1_665
O8 Pb1 2.498602 1_565
O8 Sr0 2.613497 1_565
O9 Pb0 2.530279 1_656
O9 Pb2 2.530279 1_656
O10 Pb0 2.530278 1_655
O10 Pb1 2.530279 1_655
O11 Pb2 2.498601 1_566
O11 Sr0 2.613491 1_566
O12 Pb1 2.200432 1_555
O12 Pb2 2.200432 1_555
O12 Pb0 2.200432 1_555
O12 Sr0 2.340257 1_555
O13 Pb1 2.200432 1_565
O13 Pb2 2.200432 1_566
O13 Pb0 2.200432 1_556
O13 Sr0 2.340257 1_466
