# generated using pymatgen
data_Ti8Al7Ga8Ir7
_symmetry_space_group_name_H-M   'P 1'
_cell_length_a   8.60494177
_cell_length_b   8.60710453
_cell_length_c   8.60710556
_cell_angle_alpha   120.19462649
_cell_angle_beta   119.81163493
_cell_angle_gamma   90.00206148
_symmetry_Int_Tables_number   1
_chemical_formula_structural   Ti8Al7Ga8Ir7
_chemical_formula_sum   'Ti8 Al7 Ga8 Ir7'
_cell_volume   450.70603166
_cell_formula_units_Z   1
loop_
 _symmetry_equiv_pos_site_id
 _symmetry_equiv_pos_as_xyz
  1  'x, y, z'
loop_
 _atom_site_type_symbol
 _atom_site_label
 _atom_site_symmetry_multiplicity
 _atom_site_fract_x
 _atom_site_fract_y
 _atom_site_fract_z
 _atom_site_occupancy
  Ti  Ti0  1  0.79321560  0.29191039  0.07731071  1
  Ti  Ti1  1  0.21275219  0.28821251  0.49372319  1
  Ti  Ti2  1  0.20440090  0.70614361  0.49825729  1
  Ti  Ti3  1  0.21275219  0.71903000  0.92453968  1
  Ti  Ti4  1  0.79321560  0.71590389  0.50130321  1
  Ti  Ti5  1  0.78452770  0.28412458  0.50040312  1
  Ti  Ti6  1  0.37720321  0.12478370  0.74658758  1
  Ti  Ti7  1  0.37720321  0.63061563  0.25241951  1
  Al  Al0  1  0.46671509  0.65488520  0.81182888  1
  Al  Al1  1  0.37961796  0.12229035  0.25732860  1
  Al  Al2  1  0.86504505  0.12151284  0.74353121  1
  Al  Al3  1  0.62099580  0.87758793  0.25585659  1
  Al  Al4  1  0.62099580  0.36513921  0.74340787  1
  Al  Al5  1  0.62198631  0.87764372  0.74434159  1
  Al  Al6  1  0.13218460  0.87681020  0.25537540  1
  Ga  Ga0  1  0.99826487  0.49629527  0.50196960  1
  Ga  Ga1  1  0.15151152  0.34798403  0.19539891  1
  Ga  Ga2  1  0.15151152  0.95611262  0.80352949  1
  Ga  Ga3  1  0.14931632  0.35121713  0.79809919  1
  Ga  Ga4  1  0.55188462  0.35017450  0.20171112  1
  Ga  Ga5  1  0.84748979  0.64925536  0.80020163  1
  Ga  Ga6  1  0.84748979  0.04728916  0.19823343  1
  Ga  Ga7  1  0.84633988  0.65192008  0.19441980  1
  Ir  Ir0  1  0.00047418  0.00136092  0.50204091  1
  Ir  Ir1  1  0.49779281  0.99754245  0.99797772  1
  Ir  Ir2  1  0.49816404  0.49913253  0.99903052  1
  Ir  Ir3  1  0.49779281  0.49981409  0.50025036  1
  Ir  Ir4  1  0.00047418  0.49843126  0.99911226  1
  Ir  Ir5  1  0.00128718  0.99957153  0.00171566  1
  Ir  Ir6  1  0.49739427  0.99730331  0.50009096  1
loop_
_geom_bond_atom_site_label_1
_geom_bond_atom_site_label_2
_geom_bond_distance
_geom_bond_site_symmetry_2
Ti0 Ti6 2.955630 1_554
Ti1 Ti6 2.955556 1_555
Ti2 Ti6 2.975857 1_565
Ti2 Ti7 2.975857 1_555
Ti3 Ti7 2.955563 1_556
Ti4 Ti7 2.955631 1_555
Al0 Ir3 2.481455 1_555
Al0 Ir1 2.481462 1_555
Al0 Ir2 2.491136 1_555
Al0 Ti1 2.755154 1_555
Al0 Ti3 2.755160 1_555
Al0 Al4 2.762062 1_555
Al0 Al3 2.762069 1_556
Al0 Al5 2.773153 1_555
Al0 Ti2 2.777475 1_555
Al1 Ir6 2.589575 1_545
Al1 Ir3 2.648780 1_555
Al1 Ir1 2.648794 1_544
Al1 Ir5 2.663659 1_545
Al1 Ga2 2.812814 1_544
Al1 Ga1 2.812822 1_555
Al1 Ga4 2.814871 1_555
Al1 Ti1 2.867634 1_555
Al1 Ti3 2.867634 1_544
Al1 Ti5 2.877061 1_555
Al1 Al4 2.958016 1_555
Al1 Al3 2.958022 1_545
Al1 Al6 2.987667 1_545
Al2 Ir6 2.587909 1_545
Al2 Ir4 2.644647 1_655
Al2 Ir0 2.644654 1_655
Al2 Ir5 2.677692 1_646
Al2 Ga2 2.800671 1_645
Al2 Ga1 2.800676 1_656
Al2 Ga3 2.834843 1_655
Al2 Ti4 2.883378 1_545
Al2 Ti0 2.883379 1_556
Al2 Ti5 2.884894 1_555
Al2 Al3 2.967742 1_545
Al2 Al4 2.967748 1_555
Al2 Al5 2.968029 1_545
Al3 Ir6 2.579987 1_555
Al3 Ir2 2.654808 1_554
Al3 Ir1 2.661199 1_554
Al3 Ir0 2.671514 1_665
Al3 Ga7 2.792668 1_555
Al3 Ga6 2.804910 1_565
Al3 Ti5 2.881064 1_565
Al3 Ti4 2.905218 1_555
Al3 Ti3 2.908526 1_554
Al3 Ti7 2.965656 1_555
Al4 Ir6 2.579987 1_545
Al4 Ir2 2.654802 1_555
Al4 Ir3 2.661192 1_555
Al4 Ir4 2.671514 1_655
Al4 Ga7 2.792668 1_556
Al4 Ga5 2.804897 1_555
Al4 Ti5 2.881065 1_555
Al4 Ti0 2.905223 1_556
Al4 Ti1 2.908526 1_555
Al4 Ti6 2.965656 1_555
Al5 Ir6 2.562567 1_555
Al5 Ir3 2.650758 1_555
Al5 Ir1 2.650758 1_555
Al5 Ir5 2.670900 1_656
Al5 Ga6 2.807848 1_566
Al5 Ga5 2.807851 1_555
Al5 Ti0 2.936036 1_566
Al5 Ti4 2.936043 1_555
Al5 Ti2 2.977277 1_555
Al5 Ti7 2.993539 1_555
Al5 Ti6 2.993545 1_565
Al6 Ir6 2.570797 1_555
Al6 Ir5 2.650891 1_555
Al6 Ir0 2.654131 1_565
Al6 Ir4 2.654151 1_554
Al6 Ga7 2.786943 1_455
Al6 Ga5 2.815059 1_454
Al6 Ga6 2.815059 1_465
Al6 Ti1 2.916589 1_565
Al6 Ti3 2.916597 1_554
Al6 Ti2 2.951521 1_555
Al6 Ti6 2.989234 1_565
Al6 Ti7 2.989241 1_555
Ga0 Ti2 2.554179 1_655
Ga0 Ti1 2.573273 1_655
Ga0 Ti3 2.573273 1_655
Ga0 Ti5 2.582262 1_555
Ga0 Ti4 2.585960 1_555
Ga0 Ti0 2.585966 1_555
Ga1 Ir4 2.497535 1_554
Ga1 Ir3 2.499612 1_555
Ga1 Ir5 2.504291 1_545
Ga1 Ti1 2.668120 1_555
Ga1 Ti0 2.676238 1_455
Ga1 Ti2 2.691205 1_555
Ga1 Ti7 2.789492 1_555
Ga2 Ir0 2.497559 1_565
Ga2 Ir1 2.499612 1_555
Ga2 Ir5 2.504277 1_556
Ga2 Ti3 2.668100 1_555
Ga2 Ti4 2.676241 1_455
Ga2 Ti2 2.691217 1_555
Ga2 Ti6 2.789505 1_565
Ga3 Ir4 2.497514 1_555
Ga3 Ir0 2.497523 1_555
Ga3 Ir2 2.499164 1_555
Ga3 Ti5 2.695630 1_455
Ga3 Ti1 2.729150 1_555
Ga3 Ti3 2.729158 1_555
Ga3 Ti7 2.799256 1_556
Ga3 Ti6 2.799256 1_555
Ga4 Ir3 2.517623 1_555
Ga4 Ir1 2.517630 1_544
Ga4 Ir2 2.519662 1_554
Ga4 Ti5 2.700568 1_555
Ga4 Ti4 2.716821 1_555
Ga4 Ti0 2.716833 1_555
Ga4 Ti7 2.805192 1_555
Ga4 Ti6 2.805199 1_554
Ga5 Ir5 2.511604 1_656
Ga5 Ir3 2.511884 1_555
Ga5 Ir4 2.518739 1_655
Ga5 Ti5 2.698399 1_555
Ga5 Ti3 2.719133 1_655
Ga5 Ti4 2.730489 1_555
Ga6 Ir5 2.511596 1_645
Ga6 Ir1 2.511882 1_544
Ga6 Ir0 2.518743 1_655
Ga6 Ti5 2.698403 1_555
Ga6 Ti1 2.719130 1_655
Ga6 Ti0 2.730464 1_555
Ga7 Ir2 2.509810 1_554
Ga7 Ir0 2.512643 1_665
Ga7 Ir4 2.512652 1_654
Ga7 Ti4 2.688220 1_555
Ga7 Ti0 2.688234 1_555
Ga7 Ti2 2.703812 1_655
Ir0 Ti6 2.652142 1_555
Ir0 Ti4 3.031519 1_445
Ir0 Ti2 3.083946 1_545
Ir0 Ti1 3.121699 1_555
Ir1 Ti6 2.666307 1_565
Ir1 Ti3 3.015952 1_555
Ir1 Ti2 3.084752 1_555
Ir1 Ti0 3.143456 1_566
Ir2 Ti6 2.625861 1_555
Ir2 Ti7 2.625868 1_556
Ir2 Ti4 3.096666 1_556
Ir2 Ti0 3.096672 1_556
Ir2 Ti1 3.111309 1_555
Ir2 Ti3 3.111321 1_555
Ir3 Ti7 2.666314 1_555
Ir3 Ti1 3.015953 1_555
Ir3 Ti2 3.084757 1_555
Ir3 Ti4 3.143468 1_555
Ir4 Ti7 2.652142 1_556
Ir4 Ti0 3.031519 1_456
Ir4 Ti2 3.083951 1_556
Ir4 Ti3 3.121711 1_555
Ir5 Ti3 3.028472 1_554
Ir5 Ti1 3.028478 1_565
Ir5 Ti0 3.077679 1_465
Ir5 Ti4 3.077692 1_454
Ir6 Ti7 2.571981 1_555
Ir6 Ti6 2.571981 1_565
