# generated using pymatgen
data_K5Rb(Al2P3)2
_symmetry_space_group_name_H-M   'P 1'
_cell_length_a   5.85305047
_cell_length_b   7.37391236
_cell_length_c   10.27988470
_cell_angle_alpha   69.53780924
_cell_angle_beta   90.00000000
_cell_angle_gamma   90.00000000
_symmetry_Int_Tables_number   1
_chemical_formula_structural   K5Rb(Al2P3)2
_chemical_formula_sum   'K5 Rb1 Al4 P6'
_cell_volume   415.68385149
_cell_formula_units_Z   1
loop_
 _symmetry_equiv_pos_site_id
 _symmetry_equiv_pos_as_xyz
  1  'x, y, z'
loop_
 _atom_site_type_symbol
 _atom_site_label
 _atom_site_symmetry_multiplicity
 _atom_site_fract_x
 _atom_site_fract_y
 _atom_site_fract_z
 _atom_site_occupancy
  K  K0  1  0.25000000  0.44647607  0.42562100  1
  K  K1  1  0.75000000  0.13263380  0.92450464  1
  K  K2  1  0.75000000  0.47897113  0.14858886  1
  K  K3  1  0.25000000  0.51748212  0.85060023  1
  K  K4  1  0.75000000  0.55765620  0.57538982  1
  Rb  Rb0  1  0.25000000  0.84507530  0.07529927  1
  Al  Al0  1  0.00050235  0.02923972  0.34429944  1
  Al  Al1  1  0.49991014  0.97469314  0.65552513  1
  Al  Al2  1  0.49949765  0.02923972  0.34429944  1
  Al  Al3  1  0.00008986  0.97469314  0.65552513  1
  P  P0  1  0.25000000  0.82109003  0.53016737  1
  P  P1  1  0.75000000  0.18203053  0.47042379  1
  P  P2  1  0.25000000  0.25103512  0.18801459  1
  P  P3  1  0.75000000  0.75351249  0.81305655  1
  P  P4  1  0.25000000  0.15355974  0.74181515  1
  P  P5  1  0.75000000  0.85261173  0.25686858  1
loop_
_geom_bond_atom_site_label_1
_geom_bond_atom_site_label_2
_geom_bond_distance
_geom_bond_site_symmetry_2
K0 P4 3.212777 1_555
K0 P2 3.241033 1_555
K0 P0 3.295669 1_555
K0 P1 3.457055 1_455
K0 P1 3.457055 1_555
K1 P5 3.317314 1_546
K1 P3 3.371551 1_545
K1 P4 3.451482 1_655
K1 P4 3.451482 1_555
K2 P1 3.267280 1_555
K2 P5 3.312754 1_555
K2 P2 3.328295 1_555
K2 P2 3.328295 1_655
K2 P3 3.333673 1_554
K3 P4 3.248101 1_555
K3 P0 3.272081 1_555
K3 P2 3.335638 1_556
K3 P3 3.357540 1_455
K3 P3 3.357540 1_555
K4 P5 3.236148 1_555
K4 P3 3.243766 1_555
K4 P1 3.305444 1_555
K4 P0 3.452930 1_555
K4 P0 3.452930 1_655
Al0 P5 2.339309 1_445
Al0 P2 2.356138 1_555
Al0 P0 2.467528 1_545
Al0 P1 2.474165 1_455
Al1 P4 2.341815 1_565
Al1 P3 2.361892 1_555
Al1 P1 2.463098 1_565
Al1 P0 2.470565 1_555
Al2 P5 2.339309 1_545
Al2 P2 2.356138 1_555
Al2 P0 2.467528 1_545
Al2 P1 2.474165 1_555
Al3 P4 2.341815 1_565
Al3 P3 2.361892 1_455
Al3 P1 2.463098 1_465
Al3 P0 2.470565 1_555
P2 Rb0 3.567753 1_545
P4 Rb0 3.387403 1_546
P5 Rb0 3.481957 1_655
P5 Rb0 3.481957 1_555
