# generated using pymatgen
data_LiPtRhS4
_symmetry_space_group_name_H-M   'P 1'
_cell_length_a   7.12697582
_cell_length_b   7.12697541
_cell_length_c   7.15950364
_cell_angle_alpha   59.84889650
_cell_angle_beta   59.84889842
_cell_angle_gamma   59.75228333
_symmetry_Int_Tables_number   1
_chemical_formula_structural   LiPtRhS4
_chemical_formula_sum   'Li2 Pt2 Rh2 S8'
_cell_volume   256.07480620
_cell_formula_units_Z   2
loop_
 _symmetry_equiv_pos_site_id
 _symmetry_equiv_pos_as_xyz
  1  'x, y, z'
loop_
 _atom_site_type_symbol
 _atom_site_label
 _atom_site_symmetry_multiplicity
 _atom_site_fract_x
 _atom_site_fract_y
 _atom_site_fract_z
 _atom_site_occupancy
  Li  Li0  1  0.25673252  0.25673252  0.24326748  1
  Li  Li1  1  0.99326748  0.99326748  0.00673252  1
  Pt  Pt0  1  0.62500000  0.62500000  0.12500000  1
  Pt  Pt1  1  0.62500000  0.62500000  0.62500000  1
  Rh  Rh0  1  0.12500000  0.62500000  0.62500000  1
  Rh  Rh1  1  0.62500000  0.12500000  0.62500000  1
  S  S0  1  0.41815911  0.86253160  0.85965564  1
  S  S1  1  0.86191378  0.86191378  0.41754558  1
  S  S2  1  0.86191378  0.86191378  0.85862585  1
  S  S3  1  0.83184089  0.38746840  0.39034436  1
  S  S4  1  0.38746840  0.83184089  0.39034436  1
  S  S5  1  0.38808622  0.38808622  0.83245442  1
  S  S6  1  0.86253160  0.41815911  0.85965564  1
  S  S7  1  0.38808622  0.38808622  0.39137415  1
loop_
_geom_bond_atom_site_label_1
_geom_bond_atom_site_label_2
_geom_bond_distance
_geom_bond_site_symmetry_2
Li0 S5 2.398847 1_554
Li0 S7 2.398854 1_555
Li0 S4 2.467117 1_545
Li0 S3 2.467117 1_455
Li1 S1 2.398847 1_555
Li1 S2 2.398854 1_554
Li1 S6 2.467117 1_564
Li1 S0 2.467117 1_654
Pt0 S3 2.390879 1_555
Pt0 S0 2.390879 1_554
Pt0 S4 2.390879 1_555
Pt0 S6 2.390879 1_554
Pt0 S2 2.396173 1_554
Pt0 S7 2.396173 1_555
Pt1 S0 2.390889 1_555
Pt1 S3 2.390889 1_555
Pt1 S6 2.390889 1_555
Pt1 S4 2.390889 1_555
Pt1 S1 2.396173 1_555
Pt1 S5 2.396173 1_555
Rh0 S4 2.372346 1_555
Rh0 S6 2.372346 1_455
Rh0 S2 2.379359 1_455
Rh0 S7 2.379359 1_555
Rh0 S5 2.379363 1_555
Rh0 S1 2.379363 1_455
Rh1 S3 2.372346 1_555
Rh1 S0 2.372346 1_545
Rh1 S2 2.379359 1_545
Rh1 S7 2.379359 1_555
Rh1 S5 2.379363 1_555
Rh1 S1 2.379363 1_545
