# generated using pymatgen
data_Na4CdSn6Au
_symmetry_space_group_name_H-M   'P 1'
_cell_length_a   9.88361846
_cell_length_b   9.88361869
_cell_length_c   7.45528418
_cell_angle_alpha   90.00000000
_cell_angle_beta   90.00000000
_cell_angle_gamma   119.99999924
_symmetry_Int_Tables_number   1
_chemical_formula_structural   Na4CdSn6Au
_chemical_formula_sum   'Na8 Cd2 Sn12 Au2'
_cell_volume   630.70575137
_cell_formula_units_Z   2
loop_
 _symmetry_equiv_pos_site_id
 _symmetry_equiv_pos_as_xyz
  1  'x, y, z'
loop_
 _atom_site_type_symbol
 _atom_site_label
 _atom_site_symmetry_multiplicity
 _atom_site_fract_x
 _atom_site_fract_y
 _atom_site_fract_z
 _atom_site_occupancy
  Na  Na0  1  0.53008160  0.06016320  0.24484625  1
  Na  Na1  1  0.06016320  0.53008160  0.75515375  1
  Na  Na2  1  0.46991840  0.53008160  0.75515375  1
  Na  Na3  1  0.53008160  0.46991840  0.24484625  1
  Na  Na4  1  0.46991840  0.93983680  0.75515375  1
  Na  Na5  1  0.93983680  0.46991840  0.24484625  1
  Na  Na6  1  0.00000000  0.00000000  0.75717569  1
  Na  Na7  1  0.00000000  0.00000000  0.24282431  1
  Cd  Cd0  1  0.33333300  0.66666700  0.42802438  1
  Cd  Cd1  1  0.66666700  0.33333300  0.57197562  1
  Sn  Sn0  1  0.17211474  0.82788526  0.04876533  1
  Sn  Sn1  1  0.83264788  0.66529577  0.55041675  1
  Sn  Sn2  1  0.33470423  0.16735212  0.55041675  1
  Sn  Sn3  1  0.82788526  0.17211474  0.95123467  1
  Sn  Sn4  1  0.82788526  0.65577153  0.95123467  1
  Sn  Sn5  1  0.83264788  0.16735212  0.55041675  1
  Sn  Sn6  1  0.34422847  0.17211474  0.95123467  1
  Sn  Sn7  1  0.65577153  0.82788526  0.04876533  1
  Sn  Sn8  1  0.66529577  0.83264788  0.44958325  1
  Sn  Sn9  1  0.16735212  0.33470423  0.44958325  1
  Sn  Sn10  1  0.16735212  0.83264788  0.44958325  1
  Sn  Sn11  1  0.17211474  0.34422847  0.04876533  1
  Au  Au0  1  0.66666700  0.33333300  0.96621710  1
  Au  Au1  1  0.33333300  0.66666700  0.03378290  1
loop_
_geom_bond_atom_site_label_1
_geom_bond_atom_site_label_2
_geom_bond_distance
_geom_bond_site_symmetry_2
Na0 Sn3 3.379721 1_554
Na0 Sn6 3.379728 1_554
Na0 Sn0 3.435485 1_545
Na0 Sn7 3.435492 1_545
Na0 Sn5 3.476612 1_555
Na0 Sn2 3.476612 1_555
Na0 Sn8 3.489623 1_545
Na0 Sn10 3.489623 1_545
Na1 Sn0 3.379721 1_556
Na1 Sn11 3.379728 1_556
Na1 Sn3 3.435485 1_455
Na1 Sn4 3.435492 1_455
Na1 Sn9 3.476612 1_555
Na1 Sn10 3.476612 1_555
Na1 Sn1 3.489623 1_455
Na1 Sn5 3.489623 1_455
Na2 Sn11 3.379722 1_556
Na2 Sn7 3.379722 1_556
Na2 Sn4 3.435483 1_555
Na2 Sn6 3.435483 1_555
Na2 Sn9 3.476612 1_555
Na2 Sn8 3.476612 1_555
Na2 Sn1 3.489623 1_555
Na2 Sn2 3.489623 1_555
Na3 Sn4 3.379722 1_554
Na3 Sn6 3.379722 1_554
Na3 Sn11 3.435483 1_555
Na3 Sn7 3.435483 1_555
Na3 Sn1 3.476612 1_555
Na3 Sn2 3.476612 1_555
Na3 Sn9 3.489623 1_555
Na3 Sn8 3.489623 1_555
Na4 Sn0 3.379721 1_556
Na4 Sn7 3.379728 1_556
Na4 Sn3 3.435485 1_565
Na4 Sn6 3.435492 1_565
Na4 Sn10 3.476612 1_555
Na4 Sn8 3.476612 1_555
Na4 Sn2 3.489623 1_565
Na4 Sn5 3.489623 1_565
Na5 Sn3 3.379721 1_554
Na5 Sn4 3.379728 1_554
Na5 Sn0 3.435485 1_655
Na5 Sn11 3.435492 1_655
Na5 Sn1 3.476612 1_555
Na5 Sn5 3.476612 1_555
Na5 Sn9 3.489623 1_655
Na5 Sn10 3.489623 1_655
Na6 Sn5 3.253252 1_455
Na6 Sn2 3.253252 1_555
Na6 Sn1 3.253252 1_445
Na6 Sn6 3.282449 1_555
Na6 Sn4 3.282449 1_445
Na6 Sn3 3.282456 1_455
Na6 Sn7 3.661572 1_446
Na6 Sn11 3.661572 1_556
Na6 Sn0 3.661579 1_546
Na6 Sn10 3.669646 1_545
Na6 Sn8 3.669646 1_445
Na6 Sn9 3.669647 1_555
Na7 Sn10 3.253252 1_545
Na7 Sn8 3.253252 1_445
Na7 Sn9 3.253252 1_555
Na7 Sn7 3.282449 1_445
Na7 Sn11 3.282449 1_555
Na7 Sn0 3.282456 1_545
Na7 Sn6 3.661572 1_554
Na7 Sn4 3.661572 1_444
Na7 Sn3 3.661579 1_454
Na7 Sn5 3.669646 1_455
Na7 Sn2 3.669646 1_555
Na7 Sn1 3.669647 1_445
Cd0 Sn10 2.845957 1_555
Cd0 Sn8 2.845966 1_555
Cd0 Sn9 2.845966 1_555
Cd0 Na1 3.378620 1_555
Cd0 Na4 3.378620 1_555
Cd0 Na2 3.378626 1_555
Cd0 Na5 3.634446 1_455
Cd0 Na0 3.634446 1_565
Cd0 Na3 3.634454 1_555
Cd1 Sn5 2.845957 1_555
Cd1 Sn2 2.845966 1_555
Cd1 Sn1 2.845966 1_555
Cd1 Na5 3.378620 1_555
Cd1 Na0 3.378620 1_555
Cd1 Na3 3.378626 1_555
Cd1 Na1 3.634446 1_655
Cd1 Na4 3.634446 1_545
Cd1 Na2 3.634454 1_555
Sn0 Sn10 2.989324 1_555
Sn0 Sn4 3.034813 1_454
Sn0 Sn6 3.034813 1_564
Sn1 Sn10 2.961875 1_655
Sn1 Sn8 2.961875 1_555
Sn1 Sn4 2.989323 1_555
Sn2 Sn9 2.961875 1_555
Sn2 Sn6 2.989323 1_555
Sn3 Sn5 2.989324 1_555
Sn3 Sn7 3.034813 1_546
Sn4 Sn7 3.034797 1_556
Sn5 Sn9 2.961875 1_655
Sn5 Sn8 2.961875 1_545
Sn7 Sn8 2.989323 1_555
Sn10 Sn2 2.961875 1_565
Sn11 Sn9 2.989323 1_555
Sn11 Sn6 3.034797 1_554
Sn11 Sn3 3.034813 1_454
Au0 Sn3 2.762144 1_555
Au0 Sn6 2.762161 1_555
Au0 Sn4 2.762161 1_555
Au0 Cd1 2.939182 1_555
Au0 Na5 3.127639 1_556
Au0 Na0 3.127639 1_556
Au0 Na3 3.127646 1_556
Au1 Sn0 2.762144 1_555
Au1 Sn7 2.762161 1_555
Au1 Sn11 2.762161 1_555
Au1 Cd0 2.939182 1_555
Au1 Na1 3.127639 1_554
Au1 Na4 3.127639 1_554
Au1 Na2 3.127646 1_554
