# generated using pymatgen
data_Hf4Tc(AsRu)6
_symmetry_space_group_name_H-M   'P 1'
_cell_length_a   7.01724652
_cell_length_b   7.01724606
_cell_length_c   7.01724701
_cell_angle_alpha   109.47123184
_cell_angle_beta   109.47123050
_cell_angle_gamma   109.47120811
_symmetry_Int_Tables_number   1
_chemical_formula_structural   Hf4Tc(AsRu)6
_chemical_formula_sum   'Hf4 Tc1 As6 Ru6'
_cell_volume   265.99793643
_cell_formula_units_Z   1
loop_
 _symmetry_equiv_pos_site_id
 _symmetry_equiv_pos_as_xyz
  1  'x, y, z'
loop_
 _atom_site_type_symbol
 _atom_site_label
 _atom_site_symmetry_multiplicity
 _atom_site_fract_x
 _atom_site_fract_y
 _atom_site_fract_z
 _atom_site_occupancy
  Hf  Hf0  1  0.00000000  0.00000000  0.50000000  1
  Hf  Hf1  1  0.50000000  0.00000000  0.00000000  1
  Hf  Hf2  1  0.00000000  0.50000000  0.00000000  1
  Hf  Hf3  1  0.50000000  0.50000000  0.50000000  1
  Tc  Tc0  1  0.00000000  0.00000000  0.00000000  1
  As  As0  1  0.31270850  0.00000000  0.31270850  1
  As  As1  1  0.00000000  0.31270850  0.31270850  1
  As  As2  1  1.00000000  0.68729150  0.68729150  1
  As  As3  1  0.31270850  0.31270850  0.00000000  1
  As  As4  1  0.68729150  0.68729150  1.00000000  1
  As  As5  1  0.68729150  1.00000000  0.68729150  1
  Ru  Ru0  1  0.75000000  0.50000000  0.25000000  1
  Ru  Ru1  1  0.50000000  0.75000000  0.25000000  1
  Ru  Ru2  1  0.50000000  0.25000000  0.75000000  1
  Ru  Ru3  1  0.75000000  0.25000000  0.50000000  1
  Ru  Ru4  1  0.25000000  0.75000000  0.50000000  1
  Ru  Ru5  1  0.25000000  0.50000000  0.75000000  1
loop_
_geom_bond_atom_site_label_1
_geom_bond_atom_site_label_2
_geom_bond_distance
_geom_bond_site_symmetry_2
Hf0 Ru0 2.864779 1_445
Hf0 Ru5 2.864779 1_555
Hf0 Ru4 2.864779 1_545
Hf0 Ru3 2.864779 1_455
Hf0 Ru2 2.864779 1_555
Hf0 Ru1 2.864779 1_445
Hf1 Ru4 2.864779 1_544
Hf1 Ru3 2.864779 1_555
Hf1 Ru0 2.864779 1_555
Hf1 Ru5 2.864779 1_544
Hf1 Ru2 2.864779 1_554
Hf1 Ru1 2.864779 1_545
Hf2 Ru4 2.864779 1_555
Hf2 Ru3 2.864779 1_454
Hf2 Ru1 2.864779 1_555
Hf2 Ru2 2.864779 1_454
Hf2 Ru5 2.864779 1_554
Hf2 Ru0 2.864779 1_455
Hf3 Ru3 2.864779 1_555
Hf3 Ru4 2.864779 1_555
Hf3 Ru1 2.864779 1_555
Hf3 Ru2 2.864779 1_555
Hf3 Ru5 2.864779 1_555
Hf3 Ru0 2.864779 1_555
As0 Ru2 2.531117 1_555
As0 Ru1 2.531117 1_545
As0 Ru3 2.531117 1_555
As0 Ru4 2.531118 1_545
As0 Tc0 2.533820 1_555
As0 Hf2 2.909491 1_545
As0 Hf3 2.909491 1_555
As0 Hf0 2.909492 1_555
As0 Hf1 2.909492 1_555
As1 Ru5 2.531117 1_555
As1 Ru0 2.531117 1_455
As1 Ru4 2.531117 1_555
As1 Ru3 2.531118 1_455
As1 Tc0 2.533820 1_555
As1 Hf1 2.909491 1_455
As1 Hf3 2.909491 1_555
As1 Hf0 2.909491 1_555
As1 Hf2 2.909492 1_555
As2 Ru0 2.531117 1_555
As2 Ru5 2.531117 1_655
As2 Ru3 2.531117 1_555
As2 Ru4 2.531118 1_655
As2 Tc0 2.533820 1_666
As2 Hf1 2.909491 1_666
As2 Hf3 2.909491 1_555
As2 Hf0 2.909491 1_665
As2 Hf2 2.909492 1_656
As3 Ru1 2.531117 1_555
As3 Ru0 2.531117 1_555
As3 Ru5 2.531118 1_554
As3 Ru2 2.531118 1_554
As3 Tc0 2.533820 1_555
As3 Hf0 2.909491 1_554
As3 Hf1 2.909491 1_555
As3 Hf2 2.909491 1_555
As3 Hf3 2.909491 1_555
As4 Ru2 2.531117 1_555
As4 Ru5 2.531117 1_555
As4 Ru0 2.531118 1_556
As4 Ru1 2.531118 1_556
As4 Tc0 2.533820 1_666
As4 Hf0 2.909491 1_666
As4 Hf1 2.909491 1_566
As4 Hf2 2.909491 1_656
As4 Hf3 2.909491 1_555
As5 Ru1 2.531117 1_555
As5 Ru2 2.531117 1_565
As5 Ru4 2.531117 1_555
As5 Ru3 2.531118 1_565
As5 Tc0 2.533820 1_666
As5 Hf2 2.909491 1_666
As5 Hf3 2.909491 1_555
As5 Hf0 2.909492 1_665
As5 Hf1 2.909492 1_566
