# generated using pymatgen
data_Ca2Fe(CN)2
_symmetry_space_group_name_H-M   'P 1'
_cell_length_a   6.60205010
_cell_length_b   6.60204984
_cell_length_c   6.60205096
_cell_angle_alpha   136.44029886
_cell_angle_beta   112.92346645
_cell_angle_gamma   83.44493592
_symmetry_Int_Tables_number   1
_chemical_formula_structural   Ca2Fe(CN)2
_chemical_formula_sum   'Ca4 Fe2 C4 N4'
_cell_volume   176.11831640
_cell_formula_units_Z   2
loop_
 _symmetry_equiv_pos_site_id
 _symmetry_equiv_pos_as_xyz
  1  'x, y, z'
loop_
 _atom_site_type_symbol
 _atom_site_label
 _atom_site_symmetry_multiplicity
 _atom_site_fract_x
 _atom_site_fract_y
 _atom_site_fract_z
 _atom_site_occupancy
  Ca  Ca0  1  0.19495076  0.35084172  0.84410804  1
  Ca  Ca1  1  0.80504924  0.64915828  0.15589196  1
  Ca  Ca2  1  0.50673268  0.85084172  0.65589196  1
  Ca  Ca3  1  0.49326732  0.14915828  0.34410804  1
  Fe  Fe0  1  0.00000000  0.25000000  0.25000000  1
  Fe  Fe1  1  0.00000000  0.75000000  0.75000000  1
  C  C0  1  0.91133053  0.07545325  0.83587828  1
  C  C1  1  0.08866947  0.92454675  0.16412172  1
  C  C2  1  0.23957397  0.57545325  0.66412172  1
  C  C3  1  0.76042603  0.42454675  0.33587828  1
  N  N0  1  0.79972575  0.12852352  0.67120324  1
  N  N1  1  0.20027425  0.87147648  0.32879676  1
  N  N2  1  0.45732128  0.62852352  0.82879676  1
  N  N3  1  0.54267872  0.37147648  0.17120324  1
loop_
_geom_bond_atom_site_label_1
_geom_bond_atom_site_label_2
_geom_bond_distance
_geom_bond_site_symmetry_2
Ca0 N3 2.394861 1_556
Ca0 N1 2.460596 1_556
Ca0 N1 2.460597 1_545
Ca0 N0 2.528161 1_455
Ca0 N2 2.738899 1_555
Ca1 N2 2.394861 1_554
Ca1 N0 2.460596 1_554
Ca1 N0 2.460597 1_565
Ca1 N1 2.528161 1_655
Ca1 N3 2.738899 1_555
Ca2 N1 2.394863 1_555
Ca2 N3 2.460597 1_555
Ca2 N3 2.460597 1_566
Ca2 N2 2.528144 1_555
Ca2 N0 2.738899 1_565
Ca3 N0 2.394863 1_555
Ca3 N2 2.460597 1_555
Ca3 N2 2.460597 1_544
Ca3 N3 2.528144 1_555
Ca3 N1 2.738899 1_545
C0 N0 1.310250 1_555
C0 Fe0 1.867258 1_656
C0 Fe1 1.867260 1_645
C0 Ca2 2.573730 1_545
C0 Ca0 2.714693 1_655
C1 N1 1.310250 1_555
C1 Fe1 1.867258 1_554
C1 Fe0 1.867260 1_565
C1 Ca3 2.573730 1_565
C1 Ca1 2.714693 1_455
C2 N2 1.310261 1_555
C2 Fe1 1.867252 1_555
C2 Fe0 1.867256 1_555
C2 Ca0 2.573725 1_555
C2 Ca2 2.714683 1_555
C3 N3 1.310261 1_555
C3 Fe0 1.867252 1_655
C3 Fe1 1.867256 1_655
C3 Ca1 2.573725 1_555
C3 Ca3 2.714683 1_555
