# generated using pymatgen
data_Lu4B16Mo3W
_symmetry_space_group_name_H-M   'P 1'
_cell_length_a   3.57543394
_cell_length_b   5.97050869
_cell_length_c   11.51691917
_cell_angle_alpha   89.99794084
_cell_angle_beta   90.00000000
_cell_angle_gamma   90.00000000
_symmetry_Int_Tables_number   1
_chemical_formula_structural   Lu4B16Mo3W
_chemical_formula_sum   'Lu4 B16 Mo3 W1'
_cell_volume   245.85350927
_cell_formula_units_Z   1
loop_
 _symmetry_equiv_pos_site_id
 _symmetry_equiv_pos_as_xyz
  1  'x, y, z'
loop_
 _atom_site_type_symbol
 _atom_site_label
 _atom_site_symmetry_multiplicity
 _atom_site_fract_x
 _atom_site_fract_y
 _atom_site_fract_z
 _atom_site_occupancy
  Lu  Lu0  1  0.00000000  0.62822096  0.35084711  1
  Lu  Lu1  1  0.00000000  0.37121257  0.64890029  1
  Lu  Lu2  1  0.00000000  0.12844976  0.14907473  1
  Lu  Lu3  1  0.00000000  0.87178180  0.85132332  1
  B  B0  1  0.50000000  0.78910538  0.18655191  1
  B  B1  1  0.50000000  0.21113918  0.81372367  1
  B  B2  1  0.50000000  0.28906950  0.31339217  1
  B  B3  1  0.50000000  0.71011536  0.68687198  1
  B  B4  1  0.50000000  0.86809438  0.03172549  1
  B  B5  1  0.50000000  0.13206606  0.96849008  1
  B  B6  1  0.50000000  0.36756216  0.46796709  1
  B  B7  1  0.50000000  0.63162695  0.53127549  1
  B  B8  1  0.50000000  0.88526191  0.45135883  1
  B  B9  1  0.50000000  0.11523037  0.54807380  1
  B  B10  1  0.50000000  0.38506060  0.04849317  1
  B  B11  1  0.50000000  0.61505702  0.95169481  1
  B  B12  1  0.50000000  0.97803159  0.30517409  1
  B  B13  1  0.50000000  0.02288389  0.69485923  1
  B  B14  1  0.50000000  0.47779035  0.19481016  1
  B  B15  1  0.50000000  0.52189940  0.80539904  1
  Mo  Mo0  1  0.00000000  0.63045964  0.08372530  1
  Mo  Mo1  1  0.00000000  0.36977334  0.91638043  1
  Mo  Mo2  1  0.00000000  0.13102972  0.41569143  1
  W  W0  1  0.00000000  0.86907512  0.58419638  1
loop_
_geom_bond_atom_site_label_1
_geom_bond_atom_site_label_2
_geom_bond_distance
_geom_bond_site_symmetry_2
Lu0 W0 3.048057 1_555
Lu0 Mo2 3.060958 1_555
Lu0 Mo0 3.076449 1_555
Lu0 Mo2 3.093546 1_565
Lu1 Mo2 3.044741 1_555
Lu1 W0 3.064451 1_555
Lu1 Mo1 3.080559 1_555
Lu1 W0 3.089267 1_545
Lu2 Mo1 3.042643 1_554
Lu2 Mo0 3.067058 1_545
Lu2 Mo2 3.070642 1_555
Lu2 Mo0 3.090277 1_555
Lu3 Mo0 3.039674 1_556
Lu3 Mo1 3.066242 1_565
Lu3 W0 3.076522 1_555
Lu3 Mo1 3.089451 1_555
B0 B12 1.771683 1_555
B0 B4 1.844418 1_555
B0 B14 1.861137 1_555
B0 Mo0 2.344276 1_555
B0 Mo0 2.344276 1_655
B0 Lu2 2.736253 1_565
B0 Lu2 2.736253 1_665
B0 Lu0 2.774672 1_555
B0 Lu0 2.774672 1_655
B1 B13 1.771291 1_555
B1 B5 1.843879 1_555
B1 B15 1.857869 1_555
B1 Mo1 2.343261 1_655
B1 Mo1 2.343261 1_555
B1 Lu3 2.736533 1_645
B1 Lu3 2.736533 1_545
B1 Lu1 2.777154 1_655
B1 Lu1 2.777154 1_555
B2 B6 1.840894 1_555
B2 Mo2 2.339718 1_655
B2 Mo2 2.339718 1_555
B2 Lu0 2.735383 1_555
B2 Lu0 2.735383 1_655
B2 Lu2 2.774347 1_555
B2 Lu2 2.774347 1_655
B3 B7 1.852268 1_555
B3 W0 2.344122 1_655
B3 W0 2.344122 1_555
B3 Lu1 2.735229 1_655
B3 Lu1 2.735229 1_555
B3 Lu3 2.777565 1_555
B3 Lu3 2.777565 1_655
B4 B5 1.736152 1_564
B4 Mo0 2.359559 1_655
B4 Mo0 2.359559 1_555
B4 Lu2 2.727447 1_565
B4 Lu2 2.727447 1_665
B4 Lu3 2.741014 1_554
B4 Lu3 2.741014 1_654
B5 Mo1 2.360141 1_555
B5 Mo1 2.360141 1_655
B5 Lu3 2.726164 1_545
B5 Lu3 2.726164 1_645
B5 Lu2 2.742604 1_656
B5 Lu2 2.742604 1_556
B6 B7 1.737057 1_555
B6 B9 1.766564 1_555
B6 Mo2 2.356443 1_555
B6 Mo2 2.356443 1_655
B6 Lu0 2.727118 1_555
B6 Lu0 2.727118 1_655
B6 Lu1 2.745652 1_555
B6 Lu1 2.745652 1_655
B7 B8 1.772066 1_555
B7 W0 2.361631 1_555
B7 W0 2.361631 1_655
B7 Lu1 2.729166 1_655
B7 Lu1 2.729166 1_555
B7 Lu0 2.741231 1_655
B7 Lu0 2.741231 1_555
B8 B9 1.768049 1_565
B8 Mo2 2.348993 1_665
B8 Mo2 2.348993 1_565
B8 W0 2.354951 1_655
B8 W0 2.354951 1_555
B8 Lu0 2.625121 1_555
B8 Lu0 2.625121 1_655
B9 W0 2.351361 1_645
B9 W0 2.351361 1_545
B9 Mo2 2.351454 1_655
B9 Mo2 2.351454 1_555
B9 Lu1 2.623034 1_655
B9 Lu1 2.623034 1_555
B10 B11 1.768722 1_554
B10 B5 1.769375 1_554
B10 B14 1.773759 1_555
B10 Mo0 2.346765 1_655
B10 Mo0 2.346765 1_555
B10 Mo1 2.349326 1_554
B10 Mo1 2.349326 1_654
B10 Lu2 2.623927 1_555
B10 Lu2 2.623927 1_655
B11 B4 1.769758 1_556
B11 B15 1.774326 1_555
B11 Mo1 2.346499 1_655
B11 Mo1 2.346499 1_555
B11 Mo0 2.348739 1_556
B11 Mo0 2.348739 1_656
B11 Lu3 2.623257 1_555
B11 Lu3 2.623257 1_655
B12 B8 1.772349 1_555
B12 B2 1.859468 1_565
B12 Mo2 2.377083 1_665
B12 Mo2 2.377083 1_565
B12 Lu2 2.689680 1_565
B12 Lu2 2.689680 1_665
B12 Lu0 2.799031 1_555
B12 Lu0 2.799031 1_655
B13 B9 1.778137 1_555
B13 B3 1.869655 1_545
B13 W0 2.379844 1_645
B13 W0 2.379844 1_545
B13 Lu3 2.693854 1_545
B13 Lu3 2.693854 1_645
B13 Lu1 2.793057 1_655
B13 Lu1 2.793057 1_555
B14 B2 1.770483 1_555
B14 Mo0 2.379801 1_655
B14 Mo0 2.379801 1_555
B14 Lu0 2.689267 1_555
B14 Lu0 2.689267 1_655
B14 Lu2 2.797101 1_555
B14 Lu2 2.797101 1_655
B15 B3 1.768078 1_555
B15 Mo1 2.377920 1_655
B15 Mo1 2.377920 1_555
B15 Lu1 2.693335 1_555
B15 Lu1 2.693335 1_655
B15 Lu3 2.799924 1_655
B15 Lu3 2.799924 1_555
Mo0 Mo1 2.477330 1_554
Mo2 W0 2.492396 1_545
