# generated using pymatgen
data_Na(Ca3Ga2)7
_symmetry_space_group_name_H-M   'P 1'
_cell_length_a   11.31469685
_cell_length_b   11.31469768
_cell_length_c   11.31469782
_cell_angle_alpha   60.00000247
_cell_angle_beta   60.00000005
_cell_angle_gamma   60.00000412
_symmetry_Int_Tables_number   1
_chemical_formula_structural   Na(Ca3Ga2)7
_chemical_formula_sum   'Na1 Ca21 Ga14'
_cell_volume   1024.26860484
_cell_formula_units_Z   1
loop_
 _symmetry_equiv_pos_site_id
 _symmetry_equiv_pos_as_xyz
  1  'x, y, z'
loop_
 _atom_site_type_symbol
 _atom_site_label
 _atom_site_symmetry_multiplicity
 _atom_site_fract_x
 _atom_site_fract_y
 _atom_site_fract_z
 _atom_site_occupancy
  Na  Na0  1  0.50000000  0.50000000  0.50000000  1
  Ca  Ca0  1  0.00000000  0.00000000  0.00000000  1
  Ca  Ca1  1  0.12943164  0.12943164  0.12943164  1
  Ca  Ca2  1  0.38829392  0.87056836  0.87056836  1
  Ca  Ca3  1  0.87056836  0.38829392  0.87056836  1
  Ca  Ca4  1  0.87056836  0.87056836  0.38829392  1
  Ca  Ca5  1  0.12943164  0.61170608  0.12943164  1
  Ca  Ca6  1  0.12943164  0.12943164  0.61170608  1
  Ca  Ca7  1  0.61170608  0.12943164  0.12943164  1
  Ca  Ca8  1  0.87056836  0.87056836  0.87056836  1
  Ca  Ca9  1  0.50000000  0.83289780  0.50000000  1
  Ca  Ca10  1  0.83289780  0.50000000  0.50000000  1
  Ca  Ca11  1  0.50000000  0.83289780  0.16710220  1
  Ca  Ca12  1  0.16710220  0.50000000  0.83289780  1
  Ca  Ca13  1  0.83289780  0.50000000  0.16710220  1
  Ca  Ca14  1  0.50000000  0.50000000  0.83289780  1
  Ca  Ca15  1  0.16710220  0.83289780  0.50000000  1
  Ca  Ca16  1  0.50000000  0.16710220  0.83289780  1
  Ca  Ca17  1  0.50000000  0.50000000  0.16710220  1
  Ca  Ca18  1  0.83289780  0.16710220  0.50000000  1
  Ca  Ca19  1  0.16710220  0.50000000  0.50000000  1
  Ca  Ca20  1  0.50000000  0.16710220  0.50000000  1
  Ga  Ga0  1  0.21693002  0.78306998  0.21693002  1
  Ga  Ga1  1  0.21693002  0.78306998  0.78306998  1
  Ga  Ga2  1  0.78306998  0.21693002  0.21693002  1
  Ga  Ga3  1  0.78306998  0.78306998  0.21693002  1
  Ga  Ga4  1  0.21693002  0.21693002  0.78306998  1
  Ga  Ga5  1  0.78306998  0.21693002  0.78306998  1
  Ga  Ga6  1  0.30874165  0.30874065  0.30874065  1
  Ga  Ga7  1  0.92622296  0.69125935  0.69125935  1
  Ga  Ga8  1  0.69125935  0.92622296  0.69125935  1
  Ga  Ga9  1  0.69125935  0.69125935  0.92622296  1
  Ga  Ga10  1  0.30874065  0.07377704  0.30874065  1
  Ga  Ga11  1  0.30874065  0.30874065  0.07377704  1
  Ga  Ga12  1  0.07377704  0.30874065  0.30874065  1
  Ga  Ga13  1  0.69125935  0.69125935  0.69125835  1
loop_
_geom_bond_atom_site_label_1
_geom_bond_atom_site_label_2
_geom_bond_distance
_geom_bond_site_symmetry_2
Ca0 Ga4 3.471184 1_554
Ca0 Ga3 3.471184 1_445
Ca0 Ga2 3.471184 1_455
Ca0 Ga1 3.471184 1_544
Ca0 Ga0 3.471184 1_545
Ca0 Ga5 3.471184 1_454
Ca1 Ga11 3.192146 1_555
Ca1 Ga10 3.192146 1_555
Ca1 Ga12 3.192146 1_555
Ca1 Ga2 3.246394 1_455
Ca1 Ga4 3.246394 1_554
Ca1 Ga0 3.246394 1_545
Ca2 Ga13 3.192161 1_555
Ca2 Ga8 3.192165 1_555
Ca2 Ga9 3.192165 1_555
Ca2 Ga1 3.246384 1_555
Ca2 Ga0 3.246393 1_556
Ca2 Ga4 3.246393 1_565
Ca3 Ga13 3.192161 1_555
Ca3 Ga7 3.192165 1_555
Ca3 Ga9 3.192165 1_555
Ca3 Ga5 3.246384 1_555
Ca3 Ga4 3.246392 1_655
Ca3 Ga2 3.246393 1_556
Ca4 Ga13 3.192151 1_555
Ca4 Ga8 3.192165 1_555
Ca4 Ga7 3.192165 1_555
Ca4 Ga3 3.246384 1_555
Ca4 Ga0 3.246392 1_655
Ca4 Ga2 3.246393 1_565
Ca5 Ga6 3.192161 1_555
Ca5 Ga12 3.192165 1_555
Ca5 Ga11 3.192165 1_555
Ca5 Ga0 3.246384 1_555
Ca5 Ga3 3.246392 1_455
Ca5 Ga1 3.246393 1_554
Ca6 Ga6 3.192161 1_555
Ca6 Ga10 3.192165 1_555
Ca6 Ga12 3.192165 1_555
Ca6 Ga4 3.246384 1_555
Ca6 Ga5 3.246392 1_455
Ca6 Ga1 3.246393 1_545
Ca7 Ga6 3.192151 1_555
Ca7 Ga10 3.192165 1_555
Ca7 Ga11 3.192165 1_555
Ca7 Ga2 3.246384 1_555
Ca7 Ga5 3.246393 1_554
Ca7 Ga3 3.246393 1_545
Ca8 Ga9 3.192146 1_555
Ca8 Ga8 3.192146 1_555
Ca8 Ga7 3.192146 1_555
Ca8 Ga1 3.246394 1_655
Ca8 Ga3 3.246394 1_556
Ca8 Ga5 3.246394 1_565
Ca9 Ga13 3.111482 1_555
Ca9 Ga10 3.111489 1_565
Ca9 Ga1 3.252093 1_555
Ca9 Ga3 3.252093 1_555
Ca9 Na0 3.766638 1_555
Ca10 Ga13 3.111482 1_555
Ca10 Ga12 3.111489 1_655
Ca10 Ga5 3.252093 1_555
Ca10 Ga3 3.252094 1_555
Ca10 Na0 3.766638 1_555
Ca11 Ga9 3.111482 1_554
Ca11 Ga10 3.111482 1_565
Ca11 Ga0 3.252093 1_555
Ca11 Ga3 3.252093 1_555
Ca11 Na0 3.766638 1_555
Ca12 Ga7 3.111482 1_455
Ca12 Ga11 3.111482 1_556
Ca12 Ga1 3.252093 1_555
Ca12 Ga4 3.252093 1_555
Ca12 Na0 3.766638 1_555
Ca13 Ga12 3.111482 1_655
Ca13 Ga9 3.111482 1_554
Ca13 Ga2 3.252093 1_555
Ca13 Ga3 3.252093 1_555
Ca13 Na0 3.766638 1_555
Ca14 Ga13 3.111488 1_555
Ca14 Ga11 3.111488 1_556
Ca14 Ga5 3.252093 1_555
Ca14 Ga1 3.252093 1_555
Ca14 Na0 3.766638 1_555
Ca15 Ga7 3.111482 1_455
Ca15 Ga10 3.111482 1_565
Ca15 Ga1 3.252093 1_555
Ca15 Ga0 3.252093 1_555
Ca15 Na0 3.766638 1_555
Ca16 Ga11 3.111482 1_556
Ca16 Ga8 3.111482 1_545
Ca16 Ga5 3.252093 1_555
Ca16 Ga4 3.252093 1_555
Ca16 Na0 3.766638 1_555
Ca17 Ga6 3.111482 1_555
Ca17 Ga9 3.111488 1_554
Ca17 Ga0 3.252093 1_555
Ca17 Ga2 3.252093 1_555
Ca17 Na0 3.766638 1_555
Ca18 Ga12 3.111482 1_655
Ca18 Ga8 3.111482 1_545
Ca18 Ga2 3.252093 1_555
Ca18 Ga5 3.252093 1_555
Ca18 Na0 3.766638 1_555
Ca19 Ga7 3.111489 1_455
Ca19 Ga6 3.111489 1_555
Ca19 Ga0 3.252093 1_555
Ca19 Ga4 3.252094 1_555
Ca19 Na0 3.766638 1_555
Ca20 Ga6 3.111482 1_555
Ca20 Ga8 3.111489 1_545
Ca20 Ga2 3.252093 1_555
Ca20 Ga4 3.252093 1_555
Ca20 Na0 3.766638 1_555
Ga7 Ga9 2.658542 1_555
Ga7 Ga8 2.658542 1_555
Ga8 Ga9 2.658542 1_555
Ga10 Ga12 2.658542 1_555
Ga10 Ga11 2.658542 1_555
Ga10 Ga6 2.658548 1_555
Ga11 Ga12 2.658542 1_555
Ga11 Ga6 2.658548 1_555
Ga12 Ga6 2.658553 1_555
Ga13 Ga7 2.658548 1_555
Ga13 Ga8 2.658548 1_555
Ga13 Ga9 2.658554 1_555
