# generated using pymatgen
data_KZrScS4
_symmetry_space_group_name_H-M   'P 1'
_cell_length_a   3.76314184
_cell_length_b   6.40226586
_cell_length_c   7.84889178
_cell_angle_alpha   74.84754974
_cell_angle_beta   90.00000000
_cell_angle_gamma   90.00000000
_symmetry_Int_Tables_number   1
_chemical_formula_structural   KZrScS4
_chemical_formula_sum   'K1 Zr1 Sc1 S4'
_cell_volume   182.52616689
_cell_formula_units_Z   1
loop_
 _symmetry_equiv_pos_site_id
 _symmetry_equiv_pos_as_xyz
  1  'x, y, z'
loop_
 _atom_site_type_symbol
 _atom_site_label
 _atom_site_symmetry_multiplicity
 _atom_site_fract_x
 _atom_site_fract_y
 _atom_site_fract_z
 _atom_site_occupancy
  K  K0  1  0.00000000  0.50000000  0.50000000  1
  Zr  Zr0  1  0.00000000  0.00000000  0.00000000  1
  Sc  Sc0  1  0.50000000  0.50000000  0.00000000  1
  S  S0  1  0.50000000  0.77676457  0.19112691  1
  S  S1  1  0.00000000  0.27019393  0.18570846  1
  S  S2  1  0.50000000  0.22323543  0.80887309  1
  S  S3  1  0.00000000  0.72980607  0.81429154  1
loop_
_geom_bond_atom_site_label_1
_geom_bond_atom_site_label_2
_geom_bond_distance
_geom_bond_site_symmetry_2
K0 S3 3.185488 1_555
K0 S1 3.185488 1_555
K0 S2 3.211170 1_455
K0 S2 3.211170 1_555
K0 S0 3.211170 1_455
K0 S0 3.211170 1_555
S0 Zr0 2.590854 1_565
S0 Zr0 2.590854 1_665
S0 Sc0 2.603787 1_555
S1 Zr0 2.536761 1_555
S1 Sc0 2.590071 1_455
S1 Sc0 2.590071 1_555
S2 Zr0 2.590854 1_556
S2 Zr0 2.590854 1_656
S2 Sc0 2.603787 1_556
S3 Zr0 2.536761 1_566
S3 Sc0 2.590071 1_456
S3 Sc0 2.590071 1_556
