# generated using pymatgen
data_Zr5BePb3
_symmetry_space_group_name_H-M   'P 1'
_cell_length_a   8.73665291
_cell_length_b   8.73665338
_cell_length_c   5.86218475
_cell_angle_alpha   90.00000000
_cell_angle_beta   90.00000000
_cell_angle_gamma   120.00000566
_symmetry_Int_Tables_number   1
_chemical_formula_structural   Zr5BePb3
_chemical_formula_sum   'Zr10 Be2 Pb6'
_cell_volume   387.50766425
_cell_formula_units_Z   2
loop_
 _symmetry_equiv_pos_site_id
 _symmetry_equiv_pos_as_xyz
  1  'x, y, z'
loop_
 _atom_site_type_symbol
 _atom_site_label
 _atom_site_symmetry_multiplicity
 _atom_site_fract_x
 _atom_site_fract_y
 _atom_site_fract_z
 _atom_site_occupancy
  Zr  Zr0  1  0.66666700  0.33333300  0.50000000  1
  Zr  Zr1  1  0.33333300  0.66666700  0.50000000  1
  Zr  Zr2  1  0.33333300  0.66666700  0.00000000  1
  Zr  Zr3  1  0.66666700  0.33333300  0.00000000  1
  Zr  Zr4  1  0.75274744  0.75274744  0.25000000  1
  Zr  Zr5  1  0.24725256  0.00000000  0.25000000  1
  Zr  Zr6  1  0.00000000  0.24725256  0.25000000  1
  Zr  Zr7  1  0.24725256  0.24725256  0.75000000  1
  Zr  Zr8  1  0.75274744  1.00000000  0.75000000  1
  Zr  Zr9  1  1.00000000  0.75274744  0.75000000  1
  Be  Be0  1  0.00000000  0.00000000  0.50000000  1
  Be  Be1  1  0.00000000  0.00000000  0.00000000  1
  Pb  Pb0  1  0.38997561  0.38997561  0.25000000  1
  Pb  Pb1  1  0.61002439  1.00000000  0.25000000  1
  Pb  Pb2  1  1.00000000  0.61002439  0.25000000  1
  Pb  Pb3  1  0.61002439  0.61002439  0.75000000  1
  Pb  Pb4  1  0.38997561  0.00000000  0.75000000  1
  Pb  Pb5  1  0.00000000  0.38997561  0.75000000  1
loop_
_geom_bond_atom_site_label_1
_geom_bond_atom_site_label_2
_geom_bond_distance
_geom_bond_site_symmetry_2
Zr0 Zr3 2.931092 1_556
Zr0 Zr3 2.931092 1_555
Zr1 Zr2 2.931092 1_555
Zr1 Zr2 2.931092 1_556
Be0 Zr7 2.610386 1_555
Be0 Zr4 2.610386 1_445
Be0 Zr5 2.610386 1_555
Be0 Zr8 2.610386 1_445
Be0 Zr6 2.610386 1_555
Be0 Zr9 2.610386 1_445
Be1 Zr7 2.610386 1_554
Be1 Zr4 2.610386 1_445
Be1 Zr5 2.610386 1_555
Be1 Zr8 2.610386 1_444
Be1 Zr6 2.610386 1_555
Be1 Zr9 2.610386 1_444
Pb0 Zr6 2.985742 1_555
Pb0 Zr5 2.985742 1_555
Pb0 Zr0 3.071254 1_555
Pb0 Zr3 3.071254 1_555
Pb0 Zr2 3.071254 1_555
Pb0 Zr1 3.071254 1_555
Pb0 Zr4 3.169411 1_555
Pb0 Zr7 3.185297 1_555
Pb0 Zr7 3.185297 1_554
Pb1 Zr6 2.985742 1_665
Pb1 Zr4 2.985742 1_555
Pb1 Zr3 3.071247 1_565
Pb1 Zr0 3.071247 1_565
Pb1 Zr2 3.071249 1_555
Pb1 Zr1 3.071249 1_555
Pb1 Zr5 3.169412 1_565
Pb1 Zr8 3.185297 1_555
Pb1 Zr8 3.185297 1_554
Pb2 Zr5 2.985742 1_665
Pb2 Zr4 2.985742 1_555
Pb2 Zr1 3.071246 1_655
Pb2 Zr2 3.071246 1_655
Pb2 Zr3 3.071249 1_555
Pb2 Zr0 3.071249 1_555
Pb2 Zr6 3.169412 1_655
Pb2 Zr9 3.185297 1_554
Pb2 Zr9 3.185297 1_555
Pb3 Zr9 2.985742 1_555
Pb3 Zr8 2.985742 1_555
Pb3 Zr2 3.071254 1_556
Pb3 Zr1 3.071254 1_555
Pb3 Zr0 3.071254 1_555
Pb3 Zr3 3.071254 1_556
Pb3 Zr7 3.169411 1_555
Pb3 Zr4 3.185297 1_556
Pb3 Zr4 3.185297 1_555
Pb4 Zr9 2.985742 1_445
Pb4 Zr7 2.985742 1_555
Pb4 Zr1 3.071247 1_545
Pb4 Zr2 3.071247 1_546
Pb4 Zr0 3.071249 1_555
Pb4 Zr3 3.071249 1_556
Pb4 Zr8 3.169412 1_545
Pb4 Zr5 3.185297 1_556
Pb4 Zr5 3.185297 1_555
Pb5 Zr8 2.985742 1_445
Pb5 Zr7 2.985742 1_555
Pb5 Zr3 3.071246 1_456
Pb5 Zr0 3.071246 1_455
Pb5 Zr2 3.071249 1_556
Pb5 Zr1 3.071249 1_555
Pb5 Zr9 3.169412 1_455
Pb5 Zr6 3.185297 1_556
Pb5 Zr6 3.185297 1_555
