# generated using pymatgen
data_NaYFeH6
_symmetry_space_group_name_H-M   'P 1'
_cell_length_a   4.80044926
_cell_length_b   4.80044933
_cell_length_c   4.80044967
_cell_angle_alpha   60.00000441
_cell_angle_beta   60.00000395
_cell_angle_gamma   59.99999525
_symmetry_Int_Tables_number   1
_chemical_formula_structural   NaYFeH6
_chemical_formula_sum   'Na1 Y1 Fe1 H6'
_cell_volume   78.22232289
_cell_formula_units_Z   1
loop_
 _symmetry_equiv_pos_site_id
 _symmetry_equiv_pos_as_xyz
  1  'x, y, z'
loop_
 _atom_site_type_symbol
 _atom_site_label
 _atom_site_symmetry_multiplicity
 _atom_site_fract_x
 _atom_site_fract_y
 _atom_site_fract_z
 _atom_site_occupancy
  Na  Na0  1  0.75000000  0.75000000  0.75000000  1
  Y  Y0  1  0.25000000  0.25000000  0.25000000  1
  Fe  Fe0  1  0.00000000  0.00000000  0.00000000  1
  H  H0  1  0.76722270  0.76722270  0.23277730  1
  H  H1  1  0.23277730  0.76722270  0.23277730  1
  H  H2  1  0.76722270  0.23277730  0.23277730  1
  H  H3  1  0.23277730  0.23277730  0.76722270  1
  H  H4  1  0.76722270  0.23277730  0.76722270  1
  H  H5  1  0.23277730  0.76722270  0.76722270  1
loop_
_geom_bond_atom_site_label_1
_geom_bond_atom_site_label_2
_geom_bond_distance
_geom_bond_site_symmetry_2
Fe0 H1 1.580293 1_545
Fe0 H2 1.580293 1_455
Fe0 H5 1.580293 1_544
Fe0 H4 1.580293 1_454
Fe0 H3 1.580293 1_554
Fe0 H0 1.580293 1_445
H0 Y0 2.403071 1_565
H0 Y0 2.403071 1_655
H0 Na0 2.403071 1_554
H0 Na0 2.403071 1_555
H1 Y0 2.403071 1_555
H1 Y0 2.403071 1_565
H1 Na0 2.403071 1_554
H1 Na0 2.403071 1_455
H2 Y0 2.403071 1_555
H2 Y0 2.403071 1_655
H2 Na0 2.403071 1_554
H2 Na0 2.403071 1_545
H3 Na0 2.403071 1_545
H3 Na0 2.403071 1_455
H3 Y0 2.403071 1_556
H3 Y0 2.403071 1_555
H4 Na0 2.403071 1_555
H4 Na0 2.403071 1_545
H4 Y0 2.403071 1_556
H4 Y0 2.403071 1_655
H5 Na0 2.403071 1_555
H5 Na0 2.403071 1_455
H5 Y0 2.403071 1_556
H5 Y0 2.403071 1_565
