# generated using pymatgen
data_Sr4HfFe2WO12
_symmetry_space_group_name_H-M   'P 1'
_cell_length_a   5.60121731
_cell_length_b   5.64923808
_cell_length_c   9.74204504
_cell_angle_alpha   89.50957346
_cell_angle_beta   106.67205384
_cell_angle_gamma   119.74020510
_symmetry_Int_Tables_number   1
_chemical_formula_structural   Sr4HfFe2WO12
_chemical_formula_sum   'Sr4 Hf1 Fe2 W1 O12'
_cell_volume   253.07152770
_cell_formula_units_Z   1
loop_
 _symmetry_equiv_pos_site_id
 _symmetry_equiv_pos_as_xyz
  1  'x, y, z'
loop_
 _atom_site_type_symbol
 _atom_site_label
 _atom_site_symmetry_multiplicity
 _atom_site_fract_x
 _atom_site_fract_y
 _atom_site_fract_z
 _atom_site_occupancy
  Sr  Sr0  1  0.74864647  0.62600731  0.37645808  1
  Sr  Sr1  1  0.74966846  0.12405379  0.87159205  1
  Sr  Sr2  1  0.25033154  0.87594621  0.12840795  1
  Sr  Sr3  1  0.25135353  0.37399269  0.62354192  1
  Hf  Hf0  1  0.50000000  0.00000000  0.50000000  1
  Fe  Fe0  1  0.00188849  0.25343802  0.25779448  1
  Fe  Fe1  1  0.99811151  0.74656198  0.74220552  1
  W  W0  1  0.50000000  0.50000000  0.00000000  1
  O  O0  1  0.74046262  0.85953829  0.12031065  1
  O  O1  1  0.74908343  0.37730852  0.63185282  1
  O  O2  1  0.25091657  0.62269148  0.36814718  1
  O  O3  1  0.25953738  0.14046171  0.87968935  1
  O  O4  1  0.20179947  0.10284701  0.38996233  1
  O  O5  1  0.22409692  0.60594404  0.90139545  1
  O  O6  1  0.79820053  0.89715299  0.61003767  1
  O  O7  1  0.77590308  0.39405596  0.09860455  1
  O  O8  1  0.70847170  0.64303554  0.86364964  1
  O  O9  1  0.71089090  0.15221462  0.35066498  1
  O  O10  1  0.28910910  0.84778538  0.64933502  1
  O  O11  1  0.29152830  0.35696446  0.13635036  1
loop_
_geom_bond_atom_site_label_1
_geom_bond_atom_site_label_2
_geom_bond_distance
_geom_bond_site_symmetry_2
Hf0 O6 2.049722 1_545
Hf0 O4 2.049722 1_555
Hf0 O1 2.051328 1_555
Hf0 O2 2.051328 1_545
Hf0 O10 2.051383 1_545
Hf0 O9 2.051383 1_555
Fe0 O9 1.927393 1_455
Fe0 O4 1.932491 1_555
Fe0 O2 1.934930 1_555
Fe0 O7 2.118616 1_455
Fe0 O11 2.126478 1_555
Fe0 O0 2.140715 1_445
Fe1 O10 1.927393 1_655
Fe1 O6 1.932491 1_555
Fe1 O1 1.934930 1_555
Fe1 O5 2.118616 1_655
Fe1 O8 2.126478 1_555
Fe1 O3 2.140715 1_665
O0 W0 1.932374 1_555
O0 Sr2 2.789108 1_655
O0 Sr0 2.812047 1_555
O0 Sr2 2.815761 1_555
O0 Sr1 2.835480 1_564
O1 Sr1 2.728508 1_555
O1 Sr3 2.756438 1_555
O1 Sr0 2.846835 1_555
O1 Sr3 2.846877 1_655
O2 Sr2 2.728508 1_555
O2 Sr0 2.756438 1_555
O2 Sr3 2.846835 1_555
O2 Sr0 2.846877 1_455
O3 W0 1.932374 1_556
O3 Sr1 2.789108 1_455
O3 Sr3 2.812047 1_555
O3 Sr1 2.815761 1_555
O3 Sr2 2.835480 1_546
O4 Sr0 2.597522 1_445
O4 Sr3 2.622382 1_555
O4 Sr2 3.001449 1_545
O4 Sr0 3.062224 1_555
O5 W0 1.930085 1_556
O5 Sr2 2.624515 1_556
O5 Sr1 2.636368 1_455
O5 Sr1 3.040499 1_565
O5 Sr3 3.092530 1_555
O6 Sr3 2.597522 1_665
O6 Sr0 2.622382 1_555
O6 Sr1 3.001449 1_565
O6 Sr3 3.062224 1_555
O7 W0 1.930085 1_555
O7 Sr1 2.624515 1_554
O7 Sr2 2.636368 1_655
O7 Sr2 3.040499 1_545
O7 Sr0 3.092530 1_555
O8 W0 1.927797 1_556
O8 Sr1 2.610492 1_565
O8 Sr3 2.664729 1_555
O8 Sr2 3.033134 1_656
O8 Sr1 3.051568 1_555
O9 Sr2 2.576291 1_545
O9 Sr0 2.586758 1_555
O9 Sr3 3.078538 1_655
O9 Sr0 3.086270 1_545
O10 Sr1 2.576291 1_565
O10 Sr3 2.586758 1_555
O10 Sr0 3.078538 1_455
O10 Sr3 3.086270 1_565
O11 W0 1.927797 1_555
O11 Sr2 2.610492 1_545
O11 Sr0 2.664729 1_555
O11 Sr1 3.033134 1_454
O11 Sr2 3.051568 1_555
