# generated using pymatgen
data_Zn3Cu(SO4)4
_symmetry_space_group_name_H-M   'P 1'
_cell_length_a   4.77604885
_cell_length_b   6.69826550
_cell_length_c   8.53637362
_cell_angle_alpha   91.15425476
_cell_angle_beta   89.52534210
_cell_angle_gamma   92.88020225
_symmetry_Int_Tables_number   1
_chemical_formula_structural   Zn3Cu(SO4)4
_chemical_formula_sum   'Zn3 Cu1 S4 O16'
_cell_volume   272.68165728
_cell_formula_units_Z   1
loop_
 _symmetry_equiv_pos_site_id
 _symmetry_equiv_pos_as_xyz
  1  'x, y, z'
loop_
 _atom_site_type_symbol
 _atom_site_label
 _atom_site_symmetry_multiplicity
 _atom_site_fract_x
 _atom_site_fract_y
 _atom_site_fract_z
 _atom_site_occupancy
  Zn  Zn0  1  0.50000000  0.50000000  0.50000000  1
  Zn  Zn1  1  0.00000000  0.50000000  0.00000000  1
  Zn  Zn2  1  0.50000000  0.00000000  0.50000000  1
  Cu  Cu0  1  0.00000000  0.00000000  0.00000000  1
  S  S0  1  0.96963451  0.76397014  0.68120894  1
  S  S1  1  0.46451214  0.26340656  0.81978861  1
  S  S2  1  0.03036549  0.23602986  0.31879106  1
  S  S3  1  0.53548786  0.73659344  0.18021139  1
  O  O0  1  0.17272605  0.42248167  0.37373608  1
  O  O1  1  0.67199675  0.55514649  0.13115420  1
  O  O2  1  0.83578971  0.94269027  0.63224519  1
  O  O3  1  0.32724987  0.07965909  0.88038238  1
  O  O4  1  0.82727395  0.57751833  0.62626392  1
  O  O5  1  0.32800325  0.44485351  0.86884580  1
  O  O6  1  0.16421029  0.05730973  0.36775481  1
  O  O7  1  0.67275013  0.92034091  0.11961762  1
  O  O8  1  0.24102342  0.72523341  0.13300969  1
  O  O9  1  0.73585415  0.23335868  0.37328666  1
  O  O10  1  0.75897658  0.27476659  0.86699031  1
  O  O11  1  0.26414585  0.76664132  0.62671334  1
  O  O12  1  0.55824780  0.74967582  0.35598640  1
  O  O13  1  0.04488805  0.23990756  0.14209664  1
  O  O14  1  0.44175220  0.25032418  0.64401360  1
  O  O15  1  0.95511195  0.76009244  0.85790336  1
loop_
_geom_bond_atom_site_label_1
_geom_bond_atom_site_label_2
_geom_bond_distance
_geom_bond_site_symmetry_2
Cu0 O3 1.918827 1_554
Cu0 O7 1.918827 1_445
Cu0 O13 1.997698 1_555
Cu0 O15 1.997698 1_444
Cu0 O10 2.514031 1_454
Cu0 O8 2.514031 1_545
O0 S2 1.462324 1_555
O0 Zn0 1.948935 1_555
O1 S3 1.460202 1_555
O1 Zn1 1.963784 1_655
O2 S0 1.455306 1_555
O2 Zn2 2.025610 1_565
O3 S1 1.466666 1_555
O4 S0 1.462324 1_555
O4 Zn0 1.948935 1_555
O5 S1 1.460202 1_555
O5 Zn1 1.963784 1_556
O6 S2 1.455306 1_555
O6 Zn2 2.025610 1_555
O7 S3 1.466666 1_555
O8 S3 1.464048 1_555
O8 Zn1 2.160673 1_555
O9 S2 1.477233 1_655
O9 Zn2 2.180176 1_555
O9 Zn0 2.394366 1_555
O10 S1 1.464048 1_555
O10 Zn1 2.160673 1_656
O11 S0 1.477233 1_455
O11 Zn2 2.180176 1_565
O11 Zn0 2.394366 1_555
O12 S3 1.505784 1_555
O12 Zn2 2.087658 1_565
O12 Zn0 2.101432 1_555
O13 S2 1.510036 1_555
O13 Zn1 2.163201 1_555
O14 S1 1.505784 1_555
O14 Zn2 2.087658 1_555
O14 Zn0 2.101432 1_555
O15 S0 1.510036 1_555
O15 Zn1 2.163201 1_656
