# generated using pymatgen
data_NaAlB14
_symmetry_space_group_name_H-M   'P 1'
_cell_length_a   7.24490925
_cell_length_b   7.24506509
_cell_length_c   7.24508938
_cell_angle_alpha   132.52787447
_cell_angle_beta   110.96881406
_cell_angle_gamma   88.06307945
_symmetry_Int_Tables_number   1
_chemical_formula_structural   NaAlB14
_chemical_formula_sum   'Na2 Al2 B28'
_cell_volume   249.44444492
_cell_formula_units_Z   2
loop_
 _symmetry_equiv_pos_site_id
 _symmetry_equiv_pos_as_xyz
  1  'x, y, z'
loop_
 _atom_site_type_symbol
 _atom_site_label
 _atom_site_symmetry_multiplicity
 _atom_site_fract_x
 _atom_site_fract_y
 _atom_site_fract_z
 _atom_site_occupancy
  Na  Na0  1  0.09737571  0.75001014  0.34737626  1
  Na  Na1  1  0.90262426  0.24998991  0.65262371  1
  Al  Al0  1  0.49999997  0.49999996  0.49999995  1
  Al  Al1  1  0.49999999  -0.00000001  0.00000001  1
  B  B0  1  0.89713458  0.22034497  0.99714220  1
  B  B1  1  0.46477268  0.17089693  0.79441424  1
  B  B2  1  0.87647898  0.17036403  0.20558651  1
  B  B3  1  0.72320679  0.39999623  0.00286248  1
  B  B4  1  0.58162278  0.41425245  0.16736524  1
  B  B5  1  0.72748812  0.35210159  0.37538375  1
  B  B6  1  0.30143195  0.33392417  0.96751246  1
  B  B7  1  0.72320824  0.72034467  0.32320967  1
  B  B8  1  0.87647808  0.67089726  0.70612116  1
  B  B9  1  0.46477271  0.67035807  0.29387515  1
  B  B10  1  0.10286080  0.10000878  0.32321056  1
  B  B11  1  0.89713923  0.89999124  0.67678942  1
  B  B12  1  0.53522725  0.32964184  0.70612477  1
  B  B13  1  0.12352192  0.32910276  0.29387887  1
  B  B14  1  0.27679172  0.27965535  0.67679032  1
  B  B15  1  0.74687914  0.91425547  0.83262110  1
  B  B16  1  0.47671780  0.85210500  0.62461178  1
  B  B17  1  0.86640699  0.83391768  0.03248405  1
  B  B18  1  0.69856805  0.66607578  0.03248754  1
  B  B19  1  0.27251192  0.64789840  0.62461628  1
  B  B20  1  0.41837715  0.58574750  0.83263474  1
  B  B21  1  0.27679324  0.60000384  0.99713759  1
  B  B22  1  0.12352105  0.82963595  0.79441345  1
  B  B23  1  0.53522733  0.82910313  0.20558582  1
  B  B24  1  0.10286545  0.77965506  0.00285783  1
  B  B25  1  0.13359302  0.16608234  0.96751593  1
  B  B26  1  0.52328216  0.14789501  0.37538826  1
  B  B27  1  0.25312088  0.08574451  0.16737893  1
loop_
_geom_bond_atom_site_label_1
_geom_bond_atom_site_label_2
_geom_bond_distance
_geom_bond_site_symmetry_2
Al0 B19 2.077839 1_555
Al0 B5 2.077839 1_555
Al0 B26 2.077879 1_555
Al0 B16 2.077879 1_555
Al0 B27 2.348278 1_555
Al0 B15 2.348278 1_555
Al0 B4 2.348342 1_555
Al0 B20 2.348343 1_555
Al0 B13 2.452756 1_555
Al0 B8 2.452757 1_555
Al0 B9 2.452859 1_555
Al0 B12 2.452859 1_555
Al1 B19 2.077821 1_544
Al1 B5 2.077822 1_555
Al1 B16 2.077892 1_544
Al1 B26 2.077893 1_555
Al1 B27 2.348297 1_555
Al1 B15 2.348298 1_544
Al1 B4 2.348313 1_555
Al1 B20 2.348313 1_544
Al1 B22 2.452764 1_544
Al1 B2 2.452764 1_555
Al1 B23 2.452857 1_545
Al1 B1 2.452857 1_554
B0 B3 1.771229 1_556
B0 B15 1.784568 1_545
B0 B13 1.790665 1_656
B0 B25 1.799717 1_655
B0 B2 1.827276 1_556
B0 B11 1.868517 1_545
B0 Na1 2.659784 1_555
B0 Na0 2.801262 1_656
B1 B16 1.754108 1_545
B1 B4 1.774710 1_556
B1 B14 1.790668 1_555
B1 B12 1.805668 1_555
B1 B6 1.825780 1_555
B1 B3 1.827268 1_556
B1 Na0 2.810729 1_545
B2 B5 1.754072 1_555
B2 Na1 2.810871 1_555
B3 B4 1.784587 1_555
B3 B7 1.868468 1_555
B3 Na0 2.659755 1_655
B3 Na1 2.801207 1_554
B4 B9 1.774730 1_555
B4 B7 1.784603 1_555
B4 B5 1.826552 1_555
B4 B6 1.841992 1_554
B5 B8 1.754105 1_555
B5 Na1 2.512612 1_555
B6 B9 1.825750 1_556
B6 Na1 2.729138 1_455
B7 B9 1.827284 1_555
B7 Na0 2.659726 1_655
B7 Na1 2.801143 1_565
B8 Na1 2.810902 1_555
B9 Na0 2.810771 1_555
B10 B14 1.771242 1_555
B10 B27 1.784593 1_555
B10 B2 1.790647 1_455
B10 B17 1.799712 1_445
B10 B13 1.827270 1_555
B10 B24 1.868517 1_545
B10 Na0 2.659759 1_545
B10 Na1 2.801205 1_455
B11 B7 1.771242 1_555
B11 B15 1.784594 1_555
B11 B22 1.790647 1_655
B11 B25 1.799712 1_665
B11 B8 1.827271 1_555
B11 Na1 2.659759 1_565
B11 Na0 2.801205 1_655
B12 B26 1.754113 1_555
B12 B20 1.774730 1_555
B12 B3 1.790666 1_556
B12 B18 1.825750 1_556
B12 B14 1.827284 1_555
B12 Na1 2.810771 1_555
B13 B19 1.754105 1_555
B13 B27 1.774734 1_555
B13 B2 1.805658 1_455
B13 B25 1.825780 1_554
B13 Na0 2.810902 1_555
B14 B20 1.784603 1_555
B14 B6 1.799731 1_555
B14 B21 1.868468 1_555
B14 Na1 2.659726 1_455
B14 Na0 2.801143 1_545
B15 B8 1.774734 1_555
B15 B2 1.774775 1_566
B15 B16 1.826457 1_555
B15 B17 1.842100 1_556
B16 B9 1.754113 1_555
B16 B19 2.127377 1_555
B16 Na0 2.512504 1_555
B17 B18 1.748525 1_555
B17 B24 1.799717 1_655
B17 B8 1.825779 1_554
B17 B2 1.825830 1_565
B17 Na0 2.729176 1_655
B18 B3 1.799721 1_555
B18 B7 1.799731 1_555
B18 B23 1.825780 1_555
B18 B20 1.841992 1_554
B18 Na0 2.729138 1_655
B19 B22 1.754072 1_555
B19 B20 1.826551 1_555
B19 Na0 2.512612 1_555
B20 B23 1.774710 1_556
B20 B21 1.784586 1_555
B21 B24 1.771229 1_556
B21 B9 1.790666 1_556
B21 B6 1.799721 1_555
B21 B23 1.827268 1_556
B21 Na1 2.659755 1_455
B21 Na0 2.801207 1_556
B22 B27 1.774775 1_566
B22 B8 1.805658 1_455
B22 B25 1.825830 1_565
B22 B24 1.827277 1_556
B22 Na0 2.810871 1_555
B23 B26 1.754108 1_565
B23 B7 1.790667 1_555
B23 B9 1.805668 1_555
B23 Na1 2.810729 1_565
B24 B27 1.784567 1_565
B24 B8 1.790666 1_454
B24 Na0 2.659784 1_555
B24 Na1 2.801262 1_454
B25 B6 1.748524 1_555
B25 B27 1.842101 1_556
B25 Na1 2.729176 1_455
B26 B27 1.826456 1_555
B26 B5 2.127378 1_555
B26 Na1 2.512504 1_555
