# generated using pymatgen
data_Cs3AsRhBr9
_symmetry_space_group_name_H-M   'P 1'
_cell_length_a   7.63897564
_cell_length_b   7.63893869
_cell_length_c   19.31689008
_cell_angle_alpha   90.00000000
_cell_angle_beta   90.00000000
_cell_angle_gamma   119.99779020
_symmetry_Int_Tables_number   1
_chemical_formula_structural   Cs3AsRhBr9
_chemical_formula_sum   'Cs6 As2 Rh2 Br18'
_cell_volume   976.21541225
_cell_formula_units_Z   2
loop_
 _symmetry_equiv_pos_site_id
 _symmetry_equiv_pos_as_xyz
  1  'x, y, z'
loop_
 _atom_site_type_symbol
 _atom_site_label
 _atom_site_symmetry_multiplicity
 _atom_site_fract_x
 _atom_site_fract_y
 _atom_site_fract_z
 _atom_site_occupancy
  Cs  Cs0  1  0.66663045  0.33328218  0.91586799  1
  Cs  Cs1  1  0.33336955  0.66671782  0.41586799  1
  Cs  Cs2  1  0.66667186  0.33333756  0.56916521  1
  Cs  Cs3  1  0.33332814  0.66666244  0.06916521  1
  Cs  Cs4  1  0.00001304  0.99999864  0.75866541  1
  Cs  Cs5  1  0.99998696  0.00000136  0.25866541  1
  As  As0  1  0.33331676  0.66672266  0.65407024  1
  As  As1  1  0.66668324  0.33327734  0.15407024  1
  Rh  Rh0  1  0.66663474  0.33333631  0.33628067  1
  Rh  Rh1  1  0.33336526  0.66666369  0.83628067  1
  Br  Br0  1  0.82064794  0.64126651  0.40965824  1
  Br  Br1  1  0.17935206  0.35873349  0.90965824  1
  Br  Br2  1  0.17935316  0.82063039  0.90962237  1
  Br  Br3  1  0.17296498  0.34575288  0.58680211  1
  Br  Br4  1  0.64123092  0.82063409  0.90963738  1
  Br  Br5  1  0.35876908  0.17936591  0.40963738  1
  Br  Br6  1  0.02141950  0.51063851  0.75887809  1
  Br  Br7  1  0.82064684  0.17936961  0.40962237  1
  Br  Br8  1  0.51064826  0.02134668  0.25887368  1
  Br  Br9  1  0.48931083  0.51063666  0.75885036  1
  Br  Br10  1  0.51068917  0.48936334  0.25885036  1
  Br  Br11  1  0.97858050  0.48936149  0.25887809  1
  Br  Br12  1  0.34574223  0.17279442  0.08679830  1
  Br  Br13  1  0.48935174  0.97865332  0.75887368  1
  Br  Br14  1  0.82703502  0.65424712  0.08680211  1
  Br  Br15  1  0.17271004  0.82716538  0.58682795  1
  Br  Br16  1  0.65425777  0.82720558  0.58679830  1
  Br  Br17  1  0.82728996  0.17283462  0.08682795  1
loop_
_geom_bond_atom_site_label_1
_geom_bond_atom_site_label_2
_geom_bond_distance
_geom_bond_site_symmetry_2
As0 Br16 2.489345 1_555
As0 Br3 2.489461 1_555
As0 Br15 2.489594 1_555
As0 Br6 2.890768 1_555
As0 Br13 2.890859 1_555
As0 Br9 2.891204 1_555
As1 Br12 2.489345 1_555
As1 Br14 2.489461 1_555
As1 Br17 2.489594 1_555
As1 Br11 2.890768 1_555
As1 Br8 2.890859 1_555
As1 Br10 2.891204 1_555
Br0 Rh0 2.481759 1_555
Br0 Cs2 3.693732 1_555
Br0 Cs5 3.760268 1_565
Br0 Cs1 3.825055 1_655
Br0 Cs1 3.825103 1_555
Br1 Rh1 2.481759 1_555
Br1 Cs3 3.693732 1_556
Br1 Cs4 3.760268 1_545
Br1 Cs0 3.825055 1_455
Br1 Cs0 3.825103 1_555
Br2 Rh1 2.481575 1_555
Br2 Cs3 3.694326 1_556
Br2 Cs4 3.759573 1_555
Br2 Cs0 3.824925 1_565
Br2 Cs0 3.825468 1_455
Br3 Cs2 3.834878 1_555
Br3 Cs2 3.836185 1_455
Br3 Cs1 3.925743 1_555
Br3 Cs4 4.031584 1_545
Br4 Rh1 2.481186 1_555
Br4 Cs3 3.693978 1_556
Br4 Cs4 3.760160 1_655
Br4 Cs0 3.824670 1_565
Br4 Cs0 3.825446 1_555
Br5 Rh0 2.481186 1_555
Br5 Cs2 3.693978 1_555
Br5 Cs5 3.760160 1_455
Br5 Cs1 3.824670 1_545
Br5 Cs1 3.825446 1_555
Br6 Rh1 2.548444 1_555
Br6 Cs4 3.821618 1_545
Br6 Cs4 3.822575 1_555
Br6 Cs0 3.834793 1_455
Br7 Rh0 2.481575 1_555
Br7 Cs2 3.694326 1_555
Br7 Cs5 3.759573 1_555
Br7 Cs1 3.824925 1_545
Br7 Cs1 3.825468 1_655
Br8 Rh0 2.548721 1_555
Br8 Cs5 3.822019 1_455
Br8 Cs5 3.822180 1_555
Br8 Cs1 3.834204 1_545
Br9 Rh1 2.548843 1_555
Br9 Cs4 3.821970 1_545
Br9 Cs4 3.822462 1_655
Br9 Cs0 3.834699 1_555
Br10 Rh0 2.548843 1_555
Br10 Cs5 3.821970 1_565
Br10 Cs5 3.822462 1_455
Br10 Cs1 3.834699 1_555
Br11 Rh0 2.548444 1_555
Br11 Cs5 3.821618 1_565
Br11 Cs5 3.822575 1_555
Br11 Cs1 3.834793 1_655
Br12 Cs3 3.834938 1_545
Br12 Cs3 3.836075 1_555
Br12 Cs0 3.925412 1_554
Br12 Cs5 4.031655 1_455
Br13 Rh1 2.548721 1_555
Br13 Cs4 3.822019 1_655
Br13 Cs4 3.822180 1_555
Br13 Cs0 3.834204 1_565
Br14 Cs3 3.834878 1_555
Br14 Cs3 3.836185 1_655
Br14 Cs0 3.925743 1_554
Br14 Cs5 4.031584 1_565
Br15 Cs2 3.835156 1_455
Br15 Cs2 3.836174 1_565
Br15 Cs1 3.926636 1_555
Br15 Cs4 4.030292 1_555
Br16 Cs2 3.834938 1_565
Br16 Cs2 3.836075 1_555
Br16 Cs1 3.925412 1_555
Br16 Cs4 4.031655 1_655
Br17 Cs3 3.835156 1_655
Br17 Cs3 3.836174 1_545
Br17 Cs0 3.926636 1_554
Br17 Cs5 4.030292 1_555
