# generated using pymatgen
data_NaGaSiPt3
_symmetry_space_group_name_H-M   'P 1'
_cell_length_a   6.71356094
_cell_length_b   6.71356108
_cell_length_c   6.71356207
_cell_angle_alpha   129.56099806
_cell_angle_beta   114.81660307
_cell_angle_gamma   86.75448899
_symmetry_Int_Tables_number   1
_chemical_formula_structural   NaGaSiPt3
_chemical_formula_sum   'Na2 Ga2 Si2 Pt6'
_cell_volume   201.91395077
_cell_formula_units_Z   2
loop_
 _symmetry_equiv_pos_site_id
 _symmetry_equiv_pos_as_xyz
  1  'x, y, z'
loop_
 _atom_site_type_symbol
 _atom_site_label
 _atom_site_symmetry_multiplicity
 _atom_site_fract_x
 _atom_site_fract_y
 _atom_site_fract_z
 _atom_site_occupancy
  Na  Na0  1  0.75000000  0.05206495  0.30206495  1
  Na  Na1  1  0.25000000  0.98126392  0.73126392  1
  Ga  Ga0  1  0.60602075  0.41080608  0.80478533  1
  Ga  Ga1  1  0.89397925  0.69876457  0.80478533  1
  Si  Si0  1  0.44329078  0.62855371  0.18526493  1
  Si  Si1  1  0.05670922  0.24197415  0.18526493  1
  Pt  Pt0  1  0.20744709  0.49851196  0.70800828  1
  Pt  Pt1  1  0.79050368  0.49851196  0.29106487  1
  Pt  Pt2  1  0.45279406  0.49421166  0.44700573  1
  Pt  Pt3  1  0.04720594  0.49421166  0.04141960  1
  Pt  Pt4  1  0.70949632  0.00056118  0.70800828  1
  Pt  Pt5  1  0.29255291  0.00056118  0.29106487  1
loop_
_geom_bond_atom_site_label_1
_geom_bond_atom_site_label_2
_geom_bond_distance
_geom_bond_site_symmetry_2
Na0 Si1 3.067000 1_655
Na0 Si0 3.067011 1_545
Na0 Pt5 3.074734 1_555
Na0 Pt1 3.074734 1_555
Na0 Pt0 3.074735 1_655
Na0 Pt4 3.074735 1_555
Na0 Pt2 3.319532 1_555
Na0 Pt3 3.319542 1_656
Na1 Pt3 3.148920 1_555
Na1 Pt2 3.148927 1_555
Na1 Pt4 3.167462 1_565
Na1 Pt0 3.167462 1_555
Na1 Pt1 3.167462 1_455
Na1 Pt5 3.167462 1_565
Na1 Si0 3.210135 1_566
Na1 Si1 3.210146 1_566
Na1 Pt2 3.280753 1_566
Na1 Pt3 3.280754 1_566
Ga0 Pt4 2.524519 1_555
Ga0 Pt5 2.524519 1_555
Ga0 Pt3 2.591352 1_656
Ga0 Pt2 2.591353 1_555
Ga0 Pt0 2.603560 1_555
Ga0 Pt1 2.603561 1_556
Ga0 Si0 2.694548 1_556
Ga0 Na0 3.173090 1_566
Ga0 Na0 3.201028 1_555
Ga1 Pt0 2.524519 1_655
Ga1 Pt1 2.524519 1_555
Ga1 Pt2 2.591353 1_555
Ga1 Pt3 2.591363 1_656
Ga1 Pt4 2.603561 1_565
Ga1 Pt5 2.603561 1_666
Ga1 Si1 2.694547 1_666
Ga1 Na0 3.173090 1_566
Ga1 Na0 3.201028 1_555
Pt0 Si1 2.413217 1_555
Pt0 Si0 2.422833 1_556
Pt1 Si1 2.413216 1_655
Pt1 Si0 2.422820 1_555
Pt2 Si0 2.413188 1_555
Pt2 Si1 2.413199 1_555
Pt3 Si1 2.413188 1_555
Pt3 Si0 2.413201 1_555
Pt4 Si0 2.413219 1_545
Pt4 Si1 2.422827 1_656
Pt5 Si0 2.413227 1_545
Pt5 Si1 2.422827 1_555
