# generated using pymatgen
data_Hf(ScRe6)4
_symmetry_space_group_name_H-M   'P 1'
_cell_length_a   8.41717214
_cell_length_b   8.41717129
_cell_length_c   8.41717207
_cell_angle_alpha   109.47335331
_cell_angle_beta   109.47335646
_cell_angle_gamma   109.47334313
_symmetry_Int_Tables_number   1
_chemical_formula_structural   Hf(ScRe6)4
_chemical_formula_sum   'Hf1 Sc4 Re24'
_cell_volume   459.03143756
_cell_formula_units_Z   1
loop_
 _symmetry_equiv_pos_site_id
 _symmetry_equiv_pos_as_xyz
  1  'x, y, z'
loop_
 _atom_site_type_symbol
 _atom_site_label
 _atom_site_symmetry_multiplicity
 _atom_site_fract_x
 _atom_site_fract_y
 _atom_site_fract_z
 _atom_site_occupancy
  Hf  Hf0  1  0.36924792  0.36924792  0.36924792  1
  Sc  Sc0  1  0.00026204  0.63128648  0.00026204  1
  Sc  Sc1  1  0.63128648  0.00026204  0.00026204  1
  Sc  Sc2  1  0.00026204  0.00026204  0.63128648  1
  Sc  Sc3  1  0.99801335  0.99801335  0.99801335  1
  Re  Re0  1  0.99866884  0.39594544  0.67579486  1
  Re  Re1  1  0.27961064  0.60258928  0.60258928  1
  Re  Re2  1  0.72190959  0.32432109  0.32432109  1
  Re  Re3  1  0.32432109  0.72190959  0.32432109  1
  Re  Re4  1  0.67579486  0.99866884  0.39594544  1
  Re  Re5  1  0.99866884  0.67579486  0.39594544  1
  Re  Re6  1  0.60258928  0.60258928  0.27961064  1
  Re  Re7  1  0.80865072  0.80865072  0.18533442  1
  Re  Re8  1  0.37724813  0.19263452  0.00000796  1
  Re  Re9  1  0.19263452  0.37724813  0.00000796  1
  Re  Re10  1  0.62326403  0.81582773  0.62326403  1
  Re  Re11  1  0.37724813  0.00000796  0.19263452  1
  Re  Re12  1  0.00000796  0.37724813  0.19263452  1
  Re  Re13  1  0.81582773  0.62326403  0.62326403  1
  Re  Re14  1  0.18533442  0.80865072  0.80865072  1
  Re  Re15  1  0.80865072  0.18533442  0.80865072  1
  Re  Re16  1  0.19263452  0.00000796  0.37724813  1
  Re  Re17  1  0.00000796  0.19263452  0.37724813  1
  Re  Re18  1  0.62326403  0.62326403  0.81582773  1
  Re  Re19  1  0.39594544  0.99866884  0.67579486  1
  Re  Re20  1  0.60258928  0.27961064  0.60258928  1
  Re  Re21  1  0.67579486  0.39594544  0.99866884  1
  Re  Re22  1  0.39594544  0.67579486  0.99866884  1
  Re  Re23  1  0.32432109  0.32432109  0.72190959  1
loop_
_geom_bond_atom_site_label_1
_geom_bond_atom_site_label_2
_geom_bond_distance
_geom_bond_site_symmetry_2
Hf0 Re20 2.772812 1_555
Hf0 Re1 2.772812 1_555
Hf0 Re6 2.772812 1_555
Hf0 Re11 2.999943 1_555
Hf0 Re9 2.999943 1_555
Hf0 Re12 2.999943 1_555
Hf0 Re8 2.999943 1_555
Hf0 Re16 2.999943 1_555
Hf0 Re17 2.999944 1_555
Hf0 Re10 3.083421 1_555
Hf0 Re18 3.083421 1_555
Hf0 Re13 3.083421 1_555
Hf0 Sc3 3.124417 1_444
Hf0 Re3 3.240216 1_555
Hf0 Re2 3.240216 1_555
Hf0 Re23 3.240216 1_555
Sc0 Sc3 3.099474 1_454
Sc1 Sc3 3.099474 1_544
Sc2 Sc3 3.099474 1_445
Re0 Re17 2.531399 1_655
Re0 Re15 2.752293 1_555
Re0 Re9 2.761263 1_656
Re0 Sc0 2.780980 1_656
Re0 Re2 2.796765 1_555
Re0 Re1 2.817933 1_655
Re0 Re13 2.880759 1_555
Re0 Re14 2.895852 1_655
Re0 Re20 2.916277 1_555
Re0 Re4 2.921857 1_545
Re0 Re22 2.921857 1_655
Re0 Re23 2.928486 1_655
Re0 Sc2 3.230203 1_655
Re1 Re14 2.544787 1_555
Re1 Re18 2.759249 1_555
Re1 Re10 2.759249 1_555
Re1 Re5 2.817933 1_455
Re1 Re12 2.879036 1_555
Re1 Re17 2.879036 1_555
Re1 Re19 2.916276 1_555
Re1 Re22 2.916276 1_555
Re1 Re23 2.922413 1_555
Re1 Re3 2.922414 1_555
Re1 Sc1 3.238524 1_566
Re2 Re8 2.766793 1_555
Re2 Sc1 2.779754 1_555
Re2 Re5 2.796765 1_555
Re2 Re6 2.922413 1_555
Re2 Re20 2.922414 1_555
Re2 Re4 2.928486 1_545
Re2 Re21 2.928486 1_554
Re3 Re9 2.766793 1_555
Re3 Sc0 2.779754 1_555
Re3 Re4 2.796765 1_555
Re3 Re6 2.922414 1_555
Re3 Re5 2.928486 1_455
Re4 Re7 2.752293 1_555
Re4 Sc2 2.780980 1_665
Re4 Re6 2.916276 1_555
Re4 Sc1 3.230203 1_565
Re5 Re7 2.752293 1_555
Re5 Sc2 2.780979 1_665
Re5 Re6 2.916276 1_555
Re5 Sc0 3.230203 1_655
Re6 Re7 2.544787 1_555
Re6 Re8 2.879036 1_555
Re6 Re9 2.879036 1_555
Re6 Sc2 3.238524 1_665
Re7 Sc1 2.997764 1_565
Re7 Sc0 2.997764 1_655
Re7 Sc3 3.037166 1_554
Re7 Sc2 3.079802 1_665
Re8 Re9 2.537581 1_555
Re8 Sc2 2.996762 1_554
Re8 Sc3 3.054950 1_444
Re8 Sc1 3.082520 1_555
Re9 Sc2 2.996762 1_554
Re9 Sc3 3.054950 1_444
Re9 Sc0 3.082520 1_555
Re10 Re3 2.532595 1_555
Re10 Re15 2.539309 1_565
Re10 Re13 2.646858 1_555
Re10 Re18 2.646858 1_555
Re10 Re6 2.759249 1_555
Re10 Re19 2.880759 1_555
Re10 Re4 2.880759 1_555
Re10 Sc1 2.997810 1_566
Re10 Sc2 2.997810 1_665
Re10 Sc3 3.027722 1_555
Re11 Re4 2.531399 1_545
Re11 Re16 2.537582 1_555
Re11 Re14 2.638796 1_544
Re11 Re8 2.647722 1_555
Re11 Re22 2.761263 1_544
Re11 Re2 2.766793 1_555
Re11 Re3 2.875814 1_545
Re11 Re20 2.879036 1_555
Re11 Sc0 2.996763 1_545
Re11 Sc3 3.054950 1_444
Re11 Sc1 3.082521 1_555
Re12 Re5 2.531399 1_455
Re12 Re17 2.537581 1_555
Re12 Re15 2.638796 1_454
Re12 Re9 2.647722 1_555
Re12 Re21 2.761263 1_454
Re12 Re3 2.766793 1_555
Re12 Re2 2.875814 1_455
Re12 Sc1 2.996763 1_455
Re12 Sc3 3.054950 1_444
Re12 Sc0 3.082521 1_555
Re13 Re2 2.532595 1_555
Re13 Re14 2.539309 1_655
Re13 Re18 2.646858 1_555
Re13 Re6 2.759249 1_555
Re13 Re20 2.759249 1_555
Re13 Re5 2.880759 1_555
Re13 Sc0 2.997810 1_656
Re13 Sc2 2.997810 1_665
Re13 Sc3 3.027722 1_555
Re14 Re8 2.638796 1_566
Re14 Re22 2.752293 1_555
Re14 Re19 2.752293 1_555
Re14 Re5 2.895852 1_455
Re14 Sc2 2.997764 1_565
Re14 Sc0 2.997764 1_556
Re14 Sc3 3.037165 1_455
Re14 Sc1 3.079803 1_566
Re15 Re20 2.544787 1_555
Re15 Re9 2.638796 1_656
Re15 Re21 2.752293 1_555
Re15 Re4 2.895852 1_545
Re15 Re19 2.895852 1_545
Re15 Sc2 2.997764 1_655
Re15 Sc1 2.997764 1_556
Re15 Sc3 3.037165 1_545
Re15 Sc0 3.079802 1_656
Re16 Re19 2.531399 1_545
Re16 Re7 2.638796 1_445
Re16 Re17 2.647722 1_555
Re16 Re5 2.761263 1_445
Re16 Re23 2.766793 1_555
Re16 Re3 2.875814 1_545
Re16 Re20 2.879036 1_555
Re16 Sc0 2.996762 1_545
Re16 Sc3 3.054950 1_444
Re16 Sc2 3.082521 1_555
Re17 Re7 2.638796 1_445
Re17 Re4 2.761263 1_445
Re17 Re23 2.766793 1_555
Re17 Re2 2.875814 1_455
Re17 Sc1 2.996762 1_455
Re17 Sc3 3.054950 1_444
Re17 Sc2 3.082521 1_555
Re18 Re23 2.532595 1_555
Re18 Re7 2.539309 1_556
Re18 Re20 2.759249 1_555
Re18 Re21 2.880759 1_555
Re18 Re22 2.880759 1_555
Re18 Sc1 2.997810 1_566
Re18 Sc0 2.997810 1_656
Re18 Sc3 3.027722 1_555
Re19 Re8 2.761263 1_566
Re19 Sc1 2.780980 1_566
Re19 Re3 2.796764 1_555
Re19 Re20 2.817933 1_565
Re19 Re21 2.921857 1_565
Re19 Re5 2.921857 1_455
Re19 Re23 2.928486 1_565
Re19 Sc2 3.230203 1_565
Re20 Re4 2.817933 1_545
Re20 Re21 2.916276 1_555
Re20 Re23 2.922414 1_555
Re20 Sc0 3.238524 1_656
Re21 Re8 2.531399 1_556
Re21 Sc0 2.780980 1_656
Re21 Re23 2.796765 1_555
Re21 Re6 2.817933 1_556
Re21 Re7 2.895852 1_556
Re21 Re5 2.921857 1_556
Re21 Sc1 3.230203 1_556
Re22 Re9 2.531399 1_556
Re22 Sc1 2.780980 1_566
Re22 Re23 2.796764 1_555
Re22 Re6 2.817933 1_556
Re22 Re7 2.895852 1_556
Re22 Re4 2.921857 1_556
Re22 Re3 2.928486 1_556
Re22 Sc0 3.230203 1_556
Re23 Sc2 2.779755 1_555
Re23 Re8 2.875814 1_556
Re23 Re9 2.875814 1_556
