# generated using pymatgen
data_MnZnSnRh3
_symmetry_space_group_name_H-M   'P 1'
_cell_length_a   4.36358274
_cell_length_b   4.36358397
_cell_length_c   10.68166937
_cell_angle_alpha   90.00000000
_cell_angle_beta   90.00000000
_cell_angle_gamma   120.00001288
_symmetry_Int_Tables_number   1
_chemical_formula_structural   MnZnSnRh3
_chemical_formula_sum   'Mn2 Zn2 Sn2 Rh6'
_cell_volume   176.13929694
_cell_formula_units_Z   2
loop_
 _symmetry_equiv_pos_site_id
 _symmetry_equiv_pos_as_xyz
  1  'x, y, z'
loop_
 _atom_site_type_symbol
 _atom_site_label
 _atom_site_symmetry_multiplicity
 _atom_site_fract_x
 _atom_site_fract_y
 _atom_site_fract_z
 _atom_site_occupancy
  Mn  Mn0  1  0.00000000  0.00000000  0.49968666  1
  Mn  Mn1  1  0.66666700  0.33333300  0.84254220  1
  Zn  Zn0  1  0.33333300  0.66666700  0.15725638  1
  Zn  Zn1  1  0.00000000  0.00000000  0.99850900  1
  Sn  Sn0  1  0.33333300  0.66666700  0.67117839  1
  Sn  Sn1  1  0.66666700  0.33333300  0.33023476  1
  Rh  Rh0  1  0.33333300  0.66666700  0.41502767  1
  Rh  Rh1  1  0.66666700  0.33333300  0.08263226  1
  Rh  Rh2  1  0.00000000  0.00000000  0.75290969  1
  Rh  Rh3  1  0.00000000  0.00000000  0.24596833  1
  Rh  Rh4  1  0.33333300  0.66666700  0.92085912  1
  Rh  Rh5  1  0.66666700  0.33333300  0.58319455  1
loop_
_geom_bond_atom_site_label_1
_geom_bond_atom_site_label_2
_geom_bond_distance
_geom_bond_site_symmetry_2
Mn0 Rh5 2.672567 1_455
Mn0 Rh5 2.672569 1_555
Mn0 Rh5 2.672570 1_445
Mn0 Rh0 2.676695 1_545
Mn0 Rh0 2.676698 1_445
Mn0 Rh0 2.676699 1_555
Mn0 Rh2 2.704845 1_555
Mn0 Rh3 2.710135 1_555
Mn1 Rh1 2.564563 1_556
Mn1 Rh4 2.654574 1_655
Mn1 Rh4 2.654574 1_545
Mn1 Rh4 2.654582 1_555
Mn1 Rh2 2.695107 1_655
Mn1 Rh2 2.695110 1_555
Mn1 Rh2 2.695111 1_665
Mn1 Rh5 2.770266 1_555
Rh0 Sn1 2.677178 1_455
Rh0 Sn1 2.677179 1_565
Rh0 Sn1 2.677186 1_555
Rh0 Sn0 2.736117 1_555
Rh0 Zn0 2.753428 1_555
Rh1 Zn0 2.642408 1_655
Rh1 Zn0 2.642409 1_545
Rh1 Zn0 2.642416 1_555
Rh1 Sn1 2.644808 1_555
Rh1 Zn1 2.674768 1_654
Rh1 Zn1 2.674770 1_554
Rh1 Zn1 2.674771 1_664
Rh2 Zn1 2.623411 1_555
Rh2 Sn0 2.666293 1_545
Rh2 Sn0 2.666296 1_445
Rh2 Sn0 2.666296 1_555
Rh3 Zn1 2.643279 1_554
Rh3 Sn1 2.675282 1_455
Rh3 Sn1 2.675285 1_555
Rh3 Sn1 2.675285 1_445
Rh3 Zn0 2.691630 1_545
Rh3 Zn0 2.691633 1_445
Rh3 Zn0 2.691633 1_555
Rh4 Zn0 2.525117 1_556
Rh4 Zn1 2.652338 1_565
Rh4 Zn1 2.652341 1_665
Rh4 Zn1 2.652341 1_555
Rh4 Sn0 2.667007 1_555
Rh5 Sn0 2.688901 1_655
Rh5 Sn0 2.688902 1_545
Rh5 Sn0 2.688909 1_555
Rh5 Sn1 2.702033 1_555
