# generated using pymatgen
data_Tb2Zn17
_symmetry_space_group_name_H-M   'P 1'
_cell_length_a   8.85822938
_cell_length_b   8.85822922
_cell_length_c   8.66445655
_cell_angle_alpha   90.00000000
_cell_angle_beta   90.00000000
_cell_angle_gamma   120.00000060
_symmetry_Int_Tables_number   1
_chemical_formula_structural   Tb2Zn17
_chemical_formula_sum   'Tb4 Zn34'
_cell_volume   588.79727759
_cell_formula_units_Z   2
loop_
 _symmetry_equiv_pos_site_id
 _symmetry_equiv_pos_as_xyz
  1  'x, y, z'
loop_
 _atom_site_type_symbol
 _atom_site_label
 _atom_site_symmetry_multiplicity
 _atom_site_fract_x
 _atom_site_fract_y
 _atom_site_fract_z
 _atom_site_occupancy
  Tb  Tb0  1  0.66666700  0.33333300  0.25000000  1
  Tb  Tb1  1  0.33333300  0.66666700  0.75000000  1
  Tb  Tb2  1  0.00000000  -0.00000000  0.75000000  1
  Tb  Tb3  1  0.00000000  -0.00000000  0.25000000  1
  Zn  Zn0  1  0.16205253  0.83794747  0.52034891  1
  Zn  Zn1  1  0.16205253  0.32410405  0.52034891  1
  Zn  Zn2  1  0.67589595  0.83794747  0.52034891  1
  Zn  Zn3  1  0.32410405  0.16205253  0.02034891  1
  Zn  Zn4  1  0.33333300  0.66666700  0.10243078  1
  Zn  Zn5  1  0.66666700  0.33333300  0.60243078  1
  Zn  Zn6  1  0.66666700  0.33333300  0.89756922  1
  Zn  Zn7  1  0.33333300  0.66666700  0.39756922  1
  Zn  Zn8  1  0.50000000  -0.00000000  0.00000000  1
  Zn  Zn9  1  0.50000000  0.50000000  0.50000000  1
  Zn  Zn10  1  0.00000000  0.50000000  0.50000000  1
  Zn  Zn11  1  0.00000000  0.50000000  0.00000000  1
  Zn  Zn12  1  0.50000000  0.50000000  0.00000000  1
  Zn  Zn13  1  0.50000000  -0.00000000  0.50000000  1
  Zn  Zn14  1  0.32907464  0.95966418  0.25000000  1
  Zn  Zn15  1  0.36941046  0.32907464  0.75000000  1
  Zn  Zn16  1  0.95966418  0.63058954  0.75000000  1
  Zn  Zn17  1  0.04033582  0.36941046  0.25000000  1
  Zn  Zn18  1  0.63058954  0.67092536  0.25000000  1
  Zn  Zn19  1  0.36941046  0.04033582  0.75000000  1
  Zn  Zn20  1  0.67092536  0.63058954  0.75000000  1
  Zn  Zn21  1  0.67092536  0.04033582  0.75000000  1
  Zn  Zn22  1  0.95966418  0.32907464  0.75000000  1
  Zn  Zn23  1  0.04033582  0.67092536  0.25000000  1
  Zn  Zn24  1  0.63058954  0.95966418  0.25000000  1
  Zn  Zn25  1  0.32907464  0.36941046  0.25000000  1
  Zn  Zn26  1  0.16205253  0.32410405  0.97965109  1
  Zn  Zn27  1  0.83794747  0.16205253  0.47965109  1
  Zn  Zn28  1  0.32410405  0.16205253  0.47965109  1
  Zn  Zn29  1  0.67589595  0.83794747  0.97965109  1
  Zn  Zn30  1  0.16205253  0.83794747  0.97965109  1
  Zn  Zn31  1  0.83794747  0.67589595  0.02034891  1
  Zn  Zn32  1  0.83794747  0.16205253  0.02034891  1
  Zn  Zn33  1  0.83794747  0.67589595  0.47965109  1
loop_
_geom_bond_atom_site_label_1
_geom_bond_atom_site_label_2
_geom_bond_distance
_geom_bond_site_symmetry_2
Tb0 Zn6 3.053621 1_554
Tb0 Zn5 3.053621 1_555
Tb0 Zn24 3.162387 1_545
Tb0 Zn17 3.162387 1_655
Tb0 Zn14 3.162391 1_545
Tb0 Zn23 3.162391 1_655
Tb0 Zn18 3.162396 1_555
Tb0 Zn25 3.162396 1_555
Tb0 Zn32 3.296267 1_555
Tb0 Zn27 3.296267 1_555
Tb0 Zn31 3.296280 1_555
Tb0 Zn33 3.296280 1_555
Tb0 Zn3 3.296280 1_555
Tb0 Zn28 3.296280 1_555
Tb0 Zn13 3.351277 1_555
Tb0 Zn8 3.351277 1_555
Tb0 Zn10 3.351277 1_655
Tb0 Zn11 3.351277 1_655
Tb0 Zn9 3.351283 1_555
Tb0 Zn12 3.351283 1_555
Tb1 Zn4 3.053621 1_556
Tb1 Zn7 3.053621 1_555
Tb1 Zn19 3.162387 1_565
Tb1 Zn16 3.162387 1_455
Tb1 Zn21 3.162391 1_565
Tb1 Zn22 3.162391 1_455
Tb1 Zn15 3.162396 1_555
Tb1 Zn20 3.162396 1_555
Tb1 Zn30 3.296267 1_555
Tb1 Zn0 3.296267 1_555
Tb1 Zn26 3.296280 1_555
Tb1 Zn1 3.296280 1_555
Tb1 Zn29 3.296280 1_555
Tb1 Zn2 3.296280 1_555
Tb1 Zn8 3.351277 1_566
Tb1 Zn13 3.351277 1_565
Tb1 Zn10 3.351277 1_555
Tb1 Zn11 3.351277 1_556
Tb1 Zn9 3.351283 1_555
Tb1 Zn12 3.351283 1_556
Tb2 Zn20 3.109107 1_445
Tb2 Zn16 3.109107 1_445
Tb2 Zn22 3.109107 1_455
Tb2 Zn15 3.109107 1_555
Tb2 Zn21 3.109107 1_455
Tb2 Zn19 3.109107 1_555
Tb2 Zn1 3.184531 1_555
Tb2 Zn26 3.184531 1_555
Tb2 Zn2 3.184531 1_445
Tb2 Zn29 3.184531 1_445
Tb2 Zn30 3.184538 1_545
Tb2 Zn0 3.184538 1_545
Tb2 Zn33 3.415976 1_445
Tb2 Zn31 3.415976 1_446
Tb2 Zn28 3.415976 1_555
Tb2 Zn3 3.415976 1_556
Tb2 Zn27 3.415981 1_455
Tb2 Zn32 3.415981 1_456
Tb3 Zn17 3.109107 1_555
Tb3 Zn25 3.109107 1_555
Tb3 Zn23 3.109107 1_545
Tb3 Zn18 3.109107 1_445
Tb3 Zn14 3.109107 1_545
Tb3 Zn24 3.109107 1_445
Tb3 Zn31 3.184531 1_445
Tb3 Zn33 3.184531 1_445
Tb3 Zn28 3.184531 1_555
Tb3 Zn3 3.184531 1_555
Tb3 Zn32 3.184538 1_455
Tb3 Zn27 3.184538 1_455
Tb3 Zn26 3.415976 1_554
Tb3 Zn1 3.415976 1_555
Tb3 Zn29 3.415976 1_444
Tb3 Zn2 3.415976 1_445
Tb3 Zn0 3.415981 1_545
Tb3 Zn30 3.415981 1_544
Zn0 Zn28 2.511237 1_565
Zn0 Zn33 2.511237 1_455
Zn0 Zn10 2.599259 1_555
Zn0 Zn13 2.599259 1_565
Zn0 Zn23 2.691326 1_555
Zn0 Zn14 2.691326 1_555
Zn0 Zn16 2.693383 1_455
Zn0 Zn19 2.693383 1_565
Zn0 Zn7 2.835098 1_555
Zn1 Zn28 2.511222 1_555
Zn1 Zn27 2.511237 1_455
Zn1 Zn9 2.599259 1_555
Zn1 Zn10 2.599267 1_555
Zn1 Zn25 2.691325 1_555
Zn1 Zn17 2.691329 1_555
Zn1 Zn15 2.693380 1_555
Zn1 Zn22 2.693386 1_455
Zn1 Zn7 2.835112 1_555
Zn2 Zn33 2.511222 1_555
Zn2 Zn27 2.511237 1_565
Zn2 Zn9 2.599259 1_555
Zn2 Zn24 2.691329 1_555
Zn2 Zn20 2.693380 1_555
Zn2 Zn21 2.693386 1_565
Zn2 Zn7 2.835112 1_555
Zn3 Zn30 2.511237 1_544
Zn3 Zn8 2.599267 1_555
Zn3 Zn6 2.835112 1_554
Zn4 Zn7 2.557214 1_555
Zn4 Zn8 2.706783 1_565
Zn5 Zn6 2.557214 1_555
Zn5 Zn9 2.706790 1_555
Zn6 Zn8 2.706783 1_556
Zn7 Zn9 2.706790 1_555
Zn10 Zn22 2.563437 1_455
Zn10 Zn23 2.563437 1_555
Zn10 Zn16 2.563437 1_455
Zn10 Zn17 2.563437 1_555
Zn10 Zn27 2.599259 1_455
Zn10 Zn33 2.599267 1_455
Zn10 Zn5 2.706783 1_455
Zn10 Zn7 2.706783 1_555
Zn11 Zn22 2.563437 1_454
Zn11 Zn23 2.563437 1_555
Zn11 Zn16 2.563437 1_454
Zn11 Zn17 2.563437 1_555
Zn11 Zn30 2.599259 1_554
Zn11 Zn32 2.599259 1_455
Zn11 Zn26 2.599267 1_554
Zn11 Zn31 2.599267 1_455
Zn11 Zn4 2.706783 1_555
Zn11 Zn6 2.706783 1_454
Zn12 Zn18 2.563437 1_555
Zn12 Zn15 2.563437 1_554
Zn12 Zn20 2.563437 1_554
Zn12 Zn25 2.563437 1_555
Zn12 Zn29 2.599259 1_554
Zn12 Zn3 2.599259 1_555
Zn12 Zn26 2.599259 1_554
Zn12 Zn31 2.599259 1_555
Zn12 Zn4 2.706790 1_555
Zn12 Zn6 2.706790 1_554
Zn13 Zn24 2.563437 1_545
Zn13 Zn14 2.563437 1_545
Zn13 Zn21 2.563437 1_555
Zn13 Zn19 2.563437 1_555
Zn13 Zn27 2.599259 1_555
Zn13 Zn2 2.599267 1_545
Zn13 Zn28 2.599267 1_555
Zn13 Zn7 2.706783 1_545
Zn13 Zn5 2.706783 1_555
Zn14 Zn23 2.557715 1_555
Zn14 Zn8 2.563437 1_565
Zn14 Zn24 2.670888 1_555
Zn14 Zn30 2.691326 1_554
Zn14 Zn3 2.693386 1_565
Zn14 Zn28 2.693386 1_565
Zn14 Zn7 2.910404 1_555
Zn14 Zn4 2.910404 1_555
Zn15 Zn19 2.557715 1_555
Zn15 Zn9 2.563437 1_555
Zn15 Zn20 2.670888 1_555
Zn15 Zn28 2.691325 1_555
Zn15 Zn3 2.691325 1_556
Zn15 Zn26 2.693380 1_555
Zn15 Zn6 2.910412 1_555
Zn15 Zn5 2.910412 1_555
Zn16 Zn20 2.557715 1_555
Zn16 Zn22 2.670888 1_555
Zn16 Zn33 2.691329 1_555
Zn16 Zn31 2.691329 1_556
Zn16 Zn30 2.693383 1_655
Zn16 Zn5 2.910408 1_555
Zn16 Zn6 2.910408 1_555
Zn17 Zn25 2.557715 1_555
Zn17 Zn23 2.670888 1_555
Zn17 Zn26 2.691329 1_554
Zn17 Zn32 2.693383 1_455
Zn17 Zn27 2.693383 1_455
Zn17 Zn7 2.910408 1_555
Zn17 Zn4 2.910408 1_555
Zn18 Zn24 2.557715 1_555
Zn18 Zn9 2.563437 1_555
Zn18 Zn25 2.670888 1_555
Zn18 Zn2 2.691325 1_555
Zn18 Zn29 2.691325 1_554
Zn18 Zn33 2.693380 1_555
Zn18 Zn31 2.693380 1_555
Zn18 Zn4 2.910412 1_555
Zn18 Zn7 2.910412 1_555
Zn19 Zn8 2.563437 1_556
Zn19 Zn21 2.670888 1_555
Zn19 Zn28 2.691329 1_555
Zn19 Zn3 2.691329 1_556
Zn19 Zn30 2.693383 1_545
Zn19 Zn5 2.910408 1_555
Zn19 Zn6 2.910408 1_555
Zn20 Zn9 2.563437 1_555
Zn20 Zn33 2.691325 1_555
Zn20 Zn31 2.691325 1_556
Zn20 Zn29 2.693380 1_555
Zn20 Zn6 2.910412 1_555
Zn20 Zn5 2.910412 1_555
Zn21 Zn22 2.557715 1_555
Zn21 Zn8 2.563437 1_556
Zn21 Zn27 2.691326 1_555
Zn21 Zn32 2.691326 1_556
Zn21 Zn29 2.693386 1_545
Zn21 Zn5 2.910404 1_555
Zn21 Zn6 2.910404 1_555
Zn22 Zn27 2.691326 1_555
Zn22 Zn32 2.691326 1_556
Zn22 Zn26 2.693386 1_655
Zn22 Zn6 2.910404 1_555
Zn22 Zn5 2.910404 1_555
Zn23 Zn30 2.691326 1_554
Zn23 Zn31 2.693386 1_455
Zn23 Zn33 2.693386 1_455
Zn23 Zn7 2.910404 1_555
Zn23 Zn4 2.910404 1_555
Zn24 Zn8 2.563437 1_565
Zn24 Zn29 2.691329 1_554
Zn24 Zn32 2.693383 1_565
Zn24 Zn27 2.693383 1_565
Zn24 Zn7 2.910408 1_555
Zn24 Zn4 2.910408 1_555
Zn25 Zn9 2.563437 1_555
Zn25 Zn26 2.691325 1_554
Zn25 Zn28 2.693380 1_555
Zn25 Zn3 2.693380 1_555
Zn25 Zn7 2.910412 1_555
Zn25 Zn4 2.910412 1_555
Zn26 Zn3 2.511222 1_556
Zn26 Zn32 2.511237 1_456
Zn26 Zn4 2.835112 1_556
Zn27 Zn5 2.835098 1_555
Zn28 Zn9 2.599259 1_555
Zn28 Zn5 2.835112 1_555
Zn29 Zn31 2.511222 1_556
Zn29 Zn32 2.511237 1_566
Zn29 Zn8 2.599267 1_566
Zn29 Zn4 2.835112 1_556
Zn30 Zn31 2.511237 1_456
Zn30 Zn8 2.599259 1_566
Zn30 Zn4 2.835098 1_556
Zn31 Zn6 2.835112 1_554
Zn32 Zn8 2.599259 1_555
Zn32 Zn6 2.835098 1_554
Zn33 Zn9 2.599259 1_555
Zn33 Zn5 2.835112 1_555
