# generated using pymatgen
data_NaCaGaF6
_symmetry_space_group_name_H-M   'P 1'
_cell_length_a   9.06253329
_cell_length_b   9.06249484
_cell_length_c   5.10416113
_cell_angle_alpha   89.99870716
_cell_angle_beta   90.00118185
_cell_angle_gamma   120.00005676
_symmetry_Int_Tables_number   1
_chemical_formula_structural   NaCaGaF6
_chemical_formula_sum   'Na3 Ca3 Ga3 F18'
_cell_volume   363.03805029
_cell_formula_units_Z   3
loop_
 _symmetry_equiv_pos_site_id
 _symmetry_equiv_pos_as_xyz
  1  'x, y, z'
loop_
 _atom_site_type_symbol
 _atom_site_label
 _atom_site_symmetry_multiplicity
 _atom_site_fract_x
 _atom_site_fract_y
 _atom_site_fract_z
 _atom_site_occupancy
  Na  Na0  1  0.99998264  0.71068249  0.49999076  1
  Na  Na1  1  0.71068287  0.99998398  0.50000938  1
  Na  Na2  1  0.28931767  0.28931986  0.50000097  1
  Ca  Ca0  1  0.62904133  0.62904225  0.99999940  1
  Ca  Ca1  1  0.99999235  0.37095695  0.99999920  1
  Ca  Ca2  1  0.37096487  0.99999350  0.00000156  1
  Ga  Ga0  1  0.66668013  0.33333551  0.50156159  1
  Ga  Ga1  1  0.33334044  0.66667768  0.49844007  1
  Ga  Ga2  1  0.99998139  0.99998813  0.00000086  1
  F  F0  1  0.77723209  0.24642739  0.28640706  1
  F  F1  1  0.75356741  0.53079582  0.28639011  1
  F  F2  1  0.46919203  0.22276449  0.28638278  1
  F  F3  1  0.53079408  0.75356838  0.71360670  1
  F  F4  1  0.22276558  0.46919325  0.71361672  1
  F  F5  1  0.24642577  0.77723605  0.71359385  1
  F  F6  1  0.41050364  0.54735173  0.28298920  1
  F  F7  1  0.45264278  0.86314305  0.28297204  1
  F  F8  1  0.13685424  0.58949211  0.28295292  1
  F  F9  1  0.91338243  0.11432338  0.79276967  1
  F  F10  1  0.88568589  0.79906900  0.79278490  1
  F  F11  1  0.20095528  0.08663303  0.79275938  1
  F  F12  1  0.79907102  0.88568804  0.20721151  1
  F  F13  1  0.08663153  0.20095123  0.20723667  1
  F  F14  1  0.11432742  0.91338005  0.20723491  1
  F  F15  1  0.54735067  0.41050212  0.71701503  1
  F  F16  1  0.58949156  0.13685625  0.71704707  1
  F  F17  1  0.86314290  0.45264426  0.71702571  1
loop_
_geom_bond_atom_site_label_1
_geom_bond_atom_site_label_2
_geom_bond_distance
_geom_bond_site_symmetry_2
Ca0 F15 2.256253 1_555
Ca0 F6 2.256258 1_556
Ca0 F1 2.282055 1_556
Ca0 F3 2.282065 1_555
Ca0 F10 2.306227 1_555
Ca0 F12 2.306231 1_556
Ca1 F8 2.256132 1_656
Ca1 F17 2.256158 1_555
Ca1 F4 2.282080 1_655
Ca1 F0 2.282081 1_556
Ca1 F9 2.306194 1_555
Ca1 F13 2.306219 1_656
Ca2 F16 2.256089 1_564
Ca2 F7 2.256101 1_555
Ca2 F2 2.282064 1_565
Ca2 F5 2.282067 1_554
Ca2 F14 2.306233 1_555
Ca2 F11 2.306266 1_564
F0 Ga0 1.902436 1_555
F0 Na1 2.278901 1_545
F1 Ga0 1.902458 1_555
F1 Na0 2.278742 1_555
F2 Ga0 1.902660 1_555
F2 Na2 2.278870 1_555
F3 Ga1 1.902406 1_555
F3 Na1 2.278732 1_555
F4 Ga1 1.902625 1_555
F4 Na2 2.278835 1_555
F5 Ga1 1.902516 1_555
F5 Na0 2.278903 1_455
F6 Ga1 1.903693 1_555
F6 Na2 2.309331 1_555
F7 Ga1 1.903546 1_555
F7 Na1 2.309460 1_555
F8 Ga1 1.903728 1_555
F8 Na0 2.309650 1_455
F9 Ga2 1.903017 1_546
F9 Na1 2.185767 1_545
F10 Ga2 1.902886 1_556
F10 Na0 2.185811 1_555
F11 Ga2 1.903324 1_446
F11 Na2 2.185672 1_555
F12 Ga2 1.902822 1_555
F12 Na1 2.185828 1_555
F13 Ga2 1.903229 1_445
F13 Na2 2.185694 1_555
F14 Ga2 1.903157 1_455
F14 Na0 2.185735 1_455
F15 Ga0 1.903746 1_555
F15 Na2 2.309357 1_555
F16 Ga0 1.903664 1_555
F16 Na1 2.309660 1_545
F17 Ga0 1.903533 1_555
F17 Na0 2.309431 1_555
