# generated using pymatgen
data_Zr10Ga2Pb4S
_symmetry_space_group_name_H-M   'P 1'
_cell_length_a   8.50665657
_cell_length_b   8.50952965
_cell_length_c   5.86188105
_cell_angle_alpha   89.93438972
_cell_angle_beta   90.03282139
_cell_angle_gamma   120.01117584
_symmetry_Int_Tables_number   1
_chemical_formula_structural   Zr10Ga2Pb4S
_chemical_formula_sum   'Zr10 Ga2 Pb4 S1'
_cell_volume   367.43699896
_cell_formula_units_Z   1
loop_
 _symmetry_equiv_pos_site_id
 _symmetry_equiv_pos_as_xyz
  1  'x, y, z'
loop_
 _atom_site_type_symbol
 _atom_site_label
 _atom_site_symmetry_multiplicity
 _atom_site_fract_x
 _atom_site_fract_y
 _atom_site_fract_z
 _atom_site_occupancy
  Zr  Zr0  1  1.00000000  0.75476216  0.24510982  1
  Zr  Zr1  1  0.24693047  0.24664036  0.23767822  1
  Zr  Zr2  1  0.75306953  0.99970889  0.23767822  1
  Zr  Zr3  1  0.00000000  0.24332860  0.76064255  1
  Zr  Zr4  1  0.73754080  0.75134233  0.75409101  1
  Zr  Zr5  1  0.26245920  0.01380153  0.75409101  1
  Zr  Zr6  1  0.34213558  0.66928659  0.50685984  1
  Zr  Zr7  1  0.65786442  0.32715101  0.50685984  1
  Zr  Zr8  1  0.65854430  0.32601910  0.99267189  1
  Zr  Zr9  1  0.34145570  0.66747580  0.99267189  1
  Ga  Ga0  1  0.39047259  0.39291694  0.75306583  1
  Ga  Ga1  1  0.60952741  0.00244435  0.75306583  1
  Pb  Pb0  1  0.00000000  0.39582338  0.25318988  1
  Pb  Pb1  1  0.60583675  0.60184024  0.24911580  1
  Pb  Pb2  1  0.39416325  0.99600349  0.24911580  1
  Pb  Pb3  1  0.00000000  0.61221336  0.75094385  1
  S  S0  1  0.00000000  0.99924289  0.50314872  1
loop_
_geom_bond_atom_site_label_1
_geom_bond_atom_site_label_2
_geom_bond_distance
_geom_bond_site_symmetry_2
Ga0 Zr5 2.842399 1_555
Ga0 Zr3 2.902738 1_555
Ga0 Zr9 2.930516 1_555
Ga0 Zr6 2.956641 1_555
Ga0 Zr8 2.964810 1_555
Ga0 Zr7 2.974720 1_555
Ga0 Zr4 3.001905 1_555
Ga0 Zr1 3.096069 1_556
Ga0 Zr1 3.263685 1_555
Ga1 Zr4 2.842399 1_545
Ga1 Zr3 2.902738 1_655
Ga1 Zr8 2.930508 1_555
Ga1 Zr7 2.956641 1_555
Ga1 Zr9 2.964805 1_545
Ga1 Zr6 2.974719 1_545
Ga1 Zr5 3.001905 1_555
Ga1 Zr2 3.096070 1_546
Ga1 Zr2 3.263687 1_545
Pb0 Zr1 2.949602 1_555
Pb0 Zr2 2.949608 1_445
Pb0 Zr6 3.053659 1_555
Pb0 Zr7 3.053659 1_455
Pb0 Zr0 3.054713 1_455
Pb0 Zr8 3.064795 1_454
Pb0 Zr9 3.064798 1_554
Pb0 Zr3 3.166818 1_554
Pb0 Zr3 3.243992 1_555
Pb1 Zr0 2.927780 1_555
Pb1 Zr2 2.965412 1_555
Pb1 Zr9 2.980008 1_554
Pb1 Zr6 2.989632 1_555
Pb1 Zr7 2.994729 1_555
Pb1 Zr8 3.005205 1_554
Pb1 Zr1 3.038218 1_555
Pb1 Zr4 3.140615 1_554
Pb1 Zr4 3.196081 1_555
Pb2 Zr0 2.927780 1_455
Pb2 Zr1 2.965420 1_565
Pb2 Zr8 2.980003 1_564
Pb2 Zr7 2.989632 1_565
Pb2 Zr6 2.994729 1_555
Pb2 Zr9 3.005198 1_554
Pb2 Zr2 3.038222 1_555
Pb2 Zr5 3.140615 1_564
Pb2 Zr5 3.196081 1_565
Pb3 Zr5 3.005164 1_565
Pb3 Zr4 3.005164 1_455
Pb3 Zr9 3.048994 1_555
Pb3 Zr8 3.048997 1_455
Pb3 Zr7 3.056606 1_455
Pb3 Zr6 3.056606 1_555
Pb3 Zr3 3.139486 1_555
Pb3 Zr0 3.141749 1_456
Pb3 Zr0 3.202380 1_455
S0 Zr3 2.568972 1_565
S0 Zr0 2.573573 1_455
S0 Zr2 2.615059 1_455
S0 Zr1 2.615063 1_565
S0 Zr5 2.623712 1_565
S0 Zr4 2.623712 1_455
