# generated using pymatgen
data_Tb2Al3Si2
_symmetry_space_group_name_H-M   'P 1'
_cell_length_a   4.04808142
_cell_length_b   5.47331108
_cell_length_c   6.60758492
_cell_angle_alpha   100.43554907
_cell_angle_beta   90.00000000
_cell_angle_gamma   111.70340480
_symmetry_Int_Tables_number   1
_chemical_formula_structural   Tb2Al3Si2
_chemical_formula_sum   'Tb2 Al3 Si2'
_cell_volume   133.41230973
_cell_formula_units_Z   1
loop_
 _symmetry_equiv_pos_site_id
 _symmetry_equiv_pos_as_xyz
  1  'x, y, z'
loop_
 _atom_site_type_symbol
 _atom_site_label
 _atom_site_symmetry_multiplicity
 _atom_site_fract_x
 _atom_site_fract_y
 _atom_site_fract_z
 _atom_site_occupancy
  Tb  Tb0  1  0.38015678  0.76031255  0.67790777  1
  Tb  Tb1  1  0.61984322  0.23968745  0.32209223  1
  Al  Al0  1  0.69444564  0.38889127  0.86787333  1
  Al  Al1  1  0.00000000  -0.00000000  -0.00000000  1
  Al  Al2  1  0.30555436  0.61110873  0.13212667  1
  Si  Si0  1  0.90810128  0.81620255  0.35850784  1
  Si  Si1  1  0.09189872  0.18379745  0.64149216  1
loop_
_geom_bond_atom_site_label_1
_geom_bond_atom_site_label_2
_geom_bond_distance
_geom_bond_site_symmetry_2
Al0 Si1 2.610317 1_555
Al0 Si1 2.610317 1_655
Al0 Tb0 3.188137 1_555
Al0 Tb0 3.188140 1_655
Al0 Tb0 3.198265 1_545
Al0 Tb1 3.235943 1_556
Al1 Si1 2.710799 1_554
Al1 Si0 2.710799 1_445
Al1 Tb0 3.016693 1_444
Al1 Tb1 3.016693 1_555
Al1 Tb1 3.016696 1_455
Al1 Tb0 3.016696 1_544
Al2 Si0 2.610317 1_555
Al2 Si0 2.610317 1_455
Al2 Tb1 3.188137 1_555
Al2 Tb1 3.188140 1_455
Al2 Tb1 3.198265 1_565
Al2 Tb0 3.235943 1_554
Si0 Si1 2.372317 1_665
Si0 Tb1 2.894488 1_555
Si0 Tb0 2.977488 1_555
Si0 Tb0 2.977491 1_655
Si0 Tb1 2.999076 1_665
Si0 Tb1 2.999079 1_565
Si1 Tb0 2.894488 1_555
Si1 Tb1 2.977488 1_555
Si1 Tb1 2.977491 1_455
Si1 Tb0 2.999076 1_445
Si1 Tb0 2.999079 1_545
