# generated using pymatgen
data_Sc12Co4TcSn
_symmetry_space_group_name_H-M   'P 1'
_cell_length_a   7.71581554
_cell_length_b   7.71581603
_cell_length_c   7.71581613
_cell_angle_alpha   111.54096475
_cell_angle_beta   110.65030927
_cell_angle_gamma   106.27036232
_symmetry_Int_Tables_number   1
_chemical_formula_structural   Sc12Co4TcSn
_chemical_formula_sum   'Sc12 Co4 Tc1 Sn1'
_cell_volume   352.76487432
_cell_formula_units_Z   1
loop_
 _symmetry_equiv_pos_site_id
 _symmetry_equiv_pos_as_xyz
  1  'x, y, z'
loop_
 _atom_site_type_symbol
 _atom_site_label
 _atom_site_symmetry_multiplicity
 _atom_site_fract_x
 _atom_site_fract_y
 _atom_site_fract_z
 _atom_site_occupancy
  Sc  Sc0  1  0.42345242  0.22338617  0.20006525  1
  Sc  Sc1  1  0.57654758  0.77661383  0.79993475  1
  Sc  Sc2  1  0.02332092  0.22338617  0.79993475  1
  Sc  Sc3  1  0.97667908  0.77661383  0.20006525  1
  Sc  Sc4  1  0.30863430  0.61039646  0.30176316  1
  Sc  Sc5  1  0.69136570  0.38960354  0.69823684  1
  Sc  Sc6  1  0.30863430  0.00687014  0.69823684  1
  Sc  Sc7  1  0.69136570  0.99312986  0.30176316  1
  Sc  Sc8  1  0.18568740  0.27654036  0.46222877  1
  Sc  Sc9  1  0.81431260  0.72345864  0.53777123  1
  Sc  Sc10  1  0.18568740  0.72345864  0.90914704  1
  Sc  Sc11  1  0.81431260  0.27654036  0.09085296  1
  Co  Co0  1  0.37369347  0.00000000  0.37369347  1
  Co  Co1  1  0.62630653  1.00000000  0.62630653  1
  Co  Co2  1  0.11556164  0.61556164  0.50000000  1
  Co  Co3  1  0.88443836  0.38443836  0.50000000  1
  Tc  Tc0  1  0.00000000  0.00000000  0.00000000  1
  Sn  Sn0  1  0.50000000  0.50000000  0.00000000  1
loop_
_geom_bond_atom_site_label_1
_geom_bond_atom_site_label_2
_geom_bond_distance
_geom_bond_site_symmetry_2
Sc0 Tc0 2.713317 1_555
Sc0 Sn0 3.105330 1_555
Sc0 Sc10 3.171009 1_544
Sc0 Sc8 3.171016 1_555
Sc0 Sc11 3.365492 1_555
Sc0 Sc9 3.365492 1_555
Sc1 Tc0 2.713317 1_666
Sc1 Sn0 3.105330 1_556
Sc1 Sc11 3.171003 1_566
Sc1 Sc9 3.171016 1_555
Sc1 Sc10 3.365491 1_555
Sc1 Sc8 3.365496 1_555
Sc2 Tc0 2.713311 1_556
Sc2 Sn0 3.105331 1_556
Sc2 Sc9 3.171010 1_445
Sc2 Sc8 3.365492 1_555
Sc3 Tc0 2.713311 1_665
Sc3 Sn0 3.105331 1_555
Sc3 Sc8 3.171003 1_665
Sc3 Sc9 3.365494 1_555
Sc4 Sn0 3.162302 1_555
Sc4 Sc8 3.296922 1_555
Sc4 Sc9 3.348928 1_555
Sc5 Sn0 3.162302 1_556
Sc5 Sc9 3.296916 1_555
Sc5 Sc8 3.348926 1_555
Sc6 Sn0 3.162309 1_556
Sc6 Sc9 3.296920 1_445
Sc6 Sc8 3.348931 1_555
Sc7 Sn0 3.162309 1_555
Sc7 Sc8 3.296919 1_665
Sc7 Sc9 3.348937 1_555
Sc8 Tc0 2.901722 1_555
Sc8 Sn0 3.372997 1_556
Sc9 Tc0 2.901723 1_666
Sc9 Sn0 3.372998 1_555
Sc10 Tc0 2.901722 1_566
Sc10 Sc3 3.171003 1_456
Sc10 Sc9 3.260431 1_455
Sc10 Sc5 3.296918 1_455
Sc10 Sc6 3.296923 1_565
Sc10 Sc7 3.348928 1_556
Sc10 Sc4 3.348929 1_556
Sc10 Sc2 3.365492 1_555
Sc10 Sn0 3.372997 1_556
Sc11 Tc0 2.901716 1_655
Sc11 Sc2 3.171003 1_654
Sc11 Sc8 3.260431 1_655
Sc11 Sc7 3.296917 1_545
Sc11 Sc4 3.296920 1_655
Sc11 Sc6 3.348928 1_554
Sc11 Sc5 3.348934 1_554
Sc11 Sc3 3.365499 1_555
Sc11 Sn0 3.373003 1_555
Co0 Co1 2.217776 1_545
Co0 Sc3 2.569160 1_445
Co0 Sc0 2.569162 1_555
Co0 Sc7 2.707292 1_545
Co0 Sc6 2.707296 1_555
Co0 Sc5 2.707298 1_555
Co0 Sc4 2.707301 1_545
Co0 Sc8 2.913202 1_555
Co0 Sc10 2.913202 1_544
Co1 Sc2 2.569160 1_665
Co1 Sc1 2.569162 1_555
Co1 Sc6 2.707292 1_565
Co1 Sc7 2.707296 1_555
Co1 Sc4 2.707298 1_555
Co1 Sc5 2.707301 1_565
Co1 Sc11 2.913201 1_566
Co1 Sc9 2.913208 1_555
Co2 Co3 2.139713 1_455
Co2 Sc6 2.481133 1_565
Co2 Sc4 2.481139 1_555
Co2 Sc9 2.750399 1_455
Co2 Sc11 2.750406 1_455
Co2 Sc8 2.750407 1_555
Co2 Sc10 2.750407 1_555
Co2 Sc1 3.026045 1_555
Co2 Sc3 3.026051 1_455
Co3 Sc7 2.481133 1_545
Co3 Sc5 2.481139 1_555
Co3 Sc9 2.750399 1_555
Co3 Sc8 2.750403 1_655
Co3 Sc10 2.750403 1_655
Co3 Sc11 2.750406 1_555
Co3 Sc0 3.026045 1_555
Co3 Sc2 3.026051 1_655
