# generated using pymatgen
data_Cs2VZn3As4
_symmetry_space_group_name_H-M   'P 1'
_cell_length_a   8.13014501
_cell_length_b   8.13014416
_cell_length_c   5.86371857
_cell_angle_alpha   90.00000000
_cell_angle_beta   90.00000000
_cell_angle_gamma   137.67857697
_symmetry_Int_Tables_number   1
_chemical_formula_structural   Cs2VZn3As4
_chemical_formula_sum   'Cs2 V1 Zn3 As4'
_cell_volume   260.95834279
_cell_formula_units_Z   1
loop_
 _symmetry_equiv_pos_site_id
 _symmetry_equiv_pos_as_xyz
  1  'x, y, z'
loop_
 _atom_site_type_symbol
 _atom_site_label
 _atom_site_symmetry_multiplicity
 _atom_site_fract_x
 _atom_site_fract_y
 _atom_site_fract_z
 _atom_site_occupancy
  Cs  Cs0  1  0.50000000  0.00000000  0.25712342  1
  Cs  Cs1  1  0.00000000  0.50000000  0.74287658  1
  V  V0  1  0.00000000  0.00000000  0.00000000  1
  Zn  Zn0  1  0.50000000  0.50000000  0.50000000  1
  Zn  Zn1  1  0.50000000  0.50000000  0.00000000  1
  Zn  Zn2  1  0.00000000  0.00000000  0.50000000  1
  As  As0  1  0.66667727  0.85470368  0.76124510  1
  As  As1  1  0.14529632  0.33332273  0.23875490  1
  As  As2  1  0.85470368  0.66667727  0.23875490  1
  As  As3  1  0.33332273  0.14529632  0.76124510  1
loop_
_geom_bond_atom_site_label_1
_geom_bond_atom_site_label_2
_geom_bond_distance
_geom_bond_site_symmetry_2
As0 V0 2.442428 1_666
As0 Zn1 2.516700 1_556
As0 Zn2 2.520337 1_665
As0 Zn0 2.592378 1_555
As0 Cs1 3.722308 1_665
As0 Cs0 3.748808 1_566
As0 Cs0 3.786422 1_565
As0 Cs1 3.819978 1_555
As1 V0 2.442428 1_555
As1 Zn1 2.516700 1_555
As1 Zn2 2.520337 1_555
As1 Zn0 2.592378 1_555
As1 Cs0 3.722309 1_455
As1 Cs1 3.748808 1_554
As1 Cs1 3.786422 1_555
As1 Cs0 3.819978 1_565
As2 V0 2.442428 1_665
As2 Zn1 2.516700 1_555
As2 Zn2 2.520337 1_665
As2 Zn0 2.592378 1_555
As2 Cs0 3.722309 1_665
As2 Cs1 3.748808 1_654
As2 Cs1 3.786422 1_655
As2 Cs0 3.819978 1_555
As3 V0 2.442428 1_556
As3 Zn1 2.516700 1_556
As3 Zn2 2.520337 1_555
As3 Zn0 2.592378 1_555
As3 Cs1 3.722308 1_545
As3 Cs0 3.748808 1_556
As3 Cs0 3.786422 1_555
As3 Cs1 3.819978 1_655
