# generated using pymatgen
data_LiMg(Ta2N3)2
_symmetry_space_group_name_H-M   'P 1'
_cell_length_a   5.21368928
_cell_length_b   5.21368877
_cell_length_c   10.35235573
_cell_angle_alpha   90.00000000
_cell_angle_beta   90.00000000
_cell_angle_gamma   119.99999698
_symmetry_Int_Tables_number   1
_chemical_formula_structural   LiMg(Ta2N3)2
_chemical_formula_sum   'Li2 Mg2 Ta8 N12'
_cell_volume   243.70255291
_cell_formula_units_Z   2
loop_
 _symmetry_equiv_pos_site_id
 _symmetry_equiv_pos_as_xyz
  1  'x, y, z'
loop_
 _atom_site_type_symbol
 _atom_site_label
 _atom_site_symmetry_multiplicity
 _atom_site_fract_x
 _atom_site_fract_y
 _atom_site_fract_z
 _atom_site_occupancy
  Li  Li0  1  0.33333300  0.66666700  0.00000000  1
  Li  Li1  1  0.33333300  0.66666700  0.50000000  1
  Mg  Mg0  1  0.66666700  0.33333300  0.50000000  1
  Mg  Mg1  1  0.66666700  0.33333300  0.00000000  1
  Ta  Ta0  1  0.00467288  0.34924676  0.25000000  1
  Ta  Ta1  1  0.65075324  0.99532712  0.75000000  1
  Ta  Ta2  1  0.34457389  0.34924676  0.75000000  1
  Ta  Ta3  1  0.00000000  0.00000000  0.50000000  1
  Ta  Ta4  1  0.00000000  0.00000000  0.00000000  1
  Ta  Ta5  1  0.65075324  0.65542611  0.25000000  1
  Ta  Ta6  1  0.34457389  0.99532712  0.25000000  1
  Ta  Ta7  1  0.00467288  0.65542611  0.75000000  1
  N  N0  1  0.67701526  0.67361098  0.62212426  1
  N  N1  1  0.67701526  0.67361098  0.87787574  1
  N  N2  1  0.32638902  0.32298474  0.12212426  1
  N  N3  1  0.32638902  0.32298474  0.37787574  1
  N  N4  1  0.32638902  0.00340328  0.87787574  1
  N  N5  1  0.32638902  0.00340328  0.62212426  1
  N  N6  1  0.99659672  0.67361098  0.37787574  1
  N  N7  1  0.99659672  0.67361098  0.12212426  1
  N  N8  1  0.67701526  0.00340328  0.12212426  1
  N  N9  1  0.67701526  0.00340328  0.37787574  1
  N  N10  1  0.99659672  0.32298474  0.87787574  1
  N  N11  1  0.99659672  0.32298474  0.62212426  1
loop_
_geom_bond_atom_site_label_1
_geom_bond_atom_site_label_2
_geom_bond_distance
_geom_bond_site_symmetry_2
Li0 N4 2.178423 1_564
Li0 N7 2.178423 1_455
Li0 N10 2.178427 1_454
Li0 N8 2.178427 1_565
Li0 N2 2.178431 1_555
Li0 N1 2.178431 1_554
Li1 N5 2.178423 1_565
Li1 N6 2.178423 1_455
Li1 N11 2.178427 1_455
Li1 N9 2.178427 1_565
Li1 N3 2.178431 1_555
Li1 N0 2.178431 1_555
Mg0 N0 2.157087 1_555
Mg0 N9 2.157087 1_555
Mg0 N6 2.157087 1_555
Mg0 N11 2.157087 1_555
Mg0 N5 2.157087 1_555
Mg0 N3 2.157087 1_555
Mg1 N1 2.157087 1_554
Mg1 N8 2.157087 1_555
Mg1 N7 2.157087 1_555
Mg1 N10 2.157087 1_554
Mg1 N4 2.157087 1_554
Mg1 N2 2.157087 1_555
N0 Ta3 2.112878 1_665
N0 Ta2 2.164581 1_555
N0 Ta1 2.194157 1_555
N0 Ta7 2.200397 1_655
N1 Ta4 2.112878 1_666
N1 Ta2 2.164581 1_555
N1 Ta1 2.194157 1_555
N1 Ta7 2.200397 1_655
N2 Ta4 2.112878 1_555
N2 Ta5 2.164581 1_555
N2 Ta0 2.194157 1_555
N2 Ta6 2.200397 1_545
N3 Ta3 2.112878 1_555
N3 Ta5 2.164581 1_555
N3 Ta0 2.194157 1_555
N3 Ta6 2.200397 1_545
N4 Ta4 2.112880 1_556
N4 Ta1 2.164579 1_545
N4 Ta7 2.194155 1_545
N4 Ta2 2.200401 1_555
N5 Ta3 2.112880 1_555
N5 Ta1 2.164579 1_545
N5 Ta7 2.194155 1_545
N5 Ta2 2.200401 1_555
N6 Ta3 2.112880 1_665
N6 Ta0 2.164579 1_655
N6 Ta6 2.194155 1_655
N6 Ta5 2.200401 1_555
N7 Ta4 2.112880 1_665
N7 Ta0 2.164579 1_655
N7 Ta6 2.194155 1_655
N7 Ta5 2.200401 1_555
N8 Ta4 2.112876 1_655
N8 Ta6 2.164583 1_545
N8 Ta5 2.194153 1_545
N8 Ta0 2.200399 1_655
N9 Ta3 2.112876 1_655
N9 Ta6 2.164583 1_545
N9 Ta5 2.194153 1_545
N9 Ta0 2.200399 1_655
N10 Ta4 2.112875 1_656
N10 Ta7 2.164583 1_655
N10 Ta2 2.194153 1_655
N10 Ta1 2.200399 1_545
N11 Ta3 2.112875 1_655
N11 Ta7 2.164583 1_655
N11 Ta2 2.194153 1_655
N11 Ta1 2.200399 1_545
