# generated using pymatgen
data_Rb5Ag(IO)2
_symmetry_space_group_name_H-M   'P 1'
_cell_length_a   5.79140458
_cell_length_b   7.52517509
_cell_length_c   14.65615646
_cell_angle_alpha   90.00000000
_cell_angle_beta   90.00000000
_cell_angle_gamma   90.00000000
_symmetry_Int_Tables_number   1
_chemical_formula_structural   Rb5Ag(IO)2
_chemical_formula_sum   'Rb10 Ag2 I4 O4'
_cell_volume   638.73484243
_cell_formula_units_Z   2
loop_
 _symmetry_equiv_pos_site_id
 _symmetry_equiv_pos_as_xyz
  1  'x, y, z'
loop_
 _atom_site_type_symbol
 _atom_site_label
 _atom_site_symmetry_multiplicity
 _atom_site_fract_x
 _atom_site_fract_y
 _atom_site_fract_z
 _atom_site_occupancy
  Rb  Rb0  1  0.50000000  0.33100058  0.60073644  1
  Rb  Rb1  1  0.50000000  0.16899942  0.10073644  1
  Rb  Rb2  1  0.00000000  0.60083655  0.73866780  1
  Rb  Rb3  1  0.00000000  0.50000000  0.00000000  1
  Rb  Rb4  1  0.50000000  0.66899942  0.39926356  1
  Rb  Rb5  1  0.50000000  0.83100058  0.89926356  1
  Rb  Rb6  1  0.00000000  0.89916345  0.23866780  1
  Rb  Rb7  1  0.00000000  0.39916345  0.26133220  1
  Rb  Rb8  1  0.00000000  0.10083655  0.76133220  1
  Rb  Rb9  1  0.00000000  0.00000000  0.50000000  1
  Ag  Ag0  1  0.00000000  0.50000000  0.50000000  1
  Ag  Ag1  1  0.00000000  0.00000000  0.00000000  1
  I  I0  1  0.50000000  0.65169527  0.14503730  1
  I  I1  1  0.50000000  0.34830473  0.85496270  1
  I  I2  1  0.50000000  0.15169527  0.35496270  1
  I  I3  1  0.50000000  0.84830473  0.64503730  1
  O  O0  1  0.00000000  0.67474327  0.39319372  1
  O  O1  1  0.00000000  0.82525673  0.89319372  1
  O  O2  1  0.00000000  0.17474327  0.10680628  1
  O  O3  1  0.00000000  0.32525673  0.60680628  1
loop_
_geom_bond_atom_site_label_1
_geom_bond_atom_site_label_2
_geom_bond_distance
_geom_bond_site_symmetry_2
Ag0 O0 2.044392 1_555
Ag0 O3 2.044392 1_555
Ag1 O2 2.044392 1_555
Ag1 O1 2.044392 1_544
I0 Rb1 3.689943 1_555
I0 Rb6 3.706230 1_655
I0 Rb6 3.706230 1_555
I0 Rb4 3.728255 1_555
I0 Rb3 3.769184 1_655
I0 Rb3 3.769184 1_555
I0 Rb5 3.846522 1_554
I0 Rb7 3.860247 1_655
I0 Rb7 3.860247 1_555
I0 Rb1 3.946580 1_565
I1 Rb5 3.689943 1_555
I1 Rb8 3.706230 1_655
I1 Rb8 3.706230 1_555
I1 Rb0 3.728255 1_555
I1 Rb3 3.769184 1_656
I1 Rb3 3.769184 1_556
I1 Rb1 3.846522 1_556
I1 Rb2 3.860247 1_555
I1 Rb2 3.860247 1_655
I1 Rb5 3.946580 1_545
I2 Rb4 3.689943 1_545
I2 Rb7 3.706230 1_555
I2 Rb7 3.706230 1_655
I2 Rb1 3.728255 1_555
I2 Rb9 3.769184 1_555
I2 Rb9 3.769184 1_655
I2 Rb0 3.846522 1_555
I2 Rb6 3.860247 1_545
I2 Rb6 3.860247 1_645
I2 Rb4 3.946580 1_555
I3 Rb0 3.689943 1_565
I3 Rb2 3.706230 1_555
I3 Rb2 3.706230 1_655
I3 Rb5 3.728255 1_555
I3 Rb9 3.769184 1_665
I3 Rb9 3.769184 1_565
I3 Rb4 3.846522 1_555
I3 Rb8 3.860247 1_565
I3 Rb8 3.860247 1_665
I3 Rb0 3.946580 1_555
O0 Rb6 2.825096 1_555
O0 Rb7 2.834690 1_555
O0 Rb4 2.897391 1_455
O0 Rb4 2.897391 1_555
O0 Rb9 2.905374 1_565
O1 Rb2 2.825096 1_555
O1 Rb8 2.834690 1_565
O1 Rb5 2.897391 1_555
O1 Rb5 2.897391 1_455
O1 Rb3 2.905374 1_556
O2 Rb7 2.825096 1_555
O2 Rb6 2.834690 1_545
O2 Rb1 2.897391 1_455
O2 Rb1 2.897391 1_555
O2 Rb3 2.905374 1_555
O3 Rb8 2.825096 1_555
O3 Rb2 2.834690 1_555
O3 Rb0 2.897391 1_455
O3 Rb0 2.897391 1_555
O3 Rb9 2.905374 1_555
