# generated using pymatgen
data_Y3Zr(Si5Os3)2
_symmetry_space_group_name_H-M   'P 1'
_cell_length_a   8.04642509
_cell_length_b   8.04353508
_cell_length_c   5.77222307
_cell_angle_alpha   70.84899897
_cell_angle_beta   70.53940599
_cell_angle_gamma   93.94598777
_symmetry_Int_Tables_number   1
_chemical_formula_structural   Y3Zr(Si5Os3)2
_chemical_formula_sum   'Y3 Zr1 Si10 Os6'
_cell_volume   326.03018304
_cell_formula_units_Z   1
loop_
 _symmetry_equiv_pos_site_id
 _symmetry_equiv_pos_as_xyz
  1  'x, y, z'
loop_
 _atom_site_type_symbol
 _atom_site_label
 _atom_site_symmetry_multiplicity
 _atom_site_fract_x
 _atom_site_fract_y
 _atom_site_fract_z
 _atom_site_occupancy
  Y  Y0  1  0.87158301  0.60088600  0.75149348  1
  Y  Y1  1  0.39866208  0.13350747  0.74379848  1
  Y  Y2  1  0.13370564  0.39662641  0.24469354  1
  Zr  Zr0  1  0.59336615  0.86929946  0.25492106  1
  Si  Si0  1  0.06608852  0.26169138  0.83530351  1
  Si  Si1  1  0.73895523  0.93371710  0.66432086  1
  Si  Si2  1  0.92390079  0.74126220  0.16762116  1
  Si  Si3  1  0.26382351  0.06284301  0.33392413  1
  Si  Si4  1  0.20814486  0.79470290  0.74650210  1
  Si  Si5  1  0.79138374  0.20374631  0.25323292  1
  Si  Si6  1  0.51614650  0.48852143  0.75007037  1
  Si  Si7  1  0.48652042  0.51600799  0.24985215  1
  Si  Si8  1  0.77304608  0.22388351  0.75057166  1
  Si  Si9  1  0.23206083  0.77442578  0.25277155  1
  Os  Os0  1  0.25860757  0.54247531  0.63413980  1
  Os  Os1  1  0.45769614  0.74724701  0.86564920  1
  Os  Os2  1  0.74415543  0.45754022  0.36739353  1
  Os  Os3  1  0.54550430  0.25497755  0.12995256  1
  Os  Os4  1  0.00105859  0.99541055  0.75306327  1
  Os  Os5  1  0.99559259  0.00122739  0.25072467  1
loop_
_geom_bond_atom_site_label_1
_geom_bond_atom_site_label_2
_geom_bond_distance
_geom_bond_site_symmetry_2
Si0 Si5 2.547574 1_456
Si0 Si8 2.580488 1_455
Si0 Y1 2.880700 1_555
Si0 Y2 3.057991 1_555
Si0 Y2 3.084871 1_556
Si0 Y0 3.217674 1_455
Si1 Si5 2.520207 1_565
Si1 Si8 2.556516 1_565
Si1 Y0 2.902809 1_555
Si1 Zr0 3.059262 1_556
Si1 Zr0 3.128855 1_555
Si1 Y1 3.246959 1_565
Si2 Si4 2.607538 1_654
Si2 Si9 2.695949 1_655
Si2 Zr0 2.865769 1_555
Si2 Y0 3.050096 1_555
Si2 Y0 3.099913 1_554
Si2 Y2 3.326817 1_655
Si3 Si4 2.511970 1_545
Si3 Si9 2.525437 1_545
Si3 Y2 2.899741 1_555
Si3 Y1 3.047228 1_554
Si3 Y1 3.099268 1_555
Si3 Zr0 3.144984 1_545
Si4 Y0 3.017054 1_455
Si4 Y1 3.026234 1_565
Si4 Zr0 3.284181 1_555
Si4 Y2 3.380485 1_556
Si5 Zr0 3.026245 1_545
Si5 Y2 3.044287 1_655
Si5 Y1 3.326483 1_555
Si5 Y0 3.377763 1_554
Si6 Y0 2.943002 1_555
Si6 Y1 2.961136 1_555
Si6 Y2 3.258159 1_556
Si6 Zr0 3.278242 1_555
Si7 Zr0 2.924103 1_555
Si7 Y2 2.946557 1_555
Si7 Y1 3.270603 1_555
Si7 Y0 3.289766 1_554
Si8 Y1 3.066035 1_555
Si8 Y0 3.083311 1_555
Si8 Zr0 3.143268 1_546
Si8 Y2 3.164737 1_655
Si9 Zr0 2.959614 1_555
Si9 Y2 3.106384 1_555
Si9 Y0 3.145052 1_455
Si9 Y1 3.169533 1_564
Os0 Si0 2.334110 1_555
Os0 Si4 2.345808 1_555
Os0 Si6 2.405754 1_555
Os0 Si7 2.445791 1_555
Os0 Si9 2.458829 1_555
Os0 Y0 3.063038 1_455
Os0 Y2 3.093812 1_556
Os0 Zr0 3.206071 1_555
Os0 Y2 3.242389 1_555
Os1 Si1 2.314879 1_555
Os1 Si4 2.346096 1_555
Os1 Si6 2.415307 1_555
Os1 Si9 2.451367 1_556
Os1 Si7 2.475322 1_556
Os1 Y1 3.060249 1_565
Os1 Zr0 3.098466 1_555
Os1 Zr0 3.184121 1_556
Os1 Y2 3.267409 1_556
Os2 Si2 2.310290 1_555
Os2 Si5 2.359763 1_555
Os2 Si7 2.416817 1_555
Os2 Si6 2.455826 1_555
Os2 Si8 2.480648 1_555
Os2 Y2 3.086506 1_655
Os2 Y0 3.120662 1_554
Os2 Y0 3.213347 1_555
Os2 Y1 3.241105 1_555
Os3 Si5 2.334170 1_555
Os3 Si3 2.336169 1_555
Os3 Si8 2.441537 1_554
Os3 Si7 2.446280 1_555
Os3 Si6 2.469093 1_554
Os3 Zr0 3.028810 1_545
Os3 Y1 3.112148 1_555
Os3 Y1 3.216185 1_554
Os3 Y0 3.253596 1_554
Os4 Si1 2.387272 1_455
Os4 Si4 2.398457 1_555
Os4 Si0 2.401040 1_565
Os4 Si2 2.432355 1_456
Os4 Si3 2.488095 1_565
Os4 Si8 2.684738 1_465
Os4 Y0 3.275040 1_455
Os4 Y1 3.290906 1_565
Os4 Y2 3.374972 1_565
Os4 Zr0 3.385868 1_456
Os5 Si2 2.368925 1_545
Os5 Si5 2.392009 1_555
Os5 Si3 2.415391 1_655
Os5 Si1 2.443124 1_545
Os5 Si0 2.468786 1_654
Os5 Si9 2.725270 1_645
Os5 Y2 3.281210 1_655
Os5 Zr0 3.325613 1_545
Os5 Y0 3.353972 1_545
Os5 Y1 3.372211 1_654
