# generated using pymatgen
data_Hf12Ti4Mn7Os
_symmetry_space_group_name_H-M   'P 1'
_cell_length_a   8.48366957
_cell_length_b   8.48366887
_cell_length_c   8.48713110
_cell_angle_alpha   60.01349213
_cell_angle_beta   60.01349289
_cell_angle_gamma   60.00000294
_symmetry_Int_Tables_number   1
_chemical_formula_structural   Hf12Ti4Mn7Os
_chemical_formula_sum   'Hf12 Ti4 Mn7 Os1'
_cell_volume   432.01807366
_cell_formula_units_Z   1
loop_
 _symmetry_equiv_pos_site_id
 _symmetry_equiv_pos_as_xyz
  1  'x, y, z'
loop_
 _atom_site_type_symbol
 _atom_site_label
 _atom_site_symmetry_multiplicity
 _atom_site_fract_x
 _atom_site_fract_y
 _atom_site_fract_z
 _atom_site_occupancy
  Hf  Hf0  1  0.43195186  0.81750100  0.81859528  1
  Hf  Hf1  1  0.81665785  0.43194472  0.43473959  1
  Hf  Hf2  1  0.81750100  0.43195186  0.81859528  1
  Hf  Hf3  1  0.43194472  0.81665785  0.43473959  1
  Hf  Hf4  1  0.81665785  0.81665785  0.43473959  1
  Hf  Hf5  1  0.43195186  0.43195186  0.81859528  1
  Hf  Hf6  1  0.56658267  0.18342289  0.18341076  1
  Hf  Hf7  1  0.18296336  0.56746785  0.56660443  1
  Hf  Hf8  1  0.18342289  0.56658267  0.18341076  1
  Hf  Hf9  1  0.56746785  0.18296336  0.56660443  1
  Hf  Hf10  1  0.18296336  0.18296336  0.56660443  1
  Hf  Hf11  1  0.56658267  0.56658267  0.18341076  1
  Ti  Ti0  1  0.00021391  0.00021391  0.49935728  1
  Ti  Ti1  1  0.99861156  0.50504517  0.99773271  1
  Ti  Ti2  1  0.50504517  0.99861156  0.99773271  1
  Ti  Ti3  1  0.99861156  0.99861156  0.99773271  1
  Mn  Mn0  1  0.20863411  0.87403969  0.20869109  1
  Mn  Mn1  1  0.87403969  0.20863411  0.20869109  1
  Mn  Mn2  1  0.20863411  0.20863411  0.20869109  1
  Mn  Mn3  1  0.79088925  0.79088925  0.12733325  1
  Mn  Mn4  1  0.79110352  0.12754322  0.79025073  1
  Mn  Mn5  1  0.12754322  0.79110352  0.79025073  1
  Mn  Mn6  1  0.79110352  0.79110352  0.79025073  1
  Os  Os0  1  0.20892143  0.20892143  0.87323570  1
loop_
_geom_bond_atom_site_label_1
_geom_bond_atom_site_label_2
_geom_bond_distance
_geom_bond_site_symmetry_2
Hf0 Mn5 2.833821 1_555
Hf0 Mn6 2.833829 1_555
Hf0 Mn0 3.031419 1_556
Hf0 Os0 3.033345 1_565
Hf0 Ti3 3.047456 1_455
Hf0 Ti2 3.047462 1_555
Hf0 Hf11 3.152452 1_556
Hf0 Hf8 3.152457 1_556
Hf0 Hf9 3.160239 1_565
Hf0 Hf10 3.160243 1_565
Hf0 Hf3 3.261445 1_555
Hf0 Hf4 3.261445 1_555
Hf0 Hf5 3.270871 1_555
Hf0 Hf2 3.270872 1_555
Hf1 Mn4 2.817299 1_555
Hf1 Mn3 2.844385 1_555
Hf1 Ti0 3.046805 1_655
Hf1 Mn2 3.046967 1_655
Hf1 Mn1 3.046971 1_555
Hf1 Ti1 3.075517 1_554
Hf1 Hf10 3.149735 1_655
Hf1 Hf9 3.149742 1_555
Hf1 Hf8 3.165502 1_655
Hf1 Hf11 3.165509 1_555
Hf1 Hf2 3.261445 1_555
Hf1 Hf5 3.261445 1_555
Hf1 Hf4 3.263779 1_555
Hf1 Hf3 3.263779 1_555
Hf2 Mn4 2.833821 1_555
Hf2 Mn6 2.833829 1_555
Hf2 Mn1 3.031419 1_556
Hf2 Os0 3.033345 1_655
Hf2 Ti3 3.047456 1_545
Hf2 Ti1 3.047462 1_555
Hf2 Hf6 3.152457 1_556
Hf2 Hf7 3.160239 1_655
Hf2 Hf4 3.261445 1_555
Hf2 Hf5 3.270872 1_555
Hf3 Mn5 2.817299 1_555
Hf3 Mn3 2.844385 1_555
Hf3 Ti0 3.046806 1_565
Hf3 Mn2 3.046967 1_565
Hf3 Mn0 3.046971 1_555
Hf3 Ti2 3.075517 1_554
Hf3 Hf7 3.149742 1_555
Hf3 Hf6 3.165502 1_565
Hf3 Hf5 3.261445 1_555
Hf3 Hf4 3.263779 1_555
Hf4 Mn6 2.817303 1_555
Hf4 Mn3 2.844380 1_555
Hf4 Ti0 3.046798 1_665
Hf4 Mn1 3.046964 1_565
Hf4 Mn0 3.046964 1_655
Hf4 Ti3 3.075518 1_554
Hf4 Hf9 3.149735 1_565
Hf4 Hf7 3.149735 1_655
Hf4 Hf6 3.165507 1_565
Hf4 Hf8 3.165507 1_655
Hf5 Mn5 2.833826 1_555
Hf5 Mn4 2.833826 1_555
Hf5 Mn2 3.031423 1_556
Hf5 Os0 3.033345 1_555
Hf5 Ti2 3.047455 1_545
Hf5 Ti1 3.047455 1_455
Hf5 Hf8 3.152452 1_556
Hf5 Hf6 3.152452 1_556
Hf5 Hf9 3.160246 1_555
Hf5 Hf7 3.160246 1_555
Hf6 Mn1 2.838753 1_555
Hf6 Mn2 2.838753 1_555
Hf6 Mn3 3.046207 1_545
Hf6 Mn4 3.051575 1_554
Hf6 Ti2 3.053661 1_544
Hf6 Ti3 3.053673 1_544
Hf6 Hf8 3.250601 1_555
Hf6 Hf9 3.254026 1_555
Hf7 Mn0 2.836740 1_555
Hf7 Os0 2.839682 1_555
Hf7 Mn6 3.039582 1_455
Hf7 Mn5 3.039589 1_555
Hf7 Ti1 3.047300 1_455
Hf7 Ti0 3.050545 1_565
Hf7 Hf8 3.254026 1_555
Hf7 Hf9 3.262009 1_555
Hf8 Mn2 2.838752 1_555
Hf8 Mn0 2.838752 1_555
Hf8 Mn3 3.046207 1_455
Hf8 Mn5 3.051575 1_554
Hf8 Ti1 3.053661 1_454
Hf8 Ti3 3.053673 1_454
Hf9 Mn1 2.836740 1_555
Hf9 Os0 2.839682 1_555
Hf9 Mn6 3.039582 1_545
Hf9 Mn4 3.039590 1_555
Hf9 Ti2 3.047300 1_545
Hf9 Ti0 3.050546 1_655
Hf10 Mn2 2.836740 1_555
Hf10 Os0 2.839687 1_555
Hf10 Mn5 3.039575 1_545
Hf10 Mn4 3.039575 1_455
Hf10 Ti3 3.047297 1_445
Hf10 Ti0 3.050545 1_555
Hf10 Hf3 3.149735 1_545
Hf10 Hf2 3.160243 1_455
Hf10 Hf8 3.254026 1_555
Hf10 Hf6 3.254026 1_555
Hf10 Hf7 3.262009 1_555
Hf10 Hf9 3.262009 1_555
Hf11 Mn1 2.838753 1_555
Hf11 Mn0 2.838753 1_555
Hf11 Mn3 3.046222 1_555
Hf11 Mn6 3.051582 1_554
Hf11 Ti2 3.053675 1_554
Hf11 Ti1 3.053676 1_554
Hf11 Hf2 3.152452 1_554
Hf11 Hf3 3.165509 1_555
Hf11 Hf6 3.250601 1_555
Hf11 Hf8 3.250601 1_555
Hf11 Hf9 3.254026 1_555
Hf11 Hf7 3.254026 1_555
Mn0 Ti0 2.597047 1_565
Mn0 Ti3 2.628994 1_454
Mn0 Ti2 2.629007 1_554
Mn0 Mn2 2.838588 1_565
Mn0 Mn1 2.838589 1_465
Mn0 Os0 2.844624 1_564
Mn1 Ti0 2.597047 1_655
Mn1 Ti3 2.628993 1_544
Mn1 Ti1 2.629007 1_554
Mn1 Mn2 2.838589 1_655
Mn1 Os0 2.844624 1_654
Mn2 Ti0 2.597047 1_555
Mn2 Ti1 2.628998 1_454
Mn2 Ti2 2.628998 1_544
Mn2 Os0 2.844619 1_554
Mn3 Ti3 2.579005 1_554
Mn3 Ti1 2.579005 1_554
Mn3 Ti2 2.579005 1_554
Mn3 Mn4 2.859048 1_564
Mn3 Mn6 2.859048 1_554
Mn3 Mn5 2.859048 1_654
Mn4 Ti2 2.577636 1_545
Mn4 Ti3 2.577636 1_545
Mn4 Ti0 2.603982 1_655
Mn4 Mn6 2.854243 1_545
Mn4 Mn5 2.854243 1_645
Mn5 Ti1 2.577635 1_455
Mn5 Ti3 2.577635 1_455
Mn5 Ti0 2.603982 1_565
Mn5 Mn6 2.854243 1_455
Mn6 Ti1 2.577636 1_555
Mn6 Ti2 2.577636 1_555
Mn6 Ti0 2.603973 1_665
Os0 Ti3 2.626336 1_445
Os0 Ti1 2.626343 1_455
Os0 Ti2 2.626343 1_545
