# generated using pymatgen
data_YGeRu2C
_symmetry_space_group_name_H-M   'P 1'
_cell_length_a   5.87828178
_cell_length_b   5.87828166
_cell_length_c   7.24770460
_cell_angle_alpha   90.00000000
_cell_angle_beta   90.00000000
_cell_angle_gamma   141.54583214
_symmetry_Int_Tables_number   1
_chemical_formula_structural   YGeRu2C
_chemical_formula_sum   'Y2 Ge2 Ru4 C2'
_cell_volume   155.74486646
_cell_formula_units_Z   2
loop_
 _symmetry_equiv_pos_site_id
 _symmetry_equiv_pos_as_xyz
  1  'x, y, z'
loop_
 _atom_site_type_symbol
 _atom_site_label
 _atom_site_symmetry_multiplicity
 _atom_site_fract_x
 _atom_site_fract_y
 _atom_site_fract_z
 _atom_site_occupancy
  Y  Y0  1  0.54583634  0.45416366  0.25000000  1
  Y  Y1  1  0.45416366  0.54583634  0.75000000  1
  Ge  Ge0  1  0.26711869  0.73288131  0.25000000  1
  Ge  Ge1  1  0.73288131  0.26711869  0.75000000  1
  Ru  Ru0  1  0.83818898  0.16181102  0.05684586  1
  Ru  Ru1  1  0.16181102  0.83818898  0.94315414  1
  Ru  Ru2  1  0.16181102  0.83818898  0.55684586  1
  Ru  Ru3  1  0.83818898  0.16181102  0.44315414  1
  C  C0  1  0.00000000  0.00000000  0.00000000  1
  C  C1  1  0.00000000  0.00000000  0.50000000  1
loop_
_geom_bond_atom_site_label_1
_geom_bond_atom_site_label_2
_geom_bond_distance
_geom_bond_site_symmetry_2
Ge0 Ru2 2.512452 1_555
Ge0 Ru1 2.512452 1_554
Ge0 Ru3 2.515852 1_455
Ge0 Ru0 2.515852 1_455
Ge0 Ru3 2.515852 1_565
Ge0 Ru0 2.515852 1_565
Ge0 Y0 3.093987 1_555
Ge0 Y0 3.127499 1_565
Ge0 Y0 3.127499 1_455
Ge1 Ru0 2.512452 1_556
Ge1 Ru3 2.512452 1_555
Ge1 Ru1 2.515852 1_655
Ge1 Ru2 2.515852 1_655
Ge1 Ru1 2.515852 1_545
Ge1 Ru2 2.515852 1_545
Ge1 Y1 3.093987 1_555
Ge1 Y1 3.127499 1_545
Ge1 Y1 3.127499 1_655
C0 Ru1 1.842875 1_544
C0 Ru0 1.842875 1_455
C0 Y1 2.699866 1_554
C0 Y0 2.699866 1_445
C0 Y0 2.699866 1_555
C0 Y1 2.699866 1_444
C1 Ru2 1.842875 1_545
C1 Ru3 1.842875 1_455
C1 Y1 2.699866 1_555
C1 Y0 2.699866 1_445
C1 Y0 2.699866 1_555
C1 Y1 2.699866 1_445
