# generated using pymatgen
data_Sr2CuAgSn4
_symmetry_space_group_name_H-M   'P 1'
_cell_length_a   10.27553524
_cell_length_b   10.27553596
_cell_length_c   4.57303693
_cell_angle_alpha   90.00000000
_cell_angle_beta   90.00000000
_cell_angle_gamma   153.70318405
_symmetry_Int_Tables_number   1
_chemical_formula_structural   Sr2CuAgSn4
_chemical_formula_sum   'Sr2 Cu1 Ag1 Sn4'
_cell_volume   213.91356276
_cell_formula_units_Z   1
loop_
 _symmetry_equiv_pos_site_id
 _symmetry_equiv_pos_as_xyz
  1  'x, y, z'
loop_
 _atom_site_type_symbol
 _atom_site_label
 _atom_site_symmetry_multiplicity
 _atom_site_fract_x
 _atom_site_fract_y
 _atom_site_fract_z
 _atom_site_occupancy
  Sr  Sr0  1  0.60663612  0.39336388  0.75000000  1
  Sr  Sr1  1  0.39283056  0.60716944  0.25000000  1
  Cu  Cu0  1  0.17429174  0.82570826  0.25000000  1
  Ag  Ag0  1  0.82853969  0.17146031  0.75000000  1
  Sn  Sn0  1  0.74394284  0.25605716  0.25000000  1
  Sn  Sn1  1  0.04573213  0.95426787  0.25000000  1
  Sn  Sn2  1  0.24478983  0.75521017  0.75000000  1
  Sn  Sn3  1  0.96323709  0.03676291  0.75000000  1
loop_
_geom_bond_atom_site_label_1
_geom_bond_atom_site_label_2
_geom_bond_distance
_geom_bond_site_symmetry_2
Cu0 Sn1 2.572774 1_555
Cu0 Sn2 2.686746 1_555
Cu0 Sn2 2.686746 1_554
Cu0 Sn0 2.721474 1_565
Cu0 Sn0 2.721475 1_455
Cu0 Sr0 3.539048 1_454
Cu0 Sr0 3.539048 1_455
Cu0 Sr0 3.539048 1_565
Cu0 Sr0 3.539048 1_564
Ag0 Sn3 2.695606 1_555
Ag0 Sn0 2.845056 1_555
Ag0 Sn0 2.845056 1_556
Ag0 Sn2 2.876212 1_545
Ag0 Sn2 2.876212 1_655
Ag0 Sr1 3.513837 1_655
Ag0 Sr1 3.513837 1_656
Ag0 Sr1 3.513838 1_546
Ag0 Sr1 3.513838 1_545
Sn0 Sn2 3.269859 1_655
Sn0 Sn2 3.269859 1_654
Sn0 Sn2 3.269859 1_544
Sn0 Sn2 3.269859 1_545
Sn0 Sr0 3.574732 1_555
Sn0 Sr0 3.574732 1_554
Sn0 Sr1 3.787012 1_655
Sn0 Sr1 3.787013 1_545
Sn1 Sn3 2.820229 1_465
Sn1 Sn3 2.820229 1_464
Sn1 Sr0 3.489590 1_564
Sn1 Sr0 3.489590 1_565
Sn1 Sr0 3.489590 1_455
Sn1 Sr0 3.489590 1_454
Sn1 Sr1 3.850531 1_455
Sn1 Sr1 3.850532 1_565
Sn2 Sr0 3.620428 1_455
Sn2 Sr0 3.620429 1_565
Sn2 Sr1 3.742377 1_555
Sn2 Sr1 3.742377 1_556
Sn3 Sr1 3.560472 1_546
Sn3 Sr1 3.560472 1_545
Sn3 Sr1 3.560473 1_656
Sn3 Sr1 3.560473 1_655
Sn3 Sr0 3.701211 1_655
Sn3 Sr0 3.701211 1_545
