# generated using pymatgen
data_Ca21Al8Sn6Bi
_symmetry_space_group_name_H-M   'P 1'
_cell_length_a   11.53310050
_cell_length_b   11.53310158
_cell_length_c   11.53310001
_cell_angle_alpha   60.00000450
_cell_angle_beta   60.00000141
_cell_angle_gamma   60.00000238
_symmetry_Int_Tables_number   1
_chemical_formula_structural   Ca21Al8Sn6Bi
_chemical_formula_sum   'Ca21 Al8 Sn6 Bi1'
_cell_volume   1084.73407102
_cell_formula_units_Z   1
loop_
 _symmetry_equiv_pos_site_id
 _symmetry_equiv_pos_as_xyz
  1  'x, y, z'
loop_
 _atom_site_type_symbol
 _atom_site_label
 _atom_site_symmetry_multiplicity
 _atom_site_fract_x
 _atom_site_fract_y
 _atom_site_fract_z
 _atom_site_occupancy
  Ca  Ca0  1  0.87201185  0.87201185  0.38396244  1
  Ca  Ca1  1  0.61603756  0.12798815  0.12798815  1
  Ca  Ca2  1  0.87201185  0.38396244  0.87201185  1
  Ca  Ca3  1  0.12798815  0.12798815  0.12798815  1
  Ca  Ca4  1  0.38396244  0.87201185  0.87201185  1
  Ca  Ca5  1  0.87201185  0.87201185  0.87201185  1
  Ca  Ca6  1  0.18157417  0.81842583  0.50000000  1
  Ca  Ca7  1  0.81842583  0.50000000  0.50000000  1
  Ca  Ca8  1  0.12798815  0.12798815  0.61603756  1
  Ca  Ca9  1  0.81842583  0.18157417  0.50000000  1
  Ca  Ca10  1  0.18157417  0.50000000  0.50000000  1
  Ca  Ca11  1  0.12798815  0.61603756  0.12798815  1
  Ca  Ca12  1  0.50000000  0.50000000  0.18157417  1
  Ca  Ca13  1  0.50000000  0.18157417  0.81842583  1
  Ca  Ca14  1  0.50000000  0.81842583  0.18157417  1
  Ca  Ca15  1  0.50000000  0.50000000  0.81842583  1
  Ca  Ca16  1  0.50000000  0.18157417  0.50000000  1
  Ca  Ca17  1  0.18157417  0.50000000  0.81842583  1
  Ca  Ca18  1  0.00000000  0.00000000  0.00000000  1
  Ca  Ca19  1  0.50000000  0.81842583  0.50000000  1
  Ca  Ca20  1  0.81842583  0.50000000  0.18157417  1
  Al  Al0  1  0.69191879  0.92424563  0.69191879  1
  Al  Al1  1  0.69191879  0.69191879  0.92424563  1
  Al  Al2  1  0.69191879  0.69191879  0.69191879  1
  Al  Al3  1  0.30808121  0.07575437  0.30808121  1
  Al  Al4  1  0.92424563  0.69191879  0.69191879  1
  Al  Al5  1  0.30808121  0.30808121  0.07575437  1
  Al  Al6  1  0.07575437  0.30808121  0.30808121  1
  Al  Al7  1  0.30808121  0.30808121  0.30808121  1
  Sn  Sn0  1  0.78722266  0.21277734  0.78722266  1
  Sn  Sn1  1  0.78722266  0.21277734  0.21277734  1
  Sn  Sn2  1  0.21277734  0.78722266  0.21277734  1
  Sn  Sn3  1  0.21277734  0.78722266  0.78722266  1
  Sn  Sn4  1  0.78722266  0.78722266  0.21277734  1
  Sn  Sn5  1  0.21277734  0.21277734  0.78722266  1
  Bi  Bi0  1  0.50000000  0.50000000  0.50000000  1
loop_
_geom_bond_atom_site_label_1
_geom_bond_atom_site_label_2
_geom_bond_distance
_geom_bond_site_symmetry_2
Ca0 Sn4 3.260039 1_555
Ca0 Sn2 3.260057 1_655
Ca0 Sn1 3.260057 1_565
Ca0 Ca18 3.615673 1_665
Ca0 Ca19 4.082103 1_555
Ca0 Ca7 4.082104 1_555
Ca0 Ca16 4.082115 1_565
Ca0 Ca10 4.082115 1_655
Ca0 Ca6 4.082125 1_655
Ca0 Ca9 4.082126 1_565
Ca1 Sn1 3.260040 1_555
Ca1 Sn0 3.260057 1_554
Ca1 Sn4 3.260057 1_545
Ca1 Ca18 3.615673 1_655
Ca1 Ca16 4.082103 1_555
Ca1 Ca12 4.082104 1_555
Ca1 Ca19 4.082115 1_545
Ca1 Ca15 4.082115 1_554
Ca1 Ca13 4.082125 1_554
Ca1 Ca14 4.082126 1_545
Ca2 Sn0 3.260040 1_555
Ca2 Sn1 3.260057 1_556
Ca2 Sn5 3.260057 1_655
Ca2 Ca7 4.082103 1_555
Ca2 Ca20 4.082125 1_556
Ca3 Sn5 3.260060 1_554
Ca3 Sn1 3.260060 1_455
Ca3 Sn2 3.260061 1_545
Ca3 Ca9 4.082110 1_455
Ca3 Ca6 4.082110 1_545
Ca4 Sn3 3.260040 1_555
Ca4 Sn2 3.260057 1_556
Ca4 Sn5 3.260057 1_565
Ca5 Sn4 3.260060 1_556
Ca5 Sn3 3.260060 1_655
Ca5 Sn0 3.260061 1_565
Ca5 Ca6 4.082110 1_655
Ca5 Ca9 4.082110 1_565
Ca6 Sn3 3.332058 1_555
Ca6 Sn2 3.332058 1_555
Ca6 Ca8 4.082126 1_565
Ca6 Ca9 4.188227 1_465
Ca7 Sn4 3.332058 1_555
Ca7 Sn0 3.332059 1_555
Ca7 Ca9 3.672437 1_555
Ca7 Ca8 4.082115 1_655
Ca8 Sn5 3.260039 1_555
Ca8 Sn0 3.260057 1_455
Ca8 Sn3 3.260057 1_545
Ca8 Ca9 4.082125 1_455
Ca9 Sn1 3.332058 1_555
Ca9 Sn0 3.332058 1_555
Ca10 Sn5 3.332058 1_555
Ca10 Sn2 3.332059 1_555
Ca10 Ca17 3.672437 1_555
Ca10 Ca12 3.672437 1_555
Ca10 Ca16 3.672437 1_555
Ca10 Ca6 3.672437 1_555
Ca10 Ca11 4.082103 1_555
Ca10 Ca8 4.082104 1_555
Ca10 Ca2 4.082115 1_455
Ca10 Ca7 4.188226 1_455
Ca11 Sn2 3.260040 1_555
Ca11 Sn3 3.260057 1_554
Ca11 Sn4 3.260057 1_455
Ca11 Ca18 3.615674 1_565
Ca11 Ca12 4.082103 1_555
Ca11 Ca15 4.082115 1_554
Ca11 Ca7 4.082115 1_455
Ca11 Ca17 4.082125 1_554
Ca11 Ca20 4.082126 1_455
Ca12 Sn1 3.332058 1_555
Ca12 Sn2 3.332058 1_555
Ca12 Ca20 3.672437 1_555
Ca12 Ca14 3.672437 1_555
Ca12 Ca16 3.672437 1_555
Ca12 Ca2 4.082115 1_554
Ca12 Ca4 4.082115 1_554
Ca12 Ca15 4.188226 1_554
Ca13 Sn5 3.332058 1_555
Ca13 Sn0 3.332058 1_555
Ca13 Ca16 3.672437 1_555
Ca13 Ca9 3.672437 1_555
Ca13 Ca17 3.672437 1_555
Ca13 Ca15 3.672437 1_555
Ca13 Ca3 4.082110 1_556
Ca13 Ca5 4.082110 1_545
Ca13 Ca4 4.082126 1_545
Ca13 Ca14 4.188227 1_546
Ca14 Sn4 3.332058 1_555
Ca14 Sn2 3.332058 1_555
Ca14 Ca19 3.672437 1_555
Ca14 Ca6 3.672437 1_555
Ca14 Ca20 3.672437 1_555
Ca14 Ca5 4.082110 1_554
Ca14 Ca3 4.082110 1_565
Ca14 Ca4 4.082125 1_554
Ca15 Sn0 3.332058 1_555
Ca15 Sn3 3.332058 1_555
Ca15 Ca7 3.672437 1_555
Ca15 Ca17 3.672437 1_555
Ca15 Ca19 3.672437 1_555
Ca15 Ca2 4.082103 1_555
Ca15 Ca4 4.082104 1_555
Ca16 Sn5 3.332058 1_555
Ca16 Sn1 3.332058 1_555
Ca16 Ca9 3.672437 1_555
Ca16 Ca8 4.082103 1_555
Ca16 Ca4 4.082115 1_545
Ca16 Ca19 4.188227 1_545
Ca17 Sn5 3.332058 1_555
Ca17 Sn3 3.332059 1_555
Ca17 Ca6 3.672437 1_555
Ca17 Ca5 4.082110 1_455
Ca17 Ca3 4.082110 1_556
Ca17 Ca2 4.082126 1_455
Ca17 Ca20 4.188226 1_456
Ca18 Sn2 3.470455 1_545
Ca18 Sn1 3.470455 1_455
Ca18 Sn0 3.470455 1_454
Ca18 Sn3 3.470455 1_544
Ca18 Sn5 3.470455 1_554
Ca18 Sn4 3.470455 1_445
Ca18 Ca8 3.615673 1_554
Ca18 Ca4 3.615673 1_544
Ca18 Ca2 3.615674 1_454
Ca18 Ca3 3.615692 1_555
Ca18 Ca5 3.615692 1_444
Ca19 Sn4 3.332058 1_555
Ca19 Sn3 3.332058 1_555
Ca19 Ca6 3.672437 1_555
Ca19 Ca7 3.672437 1_555
Ca19 Ca4 4.082103 1_555
Ca19 Ca8 4.082115 1_565
Ca20 Sn4 3.332058 1_555
Ca20 Sn1 3.332059 1_555
Ca20 Ca7 3.672437 1_555
Ca20 Ca9 3.672437 1_555
Ca20 Ca3 4.082110 1_655
Ca20 Ca5 4.082110 1_554
Al0 Al4 2.679449 1_555
Al0 Al1 2.679449 1_555
Al0 Al2 2.679449 1_555
Al0 Ca13 3.219852 1_565
Al0 Ca9 3.219852 1_565
Al0 Ca16 3.219865 1_565
Al0 Ca5 3.286732 1_555
Al0 Ca0 3.286771 1_555
Al0 Ca4 3.286771 1_555
Al1 Al2 2.679449 1_555
Al1 Al4 2.679449 1_555
Al1 Ca14 3.219852 1_556
Al1 Ca20 3.219852 1_556
Al1 Ca12 3.219865 1_556
Al1 Ca5 3.286732 1_555
Al1 Ca4 3.286771 1_555
Al1 Ca2 3.286771 1_555
Al2 Al4 2.679449 1_555
Al2 Ca19 3.219870 1_555
Al2 Ca7 3.219870 1_555
Al2 Ca15 3.219870 1_555
Al2 Ca4 3.286752 1_555
Al2 Ca0 3.286753 1_555
Al2 Ca2 3.286753 1_555
Al3 Al6 2.679449 1_555
Al3 Al5 2.679449 1_555
Al3 Al7 2.679449 1_555
Al3 Ca14 3.219852 1_545
Al3 Ca6 3.219852 1_545
Al3 Ca19 3.219865 1_545
Al3 Ca3 3.286732 1_555
Al3 Ca8 3.286771 1_555
Al3 Ca1 3.286771 1_555
Al4 Ca17 3.219852 1_655
Al4 Ca6 3.219852 1_655
Al4 Ca10 3.219865 1_655
Al4 Ca5 3.286732 1_555
Al4 Ca0 3.286771 1_555
Al4 Ca2 3.286772 1_555
Al5 Al7 2.679449 1_555
Al5 Al6 2.679449 1_555
Al5 Ca13 3.219852 1_554
Al5 Ca17 3.219852 1_554
Al5 Ca15 3.219865 1_554
Al5 Ca3 3.286732 1_555
Al5 Ca1 3.286771 1_555
Al5 Ca11 3.286771 1_555
Al6 Al7 2.679449 1_555
Al6 Ca20 3.219852 1_455
Al6 Ca9 3.219852 1_455
Al6 Ca7 3.219865 1_455
Al6 Ca3 3.286732 1_555
Al6 Ca8 3.286771 1_555
Al6 Ca11 3.286772 1_555
Al7 Ca16 3.219870 1_555
Al7 Ca10 3.219870 1_555
Al7 Ca12 3.219870 1_555
Al7 Ca1 3.286752 1_555
Al7 Ca8 3.286753 1_555
Al7 Ca11 3.286753 1_555
Bi0 Ca15 3.672437 1_555
Bi0 Ca12 3.672437 1_555
Bi0 Ca7 3.672437 1_555
Bi0 Ca20 3.672437 1_555
Bi0 Ca17 3.672437 1_555
Bi0 Ca10 3.672437 1_555
Bi0 Ca9 3.672437 1_555
Bi0 Ca6 3.672437 1_555
Bi0 Ca19 3.672437 1_555
Bi0 Ca14 3.672437 1_555
Bi0 Ca13 3.672437 1_555
Bi0 Ca16 3.672437 1_555
