# generated using pymatgen
data_LuAg(CO3)2
_symmetry_space_group_name_H-M   'P 1'
_cell_length_a   6.18277510
_cell_length_b   6.18277599
_cell_length_c   6.18277602
_cell_angle_alpha   48.06202434
_cell_angle_beta   48.06201383
_cell_angle_gamma   48.06203715
_symmetry_Int_Tables_number   1
_chemical_formula_structural   LuAg(CO3)2
_chemical_formula_sum   'Lu1 Ag1 C2 O6'
_cell_volume   119.82825268
_cell_formula_units_Z   1
loop_
 _symmetry_equiv_pos_site_id
 _symmetry_equiv_pos_as_xyz
  1  'x, y, z'
loop_
 _atom_site_type_symbol
 _atom_site_label
 _atom_site_symmetry_multiplicity
 _atom_site_fract_x
 _atom_site_fract_y
 _atom_site_fract_z
 _atom_site_occupancy
  Lu  Lu0  1  0.00000000  0.00000000  0.00000000  1
  Ag  Ag0  1  0.50000000  0.50000000  0.50000000  1
  C  C0  1  0.25695545  0.25695545  0.25695545  1
  C  C1  1  0.74304455  0.74304455  0.74304455  1
  O  O0  1  0.02184791  0.21924878  0.52949096  1
  O  O1  1  0.47050904  0.97815209  0.78075122  1
  O  O2  1  0.78075122  0.47050904  0.97815209  1
  O  O3  1  0.21924878  0.52949096  0.02184791  1
  O  O4  1  0.52949096  0.02184791  0.21924878  1
  O  O5  1  0.97815209  0.78075122  0.47050904  1
loop_
_geom_bond_atom_site_label_1
_geom_bond_atom_site_label_2
_geom_bond_distance
_geom_bond_site_symmetry_2
Lu0 O1 2.183330 1_544
Lu0 O4 2.183330 1_455
Lu0 O5 2.183330 1_445
Lu0 O0 2.183330 1_554
Lu0 O2 2.183331 1_454
Lu0 O3 2.183331 1_545
Ag0 O3 2.516686 1_556
Ag0 O2 2.516686 1_554
Ag0 O4 2.516686 1_565
Ag0 O1 2.516686 1_545
Ag0 O0 2.516686 1_655
Ag0 O5 2.516686 1_455
C0 O0 1.288636 1_555
C0 O3 1.288637 1_555
C0 O4 1.288637 1_555
C1 O5 1.288636 1_555
C1 O2 1.288637 1_555
C1 O1 1.288637 1_555
