# generated using pymatgen
data_K5Zr(H9W)3
_symmetry_space_group_name_H-M   'P 1'
_cell_length_a   9.44567489
_cell_length_b   9.07377865
_cell_length_c   5.20897639
_cell_angle_alpha   90.00000000
_cell_angle_beta   90.00000000
_cell_angle_gamma   118.70590873
_symmetry_Int_Tables_number   1
_chemical_formula_structural   K5Zr(H9W)3
_chemical_formula_sum   'K5 Zr1 H27 W3'
_cell_volume   391.58045591
_cell_formula_units_Z   1
loop_
 _symmetry_equiv_pos_site_id
 _symmetry_equiv_pos_as_xyz
  1  'x, y, z'
loop_
 _atom_site_type_symbol
 _atom_site_label
 _atom_site_symmetry_multiplicity
 _atom_site_fract_x
 _atom_site_fract_y
 _atom_site_fract_z
 _atom_site_occupancy
  K  K0  1  0.72524215  0.74081747  0.50000000  1
  K  K1  1  0.27475785  0.01557532  0.50000000  1
  K  K2  1  0.00000000  0.62751867  0.00000000  1
  K  K3  1  0.43209456  0.38441000  0.00000000  1
  K  K4  1  0.56790544  0.95231444  0.00000000  1
  Zr  Zr0  1  1.00000000  0.26940769  0.50000000  1
  H  H0  1  0.87129847  0.35101984  0.71112713  1
  H  H1  1  0.70446490  0.42041197  0.78192005  1
  H  H2  1  0.55990170  0.18507501  0.70800402  1
  H  H3  1  0.12870153  0.47972237  0.28887287  1
  H  H4  1  0.55990170  0.18507501  0.29199598  1
  H  H5  1  0.87129847  0.35101984  0.28887287  1
  H  H6  1  0.70446490  0.42041197  0.21807995  1
  H  H7  1  0.29553510  0.71594806  0.78192005  1
  H  H8  1  0.44009830  0.62517431  0.70800402  1
  H  H9  1  0.18165331  0.05196989  0.00000000  1
  H  H10  1  0.81834669  0.87031658  0.00000000  1
  H  H11  1  0.00000000  0.25003150  0.00000000  1
  H  H12  1  0.87165439  0.05334335  0.25083600  1
  H  H13  1  0.12834561  0.18168796  0.74916400  1
  H  H14  1  0.00000000  0.91041092  0.77657113  1
  H  H15  1  0.00000000  0.91041092  0.22342887  1
  H  H16  1  0.12834561  0.18168796  0.25083600  1
  H  H17  1  0.87165439  0.05334335  0.74916400  1
  H  H18  1  0.15838168  0.70034668  0.50000000  1
  H  H19  1  0.44707777  0.82567340  0.50000000  1
  H  H20  1  0.26242706  0.40522026  0.50000000  1
  H  H21  1  0.55292223  0.37859563  0.50000000  1
  H  H22  1  0.84161832  0.54196500  0.50000000  1
  H  H23  1  0.73757294  0.14279320  0.50000000  1
  H  H24  1  0.12870153  0.47972237  0.71112713  1
  H  H25  1  0.29553510  0.71594806  0.21807995  1
  H  H26  1  0.44009830  0.62517431  0.29199598  1
  W  W0  1  0.71014353  0.32687209  0.50000000  1
  W  W1  1  0.28985647  0.61672856  0.50000000  1
  W  W2  1  0.00000000  0.05385507  0.00000000  1
loop_
_geom_bond_atom_site_label_1
_geom_bond_atom_site_label_2
_geom_bond_distance
_geom_bond_site_symmetry_2
H0 W0 1.803944 1_555
H0 Zr0 2.024971 1_555
H0 K2 2.665839 1_656
H1 W0 1.709836 1_555
H1 K3 2.684902 1_556
H1 K2 2.752309 1_656
H2 W0 1.757641 1_555
H2 K1 2.610431 1_555
H2 K4 2.633089 1_546
H3 W1 1.803942 1_555
H3 Zr0 2.024977 1_455
H3 K2 2.665833 1_555
H4 W0 1.757641 1_555
H4 K1 2.610431 1_555
H4 K4 2.633089 1_545
H5 W0 1.803944 1_555
H5 Zr0 2.024971 1_555
H5 K2 2.665839 1_655
H6 W0 1.709836 1_555
H6 K3 2.684902 1_555
H6 K2 2.752309 1_655
H7 W1 1.709841 1_555
H7 K4 2.684896 1_556
H7 K2 2.752307 1_556
H8 W1 1.757638 1_555
H8 K0 2.610432 1_555
H8 K3 2.633089 1_556
H9 W2 1.724120 1_555
H9 K3 2.800069 1_555
H9 K1 2.818654 1_555
H9 K1 2.818654 1_554
H10 W2 1.724119 1_665
H10 K4 2.800063 1_555
H10 K0 2.818654 1_555
H10 K0 2.818654 1_554
H11 W2 1.780062 1_555
H12 W2 1.780874 1_655
H12 Zr0 2.171329 1_555
H12 K0 2.805606 1_545
H12 K4 2.872765 1_545
H13 W2 1.780871 1_556
H13 Zr0 2.171335 1_455
H13 K1 2.805599 1_555
H13 K3 2.872768 1_556
H14 W2 1.746031 1_566
H14 K0 2.709703 1_455
H14 K1 2.709703 1_565
H14 K2 2.818421 1_556
H15 W2 1.746031 1_565
H15 K0 2.709703 1_455
H15 K1 2.709703 1_565
H15 K2 2.818421 1_555
H16 W2 1.780871 1_555
H16 Zr0 2.171335 1_455
H16 K1 2.805599 1_555
H16 K3 2.872768 1_555
H17 W2 1.780874 1_656
H17 Zr0 2.171329 1_555
H17 K0 2.805606 1_545
H17 K4 2.872765 1_546
H18 W1 1.738694 1_555
H18 K1 2.523756 1_565
H18 K2 2.916924 1_556
H18 K2 2.916924 1_555
H19 W1 1.759322 1_555
H19 K4 2.854214 1_556
H19 K4 2.854214 1_555
H19 K1 2.883189 1_565
H20 W1 1.809065 1_555
H20 Zr0 2.174548 1_455
H21 W0 1.759322 1_555
H21 K3 2.854216 1_555
H21 K3 2.854216 1_556
H21 K0 2.883189 1_555
H22 W0 1.738694 1_555
H22 K0 2.523756 1_555
H22 K2 2.916924 1_655
H22 K2 2.916924 1_656
H23 W0 1.809065 1_555
H23 Zr0 2.174548 1_555
H24 W1 1.803942 1_555
H24 Zr0 2.024977 1_455
H24 K2 2.665833 1_556
H25 W1 1.709841 1_555
H25 K4 2.684896 1_555
H25 K2 2.752307 1_555
H26 W1 1.757638 1_555
H26 K0 2.610432 1_555
H26 K3 2.633089 1_555
