# generated using pymatgen
data_AgSeF5
_symmetry_space_group_name_H-M   'P 1'
_cell_length_a   5.28279704
_cell_length_b   7.70435229
_cell_length_c   10.47178792
_cell_angle_alpha   90.00000000
_cell_angle_beta   90.00000000
_cell_angle_gamma   90.00000000
_symmetry_Int_Tables_number   1
_chemical_formula_structural   AgSeF5
_chemical_formula_sum   'Ag4 Se4 F20'
_cell_volume   426.20731256
_cell_formula_units_Z   4
loop_
 _symmetry_equiv_pos_site_id
 _symmetry_equiv_pos_as_xyz
  1  'x, y, z'
loop_
 _atom_site_type_symbol
 _atom_site_label
 _atom_site_symmetry_multiplicity
 _atom_site_fract_x
 _atom_site_fract_y
 _atom_site_fract_z
 _atom_site_occupancy
  Ag  Ag0  1  0.53369209  0.25000000  0.00000000  1
  Ag  Ag1  1  0.46630791  0.75000000  0.50000000  1
  Ag  Ag2  1  0.46630791  0.75000000  0.00000000  1
  Ag  Ag3  1  0.53369209  0.25000000  0.50000000  1
  Se  Se0  1  0.12057423  0.06801818  0.25000000  1
  Se  Se1  1  0.12057423  0.43198182  0.75000000  1
  Se  Se2  1  0.87942577  0.56801818  0.25000000  1
  Se  Se3  1  0.87942577  0.93198182  0.75000000  1
  F  F0  1  0.71603553  0.73445361  0.75000000  1
  F  F1  1  0.71603553  0.76554639  0.25000000  1
  F  F2  1  0.28396447  0.23445361  0.75000000  1
  F  F3  1  0.28396447  0.26554639  0.25000000  1
  F  F4  1  0.92416410  0.16985671  0.37233300  1
  F  F5  1  0.92416410  0.33014329  0.62766700  1
  F  F6  1  0.07583590  0.66985671  0.12766700  1
  F  F7  1  0.07583590  0.83014329  0.87233300  1
  F  F8  1  0.36428931  0.01367039  0.12007350  1
  F  F9  1  0.36428931  0.48632961  0.87992650  1
  F  F10  1  0.63571069  0.51367039  0.37992650  1
  F  F11  1  0.63571069  0.98632961  0.62007350  1
  F  F12  1  0.63571069  0.98632961  0.87992650  1
  F  F13  1  0.63571069  0.51367039  0.12007350  1
  F  F14  1  0.36428931  0.48632961  0.62007350  1
  F  F15  1  0.36428931  0.01367039  0.37992650  1
  F  F16  1  0.92416410  0.16985671  0.12766700  1
  F  F17  1  0.92416410  0.33014329  0.87233300  1
  F  F18  1  0.07583590  0.66985671  0.37233300  1
  F  F19  1  0.07583590  0.83014329  0.62766700  1
loop_
_geom_bond_atom_site_label_1
_geom_bond_atom_site_label_2
_geom_bond_distance
_geom_bond_site_symmetry_2
Ag0 F9 2.386857 1_554
Ag0 F8 2.386857 1_555
Ag0 F13 2.449102 1_555
Ag0 F12 2.449102 1_544
Ag0 F16 2.534489 1_555
Ag0 F17 2.534489 1_554
Ag1 F11 2.386857 1_555
Ag1 F10 2.386857 1_555
Ag1 F15 2.449102 1_565
Ag1 F14 2.449102 1_555
Ag1 F19 2.534489 1_555
Ag1 F18 2.534489 1_555
Ag2 F12 2.386857 1_554
Ag2 F13 2.386857 1_555
Ag2 F8 2.449102 1_565
Ag2 F9 2.449102 1_554
Ag2 F6 2.534489 1_555
Ag2 F7 2.534489 1_554
Ag3 F14 2.386857 1_555
Ag3 F15 2.386857 1_555
Ag3 F10 2.449102 1_555
Ag3 F11 2.449102 1_545
Ag3 F5 2.534489 1_555
Ag3 F4 2.534489 1_555
F0 Se3 1.749571 1_555
F1 Se2 1.749571 1_555
F2 Se1 1.749571 1_555
F3 Se0 1.749571 1_555
F4 Se0 1.825726 1_655
F5 Se1 1.825726 1_655
F6 Se2 1.825726 1_455
F7 Se3 1.825726 1_455
F8 Se0 1.919402 1_555
F9 Se1 1.919402 1_555
F10 Se2 1.919402 1_555
F11 Se3 1.919402 1_555
F12 Se3 1.919402 1_555
F13 Se2 1.919402 1_555
F14 Se1 1.919402 1_555
F15 Se0 1.919402 1_555
F16 Se0 1.825726 1_655
F17 Se1 1.825726 1_655
F18 Se2 1.825726 1_455
F19 Se3 1.825726 1_455
