# generated using pymatgen
data_Cs3ScSe3
_symmetry_space_group_name_H-M   'P 1'
_cell_length_a   14.31102021
_cell_length_b   8.80382023
_cell_length_c   11.40033570
_cell_angle_alpha   53.16942733
_cell_angle_beta   90.00000000
_cell_angle_gamma   90.00000000
_symmetry_Int_Tables_number   1
_chemical_formula_structural   Cs3ScSe3
_chemical_formula_sum   'Cs12 Sc4 Se12'
_cell_volume   1149.66890969
_cell_formula_units_Z   4
loop_
 _symmetry_equiv_pos_site_id
 _symmetry_equiv_pos_as_xyz
  1  'x, y, z'
loop_
 _atom_site_type_symbol
 _atom_site_label
 _atom_site_symmetry_multiplicity
 _atom_site_fract_x
 _atom_site_fract_y
 _atom_site_fract_z
 _atom_site_occupancy
  Cs  Cs0  1  0.91362241  0.64176184  0.61916339  1
  Cs  Cs1  1  0.41362241  0.35823816  0.88083661  1
  Cs  Cs2  1  0.08637759  0.35823816  0.38083661  1
  Cs  Cs3  1  0.58637759  0.64176184  0.11916339  1
  Cs  Cs4  1  0.63243725  0.60818786  0.51784909  1
  Cs  Cs5  1  0.13243725  0.39181214  0.98215091  1
  Cs  Cs6  1  0.36756275  0.39181214  0.48215091  1
  Cs  Cs7  1  0.86756275  0.60818786  0.01784909  1
  Cs  Cs8  1  0.81859906  0.13360517  0.56575479  1
  Cs  Cs9  1  0.31859906  0.86639483  0.93424521  1
  Cs  Cs10  1  0.18140094  0.86639483  0.43424521  1
  Cs  Cs11  1  0.68140094  0.13360517  0.06575479  1
  Sc  Sc0  1  0.55984386  0.93653185  0.65918684  1
  Sc  Sc1  1  0.05984386  0.06346815  0.84081316  1
  Sc  Sc2  1  0.44015614  0.06346815  0.34081316  1
  Sc  Sc3  1  0.94015614  0.93653185  0.15918684  1
  Se  Se0  1  0.10820086  0.86281574  0.11723422  1
  Se  Se1  1  0.60820086  0.13718426  0.38276578  1
  Se  Se2  1  0.89179914  0.13718426  0.88276578  1
  Se  Se3  1  0.39179914  0.86281574  0.61723422  1
  Se  Se4  1  0.05158118  0.88067695  0.73485031  1
  Se  Se5  1  0.55158118  0.11932305  0.76514969  1
  Se  Se6  1  0.94841882  0.11932305  0.26514969  1
  Se  Se7  1  0.44841882  0.88067695  0.23485031  1
  Se  Se8  1  0.66536033  0.64727539  0.80926546  1
  Se  Se9  1  0.16536033  0.35272461  0.69073454  1
  Se  Se10  1  0.33463967  0.35272461  0.19073454  1
  Se  Se11  1  0.83463967  0.64727539  0.30926546  1
loop_
_geom_bond_atom_site_label_1
_geom_bond_atom_site_label_2
_geom_bond_distance
_geom_bond_site_symmetry_2
Cs0 Se2 3.585660 1_555
Cs0 Se4 3.658877 1_655
Cs0 Se11 3.681855 1_555
Cs0 Se6 3.724195 1_565
Cs0 Se8 4.177120 1_555
Cs0 Se9 4.198880 1_655
Cs1 Se3 3.585660 1_555
Cs1 Se5 3.658877 1_555
Cs1 Se10 3.681855 1_556
Cs1 Se7 3.724195 1_546
Cs1 Se9 4.177120 1_555
Cs1 Se8 4.198880 1_555
Cs2 Se0 3.585660 1_555
Cs2 Se6 3.658877 1_455
Cs2 Se9 3.681855 1_555
Cs2 Se4 3.724195 1_545
Cs2 Se10 4.177120 1_555
Cs2 Se11 4.198880 1_455
Cs3 Se1 3.585660 1_555
Cs3 Se7 3.658877 1_555
Cs3 Se8 3.681855 1_554
Cs3 Se5 3.724195 1_564
Cs3 Se11 4.177120 1_555
Cs3 Se10 4.198880 1_555
Cs4 Se8 3.570485 1_555
Cs4 Se11 3.628432 1_555
Cs4 Se5 3.641895 1_555
Cs4 Se7 3.717526 1_555
Cs4 Se1 3.947495 1_565
Cs5 Se9 3.570485 1_555
Cs5 Se10 3.628432 1_556
Cs5 Se4 3.641895 1_555
Cs5 Se6 3.717526 1_456
Cs5 Se0 3.947495 1_546
Cs6 Se10 3.570485 1_555
Cs6 Se9 3.628432 1_555
Cs6 Se7 3.641895 1_555
Cs6 Se5 3.717526 1_555
Cs6 Se3 3.947495 1_545
Cs7 Se11 3.570485 1_555
Cs7 Se8 3.628432 1_554
Cs7 Se6 3.641895 1_555
Cs7 Se4 3.717526 1_654
Cs7 Se2 3.947495 1_564
Cs8 Se11 3.633202 1_555
Cs8 Se1 3.652444 1_555
Cs8 Se2 3.781024 1_555
Cs8 Se4 3.826897 1_645
Cs8 Se6 3.965900 1_555
Cs8 Se8 4.074010 1_545
Cs9 Se10 3.633202 1_556
Cs9 Se0 3.652444 1_556
Cs9 Se3 3.781024 1_555
Cs9 Se5 3.826897 1_565
Cs9 Se7 3.965900 1_556
Cs9 Se9 4.074010 1_565
Cs10 Se9 3.633202 1_555
Cs10 Se3 3.652444 1_555
Cs10 Se0 3.781024 1_555
Cs10 Se6 3.826897 1_465
Cs10 Se4 3.965900 1_555
Cs10 Se10 4.074010 1_565
Cs11 Se8 3.633202 1_554
Cs11 Se2 3.652444 1_554
Cs11 Se1 3.781024 1_555
Cs11 Se7 3.826897 1_545
Cs11 Se5 3.965900 1_554
Cs11 Se11 4.074010 1_545
Sc0 Se5 2.528570 1_565
Sc0 Se8 2.543405 1_555
Sc0 Se3 2.608746 1_555
Sc0 Se1 2.618413 1_565
Sc1 Se4 2.528570 1_545
Sc1 Se9 2.543405 1_555
Sc1 Se2 2.608746 1_455
Sc1 Se0 2.618413 1_546
Sc2 Se7 2.528570 1_545
Sc2 Se10 2.543405 1_555
Sc2 Se1 2.608746 1_555
Sc2 Se3 2.618413 1_545
Sc3 Se6 2.528570 1_565
Sc3 Se11 2.543405 1_555
Sc3 Se0 2.608746 1_655
Sc3 Se2 2.618413 1_564
