# generated using pymatgen
data_RbNi(Sb4Ru)3
_symmetry_space_group_name_H-M   'P 1'
_cell_length_a   8.08118716
_cell_length_b   8.08118707
_cell_length_c   8.08118739
_cell_angle_alpha   109.40466773
_cell_angle_beta   109.40466016
_cell_angle_gamma   109.40466321
_symmetry_Int_Tables_number   1
_chemical_formula_structural   RbNi(Sb4Ru)3
_chemical_formula_sum   'Rb1 Ni1 Sb12 Ru3'
_cell_volume   407.25760825
_cell_formula_units_Z   1
loop_
 _symmetry_equiv_pos_site_id
 _symmetry_equiv_pos_as_xyz
  1  'x, y, z'
loop_
 _atom_site_type_symbol
 _atom_site_label
 _atom_site_symmetry_multiplicity
 _atom_site_fract_x
 _atom_site_fract_y
 _atom_site_fract_z
 _atom_site_occupancy
  Rb  Rb0  1  0.00000000  0.00000000  0.00000000  1
  Ni  Ni0  1  0.50000000  0.50000000  0.50000000  1
  Sb  Sb0  1  0.15963162  0.50208918  0.34448431  1
  Sb  Sb1  1  0.49791082  0.65551569  0.84036838  1
  Sb  Sb2  1  0.34307178  0.84088411  0.18384431  1
  Sb  Sb3  1  0.81615569  0.65692822  0.15911589  1
  Sb  Sb4  1  0.65551569  0.84036838  0.49791082  1
  Sb  Sb5  1  0.18384431  0.34307178  0.84088411  1
  Sb  Sb6  1  0.65692822  0.15911589  0.81615569  1
  Sb  Sb7  1  0.34448431  0.15963162  0.50208918  1
  Sb  Sb8  1  0.50208918  0.34448431  0.15963162  1
  Sb  Sb9  1  0.84036838  0.49791082  0.65551569  1
  Sb  Sb10  1  0.84088411  0.18384431  0.34307178  1
  Sb  Sb11  1  0.15911589  0.81615569  0.65692822  1
  Ru  Ru0  1  0.50000000  0.00000000  0.00000000  1
  Ru  Ru1  1  0.00000000  0.50000000  0.00000000  1
  Ru  Ru2  1  0.00000000  0.00000000  0.50000000  1
loop_
_geom_bond_atom_site_label_1
_geom_bond_atom_site_label_2
_geom_bond_distance
_geom_bond_site_symmetry_2
Rb0 Sb10 3.528207 1_455
Rb0 Sb11 3.528207 1_544
Rb0 Sb5 3.528207 1_554
Rb0 Sb3 3.528207 1_445
Rb0 Sb2 3.528207 1_545
Rb0 Sb6 3.528207 1_454
Rb0 Sb0 3.536561 1_555
Rb0 Sb9 3.536561 1_444
Rb0 Sb8 3.536561 1_555
Rb0 Sb1 3.536561 1_444
Rb0 Sb7 3.536562 1_555
Rb0 Sb4 3.536562 1_444
Ni0 Sb1 2.625529 1_555
Ni0 Sb8 2.625529 1_555
Ni0 Sb4 2.625529 1_555
Ni0 Sb7 2.625529 1_555
Ni0 Sb0 2.625529 1_555
Ni0 Sb9 2.625529 1_555
Sb0 Sb11 2.927913 1_555
Sb0 Sb10 2.967894 1_455
Sb1 Sb5 2.927913 1_555
Sb1 Sb3 2.967894 1_556
Sb2 Sb4 2.927913 1_555
Sb2 Sb7 2.967894 1_565
Sb3 Sb8 2.927913 1_555
Sb4 Sb6 2.967894 1_565
Sb5 Sb8 2.967894 1_556
Sb6 Sb7 2.927913 1_555
Sb10 Sb9 2.927913 1_555
Sb11 Sb9 2.967894 1_455
Ru0 Sb6 2.628054 1_554
Ru0 Sb2 2.628054 1_545
Ru0 Sb10 2.636473 1_555
Ru0 Sb11 2.636473 1_544
Ru0 Sb8 2.642391 1_555
Ru0 Sb1 2.642391 1_544
Ru1 Sb3 2.628054 1_455
Ru1 Sb5 2.628054 1_554
Ru1 Sb2 2.636473 1_555
Ru1 Sb6 2.636473 1_454
Ru1 Sb0 2.642392 1_555
Ru1 Sb9 2.642392 1_454
Ru2 Sb11 2.628054 1_545
Ru2 Sb10 2.628054 1_455
Ru2 Sb5 2.636473 1_555
Ru2 Sb3 2.636473 1_445
Ru2 Sb7 2.642392 1_555
Ru2 Sb4 2.642392 1_445
