# generated using pymatgen
data_Lu4InRu
_symmetry_space_group_name_H-M   'P 1'
_cell_length_a   9.38138993
_cell_length_b   9.38139048
_cell_length_c   9.38139033
_cell_angle_alpha   60.00000052
_cell_angle_beta   59.99999858
_cell_angle_gamma   60.00000100
_symmetry_Int_Tables_number   1
_chemical_formula_structural   Lu4InRu
_chemical_formula_sum   'Lu16 In4 Ru4'
_cell_volume   583.83027119
_cell_formula_units_Z   4
loop_
 _symmetry_equiv_pos_site_id
 _symmetry_equiv_pos_as_xyz
  1  'x, y, z'
loop_
 _atom_site_type_symbol
 _atom_site_label
 _atom_site_symmetry_multiplicity
 _atom_site_fract_x
 _atom_site_fract_y
 _atom_site_fract_z
 _atom_site_occupancy
  Lu  Lu0  1  0.59823859  0.59823859  0.59823859  1
  Lu  Lu1  1  0.59823859  0.59823859  0.20528624  1
  Lu  Lu2  1  0.59823859  0.20528624  0.59823859  1
  Lu  Lu3  1  0.20528624  0.59823859  0.59823859  1
  Lu  Lu4  1  0.05823354  0.44176646  0.44176646  1
  Lu  Lu5  1  0.44176646  0.05823354  0.05823354  1
  Lu  Lu6  1  0.44176646  0.05823354  0.44176646  1
  Lu  Lu7  1  0.05823354  0.44176646  0.05823354  1
  Lu  Lu8  1  0.44176646  0.44176646  0.05823354  1
  Lu  Lu9  1  0.05823354  0.05823354  0.44176646  1
  Lu  Lu10  1  0.19274097  0.80725903  0.80725903  1
  Lu  Lu11  1  0.80725903  0.19274097  0.19274097  1
  Lu  Lu12  1  0.80725903  0.19274097  0.80725903  1
  Lu  Lu13  1  0.19274097  0.80725903  0.19274097  1
  Lu  Lu14  1  0.80725903  0.80725903  0.19274097  1
  Lu  Lu15  1  0.19274097  0.19274097  0.80725903  1
  In  In0  1  0.83331904  0.83331904  0.83331904  1
  In  In1  1  0.83331904  0.83331904  0.50004188  1
  In  In2  1  0.83331904  0.50004188  0.83331904  1
  In  In3  1  0.50004188  0.83331904  0.83331904  1
  Ru  Ru0  1  0.38939110  0.38939110  0.38939110  1
  Ru  Ru1  1  0.38939110  0.38939110  0.83182571  1
  Ru  Ru2  1  0.38939110  0.83182571  0.38939110  1
  Ru  Ru3  1  0.83182571  0.38939110  0.38939110  1
loop_
_geom_bond_atom_site_label_1
_geom_bond_atom_site_label_2
_geom_bond_distance
_geom_bond_site_symmetry_2
Lu0 Ru1 2.780543 1_555
Lu0 Ru3 2.780543 1_555
Lu0 Ru2 2.780543 1_555
Lu0 Lu10 3.329830 1_555
Lu0 Lu14 3.329830 1_555
Lu0 Lu12 3.329830 1_555
Lu1 Ru3 2.780525 1_555
Lu1 Ru2 2.780525 1_555
Lu1 Ru0 2.780546 1_555
Lu1 Lu14 3.329820 1_555
Lu1 Lu13 3.329836 1_555
Lu1 Lu11 3.329836 1_555
Lu2 Ru3 2.780525 1_555
Lu2 Ru1 2.780525 1_555
Lu2 Ru0 2.780546 1_555
Lu3 Ru2 2.780525 1_555
Lu3 Ru1 2.780525 1_555
Lu3 Ru0 2.780546 1_555
Lu4 Ru0 2.706102 1_555
Lu4 Ru3 2.706111 1_455
Lu5 Ru2 2.706105 1_545
Lu5 Ru1 2.706105 1_554
Lu6 Ru0 2.706102 1_555
Lu6 Ru2 2.706111 1_545
Lu7 Ru1 2.706105 1_554
Lu7 Ru3 2.706105 1_455
Lu8 Ru0 2.706102 1_555
Lu8 Ru1 2.706111 1_554
Lu9 Ru2 2.706105 1_545
Lu9 Ru3 2.706105 1_455
Lu10 Lu3 3.329820 1_555
Lu10 Ru2 3.333762 1_555
Lu10 Ru1 3.333762 1_555
Lu10 Lu6 3.489316 1_565
Lu10 Lu7 3.489316 1_556
Lu10 Lu9 3.489316 1_565
Lu10 Lu8 3.489316 1_556
Lu10 Lu14 3.616356 1_456
Lu10 Lu13 3.616357 1_556
Lu10 Lu12 3.616357 1_465
Lu10 Lu15 3.616357 1_565
Lu11 Lu2 3.329836 1_555
Lu11 Ru3 3.333754 1_555
Lu11 Ru0 3.333759 1_555
Lu11 Lu6 3.489316 1_555
Lu11 Lu7 3.489316 1_655
Lu11 Lu8 3.489316 1_555
Lu11 Lu9 3.489316 1_655
Lu11 Lu15 3.616356 1_654
Lu11 Lu12 3.616357 1_554
Lu11 Lu13 3.616357 1_645
Lu11 Lu14 3.616357 1_545
Lu12 Lu2 3.329820 1_555
Lu12 Ru1 3.333762 1_555
Lu12 Ru3 3.333762 1_555
Lu12 Lu5 3.489316 1_556
Lu12 Lu4 3.489316 1_655
Lu12 Lu8 3.489316 1_556
Lu12 Lu9 3.489316 1_655
Lu12 Lu15 3.616356 1_655
Lu12 Lu14 3.616357 1_546
Lu13 Lu3 3.329836 1_555
Lu13 Ru2 3.333754 1_555
Lu13 Ru0 3.333760 1_555
Lu13 Lu5 3.489316 1_565
Lu13 Lu4 3.489316 1_555
Lu13 Lu9 3.489316 1_565
Lu13 Lu8 3.489316 1_555
Lu13 Lu14 3.616356 1_455
Lu13 Lu15 3.616357 1_564
Lu14 Ru2 3.333761 1_555
Lu14 Ru3 3.333762 1_555
Lu14 Lu6 3.489316 1_565
Lu14 Lu5 3.489316 1_565
Lu14 Lu4 3.489316 1_655
Lu14 Lu7 3.489316 1_655
Lu15 Lu2 3.329836 1_555
Lu15 Lu3 3.329836 1_555
Lu15 Ru1 3.333754 1_555
Lu15 Ru0 3.333759 1_555
Lu15 Lu6 3.489316 1_555
Lu15 Lu5 3.489316 1_556
Lu15 Lu4 3.489316 1_555
Lu15 Lu7 3.489316 1_556
In0 In3 3.126603 1_555
In0 In1 3.126603 1_555
In0 In2 3.126603 1_555
In0 Lu10 3.146452 1_655
In0 Lu14 3.146452 1_556
In0 Lu12 3.146452 1_565
In0 Lu5 3.368707 1_566
In0 Lu9 3.368707 1_665
In0 Lu7 3.368707 1_656
In0 Lu1 3.372915 1_556
In0 Lu3 3.372915 1_655
In0 Lu2 3.372915 1_565
In1 In3 3.126603 1_555
In1 In2 3.126603 1_555
In1 Lu14 3.146443 1_555
In1 Lu13 3.146448 1_655
In1 Lu11 3.146448 1_565
In1 Lu6 3.368703 1_565
In1 Lu4 3.368703 1_655
In1 Lu9 3.368711 1_665
In1 Lu0 3.372904 1_555
In1 Lu3 3.372928 1_655
In1 Lu2 3.372928 1_565
In2 In3 3.126603 1_555
In2 Lu12 3.146443 1_555
In2 Lu15 3.146448 1_655
In2 Lu11 3.146448 1_556
In2 Lu8 3.368703 1_556
In2 Lu4 3.368703 1_655
In2 Lu7 3.368711 1_656
In2 Lu0 3.372904 1_555
In2 Lu3 3.372928 1_655
In2 Lu1 3.372928 1_556
In3 Lu10 3.146443 1_555
In3 Lu13 3.146448 1_556
In3 Lu15 3.146448 1_565
In3 Lu6 3.368703 1_565
In3 Lu8 3.368703 1_556
In3 Lu5 3.368711 1_566
In3 Lu0 3.372904 1_555
In3 Lu2 3.372928 1_565
In3 Lu1 3.372928 1_556
