# generated using pymatgen
data_Y4SiSn5Ir7
_symmetry_space_group_name_H-M   'P 1'
_cell_length_a   7.49968958
_cell_length_b   7.49968928
_cell_length_c   7.49969046
_cell_angle_alpha   109.35589231
_cell_angle_beta   109.52892502
_cell_angle_gamma   109.52890519
_symmetry_Int_Tables_number   1
_chemical_formula_structural   Y4SiSn5Ir7
_chemical_formula_sum   'Y4 Si1 Sn5 Ir7'
_cell_volume   324.71824537
_cell_formula_units_Z   1
loop_
 _symmetry_equiv_pos_site_id
 _symmetry_equiv_pos_as_xyz
  1  'x, y, z'
loop_
 _atom_site_type_symbol
 _atom_site_label
 _atom_site_symmetry_multiplicity
 _atom_site_fract_x
 _atom_site_fract_y
 _atom_site_fract_z
 _atom_site_occupancy
  Y  Y0  1  1.00000000  0.98908664  0.52942799  1
  Y  Y1  1  0.00000000  0.52942799  0.98908664  1
  Y  Y2  1  0.45965865  0.98908664  0.98908664  1
  Y  Y3  1  0.54034135  0.52942799  0.52942799  1
  Si  Si0  1  0.00000000  0.64669291  0.64669291  1
  Sn  Sn0  1  0.68500689  0.69894078  0.01393390  1
  Sn  Sn1  1  0.31499311  0.01393390  0.32892701  1
  Sn  Sn2  1  1.00000000  0.29375217  0.29375217  1
  Sn  Sn3  1  0.31499311  0.32892701  0.01393390  1
  Sn  Sn4  1  0.68500689  0.01393390  0.69894078  1
  Ir  Ir0  1  0.75625063  0.25334024  0.49708961  1
  Ir  Ir1  1  0.75625063  0.49708961  0.25334024  1
  Ir  Ir2  1  0.50000000  0.26030531  0.76030531  1
  Ir  Ir3  1  0.24374937  0.49708961  0.74083898  1
  Ir  Ir4  1  0.24374937  0.74083898  0.49708961  1
  Ir  Ir5  1  0.50000000  0.76030531  0.26030531  1
  Ir  Ir6  1  1.00000000  0.95782199  0.95782199  1
loop_
_geom_bond_atom_site_label_1
_geom_bond_atom_site_label_2
_geom_bond_distance
_geom_bond_site_symmetry_2
Si0 Y0 2.977285 1_455
Si0 Y3 2.977285 1_455
Si0 Y2 2.977285 1_555
Si0 Y1 2.977285 1_555
Sn0 Y1 3.062148 1_654
Sn0 Y3 3.062149 1_554
Sn0 Y2 3.184786 1_554
Sn0 Y0 3.184787 1_555
Sn1 Y1 3.062148 1_544
Sn1 Y2 3.062149 1_544
Sn1 Y3 3.184787 1_555
Sn1 Y0 3.184787 1_445
Sn2 Y3 3.319913 1_655
Sn2 Y2 3.319913 1_544
Sn2 Y0 3.319913 1_545
Sn2 Y1 3.319913 1_654
Sn3 Y2 3.062148 1_544
Sn3 Y0 3.062148 1_444
Sn3 Y1 3.184787 1_554
Sn3 Y3 3.184787 1_555
Sn4 Y3 3.062148 1_545
Sn4 Y0 3.062149 1_545
Sn4 Y1 3.184787 1_655
Sn4 Y2 3.184787 1_545
Ir0 Si0 2.476398 1_655
Ir0 Sn1 2.738968 1_555
Ir0 Sn4 2.738968 1_555
Ir0 Sn2 2.749337 1_555
Ir0 Y3 3.023127 1_555
Ir0 Y1 3.023128 1_655
Ir0 Y0 3.126098 1_545
Ir0 Y2 3.126098 1_544
Ir1 Si0 2.476398 1_655
Ir1 Sn3 2.738968 1_555
Ir1 Sn0 2.738968 1_555
Ir1 Sn2 2.749336 1_555
Ir1 Y0 3.023128 1_555
Ir1 Y3 3.023128 1_555
Ir1 Y2 3.126098 1_544
Ir1 Y1 3.126098 1_654
Ir2 Sn4 2.669869 1_555
Ir2 Sn1 2.669869 1_555
Ir2 Sn0 2.720496 1_556
Ir2 Sn3 2.720496 1_556
Ir2 Y1 3.069511 1_655
Ir2 Y0 3.069511 1_445
Ir2 Y2 3.069511 1_545
Ir2 Y3 3.069511 1_555
Ir3 Si0 2.476397 1_555
Ir3 Sn0 2.738968 1_556
Ir3 Sn3 2.738968 1_556
Ir3 Sn2 2.749336 1_455
Ir3 Y2 3.023128 1_555
Ir3 Y1 3.023128 1_555
Ir3 Y0 3.126098 1_445
Ir3 Y3 3.126098 1_555
Ir4 Si0 2.476398 1_555
Ir4 Sn4 2.738968 1_565
Ir4 Sn1 2.738968 1_565
Ir4 Sn2 2.749336 1_455
Ir4 Y0 3.023127 1_455
Ir4 Y2 3.023128 1_555
Ir4 Y3 3.126098 1_555
Ir4 Y1 3.126098 1_554
Ir5 Sn3 2.669869 1_555
Ir5 Sn0 2.669869 1_555
Ir5 Sn1 2.720495 1_565
Ir5 Sn4 2.720496 1_565
Ir5 Y0 3.069511 1_555
Ir5 Y1 3.069511 1_554
Ir5 Y3 3.069511 1_555
Ir5 Y2 3.069511 1_554
Ir6 Si0 2.698179 1_655
Ir6 Sn4 2.768959 1_565
Ir6 Sn1 2.768959 1_666
Ir6 Sn3 2.768959 1_666
Ir6 Sn0 2.768959 1_556
Ir6 Sn2 2.913259 1_566
Ir6 Y1 3.297963 1_655
Ir6 Y2 3.297963 1_655
Ir6 Y3 3.297963 1_555
Ir6 Y0 3.297964 1_555
