# generated using pymatgen
data_Hf7Nb3(GaSn3)2
_symmetry_space_group_name_H-M   'P 1'
_cell_length_a   8.51507541
_cell_length_b   8.51507414
_cell_length_c   5.71701747
_cell_angle_alpha   90.00000000
_cell_angle_beta   90.00000000
_cell_angle_gamma   120.00000494
_symmetry_Int_Tables_number   1
_chemical_formula_structural   Hf7Nb3(GaSn3)2
_chemical_formula_sum   'Hf7 Nb3 Ga2 Sn6'
_cell_volume   358.98562768
_cell_formula_units_Z   1
loop_
 _symmetry_equiv_pos_site_id
 _symmetry_equiv_pos_as_xyz
  1  'x, y, z'
loop_
 _atom_site_type_symbol
 _atom_site_label
 _atom_site_symmetry_multiplicity
 _atom_site_fract_x
 _atom_site_fract_y
 _atom_site_fract_z
 _atom_site_occupancy
  Hf  Hf0  1  0.73249179  0.73277738  0.74993464  1
  Hf  Hf1  1  0.26722262  0.99971540  0.74993464  1
  Hf  Hf2  1  0.00028460  0.26750821  0.74993464  1
  Hf  Hf3  1  0.26722262  0.26750821  0.25006536  1
  Hf  Hf4  1  0.73249179  0.99971540  0.25006536  1
  Hf  Hf5  1  0.00028460  0.73277738  0.25006536  1
  Hf  Hf6  1  0.66666700  0.33333300  0.50000000  1
  Nb  Nb0  1  0.66666700  0.33333300  0.00000000  1
  Nb  Nb1  1  0.33333300  0.66666700  0.00000000  1
  Nb  Nb2  1  0.33333300  0.66666700  0.50000000  1
  Ga  Ga0  1  0.00000000  0.00000000  0.00000000  1
  Ga  Ga1  1  0.00000000  0.00000000  0.50000000  1
  Sn  Sn0  1  0.38965077  0.39104262  0.75181401  1
  Sn  Sn1  1  0.60895738  0.99860816  0.75181401  1
  Sn  Sn2  1  0.00139184  0.61034923  0.75181401  1
  Sn  Sn3  1  0.60895738  0.61034923  0.24818599  1
  Sn  Sn4  1  0.38965077  0.99860816  0.24818599  1
  Sn  Sn5  1  0.00139184  0.39104262  0.24818599  1
loop_
_geom_bond_atom_site_label_1
_geom_bond_atom_site_label_2
_geom_bond_distance
_geom_bond_site_symmetry_2
Hf0 Sn0 2.914638 1_555
Hf0 Sn1 2.934522 1_555
Hf0 Sn2 2.952392 1_655
Hf0 Sn3 3.034914 1_556
Hf0 Sn3 3.053688 1_555
Hf0 Nb2 3.463748 1_555
Hf0 Nb1 3.464057 1_556
Hf1 Sn1 2.914643 1_555
Hf1 Sn2 2.934528 1_555
Hf1 Sn0 2.952383 1_565
Hf1 Sn4 3.034915 1_556
Hf1 Sn4 3.053689 1_555
Hf1 Nb2 3.463748 1_555
Hf1 Nb1 3.464056 1_556
Hf2 Sn2 2.914634 1_555
Hf2 Sn0 2.934531 1_555
Hf2 Sn1 2.952385 1_445
Hf2 Sn5 3.034912 1_556
Hf2 Sn5 3.053686 1_555
Hf2 Nb2 3.463748 1_555
Hf2 Nb1 3.464056 1_556
Hf3 Sn3 2.914638 1_555
Hf3 Sn5 2.934523 1_555
Hf3 Sn4 2.952392 1_545
Hf3 Sn0 3.034914 1_554
Hf3 Sn0 3.053688 1_555
Hf3 Nb2 3.463748 1_555
Hf3 Nb1 3.464056 1_555
Hf4 Sn4 2.914634 1_555
Hf4 Sn3 2.934530 1_555
Hf4 Sn5 2.952385 1_665
Hf4 Sn1 3.034912 1_554
Hf4 Sn1 3.053686 1_555
Hf4 Nb2 3.463748 1_555
Hf4 Nb1 3.464056 1_555
Hf5 Sn5 2.914642 1_555
Hf5 Sn4 2.934529 1_555
Hf5 Sn3 2.952384 1_455
Hf5 Sn2 3.034915 1_554
Hf5 Sn2 3.053689 1_555
Hf5 Nb2 3.463748 1_555
Hf5 Nb1 3.464057 1_555
Hf6 Nb0 2.858509 1_555
Hf6 Nb0 2.858509 1_556
Hf6 Sn1 3.006173 1_545
Hf6 Sn5 3.006174 1_655
Hf6 Sn4 3.006176 1_545
Hf6 Sn2 3.006176 1_655
Hf6 Sn3 3.006181 1_555
Hf6 Sn0 3.006181 1_555
Nb0 Sn1 2.996296 1_544
Nb0 Sn5 2.996296 1_655
Nb0 Sn4 2.996298 1_545
Nb0 Sn2 2.996299 1_654
Nb0 Sn3 2.996303 1_555
Nb0 Sn0 2.996304 1_554
Nb1 Nb2 2.858509 1_555
Nb1 Nb2 2.858509 1_554
Nb1 Sn4 2.979408 1_555
Nb1 Sn2 2.979408 1_554
Nb1 Sn1 2.979411 1_554
Nb1 Sn5 2.979411 1_555
Nb1 Sn0 2.979415 1_554
Nb1 Sn3 2.979416 1_555
Nb2 Sn4 2.989341 1_555
Nb2 Sn2 2.989342 1_555
Nb2 Sn1 2.989344 1_555
Nb2 Sn5 2.989344 1_555
Nb2 Sn0 2.989349 1_555
Nb2 Sn3 2.989349 1_555
Ga0 Hf5 2.688288 1_545
Ga0 Hf1 2.688289 1_544
Ga0 Hf3 2.688292 1_555
Ga0 Hf0 2.688292 1_444
Ga0 Hf2 2.688296 1_554
Ga0 Hf4 2.688296 1_445
Ga1 Hf5 2.687891 1_545
Ga1 Hf1 2.687891 1_545
Ga1 Hf3 2.687895 1_555
Ga1 Hf0 2.687895 1_445
Ga1 Hf2 2.687898 1_555
Ga1 Hf4 2.687899 1_445
