# generated using pymatgen
data_K2Ti(CuTe2)2
_symmetry_space_group_name_H-M   'P 1'
_cell_length_a   6.07912951
_cell_length_b   6.07912951
_cell_length_c   14.46930735
_cell_angle_alpha   90.00000000
_cell_angle_beta   90.00000000
_cell_angle_gamma   90.00000000
_symmetry_Int_Tables_number   1
_chemical_formula_structural   K2Ti(CuTe2)2
_chemical_formula_sum   'K4 Ti2 Cu4 Te8'
_cell_volume   534.72505418
_cell_formula_units_Z   2
loop_
 _symmetry_equiv_pos_site_id
 _symmetry_equiv_pos_as_xyz
  1  'x, y, z'
loop_
 _atom_site_type_symbol
 _atom_site_label
 _atom_site_symmetry_multiplicity
 _atom_site_fract_x
 _atom_site_fract_y
 _atom_site_fract_z
 _atom_site_occupancy
  K  K0  1  0.24557034  0.24557034  0.00000000  1
  K  K1  1  0.75442966  0.75442966  0.00000000  1
  K  K2  1  0.75442966  0.24557034  0.50000000  1
  K  K3  1  0.24557034  0.75442966  0.50000000  1
  Ti  Ti0  1  0.00000000  0.00000000  0.25000000  1
  Ti  Ti1  1  0.00000000  0.00000000  0.75000000  1
  Cu  Cu0  1  0.00000000  0.50000000  0.25000000  1
  Cu  Cu1  1  0.00000000  0.50000000  0.75000000  1
  Cu  Cu2  1  0.50000000  0.00000000  0.75000000  1
  Cu  Cu3  1  0.50000000  0.00000000  0.25000000  1
  Te  Te0  1  0.25003085  0.25003085  0.35322253  1
  Te  Te1  1  0.74996915  0.74996915  0.64677747  1
  Te  Te2  1  0.74996915  0.74996915  0.35322253  1
  Te  Te3  1  0.74996915  0.25003085  0.85322253  1
  Te  Te4  1  0.74996915  0.25003085  0.14677747  1
  Te  Te5  1  0.25003085  0.25003085  0.64677747  1
  Te  Te6  1  0.25003085  0.74996915  0.14677747  1
  Te  Te7  1  0.25003085  0.74996915  0.85322253  1
loop_
_geom_bond_atom_site_label_1
_geom_bond_atom_site_label_2
_geom_bond_distance
_geom_bond_site_symmetry_2
K0 Te4 3.686222 1_455
K0 Te6 3.686222 1_545
K0 Te3 3.686222 1_454
K0 Te7 3.686222 1_544
K0 Te6 3.730061 1_555
K0 Te4 3.730061 1_555
K0 Te7 3.730061 1_554
K0 Te3 3.730061 1_554
K1 Te4 3.686222 1_565
K1 Te6 3.686222 1_655
K1 Te3 3.686222 1_564
K1 Te7 3.686222 1_654
K1 Te6 3.730061 1_555
K1 Te4 3.730061 1_555
K1 Te3 3.730061 1_554
K1 Te7 3.730061 1_554
K2 Te1 3.686222 1_545
K2 Te5 3.686222 1_655
K2 Te2 3.686222 1_545
K2 Te0 3.686222 1_655
K2 Te5 3.730061 1_555
K2 Te1 3.730061 1_555
K2 Te0 3.730061 1_555
K2 Te2 3.730061 1_555
K3 Te1 3.686222 1_455
K3 Te5 3.686222 1_565
K3 Te2 3.686222 1_455
K3 Te0 3.686222 1_565
K3 Te5 3.730061 1_555
K3 Te1 3.730061 1_555
K3 Te0 3.730061 1_555
K3 Te2 3.730061 1_555
Cu0 Te0 2.617288 1_555
Cu0 Te2 2.617288 1_455
Cu0 Te4 2.617288 1_455
Cu0 Te6 2.617288 1_555
Cu0 Ti0 3.039565 1_565
Cu0 Ti0 3.039565 1_555
Cu1 Te3 2.617288 1_455
Cu1 Te7 2.617288 1_555
Cu1 Te1 2.617288 1_455
Cu1 Te5 2.617288 1_555
Cu1 Ti1 3.039565 1_555
Cu1 Ti1 3.039565 1_565
Cu2 Te7 2.617288 1_545
Cu2 Te3 2.617288 1_555
Cu2 Te1 2.617288 1_545
Cu2 Te5 2.617288 1_555
Cu2 Ti1 3.039565 1_555
Cu2 Ti1 3.039565 1_655
Cu3 Te0 2.617288 1_555
Cu3 Te2 2.617288 1_545
Cu3 Te6 2.617288 1_545
Cu3 Te4 2.617288 1_555
Cu3 Ti0 3.039565 1_655
Cu3 Ti0 3.039565 1_555
Te0 Ti0 2.617505 1_555
Te1 Ti1 2.617505 1_665
Te2 Ti0 2.617505 1_665
Te3 Ti1 2.617505 1_655
Te4 Ti0 2.617505 1_655
Te5 Ti1 2.617505 1_555
Te6 Ti0 2.617505 1_565
Te7 Ti1 2.617505 1_565
