# generated using pymatgen
data_Ta5Cr(TcP)6
_symmetry_space_group_name_H-M   'P 1'
_cell_length_a   7.34839296
_cell_length_b   7.34839426
_cell_length_c   7.34839336
_cell_angle_alpha   127.71201209
_cell_angle_beta   123.09080261
_cell_angle_gamma   80.92887982
_symmetry_Int_Tables_number   1
_chemical_formula_structural   Ta5Cr(TcP)6
_chemical_formula_sum   'Ta5 Cr1 Tc6 P6'
_cell_volume   253.52099837
_cell_formula_units_Z   1
loop_
 _symmetry_equiv_pos_site_id
 _symmetry_equiv_pos_as_xyz
  1  'x, y, z'
loop_
 _atom_site_type_symbol
 _atom_site_label
 _atom_site_symmetry_multiplicity
 _atom_site_fract_x
 _atom_site_fract_y
 _atom_site_fract_z
 _atom_site_occupancy
  Ta  Ta0  1  0.71166792  0.43475446  0.72308655  1
  Ta  Ta1  1  0.28833208  0.01141863  0.72308655  1
  Ta  Ta2  1  0.20822191  0.37451661  0.16629469  1
  Ta  Ta3  1  0.79177809  0.95807478  0.16629469  1
  Ta  Ta4  1  0.50000000  0.57191125  0.07191125  1
  Cr  Cr0  1  1.00000000  0.61681139  0.61681139  1
  Tc  Tc0  1  0.78601648  0.25761028  0.04362576  1
  Tc  Tc1  1  0.21398352  0.25761028  0.47159380  1
  Tc  Tc2  1  0.83841781  0.99514389  0.58593062  1
  Tc  Tc3  1  0.16158219  0.74751282  0.15672608  1
  Tc  Tc4  1  0.40921226  0.99514389  0.15672608  1
  Tc  Tc5  1  0.59078774  0.74751282  0.58593062  1
  P  P0  1  0.39441956  0.66231616  0.73101464  1
  P  P1  1  0.60558044  0.33659607  0.26789560  1
  P  P2  1  0.93130052  0.66231616  0.26789560  1
  P  P3  1  0.06869948  0.33659607  0.73101464  1
  P  P4  1  0.50000000  0.06866643  0.56866643  1
  P  P5  1  0.00000000  0.96719002  0.96719002  1
loop_
_geom_bond_atom_site_label_1
_geom_bond_atom_site_label_2
_geom_bond_distance
_geom_bond_site_symmetry_2
Ta0 Tc3 2.880869 1_656
Ta0 Tc5 2.880870 1_555
Ta0 Tc2 2.900367 1_545
Ta0 Tc4 2.900368 1_545
Ta1 Tc2 2.880869 1_445
Ta1 Tc4 2.880872 1_546
Ta1 Tc3 2.900367 1_545
Ta1 Tc5 2.900373 1_545
Ta2 Tc3 2.747421 1_555
Ta2 Tc5 2.747424 1_555
Ta2 Tc0 2.831170 1_455
Ta2 Tc1 2.831174 1_555
Ta2 Tc4 2.921188 1_545
Ta2 Tc2 2.921191 1_444
Ta3 Tc4 2.747428 1_555
Ta3 Tc2 2.747429 1_555
Ta3 Tc0 2.831165 1_565
Ta3 Tc1 2.831167 1_665
Ta3 Tc5 2.921188 1_554
Ta3 Tc3 2.921196 1_655
Ta4 Tc5 2.816825 1_555
Ta4 Tc3 2.816828 1_555
Ta4 Tc2 2.816828 1_555
Ta4 Tc4 2.816830 1_555
Ta4 Tc1 2.855516 1_554
Ta4 Tc0 2.855516 1_555
Cr0 P5 2.268991 1_655
Cr0 P3 2.553984 1_655
Cr0 P1 2.553988 1_555
Cr0 P0 2.553991 1_655
Cr0 P2 2.553996 1_555
Cr0 Tc5 2.937203 1_555
Cr0 Tc4 2.937207 1_656
Cr0 Tc3 2.937210 1_656
Cr0 Tc2 2.937210 1_555
Tc0 Tc2 2.902443 1_544
Tc0 Tc5 2.902448 1_544
Tc1 Tc4 2.902443 1_545
Tc1 Tc3 2.902450 1_545
Tc2 Tc5 2.768868 1_555
Tc2 Tc4 3.005493 1_555
Tc3 Tc4 2.768868 1_555
Tc3 Tc5 3.005493 1_555
P0 Tc1 2.405009 1_555
P0 Tc4 2.476307 1_556
P0 Tc5 2.528259 1_555
P0 Ta1 2.587423 1_565
P0 Ta3 2.603586 1_556
P0 Ta0 2.652239 1_555
P0 Ta4 2.658893 1_556
P0 Ta2 2.746131 1_555
P1 Tc0 2.405007 1_555
P1 Tc5 2.476297 1_555
P1 Tc4 2.528268 1_545
P1 Ta0 2.587433 1_555
P1 Ta2 2.603583 1_555
P1 Ta1 2.652236 1_554
P1 Ta4 2.658881 1_555
P1 Ta3 2.746126 1_545
P2 Tc0 2.405007 1_555
P2 Tc2 2.476302 1_555
P2 Tc3 2.528253 1_655
P2 Ta1 2.587427 1_665
P2 Ta3 2.603591 1_555
P2 Ta0 2.652234 1_554
P2 Ta4 2.658888 1_555
P2 Ta2 2.746136 1_655
P3 Tc1 2.405000 1_555
P3 Tc3 2.476301 1_556
P3 Tc2 2.528264 1_445
P3 Ta0 2.587428 1_455
P3 Ta2 2.603588 1_556
P3 Ta1 2.652241 1_555
P3 Ta4 2.658885 1_556
P3 Ta3 2.746130 1_445
P4 Tc0 2.346994 1_556
P4 Tc1 2.346999 1_555
P4 Tc4 2.409977 1_545
P4 Tc2 2.409980 1_545
P4 Tc3 2.409980 1_545
P4 Tc5 2.409981 1_545
P4 Ta1 2.569342 1_555
P4 Ta0 2.569342 1_555
P5 Tc0 2.404643 1_466
P5 Tc1 2.404643 1_566
P5 Tc4 2.509174 1_556
P5 Tc5 2.509176 1_455
P5 Tc2 2.509181 1_455
P5 Tc3 2.509181 1_556
P5 Ta3 2.661400 1_456
P5 Ta2 2.661407 1_566
