# generated using pymatgen
data_Y20Al6CoRu
_symmetry_space_group_name_H-M   'P 1'
_cell_length_a   9.60588709
_cell_length_b   9.60588758
_cell_length_c   9.59498161
_cell_angle_alpha   90.00000000
_cell_angle_beta   90.00000000
_cell_angle_gamma   120.00000181
_symmetry_Int_Tables_number   1
_chemical_formula_structural   Y20Al6CoRu
_chemical_formula_sum   'Y20 Al6 Co1 Ru1'
_cell_volume   766.74287267
_cell_formula_units_Z   1
loop_
 _symmetry_equiv_pos_site_id
 _symmetry_equiv_pos_as_xyz
  1  'x, y, z'
loop_
 _atom_site_type_symbol
 _atom_site_label
 _atom_site_symmetry_multiplicity
 _atom_site_fract_x
 _atom_site_fract_y
 _atom_site_fract_z
 _atom_site_occupancy
  Y  Y0  1  0.00000000  0.00000000  0.49861319  1
  Y  Y1  1  0.00000000  0.00000000  0.00138681  1
  Y  Y2  1  0.20920208  0.79079792  0.43626539  1
  Y  Y3  1  0.20920208  0.41840416  0.43626539  1
  Y  Y4  1  0.58159584  0.79079792  0.43626539  1
  Y  Y5  1  0.79198452  0.20801548  0.56025464  1
  Y  Y6  1  0.79198452  0.58396905  0.56025464  1
  Y  Y7  1  0.41603095  0.20801548  0.56025464  1
  Y  Y8  1  0.79198452  0.20801548  0.93974536  1
  Y  Y9  1  0.79198452  0.58396905  0.93974536  1
  Y  Y10  1  0.41603095  0.20801548  0.93974536  1
  Y  Y11  1  0.20920208  0.79079792  0.06373461  1
  Y  Y12  1  0.20920208  0.41840416  0.06373461  1
  Y  Y13  1  0.58159584  0.79079792  0.06373461  1
  Y  Y14  1  0.54218686  0.45781314  0.25000000  1
  Y  Y15  1  0.54218686  0.08437373  0.25000000  1
  Y  Y16  1  0.91562627  0.45781314  0.25000000  1
  Y  Y17  1  0.45919074  0.54080926  0.75000000  1
  Y  Y18  1  0.45919074  0.91838349  0.75000000  1
  Y  Y19  1  0.08161651  0.54080926  0.75000000  1
  Al  Al0  1  0.88642765  0.11357235  0.25000000  1
  Al  Al1  1  0.88642765  0.77285630  0.25000000  1
  Al  Al2  1  0.22714370  0.11357235  0.25000000  1
  Al  Al3  1  0.11232192  0.88767808  0.75000000  1
  Al  Al4  1  0.11232192  0.22464385  0.75000000  1
  Al  Al5  1  0.77535615  0.88767808  0.75000000  1
  Co  Co0  1  0.33333300  0.66666700  0.25000000  1
  Ru  Ru0  1  0.66666700  0.33333300  0.75000000  1
loop_
_geom_bond_atom_site_label_1
_geom_bond_atom_site_label_2
_geom_bond_distance
_geom_bond_site_symmetry_2
Y10 Y14 3.630469 1_556
Y10 Y15 3.630469 1_556
Y11 Y15 3.515353 1_565
Y11 Y16 3.515353 1_455
Y12 Y14 3.515353 1_555
Y12 Y16 3.515353 1_455
Y13 Y14 3.515353 1_555
Y13 Y15 3.515353 1_565
Y14 Y3 3.515353 1_555
Y14 Y4 3.515353 1_555
Y14 Y16 3.587217 1_555
Y14 Y15 3.587217 1_555
Y14 Y9 3.630469 1_554
Y14 Y6 3.630469 1_555
Y14 Y7 3.630469 1_555
Y15 Y2 3.515353 1_545
Y15 Y4 3.515353 1_545
Y15 Y16 3.587217 1_555
Y15 Y8 3.630469 1_554
Y15 Y5 3.630469 1_555
Y15 Y7 3.630469 1_555
Y16 Y2 3.515353 1_655
Y16 Y3 3.515353 1_655
Y16 Y8 3.630469 1_554
Y16 Y5 3.630469 1_555
Y16 Y9 3.630469 1_554
Y16 Y6 3.630469 1_555
Al0 Y0 3.043176 1_655
Al0 Y1 3.043176 1_655
Al0 Y15 3.175802 1_555
Al0 Y16 3.175802 1_555
Al0 Y8 3.366148 1_554
Al0 Y5 3.366148 1_555
Al0 Y3 3.507529 1_655
Al0 Y12 3.507529 1_655
Al0 Y4 3.507529 1_545
Al0 Y13 3.507529 1_545
Al1 Y0 3.043171 1_665
Al1 Y1 3.043171 1_665
Al1 Y14 3.175806 1_555
Al1 Y16 3.175811 1_555
Al1 Y9 3.366151 1_554
Al1 Y6 3.366151 1_555
Al1 Y4 3.507525 1_555
Al1 Y13 3.507525 1_555
Al1 Y2 3.507533 1_655
Al1 Y11 3.507533 1_655
Al2 Y0 3.043171 1_555
Al2 Y1 3.043171 1_555
Al2 Y14 3.175806 1_555
Al2 Y15 3.175811 1_555
Al2 Y10 3.366151 1_554
Al2 Y7 3.366151 1_555
Al2 Y3 3.507525 1_555
Al2 Y12 3.507525 1_555
Al2 Y2 3.507533 1_545
Al2 Y11 3.507533 1_545
Al3 Y1 3.051296 1_566
Al3 Y0 3.051296 1_565
Al3 Y18 3.194734 1_555
Al3 Y19 3.194735 1_555
Al3 Y11 3.414664 1_556
Al3 Y2 3.414664 1_555
Al3 Y6 3.509601 1_455
Al3 Y9 3.509601 1_455
Al3 Y7 3.509601 1_565
Al3 Y10 3.509601 1_565
Al4 Y1 3.051296 1_556
Al4 Y0 3.051296 1_555
Al4 Y17 3.194743 1_555
Al4 Y19 3.194754 1_555
Al4 Y12 3.414664 1_556
Al4 Y3 3.414664 1_555
Al4 Y5 3.509601 1_455
Al4 Y8 3.509601 1_455
Al4 Y7 3.509601 1_555
Al4 Y10 3.509601 1_555
Al5 Y1 3.051296 1_666
Al5 Y0 3.051296 1_665
Al5 Y17 3.194743 1_555
Al5 Y18 3.194754 1_555
Al5 Y13 3.414664 1_556
Al5 Y4 3.414664 1_555
Al5 Y5 3.509601 1_565
Al5 Y8 3.509601 1_565
Al5 Y6 3.509601 1_555
Al5 Y9 3.509601 1_555
Co0 Y2 2.731208 1_555
Co0 Y11 2.731208 1_555
Co0 Y4 2.731214 1_555
Co0 Y13 2.731214 1_555
Co0 Y3 2.731214 1_555
Co0 Y12 2.731214 1_555
Co0 Y16 3.474878 1_455
Co0 Y15 3.474878 1_565
Co0 Y14 3.474887 1_555
Ru0 Y5 2.768013 1_555
Ru0 Y8 2.768013 1_555
Ru0 Y7 2.768020 1_555
Ru0 Y10 2.768020 1_555
Ru0 Y6 2.768020 1_555
Ru0 Y9 2.768020 1_555
Ru0 Y19 3.451941 1_655
Ru0 Y18 3.451941 1_545
Ru0 Y17 3.451966 1_555
