# generated using pymatgen
data_MgAl2O4
_symmetry_space_group_name_H-M   'P 1'
_cell_length_a   5.77365260
_cell_length_b   5.77365260
_cell_length_c   14.15949100
_cell_angle_alpha   90.00000000
_cell_angle_beta   90.00000000
_cell_angle_gamma   120.00000690
_symmetry_Int_Tables_number   1
_chemical_formula_structural   MgAl2O4
_chemical_formula_sum   'Mg6 Al12 O24'
_cell_volume   408.77049541
_cell_formula_units_Z   6
loop_
 _symmetry_equiv_pos_site_id
 _symmetry_equiv_pos_as_xyz
  1  'x, y, z'
loop_
 _atom_site_type_symbol
 _atom_site_label
 _atom_site_symmetry_multiplicity
 _atom_site_fract_x
 _atom_site_fract_y
 _atom_site_fract_z
 _atom_site_occupancy
  Mg  Mg0  1  0.33333300  0.66666700  0.00396300  1
  Mg  Mg1  1  0.00000000  0.00000000  0.66645500  1
  Mg  Mg2  1  0.66666700  0.33333300  0.96151800  1
  Mg  Mg3  1  0.66666700  0.33333300  0.58432900  1
  Mg  Mg4  1  0.66666700  0.33333300  0.33453400  1
  Mg  Mg5  1  0.33333300  0.66666700  0.24632500  1
  Al  Al0  1  0.00000000  0.00000000  0.91415400  1
  Al  Al1  1  0.49763300  0.99526600  0.79082200  1
  Al  Al2  1  0.49763300  0.50236700  0.79082200  1
  Al  Al3  1  0.16644900  0.33289800  0.45750500  1
  Al  Al4  1  0.00473400  0.50236700  0.79082200  1
  Al  Al5  1  0.33333300  0.66666700  0.62308300  1
  Al  Al6  1  0.16644900  0.83355100  0.45750500  1
  Al  Al7  1  0.83055800  0.66111700  0.12579300  1
  Al  Al8  1  0.66710200  0.83355100  0.45750500  1
  Al  Al9  1  0.83055800  0.16944200  0.12579300  1
  Al  Al10  1  0.00000000  0.00000000  0.29089300  1
  Al  Al11  1  0.33888300  0.16944200  0.12579300  1
  O  O0  1  0.34047200  0.17023600  0.86689400  1
  O  O1  1  0.82976400  0.17023600  0.86689400  1
  O  O2  1  0.66666700  0.33333300  0.72606200  1
  O  O3  1  0.82976400  0.65952800  0.86689400  1
  O  O4  1  0.03596100  0.51798000  0.53709900  1
  O  O5  1  0.18582600  0.37165300  0.71156500  1
  O  O6  1  0.48202000  0.51798000  0.53709900  1
  O  O7  1  0.18582600  0.81417400  0.71156500  1
  O  O8  1  0.33333300  0.66666700  0.38758400  1
  O  O9  1  0.33333300  0.66666700  0.86217100  1
  O  O10  1  0.48202000  0.96403900  0.53709900  1
  O  O11  1  0.62834700  0.81417400  0.71156500  1
  O  O12  1  0.70830200  0.85415100  0.20308500  1
  O  O13  1  0.85169000  0.70338000  0.37994600  1
  O  O14  1  0.14584900  0.85415100  0.20308500  1
  O  O15  1  0.85169000  0.14831000  0.37994600  1
  O  O16  1  0.00000000  0.00000000  0.04307400  1
  O  O17  1  0.00000000  0.00000000  0.52832100  1
  O  O18  1  0.14584900  0.29169800  0.20308500  1
  O  O19  1  0.29662000  0.14831000  0.37994600  1
  O  O20  1  0.51285000  0.02570000  0.05384800  1
  O  O21  1  0.51285000  0.48715000  0.05384800  1
  O  O22  1  0.66666700  0.33333300  0.19798000  1
  O  O23  1  0.97430000  0.48715000  0.05384800  1
loop_
_geom_bond_atom_site_label_1
_geom_bond_atom_site_label_2
_geom_bond_distance
_geom_bond_site_symmetry_2
Mg0 O23 1.929173 1_455
Mg0 O20 1.929173 1_565
Mg0 O21 1.929178 1_555
Mg0 O9 2.007703 1_554
Mg1 O17 1.955907 1_555
Mg1 O7 1.965017 1_545
Mg1 O5 1.965022 1_555
Mg1 O11 1.965022 1_445
Mg2 O23 2.018719 1_556
Mg2 O20 2.018719 1_556
Mg2 O21 2.018723 1_556
Mg2 O1 2.110768 1_555
Mg2 O0 2.110771 1_555
Mg2 O3 2.110771 1_555
Mg3 O4 1.963889 1_655
Mg3 O10 1.963889 1_545
Mg3 O6 1.963889 1_555
Mg3 O2 2.006867 1_555
Mg4 O22 1.933535 1_555
Mg4 O15 1.958824 1_555
Mg4 O19 1.958829 1_555
Mg4 O13 1.958829 1_555
Mg5 O14 1.972325 1_555
Mg5 O12 1.972330 1_555
Mg5 O18 1.972330 1_555
Mg5 O8 2.000156 1_555
Al0 O16 1.825442 1_556
Al0 O3 1.829202 1_445
Al0 O0 1.829202 1_555
Al0 O1 1.829202 1_455
Al1 O2 1.923074 1_565
Al1 O11 1.926466 1_555
Al1 O7 1.926470 1_555
Al1 O9 1.928784 1_555
Al1 O1 1.980099 1_565
Al1 O0 1.980099 1_565
Al2 O2 1.923078 1_555
Al2 O11 1.926470 1_555
Al2 O5 1.926470 1_555
Al2 O9 1.928789 1_555
Al2 O3 1.980099 1_555
Al2 O0 1.980099 1_555
Al3 O15 1.925531 1_455
Al3 O19 1.925532 1_555
Al3 O8 1.940458 1_555
Al3 O17 1.943223 1_555
Al3 O4 1.945439 1_555
Al3 O6 1.945442 1_555
Al4 O2 1.923074 1_455
Al4 O5 1.926466 1_555
Al4 O7 1.926470 1_555
Al4 O9 1.928784 1_555
Al4 O1 1.980099 1_455
Al4 O3 1.980099 1_455
Al5 O4 1.921757 1_555
Al5 O10 1.921757 1_555
Al5 O6 1.921764 1_555
Al5 O11 1.935356 1_555
Al5 O5 1.935356 1_555
Al5 O7 1.935356 1_555
Al6 O19 1.925531 1_565
Al6 O13 1.925531 1_455
Al6 O8 1.940454 1_555
Al6 O17 1.943223 1_565
Al6 O10 1.945443 1_555
Al6 O4 1.945443 1_555
Al7 O21 1.889170 1_555
Al7 O23 1.889174 1_555
Al7 O12 1.929979 1_555
Al7 O14 1.929982 1_655
Al7 O22 1.931567 1_555
Al7 O16 2.059864 1_665
Al8 O15 1.925531 1_565
Al8 O13 1.925532 1_555
Al8 O8 1.940458 1_555
Al8 O17 1.943223 1_665
Al8 O10 1.945439 1_555
Al8 O6 1.945442 1_555
Al9 O23 1.889170 1_555
Al9 O20 1.889170 1_555
Al9 O12 1.929983 1_545
Al9 O18 1.929983 1_655
Al9 O22 1.931558 1_555
Al9 O16 2.059868 1_655
Al10 O18 1.916544 1_555
Al10 O12 1.916544 1_445
Al10 O14 1.916544 1_545
Al10 O13 1.946711 1_445
Al10 O19 1.946711 1_555
Al10 O15 1.946711 1_455
Al11 O21 1.889170 1_555
Al11 O20 1.889174 1_555
Al11 O18 1.929979 1_555
Al11 O14 1.929982 1_545
Al11 O22 1.931567 1_555
Al11 O16 2.059864 1_555
