# generated using pymatgen
data_SrCa3Bi2
_symmetry_space_group_name_H-M   'P 1'
_cell_length_a   9.32473054
_cell_length_b   9.32473102
_cell_length_c   9.32473030
_cell_angle_alpha   149.39813078
_cell_angle_beta   149.39813465
_cell_angle_gamma   43.82560247
_symmetry_Int_Tables_number   1
_chemical_formula_structural   SrCa3Bi2
_chemical_formula_sum   'Sr1 Ca3 Bi2'
_cell_volume   209.52845129
_cell_formula_units_Z   1
loop_
 _symmetry_equiv_pos_site_id
 _symmetry_equiv_pos_as_xyz
  1  'x, y, z'
loop_
 _atom_site_type_symbol
 _atom_site_label
 _atom_site_symmetry_multiplicity
 _atom_site_fract_x
 _atom_site_fract_y
 _atom_site_fract_z
 _atom_site_occupancy
  Sr  Sr0  1  0.67452935  0.67452935  0.00000000  1
  Ca  Ca0  1  0.99819401  0.49819401  0.50000000  1
  Ca  Ca1  1  0.32791749  0.32791749  0.00000000  1
  Ca  Ca2  1  0.49819401  0.99819401  0.50000000  1
  Bi  Bi0  1  0.13431928  0.13431928  0.00000000  1
  Bi  Bi1  1  0.86684685  0.86684685  0.00000000  1
loop_
_geom_bond_atom_site_label_1
_geom_bond_atom_site_label_2
_geom_bond_distance
_geom_bond_site_symmetry_2
Bi0 Ca1 3.349654 1_555
Bi0 Ca2 3.406202 1_545
Bi0 Ca0 3.406202 1_455
Bi0 Ca2 3.406202 1_444
Bi0 Ca0 3.406203 1_444
Bi0 Sr0 3.548807 1_444
Bi0 Sr0 3.548807 1_556
Bi0 Sr0 3.548807 1_545
Bi0 Sr0 3.548807 1_455
Bi1 Sr0 3.327495 1_555
Bi1 Ca2 3.349571 1_554
Bi1 Ca0 3.349571 1_554
Bi1 Ca2 3.349571 1_655
Bi1 Ca0 3.349571 1_565
Bi1 Ca1 3.544529 1_666
Bi1 Ca1 3.544529 1_554
Bi1 Ca1 3.544529 1_565
Bi1 Ca1 3.544530 1_655
