# generated using pymatgen
data_K2LiScAs2
_symmetry_space_group_name_H-M   'P 1'
_cell_length_a   8.81199885
_cell_length_b   8.81199958
_cell_length_c   8.81199970
_cell_angle_alpha   135.53671465
_cell_angle_beta   136.06191794
_cell_angle_gamma   64.29170584
_symmetry_Int_Tables_number   1
_chemical_formula_structural   K2LiScAs2
_chemical_formula_sum   'K4 Li2 Sc2 As4'
_cell_volume   328.02075014
_cell_formula_units_Z   2
loop_
 _symmetry_equiv_pos_site_id
 _symmetry_equiv_pos_as_xyz
  1  'x, y, z'
loop_
 _atom_site_type_symbol
 _atom_site_label
 _atom_site_symmetry_multiplicity
 _atom_site_fract_x
 _atom_site_fract_y
 _atom_site_fract_z
 _atom_site_occupancy
  K  K0  1  0.10788435  0.82213299  0.28575137  1
  K  K1  1  0.89211565  0.17786701  0.71424863  1
  K  K2  1  0.46361938  0.67786701  0.78575137  1
  K  K3  1  0.53638062  0.32213299  0.21424863  1
  Li  Li0  1  0.50000000  0.25000000  0.75000000  1
  Li  Li1  1  0.50000000  0.75000000  0.25000000  1
  Sc  Sc0  1  0.00000000  0.25000000  0.25000000  1
  Sc  Sc1  1  0.00000000  0.75000000  0.75000000  1
  As  As0  1  0.67278325  0.90813516  0.76464709  1
  As  As1  1  0.14348807  0.40813516  0.73535291  1
  As  As2  1  0.85651193  0.59186484  0.26464709  1
  As  As3  1  0.32721675  0.09186484  0.23535291  1
loop_
_geom_bond_atom_site_label_1
_geom_bond_atom_site_label_2
_geom_bond_distance
_geom_bond_site_symmetry_2
K0 Li1 3.437870 1_555
K0 Li0 3.437870 1_565
K0 Sc0 3.656923 1_565
K0 Sc1 3.656923 1_554
K1 Li0 3.437870 1_555
K1 Li1 3.437870 1_545
K1 Sc1 3.656923 1_645
K1 Sc0 3.656923 1_656
K2 Li0 3.437873 1_555
K2 Li1 3.437876 1_556
K2 Sc0 3.656929 1_555
K2 Sc1 3.656932 1_555
K3 Li1 3.437873 1_555
K3 Li0 3.437876 1_554
K3 Sc1 3.656929 1_655
K3 Sc0 3.656932 1_655
As0 Sc1 2.658186 1_655
As0 Sc0 2.658191 1_666
As0 Li1 2.775374 1_555
As0 Li0 2.775377 1_565
As0 K0 3.408318 1_555
As0 K2 3.438918 1_555
As0 K3 3.587922 1_555
As0 K3 3.587934 1_566
As0 K0 3.667619 1_656
As1 Sc1 2.658194 1_555
As1 Sc0 2.658195 1_555
As1 Li0 2.775377 1_555
As1 Li1 2.775377 1_556
As1 K3 3.408312 1_556
As1 K1 3.438918 1_455
As1 K0 3.587922 1_545
As1 K0 3.587922 1_556
As1 K3 3.667625 1_455
As2 Sc0 2.658194 1_655
As2 Sc1 2.658195 1_655
As2 Li1 2.775377 1_555
As2 Li0 2.775377 1_554
As2 K2 3.408312 1_554
As2 K0 3.438918 1_655
As2 K1 3.587922 1_565
As2 K1 3.587922 1_554
As2 K2 3.667625 1_655
As3 Sc0 2.658186 1_555
As3 Sc1 2.658191 1_544
As3 Li0 2.775374 1_555
As3 Li1 2.775377 1_545
As3 K1 3.408318 1_555
As3 K3 3.438918 1_555
As3 K2 3.587922 1_555
As3 K2 3.587934 1_544
As3 K1 3.667619 1_454
