# generated using pymatgen
data_Zr6Zn19AsPt4
_symmetry_space_group_name_H-M   'P 1'
_cell_length_a   8.72922669
_cell_length_b   8.72922924
_cell_length_c   8.72923033
_cell_angle_alpha   59.98420242
_cell_angle_beta   59.98421171
_cell_angle_gamma   59.98423759
_symmetry_Int_Tables_number   1
_chemical_formula_structural   Zr6Zn19AsPt4
_chemical_formula_sum   'Zr6 Zn19 As1 Pt4'
_cell_volume   470.17244919
_cell_formula_units_Z   1
loop_
 _symmetry_equiv_pos_site_id
 _symmetry_equiv_pos_as_xyz
  1  'x, y, z'
loop_
 _atom_site_type_symbol
 _atom_site_label
 _atom_site_symmetry_multiplicity
 _atom_site_fract_x
 _atom_site_fract_y
 _atom_site_fract_z
 _atom_site_occupancy
  Zr  Zr0  1  0.70958430  0.28722365  0.28722465  1
  Zr  Zr1  1  0.29041570  0.71277635  0.71277535  1
  Zr  Zr2  1  0.28722365  0.70958330  0.28722565  1
  Zr  Zr3  1  0.71277635  0.29041670  0.71277435  1
  Zr  Zr4  1  0.28722365  0.28722465  0.70958330  1
  Zr  Zr5  1  0.71277635  0.71277535  0.29041670  1
  Zn  Zn0  1  0.12187661  0.12187661  0.12187661  1
  Zn  Zn1  1  0.87812339  0.87812339  0.87812339  1
  Zn  Zn2  1  0.12366192  0.12366192  0.63082484  1
  Zn  Zn3  1  0.12366292  0.63082484  0.12366192  1
  Zn  Zn4  1  0.87633808  0.87633808  0.36917516  1
  Zn  Zn5  1  0.87633708  0.36917516  0.87633808  1
  Zn  Zn6  1  0.63082484  0.12366292  0.12366192  1
  Zn  Zn7  1  0.36917516  0.87633708  0.87633808  1
  Zn  Zn8  1  0.50000000  0.00000000  0.00000000  1
  Zn  Zn9  1  0.00000000  0.50000000  0.00000000  1
  Zn  Zn10  1  0.00000000  0.00000000  0.50000000  1
  Zn  Zn11  1  0.33613573  0.33613573  0.33613473  1
  Zn  Zn12  1  0.66386427  0.66386427  0.66386527  1
  Zn  Zn13  1  0.33501466  0.33501466  0.98992241  1
  Zn  Zn14  1  0.33501466  0.98992341  0.33501466  1
  Zn  Zn15  1  0.66498534  0.66498534  0.01007759  1
  Zn  Zn16  1  0.66498534  0.01007659  0.66498534  1
  Zn  Zn17  1  0.98992341  0.33501466  0.33501466  1
  Zn  Zn18  1  0.01007659  0.66498534  0.66498534  1
  As  As0  1  0.50000000  0.50000000  0.50000000  1
  Pt  Pt0  1  0.00000000  0.50000000  0.50000000  1
  Pt  Pt1  1  0.50000000  0.00000000  0.50000000  1
  Pt  Pt2  1  0.50000000  0.50000000  0.00000000  1
  Pt  Pt3  1  0.00000000  0.00000000  0.00000000  1
loop_
_geom_bond_atom_site_label_1
_geom_bond_atom_site_label_2
_geom_bond_distance
_geom_bond_site_symmetry_2
Zn0 Zn8 2.695245 1_555
Zn0 Zn10 2.695245 1_555
Zn0 Zn9 2.695246 1_555
Zn1 Zn8 2.695245 1_566
Zn1 Zn10 2.695245 1_665
Zn1 Zn9 2.695246 1_656
Zn3 Zn9 2.695782 1_555
Zn5 Zn9 2.695782 1_656
Zn6 Zn8 2.695782 1_555
Zn7 Zn8 2.695782 1_566
Zn8 Zr3 3.139350 1_554
Zn8 Zr2 3.139350 1_545
Zn8 Zr5 3.139351 1_545
Zn8 Zr4 3.139351 1_554
Zn9 Zr1 3.139343 1_554
Zn9 Zr0 3.139343 1_455
Zn9 Zr5 3.139345 1_455
Zn9 Zr4 3.139345 1_554
Zn10 Zn14 2.507941 1_545
Zn10 Zn16 2.507941 1_455
Zn10 Zn17 2.507941 1_455
Zn10 Zn18 2.507941 1_545
Zn10 Zn2 2.695774 1_555
Zn10 Zn4 2.695774 1_445
Zn10 Zr1 3.139339 1_545
Zn10 Zr0 3.139339 1_455
Zn10 Zr3 3.139340 1_455
Zn10 Zr2 3.139340 1_545
Zn13 Zn9 2.507939 1_556
Zn13 Zn8 2.507940 1_556
Zn14 Zn8 2.507941 1_565
Zn15 Zn9 2.507939 1_655
Zn15 Zn8 2.507940 1_565
Zn16 Zn8 2.507941 1_556
Zn17 Zn9 2.507941 1_655
Zn18 Zn9 2.507941 1_556
As0 Zr3 2.626554 1_555
As0 Zr2 2.626554 1_555
As0 Zr5 2.626559 1_555
As0 Zr4 2.626559 1_555
As0 Zr1 2.626561 1_555
As0 Zr0 2.626561 1_555
Pt0 Zn11 2.520025 1_555
Pt0 Zn12 2.520025 1_455
Pt0 Zn18 2.546506 1_555
Pt0 Zn17 2.546506 1_455
Pt0 Zn5 2.682087 1_455
Pt0 Zn3 2.682087 1_555
Pt0 Zn4 2.682087 1_455
Pt0 Zn2 2.682087 1_555
Pt0 Zr2 3.100575 1_555
Pt0 Zr3 3.100575 1_455
Pt0 Zr4 3.100575 1_555
Pt0 Zr5 3.100575 1_455
Pt1 Zn11 2.520025 1_555
Pt1 Zn12 2.520025 1_545
Pt1 Zn16 2.546506 1_555
Pt1 Zn14 2.546506 1_545
Pt1 Zn4 2.682087 1_545
Pt1 Zn2 2.682087 1_555
Pt1 Zn7 2.682087 1_545
Pt1 Zn6 2.682087 1_555
Pt1 Zr0 3.100580 1_555
Pt1 Zr1 3.100580 1_545
Pt1 Zr4 3.100582 1_555
Pt1 Zr5 3.100582 1_545
Pt2 Zn11 2.520017 1_555
Pt2 Zn12 2.520017 1_554
Pt2 Zn13 2.546511 1_554
Pt2 Zn15 2.546511 1_555
Pt2 Zn5 2.682080 1_554
Pt2 Zn3 2.682080 1_555
Pt2 Zn7 2.682080 1_554
Pt2 Zn6 2.682080 1_555
Pt2 Zr0 3.100588 1_555
Pt2 Zr1 3.100588 1_554
Pt2 Zr2 3.100589 1_555
Pt2 Zr3 3.100589 1_554
Pt3 Zn0 2.606295 1_555
Pt3 Zn1 2.606295 1_444
Pt3 Zn7 2.630744 1_544
Pt3 Zn6 2.630744 1_455
Pt3 Zn4 2.630744 1_445
Pt3 Zn2 2.630744 1_554
Pt3 Zn5 2.630745 1_454
Pt3 Zn3 2.630745 1_545
