# generated using pymatgen
data_Be8Mo3Os
_symmetry_space_group_name_H-M   'P 1'
_cell_length_a   4.40709392
_cell_length_b   4.40709433
_cell_length_c   7.22132570
_cell_angle_alpha   90.00000000
_cell_angle_beta   90.00000000
_cell_angle_gamma   120.00000442
_symmetry_Int_Tables_number   1
_chemical_formula_structural   Be8Mo3Os
_chemical_formula_sum   'Be8 Mo3 Os1'
_cell_volume   121.46529169
_cell_formula_units_Z   1
loop_
 _symmetry_equiv_pos_site_id
 _symmetry_equiv_pos_as_xyz
  1  'x, y, z'
loop_
 _atom_site_type_symbol
 _atom_site_label
 _atom_site_symmetry_multiplicity
 _atom_site_fract_x
 _atom_site_fract_y
 _atom_site_fract_z
 _atom_site_occupancy
  Be  Be0  1  0.00000000  0.00000000  0.50036500  1
  Be  Be1  1  0.00000000  0.00000000  0.00361909  1
  Be  Be2  1  0.83051441  0.16948559  0.25237515  1
  Be  Be3  1  0.83051441  0.66102782  0.25237515  1
  Be  Be4  1  0.33897218  0.16948559  0.25237515  1
  Be  Be5  1  0.16923849  0.83076151  0.74773352  1
  Be  Be6  1  0.16923849  0.33847698  0.74773352  1
  Be  Be7  1  0.66152302  0.83076151  0.74773352  1
  Mo  Mo0  1  0.66666700  0.33333300  0.56150664  1
  Mo  Mo1  1  0.66666700  0.33333300  0.93537563  1
  Mo  Mo2  1  0.33333300  0.66666700  0.06325532  1
  Os  Os0  1  0.33333300  0.66666700  0.43555330  1
loop_
_geom_bond_atom_site_label_1
_geom_bond_atom_site_label_2
_geom_bond_distance
_geom_bond_site_symmetry_2
Be0 Be7 2.204506 1_445
Be0 Be6 2.204506 1_555
Be0 Be5 2.204506 1_545
Be0 Be2 2.209247 1_455
Be0 Be4 2.209249 1_555
Be0 Be3 2.209250 1_445
Be0 Mo0 2.582458 1_455
Be0 Mo0 2.582462 1_555
Be0 Mo0 2.582462 1_445
Be0 Os0 2.587121 1_545
Be0 Os0 2.587125 1_445
Be0 Os0 2.587125 1_555
Be1 Be2 2.213735 1_455
Be1 Be4 2.213737 1_555
Be1 Be3 2.213737 1_445
Be1 Be7 2.254631 1_444
Be1 Be6 2.254632 1_554
Be1 Be5 2.254632 1_544
Be1 Mo2 2.580622 1_545
Be1 Mo2 2.580625 1_445
Be1 Mo2 2.580625 1_555
Be1 Mo1 2.591719 1_454
Be1 Mo1 2.591722 1_554
Be1 Mo1 2.591723 1_444
Be2 Be4 2.166273 1_555
Be2 Be3 2.166273 1_555
Be2 Be4 2.240821 1_655
Be2 Be3 2.240821 1_545
Be2 Mo0 2.558825 1_555
Be2 Os0 2.570185 1_655
Be2 Os0 2.570185 1_545
Be2 Mo2 2.592529 1_655
Be2 Mo2 2.592529 1_545
Be2 Mo1 2.608541 1_554
Be3 Be4 2.166273 1_555
Be3 Be4 2.240821 1_665
Be3 Mo0 2.558825 1_555
Be3 Os0 2.570182 1_655
Be3 Os0 2.570189 1_555
Be3 Mo2 2.592525 1_655
Be3 Mo2 2.592533 1_555
Be3 Mo1 2.608541 1_554
Be4 Mo0 2.558825 1_555
Be4 Os0 2.570182 1_545
Be4 Os0 2.570189 1_555
Be4 Mo2 2.592526 1_545
Be4 Mo2 2.592533 1_555
Be4 Mo1 2.608541 1_554
Be5 Be7 2.169544 1_555
Be5 Be6 2.169544 1_555
Be5 Be7 2.237550 1_455
Be5 Be6 2.237550 1_565
Be5 Os0 2.578970 1_555
Be5 Mo0 2.581570 1_455
Be5 Mo0 2.581570 1_565
Be5 Mo1 2.586909 1_455
Be5 Mo1 2.586909 1_565
Be5 Mo2 2.600089 1_556
Be6 Be7 2.169544 1_555
Be6 Be7 2.237550 1_445
Be6 Os0 2.578972 1_555
Be6 Mo0 2.581568 1_455
Be6 Mo0 2.581572 1_555
Be6 Mo1 2.586907 1_455
Be6 Mo1 2.586911 1_555
Be6 Mo2 2.600091 1_556
Be7 Os0 2.578971 1_555
Be7 Mo0 2.581569 1_565
Be7 Mo0 2.581572 1_555
Be7 Mo1 2.586907 1_565
Be7 Mo1 2.586911 1_555
Be7 Mo2 2.600091 1_556
Mo0 Mo1 2.699830 1_555
Mo0 Os0 2.702115 1_655
Mo0 Os0 2.702115 1_545
Mo0 Os0 2.702123 1_555
Mo1 Mo2 2.706829 1_656
Mo1 Mo2 2.706830 1_546
Mo1 Mo2 2.706837 1_556
Mo2 Os0 2.688485 1_555
