# generated using pymatgen
data_Ca6Sc2(Al2Ir)7
_symmetry_space_group_name_H-M   'P 1'
_cell_length_a   8.98845561
_cell_length_b   9.01116891
_cell_length_c   9.01116812
_cell_angle_alpha   60.13087193
_cell_angle_beta   60.08333266
_cell_angle_gamma   60.08334224
_symmetry_Int_Tables_number   1
_chemical_formula_structural   Ca6Sc2(Al2Ir)7
_chemical_formula_sum   'Ca6 Sc2 Al14 Ir7'
_cell_volume   517.25774120
_cell_formula_units_Z   1
loop_
 _symmetry_equiv_pos_site_id
 _symmetry_equiv_pos_as_xyz
  1  'x, y, z'
loop_
 _atom_site_type_symbol
 _atom_site_label
 _atom_site_symmetry_multiplicity
 _atom_site_fract_x
 _atom_site_fract_y
 _atom_site_fract_z
 _atom_site_occupancy
  Ca  Ca0  1  0.70397460  0.70309628  0.29471333  1
  Ca  Ca1  1  0.29821680  0.70309628  0.29471333  1
  Ca  Ca2  1  0.70077686  0.29922314  0.29922314  1
  Ca  Ca3  1  0.29821680  0.29471333  0.70309628  1
  Ca  Ca4  1  0.70397460  0.29471333  0.70309628  1
  Ca  Ca5  1  0.29285438  0.70714562  0.70714562  1
  Sc  Sc0  1  0.88008993  0.88343996  0.35638117  1
  Sc  Sc1  1  0.88008993  0.35638117  0.88343996  1
  Al  Al0  1  0.35886868  0.88073162  0.88073162  1
  Al  Al1  1  0.87966809  0.88073162  0.88073162  1
  Al  Al2  1  0.12220511  0.11991500  0.63567477  1
  Al  Al3  1  0.12220511  0.63567477  0.11991500  1
  Al  Al4  1  0.63739914  0.11834518  0.11834518  1
  Al  Al5  1  0.12591050  0.11834518  0.11834518  1
  Al  Al6  1  0.67005026  0.67707313  0.98282435  1
  Al  Al7  1  0.67005026  0.98282435  0.67707313  1
  Al  Al8  1  0.98120162  0.67525244  0.67525244  1
  Al  Al9  1  0.66829150  0.67525244  0.67525244  1
  Al  Al10  1  0.32659509  0.32607108  0.02073973  1
  Al  Al11  1  0.32659509  0.02073973  0.32607108  1
  Al  Al12  1  0.02220346  0.32557067  0.32557067  1
  Al  Al13  1  0.32665620  0.32557067  0.32557067  1
  Ir  Ir0  1  0.00725393  0.99274607  0.99274607  1
  Ir  Ir1  1  0.00170379  0.99997886  0.50267935  1
  Ir  Ir2  1  0.49563800  0.99997886  0.50267935  1
  Ir  Ir3  1  0.00193009  0.49806991  0.49806991  1
  Ir  Ir4  1  0.49563800  0.50267935  0.99997886  1
  Ir  Ir5  1  0.00170379  0.50267935  0.99997886  1
  Ir  Ir6  1  0.50003837  0.99996163  0.99996163  1
loop_
_geom_bond_atom_site_label_1
_geom_bond_atom_site_label_2
_geom_bond_distance
_geom_bond_site_symmetry_2
Ca0 Sc0 3.130288 1_555
Ca0 Ir5 3.216228 1_654
Ca0 Ir6 3.234045 1_554
Ca0 Ir3 3.245232 1_655
Ca0 Ir2 3.266756 1_555
Ca0 Ca2 3.633641 1_555
Ca0 Ca1 3.647136 1_555
Ca0 Ca4 3.687285 1_555
Ca0 Ca5 3.710885 1_555
Ca1 Sc0 3.130288 1_455
Ca1 Ir4 3.216229 1_554
Ca1 Ir6 3.234040 1_554
Ca1 Ir3 3.245239 1_555
Ca1 Ir1 3.266757 1_555
Ca1 Ca2 3.633636 1_555
Ca1 Ca3 3.687285 1_555
Ca1 Ca5 3.710881 1_555
Ca2 Sc1 3.127801 1_554
Ca2 Sc0 3.127801 1_545
Ca2 Ir5 3.270452 1_654
Ca2 Ir2 3.270452 1_545
Ca2 Ir4 3.270452 1_554
Ca2 Ir1 3.270452 1_645
Ca2 Ca3 3.633636 1_555
Ca2 Ca4 3.633641 1_555
Ca3 Sc1 3.130288 1_455
Ca3 Ir2 3.216229 1_545
Ca3 Ir6 3.234040 1_545
Ca3 Ir3 3.245239 1_555
Ca3 Ir5 3.266756 1_555
Ca3 Ca4 3.647136 1_555
Ca3 Ca5 3.710882 1_555
Ca4 Sc1 3.130288 1_555
Ca4 Ir1 3.216228 1_645
Ca4 Ir6 3.234045 1_545
Ca4 Ir3 3.245232 1_655
Ca4 Ir4 3.266755 1_555
Ca4 Ca5 3.710886 1_555
Ca5 Ir5 3.207059 1_555
Ca5 Ir2 3.207059 1_555
Ca5 Ir4 3.207060 1_555
Ca5 Ir1 3.207060 1_555
Al0 Ir0 2.583979 1_555
Al0 Al9 2.780915 1_555
Al0 Ir2 2.786673 1_555
Al0 Ir4 2.786674 1_555
Al0 Ir6 2.790750 1_555
Al0 Al7 2.793319 1_555
Al0 Al6 2.793319 1_555
Al0 Al5 3.029183 1_566
Al0 Al3 3.068971 1_556
Al0 Al2 3.068971 1_565
Al0 Ca5 3.087767 1_555
Al0 Ca1 3.109649 1_556
Al0 Ca3 3.109649 1_565
Al1 Ir0 2.583979 1_655
Al1 Al8 2.780922 1_555
Al1 Ir1 2.786673 1_655
Al1 Ir5 2.786674 1_655
Al1 Ir6 2.790750 1_555
Al1 Al6 2.793334 1_555
Al1 Al7 2.793334 1_555
Al1 Al4 3.029183 1_566
Al1 Al2 3.068971 1_665
Al1 Al3 3.068971 1_656
Al1 Ca5 3.087767 1_655
Al1 Ca0 3.109647 1_556
Al1 Ca4 3.109648 1_565
Al2 Ir0 2.631755 1_545
Al2 Ir2 2.744087 1_545
Al2 Ir1 2.744088 1_545
Al2 Ir3 2.787833 1_555
Al2 Ca5 3.083978 1_545
Al2 Sc1 3.086705 1_455
Al2 Ca4 3.122614 1_455
Al2 Ca3 3.122622 1_555
Al3 Ir0 2.631755 1_554
Al3 Ir4 2.744087 1_554
Al3 Ir5 2.744088 1_554
Al3 Ir3 2.787832 1_555
Al3 Ca5 3.083978 1_554
Al3 Sc0 3.086705 1_455
Al3 Ca0 3.122614 1_455
Al3 Ca1 3.122622 1_555
Al4 Ir0 2.717247 1_644
Al4 Ir6 2.749813 1_544
Al4 Ir2 2.833753 1_545
Al4 Ir4 2.833754 1_554
Al4 Sc1 3.062542 1_554
Al4 Sc0 3.062543 1_545
Al4 Ca4 3.110838 1_554
Al4 Ca0 3.110839 1_545
Al4 Ca2 3.183754 1_555
Al5 Ir0 2.717248 1_544
Al5 Ir6 2.749813 1_544
Al5 Ir1 2.833753 1_545
Al5 Ir5 2.833754 1_554
Al5 Sc0 3.062536 1_445
Al5 Sc1 3.062536 1_454
Al5 Ca3 3.110840 1_554
Al5 Ca1 3.110840 1_545
Al5 Ca2 3.183753 1_455
Al6 Ir6 2.569421 1_555
Al6 Ir4 2.631516 1_555
Al6 Ir5 2.631532 1_655
Al6 Al7 2.760624 1_555
Al6 Al8 2.787730 1_555
Al6 Al9 2.787731 1_555
Al6 Sc1 2.857724 1_555
Al6 Ca1 3.103111 1_556
Al6 Ca0 3.103127 1_556
Al6 Ca2 3.158559 1_556
Al7 Ir6 2.569421 1_555
Al7 Ir2 2.631516 1_555
Al7 Ir1 2.631532 1_655
Al7 Al8 2.787731 1_555
Al7 Al9 2.787731 1_555
Al7 Sc0 2.857723 1_555
Al7 Ca3 3.103111 1_565
Al7 Ca4 3.103127 1_565
Al7 Ca2 3.158559 1_565
Al8 Ir5 2.595052 1_655
Al8 Ir1 2.595053 1_655
Al8 Ir3 2.660595 1_655
Al8 Al9 2.812579 1_555
Al8 Sc1 2.852514 1_555
Al8 Sc0 2.852514 1_555
Al8 Ca5 3.114595 1_655
Al8 Ca1 3.170310 1_655
Al8 Ca3 3.170310 1_655
Al9 Ir4 2.595046 1_555
Al9 Ir2 2.595047 1_555
Al9 Ir3 2.660605 1_655
Al9 Sc0 2.852527 1_555
Al9 Sc1 2.852527 1_555
Al9 Ca5 3.114577 1_555
Al9 Ca0 3.170299 1_555
Al9 Ca4 3.170300 1_555
Al10 Ir4 2.590039 1_554
Al10 Ir5 2.590046 1_554
Al10 Ir6 2.605411 1_544
Al10 Al12 2.744913 1_555
Al10 Al13 2.744914 1_555
Al10 Al11 2.756833 1_555
Al10 Al4 2.770714 1_555
Al10 Al5 2.770721 1_555
Al10 Al3 2.773170 1_555
Al10 Ca4 3.153359 1_554
Al10 Ca3 3.153359 1_554
Al10 Ca5 3.165432 1_554
Al11 Ir2 2.590039 1_545
Al11 Ir1 2.590046 1_545
Al11 Ir6 2.605411 1_544
Al11 Al12 2.744914 1_555
Al11 Al13 2.744914 1_555
Al11 Al4 2.770714 1_555
Al11 Al5 2.770721 1_555
Al11 Al2 2.773170 1_555
Al11 Ca0 3.153359 1_545
Al11 Ca1 3.153359 1_545
Al11 Ca5 3.165432 1_545
Al12 Ir3 2.589830 1_555
Al12 Ir5 2.602143 1_554
Al12 Ir1 2.602143 1_545
Al12 Al13 2.736560 1_555
Al12 Al3 2.781505 1_555
Al12 Al2 2.781505 1_555
Al12 Al5 2.800620 1_555
Al12 Ca2 3.143943 1_455
Al12 Ca4 3.158665 1_455
Al12 Ca0 3.158665 1_455
Al13 Ir3 2.589834 1_555
Al13 Ir4 2.602139 1_554
Al13 Ir2 2.602140 1_545
Al13 Al2 2.781509 1_555
Al13 Al3 2.781509 1_555
Al13 Al4 2.800617 1_555
Al13 Ca2 3.143934 1_555
Al13 Ca3 3.158665 1_555
Al13 Ca1 3.158666 1_555
Ir0 Sc0 2.680708 1_456
Ir0 Sc1 2.680709 1_465
Ir1 Sc0 2.827922 1_455
Ir2 Sc0 2.827929 1_555
Ir3 Sc1 2.841433 1_455
Ir3 Sc0 2.841434 1_455
Ir4 Sc1 2.827929 1_555
Ir5 Sc1 2.827922 1_455
