# generated using pymatgen
data_Hf3In2OF12
_symmetry_space_group_name_H-M   'P 1'
_cell_length_a   10.84347390
_cell_length_b   10.84347404
_cell_length_c   10.84347346
_cell_angle_alpha   41.24066991
_cell_angle_beta   41.24067011
_cell_angle_gamma   41.24066478
_symmetry_Int_Tables_number   1
_chemical_formula_structural   Hf3In2OF12
_chemical_formula_sum   'Hf6 In4 O2 F24'
_cell_volume   500.44628043
_cell_formula_units_Z   2
loop_
 _symmetry_equiv_pos_site_id
 _symmetry_equiv_pos_as_xyz
  1  'x, y, z'
loop_
 _atom_site_type_symbol
 _atom_site_label
 _atom_site_symmetry_multiplicity
 _atom_site_fract_x
 _atom_site_fract_y
 _atom_site_fract_z
 _atom_site_occupancy
  Hf  Hf0  1  0.57552461  0.57552461  0.02855448  1
  Hf  Hf1  1  0.02855448  0.57552461  0.57552461  1
  Hf  Hf2  1  0.57552461  0.02855448  0.57552461  1
  Hf  Hf3  1  0.42447539  0.97144552  0.42447539  1
  Hf  Hf4  1  0.97144552  0.42447539  0.42447539  1
  Hf  Hf5  1  0.42447539  0.42447539  0.97144552  1
  In  In0  1  0.00000000  0.00000000  0.00000000  1
  In  In1  1  0.50000000  0.50000000  0.50000000  1
  In  In2  1  0.14481890  0.14481890  0.14481890  1
  In  In3  1  0.85518110  0.85518110  0.85518110  1
  O  O0  1  0.71117756  0.71117756  0.71117756  1
  O  O1  1  0.28882244  0.28882244  0.28882244  1
  F  F0  1  0.70688509  0.70688509  0.37256713  1
  F  F1  1  0.37256713  0.70688509  0.70688509  1
  F  F2  1  0.70688509  0.37256713  0.70688509  1
  F  F3  1  0.29311491  0.62743287  0.29311491  1
  F  F4  1  0.29311491  0.29311491  0.62743287  1
  F  F5  1  0.62743287  0.29311491  0.29311491  1
  F  F6  1  0.90864834  0.90864834  0.40572026  1
  F  F7  1  0.40572026  0.90864834  0.90864834  1
  F  F8  1  0.64873971  0.35126029  0.00000000  1
  F  F9  1  0.35126029  1.00000000  0.64873971  1
  F  F10  1  0.00000000  0.64873971  0.35126029  1
  F  F11  1  0.35126029  0.64873971  0.00000000  1
  F  F12  1  0.64873971  0.00000000  0.35126029  1
  F  F13  1  1.00000000  0.35126029  0.64873971  1
  F  F14  1  0.92094695  0.34925463  0.34925463  1
  F  F15  1  0.34925463  0.34925463  0.92094695  1
  F  F16  1  0.34925463  0.92094695  0.34925463  1
  F  F17  1  0.65074537  0.07905305  0.65074537  1
  F  F18  1  0.07905305  0.65074537  0.65074537  1
  F  F19  1  0.65074537  0.65074537  0.07905305  1
  F  F20  1  0.59427974  0.09135166  0.09135166  1
  F  F21  1  0.09135166  0.09135166  0.59427974  1
  F  F22  1  0.09135166  0.59427974  0.09135166  1
  F  F23  1  0.90864834  0.40572026  0.90864834  1
loop_
_geom_bond_atom_site_label_1
_geom_bond_atom_site_label_2
_geom_bond_distance
_geom_bond_site_symmetry_2
Hf0 O0 2.049133 1_554
Hf1 O0 2.049133 1_455
Hf2 O0 2.049133 1_545
Hf3 O1 2.049133 1_565
Hf4 O1 2.049133 1_655
Hf5 O1 2.049133 1_556
F0 Hf4 2.132774 1_555
F0 Hf3 2.132774 1_555
F1 Hf5 2.132774 1_555
F1 Hf3 2.132774 1_555
F2 Hf5 2.132774 1_555
F2 Hf4 2.132774 1_555
F3 Hf0 2.132774 1_555
F3 Hf1 2.132774 1_555
F4 Hf1 2.132774 1_555
F4 Hf2 2.132774 1_555
F5 Hf0 2.132774 1_555
F5 Hf2 2.132774 1_555
F6 Hf2 2.159529 1_565
F6 Hf1 2.159529 1_655
F7 Hf0 2.159528 1_556
F7 Hf2 2.159529 1_565
F8 Hf5 2.121099 1_554
F8 Hf0 2.121099 1_555
F8 In0 2.682777 1_655
F9 Hf3 2.121099 1_555
F9 Hf2 2.121099 1_565
F9 In0 2.682777 1_566
F10 Hf1 2.121099 1_555
F10 Hf4 2.121099 1_455
F10 In0 2.682777 1_565
F11 Hf0 2.121099 1_555
F11 Hf5 2.121099 1_554
F11 In0 2.682777 1_565
F12 Hf2 2.121099 1_555
F12 Hf3 2.121099 1_545
F12 In0 2.682777 1_655
F13 Hf4 2.121099 1_555
F13 Hf1 2.121099 1_655
F13 In0 2.682777 1_656
F14 Hf4 1.993576 1_555
F14 In2 2.631672 1_655
F15 Hf5 1.993576 1_555
F15 In2 2.631672 1_556
F16 Hf3 1.993576 1_555
F16 In2 2.631672 1_565
F17 Hf2 1.993576 1_555
F17 In3 2.631672 1_545
F18 Hf1 1.993576 1_555
F18 In3 2.631672 1_455
F19 Hf0 1.993576 1_555
F19 In3 2.631672 1_554
F20 Hf5 2.159528 1_554
F20 Hf3 2.159529 1_545
F21 Hf3 2.159529 1_545
F21 Hf4 2.159529 1_455
F22 Hf5 2.159528 1_554
F22 Hf4 2.159529 1_455
F23 Hf0 2.159528 1_556
F23 Hf1 2.159529 1_655
