# generated using pymatgen
data_Hf12Ti4Mn3Os5
_symmetry_space_group_name_H-M   'P 1'
_cell_length_a   8.51833082
_cell_length_b   8.51833079
_cell_length_c   8.50452774
_cell_angle_alpha   59.94630521
_cell_angle_beta   59.94630424
_cell_angle_gamma   60.00000633
_symmetry_Int_Tables_number   1
_chemical_formula_structural   Hf12Ti4Mn3Os5
_chemical_formula_sum   'Hf12 Ti4 Mn3 Os5'
_cell_volume   436.00480513
_cell_formula_units_Z   1
loop_
 _symmetry_equiv_pos_site_id
 _symmetry_equiv_pos_as_xyz
  1  'x, y, z'
loop_
 _atom_site_type_symbol
 _atom_site_label
 _atom_site_symmetry_multiplicity
 _atom_site_fract_x
 _atom_site_fract_y
 _atom_site_fract_z
 _atom_site_occupancy
  Hf  Hf0  1  0.43041976  0.81992496  0.81923452  1
  Hf  Hf1  1  0.82028648  0.42894274  0.43048530  1
  Hf  Hf2  1  0.81992496  0.43041976  0.81923452  1
  Hf  Hf3  1  0.42894274  0.82028648  0.43048530  1
  Hf  Hf4  1  0.82028648  0.82028648  0.43048530  1
  Hf  Hf5  1  0.43041976  0.43041976  0.81923452  1
  Hf  Hf6  1  0.56775554  0.18302933  0.18145960  1
  Hf  Hf7  1  0.18424745  0.56735033  0.56415478  1
  Hf  Hf8  1  0.18302933  0.56775554  0.18145960  1
  Hf  Hf9  1  0.56735033  0.18424745  0.56415478  1
  Hf  Hf10  1  0.18424745  0.18424745  0.56415478  1
  Hf  Hf11  1  0.56775554  0.56775554  0.18145960  1
  Ti  Ti0  1  0.99625059  0.99625059  0.51124822  1
  Ti  Ti1  1  0.99914759  0.50482110  0.99688372  1
  Ti  Ti2  1  0.50482110  0.99914759  0.99688372  1
  Ti  Ti3  1  0.99914759  0.99914759  0.99688372  1
  Mn  Mn0  1  0.79069347  0.12537234  0.79324073  1
  Mn  Mn1  1  0.12537234  0.79069347  0.79324073  1
  Mn  Mn2  1  0.79069347  0.79069347  0.79324073  1
  Os  Os0  1  0.21010876  0.21010876  0.86967371  1
  Os  Os1  1  0.20896093  0.87163325  0.21044289  1
  Os  Os2  1  0.87163325  0.20896093  0.21044289  1
  Os  Os3  1  0.20896093  0.20896093  0.21044289  1
  Os  Os4  1  0.78954317  0.78954317  0.13137149  1
loop_
_geom_bond_atom_site_label_1
_geom_bond_atom_site_label_2
_geom_bond_distance
_geom_bond_site_symmetry_2
Hf0 Mn1 2.853171 1_555
Hf0 Mn2 2.853180 1_555
Hf0 Os0 3.022780 1_565
Hf0 Os1 3.028588 1_556
Hf0 Ti3 3.041693 1_455
Hf0 Ti2 3.041698 1_555
Hf0 Hf8 3.152989 1_556
Hf0 Hf11 3.152993 1_556
Hf0 Hf10 3.168577 1_565
Hf0 Hf9 3.168581 1_565
Hf0 Hf3 3.310903 1_555
Hf0 Hf4 3.310912 1_555
Hf0 Hf5 3.317934 1_555
Hf0 Hf2 3.317935 1_555
Hf1 Os4 2.830424 1_555
Hf1 Mn0 2.854885 1_555
Hf1 Os3 3.012900 1_655
Hf1 Os2 3.012912 1_555
Hf1 Ti0 3.045408 1_545
Hf1 Ti1 3.050783 1_554
Hf1 Hf10 3.153344 1_655
Hf1 Hf9 3.153351 1_555
Hf1 Hf8 3.165766 1_655
Hf1 Hf11 3.165773 1_555
Hf1 Hf2 3.310903 1_555
Hf1 Hf5 3.310912 1_555
Hf1 Hf4 3.333595 1_555
Hf1 Hf3 3.333596 1_555
Hf2 Mn0 2.853171 1_555
Hf2 Mn2 2.853180 1_555
Hf2 Os0 3.022780 1_655
Hf2 Os2 3.028588 1_556
Hf2 Ti3 3.041693 1_545
Hf2 Ti1 3.041698 1_555
Hf2 Hf6 3.152989 1_556
Hf2 Hf7 3.168581 1_655
Hf2 Hf4 3.310912 1_555
Hf2 Hf5 3.317934 1_555
Hf3 Os4 2.830424 1_555
Hf3 Mn1 2.854885 1_555
Hf3 Os3 3.012900 1_565
Hf3 Os1 3.012912 1_555
Hf3 Ti0 3.045408 1_455
Hf3 Ti2 3.050783 1_554
Hf3 Hf7 3.153351 1_555
Hf3 Hf6 3.165766 1_565
Hf3 Hf5 3.310912 1_555
Hf3 Hf4 3.333595 1_555
Hf4 Os4 2.830424 1_555
Hf4 Mn2 2.854881 1_555
Hf4 Os1 3.012890 1_655
Hf4 Os2 3.012890 1_565
Hf4 Ti0 3.045400 1_555
Hf4 Ti3 3.050782 1_554
Hf4 Hf9 3.153344 1_565
Hf4 Hf7 3.153344 1_655
Hf4 Hf8 3.165771 1_655
Hf4 Hf6 3.165771 1_565
Hf5 Mn0 2.853176 1_555
Hf5 Mn1 2.853176 1_555
Hf5 Os0 3.022772 1_555
Hf5 Os3 3.028592 1_556
Hf5 Ti1 3.041691 1_455
Hf5 Ti2 3.041691 1_545
Hf5 Hf8 3.152993 1_556
Hf5 Hf6 3.152993 1_556
Hf5 Hf9 3.168574 1_555
Hf5 Hf7 3.168574 1_555
Hf6 Os2 2.841734 1_555
Hf6 Os3 2.841751 1_555
Hf6 Mn0 3.026495 1_554
Hf6 Os4 3.045842 1_545
Hf6 Ti2 3.057831 1_544
Hf6 Ti3 3.057832 1_544
Hf6 Hf9 3.258121 1_555
Hf6 Hf8 3.277225 1_555
Hf7 Os1 2.813059 1_555
Hf7 Os0 2.836083 1_555
Hf7 Ti0 3.056064 1_455
Hf7 Ti1 3.062310 1_455
Hf7 Mn1 3.073534 1_555
Hf7 Mn2 3.073534 1_455
Hf7 Hf8 3.258121 1_555
Hf7 Hf9 3.263397 1_555
Hf8 Os1 2.841734 1_555
Hf8 Os3 2.841751 1_555
Hf8 Mn1 3.026495 1_554
Hf8 Os4 3.045842 1_455
Hf8 Ti1 3.057831 1_454
Hf8 Ti3 3.057832 1_454
Hf9 Os2 2.813059 1_555
Hf9 Os0 2.836083 1_555
Hf9 Ti0 3.056064 1_545
Hf9 Ti2 3.062310 1_545
Hf9 Mn0 3.073534 1_555
Hf9 Mn2 3.073534 1_545
Hf10 Os3 2.813066 1_555
Hf10 Os0 2.836083 1_555
Hf10 Ti0 3.056063 1_445
Hf10 Ti3 3.062310 1_445
Hf10 Mn0 3.073534 1_455
Hf10 Mn1 3.073534 1_545
Hf10 Hf3 3.153344 1_545
Hf10 Hf2 3.168577 1_455
Hf10 Hf6 3.258121 1_555
Hf10 Hf8 3.258121 1_555
Hf10 Hf7 3.263397 1_555
Hf10 Hf9 3.263397 1_555
Hf11 Os1 2.841744 1_555
Hf11 Os2 2.841744 1_555
Hf11 Mn2 3.026495 1_554
Hf11 Os4 3.045850 1_555
Hf11 Ti1 3.057832 1_554
Hf11 Ti2 3.057832 1_554
Hf11 Hf2 3.152993 1_554
Hf11 Hf3 3.165773 1_555
Hf11 Hf7 3.258121 1_555
Hf11 Hf9 3.258121 1_555
Hf11 Hf6 3.277225 1_555
Hf11 Hf8 3.277225 1_555
Mn0 Ti0 2.556810 1_545
Mn0 Ti3 2.571850 1_545
Mn0 Ti2 2.571850 1_545
Mn0 Mn2 2.850905 1_545
Mn0 Mn1 2.850906 1_645
Mn0 Os4 2.865858 1_546
Mn1 Ti0 2.556810 1_455
Mn1 Ti3 2.571850 1_455
Mn1 Ti1 2.571850 1_455
Mn1 Mn2 2.850905 1_455
Mn1 Os4 2.865858 1_456
Mn2 Ti0 2.556810 1_555
Mn2 Ti2 2.571850 1_555
Mn2 Ti1 2.571850 1_555
Mn2 Os4 2.865861 1_556
Os0 Ti3 2.638911 1_445
Os0 Ti1 2.638911 1_455
Os0 Ti2 2.638911 1_545
Os0 Os3 2.888320 1_556
Os0 Os2 2.888329 1_456
Os0 Os1 2.888329 1_546
Os1 Ti3 2.647034 1_454
Os1 Ti2 2.647049 1_554
Os1 Ti0 2.666112 1_455
Os1 Os3 2.873469 1_565
Os1 Os2 2.873469 1_465
Os2 Ti3 2.647034 1_544
Os2 Ti1 2.647049 1_554
Os2 Ti0 2.666112 1_545
Os2 Os3 2.873469 1_655
Os3 Ti2 2.647039 1_544
Os3 Ti1 2.647039 1_454
Os3 Ti0 2.666103 1_445
Os4 Ti3 2.604047 1_554
Os4 Ti1 2.604053 1_554
Os4 Ti2 2.604053 1_554
