# generated using pymatgen
data_Y6AlNiRu
_symmetry_space_group_name_H-M   'P 1'
_cell_length_a   8.39651770
_cell_length_b   8.39651813
_cell_length_c   8.39651767
_cell_angle_alpha   112.85591878
_cell_angle_beta   110.02497449
_cell_angle_gamma   105.61399731
_symmetry_Int_Tables_number   1
_chemical_formula_structural   Y6AlNiRu
_chemical_formula_sum   'Y12 Al2 Ni2 Ru2'
_cell_volume   453.86293120
_cell_formula_units_Z   2
loop_
 _symmetry_equiv_pos_site_id
 _symmetry_equiv_pos_as_xyz
  1  'x, y, z'
loop_
 _atom_site_type_symbol
 _atom_site_label
 _atom_site_symmetry_multiplicity
 _atom_site_fract_x
 _atom_site_fract_y
 _atom_site_fract_z
 _atom_site_occupancy
  Y  Y0  1  0.43464387  0.24068494  0.19395893  1
  Y  Y1  1  0.56535613  0.75931506  0.80604107  1
  Y  Y2  1  0.04672600  0.24068494  0.80604107  1
  Y  Y3  1  0.95327400  0.75931506  0.19395893  1
  Y  Y4  1  0.18096176  0.28007386  0.46103561  1
  Y  Y5  1  0.81903824  0.71992614  0.53896439  1
  Y  Y6  1  0.18096176  0.71992614  0.90088790  1
  Y  Y7  1  0.81903824  0.28007386  0.09911210  1
  Y  Y8  1  0.32792654  0.64144224  0.31351670  1
  Y  Y9  1  0.67207346  0.35855776  0.68648330  1
  Y  Y10  1  0.32792654  0.01441084  0.68648330  1
  Y  Y11  1  0.67207346  0.98558916  0.31351670  1
  Al  Al0  1  0.50000000  0.50000000  0.00000000  1
  Al  Al1  1  0.00000000  0.00000000  0.00000000  1
  Ni  Ni0  1  0.11408433  0.61408433  0.50000000  1
  Ni  Ni1  1  0.88591567  0.38591567  0.50000000  1
  Ru  Ru0  1  0.32576500  0.00000000  0.32576500  1
  Ru  Ru1  1  0.67423500  0.00000000  0.67423500  1
loop_
_geom_bond_atom_site_label_1
_geom_bond_atom_site_label_2
_geom_bond_distance
_geom_bond_site_symmetry_2
Al0 Y1 3.227650 1_554
Al0 Y0 3.227650 1_555
Al0 Y3 3.227650 1_555
Al0 Y2 3.227650 1_554
Al0 Y11 3.395223 1_555
Al0 Y10 3.395223 1_554
Al0 Y8 3.395227 1_555
Al0 Y9 3.395227 1_554
Al0 Y7 3.688966 1_555
Al0 Y6 3.688966 1_554
Al0 Y5 3.688966 1_555
Al0 Y4 3.688966 1_554
Al1 Y3 3.075353 1_445
Al1 Y2 3.075353 1_554
Al1 Y0 3.075353 1_555
Al1 Y1 3.075353 1_444
Al1 Y6 3.130609 1_544
Al1 Y7 3.130609 1_455
Al1 Y4 3.130609 1_555
Al1 Y5 3.130609 1_444
Al1 Ru0 3.136821 1_555
Al1 Ru1 3.136821 1_454
Ni0 Ni1 2.316236 1_455
Ni0 Y8 2.776922 1_555
Ni0 Y10 2.776930 1_565
Ni0 Y5 2.923785 1_455
Ni0 Y6 2.923785 1_555
Ni0 Y4 2.923786 1_555
Ni0 Y7 2.923786 1_455
Ni0 Y3 3.295111 1_455
Ni0 Y1 3.295111 1_555
Ni1 Y9 2.776922 1_555
Ni1 Y11 2.776930 1_545
Ni1 Y4 2.923785 1_655
Ni1 Y7 2.923785 1_555
Ni1 Y5 2.923786 1_555
Ni1 Y6 2.923786 1_655
Ni1 Y2 3.295111 1_655
Ni1 Y0 3.295111 1_555
Ru0 Y0 2.753268 1_555
Ru0 Y3 2.753268 1_445
Ru0 Y4 2.951026 1_555
Ru0 Y6 2.951026 1_544
Ru0 Y10 2.977405 1_555
Ru0 Y11 2.977410 1_545
Ru0 Y9 2.977411 1_555
Ru0 Y8 2.977416 1_545
Ru1 Y1 2.753268 1_545
Ru1 Y2 2.753268 1_655
Ru1 Y5 2.951026 1_545
Ru1 Y7 2.951026 1_556
Ru1 Y11 2.977405 1_545
Ru1 Y10 2.977410 1_555
Ru1 Y8 2.977411 1_545
Ru1 Y9 2.977416 1_555
