# generated using pymatgen
data_Hf6MgAl15Pt7
_symmetry_space_group_name_H-M   'P 1'
_cell_length_a   8.71583426
_cell_length_b   8.71583412
_cell_length_c   8.71686322
_cell_angle_alpha   60.00390268
_cell_angle_beta   60.00390355
_cell_angle_gamma   60.00000279
_symmetry_Int_Tables_number   1
_chemical_formula_structural   Hf6MgAl15Pt7
_chemical_formula_sum   'Hf6 Mg1 Al15 Pt7'
_cell_volume   468.26185477
_cell_formula_units_Z   1
loop_
 _symmetry_equiv_pos_site_id
 _symmetry_equiv_pos_as_xyz
  1  'x, y, z'
loop_
 _atom_site_type_symbol
 _atom_site_label
 _atom_site_symmetry_multiplicity
 _atom_site_fract_x
 _atom_site_fract_y
 _atom_site_fract_z
 _atom_site_occupancy
  Hf  Hf0  1  0.67928059  0.67928059  0.31998560  1
  Hf  Hf1  1  0.32145321  0.67928059  0.31998560  1
  Hf  Hf2  1  0.67928059  0.32145321  0.31998560  1
  Hf  Hf3  1  0.31834237  0.31834237  0.68191192  1
  Hf  Hf4  1  0.68140435  0.31834237  0.68191192  1
  Hf  Hf5  1  0.31834237  0.68140435  0.68191192  1
  Mg  Mg0  1  0.88166480  0.88166480  0.35500461  1
  Al  Al0  1  0.87961747  0.36046446  0.88029959  1
  Al  Al1  1  0.36046446  0.87961747  0.88029959  1
  Al  Al2  1  0.87961747  0.87961747  0.88029959  1
  Al  Al3  1  0.12097999  0.12097999  0.63706004  1
  Al  Al4  1  0.11956441  0.64018037  0.12069180  1
  Al  Al5  1  0.64018037  0.11956441  0.12069180  1
  Al  Al6  1  0.11956441  0.11956441  0.12069180  1
  Al  Al7  1  0.66497251  0.66497251  0.00508146  1
  Al  Al8  1  0.66558057  0.00477653  0.66406133  1
  Al  Al9  1  0.00477653  0.66558057  0.66406133  1
  Al  Al10  1  0.66558057  0.66558057  0.66406133  1
  Al  Al11  1  0.33493842  0.33493842  0.99518575  1
  Al  Al12  1  0.33536902  0.99457424  0.33468872  1
  Al  Al13  1  0.99457424  0.33536902  0.33468872  1
  Al  Al14  1  0.33536902  0.33536902  0.33468872  1
  Pt  Pt0  1  0.00381379  0.00381379  0.98855864  1
  Pt  Pt1  1  0.00105282  0.00105282  0.50508202  1
  Pt  Pt2  1  0.49281135  0.00105282  0.50508202  1
  Pt  Pt3  1  0.00105282  0.49281135  0.50508202  1
  Pt  Pt4  1  0.50041321  0.50041321  0.99964753  1
  Pt  Pt5  1  0.99952604  0.50041321  0.99964753  1
  Pt  Pt6  1  0.50041321  0.99952604  0.99964753  1
loop_
_geom_bond_atom_site_label_1
_geom_bond_atom_site_label_2
_geom_bond_distance
_geom_bond_site_symmetry_2
Hf0 Hf2 3.118764 1_555
Hf0 Hf1 3.118764 1_555
Hf0 Hf4 3.150645 1_555
Hf0 Hf5 3.150645 1_555
Hf0 Pt6 3.197905 1_554
Hf0 Pt5 3.197906 1_554
Hf0 Pt2 3.233332 1_565
Hf0 Pt3 3.233332 1_655
Hf0 Mg0 3.241064 1_555
Hf1 Hf2 3.118764 1_555
Hf1 Hf3 3.150645 1_555
Hf1 Hf5 3.150649 1_555
Hf1 Pt6 3.197905 1_554
Hf1 Pt4 3.197906 1_554
Hf1 Pt1 3.233334 1_565
Hf1 Pt3 3.233340 1_555
Hf1 Mg0 3.241071 1_455
Hf2 Hf3 3.150645 1_555
Hf2 Hf4 3.150649 1_555
Hf2 Pt5 3.197905 1_554
Hf2 Pt4 3.197906 1_554
Hf2 Pt1 3.233334 1_655
Hf2 Pt2 3.233340 1_555
Hf2 Mg0 3.241071 1_545
Hf3 Hf5 3.164388 1_555
Hf3 Hf4 3.164388 1_555
Hf3 Pt2 3.170049 1_555
Hf3 Pt3 3.170049 1_555
Hf3 Pt6 3.193819 1_545
Hf3 Pt5 3.193819 1_455
Hf4 Hf5 3.164388 1_555
Hf4 Pt3 3.170034 1_655
Hf4 Pt1 3.170046 1_655
Hf4 Pt4 3.193818 1_555
Hf4 Pt6 3.193823 1_545
Hf5 Pt2 3.170034 1_565
Hf5 Pt1 3.170046 1_565
Hf5 Pt4 3.193817 1_555
Hf5 Pt5 3.193823 1_455
Mg0 Pt0 2.608256 1_664
Mg0 Pt3 2.771634 1_655
Mg0 Pt1 2.771634 1_665
Mg0 Pt2 2.771634 1_565
Al0 Pt0 2.539394 1_655
Al0 Pt3 2.671254 1_655
Al0 Pt4 2.700573 1_555
Al0 Pt5 2.700580 1_555
Al0 Al7 2.759274 1_556
Al0 Al9 2.765499 1_655
Al0 Al10 2.765499 1_555
Al0 Al5 2.960513 1_556
Al0 Al6 2.960525 1_656
Al0 Al3 2.975264 1_655
Al0 Hf4 3.219653 1_555
Al0 Hf3 3.219668 1_655
Al0 Hf2 3.233135 1_556
Al1 Pt0 2.539394 1_565
Al1 Pt2 2.671254 1_565
Al1 Pt4 2.700573 1_555
Al1 Pt6 2.700580 1_555
Al1 Al7 2.759274 1_556
Al1 Al8 2.765499 1_565
Al1 Al10 2.765499 1_555
Al1 Al4 2.960513 1_556
Al1 Al6 2.960525 1_566
Al1 Al3 2.975264 1_565
Al1 Hf5 3.219653 1_555
Al1 Hf3 3.219668 1_565
Al1 Hf1 3.233135 1_556
Al2 Pt0 2.539402 1_665
Al2 Pt1 2.671254 1_665
Al2 Pt5 2.700573 1_555
Al2 Pt6 2.700573 1_555
Al2 Al7 2.759273 1_556
Al2 Al9 2.765499 1_655
Al2 Al8 2.765499 1_565
Al2 Al4 2.960525 1_656
Al2 Al5 2.960525 1_566
Al2 Al3 2.975270 1_665
Al2 Hf4 3.219664 1_565
Al2 Hf5 3.219664 1_655
Al2 Hf0 3.233133 1_556
Al3 Pt0 2.501865 1_555
Al3 Pt3 2.646873 1_555
Al3 Pt2 2.646873 1_555
Al3 Pt1 2.646880 1_555
Al3 Hf5 3.220986 1_545
Al3 Hf4 3.220986 1_455
Al3 Hf3 3.220994 1_555
Al4 Pt0 2.589152 1_564
Al4 Pt4 2.712069 1_554
Al4 Pt5 2.712076 1_454
Al4 Pt3 2.739829 1_555
Al4 Mg0 2.932685 1_455
Al4 Hf5 3.222169 1_554
Al4 Hf1 3.237048 1_555
Al4 Hf0 3.237055 1_455
Al5 Pt0 2.589152 1_654
Al5 Pt4 2.712069 1_554
Al5 Pt6 2.712076 1_544
Al5 Pt2 2.739829 1_555
Al5 Mg0 2.932685 1_545
Al5 Hf4 3.222169 1_554
Al5 Hf2 3.237048 1_555
Al5 Hf0 3.237055 1_545
Al6 Pt0 2.589159 1_554
Al6 Pt5 2.712069 1_454
Al6 Pt6 2.712069 1_544
Al6 Pt1 2.739828 1_555
Al6 Mg0 2.932697 1_445
Al6 Hf3 3.222169 1_554
Al6 Hf1 3.237053 1_545
Al6 Hf2 3.237053 1_455
Al7 Pt4 2.511873 1_554
Al7 Pt6 2.511881 1_554
Al7 Pt5 2.511881 1_554
Al7 Hf2 2.875079 1_555
Al7 Hf1 2.875079 1_555
Al7 Hf0 2.875083 1_555
Al7 Al8 2.967336 1_564
Al7 Al9 2.967336 1_654
Al8 Pt6 2.520517 1_545
Al8 Pt1 2.523765 1_655
Al8 Pt2 2.523765 1_555
Al8 Mg0 2.784313 1_545
Al8 Hf2 2.884819 1_555
Al8 Hf3 2.887212 1_555
Al8 Hf4 2.887221 1_555
Al8 Al9 2.956376 1_645
Al9 Pt5 2.520517 1_455
Al9 Pt1 2.523765 1_565
Al9 Pt3 2.523765 1_555
Al9 Mg0 2.784313 1_455
Al9 Hf1 2.884819 1_555
Al9 Hf3 2.887212 1_555
Al9 Hf5 2.887221 1_555
Al10 Pt4 2.520514 1_555
Al10 Pt2 2.523765 1_565
Al10 Pt3 2.523765 1_655
Al10 Mg0 2.784313 1_555
Al10 Hf0 2.884815 1_555
Al10 Hf4 2.887204 1_555
Al10 Hf5 2.887204 1_555
Al10 Al8 2.956376 1_565
Al10 Al9 2.956376 1_655
Al10 Al7 2.967336 1_556
Al11 Pt4 2.520704 1_555
Al11 Pt6 2.520712 1_545
Al11 Pt5 2.520712 1_455
Al11 Al6 2.767904 1_556
Al11 Al4 2.767904 1_556
Al11 Al5 2.767904 1_556
Al11 Hf5 2.882665 1_555
Al11 Hf4 2.882665 1_555
Al11 Hf3 2.882665 1_555
Al11 Al12 2.963158 1_546
Al11 Al13 2.963158 1_456
Al11 Al14 2.963158 1_556
Al12 Pt2 2.508311 1_565
Al12 Pt1 2.508326 1_565
Al12 Pt6 2.517123 1_554
Al12 Al3 2.751878 1_565
Al12 Al5 2.762524 1_565
Al12 Al6 2.762524 1_565
Al12 Hf0 2.878174 1_555
Al12 Hf1 2.878178 1_555
Al12 Hf5 2.885955 1_555
Al12 Al14 2.970311 1_565
Al12 Al13 2.970311 1_465
Al13 Pt3 2.508311 1_655
Al13 Pt1 2.508326 1_655
Al13 Pt5 2.517123 1_554
Al13 Al3 2.751878 1_655
Al13 Al4 2.762524 1_655
Al13 Al6 2.762524 1_655
Al13 Hf0 2.878174 1_555
Al13 Hf2 2.878178 1_555
Al13 Hf4 2.885955 1_555
Al13 Al14 2.970311 1_655
Al14 Pt2 2.508321 1_555
Al14 Pt3 2.508321 1_555
Al14 Pt4 2.517121 1_554
Al14 Al3 2.751883 1_555
Al14 Al4 2.762524 1_555
Al14 Al5 2.762524 1_555
Al14 Hf1 2.878170 1_555
Al14 Hf2 2.878170 1_555
Al14 Hf3 2.885955 1_555
