# generated using pymatgen
data_CuAg2PtO4
_symmetry_space_group_name_H-M   'P 1'
_cell_length_a   3.03905430
_cell_length_b   5.48483317
_cell_length_c   6.41570993
_cell_angle_alpha   75.14370147
_cell_angle_beta   90.00000000
_cell_angle_gamma   90.00000000
_symmetry_Int_Tables_number   1
_chemical_formula_structural   CuAg2PtO4
_chemical_formula_sum   'Cu1 Ag2 Pt1 O4'
_cell_volume   103.36673025
_cell_formula_units_Z   1
loop_
 _symmetry_equiv_pos_site_id
 _symmetry_equiv_pos_as_xyz
  1  'x, y, z'
loop_
 _atom_site_type_symbol
 _atom_site_label
 _atom_site_symmetry_multiplicity
 _atom_site_fract_x
 _atom_site_fract_y
 _atom_site_fract_z
 _atom_site_occupancy
  Cu  Cu0  1  0.00000000  0.50000000  0.50000000  1
  Ag  Ag0  1  0.00000000  0.00000000  0.00000000  1
  Ag  Ag1  1  0.50000000  0.50000000  0.00000000  1
  Pt  Pt0  1  0.50000000  0.00000000  0.50000000  1
  O  O0  1  0.50000000  0.37428616  0.34686339  1
  O  O1  1  0.00000000  0.91180414  0.32847303  1
  O  O2  1  0.50000000  0.62571384  0.65313661  1
  O  O3  1  0.00000000  0.08819586  0.67152697  1
loop_
_geom_bond_atom_site_label_1
_geom_bond_atom_site_label_2
_geom_bond_distance
_geom_bond_site_symmetry_2
Cu0 O0 2.024118 1_455
Cu0 O0 2.024118 1_555
Cu0 O2 2.024118 1_455
Cu0 O2 2.024118 1_555
Cu0 O1 2.244561 1_555
Cu0 O3 2.244561 1_555
Ag0 O1 2.037728 1_545
Ag0 O3 2.037728 1_554
Ag1 O2 2.154271 1_554
Ag1 O0 2.154271 1_555
O0 Pt0 2.036023 1_555
O1 Pt0 2.006732 1_465
O1 Pt0 2.006732 1_565
O2 Pt0 2.036023 1_565
O3 Pt0 2.006732 1_555
O3 Pt0 2.006732 1_455
