# generated using pymatgen
data_LiTcF6
_symmetry_space_group_name_H-M   'P 1'
_cell_length_a   5.34512527
_cell_length_b   5.34512601
_cell_length_c   5.34512492
_cell_angle_alpha   55.67773582
_cell_angle_beta   55.67772908
_cell_angle_gamma   55.67773738
_symmetry_Int_Tables_number   1
_chemical_formula_structural   LiTcF6
_chemical_formula_sum   'Li1 Tc1 F6'
_cell_volume   97.15543777
_cell_formula_units_Z   1
loop_
 _symmetry_equiv_pos_site_id
 _symmetry_equiv_pos_as_xyz
  1  'x, y, z'
loop_
 _atom_site_type_symbol
 _atom_site_label
 _atom_site_symmetry_multiplicity
 _atom_site_fract_x
 _atom_site_fract_y
 _atom_site_fract_z
 _atom_site_occupancy
  Li  Li0  1  0.50000000  0.50000000  0.50000000  1
  Tc  Tc0  1  0.00000000  0.00000000  0.00000000  1
  F  F0  1  0.88359116  0.63301261  0.23751893  1
  F  F1  1  0.23751893  0.88359116  0.63301261  1
  F  F2  1  0.36698739  0.76248107  0.11640884  1
  F  F3  1  0.63301261  0.23751893  0.88359116  1
  F  F4  1  0.76248107  0.11640884  0.36698739  1
  F  F5  1  0.11640884  0.36698739  0.76248107  1
loop_
_geom_bond_atom_site_label_1
_geom_bond_atom_site_label_2
_geom_bond_distance
_geom_bond_site_symmetry_2
F0 Tc0 1.877233 1_665
F0 Li0 1.988176 1_555
F1 Tc0 1.877233 1_566
F1 Li0 1.988176 1_555
F2 Tc0 1.877233 1_565
F2 Li0 1.988176 1_555
F3 Tc0 1.877233 1_656
F3 Li0 1.988176 1_555
F4 Tc0 1.877233 1_655
F4 Li0 1.988176 1_555
F5 Tc0 1.877233 1_556
F5 Li0 1.988176 1_555
