# generated using pymatgen
data_ScMn2PC
_symmetry_space_group_name_H-M   'P 1'
_cell_length_a   5.49841645
_cell_length_b   5.49841726
_cell_length_c   6.72367817
_cell_angle_alpha   90.00000000
_cell_angle_beta   90.00000000
_cell_angle_gamma   143.30525871
_symmetry_Int_Tables_number   1
_chemical_formula_structural   ScMn2PC
_chemical_formula_sum   'Sc2 Mn4 P2 C2'
_cell_volume   121.46680963
_cell_formula_units_Z   2
loop_
 _symmetry_equiv_pos_site_id
 _symmetry_equiv_pos_as_xyz
  1  'x, y, z'
loop_
 _atom_site_type_symbol
 _atom_site_label
 _atom_site_symmetry_multiplicity
 _atom_site_fract_x
 _atom_site_fract_y
 _atom_site_fract_z
 _atom_site_occupancy
  Sc  Sc0  1  0.53825250  0.46174750  0.25000000  1
  Sc  Sc1  1  0.46174750  0.53825250  0.75000000  1
  Mn  Mn0  1  0.83150810  0.16849190  0.05638588  1
  Mn  Mn1  1  0.16849190  0.83150810  0.94361412  1
  Mn  Mn2  1  0.16849190  0.83150810  0.55638588  1
  Mn  Mn3  1  0.83150810  0.16849190  0.44361412  1
  P  P0  1  0.26264796  0.73735204  0.25000000  1
  P  P1  1  0.73735204  0.26264796  0.75000000  1
  C  C0  1  0.00000000  0.00000000  0.00000000  1
  C  C1  1  0.00000000  0.00000000  0.50000000  1
loop_
_geom_bond_atom_site_label_1
_geom_bond_atom_site_label_2
_geom_bond_distance
_geom_bond_site_symmetry_2
Mn0 P0 2.281857 1_545
Mn0 P0 2.281857 1_655
Mn0 P1 2.282461 1_554
Mn1 P1 2.281857 1_565
Mn1 P1 2.281857 1_455
Mn1 P0 2.282461 1_556
Mn2 P1 2.281857 1_565
Mn2 P1 2.281857 1_455
Mn2 P0 2.282461 1_555
Mn3 P0 2.281857 1_545
Mn3 P0 2.281857 1_655
Mn3 P1 2.282461 1_555
P0 Sc0 2.876709 1_555
P0 Sc0 2.912298 1_455
P0 Sc0 2.912299 1_565
P1 Sc1 2.876709 1_555
P1 Sc1 2.912298 1_655
P1 Sc1 2.912299 1_545
C0 Mn0 1.799087 1_455
C0 Mn1 1.799087 1_544
C0 Sc0 2.445506 1_555
C0 Sc1 2.445506 1_444
C0 Sc1 2.445506 1_554
C0 Sc0 2.445506 1_445
C1 Mn2 1.799087 1_545
C1 Mn3 1.799087 1_455
C1 Sc0 2.445506 1_555
C1 Sc1 2.445506 1_445
C1 Sc1 2.445506 1_555
C1 Sc0 2.445506 1_445
