# generated using pymatgen
data_SrLaMn2O6
_symmetry_space_group_name_H-M   'P 1'
_cell_length_a   5.53989784
_cell_length_b   5.53989784
_cell_length_c   5.53989784
_cell_angle_alpha   120.54011093
_cell_angle_beta   120.54011093
_cell_angle_gamma   89.06701876
_symmetry_Int_Tables_number   1
_chemical_formula_structural   SrLaMn2O6
_chemical_formula_sum   'Sr1 La1 Mn2 O6'
_cell_volume   119.22513053
_cell_formula_units_Z   1
loop_
 _symmetry_equiv_pos_site_id
 _symmetry_equiv_pos_as_xyz
  1  'x, y, z'
loop_
 _atom_site_type_symbol
 _atom_site_label
 _atom_site_symmetry_multiplicity
 _atom_site_fract_x
 _atom_site_fract_y
 _atom_site_fract_z
 _atom_site_occupancy
  Sr  Sr0  1  0.00000000  0.00000000  0.00000000  1
  La  La0  1  0.50000000  0.50000000  0.00000000  1
  Mn  Mn0  1  0.25000000  0.75000000  0.50000000  1
  Mn  Mn1  1  0.75000000  0.25000000  0.50000000  1
  O  O0  1  0.50000000  0.00000000  0.50000000  1
  O  O1  1  0.95763300  0.95763300  0.42960700  1
  O  O2  1  0.47197300  0.04236700  0.00000000  1
  O  O3  1  0.00000000  0.50000000  0.50000000  1
  O  O4  1  0.04236700  0.47197300  0.00000000  1
  O  O5  1  0.52802700  0.52802700  0.57039300  1
loop_
_geom_bond_atom_site_label_1
_geom_bond_atom_site_label_2
_geom_bond_distance
_geom_bond_site_symmetry_2
La0 O1 2.542512 1_555
La0 O2 2.542512 1_555
La0 O4 2.542512 1_555
La0 O5 2.542518 1_554
La0 O0 2.747305 1_554
La0 O3 2.747305 1_554
La0 O3 2.747305 1_655
La0 O0 2.747305 1_565
La0 O5 3.006135 1_555
La0 O1 3.006141 1_444
La0 O4 3.006141 1_655
La0 O2 3.006141 1_565
Mn0 O5 1.962613 1_555
Mn0 O1 1.962613 1_455
Mn0 O4 1.962613 1_555
Mn0 O2 1.962613 1_566
Mn0 O3 1.974531 1_555
Mn0 O0 1.974531 1_565
Mn1 O5 1.962613 1_555
Mn1 O1 1.962613 1_545
Mn1 O4 1.962613 1_656
Mn1 O2 1.962613 1_555
Mn1 O0 1.974531 1_555
Mn1 O3 1.974531 1_655
O0 Sr0 2.747305 1_555
O0 Sr0 2.747305 1_656
O1 Sr0 2.629005 1_665
O1 Sr0 2.930799 1_666
O2 Sr0 2.628999 1_555
O2 Sr0 2.930805 1_655
O3 Sr0 2.747305 1_555
O3 Sr0 2.747305 1_566
O4 Sr0 2.628999 1_555
O4 Sr0 2.930805 1_565
O5 Sr0 2.628999 1_666
O5 Sr0 2.930804 1_555
