# generated using pymatgen
data_Sr2Li2Si2Sb
_symmetry_space_group_name_H-M   'P 1'
_cell_length_a   10.16048286
_cell_length_b   10.16048229
_cell_length_c   7.15108294
_cell_angle_alpha   90.00000000
_cell_angle_beta   90.00000000
_cell_angle_gamma   153.12751390
_symmetry_Int_Tables_number   1
_chemical_formula_structural   Sr2Li2Si2Sb
_chemical_formula_sum   'Sr4 Li4 Si4 Sb2'
_cell_volume   333.69144928
_cell_formula_units_Z   2
loop_
 _symmetry_equiv_pos_site_id
 _symmetry_equiv_pos_as_xyz
  1  'x, y, z'
loop_
 _atom_site_type_symbol
 _atom_site_label
 _atom_site_symmetry_multiplicity
 _atom_site_fract_x
 _atom_site_fract_y
 _atom_site_fract_z
 _atom_site_occupancy
  Sr  Sr0  1  0.55211196  0.44788804  0.75000000  1
  Sr  Sr1  1  0.44788804  0.55211196  0.25000000  1
  Sr  Sr2  1  0.34387859  0.65612141  0.75000000  1
  Sr  Sr3  1  0.65612141  0.34387859  0.25000000  1
  Li  Li0  1  0.81521249  0.18478751  0.44502478  1
  Li  Li1  1  0.18478751  0.81521249  0.55497522  1
  Li  Li2  1  0.81521249  0.18478751  0.05497522  1
  Li  Li3  1  0.18478751  0.81521249  0.94502478  1
  Si  Si0  1  0.94792081  0.05207919  0.91612134  1
  Si  Si1  1  0.05207919  0.94792081  0.08387866  1
  Si  Si2  1  0.94792081  0.05207919  0.58387866  1
  Si  Si3  1  0.05207919  0.94792081  0.41612134  1
  Sb  Sb0  1  0.71875319  0.28124681  0.75000000  1
  Sb  Sb1  1  0.28124681  0.71875319  0.25000000  1
loop_
_geom_bond_atom_site_label_1
_geom_bond_atom_site_label_2
_geom_bond_distance
_geom_bond_site_symmetry_2
Li0 Si2 2.804607 1_555
Li0 Sb1 2.823056 1_655
Li0 Sb1 2.823056 1_545
Li0 Sb0 2.896733 1_555
Li0 Sr2 3.263633 1_545
Li0 Sr2 3.263633 1_655
Li0 Sr3 3.439804 1_555
Li1 Si3 2.804607 1_555
Li1 Sb0 2.823056 1_455
Li1 Sb0 2.823056 1_565
Li1 Sb1 2.896733 1_555
Li1 Sr3 3.263633 1_565
Li1 Sr3 3.263633 1_455
Li1 Sr2 3.439804 1_555
Li2 Si0 2.804607 1_554
Li2 Sb1 2.823056 1_655
Li2 Sb1 2.823056 1_545
Li2 Sb0 2.896733 1_554
Li2 Sr2 3.263633 1_544
Li2 Sr2 3.263633 1_654
Li2 Sr3 3.439804 1_555
Li3 Si1 2.804607 1_556
Li3 Sb0 2.823056 1_455
Li3 Sb0 2.823056 1_565
Li3 Sb1 2.896733 1_556
Li3 Sr3 3.263633 1_566
Li3 Sr3 3.263633 1_456
Li3 Sr2 3.439804 1_555
Si0 Si2 2.375895 1_555
Si0 Si1 2.382699 1_646
Si0 Sr2 3.348705 1_655
Si0 Sr2 3.348706 1_545
Si0 Sr0 3.350514 1_545
Si0 Sr0 3.350514 1_655
Si0 Sr1 3.357761 1_656
Si0 Sr1 3.357761 1_546
Si1 Si3 2.375895 1_555
Si1 Sr3 3.348705 1_455
Si1 Sr3 3.348706 1_565
Si1 Sr1 3.350514 1_565
Si1 Sr1 3.350514 1_455
Si1 Sr0 3.357761 1_454
Si1 Sr0 3.357761 1_564
Si2 Si3 2.382699 1_645
Si2 Sr2 3.348705 1_655
Si2 Sr2 3.348706 1_545
Si2 Sr0 3.350514 1_545
Si2 Sr0 3.350514 1_655
Si2 Sr1 3.357761 1_655
Si2 Sr1 3.357761 1_545
Si3 Sr3 3.348705 1_455
Si3 Sr3 3.348706 1_565
Si3 Sr1 3.350514 1_565
Si3 Sr1 3.350514 1_455
Si3 Sr0 3.357761 1_455
Si3 Sr0 3.357761 1_565
Sb0 Sr0 3.293624 1_555
Sb0 Sr2 3.419071 1_545
Sb0 Sr2 3.419071 1_655
Sb0 Sr3 3.783768 1_555
Sb0 Sr3 3.783768 1_556
Sb1 Sr1 3.293624 1_555
Sb1 Sr3 3.419071 1_565
Sb1 Sr3 3.419071 1_455
Sb1 Sr2 3.783768 1_555
Sb1 Sr2 3.783768 1_554
