# generated using pymatgen
data_K6Tc2N4O3
_symmetry_space_group_name_H-M   'P 1'
_cell_length_a   9.45283692
_cell_length_b   6.74566954
_cell_length_c   11.40420417
_cell_angle_alpha   55.54022824
_cell_angle_beta   90.00000000
_cell_angle_gamma   90.00000000
_symmetry_Int_Tables_number   1
_chemical_formula_structural   K6Tc2N4O3
_chemical_formula_sum   'K12 Tc4 N8 O6'
_cell_volume   599.59132120
_cell_formula_units_Z   2
loop_
 _symmetry_equiv_pos_site_id
 _symmetry_equiv_pos_as_xyz
  1  'x, y, z'
loop_
 _atom_site_type_symbol
 _atom_site_label
 _atom_site_symmetry_multiplicity
 _atom_site_fract_x
 _atom_site_fract_y
 _atom_site_fract_z
 _atom_site_occupancy
  K  K0  1  0.52298488  0.19422676  0.54626459  1
  K  K1  1  0.97701512  0.19422676  0.04626459  1
  K  K2  1  0.47701512  0.80577324  0.45373541  1
  K  K3  1  0.02298488  0.80577324  0.95373541  1
  K  K4  1  0.65582581  0.94474161  0.92801046  1
  K  K5  1  0.84417419  0.94474161  0.42801046  1
  K  K6  1  0.34417419  0.05525839  0.07198954  1
  K  K7  1  0.15582581  0.05525839  0.57198954  1
  K  K8  1  0.69725309  0.58273758  0.78077364  1
  K  K9  1  0.80274691  0.58273758  0.28077364  1
  K  K10  1  0.30274691  0.41726242  0.21922636  1
  K  K11  1  0.19725309  0.41726242  0.71922636  1
  Tc  Tc0  1  0.65022064  0.30581895  0.12793922  1
  Tc  Tc1  1  0.84977936  0.30581895  0.62793922  1
  Tc  Tc2  1  0.34977936  0.69418105  0.87206078  1
  Tc  Tc3  1  0.15022064  0.69418105  0.37206078  1
  N  N0  1  0.67277395  0.03627911  0.14224875  1
  N  N1  1  0.82722605  0.03627911  0.64224875  1
  N  N2  1  0.32722605  0.96372089  0.85775125  1
  N  N3  1  0.17277395  0.96372089  0.35775125  1
  N  N4  1  0.69981652  0.48380337  0.57571879  1
  N  N5  1  0.80018348  0.48380337  0.07571879  1
  N  N6  1  0.30018348  0.51619663  0.42428121  1
  N  N7  1  0.19981652  0.51619663  0.92428121  1
  O  O0  1  0.50000000  0.50000000  0.00000000  1
  O  O1  1  0.00000000  0.50000000  0.50000000  1
  O  O2  1  0.57967674  0.25349568  0.29965001  1
  O  O3  1  0.92032326  0.25349568  0.79965001  1
  O  O4  1  0.42032326  0.74650432  0.70034999  1
  O  O5  1  0.07967674  0.74650432  0.20034999  1
loop_
_geom_bond_atom_site_label_1
_geom_bond_atom_site_label_2
_geom_bond_distance
_geom_bond_site_symmetry_2
K0 O2 2.661652 1_555
K0 O4 2.673064 1_545
K0 N4 2.732252 1_555
K0 N6 2.769278 1_555
K0 N1 3.047069 1_555
K1 O3 2.661652 1_554
K1 O5 2.673064 1_645
K1 N5 2.732252 1_555
K1 N7 2.769278 1_654
K1 N0 3.047069 1_555
K2 O4 2.661652 1_555
K2 O2 2.673064 1_565
K2 N6 2.732252 1_555
K2 N4 2.769278 1_555
K2 N3 3.047069 1_555
K3 O5 2.661652 1_556
K3 O3 2.673064 1_465
K3 N7 2.732252 1_555
K3 N5 2.769278 1_456
K3 N2 3.047069 1_555
K4 N0 2.843154 1_566
K4 N5 2.905233 1_556
K4 O0 3.009473 1_556
K4 O3 3.046595 1_565
K4 N2 3.192301 1_555
K5 N1 2.843154 1_565
K5 N4 2.905233 1_555
K5 O1 3.009473 1_655
K5 O2 3.046595 1_565
K5 N3 3.192301 1_655
K6 N2 2.843154 1_544
K6 N7 2.905233 1_554
K6 O0 3.009473 1_555
K6 O5 3.046595 1_545
K6 N0 3.192301 1_555
K7 N3 2.843154 1_545
K7 N6 2.905233 1_555
K7 O1 3.009473 1_555
K7 O4 3.046595 1_545
K7 N1 3.192301 1_455
K8 N4 2.771394 1_555
K8 O4 2.787064 1_555
K8 N1 2.809949 1_565
K8 O0 2.908554 1_556
K8 O3 2.980659 1_555
K8 N5 3.188362 1_556
K9 N5 2.771394 1_555
K9 O5 2.787064 1_655
K9 N0 2.809949 1_565
K9 O1 2.908554 1_655
K9 O2 2.980659 1_555
K9 N4 3.188362 1_555
K10 N6 2.771394 1_555
K10 O2 2.787064 1_555
K10 N3 2.809949 1_545
K10 O0 2.908554 1_555
K10 O5 2.980659 1_555
K10 N7 3.188362 1_554
K11 N7 2.771394 1_555
K11 O3 2.787064 1_455
K11 N2 2.809949 1_545
K11 O1 2.908554 1_555
K11 O4 2.980659 1_555
K11 N6 3.188362 1_555
N0 Tc0 1.744205 1_555
N1 Tc1 1.744205 1_555
N2 Tc2 1.744205 1_555
N3 Tc3 1.744205 1_555
N4 Tc1 1.731048 1_555
N5 Tc0 1.731048 1_555
N6 Tc3 1.731048 1_555
N7 Tc2 1.731048 1_555
O0 Tc0 1.923081 1_555
O0 Tc2 1.923081 1_554
O1 Tc3 1.923081 1_555
O1 Tc1 1.923081 1_455
O2 Tc0 1.903086 1_555
O3 Tc1 1.903086 1_555
O4 Tc2 1.903086 1_555
O5 Tc3 1.903086 1_555
