# generated using pymatgen
data_KCrSn3O8
_symmetry_space_group_name_H-M   'P 1'
_cell_length_a   7.44972152
_cell_length_b   7.44972176
_cell_length_c   10.36160186
_cell_angle_alpha   46.85422352
_cell_angle_beta   46.85422228
_cell_angle_gamma   24.52375181
_symmetry_Int_Tables_number   1
_chemical_formula_structural   KCrSn3O8
_chemical_formula_sum   'K1 Cr1 Sn3 O8'
_cell_volume   170.49828087
_cell_formula_units_Z   1
loop_
 _symmetry_equiv_pos_site_id
 _symmetry_equiv_pos_as_xyz
  1  'x, y, z'
loop_
 _atom_site_type_symbol
 _atom_site_label
 _atom_site_symmetry_multiplicity
 _atom_site_fract_x
 _atom_site_fract_y
 _atom_site_fract_z
 _atom_site_occupancy
  K  K0  1  0.49496768  0.49496768  0.99224682  1
  Cr  Cr0  1  0.34942985  0.34942985  0.81860132  1
  Sn  Sn0  1  0.65644960  0.65644960  0.16912287  1
  Sn  Sn1  1  0.15842388  0.15842388  0.49311264  1
  Sn  Sn2  1  0.83529678  0.83529678  0.52462982  1
  O  O0  1  0.15518648  0.15518648  0.03954115  1
  O  O1  1  0.85060392  0.85060392  0.94463643  1
  O  O2  1  0.19962837  0.19962837  0.65247063  1
  O  O3  1  0.79496486  0.79496486  0.36356704  1
  O  O4  1  0.53753466  0.53753466  0.62814669  1
  O  O5  1  0.45998402  0.45998402  0.37472676  1
  O  O6  1  0.16707478  0.16707478  0.28876839  1
  O  O7  1  0.84045714  0.84045714  0.71043144  1
loop_
_geom_bond_atom_site_label_1
_geom_bond_atom_site_label_2
_geom_bond_distance
_geom_bond_site_symmetry_2
K0 O1 2.935265 1_455
K0 O1 2.935265 1_545
K0 O2 3.015613 1_655
K0 O2 3.015613 1_565
K0 O0 3.128090 1_656
K0 O0 3.128090 1_566
K0 O3 3.178782 1_456
K0 O3 3.178782 1_546
Cr0 O4 1.957140 1_555
Cr0 O7 1.995370 1_455
Cr0 O7 1.995370 1_545
Cr0 O0 2.043824 1_556
Cr0 O1 2.059187 1_545
Cr0 O1 2.059187 1_455
O0 Sn0 2.083494 1_545
O0 Sn0 2.083494 1_455
O1 Sn0 2.048963 1_556
O2 Sn1 2.114911 1_555
O2 Sn2 2.120716 1_545
O2 Sn2 2.120717 1_455
O3 Sn2 2.121690 1_555
O3 Sn1 2.126545 1_565
O3 Sn1 2.126545 1_655
O4 Sn1 2.027810 1_655
O4 Sn1 2.027811 1_565
O5 Sn0 2.047310 1_555
O5 Sn2 2.065148 1_455
O5 Sn2 2.065149 1_545
O6 Sn1 2.031183 1_555
O6 Sn0 2.081474 1_455
O6 Sn0 2.081474 1_545
O7 Sn2 1.978510 1_555
