# generated using pymatgen
data_Na5VAs3
_symmetry_space_group_name_H-M   'P 1'
_cell_length_a   7.46035768
_cell_length_b   8.17118086
_cell_length_c   15.59643872
_cell_angle_alpha   59.07955564
_cell_angle_beta   90.00000000
_cell_angle_gamma   90.00000000
_symmetry_Int_Tables_number   1
_chemical_formula_structural   Na5VAs3
_chemical_formula_sum   'Na20 V4 As12'
_cell_volume   815.63766633
_cell_formula_units_Z   4
loop_
 _symmetry_equiv_pos_site_id
 _symmetry_equiv_pos_as_xyz
  1  'x, y, z'
loop_
 _atom_site_type_symbol
 _atom_site_label
 _atom_site_symmetry_multiplicity
 _atom_site_fract_x
 _atom_site_fract_y
 _atom_site_fract_z
 _atom_site_occupancy
  Na  Na0  1  0.51135082  0.55376356  0.75661951  1
  Na  Na1  1  0.01135082  0.44623644  0.74338049  1
  Na  Na2  1  0.48864918  0.44623644  0.24338049  1
  Na  Na3  1  0.98864918  0.55376356  0.25661951  1
  Na  Na4  1  0.97773727  0.26294831  0.57693254  1
  Na  Na5  1  0.47773727  0.73705169  0.92306746  1
  Na  Na6  1  0.02226273  0.73705169  0.42306746  1
  Na  Na7  1  0.52226273  0.26294831  0.07693254  1
  Na  Na8  1  0.48850967  0.08291796  0.59222625  1
  Na  Na9  1  0.98850967  0.91708204  0.90777375  1
  Na  Na10  1  0.51149033  0.91708204  0.40777375  1
  Na  Na11  1  0.01149033  0.08291796  0.09222625  1
  Na  Na12  1  0.34065633  0.15604299  0.91914805  1
  Na  Na13  1  0.84065633  0.84395701  0.58085195  1
  Na  Na14  1  0.65934367  0.84395701  0.08085195  1
  Na  Na15  1  0.15934367  0.15604299  0.41914805  1
  Na  Na16  1  0.15230215  0.83760157  0.74017756  1
  Na  Na17  1  0.65230215  0.16239843  0.75982244  1
  Na  Na18  1  0.84769785  0.16239843  0.25982244  1
  Na  Na19  1  0.34769785  0.83760157  0.24017756  1
  V  V0  1  0.13468093  0.48934883  0.08065748  1
  V  V1  1  0.63468093  0.51065117  0.41934252  1
  V  V2  1  0.86531907  0.51065117  0.91934252  1
  V  V3  1  0.36531907  0.48934883  0.58065748  1
  As  As0  1  0.24282321  0.76635788  0.57916203  1
  As  As1  1  0.74282321  0.23364212  0.92083797  1
  As  As2  1  0.75717679  0.23364212  0.42083797  1
  As  As3  1  0.25717679  0.76635788  0.07916203  1
  As  As4  1  0.26651480  0.19398085  0.72482902  1
  As  As5  1  0.76651480  0.80601915  0.77517098  1
  As  As6  1  0.73348520  0.80601915  0.27517098  1
  As  As7  1  0.23348520  0.19398085  0.22482902  1
  As  As8  1  0.19172914  0.48161266  0.92903241  1
  As  As9  1  0.69172914  0.51838734  0.57096759  1
  As  As10  1  0.80827086  0.51838734  0.07096759  1
  As  As11  1  0.30827086  0.48161266  0.42903241  1
loop_
_geom_bond_atom_site_label_1
_geom_bond_atom_site_label_2
_geom_bond_distance
_geom_bond_site_symmetry_2
As0 V3 2.429985 1_555
As0 Na15 2.930611 1_565
As0 Na16 2.933229 1_555
As0 Na6 3.048098 1_555
As0 Na10 3.048959 1_555
As0 Na13 3.069491 1_455
As0 Na1 3.082056 1_555
As0 Na0 3.122509 1_555
As0 Na8 3.260916 1_565
As1 V2 2.429985 1_555
As1 Na14 2.930611 1_546
As1 Na17 2.933229 1_555
As1 Na7 3.048098 1_556
As1 Na11 3.048959 1_656
As1 Na12 3.069491 1_555
As1 Na0 3.082056 1_555
As1 Na1 3.122509 1_655
As1 Na9 3.260916 1_545
As2 V1 2.429985 1_555
As2 Na13 2.930611 1_545
As2 Na18 2.933229 1_555
As2 Na4 3.048098 1_555
As2 Na8 3.048959 1_555
As2 Na15 3.069491 1_655
As2 Na3 3.082056 1_555
As2 Na2 3.122509 1_555
As2 Na10 3.260916 1_545
As3 V0 2.429985 1_555
As3 Na12 2.930611 1_564
As3 Na19 2.933229 1_555
As3 Na5 3.048098 1_554
As3 Na9 3.048959 1_454
As3 Na14 3.069491 1_555
As3 Na2 3.082056 1_555
As3 Na3 3.122509 1_455
As3 Na11 3.260916 1_565
As4 V3 2.418091 1_555
As4 Na17 2.916033 1_555
As4 Na16 2.923508 1_545
As4 Na1 2.927289 1_555
As4 Na12 2.936251 1_555
As4 Na4 2.990605 1_455
As4 Na8 3.126093 1_555
As4 Na9 3.305676 1_445
As5 V2 2.418091 1_555
As5 Na16 2.916033 1_655
As5 Na17 2.923508 1_565
As5 Na0 2.927289 1_555
As5 Na13 2.936251 1_555
As5 Na5 2.990605 1_555
As5 Na9 3.126093 1_555
As5 Na8 3.305676 1_565
As6 V1 2.418091 1_555
As6 Na19 2.916033 1_555
As6 Na18 2.923508 1_565
As6 Na3 2.927289 1_555
As6 Na14 2.936251 1_555
As6 Na6 2.990605 1_655
As6 Na10 3.126093 1_555
As6 Na11 3.305676 1_665
As7 V0 2.418091 1_555
As7 Na18 2.916033 1_455
As7 Na19 2.923508 1_545
As7 Na2 2.927289 1_555
As7 Na15 2.936251 1_555
As7 Na7 2.990605 1_555
As7 Na11 3.126093 1_555
As7 Na10 3.305676 1_545
As8 V0 2.435383 1_556
As8 V2 2.443803 1_455
As8 Na16 2.901462 1_555
As8 Na5 2.952700 1_555
As8 Na12 2.959190 1_555
As8 Na7 3.218446 1_556
As8 Na11 3.221504 1_556
As8 Na1 3.337450 1_555
As8 Na0 3.411012 1_555
As9 V1 2.435383 1_555
As9 V3 2.443803 1_555
As9 Na17 2.901462 1_555
As9 Na4 2.952700 1_555
As9 Na13 2.959190 1_555
As9 Na6 3.218446 1_655
As9 Na10 3.221504 1_555
As9 Na0 3.337450 1_555
As9 Na1 3.411012 1_655
As10 V2 2.435383 1_554
As10 V0 2.443803 1_655
As10 Na18 2.901462 1_555
As10 Na7 2.952700 1_555
As10 Na14 2.959190 1_555
As10 Na5 3.218446 1_554
As10 Na9 3.221504 1_554
As10 Na3 3.337450 1_555
As10 Na2 3.411012 1_555
As11 V3 2.435383 1_555
As11 V1 2.443803 1_555
As11 Na19 2.901462 1_555
As11 Na6 2.952700 1_555
As11 Na15 2.959190 1_555
As11 Na4 3.218446 1_455
As11 Na8 3.221504 1_555
As11 Na2 3.337450 1_555
As11 Na3 3.411012 1_455
