# generated using pymatgen
data_Ta16CoCu7N4
_symmetry_space_group_name_H-M   'P 1'
_cell_length_a   8.19906399
_cell_length_b   8.19906452
_cell_length_c   8.19906419
_cell_angle_alpha   60.18500449
_cell_angle_beta   60.18500093
_cell_angle_gamma   60.18499951
_symmetry_Int_Tables_number   1
_chemical_formula_structural   Ta16CoCu7N4
_chemical_formula_sum   'Ta16 Co1 Cu7 N4'
_cell_volume   391.37543017
_cell_formula_units_Z   1
loop_
 _symmetry_equiv_pos_site_id
 _symmetry_equiv_pos_as_xyz
  1  'x, y, z'
loop_
 _atom_site_type_symbol
 _atom_site_label
 _atom_site_symmetry_multiplicity
 _atom_site_fract_x
 _atom_site_fract_y
 _atom_site_fract_z
 _atom_site_occupancy
  Ta  Ta0  1  0.12062336  0.63008779  0.63008779  1
  Ta  Ta1  1  0.63008779  0.12062336  0.63008779  1
  Ta  Ta2  1  0.63008779  0.63008779  0.12062336  1
  Ta  Ta3  1  0.62522135  0.62522135  0.62522135  1
  Ta  Ta4  1  0.81467035  0.81467035  0.18273717  1
  Ta  Ta5  1  0.18696771  0.18696771  0.81323046  1
  Ta  Ta6  1  0.81467035  0.18273717  0.81467035  1
  Ta  Ta7  1  0.18696771  0.81323046  0.18696771  1
  Ta  Ta8  1  0.18273717  0.81467035  0.81467035  1
  Ta  Ta9  1  0.81323046  0.18696771  0.18696771  1
  Ta  Ta10  1  0.43710222  0.43710222  0.06412462  1
  Ta  Ta11  1  0.06413497  0.06413497  0.43535957  1
  Ta  Ta12  1  0.43710222  0.06412462  0.43710222  1
  Ta  Ta13  1  0.06413497  0.43535957  0.06413497  1
  Ta  Ta14  1  0.06412462  0.43710222  0.43710222  1
  Ta  Ta15  1  0.43535957  0.06413497  0.06413497  1
  Co  Co0  1  0.82621142  0.82621142  0.82621142  1
  Cu  Cu0  1  0.75223839  0.41619385  0.41619385  1
  Cu  Cu1  1  0.41619385  0.75223839  0.41619385  1
  Cu  Cu2  1  0.41619385  0.41619385  0.75223839  1
  Cu  Cu3  1  0.41706884  0.41706884  0.41706884  1
  Cu  Cu4  1  0.49679147  0.83397576  0.83397576  1
  Cu  Cu5  1  0.83397576  0.49679147  0.83397576  1
  Cu  Cu6  1  0.83397576  0.83397576  0.49679147  1
  N  N0  1  0.62408606  0.12545920  0.12545920  1
  N  N1  1  0.12545920  0.62408606  0.12545920  1
  N  N2  1  0.12545920  0.12545920  0.62408606  1
  N  N3  1  0.12511960  0.12511960  0.12511960  1
loop_
_geom_bond_atom_site_label_1
_geom_bond_atom_site_label_2
_geom_bond_distance
_geom_bond_site_symmetry_2
Co0 Ta0 2.418664 1_655
Co0 Ta1 2.418664 1_565
Co0 Ta2 2.418664 1_556
Co0 Cu4 2.639172 1_555
Co0 Cu6 2.639172 1_555
Co0 Cu5 2.639172 1_555
Co0 Ta8 2.832253 1_655
Co0 Ta4 2.832253 1_556
Co0 Ta6 2.832253 1_565
Co0 Ta15 3.038376 1_566
Co0 Ta13 3.038376 1_656
Co0 Ta11 3.038376 1_665
Cu0 Ta3 2.515969 1_555
Cu0 Ta2 2.528284 1_555
Cu0 Ta1 2.528284 1_555
Cu0 Ta14 2.738427 1_655
Cu0 Ta13 2.739463 1_655
Cu0 Ta11 2.739463 1_655
Cu0 Cu3 2.740962 1_555
Cu0 Cu1 2.762952 1_555
Cu0 Cu2 2.762952 1_555
Cu0 Ta9 2.992988 1_555
Cu0 Ta6 3.011657 1_555
Cu0 Ta4 3.011657 1_555
Cu1 Ta3 2.515969 1_555
Cu1 Ta2 2.528284 1_555
Cu1 Ta0 2.528284 1_555
Cu1 Ta12 2.738427 1_565
Cu1 Ta11 2.739463 1_565
Cu1 Ta15 2.739464 1_565
Cu1 Cu3 2.740962 1_555
Cu1 Cu2 2.762952 1_555
Cu1 Ta7 2.992988 1_555
Cu1 Ta4 3.011657 1_555
Cu1 Ta8 3.011657 1_555
Cu2 Ta3 2.515969 1_555
Cu2 Ta0 2.528284 1_555
Cu2 Ta1 2.528284 1_555
Cu2 Ta10 2.738427 1_556
Cu2 Ta13 2.739463 1_556
Cu2 Ta15 2.739464 1_556
Cu2 Cu3 2.740962 1_555
Cu2 Ta5 2.992988 1_555
Cu2 Ta6 3.011657 1_555
Cu2 Ta8 3.011657 1_555
Cu3 Ta0 2.568900 1_555
Cu3 Ta1 2.568901 1_555
Cu3 Ta2 2.568901 1_555
Cu3 Ta14 2.740367 1_555
Cu3 Ta10 2.740367 1_555
Cu3 Ta12 2.740367 1_555
Cu3 Ta9 3.003514 1_555
Cu3 Ta7 3.003515 1_555
Cu3 Ta5 3.003515 1_555
Cu4 Ta3 2.509303 1_555
Cu4 Ta2 2.518568 1_556
Cu4 Ta1 2.518568 1_565
Cu4 Ta7 2.736337 1_556
Cu4 Ta5 2.736337 1_565
Cu4 Ta8 2.741531 1_555
Cu4 Cu5 2.772323 1_555
Cu4 Cu6 2.772323 1_555
Cu4 Ta12 2.991335 1_565
Cu4 Ta10 2.991335 1_556
Cu4 Ta15 3.004453 1_566
Cu5 Ta3 2.509303 1_555
Cu5 Ta2 2.518568 1_556
Cu5 Ta0 2.518568 1_655
Cu5 Ta5 2.736337 1_655
Cu5 Ta9 2.736337 1_556
Cu5 Ta6 2.741531 1_555
Cu5 Cu6 2.772323 1_555
Cu5 Ta10 2.991335 1_556
Cu5 Ta14 2.991335 1_655
Cu5 Ta13 3.004453 1_656
Cu6 Ta3 2.509303 1_555
Cu6 Ta0 2.518568 1_655
Cu6 Ta1 2.518568 1_565
Cu6 Ta7 2.736337 1_655
Cu6 Ta9 2.736337 1_565
Cu6 Ta4 2.741531 1_555
Cu6 Ta12 2.991335 1_565
Cu6 Ta14 2.991335 1_655
Cu6 Ta11 3.004453 1_665
N0 Ta15 2.167657 1_555
N0 Ta9 2.173016 1_555
N0 Ta12 2.173868 1_555
N0 Ta10 2.173868 1_555
N0 Ta6 2.176174 1_554
N0 Ta4 2.176175 1_545
N1 Ta13 2.167657 1_555
N1 Ta7 2.173016 1_555
N1 Ta10 2.173867 1_555
N1 Ta14 2.173868 1_555
N1 Ta4 2.176174 1_455
N1 Ta8 2.176175 1_554
N2 Ta11 2.167657 1_555
N2 Ta5 2.173016 1_555
N2 Ta12 2.173867 1_555
N2 Ta14 2.173868 1_555
N2 Ta6 2.176174 1_455
N2 Ta8 2.176175 1_545
N3 Ta15 2.165507 1_555
N3 Ta11 2.165507 1_555
N3 Ta13 2.165507 1_555
N3 Ta9 2.174923 1_455
N3 Ta5 2.174923 1_554
N3 Ta7 2.174924 1_545
