# generated using pymatgen
data_Ta2Ge2OsPt
_symmetry_space_group_name_H-M   'P 1'
_cell_length_a   6.01898688
_cell_length_b   6.01898808
_cell_length_c   7.35443046
_cell_angle_alpha   65.84488357
_cell_angle_beta   65.84488839
_cell_angle_gamma   89.99999619
_symmetry_Int_Tables_number   1
_chemical_formula_structural   Ta2Ge2OsPt
_chemical_formula_sum   'Ta4 Ge4 Os2 Pt2'
_cell_volume   217.28935319
_cell_formula_units_Z   2
loop_
 _symmetry_equiv_pos_site_id
 _symmetry_equiv_pos_as_xyz
  1  'x, y, z'
loop_
 _atom_site_type_symbol
 _atom_site_label
 _atom_site_symmetry_multiplicity
 _atom_site_fract_x
 _atom_site_fract_y
 _atom_site_fract_z
 _atom_site_occupancy
  Ta  Ta0  1  0.12499900  0.12135043  0.25000100  1
  Ta  Ta1  1  0.62500000  0.62864957  0.25000100  1
  Ta  Ta2  1  0.37135043  0.87500100  0.74999900  1
  Ta  Ta3  1  0.87864857  0.37500000  0.75000100  1
  Ge  Ge0  1  0.62499900  0.11733578  0.25000100  1
  Ge  Ge1  1  0.12499900  0.63266422  0.25000100  1
  Ge  Ge2  1  0.36733578  0.37499900  0.74999900  1
  Ge  Ge3  1  0.88266322  0.87500000  0.75000100  1
  Os  Os0  1  0.00000000  0.00000000  0.00000000  1
  Os  Os1  1  0.24999900  0.75000000  0.50000000  1
  Pt  Pt0  1  0.49999900  0.49999900  0.00000000  1
  Pt  Pt1  1  0.75000000  0.25000100  0.50000000  1
loop_
_geom_bond_atom_site_label_1
_geom_bond_atom_site_label_2
_geom_bond_distance
_geom_bond_site_symmetry_2
Ge0 Os1 2.576853 1_545
Ge0 Os0 2.576860 1_655
Ge0 Pt0 2.630177 1_555
Ge0 Pt1 2.630177 1_555
Ge0 Ta1 2.941396 1_545
Ge0 Ta2 2.999320 1_545
Ge0 Ta3 2.999332 1_554
Ge0 Ta0 3.009590 1_555
Ge0 Ta0 3.009590 1_655
Ge0 Ta1 3.077592 1_555
Ge1 Os1 2.576846 1_555
Ge1 Os0 2.576853 1_565
Ge1 Pt1 2.630170 1_455
Ge1 Pt0 2.630184 1_555
Ge1 Ta0 2.941396 1_565
Ge1 Ta3 2.999332 1_455
Ge1 Ta2 2.999344 1_554
Ge1 Ta1 3.009584 1_455
Ge1 Ta1 3.009596 1_555
Ge1 Ta0 3.077592 1_555
Ge2 Os0 2.576849 1_556
Ge2 Os1 2.576856 1_555
Ge2 Pt1 2.630167 1_555
Ge2 Pt0 2.630181 1_556
Ge2 Ta3 2.941396 1_455
Ge2 Ta1 2.999321 1_555
Ge2 Ta0 2.999344 1_556
Ge2 Ta2 3.009579 1_545
Ge2 Ta2 3.009603 1_555
Ge2 Ta3 3.077591 1_555
Ge3 Os0 2.576849 1_666
Ge3 Os1 2.576856 1_655
Ge3 Pt1 2.630180 1_565
Ge3 Pt0 2.630180 1_556
Ge3 Ta2 2.941396 1_655
Ge3 Ta1 2.999332 1_556
Ge3 Ta0 2.999332 1_665
Ge3 Ta3 3.009591 1_565
Ge3 Ta3 3.009591 1_555
Ge3 Ta2 3.077591 1_555
Os0 Ta2 2.590607 1_544
Os0 Ta1 2.590607 1_445
Os0 Ta3 2.590607 1_454
Os0 Ta0 2.590611 1_555
Os1 Ta0 2.590604 1_565
Os1 Ta3 2.590607 1_455
Os1 Ta1 2.590607 1_555
Os1 Ta2 2.590607 1_555
Pt0 Ta3 2.615995 1_554
Pt0 Ta0 2.615998 1_555
Pt0 Ta2 2.616008 1_554
Pt0 Ta1 2.616016 1_555
Pt1 Ta1 2.615994 1_555
Pt1 Ta0 2.615998 1_655
Pt1 Ta2 2.616001 1_545
Pt1 Ta3 2.616002 1_555
