# generated using pymatgen
data_Sr10CoRe3N14
_symmetry_space_group_name_H-M   'P 1'
_cell_length_a   6.41122263
_cell_length_b   9.07734713
_cell_length_c   9.33316966
_cell_angle_alpha   114.09791924
_cell_angle_beta   99.30364144
_cell_angle_gamma   89.84981034
_symmetry_Int_Tables_number   1
_chemical_formula_structural   Sr10CoRe3N14
_chemical_formula_sum   'Sr10 Co1 Re3 N14'
_cell_volume   488.08927544
_cell_formula_units_Z   1
loop_
 _symmetry_equiv_pos_site_id
 _symmetry_equiv_pos_as_xyz
  1  'x, y, z'
loop_
 _atom_site_type_symbol
 _atom_site_label
 _atom_site_symmetry_multiplicity
 _atom_site_fract_x
 _atom_site_fract_y
 _atom_site_fract_z
 _atom_site_occupancy
  Sr  Sr0  1  0.86659890  0.57731633  0.33762896  1
  Sr  Sr1  1  0.26805400  0.99022214  0.56487053  1
  Sr  Sr2  1  0.68216532  0.39257920  0.82168319  1
  Sr  Sr3  1  0.29649171  0.58995506  0.14621074  1
  Sr  Sr4  1  0.39139149  0.78736800  0.91108109  1
  Sr  Sr5  1  0.61432835  0.21728028  0.10788417  1
  Sr  Sr6  1  0.14623952  0.40591974  0.65062598  1
  Sr  Sr7  1  0.87895834  0.83452304  0.75671988  1
  Sr  Sr8  1  0.14463001  0.16897504  0.25955667  1
  Sr  Sr9  1  0.72518999  0.04158524  0.43357519  1
  Co  Co0  1  0.59948649  0.37072885  0.47437810  1
  Re  Re0  1  0.42657764  0.63108207  0.52103395  1
  Re  Re1  1  0.11782110  0.21494163  0.91407681  1
  Re  Re2  1  0.87426598  0.77604726  0.08477654  1
  N  N0  1  0.56280573  0.58442130  0.68768534  1
  N  N1  1  0.41988766  0.44946648  0.32738477  1
  N  N2  1  0.16754880  0.69864888  0.58187580  1
  N  N3  1  0.84931440  0.30084812  0.40133975  1
  N  N4  1  0.41733766  0.20825498  0.51519497  1
  N  N5  1  0.58066118  0.79501885  0.51040323  1
  N  N6  1  0.94877515  0.13585534  0.71616591  1
  N  N7  1  0.04463640  0.84497830  0.28067949  1
  N  N8  1  0.22634651  0.05193674  0.96494602  1
  N  N9  1  0.76558967  0.94360014  0.04203150  1
  N  N10  1  0.34581029  0.33121014  0.91035321  1
  N  N11  1  0.96785124  0.34466175  0.06430332  1
  N  N12  1  0.02540636  0.65632674  0.92901323  1
  N  N13  1  0.64582811  0.65625035  0.08452468  1
loop_
_geom_bond_atom_site_label_1
_geom_bond_atom_site_label_2
_geom_bond_distance
_geom_bond_site_symmetry_2
Co0 N3 1.851246 1_555
Co0 N1 2.001111 1_555
Co0 N4 2.072599 1_555
Co0 N0 2.185612 1_555
N0 Re0 1.859630 1_555
N0 Sr4 2.557813 1_555
N0 Sr2 2.577633 1_555
N0 Sr7 2.843418 1_555
N0 Sr6 3.023915 1_555
N1 Re0 1.878409 1_555
N1 Sr3 2.536626 1_555
N1 Sr5 2.734802 1_555
N1 Sr8 2.888582 1_555
N1 Sr0 3.065382 1_555
N2 Re0 1.863246 1_555
N2 Sr0 2.582862 1_455
N2 Sr7 2.632143 1_455
N2 Sr1 2.798304 1_555
N2 Sr4 2.950980 1_555
N2 Sr6 2.985578 1_555
N3 Sr8 2.504680 1_655
N3 Sr6 2.590781 1_655
N3 Sr9 2.632071 1_555
N3 Sr5 2.705880 1_555
N3 Sr0 2.811633 1_555
N4 Sr1 2.439418 1_545
N4 Sr9 2.508806 1_555
N4 Sr6 2.584566 1_555
N4 Sr8 2.614648 1_555
N4 Sr2 2.898445 1_555
N5 Re0 1.833074 1_555
N5 Sr7 2.641955 1_555
N5 Sr1 2.643897 1_555
N5 Sr9 2.813964 1_565
N5 Sr0 2.863698 1_555
N6 Re1 1.837346 1_655
N6 Sr9 2.585399 1_555
N6 Sr1 2.706963 1_645
N6 Sr2 2.823385 1_555
N6 Sr7 2.955011 1_545
N6 Sr6 3.078600 1_655
N7 Re2 1.830642 1_455
N7 Sr1 2.598279 1_555
N7 Sr3 2.793643 1_555
N7 Sr9 2.874371 1_465
N7 Sr0 2.958700 1_455
N7 Sr8 3.102213 1_565
N8 Re1 1.833122 1_555
N8 Sr4 2.512520 1_545
N8 Sr8 2.653516 1_556
N8 Sr5 2.744321 1_556
N8 Sr7 2.850199 1_445
N9 Re2 1.832462 1_555
N9 Sr5 2.534392 1_565
N9 Sr4 2.629618 1_554
N9 Sr7 2.658662 1_554
N9 Sr8 3.041661 1_665
N10 Re1 1.818268 1_555
N10 Sr3 2.541917 1_556
N10 Sr2 2.570068 1_555
N10 Sr5 2.820180 1_556
N10 Sr6 2.882393 1_555
N11 Re1 1.832655 1_654
N11 Sr5 2.708395 1_555
N11 Sr0 2.741888 1_555
N11 Sr3 2.845247 1_655
N11 Sr2 2.851422 1_554
N11 Sr8 2.973990 1_655
N12 Re2 1.842075 1_456
N12 Sr4 2.693095 1_555
N12 Sr3 2.710270 1_556
N12 Sr7 2.776999 1_455
N12 Sr6 2.887303 1_555
N12 Sr2 2.989043 1_455
N13 Re2 1.825549 1_555
N13 Sr3 2.533110 1_555
N13 Sr2 2.681043 1_554
N13 Sr4 2.721640 1_554
N13 Sr0 2.897038 1_555
