# generated using pymatgen
data_LiY16In3Pd4
_symmetry_space_group_name_H-M   'P 1'
_cell_length_a   9.78302611
_cell_length_b   9.73248000
_cell_length_c   9.73247988
_cell_angle_alpha   59.99999701
_cell_angle_beta   60.17076395
_cell_angle_gamma   60.17076532
_symmetry_Int_Tables_number   1
_chemical_formula_structural   LiY16In3Pd4
_chemical_formula_sum   'Li1 Y16 In3 Pd4'
_cell_volume   656.93347241
_cell_formula_units_Z   1
loop_
 _symmetry_equiv_pos_site_id
 _symmetry_equiv_pos_as_xyz
  1  'x, y, z'
loop_
 _atom_site_type_symbol
 _atom_site_label
 _atom_site_symmetry_multiplicity
 _atom_site_fract_x
 _atom_site_fract_y
 _atom_site_fract_z
 _atom_site_occupancy
  Li  Li0  1  0.28532794  0.57155735  0.57155735  1
  Y  Y0  1  0.35180943  0.35142348  0.35142348  1
  Y  Y1  1  0.35180943  0.35142348  0.94534361  1
  Y  Y2  1  0.35180943  0.94534361  0.35142348  1
  Y  Y3  1  0.93757063  0.35414379  0.35414379  1
  Y  Y4  1  0.80837708  0.19075233  0.19075233  1
  Y  Y5  1  0.18749581  0.81288143  0.81288143  1
  Y  Y6  1  0.18749581  0.81288143  0.18674332  1
  Y  Y7  1  0.80837708  0.19075233  0.81011825  1
  Y  Y8  1  0.18749581  0.18674332  0.81288143  1
  Y  Y9  1  0.80837708  0.81011825  0.19075233  1
  Y  Y10  1  0.93675534  0.56389803  0.56389803  1
  Y  Y11  1  0.56411775  0.93643415  0.93643415  1
  Y  Y12  1  0.56411775  0.93643415  0.56301194  1
  Y  Y13  1  0.93675534  0.56389803  0.93544659  1
  Y  Y14  1  0.56411775  0.56301194  0.93643415  1
  Y  Y15  1  0.93675534  0.93544659  0.56389803  1
  In  In0  1  0.58076779  0.58403056  0.58403056  1
  In  In1  1  0.58076779  0.58403056  0.25116909  1
  In  In2  1  0.58076779  0.25116909  0.58403056  1
  Pd  Pd0  1  0.14051021  0.14566780  0.14566780  1
  Pd  Pd1  1  0.14051021  0.14566780  0.56815419  1
  Pd  Pd2  1  0.14051021  0.56815419  0.14566780  1
  Pd  Pd3  1  0.56759815  0.14413428  0.14413428  1
loop_
_geom_bond_atom_site_label_1
_geom_bond_atom_site_label_2
_geom_bond_distance
_geom_bond_site_symmetry_2
Li0 Y1 3.379468 1_555
Li0 Y2 3.379469 1_555
Li0 Y0 3.379469 1_555
Li0 Y13 3.485846 1_455
Li0 Y15 3.485846 1_455
Li0 Y10 3.485857 1_455
Li0 Y6 3.604475 1_555
Li0 Y8 3.604475 1_555
Li0 Y5 3.604491 1_555
Y0 Y14 3.529811 1_554
Y0 Y12 3.529811 1_545
Y0 Y10 3.551000 1_455
Y1 Y14 3.529800 1_555
Y1 Y11 3.529817 1_545
Y1 Y13 3.551006 1_455
Y10 Y3 3.531284 1_555
Y10 Y13 3.616089 1_555
Y10 Y15 3.616089 1_555
Y10 Y14 3.645043 1_555
Y10 Y12 3.645043 1_555
Y10 Y7 3.653677 1_555
Y10 Y9 3.653677 1_555
Y10 Y6 3.663874 1_655
Y10 Y8 3.663874 1_655
Y11 Y2 3.529817 1_556
Y11 Y12 3.634324 1_555
Y11 Y14 3.634324 1_555
Y11 Y7 3.642324 1_565
Y11 Y9 3.642324 1_556
Y11 Y15 3.645043 1_555
Y11 Y13 3.645043 1_555
Y11 Y6 3.674905 1_556
Y11 Y8 3.674905 1_565
Y12 Y2 3.529800 1_555
Y12 Y14 3.634324 1_555
Y12 Y9 3.642308 1_555
Y12 Y4 3.642318 1_565
Y12 Y15 3.645044 1_555
Y12 Y5 3.674905 1_555
Y12 Y8 3.674924 1_565
Y13 Y3 3.531317 1_556
Y13 Y15 3.616089 1_555
Y13 Y14 3.645044 1_555
Y13 Y4 3.653677 1_556
Y13 Y9 3.653693 1_556
Y13 Y8 3.663855 1_655
Y13 Y5 3.663887 1_655
Y14 Y7 3.642308 1_555
Y14 Y4 3.642318 1_556
Y14 Y5 3.674905 1_555
Y14 Y6 3.674924 1_556
Y15 Y3 3.531317 1_565
Y15 Y2 3.551006 1_655
Y15 Y4 3.653677 1_565
Y15 Y7 3.653693 1_565
Y15 Y6 3.663855 1_655
Y15 Y5 3.663887 1_655
In0 Li0 3.015979 1_555
In0 In1 3.239568 1_555
In0 In2 3.239568 1_555
In0 Y14 3.256901 1_555
In0 Y12 3.256901 1_555
In0 Y10 3.299425 1_555
In0 Y3 3.415107 1_555
In0 Y1 3.428662 1_555
In0 Y2 3.428662 1_555
In0 Y9 3.524709 1_555
In0 Y7 3.524709 1_555
In0 Y5 3.554560 1_555
In1 Li0 3.015990 1_555
In1 In2 3.239567 1_555
In1 Y11 3.256901 1_554
In1 Y14 3.256901 1_554
In1 Y13 3.299425 1_554
In1 Y3 3.415125 1_555
In1 Y0 3.428655 1_555
In1 Y2 3.428671 1_555
In1 Y4 3.524701 1_555
In1 Y9 3.524718 1_555
In1 Y6 3.554544 1_555
In2 Li0 3.015990 1_555
In2 Y11 3.256901 1_545
In2 Y12 3.256901 1_545
In2 Y15 3.299425 1_545
In2 Y3 3.415125 1_555
In2 Y0 3.428655 1_555
In2 Y1 3.428671 1_555
In2 Y4 3.524701 1_555
In2 Y7 3.524718 1_555
In2 Y8 3.554544 1_555
Pd0 Y8 2.875433 1_554
Pd0 Y6 2.875433 1_545
Pd0 Y3 2.876998 1_455
Pd0 Y1 2.879027 1_554
Pd0 Y2 2.879027 1_545
Pd0 Y4 2.880731 1_455
Pd0 Y15 3.519259 1_445
Pd0 Y13 3.519259 1_454
Pd0 Y11 3.581002 1_544
Pd1 Y5 2.875440 1_545
Pd1 Y8 2.875452 1_555
Pd1 Y3 2.876984 1_455
Pd1 Y0 2.879027 1_555
Pd1 Y2 2.879027 1_545
Pd1 Y7 2.880731 1_455
Pd1 Y10 3.519254 1_455
Pd1 Y15 3.519271 1_445
Pd1 Y12 3.580996 1_545
Pd2 Y5 2.875440 1_554
Pd2 Y6 2.875452 1_555
Pd2 Y3 2.876984 1_455
Pd2 Y0 2.879027 1_555
Pd2 Y1 2.879027 1_554
Pd2 Y9 2.880731 1_455
Pd2 Y10 3.519254 1_455
Pd2 Y13 3.519271 1_454
Pd2 Y14 3.580996 1_554
Pd3 Y0 2.862322 1_555
Pd3 Y2 2.862329 1_545
Pd3 Y1 2.862329 1_554
Pd3 Y4 2.879684 1_555
Pd3 Y7 2.879690 1_554
Pd3 Y9 2.879690 1_545
Pd3 Y12 3.520874 1_545
Pd3 Y14 3.520874 1_554
Pd3 Y11 3.520899 1_544
