# generated using pymatgen
data_K2Ca(SiS3)2
_symmetry_space_group_name_H-M   'P 1'
_cell_length_a   8.58507925
_cell_length_b   8.58508007
_cell_length_c   8.55553633
_cell_angle_alpha   90.61731978
_cell_angle_beta   90.61731706
_cell_angle_gamma   114.42588869
_symmetry_Int_Tables_number   1
_chemical_formula_structural   K2Ca(SiS3)2
_chemical_formula_sum   'K4 Ca2 Si4 S12'
_cell_volume   574.02181812
_cell_formula_units_Z   2
loop_
 _symmetry_equiv_pos_site_id
 _symmetry_equiv_pos_as_xyz
  1  'x, y, z'
loop_
 _atom_site_type_symbol
 _atom_site_label
 _atom_site_symmetry_multiplicity
 _atom_site_fract_x
 _atom_site_fract_y
 _atom_site_fract_z
 _atom_site_occupancy
  K  K0  1  0.25551681  0.53489967  0.52359714  1
  K  K1  1  0.74448319  0.46510033  0.47640286  1
  K  K2  1  0.46510033  0.74448319  0.97640286  1
  K  K3  1  0.53489967  0.25551681  0.02359714  1
  Ca  Ca0  1  0.99909444  0.00090556  0.25000000  1
  Ca  Ca1  1  0.00090556  0.99909444  0.75000000  1
  Si  Si0  1  0.97675633  0.65432965  0.04339792  1
  Si  Si1  1  0.02324367  0.34567035  0.95660208  1
  Si  Si2  1  0.34567035  0.02324367  0.45660208  1
  Si  Si3  1  0.65432965  0.97675633  0.54339792  1
  S  S0  1  0.65876342  0.76404461  0.65390810  1
  S  S1  1  0.90697761  0.49327803  0.83433431  1
  S  S2  1  0.23595539  0.34123658  0.84609190  1
  S  S3  1  0.49327803  0.90697761  0.33433431  1
  S  S4  1  0.34123658  0.23595539  0.34609190  1
  S  S5  1  0.89887161  0.16368646  0.50054427  1
  S  S6  1  0.83631354  0.10112839  0.99945573  1
  S  S7  1  0.16368646  0.89887161  0.00054427  1
  S  S8  1  0.09302239  0.50672197  0.16566569  1
  S  S9  1  0.50672197  0.09302239  0.66566569  1
  S  S10  1  0.10112839  0.83631354  0.49945573  1
  S  S11  1  0.76404461  0.65876342  0.15390810  1
loop_
_geom_bond_atom_site_label_1
_geom_bond_atom_site_label_2
_geom_bond_distance
_geom_bond_site_symmetry_2
K0 S2 3.206730 1_555
K0 S4 3.307067 1_555
K0 S8 3.315895 1_555
K0 S0 3.366737 1_555
K0 S10 3.367135 1_555
K0 S5 3.387253 1_455
K0 S3 3.432543 1_555
K1 S11 3.206730 1_555
K1 S0 3.307067 1_555
K1 S1 3.315895 1_555
K1 S4 3.366737 1_555
K1 S5 3.367135 1_555
K1 S10 3.387253 1_655
K1 S9 3.432543 1_555
K2 S0 3.206730 1_555
K2 S11 3.307067 1_556
K2 S3 3.315895 1_556
K2 S2 3.366737 1_555
K2 S7 3.367134 1_556
K2 S6 3.387253 1_565
K2 S8 3.432543 1_556
K3 S4 3.206730 1_555
K3 S2 3.307067 1_554
K3 S9 3.315895 1_554
K3 S11 3.366737 1_555
K3 S6 3.367134 1_554
K3 S7 3.387253 1_545
K3 S1 3.432543 1_554
Ca0 S5 2.873621 1_555
Ca0 S6 2.873621 1_554
Ca0 S7 2.892628 1_645
Ca0 S10 2.892628 1_645
Ca0 S4 2.895840 1_655
Ca0 S11 2.895840 1_545
Ca1 S10 2.873621 1_555
Ca1 S7 2.873621 1_556
Ca1 S6 2.892628 1_465
Ca1 S5 2.892628 1_465
Ca1 S0 2.895840 1_455
Ca1 S2 2.895840 1_565
S0 Si3 2.079447 1_555
S1 Si0 2.169895 1_556
S1 Si1 2.179125 1_655
S2 Si1 2.079447 1_555
S3 Si3 2.169895 1_555
S3 Si2 2.179125 1_565
S4 Si2 2.079447 1_555
S5 Si3 2.088117 1_545
S6 Si1 2.088117 1_655
S7 Si0 2.088117 1_455
S8 Si1 2.169895 1_554
S8 Si0 2.179125 1_455
S9 Si2 2.169895 1_555
S9 Si3 2.179125 1_545
S10 Si2 2.088117 1_565
S11 Si0 2.079447 1_555
