# generated using pymatgen
data_Hf4FeCo7P6
_symmetry_space_group_name_H-M   'P 1'
_cell_length_a   11.95976643
_cell_length_b   11.93712019
_cell_length_c   3.60929405
_cell_angle_alpha   90.00000000
_cell_angle_beta   90.00000000
_cell_angle_gamma   120.06278178
_symmetry_Int_Tables_number   1
_chemical_formula_structural   Hf4FeCo7P6
_chemical_formula_sum   'Hf8 Fe2 Co14 P12'
_cell_volume   445.96427081
_cell_formula_units_Z   2
loop_
 _symmetry_equiv_pos_site_id
 _symmetry_equiv_pos_as_xyz
  1  'x, y, z'
loop_
 _atom_site_type_symbol
 _atom_site_label
 _atom_site_symmetry_multiplicity
 _atom_site_fract_x
 _atom_site_fract_y
 _atom_site_fract_z
 _atom_site_occupancy
  Hf  Hf0  1  0.82727059  0.82515374  0.50000000  1
  Hf  Hf1  1  0.44366586  0.44412712  0.00000000  1
  Hf  Hf2  1  0.00211685  0.17484626  0.50000000  1
  Hf  Hf3  1  0.55538579  0.00000000  0.00000000  1
  Hf  Hf4  1  0.33199473  0.66568951  0.00000000  1
  Hf  Hf5  1  0.66630522  0.33431049  0.00000000  1
  Hf  Hf6  1  0.99953775  0.55587288  0.00000000  1
  Hf  Hf7  1  0.17302742  1.00000000  0.50000000  1
  Fe  Fe0  1  0.00009542  0.72030879  0.50000000  1
  Fe  Fe1  1  0.27978662  0.27969121  0.50000000  1
  Co  Co0  1  0.62929647  0.82292229  0.00000000  1
  Co  Co1  1  0.37286910  0.19313203  0.00000000  1
  Co  Co2  1  0.87165246  0.35391135  0.50000000  1
  Co  Co3  1  0.72097638  1.00000000  0.50000000  1
  Co  Co4  1  0.82047298  0.62758726  0.00000000  1
  Co  Co5  1  0.17973706  0.80686797  0.00000000  1
  Co  Co6  1  0.35519578  0.87237696  0.50000000  1
  Co  Co7  1  0.12675393  0.48142160  0.50000000  1
  Co  Co8  1  0.64533233  0.51857840  0.50000000  1
  Co  Co9  1  0.00037481  1.00000000  0.00000000  1
  Co  Co10  1  0.51774211  0.64608865  0.50000000  1
  Co  Co11  1  0.48281882  0.12762304  0.50000000  1
  Co  Co12  1  0.19288573  0.37241274  0.00000000  1
  Co  Co13  1  0.80637519  0.17707771  0.00000000  1
  P  P0  1  0.99995865  0.34436397  0.00000000  1
  P  P1  1  0.82743991  0.51898288  0.50000000  1
  P  P2  1  0.69001302  0.17371436  0.50000000  1
  P  P3  1  0.17652142  0.17600577  0.00000000  1
  P  P4  1  0.65559468  0.65563603  0.00000000  1
  P  P5  1  0.82597722  0.00000000  0.00000000  1
  P  P6  1  0.51629866  0.82628564  0.50000000  1
  P  P7  1  0.17207992  0.69079116  0.50000000  1
  P  P8  1  0.34418570  1.00000000  0.00000000  1
  P  P9  1  0.48128676  0.30920884  0.50000000  1
  P  P10  1  0.00051564  0.82399423  0.00000000  1
  P  P11  1  0.30845804  0.48101712  0.50000000  1
loop_
_geom_bond_atom_site_label_1
_geom_bond_atom_site_label_2
_geom_bond_distance
_geom_bond_site_symmetry_2
Hf0 P4 2.721124 1_555
Hf0 P4 2.721124 1_556
Hf0 P10 2.752951 1_656
Hf0 P10 2.752951 1_655
Hf0 P5 2.765064 1_565
Hf0 P5 2.765064 1_566
Hf1 P4 2.527327 1_555
Hf1 P11 2.603645 1_555
Hf1 P11 2.603645 1_554
Hf1 P9 2.603658 1_555
Hf1 P9 2.603658 1_554
Hf2 P0 2.721124 1_456
Hf2 P0 2.721124 1_455
Hf2 P3 2.752951 1_556
Hf2 P3 2.752951 1_555
Hf2 P5 2.765063 1_456
Hf2 P5 2.765063 1_455
Hf3 P8 2.525904 1_545
Hf3 P2 2.608465 1_554
Hf3 P2 2.608465 1_555
Hf3 P6 2.608465 1_545
Hf3 P6 2.608465 1_544
Hf4 P6 2.748971 1_555
Hf4 P6 2.748971 1_554
Hf4 P11 2.752072 1_555
Hf4 P11 2.752072 1_554
Hf4 P7 2.752912 1_554
Hf4 P7 2.752912 1_555
Hf5 P2 2.748971 1_554
Hf5 P2 2.748971 1_555
Hf5 P1 2.752068 1_555
Hf5 P1 2.752068 1_554
Hf5 P9 2.752930 1_554
Hf5 P9 2.752930 1_555
Hf6 P0 2.527333 1_555
Hf6 P1 2.603645 1_555
Hf6 P1 2.603645 1_554
Hf6 P7 2.603675 1_654
Hf6 P7 2.603675 1_655
Hf7 P8 2.728922 1_555
Hf7 P8 2.728922 1_556
Hf7 P10 2.754041 1_555
Hf7 P10 2.754041 1_556
Hf7 P3 2.754042 1_566
Hf7 P3 2.754042 1_565
Fe0 P10 2.186883 1_556
Fe0 P10 2.186883 1_555
Fe0 P1 2.251127 1_455
Fe0 P7 2.254130 1_555
Fe0 Hf6 2.663948 1_456
Fe0 Hf6 2.663948 1_455
Fe1 P3 2.186883 1_556
Fe1 P3 2.186883 1_555
Fe1 P11 2.251123 1_555
Fe1 P9 2.254106 1_555
Fe1 Hf1 2.663953 1_555
Fe1 Hf1 2.663953 1_556
Co0 P4 2.171603 1_555
Co0 P5 2.240451 1_565
Co0 P6 2.266954 1_555
Co0 P6 2.266954 1_554
Co0 Hf3 2.668626 1_565
Co0 Hf4 3.078829 1_555
Co1 P8 2.154150 1_545
Co1 P9 2.248983 1_555
Co1 P9 2.248983 1_554
Co1 P3 2.252818 1_555
Co1 Hf1 2.674358 1_555
Co1 Hf5 3.038201 1_555
Co2 P2 2.159727 1_555
Co2 P1 2.281731 1_555
Co2 P0 2.408253 1_556
Co2 P0 2.408253 1_555
Co2 Hf6 2.777387 1_556
Co2 Hf6 2.777387 1_555
Co2 Hf5 2.960954 1_555
Co2 Hf5 2.960954 1_556
Co3 P5 2.198579 1_566
Co3 P5 2.198579 1_565
Co3 P6 2.281778 1_555
Co3 P2 2.281778 1_565
Co3 Hf3 2.679335 1_566
Co3 Hf3 2.679335 1_565
Co4 P4 2.159168 1_555
Co4 P1 2.247807 1_555
Co4 P1 2.247807 1_554
Co4 P10 2.252868 1_655
Co4 Hf6 2.675066 1_555
Co4 Hf5 3.031269 1_555
Co5 P8 2.154150 1_555
Co5 P7 2.248990 1_555
Co5 P7 2.248990 1_554
Co5 P10 2.252818 1_555
Co5 Hf6 2.674360 1_455
Co5 Hf4 3.038201 1_555
Co6 P7 2.176836 1_555
Co6 P6 2.253264 1_555
Co6 P8 2.407484 1_555
Co6 P8 2.407484 1_556
Co6 Hf3 2.766869 1_565
Co6 Hf3 2.766869 1_566
Co6 Hf4 2.955533 1_556
Co6 Hf4 2.955533 1_555
Co7 P11 2.175561 1_555
Co7 P7 2.276579 1_555
Co7 P0 2.397366 1_456
Co7 P0 2.397366 1_455
Co7 Hf6 2.777812 1_456
Co7 Hf6 2.777812 1_455
Co7 Hf4 2.951408 1_555
Co7 Hf4 2.951408 1_556
Co8 P1 2.175549 1_555
Co8 P9 2.276587 1_555
Co8 P4 2.397366 1_555
Co8 P4 2.397366 1_556
Co8 Hf1 2.777804 1_555
Co8 Hf1 2.777804 1_556
Co8 Hf5 2.951409 1_555
Co8 Hf5 2.951409 1_556
Co9 P5 2.085754 1_465
Co9 P3 2.101846 1_565
Co9 P10 2.101846 1_555
Co9 Hf7 2.742353 1_555
Co9 Hf7 2.742353 1_554
Co9 Hf0 2.751337 1_455
Co9 Hf0 2.751337 1_454
Co9 Hf2 2.751337 1_565
Co9 Hf2 2.751337 1_564
Co10 P6 2.159733 1_555
Co10 P11 2.281731 1_555
Co10 P4 2.408245 1_556
Co10 P4 2.408245 1_555
Co10 Hf1 2.777387 1_556
Co10 Hf1 2.777387 1_555
Co10 Hf4 2.960963 1_556
Co10 Hf4 2.960963 1_555
Co11 P9 2.176848 1_555
Co11 P2 2.253264 1_555
Co11 P8 2.407484 1_545
Co11 P8 2.407484 1_546
Co11 Hf3 2.766869 1_555
Co11 Hf3 2.766869 1_556
Co11 Hf5 2.955532 1_555
Co11 Hf5 2.955532 1_556
Co12 P0 2.159168 1_455
Co12 P11 2.247810 1_555
Co12 P11 2.247810 1_554
Co12 P3 2.252868 1_555
Co12 Hf1 2.675077 1_555
Co12 Hf4 3.031269 1_555
Co13 P0 2.171596 1_555
Co13 P5 2.240445 1_555
Co13 P2 2.266961 1_555
Co13 P2 2.266961 1_554
Co13 Hf3 2.668634 1_555
Co13 Hf5 3.078840 1_555
