# generated using pymatgen
data_CrFe(TcO4)6
_symmetry_space_group_name_H-M   'P 1'
_cell_length_a   10.31362370
_cell_length_b   10.31362344
_cell_length_c   10.31362336
_cell_angle_alpha   48.33794154
_cell_angle_beta   48.33794770
_cell_angle_gamma   48.33794571
_symmetry_Int_Tables_number   1
_chemical_formula_structural   CrFe(TcO4)6
_chemical_formula_sum   'Cr1 Fe1 Tc6 O24'
_cell_volume   561.37075244
_cell_formula_units_Z   1
loop_
 _symmetry_equiv_pos_site_id
 _symmetry_equiv_pos_as_xyz
  1  'x, y, z'
loop_
 _atom_site_type_symbol
 _atom_site_label
 _atom_site_symmetry_multiplicity
 _atom_site_fract_x
 _atom_site_fract_y
 _atom_site_fract_z
 _atom_site_occupancy
  Cr  Cr0  1  0.00000000  0.00000000  0.00000000  1
  Fe  Fe0  1  0.50000000  0.50000000  0.50000000  1
  Tc  Tc0  1  0.59839348  0.90383417  0.24849207  1
  Tc  Tc1  1  0.24849207  0.59839348  0.90383417  1
  Tc  Tc2  1  0.90383417  0.24849207  0.59839348  1
  Tc  Tc3  1  0.75150793  0.40160652  0.09616583  1
  Tc  Tc4  1  0.09616583  0.75150793  0.40160652  1
  Tc  Tc5  1  0.40160652  0.09616583  0.75150793  1
  O  O0  1  0.81890387  0.88531813  0.17145681  1
  O  O1  1  0.17145681  0.81890387  0.88531813  1
  O  O2  1  0.88531813  0.17145681  0.81890387  1
  O  O3  1  0.67435467  0.38204247  0.31722781  1
  O  O4  1  0.31722781  0.67435467  0.38204247  1
  O  O5  1  0.38204247  0.31722781  0.67435467  1
  O  O6  1  0.18109613  0.11468187  0.82854319  1
  O  O7  1  0.82854319  0.18109613  0.11468187  1
  O  O8  1  0.11468187  0.82854319  0.18109613  1
  O  O9  1  0.32564533  0.61795753  0.68277219  1
  O  O10  1  0.68277219  0.32564533  0.61795753  1
  O  O11  1  0.61795753  0.68277219  0.32564533  1
  O  O12  1  0.44031969  0.97454238  0.42717911  1
  O  O13  1  0.42717911  0.44031969  0.97454238  1
  O  O14  1  0.97454238  0.42717911  0.44031969  1
  O  O15  1  0.92838878  0.47468758  0.93813432  1
  O  O16  1  0.93813432  0.92838878  0.47468758  1
  O  O17  1  0.47468758  0.93813432  0.92838878  1
  O  O18  1  0.55968031  0.02545762  0.57282089  1
  O  O19  1  0.57282089  0.55968031  0.02545762  1
  O  O20  1  0.02545762  0.57282089  0.55968031  1
  O  O21  1  0.07161122  0.52531242  0.06186568  1
  O  O22  1  0.06186568  0.07161122  0.52531242  1
  O  O23  1  0.52531242  0.06186568  0.07161122  1
loop_
_geom_bond_atom_site_label_1
_geom_bond_atom_site_label_2
_geom_bond_distance
_geom_bond_site_symmetry_2
Cr0 O8 1.944181 1_545
Cr0 O2 1.944181 1_454
Cr0 O6 1.944181 1_554
Cr0 O0 1.944181 1_445
Cr0 O7 1.944181 1_455
Cr0 O1 1.944181 1_544
Fe0 O10 1.975072 1_555
Fe0 O4 1.975072 1_555
Fe0 O11 1.975072 1_555
Fe0 O5 1.975072 1_555
Fe0 O9 1.975072 1_555
Fe0 O3 1.975072 1_555
O0 Tc0 1.749867 1_555
O1 Tc1 1.749867 1_555
O2 Tc2 1.749867 1_555
O3 Tc3 1.749846 1_555
O4 Tc4 1.749846 1_555
O5 Tc5 1.749846 1_555
O6 Tc5 1.749867 1_555
O7 Tc3 1.749867 1_555
O8 Tc4 1.749867 1_555
O9 Tc1 1.749846 1_555
O10 Tc2 1.749846 1_555
O11 Tc0 1.749846 1_555
O12 Tc0 1.672648 1_555
O13 Tc1 1.672648 1_555
O14 Tc2 1.672648 1_555
O15 Tc3 1.671655 1_556
O16 Tc4 1.671655 1_655
O17 Tc5 1.671655 1_565
O18 Tc5 1.672648 1_555
O19 Tc3 1.672648 1_555
O20 Tc4 1.672648 1_555
O21 Tc1 1.671655 1_554
O22 Tc2 1.671655 1_455
O23 Tc0 1.671655 1_545
