# generated using pymatgen
data_NaHfCuSb2
_symmetry_space_group_name_H-M   'P 1'
_cell_length_a   8.30000083
_cell_length_b   8.30000091
_cell_length_c   8.29999963
_cell_angle_alpha   29.62019019
_cell_angle_beta   29.62018777
_cell_angle_gamma   29.62018618
_symmetry_Int_Tables_number   1
_chemical_formula_structural   NaHfCuSb2
_chemical_formula_sum   'Na1 Hf1 Cu1 Sb2'
_cell_volume   123.65403767
_cell_formula_units_Z   1
loop_
 _symmetry_equiv_pos_site_id
 _symmetry_equiv_pos_as_xyz
  1  'x, y, z'
loop_
 _atom_site_type_symbol
 _atom_site_label
 _atom_site_symmetry_multiplicity
 _atom_site_fract_x
 _atom_site_fract_y
 _atom_site_fract_z
 _atom_site_occupancy
  Na  Na0  1  0.50701839  0.50701839  0.50701839  1
  Hf  Hf0  1  0.99106285  0.99106285  0.99106285  1
  Cu  Cu0  1  0.37302004  0.37302004  0.37302004  1
  Sb  Sb0  1  0.74419278  0.74419278  0.74419278  1
  Sb  Sb1  1  0.25970495  0.25970495  0.25970495  1
loop_
_geom_bond_atom_site_label_1
_geom_bond_atom_site_label_2
_geom_bond_distance
_geom_bond_site_symmetry_2
Na0 Sb1 3.192130 1_556
Na0 Sb1 3.192130 1_655
Na0 Sb1 3.192131 1_565
Na0 Sb0 3.351888 1_554
Na0 Sb0 3.351889 1_455
Na0 Sb0 3.351889 1_545
Hf0 Sb1 2.893151 1_665
Hf0 Sb1 2.893151 1_566
Hf0 Sb1 2.893151 1_656
Hf0 Sb0 3.198902 1_556
Hf0 Sb0 3.198903 1_655
Hf0 Sb0 3.198903 1_565
Cu0 Sb0 2.609993 1_455
Cu0 Sb0 2.609993 1_545
Cu0 Sb0 2.609993 1_554
Cu0 Sb1 2.695840 1_555
Cu0 Hf0 2.709212 1_544
Cu0 Hf0 2.709212 1_454
Cu0 Hf0 2.709212 1_445
Cu0 Na0 3.187908 1_555
