# generated using pymatgen
data_Ca2Sb3I3O5
_symmetry_space_group_name_H-M   'P 1'
_cell_length_a   6.83787021
_cell_length_b   9.99368024
_cell_length_c   10.65997013
_cell_angle_alpha   95.93860624
_cell_angle_beta   110.90026211
_cell_angle_gamma   89.82602696
_symmetry_Int_Tables_number   1
_chemical_formula_structural   Ca2Sb3I3O5
_chemical_formula_sum   'Ca4 Sb6 I6 O10'
_cell_volume   676.42198944
_cell_formula_units_Z   2
loop_
 _symmetry_equiv_pos_site_id
 _symmetry_equiv_pos_as_xyz
  1  'x, y, z'
loop_
 _atom_site_type_symbol
 _atom_site_label
 _atom_site_symmetry_multiplicity
 _atom_site_fract_x
 _atom_site_fract_y
 _atom_site_fract_z
 _atom_site_occupancy
  Ca  Ca0  1  0.74659804  0.41433394  0.01654638  1
  Ca  Ca1  1  0.25564141  0.28395388  0.72846803  1
  Ca  Ca2  1  0.25326701  0.58570652  0.98332234  1
  Ca  Ca3  1  0.74434700  0.71597977  0.27162636  1
  Sb  Sb0  1  0.19938808  0.84734264  0.21467254  1
  Sb  Sb1  1  0.80060673  0.15257448  0.78541536  1
  Sb  Sb2  1  0.26049504  0.27081661  0.08433576  1
  Sb  Sb3  1  0.73950860  0.72923437  0.91560950  1
  Sb  Sb4  1  0.29908982  0.56136337  0.32413063  1
  Sb  Sb5  1  0.70091825  0.43858161  0.67582853  1
  I  I0  1  0.76061672  0.41054037  0.31937161  1
  I  I1  1  0.23988764  0.58956575  0.68056501  1
  I  I2  1  0.77002142  0.99403228  0.17553942  1
  I  I3  1  0.22998667  0.00594126  0.82449110  1
  I  I4  1  0.65619986  0.79696122  0.54077008  1
  I  I5  1  0.34338993  0.20316890  0.45943708  1
  O  O0  1  0.15132264  0.45100607  0.14140494  1
  O  O1  1  0.84877699  0.54906525  0.85845097  1
  O  O2  1  0.35637324  0.36384803  0.96218615  1
  O  O3  1  0.64357545  0.63615130  0.03775302  1
  O  O4  1  0.39187054  0.68241692  0.21222977  1
  O  O5  1  0.60811495  0.31750484  0.78778856  1
  O  O6  1  0.04499682  0.76163171  0.02873134  1
  O  O7  1  0.95503875  0.23837806  0.97130713  1
  O  O8  1  0.08773716  0.70975760  0.29845711  1
  O  O9  1  0.91222921  0.29014425  0.70156329  1
loop_
_geom_bond_atom_site_label_1
_geom_bond_atom_site_label_2
_geom_bond_distance
_geom_bond_site_symmetry_2
Ca0 O3 2.337067 1_555
Ca0 O5 2.376837 1_554
Ca0 O7 2.378207 1_554
Ca0 O1 2.541007 1_554
Ca0 O2 2.560212 1_554
Ca0 O0 2.615681 1_655
Ca0 I0 3.199348 1_555
Ca1 O9 2.263281 1_455
Ca1 O5 2.279218 1_555
Ca1 O2 2.384632 1_555
Ca1 I3 3.085034 1_555
Ca1 I1 3.143549 1_555
Ca1 I5 3.159451 1_555
Ca2 O2 2.337563 1_555
Ca2 O6 2.377823 1_556
Ca2 O4 2.377849 1_556
Ca2 O0 2.539888 1_556
Ca2 O3 2.560565 1_556
Ca2 O1 2.614262 1_455
Ca2 I1 3.200146 1_555
Ca3 O8 2.263333 1_655
Ca3 O4 2.279158 1_555
Ca3 O3 2.385961 1_555
Ca3 I2 3.085734 1_555
Ca3 I0 3.141333 1_555
Ca3 I4 3.162307 1_555
I2 Sb0 3.188961 1_655
I3 Sb1 3.188867 1_455
O0 Sb4 2.046802 1_555
O0 Sb2 2.063798 1_555
O1 Sb5 2.046666 1_555
O1 Sb3 2.064250 1_555
O2 Sb2 1.962902 1_556
O3 Sb3 1.963344 1_554
O4 Sb4 2.032775 1_555
O4 Sb0 2.109975 1_555
O5 Sb5 2.033487 1_555
O5 Sb1 2.109936 1_555
O6 Sb0 1.984496 1_555
O6 Sb3 2.012091 1_454
O7 Sb1 1.984448 1_555
O7 Sb2 2.011743 1_656
O8 Sb0 2.004528 1_555
O8 Sb4 2.037543 1_555
O9 Sb1 2.004780 1_555
O9 Sb5 2.037646 1_555
