# generated using pymatgen
data_RbGa9Ir2
_symmetry_space_group_name_H-M   'P 1'
_cell_length_a   8.20562228
_cell_length_b   8.20562274
_cell_length_c   3.94072199
_cell_angle_alpha   90.00000000
_cell_angle_beta   90.00000000
_cell_angle_gamma   120.00000202
_symmetry_Int_Tables_number   1
_chemical_formula_structural   RbGa9Ir2
_chemical_formula_sum   'Rb1 Ga9 Ir2'
_cell_volume   229.78913394
_cell_formula_units_Z   1
loop_
 _symmetry_equiv_pos_site_id
 _symmetry_equiv_pos_as_xyz
  1  'x, y, z'
loop_
 _atom_site_type_symbol
 _atom_site_label
 _atom_site_symmetry_multiplicity
 _atom_site_fract_x
 _atom_site_fract_y
 _atom_site_fract_z
 _atom_site_occupancy
  Rb  Rb0  1  0.00000000  0.00000000  0.00000000  1
  Ga  Ga0  1  0.50000000  0.00000000  0.00000000  1
  Ga  Ga1  1  0.00000000  0.50000000  0.00000000  1
  Ga  Ga2  1  0.50000000  0.50000000  0.00000000  1
  Ga  Ga3  1  0.41059687  0.20529794  0.49999900  1
  Ga  Ga4  1  0.79470206  0.20529794  0.49999900  1
  Ga  Ga5  1  0.20529794  0.41059587  0.49999900  1
  Ga  Ga6  1  0.79470206  0.58940313  0.49999900  1
  Ga  Ga7  1  0.20529794  0.79470306  0.49999900  1
  Ga  Ga8  1  0.58940313  0.79470306  0.49999900  1
  Ir  Ir0  1  0.66666700  0.33333400  0.00000000  1
  Ir  Ir1  1  0.33333300  0.66666700  0.00000000  1
loop_
_geom_bond_atom_site_label_1
_geom_bond_atom_site_label_2
_geom_bond_distance
_geom_bond_site_symmetry_2
Ga0 Ir1 2.368757 1_545
Ga0 Ir0 2.368764 1_555
Ga0 Ga8 2.914474 1_545
Ga0 Ga8 2.914479 1_544
Ga0 Ga3 2.914480 1_555
Ga0 Ga7 2.914483 1_545
Ga0 Ga4 2.914484 1_555
Ga0 Ga3 2.914485 1_554
Ga0 Ga7 2.914488 1_544
Ga0 Ga4 2.914489 1_554
Ga1 Ir1 2.368757 1_555
Ga1 Ir0 2.368757 1_455
Ga1 Ga6 2.914480 1_455
Ga1 Ga4 2.914484 1_455
Ga1 Ga5 2.914484 1_555
Ga1 Ga6 2.914485 1_454
Ga1 Ga7 2.914488 1_555
Ga1 Ga4 2.914489 1_454
Ga1 Ga5 2.914489 1_554
Ga1 Ga7 2.914494 1_554
Ga2 Ir0 2.368757 1_555
Ga2 Ir1 2.368764 1_555
Ga2 Ga5 2.914484 1_555
Ga2 Ga6 2.914485 1_555
Ga2 Ga3 2.914485 1_555
Ga2 Ga5 2.914489 1_554
Ga2 Ga6 2.914491 1_554
Ga2 Ga3 2.914491 1_554
Ga2 Ga8 2.914491 1_555
Ga2 Ga8 2.914496 1_554
Ga3 Ir0 2.682095 1_555
Ga3 Ir0 2.682101 1_556
Ga3 Ga7 2.917801 1_545
Ga3 Ga5 2.917815 1_555
Ga3 Rb0 3.520789 1_555
Ga3 Rb0 3.520793 1_556
Ga4 Ir0 2.682100 1_555
Ga4 Ir0 2.682106 1_556
Ga4 Ga8 2.917801 1_545
Ga4 Ga5 2.917808 1_655
Ga4 Rb0 3.520783 1_655
Ga4 Rb0 3.520787 1_656
Ga5 Ir1 2.682100 1_555
Ga5 Ir1 2.682106 1_556
Ga5 Rb0 3.520783 1_555
Ga5 Rb0 3.520787 1_556
Ga6 Ir0 2.682090 1_555
Ga6 Ir0 2.682096 1_556
Ga6 Ga7 2.917808 1_655
Ga6 Ga8 2.917830 1_555
Ga6 Rb0 3.520789 1_665
Ga6 Rb0 3.520793 1_666
Ga7 Ir1 2.682100 1_555
Ga7 Ir1 2.682106 1_556
Ga7 Rb0 3.520777 1_565
Ga7 Rb0 3.520781 1_566
Ga8 Ir1 2.682095 1_555
Ga8 Ir1 2.682101 1_556
Ga8 Rb0 3.520789 1_665
Ga8 Rb0 3.520793 1_666
