# generated using pymatgen
data_Zr3Al2NiC
_symmetry_space_group_name_H-M   'P 1'
_cell_length_a   8.57007137
_cell_length_b   8.57007158
_cell_length_c   8.57007129
_cell_angle_alpha   59.99999733
_cell_angle_beta   59.99999652
_cell_angle_gamma   59.99999629
_symmetry_Int_Tables_number   1
_chemical_formula_structural   Zr3Al2NiC
_chemical_formula_sum   'Zr12 Al8 Ni4 C4'
_cell_volume   445.08021837
_cell_formula_units_Z   4
loop_
 _symmetry_equiv_pos_site_id
 _symmetry_equiv_pos_as_xyz
  1  'x, y, z'
loop_
 _atom_site_type_symbol
 _atom_site_label
 _atom_site_symmetry_multiplicity
 _atom_site_fract_x
 _atom_site_fract_y
 _atom_site_fract_z
 _atom_site_occupancy
  Zr  Zr0  1  0.94388927  0.94388927  0.55611073  1
  Zr  Zr1  1  0.69388927  0.30611073  0.30611073  1
  Zr  Zr2  1  0.30611073  0.69388927  0.69388927  1
  Zr  Zr3  1  0.69388927  0.69388927  0.30611073  1
  Zr  Zr4  1  0.69388927  0.30611073  0.69388927  1
  Zr  Zr5  1  0.30611073  0.69388927  0.30611073  1
  Zr  Zr6  1  0.55611073  0.94388927  0.55611073  1
  Zr  Zr7  1  0.55611073  0.94388927  0.94388927  1
  Zr  Zr8  1  0.94388927  0.55611073  0.55611073  1
  Zr  Zr9  1  0.94388927  0.55611073  0.94388927  1
  Zr  Zr10  1  0.30611073  0.30611073  0.69388927  1
  Zr  Zr11  1  0.55611073  0.55611073  0.94388927  1
  Al  Al0  1  0.92148486  0.23554542  0.92148486  1
  Al  Al1  1  0.32851514  0.32851514  0.01445458  1
  Al  Al2  1  0.01445458  0.32851514  0.32851514  1
  Al  Al3  1  0.32851514  0.32851514  0.32851514  1
  Al  Al4  1  0.23554542  0.92148486  0.92148486  1
  Al  Al5  1  0.92148486  0.92148486  0.92148486  1
  Al  Al6  1  0.92148486  0.92148486  0.23554542  1
  Al  Al7  1  0.32851514  0.01445458  0.32851514  1
  Ni  Ni0  1  0.12500000  0.62500000  0.12500000  1
  Ni  Ni1  1  0.12500000  0.12500000  0.62500000  1
  Ni  Ni2  1  0.62500000  0.12500000  0.12500000  1
  Ni  Ni3  1  0.12500000  0.12500000  0.12500000  1
  C  C0  1  0.62500000  0.12500000  0.62500000  1
  C  C1  1  0.62500000  0.62500000  0.12500000  1
  C  C2  1  0.12500000  0.62500000  0.62500000  1
  C  C3  1  0.62500000  0.62500000  0.62500000  1
loop_
_geom_bond_atom_site_label_1
_geom_bond_atom_site_label_2
_geom_bond_distance
_geom_bond_site_symmetry_2
Al0 Ni1 2.592077 1_655
Al0 Ni2 2.592077 1_556
Al0 Ni3 2.592077 1_656
Al0 Al4 2.691521 1_645
Al0 Al6 2.691521 1_546
Al0 Al5 2.691521 1_545
Al0 Zr11 2.951791 1_555
Al0 Zr8 2.951791 1_555
Al0 Zr9 2.951791 1_555
Al0 Zr1 3.069211 1_556
Al0 Zr10 3.069211 1_655
Al0 Zr4 3.069211 1_555
Al1 Ni2 2.592077 1_555
Al1 Ni0 2.592077 1_555
Al1 Ni3 2.592077 1_555
Al1 Al2 2.691521 1_555
Al1 Al7 2.691521 1_555
Al1 Al3 2.691521 1_555
Al1 Zr4 2.951791 1_554
Al1 Zr2 2.951791 1_554
Al1 Zr10 2.951791 1_554
Al1 Zr9 3.069211 1_454
Al1 Zr7 3.069211 1_544
Al1 Zr11 3.069211 1_554
Al2 Ni1 2.592077 1_555
Al2 Ni3 2.592077 1_555
Al2 Ni0 2.592077 1_555
Al2 Al7 2.691521 1_555
Al2 Al3 2.691521 1_555
Al2 Zr4 2.951791 1_455
Al2 Zr3 2.951791 1_455
Al2 Zr1 2.951791 1_455
Al2 Zr9 3.069211 1_454
Al2 Zr0 3.069211 1_445
Al2 Zr8 3.069211 1_455
Al3 Ni2 2.592077 1_555
Al3 Ni0 2.592077 1_555
Al3 Ni1 2.592077 1_555
Al3 Al7 2.691521 1_555
Al3 Zr10 2.951791 1_555
Al3 Zr1 2.951791 1_555
Al3 Zr5 2.951791 1_555
Al3 Zr8 3.069211 1_455
Al3 Zr11 3.069211 1_554
Al3 Zr6 3.069211 1_545
Al4 Ni1 2.592077 1_565
Al4 Ni3 2.592077 1_566
Al4 Ni0 2.592077 1_556
Al4 Al6 2.691521 1_456
Al4 Al5 2.691521 1_455
Al4 Zr6 2.951791 1_555
Al4 Zr11 2.951791 1_555
Al4 Zr7 2.951791 1_555
Al4 Zr5 3.069211 1_556
Al4 Zr10 3.069211 1_565
Al4 Zr2 3.069211 1_555
Al5 Ni2 2.592077 1_566
Al5 Ni0 2.592077 1_656
Al5 Ni1 2.592077 1_665
Al5 Al6 2.691521 1_556
Al5 Zr0 2.951791 1_555
Al5 Zr7 2.951791 1_555
Al5 Zr9 2.951791 1_555
Al5 Zr2 3.069211 1_655
Al5 Zr3 3.069211 1_556
Al5 Zr4 3.069211 1_565
Al6 Ni2 2.592077 1_565
Al6 Ni0 2.592077 1_655
Al6 Ni3 2.592077 1_665
Al6 Zr6 2.951791 1_555
Al6 Zr8 2.951791 1_555
Al6 Zr0 2.951791 1_555
Al6 Zr5 3.069211 1_655
Al6 Zr1 3.069211 1_565
Al6 Zr3 3.069211 1_555
Al7 Ni1 2.592077 1_555
Al7 Ni2 2.592077 1_555
Al7 Ni3 2.592077 1_555
Al7 Zr3 2.951791 1_545
Al7 Zr2 2.951791 1_545
Al7 Zr5 2.951791 1_545
Al7 Zr7 3.069211 1_544
Al7 Zr0 3.069211 1_445
Al7 Zr6 3.069211 1_545
Ni0 Zr8 3.067346 1_455
Ni0 Zr2 3.067346 1_554
Ni0 Zr11 3.067346 1_554
Ni0 Zr3 3.067346 1_455
Ni0 Zr5 3.067346 1_555
Ni0 Zr9 3.067346 1_454
Ni1 Zr6 3.067346 1_545
Ni1 Zr4 3.067346 1_455
Ni1 Zr8 3.067346 1_455
Ni1 Zr2 3.067346 1_545
Ni1 Zr10 3.067346 1_555
Ni1 Zr0 3.067346 1_445
Ni2 Zr6 3.067346 1_545
Ni2 Zr4 3.067346 1_554
Ni2 Zr11 3.067346 1_554
Ni2 Zr3 3.067346 1_545
Ni2 Zr7 3.067346 1_544
Ni2 Zr1 3.067346 1_555
Ni3 Zr7 3.067346 1_544
Ni3 Zr1 3.067346 1_455
Ni3 Zr0 3.067346 1_445
Ni3 Zr10 3.067346 1_554
Ni3 Zr9 3.067346 1_454
Ni3 Zr5 3.067346 1_545
C0 Zr0 2.299455 1_545
C0 Zr10 2.299455 1_555
C0 Zr1 2.299455 1_555
C0 Zr7 2.299455 1_545
C0 Zr4 2.299455 1_555
C0 Zr6 2.299455 1_545
C1 Zr9 2.299455 1_554
C1 Zr5 2.299455 1_555
C1 Zr7 2.299455 1_554
C1 Zr1 2.299455 1_555
C1 Zr3 2.299455 1_555
C1 Zr11 2.299455 1_554
C2 Zr9 2.299455 1_455
C2 Zr5 2.299455 1_555
C2 Zr0 2.299455 1_455
C2 Zr10 2.299455 1_555
C2 Zr2 2.299455 1_555
C2 Zr8 2.299455 1_455
C3 Zr11 2.299455 1_555
C3 Zr3 2.299455 1_555
C3 Zr8 2.299455 1_555
C3 Zr2 2.299455 1_555
C3 Zr6 2.299455 1_555
C3 Zr4 2.299455 1_555
