# generated using pymatgen
data_Ga3Si4Ir3
_symmetry_space_group_name_H-M   'P 1'
_cell_length_a   7.38540755
_cell_length_b   7.38540673
_cell_length_c   7.38540782
_cell_angle_alpha   109.47122362
_cell_angle_beta   109.47122137
_cell_angle_gamma   109.47121454
_symmetry_Int_Tables_number   1
_chemical_formula_structural   Ga3Si4Ir3
_chemical_formula_sum   'Ga6 Si8 Ir6'
_cell_volume   310.09980157
_cell_formula_units_Z   2
loop_
 _symmetry_equiv_pos_site_id
 _symmetry_equiv_pos_as_xyz
  1  'x, y, z'
loop_
 _atom_site_type_symbol
 _atom_site_label
 _atom_site_symmetry_multiplicity
 _atom_site_fract_x
 _atom_site_fract_y
 _atom_site_fract_z
 _atom_site_occupancy
  Ga  Ga0  1  0.50000000  0.75000000  0.25000000  1
  Ga  Ga1  1  0.50000000  0.25000000  0.75000000  1
  Ga  Ga2  1  0.25000000  0.50000000  0.75000000  1
  Ga  Ga3  1  0.75000000  0.50000000  0.25000000  1
  Ga  Ga4  1  0.75000000  0.25000000  0.50000000  1
  Ga  Ga5  1  0.25000000  0.75000000  0.50000000  1
  Si  Si0  1  0.32576946  0.32576946  0.32576946  1
  Si  Si1  1  0.67423054  0.67423054  0.67423054  1
  Si  Si2  1  0.00000000  0.00000000  0.67423054  1
  Si  Si3  1  1.00000000  0.67423054  0.00000000  1
  Si  Si4  1  0.00000000  0.00000000  0.32576946  1
  Si  Si5  1  0.00000000  0.32576946  1.00000000  1
  Si  Si6  1  0.67423054  1.00000000  1.00000000  1
  Si  Si7  1  0.32576946  0.00000000  0.00000000  1
  Ir  Ir0  1  1.00000000  0.33078626  0.33078626  1
  Ir  Ir1  1  0.00000000  0.66921374  0.66921374  1
  Ir  Ir2  1  0.33078626  1.00000000  0.33078626  1
  Ir  Ir3  1  0.66921374  0.00000000  0.66921374  1
  Ir  Ir4  1  0.33078626  0.33078626  0.00000000  1
  Ir  Ir5  1  0.66921374  0.66921374  1.00000000  1
loop_
_geom_bond_atom_site_label_1
_geom_bond_atom_site_label_2
_geom_bond_distance
_geom_bond_site_symmetry_2
Ga0 Ir2 2.574437 1_555
Ga0 Ir4 2.574437 1_555
Ga0 Ir5 2.574438 1_554
Ga0 Ir3 2.574438 1_565
Ga1 Ir3 2.574437 1_555
Ga1 Ir5 2.574437 1_555
Ga1 Ir4 2.574438 1_556
Ga1 Ir2 2.574438 1_545
Ga2 Ir1 2.574437 1_555
Ga2 Ir4 2.574437 1_556
Ga2 Ir0 2.574438 1_455
Ga2 Ir5 2.574438 1_555
Ga3 Ir0 2.574437 1_555
Ga3 Ir5 2.574437 1_554
Ga3 Ir1 2.574438 1_655
Ga3 Ir4 2.574438 1_555
Ga4 Ir1 2.574437 1_655
Ga4 Ir3 2.574438 1_555
Ga4 Ir0 2.574438 1_555
Ga4 Ir2 2.574438 1_545
Ga5 Ir0 2.574437 1_455
Ga5 Ir2 2.574438 1_555
Ga5 Ir1 2.574438 1_555
Ga5 Ir3 2.574438 1_565
Ir0 Si4 2.430892 1_655
Ir0 Si0 2.430892 1_655
Ir0 Si6 2.430892 1_544
Ir0 Si5 2.430892 1_654
Ir1 Si2 2.430892 1_565
Ir1 Si1 2.430892 1_455
Ir1 Si7 2.430892 1_566
Ir1 Si3 2.430892 1_456
Ir2 Si0 2.430892 1_565
Ir2 Si4 2.430892 1_565
Ir2 Si3 2.430892 1_455
Ir2 Si7 2.430892 1_565
Ir3 Si1 2.430892 1_545
Ir3 Si2 2.430892 1_655
Ir3 Si5 2.430892 1_655
Ir3 Si6 2.430892 1_545
Ir4 Si7 2.430892 1_555
Ir4 Si5 2.430892 1_554
Ir4 Si2 2.430892 1_554
Ir4 Si0 2.430892 1_555
Ir5 Si6 2.430892 1_555
Ir5 Si3 2.430892 1_556
Ir5 Si4 2.430892 1_666
Ir5 Si1 2.430892 1_555
