# generated using pymatgen
data_TaNbSn2Ru3
_symmetry_space_group_name_H-M   'P 1'
_cell_length_a   4.44148329
_cell_length_b   4.44148333
_cell_length_c   7.64455762
_cell_angle_alpha   73.11212092
_cell_angle_beta   73.11212108
_cell_angle_gamma   60.00000229
_symmetry_Int_Tables_number   1
_chemical_formula_structural   TaNbSn2Ru3
_chemical_formula_sum   'Ta1 Nb1 Sn2 Ru3'
_cell_volume   123.03206594
_cell_formula_units_Z   1
loop_
 _symmetry_equiv_pos_site_id
 _symmetry_equiv_pos_as_xyz
  1  'x, y, z'
loop_
 _atom_site_type_symbol
 _atom_site_label
 _atom_site_symmetry_multiplicity
 _atom_site_fract_x
 _atom_site_fract_y
 _atom_site_fract_z
 _atom_site_occupancy
  Ta  Ta0  1  0.75334719  0.75334719  0.73995744  1
  Nb  Nb0  1  0.24674487  0.24674487  0.25976439  1
  Sn  Sn0  1  0.99339654  0.99339654  0.01980937  1
  Sn  Sn1  1  0.50438894  0.50438894  0.48683217  1
  Ru  Ru0  1  0.62808343  0.62808343  0.11574970  1
  Ru  Ru1  1  0.12332664  0.12332664  0.63002107  1
  Ru  Ru2  1  0.37570938  0.37570938  0.87287186  1
loop_
_geom_bond_atom_site_label_1
_geom_bond_atom_site_label_2
_geom_bond_distance
_geom_bond_site_symmetry_2
Nb0 Ru1 2.666457 1_555
Nb0 Ru0 2.766089 1_455
Nb0 Ru0 2.766089 1_545
Nb0 Ru0 2.766093 1_555
Nb0 Ru2 2.786262 1_554
Nb0 Sn1 3.041327 1_455
Nb0 Sn1 3.041327 1_545
Nb0 Sn1 3.041327 1_555
Nb0 Sn0 3.092219 1_545
Nb0 Sn0 3.092219 1_455
Nb0 Sn0 3.092219 1_445
Sn1 Ta0 3.146207 1_455
Sn1 Ta0 3.146207 1_545
Sn1 Ta0 3.146208 1_555
Ru0 Sn0 2.655741 1_555
Ru0 Sn0 2.655745 1_455
Ru0 Sn0 2.655745 1_545
Ru0 Sn1 2.672404 1_555
Ru0 Ta0 2.706322 1_554
Ru0 Ru2 3.104031 1_654
Ru0 Ru2 3.104031 1_564
Ru0 Ru2 3.104031 1_554
Ru1 Ta0 2.683729 1_545
Ru1 Ta0 2.683729 1_455
Ru1 Ta0 2.683737 1_445
Ru1 Sn1 2.763861 1_555
Ru1 Sn1 2.763868 1_455
Ru1 Sn1 2.763868 1_545
Ru1 Sn0 2.807116 1_446
Ru1 Ru2 3.103920 1_555
Ru1 Ru2 3.103923 1_455
Ru1 Ru2 3.103923 1_545
Ru2 Ta0 2.737118 1_555
Ru2 Ta0 2.737122 1_455
Ru2 Ta0 2.737122 1_545
Ru2 Sn0 2.774050 1_546
Ru2 Sn0 2.774050 1_456
Ru2 Sn0 2.774054 1_446
Ru2 Sn1 2.780120 1_555
