# generated using pymatgen
data_K2Na2SiSe4
_symmetry_space_group_name_H-M   'P 1'
_cell_length_a   12.69647270
_cell_length_b   11.18688072
_cell_length_c   7.88194558
_cell_angle_alpha   81.49836837
_cell_angle_beta   60.62403083
_cell_angle_gamma   37.87759788
_symmetry_Int_Tables_number   1
_chemical_formula_structural   K2Na2SiSe4
_chemical_formula_sum   'K4 Na4 Si2 Se8'
_cell_volume   535.68817320
_cell_formula_units_Z   2
loop_
 _symmetry_equiv_pos_site_id
 _symmetry_equiv_pos_as_xyz
  1  'x, y, z'
loop_
 _atom_site_type_symbol
 _atom_site_label
 _atom_site_symmetry_multiplicity
 _atom_site_fract_x
 _atom_site_fract_y
 _atom_site_fract_z
 _atom_site_occupancy
  K  K0  1  0.31062204  0.31062204  0.68937796  1
  K  K1  1  0.68937796  0.68937796  0.31062204  1
  K  K2  1  0.56062204  0.56062204  0.93937796  1
  K  K3  1  0.93937796  0.93937796  0.56062204  1
  Na  Na0  1  0.15219242  0.15219242  0.34780758  1
  Na  Na1  1  0.90219242  0.90219242  0.09780758  1
  Na  Na2  1  0.09780758  0.09780758  0.90219242  1
  Na  Na3  1  0.34780758  0.34780758  0.15219242  1
  Si  Si0  1  0.50000000  0.50000000  0.50000000  1
  Si  Si1  1  0.75000000  0.75000000  0.75000000  1
  Se  Se0  1  0.89116297  0.72822294  0.41156553  1
  Se  Se1  1  0.96905056  0.41156553  0.72822294  1
  Se  Se2  1  0.52177706  0.35883703  0.28094944  1
  Se  Se3  1  0.41156553  0.96905056  0.89116297  1
  Se  Se4  1  0.28094944  0.83843447  0.52177706  1
  Se  Se5  1  0.72822294  0.89116297  0.96905056  1
  Se  Se6  1  0.83843447  0.28094944  0.35883703  1
  Se  Se7  1  0.35883703  0.52177706  0.83843447  1
loop_
_geom_bond_atom_site_label_1
_geom_bond_atom_site_label_2
_geom_bond_distance
_geom_bond_site_symmetry_2
K0 Se7 3.338228 1_555
K0 Se2 3.338236 1_555
K0 Se1 3.353339 1_455
K0 Se3 3.353346 1_545
K0 Se5 3.760978 1_455
K0 Se0 3.760980 1_545
K1 Se6 3.338248 1_555
K1 Se4 3.338251 1_555
K1 Se5 3.353353 1_554
K1 Se0 3.353364 1_555
K1 Se1 3.760972 1_554
K1 Se3 3.760985 1_555
K2 Se3 3.338248 1_555
K2 Se1 3.338251 1_555
K2 Se2 3.353353 1_556
K2 Se7 3.353364 1_555
K2 Se4 3.760972 1_556
K2 Se6 3.760985 1_555
K3 Se0 3.338228 1_555
K3 Se5 3.338236 1_555
K3 Se4 3.353339 1_655
K3 Se6 3.353346 1_565
K3 Se2 3.760978 1_655
K3 Se7 3.760980 1_565
Na0 Se3 2.810274 1_544
Na0 Se1 2.810287 1_455
Na0 Se4 2.930953 1_545
Na0 Se6 2.930963 1_455
Na1 Se7 2.810275 1_654
Na1 Se2 2.810276 1_565
Na1 Se5 2.930938 1_554
Na1 Se0 2.930949 1_555
Na2 Se6 2.810274 1_456
Na2 Se4 2.810287 1_545
Na2 Se1 2.930953 1_455
Na2 Se3 2.930963 1_545
Na3 Se0 2.810275 1_455
Na3 Se5 2.810276 1_544
Na3 Se2 2.930938 1_555
Na3 Se7 2.930949 1_554
Se0 Si1 2.280279 1_555
Se1 Si1 2.280276 1_555
Se2 Si0 2.280292 1_555
Se3 Si1 2.280272 1_555
Se4 Si0 2.280276 1_555
Se5 Si1 2.280292 1_555
Se6 Si0 2.280272 1_555
Se7 Si0 2.280279 1_555
