# generated using pymatgen
data_Ta2Nb(GaIr)3
_symmetry_space_group_name_H-M   'P 1'
_cell_length_a   14.83533736
_cell_length_b   14.83854543
_cell_length_c   5.85870223
_cell_angle_alpha   90.00000000
_cell_angle_beta   90.00000000
_cell_angle_gamma   119.99285280
_symmetry_Int_Tables_number   1
_chemical_formula_structural   Ta2Nb(GaIr)3
_chemical_formula_sum   'Ta16 Nb8 Ga24 Ir24'
_cell_volume   1116.99720807
_cell_formula_units_Z   8
loop_
 _symmetry_equiv_pos_site_id
 _symmetry_equiv_pos_as_xyz
  1  'x, y, z'
loop_
 _atom_site_type_symbol
 _atom_site_label
 _atom_site_symmetry_multiplicity
 _atom_site_fract_x
 _atom_site_fract_y
 _atom_site_fract_z
 _atom_site_occupancy
  Ta  Ta0_0  1  0.49994031  0.18351936  0.25000050  1
  Ta  Ta0_1  1  0.49994031  0.18351936  0.75000050  1
  Ta  Ta0_2  1  0.49994031  0.68351936  0.25000050  1
  Ta  Ta0_3  1  0.49994031  0.68351936  0.75000050  1
  Ta  Ta0_4  1  0.99994031  0.18351936  0.25000050  1
  Ta  Ta0_5  1  0.99994031  0.18351936  0.75000050  1
  Ta  Ta0_6  1  0.99994031  0.68351936  0.25000050  1
  Ta  Ta0_7  1  0.99994031  0.68351936  0.75000050  1
  Ta  Ta1_0  1  0.31642095  0.31648114  0.25000050  1
  Ta  Ta1_1  1  0.31642095  0.31648114  0.75000050  1
  Ta  Ta1_2  1  0.31642095  0.81648114  0.25000050  1
  Ta  Ta1_3  1  0.31642095  0.81648114  0.75000050  1
  Ta  Ta1_4  1  0.81642095  0.31648114  0.25000050  1
  Ta  Ta1_5  1  0.81642095  0.31648114  0.75000050  1
  Ta  Ta1_6  1  0.81642095  0.81648114  0.25000050  1
  Ta  Ta1_7  1  0.81642095  0.81648114  0.75000050  1
  Nb  Nb0_0  1  0.18404326  0.00000000  0.25000050  1
  Nb  Nb0_1  1  0.18404326  0.00000000  0.75000050  1
  Nb  Nb0_2  1  0.18404326  0.50000000  0.25000050  1
  Nb  Nb0_3  1  0.18404326  0.50000000  0.75000050  1
  Nb  Nb0_4  1  0.68404326  0.00000000  0.25000050  1
  Nb  Nb0_5  1  0.68404326  0.00000000  0.75000050  1
  Nb  Nb0_6  1  0.68404326  0.50000000  0.25000050  1
  Nb  Nb0_7  1  0.68404326  0.50000000  0.75000050  1
  Ga  Ga0_0  1  0.35207334  0.00000000  0.00000000  1
  Ga  Ga0_1  1  0.35207334  0.00000000  0.50000000  1
  Ga  Ga0_2  1  0.35207334  0.50000000  0.00000000  1
  Ga  Ga0_3  1  0.35207334  0.50000000  0.50000000  1
  Ga  Ga0_4  1  0.85207334  0.00000000  0.00000000  1
  Ga  Ga0_5  1  0.85207334  0.00000000  0.50000000  1
  Ga  Ga0_6  1  0.85207334  0.50000000  0.00000000  1
  Ga  Ga0_7  1  0.85207334  0.50000000  0.50000000  1
  Ga  Ga1_0  1  0.14695727  0.14589781  0.00000000  1
  Ga  Ga1_1  1  0.14695727  0.14589781  0.50000000  1
  Ga  Ga1_2  1  0.14695727  0.64589781  0.00000000  1
  Ga  Ga1_3  1  0.14695727  0.64589781  0.50000000  1
  Ga  Ga1_4  1  0.64695727  0.14589781  0.00000000  1
  Ga  Ga1_5  1  0.64695727  0.14589781  0.50000000  1
  Ga  Ga1_6  1  0.64695727  0.64589781  0.00000000  1
  Ga  Ga1_7  1  0.64695727  0.64589781  0.50000000  1
  Ga  Ga2_0  1  0.00106047  0.35410269  0.00000000  1
  Ga  Ga2_1  1  0.00106047  0.35410269  0.50000000  1
  Ga  Ga2_2  1  0.00106047  0.85410269  0.00000000  1
  Ga  Ga2_3  1  0.00106047  0.85410269  0.50000000  1
  Ga  Ga2_4  1  0.50106047  0.35410269  0.00000000  1
  Ga  Ga2_5  1  0.50106047  0.35410269  0.50000000  1
  Ga  Ga2_6  1  0.50106047  0.85410269  0.00000000  1
  Ga  Ga2_7  1  0.50106047  0.85410269  0.50000000  1
  Ir  Ir0_0  1  0.33477920  0.16832876  0.00000000  1
  Ir  Ir0_1  1  0.33477920  0.16832876  0.50000000  1
  Ir  Ir0_2  1  0.33477920  0.66832876  0.00000000  1
  Ir  Ir0_3  1  0.33477920  0.66832876  0.50000000  1
  Ir  Ir0_4  1  0.83477920  0.16832876  0.00000000  1
  Ir  Ir0_5  1  0.83477920  0.16832876  0.50000000  1
  Ir  Ir0_6  1  0.83477920  0.66832876  0.00000000  1
  Ir  Ir0_7  1  0.83477920  0.66832876  0.50000000  1
  Ir  Ir1_0  1  0.16645094  0.33167174  0.00000000  1
  Ir  Ir1_1  1  0.16645094  0.33167174  0.50000000  1
  Ir  Ir1_2  1  0.16645094  0.83167174  0.00000000  1
  Ir  Ir1_3  1  0.16645094  0.83167174  0.50000000  1
  Ir  Ir1_4  1  0.66645094  0.33167174  0.00000000  1
  Ir  Ir1_5  1  0.66645094  0.33167174  0.50000000  1
  Ir  Ir1_6  1  0.66645094  0.83167174  0.00000000  1
  Ir  Ir1_7  1  0.66645094  0.83167174  0.50000000  1
  Ir  Ir2_0  1  0.49827475  0.50000000  0.25000050  1
  Ir  Ir2_1  1  0.49827475  0.50000000  0.75000050  1
  Ir  Ir2_2  1  0.49827475  1.00000000  0.25000050  1
  Ir  Ir2_3  1  0.49827475  1.00000000  0.75000050  1
  Ir  Ir2_4  1  0.99827475  0.50000000  0.25000050  1
  Ir  Ir2_5  1  0.99827475  0.50000000  0.75000050  1
  Ir  Ir2_6  1  0.99827475  1.00000000  0.25000050  1
  Ir  Ir2_7  1  0.99827475  1.00000000  0.75000050  1
loop_
_geom_bond_atom_site_label_1
_geom_bond_atom_site_label_2
_geom_bond_distance
_geom_bond_site_symmetry_2
Ta0_0 Ta0_1 2.929351 1_554
Ta0_0 Ta0_1 2.929351 1_555
Ta0_2 Ta0_3 2.929351 1_554
Ta0_2 Ta0_3 2.929351 1_555
Ta0_4 Ta0_5 2.929351 1_555
Ta0_4 Ta0_5 2.929351 1_554
Ta0_6 Ta0_7 2.929351 1_555
Ta0_6 Ta0_7 2.929351 1_554
Ta1_0 Ta1_1 2.929351 1_554
Ta1_0 Ta1_1 2.929351 1_555
Ta1_2 Ta1_3 2.929351 1_554
Ta1_2 Ta1_3 2.929351 1_555
Ta1_4 Ta1_5 2.929351 1_554
Ta1_4 Ta1_5 2.929351 1_555
Ta1_6 Ta1_7 2.929351 1_554
Ta1_6 Ta1_7 2.929351 1_555
Nb0_0 Nb0_1 2.929351 1_555
Nb0_0 Nb0_1 2.929351 1_554
Nb0_2 Nb0_3 2.929351 1_554
Nb0_2 Nb0_3 2.929351 1_555
Nb0_4 Nb0_5 2.929351 1_555
Nb0_4 Nb0_5 2.929351 1_554
Nb0_6 Nb0_7 2.929351 1_555
Nb0_6 Nb0_7 2.929351 1_554
Ga0_0 Ir2_3 2.617174 1_544
Ga0_0 Ir2_2 2.617177 1_545
Ga0_0 Ir1_2 2.635385 1_545
Ga0_0 Ir0_0 2.635393 1_555
Ga0_0 Nb0_1 2.891234 1_554
Ga0_0 Nb0_0 2.891237 1_555
Ga0_0 Ta1_3 2.898374 1_544
Ga0_0 Ta1_2 2.898377 1_545
Ga0_0 Ta0_1 2.898380 1_554
Ga0_0 Ta0_0 2.898383 1_555
Ga0_0 Ga0_1 2.929351 1_554
Ga0_0 Ga0_1 2.929351 1_555
Ga0_1 Ir2_2 2.617174 1_545
Ga0_1 Ir2_3 2.617177 1_545
Ga0_1 Ir1_3 2.635385 1_545
Ga0_1 Ir0_1 2.635393 1_555
Ga0_1 Nb0_0 2.891234 1_555
Ga0_1 Nb0_1 2.891237 1_555
Ga0_1 Ta1_2 2.898374 1_545
Ga0_1 Ta1_3 2.898377 1_545
Ga0_1 Ta0_0 2.898380 1_555
Ga0_1 Ta0_1 2.898383 1_555
Ga0_2 Ir2_1 2.617174 1_554
Ga0_2 Ir2_0 2.617177 1_555
Ga0_2 Ir1_0 2.635385 1_555
Ga0_2 Ir0_2 2.635393 1_555
Ga0_2 Nb0_3 2.891234 1_554
Ga0_2 Nb0_2 2.891237 1_555
Ga0_2 Ta1_1 2.898374 1_554
Ga0_2 Ta1_0 2.898377 1_555
Ga0_2 Ta0_3 2.898380 1_554
Ga0_2 Ta0_2 2.898383 1_555
Ga0_2 Ga0_3 2.929351 1_555
Ga0_2 Ga0_3 2.929351 1_554
Ga0_3 Ir2_0 2.617174 1_555
Ga0_3 Ir2_1 2.617177 1_555
Ga0_3 Ir1_1 2.635385 1_555
Ga0_3 Ir0_3 2.635393 1_555
Ga0_3 Nb0_2 2.891234 1_555
Ga0_3 Nb0_3 2.891237 1_555
Ga0_3 Ta1_0 2.898374 1_555
Ga0_3 Ta1_1 2.898377 1_555
Ga0_3 Ta0_2 2.898380 1_555
Ga0_3 Ta0_3 2.898383 1_555
Ga0_4 Ir2_7 2.617174 1_544
Ga0_4 Ir2_6 2.617177 1_545
Ga0_4 Ir1_6 2.635385 1_545
Ga0_4 Ir0_4 2.635393 1_555
Ga0_4 Nb0_5 2.891234 1_554
Ga0_4 Nb0_4 2.891237 1_555
Ga0_4 Ta1_7 2.898374 1_544
Ga0_4 Ta1_6 2.898377 1_545
Ga0_4 Ta0_5 2.898380 1_554
Ga0_4 Ta0_4 2.898383 1_555
Ga0_4 Ga0_5 2.929351 1_555
Ga0_4 Ga0_5 2.929351 1_554
Ga0_5 Ir2_6 2.617174 1_545
Ga0_5 Ir2_7 2.617177 1_545
Ga0_5 Ir1_7 2.635385 1_545
Ga0_5 Ir0_5 2.635393 1_555
Ga0_5 Nb0_4 2.891234 1_555
Ga0_5 Nb0_5 2.891237 1_555
Ga0_5 Ta1_6 2.898374 1_545
Ga0_5 Ta1_7 2.898377 1_545
Ga0_5 Ta0_4 2.898380 1_555
Ga0_5 Ta0_5 2.898383 1_555
Ga0_6 Ir2_5 2.617174 1_554
Ga0_6 Ir2_4 2.617177 1_555
Ga0_6 Ir1_4 2.635385 1_555
Ga0_6 Ir0_6 2.635393 1_555
Ga0_6 Nb0_7 2.891234 1_554
Ga0_6 Nb0_6 2.891237 1_555
Ga0_6 Ta1_5 2.898374 1_554
Ga0_6 Ta1_4 2.898377 1_555
Ga0_6 Ta0_7 2.898380 1_554
Ga0_6 Ta0_6 2.898383 1_555
Ga0_6 Ga0_7 2.929351 1_555
Ga0_6 Ga0_7 2.929351 1_554
Ga0_7 Ir2_4 2.617174 1_555
Ga0_7 Ir2_5 2.617177 1_555
Ga0_7 Ir1_5 2.635385 1_555
Ga0_7 Ir0_7 2.635393 1_555
Ga0_7 Nb0_6 2.891234 1_555
Ga0_7 Nb0_7 2.891237 1_555
Ga0_7 Ta1_4 2.898374 1_555
Ga0_7 Ta1_5 2.898377 1_555
Ga0_7 Ta0_6 2.898380 1_555
Ga0_7 Ta0_7 2.898383 1_555
Ga1_0 Ir1_0 2.624030 1_555
Ga1_0 Ir2_7 2.631203 1_444
Ga1_0 Ir2_6 2.631207 1_445
Ga1_0 Ir0_0 2.635827 1_555
Ga1_0 Nb0_1 2.885420 1_554
Ga1_0 Nb0_0 2.885423 1_555
Ga1_0 Ta0_5 2.903649 1_454
Ga1_0 Ta0_4 2.903651 1_455
Ga1_0 Ta1_1 2.917280 1_554
Ga1_0 Ta1_0 2.917283 1_555
Ga1_0 Ga1_1 2.929351 1_555
Ga1_0 Ga1_1 2.929351 1_554
Ga1_1 Ir1_1 2.624030 1_555
Ga1_1 Ir2_6 2.631203 1_445
Ga1_1 Ir2_7 2.631207 1_445
Ga1_1 Ir0_1 2.635827 1_555
Ga1_1 Nb0_0 2.885420 1_555
Ga1_1 Nb0_1 2.885423 1_555
Ga1_1 Ta0_4 2.903649 1_455
Ga1_1 Ta0_5 2.903651 1_455
Ga1_1 Ta1_0 2.917280 1_555
Ga1_1 Ta1_1 2.917283 1_555
Ga1_2 Ir1_2 2.624030 1_555
Ga1_2 Ir2_5 2.631203 1_454
Ga1_2 Ir2_4 2.631207 1_455
Ga1_2 Ir0_2 2.635827 1_555
Ga1_2 Nb0_3 2.885420 1_554
Ga1_2 Nb0_2 2.885423 1_555
Ga1_2 Ta0_7 2.903649 1_454
Ga1_2 Ta0_6 2.903651 1_455
Ga1_2 Ta1_3 2.917280 1_554
Ga1_2 Ta1_2 2.917283 1_555
Ga1_2 Ga1_3 2.929351 1_554
Ga1_2 Ga1_3 2.929351 1_555
Ga1_3 Ir1_3 2.624030 1_555
Ga1_3 Ir2_4 2.631203 1_455
Ga1_3 Ir2_5 2.631207 1_455
Ga1_3 Ir0_3 2.635827 1_555
Ga1_3 Nb0_2 2.885420 1_555
Ga1_3 Nb0_3 2.885423 1_555
Ga1_3 Ta0_6 2.903649 1_455
Ga1_3 Ta0_7 2.903651 1_455
Ga1_3 Ta1_2 2.917280 1_555
Ga1_3 Ta1_3 2.917283 1_555
Ga1_4 Ir1_4 2.624030 1_555
Ga1_4 Ir2_3 2.631203 1_544
Ga1_4 Ir2_2 2.631207 1_545
Ga1_4 Ir0_4 2.635827 1_555
Ga1_4 Nb0_5 2.885420 1_554
Ga1_4 Nb0_4 2.885423 1_555
Ga1_4 Ta0_1 2.903649 1_554
Ga1_4 Ta0_0 2.903651 1_555
Ga1_4 Ta1_5 2.917280 1_554
Ga1_4 Ta1_4 2.917283 1_555
Ga1_4 Ga1_5 2.929351 1_555
Ga1_4 Ga1_5 2.929351 1_554
Ga1_5 Ir1_5 2.624030 1_555
Ga1_5 Ir2_2 2.631203 1_545
Ga1_5 Ir2_3 2.631207 1_545
Ga1_5 Ir0_5 2.635827 1_555
Ga1_5 Nb0_4 2.885420 1_555
Ga1_5 Nb0_5 2.885423 1_555
Ga1_5 Ta0_0 2.903649 1_555
Ga1_5 Ta0_1 2.903651 1_555
Ga1_5 Ta1_4 2.917280 1_555
Ga1_5 Ta1_5 2.917283 1_555
Ga1_6 Ir1_6 2.624030 1_555
Ga1_6 Ir2_1 2.631203 1_554
Ga1_6 Ir2_0 2.631207 1_555
Ga1_6 Ir0_6 2.635827 1_555
Ga1_6 Nb0_7 2.885420 1_554
Ga1_6 Nb0_6 2.885423 1_555
Ga1_6 Ta0_3 2.903649 1_554
Ga1_6 Ta0_2 2.903651 1_555
Ga1_6 Ta1_7 2.917280 1_554
Ga1_6 Ta1_6 2.917283 1_555
Ga1_6 Ga1_7 2.929351 1_555
Ga1_6 Ga1_7 2.929351 1_554
Ga1_7 Ir1_7 2.624030 1_555
Ga1_7 Ir2_0 2.631203 1_555
Ga1_7 Ir2_1 2.631207 1_555
Ga1_7 Ir0_7 2.635827 1_555
Ga1_7 Nb0_6 2.885420 1_555
Ga1_7 Nb0_7 2.885423 1_555
Ga1_7 Ta0_2 2.903649 1_555
Ga1_7 Ta0_3 2.903651 1_555
Ga1_7 Ta1_6 2.917280 1_555
Ga1_7 Ta1_7 2.917283 1_555
Ga2_0 Ir0_4 2.624036 1_455
Ga2_0 Ir2_5 2.631204 1_454
Ga2_0 Ir2_4 2.631207 1_455
Ga2_0 Ir1_0 2.635820 1_555
Ga2_0 Nb0_3 2.885409 1_554
Ga2_0 Nb0_2 2.885412 1_555
Ga2_0 Ta1_5 2.903661 1_454
Ga2_0 Ta1_4 2.903664 1_455
Ga2_0 Ta0_5 2.917277 1_454
Ga2_0 Ta0_4 2.917280 1_455
Ga2_0 Ga2_1 2.929351 1_554
Ga2_0 Ga2_1 2.929351 1_555
Ga2_1 Ir0_5 2.624036 1_455
Ga2_1 Ir2_4 2.631204 1_455
Ga2_1 Ir2_5 2.631207 1_455
Ga2_1 Ir1_1 2.635820 1_555
Ga2_1 Nb0_2 2.885409 1_555
Ga2_1 Nb0_3 2.885412 1_555
Ga2_1 Ta1_4 2.903661 1_455
Ga2_1 Ta1_5 2.903664 1_455
Ga2_1 Ta0_4 2.917277 1_455
Ga2_1 Ta0_5 2.917280 1_455
Ga2_2 Ir0_6 2.624036 1_455
Ga2_2 Ir2_7 2.631204 1_454
Ga2_2 Ir2_6 2.631207 1_455
Ga2_2 Ir1_2 2.635820 1_555
Ga2_2 Nb0_1 2.885409 1_564
Ga2_2 Nb0_0 2.885412 1_565
Ga2_2 Ta1_7 2.903661 1_454
Ga2_2 Ta1_6 2.903664 1_455
Ga2_2 Ta0_7 2.917277 1_454
Ga2_2 Ta0_6 2.917280 1_455
Ga2_2 Ga2_3 2.929351 1_555
Ga2_2 Ga2_3 2.929351 1_554
Ga2_3 Ir0_7 2.624036 1_455
Ga2_3 Ir2_6 2.631204 1_455
Ga2_3 Ir2_7 2.631207 1_455
Ga2_3 Ir1_3 2.635820 1_555
Ga2_3 Nb0_0 2.885409 1_565
Ga2_3 Nb0_1 2.885412 1_565
Ga2_3 Ta1_6 2.903661 1_455
Ga2_3 Ta1_7 2.903664 1_455
Ga2_3 Ta0_6 2.917277 1_455
Ga2_3 Ta0_7 2.917280 1_455
Ga2_4 Ir0_0 2.624036 1_555
Ga2_4 Ir2_1 2.631204 1_554
Ga2_4 Ir2_0 2.631207 1_555
Ga2_4 Ir1_4 2.635820 1_555
Ga2_4 Nb0_7 2.885409 1_554
Ga2_4 Nb0_6 2.885412 1_555
Ga2_4 Ta1_1 2.903661 1_554
Ga2_4 Ta1_0 2.903664 1_555
Ga2_4 Ta0_1 2.917277 1_554
Ga2_4 Ta0_0 2.917280 1_555
Ga2_4 Ga2_5 2.929351 1_554
Ga2_4 Ga2_5 2.929351 1_555
Ga2_5 Ir0_1 2.624036 1_555
Ga2_5 Ir2_0 2.631204 1_555
Ga2_5 Ir2_1 2.631207 1_555
Ga2_5 Ir1_5 2.635820 1_555
Ga2_5 Nb0_6 2.885409 1_555
Ga2_5 Nb0_7 2.885412 1_555
Ga2_5 Ta1_0 2.903661 1_555
Ga2_5 Ta1_1 2.903664 1_555
Ga2_5 Ta0_0 2.917277 1_555
Ga2_5 Ta0_1 2.917280 1_555
Ga2_6 Ir0_2 2.624036 1_555
Ga2_6 Ir2_3 2.631204 1_554
Ga2_6 Ir2_2 2.631207 1_555
Ga2_6 Ir1_6 2.635820 1_555
Ga2_6 Nb0_5 2.885409 1_564
Ga2_6 Nb0_4 2.885412 1_565
Ga2_6 Ta1_3 2.903661 1_554
Ga2_6 Ta1_2 2.903664 1_555
Ga2_6 Ta0_3 2.917277 1_554
Ga2_6 Ta0_2 2.917280 1_555
Ga2_6 Ga2_7 2.929351 1_554
Ga2_6 Ga2_7 2.929351 1_555
Ga2_7 Ir0_3 2.624036 1_555
Ga2_7 Ir2_2 2.631204 1_555
Ga2_7 Ir2_3 2.631207 1_555
Ga2_7 Ir1_7 2.635820 1_555
Ga2_7 Nb0_4 2.885409 1_565
Ga2_7 Nb0_5 2.885412 1_565
Ga2_7 Ta1_2 2.903661 1_555
Ga2_7 Ta1_3 2.903664 1_555
Ga2_7 Ta0_2 2.917277 1_555
Ga2_7 Ta0_3 2.917280 1_555
Ir0_0 Ta0_1 2.765408 1_554
Ir0_0 Ta0_0 2.765411 1_555
Ir0_0 Ta1_1 2.766017 1_554
Ir0_0 Ta1_0 2.766020 1_555
Ir0_0 Nb0_1 2.792919 1_554
Ir0_0 Nb0_0 2.792922 1_555
Ir0_0 Ir0_1 2.929351 1_555
Ir0_0 Ir0_1 2.929351 1_554
Ir0_1 Ta0_0 2.765408 1_555
Ir0_1 Ta0_1 2.765411 1_555
Ir0_1 Ta1_0 2.766017 1_555
Ir0_1 Ta1_1 2.766020 1_555
Ir0_1 Nb0_0 2.792919 1_555
Ir0_1 Nb0_1 2.792922 1_555
Ir0_2 Ta0_3 2.765408 1_554
Ir0_2 Ta0_2 2.765411 1_555
Ir0_2 Ta1_3 2.766017 1_554
Ir0_2 Ta1_2 2.766020 1_555
Ir0_2 Nb0_3 2.792919 1_554
Ir0_2 Nb0_2 2.792922 1_555
Ir0_2 Ir0_3 2.929351 1_554
Ir0_2 Ir0_3 2.929351 1_555
Ir0_3 Ta0_2 2.765408 1_555
Ir0_3 Ta0_3 2.765411 1_555
Ir0_3 Ta1_2 2.766017 1_555
Ir0_3 Ta1_3 2.766020 1_555
Ir0_3 Nb0_2 2.792919 1_555
Ir0_3 Nb0_3 2.792922 1_555
Ir0_4 Ta0_5 2.765408 1_554
Ir0_4 Ta0_4 2.765411 1_555
Ir0_4 Ta1_5 2.766017 1_554
Ir0_4 Ta1_4 2.766020 1_555
Ir0_4 Nb0_5 2.792919 1_554
Ir0_4 Nb0_4 2.792922 1_555
Ir0_4 Ir0_5 2.929351 1_555
Ir0_4 Ir0_5 2.929351 1_554
Ir0_5 Ta0_4 2.765408 1_555
Ir0_5 Ta0_5 2.765411 1_555
Ir0_5 Ta1_4 2.766017 1_555
Ir0_5 Ta1_5 2.766020 1_555
Ir0_5 Nb0_4 2.792919 1_555
Ir0_5 Nb0_5 2.792922 1_555
Ir0_6 Ta0_7 2.765408 1_554
Ir0_6 Ta0_6 2.765411 1_555
Ir0_6 Ta1_7 2.766017 1_554
Ir0_6 Ta1_6 2.766020 1_555
Ir0_6 Nb0_7 2.792919 1_554
Ir0_6 Nb0_6 2.792922 1_555
Ir0_6 Ir0_7 2.929351 1_555
Ir0_6 Ir0_7 2.929351 1_554
Ir0_7 Ta0_6 2.765408 1_555
Ir0_7 Ta0_7 2.765411 1_555
Ir0_7 Ta1_6 2.766017 1_555
Ir0_7 Ta1_7 2.766020 1_555
Ir0_7 Nb0_6 2.792919 1_555
Ir0_7 Nb0_7 2.792922 1_555
Ir1_0 Ta1_1 2.765402 1_554
Ir1_0 Ta1_0 2.765405 1_555
Ir1_0 Ta0_5 2.766017 1_454
Ir1_0 Ta0_4 2.766020 1_455
Ir1_0 Nb0_3 2.792916 1_554
Ir1_0 Nb0_2 2.792919 1_555
Ir1_0 Ir1_1 2.929351 1_554
Ir1_0 Ir1_1 2.929351 1_555
Ir1_1 Ta1_0 2.765402 1_555
Ir1_1 Ta1_1 2.765405 1_555
Ir1_1 Ta0_4 2.766017 1_455
Ir1_1 Ta0_5 2.766020 1_455
Ir1_1 Nb0_2 2.792916 1_555
Ir1_1 Nb0_3 2.792919 1_555
Ir1_2 Ta1_3 2.765402 1_554
Ir1_2 Ta1_2 2.765405 1_555
Ir1_2 Ta0_7 2.766017 1_454
Ir1_2 Ta0_6 2.766020 1_455
Ir1_2 Nb0_1 2.792916 1_564
Ir1_2 Nb0_0 2.792919 1_565
Ir1_2 Ir1_3 2.929351 1_555
Ir1_2 Ir1_3 2.929351 1_554
Ir1_3 Ta1_2 2.765402 1_555
Ir1_3 Ta1_3 2.765405 1_555
Ir1_3 Ta0_6 2.766017 1_455
Ir1_3 Ta0_7 2.766020 1_455
Ir1_3 Nb0_0 2.792916 1_565
Ir1_3 Nb0_1 2.792919 1_565
Ir1_4 Ta1_5 2.765402 1_554
Ir1_4 Ta1_4 2.765405 1_555
Ir1_4 Ta0_1 2.766017 1_554
Ir1_4 Ta0_0 2.766020 1_555
Ir1_4 Nb0_7 2.792916 1_554
Ir1_4 Nb0_6 2.792919 1_555
Ir1_4 Ir1_5 2.929351 1_555
Ir1_4 Ir1_5 2.929351 1_554
Ir1_5 Ta1_4 2.765402 1_555
Ir1_5 Ta1_5 2.765405 1_555
Ir1_5 Ta0_0 2.766017 1_555
Ir1_5 Ta0_1 2.766020 1_555
Ir1_5 Nb0_6 2.792916 1_555
Ir1_5 Nb0_7 2.792919 1_555
Ir1_6 Ta1_7 2.765402 1_554
Ir1_6 Ta1_6 2.765405 1_555
Ir1_6 Ta0_3 2.766017 1_554
Ir1_6 Ta0_2 2.766020 1_555
Ir1_6 Nb0_5 2.792916 1_564
Ir1_6 Nb0_4 2.792919 1_565
Ir1_6 Ir1_7 2.929351 1_554
Ir1_6 Ir1_7 2.929351 1_555
Ir1_7 Ta1_6 2.765402 1_555
Ir1_7 Ta1_7 2.765405 1_555
Ir1_7 Ta0_2 2.766017 1_555
Ir1_7 Ta0_3 2.766020 1_555
Ir1_7 Nb0_4 2.792916 1_565
Ir1_7 Nb0_5 2.792919 1_565
Ir2_0 Ta1_0 2.710889 1_555
Ir2_0 Ta0_2 2.710893 1_555
Ir2_0 Nb0_6 2.755939 1_555
Ir2_0 Ir2_1 2.929351 1_555
Ir2_0 Ir2_1 2.929351 1_554
Ir2_1 Ta1_1 2.710889 1_555
Ir2_1 Ta0_3 2.710893 1_555
Ir2_1 Nb0_7 2.755939 1_555
Ir2_2 Ta1_2 2.710889 1_555
Ir2_2 Ta0_0 2.710893 1_565
Ir2_2 Nb0_4 2.755939 1_565
Ir2_2 Ir2_3 2.929351 1_554
Ir2_2 Ir2_3 2.929351 1_555
Ir2_3 Ta1_3 2.710889 1_555
Ir2_3 Ta0_1 2.710893 1_565
Ir2_3 Nb0_5 2.755939 1_565
Ir2_4 Ta1_4 2.710889 1_555
Ir2_4 Ta0_6 2.710893 1_555
Ir2_4 Nb0_2 2.755939 1_655
Ir2_4 Ir2_5 2.929351 1_554
Ir2_4 Ir2_5 2.929351 1_555
Ir2_5 Ta1_5 2.710889 1_555
Ir2_5 Ta0_7 2.710893 1_555
Ir2_5 Nb0_3 2.755939 1_655
Ir2_6 Ta1_6 2.710889 1_555
Ir2_6 Ta0_4 2.710893 1_565
Ir2_6 Nb0_0 2.755939 1_665
Ir2_6 Ir2_7 2.929351 1_555
Ir2_6 Ir2_7 2.929351 1_554
Ir2_7 Ta1_7 2.710889 1_555
Ir2_7 Ta0_5 2.710893 1_565
Ir2_7 Nb0_1 2.755939 1_665
