# generated using pymatgen
data_CaNbBiF12
_symmetry_space_group_name_H-M   'P 1'
_cell_length_a   11.46345051
_cell_length_b   5.82897073
_cell_length_c   5.72933041
_cell_angle_alpha   53.65901311
_cell_angle_beta   54.15761536
_cell_angle_gamma   53.45506837
_symmetry_Int_Tables_number   1
_chemical_formula_structural   CaNbBiF12
_chemical_formula_sum   'Ca1 Nb1 Bi1 F12'
_cell_volume   231.17452874
_cell_formula_units_Z   1
loop_
 _symmetry_equiv_pos_site_id
 _symmetry_equiv_pos_as_xyz
  1  'x, y, z'
loop_
 _atom_site_type_symbol
 _atom_site_label
 _atom_site_symmetry_multiplicity
 _atom_site_fract_x
 _atom_site_fract_y
 _atom_site_fract_z
 _atom_site_occupancy
  Ca  Ca0  1  0.74816688  0.49762944  0.50583262  1
  Nb  Nb0  1  0.46678014  0.04174624  0.00197835  1
  Bi  Bi0  1  0.03078435  0.95907415  0.00082683  1
  F  F0  1  0.21913098  0.05973021  0.75385575  1
  F  F1  1  0.66581747  0.11213835  0.77803382  1
  F  F2  1  0.04072844  0.74873100  0.42163911  1
  F  F3  1  0.54325233  0.78073786  0.35095022  1
  F  F4  1  0.12939243  0.57510027  0.92914584  1
  F  F5  1  0.60554881  0.66438447  0.89889851  1
  F  F6  1  0.45098653  0.24336914  0.61153293  1
  F  F7  1  0.96745444  0.22446532  0.61881666  1
  F  F8  1  0.29523381  0.92837463  0.24819292  1
  F  F9  1  0.82228835  0.90702846  0.21375766  1
  F  F10  1  0.37163604  0.39915634  0.07825688  1
  F  F11  1  0.89279900  0.35833513  0.08828088  1
loop_
_geom_bond_atom_site_label_1
_geom_bond_atom_site_label_2
_geom_bond_distance
_geom_bond_site_symmetry_2
Ca0 F1 2.240800 1_555
Ca0 F5 2.253713 1_555
Ca0 F3 2.262246 1_555
Ca0 F11 2.277070 1_555
Ca0 F7 2.278342 1_555
Ca0 F9 2.287745 1_555
Bi0 F0 1.988711 1_564
Bi0 F2 1.995251 1_555
Bi0 F4 1.997144 1_554
Bi0 F7 2.054502 1_464
Bi0 F11 2.058920 1_465
Bi0 F9 2.074360 1_455
F1 Nb0 2.020665 1_556
F3 Nb0 1.984898 1_565
F5 Nb0 1.997494 1_566
F6 Nb0 1.877009 1_556
F8 Nb0 1.867585 1_565
F10 Nb0 1.880337 1_555
