# generated using pymatgen
data_Hf16ReNi4Rh3
_symmetry_space_group_name_H-M   'P 1'
_cell_length_a   8.59744214
_cell_length_b   8.54704564
_cell_length_c   8.54704619
_cell_angle_alpha   59.99999407
_cell_angle_beta   60.19371224
_cell_angle_gamma   60.19371548
_symmetry_Int_Tables_number   1
_chemical_formula_structural   Hf16ReNi4Rh3
_chemical_formula_sum   'Hf16 Re1 Ni4 Rh3'
_cell_volume   445.40156549
_cell_formula_units_Z   1
loop_
 _symmetry_equiv_pos_site_id
 _symmetry_equiv_pos_as_xyz
  1  'x, y, z'
loop_
 _atom_site_type_symbol
 _atom_site_label
 _atom_site_symmetry_multiplicity
 _atom_site_fract_x
 _atom_site_fract_y
 _atom_site_fract_z
 _atom_site_occupancy
  Hf  Hf0  1  0.66749762  0.11083413  0.11083413  1
  Hf  Hf1  1  0.10553316  0.68440365  0.10503060  1
  Hf  Hf2  1  0.10553316  0.10503060  0.68440365  1
  Hf  Hf3  1  0.10553316  0.10503060  0.10503060  1
  Hf  Hf4  1  0.31666159  0.31425372  0.68454334  1
  Hf  Hf5  1  0.69389730  0.67943909  0.31333231  1
  Hf  Hf6  1  0.31666159  0.68454334  0.31425372  1
  Hf  Hf7  1  0.69389730  0.31333231  0.67943909  1
  Hf  Hf8  1  0.69389730  0.31333231  0.31333231  1
  Hf  Hf9  1  0.31666159  0.68454334  0.68454334  1
  Hf  Hf10  1  0.94697077  0.94984236  0.55159393  1
  Hf  Hf11  1  0.55352357  0.55358423  0.94644660  1
  Hf  Hf12  1  0.94697077  0.55159393  0.94984236  1
  Hf  Hf13  1  0.55352357  0.94644660  0.55358423  1
  Hf  Hf14  1  0.55352357  0.94644660  0.94644660  1
  Hf  Hf15  1  0.94697077  0.55159393  0.55159393  1
  Re  Re0  1  0.00064403  0.33311799  0.33311799  1
  Ni  Ni0  1  0.32351966  0.89216011  0.89216011  1
  Ni  Ni1  1  0.88850225  0.31761631  0.89694072  1
  Ni  Ni2  1  0.88850225  0.89694072  0.31761631  1
  Ni  Ni3  1  0.88850225  0.89694072  0.89694072  1
  Rh  Rh0  1  0.33102259  0.99565461  0.33666090  1
  Rh  Rh1  1  0.33102259  0.33666090  0.99565461  1
  Rh  Rh2  1  0.33102259  0.33666090  0.33666090  1
loop_
_geom_bond_atom_site_label_1
_geom_bond_atom_site_label_2
_geom_bond_distance
_geom_bond_site_symmetry_2
Hf0 Ni1 2.594265 1_554
Hf0 Ni3 2.594265 1_544
Hf0 Ni2 2.594265 1_545
Hf0 Rh2 2.905713 1_555
Hf0 Rh0 2.905717 1_545
Hf0 Rh1 2.905718 1_554
Hf0 Hf14 3.101593 1_544
Hf0 Hf11 3.101599 1_554
Hf0 Hf13 3.101599 1_545
Hf0 Hf5 3.133548 1_545
Hf0 Hf7 3.133549 1_554
Hf0 Hf8 3.133556 1_555
Hf1 Ni3 2.577483 1_454
Hf1 Ni2 2.577494 1_455
Hf1 Ni0 2.581388 1_554
Hf1 Rh1 2.952064 1_554
Hf1 Rh2 2.952068 1_555
Hf1 Re0 2.952823 1_555
Hf1 Hf5 3.083191 1_455
Hf1 Hf9 3.118277 1_554
Hf1 Hf6 3.118307 1_555
Hf1 Hf12 3.122157 1_454
Hf1 Hf15 3.122178 1_455
Hf1 Hf11 3.156946 1_554
Hf2 Ni3 2.577482 1_445
Hf2 Ni1 2.577494 1_455
Hf2 Ni0 2.581388 1_545
Hf2 Rh0 2.952064 1_545
Hf2 Rh2 2.952068 1_555
Hf2 Re0 2.952824 1_555
Hf2 Hf7 3.083191 1_455
Hf2 Hf9 3.118277 1_545
Hf2 Hf4 3.118307 1_555
Hf3 Ni2 2.577482 1_445
Hf3 Ni1 2.577483 1_454
Hf3 Ni0 2.581376 1_544
Hf3 Rh1 2.952071 1_554
Hf3 Rh0 2.952071 1_545
Hf3 Re0 2.952824 1_555
Hf3 Hf8 3.083199 1_455
Hf3 Hf4 3.118287 1_554
Hf3 Hf6 3.118287 1_545
Hf4 Rh1 2.825206 1_555
Hf4 Rh2 2.825232 1_555
Hf4 Ni0 3.107773 1_545
Hf4 Hf6 3.164882 1_555
Hf4 Hf9 3.164882 1_555
Hf4 Ni1 3.185964 1_455
Hf4 Hf7 3.217919 1_555
Hf4 Hf8 3.217923 1_555
Hf5 Re0 2.815604 1_655
Hf5 Rh0 2.935221 1_555
Hf5 Ni2 3.078559 1_555
Hf5 Ni3 3.078563 1_554
Hf5 Hf7 3.129131 1_555
Hf5 Hf8 3.129131 1_555
Hf5 Hf6 3.217919 1_555
Hf5 Hf9 3.217923 1_555
Hf6 Rh0 2.825206 1_555
Hf6 Rh2 2.825232 1_555
Hf6 Ni0 3.107773 1_554
Hf6 Hf9 3.164882 1_555
Hf6 Ni2 3.185964 1_455
Hf6 Hf8 3.217923 1_555
Hf7 Re0 2.815604 1_655
Hf7 Rh1 2.935221 1_555
Hf7 Ni1 3.078559 1_555
Hf7 Ni3 3.078563 1_545
Hf7 Hf8 3.129132 1_555
Hf7 Hf9 3.217923 1_555
Hf8 Re0 2.815590 1_655
Hf8 Rh2 2.935228 1_555
Hf8 Ni2 3.078566 1_545
Hf8 Ni1 3.078566 1_554
Hf9 Rh1 2.825220 1_555
Hf9 Rh0 2.825220 1_555
Hf9 Ni0 3.107759 1_555
Hf9 Ni3 3.185959 1_455
Hf10 Ni3 2.566303 1_555
Hf10 Ni2 2.566311 1_555
Hf10 Re0 2.993366 1_665
Hf10 Rh0 2.994365 1_655
Hf10 Hf2 3.122157 1_665
Hf10 Hf3 3.122177 1_665
Hf10 Hf8 3.145029 1_565
Hf10 Hf7 3.145029 1_565
Hf10 Hf6 3.222437 1_655
Hf10 Hf9 3.222442 1_655
Hf11 Ni0 2.525943 1_555
Hf11 Ni1 2.531480 1_555
Hf11 Rh2 3.036441 1_556
Hf11 Rh1 3.036450 1_555
Hf11 Hf9 3.189180 1_555
Hf11 Hf6 3.189187 1_556
Hf11 Hf8 3.219583 1_556
Hf11 Hf7 3.219583 1_555
Hf12 Ni3 2.566303 1_555
Hf12 Ni1 2.566311 1_555
Hf12 Re0 2.993366 1_656
Hf12 Rh1 2.994365 1_655
Hf12 Hf3 3.122177 1_656
Hf12 Hf8 3.145029 1_556
Hf12 Hf5 3.145029 1_556
Hf12 Hf4 3.222437 1_655
Hf12 Hf9 3.222441 1_655
Hf13 Ni0 2.525943 1_555
Hf13 Ni2 2.531480 1_555
Hf13 Rh2 3.036441 1_565
Hf13 Rh0 3.036450 1_555
Hf13 Hf2 3.156946 1_565
Hf13 Hf9 3.189180 1_555
Hf13 Hf4 3.189187 1_565
Hf13 Hf8 3.219582 1_565
Hf13 Hf5 3.219583 1_555
Hf14 Ni0 2.525949 1_555
Hf14 Ni3 2.531478 1_555
Hf14 Rh1 3.036435 1_565
Hf14 Rh0 3.036435 1_556
Hf14 Hf3 3.156945 1_566
Hf14 Hf6 3.189183 1_556
Hf14 Hf4 3.189183 1_565
Hf14 Hf7 3.219582 1_565
Hf14 Hf5 3.219583 1_556
Hf15 Ni2 2.566305 1_555
Hf15 Ni1 2.566305 1_555
Hf15 Re0 2.993388 1_655
Hf15 Rh2 2.994372 1_655
Hf15 Hf2 3.122178 1_655
Hf15 Hf7 3.145029 1_555
Hf15 Hf5 3.145029 1_555
Hf15 Hf6 3.222442 1_655
Hf15 Hf4 3.222442 1_655
Re0 Rh1 2.870831 1_554
Re0 Rh0 2.870831 1_545
Re0 Rh2 2.870836 1_555
Rh0 Rh1 2.914596 1_564
Rh0 Rh2 2.914596 1_565
Rh1 Rh2 2.914597 1_556
