# generated using pymatgen
data_Ba2AsSe3I
_symmetry_space_group_name_H-M   'P 1'
_cell_length_a   7.30259824
_cell_length_b   10.13075158
_cell_length_c   12.79655405
_cell_angle_alpha   90.00000000
_cell_angle_beta   90.00000000
_cell_angle_gamma   90.00000000
_symmetry_Int_Tables_number   1
_chemical_formula_structural   Ba2AsSe3I
_chemical_formula_sum   'Ba8 As4 Se12 I4'
_cell_volume   946.69941600
_cell_formula_units_Z   4
loop_
 _symmetry_equiv_pos_site_id
 _symmetry_equiv_pos_as_xyz
  1  'x, y, z'
loop_
 _atom_site_type_symbol
 _atom_site_label
 _atom_site_symmetry_multiplicity
 _atom_site_fract_x
 _atom_site_fract_y
 _atom_site_fract_z
 _atom_site_occupancy
  Ba  Ba0  1  0.25000000  0.84193020  0.36399939  1
  Ba  Ba1  1  0.75000000  0.15806980  0.63600061  1
  Ba  Ba2  1  0.75000000  0.34193020  0.13600061  1
  Ba  Ba3  1  0.25000000  0.65806980  0.86399939  1
  Ba  Ba4  1  0.25000000  0.31220536  0.34117041  1
  Ba  Ba5  1  0.75000000  0.68779464  0.65882959  1
  Ba  Ba6  1  0.75000000  0.81220536  0.15882959  1
  Ba  Ba7  1  0.25000000  0.18779464  0.84117041  1
  As  As0  1  0.25000000  0.02866060  0.09243564  1
  As  As1  1  0.75000000  0.97133940  0.90756436  1
  As  As2  1  0.75000000  0.52866060  0.40756436  1
  As  As3  1  0.25000000  0.47133940  0.59243564  1
  Se  Se0  1  0.00653854  0.07767324  0.21141378  1
  Se  Se1  1  0.99346146  0.92232676  0.78858622  1
  Se  Se2  1  0.99346146  0.57767324  0.28858622  1
  Se  Se3  1  0.50653854  0.92232676  0.78858622  1
  Se  Se4  1  0.00653854  0.42232676  0.71141378  1
  Se  Se5  1  0.49346146  0.07767324  0.21141378  1
  Se  Se6  1  0.49346146  0.42232676  0.71141378  1
  Se  Se7  1  0.50653854  0.57767324  0.28858622  1
  Se  Se8  1  0.25000000  0.79364076  0.10206551  1
  Se  Se9  1  0.75000000  0.20635924  0.89793449  1
  Se  Se10  1  0.75000000  0.29364076  0.39793449  1
  Se  Se11  1  0.25000000  0.70635924  0.60206551  1
  I  I0  1  0.25000000  0.39787290  0.05558863  1
  I  I1  1  0.75000000  0.60212710  0.94441137  1
  I  I2  1  0.75000000  0.89787290  0.44441137  1
  I  I3  1  0.25000000  0.10212710  0.55558863  1
loop_
_geom_bond_atom_site_label_1
_geom_bond_atom_site_label_2
_geom_bond_distance
_geom_bond_site_symmetry_2
Ba0 Se11 3.341712 1_555
Ba0 Se8 3.387363 1_555
Ba0 Se7 3.407034 1_555
Ba0 Se2 3.407034 1_455
Ba0 Se5 3.560508 1_565
Ba0 Se0 3.560508 1_565
Ba0 I3 3.599887 1_565
Ba0 I2 3.835624 1_555
Ba0 I2 3.835624 1_455
Ba1 Se10 3.341712 1_555
Ba1 Se9 3.387363 1_555
Ba1 Se4 3.407034 1_655
Ba1 Se6 3.407034 1_555
Ba1 Se1 3.560508 1_545
Ba1 Se3 3.560508 1_545
Ba1 I2 3.599887 1_545
Ba1 I3 3.835624 1_655
Ba1 I3 3.835624 1_555
Ba2 Se9 3.341712 1_554
Ba2 Se10 3.387363 1_555
Ba2 Se0 3.407034 1_655
Ba2 Se5 3.407034 1_555
Ba2 Se2 3.560508 1_555
Ba2 Se7 3.560508 1_555
Ba2 I1 3.599887 1_554
Ba2 I0 3.835624 1_555
Ba2 I0 3.835624 1_655
Ba3 Se8 3.341712 1_556
Ba3 Se11 3.387363 1_555
Ba3 Se3 3.407034 1_555
Ba3 Se1 3.407034 1_455
Ba3 Se6 3.560508 1_555
Ba3 Se4 3.560508 1_555
Ba3 I0 3.599887 1_556
Ba3 I1 3.835624 1_555
Ba3 I1 3.835624 1_455
Ba4 Se7 3.345926 1_555
Ba4 Se2 3.345926 1_455
Ba4 Se5 3.400485 1_555
Ba4 Se0 3.400485 1_555
Ba4 I3 3.472459 1_555
Ba4 Se10 3.727599 1_555
Ba4 Se10 3.727599 1_455
Ba4 I0 3.756103 1_555
Ba5 Se4 3.345926 1_655
Ba5 Se6 3.345926 1_555
Ba5 Se1 3.400485 1_555
Ba5 Se3 3.400485 1_555
Ba5 I2 3.472459 1_555
Ba5 Se11 3.727599 1_555
Ba5 Se11 3.727599 1_655
Ba5 I1 3.756103 1_555
Ba6 Se0 3.345926 1_665
Ba6 Se5 3.345926 1_565
Ba6 Se2 3.400485 1_555
Ba6 Se7 3.400485 1_555
Ba6 I1 3.472459 1_554
Ba6 Se8 3.727599 1_555
Ba6 Se8 3.727599 1_655
Ba6 I2 3.756103 1_555
Ba7 Se3 3.345926 1_545
Ba7 Se1 3.345926 1_445
Ba7 Se6 3.400485 1_555
Ba7 Se4 3.400485 1_555
Ba7 I0 3.472459 1_556
Ba7 Se9 3.727599 1_555
Ba7 Se9 3.727599 1_455
Ba7 I3 3.756103 1_555
As0 Se8 2.384114 1_545
As0 Se5 2.392805 1_555
As0 Se0 2.392805 1_555
As0 Ba7 3.596854 1_554
As1 Se9 2.384114 1_565
As1 Se1 2.392805 1_555
As1 Se3 2.392805 1_555
As1 Ba6 3.596854 1_556
As2 Se10 2.384114 1_555
As2 Se2 2.392805 1_555
As2 Se7 2.392805 1_555
As2 Ba5 3.596854 1_555
As3 Se11 2.384114 1_555
As3 Se6 2.392805 1_555
As3 Se4 2.392805 1_555
As3 Ba4 3.596854 1_555
