# generated using pymatgen
data_Li3InGePt3
_symmetry_space_group_name_H-M   'P 1'
_cell_length_a   6.91427219
_cell_length_b   6.91427132
_cell_length_c   6.91427114
_cell_angle_alpha   62.26153259
_cell_angle_beta   62.26153739
_cell_angle_gamma   62.26153946
_symmetry_Int_Tables_number   1
_chemical_formula_structural   Li3InGePt3
_chemical_formula_sum   'Li6 In2 Ge2 Pt6'
_cell_volume   245.53621619
_cell_formula_units_Z   2
loop_
 _symmetry_equiv_pos_site_id
 _symmetry_equiv_pos_as_xyz
  1  'x, y, z'
loop_
 _atom_site_type_symbol
 _atom_site_label
 _atom_site_symmetry_multiplicity
 _atom_site_fract_x
 _atom_site_fract_y
 _atom_site_fract_z
 _atom_site_occupancy
  Li  Li0  1  0.56470115  0.83178524  0.34127711  1
  Li  Li1  1  0.34127711  0.56470115  0.83178524  1
  Li  Li2  1  0.83178524  0.34127711  0.56470115  1
  Li  Li3  1  0.65872289  0.16821476  0.43529885  1
  Li  Li4  1  0.16821476  0.43529885  0.65872289  1
  Li  Li5  1  0.43529885  0.65872289  0.16821476  1
  In  In0  1  0.28133542  0.28133542  0.28133542  1
  In  In1  1  0.71866458  0.71866458  0.71866458  1
  Ge  Ge0  1  0.90314965  0.90314965  0.90314965  1
  Ge  Ge1  1  0.09685035  0.09685035  0.09685035  1
  Pt  Pt0  1  0.89014238  0.50000000  0.10985762  1
  Pt  Pt1  1  0.10985762  0.89014238  0.50000000  1
  Pt  Pt2  1  0.50000000  0.10985762  0.89014238  1
  Pt  Pt3  1  0.27509994  1.00000000  0.72490006  1
  Pt  Pt4  1  0.72490006  0.27509994  0.00000000  1
  Pt  Pt5  1  0.00000000  0.72490006  0.27509994  1
loop_
_geom_bond_atom_site_label_1
_geom_bond_atom_site_label_2
_geom_bond_distance
_geom_bond_site_symmetry_2
Li0 Pt5 2.603177 1_655
Li0 Pt1 2.697377 1_555
Li0 Pt0 2.854201 1_555
Li0 Pt3 2.856158 1_555
Li0 Pt2 2.922702 1_564
Li1 Pt3 2.603176 1_555
Li1 Pt2 2.697377 1_555
Li1 Pt1 2.854201 1_555
Li1 Pt4 2.856158 1_556
Li1 Pt0 2.922702 1_456
Li2 Pt4 2.603176 1_556
Li2 Pt0 2.697376 1_555
Li2 Pt2 2.854201 1_555
Li2 Pt5 2.856158 1_655
Li2 Pt1 2.922702 1_645
Li3 Pt4 2.603176 1_555
Li3 Pt2 2.697376 1_555
Li3 Pt0 2.854201 1_555
Li3 Pt3 2.856158 1_545
Li3 Pt1 2.922702 1_645
Li4 Pt3 2.603176 1_545
Li4 Pt1 2.697376 1_555
Li4 Pt2 2.854201 1_555
Li4 Pt5 2.856158 1_555
Li4 Pt0 2.922702 1_456
Li5 Pt5 2.603177 1_555
Li5 Pt0 2.697377 1_555
Li5 Pt1 2.854201 1_555
Li5 Pt4 2.856158 1_555
Li5 Pt2 2.922702 1_564
In0 Li1 2.749504 1_554
In0 Li0 2.749504 1_545
In0 Li2 2.749504 1_455
In0 Pt3 2.755599 1_545
In0 Pt5 2.755599 1_555
In0 Pt4 2.755599 1_555
In0 Li4 2.909404 1_555
In0 Li5 2.909404 1_555
In0 Li3 2.909404 1_555
In0 Pt1 2.918475 1_545
In0 Pt2 2.918475 1_554
In0 Pt0 2.918475 1_455
In1 Li3 2.749504 1_565
In1 Li5 2.749504 1_556
In1 Li4 2.749504 1_655
In1 Pt4 2.755599 1_556
In1 Pt5 2.755599 1_655
In1 Pt3 2.755599 1_555
In1 Li0 2.909404 1_555
In1 Li2 2.909404 1_555
In1 Li1 2.909404 1_555
In1 Pt0 2.918475 1_556
In1 Pt2 2.918475 1_565
In1 Pt1 2.918475 1_655
Ge0 Pt0 2.495199 1_556
Ge0 Pt1 2.495199 1_655
Ge0 Pt2 2.495200 1_565
Ge0 Pt5 2.542781 1_656
Ge0 Pt4 2.542781 1_566
Ge0 Pt3 2.542782 1_655
Ge0 Li2 2.825062 1_565
Ge0 Li0 2.825062 1_556
Ge0 Li1 2.825062 1_655
Ge0 In1 3.070048 1_555
Ge1 Pt1 2.495199 1_545
Ge1 Pt0 2.495199 1_455
Ge1 Pt2 2.495200 1_554
Ge1 Pt5 2.542781 1_545
Ge1 Pt3 2.542781 1_544
Ge1 Pt4 2.542782 1_455
Ge1 Li4 2.825062 1_554
Ge1 Li5 2.825062 1_545
Ge1 Li3 2.825062 1_455
Ge1 In0 3.070048 1_555
Pt0 Pt5 2.803864 1_655
Pt0 Pt4 2.803864 1_555
Pt1 Pt5 2.803864 1_555
Pt1 Pt3 2.803864 1_555
Pt2 Pt3 2.803864 1_545
Pt2 Pt4 2.803864 1_556
