# generated using pymatgen
data_Sr5Ca(Sn4Bi)2
_symmetry_space_group_name_H-M   'P 1'
_cell_length_a   8.97574520
_cell_length_b   8.97574465
_cell_length_c   8.97574509
_cell_angle_alpha   120.04220670
_cell_angle_beta   120.04220476
_cell_angle_gamma   89.92691431
_symmetry_Int_Tables_number   1
_chemical_formula_structural   Sr5Ca(Sn4Bi)2
_chemical_formula_sum   'Sr5 Ca1 Sn8 Bi2'
_cell_volume   510.99774918
_cell_formula_units_Z   1
loop_
 _symmetry_equiv_pos_site_id
 _symmetry_equiv_pos_as_xyz
  1  'x, y, z'
loop_
 _atom_site_type_symbol
 _atom_site_label
 _atom_site_symmetry_multiplicity
 _atom_site_fract_x
 _atom_site_fract_y
 _atom_site_fract_z
 _atom_site_occupancy
  Sr  Sr0  1  0.75000000  0.75000000  0.00000000  1
  Sr  Sr1  1  0.16187057  0.66187057  0.82374313  1
  Sr  Sr2  1  0.83812943  0.33812943  0.17625687  1
  Sr  Sr3  1  0.66187057  0.83812943  0.50000000  1
  Sr  Sr4  1  0.33812943  0.16187057  0.50000000  1
  Ca  Ca0  1  0.25000000  0.25000000  0.00000000  1
  Sn  Sn0  1  0.83843512  0.33475880  0.78934266  1
  Sn  Sn1  1  0.16524120  0.66156488  0.21065734  1
  Sn  Sn2  1  0.54541713  0.04909246  0.21065734  1
  Sn  Sn3  1  0.33475880  0.54541713  0.49632468  1
  Sn  Sn4  1  0.95458287  0.16524120  0.50367532  1
  Sn  Sn5  1  0.45090754  0.95458287  0.78934266  1
  Sn  Sn6  1  0.66156488  0.45090754  0.49632468  1
  Sn  Sn7  1  0.04909246  0.83843512  0.50367532  1
  Bi  Bi0  1  0.00614752  0.00614752  0.00000000  1
  Bi  Bi1  1  0.49385248  0.49385248  1.00000000  1
loop_
_geom_bond_atom_site_label_1
_geom_bond_atom_site_label_2
_geom_bond_distance
_geom_bond_site_symmetry_2
Ca0 Sn1 3.498530 1_555
Ca0 Sn0 3.498530 1_454
Ca0 Sn7 3.498534 1_544
Ca0 Sn5 3.498534 1_544
Ca0 Sn2 3.498534 1_555
Ca0 Sn6 3.498534 1_555
Ca0 Sn3 3.498538 1_555
Ca0 Sn4 3.498538 1_454
Sn0 Sn4 2.956778 1_555
Sn0 Sn6 3.014108 1_555
Sn0 Sn1 3.052483 1_656
Sn0 Sr2 3.459177 1_556
Sn0 Sr0 3.540552 1_556
Sn0 Sr3 3.664990 1_545
Sn0 Sr4 3.691027 1_555
Sn1 Sn3 2.956778 1_555
Sn1 Sn7 3.014108 1_555
Sn1 Sr1 3.459177 1_554
Sn1 Sr0 3.540553 1_455
Sn1 Sr3 3.664990 1_555
Sn1 Sr4 3.691026 1_565
Sn2 Sn6 2.956779 1_555
Sn2 Sn4 3.014100 1_555
Sn2 Sn5 3.052477 1_544
Sn2 Sr1 3.459199 1_544
Sn2 Sr0 3.540545 1_545
Sn2 Sr4 3.664998 1_555
Sn2 Sr3 3.691027 1_545
Sn3 Sn5 3.014100 1_555
Sn3 Sn6 3.052486 1_555
Sn3 Sr4 3.459199 1_555
Sn3 Sr0 3.540549 1_556
Sn3 Sr2 3.664989 1_455
Sn3 Sr1 3.691035 1_555
Sn4 Sn7 3.052485 1_645
Sn4 Sr4 3.459199 1_655
Sn4 Sr0 3.540549 1_545
Sn4 Sr1 3.664989 1_655
Sn4 Sr2 3.691035 1_555
Sn5 Sn7 2.956779 1_555
Sn5 Sr2 3.459199 1_566
Sn5 Sr0 3.540545 1_556
Sn5 Sr4 3.664998 1_565
Sn5 Sr3 3.691027 1_555
Sn6 Sr3 3.459199 1_555
Sn6 Sr0 3.540545 1_556
Sn6 Sr2 3.665013 1_555
Sn6 Sr1 3.691026 1_655
Sn7 Sr3 3.459199 1_455
Sn7 Sr0 3.540545 1_455
Sn7 Sr1 3.665013 1_555
Sn7 Sr2 3.691026 1_455
Bi0 Ca0 3.097344 1_555
Bi0 Sr0 3.253512 1_445
Bi0 Sr2 3.363565 1_455
Bi0 Sr1 3.363566 1_544
Bi0 Sr3 3.363570 1_444
Bi0 Sr4 3.363570 1_555
Bi1 Ca0 3.097344 1_556
Bi1 Sr0 3.253512 1_556
Bi1 Sr1 3.363566 1_555
Bi1 Sr2 3.363566 1_556
Bi1 Sr3 3.363570 1_556
Bi1 Sr4 3.363570 1_555
