# generated using pymatgen
data_K2Si2SnS6
_symmetry_space_group_name_H-M   'P 1'
_cell_length_a   8.52611612
_cell_length_b   8.52611712
_cell_length_c   9.03348277
_cell_angle_alpha   89.73218926
_cell_angle_beta   89.73219084
_cell_angle_gamma   115.27569356
_symmetry_Int_Tables_number   1
_chemical_formula_structural   K2Si2SnS6
_chemical_formula_sum   'K4 Si4 Sn2 S12'
_cell_volume   593.79471401
_cell_formula_units_Z   2
loop_
 _symmetry_equiv_pos_site_id
 _symmetry_equiv_pos_as_xyz
  1  'x, y, z'
loop_
 _atom_site_type_symbol
 _atom_site_label
 _atom_site_symmetry_multiplicity
 _atom_site_fract_x
 _atom_site_fract_y
 _atom_site_fract_z
 _atom_site_occupancy
  K  K0  1  0.25948400  0.53118966  0.51432992  1
  K  K1  1  0.74051600  0.46881034  0.48567008  1
  K  K2  1  0.46881034  0.74051600  0.98567008  1
  K  K3  1  0.53118966  0.25948400  0.01432992  1
  Si  Si0  1  0.97980296  0.65055783  0.05542943  1
  Si  Si1  1  0.02019704  0.34944217  0.94457057  1
  Si  Si2  1  0.34944217  0.02019704  0.44457057  1
  Si  Si3  1  0.65055783  0.97980296  0.55542943  1
  Sn  Sn0  1  0.00646559  0.99353441  0.25000000  1
  Sn  Sn1  1  0.99353441  0.00646559  0.75000000  1
  S  S0  1  0.64812534  0.76038204  0.65862288  1
  S  S1  1  0.92401984  0.52265043  0.84235320  1
  S  S2  1  0.23961796  0.35187466  0.84137712  1
  S  S3  1  0.52265043  0.92401984  0.34235320  1
  S  S4  1  0.35187466  0.23961796  0.34137712  1
  S  S5  1  0.90316593  0.17739811  0.54288923  1
  S  S6  1  0.82260189  0.09683407  0.95711077  1
  S  S7  1  0.17739811  0.90316593  0.04288923  1
  S  S8  1  0.07598016  0.47734957  0.15764680  1
  S  S9  1  0.47734957  0.07598016  0.65764680  1
  S  S10  1  0.09683407  0.82260189  0.45711077  1
  S  S11  1  0.76038204  0.64812534  0.15862288  1
loop_
_geom_bond_atom_site_label_1
_geom_bond_atom_site_label_2
_geom_bond_distance
_geom_bond_site_symmetry_2
K0 S5 3.248831 1_455
K0 S2 3.290349 1_555
K0 S4 3.307364 1_555
K0 S0 3.321489 1_555
K0 S10 3.361648 1_555
K0 S3 3.488156 1_555
K0 S8 3.533854 1_555
K1 S10 3.248831 1_655
K1 S11 3.290349 1_555
K1 S0 3.307364 1_555
K1 S4 3.321489 1_555
K1 S5 3.361648 1_555
K1 S9 3.488156 1_555
K1 S1 3.533854 1_555
K2 S6 3.248831 1_565
K2 S0 3.290349 1_555
K2 S11 3.307364 1_556
K2 S2 3.321489 1_555
K2 S7 3.361648 1_556
K2 S8 3.488156 1_556
K2 S3 3.533854 1_556
K3 S7 3.248831 1_545
K3 S4 3.290349 1_555
K3 S2 3.307364 1_554
K3 S11 3.321489 1_555
K3 S6 3.361648 1_554
K3 S1 3.488156 1_554
K3 S9 3.533854 1_554
S0 Si3 2.078395 1_555
S0 Sn1 2.918720 1_565
S1 Si0 2.169263 1_556
S1 Si1 2.175877 1_655
S2 Si1 2.078395 1_555
S2 Sn1 2.918720 1_455
S3 Si3 2.169263 1_555
S3 Si2 2.175877 1_565
S4 Si2 2.078395 1_555
S4 Sn0 2.918720 1_545
S5 Si3 2.094567 1_545
S5 Sn1 2.676737 1_555
S6 Si1 2.094567 1_655
S6 Sn1 2.676737 1_555
S7 Si0 2.094567 1_455
S7 Sn0 2.676737 1_555
S8 Si1 2.169263 1_554
S8 Si0 2.175877 1_455
S9 Si2 2.169263 1_555
S9 Si3 2.175877 1_545
S10 Si2 2.094567 1_565
S10 Sn0 2.676737 1_555
S11 Si0 2.078395 1_555
S11 Sn0 2.918720 1_655
