# generated using pymatgen
data_CsSc(CO3)2
_symmetry_space_group_name_H-M   'P 1'
_cell_length_a   6.94177324
_cell_length_b   6.94177272
_cell_length_c   6.94177222
_cell_angle_alpha   43.76768852
_cell_angle_beta   43.76768741
_cell_angle_gamma   43.76768519
_symmetry_Int_Tables_number   1
_chemical_formula_structural   CsSc(CO3)2
_chemical_formula_sum   'Cs1 Sc1 C2 O6'
_cell_volume   145.31089928
_cell_formula_units_Z   1
loop_
 _symmetry_equiv_pos_site_id
 _symmetry_equiv_pos_as_xyz
  1  'x, y, z'
loop_
 _atom_site_type_symbol
 _atom_site_label
 _atom_site_symmetry_multiplicity
 _atom_site_fract_x
 _atom_site_fract_y
 _atom_site_fract_z
 _atom_site_occupancy
  Cs  Cs0  1  0.00000000  0.00000000  0.00000000  1
  Sc  Sc0  1  0.50000000  0.50000000  0.50000000  1
  C  C0  1  0.77040170  0.77040170  0.77040170  1
  C  C1  1  0.22959830  0.22959830  0.22959830  1
  O  O0  1  0.62531867  0.05577152  0.62531867  1
  O  O1  1  0.05577152  0.62531867  0.62531867  1
  O  O2  1  0.37468133  0.37468133  0.94422848  1
  O  O3  1  0.37468133  0.94422848  0.37468133  1
  O  O4  1  0.94422848  0.37468133  0.37468133  1
  O  O5  1  0.62531867  0.62531867  0.05577152  1
loop_
_geom_bond_atom_site_label_1
_geom_bond_atom_site_label_2
_geom_bond_distance
_geom_bond_site_symmetry_2
Cs0 O0 3.228605 1_455
Cs0 O3 3.228605 1_544
Cs0 O1 3.228605 1_545
Cs0 O4 3.228605 1_454
Cs0 O5 3.228605 1_455
Cs0 O2 3.228605 1_544
Cs0 O1 3.228605 1_554
Cs0 O4 3.228605 1_445
Cs0 O5 3.228605 1_545
Cs0 O2 3.228605 1_454
Cs0 O0 3.228606 1_554
Cs0 O3 3.228606 1_445
C0 O0 1.286393 1_565
C0 O1 1.286393 1_655
C0 O5 1.286393 1_556
C1 O3 1.286393 1_545
C1 O4 1.286393 1_455
C1 O2 1.286393 1_554
O0 Sc0 2.089717 1_555
O1 Sc0 2.089717 1_555
O2 Sc0 2.089716 1_555
O3 Sc0 2.089717 1_555
O4 Sc0 2.089717 1_555
O5 Sc0 2.089716 1_555
