# generated using pymatgen
data_Zr10Si2Sn5Sb
_symmetry_space_group_name_H-M   'P 1'
_cell_length_a   8.68278733
_cell_length_b   8.67209687
_cell_length_c   5.86153244
_cell_angle_alpha   90.00000000
_cell_angle_beta   90.00000000
_cell_angle_gamma   120.04077959
_symmetry_Int_Tables_number   1
_chemical_formula_structural   Zr10Si2Sn5Sb
_chemical_formula_sum   'Zr10 Si2 Sn5 Sb1'
_cell_volume   382.07311610
_cell_formula_units_Z   1
loop_
 _symmetry_equiv_pos_site_id
 _symmetry_equiv_pos_as_xyz
  1  'x, y, z'
loop_
 _atom_site_type_symbol
 _atom_site_label
 _atom_site_symmetry_multiplicity
 _atom_site_fract_x
 _atom_site_fract_y
 _atom_site_fract_z
 _atom_site_occupancy
  Zr  Zr0  1  0.25945558  0.00000000  0.25000000  1
  Zr  Zr1  1  0.25603589  0.25566049  0.75000000  1
  Zr  Zr2  1  0.00037540  0.74433951  0.75000000  1
  Zr  Zr3  1  0.99991915  0.25878138  0.25000000  1
  Zr  Zr4  1  0.74113777  0.74121862  0.25000000  1
  Zr  Zr5  1  0.74283542  1.00000000  0.75000000  1
  Zr  Zr6  1  0.33353448  0.66754415  0.00055966  1
  Zr  Zr7  1  0.66599033  0.33245585  0.49944034  1
  Zr  Zr8  1  0.66599033  0.33245585  0.00055966  1
  Zr  Zr9  1  0.33353448  0.66754415  0.49944034  1
  Si  Si0  1  0.99946123  0.00000000  0.00297155  1
  Si  Si1  1  0.99946123  0.00000000  0.49702845  1
  Sn  Sn0  1  0.60746115  0.00000000  0.25000000  1
  Sn  Sn1  1  0.60384245  0.60388132  0.75000000  1
  Sn  Sn2  1  0.99996112  0.39611868  0.75000000  1
  Sn  Sn3  1  0.99948597  0.60496064  0.25000000  1
  Sn  Sn4  1  0.39452533  0.39503936  0.25000000  1
  Sb  Sb0  1  0.39699169  1.00000000  0.75000000  1
loop_
_geom_bond_atom_site_label_1
_geom_bond_atom_site_label_2
_geom_bond_distance
_geom_bond_site_symmetry_2
Si0 Zr3 2.669085 1_555
Si0 Zr4 2.669086 1_545
Si0 Zr2 2.670575 1_644
Si0 Zr1 2.670575 1_654
Si0 Zr5 2.676508 1_544
Si0 Zr0 2.681940 1_655
Si1 Zr3 2.669085 1_555
Si1 Zr4 2.669086 1_545
Si1 Zr2 2.670575 1_645
Si1 Zr1 2.670575 1_655
Si1 Zr5 2.676508 1_545
Si1 Zr0 2.681940 1_655
Sn0 Zr4 2.998586 1_545
Sn0 Zr3 2.998586 1_555
Sn0 Zr0 3.021658 1_555
Sn0 Zr7 3.039939 1_555
Sn0 Zr8 3.039939 1_555
Sn0 Zr9 3.039939 1_545
Sn0 Zr6 3.039939 1_545
Sn0 Zr5 3.157692 1_545
Sn0 Zr5 3.157692 1_544
Sn1 Zr5 3.017630 1_555
Sn1 Zr1 3.018006 1_555
Sn1 Zr2 3.023082 1_655
Sn1 Zr8 3.043090 1_556
Sn1 Zr7 3.043090 1_555
Sn1 Zr6 3.044286 1_556
Sn1 Zr9 3.044286 1_555
Sn1 Zr4 3.163454 1_555
Sn1 Zr4 3.163454 1_556
Sn2 Zr5 3.017630 1_545
Sn2 Zr2 3.018006 1_655
Sn2 Zr1 3.023082 1_655
Sn2 Zr6 3.043090 1_656
Sn2 Zr9 3.043090 1_655
Sn2 Zr8 3.044286 1_556
Sn2 Zr7 3.044286 1_555
Sn2 Zr3 3.163454 1_555
Sn2 Zr3 3.163454 1_556
Sn3 Zr3 3.003985 1_555
Sn3 Zr4 3.013644 1_555
Sn3 Zr0 3.014791 1_665
Sn3 Zr7 3.042345 1_555
Sn3 Zr8 3.042345 1_555
Sn3 Zr9 3.044491 1_655
Sn3 Zr6 3.044491 1_655
Sn3 Zr2 3.168766 1_655
Sn3 Zr2 3.168766 1_654
Sn4 Zr4 3.003985 1_555
Sn4 Zr3 3.013645 1_455
Sn4 Zr0 3.014791 1_555
Sn4 Zr9 3.042345 1_555
Sn4 Zr6 3.042345 1_555
Sn4 Zr7 3.044491 1_555
Sn4 Zr8 3.044491 1_555
Sn4 Zr1 3.168766 1_555
Sn4 Zr1 3.168766 1_554
Sb0 Zr5 3.002888 1_555
Sb0 Zr1 3.021645 1_565
Sb0 Zr2 3.021645 1_555
Sb0 Zr6 3.030225 1_556
Sb0 Zr9 3.030225 1_555
Sb0 Zr8 3.030225 1_566
Sb0 Zr7 3.030225 1_565
Sb0 Zr0 3.164727 1_565
Sb0 Zr0 3.164727 1_566
