# generated using pymatgen
data_Ba6Sn8BiCl
_symmetry_space_group_name_H-M   'P 1'
_cell_length_a   9.21804156
_cell_length_b   9.21804193
_cell_length_c   9.30849837
_cell_angle_alpha   119.67906145
_cell_angle_beta   119.67906702
_cell_angle_gamma   90.00000714
_symmetry_Int_Tables_number   1
_chemical_formula_structural   Ba6Sn8BiCl
_chemical_formula_sum   'Ba6 Sn8 Bi1 Cl1'
_cell_volume   564.67896218
_cell_formula_units_Z   1
loop_
 _symmetry_equiv_pos_site_id
 _symmetry_equiv_pos_as_xyz
  1  'x, y, z'
loop_
 _atom_site_type_symbol
 _atom_site_label
 _atom_site_symmetry_multiplicity
 _atom_site_fract_x
 _atom_site_fract_y
 _atom_site_fract_z
 _atom_site_occupancy
  Ba  Ba0  1  0.25841305  0.25841305  0.51682610  1
  Ba  Ba1  1  0.74158695  0.74158695  0.48317390  1
  Ba  Ba2  1  0.66364474  0.16728519  0.00000000  1
  Ba  Ba3  1  0.33635526  0.83271481  1.00000000  1
  Ba  Ba4  1  0.83271481  0.66364474  0.00000000  1
  Ba  Ba5  1  0.16728519  0.33635526  1.00000000  1
  Sn  Sn0  1  0.33414823  0.83471773  0.38880911  1
  Sn  Sn1  1  0.66585177  0.16528227  0.61119089  1
  Sn  Sn2  1  0.05466187  0.55409238  0.38880911  1
  Sn  Sn3  1  0.55409238  0.33414823  0.38880911  1
  Sn  Sn4  1  0.16528227  0.94533813  0.61119089  1
  Sn  Sn5  1  0.94533813  0.44590762  0.61119089  1
  Sn  Sn6  1  0.44590762  0.66585177  0.61119089  1
  Sn  Sn7  1  0.83471773  0.05466187  0.38880911  1
  Bi  Bi0  1  0.00000000  0.00000000  0.00000000  1
  Cl  Cl0  1  0.50000000  0.50000000  0.00000000  1
loop_
_geom_bond_atom_site_label_1
_geom_bond_atom_site_label_2
_geom_bond_distance
_geom_bond_site_symmetry_2
Ba0 Cl0 3.210907 1_556
Ba0 Bi0 3.434541 1_555
Ba0 Sn6 3.618596 1_555
Ba0 Sn1 3.618600 1_555
Ba0 Sn5 3.618605 1_455
Ba0 Sn4 3.618608 1_545
Ba0 Sn7 3.657367 1_455
Ba0 Sn0 3.657371 1_545
Ba0 Sn2 3.657376 1_555
Ba0 Sn3 3.657379 1_555
Ba1 Cl0 3.210907 1_555
Ba1 Bi0 3.434541 1_666
Ba1 Sn3 3.618596 1_555
Ba1 Sn0 3.618600 1_555
Ba1 Sn2 3.618605 1_655
Ba1 Sn7 3.618608 1_565
Ba1 Sn4 3.657367 1_655
Ba1 Sn1 3.657371 1_565
Ba1 Sn5 3.657376 1_555
Ba1 Sn6 3.657379 1_555
Ba2 Cl0 3.417877 1_555
Ba2 Bi0 3.462834 1_655
Ba2 Sn1 3.620265 1_554
Ba2 Sn2 3.620273 1_655
Ba2 Sn3 3.819831 1_555
Ba2 Sn4 3.819837 1_544
Ba2 Sn7 3.838273 1_555
Ba2 Sn6 3.838280 1_544
Ba2 Sn0 4.075200 1_544
Ba2 Sn5 4.075201 1_555
Ba3 Cl0 3.417877 1_556
Ba3 Bi0 3.462834 1_566
Ba3 Sn0 3.620265 1_556
Ba3 Sn5 3.620273 1_455
Ba3 Sn6 3.819831 1_555
Ba3 Sn7 3.819837 1_566
Ba3 Sn4 3.838273 1_555
Ba3 Sn3 3.838280 1_566
Ba3 Sn1 4.075200 1_566
Ba3 Sn2 4.075201 1_555
Ba4 Cl0 3.417877 1_555
Ba4 Bi0 3.462834 1_665
Ba4 Sn6 3.620269 1_554
Ba4 Sn7 3.620269 1_565
Ba4 Sn2 3.819831 1_655
Ba4 Sn1 3.819837 1_554
Ba4 Sn5 3.838274 1_554
Ba4 Sn0 3.838280 1_655
Ba4 Sn4 4.075201 1_655
Ba4 Sn3 4.075201 1_554
Ba5 Cl0 3.417877 1_556
Ba5 Bi0 3.462834 1_556
Ba5 Sn3 3.620269 1_556
Ba5 Sn4 3.620269 1_545
Ba5 Sn5 3.819831 1_455
Ba5 Sn0 3.819837 1_556
Ba5 Sn2 3.838274 1_556
Ba5 Sn1 3.838280 1_455
Ba5 Sn7 4.075201 1_455
Ba5 Sn6 4.075201 1_556
Sn0 Sn6 2.974648 1_555
Sn0 Sn4 2.974649 1_555
Sn0 Sn1 3.225692 1_565
Sn1 Sn3 2.974648 1_555
Sn1 Sn7 2.974649 1_555
Sn2 Sn6 2.974632 1_555
Sn2 Sn4 2.974632 1_555
Sn2 Sn5 3.225716 1_455
Sn3 Sn5 2.974632 1_555
Sn3 Sn6 3.225705 1_555
Sn4 Sn7 3.225704 1_465
Sn5 Sn7 2.974632 1_555
