# generated using pymatgen
data_Ta3Al2CoB
_symmetry_space_group_name_H-M   'P 1'
_cell_length_a   8.22870348
_cell_length_b   8.22870309
_cell_length_c   8.22870220
_cell_angle_alpha   59.99999963
_cell_angle_beta   60.00000119
_cell_angle_gamma   60.00000152
_symmetry_Int_Tables_number   1
_chemical_formula_structural   Ta3Al2CoB
_chemical_formula_sum   'Ta12 Al8 Co4 B4'
_cell_volume   393.98452213
_cell_formula_units_Z   4
loop_
 _symmetry_equiv_pos_site_id
 _symmetry_equiv_pos_as_xyz
  1  'x, y, z'
loop_
 _atom_site_type_symbol
 _atom_site_label
 _atom_site_symmetry_multiplicity
 _atom_site_fract_x
 _atom_site_fract_y
 _atom_site_fract_z
 _atom_site_occupancy
  Ta  Ta0  1  0.55470779  0.94529221  0.55470779  1
  Ta  Ta1  1  0.30470779  0.69529221  0.69529221  1
  Ta  Ta2  1  0.69529221  0.30470779  0.30470779  1
  Ta  Ta3  1  0.30470779  0.69529221  0.30470779  1
  Ta  Ta4  1  0.69529221  0.69529221  0.30470779  1
  Ta  Ta5  1  0.30470779  0.30470779  0.69529221  1
  Ta  Ta6  1  0.55470779  0.55470779  0.94529221  1
  Ta  Ta7  1  0.94529221  0.55470779  0.55470779  1
  Ta  Ta8  1  0.55470779  0.94529221  0.94529221  1
  Ta  Ta9  1  0.94529221  0.94529221  0.55470779  1
  Ta  Ta10  1  0.69529221  0.30470779  0.69529221  1
  Ta  Ta11  1  0.94529221  0.55470779  0.94529221  1
  Al  Al0  1  0.91806040  0.91806040  0.91806040  1
  Al  Al1  1  0.00418020  0.33193960  0.33193960  1
  Al  Al2  1  0.33193960  0.00418020  0.33193960  1
  Al  Al3  1  0.33193960  0.33193960  0.00418020  1
  Al  Al4  1  0.91806040  0.24581980  0.91806040  1
  Al  Al5  1  0.91806040  0.91806040  0.24581980  1
  Al  Al6  1  0.24581980  0.91806040  0.91806040  1
  Al  Al7  1  0.33193960  0.33193960  0.33193960  1
  Co  Co0  1  0.12500000  0.12500000  0.12500000  1
  Co  Co1  1  0.62500000  0.12500000  0.12500000  1
  Co  Co2  1  0.12500000  0.62500000  0.12500000  1
  Co  Co3  1  0.12500000  0.12500000  0.62500000  1
  B  B0  1  0.62500000  0.62500000  0.62500000  1
  B  B1  1  0.12500000  0.62500000  0.62500000  1
  B  B2  1  0.62500000  0.12500000  0.62500000  1
  B  B3  1  0.62500000  0.62500000  0.12500000  1
loop_
_geom_bond_atom_site_label_1
_geom_bond_atom_site_label_2
_geom_bond_distance
_geom_bond_site_symmetry_2
Al0 Co2 2.510291 1_656
Al0 Co3 2.510291 1_665
Al0 Co1 2.510291 1_566
Al0 Al5 2.697034 1_556
Al0 Al4 2.697035 1_565
Al0 Al6 2.697035 1_655
Al0 Ta9 2.783933 1_555
Al0 Ta11 2.783934 1_555
Al0 Ta8 2.783934 1_555
Al0 Ta4 2.922148 1_556
Al0 Ta10 2.922148 1_565
Al0 Ta1 2.922148 1_655
Al1 Co0 2.510289 1_555
Al1 Co3 2.510295 1_555
Al1 Co2 2.510296 1_555
Al1 Al3 2.697035 1_555
Al1 Al2 2.697035 1_555
Al1 Al7 2.697035 1_555
Al1 Ta2 2.783926 1_455
Al1 Ta10 2.783930 1_455
Al1 Ta4 2.783930 1_455
Al1 Ta11 2.922145 1_454
Al1 Ta9 2.922145 1_445
Al1 Ta7 2.922152 1_455
Al2 Co0 2.510289 1_555
Al2 Co3 2.510295 1_555
Al2 Co1 2.510296 1_555
Al2 Al3 2.697035 1_555
Al2 Al7 2.697035 1_555
Al2 Ta3 2.783926 1_545
Al2 Ta1 2.783930 1_545
Al2 Ta4 2.783931 1_545
Al2 Ta8 2.922145 1_544
Al2 Ta9 2.922145 1_445
Al2 Ta0 2.922152 1_545
Al3 Co0 2.510289 1_555
Al3 Co2 2.510296 1_555
Al3 Co1 2.510296 1_555
Al3 Al7 2.697034 1_555
Al3 Ta5 2.783925 1_554
Al3 Ta1 2.783930 1_554
Al3 Ta10 2.783930 1_554
Al3 Ta8 2.922145 1_544
Al3 Ta11 2.922145 1_454
Al3 Ta6 2.922152 1_554
Al4 Co0 2.510289 1_656
Al4 Co3 2.510295 1_655
Al4 Co1 2.510296 1_556
Al4 Al5 2.697035 1_546
Al4 Al6 2.697035 1_645
Al4 Ta11 2.783926 1_555
Al4 Ta7 2.783930 1_555
Al4 Ta6 2.783931 1_555
Al4 Ta2 2.922145 1_556
Al4 Ta5 2.922145 1_655
Al4 Ta10 2.922152 1_555
Al5 Co0 2.510289 1_665
Al5 Co2 2.510296 1_655
Al5 Co1 2.510296 1_565
Al5 Al6 2.697035 1_654
Al5 Ta9 2.783925 1_555
Al5 Ta7 2.783930 1_555
Al5 Ta0 2.783930 1_555
Al5 Ta2 2.922145 1_565
Al5 Ta3 2.922145 1_655
Al5 Ta4 2.922152 1_555
Al6 Co0 2.510289 1_566
Al6 Co3 2.510295 1_565
Al6 Co2 2.510296 1_556
Al6 Ta8 2.783926 1_555
Al6 Ta0 2.783930 1_555
Al6 Ta6 2.783930 1_555
Al6 Ta3 2.922145 1_556
Al6 Ta5 2.922145 1_565
Al6 Ta1 2.922152 1_555
Al7 Co2 2.510291 1_555
Al7 Co3 2.510291 1_555
Al7 Co1 2.510291 1_555
Al7 Ta5 2.783933 1_555
Al7 Ta3 2.783934 1_555
Al7 Ta2 2.783934 1_555
Al7 Ta6 2.922148 1_554
Al7 Ta0 2.922148 1_545
Al7 Ta7 2.922148 1_455
Co0 Ta9 2.933504 1_445
Co0 Ta5 2.933504 1_554
Co0 Ta11 2.933504 1_454
Co0 Ta3 2.933504 1_545
Co0 Ta8 2.933504 1_544
Co0 Ta2 2.933504 1_455
Co1 Ta0 2.933504 1_545
Co1 Ta10 2.933504 1_554
Co1 Ta2 2.933504 1_555
Co1 Ta8 2.933504 1_544
Co1 Ta6 2.933504 1_554
Co1 Ta4 2.933504 1_545
Co2 Ta7 2.933504 1_455
Co2 Ta1 2.933504 1_554
Co2 Ta3 2.933504 1_555
Co2 Ta11 2.933504 1_454
Co2 Ta6 2.933504 1_554
Co2 Ta4 2.933504 1_455
Co3 Ta5 2.933504 1_555
Co3 Ta9 2.933504 1_445
Co3 Ta7 2.933504 1_455
Co3 Ta1 2.933504 1_545
Co3 Ta0 2.933504 1_545
Co3 Ta10 2.933504 1_455
B0 Ta6 2.213842 1_555
B0 Ta4 2.213842 1_555
B0 Ta0 2.213842 1_555
B0 Ta10 2.213842 1_555
B0 Ta7 2.213842 1_555
B0 Ta1 2.213842 1_555
B1 Ta11 2.213842 1_455
B1 Ta3 2.213842 1_555
B1 Ta1 2.213842 1_555
B1 Ta7 2.213842 1_455
B1 Ta9 2.213842 1_455
B1 Ta5 2.213842 1_555
B2 Ta8 2.213842 1_545
B2 Ta2 2.213842 1_555
B2 Ta10 2.213842 1_555
B2 Ta0 2.213842 1_545
B2 Ta9 2.213842 1_545
B2 Ta5 2.213842 1_555
B3 Ta4 2.213842 1_555
B3 Ta6 2.213842 1_554
B3 Ta8 2.213842 1_554
B3 Ta2 2.213842 1_555
B3 Ta11 2.213842 1_554
B3 Ta3 2.213842 1_555
