# generated using pymatgen
data_CoReB2Mo
_symmetry_space_group_name_H-M   'P 1'
_cell_length_a   4.47466437
_cell_length_b   4.47466378
_cell_length_c   4.47466435
_cell_angle_alpha   138.98933843
_cell_angle_beta   119.50589641
_cell_angle_gamma   75.69399853
_symmetry_Int_Tables_number   1
_chemical_formula_structural   CoReB2Mo
_chemical_formula_sum   'Co1 Re1 B2 Mo1'
_cell_volume   49.93531824
_cell_formula_units_Z   1
loop_
 _symmetry_equiv_pos_site_id
 _symmetry_equiv_pos_as_xyz
  1  'x, y, z'
loop_
 _atom_site_type_symbol
 _atom_site_label
 _atom_site_symmetry_multiplicity
 _atom_site_fract_x
 _atom_site_fract_y
 _atom_site_fract_z
 _atom_site_occupancy
  Co  Co0  1  0.99854676  0.99854676  1.00000000  1
  Re  Re0  1  0.69855215  0.19855215  0.50000000  1
  B  B0  1  0.70786711  0.50108809  0.20677803  1
  B  B1  1  0.29431006  0.50108809  0.79322197  1
  Mo  Mo0  1  0.30072392  0.80072392  0.50000000  1
loop_
_geom_bond_atom_site_label_1
_geom_bond_atom_site_label_2
_geom_bond_distance
_geom_bond_site_symmetry_2
Co0 Mo0 2.648964 1_666
Co0 Mo0 2.648965 1_655
Co0 Mo0 2.652352 1_555
Co0 Mo0 2.652352 1_656
B0 B1 1.864330 1_554
B0 Co0 2.050492 1_544
B0 Co0 2.050494 1_555
B0 Re0 2.296323 1_554
B0 Re0 2.296325 1_565
B0 Mo0 2.308839 1_544
B0 Mo0 2.308842 1_555
B0 Mo0 2.496201 1_655
B0 Re0 2.513615 1_555
B1 Co0 2.050495 1_444
B1 Co0 2.050495 1_455
B1 Re0 2.296325 1_566
B1 Re0 2.296326 1_555
B1 Mo0 2.308837 1_545
B1 Mo0 2.308837 1_556
B1 Mo0 2.496205 1_555
B1 Re0 2.513614 1_455
Mo0 Re0 2.838810 1_454
Mo0 Re0 2.838810 1_555
Mo0 Re0 2.838810 1_566
Mo0 Re0 2.838810 1_465
