# generated using pymatgen
data_Ti4IrRhO
_symmetry_space_group_name_H-M   'P 1'
_cell_length_a   8.20013942
_cell_length_b   8.20013919
_cell_length_c   8.20013829
_cell_angle_alpha   59.99999965
_cell_angle_beta   60.00000059
_cell_angle_gamma   59.99999259
_symmetry_Int_Tables_number   1
_chemical_formula_structural   Ti4IrRhO
_chemical_formula_sum   'Ti16 Ir4 Rh4 O4'
_cell_volume   389.89585252
_cell_formula_units_Z   4
loop_
 _symmetry_equiv_pos_site_id
 _symmetry_equiv_pos_as_xyz
  1  'x, y, z'
loop_
 _atom_site_type_symbol
 _atom_site_label
 _atom_site_symmetry_multiplicity
 _atom_site_fract_x
 _atom_site_fract_y
 _atom_site_fract_z
 _atom_site_occupancy
  Ti  Ti0  1  0.11288371  0.62903876  0.62903876  1
  Ti  Ti1  1  0.62903876  0.11288371  0.62903876  1
  Ti  Ti2  1  0.62903876  0.62903876  0.11288371  1
  Ti  Ti3  1  0.62903876  0.62903876  0.62903876  1
  Ti  Ti4  1  0.81548404  0.81548404  0.18451596  1
  Ti  Ti5  1  0.18451596  0.18451596  0.81548404  1
  Ti  Ti6  1  0.81548404  0.18451596  0.81548404  1
  Ti  Ti7  1  0.18451596  0.81548404  0.18451596  1
  Ti  Ti8  1  0.18451596  0.81548404  0.81548404  1
  Ti  Ti9  1  0.81548404  0.18451596  0.18451596  1
  Ti  Ti10  1  0.43153190  0.43153190  0.06846810  1
  Ti  Ti11  1  0.06846810  0.06846810  0.43153190  1
  Ti  Ti12  1  0.43153190  0.06846810  0.43153190  1
  Ti  Ti13  1  0.06846810  0.43153190  0.06846810  1
  Ti  Ti14  1  0.06846810  0.43153190  0.43153190  1
  Ti  Ti15  1  0.43153190  0.06846810  0.06846810  1
  Ir  Ir0  1  0.76489062  0.41170246  0.41170246  1
  Ir  Ir1  1  0.41170246  0.76489062  0.41170246  1
  Ir  Ir2  1  0.41170246  0.41170246  0.76489062  1
  Ir  Ir3  1  0.41170246  0.41170246  0.41170246  1
  Rh  Rh0  1  0.46597481  0.84467573  0.84467573  1
  Rh  Rh1  1  0.84467573  0.46597481  0.84467573  1
  Rh  Rh2  1  0.84467573  0.84467573  0.46597481  1
  Rh  Rh3  1  0.84467573  0.84467573  0.84467573  1
  O  O0  1  0.62557801  0.12480733  0.12480733  1
  O  O1  1  0.12480733  0.62557801  0.12480733  1
  O  O2  1  0.12480733  0.12480733  0.62557801  1
  O  O3  1  0.12480733  0.12480733  0.12480733  1
loop_
_geom_bond_atom_site_label_1
_geom_bond_atom_site_label_2
_geom_bond_distance
_geom_bond_site_symmetry_2
Ir0 Ti2 2.607448 1_555
Ir0 Ti1 2.607449 1_555
Ir0 Ti3 2.607462 1_555
Ir0 Ti11 2.661924 1_655
Ir0 Ti13 2.661924 1_655
Ir0 Ti14 2.661933 1_655
Ir1 Ti2 2.607448 1_555
Ir1 Ti0 2.607449 1_555
Ir1 Ti3 2.607462 1_555
Ir1 Ti11 2.661924 1_565
Ir1 Ti15 2.661924 1_565
Ir1 Ti12 2.661933 1_565
Ir2 Ti1 2.607448 1_555
Ir2 Ti0 2.607448 1_555
Ir2 Ti3 2.607462 1_555
Ir2 Ti15 2.661924 1_556
Ir2 Ti13 2.661924 1_556
Ir2 Ti10 2.661933 1_556
Ir3 Ti1 2.607457 1_555
Ir3 Ti0 2.607457 1_555
Ir3 Ti2 2.607458 1_555
Ir3 Ti10 2.661916 1_555
Ir3 Ti12 2.661917 1_555
Ir3 Ti14 2.661917 1_555
Rh0 Ti2 2.537563 1_556
Rh0 Ti1 2.537563 1_565
Rh0 Ti3 2.537576 1_555
Rh0 Ti5 2.569763 1_565
Rh0 Ti7 2.569763 1_556
Rh0 Ti8 2.569773 1_555
Rh1 Ti2 2.537563 1_556
Rh1 Ti0 2.537563 1_655
Rh1 Ti3 2.537576 1_555
Rh1 Ti5 2.569763 1_655
Rh1 Ti9 2.569763 1_556
Rh1 Ti6 2.569773 1_555
Rh2 Ti1 2.537563 1_565
Rh2 Ti0 2.537563 1_655
Rh2 Ti3 2.537576 1_555
Rh2 Ti9 2.569763 1_565
Rh2 Ti7 2.569764 1_655
Rh2 Ti4 2.569773 1_555
Rh3 Ti1 2.537573 1_565
Rh3 Ti0 2.537573 1_655
Rh3 Ti2 2.537573 1_556
Rh3 Ti4 2.569757 1_556
Rh3 Ti6 2.569757 1_565
Rh3 Ti8 2.569757 1_655
O0 Ti10 2.154641 1_555
O0 Ti12 2.154641 1_555
O0 Ti15 2.154641 1_555
O0 Ti4 2.160822 1_545
O0 Ti6 2.160822 1_554
O0 Ti9 2.160822 1_555
O1 Ti14 2.154641 1_555
O1 Ti10 2.154641 1_555
O1 Ti13 2.154641 1_555
O1 Ti8 2.160822 1_554
O1 Ti4 2.160822 1_455
O1 Ti7 2.160822 1_555
O2 Ti11 2.154641 1_555
O2 Ti14 2.154641 1_555
O2 Ti12 2.154641 1_555
O2 Ti5 2.160822 1_555
O2 Ti8 2.160822 1_545
O2 Ti6 2.160822 1_455
O3 Ti11 2.154641 1_555
O3 Ti13 2.154641 1_555
O3 Ti15 2.154641 1_555
O3 Ti5 2.160822 1_554
O3 Ti7 2.160822 1_545
O3 Ti9 2.160822 1_455
