# generated using pymatgen
data_KVRhSe4
_symmetry_space_group_name_H-M   'P 1'
_cell_length_a   8.16091990
_cell_length_b   8.16091960
_cell_length_c   5.91915532
_cell_angle_alpha   80.36827798
_cell_angle_beta   80.36828004
_cell_angle_gamma   26.11209581
_symmetry_Int_Tables_number   1
_chemical_formula_structural   KVRhSe4
_chemical_formula_sum   'K1 V1 Rh1 Se4'
_cell_volume   170.92891569
_cell_formula_units_Z   1
loop_
 _symmetry_equiv_pos_site_id
 _symmetry_equiv_pos_as_xyz
  1  'x, y, z'
loop_
 _atom_site_type_symbol
 _atom_site_label
 _atom_site_symmetry_multiplicity
 _atom_site_fract_x
 _atom_site_fract_y
 _atom_site_fract_z
 _atom_site_occupancy
  K  K0  1  0.24267421  0.24267421  0.71577269  1
  V  V0  1  0.99015244  0.99015244  0.08990017  1
  Rh  Rh0  1  0.49493540  0.49493540  0.50239034  1
  Se  Se0  1  0.91547984  0.91547984  0.72799199  1
  Se  Se1  1  0.38848153  0.38848153  0.23531536  1
  Se  Se2  1  0.57331537  0.57331537  0.83708893  1
  Se  Se3  1  0.09596222  0.09596222  0.32454051  1
loop_
_geom_bond_atom_site_label_1
_geom_bond_atom_site_label_2
_geom_bond_distance
_geom_bond_site_symmetry_2
K0 Se2 3.240578 1_545
K0 Se2 3.240579 1_455
K0 Se0 3.319876 1_455
K0 Se0 3.319876 1_545
K0 Se1 3.346284 1_555
K0 Se3 3.558079 1_555
Rh0 Se0 2.489685 1_545
Rh0 Se0 2.489686 1_455
Rh0 Se1 2.506628 1_555
Rh0 Se2 2.515173 1_555
Rh0 Se3 2.550766 1_565
Rh0 Se3 2.550766 1_655
Se0 V0 2.621510 1_556
Se1 V0 2.504988 1_455
Se1 V0 2.504988 1_545
Se2 V0 2.589756 1_546
Se2 V0 2.589756 1_456
Se3 V0 2.358382 1_445
