# generated using pymatgen
data_Zr6InHgC4
_symmetry_space_group_name_H-M   'P 1'
_cell_length_a   3.35854182
_cell_length_b   3.35854254
_cell_length_c   20.31003284
_cell_angle_alpha   90.00000000
_cell_angle_beta   90.00000000
_cell_angle_gamma   120.00000269
_symmetry_Int_Tables_number   1
_chemical_formula_structural   Zr6InHgC4
_chemical_formula_sum   'Zr6 In1 Hg1 C4'
_cell_volume   198.40054461
_cell_formula_units_Z   1
loop_
 _symmetry_equiv_pos_site_id
 _symmetry_equiv_pos_as_xyz
  1  'x, y, z'
loop_
 _atom_site_type_symbol
 _atom_site_label
 _atom_site_symmetry_multiplicity
 _atom_site_fract_x
 _atom_site_fract_y
 _atom_site_fract_z
 _atom_site_occupancy
  Zr  Zr0  1  0.00000000  0.00000000  0.99917089  1
  Zr  Zr1  1  0.33333300  0.66666700  0.12601559  1
  Zr  Zr2  1  0.33333300  0.66666700  0.37398441  1
  Zr  Zr3  1  0.00000000  0.00000000  0.50082911  1
  Zr  Zr4  1  0.66666700  0.33333500  0.62806256  1
  Zr  Zr5  1  0.66666700  0.33333500  0.87193744  1
  In  In0  1  0.00000000  0.00000000  0.25000000  1
  Hg  Hg0  1  0.00000000  0.00000000  0.75000000  1
  C  C0  1  0.66666700  0.33333500  0.06889768  1
  C  C1  1  0.66666700  0.33333500  0.43110232  1
  C  C2  1  0.33333300  0.66666700  0.57051451  1
  C  C3  1  0.33333300  0.66666700  0.92948549  1
loop_
_geom_bond_atom_site_label_1
_geom_bond_atom_site_label_2
_geom_bond_distance
_geom_bond_site_symmetry_2
In0 Zr1 3.178190 1_545
In0 Zr2 3.178190 1_545
In0 Zr1 3.178192 1_445
In0 Zr2 3.178192 1_445
In0 Zr1 3.178192 1_555
In0 Zr2 3.178192 1_555
Hg0 Zr5 3.145351 1_445
Hg0 Zr4 3.145351 1_445
Hg0 Zr5 3.145354 1_555
Hg0 Zr4 3.145354 1_555
Hg0 Zr5 3.145356 1_455
Hg0 Zr4 3.145356 1_455
C0 Zr1 2.259575 1_655
C0 Zr1 2.259576 1_555
C0 Zr1 2.259581 1_545
C0 Zr0 2.401126 1_664
C0 Zr0 2.401131 1_554
C0 Zr0 2.401133 1_654
C1 Zr2 2.259575 1_655
C1 Zr2 2.259576 1_555
C1 Zr2 2.259581 1_545
C1 Zr3 2.401126 1_665
C1 Zr3 2.401131 1_555
C1 Zr3 2.401133 1_655
C2 Zr4 2.264073 1_455
C2 Zr4 2.264073 1_555
C2 Zr4 2.264078 1_565
C2 Zr3 2.400633 1_565
C2 Zr3 2.400635 1_665
C2 Zr3 2.400635 1_555
C3 Zr5 2.264073 1_455
C3 Zr5 2.264073 1_555
C3 Zr5 2.264078 1_565
C3 Zr0 2.400633 1_565
C3 Zr0 2.400635 1_665
C3 Zr0 2.400635 1_555
