# generated using pymatgen
data_Rb2NaScP2
_symmetry_space_group_name_H-M   'P 1'
_cell_length_a   9.04013982
_cell_length_b   9.04014065
_cell_length_c   9.04013989
_cell_angle_alpha   136.28284901
_cell_angle_beta   135.46058268
_cell_angle_gamma   64.18107547
_symmetry_Int_Tables_number   1
_chemical_formula_structural   Rb2NaScP2
_chemical_formula_sum   'Rb4 Na2 Sc2 P4'
_cell_volume   353.25672828
_cell_formula_units_Z   2
loop_
 _symmetry_equiv_pos_site_id
 _symmetry_equiv_pos_as_xyz
  1  'x, y, z'
loop_
 _atom_site_type_symbol
 _atom_site_label
 _atom_site_symmetry_multiplicity
 _atom_site_fract_x
 _atom_site_fract_y
 _atom_site_fract_z
 _atom_site_occupancy
  Rb  Rb0  1  0.53984990  0.31955153  0.22029737  1
  Rb  Rb1  1  0.46015010  0.68044847  0.77970263  1
  Rb  Rb2  1  0.09925516  0.81955153  0.27970263  1
  Rb  Rb3  1  0.90074484  0.18044847  0.72029737  1
  Na  Na0  1  0.50000000  0.25000000  0.75000000  1
  Na  Na1  1  0.50000000  0.75000000  0.25000000  1
  Sc  Sc0  1  0.00000000  0.25000000  0.25000000  1
  Sc  Sc1  1  0.00000000  0.75000000  0.75000000  1
  P  P0  1  0.30000389  0.08927339  0.21073050  1
  P  P1  1  0.69999611  0.91072661  0.78926950  1
  P  P2  1  0.87854289  0.58927339  0.28926950  1
  P  P3  1  0.12145711  0.41072661  0.71073050  1
loop_
_geom_bond_atom_site_label_1
_geom_bond_atom_site_label_2
_geom_bond_distance
_geom_bond_site_symmetry_2
Na0 P3 2.937779 1_555
Na0 P0 2.937779 1_555
Na0 P1 2.937779 1_545
Na0 P2 2.937779 1_556
Na1 P2 2.937779 1_555
Na1 P1 2.937779 1_555
Na1 P0 2.937779 1_565
Na1 P3 2.937779 1_554
P0 Sc0 2.605175 1_555
P0 Sc1 2.605176 1_544
P0 Rb0 3.527969 1_555
P0 Rb3 3.639030 1_454
P0 Rb1 3.674557 1_544
P0 Rb1 3.674564 1_555
P0 Rb3 3.760422 1_555
P1 Sc1 2.605175 1_655
P1 Sc0 2.605176 1_666
P1 Rb1 3.527969 1_555
P1 Rb2 3.639030 1_656
P1 Rb0 3.674557 1_566
P1 Rb0 3.674564 1_555
P1 Rb2 3.760422 1_555
P2 Sc1 2.605175 1_655
P2 Sc0 2.605176 1_655
P2 Rb2 3.527968 1_655
P2 Rb1 3.639024 1_655
P2 Rb3 3.674558 1_554
P2 Rb3 3.674564 1_565
P2 Rb1 3.760428 1_554
P3 Sc0 2.605175 1_555
P3 Sc1 2.605176 1_555
P3 Rb3 3.527968 1_455
P3 Rb0 3.639024 1_455
P3 Rb2 3.674558 1_556
P3 Rb2 3.674564 1_545
P3 Rb0 3.760428 1_556
