# generated using pymatgen
data_Al16V5GaIr7
_symmetry_space_group_name_H-M   'P 1'
_cell_length_a   8.47000428
_cell_length_b   8.50895538
_cell_length_c   8.50895530
_cell_angle_alpha   59.69738247
_cell_angle_beta   60.15131221
_cell_angle_gamma   60.15131743
_symmetry_Int_Tables_number   1
_chemical_formula_structural   Al16V5GaIr7
_chemical_formula_sum   'Al16 V5 Ga1 Ir7'
_cell_volume   433.61374637
_cell_formula_units_Z   1
loop_
 _symmetry_equiv_pos_site_id
 _symmetry_equiv_pos_as_xyz
  1  'x, y, z'
loop_
 _atom_site_type_symbol
 _atom_site_label
 _atom_site_symmetry_multiplicity
 _atom_site_fract_x
 _atom_site_fract_y
 _atom_site_fract_z
 _atom_site_occupancy
  Al  Al0  1  0.88480459  0.84854407  0.84854407  1
  Al  Al1  1  0.86491502  0.84052906  0.42964390  1
  Al  Al2  1  0.41810927  0.84854407  0.84854407  1
  Al  Al3  1  0.86491502  0.42964390  0.84052906  1
  Al  Al4  1  0.15947094  0.13508498  0.13508498  1
  Al  Al5  1  0.15145593  0.11519541  0.58189073  1
  Al  Al6  1  0.15145593  0.58189073  0.11519541  1
  Al  Al7  1  0.57035610  0.13508498  0.13508498  1
  Al  Al8  1  0.61867366  0.61835979  0.61835979  1
  Al  Al9  1  0.63238067  0.61903044  0.11620622  1
  Al  Al10  1  0.14460677  0.61835979  0.61835979  1
  Al  Al11  1  0.63238067  0.11620622  0.61903044  1
  Al  Al12  1  0.38096956  0.36761933  0.36761933  1
  Al  Al13  1  0.38164021  0.38132634  0.85539323  1
  Al  Al14  1  0.38164021  0.85539323  0.38132634  1
  Al  Al15  1  0.88379378  0.36761933  0.36761933  1
  V  V0  1  0.77394231  0.22605769  0.22605769  1
  V  V1  1  0.77033544  0.22966456  0.75581638  1
  V  V2  1  0.77033544  0.75581638  0.22966456  1
  V  V3  1  0.24418362  0.75581638  0.22966456  1
  V  V4  1  0.24418362  0.22966456  0.75581638  1
  Ga  Ga0  1  0.00332341  0.99667659  0.99667659  1
  Ir  Ir0  1  0.51412506  0.48587494  0.48587494  1
  Ir  Ir1  1  0.01075583  0.48924417  0.48924417  1
  Ir  Ir2  1  0.51075583  0.98924417  0.98924417  1
  Ir  Ir3  1  0.51140490  0.99316134  0.48859510  1
  Ir  Ir4  1  0.51140490  0.48859510  0.99316134  1
  Ir  Ir5  1  0.00683866  0.48859510  0.99316134  1
  Ir  Ir6  1  0.00683866  0.99316134  0.48859510  1
loop_
_geom_bond_atom_site_label_1
_geom_bond_atom_site_label_2
_geom_bond_distance
_geom_bond_site_symmetry_2
Al0 Ir6 2.504953 1_655
Al0 Ir5 2.504953 1_655
Al0 Ir2 2.607532 1_555
Al0 V2 2.669982 1_556
Al0 V1 2.669982 1_565
Al0 Al10 2.793825 1_655
Al0 Ga0 2.882274 1_655
Al0 Al9 2.897052 1_556
Al0 Al11 2.897052 1_565
Al1 Ir1 2.477110 1_655
Al1 Ir6 2.488991 1_655
Al1 Ir3 2.489013 1_555
Al1 V3 2.688154 1_655
Al1 V2 2.688173 1_555
Al1 V0 2.726510 1_565
Al1 Al10 2.833684 1_655
Al1 Al8 2.833704 1_555
Al1 Al11 2.834574 1_565
Al1 Ga0 3.003988 1_654
Al2 Ir3 2.504954 1_555
Al2 Ir4 2.504954 1_555
Al2 Ir2 2.607519 1_555
Al2 V3 2.669984 1_556
Al2 V4 2.669984 1_565
Al2 Al8 2.793827 1_555
Al2 Ga0 2.882287 1_555
Al2 Al9 2.897029 1_556
Al3 Ir1 2.477110 1_655
Al3 Ir5 2.488991 1_655
Al3 Ir4 2.489013 1_555
Al3 V4 2.688154 1_655
Al3 V1 2.688173 1_555
Al3 V0 2.726510 1_556
Al3 Al8 2.833704 1_555
Al3 Al9 2.834574 1_556
Al3 Ga0 3.003988 1_645
Al4 Ir2 2.477106 1_544
Al4 Ir6 2.489010 1_545
Al4 Ir5 2.489010 1_554
Al4 V4 2.688149 1_554
Al4 V3 2.688149 1_545
Al4 V0 2.726505 1_455
Al4 Ga0 3.003967 1_544
Al5 Ir6 2.504940 1_545
Al5 Ir3 2.504955 1_545
Al5 Ir1 2.607534 1_555
Al5 V1 2.669984 1_455
Al5 V4 2.669997 1_555
Al5 Ga0 2.882288 1_545
Al6 Ir5 2.504940 1_554
Al6 Ir4 2.504955 1_554
Al6 Ir1 2.607534 1_555
Al6 V2 2.669984 1_455
Al6 V3 2.669997 1_555
Al6 Ga0 2.882288 1_554
Al7 Ir2 2.477088 1_544
Al7 Ir3 2.489014 1_545
Al7 Ir4 2.489014 1_554
Al7 V1 2.688154 1_554
Al7 V2 2.688154 1_545
Al7 V0 2.726528 1_555
Al7 Ga0 3.003989 1_644
Al8 Ir0 2.568193 1_555
Al8 Ir4 2.603123 1_555
Al8 Ir3 2.603123 1_555
Al8 V2 2.705493 1_555
Al8 V1 2.705493 1_555
Al8 Ir1 2.719753 1_655
Al9 Ir0 2.564789 1_555
Al9 Ir2 2.568062 1_554
Al9 Ir4 2.598169 1_554
Al9 Ir5 2.598183 1_654
Al9 V3 2.694911 1_555
Al9 V2 2.694924 1_555
Al9 V0 2.731834 1_555
Al10 Ir0 2.568193 1_555
Al10 Ir5 2.603123 1_555
Al10 Ir6 2.603123 1_555
Al10 V3 2.705493 1_555
Al10 V4 2.705493 1_555
Al10 Ir1 2.719753 1_555
Al10 Al3 2.833684 1_455
Al10 Al14 2.839280 1_555
Al10 Al13 2.839280 1_555
Al10 Al12 3.033475 1_555
Al11 Ir0 2.564789 1_555
Al11 Ir2 2.568062 1_545
Al11 Ir3 2.598169 1_545
Al11 Ir6 2.598183 1_645
Al11 V4 2.694910 1_555
Al11 V1 2.694924 1_555
Al11 V0 2.731833 1_555
Al11 Al2 2.897029 1_545
Al11 Al12 3.011502 1_555
Al11 Al15 3.011526 1_555
Al11 Al13 3.033487 1_555
Al12 Ir0 2.564775 1_555
Al12 Ir1 2.568062 1_555
Al12 Ir4 2.598183 1_554
Al12 Ir3 2.598183 1_545
Al12 V4 2.694911 1_555
Al12 V3 2.694911 1_555
Al12 V0 2.731834 1_555
Al12 Al7 2.834606 1_555
Al12 Al5 2.897055 1_555
Al12 Al6 2.897055 1_555
Al12 Al9 3.011502 1_555
Al13 Ir0 2.568194 1_555
Al13 Ir4 2.603123 1_555
Al13 Ir5 2.603123 1_555
Al13 V4 2.705493 1_555
Al13 V1 2.705493 1_555
Al13 Ir2 2.719753 1_545
Al13 Al6 2.793814 1_556
Al13 Al7 2.833685 1_556
Al13 Al4 2.833700 1_556
Al13 Al8 2.839280 1_555
Al14 Ir0 2.568194 1_555
Al14 Ir3 2.603123 1_555
Al14 Ir6 2.603123 1_555
Al14 V3 2.705493 1_555
Al14 V2 2.705493 1_555
Al14 Ir2 2.719753 1_554
Al14 Al5 2.793814 1_565
Al14 Al7 2.833685 1_565
Al14 Al4 2.833700 1_565
Al14 Al8 2.839280 1_555
Al14 Al9 3.033487 1_555
Al15 Ir0 2.564789 1_555
Al15 Ir1 2.568048 1_655
Al15 Ir5 2.598184 1_654
Al15 Ir6 2.598184 1_645
Al15 V1 2.694910 1_555
Al15 V2 2.694911 1_555
Al15 V0 2.731847 1_555
Al15 Al4 2.834601 1_655
Al15 Al6 2.897030 1_655
Al15 Al5 2.897030 1_655
Al15 Al9 3.011526 1_555
Al15 Al8 3.033475 1_555
Ga0 V0 2.772831 1_466
Ga0 V4 2.838369 1_565
Ga0 V2 2.838369 1_456
Ga0 V1 2.838369 1_465
Ga0 V3 2.838369 1_556
Ir1 V1 2.998990 1_455
Ir1 V3 2.998990 1_555
Ir1 V4 2.998990 1_555
Ir1 V2 2.998990 1_455
Ir2 V3 2.998990 1_556
Ir2 V1 2.998990 1_565
Ir2 V2 2.998990 1_556
Ir2 V4 2.998990 1_565
