# generated using pymatgen
data_Hf3Nb2Ge3C
_symmetry_space_group_name_H-M   'P 1'
_cell_length_a   7.82648041
_cell_length_b   7.82648219
_cell_length_c   5.49253657
_cell_angle_alpha   90.00000000
_cell_angle_beta   90.00000000
_cell_angle_gamma   120.00000080
_symmetry_Int_Tables_number   1
_chemical_formula_structural   Hf3Nb2Ge3C
_chemical_formula_sum   'Hf6 Nb4 Ge6 C2'
_cell_volume   291.36453557
_cell_formula_units_Z   2
loop_
 _symmetry_equiv_pos_site_id
 _symmetry_equiv_pos_as_xyz
  1  'x, y, z'
loop_
 _atom_site_type_symbol
 _atom_site_label
 _atom_site_symmetry_multiplicity
 _atom_site_fract_x
 _atom_site_fract_y
 _atom_site_fract_z
 _atom_site_occupancy
  Hf  Hf0  1  0.76586236  0.00000000  0.75000000  1
  Hf  Hf1  1  0.76586236  0.76586236  0.25000000  1
  Hf  Hf2  1  0.00000000  0.23413764  0.25000000  1
  Hf  Hf3  1  1.00000000  0.76586236  0.75000000  1
  Hf  Hf4  1  0.23413764  0.23413764  0.75000000  1
  Hf  Hf5  1  0.23413764  1.00000000  0.25000000  1
  Nb  Nb0  1  0.66666700  0.33333300  0.00000000  1
  Nb  Nb1  1  0.33333300  0.66666700  0.50000000  1
  Nb  Nb2  1  0.66666700  0.33333300  0.50000000  1
  Nb  Nb3  1  0.33333300  0.66666700  0.00000000  1
  Ge  Ge0  1  0.40511555  1.00000000  0.75000000  1
  Ge  Ge1  1  0.40511555  0.40511555  0.25000000  1
  Ge  Ge2  1  1.00000000  0.59488445  0.25000000  1
  Ge  Ge3  1  0.00000000  0.40511555  0.75000000  1
  Ge  Ge4  1  0.59488445  0.59488445  0.75000000  1
  Ge  Ge5  1  0.59488445  0.00000000  0.25000000  1
  C  C0  1  0.00000000  0.00000000  0.50000000  1
  C  C1  1  0.00000000  0.00000000  0.00000000  1
loop_
_geom_bond_atom_site_label_1
_geom_bond_atom_site_label_2
_geom_bond_distance
_geom_bond_site_symmetry_2
Ge0 Nb3 2.746168 1_556
Ge0 Nb1 2.746168 1_555
Ge0 Nb2 2.746170 1_565
Ge0 Nb0 2.746170 1_566
Ge0 Hf3 2.756946 1_455
Ge0 Hf4 2.756947 1_565
Ge0 Hf0 2.823378 1_565
Ge0 Hf5 3.054938 1_555
Ge0 Hf5 3.054938 1_556
Ge1 Nb2 2.746174 1_555
Ge1 Nb0 2.746174 1_555
Ge1 Nb3 2.746175 1_555
Ge1 Nb1 2.746175 1_555
Ge1 Hf2 2.756946 1_555
Ge1 Hf5 2.756947 1_545
Ge1 Hf1 2.823378 1_555
Ge1 Hf4 3.054939 1_554
Ge1 Hf4 3.054939 1_555
Ge2 Nb3 2.746167 1_655
Ge2 Nb1 2.746167 1_655
Ge2 Nb2 2.746170 1_555
Ge2 Nb0 2.746170 1_555
Ge2 Hf1 2.756947 1_555
Ge2 Hf5 2.756947 1_655
Ge2 Hf2 2.823378 1_655
Ge2 Hf3 3.054939 1_554
Ge2 Hf3 3.054939 1_555
Ge3 Nb2 2.746167 1_455
Ge3 Nb0 2.746167 1_456
Ge3 Nb1 2.746170 1_555
Ge3 Nb3 2.746170 1_556
Ge3 Hf4 2.756947 1_555
Ge3 Hf0 2.756947 1_455
Ge3 Hf3 2.823378 1_455
Ge3 Hf2 3.054939 1_555
Ge3 Hf2 3.054939 1_556
Ge4 Nb3 2.746174 1_556
Ge4 Nb1 2.746174 1_555
Ge4 Nb2 2.746175 1_555
Ge4 Nb0 2.746175 1_556
Ge4 Hf3 2.756946 1_555
Ge4 Hf0 2.756947 1_565
Ge4 Hf4 2.823378 1_555
Ge4 Hf1 3.054939 1_555
Ge4 Hf1 3.054939 1_556
Ge5 Nb2 2.746168 1_555
Ge5 Nb0 2.746168 1_555
Ge5 Nb1 2.746170 1_545
Ge5 Nb3 2.746170 1_545
Ge5 Hf2 2.756946 1_655
Ge5 Hf1 2.756947 1_545
Ge5 Hf5 2.823378 1_545
Ge5 Hf0 3.054938 1_555
Ge5 Hf0 3.054938 1_554
C0 Hf5 2.289860 1_545
C0 Hf0 2.289860 1_455
C0 Hf4 2.289860 1_555
C0 Hf1 2.289860 1_445
C0 Hf2 2.289860 1_555
C0 Hf3 2.289860 1_445
C1 Hf5 2.289860 1_545
C1 Hf0 2.289860 1_454
C1 Hf4 2.289860 1_554
C1 Hf1 2.289860 1_445
C1 Hf2 2.289860 1_555
C1 Hf3 2.289860 1_444
