# generated using pymatgen
data_Sn2Mo
_symmetry_space_group_name_H-M   'P 1'
_cell_length_a   5.51722159
_cell_length_b   5.51722264
_cell_length_c   14.24826146
_cell_angle_alpha   90.00000000
_cell_angle_beta   90.00000000
_cell_angle_gamma   119.99999984
_symmetry_Int_Tables_number   1
_chemical_formula_structural   Sn2Mo
_chemical_formula_sum   'Sn12 Mo6'
_cell_volume   375.60679927
_cell_formula_units_Z   6
loop_
 _symmetry_equiv_pos_site_id
 _symmetry_equiv_pos_as_xyz
  1  'x, y, z'
loop_
 _atom_site_type_symbol
 _atom_site_label
 _atom_site_symmetry_multiplicity
 _atom_site_fract_x
 _atom_site_fract_y
 _atom_site_fract_z
 _atom_site_occupancy
  Sn  Sn0  1  0.50000000  0.00000000  0.39683887  1
  Sn  Sn1  1  0.50000000  0.50000000  0.73017187  1
  Sn  Sn2  1  0.00000000  0.50000000  0.06350487  1
  Sn  Sn3  1  0.50000000  0.00000000  0.60316113  1
  Sn  Sn4  1  0.50000000  0.50000000  0.93649513  1
  Sn  Sn5  1  0.00000000  0.50000000  0.26982813  1
  Sn  Sn6  1  0.16738144  0.33476288  0.50000000  1
  Sn  Sn7  1  0.83261856  0.16738144  0.83333300  1
  Sn  Sn8  1  0.33476288  0.16738144  0.16666700  1
  Sn  Sn9  1  0.66523712  0.83261856  0.16666700  1
  Sn  Sn10  1  0.16738144  0.83261856  0.83333300  1
  Sn  Sn11  1  0.83261856  0.66523712  0.50000000  1
  Mo  Mo0  1  0.00000000  0.00000000  0.00000000  1
  Mo  Mo1  1  0.00000000  0.00000000  0.33333300  1
  Mo  Mo2  1  0.00000000  0.00000000  0.66666700  1
  Mo  Mo3  1  0.50000000  0.00000000  0.00000000  1
  Mo  Mo4  1  0.50000000  0.50000000  0.33333300  1
  Mo  Mo5  1  0.00000000  0.50000000  0.66666700  1
loop_
_geom_bond_atom_site_label_1
_geom_bond_atom_site_label_2
_geom_bond_distance
_geom_bond_site_symmetry_2
Sn0 Sn3 2.939734 1_555
Sn1 Sn4 2.939748 1_555
Sn2 Sn5 2.939748 1_555
Mo0 Mo3 2.758611 1_455
Mo0 Mo3 2.758611 1_555
Mo0 Sn9 2.863166 1_445
Mo0 Sn8 2.863166 1_555
Mo0 Sn7 2.863166 1_454
Mo0 Sn10 2.863166 1_544
Mo0 Sn4 2.903215 1_444
Mo0 Sn4 2.903215 1_554
Mo0 Sn2 2.903216 1_545
Mo0 Sn2 2.903216 1_555
Mo1 Mo4 2.758611 1_555
Mo1 Mo4 2.758611 1_445
Mo1 Sn9 2.863154 1_445
Mo1 Sn8 2.863154 1_555
Mo1 Sn11 2.863166 1_445
Mo1 Sn6 2.863166 1_555
Mo1 Sn5 2.903216 1_555
Mo1 Sn5 2.903216 1_545
Mo1 Sn0 2.903220 1_455
Mo1 Sn0 2.903220 1_555
Mo2 Mo5 2.758611 1_555
Mo2 Mo5 2.758611 1_545
Mo2 Sn7 2.863154 1_455
Mo2 Sn10 2.863154 1_545
Mo2 Sn11 2.863166 1_445
Mo2 Sn6 2.863166 1_555
Mo2 Sn1 2.903215 1_555
Mo2 Sn1 2.903215 1_445
Mo2 Sn3 2.903220 1_455
Mo2 Sn3 2.903220 1_555
Mo3 Sn10 2.857461 1_544
Mo3 Sn7 2.857461 1_554
Mo3 Sn8 2.857461 1_555
Mo3 Sn9 2.857461 1_545
Mo3 Sn2 2.903215 1_545
Mo3 Sn2 2.903215 1_655
Mo3 Sn4 2.903216 1_554
Mo3 Sn4 2.903216 1_544
Mo4 Sn8 2.857449 1_555
Mo4 Sn9 2.857449 1_555
Mo4 Sn6 2.857461 1_555
Mo4 Sn11 2.857461 1_555
Mo4 Sn5 2.903215 1_555
Mo4 Sn5 2.903215 1_655
Mo4 Sn0 2.903220 1_565
Mo4 Sn0 2.903220 1_555
Mo5 Sn10 2.857449 1_555
Mo5 Sn7 2.857449 1_455
Mo5 Sn11 2.857461 1_455
Mo5 Sn6 2.857461 1_555
Mo5 Sn1 2.903215 1_455
Mo5 Sn1 2.903215 1_555
Mo5 Sn3 2.903220 1_455
Mo5 Sn3 2.903220 1_565
