# generated using pymatgen
data_Rb8TiAs4
_symmetry_space_group_name_H-M   'P 1'
_cell_length_a   11.30009572
_cell_length_b   11.30009521
_cell_length_c   11.30009587
_cell_angle_alpha   59.99999804
_cell_angle_beta   59.99999955
_cell_angle_gamma   59.99999656
_symmetry_Int_Tables_number   1
_chemical_formula_structural   Rb8TiAs4
_chemical_formula_sum   'Rb16 Ti2 As8'
_cell_volume   1020.30810374
_cell_formula_units_Z   2
loop_
 _symmetry_equiv_pos_site_id
 _symmetry_equiv_pos_as_xyz
  1  'x, y, z'
loop_
 _atom_site_type_symbol
 _atom_site_label
 _atom_site_symmetry_multiplicity
 _atom_site_fract_x
 _atom_site_fract_y
 _atom_site_fract_z
 _atom_site_occupancy
  Rb  Rb0  1  0.62500000  0.12500000  0.62500000  1
  Rb  Rb1  1  0.62500000  0.62500000  0.12500000  1
  Rb  Rb2  1  0.12500000  0.62500000  0.62500000  1
  Rb  Rb3  1  0.62500000  0.62500000  0.62500000  1
  Rb  Rb4  1  0.02562937  0.02562937  0.47437063  1
  Rb  Rb5  1  0.77562937  0.22437063  0.22437063  1
  Rb  Rb6  1  0.22437063  0.77562937  0.77562937  1
  Rb  Rb7  1  0.77562937  0.77562937  0.22437063  1
  Rb  Rb8  1  0.77562937  0.22437063  0.77562937  1
  Rb  Rb9  1  0.22437063  0.77562937  0.22437063  1
  Rb  Rb10  1  0.47437063  0.02562937  0.47437063  1
  Rb  Rb11  1  0.47437063  0.02562937  0.02562937  1
  Rb  Rb12  1  0.02562937  0.47437063  0.47437063  1
  Rb  Rb13  1  0.02562937  0.47437063  0.02562937  1
  Rb  Rb14  1  0.22437063  0.22437063  0.77562937  1
  Rb  Rb15  1  0.47437063  0.47437063  0.02562937  1
  Ti  Ti0  1  0.75000000  0.75000000  0.75000000  1
  Ti  Ti1  1  0.50000000  0.50000000  0.50000000  1
  As  As0  1  0.40666296  0.78001212  0.40666296  1
  As  As1  1  0.84333704  0.84333704  0.46998788  1
  As  As2  1  0.46998788  0.84333704  0.84333704  1
  As  As3  1  0.84333704  0.84333704  0.84333704  1
  As  As4  1  0.78001212  0.40666296  0.40666296  1
  As  As5  1  0.40666296  0.40666296  0.40666296  1
  As  As6  1  0.40666296  0.40666296  0.78001212  1
  As  As7  1  0.84333704  0.46998788  0.84333704  1
loop_
_geom_bond_atom_site_label_1
_geom_bond_atom_site_label_2
_geom_bond_distance
_geom_bond_site_symmetry_2
Rb0 Ti0 3.459933 1_545
Rb0 Ti1 3.459933 1_555
Rb1 Ti1 3.459934 1_555
Rb1 Ti0 3.459934 1_554
Rb2 Ti1 3.459933 1_555
Rb2 Ti0 3.459933 1_455
Rb3 Ti0 3.459934 1_555
Rb3 Ti1 3.459934 1_555
As0 Ti1 2.583529 1_555
As0 Rb3 3.561810 1_555
As0 Rb1 3.561819 1_555
As0 Rb2 3.561819 1_555
As0 Rb7 3.596698 1_555
As0 Rb6 3.596699 1_555
As0 Rb9 3.596708 1_555
As0 Rb10 3.702246 1_565
As0 Rb4 3.702254 1_565
As0 Rb11 3.702254 1_565
As1 Ti0 2.583529 1_555
As1 Rb3 3.561810 1_555
As1 Rb0 3.561819 1_565
As1 Rb2 3.561819 1_655
As1 Rb12 3.596698 1_655
As1 Rb10 3.596698 1_565
As1 Rb4 3.596708 1_665
As1 Rb7 3.702246 1_555
As1 Rb5 3.702253 1_565
As1 Rb9 3.702254 1_655
As2 Ti0 2.583529 1_555
As2 Rb3 3.561810 1_555
As2 Rb0 3.561819 1_565
As2 Rb1 3.561819 1_556
As2 Rb15 3.596698 1_556
As2 Rb10 3.596698 1_565
As2 Rb11 3.596708 1_566
As2 Rb6 3.702246 1_555
As2 Rb14 3.702253 1_565
As2 Rb9 3.702254 1_556
As3 Ti0 2.583520 1_555
As3 Rb0 3.561813 1_565
As3 Rb2 3.561813 1_655
As3 Rb1 3.561813 1_556
As3 Rb13 3.596701 1_656
As3 Rb11 3.596702 1_566
As3 Rb4 3.596702 1_665
As3 Rb8 3.702257 1_565
As3 Rb6 3.702257 1_655
As3 Rb7 3.702257 1_556
As4 Ti1 2.583529 1_555
As4 Rb3 3.561810 1_555
As4 Rb0 3.561819 1_555
As4 Rb1 3.561819 1_555
As4 Rb7 3.596698 1_555
As4 Rb8 3.596698 1_555
As4 Rb5 3.596708 1_555
As4 Rb12 3.702246 1_655
As4 Rb4 3.702253 1_655
As4 Rb13 3.702254 1_655
As5 Ti1 2.583520 1_555
As5 Rb0 3.561813 1_555
As5 Rb2 3.561813 1_555
As5 Rb1 3.561813 1_555
As5 Rb9 3.596701 1_555
As5 Rb5 3.596702 1_555
As5 Rb14 3.596702 1_555
As5 Rb10 3.702257 1_555
As5 Rb12 3.702257 1_555
As5 Rb15 3.702257 1_555
As6 Ti1 2.583529 1_555
As6 Rb3 3.561810 1_555
As6 Rb0 3.561819 1_555
As6 Rb2 3.561819 1_555
As6 Rb6 3.596698 1_555
As6 Rb8 3.596698 1_555
As6 Rb14 3.596708 1_555
As6 Rb15 3.702246 1_556
As6 Rb11 3.702253 1_556
As6 Rb13 3.702254 1_556
As7 Ti0 2.583529 1_555
As7 Rb3 3.561810 1_555
As7 Rb1 3.561819 1_556
As7 Rb2 3.561819 1_655
As7 Rb15 3.596698 1_556
As7 Rb12 3.596699 1_655
As7 Rb13 3.596708 1_656
As7 Rb8 3.702246 1_555
As7 Rb14 3.702254 1_655
As7 Rb5 3.702254 1_556
