# generated using pymatgen
data_Ti(FeO2)2
_symmetry_space_group_name_H-M   'P 1'
_cell_length_a   6.04486953
_cell_length_b   6.19802369
_cell_length_c   6.03122104
_cell_angle_alpha   60.32956517
_cell_angle_beta   91.19536639
_cell_angle_gamma   119.90330414
_symmetry_Int_Tables_number   1
_chemical_formula_structural   Ti(FeO2)2
_chemical_formula_sum   'Ti2 Fe4 O8'
_cell_volume   162.36433627
_cell_formula_units_Z   2
loop_
 _symmetry_equiv_pos_site_id
 _symmetry_equiv_pos_as_xyz
  1  'x, y, z'
loop_
 _atom_site_type_symbol
 _atom_site_label
 _atom_site_symmetry_multiplicity
 _atom_site_fract_x
 _atom_site_fract_y
 _atom_site_fract_z
 _atom_site_occupancy
  Ti  Ti0  1  0.99972700  0.50067900  0.50212600  1
  Ti  Ti1  1  0.50005600  0.50032400  0.49713000  1
  Fe  Fe0  1  0.88703700  0.77390200  0.86303200  1
  Fe  Fe1  1  0.49837200  0.99830900  0.50020300  1
  Fe  Fe2  1  0.11481500  0.22948300  0.13411200  1
  Fe  Fe3  1  0.50100500  0.99998300  0.99923300  1
  O  O0  1  0.24265500  0.49592400  0.28106600  1
  O  O1  1  0.25464800  0.50036500  0.72191900  1
  O  O2  1  0.74513400  0.49786800  0.27923700  1
  O  O3  1  0.75554600  0.50162200  0.72144800  1
  O  O4  1  0.23220900  0.94122200  0.27472200  1
  O  O5  1  0.71102100  0.93902800  0.28081900  1
  O  O6  1  0.28898200  0.06154200  0.72200200  1
  O  O7  1  0.76879200  0.05974900  0.72295100  1
loop_
_geom_bond_atom_site_label_1
_geom_bond_atom_site_label_2
_geom_bond_distance
_geom_bond_site_symmetry_2
Fe0 O6 2.017738 1_665
Fe0 O7 2.029565 1_565
Fe0 O3 2.066368 1_555
Fe0 O2 2.082993 1_556
Fe1 O4 2.093009 1_555
Fe1 O7 2.101461 1_565
Fe1 O5 2.135714 1_555
Fe1 O6 2.151624 1_565
Fe1 O1 2.224070 1_555
Fe1 O2 2.231749 1_565
Fe2 O5 2.028170 1_445
Fe2 O4 2.038106 1_545
Fe2 O1 2.062543 1_554
Fe2 O0 2.063473 1_555
Fe3 O6 2.085786 1_565
Fe3 O5 2.095640 1_556
Fe3 O7 2.106588 1_565
Fe3 O4 2.111147 1_556
Fe3 O3 2.240947 1_565
Fe3 O0 2.253265 1_556
O0 Ti1 2.007029 1_555
O0 Ti0 2.024499 1_455
O1 Ti0 2.011728 1_455
O1 Ti1 2.030602 1_555
O2 Ti1 2.011345 1_555
O2 Ti0 2.021392 1_555
O3 Ti0 2.006539 1_555
O3 Ti1 2.031459 1_555
O4 Ti0 1.964297 1_455
O5 Ti1 1.954949 1_555
O6 Ti1 1.955573 1_555
O7 Ti0 1.965064 1_555
