# generated using pymatgen
data_VCrAsO6
_symmetry_space_group_name_H-M   'P 1'
_cell_length_a   4.42950091
_cell_length_b   4.42951546
_cell_length_c   8.79737080
_cell_angle_alpha   90.00025987
_cell_angle_beta   89.99972550
_cell_angle_gamma   90.00016902
_symmetry_Int_Tables_number   1
_chemical_formula_structural   VCrAsO6
_chemical_formula_sum   'V2 Cr2 As2 O12'
_cell_volume   172.60918999
_cell_formula_units_Z   2
loop_
 _symmetry_equiv_pos_site_id
 _symmetry_equiv_pos_as_xyz
  1  'x, y, z'
loop_
 _atom_site_type_symbol
 _atom_site_label
 _atom_site_symmetry_multiplicity
 _atom_site_fract_x
 _atom_site_fract_y
 _atom_site_fract_z
 _atom_site_occupancy
  V  V0  1  0.50000639  0.49999427  0.50167738  1
  V  V1  1  0.00000496  0.00001954  0.00166666  1
  Cr  Cr0  1  0.00001736  0.00000485  0.66785010  1
  Cr  Cr1  1  0.49998630  0.49999371  0.16783871  1
  As  As0  1  0.50002351  0.50002581  0.83348711  1
  As  As1  1  0.99999091  0.99998451  0.33349613  1
  O  O0  1  0.18887696  0.81111057  0.17266419  1
  O  O1  1  0.81109469  0.18888037  0.17266559  1
  O  O2  1  0.31112839  0.31111764  0.67266654  1
  O  O3  1  0.68890973  0.68888827  0.67266307  1
  O  O4  1  0.19343828  0.80653944  0.49104745  1
  O  O5  1  0.80654653  0.19342221  0.49104959  1
  O  O6  1  0.30654253  0.30657079  0.99103803  1
  O  O7  1  0.69344025  0.69345406  0.99104452  1
  O  O8  1  0.20562651  0.79439336  0.83478476  1
  O  O9  1  0.79438529  0.20561873  0.83478559  1
  O  O10  1  0.29437137  0.29437620  0.33479023  1
  O  O11  1  0.70561102  0.70560568  0.33478334  1
loop_
_geom_bond_atom_site_label_1
_geom_bond_atom_site_label_2
_geom_bond_distance
_geom_bond_site_symmetry_2
Cr0 O2 1.949347 1_555
Cr0 O3 1.949347 1_445
Cr0 O8 1.953386 1_545
Cr0 O9 1.953431 1_455
Cr0 O4 1.971714 1_545
Cr0 O5 1.971715 1_455
Cr1 O1 1.949348 1_555
Cr1 O0 1.949361 1_555
Cr1 O11 1.953476 1_555
Cr1 O10 1.953512 1_555
Cr1 O6 1.971667 1_554
Cr1 O7 1.971713 1_554
As0 O7 1.841017 1_555
As0 O6 1.841161 1_555
As0 O8 1.844128 1_555
As0 O9 1.844142 1_555
As0 O3 1.844343 1_555
As0 O2 1.844430 1_555
As1 O5 1.841063 1_565
As1 O4 1.841082 1_655
As1 O11 1.844104 1_555
As1 O10 1.844146 1_665
As1 O0 1.844416 1_655
As1 O1 1.844483 1_565
O0 V1 1.913933 1_565
O1 V1 1.913911 1_655
O2 V0 1.913816 1_555
O3 V0 1.913875 1_555
O4 V0 1.922633 1_555
O5 V0 1.922627 1_555
O6 V1 1.922549 1_556
O7 V1 1.922676 1_666
O8 V1 1.953080 1_566
O9 V1 1.953028 1_656
O10 V0 1.953130 1_555
O11 V0 1.953098 1_555
