# generated using pymatgen
data_GaRe2(Tc10B3)2
_symmetry_space_group_name_H-M   'P 1'
_cell_length_a   8.02833015
_cell_length_b   8.02833139
_cell_length_c   8.02833061
_cell_angle_alpha   59.99999918
_cell_angle_beta   59.99999408
_cell_angle_gamma   59.99999650
_symmetry_Int_Tables_number   1
_chemical_formula_structural   GaRe2(Tc10B3)2
_chemical_formula_sum   'Ga1 Re2 Tc20 B6'
_cell_volume   365.89858659
_cell_formula_units_Z   1
loop_
 _symmetry_equiv_pos_site_id
 _symmetry_equiv_pos_as_xyz
  1  'x, y, z'
loop_
 _atom_site_type_symbol
 _atom_site_label
 _atom_site_symmetry_multiplicity
 _atom_site_fract_x
 _atom_site_fract_y
 _atom_site_fract_z
 _atom_site_occupancy
  Ga  Ga0  1  0.00000000  0.00000000  0.00000000  1
  Re  Re0  1  0.75000000  0.75000000  0.75000000  1
  Re  Re1  1  0.25000000  0.25000000  0.25000000  1
  Tc  Tc0  1  0.61981660  0.61981660  0.14055319  1
  Tc  Tc1  1  0.61981660  0.14055319  0.61981660  1
  Tc  Tc2  1  0.14055319  0.61981660  0.61981660  1
  Tc  Tc3  1  0.61981660  0.61981660  0.61981660  1
  Tc  Tc4  1  0.38018340  0.38018340  0.85944681  1
  Tc  Tc5  1  0.38018340  0.85944681  0.38018340  1
  Tc  Tc6  1  0.85944681  0.38018340  0.38018340  1
  Tc  Tc7  1  0.38018340  0.38018340  0.38018340  1
  Tc  Tc8  1  1.00000000  1.00000000  0.33963554  1
  Tc  Tc9  1  0.66036446  0.00000000  0.33963554  1
  Tc  Tc10  1  1.00000000  0.66036446  0.33963554  1
  Tc  Tc11  1  0.66036446  0.33963554  0.00000000  1
  Tc  Tc12  1  0.00000000  0.33963554  0.00000000  1
  Tc  Tc13  1  0.00000000  0.33963554  0.66036446  1
  Tc  Tc14  1  0.33963554  0.66036446  1.00000000  1
  Tc  Tc15  1  0.33963554  1.00000000  0.66036446  1
  Tc  Tc16  1  0.33963554  1.00000000  1.00000000  1
  Tc  Tc17  1  0.00000000  0.00000000  0.66036446  1
  Tc  Tc18  1  0.00000000  0.66036446  1.00000000  1
  Tc  Tc19  1  0.66036446  0.00000000  0.00000000  1
  B  B0  1  0.71926180  0.71926180  0.28073820  1
  B  B1  1  0.28073820  0.71926180  0.28073820  1
  B  B2  1  0.71926180  0.28073820  0.28073820  1
  B  B3  1  0.28073820  0.28073820  0.71926180  1
  B  B4  1  0.71926180  0.28073820  0.71926180  1
  B  B5  1  0.28073820  0.71926180  0.71926180  1
loop_
_geom_bond_atom_site_label_1
_geom_bond_atom_site_label_2
_geom_bond_distance
_geom_bond_site_symmetry_2
Ga0 Tc15 2.726706 1_544
Ga0 Tc9 2.726706 1_455
Ga0 Tc16 2.726706 1_544
Ga0 Tc19 2.726706 1_455
Ga0 Tc14 2.726706 1_544
Ga0 Tc11 2.726706 1_455
Ga0 Tc8 2.726706 1_445
Ga0 Tc17 2.726706 1_554
Ga0 Tc13 2.726706 1_554
Ga0 Tc10 2.726706 1_445
Ga0 Tc12 2.726707 1_555
Ga0 Tc18 2.726707 1_544
Re0 Tc3 2.560097 1_555
Re0 Tc2 2.560117 1_655
Re0 Tc0 2.560117 1_556
Re0 Tc1 2.560117 1_565
Re1 Tc7 2.560097 1_555
Re1 Tc6 2.560117 1_455
Re1 Tc4 2.560117 1_554
Re1 Tc5 2.560117 1_545
B0 Tc0 2.230682 1_555
B0 Tc5 2.230701 1_555
B0 Tc6 2.230701 1_555
B0 Tc3 2.230703 1_555
B0 Tc18 2.302925 1_654
B0 Tc10 2.302925 1_555
B0 Tc19 2.302925 1_565
B0 Tc9 2.302926 1_565
B1 Tc5 2.230682 1_555
B1 Tc0 2.230701 1_555
B1 Tc2 2.230701 1_555
B1 Tc7 2.230703 1_555
B1 Tc10 2.302925 1_455
B1 Tc8 2.302925 1_455
B1 Tc14 2.302925 1_554
B1 Tc16 2.302925 1_554
B2 Tc6 2.230682 1_555
B2 Tc1 2.230701 1_555
B2 Tc0 2.230701 1_555
B2 Tc7 2.230702 1_555
B2 Tc12 2.302925 1_655
B2 Tc8 2.302925 1_545
B2 Tc11 2.302925 1_555
B2 Tc9 2.302926 1_555
B3 Tc4 2.230682 1_555
B3 Tc1 2.230701 1_555
B3 Tc2 2.230701 1_555
B3 Tc7 2.230703 1_555
B3 Tc12 2.302925 1_556
B3 Tc13 2.302925 1_555
B3 Tc16 2.302925 1_545
B3 Tc15 2.302926 1_545
B4 Tc1 2.230682 1_555
B4 Tc4 2.230701 1_555
B4 Tc6 2.230701 1_555
B4 Tc3 2.230703 1_555
B4 Tc13 2.302925 1_655
B4 Tc17 2.302925 1_655
B4 Tc11 2.302925 1_556
B4 Tc19 2.302925 1_556
B5 Tc2 2.230682 1_555
B5 Tc5 2.230701 1_555
B5 Tc4 2.230701 1_555
B5 Tc3 2.230702 1_555
B5 Tc18 2.302925 1_555
B5 Tc17 2.302925 1_565
B5 Tc14 2.302925 1_555
B5 Tc15 2.302926 1_555
