# generated using pymatgen
data_Rb2LuP2S7
_symmetry_space_group_name_H-M   'P 1'
_cell_length_a   9.23328038
_cell_length_b   9.23328056
_cell_length_c   8.98523554
_cell_angle_alpha   73.43908506
_cell_angle_beta   73.43908520
_cell_angle_gamma   72.18365379
_symmetry_Int_Tables_number   1
_chemical_formula_structural   Rb2LuP2S7
_chemical_formula_sum   'Rb4 Lu2 P4 S14'
_cell_volume   682.41005854
_cell_formula_units_Z   2
loop_
 _symmetry_equiv_pos_site_id
 _symmetry_equiv_pos_as_xyz
  1  'x, y, z'
loop_
 _atom_site_type_symbol
 _atom_site_label
 _atom_site_symmetry_multiplicity
 _atom_site_fract_x
 _atom_site_fract_y
 _atom_site_fract_z
 _atom_site_occupancy
  Rb  Rb0  1  0.60926985  0.05167566  0.16508047  1
  Rb  Rb1  1  0.94832434  0.39073015  0.83491953  1
  Rb  Rb2  1  0.39073015  0.94832434  0.83491953  1
  Rb  Rb3  1  0.05167566  0.60926985  0.16508047  1
  Lu  Lu0  1  0.68333782  0.31666218  0.50000000  1
  Lu  Lu1  1  0.31666218  0.68333782  0.50000000  1
  P  P0  1  0.94350769  0.94350769  0.44042599  1
  P  P1  1  0.05649231  0.05649231  0.55957401  1
  P  P2  1  0.39106384  0.39106384  0.81724030  1
  P  P3  1  0.60893616  0.60893616  0.18275970  1
  S  S0  1  0.68587385  0.37476797  0.19424823  1
  S  S1  1  0.62523203  0.31412615  0.80575177  1
  S  S2  1  0.31412615  0.62523203  0.80575177  1
  S  S3  1  0.37476797  0.68587385  0.19424823  1
  S  S4  1  0.99932764  0.99932764  0.20603039  1
  S  S5  1  0.00067236  0.00067236  0.79396961  1
  S  S6  1  0.70934672  0.01686069  0.53114904  1
  S  S7  1  0.98313931  0.29065328  0.46885096  1
  S  S8  1  0.29065328  0.98313931  0.46885096  1
  S  S9  1  0.01686069  0.70934672  0.53114904  1
  S  S10  1  0.27003878  0.27003878  0.00362736  1
  S  S11  1  0.72996122  0.72996122  0.99637264  1
  S  S12  1  0.36525854  0.36525854  0.60025288  1
  S  S13  1  0.63474146  0.63474146  0.39974712  1
loop_
_geom_bond_atom_site_label_1
_geom_bond_atom_site_label_2
_geom_bond_distance
_geom_bond_site_symmetry_2
Rb0 S0 3.363189 1_555
Rb0 S1 3.435886 1_554
Rb0 S11 3.455690 1_544
Rb0 S8 3.475927 1_545
Rb0 S6 3.567102 1_555
Rb0 S4 3.595652 1_545
Rb0 S10 3.610932 1_555
Rb0 S13 3.797698 1_545
Rb1 S1 3.363189 1_555
Rb1 S0 3.435886 1_556
Rb1 S10 3.455690 1_656
Rb1 S9 3.475927 1_655
Rb1 S7 3.567102 1_555
Rb1 S5 3.595652 1_655
Rb1 S11 3.610933 1_555
Rb1 S12 3.797698 1_655
Rb2 S2 3.363189 1_555
Rb2 S3 3.435886 1_556
Rb2 S10 3.455690 1_566
Rb2 S6 3.475927 1_565
Rb2 S8 3.567102 1_555
Rb2 S5 3.595652 1_565
Rb2 S11 3.610932 1_555
Rb2 S12 3.797698 1_565
Rb3 S3 3.363189 1_555
Rb3 S2 3.435886 1_554
Rb3 S11 3.455690 1_454
Rb3 S7 3.475927 1_455
Rb3 S9 3.567102 1_555
Rb3 S4 3.595652 1_455
Rb3 S10 3.610933 1_555
Rb3 S13 3.797698 1_455
Lu0 S0 2.639424 1_555
Lu0 S1 2.639424 1_555
Lu0 S7 2.643582 1_555
Lu0 S6 2.643582 1_555
Lu0 S12 2.748471 1_555
Lu0 S13 2.748471 1_555
Lu1 S2 2.639424 1_555
Lu1 S3 2.639424 1_555
Lu1 S9 2.643582 1_555
Lu1 S8 2.643582 1_555
Lu1 S13 2.748471 1_555
Lu1 S12 2.748471 1_555
P0 S4 1.972785 1_555
P0 S6 2.052246 1_565
P0 S9 2.052246 1_655
P1 S5 1.972785 1_555
P1 S8 2.052246 1_545
P1 S7 2.052246 1_455
P2 S10 1.983073 1_556
P2 S1 2.040790 1_555
P2 S2 2.040790 1_555
P2 S12 2.116411 1_555
P3 S11 1.983073 1_554
P3 S3 2.040790 1_555
P3 S0 2.040790 1_555
P3 S13 2.116411 1_555
