# generated using pymatgen
data_CsHgPO4
_symmetry_space_group_name_H-M   'P 1'
_cell_length_a   6.02679740
_cell_length_b   9.09134618
_cell_length_c   9.17975443
_cell_angle_alpha   90.00000000
_cell_angle_beta   90.00000000
_cell_angle_gamma   90.00000000
_symmetry_Int_Tables_number   1
_chemical_formula_structural   CsHgPO4
_chemical_formula_sum   'Cs4 Hg4 P4 O16'
_cell_volume   502.97436464
_cell_formula_units_Z   4
loop_
 _symmetry_equiv_pos_site_id
 _symmetry_equiv_pos_as_xyz
  1  'x, y, z'
loop_
 _atom_site_type_symbol
 _atom_site_label
 _atom_site_symmetry_multiplicity
 _atom_site_fract_x
 _atom_site_fract_y
 _atom_site_fract_z
 _atom_site_occupancy
  Cs  Cs0  1  0.75000000  0.67467322  0.02134719  1
  Cs  Cs1  1  0.75000000  0.82532678  0.52134719  1
  Cs  Cs2  1  0.25000000  0.32532678  0.97865281  1
  Cs  Cs3  1  0.25000000  0.17467322  0.47865281  1
  Hg  Hg0  1  0.75000000  0.10006362  0.16952032  1
  Hg  Hg1  1  0.75000000  0.39993638  0.66952032  1
  Hg  Hg2  1  0.25000000  0.89993638  0.83047968  1
  Hg  Hg3  1  0.25000000  0.60006362  0.33047968  1
  P  P0  1  0.75000000  0.09713410  0.81448240  1
  P  P1  1  0.75000000  0.40286590  0.31448240  1
  P  P2  1  0.25000000  0.90286590  0.18551760  1
  P  P3  1  0.25000000  0.59713410  0.68551760  1
  O  O0  1  0.75000000  0.01065168  0.96145266  1
  O  O1  1  0.75000000  0.48934832  0.46145266  1
  O  O2  1  0.25000000  0.98934832  0.03854734  1
  O  O3  1  0.25000000  0.51065168  0.53854734  1
  O  O4  1  0.75000000  0.26551092  0.85578188  1
  O  O5  1  0.75000000  0.23448908  0.35578188  1
  O  O6  1  0.25000000  0.73448908  0.14421812  1
  O  O7  1  0.25000000  0.76551092  0.64421812  1
  O  O8  1  0.95980706  0.05957457  0.72948296  1
  O  O9  1  0.54019294  0.44042543  0.22948296  1
  O  O10  1  0.45980706  0.94042543  0.27051704  1
  O  O11  1  0.04019294  0.55957457  0.77051704  1
  O  O12  1  0.04019294  0.94042543  0.27051704  1
  O  O13  1  0.45980706  0.55957457  0.77051704  1
  O  O14  1  0.54019294  0.05957457  0.72948296  1
  O  O15  1  0.95980706  0.44042543  0.22948296  1
loop_
_geom_bond_atom_site_label_1
_geom_bond_atom_site_label_2
_geom_bond_distance
_geom_bond_site_symmetry_2
Cs0 O11 3.074981 1_654
Cs0 O13 3.074981 1_554
Cs0 O0 3.103586 1_564
Cs0 O15 3.128053 1_555
Cs0 O9 3.128053 1_555
Cs0 O6 3.263206 1_655
Cs0 O6 3.263206 1_555
Cs1 O12 3.074981 1_655
Cs1 O10 3.074981 1_555
Cs1 O1 3.103586 1_555
Cs1 O8 3.128053 1_565
Cs1 O14 3.128053 1_565
Cs1 O7 3.263206 1_555
Cs1 O7 3.263206 1_655
Cs2 O9 3.074981 1_556
Cs2 O15 3.074981 1_456
Cs2 O2 3.103586 1_546
Cs2 O13 3.128053 1_555
Cs2 O11 3.128053 1_555
Cs2 O4 3.263206 1_455
Cs2 O4 3.263206 1_555
Cs3 O14 3.074981 1_555
Cs3 O8 3.074981 1_455
Cs3 O3 3.103586 1_555
Cs3 O10 3.128053 1_545
Cs3 O12 3.128053 1_545
Cs3 O5 3.263206 1_455
Cs3 O5 3.263206 1_555
Hg0 O0 2.075790 1_554
Hg0 O5 2.101686 1_555
Hg0 O12 2.454522 1_645
Hg0 O10 2.454522 1_545
Hg1 O1 2.075790 1_555
Hg1 O4 2.101686 1_555
Hg1 O11 2.454522 1_655
Hg1 O13 2.454522 1_555
Hg2 O2 2.075790 1_556
Hg2 O7 2.101686 1_555
Hg2 O14 2.454522 1_565
Hg2 O8 2.454522 1_465
Hg3 O3 2.075790 1_555
Hg3 O6 2.101686 1_555
Hg3 O9 2.454522 1_555
Hg3 O15 2.454522 1_455
O0 P0 1.561533 1_555
O1 P1 1.561533 1_555
O2 P2 1.561533 1_555
O3 P3 1.561533 1_555
O4 P0 1.577021 1_555
O5 P1 1.577021 1_555
O6 P2 1.577021 1_555
O7 P3 1.577021 1_555
O8 P0 1.524565 1_555
O9 P1 1.524565 1_555
O10 P2 1.524565 1_555
O11 P3 1.524565 1_555
O12 P2 1.524565 1_555
O13 P3 1.524565 1_555
O14 P0 1.524565 1_555
O15 P1 1.524565 1_555
