# generated using pymatgen
data_Hf5NbAl16Ir7
_symmetry_space_group_name_H-M   'P 1'
_cell_length_a   8.64487147
_cell_length_b   8.62800359
_cell_length_c   8.62800383
_cell_angle_alpha   60.12939161
_cell_angle_beta   59.93529753
_cell_angle_gamma   59.93529852
_symmetry_Int_Tables_number   1
_chemical_formula_structural   Hf5NbAl16Ir7
_chemical_formula_sum   'Hf5 Nb1 Al16 Ir7'
_cell_volume   455.05178500
_cell_formula_units_Z   1
loop_
 _symmetry_equiv_pos_site_id
 _symmetry_equiv_pos_as_xyz
  1  'x, y, z'
loop_
 _atom_site_type_symbol
 _atom_site_label
 _atom_site_symmetry_multiplicity
 _atom_site_fract_x
 _atom_site_fract_y
 _atom_site_fract_z
 _atom_site_occupancy
  Hf  Hf0  1  0.32584544  0.67415356  0.67415356  1
  Hf  Hf1  1  0.30917981  0.69081919  0.30987595  1
  Hf  Hf2  1  0.30917981  0.30987595  0.69081919  1
  Hf  Hf3  1  0.69012305  0.30987595  0.69081919  1
  Hf  Hf4  1  0.69012305  0.69081919  0.30987595  1
  Nb  Nb0  1  0.66333465  0.33666435  0.33666435  1
  Al  Al0  1  0.33981193  0.33728821  0.33728821  1
  Al  Al1  1  0.33897748  0.33584468  0.98619937  1
  Al  Al2  1  0.98561066  0.33728821  0.33728821  1
  Al  Al3  1  0.33897748  0.98619937  0.33584468  1
  Al  Al4  1  0.66415532  0.66102252  0.66102252  1
  Al  Al5  1  0.66271179  0.66018807  0.01438934  1
  Al  Al6  1  0.66271179  0.01438934  0.66018807  1
  Al  Al7  1  0.01380063  0.66102252  0.66102252  1
  Al  Al8  1  0.11761689  0.12037449  0.12037449  1
  Al  Al9  1  0.12056659  0.12011124  0.63875457  1
  Al  Al10  1  0.64163413  0.12037449  0.12037449  1
  Al  Al11  1  0.12056659  0.63875457  0.12011124  1
  Al  Al12  1  0.87988776  0.87943241  0.87943241  1
  Al  Al13  1  0.87962451  0.88238211  0.35836887  1
  Al  Al14  1  0.87962451  0.35836887  0.88238211  1
  Al  Al15  1  0.36124843  0.87943241  0.87943241  1
  Ir  Ir0  1  0.00192822  0.99807178  0.99807178  1
  Ir  Ir1  1  0.50158801  0.99841199  0.99841199  1
  Ir  Ir2  1  0.00158801  0.49841199  0.49841199  1
  Ir  Ir3  1  0.99901153  0.49922279  0.00098847  1
  Ir  Ir4  1  0.99901153  0.00098847  0.49922279  1
  Ir  Ir5  1  0.50077721  0.00098847  0.49922279  1
  Ir  Ir6  1  0.50077721  0.49922279  0.00098847  1
loop_
_geom_bond_atom_site_label_1
_geom_bond_atom_site_label_2
_geom_bond_distance
_geom_bond_site_symmetry_2
Hf1 Nb0 3.065280 1_555
Hf1 Ir4 3.129924 1_465
Hf1 Ir6 3.130637 1_555
Hf1 Ir2 3.141957 1_555
Hf1 Ir1 3.141969 1_554
Hf2 Nb0 3.065280 1_555
Hf2 Ir3 3.129924 1_456
Hf2 Ir5 3.130637 1_555
Hf2 Ir2 3.141957 1_555
Hf2 Ir1 3.141969 1_545
Hf3 Nb0 3.065280 1_555
Hf3 Ir6 3.129927 1_556
Hf3 Ir4 3.130640 1_555
Hf3 Ir1 3.141960 1_545
Hf3 Ir2 3.141972 1_655
Hf4 Nb0 3.065280 1_555
Hf4 Ir5 3.129927 1_565
Hf4 Ir3 3.130640 1_555
Hf4 Ir1 3.141960 1_554
Hf4 Ir2 3.141972 1_655
Al0 Ir5 2.484349 1_555
Al0 Ir6 2.484349 1_555
Al0 Ir2 2.488782 1_555
Al0 Nb0 2.791430 1_555
Al0 Hf1 2.822236 1_555
Al0 Hf2 2.822236 1_555
Al1 Ir1 2.491083 1_545
Al1 Ir3 2.508646 1_456
Al1 Ir6 2.508654 1_556
Al1 Hf3 2.809980 1_555
Al1 Hf2 2.809985 1_555
Al1 Hf0 2.815661 1_555
Al2 Ir4 2.484347 1_555
Al2 Ir3 2.484347 1_555
Al2 Ir2 2.488788 1_655
Al2 Nb0 2.791438 1_555
Al2 Hf4 2.822239 1_555
Al2 Hf3 2.822239 1_555
Al3 Ir1 2.491083 1_554
Al3 Ir4 2.508646 1_465
Al3 Ir5 2.508654 1_565
Al3 Hf4 2.809980 1_555
Al3 Hf1 2.809985 1_555
Al3 Hf0 2.815661 1_555
Al4 Ir2 2.491085 1_655
Al4 Ir5 2.508649 1_565
Al4 Ir6 2.508649 1_556
Al4 Hf3 2.809992 1_555
Al4 Hf4 2.809992 1_555
Al4 Hf0 2.815674 1_555
Al5 Ir3 2.484346 1_555
Al5 Ir6 2.484354 1_555
Al5 Ir1 2.488780 1_554
Al5 Nb0 2.791434 1_555
Al5 Hf4 2.822226 1_555
Al5 Hf1 2.822241 1_555
Al6 Ir4 2.484346 1_555
Al6 Ir5 2.484354 1_555
Al6 Ir1 2.488780 1_545
Al6 Nb0 2.791434 1_555
Al6 Hf3 2.822226 1_555
Al6 Hf2 2.822241 1_555
Al7 Ir2 2.491091 1_555
Al7 Ir4 2.508647 1_465
Al7 Ir3 2.508647 1_456
Al7 Hf2 2.809981 1_555
Al7 Hf1 2.809981 1_555
Al7 Hf0 2.815648 1_555
Al8 Ir0 2.539924 1_544
Al8 Ir3 2.672664 1_455
Al8 Ir4 2.672664 1_455
Al8 Ir1 2.708567 1_544
Al8 Hf1 3.111115 1_545
Al8 Hf2 3.111115 1_554
Al8 Nb0 3.342262 1_455
Al9 Ir0 2.533064 1_545
Al9 Ir2 2.669278 1_555
Al9 Ir4 2.681811 1_455
Al9 Ir5 2.681817 1_555
Al9 Hf2 3.111680 1_555
Al9 Hf3 3.111687 1_455
Al10 Ir0 2.539923 1_644
Al10 Ir6 2.672664 1_555
Al10 Ir5 2.672664 1_555
Al10 Ir1 2.708568 1_544
Al10 Hf4 3.111118 1_545
Al10 Hf3 3.111118 1_554
Al10 Nb0 3.342252 1_555
Al11 Ir0 2.533064 1_554
Al11 Ir2 2.669278 1_555
Al11 Ir3 2.681811 1_455
Al11 Ir6 2.681817 1_555
Al11 Hf1 3.111680 1_555
Al11 Hf4 3.111687 1_455
Al12 Ir0 2.533079 1_655
Al12 Ir1 2.669270 1_555
Al12 Ir3 2.681810 1_556
Al12 Ir4 2.681810 1_565
Al12 Hf3 3.111686 1_565
Al12 Hf4 3.111686 1_556
Al13 Ir0 2.539945 1_654
Al13 Ir5 2.672656 1_565
Al13 Ir4 2.672656 1_565
Al13 Ir2 2.708560 1_655
Al13 Hf1 3.111111 1_655
Al13 Hf4 3.111126 1_555
Al13 Nb0 3.342258 1_565
Al14 Ir0 2.539945 1_645
Al14 Ir6 2.672656 1_556
Al14 Ir3 2.672656 1_556
Al14 Ir2 2.708560 1_655
Al14 Hf2 3.111111 1_655
Al14 Hf3 3.111126 1_555
Al14 Nb0 3.342258 1_556
Al15 Ir0 2.533085 1_555
Al15 Ir1 2.669264 1_555
Al15 Ir6 2.681810 1_556
Al15 Ir5 2.681810 1_565
Al15 Hf2 3.111681 1_565
Al15 Hf1 3.111681 1_556
Ir3 Nb0 3.222893 1_555
Ir4 Nb0 3.222893 1_555
Ir5 Nb0 3.222882 1_555
Ir6 Nb0 3.222882 1_555
