# generated using pymatgen
data_SrCa3(CdAs2)2
_symmetry_space_group_name_H-M   'P 1'
_cell_length_a   8.68908308
_cell_length_b   8.68908379
_cell_length_c   7.17102295
_cell_angle_alpha   88.93472326
_cell_angle_beta   91.06527881
_cell_angle_gamma   150.95030889
_symmetry_Int_Tables_number   1
_chemical_formula_structural   SrCa3(CdAs2)2
_chemical_formula_sum   'Sr1 Ca3 Cd2 As4'
_cell_volume   262.84454707
_cell_formula_units_Z   1
loop_
 _symmetry_equiv_pos_site_id
 _symmetry_equiv_pos_as_xyz
  1  'x, y, z'
loop_
 _atom_site_type_symbol
 _atom_site_label
 _atom_site_symmetry_multiplicity
 _atom_site_fract_x
 _atom_site_fract_y
 _atom_site_fract_z
 _atom_site_occupancy
  Sr  Sr0  1  0.29933162  0.70066838  0.93756783  1
  Ca  Ca0  1  0.69892278  0.30107722  0.43192026  1
  Ca  Ca1  1  0.47059440  0.52940560  0.27165604  1
  Ca  Ca2  1  0.53240633  0.46759367  0.77300339  1
  Cd  Cd0  1  0.09702668  0.90297332  0.11324002  1
  Cd  Cd1  1  0.90151303  0.09848697  0.60121154  1
  As  As0  1  0.06393477  0.93606523  0.48737636  1
  As  As1  1  0.93971524  0.06028476  0.97992382  1
  As  As2  1  0.32163670  0.67836330  0.48353566  1
  As  As3  1  0.67491845  0.32508155  0.01166408  1
loop_
_geom_bond_atom_site_label_1
_geom_bond_atom_site_label_2
_geom_bond_distance
_geom_bond_site_symmetry_2
As0 Cd0 2.750536 1_555
As0 Cd1 2.866695 1_465
As0 Ca2 3.044229 1_565
As0 Ca2 3.044229 1_455
As0 Ca1 3.084536 1_455
As0 Ca1 3.084537 1_565
As0 Ca0 3.177842 1_565
As0 Ca0 3.177842 1_455
As1 Cd1 2.778723 1_555
As1 Cd0 2.796474 1_646
As1 Ca1 3.058374 1_656
As1 Ca1 3.058374 1_546
As1 Ca2 3.077516 1_655
As1 Ca2 3.077516 1_545
As1 Sr0 3.223513 1_545
As1 Sr0 3.223513 1_655
As2 Cd1 2.687596 1_565
As2 Cd1 2.687597 1_455
As2 Ca1 2.955372 1_555
As2 Ca0 3.019658 1_455
As2 Ca0 3.019659 1_565
As2 Sr0 3.284577 1_555
As3 Cd0 2.652029 1_545
As3 Cd0 2.652030 1_655
As3 Ca2 2.918762 1_554
As3 Ca0 3.032905 1_555
As3 Sr0 3.074829 1_654
As3 Sr0 3.074829 1_544
