# generated using pymatgen
data_Ta5Be15NbNi8
_symmetry_space_group_name_H-M   'P 1'
_cell_length_a   7.52686531
_cell_length_b   7.52686461
_cell_length_c   7.52981239
_cell_angle_alpha   59.98703967
_cell_angle_beta   59.98704274
_cell_angle_gamma   60.02590410
_symmetry_Int_Tables_number   1
_chemical_formula_structural   Ta5Be15NbNi8
_chemical_formula_sum   'Ta5 Be15 Nb1 Ni8'
_cell_volume   301.64576296
_cell_formula_units_Z   1
loop_
 _symmetry_equiv_pos_site_id
 _symmetry_equiv_pos_as_xyz
  1  'x, y, z'
loop_
 _atom_site_type_symbol
 _atom_site_label
 _atom_site_symmetry_multiplicity
 _atom_site_fract_x
 _atom_site_fract_y
 _atom_site_fract_z
 _atom_site_occupancy
  Ta  Ta0  1  0.70431778  0.29480280  0.29568222  1
  Ta  Ta1  1  0.29480280  0.70431778  0.70519720  1
  Ta  Ta2  1  0.29480280  0.70431778  0.29568222  1
  Ta  Ta3  1  0.70431778  0.29480280  0.70519720  1
  Ta  Ta4  1  0.29709426  0.29709426  0.70290574  1
  Be  Be0  1  0.32678759  0.32678759  0.32640799  1
  Be  Be1  1  0.67341771  0.67341771  0.67362552  1
  Be  Be2  1  0.32678759  0.32678759  0.02001683  1
  Be  Be3  1  0.32637448  0.02046295  0.32658229  1
  Be  Be4  1  0.67341771  0.67341771  0.97953705  1
  Be  Be5  1  0.67359201  0.97998317  0.67321241  1
  Be  Be6  1  0.02046295  0.32637448  0.32658229  1
  Be  Be7  1  0.97998317  0.67359201  0.67321241  1
  Be  Be8  1  0.49821100  0.00051165  0.99948835  1
  Be  Be9  1  0.00051165  0.49821100  0.50178900  1
  Be  Be10  1  0.00051165  0.49821100  0.99948835  1
  Be  Be11  1  0.49821100  0.00051165  0.50178900  1
  Be  Be12  1  0.00091481  0.00091481  0.49908519  1
  Be  Be13  1  0.50091481  0.50091481  0.99908519  1
  Be  Be14  1  0.00137270  0.00137270  0.99862730  1
  Nb  Nb0  1  0.70242207  0.70242207  0.29757793  1
  Ni  Ni0  1  0.12238000  0.12238000  0.12205773  1
  Ni  Ni1  1  0.87781317  0.87781317  0.87729250  1
  Ni  Ni2  1  0.12238000  0.12238000  0.63318227  1
  Ni  Ni3  1  0.12270750  0.63291783  0.12218683  1
  Ni  Ni4  1  0.87781317  0.87781317  0.36708217  1
  Ni  Ni5  1  0.87794227  0.36681773  0.87762000  1
  Ni  Ni6  1  0.63291783  0.12270750  0.12218683  1
  Ni  Ni7  1  0.36681773  0.87794227  0.87762000  1
loop_
_geom_bond_atom_site_label_1
_geom_bond_atom_site_label_2
_geom_bond_distance
_geom_bond_site_symmetry_2
Ta0 Ta4 3.065178 1_555
Ta0 Ta2 3.083571 1_555
Ta0 Ta3 3.083571 1_555
Ta1 Ta4 3.065178 1_555
Ta1 Ta3 3.083571 1_555
Ta1 Ta2 3.083571 1_555
Ta2 Ta4 3.065178 1_555
Ta3 Ta4 3.065179 1_555
Be0 Be11 2.175740 1_555
Be0 Be9 2.175740 1_555
Be0 Be13 2.182536 1_554
Be0 Ni3 2.305483 1_555
Be0 Ni6 2.305483 1_555
Be0 Be3 2.306563 1_555
Be0 Be6 2.306563 1_555
Be0 Be2 2.307068 1_555
Be0 Ni2 2.307529 1_555
Be0 Ta2 2.626926 1_555
Be0 Ta0 2.626926 1_555
Be0 Ta4 2.630416 1_555
Be1 Be13 2.166926 1_555
Be1 Be11 2.179601 1_565
Be1 Be9 2.179601 1_655
Be1 Be4 2.303456 1_555
Be1 Be5 2.306578 1_555
Be1 Be7 2.306578 1_555
Be1 Ni4 2.306857 1_555
Be1 Ni5 2.307484 1_555
Be1 Ni7 2.307484 1_555
Be1 Nb0 2.631331 1_555
Be1 Ta3 2.635746 1_555
Be1 Ta1 2.635747 1_555
Be2 Be8 2.175740 1_554
Be2 Ni3 2.305480 1_555
Be2 Ni6 2.305480 1_555
Be2 Be3 2.306570 1_555
Be2 Be6 2.306570 1_555
Be2 Ni0 2.307529 1_555
Be2 Ta1 2.626926 1_554
Be2 Ta3 2.626926 1_554
Be2 Ta4 2.630416 1_554
Be3 Be8 2.179606 1_554
Be3 Be6 2.303456 1_555
Be3 Ni6 2.306846 1_555
Be3 Ni2 2.307476 1_555
Be3 Ni0 2.307489 1_555
Be3 Nb0 2.631338 1_545
Be3 Ta1 2.635752 1_545
Be3 Ta2 2.635761 1_545
Be4 Be8 2.179606 1_565
Be4 Be5 2.306570 1_555
Be4 Be7 2.306570 1_555
Be4 Ni1 2.306865 1_555
Be4 Ni5 2.307476 1_555
Be4 Ni7 2.307476 1_555
Be4 Nb0 2.631346 1_556
Be4 Ta0 2.635752 1_556
Be4 Ta2 2.635753 1_556
Be5 Be8 2.175740 1_565
Be5 Ni4 2.305480 1_555
Be5 Ni1 2.305486 1_555
Be5 Be7 2.307068 1_555
Be5 Ni7 2.307529 1_555
Be5 Ta0 2.626926 1_565
Be5 Ta3 2.626926 1_565
Be5 Ta4 2.630416 1_565
Be6 Be9 2.179593 1_555
Be6 Ni3 2.306846 1_555
Be6 Ni2 2.307476 1_555
Be6 Ni0 2.307489 1_555
Be6 Nb0 2.631337 1_455
Be6 Ta3 2.635753 1_455
Be6 Ta0 2.635762 1_455
Be7 Be9 2.175740 1_655
Be7 Ni4 2.305480 1_555
Be7 Ni1 2.305486 1_555
Be7 Ni5 2.307529 1_555
Be7 Ta2 2.626926 1_655
Be7 Ta1 2.626926 1_655
Be7 Ta4 2.630416 1_655
Be8 Ni0 2.310360 1_556
Be8 Ni7 2.310360 1_545
Be8 Ni6 2.333795 1_556
Be8 Ni1 2.333801 1_545
Be8 Ta4 2.698175 1_555
Be8 Ta3 2.703310 1_555
Be8 Ta2 2.703510 1_546
Be8 Nb0 2.720677 1_546
Be9 Ni2 2.310360 1_555
Be9 Ni5 2.310360 1_455
Be9 Ni4 2.333801 1_455
Be9 Ni3 2.333801 1_555
Be9 Ta4 2.698175 1_555
Be9 Ta2 2.703311 1_555
Be9 Ta3 2.703510 1_455
Be9 Nb0 2.720677 1_455
Be10 Be7 2.175740 1_455
Be10 Be2 2.175740 1_556
Be10 Be6 2.179606 1_556
Be10 Be4 2.179606 1_455
Be10 Ni0 2.310360 1_556
Be10 Ni5 2.310360 1_455
Be10 Ni3 2.333795 1_556
Be10 Ni1 2.333801 1_455
Be10 Ta4 2.698175 1_555
Be10 Ta1 2.703311 1_555
Be10 Ta0 2.703510 1_456
Be10 Nb0 2.720677 1_456
Be11 Be5 2.175740 1_545
Be11 Be3 2.179593 1_555
Be11 Ni7 2.310360 1_545
Be11 Ni2 2.310360 1_555
Be11 Ni6 2.333801 1_555
Be11 Ni4 2.333801 1_545
Be11 Ta4 2.698175 1_555
Be11 Ta0 2.703311 1_555
Be11 Ta1 2.703510 1_545
Be11 Nb0 2.720677 1_545
Be12 Be6 2.166931 1_555
Be12 Be3 2.166932 1_555
Be12 Be7 2.182535 1_445
Be12 Be5 2.182536 1_445
Be12 Ni0 2.318075 1_555
Be12 Ni2 2.318075 1_555
Be12 Ni4 2.324981 1_445
Be12 Ni1 2.324987 1_445
Be12 Ta1 2.705471 1_545
Be12 Ta2 2.705471 1_545
Be12 Ta3 2.705471 1_455
Be12 Ta0 2.705471 1_455
Be13 Be4 2.166919 1_555
Be13 Be2 2.182536 1_556
Be13 Ni7 2.318075 1_555
Be13 Ni5 2.318075 1_555
Be13 Ni6 2.324987 1_556
Be13 Ni3 2.324987 1_556
Be13 Ta0 2.705471 1_556
Be13 Ta2 2.705471 1_556
Be13 Ta3 2.705471 1_555
Be13 Ta1 2.705471 1_555
Be14 Ni5 2.246226 1_455
Be14 Ni2 2.246226 1_555
Be14 Ni7 2.246226 1_545
Be14 Ni0 2.246226 1_556
Be14 Ni1 2.264701 1_445
Be14 Ni3 2.264707 1_546
Be14 Ni4 2.264707 1_446
Be14 Ni6 2.264707 1_456
Nb0 Ni6 2.623584 1_565
Nb0 Ni3 2.623585 1_655
Nb0 Ni1 2.623586 1_554
Nb0 Ni4 2.623591 1_555
Nb0 Ta3 3.068139 1_555
Nb0 Ta0 3.068139 1_555
Nb0 Ta1 3.068139 1_555
Nb0 Ta2 3.068140 1_555
Ni0 Ni4 2.602297 1_445
Ni0 Ni5 2.602959 1_454
Ni0 Ni7 2.602959 1_544
Ni0 Ta2 2.607005 1_545
Ni0 Ta0 2.607005 1_455
Ni0 Ta4 2.616048 1_554
Ni1 Ta3 2.600799 1_565
Ni1 Ta1 2.600800 1_655
Ni1 Ni2 2.602297 1_665
Ni1 Ni3 2.607822 1_656
Ni1 Ni6 2.607822 1_566
Ni2 Ni7 2.602959 1_545
Ni2 Ni5 2.602959 1_455
Ni2 Ta1 2.607005 1_545
Ni2 Ta3 2.607005 1_455
Ni2 Ta4 2.616048 1_555
Ni3 Ta1 2.600799 1_554
Ni3 Ta2 2.600805 1_555
Ni3 Ni7 2.602302 1_554
Ni3 Ni4 2.607832 1_455
Ni4 Ta0 2.600798 1_565
Ni4 Ta2 2.600799 1_655
Ni4 Ni6 2.607832 1_565
Ni5 Ni6 2.602302 1_556
Ni5 Ta0 2.607005 1_556
Ni5 Ta3 2.607006 1_555
Ni5 Ta4 2.616048 1_655
Ni6 Ta3 2.600798 1_554
Ni6 Ta0 2.600805 1_555
Ni7 Ta2 2.607005 1_556
Ni7 Ta1 2.607006 1_555
Ni7 Ta4 2.616047 1_565
