# generated using pymatgen
data_KGa5(HgSe3)4
_symmetry_space_group_name_H-M   'P 1'
_cell_length_a   8.92229011
_cell_length_b   8.98160536
_cell_length_c   9.27328338
_cell_angle_alpha   108.63446998
_cell_angle_beta   106.72249179
_cell_angle_gamma   108.10954975
_symmetry_Int_Tables_number   1
_chemical_formula_structural   KGa5(HgSe3)4
_chemical_formula_sum   'K1 Ga5 Hg4 Se12'
_cell_volume   604.33008744
_cell_formula_units_Z   1
loop_
 _symmetry_equiv_pos_site_id
 _symmetry_equiv_pos_as_xyz
  1  'x, y, z'
loop_
 _atom_site_type_symbol
 _atom_site_label
 _atom_site_symmetry_multiplicity
 _atom_site_fract_x
 _atom_site_fract_y
 _atom_site_fract_z
 _atom_site_occupancy
  K  K0  1  0.00232934  0.01311797  0.01776807  1
  Ga  Ga0  1  0.18496844  0.54986109  0.02391975  1
  Ga  Ga1  1  0.02077847  0.18293804  0.55256373  1
  Ga  Ga2  1  0.55936099  0.02103072  0.19155442  1
  Ga  Ga3  1  0.93563219  0.46845235  0.33095920  1
  Ga  Ga4  1  0.31983042  0.93038550  0.46727849  1
  Hg  Hg0  1  0.49067853  0.34497954  0.93279922  1
  Hg  Hg1  1  0.62273715  0.70275570  0.40472783  1
  Hg  Hg2  1  0.41162763  0.64624187  0.71996545  1
  Hg  Hg3  1  0.71645407  0.40676825  0.63459369  1
  Se  Se0  1  0.88448574  0.63932127  0.54859433  1
  Se  Se1  1  0.55045782  0.89408100  0.63430313  1
  Se  Se2  1  0.67019083  0.59691229  0.88270901  1
  Se  Se3  1  0.34935855  0.42297770  0.14600575  1
  Se  Se4  1  0.14795717  0.36926729  0.43969005  1
  Se  Se5  1  0.42871242  0.14019306  0.36438593  1
  Se  Se6  1  0.06540117  0.67189884  0.22105422  1
  Se  Se7  1  0.21053027  0.06165705  0.66098501  1
  Se  Se8  1  0.69839448  0.21210569  0.08256205  1
  Se  Se9  1  0.77952399  0.93357967  0.29761794  1
  Se  Se10  1  0.29320963  0.78260464  0.94858863  1
  Se  Se11  1  0.93858170  0.29007146  0.77857609  1
loop_
_geom_bond_atom_site_label_1
_geom_bond_atom_site_label_2
_geom_bond_distance
_geom_bond_site_symmetry_2
K0 Se2 3.508560 1_444
K0 Se3 3.542612 1_555
K0 Se4 3.704237 1_555
K0 Se5 3.745181 1_555
K0 Se8 3.764763 1_455
K0 Se9 3.803635 1_445
K0 Se10 3.857908 1_544
K0 Se11 3.887232 1_454
Ga0 Se3 2.374831 1_555
Ga0 Se10 2.420105 1_554
Ga0 Se11 2.448217 1_454
Ga0 Se6 2.500026 1_555
Ga1 Se4 2.409631 1_555
Ga1 Se11 2.427115 1_455
Ga1 Se9 2.435040 1_445
Ga1 Se7 2.435278 1_555
Ga2 Se9 2.405005 1_545
Ga2 Se5 2.414025 1_555
Ga2 Se10 2.444913 1_544
Ga2 Se8 2.451963 1_555
Ga3 Se0 2.371208 1_555
Ga3 Se8 2.421282 1_555
Ga3 Se4 2.433729 1_655
Ga3 Se6 2.504438 1_655
Ga4 Se1 2.375984 1_555
Ga4 Se7 2.436647 1_565
Ga4 Se5 2.439173 1_565
Ga4 Se6 2.471814 1_555
Hg0 Se2 2.597681 1_555
Hg0 Se3 2.662381 1_556
Hg0 Se7 2.719887 1_555
Hg0 Se8 2.782215 1_556
Hg1 Se3 2.643723 1_555
Hg1 Se1 2.653719 1_555
Hg1 Se0 2.660542 1_555
Hg1 Se9 2.748477 1_555
Hg2 Se2 2.618240 1_555
Hg2 Se1 2.665062 1_555
Hg2 Se4 2.681290 1_555
Hg2 Se10 2.746864 1_555
Hg3 Se2 2.618113 1_555
Hg3 Se0 2.655594 1_555
Hg3 Se5 2.691653 1_555
Hg3 Se11 2.733507 1_555
