# generated using pymatgen
data_Cs2Pd(PtS2)2
_symmetry_space_group_name_H-M   'P 1'
_cell_length_a   8.91697765
_cell_length_b   7.71315996
_cell_length_c   6.26764186
_cell_angle_alpha   78.50758343
_cell_angle_beta   57.95750396
_cell_angle_gamma   44.74250411
_symmetry_Int_Tables_number   1
_chemical_formula_structural   Cs2Pd(PtS2)2
_chemical_formula_sum   'Cs2 Pd1 Pt2 S4'
_cell_volume   245.55811328
_cell_formula_units_Z   1
loop_
 _symmetry_equiv_pos_site_id
 _symmetry_equiv_pos_as_xyz
  1  'x, y, z'
loop_
 _atom_site_type_symbol
 _atom_site_label
 _atom_site_symmetry_multiplicity
 _atom_site_fract_x
 _atom_site_fract_y
 _atom_site_fract_z
 _atom_site_occupancy
  Cs  Cs0  1  0.65631244  0.65631244  0.34368756  1
  Cs  Cs1  1  0.34368756  0.34368756  0.65631244  1
  Pd  Pd0  1  0.00000000  0.00000000  0.50000000  1
  Pt  Pt0  1  0.50000000  0.50000000  0.00000000  1
  Pt  Pt1  1  0.00000000  0.00000000  0.00000000  1
  S  S0  1  0.06612650  0.72200631  0.26563222  1
  S  S1  1  0.72200631  0.06612650  0.94623497  1
  S  S2  1  0.93387350  0.27799369  0.73436778  1
  S  S3  1  0.27799369  0.93387350  0.05376503  1
loop_
_geom_bond_atom_site_label_1
_geom_bond_atom_site_label_2
_geom_bond_distance
_geom_bond_site_symmetry_2
Cs0 S3 3.657450 1_556
Cs0 S2 3.657450 1_554
Cs0 S3 3.736367 1_555
Cs0 S2 3.736367 1_555
Cs0 S0 3.805868 1_655
Cs0 S1 3.805868 1_564
Cs0 S2 3.814178 1_465
Cs0 S3 3.814179 1_645
Cs0 Pt0 3.826831 1_556
Cs0 Pt0 3.826831 1_555
Cs0 Pt1 3.867865 1_566
Cs0 Pt1 3.867865 1_655
Cs0 Pd0 3.892219 1_565
Cs0 Pd0 3.892220 1_655
Cs1 S1 3.657450 1_554
Cs1 S0 3.657450 1_556
Cs1 S1 3.736367 1_555
Cs1 S0 3.736367 1_555
Cs1 S2 3.805868 1_455
Cs1 S3 3.805868 1_546
Cs1 S0 3.814178 1_645
Cs1 S1 3.814179 1_465
Cs1 Pt0 3.826831 1_555
Cs1 Pt0 3.826831 1_556
Cs1 Pt1 3.867865 1_655
Cs1 Pt1 3.867865 1_566
Cs1 Pd0 3.892219 1_655
Cs1 Pd0 3.892220 1_565
Pd0 S3 2.375509 1_545
Pd0 S1 2.375509 1_455
Pd0 S2 2.375509 1_455
Pd0 S0 2.375509 1_545
Pt0 S2 2.358447 1_554
Pt0 S0 2.358447 1_555
Pt0 S3 2.358447 1_555
Pt0 S1 2.358447 1_554
Pt1 S3 2.353782 1_545
Pt1 S1 2.353782 1_454
Pt1 S2 2.353782 1_454
Pt1 S0 2.353782 1_545
