# generated using pymatgen
data_Ca(BO2)2
_symmetry_space_group_name_H-M   'P 1'
_cell_length_a   4.28918193
_cell_length_b   6.17830051
_cell_length_c   11.62599013
_cell_angle_alpha   90.00000000
_cell_angle_beta   90.00000000
_cell_angle_gamma   90.00000000
_symmetry_Int_Tables_number   1
_chemical_formula_structural   Ca(BO2)2
_chemical_formula_sum   'Ca4 B8 O16'
_cell_volume   308.08705158
_cell_formula_units_Z   4
loop_
 _symmetry_equiv_pos_site_id
 _symmetry_equiv_pos_as_xyz
  1  'x, y, z'
loop_
 _atom_site_type_symbol
 _atom_site_label
 _atom_site_symmetry_multiplicity
 _atom_site_fract_x
 _atom_site_fract_y
 _atom_site_fract_z
 _atom_site_occupancy
  Ca  Ca0  1  0.77194850  0.25000000  0.50000000  1
  Ca  Ca1  1  0.72805150  0.75000000  -0.00000000  1
  Ca  Ca2  1  0.22805150  0.75000000  0.50000000  1
  Ca  Ca3  1  0.27194850  0.25000000  -0.00000000  1
  B  B0  1  0.32866130  0.12674430  0.30760657  1
  B  B1  1  0.32866130  0.37325570  0.69239343  1
  B  B2  1  0.17133870  0.62674430  0.19239343  1
  B  B3  1  0.17133870  0.87325570  0.80760657  1
  B  B4  1  0.82866130  0.12674430  0.19239343  1
  B  B5  1  0.82866130  0.37325570  0.80760657  1
  B  B6  1  0.67133870  0.62674430  0.30760657  1
  B  B7  1  0.67133870  0.87325570  0.69239343  1
  O  O0  1  0.84830344  0.85036718  0.79184363  1
  O  O1  1  0.84830344  0.64963282  0.20815637  1
  O  O2  1  0.65169656  0.35036718  0.70815637  1
  O  O3  1  0.65169656  0.14963282  0.29184363  1
  O  O4  1  0.72835578  0.09143846  0.08638790  1
  O  O5  1  0.72835578  0.40856154  0.91361210  1
  O  O6  1  0.77164422  0.59143846  0.41361210  1
  O  O7  1  0.77164422  0.90856154  0.58638790  1
  O  O8  1  0.27164422  0.90856154  0.91361210  1
  O  O9  1  0.27164422  0.59143846  0.08638790  1
  O  O10  1  0.22835578  0.40856154  0.58638790  1
  O  O11  1  0.22835578  0.09143846  0.41361210  1
  O  O12  1  0.15169656  0.14963282  0.20815637  1
  O  O13  1  0.15169656  0.35036718  0.79184363  1
  O  O14  1  0.34830344  0.64963282  0.29184363  1
  O  O15  1  0.34830344  0.85036718  0.70815637  1
loop_
_geom_bond_atom_site_label_1
_geom_bond_atom_site_label_2
_geom_bond_distance
_geom_bond_site_symmetry_2
Ca0 O7 2.336395 1_545
Ca0 O6 2.336395 1_555
Ca0 O11 2.408455 1_655
Ca0 O10 2.408455 1_655
Ca0 O3 2.550896 1_555
Ca0 O2 2.550896 1_555
Ca0 O10 2.721142 1_555
Ca0 O11 2.721142 1_555
Ca1 O4 2.336395 1_565
Ca1 O5 2.336395 1_554
Ca1 O9 2.408455 1_555
Ca1 O8 2.408455 1_554
Ca1 O0 2.550896 1_554
Ca1 O1 2.550896 1_555
Ca1 O9 2.721142 1_655
Ca1 O8 2.721142 1_654
Ca2 O10 2.336395 1_555
Ca2 O11 2.336395 1_565
Ca2 O7 2.408455 1_455
Ca2 O6 2.408455 1_455
Ca2 O14 2.550896 1_555
Ca2 O15 2.550896 1_555
Ca2 O6 2.721142 1_555
Ca2 O7 2.721142 1_555
Ca3 O9 2.336395 1_555
Ca3 O8 2.336395 1_544
Ca3 O4 2.408455 1_555
Ca3 O5 2.408455 1_554
Ca3 O12 2.550896 1_555
Ca3 O13 2.550896 1_554
Ca3 O4 2.721142 1_455
Ca3 O5 2.721142 1_454
B0 O11 1.323456 1_555
B0 O12 1.390304 1_555
B0 O3 1.404760 1_555
B1 O10 1.323456 1_555
B1 O13 1.390304 1_555
B1 O2 1.404760 1_555
B2 O9 1.323456 1_555
B2 O14 1.390304 1_555
B2 O1 1.404760 1_455
B3 O8 1.323456 1_555
B3 O15 1.390304 1_555
B3 O0 1.404760 1_455
B4 O4 1.323456 1_555
B4 O3 1.390304 1_555
B4 O12 1.404760 1_655
B5 O5 1.323456 1_555
B5 O2 1.390304 1_555
B5 O13 1.404760 1_655
B6 O6 1.323456 1_555
B6 O1 1.390304 1_555
B6 O14 1.404760 1_555
B7 O7 1.323456 1_555
B7 O0 1.390304 1_555
B7 O15 1.404760 1_555
