# generated using pymatgen
data_CsReP2Pd
_symmetry_space_group_name_H-M   'P 1'
_cell_length_a   7.81531538
_cell_length_b   7.81531544
_cell_length_c   7.81531418
_cell_angle_alpha   150.25132718
_cell_angle_beta   150.25132933
_cell_angle_gamma   42.57260464
_symmetry_Int_Tables_number   1
_chemical_formula_structural   CsReP2Pd
_chemical_formula_sum   'Cs1 Re1 P2 Pd1'
_cell_volume   117.23663376
_cell_formula_units_Z   1
loop_
 _symmetry_equiv_pos_site_id
 _symmetry_equiv_pos_as_xyz
  1  'x, y, z'
loop_
 _atom_site_type_symbol
 _atom_site_label
 _atom_site_symmetry_multiplicity
 _atom_site_fract_x
 _atom_site_fract_y
 _atom_site_fract_z
 _atom_site_occupancy
  Cs  Cs0  1  0.00000000  0.00000000  0.00000000  1
  Re  Re0  1  0.25000000  0.75000000  0.50000000  1
  P  P0  1  0.33637161  0.33637161  0.00000000  1
  P  P1  1  0.66362839  0.66362839  1.00000000  1
  Pd  Pd0  1  0.75000000  0.25000000  0.50000000  1
loop_
_geom_bond_atom_site_label_1
_geom_bond_atom_site_label_2
_geom_bond_distance
_geom_bond_site_symmetry_2
Cs0 P1 3.705253 1_443
Cs0 P0 3.705253 1_556
Cs0 P1 3.705254 1_544
Cs0 P0 3.705254 1_455
Cs0 P1 3.705254 1_454
Cs0 P0 3.705254 1_545
Cs0 P1 3.705255 1_555
Cs0 P0 3.705255 1_444
P0 Pd0 2.367955 1_555
P0 Re0 2.367955 1_555
P0 Pd0 2.367956 1_454
P0 Re0 2.367956 1_544
P1 Re0 2.367955 1_555
P1 Pd0 2.367955 1_555
P1 Re0 2.367956 1_656
P1 Pd0 2.367956 1_566
Pd0 Re0 2.837182 1_544
Pd0 Re0 2.837182 1_656
Pd0 Re0 2.837182 1_645
Pd0 Re0 2.837182 1_555
