# generated using pymatgen
data_KMoH5
_symmetry_space_group_name_H-M   'P 1'
_cell_length_a   4.70743671
_cell_length_b   5.63397491
_cell_length_c   12.87578070
_cell_angle_alpha   90.00000000
_cell_angle_beta   90.00000000
_cell_angle_gamma   90.00000000
_symmetry_Int_Tables_number   1
_chemical_formula_structural   KMoH5
_chemical_formula_sum   'K4 Mo4 H20'
_cell_volume   341.48605189
_cell_formula_units_Z   4
loop_
 _symmetry_equiv_pos_site_id
 _symmetry_equiv_pos_as_xyz
  1  'x, y, z'
loop_
 _atom_site_type_symbol
 _atom_site_label
 _atom_site_symmetry_multiplicity
 _atom_site_fract_x
 _atom_site_fract_y
 _atom_site_fract_z
 _atom_site_occupancy
  K  K0  1  0.27407578  0.25004292  0.65581099  1
  K  K1  1  0.77407578  0.24995708  0.34418901  1
  K  K2  1  0.22592422  0.74995708  0.15581099  1
  K  K3  1  0.72592422  0.75004292  0.84418901  1
  Mo  Mo0  1  0.23808064  0.25000256  0.95698924  1
  Mo  Mo1  1  0.73808064  0.24999744  0.04301076  1
  Mo  Mo2  1  0.26191936  0.74999744  0.45698924  1
  Mo  Mo3  1  0.76191936  0.75000256  0.54301076  1
  H  H0  1  0.50534077  0.51211265  0.48731041  1
  H  H1  1  0.00534077  0.98788735  0.51268959  1
  H  H2  1  0.99465923  0.48788735  0.98731041  1
  H  H3  1  0.49465923  0.01211265  0.01268959  1
  H  H4  1  0.22127308  0.06529564  0.84856333  1
  H  H5  1  0.72127308  0.43470436  0.15143667  1
  H  H6  1  0.27872692  0.93470436  0.34856333  1
  H  H7  1  0.77872692  0.56529564  0.65143667  1
  H  H8  1  0.22135306  0.43484631  0.84858827  1
  H  H9  1  0.72135306  0.06515369  0.15141173  1
  H  H10  1  0.27864694  0.56515369  0.34858827  1
  H  H11  1  0.77864694  0.93484631  0.65141173  1
  H  H12  1  0.62280377  0.25000416  0.90512980  1
  H  H13  1  0.12280377  0.24999584  0.09487020  1
  H  H14  1  0.87719623  0.74999584  0.40512980  1
  H  H15  1  0.37719623  0.75000416  0.59487020  1
  H  H16  1  0.99468209  0.01211981  0.98728236  1
  H  H17  1  0.49468209  0.48788019  0.01271764  1
  H  H18  1  0.50531791  0.98788019  0.48728236  1
  H  H19  1  0.00531791  0.51211981  0.51271764  1
loop_
_geom_bond_atom_site_label_1
_geom_bond_atom_site_label_2
_geom_bond_distance
_geom_bond_site_symmetry_2
H0 Mo2 1.806023 1_555
H0 Mo3 1.941524 1_555
H0 K1 2.679129 1_555
H0 K0 2.841178 1_555
H1 Mo3 1.806023 1_455
H1 Mo2 1.941524 1_555
H1 K0 2.679129 1_565
H1 K1 2.841178 1_465
H2 Mo0 1.806023 1_655
H2 Mo1 1.941524 1_556
H2 K3 2.679129 1_555
H2 K2 2.841178 1_656
H3 Mo1 1.806023 1_555
H3 Mo0 1.941524 1_554
H3 K2 2.679129 1_545
H3 K3 2.841178 1_544
H4 Mo0 1.743039 1_555
H4 K0 2.702719 1_555
H4 K3 2.931756 1_445
H4 K3 2.966704 1_545
H5 Mo1 1.743039 1_555
H5 K1 2.702719 1_555
H5 K2 2.931756 1_555
H5 K2 2.966704 1_655
H6 Mo2 1.743039 1_555
H6 K2 2.702719 1_555
H6 K1 2.931756 1_565
H6 K1 2.966704 1_465
H7 Mo3 1.743039 1_555
H7 K3 2.702719 1_555
H7 K0 2.931756 1_655
H7 K0 2.966704 1_555
H8 Mo0 1.743225 1_555
H8 K0 2.703101 1_555
H8 K3 2.931871 1_455
H8 K3 2.966220 1_555
H9 Mo1 1.743225 1_555
H9 K1 2.703101 1_555
H9 K2 2.931871 1_545
H9 K2 2.966220 1_645
H10 Mo2 1.743225 1_555
H10 K2 2.703101 1_555
H10 K1 2.931871 1_555
H10 K1 2.966220 1_455
H11 Mo3 1.743225 1_555
H11 K3 2.703101 1_555
H11 K0 2.931871 1_665
H11 K0 2.966220 1_565
H12 Mo1 1.856410 1_556
H12 Mo0 1.930234 1_555
H12 K3 2.964039 1_545
H12 K3 2.964454 1_555
H13 Mo0 1.856410 1_554
H13 Mo1 1.930234 1_455
H13 K2 2.964039 1_555
H13 K2 2.964454 1_545
H14 Mo3 1.856410 1_555
H14 Mo2 1.930234 1_655
H14 K1 2.964039 1_565
H14 K1 2.964454 1_555
H15 Mo2 1.856410 1_555
H15 Mo3 1.930234 1_555
H15 K0 2.964039 1_555
H15 K0 2.964454 1_565
H16 Mo0 1.805868 1_655
H16 Mo1 1.941676 1_556
H16 K3 2.678687 1_545
H16 K2 2.841684 1_646
H17 Mo1 1.805868 1_555
H17 Mo0 1.941676 1_554
H17 K2 2.678687 1_555
H17 K3 2.841684 1_554
H18 Mo2 1.805868 1_555
H18 Mo3 1.941676 1_555
H18 K1 2.678687 1_565
H18 K0 2.841684 1_565
H19 Mo3 1.805868 1_455
H19 Mo2 1.941676 1_555
H19 K0 2.678687 1_555
H19 K1 2.841684 1_455
