# generated using pymatgen
data_Y2Mg2Ge6Ir7
_symmetry_space_group_name_H-M   'P 1'
_cell_length_a   7.05648970
_cell_length_b   7.20100538
_cell_length_c   7.20100477
_cell_angle_alpha   110.41558852
_cell_angle_beta   109.40566937
_cell_angle_gamma   109.40566788
_symmetry_Int_Tables_number   1
_chemical_formula_structural   Y2Mg2Ge6Ir7
_chemical_formula_sum   'Y2 Mg2 Ge6 Ir7'
_cell_volume   278.79347851
_cell_formula_units_Z   1
loop_
 _symmetry_equiv_pos_site_id
 _symmetry_equiv_pos_as_xyz
  1  'x, y, z'
loop_
 _atom_site_type_symbol
 _atom_site_label
 _atom_site_symmetry_multiplicity
 _atom_site_fract_x
 _atom_site_fract_y
 _atom_site_fract_z
 _atom_site_occupancy
  Y  Y0  1  0.50000000  0.00000000  0.00000000  1
  Y  Y1  1  0.50000000  0.50000000  0.50000000  1
  Mg  Mg0  1  0.00000000  0.00000000  0.50000000  1
  Mg  Mg1  1  0.00000000  0.50000000  0.00000000  1
  Ge  Ge0  1  0.69379637  0.68650306  0.00729331  1
  Ge  Ge1  1  0.30620363  0.99270669  0.31349694  1
  Ge  Ge2  1  0.00000000  0.31390969  0.31390969  1
  Ge  Ge3  1  0.30620363  0.31349694  0.99270669  1
  Ge  Ge4  1  0.69379637  0.00729331  0.68650306  1
  Ge  Ge5  1  1.00000000  0.68609031  0.68609031  1
  Ir  Ir0  1  0.75734044  0.25018627  0.50715418  1
  Ir  Ir1  1  0.75734044  0.50715418  0.25018627  1
  Ir  Ir2  1  0.50000000  0.25000000  0.75000000  1
  Ir  Ir3  1  0.24265956  0.49284582  0.74981373  1
  Ir  Ir4  1  0.24265956  0.74981373  0.49284582  1
  Ir  Ir5  1  0.50000000  0.75000000  0.25000000  1
  Ir  Ir6  1  0.00000000  0.00000000  0.00000000  1
loop_
_geom_bond_atom_site_label_1
_geom_bond_atom_site_label_2
_geom_bond_distance
_geom_bond_site_symmetry_2
Ge0 Ir1 2.523464 1_555
Ge0 Ir5 2.565143 1_555
Ge0 Ir2 2.565143 1_554
Ge0 Ir6 2.585445 1_665
Ge0 Ir3 2.615459 1_554
Ge0 Mg0 2.903390 1_665
Ge0 Mg1 2.903390 1_655
Ge0 Y1 3.009251 1_554
Ge0 Y0 3.009251 1_565
Ge1 Ir4 2.523464 1_555
Ge1 Ir2 2.565143 1_565
Ge1 Ir5 2.565144 1_555
Ge1 Ir6 2.585445 1_565
Ge1 Ir0 2.615459 1_565
Ge1 Mg1 2.903390 1_555
Ge1 Mg0 2.903390 1_565
Ge1 Y0 3.009251 1_565
Ge1 Y1 3.009251 1_565
Ge2 Ir3 2.566278 1_555
Ge2 Ir0 2.566278 1_455
Ge2 Ir4 2.566278 1_555
Ge2 Ir1 2.566278 1_455
Ge2 Ir6 2.579651 1_555
Ge2 Y0 2.916087 1_455
Ge2 Y1 2.916087 1_555
Ge2 Mg1 3.003110 1_555
Ge2 Mg0 3.003111 1_555
Ge3 Ir3 2.523464 1_555
Ge3 Ir2 2.565143 1_555
Ge3 Ir5 2.565143 1_556
Ge3 Ir6 2.585445 1_556
Ge3 Ir1 2.615459 1_556
Ge3 Mg0 2.903390 1_555
Ge3 Mg1 2.903390 1_556
Ge3 Y1 3.009251 1_556
Ge3 Y0 3.009251 1_556
Ge4 Ir0 2.523464 1_555
Ge4 Ir5 2.565143 1_545
Ge4 Ir2 2.565144 1_555
Ge4 Ir6 2.585445 1_656
Ge4 Ir4 2.615459 1_545
Ge4 Mg1 2.903390 1_656
Ge4 Mg0 2.903390 1_655
Ge4 Y0 3.009251 1_556
Ge4 Y1 3.009251 1_545
Ge5 Ir1 2.566278 1_555
Ge5 Ir4 2.566278 1_655
Ge5 Ir0 2.566278 1_555
Ge5 Ir3 2.566278 1_655
Ge5 Ir6 2.579651 1_666
Ge5 Y0 2.916087 1_666
Ge5 Y1 2.916087 1_555
Ge5 Mg1 3.003110 1_656
Ge5 Mg0 3.003111 1_665
Ir0 Mg1 2.867798 1_656
Ir0 Mg0 2.867798 1_655
Ir0 Y0 2.951190 1_555
Ir0 Y1 2.951190 1_555
Ir1 Mg1 2.867798 1_655
Ir1 Mg0 2.867798 1_665
Ir1 Y1 2.951190 1_555
Ir1 Y0 2.951190 1_555
Ir2 Mg0 2.868402 1_555
Ir2 Mg1 2.868402 1_656
Ir2 Y0 2.956829 1_556
Ir2 Y1 2.956829 1_555
Ir3 Mg1 2.867798 1_556
Ir3 Mg0 2.867798 1_555
Ir3 Y1 2.951190 1_555
Ir3 Y0 2.951190 1_566
Ir4 Mg1 2.867798 1_555
Ir4 Mg0 2.867798 1_565
Ir4 Y0 2.951190 1_566
Ir4 Y1 2.951190 1_555
Ir5 Mg0 2.868402 1_665
Ir5 Mg1 2.868402 1_555
Ir5 Y1 2.956829 1_555
Ir5 Y0 2.956829 1_565
