# generated using pymatgen
data_K2Nb3(WSe4)3
_symmetry_space_group_name_H-M   'P 1'
_cell_length_a   5.93318378
_cell_length_b   5.93318529
_cell_length_c   17.39492620
_cell_angle_alpha   90.00000000
_cell_angle_beta   90.00000000
_cell_angle_gamma   120.00000271
_symmetry_Int_Tables_number   1
_chemical_formula_structural   K2Nb3(WSe4)3
_chemical_formula_sum   'K2 Nb3 W3 Se12'
_cell_volume   530.30890789
_cell_formula_units_Z   1
loop_
 _symmetry_equiv_pos_site_id
 _symmetry_equiv_pos_as_xyz
  1  'x, y, z'
loop_
 _atom_site_type_symbol
 _atom_site_label
 _atom_site_symmetry_multiplicity
 _atom_site_fract_x
 _atom_site_fract_y
 _atom_site_fract_z
 _atom_site_occupancy
  K  K0  1  0.00000000  0.00000000  0.99923547  1
  K  K1  1  0.00000000  0.00000000  0.50076453  1
  Nb  Nb0  1  0.66666700  0.33333300  0.75000000  1
  Nb  Nb1  1  0.66666700  0.33333300  0.25000000  1
  Nb  Nb2  1  0.33333300  0.66666700  0.75000000  1
  W  W0  1  0.00000000  0.00000000  0.75000000  1
  W  W1  1  0.00000000  0.00000000  0.25000000  1
  W  W2  1  0.33333300  0.66666700  0.25000000  1
  Se  Se0  1  0.32714007  0.99259834  0.15572856  1
  Se  Se1  1  0.00740166  0.33454273  0.15572856  1
  Se  Se2  1  0.66545727  0.67285993  0.15572856  1
  Se  Se3  1  0.32753471  0.32754096  0.65468256  1
  Se  Se4  1  0.66545727  0.67285993  0.34427144  1
  Se  Se5  1  0.67245904  0.99999375  0.65468256  1
  Se  Se6  1  0.00000625  0.67246529  0.65468256  1
  Se  Se7  1  0.00000625  0.67246529  0.84531744  1
  Se  Se8  1  0.32753471  0.32754096  0.84531744  1
  Se  Se9  1  0.00740166  0.33454273  0.34427144  1
  Se  Se10  1  0.32714007  0.99259834  0.34427144  1
  Se  Se11  1  0.67245904  0.99999375  0.84531744  1
loop_
_geom_bond_atom_site_label_1
_geom_bond_atom_site_label_2
_geom_bond_distance
_geom_bond_site_symmetry_2
K0 Se11 3.308325 1_445
K0 Se8 3.308325 1_555
K0 Se7 3.308325 1_545
K0 Se0 3.356319 1_546
K0 Se2 3.356320 1_446
K0 Se1 3.356322 1_556
K1 Se5 3.308325 1_445
K1 Se3 3.308325 1_555
K1 Se6 3.308325 1_545
K1 Se10 3.356319 1_545
K1 Se4 3.356320 1_445
K1 Se9 3.356322 1_555
Nb0 Se11 2.594184 1_545
Nb0 Se5 2.594184 1_545
Nb0 Se7 2.594186 1_655
Nb0 Se6 2.594186 1_655
Nb0 Se8 2.594188 1_555
Nb0 Se3 2.594188 1_555
Nb1 Se9 2.600320 1_655
Nb1 Se1 2.600320 1_655
Nb1 Se10 2.600325 1_545
Nb1 Se0 2.600325 1_545
Nb1 Se4 2.600330 1_555
Nb1 Se2 2.600330 1_555
Nb2 Se7 2.594141 1_555
Nb2 Se6 2.594141 1_555
Nb2 Se11 2.594144 1_555
Nb2 Se5 2.594144 1_555
Nb2 Se8 2.594146 1_555
Nb2 Se3 2.594146 1_555
Se0 W2 2.549730 1_555
Se0 W1 2.558060 1_565
Se1 W2 2.549729 1_555
Se1 W1 2.558065 1_555
Se2 W2 2.549729 1_555
Se2 W1 2.558062 1_665
Se3 W0 2.554540 1_555
Se4 W2 2.549729 1_555
Se4 W1 2.558062 1_665
Se5 W0 2.554540 1_665
Se6 W0 2.554540 1_565
Se7 W0 2.554540 1_565
Se8 W0 2.554540 1_555
Se9 W2 2.549729 1_555
Se9 W1 2.558065 1_555
Se10 W2 2.549730 1_555
Se10 W1 2.558060 1_565
Se11 W0 2.554540 1_665
