# generated using pymatgen
data_Hf6Tc3RuRh2
_symmetry_space_group_name_H-M   'P 1'
_cell_length_a   4.57575545
_cell_length_b   6.47754614
_cell_length_c   13.73342127
_cell_angle_alpha   90.00000000
_cell_angle_beta   90.00003425
_cell_angle_gamma   90.00000000
_symmetry_Int_Tables_number   1
_chemical_formula_structural   Hf6Tc3RuRh2
_chemical_formula_sum   'Hf12 Tc6 Ru2 Rh4'
_cell_volume   407.05403449
_cell_formula_units_Z   2
loop_
 _symmetry_equiv_pos_site_id
 _symmetry_equiv_pos_as_xyz
  1  'x, y, z'
loop_
 _atom_site_type_symbol
 _atom_site_label
 _atom_site_symmetry_multiplicity
 _atom_site_fract_x
 _atom_site_fract_y
 _atom_site_fract_z
 _atom_site_occupancy
  Hf  Hf0  1  0.50000015  0.24878810  0.99803309  1
  Hf  Hf1  1  0.50000015  0.75121190  0.99803309  1
  Hf  Hf2  1  0.99998873  0.24996106  0.16632964  1
  Hf  Hf3  1  0.99998873  0.75003894  0.16632964  1
  Hf  Hf4  1  0.49999126  0.25003917  0.33368047  1
  Hf  Hf5  1  0.49999126  0.74996083  0.33368047  1
  Hf  Hf6  1  0.00000033  0.25121087  0.50196609  1
  Hf  Hf7  1  0.00000033  0.74879013  0.50196609  1
  Hf  Hf8  1  0.50000876  0.25151449  0.66824636  1
  Hf  Hf9  1  0.50000876  0.74848551  0.66824636  1
  Hf  Hf10  1  0.00001082  0.24848571  0.83174268  1
  Hf  Hf11  1  0.00001082  0.75151429  0.83174268  1
  Tc  Tc0  1  0.00000077  0.00000000  0.00152428  1
  Tc  Tc1  1  0.49998749  0.50000100  0.16707109  1
  Tc  Tc2  1  0.99999189  0.00000000  0.33294144  1
  Tc  Tc3  1  0.50000103  0.50000100  0.49847667  1
  Tc  Tc4  1  0.00001030  0.00000000  0.66554599  1
  Tc  Tc5  1  0.50001363  0.50000100  0.83443922  1
  Ru  Ru0  1  0.00001234  0.50000100  0.66615019  1
  Ru  Ru1  1  0.50001410  0.00000000  0.83383278  1
  Rh  Rh0  1  0.99999918  0.50000100  0.00065757  1
  Rh  Rh1  1  0.49998458  0.00000000  0.16697120  1
  Rh  Rh2  1  0.99999089  0.50000100  0.33305195  1
  Rh  Rh3  1  0.50000070  0.00000000  0.49934196  1
loop_
_geom_bond_atom_site_label_1
_geom_bond_atom_site_label_2
_geom_bond_distance
_geom_bond_site_symmetry_2
Hf0 Ru1 2.771682 1_555
Hf0 Tc5 2.774094 1_555
Hf0 Tc0 2.798878 1_556
Hf0 Tc0 2.798883 1_656
Hf0 Rh0 2.807772 1_556
Hf0 Rh0 2.807779 1_456
Hf0 Rh1 2.824873 1_556
Hf0 Tc1 2.834986 1_556
Hf1 Ru1 2.771682 1_565
Hf1 Tc5 2.774086 1_555
Hf1 Tc0 2.798878 1_566
Hf1 Tc0 2.798883 1_666
Hf1 Rh0 2.807764 1_556
Hf1 Rh0 2.807772 1_456
Hf1 Rh1 2.824873 1_566
Hf1 Tc1 2.834978 1_556
Hf2 Tc0 2.782860 1_655
Hf2 Rh0 2.792846 1_555
Hf2 Rh1 2.802850 1_655
Hf2 Rh1 2.802882 1_555
Hf2 Tc2 2.803074 1_555
Hf2 Tc1 2.803161 1_655
Hf2 Tc1 2.803171 1_555
Hf2 Rh2 2.804609 1_555
Hf3 Tc0 2.782860 1_665
Hf3 Rh0 2.792838 1_555
Hf3 Rh1 2.802850 1_665
Hf3 Rh1 2.802882 1_565
Hf3 Tc2 2.803074 1_565
Hf3 Tc1 2.803154 1_655
Hf3 Tc1 2.803163 1_555
Hf3 Rh2 2.804601 1_555
Hf4 Tc3 2.782761 1_555
Hf4 Rh3 2.792724 1_555
Hf4 Rh2 2.802867 1_555
Hf4 Rh2 2.802870 1_455
Hf4 Tc1 2.803050 1_555
Hf4 Tc2 2.803160 1_455
Hf4 Tc2 2.803165 1_555
Hf4 Rh1 2.804459 1_555
Hf5 Tc3 2.782753 1_555
Hf5 Rh3 2.792724 1_565
Hf5 Rh2 2.802860 1_555
Hf5 Rh2 2.802862 1_455
Hf5 Tc1 2.803043 1_555
Hf5 Tc2 2.803160 1_465
Hf5 Tc2 2.803165 1_565
Hf5 Rh1 2.804459 1_565
Hf6 Ru0 2.771508 1_555
Hf6 Tc4 2.773931 1_555
Hf6 Tc3 2.798885 1_455
Hf6 Tc3 2.798890 1_555
Hf6 Rh3 2.807767 1_455
Hf6 Rh3 2.807769 1_555
Hf6 Rh2 2.824610 1_455
Hf6 Tc2 2.834828 1_455
Hf7 Ru0 2.771504 1_555
Hf7 Tc4 2.773927 1_565
Hf7 Tc3 2.798881 1_455
Hf7 Tc3 2.798887 1_555
Hf7 Rh3 2.807763 1_465
Hf7 Rh3 2.807766 1_565
Hf7 Rh2 2.824606 1_455
Hf7 Tc2 2.834824 1_465
Hf8 Tc5 2.792864 1_555
Hf8 Ru1 2.797439 1_555
Hf8 Ru0 2.797480 1_555
Hf8 Ru0 2.797507 1_655
Hf8 Tc4 2.808916 1_555
Hf8 Tc4 2.808928 1_655
Hf8 Tc3 2.833149 1_555
Hf8 Rh3 2.834606 1_555
Hf9 Tc5 2.792857 1_555
Hf9 Ru1 2.797439 1_565
Hf9 Ru0 2.797473 1_555
Hf9 Ru0 2.797499 1_655
Hf9 Tc4 2.808916 1_565
Hf9 Tc4 2.808928 1_665
Hf9 Tc3 2.833142 1_555
Hf9 Rh3 2.834606 1_565
Hf10 Tc4 2.792904 1_555
Hf10 Ru1 2.797477 1_455
Hf10 Ru1 2.797502 1_555
Hf10 Ru0 2.797510 1_555
Hf10 Tc5 2.808914 1_455
Hf10 Tc5 2.808935 1_555
Hf10 Tc0 2.833281 1_556
Hf10 Rh0 2.834727 1_456
Hf11 Tc4 2.792904 1_565
Hf11 Ru1 2.797477 1_465
Hf11 Ru1 2.797502 1_565
Hf11 Ru0 2.797503 1_555
Hf11 Tc5 2.808906 1_455
Hf11 Tc5 2.808927 1_555
Hf11 Tc0 2.833281 1_566
Hf11 Rh0 2.834719 1_456
