# generated using pymatgen
data_Cs8Bi4Pb
_symmetry_space_group_name_H-M   'P 1'
_cell_length_a   12.78847760
_cell_length_b   12.78847779
_cell_length_c   12.78847702
_cell_angle_alpha   59.99999950
_cell_angle_beta   59.99999900
_cell_angle_gamma   60.00000128
_symmetry_Int_Tables_number   1
_chemical_formula_structural   Cs8Bi4Pb
_chemical_formula_sum   'Cs16 Bi8 Pb2'
_cell_volume   1478.90926453
_cell_formula_units_Z   2
loop_
 _symmetry_equiv_pos_site_id
 _symmetry_equiv_pos_as_xyz
  1  'x, y, z'
loop_
 _atom_site_type_symbol
 _atom_site_label
 _atom_site_symmetry_multiplicity
 _atom_site_fract_x
 _atom_site_fract_y
 _atom_site_fract_z
 _atom_site_occupancy
  Cs  Cs0  1  0.62500000  0.12500000  0.62500000  1
  Cs  Cs1  1  0.62500000  0.62500000  0.12500000  1
  Cs  Cs2  1  0.12500000  0.62500000  0.62500000  1
  Cs  Cs3  1  0.62500000  0.62500000  0.62500000  1
  Cs  Cs4  1  0.02266787  0.02266787  0.47733213  1
  Cs  Cs5  1  0.77266787  0.22733213  0.22733213  1
  Cs  Cs6  1  0.22733213  0.77266787  0.77266787  1
  Cs  Cs7  1  0.77266787  0.77266787  0.22733213  1
  Cs  Cs8  1  0.77266787  0.22733213  0.77266787  1
  Cs  Cs9  1  0.22733213  0.77266787  0.22733213  1
  Cs  Cs10  1  0.47733213  0.02266787  0.47733213  1
  Cs  Cs11  1  0.47733213  0.02266787  0.02266787  1
  Cs  Cs12  1  0.02266787  0.47733213  0.47733213  1
  Cs  Cs13  1  0.02266787  0.47733213  0.02266787  1
  Cs  Cs14  1  0.22733213  0.22733213  0.77266787  1
  Cs  Cs15  1  0.47733213  0.47733213  0.02266787  1
  Bi  Bi0  1  0.40005592  0.79983325  0.40005592  1
  Bi  Bi1  1  0.84994408  0.84994408  0.45016675  1
  Bi  Bi2  1  0.45016675  0.84994408  0.84994408  1
  Bi  Bi3  1  0.84994408  0.84994408  0.84994408  1
  Bi  Bi4  1  0.79983325  0.40005592  0.40005592  1
  Bi  Bi5  1  0.40005592  0.40005592  0.40005592  1
  Bi  Bi6  1  0.40005592  0.40005592  0.79983325  1
  Bi  Bi7  1  0.84994408  0.45016675  0.84994408  1
  Pb  Pb0  1  0.75000000  0.75000000  0.75000000  1
  Pb  Pb1  1  0.50000000  0.50000000  0.50000000  1
loop_
_geom_bond_atom_site_label_1
_geom_bond_atom_site_label_2
_geom_bond_distance
_geom_bond_site_symmetry_2
Cs0 Pb0 3.915656 1_545
Cs0 Pb1 3.915656 1_555
Cs1 Pb1 3.915655 1_555
Cs1 Pb0 3.915655 1_554
Cs2 Pb1 3.915656 1_555
Cs2 Pb0 3.915656 1_455
Cs3 Pb0 3.915656 1_555
Cs3 Pb1 3.915656 1_555
Bi0 Pb1 3.130783 1_555
Bi0 Cs6 4.036424 1_555
Bi0 Cs7 4.036424 1_555
Bi0 Cs9 4.036435 1_555
Bi0 Cs10 4.084507 1_565
Bi0 Cs11 4.084516 1_565
Bi0 Cs4 4.084516 1_565
Bi0 Cs3 4.118421 1_555
Bi0 Cs1 4.118431 1_555
Bi0 Cs2 4.118431 1_555
Bi1 Pb0 3.130783 1_555
Bi1 Cs10 4.036424 1_565
Bi1 Cs12 4.036424 1_655
Bi1 Cs4 4.036435 1_665
Bi1 Cs7 4.084507 1_555
Bi1 Cs9 4.084516 1_655
Bi1 Cs5 4.084516 1_565
Bi1 Cs3 4.118421 1_555
Bi1 Cs2 4.118431 1_655
Bi1 Cs0 4.118431 1_565
Bi2 Pb0 3.130783 1_555
Bi2 Cs10 4.036424 1_565
Bi2 Cs15 4.036424 1_556
Bi2 Cs11 4.036435 1_566
Bi2 Cs6 4.084507 1_555
Bi2 Cs9 4.084516 1_556
Bi2 Cs14 4.084516 1_565
Bi2 Cs3 4.118421 1_555
Bi2 Cs1 4.118431 1_556
Bi2 Cs0 4.118431 1_565
Bi3 Pb0 3.130773 1_555
Bi3 Cs4 4.036427 1_665
Bi3 Cs11 4.036427 1_566
Bi3 Cs13 4.036427 1_656
Bi3 Cs7 4.084519 1_556
Bi3 Cs6 4.084519 1_655
Bi3 Cs8 4.084519 1_565
Bi3 Cs1 4.118423 1_556
Bi3 Cs2 4.118423 1_655
Bi3 Cs0 4.118423 1_565
Bi4 Pb1 3.130783 1_555
Bi4 Cs8 4.036424 1_555
Bi4 Cs7 4.036424 1_555
Bi4 Cs5 4.036435 1_555
Bi4 Cs12 4.084507 1_655
Bi4 Cs13 4.084516 1_655
Bi4 Cs4 4.084516 1_655
Bi4 Cs3 4.118421 1_555
Bi4 Cs1 4.118431 1_555
Bi4 Cs0 4.118431 1_555
Bi5 Pb1 3.130773 1_555
Bi5 Cs14 4.036427 1_555
Bi5 Cs5 4.036427 1_555
Bi5 Cs9 4.036427 1_555
Bi5 Cs15 4.084519 1_555
Bi5 Cs12 4.084519 1_555
Bi5 Cs10 4.084519 1_555
Bi5 Cs1 4.118423 1_555
Bi5 Cs2 4.118423 1_555
Bi5 Cs0 4.118423 1_555
Bi6 Pb1 3.130783 1_555
Bi6 Cs8 4.036424 1_555
Bi6 Cs6 4.036424 1_555
Bi6 Cs14 4.036435 1_555
Bi6 Cs15 4.084507 1_556
Bi6 Cs13 4.084516 1_556
Bi6 Cs11 4.084516 1_556
Bi6 Cs3 4.118421 1_555
Bi6 Cs2 4.118431 1_555
Bi6 Cs0 4.118431 1_555
Bi7 Pb0 3.130783 1_555
Bi7 Cs12 4.036424 1_655
Bi7 Cs15 4.036424 1_556
Bi7 Cs13 4.036435 1_656
Bi7 Cs8 4.084507 1_555
Bi7 Cs5 4.084516 1_556
Bi7 Cs14 4.084516 1_655
Bi7 Cs3 4.118421 1_555
Bi7 Cs1 4.118431 1_556
Bi7 Cs2 4.118431 1_655
