# generated using pymatgen
data_Ba(CO)4
_symmetry_space_group_name_H-M   'P 1'
_cell_length_a   7.76092570
_cell_length_b   7.76092570
_cell_length_c   7.76092570
_cell_angle_alpha   130.78183265
_cell_angle_beta   130.78183265
_cell_angle_gamma   72.15993113
_symmetry_Int_Tables_number   1
_chemical_formula_structural   Ba(CO)4
_chemical_formula_sum   'Ba2 C8 O8'
_cell_volume   262.05391180
_cell_formula_units_Z   2
loop_
 _symmetry_equiv_pos_site_id
 _symmetry_equiv_pos_as_xyz
  1  'x, y, z'
loop_
 _atom_site_type_symbol
 _atom_site_label
 _atom_site_symmetry_multiplicity
 _atom_site_fract_x
 _atom_site_fract_y
 _atom_site_fract_z
 _atom_site_occupancy
  Ba  Ba0  1  0.75000000  0.75000000  0.00000000  1
  Ba  Ba1  1  0.25000000  0.25000000  0.00000000  1
  C  C0  1  0.63919800  0.97827900  0.50000000  1
  C  C1  1  0.36080200  0.02172100  0.50000000  1
  C  C2  1  0.02172100  0.52172100  0.66091900  1
  C  C3  1  0.97827900  0.47827900  0.33908100  1
  C  C4  1  0.13919800  0.63919800  0.66091900  1
  C  C5  1  0.47827900  0.13919800  0.50000000  1
  C  C6  1  0.52172100  0.86080200  0.50000000  1
  C  C7  1  0.86080200  0.36080200  0.33908100  1
  O  O0  1  0.19161600  0.04683100  0.50000000  1
  O  O1  1  0.80838400  0.95316900  0.50000000  1
  O  O2  1  0.04683100  0.54683100  0.85521600  1
  O  O3  1  0.95316900  0.45316900  0.14478400  1
  O  O4  1  0.30838400  0.80838400  0.85521600  1
  O  O5  1  0.45316900  0.30838400  0.50000000  1
  O  O6  1  0.54683100  0.69161600  0.50000000  1
  O  O7  1  0.69161600  0.19161600  0.14478400  1
loop_
_geom_bond_atom_site_label_1
_geom_bond_atom_site_label_2
_geom_bond_distance
_geom_bond_site_symmetry_2
Ba0 O3 2.810190 1_555
Ba0 O2 2.810190 1_654
Ba0 O0 2.810195 1_665
Ba0 O6 2.810195 1_554
Ba0 O5 2.810195 1_554
Ba0 O1 2.810195 1_555
Ba0 O7 2.810197 1_565
Ba0 O4 2.810197 1_554
Ba1 O2 2.810190 1_554
Ba1 O3 2.810190 1_455
Ba1 O0 2.810195 1_554
Ba1 O6 2.810195 1_555
Ba1 O5 2.810195 1_555
Ba1 O1 2.810195 1_444
Ba1 O4 2.810197 1_544
Ba1 O7 2.810197 1_555
C0 O1 1.266991 1_555
C1 O0 1.266991 1_555
C2 O2 1.266999 1_555
C3 O3 1.266999 1_555
C4 O4 1.266990 1_555
C5 O5 1.266991 1_555
C6 O6 1.266991 1_555
C7 O7 1.266990 1_555
