# generated using pymatgen
data_V6O11
_symmetry_space_group_name_H-M   'P 1'
_cell_length_a   5.45854454
_cell_length_b   7.00388702
_cell_length_c   9.59437048
_cell_angle_alpha   89.95880367
_cell_angle_beta   100.45651499
_cell_angle_gamma   109.12871970
_symmetry_Int_Tables_number   1
_chemical_formula_structural   V6O11
_chemical_formula_sum   'V12 O22'
_cell_volume   340.11230076
_cell_formula_units_Z   2
loop_
 _symmetry_equiv_pos_site_id
 _symmetry_equiv_pos_as_xyz
  1  'x, y, z'
loop_
 _atom_site_type_symbol
 _atom_site_label
 _atom_site_symmetry_multiplicity
 _atom_site_fract_x
 _atom_site_fract_y
 _atom_site_fract_z
 _atom_site_occupancy
  V  V0  1  0.77092418  0.36348436  0.41495109  1
  V  V1  1  0.22907582  0.63651564  0.58504891  1
  V  V2  1  0.67906165  0.91654655  0.75504993  1
  V  V3  1  0.32093835  0.08345345  0.24495007  1
  V  V4  1  0.22467677  0.13562914  0.58161647  1
  V  V5  1  0.77532323  0.86437086  0.41838353  1
  V  V6  1  0.69217506  0.42660270  0.75623253  1
  V  V7  1  0.30782494  0.57339730  0.24376747  1
  V  V8  1  0.17724997  0.19799819  0.93255666  1
  V  V9  1  0.82275003  0.80200181  0.06744334  1
  V  V10  1  0.17982072  0.69809039  0.93628605  1
  V  V11  1  0.82017928  0.30190961  0.06371395  1
  O  O0  1  0.13074821  0.01959493  0.39061633  1
  O  O1  1  0.86925179  0.98040507  0.60938367  1
  O  O2  1  0.64164702  0.07627085  0.34838747  1
  O  O3  1  0.35835298  0.92372915  0.65161253  1
  O  O4  1  0.90086413  0.64404013  0.47192764  1
  O  O5  1  0.09913587  0.35595987  0.52807236  1
  O  O6  1  0.94592111  0.42317764  0.24643034  1
  O  O7  1  0.05407889  0.57682236  0.75356966  1
  O  O8  1  0.21006807  0.45698318  0.03203200  1
  O  O9  1  0.78993193  0.54301682  0.96796800  1
  O  O10  1  0.81339906  0.20061704  0.85505356  1
  O  O11  1  0.18660094  0.79938296  0.14494644  1
  O  O12  1  0.58965029  0.29939368  0.57410835  1
  O  O13  1  0.41034971  0.70060632  0.42589165  1
  O  O14  1  0.33537390  0.25836739  0.78692934  1
  O  O15  1  0.66462610  0.74163261  0.21307066  1
  O  O16  1  0.00807241  0.90329819  0.89066761  1
  O  O17  1  0.99192759  0.09670181  0.10933239  1
  O  O18  1  0.43730329  0.36559359  0.29643257  1
  O  O19  1  0.56269671  0.63440641  0.70356743  1
  O  O20  1  0.48239521  0.18087259  0.06635260  1
  O  O21  1  0.51760479  0.81912741  0.93364740  1
loop_
_geom_bond_atom_site_label_1
_geom_bond_atom_site_label_2
_geom_bond_distance
_geom_bond_site_symmetry_2
O0 V3 1.858084 1_555
O0 V4 1.915597 1_555
O0 V5 1.954932 1_445
O1 V2 1.858084 1_555
O1 V5 1.915597 1_555
O1 V4 1.954932 1_665
O2 V3 1.865225 1_555
O2 V5 1.927819 1_545
O2 V0 1.964773 1_555
O3 V2 1.865225 1_555
O3 V4 1.927819 1_565
O3 V1 1.964773 1_555
O4 V0 1.900117 1_555
O4 V5 1.918078 1_555
O4 V1 1.935563 1_655
O5 V1 1.900117 1_555
O5 V4 1.918078 1_555
O5 V0 1.935563 1_455
O6 V11 1.857148 1_555
O6 V7 1.914732 1_655
O6 V0 1.999840 1_555
O7 V10 1.857148 1_555
O7 V6 1.914732 1_455
O7 V1 1.999840 1_555
O8 V10 1.961693 1_554
O8 V8 1.990147 1_554
O8 V7 2.097657 1_555
O8 V11 2.126220 1_455
O9 V11 1.961693 1_556
O9 V9 1.990147 1_556
O9 V6 2.097657 1_555
O9 V10 2.126220 1_655
O10 V8 1.996406 1_655
O10 V2 2.051339 1_545
O10 V6 2.073284 1_555
O10 V11 2.114351 1_556
O11 V9 1.996406 1_455
O11 V3 2.051339 1_565
O11 V7 2.073284 1_555
O11 V10 2.114351 1_554
O12 V6 1.865688 1_555
O12 V0 1.941320 1_555
O12 V4 1.960641 1_555
O13 V7 1.865688 1_555
O13 V1 1.941320 1_555
O13 V5 1.960641 1_555
O14 V8 1.753182 1_555
O14 V6 1.992993 1_555
O14 V4 2.052892 1_555
O15 V9 1.753182 1_555
O15 V7 1.992993 1_555
O15 V5 2.052892 1_555
O16 V10 1.967076 1_555
O16 V8 1.972780 1_565
O16 V2 2.046414 1_455
O16 V9 2.133993 1_456
O17 V11 1.967076 1_555
O17 V9 1.972780 1_545
O17 V3 2.046414 1_655
O17 V8 2.133993 1_654
O18 V7 1.848403 1_555
O18 V3 1.901900 1_555
O18 V0 1.968641 1_555
O19 V6 1.848403 1_555
O19 V2 1.901900 1_555
O19 V1 1.968641 1_555
O20 V11 1.763926 1_555
O20 V8 1.947109 1_554
O20 V3 2.081065 1_555
O21 V10 1.763926 1_555
O21 V9 1.947109 1_556
O21 V2 2.081065 1_555
