# generated using pymatgen
data_Nb3Mo(PO4)6
_symmetry_space_group_name_H-M   'P 1'
_cell_length_a   8.73480724
_cell_length_b   8.97975470
_cell_length_c   8.73473687
_cell_angle_alpha   89.99860536
_cell_angle_beta   59.99993688
_cell_angle_gamma   119.10092378
_symmetry_Int_Tables_number   1
_chemical_formula_structural   Nb3Mo(PO4)6
_chemical_formula_sum   'Nb3 Mo1 P6 O24'
_cell_volume   490.92742849
_cell_formula_units_Z   1
loop_
 _symmetry_equiv_pos_site_id
 _symmetry_equiv_pos_as_xyz
  1  'x, y, z'
loop_
 _atom_site_type_symbol
 _atom_site_label
 _atom_site_symmetry_multiplicity
 _atom_site_fract_x
 _atom_site_fract_y
 _atom_site_fract_z
 _atom_site_occupancy
  Nb  Nb0  1  0.28307655  0.92452982  0.35844468  1
  Nb  Nb1  1  0.28079843  0.42106533  0.85957895  1
  Nb  Nb2  1  0.71713925  0.57560606  0.14138655  1
  Mo  Mo0  1  0.71547814  0.07313836  0.64222295  1
  P  P0  1  0.78253036  0.75273285  0.75082578  1
  P  P1  1  0.49813416  0.24824220  0.53409667  1
  P  P2  1  0.50374387  0.75277115  0.46654468  1
  P  P3  1  0.21606876  0.24827509  0.24979347  1
  P  P4  1  0.78244967  0.24825041  0.96770409  1
  P  P5  1  0.21944183  0.75275015  0.02965402  1
  O  O0  1  0.65884543  0.91477668  0.48168191  1
  O  O1  1  0.00630949  0.72077699  0.08436412  1
  O  O2  1  0.21403518  0.58234335  0.00080357  1
  O  O3  1  0.23113555  0.77873949  0.19893205  1
  O  O4  1  0.98551702  0.27076595  0.93150499  1
  O  O5  1  0.79150218  0.41722547  0.00875122  1
  O  O6  1  0.77261228  0.23131610  0.80265079  1
  O  O7  1  0.80533553  0.72083728  0.90924602  1
  O  O8  1  0.97778436  0.77863680  0.56985250  1
  O  O9  1  0.65615136  0.23140468  0.54118158  1
  O  O10  1  0.77420070  0.91468924  0.74393445  1
  O  O11  1  0.58323632  0.58227431  0.78518886  1
  O  O12  1  0.59197794  0.08502587  0.14467991  1
  O  O13  1  0.61695563  0.41718342  0.37416663  1
  O  O14  1  0.20233902  0.27069618  0.08294897  1
  O  O15  1  0.35374748  0.27072586  0.71465785  1
  O  O16  1  0.63021826  0.72081436  0.28535980  1
  O  O17  1  0.34843160  0.08497363  0.50688798  1
  O  O18  1  0.39656930  0.91469151  0.85931566  1
  O  O19  1  0.36767013  0.58237812  0.63156809  1
  O  O20  1  0.22979604  0.08504305  0.26336293  1
  O  O21  1  0.42612873  0.41727321  0.19961447  1
  O  O22  1  0.34864715  0.77864221  0.45228211  1
  O  O23  1  0.03412426  0.23140081  0.42468066  1
loop_
_geom_bond_atom_site_label_1
_geom_bond_atom_site_label_2
_geom_bond_distance
_geom_bond_site_symmetry_2
Nb0 O8 1.978582 1_455
Nb0 O22 1.978707 1_555
Nb0 O3 1.978764 1_555
Nb0 O20 2.005703 1_565
Nb0 O12 2.005753 1_565
Nb0 O17 2.005768 1_565
Nb1 O15 1.964980 1_555
Nb1 O4 1.965247 1_455
Nb1 O14 1.965262 1_556
Nb1 O19 2.014958 1_555
Nb1 O11 2.014986 1_555
Nb1 O2 2.015282 1_556
Nb2 O7 1.966293 1_554
Nb2 O16 1.966321 1_555
Nb2 O1 1.966331 1_655
Nb2 O5 1.983167 1_555
Nb2 O21 1.983241 1_555
Nb2 O13 1.983284 1_555
Mo0 O6 2.059158 1_555
Mo0 O23 2.059302 1_655
Mo0 O9 2.059349 1_555
Mo0 O18 2.059666 1_545
Mo0 O10 2.059704 1_545
Mo0 O0 2.059819 1_545
O0 P2 1.493761 1_555
O1 P5 1.538519 1_555
O2 P5 1.532615 1_555
O3 P5 1.542404 1_555
O4 P4 1.541875 1_555
O5 P4 1.532592 1_554
O6 P4 1.490027 1_555
O7 P0 1.538708 1_555
O8 P0 1.542642 1_555
O9 P1 1.490029 1_555
O10 P0 1.493750 1_555
O11 P0 1.532662 1_555
O12 P4 1.536875 1_554
O13 P1 1.532513 1_555
O14 P3 1.541756 1_555
O15 P1 1.541875 1_555
O16 P2 1.538649 1_555
O17 P1 1.536831 1_555
O18 P5 1.493854 1_556
O19 P2 1.532735 1_555
O20 P3 1.536915 1_555
O21 P3 1.532651 1_555
O22 P2 1.542633 1_555
O23 P3 1.490045 1_555
