# generated using pymatgen
data_Ti8Ir3PdO2
_symmetry_space_group_name_H-M   'P 1'
_cell_length_a   8.22472420
_cell_length_b   8.22472366
_cell_length_c   8.21756826
_cell_angle_alpha   60.02877872
_cell_angle_beta   60.02878091
_cell_angle_gamma   60.10563103
_symmetry_Int_Tables_number   1
_chemical_formula_structural   Ti8Ir3PdO2
_chemical_formula_sum   'Ti16 Ir6 Pd2 O4'
_cell_volume   393.55512161
_cell_formula_units_Z   2
loop_
 _symmetry_equiv_pos_site_id
 _symmetry_equiv_pos_as_xyz
  1  'x, y, z'
loop_
 _atom_site_type_symbol
 _atom_site_label
 _atom_site_symmetry_multiplicity
 _atom_site_fract_x
 _atom_site_fract_y
 _atom_site_fract_z
 _atom_site_occupancy
  Ti  Ti0  1  0.13099206  0.61956603  0.62472095  1
  Ti  Ti1  1  0.61956603  0.13099206  0.62472095  1
  Ti  Ti2  1  0.62412417  0.62412417  0.12456750  1
  Ti  Ti3  1  0.62412417  0.62412417  0.62718515  1
  Ti  Ti4  1  0.82049769  0.82049769  0.17950231  1
  Ti  Ti5  1  0.18194508  0.18194508  0.81805492  1
  Ti  Ti6  1  0.81835664  0.18154066  0.81880821  1
  Ti  Ti7  1  0.18154066  0.81835664  0.18129450  1
  Ti  Ti8  1  0.18154066  0.81835664  0.81880821  1
  Ti  Ti9  1  0.81835664  0.18154066  0.18129450  1
  Ti  Ti10  1  0.43434579  0.43434579  0.06565421  1
  Ti  Ti11  1  0.06343907  0.06343907  0.43656093  1
  Ti  Ti12  1  0.43390837  0.06903575  0.43392304  1
  Ti  Ti13  1  0.06903575  0.43390837  0.06313384  1
  Ti  Ti14  1  0.06903575  0.43390837  0.43392304  1
  Ti  Ti15  1  0.43390837  0.06903575  0.06313384  1
  Ir  Ir0  1  0.40486613  0.40486613  0.78601919  1
  Ir  Ir1  1  0.40486613  0.40486613  0.40425056  1
  Ir  Ir2  1  0.47993858  0.84186866  0.83909588  1
  Ir  Ir3  1  0.84186866  0.47993858  0.83909588  1
  Ir  Ir4  1  0.84180083  0.84180083  0.47962589  1
  Ir  Ir5  1  0.84180083  0.84180083  0.83677146  1
  Pd  Pd0  1  0.77253284  0.41017444  0.40864636  1
  Pd  Pd1  1  0.41017444  0.77253284  0.40864636  1
  O  O0  1  0.62421820  0.12397687  0.12590297  1
  O  O1  1  0.12397687  0.62421820  0.12590297  1
  O  O2  1  0.12462081  0.12462081  0.62424054  1
  O  O3  1  0.12462081  0.12462081  0.12651784  1
loop_
_geom_bond_atom_site_label_1
_geom_bond_atom_site_label_2
_geom_bond_distance
_geom_bond_site_symmetry_2
Ir0 Ti15 2.544283 1_556
Ir0 Ti13 2.544283 1_556
Ir0 Ti10 2.563193 1_556
Ir0 Ti1 2.574616 1_555
Ir0 Ti0 2.574616 1_555
Ir0 Ti3 2.597280 1_555
Ir1 Ti12 2.544286 1_555
Ir1 Ti14 2.544286 1_555
Ir1 Ti10 2.563209 1_555
Ir1 Ti1 2.574606 1_555
Ir1 Ti0 2.574606 1_555
Ir1 Ti2 2.597282 1_555
Ir2 Ti3 2.565477 1_555
Ir2 Ti2 2.565490 1_556
Ir2 Ti1 2.567535 1_565
Ir2 Ti5 2.639526 1_565
Ir2 Ti8 2.646240 1_555
Ir2 Ti7 2.646245 1_556
Ir3 Ti3 2.565477 1_555
Ir3 Ti2 2.565490 1_556
Ir3 Ti0 2.567535 1_655
Ir3 Ti5 2.639526 1_655
Ir3 Ti6 2.646240 1_555
Ir3 Ti9 2.646245 1_556
Ir4 Ti3 2.595747 1_555
Ir4 Ti1 2.596604 1_565
Ir4 Ti0 2.596604 1_655
Ir4 Ti9 2.635550 1_565
Ir4 Ti7 2.635550 1_655
Ir4 Ti4 2.652935 1_555
Ir5 Ti2 2.595750 1_556
Ir5 Ti1 2.596599 1_565
Ir5 Ti0 2.596599 1_655
Ir5 Ti6 2.635554 1_565
Ir5 Ti8 2.635554 1_655
Ir5 Ti4 2.652943 1_556
Pd0 Ti1 2.565584 1_555
Pd0 Ti2 2.576362 1_555
Pd0 Ti3 2.576368 1_555
Pd0 Ti11 2.646378 1_655
Pd0 Ti13 2.655069 1_655
Pd0 Ti14 2.655073 1_655
Pd1 Ti0 2.565584 1_555
Pd1 Ti2 2.576362 1_555
Pd1 Ti3 2.576369 1_555
Pd1 Ti11 2.646378 1_565
Pd1 Ti15 2.655068 1_565
Pd1 Ti12 2.655073 1_565
O0 Ti4 2.150744 1_545
O0 Ti15 2.159821 1_555
O0 Ti12 2.159821 1_555
O0 Ti9 2.162395 1_555
O0 Ti6 2.162401 1_554
O0 Ti10 2.176285 1_555
O1 Ti4 2.150744 1_455
O1 Ti13 2.159821 1_555
O1 Ti14 2.159821 1_555
O1 Ti7 2.162395 1_555
O1 Ti8 2.162401 1_554
O1 Ti10 2.176285 1_555
O2 Ti8 2.160796 1_545
O2 Ti6 2.160796 1_455
O2 Ti11 2.165231 1_555
O2 Ti5 2.168713 1_555
O2 Ti14 2.169354 1_555
O2 Ti12 2.169354 1_555
O3 Ti7 2.160796 1_545
O3 Ti9 2.160796 1_455
O3 Ti11 2.165231 1_555
O3 Ti5 2.168713 1_554
O3 Ti13 2.169355 1_555
O3 Ti15 2.169356 1_555
