# generated using pymatgen
data_Ti8Nb4Sn3Bi
_symmetry_space_group_name_H-M   'P 1'
_cell_length_a   7.50259504
_cell_length_b   7.50274802
_cell_length_c   6.27828775
_cell_angle_alpha   65.33089318
_cell_angle_beta   65.33080400
_cell_angle_gamma   81.30336386
_symmetry_Int_Tables_number   1
_chemical_formula_structural   Ti8Nb4Sn3Bi
_chemical_formula_sum   'Ti8 Nb4 Sn3 Bi1'
_cell_volume   291.72736876
_cell_formula_units_Z   1
loop_
 _symmetry_equiv_pos_site_id
 _symmetry_equiv_pos_as_xyz
  1  'x, y, z'
loop_
 _atom_site_type_symbol
 _atom_site_label
 _atom_site_symmetry_multiplicity
 _atom_site_fract_x
 _atom_site_fract_y
 _atom_site_fract_z
 _atom_site_occupancy
  Ti  Ti0  1  0.22399167  0.52041400  0.12515424  1
  Ti  Ti1  1  0.72956451  0.02602946  0.12484109  1
  Ti  Ti2  1  0.77482529  0.47478268  0.37925238  1
  Ti  Ti3  1  0.27092737  0.97966151  0.37786627  1
  Ti  Ti4  1  0.72896971  0.02546983  0.62033956  1
  Ti  Ti5  1  0.22447726  0.52104891  0.62967812  1
  Ti  Ti6  1  0.27037908  0.97906356  0.87211096  1
  Ti  Ti7  1  0.77518924  0.47520602  0.87074212  1
  Nb  Nb0  1  0.00752671  0.24251740  0.12497574  1
  Nb  Nb1  1  0.49274752  0.25520418  0.37587395  1
  Nb  Nb2  1  0.50745503  0.74259507  0.62499536  1
  Nb  Nb3  1  0.99486602  0.75720745  0.87409166  1
  Sn  Sn0  1  0.96893076  0.78249310  0.37438397  1
  Sn  Sn1  1  0.03168875  0.21829177  0.62502636  1
  Sn  Sn2  1  0.46750199  0.28107940  0.87554490  1
  Bi  Bi0  1  0.53096009  0.71893566  0.12511931  1
loop_
_geom_bond_atom_site_label_1
_geom_bond_atom_site_label_2
_geom_bond_distance
_geom_bond_site_symmetry_2
Ti0 Ti2 3.069823 1_455
Ti0 Ti5 3.107238 1_554
Ti0 Ti6 3.134255 1_554
Ti0 Ti5 3.171059 1_555
Ti1 Ti7 3.069952 1_554
Ti1 Ti4 3.107272 1_555
Ti1 Ti3 3.134096 1_545
Ti1 Ti4 3.171026 1_554
Ti2 Ti4 3.070873 1_555
Ti2 Ti7 3.088182 1_555
Ti2 Ti7 3.190111 1_554
Ti3 Ti6 3.099426 1_555
Ti3 Ti5 3.134028 1_555
Ti3 Ti6 3.178871 1_554
Ti4 Ti6 3.133792 1_545
Ti5 Ti7 3.070635 1_455
Nb0 Ti2 2.776509 1_455
Nb0 Ti7 2.776730 1_454
Nb0 Ti0 2.830577 1_555
Nb0 Ti1 2.830937 1_455
Nb0 Ti5 2.839924 1_554
Nb0 Ti4 2.840379 1_455
Nb0 Ti3 3.023626 1_545
Nb0 Ti6 3.023856 1_544
Nb0 Sn2 3.139743 1_554
Nb0 Sn0 3.140154 1_445
Nb0 Sn1 3.147923 1_554
Nb0 Sn1 3.148157 1_555
Nb1 Ti1 2.756446 1_555
Nb1 Ti4 2.757923 1_555
Nb1 Ti3 2.836391 1_545
Nb1 Ti6 2.846135 1_545
Nb1 Ti2 2.883450 1_555
Nb1 Ti7 2.889756 1_554
Nb1 Ti0 3.053591 1_555
Nb1 Ti5 3.054550 1_555
Nb1 Sn1 3.146498 1_555
Nb1 Sn2 3.148981 1_555
Nb1 Sn2 3.149166 1_554
Nb2 Ti6 2.785364 1_555
Nb2 Ti3 2.785719 1_555
Nb2 Ti4 2.870802 1_565
Nb2 Ti5 2.871496 1_555
Nb2 Ti1 2.879032 1_565
Nb2 Ti0 2.879246 1_556
Nb2 Ti7 3.037210 1_555
Nb2 Ti2 3.037617 1_555
Nb2 Sn0 3.150456 1_555
Nb2 Sn2 3.150814 1_555
Nb3 Ti0 2.756202 1_656
Nb3 Ti5 2.757109 1_655
Nb3 Ti6 2.836426 1_655
Nb3 Ti3 2.846027 1_655
Nb3 Ti7 2.883396 1_555
Nb3 Ti2 2.889884 1_556
Nb3 Ti1 3.054320 1_566
Nb3 Ti4 3.054645 1_565
Nb3 Sn1 3.146705 1_665
Nb3 Sn0 3.148915 1_556
Nb3 Sn0 3.149310 1_555
Sn0 Ti1 2.825784 1_565
Sn0 Ti4 2.825898 1_565
Sn0 Ti2 2.893504 1_555
Sn0 Ti7 2.893824 1_555
Sn0 Ti3 2.899037 1_655
Sn0 Ti6 2.899520 1_654
Sn0 Ti5 2.982622 1_655
Sn0 Ti0 2.984570 1_655
Sn1 Ti3 2.803106 1_545
Sn1 Ti6 2.803154 1_545
Sn1 Ti5 2.887375 1_555
Sn1 Ti4 2.887382 1_455
Sn1 Ti1 2.887631 1_456
Sn1 Ti0 2.887889 1_555
Sn1 Ti2 2.946215 1_455
Sn1 Ti7 2.946354 1_455
Sn2 Ti0 2.825782 1_556
Sn2 Ti5 2.825876 1_555
Sn2 Ti7 2.893647 1_555
Sn2 Ti2 2.893653 1_555
Sn2 Ti6 2.898801 1_545
Sn2 Ti3 2.899615 1_546
Sn2 Ti4 2.982763 1_555
Sn2 Ti1 2.984653 1_556
Bi0 Ti2 2.869202 1_555
Bi0 Ti7 2.869459 1_554
Bi0 Ti5 2.924448 1_555
Bi0 Ti4 2.925536 1_564
Bi0 Ti0 2.925615 1_555
Bi0 Ti1 2.926013 1_565
Bi0 Ti3 3.000584 1_555
Bi0 Ti6 3.000833 1_554
Bi0 Nb2 3.147304 1_555
Bi0 Nb2 3.147890 1_554
Bi0 Nb1 3.165196 1_555
Bi0 Nb3 3.166338 1_554
