# generated using pymatgen
data_Sr8CaPd6
_symmetry_space_group_name_H-M   'P 1'
_cell_length_a   8.07560564
_cell_length_b   8.07560551
_cell_length_c   8.07560545
_cell_angle_alpha   72.02783011
_cell_angle_beta   72.02783522
_cell_angle_gamma   72.02782535
_symmetry_Int_Tables_number   1
_chemical_formula_structural   Sr8CaPd6
_chemical_formula_sum   'Sr8 Ca1 Pd6'
_cell_volume   463.07646803
_cell_formula_units_Z   1
loop_
 _symmetry_equiv_pos_site_id
 _symmetry_equiv_pos_as_xyz
  1  'x, y, z'
loop_
 _atom_site_type_symbol
 _atom_site_label
 _atom_site_symmetry_multiplicity
 _atom_site_fract_x
 _atom_site_fract_y
 _atom_site_fract_z
 _atom_site_occupancy
  Sr  Sr0  1  0.79690004  0.79690004  0.79690004  1
  Sr  Sr1  1  0.20309996  0.20309996  0.20309996  1
  Sr  Sr2  1  0.32367739  0.61496372  0.84138084  1
  Sr  Sr3  1  0.84138084  0.32367739  0.61496372  1
  Sr  Sr4  1  0.61496272  0.84138084  0.32367739  1
  Sr  Sr5  1  0.67632261  0.38503628  0.15861916  1
  Sr  Sr6  1  0.15861916  0.67632261  0.38503628  1
  Sr  Sr7  1  0.38503628  0.15861916  0.67632261  1
  Ca  Ca0  1  0.00000000  0.00000000  0.00000000  1
  Pd  Pd0  1  0.13935405  0.96302241  0.59232938  1
  Pd  Pd1  1  0.59232938  0.13935405  0.96302241  1
  Pd  Pd2  1  0.96302241  0.59232938  0.13935405  1
  Pd  Pd3  1  0.86064595  0.03697759  0.40767062  1
  Pd  Pd4  1  0.40767062  0.86064595  0.03697759  1
  Pd  Pd5  1  0.03697759  0.40767062  0.86064595  1
loop_
_geom_bond_atom_site_label_1
_geom_bond_atom_site_label_2
_geom_bond_distance
_geom_bond_site_symmetry_2
Ca0 Pd4 3.210463 1_545
Ca0 Pd1 3.210463 1_454
Ca0 Pd5 3.210464 1_554
Ca0 Pd2 3.210464 1_445
Ca0 Pd3 3.210464 1_455
Ca0 Pd0 3.210464 1_544
Ca0 Sr0 3.612562 1_444
Ca0 Sr1 3.612562 1_555
Ca0 Sr6 3.676638 1_545
Ca0 Sr3 3.676638 1_454
Ca0 Sr5 3.676638 1_455
Ca0 Sr2 3.676638 1_544
Ca0 Sr7 3.676639 1_554
Ca0 Sr4 3.676645 1_445
Pd0 Pd3 2.887627 1_465
Pd0 Sr1 3.124194 1_565
Pd0 Sr2 3.152496 1_555
Pd0 Sr3 3.168374 1_465
Pd0 Sr6 3.193091 1_555
Pd0 Sr0 3.206163 1_455
Pd0 Sr7 3.212026 1_565
Pd0 Sr4 3.777352 1_555
Pd1 Pd4 2.887627 1_546
Pd1 Sr1 3.124195 1_556
Pd1 Sr3 3.152496 1_555
Pd1 Sr4 3.168374 1_546
Pd1 Sr7 3.193091 1_555
Pd1 Sr0 3.206163 1_545
Pd1 Sr5 3.212026 1_556
Pd1 Sr2 3.777358 1_555
Pd2 Pd5 2.887627 1_654
Pd2 Sr1 3.124194 1_655
Pd2 Sr4 3.152500 1_555
Pd2 Sr2 3.168375 1_654
Pd2 Sr5 3.193091 1_555
Pd2 Sr0 3.206162 1_554
Pd2 Sr6 3.212026 1_655
Pd2 Sr3 3.777358 1_555
Pd3 Sr0 3.124194 1_545
Pd3 Sr5 3.152496 1_555
Pd3 Sr6 3.168374 1_645
Pd3 Sr3 3.193091 1_555
Pd3 Sr1 3.206163 1_655
Pd3 Sr4 3.212033 1_545
Pd3 Sr7 3.777358 1_555
Pd4 Sr0 3.124195 1_554
Pd4 Sr6 3.152496 1_555
Pd4 Sr7 3.168375 1_564
Pd4 Sr4 3.193085 1_555
Pd4 Sr1 3.206163 1_565
Pd4 Sr2 3.212026 1_554
Pd4 Sr5 3.777358 1_555
Pd5 Sr0 3.124194 1_455
Pd5 Sr7 3.152496 1_555
Pd5 Sr5 3.168375 1_456
Pd5 Sr2 3.193091 1_555
Pd5 Sr1 3.206162 1_556
Pd5 Sr3 3.212026 1_455
Pd5 Sr6 3.777358 1_555
