# generated using pymatgen
data_LiPdRhF6
_symmetry_space_group_name_H-M   'P 1'
_cell_length_a   5.11828335
_cell_length_b   5.11828339
_cell_length_c   9.30697253
_cell_angle_alpha   90.00000000
_cell_angle_beta   90.00000000
_cell_angle_gamma   119.99999369
_symmetry_Int_Tables_number   1
_chemical_formula_structural   LiPdRhF6
_chemical_formula_sum   'Li2 Pd2 Rh2 F12'
_cell_volume   211.14837555
_cell_formula_units_Z   2
loop_
 _symmetry_equiv_pos_site_id
 _symmetry_equiv_pos_as_xyz
  1  'x, y, z'
loop_
 _atom_site_type_symbol
 _atom_site_label
 _atom_site_symmetry_multiplicity
 _atom_site_fract_x
 _atom_site_fract_y
 _atom_site_fract_z
 _atom_site_occupancy
  Li  Li0  1  0.66666700  0.33333300  0.25000000  1
  Li  Li1  1  0.33333300  0.66666700  0.75000000  1
  Pd  Pd0  1  0.00000000  0.00000000  0.00000000  1
  Pd  Pd1  1  0.00000000  0.00000000  0.50000000  1
  Rh  Rh0  1  0.33333300  0.66666700  0.25000000  1
  Rh  Rh1  1  0.66666700  0.33333300  0.75000000  1
  F  F0  1  0.00091539  0.34994924  0.36603101  1
  F  F1  1  0.99908461  0.34903485  0.86603101  1
  F  F2  1  0.65096515  0.65005076  0.86603101  1
  F  F3  1  0.34994924  0.00091539  0.86603101  1
  F  F4  1  0.65005076  0.99908461  0.13396899  1
  F  F5  1  0.65005076  0.65096515  0.36603101  1
  F  F6  1  0.34903485  0.99908461  0.36603101  1
  F  F7  1  0.34903485  0.34994924  0.13396899  1
  F  F8  1  0.34994924  0.34903485  0.63396899  1
  F  F9  1  0.00091539  0.65096515  0.13396899  1
  F  F10  1  0.99908461  0.65005076  0.63396899  1
  F  F11  1  0.65096515  0.00091539  0.63396899  1
loop_
_geom_bond_atom_site_label_1
_geom_bond_atom_site_label_2
_geom_bond_distance
_geom_bond_site_symmetry_2
F0 Rh0 1.982601 1_555
F0 Li0 1.988637 1_455
F0 Pd1 2.180467 1_555
F1 Rh1 1.982596 1_555
F1 Li1 1.988637 1_655
F1 Pd0 2.180471 1_656
F2 Rh1 1.982605 1_555
F2 Li1 1.988637 1_555
F2 Pd0 2.180469 1_666
F3 Rh1 1.982601 1_555
F3 Li1 1.988637 1_545
F3 Pd0 2.180467 1_556
F4 Rh0 1.982601 1_555
F4 Li0 1.988637 1_565
F4 Pd0 2.180467 1_665
F5 Rh0 1.982605 1_555
F5 Li0 1.988637 1_555
F5 Pd1 2.180469 1_665
F6 Rh0 1.982596 1_555
F6 Li0 1.988637 1_565
F6 Pd1 2.180471 1_565
F7 Rh0 1.982605 1_555
F7 Li0 1.988637 1_555
F7 Pd0 2.180469 1_555
F8 Rh1 1.982605 1_555
F8 Li1 1.988637 1_555
F8 Pd1 2.180469 1_555
F9 Rh0 1.982596 1_555
F9 Li0 1.988637 1_455
F9 Pd0 2.180471 1_565
F10 Rh1 1.982601 1_555
F10 Li1 1.988637 1_655
F10 Pd1 2.180467 1_665
F11 Rh1 1.982596 1_555
F11 Li1 1.988637 1_545
F11 Pd1 2.180471 1_655
