# generated using pymatgen
data_Sr5ReSnN7
_symmetry_space_group_name_H-M   'P 1'
_cell_length_a   6.46610708
_cell_length_b   9.30168113
_cell_length_c   9.45932753
_cell_angle_alpha   113.49712291
_cell_angle_beta   99.25020020
_cell_angle_gamma   89.63794402
_symmetry_Int_Tables_number   1
_chemical_formula_structural   Sr5ReSnN7
_chemical_formula_sum   'Sr10 Re2 Sn2 N14'
_cell_volume   513.92626188
_cell_formula_units_Z   2
loop_
 _symmetry_equiv_pos_site_id
 _symmetry_equiv_pos_as_xyz
  1  'x, y, z'
loop_
 _atom_site_type_symbol
 _atom_site_label
 _atom_site_symmetry_multiplicity
 _atom_site_fract_x
 _atom_site_fract_y
 _atom_site_fract_z
 _atom_site_occupancy
  Sr  Sr0  1  0.84931005  0.59948228  0.35032040  1
  Sr  Sr1  1  0.26515843  0.98041772  0.55965461  1
  Sr  Sr2  1  0.70235795  0.41381527  0.85262995  1
  Sr  Sr3  1  0.29764205  0.58618473  0.14737005  1
  Sr  Sr4  1  0.38455520  0.78351356  0.89944595  1
  Sr  Sr5  1  0.61544480  0.21648644  0.10055405  1
  Sr  Sr6  1  0.15068995  0.40051772  0.64967960  1
  Sr  Sr7  1  0.87649028  0.84383538  0.75896121  1
  Sr  Sr8  1  0.12350972  0.15616462  0.24103879  1
  Sr  Sr9  1  0.73484157  0.01958228  0.44034539  1
  Re  Re0  1  0.12809813  0.22000180  0.91285211  1
  Re  Re1  1  0.87190187  0.77999820  0.08714789  1
  Sn  Sn0  1  0.59049346  0.35271696  0.47781494  1
  Sn  Sn1  1  0.40950654  0.64728304  0.52218506  1
  N  N0  1  0.54845164  0.55418022  0.68285817  1
  N  N1  1  0.45154836  0.44581978  0.31714183  1
  N  N2  1  0.13294339  0.71418054  0.59643686  1
  N  N3  1  0.86705661  0.28581946  0.40356314  1
  N  N4  1  0.40231159  0.18005863  0.48254284  1
  N  N5  1  0.59768841  0.81994137  0.51745716  1
  N  N6  1  0.96360738  0.15633536  0.71955130  1
  N  N7  1  0.03639262  0.84366464  0.28044870  1
  N  N8  1  0.23165397  0.05607230  0.95766886  1
  N  N9  1  0.76834603  0.94392770  0.04233114  1
  N  N10  1  0.35578255  0.33628592  0.91454843  1
  N  N11  1  0.97411188  0.33937205  0.06087826  1
  N  N12  1  0.02588812  0.66062795  0.93912174  1
  N  N13  1  0.64421745  0.66371408  0.08545157  1
loop_
_geom_bond_atom_site_label_1
_geom_bond_atom_site_label_2
_geom_bond_distance
_geom_bond_site_symmetry_2
N0 Sn1 2.113733 1_555
N0 Sn0 2.147625 1_555
N0 Sr2 2.532939 1_555
N0 Sr4 2.656227 1_555
N0 Sr6 2.861071 1_555
N0 Sr7 3.211118 1_555
N1 Sn0 2.113733 1_555
N1 Sn1 2.147625 1_555
N1 Sr3 2.532939 1_555
N1 Sr5 2.656227 1_555
N1 Sr0 2.861071 1_555
N1 Sr8 3.211118 1_555
N2 Sn1 2.029713 1_555
N2 Sr7 2.425620 1_455
N2 Sr0 2.567739 1_455
N2 Sr1 2.791815 1_555
N2 Sr4 2.884163 1_555
N2 Sr6 3.150884 1_555
N3 Sn0 2.029713 1_555
N3 Sr8 2.425620 1_655
N3 Sr6 2.567739 1_655
N3 Sr9 2.791815 1_555
N3 Sr5 2.884163 1_555
N3 Sr0 3.150884 1_555
N4 Sn0 2.039940 1_555
N4 Sr1 2.464933 1_545
N4 Sr9 2.602110 1_555
N4 Sr8 2.606590 1_555
N4 Sr6 2.747986 1_555
N5 Sn1 2.039940 1_555
N5 Sr9 2.464933 1_565
N5 Sr1 2.602110 1_555
N5 Sr7 2.606590 1_555
N5 Sr0 2.747986 1_555
N6 Re0 1.828833 1_655
N6 Sr9 2.621150 1_555
N6 Sr1 2.775157 1_645
N6 Sr2 2.898744 1_555
N6 Sr6 2.923674 1_655
N6 Sr7 3.139733 1_545
N7 Re1 1.828833 1_455
N7 Sr1 2.621150 1_555
N7 Sr9 2.775157 1_465
N7 Sr3 2.898744 1_555
N7 Sr0 2.923674 1_455
N7 Sr8 3.139733 1_565
N8 Re0 1.834248 1_555
N8 Sr4 2.595821 1_545
N8 Sr8 2.673046 1_556
N8 Sr5 2.751733 1_556
N8 Sr7 2.900858 1_445
N9 Re1 1.834248 1_555
N9 Sr5 2.595821 1_565
N9 Sr7 2.673046 1_554
N9 Sr4 2.751733 1_554
N9 Sr8 2.900858 1_665
N10 Re0 1.826569 1_555
N10 Sr3 2.562773 1_556
N10 Sr2 2.581547 1_555
N10 Sr5 2.783280 1_556
N10 Sr6 2.916937 1_555
N11 Re0 1.838314 1_654
N11 Sr2 2.721607 1_554
N11 Sr5 2.735216 1_555
N11 Sr3 2.886003 1_655
N11 Sr8 2.916730 1_655
N11 Sr0 3.066700 1_555
N12 Re1 1.838314 1_456
N12 Sr3 2.721607 1_556
N12 Sr4 2.735216 1_555
N12 Sr2 2.886003 1_455
N12 Sr7 2.916730 1_455
N12 Sr6 3.066700 1_555
N13 Re1 1.826569 1_555
N13 Sr2 2.562773 1_554
N13 Sr3 2.581547 1_555
N13 Sr4 2.783280 1_554
N13 Sr0 2.916937 1_555
