# generated using pymatgen
data_VCu2AgS4
_symmetry_space_group_name_H-M   'P 1'
_cell_length_a   5.40970370
_cell_length_b   5.40970370
_cell_length_c   5.89841671
_cell_angle_alpha   90.00000000
_cell_angle_beta   90.00000000
_cell_angle_gamma   90.00000000
_symmetry_Int_Tables_number   1
_chemical_formula_structural   VCu2AgS4
_chemical_formula_sum   'V1 Cu2 Ag1 S4'
_cell_volume   172.61654073
_cell_formula_units_Z   1
loop_
 _symmetry_equiv_pos_site_id
 _symmetry_equiv_pos_as_xyz
  1  'x, y, z'
loop_
 _atom_site_type_symbol
 _atom_site_label
 _atom_site_symmetry_multiplicity
 _atom_site_fract_x
 _atom_site_fract_y
 _atom_site_fract_z
 _atom_site_occupancy
  V  V0  1  0.00000000  0.00000000  0.00000000  1
  Cu  Cu0  1  0.00000000  0.50000000  0.00000000  1
  Cu  Cu1  1  0.50000000  0.00000000  0.00000000  1
  Ag  Ag0  1  0.00000000  0.00000000  0.50000000  1
  S  S0  1  0.75897726  0.75897726  0.20853423  1
  S  S1  1  0.75897726  0.24102274  0.79146577  1
  S  S2  1  0.24102274  0.75897726  0.79146577  1
  S  S3  1  0.24102274  0.24102274  0.20853423  1
loop_
_geom_bond_atom_site_label_1
_geom_bond_atom_site_label_2
_geom_bond_distance
_geom_bond_site_symmetry_2
Cu0 S2 2.275035 1_554
Cu0 S0 2.275035 1_455
Cu0 S3 2.275035 1_555
Cu0 S1 2.275035 1_454
Cu1 S0 2.275035 1_545
Cu1 S3 2.275035 1_555
Cu1 S1 2.275035 1_554
Cu1 S2 2.275035 1_544
Ag0 S1 2.521054 1_455
Ag0 S2 2.521054 1_545
Ag0 S3 2.521054 1_555
Ag0 S0 2.521054 1_445
S0 V0 2.216543 1_665
S1 V0 2.216543 1_656
S2 V0 2.216543 1_566
S3 V0 2.216543 1_555
