# generated using pymatgen
data_Be8Mo2OsW
_symmetry_space_group_name_H-M   'P 1'
_cell_length_a   4.40464774
_cell_length_b   4.40464891
_cell_length_c   7.23384719
_cell_angle_alpha   90.00000000
_cell_angle_beta   90.00000000
_cell_angle_gamma   120.00000613
_symmetry_Int_Tables_number   1
_chemical_formula_structural   Be8Mo2OsW
_chemical_formula_sum   'Be8 Mo2 Os1 W1'
_cell_volume   121.54089034
_cell_formula_units_Z   1
loop_
 _symmetry_equiv_pos_site_id
 _symmetry_equiv_pos_as_xyz
  1  'x, y, z'
loop_
 _atom_site_type_symbol
 _atom_site_label
 _atom_site_symmetry_multiplicity
 _atom_site_fract_x
 _atom_site_fract_y
 _atom_site_fract_z
 _atom_site_occupancy
  Be  Be0  1  0.00000000  0.00000000  0.50055334  1
  Be  Be1  1  0.00000000  0.00000000  0.00461162  1
  Be  Be2  1  0.83034912  0.16965088  0.25183051  1
  Be  Be3  1  0.83034912  0.66069723  0.25183051  1
  Be  Be4  1  0.33930277  0.16965088  0.25183051  1
  Be  Be5  1  0.16896609  0.83103391  0.74784937  1
  Be  Be6  1  0.16896609  0.33793217  0.74784937  1
  Be  Be7  1  0.66206783  0.83103391  0.74784937  1
  Mo  Mo0  1  0.66666700  0.33333300  0.93555460  1
  Mo  Mo1  1  0.33333300  0.66666700  0.06284218  1
  Os  Os0  1  0.33333300  0.66666700  0.43648432  1
  W  W0  1  0.66666700  0.33333300  0.56091532  1
loop_
_geom_bond_atom_site_label_1
_geom_bond_atom_site_label_2
_geom_bond_distance
_geom_bond_site_symmetry_2
Be0 Be7 2.204956 1_445
Be0 Be5 2.204956 1_545
Be0 Be6 2.204956 1_555
Be0 Be2 2.216385 1_455
Be0 Be4 2.216387 1_555
Be0 Be3 2.216387 1_445
Be0 W0 2.580238 1_455
Be0 W0 2.580241 1_555
Be0 W0 2.580241 1_445
Be0 Os0 2.584911 1_545
Be0 Os0 2.584914 1_445
Be0 Os0 2.584915 1_555
Be1 Be2 2.207562 1_455
Be1 Be4 2.207564 1_555
Be1 Be3 2.207565 1_445
Be1 Be7 2.260867 1_444
Be1 Be5 2.260867 1_544
Be1 Be6 2.260867 1_554
Be1 Mo1 2.577673 1_545
Be1 Mo1 2.577676 1_445
Be1 Mo1 2.577677 1_555
Be1 Mo0 2.591623 1_454
Be1 Mo0 2.591626 1_554
Be1 Mo0 2.591627 1_444
Be2 Be4 2.162886 1_555
Be2 Be3 2.162887 1_555
Be2 Be4 2.241762 1_655
Be2 Be3 2.241762 1_545
Be2 W0 2.560954 1_555
Be2 Os0 2.575849 1_655
Be2 Os0 2.575849 1_545
Be2 Mo1 2.592247 1_655
Be2 Mo1 2.592247 1_545
Be2 Mo0 2.606493 1_554
Be3 Be4 2.162886 1_555
Be3 Be4 2.241762 1_665
Be3 W0 2.560954 1_555
Be3 Os0 2.575845 1_655
Be3 Os0 2.575853 1_555
Be3 Mo1 2.592244 1_655
Be3 Mo1 2.592251 1_555
Be3 Mo0 2.606493 1_554
Be4 W0 2.560954 1_555
Be4 Os0 2.575846 1_545
Be4 Os0 2.575853 1_555
Be4 Mo1 2.592244 1_545
Be4 Mo1 2.592252 1_555
Be4 Mo0 2.606493 1_554
Be5 Be7 2.171939 1_555
Be5 Be6 2.171940 1_555
Be5 Be7 2.232708 1_455
Be5 Be6 2.232709 1_565
Be5 Os0 2.577905 1_555
Be5 W0 2.584400 1_455
Be5 W0 2.584400 1_565
Be5 Mo0 2.587324 1_455
Be5 Mo0 2.587324 1_565
Be5 Mo1 2.600865 1_556
Be6 Be7 2.171940 1_555
Be6 Be7 2.232708 1_445
Be6 Os0 2.577907 1_555
Be6 W0 2.584398 1_455
Be6 W0 2.584402 1_555
Be6 Mo0 2.587322 1_455
Be6 Mo0 2.587325 1_555
Be6 Mo1 2.600867 1_556
Be7 Os0 2.577906 1_555
Be7 W0 2.584399 1_565
Be7 W0 2.584403 1_555
Be7 Mo0 2.587322 1_565
Be7 Mo0 2.587326 1_555
Be7 Mo1 2.600866 1_556
Mo0 Mo1 2.704588 1_656
Mo0 Mo1 2.704588 1_546
Mo0 Mo1 2.704595 1_556
Mo0 W0 2.710083 1_555
Mo1 Os0 2.702870 1_555
Os0 W0 2.697622 1_455
Os0 W0 2.697623 1_565
Os0 W0 2.697630 1_555
