# generated using pymatgen
data_Nb5Cr(TcP)6
_symmetry_space_group_name_H-M   'P 1'
_cell_length_a   7.38155331
_cell_length_b   7.38155406
_cell_length_c   7.38155363
_cell_angle_alpha   127.91009543
_cell_angle_beta   123.07299271
_cell_angle_gamma   80.78548958
_symmetry_Int_Tables_number   1
_chemical_formula_structural   Nb5Cr(TcP)6
_chemical_formula_sum   'Nb5 Cr1 Tc6 P6'
_cell_volume   256.40988931
_cell_formula_units_Z   1
loop_
 _symmetry_equiv_pos_site_id
 _symmetry_equiv_pos_as_xyz
  1  'x, y, z'
loop_
 _atom_site_type_symbol
 _atom_site_label
 _atom_site_symmetry_multiplicity
 _atom_site_fract_x
 _atom_site_fract_y
 _atom_site_fract_z
 _atom_site_occupancy
  Nb  Nb0  1  0.71195166  0.43375868  0.72180602  1
  Nb  Nb1  1  0.28804834  0.00985535  0.72180602  1
  Nb  Nb2  1  0.20845159  0.37862122  0.17016963  1
  Nb  Nb3  1  0.79154841  0.96171904  0.17016963  1
  Nb  Nb4  1  0.50000000  0.57068948  0.07068948  1
  Cr  Cr0  1  1.00000000  0.61471135  0.61471135  1
  Tc  Tc0  1  0.78657576  0.25744738  0.04402214  1
  Tc  Tc1  1  0.21342424  0.25744738  0.47087162  1
  Tc  Tc2  1  0.83809749  0.99392364  0.58688771  1
  Tc  Tc3  1  0.16190251  0.74879023  0.15582615  1
  Tc  Tc4  1  0.40703593  0.99392364  0.15582615  1
  Tc  Tc5  1  0.59296407  0.74879023  0.58688771  1
  P  P0  1  0.39500140  0.66169385  0.73160801  1
  P  P1  1  0.60499860  0.33660762  0.26669246  1
  P  P2  1  0.93008584  0.66169385  0.26669246  1
  P  P3  1  0.06991416  0.33660762  0.73160801  1
  P  P4  1  0.50000000  0.06748977  0.56748977  1
  P  P5  1  0.00000000  0.96792969  0.96792969  1
loop_
_geom_bond_atom_site_label_1
_geom_bond_atom_site_label_2
_geom_bond_distance
_geom_bond_site_symmetry_2
Nb0 P4 2.584585 1_555
Nb0 P3 2.597999 1_655
Nb0 P1 2.597999 1_555
Nb0 P0 2.661622 1_555
Nb0 P2 2.661627 1_556
Nb1 P4 2.584575 1_555
Nb1 P2 2.598002 1_445
Nb1 P0 2.598007 1_545
Nb1 P1 2.661626 1_556
Nb1 P3 2.661626 1_555
Nb2 P1 2.622314 1_555
Nb2 P3 2.622319 1_554
Nb2 P5 2.685517 1_544
Nb2 P0 2.736629 1_555
Nb2 P2 2.736629 1_455
Nb2 Tc5 2.758717 1_555
Nb2 Tc3 2.758718 1_555
Nb2 Tc0 2.840508 1_455
Nb2 Tc1 2.840511 1_555
Nb2 Tc2 2.947962 1_444
Nb2 Tc4 2.947962 1_545
Nb3 P0 2.622316 1_554
Nb3 P2 2.622322 1_555
Nb3 P5 2.685514 1_654
Nb3 P3 2.736629 1_665
Nb3 P1 2.736629 1_565
Nb3 Tc4 2.758718 1_555
Nb3 Tc2 2.758722 1_555
Nb3 Tc1 2.840508 1_665
Nb3 Tc0 2.840510 1_565
Nb3 Tc5 2.947960 1_554
Nb3 Tc3 2.947964 1_655
Nb4 P1 2.664361 1_555
Nb4 P3 2.664366 1_554
Nb4 P2 2.664368 1_555
Nb4 P0 2.664368 1_554
Nb4 Tc2 2.827975 1_555
Nb4 Tc5 2.827975 1_555
Nb4 Tc3 2.827975 1_555
Nb4 Tc4 2.827975 1_555
Nb4 Tc1 2.861569 1_554
Nb4 Tc0 2.861569 1_555
Cr0 P5 2.289607 1_655
Cr0 P3 2.564459 1_655
Cr0 P1 2.564463 1_555
Cr0 P0 2.564466 1_655
Cr0 P2 2.564466 1_555
P0 Tc1 2.410983 1_555
P0 Tc4 2.481341 1_556
P0 Tc5 2.557026 1_555
P1 Tc0 2.410987 1_555
P1 Tc5 2.481336 1_555
P1 Tc4 2.557032 1_545
P2 Tc0 2.410980 1_555
P2 Tc2 2.481341 1_555
P2 Tc3 2.557026 1_655
P3 Tc1 2.410980 1_555
P3 Tc3 2.481337 1_556
P3 Tc2 2.557032 1_445
P4 Tc0 2.362604 1_556
P4 Tc1 2.362609 1_555
P4 Tc3 2.411499 1_545
P4 Tc2 2.411500 1_545
P4 Tc4 2.411500 1_545
P4 Tc5 2.411500 1_545
P5 Tc0 2.403535 1_466
P5 Tc1 2.403535 1_566
P5 Tc5 2.509442 1_455
P5 Tc4 2.509442 1_556
P5 Tc2 2.509442 1_455
P5 Tc3 2.509442 1_556
