# generated using pymatgen
data_Zr2Ru2Rh4C
_symmetry_space_group_name_H-M   'P 1'
_cell_length_a   5.65166051
_cell_length_b   5.66696416
_cell_length_c   5.65166103
_cell_angle_alpha   59.91040299
_cell_angle_beta   60.11842289
_cell_angle_gamma   59.91039133
_symmetry_Int_Tables_number   1
_chemical_formula_structural   Zr2Ru2Rh4C
_chemical_formula_sum   'Zr2 Ru2 Rh4 C1'
_cell_volume   127.93348921
_cell_formula_units_Z   1
loop_
 _symmetry_equiv_pos_site_id
 _symmetry_equiv_pos_as_xyz
  1  'x, y, z'
loop_
 _atom_site_type_symbol
 _atom_site_label
 _atom_site_symmetry_multiplicity
 _atom_site_fract_x
 _atom_site_fract_y
 _atom_site_fract_z
 _atom_site_occupancy
  Zr  Zr0  1  0.24899753  0.24968635  0.25162977  1
  Zr  Zr1  1  0.74837023  0.75031365  0.75100247  1
  Ru  Ru0  1  0.75323417  0.75457251  0.24676483  1
  Ru  Ru1  1  0.75323417  0.24542649  0.24676483  1
  Rh  Rh0  1  0.24255831  0.75608910  0.24526148  1
  Rh  Rh1  1  0.24474042  0.24707312  0.75525858  1
  Rh  Rh2  1  0.75473752  0.24390990  0.75744069  1
  Rh  Rh3  1  0.24474042  0.75292588  0.75525858  1
  C  C0  1  0.50938525  0.50000000  0.49061475  1
loop_
_geom_bond_atom_site_label_1
_geom_bond_atom_site_label_2
_geom_bond_distance
_geom_bond_site_symmetry_2
Ru0 Zr0 2.824216 1_565
Ru0 Zr1 2.824222 1_555
Ru0 Zr1 2.827913 1_554
Ru0 Zr0 2.827919 1_655
Ru1 Zr0 2.824210 1_555
Ru1 Zr1 2.824217 1_545
Ru1 Zr1 2.827919 1_554
Ru1 Zr0 2.827924 1_655
Rh0 Zr1 2.831061 1_455
Rh0 Zr1 2.831463 1_554
Rh0 Zr0 2.833937 1_555
Rh0 Zr0 2.833948 1_565
Rh1 Zr1 2.824865 1_455
Rh1 Zr0 2.824871 1_556
Rh1 Zr0 2.827066 1_555
Rh1 Zr1 2.827071 1_545
Rh2 Zr0 2.831061 1_556
Rh2 Zr0 2.831462 1_655
Rh2 Zr1 2.833936 1_545
Rh2 Zr1 2.833948 1_555
Rh3 Zr1 2.824859 1_455
Rh3 Zr0 2.824866 1_556
Rh3 Zr0 2.827072 1_565
Rh3 Zr1 2.827077 1_555
C0 Ru0 1.996836 1_555
C0 Ru1 1.996844 1_555
C0 Rh2 2.043124 1_555
C0 Rh0 2.043132 1_555
C0 Rh3 2.073518 1_555
C0 Rh1 2.073526 1_555
