# generated using pymatgen
data_Rb2TaAuSe4
_symmetry_space_group_name_H-M   'P 1'
_cell_length_a   14.25849115
_cell_length_b   12.72590916
_cell_length_c   7.69288675
_cell_angle_alpha   84.77677727
_cell_angle_beta   62.72388737
_cell_angle_gamma   32.49933885
_symmetry_Int_Tables_number   1
_chemical_formula_structural   Rb2TaAuSe4
_chemical_formula_sum   'Rb4 Ta2 Au2 Se8'
_cell_volume   523.68496456
_cell_formula_units_Z   2
loop_
 _symmetry_equiv_pos_site_id
 _symmetry_equiv_pos_as_xyz
  1  'x, y, z'
loop_
 _atom_site_type_symbol
 _atom_site_label
 _atom_site_symmetry_multiplicity
 _atom_site_fract_x
 _atom_site_fract_y
 _atom_site_fract_z
 _atom_site_occupancy
  Rb  Rb0  1  0.43058359  0.43058359  0.06941641  1
  Rb  Rb1  1  0.81941641  0.81941641  0.18058359  1
  Rb  Rb2  1  0.06941641  0.06941641  0.43058359  1
  Rb  Rb3  1  0.18058359  0.18058359  0.81941641  1
  Ta  Ta0  1  0.00000000  0.00000000  0.00000000  1
  Ta  Ta1  1  0.25000000  0.25000000  0.25000000  1
  Au  Au0  1  0.50000000  0.50000000  0.50000000  1
  Au  Au1  1  0.75000000  0.75000000  0.75000000  1
  Se  Se0  1  0.73323420  0.38200915  0.06294280  1
  Se  Se1  1  0.82181185  0.06294280  0.38200915  1
  Se  Se2  1  0.06294280  0.82181185  0.73323420  1
  Se  Se3  1  0.38200915  0.73323420  0.82181185  1
  Se  Se4  1  0.51676580  0.86799085  0.18705720  1
  Se  Se5  1  0.86799085  0.51676580  0.42818815  1
  Se  Se6  1  0.18705720  0.42818815  0.51676580  1
  Se  Se7  1  0.42818815  0.18705720  0.86799085  1
loop_
_geom_bond_atom_site_label_1
_geom_bond_atom_site_label_2
_geom_bond_distance
_geom_bond_site_symmetry_2
Rb0 Se2 3.528865 1_644
Rb0 Se1 3.528869 1_465
Rb0 Se7 3.620503 1_554
Rb0 Se6 3.620511 1_555
Rb0 Se0 3.783621 1_555
Rb0 Se3 3.783629 1_554
Rb0 Se2 3.796742 1_555
Rb0 Se1 3.796755 1_554
Rb1 Se6 3.528865 1_565
Rb1 Se7 3.528869 1_654
Rb1 Se1 3.620503 1_565
Rb1 Se2 3.620511 1_654
Rb1 Se4 3.783621 1_555
Rb1 Se5 3.783629 1_555
Rb1 Se6 3.796742 1_654
Rb1 Se7 3.796755 1_565
Rb2 Se0 3.528862 1_456
Rb2 Se3 3.528875 1_544
Rb2 Se5 3.620526 1_455
Rb2 Se4 3.620530 1_545
Rb2 Se2 3.783642 1_545
Rb2 Se1 3.783650 1_455
Rb2 Se0 3.796749 1_545
Rb2 Se3 3.796752 1_455
Rb3 Se4 3.528862 1_545
Rb3 Se5 3.528875 1_456
Rb3 Se3 3.620526 1_545
Rb3 Se0 3.620530 1_456
Rb3 Se6 3.783642 1_555
Rb3 Se7 3.783650 1_555
Rb3 Se4 3.796749 1_456
Rb3 Se5 3.796752 1_545
Au0 Se3 2.620392 1_555
Au0 Se0 2.620404 1_555
Au0 Se1 2.620409 1_555
Au0 Se2 2.620414 1_555
Au0 Ta0 2.985357 1_566
Au0 Ta0 2.985357 1_655
Au1 Se5 2.620392 1_555
Au1 Se4 2.620404 1_556
Au1 Se7 2.620409 1_565
Au1 Se6 2.620414 1_655
Au1 Ta1 2.985357 1_655
Au1 Ta1 2.985357 1_566
Se0 Ta0 2.425964 1_655
Se1 Ta0 2.425970 1_655
Se2 Ta0 2.425981 1_566
Se3 Ta0 2.425959 1_566
Se4 Ta1 2.425964 1_565
Se5 Ta1 2.425959 1_655
Se6 Ta1 2.425981 1_555
Se7 Ta1 2.425970 1_556
