# generated using pymatgen
data_Ta12Zn9Ga3N2
_symmetry_space_group_name_H-M   'P 1'
_cell_length_a   8.12200400
_cell_length_b   8.11957085
_cell_length_c   8.12200378
_cell_angle_alpha   60.09303553
_cell_angle_beta   60.10843027
_cell_angle_gamma   60.09304009
_symmetry_Int_Tables_number   1
_chemical_formula_structural   Ta12Zn9Ga3N2
_chemical_formula_sum   'Ta12 Zn9 Ga3 N2'
_cell_volume   379.58530583
_cell_formula_units_Z   1
loop_
 _symmetry_equiv_pos_site_id
 _symmetry_equiv_pos_as_xyz
  1  'x, y, z'
loop_
 _atom_site_type_symbol
 _atom_site_label
 _atom_site_symmetry_multiplicity
 _atom_site_fract_x
 _atom_site_fract_y
 _atom_site_fract_z
 _atom_site_occupancy
  Ta  Ta0  1  0.18925995  0.81033900  0.18925995  1
  Ta  Ta1  1  0.44001568  0.06043278  0.44001568  1
  Ta  Ta2  1  0.43988642  0.05970278  0.06174867  1
  Ta  Ta3  1  0.44035040  0.43983461  0.06125922  1
  Ta  Ta4  1  0.18982573  0.80973186  0.80981438  1
  Ta  Ta5  1  0.06051071  0.44001634  0.06051071  1
  Ta  Ta6  1  0.80981438  0.80973186  0.18982573  1
  Ta  Ta7  1  0.06125922  0.43983461  0.44035040  1
  Ta  Ta8  1  0.19068899  0.18849967  0.80982501  1
  Ta  Ta9  1  0.80982501  0.18849967  0.19068899  1
  Ta  Ta10  1  0.80984411  0.18878487  0.80984411  1
  Ta  Ta11  1  0.06174867  0.05970278  0.43988642  1
  Zn  Zn0  1  0.41635881  0.41652622  0.41635881  1
  Zn  Zn1  1  0.83398437  0.83409017  0.49833042  1
  Zn  Zn2  1  0.41568725  0.75241857  0.41568725  1
  Zn  Zn3  1  0.83338468  0.83331722  0.83338468  1
  Zn  Zn4  1  0.49833042  0.83409017  0.83398437  1
  Zn  Zn5  1  0.62480554  0.12208117  0.62480554  1
  Zn  Zn6  1  0.62101982  0.62885359  0.12510441  1
  Zn  Zn7  1  0.12510441  0.62885359  0.62101982  1
  Zn  Zn8  1  0.62306850  0.63020632  0.62306850  1
  Ga  Ga0  1  0.83510760  0.49578538  0.83510760  1
  Ga  Ga1  1  0.41394682  0.41462495  0.75579056  1
  Ga  Ga2  1  0.75579056  0.41462495  0.41394682  1
  N  N0  1  0.99966172  0.99915412  0.99966172  1
  N  N1  1  0.25072023  0.25026375  0.25072023  1
loop_
_geom_bond_atom_site_label_1
_geom_bond_atom_site_label_2
_geom_bond_distance
_geom_bond_site_symmetry_2
Ta0 Zn4 2.715350 1_554
Ta0 Zn1 2.715350 1_455
Ta0 Zn7 2.920915 1_555
Ta0 Zn6 2.920915 1_555
Ta0 Zn2 2.937929 1_555
Ta0 Zn0 2.942319 1_555
Ta1 Zn2 2.712433 1_545
Ta1 Zn0 2.713382 1_555
Ta1 Zn8 2.910137 1_545
Ta1 Zn5 2.915349 1_555
Ta1 Zn4 2.935840 1_545
Ta1 Zn1 2.935840 1_545
Ta2 Zn2 2.702076 1_545
Ta2 Zn6 2.914557 1_545
Ta2 Zn4 2.939413 1_544
Ta2 Zn3 2.943898 1_544
Ta2 Zn5 2.959766 1_554
Ta3 Zn0 2.706337 1_555
Ta3 Zn6 2.928380 1_555
Ta3 Zn4 2.936169 1_554
Ta3 Zn8 2.965705 1_554
Ta4 Zn4 2.716474 1_555
Ta4 Zn3 2.717674 1_455
Ta4 Zn8 2.928743 1_555
Ta4 Zn7 2.933172 1_555
Ta4 Zn2 2.934282 1_555
Ta5 Zn3 2.940578 1_454
Ta5 Zn7 2.974176 1_554
Ta5 Zn6 2.974177 1_455
Ta6 Zn1 2.716474 1_555
Ta6 Zn3 2.717674 1_554
Ta6 Zn8 2.928742 1_555
Ta6 Zn6 2.933172 1_555
Ta6 Zn2 2.934282 1_555
Ta7 Zn0 2.706337 1_555
Ta7 Zn7 2.928380 1_555
Ta7 Zn1 2.936169 1_455
Ta7 Zn8 2.965705 1_455
Ta8 Zn4 2.705231 1_545
Ta8 Zn5 2.934601 1_555
Ta8 Zn0 2.940371 1_555
Ta8 Zn7 2.977724 1_555
Ta9 Zn1 2.705231 1_545
Ta9 Zn5 2.934600 1_555
Ta9 Zn0 2.940371 1_555
Ta9 Zn6 2.977724 1_555
Ta10 Zn3 2.709130 1_545
Ta10 Zn5 2.947078 1_555
Ta10 Zn8 2.983075 1_555
Ta11 Zn2 2.702076 1_545
Ta11 Zn7 2.914557 1_545
Ta11 Zn1 2.939413 1_445
Ta11 Zn3 2.943898 1_445
Ta11 Zn5 2.959766 1_455
Zn0 Zn6 2.490547 1_555
Zn0 Zn7 2.490548 1_555
Zn0 Zn5 2.496554 1_555
Zn0 Zn2 2.721874 1_555
Zn1 Zn5 2.470584 1_565
Zn1 Zn7 2.474695 1_655
Zn1 Zn8 2.475299 1_555
Zn1 Zn3 2.715767 1_555
Zn1 Zn4 2.730649 1_555
Zn2 Zn7 2.475409 1_555
Zn2 Zn6 2.475409 1_555
Zn2 Zn8 2.480544 1_555
Zn3 Zn5 2.485153 1_565
Zn3 Zn6 2.490915 1_556
Zn3 Zn7 2.490915 1_655
Zn3 Zn4 2.715767 1_555
Zn4 Zn5 2.470584 1_565
Zn4 Zn6 2.474695 1_556
Zn4 Zn8 2.475299 1_555
Ga0 Zn7 2.514108 1_655
Ga0 Zn6 2.514108 1_556
Ga0 Zn8 2.516051 1_555
Ga0 Ta9 2.709690 1_556
Ga0 Ta8 2.709690 1_655
Ga0 Ta10 2.712908 1_555
Ga0 Zn3 2.726731 1_555
Ga0 Zn1 2.744963 1_555
Ga0 Zn4 2.744964 1_555
Ga0 Ta5 2.931792 1_656
Ga0 Ta7 2.934376 1_655
Ga0 Ta3 2.934376 1_556
Ga1 Zn7 2.513780 1_555
Ga1 Zn5 2.520787 1_555
Ga1 Zn8 2.523703 1_555
Ga1 Ta5 2.691765 1_556
Ga1 Ta2 2.701793 1_556
Ga1 Ta3 2.706258 1_556
Ga1 Zn0 2.739519 1_555
Ga1 Zn2 2.756441 1_555
Ga1 Ga2 2.781005 1_555
Ga1 Ta8 2.928299 1_555
Ga1 Ta4 2.929547 1_555
Ga1 Ta10 2.935837 1_555
Ga2 Zn6 2.513780 1_555
Ga2 Zn5 2.520786 1_555
Ga2 Zn8 2.523703 1_555
Ga2 Ta5 2.691765 1_655
Ga2 Ta11 2.701793 1_655
Ga2 Ta7 2.706258 1_655
Ga2 Zn0 2.739519 1_555
Ga2 Zn2 2.756441 1_555
Ga2 Ta9 2.928299 1_555
Ga2 Ta6 2.929547 1_555
Ga2 Ta10 2.935837 1_555
N0 Ta0 2.179047 1_656
N0 Ta6 2.179667 1_556
N0 Ta4 2.179667 1_655
N0 Ta10 2.181569 1_565
N0 Ta8 2.186001 1_665
N0 Ta9 2.186001 1_566
N1 Ta1 2.175582 1_555
N1 Ta3 2.179255 1_555
N1 Ta7 2.179255 1_555
N1 Ta11 2.181163 1_555
N1 Ta2 2.181164 1_555
N1 Ta5 2.186072 1_555
