# generated using pymatgen
data_Sc4Ga6Ir4Pt3
_symmetry_space_group_name_H-M   'P 1'
_cell_length_a   7.10624774
_cell_length_b   7.10624666
_cell_length_c   7.09483512
_cell_angle_alpha   109.43868573
_cell_angle_beta   109.43868265
_cell_angle_gamma   109.50373419
_symmetry_Int_Tables_number   1
_chemical_formula_structural   Sc4Ga6Ir4Pt3
_chemical_formula_sum   'Sc4 Ga6 Ir4 Pt3'
_cell_volume   275.91498408
_cell_formula_units_Z   1
loop_
 _symmetry_equiv_pos_site_id
 _symmetry_equiv_pos_as_xyz
  1  'x, y, z'
loop_
 _atom_site_type_symbol
 _atom_site_label
 _atom_site_symmetry_multiplicity
 _atom_site_fract_x
 _atom_site_fract_y
 _atom_site_fract_z
 _atom_site_occupancy
  Sc  Sc0  1  0.00000000  0.00000000  0.50000000  1
  Sc  Sc1  1  0.01765733  0.50882917  0.00882917  1
  Sc  Sc2  1  0.49117083  0.98234267  0.99117083  1
  Sc  Sc3  1  0.49117083  0.50882917  0.50000000  1
  Ga  Ga0  1  0.69109875  0.68839959  0.99927047  1
  Ga  Ga1  1  0.31160041  0.00269916  0.31087288  1
  Ga  Ga2  1  0.99730084  0.30890125  0.30817272  1
  Ga  Ga3  1  0.31160041  0.30890125  0.00072953  1
  Ga  Ga4  1  0.69109875  0.00269916  0.69182728  1
  Ga  Ga5  1  0.99730084  0.68839959  0.68912712  1
  Ir  Ir0  1  0.25003974  0.50007848  0.75003974  1
  Ir  Ir1  1  0.25003974  0.74996026  0.50000000  1
  Ir  Ir2  1  0.49992152  0.74996026  0.24996026  1
  Ir  Ir3  1  0.00000000  0.00000000  0.00000000  1
  Pt  Pt0  1  0.75047297  0.24952703  0.50000000  1
  Pt  Pt1  1  0.75047297  0.50094695  0.25047297  1
  Pt  Pt2  1  0.49905305  0.24952703  0.74952703  1
loop_
_geom_bond_atom_site_label_1
_geom_bond_atom_site_label_2
_geom_bond_distance
_geom_bond_site_symmetry_2
Ga0 Ir3 2.541836 1_666
Ga0 Pt1 2.565897 1_556
Ga0 Pt2 2.568838 1_555
Ga0 Ir0 2.583916 1_555
Ga0 Ir2 2.586064 1_556
Ga0 Sc2 2.896929 1_555
Ga0 Sc3 2.936916 1_555
Ga0 Sc0 2.944570 1_666
Ga0 Sc1 2.991382 1_656
Ga1 Ir3 2.541844 1_555
Ga1 Pt2 2.565892 1_555
Ga1 Pt0 2.568840 1_555
Ga1 Ir2 2.583923 1_545
Ga1 Ir1 2.586059 1_545
Ga1 Sc1 2.896925 1_545
Ga1 Sc2 2.936929 1_544
Ga1 Sc0 2.944560 1_555
Ga1 Sc3 2.991389 1_555
Ga2 Ir3 2.541840 1_655
Ga2 Pt0 2.565897 1_555
Ga2 Pt1 2.568845 1_555
Ga2 Ir1 2.583917 1_655
Ga2 Ir0 2.586066 1_655
Ga2 Sc3 2.896924 1_655
Ga2 Sc1 2.936921 1_655
Ga2 Sc0 2.944564 1_655
Ga2 Sc2 2.991388 1_544
Ga3 Ir3 2.541836 1_555
Ga3 Pt2 2.565897 1_554
Ga3 Pt1 2.568838 1_555
Ga3 Ir2 2.583915 1_555
Ga3 Ir0 2.586064 1_554
Ga3 Sc1 2.896929 1_555
Ga3 Sc3 2.936916 1_555
Ga3 Sc0 2.944570 1_554
Ga3 Sc2 2.991381 1_544
Ga4 Ir3 2.541840 1_656
Ga4 Pt0 2.565897 1_555
Ga4 Pt2 2.568845 1_555
Ga4 Ir1 2.583917 1_545
Ga4 Ir2 2.586066 1_545
Ga4 Sc3 2.896924 1_545
Ga4 Sc2 2.936921 1_545
Ga4 Sc0 2.944565 1_655
Ga4 Sc1 2.991388 1_656
Ga5 Ir3 2.541844 1_666
Ga5 Pt1 2.565892 1_555
Ga5 Pt0 2.568840 1_555
Ga5 Ir0 2.583923 1_655
Ga5 Ir1 2.586059 1_655
Ga5 Sc2 2.896925 1_655
Ga5 Sc1 2.936929 1_656
Ga5 Sc0 2.944559 1_665
Ga5 Sc3 2.991390 1_555
Ir0 Sc2 2.798767 1_555
Ir0 Sc3 2.848275 1_555
Ir0 Sc1 2.848281 1_556
Ir0 Ir2 2.897741 1_556
Ir0 Ir1 2.897746 1_555
Ir0 Pt2 2.899174 1_555
Ir0 Pt0 2.899186 1_455
Ir0 Sc0 2.902151 1_555
Ir1 Sc3 2.798756 1_555
Ir1 Sc1 2.848275 1_555
Ir1 Sc2 2.848275 1_555
Ir1 Ir2 2.897746 1_555
Ir1 Pt2 2.899186 1_565
Ir1 Pt1 2.899186 1_455
Ir1 Sc0 2.902156 1_565
Ir2 Sc1 2.798768 1_555
Ir2 Sc3 2.848275 1_555
Ir2 Sc2 2.848281 1_554
Ir2 Pt1 2.899174 1_555
Ir2 Pt0 2.899185 1_565
Ir2 Sc0 2.902151 1_665
Pt0 Sc0 2.896206 1_655
Pt0 Pt1 2.903715 1_555
Pt0 Pt2 2.903715 1_555
Pt0 Sc2 2.950747 1_544
Pt0 Sc1 2.950747 1_656
Pt0 Sc3 3.009663 1_555
Pt1 Sc0 2.896200 1_665
Pt1 Pt2 2.903710 1_554
Pt1 Sc1 2.950741 1_655
Pt1 Sc3 2.950746 1_555
Pt1 Sc2 3.009663 1_544
Pt2 Sc0 2.896200 1_555
Pt2 Sc2 2.950741 1_545
Pt2 Sc3 2.950746 1_555
Pt2 Sc1 3.009664 1_656
