# generated using pymatgen
data_Ca3Mg(NbN3)2
_symmetry_space_group_name_H-M   'P 1'
_cell_length_a   5.57887091
_cell_length_b   5.57887047
_cell_length_c   5.82438266
_cell_angle_alpha   99.21238121
_cell_angle_beta   99.21238581
_cell_angle_gamma   119.96979812
_symmetry_Int_Tables_number   1
_chemical_formula_structural   Ca3Mg(NbN3)2
_chemical_formula_sum   'Ca3 Mg1 Nb2 N6'
_cell_volume   148.77843247
_cell_formula_units_Z   1
loop_
 _symmetry_equiv_pos_site_id
 _symmetry_equiv_pos_as_xyz
  1  'x, y, z'
loop_
 _atom_site_type_symbol
 _atom_site_label
 _atom_site_symmetry_multiplicity
 _atom_site_fract_x
 _atom_site_fract_y
 _atom_site_fract_z
 _atom_site_occupancy
  Ca  Ca0  1  0.83661153  0.16338847  0.50000000  1
  Ca  Ca1  1  0.16338847  0.83661153  0.50000000  1
  Ca  Ca2  1  0.50000000  0.50000000  0.50000000  1
  Mg  Mg0  1  0.00000000  0.00000000  0.00000000  1
  Nb  Nb0  1  0.33249055  0.66750945  0.00000000  1
  Nb  Nb1  1  0.66750945  0.33249055  1.00000000  1
  N  N0  1  0.42245192  0.07060572  0.21273789  1
  N  N1  1  0.92939428  0.57754808  0.78726211  1
  N  N2  1  0.57754808  0.92939428  0.78726211  1
  N  N3  1  0.07060572  0.42245192  0.21273789  1
  N  N4  1  0.71974262  0.71974262  0.21325761  1
  N  N5  1  0.28025738  0.28025738  0.78674239  1
loop_
_geom_bond_atom_site_label_1
_geom_bond_atom_site_label_2
_geom_bond_distance
_geom_bond_site_symmetry_2
Ca0 N1 2.386607 1_555
Ca0 N0 2.386608 1_555
Ca0 N4 2.460842 1_545
Ca0 N5 2.460842 1_655
Ca0 N3 2.486148 1_655
Ca0 N2 2.486148 1_545
Ca1 N3 2.386607 1_555
Ca1 N2 2.386608 1_555
Ca1 N5 2.460842 1_565
Ca1 N4 2.460842 1_455
Ca1 N1 2.486148 1_455
Ca1 N0 2.486148 1_565
Ca2 N5 2.367399 1_555
Ca2 N4 2.367399 1_555
Ca2 N2 2.484869 1_555
Ca2 N0 2.484869 1_555
Ca2 N1 2.484869 1_555
Ca2 N3 2.484869 1_555
Mg0 N3 2.286082 1_555
Mg0 N1 2.286082 1_444
Mg0 N0 2.286082 1_555
Mg0 N2 2.286082 1_444
Mg0 N5 2.287632 1_554
Mg0 N4 2.287632 1_445
N0 Nb0 2.150687 1_545
N0 Nb1 2.159950 1_554
N1 Nb0 2.150687 1_656
N1 Nb1 2.159950 1_555
N2 Nb1 2.150687 1_565
N2 Nb0 2.159950 1_556
N3 Nb1 2.150687 1_454
N3 Nb0 2.159950 1_555
N4 Nb1 2.165891 1_554
N4 Nb0 2.165891 1_555
N5 Nb0 2.165891 1_556
N5 Nb1 2.165891 1_555
