# generated using pymatgen
data_Mg2Zn2CuRh
_symmetry_space_group_name_H-M   'P 1'
_cell_length_a   5.10735808
_cell_length_b   4.96513486
_cell_length_c   4.96513478
_cell_angle_alpha   119.91753132
_cell_angle_beta   117.23611581
_cell_angle_gamma   91.69794920
_symmetry_Int_Tables_number   1
_chemical_formula_structural   Mg2Zn2CuRh
_chemical_formula_sum   'Mg2 Zn2 Cu1 Rh1'
_cell_volume   91.43745003
_cell_formula_units_Z   1
loop_
 _symmetry_equiv_pos_site_id
 _symmetry_equiv_pos_as_xyz
  1  'x, y, z'
loop_
 _atom_site_type_symbol
 _atom_site_label
 _atom_site_symmetry_multiplicity
 _atom_site_fract_x
 _atom_site_fract_y
 _atom_site_fract_z
 _atom_site_occupancy
  Mg  Mg0  1  0.10563361  0.86682081  0.23881280  1
  Mg  Mg1  1  0.89436639  0.13317919  0.76118720  1
  Zn  Zn0  1  0.50000000  0.50000000  0.50000000  1
  Zn  Zn1  1  0.50000000  0.00000000  0.00000000  1
  Cu  Cu0  1  0.50000000  0.50000000  0.00000000  1
  Rh  Rh0  1  0.00000000  0.50000000  0.50000000  1
loop_
_geom_bond_atom_site_label_1
_geom_bond_atom_site_label_2
_geom_bond_distance
_geom_bond_site_symmetry_2
Mg0 Rh0 2.868491 1_555
Mg0 Rh0 2.920706 1_554
Mg0 Rh0 2.920707 1_565
Mg0 Zn1 2.964681 1_565
Mg0 Zn0 2.964681 1_565
Mg0 Zn0 2.992867 1_454
Mg0 Zn1 2.992867 1_465
Mg0 Zn1 3.039479 1_566
Mg0 Zn0 3.039479 1_555
Mg1 Rh0 2.868491 1_655
Mg1 Rh0 2.920706 1_656
Mg1 Rh0 2.920707 1_645
Mg1 Zn1 2.964681 1_556
Mg1 Zn0 2.964681 1_545
Mg1 Zn0 2.992867 1_656
Mg1 Zn1 2.992867 1_656
Mg1 Zn1 3.039479 1_555
Mg1 Zn0 3.039479 1_555
Zn0 Zn1 2.485661 1_555
Zn0 Zn1 2.485661 1_566
Cu0 Zn0 2.482567 1_555
Cu0 Zn0 2.482567 1_554
Cu0 Zn1 2.482567 1_565
Cu0 Zn1 2.482567 1_555
Cu0 Rh0 2.623281 1_655
Cu0 Rh0 2.623281 1_554
Cu0 Mg1 2.906163 1_454
Cu0 Mg0 2.906163 1_655
Cu0 Mg1 3.004872 1_565
Cu0 Mg0 3.004872 1_544
Cu0 Mg0 3.004872 1_555
Cu0 Mg1 3.004872 1_554
Rh0 Zn0 2.553679 1_455
Rh0 Zn0 2.553679 1_555
Rh0 Zn1 2.553679 1_566
Rh0 Zn1 2.553679 1_455
