# generated using pymatgen
data_LiRh(SO4)2
_symmetry_space_group_name_H-M   'P 1'
_cell_length_a   4.71817554
_cell_length_b   6.64316097
_cell_length_c   8.40168057
_cell_angle_alpha   90.00000000
_cell_angle_beta   90.00000000
_cell_angle_gamma   94.23423242
_symmetry_Int_Tables_number   1
_chemical_formula_structural   LiRh(SO4)2
_chemical_formula_sum   'Li2 Rh2 S4 O16'
_cell_volume   262.62013925
_cell_formula_units_Z   2
loop_
 _symmetry_equiv_pos_site_id
 _symmetry_equiv_pos_as_xyz
  1  'x, y, z'
loop_
 _atom_site_type_symbol
 _atom_site_label
 _atom_site_symmetry_multiplicity
 _atom_site_fract_x
 _atom_site_fract_y
 _atom_site_fract_z
 _atom_site_occupancy
  Li  Li0  1  0.54352562  0.97607883  0.47694328  1
  Li  Li1  1  0.95647438  0.52392117  0.97694328  1
  Rh  Rh0  1  0.50040765  0.49830015  0.49995505  1
  Rh  Rh1  1  0.99959235  0.00169985  0.99995505  1
  S  S0  1  0.03488202  0.73487777  0.31830091  1
  S  S1  1  0.46511798  0.76512223  0.81830091  1
  S  S2  1  0.97067994  0.26344093  0.68040448  1
  S  S3  1  0.52932006  0.23655907  0.18040448  1
  O  O0  1  0.34181822  0.95826431  0.85776443  1
  O  O1  1  0.15818178  0.54173569  0.35776443  1
  O  O2  1  0.65791143  0.04433647  0.14029552  1
  O  O3  1  0.84208857  0.45566353  0.64029552  1
  O  O4  1  0.72746920  0.71442207  0.36645407  1
  O  O5  1  0.77253080  0.78557793  0.86645407  1
  O  O6  1  0.27790123  0.29061439  0.63853504  1
  O  O7  1  0.22209877  0.20938561  0.13853504  1
  O  O8  1  0.04819437  0.75169909  0.14018801  1
  O  O9  1  0.45180563  0.74830091  0.64018801  1
  O  O10  1  0.94710667  0.24893625  0.85895253  1
  O  O11  1  0.55289333  0.25106375  0.35895253  1
  O  O12  1  0.17586232  0.90945936  0.38982162  1
  O  O13  1  0.32413768  0.59054064  0.88982162  1
  O  O14  1  0.83537212  0.08743623  0.60878506  1
  O  O15  1  0.66462788  0.41256377  0.10878506  1
loop_
_geom_bond_atom_site_label_1
_geom_bond_atom_site_label_2
_geom_bond_distance
_geom_bond_site_symmetry_2
Li0 O14 1.876139 1_565
Li0 O12 1.904589 1_555
Li0 O9 2.064302 1_555
Li0 O11 2.076014 1_565
Li0 O4 2.204348 1_555
Li1 O15 1.876139 1_556
Li1 O13 1.904589 1_655
Li1 O8 2.064302 1_656
Li1 O10 2.076014 1_555
Li1 O5 2.204348 1_555
O0 S1 1.484880 1_555
O0 Rh1 2.046075 1_465
O1 S0 1.484880 1_555
O1 Rh0 2.046075 1_555
O2 S3 1.492217 1_555
O2 Rh1 2.033918 1_554
O3 S2 1.492217 1_555
O3 Rh0 2.033918 1_555
O4 S0 1.502257 1_655
O4 Rh0 2.059120 1_555
O5 S1 1.502257 1_555
O5 Rh1 2.059120 1_565
O6 S2 1.489568 1_455
O6 Rh0 2.036515 1_555
O7 S3 1.489568 1_555
O7 Rh1 2.036515 1_454
O8 S0 1.501583 1_555
O8 Rh1 2.062814 1_464
O9 S1 1.501583 1_555
O9 Rh0 2.062814 1_555
O10 S2 1.506779 1_555
O10 Rh1 2.054843 1_555
O11 S3 1.506779 1_555
O11 Rh0 2.054843 1_555
O12 S0 1.426423 1_555
O13 S1 1.426423 1_555
O14 S2 1.423552 1_555
O15 S3 1.423552 1_555
