# generated using pymatgen
data_K3AsSO3
_symmetry_space_group_name_H-M   'P 1'
_cell_length_a   5.92779313
_cell_length_b   6.57366044
_cell_length_c   8.74190296
_cell_angle_alpha   77.33243031
_cell_angle_beta   90.00000000
_cell_angle_gamma   90.00000000
_symmetry_Int_Tables_number   1
_chemical_formula_structural   K3AsSO3
_chemical_formula_sum   'K6 As2 S2 O6'
_cell_volume   332.35656699
_cell_formula_units_Z   2
loop_
 _symmetry_equiv_pos_site_id
 _symmetry_equiv_pos_as_xyz
  1  'x, y, z'
loop_
 _atom_site_type_symbol
 _atom_site_label
 _atom_site_symmetry_multiplicity
 _atom_site_fract_x
 _atom_site_fract_y
 _atom_site_fract_z
 _atom_site_occupancy
  K  K0  1  0.75000000  0.68292670  0.47014377  1
  K  K1  1  0.25000000  0.24527224  0.99669517  1
  K  K2  1  0.25000000  0.31707330  0.52985623  1
  K  K3  1  0.75000000  0.75472776  0.00330483  1
  K  K4  1  0.25000000  0.76911245  0.73083751  1
  K  K5  1  0.75000000  0.23088755  0.26916249  1
  As  As0  1  0.75000000  0.30057780  0.78871992  1
  As  As1  1  0.25000000  0.69942220  0.21128008  1
  S  S0  1  0.75000000  0.05885861  0.65177151  1
  S  S1  1  0.25000000  0.94114139  0.34822849  1
  O  O0  1  0.25000000  0.81121339  0.01699588  1
  O  O1  1  0.75000000  0.18878661  0.98300412  1
  O  O2  1  0.98344124  0.45095898  0.74007781  1
  O  O3  1  0.01655876  0.54904102  0.25992219  1
  O  O4  1  0.51655876  0.45095898  0.74007781  1
  O  O5  1  0.48344124  0.54904102  0.25992219  1
loop_
_geom_bond_atom_site_label_1
_geom_bond_atom_site_label_2
_geom_bond_distance
_geom_bond_site_symmetry_2
K0 O5 2.712564 1_555
K0 O3 2.712564 1_655
K0 O4 2.868852 1_555
K0 O2 2.868852 1_555
K0 S0 3.216988 1_565
K0 S1 3.465305 1_655
K0 S1 3.465305 1_555
K1 O0 2.819759 1_546
K1 O2 2.833216 1_455
K1 O4 2.833216 1_555
K1 O1 2.992720 1_555
K1 O1 2.992720 1_455
K1 S1 3.278133 1_546
K2 O2 2.712564 1_455
K2 O4 2.712564 1_555
K2 O5 2.868852 1_555
K2 O3 2.868852 1_555
K2 S1 3.216988 1_545
K2 S0 3.465305 1_455
K2 S0 3.465305 1_555
K3 O1 2.819759 1_564
K3 O5 2.833216 1_555
K3 O3 2.833216 1_655
K3 O0 2.992720 1_655
K3 O0 2.992720 1_555
K3 S0 3.278133 1_564
K4 O0 2.576449 1_556
K4 O2 2.608305 1_455
K4 O4 2.608305 1_555
K4 S1 3.287422 1_555
K4 S0 3.508971 1_565
K4 S0 3.508971 1_465
K5 O1 2.576449 1_554
K5 O5 2.608305 1_555
K5 O3 2.608305 1_655
K5 S0 3.287422 1_555
K5 S1 3.508971 1_545
K5 S1 3.508971 1_645
As0 O1 1.696243 1_555
As0 O4 1.699580 1_555
As0 O2 1.699580 1_555
As0 S0 2.189167 1_555
As1 O0 1.696243 1_555
As1 O5 1.699580 1_555
As1 O3 1.699580 1_555
As1 S1 2.189167 1_555
