# generated using pymatgen
data_KHf2(AsO4)3
_symmetry_space_group_name_H-M   'P 1'
_cell_length_a   9.66613675
_cell_length_b   9.66613692
_cell_length_c   9.66613706
_cell_angle_alpha   55.95465191
_cell_angle_beta   55.95465084
_cell_angle_gamma   55.95465568
_symmetry_Int_Tables_number   1
_chemical_formula_structural   KHf2(AsO4)3
_chemical_formula_sum   'K2 Hf4 As6 O24'
_cell_volume   578.75880437
_cell_formula_units_Z   2
loop_
 _symmetry_equiv_pos_site_id
 _symmetry_equiv_pos_as_xyz
  1  'x, y, z'
loop_
 _atom_site_type_symbol
 _atom_site_label
 _atom_site_symmetry_multiplicity
 _atom_site_fract_x
 _atom_site_fract_y
 _atom_site_fract_z
 _atom_site_occupancy
  K  K0  1  0.50000000  0.50000000  0.50000000  1
  K  K1  1  0.00000000  0.00000000  0.00000000  1
  Hf  Hf0  1  0.64703168  0.64703168  0.64703168  1
  Hf  Hf1  1  0.85296832  0.85296832  0.85296832  1
  Hf  Hf2  1  0.35296832  0.35296832  0.35296832  1
  Hf  Hf3  1  0.14703168  0.14703168  0.14703168  1
  As  As0  1  0.46609230  0.03390770  0.75000000  1
  As  As1  1  0.03390770  0.75000000  0.46609230  1
  As  As2  1  0.75000000  0.46609230  0.03390770  1
  As  As3  1  0.53390770  0.96609230  0.25000000  1
  As  As4  1  0.96609230  0.25000000  0.53390770  1
  As  As5  1  0.25000000  0.53390770  0.96609230  1
  O  O0  1  0.49000268  0.85369901  0.73893395  1
  O  O1  1  0.85369901  0.73893395  0.49000268  1
  O  O2  1  0.73893395  0.49000268  0.85369901  1
  O  O3  1  0.64630099  0.00999732  0.76106605  1
  O  O4  1  0.00999732  0.76106605  0.64630099  1
  O  O5  1  0.76106605  0.64630099  0.00999732  1
  O  O6  1  0.50999732  0.14630099  0.26106605  1
  O  O7  1  0.14630099  0.26106605  0.50999732  1
  O  O8  1  0.26106605  0.50999732  0.14630099  1
  O  O9  1  0.35369901  0.99000268  0.23893395  1
  O  O10  1  0.99000268  0.23893395  0.35369901  1
  O  O11  1  0.23893395  0.35369901  0.99000268  1
  O  O12  1  0.56579768  0.78465361  0.43278304  1
  O  O13  1  0.78465361  0.43278304  0.56579768  1
  O  O14  1  0.43278304  0.56579768  0.78465361  1
  O  O15  1  0.71534639  0.93420232  0.06721696  1
  O  O16  1  0.93420232  0.06721696  0.71534639  1
  O  O17  1  0.06721696  0.71534639  0.93420232  1
  O  O18  1  0.43420232  0.21534639  0.56721696  1
  O  O19  1  0.21534639  0.56721696  0.43420232  1
  O  O20  1  0.56721696  0.43420232  0.21534639  1
  O  O21  1  0.28465361  0.06579768  0.93278304  1
  O  O22  1  0.06579768  0.93278304  0.28465361  1
  O  O23  1  0.93278304  0.28465361  0.06579768  1
loop_
_geom_bond_atom_site_label_1
_geom_bond_atom_site_label_2
_geom_bond_distance
_geom_bond_site_symmetry_2
K0 O12 2.809350 1_555
K0 O18 2.809350 1_555
K0 O13 2.809350 1_555
K0 O19 2.809350 1_555
K0 O14 2.809350 1_555
K0 O20 2.809350 1_555
K1 O21 2.809350 1_554
K1 O15 2.809350 1_445
K1 O23 2.809350 1_455
K1 O17 2.809350 1_544
K1 O22 2.809350 1_545
K1 O16 2.809350 1_454
Hf0 O1 2.041047 1_555
Hf0 O2 2.041047 1_555
Hf0 O0 2.041047 1_555
Hf0 O14 2.059508 1_555
Hf0 O12 2.059508 1_555
Hf0 O13 2.059508 1_555
Hf1 O5 2.041047 1_556
Hf1 O4 2.041047 1_655
Hf1 O3 2.041047 1_565
Hf1 O16 2.059508 1_565
Hf1 O15 2.059508 1_556
Hf1 O17 2.059508 1_655
Hf2 O7 2.041047 1_555
Hf2 O8 2.041047 1_555
Hf2 O6 2.041047 1_555
Hf2 O20 2.059508 1_555
Hf2 O18 2.059508 1_555
Hf2 O19 2.059508 1_555
Hf3 O11 2.041047 1_554
Hf3 O10 2.041047 1_455
Hf3 O9 2.041047 1_545
Hf3 O22 2.059508 1_545
Hf3 O21 2.059508 1_554
Hf3 O23 2.059508 1_455
As0 O21 1.681492 1_555
As0 O18 1.681493 1_555
As0 O3 1.682056 1_555
As0 O0 1.682056 1_545
As1 O22 1.681492 1_555
As1 O19 1.681493 1_555
As1 O1 1.682056 1_455
As1 O4 1.682056 1_555
As2 O20 1.681492 1_555
As2 O23 1.681493 1_555
As2 O5 1.682056 1_555
As2 O2 1.682056 1_554
As3 O15 1.681492 1_555
As3 O12 1.681493 1_555
As3 O9 1.682056 1_555
As3 O6 1.682056 1_565
As4 O16 1.681492 1_555
As4 O13 1.681493 1_555
As4 O7 1.682056 1_655
As4 O10 1.682056 1_555
As5 O14 1.681492 1_555
As5 O17 1.681493 1_555
As5 O11 1.682056 1_555
As5 O8 1.682056 1_556
