# generated using pymatgen
data_SnHg(PO4)2
_symmetry_space_group_name_H-M   'P 1'
_cell_length_a   4.92559585
_cell_length_b   4.92559585
_cell_length_c   7.49407433
_cell_angle_alpha   83.73255883
_cell_angle_beta   83.73256394
_cell_angle_gamma   65.47673319
_symmetry_Int_Tables_number   1
_chemical_formula_structural   SnHg(PO4)2
_chemical_formula_sum   'Sn1 Hg1 P2 O8'
_cell_volume   164.01711242
_cell_formula_units_Z   1
loop_
 _symmetry_equiv_pos_site_id
 _symmetry_equiv_pos_as_xyz
  1  'x, y, z'
loop_
 _atom_site_type_symbol
 _atom_site_label
 _atom_site_symmetry_multiplicity
 _atom_site_fract_x
 _atom_site_fract_y
 _atom_site_fract_z
 _atom_site_occupancy
  Sn  Sn0  1  0.00000000  0.00000000  0.50000000  1
  Hg  Hg0  1  0.00000000  0.00000000  0.00000000  1
  P  P0  1  0.66602743  0.66602743  0.28579296  1
  P  P1  1  0.33397257  0.33397257  0.71420604  1
  O  O0  1  0.75715961  0.75715961  0.09525453  1
  O  O1  1  0.79151970  0.32098321  0.30311114  1
  O  O2  1  0.32098321  0.79151970  0.30311114  1
  O  O3  1  0.77161439  0.77161439  0.43676449  1
  O  O4  1  0.22838461  0.22838461  0.56323551  1
  O  O5  1  0.67901679  0.20848130  0.69688986  1
  O  O6  1  0.20848130  0.67901679  0.69688986  1
  O  O7  1  0.24284039  0.24284039  0.90474547  1
loop_
_geom_bond_atom_site_label_1
_geom_bond_atom_site_label_2
_geom_bond_distance
_geom_bond_site_symmetry_2
Hg0 O7 2.045941 1_554
Hg0 O0 2.045941 1_445
O0 P0 1.526199 1_555
O1 P0 1.544237 1_555
O1 Sn0 2.050609 1_655
O2 P0 1.544237 1_555
O2 Sn0 2.050609 1_565
O3 P0 1.517396 1_555
O3 Sn0 2.009684 1_665
O4 P1 1.517396 1_555
O4 Sn0 2.009676 1_555
O5 P1 1.544237 1_555
O5 Sn0 2.050616 1_655
O6 P1 1.544237 1_555
O6 Sn0 2.050616 1_565
O7 P1 1.526206 1_555
