# generated using pymatgen
data_Zr12Al5Tc7N4
_symmetry_space_group_name_H-M   'P 1'
_cell_length_a   8.61206209
_cell_length_b   8.61206257
_cell_length_c   8.62169745
_cell_angle_alpha   60.03695330
_cell_angle_beta   60.03695260
_cell_angle_gamma   59.99999925
_symmetry_Int_Tables_number   1
_chemical_formula_structural   Zr12Al5Tc7N4
_chemical_formula_sum   'Zr12 Al5 Tc7 N4'
_cell_volume   452.41235205
_cell_formula_units_Z   1
loop_
 _symmetry_equiv_pos_site_id
 _symmetry_equiv_pos_as_xyz
  1  'x, y, z'
loop_
 _atom_site_type_symbol
 _atom_site_label
 _atom_site_symmetry_multiplicity
 _atom_site_fract_x
 _atom_site_fract_y
 _atom_site_fract_z
 _atom_site_occupancy
  Zr  Zr0  1  0.80800694  0.19529298  0.18869314  1
  Zr  Zr1  1  0.19529298  0.80800694  0.18869314  1
  Zr  Zr2  1  0.80800694  0.80800694  0.18869314  1
  Zr  Zr3  1  0.18726515  0.81186202  0.81360668  1
  Zr  Zr4  1  0.81186202  0.18726515  0.81360668  1
  Zr  Zr5  1  0.18726515  0.18726515  0.81360668  1
  Zr  Zr6  1  0.43927578  0.06016082  0.06128962  1
  Zr  Zr7  1  0.06016082  0.43927578  0.06128962  1
  Zr  Zr8  1  0.43927578  0.43927578  0.06128962  1
  Zr  Zr9  1  0.05993329  0.43889622  0.44123520  1
  Zr  Zr10  1  0.43889622  0.05993329  0.44123520  1
  Zr  Zr11  1  0.05993329  0.05993329  0.44123520  1
  Al  Al0  1  0.41912856  0.41912856  0.74261331  1
  Al  Al1  1  0.42017337  0.42017337  0.41962642  1
  Al  Al2  1  0.74002685  0.42017337  0.41962642  1
  Al  Al3  1  0.42017337  0.74002685  0.41962642  1
  Al  Al4  1  0.83465166  0.83465166  0.49604602  1
  Tc  Tc0  1  0.83106293  0.83106293  0.81911289  1
  Tc  Tc1  1  0.51876124  0.83106293  0.81911289  1
  Tc  Tc2  1  0.83106293  0.51876124  0.81911289  1
  Tc  Tc3  1  0.62839687  0.62839687  0.11480740  1
  Tc  Tc4  1  0.62415684  0.62415684  0.63640441  1
  Tc  Tc5  1  0.11528391  0.62415684  0.63640441  1
  Tc  Tc6  1  0.62415684  0.11528391  0.63640441  1
  N  N0  1  0.12500146  0.12500146  0.62499463  1
  N  N1  1  0.12472694  0.12472694  0.12721020  1
  N  N2  1  0.62333593  0.12472694  0.12721020  1
  N  N3  1  0.12472694  0.62333593  0.12721020  1
loop_
_geom_bond_atom_site_label_1
_geom_bond_atom_site_label_2
_geom_bond_distance
_geom_bond_site_symmetry_2
Al0 Tc5 2.638472 1_555
Al0 Tc6 2.638472 1_555
Al0 Tc4 2.638493 1_555
Al0 Al1 2.775737 1_555
Al0 Al2 2.775740 1_555
Al0 Al3 2.775741 1_555
Al0 Zr7 2.931132 1_556
Al0 Zr6 2.931132 1_556
Al0 Zr8 2.931146 1_556
Al0 Zr5 3.145605 1_555
Al0 Zr4 3.145605 1_555
Al0 Zr3 3.145605 1_555
Al1 Tc3 2.671860 1_555
Al1 Tc5 2.690468 1_555
Al1 Tc6 2.690469 1_555
Al1 Al2 2.754598 1_555
Al1 Al3 2.754598 1_555
Al1 Zr8 2.934392 1_555
Al1 Zr9 2.939060 1_555
Al1 Zr10 2.939060 1_555
Al1 Zr0 3.100201 1_555
Al1 Zr1 3.100201 1_555
Al1 Zr5 3.161743 1_555
Al2 Tc3 2.671869 1_555
Al2 Tc6 2.690460 1_555
Al2 Tc4 2.690474 1_555
Al2 Al3 2.754598 1_555
Al2 Zr7 2.934399 1_655
Al2 Zr9 2.939043 1_655
Al2 Zr11 2.939053 1_655
Al2 Zr2 3.100201 1_555
Al2 Zr0 3.100201 1_555
Al2 Zr4 3.161740 1_555
Al3 Tc3 2.671869 1_555
Al3 Tc5 2.690459 1_555
Al3 Tc4 2.690474 1_555
Al3 Zr6 2.934399 1_565
Al3 Zr10 2.939043 1_565
Al3 Zr11 2.939053 1_565
Al3 Zr2 3.100201 1_555
Al3 Zr1 3.100201 1_555
Al3 Zr3 3.161740 1_555
Al4 Tc4 2.634494 1_555
Al4 Tc5 2.634501 1_655
Al4 Tc6 2.634501 1_565
Al4 Tc0 2.754860 1_555
Al4 Tc1 2.754864 1_555
Al4 Tc2 2.754864 1_555
Al4 Zr1 2.897359 1_655
Al4 Zr0 2.897359 1_565
Al4 Zr2 2.897364 1_555
Al4 Zr11 3.111931 1_665
Al4 Zr10 3.111953 1_565
Al4 Zr9 3.111953 1_655
Tc0 Tc5 2.497731 1_655
Tc0 Tc6 2.497731 1_565
Tc0 Tc3 2.597891 1_556
Tc0 Tc1 2.689562 1_555
Tc0 Tc2 2.689562 1_555
Tc0 Zr3 2.965653 1_655
Tc0 Zr4 2.965653 1_565
Tc0 Zr2 3.001251 1_556
Tc0 Zr11 3.072541 1_665
Tc0 Zr6 3.171376 1_566
Tc0 Zr7 3.171376 1_656
Tc1 Tc4 2.497726 1_555
Tc1 Tc6 2.497740 1_565
Tc1 Tc3 2.597882 1_556
Tc1 Tc2 2.689562 1_555
Tc1 Zr5 2.965657 1_565
Tc1 Zr3 2.965662 1_555
Tc1 Zr1 3.001251 1_556
Tc1 Zr10 3.072549 1_565
Tc1 Zr8 3.171369 1_556
Tc1 Zr6 3.171384 1_566
Tc2 Tc4 2.497726 1_555
Tc2 Tc5 2.497740 1_655
Tc2 Tc3 2.597882 1_556
Tc2 Zr5 2.965657 1_655
Tc2 Zr4 2.965662 1_555
Tc2 Zr0 3.001251 1_556
Tc2 Zr9 3.072549 1_655
Tc2 Zr8 3.171369 1_556
Tc2 Zr7 3.171384 1_656
Tc3 Zr1 3.090647 1_555
Tc3 Zr0 3.090647 1_555
Tc3 Zr2 3.090662 1_555
Tc3 Zr8 3.110059 1_555
Tc3 Zr7 3.110088 1_655
Tc3 Zr6 3.110089 1_565
Tc4 Zr8 3.061441 1_556
Tc4 Zr3 3.121980 1_555
Tc4 Zr4 3.121980 1_555
Tc4 Zr9 3.138074 1_655
Tc4 Zr10 3.138074 1_565
Tc4 Zr2 3.195448 1_555
Tc5 Zr7 3.061442 1_556
Tc5 Zr3 3.121962 1_555
Tc5 Zr5 3.121984 1_555
Tc5 Zr11 3.138068 1_565
Tc5 Zr9 3.138098 1_555
Tc5 Zr1 3.195451 1_555
Tc6 Zr6 3.061442 1_556
Tc6 Zr4 3.121962 1_555
Tc6 Zr5 3.121984 1_555
Tc6 Zr11 3.138068 1_655
Tc6 Zr10 3.138098 1_555
Tc6 Zr0 3.195451 1_555
N0 Zr10 2.285981 1_555
N0 Zr9 2.285981 1_555
N0 Zr11 2.285988 1_555
N0 Zr4 2.291064 1_455
N0 Zr3 2.291065 1_545
N0 Zr5 2.291065 1_555
N1 Zr6 2.289526 1_555
N1 Zr7 2.289526 1_555
N1 Zr11 2.290444 1_555
N1 Zr5 2.295983 1_554
N1 Zr0 2.304363 1_455
N1 Zr1 2.304363 1_545
N2 Zr6 2.289510 1_555
N2 Zr8 2.289522 1_555
N2 Zr10 2.290447 1_555
N2 Zr4 2.295981 1_554
N2 Zr2 2.304363 1_545
N2 Zr0 2.304363 1_555
N3 Zr7 2.289510 1_555
N3 Zr8 2.289522 1_555
N3 Zr9 2.290448 1_555
N3 Zr3 2.295981 1_554
N3 Zr2 2.304363 1_455
N3 Zr1 2.304363 1_555
