# generated using pymatgen
data_CsNbSe2O7
_symmetry_space_group_name_H-M   'P 1'
_cell_length_a   7.31841242
_cell_length_b   7.31841307
_cell_length_c   7.47607318
_cell_angle_alpha   90.00000000
_cell_angle_beta   90.00000000
_cell_angle_gamma   106.62232954
_symmetry_Int_Tables_number   1
_chemical_formula_structural   CsNbSe2O7
_chemical_formula_sum   'Cs2 Nb2 Se4 O14'
_cell_volume   383.67947624
_cell_formula_units_Z   2
loop_
 _symmetry_equiv_pos_site_id
 _symmetry_equiv_pos_as_xyz
  1  'x, y, z'
loop_
 _atom_site_type_symbol
 _atom_site_label
 _atom_site_symmetry_multiplicity
 _atom_site_fract_x
 _atom_site_fract_y
 _atom_site_fract_z
 _atom_site_occupancy
  Cs  Cs0  1  0.92819908  0.92819908  0.30211272  1
  Cs  Cs1  1  0.07180092  0.07180092  0.80211272  1
  Nb  Nb0  1  0.52287444  0.52287444  0.91571134  1
  Nb  Nb1  1  0.47712556  0.47712556  0.41571134  1
  Se  Se0  1  0.51106026  0.91735576  0.63306641  1
  Se  Se1  1  0.91735576  0.51106026  0.63306641  1
  Se  Se2  1  0.48893974  0.08264424  0.13306641  1
  Se  Se3  1  0.08264424  0.48893974  0.13306641  1
  O  O0  1  0.54994205  0.78604243  0.81854028  1
  O  O1  1  0.78604243  0.54994205  0.81854028  1
  O  O2  1  0.45005795  0.21395757  0.31854028  1
  O  O3  1  0.21395757  0.45005795  0.31854028  1
  O  O4  1  0.51483311  0.75955814  0.45760209  1
  O  O5  1  0.75955814  0.51483311  0.45760209  1
  O  O6  1  0.48516689  0.24044186  0.95760209  1
  O  O7  1  0.24044186  0.48516689  0.95760209  1
  O  O8  1  0.72085459  0.07327172  0.60810881  1
  O  O9  1  0.07327172  0.72085459  0.60810881  1
  O  O10  1  0.27914541  0.92672828  0.10810881  1
  O  O11  1  0.92672828  0.27914541  0.10810881  1
  O  O12  1  0.41808204  0.41808204  0.65047875  1
  O  O13  1  0.58191796  0.58191796  0.15047875  1
loop_
_geom_bond_atom_site_label_1
_geom_bond_atom_site_label_2
_geom_bond_distance
_geom_bond_site_symmetry_2
Cs0 O10 2.952301 1_655
Cs0 O11 2.952301 1_565
Cs0 O8 3.095945 1_565
Cs0 O9 3.095945 1_655
Cs0 O4 3.144858 1_555
Cs0 O5 3.144858 1_555
Cs0 O13 3.233478 1_555
Cs1 O8 2.952301 1_455
Cs1 O9 2.952301 1_545
Cs1 O10 3.095945 1_546
Cs1 O11 3.095945 1_456
Cs1 O6 3.144858 1_555
Cs1 O7 3.144858 1_555
Cs1 O12 3.233478 1_555
Nb0 O13 1.829513 1_556
Nb0 O1 2.014466 1_555
Nb0 O0 2.014466 1_555
Nb0 O7 2.029831 1_555
Nb0 O6 2.029831 1_555
Nb0 O12 2.184422 1_555
Nb1 O12 1.829513 1_555
Nb1 O3 2.014466 1_555
Nb1 O2 2.014466 1_555
Nb1 O5 2.029831 1_555
Nb1 O4 2.029831 1_555
Nb1 O13 2.184422 1_555
O0 Se0 1.756034 1_555
O1 Se1 1.756034 1_555
O2 Se2 1.756034 1_555
O3 Se3 1.756034 1_555
O4 Se0 1.753115 1_555
O5 Se1 1.753115 1_555
O6 Se2 1.753115 1_556
O7 Se3 1.753115 1_556
O8 Se0 1.640682 1_545
O9 Se1 1.640682 1_455
O10 Se2 1.640682 1_565
O11 Se3 1.640682 1_655
