# generated using pymatgen
data_Hf2VMo3
_symmetry_space_group_name_H-M   'P 1'
_cell_length_a   5.28387706
_cell_length_b   5.28387638
_cell_length_c   5.28387708
_cell_angle_alpha   60.15441256
_cell_angle_beta   60.15441131
_cell_angle_gamma   60.15441961
_symmetry_Int_Tables_number   1
_chemical_formula_structural   Hf2VMo3
_chemical_formula_sum   'Hf2 V1 Mo3'
_cell_volume   104.67895374
_cell_formula_units_Z   1
loop_
 _symmetry_equiv_pos_site_id
 _symmetry_equiv_pos_as_xyz
  1  'x, y, z'
loop_
 _atom_site_type_symbol
 _atom_site_label
 _atom_site_symmetry_multiplicity
 _atom_site_fract_x
 _atom_site_fract_y
 _atom_site_fract_z
 _atom_site_occupancy
  Hf  Hf0  1  0.49989525  0.49989525  0.49989525  1
  Hf  Hf1  1  0.75010475  0.75010475  0.75010475  1
  V  V0  1  0.12500000  0.12500000  0.12500000  1
  Mo  Mo0  1  0.62500000  0.12500000  0.12500000  1
  Mo  Mo1  1  0.12500000  0.62500000  0.12500000  1
  Mo  Mo2  1  0.12500000  0.12500000  0.62500000  1
loop_
_geom_bond_atom_site_label_1
_geom_bond_atom_site_label_2
_geom_bond_distance
_geom_bond_site_symmetry_2
Hf0 Mo2 3.095783 1_555
Hf0 Mo0 3.095783 1_555
Hf0 Mo1 3.095783 1_555
Hf0 Mo0 3.102926 1_565
Hf0 Mo1 3.102926 1_655
Hf0 Mo2 3.102926 1_565
Hf0 Mo1 3.102926 1_556
Hf0 Mo0 3.102926 1_556
Hf0 Mo2 3.102926 1_655
Hf0 V0 3.104612 1_556
Hf0 V0 3.104612 1_565
Hf0 V0 3.104612 1_655
Hf0 Hf1 3.234628 1_555
Hf0 Hf1 3.241094 1_545
Hf0 Hf1 3.241094 1_554
Hf0 Hf1 3.241094 1_455
Hf1 Mo2 3.095783 1_665
Hf1 Mo0 3.095783 1_566
Hf1 Mo1 3.095783 1_656
Hf1 Mo0 3.102926 1_556
Hf1 Mo1 3.102926 1_556
Hf1 Mo2 3.102926 1_655
Hf1 Mo1 3.102926 1_655
Hf1 Mo0 3.102926 1_565
Hf1 Mo2 3.102926 1_565
Hf1 V0 3.104612 1_665
Hf1 V0 3.104612 1_656
Hf1 V0 3.104612 1_566
Mo0 V0 2.641939 1_655
Mo0 V0 2.641939 1_555
Mo0 Mo2 2.648102 1_654
Mo0 Mo2 2.648102 1_555
Mo0 Mo1 2.648102 1_555
Mo0 Mo1 2.648102 1_645
Mo1 V0 2.641938 1_565
Mo1 V0 2.641938 1_555
Mo1 Mo2 2.648102 1_555
Mo1 Mo2 2.648102 1_564
Mo2 V0 2.641939 1_556
Mo2 V0 2.641939 1_555
