# generated using pymatgen
data_Sr10VTcN10
_symmetry_space_group_name_H-M   'P 1'
_cell_length_a   7.63384240
_cell_length_b   7.63384310
_cell_length_c   8.99395897
_cell_angle_alpha   76.38744592
_cell_angle_beta   76.38744837
_cell_angle_gamma   96.89506809
_symmetry_Int_Tables_number   1
_chemical_formula_structural   Sr10VTcN10
_chemical_formula_sum   'Sr10 V1 Tc1 N10'
_cell_volume   486.48106679
_cell_formula_units_Z   1
loop_
 _symmetry_equiv_pos_site_id
 _symmetry_equiv_pos_as_xyz
  1  'x, y, z'
loop_
 _atom_site_type_symbol
 _atom_site_label
 _atom_site_symmetry_multiplicity
 _atom_site_fract_x
 _atom_site_fract_y
 _atom_site_fract_z
 _atom_site_occupancy
  Sr  Sr0  1  0.38885894  0.39281668  0.38709212  1
  Sr  Sr1  1  0.60718332  0.61114106  0.61290788  1
  Sr  Sr2  1  0.66263519  0.66652503  0.01001704  1
  Sr  Sr3  1  0.33347497  0.33736481  0.98998296  1
  Sr  Sr4  1  0.93080223  0.91732288  0.19790942  1
  Sr  Sr5  1  0.08267712  0.06919777  0.80209058  1
  Sr  Sr6  1  0.54998783  0.09116846  0.75540435  1
  Sr  Sr7  1  0.90883154  0.45001217  0.24459565  1
  Sr  Sr8  1  0.43313281  0.89302337  0.24591256  1
  Sr  Sr9  1  0.10697663  0.56686719  0.75408744  1
  V  V0  1  0.24348214  0.75651786  1.00000000  1
  Tc  Tc0  1  0.75633952  0.24366048  0.00000000  1
  N  N0  1  0.65804285  0.65877485  0.31370994  1
  N  N1  1  0.34122515  0.34195715  0.68629006  1
  N  N2  1  0.71631608  0.01315901  0.98250117  1
  N  N3  1  0.98684099  0.28368392  0.01749883  1
  N  N4  1  0.28242823  0.98987520  0.01640657  1
  N  N5  1  0.01012480  0.71757177  0.98359343  1
  N  N6  1  0.40609663  0.73464442  0.82390232  1
  N  N7  1  0.26535558  0.59390337  0.17609668  1
  N  N8  1  0.59505086  0.26586242  0.17411446  1
  N  N9  1  0.73413758  0.40494914  0.82588454  1
loop_
_geom_bond_atom_site_label_1
_geom_bond_atom_site_label_2
_geom_bond_distance
_geom_bond_site_symmetry_2
N0 Sr4 2.518076 1_555
N0 Sr0 2.551360 1_555
N0 Sr1 2.556956 1_555
N0 Sr7 2.688882 1_555
N0 Sr8 2.689626 1_555
N0 Sr2 2.709916 1_555
N1 Sr5 2.518076 1_555
N1 Sr1 2.551360 1_555
N1 Sr0 2.556956 1_555
N1 Sr6 2.688882 1_555
N1 Sr9 2.689626 1_555
N1 Sr3 2.709916 1_555
N2 Tc0 1.799517 1_556
N2 Sr2 2.571952 1_546
N2 Sr6 2.639771 1_555
N2 Sr8 2.686552 1_546
N2 Sr5 2.808475 1_655
N2 Sr4 2.843095 1_546
N3 Tc0 1.799517 1_555
N3 Sr3 2.571951 1_654
N3 Sr7 2.639771 1_555
N3 Sr9 2.686552 1_654
N3 Sr4 2.808476 1_545
N3 Sr5 2.843095 1_654
N4 V0 1.816815 1_554
N4 Sr3 2.580023 1_564
N4 Sr8 2.595119 1_555
N4 Sr6 2.605709 1_564
N4 Sr4 2.707710 1_455
N4 Sr5 2.731881 1_564
N5 V0 1.816815 1_555
N5 Sr2 2.580023 1_456
N5 Sr9 2.595119 1_555
N5 Sr7 2.605709 1_456
N5 Sr5 2.707710 1_565
N5 Sr4 2.731881 1_456
N6 V0 1.823773 1_555
N6 Sr1 2.581653 1_555
N6 Sr6 2.677293 1_565
N6 Sr9 2.756812 1_555
N6 Sr2 2.878446 1_556
N6 Sr3 2.968230 1_555
N7 V0 1.823767 1_554
N7 Sr0 2.581659 1_555
N7 Sr7 2.677291 1_455
N7 Sr8 2.756817 1_555
N7 Sr3 2.878440 1_554
N7 Sr2 2.968228 1_555
N8 Tc0 1.806779 1_555
N8 Sr0 2.628099 1_555
N8 Sr8 2.821367 1_545
N8 Sr3 2.901832 1_554
N8 Sr7 2.905415 1_555
N8 Sr2 2.989526 1_555
N9 Tc0 1.806785 1_556
N9 Sr1 2.628092 1_555
N9 Sr9 2.821368 1_655
N9 Sr2 2.901838 1_556
N9 Sr6 2.905410 1_555
N9 Sr3 2.989528 1_555
