# generated using pymatgen
data_Li2Ce2Ge3
_symmetry_space_group_name_H-M   'P 1'
_cell_length_a   9.59382009
_cell_length_b   9.59382009
_cell_length_c   6.88055800
_cell_angle_alpha   90.00000000
_cell_angle_beta   90.00000000
_cell_angle_gamma   153.18074302
_symmetry_Int_Tables_number   1
_chemical_formula_structural   Li2Ce2Ge3
_chemical_formula_sum   'Li4 Ce4 Ge6'
_cell_volume   285.72894947
_cell_formula_units_Z   2
loop_
 _symmetry_equiv_pos_site_id
 _symmetry_equiv_pos_as_xyz
  1  'x, y, z'
loop_
 _atom_site_type_symbol
 _atom_site_label
 _atom_site_symmetry_multiplicity
 _atom_site_fract_x
 _atom_site_fract_y
 _atom_site_fract_z
 _atom_site_occupancy
  Li  Li0  1  0.69100200  0.30899800  0.06242700  1
  Li  Li1  1  0.30899800  0.69100200  0.93757300  1
  Li  Li2  1  0.30899800  0.69100200  0.56242700  1
  Li  Li3  1  0.69100200  0.30899800  0.43757300  1
  Ce  Ce0  1  0.15649800  0.84350200  0.75000000  1
  Ce  Ce1  1  0.84350200  0.15649800  0.25000000  1
  Ce  Ce2  1  0.94956400  0.05043600  0.75000000  1
  Ce  Ce3  1  0.05043600  0.94956400  0.25000000  1
  Ge  Ge0  1  0.22037600  0.77962400  0.25000000  1
  Ge  Ge1  1  0.77962400  0.22037600  0.75000000  1
  Ge  Ge2  1  0.56308500  0.43691500  0.56479600  1
  Ge  Ge3  1  0.43691500  0.56308500  0.43520400  1
  Ge  Ge4  1  0.43691500  0.56308500  0.06479600  1
  Ge  Ge5  1  0.56308500  0.43691500  0.93520400  1
loop_
_geom_bond_atom_site_label_1
_geom_bond_atom_site_label_2
_geom_bond_distance
_geom_bond_site_symmetry_2
Ce0 Ge5 3.100634 1_565
Ce0 Ge2 3.100634 1_565
Ce0 Ge5 3.100634 1_455
Ce0 Ge2 3.100634 1_455
Ce0 Li1 3.125271 1_555
Ce0 Li2 3.125271 1_555
Ce0 Li3 3.160076 1_565
Ce0 Li0 3.160076 1_566
Ce0 Li3 3.160076 1_455
Ce0 Li0 3.160076 1_456
Ce0 Ge1 3.198666 1_455
Ce0 Ge1 3.198666 1_565
Ce1 Ge4 3.100634 1_655
Ce1 Ge3 3.100634 1_655
Ce1 Ge3 3.100634 1_545
Ce1 Ge4 3.100634 1_545
Ce1 Li3 3.125271 1_555
Ce1 Li0 3.125271 1_555
Ce1 Li2 3.160076 1_545
Ce1 Li1 3.160076 1_544
Ce1 Li1 3.160076 1_654
Ce1 Li2 3.160076 1_655
Ce1 Ge0 3.198666 1_545
Ce1 Ge0 3.198666 1_655
Ce2 Ge3 3.114069 1_655
Ce2 Ge3 3.114069 1_545
Ce2 Ge4 3.114069 1_656
Ce2 Ge4 3.114069 1_546
Ce2 Ge1 3.171850 1_555
Ce2 Ge5 3.326182 1_655
Ce2 Ge2 3.326182 1_655
Ce2 Ge2 3.326182 1_545
Ce2 Ge5 3.326182 1_545
Ce3 Ge5 3.114069 1_564
Ce3 Ge2 3.114069 1_565
Ce3 Ge5 3.114069 1_454
Ce3 Ge2 3.114069 1_455
Ce3 Ge0 3.171850 1_555
Ce3 Ge3 3.326182 1_455
Ce3 Ge4 3.326182 1_455
Ce3 Ge3 3.326182 1_565
Ce3 Ge4 3.326182 1_565
Ge0 Li3 2.629923 1_565
Ge0 Li0 2.629923 1_565
Ge0 Li3 2.629923 1_455
Ge0 Li0 2.629923 1_455
Ge0 Li2 2.712397 1_555
Ge0 Li1 2.712397 1_554
Ge1 Li2 2.629923 1_655
Ge1 Li1 2.629923 1_655
Ge1 Li1 2.629923 1_545
Ge1 Li2 2.629923 1_545
Ge1 Li3 2.712397 1_555
Ge1 Li0 2.712397 1_556
Ge2 Ge3 2.518062 1_555
Ge2 Li3 2.542925 1_555
Ge2 Ge5 2.548614 1_555
Ge3 Li2 2.542925 1_555
Ge3 Ge4 2.548614 1_555
Ge4 Ge5 2.518062 1_554
Ge4 Li1 2.542925 1_554
Ge5 Li0 2.542925 1_556
