# generated using pymatgen
data_CsMn3NiO8
_symmetry_space_group_name_H-M   'P 1'
_cell_length_a   5.67728575
_cell_length_b   5.67728553
_cell_length_c   7.74067651
_cell_angle_alpha   70.90568777
_cell_angle_beta   70.90568542
_cell_angle_gamma   60.90119240
_symmetry_Int_Tables_number   1
_chemical_formula_structural   CsMn3NiO8
_chemical_formula_sum   'Cs1 Mn3 Ni1 O8'
_cell_volume   201.69825709
_cell_formula_units_Z   1
loop_
 _symmetry_equiv_pos_site_id
 _symmetry_equiv_pos_as_xyz
  1  'x, y, z'
loop_
 _atom_site_type_symbol
 _atom_site_label
 _atom_site_symmetry_multiplicity
 _atom_site_fract_x
 _atom_site_fract_y
 _atom_site_fract_z
 _atom_site_occupancy
  Cs  Cs0  1  0.50000000  0.50000000  0.50000000  1
  Mn  Mn0  1  0.00000000  0.00000000  0.00000000  1
  Mn  Mn1  1  0.00000000  0.50000000  0.00000000  1
  Mn  Mn2  1  0.50000000  0.00000000  0.00000000  1
  Ni  Ni0  1  0.50000000  0.50000000  0.00000000  1
  O  O0  1  0.70356390  0.70356390  0.86878916  1
  O  O1  1  0.71766609  0.19287363  0.86156586  1
  O  O2  1  0.19287363  0.71766609  0.86156586  1
  O  O3  1  0.20953094  0.20953094  0.86220872  1
  O  O4  1  0.79046906  0.79046906  0.13779128  1
  O  O5  1  0.80712637  0.28233391  0.13843414  1
  O  O6  1  0.28233391  0.80712637  0.13843414  1
  O  O7  1  0.29643610  0.29643610  0.13121084  1
loop_
_geom_bond_atom_site_label_1
_geom_bond_atom_site_label_2
_geom_bond_distance
_geom_bond_site_symmetry_2
Cs0 O2 3.061816 1_555
Cs0 O5 3.061816 1_555
Cs0 O1 3.061817 1_555
Cs0 O6 3.061817 1_555
Cs0 O4 3.145625 1_555
Cs0 O3 3.145625 1_555
Mn0 O5 1.888250 1_455
Mn0 O2 1.888250 1_544
Mn0 O6 1.888250 1_545
Mn0 O1 1.888250 1_454
Mn0 O3 1.919351 1_554
Mn0 O4 1.919351 1_445
Mn1 O2 1.885859 1_554
Mn1 O5 1.885859 1_455
Mn1 O7 1.912624 1_555
Mn1 O0 1.912624 1_454
Mn1 O4 1.919584 1_455
Mn1 O3 1.919584 1_554
Mn2 O1 1.885859 1_554
Mn2 O6 1.885859 1_545
Mn2 O7 1.912624 1_555
Mn2 O0 1.912624 1_544
Mn2 O4 1.919584 1_545
Mn2 O3 1.919584 1_554
Ni0 O0 1.861714 1_554
Ni0 O7 1.861714 1_555
Ni0 O6 1.993984 1_555
Ni0 O1 1.993984 1_554
Ni0 O5 1.993984 1_555
Ni0 O2 1.993984 1_554
