# generated using pymatgen
data_Na2CeO3
_symmetry_space_group_name_H-M   'P 1'
_cell_length_a   4.27033800
_cell_length_b   4.27033800
_cell_length_c   4.68858100
_cell_angle_alpha   90.00000000
_cell_angle_beta   90.00000000
_cell_angle_gamma   90.00000000
_symmetry_Int_Tables_number   1
_chemical_formula_structural   Na2CeO3
_chemical_formula_sum   'Na2 Ce1 O3'
_cell_volume   85.49996273
_cell_formula_units_Z   1
loop_
 _symmetry_equiv_pos_site_id
 _symmetry_equiv_pos_as_xyz
  1  'x, y, z'
loop_
 _atom_site_type_symbol
 _atom_site_label
 _atom_site_symmetry_multiplicity
 _atom_site_fract_x
 _atom_site_fract_y
 _atom_site_fract_z
 _atom_site_occupancy
  Na  Na0  1  0.50000000  0.00000000  0.50000000  1
  Na  Na1  1  0.00000000  0.50000000  0.50000000  1
  Ce  Ce0  1  0.00000000  0.00000000  0.00000000  1
  O  O0  1  0.50000000  0.00000000  0.00000000  1
  O  O1  1  0.00000000  0.50000000  0.00000000  1
  O  O2  1  0.00000000  0.00000000  0.50000000  1
loop_
_geom_bond_atom_site_label_1
_geom_bond_atom_site_label_2
_geom_bond_distance
_geom_bond_site_symmetry_2
Na0 O2 2.135169 1_655
Na0 O2 2.135169 1_555
Na0 O0 2.344291 1_556
Na0 O0 2.344291 1_555
Na1 O2 2.135169 1_555
Na1 O2 2.135169 1_565
Na1 O1 2.344291 1_556
Na1 O1 2.344291 1_555
Ce0 O1 2.135169 1_545
Ce0 O1 2.135169 1_555
Ce0 O0 2.135169 1_455
Ce0 O0 2.135169 1_555
Ce0 O2 2.344291 1_555
Ce0 O2 2.344291 1_554
