# generated using pymatgen
data_Lu6B14MoRu
_symmetry_space_group_name_H-M   'P 1'
_cell_length_a   7.91378832
_cell_length_b   7.91378982
_cell_length_c   9.23094523
_cell_angle_alpha   90.00000000
_cell_angle_beta   90.00000000
_cell_angle_gamma   154.93438534
_symmetry_Int_Tables_number   1
_chemical_formula_structural   Lu6B14MoRu
_chemical_formula_sum   'Lu6 B14 Mo1 Ru1'
_cell_volume   244.92231453
_cell_formula_units_Z   1
loop_
 _symmetry_equiv_pos_site_id
 _symmetry_equiv_pos_as_xyz
  1  'x, y, z'
loop_
 _atom_site_type_symbol
 _atom_site_label
 _atom_site_symmetry_multiplicity
 _atom_site_fract_x
 _atom_site_fract_y
 _atom_site_fract_z
 _atom_site_occupancy
  Lu  Lu0  1  0.25666085  0.74333915  0.25000000  1
  Lu  Lu1  1  0.74430649  0.25569351  0.75000000  1
  Lu  Lu2  1  0.60615183  0.39384817  0.06026082  1
  Lu  Lu3  1  0.39341527  0.60658473  0.94228341  1
  Lu  Lu4  1  0.39341527  0.60658473  0.55771659  1
  Lu  Lu5  1  0.60615183  0.39384817  0.43973918  1
  B  B0  1  0.98028971  0.01971029  0.09623313  1
  B  B1  1  0.01770885  0.98229115  0.90959451  1
  B  B2  1  0.01770885  0.98229115  0.59040549  1
  B  B3  1  0.98028971  0.01971029  0.40376687  1
  B  B4  1  0.77297520  0.22702480  0.03665058  1
  B  B5  1  0.22867019  0.77132981  0.96769468  1
  B  B6  1  0.22867019  0.77132981  0.53230532  1
  B  B7  1  0.77297520  0.22702480  0.46334942  1
  B  B8  1  0.86834401  0.13165599  0.15085586  1
  B  B9  1  0.13482596  0.86517404  0.85351715  1
  B  B10  1  0.13482596  0.86517404  0.64648285  1
  B  B11  1  0.86834401  0.13165599  0.34914414  1
  B  B12  1  0.04623327  0.95376673  0.25000000  1
  B  B13  1  0.94938939  0.05061061  0.75000000  1
  Mo  Mo0  1  0.55219543  0.44780457  0.75000000  1
  Ru  Ru0  1  0.44644851  0.55355149  0.25000000  1
loop_
_geom_bond_atom_site_label_1
_geom_bond_atom_site_label_2
_geom_bond_distance
_geom_bond_site_symmetry_2
Lu0 Ru0 2.932302 1_555
B0 B12 1.747228 1_645
B0 B8 1.801607 1_555
B0 B1 1.817268 1_644
B0 Ru0 2.288487 1_545
B0 Ru0 2.288487 1_655
B0 Lu3 2.601963 1_544
B0 Lu3 2.601964 1_654
B0 Lu2 2.615508 1_655
B0 Lu2 2.615509 1_545
B1 B13 1.812336 1_465
B1 B9 1.882096 1_555
B1 Mo0 2.324501 1_565
B1 Mo0 2.324502 1_455
B1 Lu3 2.593839 1_455
B1 Lu3 2.593841 1_565
B1 Lu2 2.598198 1_566
B1 Lu2 2.598198 1_456
B2 B3 1.817268 1_465
B2 Mo0 2.324501 1_565
B2 Mo0 2.324502 1_455
B2 Lu4 2.593839 1_455
B2 Lu4 2.593841 1_565
B2 Lu5 2.598198 1_565
B2 Lu5 2.598198 1_455
B3 Ru0 2.288487 1_545
B3 Ru0 2.288487 1_655
B3 Lu4 2.601963 1_545
B3 Lu4 2.601964 1_655
B3 Lu5 2.615508 1_655
B3 Lu5 2.615509 1_545
B4 B8 1.811783 1_555
B4 B5 1.955200 1_544
B4 B5 1.955200 1_654
B4 Lu2 2.586692 1_555
B4 Lu0 2.625108 1_545
B4 Lu0 2.625108 1_655
B4 Lu3 2.677804 1_654
B4 Lu3 2.677805 1_544
B4 Lu1 2.682874 1_554
B5 B9 1.792527 1_555
B5 Lu3 2.556169 1_555
B5 Lu0 2.641586 1_556
B5 Lu1 2.654359 1_565
B5 Lu1 2.654359 1_455
B5 Lu2 2.694899 1_456
B5 Lu2 2.694900 1_566
B6 B7 1.955200 1_565
B6 B7 1.955200 1_455
B6 Lu4 2.556169 1_555
B6 Lu0 2.641586 1_555
B6 Lu1 2.654359 1_565
B6 Lu1 2.654359 1_455
B6 Lu5 2.694899 1_455
B6 Lu5 2.694900 1_565
B7 Lu5 2.586692 1_555
B7 Lu0 2.625108 1_545
B7 Lu0 2.625108 1_655
B7 Lu4 2.677804 1_655
B7 Lu4 2.677805 1_545
B7 Lu1 2.682874 1_555
B8 Ru0 2.289733 1_655
B8 Ru0 2.289733 1_545
B8 Lu0 2.600801 1_545
B8 Lu0 2.600802 1_655
B8 Lu3 2.608824 1_654
B8 Lu3 2.608824 1_544
B9 Mo0 2.343514 1_455
B9 Mo0 2.343515 1_565
B9 Lu1 2.592951 1_565
B9 Lu1 2.592952 1_455
B9 Lu2 2.605277 1_456
B9 Lu2 2.605277 1_566
B10 B6 1.792527 1_555
B10 B2 1.882096 1_555
B10 B9 1.911122 1_555
B10 Mo0 2.343514 1_455
B10 Mo0 2.343515 1_565
B10 Lu1 2.592951 1_565
B10 Lu1 2.592952 1_455
B10 Lu5 2.605277 1_455
B10 Lu5 2.605277 1_565
B11 B3 1.801607 1_555
B11 B7 1.811783 1_555
B11 B8 1.830388 1_555
B11 Ru0 2.289733 1_655
B11 Ru0 2.289733 1_545
B11 Lu0 2.600801 1_545
B11 Lu0 2.600802 1_655
B11 Lu4 2.608824 1_655
B11 Lu4 2.608824 1_545
B12 B3 1.747228 1_465
B12 Ru0 2.307801 1_455
B12 Ru0 2.307802 1_565
B12 Lu5 2.621784 1_565
B12 Lu2 2.621784 1_565
B12 Lu5 2.621785 1_455
B12 Lu2 2.621785 1_455
B12 Lu0 3.251198 1_555
B13 B2 1.812336 1_645
B13 Mo0 2.339244 1_655
B13 Mo0 2.339245 1_545
B13 Lu3 2.616763 1_545
B13 Lu4 2.616763 1_545
B13 Lu3 2.616764 1_655
B13 Lu4 2.616764 1_655
B13 Lu1 3.168621 1_555
