# generated using pymatgen
data_KNa2(MnN2)2
_symmetry_space_group_name_H-M   'P 1'
_cell_length_a   5.74099486
_cell_length_b   9.24456106
_cell_length_c   9.72269652
_cell_angle_alpha   90.00000000
_cell_angle_beta   90.00000000
_cell_angle_gamma   90.00000000
_symmetry_Int_Tables_number   1
_chemical_formula_structural   KNa2(MnN2)2
_chemical_formula_sum   'K4 Na8 Mn8 N16'
_cell_volume   516.01245379
_cell_formula_units_Z   4
loop_
 _symmetry_equiv_pos_site_id
 _symmetry_equiv_pos_as_xyz
  1  'x, y, z'
loop_
 _atom_site_type_symbol
 _atom_site_label
 _atom_site_symmetry_multiplicity
 _atom_site_fract_x
 _atom_site_fract_y
 _atom_site_fract_z
 _atom_site_occupancy
  K  K0  1  0.75000000  0.50000000  0.40459589  1
  K  K1  1  0.75000000  0.00000000  0.09540411  1
  K  K2  1  0.25000000  0.50000000  0.59540411  1
  K  K3  1  0.25000000  0.00000000  0.90459589  1
  Na  Na0  1  0.62379696  0.14867364  0.41976949  1
  Na  Na1  1  0.87620304  0.85132636  0.41976949  1
  Na  Na2  1  0.62379696  0.35132636  0.08023051  1
  Na  Na3  1  0.87620304  0.64867364  0.08023051  1
  Na  Na4  1  0.37620304  0.85132636  0.58023051  1
  Na  Na5  1  0.12379696  0.14867364  0.58023051  1
  Na  Na6  1  0.37620304  0.64867364  0.91976949  1
  Na  Na7  1  0.12379696  0.35132636  0.91976949  1
  Mn  Mn0  1  0.75000000  0.50000000  0.74503272  1
  Mn  Mn1  1  0.75000000  0.00000000  0.75496728  1
  Mn  Mn2  1  0.25000000  0.50000000  0.25496728  1
  Mn  Mn3  1  0.25000000  0.00000000  0.24503272  1
  Mn  Mn4  1  0.68433698  0.25000000  0.75000000  1
  Mn  Mn5  1  0.81566302  0.75000000  0.75000000  1
  Mn  Mn6  1  0.31566302  0.75000000  0.25000000  1
  Mn  Mn7  1  0.18433698  0.25000000  0.25000000  1
  N  N0  1  0.86695054  0.35472236  0.64506275  1
  N  N1  1  0.63304946  0.64527764  0.64506275  1
  N  N2  1  0.86695054  0.14527764  0.85493725  1
  N  N3  1  0.63304946  0.85472236  0.85493725  1
  N  N4  1  0.13304946  0.64527764  0.35493725  1
  N  N5  1  0.36695054  0.35472236  0.35493725  1
  N  N6  1  0.13304946  0.85472236  0.14506275  1
  N  N7  1  0.36695054  0.14527764  0.14506275  1
  N  N8  1  0.53923165  0.39727857  0.83965680  1
  N  N9  1  0.96076835  0.60272143  0.83965680  1
  N  N10  1  0.53923165  0.10272143  0.66034320  1
  N  N11  1  0.96076835  0.89727857  0.66034320  1
  N  N12  1  0.46076835  0.60272143  0.16034320  1
  N  N13  1  0.03923165  0.39727857  0.16034320  1
  N  N14  1  0.46076835  0.89727857  0.33965680  1
  N  N15  1  0.03923165  0.10272143  0.33965680  1
loop_
_geom_bond_atom_site_label_1
_geom_bond_atom_site_label_2
_geom_bond_distance
_geom_bond_site_symmetry_2
K0 N4 2.621604 1_655
K0 N5 2.621604 1_555
K0 N1 2.778615 1_555
K0 N0 2.778615 1_555
K0 N13 3.049361 1_655
K0 N12 3.049361 1_555
K1 N6 2.621604 1_645
K1 N7 2.621604 1_555
K1 N2 2.778615 1_554
K1 N3 2.778615 1_544
K1 N15 3.049361 1_655
K1 N14 3.049361 1_545
K2 N1 2.621604 1_555
K2 N0 2.621604 1_455
K2 N4 2.778615 1_555
K2 N5 2.778615 1_555
K2 N9 3.049361 1_455
K2 N8 3.049361 1_555
K3 N2 2.621604 1_455
K3 N3 2.621604 1_545
K3 N7 2.778615 1_556
K3 N6 2.778615 1_546
K3 N10 3.049361 1_555
K3 N11 3.049361 1_445
Mn0 N1 1.788647 1_555
Mn0 N0 1.788647 1_555
Mn0 N9 1.792294 1_555
Mn0 N8 1.792294 1_555
Mn1 N2 1.788647 1_555
Mn1 N3 1.788647 1_545
Mn1 N10 1.792294 1_555
Mn1 N11 1.792294 1_545
Mn2 N4 1.788647 1_555
Mn2 N5 1.788647 1_555
Mn2 N12 1.792294 1_555
Mn2 N13 1.792294 1_555
Mn3 N7 1.788647 1_555
Mn3 N6 1.788647 1_545
Mn3 N15 1.792294 1_555
Mn3 N14 1.792294 1_545
Mn4 N2 1.754225 1_555
Mn4 N0 1.754225 1_555
Mn4 N8 1.818679 1_555
Mn4 N10 1.818679 1_555
Mn5 N3 1.754225 1_555
Mn5 N1 1.754225 1_555
Mn5 N11 1.818679 1_555
Mn5 N9 1.818679 1_555
Mn6 N4 1.754225 1_555
Mn6 N6 1.754225 1_555
Mn6 N14 1.818679 1_555
Mn6 N12 1.818679 1_555
Mn7 N5 1.754225 1_555
Mn7 N7 1.754225 1_555
Mn7 N13 1.818679 1_555
Mn7 N15 1.818679 1_555
N0 Na5 2.489984 1_655
N1 Na4 2.489984 1_555
N2 Na7 2.489984 1_655
N3 Na6 2.489984 1_555
N4 Na1 2.489984 1_455
N5 Na0 2.489984 1_555
N6 Na3 2.489984 1_455
N7 Na2 2.489984 1_555
N8 Na2 2.426355 1_556
N8 Na7 2.544687 1_555
N8 Na6 2.623709 1_555
N9 Na3 2.426355 1_556
N9 Na6 2.544687 1_655
N9 Na7 2.623709 1_655
N10 Na0 2.426355 1_555
N10 Na5 2.544687 1_555
N10 Na4 2.623709 1_545
N11 Na1 2.426355 1_555
N11 Na4 2.544687 1_655
N11 Na5 2.623709 1_665
N12 Na6 2.426355 1_554
N12 Na3 2.544687 1_555
N12 Na2 2.623709 1_555
N13 Na7 2.426355 1_554
N13 Na2 2.544687 1_455
N13 Na3 2.623709 1_455
N14 Na4 2.426355 1_555
N14 Na1 2.544687 1_555
N14 Na0 2.623709 1_565
N15 Na5 2.426355 1_555
N15 Na0 2.544687 1_455
N15 Na1 2.623709 1_445
