# generated using pymatgen
data_Lu12In2CuTc2
_symmetry_space_group_name_H-M   'P 1'
_cell_length_a   8.20894752
_cell_length_b   8.20894902
_cell_length_c   8.20894818
_cell_angle_alpha   108.92552454
_cell_angle_beta   108.92552629
_cell_angle_gamma   110.56820545
_symmetry_Int_Tables_number   1
_chemical_formula_structural   Lu12In2CuTc2
_chemical_formula_sum   'Lu12 In2 Cu1 Tc2'
_cell_volume   425.71702365
_cell_formula_units_Z   1
loop_
 _symmetry_equiv_pos_site_id
 _symmetry_equiv_pos_as_xyz
  1  'x, y, z'
loop_
 _atom_site_type_symbol
 _atom_site_label
 _atom_site_symmetry_multiplicity
 _atom_site_fract_x
 _atom_site_fract_y
 _atom_site_fract_z
 _atom_site_occupancy
  Lu  Lu0  1  0.29680157  0.29680157  0.60984253  1
  Lu  Lu1  1  0.68695904  0.68695904  0.39015747  1
  Lu  Lu2  1  0.68695904  0.29680157  0.00000000  1
  Lu  Lu3  1  0.29680157  0.68695904  0.00000000  1
  Lu  Lu4  1  0.18860763  0.42740835  0.23880072  1
  Lu  Lu5  1  0.80983359  0.56565822  0.75582562  1
  Lu  Lu6  1  0.18860763  0.94980591  0.76119928  1
  Lu  Lu7  1  0.94980591  0.18860763  0.76119928  1
  Lu  Lu8  1  0.80983359  0.05400897  0.24417438  1
  Lu  Lu9  1  0.05400897  0.80983359  0.24417438  1
  Lu  Lu10  1  0.42740835  0.18860763  0.23880072  1
  Lu  Lu11  1  0.56565822  0.80983359  0.75582562  1
  In  In0  1  0.00155658  0.50155658  0.50000000  1
  In  In1  1  0.50155658  0.00155658  0.50000000  1
  Cu  Cu0  1  0.65148599  0.65148599  1.00000000  1
  Tc  Tc0  1  0.38785712  0.38785712  1.00000000  1
  Tc  Tc1  1  0.99625862  0.99625862  0.00000000  1
loop_
_geom_bond_atom_site_label_1
_geom_bond_atom_site_label_2
_geom_bond_distance
_geom_bond_site_symmetry_2
Lu0 Tc0 2.806566 1_555
Lu0 Lu7 3.417653 1_455
Lu0 Lu6 3.417653 1_545
Lu0 Lu8 3.420524 1_455
Lu0 Lu9 3.420525 1_545
Lu0 Lu10 3.499743 1_555
Lu0 Lu4 3.499743 1_555
Lu0 Lu5 3.538789 1_555
Lu0 Lu11 3.538789 1_555
Lu1 Tc0 2.806566 1_554
Lu1 Lu4 3.417646 1_555
Lu1 Lu10 3.417646 1_555
Lu1 Lu11 3.420529 1_555
Lu1 Lu5 3.420529 1_555
Lu1 Lu6 3.499743 1_655
Lu1 Lu7 3.499744 1_565
Lu1 Lu9 3.538797 1_655
Lu1 Lu8 3.538797 1_565
Lu2 Tc0 2.806566 1_554
Lu2 Lu6 3.417648 1_544
Lu2 Lu8 3.420516 1_555
Lu2 Lu7 3.499735 1_554
Lu2 Lu4 3.499742 1_655
Lu2 Lu5 3.538784 1_554
Lu2 Lu9 3.538792 1_655
Lu3 Tc0 2.806566 1_554
Lu3 Lu4 3.417646 1_555
Lu3 Lu7 3.417648 1_454
Lu3 Lu9 3.420516 1_555
Lu3 Lu5 3.420521 1_454
Lu3 Lu6 3.499735 1_554
Lu3 Lu8 3.538792 1_565
Lu4 Tc1 2.902998 1_445
Lu4 Tc0 2.943405 1_554
Lu4 Lu7 3.222683 1_454
Lu4 Lu8 3.541948 1_455
Lu4 Lu9 3.668387 1_555
Lu5 Tc1 2.909915 1_556
Lu5 Lu9 3.295202 1_656
Lu5 Lu6 3.541953 1_655
Lu5 Lu7 3.668380 1_555
Lu6 Tc1 2.902998 1_456
Lu6 Tc0 2.943412 1_565
Lu6 Lu7 3.222697 1_465
Lu6 Lu9 3.668395 1_555
Lu7 Tc1 2.902998 1_546
Lu7 Tc0 2.943412 1_655
Lu7 Lu8 3.668395 1_555
Lu8 Tc1 2.909908 1_545
Lu8 Lu9 3.295216 1_645
Lu9 Tc1 2.909908 1_455
Lu10 Tc1 2.902997 1_445
Lu10 Tc0 2.943405 1_554
Lu10 Lu4 3.222683 1_555
Lu10 Lu6 3.222683 1_544
Lu10 Lu2 3.417646 1_555
Lu10 Lu3 3.499743 1_545
Lu10 Lu9 3.541948 1_545
Lu10 Lu8 3.668387 1_555
Lu10 Lu5 3.668391 1_555
Lu11 Tc1 2.909914 1_556
Lu11 Lu8 3.295202 1_566
Lu11 Lu5 3.295216 1_555
Lu11 Lu2 3.420522 1_566
Lu11 Lu3 3.538784 1_556
Lu11 Lu7 3.541953 1_565
Lu11 Lu6 3.668379 1_555
Lu11 Lu4 3.668391 1_555
In0 Lu8 3.028723 1_455
In0 Lu5 3.028728 1_455
In0 Lu6 3.044906 1_555
In0 Lu4 3.044912 1_555
In0 Lu1 3.455459 1_455
In0 Lu0 3.455459 1_555
In0 Lu3 3.455459 1_556
In0 Lu2 3.455459 1_455
In0 Lu11 3.777300 1_555
In0 Lu9 3.777307 1_555
In0 Lu10 3.843798 1_455
In0 Lu7 3.843798 1_455
In1 Lu9 3.028722 1_545
In1 Lu11 3.028728 1_545
In1 Lu7 3.044905 1_555
In1 Lu10 3.044912 1_555
In1 Lu0 3.455459 1_555
In1 Lu1 3.455459 1_545
In1 Lu2 3.455459 1_556
In1 Lu3 3.455459 1_545
In1 Lu5 3.777301 1_555
In1 Lu8 3.777307 1_555
In1 Lu6 3.843798 1_545
In1 Lu4 3.843798 1_545
Cu0 Tc0 2.464961 1_555
Cu0 Lu5 2.760665 1_555
Cu0 Lu11 2.760665 1_555
Cu0 Lu9 2.760670 1_656
Cu0 Lu8 2.760670 1_566
Cu0 Lu3 3.026196 1_556
Cu0 Lu1 3.026196 1_556
Cu0 Lu2 3.026196 1_556
Cu0 Lu0 3.026196 1_555
Cu0 Tc1 3.223664 1_556
