# generated using pymatgen
data_Zn(FeO2)2
_symmetry_space_group_name_H-M   'P 1'
_cell_length_a   6.00276959
_cell_length_b   6.01435900
_cell_length_c   6.03832544
_cell_angle_alpha   119.86897031
_cell_angle_beta   119.80538583
_cell_angle_gamma   89.99996252
_symmetry_Int_Tables_number   1
_chemical_formula_structural   Zn(FeO2)2
_chemical_formula_sum   'Zn2 Fe4 O8'
_cell_volume   154.90529048
_cell_formula_units_Z   2
loop_
 _symmetry_equiv_pos_site_id
 _symmetry_equiv_pos_as_xyz
  1  'x, y, z'
loop_
 _atom_site_type_symbol
 _atom_site_label
 _atom_site_symmetry_multiplicity
 _atom_site_fract_x
 _atom_site_fract_y
 _atom_site_fract_z
 _atom_site_occupancy
  Zn  Zn0  1  0.62500000  0.37499900  0.74999900  1
  Zn  Zn1  1  0.12500000  0.37499900  0.75000000  1
  Fe  Fe0  1  0.99442800  0.99443600  0.98885900  1
  Fe  Fe1  1  0.25557100  0.75557200  0.51114500  1
  Fe  Fe2  1  0.62500200  0.37499600  0.24999900  1
  Fe  Fe3  1  0.62499800  0.87500600  0.25000200  1
  O  O0  1  0.38842400  0.14422500  0.77684800  1
  O  O1  1  0.38842500  0.63262000  0.77684700  1
  O  O2  1  0.86157500  0.11737800  0.72315100  1
  O  O3  1  0.86157600  0.60577200  0.72315100  1
  O  O4  1  0.86168200  0.62677200  0.25354400  1
  O  O5  1  0.39186200  0.62677200  0.25354500  1
  O  O6  1  0.85813800  0.12322500  0.24645400  1
  O  O7  1  0.38831700  0.12322700  0.24645600  1
loop_
_geom_bond_atom_site_label_1
_geom_bond_atom_site_label_2
_geom_bond_distance
_geom_bond_site_symmetry_2
Fe0 O2 1.914833 1_565
Fe0 O3 1.914895 1_555
Fe0 O6 1.937445 1_566
Fe0 O7 1.937466 1_666
Fe1 O0 1.914841 1_565
Fe1 O1 1.914852 1_555
Fe1 O4 1.937466 1_455
Fe1 O5 1.937474 1_555
Fe2 O0 2.030436 1_554
Fe2 O3 2.030439 1_555
Fe2 O6 2.061400 1_555
Fe2 O7 2.061417 1_555
Fe2 O4 2.061419 1_555
Fe2 O5 2.061438 1_555
Fe3 O2 2.030426 1_565
Fe3 O1 2.030453 1_554
Fe3 O7 2.061378 1_565
Fe3 O6 2.061400 1_565
Fe3 O5 2.061428 1_555
Fe3 O4 2.061447 1_555
O0 Zn1 2.102953 1_555
O0 Zn0 2.102958 1_555
O1 Zn0 2.102943 1_555
O1 Zn1 2.102958 1_555
O2 Zn0 2.102943 1_555
O2 Zn1 2.102950 1_655
O3 Zn1 2.102949 1_655
O3 Zn0 2.102950 1_555
O4 Zn0 2.162444 1_554
O5 Zn1 2.162444 1_554
O6 Zn1 2.162448 1_655
O7 Zn0 2.162435 1_555
