# generated using pymatgen
data_Na5TlSn3
_symmetry_space_group_name_H-M   'P 1'
_cell_length_a   13.62171557
_cell_length_b   7.25905697
_cell_length_c   11.34967641
_cell_angle_alpha   74.93177334
_cell_angle_beta   90.00000000
_cell_angle_gamma   90.00000000
_symmetry_Int_Tables_number   1
_chemical_formula_structural   Na5TlSn3
_chemical_formula_sum   'Na20 Tl4 Sn12'
_cell_volume   1083.67828410
_cell_formula_units_Z   4
loop_
 _symmetry_equiv_pos_site_id
 _symmetry_equiv_pos_as_xyz
  1  'x, y, z'
loop_
 _atom_site_type_symbol
 _atom_site_label
 _atom_site_symmetry_multiplicity
 _atom_site_fract_x
 _atom_site_fract_y
 _atom_site_fract_z
 _atom_site_occupancy
  Na  Na0  1  0.89099886  0.62360646  0.02595341  1
  Na  Na1  1  0.39099886  0.37639354  0.47404659  1
  Na  Na2  1  0.10900114  0.37639354  0.97404659  1
  Na  Na3  1  0.60900114  0.62360646  0.52595341  1
  Na  Na4  1  0.81280007  0.55655883  0.37182642  1
  Na  Na5  1  0.31280007  0.44344117  0.12817358  1
  Na  Na6  1  0.18719993  0.44344117  0.62817358  1
  Na  Na7  1  0.68719993  0.55655883  0.87182642  1
  Na  Na8  1  0.05485031  0.34491694  0.33932882  1
  Na  Na9  1  0.55485031  0.65508306  0.16067118  1
  Na  Na10  1  0.94514969  0.65508306  0.66067118  1
  Na  Na11  1  0.44514969  0.34491694  0.83932882  1
  Na  Na12  1  0.81114831  0.06164320  0.46800006  1
  Na  Na13  1  0.31114831  0.93835680  0.03199994  1
  Na  Na14  1  0.18885169  0.93835680  0.53199994  1
  Na  Na15  1  0.68885169  0.06164320  0.96800006  1
  Na  Na16  1  0.58736537  0.04167250  0.65463716  1
  Na  Na17  1  0.08736537  0.95832750  0.84536284  1
  Na  Na18  1  0.41263463  0.95832750  0.34536284  1
  Na  Na19  1  0.91263463  0.04167250  0.15463716  1
  Tl  Tl0  1  0.52254342  0.22239119  0.11263585  1
  Tl  Tl1  1  0.02254342  0.77760881  0.38736415  1
  Tl  Tl2  1  0.47745658  0.77760881  0.88736415  1
  Tl  Tl3  1  0.97745658  0.22239119  0.61263585  1
  Sn  Sn0  1  0.73463051  0.33700815  0.17229712  1
  Sn  Sn1  1  0.23463051  0.66299185  0.32770288  1
  Sn  Sn2  1  0.26536949  0.66299185  0.82770288  1
  Sn  Sn3  1  0.76536949  0.33700815  0.67229712  1
  Sn  Sn4  1  0.58995398  0.26483355  0.36862289  1
  Sn  Sn5  1  0.08995398  0.73516645  0.13137711  1
  Sn  Sn6  1  0.41004602  0.73516645  0.63137711  1
  Sn  Sn7  1  0.91004602  0.26483355  0.86862289  1
  Sn  Sn8  1  0.16870874  0.05883352  0.21936591  1
  Sn  Sn9  1  0.66870874  0.94116648  0.28063409  1
  Sn  Sn10  1  0.83129126  0.94116648  0.78063409  1
  Sn  Sn11  1  0.33129126  0.05883352  0.71936591  1
loop_
_geom_bond_atom_site_label_1
_geom_bond_atom_site_label_2
_geom_bond_distance
_geom_bond_site_symmetry_2
Na0 Sn0 3.134844 1_555
Na0 Sn5 3.152139 1_655
Na0 Sn10 3.223436 1_554
Na0 Sn7 3.529373 1_554
Na1 Sn1 3.134844 1_555
Na1 Sn4 3.152139 1_555
Na1 Sn11 3.223436 1_555
Na1 Sn6 3.529373 1_555
Na2 Sn2 3.134844 1_555
Na2 Sn7 3.152139 1_455
Na2 Sn8 3.223436 1_556
Na2 Sn5 3.529373 1_556
Na3 Sn3 3.134844 1_555
Na3 Sn6 3.152139 1_555
Na3 Sn9 3.223436 1_555
Na3 Sn4 3.529373 1_555
Na4 Sn0 3.267828 1_555
Na4 Tl1 3.303911 1_655
Na4 Sn9 3.349019 1_555
Na4 Sn3 3.429476 1_555
Na4 Sn4 3.706796 1_555
Na5 Sn1 3.267828 1_555
Na5 Tl0 3.303911 1_555
Na5 Sn8 3.349019 1_555
Na5 Sn2 3.429476 1_554
Na5 Sn5 3.706796 1_555
Na6 Sn2 3.267828 1_555
Na6 Tl3 3.303911 1_455
Na6 Sn11 3.349019 1_555
Na6 Sn1 3.429476 1_555
Na6 Sn6 3.706796 1_555
Na7 Sn3 3.267828 1_555
Na7 Tl2 3.303911 1_555
Na7 Sn10 3.349019 1_555
Na7 Sn0 3.429476 1_556
Na7 Sn7 3.706796 1_555
Na8 Sn8 3.168915 1_555
Na8 Tl3 3.176488 1_455
Na8 Sn5 3.216799 1_555
Na8 Sn1 3.344745 1_555
Na8 Tl1 3.353611 1_555
Na9 Sn9 3.168915 1_555
Na9 Tl2 3.176488 1_554
Na9 Sn4 3.216799 1_555
Na9 Sn0 3.344745 1_555
Na9 Tl0 3.353611 1_555
Na10 Sn10 3.168915 1_555
Na10 Tl1 3.176488 1_655
Na10 Sn7 3.216799 1_555
Na10 Sn3 3.344745 1_555
Na10 Tl3 3.353611 1_555
Na11 Sn11 3.168915 1_555
Na11 Tl0 3.176488 1_556
Na11 Sn6 3.216799 1_555
Na11 Sn2 3.344745 1_555
Na11 Tl2 3.353611 1_555
Na12 Sn9 3.165222 1_545
Na12 Tl3 3.191294 1_555
Na12 Sn4 3.414844 1_555
Na12 Sn10 3.437596 1_545
Na12 Sn3 3.488645 1_555
Na12 Sn0 3.585744 1_555
Na13 Sn8 3.165222 1_565
Na13 Tl2 3.191294 1_554
Na13 Sn5 3.414844 1_555
Na13 Sn11 3.437596 1_564
Na13 Sn2 3.488645 1_554
Na13 Sn1 3.585744 1_555
Na14 Sn11 3.165222 1_565
Na14 Tl1 3.191294 1_555
Na14 Sn6 3.414844 1_555
Na14 Sn8 3.437596 1_565
Na14 Sn1 3.488645 1_555
Na14 Sn2 3.585744 1_555
Na15 Sn10 3.165222 1_545
Na15 Tl0 3.191294 1_556
Na15 Sn7 3.414844 1_555
Na15 Sn9 3.437596 1_546
Na15 Sn0 3.488645 1_556
Na15 Sn3 3.585744 1_555
Na16 Tl2 3.203143 1_545
Na16 Sn4 3.229383 1_555
Na16 Sn3 3.277041 1_555
Na16 Sn6 3.340598 1_545
Na16 Sn11 3.573532 1_555
Na16 Sn10 3.615945 1_545
Na17 Tl3 3.203143 1_465
Na17 Sn5 3.229383 1_556
Na17 Sn2 3.277041 1_555
Na17 Sn7 3.340598 1_465
Na17 Sn10 3.573532 1_455
Na17 Sn11 3.615945 1_565
Na18 Tl0 3.203143 1_565
Na18 Sn6 3.229383 1_555
Na18 Sn1 3.277041 1_555
Na18 Sn4 3.340598 1_565
Na18 Sn9 3.573532 1_555
Na18 Sn8 3.615945 1_565
Na19 Tl1 3.203143 1_645
Na19 Sn7 3.229383 1_554
Na19 Sn0 3.277041 1_555
Na19 Sn5 3.340598 1_645
Na19 Sn8 3.573532 1_655
Na19 Sn9 3.615945 1_545
Sn0 Sn4 2.918280 1_555
Sn0 Sn9 2.955987 1_545
Sn0 Tl0 3.128889 1_555
Sn1 Sn5 2.918280 1_555
Sn1 Sn8 2.955987 1_565
Sn1 Tl1 3.128889 1_555
Sn2 Sn6 2.918280 1_555
Sn2 Tl2 3.128889 1_555
Sn3 Sn7 2.918280 1_555
Sn3 Tl3 3.128889 1_555
Sn4 Sn9 2.981328 1_545
Sn4 Tl0 3.137623 1_555
Sn5 Sn8 2.981328 1_565
Sn5 Tl1 3.137623 1_555
Sn6 Tl2 3.137623 1_555
Sn7 Tl3 3.137623 1_555
Sn8 Tl1 3.121437 1_545
Sn9 Tl0 3.121437 1_565
Sn10 Sn3 2.955987 1_565
Sn10 Sn7 2.981328 1_565
Sn10 Tl3 3.121437 1_565
Sn11 Sn2 2.955987 1_545
Sn11 Sn6 2.981328 1_545
Sn11 Tl2 3.121437 1_545
