# generated using pymatgen
data_Mg2Zr(NbN2)3
_symmetry_space_group_name_H-M   'P 1'
_cell_length_a   5.30538666
_cell_length_b   5.30538675
_cell_length_c   10.59086443
_cell_angle_alpha   90.00000000
_cell_angle_beta   90.00000000
_cell_angle_gamma   119.99999947
_symmetry_Int_Tables_number   1
_chemical_formula_structural   Mg2Zr(NbN2)3
_chemical_formula_sum   'Mg4 Zr2 Nb6 N12'
_cell_volume   258.16426801
_cell_formula_units_Z   2
loop_
 _symmetry_equiv_pos_site_id
 _symmetry_equiv_pos_as_xyz
  1  'x, y, z'
loop_
 _atom_site_type_symbol
 _atom_site_label
 _atom_site_symmetry_multiplicity
 _atom_site_fract_x
 _atom_site_fract_y
 _atom_site_fract_z
 _atom_site_occupancy
  Mg  Mg0  1  0.33333300  0.66666700  0.00000000  1
  Mg  Mg1  1  0.33333300  0.66666700  0.50000000  1
  Mg  Mg2  1  0.66666700  0.33333300  0.50000000  1
  Mg  Mg3  1  0.66666700  0.33333300  0.00000000  1
  Zr  Zr0  1  0.00000000  0.00000000  0.50000000  1
  Zr  Zr1  1  0.00000000  0.00000000  0.00000000  1
  Nb  Nb0  1  1.00000000  0.34064361  0.25000000  1
  Nb  Nb1  1  0.65935639  0.00000000  0.75000000  1
  Nb  Nb2  1  0.34064361  0.34064361  0.75000000  1
  Nb  Nb3  1  0.65935639  0.65935639  0.25000000  1
  Nb  Nb4  1  0.34064361  0.00000000  0.25000000  1
  Nb  Nb5  1  0.00000000  0.65935639  0.75000000  1
  N  N0  1  0.66562048  0.66562048  0.62356508  1
  N  N1  1  0.66562048  0.66562048  0.87643492  1
  N  N2  1  0.33437952  0.33437952  0.12356508  1
  N  N3  1  0.33437952  0.33437952  0.37643492  1
  N  N4  1  0.33437952  0.00000000  0.87643492  1
  N  N5  1  0.33437952  0.00000000  0.62356508  1
  N  N6  1  1.00000000  0.66562048  0.37643492  1
  N  N7  1  1.00000000  0.66562048  0.12356508  1
  N  N8  1  0.66562048  0.00000000  0.12356508  1
  N  N9  1  0.66562048  0.00000000  0.37643492  1
  N  N10  1  0.00000000  0.33437952  0.87643492  1
  N  N11  1  0.00000000  0.33437952  0.62356508  1
loop_
_geom_bond_atom_site_label_1
_geom_bond_atom_site_label_2
_geom_bond_distance
_geom_bond_site_symmetry_2
Mg0 N7 2.197785 1_455
Mg0 N4 2.197785 1_564
Mg0 N10 2.197787 1_554
Mg0 N8 2.197787 1_565
Mg0 N1 2.197789 1_554
Mg0 N2 2.197789 1_555
Mg1 N6 2.197785 1_455
Mg1 N5 2.197785 1_565
Mg1 N11 2.197787 1_555
Mg1 N9 2.197787 1_565
Mg1 N0 2.197789 1_555
Mg1 N3 2.197789 1_555
Mg2 N11 2.197785 1_655
Mg2 N9 2.197785 1_555
Mg2 N6 2.197787 1_555
Mg2 N5 2.197787 1_555
Mg2 N3 2.197789 1_555
Mg2 N0 2.197789 1_555
Mg3 N10 2.197785 1_654
Mg3 N8 2.197785 1_555
Mg3 N7 2.197787 1_555
Mg3 N4 2.197787 1_554
Mg3 N2 2.197789 1_555
Mg3 N1 2.197789 1_554
N0 Nb2 2.183045 1_555
N0 Zr0 2.204476 1_665
N0 Nb5 2.236124 1_655
N0 Nb1 2.236124 1_565
N1 Nb2 2.183045 1_555
N1 Zr1 2.204476 1_666
N1 Nb5 2.236124 1_655
N1 Nb1 2.236124 1_565
N2 Nb3 2.183045 1_555
N2 Zr1 2.204476 1_555
N2 Nb0 2.236124 1_455
N2 Nb4 2.236124 1_555
N3 Nb3 2.183045 1_555
N3 Zr0 2.204476 1_555
N3 Nb0 2.236124 1_455
N3 Nb4 2.236124 1_555
N4 Nb1 2.183045 1_555
N4 Zr1 2.204476 1_556
N4 Nb2 2.236124 1_555
N4 Nb5 2.236124 1_545
N5 Nb1 2.183045 1_555
N5 Zr0 2.204476 1_555
N5 Nb2 2.236124 1_555
N5 Nb5 2.236124 1_545
N6 Nb0 2.183045 1_555
N6 Zr0 2.204476 1_665
N6 Nb3 2.236124 1_555
N6 Nb4 2.236124 1_665
N7 Nb0 2.183045 1_555
N7 Zr1 2.204476 1_665
N7 Nb3 2.236124 1_555
N7 Nb4 2.236124 1_665
N8 Nb4 2.183045 1_555
N8 Zr1 2.204476 1_655
N8 Nb0 2.236124 1_555
N8 Nb3 2.236124 1_545
N9 Nb4 2.183045 1_555
N9 Zr0 2.204476 1_655
N9 Nb0 2.236124 1_555
N9 Nb3 2.236124 1_545
N10 Nb5 2.183045 1_555
N10 Zr1 2.204476 1_556
N10 Nb2 2.236124 1_555
N10 Nb1 2.236124 1_455
N11 Nb5 2.183045 1_555
N11 Zr0 2.204476 1_555
N11 Nb2 2.236124 1_555
N11 Nb1 2.236124 1_455
