# generated using pymatgen
data_K20Zr4As7P5
_symmetry_space_group_name_H-M   'P 1'
_cell_length_a   8.27342599
_cell_length_b   9.04977300
_cell_length_c   17.70350305
_cell_angle_alpha   59.86592559
_cell_angle_beta   89.98375593
_cell_angle_gamma   89.91564983
_symmetry_Int_Tables_number   1
_chemical_formula_structural   K20Zr4As7P5
_chemical_formula_sum   'K20 Zr4 As7 P5'
_cell_volume   1146.36799953
_cell_formula_units_Z   1
loop_
 _symmetry_equiv_pos_site_id
 _symmetry_equiv_pos_as_xyz
  1  'x, y, z'
loop_
 _atom_site_type_symbol
 _atom_site_label
 _atom_site_symmetry_multiplicity
 _atom_site_fract_x
 _atom_site_fract_y
 _atom_site_fract_z
 _atom_site_occupancy
  K  K0  1  0.17520770  0.83776565  0.74469359  1
  K  K1  1  0.67466500  0.16135392  0.75596514  1
  K  K2  1  0.83303962  0.16157196  0.25608283  1
  K  K3  1  0.32313618  0.84438727  0.24468671  1
  K  K4  1  0.17397317  0.17034386  0.41625229  1
  K  K5  1  0.67276611  0.83053414  0.08015125  1
  K  K6  1  0.82693872  0.83095009  0.57982598  1
  K  K7  1  0.32795682  0.16791661  0.92094482  1
  K  K8  1  0.00684283  0.08102163  0.09454528  1
  K  K9  1  0.50840840  0.92211277  0.40564106  1
  K  K10  1  0.99424259  0.91944971  0.90682679  1
  K  K11  1  0.49337864  0.07891541  0.59403921  1
  K  K12  1  0.51806226  0.25069655  0.08141224  1
  K  K13  1  0.01429913  0.73897138  0.42389748  1
  K  K14  1  0.48222537  0.74484271  0.92168181  1
  K  K15  1  0.98193901  0.24874924  0.57972075  1
  K  K16  1  0.98628016  0.54235867  0.25882934  1
  K  K17  1  0.48443280  0.45869497  0.23920653  1
  K  K18  1  0.01310137  0.45996394  0.74081030  1
  K  K19  1  0.51272036  0.53907882  0.76050151  1
  Zr  Zr0  1  0.36949432  0.49597172  0.57995777  1
  Zr  Zr1  1  0.87019498  0.50407643  0.92001555  1
  Zr  Zr2  1  0.62885874  0.50545601  0.41859583  1
  Zr  Zr3  1  0.13140559  0.49332482  0.08173029  1
  As  As0  1  0.71621053  0.79051776  0.27831361  1
  As  As1  1  0.78281985  0.78740538  0.77862069  1
  As  As2  1  0.28253512  0.21351844  0.72095982  1
  As  As3  1  0.25044513  0.76579661  0.07933120  1
  As  As4  1  0.75081667  0.23521934  0.42072468  1
  As  As5  1  0.74996915  0.23379277  0.92191203  1
  As  As6  1  0.24899802  0.76744249  0.57732216  1
  P  P0  1  0.31985316  0.48866885  0.43824617  1
  P  P1  1  0.82074328  0.50938493  0.06207102  1
  P  P2  1  0.67883121  0.51065079  0.56062610  1
  P  P3  1  0.17948826  0.48798823  0.93895880  1
  P  P4  1  0.21572177  0.22110914  0.21689734  1
loop_
_geom_bond_atom_site_label_1
_geom_bond_atom_site_label_2
_geom_bond_distance
_geom_bond_site_symmetry_2
K0 P3 3.304275 1_555
K1 P2 3.313151 1_555
K2 P4 3.228650 1_655
K2 P1 3.295352 1_555
K3 P4 3.310899 1_565
K3 P0 3.321204 1_555
K4 P0 3.323227 1_555
K4 P4 3.340359 1_555
K5 P1 3.312308 1_555
K6 P2 3.319499 1_555
K7 P3 3.304160 1_555
K8 P4 3.471492 1_555
K8 P3 3.608186 1_554
K9 P2 3.620823 1_555
K10 P1 3.627455 1_556
K11 P0 3.624413 1_555
K12 P1 3.328791 1_555
K12 P4 3.381639 1_555
K12 P3 3.656065 1_554
K13 P0 3.315421 1_555
K13 P2 3.580937 1_455
K14 P3 3.327609 1_555
K14 P1 3.637377 1_556
K15 P2 3.346515 1_555
K15 P0 3.654726 1_655
K17 P4 3.254004 1_555
As0 Zr2 2.629989 1_555
As0 K3 3.297433 1_555
As0 K16 3.304188 1_555
As0 K2 3.323771 1_565
As0 K5 3.360405 1_555
As0 K13 3.425724 1_655
As0 K9 3.484580 1_555
As0 K8 3.834593 1_665
As1 Zr1 2.629481 1_555
As1 K0 3.291797 1_655
As1 K19 3.299377 1_555
As1 K1 3.323024 1_565
As1 K6 3.358816 1_555
As1 K14 3.430379 1_555
As1 K10 3.517209 1_555
As1 K11 3.834375 1_565
As1 K18 3.851379 1_655
As2 Zr0 2.623063 1_555
As2 K1 3.291657 1_555
As2 K18 3.292196 1_555
As2 K0 3.332024 1_545
As2 K7 3.373352 1_555
As2 K15 3.426296 1_455
As2 K11 3.509296 1_555
As2 K10 3.849752 1_445
As3 Zr3 2.637033 1_555
As3 K7 3.358149 1_564
As3 K10 3.388849 1_454
As3 K3 3.395549 1_555
As3 K17 3.401731 1_555
As3 K14 3.468411 1_554
As3 K16 3.538485 1_455
As3 K5 3.544907 1_555
As3 K8 3.609252 1_565
As4 Zr2 2.626899 1_555
As4 K2 3.369084 1_555
As4 K6 3.370868 1_545
As4 K11 3.405742 1_555
As4 K16 3.427761 1_555
As4 K15 3.456040 1_555
As4 K4 3.556418 1_655
As4 K17 3.569245 1_555
As4 K9 3.591552 1_545
As5 Zr1 2.626433 1_555
As5 K5 3.363767 1_546
As5 K1 3.374134 1_555
As5 K8 3.394263 1_656
As5 K19 3.422242 1_555
As5 K12 3.479626 1_556
As5 K7 3.544376 1_555
As5 K18 3.553633 1_655
As5 K10 3.604684 1_545
As6 Zr0 2.628565 1_555
As6 K4 3.371357 1_565
As6 K0 3.383584 1_555
As6 K9 3.396586 1_555
As6 K18 3.443170 1_555
As6 K13 3.452747 1_555
As6 K6 3.541901 1_455
As6 K19 3.579076 1_555
As6 K11 3.602172 1_565
P0 Zr2 2.574402 1_555
P0 Zr0 2.575698 1_555
P1 Zr1 2.571961 1_554
P1 Zr3 2.587859 1_655
P2 Zr2 2.571936 1_555
P2 Zr0 2.576727 1_555
P3 Zr1 2.575282 1_455
P3 Zr3 2.582839 1_556
P4 Zr3 2.521621 1_555
