# generated using pymatgen
data_Ta6CrSi6Tc5
_symmetry_space_group_name_H-M   'P 1'
_cell_length_a   7.48079624
_cell_length_b   7.48087723
_cell_length_c   7.48087629
_cell_angle_alpha   127.36343760
_cell_angle_beta   124.94604538
_cell_angle_gamma   79.64949172
_symmetry_Int_Tables_number   1
_chemical_formula_structural   Ta6CrSi6Tc5
_chemical_formula_sum   'Ta6 Cr1 Si6 Tc5'
_cell_volume   263.52993149
_cell_formula_units_Z   1
loop_
 _symmetry_equiv_pos_site_id
 _symmetry_equiv_pos_as_xyz
  1  'x, y, z'
loop_
 _atom_site_type_symbol
 _atom_site_label
 _atom_site_symmetry_multiplicity
 _atom_site_fract_x
 _atom_site_fract_y
 _atom_site_fract_z
 _atom_site_occupancy
  Ta  Ta0  1  0.55706081  0.09780067  0.04411914  1
  Ta  Ta1  1  0.44293919  0.48705833  0.54073986  1
  Ta  Ta2  1  0.96186081  0.49669595  0.03636197  1
  Ta  Ta3  1  0.03813919  0.07450016  0.53483513  1
  Ta  Ta4  1  0.75586056  0.91427600  0.66406423  1
  Ta  Ta5  1  0.24413944  0.90820367  0.15841645  1
  Cr  Cr0  1  0.00000000  0.24387898  0.24387898  1
  Si  Si0  1  0.33640786  0.82570812  0.49725937  1
  Si  Si1  1  0.66359214  0.16085051  0.48930026  1
  Si  Si2  1  0.82874382  0.82832586  0.99122117  1
  Si  Si3  1  0.17125618  0.16247735  0.99958304  1
  Si  Si4  1  0.77435133  0.52536249  0.25712550  1
  Si  Si5  1  0.22564867  0.48277416  0.75101116  1
  Tc  Tc0  1  0.15764658  0.74993734  0.65313117  1
  Tc  Tc1  1  0.84235342  0.49548359  0.59229176  1
  Tc  Tc2  1  0.59735627  0.74851408  0.09288638  1
  Tc  Tc3  1  0.40264373  0.49552911  0.15115782  1
  Tc  Tc4  1  0.50000000  0.24461862  0.74461862  1
loop_
_geom_bond_atom_site_label_1
_geom_bond_atom_site_label_2
_geom_bond_distance
_geom_bond_site_symmetry_2
Ta0 Tc1 2.769449 1_555
Ta0 Tc3 2.785900 1_555
Ta0 Tc0 2.792592 1_544
Ta0 Tc2 2.792771 1_545
Ta0 Tc4 2.851521 1_554
Ta1 Tc0 2.769448 1_555
Ta1 Tc2 2.785906 1_556
Ta1 Tc1 2.792587 1_555
Ta1 Tc3 2.792766 1_555
Ta1 Tc4 2.851521 1_555
Ta2 Tc3 2.892260 1_655
Ta2 Tc1 2.898139 1_554
Ta2 Tc4 2.994030 1_554
Ta2 Tc0 3.109483 1_655
Ta2 Tc2 3.109851 1_555
Ta3 Tc2 2.892258 1_445
Ta3 Tc0 2.898144 1_545
Ta3 Tc4 2.994032 1_555
Ta3 Tc1 3.109482 1_455
Ta3 Tc3 3.109852 1_556
Ta4 Tc4 2.819211 1_565
Ta4 Tc1 2.854840 1_555
Ta4 Tc3 2.878936 1_555
Ta4 Tc0 3.063328 1_655
Ta4 Tc2 3.081300 1_555
Ta5 Tc4 2.819207 1_565
Ta5 Tc0 2.854837 1_554
Ta5 Tc2 2.878936 1_555
Ta5 Tc1 3.063331 1_454
Ta5 Tc3 3.081305 1_555
Cr0 Si4 2.440184 1_455
Cr0 Si5 2.440184 1_555
Cr0 Si3 2.530456 1_554
Cr0 Si2 2.530463 1_444
Cr0 Ta5 2.791278 1_545
Cr0 Ta4 2.791278 1_444
Cr0 Ta0 2.837831 1_455
Cr0 Ta1 2.837831 1_555
Cr0 Tc0 2.914846 1_555
Cr0 Tc1 2.914851 1_455
Cr0 Ta2 2.988420 1_455
Cr0 Ta3 2.988426 1_555
Si0 Tc3 2.513559 1_555
Si0 Tc0 2.516010 1_555
Si0 Tc4 2.547158 1_565
Si0 Ta2 2.628172 1_455
Si0 Ta0 2.639760 1_566
Si0 Ta5 2.650272 1_555
Si0 Ta4 2.664592 1_555
Si0 Ta3 2.667007 1_565
Si0 Ta1 2.671466 1_555
Si1 Tc2 2.513553 1_545
Si1 Tc1 2.516006 1_555
Si1 Tc4 2.547155 1_555
Si1 Ta3 2.628172 1_655
Si1 Ta1 2.639765 1_555
Si1 Ta4 2.650272 1_545
Si1 Ta5 2.664591 1_545
Si1 Ta2 2.667012 1_556
Si1 Ta0 2.671470 1_555
Si2 Tc1 2.520790 1_555
Si2 Tc2 2.522268 1_556
Si2 Ta0 2.613813 1_566
Si2 Ta5 2.624004 1_656
Si2 Ta4 2.637403 1_555
Si2 Ta2 2.646567 1_556
Si2 Ta3 2.651818 1_666
Si2 Ta1 2.695755 1_555
Si3 Tc0 2.520795 1_545
Si3 Tc3 2.522266 1_556
Si3 Ta1 2.613810 1_556
Si3 Ta4 2.624006 1_445
Si3 Ta5 2.637403 1_546
Si3 Ta3 2.646570 1_555
Si3 Ta2 2.651818 1_456
Si3 Ta0 2.695758 1_556
Si4 Tc1 2.402837 1_555
Si4 Tc0 2.404021 1_655
Si4 Tc2 2.425084 1_555
Si4 Tc3 2.427617 1_555
Si4 Tc4 2.466523 1_554
Si4 Ta2 2.618595 1_555
Si4 Ta4 2.709068 1_555
Si4 Ta0 2.850761 1_555
Si5 Tc0 2.402824 1_555
Si5 Tc1 2.404021 1_455
Si5 Tc3 2.425089 1_556
Si5 Tc2 2.427616 1_556
Si5 Tc4 2.466523 1_555
Si5 Ta3 2.618602 1_555
Si5 Ta5 2.709071 1_556
Si5 Ta1 2.850761 1_555
Tc0 Tc1 2.953948 1_455
Tc0 Tc2 3.045589 1_556
Tc1 Tc3 3.045592 1_555
Tc2 Tc4 2.901819 1_554
Tc2 Tc3 2.934760 1_555
Tc3 Tc4 2.901818 1_554
