# generated using pymatgen
data_CsYZrS4
_symmetry_space_group_name_H-M   'P 1'
_cell_length_a   3.89778995
_cell_length_b   6.62824961
_cell_length_c   8.58140430
_cell_angle_alpha   75.15933467
_cell_angle_beta   90.00000000
_cell_angle_gamma   90.00000000
_symmetry_Int_Tables_number   1
_chemical_formula_structural   CsYZrS4
_chemical_formula_sum   'Cs1 Y1 Zr1 S4'
_cell_volume   214.30941031
_cell_formula_units_Z   1
loop_
 _symmetry_equiv_pos_site_id
 _symmetry_equiv_pos_as_xyz
  1  'x, y, z'
loop_
 _atom_site_type_symbol
 _atom_site_label
 _atom_site_symmetry_multiplicity
 _atom_site_fract_x
 _atom_site_fract_y
 _atom_site_fract_z
 _atom_site_occupancy
  Cs  Cs0  1  0.00000000  0.50000000  0.50000000  1
  Y  Y0  1  0.50000000  0.50000000  0.00000000  1
  Zr  Zr0  1  0.00000000  0.00000000  0.00000000  1
  S  S0  1  0.50000000  0.79272705  0.17409383  1
  S  S1  1  0.00000000  0.25805939  0.17478413  1
  S  S2  1  0.50000000  0.20727295  0.82590617  1
  S  S3  1  0.00000000  0.74194061  0.82521587  1
loop_
_geom_bond_atom_site_label_1
_geom_bond_atom_site_label_2
_geom_bond_distance
_geom_bond_site_symmetry_2
Cs0 S2 3.550323 1_455
Cs0 S2 3.550323 1_555
Cs0 S0 3.550323 1_555
Cs0 S0 3.550323 1_455
Cs0 S3 3.557092 1_555
Cs0 S1 3.557092 1_555
S0 Zr0 2.620343 1_565
S0 Zr0 2.620343 1_665
S0 Y0 2.735230 1_555
S1 Zr0 2.547482 1_555
S1 Y0 2.717977 1_555
S1 Y0 2.717977 1_455
S2 Zr0 2.620343 1_656
S2 Zr0 2.620343 1_556
S2 Y0 2.735230 1_556
S3 Zr0 2.547482 1_566
S3 Y0 2.717977 1_556
S3 Y0 2.717977 1_456
