# generated using pymatgen
data_V10SiB4As
_symmetry_space_group_name_H-M   'P 1'
_cell_length_a   6.74129052
_cell_length_b   6.74129072
_cell_length_c   6.74129184
_cell_angle_alpha   129.32448437
_cell_angle_beta   129.32449170
_cell_angle_gamma   74.48902209
_symmetry_Int_Tables_number   1
_chemical_formula_structural   V10SiB4As
_chemical_formula_sum   'V10 Si1 B4 As1'
_cell_volume   178.66037533
_cell_formula_units_Z   1
loop_
 _symmetry_equiv_pos_site_id
 _symmetry_equiv_pos_as_xyz
  1  'x, y, z'
loop_
 _atom_site_type_symbol
 _atom_site_label
 _atom_site_symmetry_multiplicity
 _atom_site_fract_x
 _atom_site_fract_y
 _atom_site_fract_z
 _atom_site_occupancy
  V  V0  1  0.53356544  0.69671607  0.50418277  1
  V  V1  1  0.02938268  0.53356544  0.83684938  1
  V  V2  1  0.69671607  0.19253330  0.16315062  1
  V  V3  1  0.96643456  0.47061732  0.16315062  1
  V  V4  1  0.19253330  0.02938268  0.49581723  1
  V  V5  1  0.47061732  0.30746670  0.50418277  1
  V  V6  1  0.80328393  0.96643456  0.49581723  1
  V  V7  1  0.30746670  0.80328393  0.83684938  1
  V  V8  1  0.99900206  0.99900206  1.00000000  1
  V  V9  1  0.50099794  0.50099794  0.00000000  1
  Si  Si0  1  0.75000000  0.75000000  0.00000000  1
  B  B0  1  0.61553080  0.11553080  0.73106061  1
  B  B1  1  0.11553080  0.38446920  0.50000000  1
  B  B2  1  0.88446920  0.61553080  0.50000000  1
  B  B3  1  0.38446920  0.88446920  0.26893939  1
  As  As0  1  0.25000000  0.25000000  0.00000000  1
loop_
_geom_bond_atom_site_label_1
_geom_bond_atom_site_label_2
_geom_bond_distance
_geom_bond_site_symmetry_2
V0 V8 2.581555 1_555
V0 V9 2.620431 1_555
V1 V8 2.581556 1_455
V1 V9 2.620430 1_556
V2 V8 2.581556 1_544
V2 V9 2.620431 1_555
V3 V9 2.581555 1_555
V3 V8 2.620431 1_544
V4 V8 2.581556 1_444
V4 V9 2.620430 1_556
V5 V9 2.581556 1_556
V5 V8 2.620430 1_444
V6 V9 2.581555 1_555
V6 V8 2.620431 1_555
V7 V9 2.581556 1_556
V7 V8 2.620431 1_455
Si0 V4 2.451014 1_665
Si0 V7 2.451014 1_554
Si0 V5 2.451014 1_554
Si0 V2 2.451014 1_565
Si0 V3 2.451014 1_555
Si0 V1 2.451014 1_654
Si0 V0 2.451014 1_554
Si0 V6 2.451014 1_555
Si0 V8 2.672525 1_554
Si0 V9 2.672525 1_555
B0 B3 1.885431 1_545
B0 V5 2.214983 1_555
B0 V0 2.214989 1_545
B0 V6 2.229462 1_545
B0 V4 2.229468 1_555
B0 V3 2.295357 1_556
B0 V2 2.295365 1_556
B0 V8 2.316374 1_545
B0 V9 2.316374 1_556
B1 B2 1.885439 1_455
B1 V2 2.214987 1_455
B1 V7 2.214987 1_555
B1 V3 2.229467 1_455
B1 V1 2.229467 1_555
B1 V5 2.295358 1_555
B1 V4 2.295358 1_555
B1 V9 2.316372 1_556
B1 V8 2.316372 1_444
B2 V1 2.214988 1_655
B2 V3 2.214988 1_555
B2 V7 2.229466 1_655
B2 V2 2.229467 1_555
B2 V0 2.295358 1_555
B2 V6 2.295358 1_555
B2 V9 2.316372 1_555
B2 V8 2.316372 1_555
B3 V4 2.214983 1_565
B3 V6 2.214989 1_555
B3 V0 2.229462 1_555
B3 V5 2.229468 1_565
B3 V1 2.295357 1_554
B3 V7 2.295365 1_554
B3 V8 2.316374 1_454
B3 V9 2.316374 1_555
As0 V6 2.479258 1_444
As0 V2 2.479258 1_555
As0 V0 2.479258 1_555
As0 V7 2.479258 1_544
As0 V1 2.479258 1_554
As0 V3 2.479258 1_455
As0 V5 2.479259 1_555
As0 V4 2.479259 1_554
As0 V9 2.693947 1_555
As0 V8 2.693947 1_444
