# generated using pymatgen
data_CsGa2PSe6
_symmetry_space_group_name_H-M   'P 1'
_cell_length_a   6.64455522
_cell_length_b   6.67423480
_cell_length_c   6.95544013
_cell_angle_alpha   99.15650967
_cell_angle_beta   104.96282978
_cell_angle_gamma   97.67450618
_symmetry_Int_Tables_number   1
_chemical_formula_structural   CsGa2PSe6
_chemical_formula_sum   'Cs1 Ga2 P1 Se6'
_cell_volume   289.22593380
_cell_formula_units_Z   1
loop_
 _symmetry_equiv_pos_site_id
 _symmetry_equiv_pos_as_xyz
  1  'x, y, z'
loop_
 _atom_site_type_symbol
 _atom_site_label
 _atom_site_symmetry_multiplicity
 _atom_site_fract_x
 _atom_site_fract_y
 _atom_site_fract_z
 _atom_site_occupancy
  Cs  Cs0  1  0.01439711  0.99805577  0.98339754  1
  Ga  Ga0  1  0.55276695  0.37404318  0.79656851  1
  Ga  Ga1  1  0.78458755  0.52291716  0.39551792  1
  P  P0  1  0.37243129  0.80239305  0.53255513  1
  Se  Se0  1  0.65444722  0.85094158  0.41968718  1
  Se  Se1  1  0.42824151  0.70750187  0.83073118  1
  Se  Se2  1  0.87566496  0.42251752  0.71336095  1
  Se  Se3  1  0.11207231  0.58843690  0.28875645  1
  Se  Se4  1  0.25768446  0.10207171  0.56104289  1
  Se  Se5  1  0.58001766  0.26353127  0.11069224  1
loop_
_geom_bond_atom_site_label_1
_geom_bond_atom_site_label_2
_geom_bond_distance
_geom_bond_site_symmetry_2
Cs0 Se2 3.728272 1_465
Cs0 Se3 3.743857 1_556
Cs0 Se5 3.748597 1_566
Cs0 Se5 3.800008 1_466
Cs0 Se4 3.811372 1_565
Cs0 Se4 3.833583 1_566
Cs0 Se1 3.837487 1_555
Cs0 Se2 3.872579 1_455
Cs0 Se1 3.904987 1_455
Cs0 Se0 3.919509 1_455
Cs0 Se3 4.049707 1_566
Ga0 Se2 2.357592 1_555
Ga0 Se5 2.386365 1_556
Ga0 Se1 2.473732 1_555
Ga0 Se4 2.503460 1_555
Ga1 Se2 2.364644 1_555
Ga1 Se5 2.378825 1_555
Ga1 Se0 2.456149 1_555
Ga1 Se3 2.482169 1_655
P0 Se0 2.216102 1_555
P0 Se1 2.218893 1_555
P0 Se3 2.227581 1_555
P0 Se4 2.231652 1_565
