# generated using pymatgen
data_MgPd2PtO6
_symmetry_space_group_name_H-M   'P 1'
_cell_length_a   6.08807555
_cell_length_b   6.09205142
_cell_length_c   3.15684576
_cell_angle_alpha   90.00000000
_cell_angle_beta   90.00000000
_cell_angle_gamma   108.82577991
_symmetry_Int_Tables_number   1
_chemical_formula_structural   MgPd2PtO6
_chemical_formula_sum   'Mg1 Pd2 Pt1 O6'
_cell_volume   110.82034189
_cell_formula_units_Z   1
loop_
 _symmetry_equiv_pos_site_id
 _symmetry_equiv_pos_as_xyz
  1  'x, y, z'
loop_
 _atom_site_type_symbol
 _atom_site_label
 _atom_site_symmetry_multiplicity
 _atom_site_fract_x
 _atom_site_fract_y
 _atom_site_fract_z
 _atom_site_occupancy
  Mg  Mg0  1  0.50000000  0.50000000  0.00000000  1
  Pd  Pd0  1  0.00000000  0.00000000  0.00000000  1
  Pd  Pd1  1  0.00000000  0.50000000  0.50000000  1
  Pt  Pt0  1  0.50000000  0.00000000  0.50000000  1
  O  O0  1  0.08259766  0.33682585  0.00000000  1
  O  O1  1  0.91740234  0.66317415  0.00000000  1
  O  O2  1  0.33978930  0.08636990  0.00000000  1
  O  O3  1  0.66021070  0.91363010  0.00000000  1
  O  O4  1  0.64803587  0.35104039  0.50000000  1
  O  O5  1  0.35196413  0.64895961  0.50000000  1
loop_
_geom_bond_atom_site_label_1
_geom_bond_atom_site_label_2
_geom_bond_distance
_geom_bond_site_symmetry_2
Mg0 O5 2.157547 1_555
Mg0 O5 2.157547 1_554
Mg0 O4 2.157547 1_554
Mg0 O4 2.157547 1_555
Mg0 O3 2.390566 1_555
Mg0 O2 2.390566 1_555
Mg0 O1 2.411524 1_555
Mg0 O0 2.411524 1_555
O0 Pd0 1.948710 1_555
O0 Pd1 2.013719 1_555
O0 Pd1 2.013719 1_554
O1 Pd0 1.948710 1_665
O1 Pd1 2.013719 1_655
O1 Pd1 2.013719 1_654
O2 Pd0 1.963095 1_555
O2 Pt0 2.012672 1_555
O2 Pt0 2.012672 1_554
O3 Pd0 1.963095 1_665
O3 Pt0 2.012672 1_564
O3 Pt0 2.012672 1_565
O4 Pt0 2.035137 1_555
O4 Pd1 2.039625 1_655
O5 Pt0 2.035137 1_565
O5 Pd1 2.039625 1_555
