# generated using pymatgen
data_HfTi6Tc12W5
_symmetry_space_group_name_H-M   'P 1'
_cell_length_a   4.40280568
_cell_length_b   6.23098518
_cell_length_c   13.21703415
_cell_angle_alpha   90.00000000
_cell_angle_beta   90.00068130
_cell_angle_gamma   90.00000000
_symmetry_Int_Tables_number   1
_chemical_formula_structural   HfTi6Tc12W5
_chemical_formula_sum   'Hf1 Ti6 Tc12 W5'
_cell_volume   362.59369594
_cell_formula_units_Z   1
loop_
 _symmetry_equiv_pos_site_id
 _symmetry_equiv_pos_as_xyz
  1  'x, y, z'
loop_
 _atom_site_type_symbol
 _atom_site_label
 _atom_site_symmetry_multiplicity
 _atom_site_fract_x
 _atom_site_fract_y
 _atom_site_fract_z
 _atom_site_occupancy
  Hf  Hf0  1  0.00000000  0.50000000  0.00000000  1
  Ti  Ti0  1  0.00000000  0.00000000  0.00000000  1
  Ti  Ti1  1  0.49995892  0.50000000  0.16823603  1
  Ti  Ti2  1  0.99995157  0.00000000  0.33319658  1
  Ti  Ti3  1  0.49999900  0.50000000  0.50000000  1
  Ti  Ti4  1  0.00004943  0.00000000  0.66680442  1
  Ti  Ti5  1  0.50004008  0.50000000  0.83176397  1
  Tc  Tc0  1  0.49999900  0.24247831  0.00000000  1
  Tc  Tc1  1  0.49999900  0.75752169  0.00000000  1
  Tc  Tc2  1  0.99995295  0.24678701  0.17163959  1
  Tc  Tc3  1  0.99995295  0.75321299  0.17163959  1
  Tc  Tc4  1  0.49995931  0.25019878  0.33500935  1
  Tc  Tc5  1  0.49995931  0.74980122  0.33500935  1
  Tc  Tc6  1  0.00000000  0.24981868  0.50000000  1
  Tc  Tc7  1  0.00000000  0.75018132  0.50000000  1
  Tc  Tc8  1  0.50003969  0.25019878  0.66499065  1
  Tc  Tc9  1  0.50003969  0.74980122  0.66499065  1
  Tc  Tc10  1  0.00004805  0.24678701  0.82836041  1
  Tc  Tc11  1  0.00004805  0.75321299  0.82836041  1
  W  W0  1  0.49994778  0.00000000  0.16698685  1
  W  W1  1  0.99994260  0.50000000  0.33429085  1
  W  W2  1  0.49999900  0.00000000  0.50000000  1
  W  W3  1  0.00005840  0.50000000  0.66570815  1
  W  W4  1  0.50005122  0.00000000  0.83301315  1
loop_
_geom_bond_atom_site_label_1
_geom_bond_atom_site_label_2
_geom_bond_distance
_geom_bond_site_symmetry_2
Hf0 Tc1 2.724140 1_555
Hf0 Tc0 2.724140 1_555
Hf0 Tc1 2.724147 1_455
Hf0 Tc0 2.724147 1_455
Hf0 Tc3 2.763284 1_455
Hf0 Tc2 2.763284 1_455
Hf0 Tc11 2.763284 1_554
Hf0 Tc10 2.763284 1_554
Ti3 W3 3.105154 1_555
Ti3 W1 3.105173 1_555
Ti3 W1 3.105488 1_455
Ti3 W3 3.105488 1_655
Ti3 W2 3.115493 1_565
Ti3 W2 3.115493 1_555
Tc0 Ti0 2.670002 1_555
Tc0 Ti0 2.670009 1_655
Tc0 W0 2.674681 1_555
Tc0 W4 2.674681 1_554
Tc0 Ti1 2.742098 1_555
Tc0 Ti5 2.742098 1_554
Tc1 Ti0 2.670002 1_565
Tc1 Ti0 2.670009 1_665
Tc1 W0 2.674681 1_565
Tc1 W4 2.674681 1_564
Tc1 Ti1 2.742098 1_555
Tc1 Ti5 2.742098 1_554
Tc2 Ti2 2.631373 1_555
Tc2 W1 2.666617 1_555
Tc2 W0 2.685975 1_655
Tc2 W0 2.686011 1_555
Tc2 Ti1 2.708768 1_555
Tc2 Ti1 2.708812 1_655
Tc2 Ti0 2.740619 1_655
Tc3 Ti2 2.631373 1_565
Tc3 W1 2.666617 1_555
Tc3 W0 2.685975 1_665
Tc3 W0 2.686011 1_565
Tc3 Ti1 2.708768 1_555
Tc3 Ti1 2.708812 1_655
Tc3 Ti0 2.740619 1_665
Tc4 Ti3 2.679200 1_555
Tc4 W2 2.680640 1_555
Tc4 W1 2.696045 1_555
Tc4 W1 2.696165 1_455
Tc4 Ti2 2.697598 1_555
Tc4 Ti2 2.697653 1_455
Tc4 Ti1 2.698412 1_555
Tc4 W0 2.713338 1_555
Tc5 Ti3 2.679200 1_555
Tc5 W2 2.680640 1_565
Tc5 W1 2.696045 1_555
Tc5 W1 2.696165 1_455
Tc5 Ti2 2.697598 1_565
Tc5 Ti2 2.697653 1_465
Tc5 Ti1 2.698412 1_555
Tc5 W0 2.713338 1_565
Tc6 W3 2.688297 1_555
Tc6 W1 2.688308 1_455
Tc6 W2 2.696147 1_555
Tc6 W2 2.696154 1_455
Tc6 Ti3 2.697452 1_555
Tc6 Ti3 2.697460 1_455
Tc6 Ti2 2.698800 1_455
Tc6 Ti4 2.698811 1_555
Tc7 W3 2.688297 1_555
Tc7 W1 2.688308 1_455
Tc7 W2 2.696147 1_565
Tc7 W2 2.696154 1_465
Tc7 Ti3 2.697452 1_555
Tc7 Ti3 2.697460 1_455
Tc7 Ti2 2.698800 1_465
Tc7 Ti4 2.698811 1_565
Tc8 Ti3 2.679200 1_555
Tc8 W2 2.680640 1_555
Tc8 W3 2.696038 1_555
Tc8 W3 2.696172 1_655
Tc8 Ti4 2.697591 1_555
Tc8 Ti4 2.697660 1_655
Tc8 Ti5 2.698412 1_555
Tc8 W4 2.713338 1_555
Tc9 Ti3 2.679200 1_555
Tc9 W2 2.680640 1_565
Tc9 W3 2.696038 1_555
Tc9 W3 2.696172 1_655
Tc9 Ti4 2.697591 1_565
Tc9 Ti4 2.697660 1_665
Tc9 Ti5 2.698412 1_555
Tc9 W4 2.713338 1_565
Tc10 Ti4 2.631363 1_555
Tc10 W3 2.666628 1_555
Tc10 W4 2.685982 1_455
Tc10 W4 2.686004 1_555
Tc10 Ti5 2.708761 1_555
Tc10 Ti5 2.708819 1_455
Tc10 Ti0 2.740619 1_556
Tc11 Ti4 2.631363 1_565
Tc11 W3 2.666628 1_555
Tc11 W4 2.685982 1_465
Tc11 W4 2.686004 1_565
Tc11 Ti5 2.708761 1_555
Tc11 Ti5 2.708819 1_455
Tc11 Ti0 2.740619 1_566
