# generated using pymatgen
data_Cs3Rh2Cl9
_symmetry_space_group_name_H-M   'P 1'
_cell_length_a   7.25072264
_cell_length_b   7.25072268
_cell_length_c   18.29009131
_cell_angle_alpha   90.00000000
_cell_angle_beta   90.00000000
_cell_angle_gamma   120.00000405
_symmetry_Int_Tables_number   1
_chemical_formula_structural   Cs3Rh2Cl9
_chemical_formula_sum   'Cs6 Rh4 Cl18'
_cell_volume   832.73932708
_cell_formula_units_Z   2
loop_
 _symmetry_equiv_pos_site_id
 _symmetry_equiv_pos_as_xyz
  1  'x, y, z'
loop_
 _atom_site_type_symbol
 _atom_site_label
 _atom_site_symmetry_multiplicity
 _atom_site_fract_x
 _atom_site_fract_y
 _atom_site_fract_z
 _atom_site_occupancy
  Cs  Cs0  1  0.00000000  0.00000000  0.25000000  1
  Cs  Cs1  1  0.00000000  0.00000000  0.75000000  1
  Cs  Cs2  1  0.33333300  0.66666700  0.42766597  1
  Cs  Cs3  1  0.66666700  0.33333300  0.57233403  1
  Cs  Cs4  1  0.66666700  0.33333300  0.92766597  1
  Cs  Cs5  1  0.33333300  0.66666700  0.07233403  1
  Rh  Rh0  1  0.33333300  0.66666700  0.66545097  1
  Rh  Rh1  1  0.66666700  0.33333300  0.33454903  1
  Rh  Rh2  1  0.66666700  0.33333300  0.16545097  1
  Rh  Rh3  1  0.33333300  0.66666700  0.83454903  1
  Cl  Cl0  1  0.51887642  0.48112358  0.25000000  1
  Cl  Cl1  1  0.51887642  0.03775184  0.25000000  1
  Cl  Cl2  1  0.96224816  0.48112358  0.25000000  1
  Cl  Cl3  1  0.48112358  0.51887642  0.75000000  1
  Cl  Cl4  1  0.48112358  0.96224816  0.75000000  1
  Cl  Cl5  1  0.03775184  0.51887642  0.75000000  1
  Cl  Cl6  1  0.81882914  0.18117086  0.40580953  1
  Cl  Cl7  1  0.81882914  0.63765728  0.40580953  1
  Cl  Cl8  1  0.36234272  0.18117086  0.40580953  1
  Cl  Cl9  1  0.18117086  0.81882914  0.59419047  1
  Cl  Cl10  1  0.18117086  0.36234272  0.59419047  1
  Cl  Cl11  1  0.63765728  0.81882914  0.59419047  1
  Cl  Cl12  1  0.18117086  0.81882914  0.90580953  1
  Cl  Cl13  1  0.18117086  0.36234272  0.90580953  1
  Cl  Cl14  1  0.63765728  0.81882914  0.90580953  1
  Cl  Cl15  1  0.81882914  0.18117086  0.09419047  1
  Cl  Cl16  1  0.81882914  0.63765728  0.09419047  1
  Cl  Cl17  1  0.36234272  0.18117086  0.09419047  1
loop_
_geom_bond_atom_site_label_1
_geom_bond_atom_site_label_2
_geom_bond_distance
_geom_bond_site_symmetry_2
Cl0 Rh1 2.415841 1_555
Cl0 Rh2 2.415841 1_555
Cl0 Cs0 3.633104 1_555
Cl0 Cs0 3.633104 1_665
Cl0 Cs2 3.998639 1_555
Cl0 Cs5 3.998639 1_555
Cl1 Rh1 2.415841 1_555
Cl1 Rh2 2.415841 1_555
Cl1 Cs0 3.633100 1_655
Cl1 Cs0 3.633107 1_555
Cl1 Cs2 3.998632 1_545
Cl1 Cs5 3.998632 1_545
Cl2 Rh1 2.415841 1_555
Cl2 Rh2 2.415841 1_555
Cl2 Cs0 3.633100 1_655
Cl2 Cs0 3.633107 1_665
Cl2 Cs2 3.998632 1_655
Cl2 Cs5 3.998632 1_655
Cl3 Rh3 2.415841 1_555
Cl3 Rh0 2.415841 1_555
Cl3 Cs1 3.633104 1_665
Cl3 Cs1 3.633104 1_555
Cl3 Cs4 3.998639 1_555
Cl3 Cs3 3.998639 1_555
Cl4 Rh3 2.415841 1_555
Cl4 Rh0 2.415841 1_555
Cl4 Cs1 3.633100 1_565
Cl4 Cs1 3.633107 1_665
Cl4 Cs4 3.998632 1_565
Cl4 Cs3 3.998632 1_565
Cl5 Rh3 2.415841 1_555
Cl5 Rh0 2.415841 1_555
Cl5 Cs1 3.633100 1_565
Cl5 Cs1 3.633107 1_555
Cl5 Cs4 3.998632 1_455
Cl5 Cs3 3.998632 1_455
Cl6 Rh1 2.313108 1_555
Cl6 Cs3 3.595594 1_555
Cl6 Cs0 3.646640 1_655
Cl6 Cs2 3.651880 1_655
Cl6 Cs2 3.651880 1_545
Cl7 Rh1 2.313108 1_555
Cl7 Cs3 3.595594 1_555
Cl7 Cs0 3.646644 1_665
Cl7 Cs2 3.651873 1_655
Cl7 Cs2 3.651888 1_555
Cl8 Rh1 2.313108 1_555
Cl8 Cs3 3.595594 1_555
Cl8 Cs0 3.646644 1_555
Cl8 Cs2 3.651873 1_545
Cl8 Cs2 3.651888 1_555
Cl9 Rh0 2.313108 1_555
Cl9 Cs2 3.595594 1_555
Cl9 Cs1 3.646640 1_565
Cl9 Cs3 3.651880 1_455
Cl9 Cs3 3.651880 1_565
Cl10 Rh0 2.313108 1_555
Cl10 Cs2 3.595594 1_555
Cl10 Cs1 3.646644 1_555
Cl10 Cs3 3.651873 1_455
Cl10 Cs3 3.651888 1_555
Cl11 Rh0 2.313108 1_555
Cl11 Cs2 3.595594 1_555
Cl11 Cs1 3.646644 1_665
Cl11 Cs3 3.651873 1_565
Cl11 Cs3 3.651888 1_555
Cl12 Rh3 2.313108 1_555
Cl12 Cs5 3.595594 1_556
Cl12 Cs1 3.646640 1_565
Cl12 Cs4 3.651880 1_455
Cl12 Cs4 3.651880 1_565
Cl13 Rh3 2.313108 1_555
Cl13 Cs5 3.595594 1_556
Cl13 Cs1 3.646644 1_555
Cl13 Cs4 3.651873 1_455
Cl13 Cs4 3.651888 1_555
Cl14 Rh3 2.313108 1_555
Cl14 Cs5 3.595594 1_556
Cl14 Cs1 3.646644 1_665
Cl14 Cs4 3.651873 1_565
Cl14 Cs4 3.651888 1_555
Cl15 Rh2 2.313108 1_555
Cl15 Cs4 3.595594 1_554
Cl15 Cs0 3.646640 1_655
Cl15 Cs5 3.651880 1_655
Cl15 Cs5 3.651880 1_545
Cl16 Rh2 2.313108 1_555
Cl16 Cs4 3.595594 1_554
Cl16 Cs0 3.646644 1_665
Cl16 Cs5 3.651873 1_655
Cl16 Cs5 3.651888 1_555
Cl17 Rh2 2.313108 1_555
Cl17 Cs4 3.595594 1_554
Cl17 Cs0 3.646644 1_555
Cl17 Cs5 3.651873 1_545
Cl17 Cs5 3.651888 1_555
