# generated using pymatgen
data_Mo(Pd3Pt)2
_symmetry_space_group_name_H-M   'P 1'
_cell_length_a   6.21243733
_cell_length_b   6.21243776
_cell_length_c   6.19093870
_cell_angle_alpha   95.68699814
_cell_angle_beta   95.68701353
_cell_angle_gamma   143.36927679
_symmetry_Int_Tables_number   1
_chemical_formula_structural   Mo(Pd3Pt)2
_chemical_formula_sum   'Mo1 Pd6 Pt2'
_cell_volume   135.28848365
_cell_formula_units_Z   1
loop_
 _symmetry_equiv_pos_site_id
 _symmetry_equiv_pos_as_xyz
  1  'x, y, z'
loop_
 _atom_site_type_symbol
 _atom_site_label
 _atom_site_symmetry_multiplicity
 _atom_site_fract_x
 _atom_site_fract_y
 _atom_site_fract_z
 _atom_site_occupancy
  Mo  Mo0  1  0.00000000  0.00000000  0.00000000  1
  Pd  Pd0  1  0.32905869  0.99873177  0.32779047  1
  Pd  Pd1  1  0.67094131  0.00126823  0.67220953  1
  Pd  Pd2  1  0.99873177  0.32905869  0.32779047  1
  Pd  Pd3  1  0.00126823  0.67094131  0.67220953  1
  Pd  Pd4  1  0.33603794  0.33603794  0.67207387  1
  Pd  Pd5  1  0.66396206  0.66396206  0.32792613  1
  Pt  Pt0  1  0.65980186  0.34019814  1.00000000  1
  Pt  Pt1  1  0.34019814  0.65980186  0.00000000  1
loop_
_geom_bond_atom_site_label_1
_geom_bond_atom_site_label_2
_geom_bond_distance
_geom_bond_site_symmetry_2
Mo0 Pt1 2.713709 1_445
Mo0 Pt0 2.713709 1_554
Mo0 Pt1 2.713709 1_555
Mo0 Pt0 2.713709 1_444
Mo0 Pd0 2.739356 1_545
Mo0 Pd1 2.739356 1_454
Mo0 Pd2 2.739356 1_455
Mo0 Pd3 2.739356 1_544
Mo0 Pd5 2.742804 1_555
Mo0 Pd4 2.742804 1_444
Mo0 Pd5 2.742809 1_445
Mo0 Pd4 2.742809 1_554
Pd0 Pt0 2.742976 1_564
Pd0 Pt0 2.742976 1_454
Pd0 Pd5 2.758010 1_565
Pd0 Pd5 2.758015 1_455
Pd0 Pd2 2.795840 1_565
Pd0 Pd2 2.795840 1_455
Pd0 Pd4 2.808322 1_565
Pd0 Pd3 2.811715 1_555
Pd0 Pd3 2.811715 1_665
Pd0 Pt1 2.823350 1_555
Pd0 Pd1 2.846046 1_565
Pd1 Pt1 2.742976 1_546
Pd1 Pt1 2.742976 1_656
Pd1 Pd4 2.758010 1_545
Pd1 Pd4 2.758015 1_655
Pd1 Pd3 2.795840 1_545
Pd1 Pd3 2.795840 1_655
Pd1 Pd5 2.808322 1_545
Pd1 Pd2 2.811715 1_555
Pd1 Pd2 2.811715 1_445
Pd1 Pt0 2.823350 1_555
Pd2 Pt1 2.742976 1_655
Pd2 Pt1 2.742976 1_545
Pd2 Pd5 2.758010 1_655
Pd2 Pd5 2.758016 1_545
Pd2 Pd4 2.808321 1_655
Pd2 Pt0 2.823349 1_554
Pd2 Pd3 2.846047 1_655
Pd3 Pt0 2.742976 1_455
Pd3 Pt0 2.742976 1_565
Pd3 Pd4 2.758010 1_455
Pd3 Pd4 2.758016 1_565
Pd3 Pd5 2.808321 1_455
Pd3 Pt1 2.823349 1_556
Pd4 Pt0 2.695315 1_555
Pd4 Pt1 2.695316 1_556
Pd4 Pd5 2.810562 1_555
Pd4 Pd5 2.810573 1_445
Pd5 Pt1 2.695315 1_555
Pd5 Pt0 2.695316 1_554
Pt0 Pt1 2.887733 1_656
Pt0 Pt1 2.887734 1_546
