# generated using pymatgen
data_Hf16MnNi4Mo3
_symmetry_space_group_name_H-M   'P 1'
_cell_length_a   8.63643883
_cell_length_b   8.63643908
_cell_length_c   8.63643961
_cell_angle_alpha   60.02557787
_cell_angle_beta   60.02557169
_cell_angle_gamma   60.02557792
_symmetry_Int_Tables_number   1
_chemical_formula_structural   Hf16MnNi4Mo3
_chemical_formula_sum   'Hf16 Mn1 Ni4 Mo3'
_cell_volume   455.76490226
_cell_formula_units_Z   1
loop_
 _symmetry_equiv_pos_site_id
 _symmetry_equiv_pos_as_xyz
  1  'x, y, z'
loop_
 _atom_site_type_symbol
 _atom_site_label
 _atom_site_symmetry_multiplicity
 _atom_site_fract_x
 _atom_site_fract_y
 _atom_site_fract_z
 _atom_site_occupancy
  Hf  Hf0  1  0.69197567  0.10281683  0.10281683  1
  Hf  Hf1  1  0.10281683  0.69197567  0.10281683  1
  Hf  Hf2  1  0.10281683  0.10281683  0.69197567  1
  Hf  Hf3  1  0.10322227  0.10322227  0.10322227  1
  Hf  Hf4  1  0.31533197  0.31533197  0.68791334  1
  Hf  Hf5  1  0.68564577  0.68564577  0.31495094  1
  Hf  Hf6  1  0.31533197  0.68791334  0.31533197  1
  Hf  Hf7  1  0.68564577  0.31495094  0.68564577  1
  Hf  Hf8  1  0.68791334  0.31533197  0.31533197  1
  Hf  Hf9  1  0.31495094  0.68564577  0.68564577  1
  Hf  Hf10  1  0.95078888  0.95078888  0.54861421  1
  Hf  Hf11  1  0.54926666  0.54926666  0.94999498  1
  Hf  Hf12  1  0.95078888  0.54861421  0.95078888  1
  Hf  Hf13  1  0.54926666  0.94999498  0.54926666  1
  Hf  Hf14  1  0.54861421  0.95078888  0.95078888  1
  Hf  Hf15  1  0.94999498  0.54926666  0.54926666  1
  Mn  Mn0  1  0.33028162  0.33028162  0.33028162  1
  Ni  Ni0  1  0.32352657  0.89168010  0.89168010  1
  Ni  Ni1  1  0.89168010  0.32352657  0.89168010  1
  Ni  Ni2  1  0.89168010  0.89168010  0.32352657  1
  Ni  Ni3  1  0.89195457  0.89195457  0.89195457  1
  Mo  Mo0  1  0.99916466  0.33366789  0.33366789  1
  Mo  Mo1  1  0.33366789  0.99916466  0.33366789  1
  Mo  Mo2  1  0.33366789  0.33366789  0.99916466  1
loop_
_geom_bond_atom_site_label_1
_geom_bond_atom_site_label_2
_geom_bond_distance
_geom_bond_site_symmetry_2
Hf0 Ni1 2.569537 1_554
Hf0 Ni2 2.569537 1_545
Hf0 Ni3 2.577584 1_544
Hf0 Mn0 3.011446 1_555
Hf0 Mo1 3.028542 1_545
Hf0 Mo2 3.028542 1_554
Hf0 Hf5 3.137081 1_545
Hf0 Hf7 3.137082 1_554
Hf0 Hf8 3.158439 1_555
Hf1 Ni0 2.569537 1_554
Hf1 Ni2 2.569537 1_455
Hf1 Ni3 2.577584 1_454
Hf1 Mn0 3.011446 1_555
Hf1 Mo0 3.028542 1_455
Hf1 Mo2 3.028542 1_554
Hf1 Hf5 3.137081 1_455
Hf1 Hf9 3.137081 1_554
Hf1 Hf6 3.158439 1_555
Hf2 Ni1 2.569537 1_455
Hf2 Ni0 2.569537 1_545
Hf2 Ni3 2.577584 1_445
Hf2 Mn0 3.011446 1_555
Hf2 Mo1 3.028542 1_545
Hf2 Mo0 3.028543 1_455
Hf2 Hf7 3.137081 1_455
Hf2 Hf9 3.137081 1_545
Hf2 Hf4 3.158439 1_555
Hf3 Ni2 2.585376 1_445
Hf3 Ni0 2.585376 1_544
Hf3 Ni1 2.585376 1_454
Hf3 Mo2 3.018807 1_554
Hf3 Mo0 3.018807 1_455
Hf3 Mo1 3.018807 1_545
Hf3 Hf8 3.130306 1_455
Hf3 Hf4 3.130306 1_554
Hf3 Hf6 3.130306 1_545
Hf4 Mo2 2.855138 1_555
Hf4 Mn0 2.965282 1_555
Hf4 Ni1 3.149744 1_455
Hf4 Ni0 3.149745 1_545
Hf4 Hf7 3.186815 1_555
Hf4 Hf9 3.186816 1_555
Hf4 Hf8 3.219020 1_555
Hf4 Hf6 3.219020 1_555
Hf5 Mo1 2.884457 1_555
Hf5 Mo0 2.884457 1_555
Hf5 Ni2 3.124937 1_555
Hf5 Ni3 3.139939 1_554
Hf5 Hf6 3.186815 1_555
Hf5 Hf8 3.186816 1_555
Hf5 Hf9 3.202721 1_555
Hf5 Hf7 3.202721 1_555
Hf6 Mo1 2.855138 1_555
Hf6 Mn0 2.965282 1_555
Hf6 Ni2 3.149744 1_455
Hf6 Ni0 3.149745 1_554
Hf6 Hf9 3.186816 1_555
Hf6 Hf8 3.219020 1_555
Hf7 Mo2 2.884457 1_555
Hf7 Mo0 2.884457 1_555
Hf7 Ni1 3.124937 1_555
Hf7 Ni3 3.139939 1_545
Hf7 Hf8 3.186816 1_555
Hf7 Hf9 3.202721 1_555
Hf8 Mo0 2.855138 1_555
Hf8 Mn0 2.965282 1_555
Hf8 Ni2 3.149745 1_545
Hf8 Ni1 3.149745 1_554
Hf9 Mo2 2.884457 1_555
Hf9 Mo1 2.884457 1_555
Hf9 Ni0 3.124937 1_555
Hf9 Ni3 3.139939 1_455
Hf10 Ni2 2.558078 1_555
Hf10 Ni3 2.560456 1_555
Hf10 Mo1 3.004454 1_655
Hf10 Mo0 3.004454 1_565
Hf10 Hf3 3.142330 1_665
Hf10 Hf6 3.196201 1_655
Hf10 Hf8 3.196201 1_565
Hf10 Hf7 3.217237 1_565
Hf10 Hf9 3.217237 1_655
Hf11 Ni1 2.555729 1_555
Hf11 Ni0 2.555729 1_555
Hf11 Mo2 2.999777 1_555
Hf11 Mn0 3.016811 1_556
Hf11 Hf7 3.200404 1_555
Hf11 Hf9 3.200404 1_555
Hf11 Hf6 3.234055 1_556
Hf11 Hf8 3.234055 1_556
Hf12 Ni1 2.558078 1_555
Hf12 Ni3 2.560456 1_555
Hf12 Mo2 3.004454 1_655
Hf12 Mo0 3.004454 1_556
Hf12 Hf3 3.142330 1_656
Hf12 Hf8 3.196201 1_556
Hf12 Hf4 3.196201 1_655
Hf12 Hf9 3.217237 1_655
Hf12 Hf5 3.217237 1_556
Hf13 Ni2 2.555729 1_555
Hf13 Ni0 2.555729 1_555
Hf13 Mo1 2.999777 1_555
Hf13 Mn0 3.016811 1_565
Hf13 Hf9 3.200404 1_555
Hf13 Hf5 3.200404 1_555
Hf13 Hf8 3.234055 1_565
Hf13 Hf4 3.234055 1_565
Hf14 Ni0 2.558078 1_555
Hf14 Ni3 2.560456 1_555
Hf14 Mo1 3.004454 1_556
Hf14 Mo2 3.004454 1_565
Hf14 Hf3 3.142330 1_566
Hf14 Hf6 3.196201 1_556
Hf14 Hf4 3.196201 1_565
Hf14 Hf7 3.217237 1_565
Hf14 Hf5 3.217237 1_556
Hf15 Ni1 2.555729 1_555
Hf15 Ni2 2.555729 1_555
Hf15 Mo0 2.999777 1_555
Hf15 Mn0 3.016811 1_655
Hf15 Hf7 3.200404 1_555
Hf15 Hf5 3.200404 1_555
Hf15 Hf6 3.234055 1_655
Hf15 Hf4 3.234055 1_655
Mn0 Mo0 2.830751 1_455
Mn0 Mo1 2.830751 1_545
Mn0 Mo2 2.830751 1_554
Mo0 Mo2 2.890033 1_654
Mo0 Mo1 2.890034 1_645
Mo1 Mo2 2.890034 1_564
