# generated using pymatgen
data_CaHfBr6
_symmetry_space_group_name_H-M   'P 1'
_cell_length_a   7.03554750
_cell_length_b   7.03554610
_cell_length_c   6.55727530
_cell_angle_alpha   90.00000000
_cell_angle_beta   90.00000000
_cell_angle_gamma   119.99999352
_symmetry_Int_Tables_number   1
_chemical_formula_structural   CaHfBr6
_chemical_formula_sum   'Ca1 Hf1 Br6'
_cell_volume   281.09284405
_cell_formula_units_Z   1
loop_
 _symmetry_equiv_pos_site_id
 _symmetry_equiv_pos_as_xyz
  1  'x, y, z'
loop_
 _atom_site_type_symbol
 _atom_site_label
 _atom_site_symmetry_multiplicity
 _atom_site_fract_x
 _atom_site_fract_y
 _atom_site_fract_z
 _atom_site_occupancy
  Ca  Ca0  1  0.66666700  0.33333300  0.00000000  1
  Hf  Hf0  1  0.33333300  0.66666700  0.00000000  1
  Br  Br0  1  0.63271866  0.66277452  0.23347528  1
  Br  Br1  1  0.33722548  0.36728134  0.76652472  1
  Br  Br2  1  0.03005586  0.36728134  0.23347528  1
  Br  Br3  1  0.33722548  0.96994414  0.23347528  1
  Br  Br4  1  0.63271866  0.96994414  0.76652472  1
  Br  Br5  1  0.03005586  0.66277452  0.76652472  1
loop_
_geom_bond_atom_site_label_1
_geom_bond_atom_site_label_2
_geom_bond_distance
_geom_bond_site_symmetry_2
Br0 Hf0 2.615139 1_555
Br0 Ca0 2.885600 1_555
Br1 Hf0 2.615139 1_556
Br1 Ca0 2.885600 1_556
Br2 Hf0 2.615137 1_555
Br2 Ca0 2.885595 1_455
Br3 Hf0 2.615133 1_555
Br3 Ca0 2.885597 1_565
Br4 Hf0 2.615136 1_556
Br4 Ca0 2.885594 1_566
Br5 Hf0 2.615134 1_556
Br5 Ca0 2.885597 1_456
