# generated using pymatgen
data_CsCrAs2Pt
_symmetry_space_group_name_H-M   'P 1'
_cell_length_a   8.15470614
_cell_length_b   8.15470564
_cell_length_c   8.15470570
_cell_angle_alpha   151.33860645
_cell_angle_beta   151.33861328
_cell_angle_gamma   40.97995427
_symmetry_Int_Tables_number   1
_chemical_formula_structural   CsCrAs2Pt
_chemical_formula_sum   'Cs1 Cr1 As2 Pt1'
_cell_volume   124.48438108
_cell_formula_units_Z   1
loop_
 _symmetry_equiv_pos_site_id
 _symmetry_equiv_pos_as_xyz
  1  'x, y, z'
loop_
 _atom_site_type_symbol
 _atom_site_label
 _atom_site_symmetry_multiplicity
 _atom_site_fract_x
 _atom_site_fract_y
 _atom_site_fract_z
 _atom_site_occupancy
  Cs  Cs0  1  0.00000000  0.00000000  0.00000000  1
  Cr  Cr0  1  0.25000000  0.75000000  0.50000000  1
  As  As0  1  0.34468723  0.34468723  1.00000000  1
  As  As1  1  0.65531277  0.65531277  0.00000000  1
  Pt  Pt0  1  0.75000000  0.25000000  0.50000000  1
loop_
_geom_bond_atom_site_label_1
_geom_bond_atom_site_label_2
_geom_bond_distance
_geom_bond_site_symmetry_2
Cr0 Pt0 2.854501 1_454
Cr0 Pt0 2.854501 1_566
Cr0 Pt0 2.854502 1_555
Cr0 Pt0 2.854502 1_465
As0 Pt0 2.483287 1_556
As0 Pt0 2.483287 1_455
As0 Cr0 2.483287 1_545
As0 Cr0 2.483287 1_556
As0 Cs0 3.711922 1_667
As0 Cs0 3.711922 1_555
As0 Cs0 3.711923 1_566
As0 Cs0 3.711923 1_656
As1 Cr0 2.483287 1_554
As1 Cr0 2.483287 1_655
As1 Pt0 2.483287 1_565
As1 Pt0 2.483287 1_554
As1 Cs0 3.711922 1_554
As1 Cs0 3.711922 1_666
As1 Cs0 3.711923 1_655
As1 Cs0 3.711923 1_565
