# generated using pymatgen
data_Na4Ca2ZrAs4
_symmetry_space_group_name_H-M   'P 1'
_cell_length_a   9.60169114
_cell_length_b   9.60169136
_cell_length_c   7.40089500
_cell_angle_alpha   88.95050909
_cell_angle_beta   88.95051308
_cell_angle_gamma   120.31627888
_symmetry_Int_Tables_number   1
_chemical_formula_structural   Na4Ca2ZrAs4
_chemical_formula_sum   'Na8 Ca4 Zr2 As8'
_cell_volume   588.60371131
_cell_formula_units_Z   2
loop_
 _symmetry_equiv_pos_site_id
 _symmetry_equiv_pos_as_xyz
  1  'x, y, z'
loop_
 _atom_site_type_symbol
 _atom_site_label
 _atom_site_symmetry_multiplicity
 _atom_site_fract_x
 _atom_site_fract_y
 _atom_site_fract_z
 _atom_site_occupancy
  Na  Na0  1  0.46952670  0.93104631  0.37542781  1
  Na  Na1  1  0.93104631  0.46952670  0.87542781  1
  Na  Na2  1  0.86636277  0.72398611  0.18854584  1
  Na  Na3  1  0.27674074  0.13118994  0.23711175  1
  Na  Na4  1  0.85597684  0.13435535  0.21280737  1
  Na  Na5  1  0.13118994  0.27674074  0.73711175  1
  Na  Na6  1  0.72398611  0.86636277  0.68854584  1
  Na  Na7  1  0.13435535  0.85597684  0.71280737  1
  Ca  Ca0  1  0.06377533  0.53195223  0.38646292  1
  Ca  Ca1  1  0.47688946  0.53363191  0.37556494  1
  Ca  Ca2  1  0.53195223  0.06377533  0.88646292  1
  Ca  Ca3  1  0.53363191  0.47688946  0.87556494  1
  Zr  Zr0  1  0.66356279  0.32984523  0.48950749  1
  Zr  Zr1  1  0.32984523  0.66356279  0.98950749  1
  As  As0  1  0.19579731  0.37490938  0.12641257  1
  As  As1  1  0.62795658  0.80981718  0.08415451  1
  As  As2  1  0.19437623  0.81761752  0.10355648  1
  As  As3  1  0.80981718  0.62795658  0.58415451  1
  As  As4  1  0.37490938  0.19579731  0.62641257  1
  As  As5  1  0.81761752  0.19437623  0.60355648  1
  As  As6  1  0.65593203  0.33460007  0.14042631  1
  As  As7  1  0.33460007  0.65593203  0.64042631  1
loop_
_geom_bond_atom_site_label_1
_geom_bond_atom_site_label_2
_geom_bond_distance
_geom_bond_site_symmetry_2
As0 Zr1 2.571541 1_554
As0 Na3 2.922426 1_555
As0 Na4 2.941276 1_455
As0 Ca1 3.023225 1_555
As0 Na5 3.024749 1_554
As0 Ca0 3.087283 1_555
As0 Ca3 3.381382 1_554
As1 Zr1 2.589861 1_554
As1 Na2 2.908958 1_555
As1 Na4 2.950882 1_565
As1 Na6 3.009117 1_554
As1 Ca1 3.095199 1_555
As1 Na0 3.174159 1_555
As1 Ca3 3.275868 1_554
As1 Ca2 3.335300 1_564
As2 Zr1 2.557391 1_554
As2 Na2 2.858560 1_455
As2 Na3 2.898505 1_565
As2 Na7 3.011170 1_554
As2 Na0 3.095895 1_555
As2 Ca0 3.114601 1_555
As2 Ca2 3.257273 1_564
As2 Na1 3.499419 1_454
As3 Zr0 2.589861 1_555
As3 Na6 2.908958 1_555
As3 Na7 2.950882 1_655
As3 Na2 3.009117 1_555
As3 Ca3 3.095199 1_555
As3 Na1 3.174159 1_555
As3 Ca1 3.275868 1_555
As3 Ca0 3.335300 1_655
As4 Zr0 2.571541 1_555
As4 Na5 2.922426 1_555
As4 Na7 2.941276 1_545
As4 Ca3 3.023225 1_555
As4 Na3 3.024749 1_555
As4 Ca2 3.087283 1_555
As4 Ca1 3.381382 1_555
As5 Zr0 2.557391 1_555
As5 Na6 2.858560 1_545
As5 Na5 2.898505 1_655
As5 Na4 3.011170 1_555
As5 Na1 3.095895 1_555
As5 Ca2 3.114601 1_555
As5 Ca0 3.257273 1_655
As5 Na0 3.499418 1_545
As6 Zr0 2.586114 1_555
As6 Ca3 2.948525 1_554
As6 Na1 2.960559 1_554
As6 Ca2 2.974509 1_554
As6 Na3 3.202671 1_555
As6 Na2 3.261358 1_555
As6 Na4 3.376580 1_555
As7 Zr1 2.586114 1_555
As7 Ca1 2.948525 1_555
As7 Na0 2.960559 1_555
As7 Ca0 2.974508 1_555
As7 Na5 3.202671 1_555
As7 Na6 3.261358 1_555
As7 Na7 3.376580 1_555
