# generated using pymatgen
data_TaTcTe6Mo
_symmetry_space_group_name_H-M   'P 1'
_cell_length_a   6.21631702
_cell_length_b   6.21834751
_cell_length_c   7.68143221
_cell_angle_alpha   82.41623817
_cell_angle_beta   82.26311927
_cell_angle_gamma   119.98121943
_symmetry_Int_Tables_number   1
_chemical_formula_structural   TaTcTe6Mo
_chemical_formula_sum   'Ta1 Tc1 Te6 Mo1'
_cell_volume   247.89186316
_cell_formula_units_Z   1
loop_
 _symmetry_equiv_pos_site_id
 _symmetry_equiv_pos_as_xyz
  1  'x, y, z'
loop_
 _atom_site_type_symbol
 _atom_site_label
 _atom_site_symmetry_multiplicity
 _atom_site_fract_x
 _atom_site_fract_y
 _atom_site_fract_z
 _atom_site_occupancy
  Ta  Ta0  1  0.49922670  0.83285457  0.50013826  1
  Tc  Tc0  1  0.83355169  0.49992820  0.49994622  1
  Te  Te0  1  0.58317321  0.25549423  0.25943065  1
  Te  Te1  1  0.23630856  0.57280305  0.25863392  1
  Te  Te2  1  0.91888882  0.90855120  0.25933540  1
  Te  Te3  1  0.76061503  0.75089255  0.74060291  1
  Te  Te4  1  0.42460729  0.09833591  0.74106463  1
  Te  Te5  1  0.07657886  0.41392956  0.74128220  1
  Mo  Mo0  1  0.16695283  0.16711473  0.49986581  1
loop_
_geom_bond_atom_site_label_1
_geom_bond_atom_site_label_2
_geom_bond_distance
_geom_bond_site_symmetry_2
Ta0 Te0 2.772177 1_565
Ta0 Te2 2.773494 1_555
Ta0 Te1 2.773860 1_555
Ta0 Te5 2.774117 1_555
Ta0 Te3 2.774723 1_555
Ta0 Te4 2.775975 1_565
Tc0 Te4 2.701070 1_555
Tc0 Te0 2.701319 1_555
Tc0 Te3 2.702078 1_555
Tc0 Te2 2.702428 1_555
Tc0 Te1 2.702672 1_655
Tc0 Te5 2.702724 1_655
Mo0 Te0 2.726128 1_555
Mo0 Te5 2.728099 1_555
Mo0 Te3 2.728339 1_445
Mo0 Te1 2.729029 1_555
Mo0 Te2 2.729472 1_445
Mo0 Te4 2.730456 1_555
