# generated using pymatgen
data_Ba2Zn25Ni
_symmetry_space_group_name_H-M   'P 1'
_cell_length_a   8.61014434
_cell_length_b   8.61014426
_cell_length_c   8.61014471
_cell_angle_alpha   60.00000193
_cell_angle_beta   60.00000226
_cell_angle_gamma   59.99999693
_symmetry_Int_Tables_number   1
_chemical_formula_structural   Ba2Zn25Ni
_chemical_formula_sum   'Ba2 Zn25 Ni1'
_cell_volume   451.35298242
_cell_formula_units_Z   1
loop_
 _symmetry_equiv_pos_site_id
 _symmetry_equiv_pos_as_xyz
  1  'x, y, z'
loop_
 _atom_site_type_symbol
 _atom_site_label
 _atom_site_symmetry_multiplicity
 _atom_site_fract_x
 _atom_site_fract_y
 _atom_site_fract_z
 _atom_site_occupancy
  Ba  Ba0  1  0.75000000  0.75000000  0.75000000  1
  Ba  Ba1  1  0.25000000  0.25000000  0.25000000  1
  Zn  Zn0  1  0.44375637  0.80091370  0.55624363  1
  Zn  Zn1  1  0.06195925  0.93804075  0.71006006  1
  Zn  Zn2  1  0.55624363  0.44375637  0.80091370  1
  Zn  Zn3  1  0.80091370  0.55624363  0.44375637  1
  Zn  Zn4  1  0.19908630  0.80091370  0.44375637  1
  Zn  Zn5  1  0.71006006  0.06195925  0.93804075  1
  Zn  Zn6  1  0.44375637  0.55624363  0.19908630  1
  Zn  Zn7  1  0.71006006  0.93804075  0.28993994  1
  Zn  Zn8  1  0.44375637  0.19908630  0.80091370  1
  Zn  Zn9  1  0.93804075  0.71006006  0.06195925  1
  Zn  Zn10  1  0.06195925  0.28993994  0.93804075  1
  Zn  Zn11  1  0.93804075  0.28993994  0.71006006  1
  Zn  Zn12  1  0.71006006  0.28993994  0.06195925  1
  Zn  Zn13  1  0.19908630  0.44375637  0.55624363  1
  Zn  Zn14  1  0.80091370  0.44375637  0.19908630  1
  Zn  Zn15  1  0.28993994  0.71006006  0.93804075  1
  Zn  Zn16  1  0.06195925  0.71006006  0.28993994  1
  Zn  Zn17  1  0.55624363  0.80091370  0.19908630  1
  Zn  Zn18  1  0.28993994  0.93804075  0.06195925  1
  Zn  Zn19  1  0.19908630  0.55624363  0.80091370  1
  Zn  Zn20  1  0.28993994  0.06195925  0.71006006  1
  Zn  Zn21  1  0.80091370  0.19908630  0.55624363  1
  Zn  Zn22  1  0.93804075  0.06195925  0.28993994  1
  Zn  Zn23  1  0.55624363  0.19908630  0.44375637  1
  Zn  Zn24  1  0.50000000  0.50000000  0.50000000  1
  Ni  Ni0  1  0.00000000  0.00000000  0.00000000  1
loop_
_geom_bond_atom_site_label_1
_geom_bond_atom_site_label_2
_geom_bond_distance
_geom_bond_site_symmetry_2
Ba0 Zn8 3.526994 1_565
Ba0 Zn13 3.526994 1_655
Ba0 Zn19 3.526994 1_655
Ba0 Zn23 3.526994 1_565
Ba0 Zn0 3.526994 1_555
Ba0 Zn21 3.526994 1_565
Ba0 Zn2 3.526994 1_555
Ba0 Zn3 3.526994 1_555
Ba0 Zn4 3.526994 1_655
Ba0 Zn14 3.526994 1_556
Ba0 Zn17 3.526994 1_556
Ba0 Zn6 3.526994 1_556
Ba0 Zn20 3.580870 1_565
Ba0 Zn10 3.580870 1_655
Ba0 Zn11 3.580870 1_555
Ba0 Zn5 3.580870 1_565
Ba0 Zn18 3.580870 1_556
Ba0 Zn1 3.580870 1_655
Ba0 Zn9 3.580870 1_556
Ba0 Zn15 3.580870 1_555
Ba0 Zn12 3.580870 1_556
Ba0 Zn7 3.580870 1_555
Ba0 Zn16 3.580870 1_655
Ba0 Zn22 3.580870 1_565
Ba1 Zn17 3.526994 1_545
Ba1 Zn3 3.526994 1_455
Ba1 Zn14 3.526994 1_455
Ba1 Zn0 3.526994 1_545
Ba1 Zn23 3.526994 1_555
Ba1 Zn4 3.526994 1_545
Ba1 Zn6 3.526994 1_555
Ba1 Zn13 3.526994 1_555
Ba1 Zn21 3.526994 1_455
Ba1 Zn19 3.526994 1_554
Ba1 Zn8 3.526994 1_554
Ba1 Zn2 3.526994 1_554
Ba1 Zn7 3.580870 1_545
Ba1 Zn9 3.580870 1_455
Ba1 Zn16 3.580870 1_555
Ba1 Zn18 3.580870 1_545
Ba1 Zn5 3.580870 1_554
Ba1 Zn22 3.580870 1_455
Ba1 Zn10 3.580870 1_554
Ba1 Zn12 3.580870 1_555
Ba1 Zn15 3.580870 1_554
Ba1 Zn20 3.580870 1_555
Ba1 Zn11 3.580870 1_455
Ba1 Zn1 3.580870 1_545
Zn0 Zn7 2.579044 1_555
Zn0 Zn20 2.608807 1_565
Zn0 Zn24 2.635779 1_555
Zn0 Zn1 2.698746 1_555
Zn0 Zn15 2.698747 1_555
Zn0 Zn3 2.723299 1_555
Zn0 Zn4 2.723299 1_555
Zn0 Zn2 2.723299 1_555
Zn0 Zn17 2.723299 1_555
Zn1 Zn4 2.579043 1_555
Zn1 Zn21 2.608807 1_465
Zn1 Zn11 2.661941 1_465
Zn1 Zn5 2.661942 1_465
Zn1 Zn20 2.661942 1_565
Zn1 Zn9 2.661942 1_456
Zn1 Zn19 2.698746 1_555
Zn1 Zn15 2.776026 1_555
Zn2 Zn24 2.635779 1_555
Zn2 Zn5 2.698746 1_555
Zn2 Zn8 2.723299 1_555
Zn2 Zn3 2.723299 1_555
Zn3 Zn7 2.698746 1_555
Zn3 Zn9 2.698747 1_555
Zn5 Zn8 2.579043 1_555
Zn5 Zn9 2.661941 1_546
Zn5 Zn7 2.661942 1_546
Zn7 Zn9 2.776026 1_555
Zn10 Zn19 2.579043 1_555
Zn10 Zn14 2.608807 1_456
Zn10 Zn18 2.661941 1_546
Zn10 Zn12 2.661942 1_456
Zn10 Zn11 2.661942 1_455
Zn10 Zn22 2.661942 1_456
Zn10 Zn8 2.698746 1_555
Zn10 Zn13 2.698747 1_555
Zn10 Zn20 2.776026 1_555
Zn11 Zn3 2.579043 1_555
Zn11 Zn13 2.608807 1_655
Zn11 Zn20 2.661941 1_655
Zn11 Zn12 2.661942 1_556
Zn11 Zn2 2.698746 1_555
Zn11 Zn21 2.698746 1_555
Zn11 Zn5 2.776026 1_555
Zn12 Zn6 2.579043 1_555
Zn12 Zn2 2.608807 1_554
Zn12 Zn5 2.661942 1_554
Zn12 Zn7 2.661942 1_545
Zn12 Zn14 2.698746 1_555
Zn12 Zn23 2.698747 1_555
Zn12 Zn22 2.776026 1_555
Zn13 Zn16 2.579043 1_555
Zn13 Zn24 2.635779 1_555
Zn13 Zn20 2.698746 1_555
Zn13 Zn23 2.723299 1_555
Zn13 Zn4 2.723299 1_555
Zn13 Zn19 2.723299 1_555
Zn13 Zn6 2.723299 1_555
Zn14 Zn9 2.579043 1_555
Zn14 Zn24 2.635779 1_555
Zn14 Zn22 2.698746 1_555
Zn14 Zn17 2.723299 1_555
Zn14 Zn6 2.723299 1_555
Zn14 Zn3 2.723299 1_555
Zn14 Zn21 2.723299 1_555
Zn15 Zn2 2.579043 1_555
Zn15 Zn6 2.608807 1_556
Zn15 Zn18 2.661942 1_556
Zn15 Zn9 2.661942 1_456
Zn15 Zn20 2.661942 1_565
Zn15 Zn16 2.661942 1_556
Zn15 Zn19 2.698746 1_555
Zn16 Zn3 2.608807 1_455
Zn16 Zn7 2.661941 1_455
Zn16 Zn22 2.661941 1_465
Zn16 Zn9 2.661942 1_455
Zn16 Zn6 2.698746 1_555
Zn16 Zn4 2.698746 1_555
Zn16 Zn18 2.776026 1_555
Zn17 Zn18 2.579043 1_555
Zn17 Zn5 2.608807 1_564
Zn17 Zn24 2.635779 1_555
Zn17 Zn9 2.698746 1_555
Zn17 Zn7 2.698746 1_555
Zn17 Zn6 2.723299 1_555
Zn17 Zn4 2.723299 1_555
Zn18 Zn8 2.608807 1_564
Zn18 Zn22 2.661942 1_465
Zn18 Zn20 2.661942 1_564
Zn18 Zn6 2.698746 1_555
Zn18 Zn4 2.698747 1_555
Zn19 Zn9 2.608807 1_456
Zn19 Zn24 2.635779 1_555
Zn19 Zn8 2.723299 1_555
Zn19 Zn2 2.723299 1_555
Zn19 Zn4 2.723299 1_555
Zn20 Zn23 2.579044 1_555
Zn20 Zn8 2.698746 1_555
Zn21 Zn22 2.579043 1_555
Zn21 Zn24 2.635779 1_555
Zn21 Zn5 2.698747 1_555
Zn21 Zn3 2.723299 1_555
Zn21 Zn23 2.723299 1_555
Zn21 Zn8 2.723299 1_555
Zn22 Zn4 2.608807 1_645
Zn22 Zn7 2.661942 1_545
Zn22 Zn23 2.698746 1_555
Zn23 Zn7 2.608807 1_545
Zn23 Zn24 2.635779 1_555
Zn23 Zn6 2.723299 1_555
Zn23 Zn8 2.723299 1_555
Zn24 Zn4 2.635779 1_555
Zn24 Zn3 2.635779 1_555
Zn24 Zn6 2.635779 1_555
Zn24 Zn8 2.635779 1_555
Ni0 Zn12 2.552790 1_455
Ni0 Zn15 2.552790 1_544
Ni0 Zn18 2.552790 1_545
Ni0 Zn5 2.552790 1_454
Ni0 Zn10 2.552790 1_554
Ni0 Zn9 2.552790 1_445
Ni0 Zn11 2.552790 1_454
Ni0 Zn16 2.552790 1_545
Ni0 Zn22 2.552790 1_455
Ni0 Zn1 2.552790 1_544
Ni0 Zn7 2.552790 1_445
Ni0 Zn20 2.552790 1_554
