# generated using pymatgen
data_YPdF7
_symmetry_space_group_name_H-M   'P 1'
_cell_length_a   5.39310294
_cell_length_b   8.73029554
_cell_length_c   11.78399843
_cell_angle_alpha   62.30226099
_cell_angle_beta   90.00000000
_cell_angle_gamma   90.00000000
_symmetry_Int_Tables_number   1
_chemical_formula_structural   YPdF7
_chemical_formula_sum   'Y4 Pd4 F28'
_cell_volume   491.25357119
_cell_formula_units_Z   4
loop_
 _symmetry_equiv_pos_site_id
 _symmetry_equiv_pos_as_xyz
  1  'x, y, z'
loop_
 _atom_site_type_symbol
 _atom_site_label
 _atom_site_symmetry_multiplicity
 _atom_site_fract_x
 _atom_site_fract_y
 _atom_site_fract_z
 _atom_site_occupancy
  Y  Y0  1  0.26249523  0.81260642  0.26439476  1
  Y  Y1  1  0.73750477  0.18739358  0.73560524  1
  Y  Y2  1  0.76249523  0.18739358  0.23560524  1
  Y  Y3  1  0.23750477  0.81260642  0.76439476  1
  Pd  Pd0  1  0.75799488  0.72803562  0.04278113  1
  Pd  Pd1  1  0.24200512  0.27196438  0.95721887  1
  Pd  Pd2  1  0.25799488  0.27196438  0.45721887  1
  Pd  Pd3  1  0.74200512  0.72803562  0.54278113  1
  F  F0  1  0.93061939  0.70507886  0.41409028  1
  F  F1  1  0.06938061  0.29492114  0.58590972  1
  F  F2  1  0.43061939  0.29492114  0.08590972  1
  F  F3  1  0.56938061  0.70507886  0.91409028  1
  F  F4  1  0.45969261  0.72428326  0.13165405  1
  F  F5  1  0.54030739  0.27571674  0.86834595  1
  F  F6  1  0.95969261  0.27571674  0.36834595  1
  F  F7  1  0.04030739  0.72428326  0.63165405  1
  F  F8  1  0.94044196  0.74398491  0.17639459  1
  F  F9  1  0.05955804  0.25601509  0.82360541  1
  F  F10  1  0.44044196  0.25601509  0.32360541  1
  F  F11  1  0.55955804  0.74398491  0.67639459  1
  F  F12  1  0.77404398  0.48112229  0.14003965  1
  F  F13  1  0.22595602  0.51887771  0.85996035  1
  F  F14  1  0.27404398  0.51887771  0.35996035  1
  F  F15  1  0.72595602  0.48112229  0.64003965  1
  F  F16  1  0.93700638  0.27695840  0.03920669  1
  F  F17  1  0.06299362  0.72304160  0.96079331  1
  F  F18  1  0.43700638  0.72304160  0.46079331  1
  F  F19  1  0.56299362  0.27695840  0.53920669  1
  F  F20  1  0.74557891  0.97463525  0.45122739  1
  F  F21  1  0.25442109  0.02536475  0.54877261  1
  F  F22  1  0.24557891  0.02536475  0.04877261  1
  F  F23  1  0.75442109  0.97463525  0.95122739  1
  F  F24  1  0.59933675  0.96482263  0.23065548  1
  F  F25  1  0.40066325  0.03517737  0.76934452  1
  F  F26  1  0.09933675  0.03517737  0.26934452  1
  F  F27  1  0.90066325  0.96482263  0.73065548  1
loop_
_geom_bond_atom_site_label_1
_geom_bond_atom_site_label_2
_geom_bond_distance
_geom_bond_site_symmetry_2
F0 Pd3 1.912378 1_555
F0 Y0 2.378468 1_655
F1 Pd2 1.912378 1_555
F1 Y1 2.378468 1_455
F2 Pd1 1.912378 1_554
F2 Y2 2.378468 1_555
F3 Pd0 1.912378 1_556
F3 Y3 2.378468 1_555
F4 Pd0 1.911577 1_555
F4 Y0 2.300792 1_555
F5 Pd1 1.911577 1_555
F5 Y1 2.300792 1_555
F6 Pd2 1.911577 1_655
F6 Y2 2.300792 1_555
F7 Pd3 1.911577 1_455
F7 Y3 2.300792 1_555
F8 Pd0 1.915833 1_555
F8 Y0 2.242429 1_655
F9 Pd1 1.915833 1_555
F9 Y1 2.242429 1_455
F10 Pd2 1.915833 1_555
F10 Y2 2.242429 1_555
F11 Pd3 1.915833 1_555
F11 Y3 2.242429 1_555
F12 Pd0 1.916009 1_555
F12 Y2 2.272302 1_555
F13 Pd1 1.916009 1_555
F13 Y3 2.272302 1_555
F14 Pd2 1.916009 1_555
F14 Y0 2.272302 1_555
F15 Pd3 1.916009 1_555
F15 Y1 2.272302 1_555
F16 Pd1 1.918373 1_654
F16 Y2 2.274019 1_555
F17 Pd0 1.918373 1_456
F17 Y3 2.274019 1_555
F18 Pd3 1.918373 1_555
F18 Y0 2.274019 1_555
F19 Pd2 1.918373 1_555
F19 Y1 2.274019 1_555
F20 Pd3 1.907893 1_555
F20 Y2 2.350994 1_565
F21 Pd2 1.907893 1_555
F21 Y3 2.350994 1_545
F22 Pd1 1.907893 1_554
F22 Y0 2.350994 1_545
F23 Pd0 1.907893 1_556
F23 Y1 2.350994 1_565
F24 Y2 2.158406 1_565
F24 Y0 2.175542 1_555
F25 Y3 2.158406 1_545
F25 Y1 2.175542 1_555
F26 Y0 2.158406 1_545
F26 Y2 2.175542 1_455
F27 Y1 2.158406 1_565
F27 Y3 2.175542 1_655
