# generated using pymatgen
data_Sc6AgTe2
_symmetry_space_group_name_H-M   'P 1'
_cell_length_a   3.86418500
_cell_length_b   10.78862500
_cell_length_c   20.48672800
_cell_angle_alpha   90.00000000
_cell_angle_beta   90.00000000
_cell_angle_gamma   90.00000000
_symmetry_Int_Tables_number   1
_chemical_formula_structural   Sc6AgTe2
_chemical_formula_sum   'Sc24 Ag4 Te8'
_cell_volume   854.07617973
_cell_formula_units_Z   4
loop_
 _symmetry_equiv_pos_site_id
 _symmetry_equiv_pos_as_xyz
  1  'x, y, z'
loop_
 _atom_site_type_symbol
 _atom_site_label
 _atom_site_symmetry_multiplicity
 _atom_site_fract_x
 _atom_site_fract_y
 _atom_site_fract_z
 _atom_site_occupancy
  Sc  Sc0  1  0.25000000  0.39090400  0.98989400  1
  Sc  Sc1  1  0.75000000  0.60909600  0.01010600  1
  Sc  Sc2  1  0.75000000  0.89090400  0.51010600  1
  Sc  Sc3  1  0.25000000  0.10909600  0.48989400  1
  Sc  Sc4  1  0.25000000  0.93264500  0.63825400  1
  Sc  Sc5  1  0.75000000  0.06735500  0.36174600  1
  Sc  Sc6  1  0.75000000  0.43264500  0.86174600  1
  Sc  Sc7  1  0.25000000  0.56735500  0.13825400  1
  Sc  Sc8  1  0.25000000  0.87707900  0.02920400  1
  Sc  Sc9  1  0.75000000  0.12292100  0.97079600  1
  Sc  Sc10  1  0.75000000  0.37707900  0.47079600  1
  Sc  Sc11  1  0.25000000  0.62292100  0.52920400  1
  Sc  Sc12  1  0.25000000  0.82850800  0.39257700  1
  Sc  Sc13  1  0.75000000  0.17149200  0.60742300  1
  Sc  Sc14  1  0.75000000  0.32850800  0.10742300  1
  Sc  Sc15  1  0.25000000  0.67149200  0.89257700  1
  Sc  Sc16  1  0.25000000  0.53695300  0.33825800  1
  Sc  Sc17  1  0.75000000  0.46304700  0.66174200  1
  Sc  Sc18  1  0.75000000  0.03695300  0.16174200  1
  Sc  Sc19  1  0.25000000  0.96304700  0.83825800  1
  Sc  Sc20  1  0.25000000  0.24913000  0.23045700  1
  Sc  Sc21  1  0.75000000  0.75087000  0.76954300  1
  Sc  Sc22  1  0.75000000  0.74913000  0.26954300  1
  Sc  Sc23  1  0.25000000  0.25087000  0.73045700  1
  Ag  Ag0  1  0.25000000  0.14220900  0.07602000  1
  Ag  Ag1  1  0.75000000  0.85779100  0.92398000  1
  Ag  Ag2  1  0.75000000  0.64220900  0.42398000  1
  Ag  Ag3  1  0.25000000  0.35779100  0.57602000  1
  Te  Te0  1  0.25000000  0.22615300  0.87318100  1
  Te  Te1  1  0.75000000  0.77384700  0.12681900  1
  Te  Te2  1  0.75000000  0.72615300  0.62681900  1
  Te  Te3  1  0.25000000  0.27384700  0.37318100  1
  Te  Te4  1  0.25000000  0.53534700  0.76499000  1
  Te  Te5  1  0.75000000  0.46465300  0.23501000  1
  Te  Te6  1  0.75000000  0.03534700  0.73501000  1
  Te  Te7  1  0.25000000  0.96465300  0.26499000  1
loop_
_geom_bond_atom_site_label_1
_geom_bond_atom_site_label_2
_geom_bond_distance
_geom_bond_site_symmetry_2
Sc0 Te0 2.979343 1_555
Sc1 Te1 2.979343 1_555
Sc2 Te2 2.979343 1_555
Sc3 Te3 2.979343 1_555
Sc4 Te2 2.958175 1_555
Sc4 Te2 2.958175 1_455
Sc4 Te6 2.981585 1_465
Sc4 Te6 2.981585 1_565
Sc5 Te3 2.958175 1_555
Sc5 Te3 2.958175 1_655
Sc5 Te7 2.981585 1_545
Sc5 Te7 2.981585 1_645
Sc6 Te0 2.958175 1_555
Sc6 Te0 2.958175 1_655
Sc6 Te4 2.981585 1_655
Sc6 Te4 2.981585 1_555
Sc7 Te1 2.958175 1_555
Sc7 Te1 2.958175 1_455
Sc7 Te5 2.981585 1_455
Sc7 Te5 2.981585 1_555
Sc8 Te1 2.995434 1_555
Sc8 Te1 2.995434 1_455
Sc9 Te0 2.995434 1_555
Sc9 Te0 2.995434 1_655
Sc10 Te3 2.995434 1_655
Sc10 Te3 2.995434 1_555
Sc11 Te2 2.995434 1_455
Sc11 Te2 2.995434 1_555
Sc12 Te7 2.998264 1_555
Sc13 Te6 2.998264 1_555
Sc14 Te5 2.998264 1_555
Sc15 Te4 2.998264 1_555
Sc16 Te3 2.927329 1_555
Sc16 Te5 2.969097 1_555
Sc16 Te5 2.969097 1_455
Sc17 Te2 2.927329 1_555
Sc17 Te4 2.969097 1_655
Sc17 Te4 2.969097 1_555
Sc18 Te1 2.927329 1_545
Sc18 Te7 2.969097 1_645
Sc18 Te7 2.969097 1_545
Sc19 Te0 2.927329 1_565
Sc19 Te6 2.969097 1_565
Sc19 Te6 2.969097 1_465
Sc20 Te3 2.936082 1_555
Sc20 Te5 3.024603 1_455
Sc20 Te5 3.024603 1_555
Sc20 Te7 3.149600 1_545
Sc21 Te2 2.936082 1_555
Sc21 Te4 3.024603 1_555
Sc21 Te4 3.024603 1_655
Sc21 Te6 3.149600 1_565
Sc22 Te1 2.936082 1_555
Sc22 Te7 3.024603 1_655
Sc22 Te7 3.024603 1_555
Sc22 Te5 3.149600 1_555
Sc23 Te0 2.936082 1_555
Sc23 Te6 3.024603 1_555
Sc23 Te6 3.024603 1_455
Sc23 Te4 3.149600 1_555
Ag0 Sc18 2.847210 1_555
Ag0 Sc18 2.847210 1_455
Ag0 Sc14 2.861226 1_555
Ag0 Sc14 2.861226 1_455
Ag0 Sc9 2.902293 1_454
Ag0 Sc9 2.902293 1_554
Ag0 Sc8 3.016903 1_545
Ag0 Sc0 3.211254 1_554
Ag0 Sc20 3.367633 1_555
Ag1 Sc19 2.847210 1_655
Ag1 Sc19 2.847210 1_555
Ag1 Sc15 2.861226 1_655
Ag1 Sc15 2.861226 1_555
Ag1 Sc8 2.902293 1_556
Ag1 Sc8 2.902293 1_656
Ag1 Sc9 3.016903 1_565
Ag1 Sc1 3.211254 1_556
Ag1 Sc21 3.367633 1_555
Ag2 Sc16 2.847210 1_555
Ag2 Sc16 2.847210 1_655
Ag2 Sc12 2.861226 1_655
Ag2 Sc12 2.861226 1_555
Ag2 Sc11 2.902293 1_655
Ag2 Sc11 2.902293 1_555
Ag2 Sc10 3.016903 1_555
Ag2 Sc2 3.211254 1_555
Ag2 Sc22 3.367633 1_555
Ag3 Sc17 2.847210 1_455
Ag3 Sc17 2.847210 1_555
Ag3 Sc13 2.861226 1_455
Ag3 Sc13 2.861226 1_555
Ag3 Sc10 2.902293 1_455
Ag3 Sc10 2.902293 1_555
Ag3 Sc11 3.016903 1_555
Ag3 Sc3 3.211254 1_555
Ag3 Sc23 3.367633 1_555
