# generated using pymatgen
data_Ti13Al9(CoRh3)2
_symmetry_space_group_name_H-M   'P 1'
_cell_length_a   8.64116468
_cell_length_b   8.64116360
_cell_length_c   8.64116394
_cell_angle_alpha   59.81869943
_cell_angle_beta   59.81870499
_cell_angle_gamma   59.81870711
_symmetry_Int_Tables_number   1
_chemical_formula_structural   Ti13Al9(CoRh3)2
_chemical_formula_sum   'Ti13 Al9 Co2 Rh6'
_cell_volume   454.37131225
_cell_formula_units_Z   1
loop_
 _symmetry_equiv_pos_site_id
 _symmetry_equiv_pos_as_xyz
  1  'x, y, z'
loop_
 _atom_site_type_symbol
 _atom_site_label
 _atom_site_symmetry_multiplicity
 _atom_site_fract_x
 _atom_site_fract_y
 _atom_site_fract_z
 _atom_site_occupancy
  Ti  Ti0  1  0.20346230  0.20346230  0.79524049  1
  Ti  Ti1  1  0.79524049  0.20346230  0.20346230  1
  Ti  Ti2  1  0.20346230  0.79524049  0.20346230  1
  Ti  Ti3  1  0.80365668  0.80365668  0.18472533  1
  Ti  Ti4  1  0.18472533  0.80365668  0.80365668  1
  Ti  Ti5  1  0.80365668  0.18472533  0.80365668  1
  Ti  Ti6  1  0.38174352  0.38174352  0.38174352  1
  Ti  Ti7  1  0.38226449  0.85591831  0.38226449  1
  Ti  Ti8  1  0.85591831  0.38226449  0.38226449  1
  Ti  Ti9  1  0.38226449  0.38226449  0.85591831  1
  Ti  Ti10  1  0.84189015  0.47677019  0.84189015  1
  Ti  Ti11  1  0.47677019  0.84189015  0.84189015  1
  Ti  Ti12  1  0.84189015  0.84189015  0.47677019  1
  Al  Al0  1  0.15817878  0.15817878  0.15817878  1
  Al  Al1  1  0.16128417  0.51794008  0.16128417  1
  Al  Al2  1  0.51794008  0.16128417  0.16128417  1
  Al  Al3  1  0.16128417  0.16128417  0.51794008  1
  Al  Al4  1  0.61776873  0.61776873  0.61776873  1
  Al  Al5  1  0.61812444  0.14985310  0.61812444  1
  Al  Al6  1  0.14985310  0.61812444  0.61812444  1
  Al  Al7  1  0.61812444  0.61812444  0.14985310  1
  Al  Al8  1  0.82932117  0.82932117  0.82932117  1
  Co  Co0  1  0.50181598  0.50181598  0.50181598  1
  Co  Co1  1  0.00481168  0.00481168  0.00481168  1
  Rh  Rh0  1  0.00290377  0.00290377  0.49755267  1
  Rh  Rh1  1  0.49755267  0.00290377  0.00290377  1
  Rh  Rh2  1  0.00290377  0.49755267  0.00290377  1
  Rh  Rh3  1  0.49940386  0.49940386  0.00237924  1
  Rh  Rh4  1  0.00237924  0.49940386  0.49940386  1
  Rh  Rh5  1  0.49940386  0.00237924  0.49940386  1
loop_
_geom_bond_atom_site_label_1
_geom_bond_atom_site_label_2
_geom_bond_distance
_geom_bond_site_symmetry_2
Al0 Rh0 2.469438 1_555
Al0 Rh2 2.469438 1_555
Al0 Rh1 2.469439 1_555
Al1 Rh2 2.478965 1_555
Al1 Rh4 2.482828 1_555
Al1 Rh3 2.482829 1_555
Al2 Rh1 2.478965 1_555
Al2 Rh3 2.482828 1_555
Al2 Rh5 2.482828 1_555
Al3 Rh0 2.478965 1_555
Al3 Rh4 2.482828 1_555
Al3 Rh5 2.482829 1_555
Al4 Co0 2.457665 1_555
Al4 Rh5 2.711803 1_565
Al4 Rh3 2.711803 1_556
Al4 Rh4 2.711804 1_655
Al5 Co0 2.477681 1_555
Al5 Rh1 2.712025 1_556
Al5 Rh0 2.712025 1_655
Al5 Rh5 2.723236 1_555
Al6 Co0 2.477681 1_555
Al6 Rh0 2.712025 1_565
Al6 Rh2 2.712025 1_556
Al6 Rh4 2.723236 1_555
Al7 Co0 2.477681 1_555
Al7 Rh1 2.712025 1_565
Al7 Rh2 2.712025 1_655
Al7 Rh3 2.723236 1_555
Al8 Rh0 2.516626 1_665
Al8 Rh2 2.516626 1_656
Al8 Rh1 2.516626 1_566
Co0 Ti7 2.492700 1_555
Co0 Ti9 2.492700 1_555
Co0 Ti8 2.492701 1_555
Co0 Ti6 2.544984 1_555
Co1 Ti0 2.425745 1_554
Co1 Ti2 2.425745 1_545
Co1 Ti1 2.425745 1_455
Co1 Ti3 2.462400 1_445
Co1 Ti5 2.462400 1_454
Co1 Ti4 2.462400 1_544
Rh0 Ti12 2.520484 1_445
Rh0 Ti8 2.674688 1_455
Rh0 Ti7 2.674688 1_545
Rh0 Ti4 3.051067 1_545
Rh0 Ti5 3.051067 1_455
Rh0 Ti1 3.116348 1_455
Rh0 Ti2 3.116348 1_545
Rh1 Ti11 2.520484 1_544
Rh1 Ti9 2.674688 1_554
Rh1 Ti7 2.674688 1_545
Rh1 Ti5 3.051067 1_554
Rh1 Ti3 3.051067 1_545
Rh1 Ti2 3.116348 1_545
Rh1 Ti0 3.116348 1_554
Rh2 Ti10 2.520484 1_454
Rh2 Ti8 2.674688 1_455
Rh2 Ti9 2.674688 1_554
Rh2 Ti4 3.051067 1_554
Rh2 Ti3 3.051067 1_455
Rh2 Ti1 3.116348 1_455
Rh2 Ti0 3.116348 1_554
Rh3 Ti11 2.506798 1_554
Rh3 Ti10 2.506799 1_554
Rh3 Ti6 2.674072 1_555
Rh3 Ti9 2.693929 1_554
Rh4 Ti12 2.506798 1_455
Rh4 Ti10 2.506798 1_455
Rh4 Ti6 2.674072 1_555
Rh4 Ti8 2.693929 1_455
Rh5 Ti11 2.506798 1_545
Rh5 Ti12 2.506799 1_545
Rh5 Ti6 2.674072 1_555
Rh5 Ti7 2.693929 1_545
