# generated using pymatgen
data_Cs4Nb2PbS8
_symmetry_space_group_name_H-M   'P 1'
_cell_length_a   9.75502562
_cell_length_b   9.91215298
_cell_length_c   12.01425616
_cell_angle_alpha   106.97826599
_cell_angle_beta   102.61362761
_cell_angle_gamma   94.64036726
_symmetry_Int_Tables_number   1
_chemical_formula_structural   Cs4Nb2PbS8
_chemical_formula_sum   'Cs8 Nb4 Pb2 S16'
_cell_volume   1071.14632979
_cell_formula_units_Z   2
loop_
 _symmetry_equiv_pos_site_id
 _symmetry_equiv_pos_as_xyz
  1  'x, y, z'
loop_
 _atom_site_type_symbol
 _atom_site_label
 _atom_site_symmetry_multiplicity
 _atom_site_fract_x
 _atom_site_fract_y
 _atom_site_fract_z
 _atom_site_occupancy
  Cs  Cs0  1  0.93415374  0.52343894  0.25828378  1
  Cs  Cs1  1  0.06584626  0.47656106  0.74171622  1
  Cs  Cs2  1  0.76396287  0.99431435  0.46984457  1
  Cs  Cs3  1  0.23603713  0.00568565  0.53015543  1
  Cs  Cs4  1  0.60023061  0.74589264  0.01574630  1
  Cs  Cs5  1  0.39976939  0.25410736  0.98425370  1
  Cs  Cs6  1  0.61134318  0.68580104  0.61680658  1
  Cs  Cs7  1  0.38865682  0.31419896  0.38319342  1
  Nb  Nb0  1  0.95276706  0.11200711  0.23613185  1
  Nb  Nb1  1  0.04723294  0.88799289  0.76386815  1
  Nb  Nb2  1  0.37260308  0.68076258  0.25934809  1
  Nb  Nb3  1  0.62739692  0.31923742  0.74065191  1
  Pb  Pb0  1  0.84985355  0.14723467  0.92501204  1
  Pb  Pb1  1  0.15014645  0.85276533  0.07498796  1
  S  S0  1  0.95579257  0.87814385  0.23136415  1
  S  S1  1  0.04420743  0.12185615  0.76863585  1
  S  S2  1  0.59868961  0.07969805  0.72838339  1
  S  S3  1  0.40131039  0.92030195  0.27161661  1
  S  S4  1  0.28754764  0.65442045  0.41397753  1
  S  S5  1  0.71245236  0.34557955  0.58602247  1
  S  S6  1  0.79067166  0.43266806  0.92133617  1
  S  S7  1  0.20932834  0.56733194  0.07866383  1
  S  S8  1  0.02865634  0.25740771  0.42764919  1
  S  S9  1  0.97134366  0.74259229  0.57235081  1
  S  S10  1  0.10893542  0.16222610  0.12911904  1
  S  S11  1  0.89106458  0.83777390  0.87088096  1
  S  S12  1  0.73233659  0.14245362  0.14067450  1
  S  S13  1  0.26766341  0.85754638  0.85932550  1
  S  S14  1  0.58068997  0.59215832  0.26662343  1
  S  S15  1  0.41931003  0.40784168  0.73337657  1
loop_
_geom_bond_atom_site_label_1
_geom_bond_atom_site_label_2
_geom_bond_distance
_geom_bond_site_symmetry_2
Cs0 S4 3.479944 1_655
Cs0 S14 3.585261 1_555
Cs0 S0 3.617245 1_555
Cs0 S9 3.684524 1_555
Cs0 S6 3.788235 1_554
Cs0 S12 3.820904 1_555
Cs0 S8 3.827718 1_655
Cs0 S7 3.865395 1_655
Cs1 S5 3.479944 1_455
Cs1 S15 3.585261 1_555
Cs1 S1 3.617245 1_555
Cs1 S8 3.684524 1_555
Cs1 S7 3.788235 1_556
Cs1 S13 3.820904 1_555
Cs1 S9 3.827718 1_455
Cs1 S6 3.865395 1_455
Cs2 S5 3.474878 1_565
Cs2 S9 3.654855 1_555
Cs2 S3 3.688526 1_555
Cs2 S0 3.714891 1_555
Cs2 S2 3.719741 1_565
Cs2 S8 3.738876 1_665
Cs2 S1 3.802957 1_665
Cs2 S14 4.037819 1_555
Cs3 S4 3.474878 1_545
Cs3 S8 3.654855 1_555
Cs3 S2 3.688526 1_555
Cs3 S1 3.714891 1_555
Cs3 S3 3.719741 1_545
Cs3 S9 3.738876 1_445
Cs3 S0 3.802957 1_445
Cs3 S15 4.037819 1_555
Cs4 S0 3.717052 1_555
Cs4 S6 3.764846 1_554
Cs4 S12 3.775514 1_565
Cs4 S14 3.785441 1_555
Cs4 S13 3.796608 1_554
Cs4 S11 3.817323 1_554
Cs4 S15 3.954859 1_554
Cs4 S3 4.030943 1_555
Cs5 S1 3.717052 1_555
Cs5 S7 3.764846 1_556
Cs5 S13 3.775514 1_545
Cs5 S15 3.785441 1_555
Cs5 S12 3.796608 1_556
Cs5 S10 3.817323 1_556
Cs5 S14 3.954859 1_556
Cs5 S2 4.030943 1_555
Cs6 S11 3.470501 1_555
Cs6 S4 3.471104 1_555
Cs6 S5 3.528641 1_555
Cs6 S9 3.689162 1_555
Cs6 S2 3.761632 1_565
Cs6 S15 3.952954 1_555
Cs6 S14 3.971952 1_555
Cs7 S10 3.470501 1_555
Cs7 S5 3.471104 1_555
Cs7 S4 3.528641 1_555
Cs7 S8 3.689162 1_555
Cs7 S3 3.761632 1_545
Cs7 S14 3.952954 1_555
Cs7 S15 3.971952 1_555
Nb0 S8 2.250825 1_655
Nb0 S12 2.293518 1_555
Nb0 S0 2.304766 1_545
Nb0 S10 2.308264 1_655
Nb1 S9 2.250825 1_455
Nb1 S13 2.293518 1_555
Nb1 S1 2.304766 1_565
Nb1 S11 2.308264 1_455
Nb2 S4 2.264801 1_555
Nb2 S14 2.270516 1_555
Nb2 S7 2.299580 1_555
Nb2 S3 2.325444 1_555
Nb3 S5 2.264801 1_555
Nb3 S15 2.270516 1_555
Nb3 S6 2.299580 1_555
Nb3 S2 2.325444 1_555
Pb0 S2 2.883570 1_555
Pb0 S1 2.923071 1_655
Pb0 S6 2.943821 1_555
Pb0 S11 3.023626 1_545
Pb0 S12 3.064318 1_556
Pb0 S10 3.072861 1_656
Pb1 S3 2.883570 1_555
Pb1 S0 2.923071 1_455
Pb1 S7 2.943821 1_555
Pb1 S10 3.023626 1_565
Pb1 S13 3.064318 1_554
Pb1 S11 3.072861 1_454
