# generated using pymatgen
data_Sr2OsPdN2
_symmetry_space_group_name_H-M   'P 1'
_cell_length_a   5.42320801
_cell_length_b   5.42320801
_cell_length_c   7.77834379
_cell_angle_alpha   90.00000000
_cell_angle_beta   90.00000000
_cell_angle_gamma   90.00000000
_symmetry_Int_Tables_number   1
_chemical_formula_structural   Sr2OsPdN2
_chemical_formula_sum   'Sr4 Os2 Pd2 N4'
_cell_volume   228.77030927
_cell_formula_units_Z   2
loop_
 _symmetry_equiv_pos_site_id
 _symmetry_equiv_pos_as_xyz
  1  'x, y, z'
loop_
 _atom_site_type_symbol
 _atom_site_label
 _atom_site_symmetry_multiplicity
 _atom_site_fract_x
 _atom_site_fract_y
 _atom_site_fract_z
 _atom_site_occupancy
  Sr  Sr0  1  0.00000000  0.50000000  0.75000000  1
  Sr  Sr1  1  0.00000000  0.50000000  0.25000000  1
  Sr  Sr2  1  0.50000000  0.00000000  0.25000000  1
  Sr  Sr3  1  0.50000000  0.00000000  0.75000000  1
  Os  Os0  1  0.50000000  0.50000000  0.50000000  1
  Os  Os1  1  0.00000000  0.00000000  0.00000000  1
  Pd  Pd0  1  0.00000000  0.00000000  0.50000000  1
  Pd  Pd1  1  0.50000000  0.50000000  0.00000000  1
  N  N0  1  0.73730607  0.73730607  0.50000000  1
  N  N1  1  0.76269393  0.23730607  0.00000000  1
  N  N2  1  0.26269393  0.26269393  0.50000000  1
  N  N3  1  0.23730607  0.76269393  0.00000000  1
loop_
_geom_bond_atom_site_label_1
_geom_bond_atom_site_label_2
_geom_bond_distance
_geom_bond_site_symmetry_2
N0 Os0 1.820037 1_555
N0 Pd0 2.014751 1_665
N0 Sr2 2.732634 1_565
N0 Sr3 2.732634 1_565
N0 Sr1 2.732634 1_655
N0 Sr0 2.732634 1_655
N1 Os1 1.820037 1_655
N1 Pd1 2.014751 1_555
N1 Sr3 2.732634 1_554
N1 Sr2 2.732634 1_555
N1 Sr0 2.732634 1_654
N1 Sr1 2.732634 1_655
N2 Os0 1.820037 1_555
N2 Pd0 2.014751 1_555
N2 Sr1 2.732634 1_555
N2 Sr2 2.732634 1_555
N2 Sr3 2.732634 1_555
N2 Sr0 2.732634 1_555
N3 Os1 1.820037 1_565
N3 Pd1 2.014751 1_555
N3 Sr1 2.732634 1_555
N3 Sr0 2.732634 1_554
N3 Sr3 2.732634 1_564
N3 Sr2 2.732634 1_565
