# generated using pymatgen
data_Sr10Re3OsN14
_symmetry_space_group_name_H-M   'P 1'
_cell_length_a   6.36012260
_cell_length_b   9.36276612
_cell_length_c   9.37039741
_cell_angle_alpha   115.12208945
_cell_angle_beta   100.87548630
_cell_angle_gamma   89.03974104
_symmetry_Int_Tables_number   1
_chemical_formula_structural   Sr10Re3OsN14
_chemical_formula_sum   'Sr10 Re3 Os1 N14'
_cell_volume   494.87412876
_cell_formula_units_Z   1
loop_
 _symmetry_equiv_pos_site_id
 _symmetry_equiv_pos_as_xyz
  1  'x, y, z'
loop_
 _atom_site_type_symbol
 _atom_site_label
 _atom_site_symmetry_multiplicity
 _atom_site_fract_x
 _atom_site_fract_y
 _atom_site_fract_z
 _atom_site_occupancy
  Sr  Sr0  1  0.87928705  0.59845304  0.33995798  1
  Sr  Sr1  1  0.27867982  0.99087971  0.57355850  1
  Sr  Sr2  1  0.67981720  0.40177166  0.83700115  1
  Sr  Sr3  1  0.31178823  0.59333402  0.15662561  1
  Sr  Sr4  1  0.38162086  0.78319917  0.89779877  1
  Sr  Sr5  1  0.61889094  0.21554721  0.10390924  1
  Sr  Sr6  1  0.11914184  0.39819712  0.65824531  1
  Sr  Sr7  1  0.87803854  0.85308916  0.74950653  1
  Sr  Sr8  1  0.13111328  0.14877258  0.25323747  1
  Sr  Sr9  1  0.72192588  0.01178179  0.42806382  1
  Re  Re0  1  0.42493608  0.63744923  0.52197494  1
  Re  Re1  1  0.12013659  0.21917135  0.92296605  1
  Re  Re2  1  0.87836039  0.78002617  0.07683277  1
  Os  Os0  1  0.57866082  0.35961494  0.47546739  1
  N  N0  1  0.46993111  0.53370537  0.66697066  1
  N  N1  1  0.52422230  0.46961878  0.33238541  1
  N  N2  1  0.17859795  0.73893953  0.59453176  1
  N  N3  1  0.82455923  0.26089390  0.39588598  1
  N  N4  1  0.43514659  0.20441802  0.51548924  1
  N  N5  1  0.57005535  0.80255429  0.50212249  1
  N  N6  1  0.94311110  0.13810780  0.72313820  1
  N  N7  1  0.05700166  0.86302025  0.27570419  1
  N  N8  1  0.22919929  0.06037913  0.97302773  1
  N  N9  1  0.76833522  0.93731974  0.02536304  1
  N  N10  1  0.34808739  0.32866060  0.91502935  1
  N  N11  1  0.97645208  0.35052246  0.07662601  1
  N  N12  1  0.02246188  0.64996400  0.92223886  1
  N  N13  1  0.65044133  0.67060894  0.08634153  1
loop_
_geom_bond_atom_site_label_1
_geom_bond_atom_site_label_2
_geom_bond_distance
_geom_bond_site_symmetry_2
N0 Re0 1.958541 1_555
N0 Os0 2.074140 1_555
N0 Sr6 2.555772 1_555
N0 Sr4 2.564145 1_555
N0 Sr2 2.580613 1_555
N1 Os0 1.990880 1_555
N1 Re0 2.010904 1_555
N1 Sr0 2.553025 1_555
N1 Sr3 2.570460 1_555
N1 Sr5 2.592083 1_555
N2 Re0 1.903512 1_555
N2 Sr1 2.549345 1_555
N2 Sr7 2.562512 1_455
N2 Sr0 2.598186 1_455
N2 Sr4 2.747342 1_555
N3 Os0 1.913824 1_555
N3 Sr8 2.532488 1_655
N3 Sr9 2.584460 1_555
N3 Sr6 2.620281 1_655
N3 Sr5 2.656787 1_555
N4 Os0 1.929127 1_555
N4 Sr9 2.539667 1_555
N4 Sr1 2.545266 1_545
N4 Sr8 2.683836 1_555
N4 Sr6 2.819943 1_555
N4 Sr2 2.917656 1_555
N5 Re0 1.906016 1_555
N5 Sr1 2.519485 1_555
N5 Sr9 2.592817 1_565
N5 Sr7 2.611643 1_555
N5 Sr0 2.892239 1_555
N5 Sr3 3.119743 1_555
N6 Re1 1.837455 1_655
N6 Sr9 2.614221 1_555
N6 Sr1 2.794537 1_645
N6 Sr7 2.826487 1_545
N6 Sr2 2.887199 1_555
N6 Sr6 3.026345 1_655
N7 Re2 1.835340 1_455
N7 Sr1 2.635406 1_555
N7 Sr9 2.807146 1_465
N7 Sr8 2.825313 1_565
N7 Sr3 2.898194 1_555
N7 Sr0 3.064796 1_455
N8 Re1 1.829321 1_555
N8 Sr8 2.593062 1_556
N8 Sr4 2.606111 1_545
N8 Sr5 2.686713 1_556
N8 Sr7 2.840828 1_445
N9 Re2 1.825469 1_555
N9 Sr7 2.592608 1_554
N9 Sr5 2.604625 1_565
N9 Sr4 2.665600 1_554
N9 Sr8 2.916706 1_665
N10 Re1 1.820315 1_555
N10 Sr2 2.551485 1_555
N10 Sr3 2.594957 1_556
N10 Sr5 2.756928 1_556
N10 Sr6 2.882719 1_555
N11 Re1 1.837404 1_654
N11 Sr5 2.724725 1_555
N11 Sr0 2.742786 1_555
N11 Sr2 2.849089 1_554
N11 Sr3 2.896751 1_655
N11 Sr8 3.041740 1_655
N12 Re2 1.840403 1_456
N12 Sr4 2.713313 1_555
N12 Sr6 2.761911 1_555
N12 Sr3 2.814606 1_556
N12 Sr2 2.953641 1_455
N12 Sr7 3.012396 1_455
N13 Re2 1.826136 1_555
N13 Sr3 2.566804 1_555
N13 Sr2 2.642887 1_554
N13 Sr4 2.745331 1_554
N13 Sr0 2.871859 1_555
