# generated using pymatgen
data_Rb4Zr5Sn3Se16
_symmetry_space_group_name_H-M   'P 1'
_cell_length_a   6.93767511
_cell_length_b   7.88126327
_cell_length_c   16.64233218
_cell_angle_alpha   90.00000000
_cell_angle_beta   90.28365937
_cell_angle_gamma   90.00000000
_symmetry_Int_Tables_number   1
_chemical_formula_structural   Rb4Zr5Sn3Se16
_chemical_formula_sum   'Rb4 Zr5 Sn3 Se16'
_cell_volume   909.95236269
_cell_formula_units_Z   1
loop_
 _symmetry_equiv_pos_site_id
 _symmetry_equiv_pos_as_xyz
  1  'x, y, z'
loop_
 _atom_site_type_symbol
 _atom_site_label
 _atom_site_symmetry_multiplicity
 _atom_site_fract_x
 _atom_site_fract_y
 _atom_site_fract_z
 _atom_site_occupancy
  Rb  Rb0  1  0.34415530  0.00000000  0.99781773  1
  Rb  Rb1  1  0.63948594  0.50000000  0.50081205  1
  Rb  Rb2  1  0.02030939  0.00000000  0.50253112  1
  Rb  Rb3  1  0.97706388  0.50000000  0.00287070  1
  Zr  Zr0  1  0.99936574  0.50000000  0.74619975  1
  Zr  Zr1  1  0.49874988  0.24919036  0.25049990  1
  Zr  Zr2  1  0.50227198  0.75167581  0.74914767  1
  Zr  Zr3  1  0.49874988  0.75080964  0.25049990  1
  Zr  Zr4  1  0.50227198  0.24832419  0.74914767  1
  Sn  Sn0  1  0.00396535  0.00000000  0.24746312  1
  Sn  Sn1  1  0.00851291  0.00000000  0.75311185  1
  Sn  Sn2  1  0.99301793  0.50000000  0.25347620  1
  Se  Se0  1  0.81582670  0.24876848  0.34428389  1
  Se  Se1  1  0.82360338  0.73785867  0.65727922  1
  Se  Se2  1  0.18141229  0.74784351  0.15666467  1
  Se  Se3  1  0.18323946  0.26850150  0.84178456  1
  Se  Se4  1  0.18141229  0.25215649  0.15666467  1
  Se  Se5  1  0.18323946  0.73149850  0.84178456  1
  Se  Se6  1  0.81582670  0.75123152  0.34428389  1
  Se  Se7  1  0.82360338  0.26214133  0.65727922  1
  Se  Se8  1  0.65997791  0.00000000  0.15930549  1
  Se  Se9  1  0.65041208  0.00000000  0.84093778  1
  Se  Se10  1  0.33425721  0.50000000  0.34049986  1
  Se  Se11  1  0.32753501  0.50000000  0.65785650  1
  Se  Se12  1  0.34106215  0.00000000  0.34187065  1
  Se  Se13  1  0.35868341  0.00000000  0.65685737  1
  Se  Se14  1  0.65691337  0.50000000  0.15980618  1
  Se  Se15  1  0.67507304  0.50000000  0.83926486  1
loop_
_geom_bond_atom_site_label_1
_geom_bond_atom_site_label_2
_geom_bond_distance
_geom_bond_site_symmetry_2
Rb0 Se9 3.374292 1_555
Rb0 Se8 3.459094 1_556
Rb0 Se4 3.498895 1_556
Rb0 Se2 3.498895 1_546
Rb0 Se5 3.526862 1_545
Rb0 Se3 3.526862 1_555
Rb1 Se10 3.397978 1_555
Rb1 Se11 3.401567 1_555
Rb1 Se1 3.448712 1_555
Rb1 Se7 3.448712 1_555
Rb1 Se6 3.497818 1_555
Rb1 Se0 3.497818 1_555
Rb2 Se13 3.470967 1_555
Rb2 Se12 3.487090 1_555
Rb2 Se0 3.571468 1_455
Rb2 Se6 3.571468 1_445
Rb2 Se7 3.577438 1_455
Rb2 Se1 3.577438 1_445
Rb3 Se15 3.427326 1_554
Rb3 Se14 3.436871 1_555
Rb3 Se2 3.512891 1_655
Rb3 Se4 3.512891 1_655
Rb3 Se3 3.549607 1_654
Rb3 Se5 3.549607 1_654
Se0 Zr1 2.690925 1_555
Se0 Sn2 2.780994 1_555
Se0 Sn0 2.857419 1_655
Se1 Zr0 2.678282 1_555
Se1 Zr2 2.711624 1_555
Se1 Sn1 2.904727 1_665
Se2 Zr3 2.692989 1_555
Se2 Sn0 2.786893 1_565
Se2 Sn2 2.853152 1_455
Se3 Zr4 2.708281 1_555
Se3 Zr0 2.732491 1_455
Se3 Sn1 2.847362 1_555
Se4 Zr1 2.692989 1_555
Se4 Sn0 2.786893 1_555
Se4 Sn2 2.853152 1_455
Se5 Zr2 2.708281 1_555
Se5 Zr0 2.732491 1_455
Se5 Sn1 2.847362 1_565
Se6 Zr3 2.690925 1_555
Se6 Sn2 2.780994 1_555
Se6 Sn0 2.857419 1_665
Se7 Zr0 2.678282 1_555
Se7 Zr4 2.711624 1_555
Se7 Sn1 2.904727 1_655
Se8 Zr1 2.725504 1_555
Se8 Zr3 2.725504 1_545
Se8 Sn0 2.795194 1_655
Se9 Zr4 2.684131 1_555
Se9 Zr2 2.684131 1_545
Se9 Sn1 2.888683 1_655
Se10 Zr3 2.733133 1_555
Se10 Zr1 2.733133 1_555
Se10 Sn2 2.769147 1_455
Se11 Zr0 2.716294 1_455
Se11 Zr2 2.773804 1_555
Se11 Zr4 2.773804 1_555
Se12 Zr1 2.717096 1_555
Se12 Zr3 2.717096 1_545
Se12 Sn0 2.810967 1_555
Se13 Zr4 2.677041 1_555
Se13 Zr2 2.677041 1_545
Se13 Sn1 2.916582 1_555
Se14 Zr3 2.721382 1_555
Se14 Zr1 2.721382 1_555
Se14 Sn2 2.798456 1_555
Se15 Zr0 2.737721 1_555
Se15 Zr2 2.757364 1_555
Se15 Zr4 2.757364 1_555
