# generated using pymatgen
data_KBeAlAs2
_symmetry_space_group_name_H-M   'P 1'
_cell_length_a   7.71938966
_cell_length_b   7.71938908
_cell_length_c   7.71939146
_cell_angle_alpha   150.61715467
_cell_angle_beta   150.61714733
_cell_angle_gamma   42.03624139
_symmetry_Int_Tables_number   1
_chemical_formula_structural   KBeAlAs2
_chemical_formula_sum   'K1 Be1 Al1 As2'
_cell_volume   110.47182912
_cell_formula_units_Z   1
loop_
 _symmetry_equiv_pos_site_id
 _symmetry_equiv_pos_as_xyz
  1  'x, y, z'
loop_
 _atom_site_type_symbol
 _atom_site_label
 _atom_site_symmetry_multiplicity
 _atom_site_fract_x
 _atom_site_fract_y
 _atom_site_fract_z
 _atom_site_occupancy
  K  K0  1  0.00000000  0.00000000  0.00000000  1
  Be  Be0  1  0.25000000  0.75000000  0.50000000  1
  Al  Al0  1  0.75000000  0.25000000  0.50000000  1
  As  As0  1  0.64973766  0.64973766  0.00000000  1
  As  As1  1  0.35026234  0.35026234  1.00000000  1
loop_
_geom_bond_atom_site_label_1
_geom_bond_atom_site_label_2
_geom_bond_distance
_geom_bond_site_symmetry_2
Al0 As0 2.433226 1_545
Al0 As1 2.433227 1_655
Al0 As0 2.433227 1_556
Al0 As1 2.433228 1_554
As0 Be0 2.433227 1_655
As0 Be0 2.433228 1_554
As0 K0 3.510308 1_554
As0 K0 3.510308 1_655
As0 K0 3.510309 1_565
As0 K0 3.510310 1_666
As1 Be0 2.433226 1_545
As1 Be0 2.433227 1_556
As1 K0 3.510308 1_667
As1 K0 3.510308 1_566
As1 K0 3.510309 1_656
As1 K0 3.510310 1_555
