# generated using pymatgen
data_Cs6AlTe4I
_symmetry_space_group_name_H-M   'P 1'
_cell_length_a   12.03114304
_cell_length_b   12.03114616
_cell_length_c   9.16927635
_cell_angle_alpha   90.00000000
_cell_angle_beta   90.00000000
_cell_angle_gamma   120.00025291
_symmetry_Int_Tables_number   1
_chemical_formula_structural   Cs6AlTe4I
_chemical_formula_sum   'Cs12 Al2 Te8 I2'
_cell_volume   1149.41928592
_cell_formula_units_Z   2
loop_
 _symmetry_equiv_pos_site_id
 _symmetry_equiv_pos_as_xyz
  1  'x, y, z'
loop_
 _atom_site_type_symbol
 _atom_site_label
 _atom_site_symmetry_multiplicity
 _atom_site_fract_x
 _atom_site_fract_y
 _atom_site_fract_z
 _atom_site_occupancy
  Cs  Cs0  1  0.14139420  0.85860480  0.51399671  1
  Cs  Cs1  1  0.71720961  0.85860480  0.51399571  1
  Cs  Cs2  1  0.94863334  0.47431667  0.31970260  1
  Cs  Cs3  1  0.52568333  0.47431667  0.31970260  1
  Cs  Cs4  1  0.85860580  0.71720961  0.01399571  1
  Cs  Cs5  1  0.28279039  0.14139520  0.01399571  1
  Cs  Cs6  1  0.52568333  0.05136666  0.31970260  1
  Cs  Cs7  1  0.14139420  0.28279039  0.51399571  1
  Cs  Cs8  1  0.85860580  0.14139520  0.01399671  1
  Cs  Cs9  1  0.05136666  0.52568333  0.81970260  1
  Cs  Cs10  1  0.47431667  0.94863334  0.81970260  1
  Cs  Cs11  1  0.47431667  0.52568333  0.81970260  1
  Al  Al0  1  0.66666600  0.33333400  0.70979515  1
  Al  Al1  1  0.33333400  0.66666600  0.20979515  1
  Te  Te0  1  0.42442820  0.21221460  0.61834793  1
  Te  Te1  1  0.57557180  0.78778540  0.11834793  1
  Te  Te2  1  0.66666700  0.33333300  0.00548230  1
  Te  Te3  1  0.78778540  0.57557180  0.61834793  1
  Te  Te4  1  0.21221460  0.42442820  0.11834793  1
  Te  Te5  1  0.33333300  0.66666700  0.50548230  1
  Te  Te6  1  0.21221360  0.78778640  0.11834693  1
  Te  Te7  1  0.78778640  0.21221360  0.61834693  1
  I  I0  1  0.00000000  0.00000000  0.26918282  1
  I  I1  1  0.00000000  0.00000000  0.76918282  1
loop_
_geom_bond_atom_site_label_1
_geom_bond_atom_site_label_2
_geom_bond_distance
_geom_bond_site_symmetry_2
Cs0 I0 3.704137 1_565
Cs0 I1 3.762533 1_565
Cs0 Te6 3.916501 1_555
Cs0 Te5 4.000484 1_555
Cs0 Te3 4.015375 1_455
Cs0 Te0 4.015387 1_565
Cs1 I0 3.704130 1_665
Cs1 I1 3.762538 1_665
Cs1 Te1 3.916482 1_555
Cs1 Te5 4.000468 1_555
Cs1 Te7 4.015382 1_565
Cs1 Te3 4.015394 1_555
Cs2 Te7 3.883939 1_555
Cs2 Te3 3.883954 1_555
Cs2 Te6 3.965944 1_655
Cs2 Te4 3.965957 1_655
Cs2 Te2 4.114885 1_555
Cs3 Te3 3.883940 1_555
Cs3 Te0 3.883941 1_555
Cs3 Te4 3.965942 1_555
Cs3 Te1 3.965943 1_555
Cs3 Te2 4.114901 1_555
Cs4 I1 3.704131 1_664
Cs4 I0 3.762538 1_665
Cs4 Te3 3.916482 1_554
Cs4 Te2 4.000469 1_555
Cs4 Te6 4.015370 1_655
Cs4 Te1 4.015405 1_555
Cs5 I1 3.704130 1_554
Cs5 I0 3.762538 1_555
Cs5 Te0 3.916482 1_554
Cs5 Te2 4.000468 1_555
Cs5 Te6 4.015382 1_545
Cs5 Te4 4.015394 1_555
Cs6 Te7 3.883938 1_555
Cs6 Te0 3.883954 1_555
Cs6 Te6 3.965944 1_545
Cs6 Te1 3.965957 1_545
Cs6 Te2 4.114886 1_555
Cs7 I0 3.704131 1_555
Cs7 I1 3.762538 1_555
Cs7 Te4 3.916482 1_555
Cs7 Te5 4.000469 1_555
Cs7 Te7 4.015370 1_455
Cs7 Te0 4.015405 1_555
Cs8 I1 3.704137 1_654
Cs8 I0 3.762533 1_655
Cs8 Te7 3.916501 1_554
Cs8 Te2 4.000484 1_555
Cs8 Te4 4.015375 1_655
Cs8 Te1 4.015387 1_545
Cs9 Te6 3.883939 1_556
Cs9 Te4 3.883954 1_556
Cs9 Te7 3.965944 1_455
Cs9 Te3 3.965957 1_455
Cs9 Te5 4.114885 1_555
Cs10 Te6 3.883938 1_556
Cs10 Te1 3.883954 1_556
Cs10 Te7 3.965944 1_565
Cs10 Te0 3.965957 1_565
Cs10 Te5 4.114886 1_555
Cs11 Te4 3.883940 1_556
Cs11 Te1 3.883941 1_556
Cs11 Te3 3.965942 1_555
Cs11 Te0 3.965943 1_555
Cs11 Te5 4.114901 1_555
Al0 Te0 2.659576 1_555
Al0 Te3 2.659576 1_555
Al0 Te7 2.659618 1_555
Al0 Te2 2.711237 1_556
Al1 Te1 2.659576 1_555
Al1 Te4 2.659576 1_555
Al1 Te6 2.659618 1_555
Al1 Te5 2.711237 1_555
