# generated using pymatgen
data_AgBiPt2O7
_symmetry_space_group_name_H-M   'P 1'
_cell_length_a   7.21658718
_cell_length_b   7.21658744
_cell_length_c   7.11375701
_cell_angle_alpha   60.47025011
_cell_angle_beta   60.47024894
_cell_angle_gamma   61.38999514
_symmetry_Int_Tables_number   1
_chemical_formula_structural   AgBiPt2O7
_chemical_formula_sum   'Ag2 Bi2 Pt4 O14'
_cell_volume   266.51349526
_cell_formula_units_Z   2
loop_
 _symmetry_equiv_pos_site_id
 _symmetry_equiv_pos_as_xyz
  1  'x, y, z'
loop_
 _atom_site_type_symbol
 _atom_site_label
 _atom_site_symmetry_multiplicity
 _atom_site_fract_x
 _atom_site_fract_y
 _atom_site_fract_z
 _atom_site_occupancy
  Ag  Ag0  1  0.12500000  0.12500000  0.62500000  1
  Ag  Ag1  1  0.12500000  0.12500000  0.12500000  1
  Bi  Bi0  1  0.12500000  0.62500000  0.12500000  1
  Bi  Bi1  1  0.62500000  0.12500000  0.12500000  1
  Pt  Pt0  1  0.62500000  0.62500000  0.12500000  1
  Pt  Pt1  1  0.62500000  0.12500000  0.62500000  1
  Pt  Pt2  1  0.12500000  0.62500000  0.62500000  1
  Pt  Pt3  1  0.62500000  0.62500000  0.62500000  1
  O  O0  1  0.23811369  0.23811369  0.26188631  1
  O  O1  1  0.01188631  0.01188631  0.98811369  1
  O  O2  1  0.54724640  0.95530762  0.53811899  1
  O  O3  1  0.29469238  0.70275360  0.29067302  1
  O  O4  1  0.53885308  0.53885308  0.96114692  1
  O  O5  1  0.95530762  0.54724640  0.53811899  1
  O  O6  1  0.54724640  0.95530762  0.95932698  1
  O  O7  1  0.95499765  0.95499765  0.54500235  1
  O  O8  1  0.95530762  0.54724640  0.95932698  1
  O  O9  1  0.70275360  0.29469238  0.29067302  1
  O  O10  1  0.29469238  0.70275360  0.71188101  1
  O  O11  1  0.70275360  0.29469238  0.71188101  1
  O  O12  1  0.29500235  0.29500235  0.70499765  1
  O  O13  1  0.71114692  0.71114692  0.28885308  1
loop_
_geom_bond_atom_site_label_1
_geom_bond_atom_site_label_2
_geom_bond_distance
_geom_bond_site_symmetry_2
Ag0 O1 2.118061 1_555
Ag0 O0 2.118061 1_555
Ag0 O12 2.480325 1_555
Ag0 O7 2.480325 1_445
Ag0 O2 2.546142 1_545
Ag0 O11 2.546142 1_455
Ag0 O5 2.546142 1_455
Ag0 O10 2.546142 1_545
Ag1 O0 2.118061 1_555
Ag1 O1 2.118061 1_554
Ag1 O7 2.480325 1_445
Ag1 O12 2.480325 1_554
Ag1 O6 2.546142 1_544
Ag1 O9 2.546142 1_455
Ag1 O8 2.546142 1_454
Ag1 O3 2.546142 1_545
Bi0 O1 2.308829 1_564
Bi0 O0 2.308829 1_555
Bi0 O5 2.436420 1_455
Bi0 O10 2.436420 1_554
Bi0 O3 2.436420 1_555
Bi0 O8 2.436420 1_454
Bi0 O4 2.483846 1_554
Bi0 O13 2.483846 1_455
Bi1 O1 2.308828 1_654
Bi1 O0 2.308828 1_555
Bi1 O2 2.436420 1_545
Bi1 O11 2.436420 1_554
Bi1 O9 2.436420 1_555
Bi1 O6 2.436420 1_544
Bi1 O4 2.483846 1_554
Bi1 O13 2.483846 1_545
O2 Pt1 1.985570 1_565
O2 Pt3 1.996873 1_555
O3 Pt2 1.985570 1_555
O3 Pt0 1.996873 1_555
O4 Pt3 1.982528 1_555
O4 Pt0 1.982528 1_556
O5 Pt2 1.985570 1_655
O5 Pt3 1.996873 1_555
O6 Pt1 1.985570 1_565
O6 Pt0 1.996873 1_556
O7 Pt1 2.013595 1_565
O7 Pt2 2.013595 1_655
O8 Pt2 1.985570 1_655
O8 Pt0 1.996873 1_556
O9 Pt1 1.985570 1_555
O9 Pt0 1.996873 1_555
O10 Pt2 1.985570 1_555
O10 Pt3 1.996873 1_555
O11 Pt1 1.985570 1_555
O11 Pt3 1.996873 1_555
O12 Pt1 2.013595 1_555
O12 Pt2 2.013595 1_555
O13 Pt3 1.982528 1_555
O13 Pt0 1.982528 1_555
