# generated using pymatgen
data_Ti2AlSnRh3
_symmetry_space_group_name_H-M   'P 1'
_cell_length_a   7.50061520
_cell_length_b   7.50061453
_cell_length_c   7.50061434
_cell_angle_alpha   33.24557563
_cell_angle_beta   33.24558433
_cell_angle_gamma   33.24557206
_symmetry_Int_Tables_number   1
_chemical_formula_structural   Ti2AlSnRh3
_chemical_formula_sum   'Ti2 Al1 Sn1 Rh3'
_cell_volume   112.91075291
_cell_formula_units_Z   1
loop_
 _symmetry_equiv_pos_site_id
 _symmetry_equiv_pos_as_xyz
  1  'x, y, z'
loop_
 _atom_site_type_symbol
 _atom_site_label
 _atom_site_symmetry_multiplicity
 _atom_site_fract_x
 _atom_site_fract_y
 _atom_site_fract_z
 _atom_site_occupancy
  Ti  Ti0  1  0.75230670  0.75230670  0.75230670  1
  Ti  Ti1  1  0.24979020  0.24979020  0.24979020  1
  Al  Al0  1  0.99603129  0.99603129  0.99603129  1
  Sn  Sn0  1  0.50494003  0.50494003  0.50494003  1
  Rh  Rh0  1  0.11965506  0.11965506  0.11965506  1
  Rh  Rh1  1  0.63006774  0.63006774  0.63006774  1
  Rh  Rh2  1  0.37220897  0.37220897  0.37220897  1
loop_
_geom_bond_atom_site_label_1
_geom_bond_atom_site_label_2
_geom_bond_distance
_geom_bond_site_symmetry_2
Al0 Rh1 2.572736 1_565
Al0 Rh1 2.572736 1_655
Al0 Rh1 2.572737 1_556
Al0 Rh0 2.625615 1_666
Al0 Rh2 2.639453 1_656
Al0 Rh2 2.639454 1_566
Al0 Rh2 2.639454 1_665
Al0 Ti1 2.999166 1_656
Al0 Ti1 2.999166 1_665
Al0 Ti1 2.999166 1_566
Sn0 Ti1 2.982619 1_565
Sn0 Ti1 2.982619 1_556
Sn0 Ti1 2.982619 1_655
Sn0 Ti0 3.077714 1_545
Sn0 Ti0 3.077714 1_554
Sn0 Ti0 3.077715 1_455
Rh0 Ti0 2.580814 1_454
Rh0 Ti0 2.580814 1_544
Rh0 Ti0 2.580815 1_445
Rh0 Sn0 2.712223 1_545
Rh0 Sn0 2.712223 1_455
Rh0 Sn0 2.712224 1_554
Rh0 Ti1 2.763909 1_555
Rh0 Rh2 3.013661 1_545
Rh0 Rh2 3.013662 1_554
Rh0 Rh2 3.013662 1_455
Rh1 Ti0 2.596204 1_555
Rh1 Sn0 2.657557 1_555
Rh1 Ti1 2.670724 1_565
Rh1 Ti1 2.670725 1_655
Rh1 Ti1 2.670725 1_556
Rh1 Rh2 2.950974 1_565
Rh1 Rh2 2.950975 1_556
Rh1 Rh2 2.950975 1_655
Rh2 Ti1 2.600022 1_555
Rh2 Ti0 2.669301 1_545
Rh2 Ti0 2.669301 1_455
Rh2 Ti0 2.669302 1_554
Rh2 Sn0 2.819043 1_555
