# generated using pymatgen
data_YZr2PtF15
_symmetry_space_group_name_H-M   'P 1'
_cell_length_a   8.02821252
_cell_length_b   8.02821198
_cell_length_c   8.02787128
_cell_angle_alpha   79.88987965
_cell_angle_beta   79.88987582
_cell_angle_gamma   99.85268117
_symmetry_Int_Tables_number   1
_chemical_formula_structural   YZr2PtF15
_chemical_formula_sum   'Y2 Zr4 Pt2 F30'
_cell_volume   490.46492260
_cell_formula_units_Z   2
loop_
 _symmetry_equiv_pos_site_id
 _symmetry_equiv_pos_as_xyz
  1  'x, y, z'
loop_
 _atom_site_type_symbol
 _atom_site_label
 _atom_site_symmetry_multiplicity
 _atom_site_fract_x
 _atom_site_fract_y
 _atom_site_fract_z
 _atom_site_occupancy
  Y  Y0  1  0.17775223  0.82224777  0.25000000  1
  Y  Y1  1  0.82224777  0.17775223  0.75000000  1
  Zr  Zr0  1  0.74576986  0.67833646  0.67282339  1
  Zr  Zr1  1  0.32166354  0.25423014  0.82717661  1
  Zr  Zr2  1  0.25423014  0.32166354  0.32717661  1
  Zr  Zr3  1  0.67833646  0.74576986  0.17282339  1
  Pt  Pt0  1  0.75052106  0.24947894  0.25000000  1
  Pt  Pt1  1  0.24947894  0.75052106  0.75000000  1
  F  F0  1  0.31627942  0.35098238  0.05542871  1
  F  F1  1  0.93587901  0.81298541  0.15071113  1
  F  F2  1  0.84201042  0.46115912  0.68574551  1
  F  F3  1  0.46115912  0.84201042  0.18574551  1
  F  F4  1  0.81298541  0.93587901  0.65071113  1
  F  F5  1  0.35098238  0.31627942  0.55542771  1
  F  F6  1  0.68372058  0.64901762  0.94457129  1
  F  F7  1  0.06412099  0.18701459  0.84928887  1
  F  F8  1  0.15798958  0.53884088  0.31425449  1
  F  F9  1  0.53884088  0.15798958  0.81425449  1
  F  F10  1  0.18701459  0.06412099  0.34928887  1
  F  F11  1  0.64901762  0.68372058  0.44457129  1
  F  F12  1  0.77283231  0.28586536  0.00055275  1
  F  F13  1  0.00178794  0.27387263  0.20987394  1
  F  F14  1  0.78885164  0.50266270  0.22105282  1
  F  F15  1  0.50266270  0.78885164  0.72105282  1
  F  F16  1  0.27387263  0.00178794  0.70987394  1
  F  F17  1  0.28586536  0.77283231  0.50055275  1
  F  F18  1  0.22716769  0.71413464  0.99944725  1
  F  F19  1  0.99821206  0.72612737  0.79012606  1
  F  F20  1  0.21114836  0.49733730  0.77894718  1
  F  F21  1  0.49733730  0.21114836  0.27894718  1
  F  F22  1  0.72612737  0.99821206  0.29012606  1
  F  F23  1  0.71413464  0.22716769  0.49944725  1
  F  F24  1  0.47326109  0.52673891  0.25000000  1
  F  F25  1  0.74567108  0.95531103  0.97338782  1
  F  F26  1  0.04468897  0.25432892  0.52661218  1
  F  F27  1  0.25432892  0.04468897  0.02661218  1
  F  F28  1  0.95531103  0.74567108  0.47338782  1
  F  F29  1  0.52673891  0.47326109  0.75000000  1
loop_
_geom_bond_atom_site_label_1
_geom_bond_atom_site_label_2
_geom_bond_distance
_geom_bond_site_symmetry_2
F0 Zr1 2.108599 1_554
F0 Zr2 2.112062 1_555
F1 Zr3 2.013300 1_555
F1 Y0 2.219521 1_655
F2 Zr0 2.018256 1_555
F2 Y1 2.214430 1_555
F3 Zr3 2.018256 1_555
F3 Y0 2.214430 1_555
F4 Zr0 2.013299 1_555
F4 Y1 2.219521 1_565
F5 Zr2 2.108592 1_555
F5 Zr1 2.112070 1_555
F6 Zr3 2.108599 1_556
F6 Zr0 2.112062 1_555
F7 Zr1 2.013300 1_555
F7 Y1 2.219521 1_455
F8 Zr2 2.018256 1_555
F8 Y0 2.214430 1_555
F9 Zr1 2.018256 1_555
F9 Y1 2.214430 1_555
F10 Zr2 2.013299 1_555
F10 Y0 2.219521 1_545
F11 Zr0 2.108599 1_555
F11 Zr3 2.112062 1_555
F12 Pt0 1.943794 1_555
F12 Y1 2.325316 1_554
F13 Pt0 1.955973 1_455
F13 Zr2 2.381619 1_555
F14 Pt0 1.968556 1_555
F14 Zr3 2.279083 1_555
F15 Pt1 1.968556 1_555
F15 Zr0 2.279083 1_555
F16 Pt1 1.955973 1_545
F16 Zr1 2.381618 1_555
F17 Pt1 1.943794 1_555
F17 Y0 2.325316 1_555
F18 Pt1 1.943794 1_555
F18 Y0 2.325316 1_556
F19 Pt1 1.955973 1_655
F19 Zr0 2.381619 1_555
F20 Pt1 1.968556 1_555
F20 Zr1 2.279083 1_555
F21 Pt0 1.968556 1_555
F21 Zr2 2.279083 1_555
F22 Pt0 1.955973 1_565
F22 Zr3 2.381618 1_555
F23 Pt0 1.943794 1_555
F23 Y1 2.325316 1_555
F24 Zr3 2.110720 1_555
F24 Zr2 2.110720 1_555
F25 Zr3 2.030971 1_556
F25 Y1 2.212676 1_565
F26 Zr2 2.030971 1_555
F26 Y1 2.212676 1_455
F27 Zr1 2.030971 1_554
F27 Y0 2.212676 1_545
F28 Zr0 2.030971 1_555
F28 Y0 2.212676 1_655
F29 Zr1 2.110720 1_555
F29 Zr0 2.110720 1_555
