# generated using pymatgen
data_CsKZrTe3
_symmetry_space_group_name_H-M   'P 1'
_cell_length_a   14.68996177
_cell_length_b   6.99720262
_cell_length_c   9.77696067
_cell_angle_alpha   69.66387149
_cell_angle_beta   90.00000000
_cell_angle_gamma   90.00000000
_symmetry_Int_Tables_number   1
_chemical_formula_structural   CsKZrTe3
_chemical_formula_sum   'Cs4 K4 Zr4 Te12'
_cell_volume   942.32127757
_cell_formula_units_Z   4
loop_
 _symmetry_equiv_pos_site_id
 _symmetry_equiv_pos_as_xyz
  1  'x, y, z'
loop_
 _atom_site_type_symbol
 _atom_site_label
 _atom_site_symmetry_multiplicity
 _atom_site_fract_x
 _atom_site_fract_y
 _atom_site_fract_z
 _atom_site_occupancy
  Cs  Cs0  1  0.94922228  0.66626091  0.66407531  1
  Cs  Cs1  1  0.44922228  0.83373909  0.33592469  1
  Cs  Cs2  1  0.05077772  0.33373909  0.33592469  1
  Cs  Cs3  1  0.55077772  0.16626091  0.66407531  1
  K  K0  1  0.86430526  0.06040321  0.89701419  1
  K  K1  1  0.36430526  0.43959679  0.10298581  1
  K  K2  1  0.13569474  0.93959679  0.10298581  1
  K  K3  1  0.63569474  0.56040321  0.89701419  1
  Zr  Zr0  1  0.74921195  0.65501527  0.28377014  1
  Zr  Zr1  1  0.24921195  0.84498473  0.71622986  1
  Zr  Zr2  1  0.25078805  0.34498473  0.71622986  1
  Zr  Zr3  1  0.75078805  0.15501527  0.28377014  1
  Te  Te0  1  0.91094304  0.89204401  0.26014464  1
  Te  Te1  1  0.41094304  0.60795599  0.73985536  1
  Te  Te2  1  0.08905696  0.10795599  0.73985536  1
  Te  Te3  1  0.58905696  0.39204401  0.26014464  1
  Te  Te4  1  0.81322613  0.26784545  0.51849935  1
  Te  Te5  1  0.31322613  0.23215455  0.48150065  1
  Te  Te6  1  0.18677387  0.73215455  0.48150065  1
  Te  Te7  1  0.68677387  0.76784545  0.51849935  1
  Te  Te8  1  0.84392637  0.48453956  0.07190986  1
  Te  Te9  1  0.34392637  0.01546044  0.92809014  1
  Te  Te10  1  0.15607363  0.51546044  0.92809014  1
  Te  Te11  1  0.65607363  0.98453956  0.07190986  1
loop_
_geom_bond_atom_site_label_1
_geom_bond_atom_site_label_2
_geom_bond_distance
_geom_bond_site_symmetry_2
Cs0 Te0 3.751249 1_555
Cs0 Te6 3.873542 1_655
Cs0 Te10 3.887998 1_655
Cs0 Te2 3.988996 1_665
Cs0 Te8 4.047789 1_556
Cs0 Te4 4.067743 1_555
Cs0 Te7 4.085536 1_555
Cs0 K0 4.243107 1_555
Cs0 Te2 4.244772 1_655
Cs0 K0 4.326007 1_565
Cs0 Te4 4.424001 1_565
Cs1 Te1 3.751249 1_555
Cs1 Te7 3.873542 1_555
Cs1 Te11 3.887998 1_555
Cs1 Te3 3.988996 1_555
Cs1 Te9 4.047789 1_564
Cs1 Te5 4.067743 1_565
Cs1 Te6 4.085536 1_555
Cs1 K1 4.243107 1_565
Cs1 Te3 4.244772 1_565
Cs1 K1 4.326007 1_555
Cs1 Te5 4.424001 1_555
Cs2 Te2 3.751249 1_555
Cs2 Te4 3.873542 1_455
Cs2 Te8 3.887998 1_455
Cs2 Te0 3.988996 1_445
Cs2 Te10 4.047789 1_554
Cs2 Te6 4.067743 1_555
Cs2 Te5 4.085536 1_555
Cs2 K2 4.243107 1_555
Cs2 Te0 4.244772 1_455
Cs2 K2 4.326007 1_545
Cs2 Te6 4.424001 1_545
Cs3 Te3 3.751249 1_555
Cs3 Te5 3.873542 1_555
Cs3 Te9 3.887998 1_555
Cs3 Te1 3.988996 1_555
Cs3 Te11 4.047789 1_546
Cs3 Te7 4.067743 1_545
Cs3 Te4 4.085536 1_555
Cs3 K3 4.243107 1_545
Cs3 Te1 4.244772 1_545
Cs3 K3 4.326007 1_555
Cs3 Te7 4.424001 1_555
K0 Te0 3.399245 1_546
K0 Te11 3.454239 1_546
K0 Te4 3.554109 1_555
K0 Te2 3.607883 1_655
K0 Te8 3.802746 1_546
K0 Te8 3.917703 1_556
K1 Te1 3.399245 1_554
K1 Te10 3.454239 1_554
K1 Te5 3.554109 1_555
K1 Te3 3.607883 1_555
K1 Te9 3.802746 1_564
K1 Te9 3.917703 1_554
K2 Te2 3.399245 1_564
K2 Te9 3.454239 1_564
K2 Te6 3.554109 1_555
K2 Te0 3.607883 1_455
K2 Te10 3.802746 1_564
K2 Te10 3.917703 1_554
K3 Te3 3.399245 1_556
K3 Te8 3.454239 1_556
K3 Te7 3.554109 1_555
K3 Te1 3.607883 1_555
K3 Te11 3.802746 1_546
K3 Te11 3.917703 1_556
Te0 Zr0 2.860484 1_555
Te0 Zr3 3.044612 1_565
Te1 Zr1 2.860484 1_555
Te1 Zr2 3.044612 1_555
Te2 Zr2 2.860484 1_555
Te2 Zr1 3.044612 1_545
Te3 Zr3 2.860484 1_555
Te3 Zr0 3.044612 1_555
Te4 Zr3 2.826774 1_555
Te4 Zr0 3.028031 1_555
Te5 Zr2 2.826774 1_555
Te5 Zr1 3.028031 1_545
Te6 Zr1 2.826774 1_555
Te6 Zr2 3.028031 1_555
Te7 Zr0 2.826774 1_555
Te7 Zr3 3.028031 1_565
Te8 Zr3 2.856457 1_555
Te8 Zr0 3.060490 1_555
Te9 Zr2 2.856457 1_555
Te9 Zr1 3.060490 1_545
Te10 Zr1 2.856457 1_555
Te10 Zr2 3.060490 1_555
Te11 Zr0 2.856457 1_555
Te11 Zr3 3.060490 1_565
