# generated using pymatgen
data_Cs2Li14Hf3O14
_symmetry_space_group_name_H-M   'P 1'
_cell_length_a   8.23815118
_cell_length_b   8.23815132
_cell_length_c   8.23815089
_cell_angle_alpha   127.53663094
_cell_angle_beta   123.82825089
_cell_angle_gamma   80.44619262
_symmetry_Int_Tables_number   1
_chemical_formula_structural   Cs2Li14Hf3O14
_chemical_formula_sum   'Cs2 Li14 Hf3 O14'
_cell_volume   355.33184646
_cell_formula_units_Z   1
loop_
 _symmetry_equiv_pos_site_id
 _symmetry_equiv_pos_as_xyz
  1  'x, y, z'
loop_
 _atom_site_type_symbol
 _atom_site_label
 _atom_site_symmetry_multiplicity
 _atom_site_fract_x
 _atom_site_fract_y
 _atom_site_fract_z
 _atom_site_occupancy
  Cs  Cs0  1  0.50000000  0.76994160  0.26994160  1
  Cs  Cs1  1  0.50000000  0.23005840  0.73005840  1
  Li  Li0  1  0.70688702  0.13744695  0.11590576  1
  Li  Li1  1  0.97845881  0.86255305  0.56944007  1
  Li  Li2  1  0.02154119  0.59098126  0.88409424  1
  Li  Li3  1  0.29311298  0.40901874  0.43055993  1
  Li  Li4  1  0.02154119  0.13744695  0.43055993  1
  Li  Li5  1  0.84493246  0.50000000  0.34493246  1
  Li  Li6  1  0.15506754  0.50000000  0.65506754  1
  Li  Li7  1  0.41256078  0.76948405  0.64307673  1
  Li  Li8  1  0.58743922  0.23051595  0.35692327  1
  Li  Li9  1  0.87359268  0.23051595  0.64307673  1
  Li  Li10  1  0.12640732  0.76948405  0.35692327  1
  Li  Li11  1  0.70688702  0.59098126  0.56944007  1
  Li  Li12  1  0.29311298  0.86255305  0.88409424  1
  Li  Li13  1  0.97845881  0.40901874  0.11590576  1
  Hf  Hf0  1  0.00000000  0.00000000  0.00000000  1
  Hf  Hf1  1  0.26715399  0.26715399  1.00000000  1
  Hf  Hf2  1  0.73284601  0.73284601  0.00000000  1
  O  O0  1  0.04909994  0.87288485  0.17621509  1
  O  O1  1  0.42488203  0.63520089  0.78968114  1
  O  O2  1  0.84551975  0.63520089  0.21031886  1
  O  O3  1  0.57511797  0.36479911  0.21031886  1
  O  O4  1  0.15448025  0.36479911  0.78968114  1
  O  O5  1  0.74768933  0.03113386  0.28344453  1
  O  O6  1  0.25231067  0.53575620  0.28344453  1
  O  O7  1  0.25231067  0.96886614  0.71655547  1
  O  O8  1  0.74768933  0.46424380  0.71655547  1
  O  O9  1  0.00000000  0.71415094  0.71415094  1
  O  O10  1  1.00000000  0.28584906  0.28584906  1
  O  O11  1  0.69666876  0.87288485  0.82378491  1
  O  O12  1  0.30333124  0.12711515  0.17621509  1
  O  O13  1  0.95090006  0.12711515  0.82378491  1
loop_
_geom_bond_atom_site_label_1
_geom_bond_atom_site_label_2
_geom_bond_distance
_geom_bond_site_symmetry_2
Cs0 O1 3.069060 1_554
Cs0 O4 3.069060 1_554
Cs0 O2 3.069060 1_555
Cs0 O3 3.069060 1_555
Cs0 O6 3.117538 1_555
Cs0 O5 3.117544 1_565
Cs1 O3 3.069060 1_556
Cs1 O2 3.069060 1_556
Cs1 O4 3.069060 1_555
Cs1 O1 3.069060 1_555
Cs1 O8 3.117538 1_555
Cs1 O7 3.117544 1_545
Li0 O5 1.908860 1_555
Li0 O3 1.944573 1_555
Li0 O11 1.998197 1_544
Li0 O10 2.101376 1_555
Li1 O7 1.908860 1_655
Li1 O2 1.944573 1_555
Li1 O13 1.998200 1_565
Li1 O9 2.101376 1_655
Li2 O8 1.908863 1_455
Li2 O4 1.944573 1_555
Li2 O0 1.998200 1_556
Li2 O9 2.101376 1_555
Li3 O6 1.908868 1_555
Li3 O1 1.944573 1_555
Li3 O12 1.998204 1_555
Li3 O10 2.101376 1_455
Li4 O5 1.908860 1_455
Li4 O4 1.944573 1_555
Li4 O0 1.998200 1_545
Li4 O10 2.101376 1_455
Li5 O9 1.969543 1_655
Li5 O10 1.969543 1_555
Li5 O2 1.995811 1_555
Li5 O3 1.995811 1_555
Li6 O10 1.969543 1_455
Li6 O9 1.969543 1_555
Li6 O4 1.995811 1_555
Li6 O1 1.995811 1_555
Li7 O11 1.912318 1_555
Li7 O6 1.940512 1_555
Li7 O7 1.940514 1_555
Li7 O1 2.036423 1_555
Li8 O12 1.912318 1_555
Li8 O8 1.940512 1_555
Li8 O5 1.940514 1_555
Li8 O3 2.036423 1_555
Li9 O13 1.912325 1_555
Li9 O8 1.940508 1_555
Li9 O5 1.940513 1_555
Li9 O4 2.036423 1_655
Li10 O0 1.912325 1_555
Li10 O6 1.940508 1_555
Li10 O7 1.940513 1_555
Li10 O2 2.036423 1_455
Li11 O8 1.908868 1_555
Li11 O3 1.944573 1_555
Li11 O11 1.998204 1_555
Li11 O9 2.101376 1_655
Li12 O7 1.908860 1_555
Li12 O1 1.944573 1_555
Li12 O12 1.998197 1_566
Li12 O9 2.101376 1_555
Li13 O6 1.908863 1_655
Li13 O2 1.944573 1_555
Li13 O13 1.998200 1_554
Li13 O10 2.101376 1_555
Hf0 O10 2.081712 1_455
Hf0 O9 2.081712 1_544
Hf0 O13 2.103721 1_454
Hf0 O0 2.103721 1_545
Hf0 O12 2.103728 1_555
Hf0 O11 2.103728 1_444
Hf1 O4 2.042190 1_555
Hf1 O3 2.042190 1_556
Hf1 O7 2.072630 1_545
Hf1 O6 2.072633 1_556
Hf1 O12 2.229809 1_556
Hf1 O13 2.229812 1_455
Hf2 O2 2.042190 1_555
Hf2 O1 2.042190 1_554
Hf2 O5 2.072630 1_565
Hf2 O8 2.072633 1_554
Hf2 O11 2.229809 1_554
Hf2 O0 2.229812 1_655
