# generated using pymatgen
data_Y5(InSb)2
_symmetry_space_group_name_H-M   'P 1'
_cell_length_a   8.80195878
_cell_length_b   8.80195770
_cell_length_c   8.13715543
_cell_angle_alpha   90.00000000
_cell_angle_beta   90.00000000
_cell_angle_gamma   124.94679764
_symmetry_Int_Tables_number   1
_chemical_formula_structural   Y5(InSb)2
_chemical_formula_sum   'Y10 In4 Sb4'
_cell_volume   516.74684070
_cell_formula_units_Z   2
loop_
 _symmetry_equiv_pos_site_id
 _symmetry_equiv_pos_as_xyz
  1  'x, y, z'
loop_
 _atom_site_type_symbol
 _atom_site_label
 _atom_site_symmetry_multiplicity
 _atom_site_fract_x
 _atom_site_fract_y
 _atom_site_fract_z
 _atom_site_occupancy
  Y  Y0  1  0.03310797  0.30535382  0.33392922  1
  Y  Y1  1  0.96689203  0.69464618  0.66607078  1
  Y  Y2  1  0.46689203  0.19464618  0.83392922  1
  Y  Y3  1  0.80535382  0.53310797  0.16607078  1
  Y  Y4  1  0.53310797  0.80535382  0.16607078  1
  Y  Y5  1  0.19464618  0.46689203  0.83392922  1
  Y  Y6  1  0.69464618  0.96689203  0.66607078  1
  Y  Y7  1  0.30535382  0.03310797  0.33392922  1
  Y  Y8  1  0.00000000  0.00000000  0.00000000  1
  Y  Y9  1  0.50000000  0.50000000  0.50000000  1
  In  In0  1  0.37152060  0.37152060  0.12791608  1
  In  In1  1  0.62847940  0.62847940  0.87208392  1
  In  In2  1  0.12847940  0.12847940  0.62791608  1
  In  In3  1  0.87152060  0.87152060  0.37208392  1
  Sb  Sb0  1  0.79671628  0.20328372  0.00000000  1
  Sb  Sb1  1  0.20328372  0.79671628  0.00000000  1
  Sb  Sb2  1  0.70328372  0.29671628  0.50000000  1
  Sb  Sb3  1  0.29671628  0.70328372  0.50000000  1
loop_
_geom_bond_atom_site_label_1
_geom_bond_atom_site_label_2
_geom_bond_distance
_geom_bond_site_symmetry_2
In0 In1 2.950282 1_554
In0 Y7 3.167739 1_555
In0 Y0 3.167739 1_555
In0 Y8 3.196827 1_555
In0 Y9 3.203064 1_555
In0 Y2 3.216887 1_554
In0 Y5 3.216888 1_554
In0 Y4 3.237098 1_555
In0 Y3 3.237098 1_555
In1 Y6 3.167739 1_555
In1 Y1 3.167739 1_555
In1 Y8 3.196827 1_666
In1 Y9 3.203064 1_555
In1 Y4 3.216887 1_556
In1 Y3 3.216888 1_556
In1 Y2 3.237098 1_555
In1 Y5 3.237098 1_555
In2 In3 2.950282 1_445
In2 Y5 3.167739 1_555
In2 Y2 3.167739 1_555
In2 Y9 3.196827 1_555
In2 Y8 3.203064 1_556
In2 Y0 3.216887 1_555
In2 Y7 3.216888 1_555
In2 Y1 3.237098 1_445
In2 Y6 3.237098 1_445
In3 Y3 3.167739 1_555
In3 Y4 3.167739 1_555
In3 Y9 3.196827 1_555
In3 Y8 3.203064 1_665
In3 Y1 3.216887 1_555
In3 Y6 3.216888 1_555
In3 Y0 3.237098 1_665
In3 Y7 3.237098 1_665
Sb0 Y3 3.163390 1_555
Sb0 Y2 3.163390 1_554
Sb0 Y8 3.173480 1_655
Sb0 Y4 3.188621 1_545
Sb0 Y5 3.188622 1_654
Sb0 Y6 3.221535 1_544
Sb0 Y0 3.221535 1_655
Sb1 Y5 3.163390 1_554
Sb1 Y4 3.163390 1_555
Sb1 Y8 3.173480 1_565
Sb1 Y2 3.188621 1_564
Sb1 Y3 3.188622 1_455
Sb1 Y7 3.221535 1_565
Sb1 Y1 3.221535 1_454
Sb2 Y6 3.163390 1_545
Sb2 Y0 3.163390 1_655
Sb2 Y9 3.173480 1_555
Sb2 Y1 3.188621 1_555
Sb2 Y7 3.188622 1_555
Sb2 Y3 3.221535 1_555
Sb2 Y2 3.221535 1_555
Sb3 Y7 3.163390 1_565
Sb3 Y1 3.163390 1_455
Sb3 Y9 3.173480 1_555
Sb3 Y0 3.188621 1_555
Sb3 Y6 3.188622 1_555
Sb3 Y5 3.221535 1_555
Sb3 Y4 3.221535 1_555
