# generated using pymatgen
data_K12Al2As5P
_symmetry_space_group_name_H-M   'P 1'
_cell_length_a   8.94151095
_cell_length_b   8.90784213
_cell_length_c   10.08267012
_cell_angle_alpha   81.66738507
_cell_angle_beta   107.31217675
_cell_angle_gamma   119.45010017
_symmetry_Int_Tables_number   1
_chemical_formula_structural   K12Al2As5P
_chemical_formula_sum   'K12 Al2 As5 P1'
_cell_volume   667.62832005
_cell_formula_units_Z   1
loop_
 _symmetry_equiv_pos_site_id
 _symmetry_equiv_pos_as_xyz
  1  'x, y, z'
loop_
 _atom_site_type_symbol
 _atom_site_label
 _atom_site_symmetry_multiplicity
 _atom_site_fract_x
 _atom_site_fract_y
 _atom_site_fract_z
 _atom_site_occupancy
  K  K0  1  0.74120660  0.12531389  0.62124891  1
  K  K1  1  0.25244653  0.85489504  0.39187725  1
  K  K2  1  0.96248409  0.82019635  0.62611081  1
  K  K3  1  0.03415937  0.20259078  0.39752831  1
  K  K4  1  0.62389726  0.44285411  0.40082601  1
  K  K5  1  0.40667947  0.57148252  0.59407746  1
  K  K6  1  0.86751704  0.48569813  0.13370152  1
  K  K7  1  0.11245564  0.50182926  0.84228760  1
  K  K8  1  0.74971636  0.09273307  0.98868841  1
  K  K9  1  0.23369405  0.87424936  0.00235116  1
  K  K10  1  0.55397590  0.61233777  0.94795911  1
  K  K11  1  0.24504868  0.20381954  0.10783341  1
  Al  Al0  1  0.58732492  0.82973089  0.25392027  1
  Al  Al1  1  0.41558239  0.17698128  0.75139527  1
  As  As0  1  0.30221705  0.56407447  0.22760855  1
  As  As1  1  0.70510559  0.43159453  0.76486462  1
  As  As2  1  0.60038318  0.10749500  0.26437831  1
  As  As3  1  0.38521022  0.88803650  0.73803195  1
  As  As4  1  0.85420347  0.82343795  0.24403448  1
  P  P0  1  0.17607618  0.20739055  0.76265558  1
loop_
_geom_bond_atom_site_label_1
_geom_bond_atom_site_label_2
_geom_bond_distance
_geom_bond_site_symmetry_2
K0 P0 3.448774 1_655
K2 P0 3.282225 1_665
K3 P0 3.518117 1_555
K5 P0 3.401702 1_555
K7 P0 3.193236 1_555
K11 P0 3.347195 1_554
Al0 As2 2.435368 1_565
Al0 As4 2.445856 1_555
Al0 As0 2.452866 1_555
Al0 K8 3.449443 1_564
Al1 P0 2.323047 1_555
Al1 As1 2.443501 1_555
Al1 As3 2.471463 1_545
Al1 K8 3.555803 1_555
As0 K11 3.340781 1_555
As0 K6 3.438688 1_455
As0 K4 3.465132 1_555
As0 K9 3.490771 1_555
As0 K3 3.507765 1_555
As0 K1 3.531053 1_555
As0 K5 3.533514 1_555
As0 K7 3.749148 1_554
As1 K7 3.236647 1_655
As1 K5 3.398719 1_555
As1 K2 3.451827 1_555
As1 K0 3.454542 1_555
As1 K10 3.508833 1_555
As1 K4 3.519721 1_555
As1 K6 3.576058 1_556
As1 K8 3.610723 1_555
As2 K1 3.324560 1_545
As2 K4 3.355957 1_555
As2 K6 3.385977 1_555
As2 K3 3.400493 1_655
As2 K9 3.432750 1_545
As2 K0 3.439522 1_555
As2 K8 3.466193 1_554
As2 K11 3.553294 1_555
As3 K9 3.292923 1_556
As3 K0 3.298460 1_565
As3 K8 3.305163 1_565
As3 K7 3.334004 1_555
As3 K1 3.341526 1_555
As3 K2 3.367280 1_455
As3 K5 3.461107 1_555
As3 K10 3.609046 1_555
As4 K1 3.310785 1_655
As4 K3 3.328705 1_665
As4 K10 3.398210 1_554
As4 K6 3.421115 1_555
As4 K4 3.428165 1_555
As4 K8 3.498273 1_564
As4 K2 3.681611 1_555
