# generated using pymatgen
data_LiMo2(PO4)3
_symmetry_space_group_name_H-M   'P 1'
_cell_length_a   4.90010544
_cell_length_b   4.90010544
_cell_length_c   20.31813965
_cell_angle_alpha   87.68856106
_cell_angle_beta   87.68856106
_cell_angle_gamma   66.52892682
_symmetry_Int_Tables_number   1
_chemical_formula_structural   LiMo2(PO4)3
_chemical_formula_sum   'Li2 Mo4 P6 O24'
_cell_volume   446.97378337
_cell_formula_units_Z   2
loop_
 _symmetry_equiv_pos_site_id
 _symmetry_equiv_pos_as_xyz
  1  'x, y, z'
loop_
 _atom_site_type_symbol
 _atom_site_label
 _atom_site_symmetry_multiplicity
 _atom_site_fract_x
 _atom_site_fract_y
 _atom_site_fract_z
 _atom_site_occupancy
  Li  Li0  1  0.99991400  0.99991400  0.66212100  1
  Li  Li1  1  0.00008600  0.00008600  0.33787900  1
  Mo  Mo0  1  0.00000000  0.00000000  0.00000000  1
  Mo  Mo1  1  0.98800800  0.98800800  0.16840800  1
  Mo  Mo2  1  0.00000000  0.00000000  0.50000000  1
  Mo  Mo3  1  0.01199200  0.01199200  0.83159200  1
  P  P0  1  0.34023500  0.34023500  0.57865100  1
  P  P1  1  0.32941200  0.32941200  0.24582300  1
  P  P2  1  0.64528300  0.64528300  0.08264800  1
  P  P3  1  0.65976500  0.65976500  0.42134900  1
  P  P4  1  0.67058900  0.67058900  0.75417700  1
  P  P5  1  0.35471700  0.35471700  0.91735200  1
  O  O0  1  0.78163300  0.30957400  0.43008000  1
  O  O1  1  0.78986800  0.32334100  0.76312700  1
  O  O2  1  0.77722000  0.77722000  0.81816900  1
  O  O3  1  0.32334100  0.78986800  0.76312700  1
  O  O4  1  0.76967300  0.76967300  0.69116300  1
  O  O5  1  0.70707500  0.22766000  0.91583700  1
  O  O6  1  0.21836700  0.69042600  0.56992000  1
  O  O7  1  0.23236800  0.23236800  0.51579000  1
  O  O8  1  0.23896900  0.23896900  0.64118300  1
  O  O9  1  0.25441800  0.25441800  0.85552500  1
  O  O10  1  0.67665900  0.21013200  0.23687300  1
  O  O11  1  0.74506600  0.74506600  0.01777200  1
  O  O12  1  0.23032700  0.23032700  0.30883700  1
  O  O13  1  0.76103100  0.76103100  0.35881700  1
  O  O14  1  0.74558200  0.74558200  0.14447500  1
  O  O15  1  0.25493400  0.25493400  0.98222800  1
  O  O16  1  0.29292500  0.77234000  0.08416300  1
  O  O17  1  0.22278000  0.22278000  0.18183100  1
  O  O18  1  0.21013200  0.67665900  0.23687300  1
  O  O19  1  0.22766000  0.70707500  0.91583700  1
  O  O20  1  0.77234000  0.29292500  0.08416300  1
  O  O21  1  0.76763200  0.76763200  0.48421000  1
  O  O22  1  0.69042600  0.21836700  0.56992000  1
  O  O23  1  0.30957400  0.78163300  0.43008000  1
loop_
_geom_bond_atom_site_label_1
_geom_bond_atom_site_label_2
_geom_bond_distance
_geom_bond_site_symmetry_2
Li0 O4 1.949462 1_555
Li0 O8 1.984427 1_665
Li0 O6 2.393623 1_655
Li0 O22 2.393623 1_565
Li0 O1 2.564253 1_565
Li0 O3 2.564253 1_655
Li1 O12 1.949462 1_555
Li1 O13 1.984427 1_445
Li1 O0 2.393623 1_455
Li1 O23 2.393623 1_545
Li1 O18 2.564253 1_545
Li1 O10 2.564253 1_455
Mo0 O15 2.102783 1_554
Mo0 O11 2.102783 1_445
Mo0 O5 2.235526 1_454
Mo0 O19 2.235526 1_544
Mo0 O20 2.235526 1_455
Mo0 O16 2.235526 1_545
Mo1 O17 1.956038 1_665
Mo1 O18 2.018803 1_655
Mo1 O10 2.018803 1_565
Mo1 O14 2.067849 1_555
Mo1 O20 2.227329 1_565
Mo1 O16 2.227329 1_655
Mo2 O7 1.946160 1_555
Mo2 O21 1.946160 1_445
Mo2 O23 2.029807 1_545
Mo2 O6 2.029807 1_545
Mo2 O22 2.029807 1_455
Mo2 O0 2.029807 1_455
Mo3 O2 1.956038 1_445
Mo3 O1 2.018803 1_455
Mo3 O3 2.018803 1_545
Mo3 O9 2.067849 1_555
Mo3 O5 2.227329 1_455
Mo3 O19 2.227329 1_545
O0 P3 1.581255 1_555
O1 P4 1.568875 1_555
O2 P4 1.601126 1_555
O3 P4 1.568875 1_555
O4 P4 1.482631 1_555
O5 P5 1.584506 1_555
O6 P0 1.581255 1_555
O7 P0 1.587920 1_555
O8 P0 1.483625 1_555
O9 P5 1.534005 1_555
O10 P1 1.568870 1_555
O11 P2 1.517282 1_555
O12 P1 1.482635 1_555
O13 P3 1.483625 1_555
O14 P2 1.534005 1_555
O15 P5 1.517282 1_555
O16 P2 1.584506 1_555
O17 P1 1.601131 1_555
O18 P1 1.568870 1_555
O19 P5 1.584506 1_555
O20 P2 1.584506 1_555
O21 P3 1.587920 1_555
O22 P0 1.581255 1_555
O23 P3 1.581255 1_555
