# generated using pymatgen
data_Hf3SiTc3Sb2
_symmetry_space_group_name_H-M   'P 1'
_cell_length_a   7.99498758
_cell_length_b   7.99498893
_cell_length_c   7.99498839
_cell_angle_alpha   126.92848116
_cell_angle_beta   126.58924433
_cell_angle_gamma   78.64474273
_symmetry_Int_Tables_number   1
_chemical_formula_structural   Hf3SiTc3Sb2
_chemical_formula_sum   'Hf6 Si2 Tc6 Sb4'
_cell_volume   317.49172659
_cell_formula_units_Z   2
loop_
 _symmetry_equiv_pos_site_id
 _symmetry_equiv_pos_as_xyz
  1  'x, y, z'
loop_
 _atom_site_type_symbol
 _atom_site_label
 _atom_site_symmetry_multiplicity
 _atom_site_fract_x
 _atom_site_fract_y
 _atom_site_fract_z
 _atom_site_occupancy
  Hf  Hf0  1  0.44094799  0.63514419  0.69419620  1
  Hf  Hf1  1  0.55905201  0.25324820  0.19419620  1
  Hf  Hf2  1  0.74991689  0.87160935  0.62169146  1
  Hf  Hf3  1  0.25008311  0.87177657  0.12169146  1
  Hf  Hf4  1  0.05945107  0.25334756  0.69389649  1
  Hf  Hf5  1  0.94054893  0.63444442  0.19389649  1
  Si  Si0  1  0.25039007  0.25354068  0.50315161  1
  Si  Si1  1  0.74960993  0.25276154  0.00315161  1
  Tc  Tc0  1  0.50000000  0.49237743  0.99237743  1
  Tc  Tc1  1  1.00000000  0.49237743  0.49237743  1
  Tc  Tc2  1  0.11901028  0.25340122  0.13329051  1
  Tc  Tc3  1  0.88098972  0.01428023  0.13439094  1
  Tc  Tc4  1  0.37988929  0.01428023  0.63329051  1
  Tc  Tc5  1  0.62011071  0.25340122  0.63439094  1
  Sb  Sb0  1  0.33323456  0.58673068  0.25330925  1
  Sb  Sb1  1  0.66676544  0.92007468  0.25349511  1
  Sb  Sb2  1  0.16657957  0.92007468  0.75330925  1
  Sb  Sb3  1  0.83342043  0.58673068  0.75349511  1
loop_
_geom_bond_atom_site_label_1
_geom_bond_atom_site_label_2
_geom_bond_distance
_geom_bond_site_symmetry_2
Hf0 Si0 2.723737 1_555
Hf0 Sb3 2.861683 1_555
Hf0 Sb0 2.861688 1_555
Hf0 Sb1 2.863381 1_556
Hf0 Sb2 2.863381 1_555
Hf0 Tc1 2.987432 1_455
Hf0 Tc0 2.987433 1_555
Hf0 Tc2 2.989433 1_555
Hf0 Tc5 2.989434 1_555
Hf0 Tc3 3.251318 1_566
Hf0 Tc4 3.251318 1_565
Hf1 Si1 2.723729 1_555
Hf1 Sb2 2.861683 1_544
Hf1 Sb1 2.861684 1_545
Hf1 Sb3 2.863382 1_555
Hf1 Sb0 2.863387 1_555
Hf1 Tc1 2.987432 1_555
Hf1 Tc0 2.987433 1_554
Hf1 Tc3 2.989434 1_555
Hf1 Tc4 2.989434 1_554
Hf1 Tc2 3.251318 1_555
Hf1 Tc5 3.251318 1_555
Hf2 Si1 2.725006 1_566
Hf2 Sb0 2.861844 1_555
Hf2 Sb3 2.861844 1_555
Hf2 Sb1 2.862481 1_555
Hf2 Sb2 2.862486 1_655
Hf2 Tc5 2.985028 1_565
Hf2 Tc2 2.985032 1_666
Hf2 Tc4 2.988772 1_565
Hf2 Tc3 2.988776 1_566
Hf2 Tc0 3.251109 1_554
Hf2 Tc1 3.251113 1_555
Hf3 Si0 2.724999 1_565
Hf3 Sb2 2.861833 1_554
Hf3 Sb1 2.861842 1_555
Hf3 Sb3 2.862490 1_454
Hf3 Sb0 2.862495 1_555
Hf3 Tc3 2.985033 1_465
Hf3 Tc4 2.985041 1_565
Hf3 Tc2 2.988759 1_565
Hf3 Tc5 2.988767 1_565
Hf3 Tc1 3.251110 1_454
Hf3 Tc0 3.251118 1_554
Hf4 Si0 2.726736 1_555
Hf4 Sb1 2.862868 1_445
Hf4 Sb2 2.862868 1_545
Hf4 Sb0 2.863683 1_556
Hf4 Sb3 2.863688 1_455
Hf4 Tc4 2.981630 1_555
Hf4 Tc3 2.981630 1_455
Hf4 Tc0 2.983779 1_555
Hf4 Tc1 2.983779 1_455
Hf4 Tc5 3.251404 1_455
Hf4 Tc2 3.251404 1_556
Hf5 Si1 2.726732 1_555
Hf5 Sb0 2.862868 1_655
Hf5 Sb3 2.862877 1_554
Hf5 Sb2 2.863682 1_655
Hf5 Sb1 2.863686 1_555
Hf5 Tc2 2.981624 1_655
Hf5 Tc5 2.981628 1_554
Hf5 Tc1 2.983772 1_555
Hf5 Tc0 2.983776 1_554
Hf5 Tc4 3.251408 1_665
Hf5 Tc3 3.251412 1_565
Si0 Tc5 2.478105 1_555
Si0 Tc2 2.478110 1_555
Si0 Tc4 2.478124 1_555
Si0 Tc3 2.478129 1_455
Si0 Tc0 2.479487 1_555
Si0 Tc1 2.479492 1_455
Si1 Tc4 2.478105 1_554
Si1 Tc3 2.478105 1_555
Si1 Tc2 2.478132 1_655
Si1 Tc5 2.478132 1_554
Si1 Tc1 2.479487 1_555
Si1 Tc0 2.479487 1_554
Sb0 Tc2 2.778767 1_555
Sb0 Tc4 2.779486 1_565
Sb0 Tc0 2.779845 1_554
Sb1 Tc3 2.778760 1_565
Sb1 Tc5 2.779491 1_565
Sb1 Tc0 2.779847 1_554
Sb2 Tc4 2.778760 1_565
Sb2 Tc2 2.779491 1_566
Sb2 Tc1 2.779847 1_455
Sb3 Tc5 2.778767 1_555
Sb3 Tc3 2.779486 1_566
Sb3 Tc1 2.779845 1_555
