# generated using pymatgen
data_Ba4Zn(TcO6)2
_symmetry_space_group_name_H-M   'P 1'
_cell_length_a   9.82137462
_cell_length_b   9.82137544
_cell_length_c   9.82137465
_cell_angle_alpha   33.87466534
_cell_angle_beta   33.87465851
_cell_angle_gamma   33.87465740
_symmetry_Int_Tables_number   1
_chemical_formula_structural   Ba4Zn(TcO6)2
_chemical_formula_sum   'Ba4 Zn1 Tc2 O12'
_cell_volume   262.29320033
_cell_formula_units_Z   1
loop_
 _symmetry_equiv_pos_site_id
 _symmetry_equiv_pos_as_xyz
  1  'x, y, z'
loop_
 _atom_site_type_symbol
 _atom_site_label
 _atom_site_symmetry_multiplicity
 _atom_site_fract_x
 _atom_site_fract_y
 _atom_site_fract_z
 _atom_site_occupancy
  Ba  Ba0  1  0.70737744  0.70737744  0.70737744  1
  Ba  Ba1  1  0.29262256  0.29262256  0.29262256  1
  Ba  Ba2  1  0.87094909  0.87094909  0.87094909  1
  Ba  Ba3  1  0.12905091  0.12905091  0.12905091  1
  Zn  Zn0  1  0.00000000  0.00000000  0.00000000  1
  Tc  Tc0  1  0.57970165  0.57970165  0.57970165  1
  Tc  Tc1  1  0.42029835  0.42029835  0.42029835  1
  O  O0  1  0.22052056  0.69161749  0.22052056  1
  O  O1  1  0.22052056  0.22052056  0.69161749  1
  O  O2  1  0.69161749  0.22052056  0.22052056  1
  O  O3  1  0.77947944  0.30838251  0.77947944  1
  O  O4  1  0.77947944  0.77947944  0.30838251  1
  O  O5  1  0.30838251  0.77947944  0.77947944  1
  O  O6  1  0.38993322  0.85634836  0.38993322  1
  O  O7  1  0.38993322  0.38993322  0.85634836  1
  O  O8  1  0.85634836  0.38993322  0.38993322  1
  O  O9  1  0.61006678  0.14365164  0.61006678  1
  O  O10  1  0.61006678  0.61006678  0.14365164  1
  O  O11  1  0.14365164  0.61006678  0.61006678  1
loop_
_geom_bond_atom_site_label_1
_geom_bond_atom_site_label_2
_geom_bond_distance
_geom_bond_site_symmetry_2
Ba0 O5 2.824157 1_555
Ba0 O4 2.824157 1_555
Ba0 O3 2.824158 1_555
Ba0 O11 2.846611 1_655
Ba0 O10 2.846611 1_556
Ba0 O9 2.846612 1_565
Ba0 O0 2.864465 1_655
Ba0 O1 2.864465 1_655
Ba0 O0 2.864465 1_556
Ba0 O1 2.864465 1_565
Ba0 O2 2.864466 1_556
Ba0 O2 2.864466 1_565
Ba1 O2 2.824157 1_555
Ba1 O1 2.824157 1_555
Ba1 O0 2.824158 1_555
Ba1 O8 2.846611 1_455
Ba1 O7 2.846611 1_554
Ba1 O6 2.846612 1_545
Ba1 O3 2.864465 1_455
Ba1 O4 2.864465 1_455
Ba1 O3 2.864465 1_554
Ba1 O4 2.864465 1_545
Ba1 O5 2.864466 1_554
Ba1 O5 2.864466 1_545
Ba2 O7 2.871513 1_655
Ba2 O6 2.871513 1_655
Ba2 O6 2.871513 1_556
Ba2 O7 2.871513 1_565
Ba2 O8 2.871513 1_556
Ba2 O8 2.871513 1_565
Ba2 O11 2.900727 1_655
Ba2 O9 2.900727 1_565
Ba2 O10 2.900727 1_556
Ba2 O5 2.931537 1_655
Ba2 O4 2.931537 1_556
Ba2 O3 2.931538 1_565
Ba3 O10 2.871513 1_455
Ba3 O9 2.871513 1_455
Ba3 O9 2.871513 1_554
Ba3 O10 2.871513 1_545
Ba3 O11 2.871513 1_554
Ba3 O11 2.871513 1_545
Ba3 O8 2.900727 1_455
Ba3 O6 2.900727 1_545
Ba3 O7 2.900727 1_554
Ba3 O2 2.931537 1_455
Ba3 O1 2.931537 1_554
Ba3 O0 2.931538 1_545
O0 Tc1 1.956839 1_555
O0 Zn0 2.135156 1_565
O1 Tc1 1.956839 1_555
O1 Zn0 2.135156 1_556
O2 Tc1 1.956839 1_555
O2 Zn0 2.135156 1_655
O3 Tc0 1.956839 1_555
O3 Zn0 2.135156 1_656
O4 Tc0 1.956839 1_555
O4 Zn0 2.135156 1_665
O5 Tc0 1.956839 1_555
O5 Zn0 2.135156 1_566
O6 Tc0 1.811125 1_555
O7 Tc0 1.811126 1_555
O8 Tc0 1.811125 1_555
O9 Tc1 1.811125 1_555
O10 Tc1 1.811126 1_555
O11 Tc1 1.811125 1_555
