# generated using pymatgen
data_Zr10Sn2Pb4S
_symmetry_space_group_name_H-M   'P 1'
_cell_length_a   5.87782552
_cell_length_b   8.62715499
_cell_length_c   8.62213162
_cell_angle_alpha   120.01939384
_cell_angle_beta   90.02273979
_cell_angle_gamma   89.95457545
_symmetry_Int_Tables_number   1
_chemical_formula_structural   Zr10Sn2Pb4S
_chemical_formula_sum   'Zr10 Sn2 Pb4 S1'
_cell_volume   378.56854770
_cell_formula_units_Z   1
loop_
 _symmetry_equiv_pos_site_id
 _symmetry_equiv_pos_as_xyz
  1  'x, y, z'
loop_
 _atom_site_type_symbol
 _atom_site_label
 _atom_site_symmetry_multiplicity
 _atom_site_fract_x
 _atom_site_fract_y
 _atom_site_fract_z
 _atom_site_occupancy
  Zr  Zr0  1  0.49808586  0.33303490  0.66457593  1
  Zr  Zr1  1  0.49808686  0.66845997  0.33542407  1
  Zr  Zr2  1  0.00193651  0.66858927  0.33567663  1
  Zr  Zr3  1  0.00193551  0.33291364  0.66432337  1
  Zr  Zr4  1  0.75718220  0.24808416  0.00000100  1
  Zr  Zr5  1  0.75757757  0.75049941  0.75014417  1
  Zr  Zr6  1  0.75757757  0.00035524  0.24985283  1
  Zr  Zr7  1  0.24265134  0.75247145  0.00000100  1
  Zr  Zr8  1  0.24336505  0.24908053  0.25274179  1
  Zr  Zr9  1  0.24336205  0.99634074  0.74726121  1
  Sn  Sn0  1  0.24866457  0.60642784  0.60691069  1
  Sn  Sn1  1  0.24866357  0.99951615  0.39309031  1
  Pb  Pb0  1  0.75056972  0.60613387  0.99999900  1
  Pb  Pb1  1  0.75045130  0.39463706  0.39341614  1
  Pb  Pb2  1  0.75045130  0.00122192  0.60658386  1
  Pb  Pb3  1  0.24934107  0.39167103  0.00000100  1
  S  S0  1  0.50009693  0.00056484  0.99999900  1
loop_
_geom_bond_atom_site_label_1
_geom_bond_atom_site_label_2
_geom_bond_distance
_geom_bond_site_symmetry_2
Sn0 Zr9 2.950865 1_555
Sn0 Zr7 2.967007 1_556
Sn0 Zr3 3.015114 1_555
Sn0 Zr2 3.018414 1_555
Sn0 Zr0 3.021067 1_555
Sn0 Zr1 3.028605 1_555
Sn0 Zr8 3.067666 1_555
Sn0 Zr5 3.140591 1_455
Sn0 Zr5 3.238055 1_555
Sn1 Zr8 2.950871 1_565
Sn1 Zr7 2.966995 1_555
Sn1 Zr2 3.015104 1_555
Sn1 Zr3 3.018417 1_565
Sn1 Zr1 3.021054 1_555
Sn1 Zr0 3.028597 1_565
Sn1 Zr9 3.067676 1_555
Sn1 Zr6 3.140601 1_465
Sn1 Zr6 3.238077 1_565
Pb0 Zr6 2.979699 1_566
Pb0 Zr5 2.979699 1_555
Pb0 Zr3 3.047522 1_655
Pb0 Zr2 3.047542 1_656
Pb0 Zr0 3.049877 1_555
Pb0 Zr1 3.049887 1_556
Pb0 Zr4 3.089173 1_556
Pb0 Zr7 3.156805 1_656
Pb0 Zr7 3.240493 1_556
Pb1 Zr4 2.969021 1_555
Pb1 Zr6 2.981816 1_555
Pb1 Zr3 3.027386 1_655
Pb1 Zr0 3.032520 1_555
Pb1 Zr2 3.033494 1_655
Pb1 Zr1 3.034241 1_555
Pb1 Zr5 3.072323 1_555
Pb1 Zr8 3.148839 1_655
Pb1 Zr8 3.226588 1_555
Pb2 Zr4 2.969033 1_556
Pb2 Zr5 2.981832 1_545
Pb2 Zr2 3.027395 1_645
Pb2 Zr1 3.032512 1_545
Pb2 Zr3 3.033490 1_655
Pb2 Zr0 3.034227 1_555
Pb2 Zr6 3.072350 1_555
Pb2 Zr9 3.148831 1_645
Pb2 Zr9 3.226614 1_545
Pb3 Zr9 2.990916 1_544
Pb3 Zr8 2.990930 1_555
Pb3 Zr2 3.046000 1_555
Pb3 Zr3 3.046020 1_554
Pb3 Zr1 3.048927 1_555
Pb3 Zr0 3.048938 1_554
Pb3 Zr7 3.112898 1_555
Pb3 Zr4 3.147794 1_455
Pb3 Zr4 3.230923 1_555
S0 Zr4 2.616943 1_556
S0 Zr7 2.622225 1_546
S0 Zr6 2.632994 1_556
S0 Zr5 2.633002 1_545
S0 Zr9 2.635375 1_545
S0 Zr8 2.635387 1_556
