# generated using pymatgen
data_BaTcP2Ru
_symmetry_space_group_name_H-M   'P 1'
_cell_length_a   6.73028472
_cell_length_b   6.73028475
_cell_length_c   6.73028475
_cell_angle_alpha   144.62059707
_cell_angle_beta   144.62059344
_cell_angle_gamma   50.90029093
_symmetry_Int_Tables_number   1
_chemical_formula_structural   BaTcP2Ru
_chemical_formula_sum   'Ba1 Tc1 P2 Ru1'
_cell_volume   101.66721214
_cell_formula_units_Z   1
loop_
 _symmetry_equiv_pos_site_id
 _symmetry_equiv_pos_as_xyz
  1  'x, y, z'
loop_
 _atom_site_type_symbol
 _atom_site_label
 _atom_site_symmetry_multiplicity
 _atom_site_fract_x
 _atom_site_fract_y
 _atom_site_fract_z
 _atom_site_occupancy
  Ba  Ba0  1  0.00000000  0.00000000  0.00000000  1
  Tc  Tc0  1  0.75000000  0.25000000  0.50000000  1
  P  P0  1  0.34073188  0.34073188  1.00000000  1
  P  P1  1  0.65926812  0.65926812  0.00000000  1
  Ru  Ru0  1  0.25000000  0.75000000  0.50000000  1
loop_
_geom_bond_atom_site_label_1
_geom_bond_atom_site_label_2
_geom_bond_distance
_geom_bond_site_symmetry_2
Ba0 P1 3.480230 1_556
Ba0 P0 3.480230 1_443
Ba0 P1 3.480230 1_444
Ba0 P0 3.480230 1_555
Ba0 P1 3.480230 1_545
Ba0 P0 3.480230 1_454
Ba0 P1 3.480230 1_455
Ba0 P0 3.480230 1_544
Ba0 Ru0 3.662697 1_555
Ba0 Tc0 3.662697 1_444
Ba0 Tc0 3.662697 1_555
Ba0 Ru0 3.662697 1_444
Ba0 Tc0 3.662697 1_455
Ba0 Ru0 3.662697 1_544
Ba0 Tc0 3.662698 1_454
Ba0 Ru0 3.662698 1_545
P0 Ru0 2.323462 1_545
P0 Ru0 2.323462 1_556
P0 Tc0 2.323462 1_455
P0 Tc0 2.323463 1_556
P1 Tc0 2.323462 1_565
P1 Tc0 2.323462 1_554
P1 Ru0 2.323462 1_655
P1 Ru0 2.323463 1_554
Ru0 Tc0 2.892175 1_566
Ru0 Tc0 2.892175 1_454
Ru0 Tc0 2.892175 1_555
Ru0 Tc0 2.892175 1_465
