# generated using pymatgen
data_TaSbRu
_symmetry_space_group_name_H-M   'P 1'
_cell_length_a   4.35471994
_cell_length_b   4.35471925
_cell_length_c   4.35471861
_cell_angle_alpha   59.99998936
_cell_angle_beta   59.99999454
_cell_angle_gamma   59.99999114
_symmetry_Int_Tables_number   1
_chemical_formula_structural   TaSbRu
_chemical_formula_sum   'Ta1 Sb1 Ru1'
_cell_volume   58.39362117
_cell_formula_units_Z   1
loop_
 _symmetry_equiv_pos_site_id
 _symmetry_equiv_pos_as_xyz
  1  'x, y, z'
loop_
 _atom_site_type_symbol
 _atom_site_label
 _atom_site_symmetry_multiplicity
 _atom_site_fract_x
 _atom_site_fract_y
 _atom_site_fract_z
 _atom_site_occupancy
  Ta  Ta0  1  0.00000000  0.00000000  0.00000000  1
  Sb  Sb0  1  0.50000000  0.50000000  0.50000000  1
  Ru  Ru0  1  0.25000000  0.25000000  0.25000000  1
loop_
_geom_bond_atom_site_label_1
_geom_bond_atom_site_label_2
_geom_bond_distance
_geom_bond_site_symmetry_2
Sb0 Ta0 3.079251 1_566
Sb0 Ta0 3.079251 1_655
Sb0 Ta0 3.079251 1_656
Sb0 Ta0 3.079251 1_565
Sb0 Ta0 3.079252 1_665
Sb0 Ta0 3.079252 1_556
Ru0 Sb0 2.666709 1_554
Ru0 Ta0 2.666709 1_556
Ru0 Ta0 2.666710 1_565
Ru0 Sb0 2.666710 1_545
Ru0 Sb0 2.666710 1_555
Ru0 Ta0 2.666710 1_555
Ru0 Ta0 2.666710 1_655
Ru0 Sb0 2.666710 1_455
