# generated using pymatgen
data_TiCr2GaC2
_symmetry_space_group_name_H-M   'P 1'
_cell_length_a   2.98877427
_cell_length_b   2.98877519
_cell_length_c   17.56635924
_cell_angle_alpha   90.00000000
_cell_angle_beta   90.00000000
_cell_angle_gamma   120.00001281
_symmetry_Int_Tables_number   1
_chemical_formula_structural   TiCr2GaC2
_chemical_formula_sum   'Ti2 Cr4 Ga2 C4'
_cell_volume   135.89350521
_cell_formula_units_Z   2
loop_
 _symmetry_equiv_pos_site_id
 _symmetry_equiv_pos_as_xyz
  1  'x, y, z'
loop_
 _atom_site_type_symbol
 _atom_site_label
 _atom_site_symmetry_multiplicity
 _atom_site_fract_x
 _atom_site_fract_y
 _atom_site_fract_z
 _atom_site_occupancy
  Ti  Ti0  1  0.00000000  0.00000000  0.50000000  1
  Ti  Ti1  1  0.00000000  0.00000000  0.00000000  1
  Cr  Cr0  1  0.66666700  0.33333300  0.36871411  1
  Cr  Cr1  1  0.33333300  0.66666700  0.86871411  1
  Cr  Cr2  1  0.33333300  0.66666700  0.63128589  1
  Cr  Cr3  1  0.66666700  0.33333300  0.13128589  1
  Ga  Ga0  1  0.00000000  0.00000000  0.75000000  1
  Ga  Ga1  1  0.00000000  0.00000000  0.25000000  1
  C  C0  1  0.33333300  0.66666700  0.42451310  1
  C  C1  1  0.66666700  0.33333300  0.92451310  1
  C  C2  1  0.33333300  0.66666700  0.07548690  1
  C  C3  1  0.66666700  0.33333300  0.57548690  1
loop_
_geom_bond_atom_site_label_1
_geom_bond_atom_site_label_2
_geom_bond_distance
_geom_bond_site_symmetry_2
Cr0 Ga1 2.706728 1_655
Cr0 Ga1 2.706729 1_555
Cr0 Ga1 2.706729 1_665
Cr1 Ga0 2.706728 1_565
Cr1 Ga0 2.706729 1_665
Cr1 Ga0 2.706729 1_555
Cr2 Ga0 2.706728 1_565
Cr2 Ga0 2.706729 1_665
Cr2 Ga0 2.706729 1_555
Cr3 Ga1 2.706728 1_655
Cr3 Ga1 2.706729 1_555
Cr3 Ga1 2.706729 1_665
C0 Cr0 1.984527 1_455
C0 Cr0 1.984527 1_565
C0 Cr0 1.984532 1_555
C0 Ti0 2.176222 1_565
C0 Ti0 2.176223 1_665
C0 Ti0 2.176224 1_555
C1 Cr1 1.984527 1_655
C1 Cr1 1.984527 1_545
C1 Cr1 1.984532 1_555
C1 Ti1 2.176222 1_656
C1 Ti1 2.176223 1_556
C1 Ti1 2.176224 1_666
C2 Cr3 1.984527 1_455
C2 Cr3 1.984527 1_565
C2 Cr3 1.984532 1_555
C2 Ti1 2.176222 1_565
C2 Ti1 2.176223 1_665
C2 Ti1 2.176224 1_555
C3 Cr2 1.984527 1_655
C3 Cr2 1.984527 1_545
C3 Cr2 1.984532 1_555
C3 Ti0 2.176222 1_655
C3 Ti0 2.176223 1_555
C3 Ti0 2.176224 1_665
