# generated using pymatgen
data_Hf2GeH
_symmetry_space_group_name_H-M   'P 1'
_cell_length_a   5.37609895
_cell_length_b   5.37609797
_cell_length_c   5.37609820
_cell_angle_alpha   105.33547304
_cell_angle_beta   105.33547641
_cell_angle_gamma   118.10310802
_symmetry_Int_Tables_number   1
_chemical_formula_structural   Hf2GeH
_chemical_formula_sum   'Hf4 Ge2 H2'
_cell_volume   117.54934226
_cell_formula_units_Z   2
loop_
 _symmetry_equiv_pos_site_id
 _symmetry_equiv_pos_as_xyz
  1  'x, y, z'
loop_
 _atom_site_type_symbol
 _atom_site_label
 _atom_site_symmetry_multiplicity
 _atom_site_fract_x
 _atom_site_fract_y
 _atom_site_fract_z
 _atom_site_occupancy
  Hf  Hf0  1  0.16166679  0.66166679  0.82333459  1
  Hf  Hf1  1  0.83833321  0.33833321  0.17666541  1
  Hf  Hf2  1  0.33833321  0.16166679  0.50000000  1
  Hf  Hf3  1  0.66166679  0.83833321  0.50000000  1
  Ge  Ge0  1  0.25000000  0.25000000  0.00000000  1
  Ge  Ge1  1  0.75000000  0.75000000  0.00000000  1
  H  H0  1  0.75000000  0.25000000  0.50000000  1
  H  H1  1  0.25000000  0.75000000  0.50000000  1
loop_
_geom_bond_atom_site_label_1
_geom_bond_atom_site_label_2
_geom_bond_distance
_geom_bond_site_symmetry_2
Ge0 Ge1 2.764748 1_445
Ge0 Ge1 2.764748 1_555
Ge0 Hf0 2.808753 1_554
Ge0 Hf1 2.808754 1_455
Ge0 Hf3 2.808756 1_555
Ge0 Hf0 2.808756 1_544
Ge0 Hf3 2.808756 1_444
Ge0 Hf2 2.808756 1_555
Ge0 Hf2 2.808756 1_554
Ge0 Hf1 2.808756 1_555
Ge1 Hf1 2.808753 1_555
Ge1 Hf0 2.808754 1_654
Ge1 Hf2 2.808756 1_554
Ge1 Hf1 2.808756 1_565
Ge1 Hf2 2.808756 1_665
Ge1 Hf3 2.808756 1_554
Ge1 Hf3 2.808756 1_555
Ge1 Hf0 2.808756 1_554
H0 Hf3 2.033084 1_545
H0 Hf2 2.033084 1_555
H0 Hf0 2.033085 1_655
H0 Hf1 2.033089 1_555
H1 Hf2 2.033084 1_565
H1 Hf3 2.033084 1_555
H1 Hf1 2.033085 1_455
H1 Hf0 2.033089 1_555
