# generated using pymatgen
data_LaCu4
_symmetry_space_group_name_H-M   'P 1'
_cell_length_a   8.83718821
_cell_length_b   8.83718957
_cell_length_c   11.39158279
_cell_angle_alpha   112.82280144
_cell_angle_beta   112.82281056
_cell_angle_gamma   89.99999023
_symmetry_Int_Tables_number   1
_chemical_formula_structural   LaCu4
_chemical_formula_sum   'La9 Cu36'
_cell_volume   743.84124606
_cell_formula_units_Z   9
loop_
 _symmetry_equiv_pos_site_id
 _symmetry_equiv_pos_as_xyz
  1  'x, y, z'
loop_
 _atom_site_type_symbol
 _atom_site_label
 _atom_site_symmetry_multiplicity
 _atom_site_fract_x
 _atom_site_fract_y
 _atom_site_fract_z
 _atom_site_occupancy
  La  La0  1  0.00000000  0.00000000  0.00000000  1
  La  La1  1  0.20631978  0.20631978  0.41263755  1
  La  La2  1  0.79368022  0.79368022  0.58736245  1
  La  La3  1  0.05112344  0.55112344  0.10224888  1
  La  La4  1  0.44887656  0.94887656  0.89775112  1
  La  La5  1  0.61883735  0.37418107  0.74836214  1
  La  La6  1  0.62581893  0.38116265  0.25163686  1
  La  La7  1  0.62581893  0.87047422  0.25163686  1
  La  La8  1  0.12952578  0.37418107  0.74836214  1
  Cu  Cu0  1  0.24644022  0.24644022  -0.00000000  1
  Cu  Cu1  1  0.24644022  0.75355978  -0.00000000  1
  Cu  Cu2  1  0.75355978  0.24644022  0.00000000  1
  Cu  Cu3  1  0.75355978  0.75355978  0.00000000  1
  Cu  Cu4  1  0.55361457  0.21003891  0.42007782  1
  Cu  Cu5  1  0.78996109  0.44638543  0.57992218  1
  Cu  Cu6  1  0.78996109  0.13353675  0.57992218  1
  Cu  Cu7  1  0.86646325  0.21003891  0.42007782  1
  Cu  Cu8  1  0.15147861  0.79409664  0.58819328  1
  Cu  Cu9  1  0.20590336  0.84852139  0.41180672  1
  Cu  Cu10  1  0.20590336  0.56328534  0.41180672  1
  Cu  Cu11  1  0.43671466  0.79409664  0.58819328  1
  Cu  Cu12  1  0.92642301  0.66943932  0.33887963  1
  Cu  Cu13  1  0.33056068  0.07357699  0.66112037  1
  Cu  Cu14  1  0.33056068  0.58754437  0.66112037  1
  Cu  Cu15  1  0.41245563  0.66943932  0.33887963  1
  Cu  Cu16  1  0.69721834  0.54095138  0.08190477  1
  Cu  Cu17  1  0.45904862  0.30278166  0.91809523  1
  Cu  Cu18  1  0.45904862  0.61531358  0.91809523  1
  Cu  Cu19  1  0.38468642  0.54095138  0.08190477  1
  Cu  Cu20  1  0.36340763  0.08101724  0.16203548  1
  Cu  Cu21  1  0.91898276  0.63659237  0.83796452  1
  Cu  Cu22  1  0.91898276  0.20137115  0.83796452  1
  Cu  Cu23  1  0.79862885  0.08101724  0.16203548  1
  Cu  Cu24  1  0.00565287  0.50565287  0.50000000  1
  Cu  Cu25  1  0.00565287  0.99434713  0.50000000  1
  Cu  Cu26  1  0.49434713  0.50565287  0.50000000  1
  Cu  Cu27  1  0.49434713  0.99434713  0.50000000  1
  Cu  Cu28  1  0.28380142  0.35760303  0.24252256  1
  Cu  Cu29  1  0.11508146  0.71619858  0.75747744  1
  Cu  Cu30  1  0.64239697  0.04128186  0.75747744  1
  Cu  Cu31  1  0.11508146  0.04128186  0.75747744  1
  Cu  Cu32  1  0.64239697  0.71619858  0.75747744  1
  Cu  Cu33  1  0.95871814  0.88491854  0.24252256  1
  Cu  Cu34  1  0.95871814  0.35760303  0.24252256  1
  Cu  Cu35  1  0.28380142  0.88491854  0.24252256  1
loop_
_geom_bond_atom_site_label_1
_geom_bond_atom_site_label_2
_geom_bond_distance
_geom_bond_site_symmetry_2
Cu0 Cu31 2.427667 1_554
Cu0 Cu28 2.427675 1_555
Cu0 Cu19 2.523648 1_555
Cu0 Cu17 2.523663 1_554
Cu0 Cu22 2.688083 1_454
Cu0 Cu20 2.688091 1_555
Cu0 La0 3.079929 1_555
Cu0 La3 3.272985 1_555
Cu0 La4 3.272985 1_544
Cu0 La6 3.282027 1_555
Cu0 La8 3.282031 1_554
Cu1 Cu29 2.427675 1_554
Cu1 Cu35 2.427675 1_555
Cu1 Cu18 2.523663 1_554
Cu1 Cu19 2.523663 1_555
Cu1 Cu21 2.688084 1_454
Cu1 Cu20 2.688084 1_565
Cu1 La0 3.079929 1_565
Cu1 La4 3.272997 1_554
Cu1 La3 3.272997 1_555
Cu1 La7 3.282026 1_555
Cu1 La8 3.282031 1_554
Cu2 Cu34 2.427667 1_555
Cu2 Cu30 2.427667 1_554
Cu2 Cu22 2.688090 1_554
Cu2 Cu23 2.688090 1_555
Cu2 La0 3.079929 1_655
Cu2 La4 3.272973 1_544
Cu2 La3 3.272973 1_655
Cu2 La6 3.282021 1_555
Cu2 La5 3.282031 1_554
Cu3 Cu33 2.427666 1_555
Cu3 Cu32 2.427675 1_554
Cu3 La0 3.079929 1_665
Cu3 La4 3.272985 1_554
Cu3 La3 3.272985 1_655
Cu3 La7 3.282021 1_555
Cu3 La5 3.282031 1_554
Cu4 Cu6 2.477844 1_555
Cu4 Cu5 2.477844 1_555
Cu4 Cu7 2.764703 1_555
Cu4 La1 3.037061 1_555
Cu4 La7 3.094634 1_545
Cu4 La6 3.094634 1_555
Cu4 La5 3.246712 1_555
Cu5 Cu7 2.477844 1_555
Cu5 Cu6 2.764703 1_555
Cu5 La2 3.037061 1_555
Cu5 La5 3.094624 1_555
Cu5 La8 3.094630 1_655
Cu5 La6 3.246723 1_555
Cu6 Cu7 2.477844 1_555
Cu6 La2 3.037079 1_545
Cu6 La5 3.094624 1_555
Cu6 La8 3.094630 1_655
Cu6 La7 3.246723 1_545
Cu7 La1 3.037079 1_655
Cu7 La6 3.094630 1_555
Cu7 La7 3.094630 1_545
Cu7 La8 3.246715 1_655
Cu8 Cu9 2.449374 1_555
Cu8 La2 3.158271 1_455
Cu8 La4 3.206531 1_555
Cu9 La1 3.158271 1_565
Cu9 La3 3.206532 1_555
Cu10 Cu28 2.409810 1_555
Cu10 Cu34 2.409825 1_455
Cu10 Cu11 2.449374 1_555
Cu10 Cu8 2.449374 1_555
Cu10 Cu26 2.485273 1_555
Cu10 Cu24 2.485273 1_555
Cu10 Cu9 2.520685 1_555
Cu10 Cu14 2.534977 1_555
Cu10 Cu15 2.585154 1_555
Cu10 Cu12 2.585161 1_455
Cu10 La1 3.158253 1_555
Cu10 La3 3.206524 1_555
Cu11 Cu32 2.409809 1_555
Cu11 Cu30 2.409825 1_565
Cu11 Cu9 2.449374 1_555
Cu11 Cu26 2.485273 1_555
Cu11 Cu27 2.485274 1_555
Cu11 Cu8 2.520685 1_555
Cu11 Cu15 2.534977 1_555
Cu11 Cu14 2.585154 1_555
Cu11 Cu13 2.585161 1_565
Cu11 La2 3.158253 1_555
Cu11 La4 3.206525 1_555
Cu12 Cu8 2.534980 1_655
Cu12 Cu9 2.585165 1_655
Cu12 Cu34 2.603253 1_555
Cu12 Cu33 2.603253 1_555
Cu12 Cu16 2.604421 1_555
Cu12 Cu24 2.649142 1_655
Cu12 Cu25 2.649149 1_655
Cu12 La3 3.113179 1_655
Cu12 La6 3.243838 1_555
Cu12 La7 3.243844 1_555
Cu12 La2 3.280080 1_555
Cu13 Cu9 2.534980 1_545
Cu13 Cu8 2.585166 1_545
Cu13 Cu30 2.603253 1_555
Cu13 Cu31 2.603253 1_555
Cu13 Cu17 2.604421 1_555
Cu13 Cu27 2.649142 1_545
Cu13 Cu25 2.649148 1_545
Cu13 La4 3.113179 1_545
Cu13 La8 3.243842 1_555
Cu13 La5 3.243842 1_555
Cu13 La1 3.280080 1_555
Cu14 Cu8 2.585158 1_555
Cu14 Cu32 2.603258 1_555
Cu14 Cu29 2.603258 1_555
Cu14 Cu18 2.604424 1_555
Cu14 Cu26 2.649142 1_555
Cu14 Cu24 2.649149 1_555
Cu14 La4 3.113185 1_555
Cu14 La5 3.243847 1_555
Cu14 La8 3.243848 1_555
Cu14 La1 3.280074 1_555
Cu15 Cu9 2.585158 1_555
Cu15 Cu35 2.603258 1_555
Cu15 Cu28 2.603258 1_555
Cu15 Cu19 2.604424 1_555
Cu15 Cu26 2.649142 1_555
Cu15 Cu27 2.649149 1_555
Cu15 La3 3.113185 1_555
Cu15 La6 3.243850 1_555
Cu15 La7 3.243857 1_555
Cu15 La2 3.280073 1_555
Cu16 Cu17 2.499671 1_554
Cu16 Cu18 2.499680 1_554
Cu16 Cu2 2.523647 1_555
Cu16 Cu3 2.523663 1_555
Cu16 Cu19 2.761903 1_555
Cu16 La6 3.032339 1_555
Cu16 La7 3.032351 1_555
Cu16 La3 3.043808 1_655
Cu16 La5 3.271519 1_554
Cu17 Cu19 2.499680 1_556
Cu17 Cu2 2.523647 1_556
Cu17 Cu18 2.761904 1_555
Cu17 La5 3.032349 1_555
Cu17 La8 3.032355 1_555
Cu17 La4 3.043808 1_545
Cu17 La6 3.271508 1_556
Cu18 Cu19 2.499690 1_556
Cu18 Cu3 2.523647 1_556
Cu18 La5 3.032349 1_555
Cu18 La8 3.032355 1_555
Cu18 La4 3.043826 1_555
Cu18 La7 3.271509 1_556
Cu19 La6 3.032342 1_555
Cu19 La7 3.032356 1_555
Cu19 La3 3.043825 1_555
Cu19 La8 3.271517 1_554
Cu20 Cu28 2.464087 1_555
Cu20 Cu35 2.464087 1_545
Cu20 Cu4 2.516555 1_555
Cu20 La0 2.934210 1_555
Cu20 La7 3.085191 1_545
Cu20 La6 3.085198 1_555
Cu20 La4 3.167754 1_544
Cu21 Cu32 2.464086 1_555
Cu21 Cu29 2.464087 1_655
Cu21 Cu5 2.516555 1_555
Cu21 Cu3 2.688091 1_556
Cu21 La0 2.934210 1_666
Cu21 La8 3.085195 1_655
Cu21 La5 3.085195 1_555
Cu21 La3 3.167754 1_656
Cu22 Cu31 2.464071 1_655
Cu22 Cu30 2.464071 1_555
Cu22 Cu6 2.516557 1_555
Cu22 La0 2.934202 1_656
Cu22 La5 3.085200 1_555
Cu22 La8 3.085200 1_655
Cu22 La3 3.167748 1_656
Cu23 Cu33 2.464071 1_545
Cu23 Cu34 2.464072 1_555
Cu23 Cu7 2.516557 1_555
Cu23 Cu3 2.688083 1_545
Cu23 La0 2.934202 1_655
Cu23 La7 3.085192 1_545
Cu23 La6 3.085198 1_555
Cu23 La4 3.167748 1_544
Cu24 Cu8 2.485274 1_555
Cu24 Cu5 2.540209 1_455
Cu24 Cu7 2.540209 1_455
Cu24 Cu34 2.562420 1_455
Cu24 Cu29 2.562427 1_555
Cu24 La1 3.234095 1_555
Cu24 La2 3.234096 1_455
Cu24 La8 3.271115 1_555
Cu24 La6 3.271118 1_455
Cu25 Cu8 2.485273 1_555
Cu25 Cu9 2.485273 1_555
Cu25 Cu6 2.540208 1_465
Cu25 Cu7 2.540208 1_465
Cu25 Cu31 2.562419 1_565
Cu25 Cu33 2.562419 1_455
Cu25 La2 3.234108 1_455
Cu25 La1 3.234108 1_565
Cu25 La8 3.271115 1_565
Cu25 La7 3.271118 1_455
Cu26 Cu5 2.540208 1_555
Cu26 Cu4 2.540209 1_555
Cu26 Cu28 2.562427 1_555
Cu26 Cu32 2.562427 1_555
Cu26 La2 3.234084 1_555
Cu26 La1 3.234084 1_555
Cu26 La5 3.271115 1_555
Cu26 La6 3.271125 1_555
Cu27 Cu9 2.485273 1_555
Cu27 Cu6 2.540208 1_565
Cu27 Cu4 2.540209 1_565
Cu27 Cu30 2.562420 1_565
Cu27 Cu35 2.562426 1_555
Cu27 La2 3.234095 1_555
Cu27 La1 3.234095 1_565
Cu27 La5 3.271115 1_565
Cu27 La7 3.271125 1_555
Cu28 Cu34 2.872822 1_455
Cu28 La6 2.988186 1_555
Cu28 La1 3.008451 1_555
Cu28 La3 3.045847 1_555
Cu28 La0 3.429487 1_555
Cu29 Cu8 2.409806 1_555
Cu29 Cu31 2.872823 1_565
Cu29 La8 2.988182 1_555
Cu29 La2 3.008468 1_455
Cu29 La4 3.045854 1_555
Cu29 La0 3.429493 1_566
Cu30 Cu32 2.872823 1_545
Cu30 La5 2.988156 1_555
Cu30 La2 3.008472 1_545
Cu30 La4 3.045852 1_545
Cu30 La0 3.429498 1_656
Cu31 Cu8 2.409821 1_545
Cu31 La8 2.988156 1_555
Cu31 La2 3.008490 1_445
Cu31 La4 3.045858 1_545
Cu31 La0 3.429504 1_556
Cu32 La5 2.988182 1_555
Cu32 La2 3.008451 1_555
Cu32 La4 3.045847 1_555
Cu32 La0 3.429487 1_666
Cu33 Cu9 2.409821 1_655
Cu33 Cu35 2.872822 1_655
Cu33 La7 2.988151 1_555
Cu33 La1 3.008490 1_665
Cu33 La3 3.045859 1_655
Cu33 La0 3.429504 1_665
Cu34 La6 2.988151 1_555
Cu34 La1 3.008471 1_655
Cu34 La3 3.045852 1_655
Cu34 La0 3.429498 1_655
Cu35 Cu9 2.409806 1_555
Cu35 La7 2.988186 1_555
Cu35 La1 3.008469 1_565
Cu35 La3 3.045855 1_555
Cu35 La0 3.429492 1_565
