# generated using pymatgen
data_CdTcBr18
_symmetry_space_group_name_H-M   'P 1'
_cell_length_a   9.11309853
_cell_length_b   9.09969668
_cell_length_c   9.09384646
_cell_angle_alpha   86.93518533
_cell_angle_beta   86.89280121
_cell_angle_gamma   86.94813098
_symmetry_Int_Tables_number   1
_chemical_formula_structural   CdTcBr18
_chemical_formula_sum   'Cd1 Tc1 Br18'
_cell_volume   750.97557312
_cell_formula_units_Z   1
loop_
 _symmetry_equiv_pos_site_id
 _symmetry_equiv_pos_as_xyz
  1  'x, y, z'
loop_
 _atom_site_type_symbol
 _atom_site_label
 _atom_site_symmetry_multiplicity
 _atom_site_fract_x
 _atom_site_fract_y
 _atom_site_fract_z
 _atom_site_occupancy
  Cd  Cd0  1  0.00000000  0.00000000  0.00000000  1
  Tc  Tc0  1  0.50000000  0.50000000  0.50000000  1
  Br  Br0  1  0.77619999  0.47782934  0.49597966  1
  Br  Br1  1  0.49749591  0.77666117  0.47722449  1
  Br  Br2  1  0.47937546  0.49837272  0.77674403  1
  Br  Br3  1  0.22380001  0.52217066  0.50402034  1
  Br  Br4  1  0.50250409  0.22333883  0.52277551  1
  Br  Br5  1  0.52062454  0.50162728  0.22325597  1
  Br  Br6  1  0.89471256  0.38269626  0.74979866  1
  Br  Br7  1  0.75093257  0.89529490  0.38255780  1
  Br  Br8  1  0.38307124  0.75154994  0.89547231  1
  Br  Br9  1  0.10528744  0.61730374  0.25020134  1
  Br  Br10  1  0.24906743  0.10470510  0.61744220  1
  Br  Br11  1  0.61692876  0.24845006  0.10452769  1
  Br  Br12  1  0.03135782  0.96809143  0.69689771  1
  Br  Br13  1  0.69737354  0.03070154  0.96818244  1
  Br  Br14  1  0.96967982  0.69664456  0.03215209  1
  Br  Br15  1  0.96864218  0.03190857  0.30310229  1
  Br  Br16  1  0.30262646  0.96929846  0.03181756  1
  Br  Br17  1  0.03032018  0.30335544  0.96784791  1
loop_
_geom_bond_atom_site_label_1
_geom_bond_atom_site_label_2
_geom_bond_distance
_geom_bond_site_symmetry_2
Br0 Tc0 2.512819 1_555
Br0 Br6 2.683397 1_555
Br1 Tc0 2.513967 1_555
Br1 Br7 2.681658 1_555
Br2 Tc0 2.512806 1_555
Br2 Br8 2.681717 1_555
Br3 Tc0 2.512819 1_555
Br3 Br9 2.683397 1_555
Br4 Tc0 2.513967 1_555
Br5 Tc0 2.512806 1_555
Br10 Br12 2.452539 1_545
Br10 Br4 2.681658 1_555
Br11 Br13 2.451615 1_554
Br11 Br5 2.681717 1_555
Br12 Cd0 2.784758 1_566
Br13 Cd0 2.786290 1_656
Br14 Br9 2.449071 1_655
Br14 Cd0 2.787119 1_665
Br15 Br7 2.452539 1_545
Br15 Cd0 2.784758 1_655
Br16 Br8 2.451615 1_554
Br16 Cd0 2.786290 1_565
Br17 Br6 2.449071 1_455
Br17 Cd0 2.787119 1_556
