# generated using pymatgen
data_YCuHgPd3
_symmetry_space_group_name_H-M   'P 1'
_cell_length_a   5.14959959
_cell_length_b   5.40177574
_cell_length_c   5.40177546
_cell_angle_alpha   60.00000173
_cell_angle_beta   58.36641998
_cell_angle_gamma   58.36642131
_symmetry_Int_Tables_number   1
_chemical_formula_structural   YCuHgPd3
_chemical_formula_sum   'Y1 Cu1 Hg1 Pd3'
_cell_volume   103.55109989
_cell_formula_units_Z   1
loop_
 _symmetry_equiv_pos_site_id
 _symmetry_equiv_pos_as_xyz
  1  'x, y, z'
loop_
 _atom_site_type_symbol
 _atom_site_label
 _atom_site_symmetry_multiplicity
 _atom_site_fract_x
 _atom_site_fract_y
 _atom_site_fract_z
 _atom_site_occupancy
  Y  Y0  1  0.25026555  0.24991115  0.24991115  1
  Cu  Cu0  1  0.12289849  0.62570117  0.62570117  1
  Hg  Hg0  1  0.00651300  0.99782867  0.99782867  1
  Pd  Pd0  1  0.62344199  0.62616023  0.12424055  1
  Pd  Pd1  1  0.62344199  0.12424055  0.62616023  1
  Pd  Pd2  1  0.62344199  0.62616023  0.62616023  1
loop_
_geom_bond_atom_site_label_1
_geom_bond_atom_site_label_2
_geom_bond_distance
_geom_bond_site_symmetry_2
Cu0 Pd2 2.569402 1_455
Cu0 Pd0 2.569405 1_456
Cu0 Pd1 2.569405 1_465
Cu0 Pd0 2.580199 1_555
Cu0 Pd1 2.580199 1_555
Cu0 Pd2 2.580202 1_555
Cu0 Hg0 3.154963 1_555
Cu0 Hg0 3.154977 1_554
Cu0 Hg0 3.154977 1_545
Cu0 Y0 3.162083 1_556
Cu0 Y0 3.162083 1_565
Cu0 Y0 3.162097 1_555
Hg0 Pd2 2.967149 1_555
Hg0 Pd1 2.967159 1_565
Hg0 Pd0 2.967159 1_556
Hg0 Y0 3.098953 1_466
Hg0 Pd1 3.123921 1_465
Hg0 Pd0 3.123921 1_456
Hg0 Pd2 3.123931 1_456
Hg0 Pd2 3.123931 1_465
Hg0 Pd1 3.123940 1_466
Hg0 Pd0 3.123940 1_466
Hg0 Y0 3.274766 1_565
Hg0 Y0 3.274766 1_566
Hg0 Y0 3.274766 1_556
Pd0 Pd2 2.690518 1_554
Pd0 Pd1 2.690518 1_564
Pd0 Pd2 2.711257 1_555
Pd0 Pd1 2.711258 1_555
Pd0 Y0 3.007987 1_655
Pd0 Y0 3.103745 1_565
Pd0 Y0 3.103764 1_555
Pd1 Pd2 2.690518 1_545
Pd1 Pd2 2.711258 1_555
Pd1 Y0 3.007987 1_655
Pd1 Y0 3.103745 1_556
Pd1 Y0 3.103764 1_555
Pd2 Y0 3.007997 1_655
Pd2 Y0 3.103755 1_556
Pd2 Y0 3.103755 1_565
