# generated using pymatgen
data_TcPb3Br2O5
_symmetry_space_group_name_H-M   'P 1'
_cell_length_a   7.37917262
_cell_length_b   7.37917303
_cell_length_c   11.12771167
_cell_angle_alpha   90.00000000
_cell_angle_beta   90.00000000
_cell_angle_gamma   134.88279213
_symmetry_Int_Tables_number   1
_chemical_formula_structural   TcPb3Br2O5
_chemical_formula_sum   'Tc2 Pb6 Br4 O10'
_cell_volume   429.33158083
_cell_formula_units_Z   2
loop_
 _symmetry_equiv_pos_site_id
 _symmetry_equiv_pos_as_xyz
  1  'x, y, z'
loop_
 _atom_site_type_symbol
 _atom_site_label
 _atom_site_symmetry_multiplicity
 _atom_site_fract_x
 _atom_site_fract_y
 _atom_site_fract_z
 _atom_site_occupancy
  Tc  Tc0  1  0.77434602  0.22565398  0.25000000  1
  Tc  Tc1  1  0.22565398  0.77434602  0.75000000  1
  Pb  Pb0  1  0.88055923  0.11944077  0.75000000  1
  Pb  Pb1  1  0.65411828  0.34588172  0.52522367  1
  Pb  Pb2  1  0.34588172  0.65411828  0.47477633  1
  Pb  Pb3  1  0.65411828  0.34588172  0.97477633  1
  Pb  Pb4  1  0.34588172  0.65411828  0.02522367  1
  Pb  Pb5  1  0.11944077  0.88055923  0.25000000  1
  Br  Br0  1  0.51806906  0.48193094  0.25000000  1
  Br  Br1  1  0.48193094  0.51806906  0.75000000  1
  Br  Br2  1  0.00000000  0.00000000  0.50000000  1
  Br  Br3  1  0.00000000  0.00000000  0.00000000  1
  O  O0  1  0.10462356  0.89537644  0.75000000  1
  O  O1  1  0.03819417  0.50592428  0.63267845  1
  O  O2  1  0.50592428  0.03819417  0.36732155  1
  O  O3  1  0.49407572  0.96180583  0.63267845  1
  O  O4  1  0.96180583  0.49407572  0.36732155  1
  O  O5  1  0.89537644  0.10462356  0.25000000  1
  O  O6  1  0.03819417  0.50592428  0.86732155  1
  O  O7  1  0.49407572  0.96180583  0.86732155  1
  O  O8  1  0.96180583  0.49407572  0.13267845  1
  O  O9  1  0.50592428  0.03819417  0.13267845  1
loop_
_geom_bond_atom_site_label_1
_geom_bond_atom_site_label_2
_geom_bond_distance
_geom_bond_site_symmetry_2
Br0 Pb5 3.150017 1_655
Br0 Pb5 3.150017 1_545
Br1 Pb0 3.150017 1_455
Br1 Pb0 3.150017 1_565
Br2 Pb0 3.223213 1_455
Br2 Pb5 3.223213 1_545
Br3 Pb0 3.223213 1_454
Br3 Pb5 3.223213 1_545
O0 Tc1 1.649542 1_555
O1 Tc1 1.916837 1_555
O1 Pb2 2.436012 1_555
O1 Pb1 2.476518 1_455
O1 Pb0 2.551281 1_455
O2 Tc0 1.916837 1_555
O2 Pb1 2.436012 1_555
O2 Pb2 2.476518 1_545
O2 Pb5 2.551281 1_545
O3 Tc1 1.916837 1_555
O3 Pb2 2.436012 1_555
O3 Pb1 2.476518 1_565
O3 Pb0 2.551281 1_565
O4 Tc0 1.916837 1_555
O4 Pb1 2.436012 1_555
O4 Pb2 2.476518 1_655
O4 Pb5 2.551281 1_655
O5 Tc0 1.649542 1_555
O6 Tc1 1.916837 1_555
O6 Pb4 2.436012 1_556
O6 Pb3 2.476518 1_455
O6 Pb0 2.551281 1_455
O7 Tc1 1.916837 1_555
O7 Pb4 2.436012 1_556
O7 Pb3 2.476518 1_565
O7 Pb0 2.551281 1_565
O8 Tc0 1.916837 1_555
O8 Pb3 2.436012 1_554
O8 Pb4 2.476518 1_655
O8 Pb5 2.551281 1_655
O9 Tc0 1.916837 1_555
O9 Pb3 2.436012 1_554
O9 Pb4 2.476518 1_545
O9 Pb5 2.551281 1_545
