# generated using pymatgen
data_Hf4Ta2Al7
_symmetry_space_group_name_H-M   'P 1'
_cell_length_a   10.03296694
_cell_length_b   10.03296690
_cell_length_c   10.03296727
_cell_angle_alpha   30.14462949
_cell_angle_beta   30.14464143
_cell_angle_gamma   30.14463598
_symmetry_Int_Tables_number   1
_chemical_formula_structural   Hf4Ta2Al7
_chemical_formula_sum   'Hf4 Ta2 Al7'
_cell_volume   225.64985015
_cell_formula_units_Z   1
loop_
 _symmetry_equiv_pos_site_id
 _symmetry_equiv_pos_as_xyz
  1  'x, y, z'
loop_
 _atom_site_type_symbol
 _atom_site_label
 _atom_site_symmetry_multiplicity
 _atom_site_fract_x
 _atom_site_fract_y
 _atom_site_fract_z
 _atom_site_occupancy
  Hf  Hf0  1  0.83473706  0.83473706  0.83473706  1
  Hf  Hf1  1  0.16526294  0.16526294  0.16526294  1
  Hf  Hf2  1  0.64859385  0.64859385  0.64859385  1
  Hf  Hf3  1  0.35140615  0.35140615  0.35140615  1
  Ta  Ta0  1  0.54450301  0.54450301  0.54450301  1
  Ta  Ta1  1  0.45549699  0.45549699  0.45549699  1
  Al  Al0  1  0.00000000  0.00000000  0.00000000  1
  Al  Al1  1  0.90831397  0.41406339  0.90831397  1
  Al  Al2  1  0.90831397  0.90831397  0.41406339  1
  Al  Al3  1  0.41406339  0.90831397  0.90831397  1
  Al  Al4  1  0.09168603  0.58593661  0.09168603  1
  Al  Al5  1  0.09168603  0.09168603  0.58593661  1
  Al  Al6  1  0.58593661  0.09168603  0.09168603  1
loop_
_geom_bond_atom_site_label_1
_geom_bond_atom_site_label_2
_geom_bond_distance
_geom_bond_site_symmetry_2
Hf0 Hf1 3.013637 1_656
Hf0 Hf1 3.013637 1_665
Hf0 Hf1 3.013638 1_566
Hf0 Ta0 3.256781 1_565
Hf0 Ta0 3.256781 1_556
Hf0 Ta0 3.256782 1_655
Hf0 Ta1 3.288250 1_565
Hf0 Ta1 3.288250 1_556
Hf0 Ta1 3.288251 1_655
Hf1 Ta1 3.256781 1_545
Hf1 Ta1 3.256781 1_554
Hf1 Ta1 3.256782 1_455
Hf1 Ta0 3.288250 1_545
Hf1 Ta0 3.288250 1_554
Hf1 Ta0 3.288251 1_455
Hf2 Ta0 2.988448 1_555
Hf2 Hf3 3.186286 1_565
Hf2 Hf3 3.186286 1_556
Hf2 Hf3 3.186287 1_655
Hf3 Ta1 2.988448 1_555
Ta0 Ta1 2.555363 1_555
Al0 Al1 2.682418 1_454
Al0 Al4 2.682418 1_545
Al0 Al3 2.682418 1_544
Al0 Al6 2.682418 1_455
Al0 Al2 2.682418 1_445
Al0 Al5 2.682418 1_554
Al0 Hf3 3.056916 1_545
Al0 Hf2 3.056916 1_454
Al0 Hf3 3.056917 1_554
Al0 Hf2 3.056917 1_445
Al0 Hf3 3.056917 1_455
Al0 Hf2 3.056917 1_544
Al1 Al2 2.578952 1_555
Al1 Al3 2.578953 1_555
Al1 Al2 2.638952 1_546
Al1 Al3 2.638953 1_645
Al1 Ta1 2.914773 1_655
Al1 Ta1 2.914774 1_556
Al1 Hf1 2.959331 1_656
Al1 Hf0 3.011437 1_555
Al1 Hf2 3.106650 1_555
Al1 Hf3 3.107915 1_556
Al1 Hf3 3.107915 1_655
Al2 Al3 2.578953 1_555
Al2 Al3 2.638953 1_654
Al2 Ta1 2.914773 1_655
Al2 Ta1 2.914773 1_565
Al2 Hf1 2.959331 1_665
Al2 Hf0 3.011437 1_555
Al2 Hf2 3.106650 1_555
Al2 Hf3 3.107915 1_565
Al2 Hf3 3.107915 1_655
Al3 Ta1 2.914773 1_565
Al3 Ta1 2.914773 1_556
Al3 Hf1 2.959331 1_566
Al3 Hf0 3.011437 1_555
Al3 Hf2 3.106650 1_555
Al3 Hf3 3.107914 1_556
Al3 Hf3 3.107914 1_565
Al4 Al5 2.578952 1_555
Al4 Al6 2.578953 1_555
Al4 Al5 2.638952 1_564
Al4 Al6 2.638953 1_465
Al4 Ta0 2.914773 1_455
Al4 Ta0 2.914774 1_554
Al4 Hf0 2.959331 1_454
Al4 Hf1 3.011437 1_555
Al4 Hf3 3.106650 1_555
Al4 Hf2 3.107915 1_554
Al4 Hf2 3.107915 1_455
Al5 Al6 2.578953 1_555
Al5 Al6 2.638953 1_456
Al5 Ta0 2.914773 1_455
Al5 Ta0 2.914773 1_545
Al5 Hf0 2.959331 1_445
Al5 Hf1 3.011437 1_555
Al5 Hf3 3.106650 1_555
Al5 Hf2 3.107915 1_545
Al5 Hf2 3.107915 1_455
Al6 Ta0 2.914773 1_545
Al6 Ta0 2.914773 1_554
Al6 Hf0 2.959331 1_544
Al6 Hf1 3.011437 1_555
Al6 Hf3 3.106650 1_555
Al6 Hf2 3.107914 1_554
Al6 Hf2 3.107914 1_545
