# generated using pymatgen
data_ReHg(PO3)6
_symmetry_space_group_name_H-M   'P 1'
_cell_length_a   6.75608367
_cell_length_b   6.75608480
_cell_length_c   10.09807737
_cell_angle_alpha   90.00000000
_cell_angle_beta   90.00000000
_cell_angle_gamma   120.00000863
_symmetry_Int_Tables_number   1
_chemical_formula_structural   ReHg(PO3)6
_chemical_formula_sum   'Re1 Hg1 P6 O18'
_cell_volume   399.17138348
_cell_formula_units_Z   1
loop_
 _symmetry_equiv_pos_site_id
 _symmetry_equiv_pos_as_xyz
  1  'x, y, z'
loop_
 _atom_site_type_symbol
 _atom_site_label
 _atom_site_symmetry_multiplicity
 _atom_site_fract_x
 _atom_site_fract_y
 _atom_site_fract_z
 _atom_site_occupancy
  Re  Re0  1  0.00000000  0.00000000  0.00000000  1
  Hg  Hg0  1  0.00000000  0.00000000  0.50000000  1
  P  P0  1  0.72639519  0.11908152  0.76927549  1
  P  P1  1  0.88091848  0.27360481  0.23072451  1
  P  P2  1  0.72639519  0.60731466  0.23072451  1
  P  P3  1  0.88091848  0.60731466  0.76927549  1
  P  P4  1  0.39268534  0.27360481  0.76927549  1
  P  P5  1  0.39268534  0.11908152  0.23072451  1
  O  O0  1  0.89976990  0.51495902  0.20752268  1
  O  O1  1  0.89976990  0.38481088  0.79247732  1
  O  O2  1  0.48504098  0.10023010  0.79247732  1
  O  O3  1  0.61518912  0.10023010  0.20752268  1
  O  O4  1  0.74328413  0.04210157  0.63641483  1
  O  O5  1  0.75410421  0.99652172  0.88661427  1
  O  O6  1  0.48504098  0.38481088  0.20752268  1
  O  O7  1  0.74328413  0.70118256  0.36358517  1
  O  O8  1  0.75410421  0.75758349  0.11338573  1
  O  O9  1  0.61518912  0.51495902  0.79247732  1
  O  O10  1  0.95789843  0.25671587  0.36358517  1
  O  O11  1  0.00347828  0.24589579  0.11338573  1
  O  O12  1  0.24241651  0.24589579  0.88661427  1
  O  O13  1  0.29881744  0.25671587  0.63641483  1
  O  O14  1  0.00347828  0.75758349  0.88661427  1
  O  O15  1  0.95789843  0.70118256  0.63641483  1
  O  O16  1  0.24241651  0.99652172  0.11338573  1
  O  O17  1  0.29881744  0.04210157  0.36358517  1
loop_
_geom_bond_atom_site_label_1
_geom_bond_atom_site_label_2
_geom_bond_distance
_geom_bond_site_symmetry_2
Hg0 O13 2.340928 1_555
Hg0 O17 2.340928 1_555
Hg0 O7 2.340928 1_445
Hg0 O4 2.340928 1_455
Hg0 O15 2.340929 1_445
Hg0 O10 2.340929 1_455
O0 P1 1.588183 1_555
O0 P2 1.595968 1_555
O1 P3 1.588189 1_555
O1 P0 1.595963 1_555
O2 P0 1.588183 1_555
O2 P4 1.595969 1_555
O3 P5 1.588189 1_555
O3 P1 1.595963 1_555
O4 P0 1.463844 1_555
O5 P0 1.509854 1_565
O5 Re0 2.008079 1_666
O6 P2 1.588185 1_555
O6 P5 1.595962 1_555
O7 P2 1.463841 1_555
O8 P2 1.509854 1_555
O8 Re0 2.008076 1_665
O9 P4 1.588185 1_555
O9 P3 1.595962 1_555
O10 P1 1.463844 1_555
O11 P1 1.509854 1_455
O11 Re0 2.008079 1_555
O12 P4 1.509854 1_555
O12 Re0 2.008076 1_556
O13 P4 1.463841 1_555
O14 P3 1.509854 1_455
O14 Re0 2.008073 1_566
O15 P3 1.463842 1_555
O16 P5 1.509854 1_565
O16 Re0 2.008073 1_565
O17 P5 1.463842 1_555
