# generated using pymatgen
data_Cd2GaRh3O8
_symmetry_space_group_name_H-M   'P 1'
_cell_length_a   6.14375959
_cell_length_b   6.14376084
_cell_length_c   6.14376095
_cell_angle_alpha   61.12510803
_cell_angle_beta   61.12509812
_cell_angle_gamma   61.12511165
_symmetry_Int_Tables_number   1
_chemical_formula_structural   Cd2GaRh3O8
_chemical_formula_sum   'Cd2 Ga1 Rh3 O8'
_cell_volume   168.13100777
_cell_formula_units_Z   1
loop_
 _symmetry_equiv_pos_site_id
 _symmetry_equiv_pos_as_xyz
  1  'x, y, z'
loop_
 _atom_site_type_symbol
 _atom_site_label
 _atom_site_symmetry_multiplicity
 _atom_site_fract_x
 _atom_site_fract_y
 _atom_site_fract_z
 _atom_site_occupancy
  Cd  Cd0  1  0.74619045  0.74619045  0.74619045  1
  Cd  Cd1  1  0.50380955  0.50380955  0.50380955  1
  Ga  Ga0  1  0.12500000  0.12500000  0.12500000  1
  Rh  Rh0  1  0.62500000  0.12500000  0.12500000  1
  Rh  Rh1  1  0.12500000  0.12500000  0.62500000  1
  Rh  Rh2  1  0.12500000  0.62500000  0.12500000  1
  O  O0  1  0.89728969  0.32027729  0.89728969  1
  O  O1  1  0.35271031  0.35271031  0.92972271  1
  O  O2  1  0.35693530  0.35693530  0.35693530  1
  O  O3  1  0.92972271  0.35271031  0.35271031  1
  O  O4  1  0.89306470  0.89306470  0.89306470  1
  O  O5  1  0.32027729  0.89728969  0.89728969  1
  O  O6  1  0.35271031  0.92972271  0.35271031  1
  O  O7  1  0.89728969  0.89728969  0.32027729  1
loop_
_geom_bond_atom_site_label_1
_geom_bond_atom_site_label_2
_geom_bond_distance
_geom_bond_site_symmetry_2
Cd0 O5 2.170461 1_555
Cd0 O7 2.170461 1_555
Cd0 O0 2.170461 1_555
Cd0 O4 2.191341 1_555
Cd1 O3 2.170461 1_555
Cd1 O1 2.170461 1_555
Cd1 O6 2.170461 1_555
Cd1 O2 2.191341 1_555
Ga0 O1 2.000491 1_554
Ga0 O7 2.000491 1_445
Ga0 O3 2.000491 1_455
Ga0 O5 2.000491 1_544
Ga0 O6 2.000491 1_545
Ga0 O0 2.000491 1_454
O0 Rh0 2.062071 1_556
O0 Rh1 2.062071 1_655
O1 Rh2 2.062071 1_556
O1 Rh0 2.062071 1_556
O2 Rh1 2.049719 1_555
O2 Rh0 2.049719 1_555
O2 Rh2 2.049719 1_555
O3 Rh2 2.062071 1_655
O3 Rh1 2.062072 1_655
O4 Rh1 2.049719 1_665
O4 Rh0 2.049719 1_566
O4 Rh2 2.049719 1_656
O5 Rh2 2.062071 1_556
O5 Rh1 2.062072 1_565
O6 Rh0 2.062071 1_565
O6 Rh1 2.062071 1_565
O7 Rh2 2.062071 1_655
O7 Rh0 2.062071 1_565
