# generated using pymatgen
data_Ba9Sr(Si2Pb)2
_symmetry_space_group_name_H-M   'P 1'
_cell_length_a   8.64602682
_cell_length_b   8.64602682
_cell_length_c   17.17824206
_cell_angle_alpha   90.00000000
_cell_angle_beta   90.00000000
_cell_angle_gamma   90.00000000
_symmetry_Int_Tables_number   1
_chemical_formula_structural   Ba9Sr(Si2Pb)2
_chemical_formula_sum   'Ba18 Sr2 Si8 Pb4'
_cell_volume   1284.13852496
_cell_formula_units_Z   2
loop_
 _symmetry_equiv_pos_site_id
 _symmetry_equiv_pos_as_xyz
  1  'x, y, z'
loop_
 _atom_site_type_symbol
 _atom_site_label
 _atom_site_symmetry_multiplicity
 _atom_site_fract_x
 _atom_site_fract_y
 _atom_site_fract_z
 _atom_site_occupancy
  Ba  Ba0  1  0.31109822  0.67488345  0.11500163  1
  Ba  Ba1  1  0.17488345  0.18890178  0.11500163  1
  Ba  Ba2  1  0.32773858  0.69050357  0.38483409  1
  Ba  Ba3  1  0.67226142  0.69050357  0.88483409  1
  Ba  Ba4  1  0.19050357  0.17226142  0.38483409  1
  Ba  Ba5  1  0.67226142  0.30949643  0.38483409  1
  Ba  Ba6  1  0.17488345  0.81109822  0.61500163  1
  Ba  Ba7  1  0.32773858  0.30949643  0.88483409  1
  Ba  Ba8  1  0.19050357  0.82773858  0.88483409  1
  Ba  Ba9  1  0.82511655  0.18890178  0.61500163  1
  Ba  Ba10  1  0.31109822  0.32511655  0.61500163  1
  Ba  Ba11  1  0.80949643  0.82773858  0.38483409  1
  Ba  Ba12  1  0.80949643  0.17226142  0.88483409  1
  Ba  Ba13  1  0.82511655  0.81109822  0.11500163  1
  Ba  Ba14  1  0.00000000  0.50000000  0.26759573  1
  Ba  Ba15  1  0.00000000  0.50000000  0.76759573  1
  Ba  Ba16  1  0.68890178  0.32511655  0.11500163  1
  Ba  Ba17  1  0.68890178  0.67488345  0.61500163  1
  Sr  Sr0  1  0.50000000  0.00000000  0.73414736  1
  Sr  Sr1  1  0.50000000  0.00000000  0.23414736  1
  Si  Si0  1  0.10487461  0.09981532  0.74951096  1
  Si  Si1  1  0.40018468  0.60487461  0.74951096  1
  Si  Si2  1  0.59981532  0.60487461  0.24951096  1
  Si  Si3  1  0.10487461  0.90018468  0.24951096  1
  Si  Si4  1  0.59981532  0.39512539  0.74951096  1
  Si  Si5  1  0.89512539  0.90018468  0.74951096  1
  Si  Si6  1  0.40018468  0.39512539  0.24951096  1
  Si  Si7  1  0.89512539  0.09981532  0.24951096  1
  Pb  Pb0  1  0.00000000  0.50000000  0.99182207  1
  Pb  Pb1  1  0.50000000  0.00000000  0.00904911  1
  Pb  Pb2  1  0.50000000  0.00000000  0.50904911  1
  Pb  Pb3  1  0.00000000  0.50000000  0.49182207  1
loop_
_geom_bond_atom_site_label_1
_geom_bond_atom_site_label_2
_geom_bond_distance
_geom_bond_site_symmetry_2
Ba0 Si6 3.432620 1_555
Ba0 Si2 3.454954 1_555
Ba0 Si3 3.508949 1_555
Ba0 Pb1 3.725818 1_565
Ba0 Pb0 3.741471 1_554
Ba1 Si7 3.432620 1_455
Ba1 Si3 3.454954 1_545
Ba1 Si6 3.508949 1_555
Ba1 Pb1 3.725818 1_555
Ba1 Pb0 3.741471 1_554
Ba2 Si2 3.389049 1_555
Ba2 Si6 3.509745 1_555
Ba2 Si3 3.521841 1_555
Ba2 Pb2 3.732539 1_565
Ba2 Pb3 3.757683 1_555
Ba3 Si1 3.389049 1_555
Ba3 Si4 3.509745 1_555
Ba3 Si5 3.521841 1_555
Ba3 Pb1 3.732539 1_566
Ba3 Pb0 3.757683 1_655
Ba4 Si3 3.389049 1_545
Ba4 Si7 3.509745 1_455
Ba4 Si6 3.521841 1_555
Ba4 Pb2 3.732539 1_555
Ba4 Pb3 3.757683 1_555
Ba5 Si6 3.389049 1_555
Ba5 Si2 3.509745 1_555
Ba5 Si7 3.521841 1_555
Ba5 Pb2 3.732539 1_555
Ba5 Pb3 3.757683 1_655
Ba6 Si5 3.432620 1_455
Ba6 Si0 3.454954 1_565
Ba6 Si1 3.508949 1_555
Ba6 Pb2 3.725818 1_565
Ba6 Pb3 3.741471 1_555
Ba7 Si4 3.389049 1_555
Ba7 Si1 3.509745 1_555
Ba7 Si0 3.521841 1_555
Ba7 Pb1 3.732539 1_556
Ba7 Pb0 3.757683 1_555
Ba8 Si0 3.389049 1_565
Ba8 Si5 3.509745 1_455
Ba8 Si1 3.521841 1_555
Ba8 Pb1 3.732539 1_566
Ba8 Pb0 3.757683 1_555
Ba9 Si0 3.432620 1_655
Ba9 Si5 3.454954 1_545
Ba9 Si4 3.508949 1_555
Ba9 Pb2 3.725818 1_555
Ba9 Pb3 3.741471 1_655
Ba10 Si1 3.432620 1_555
Ba10 Si4 3.454954 1_555
Ba10 Si0 3.508949 1_555
Ba10 Pb2 3.725818 1_555
Ba10 Pb3 3.741471 1_555
Ba11 Si7 3.389049 1_565
Ba11 Si3 3.509745 1_655
Ba11 Si2 3.521841 1_555
Ba11 Pb2 3.732539 1_565
Ba11 Pb3 3.757683 1_655
Ba12 Si5 3.389049 1_545
Ba12 Si0 3.509745 1_655
Ba12 Si4 3.521841 1_555
Ba12 Pb1 3.732539 1_556
Ba12 Pb0 3.757683 1_655
Ba13 Si3 3.432620 1_655
Ba13 Si7 3.454954 1_565
Ba13 Si2 3.508949 1_555
Ba13 Pb1 3.725818 1_565
Ba13 Pb0 3.741471 1_654
Ba14 Si3 3.590314 1_555
Ba14 Si6 3.590314 1_555
Ba14 Si2 3.590314 1_455
Ba14 Si7 3.590314 1_455
Ba14 Pb3 3.851814 1_555
Ba15 Si1 3.590314 1_555
Ba15 Si5 3.590314 1_455
Ba15 Si0 3.590314 1_555
Ba15 Si4 3.590314 1_455
Ba15 Pb0 3.851814 1_555
Ba16 Si2 3.432620 1_555
Ba16 Si6 3.454954 1_555
Ba16 Si7 3.508949 1_555
Ba16 Pb1 3.725818 1_555
Ba16 Pb0 3.741471 1_654
Ba17 Si4 3.432620 1_555
Ba17 Si1 3.454954 1_555
Ba17 Si5 3.508949 1_555
Ba17 Pb2 3.725818 1_565
Ba17 Pb3 3.741471 1_655
Si0 Si5 2.503575 1_445
Si0 Sr0 3.533454 1_555
Si1 Si4 2.503575 1_555
Si1 Sr0 3.533454 1_565
Si2 Si6 2.503575 1_555
Si2 Sr1 3.533454 1_565
Si3 Si7 2.503575 1_465
Si3 Sr1 3.533454 1_565
Si4 Sr0 3.533454 1_555
Si5 Sr0 3.533454 1_565
Si6 Sr1 3.533454 1_555
Si7 Sr1 3.533454 1_555
Pb1 Sr1 3.866792 1_555
Pb2 Sr0 3.866792 1_555
