# generated using pymatgen
data_Sc(NbBr3)6
_symmetry_space_group_name_H-M   'P 1'
_cell_length_a   10.51634189
_cell_length_b   10.51634197
_cell_length_c   10.51634145
_cell_angle_alpha   55.80800202
_cell_angle_beta   55.80799979
_cell_angle_gamma   55.80800709
_symmetry_Int_Tables_number   1
_chemical_formula_structural   Sc(NbBr3)6
_chemical_formula_sum   'Sc1 Nb6 Br18'
_cell_volume   742.45604442
_cell_formula_units_Z   1
loop_
 _symmetry_equiv_pos_site_id
 _symmetry_equiv_pos_as_xyz
  1  'x, y, z'
loop_
 _atom_site_type_symbol
 _atom_site_label
 _atom_site_symmetry_multiplicity
 _atom_site_fract_x
 _atom_site_fract_y
 _atom_site_fract_z
 _atom_site_occupancy
  Sc  Sc0  1  0.00000000  0.00000000  0.00000000  1
  Nb  Nb0  1  0.40928862  0.30408440  0.64772155  1
  Nb  Nb1  1  0.35227845  0.59071138  0.69591560  1
  Nb  Nb2  1  0.69591560  0.35227845  0.59071138  1
  Nb  Nb3  1  0.30408440  0.64772155  0.40928862  1
  Nb  Nb4  1  0.64772155  0.40928862  0.30408440  1
  Nb  Nb5  1  0.59071138  0.69591560  0.35227845  1
  Br  Br0  1  0.57031974  0.15519072  0.44132893  1
  Br  Br1  1  0.21658227  0.36967367  0.91587957  1
  Br  Br2  1  0.91587957  0.21658227  0.36967367  1
  Br  Br3  1  0.36967367  0.91587957  0.21658227  1
  Br  Br4  1  0.78341773  0.63032633  0.08412043  1
  Br  Br5  1  0.08412043  0.78341773  0.63032633  1
  Br  Br6  1  0.70752199  0.96736253  0.15261781  1
  Br  Br7  1  0.96736253  0.15261781  0.70752199  1
  Br  Br8  1  0.15261781  0.70752199  0.96736253  1
  Br  Br9  1  0.29247801  0.03263747  0.84738219  1
  Br  Br10  1  0.03263747  0.84738219  0.29247801  1
  Br  Br11  1  0.84738219  0.29247801  0.03263747  1
  Br  Br12  1  0.55867107  0.42968026  0.84480928  1
  Br  Br13  1  0.15519072  0.44132893  0.57031974  1
  Br  Br14  1  0.44132893  0.57031974  0.15519072  1
  Br  Br15  1  0.42968026  0.84480928  0.55867107  1
  Br  Br16  1  0.84480928  0.55867107  0.42968026  1
  Br  Br17  1  0.63032633  0.08412043  0.78341773  1
loop_
_geom_bond_atom_site_label_1
_geom_bond_atom_site_label_2
_geom_bond_distance
_geom_bond_site_symmetry_2
Br0 Nb4 2.583744 1_555
Br0 Nb0 2.595953 1_555
Br1 Nb0 2.593688 1_555
Br1 Nb1 2.601023 1_555
Br2 Nb4 2.593688 1_555
Br2 Nb2 2.601023 1_555
Br3 Nb3 2.593688 1_555
Br3 Nb5 2.601023 1_555
Br4 Nb5 2.593688 1_555
Br4 Nb4 2.601023 1_555
Br5 Nb1 2.593688 1_555
Br5 Nb3 2.601023 1_555
Br6 Sc0 2.678297 1_665
Br6 Nb5 2.893484 1_555
Br7 Sc0 2.678297 1_656
Br7 Nb2 2.893484 1_555
Br8 Sc0 2.678298 1_566
Br8 Nb1 2.893484 1_555
Br9 Sc0 2.678297 1_556
Br9 Nb0 2.893484 1_555
Br10 Sc0 2.678297 1_565
Br10 Nb3 2.893484 1_555
Br11 Sc0 2.678298 1_655
Br11 Nb4 2.893484 1_555
Br12 Nb2 2.583744 1_555
Br12 Nb1 2.595953 1_555
Br13 Nb0 2.583744 1_555
Br13 Nb3 2.595953 1_555
Br14 Nb3 2.583744 1_555
Br14 Nb4 2.595953 1_555
Br15 Nb1 2.583744 1_555
Br15 Nb5 2.595953 1_555
Br16 Nb5 2.583744 1_555
Br16 Nb2 2.595953 1_555
Br17 Nb2 2.593688 1_555
Br17 Nb0 2.601023 1_555
