# generated using pymatgen
data_Zr2SiH
_symmetry_space_group_name_H-M   'P 1'
_cell_length_a   5.43231032
_cell_length_b   5.43231020
_cell_length_c   5.43231069
_cell_angle_alpha   104.81342022
_cell_angle_beta   104.81342716
_cell_angle_gamma   119.25225011
_symmetry_Int_Tables_number   1
_chemical_formula_structural   Zr2SiH
_chemical_formula_sum   'Zr4 Si2 H2'
_cell_volume   120.66733577
_cell_formula_units_Z   2
loop_
 _symmetry_equiv_pos_site_id
 _symmetry_equiv_pos_as_xyz
  1  'x, y, z'
loop_
 _atom_site_type_symbol
 _atom_site_label
 _atom_site_symmetry_multiplicity
 _atom_site_fract_x
 _atom_site_fract_y
 _atom_site_fract_z
 _atom_site_occupancy
  Zr  Zr0  1  0.16337474  0.66337474  0.82674948  1
  Zr  Zr1  1  0.83662526  0.33662526  0.17325052  1
  Zr  Zr2  1  0.33662526  0.16337474  0.50000000  1
  Zr  Zr3  1  0.66337474  0.83662526  0.50000000  1
  Si  Si0  1  0.25000000  0.25000000  0.00000000  1
  Si  Si1  1  0.75000000  0.75000000  0.00000000  1
  H  H0  1  0.75000000  0.25000000  0.50000000  1
  H  H1  1  0.25000000  0.75000000  0.50000000  1
loop_
_geom_bond_atom_site_label_1
_geom_bond_atom_site_label_2
_geom_bond_distance
_geom_bond_site_symmetry_2
Si0 Si1 2.746796 1_555
Si0 Si1 2.746796 1_445
Si0 Zr1 2.834925 1_555
Si0 Zr3 2.834925 1_444
Si0 Zr0 2.834925 1_554
Si0 Zr0 2.834925 1_544
Si0 Zr3 2.834925 1_555
Si0 Zr1 2.834925 1_455
Si0 Zr2 2.834925 1_555
Si0 Zr2 2.834925 1_554
Si1 Zr0 2.834925 1_554
Si1 Zr2 2.834925 1_665
Si1 Zr1 2.834925 1_555
Si1 Zr1 2.834925 1_565
Si1 Zr2 2.834925 1_554
Si1 Zr0 2.834925 1_654
Si1 Zr3 2.834925 1_554
Si1 Zr3 2.834925 1_555
H0 Zr0 2.057020 1_655
H0 Zr3 2.057020 1_545
H0 Zr2 2.057020 1_555
H0 Zr1 2.057020 1_555
H1 Zr1 2.057020 1_455
H1 Zr2 2.057020 1_565
H1 Zr3 2.057020 1_555
H1 Zr0 2.057020 1_555
