# generated using pymatgen
data_Ti3Si3MoIr2
_symmetry_space_group_name_H-M   'P 1'
_cell_length_a   7.40419679
_cell_length_b   7.40419733
_cell_length_c   7.40419642
_cell_angle_alpha   126.56496443
_cell_angle_beta   123.89686147
_cell_angle_gamma   81.17404516
_symmetry_Int_Tables_number   1
_chemical_formula_structural   Ti3Si3MoIr2
_chemical_formula_sum   'Ti6 Si6 Mo2 Ir4'
_cell_volume   260.69786706
_cell_formula_units_Z   2
loop_
 _symmetry_equiv_pos_site_id
 _symmetry_equiv_pos_as_xyz
  1  'x, y, z'
loop_
 _atom_site_type_symbol
 _atom_site_label
 _atom_site_symmetry_multiplicity
 _atom_site_fract_x
 _atom_site_fract_y
 _atom_site_fract_z
 _atom_site_occupancy
  Ti  Ti0  1  0.96520879  0.73117082  0.26596103  1
  Ti  Ti1  1  0.03479121  0.30075323  0.76596103  1
  Ti  Ti2  1  0.24678381  0.16672998  0.41994617  1
  Ti  Ti3  1  0.75321619  0.17316437  0.91994617  1
  Ti  Ti4  1  0.56102164  0.34723268  0.28620904  1
  Ti  Ti5  1  0.43897836  0.72518740  0.78620904  1
  Si  Si0  1  0.78260122  0.80136095  0.51875973  1
  Si  Si1  1  0.21739878  0.73615851  0.01875973  1
  Si  Si2  1  0.33782259  0.07081283  0.74720584  1
  Si  Si3  1  0.66217741  0.40938325  0.73299024  1
  Si  Si4  1  0.17639301  0.40938325  0.24720584  1
  Si  Si5  1  0.82360699  0.07081283  0.23299024  1
  Mo  Mo0  1  0.50000000  0.49766355  0.99766355  1
  Mo  Mo1  1  1.00000000  0.49766355  0.49766355  1
  Ir  Ir0  1  0.16475712  0.00393443  0.91228710  1
  Ir  Ir1  1  0.83524288  0.74752998  0.83917731  1
  Ir  Ir2  1  0.40835267  0.74752998  0.41228710  1
  Ir  Ir3  1  0.59164733  0.00393443  0.33917731  1
loop_
_geom_bond_atom_site_label_1
_geom_bond_atom_site_label_2
_geom_bond_distance
_geom_bond_site_symmetry_2
Si0 Ti0 2.655155 1_555
Si0 Ti3 2.691364 1_565
Si0 Ti4 2.933645 1_555
Si1 Ti1 2.655147 1_554
Si1 Ti2 2.691358 1_565
Si1 Ti5 2.933657 1_554
Si2 Ti4 2.607040 1_556
Si2 Ti3 2.615815 1_555
Si2 Ti1 2.616429 1_555
Si2 Ti2 2.629021 1_555
Si2 Ti0 2.668304 1_445
Si2 Ti5 2.691534 1_545
Si3 Ti5 2.607041 1_555
Si3 Ti2 2.615813 1_555
Si3 Ti0 2.616426 1_556
Si3 Ti3 2.629007 1_555
Si3 Ti1 2.668305 1_655
Si3 Ti4 2.691541 1_555
Si4 Ti5 2.607041 1_555
Si4 Ti2 2.615813 1_555
Si4 Ti0 2.616431 1_455
Si4 Ti3 2.629017 1_454
Si4 Ti1 2.668309 1_554
Si4 Ti4 2.691533 1_555
Si5 Ti4 2.607050 1_555
Si5 Ti3 2.615824 1_554
Si5 Ti1 2.616424 1_655
Si5 Ti2 2.629021 1_655
Si5 Ti0 2.668299 1_545
Si5 Ti5 2.691534 1_544
Mo0 Si0 2.534366 1_556
Mo0 Si1 2.534366 1_556
Mo0 Si3 2.562662 1_555
Mo0 Si2 2.562662 1_555
Mo0 Ti4 2.759216 1_556
Mo0 Ti5 2.759229 1_555
Mo0 Ti3 2.791547 1_555
Mo0 Ti2 2.791556 1_555
Mo0 Ti1 2.983810 1_555
Mo0 Ti0 2.983815 1_556
Mo1 Si1 2.534366 1_656
Mo1 Si0 2.534367 1_555
Mo1 Si4 2.562662 1_655
Mo1 Si5 2.562662 1_555
Mo1 Ti4 2.759225 1_555
Mo1 Ti5 2.759229 1_655
Mo1 Ti3 2.791555 1_554
Mo1 Ti2 2.791556 1_655
Mo1 Ti1 2.983806 1_655
Mo1 Ti0 2.983819 1_555
Ir0 Si0 2.375971 1_445
Ir0 Si1 2.446792 1_546
Ir0 Si2 2.458472 1_555
Ir0 Si4 2.477955 1_556
Ir0 Ti4 2.752792 1_556
Ir0 Ti5 2.790377 1_545
Ir0 Ti1 2.820429 1_555
Ir0 Ti2 2.868883 1_556
Ir0 Mo1 2.911889 1_445
Ir1 Si1 2.375971 1_656
Ir1 Si0 2.446791 1_555
Ir1 Si3 2.458473 1_555
Ir1 Si5 2.477955 1_566
Ir1 Ti5 2.752785 1_555
Ir1 Ti4 2.790373 1_555
Ir1 Ti0 2.820416 1_556
Ir1 Ti3 2.868898 1_565
Ir1 Mo1 2.911889 1_555
Ir2 Si1 2.375971 1_555
Ir2 Si0 2.446792 1_555
Ir2 Si4 2.458473 1_555
Ir2 Si2 2.477955 1_565
Ir2 Ti5 2.752784 1_555
Ir2 Ti4 2.790366 1_555
Ir2 Ti0 2.820421 1_455
Ir2 Ti3 2.868890 1_565
Ir2 Mo0 2.911889 1_554
Ir3 Si0 2.375971 1_545
Ir3 Si1 2.446792 1_545
Ir3 Si5 2.458472 1_555
Ir3 Si3 2.477955 1_555
Ir3 Ti4 2.752799 1_555
Ir3 Ti5 2.790377 1_544
Ir3 Ti1 2.820423 1_655
Ir3 Ti2 2.868884 1_555
Ir3 Mo0 2.911889 1_544
