# generated using pymatgen
data_BaSr19(SiBi2)4
_symmetry_space_group_name_H-M   'P 1'
_cell_length_a   13.85746401
_cell_length_b   10.04176989
_cell_length_c   8.67508461
_cell_angle_alpha   90.00000000
_cell_angle_beta   89.93426409
_cell_angle_gamma   90.00000000
_symmetry_Int_Tables_number   1
_chemical_formula_structural   BaSr19(SiBi2)4
_chemical_formula_sum   'Ba1 Sr19 Si4 Bi8'
_cell_volume   1207.16728559
_cell_formula_units_Z   1
loop_
 _symmetry_equiv_pos_site_id
 _symmetry_equiv_pos_as_xyz
  1  'x, y, z'
loop_
 _atom_site_type_symbol
 _atom_site_label
 _atom_site_symmetry_multiplicity
 _atom_site_fract_x
 _atom_site_fract_y
 _atom_site_fract_z
 _atom_site_occupancy
  Ba  Ba0  1  0.19572112  0.25000000  0.15718079  1
  Sr  Sr0  1  0.08072932  0.52631950  0.83251341  1
  Sr  Sr1  1  0.58021933  0.97448033  0.66826125  1
  Sr  Sr2  1  0.91580626  0.02453749  0.16625735  1
  Sr  Sr3  1  0.42001860  0.47614959  0.33158430  1
  Sr  Sr4  1  0.91580626  0.47546251  0.16625735  1
  Sr  Sr5  1  0.42001860  0.02385041  0.33158430  1
  Sr  Sr6  1  0.08072932  0.97368050  0.83251341  1
  Sr  Sr7  1  0.58021933  0.52551967  0.66826125  1
  Sr  Sr8  1  0.99929832  0.75000000  0.44326433  1
  Sr  Sr9  1  0.50075996  0.75000000  0.05572120  1
  Sr  Sr10  1  0.99948792  0.25000000  0.55844178  1
  Sr  Sr11  1  0.50102632  0.25000000  0.94290089  1
  Sr  Sr12  1  0.21313531  0.75000000  0.17609108  1
  Sr  Sr13  1  0.71233035  0.75000000  0.32473691  1
  Sr  Sr14  1  0.78556304  0.25000000  0.82246774  1
  Sr  Sr15  1  0.28816195  0.25000000  0.67481845  1
  Sr  Sr16  1  0.30866960  0.75000000  0.65266759  1
  Sr  Sr17  1  0.80772114  0.75000000  0.84704831  1
  Sr  Sr18  1  0.69193154  0.25000000  0.34766456  1
  Si  Si0  1  0.49468070  0.75000000  0.44578850  1
  Si  Si1  1  0.99361751  0.75000000  0.05412258  1
  Si  Si2  1  0.50613143  0.25000000  0.55228481  1
  Si  Si3  1  0.00332345  0.25000000  0.94489242  1
  Bi  Bi0  1  0.33360565  0.50795733  0.94825971  1
  Bi  Bi1  1  0.82987173  0.99494751  0.54752197  1
  Bi  Bi2  1  0.66931901  0.00502076  0.04760055  1
  Bi  Bi3  1  0.16965126  0.49913017  0.45795700  1
  Bi  Bi4  1  0.66931901  0.49497924  0.04760055  1
  Bi  Bi5  1  0.16965126  0.00086983  0.45795700  1
  Bi  Bi6  1  0.33360565  0.99204267  0.94825971  1
  Bi  Bi7  1  0.82987173  0.50505249  0.54752197  1
loop_
_geom_bond_atom_site_label_1
_geom_bond_atom_site_label_2
_geom_bond_distance
_geom_bond_site_symmetry_2
Ba0 Si3 3.242091 1_554
Ba0 Bi3 3.632509 1_555
Ba0 Bi5 3.632509 1_555
Ba0 Bi0 3.692921 1_554
Ba0 Bi6 3.692921 1_544
Si0 Sr5 3.101055 1_565
Si0 Sr3 3.101055 1_555
Si0 Sr16 3.139196 1_555
Si0 Sr13 3.192523 1_555
Si0 Sr7 3.196312 1_555
Si0 Sr1 3.196312 1_555
Si0 Sr9 3.384819 1_555
Si1 Sr2 3.115563 1_565
Si1 Sr4 3.115563 1_555
Si1 Sr17 3.142240 1_554
Si1 Sr6 3.192646 1_654
Si1 Sr0 3.192646 1_654
Si1 Sr12 3.221871 1_655
Si1 Sr8 3.376846 1_555
Si2 Sr1 3.118225 1_545
Si2 Sr7 3.118225 1_555
Si2 Sr18 3.125646 1_555
Si2 Sr15 3.200941 1_555
Si2 Sr3 3.201886 1_555
Si2 Sr5 3.201886 1_555
Si2 Sr11 3.389285 1_555
Si3 Sr0 3.130138 1_555
Si3 Sr6 3.130138 1_545
Si3 Sr14 3.200195 1_455
Si3 Sr4 3.206108 1_456
Si3 Sr2 3.206108 1_456
Si3 Sr10 3.352974 1_455
Bi0 Sr11 3.477691 1_555
Bi0 Sr9 3.485246 1_556
Bi0 Sr12 3.548698 1_556
Bi0 Sr3 3.550097 1_556
Bi0 Sr16 3.550284 1_555
Bi0 Sr15 3.568876 1_555
Bi0 Sr0 3.651013 1_555
Bi1 Sr10 3.477605 1_565
Bi1 Sr8 3.517893 1_555
Bi1 Sr2 3.526601 1_565
Bi1 Sr13 3.527847 1_555
Bi1 Sr14 3.552795 1_565
Bi1 Sr17 3.590865 1_555
Bi1 Sr1 3.619323 1_555
Bi1 Sr18 3.636904 1_565
Bi2 Sr9 3.466779 1_545
Bi2 Sr11 3.510027 1_554
Bi2 Sr14 3.528983 1_554
Bi2 Sr1 3.529478 1_544
Bi2 Sr13 3.563233 1_545
Bi2 Sr2 3.573931 1_555
Bi2 Sr18 3.595527 1_555
Bi2 Sr17 3.640828 1_544
Bi3 Sr8 3.454838 1_455
Bi3 Sr0 3.484503 1_555
Bi3 Sr15 3.535802 1_555
Bi3 Sr10 3.545987 1_455
Bi3 Sr12 3.561605 1_555
Bi3 Sr16 3.594170 1_555
Bi3 Sr3 3.644655 1_555
Bi4 Sr9 3.466779 1_555
Bi4 Sr11 3.510027 1_554
Bi4 Sr14 3.528983 1_554
Bi4 Sr7 3.529478 1_554
Bi4 Sr13 3.563233 1_555
Bi4 Sr4 3.573931 1_555
Bi4 Sr18 3.595527 1_555
Bi4 Sr17 3.640828 1_554
Bi5 Sr8 3.454838 1_445
Bi5 Sr6 3.484503 1_545
Bi5 Sr15 3.535802 1_555
Bi5 Sr10 3.545987 1_455
Bi5 Sr12 3.561605 1_545
Bi5 Sr16 3.594170 1_545
Bi5 Sr5 3.644655 1_555
Bi6 Sr11 3.477691 1_565
Bi6 Sr9 3.485246 1_556
Bi6 Sr12 3.548698 1_556
Bi6 Sr5 3.550097 1_566
Bi6 Sr16 3.550284 1_555
Bi6 Sr15 3.568876 1_565
Bi6 Sr6 3.651013 1_555
Bi7 Sr10 3.477605 1_555
Bi7 Sr8 3.517893 1_555
Bi7 Sr4 3.526601 1_555
Bi7 Sr13 3.527847 1_555
Bi7 Sr14 3.552795 1_555
Bi7 Sr17 3.590865 1_555
Bi7 Sr7 3.619323 1_555
Bi7 Sr18 3.636904 1_555
