# generated using pymatgen
data_NaYB12
_symmetry_space_group_name_H-M   'P 1'
_cell_length_a   5.82345343
_cell_length_b   5.82345259
_cell_length_c   5.82345270
_cell_angle_alpha   60.00000503
_cell_angle_beta   60.00000978
_cell_angle_gamma   60.00000826
_symmetry_Int_Tables_number   1
_chemical_formula_structural   NaYB12
_chemical_formula_sum   'Na1 Y1 B12'
_cell_volume   139.64544723
_cell_formula_units_Z   1
loop_
 _symmetry_equiv_pos_site_id
 _symmetry_equiv_pos_as_xyz
  1  'x, y, z'
loop_
 _atom_site_type_symbol
 _atom_site_label
 _atom_site_symmetry_multiplicity
 _atom_site_fract_x
 _atom_site_fract_y
 _atom_site_fract_z
 _atom_site_occupancy
  Na  Na0  1  0.00000000  0.00000000  0.00000000  1
  Y  Y0  1  0.50000000  0.50000000  0.50000000  1
  B  B0  1  0.39951472  0.10048528  0.10048528  1
  B  B1  1  0.89951472  0.60048528  0.60048528  1
  B  B2  1  0.39951472  0.39951472  0.10048528  1
  B  B3  1  0.89951472  0.89951472  0.60048528  1
  B  B4  1  0.10048528  0.39951472  0.10048528  1
  B  B5  1  0.60048528  0.89951472  0.60048528  1
  B  B6  1  0.10048528  0.10048528  0.39951472  1
  B  B7  1  0.60048528  0.60048528  0.89951472  1
  B  B8  1  0.39951472  0.10048528  0.39951472  1
  B  B9  1  0.89951472  0.60048528  0.89951472  1
  B  B10  1  0.10048528  0.39951472  0.39951472  1
  B  B11  1  0.60048528  0.89951472  0.89951472  1
loop_
_geom_bond_atom_site_label_1
_geom_bond_atom_site_label_2
_geom_bond_distance
_geom_bond_site_symmetry_2
B0 B11 1.655115 1_544
B0 B2 1.741384 1_555
B0 B8 1.741384 1_555
B0 B4 1.741384 1_555
B0 B6 1.741384 1_555
B0 Na0 3.027045 1_555
B0 Y0 3.027045 1_545
B0 Y0 3.027045 1_554
B0 Na0 3.027046 1_655
B1 B10 1.655115 1_655
B1 B3 1.741384 1_555
B1 B9 1.741384 1_555
B1 B5 1.741384 1_555
B1 B7 1.741384 1_555
B1 Y0 3.027045 1_555
B1 Na0 3.027045 1_656
B1 Na0 3.027045 1_665
B1 Y0 3.027046 1_655
B2 B7 1.655115 1_554
B2 B8 1.741384 1_555
B2 B4 1.741384 1_555
B2 Y0 3.027045 1_555
B2 Y0 3.027045 1_554
B2 Na0 3.027045 1_565
B2 Na0 3.027046 1_655
B3 B6 1.655115 1_665
B3 B9 1.741384 1_555
B3 B5 1.741384 1_555
B3 Na0 3.027045 1_666
B3 Na0 3.027045 1_665
B3 Y0 3.027045 1_565
B3 Y0 3.027046 1_655
B4 B9 1.655115 1_454
B4 B6 1.741384 1_555
B4 Na0 3.027045 1_555
B4 Na0 3.027045 1_565
B4 Y0 3.027045 1_554
B4 Y0 3.027046 1_455
B5 B8 1.655115 1_565
B5 B7 1.741384 1_555
B5 Y0 3.027045 1_555
B5 Y0 3.027045 1_565
B5 Na0 3.027045 1_665
B5 Na0 3.027046 1_566
B6 B8 1.741384 1_555
B6 Na0 3.027045 1_555
B6 Na0 3.027045 1_556
B6 Y0 3.027045 1_545
B6 Y0 3.027046 1_455
B7 B9 1.741384 1_555
B7 Y0 3.027045 1_555
B7 Y0 3.027045 1_556
B7 Na0 3.027045 1_656
B7 Na0 3.027046 1_566
B8 Y0 3.027045 1_555
B8 Y0 3.027045 1_545
B8 Na0 3.027045 1_556
B8 Na0 3.027046 1_655
B9 Na0 3.027045 1_666
B9 Na0 3.027045 1_656
B9 Y0 3.027045 1_556
B9 Y0 3.027046 1_655
B10 B6 1.741384 1_555
B10 B4 1.741384 1_555
B10 B8 1.741384 1_555
B10 B2 1.741384 1_555
B10 Y0 3.027045 1_555
B10 Na0 3.027045 1_565
B10 Na0 3.027045 1_556
B10 Y0 3.027046 1_455
B11 B7 1.741384 1_555
B11 B5 1.741384 1_555
B11 B9 1.741384 1_555
B11 B3 1.741384 1_555
B11 Na0 3.027045 1_666
B11 Y0 3.027045 1_565
B11 Y0 3.027045 1_556
B11 Na0 3.027046 1_566
