# generated using pymatgen
data_LiGeB6
_symmetry_space_group_name_H-M   'P 1'
_cell_length_a   6.37277004
_cell_length_b   6.37277059
_cell_length_c   8.43267206
_cell_angle_alpha   90.00473429
_cell_angle_beta   89.99526698
_cell_angle_gamma   122.32785211
_symmetry_Int_Tables_number   1
_chemical_formula_structural   LiGeB6
_chemical_formula_sum   'Li4 Ge4 B24'
_cell_volume   289.38729969
_cell_formula_units_Z   4
loop_
 _symmetry_equiv_pos_site_id
 _symmetry_equiv_pos_as_xyz
  1  'x, y, z'
loop_
 _atom_site_type_symbol
 _atom_site_label
 _atom_site_symmetry_multiplicity
 _atom_site_fract_x
 _atom_site_fract_y
 _atom_site_fract_z
 _atom_site_occupancy
  Li  Li0  1  0.32622242  0.67377758  0.66310008  1
  Li  Li1  1  0.82619245  0.17380755  0.83690565  1
  Li  Li2  1  0.17388373  0.82611627  0.16309430  1
  Li  Li3  1  0.67373189  0.32626811  0.33689840  1
  Ge  Ge0  1  0.33209535  0.66790465  0.38060654  1
  Ge  Ge1  1  0.66792562  0.33207438  0.61941658  1
  Ge  Ge2  1  0.16790926  0.83209074  0.88057274  1
  Ge  Ge3  1  0.83206067  0.16793933  0.11944053  1
  B  B0  1  0.30996668  0.15439478  0.53096872  1
  B  B1  1  0.84560522  0.69003332  0.53096872  1
  B  B2  1  0.85157393  0.14842607  0.55580424  1
  B  B3  1  0.09840869  0.90159131  0.64954108  1
  B  B4  1  0.12034012  0.19720798  0.66588539  1
  B  B5  1  0.80279202  0.87966088  0.66588539  1
  B  B6  1  0.30276623  0.37966307  0.83412844  1
  B  B7  1  0.62033693  0.69723377  0.83412844  1
  B  B8  1  0.59838990  0.40161010  0.85044254  1
  B  B9  1  0.35154761  0.64845239  0.94422297  1
  B  B10  1  0.34557497  0.19005062  0.96901233  1
  B  B11  1  0.80994938  0.65442403  0.96901233  1
  B  B12  1  0.19001813  0.34560203  0.03098176  1
  B  B13  1  0.65439797  0.80998187  0.03098176  1
  B  B14  1  0.64842202  0.35157798  0.05577433  1
  B  B15  1  0.40158975  0.59841025  0.14955754  1
  B  B16  1  0.37963704  0.30278011  0.16586168  1
  B  B17  1  0.69722089  0.62036196  0.16586168  1
  B  B18  1  0.19721997  0.12031540  0.33410699  1
  B  B19  1  0.87968460  0.80278003  0.33410699  1
  B  B20  1  0.90160794  0.09839206  0.35046589  1
  B  B21  1  0.14844722  0.85155278  0.44420319  1
  B  B22  1  0.15442331  0.30994493  0.46903339  1
  B  B23  1  0.69005507  0.84557669  0.46903339  1
loop_
_geom_bond_atom_site_label_1
_geom_bond_atom_site_label_2
_geom_bond_distance
_geom_bond_site_symmetry_2
Ge0 Li0 2.383072 1_555
Ge0 Li2 2.546624 1_555
Ge1 Li3 2.383259 1_555
Ge1 Li1 2.546911 1_555
Ge2 Li2 2.383352 1_556
Ge2 Li0 2.546930 1_555
Ge3 Li1 2.383431 1_554
Ge3 Li3 2.546962 1_555
B0 B3 1.757819 1_545
B0 B18 1.775528 1_555
B0 B4 1.783681 1_555
B0 B21 1.787389 1_545
B0 B22 1.813581 1_555
B0 Ge1 2.068765 1_555
B0 Li3 2.556550 1_555
B1 B3 1.757819 1_655
B1 B19 1.775528 1_555
B1 B5 1.783686 1_555
B1 B21 1.787389 1_655
B1 B23 1.813581 1_555
B1 Ge1 2.068765 1_555
B1 Li3 2.556550 1_555
B2 B22 1.787443 1_655
B2 B23 1.787443 1_545
B2 B20 1.819385 1_555
B2 B5 1.822825 1_545
B2 B4 1.822830 1_655
B2 Ge1 2.119415 1_555
B2 Li1 2.387289 1_555
B2 Li3 2.711271 1_555
B3 B4 1.818228 1_565
B3 B5 1.818230 1_455
B3 Ge2 2.097135 1_555
B3 Li0 2.546150 1_555
B4 B6 1.808479 1_555
B4 B5 1.952042 1_445
B4 Li1 2.305765 1_455
B4 Li0 2.585342 1_555
B5 B7 1.808481 1_555
B5 Li1 2.305760 1_565
B5 Li0 2.585341 1_555
B6 B8 1.818227 1_555
B6 B9 1.822896 1_555
B6 B7 1.952184 1_555
B6 Li0 2.305690 1_555
B6 Li1 2.585383 1_455
B7 B8 1.818227 1_555
B7 B9 1.822895 1_555
B7 Li0 2.305690 1_555
B7 Li1 2.585383 1_565
B8 Ge1 2.097099 1_555
B8 Li1 2.545996 1_555
B9 Ge2 2.119486 1_555
B9 Li0 2.387447 1_555
B9 Li2 2.709361 1_556
B10 B8 1.757822 1_555
B10 B16 1.775326 1_556
B10 B6 1.783578 1_555
B10 B14 1.787462 1_556
B10 B12 1.813648 1_556
B10 Ge2 2.068680 1_545
B10 Li2 2.557539 1_546
B11 B8 1.757818 1_555
B11 B17 1.775324 1_556
B11 B7 1.783582 1_555
B11 B14 1.787457 1_556
B11 B13 1.813654 1_556
B11 Ge2 2.068680 1_655
B11 Li2 2.557538 1_656
B12 B15 1.757850 1_555
B12 B6 1.775398 1_554
B12 B16 1.783632 1_555
B12 B9 1.787467 1_554
B12 Ge3 2.068727 1_455
B12 Li1 2.557000 1_454
B13 B15 1.757850 1_555
B13 B7 1.775398 1_554
B13 B17 1.783640 1_555
B13 B9 1.787467 1_554
B13 Ge3 2.068727 1_565
B13 Li1 2.557000 1_564
B14 B8 1.819426 1_554
B14 B17 1.822799 1_555
B14 B16 1.822806 1_555
B14 Ge3 2.119523 1_555
B14 Li3 2.387437 1_555
B14 Li1 2.710217 1_554
B15 B16 1.818245 1_555
B15 B17 1.818254 1_555
B15 B9 1.819483 1_554
B15 Ge0 2.097109 1_555
B15 Li2 2.544919 1_555
B16 B18 1.808495 1_555
B16 B17 1.952259 1_555
B16 Li3 2.305562 1_555
B16 Li2 2.585980 1_545
B17 B19 1.808495 1_555
B17 Li3 2.305555 1_555
B17 Li2 2.585973 1_655
B18 B22 1.783694 1_555
B18 B20 1.818232 1_455
B18 B21 1.822895 1_545
B18 B19 1.951967 1_445
B18 Li2 2.306132 1_545
B18 Li3 2.584956 1_555
B19 B23 1.783694 1_555
B19 B20 1.818232 1_565
B19 B21 1.822894 1_655
B19 Li2 2.306132 1_655
B19 Li3 2.584956 1_555
B20 B22 1.757825 1_655
B20 B23 1.757825 1_545
B20 Ge3 2.097278 1_555
B20 Li3 2.546849 1_555
B21 B3 1.819397 1_555
B21 Ge0 2.119379 1_555
B21 Li2 2.387425 1_555
B21 Li0 2.710673 1_555
B22 B4 1.775428 1_555
B22 Ge0 2.068707 1_555
B22 Li0 2.556848 1_555
B23 B5 1.775427 1_555
B23 Ge0 2.068707 1_555
B23 Li0 2.556848 1_555
