# generated using pymatgen
data_TiMn(SiTc2)2
_symmetry_space_group_name_H-M   'P 1'
_cell_length_a   7.33056202
_cell_length_b   7.33056200
_cell_length_c   7.33056087
_cell_angle_alpha   33.52661450
_cell_angle_beta   33.52661588
_cell_angle_gamma   33.52661720
_symmetry_Int_Tables_number   1
_chemical_formula_structural   TiMn(SiTc2)2
_chemical_formula_sum   'Ti1 Mn1 Si2 Tc4'
_cell_volume   107.03382857
_cell_formula_units_Z   1
loop_
 _symmetry_equiv_pos_site_id
 _symmetry_equiv_pos_as_xyz
  1  'x, y, z'
loop_
 _atom_site_type_symbol
 _atom_site_label
 _atom_site_symmetry_multiplicity
 _atom_site_fract_x
 _atom_site_fract_y
 _atom_site_fract_z
 _atom_site_occupancy
  Ti  Ti0  1  0.50000000  0.50000000  0.50000000  1
  Mn  Mn0  1  0.00000000  0.00000000  0.00000000  1
  Si  Si0  1  0.24773655  0.24773655  0.24773655  1
  Si  Si1  1  0.75226345  0.75226345  0.75226345  1
  Tc  Tc0  1  0.62808469  0.62808469  0.62808469  1
  Tc  Tc1  1  0.12233588  0.12233588  0.12233588  1
  Tc  Tc2  1  0.87766412  0.87766412  0.87766412  1
  Tc  Tc3  1  0.37191531  0.37191531  0.37191531  1
loop_
_geom_bond_atom_site_label_1
_geom_bond_atom_site_label_2
_geom_bond_distance
_geom_bond_site_symmetry_2
Mn0 Tc1 2.536789 1_555
Mn0 Tc2 2.536789 1_444
Mn0 Tc3 2.569097 1_545
Mn0 Tc0 2.569097 1_454
Mn0 Tc3 2.569097 1_554
Mn0 Tc0 2.569097 1_445
Mn0 Tc3 2.569097 1_455
Mn0 Tc0 2.569097 1_544
Mn0 Si1 3.018387 1_445
Mn0 Si0 3.018387 1_554
Mn0 Si1 3.018388 1_454
Mn0 Si0 3.018388 1_545
Mn0 Si1 3.018388 1_544
Mn0 Si0 3.018388 1_455
Si0 Tc2 2.557455 1_454
Si0 Tc2 2.557455 1_445
Si0 Tc2 2.557455 1_544
Si0 Tc3 2.575003 1_555
Si0 Tc1 2.600341 1_555
Si0 Tc0 2.628810 1_545
Si0 Tc0 2.628810 1_455
Si0 Tc0 2.628810 1_554
Si0 Ti0 2.964159 1_554
Si0 Ti0 2.964159 1_545
Si0 Ti0 2.964159 1_455
Si1 Tc1 2.557455 1_656
Si1 Tc1 2.557455 1_665
Si1 Tc1 2.557455 1_566
Si1 Tc0 2.575003 1_555
Si1 Tc2 2.600341 1_555
Si1 Tc3 2.628810 1_565
Si1 Tc3 2.628810 1_655
Si1 Tc3 2.628810 1_556
Si1 Ti0 2.964159 1_556
Si1 Ti0 2.964159 1_565
Si1 Ti0 2.964159 1_655
Tc0 Ti0 2.655998 1_555
Tc1 Ti0 2.608681 1_545
Tc1 Ti0 2.608681 1_455
Tc1 Ti0 2.608681 1_554
Tc2 Ti0 2.608681 1_565
Tc2 Ti0 2.608681 1_655
Tc2 Ti0 2.608681 1_556
Tc3 Ti0 2.655998 1_555
