# generated using pymatgen
data_NbPt5Rh3
_symmetry_space_group_name_H-M   'P 1'
_cell_length_a   6.22414587
_cell_length_b   6.22414530
_cell_length_c   6.17798658
_cell_angle_alpha   95.64619231
_cell_angle_beta   95.64618482
_cell_angle_gamma   143.58020109
_symmetry_Int_Tables_number   1
_chemical_formula_structural   NbPt5Rh3
_chemical_formula_sum   'Nb1 Pt5 Rh3'
_cell_volume   134.86670087
_cell_formula_units_Z   1
loop_
 _symmetry_equiv_pos_site_id
 _symmetry_equiv_pos_as_xyz
  1  'x, y, z'
loop_
 _atom_site_type_symbol
 _atom_site_label
 _atom_site_symmetry_multiplicity
 _atom_site_fract_x
 _atom_site_fract_y
 _atom_site_fract_z
 _atom_site_occupancy
  Nb  Nb0  1  0.00246045  0.99753955  1.00000000  1
  Pt  Pt0  1  0.33667646  0.66332354  1.00000000  1
  Pt  Pt1  1  0.00220125  0.32963661  0.33183585  1
  Pt  Pt2  1  0.99810590  0.67214712  0.67025402  1
  Pt  Pt3  1  0.67036339  0.99779875  0.66816415  1
  Pt  Pt4  1  0.32785288  0.00189410  0.32974598  1
  Rh  Rh0  1  0.33851945  0.33677403  0.67529348  1
  Rh  Rh1  1  0.66322597  0.66148055  0.32470652  1
  Rh  Rh2  1  0.66059326  0.33940674  0.00000000  1
loop_
_geom_bond_atom_site_label_1
_geom_bond_atom_site_label_2
_geom_bond_distance
_geom_bond_site_symmetry_2
Nb0 Rh2 2.698091 1_456
Nb0 Rh2 2.698091 1_566
Nb0 Pt2 2.709525 1_455
Nb0 Pt4 2.709526 1_566
Nb0 Rh0 2.721915 1_565
Nb0 Rh1 2.721915 1_456
Nb0 Rh1 2.721916 1_566
Nb0 Rh0 2.721916 1_455
Nb0 Pt0 2.761564 1_565
Nb0 Pt0 2.761565 1_455
Nb0 Pt1 2.765427 1_566
Nb0 Pt3 2.765427 1_455
Pt0 Rh0 2.719391 1_555
Pt0 Rh1 2.719392 1_556
Pt0 Pt3 2.751257 1_555
Pt0 Pt1 2.751257 1_556
Pt0 Pt1 2.751264 1_666
Pt0 Pt3 2.751264 1_445
Pt0 Pt4 2.820882 1_566
Pt0 Pt2 2.820882 1_455
Pt0 Rh2 2.849309 1_566
Pt0 Rh2 2.849309 1_456
Pt1 Rh1 2.751878 1_555
Pt1 Rh1 2.751883 1_445
Pt1 Pt3 2.769945 1_555
Pt1 Pt3 2.769955 1_445
Pt1 Rh0 2.800715 1_555
Pt1 Pt4 2.825399 1_565
Pt1 Pt4 2.825402 1_455
Pt1 Rh2 2.846442 1_455
Pt1 Pt2 2.852628 1_455
Pt2 Rh0 2.731027 1_555
Pt2 Rh0 2.731029 1_665
Pt2 Rh2 2.742746 1_556
Pt2 Rh2 2.742750 1_666
Pt2 Pt4 2.787451 1_555
Pt2 Pt4 2.787456 1_665
Pt2 Rh1 2.789276 1_555
Pt2 Pt3 2.825399 1_655
Pt2 Pt3 2.825401 1_545
Pt3 Rh0 2.751877 1_555
Pt3 Rh0 2.751883 1_665
Pt3 Rh1 2.800715 1_555
Pt3 Rh2 2.846442 1_566
Pt3 Pt4 2.852629 1_565
Pt4 Rh1 2.731026 1_555
Pt4 Rh1 2.731029 1_445
Pt4 Rh2 2.742746 1_555
Pt4 Rh2 2.742750 1_445
Pt4 Rh0 2.789275 1_555
Rh0 Rh2 2.681860 1_556
Rh0 Rh1 2.830088 1_555
Rh0 Rh1 2.830089 1_445
Rh1 Rh2 2.681860 1_555
