# generated using pymatgen
data_Sr3Ca5(TaN3)4
_symmetry_space_group_name_H-M   'P 1'
_cell_length_a   6.25811384
_cell_length_b   6.32428343
_cell_length_c   13.02952466
_cell_angle_alpha   90.47337921
_cell_angle_beta   89.46642638
_cell_angle_gamma   126.49004790
_symmetry_Int_Tables_number   1
_chemical_formula_structural   Sr3Ca5(TaN3)4
_chemical_formula_sum   'Sr3 Ca5 Ta4 N12'
_cell_volume   414.56875062
_cell_formula_units_Z   1
loop_
 _symmetry_equiv_pos_site_id
 _symmetry_equiv_pos_as_xyz
  1  'x, y, z'
loop_
 _atom_site_type_symbol
 _atom_site_label
 _atom_site_symmetry_multiplicity
 _atom_site_fract_x
 _atom_site_fract_y
 _atom_site_fract_z
 _atom_site_occupancy
  Sr  Sr0  1  0.52399763  0.92556633  0.63406140  1
  Sr  Sr1  1  0.47323596  0.07486898  0.37139902  1
  Sr  Sr2  1  0.66167300  0.90029852  0.06476091  1
  Ca  Ca0  1  0.97362389  0.59620910  0.11545676  1
  Ca  Ca1  1  0.17320608  0.40365642  0.44267191  1
  Ca  Ca2  1  0.33500935  0.09443387  0.93414297  1
  Ca  Ca3  1  0.82757898  0.59531501  0.55955178  1
  Ca  Ca4  1  0.03649082  0.41814731  0.87934550  1
  Ta  Ta0  1  0.81792614  0.78146995  0.33377167  1
  Ta  Ta1  1  0.30306043  0.28373607  0.16772195  1
  Ta  Ta2  1  0.18292035  0.21465101  0.66890573  1
  Ta  Ta3  1  0.69324157  0.71318557  0.83035092  1
  N  N0  1  0.36108681  0.36530075  0.80319100  1
  N  N1  1  0.64163622  0.61557197  0.20134390  1
  N  N2  1  0.87504580  0.85397710  0.69816838  1
  N  N3  1  0.11716020  0.14241304  0.30001065  1
  N  N4  1  0.04911403  0.40110330  0.62229388  1
  N  N5  1  0.59033412  0.93342217  0.87351855  1
  N  N6  1  0.96101119  0.60666662  0.38441590  1
  N  N7  1  0.38391002  0.05422881  0.11604667  1
  N  N8  1  0.88310596  0.67664219  0.93767465  1
  N  N9  1  0.62062321  0.80144922  0.44298571  1
  N  N10  1  0.13683618  0.35029645  0.06001977  1
  N  N11  1  0.37817209  0.19739225  0.55818842  1
loop_
_geom_bond_atom_site_label_1
_geom_bond_atom_site_label_2
_geom_bond_distance
_geom_bond_site_symmetry_2
Ca0 N10 2.416760 1_655
Ca0 N1 2.416781 1_555
Ca0 N7 2.477376 1_665
Ca0 N8 2.516359 1_554
Ca1 N3 2.362213 1_555
Ca1 N9 2.406453 1_555
Ca1 N4 2.456139 1_555
Ca1 N6 2.459803 1_455
Ca1 N11 2.769635 1_555
Ca2 N0 2.362839 1_555
Ca2 N7 2.427299 1_556
Ca2 N8 2.468525 1_445
Ca2 N5 2.472319 1_545
Ca2 N10 3.025152 1_556
Ca3 N2 2.325833 1_555
Ca3 N6 2.409479 1_555
Ca3 N11 2.413603 1_555
Ca3 N4 2.482334 1_655
Ca3 N9 2.785892 1_555
Ca4 N0 2.446865 1_555
Ca4 N8 2.450275 1_455
Ca4 N10 2.546565 1_556
Ca4 N5 2.649356 1_445
Ca4 N5 3.033793 1_555
N0 Ta3 1.961657 1_555
N0 Ta2 1.989373 1_555
N1 Ta1 1.949110 1_555
N1 Ta0 1.980916 1_555
N1 Sr2 2.491079 1_555
N2 Ta2 1.958109 1_665
N2 Ta3 1.958948 1_555
N2 Sr0 2.636755 1_555
N3 Ta0 1.956557 1_445
N3 Ta1 1.968424 1_555
N3 Sr1 2.681524 1_555
N4 Ta2 1.912121 1_555
N4 Sr0 2.847995 1_445
N4 Sr0 2.851884 1_555
N5 Ta3 1.928280 1_555
N5 Sr2 2.567650 1_556
N5 Sr0 3.147431 1_555
N6 Ta0 1.913066 1_555
N6 Sr1 2.789463 1_665
N6 Sr1 2.906519 1_555
N7 Ta1 1.914960 1_555
N7 Sr2 2.529049 1_545
N8 Ta3 1.945139 1_555
N8 Sr2 2.985428 1_556
N9 Ta0 1.927530 1_555
N9 Sr1 2.578853 1_565
N9 Sr0 2.772047 1_555
N10 Ta1 1.945855 1_555
N10 Sr2 2.622927 1_445
N10 Sr2 3.050058 1_555
N11 Ta2 1.925939 1_555
N11 Sr0 2.583847 1_545
N11 Sr1 2.714366 1_555
