# generated using pymatgen
data_Rb2As2WO9
_symmetry_space_group_name_H-M   'P 1'
_cell_length_a   7.53903010
_cell_length_b   7.51982641
_cell_length_c   9.11543698
_cell_angle_alpha   110.30318232
_cell_angle_beta   102.63895907
_cell_angle_gamma   87.39363720
_symmetry_Int_Tables_number   1
_chemical_formula_structural   Rb2As2WO9
_chemical_formula_sum   'Rb4 As4 W2 O18'
_cell_volume   472.66060396
_cell_formula_units_Z   2
loop_
 _symmetry_equiv_pos_site_id
 _symmetry_equiv_pos_as_xyz
  1  'x, y, z'
loop_
 _atom_site_type_symbol
 _atom_site_label
 _atom_site_symmetry_multiplicity
 _atom_site_fract_x
 _atom_site_fract_y
 _atom_site_fract_z
 _atom_site_occupancy
  Rb  Rb0  1  0.92397323  0.26176697  0.63960946  1
  Rb  Rb1  1  0.18729471  0.82797514  0.87143578  1
  Rb  Rb2  1  0.07602677  0.73823303  0.36039054  1
  Rb  Rb3  1  0.81270529  0.17202486  0.12856422  1
  As  As0  1  0.31825962  0.34160305  0.09175765  1
  As  As1  1  0.68174038  0.65839695  0.90824235  1
  As  As2  1  0.66940514  0.82109081  0.63714026  1
  As  As3  1  0.33059486  0.17890919  0.36285974  1
  W  W0  1  0.43217683  0.23522271  0.74407468  1
  W  W1  1  0.56782317  0.76477729  0.25592532  1
  O  O0  1  0.72710224  0.95519956  0.34846697  1
  O  O1  1  0.48810357  0.23893439  0.54149055  1
  O  O2  1  0.28936213  0.42789333  0.77604330  1
  O  O3  1  0.71063787  0.57210667  0.22395670  1
  O  O4  1  0.66081894  0.05471574  0.74429369  1
  O  O5  1  0.33007416  0.57977324  0.15014609  1
  O  O6  1  0.51189643  0.76106561  0.45850945  1
  O  O7  1  0.56360919  0.70452982  0.73486234  1
  O  O8  1  0.33918106  0.94528426  0.25570631  1
  O  O9  1  0.11334325  0.24177223  0.02137571  1
  O  O10  1  0.88665675  0.75822777  0.97862429  1
  O  O11  1  0.87431919  0.74667437  0.61743835  1
  O  O12  1  0.46143324  0.23063760  0.96604442  1
  O  O13  1  0.43639081  0.29547018  0.26513766  1
  O  O14  1  0.27289776  0.04480044  0.65153303  1
  O  O15  1  0.66992584  0.42022676  0.84985391  1
  O  O16  1  0.12568081  0.25332563  0.38256165  1
  O  O17  1  0.53856676  0.76936240  0.03395558  1
loop_
_geom_bond_atom_site_label_1
_geom_bond_atom_site_label_2
_geom_bond_distance
_geom_bond_site_symmetry_2
As0 O9 1.642955 1_555
As0 O5 1.682595 1_555
As0 O12 1.723461 1_554
As0 O13 1.774180 1_555
As1 O10 1.642955 1_555
As1 O15 1.682595 1_555
As1 O17 1.723461 1_556
As1 O7 1.774180 1_555
As2 O11 1.644694 1_555
As2 O4 1.694440 1_565
As2 O6 1.719799 1_555
As2 O7 1.764733 1_555
As3 O16 1.644694 1_555
As3 O8 1.694440 1_545
As3 O1 1.719799 1_555
As3 O13 1.764733 1_555
O0 W1 1.754658 1_555
O0 Rb0 2.983661 1_565
O0 Rb2 3.033346 1_655
O0 Rb3 3.165912 1_565
O1 W0 1.991535 1_555
O1 Rb0 3.207185 1_555
O2 W0 1.745211 1_555
O2 Rb0 2.903639 1_455
O2 Rb1 2.943866 1_555
O3 W1 1.745211 1_555
O3 Rb2 2.903639 1_655
O3 Rb3 2.943866 1_555
O4 W0 2.145074 1_555
O4 Rb0 3.067774 1_555
O4 Rb3 3.248260 1_556
O5 W1 2.148814 1_555
O5 Rb2 2.928299 1_555
O6 W1 1.991535 1_555
O6 Rb2 3.207185 1_555
O7 Rb1 3.311267 1_555
O8 W1 2.145074 1_555
O8 Rb2 3.067774 1_555
O8 Rb1 3.248260 1_554
O9 Rb3 2.792799 1_455
O9 Rb1 3.014249 1_544
O9 Rb0 3.512895 1_454
O10 Rb1 2.792799 1_655
O10 Rb3 3.014249 1_566
O10 Rb2 3.512895 1_656
O11 Rb1 2.839005 1_655
O11 Rb2 3.042022 1_655
O12 W0 1.999053 1_555
O12 Rb3 2.834128 1_556
O12 Rb1 3.487208 1_545
O13 Rb3 3.311267 1_555
O14 W0 1.754658 1_555
O14 Rb2 2.983661 1_545
O14 Rb0 3.033346 1_455
O14 Rb1 3.165912 1_545
O15 W0 2.148814 1_555
O15 Rb0 2.928299 1_555
O16 Rb3 2.839005 1_455
O16 Rb0 3.042022 1_455
O17 W1 1.999053 1_555
O17 Rb1 2.834128 1_554
O17 Rb3 3.487208 1_565
