# generated using pymatgen
data_K2Rb6SnSb4
_symmetry_space_group_name_H-M   'P 1'
_cell_length_a   11.93110691
_cell_length_b   11.93110654
_cell_length_c   11.93110626
_cell_angle_alpha   59.99999805
_cell_angle_beta   59.99999907
_cell_angle_gamma   59.99999836
_symmetry_Int_Tables_number   1
_chemical_formula_structural   K2Rb6SnSb4
_chemical_formula_sum   'K4 Rb12 Sn2 Sb8'
_cell_volume   1200.95618133
_cell_formula_units_Z   2
loop_
 _symmetry_equiv_pos_site_id
 _symmetry_equiv_pos_as_xyz
  1  'x, y, z'
loop_
 _atom_site_type_symbol
 _atom_site_label
 _atom_site_symmetry_multiplicity
 _atom_site_fract_x
 _atom_site_fract_y
 _atom_site_fract_z
 _atom_site_occupancy
  K  K0  1  0.62500000  0.12500000  0.62500000  1
  K  K1  1  0.62500000  0.62500000  0.12500000  1
  K  K2  1  0.12500000  0.62500000  0.62500000  1
  K  K3  1  0.62500000  0.62500000  0.62500000  1
  Rb  Rb0  1  0.02263836  0.02263836  0.47736164  1
  Rb  Rb1  1  0.77263836  0.22736164  0.22736164  1
  Rb  Rb2  1  0.22736164  0.77263836  0.77263836  1
  Rb  Rb3  1  0.77263836  0.77263836  0.22736164  1
  Rb  Rb4  1  0.77263836  0.22736164  0.77263836  1
  Rb  Rb5  1  0.22736164  0.77263836  0.22736164  1
  Rb  Rb6  1  0.47736164  0.02263836  0.47736164  1
  Rb  Rb7  1  0.47736164  0.02263836  0.02263836  1
  Rb  Rb8  1  0.02263836  0.47736164  0.47736164  1
  Rb  Rb9  1  0.02263836  0.47736164  0.02263836  1
  Rb  Rb10  1  0.22736164  0.22736164  0.77263836  1
  Rb  Rb11  1  0.47736164  0.47736164  0.02263836  1
  Sn  Sn0  1  0.75000000  0.75000000  0.75000000  1
  Sn  Sn1  1  0.50000000  0.50000000  0.50000000  1
  Sb  Sb0  1  0.40018061  0.79945717  0.40018061  1
  Sb  Sb1  1  0.84981939  0.84981939  0.45054283  1
  Sb  Sb2  1  0.45054283  0.84981939  0.84981939  1
  Sb  Sb3  1  0.84981939  0.84981939  0.84981939  1
  Sb  Sb4  1  0.79945717  0.40018061  0.40018061  1
  Sb  Sb5  1  0.40018061  0.40018061  0.40018061  1
  Sb  Sb6  1  0.40018061  0.40018061  0.79945717  1
  Sb  Sb7  1  0.84981939  0.45054283  0.84981939  1
loop_
_geom_bond_atom_site_label_1
_geom_bond_atom_site_label_2
_geom_bond_distance
_geom_bond_site_symmetry_2
K0 Sn0 3.653140 1_545
K0 Sn1 3.653140 1_555
K0 Sb6 3.840693 1_555
K0 Sb1 3.840693 1_545
K0 Sb4 3.840693 1_555
K0 Sb2 3.840693 1_545
K0 Sb3 3.840700 1_545
K0 Sb5 3.840700 1_555
K1 Sn1 3.653140 1_555
K1 Sn0 3.653140 1_554
K1 Sb4 3.840693 1_555
K1 Sb2 3.840693 1_554
K1 Sb0 3.840693 1_555
K1 Sb7 3.840693 1_554
K1 Sb3 3.840700 1_554
K1 Sb5 3.840700 1_555
K2 Sn0 3.653140 1_455
K2 Sn1 3.653140 1_555
K2 Sb6 3.840693 1_555
K2 Sb1 3.840693 1_455
K2 Sb0 3.840693 1_555
K2 Sb7 3.840693 1_455
K2 Sb3 3.840700 1_455
K2 Sb5 3.840700 1_555
K3 Sn0 3.653140 1_555
K3 Sn1 3.653140 1_555
K3 Sb2 3.840702 1_555
K3 Sb4 3.840702 1_555
K3 Sb7 3.840702 1_555
K3 Sb0 3.840702 1_555
K3 Sb1 3.840702 1_555
K3 Sb6 3.840702 1_555
Rb0 Sb1 3.765168 1_445
Rb0 Sb3 3.765175 1_445
Rb0 Sb4 3.812933 1_455
Rb0 Sb0 3.812933 1_545
Rb1 Sb4 3.765168 1_555
Rb1 Sb5 3.765175 1_555
Rb1 Sb7 3.812933 1_554
Rb1 Sb1 3.812933 1_545
Rb2 Sb0 3.765178 1_555
Rb2 Sb6 3.765178 1_555
Rb2 Sb3 3.812930 1_455
Rb2 Sb2 3.812941 1_555
Rb3 Sb4 3.765178 1_555
Rb3 Sb0 3.765178 1_555
Rb3 Sb3 3.812930 1_554
Rb3 Sb1 3.812941 1_555
Rb4 Sb4 3.765178 1_555
Rb4 Sb6 3.765178 1_555
Rb4 Sb3 3.812930 1_545
Rb4 Sb7 3.812941 1_555
Rb5 Sb0 3.765168 1_555
Rb5 Sb5 3.765175 1_555
Rb5 Sb2 3.812933 1_554
Rb5 Sb1 3.812933 1_455
Rb6 Sb2 3.765178 1_545
Rb6 Sb1 3.765178 1_545
Rb6 Sb5 3.812930 1_555
Rb6 Sb0 3.812941 1_545
Rb7 Sb2 3.765168 1_544
Rb7 Sb3 3.765175 1_544
Rb7 Sb0 3.812933 1_545
Rb7 Sb6 3.812933 1_554
Rb8 Sb7 3.765178 1_455
Rb8 Sb1 3.765178 1_455
Rb8 Sb5 3.812930 1_555
Rb8 Sb4 3.812941 1_455
Rb9 Sb7 3.765168 1_454
Rb9 Sb3 3.765175 1_454
Rb9 Sb4 3.812933 1_455
Rb9 Sb6 3.812933 1_554
Rb10 Sb6 3.765168 1_555
Rb10 Sb5 3.765175 1_555
Rb10 Sb2 3.812933 1_545
Rb10 Sb7 3.812933 1_455
Rb11 Sb2 3.765178 1_554
Rb11 Sb7 3.765178 1_554
Rb11 Sb5 3.812930 1_555
Rb11 Sb6 3.812941 1_554
Sb0 Sn1 2.917224 1_555
Sb1 Sn0 2.917224 1_555
Sb2 Sn0 2.917224 1_555
Sb3 Sn0 2.917234 1_555
Sb4 Sn1 2.917224 1_555
Sb5 Sn1 2.917234 1_555
Sb6 Sn1 2.917224 1_555
Sb7 Sn0 2.917224 1_555
