# generated using pymatgen
data_BaCoIO6
_symmetry_space_group_name_H-M   'P 1'
_cell_length_a   5.04679070
_cell_length_b   5.04679074
_cell_length_c   5.87844127
_cell_angle_alpha   90.00000000
_cell_angle_beta   90.00000000
_cell_angle_gamma   120.00000602
_symmetry_Int_Tables_number   1
_chemical_formula_structural   BaCoIO6
_chemical_formula_sum   'Ba1 Co1 I1 O6'
_cell_volume   129.66518431
_cell_formula_units_Z   1
loop_
 _symmetry_equiv_pos_site_id
 _symmetry_equiv_pos_as_xyz
  1  'x, y, z'
loop_
 _atom_site_type_symbol
 _atom_site_label
 _atom_site_symmetry_multiplicity
 _atom_site_fract_x
 _atom_site_fract_y
 _atom_site_fract_z
 _atom_site_occupancy
  Ba  Ba0  1  0.00000000  0.00000000  0.00000000  1
  Co  Co0  1  0.33333300  0.66666700  0.50000000  1
  I  I0  1  0.66666700  0.33333300  0.50000000  1
  O  O0  1  0.38203439  0.00335085  0.68120259  1
  O  O1  1  0.99664915  0.37868354  0.68120259  1
  O  O2  1  0.62131646  0.61796561  0.68120259  1
  O  O3  1  0.99664915  0.61796561  0.31879741  1
  O  O4  1  0.62131646  0.00335085  0.31879741  1
  O  O5  1  0.38203439  0.37868354  0.31879741  1
loop_
_geom_bond_atom_site_label_1
_geom_bond_atom_site_label_2
_geom_bond_distance
_geom_bond_site_symmetry_2
Ba0 O5 2.682731 1_555
Ba0 O2 2.682731 1_444
Ba0 O0 2.682731 1_554
Ba0 O4 2.682731 1_455
Ba0 O3 2.682731 1_445
Ba0 O1 2.682731 1_454
Co0 O3 1.914313 1_455
Co0 O0 1.914313 1_565
Co0 O1 1.914314 1_455
Co0 O4 1.914314 1_565
Co0 O2 1.914317 1_555
Co0 O5 1.914317 1_555
I0 O1 1.891890 1_555
I0 O4 1.891890 1_555
I0 O3 1.891891 1_555
I0 O0 1.891891 1_555
I0 O5 1.891894 1_555
I0 O2 1.891894 1_555
