# generated using pymatgen
data_Zr3Ti2BeSn3
_symmetry_space_group_name_H-M   'P 1'
_cell_length_a   8.43461061
_cell_length_b   8.43461059
_cell_length_c   5.71254884
_cell_angle_alpha   90.00000000
_cell_angle_beta   90.00000000
_cell_angle_gamma   120.00000008
_symmetry_Int_Tables_number   1
_chemical_formula_structural   Zr3Ti2BeSn3
_chemical_formula_sum   'Zr6 Ti4 Be2 Sn6'
_cell_volume   351.95783103
_cell_formula_units_Z   2
loop_
 _symmetry_equiv_pos_site_id
 _symmetry_equiv_pos_as_xyz
  1  'x, y, z'
loop_
 _atom_site_type_symbol
 _atom_site_label
 _atom_site_symmetry_multiplicity
 _atom_site_fract_x
 _atom_site_fract_y
 _atom_site_fract_z
 _atom_site_occupancy
  Zr  Zr0  1  0.25065522  0.00000000  0.75000000  1
  Zr  Zr1  1  0.74934478  0.00000000  0.25000000  1
  Zr  Zr2  1  0.00000000  0.25065522  0.75000000  1
  Zr  Zr3  1  0.00000000  0.74934478  0.25000000  1
  Zr  Zr4  1  0.74934478  0.74934478  0.75000000  1
  Zr  Zr5  1  0.25065522  0.25065522  0.25000000  1
  Ti  Ti0  1  0.33333300  0.66666700  0.50000000  1
  Ti  Ti1  1  0.66666700  0.33333300  0.50000000  1
  Ti  Ti2  1  0.66666700  0.33333300  0.00000000  1
  Ti  Ti3  1  0.33333300  0.66666700  0.00000000  1
  Be  Be0  1  0.00000000  0.00000000  0.50000000  1
  Be  Be1  1  0.00000000  0.00000000  0.00000000  1
  Sn  Sn0  1  0.60520269  0.00000000  0.75000000  1
  Sn  Sn1  1  0.39479731  0.00000000  0.25000000  1
  Sn  Sn2  1  0.00000000  0.60520269  0.75000000  1
  Sn  Sn3  1  0.00000000  0.39479731  0.25000000  1
  Sn  Sn4  1  0.39479731  0.39479731  0.75000000  1
  Sn  Sn5  1  0.60520269  0.60520269  0.25000000  1
loop_
_geom_bond_atom_site_label_1
_geom_bond_atom_site_label_2
_geom_bond_distance
_geom_bond_site_symmetry_2
Be0 Zr2 2.551339 1_555
Be0 Zr5 2.551339 1_555
Be0 Zr4 2.551339 1_445
Be0 Zr3 2.551339 1_545
Be0 Zr0 2.551339 1_555
Be0 Zr1 2.551339 1_455
Be1 Zr2 2.551339 1_554
Be1 Zr5 2.551339 1_555
Be1 Zr3 2.551339 1_545
Be1 Zr4 2.551339 1_444
Be1 Zr0 2.551339 1_554
Be1 Zr1 2.551339 1_455
Sn0 Zr2 2.918606 1_655
Sn0 Zr4 2.918606 1_545
Sn0 Ti1 2.958968 1_555
Sn0 Ti2 2.958968 1_556
Sn0 Ti3 2.958970 1_546
Sn0 Ti0 2.958970 1_545
Sn0 Zr0 2.990470 1_555
Sn0 Zr1 3.104260 1_555
Sn0 Zr1 3.104260 1_556
Sn1 Zr5 2.918606 1_555
Sn1 Zr3 2.918606 1_545
Sn1 Ti0 2.958968 1_545
Sn1 Ti3 2.958968 1_545
Sn1 Ti1 2.958970 1_555
Sn1 Ti2 2.958970 1_555
Sn1 Zr1 2.990470 1_555
Sn1 Zr0 3.104260 1_555
Sn1 Zr0 3.104260 1_554
Sn2 Zr0 2.918606 1_565
Sn2 Zr4 2.918606 1_455
Sn2 Ti3 2.958968 1_556
Sn2 Ti0 2.958968 1_555
Sn2 Ti2 2.958970 1_456
Sn2 Ti1 2.958970 1_455
Sn2 Zr2 2.990470 1_555
Sn2 Zr3 3.104260 1_555
Sn2 Zr3 3.104260 1_556
Sn3 Zr1 2.918606 1_455
Sn3 Zr5 2.918606 1_555
Sn3 Ti2 2.958968 1_455
Sn3 Ti1 2.958968 1_455
Sn3 Ti3 2.958970 1_555
Sn3 Ti0 2.958970 1_555
Sn3 Zr3 2.990470 1_555
Sn3 Zr2 3.104260 1_554
Sn3 Zr2 3.104260 1_555
Sn4 Zr0 2.918606 1_555
Sn4 Zr2 2.918606 1_555
Sn4 Ti3 2.958975 1_556
Sn4 Ti0 2.958975 1_555
Sn4 Ti1 2.958975 1_555
Sn4 Ti2 2.958975 1_556
Sn4 Zr4 2.990470 1_555
Sn4 Zr5 3.104260 1_556
Sn4 Zr5 3.104260 1_555
Sn5 Zr1 2.918606 1_565
Sn5 Zr3 2.918606 1_655
Sn5 Ti1 2.958975 1_555
Sn5 Ti2 2.958975 1_555
Sn5 Ti0 2.958975 1_555
Sn5 Ti3 2.958975 1_555
Sn5 Zr5 2.990470 1_555
Sn5 Zr4 3.104260 1_555
Sn5 Zr4 3.104260 1_554
