# generated using pymatgen
data_Mg2Hg
_symmetry_space_group_name_H-M   'P 1'
_cell_length_a   4.63206195
_cell_length_b   6.16307759
_cell_length_c   8.76472405
_cell_angle_alpha   90.00000000
_cell_angle_beta   90.00000000
_cell_angle_gamma   90.00000000
_symmetry_Int_Tables_number   1
_chemical_formula_structural   Mg2Hg
_chemical_formula_sum   'Mg8 Hg4'
_cell_volume   250.21321410
_cell_formula_units_Z   4
loop_
 _symmetry_equiv_pos_site_id
 _symmetry_equiv_pos_as_xyz
  1  'x, y, z'
loop_
 _atom_site_type_symbol
 _atom_site_label
 _atom_site_symmetry_multiplicity
 _atom_site_fract_x
 _atom_site_fract_y
 _atom_site_fract_z
 _atom_site_occupancy
  Mg  Mg0  1  0.25000000  0.95822631  0.70672764  1
  Mg  Mg1  1  0.75000000  0.04177369  0.29327236  1
  Mg  Mg2  1  0.25000000  0.45822631  0.79327236  1
  Mg  Mg3  1  0.75000000  0.54177369  0.20672764  1
  Mg  Mg4  1  0.75000000  0.17640991  0.94049501  1
  Mg  Mg5  1  0.25000000  0.82359009  0.05950499  1
  Mg  Mg6  1  0.75000000  0.67640991  0.55950499  1
  Mg  Mg7  1  0.25000000  0.32359009  0.44049501  1
  Hg  Hg0  1  0.25000000  0.78379988  0.38351578  1
  Hg  Hg1  1  0.75000000  0.21620012  0.61648422  1
  Hg  Hg2  1  0.25000000  0.28379988  0.11648422  1
  Hg  Hg3  1  0.75000000  0.71620012  0.88351578  1
loop_
_geom_bond_atom_site_label_1
_geom_bond_atom_site_label_2
_geom_bond_distance
_geom_bond_site_symmetry_2
Hg0 Mg5 2.850434 1_555
Hg0 Mg6 2.860305 1_455
Hg0 Mg6 2.860305 1_555
Hg0 Mg7 2.879940 1_555
Hg0 Mg1 2.918465 1_465
Hg0 Mg1 2.918465 1_565
Hg0 Mg0 3.029974 1_555
Hg0 Mg3 3.160680 1_455
Hg0 Mg3 3.160680 1_555
Hg0 Mg7 3.364045 1_565
Hg1 Mg4 2.850434 1_555
Hg1 Mg7 2.860305 1_655
Hg1 Mg7 2.860305 1_555
Hg1 Mg6 2.879940 1_555
Hg1 Mg0 2.918465 1_645
Hg1 Mg0 2.918465 1_545
Hg1 Mg1 3.029974 1_555
Hg1 Mg2 3.160680 1_555
Hg1 Mg2 3.160680 1_655
Hg1 Mg6 3.364045 1_545
Hg2 Mg7 2.850434 1_555
Hg2 Mg4 2.860305 1_554
Hg2 Mg4 2.860305 1_454
Hg2 Mg5 2.879940 1_545
Hg2 Mg3 2.918465 1_455
Hg2 Mg3 2.918465 1_555
Hg2 Mg2 3.029974 1_554
Hg2 Mg1 3.160680 1_455
Hg2 Mg1 3.160680 1_555
Hg2 Mg5 3.364045 1_555
Hg3 Mg6 2.850434 1_555
Hg3 Mg5 2.860305 1_556
Hg3 Mg5 2.860305 1_656
Hg3 Mg4 2.879940 1_565
Hg3 Mg2 2.918465 1_555
Hg3 Mg2 2.918465 1_655
Hg3 Mg3 3.029974 1_556
Hg3 Mg0 3.160680 1_655
Hg3 Mg0 3.160680 1_555
Hg3 Mg4 3.364045 1_555
