# generated using pymatgen
data_TmCuSe2
_symmetry_space_group_name_H-M   'P 1'
_cell_length_a   4.03660618
_cell_length_b   4.03660768
_cell_length_c   6.35245334
_cell_angle_alpha   90.00000000
_cell_angle_beta   90.00000000
_cell_angle_gamma   120.00001304
_symmetry_Int_Tables_number   1
_chemical_formula_structural   TmCuSe2
_chemical_formula_sum   'Tm1 Cu1 Se2'
_cell_volume   89.64064684
_cell_formula_units_Z   1
loop_
 _symmetry_equiv_pos_site_id
 _symmetry_equiv_pos_as_xyz
  1  'x, y, z'
loop_
 _atom_site_type_symbol
 _atom_site_label
 _atom_site_symmetry_multiplicity
 _atom_site_fract_x
 _atom_site_fract_y
 _atom_site_fract_z
 _atom_site_occupancy
  Tm  Tm0  1  -0.00000000  -0.00000000  0.79973785  1
  Cu  Cu0  1  0.66666700  0.33333300  0.18460803  1
  Se  Se0  1  0.33333300  0.66666700  0.07027579  1
  Se  Se1  1  0.66666700  0.33333300  0.56627832  1
loop_
_geom_bond_atom_site_label_1
_geom_bond_atom_site_label_2
_geom_bond_distance
_geom_bond_site_symmetry_2
Cu0 Se1 2.424543 1_555
Cu0 Se0 2.441082 1_655
Cu0 Se0 2.441083 1_545
Cu0 Se0 2.441090 1_555
Se0 Tm0 2.895670 1_564
Se0 Tm0 2.895672 1_664
Se0 Tm0 2.895673 1_554
Se1 Tm0 2.762390 1_655
Se1 Tm0 2.762392 1_555
Se1 Tm0 2.762393 1_665
