# generated using pymatgen
data_Al7Co4SiRu4
_symmetry_space_group_name_H-M   'P 1'
_cell_length_a   5.79794593
_cell_length_b   4.09916335
_cell_length_c   8.18938042
_cell_angle_alpha   90.00000000
_cell_angle_beta   89.99443805
_cell_angle_gamma   90.00000000
_symmetry_Int_Tables_number   1
_chemical_formula_structural   Al7Co4SiRu4
_chemical_formula_sum   'Al7 Co4 Si1 Ru4'
_cell_volume   194.63477169
_cell_formula_units_Z   1
loop_
 _symmetry_equiv_pos_site_id
 _symmetry_equiv_pos_as_xyz
  1  'x, y, z'
loop_
 _atom_site_type_symbol
 _atom_site_label
 _atom_site_symmetry_multiplicity
 _atom_site_fract_x
 _atom_site_fract_y
 _atom_site_fract_z
 _atom_site_occupancy
  Al  Al0  1  0.00175791  0.74999900  0.12492508  1
  Al  Al1  1  0.49988833  0.24999900  0.37957524  1
  Al  Al2  1  0.00000639  0.24999900  0.37311261  1
  Al  Al3  1  0.99824873  0.74999900  0.62493180  1
  Al  Al4  1  0.50067611  0.74999900  0.62495240  1
  Al  Al5  1  0.99999028  0.24999900  0.87696984  1
  Al  Al6  1  0.49990130  0.24999900  0.87045349  1
  Co  Co0  1  0.74290089  0.24999900  0.12502353  1
  Co  Co1  1  0.25348876  0.74999900  0.36958235  1
  Co  Co2  1  0.75107371  0.24999900  0.62501824  1
  Co  Co3  1  0.25347212  0.74999900  0.88043969  1
  Si  Si0  1  0.49904452  0.74999900  0.12501053  1
  Ru  Ru0  1  0.26052895  0.24999900  0.12505245  1
  Ru  Ru1  1  0.74561305  0.74999900  0.36900096  1
  Ru  Ru2  1  0.24786087  0.24999900  0.62501089  1
  Ru  Ru3  1  0.74554709  0.74999900  0.88094090  1
loop_
_geom_bond_atom_site_label_1
_geom_bond_atom_site_label_2
_geom_bond_distance
_geom_bond_site_symmetry_2
Al0 Co3 2.477518 1_554
Al0 Co1 2.478941 1_555
Al0 Ru3 2.489899 1_454
Al0 Ru1 2.490042 1_455
Al0 Ru0 2.540041 1_565
Al0 Ru0 2.540041 1_555
Al0 Co0 2.540335 1_465
Al0 Co0 2.540335 1_455
Al1 Co2 2.482288 1_555
Al1 Ru2 2.484878 1_555
Al1 Ru1 2.497604 1_545
Al1 Ru1 2.497604 1_555
Al1 Co1 2.499687 1_545
Al1 Co1 2.499687 1_555
Al1 Ru0 2.504234 1_555
Al1 Co0 2.516005 1_555
Al2 Ru2 2.514199 1_555
Al2 Co2 2.517598 1_455
Al2 Co0 2.520023 1_455
Al2 Co1 2.522214 1_545
Al2 Co1 2.522214 1_555
Al2 Ru1 2.525358 1_445
Al2 Ru1 2.525358 1_455
Al2 Ru0 2.531369 1_555
Al3 Co2 2.500916 1_555
Al3 Co2 2.500916 1_565
Al3 Ru2 2.509040 1_655
Al3 Ru2 2.509040 1_665
Al3 Ru1 2.557147 1_555
Al3 Ru3 2.557658 1_555
Al3 Co1 2.561705 1_655
Al3 Co3 2.562943 1_655
Al4 Co2 2.511670 1_565
Al4 Co2 2.511670 1_555
Al4 Ru2 2.519798 1_555
Al4 Ru2 2.519798 1_565
Al4 Ru1 2.531751 1_555
Al4 Ru3 2.532016 1_555
Al4 Co1 2.535392 1_555
Al4 Co3 2.536009 1_555
Al5 Ru2 2.514431 1_655
Al5 Co2 2.518082 1_555
Al5 Co0 2.519500 1_556
Al5 Co3 2.522210 1_645
Al5 Co3 2.522210 1_655
Al5 Ru3 2.525508 1_545
Al5 Ru3 2.525508 1_555
Al5 Ru0 2.531807 1_656
Al6 Co2 2.481964 1_555
Al6 Ru2 2.485198 1_555
Al6 Ru3 2.497328 1_545
Al6 Ru3 2.497328 1_555
Al6 Co3 2.499774 1_545
Al6 Co3 2.499774 1_555
Al6 Ru0 2.504570 1_556
Al6 Co0 2.516314 1_556
Co0 Si0 2.489940 1_545
Co0 Si0 2.489940 1_555
Co0 Ru0 2.796766 1_555
Co0 Ru1 2.862366 1_545
Co0 Ru1 2.862366 1_555
Co0 Ru3 2.862963 1_544
Co0 Ru3 2.862963 1_554
Co0 Ru0 3.001180 1_655
Co1 Si0 2.457234 1_555
Co1 Ru1 2.853314 1_555
Co1 Ru0 2.865770 1_565
Co1 Ru0 2.865770 1_555
Co1 Ru2 2.928732 1_565
Co1 Ru2 2.928732 1_555
Co1 Ru1 2.944640 1_455
Co3 Si0 2.457508 1_556
Co3 Ru3 2.853027 1_555
Co3 Ru0 2.866251 1_556
Co3 Ru0 2.866251 1_566
Co3 Ru2 2.928737 1_565
Co3 Ru2 2.928737 1_555
Co3 Ru3 2.944924 1_455
Ru0 Si0 2.472488 1_545
Ru0 Si0 2.472488 1_555
Ru1 Si0 2.456992 1_555
Ru3 Si0 2.457071 1_556
