# generated using pymatgen
data_B12SeS
_symmetry_space_group_name_H-M   'P 1'
_cell_length_a   5.38118252
_cell_length_b   5.38118288
_cell_length_c   5.38118322
_cell_angle_alpha   67.73977353
_cell_angle_beta   67.73977131
_cell_angle_gamma   67.73977987
_symmetry_Int_Tables_number   1
_chemical_formula_structural   B12SeS
_chemical_formula_sum   'B12 Se1 S1'
_cell_volume   128.32713306
_cell_formula_units_Z   1
loop_
 _symmetry_equiv_pos_site_id
 _symmetry_equiv_pos_as_xyz
  1  'x, y, z'
loop_
 _atom_site_type_symbol
 _atom_site_label
 _atom_site_symmetry_multiplicity
 _atom_site_fract_x
 _atom_site_fract_y
 _atom_site_fract_z
 _atom_site_occupancy
  B  B0  1  0.01379399  0.01379399  0.31874022  1
  B  B1  1  0.31874022  0.01379399  0.01379399  1
  B  B2  1  0.28024149  0.81552827  0.81552827  1
  B  B3  1  0.81552827  0.81552827  0.28024149  1
  B  B4  1  0.81552827  0.28024149  0.81552827  1
  B  B5  1  0.17476624  0.71955419  0.17476624  1
  B  B6  1  0.71955419  0.17476624  0.17476624  1
  B  B7  1  0.17476624  0.17476624  0.71955419  1
  B  B8  1  0.67055003  0.98357758  0.98357758  1
  B  B9  1  0.98357758  0.98357758  0.67055003  1
  B  B10  1  0.98357758  0.67055003  0.98357758  1
  B  B11  1  0.01379399  0.31874022  0.01379399  1
  Se  Se0  1  0.39853589  0.39853589  0.39853589  1
  S  S0  1  0.63704702  0.63704702  0.63704702  1
loop_
_geom_bond_atom_site_label_1
_geom_bond_atom_site_label_2
_geom_bond_distance
_geom_bond_site_symmetry_2
B0 B9 1.786197 1_445
B0 B6 1.799840 1_455
B0 B5 1.799840 1_545
B0 B1 1.829056 1_555
B0 B11 1.829056 1_555
B0 B3 1.875313 1_445
B1 B8 1.786197 1_544
B1 B5 1.799840 1_545
B1 B7 1.799840 1_554
B1 B11 1.829056 1_555
B1 B2 1.875313 1_544
B2 B5 1.720542 1_556
B2 B7 1.720542 1_565
B2 B9 1.813904 1_455
B2 S0 1.853658 1_555
B3 B5 1.720542 1_655
B3 B6 1.720542 1_565
B3 B8 1.813904 1_554
B3 S0 1.853658 1_555
B4 B7 1.720542 1_655
B4 B6 1.720542 1_556
B4 B8 1.813904 1_545
B4 B9 1.813904 1_545
B4 S0 1.853658 1_555
B5 Se0 1.957212 1_555
B6 B8 1.843774 1_544
B6 Se0 1.957212 1_555
B7 B9 1.843774 1_445
B7 Se0 1.957212 1_555
B8 B9 1.877527 1_555
B10 B11 1.786197 1_656
B10 B2 1.813904 1_655
B10 B3 1.813904 1_556
B10 B5 1.843774 1_656
B10 B9 1.877527 1_555
B10 B8 1.877527 1_555
B11 B6 1.799840 1_455
B11 B7 1.799840 1_554
B11 B4 1.875313 1_454
