# generated using pymatgen
data_Zr6Zn21CoCu2
_symmetry_space_group_name_H-M   'P 1'
_cell_length_a   8.63816960
_cell_length_b   8.66584585
_cell_length_c   8.63818122
_cell_angle_alpha   59.89375384
_cell_angle_beta   60.03795264
_cell_angle_gamma   59.89369944
_symmetry_Int_Tables_number   1
_chemical_formula_structural   Zr6Zn21CoCu2
_chemical_formula_sum   'Zr6 Zn21 Co1 Cu2'
_cell_volume   456.63008551
_cell_formula_units_Z   1
loop_
 _symmetry_equiv_pos_site_id
 _symmetry_equiv_pos_as_xyz
  1  'x, y, z'
loop_
 _atom_site_type_symbol
 _atom_site_label
 _atom_site_symmetry_multiplicity
 _atom_site_fract_x
 _atom_site_fract_y
 _atom_site_fract_z
 _atom_site_occupancy
  Zr  Zr0  1  0.70060556  0.30087616  0.29939544  1
  Zr  Zr1  1  0.29939444  0.69912384  0.70060456  1
  Zr  Zr2  1  0.29874287  0.70125813  0.29874187  1
  Zr  Zr3  1  0.70125713  0.29874187  0.70125813  1
  Zr  Zr4  1  0.29939544  0.30087616  0.70060556  1
  Zr  Zr5  1  0.70060456  0.69912384  0.29939444  1
  Zn  Zn0  1  0.12048841  0.11961221  0.12048841  1
  Zn  Zn1  1  0.87951159  0.88038779  0.87951159  1
  Zn  Zn2  1  0.12808300  0.11674238  0.63843424  1
  Zn  Zn3  1  0.12048841  0.63941196  0.12048841  1
  Zn  Zn4  1  0.87191700  0.88325762  0.36156576  1
  Zn  Zn5  1  0.87951159  0.36058804  0.87951159  1
  Zn  Zn6  1  0.63843524  0.11674238  0.12808200  1
  Zn  Zn7  1  0.36156476  0.88325762  0.87191800  1
  Zn  Zn8  1  0.50000000  0.00000000  0.00000000  1
  Zn  Zn9  1  0.00000000  0.50000000  0.50000000  1
  Zn  Zn10  1  0.00000000  0.50000000  0.00000000  1
  Zn  Zn11  1  0.00000000  0.00000000  0.50000000  1
  Zn  Zn12  1  0.50000000  0.50000000  0.00000000  1
  Zn  Zn13  1  0.33314532  0.32665908  0.33314532  1
  Zn  Zn14  1  0.66685468  0.67334092  0.66685468  1
  Zn  Zn15  1  0.33099025  0.32970201  0.00960572  1
  Zn  Zn16  1  0.33314532  0.00705129  0.33314532  1
  Zn  Zn17  1  0.66900975  0.67029799  0.99039428  1
  Zn  Zn18  1  0.66685468  0.99294871  0.66685468  1
  Zn  Zn19  1  0.00960472  0.32970301  0.33099025  1
  Zn  Zn20  1  0.99039528  0.67029699  0.66900975  1
  Co  Co0  1  0.50000000  0.50000000  0.50000000  1
  Cu  Cu0  1  0.50000000  0.00000000  0.50000000  1
  Cu  Cu1  1  0.00000000  0.00000000  0.00000000  1
loop_
_geom_bond_atom_site_label_1
_geom_bond_atom_site_label_2
_geom_bond_distance
_geom_bond_site_symmetry_2
Zn0 Zn8 2.677689 1_555
Zn0 Zn11 2.677694 1_555
Zn0 Zn10 2.689034 1_555
Zn0 Zn15 2.714863 1_555
Zn0 Zn19 2.714869 1_555
Zn0 Zn16 2.734183 1_555
Zn0 Zn7 2.967989 1_544
Zn0 Zn4 2.967995 1_445
Zn1 Zn8 2.677689 1_566
Zn1 Zn11 2.677694 1_665
Zn1 Zn10 2.689034 1_656
Zn1 Zn17 2.714863 1_555
Zn1 Zn20 2.714869 1_555
Zn1 Zn18 2.734183 1_555
Zn1 Zn6 2.967989 1_566
Zn1 Zn2 2.967995 1_665
Zn2 Zn9 2.708422 1_555
Zn2 Zn7 2.846868 1_545
Zn2 Zn5 2.967976 1_455
Zn2 Zr1 3.007805 1_545
Zn2 Zr4 3.007809 1_555
Zn2 Zr3 3.066314 1_455
Zn3 Zn9 2.677694 1_555
Zn3 Zn7 2.967971 1_554
Zn3 Zn4 2.967976 1_455
Zn4 Zn9 2.708422 1_655
Zn4 Zn6 2.846868 1_565
Zn4 Zr0 3.007805 1_565
Zn4 Zr5 3.007809 1_555
Zn4 Zr2 3.066314 1_655
Zn5 Zn9 2.677694 1_655
Zn5 Zn6 2.967971 1_556
Zn6 Zn8 2.708450 1_555
Zn6 Zr5 3.007807 1_545
Zn6 Zr0 3.007811 1_555
Zn6 Zr3 3.066308 1_554
Zn7 Zn8 2.708450 1_566
Zn7 Zr4 3.007807 1_565
Zn7 Zr1 3.007811 1_555
Zn7 Zr2 3.066308 1_556
Zn8 Zr5 3.109423 1_545
Zn8 Zr4 3.109423 1_554
Zn8 Zr3 3.117003 1_554
Zn8 Zr2 3.117003 1_545
Zn9 Zr4 3.109438 1_555
Zn9 Zr5 3.109438 1_455
Zn9 Zr2 3.117018 1_555
Zn9 Zr3 3.117018 1_455
Zn10 Zn15 2.498128 1_555
Zn10 Zn17 2.498128 1_454
Zn10 Zn19 2.498130 1_555
Zn10 Zn20 2.498130 1_454
Zn10 Zn5 2.689055 1_454
Zn10 Zn3 2.689055 1_555
Zn10 Zr5 3.110279 1_455
Zn10 Zr4 3.110279 1_554
Zn10 Zr1 3.110280 1_554
Zn10 Zr0 3.110280 1_455
Zn11 Zn19 2.496759 1_555
Zn11 Zn20 2.496759 1_445
Zn11 Zn16 2.511515 1_555
Zn11 Zn18 2.511515 1_445
Zn11 Zn2 2.708450 1_555
Zn11 Zn4 2.708450 1_445
Zn11 Zr1 3.109422 1_545
Zn11 Zr0 3.109422 1_455
Zn11 Zr3 3.117007 1_455
Zn11 Zr2 3.117007 1_545
Zn12 Zn17 2.496762 1_554
Zn12 Zn15 2.496762 1_555
Zn12 Zn13 2.511512 1_555
Zn12 Zn14 2.511512 1_554
Zn12 Zn5 2.677689 1_554
Zn12 Zn3 2.677689 1_555
Zn12 Zn6 2.708422 1_555
Zn12 Zn7 2.708422 1_554
Zn12 Zr0 3.109440 1_555
Zn12 Zr1 3.109440 1_554
Zn12 Zr2 3.117013 1_555
Zn12 Zr3 3.117013 1_554
Zn13 Zn9 2.511509 1_555
Zn13 Zn2 2.674962 1_555
Zn13 Zn6 2.674966 1_555
Zn13 Zn3 2.734174 1_555
Zn13 Zn16 2.769672 1_555
Zn13 Zn15 2.790959 1_555
Zn13 Zn19 2.790960 1_555
Zn13 Zr0 2.939368 1_555
Zn13 Zr4 2.939373 1_555
Zn13 Zr2 2.977778 1_555
Zn14 Zn9 2.511509 1_655
Zn14 Zn4 2.674962 1_555
Zn14 Zn7 2.674966 1_555
Zn14 Zn5 2.734174 1_555
Zn14 Zn18 2.769672 1_555
Zn14 Zn17 2.790959 1_555
Zn14 Zn20 2.790960 1_555
Zn14 Zr1 2.939368 1_555
Zn14 Zr5 2.939373 1_555
Zn14 Zr3 2.977778 1_555
Zn15 Zn8 2.496752 1_555
Zn15 Zn3 2.714865 1_555
Zn15 Zn6 2.722028 1_555
Zn15 Zn19 2.777773 1_555
Zn15 Zn16 2.790945 1_555
Zn15 Zr1 2.954054 1_554
Zn15 Zr4 2.954058 1_554
Zn15 Zr3 2.956871 1_554
Zn16 Zn8 2.511518 1_555
Zn16 Zn2 2.674969 1_555
Zn16 Zn6 2.674975 1_555
Zn16 Zn19 2.790949 1_555
Zn16 Zr5 2.939354 1_545
Zn16 Zr1 2.939359 1_545
Zn16 Zr2 2.977783 1_545
Zn17 Zn8 2.496752 1_566
Zn17 Zn5 2.714865 1_555
Zn17 Zn7 2.722028 1_555
Zn17 Zn20 2.777773 1_555
Zn17 Zn18 2.790945 1_555
Zn17 Zr0 2.954054 1_556
Zn17 Zr5 2.954058 1_556
Zn17 Zr2 2.956871 1_556
Zn18 Zn8 2.511518 1_566
Zn18 Zn4 2.674969 1_555
Zn18 Zn7 2.674975 1_555
Zn18 Zn20 2.790949 1_555
Zn18 Zr4 2.939354 1_565
Zn18 Zr0 2.939359 1_565
Zn18 Zr3 2.977783 1_565
Zn19 Zn9 2.496760 1_555
Zn19 Zn3 2.714864 1_555
Zn19 Zn2 2.722033 1_555
Zn19 Zr5 2.954042 1_455
Zn19 Zr0 2.954051 1_455
Zn19 Zr3 2.956878 1_455
Zn20 Zn9 2.496760 1_655
Zn20 Zn5 2.714864 1_555
Zn20 Zn4 2.722033 1_555
Zn20 Zr4 2.954042 1_655
Zn20 Zr1 2.954051 1_655
Zn20 Zr2 2.956878 1_655
Co0 Zr1 2.446192 1_555
Co0 Zr0 2.446192 1_555
Co0 Zr5 2.446192 1_555
Co0 Zr4 2.446192 1_555
Co0 Zr3 2.453945 1_555
Co0 Zr2 2.453945 1_555
Cu0 Zn13 2.461059 1_555
Cu0 Zn14 2.461059 1_545
Cu0 Zn18 2.461067 1_545
Cu0 Zn16 2.461067 1_555
Cu0 Zn4 2.624967 1_545
Cu0 Zn2 2.624967 1_555
Cu0 Zn7 2.624979 1_545
Cu0 Zn6 2.624979 1_555
Cu0 Zr4 3.131219 1_555
Cu0 Zr5 3.131219 1_545
Cu0 Zr0 3.131219 1_555
Cu0 Zr1 3.131219 1_545
Cu1 Zn3 2.547049 1_545
Cu1 Zn5 2.547049 1_454
Cu1 Zn0 2.547069 1_555
Cu1 Zn1 2.547069 1_444
Cu1 Zn7 2.550251 1_544
Cu1 Zn6 2.550251 1_455
Cu1 Zn4 2.550263 1_445
Cu1 Zn2 2.550263 1_554
