# generated using pymatgen
data_ScCd7
_symmetry_space_group_name_H-M   'P 1'
_cell_length_a   6.23775799
_cell_length_b   6.23775693
_cell_length_c   9.31748608
_cell_angle_alpha   90.00000000
_cell_angle_beta   90.00000000
_cell_angle_gamma   108.08722033
_symmetry_Int_Tables_number   1
_chemical_formula_structural   ScCd7
_chemical_formula_sum   'Sc2 Cd14'
_cell_volume   344.62492115
_cell_formula_units_Z   2
loop_
 _symmetry_equiv_pos_site_id
 _symmetry_equiv_pos_as_xyz
  1  'x, y, z'
loop_
 _atom_site_type_symbol
 _atom_site_label
 _atom_site_symmetry_multiplicity
 _atom_site_fract_x
 _atom_site_fract_y
 _atom_site_fract_z
 _atom_site_occupancy
  Sc  Sc0  1  0.52147821  0.47852179  0.75000000  1
  Sc  Sc1  1  0.47852179  0.52147821  0.25000000  1
  Cd  Cd0  1  0.59898693  0.99718798  0.75000000  1
  Cd  Cd1  1  0.40101307  0.00281202  0.25000000  1
  Cd  Cd2  1  0.99718798  0.59898693  0.25000000  1
  Cd  Cd3  1  0.00281202  0.40101307  0.75000000  1
  Cd  Cd4  1  0.29115199  0.70884801  0.98212991  1
  Cd  Cd5  1  0.70884801  0.29115199  0.48212991  1
  Cd  Cd6  1  0.70884801  0.29115199  0.01787009  1
  Cd  Cd7  1  0.29115199  0.70884801  0.51787009  1
  Cd  Cd8  1  0.20984272  0.20984272  0.00000000  1
  Cd  Cd9  1  0.79015728  0.79015728  0.50000000  1
  Cd  Cd10  1  0.79015728  0.79015728  -0.00000000  1
  Cd  Cd11  1  0.20984272  0.20984272  0.50000000  1
  Cd  Cd12  1  0.08716254  0.91283746  0.75000000  1
  Cd  Cd13  1  0.91283746  0.08716254  0.25000000  1
loop_
_geom_bond_atom_site_label_1
_geom_bond_atom_site_label_2
_geom_bond_distance
_geom_bond_site_symmetry_2
Cd0 Cd3 2.958115 1_665
Cd0 Cd6 3.046494 1_566
Cd0 Cd5 3.046494 1_565
Cd0 Cd12 3.070296 1_555
Cd0 Cd7 3.075000 1_555
Cd0 Cd4 3.075000 1_555
Cd0 Cd9 3.077647 1_555
Cd0 Cd10 3.077647 1_556
Cd0 Sc0 3.119254 1_555
Cd0 Sc0 3.185871 1_565
Cd0 Cd12 3.247225 1_655
Cd1 Cd2 2.958115 1_445
Cd1 Cd4 3.046494 1_544
Cd1 Cd7 3.046494 1_545
Cd1 Cd13 3.070296 1_555
Cd1 Cd6 3.075000 1_555
Cd1 Cd5 3.075000 1_555
Cd1 Cd11 3.077647 1_555
Cd1 Cd8 3.077647 1_555
Cd1 Sc1 3.119254 1_555
Cd1 Sc1 3.185871 1_545
Cd1 Cd13 3.247225 1_455
Cd2 Cd4 3.046494 1_654
Cd2 Cd7 3.046494 1_655
Cd2 Cd6 3.075000 1_555
Cd2 Cd5 3.075000 1_555
Cd2 Cd9 3.077647 1_555
Cd2 Sc1 3.119254 1_555
Cd2 Sc1 3.185871 1_655
Cd3 Cd6 3.046494 1_456
Cd3 Cd5 3.046494 1_455
Cd3 Cd7 3.075000 1_555
Cd3 Cd4 3.075000 1_555
Cd3 Cd8 3.077647 1_556
Cd3 Sc0 3.119254 1_555
Cd3 Sc0 3.185871 1_455
Cd4 Cd8 2.998906 1_556
Cd4 Sc1 3.132033 1_556
Cd4 Sc0 3.176164 1_555
Cd4 Cd8 3.321940 1_566
Cd5 Cd9 2.998906 1_555
Cd5 Sc0 3.132033 1_555
Cd5 Sc1 3.176164 1_555
Cd5 Cd9 3.321940 1_545
Cd6 Cd8 2.998906 1_555
Cd6 Sc0 3.132033 1_554
Cd6 Sc1 3.176164 1_555
Cd6 Cd8 3.321940 1_655
Cd7 Cd9 2.998906 1_555
Cd7 Sc1 3.132033 1_555
Cd7 Sc0 3.176164 1_555
Cd7 Cd9 3.321940 1_455
Cd8 Sc1 3.160798 1_555
Cd8 Sc0 3.160798 1_554
Cd9 Sc0 3.160798 1_555
Cd9 Sc1 3.160798 1_555
Cd10 Cd13 2.926357 1_565
Cd10 Cd12 2.926357 1_654
Cd10 Cd6 2.998906 1_555
Cd10 Cd4 2.998906 1_554
Cd10 Cd8 3.074296 1_665
Cd10 Cd2 3.077647 1_555
Cd10 Sc0 3.160798 1_554
Cd10 Sc1 3.160798 1_555
Cd10 Cd6 3.321940 1_565
Cd10 Cd4 3.321940 1_654
Cd11 Cd12 2.926357 1_545
Cd11 Cd13 2.926357 1_455
Cd11 Cd7 2.998906 1_555
Cd11 Cd5 2.998906 1_555
Cd11 Cd9 3.074296 1_445
Cd11 Cd3 3.077647 1_555
Cd11 Sc1 3.160798 1_555
Cd11 Sc0 3.160798 1_555
Cd11 Cd7 3.321940 1_545
Cd11 Cd5 3.321940 1_455
Cd12 Cd8 2.926357 1_566
Cd12 Cd9 2.926357 1_455
Cd12 Cd7 2.986893 1_555
Cd12 Cd4 2.986893 1_555
Cd12 Cd3 3.070295 1_555
Cd12 Cd3 3.247224 1_565
Cd13 Cd9 2.926357 1_545
Cd13 Cd8 2.926357 1_655
Cd13 Cd5 2.986893 1_555
Cd13 Cd6 2.986893 1_555
Cd13 Cd2 3.070295 1_555
Cd13 Cd2 3.247224 1_545
