# generated using pymatgen
data_CrSiTe3
_symmetry_space_group_name_H-M   'P 1'
_cell_length_a   8.25989701
_cell_length_b   8.25989776
_cell_length_c   8.25989744
_cell_angle_alpha   48.84663891
_cell_angle_beta   48.84663822
_cell_angle_gamma   48.84664312
_symmetry_Int_Tables_number   1
_chemical_formula_structural   CrSiTe3
_chemical_formula_sum   'Cr2 Si2 Te6'
_cell_volume   293.24880539
_cell_formula_units_Z   2
loop_
 _symmetry_equiv_pos_site_id
 _symmetry_equiv_pos_as_xyz
  1  'x, y, z'
loop_
 _atom_site_type_symbol
 _atom_site_label
 _atom_site_symmetry_multiplicity
 _atom_site_fract_x
 _atom_site_fract_y
 _atom_site_fract_z
 _atom_site_occupancy
  Cr  Cr0  1  0.66618730  0.66618730  0.66618730  1
  Cr  Cr1  1  0.33381270  0.33381270  0.33381270  1
  Si  Si0  1  0.05220242  0.05220242  0.05220242  1
  Si  Si1  1  0.94779758  0.94779758  0.94779758  1
  Te  Te0  1  0.43974779  0.72118351  0.07765044  1
  Te  Te1  1  0.07765044  0.43974779  0.72118351  1
  Te  Te2  1  0.72118351  0.07765044  0.43974779  1
  Te  Te3  1  0.27881649  0.92234956  0.56025221  1
  Te  Te4  1  0.92234956  0.56025221  0.27881649  1
  Te  Te5  1  0.56025221  0.27881649  0.92234956  1
loop_
_geom_bond_atom_site_label_1
_geom_bond_atom_site_label_2
_geom_bond_distance
_geom_bond_site_symmetry_2
Cr0 Te1 2.793335 1_655
Cr0 Te0 2.793335 1_556
Cr0 Te2 2.793336 1_565
Cr0 Te3 2.796068 1_555
Cr0 Te5 2.796068 1_555
Cr0 Te4 2.796068 1_555
Cr1 Te4 2.793335 1_455
Cr1 Te5 2.793335 1_554
Cr1 Te3 2.793336 1_545
Cr1 Te2 2.796068 1_555
Cr1 Te0 2.796068 1_555
Cr1 Te1 2.796068 1_555
Si0 Si1 2.273210 1_444
Si0 Te2 2.525196 1_455
Si0 Te1 2.525196 1_554
Si0 Te0 2.525196 1_545
Si1 Te3 2.525196 1_655
Si1 Te4 2.525196 1_556
Si1 Te5 2.525196 1_565
