# generated using pymatgen
data_CsK2BiTe3
_symmetry_space_group_name_H-M   'P 1'
_cell_length_a   10.75648897
_cell_length_b   10.75648897
_cell_length_c   10.75648897
_cell_angle_alpha   90.00000000
_cell_angle_beta   90.00000000
_cell_angle_gamma   90.00000000
_symmetry_Int_Tables_number   1
_chemical_formula_structural   CsK2BiTe3
_chemical_formula_sum   'Cs4 K8 Bi4 Te12'
_cell_volume   1244.54787879
_cell_formula_units_Z   4
loop_
 _symmetry_equiv_pos_site_id
 _symmetry_equiv_pos_as_xyz
  1  'x, y, z'
loop_
 _atom_site_type_symbol
 _atom_site_label
 _atom_site_symmetry_multiplicity
 _atom_site_fract_x
 _atom_site_fract_y
 _atom_site_fract_z
 _atom_site_occupancy
  Cs  Cs0  1  0.57469530  0.57469530  0.57469530  1
  Cs  Cs1  1  0.92530470  0.42530470  0.07469530  1
  Cs  Cs2  1  0.07469530  0.92530470  0.42530470  1
  Cs  Cs3  1  0.42530470  0.07469530  0.92530470  1
  K  K0  1  0.31964210  0.31964210  0.31964210  1
  K  K1  1  0.18035790  0.68035790  0.81964210  1
  K  K2  1  0.81964210  0.18035790  0.68035790  1
  K  K3  1  0.68035790  0.81964210  0.18035790  1
  K  K4  1  0.81485008  0.81485008  0.81485008  1
  K  K5  1  0.68514992  0.18514992  0.31485008  1
  K  K6  1  0.31485008  0.68514992  0.18514992  1
  K  K7  1  0.18514992  0.31485008  0.68514992  1
  Bi  Bi0  1  0.97084187  0.52915813  0.47084187  1
  Bi  Bi1  1  0.47084187  0.97084187  0.52915813  1
  Bi  Bi2  1  0.02915813  0.02915813  0.02915813  1
  Bi  Bi3  1  0.52915813  0.47084187  0.97084187  1
  Te  Te0  1  0.77196245  0.10018203  0.00213478  1
  Te  Te1  1  0.72803755  0.89981797  0.50213478  1
  Te  Te2  1  0.27196245  0.39981797  0.99786522  1
  Te  Te3  1  0.10018203  0.00213478  0.77196245  1
  Te  Te4  1  0.22803755  0.60018203  0.49786522  1
  Te  Te5  1  0.49786522  0.22803755  0.60018203  1
  Te  Te6  1  0.60018203  0.49786522  0.22803755  1
  Te  Te7  1  0.89981797  0.50213478  0.72803755  1
  Te  Te8  1  0.99786522  0.27196245  0.39981797  1
  Te  Te9  1  0.39981797  0.99786522  0.27196245  1
  Te  Te10  1  0.00213478  0.77196245  0.10018203  1
  Te  Te11  1  0.50213478  0.72803755  0.89981797  1
loop_
_geom_bond_atom_site_label_1
_geom_bond_atom_site_label_2
_geom_bond_distance
_geom_bond_site_symmetry_2
Cs0 Te4 3.829129 1_555
Cs0 Te5 3.829129 1_555
Cs0 Te6 3.829129 1_555
Cs0 Te1 3.944621 1_555
Cs0 Te7 3.944621 1_555
Cs0 Te11 3.944621 1_555
Cs1 Te2 3.829129 1_654
Cs1 Te7 3.829129 1_554
Cs1 Te10 3.829129 1_655
Cs1 Te0 3.944621 1_555
Cs1 Te8 3.944621 1_555
Cs1 Te6 3.944621 1_555
Cs2 Te8 3.829129 1_465
Cs2 Te1 3.829129 1_455
Cs2 Te3 3.829129 1_565
Cs2 Te4 3.944621 1_555
Cs2 Te9 3.944621 1_555
Cs2 Te10 3.944621 1_555
Cs3 Te9 3.829129 1_546
Cs3 Te11 3.829129 1_545
Cs3 Te0 3.829129 1_556
Cs3 Te3 3.944621 1_555
Cs3 Te5 3.944621 1_555
Cs3 Te2 3.944621 1_555
K0 Te9 3.603695 1_545
K0 Te8 3.603695 1_455
K0 Te2 3.603695 1_554
K0 Te4 3.708377 1_555
K0 Te6 3.708377 1_555
K0 Te5 3.708377 1_555
K1 Te3 3.603695 1_565
K1 Te11 3.603695 1_555
K1 Te4 3.603695 1_555
K1 Te10 3.708377 1_556
K1 Te7 3.708377 1_455
K1 Te2 3.708377 1_555
K2 Te0 3.603695 1_556
K2 Te7 3.603695 1_555
K2 Te5 3.603695 1_555
K2 Te3 3.708377 1_655
K2 Te1 3.708377 1_545
K2 Te8 3.708377 1_555
K3 Te10 3.603695 1_655
K3 Te1 3.603695 1_555
K3 Te6 3.603695 1_555
K3 Te0 3.708377 1_565
K3 Te11 3.708377 1_554
K3 Te9 3.708377 1_555
K4 Te1 3.608587 1_555
K4 Te7 3.608587 1_555
K4 Te11 3.608587 1_555
K4 Te0 3.700126 1_566
K4 Te10 3.700126 1_656
K4 Te3 3.700126 1_665
K5 Te0 3.608587 1_555
K5 Te8 3.608587 1_555
K5 Te6 3.608587 1_555
K5 Te1 3.700126 1_545
K5 Te9 3.700126 1_545
K5 Te5 3.700126 1_555
K6 Te10 3.608587 1_555
K6 Te4 3.608587 1_555
K6 Te9 3.608587 1_555
K6 Te2 3.700126 1_554
K6 Te11 3.700126 1_554
K6 Te6 3.700126 1_555
K7 Te3 3.608587 1_555
K7 Te2 3.608587 1_555
K7 Te5 3.608587 1_555
K7 Te7 3.700126 1_455
K7 Te8 3.700126 1_455
K7 Te4 3.700126 1_555
Bi0 Te4 2.884751 1_655
Bi0 Te7 2.884751 1_555
Bi0 Te8 2.884751 1_555
Bi1 Te5 2.884751 1_565
Bi1 Te1 2.884751 1_555
Bi1 Te9 2.884751 1_555
Bi2 Te3 2.884751 1_554
Bi2 Te0 2.884751 1_455
Bi2 Te10 2.884751 1_545
Bi3 Te6 2.884751 1_556
Bi3 Te11 2.884751 1_555
Bi3 Te2 2.884751 1_555
