# generated using pymatgen
data_Ti6O11
_symmetry_space_group_name_H-M   'P 1'
_cell_length_a   5.56435157
_cell_length_b   7.12801541
_cell_length_c   9.73572192
_cell_angle_alpha   89.90935394
_cell_angle_beta   100.53000427
_cell_angle_gamma   108.49487591
_symmetry_Int_Tables_number   1
_chemical_formula_structural   Ti6O11
_chemical_formula_sum   'Ti12 O22'
_cell_volume   359.37603114
_cell_formula_units_Z   2
loop_
 _symmetry_equiv_pos_site_id
 _symmetry_equiv_pos_as_xyz
  1  'x, y, z'
loop_
 _atom_site_type_symbol
 _atom_site_label
 _atom_site_symmetry_multiplicity
 _atom_site_fract_x
 _atom_site_fract_y
 _atom_site_fract_z
 _atom_site_occupancy
  Ti  Ti0  1  0.23173280  0.64093810  0.08545245  1
  Ti  Ti1  1  0.76826720  0.35906190  0.91454755  1
  Ti  Ti2  1  0.22551000  0.13697517  0.08226618  1
  Ti  Ti3  1  0.77449000  0.86302483  0.91773382  1
  Ti  Ti4  1  0.69010351  0.42947388  0.25593306  1
  Ti  Ti5  1  0.30989649  0.57052612  0.74406694  1
  Ti  Ti6  1  0.69145781  0.92724698  0.25932566  1
  Ti  Ti7  1  0.30854219  0.07275302  0.74067434  1
  Ti  Ti8  1  0.18663719  0.69698874  0.43816016  1
  Ti  Ti9  1  0.81336281  0.30301126  0.56183984  1
  Ti  Ti10  1  0.17574556  0.19439046  0.43109774  1
  Ti  Ti11  1  0.82425444  0.80560954  0.56890226  1
  O  O0  1  0.09816279  0.35917152  0.02601130  1
  O  O1  1  0.90183721  0.64082848  0.97398870  1
  O  O2  1  0.59533409  0.30026655  0.07577124  1
  O  O3  1  0.40466591  0.69973345  0.92422876  1
  O  O4  1  0.87652509  0.98387001  0.11034297  1
  O  O5  1  0.12347491  0.01612999  0.88965703  1
  O  O6  1  0.35996584  0.92089422  0.15280556  1
  O  O7  1  0.64003416  0.07910578  0.84719444  1
  O  O8  1  0.56305941  0.64074058  0.20331218  1
  O  O9  1  0.43694059  0.35925942  0.79668782  1
  O  O10  1  0.05472768  0.57349558  0.25726245  1
  O  O11  1  0.94527232  0.42650442  0.74273755  1
  O  O12  1  0.34301754  0.26318511  0.28294569  1
  O  O13  1  0.65698246  0.73681489  0.71705431  1
  O  O14  1  0.81514987  0.20484578  0.35621716  1
  O  O15  1  0.18485013  0.79515422  0.64378284  1
  O  O16  1  0.47135757  0.17181994  0.56558345  1
  O  O17  1  0.01417490  0.90288170  0.39187264  1
  O  O18  1  0.52864243  0.82818006  0.43441655  1
  O  O19  1  0.78856034  0.54265823  0.46648743  1
  O  O20  1  0.21143966  0.45734177  0.53351257  1
  O  O21  1  0.98582510  0.09711830  0.60812736  1
loop_
_geom_bond_atom_site_label_1
_geom_bond_atom_site_label_2
_geom_bond_distance
_geom_bond_site_symmetry_2
O0 Ti1 1.954036 1_454
O0 Ti0 1.954618 1_555
O0 Ti2 1.969264 1_555
O1 Ti0 1.954036 1_656
O1 Ti1 1.954618 1_555
O1 Ti3 1.969264 1_555
O2 Ti4 1.887262 1_555
O2 Ti1 1.964544 1_554
O2 Ti2 2.030062 1_555
O3 Ti5 1.887262 1_555
O3 Ti0 1.964544 1_556
O3 Ti3 2.030062 1_555
O4 Ti6 1.899355 1_555
O4 Ti2 1.971078 1_665
O4 Ti3 1.971388 1_554
O5 Ti7 1.899355 1_555
O5 Ti3 1.971078 1_445
O5 Ti2 1.971388 1_556
O6 Ti6 1.930762 1_555
O6 Ti0 1.962402 1_555
O6 Ti2 1.985855 1_565
O7 Ti7 1.930762 1_555
O7 Ti1 1.962402 1_555
O7 Ti3 1.985855 1_545
O8 Ti4 1.889589 1_555
O8 Ti6 1.978365 1_555
O8 Ti0 1.985953 1_555
O9 Ti5 1.889589 1_555
O9 Ti7 1.978365 1_555
O9 Ti1 1.985953 1_555
O10 Ti8 1.880914 1_555
O10 Ti4 1.959459 1_455
O10 Ti0 2.073231 1_555
O11 Ti9 1.880914 1_555
O11 Ti5 1.959459 1_655
O11 Ti1 2.073231 1_555
O12 Ti10 1.840130 1_555
O12 Ti4 1.984029 1_555
O12 Ti2 2.054138 1_555
O13 Ti11 1.840130 1_555
O13 Ti5 1.984029 1_555
O13 Ti3 2.054138 1_555
O14 Ti10 2.030528 1_655
O14 Ti6 2.045355 1_545
O14 Ti4 2.110602 1_555
O14 Ti9 2.124472 1_555
O15 Ti11 2.030528 1_455
O15 Ti7 2.045355 1_565
O15 Ti5 2.110602 1_555
O15 Ti8 2.124472 1_555
O16 Ti9 1.842160 1_555
O16 Ti10 1.955993 1_555
O16 Ti7 2.092837 1_555
O17 Ti10 1.990858 1_565
O17 Ti8 2.002807 1_555
O17 Ti6 2.066440 1_455
O17 Ti11 2.182909 1_455
O18 Ti8 1.842160 1_555
O18 Ti11 1.955993 1_555
O18 Ti6 2.092837 1_555
O19 Ti9 1.973963 1_555
O19 Ti11 2.060109 1_555
O19 Ti4 2.113637 1_555
O19 Ti8 2.206579 1_655
O20 Ti8 1.973963 1_555
O20 Ti10 2.060109 1_555
O20 Ti5 2.113637 1_555
O20 Ti9 2.206579 1_455
O21 Ti11 1.990858 1_545
O21 Ti9 2.002807 1_555
O21 Ti7 2.066440 1_655
O21 Ti10 2.182909 1_655
