# generated using pymatgen
data_Rb4NaSb2Au
_symmetry_space_group_name_H-M   'P 1'
_cell_length_a   7.09676755
_cell_length_b   7.09676776
_cell_length_c   6.45604034
_cell_angle_alpha   92.76015952
_cell_angle_beta   92.76015921
_cell_angle_gamma   101.47863221
_symmetry_Int_Tables_number   1
_chemical_formula_structural   Rb4NaSb2Au
_chemical_formula_sum   'Rb4 Na1 Sb2 Au1'
_cell_volume   317.72550498
_cell_formula_units_Z   1
loop_
 _symmetry_equiv_pos_site_id
 _symmetry_equiv_pos_as_xyz
  1  'x, y, z'
loop_
 _atom_site_type_symbol
 _atom_site_label
 _atom_site_symmetry_multiplicity
 _atom_site_fract_x
 _atom_site_fract_y
 _atom_site_fract_z
 _atom_site_occupancy
  Rb  Rb0  1  0.81048025  0.46746263  0.74005315  1
  Rb  Rb1  1  0.53253737  0.18951975  0.25994685  1
  Rb  Rb2  1  0.46746263  0.81048025  0.74005315  1
  Rb  Rb3  1  0.18951975  0.53253737  0.25994685  1
  Na  Na0  1  0.00000000  0.00000000  0.00000000  1
  Sb  Sb0  1  0.74020183  0.74020183  0.26410937  1
  Sb  Sb1  1  0.25979817  0.25979817  0.73589063  1
  Au  Au0  1  0.00000000  0.00000000  0.50000000  1
loop_
_geom_bond_atom_site_label_1
_geom_bond_atom_site_label_2
_geom_bond_distance
_geom_bond_site_symmetry_2
Rb0 Sb1 3.770317 1_655
Rb0 Sb0 3.774408 1_555
Rb0 Sb1 3.890934 1_555
Rb0 Sb0 3.918943 1_556
Rb1 Sb0 3.770317 1_545
Rb1 Sb1 3.774408 1_555
Rb1 Sb0 3.890934 1_555
Rb1 Sb1 3.918943 1_554
Rb2 Sb1 3.770317 1_565
Rb2 Sb0 3.774408 1_555
Rb2 Sb1 3.890934 1_555
Rb2 Sb0 3.918943 1_556
Rb3 Sb0 3.770317 1_455
Rb3 Sb1 3.774408 1_555
Rb3 Sb0 3.890934 1_555
Rb3 Sb1 3.918943 1_554
Na0 Sb1 2.993097 1_554
Na0 Sb0 2.993097 1_445
Au0 Sb1 2.687777 1_555
Au0 Sb0 2.687777 1_445
Au0 Na0 3.228020 1_555
Au0 Na0 3.228020 1_556
Au0 Rb2 4.086307 1_545
Au0 Rb1 4.086307 1_455
Au0 Rb0 4.086307 1_455
Au0 Rb3 4.086307 1_545
