# generated using pymatgen
data_Na2GaPt3
_symmetry_space_group_name_H-M   'P 1'
_cell_length_a   5.47995873
_cell_length_b   5.47995869
_cell_length_c   7.97671186
_cell_angle_alpha   90.00000000
_cell_angle_beta   90.00000000
_cell_angle_gamma   119.99999448
_symmetry_Int_Tables_number   1
_chemical_formula_structural   Na2GaPt3
_chemical_formula_sum   'Na4 Ga2 Pt6'
_cell_volume   207.44794283
_cell_formula_units_Z   2
loop_
 _symmetry_equiv_pos_site_id
 _symmetry_equiv_pos_as_xyz
  1  'x, y, z'
loop_
 _atom_site_type_symbol
 _atom_site_label
 _atom_site_symmetry_multiplicity
 _atom_site_fract_x
 _atom_site_fract_y
 _atom_site_fract_z
 _atom_site_occupancy
  Na  Na0  1  0.33333300  0.66666600  0.07293721  1
  Na  Na1  1  0.33333300  0.66666600  0.42706279  1
  Na  Na2  1  0.66666700  0.33333300  0.57293821  1
  Na  Na3  1  0.66666700  0.33333300  0.92706179  1
  Ga  Ga0  1  0.00000000  0.00000000  0.00000000  1
  Ga  Ga1  1  0.00000000  0.00000000  0.50000000  1
  Pt  Pt0  1  0.34145063  0.17072432  0.25000000  1
  Pt  Pt1  1  0.82927368  0.17072432  0.25000000  1
  Pt  Pt2  1  0.82927668  0.65855037  0.25000000  1
  Pt  Pt3  1  0.17072532  0.34145063  0.75000000  1
  Pt  Pt4  1  0.17072432  0.82927568  0.75000000  1
  Pt  Pt5  1  0.65854937  0.82927568  0.75000000  1
loop_
_geom_bond_atom_site_label_1
_geom_bond_atom_site_label_2
_geom_bond_distance
_geom_bond_site_symmetry_2
Na0 Na1 2.824758 1_555
Na0 Pt3 3.002956 1_554
Na0 Pt5 3.002959 1_554
Na0 Pt4 3.002964 1_554
Na0 Pt2 3.082814 1_455
Na0 Pt0 3.082818 1_565
Na0 Pt1 3.082819 1_565
Na0 Pt0 3.082823 1_555
Na0 Pt1 3.082824 1_455
Na0 Pt2 3.082828 1_555
Na1 Pt3 3.002956 1_555
Na1 Pt5 3.002959 1_555
Na1 Pt4 3.002964 1_555
Na1 Pt2 3.082814 1_455
Na1 Pt0 3.082818 1_565
Na1 Pt1 3.082819 1_565
Na1 Pt0 3.082823 1_555
Na1 Pt1 3.082824 1_455
Na1 Pt2 3.082828 1_555
Na2 Na3 2.824742 1_555
Na2 Pt1 3.002963 1_555
Na2 Pt0 3.002966 1_555
Na2 Pt2 3.002968 1_555
Na2 Pt5 3.082810 1_545
Na2 Pt3 3.082815 1_655
Na2 Pt4 3.082817 1_545
Na2 Pt4 3.082817 1_655
Na2 Pt3 3.082820 1_555
Na2 Pt5 3.082825 1_555
Na3 Pt1 3.002963 1_556
Na3 Pt0 3.002966 1_556
Na3 Pt2 3.002968 1_556
Na3 Pt5 3.082810 1_545
Na3 Pt3 3.082815 1_655
Na3 Pt4 3.082817 1_545
Na3 Pt4 3.082817 1_655
Na3 Pt3 3.082820 1_555
Na3 Pt5 3.082825 1_555
Ga0 Pt4 2.569548 1_544
Ga0 Pt2 2.569551 1_445
Ga0 Pt1 2.569554 1_455
Ga0 Pt3 2.569554 1_554
Ga0 Pt0 2.569554 1_555
Ga0 Pt5 2.569554 1_444
Ga0 Na0 3.216901 1_555
Ga0 Na3 3.216902 1_454
Ga0 Na0 3.216906 1_545
Ga0 Na0 3.216906 1_445
Ga0 Na3 3.216907 1_444
Ga0 Na3 3.216907 1_554
Ga1 Pt4 2.569548 1_545
Ga1 Pt2 2.569551 1_445
Ga1 Pt1 2.569554 1_455
Ga1 Pt3 2.569554 1_555
Ga1 Pt0 2.569554 1_555
Ga1 Pt5 2.569554 1_445
Ga1 Na1 3.216901 1_555
Ga1 Na2 3.216902 1_455
Ga1 Na1 3.216906 1_545
Ga1 Na1 3.216906 1_445
Ga1 Na2 3.216907 1_445
Ga1 Na2 3.216907 1_555
Pt0 Pt1 2.673250 1_555
Pt0 Pt2 2.673267 1_555
Pt0 Pt2 2.806692 1_445
Pt0 Pt1 2.806709 1_455
Pt1 Pt2 2.673258 1_555
Pt1 Pt2 2.806700 1_545
Pt3 Pt5 2.673259 1_555
Pt3 Pt4 2.673264 1_555
Pt3 Pt4 2.806695 1_545
Pt3 Pt5 2.806701 1_445
Pt4 Pt5 2.673261 1_555
Pt4 Pt5 2.806698 1_455
