# generated using pymatgen
data_Y4InHgPd4
_symmetry_space_group_name_H-M   'P 1'
_cell_length_a   7.75781775
_cell_length_b   7.75781775
_cell_length_c   3.63920736
_cell_angle_alpha   90.00000000
_cell_angle_beta   90.00000000
_cell_angle_gamma   90.00000000
_symmetry_Int_Tables_number   1
_chemical_formula_structural   Y4InHgPd4
_chemical_formula_sum   'Y4 In1 Hg1 Pd4'
_cell_volume   219.02109558
_cell_formula_units_Z   1
loop_
 _symmetry_equiv_pos_site_id
 _symmetry_equiv_pos_as_xyz
  1  'x, y, z'
loop_
 _atom_site_type_symbol
 _atom_site_label
 _atom_site_symmetry_multiplicity
 _atom_site_fract_x
 _atom_site_fract_y
 _atom_site_fract_z
 _atom_site_occupancy
  Y  Y0  1  0.66804750  0.18297752  0.50000000  1
  Y  Y1  1  0.33195250  0.81702248  0.50000000  1
  Y  Y2  1  0.18297752  0.33195250  0.50000000  1
  Y  Y3  1  0.81702248  0.66804750  0.50000000  1
  In  In0  1  0.00000000  0.00000000  0.00000000  1
  Hg  Hg0  1  0.50000000  0.50000000  0.00000000  1
  Pd  Pd0  1  0.11727891  0.63409728  0.00000000  1
  Pd  Pd1  1  0.88272109  0.36590272  0.00000000  1
  Pd  Pd2  1  0.63409728  0.88272109  0.00000000  1
  Pd  Pd3  1  0.36590272  0.11727891  0.00000000  1
loop_
_geom_bond_atom_site_label_1
_geom_bond_atom_site_label_2
_geom_bond_distance
_geom_bond_site_symmetry_2
In0 Pd3 2.980851 1_555
In0 Pd1 2.980851 1_455
In0 Pd0 2.980851 1_545
In0 Pd2 2.980851 1_445
In0 Y2 3.457998 1_555
In0 Y2 3.457998 1_554
In0 Y1 3.457998 1_544
In0 Y1 3.457998 1_545
In0 Y0 3.457998 1_454
In0 Y0 3.457998 1_455
In0 Y3 3.457998 1_445
In0 Y3 3.457998 1_444
Hg0 Pd2 3.146056 1_555
Hg0 Pd1 3.146056 1_555
Hg0 Pd0 3.146056 1_555
Hg0 Pd3 3.146056 1_555
Hg0 Y3 3.325538 1_555
Hg0 Y3 3.325538 1_554
Hg0 Y0 3.325538 1_554
Hg0 Y0 3.325538 1_555
Hg0 Y1 3.325538 1_555
Hg0 Y1 3.325538 1_554
Hg0 Y2 3.325538 1_555
Hg0 Y2 3.325538 1_554
Pd0 Pd1 2.764067 1_455
Pd0 Y1 2.845761 1_555
Pd0 Y1 2.845761 1_554
Pd0 Y3 2.967512 1_455
Pd0 Y3 2.967512 1_454
Pd0 Y2 3.010812 1_554
Pd0 Y2 3.010812 1_555
Pd1 Y0 2.845761 1_555
Pd1 Y0 2.845761 1_554
Pd1 Y2 2.967512 1_655
Pd1 Y2 2.967512 1_654
Pd1 Y3 3.010812 1_554
Pd1 Y3 3.010812 1_555
Pd2 Pd3 2.764067 1_565
Pd2 Y3 2.845761 1_555
Pd2 Y3 2.845761 1_554
Pd2 Y0 2.967512 1_564
Pd2 Y0 2.967512 1_565
Pd2 Y1 3.010812 1_555
Pd2 Y1 3.010812 1_554
Pd3 Y2 2.845761 1_555
Pd3 Y2 2.845761 1_554
Pd3 Y1 2.967512 1_544
Pd3 Y1 2.967512 1_545
Pd3 Y0 3.010812 1_554
Pd3 Y0 3.010812 1_555
