# generated using pymatgen
data_Li3Ni(PO4)2
_symmetry_space_group_name_H-M   'P 1'
_cell_length_a   4.95176063
_cell_length_b   17.98263800
_cell_length_c   6.31448566
_cell_angle_alpha   90.00000000
_cell_angle_beta   92.42977814
_cell_angle_gamma   90.00000000
_symmetry_Int_Tables_number   1
_chemical_formula_structural   Li3Ni(PO4)2
_chemical_formula_sum   'Li12 Ni4 P8 O32'
_cell_volume   561.77238806
_cell_formula_units_Z   4
loop_
 _symmetry_equiv_pos_site_id
 _symmetry_equiv_pos_as_xyz
  1  'x, y, z'
loop_
 _atom_site_type_symbol
 _atom_site_label
 _atom_site_symmetry_multiplicity
 _atom_site_fract_x
 _atom_site_fract_y
 _atom_site_fract_z
 _atom_site_occupancy
  Li  Li0  1  0.18605200  0.70071000  0.81121100  1
  Li  Li1  1  0.22573400  0.88490600  0.49988700  1
  Li  Li2  1  0.27426700  0.38490700  0.00011300  1
  Li  Li3  1  0.21477100  0.55800900  0.23329300  1
  Li  Li4  1  0.28522900  0.05800800  0.26670800  1
  Li  Li5  1  0.31394800  0.20071000  0.68878800  1
  Li  Li6  1  0.68605200  0.79929000  0.31121200  1
  Li  Li7  1  0.71477200  0.94199200  0.73329300  1
  Li  Li8  1  0.78522900  0.44199200  0.76670800  1
  Li  Li9  1  0.72573400  0.61509300  0.99988800  1
  Li  Li10  1  0.77426700  0.11509400  0.50011200  1
  Li  Li11  1  0.81394900  0.29929000  0.18878800  1
  Ni  Ni0  1  0.19747300  0.87267400  0.02557900  1
  Ni  Ni1  1  0.30252700  0.37267500  0.47442100  1
  Ni  Ni2  1  0.69747300  0.62732500  0.52557900  1
  Ni  Ni3  1  0.80252800  0.12732600  0.97442200  1
  P  P0  1  0.82213800  0.28384000  0.70023600  1
  P  P1  1  0.78644400  0.46675600  0.26524600  1
  P  P2  1  0.71355400  0.96675500  0.23475400  1
  P  P3  1  0.67786100  0.78384000  0.79976300  1
  P  P4  1  0.17786100  0.71616000  0.29976400  1
  P  P5  1  0.21355400  0.53324400  0.73475500  1
  P  P6  1  0.32213800  0.21616000  0.20023600  1
  P  P7  1  0.28644600  0.03324500  0.76524600  1
  O  O0  1  0.13746200  0.05800700  0.55600400  1
  O  O1  1  0.96244500  0.31030300  0.49793100  1
  O  O2  1  0.92922500  0.32761700  0.89564400  1
  O  O3  1  0.91462700  0.56063400  0.74422200  1
  O  O4  1  0.01257900  0.20160200  0.17473100  1
  O  O5  1  0.03755500  0.68969700  0.50206900  1
  O  O6  1  0.07077300  0.67238300  0.10435600  1
  O  O7  1  0.08537100  0.43936600  0.25577700  1
  O  O8  1  0.14688600  0.06588500  0.95836700  1
  O  O9  1  0.98742200  0.79839800  0.82526800  1
  O  O10  1  0.10891000  0.80097000  0.27954300  1
  O  O11  1  0.20442300  0.44675200  0.72454700  1
  O  O12  1  0.29557800  0.94675200  0.77545400  1
  O  O13  1  0.36253800  0.55800700  0.94399600  1
  O  O14  1  0.35311400  0.56588500  0.54163200  1
  O  O15  1  0.39109000  0.30097000  0.22045700  1
  O  O16  1  0.85311500  0.93411500  0.04163200  1
  O  O17  1  0.42922500  0.17238300  0.39564400  1
  O  O18  1  0.46244500  0.18969800  0.99793200  1
  O  O19  1  0.51257900  0.29839900  0.67473200  1
  O  O20  1  0.48742000  0.70160100  0.32526800  1
  O  O21  1  0.53755500  0.81030200  0.00206900  1
  O  O22  1  0.57077300  0.82761700  0.60435700  1
  O  O23  1  0.58537200  0.06063300  0.75577700  1
  O  O24  1  0.60891100  0.69903000  0.77954300  1
  O  O25  1  0.64688400  0.43411500  0.45836700  1
  O  O26  1  0.63746200  0.44199300  0.05600500  1
  O  O27  1  0.70442300  0.05324800  0.22454500  1
  O  O28  1  0.79557800  0.55324800  0.27545400  1
  O  O29  1  0.89109000  0.19903000  0.72045800  1
  O  O30  1  0.86253900  0.94199300  0.44399500  1
  O  O31  1  0.41462900  0.93936600  0.24422300  1
loop_
_geom_bond_atom_site_label_1
_geom_bond_atom_site_label_2
_geom_bond_distance
_geom_bond_site_symmetry_2
Li0 O9 2.017087 1_455
Li0 O6 2.025179 1_556
Li0 O5 2.066107 1_555
Li0 O24 2.112062 1_555
Li1 O22 2.078479 1_555
Li1 O12 2.081657 1_555
Li1 O30 2.087830 1_455
Li1 O10 2.116728 1_555
Li1 O31 2.137353 1_555
Li2 O2 2.078499 1_454
Li2 O11 2.081642 1_554
Li2 O26 2.087822 1_555
Li2 O15 2.116740 1_555
Li2 O7 2.137348 1_555
Li3 O13 1.996444 1_554
Li3 O14 2.041340 1_555
Li3 O28 2.105653 1_455
Li3 O7 2.233903 1_555
Li3 O6 2.313501 1_555
Li4 O0 1.996438 1_555
Li4 O8 2.041353 1_554
Li4 O27 2.105659 1_555
Li4 O31 2.233886 1_545
Li4 O17 2.313512 1_555
Li5 O19 2.017105 1_555
Li5 O17 2.025170 1_555
Li5 O18 2.066117 1_555
Li5 O29 2.112059 1_455
Li6 O20 2.017107 1_555
Li6 O22 2.025179 1_555
Li6 O21 2.066111 1_555
Li6 O10 2.112058 1_655
Li7 O30 1.996450 1_555
Li7 O16 2.041341 1_556
Li7 O12 2.105657 1_555
Li7 O23 2.233869 1_565
Li7 O22 2.313516 1_555
Li8 O26 1.996444 1_556
Li8 O25 2.041356 1_555
Li8 O11 2.105657 1_655
Li8 O3 2.233884 1_555
Li8 O2 2.313512 1_555
Li9 O6 2.078485 1_656
Li9 O28 2.081642 1_556
Li9 O13 2.087826 1_555
Li9 O24 2.116744 1_555
Li9 O3 2.137350 1_555
Li10 O17 2.078488 1_555
Li10 O27 2.081657 1_555
Li10 O0 2.087830 1_655
Li10 O29 2.116735 1_555
Li10 O23 2.137367 1_555
Li11 O4 2.017087 1_655
Li11 O2 2.025168 1_554
Li11 O1 2.066112 1_555
Li11 O15 2.112063 1_555
Ni0 O21 2.033992 1_555
Ni0 O16 2.037966 1_455
Ni0 O9 2.086675 1_454
Ni0 O31 2.091612 1_555
Ni0 O10 2.118082 1_555
Ni0 O12 2.137786 1_554
Ni1 O1 2.033992 1_455
Ni1 O25 2.037952 1_555
Ni1 O19 2.086678 1_555
Ni1 O7 2.091602 1_555
Ni1 O15 2.118093 1_555
Ni1 O11 2.137778 1_555
Ni2 O5 2.033992 1_655
Ni2 O14 2.037960 1_555
Ni2 O20 2.086680 1_555
Ni2 O3 2.091593 1_555
Ni2 O24 2.118092 1_555
Ni2 O28 2.137774 1_555
Ni3 O18 2.033996 1_555
Ni3 O8 2.037967 1_655
Ni3 O4 2.086668 1_656
Ni3 O23 2.091626 1_555
Ni3 O29 2.118081 1_555
Ni3 O27 2.137776 1_556
O0 P7 1.550999 1_555
O1 P0 1.554444 1_555
O2 P0 1.538812 1_555
O3 P5 1.563558 1_655
O4 P6 1.556665 1_555
O5 P4 1.554441 1_555
O6 P4 1.538814 1_555
O7 P1 1.563559 1_455
O8 P7 1.542928 1_555
O9 P3 1.556675 1_555
O10 P4 1.566887 1_555
O11 P5 1.557267 1_555
O12 P7 1.557285 1_565
O13 P5 1.550999 1_555
O14 P5 1.542945 1_555
O15 P6 1.566888 1_555
O16 P2 1.542935 1_555
O17 P6 1.538812 1_555
O18 P6 1.554433 1_556
O19 P0 1.556668 1_555
O20 P4 1.556668 1_555
O21 P3 1.554441 1_554
O22 P3 1.538804 1_555
O23 P7 1.563543 1_555
O24 P3 1.566885 1_555
O25 P1 1.542935 1_555
O26 P1 1.550995 1_555
O27 P2 1.557285 1_545
O28 P1 1.557267 1_555
O29 P0 1.566888 1_555
O30 P2 1.550996 1_555
O31 P2 1.563544 1_555
