# generated using pymatgen
data_Y12Co4AgBi
_symmetry_space_group_name_H-M   'P 1'
_cell_length_a   8.44347594
_cell_length_b   8.44347606
_cell_length_c   8.44347520
_cell_angle_alpha   109.60116622
_cell_angle_beta   111.08378937
_cell_angle_gamma   107.74591336
_symmetry_Int_Tables_number   1
_chemical_formula_structural   Y12Co4AgBi
_chemical_formula_sum   'Y12 Co4 Ag1 Bi1'
_cell_volume   462.99090508
_cell_formula_units_Z   1
loop_
 _symmetry_equiv_pos_site_id
 _symmetry_equiv_pos_as_xyz
  1  'x, y, z'
loop_
 _atom_site_type_symbol
 _atom_site_label
 _atom_site_symmetry_multiplicity
 _atom_site_fract_x
 _atom_site_fract_y
 _atom_site_fract_z
 _atom_site_occupancy
  Y  Y0  1  0.29158461  0.18304371  0.47462832  1
  Y  Y1  1  0.70841539  0.81695629  0.52537168  1
  Y  Y2  1  0.29158461  0.81695629  0.10854191  1
  Y  Y3  1  0.70841539  0.18304371  0.89145809  1
  Y  Y4  1  0.61821863  0.31410909  0.30410955  1
  Y  Y5  1  0.38178137  0.68589091  0.69589045  1
  Y  Y6  1  0.00999954  0.31410909  0.69589045  1
  Y  Y7  1  0.99000046  0.68589091  0.30410955  1
  Y  Y8  1  0.21302026  0.42190593  0.20888667  1
  Y  Y9  1  0.78697974  0.57809407  0.79111333  1
  Y  Y10  1  0.21302026  0.00413359  0.79111333  1
  Y  Y11  1  0.78697974  0.99586641  0.20888667  1
  Co  Co0  1  1.00000000  0.38490730  0.38490730  1
  Co  Co1  1  0.00000000  0.61509270  0.61509270  1
  Co  Co2  1  0.39110812  0.89110812  0.50000000  1
  Co  Co3  1  0.60889188  0.10889188  0.50000000  1
  Ag  Ag0  1  0.00000000  0.00000000  0.00000000  1
  Bi  Bi0  1  0.50000000  0.50000000  0.00000000  1
loop_
_geom_bond_atom_site_label_1
_geom_bond_atom_site_label_2
_geom_bond_distance
_geom_bond_site_symmetry_2
Y0 Y8 3.510429 1_555
Y0 Y11 3.510436 1_445
Y0 Y2 3.563506 1_545
Y0 Y4 3.601267 1_555
Y0 Y7 3.601267 1_445
Y0 Y10 3.638099 1_555
Y0 Y9 3.638102 1_555
Y0 Y6 3.712167 1_555
Y0 Y5 3.712167 1_555
Y1 Y9 3.510429 1_555
Y1 Y10 3.510436 1_665
Y1 Y3 3.563506 1_565
Y1 Y5 3.601267 1_555
Y1 Y6 3.601267 1_665
Y1 Y11 3.638099 1_555
Y1 Y8 3.638102 1_555
Y1 Y7 3.712167 1_555
Y1 Y4 3.712167 1_555
Y2 Y9 3.510438 1_454
Y2 Y7 3.601260 1_455
Y2 Y4 3.601269 1_565
Y2 Y8 3.638102 1_555
Y2 Y6 3.712170 1_554
Y2 Y5 3.712175 1_554
Y3 Y8 3.510438 1_656
Y3 Y6 3.601260 1_655
Y3 Y5 3.601269 1_545
Y3 Y9 3.638102 1_555
Y3 Y7 3.712170 1_556
Y3 Y4 3.712175 1_556
Y10 Y2 3.510443 1_546
Y10 Y3 3.638102 1_555
Y11 Y3 3.510443 1_564
Y11 Y2 3.638102 1_555
Co0 Co1 2.240635 1_655
Co0 Y8 2.726496 1_655
Co0 Y11 2.726497 1_545
Co0 Y6 2.860698 1_655
Co0 Y7 2.860698 1_555
Co0 Y4 2.860698 1_555
Co0 Y5 2.860698 1_655
Co0 Y0 3.409228 1_655
Co0 Y3 3.409234 1_554
Co1 Y9 2.726496 1_455
Co1 Y10 2.726497 1_565
Co1 Y7 2.860698 1_455
Co1 Y6 2.860698 1_555
Co1 Y5 2.860698 1_555
Co1 Y4 2.860698 1_455
Co1 Y1 3.409228 1_455
Co1 Y2 3.409234 1_556
Co2 Co3 2.168292 1_565
Co2 Y5 2.770873 1_555
Co2 Y7 2.770873 1_455
Co2 Y2 2.883650 1_555
Co2 Y3 2.883653 1_565
Co2 Y1 2.883658 1_555
Co2 Y0 2.883658 1_565
Co2 Y10 3.342708 1_565
Co2 Y8 3.342715 1_555
Co3 Y4 2.770873 1_555
Co3 Y6 2.770873 1_655
Co3 Y3 2.883650 1_555
Co3 Y2 2.883653 1_545
Co3 Y0 2.883658 1_555
Co3 Y1 2.883658 1_545
Co3 Y11 3.342708 1_545
Co3 Y9 3.342715 1_555
Ag0 Y8 2.938093 1_555
Ag0 Y9 2.938093 1_444
Ag0 Y10 2.938100 1_554
Ag0 Y11 2.938100 1_445
Ag0 Y0 3.307032 1_555
Ag0 Y1 3.307032 1_444
Ag0 Y2 3.307034 1_545
Ag0 Y3 3.307034 1_454
Bi0 Y4 3.445034 1_555
Bi0 Y5 3.445034 1_554
Bi0 Y7 3.445034 1_555
Bi0 Y6 3.445034 1_554
Bi0 Y11 3.506859 1_555
Bi0 Y10 3.506859 1_554
Bi0 Y8 3.506860 1_555
Bi0 Y9 3.506860 1_554
Bi0 Y1 3.672101 1_555
Bi0 Y0 3.672101 1_554
Bi0 Y2 3.672103 1_555
Bi0 Y3 3.672103 1_554
