# generated using pymatgen
data_Cs7NbIn3P5
_symmetry_space_group_name_H-M   'P 1'
_cell_length_a   8.81055977
_cell_length_b   9.62918008
_cell_length_c   14.77174070
_cell_angle_alpha   85.25688181
_cell_angle_beta   85.21904423
_cell_angle_gamma   85.38289847
_symmetry_Int_Tables_number   1
_chemical_formula_structural   Cs7NbIn3P5
_chemical_formula_sum   'Cs14 Nb2 In6 P10'
_cell_volume   1241.15167047
_cell_formula_units_Z   2
loop_
 _symmetry_equiv_pos_site_id
 _symmetry_equiv_pos_as_xyz
  1  'x, y, z'
loop_
 _atom_site_type_symbol
 _atom_site_label
 _atom_site_symmetry_multiplicity
 _atom_site_fract_x
 _atom_site_fract_y
 _atom_site_fract_z
 _atom_site_occupancy
  Cs  Cs0  1  0.84837837  0.35783116  0.65160696  1
  Cs  Cs1  1  0.81406587  0.80962329  0.13217002  1
  Cs  Cs2  1  0.23788878  0.00977162  0.46781634  1
  Cs  Cs3  1  0.27005009  0.25422729  0.25217802  1
  Cs  Cs4  1  0.74438853  0.50192902  0.97368504  1
  Cs  Cs5  1  0.25561147  0.49807098  0.02631496  1
  Cs  Cs6  1  0.68051268  0.07913228  0.88952790  1
  Cs  Cs7  1  0.76211122  0.99022838  0.53218366  1
  Cs  Cs8  1  0.72994991  0.74577271  0.74782198  1
  Cs  Cs9  1  0.33415309  0.34417695  0.59607176  1
  Cs  Cs10  1  0.15162163  0.64216884  0.34839304  1
  Cs  Cs11  1  0.18593413  0.19037671  0.86782998  1
  Cs  Cs12  1  0.31948732  0.92086772  0.11047210  1
  Cs  Cs13  1  0.66584691  0.65582305  0.40392824  1
  Nb  Nb0  1  0.35521008  0.60710229  0.77304396  1
  Nb  Nb1  1  0.64478992  0.39289771  0.22695604  1
  In  In0  1  0.06557848  0.81087272  0.86635018  1
  In  In1  1  0.93442152  0.18912728  0.13364982  1
  In  In2  1  0.36065972  0.94802846  0.70505678  1
  In  In3  1  0.09814707  0.72168056  0.62663503  1
  In  In4  1  0.90185293  0.27831944  0.37336497  1
  In  In5  1  0.63934028  0.05197154  0.29494322  1
  P  P0  1  0.90941676  0.44492070  0.21290055  1
  P  P1  1  0.62564005  0.20276708  0.12882248  1
  P  P2  1  0.09058324  0.55507930  0.78709945  1
  P  P3  1  0.59247471  0.29309338  0.38317650  1
  P  P4  1  0.40752529  0.70690662  0.61682350  1
  P  P5  1  0.04482018  0.98103867  0.70416364  1
  P  P6  1  0.51424117  0.40752532  0.80748582  1
  P  P7  1  0.48575883  0.59247468  0.19251418  1
  P  P8  1  0.37435995  0.79723292  0.87117752  1
  P  P9  1  0.95517982  0.01896133  0.29583636  1
loop_
_geom_bond_atom_site_label_1
_geom_bond_atom_site_label_2
_geom_bond_distance
_geom_bond_site_symmetry_2
Cs0 P6 3.608763 1_555
Cs0 P2 3.763012 1_655
Cs0 P5 3.938186 1_645
Cs0 Cs8 4.131153 1_555
Cs1 P9 3.628288 1_565
Cs1 In5 3.650962 1_565
Cs1 P0 3.668785 1_555
Cs1 P7 3.710706 1_555
Cs1 In1 3.888426 1_565
Cs1 P1 4.007568 1_565
Cs1 In0 4.344542 1_654
Cs2 P9 3.694324 1_455
Cs2 In3 3.702341 1_545
Cs2 In2 3.740119 1_545
Cs2 P5 3.753008 1_545
Cs2 P4 3.790613 1_545
Cs2 Cs3 3.805860 1_555
Cs2 In4 4.032165 1_455
Cs2 In5 4.213171 1_555
Cs3 P1 3.511267 1_555
Cs3 In4 3.572339 1_455
Cs3 P0 3.604984 1_455
Cs3 P3 3.627897 1_555
Cs3 Nb1 3.639401 1_555
Cs3 In1 3.680458 1_455
Cs3 P9 3.703521 1_455
Cs3 In5 3.727908 1_555
Cs3 P7 3.903803 1_555
Cs3 Cs5 3.922751 1_555
Cs4 P6 3.530007 1_555
Cs4 P1 3.693024 1_556
Cs4 P0 3.912688 1_556
Cs4 Cs8 3.922751 1_555
Cs4 P2 3.972246 1_655
Cs5 P7 3.530007 1_555
Cs5 P8 3.693024 1_554
Cs5 P2 3.912688 1_554
Cs5 P0 3.972246 1_455
Cs6 P6 3.539831 1_555
Cs6 P1 3.803187 1_556
Cs6 Cs8 3.950885 1_545
Cs6 P8 4.017456 1_545
Cs6 P5 4.143282 1_645
Cs7 P5 3.694324 1_655
Cs7 In4 3.702341 1_565
Cs7 In5 3.740119 1_565
Cs7 P9 3.753008 1_565
Cs7 P3 3.790613 1_565
Cs7 Cs8 3.805860 1_555
Cs7 In3 4.032165 1_655
Cs7 In2 4.213171 1_555
Cs8 P8 3.511267 1_555
Cs8 In3 3.572339 1_655
Cs8 P2 3.604984 1_655
Cs8 P4 3.627897 1_555
Cs8 Nb0 3.639401 1_555
Cs8 In0 3.680458 1_655
Cs8 P5 3.703521 1_655
Cs8 In2 3.727908 1_555
Cs8 P6 3.903803 1_555
Cs9 P4 3.644866 1_555
Cs9 P6 3.733540 1_555
Cs9 P3 3.767546 1_555
Cs9 P2 3.991085 1_555
Cs9 In2 4.012609 1_545
Cs10 P7 3.608763 1_555
Cs10 P0 3.763012 1_455
Cs10 P9 3.938186 1_465
Cs10 Cs3 4.131153 1_555
Cs11 P5 3.628288 1_545
Cs11 In2 3.650962 1_545
Cs11 P2 3.668785 1_555
Cs11 P6 3.710706 1_555
Cs11 In0 3.888426 1_545
Cs11 P8 4.007568 1_545
Cs11 In1 4.344542 1_456
Cs12 P7 3.539831 1_555
Cs12 P8 3.803187 1_554
Cs12 Cs3 3.950885 1_565
Cs12 P1 4.017456 1_565
Cs12 P9 4.143282 1_465
Cs13 P3 3.644866 1_555
Cs13 P7 3.733540 1_555
Cs13 P4 3.767546 1_555
Cs13 P0 3.991085 1_555
Cs13 In5 4.012609 1_565
Nb0 P6 2.332140 1_555
Nb0 P2 2.412494 1_555
Nb0 P4 2.447147 1_555
Nb0 P8 2.451745 1_555
Nb1 P7 2.332140 1_555
Nb1 P0 2.412494 1_555
Nb1 P3 2.447147 1_555
Nb1 P1 2.451745 1_555
In0 P8 2.719729 1_555
In0 P2 2.798621 1_555
In0 P5 2.798868 1_555
In1 P1 2.719729 1_555
In1 P0 2.798621 1_555
In1 P9 2.798868 1_555
In2 P4 2.741610 1_555
In2 P8 2.752538 1_555
In2 P5 2.776289 1_555
In3 P4 2.710412 1_555
In3 P2 2.749279 1_555
In3 P5 2.822010 1_555
In4 P3 2.710412 1_555
In4 P0 2.749279 1_555
In4 P9 2.822010 1_555
In5 P3 2.741610 1_555
In5 P1 2.752538 1_555
In5 P9 2.776289 1_555
