# generated using pymatgen
data_Sc2V(Tc2W)3
_symmetry_space_group_name_H-M   'P 1'
_cell_length_a   4.42549079
_cell_length_b   6.24730081
_cell_length_c   13.26391363
_cell_angle_alpha   90.00000000
_cell_angle_beta   89.99891944
_cell_angle_gamma   90.00000000
_symmetry_Int_Tables_number   1
_chemical_formula_structural   Sc2V(Tc2W)3
_chemical_formula_sum   'Sc4 V2 Tc12 W6'
_cell_volume   366.71235648
_cell_formula_units_Z   2
loop_
 _symmetry_equiv_pos_site_id
 _symmetry_equiv_pos_as_xyz
  1  'x, y, z'
loop_
 _atom_site_type_symbol
 _atom_site_label
 _atom_site_symmetry_multiplicity
 _atom_site_fract_x
 _atom_site_fract_y
 _atom_site_fract_z
 _atom_site_occupancy
  Sc  Sc0  1  0.00000354  0.50000000  0.33162511  1
  Sc  Sc1  1  0.50000169  0.00000000  0.49827124  1
  Sc  Sc2  1  0.99999895  0.50000000  0.66838824  1
  Sc  Sc3  1  0.49999757  0.00000000  0.83503874  1
  V  V0  1  0.99999828  0.50000000  0.00008668  1
  V  V1  1  0.49999936  0.00000000  0.16658633  1
  Tc  Tc0  1  0.49999948  0.25257332  0.00524604  1
  Tc  Tc1  1  0.49999948  0.74742768  0.00524604  1
  Tc  Tc2  1  0.99999935  0.24741573  0.16143136  1
  Tc  Tc3  1  0.99999935  0.75258427  0.16143136  1
  Tc  Tc4  1  0.50000400  0.24479278  0.32496022  1
  Tc  Tc5  1  0.50000400  0.75520622  0.32496022  1
  Tc  Tc6  1  0.00000240  0.24909352  0.49798966  1
  Tc  Tc7  1  0.00000240  0.75090648  0.49798966  1
  Tc  Tc8  1  0.49999856  0.25090978  0.66866928  1
  Tc  Tc9  1  0.49999856  0.74908922  0.66866928  1
  Tc  Tc10  1  0.99999726  0.25520168  0.84170822  1
  Tc  Tc11  1  0.99999726  0.74479832  0.84170822  1
  W  W0  1  0.99999916  0.00000000  0.00181799  1
  W  W1  1  0.50000159  0.50000000  0.16485002  1
  W  W2  1  0.99992631  0.00000000  0.33135439  1
  W  W3  1  0.50000135  0.50000000  0.50121427  1
  W  W4  1  0.99999971  0.00000000  0.66544775  1
  W  W5  1  0.50007439  0.50000000  0.83531264  1
loop_
_geom_bond_atom_site_label_1
_geom_bond_atom_site_label_2
_geom_bond_distance
_geom_bond_site_symmetry_2
Sc0 Tc7 2.706714 1_555
Sc0 Tc6 2.706714 1_555
Sc0 Tc5 2.728737 1_455
Sc0 Tc5 2.728738 1_555
Sc0 Tc4 2.728741 1_455
Sc0 Tc4 2.728742 1_555
Sc0 Tc3 2.754270 1_455
Sc0 Tc2 2.754270 1_455
Sc1 Tc6 2.705159 1_555
Sc1 Tc7 2.705159 1_545
Sc1 Tc6 2.705164 1_655
Sc1 Tc7 2.705164 1_645
Sc1 Tc8 2.750516 1_555
Sc1 Tc9 2.750520 1_545
Sc1 Tc4 2.761004 1_555
Sc1 Tc5 2.761007 1_545
Sc2 Tc9 2.705144 1_655
Sc2 Tc9 2.705147 1_555
Sc2 Tc8 2.705148 1_655
Sc2 Tc8 2.705151 1_555
Sc2 Tc7 2.750510 1_655
Sc2 Tc6 2.750510 1_655
Sc2 Tc11 2.761122 1_555
Sc2 Tc10 2.761122 1_555
Sc3 Tc8 2.706779 1_555
Sc3 Tc9 2.706783 1_545
Sc3 Tc10 2.728723 1_455
Sc3 Tc11 2.728723 1_445
Sc3 Tc10 2.728723 1_555
Sc3 Tc11 2.728723 1_545
Sc3 Tc1 2.754374 1_546
Sc3 Tc0 2.754378 1_556
Tc0 W1 2.621243 1_555
Tc0 V1 2.658832 1_555
Tc0 V0 2.700044 1_555
Tc0 V0 2.700054 1_455
Tc0 W0 2.718101 1_555
Tc0 W0 2.718105 1_455
Tc0 W5 2.733089 1_554
Tc1 W1 2.621247 1_555
Tc1 V1 2.658829 1_565
Tc1 V0 2.700047 1_555
Tc1 V0 2.700058 1_455
Tc1 W0 2.718097 1_565
Tc1 W0 2.718101 1_465
Tc1 W5 2.733092 1_554
Tc2 W0 2.621304 1_555
Tc2 V0 2.658920 1_555
Tc2 V1 2.700007 1_555
Tc2 V1 2.700010 1_655
Tc2 W1 2.718132 1_555
Tc2 W1 2.718149 1_655
Tc2 W2 2.732937 1_555
Tc3 W0 2.621304 1_565
Tc3 V0 2.658920 1_555
Tc3 V1 2.700007 1_565
Tc3 V1 2.700010 1_665
Tc3 W1 2.718132 1_555
Tc3 W1 2.718149 1_655
Tc3 W2 2.732937 1_565
Tc4 V1 2.598365 1_555
Tc4 W1 2.655564 1_555
Tc4 W2 2.690848 1_555
Tc4 W2 2.691410 1_455
Tc4 W3 2.829729 1_555
Tc5 V1 2.598369 1_565
Tc5 W1 2.655561 1_555
Tc5 W2 2.690851 1_565
Tc5 W2 2.691414 1_465
Tc5 W3 2.829726 1_555
Tc6 W2 2.703106 1_455
Tc6 W3 2.712024 1_555
Tc6 W3 2.712030 1_455
Tc6 W4 2.712037 1_455
Tc7 W2 2.703106 1_465
Tc7 W3 2.712024 1_555
Tc7 W3 2.712030 1_455
Tc7 W4 2.712037 1_465
Tc8 W5 2.703182 1_555
Tc8 W3 2.711992 1_555
Tc8 W4 2.712035 1_455
Tc8 W4 2.712042 1_555
Tc9 W5 2.703178 1_555
Tc9 W3 2.711988 1_555
Tc9 W4 2.712038 1_465
Tc9 W4 2.712045 1_565
Tc10 V0 2.598435 1_556
Tc10 W0 2.655539 1_556
Tc10 W5 2.690870 1_555
Tc10 W5 2.691429 1_655
Tc10 W4 2.829780 1_555
Tc11 V0 2.598435 1_556
Tc11 W0 2.655539 1_566
Tc11 W5 2.690870 1_555
Tc11 W5 2.691429 1_655
Tc11 W4 2.829780 1_565
