# generated using pymatgen
data_TaTi2Nb7N12
_symmetry_space_group_name_H-M   'P 1'
_cell_length_a   5.21858394
_cell_length_b   5.21858483
_cell_length_c   10.31710925
_cell_angle_alpha   90.00000000
_cell_angle_beta   90.00000000
_cell_angle_gamma   119.99999434
_symmetry_Int_Tables_number   1
_chemical_formula_structural   TaTi2Nb7N12
_chemical_formula_sum   'Ta1 Ti2 Nb7 N12'
_cell_volume   243.32913193
_cell_formula_units_Z   1
loop_
 _symmetry_equiv_pos_site_id
 _symmetry_equiv_pos_as_xyz
  1  'x, y, z'
loop_
 _atom_site_type_symbol
 _atom_site_label
 _atom_site_symmetry_multiplicity
 _atom_site_fract_x
 _atom_site_fract_y
 _atom_site_fract_z
 _atom_site_occupancy
  Ta  Ta0  1  0.66666700  0.33333300  0.50000000  1
  Ti  Ti0  1  0.33333300  0.66666700  0.00000000  1
  Ti  Ti1  1  0.33333300  0.66666700  0.50000000  1
  Nb  Nb0  1  0.67650326  0.67797635  0.75005837  1
  Nb  Nb1  1  0.32202365  0.99852791  0.75005837  1
  Nb  Nb2  1  0.00147209  0.32349674  0.75005837  1
  Nb  Nb3  1  0.32202365  0.32349674  0.24994163  1
  Nb  Nb4  1  0.67650326  0.99852791  0.24994163  1
  Nb  Nb5  1  0.00147209  0.67797635  0.24994163  1
  Nb  Nb6  1  0.66666700  0.33333300  0.00000000  1
  N  N0  1  0.65225547  0.65358680  0.38160952  1
  N  N1  1  0.34641320  0.99866867  0.38160952  1
  N  N2  1  0.00133133  0.34774453  0.38160952  1
  N  N3  1  0.34641320  0.34774453  0.61839048  1
  N  N4  1  0.65225547  0.99866867  0.61839048  1
  N  N5  1  0.00133133  0.65358680  0.61839048  1
  N  N6  1  0.34259019  0.34731201  0.88000823  1
  N  N7  1  0.65268799  0.99527819  0.88000823  1
  N  N8  1  0.00472181  0.65740981  0.88000823  1
  N  N9  1  0.65268799  0.65740981  0.11999177  1
  N  N10  1  0.34259019  0.99527819  0.11999177  1
  N  N11  1  0.00472181  0.34731201  0.11999177  1
loop_
_geom_bond_atom_site_label_1
_geom_bond_atom_site_label_2
_geom_bond_distance
_geom_bond_site_symmetry_2
N0 Ti1 2.092886 1_555
N0 Ta0 2.101531 1_555
N0 Nb3 2.194077 1_555
N0 Nb4 2.207701 1_555
N0 Nb5 2.225036 1_655
N1 Ti1 2.092882 1_555
N1 Ta0 2.101529 1_565
N1 Nb4 2.194075 1_555
N1 Nb5 2.207699 1_555
N1 Nb3 2.225040 1_565
N2 Ti1 2.092884 1_555
N2 Ta0 2.101526 1_455
N2 Nb5 2.194079 1_555
N2 Nb3 2.207696 1_555
N2 Nb4 2.225038 1_445
N3 Ti1 2.092887 1_555
N3 Ta0 2.101531 1_555
N3 Nb0 2.194077 1_555
N3 Nb2 2.207700 1_555
N3 Nb1 2.225036 1_545
N4 Ti1 2.092884 1_555
N4 Ta0 2.101527 1_565
N4 Nb1 2.194079 1_555
N4 Nb0 2.207696 1_555
N4 Nb2 2.225038 1_665
N5 Ti1 2.092882 1_555
N5 Ta0 2.101529 1_455
N5 Nb2 2.194075 1_555
N5 Nb1 2.207699 1_555
N5 Nb0 2.225040 1_455
N6 Ti0 2.095925 1_556
N6 Nb6 2.126381 1_556
N6 Nb2 2.181891 1_555
N6 Nb0 2.191970 1_555
N6 Nb1 2.219604 1_545
N7 Ti0 2.095923 1_556
N7 Nb6 2.126377 1_566
N7 Nb0 2.181887 1_555
N7 Nb1 2.191972 1_555
N7 Nb2 2.219605 1_665
N8 Ti0 2.095921 1_556
N8 Nb6 2.126379 1_456
N8 Nb1 2.181889 1_555
N8 Nb2 2.191968 1_555
N8 Nb0 2.219608 1_455
N9 Ti0 2.095925 1_555
N9 Nb6 2.126381 1_555
N9 Nb4 2.181891 1_555
N9 Nb3 2.191970 1_555
N9 Nb5 2.219603 1_655
N10 Ti0 2.095921 1_555
N10 Nb6 2.126379 1_565
N10 Nb5 2.181889 1_555
N10 Nb4 2.191968 1_555
N10 Nb3 2.219608 1_565
N11 Ti0 2.095923 1_555
N11 Nb6 2.126376 1_455
N11 Nb3 2.181886 1_555
N11 Nb5 2.191972 1_555
N11 Nb4 2.219605 1_445
