# generated using pymatgen
data_YMg(Al2Cu3)2
_symmetry_space_group_name_H-M   'P 1'
_cell_length_a   10.34380148
_cell_length_b   8.16352643
_cell_length_c   7.86311429
_cell_angle_alpha   80.36945728
_cell_angle_beta   51.08663126
_cell_angle_gamma   48.54390778
_symmetry_Int_Tables_number   1
_chemical_formula_structural   YMg(Al2Cu3)2
_chemical_formula_sum   'Y2 Mg2 Al8 Cu12'
_cell_volume   350.26520023
_cell_formula_units_Z   2
loop_
 _symmetry_equiv_pos_site_id
 _symmetry_equiv_pos_as_xyz
  1  'x, y, z'
loop_
 _atom_site_type_symbol
 _atom_site_label
 _atom_site_symmetry_multiplicity
 _atom_site_fract_x
 _atom_site_fract_y
 _atom_site_fract_z
 _atom_site_occupancy
  Y  Y0  1  0.00000000  0.00000000  0.00000000  1
  Y  Y1  1  0.25000000  0.25000000  0.25000000  1
  Mg  Mg0  1  0.50000000  0.50000000  0.50000000  1
  Mg  Mg1  1  0.75000000  0.75000000  0.75000000  1
  Al  Al0  1  0.76001459  0.06892542  0.82994270  1
  Al  Al1  1  0.82994270  0.34111929  0.76001459  1
  Al  Al2  1  0.06892542  0.76001459  0.34111929  1
  Al  Al3  1  0.34111929  0.82994270  0.06892542  1
  Al  Al4  1  0.48998541  0.18107458  0.42005730  1
  Al  Al5  1  0.42005730  0.90888071  0.48998541  1
  Al  Al6  1  0.18107458  0.48998541  0.90888071  1
  Al  Al7  1  0.90888071  0.42005730  0.18107458  1
  Cu  Cu0  1  0.62500000  0.12500000  0.62500000  1
  Cu  Cu1  1  0.62500000  0.62500000  0.62500000  1
  Cu  Cu2  1  0.12500000  0.62500000  0.62500000  1
  Cu  Cu3  1  0.62500000  0.62500000  0.12500000  1
  Cu  Cu4  1  0.48809165  0.43475341  0.18231370  1
  Cu  Cu5  1  0.18231370  0.89484224  0.48809165  1
  Cu  Cu6  1  0.43475341  0.48809165  0.89484224  1
  Cu  Cu7  1  0.89484224  0.18231370  0.43475341  1
  Cu  Cu8  1  0.76190835  0.81524659  0.06768630  1
  Cu  Cu9  1  0.06768630  0.35515776  0.76190835  1
  Cu  Cu10  1  0.81524659  0.76190835  0.35515776  1
  Cu  Cu11  1  0.35515776  0.06768630  0.81524659  1
loop_
_geom_bond_atom_site_label_1
_geom_bond_atom_site_label_2
_geom_bond_distance
_geom_bond_site_symmetry_2
Mg0 Y0 3.277002 1_655
Mg0 Y0 3.277002 1_566
Mg1 Y1 3.277002 1_566
Mg1 Y1 3.277002 1_655
Al0 Cu2 2.485619 1_645
Al0 Cu4 2.522454 1_556
Al0 Cu6 2.544123 1_555
Al0 Cu8 2.545725 1_546
Al0 Cu0 2.547716 1_555
Al0 Cu5 2.575560 1_645
Al0 Cu7 2.785750 1_555
Al0 Mg1 2.858473 1_545
Al0 Y0 3.214913 1_656
Al0 Y1 3.216042 1_556
Al1 Cu3 2.485609 1_556
Al1 Cu5 2.522459 1_645
Al1 Cu7 2.544127 1_555
Al1 Cu9 2.545708 1_655
Al1 Cu1 2.547712 1_555
Al1 Cu4 2.575563 1_556
Al1 Cu6 2.785754 1_555
Al1 Mg1 2.858457 1_555
Al1 Y0 3.214920 1_656
Al1 Y1 3.216034 1_655
Al2 Cu0 2.485619 1_465
Al2 Cu6 2.522458 1_554
Al2 Cu4 2.544119 1_555
Al2 Cu10 2.545739 1_455
Al2 Cu2 2.547701 1_555
Al2 Cu7 2.575560 1_465
Al2 Cu5 2.785744 1_555
Al2 Mg1 2.858466 1_455
Al2 Y0 3.214927 1_565
Al2 Y1 3.216043 1_555
Al3 Cu1 2.485621 1_554
Al3 Cu7 2.522457 1_465
Al3 Cu5 2.544119 1_555
Al3 Cu11 2.545723 1_564
Al3 Cu3 2.547699 1_555
Al3 Cu6 2.575567 1_554
Al3 Cu4 2.785751 1_555
Al3 Mg1 2.858456 1_554
Al3 Y0 3.214932 1_565
Al3 Y1 3.216028 1_565
Al4 Cu2 2.485619 1_555
Al4 Cu8 2.522454 1_545
Al4 Cu10 2.544123 1_545
Al4 Cu4 2.545725 1_555
Al4 Cu0 2.547716 1_555
Al4 Cu9 2.575560 1_555
Al4 Cu11 2.785750 1_555
Al4 Mg0 2.858473 1_555
Al4 Y1 3.214913 1_555
Al4 Y0 3.216042 1_655
Al5 Cu3 2.485609 1_555
Al5 Cu9 2.522459 1_565
Al5 Cu11 2.544127 1_565
Al5 Cu5 2.545708 1_555
Al5 Cu1 2.547712 1_555
Al5 Cu8 2.575563 1_555
Al5 Cu10 2.785754 1_555
Al5 Mg0 2.858457 1_555
Al5 Y1 3.214920 1_565
Al5 Y0 3.216034 1_566
Al6 Cu0 2.485619 1_555
Al6 Cu10 2.522458 1_456
Al6 Cu8 2.544119 1_456
Al6 Cu6 2.545739 1_555
Al6 Cu2 2.547701 1_555
Al6 Cu11 2.575560 1_555
Al6 Cu9 2.785744 1_555
Al6 Mg0 2.858466 1_555
Al6 Y1 3.214927 1_556
Al6 Y0 3.216043 1_566
Al7 Cu1 2.485621 1_555
Al7 Cu11 2.522457 1_654
Al7 Cu9 2.544119 1_654
Al7 Cu7 2.545723 1_555
Al7 Cu3 2.547699 1_555
Al7 Cu10 2.575567 1_555
Al7 Cu8 2.785751 1_555
Al7 Mg0 2.858456 1_555
Al7 Y1 3.214932 1_655
Al7 Y0 3.216028 1_655
Cu0 Cu6 2.509152 1_555
Cu0 Cu10 2.509152 1_545
Cu0 Cu7 2.548911 1_555
Cu0 Cu11 2.548911 1_555
Cu0 Mg0 2.712621 1_555
Cu0 Mg1 2.712621 1_545
Cu0 Y1 3.567588 1_556
Cu0 Y0 3.567588 1_655
Cu1 Cu11 2.509146 1_565
Cu1 Cu7 2.509146 1_555
Cu1 Cu10 2.548905 1_555
Cu1 Cu6 2.548905 1_555
Cu1 Mg0 2.712621 1_555
Cu1 Mg1 2.712621 1_555
Cu1 Y1 3.567588 1_655
Cu1 Y0 3.567588 1_566
Cu2 Cu8 2.509147 1_456
Cu2 Cu4 2.509147 1_555
Cu2 Cu5 2.548910 1_555
Cu2 Cu9 2.548910 1_555
Cu2 Mg1 2.712621 1_455
Cu2 Mg0 2.712621 1_555
Cu2 Y0 3.567588 1_566
Cu2 Y1 3.567588 1_555
Cu3 Cu9 2.509146 1_654
Cu3 Cu5 2.509146 1_555
Cu3 Cu8 2.548903 1_555
Cu3 Cu4 2.548903 1_555
Cu3 Mg1 2.712621 1_554
Cu3 Mg0 2.712621 1_555
Cu3 Y0 3.567588 1_655
Cu3 Y1 3.567588 1_565
Cu4 Cu6 2.553983 1_554
Cu4 Mg0 2.730846 1_555
Cu4 Cu5 2.762249 1_555
Cu4 Y0 3.157820 1_655
Cu4 Y1 3.409738 1_555
Cu5 Cu7 2.553983 1_465
Cu5 Mg0 2.730849 1_555
Cu5 Y0 3.157819 1_566
Cu5 Y1 3.409730 1_565
Cu6 Mg0 2.730853 1_555
Cu6 Cu7 2.762249 1_555
Cu6 Y0 3.157823 1_566
Cu6 Y1 3.409735 1_556
Cu7 Mg0 2.730853 1_555
Cu7 Y0 3.157827 1_655
Cu7 Y1 3.409728 1_655
Cu8 Mg1 2.730846 1_554
Cu8 Cu9 2.762249 1_654
Cu8 Y1 3.157820 1_565
Cu8 Y0 3.409738 1_665
Cu9 Mg1 2.730849 1_455
Cu9 Y1 3.157819 1_555
Cu9 Y0 3.409730 1_556
Cu10 Cu8 2.553983 1_555
Cu10 Mg1 2.730853 1_555
Cu10 Cu11 2.762249 1_565
Cu10 Y1 3.157823 1_655
Cu10 Y0 3.409735 1_665
Cu11 Cu9 2.553983 1_555
Cu11 Mg1 2.730853 1_545
Cu11 Y1 3.157827 1_556
Cu11 Y0 3.409728 1_556
