# generated using pymatgen
data_Y6VB14Os
_symmetry_space_group_name_H-M   'P 1'
_cell_length_a   8.10584714
_cell_length_b   8.10584674
_cell_length_c   9.36948232
_cell_angle_alpha   90.00000000
_cell_angle_beta   90.00000000
_cell_angle_gamma   155.12630722
_symmetry_Int_Tables_number   1
_chemical_formula_structural   Y6VB14Os
_chemical_formula_sum   'Y6 V1 B14 Os1'
_cell_volume   258.94145972
_cell_formula_units_Z   1
loop_
 _symmetry_equiv_pos_site_id
 _symmetry_equiv_pos_as_xyz
  1  'x, y, z'
loop_
 _atom_site_type_symbol
 _atom_site_label
 _atom_site_symmetry_multiplicity
 _atom_site_fract_x
 _atom_site_fract_y
 _atom_site_fract_z
 _atom_site_occupancy
  Y  Y0  1  0.89444107  0.10555893  0.43961808  1
  Y  Y1  1  0.10576613  0.89423387  0.55983403  1
  Y  Y2  1  0.89444107  0.10555893  0.06038192  1
  Y  Y3  1  0.10576613  0.89423387  0.94016597  1
  Y  Y4  1  0.24311004  0.75688996  0.25000000  1
  Y  Y5  1  0.75803021  0.24196979  0.75000000  1
  V  V0  1  0.94729753  0.05270247  0.75000000  1
  B  B0  1  0.72654670  0.27345330  0.46449457  1
  B  B1  1  0.27218814  0.72781186  0.53360335  1
  B  B2  1  0.72654670  0.27345330  0.03550543  1
  B  B3  1  0.27218814  0.72781186  0.96639665  1
  B  B4  1  0.63100321  0.36899679  0.15055496  1
  B  B5  1  0.36793373  0.63206627  0.85016673  1
  B  B6  1  0.63100321  0.36899679  0.34944504  1
  B  B7  1  0.36793373  0.63206627  0.64983327  1
  B  B8  1  0.52094712  0.47905288  0.09630229  1
  B  B9  1  0.47942856  0.52057144  0.90518020  1
  B  B10  1  0.52094712  0.47905288  0.40369771  1
  B  B11  1  0.47942856  0.52057144  0.59481980  1
  B  B12  1  0.45849227  0.54150773  0.25000000  1
  B  B13  1  0.54199874  0.45800126  0.75000000  1
  Os  Os0  1  0.05456088  0.94543912  0.25000000  1
loop_
_geom_bond_atom_site_label_1
_geom_bond_atom_site_label_2
_geom_bond_distance
_geom_bond_site_symmetry_2
B0 B6 1.857382 1_555
B0 B1 1.997210 1_545
B0 B1 1.997210 1_655
B0 Y0 2.668181 1_555
B0 Y4 2.674910 1_545
B0 Y4 2.674910 1_655
B0 Y5 2.721076 1_555
B0 Y1 2.738903 1_655
B0 Y1 2.738904 1_545
B1 B7 1.866420 1_555
B1 Y1 2.646110 1_555
B1 Y5 2.684878 1_565
B1 Y5 2.684878 1_455
B1 Y4 2.696797 1_555
B1 Y0 2.751139 1_455
B1 Y0 2.751140 1_565
B2 B4 1.857382 1_555
B2 B3 1.997210 1_544
B2 B3 1.997210 1_654
B2 Y2 2.668181 1_555
B2 Y4 2.674910 1_545
B2 Y4 2.674910 1_655
B2 Y5 2.721076 1_554
B2 Y3 2.738903 1_654
B2 Y3 2.738904 1_544
B3 B5 1.866420 1_555
B3 Y3 2.646110 1_555
B3 Y5 2.684878 1_565
B3 Y5 2.684878 1_455
B3 Y4 2.696797 1_556
B3 Y2 2.751139 1_456
B3 Y2 2.751140 1_566
B4 B8 1.814964 1_555
B4 B6 1.863497 1_555
B4 Os0 2.319518 1_655
B4 Os0 2.319519 1_545
B4 Y4 2.658105 1_545
B4 Y4 2.658106 1_655
B4 Y3 2.663245 1_654
B4 Y3 2.663246 1_544
B5 B9 1.838826 1_555
B5 B7 1.877021 1_555
B5 V0 2.346677 1_455
B5 V0 2.346678 1_565
B5 Y5 2.637342 1_565
B5 Y5 2.637342 1_455
B5 Y2 2.665133 1_456
B5 Y2 2.665133 1_566
B6 Os0 2.319518 1_655
B6 Os0 2.319519 1_545
B6 Y4 2.658105 1_545
B6 Y4 2.658106 1_655
B6 Y1 2.663245 1_655
B6 Y1 2.663246 1_545
B7 V0 2.346677 1_455
B7 V0 2.346678 1_565
B7 Y5 2.637342 1_565
B7 Y5 2.637342 1_455
B7 Y0 2.665133 1_455
B7 Y0 2.665133 1_565
B8 B9 1.907536 1_554
B8 Os0 2.324748 1_545
B8 Os0 2.324748 1_655
B8 Y3 2.643992 1_544
B8 Y3 2.643992 1_654
B8 Y2 2.678014 1_565
B8 Y2 2.678014 1_455
B9 V0 2.328137 1_565
B9 V0 2.328137 1_455
B9 Y2 2.640515 1_566
B9 Y2 2.640515 1_456
B9 Y3 2.674933 1_545
B9 Y3 2.674933 1_655
B10 B12 1.746826 1_555
B10 B6 1.814964 1_555
B10 B11 1.907536 1_555
B10 Os0 2.324748 1_545
B10 Os0 2.324748 1_655
B10 Y1 2.643992 1_545
B10 Y1 2.643992 1_655
B10 Y0 2.678014 1_565
B10 Y0 2.678014 1_455
B11 B13 1.759322 1_555
B11 B7 1.838826 1_555
B11 V0 2.328137 1_565
B11 V0 2.328137 1_455
B11 Y0 2.640515 1_565
B11 Y0 2.640515 1_455
B11 Y1 2.674933 1_545
B11 Y1 2.674933 1_655
B12 B8 1.746826 1_555
B12 Os0 2.315292 1_545
B12 Os0 2.315292 1_655
B12 Y0 2.689254 1_565
B12 Y2 2.689254 1_565
B12 Y0 2.689254 1_455
B12 Y2 2.689254 1_455
B13 B9 1.759322 1_555
B13 V0 2.301130 1_565
B13 V0 2.301130 1_455
B13 Y1 2.690959 1_545
B13 Y3 2.690959 1_545
B13 Y1 2.690959 1_655
B13 Y3 2.690959 1_655
