# generated using pymatgen
data_CrSi12(P4Ir)3
_symmetry_space_group_name_H-M   'P 1'
_cell_length_a   5.89685918
_cell_length_b   6.09062584
_cell_length_c   13.08909453
_cell_angle_alpha   89.75775123
_cell_angle_beta   90.19939120
_cell_angle_gamma   90.37417679
_symmetry_Int_Tables_number   1
_chemical_formula_structural   CrSi12(P4Ir)3
_chemical_formula_sum   'Cr1 Si12 P12 Ir3'
_cell_volume   470.08516975
_cell_formula_units_Z   1
loop_
 _symmetry_equiv_pos_site_id
 _symmetry_equiv_pos_as_xyz
  1  'x, y, z'
loop_
 _atom_site_type_symbol
 _atom_site_label
 _atom_site_symmetry_multiplicity
 _atom_site_fract_x
 _atom_site_fract_y
 _atom_site_fract_z
 _atom_site_occupancy
  Cr  Cr0  1  0.02792607  0.51838722  0.38735040  1
  Si  Si0  1  0.97286003  0.15641673  0.31361810  1
  Si  Si1  1  0.46603663  0.84160094  0.68200070  1
  Si  Si2  1  0.93189790  0.62344805  0.21198192  1
  Si  Si3  1  0.43051337  0.36951976  0.78673030  1
  Si  Si4  1  0.34123761  0.91449293  0.95045109  1
  Si  Si5  1  0.84148164  0.08216531  0.04791681  1
  Si  Si6  1  0.91676852  0.52915366  0.67432356  1
  Si  Si7  1  0.41893134  0.47060936  0.32503916  1
  Si  Si8  1  0.99689668  0.06393636  0.57080019  1
  Si  Si9  1  0.49472924  0.94406359  0.42912254  1
  Si  Si10  1  0.90729779  0.62223515  0.92722629  1
  Si  Si11  1  0.40656630  0.37499863  0.07196804  1
  P  P0  1  0.57835629  0.02816500  0.82541794  1
  P  P1  1  0.08050128  0.96538079  0.17217671  1
  P  P2  1  0.51741272  0.55886926  0.92988050  1
  P  P3  1  0.01752378  0.43699836  0.06887726  1
  P  P4  1  0.61116432  0.11546681  0.57310069  1
  P  P5  1  0.10955762  0.89230005  0.42737376  1
  P  P6  1  0.54685510  0.64407763  0.17925920  1
  P  P7  1  0.04507960  0.35557798  0.81974063  1
  P  P8  1  0.58349713  0.13299386  0.28746097  1
  P  P9  1  0.07974835  0.86788572  0.71089788  1
  P  P10  1  0.15539674  0.40240885  0.55686414  1
  P  P11  1  0.64596004  0.60588944  0.44941290  1
  Ir  Ir0  1  0.96585434  0.98460665  0.87900448  1
  Ir  Ir1  1  0.46688738  0.01294630  0.11976964  1
  Ir  Ir2  1  0.53686520  0.48540863  0.62223217  1
loop_
_geom_bond_atom_site_label_1
_geom_bond_atom_site_label_2
_geom_bond_distance
_geom_bond_site_symmetry_2
Cr0 P5 2.384650 1_555
Cr0 Si0 2.429748 1_455
Cr0 P10 2.443165 1_555
Cr0 Si2 2.445875 1_455
Cr0 P11 2.459534 1_455
Cr0 Si7 2.467793 1_555
P0 Si4 2.259759 1_545
P0 Si1 2.292005 1_545
P0 Si3 2.313155 1_555
P1 Si5 2.263895 1_465
P1 Si0 2.284776 1_465
P1 Si2 2.312287 1_455
P2 Si3 2.259920 1_555
P2 Si11 2.263081 1_556
P2 Si10 2.329132 1_555
P2 Si4 2.424761 1_555
P3 Si2 2.255022 1_455
P3 Si10 2.261960 1_454
P3 Si11 2.327617 1_555
P3 Si5 2.407745 1_455
P4 Si9 2.260759 1_545
P4 Si8 2.298508 1_555
P4 Si1 2.348654 1_545
P5 Si8 2.256733 1_465
P5 Si9 2.291088 1_555
P5 Si0 2.332983 1_465
P6 Si7 2.304086 1_555
P6 Si11 2.309995 1_555
P6 Si2 2.313246 1_555
P7 Si6 2.301388 1_455
P7 Si10 2.306882 1_455
P7 Si3 2.315976 1_555
P8 Si9 2.239889 1_545
P8 Si0 2.323776 1_555
P8 Si7 2.334505 1_555
P9 Si8 2.238306 1_465
P9 Si1 2.317053 1_555
P9 Si6 2.321298 1_455
P10 Si6 2.231367 1_455
P10 Si8 2.264842 1_455
P11 Si7 2.259004 1_555
P11 Si9 2.264038 1_555
Ir0 Si10 2.317015 1_555
Ir0 P0 2.403925 1_565
Ir0 Si5 2.409805 1_566
Ir0 P9 2.414084 1_655
Ir0 P7 2.428786 1_665
Ir0 Si4 2.439552 1_655
Ir1 Si11 2.318967 1_555
Ir1 P1 2.397175 1_545
Ir1 Si4 2.411271 1_544
Ir1 P8 2.412809 1_555
Ir1 P6 2.423339 1_545
Ir1 Si5 2.437328 1_555
Ir2 Si3 2.349096 1_555
Ir2 Si1 2.349759 1_555
Ir2 Si6 2.353220 1_555
Ir2 P4 2.389442 1_555
Ir2 P10 2.454205 1_555
Ir2 P11 2.461526 1_555
