# generated using pymatgen
data_Ca5Rh2Au
_symmetry_space_group_name_H-M   'P 1'
_cell_length_a   8.85269707
_cell_length_b   8.85269719
_cell_length_c   8.85269665
_cell_angle_alpha   128.58053131
_cell_angle_beta   128.58053243
_cell_angle_gamma   75.68646103
_symmetry_Int_Tables_number   1
_chemical_formula_structural   Ca5Rh2Au
_chemical_formula_sum   'Ca10 Rh4 Au2'
_cell_volume   412.42801881
_cell_formula_units_Z   2
loop_
 _symmetry_equiv_pos_site_id
 _symmetry_equiv_pos_as_xyz
  1  'x, y, z'
loop_
 _atom_site_type_symbol
 _atom_site_label
 _atom_site_symmetry_multiplicity
 _atom_site_fract_x
 _atom_site_fract_y
 _atom_site_fract_z
 _atom_site_occupancy
  Ca  Ca0  1  0.46780683  0.96780683  0.16271279  1
  Ca  Ca1  1  0.19490696  0.69490696  0.16271279  1
  Ca  Ca2  1  0.53219317  0.03219317  0.83728721  1
  Ca  Ca3  1  0.03219317  0.19490696  0.50000000  1
  Ca  Ca4  1  0.69490696  0.53219317  0.50000000  1
  Ca  Ca5  1  0.96780683  0.80509304  0.50000000  1
  Ca  Ca6  1  0.00000000  0.00000000  0.00000000  1
  Ca  Ca7  1  0.50000000  0.50000000  0.00000000  1
  Ca  Ca8  1  0.80509304  0.30509304  0.83728721  1
  Ca  Ca9  1  0.30509304  0.46780683  0.50000000  1
  Rh  Rh0  1  0.12359293  0.62359293  0.74718586  1
  Rh  Rh1  1  0.62359293  0.87640707  0.50000000  1
  Rh  Rh2  1  0.37640707  0.12359293  0.50000000  1
  Rh  Rh3  1  0.87640707  0.37640707  0.25281414  1
  Au  Au0  1  0.75000000  0.75000000  0.00000000  1
  Au  Au1  1  0.25000000  0.25000000  0.00000000  1
loop_
_geom_bond_atom_site_label_1
_geom_bond_atom_site_label_2
_geom_bond_distance
_geom_bond_site_symmetry_2
Ca0 Rh0 2.955149 1_554
Ca0 Rh1 2.966113 1_555
Ca0 Rh2 2.966113 1_565
Ca0 Ca6 3.434402 1_565
Ca0 Ca7 3.434402 1_555
Ca1 Rh0 2.955140 1_554
Ca1 Rh1 2.966104 1_555
Ca1 Rh2 2.966104 1_565
Ca1 Ca7 3.434395 1_555
Ca1 Ca6 3.434395 1_565
Ca2 Rh3 2.955149 1_556
Ca2 Rh2 2.966113 1_555
Ca2 Rh1 2.966113 1_545
Ca2 Ca6 3.434402 1_656
Ca2 Ca7 3.434402 1_556
Ca3 Rh2 2.955148 1_555
Ca3 Rh3 2.966105 1_455
Ca3 Rh0 2.966105 1_555
Ca3 Ca6 3.434400 1_555
Ca3 Ca7 3.434400 1_556
Ca4 Rh1 2.955148 1_555
Ca4 Rh0 2.966105 1_655
Ca4 Rh3 2.966105 1_555
Ca4 Ca7 3.434400 1_555
Ca4 Ca6 3.434400 1_666
Ca5 Rh1 2.955148 1_555
Ca5 Rh0 2.966105 1_655
Ca5 Rh3 2.966105 1_555
Ca5 Ca6 3.434400 1_666
Ca5 Ca7 3.434400 1_555
Ca6 Rh2 3.042975 1_555
Ca6 Rh1 3.042975 1_444
Ca6 Rh0 3.042975 1_544
Ca6 Rh3 3.042975 1_455
Ca6 Ca8 3.434395 1_454
Ca6 Ca9 3.434400 1_555
Ca7 Rh1 3.042975 1_555
Ca7 Rh2 3.042975 1_554
Ca7 Rh0 3.042975 1_554
Ca7 Rh3 3.042975 1_555
Ca7 Ca8 3.434395 1_554
Ca7 Ca9 3.434400 1_554
Ca8 Rh3 2.955140 1_556
Ca8 Rh2 2.966104 1_555
Ca8 Rh1 2.966104 1_545
Ca9 Rh2 2.955148 1_555
Ca9 Rh3 2.966105 1_455
Ca9 Rh0 2.966105 1_555
Rh0 Rh3 2.685010 1_455
Rh1 Rh2 2.685010 1_565
Au0 Ca2 3.267398 1_564
Au0 Ca0 3.267398 1_555
Au0 Ca5 3.267403 1_555
Au0 Ca4 3.267403 1_554
Au0 Ca9 3.267403 1_554
Au0 Ca3 3.267403 1_665
Au0 Ca1 3.267405 1_655
Au0 Ca8 3.267405 1_554
Au0 Ca7 3.495454 1_555
Au0 Ca6 3.495454 1_665
Au1 Ca0 3.267398 1_545
Au1 Ca2 3.267398 1_554
Au1 Ca3 3.267403 1_554
Au1 Ca9 3.267403 1_555
Au1 Ca4 3.267403 1_555
Au1 Ca5 3.267403 1_444
Au1 Ca8 3.267405 1_454
Au1 Ca1 3.267405 1_555
Au1 Ca7 3.495454 1_555
Au1 Ca6 3.495454 1_555
