# generated using pymatgen
data_Li3Cr2(PO4)3
_symmetry_space_group_name_H-M   'P 1'
_cell_length_a   8.62698393
_cell_length_b   8.62698393
_cell_length_c   8.57196842
_cell_angle_alpha   61.27196647
_cell_angle_beta   61.27196647
_cell_angle_gamma   60.43595114
_symmetry_Int_Tables_number   1
_chemical_formula_structural   Li3Cr2(PO4)3
_chemical_formula_sum   'Li6 Cr4 P6 O24'
_cell_volume   461.14147875
_cell_formula_units_Z   2
loop_
 _symmetry_equiv_pos_site_id
 _symmetry_equiv_pos_as_xyz
  1  'x, y, z'
loop_
 _atom_site_type_symbol
 _atom_site_label
 _atom_site_symmetry_multiplicity
 _atom_site_fract_x
 _atom_site_fract_y
 _atom_site_fract_z
 _atom_site_occupancy
  Li  Li0  1  0.68287000  0.94215600  0.80907500  1
  Li  Li1  1  0.30893800  0.05990800  0.21145400  1
  Li  Li2  1  0.05990800  0.30893800  0.71145400  1
  Li  Li3  1  0.63526000  0.37528800  0.74980500  1
  Li  Li4  1  0.37528800  0.63526000  0.24980500  1
  Li  Li5  1  0.94215600  0.68287000  0.30907400  1
  Cr  Cr0  1  0.64144500  0.14603100  0.14399700  1
  Cr  Cr1  1  0.14603100  0.64144500  0.64399700  1
  Cr  Cr2  1  0.85238900  0.35608500  0.36885400  1
  Cr  Cr3  1  0.35608500  0.85238900  0.86885400  1
  P  P0  1  0.04356100  0.95426100  0.25653500  1
  P  P1  1  0.52416200  0.75222800  0.46402700  1
  P  P2  1  0.47421200  0.24553100  0.54945100  1
  P  P3  1  0.95426100  0.04356100  0.75653500  1
  P  P4  1  0.75222800  0.52416200  0.96402700  1
  P  P5  1  0.24553100  0.47421200  0.04945100  1
  O  O0  1  0.70695100  0.37707500  0.95154200  1
  O  O1  1  0.05830700  0.46730500  0.21046200  1
  O  O2  1  0.01466500  0.11138000  0.31590400  1
  O  O3  1  0.11138000  0.01466500  0.81590400  1
  O  O4  1  0.88693500  0.98352600  0.19657200  1
  O  O5  1  0.98352600  0.88693500  0.69657200  1
  O  O6  1  0.93902200  0.53134300  0.80306100  1
  O  O7  1  0.59766100  0.72277200  0.93201300  1
  O  O8  1  0.52632500  0.24152300  0.35438900  1
  O  O9  1  0.24156800  0.93515800  0.10002800  1
  O  O10  1  0.75522900  0.47211000  0.15958500  1
  O  O11  1  0.29103800  0.62153300  0.06124300  1
  O  O12  1  0.72277200  0.59766100  0.43201300  1
  O  O13  1  0.37707500  0.70695100  0.45154200  1
  O  O14  1  0.39852900  0.27514500  0.08415300  1
  O  O15  1  0.93515800  0.24156800  0.60002800  1
  O  O16  1  0.06270800  0.75684300  0.41339900  1
  O  O17  1  0.47211000  0.75522900  0.65958500  1
  O  O18  1  0.62153300  0.29103800  0.56124300  1
  O  O19  1  0.27514500  0.39852900  0.58415300  1
  O  O20  1  0.46730500  0.05830700  0.71046200  1
  O  O21  1  0.24152300  0.52632500  0.85438900  1
  O  O22  1  0.75684300  0.06270800  0.91339900  1
  O  O23  1  0.53134300  0.93902200  0.30306100  1
loop_
_geom_bond_atom_site_label_1
_geom_bond_atom_site_label_2
_geom_bond_distance
_geom_bond_site_symmetry_2
Li0 O7 1.985904 1_555
Li0 O20 2.008752 1_565
Li0 O22 2.094309 1_565
Li0 O5 2.168476 1_555
Li1 O14 1.973227 1_555
Li1 O23 2.017958 1_545
Li1 O2 2.128026 1_555
Li1 O9 2.132457 1_545
Li2 O19 1.973227 1_555
Li2 O6 2.017958 1_455
Li2 O3 2.128026 1_555
Li2 O15 2.132457 1_455
Li3 O0 2.106263 1_555
Li3 O18 2.133813 1_555
Li3 O15 2.226717 1_555
Li3 O22 2.307837 1_555
Li3 O12 2.469707 1_555
Li4 O13 2.106263 1_555
Li4 O11 2.133813 1_555
Li4 O9 2.226717 1_555
Li4 O16 2.307837 1_555
Li4 O7 2.469707 1_554
Li5 O12 1.985903 1_555
Li5 O1 2.008746 1_655
Li5 O16 2.094316 1_655
Li5 O4 2.168476 1_555
Cr0 O8 1.953608 1_555
Cr0 O4 2.008497 1_545
Cr0 O23 2.009662 1_545
Cr0 O0 2.016963 1_554
Cr0 O14 2.018970 1_555
Cr0 O22 2.045261 1_554
Cr1 O21 1.953608 1_555
Cr1 O5 2.008497 1_455
Cr1 O6 2.009662 1_455
Cr1 O13 2.016963 1_555
Cr1 O19 2.018970 1_555
Cr1 O16 2.045261 1_555
Cr2 O10 1.952895 1_555
Cr2 O2 2.004095 1_655
Cr2 O1 2.007706 1_655
Cr2 O18 2.014176 1_555
Cr2 O12 2.022348 1_555
Cr2 O15 2.048127 1_555
Cr3 O17 1.952895 1_555
Cr3 O3 2.004095 1_565
Cr3 O20 2.007706 1_565
Cr3 O11 2.014176 1_556
Cr3 O7 2.022348 1_555
Cr3 O9 2.048127 1_556
O0 P4 1.560130 1_555
O1 P5 1.546023 1_555
O2 P0 1.538226 1_545
O3 P3 1.538226 1_455
O4 P0 1.536221 1_655
O5 P3 1.536221 1_565
O6 P4 1.543822 1_555
O7 P4 1.560241 1_555
O8 P2 1.522078 1_555
O9 P0 1.573745 1_555
O10 P4 1.522819 1_554
O11 P5 1.560009 1_555
O12 P1 1.560241 1_555
O13 P1 1.560130 1_555
O14 P5 1.558678 1_555
O15 P3 1.573745 1_555
O16 P0 1.571748 1_555
O17 P1 1.522819 1_555
O18 P2 1.560009 1_555
O19 P2 1.558678 1_555
O20 P2 1.546023 1_555
O21 P5 1.522078 1_556
O22 P3 1.571748 1_555
O23 P1 1.543822 1_555
