# generated using pymatgen
data_KY10(C2I9)2
_symmetry_space_group_name_H-M   'P 1'
_cell_length_a   11.33521267
_cell_length_b   11.30739926
_cell_length_c   11.45207308
_cell_angle_alpha   113.44487446
_cell_angle_beta   86.67404924
_cell_angle_gamma   119.59411645
_symmetry_Int_Tables_number   1
_chemical_formula_structural   KY10(C2I9)2
_chemical_formula_sum   'K1 Y10 C4 I18'
_cell_volume   1153.20164018
_cell_formula_units_Z   1
loop_
 _symmetry_equiv_pos_site_id
 _symmetry_equiv_pos_as_xyz
  1  'x, y, z'
loop_
 _atom_site_type_symbol
 _atom_site_label
 _atom_site_symmetry_multiplicity
 _atom_site_fract_x
 _atom_site_fract_y
 _atom_site_fract_z
 _atom_site_occupancy
  K  K0  1  0.50000000  0.00000000  0.50000000  1
  Y  Y0  1  0.67706711  0.72465935  0.71137094  1
  Y  Y1  1  0.27832270  0.35567053  0.01643662  1
  Y  Y2  1  0.09374847  0.39465696  0.29425444  1
  Y  Y3  1  0.96327380  0.03541795  0.32288779  1
  Y  Y4  1  0.90625153  0.60534304  0.70574556  1
  Y  Y5  1  0.10475527  0.94339853  0.99958496  1
  Y  Y6  1  0.03672620  0.96458205  0.67711221  1
  Y  Y7  1  0.32293289  0.27534065  0.28862906  1
  Y  Y8  1  0.72167730  0.64432947  0.98356338  1
  Y  Y9  1  0.89524473  0.05660147  0.00041504  1
  C  C0  1  0.15305283  0.22218028  0.12206787  1
  C  C1  1  0.84694717  0.77781972  0.87793213  1
  C  C2  1  0.92377687  0.85529952  0.80216050  1
  C  C3  1  0.07622313  0.14470048  0.19783950  1
  I  I0  1  0.44632908  0.52805201  0.83167218  1
  I  I1  1  0.38452415  0.03709058  0.15560476  1
  I  I2  1  0.77787951  0.85981841  0.50200242  1
  I  I3  1  0.83750931  0.31473230  0.15612668  1
  I  I4  1  0.55367092  0.47194799  0.16832782  1
  I  I5  1  0.22212049  0.14018159  0.49799758  1
  I  I6  1  0.32028972  0.09656141  0.82748078  1
  I  I7  1  0.67971028  0.90343859  0.17251922  1
  I  I8  1  0.97296389  0.74944489  0.16771238  1
  I  I9  1  0.93156163  0.29851142  0.50362053  1
  I  I10  1  0.02703611  0.25055511  0.83228762  1
  I  I11  1  0.06843837  0.70148858  0.49637947  1
  I  I12  1  0.26845272  0.63294734  0.19024619  1
  I  I13  1  0.73154728  0.36705266  0.80975381  1
  I  I14  1  0.64115888  0.43141379  0.49771216  1
  I  I15  1  0.16249069  0.68526770  0.84387332  1
  I  I16  1  0.61547585  0.96290942  0.84439524  1
  I  I17  1  0.35884112  0.56858621  0.50228784  1
loop_
_geom_bond_atom_site_label_1
_geom_bond_atom_site_label_2
_geom_bond_distance
_geom_bond_site_symmetry_2
C0 C3 1.429199 1_555
C0 Y1 2.212399 1_555
C0 Y7 2.465432 1_555
C0 Y2 2.494937 1_555
C0 Y9 2.641772 1_455
C0 Y5 2.659002 1_544
C1 C2 1.429199 1_555
C1 Y8 2.212399 1_555
C1 Y0 2.465432 1_555
C1 Y4 2.494937 1_555
C1 Y5 2.641772 1_655
C1 Y9 2.659002 1_566
C2 Y6 2.202204 1_655
C2 Y0 2.473584 1_555
C2 Y4 2.496905 1_555
C2 Y9 2.640100 1_566
C2 Y5 2.653299 1_655
C3 Y3 2.202204 1_455
C3 Y7 2.473584 1_555
C3 Y2 2.496905 1_555
C3 Y5 2.640100 1_544
C3 Y9 2.653299 1_455
I0 Y8 3.041838 1_555
I0 Y0 3.155475 1_555
I0 Y1 3.324329 1_556
I1 Y7 2.921354 1_555
I1 Y5 3.194442 1_544
I2 Y6 3.064808 1_655
I2 Y0 3.203672 1_555
I2 Y3 3.344503 1_565
I3 Y2 2.925431 1_655
I3 Y9 3.120435 1_555
I4 Y1 3.041838 1_555
I4 Y7 3.155475 1_555
I4 Y8 3.324329 1_554
I5 Y3 3.064808 1_455
I5 Y7 3.203672 1_555
I5 Y6 3.344503 1_545
I6 Y6 3.063238 1_545
I6 Y1 3.115309 1_556
I6 Y5 3.291078 1_545
I7 Y3 3.063238 1_565
I7 Y8 3.115309 1_554
I7 Y9 3.291078 1_565
I8 Y8 3.054824 1_554
I8 Y3 3.062988 1_565
I8 Y5 3.246381 1_654
I9 Y3 3.055074 1_555
I9 Y2 3.146300 1_655
I9 Y4 3.463116 1_555
I10 Y1 3.054824 1_556
I10 Y6 3.062988 1_545
I10 Y9 3.246381 1_456
I11 Y6 3.055074 1_555
I11 Y4 3.146300 1_455
I11 Y2 3.463116 1_555
I12 Y1 3.026414 1_555
I12 Y2 3.100046 1_555
I12 K0 3.911981 1_565
I13 Y8 3.026414 1_555
I13 Y4 3.100046 1_555
I13 K0 3.911981 1_555
I14 Y0 3.077982 1_555
I14 Y4 3.136614 1_555
I14 Y7 3.634760 1_555
I15 Y4 2.925431 1_455
I15 Y5 3.120435 1_555
I16 Y0 2.921354 1_555
I16 Y9 3.194442 1_566
I17 Y7 3.077982 1_555
I17 Y2 3.136614 1_555
I17 Y0 3.634760 1_555
