# generated using pymatgen
data_ScSi3Ni
_symmetry_space_group_name_H-M   'P 1'
_cell_length_a   10.48199976
_cell_length_b   10.48199976
_cell_length_c   3.82633472
_cell_angle_alpha   90.00000000
_cell_angle_beta   90.00000000
_cell_angle_gamma   158.93871527
_symmetry_Int_Tables_number   1
_chemical_formula_structural   ScSi3Ni
_chemical_formula_sum   'Sc2 Si6 Ni2'
_cell_volume   151.08057286
_cell_formula_units_Z   2
loop_
 _symmetry_equiv_pos_site_id
 _symmetry_equiv_pos_as_xyz
  1  'x, y, z'
loop_
 _atom_site_type_symbol
 _atom_site_label
 _atom_site_symmetry_multiplicity
 _atom_site_fract_x
 _atom_site_fract_y
 _atom_site_fract_z
 _atom_site_occupancy
  Sc  Sc0  1  0.16914014  0.83085986  0.00000000  1
  Sc  Sc1  1  0.83085986  0.16914014  -0.00000000  1
  Si  Si0  1  0.71801002  0.28198998  0.50000000  1
  Si  Si1  1  0.44307161  0.55692839  -0.00000000  1
  Si  Si2  1  0.28198998  0.71801002  0.50000000  1
  Si  Si3  1  0.55692839  0.44307161  -0.00000000  1
  Si  Si4  1  0.94291248  0.05708752  0.50000000  1
  Si  Si5  1  0.05708752  0.94291248  0.50000000  1
  Ni  Ni0  1  0.61212406  0.38787594  0.50000000  1
  Ni  Ni1  1  0.38787594  0.61212406  0.50000000  1
loop_
_geom_bond_atom_site_label_1
_geom_bond_atom_site_label_2
_geom_bond_distance
_geom_bond_site_symmetry_2
Sc0 Si0 2.888718 1_454
Sc0 Si0 2.888718 1_565
Sc0 Si0 2.888718 1_564
Sc0 Si0 2.888718 1_455
Sc0 Si5 2.999005 1_555
Sc0 Si5 2.999005 1_554
Sc0 Si3 3.003149 1_455
Sc0 Si3 3.003149 1_565
Sc0 Si2 3.011677 1_555
Sc0 Si2 3.011677 1_554
Sc1 Si2 2.888718 1_655
Sc1 Si2 2.888718 1_654
Sc1 Si2 2.888718 1_544
Sc1 Si2 2.888718 1_545
Sc1 Si4 2.999005 1_554
Sc1 Si4 2.999005 1_555
Sc1 Si1 3.003149 1_545
Sc1 Si1 3.003149 1_655
Sc1 Si0 3.011677 1_555
Sc1 Si0 3.011677 1_554
Si0 Si2 2.325694 1_545
Si0 Si2 2.325694 1_655
Si1 Si3 2.346692 1_555
Si1 Si4 2.707424 1_455
Si1 Si4 2.707424 1_454
Si1 Si4 2.707424 1_565
Si1 Si4 2.707424 1_564
Si3 Si5 2.707424 1_655
Si3 Si5 2.707424 1_545
Si3 Si5 2.707424 1_544
Si3 Si5 2.707424 1_654
Si4 Si5 2.353251 1_645
Ni0 Si0 2.182406 1_555
Ni0 Si3 2.225852 1_556
Ni0 Si3 2.225852 1_555
Ni0 Si5 2.226360 1_545
Ni0 Si5 2.226360 1_655
Ni0 Sc0 2.951460 1_545
Ni0 Sc0 2.951460 1_546
Ni0 Sc0 2.951460 1_655
Ni0 Sc0 2.951460 1_656
Ni1 Si2 2.182406 1_555
Ni1 Si1 2.225852 1_555
Ni1 Si1 2.225852 1_556
Ni1 Si4 2.226360 1_455
Ni1 Si4 2.226360 1_565
Ni1 Sc1 2.951460 1_456
Ni1 Sc1 2.951460 1_455
Ni1 Sc1 2.951460 1_565
Ni1 Sc1 2.951460 1_566
