# generated using pymatgen
data_Hf5ZrMnI12
_symmetry_space_group_name_H-M   'P 1'
_cell_length_a   9.27173810
_cell_length_b   9.25862920
_cell_length_c   9.30430612
_cell_angle_alpha   107.14027828
_cell_angle_beta   107.03140679
_cell_angle_gamma   106.98793715
_symmetry_Int_Tables_number   1
_chemical_formula_structural   Hf5ZrMnI12
_chemical_formula_sum   'Hf5 Zr1 Mn1 I12'
_cell_volume   664.20869931
_cell_formula_units_Z   1
loop_
 _symmetry_equiv_pos_site_id
 _symmetry_equiv_pos_as_xyz
  1  'x, y, z'
loop_
 _atom_site_type_symbol
 _atom_site_label
 _atom_site_symmetry_multiplicity
 _atom_site_fract_x
 _atom_site_fract_y
 _atom_site_fract_z
 _atom_site_occupancy
  Hf  Hf0  1  0.97007052  0.72082235  0.90672924  1
  Hf  Hf1  1  0.28175280  0.09360811  0.03117059  1
  Hf  Hf2  1  0.09281654  0.03098387  0.27978936  1
  Hf  Hf3  1  0.90747114  0.97093418  0.72120093  1
  Hf  Hf4  1  0.71972675  0.90620433  0.96898573  1
  Zr  Zr0  1  0.03072526  0.28458265  0.09463000  1
  Mn  Mn0  1  0.00049985  0.00150860  0.00057122  1
  I  I0  1  0.92226554  0.31084682  0.77278283  1
  I  I1  1  0.68235706  0.21928960  0.07537997  1
  I  I2  1  0.44554573  0.14366557  0.37211179  1
  I  I3  1  0.85576982  0.62842607  0.55436124  1
  I  I4  1  0.22319293  0.07665986  0.68968711  1
  I  I5  1  0.62806094  0.55294922  0.85426210  1
  I  I6  1  0.37707258  0.44673727  0.14472411  1
  I  I7  1  0.77564909  0.92167314  0.30908994  1
  I  I8  1  0.14611482  0.37170458  0.45030082  1
  I  I9  1  0.55385270  0.85516684  0.62802539  1
  I  I10  1  0.31040935  0.77466193  0.92332102  1
  I  I11  1  0.07664659  0.68957700  0.22287761  1
loop_
_geom_bond_atom_site_label_1
_geom_bond_atom_site_label_2
_geom_bond_distance
_geom_bond_site_symmetry_2
Hf0 Mn0 2.384403 1_666
Hf0 I3 2.895776 1_555
Hf0 I5 2.911259 1_555
Hf0 I11 2.945962 1_656
Hf0 I10 2.996637 1_655
Hf0 I0 3.473153 1_555
Hf1 Mn0 2.393938 1_555
Hf1 I6 2.883644 1_555
Hf1 I2 2.912760 1_555
Hf1 I10 2.943777 1_544
Hf1 I4 3.010023 1_554
Hf1 I1 3.408308 1_555
Hf2 Mn0 2.387334 1_555
Hf2 I2 2.890379 1_555
Hf2 I8 2.896996 1_555
Hf2 I7 2.939291 1_445
Hf2 I11 2.997421 1_545
Hf2 I4 3.497895 1_555
Hf3 Mn0 2.385573 1_666
Hf3 I9 2.895475 1_555
Hf3 I3 2.910329 1_555
Hf3 I4 2.934412 1_665
Hf3 I0 2.995406 1_565
Hf3 I7 3.507516 1_555
Hf4 Mn0 2.387179 1_666
Hf4 I5 2.888840 1_555
Hf4 I9 2.913136 1_555
Hf4 I1 2.932428 1_566
Hf4 I7 3.005217 1_556
Hf4 I10 3.480813 1_555
Mn0 Zr0 2.405957 1_555
I0 Zr0 2.974201 1_656
I1 Zr0 3.047392 1_655
I6 Zr0 2.945657 1_555
I8 Zr0 2.931705 1_555
I11 Zr0 3.434753 1_555
