# generated using pymatgen
data_KNa2Cu3P2
_symmetry_space_group_name_H-M   'P 1'
_cell_length_a   7.13109665
_cell_length_b   7.13109660
_cell_length_c   7.13109709
_cell_angle_alpha   43.37078071
_cell_angle_beta   43.37077958
_cell_angle_gamma   43.37078154
_symmetry_Int_Tables_number   1
_chemical_formula_structural   KNa2Cu3P2
_chemical_formula_sum   'K1 Na2 Cu3 P2'
_cell_volume   155.12256475
_cell_formula_units_Z   1
loop_
 _symmetry_equiv_pos_site_id
 _symmetry_equiv_pos_as_xyz
  1  'x, y, z'
loop_
 _atom_site_type_symbol
 _atom_site_label
 _atom_site_symmetry_multiplicity
 _atom_site_fract_x
 _atom_site_fract_y
 _atom_site_fract_z
 _atom_site_occupancy
  K  K0  1  0.50000000  0.50000000  0.50000000  1
  Na  Na0  1  0.91006143  0.91006143  0.91006143  1
  Na  Na1  1  0.08993857  0.08993857  0.08993857  1
  Cu  Cu0  1  0.00000000  0.50000000  0.50000000  1
  Cu  Cu1  1  0.50000000  0.50000000  0.00000000  1
  Cu  Cu2  1  0.50000000  0.00000000  0.50000000  1
  P  P0  1  0.24846622  0.24846622  0.24846622  1
  P  P1  1  0.75153378  0.75153378  0.75153378  1
loop_
_geom_bond_atom_site_label_1
_geom_bond_atom_site_label_2
_geom_bond_distance
_geom_bond_site_symmetry_2
K0 Na0 3.385498 1_554
K0 Na1 3.385498 1_556
K0 Na0 3.385499 1_455
K0 Na1 3.385499 1_655
K0 Na0 3.385499 1_545
K0 Na1 3.385499 1_565
K0 P0 3.429660 1_655
K0 P1 3.429660 1_455
K0 P0 3.429660 1_565
K0 P1 3.429660 1_545
K0 P0 3.429660 1_556
K0 P1 3.429660 1_554
Na0 P0 3.044230 1_566
Na0 P0 3.044230 1_665
Na0 P0 3.044230 1_656
Na0 P1 3.067228 1_555
Na1 P1 3.044230 1_544
Na1 P1 3.044230 1_445
Na1 P1 3.044230 1_454
Na1 P0 3.067228 1_555
Cu0 P1 2.238455 1_455
Cu0 P0 2.238455 1_555
Cu0 Na1 3.157753 1_565
Cu0 Na0 3.157753 1_445
Cu0 Na1 3.157753 1_556
Cu0 Na0 3.157753 1_454
Cu0 K0 3.565548 1_455
Cu0 K0 3.565548 1_555
Cu1 P1 2.238455 1_554
Cu1 P0 2.238455 1_555
Cu1 Na1 3.157753 1_565
Cu1 Na0 3.157753 1_544
Cu1 Na1 3.157753 1_655
Cu1 Na0 3.157753 1_454
Cu1 K0 3.565549 1_555
Cu1 K0 3.565549 1_554
Cu2 P1 2.238455 1_545
Cu2 P0 2.238455 1_555
Cu2 Na1 3.157753 1_655
Cu2 Na0 3.157753 1_445
Cu2 Na1 3.157753 1_556
Cu2 Na0 3.157753 1_544
Cu2 K0 3.565548 1_555
Cu2 K0 3.565548 1_545
