# generated using pymatgen
data_Y3TcB7
_symmetry_space_group_name_H-M   'P 1'
_cell_length_a   8.09992396
_cell_length_b   8.09992317
_cell_length_c   9.35091101
_cell_angle_alpha   90.00000000
_cell_angle_beta   90.00000000
_cell_angle_gamma   154.74697756
_symmetry_Int_Tables_number   1
_chemical_formula_structural   Y3TcB7
_chemical_formula_sum   'Y6 Tc2 B14'
_cell_volume   261.72991472
_cell_formula_units_Z   2
loop_
 _symmetry_equiv_pos_site_id
 _symmetry_equiv_pos_as_xyz
  1  'x, y, z'
loop_
 _atom_site_type_symbol
 _atom_site_label
 _atom_site_symmetry_multiplicity
 _atom_site_fract_x
 _atom_site_fract_y
 _atom_site_fract_z
 _atom_site_occupancy
  Y  Y0  1  0.89549523  0.10450477  0.94023188  1
  Y  Y1  1  0.10450477  0.89549523  0.05976812  1
  Y  Y2  1  0.75919490  0.24080510  0.25000000  1
  Y  Y3  1  0.24080510  0.75919490  0.75000000  1
  Y  Y4  1  0.89549523  0.10450477  0.55976812  1
  Y  Y5  1  0.10450477  0.89549523  0.44023188  1
  Tc  Tc0  1  0.05351562  0.94648438  0.75000000  1
  Tc  Tc1  1  0.94648438  0.05351562  0.25000000  1
  B  B0  1  0.54190305  0.45809695  0.25000000  1
  B  B1  1  0.45809695  0.54190305  0.75000000  1
  B  B2  1  0.52087076  0.47912924  0.90338267  1
  B  B3  1  0.47912924  0.52087076  0.09661733  1
  B  B4  1  0.47912924  0.52087076  0.40338267  1
  B  B5  1  0.52087076  0.47912924  0.59661733  1
  B  B6  1  0.63138555  0.36861445  0.84874217  1
  B  B7  1  0.36861445  0.63138555  0.15125783  1
  B  B8  1  0.72712326  0.27287674  0.96589471  1
  B  B9  1  0.27287674  0.72712326  0.03410529  1
  B  B10  1  0.27287674  0.72712326  0.46589471  1
  B  B11  1  0.72712326  0.27287674  0.53410529  1
  B  B12  1  0.63138555  0.36861445  0.65125783  1
  B  B13  1  0.36861445  0.63138555  0.34874217  1
loop_
_geom_bond_atom_site_label_1
_geom_bond_atom_site_label_2
_geom_bond_distance
_geom_bond_site_symmetry_2
Tc0 Y3 2.960684 1_555
Tc0 Y1 3.006672 1_556
Tc0 Y5 3.006672 1_555
Tc0 Y0 3.066637 1_465
Tc0 Y4 3.066637 1_465
Tc1 Y2 2.960684 1_555
Tc1 Y4 3.006672 1_555
Tc1 Y0 3.006672 1_554
Tc1 Y5 3.066637 1_645
Tc1 Y1 3.066637 1_645
B0 B4 1.744089 1_555
B0 B3 1.744089 1_555
B0 Tc1 2.325995 1_565
B0 Tc1 2.325995 1_455
B0 Y5 2.697895 1_545
B0 Y1 2.697895 1_545
B0 Y5 2.697895 1_655
B0 Y1 2.697895 1_655
B1 B2 1.744089 1_555
B1 B5 1.744089 1_555
B1 Tc0 2.325995 1_545
B1 Tc0 2.325995 1_655
B1 Y0 2.697895 1_565
B1 Y4 2.697895 1_565
B1 Y0 2.697895 1_455
B1 Y4 2.697895 1_455
B2 B6 1.820207 1_555
B2 B3 1.923634 1_556
B2 Tc0 2.336335 1_545
B2 Tc0 2.336335 1_655
B2 Y1 2.649795 1_546
B2 Y1 2.649795 1_656
B2 Y0 2.679900 1_565
B2 Y0 2.679900 1_455
B3 B7 1.820207 1_555
B3 Tc1 2.336335 1_565
B3 Tc1 2.336335 1_455
B3 Y0 2.649795 1_564
B3 Y0 2.649795 1_454
B3 Y1 2.679900 1_545
B3 Y1 2.679900 1_655
B4 B5 1.923634 1_555
B4 Tc1 2.336335 1_565
B4 Tc1 2.336335 1_455
B4 Y4 2.649795 1_565
B4 Y4 2.649795 1_455
B4 Y5 2.679900 1_545
B4 Y5 2.679900 1_655
B5 Tc0 2.336335 1_545
B5 Tc0 2.336335 1_655
B5 Y5 2.649795 1_545
B5 Y5 2.649795 1_655
B5 Y4 2.679900 1_565
B5 Y4 2.679900 1_455
B6 B8 1.868301 1_555
B6 Tc0 2.345817 1_655
B6 Tc0 2.345818 1_545
B6 Y3 2.641868 1_545
B6 Y3 2.641868 1_655
B6 Y1 2.685042 1_656
B6 Y1 2.685042 1_546
B7 B9 1.868301 1_555
B7 Tc1 2.345817 1_455
B7 Tc1 2.345818 1_565
B7 Y2 2.641868 1_565
B7 Y2 2.641868 1_455
B7 Y0 2.685042 1_454
B7 Y0 2.685042 1_564
B8 B9 2.016180 1_546
B8 B9 2.016180 1_656
B8 Y0 2.672431 1_555
B8 Y3 2.693958 1_545
B8 Y3 2.693958 1_655
B8 Y2 2.704587 1_556
B8 Y1 2.768177 1_656
B8 Y1 2.768178 1_546
B9 Y1 2.672431 1_555
B9 Y2 2.693958 1_565
B9 Y2 2.693958 1_455
B9 Y3 2.704587 1_554
B9 Y0 2.768177 1_454
B9 Y0 2.768178 1_564
B10 B13 1.868301 1_555
B10 B11 2.016180 1_565
B10 B11 2.016180 1_455
B10 Y5 2.672431 1_555
B10 Y2 2.693958 1_565
B10 Y2 2.693958 1_455
B10 Y3 2.704587 1_555
B10 Y4 2.768177 1_455
B10 Y4 2.768178 1_565
B11 B12 1.868301 1_555
B11 Y4 2.672431 1_555
B11 Y3 2.693958 1_545
B11 Y3 2.693958 1_655
B11 Y2 2.704587 1_555
B11 Y5 2.768177 1_655
B11 Y5 2.768178 1_545
B12 B5 1.820207 1_555
B12 B6 1.846659 1_555
B12 Tc0 2.345817 1_655
B12 Tc0 2.345818 1_545
B12 Y3 2.641868 1_545
B12 Y3 2.641868 1_655
B12 Y5 2.685042 1_655
B12 Y5 2.685042 1_545
B13 B4 1.820207 1_555
B13 B7 1.846659 1_555
B13 Tc1 2.345817 1_455
B13 Tc1 2.345818 1_565
B13 Y2 2.641868 1_565
B13 Y2 2.641868 1_455
B13 Y4 2.685042 1_455
B13 Y4 2.685042 1_565
