# generated using pymatgen
data_Cs3Ta2AsS11
_symmetry_space_group_name_H-M   'P 1'
_cell_length_a   10.11548634
_cell_length_b   10.11548633
_cell_length_c   9.97744053
_cell_angle_alpha   84.87614811
_cell_angle_beta   84.87615161
_cell_angle_gamma   85.57366183
_symmetry_Int_Tables_number   1
_chemical_formula_structural   Cs3Ta2AsS11
_chemical_formula_sum   'Cs6 Ta4 As2 S22'
_cell_volume   1010.31216151
_cell_formula_units_Z   2
loop_
 _symmetry_equiv_pos_site_id
 _symmetry_equiv_pos_as_xyz
  1  'x, y, z'
loop_
 _atom_site_type_symbol
 _atom_site_label
 _atom_site_symmetry_multiplicity
 _atom_site_fract_x
 _atom_site_fract_y
 _atom_site_fract_z
 _atom_site_occupancy
  Cs  Cs0  1  0.30486679  0.45152376  0.33503097  1
  Cs  Cs1  1  0.45152376  0.30486679  0.83503097  1
  Cs  Cs2  1  0.56667340  0.69815505  0.67049551  1
  Cs  Cs3  1  0.69815505  0.56667340  0.17049551  1
  Cs  Cs4  1  0.92865922  0.09718591  0.92789451  1
  Cs  Cs5  1  0.09718591  0.92865922  0.42789451  1
  Ta  Ta0  1  0.20167132  0.66462811  0.94509799  1
  Ta  Ta1  1  0.66462811  0.20167132  0.44509799  1
  Ta  Ta2  1  0.95235098  0.54094570  0.76205043  1
  Ta  Ta3  1  0.54094570  0.95235098  0.26205043  1
  As  As0  1  0.99940832  0.33060063  0.50777572  1
  As  As1  1  0.33060063  0.99940832  0.00777572  1
  S  S0  1  0.21401156  0.63646027  0.69966598  1
  S  S1  1  0.63646027  0.21401156  0.19966598  1
  S  S2  1  0.23289820  0.82876571  0.75124417  1
  S  S3  1  0.82876571  0.23289820  0.25124417  1
  S  S4  1  0.40397048  0.58676308  0.99740364  1
  S  S5  1  0.58676308  0.40397048  0.49740364  1
  S  S6  1  0.10954379  0.34481157  0.69525816  1
  S  S7  1  0.34481157  0.10954379  0.19525816  1
  S  S8  1  0.56527503  0.05286619  0.62980311  1
  S  S9  1  0.05286619  0.56527503  0.12980311  1
  S  S10  1  0.77172143  0.44083629  0.84641989  1
  S  S11  1  0.44083629  0.77172143  0.34641989  1
  S  S12  1  0.91340332  0.54043446  0.51896775  1
  S  S13  1  0.54043446  0.91340332  0.01896775  1
  S  S14  1  0.88920033  0.77795305  0.70814019  1
  S  S15  1  0.77795305  0.88920033  0.20814019  1
  S  S16  1  0.85211288  0.18198085  0.59280760  1
  S  S17  1  0.18198085  0.85211288  0.09280760  1
  S  S18  1  0.09086688  0.44861339  0.96832819  1
  S  S19  1  0.44861339  0.09086688  0.46832819  1
  S  S20  1  0.93221782  0.72912324  0.90496818  1
  S  S21  1  0.72912324  0.93221782  0.40496818  1
loop_
_geom_bond_atom_site_label_1
_geom_bond_atom_site_label_2
_geom_bond_distance
_geom_bond_site_symmetry_2
Cs0 S5 3.385466 1_555
Cs0 S9 3.474702 1_555
Cs0 S4 3.606886 1_554
Cs0 S11 3.629979 1_555
Cs0 S7 3.823626 1_555
Cs1 S4 3.385466 1_555
Cs1 S8 3.474702 1_555
Cs1 S5 3.606886 1_555
Cs1 S10 3.629979 1_555
Cs1 S6 3.823625 1_555
Cs2 S14 3.480830 1_555
Cs2 S5 3.555463 1_555
Cs2 S8 3.573837 1_565
Cs2 S11 3.576086 1_555
Cs2 S2 3.579072 1_555
Cs2 S10 3.627552 1_555
Cs2 S4 3.645274 1_555
Cs2 S0 3.650462 1_555
Cs2 S21 3.745311 1_555
Cs2 S12 3.968943 1_555
Cs3 S15 3.480830 1_555
Cs3 S4 3.555463 1_554
Cs3 S9 3.573837 1_655
Cs3 S10 3.576086 1_554
Cs3 S3 3.579072 1_555
Cs3 S11 3.627552 1_555
Cs3 S5 3.645274 1_555
Cs3 S1 3.650462 1_555
Cs3 S20 3.745311 1_554
Cs3 S13 3.968943 1_555
Cs4 S16 3.515771 1_555
Cs4 S15 3.640272 1_546
Cs4 S3 3.648106 1_556
Cs4 S6 3.730972 1_655
Cs4 S20 3.747706 1_545
Cs4 S10 3.760166 1_555
Cs4 S17 3.803056 1_646
Cs5 S17 3.515771 1_555
Cs5 S14 3.640272 1_455
Cs5 S2 3.648106 1_555
Cs5 S7 3.730972 1_565
Cs5 S21 3.747706 1_455
Cs5 S11 3.760166 1_555
Cs5 S16 3.803056 1_465
As0 S12 2.239330 1_555
As0 S16 2.256549 1_555
As0 S6 2.281652 1_655
As0 Cs0 3.642754 1_655
As1 S13 2.239330 1_555
As1 S17 2.256549 1_555
As1 S7 2.281652 1_565
As1 Cs1 3.642754 1_564
S0 S2 2.083054 1_555
S0 Ta0 2.481501 1_555
S0 Ta2 2.884380 1_455
S1 S3 2.083054 1_555
S1 Ta1 2.481501 1_555
S1 Ta3 2.884380 1_545
S2 Ta0 2.448610 1_555
S3 Ta1 2.448610 1_555
S4 Ta0 2.224600 1_555
S5 Ta1 2.224600 1_555
S6 Ta2 2.543352 1_455
S7 Ta3 2.543352 1_545
S8 Ta1 2.465603 1_555
S9 Ta0 2.465603 1_554
S10 Ta2 2.220628 1_555
S11 Ta3 2.220628 1_555
S12 Ta2 2.492140 1_555
S13 Ta3 2.492140 1_555
S14 S20 2.058201 1_555
S14 Ta2 2.457595 1_555
S15 S21 2.058201 1_555
S15 Ta3 2.457595 1_555
S16 Ta1 2.489349 1_555
S17 Ta0 2.489349 1_554
S18 S9 2.072437 1_556
S18 Ta0 2.515117 1_555
S18 Ta2 2.653523 1_455
S19 S8 2.072437 1_555
S19 Ta1 2.515117 1_555
S19 Ta3 2.653523 1_545
S20 Ta2 2.463996 1_555
S20 Ta0 2.808723 1_655
S21 Ta3 2.463996 1_555
S21 Ta1 2.808723 1_565
