# generated using pymatgen
data_K3NaI2O9
_symmetry_space_group_name_H-M   'P 1'
_cell_length_a   5.98054635
_cell_length_b   5.98054641
_cell_length_c   14.69744875
_cell_angle_alpha   90.00000000
_cell_angle_beta   90.00000000
_cell_angle_gamma   119.99999967
_symmetry_Int_Tables_number   1
_chemical_formula_structural   K3NaI2O9
_chemical_formula_sum   'K6 Na2 I4 O18'
_cell_volume   455.25456943
_cell_formula_units_Z   2
loop_
 _symmetry_equiv_pos_site_id
 _symmetry_equiv_pos_as_xyz
  1  'x, y, z'
loop_
 _atom_site_type_symbol
 _atom_site_label
 _atom_site_symmetry_multiplicity
 _atom_site_fract_x
 _atom_site_fract_y
 _atom_site_fract_z
 _atom_site_occupancy
  K  K0  1  0.00000000  0.00000000  0.25000000  1
  K  K1  1  0.00000000  0.00000000  0.75000000  1
  K  K2  1  0.33333300  0.66666700  0.08798832  1
  K  K3  1  0.66666700  0.33333300  0.58798832  1
  K  K4  1  0.66666700  0.33333300  0.91201168  1
  K  K5  1  0.33333300  0.66666700  0.41201168  1
  Na  Na0  1  0.00000000  0.00000000  0.00000000  1
  Na  Na1  1  0.00000000  0.00000000  0.50000000  1
  I  I0  1  0.33333300  0.66666700  0.84758959  1
  I  I1  1  0.66666700  0.33333300  0.34758959  1
  I  I2  1  0.66666700  0.33333300  0.15241041  1
  I  I3  1  0.33333300  0.66666700  0.65241041  1
  O  O0  1  0.52947563  0.05894926  0.25000000  1
  O  O1  1  0.47052437  0.52947563  0.75000000  1
  O  O2  1  0.05894926  0.52947563  0.75000000  1
  O  O3  1  0.94105074  0.47052437  0.25000000  1
  O  O4  1  0.52947563  0.47052437  0.25000000  1
  O  O5  1  0.47052437  0.94105074  0.75000000  1
  O  O6  1  0.36135519  0.18067710  0.09381881  1
  O  O7  1  0.18067710  0.36135519  0.59381881  1
  O  O8  1  0.18067710  0.81932290  0.59381881  1
  O  O9  1  0.81932290  0.18067710  0.09381881  1
  O  O10  1  0.81932290  0.63864481  0.09381881  1
  O  O11  1  0.18067710  0.81932290  0.90618119  1
  O  O12  1  0.63864481  0.81932290  0.90618119  1
  O  O13  1  0.63864481  0.81932290  0.59381881  1
  O  O14  1  0.18067710  0.36135519  0.90618119  1
  O  O15  1  0.81932290  0.63864481  0.40618119  1
  O  O16  1  0.81932290  0.18067710  0.40618119  1
  O  O17  1  0.36135519  0.18067710  0.40618119  1
loop_
_geom_bond_atom_site_label_1
_geom_bond_atom_site_label_2
_geom_bond_distance
_geom_bond_site_symmetry_2
K0 O16 2.961741 1_455
K0 O9 2.961741 1_455
K0 O17 2.961744 1_555
K0 O6 2.961744 1_555
K0 O15 2.961744 1_445
K0 O10 2.961744 1_445
K0 O0 3.005814 1_455
K0 O3 3.005814 1_455
K0 O4 3.005821 1_555
K0 O4 3.005821 1_445
K0 O0 3.005826 1_555
K0 O3 3.005826 1_445
K1 O11 2.961741 1_545
K1 O8 2.961741 1_545
K1 O12 2.961744 1_445
K1 O13 2.961744 1_445
K1 O14 2.961744 1_555
K1 O7 2.961744 1_555
K1 O5 3.005814 1_545
K1 O2 3.005814 1_545
K1 O1 3.005821 1_445
K1 O1 3.005821 1_555
K1 O5 3.005826 1_445
K1 O2 3.005826 1_555
K2 O10 2.995013 1_455
K2 O6 2.995013 1_565
K2 O9 2.995019 1_455
K2 O9 2.995019 1_565
K2 O10 2.995025 1_555
K2 O6 2.995025 1_555
K2 O12 3.104938 1_554
K2 O11 3.104938 1_554
K2 O14 3.104938 1_554
K2 O3 3.130163 1_455
K2 O0 3.130163 1_565
K2 O4 3.130173 1_555
K3 O7 2.995013 1_655
K3 O13 2.995013 1_545
K3 O8 2.995019 1_655
K3 O8 2.995019 1_545
K3 O7 2.995025 1_555
K3 O13 2.995025 1_555
K3 O17 3.104938 1_555
K3 O16 3.104938 1_555
K3 O15 3.104938 1_555
K3 O2 3.130163 1_655
K3 O5 3.130163 1_545
K3 O1 3.130173 1_555
K4 O14 2.995013 1_655
K4 O12 2.995013 1_545
K4 O11 2.995019 1_655
K4 O11 2.995019 1_545
K4 O14 2.995025 1_555
K4 O12 2.995025 1_555
K4 O6 3.104938 1_556
K4 O9 3.104938 1_556
K4 O10 3.104938 1_556
K4 O2 3.130163 1_655
K4 O5 3.130163 1_545
K4 O1 3.130173 1_555
K5 O15 2.995013 1_455
K5 O17 2.995013 1_565
K5 O16 2.995019 1_455
K5 O16 2.995019 1_565
K5 O15 2.995025 1_555
K5 O17 2.995025 1_555
K5 O13 3.104938 1_555
K5 O8 3.104938 1_555
K5 O7 3.104938 1_555
K5 O3 3.130163 1_455
K5 O0 3.130163 1_565
K5 O4 3.130173 1_555
Na0 O11 2.324674 1_544
Na0 O9 2.324674 1_455
Na0 O6 2.324678 1_555
Na0 O12 2.324678 1_444
Na0 O10 2.324678 1_445
Na0 O14 2.324678 1_554
Na1 O8 2.324674 1_545
Na1 O16 2.324674 1_455
Na1 O13 2.324678 1_445
Na1 O17 2.324678 1_555
Na1 O7 2.324678 1_555
Na1 O15 2.324678 1_445
I0 O12 1.800581 1_555
I0 O11 1.800581 1_555
I0 O14 1.800581 1_555
I0 O1 2.019115 1_555
I0 O2 2.019119 1_555
I0 O5 2.019119 1_555
I1 O17 1.800581 1_555
I1 O16 1.800581 1_555
I1 O15 1.800581 1_555
I1 O4 2.019115 1_555
I1 O3 2.019119 1_555
I1 O0 2.019119 1_555
I2 O6 1.800581 1_555
I2 O9 1.800581 1_555
I2 O10 1.800581 1_555
I2 O4 2.019115 1_555
I2 O3 2.019119 1_555
I2 O0 2.019119 1_555
I3 O13 1.800581 1_555
I3 O8 1.800581 1_555
I3 O7 1.800581 1_555
I3 O1 2.019115 1_555
I3 O2 2.019119 1_555
I3 O5 2.019119 1_555
