# generated using pymatgen
data_Tm2MoO6
_symmetry_space_group_name_H-M   'P 1'
_cell_length_a   9.74301584
_cell_length_b   9.74301584
_cell_length_c   5.26424259
_cell_angle_alpha   74.71188174
_cell_angle_beta   74.71188174
_cell_angle_gamma   67.73692881
_symmetry_Int_Tables_number   1
_chemical_formula_structural   Tm2MoO6
_chemical_formula_sum   'Tm8 Mo4 O24'
_cell_volume   438.52626434
_cell_formula_units_Z   4
loop_
 _symmetry_equiv_pos_site_id
 _symmetry_equiv_pos_as_xyz
  1  'x, y, z'
loop_
 _atom_site_type_symbol
 _atom_site_label
 _atom_site_symmetry_multiplicity
 _atom_site_fract_x
 _atom_site_fract_y
 _atom_site_fract_z
 _atom_site_occupancy
  Tm  Tm0  1  0.55017333  0.78275291  0.62297779  1
  Tm  Tm1  1  0.78275291  0.55017333  0.12297779  1
  Tm  Tm2  1  0.44982667  0.21724709  0.37702221  1
  Tm  Tm3  1  0.21724709  0.44982667  0.87702221  1
  Tm  Tm4  1  0.86245722  0.13754278  0.25000000  1
  Tm  Tm5  1  0.13754278  0.86245722  0.75000000  1
  Tm  Tm6  1  0.39397886  0.60602114  0.25000000  1
  Tm  Tm7  1  0.60602114  0.39397886  0.75000000  1
  Mo  Mo0  1  0.29469559  0.01543795  0.06270603  1
  Mo  Mo1  1  0.98456205  0.70530441  0.43729397  1
  Mo  Mo2  1  0.70530441  0.98456205  0.93729397  1
  Mo  Mo3  1  0.01543795  0.29469559  0.56270603  1
  O  O0  1  0.61093189  0.57151226  0.92098509  1
  O  O1  1  0.42848774  0.38906811  0.57901491  1
  O  O2  1  0.38906811  0.42848774  0.07901491  1
  O  O3  1  0.57151226  0.61093189  0.42098509  1
  O  O4  1  0.33722087  0.80508405  0.91860300  1
  O  O5  1  0.19491595  0.66277913  0.58139700  1
  O  O6  1  0.66277913  0.19491595  0.08139700  1
  O  O7  1  0.80508405  0.33722087  0.41860300  1
  O  O8  1  0.32562055  0.88566713  0.37398822  1
  O  O9  1  0.11433287  0.67437945  0.12601178  1
  O  O10  1  0.67437945  0.11433287  0.62601178  1
  O  O11  1  0.88566713  0.32562055  0.87398822  1
  O  O12  1  0.18696444  0.28846053  0.63842535  1
  O  O13  1  0.71153947  0.81303556  0.86157465  1
  O  O14  1  0.81303556  0.71153947  0.36157465  1
  O  O15  1  0.28846053  0.18696444  0.13842535  1
  O  O16  1  0.04936360  0.10960663  0.51356577  1
  O  O17  1  0.89039337  0.95063640  0.98643423  1
  O  O18  1  0.43302206  0.02413273  0.75543884  1
  O  O19  1  0.10960663  0.04936360  0.01356577  1
  O  O20  1  0.02413273  0.43302206  0.25543884  1
  O  O21  1  0.56697794  0.97586727  0.24456116  1
  O  O22  1  0.97586727  0.56697794  0.74456116  1
  O  O23  1  0.95063640  0.89039337  0.48643423  1
loop_
_geom_bond_atom_site_label_1
_geom_bond_atom_site_label_2
_geom_bond_distance
_geom_bond_site_symmetry_2
Mo0 O19 1.782531 1_555
Mo0 O15 1.793608 1_555
Mo0 O8 1.803811 1_545
Mo0 O18 1.817847 1_554
Mo0 O4 2.226705 1_544
Mo1 O23 1.782531 1_555
Mo1 O14 1.793608 1_555
Mo1 O9 1.803811 1_655
Mo1 O22 1.817847 1_555
Mo1 O5 2.226705 1_655
Mo2 O17 1.782531 1_555
Mo2 O13 1.793608 1_555
Mo2 O10 1.803811 1_565
Mo2 O21 1.817847 1_556
Mo2 O6 2.226705 1_566
Mo3 O16 1.782531 1_555
Mo3 O12 1.793608 1_555
Mo3 O11 1.803811 1_455
Mo3 O20 1.817847 1_555
Mo3 O7 2.226705 1_455
O0 Tm1 2.129505 1_556
O0 Tm7 2.170446 1_555
O0 Tm0 2.216139 1_555
O0 Tm6 2.327852 1_556
O1 Tm2 2.129505 1_555
O1 Tm7 2.170446 1_555
O1 Tm3 2.216139 1_555
O1 Tm6 2.327852 1_555
O2 Tm3 2.129505 1_554
O2 Tm6 2.170446 1_555
O2 Tm2 2.216139 1_555
O2 Tm7 2.327852 1_554
O3 Tm0 2.129505 1_555
O3 Tm6 2.170446 1_555
O3 Tm1 2.216139 1_555
O3 Tm7 2.327852 1_555
O4 Tm5 2.170258 1_555
O4 Tm0 2.215352 1_555
O4 Tm6 2.241121 1_556
O5 Tm5 2.170258 1_555
O5 Tm3 2.215352 1_555
O5 Tm6 2.241121 1_555
O6 Tm4 2.170258 1_555
O6 Tm2 2.215352 1_555
O6 Tm7 2.241121 1_554
O7 Tm4 2.170258 1_555
O7 Tm1 2.215352 1_555
O7 Tm7 2.241121 1_555
O8 Tm5 2.343554 1_555
O8 Tm0 2.582045 1_555
O8 Tm6 2.761631 1_555
O9 Tm5 2.343554 1_554
O9 Tm3 2.582045 1_554
O9 Tm6 2.761631 1_555
O10 Tm4 2.343554 1_555
O10 Tm2 2.582045 1_555
O10 Tm7 2.761631 1_555
O11 Tm4 2.343554 1_556
O11 Tm1 2.582045 1_556
O11 Tm7 2.761631 1_555
O12 Tm3 2.392640 1_555
O12 Tm2 2.496531 1_555
O13 Tm0 2.392640 1_555
O13 Tm1 2.496531 1_556
O14 Tm1 2.392640 1_555
O14 Tm0 2.496531 1_555
O15 Tm2 2.392640 1_555
O15 Tm3 2.496531 1_554
O16 Tm5 2.345522 1_545
O16 Tm4 2.464350 1_455
O17 Tm5 2.345522 1_655
O17 Tm4 2.464350 1_566
O18 Tm2 2.370684 1_555
O18 Tm0 2.393944 1_545
O19 Tm4 2.345522 1_455
O19 Tm5 2.464350 1_544
O20 Tm3 2.370684 1_554
O20 Tm1 2.393944 1_455
O21 Tm0 2.370684 1_555
O21 Tm2 2.393944 1_565
O22 Tm1 2.370684 1_556
O22 Tm3 2.393944 1_655
O23 Tm4 2.345522 1_565
O23 Tm5 2.464350 1_655
