# generated using pymatgen
data_Hf9Zr3Zn12O2
_symmetry_space_group_name_H-M   'P 1'
_cell_length_a   8.39877191
_cell_length_b   8.40425781
_cell_length_c   8.41527296
_cell_angle_alpha   60.09709815
_cell_angle_beta   59.98406734
_cell_angle_gamma   60.13370877
_symmetry_Int_Tables_number   1
_chemical_formula_structural   Hf9Zr3Zn12O2
_chemical_formula_sum   'Hf9 Zr3 Zn12 O2'
_cell_volume   420.69865513
_cell_formula_units_Z   1
loop_
 _symmetry_equiv_pos_site_id
 _symmetry_equiv_pos_as_xyz
  1  'x, y, z'
loop_
 _atom_site_type_symbol
 _atom_site_label
 _atom_site_symmetry_multiplicity
 _atom_site_fract_x
 _atom_site_fract_y
 _atom_site_fract_z
 _atom_site_occupancy
  Hf  Hf0  1  0.44219876  0.44434496  0.05670147  1
  Hf  Hf1  1  0.19373682  0.80670301  0.80628438  1
  Hf  Hf2  1  0.05636118  0.44469698  0.05585722  1
  Hf  Hf3  1  0.80704519  0.80643988  0.19335089  1
  Hf  Hf4  1  0.05629714  0.44409999  0.44355585  1
  Hf  Hf5  1  0.19331645  0.19313756  0.80601991  1
  Hf  Hf6  1  0.80626780  0.19329960  0.19355943  1
  Hf  Hf7  1  0.80658444  0.19394540  0.80565503  1
  Hf  Hf8  1  0.05704267  0.05637834  0.44386834  1
  Zr  Zr0  1  0.19401270  0.80570683  0.19379333  1
  Zr  Zr1  1  0.44304815  0.05582762  0.44464753  1
  Zr  Zr2  1  0.44334978  0.05601912  0.05666672  1
  Zn  Zn0  1  0.83302211  0.50159171  0.83293032  1
  Zn  Zn1  1  0.41767443  0.41885677  0.74630135  1
  Zn  Zn2  1  0.74785026  0.41702779  0.41756312  1
  Zn  Zn3  1  0.41863583  0.41811577  0.41814848  1
  Zn  Zn4  1  0.83182186  0.83195168  0.50441136  1
  Zn  Zn5  1  0.41838374  0.74335807  0.41991097  1
  Zn  Zn6  1  0.83374342  0.83152472  0.83191554  1
  Zn  Zn7  1  0.50560834  0.83090342  0.83093413  1
  Zn  Zn8  1  0.62529399  0.12519351  0.62507399  1
  Zn  Zn9  1  0.62596703  0.62451070  0.12461993  1
  Zn  Zn10  1  0.12445434  0.62468964  0.62554719  1
  Zn  Zn11  1  0.62575575  0.62421356  0.62510770  1
  O  O0  1  0.99817058  0.00178067  0.99703544  1
  O  O1  1  0.24435523  0.25568472  0.25053840  1
loop_
_geom_bond_atom_site_label_1
_geom_bond_atom_site_label_2
_geom_bond_distance
_geom_bond_site_symmetry_2
Hf0 O1 2.295488 1_555
Hf0 Zn1 2.837518 1_554
Hf0 Zn3 2.848197 1_555
Hf0 Zn7 3.000707 1_554
Hf0 Zn0 3.006212 1_554
Hf0 Zn9 3.012394 1_555
Hf0 Zn11 3.016285 1_554
Hf1 O0 2.294918 1_465
Hf1 Zn6 2.827690 1_455
Hf1 Zn7 2.839292 1_555
Hf1 Zn1 3.000304 1_555
Hf1 Zn5 3.000496 1_555
Hf1 Zn10 3.013891 1_555
Hf1 Zn11 3.016058 1_555
Hf2 O1 2.279376 1_555
Hf2 Zn2 2.834886 1_455
Hf2 Zn1 2.835614 1_554
Hf2 Zn6 2.996506 1_454
Hf2 Zn0 2.999910 1_454
Hf2 Zn9 3.003969 1_455
Hf2 Zn10 3.009360 1_554
Hf3 O0 2.295300 1_564
Hf3 Zn6 2.841005 1_554
Hf3 Zn4 2.844367 1_555
Hf3 Zn2 3.007166 1_555
Hf3 Zn5 3.010113 1_555
Hf3 Zn9 3.010478 1_555
Hf3 Zn11 3.017370 1_555
Hf4 O1 2.268762 1_555
Hf4 Zn2 2.830948 1_455
Hf4 Zn3 2.843970 1_555
Hf4 Zn0 3.002551 1_455
Hf4 Zn4 3.003266 1_455
Hf4 Zn11 3.004709 1_455
Hf4 Zn10 3.006102 1_555
Hf5 O0 2.295279 1_455
Hf5 Zn0 2.831131 1_455
Hf5 Zn7 2.855253 1_545
Hf5 Zn3 3.006748 1_555
Hf5 Zn1 3.010655 1_555
Hf5 Zn8 3.013988 1_555
Hf5 Zn10 3.015433 1_555
Hf6 O0 2.308050 1_554
Hf6 Zn0 2.833937 1_554
Hf6 Zn4 2.846629 1_545
Hf6 Zn3 3.003184 1_555
Hf6 Zn2 3.003238 1_555
Hf6 Zn9 3.013326 1_555
Hf6 Zn8 3.016009 1_555
Hf7 O0 2.280868 1_555
Hf7 Zn0 2.828689 1_555
Hf7 Zn6 2.839996 1_545
Hf7 Zn2 3.001687 1_555
Hf7 Zn8 3.004692 1_555
Hf7 Zn1 3.005544 1_555
Hf7 Zn11 3.008660 1_555
Hf8 O1 2.296556 1_555
Hf8 Zn2 2.836628 1_455
Hf8 Zn5 2.852479 1_545
Hf8 Zn6 3.000275 1_445
Hf8 Zn4 3.004360 1_445
Hf8 Zn8 3.011193 1_455
Hf8 Zn10 3.018327 1_545
Zn0 Zn10 2.560308 1_655
Zn0 Zn9 2.566129 1_556
Zn0 Zn11 2.571600 1_555
Zn0 Zn7 2.764389 1_555
Zn0 Zn6 2.771612 1_555
Zn0 Zn4 2.774607 1_555
Zn1 Zn11 2.557095 1_555
Zn1 Zn10 2.568667 1_555
Zn1 Zn8 2.572342 1_555
Zn1 Zn5 2.740968 1_555
Zn1 Zn3 2.760571 1_555
Zn1 Zn2 2.769118 1_555
Zn1 Zr2 2.852075 1_556
Zn2 Zn8 2.563213 1_555
Zn2 Zn9 2.574229 1_555
Zn2 Zn3 2.757998 1_555
Zn2 Zn5 2.760436 1_555
Zn3 Zn9 2.564252 1_555
Zn3 Zn8 2.568906 1_555
Zn3 Zn5 2.739788 1_555
Zn3 Zr1 2.847694 1_555
Zn3 Zr0 3.007586 1_555
Zn4 Zn8 2.566883 1_565
Zn4 Zn7 2.743130 1_555
Zn4 Zn6 2.762353 1_555
Zn4 Zr0 2.843610 1_655
Zn4 Zr1 3.005906 1_565
Zn5 Zn9 2.572581 1_555
Zn5 Zr1 2.848245 1_565
Zn5 Zr2 2.862077 1_565
Zn5 Zr0 3.009389 1_555
Zn6 Zn9 2.567075 1_556
Zn6 Zn8 2.578409 1_565
Zn6 Zn7 2.762680 1_555
Zn6 Zr2 3.013295 1_566
Zn7 Zn8 2.567204 1_565
Zn7 Zn9 2.572450 1_556
Zn7 Zr0 2.851316 1_556
Zn7 Zr1 3.001546 1_565
Zn7 Zr2 3.010916 1_566
Zn8 Zr1 3.014045 1_555
Zn8 Zr2 3.015144 1_556
Zn9 Zr0 3.014650 1_555
Zn9 Zr2 3.016799 1_565
Zn10 Zn6 2.557281 1_455
Zn10 Zn5 2.557483 1_555
Zn10 Zn4 2.566366 1_455
Zn10 Zn3 2.568951 1_555
Zn10 Zr0 3.017796 1_555
Zn11 Zn7 2.557595 1_555
Zn11 Zn4 2.560796 1_555
Zn11 Zn5 2.562398 1_555
Zn11 Zn2 2.568255 1_555
Zn11 Zr1 3.018970 1_565
O0 Zr0 2.338230 1_646
O1 Zr1 2.339719 1_555
O1 Zr2 2.340787 1_555
