# generated using pymatgen
data_Hf12Al4VRh7
_symmetry_space_group_name_H-M   'P 1'
_cell_length_a   8.45564655
_cell_length_b   8.45564582
_cell_length_c   8.45564588
_cell_angle_alpha   59.75481341
_cell_angle_beta   59.75481557
_cell_angle_gamma   59.75482213
_symmetry_Int_Tables_number   1
_chemical_formula_structural   Hf12Al4VRh7
_chemical_formula_sum   'Hf12 Al4 V1 Rh7'
_cell_volume   425.10942821
_cell_formula_units_Z   1
loop_
 _symmetry_equiv_pos_site_id
 _symmetry_equiv_pos_as_xyz
  1  'x, y, z'
loop_
 _atom_site_type_symbol
 _atom_site_label
 _atom_site_symmetry_multiplicity
 _atom_site_fract_x
 _atom_site_fract_y
 _atom_site_fract_z
 _atom_site_occupancy
  Hf  Hf0  1  0.80696167  0.80696167  0.18347502  1
  Hf  Hf1  1  0.19327339  0.19327339  0.80661590  1
  Hf  Hf2  1  0.80696167  0.18347502  0.80696167  1
  Hf  Hf3  1  0.19327339  0.80661590  0.19327339  1
  Hf  Hf4  1  0.18347502  0.80696167  0.80696167  1
  Hf  Hf5  1  0.80661590  0.19327339  0.19327339  1
  Hf  Hf6  1  0.44526258  0.44526258  0.05366214  1
  Hf  Hf7  1  0.05631761  0.05631761  0.44604300  1
  Hf  Hf8  1  0.44526258  0.05366214  0.44526258  1
  Hf  Hf9  1  0.05631761  0.44604300  0.05631761  1
  Hf  Hf10  1  0.05366214  0.44526258  0.44526258  1
  Hf  Hf11  1  0.44604300  0.05631761  0.05631761  1
  Al  Al0  1  0.13233571  0.62253305  0.62253305  1
  Al  Al1  1  0.62253305  0.13233571  0.62253305  1
  Al  Al2  1  0.62253305  0.62253305  0.13233571  1
  Al  Al3  1  0.62731738  0.62731738  0.62731738  1
  V  V0  1  0.83113714  0.83113714  0.83113714  1
  Rh  Rh0  1  0.76692770  0.41370680  0.41370680  1
  Rh  Rh1  1  0.41370680  0.76692770  0.41370680  1
  Rh  Rh2  1  0.41370680  0.41370680  0.76692770  1
  Rh  Rh3  1  0.41010141  0.41010141  0.41010141  1
  Rh  Rh4  1  0.48319830  0.84153754  0.84153754  1
  Rh  Rh5  1  0.84153754  0.48319830  0.84153754  1
  Rh  Rh6  1  0.84153754  0.84153754  0.48319830  1
loop_
_geom_bond_atom_site_label_1
_geom_bond_atom_site_label_2
_geom_bond_distance
_geom_bond_site_symmetry_2
Hf0 V0 2.788283 1_554
Hf0 Rh6 2.858824 1_555
Hf0 Rh0 2.985017 1_555
Hf0 Rh1 2.985017 1_555
Hf0 Hf9 3.074849 1_655
Hf0 Hf11 3.074849 1_565
Hf0 Hf10 3.163815 1_655
Hf0 Hf8 3.163815 1_565
Hf0 Hf2 3.171858 1_564
Hf0 Hf4 3.171858 1_654
Hf0 Hf5 3.307532 1_565
Hf0 Hf3 3.307532 1_655
Hf1 Rh4 2.728013 1_545
Hf1 Rh5 2.728013 1_455
Hf1 Rh3 2.994196 1_555
Hf1 Rh2 3.049674 1_555
Hf1 Hf4 3.307532 1_545
Hf1 Hf2 3.307532 1_455
Hf2 V0 2.788283 1_545
Hf2 Rh5 2.858824 1_555
Hf2 Rh0 2.985017 1_555
Hf2 Rh2 2.985018 1_555
Hf2 Hf7 3.074849 1_655
Hf2 Hf6 3.163815 1_556
Hf2 Hf4 3.171858 1_645
Hf2 Hf5 3.307532 1_556
Hf3 Rh4 2.728013 1_554
Hf3 Rh6 2.728013 1_455
Hf3 Rh3 2.994196 1_555
Hf3 Rh1 3.049674 1_555
Hf3 Hf4 3.307532 1_554
Hf4 V0 2.788283 1_455
Hf4 Rh4 2.858824 1_555
Hf4 Rh1 2.985017 1_555
Hf4 Rh2 2.985017 1_555
Hf4 Hf9 3.074848 1_556
Hf4 Hf7 3.074849 1_565
Hf4 Hf8 3.163814 1_565
Hf4 Hf6 3.163815 1_556
Hf5 Rh5 2.728013 1_554
Hf5 Rh6 2.728013 1_545
Hf5 Rh3 2.994196 1_555
Hf5 Rh0 3.049674 1_555
Hf6 Rh2 2.719533 1_554
Hf6 Rh3 2.746664 1_555
Hf6 Rh4 2.999377 1_554
Hf6 Rh5 2.999377 1_554
Hf7 Rh0 2.754434 1_455
Hf7 Rh1 2.754434 1_545
Hf7 Rh6 2.977959 1_445
Hf7 V0 3.002366 1_445
Hf8 Rh1 2.719533 1_545
Hf8 Rh3 2.746664 1_555
Hf8 Rh4 2.999377 1_545
Hf8 Rh6 2.999377 1_545
Hf9 Rh0 2.754434 1_455
Hf9 Rh2 2.754434 1_554
Hf9 Rh5 2.977959 1_454
Hf9 V0 3.002366 1_454
Hf10 Rh0 2.719533 1_455
Hf10 Rh3 2.746665 1_555
Hf10 Rh5 2.999377 1_455
Hf10 Rh6 2.999377 1_455
Hf10 Hf2 3.163814 1_455
Hf11 Rh1 2.754434 1_545
Hf11 Rh2 2.754434 1_554
Hf11 Rh4 2.977959 1_544
Hf11 V0 3.002366 1_544
Hf11 Hf2 3.074849 1_554
Al0 Rh3 2.592223 1_555
Al0 Rh1 2.606039 1_555
Al0 Rh2 2.606039 1_555
Al0 V0 2.606164 1_455
Al0 Rh5 2.645152 1_455
Al0 Rh6 2.645152 1_455
Al0 Hf4 2.976478 1_555
Al0 Hf3 3.015814 1_555
Al0 Hf1 3.015814 1_555
Al0 Hf9 3.028341 1_556
Al0 Hf7 3.028341 1_565
Al0 Hf10 3.034577 1_555
Al1 Rh3 2.592223 1_555
Al1 Rh0 2.606039 1_555
Al1 Rh2 2.606039 1_555
Al1 V0 2.606164 1_545
Al1 Rh4 2.645152 1_545
Al1 Rh6 2.645152 1_545
Al1 Hf2 2.976478 1_555
Al1 Hf5 3.015814 1_555
Al1 Hf1 3.015815 1_555
Al1 Hf11 3.028341 1_556
Al1 Hf7 3.028341 1_655
Al1 Hf8 3.034577 1_555
Al2 Rh3 2.592223 1_555
Al2 Rh0 2.606039 1_555
Al2 Rh1 2.606039 1_555
Al2 V0 2.606163 1_554
Al2 Rh4 2.645152 1_554
Al2 Rh5 2.645152 1_554
Al2 Hf0 2.976478 1_555
Al2 Hf5 3.015814 1_555
Al2 Hf3 3.015815 1_555
Al2 Hf11 3.028341 1_565
Al2 Hf9 3.028341 1_655
Al2 Hf6 3.034577 1_555
Al3 Rh6 2.627752 1_555
Al3 Rh4 2.627752 1_555
Al3 Rh5 2.627752 1_555
Al3 Rh2 2.628485 1_555
Al3 Rh0 2.628486 1_555
Al3 Rh1 2.628486 1_555
Al3 Hf0 3.088374 1_555
Al3 Hf2 3.088374 1_555
Al3 Hf4 3.088374 1_555
Rh4 V0 2.856154 1_555
Rh5 V0 2.856153 1_555
Rh6 V0 2.856153 1_555
