# generated using pymatgen
data_Sc3Al2PtO
_symmetry_space_group_name_H-M   'P 1'
_cell_length_a   8.54522017
_cell_length_b   8.54522175
_cell_length_c   8.54522076
_cell_angle_alpha   60.00000001
_cell_angle_beta   59.99999387
_cell_angle_gamma   60.00000206
_symmetry_Int_Tables_number   1
_chemical_formula_structural   Sc3Al2PtO
_chemical_formula_sum   'Sc12 Al8 Pt4 O4'
_cell_volume   441.21967449
_cell_formula_units_Z   4
loop_
 _symmetry_equiv_pos_site_id
 _symmetry_equiv_pos_as_xyz
  1  'x, y, z'
loop_
 _atom_site_type_symbol
 _atom_site_label
 _atom_site_symmetry_multiplicity
 _atom_site_fract_x
 _atom_site_fract_y
 _atom_site_fract_z
 _atom_site_occupancy
  Sc  Sc0  1  0.56262285  0.93737715  0.56262285  1
  Sc  Sc1  1  0.31262285  0.68737715  0.68737715  1
  Sc  Sc2  1  0.68737715  0.31262285  0.31262285  1
  Sc  Sc3  1  0.31262285  0.68737715  0.31262285  1
  Sc  Sc4  1  0.68737715  0.68737715  0.31262285  1
  Sc  Sc5  1  0.31262285  0.31262285  0.68737715  1
  Sc  Sc6  1  0.56262285  0.56262285  0.93737715  1
  Sc  Sc7  1  0.93737715  0.56262285  0.56262285  1
  Sc  Sc8  1  0.56262285  0.93737715  0.93737715  1
  Sc  Sc9  1  0.93737715  0.93737715  0.56262285  1
  Sc  Sc10  1  0.68737715  0.31262285  0.68737715  1
  Sc  Sc11  1  0.93737715  0.56262285  0.93737715  1
  Al  Al0  1  0.33057879  0.33057879  0.33057879  1
  Al  Al1  1  0.24173636  0.91942121  0.91942121  1
  Al  Al2  1  0.91942121  0.24173636  0.91942121  1
  Al  Al3  1  0.91942121  0.91942121  0.24173636  1
  Al  Al4  1  0.33057879  0.00826364  0.33057879  1
  Al  Al5  1  0.33057879  0.33057879  0.00826364  1
  Al  Al6  1  0.00826364  0.33057879  0.33057879  1
  Al  Al7  1  0.91942121  0.91942121  0.91942121  1
  Pt  Pt0  1  0.12500000  0.12500000  0.12500000  1
  Pt  Pt1  1  0.62500000  0.12500000  0.12500000  1
  Pt  Pt2  1  0.12500000  0.62500000  0.12500000  1
  Pt  Pt3  1  0.12500000  0.12500000  0.62500000  1
  O  O0  1  0.62500000  0.62500000  0.62500000  1
  O  O1  1  0.12500000  0.62500000  0.62500000  1
  O  O2  1  0.62500000  0.12500000  0.62500000  1
  O  O3  1  0.62500000  0.62500000  0.12500000  1
loop_
_geom_bond_atom_site_label_1
_geom_bond_atom_site_label_2
_geom_bond_distance
_geom_bond_site_symmetry_2
Al0 Pt3 2.597779 1_555
Al0 Pt1 2.597779 1_555
Al0 Pt2 2.597779 1_555
Al0 Al6 2.754254 1_555
Al0 Al5 2.754254 1_555
Al0 Al4 2.754254 1_555
Al0 Sc2 2.903603 1_555
Al0 Sc5 2.903603 1_555
Al0 Sc3 2.903603 1_555
Al0 Sc6 3.124101 1_554
Al0 Sc7 3.124101 1_455
Al0 Sc0 3.124101 1_545
Al1 Pt3 2.597779 1_565
Al1 Pt2 2.597779 1_556
Al1 Pt0 2.597779 1_566
Al1 Al3 2.754254 1_456
Al1 Al7 2.754254 1_455
Al1 Al2 2.754254 1_465
Al1 Sc0 2.903603 1_555
Al1 Sc8 2.903603 1_555
Al1 Sc6 2.903603 1_555
Al1 Sc3 3.124101 1_556
Al1 Sc1 3.124101 1_555
Al1 Sc5 3.124101 1_565
Al2 Pt1 2.597778 1_556
Al2 Pt3 2.597779 1_655
Al2 Pt0 2.597779 1_656
Al2 Al3 2.754254 1_546
Al2 Al7 2.754254 1_545
Al2 Sc6 2.903603 1_555
Al2 Sc7 2.903603 1_555
Al2 Sc11 2.903603 1_555
Al2 Sc5 3.124101 1_655
Al2 Sc2 3.124101 1_556
Al2 Sc10 3.124101 1_555
Al3 Pt0 2.597779 1_665
Al3 Pt1 2.597779 1_565
Al3 Pt2 2.597779 1_655
Al3 Al7 2.754254 1_554
Al3 Sc0 2.903603 1_555
Al3 Sc9 2.903603 1_555
Al3 Sc7 2.903603 1_555
Al3 Sc3 3.124101 1_655
Al3 Sc4 3.124101 1_555
Al3 Sc2 3.124101 1_565
Al4 Pt1 2.597778 1_555
Al4 Pt3 2.597779 1_555
Al4 Pt0 2.597779 1_555
Al4 Al6 2.754254 1_555
Al4 Al5 2.754254 1_555
Al4 Sc4 2.903603 1_545
Al4 Sc1 2.903603 1_545
Al4 Sc3 2.903603 1_545
Al4 Sc9 3.124101 1_445
Al4 Sc8 3.124101 1_544
Al4 Sc0 3.124101 1_545
Al5 Pt0 2.597779 1_555
Al5 Pt1 2.597779 1_555
Al5 Pt2 2.597779 1_555
Al5 Al6 2.754254 1_555
Al5 Sc10 2.903603 1_554
Al5 Sc5 2.903603 1_554
Al5 Sc1 2.903603 1_554
Al5 Sc11 3.124101 1_454
Al5 Sc6 3.124101 1_554
Al5 Sc8 3.124101 1_544
Al6 Pt3 2.597779 1_555
Al6 Pt2 2.597779 1_555
Al6 Pt0 2.597779 1_555
Al6 Sc10 2.903603 1_455
Al6 Sc2 2.903603 1_455
Al6 Sc4 2.903603 1_455
Al6 Sc11 3.124101 1_454
Al6 Sc7 3.124101 1_455
Al6 Sc9 3.124101 1_445
Al7 Pt3 2.597779 1_665
Al7 Pt1 2.597779 1_566
Al7 Pt2 2.597779 1_656
Al7 Sc8 2.903603 1_555
Al7 Sc9 2.903603 1_555
Al7 Sc11 2.903603 1_555
Al7 Sc4 3.124101 1_556
Al7 Sc1 3.124101 1_655
Al7 Sc10 3.124101 1_565
Pt0 Sc8 3.115253 1_544
Pt0 Sc2 3.115253 1_455
Pt0 Sc9 3.115253 1_445
Pt0 Sc5 3.115253 1_554
Pt0 Sc11 3.115254 1_454
Pt0 Sc3 3.115254 1_545
Pt1 Sc0 3.115253 1_545
Pt1 Sc10 3.115253 1_554
Pt1 Sc2 3.115254 1_555
Pt1 Sc8 3.115254 1_544
Pt1 Sc6 3.115254 1_554
Pt1 Sc4 3.115254 1_545
Pt2 Sc6 3.115253 1_554
Pt2 Sc4 3.115253 1_455
Pt2 Sc7 3.115253 1_455
Pt2 Sc1 3.115253 1_554
Pt2 Sc3 3.115254 1_555
Pt2 Sc11 3.115254 1_454
Pt3 Sc0 3.115253 1_545
Pt3 Sc10 3.115253 1_455
Pt3 Sc5 3.115254 1_555
Pt3 Sc9 3.115254 1_445
Pt3 Sc7 3.115254 1_455
Pt3 Sc1 3.115254 1_545
O0 Sc7 2.265399 1_555
O0 Sc1 2.265399 1_555
O0 Sc6 2.265399 1_555
O0 Sc4 2.265399 1_555
O0 Sc0 2.265400 1_555
O0 Sc10 2.265400 1_555
O1 Sc11 2.265399 1_455
O1 Sc3 2.265399 1_555
O1 Sc1 2.265399 1_555
O1 Sc7 2.265399 1_455
O1 Sc9 2.265400 1_455
O1 Sc5 2.265400 1_555
O2 Sc5 2.265399 1_555
O2 Sc9 2.265399 1_545
O2 Sc8 2.265399 1_545
O2 Sc2 2.265399 1_555
O2 Sc10 2.265400 1_555
O2 Sc0 2.265400 1_545
O3 Sc11 2.265399 1_554
O3 Sc3 2.265399 1_555
O3 Sc4 2.265399 1_555
O3 Sc6 2.265399 1_554
O3 Sc8 2.265400 1_554
O3 Sc2 2.265400 1_555
