# generated using pymatgen
data_CsSn3RhO8
_symmetry_space_group_name_H-M   'P 1'
_cell_length_a   3.23096607
_cell_length_b   10.47045171
_cell_length_c   10.55516219
_cell_angle_alpha   88.63012676
_cell_angle_beta   90.00008691
_cell_angle_gamma   90.00001542
_symmetry_Int_Tables_number   1
_chemical_formula_structural   CsSn3RhO8
_chemical_formula_sum   'Cs2 Sn6 Rh2 O16'
_cell_volume   356.97564448
_cell_formula_units_Z   2
loop_
 _symmetry_equiv_pos_site_id
 _symmetry_equiv_pos_as_xyz
  1  'x, y, z'
loop_
 _atom_site_type_symbol
 _atom_site_label
 _atom_site_symmetry_multiplicity
 _atom_site_fract_x
 _atom_site_fract_y
 _atom_site_fract_z
 _atom_site_occupancy
  Cs  Cs0  1  0.50208175  0.99342253  0.00384923  1
  Cs  Cs1  1  0.99794810  0.49342054  0.50385150  1
  Sn  Sn0  1  0.49944389  0.32881319  0.84525480  1
  Sn  Sn1  1  0.00055511  0.82880603  0.34525209  1
  Sn  Sn2  1  0.00037109  0.65148919  0.84276716  1
  Sn  Sn3  1  0.49962958  0.15148238  0.34276880  1
  Sn  Sn4  1  0.99953258  0.35753365  0.16291465  1
  Sn  Sn5  1  0.50046547  0.85754066  0.66291238  1
  Rh  Rh0  1  0.99948720  0.16795947  0.65339849  1
  Rh  Rh1  1  0.50050763  0.66795166  0.15339319  1
  O  O0  1  0.50038314  0.66258247  0.96057912  1
  O  O1  1  0.99960886  0.16257644  0.46058303  1
  O  O2  1  0.49954066  0.33378810  0.03952214  1
  O  O3  1  0.00045778  0.83379669  0.53951956  1
  O  O4  1  0.99960000  0.45656365  0.83076340  1
  O  O5  1  0.50039740  0.95655613  0.33076198  1
  O  O6  1  0.00038017  0.54757542  0.15782180  1
  O  O7  1  0.49961834  0.04758297  0.65783940  1
  O  O8  1  0.99942800  0.19932203  0.84621485  1
  O  O9  1  0.50056941  0.69931460  0.34621361  1
  O  O10  1  0.00056914  0.79218896  0.15394949  1
  O  O11  1  0.49943190  0.29219523  0.65395109  1
  O  O12  1  0.49955023  0.34884933  0.29362884  1
  O  O13  1  0.00044669  0.84885422  0.79362639  1
  O  O14  1  0.50034125  0.65991962  0.70932845  1
  O  O15  1  0.99965361  0.15991184  0.20933457  1
loop_
_geom_bond_atom_site_label_1
_geom_bond_atom_site_label_2
_geom_bond_distance
_geom_bond_site_symmetry_2
Cs0 O10 3.063330 1_655
Cs0 O10 3.068482 1_555
Cs0 O8 3.134774 1_564
Cs0 O8 3.143597 1_464
Cs0 O13 3.157262 1_654
Cs0 O13 3.162660 1_554
Cs0 O15 3.241656 1_565
Cs0 O15 3.249470 1_465
Cs1 O11 3.063319 1_555
Cs1 O11 3.068369 1_655
Cs1 O9 3.134806 1_555
Cs1 O9 3.143526 1_655
Cs1 O12 3.157326 1_555
Cs1 O12 3.162623 1_655
Cs1 O14 3.241712 1_555
Cs1 O14 3.249406 1_655
O0 Rh1 2.037303 1_556
O0 Sn2 2.043628 1_655
O0 Sn2 2.043687 1_555
O1 Rh0 2.037325 1_555
O1 Sn3 2.043618 1_555
O1 Sn3 2.043727 1_655
O2 Sn0 2.052429 1_554
O2 Sn4 2.093636 1_555
O2 Sn4 2.093679 1_455
O3 Sn1 2.052439 1_555
O3 Sn5 2.093640 1_455
O3 Sn5 2.093675 1_555
O4 Sn2 2.047910 1_655
O4 Sn0 2.100228 1_655
O4 Sn0 2.101004 1_555
O5 Sn3 2.047920 1_565
O5 Sn1 2.100221 1_555
O5 Sn1 2.101005 1_655
O6 Sn4 1.989266 1_455
O6 Rh1 2.048516 1_455
O6 Rh1 2.049165 1_555
O7 Sn5 1.989271 1_545
O7 Rh0 2.048509 1_555
O7 Rh0 2.049177 1_455
O8 Rh0 2.069265 1_555
O8 Sn0 2.108873 1_555
O8 Sn0 2.108951 1_655
O9 Rh1 2.069308 1_555
O9 Sn1 2.108878 1_655
O9 Sn1 2.108949 1_555
O10 Sn1 2.064291 1_555
O10 Rh1 2.074049 1_555
O10 Rh1 2.074358 1_455
O11 Sn0 2.064305 1_555
O11 Rh0 2.074053 1_455
O11 Rh0 2.074332 1_555
O12 Sn3 2.118558 1_555
O12 Sn4 2.124965 1_555
O12 Sn4 2.125048 1_455
O13 Sn2 2.118541 1_555
O13 Sn5 2.124958 1_455
O13 Sn5 2.125054 1_555
O14 Sn5 2.114964 1_555
O14 Sn2 2.143620 1_555
O14 Sn2 2.143762 1_655
O15 Sn4 2.114980 1_555
O15 Sn3 2.143600 1_655
O15 Sn3 2.143720 1_555
