# generated using pymatgen
data_RbBaReN3
_symmetry_space_group_name_H-M   'P 1'
_cell_length_a   6.76829573
_cell_length_b   6.76829554
_cell_length_c   13.44628550
_cell_angle_alpha   89.99662415
_cell_angle_beta   89.99662256
_cell_angle_gamma   127.50334439
_symmetry_Int_Tables_number   1
_chemical_formula_structural   RbBaReN3
_chemical_formula_sum   'Rb4 Ba4 Re4 N12'
_cell_volume   488.66154763
_cell_formula_units_Z   4
loop_
 _symmetry_equiv_pos_site_id
 _symmetry_equiv_pos_as_xyz
  1  'x, y, z'
loop_
 _atom_site_type_symbol
 _atom_site_label
 _atom_site_symmetry_multiplicity
 _atom_site_fract_x
 _atom_site_fract_y
 _atom_site_fract_z
 _atom_site_occupancy
  Rb  Rb0  1  0.95432162  0.54645650  0.36544793  1
  Rb  Rb1  1  0.45354350  0.04567838  0.13455207  1
  Rb  Rb2  1  0.04567838  0.45354350  0.63455207  1
  Rb  Rb3  1  0.54645650  0.95432162  0.86544793  1
  Ba  Ba0  1  0.14893116  0.35068602  0.08568713  1
  Ba  Ba1  1  0.64931398  0.85106884  0.41431287  1
  Ba  Ba2  1  0.85106884  0.64931398  0.91431287  1
  Ba  Ba3  1  0.35068602  0.14893116  0.58568713  1
  Re  Re0  1  0.77769627  0.72222481  0.16510032  1
  Re  Re1  1  0.27777519  0.22230373  0.33489968  1
  Re  Re2  1  0.22230373  0.27777519  0.83489968  1
  Re  Re3  1  0.72222481  0.77769627  0.66510032  1
  N  N0  1  0.49708083  0.50291917  0.25000000  1
  N  N1  1  0.50291917  0.49708083  0.75000000  1
  N  N2  1  0.91669494  0.58278027  0.12034954  1
  N  N3  1  0.41721973  0.08330506  0.37965046  1
  N  N4  1  0.08330506  0.41721973  0.87965046  1
  N  N5  1  0.58278027  0.91669494  0.62034954  1
  N  N6  1  0.81560149  0.68500511  0.55907220  1
  N  N7  1  0.31499489  0.18439851  0.94092780  1
  N  N8  1  0.18439851  0.31499489  0.44092780  1
  N  N9  1  0.68500511  0.81560149  0.05907220  1
  N  N10  1  0.99730251  0.00269749  0.25000000  1
  N  N11  1  0.00269749  0.99730251  0.75000000  1
loop_
_geom_bond_atom_site_label_1
_geom_bond_atom_site_label_2
_geom_bond_distance
_geom_bond_site_symmetry_2
Ba0 N7 2.803404 1_554
Ba0 N2 2.856940 1_455
Ba0 N4 2.884250 1_554
Ba0 N10 2.921986 1_455
Ba0 N0 2.922365 1_555
Ba0 N9 3.042606 1_445
Ba0 N9 3.048334 1_555
Ba1 N6 2.803404 1_555
Ba1 N3 2.856940 1_565
Ba1 N5 2.884250 1_555
Ba1 N10 2.921986 1_565
Ba1 N0 2.922365 1_555
Ba1 N8 3.042606 1_665
Ba1 N8 3.048334 1_555
Ba2 N9 2.803404 1_556
Ba2 N4 2.856940 1_655
Ba2 N2 2.884250 1_556
Ba2 N11 2.921986 1_655
Ba2 N1 2.922365 1_555
Ba2 N7 3.042606 1_665
Ba2 N7 3.048334 1_555
Ba3 N8 2.803404 1_555
Ba3 N5 2.856940 1_545
Ba3 N3 2.884250 1_555
Ba3 N11 2.921986 1_545
Ba3 N1 2.922365 1_555
Ba3 N6 3.042606 1_445
Ba3 N6 3.048334 1_555
N0 Re1 1.918495 1_555
N0 Re0 1.918495 1_555
N0 Rb1 3.311232 1_555
N0 Rb0 3.311233 1_555
N1 Re3 1.918495 1_555
N1 Re2 1.918495 1_555
N1 Rb3 3.311232 1_555
N1 Rb2 3.311233 1_555
N2 Re0 1.794173 1_555
N2 Rb1 3.032132 1_665
N2 Rb1 3.033579 1_555
N2 Rb0 3.326099 1_555
N3 Re1 1.794173 1_555
N3 Rb0 3.032132 1_445
N3 Rb0 3.033579 1_555
N3 Rb1 3.326098 1_555
N4 Re2 1.794173 1_555
N4 Rb3 3.032132 1_445
N4 Rb3 3.033579 1_555
N4 Rb2 3.326099 1_555
N5 Re3 1.794173 1_555
N5 Rb2 3.032132 1_665
N5 Rb2 3.033579 1_555
N5 Rb3 3.326098 1_555
N6 Re3 1.818889 1_555
N6 Rb2 2.979884 1_655
N6 Rb0 3.100206 1_555
N7 Re2 1.818889 1_555
N7 Rb3 2.979884 1_545
N7 Rb1 3.100206 1_556
N8 Re1 1.818889 1_555
N8 Rb0 2.979884 1_455
N8 Rb2 3.100206 1_555
N9 Re0 1.818889 1_555
N9 Rb1 2.979884 1_565
N9 Rb3 3.100206 1_554
N10 Re0 1.918581 1_545
N10 Re1 1.918581 1_655
N10 Rb0 3.306897 1_545
N10 Rb1 3.306897 1_655
N11 Re2 1.918581 1_565
N11 Re3 1.918581 1_455
N11 Rb2 3.306897 1_565
N11 Rb3 3.306897 1_455
