# generated using pymatgen
data_Sr2ZnPd3
_symmetry_space_group_name_H-M   'P 1'
_cell_length_a   5.40159671
_cell_length_b   5.40159669
_cell_length_c   5.40159688
_cell_angle_alpha   64.43399097
_cell_angle_beta   64.43399532
_cell_angle_gamma   64.43399165
_symmetry_Int_Tables_number   1
_chemical_formula_structural   Sr2ZnPd3
_chemical_formula_sum   'Sr2 Zn1 Pd3'
_cell_volume   122.28593249
_cell_formula_units_Z   1
loop_
 _symmetry_equiv_pos_site_id
 _symmetry_equiv_pos_as_xyz
  1  'x, y, z'
loop_
 _atom_site_type_symbol
 _atom_site_label
 _atom_site_symmetry_multiplicity
 _atom_site_fract_x
 _atom_site_fract_y
 _atom_site_fract_z
 _atom_site_occupancy
  Sr  Sr0  1  0.87287613  0.87287613  0.87287613  1
  Sr  Sr1  1  0.12712387  0.12712387  0.12712387  1
  Zn  Zn0  1  0.50000000  0.50000000  0.50000000  1
  Pd  Pd0  1  0.50000000  0.50000000  0.00000000  1
  Pd  Pd1  1  0.00000000  0.50000000  0.50000000  1
  Pd  Pd2  1  0.50000000  0.00000000  0.50000000  1
loop_
_geom_bond_atom_site_label_1
_geom_bond_atom_site_label_2
_geom_bond_distance
_geom_bond_site_symmetry_2
Sr0 Sr1 3.246819 1_666
Sr0 Zn0 3.363360 1_565
Sr0 Zn0 3.363360 1_556
Sr0 Zn0 3.363360 1_655
Sr0 Sr1 3.475224 1_656
Sr0 Sr1 3.475224 1_566
Sr0 Sr1 3.475224 1_665
Sr1 Zn0 3.363360 1_545
Sr1 Zn0 3.363360 1_554
Sr1 Zn0 3.363360 1_455
Pd0 Zn0 2.700798 1_555
Pd0 Zn0 2.700798 1_554
Pd0 Pd2 2.879738 1_564
Pd0 Pd2 2.879738 1_555
Pd0 Pd1 2.879739 1_555
Pd0 Pd1 2.879739 1_654
Pd0 Sr0 3.114300 1_554
Pd0 Sr1 3.114300 1_555
Pd0 Sr1 3.305806 1_655
Pd0 Sr0 3.305806 1_454
Pd0 Sr0 3.305806 1_544
Pd0 Sr1 3.305806 1_565
Pd1 Zn0 2.700798 1_455
Pd1 Zn0 2.700798 1_555
Pd1 Pd2 2.879738 1_555
Pd1 Pd2 2.879738 1_465
Pd1 Sr0 3.114300 1_455
Pd1 Sr1 3.114300 1_555
Pd1 Sr1 3.305806 1_565
Pd1 Sr0 3.305806 1_445
Pd1 Sr1 3.305806 1_556
Pd1 Sr0 3.305806 1_454
Pd2 Zn0 2.700798 1_545
Pd2 Zn0 2.700798 1_555
Pd2 Sr0 3.114300 1_545
Pd2 Sr1 3.114300 1_555
Pd2 Sr1 3.305806 1_655
Pd2 Sr0 3.305806 1_445
Pd2 Sr0 3.305806 1_544
Pd2 Sr1 3.305806 1_556
