# generated using pymatgen
data_TaBe(BMo)3
_symmetry_space_group_name_H-M   'P 1'
_cell_length_a   4.57879891
_cell_length_b   4.57879731
_cell_length_c   6.30539697
_cell_angle_alpha   90.00000000
_cell_angle_beta   90.00000000
_cell_angle_gamma   139.15927031
_symmetry_Int_Tables_number   1
_chemical_formula_structural   TaBe(BMo)3
_chemical_formula_sum   'Ta1 Be1 B3 Mo3'
_cell_volume   86.45013047
_cell_formula_units_Z   1
loop_
 _symmetry_equiv_pos_site_id
 _symmetry_equiv_pos_as_xyz
  1  'x, y, z'
loop_
 _atom_site_type_symbol
 _atom_site_label
 _atom_site_symmetry_multiplicity
 _atom_site_fract_x
 _atom_site_fract_y
 _atom_site_fract_z
 _atom_site_occupancy
  Ta  Ta0  1  0.85112031  0.14887969  0.00000000  1
  Be  Be0  1  0.56627854  0.43372146  0.50000000  1
  B  B0  1  0.55956936  0.44043064  0.00000000  1
  B  B1  1  0.43755004  0.56244996  0.24800470  1
  B  B2  1  0.43755004  0.56244996  0.75199530  1
  Mo  Mo0  1  0.85544749  0.14455251  0.50000000  1
  Mo  Mo1  1  0.14624112  0.85375888  0.24471549  1
  Mo  Mo2  1  0.14624112  0.85375888  0.75528451  1
loop_
_geom_bond_atom_site_label_1
_geom_bond_atom_site_label_2
_geom_bond_distance
_geom_bond_site_symmetry_2
Be0 Mo2 2.369428 1_545
Be0 Mo1 2.369428 1_545
Be0 Mo2 2.369429 1_655
Be0 Mo1 2.369429 1_655
Be0 Mo0 2.413723 1_565
Be0 Mo0 2.413724 1_455
Be0 Mo0 2.481681 1_555
B0 B1 1.882011 1_555
B0 B2 1.882011 1_554
B0 Mo1 2.342313 1_545
B0 Mo2 2.342313 1_544
B0 Mo1 2.342314 1_655
B0 Mo2 2.342314 1_654
B0 Ta0 2.398437 1_565
B0 Ta0 2.398438 1_455
B0 Ta0 2.502124 1_555
B1 Be0 1.935252 1_555
B1 Ta0 2.355373 1_565
B1 Ta0 2.355373 1_455
B1 Mo0 2.360804 1_565
B1 Mo0 2.360805 1_455
B1 Mo1 2.400076 1_545
B1 Mo1 2.400077 1_655
B1 Mo1 2.500133 1_555
B2 Be0 1.935252 1_555
B2 Ta0 2.355373 1_566
B2 Ta0 2.355373 1_456
B2 Mo0 2.360804 1_565
B2 Mo0 2.360805 1_455
B2 Mo2 2.400076 1_545
B2 Mo2 2.400077 1_655
B2 Mo2 2.500133 1_555
Mo1 Ta0 2.832801 1_455
Mo1 Ta0 2.832802 1_565
Mo2 Ta0 2.832801 1_456
Mo2 Ta0 2.832802 1_566
