# generated using pymatgen
data_K5BaVAs4
_symmetry_space_group_name_H-M   'P 1'
_cell_length_a   10.29819649
_cell_length_b   10.29819700
_cell_length_c   8.08824133
_cell_angle_alpha   89.31923580
_cell_angle_beta   89.31923466
_cell_angle_gamma   120.48178216
_symmetry_Int_Tables_number   1
_chemical_formula_structural   K5BaVAs4
_chemical_formula_sum   'K10 Ba2 V2 As8'
_cell_volume   739.01577940
_cell_formula_units_Z   2
loop_
 _symmetry_equiv_pos_site_id
 _symmetry_equiv_pos_as_xyz
  1  'x, y, z'
loop_
 _atom_site_type_symbol
 _atom_site_label
 _atom_site_symmetry_multiplicity
 _atom_site_fract_x
 _atom_site_fract_y
 _atom_site_fract_z
 _atom_site_occupancy
  K  K0  1  0.46842359  0.52409298  0.50207960  1
  K  K1  1  0.05641905  0.52539942  0.50148952  1
  K  K2  1  0.52409298  0.46842359  0.00207960  1
  K  K3  1  0.52539942  0.05641905  0.00148952  1
  K  K4  1  0.86588968  0.14281925  0.67722399  1
  K  K5  1  0.29341262  0.15396333  0.70281910  1
  K  K6  1  0.85439207  0.71447955  0.66444320  1
  K  K7  1  0.14281925  0.86588968  0.17722399  1
  K  K8  1  0.71447955  0.85439207  0.16444320  1
  K  K9  1  0.15396333  0.29341262  0.20281910  1
  Ba  Ba0  1  0.46626985  0.93606340  0.49595290  1
  Ba  Ba1  1  0.93606340  0.46626985  0.99595290  1
  V  V0  1  0.66843974  0.33351916  0.39272029  1
  V  V1  1  0.33351916  0.66843974  0.89272029  1
  As  As0  1  0.67601325  0.33228434  0.68708604  1
  As  As1  1  0.33228434  0.67601325  0.18708604  1
  As  As2  1  0.79295202  0.20276930  0.29375340  1
  As  As3  1  0.41103408  0.20102040  0.31099090  1
  As  As4  1  0.79510362  0.58523830  0.28572907  1
  As  As5  1  0.20276930  0.79295202  0.79375340  1
  As  As6  1  0.58523830  0.79510362  0.78572907  1
  As  As7  1  0.20102040  0.41103408  0.81099090  1
loop_
_geom_bond_atom_site_label_1
_geom_bond_atom_site_label_2
_geom_bond_distance
_geom_bond_site_symmetry_2
K1 V0 3.571765 1_455
K3 V1 3.571765 1_544
As0 V0 2.383198 1_555
As0 K4 3.392277 1_555
As0 K6 3.396930 1_555
As0 K5 3.399226 1_555
As0 Ba1 3.436389 1_555
As0 K3 3.493915 1_556
As0 K2 3.622112 1_556
As0 K1 3.666134 1_655
As1 V1 2.383198 1_554
As1 K7 3.392277 1_555
As1 K8 3.396930 1_555
As1 K9 3.399226 1_555
As1 Ba0 3.436389 1_555
As1 K1 3.493915 1_555
As1 K0 3.622112 1_555
As1 K3 3.666135 1_565
As2 V0 2.418841 1_555
As2 Ba1 3.322695 1_554
As2 K4 3.323493 1_555
As2 K3 3.387874 1_555
As2 K9 3.410569 1_655
As2 K8 3.433088 1_545
As2 Ba0 3.453201 1_545
As2 K1 3.509859 1_655
As3 V0 2.391473 1_555
As3 K5 3.320039 1_555
As3 K7 3.346564 1_545
As3 K9 3.357094 1_555
As3 Ba0 3.391850 1_545
As3 K3 3.416005 1_555
As3 K2 3.419967 1_555
As3 K0 3.457810 1_555
As4 V0 2.378973 1_555
As4 K6 3.293004 1_555
As4 Ba1 3.300494 1_554
As4 K7 3.363220 1_655
As4 K2 3.363243 1_555
As4 K8 3.409418 1_555
As4 K1 3.526409 1_655
As4 K0 3.530061 1_555
As5 V1 2.418841 1_555
As5 Ba0 3.322695 1_555
As5 K7 3.323493 1_556
As5 K1 3.387874 1_555
As5 K5 3.410570 1_565
As5 K6 3.433088 1_455
As5 Ba1 3.453201 1_455
As5 K3 3.509859 1_566
As6 V1 2.378973 1_555
As6 K8 3.293004 1_556
As6 Ba0 3.300494 1_555
As6 K4 3.363220 1_565
As6 K0 3.363243 1_555
As6 K6 3.409418 1_555
As6 K3 3.526409 1_566
As6 K2 3.530061 1_556
As7 V1 2.391474 1_555
As7 K9 3.320039 1_556
As7 K4 3.346564 1_455
As7 K5 3.357094 1_555
As7 Ba1 3.391850 1_455
As7 K1 3.416005 1_555
As7 K0 3.419967 1_555
As7 K2 3.457810 1_556
