# generated using pymatgen
data_K4AgP2Au
_symmetry_space_group_name_H-M   'P 1'
_cell_length_a   6.19214074
_cell_length_b   6.19214124
_cell_length_c   6.01979613
_cell_angle_alpha   90.32534926
_cell_angle_beta   90.32534698
_cell_angle_gamma   104.51575905
_symmetry_Int_Tables_number   1
_chemical_formula_structural   K4AgP2Au
_chemical_formula_sum   'K4 Ag1 P2 Au1'
_cell_volume   223.43718399
_cell_formula_units_Z   1
loop_
 _symmetry_equiv_pos_site_id
 _symmetry_equiv_pos_as_xyz
  1  'x, y, z'
loop_
 _atom_site_type_symbol
 _atom_site_label
 _atom_site_symmetry_multiplicity
 _atom_site_fract_x
 _atom_site_fract_y
 _atom_site_fract_z
 _atom_site_occupancy
  K  K0  1  0.97088123  0.31327938  0.74685787  1
  K  K1  1  0.31327938  0.97088123  0.74685787  1
  K  K2  1  0.02911877  0.68672062  0.25314213  1
  K  K3  1  0.68672062  0.02911877  0.25314213  1
  Ag  Ag0  1  0.50000000  0.50000000  0.00000000  1
  P  P0  1  0.75084061  0.75084061  0.74798908  1
  P  P1  1  0.24915939  0.24915939  0.25201092  1
  Au  Au0  1  0.50000000  0.50000000  0.50000000  1
loop_
_geom_bond_atom_site_label_1
_geom_bond_atom_site_label_2
_geom_bond_distance
_geom_bond_site_symmetry_2
K0 P0 3.323867 1_555
K0 P0 3.406953 1_545
K0 P1 3.519713 1_655
K0 P1 3.559662 1_656
K1 P0 3.323866 1_555
K1 P0 3.406953 1_455
K1 P1 3.519713 1_565
K1 P1 3.559662 1_566
K2 P1 3.323867 1_555
K2 P1 3.406953 1_565
K2 P0 3.519713 1_455
K2 P0 3.559662 1_454
K3 P1 3.323866 1_555
K3 P1 3.406953 1_655
K3 P0 3.519713 1_545
K3 P0 3.559662 1_544
Ag0 P0 2.443500 1_554
Ag0 P1 2.443500 1_555
Ag0 Au0 3.009898 1_555
Ag0 Au0 3.009898 1_554
Ag0 K2 3.523909 1_655
Ag0 K0 3.523909 1_454
Ag0 K3 3.523909 1_565
Ag0 K1 3.523909 1_544
Ag0 K2 3.725728 1_555
Ag0 K0 3.725728 1_554
Ag0 K1 3.725728 1_554
Ag0 K3 3.725728 1_555
Au0 P0 2.406581 1_555
Au0 P1 2.406581 1_555
Au0 K2 3.529247 1_655
Au0 K0 3.529247 1_455
Au0 K3 3.529247 1_565
Au0 K1 3.529247 1_545
Au0 K0 3.702301 1_555
Au0 K2 3.702301 1_555
Au0 K1 3.702301 1_555
Au0 K3 3.702301 1_555
