# generated using pymatgen
data_HfBeCu3Au
_symmetry_space_group_name_H-M   'P 1'
_cell_length_a   4.84936791
_cell_length_b   4.84936859
_cell_length_c   4.74127081
_cell_angle_alpha   59.24288143
_cell_angle_beta   59.24287828
_cell_angle_gamma   59.99998999
_symmetry_Int_Tables_number   1
_chemical_formula_structural   HfBeCu3Au
_chemical_formula_sum   'Hf1 Be1 Cu3 Au1'
_cell_volume   77.92630420
_cell_formula_units_Z   1
loop_
 _symmetry_equiv_pos_site_id
 _symmetry_equiv_pos_as_xyz
  1  'x, y, z'
loop_
 _atom_site_type_symbol
 _atom_site_label
 _atom_site_symmetry_multiplicity
 _atom_site_fract_x
 _atom_site_fract_y
 _atom_site_fract_z
 _atom_site_occupancy
  Hf  Hf0  1  0.00034200  0.00034200  0.99897401  1
  Be  Be0  1  0.62325232  0.62325232  0.13024303  1
  Cu  Cu0  1  0.62476481  0.12441465  0.62605572  1
  Cu  Cu1  1  0.12441465  0.62476481  0.62605572  1
  Cu  Cu2  1  0.62476481  0.62476481  0.62605572  1
  Au  Au0  1  0.25246140  0.25246140  0.24261679  1
loop_
_geom_bond_atom_site_label_1
_geom_bond_atom_site_label_2
_geom_bond_distance
_geom_bond_site_symmetry_2
Be0 Cu1 2.358306 1_555
Be0 Cu0 2.358306 1_555
Be0 Cu2 2.358306 1_555
Be0 Cu1 2.383008 1_654
Be0 Cu0 2.383008 1_564
Be0 Cu2 2.383009 1_554
Be0 Hf0 2.844481 1_564
Be0 Hf0 2.844482 1_654
Be0 Hf0 2.844482 1_664
Cu0 Cu1 2.422986 1_645
Cu0 Cu2 2.422986 1_545
Cu0 Cu1 2.426382 1_555
Cu0 Cu2 2.426382 1_555
Cu0 Hf0 2.777444 1_654
Cu0 Hf0 2.813390 1_555
Cu0 Hf0 2.813391 1_655
Cu1 Cu2 2.422986 1_455
Cu1 Cu2 2.426382 1_555
Cu1 Hf0 2.777445 1_564
Cu1 Hf0 2.813391 1_555
Cu1 Hf0 2.813391 1_565
Cu2 Hf0 2.777444 1_664
Cu2 Hf0 2.813391 1_565
Cu2 Hf0 2.813391 1_655
Au0 Cu2 2.743742 1_554
Au0 Cu0 2.743744 1_554
Au0 Cu1 2.743744 1_554
Au0 Be0 2.832606 1_555
Au0 Be0 2.832610 1_455
Au0 Be0 2.832610 1_545
Au0 Cu0 2.834018 1_555
Au0 Cu1 2.834019 1_555
Au0 Cu2 2.834020 1_455
Au0 Cu2 2.834020 1_545
Au0 Cu0 2.834022 1_455
Au0 Cu1 2.834022 1_545
Au0 Hf0 2.894077 1_555
Au0 Hf0 2.950913 1_654
Au0 Hf0 2.950913 1_564
Au0 Hf0 2.950918 1_554
