# generated using pymatgen
data_YCoOs2C
_symmetry_space_group_name_H-M   'P 1'
_cell_length_a   5.61493178
_cell_length_b   5.61493096
_cell_length_c   7.33484804
_cell_angle_alpha   90.00000000
_cell_angle_beta   90.00000000
_cell_angle_gamma   139.63931723
_symmetry_Int_Tables_number   1
_chemical_formula_structural   YCoOs2C
_chemical_formula_sum   'Y2 Co2 Os4 C2'
_cell_volume   149.75625370
_cell_formula_units_Z   2
loop_
 _symmetry_equiv_pos_site_id
 _symmetry_equiv_pos_as_xyz
  1  'x, y, z'
loop_
 _atom_site_type_symbol
 _atom_site_label
 _atom_site_symmetry_multiplicity
 _atom_site_fract_x
 _atom_site_fract_y
 _atom_site_fract_z
 _atom_site_occupancy
  Y  Y0  1  0.53544419  0.46455581  0.25000000  1
  Y  Y1  1  0.46455581  0.53544419  0.75000000  1
  Co  Co0  1  0.26718773  0.73281227  0.25000000  1
  Co  Co1  1  0.73281227  0.26718773  0.75000000  1
  Os  Os0  1  0.82574705  0.17425295  0.05961835  1
  Os  Os1  1  0.17425295  0.82574705  0.94038165  1
  Os  Os2  1  0.17425295  0.82574705  0.55961835  1
  Os  Os3  1  0.82574705  0.17425295  0.44038165  1
  C  C0  1  0.00000000  0.00000000  0.00000000  1
  C  C1  1  0.00000000  0.00000000  0.50000000  1
loop_
_geom_bond_atom_site_label_1
_geom_bond_atom_site_label_2
_geom_bond_distance
_geom_bond_site_symmetry_2
Co0 Os3 2.466377 1_455
Co0 Os0 2.466377 1_455
Co0 Os3 2.466377 1_565
Co0 Os0 2.466377 1_565
Co0 Os2 2.473263 1_555
Co0 Os1 2.473263 1_554
Co0 Y0 2.827551 1_555
Co0 Y0 3.117492 1_565
Co0 Y0 3.117493 1_455
Co1 Os1 2.466377 1_655
Co1 Os2 2.466377 1_655
Co1 Os1 2.466377 1_545
Co1 Os2 2.466377 1_545
Co1 Os0 2.473263 1_556
Co1 Os3 2.473263 1_555
Co1 Y1 2.827551 1_555
Co1 Y1 3.117492 1_545
Co1 Y1 3.117493 1_655
C0 Os1 1.888048 1_544
C0 Os0 1.888048 1_455
C0 Y1 2.693346 1_554
C0 Y0 2.693346 1_445
C0 Y0 2.693346 1_555
C0 Y1 2.693346 1_444
C1 Os2 1.888048 1_545
C1 Os3 1.888048 1_455
C1 Y1 2.693346 1_555
C1 Y0 2.693346 1_445
C1 Y0 2.693346 1_555
C1 Y1 2.693346 1_445
