# generated using pymatgen
data_Mn4Hg2Pd9Au
_symmetry_space_group_name_H-M   'P 1'
_cell_length_a   6.89571556
_cell_length_b   6.89571605
_cell_length_c   6.89571642
_cell_angle_alpha   107.60535567
_cell_angle_beta   107.81959719
_cell_angle_gamma   113.04911717
_symmetry_Int_Tables_number   1
_chemical_formula_structural   Mn4Hg2Pd9Au
_chemical_formula_sum   'Mn4 Hg2 Pd9 Au1'
_cell_volume   251.67163718
_cell_formula_units_Z   1
loop_
 _symmetry_equiv_pos_site_id
 _symmetry_equiv_pos_as_xyz
  1  'x, y, z'
loop_
 _atom_site_type_symbol
 _atom_site_label
 _atom_site_symmetry_multiplicity
 _atom_site_fract_x
 _atom_site_fract_y
 _atom_site_fract_z
 _atom_site_occupancy
  Mn  Mn0  1  0.24597628  0.23514465  0.48112193  1
  Mn  Mn1  1  0.75402372  0.76485535  0.51887807  1
  Mn  Mn2  1  0.24597628  0.76485535  0.01083162  1
  Mn  Mn3  1  0.75402372  0.23514465  0.98916838  1
  Hg  Hg0  1  0.00000000  0.50000000  0.50000000  1
  Hg  Hg1  1  0.50000000  0.50000000  0.00000000  1
  Pd  Pd0  1  0.50178381  0.25263520  0.24914761  1
  Pd  Pd1  1  0.49821619  0.74736480  0.75085239  1
  Pd  Pd2  1  0.00348659  0.25263520  0.75085239  1
  Pd  Pd3  1  0.25015289  0.00093697  0.75078408  1
  Pd  Pd4  1  0.99651341  0.74736480  0.24914761  1
  Pd  Pd5  1  0.74984711  0.99906303  0.24921592  1
  Pd  Pd6  1  0.25015289  0.49936881  0.24921592  1
  Pd  Pd7  1  0.74984711  0.50063119  0.75078408  1
  Pd  Pd8  1  0.00000000  0.00000000  0.00000000  1
  Au  Au0  1  0.50000000  0.00000000  0.50000000  1
loop_
_geom_bond_atom_site_label_1
_geom_bond_atom_site_label_2
_geom_bond_distance
_geom_bond_site_symmetry_2
Mn0 Pd4 2.713306 1_445
Mn0 Pd0 2.713317 1_555
Mn0 Pd5 2.761790 1_445
Mn0 Pd6 2.761796 1_555
Mn0 Pd8 2.767893 1_555
Mn0 Pd3 2.808426 1_555
Mn0 Pd7 2.808431 1_555
Mn0 Pd1 2.862849 1_555
Mn0 Pd2 2.862849 1_555
Mn1 Pd2 2.713306 1_665
Mn1 Pd1 2.713317 1_555
Mn1 Pd3 2.761790 1_665
Mn1 Pd7 2.761796 1_555
Mn1 Pd8 2.767893 1_666
Mn1 Pd5 2.808426 1_555
Mn1 Pd6 2.808431 1_555
Mn1 Pd0 2.862849 1_555
Mn1 Pd4 2.862849 1_555
Mn2 Pd4 2.713300 1_455
Mn2 Pd0 2.713305 1_565
Mn2 Pd7 2.761790 1_454
Mn2 Pd3 2.761790 1_564
Mn2 Pd8 2.767887 1_565
Mn2 Pd5 2.808432 1_555
Mn2 Pd6 2.808432 1_555
Mn2 Pd1 2.862844 1_554
Mn2 Pd2 2.862849 1_554
Mn3 Pd2 2.713300 1_655
Mn3 Pd1 2.713305 1_545
Mn3 Pd6 2.761790 1_656
Mn3 Pd5 2.761790 1_546
Mn3 Pd8 2.767887 1_656
Mn3 Pd3 2.808432 1_555
Mn3 Pd7 2.808432 1_555
Mn3 Pd0 2.862844 1_556
Mn3 Pd4 2.862849 1_556
Hg0 Pd1 2.773795 1_555
Hg0 Pd0 2.773795 1_455
Hg0 Pd2 2.773800 1_555
Hg0 Pd4 2.773800 1_455
Hg0 Pd5 2.791645 1_445
Hg0 Pd3 2.791645 1_565
Hg0 Pd6 2.791645 1_555
Hg0 Pd7 2.791645 1_455
Hg0 Mn0 2.940521 1_555
Hg0 Mn1 2.940521 1_455
Hg0 Mn2 2.940521 1_556
Hg0 Mn3 2.940521 1_454
Hg1 Pd0 2.763642 1_555
Hg1 Pd1 2.763642 1_554
Hg1 Pd2 2.763646 1_554
Hg1 Pd4 2.763646 1_555
Hg1 Pd3 2.780723 1_554
Hg1 Pd5 2.780723 1_555
Hg1 Pd6 2.780723 1_555
Hg1 Pd7 2.780723 1_554
Hg1 Mn0 2.985329 1_554
Hg1 Mn1 2.985329 1_555
Hg1 Mn2 2.985335 1_555
Hg1 Mn3 2.985335 1_554
Pd0 Pd8 2.791099 1_555
Pd0 Pd3 2.866586 1_554
Pd0 Pd6 2.866592 1_555
Pd0 Pd5 2.885419 1_545
Pd0 Pd7 2.885425 1_555
Pd1 Pd8 2.791099 1_666
Pd1 Pd5 2.866586 1_556
Pd1 Pd7 2.866592 1_555
Pd1 Pd3 2.885419 1_565
Pd1 Pd6 2.885425 1_555
Pd2 Pd8 2.791094 1_556
Pd2 Pd6 2.866586 1_556
Pd2 Pd3 2.866591 1_555
Pd2 Pd7 2.885419 1_455
Pd2 Pd5 2.885425 1_445
Pd3 Pd8 2.782313 1_556
Pd3 Pd4 2.885425 1_445
Pd4 Pd8 2.791094 1_665
Pd4 Pd7 2.866586 1_554
Pd4 Pd5 2.866591 1_555
Pd4 Pd6 2.885419 1_655
Pd5 Pd8 2.782313 1_665
Pd6 Pd8 2.782313 1_555
Pd7 Pd8 2.782313 1_666
Au0 Pd6 2.790060 1_545
Au0 Pd7 2.790060 1_555
Au0 Pd5 2.790060 1_545
Au0 Pd3 2.790060 1_555
Au0 Pd2 2.801148 1_655
Au0 Pd4 2.801148 1_445
Au0 Pd1 2.801153 1_545
Au0 Pd0 2.801153 1_555
Au0 Mn1 2.815450 1_545
Au0 Mn0 2.815450 1_555
Au0 Mn3 2.815450 1_555
Au0 Mn2 2.815450 1_545
