# generated using pymatgen
data_LiGa2AgTe4
_symmetry_space_group_name_H-M   'P 1'
_cell_length_a   7.49940677
_cell_length_b   7.49940724
_cell_length_c   7.49940700
_cell_angle_alpha   129.87644647
_cell_angle_beta   129.87645201
_cell_angle_gamma   73.60435682
_symmetry_Int_Tables_number   1
_chemical_formula_structural   LiGa2AgTe4
_chemical_formula_sum   'Li1 Ga2 Ag1 Te4'
_cell_volume   242.39143943
_cell_formula_units_Z   1
loop_
 _symmetry_equiv_pos_site_id
 _symmetry_equiv_pos_as_xyz
  1  'x, y, z'
loop_
 _atom_site_type_symbol
 _atom_site_label
 _atom_site_symmetry_multiplicity
 _atom_site_fract_x
 _atom_site_fract_y
 _atom_site_fract_z
 _atom_site_occupancy
  Li  Li0  1  0.25000000  0.75000000  0.50000000  1
  Ga  Ga0  1  0.00000000  0.00000000  0.00000000  1
  Ga  Ga1  1  0.75000000  0.25000000  0.50000000  1
  Ag  Ag0  1  0.50000000  0.50000000  0.00000000  1
  Te  Te0  1  0.64073156  0.62601220  0.52018080  1
  Te  Te1  1  0.37398780  0.89416760  0.01471936  1
  Te  Te2  1  0.87944824  0.35926844  0.98528064  1
  Te  Te3  1  0.10583240  0.12055176  0.47981920  1
loop_
_geom_bond_atom_site_label_1
_geom_bond_atom_site_label_2
_geom_bond_distance
_geom_bond_site_symmetry_2
Li0 Te0 2.747274 1_555
Li0 Te1 2.747277 1_556
Li0 Te2 2.747277 1_454
Li0 Te3 2.747281 1_565
Ga0 Te3 2.639512 1_555
Ga0 Te0 2.639519 1_444
Ga0 Te1 2.639519 1_545
Ga0 Te2 2.639519 1_454
Ga1 Te0 2.636921 1_555
Ga1 Te2 2.636925 1_555
Ga1 Te1 2.636925 1_545
Ga1 Te3 2.636928 1_655
Ag0 Te2 2.789559 1_554
Ag0 Te1 2.789559 1_555
Ag0 Te3 2.789559 1_554
Ag0 Te0 2.789566 1_555
