# generated using pymatgen
data_Sr11Bi10
_symmetry_space_group_name_H-M   'P 1'
_cell_length_a   12.92979056
_cell_length_b   12.92979241
_cell_length_c   13.01416636
_cell_angle_alpha   119.78567498
_cell_angle_beta   119.78567124
_cell_angle_gamma   90.02322628
_symmetry_Int_Tables_number   1
_chemical_formula_structural   Sr11Bi10
_chemical_formula_sum   'Sr22 Bi20'
_cell_volume   1548.06171061
_cell_formula_units_Z   2
loop_
 _symmetry_equiv_pos_site_id
 _symmetry_equiv_pos_as_xyz
  1  'x, y, z'
loop_
 _atom_site_type_symbol
 _atom_site_label
 _atom_site_symmetry_multiplicity
 _atom_site_fract_x
 _atom_site_fract_y
 _atom_site_fract_z
 _atom_site_occupancy
  Sr  Sr0  1  0.83410309  0.83410310  -0.00001996  1
  Sr  Sr1  1  0.16596479  0.83403475  0.00000013  1
  Sr  Sr2  1  0.83403466  0.16596476  0.00000002  1
  Sr  Sr3  1  0.16589714  0.16589704  0.00002010  1
  Sr  Sr4  1  0.60348436  0.94282747  0.20715561  1
  Sr  Sr5  1  0.73574929  0.39630715  0.79276697  1
  Sr  Sr6  1  0.05717258  0.39651577  0.79284471  1
  Sr  Sr7  1  0.39651591  0.05717268  0.79284479  1
  Sr  Sr8  1  0.39630702  0.73574916  0.79276689  1
  Sr  Sr9  1  0.26425037  0.60369283  0.20723268  1
  Sr  Sr10  1  0.94282760  0.60348437  0.20715565  1
  Sr  Sr11  1  0.60369281  0.26425050  0.20723292  1
  Sr  Sr12  1  0.66123897  0.66123897  0.32251866  1
  Sr  Sr13  1  0.33876112  0.33876111  0.67748131  1
  Sr  Sr14  1  0.93905381  0.18993925  0.37966594  1
  Sr  Sr15  1  0.81024122  0.55938765  0.62032323  1
  Sr  Sr16  1  0.81006097  0.06094627  0.62033419  1
  Sr  Sr17  1  0.55938766  0.81024122  0.62032324  1
  Sr  Sr18  1  0.06094635  0.81006093  0.62033425  1
  Sr  Sr19  1  0.18993922  0.93905382  0.37966591  1
  Sr  Sr20  1  0.44061250  0.18975889  0.37967691  1
  Sr  Sr21  1  0.18975889  0.44061254  0.37967692  1
  Bi  Bi0  1  0.37637917  0.37637905  0.00068213  1
  Bi  Bi1  1  0.62342776  0.37657235  0.00000011  1
  Bi  Bi2  1  0.37657242  0.62342783  0.00000006  1
  Bi  Bi3  1  0.62362102  0.62362113  -0.00068197  1
  Bi  Bi4  1  0.65122293  -0.00001060  0.00002288  1
  Bi  Bi5  1  -0.00001059  0.65122294  0.00002285  1
  Bi  Bi6  1  0.00000874  0.34877659  -0.00002381  1
  Bi  Bi7  1  0.34877663  0.00000881  -0.00002378  1
  Bi  Bi8  1  0.11855992  0.11855994  0.65028269  1
  Bi  Bi9  1  0.46829606  0.46829608  0.34932058  1
  Bi  Bi10  1  0.88144025  0.88144026  0.34971750  1
  Bi  Bi11  1  0.46847533  0.88163527  0.34998853  1
  Bi  Bi12  1  0.88163521  0.46847528  0.34998848  1
  Bi  Bi13  1  0.53152471  0.11836484  0.65001160  1
  Bi  Bi14  1  0.11836485  0.53152472  0.65001159  1
  Bi  Bi15  1  0.53170399  0.53170401  0.65067943  1
  Bi  Bi16  1  0.87381753  0.87381753  0.74760747  1
  Bi  Bi17  1  0.12618258  0.12618262  0.25239262  1
  Bi  Bi18  1  0.24999804  0.75000214  0.50000000  1
  Bi  Bi19  1  0.75000212  0.24999799  0.49999997  1
loop_
_geom_bond_atom_site_label_1
_geom_bond_atom_site_label_2
_geom_bond_distance
_geom_bond_site_symmetry_2
Sr12 Sr16 4.256260 1_565
Sr12 Sr18 4.256260 1_655
Sr12 Sr17 4.256922 1_555
Sr12 Sr15 4.256922 1_555
Sr13 Sr14 4.256259 1_455
Sr13 Sr19 4.256259 1_545
Sr13 Sr20 4.256920 1_555
Sr13 Sr21 4.256921 1_555
Bi0 Bi1 3.198708 1_555
Bi0 Bi2 3.198712 1_555
Bi0 Bi9 3.563079 1_555
Bi0 Bi8 3.578449 1_554
Bi0 Sr11 3.740607 1_555
Bi0 Sr9 3.740609 1_555
Bi0 Sr12 3.743021 1_555
Bi0 Sr7 3.745350 1_554
Bi0 Sr6 3.745352 1_554
Bi0 Sr13 3.754971 1_554
Bi0 Sr3 3.841937 1_555
Bi1 Bi3 3.198712 1_555
Bi1 Bi12 3.579930 1_555
Bi1 Bi13 3.579931 1_554
Bi1 Sr7 3.741842 1_554
Bi1 Sr10 3.741844 1_555
Bi1 Sr12 3.743648 1_555
Bi1 Sr13 3.743650 1_554
Bi1 Sr5 3.744688 1_554
Bi1 Sr11 3.744689 1_555
Bi1 Sr2 3.851836 1_555
Bi2 Bi3 3.198709 1_555
Bi2 Sr4 3.741842 1_555
Bi2 Sr6 3.741845 1_554
Bi2 Sr12 3.743649 1_555
Bi2 Sr13 3.743650 1_554
Bi2 Sr8 3.744686 1_554
Bi2 Sr9 3.744688 1_555
Bi2 Sr1 3.851837 1_555
Bi3 Sr8 3.740607 1_554
Bi3 Sr5 3.740608 1_554
Bi3 Sr13 3.743023 1_554
Bi3 Sr4 3.745350 1_555
Bi3 Sr10 3.745353 1_555
Bi3 Sr12 3.754970 1_555
Bi3 Sr0 3.841937 1_555
Bi4 Sr2 3.192148 1_555
Bi4 Sr0 3.193128 1_545
Bi4 Sr8 3.437233 1_544
Bi4 Sr11 3.437786 1_555
Bi4 Sr7 3.438442 1_554
Bi4 Sr4 3.438893 1_545
Bi4 Sr14 3.736545 1_555
Bi4 Sr17 3.737732 1_544
Bi5 Sr1 3.192148 1_555
Bi5 Sr0 3.193128 1_455
Bi5 Sr5 3.437232 1_454
Bi5 Sr9 3.437784 1_555
Bi5 Sr6 3.438443 1_554
Bi5 Sr10 3.438893 1_455
Bi5 Sr19 3.736545 1_555
Bi5 Sr15 3.737732 1_454
Bi6 Sr2 3.192147 1_455
Bi6 Sr3 3.193141 1_555
Bi6 Sr9 3.437245 1_555
Bi6 Sr5 3.437772 1_454
Bi6 Sr10 3.438439 1_455
Bi6 Sr6 3.438897 1_554
Bi6 Sr16 3.736536 1_454
Bi6 Sr21 3.737741 1_555
Bi7 Sr1 3.192148 1_545
Bi7 Sr3 3.193139 1_555
Bi7 Sr11 3.437245 1_555
Bi7 Sr8 3.437773 1_544
Bi7 Sr4 3.438439 1_545
Bi7 Sr7 3.438897 1_554
Bi7 Sr18 3.736536 1_544
Bi7 Sr20 3.737741 1_555
Bi8 Sr6 3.439358 1_555
Bi8 Sr7 3.439359 1_555
Bi8 Sr14 3.708379 1_455
Bi8 Sr19 3.708379 1_545
Bi8 Sr13 3.785338 1_555
Bi8 Sr16 3.844753 1_455
Bi8 Sr18 3.844754 1_545
Bi8 Sr3 3.991236 1_556
Bi9 Sr11 3.437681 1_555
Bi9 Sr9 3.437683 1_555
Bi9 Sr15 3.708151 1_555
Bi9 Sr17 3.708151 1_555
Bi9 Sr12 3.780587 1_555
Bi9 Sr21 3.848049 1_555
Bi9 Sr20 3.848050 1_555
Bi9 Sr3 3.988771 1_555
Bi10 Bi8 3.203583 1_665
Bi10 Sr4 3.439357 1_555
Bi10 Sr10 3.439358 1_555
Bi10 Bi3 3.578449 1_555
Bi10 Sr16 3.708378 1_565
Bi10 Sr18 3.708379 1_655
Bi10 Sr12 3.785338 1_555
Bi10 Sr19 3.844754 1_655
Bi10 Sr14 3.844754 1_565
Bi10 Sr0 3.991236 1_555
Bi11 Bi13 3.200120 1_565
Bi11 Sr4 3.436930 1_555
Bi11 Sr9 3.438641 1_555
Bi11 Bi2 3.579931 1_555
Bi11 Sr16 3.702654 1_565
Bi11 Sr17 3.705434 1_555
Bi11 Sr12 3.786734 1_555
Bi11 Sr20 3.842040 1_565
Bi11 Sr19 3.843143 1_555
Bi11 Sr1 3.992104 1_555
Bi12 Bi14 3.200121 1_655
Bi12 Sr10 3.436931 1_555
Bi12 Sr11 3.438640 1_555
Bi12 Sr18 3.702654 1_655
Bi12 Sr15 3.705434 1_555
Bi12 Sr12 3.786734 1_555
Bi12 Sr21 3.842040 1_655
Bi12 Sr14 3.843143 1_555
Bi12 Sr2 3.992105 1_555
Bi13 Sr7 3.436931 1_555
Bi13 Sr5 3.438639 1_555
Bi13 Sr19 3.702652 1_545
Bi13 Sr20 3.705434 1_555
Bi13 Sr13 3.786733 1_555
Bi13 Sr17 3.842041 1_545
Bi13 Sr16 3.843146 1_555
Bi13 Sr2 3.992105 1_556
Bi14 Sr6 3.436932 1_555
Bi14 Sr8 3.438637 1_555
Bi14 Bi2 3.579931 1_556
Bi14 Sr14 3.702652 1_455
Bi14 Sr21 3.705434 1_555
Bi14 Sr13 3.786733 1_555
Bi14 Sr15 3.842040 1_455
Bi14 Sr18 3.843145 1_555
Bi14 Sr1 3.992106 1_556
Bi15 Bi9 3.215002 1_555
Bi15 Sr8 3.437680 1_555
Bi15 Sr5 3.437680 1_555
Bi15 Bi3 3.563080 1_556
Bi15 Sr21 3.708150 1_555
Bi15 Sr20 3.708151 1_555
Bi15 Sr13 3.780586 1_555
Bi15 Sr15 3.848049 1_555
Bi15 Sr17 3.848049 1_555
Bi15 Sr0 3.988773 1_556
Bi16 Sr17 3.449885 1_555
Bi16 Sr15 3.449886 1_555
Bi16 Sr16 3.450202 1_565
Bi16 Sr18 3.450202 1_655
Bi16 Sr3 3.827948 1_666
Bi16 Sr0 3.829591 1_556
Bi16 Sr2 3.830875 1_566
Bi16 Sr1 3.830875 1_656
Bi16 Sr12 3.936271 1_555
Bi17 Sr20 3.449886 1_555
Bi17 Sr21 3.449886 1_555
Bi17 Sr14 3.450203 1_455
Bi17 Sr19 3.450203 1_545
Bi17 Sr0 3.827947 1_445
Bi17 Sr3 3.829592 1_555
Bi17 Sr1 3.830874 1_545
Bi17 Sr2 3.830875 1_455
Bi17 Sr13 3.936269 1_555
Bi18 Sr17 3.409349 1_555
Bi18 Sr21 3.409350 1_555
Bi18 Sr19 3.409861 1_555
Bi18 Sr18 3.409862 1_555
Bi18 Sr9 3.415629 1_555
Bi18 Sr8 3.415629 1_555
Bi18 Sr10 3.416150 1_455
Bi18 Sr7 3.416153 1_565
Bi19 Sr20 3.409349 1_555
Bi19 Sr15 3.409350 1_555
Bi19 Sr14 3.409860 1_555
Bi19 Sr16 3.409863 1_555
Bi19 Sr11 3.415627 1_555
Bi19 Sr5 3.415629 1_555
Bi19 Sr4 3.416151 1_545
Bi19 Sr6 3.416152 1_655
