# generated using pymatgen
data_RuPtBr6
_symmetry_space_group_name_H-M   'P 1'
_cell_length_a   6.43533892
_cell_length_b   6.43533873
_cell_length_c   6.50678947
_cell_angle_alpha   98.83215929
_cell_angle_beta   98.83216524
_cell_angle_gamma   120.00551101
_symmetry_Int_Tables_number   1
_chemical_formula_structural   RuPtBr6
_chemical_formula_sum   'Ru1 Pt1 Br6'
_cell_volume   222.07762719
_cell_formula_units_Z   1
loop_
 _symmetry_equiv_pos_site_id
 _symmetry_equiv_pos_as_xyz
  1  'x, y, z'
loop_
 _atom_site_type_symbol
 _atom_site_label
 _atom_site_symmetry_multiplicity
 _atom_site_fract_x
 _atom_site_fract_y
 _atom_site_fract_z
 _atom_site_occupancy
  Ru  Ru0  1  0.16660387  0.83339513  0.00000000  1
  Pt  Pt0  1  0.83338074  0.16661826  1.00000000  1
  Br  Br0  1  0.92060175  0.57029178  0.22483647  1
  Br  Br1  1  0.56935296  0.92009665  0.22465696  1
  Br  Br2  1  0.21961505  0.21916794  0.22554543  1
  Br  Br3  1  0.78083206  0.78038495  0.77445357  1
  Br  Br4  1  0.42970822  0.07939825  0.77516453  1
  Br  Br5  1  0.07990335  0.43064704  0.77534404  1
loop_
_geom_bond_atom_site_label_1
_geom_bond_atom_site_label_2
_geom_bond_distance
_geom_bond_site_symmetry_2
Br0 Ru0 2.510824 1_655
Br0 Pt0 2.515190 1_554
Br1 Ru0 2.511068 1_555
Br1 Pt0 2.513860 1_564
Br2 Ru0 2.512717 1_545
Br2 Pt0 2.516516 1_454
Br3 Ru0 2.512717 1_656
Br3 Pt0 2.516516 1_565
Br4 Ru0 2.510824 1_546
Br4 Pt0 2.515185 1_555
Br5 Ru0 2.511062 1_556
Br5 Pt0 2.513860 1_455
