# generated using pymatgen
data_CsFeIO6
_symmetry_space_group_name_H-M   'P 1'
_cell_length_a   5.01930637
_cell_length_b   5.01930594
_cell_length_c   13.61951962
_cell_angle_alpha   90.00000000
_cell_angle_beta   90.00000000
_cell_angle_gamma   120.00000871
_symmetry_Int_Tables_number   1
_chemical_formula_structural   CsFeIO6
_chemical_formula_sum   'Cs2 Fe2 I2 O12'
_cell_volume   297.15275154
_cell_formula_units_Z   2
loop_
 _symmetry_equiv_pos_site_id
 _symmetry_equiv_pos_as_xyz
  1  'x, y, z'
loop_
 _atom_site_type_symbol
 _atom_site_label
 _atom_site_symmetry_multiplicity
 _atom_site_fract_x
 _atom_site_fract_y
 _atom_site_fract_z
 _atom_site_occupancy
  Cs  Cs0  1  0.00000000  0.00000000  0.00000000  1
  Cs  Cs1  1  0.00000000  0.00000000  0.50000000  1
  Fe  Fe0  1  0.66666700  0.33333300  0.25000000  1
  Fe  Fe1  1  0.33333300  0.66666700  0.75000000  1
  I  I0  1  0.33333300  0.66666700  0.25000000  1
  I  I1  1  0.66666700  0.33333300  0.75000000  1
  O  O0  1  0.99807907  0.38660400  0.32847093  1
  O  O1  1  0.38852593  0.38660400  0.17152907  1
  O  O2  1  0.61147407  0.99807907  0.82847093  1
  O  O3  1  0.00192093  0.61339600  0.82847093  1
  O  O4  1  0.61339600  0.00192093  0.17152907  1
  O  O5  1  0.38660400  0.38852593  0.82847093  1
  O  O6  1  0.38660400  0.99807907  0.67152907  1
  O  O7  1  0.99807907  0.61147407  0.17152907  1
  O  O8  1  0.61339600  0.61147407  0.32847093  1
  O  O9  1  0.00192093  0.38852593  0.67152907  1
  O  O10  1  0.61147407  0.61339600  0.67152907  1
  O  O11  1  0.38852593  0.00192093  0.32847093  1
loop_
_geom_bond_atom_site_label_1
_geom_bond_atom_site_label_2
_geom_bond_distance
_geom_bond_site_symmetry_2
Cs0 O3 3.040041 1_544
Cs0 O4 3.040041 1_455
Cs0 O5 3.040042 1_554
Cs0 O1 3.040042 1_555
Cs0 O7 3.040044 1_445
Cs0 O2 3.040044 1_444
Cs1 O0 3.040041 1_455
Cs1 O6 3.040041 1_545
Cs1 O8 3.040042 1_445
Cs1 O10 3.040042 1_445
Cs1 O9 3.040044 1_555
Cs1 O11 3.040044 1_555
Fe0 O11 1.880427 1_555
Fe0 O7 1.880427 1_555
Fe0 O4 1.880427 1_555
Fe0 O8 1.880427 1_555
Fe0 O0 1.880427 1_555
Fe0 O1 1.880427 1_555
Fe1 O2 1.880427 1_555
Fe1 O9 1.880427 1_555
Fe1 O6 1.880427 1_555
Fe1 O5 1.880427 1_555
Fe1 O3 1.880427 1_555
Fe1 O10 1.880427 1_555
I0 O11 1.893249 1_565
I0 O7 1.893250 1_455
I0 O4 1.893252 1_565
I0 O0 1.893252 1_455
I0 O1 1.893258 1_555
I0 O8 1.893258 1_555
I1 O2 1.893249 1_545
I1 O9 1.893250 1_655
I1 O6 1.893252 1_545
I1 O3 1.893252 1_655
I1 O10 1.893258 1_555
I1 O5 1.893258 1_555
