# generated using pymatgen
data_Ba2BIN2
_symmetry_space_group_name_H-M   'P 1'
_cell_length_a   4.49948711
_cell_length_b   10.85160728
_cell_length_c   14.04669942
_cell_angle_alpha   87.82347564
_cell_angle_beta   90.00000000
_cell_angle_gamma   90.00000000
_symmetry_Int_Tables_number   1
_chemical_formula_structural   Ba2BIN2
_chemical_formula_sum   'Ba8 B4 I4 N8'
_cell_volume   685.35871509
_cell_formula_units_Z   4
loop_
 _symmetry_equiv_pos_site_id
 _symmetry_equiv_pos_as_xyz
  1  'x, y, z'
loop_
 _atom_site_type_symbol
 _atom_site_label
 _atom_site_symmetry_multiplicity
 _atom_site_fract_x
 _atom_site_fract_y
 _atom_site_fract_z
 _atom_site_occupancy
  Ba  Ba0  1  0.25000000  0.81211560  0.38051089  1
  Ba  Ba1  1  0.75000000  0.64190026  0.62751282  1
  Ba  Ba2  1  0.75000000  0.61061837  0.16754045  1
  Ba  Ba3  1  0.25000000  0.92139326  0.90045234  1
  Ba  Ba4  1  0.25000000  0.38938163  0.83245955  1
  Ba  Ba5  1  0.75000000  0.18788440  0.61948911  1
  Ba  Ba6  1  0.75000000  0.07860674  0.09954766  1
  Ba  Ba7  1  0.25000000  0.35809974  0.37248718  1
  B  B0  1  0.25000000  0.84225919  0.14424063  1
  B  B1  1  0.75000000  0.58888557  0.39203629  1
  B  B2  1  0.75000000  0.15774081  0.85575937  1
  B  B3  1  0.25000000  0.41111443  0.60796371  1
  I  I0  1  0.25000000  0.34998299  0.10112878  1
  I  I1  1  0.25000000  0.91495713  0.63861651  1
  I  I2  1  0.75000000  0.65001701  0.89887122  1
  I  I3  1  0.75000000  0.08504287  0.36138349  1
  N  N0  1  0.75000000  0.48823968  0.33944379  1
  N  N1  1  0.25000000  0.30607052  0.56033994  1
  N  N2  1  0.25000000  0.51176032  0.66055621  1
  N  N3  1  0.75000000  0.26082916  0.79949463  1
  N  N4  1  0.75000000  0.69392948  0.43966006  1
  N  N5  1  0.25000000  0.73917084  0.20050537  1
  N  N6  1  0.25000000  0.94573984  0.08901628  1
  N  N7  1  0.75000000  0.05426016  0.91098372  1
loop_
_geom_bond_atom_site_label_1
_geom_bond_atom_site_label_2
_geom_bond_distance
_geom_bond_site_symmetry_2
Ba0 N5 2.678028 1_555
Ba0 N4 2.704728 1_455
Ba0 N4 2.704728 1_555
Ba0 I3 3.720854 1_465
Ba0 I3 3.720854 1_565
Ba0 I1 3.833700 1_555
Ba1 N4 2.677388 1_555
Ba1 N2 2.687263 1_655
Ba1 N2 2.687263 1_555
Ba1 I1 3.728374 1_655
Ba1 I1 3.728374 1_555
Ba1 I2 3.816050 1_555
Ba2 N5 2.696452 1_655
Ba2 N5 2.696452 1_555
Ba2 N0 2.711214 1_555
Ba2 I0 3.759168 1_655
Ba2 I0 3.759168 1_555
Ba2 I2 3.781888 1_554
Ba3 N6 2.671811 1_556
Ba3 N7 2.679230 1_465
Ba3 N7 2.679230 1_565
Ba3 I1 3.681243 1_555
Ba3 I2 3.706624 1_455
Ba3 I2 3.706624 1_555
Ba4 N3 2.696452 1_455
Ba4 N3 2.696452 1_555
Ba4 N2 2.711214 1_555
Ba4 I2 3.759168 1_455
Ba4 I2 3.759168 1_555
Ba4 I0 3.781888 1_556
Ba5 N3 2.678028 1_555
Ba5 N1 2.704728 1_555
Ba5 N1 2.704728 1_655
Ba5 I1 3.720854 1_645
Ba5 I1 3.720854 1_545
Ba5 I3 3.833700 1_555
Ba6 N7 2.671811 1_554
Ba6 N6 2.679230 1_545
Ba6 N6 2.679230 1_645
Ba6 I3 3.681243 1_555
Ba6 I0 3.706624 1_655
Ba6 I0 3.706624 1_555
Ba7 N1 2.677388 1_555
Ba7 N0 2.687263 1_455
Ba7 N0 2.687263 1_555
Ba7 I3 3.728374 1_555
Ba7 I3 3.728374 1_455
Ba7 I0 3.816050 1_555
B0 N6 1.340355 1_555
B0 N5 1.344955 1_555
B1 N0 1.341593 1_555
B1 N4 1.343423 1_555
B2 N7 1.340355 1_555
B2 N3 1.344955 1_555
B3 N2 1.341593 1_555
B3 N1 1.343423 1_555
