# generated using pymatgen
data_Ta2CrO6
_symmetry_space_group_name_H-M   'P 1'
_cell_length_a   4.81810880
_cell_length_b   4.83008100
_cell_length_c   18.77802203
_cell_angle_alpha   90.00228258
_cell_angle_beta   91.40542299
_cell_angle_gamma   89.99635808
_symmetry_Int_Tables_number   1
_chemical_formula_structural   Ta2CrO6
_chemical_formula_sum   'Ta8 Cr4 O24'
_cell_volume   436.86795757
_cell_formula_units_Z   4
loop_
 _symmetry_equiv_pos_site_id
 _symmetry_equiv_pos_as_xyz
  1  'x, y, z'
loop_
 _atom_site_type_symbol
 _atom_site_label
 _atom_site_symmetry_multiplicity
 _atom_site_fract_x
 _atom_site_fract_y
 _atom_site_fract_z
 _atom_site_occupancy
  Ta  Ta0  1  0.50177600  0.48764200  0.41599900  1
  Ta  Ta1  1  0.50181500  0.48764100  0.91600600  1
  Ta  Ta2  1  0.99829800  0.98763300  0.33400000  1
  Ta  Ta3  1  0.99822700  0.98761300  0.83400100  1
  Ta  Ta4  1  0.49825200  0.51239000  0.08399800  1
  Ta  Ta5  1  0.49819800  0.51242300  0.58399900  1
  Ta  Ta6  1  0.00173500  0.01251400  0.16599400  1
  Ta  Ta7  1  0.00173700  0.01246400  0.66600000  1
  Cr  Cr0  1  0.99979000  0.00011300  0.49992500  1
  Cr  Cr1  1  0.50003100  0.50006200  0.75004500  1
  Cr  Cr2  1  0.00007600  0.99993800  0.00000500  1
  Cr  Cr3  1  0.50007700  0.50020300  0.24998500  1
  O  O0  1  0.71046500  0.72716200  0.15579100  1
  O  O1  1  0.71036300  0.72721800  0.65582900  1
  O  O2  1  0.21038100  0.77278600  0.40583900  1
  O  O3  1  0.21044500  0.77269000  0.90577700  1
  O  O4  1  0.28962900  0.27262800  0.34423500  1
  O  O5  1  0.28969100  0.27270200  0.84417100  1
  O  O6  1  0.78946000  0.22710200  0.09422000  1
  O  O7  1  0.78945100  0.22711600  0.59419200  1
  O  O8  1  0.31356500  0.31388700  0.50034900  1
  O  O9  1  0.31363900  0.31394100  0.00031600  1
  O  O10  1  0.18635500  0.81398100  0.24967900  1
  O  O11  1  0.18642300  0.81390500  0.74964900  1
  O  O12  1  0.81366000  0.18606200  0.25035700  1
  O  O13  1  0.81352500  0.18610300  0.75035100  1
  O  O14  1  0.68638300  0.68607900  0.99964500  1
  O  O15  1  0.68649000  0.68611500  0.49966100  1
  O  O16  1  0.20264600  0.81107700  0.08826700  1
  O  O17  1  0.20263100  0.81105100  0.58820400  1
  O  O18  1  0.79703100  0.18894400  0.41177400  1
  O  O19  1  0.79733600  0.18897400  0.91175100  1
  O  O20  1  0.29738700  0.31110400  0.16174000  1
  O  O21  1  0.29739100  0.31109100  0.66179400  1
  O  O22  1  0.70283800  0.68883900  0.33825100  1
  O  O23  1  0.70280200  0.68880700  0.83820300  1
loop_
_geom_bond_atom_site_label_1
_geom_bond_atom_site_label_2
_geom_bond_distance
_geom_bond_site_symmetry_2
Cr0 O18 2.108777 1_555
Cr0 O17 2.111294 1_645
Cr0 O15 2.139804 1_545
Cr0 O8 2.140610 1_655
Cr0 O2 2.333276 1_645
Cr0 O7 2.334602 1_555
Cr1 O23 2.108721 1_555
Cr1 O21 2.110264 1_555
Cr1 O11 2.140150 1_555
Cr1 O13 2.140183 1_555
Cr1 O5 2.333507 1_555
Cr1 O1 2.334324 1_555
Cr2 O16 2.110048 1_555
Cr2 O19 2.110661 1_464
Cr2 O14 2.140639 1_454
Cr2 O9 2.140703 1_565
Cr2 O3 2.334660 1_554
Cr2 O6 2.334821 1_465
Cr3 O22 2.110042 1_555
Cr3 O20 2.110551 1_555
Cr3 O10 2.140339 1_555
Cr3 O12 2.141091 1_555
Cr3 O0 2.333682 1_555
Cr3 O4 2.336020 1_555
O0 Ta4 1.967594 1_555
O0 Ta6 1.973025 1_665
O1 Ta5 1.968004 1_555
O1 Ta7 1.972975 1_665
O2 Ta2 1.968039 1_455
O2 Ta0 1.972573 1_555
O3 Ta3 1.967764 1_455
O3 Ta1 1.972270 1_555
O4 Ta0 1.967685 1_555
O4 Ta2 1.972078 1_445
O5 Ta1 1.968334 1_555
O5 Ta3 1.972752 1_445
O6 Ta6 1.967024 1_655
O6 Ta4 1.972512 1_555
O7 Ta7 1.967643 1_655
O7 Ta5 1.972687 1_555
O8 Ta0 2.026363 1_555
O8 Ta5 2.027247 1_555
O9 Ta1 2.025579 1_554
O9 Ta4 2.027467 1_555
O10 Ta2 2.025279 1_455
O10 Ta6 2.027722 1_565
O11 Ta3 2.026165 1_455
O11 Ta7 2.027398 1_565
O12 Ta6 2.025737 1_655
O12 Ta2 2.026918 1_545
O13 Ta7 2.026049 1_655
O13 Ta3 2.027287 1_545
O14 Ta4 2.026096 1_556
O14 Ta1 2.026734 1_555
O15 Ta5 2.026241 1_555
O15 Ta0 2.027439 1_555
O16 Ta6 2.020663 1_565
O16 Ta4 2.030175 1_555
O17 Ta7 2.021518 1_565
O17 Ta5 2.029773 1_555
O18 Ta2 2.021870 1_545
O18 Ta0 2.028979 1_555
O19 Ta3 2.020755 1_545
O19 Ta1 2.029804 1_555
O20 Ta4 2.020524 1_555
O20 Ta6 2.030115 1_555
O21 Ta5 2.021223 1_555
O21 Ta7 2.030198 1_555
O22 Ta0 2.020871 1_555
O22 Ta2 2.030162 1_555
O23 Ta1 2.021378 1_555
O23 Ta3 2.030033 1_555
