# generated using pymatgen
data_Ti8Al14PIr7
_symmetry_space_group_name_H-M   'P 1'
_cell_length_a   8.58476462
_cell_length_b   8.58476514
_cell_length_c   8.58476465
_cell_angle_alpha   119.99534374
_cell_angle_beta   119.90864951
_cell_angle_gamma   90.08318352
_symmetry_Int_Tables_number   1
_chemical_formula_structural   Ti8Al14PIr7
_chemical_formula_sum   'Ti8 Al14 P1 Ir7'
_cell_volume   447.69720913
_cell_formula_units_Z   1
loop_
 _symmetry_equiv_pos_site_id
 _symmetry_equiv_pos_as_xyz
  1  'x, y, z'
loop_
 _atom_site_type_symbol
 _atom_site_label
 _atom_site_symmetry_multiplicity
 _atom_site_fract_x
 _atom_site_fract_y
 _atom_site_fract_z
 _atom_site_occupancy
  Ti  Ti0  1  0.80274766  0.30084533  0.09800592  1
  Ti  Ti1  1  0.20283841  0.30084533  0.49809766  1
  Ti  Ti2  1  0.19869807  0.69869807  0.50000000  1
  Ti  Ti3  1  0.20283841  0.70474074  0.90199408  1
  Ti  Ti4  1  0.80274766  0.70474074  0.50190234  1
  Ti  Ti5  1  0.79763679  0.29763679  0.50000000  1
  Ti  Ti6  1  0.38012566  0.12280304  0.74267738  1
  Ti  Ti7  1  0.38012566  0.63745029  0.25732262  1
  Al  Al0  1  0.16006098  0.33636144  0.17629946  1
  Al  Al1  1  0.16006098  0.98376251  0.82370054  1
  Al  Al2  1  0.15557418  0.33903663  0.81653655  1
  Al  Al3  1  0.52249907  0.33903663  0.18346345  1
  Al  Al4  1  0.83826384  0.65966300  0.82140016  1
  Al  Al5  1  0.83826384  0.01686468  0.17859984  1
  Al  Al6  1  0.83666007  0.66099807  0.17566201  1
  Al  Al7  1  0.48533606  0.66099807  0.82433799  1
  Al  Al8  1  0.38112063  0.11982737  0.26129426  1
  Al  Al9  1  0.85853311  0.11982737  0.73870574  1
  Al  Al10  1  0.62069637  0.88091585  0.26021947  1
  Al  Al11  1  0.62069637  0.36047690  0.73978053  1
  Al  Al12  1  0.62209168  0.87970681  0.74238487  1
  Al  Al13  1  0.13732094  0.87970681  0.25761513  1
  P  P0  1  0.99902262  0.49902262  0.50000000  1
  Ir  Ir0  1  0.00236609  0.99952891  0.50149055  1
  Ir  Ir1  1  0.49803837  0.99952891  0.99716282  1
  Ir  Ir2  1  0.49743747  0.49743747  1.00000000  1
  Ir  Ir3  1  0.49803837  0.50087555  0.49850945  1
  Ir  Ir4  1  0.00236609  0.50087555  0.00283718  1
  Ir  Ir5  1  0.99987549  0.99987549  0.00000000  1
  Ir  Ir6  1  0.49791104  0.99791104  0.50000000  1
loop_
_geom_bond_atom_site_label_1
_geom_bond_atom_site_label_2
_geom_bond_distance
_geom_bond_site_symmetry_2
Al0 Ir5 2.463254 1_445
Al0 Ir4 2.478478 1_555
Al0 Ir3 2.478485 1_555
Al1 Ir5 2.463248 1_456
Al1 Ir0 2.478480 1_555
Al1 Ir1 2.478488 1_555
Al2 Ir0 2.469690 1_545
Al2 Ir4 2.469697 1_556
Al2 Ir2 2.486029 1_555
Al3 Ir3 2.469684 1_555
Al3 Ir1 2.469692 1_544
Al3 Ir2 2.486038 1_554
Al4 Ir5 2.489045 1_556
Al4 Ir4 2.491830 1_656
Al4 Ir3 2.491837 1_555
Al5 Ir5 2.489035 1_545
Al5 Ir1 2.491835 1_544
Al5 Ir0 2.491843 1_645
Al6 Ir0 2.487107 1_655
Al6 Ir4 2.487107 1_655
Al6 Ir2 2.493558 1_554
Al7 Ir3 2.487107 1_555
Al7 Ir1 2.487107 1_555
Al7 Ir2 2.493558 1_555
Al8 Ir6 2.529548 1_545
Al8 Ir3 2.673344 1_555
Al8 Ir1 2.673350 1_544
Al8 Ir5 2.676436 1_445
Al9 Ir6 2.529548 1_545
Al9 Ir0 2.673344 1_645
Al9 Ir4 2.673344 1_656
Al9 Ir5 2.676443 1_546
Al10 Ir6 2.541025 1_555
Al10 Ir0 2.678884 1_655
Al10 Ir1 2.678884 1_554
Al10 Ir2 2.688349 1_554
Al11 Ir6 2.541025 1_545
Al11 Ir4 2.678884 1_656
Al11 Ir3 2.678884 1_555
Al11 Ir2 2.688349 1_555
Al12 Ir6 2.529472 1_555
Al12 Ir5 2.651400 1_556
Al12 Ir1 2.655684 1_555
Al12 Ir3 2.655684 1_555
Al13 Ir6 2.529479 1_555
Al13 Ir5 2.651400 1_455
Al13 Ir0 2.655677 1_555
Al13 Ir4 2.655684 1_555
P0 Ti2 2.422438 1_655
P0 Ti1 2.442448 1_655
P0 Ti4 2.442448 1_555
P0 Ti3 2.442454 1_655
P0 Ti0 2.442454 1_555
P0 Ti5 2.443188 1_555
Ir0 Ti6 2.650842 1_565
Ir1 Ti6 2.650842 1_565
Ir2 Ti6 2.627954 1_555
Ir2 Ti7 2.627954 1_556
Ir3 Ti7 2.650856 1_555
Ir4 Ti7 2.650842 1_555
Ir6 Ti7 2.526404 1_555
Ir6 Ti6 2.526418 1_565
