# generated using pymatgen
data_Ba2Cu2PPt6
_symmetry_space_group_name_H-M   'P 1'
_cell_length_a   9.46331158
_cell_length_b   9.46330998
_cell_length_c   4.12711636
_cell_angle_alpha   90.00000000
_cell_angle_beta   90.00000000
_cell_angle_gamma   146.15459728
_symmetry_Int_Tables_number   1
_chemical_formula_structural   Ba2Cu2PPt6
_chemical_formula_sum   'Ba2 Cu2 P1 Pt6'
_cell_volume   205.85062806
_cell_formula_units_Z   1
loop_
 _symmetry_equiv_pos_site_id
 _symmetry_equiv_pos_as_xyz
  1  'x, y, z'
loop_
 _atom_site_type_symbol
 _atom_site_label
 _atom_site_symmetry_multiplicity
 _atom_site_fract_x
 _atom_site_fract_y
 _atom_site_fract_z
 _atom_site_occupancy
  Ba  Ba0  1  0.62080654  0.37399528  0.50000000  1
  Ba  Ba1  1  0.37399528  0.62080654  0.50000000  1
  Cu  Cu0  1  0.19885384  0.79290296  0.50000000  1
  Cu  Cu1  1  0.79290296  0.19885384  0.50000000  1
  P  P0  1  0.20685079  0.20685079  0.00000000  1
  Pt  Pt0  1  0.11484455  0.88536506  0.00000000  1
  Pt  Pt1  1  0.88536506  0.11484455  0.00000000  1
  Pt  Pt2  1  0.49740968  0.99612914  0.00000000  1
  Pt  Pt3  1  0.99612914  0.49740968  0.00000000  1
  Pt  Pt4  1  0.00088692  0.00088692  0.50000000  1
  Pt  Pt5  1  0.62555524  0.62555524  0.00000000  1
loop_
_geom_bond_atom_site_label_1
_geom_bond_atom_site_label_2
_geom_bond_distance
_geom_bond_site_symmetry_2
Ba0 Cu0 3.101206 1_655
Ba0 Cu0 3.116070 1_545
Ba0 Pt5 3.122466 1_556
Ba0 Pt5 3.122466 1_555
Ba0 Cu1 3.143741 1_555
Ba0 Pt3 3.368539 1_555
Ba0 Pt3 3.368539 1_556
Ba0 Pt2 3.387111 1_545
Ba0 Pt2 3.387111 1_546
Ba0 Pt0 3.433487 1_545
Ba0 Pt0 3.433487 1_546
Ba0 P0 3.437085 1_555
Ba0 P0 3.437085 1_556
Ba0 Pt0 3.457306 1_656
Ba0 Pt0 3.457306 1_655
Ba0 Pt4 3.532053 1_555
Ba0 Pt4 3.561882 1_665
Ba1 Cu1 3.101205 1_565
Ba1 Cu1 3.116071 1_455
Ba1 Pt5 3.122467 1_555
Ba1 Pt5 3.122467 1_556
Ba1 Cu0 3.143741 1_555
Ba1 Pt2 3.368538 1_556
Ba1 Pt2 3.368538 1_555
Ba1 Pt3 3.387111 1_455
Ba1 Pt3 3.387111 1_456
Ba1 Pt1 3.433487 1_455
Ba1 Pt1 3.433487 1_456
Ba1 P0 3.437084 1_555
Ba1 P0 3.437084 1_556
Ba1 Pt1 3.457306 1_566
Ba1 Pt1 3.457306 1_565
Ba1 Pt4 3.532052 1_555
Ba1 Pt4 3.561883 1_665
Cu0 Pt0 2.609871 1_555
Cu0 Pt0 2.609871 1_556
Cu0 Pt3 2.616701 1_455
Cu0 Pt3 2.616701 1_456
Cu0 Pt2 2.629383 1_555
Cu0 Pt2 2.629383 1_556
Cu1 Pt1 2.609871 1_556
Cu1 Pt1 2.609871 1_555
Cu1 Pt2 2.616701 1_546
Cu1 Pt2 2.616701 1_545
Cu1 Pt3 2.629383 1_555
Cu1 Pt3 2.629383 1_556
P0 Pt5 2.306720 1_555
P0 Pt4 2.354952 1_555
P0 Pt4 2.354952 1_554
P0 Pt0 2.369335 1_545
P0 Pt1 2.369335 1_455
Pt0 Pt3 2.808854 1_455
Pt0 Pt2 2.811051 1_555
Pt1 Pt2 2.808855 1_545
Pt1 Pt3 2.811050 1_555
Pt2 Pt3 2.754690 1_565
Pt2 Pt3 2.754690 1_455
