# generated using pymatgen
data_Hf16CuNi4Mo3
_symmetry_space_group_name_H-M   'P 1'
_cell_length_a   8.62519457
_cell_length_b   8.62519497
_cell_length_c   8.62519492
_cell_angle_alpha   60.05889595
_cell_angle_beta   60.05888733
_cell_angle_gamma   60.05889531
_symmetry_Int_Tables_number   1
_chemical_formula_structural   Hf16CuNi4Mo3
_chemical_formula_sum   'Hf16 Cu1 Ni4 Mo3'
_cell_volume   454.32959887
_cell_formula_units_Z   1
loop_
 _symmetry_equiv_pos_site_id
 _symmetry_equiv_pos_as_xyz
  1  'x, y, z'
loop_
 _atom_site_type_symbol
 _atom_site_label
 _atom_site_symmetry_multiplicity
 _atom_site_fract_x
 _atom_site_fract_y
 _atom_site_fract_z
 _atom_site_occupancy
  Hf  Hf0  1  0.69267818  0.10204268  0.10204268  1
  Hf  Hf1  1  0.10204268  0.69267818  0.10204268  1
  Hf  Hf2  1  0.10204268  0.10204268  0.69267818  1
  Hf  Hf3  1  0.10316636  0.10316636  0.10316636  1
  Hf  Hf4  1  0.31574862  0.31574862  0.69101854  1
  Hf  Hf5  1  0.68565930  0.68565930  0.31469042  1
  Hf  Hf6  1  0.31574862  0.69101854  0.31574862  1
  Hf  Hf7  1  0.68565930  0.31469042  0.68565930  1
  Hf  Hf8  1  0.69101854  0.31574862  0.31574862  1
  Hf  Hf9  1  0.31469042  0.68565930  0.68565930  1
  Hf  Hf10  1  0.95181141  0.95181141  0.54711277  1
  Hf  Hf11  1  0.55139158  0.55139158  0.94628378  1
  Hf  Hf12  1  0.95181141  0.54711277  0.95181141  1
  Hf  Hf13  1  0.55139158  0.94628378  0.55139158  1
  Hf  Hf14  1  0.54711277  0.95181141  0.95181141  1
  Hf  Hf15  1  0.94628378  0.55139158  0.55139158  1
  Cu  Cu0  1  0.33065233  0.33065233  0.33065233  1
  Ni  Ni0  1  0.32360417  0.89067755  0.89067755  1
  Ni  Ni1  1  0.89067755  0.32360417  0.89067755  1
  Ni  Ni2  1  0.89067755  0.89067755  0.32360417  1
  Ni  Ni3  1  0.89169864  0.89169864  0.89169864  1
  Mo  Mo0  1  0.99913086  0.33265034  0.33265034  1
  Mo  Mo1  1  0.33265034  0.99913086  0.33265034  1
  Mo  Mo2  1  0.33265034  0.33265034  0.99913086  1
loop_
_geom_bond_atom_site_label_1
_geom_bond_atom_site_label_2
_geom_bond_distance
_geom_bond_site_symmetry_2
Hf0 Ni1 2.562086 1_554
Hf0 Ni2 2.562086 1_545
Hf0 Ni3 2.568625 1_544
Hf0 Mo1 3.034899 1_545
Hf0 Mo2 3.034900 1_554
Hf0 Hf7 3.129955 1_554
Hf0 Hf5 3.129955 1_545
Hf0 Hf8 3.183433 1_555
Hf1 Ni0 2.562086 1_554
Hf1 Ni2 2.562086 1_455
Hf1 Ni3 2.568626 1_454
Hf1 Mo2 3.034900 1_554
Hf1 Mo0 3.034900 1_455
Hf1 Hf5 3.129954 1_455
Hf1 Hf9 3.129955 1_554
Hf1 Hf6 3.183433 1_555
Hf2 Ni1 2.562086 1_455
Hf2 Ni0 2.562086 1_545
Hf2 Ni3 2.568625 1_445
Hf2 Mo1 3.034899 1_545
Hf2 Mo0 3.034900 1_455
Hf2 Hf7 3.129955 1_455
Hf2 Hf9 3.129955 1_545
Hf2 Hf4 3.183433 1_555
Hf3 Ni2 2.594056 1_445
Hf3 Ni0 2.594057 1_544
Hf3 Ni1 2.594057 1_454
Hf3 Mo2 3.000953 1_554
Hf3 Mo0 3.000953 1_455
Hf3 Mo1 3.000953 1_545
Hf3 Hf8 3.115122 1_455
Hf3 Hf4 3.115122 1_554
Hf3 Hf6 3.115122 1_545
Hf4 Mo2 2.810628 1_555
Hf4 Ni1 3.158813 1_455
Hf4 Ni0 3.158814 1_545
Hf4 Hf7 3.163222 1_555
Hf4 Hf9 3.163222 1_555
Hf4 Hf8 3.239657 1_555
Hf4 Hf6 3.239657 1_555
Hf5 Mo1 2.886958 1_555
Hf5 Mo0 2.886958 1_555
Hf5 Ni2 3.106872 1_555
Hf5 Ni3 3.136152 1_554
Hf5 Hf6 3.163222 1_555
Hf5 Hf8 3.163222 1_555
Hf5 Hf9 3.202526 1_555
Hf5 Hf7 3.202527 1_555
Hf6 Mo1 2.810628 1_555
Hf6 Ni2 3.158814 1_455
Hf6 Ni0 3.158814 1_554
Hf6 Hf9 3.163222 1_555
Hf6 Hf8 3.239657 1_555
Hf7 Mo2 2.886958 1_555
Hf7 Mo0 2.886958 1_555
Hf7 Ni1 3.106873 1_555
Hf7 Ni3 3.136152 1_545
Hf7 Hf8 3.163222 1_555
Hf7 Hf9 3.202527 1_555
Hf8 Mo0 2.810628 1_555
Hf8 Ni1 3.158813 1_554
Hf8 Ni2 3.158814 1_545
Hf9 Mo1 2.886958 1_555
Hf9 Mo2 2.886958 1_555
Hf9 Ni0 3.106873 1_555
Hf9 Ni3 3.136152 1_455
Hf10 Ni3 2.561833 1_555
Hf10 Ni2 2.565045 1_555
Hf10 Mo1 2.982873 1_655
Hf10 Mo0 2.982874 1_565
Hf10 Hf3 3.129234 1_665
Hf10 Hf6 3.174118 1_655
Hf10 Hf8 3.174119 1_565
Hf10 Hf7 3.212020 1_565
Hf10 Hf9 3.212020 1_655
Hf11 Ni1 2.540522 1_555
Hf11 Ni0 2.540522 1_555
Hf11 Mo2 3.027091 1_555
Hf11 Hf7 3.191378 1_555
Hf11 Hf9 3.191378 1_555
Hf11 Hf6 3.264755 1_556
Hf11 Hf8 3.264755 1_556
Hf12 Ni3 2.561834 1_555
Hf12 Ni1 2.565045 1_555
Hf12 Mo2 2.982874 1_655
Hf12 Mo0 2.982874 1_556
Hf12 Hf3 3.129234 1_656
Hf12 Hf4 3.174118 1_655
Hf12 Hf8 3.174118 1_556
Hf12 Hf9 3.212020 1_655
Hf12 Hf5 3.212020 1_556
Hf13 Ni2 2.540522 1_555
Hf13 Ni0 2.540522 1_555
Hf13 Mo1 3.027091 1_555
Hf13 Hf9 3.191378 1_555
Hf13 Hf5 3.191378 1_555
Hf13 Hf4 3.264755 1_565
Hf13 Hf8 3.264755 1_565
Hf14 Ni3 2.561833 1_555
Hf14 Ni0 2.565045 1_555
Hf14 Mo1 2.982873 1_556
Hf14 Mo2 2.982874 1_565
Hf14 Hf3 3.129233 1_566
Hf14 Hf6 3.174118 1_556
Hf14 Hf4 3.174119 1_565
Hf14 Hf7 3.212020 1_565
Hf14 Hf5 3.212020 1_556
Hf15 Ni1 2.540522 1_555
Hf15 Ni2 2.540522 1_555
Hf15 Mo0 3.027091 1_555
Hf15 Hf7 3.191378 1_555
Hf15 Hf5 3.191378 1_555
Hf15 Hf6 3.264755 1_655
Hf15 Hf4 3.264755 1_655
Cu0 Mo0 2.842339 1_455
Cu0 Mo2 2.842339 1_554
Cu0 Mo1 2.842339 1_545
Cu0 Hf8 2.985455 1_555
Cu0 Hf4 2.985455 1_555
Cu0 Hf6 2.985455 1_555
Cu0 Hf0 3.019142 1_555
Cu0 Hf2 3.019142 1_555
Cu0 Hf1 3.019143 1_555
Cu0 Hf15 3.042648 1_455
Cu0 Hf11 3.042648 1_554
Cu0 Hf13 3.042648 1_545
Mo0 Mo2 2.879231 1_654
Mo0 Mo1 2.879231 1_645
Mo1 Mo2 2.879231 1_564
