# generated using pymatgen
data_Ho10In20Ni9
_symmetry_space_group_name_H-M   'P 1'
_cell_length_a   13.28388074
_cell_length_b   13.28388074
_cell_length_c   9.10091797
_cell_angle_alpha   90.00000000
_cell_angle_beta   90.00000000
_cell_angle_gamma   90.00000000
_symmetry_Int_Tables_number   1
_chemical_formula_structural   Ho10In20Ni9
_chemical_formula_sum   'Ho20 In40 Ni18'
_cell_volume   1605.96152273
_cell_formula_units_Z   2
loop_
 _symmetry_equiv_pos_site_id
 _symmetry_equiv_pos_as_xyz
  1  'x, y, z'
loop_
 _atom_site_type_symbol
 _atom_site_label
 _atom_site_symmetry_multiplicity
 _atom_site_fract_x
 _atom_site_fract_y
 _atom_site_fract_z
 _atom_site_occupancy
  Ho  Ho0  1  -0.00000000  0.50000000  0.36265271  1
  Ho  Ho1  1  0.50000000  0.00000000  0.63734729  1
  Ho  Ho2  1  -0.00000000  0.50000000  0.83490223  1
  Ho  Ho3  1  0.50000000  0.00000000  0.16509777  1
  Ho  Ho4  1  0.27680043  0.50000000  0.76792351  1
  Ho  Ho5  1  -0.00000000  0.22319957  0.76792351  1
  Ho  Ho6  1  -0.00000000  0.77680043  0.76792351  1
  Ho  Ho7  1  0.72319957  0.50000000  0.76792351  1
  Ho  Ho8  1  0.22319957  0.00000000  0.23207649  1
  Ho  Ho9  1  0.77680043  0.00000000  0.23207649  1
  Ho  Ho10  1  0.50000000  0.27680043  0.23207649  1
  Ho  Ho11  1  0.50000000  0.72319957  0.23207649  1
  Ho  Ho12  1  0.20332708  0.70332708  0.26828838  1
  Ho  Ho13  1  0.20332708  0.29667292  0.26828838  1
  Ho  Ho14  1  0.79667292  0.70332708  0.26828838  1
  Ho  Ho15  1  0.79667292  0.29667292  0.26828838  1
  Ho  Ho16  1  0.29667292  0.20332708  0.73171162  1
  Ho  Ho17  1  0.70332708  0.79667292  0.73171162  1
  Ho  Ho18  1  0.70332708  0.20332708  0.73171162  1
  Ho  Ho19  1  0.29667292  0.79667292  0.73171162  1
  In  In0  1  0.84472189  0.84472189  -0.00000000  1
  In  In1  1  0.34472189  0.65527811  -0.00000000  1
  In  In2  1  0.65527811  0.34472189  -0.00000000  1
  In  In3  1  0.15527811  0.15527811  -0.00000000  1
  In  In4  1  0.65527811  0.65527811  -0.00000000  1
  In  In5  1  0.15527811  0.84472189  -0.00000000  1
  In  In6  1  0.84472189  0.15527811  -0.00000000  1
  In  In7  1  0.34472189  0.34472189  -0.00000000  1
  In  In8  1  0.36983998  0.36983998  0.50000000  1
  In  In9  1  0.86983998  0.13016002  0.50000000  1
  In  In10  1  0.13016002  0.86983998  0.50000000  1
  In  In11  1  0.63016002  0.63016002  0.50000000  1
  In  In12  1  0.13016002  0.13016002  0.50000000  1
  In  In13  1  0.63016002  0.36983998  0.50000000  1
  In  In14  1  0.36983998  0.63016002  0.50000000  1
  In  In15  1  0.86983998  0.86983998  0.50000000  1
  In  In16  1  0.83340681  0.50000000  0.09208340  1
  In  In17  1  -0.00000000  0.66659319  0.09208340  1
  In  In18  1  -0.00000000  0.33340681  0.09208340  1
  In  In19  1  0.16659319  0.50000000  0.09208340  1
  In  In20  1  0.66659319  0.00000000  0.90791660  1
  In  In21  1  0.33340681  0.00000000  0.90791660  1
  In  In22  1  0.50000000  0.83340681  0.90791660  1
  In  In23  1  0.50000000  0.16659319  0.90791660  1
  In  In24  1  0.61639517  0.50000000  0.23398273  1
  In  In25  1  -0.00000000  0.88360483  0.23398273  1
  In  In26  1  -0.00000000  0.11639517  0.23398273  1
  In  In27  1  0.38360483  0.50000000  0.23398273  1
  In  In28  1  0.88360483  0.00000000  0.76601727  1
  In  In29  1  0.11639517  0.00000000  0.76601727  1
  In  In30  1  0.50000000  0.61639517  0.76601727  1
  In  In31  1  0.50000000  0.38360483  0.76601727  1
  In  In32  1  0.13206571  0.63206571  0.58958657  1
  In  In33  1  0.13206571  0.36793429  0.58958657  1
  In  In34  1  0.86793429  0.63206571  0.58958657  1
  In  In35  1  0.86793429  0.36793429  0.58958657  1
  In  In36  1  0.36793429  0.13206571  0.41041343  1
  In  In37  1  0.63206571  0.86793429  0.41041343  1
  In  In38  1  0.63206571  0.13206571  0.41041343  1
  In  In39  1  0.36793429  0.86793429  0.41041343  1
  Ni  Ni0  1  0.50000000  0.50000000  -0.00000000  1
  Ni  Ni1  1  -0.00000000  0.00000000  -0.00000000  1
  Ni  Ni2  1  0.77618052  0.50000000  0.40991251  1
  Ni  Ni3  1  -0.00000000  0.72381948  0.40991251  1
  Ni  Ni4  1  -0.00000000  0.27618052  0.40991251  1
  Ni  Ni5  1  0.22381948  0.50000000  0.40991251  1
  Ni  Ni6  1  0.72381948  0.00000000  0.59008749  1
  Ni  Ni7  1  0.27618052  0.00000000  0.59008749  1
  Ni  Ni8  1  0.50000000  0.77618052  0.59008749  1
  Ni  Ni9  1  0.50000000  0.22381948  0.59008749  1
  Ni  Ni10  1  0.34467059  0.84467059  0.10406114  1
  Ni  Ni11  1  0.34467059  0.15532941  0.10406114  1
  Ni  Ni12  1  0.65532941  0.84467059  0.10406114  1
  Ni  Ni13  1  0.65532941  0.15532941  0.10406114  1
  Ni  Ni14  1  0.15532941  0.34467059  0.89593886  1
  Ni  Ni15  1  0.84467059  0.65532941  0.89593886  1
  Ni  Ni16  1  0.84467059  0.34467059  0.89593886  1
  Ni  Ni17  1  0.15532941  0.65532941  0.89593886  1
loop_
_geom_bond_atom_site_label_1
_geom_bond_atom_site_label_2
_geom_bond_distance
_geom_bond_site_symmetry_2
Ho0 Ni2 3.004140 1_455
Ho0 Ni4 3.004140 1_555
Ho0 Ni5 3.004140 1_555
Ho0 Ni3 3.004140 1_555
Ho0 In34 3.228149 1_455
Ho0 In33 3.228149 1_555
Ho0 In35 3.228149 1_455
Ho0 In32 3.228149 1_555
Ho0 In16 3.310732 1_455
Ho0 In18 3.310732 1_555
Ho0 In19 3.310732 1_555
Ho0 In17 3.310732 1_555
Ho1 Ni8 3.004140 1_545
Ho1 Ni9 3.004140 1_555
Ho1 Ni7 3.004140 1_555
Ho1 Ni6 3.004140 1_555
Ho1 In38 3.228149 1_555
Ho1 In37 3.228149 1_545
Ho1 In36 3.228149 1_555
Ho1 In39 3.228149 1_545
Ho1 In22 3.310732 1_545
Ho1 In23 3.310732 1_555
Ho1 In21 3.310732 1_555
Ho1 In20 3.310732 1_555
Ho2 Ni16 2.970458 1_455
Ho2 Ni17 2.970458 1_555
Ho2 Ni14 2.970458 1_555
Ho2 Ni15 2.970458 1_455
Ho2 In16 3.221137 1_456
Ho2 In18 3.221137 1_556
Ho2 In19 3.221137 1_556
Ho2 In17 3.221137 1_556
Ho2 In33 3.337656 1_555
Ho2 In35 3.337656 1_455
Ho2 In32 3.337656 1_555
Ho2 In34 3.337656 1_455
Ho3 Ni11 2.970458 1_555
Ho3 Ni12 2.970458 1_545
Ho3 Ni10 2.970458 1_545
Ho3 Ni13 2.970458 1_555
Ho3 In22 3.221137 1_544
Ho3 In23 3.221137 1_554
Ho3 In20 3.221137 1_554
Ho3 In21 3.221137 1_554
Ho3 In37 3.337656 1_545
Ho3 In38 3.337656 1_555
Ho3 In36 3.337656 1_555
Ho3 In39 3.337656 1_545
Ho4 Ni17 2.866812 1_555
Ho4 Ni14 2.866812 1_555
Ho4 In33 3.067327 1_555
Ho4 In32 3.067327 1_555
Ho4 In7 3.087036 1_556
Ho4 In1 3.087036 1_556
Ho4 In8 3.234596 1_555
Ho4 In14 3.234596 1_555
Ho4 In19 3.293423 1_556
Ho4 Ni5 3.333373 1_555
Ho4 In31 3.343941 1_555
Ho4 In30 3.343941 1_555
Ho5 Ni16 2.866812 1_455
Ho5 Ni14 2.866812 1_555
Ho5 In33 3.067327 1_555
Ho5 In35 3.067327 1_455
Ho5 In3 3.087036 1_556
Ho5 In6 3.087036 1_456
Ho5 In9 3.234596 1_455
Ho5 In12 3.234596 1_555
Ho5 In18 3.293423 1_556
Ho5 Ni4 3.333373 1_555
Ho5 In29 3.343941 1_555
Ho5 In28 3.343941 1_455
Ho6 Ni17 2.866812 1_555
Ho6 Ni15 2.866812 1_455
Ho6 In32 3.067327 1_555
Ho6 In34 3.067327 1_455
Ho6 In5 3.087036 1_556
Ho6 In0 3.087036 1_456
Ho6 In15 3.234596 1_455
Ho6 In10 3.234596 1_555
Ho6 In17 3.293423 1_556
Ho6 Ni3 3.333373 1_555
Ho6 In28 3.343941 1_465
Ho6 In29 3.343941 1_565
Ho7 Ni15 2.866812 1_555
Ho7 Ni16 2.866812 1_555
Ho7 In34 3.067327 1_555
Ho7 In35 3.067327 1_555
Ho7 In2 3.087036 1_556
Ho7 In4 3.087036 1_556
Ho7 In13 3.234596 1_555
Ho7 In11 3.234596 1_555
Ho7 In16 3.293423 1_556
Ho7 Ni2 3.333373 1_555
Ho7 In31 3.343941 1_555
Ho7 In30 3.343941 1_555
Ho8 Ni10 2.866812 1_545
Ho8 Ni11 2.866812 1_555
Ho8 In36 3.067327 1_555
Ho8 In39 3.067327 1_545
Ho8 In3 3.087036 1_555
Ho8 In5 3.087036 1_545
Ho8 In10 3.234596 1_545
Ho8 In12 3.234596 1_555
Ho8 In21 3.293423 1_554
Ho8 Ni7 3.333373 1_555
Ho8 In25 3.343941 1_545
Ho8 In26 3.343941 1_555
Ho9 Ni13 2.866812 1_555
Ho9 Ni12 2.866812 1_545
Ho9 In37 3.067327 1_545
Ho9 In38 3.067327 1_555
Ho9 In6 3.087036 1_555
Ho9 In0 3.087036 1_545
Ho9 In15 3.234596 1_545
Ho9 In9 3.234596 1_555
Ho9 In20 3.293423 1_554
Ho9 Ni6 3.333373 1_555
Ho9 In25 3.343941 1_645
Ho9 In26 3.343941 1_655
Ho10 Ni13 2.866812 1_555
Ho10 Ni11 2.866812 1_555
Ho10 In38 3.067327 1_555
Ho10 In36 3.067327 1_555
Ho10 In7 3.087036 1_555
Ho10 In2 3.087036 1_555
Ho10 In8 3.234596 1_555
Ho10 In13 3.234596 1_555
Ho10 In23 3.293423 1_554
Ho10 Ni9 3.333373 1_555
Ho10 In27 3.343941 1_555
Ho10 In24 3.343941 1_555
Ho11 Ni10 2.866812 1_555
Ho11 Ni12 2.866812 1_555
Ho11 In37 3.067327 1_555
Ho11 In39 3.067327 1_555
Ho11 In1 3.087036 1_555
Ho11 In4 3.087036 1_555
Ho11 In14 3.234596 1_555
Ho11 In11 3.234596 1_555
Ho11 In22 3.293423 1_554
Ho11 Ni8 3.333373 1_555
Ho11 In27 3.343941 1_555
Ho11 In24 3.343941 1_555
Ho12 Ni3 3.005103 1_555
Ho12 Ni5 3.005103 1_555
Ho12 Ni10 3.047060 1_555
Ho12 In5 3.145959 1_555
Ho12 In1 3.145959 1_555
Ho12 In19 3.178834 1_555
Ho12 In17 3.178834 1_555
Ho12 In14 3.206919 1_555
Ho12 In10 3.206919 1_555
Ho12 In32 3.215994 1_555
Ho12 In39 3.351969 1_555
Ho13 Ni5 3.005103 1_555
Ho13 Ni4 3.005103 1_555
Ho13 Ni11 3.047060 1_555
Ho13 In3 3.145959 1_555
Ho13 In7 3.145959 1_555
Ho13 In19 3.178834 1_555
Ho13 In18 3.178834 1_555
Ho13 In12 3.206919 1_555
Ho13 In8 3.206919 1_555
Ho13 In33 3.215994 1_555
Ho13 In36 3.351969 1_555
Ho14 Ni3 3.005103 1_655
Ho14 Ni2 3.005103 1_555
Ho14 Ni12 3.047060 1_555
Ho14 In0 3.145959 1_555
Ho14 In4 3.145959 1_555
Ho14 In17 3.178834 1_655
Ho14 In16 3.178834 1_555
Ho14 In11 3.206919 1_555
Ho14 In15 3.206919 1_555
Ho14 In34 3.215994 1_555
Ho14 In37 3.351969 1_555
Ho15 Ni2 3.005103 1_555
Ho15 Ni4 3.005103 1_655
Ho15 Ni13 3.047060 1_555
Ho15 In6 3.145959 1_555
Ho15 In2 3.145959 1_555
Ho15 In18 3.178834 1_655
Ho15 In16 3.178834 1_555
Ho15 In13 3.206919 1_555
Ho15 In9 3.206919 1_555
Ho15 In35 3.215994 1_555
Ho15 In38 3.351969 1_555
Ho16 Ni7 3.005103 1_555
Ho16 Ni9 3.005103 1_555
Ho16 Ni14 3.047060 1_555
Ho16 In3 3.145959 1_556
Ho16 In7 3.145959 1_556
Ho16 In23 3.178834 1_555
Ho16 In21 3.178834 1_555
Ho16 In12 3.206919 1_555
Ho16 In8 3.206919 1_555
Ho16 In36 3.215994 1_555
Ho16 In33 3.351969 1_555
Ho17 Ni8 3.005103 1_555
Ho17 Ni6 3.005103 1_565
Ho17 Ni15 3.047060 1_555
Ho17 In0 3.145959 1_556
Ho17 In4 3.145959 1_556
Ho17 In20 3.178834 1_565
Ho17 In22 3.178834 1_555
Ho17 In11 3.206919 1_555
Ho17 In15 3.206919 1_555
Ho17 In37 3.215994 1_555
Ho17 In34 3.351969 1_555
Ho18 Ni6 3.005103 1_555
Ho18 Ni9 3.005103 1_555
Ho18 Ni16 3.047060 1_555
Ho18 In6 3.145959 1_556
Ho18 In2 3.145959 1_556
Ho18 In20 3.178834 1_555
Ho18 In23 3.178834 1_555
Ho18 In13 3.206919 1_555
Ho18 In9 3.206919 1_555
Ho18 In38 3.215994 1_555
Ho18 In35 3.351969 1_555
Ho19 Ni8 3.005103 1_555
Ho19 Ni7 3.005103 1_565
Ho19 Ni17 3.047060 1_555
Ho19 In1 3.145959 1_556
Ho19 In5 3.145959 1_556
Ho19 In22 3.178834 1_555
Ho19 In21 3.178834 1_565
Ho19 In14 3.206919 1_555
Ho19 In10 3.206919 1_555
Ho19 In39 3.215994 1_555
Ho19 In32 3.351969 1_555
In0 Ni15 2.688214 1_554
In0 Ni12 2.688214 1_555
In0 Ni1 2.917093 1_665
In0 In17 3.249019 1_655
In0 In20 3.249019 1_564
In1 Ni10 2.688214 1_555
In1 Ni17 2.688214 1_554
In1 Ni0 2.917093 1_555
In1 In19 3.249019 1_555
In1 In22 3.249019 1_554
In2 Ni16 2.688214 1_554
In2 Ni13 2.688214 1_555
In2 Ni0 2.917093 1_555
In2 In23 3.249019 1_554
In3 Ni11 2.688214 1_555
In3 Ni14 2.688214 1_554
In3 Ni1 2.917093 1_555
In4 Ni15 2.688214 1_554
In4 Ni12 2.688214 1_555
In4 Ni0 2.917093 1_555
In5 Ni17 2.688214 1_554
In5 Ni10 2.688214 1_555
In5 Ni1 2.917093 1_565
In6 Ni13 2.688214 1_555
In6 Ni16 2.688214 1_554
In6 Ni1 2.917093 1_655
In7 Ni11 2.688214 1_555
In7 Ni14 2.688214 1_554
In7 Ni0 2.917093 1_555
In8 Ni5 2.724749 1_555
In8 Ni9 2.724749 1_555
In9 Ni4 2.724749 1_655
In9 Ni6 2.724749 1_555
In10 Ni7 2.724749 1_565
In10 Ni3 2.724749 1_555
In11 Ni2 2.724749 1_555
In11 Ni8 2.724749 1_555
In12 Ni7 2.724749 1_555
In12 Ni4 2.724749 1_555
In13 Ni2 2.724749 1_555
In13 Ni9 2.724749 1_555
In14 Ni8 2.724749 1_555
In14 Ni5 2.724749 1_555
In15 Ni6 2.724749 1_565
In15 Ni3 2.724749 1_655
In16 Ni16 2.732486 1_554
In16 Ni15 2.732486 1_554
In16 Ni2 2.990761 1_555
In16 In18 3.129660 1_655
In16 In17 3.129660 1_655
In16 In24 3.158803 1_555
In16 In2 3.249019 1_555
In16 In4 3.249019 1_555
In17 Ni15 2.732486 1_454
In17 Ni17 2.732486 1_554
In17 Ni3 2.990761 1_555
In17 In19 3.129660 1_555
In17 In25 3.158803 1_555
In17 In5 3.249019 1_555
In18 Ni16 2.732486 1_454
In18 Ni14 2.732486 1_554
In18 Ni4 2.990761 1_555
In18 In19 3.129660 1_555
In18 In26 3.158803 1_555
In18 In3 3.249019 1_555
In18 In6 3.249019 1_455
In19 Ni14 2.732486 1_554
In19 Ni17 2.732486 1_554
In19 Ni5 2.990761 1_555
In19 In27 3.158803 1_555
In19 In7 3.249019 1_555
In20 Ni12 2.732486 1_546
In20 Ni13 2.732486 1_556
In20 Ni6 2.990761 1_555
In20 In22 3.129660 1_545
In20 In23 3.129660 1_555
In20 In28 3.158803 1_555
In20 In6 3.249019 1_556
In21 Ni11 2.732486 1_556
In21 Ni10 2.732486 1_546
In21 Ni7 2.990761 1_555
In21 In22 3.129660 1_545
In21 In23 3.129660 1_555
In21 In29 3.158803 1_555
In21 In3 3.249019 1_556
In21 In5 3.249019 1_546
In22 Ni12 2.732486 1_556
In22 Ni10 2.732486 1_556
In22 Ni8 2.990761 1_555
In22 In30 3.158803 1_555
In22 In4 3.249019 1_556
In23 Ni13 2.732486 1_556
In23 Ni11 2.732486 1_556
In23 Ni9 2.990761 1_555
In23 In31 3.158803 1_555
In23 In7 3.249019 1_556
In24 Ni0 2.631589 1_555
In24 Ni2 2.658739 1_555
In25 Ni1 2.631589 1_565
In25 Ni3 2.658739 1_555
In26 Ni1 2.631589 1_555
In26 Ni4 2.658739 1_555
In27 Ni0 2.631589 1_555
In27 Ni5 2.658739 1_555
In28 Ni1 2.631589 1_656
In28 Ni6 2.658739 1_555
In29 Ni1 2.631589 1_556
In29 Ni7 2.658739 1_555
In30 Ni0 2.631589 1_556
In30 Ni8 2.658739 1_555
In31 Ni0 2.631589 1_556
In31 Ni9 2.658739 1_555
In32 Ni5 2.690202 1_555
In32 Ni3 2.690202 1_555
In32 Ni17 2.822132 1_555
In33 Ni5 2.690202 1_555
In33 Ni4 2.690202 1_555
In33 Ni14 2.822132 1_555
In34 Ni2 2.690202 1_555
In34 Ni3 2.690202 1_655
In34 Ni15 2.822132 1_555
In35 Ni2 2.690202 1_555
In35 Ni4 2.690202 1_655
In35 Ni16 2.822132 1_555
In36 Ni7 2.690202 1_555
In36 Ni9 2.690202 1_555
In36 Ni11 2.822132 1_555
In37 Ni8 2.690202 1_555
In37 Ni6 2.690202 1_565
In37 Ni12 2.822132 1_555
In38 Ni9 2.690202 1_555
In38 Ni6 2.690202 1_555
In38 Ni13 2.822132 1_555
In39 Ni7 2.690202 1_565
In39 Ni8 2.690202 1_555
In39 Ni10 2.822132 1_555
