# generated using pymatgen
data_Cs4MnZnSe4
_symmetry_space_group_name_H-M   'P 1'
_cell_length_a   8.82309782
_cell_length_b   8.82309825
_cell_length_c   8.82309768
_cell_angle_alpha   135.28796399
_cell_angle_beta   129.25489747
_cell_angle_gamma   69.91442564
_symmetry_Int_Tables_number   1
_chemical_formula_structural   Cs4MnZnSe4
_chemical_formula_sum   'Cs4 Mn1 Zn1 Se4'
_cell_volume   366.99772431
_cell_formula_units_Z   1
loop_
 _symmetry_equiv_pos_site_id
 _symmetry_equiv_pos_as_xyz
  1  'x, y, z'
loop_
 _atom_site_type_symbol
 _atom_site_label
 _atom_site_symmetry_multiplicity
 _atom_site_fract_x
 _atom_site_fract_y
 _atom_site_fract_z
 _atom_site_occupancy
  Cs  Cs0  1  0.52133002  0.85344828  0.66897299  1
  Cs  Cs1  1  0.47866998  0.14764298  0.33211926  1
  Cs  Cs2  1  0.81552271  0.64655172  0.16788074  1
  Cs  Cs3  1  0.18447729  0.35235702  0.83102701  1
  Mn  Mn0  1  0.00000000  0.75000000  0.75000000  1
  Zn  Zn0  1  0.00000000  0.25000000  0.25000000  1
  Se  Se0  1  0.07894594  0.90969444  0.18044935  1
  Se  Se1  1  0.72924509  0.39849659  0.31955065  1
  Se  Se2  1  0.92105406  0.10150341  0.83074850  1
  Se  Se3  1  0.27075591  0.59030556  0.66925150  1
loop_
_geom_bond_atom_site_label_1
_geom_bond_atom_site_label_2
_geom_bond_distance
_geom_bond_site_symmetry_2
Cs0 Se1 3.597198 1_566
Cs0 Se1 3.673344 1_555
Cs0 Zn0 3.689852 1_666
Cs0 Mn0 3.693181 1_655
Cs0 Se2 3.708981 1_565
Cs0 Se3 3.717368 1_555
Cs0 Se0 3.805030 1_555
Cs0 Se0 3.900350 1_656
Cs1 Se3 3.597189 1_555
Cs1 Se3 3.673347 1_544
Cs1 Zn0 3.689849 1_555
Cs1 Mn0 3.693181 1_544
Cs1 Se0 3.708975 1_545
Cs1 Se1 3.717382 1_555
Cs1 Se2 3.805025 1_555
Cs1 Se2 3.900353 1_454
Cs2 Se2 3.597203 1_554
Cs2 Se2 3.673343 1_565
Cs2 Zn0 3.689857 1_655
Cs2 Mn0 3.693183 1_655
Cs2 Se1 3.708978 1_555
Cs2 Se0 3.717382 1_655
Cs2 Se3 3.805012 1_554
Cs2 Se3 3.900363 1_655
Cs3 Se0 3.597191 1_545
Cs3 Se0 3.673350 1_556
Cs3 Zn0 3.689846 1_555
Cs3 Mn0 3.693181 1_555
Cs3 Se3 3.708975 1_555
Cs3 Se2 3.717389 1_455
Cs3 Se1 3.805020 1_556
Cs3 Se1 3.900355 1_455
Mn0 Se0 2.571956 1_556
Mn0 Se2 2.571956 1_465
Mn0 Se1 2.571956 1_455
Mn0 Se3 2.571964 1_555
Se0 Zn0 2.522445 1_565
Se1 Zn0 2.522444 1_655
Se2 Zn0 2.522444 1_656
Se3 Zn0 2.522448 1_555
