# generated using pymatgen
data_Cs6AlBi3
_symmetry_space_group_name_H-M   'P 1'
_cell_length_a   6.65994634
_cell_length_b   11.24549963
_cell_length_c   13.10302342
_cell_angle_alpha   78.91754608
_cell_angle_beta   90.00000000
_cell_angle_gamma   90.00000000
_symmetry_Int_Tables_number   1
_chemical_formula_structural   Cs6AlBi3
_chemical_formula_sum   'Cs12 Al2 Bi6'
_cell_volume   963.04288530
_cell_formula_units_Z   2
loop_
 _symmetry_equiv_pos_site_id
 _symmetry_equiv_pos_as_xyz
  1  'x, y, z'
loop_
 _atom_site_type_symbol
 _atom_site_label
 _atom_site_symmetry_multiplicity
 _atom_site_fract_x
 _atom_site_fract_y
 _atom_site_fract_z
 _atom_site_occupancy
  Cs  Cs0  1  0.75000000  0.45759235  0.07697648  1
  Cs  Cs1  1  0.25000000  0.54240765  0.92302352  1
  Cs  Cs2  1  0.75000000  0.74885831  0.22077973  1
  Cs  Cs3  1  0.25000000  0.25114169  0.77922027  1
  Cs  Cs4  1  0.25000000  0.55630992  0.54774485  1
  Cs  Cs5  1  0.75000000  0.44369008  0.45225515  1
  Cs  Cs6  1  0.25000000  0.86581956  0.02265108  1
  Cs  Cs7  1  0.75000000  0.13418044  0.97734892  1
  Cs  Cs8  1  0.25000000  0.87680276  0.67625964  1
  Cs  Cs9  1  0.75000000  0.12319724  0.32374036  1
  Cs  Cs10  1  0.25000000  0.90890435  0.36709074  1
  Cs  Cs11  1  0.75000000  0.09109565  0.63290926  1
  Al  Al0  1  0.75000000  0.67643431  0.72061082  1
  Al  Al1  1  0.25000000  0.32356569  0.27938918  1
  Bi  Bi0  1  0.25000000  0.21310737  0.48376152  1
  Bi  Bi1  1  0.75000000  0.78689263  0.51623848  1
  Bi  Bi2  1  0.25000000  0.56905775  0.23148752  1
  Bi  Bi3  1  0.75000000  0.43094225  0.76851248  1
  Bi  Bi4  1  0.75000000  0.81208889  0.87707003  1
  Bi  Bi5  1  0.25000000  0.18791111  0.12292997  1
loop_
_geom_bond_atom_site_label_1
_geom_bond_atom_site_label_2
_geom_bond_distance
_geom_bond_site_symmetry_2
Cs0 Cs1 3.915105 1_654
Cs0 Cs1 3.915105 1_554
Cs0 Cs2 4.080633 1_555
Cs0 Cs7 4.093483 1_554
Cs0 Cs9 4.463306 1_555
Cs0 Cs5 4.889641 1_555
Cs1 Cs3 4.080633 1_555
Cs1 Cs6 4.093483 1_556
Cs1 Cs8 4.463306 1_555
Cs1 Cs4 4.889641 1_555
Cs2 Cs5 4.120044 1_555
Cs2 Cs6 4.271491 1_655
Cs2 Cs6 4.271491 1_555
Cs2 Cs9 4.660939 1_565
Cs2 Cs7 4.861753 1_564
Cs3 Cs4 4.120044 1_555
Cs3 Cs7 4.271491 1_555
Cs3 Cs7 4.271491 1_455
Cs3 Cs8 4.660939 1_545
Cs3 Cs6 4.861753 1_546
Cs4 Cs5 3.855822 1_555
Cs4 Cs5 3.855822 1_455
Cs4 Cs8 4.261266 1_555
Cs5 Cs9 4.261266 1_555
Cs6 Cs7 4.456436 1_564
Cs6 Cs7 4.456436 1_464
Cs6 Cs8 4.516660 1_554
Cs7 Cs9 4.516660 1_556
Cs10 Cs8 3.997385 1_555
Cs10 Cs9 4.085635 1_465
Cs10 Cs9 4.085635 1_565
Cs10 Cs4 4.209149 1_555
Cs10 Cs2 4.396569 1_455
Cs10 Cs2 4.396569 1_555
Cs10 Cs6 4.630809 1_555
Cs11 Cs9 3.997385 1_555
Cs11 Cs8 4.085635 1_645
Cs11 Cs8 4.085635 1_545
Cs11 Cs5 4.209149 1_555
Cs11 Cs3 4.396569 1_555
Cs11 Cs3 4.396569 1_655
Cs11 Cs7 4.630809 1_555
Al0 Bi3 2.710934 1_555
Al0 Bi1 2.726772 1_555
Al0 Bi4 2.780708 1_555
Al0 Cs8 4.000017 1_655
Al0 Cs8 4.000017 1_555
Al0 Cs1 4.342562 1_655
Al0 Cs1 4.342562 1_555
Al0 Cs4 4.384106 1_655
Al0 Cs4 4.384106 1_555
Al1 Bi2 2.710934 1_555
Al1 Bi0 2.726772 1_555
Al1 Bi5 2.780708 1_555
Al1 Cs9 4.000017 1_555
Al1 Cs9 4.000017 1_455
Al1 Cs0 4.342562 1_555
Al1 Cs0 4.342562 1_455
Al1 Cs5 4.384106 1_555
Al1 Cs5 4.384106 1_455
Bi0 Cs11 3.969850 1_455
Bi0 Cs11 3.969850 1_555
Bi0 Cs3 3.975837 1_555
Bi0 Cs10 4.006273 1_545
Bi0 Cs4 4.103953 1_555
Bi0 Cs8 4.122820 1_545
Bi0 Cs9 4.162023 1_455
Bi0 Cs9 4.162023 1_555
Bi0 Cs5 4.191820 1_455
Bi0 Cs5 4.191820 1_555
Bi1 Cs10 3.969850 1_655
Bi1 Cs10 3.969850 1_555
Bi1 Cs2 3.975837 1_555
Bi1 Cs11 4.006273 1_565
Bi1 Cs5 4.103953 1_555
Bi1 Cs9 4.122820 1_565
Bi1 Cs8 4.162023 1_555
Bi1 Cs8 4.162023 1_655
Bi1 Cs4 4.191820 1_655
Bi1 Cs4 4.191820 1_555
Bi2 Cs2 3.884278 1_555
Bi2 Cs2 3.884278 1_455
Bi2 Cs6 3.887703 1_555
Bi2 Cs1 4.109955 1_554
Bi2 Cs4 4.118774 1_555
Bi2 Cs0 4.211225 1_455
Bi2 Cs0 4.211225 1_555
Bi2 Cs5 4.458287 1_555
Bi2 Cs5 4.458287 1_455
Bi2 Cs10 4.513686 1_555
Bi3 Cs3 3.884278 1_655
Bi3 Cs3 3.884278 1_555
Bi3 Cs7 3.887703 1_555
Bi3 Cs0 4.109955 1_556
Bi3 Cs5 4.118774 1_555
Bi3 Cs1 4.211225 1_655
Bi3 Cs1 4.211225 1_555
Bi3 Cs4 4.458287 1_655
Bi3 Cs4 4.458287 1_555
Bi3 Cs11 4.513686 1_555
Bi4 Cs6 3.941532 1_656
Bi4 Cs6 3.941532 1_556
Bi4 Cs11 4.027472 1_565
Bi4 Cs7 4.083578 1_565
Bi4 Cs8 4.219658 1_555
Bi4 Cs8 4.219658 1_655
Bi4 Cs0 4.328839 1_556
Bi4 Cs2 4.422355 1_556
Bi4 Cs1 4.466154 1_655
Bi4 Cs1 4.466154 1_555
Bi5 Cs7 3.941532 1_554
Bi5 Cs7 3.941532 1_454
Bi5 Cs10 4.027472 1_545
Bi5 Cs6 4.083578 1_545
Bi5 Cs9 4.219658 1_555
Bi5 Cs9 4.219658 1_455
Bi5 Cs1 4.328839 1_554
Bi5 Cs3 4.422355 1_554
Bi5 Cs0 4.466154 1_555
Bi5 Cs0 4.466154 1_455
