# generated using pymatgen
data_Hf6CI12
_symmetry_space_group_name_H-M   'P 1'
_cell_length_a   9.18658210
_cell_length_b   9.18658151
_cell_length_c   9.18658298
_cell_angle_alpha   106.65808872
_cell_angle_beta   106.65808841
_cell_angle_gamma   106.65809385
_symmetry_Int_Tables_number   1
_chemical_formula_structural   Hf6CI12
_chemical_formula_sum   'Hf6 C1 I12'
_cell_volume   651.59381397
_cell_formula_units_Z   1
loop_
 _symmetry_equiv_pos_site_id
 _symmetry_equiv_pos_as_xyz
  1  'x, y, z'
loop_
 _atom_site_type_symbol
 _atom_site_label
 _atom_site_symmetry_multiplicity
 _atom_site_fract_x
 _atom_site_fract_y
 _atom_site_fract_z
 _atom_site_occupancy
  Hf  Hf0  1  0.91733546  0.97569743  0.74011668  1
  Hf  Hf1  1  0.74011668  0.91733546  0.97569743  1
  Hf  Hf2  1  0.97569743  0.74011668  0.91733546  1
  Hf  Hf3  1  0.08266454  0.02430257  0.25988332  1
  Hf  Hf4  1  0.25988332  0.08266454  0.02430257  1
  Hf  Hf5  1  0.02430257  0.25988332  0.08266454  1
  C  C0  1  0.00000000  0.00000000  0.00000000  1
  I  I0  1  0.43445060  0.13699267  0.36187638  1
  I  I1  1  0.13699267  0.36187738  0.43445060  1
  I  I2  1  0.63812362  0.56554940  0.86300733  1
  I  I3  1  0.56554940  0.86300733  0.63812362  1
  I  I4  1  0.86300733  0.63812362  0.56554940  1
  I  I5  1  0.36187638  0.43445060  0.13699267  1
  I  I6  1  0.77470767  0.92413657  0.30431229  1
  I  I7  1  0.30431229  0.77470767  0.92413657  1
  I  I8  1  0.92413657  0.30431229  0.77470767  1
  I  I9  1  0.22529233  0.07586343  0.69568771  1
  I  I10  1  0.69568771  0.22529233  0.07586343  1
  I  I11  1  0.07586343  0.69568771  0.22529233  1
loop_
_geom_bond_atom_site_label_1
_geom_bond_atom_site_label_2
_geom_bond_distance
_geom_bond_site_symmetry_2
Hf0 I3 2.860658 1_555
Hf0 I4 2.870629 1_555
Hf0 I9 2.898585 1_665
Hf0 I8 2.923835 1_565
Hf0 I6 3.676831 1_555
Hf1 I2 2.860658 1_555
Hf1 I3 2.870629 1_555
Hf1 I10 2.898584 1_566
Hf1 I6 2.923836 1_556
Hf1 I7 3.676830 1_555
Hf2 I4 2.860658 1_555
Hf2 I2 2.870629 1_555
Hf2 I11 2.898585 1_656
Hf2 I7 2.923835 1_655
Hf2 I8 3.676830 1_555
Hf3 I0 2.860658 1_555
Hf3 I1 2.870637 1_555
Hf3 I6 2.898585 1_445
Hf3 I11 2.923835 1_545
Hf3 I9 3.676831 1_555
Hf4 I5 2.860658 1_555
Hf4 I0 2.870629 1_555
Hf4 I7 2.898584 1_544
Hf4 I9 2.923836 1_554
Hf4 I10 3.676830 1_555
Hf5 I1 2.860657 1_555
Hf5 I5 2.870629 1_555
Hf5 I8 2.898585 1_454
Hf5 I10 2.923835 1_455
Hf5 I11 3.676830 1_555
C0 Hf2 2.210016 1_444
C0 Hf5 2.210016 1_555
C0 Hf4 2.210016 1_555
C0 Hf1 2.210016 1_444
C0 Hf3 2.210016 1_555
C0 Hf0 2.210016 1_444
