# generated using pymatgen
data_Hf4NbSn4
_symmetry_space_group_name_H-M   'P 1'
_cell_length_a   8.68056440
_cell_length_b   8.68056444
_cell_length_c   5.81227121
_cell_angle_alpha   90.00000000
_cell_angle_beta   90.00000000
_cell_angle_gamma   119.99999611
_symmetry_Int_Tables_number   1
_chemical_formula_structural   Hf4NbSn4
_chemical_formula_sum   'Hf8 Nb2 Sn8'
_cell_volume   379.29092236
_cell_formula_units_Z   2
loop_
 _symmetry_equiv_pos_site_id
 _symmetry_equiv_pos_as_xyz
  1  'x, y, z'
loop_
 _atom_site_type_symbol
 _atom_site_label
 _atom_site_symmetry_multiplicity
 _atom_site_fract_x
 _atom_site_fract_y
 _atom_site_fract_z
 _atom_site_occupancy
  Hf  Hf0  1  0.66666700  0.33333300  0.00000000  1
  Hf  Hf1  1  0.33333300  0.66666700  0.50000000  1
  Hf  Hf2  1  0.28331841  0.00000000  0.25000000  1
  Hf  Hf3  1  0.28331841  0.28331841  0.75000000  1
  Hf  Hf4  1  1.00000000  0.71668159  0.75000000  1
  Hf  Hf5  1  0.00000000  0.28331841  0.25000000  1
  Hf  Hf6  1  0.71668159  0.71668159  0.25000000  1
  Hf  Hf7  1  0.71668159  1.00000000  0.75000000  1
  Nb  Nb0  1  0.33333300  0.66666700  0.00000000  1
  Nb  Nb1  1  0.66666700  0.33333300  0.50000000  1
  Sn  Sn0  1  0.00000000  0.00000000  0.00000000  1
  Sn  Sn1  1  0.00000000  0.00000000  0.50000000  1
  Sn  Sn2  1  0.61315685  0.00000000  0.25000000  1
  Sn  Sn3  1  0.61315685  0.61315685  0.75000000  1
  Sn  Sn4  1  1.00000000  0.38684315  0.75000000  1
  Sn  Sn5  1  0.00000000  0.61315685  0.25000000  1
  Sn  Sn6  1  0.38684315  0.38684315  0.25000000  1
  Sn  Sn7  1  0.38684315  1.00000000  0.75000000  1
loop_
_geom_bond_atom_site_label_1
_geom_bond_atom_site_label_2
_geom_bond_distance
_geom_bond_site_symmetry_2
Hf0 Nb1 2.906136 1_554
Hf0 Nb1 2.906136 1_555
Hf0 Sn4 3.058689 1_554
Hf0 Sn2 3.058689 1_555
Hf0 Sn5 3.058692 1_655
Hf0 Sn7 3.058692 1_544
Hf0 Sn6 3.058697 1_555
Hf0 Sn3 3.058697 1_554
Hf0 Hf5 3.453778 1_655
Hf0 Hf7 3.453778 1_544
Hf0 Hf2 3.453783 1_555
Hf0 Hf4 3.453783 1_554
Hf0 Hf3 3.453786 1_554
Hf0 Hf6 3.453786 1_555
Hf1 Nb0 2.906136 1_555
Hf1 Nb0 2.906136 1_556
Hf1 Sn5 3.058689 1_555
Hf1 Sn7 3.058689 1_555
Hf1 Sn4 3.058692 1_455
Hf1 Sn2 3.058692 1_565
Hf1 Sn3 3.058697 1_555
Hf1 Sn6 3.058697 1_555
Hf1 Hf4 3.453778 1_455
Hf1 Hf2 3.453778 1_565
Hf1 Hf7 3.453783 1_555
Hf1 Hf5 3.453783 1_555
Hf1 Hf6 3.453786 1_555
Hf1 Hf3 3.453786 1_555
Hf2 Sn0 2.856550 1_555
Hf2 Sn1 2.856550 1_555
Hf2 Sn2 2.863184 1_555
Hf2 Sn6 3.011007 1_555
Hf2 Sn5 3.011007 1_545
Hf2 Sn7 3.041908 1_544
Hf2 Sn7 3.041908 1_545
Hf2 Nb0 3.453778 1_545
Hf2 Nb1 3.453783 1_555
Hf3 Sn0 2.856550 1_556
Hf3 Sn1 2.856550 1_555
Hf3 Sn3 2.863184 1_555
Hf3 Sn4 3.011007 1_455
Hf3 Sn7 3.011007 1_545
Hf3 Sn6 3.041908 1_555
Hf3 Sn6 3.041908 1_556
Hf3 Nb1 3.453786 1_555
Hf3 Nb0 3.453786 1_556
Hf4 Sn0 2.856550 1_666
Hf4 Sn1 2.856550 1_665
Hf4 Sn4 2.863184 1_555
Hf4 Sn3 3.011007 1_555
Hf4 Sn7 3.011007 1_655
Hf4 Sn5 3.041908 1_655
Hf4 Sn5 3.041908 1_656
Hf4 Nb0 3.453778 1_656
Hf4 Nb1 3.453783 1_555
Hf5 Sn0 2.856550 1_555
Hf5 Sn1 2.856550 1_555
Hf5 Sn5 2.863184 1_555
Hf5 Sn6 3.011007 1_555
Hf5 Sn2 3.011007 1_455
Hf5 Sn4 3.041908 1_455
Hf5 Sn4 3.041908 1_454
Hf5 Nb1 3.453778 1_455
Hf5 Nb0 3.453783 1_555
Hf6 Sn0 2.856550 1_665
Hf6 Sn1 2.856550 1_665
Hf6 Sn6 2.863184 1_555
Hf6 Sn5 3.011007 1_655
Hf6 Sn2 3.011007 1_565
Hf6 Sn3 3.041908 1_554
Hf6 Sn3 3.041908 1_555
Hf6 Nb0 3.453786 1_555
Hf6 Nb1 3.453786 1_555
Hf7 Sn1 2.856550 1_665
Hf7 Sn0 2.856550 1_666
Hf7 Sn7 2.863184 1_555
Hf7 Sn3 3.011007 1_555
Hf7 Sn4 3.011007 1_565
Hf7 Sn2 3.041908 1_565
Hf7 Sn2 3.041908 1_566
Hf7 Nb1 3.453778 1_565
Hf7 Nb0 3.453783 1_556
Nb0 Sn5 3.058689 1_555
Nb0 Sn7 3.058689 1_554
Nb0 Sn4 3.058692 1_454
Nb0 Sn2 3.058692 1_565
Nb0 Sn3 3.058697 1_554
Nb0 Sn6 3.058697 1_555
Nb1 Sn4 3.058689 1_555
Nb1 Sn2 3.058689 1_555
Nb1 Sn5 3.058692 1_655
Nb1 Sn7 3.058692 1_545
Nb1 Sn6 3.058697 1_555
Nb1 Sn3 3.058697 1_555
Sn0 Sn1 2.906136 1_554
Sn0 Sn1 2.906136 1_555
