# generated using pymatgen
data_BaIn2(SnIr)4
_symmetry_space_group_name_H-M   'P 1'
_cell_length_a   7.03979180
_cell_length_b   7.03979217
_cell_length_c   7.01292431
_cell_angle_alpha   119.96204425
_cell_angle_beta   119.96205104
_cell_angle_gamma   90.28417144
_symmetry_Int_Tables_number   1
_chemical_formula_structural   BaIn2(SnIr)4
_chemical_formula_sum   'Ba1 In2 Sn4 Ir4'
_cell_volume   245.42335413
_cell_formula_units_Z   1
loop_
 _symmetry_equiv_pos_site_id
 _symmetry_equiv_pos_as_xyz
  1  'x, y, z'
loop_
 _atom_site_type_symbol
 _atom_site_label
 _atom_site_symmetry_multiplicity
 _atom_site_fract_x
 _atom_site_fract_y
 _atom_site_fract_z
 _atom_site_occupancy
  Ba  Ba0  1  0.00324741  0.00324741  0.00000000  1
  In  In0  1  0.47497404  0.11504819  1.00000000  1
  In  In1  1  0.11504819  0.47497404  0.00000000  1
  Sn  Sn0  1  0.88099699  0.88099699  0.35367072  1
  Sn  Sn1  1  0.49995541  0.99995541  0.50000000  1
  Sn  Sn2  1  0.99995541  0.49995541  0.50000000  1
  Sn  Sn3  1  0.52732526  0.52732526  0.64632828  1
  Ir  Ir0  1  0.74307488  0.41590436  0.00000000  1
  Ir  Ir1  1  0.41590436  0.74307488  0.00000000  1
  Ir  Ir2  1  0.59266993  0.59266993  0.34582383  1
  Ir  Ir3  1  0.24684510  0.24684510  0.65417517  1
loop_
_geom_bond_atom_site_label_1
_geom_bond_atom_site_label_2
_geom_bond_distance
_geom_bond_site_symmetry_2
Ba0 Ir3 3.344053 1_555
Ba0 Ir2 3.344056 1_444
Ba0 In0 3.409050 1_554
Ba0 In1 3.409050 1_555
Ba0 Ir1 3.441879 1_545
Ba0 Ir0 3.441879 1_455
Ba0 Sn0 3.448176 1_445
Ba0 Sn3 3.448183 1_444
Ba0 Sn1 3.515365 1_444
Ba0 Sn1 3.515365 1_545
Ba0 Sn2 3.515366 1_455
Ba0 Sn2 3.515366 1_444
Ba0 Sn3 3.771750 1_555
Ba0 Sn0 3.771757 1_444
Ba0 In0 3.805123 1_454
Ba0 In1 3.805123 1_545
In0 Ir1 2.649389 1_546
In0 Ir2 2.773770 1_556
In0 Ir3 2.773771 1_555
In0 Ir0 2.829895 1_556
In0 Sn2 3.280589 1_556
In0 Sn1 3.280589 1_545
In1 Ir0 2.649389 1_455
In1 Ir2 2.773770 1_555
In1 Ir3 2.773771 1_554
In1 Ir1 2.829895 1_555
In1 Sn2 3.280589 1_454
In1 Sn1 3.280589 1_555
Ir0 Sn0 2.695574 1_555
Ir0 Sn3 2.695575 1_554
Ir0 Sn2 2.738407 1_555
Ir0 Sn1 2.738407 1_544
Ir1 Sn0 2.695574 1_555
Ir1 Sn3 2.695575 1_554
Ir1 Sn2 2.738407 1_454
Ir1 Sn1 2.738407 1_555
Ir2 Sn3 2.607484 1_555
Ir2 Sn2 2.728157 1_555
Ir2 Sn1 2.728157 1_555
Ir2 Sn0 2.824694 1_555
Ir3 Sn0 2.607476 1_445
Ir3 Sn2 2.728157 1_455
Ir3 Sn1 2.728157 1_545
Ir3 Sn3 2.824694 1_555
