# generated using pymatgen
data_NaTcNiAs2
_symmetry_space_group_name_H-M   'P 1'
_cell_length_a   6.77900069
_cell_length_b   6.77900120
_cell_length_c   6.77900091
_cell_angle_alpha   146.64329124
_cell_angle_beta   146.64330374
_cell_angle_gamma   47.89223249
_symmetry_Int_Tables_number   1
_chemical_formula_structural   NaTcNiAs2
_chemical_formula_sum   'Na1 Tc1 Ni1 As2'
_cell_volume   93.80551859
_cell_formula_units_Z   1
loop_
 _symmetry_equiv_pos_site_id
 _symmetry_equiv_pos_as_xyz
  1  'x, y, z'
loop_
 _atom_site_type_symbol
 _atom_site_label
 _atom_site_symmetry_multiplicity
 _atom_site_fract_x
 _atom_site_fract_y
 _atom_site_fract_z
 _atom_site_occupancy
  Na  Na0  1  0.00000000  0.00000000  0.00000000  1
  Tc  Tc0  1  0.25000000  0.75000000  0.50000000  1
  Ni  Ni0  1  0.75000000  0.25000000  0.50000000  1
  As  As0  1  0.63826488  0.63826488  0.00000000  1
  As  As1  1  0.36173512  0.36173512  1.00000000  1
loop_
_geom_bond_atom_site_label_1
_geom_bond_atom_site_label_2
_geom_bond_distance
_geom_bond_site_symmetry_2
As0 Tc0 2.387906 1_655
As0 Tc0 2.387906 1_554
As0 Ni0 2.387906 1_554
As0 Ni0 2.387907 1_565
As0 Na0 3.241241 1_554
As0 Na0 3.241241 1_666
As0 Na0 3.241241 1_565
As0 Na0 3.241241 1_655
As1 Ni0 2.387906 1_455
As1 Ni0 2.387906 1_556
As1 Tc0 2.387906 1_556
As1 Tc0 2.387907 1_545
As1 Na0 3.241241 1_667
As1 Na0 3.241241 1_555
As1 Na0 3.241241 1_656
As1 Na0 3.241241 1_566
