# generated using pymatgen
data_Ba4SrBiSb3
_symmetry_space_group_name_H-M   'P 1'
_cell_length_a   9.99933191
_cell_length_b   9.99933195
_cell_length_c   9.15160409
_cell_angle_alpha   90.00000000
_cell_angle_beta   90.00000000
_cell_angle_gamma   125.83323776
_symmetry_Int_Tables_number   1
_chemical_formula_structural   Ba4SrBiSb3
_chemical_formula_sum   'Ba8 Sr2 Bi2 Sb6'
_cell_volume   741.84369130
_cell_formula_units_Z   2
loop_
 _symmetry_equiv_pos_site_id
 _symmetry_equiv_pos_as_xyz
  1  'x, y, z'
loop_
 _atom_site_type_symbol
 _atom_site_label
 _atom_site_symmetry_multiplicity
 _atom_site_fract_x
 _atom_site_fract_y
 _atom_site_fract_z
 _atom_site_occupancy
  Ba  Ba0  1  0.31500179  0.02163498  0.66267944  1
  Ba  Ba1  1  0.52163498  0.81500179  0.83732056  1
  Ba  Ba2  1  0.18595936  0.47741687  0.16564407  1
  Ba  Ba3  1  0.97741687  0.68595936  0.33435593  1
  Ba  Ba4  1  0.68595936  0.97741687  0.33435593  1
  Ba  Ba5  1  0.47741687  0.18595936  0.16564407  1
  Ba  Ba6  1  0.81500179  0.52163498  0.83732056  1
  Ba  Ba7  1  0.02163498  0.31500179  0.66267944  1
  Sr  Sr0  1  0.49795831  0.49795831  0.49383464  1
  Sr  Sr1  1  0.99795831  0.99795831  0.00616536  1
  Bi  Bi0  1  0.88265400  0.88265400  0.61736290  1
  Bi  Bi1  1  0.38265400  0.38265400  0.88263710  1
  Sb  Sb0  1  0.61796153  0.61796153  0.11692084  1
  Sb  Sb1  1  0.11796153  0.11796153  0.38307916  1
  Sb  Sb2  1  0.19477387  0.80663828  0.00000620  1
  Sb  Sb3  1  0.30663828  0.69477387  0.49999380  1
  Sb  Sb4  1  0.80663828  0.19477387  0.00000620  1
  Sb  Sb5  1  0.69477387  0.30663828  0.49999380  1
loop_
_geom_bond_atom_site_label_1
_geom_bond_atom_site_label_2
_geom_bond_distance
_geom_bond_site_symmetry_2
Ba0 Sb5 3.476747 1_555
Ba0 Sb2 3.545560 1_546
Ba0 Sb3 3.547672 1_545
Ba0 Sb1 3.684990 1_555
Ba0 Bi0 3.709279 1_445
Ba0 Bi1 3.831722 1_555
Ba1 Sb4 3.476747 1_566
Ba1 Sb3 3.545560 1_555
Ba1 Sb2 3.547672 1_556
Ba1 Sb0 3.684990 1_556
Ba1 Bi1 3.709280 1_555
Ba1 Bi0 3.831722 1_555
Ba2 Sb4 3.481467 1_455
Ba2 Sb3 3.531533 1_555
Ba2 Sb2 3.578138 1_555
Ba2 Bi1 3.695441 1_554
Ba2 Sb0 3.704856 1_555
Ba2 Sb1 3.805203 1_555
Ba3 Sb5 3.481467 1_555
Ba3 Sb2 3.531533 1_655
Ba3 Sb3 3.578138 1_655
Ba3 Bi0 3.695441 1_555
Ba3 Sb1 3.704856 1_665
Ba3 Sb0 3.805203 1_555
Ba4 Sb3 3.481467 1_555
Ba4 Sb4 3.531533 1_565
Ba4 Sb5 3.578138 1_565
Ba4 Bi0 3.695441 1_555
Ba4 Sb1 3.704856 1_665
Ba4 Sb0 3.805203 1_555
Ba5 Sb2 3.481467 1_545
Ba5 Sb5 3.531533 1_555
Ba5 Sb4 3.578138 1_555
Ba5 Bi1 3.695441 1_554
Ba5 Sb0 3.704856 1_555
Ba5 Sb1 3.805203 1_555
Ba6 Sb2 3.476747 1_656
Ba6 Sb5 3.545560 1_555
Ba6 Sb4 3.547672 1_556
Ba6 Sb0 3.684990 1_556
Ba6 Bi1 3.709279 1_555
Ba6 Bi0 3.831722 1_555
Ba7 Sb3 3.476747 1_555
Ba7 Sb4 3.545560 1_456
Ba7 Sb5 3.547672 1_455
Ba7 Sb1 3.684990 1_555
Ba7 Bi0 3.709280 1_445
Ba7 Bi1 3.831722 1_555
Bi0 Sb1 3.031068 1_665
Bi0 Sr0 3.680613 1_555
Bi0 Sr1 3.709818 1_556
Bi1 Sb0 3.031068 1_556
Bi1 Sr1 3.680613 1_446
Bi1 Sr0 3.709818 1_555
Sb0 Sr1 3.605329 1_555
Sb0 Sr0 3.618286 1_555
Sb1 Sr0 3.605329 1_555
Sb1 Sr1 3.618286 1_445
Sb2 Sr1 3.456065 1_455
Sb3 Sr0 3.456065 1_555
Sb4 Sr1 3.456065 1_545
Sb5 Sr0 3.456065 1_555
