# generated using pymatgen
data_Ta5Ti8VP8
_symmetry_space_group_name_H-M   'P 1'
_cell_length_a   7.52114191
_cell_length_b   7.52114232
_cell_length_c   13.66715657
_cell_angle_alpha   76.09028469
_cell_angle_beta   76.09028473
_cell_angle_gamma   25.99803619
_symmetry_Int_Tables_number   1
_chemical_formula_structural   Ta5Ti8VP8
_chemical_formula_sum   'Ta5 Ti8 V1 P8'
_cell_volume   328.41308707
_cell_formula_units_Z   1
loop_
 _symmetry_equiv_pos_site_id
 _symmetry_equiv_pos_as_xyz
  1  'x, y, z'
loop_
 _atom_site_type_symbol
 _atom_site_label
 _atom_site_symmetry_multiplicity
 _atom_site_fract_x
 _atom_site_fract_y
 _atom_site_fract_z
 _atom_site_occupancy
  Ta  Ta0  1  0.99942572  0.99942572  0.00227492  1
  Ta  Ta1  1  0.49951365  0.49951365  0.49781044  1
  Ta  Ta2  1  0.42568975  0.42568975  0.17824784  1
  Ta  Ta3  1  0.57135536  0.57135536  0.83126192  1
  Ta  Ta4  1  0.19680545  0.19680545  0.68903517  1
  Ti  Ti0  1  0.20901078  0.20901078  0.20792264  1
  Ti  Ti1  1  0.79286803  0.79286803  0.79467991  1
  Ti  Ti2  1  0.33995275  0.33995275  0.97115499  1
  Ti  Ti3  1  0.66017324  0.66017324  0.03241161  1
  Ti  Ti4  1  0.00286587  0.00286587  0.33538299  1
  Ti  Ti5  1  0.99655731  0.99655731  0.66403248  1
  Ti  Ti6  1  0.17940723  0.17940723  0.45392514  1
  Ti  Ti7  1  0.82297536  0.82297536  0.53847366  1
  V  V0  1  0.80143029  0.80143029  0.30987390  1
  P  P0  1  0.18157641  0.18157641  0.89261455  1
  P  P1  1  0.81968792  0.81968792  0.11213122  1
  P  P2  1  0.37104666  0.37104666  0.39068404  1
  P  P3  1  0.62646092  0.62646092  0.59821882  1
  P  P4  1  0.37092337  0.37092337  0.65935771  1
  P  P5  1  0.63201884  0.63201884  0.33814983  1
  P  P6  1  0.06446369  0.06446369  0.15417884  1
  P  P7  1  0.93579142  0.93579142  0.84817637  1
loop_
_geom_bond_atom_site_label_1
_geom_bond_atom_site_label_2
_geom_bond_distance
_geom_bond_site_symmetry_2
Ta2 V0 2.792597 1_455
Ta2 V0 2.792597 1_545
P0 Ti1 2.497408 1_545
P0 Ti1 2.497408 1_455
P0 Ti3 2.513011 1_546
P0 Ti3 2.513011 1_456
P0 Ta3 2.615986 1_455
P0 Ta3 2.615986 1_545
P0 Ta0 2.720192 1_446
P0 Ta4 2.735847 1_555
P0 Ti2 2.787495 1_555
P1 Ti0 2.481851 1_565
P1 Ti0 2.481852 1_655
P1 Ti2 2.525915 1_564
P1 Ti2 2.525915 1_654
P1 Ta2 2.604834 1_655
P1 Ta2 2.604835 1_565
P1 V0 2.649282 1_555
P1 Ta0 2.691202 1_555
P1 Ti3 2.812500 1_555
P2 V0 2.383074 1_455
P2 V0 2.383074 1_545
P2 Ti4 2.538816 1_655
P2 Ti4 2.538816 1_565
P2 Ti7 2.595403 1_455
P2 Ti7 2.595403 1_545
P2 Ta1 2.655050 1_555
P2 Ti6 2.727384 1_555
P2 Ta2 2.814920 1_555
P3 Ta4 2.469232 1_655
P3 Ta4 2.469232 1_565
P3 Ti5 2.539922 1_455
P3 Ti5 2.539922 1_545
P3 Ti6 2.568707 1_655
P3 Ti6 2.568707 1_565
P3 Ta1 2.570037 1_555
P3 Ti7 2.793250 1_555
P3 Ta3 3.086658 1_555
P4 Ta4 2.483250 1_555
P4 Ti5 2.512951 1_545
P4 Ti5 2.512951 1_455
P4 Ta1 2.524614 1_555
P4 Ti1 2.558789 1_455
P4 Ti1 2.558789 1_545
P4 Ti7 2.580391 1_455
P4 Ti7 2.580391 1_545
P5 V0 2.416880 1_555
P5 Ti0 2.512420 1_655
P5 Ti0 2.512420 1_565
P5 Ti6 2.527945 1_655
P5 Ti6 2.527945 1_565
P5 Ta1 2.538161 1_555
P5 Ti4 2.546007 1_565
P5 Ti4 2.546007 1_655
P6 Ti0 2.407457 1_555
P6 Ti4 2.417668 1_555
P6 Ta0 2.489050 1_445
P6 Ti3 2.539206 1_545
P6 Ti3 2.539206 1_455
P6 Ta2 2.603308 1_455
P6 Ta2 2.603308 1_545
P7 Ti1 2.382961 1_555
P7 Ti5 2.453796 1_555
P7 Ta0 2.504943 1_556
P7 Ti2 2.548574 1_565
P7 Ti2 2.548574 1_655
P7 Ta3 2.576193 1_655
P7 Ta3 2.576193 1_565
