# generated using pymatgen
data_Lu2Zr7(In2Ir)7
_symmetry_space_group_name_H-M   'P 1'
_cell_length_a   9.66686273
_cell_length_b   9.63249698
_cell_length_c   9.66686272
_cell_angle_alpha   59.88191148
_cell_angle_beta   60.00000004
_cell_angle_gamma   59.88191340
_symmetry_Int_Tables_number   1
_chemical_formula_structural   Lu2Zr7(In2Ir)7
_chemical_formula_sum   'Lu2 Zr7 In14 Ir7'
_cell_volume   635.35654364
_cell_formula_units_Z   1
loop_
 _symmetry_equiv_pos_site_id
 _symmetry_equiv_pos_as_xyz
  1  'x, y, z'
loop_
 _atom_site_type_symbol
 _atom_site_label
 _atom_site_symmetry_multiplicity
 _atom_site_fract_x
 _atom_site_fract_y
 _atom_site_fract_z
 _atom_site_occupancy
  Lu  Lu0  1  0.12694950  0.61915249  0.12694950  1
  Lu  Lu1  1  0.49694870  0.50915390  0.49694870  1
  Zr  Zr0  1  0.36979548  0.87347947  0.87836202  1
  Zr  Zr1  1  0.87836202  0.87347947  0.87836202  1
  Zr  Zr2  1  0.62875556  0.12438733  0.12342905  1
  Zr  Zr3  1  0.87836202  0.87347947  0.36979548  1
  Zr  Zr4  1  0.12342905  0.12438733  0.12342905  1
  Zr  Zr5  1  0.87616785  0.37149445  0.87616785  1
  Zr  Zr6  1  0.12342905  0.12438733  0.62875556  1
  In  In0  1  0.50004057  0.84939783  0.15052003  1
  In  In1  1  0.50004057  0.84939783  0.50004057  1
  In  In2  1  0.50006892  0.15609254  0.50006892  1
  In  In3  1  0.50108983  0.50045398  0.84477266  1
  In  In4  1  0.15368353  0.50045398  0.50108983  1
  In  In5  1  0.84377062  0.15609254  0.50006892  1
  In  In6  1  0.15052003  0.84939783  0.50004057  1
  In  In7  1  0.50006892  0.15609254  0.84377062  1
  In  In8  1  0.15368353  0.50045398  0.84477266  1
  In  In9  1  0.50108983  0.50045398  0.15368353  1
  In  In10  1  0.84477266  0.50045398  0.50108983  1
  In  In11  1  0.84477266  0.50045398  0.15368353  1
  In  In12  1  0.25472440  0.23582679  0.25472440  1
  In  In13  1  0.74921944  0.75234168  0.74921944  1
  Ir  Ir0  1  0.77163403  0.78048579  0.22394009  1
  Ir  Ir1  1  0.00082768  0.99751497  0.00082768  1
  Ir  Ir2  1  0.22394009  0.78048579  0.22394009  1
  Ir  Ir3  1  0.22394009  0.78048579  0.77163403  1
  Ir  Ir4  1  0.22035943  0.22008765  0.77977696  1
  Ir  Ir5  1  0.77977696  0.22008765  0.77977696  1
  Ir  Ir6  1  0.77977696  0.22008765  0.22035943  1
loop_
_geom_bond_atom_site_label_1
_geom_bond_atom_site_label_2
_geom_bond_distance
_geom_bond_site_symmetry_2
In0 Ir2 2.734765 1_555
In0 Ir0 2.734774 1_555
In0 Lu1 3.307668 1_555
In1 Ir3 2.734768 1_555
In1 Ir0 2.734768 1_555
In1 Lu1 3.307663 1_555
In2 Ir6 2.773281 1_555
In2 Ir4 2.773281 1_555
In2 Lu1 3.370861 1_555
In3 Ir5 2.766699 1_555
In3 Ir3 2.771558 1_555
In3 Lu1 3.341046 1_555
In4 Ir4 2.766702 1_555
In4 Ir2 2.771558 1_555
In4 Lu1 3.341046 1_555
In5 Ir6 2.773281 1_555
In5 Ir5 2.773281 1_555
In5 Lu1 3.370866 1_555
In6 Ir2 2.734765 1_555
In6 Ir3 2.734774 1_555
In6 Lu1 3.307668 1_555
In7 Ir5 2.773281 1_555
In7 Ir4 2.773281 1_555
In7 Lu1 3.370866 1_555
In8 Ir4 2.766696 1_555
In8 Ir3 2.771558 1_555
In8 Lu1 3.341046 1_555
In9 Ir6 2.766702 1_555
In9 Ir2 2.771558 1_555
In9 Lu1 3.341046 1_555
In10 Ir5 2.766699 1_555
In10 Ir0 2.771558 1_555
In10 Lu1 3.341046 1_555
In11 Ir6 2.766696 1_555
In11 Ir0 2.771558 1_555
In11 Lu1 3.341046 1_555
In12 Zr4 2.952890 1_555
In12 Zr6 2.952898 1_555
In12 Zr2 2.952898 1_555
In12 Lu0 3.009426 1_555
In13 Zr5 2.989968 1_555
In13 Zr1 2.993478 1_555
In13 Zr3 2.993486 1_555
In13 Zr0 2.993486 1_555
Ir0 Zr2 2.710248 1_565
Ir0 Zr3 2.739436 1_555
Ir0 Zr1 2.739445 1_554
Ir0 Lu0 2.824334 1_655
Ir1 Zr1 2.910501 1_454
Ir1 Zr3 2.910509 1_455
Ir1 Zr0 2.910509 1_554
Ir1 Zr6 2.935029 1_564
Ir1 Zr2 2.935029 1_465
Ir1 Zr4 2.935053 1_565
Ir1 Zr5 2.936051 1_464
Ir1 Lu0 2.970461 1_555
Ir2 Zr4 2.710249 1_565
Ir2 Zr0 2.739444 1_554
Ir2 Zr3 2.739444 1_455
Ir2 Lu0 2.824327 1_555
Ir3 Zr6 2.710248 1_565
Ir3 Zr0 2.739436 1_555
Ir3 Zr1 2.739445 1_455
Ir3 Lu0 2.824334 1_556
Ir4 Zr6 2.728456 1_555
Ir4 Zr4 2.728456 1_556
Ir4 Zr5 2.731205 1_455
Ir4 Zr0 2.735923 1_545
Ir5 Zr2 2.728456 1_556
Ir5 Zr6 2.728456 1_655
Ir5 Zr5 2.731182 1_555
Ir5 Zr1 2.735924 1_545
Ir6 Zr2 2.728456 1_555
Ir6 Zr4 2.728456 1_655
Ir6 Zr5 2.731205 1_554
Ir6 Zr3 2.735923 1_545
