# generated using pymatgen
data_Hf6Ta5Ga11Os7
_symmetry_space_group_name_H-M   'P 1'
_cell_length_a   8.81306259
_cell_length_b   8.81306263
_cell_length_c   8.77657481
_cell_angle_alpha   59.86237583
_cell_angle_beta   59.86237504
_cell_angle_gamma   59.99999398
_symmetry_Int_Tables_number   1
_chemical_formula_structural   Hf6Ta5Ga11Os7
_chemical_formula_sum   'Hf6 Ta5 Ga11 Os7'
_cell_volume   481.01342364
_cell_formula_units_Z   1
loop_
 _symmetry_equiv_pos_site_id
 _symmetry_equiv_pos_as_xyz
  1  'x, y, z'
loop_
 _atom_site_type_symbol
 _atom_site_label
 _atom_site_symmetry_multiplicity
 _atom_site_fract_x
 _atom_site_fract_y
 _atom_site_fract_z
 _atom_site_occupancy
  Hf  Hf0  1  0.70196275  0.70196275  0.30157301  1
  Hf  Hf1  1  0.29450049  0.70196275  0.30157301  1
  Hf  Hf2  1  0.70196275  0.29450049  0.30157301  1
  Hf  Hf3  1  0.30791058  0.30791058  0.70130451  1
  Hf  Hf4  1  0.68287434  0.30791058  0.70130451  1
  Hf  Hf5  1  0.30791058  0.68287434  0.70130451  1
  Ta  Ta0  1  0.87795033  0.87795033  0.36614901  1
  Ta  Ta1  1  0.87424643  0.37168662  0.87981953  1
  Ta  Ta2  1  0.37168662  0.87424643  0.87981953  1
  Ta  Ta3  1  0.87424643  0.87424643  0.87981953  1
  Ta  Ta4  1  0.12665583  0.12665583  0.62003152  1
  Ga  Ga0  1  0.11951068  0.64163343  0.11934520  1
  Ga  Ga1  1  0.64163343  0.11951068  0.11934520  1
  Ga  Ga2  1  0.11951068  0.11951068  0.11934520  1
  Ga  Ga3  1  0.65248822  0.65248822  0.04253533  1
  Ga  Ga4  1  0.65570566  0.03476150  0.65382918  1
  Ga  Ga5  1  0.03476150  0.65570566  0.65382918  1
  Ga  Ga6  1  0.65570566  0.65570566  0.65382918  1
  Ga  Ga7  1  0.33786384  0.33786384  0.98640649  1
  Ga  Ga8  1  0.34245565  0.97605032  0.33904038  1
  Ga  Ga9  1  0.97605032  0.34245565  0.33904038  1
  Ga  Ga10  1  0.34245565  0.34245565  0.33904038  1
  Os  Os0  1  0.00535930  0.00535930  0.98392111  1
  Os  Os1  1  0.99841925  0.99841925  0.50515080  1
  Os  Os2  1  0.49801071  0.99841925  0.50515080  1
  Os  Os3  1  0.99841925  0.49801071  0.50515080  1
  Os  Os4  1  0.50174137  0.50174137  0.00025490  1
  Os  Os5  1  0.99626135  0.50174137  0.00025490  1
  Os  Os6  1  0.50174137  0.99626135  0.00025490  1
loop_
_geom_bond_atom_site_label_1
_geom_bond_atom_site_label_2
_geom_bond_distance
_geom_bond_site_symmetry_2
Hf0 Ta0 3.050130 1_555
Hf0 Ta3 3.054571 1_554
Hf0 Os2 3.164777 1_555
Hf0 Os3 3.164777 1_555
Hf0 Os5 3.171118 1_555
Hf0 Os6 3.171118 1_555
Hf1 Ta0 3.050122 1_455
Hf1 Ta2 3.054571 1_554
Hf1 Os3 3.164769 1_455
Hf1 Os1 3.164775 1_455
Hf1 Os4 3.171118 1_555
Hf1 Os6 3.171118 1_555
Hf2 Ta0 3.050122 1_545
Hf2 Ta1 3.054571 1_554
Hf2 Os2 3.164769 1_545
Hf2 Os1 3.164775 1_545
Hf2 Os4 3.171118 1_555
Hf2 Os5 3.171118 1_555
Hf3 Os5 3.149352 1_456
Hf3 Os6 3.149352 1_546
Hf3 Ta1 3.178185 1_455
Hf3 Ta2 3.178185 1_545
Hf3 Ta4 3.232999 1_555
Hf3 Os2 3.234117 1_545
Hf3 Os3 3.234117 1_455
Hf4 Os4 3.149351 1_556
Hf4 Os6 3.149357 1_546
Hf4 Ta1 3.178178 1_555
Hf4 Ta3 3.178183 1_545
Hf4 Ta4 3.232991 1_655
Hf4 Os1 3.234117 1_545
Hf4 Os3 3.234117 1_555
Hf5 Os4 3.149351 1_556
Hf5 Os5 3.149357 1_456
Hf5 Ta2 3.178178 1_555
Hf5 Ta3 3.178183 1_455
Hf5 Ta4 3.232991 1_565
Hf5 Os1 3.234117 1_455
Hf5 Os2 3.234117 1_555
Ga0 Os0 2.617301 1_564
Ga0 Os4 2.750525 1_555
Ga0 Os5 2.750533 1_455
Ga0 Os3 2.761315 1_455
Ga0 Ga7 2.821651 1_554
Ga0 Ga9 2.837068 1_455
Ga0 Ga10 2.837078 1_555
Ga0 Ta0 3.004556 1_455
Ga0 Ta2 3.016334 1_554
Ga0 Ta3 3.016340 1_454
Ga0 Hf1 3.060968 1_555
Ga0 Hf0 3.060975 1_455
Ga0 Hf5 3.081799 1_554
Ga1 Os0 2.617301 1_654
Ga1 Os4 2.750525 1_555
Ga1 Os6 2.750533 1_545
Ga1 Os2 2.761315 1_545
Ga1 Ga7 2.821651 1_554
Ga1 Ga8 2.837068 1_545
Ga1 Ga10 2.837078 1_555
Ga1 Ta0 3.004556 1_545
Ga1 Ta1 3.016334 1_554
Ga1 Ta3 3.016340 1_544
Ga1 Hf2 3.060968 1_555
Ga1 Hf0 3.060975 1_545
Ga1 Hf4 3.081799 1_554
Ga2 Os0 2.617308 1_554
Ga2 Os6 2.750525 1_545
Ga2 Os5 2.750525 1_455
Ga2 Os1 2.761315 1_445
Ga2 Ga7 2.821636 1_554
Ga2 Ga9 2.837082 1_455
Ga2 Ga8 2.837082 1_545
Ga2 Ta0 3.004556 1_445
Ga2 Ta2 3.016340 1_544
Ga2 Ta1 3.016340 1_454
Ga2 Hf2 3.060973 1_455
Ga2 Hf1 3.060973 1_545
Ga2 Hf3 3.081799 1_554
Ga3 Os5 2.534326 1_555
Ga3 Os6 2.534326 1_555
Ga3 Os4 2.534334 1_555
Ga3 Hf0 2.780249 1_555
Ga3 Hf1 2.780255 1_555
Ga3 Hf2 2.780255 1_555
Ga3 Ta3 2.809427 1_554
Ga3 Ta1 2.809434 1_554
Ga3 Ta2 2.809434 1_554
Ga4 Os1 2.534275 1_545
Ga4 Os2 2.534291 1_545
Ga4 Os6 2.546035 1_546
Ga4 Hf2 2.743240 1_555
Ga4 Hf4 2.776641 1_555
Ga4 Hf3 2.776651 1_555
Ga4 Ta3 2.817548 1_545
Ga4 Ta2 2.817568 1_545
Ga4 Ta0 2.819961 1_545
Ga5 Os1 2.534275 1_455
Ga5 Os3 2.534291 1_455
Ga5 Os5 2.546035 1_456
Ga5 Hf1 2.743240 1_555
Ga5 Hf5 2.776641 1_555
Ga5 Hf3 2.776651 1_555
Ga5 Ta3 2.817548 1_455
Ga5 Ta1 2.817569 1_455
Ga5 Ta0 2.819961 1_455
Ga6 Os3 2.534279 1_555
Ga6 Os2 2.534279 1_555
Ga6 Os4 2.546041 1_556
Ga6 Hf0 2.743249 1_555
Ga6 Hf5 2.776658 1_555
Ga6 Hf4 2.776658 1_555
Ga6 Ta2 2.817553 1_555
Ga6 Ta1 2.817553 1_555
Ga6 Ta0 2.819950 1_555
Ga7 Os5 2.573899 1_456
Ga7 Os6 2.573899 1_546
Ga7 Os4 2.573907 1_556
Ga7 Hf3 2.792261 1_555
Ga7 Hf4 2.792271 1_555
Ga7 Hf5 2.792271 1_555
Ga8 Os6 2.523924 1_555
Ga8 Os2 2.570893 1_555
Ga8 Os1 2.570908 1_455
Ga8 Ta4 2.741068 1_565
Ga8 Hf0 2.842464 1_555
Ga8 Hf1 2.842481 1_555
Ga8 Hf5 2.905673 1_555
Ga9 Os5 2.523924 1_555
Ga9 Os3 2.570893 1_555
Ga9 Os1 2.570908 1_545
Ga9 Ta4 2.741068 1_655
Ga9 Hf0 2.842464 1_555
Ga9 Hf2 2.842481 1_555
Ga9 Hf4 2.905673 1_555
Ga10 Os4 2.523917 1_555
Ga10 Os3 2.570904 1_455
Ga10 Os2 2.570904 1_545
Ga10 Ta4 2.741084 1_555
Ga10 Hf2 2.842455 1_555
Ga10 Hf1 2.842455 1_555
Ga10 Hf3 2.905666 1_555
Os0 Ta4 2.602211 1_555
Os0 Ta2 2.638294 1_545
Os0 Ta1 2.638294 1_455
Os0 Ta3 2.638294 1_445
Os0 Ta0 2.733350 1_446
Os1 Ta4 2.671481 1_665
Os1 Ta3 2.679316 1_555
Os1 Ta0 2.733341 1_555
Os2 Ta4 2.671488 1_565
Os2 Ta2 2.679316 1_555
Os2 Ta0 2.733341 1_555
Os3 Ta4 2.671488 1_655
Os3 Ta1 2.679316 1_555
Os3 Ta0 2.733341 1_555
Os4 Ta1 2.679134 1_554
Os4 Ta2 2.679134 1_554
Os5 Ta3 2.679134 1_554
Os5 Ta1 2.679134 1_554
Os6 Ta3 2.679134 1_554
Os6 Ta2 2.679134 1_554
