# generated using pymatgen
data_Zr3Ti2Sn3S
_symmetry_space_group_name_H-M   'P 1'
_cell_length_a   8.41718755
_cell_length_b   8.41718778
_cell_length_c   5.80885881
_cell_angle_alpha   90.00000000
_cell_angle_beta   90.00000000
_cell_angle_gamma   119.99999523
_symmetry_Int_Tables_number   1
_chemical_formula_structural   Zr3Ti2Sn3S
_chemical_formula_sum   'Zr6 Ti4 Sn6 S2'
_cell_volume   356.41460621
_cell_formula_units_Z   2
loop_
 _symmetry_equiv_pos_site_id
 _symmetry_equiv_pos_as_xyz
  1  'x, y, z'
loop_
 _atom_site_type_symbol
 _atom_site_label
 _atom_site_symmetry_multiplicity
 _atom_site_fract_x
 _atom_site_fract_y
 _atom_site_fract_z
 _atom_site_occupancy
  Zr  Zr0  1  0.74699551  0.74699551  0.75000000  1
  Zr  Zr1  1  0.25300449  1.00000000  0.75000000  1
  Zr  Zr2  1  1.00000000  0.25300449  0.75000000  1
  Zr  Zr3  1  0.25300449  0.25300449  0.25000000  1
  Zr  Zr4  1  0.74699551  0.00000000  0.25000000  1
  Zr  Zr5  1  0.00000000  0.74699551  0.25000000  1
  Ti  Ti0  1  0.66666700  0.33333300  0.00000000  1
  Ti  Ti1  1  0.33333300  0.66666700  0.00000000  1
  Ti  Ti2  1  0.33333300  0.66666700  0.50000000  1
  Ti  Ti3  1  0.66666700  0.33333300  0.50000000  1
  Sn  Sn0  1  0.40388723  0.40388723  0.75000000  1
  Sn  Sn1  1  0.59611277  0.00000000  0.75000000  1
  Sn  Sn2  1  0.00000000  0.59611277  0.75000000  1
  Sn  Sn3  1  0.59611277  0.59611277  0.25000000  1
  Sn  Sn4  1  0.40388723  1.00000000  0.25000000  1
  Sn  Sn5  1  1.00000000  0.40388723  0.25000000  1
  S  S0  1  0.00000000  0.00000000  0.00000000  1
  S  S1  1  0.00000000  0.00000000  0.50000000  1
loop_
_geom_bond_atom_site_label_1
_geom_bond_atom_site_label_2
_geom_bond_distance
_geom_bond_site_symmetry_2
Sn0 Zr0 2.888007 1_555
Sn0 Ti0 2.944065 1_556
Sn0 Ti3 2.944065 1_555
Sn0 Ti2 2.944065 1_555
Sn0 Ti1 2.944065 1_556
Sn0 Zr2 2.975341 1_455
Sn0 Zr1 2.975341 1_545
Sn0 Zr3 3.169958 1_555
Sn0 Zr3 3.169958 1_556
Sn1 Zr1 2.888007 1_545
Sn1 Ti3 2.944058 1_555
Sn1 Ti0 2.944058 1_556
Sn1 Ti1 2.944060 1_546
Sn1 Ti2 2.944060 1_545
Sn1 Zr0 2.975340 1_545
Sn1 Zr2 2.975341 1_555
Sn1 Zr4 3.169958 1_555
Sn1 Zr4 3.169958 1_556
Sn2 Zr2 2.888007 1_455
Sn2 Ti2 2.944058 1_555
Sn2 Ti1 2.944058 1_556
Sn2 Ti3 2.944060 1_455
Sn2 Ti0 2.944060 1_456
Sn2 Zr0 2.975340 1_455
Sn2 Zr1 2.975341 1_555
Sn2 Zr5 3.169958 1_555
Sn2 Zr5 3.169958 1_556
Sn3 Zr3 2.888007 1_555
Sn3 Ti2 2.944065 1_555
Sn3 Ti1 2.944065 1_555
Sn3 Ti3 2.944065 1_555
Sn3 Ti0 2.944065 1_555
Sn3 Zr5 2.975341 1_655
Sn3 Zr4 2.975341 1_565
Sn3 Zr0 3.169958 1_555
Sn3 Zr0 3.169958 1_554
Sn4 Zr4 2.888007 1_565
Sn4 Ti1 2.944058 1_555
Sn4 Ti2 2.944058 1_555
Sn4 Ti3 2.944060 1_565
Sn4 Ti0 2.944060 1_565
Sn4 Zr3 2.975340 1_565
Sn4 Zr5 2.975341 1_555
Sn4 Zr1 3.169958 1_555
Sn4 Zr1 3.169958 1_554
Sn5 Zr5 2.888007 1_655
Sn5 Ti3 2.944058 1_555
Sn5 Ti0 2.944058 1_555
Sn5 Ti2 2.944060 1_655
Sn5 Ti1 2.944060 1_655
Sn5 Zr3 2.975340 1_655
Sn5 Zr4 2.975341 1_555
Sn5 Zr2 3.169958 1_554
Sn5 Zr2 3.169958 1_555
S0 Zr1 2.577608 1_544
S0 Zr4 2.577608 1_455
S0 Zr2 2.577608 1_454
S0 Zr5 2.577608 1_545
S0 Zr3 2.577609 1_555
S0 Zr0 2.577609 1_444
S1 Zr1 2.577608 1_545
S1 Zr4 2.577608 1_455
S1 Zr2 2.577608 1_455
S1 Zr5 2.577608 1_545
S1 Zr3 2.577609 1_555
S1 Zr0 2.577609 1_445
