# generated using pymatgen
data_RbMnCuTe2
_symmetry_space_group_name_H-M   'P 1'
_cell_length_a   8.29476016
_cell_length_b   8.29476005
_cell_length_c   8.29475907
_cell_angle_alpha   149.51648316
_cell_angle_beta   149.51648324
_cell_angle_gamma   43.65162158
_symmetry_Int_Tables_number   1
_chemical_formula_structural   RbMnCuTe2
_chemical_formula_sum   'Rb1 Mn1 Cu1 Te2'
_cell_volume   146.46187111
_cell_formula_units_Z   1
loop_
 _symmetry_equiv_pos_site_id
 _symmetry_equiv_pos_as_xyz
  1  'x, y, z'
loop_
 _atom_site_type_symbol
 _atom_site_label
 _atom_site_symmetry_multiplicity
 _atom_site_fract_x
 _atom_site_fract_y
 _atom_site_fract_z
 _atom_site_occupancy
  Rb  Rb0  1  0.00000000  0.00000000  0.00000000  1
  Mn  Mn0  1  0.75000000  0.25000000  0.50000000  1
  Cu  Cu0  1  0.25000000  0.75000000  0.50000000  1
  Te  Te0  1  0.64444317  0.64444317  1.00000000  1
  Te  Te1  1  0.35555683  0.35555683  0.00000000  1
loop_
_geom_bond_atom_site_label_1
_geom_bond_atom_site_label_2
_geom_bond_distance
_geom_bond_site_symmetry_2
Rb0 Te0 3.802444 1_443
Rb0 Te1 3.802444 1_556
Rb0 Te0 3.802445 1_555
Rb0 Te1 3.802445 1_444
Rb0 Te0 3.802445 1_454
Rb0 Te1 3.802445 1_545
Rb0 Te0 3.802445 1_544
Rb0 Te1 3.802445 1_455
Mn0 Te1 2.719883 1_555
Mn0 Te0 2.719883 1_555
Mn0 Te0 2.719883 1_544
Mn0 Te1 2.719883 1_656
Cu0 Te0 2.719883 1_555
Cu0 Te1 2.719883 1_555
Cu0 Te1 2.719883 1_566
Cu0 Te0 2.719883 1_454
Cu0 Mn0 3.083876 1_454
Cu0 Mn0 3.083876 1_566
Cu0 Mn0 3.083876 1_555
Cu0 Mn0 3.083876 1_465
