# generated using pymatgen
data_NaNiRhF6
_symmetry_space_group_name_H-M   'P 1'
_cell_length_a   5.23802307
_cell_length_b   5.23791742
_cell_length_c   9.54312742
_cell_angle_alpha   90.00128205
_cell_angle_beta   89.99830264
_cell_angle_gamma   119.99695734
_symmetry_Int_Tables_number   1
_chemical_formula_structural   NaNiRhF6
_chemical_formula_sum   'Na2 Ni2 Rh2 F12'
_cell_volume   226.75701048
_cell_formula_units_Z   2
loop_
 _symmetry_equiv_pos_site_id
 _symmetry_equiv_pos_as_xyz
  1  'x, y, z'
loop_
 _atom_site_type_symbol
 _atom_site_label
 _atom_site_symmetry_multiplicity
 _atom_site_fract_x
 _atom_site_fract_y
 _atom_site_fract_z
 _atom_site_occupancy
  Na  Na0  1  0.99999932  0.00000296  0.24999844  1
  Na  Na1  1  0.99999765  0.99999767  0.74999633  1
  Ni  Ni0  1  0.66665342  0.33331349  0.99998970  1
  Ni  Ni1  1  0.33336203  0.66671317  0.50000530  1
  Rh  Rh0  1  0.33328968  0.66668578  0.99999401  1
  Rh  Rh1  1  0.66668043  0.33331133  0.50000129  1
  F  F0  1  0.00251871  0.35394661  0.11078674  1
  F  F1  1  0.64604289  0.64853061  0.11079805  1
  F  F2  1  0.35146059  0.99749532  0.11078604  1
  F  F3  1  0.64854078  0.00250025  0.38921353  1
  F  F4  1  0.35396257  0.35146686  0.38921214  1
  F  F5  1  0.99748178  0.64604216  0.38921348  1
  F  F6  1  0.35389950  0.00250300  0.61076834  1
  F  F7  1  0.99752002  0.35141721  0.61076757  1
  F  F8  1  0.64859128  0.64608762  0.61077006  1
  F  F9  1  0.35142497  0.35392228  0.88923478  1
  F  F10  1  0.00248001  0.64857766  0.88923543  1
  F  F11  1  0.64609340  0.99748202  0.88923277  1
loop_
_geom_bond_atom_site_label_1
_geom_bond_atom_site_label_2
_geom_bond_distance
_geom_bond_site_symmetry_2
F0 Rh0 1.991284 1_554
F0 Ni0 2.008654 1_454
F0 Na0 2.275482 1_455
F1 Rh0 1.991678 1_554
F1 Ni0 2.008504 1_554
F1 Na0 2.275616 1_565
F2 Rh0 1.991079 1_554
F2 Ni0 2.008470 1_564
F2 Na0 2.275592 1_465
F3 Rh1 1.991128 1_555
F3 Ni1 2.008343 1_545
F3 Na0 2.275573 1_555
F4 Rh1 1.991446 1_555
F4 Ni1 2.008533 1_555
F4 Na0 2.275687 1_455
F5 Rh1 1.991315 1_555
F5 Ni1 2.008618 1_655
F5 Na0 2.275578 1_565
F6 Rh1 1.991328 1_555
F6 Ni1 2.008264 1_545
F6 Na1 2.275399 1_445
F7 Rh1 1.991290 1_555
F7 Ni1 2.008566 1_655
F7 Na1 2.275467 1_545
F8 Rh1 1.991368 1_555
F8 Ni1 2.008451 1_555
F8 Na1 2.275521 1_555
F9 Rh0 1.991374 1_555
F9 Ni0 2.008357 1_555
F9 Na1 2.275664 1_445
F10 Rh0 1.991113 1_555
F10 Ni0 2.008424 1_455
F10 Na1 2.275537 1_455
F11 Rh0 1.991316 1_555
F11 Ni0 2.008373 1_565
F11 Na1 2.275435 1_555
