# generated using pymatgen
data_CaHg11
_symmetry_space_group_name_H-M   'P 1'
_cell_length_a   9.99994700
_cell_length_b   9.99994700
_cell_length_c   9.99994700
_cell_angle_alpha   90.00000000
_cell_angle_beta   90.00000000
_cell_angle_gamma   90.00000000
_symmetry_Int_Tables_number   1
_chemical_formula_structural   CaHg11
_chemical_formula_sum   'Ca3 Hg33'
_cell_volume   999.98410008
_cell_formula_units_Z   3
loop_
 _symmetry_equiv_pos_site_id
 _symmetry_equiv_pos_as_xyz
  1  'x, y, z'
loop_
 _atom_site_type_symbol
 _atom_site_label
 _atom_site_symmetry_multiplicity
 _atom_site_fract_x
 _atom_site_fract_y
 _atom_site_fract_z
 _atom_site_occupancy
  Ca  Ca0  1  0.50000000  0.00000000  0.00000000  1
  Ca  Ca1  1  0.00000000  0.00000000  0.50000000  1
  Ca  Ca2  1  0.00000000  0.50000000  0.00000000  1
  Hg  Hg0  1  0.50000000  0.50000000  0.50000000  1
  Hg  Hg1  1  0.15263900  0.15263900  0.15263900  1
  Hg  Hg2  1  0.15263900  0.84736100  0.15263900  1
  Hg  Hg3  1  0.15263900  0.15263900  0.84736100  1
  Hg  Hg4  1  0.84736100  0.15263900  0.15263900  1
  Hg  Hg5  1  0.84736100  0.84736100  0.15263900  1
  Hg  Hg6  1  0.15263900  0.84736100  0.84736100  1
  Hg  Hg7  1  0.84736100  0.15263900  0.84736100  1
  Hg  Hg8  1  0.84736100  0.84736100  0.84736100  1
  Hg  Hg9  1  0.00000000  0.34301700  0.34301700  1
  Hg  Hg10  1  0.00000000  0.65698300  0.34301700  1
  Hg  Hg11  1  0.00000000  0.34301700  0.65698300  1
  Hg  Hg12  1  0.34301700  0.34301700  0.00000000  1
  Hg  Hg13  1  0.65698300  0.34301700  0.00000000  1
  Hg  Hg14  1  0.65698300  0.00000000  0.34301700  1
  Hg  Hg15  1  0.34301700  0.00000000  0.34301700  1
  Hg  Hg16  1  0.65698300  0.65698300  0.00000000  1
  Hg  Hg17  1  0.34301700  0.00000000  0.65698300  1
  Hg  Hg18  1  0.65698300  0.00000000  0.65698300  1
  Hg  Hg19  1  0.34301700  0.65698300  0.00000000  1
  Hg  Hg20  1  0.00000000  0.65698300  0.65698300  1
  Hg  Hg21  1  0.50000000  0.26332100  0.26332100  1
  Hg  Hg22  1  0.50000000  0.73667900  0.26332100  1
  Hg  Hg23  1  0.50000000  0.26332100  0.73667900  1
  Hg  Hg24  1  0.26332100  0.26332100  0.50000000  1
  Hg  Hg25  1  0.73667900  0.26332100  0.50000000  1
  Hg  Hg26  1  0.73667900  0.50000000  0.26332100  1
  Hg  Hg27  1  0.26332100  0.50000000  0.26332100  1
  Hg  Hg28  1  0.73667900  0.73667900  0.50000000  1
  Hg  Hg29  1  0.26332100  0.50000000  0.73667900  1
  Hg  Hg30  1  0.73667900  0.50000000  0.73667900  1
  Hg  Hg31  1  0.26332100  0.73667900  0.50000000  1
  Hg  Hg32  1  0.50000000  0.73667900  0.73667900  1
loop_
_geom_bond_atom_site_label_1
_geom_bond_atom_site_label_2
_geom_bond_distance
_geom_bond_site_symmetry_2
Ca0 Hg22 3.723902 1_545
Ca0 Hg21 3.723902 1_555
Ca0 Hg32 3.723902 1_544
Ca0 Hg23 3.723902 1_554
Ca0 Hg14 3.772305 1_555
Ca0 Hg16 3.772305 1_545
Ca0 Hg17 3.772305 1_554
Ca0 Hg19 3.772305 1_545
Ca0 Hg15 3.772305 1_555
Ca0 Hg12 3.772305 1_555
Ca0 Hg13 3.772305 1_555
Ca0 Hg18 3.772305 1_554
Ca1 Hg28 3.723902 1_445
Ca1 Hg24 3.723902 1_555
Ca1 Hg25 3.723902 1_455
Ca1 Hg31 3.723902 1_545
Ca1 Hg18 3.772305 1_455
Ca1 Hg20 3.772305 1_545
Ca1 Hg10 3.772305 1_545
Ca1 Hg15 3.772305 1_555
Ca1 Hg11 3.772305 1_555
Ca1 Hg9 3.772305 1_555
Ca1 Hg14 3.772305 1_455
Ca1 Hg17 3.772305 1_555
Ca2 Hg27 3.723902 1_555
Ca2 Hg29 3.723902 1_554
Ca2 Hg30 3.723902 1_454
Ca2 Hg26 3.723902 1_455
Ca2 Hg11 3.772305 1_554
Ca2 Hg19 3.772305 1_555
Ca2 Hg9 3.772305 1_555
Ca2 Hg12 3.772305 1_555
Ca2 Hg20 3.772305 1_554
Ca2 Hg16 3.772305 1_455
Ca2 Hg10 3.772305 1_555
Ca2 Hg13 3.772305 1_455
Hg0 Hg21 3.347129 1_555
Hg0 Hg25 3.347129 1_555
Hg0 Hg27 3.347129 1_555
Hg0 Hg31 3.347129 1_555
Hg0 Hg28 3.347129 1_555
Hg0 Hg32 3.347129 1_555
Hg0 Hg29 3.347129 1_555
Hg0 Hg26 3.347129 1_555
Hg0 Hg22 3.347129 1_555
Hg0 Hg30 3.347129 1_555
Hg0 Hg23 3.347129 1_555
Hg0 Hg24 3.347129 1_555
Hg1 Hg4 3.052764 1_455
Hg1 Hg2 3.052764 1_545
Hg1 Hg3 3.052764 1_554
Hg1 Hg9 3.094919 1_555
Hg1 Hg12 3.094919 1_555
Hg1 Hg15 3.094919 1_555
Hg2 Hg5 3.052764 1_455
Hg2 Hg6 3.052764 1_554
Hg3 Hg7 3.052764 1_455
Hg3 Hg6 3.052764 1_545
Hg4 Hg5 3.052764 1_545
Hg4 Hg7 3.052764 1_554
Hg4 Hg9 3.094919 1_655
Hg5 Hg8 3.052764 1_554
Hg6 Hg8 3.052764 1_455
Hg7 Hg8 3.052764 1_545
Hg10 Hg5 3.094919 1_455
Hg10 Hg2 3.094919 1_555
Hg10 Hg9 3.139643 1_555
Hg10 Hg20 3.139643 1_555
Hg10 Hg26 3.167523 1_455
Hg10 Hg27 3.167523 1_555
Hg10 Hg31 3.167523 1_555
Hg10 Hg28 3.167523 1_455
Hg11 Hg3 3.094919 1_555
Hg11 Hg7 3.094919 1_455
Hg11 Hg9 3.139643 1_555
Hg11 Hg20 3.139643 1_555
Hg11 Hg30 3.167523 1_455
Hg11 Hg24 3.167523 1_555
Hg11 Hg29 3.167523 1_555
Hg11 Hg25 3.167523 1_455
Hg12 Hg3 3.094919 1_554
Hg12 Hg13 3.139643 1_555
Hg12 Hg19 3.139643 1_555
Hg12 Hg21 3.167523 1_555
Hg12 Hg27 3.167523 1_555
Hg12 Hg29 3.167523 1_554
Hg12 Hg23 3.167523 1_554
Hg13 Hg7 3.094919 1_554
Hg13 Hg4 3.094919 1_555
Hg13 Hg16 3.139643 1_555
Hg13 Hg21 3.167523 1_555
Hg13 Hg30 3.167523 1_554
Hg13 Hg26 3.167523 1_555
Hg13 Hg23 3.167523 1_554
Hg14 Hg5 3.094919 1_545
Hg14 Hg4 3.094919 1_555
Hg14 Hg18 3.139643 1_555
Hg14 Hg15 3.139643 1_555
Hg14 Hg28 3.167523 1_545
Hg14 Hg22 3.167523 1_545
Hg14 Hg21 3.167523 1_555
Hg14 Hg25 3.167523 1_555
Hg15 Hg2 3.094919 1_545
Hg15 Hg17 3.139643 1_555
Hg15 Hg31 3.167523 1_545
Hg15 Hg22 3.167523 1_545
Hg15 Hg21 3.167523 1_555
Hg15 Hg24 3.167523 1_555
Hg16 Hg5 3.094919 1_555
Hg16 Hg8 3.094919 1_554
Hg16 Hg19 3.139643 1_555
Hg16 Hg32 3.167523 1_554
Hg16 Hg30 3.167523 1_554
Hg16 Hg22 3.167523 1_555
Hg16 Hg26 3.167523 1_555
Hg17 Hg3 3.094919 1_555
Hg17 Hg6 3.094919 1_545
Hg17 Hg18 3.139643 1_555
Hg17 Hg31 3.167523 1_545
Hg17 Hg23 3.167523 1_555
Hg17 Hg24 3.167523 1_555
Hg17 Hg32 3.167523 1_545
Hg18 Hg8 3.094919 1_545
Hg18 Hg7 3.094919 1_555
Hg18 Hg28 3.167523 1_545
Hg18 Hg23 3.167523 1_555
Hg18 Hg32 3.167523 1_545
Hg18 Hg25 3.167523 1_555
Hg19 Hg6 3.094919 1_554
Hg19 Hg2 3.094919 1_555
Hg19 Hg32 3.167523 1_554
Hg19 Hg27 3.167523 1_555
Hg19 Hg22 3.167523 1_555
Hg19 Hg29 3.167523 1_554
Hg20 Hg6 3.094919 1_555
Hg20 Hg8 3.094919 1_455
Hg20 Hg28 3.167523 1_455
Hg20 Hg30 3.167523 1_455
Hg20 Hg31 3.167523 1_555
Hg20 Hg29 3.167523 1_555
Hg21 Hg25 3.347129 1_555
Hg21 Hg27 3.347129 1_555
Hg21 Hg26 3.347129 1_555
Hg21 Hg24 3.347129 1_555
Hg22 Hg27 3.347129 1_555
Hg22 Hg31 3.347129 1_555
Hg22 Hg28 3.347129 1_555
Hg22 Hg26 3.347129 1_555
Hg23 Hg25 3.347129 1_555
Hg23 Hg29 3.347129 1_555
Hg23 Hg30 3.347129 1_555
Hg23 Hg24 3.347129 1_555
Hg24 Hg9 3.167523 1_555
Hg24 Hg27 3.347129 1_555
Hg24 Hg29 3.347129 1_555
Hg25 Hg9 3.167523 1_655
Hg25 Hg26 3.347129 1_555
Hg25 Hg30 3.347129 1_555
Hg26 Hg9 3.167523 1_655
Hg26 Hg28 3.347129 1_555
Hg27 Hg9 3.167523 1_555
Hg27 Hg31 3.347129 1_555
Hg28 Hg32 3.347129 1_555
Hg28 Hg30 3.347129 1_555
Hg29 Hg31 3.347129 1_555
Hg29 Hg32 3.347129 1_555
Hg30 Hg32 3.347129 1_555
Hg31 Hg32 3.347129 1_555
