# generated using pymatgen
data_Ba2NiRhI
_symmetry_space_group_name_H-M   'P 1'
_cell_length_a   4.35552498
_cell_length_b   4.35552410
_cell_length_c   19.06899502
_cell_angle_alpha   90.00000000
_cell_angle_beta   90.00000000
_cell_angle_gamma   119.99999913
_symmetry_Int_Tables_number   1
_chemical_formula_structural   Ba2NiRhI
_chemical_formula_sum   'Ba4 Ni2 Rh2 I2'
_cell_volume   313.28483375
_cell_formula_units_Z   2
loop_
 _symmetry_equiv_pos_site_id
 _symmetry_equiv_pos_as_xyz
  1  'x, y, z'
loop_
 _atom_site_type_symbol
 _atom_site_label
 _atom_site_symmetry_multiplicity
 _atom_site_fract_x
 _atom_site_fract_y
 _atom_site_fract_z
 _atom_site_occupancy
  Ba  Ba0  1  0.00000000  0.00000000  0.60877467  1
  Ba  Ba1  1  0.00000000  0.00000000  0.39123053  1
  Ba  Ba2  1  0.00000000  0.00000000  0.10877467  1
  Ba  Ba3  1  0.00000000  0.00000000  0.89123053  1
  Ni  Ni0  1  0.66666700  0.33333300  0.99979170  1
  Ni  Ni1  1  0.33333300  0.66666700  0.49979170  1
  Rh  Rh0  1  0.66666700  0.33333300  0.50037262  1
  Rh  Rh1  1  0.33333300  0.66666700  0.00037262  1
  I  I0  1  0.66666700  0.33333300  0.24983148  1
  I  I1  1  0.33333300  0.66666700  0.74983148  1
loop_
_geom_bond_atom_site_label_1
_geom_bond_atom_site_label_2
_geom_bond_distance
_geom_bond_site_symmetry_2
Ba0 Rh0 3.255226 1_455
Ba0 Rh0 3.255229 1_445
Ba0 Rh0 3.255229 1_555
Ba0 Ni1 3.262272 1_545
Ba0 Ni1 3.262274 1_555
Ba0 Ni1 3.262275 1_445
Ba0 I1 3.682201 1_545
Ba0 I1 3.682203 1_555
Ba0 I1 3.682204 1_445
Ba1 Ni1 3.257154 1_545
Ba1 Ni1 3.257156 1_555
Ba1 Ni1 3.257157 1_445
Ba1 Rh0 3.264205 1_455
Ba1 Rh0 3.264208 1_445
Ba1 Rh0 3.264208 1_555
Ba1 I0 3.686971 1_455
Ba1 I0 3.686974 1_445
Ba1 I0 3.686974 1_555
Ba2 Rh1 3.255226 1_545
Ba2 Rh1 3.255229 1_555
Ba2 Rh1 3.255229 1_445
Ba2 Ni0 3.262272 1_454
Ba2 Ni0 3.262274 1_444
Ba2 Ni0 3.262275 1_554
Ba2 I0 3.682201 1_455
Ba2 I0 3.682203 1_445
Ba2 I0 3.682204 1_555
Ba3 Ni0 3.257154 1_455
Ba3 Ni0 3.257156 1_445
Ba3 Ni0 3.257157 1_555
Ba3 Rh1 3.264205 1_546
Ba3 Rh1 3.264208 1_556
Ba3 Rh1 3.264208 1_446
Ba3 I1 3.686971 1_545
Ba3 I1 3.686974 1_555
Ba3 I1 3.686974 1_445
Ni0 Rh1 2.514685 1_546
Ni0 Rh1 2.514685 1_656
Ni0 Rh1 2.514693 1_556
Ni1 Rh0 2.514685 1_565
Ni1 Rh0 2.514685 1_455
Ni1 Rh0 2.514693 1_555
