# generated using pymatgen
data_Cs2V5CoSe6
_symmetry_space_group_name_H-M   'P 1'
_cell_length_a   9.64983401
_cell_length_b   9.60623503
_cell_length_c   4.37178931
_cell_angle_alpha   90.00000000
_cell_angle_beta   90.00000000
_cell_angle_gamma   119.92002820
_symmetry_Int_Tables_number   1
_chemical_formula_structural   Cs2V5CoSe6
_chemical_formula_sum   'Cs2 V5 Co1 Se6'
_cell_volume   351.24675321
_cell_formula_units_Z   1
loop_
 _symmetry_equiv_pos_site_id
 _symmetry_equiv_pos_as_xyz
  1  'x, y, z'
loop_
 _atom_site_type_symbol
 _atom_site_label
 _atom_site_symmetry_multiplicity
 _atom_site_fract_x
 _atom_site_fract_y
 _atom_site_fract_z
 _atom_site_occupancy
  Cs  Cs0  1  0.32583946  0.66162528  0.25000000  1
  Cs  Cs1  1  0.67060264  0.33193254  0.75000000  1
  V  V0  1  0.15148818  0.16917718  0.25000000  1
  V  V1  1  0.85005108  0.82312012  0.75000000  1
  V  V2  1  0.80953316  0.97849130  0.25000000  1
  V  V3  1  0.02905204  0.87722493  0.25000000  1
  V  V4  1  0.97533737  0.12380596  0.75000000  1
  Co  Co0  1  0.17676078  0.02844568  0.75000000  1
  Se  Se0  1  0.95672876  0.27910180  0.25000000  1
  Se  Se1  1  0.05621640  0.74080419  0.75000000  1
  Se  Se2  1  0.72448031  0.67768453  0.25000000  1
  Se  Se3  1  0.33028574  0.04941420  0.25000000  1
  Se  Se4  1  0.66727529  0.94699557  0.75000000  1
  Se  Se5  1  0.27634780  0.31217772  0.75000000  1
loop_
_geom_bond_atom_site_label_1
_geom_bond_atom_site_label_2
_geom_bond_distance
_geom_bond_site_symmetry_2
Cs0 Se0 3.623921 1_455
Cs0 Se3 3.703977 1_565
Cs0 Se1 3.755037 1_554
Cs0 Se1 3.755037 1_555
Cs0 Se4 3.760113 1_554
Cs0 Se4 3.760113 1_555
Cs0 Se2 3.772240 1_555
Cs0 Se5 3.830864 1_554
Cs0 Se5 3.830864 1_555
Cs1 Se4 3.681885 1_545
Cs1 Se5 3.713483 1_555
Cs1 Se3 3.746630 1_555
Cs1 Se3 3.746630 1_556
Cs1 Se0 3.749276 1_555
Cs1 Se0 3.749276 1_556
Cs1 Se2 3.789107 1_556
Cs1 Se2 3.789107 1_555
Cs1 Se1 3.833210 1_655
V0 V3 2.440479 1_545
V0 V4 2.668040 1_455
V0 V4 2.668040 1_454
V1 V4 2.514195 1_565
V1 V3 2.671393 1_655
V1 V3 2.671393 1_656
V2 V4 2.656809 1_565
V2 V4 2.656809 1_564
V2 V3 2.736658 1_655
Co0 Se5 2.395712 1_555
Co0 Se1 2.404517 1_545
Co0 V4 2.528510 1_455
Co0 Se3 2.591492 1_555
Co0 Se3 2.591492 1_556
Co0 V3 2.618103 1_545
Co0 V3 2.618103 1_546
Co0 V0 2.644644 1_556
Co0 V0 2.644644 1_555
Co0 V1 2.761614 1_445
Se0 V2 2.502944 1_545
Se0 V0 2.574287 1_655
Se0 V4 2.702427 1_555
Se0 V4 2.702427 1_554
Se1 V1 2.480441 1_455
Se1 V3 2.628102 1_556
Se1 V3 2.628102 1_555
Se2 V1 2.551370 1_554
Se2 V1 2.551370 1_555
Se2 V2 2.580237 1_555
Se2 V3 2.586945 1_655
Se3 V0 2.506124 1_555
Se3 V3 2.527697 1_545
Se4 V2 2.517901 1_556
Se4 V2 2.517901 1_555
Se4 V1 2.573059 1_555
Se4 V4 2.585561 1_565
Se5 V0 2.542788 1_555
Se5 V0 2.542788 1_556
Se5 V4 2.543278 1_455
