# generated using pymatgen
data_Na2Al(SiPd2)3
_symmetry_space_group_name_H-M   'P 1'
_cell_length_a   6.69516049
_cell_length_b   6.64714914
_cell_length_c   6.69515940
_cell_angle_alpha   129.23163167
_cell_angle_beta   115.60626618
_cell_angle_gamma   86.52917866
_symmetry_Int_Tables_number   1
_chemical_formula_structural   Na2Al(SiPd2)3
_chemical_formula_sum   'Na2 Al1 Si3 Pd6'
_cell_volume   198.23730313
_cell_formula_units_Z   1
loop_
 _symmetry_equiv_pos_site_id
 _symmetry_equiv_pos_as_xyz
  1  'x, y, z'
loop_
 _atom_site_type_symbol
 _atom_site_label
 _atom_site_symmetry_multiplicity
 _atom_site_fract_x
 _atom_site_fract_y
 _atom_site_fract_z
 _atom_site_occupancy
  Na  Na0  1  0.00070595  0.98239924  0.98169329  1
  Na  Na1  1  0.50038942  0.05022731  0.54983788  1
  Al  Al0  1  0.35352912  0.41124486  0.05771574  1
  Si  Si0  1  0.80662385  0.23545954  0.42883569  1
  Si  Si1  1  0.64734711  0.70095713  0.05361003  1
  Si  Si2  1  0.19538844  0.62152616  0.42613772  1
  Pd  Pd0  1  0.94741520  0.50008115  0.95113847  1
  Pd  Pd1  1  0.54894168  0.50008115  0.55266595  1
  Pd  Pd2  1  0.04309631  0.99682234  0.54173433  1
  Pd  Pd3  1  0.79449847  0.49468939  0.28771495  1
  Pd  Pd4  1  0.20697444  0.49468939  0.70018992  1
  Pd  Pd5  1  0.45508900  0.99682234  0.95372702  1
loop_
_geom_bond_atom_site_label_1
_geom_bond_atom_site_label_2
_geom_bond_distance
_geom_bond_site_symmetry_2
Na0 Pd0 3.113463 1_455
Na0 Pd1 3.113467 1_455
Na0 Pd2 3.138373 1_555
Na0 Pd5 3.138377 1_555
Na0 Si2 3.151104 1_566
Na0 Pd3 3.154065 1_455
Na0 Pd4 3.154067 1_555
Na0 Si0 3.195020 1_466
Na0 Pd4 3.278756 1_566
Na0 Pd3 3.278761 1_466
Na1 Pd1 3.014689 1_555
Na1 Pd0 3.014690 1_555
Na1 Si2 3.038707 1_545
Na1 Si0 3.062535 1_555
Na1 Pd2 3.076739 1_545
Na1 Pd5 3.076742 1_545
Na1 Si1 3.191904 1_545
Na1 Si1 3.201062 1_556
Na1 Pd3 3.293269 1_556
Na1 Pd4 3.293269 1_555
Al0 Pd2 2.508385 1_544
Al0 Pd5 2.508389 1_544
Al0 Pd3 2.565842 1_555
Al0 Pd4 2.565847 1_554
Al0 Si2 2.622241 1_555
Al0 Pd1 2.629140 1_555
Al0 Pd0 2.629141 1_454
Al0 Si1 2.855067 1_555
Al0 Na1 3.141142 1_565
Al0 Na1 3.251214 1_554
Al0 Na0 3.450480 1_544
Si0 Si1 2.631446 1_545
Pd0 Si0 2.404575 1_555
Pd0 Si2 2.423397 1_656
Pd0 Si1 2.448978 1_556
Pd1 Si0 2.404581 1_555
Pd1 Si2 2.423392 1_555
Pd1 Si1 2.448976 1_556
Pd2 Si0 2.402563 1_465
Pd2 Si2 2.407036 1_555
Pd2 Si1 2.566104 1_455
Pd3 Si0 2.417566 1_555
Pd3 Si2 2.430897 1_655
Pd3 Si1 2.554835 1_555
Pd4 Si0 2.417567 1_455
Pd4 Si2 2.430890 1_555
Pd4 Si1 2.554836 1_556
Pd5 Si0 2.402556 1_566
Pd5 Si2 2.407040 1_555
Pd5 Si1 2.566098 1_556
