# generated using pymatgen
data_Ti3Pt5
_symmetry_space_group_name_H-M   'P 1'
_cell_length_a   5.45340013
_cell_length_b   7.38688792
_cell_length_c   7.38688773
_cell_angle_alpha   67.65194399
_cell_angle_beta   68.33822143
_cell_angle_gamma   68.33821103
_symmetry_Int_Tables_number   1
_chemical_formula_structural   Ti3Pt5
_chemical_formula_sum   'Ti6 Pt10'
_cell_volume   246.55876691
_cell_formula_units_Z   2
loop_
 _symmetry_equiv_pos_site_id
 _symmetry_equiv_pos_as_xyz
  1  'x, y, z'
loop_
 _atom_site_type_symbol
 _atom_site_label
 _atom_site_symmetry_multiplicity
 _atom_site_fract_x
 _atom_site_fract_y
 _atom_site_fract_z
 _atom_site_occupancy
  Ti  Ti0  1  0.14643976  0.64533954  0.64533954  1
  Ti  Ti1  1  0.43711783  0.85466046  0.85466046  1
  Ti  Ti2  1  0.85356024  0.35466046  0.35466046  1
  Ti  Ti3  1  0.56288217  0.14533954  0.14533954  1
  Ti  Ti4  1  -0.00000000  0.25000000  0.75000000  1
  Ti  Ti5  1  -0.00000000  0.75000000  0.25000000  1
  Pt  Pt0  1  0.10852909  0.10295973  0.10295973  1
  Pt  Pt1  1  0.31444556  0.39704027  0.39704027  1
  Pt  Pt2  1  0.89147091  0.89704027  0.89704027  1
  Pt  Pt3  1  0.68555544  0.60295973  0.60295973  1
  Pt  Pt4  1  0.75715340  0.49284660  0.99284660  1
  Pt  Pt5  1  0.24284660  0.00715340  0.50715340  1
  Pt  Pt6  1  0.24284660  0.50715340  0.00715340  1
  Pt  Pt7  1  0.75715340  0.99284660  0.49284660  1
  Pt  Pt8  1  0.50000000  0.75000000  0.25000000  1
  Pt  Pt9  1  0.50000000  0.25000000  0.75000000  1
loop_
_geom_bond_atom_site_label_1
_geom_bond_atom_site_label_2
_geom_bond_distance
_geom_bond_site_symmetry_2
Ti0 Ti5 3.051682 1_555
Ti0 Ti4 3.051683 1_555
Ti1 Ti4 3.051680 1_565
Ti1 Ti5 3.051680 1_556
Ti2 Ti4 3.051682 1_655
Ti2 Ti5 3.051683 1_655
Ti3 Ti5 3.051680 1_645
Ti3 Ti4 3.051680 1_654
Pt0 Ti4 2.615142 1_554
Pt0 Ti5 2.615142 1_545
Pt0 Ti3 2.748667 1_555
Pt0 Ti1 2.764919 1_544
Pt0 Ti2 2.767486 1_455
Pt0 Ti3 2.783791 1_455
Pt0 Pt4 2.814791 1_454
Pt0 Pt7 2.814792 1_445
Pt0 Pt8 2.825646 1_545
Pt0 Pt9 2.825646 1_554
Pt0 Pt5 3.094669 1_555
Pt0 Pt6 3.094669 1_555
Pt1 Ti5 2.615135 1_555
Pt1 Ti4 2.615135 1_555
Pt1 Ti2 2.748678 1_555
Pt1 Ti0 2.764923 1_555
Pt1 Ti3 2.767486 1_555
Pt1 Ti2 2.783781 1_455
Pt1 Pt6 2.814784 1_555
Pt1 Pt5 2.814785 1_555
Pt1 Pt9 2.825655 1_555
Pt1 Pt8 2.825655 1_555
Pt1 Pt7 3.094677 1_545
Pt1 Pt4 3.094677 1_554
Pt2 Ti5 2.615142 1_656
Pt2 Ti4 2.615142 1_665
Pt2 Ti1 2.748667 1_555
Pt2 Ti3 2.764919 1_566
Pt2 Ti0 2.767486 1_655
Pt2 Ti1 2.783791 1_655
Pt2 Pt6 2.814791 1_656
Pt2 Pt5 2.814792 1_665
Pt2 Pt9 2.825646 1_565
Pt2 Pt8 2.825646 1_556
Pt2 Pt7 3.094669 1_555
Pt2 Pt4 3.094669 1_555
Pt3 Ti4 2.615133 1_655
Pt3 Ti5 2.615133 1_655
Pt3 Ti0 2.748683 1_555
Pt3 Ti2 2.764923 1_555
Pt3 Ti1 2.767486 1_555
Pt3 Ti0 2.783775 1_655
Pt3 Pt4 2.814782 1_555
Pt3 Pt7 2.814782 1_555
Pt3 Pt8 2.825658 1_555
Pt3 Pt9 2.825658 1_555
Pt3 Pt5 3.094680 1_565
Pt3 Pt6 3.094680 1_556
Pt4 Ti2 2.651049 1_556
Pt4 Ti1 2.651051 1_555
Pt4 Ti4 2.670079 1_655
Pt4 Pt6 2.731234 1_656
Pt4 Pt6 2.731234 1_556
Pt4 Ti3 2.812209 1_556
Pt4 Ti0 2.812212 1_655
Pt4 Pt8 2.827381 1_556
Pt5 Ti0 2.651049 1_545
Pt5 Ti3 2.651052 1_555
Pt5 Ti4 2.670079 1_555
Pt5 Pt7 2.731234 1_445
Pt5 Pt7 2.731234 1_545
Pt5 Ti1 2.812208 1_545
Pt5 Ti2 2.812212 1_455
Pt5 Pt8 2.827381 1_545
Pt6 Ti0 2.651049 1_554
Pt6 Ti3 2.651051 1_555
Pt6 Ti5 2.670079 1_555
Pt6 Ti1 2.812209 1_554
Pt6 Ti2 2.812212 1_455
Pt6 Pt9 2.827381 1_554
Pt7 Ti2 2.651049 1_565
Pt7 Ti1 2.651052 1_555
Pt7 Ti5 2.670079 1_655
Pt7 Ti3 2.812208 1_565
Pt7 Ti0 2.812212 1_655
Pt7 Pt9 2.827381 1_565
Pt8 Ti5 2.726700 1_555
Pt8 Ti5 2.726700 1_655
Pt8 Ti2 2.840822 1_555
Pt8 Ti0 2.840822 1_555
Pt8 Ti1 2.840824 1_554
Pt8 Ti3 2.840824 1_565
Pt9 Ti4 2.726700 1_655
Pt9 Ti4 2.726700 1_555
Pt9 Ti0 2.840822 1_555
Pt9 Ti2 2.840822 1_555
Pt9 Ti3 2.840824 1_556
Pt9 Ti1 2.840824 1_545
