# generated using pymatgen
data_Ga2Ni4Mo6C
_symmetry_space_group_name_H-M   'P 1'
_cell_length_a   7.75653008
_cell_length_b   7.75644018
_cell_length_c   7.75644009
_cell_angle_alpha   60.00211714
_cell_angle_beta   60.00248091
_cell_angle_gamma   60.00248054
_symmetry_Int_Tables_number   1
_chemical_formula_structural   Ga2Ni4Mo6C
_chemical_formula_sum   'Ga4 Ni8 Mo12 C2'
_cell_volume   329.98986801
_cell_formula_units_Z   2
loop_
 _symmetry_equiv_pos_site_id
 _symmetry_equiv_pos_as_xyz
  1  'x, y, z'
loop_
 _atom_site_type_symbol
 _atom_site_label
 _atom_site_symmetry_multiplicity
 _atom_site_fract_x
 _atom_site_fract_y
 _atom_site_fract_z
 _atom_site_occupancy
  Ga  Ga0  1  0.12500000  0.62500000  0.12500000  1
  Ga  Ga1  1  0.12500000  0.12500000  0.62500000  1
  Ga  Ga2  1  0.62500000  0.12500000  0.12500000  1
  Ga  Ga3  1  0.12500000  0.12500000  0.12500000  1
  Ni  Ni0  1  0.33363491  0.33374740  0.99883037  1
  Ni  Ni1  1  0.33364769  0.33376207  0.33376207  1
  Ni  Ni2  1  0.25113350  0.91630203  0.91630203  1
  Ni  Ni3  1  0.91635231  0.91623793  0.91623793  1
  Ni  Ni4  1  0.99886650  0.33369797  0.33369797  1
  Ni  Ni5  1  0.33363491  0.99883037  0.33374740  1
  Ni  Ni6  1  0.91636509  0.91625260  0.25116963  1
  Ni  Ni7  1  0.91636509  0.25116963  0.91625260  1
  Mo  Mo0  1  0.30518553  0.69481258  0.69481258  1
  Mo  Mo1  1  0.69481652  0.69481737  0.30518484  1
  Mo  Mo2  1  0.69481652  0.30518484  0.69481737  1
  Mo  Mo3  1  0.30518586  0.69480750  0.30519543  1
  Mo  Mo4  1  0.55518348  0.94481516  0.55518263  1
  Mo  Mo5  1  0.55518722  0.94481625  0.94481625  1
  Mo  Mo6  1  0.94481447  0.55518742  0.55518742  1
  Mo  Mo7  1  0.94481414  0.55519250  0.94480457  1
  Mo  Mo8  1  0.30518586  0.30519543  0.69480750  1
  Mo  Mo9  1  0.55518348  0.55518263  0.94481516  1
  Mo  Mo10  1  0.94481414  0.94480457  0.55519250  1
  Mo  Mo11  1  0.69481278  0.30518375  0.30518375  1
  C  C0  1  0.49999617  0.50000050  0.50000050  1
  C  C1  1  0.75000383  0.74999950  0.74999950  1
loop_
_geom_bond_atom_site_label_1
_geom_bond_atom_site_label_2
_geom_bond_distance
_geom_bond_site_symmetry_2
Ga0 Ni1 2.377234 1_555
Ga0 Ni3 2.377234 1_454
Ga0 Ni6 2.377294 1_455
Ga0 Ni0 2.377294 1_554
Ga0 Ni2 2.377447 1_554
Ga0 Ni4 2.377447 1_455
Ga0 Mo3 2.768881 1_555
Ga0 Mo7 2.768881 1_454
Ga0 Mo6 2.768971 1_455
Ga0 Mo0 2.768971 1_554
Ga0 Mo9 2.768977 1_554
Ga0 Mo1 2.768977 1_455
Ga1 Ni1 2.377234 1_555
Ga1 Ni3 2.377234 1_445
Ga1 Ni7 2.377294 1_455
Ga1 Ni5 2.377294 1_545
Ga1 Ni2 2.377447 1_545
Ga1 Ni4 2.377447 1_455
Ga1 Mo8 2.768881 1_555
Ga1 Mo10 2.768881 1_445
Ga1 Mo6 2.768971 1_455
Ga1 Mo0 2.768971 1_545
Ga1 Mo4 2.768977 1_545
Ga1 Mo2 2.768977 1_455
Ga2 Ni1 2.377969 1_555
Ga2 Ni3 2.377969 1_544
Ga2 Ni6 2.378019 1_545
Ga2 Ni0 2.378019 1_554
Ga2 Ni7 2.378019 1_554
Ga2 Ni5 2.378019 1_545
Ga2 Mo11 2.768811 1_555
Ga2 Mo5 2.768811 1_544
Ga2 Mo4 2.768928 1_545
Ga2 Mo2 2.768928 1_554
Ga2 Mo9 2.768928 1_554
Ga2 Mo1 2.768928 1_545
Ga3 Ni5 2.377009 1_545
Ga3 Ni7 2.377009 1_454
Ga3 Ni0 2.377009 1_554
Ga3 Ni6 2.377009 1_445
Ga3 Ni4 2.377162 1_455
Ga3 Ni2 2.377162 1_544
Ga3 Mo5 2.769018 1_544
Ga3 Mo11 2.769018 1_455
Ga3 Mo10 2.769026 1_445
Ga3 Mo8 2.769026 1_554
Ga3 Mo7 2.769026 1_454
Ga3 Mo3 2.769026 1_545
Ni0 Ni4 2.597108 1_456
Ni0 Ni5 2.597847 1_546
Ni0 Ni1 2.597984 1_556
Ni1 Ni4 2.597238 1_455
Ni1 Ni5 2.597984 1_545
Ni2 Ni6 2.597108 1_456
Ni2 Ni7 2.597108 1_465
Ni2 Ni3 2.597238 1_455
Ni3 Ni6 2.597984 1_556
Ni3 Ni7 2.597984 1_565
Ni4 Ni5 2.597108 1_645
Ni6 Ni7 2.597847 1_564
Mo0 Ni5 2.598329 1_555
Mo0 Ni0 2.598329 1_555
Mo0 Ni3 2.754301 1_455
Mo0 Ni2 2.754889 1_555
Mo1 Ni4 2.598700 1_555
Mo1 Ni5 2.598873 1_555
Mo1 Ni3 2.755010 1_554
Mo1 Ni6 2.755069 1_555
Mo2 Ni4 2.598700 1_555
Mo2 Ni0 2.598873 1_555
Mo2 Ni3 2.755010 1_545
Mo2 Ni7 2.755069 1_555
Mo3 Ni5 2.598063 1_555
Mo3 Ni1 2.598169 1_555
Mo3 Ni6 2.754212 1_455
Mo3 Ni2 2.754739 1_554
Mo4 Ni2 2.598700 1_555
Mo4 Ni6 2.598873 1_555
Mo4 Ni1 2.755010 1_565
Mo4 Ni5 2.755069 1_555
Mo5 Ni2 2.598449 1_555
Mo5 Ni3 2.598716 1_555
Mo5 Ni5 2.754887 1_556
Mo5 Ni0 2.754887 1_565
Mo6 Ni7 2.598329 1_555
Mo6 Ni6 2.598329 1_555
Mo6 Ni1 2.754301 1_655
Mo6 Ni4 2.754889 1_555
Mo7 Ni7 2.598063 1_555
Mo7 Ni3 2.598169 1_555
Mo7 Ni0 2.754212 1_655
Mo7 Ni4 2.754739 1_556
Mo8 Ni0 2.598063 1_555
Mo8 Ni1 2.598169 1_555
Mo8 Ni7 2.754212 1_455
Mo8 Ni2 2.754739 1_545
Mo9 Ni2 2.598700 1_555
Mo9 Ni7 2.598873 1_555
Mo9 Ni1 2.755010 1_556
Mo9 Ni0 2.755069 1_555
Mo10 Ni6 2.598063 1_555
Mo10 Ni3 2.598169 1_555
Mo10 Ni5 2.754212 1_655
Mo10 Ni4 2.754739 1_565
Mo11 Ni4 2.598449 1_555
Mo11 Ni1 2.598716 1_555
Mo11 Ni7 2.754887 1_554
Mo11 Ni6 2.754887 1_545
C0 Mo3 2.136943 1_555
C0 Mo8 2.136943 1_555
C0 Mo0 2.136991 1_555
C0 Mo11 2.137042 1_555
C0 Mo2 2.137063 1_555
C0 Mo1 2.137063 1_555
C1 Mo7 2.136943 1_555
C1 Mo10 2.136943 1_555
C1 Mo6 2.136991 1_555
C1 Mo5 2.137042 1_555
C1 Mo4 2.137063 1_555
C1 Mo9 2.137063 1_555
