# generated using pymatgen
data_BaCaNbN3
_symmetry_space_group_name_H-M   'P 1'
_cell_length_a   6.32522785
_cell_length_b   6.61305815
_cell_length_c   12.84492822
_cell_angle_alpha   90.05172878
_cell_angle_beta   89.45198567
_cell_angle_gamma   124.13257536
_symmetry_Int_Tables_number   1
_chemical_formula_structural   BaCaNbN3
_chemical_formula_sum   'Ba4 Ca4 Nb4 N12'
_cell_volume   444.71186854
_cell_formula_units_Z   4
loop_
 _symmetry_equiv_pos_site_id
 _symmetry_equiv_pos_as_xyz
  1  'x, y, z'
loop_
 _atom_site_type_symbol
 _atom_site_label
 _atom_site_symmetry_multiplicity
 _atom_site_fract_x
 _atom_site_fract_y
 _atom_site_fract_z
 _atom_site_occupancy
  Ba  Ba0  1  0.00909807  0.42299637  0.85616210  1
  Ba  Ba1  1  0.51093283  0.91651695  0.63473414  1
  Ba  Ba2  1  0.51429947  0.08959957  0.35784835  1
  Ba  Ba3  1  0.66194452  0.90526380  0.07869577  1
  Ca  Ca0  1  0.97857636  0.61608780  0.11744303  1
  Ca  Ca1  1  0.20247693  0.41970998  0.43719959  1
  Ca  Ca2  1  0.30336069  0.07592392  0.92721449  1
  Ca  Ca3  1  0.82158188  0.58434354  0.56657381  1
  Nb  Nb0  1  0.83115827  0.77911034  0.34082184  1
  Nb  Nb1  1  0.28302594  0.28056458  0.16962128  1
  Nb  Nb2  1  0.19882980  0.21276312  0.66321672  1
  Nb  Nb3  1  0.69410874  0.71588387  0.83077174  1
  N  N0  1  0.41803421  0.37492460  0.78993874  1
  N  N1  1  0.61812258  0.56586526  0.22096999  1
  N  N2  1  0.93440665  0.86689260  0.70881466  1
  N  N3  1  0.04480185  0.12932099  0.29173951  1
  N  N4  1  0.03637178  0.37477459  0.62237123  1
  N  N5  1  0.54406568  0.89560394  0.86490707  1
  N  N6  1  0.02151293  0.65496926  0.39365313  1
  N  N7  1  0.33490167  0.03885691  0.11394104  1
  N  N8  1  0.87564427  0.71140412  0.94929762  1
  N  N9  1  0.62666836  0.76856705  0.45334249  1
  N  N10  1  0.14147861  0.37699754  0.06393250  1
  N  N11  1  0.39459890  0.22305834  0.54679016  1
loop_
_geom_bond_atom_site_label_1
_geom_bond_atom_site_label_2
_geom_bond_distance
_geom_bond_site_symmetry_2
Ba0 N8 2.750392 1_455
Ba0 N10 2.871619 1_556
Ba0 N0 2.897486 1_555
Ba0 N4 3.033104 1_555
Ba0 N5 3.051285 1_445
Ba0 N5 3.060902 1_555
Ba1 N11 2.760615 1_565
Ba1 N9 2.772893 1_555
Ba1 N5 2.974791 1_555
Ba1 N4 2.990445 1_665
Ba1 N2 3.037049 1_555
Ba1 N4 3.132128 1_555
Ba2 N11 2.820127 1_555
Ba2 N6 2.847702 1_545
Ba2 N9 2.869089 1_545
Ba2 N3 3.245479 1_555
Ba2 N7 3.294621 1_555
Ba2 N3 3.317607 1_655
Ba2 N6 3.323728 1_655
Ba2 N1 3.333031 1_555
Ba3 N7 2.701280 1_565
Ba3 N1 2.784557 1_555
Ba3 N5 2.843674 1_554
Ba3 N8 2.851507 1_554
Ba3 N10 2.887782 1_665
Ba3 N10 3.190978 1_555
Ba3 N3 3.411921 1_665
Ca0 N7 2.413538 1_665
Ca0 N10 2.418028 1_655
Ca0 N8 2.444569 1_554
Ca0 N1 2.483923 1_555
Ca1 N9 2.372267 1_555
Ca1 N3 2.460348 1_555
Ca1 N6 2.460856 1_555
Ca1 N4 2.540200 1_555
Ca1 N11 2.638004 1_555
Ca2 N8 2.424558 1_445
Ca2 N0 2.432572 1_555
Ca2 N7 2.432639 1_556
Ca2 N5 2.528432 1_545
Ca3 N11 2.416135 1_555
Ca3 N2 2.420987 1_555
Ca3 N6 2.456871 1_655
Ca3 N4 2.532501 1_655
Ca3 N9 2.615848 1_555
N0 Nb3 2.001315 1_555
N0 Nb2 2.023209 1_555
N1 Nb1 2.005989 1_555
N1 Nb0 2.019336 1_555
N2 Nb3 2.003847 1_555
N2 Nb2 2.015587 1_665
N3 Nb1 1.999427 1_555
N3 Nb0 2.015308 1_445
N4 Nb2 1.930260 1_555
N5 Nb3 1.939691 1_555
N6 Nb0 1.926158 1_455
N7 Nb1 1.938090 1_555
N8 Nb3 1.925859 1_555
N9 Nb0 1.905263 1_555
N10 Nb1 1.927905 1_555
N11 Nb2 1.909090 1_555
