# generated using pymatgen
data_Rb2AlGaO4
_symmetry_space_group_name_H-M   'P 1'
_cell_length_a   5.67075913
_cell_length_b   5.67075820
_cell_length_c   8.04969325
_cell_angle_alpha   90.00000000
_cell_angle_beta   90.00000000
_cell_angle_gamma   90.08099459
_symmetry_Int_Tables_number   1
_chemical_formula_structural   Rb2AlGaO4
_chemical_formula_sum   'Rb4 Al2 Ga2 O8'
_cell_volume   258.85778288
_cell_formula_units_Z   2
loop_
 _symmetry_equiv_pos_site_id
 _symmetry_equiv_pos_as_xyz
  1  'x, y, z'
loop_
 _atom_site_type_symbol
 _atom_site_label
 _atom_site_symmetry_multiplicity
 _atom_site_fract_x
 _atom_site_fract_y
 _atom_site_fract_z
 _atom_site_occupancy
  Rb  Rb0  1  0.26960060  0.73039940  0.50000000  1
  Rb  Rb1  1  0.73039940  0.26960060  0.00000000  1
  Rb  Rb2  1  0.23102829  0.23102829  0.75000000  1
  Rb  Rb3  1  0.76897171  0.76897171  0.25000000  1
  Al  Al0  1  0.28087898  0.71912102  0.00000000  1
  Al  Al1  1  0.71912102  0.28087998  0.50000000  1
  Ga  Ga0  1  0.78073213  0.78073313  0.75000000  1
  Ga  Ga1  1  0.21926887  0.21926787  0.25000000  1
  O  O0  1  0.24557928  0.91824533  0.16482727  1
  O  O1  1  0.08175767  0.75441972  0.83517273  1
  O  O2  1  0.75442072  0.08175667  0.66482727  1
  O  O3  1  0.91824533  0.24558028  0.33517273  1
  O  O4  1  0.25205404  0.43065378  0.07870860  1
  O  O5  1  0.56934322  0.74794396  0.92129340  1
  O  O6  1  0.43065378  0.25205404  0.42129140  1
  O  O7  1  0.74794396  0.56934322  0.57870660  1
loop_
_geom_bond_atom_site_label_1
_geom_bond_atom_site_label_2
_geom_bond_distance
_geom_bond_site_symmetry_2
Al0 O1 1.753896 1_554
Al0 O0 1.753908 1_555
Al0 O5 1.761602 1_554
Al0 O4 1.761624 1_555
Al1 O2 1.753904 1_555
Al1 O3 1.753908 1_555
Al1 O7 1.761596 1_555
Al1 O6 1.761625 1_555
Ga0 O5 1.836345 1_555
Ga0 O7 1.836348 1_555
Ga0 O2 1.845808 1_565
Ga0 O1 1.845820 1_655
Ga1 O6 1.836316 1_555
Ga1 O4 1.836319 1_555
Ga1 O0 1.845802 1_545
Ga1 O3 1.845809 1_455
O0 Rb0 2.903978 1_555
O0 Rb3 2.912882 1_455
O0 Rb3 3.162742 1_555
O1 Rb0 2.903971 1_555
O1 Rb2 2.912882 1_565
O1 Rb2 3.162732 1_555
O2 Rb1 2.903973 1_556
O2 Rb2 2.912879 1_655
O2 Rb2 3.162739 1_555
O3 Rb1 2.903977 1_555
O3 Rb3 2.912887 1_545
O3 Rb3 3.162737 1_555
O4 Rb2 2.880392 1_554
O4 Rb1 2.932683 1_555
O4 Rb1 3.158909 1_455
O5 Rb3 2.880384 1_556
O5 Rb1 2.932674 1_556
O5 Rb1 3.158921 1_566
O6 Rb2 2.880392 1_555
O6 Rb0 2.932683 1_555
O6 Rb0 3.158909 1_545
O7 Rb3 2.880384 1_555
O7 Rb0 2.932675 1_555
O7 Rb0 3.158921 1_655
