# generated using pymatgen
data_HoAu4
_symmetry_space_group_name_H-M   'P 1'
_cell_length_a   4.17383820
_cell_length_b   5.20061120
_cell_length_c   5.19879848
_cell_angle_alpha   80.87295208
_cell_angle_beta   66.32714054
_cell_angle_gamma   66.44014729
_symmetry_Int_Tables_number   1
_chemical_formula_structural   HoAu4
_chemical_formula_sum   'Ho1 Au4'
_cell_volume   94.73661670
_cell_formula_units_Z   1
loop_
 _symmetry_equiv_pos_site_id
 _symmetry_equiv_pos_as_xyz
  1  'x, y, z'
loop_
 _atom_site_type_symbol
 _atom_site_label
 _atom_site_symmetry_multiplicity
 _atom_site_fract_x
 _atom_site_fract_y
 _atom_site_fract_z
 _atom_site_occupancy
  Ho  Ho0  1  -0.00000000  -0.00000000  0.00000000  1
  Au  Au0  1  0.59911600  0.59911639  0.20119986  1
  Au  Au1  1  0.40088400  0.40088361  0.79880014  1
  Au  Au2  1  0.80163034  0.79826874  0.59873919  1
  Au  Au3  1  0.19836966  0.20173126  0.40126081  1
loop_
_geom_bond_atom_site_label_1
_geom_bond_atom_site_label_2
_geom_bond_distance
_geom_bond_site_symmetry_2
Au0 Au2 2.970250 1_455
Au0 Au3 2.972374 1_555
Au0 Au2 2.973263 1_555
Au0 Au1 2.979914 1_554
Au0 Au3 2.980537 1_655
Au0 Ho0 2.988602 1_665
Au0 Ho0 2.989094 1_565
Au0 Au1 2.990393 1_654
Au0 Au1 3.000196 1_555
Au0 Ho0 3.010425 1_655
Au0 Au2 3.023542 1_554
Au0 Au3 3.024531 1_565
Au1 Au3 2.970250 1_655
Au1 Au2 2.972374 1_555
Au1 Au3 2.973263 1_555
Au1 Au2 2.980537 1_455
Au1 Ho0 2.988602 1_556
Au1 Ho0 2.989094 1_656
Au1 Ho0 3.010425 1_566
Au1 Au3 3.023542 1_556
Au1 Au2 3.024531 1_545
Au2 Ho0 2.985564 1_666
Au2 Au3 2.987936 1_665
Au2 Ho0 2.988394 1_566
Au2 Au3 2.993189 1_655
Au2 Au3 2.994247 1_565
Au2 Ho0 3.010655 1_665
Au3 Ho0 2.985564 1_555
Au3 Ho0 2.988394 1_655
Au3 Ho0 3.010655 1_556
