# generated using pymatgen
data_Ta3Ga3Ir2Ru
_symmetry_space_group_name_H-M   'P 1'
_cell_length_a   14.80479799
_cell_length_b   14.80479726
_cell_length_c   5.83558332
_cell_angle_alpha   90.00000000
_cell_angle_beta   90.00000000
_cell_angle_gamma   120.00000600
_symmetry_Int_Tables_number   1
_chemical_formula_structural   Ta3Ga3Ir2Ru
_chemical_formula_sum   'Ta24 Ga24 Ir16 Ru8'
_cell_volume   1107.69406807
_cell_formula_units_Z   8
loop_
 _symmetry_equiv_pos_site_id
 _symmetry_equiv_pos_as_xyz
  1  'x, y, z'
loop_
 _atom_site_type_symbol
 _atom_site_label
 _atom_site_symmetry_multiplicity
 _atom_site_fract_x
 _atom_site_fract_y
 _atom_site_fract_z
 _atom_site_occupancy
  Ta  Ta0_0  1  0.18219432  0.50000000  0.25000050  1
  Ta  Ta0_1  1  0.18219432  0.50000000  0.75000050  1
  Ta  Ta0_2  1  0.18219432  1.00000000  0.25000050  1
  Ta  Ta0_3  1  0.18219432  1.00000000  0.75000050  1
  Ta  Ta0_4  1  0.68219432  0.50000000  0.25000050  1
  Ta  Ta0_5  1  0.68219432  0.50000000  0.75000050  1
  Ta  Ta0_6  1  0.68219432  1.00000000  0.25000050  1
  Ta  Ta0_7  1  0.68219432  1.00000000  0.75000050  1
  Ta  Ta1_0  1  0.50000000  0.18219432  0.25000050  1
  Ta  Ta1_1  1  0.50000000  0.18219432  0.75000050  1
  Ta  Ta1_2  1  0.50000000  0.68219432  0.25000050  1
  Ta  Ta1_3  1  0.50000000  0.68219432  0.75000050  1
  Ta  Ta1_4  1  1.00000000  0.18219432  0.25000050  1
  Ta  Ta1_5  1  1.00000000  0.18219432  0.75000050  1
  Ta  Ta1_6  1  1.00000000  0.68219432  0.25000050  1
  Ta  Ta1_7  1  1.00000000  0.68219432  0.75000050  1
  Ta  Ta2_0  1  0.31780568  0.31780618  0.25000050  1
  Ta  Ta2_1  1  0.31780568  0.31780618  0.75000050  1
  Ta  Ta2_2  1  0.31780568  0.81780618  0.25000050  1
  Ta  Ta2_3  1  0.31780568  0.81780618  0.75000050  1
  Ta  Ta2_4  1  0.81780568  0.31780618  0.25000050  1
  Ta  Ta2_5  1  0.81780568  0.31780618  0.75000050  1
  Ta  Ta2_6  1  0.81780568  0.81780618  0.25000050  1
  Ta  Ta2_7  1  0.81780568  0.81780618  0.75000050  1
  Ga  Ga0_0  1  0.35356900  0.00000000  0.00000000  1
  Ga  Ga0_1  1  0.35356900  0.00000000  0.50000000  1
  Ga  Ga0_2  1  0.35356900  0.50000000  0.00000000  1
  Ga  Ga0_3  1  0.35356900  0.50000000  0.50000000  1
  Ga  Ga0_4  1  0.85356900  0.00000000  0.00000000  1
  Ga  Ga0_5  1  0.85356900  0.00000000  0.50000000  1
  Ga  Ga0_6  1  0.85356900  0.50000000  0.00000000  1
  Ga  Ga0_7  1  0.85356900  0.50000000  0.50000000  1
  Ga  Ga1_0  1  0.14643100  0.14643150  0.00000000  1
  Ga  Ga1_1  1  0.14643100  0.14643150  0.50000000  1
  Ga  Ga1_2  1  0.14643100  0.64643150  0.00000000  1
  Ga  Ga1_3  1  0.14643100  0.64643150  0.50000000  1
  Ga  Ga1_4  1  0.64643100  0.14643150  0.00000000  1
  Ga  Ga1_5  1  0.64643100  0.14643150  0.50000000  1
  Ga  Ga1_6  1  0.64643100  0.64643150  0.00000000  1
  Ga  Ga1_7  1  0.64643100  0.64643150  0.50000000  1
  Ga  Ga2_0  1  0.00000000  0.35356900  0.00000000  1
  Ga  Ga2_1  1  0.00000000  0.35356900  0.50000000  1
  Ga  Ga2_2  1  0.00000000  0.85356900  0.00000000  1
  Ga  Ga2_3  1  0.00000000  0.85356900  0.50000000  1
  Ga  Ga2_4  1  0.50000000  0.35356900  0.00000000  1
  Ga  Ga2_5  1  0.50000000  0.35356900  0.50000000  1
  Ga  Ga2_6  1  0.50000000  0.85356900  0.00000000  1
  Ga  Ga2_7  1  0.50000000  0.85356900  0.50000000  1
  Ir  Ir0_0  1  0.33333350  0.16666700  0.00000000  1
  Ir  Ir0_1  1  0.33333350  0.16666700  0.50000000  1
  Ir  Ir0_2  1  0.33333350  0.66666700  0.00000000  1
  Ir  Ir0_3  1  0.33333350  0.66666700  0.50000000  1
  Ir  Ir0_4  1  0.83333350  0.16666700  0.00000000  1
  Ir  Ir0_5  1  0.83333350  0.16666700  0.50000000  1
  Ir  Ir0_6  1  0.83333350  0.66666700  0.00000000  1
  Ir  Ir0_7  1  0.83333350  0.66666700  0.50000000  1
  Ir  Ir1_0  1  0.16666700  0.33333350  0.00000000  1
  Ir  Ir1_1  1  0.16666700  0.33333350  0.50000000  1
  Ir  Ir1_2  1  0.16666700  0.83333350  0.00000000  1
  Ir  Ir1_3  1  0.16666700  0.83333350  0.50000000  1
  Ir  Ir1_4  1  0.66666700  0.33333350  0.00000000  1
  Ir  Ir1_5  1  0.66666700  0.33333350  0.50000000  1
  Ir  Ir1_6  1  0.66666700  0.83333350  0.00000000  1
  Ir  Ir1_7  1  0.66666700  0.83333350  0.50000000  1
  Ru  Ru0_0  1  0.00000000  0.00000000  0.25000050  1
  Ru  Ru0_1  1  0.00000000  0.00000000  0.75000050  1
  Ru  Ru0_2  1  0.00000000  0.50000000  0.25000050  1
  Ru  Ru0_3  1  0.00000000  0.50000000  0.75000050  1
  Ru  Ru0_4  1  0.50000000  0.00000000  0.25000050  1
  Ru  Ru0_5  1  0.50000000  0.00000000  0.75000050  1
  Ru  Ru0_6  1  0.50000000  0.50000000  0.25000050  1
  Ru  Ru0_7  1  0.50000000  0.50000000  0.75000050  1
loop_
_geom_bond_atom_site_label_1
_geom_bond_atom_site_label_2
_geom_bond_distance
_geom_bond_site_symmetry_2
Ta0_0 Ta0_1 2.917792 1_555
Ta0_0 Ta0_1 2.917792 1_554
Ta0_2 Ta0_3 2.917792 1_554
Ta0_2 Ta0_3 2.917792 1_555
Ta0_4 Ta0_5 2.917792 1_555
Ta0_4 Ta0_5 2.917792 1_554
Ta0_6 Ta0_7 2.917792 1_555
Ta0_6 Ta0_7 2.917792 1_554
Ta1_0 Ta1_1 2.917792 1_555
Ta1_0 Ta1_1 2.917792 1_554
Ta1_2 Ta1_3 2.917792 1_554
Ta1_2 Ta1_3 2.917792 1_555
Ta1_4 Ta1_5 2.917792 1_555
Ta1_4 Ta1_5 2.917792 1_554
Ta1_6 Ta1_7 2.917792 1_554
Ta1_6 Ta1_7 2.917792 1_555
Ta2_0 Ta2_1 2.917792 1_555
Ta2_0 Ta2_1 2.917792 1_554
Ta2_2 Ta2_3 2.917792 1_555
Ta2_2 Ta2_3 2.917792 1_554
Ta2_4 Ta2_5 2.917792 1_554
Ta2_4 Ta2_5 2.917792 1_555
Ta2_6 Ta2_7 2.917792 1_555
Ta2_6 Ta2_7 2.917792 1_554
Ga0_0 Ru0_5 2.613059 1_554
Ga0_0 Ru0_4 2.613062 1_555
Ga0_0 Ir1_2 2.630083 1_545
Ga0_0 Ir0_0 2.630090 1_555
Ga0_0 Ta2_3 2.873361 1_544
Ga0_0 Ta2_2 2.873364 1_545
Ga0_0 Ta1_1 2.873367 1_554
Ga0_0 Ta1_0 2.873370 1_555
Ga0_0 Ga0_1 2.917792 1_554
Ga0_0 Ga0_1 2.917792 1_555
Ga0_0 Ta0_3 2.926702 1_544
Ga0_0 Ta0_2 2.926705 1_545
Ga0_1 Ru0_4 2.613059 1_555
Ga0_1 Ru0_5 2.613062 1_555
Ga0_1 Ir1_3 2.630083 1_545
Ga0_1 Ir0_1 2.630090 1_555
Ga0_1 Ta2_2 2.873361 1_545
Ga0_1 Ta2_3 2.873364 1_545
Ga0_1 Ta1_0 2.873367 1_555
Ga0_1 Ta1_1 2.873370 1_555
Ga0_1 Ta0_2 2.926702 1_545
Ga0_1 Ta0_3 2.926705 1_545
Ga0_2 Ru0_7 2.613059 1_554
Ga0_2 Ru0_6 2.613062 1_555
Ga0_2 Ir1_0 2.630083 1_555
Ga0_2 Ir0_2 2.630090 1_555
Ga0_2 Ta2_1 2.873361 1_554
Ga0_2 Ta2_0 2.873364 1_555
Ga0_2 Ta1_3 2.873367 1_554
Ga0_2 Ta1_2 2.873370 1_555
Ga0_2 Ga0_3 2.917792 1_555
Ga0_2 Ga0_3 2.917792 1_554
Ga0_2 Ta0_1 2.926702 1_554
Ga0_2 Ta0_0 2.926705 1_555
Ga0_3 Ru0_6 2.613059 1_555
Ga0_3 Ru0_7 2.613062 1_555
Ga0_3 Ir1_1 2.630083 1_555
Ga0_3 Ir0_3 2.630090 1_555
Ga0_3 Ta2_0 2.873361 1_555
Ga0_3 Ta2_1 2.873364 1_555
Ga0_3 Ta1_2 2.873367 1_555
Ga0_3 Ta1_3 2.873370 1_555
Ga0_3 Ta0_0 2.926702 1_555
Ga0_3 Ta0_1 2.926705 1_555
Ga0_4 Ru0_1 2.613059 1_654
Ga0_4 Ru0_0 2.613062 1_655
Ga0_4 Ir1_6 2.630083 1_545
Ga0_4 Ir0_4 2.630090 1_555
Ga0_4 Ta2_7 2.873361 1_544
Ga0_4 Ta2_6 2.873364 1_545
Ga0_4 Ta1_5 2.873367 1_554
Ga0_4 Ta1_4 2.873370 1_555
Ga0_4 Ga0_5 2.917792 1_555
Ga0_4 Ga0_5 2.917792 1_554
Ga0_4 Ta0_7 2.926702 1_544
Ga0_4 Ta0_6 2.926705 1_545
Ga0_5 Ru0_0 2.613059 1_655
Ga0_5 Ru0_1 2.613062 1_655
Ga0_5 Ir1_7 2.630083 1_545
Ga0_5 Ir0_5 2.630090 1_555
Ga0_5 Ta2_6 2.873361 1_545
Ga0_5 Ta2_7 2.873364 1_545
Ga0_5 Ta1_4 2.873367 1_555
Ga0_5 Ta1_5 2.873370 1_555
Ga0_5 Ta0_6 2.926702 1_545
Ga0_5 Ta0_7 2.926705 1_545
Ga0_6 Ru0_3 2.613059 1_654
Ga0_6 Ru0_2 2.613062 1_655
Ga0_6 Ir1_4 2.630083 1_555
Ga0_6 Ir0_6 2.630090 1_555
Ga0_6 Ta2_5 2.873361 1_554
Ga0_6 Ta2_4 2.873364 1_555
Ga0_6 Ta1_7 2.873367 1_554
Ga0_6 Ta1_6 2.873370 1_555
Ga0_6 Ga0_7 2.917792 1_555
Ga0_6 Ga0_7 2.917792 1_554
Ga0_6 Ta0_5 2.926702 1_554
Ga0_6 Ta0_4 2.926705 1_555
Ga0_7 Ru0_2 2.613059 1_655
Ga0_7 Ru0_3 2.613062 1_655
Ga0_7 Ir1_5 2.630083 1_555
Ga0_7 Ir0_7 2.630090 1_555
Ga0_7 Ta2_4 2.873361 1_555
Ga0_7 Ta2_5 2.873364 1_555
Ga0_7 Ta1_6 2.873367 1_555
Ga0_7 Ta1_7 2.873370 1_555
Ga0_7 Ta0_4 2.926702 1_555
Ga0_7 Ta0_5 2.926705 1_555
Ga1_0 Ru0_1 2.613062 1_554
Ga1_0 Ru0_0 2.613065 1_555
Ga1_0 Ir1_0 2.630080 1_555
Ga1_0 Ir0_0 2.630090 1_555
Ga1_0 Ta1_5 2.873363 1_454
Ga1_0 Ta1_4 2.873366 1_455
Ga1_0 Ta0_3 2.873374 1_544
Ga1_0 Ta0_2 2.873377 1_545
Ga1_0 Ga1_1 2.917792 1_555
Ga1_0 Ga1_1 2.917792 1_554
Ga1_0 Ta2_1 2.926702 1_554
Ga1_0 Ta2_0 2.926705 1_555
Ga1_1 Ru0_0 2.613062 1_555
Ga1_1 Ru0_1 2.613065 1_555
Ga1_1 Ir1_1 2.630080 1_555
Ga1_1 Ir0_1 2.630090 1_555
Ga1_1 Ta1_4 2.873363 1_455
Ga1_1 Ta1_5 2.873366 1_455
Ga1_1 Ta0_2 2.873374 1_545
Ga1_1 Ta0_3 2.873377 1_545
Ga1_1 Ta2_0 2.926702 1_555
Ga1_1 Ta2_1 2.926705 1_555
Ga1_2 Ru0_3 2.613062 1_554
Ga1_2 Ru0_2 2.613065 1_555
Ga1_2 Ir1_2 2.630080 1_555
Ga1_2 Ir0_2 2.630090 1_555
Ga1_2 Ta1_7 2.873363 1_454
Ga1_2 Ta1_6 2.873366 1_455
Ga1_2 Ta0_1 2.873374 1_554
Ga1_2 Ta0_0 2.873377 1_555
Ga1_2 Ga1_3 2.917792 1_554
Ga1_2 Ga1_3 2.917792 1_555
Ga1_2 Ta2_3 2.926702 1_554
Ga1_2 Ta2_2 2.926705 1_555
Ga1_3 Ru0_2 2.613062 1_555
Ga1_3 Ru0_3 2.613065 1_555
Ga1_3 Ir1_3 2.630080 1_555
Ga1_3 Ir0_3 2.630090 1_555
Ga1_3 Ta1_6 2.873363 1_455
Ga1_3 Ta1_7 2.873366 1_455
Ga1_3 Ta0_0 2.873374 1_555
Ga1_3 Ta0_1 2.873377 1_555
Ga1_3 Ta2_2 2.926702 1_555
Ga1_3 Ta2_3 2.926705 1_555
Ga1_4 Ru0_5 2.613062 1_554
Ga1_4 Ru0_4 2.613065 1_555
Ga1_4 Ir1_4 2.630080 1_555
Ga1_4 Ir0_4 2.630090 1_555
Ga1_4 Ta1_1 2.873363 1_554
Ga1_4 Ta1_0 2.873366 1_555
Ga1_4 Ta0_7 2.873374 1_544
Ga1_4 Ta0_6 2.873377 1_545
Ga1_4 Ga1_5 2.917792 1_555
Ga1_4 Ga1_5 2.917792 1_554
Ga1_4 Ta2_5 2.926702 1_554
Ga1_4 Ta2_4 2.926705 1_555
Ga1_5 Ru0_4 2.613062 1_555
Ga1_5 Ru0_5 2.613065 1_555
Ga1_5 Ir1_5 2.630080 1_555
Ga1_5 Ir0_5 2.630090 1_555
Ga1_5 Ta1_0 2.873363 1_555
Ga1_5 Ta1_1 2.873366 1_555
Ga1_5 Ta0_6 2.873374 1_545
Ga1_5 Ta0_7 2.873377 1_545
Ga1_5 Ta2_4 2.926702 1_555
Ga1_5 Ta2_5 2.926705 1_555
Ga1_6 Ru0_7 2.613062 1_554
Ga1_6 Ru0_6 2.613065 1_555
Ga1_6 Ir1_6 2.630080 1_555
Ga1_6 Ir0_6 2.630090 1_555
Ga1_6 Ta1_3 2.873363 1_554
Ga1_6 Ta1_2 2.873366 1_555
Ga1_6 Ta0_5 2.873374 1_554
Ga1_6 Ta0_4 2.873377 1_555
Ga1_6 Ga1_7 2.917792 1_555
Ga1_6 Ga1_7 2.917792 1_554
Ga1_6 Ta2_7 2.926702 1_554
Ga1_6 Ta2_6 2.926705 1_555
Ga1_7 Ru0_6 2.613062 1_555
Ga1_7 Ru0_7 2.613065 1_555
Ga1_7 Ir1_7 2.630080 1_555
Ga1_7 Ir0_7 2.630090 1_555
Ga1_7 Ta1_2 2.873363 1_555
Ga1_7 Ta1_3 2.873366 1_555
Ga1_7 Ta0_4 2.873374 1_555
Ga1_7 Ta0_5 2.873377 1_555
Ga1_7 Ta2_6 2.926702 1_555
Ga1_7 Ta2_7 2.926705 1_555
Ga2_0 Ru0_3 2.613059 1_554
Ga2_0 Ru0_2 2.613062 1_555
Ga2_0 Ir0_4 2.630083 1_455
Ga2_0 Ir1_0 2.630090 1_555
Ga2_0 Ta0_1 2.873367 1_554
Ga2_0 Ta2_5 2.873370 1_454
Ga2_0 Ta0_0 2.873370 1_555
Ga2_0 Ta2_4 2.873373 1_455
Ga2_0 Ga2_1 2.917792 1_554
Ga2_0 Ga2_1 2.917792 1_555
Ga2_0 Ta1_5 2.926702 1_454
Ga2_0 Ta1_4 2.926705 1_455
Ga2_1 Ru0_2 2.613059 1_555
Ga2_1 Ru0_3 2.613062 1_555
Ga2_1 Ir0_5 2.630083 1_455
Ga2_1 Ir1_1 2.630090 1_555
Ga2_1 Ta0_0 2.873367 1_555
Ga2_1 Ta2_4 2.873370 1_455
Ga2_1 Ta0_1 2.873370 1_555
Ga2_1 Ta2_5 2.873373 1_455
Ga2_1 Ta1_4 2.926702 1_455
Ga2_1 Ta1_5 2.926705 1_455
Ga2_2 Ru0_1 2.613059 1_564
Ga2_2 Ru0_0 2.613062 1_565
Ga2_2 Ir0_6 2.630083 1_455
Ga2_2 Ir1_2 2.630090 1_555
Ga2_2 Ta0_3 2.873367 1_554
Ga2_2 Ta2_7 2.873370 1_454
Ga2_2 Ta0_2 2.873370 1_555
Ga2_2 Ta2_6 2.873373 1_455
Ga2_2 Ga2_3 2.917792 1_555
Ga2_2 Ga2_3 2.917792 1_554
Ga2_2 Ta1_7 2.926702 1_454
Ga2_2 Ta1_6 2.926705 1_455
Ga2_3 Ru0_0 2.613059 1_565
Ga2_3 Ru0_1 2.613062 1_565
Ga2_3 Ir0_7 2.630083 1_455
Ga2_3 Ir1_3 2.630090 1_555
Ga2_3 Ta0_2 2.873367 1_555
Ga2_3 Ta2_6 2.873370 1_455
Ga2_3 Ta0_3 2.873370 1_555
Ga2_3 Ta2_7 2.873373 1_455
Ga2_3 Ta1_6 2.926702 1_455
Ga2_3 Ta1_7 2.926705 1_455
Ga2_4 Ru0_7 2.613059 1_554
Ga2_4 Ru0_6 2.613062 1_555
Ga2_4 Ir0_0 2.630083 1_555
Ga2_4 Ir1_4 2.630090 1_555
Ga2_4 Ta0_5 2.873367 1_554
Ga2_4 Ta2_1 2.873370 1_554
Ga2_4 Ta0_4 2.873370 1_555
Ga2_4 Ta2_0 2.873373 1_555
Ga2_4 Ga2_5 2.917792 1_554
Ga2_4 Ga2_5 2.917792 1_555
Ga2_4 Ta1_1 2.926702 1_554
Ga2_4 Ta1_0 2.926705 1_555
Ga2_5 Ru0_6 2.613059 1_555
Ga2_5 Ru0_7 2.613062 1_555
Ga2_5 Ir0_1 2.630083 1_555
Ga2_5 Ir1_5 2.630090 1_555
Ga2_5 Ta0_4 2.873367 1_555
Ga2_5 Ta2_0 2.873370 1_555
Ga2_5 Ta0_5 2.873370 1_555
Ga2_5 Ta2_1 2.873373 1_555
Ga2_5 Ta1_0 2.926702 1_555
Ga2_5 Ta1_1 2.926705 1_555
Ga2_6 Ru0_5 2.613059 1_564
Ga2_6 Ru0_4 2.613062 1_565
Ga2_6 Ir0_2 2.630083 1_555
Ga2_6 Ir1_6 2.630090 1_555
Ga2_6 Ta0_7 2.873367 1_554
Ga2_6 Ta2_3 2.873370 1_554
Ga2_6 Ta0_6 2.873370 1_555
Ga2_6 Ta2_2 2.873373 1_555
Ga2_6 Ga2_7 2.917792 1_554
Ga2_6 Ga2_7 2.917792 1_555
Ga2_6 Ta1_3 2.926702 1_554
Ga2_6 Ta1_2 2.926705 1_555
Ga2_7 Ru0_4 2.613059 1_565
Ga2_7 Ru0_5 2.613062 1_565
Ga2_7 Ir0_3 2.630083 1_555
Ga2_7 Ir1_7 2.630090 1_555
Ga2_7 Ta0_6 2.873367 1_555
Ga2_7 Ta2_2 2.873370 1_555
Ga2_7 Ta0_7 2.873370 1_555
Ga2_7 Ta2_3 2.873373 1_555
Ga2_7 Ta1_2 2.926702 1_555
Ga2_7 Ta1_3 2.926705 1_555
Ir0_0 Ta1_1 2.775315 1_554
Ir0_0 Ta1_0 2.775318 1_555
Ir0_0 Ta0_3 2.775318 1_544
Ir0_0 Ta2_1 2.775318 1_554
Ir0_0 Ta0_2 2.775321 1_545
Ir0_0 Ta2_0 2.775322 1_555
Ir0_0 Ir0_1 2.917792 1_555
Ir0_0 Ir0_1 2.917792 1_554
Ir0_1 Ta1_0 2.775315 1_555
Ir0_1 Ta1_1 2.775318 1_555
Ir0_1 Ta0_2 2.775318 1_545
Ir0_1 Ta2_0 2.775318 1_555
Ir0_1 Ta0_3 2.775321 1_545
Ir0_1 Ta2_1 2.775322 1_555
Ir0_2 Ta1_3 2.775315 1_554
Ir0_2 Ta1_2 2.775318 1_555
Ir0_2 Ta0_1 2.775318 1_554
Ir0_2 Ta2_3 2.775318 1_554
Ir0_2 Ta0_0 2.775321 1_555
Ir0_2 Ta2_2 2.775322 1_555
Ir0_2 Ir0_3 2.917792 1_554
Ir0_2 Ir0_3 2.917792 1_555
Ir0_3 Ta1_2 2.775315 1_555
Ir0_3 Ta1_3 2.775318 1_555
Ir0_3 Ta0_0 2.775318 1_555
Ir0_3 Ta2_2 2.775318 1_555
Ir0_3 Ta0_1 2.775321 1_555
Ir0_3 Ta2_3 2.775322 1_555
Ir0_4 Ta1_5 2.775315 1_554
Ir0_4 Ta1_4 2.775318 1_555
Ir0_4 Ta0_7 2.775318 1_544
Ir0_4 Ta2_5 2.775318 1_554
Ir0_4 Ta0_6 2.775321 1_545
Ir0_4 Ta2_4 2.775322 1_555
Ir0_4 Ir0_5 2.917792 1_554
Ir0_4 Ir0_5 2.917792 1_555
Ir0_5 Ta1_4 2.775315 1_555
Ir0_5 Ta1_5 2.775318 1_555
Ir0_5 Ta0_6 2.775318 1_545
Ir0_5 Ta2_4 2.775318 1_555
Ir0_5 Ta0_7 2.775321 1_545
Ir0_5 Ta2_5 2.775322 1_555
Ir0_6 Ta1_7 2.775315 1_554
Ir0_6 Ta1_6 2.775318 1_555
Ir0_6 Ta0_5 2.775318 1_554
Ir0_6 Ta2_7 2.775318 1_554
Ir0_6 Ta0_4 2.775321 1_555
Ir0_6 Ta2_6 2.775322 1_555
Ir0_6 Ir0_7 2.917792 1_554
Ir0_6 Ir0_7 2.917792 1_555
Ir0_7 Ta1_6 2.775315 1_555
Ir0_7 Ta1_7 2.775318 1_555
Ir0_7 Ta0_4 2.775318 1_555
Ir0_7 Ta2_6 2.775318 1_555
Ir0_7 Ta0_5 2.775321 1_555
Ir0_7 Ta2_7 2.775322 1_555
Ir1_0 Ta2_1 2.775309 1_554
Ir1_0 Ta2_0 2.775312 1_555
Ir1_0 Ta0_1 2.775315 1_554
Ir1_0 Ta0_0 2.775318 1_555
Ir1_0 Ta1_5 2.775318 1_454
Ir1_0 Ta1_4 2.775321 1_455
Ir1_0 Ir1_1 2.917792 1_554
Ir1_0 Ir1_1 2.917792 1_555
Ir1_1 Ta2_0 2.775309 1_555
Ir1_1 Ta2_1 2.775312 1_555
Ir1_1 Ta0_0 2.775315 1_555
Ir1_1 Ta0_1 2.775318 1_555
Ir1_1 Ta1_4 2.775318 1_455
Ir1_1 Ta1_5 2.775321 1_455
Ir1_2 Ta2_3 2.775309 1_554
Ir1_2 Ta2_2 2.775312 1_555
Ir1_2 Ta0_3 2.775315 1_554
Ir1_2 Ta0_2 2.775318 1_555
Ir1_2 Ta1_7 2.775318 1_454
Ir1_2 Ta1_6 2.775321 1_455
Ir1_2 Ir1_3 2.917792 1_554
Ir1_2 Ir1_3 2.917792 1_555
Ir1_3 Ta2_2 2.775309 1_555
Ir1_3 Ta2_3 2.775312 1_555
Ir1_3 Ta0_2 2.775315 1_555
Ir1_3 Ta0_3 2.775318 1_555
Ir1_3 Ta1_6 2.775318 1_455
Ir1_3 Ta1_7 2.775321 1_455
Ir1_4 Ta2_5 2.775309 1_554
Ir1_4 Ta2_4 2.775312 1_555
Ir1_4 Ta0_5 2.775315 1_554
Ir1_4 Ta0_4 2.775318 1_555
Ir1_4 Ta1_1 2.775318 1_554
Ir1_4 Ta1_0 2.775321 1_555
Ir1_4 Ir1_5 2.917792 1_555
Ir1_4 Ir1_5 2.917792 1_554
Ir1_5 Ta2_4 2.775309 1_555
Ir1_5 Ta2_5 2.775312 1_555
Ir1_5 Ta0_4 2.775315 1_555
Ir1_5 Ta0_5 2.775318 1_555
Ir1_5 Ta1_0 2.775318 1_555
Ir1_5 Ta1_1 2.775321 1_555
Ir1_6 Ta2_7 2.775309 1_554
Ir1_6 Ta2_6 2.775312 1_555
Ir1_6 Ta0_7 2.775315 1_554
Ir1_6 Ta0_6 2.775318 1_555
Ir1_6 Ta1_3 2.775318 1_554
Ir1_6 Ta1_2 2.775321 1_555
Ir1_6 Ir1_7 2.917792 1_554
Ir1_6 Ir1_7 2.917792 1_555
Ir1_7 Ta2_6 2.775309 1_555
Ir1_7 Ta2_7 2.775312 1_555
Ir1_7 Ta0_6 2.775315 1_555
Ir1_7 Ta0_7 2.775318 1_555
Ir1_7 Ta1_2 2.775318 1_555
Ir1_7 Ta1_3 2.775321 1_555
Ru0_0 Ta2_6 2.697346 1_445
Ru0_0 Ta1_4 2.697350 1_455
Ru0_0 Ta0_2 2.697350 1_545
Ru0_0 Ru0_1 2.917792 1_554
Ru0_0 Ru0_1 2.917792 1_555
Ru0_1 Ta2_7 2.697346 1_445
Ru0_1 Ta1_5 2.697350 1_455
Ru0_1 Ta0_3 2.697350 1_545
Ru0_2 Ta2_4 2.697346 1_455
Ru0_2 Ta1_6 2.697350 1_455
Ru0_2 Ta0_0 2.697350 1_555
Ru0_2 Ru0_3 2.917792 1_554
Ru0_2 Ru0_3 2.917792 1_555
Ru0_3 Ta2_5 2.697346 1_455
Ru0_3 Ta1_7 2.697350 1_455
Ru0_3 Ta0_1 2.697350 1_555
Ru0_4 Ta2_2 2.697346 1_545
Ru0_4 Ta1_0 2.697350 1_555
Ru0_4 Ta0_6 2.697350 1_545
Ru0_4 Ru0_5 2.917792 1_555
Ru0_4 Ru0_5 2.917792 1_554
Ru0_5 Ta2_3 2.697346 1_545
Ru0_5 Ta1_1 2.697350 1_555
Ru0_5 Ta0_7 2.697350 1_545
Ru0_6 Ta2_0 2.697346 1_555
Ru0_6 Ta1_2 2.697350 1_555
Ru0_6 Ta0_4 2.697350 1_555
Ru0_6 Ru0_7 2.917792 1_554
Ru0_6 Ru0_7 2.917792 1_555
Ru0_7 Ta2_1 2.697346 1_555
Ru0_7 Ta1_3 2.697350 1_555
Ru0_7 Ta0_5 2.697350 1_555
