# generated using pymatgen
data_Ag2W(OF2)2
_symmetry_space_group_name_H-M   'P 1'
_cell_length_a   5.11027725
_cell_length_b   5.35865876
_cell_length_c   20.01156902
_cell_angle_alpha   90.00000000
_cell_angle_beta   90.00000000
_cell_angle_gamma   90.00000000
_symmetry_Int_Tables_number   1
_chemical_formula_structural   Ag2W(OF2)2
_chemical_formula_sum   'Ag8 W4 O8 F16'
_cell_volume   548.00144722
_cell_formula_units_Z   4
loop_
 _symmetry_equiv_pos_site_id
 _symmetry_equiv_pos_as_xyz
  1  'x, y, z'
loop_
 _atom_site_type_symbol
 _atom_site_label
 _atom_site_symmetry_multiplicity
 _atom_site_fract_x
 _atom_site_fract_y
 _atom_site_fract_z
 _atom_site_occupancy
  Ag  Ag0  1  0.00000000  0.75000000  0.23511731  1
  Ag  Ag1  1  0.00000000  0.25000000  0.46050482  1
  Ag  Ag2  1  0.00000000  0.75000000  0.53949518  1
  Ag  Ag3  1  0.00000000  0.25000000  0.76488269  1
  Ag  Ag4  1  0.50000000  0.25000000  0.26488269  1
  Ag  Ag5  1  0.50000000  0.25000000  0.96050482  1
  Ag  Ag6  1  0.50000000  0.75000000  0.03949518  1
  Ag  Ag7  1  0.50000000  0.75000000  0.73511731  1
  W  W0  1  0.00000000  0.25000000  0.10526141  1
  W  W1  1  0.00000000  0.75000000  0.89473859  1
  W  W2  1  0.50000000  0.75000000  0.39473859  1
  W  W3  1  0.50000000  0.25000000  0.60526141  1
  O  O0  1  0.21843207  0.10273481  0.05016434  1
  O  O1  1  0.21843207  0.60273481  0.94983566  1
  O  O2  1  0.28156793  0.60273481  0.44983566  1
  O  O3  1  0.28156793  0.10273481  0.55016434  1
  O  O4  1  0.71843207  0.39726519  0.55016434  1
  O  O5  1  0.71843207  0.89726519  0.44983566  1
  O  O6  1  0.78156793  0.39726519  0.05016434  1
  O  O7  1  0.78156793  0.89726519  0.94983566  1
  F  F0  1  0.19805086  0.10192720  0.18552890  1
  F  F1  1  0.19805086  0.60192720  0.81447110  1
  F  F2  1  0.21811925  0.03521957  0.87607295  1
  F  F3  1  0.21811925  0.53521957  0.12392705  1
  F  F4  1  0.28188075  0.53521957  0.62392705  1
  F  F5  1  0.28188075  0.03521957  0.37607295  1
  F  F6  1  0.30194914  0.10192720  0.68552890  1
  F  F7  1  0.30194914  0.60192720  0.31447110  1
  F  F8  1  0.69805086  0.89807280  0.31447110  1
  F  F9  1  0.69805086  0.39807280  0.68552890  1
  F  F10  1  0.71811925  0.46478043  0.37607295  1
  F  F11  1  0.71811925  0.96478043  0.62392705  1
  F  F12  1  0.78188075  0.96478043  0.12392705  1
  F  F13  1  0.78188075  0.46478043  0.87607295  1
  F  F14  1  0.80194914  0.89807280  0.81447110  1
  F  F15  1  0.80194914  0.39807280  0.18552890  1
loop_
_geom_bond_atom_site_label_1
_geom_bond_atom_site_label_2
_geom_bond_distance
_geom_bond_site_symmetry_2
Ag0 F7 2.352086 1_555
Ag0 F8 2.352086 1_455
Ag0 F0 2.359139 1_565
Ag0 F15 2.359139 1_455
Ag1 O2 2.385119 1_555
Ag1 O5 2.385119 1_445
Ag1 O3 2.431544 1_555
Ag1 O4 2.431544 1_455
Ag1 F5 2.500891 1_555
Ag1 F10 2.500891 1_455
Ag2 O3 2.385119 1_565
Ag2 O4 2.385119 1_455
Ag2 O2 2.431544 1_555
Ag2 O5 2.431544 1_455
Ag2 F4 2.500891 1_555
Ag2 F11 2.500891 1_455
Ag3 F6 2.352086 1_555
Ag3 F9 2.352086 1_455
Ag3 F1 2.359139 1_555
Ag3 F14 2.359139 1_445
Ag4 F15 2.352086 1_555
Ag4 F0 2.352086 1_555
Ag4 F8 2.359139 1_545
Ag4 F7 2.359139 1_555
Ag5 O1 2.385119 1_555
Ag5 O7 2.385119 1_545
Ag5 O6 2.431544 1_556
Ag5 O0 2.431544 1_556
Ag5 F13 2.500891 1_555
Ag5 F2 2.500891 1_555
Ag6 O0 2.385119 1_565
Ag6 O6 2.385119 1_555
Ag6 O7 2.431544 1_554
Ag6 O1 2.431544 1_554
Ag6 F12 2.500891 1_555
Ag6 F3 2.500891 1_555
Ag7 F14 2.352086 1_555
Ag7 F1 2.352086 1_555
Ag7 F9 2.359139 1_555
Ag7 F6 2.359139 1_565
O0 W0 1.756257 1_555
O1 W1 1.756257 1_555
O2 W2 1.756257 1_555
O3 W3 1.756257 1_555
O4 W3 1.756257 1_555
O5 W2 1.756257 1_555
O6 W0 1.756257 1_655
O7 W1 1.756257 1_655
F0 W0 2.057684 1_555
F1 W1 2.057684 1_555
F2 W1 1.928201 1_545
F3 W0 1.928201 1_555
F4 W3 1.928201 1_555
F5 W2 1.928201 1_545
F6 W3 2.057684 1_555
F7 W2 2.057684 1_555
F8 W2 2.057684 1_555
F9 W3 2.057684 1_555
F10 W2 1.928201 1_555
F11 W3 1.928201 1_565
F12 W0 1.928201 1_665
F13 W1 1.928201 1_655
F14 W1 2.057684 1_655
F15 W0 2.057684 1_655
