# generated using pymatgen
data_Mg2Ta3N5
_symmetry_space_group_name_H-M   'P 1'
_cell_length_a   8.19966388
_cell_length_b   8.19966388
_cell_length_c   5.31892059
_cell_angle_alpha   83.84846574
_cell_angle_beta   83.84846574
_cell_angle_gamma   141.85117872
_symmetry_Int_Tables_number   1
_chemical_formula_structural   Mg2Ta3N5
_chemical_formula_sum   'Mg4 Ta6 N10'
_cell_volume   208.68738934
_cell_formula_units_Z   2
loop_
 _symmetry_equiv_pos_site_id
 _symmetry_equiv_pos_as_xyz
  1  'x, y, z'
loop_
 _atom_site_type_symbol
 _atom_site_label
 _atom_site_symmetry_multiplicity
 _atom_site_fract_x
 _atom_site_fract_y
 _atom_site_fract_z
 _atom_site_occupancy
  Mg  Mg0  1  0.44891200  0.55108800  0.75000000  1
  Mg  Mg1  1  0.55108800  0.44891200  0.25000000  1
  Mg  Mg2  1  0.25151400  0.74848600  0.75000000  1
  Mg  Mg3  1  0.74848600  0.25151400  0.25000000  1
  Ta  Ta0  1  0.85066800  0.14933200  0.75000000  1
  Ta  Ta1  1  0.35265300  0.64734700  0.25000000  1
  Ta  Ta2  1  0.04625900  0.95374100  0.75000000  1
  Ta  Ta3  1  0.95374100  0.04625900  0.25000000  1
  Ta  Ta4  1  0.64734700  0.35265300  0.75000000  1
  Ta  Ta5  1  0.14933200  0.85066800  0.25000000  1
  N  N0  1  0.09494400  0.39537700  0.00031900  1
  N  N1  1  0.69028800  0.78880900  0.99819900  1
  N  N2  1  0.60462300  0.90505600  0.49968100  1
  N  N3  1  0.30971200  0.21119100  0.00180100  1
  N  N4  1  0.21119100  0.30971200  0.50180100  1
  N  N5  1  0.90505600  0.60462300  0.99968100  1
  N  N6  1  0.78880900  0.69028800  0.49819900  1
  N  N7  1  0.50000000  0.00000000  0.00000000  1
  N  N8  1  0.39537700  0.09494400  0.50031900  1
  N  N9  1  0.00000000  0.50000000  0.50000000  1
loop_
_geom_bond_atom_site_label_1
_geom_bond_atom_site_label_2
_geom_bond_distance
_geom_bond_site_symmetry_2
Mg0 N4 2.122076 1_555
Mg0 N1 2.122076 1_555
Mg0 N3 2.175596 1_556
Mg0 N6 2.175596 1_555
Mg0 N2 2.192239 1_555
Mg0 N0 2.192239 1_556
Mg1 N3 2.122076 1_555
Mg1 N6 2.122076 1_555
Mg1 N1 2.175596 1_554
Mg1 N4 2.175596 1_555
Mg1 N8 2.192239 1_555
Mg1 N5 2.192239 1_554
Mg2 N9 2.175363 1_555
Mg2 N7 2.175363 1_566
Mg2 N2 2.182929 1_555
Mg2 N0 2.182929 1_556
Mg2 N8 2.193293 1_565
Mg2 N5 2.193293 1_455
Mg3 N7 2.175363 1_555
Mg3 N9 2.175363 1_655
Mg3 N8 2.182929 1_555
Mg3 N5 2.182929 1_554
Mg3 N0 2.193293 1_655
Mg3 N2 2.193293 1_545
N0 Ta0 2.155545 1_454
N0 Ta1 2.195539 1_555
N0 Ta3 2.222991 1_455
N1 Ta1 2.150673 1_556
N1 Ta2 2.162032 1_655
N1 Ta0 2.210939 1_565
N1 Ta3 2.229400 1_566
N2 Ta0 2.155545 1_565
N2 Ta1 2.195539 1_555
N2 Ta3 2.222991 1_565
N3 Ta4 2.150673 1_554
N3 Ta3 2.162032 1_455
N3 Ta5 2.210939 1_545
N3 Ta2 2.229400 1_544
N4 Ta1 2.150673 1_555
N4 Ta2 2.162032 1_545
N4 Ta0 2.210939 1_455
N4 Ta3 2.229400 1_455
N5 Ta5 2.155545 1_656
N5 Ta4 2.195539 1_555
N5 Ta2 2.222991 1_655
N6 Ta4 2.150673 1_555
N6 Ta3 2.162032 1_565
N6 Ta5 2.210939 1_655
N6 Ta2 2.229400 1_655
N7 Ta5 2.197555 1_545
N7 Ta0 2.197555 1_554
N7 Ta4 2.219504 1_554
N7 Ta1 2.219504 1_545
N8 Ta5 2.155545 1_545
N8 Ta4 2.195539 1_555
N8 Ta2 2.222991 1_545
N9 Ta5 2.197555 1_555
N9 Ta0 2.197555 1_455
N9 Ta4 2.219504 1_455
N9 Ta1 2.219504 1_555
