# generated using pymatgen
data_Cr2InAgO8
_symmetry_space_group_name_H-M   'P 1'
_cell_length_a   5.18509637
_cell_length_b   5.18509518
_cell_length_c   7.00481535
_cell_angle_alpha   91.95306679
_cell_angle_beta   91.95306236
_cell_angle_gamma   66.50302566
_symmetry_Int_Tables_number   1
_chemical_formula_structural   Cr2InAgO8
_chemical_formula_sum   'Cr2 In1 Ag1 O8'
_cell_volume   172.56672993
_cell_formula_units_Z   1
loop_
 _symmetry_equiv_pos_site_id
 _symmetry_equiv_pos_as_xyz
  1  'x, y, z'
loop_
 _atom_site_type_symbol
 _atom_site_label
 _atom_site_symmetry_multiplicity
 _atom_site_fract_x
 _atom_site_fract_y
 _atom_site_fract_z
 _atom_site_occupancy
  Cr  Cr0  1  0.35533938  0.35533938  0.76603538  1
  Cr  Cr1  1  0.64466062  0.64466062  0.23396462  1
  In  In0  1  0.00000000  0.00000000  0.00000000  1
  Ag  Ag0  1  0.00000000  0.00000000  0.50000000  1
  O  O0  1  0.25455189  0.25455189  0.56782013  1
  O  O1  1  0.74544811  0.74544811  0.43217987  1
  O  O2  1  0.70892949  0.22219288  0.77634537  1
  O  O3  1  0.29107051  0.77780712  0.22365463  1
  O  O4  1  0.77780712  0.29107051  0.22365463  1
  O  O5  1  0.22219288  0.70892949  0.77634537  1
  O  O6  1  0.24158998  0.24158998  0.94855662  1
  O  O7  1  0.75841002  0.75841002  0.05144338  1
loop_
_geom_bond_atom_site_label_1
_geom_bond_atom_site_label_2
_geom_bond_distance
_geom_bond_site_symmetry_2
Cr0 O0 1.610245 1_555
Cr0 O6 1.646375 1_555
Cr0 O5 1.681743 1_555
Cr0 O2 1.681743 1_555
Cr1 O1 1.610245 1_555
Cr1 O7 1.646375 1_555
Cr1 O4 1.681743 1_555
Cr1 O3 1.681743 1_555
In0 O7 2.140327 1_445
In0 O6 2.140327 1_554
In0 O4 2.152875 1_455
In0 O5 2.152875 1_544
In0 O3 2.152876 1_545
In0 O2 2.152876 1_454
Ag0 O0 2.239081 1_555
Ag0 O1 2.239081 1_445
Ag0 O2 2.452108 1_455
Ag0 O3 2.452108 1_545
Ag0 O5 2.452108 1_545
Ag0 O4 2.452108 1_455
