# generated using pymatgen
data_Cs5Ag(IO)2
_symmetry_space_group_name_H-M   'P 1'
_cell_length_a   6.13947125
_cell_length_b   7.86614177
_cell_length_c   15.30846508
_cell_angle_alpha   90.00000000
_cell_angle_beta   90.00000000
_cell_angle_gamma   90.00000000
_symmetry_Int_Tables_number   1
_chemical_formula_structural   Cs5Ag(IO)2
_chemical_formula_sum   'Cs10 Ag2 I4 O4'
_cell_volume   739.30626591
_cell_formula_units_Z   2
loop_
 _symmetry_equiv_pos_site_id
 _symmetry_equiv_pos_as_xyz
  1  'x, y, z'
loop_
 _atom_site_type_symbol
 _atom_site_label
 _atom_site_symmetry_multiplicity
 _atom_site_fract_x
 _atom_site_fract_y
 _atom_site_fract_z
 _atom_site_occupancy
  Cs  Cs0  1  0.50000000  0.33334535  0.59876419  1
  Cs  Cs1  1  0.50000000  0.16665465  0.09876419  1
  Cs  Cs2  1  0.00000000  0.60292430  0.73667286  1
  Cs  Cs3  1  0.00000000  0.50000000  0.00000000  1
  Cs  Cs4  1  0.50000000  0.66665465  0.40123581  1
  Cs  Cs5  1  0.50000000  0.83334535  0.90123581  1
  Cs  Cs6  1  0.00000000  0.89707570  0.23667286  1
  Cs  Cs7  1  0.00000000  0.39707570  0.26332714  1
  Cs  Cs8  1  0.00000000  0.10292430  0.76332714  1
  Cs  Cs9  1  0.00000000  0.00000000  0.50000000  1
  Ag  Ag0  1  0.00000000  0.50000000  0.50000000  1
  Ag  Ag1  1  0.00000000  0.00000000  0.00000000  1
  I  I0  1  0.50000000  0.65101171  0.14513803  1
  I  I1  1  0.50000000  0.34898829  0.85486197  1
  I  I2  1  0.50000000  0.15101171  0.35486197  1
  I  I3  1  0.50000000  0.84898829  0.64513803  1
  O  O0  1  0.00000000  0.66519849  0.39692102  1
  O  O1  1  0.00000000  0.83480151  0.89692102  1
  O  O2  1  0.00000000  0.16519849  0.10307898  1
  O  O3  1  0.00000000  0.33480151  0.60307898  1
loop_
_geom_bond_atom_site_label_1
_geom_bond_atom_site_label_2
_geom_bond_distance
_geom_bond_site_symmetry_2
Cs0 O3 3.070468 1_655
Cs0 O3 3.070468 1_555
Cs0 I3 3.875595 1_545
Cs0 I1 3.922394 1_555
Cs0 I2 3.999767 1_555
Cs0 I3 4.117777 1_555
Cs1 O2 3.070468 1_555
Cs1 O2 3.070468 1_655
Cs1 I0 3.875595 1_555
Cs1 I2 3.922394 1_555
Cs1 I1 3.999767 1_554
Cs1 I0 4.117777 1_545
Cs2 O3 2.937818 1_555
Cs2 O1 3.056937 1_555
Cs2 I3 3.890148 1_555
Cs2 I3 3.890148 1_455
Cs2 I1 4.084950 1_555
Cs2 I1 4.084950 1_455
Cs3 O2 3.070155 1_555
Cs3 O1 3.070155 1_554
Cs3 I0 3.971260 1_555
Cs3 I0 3.971260 1_455
Cs3 I1 3.971260 1_454
Cs3 I1 3.971260 1_554
Cs4 O0 3.070468 1_555
Cs4 O0 3.070468 1_655
Cs4 I2 3.875595 1_565
Cs4 I0 3.922394 1_555
Cs4 I3 3.999767 1_555
Cs4 I2 4.117777 1_555
Cs5 O1 3.070468 1_555
Cs5 O1 3.070468 1_655
Cs5 I1 3.875595 1_555
Cs5 I3 3.922394 1_555
Cs5 I0 3.999767 1_556
Cs5 I1 4.117777 1_565
Cs6 O2 2.937818 1_565
Cs6 O0 3.056937 1_555
Cs6 I0 3.890148 1_455
Cs6 I0 3.890148 1_555
Cs6 I2 4.084950 1_465
Cs6 I2 4.084950 1_565
Cs7 O0 2.937818 1_555
Cs7 O2 3.056937 1_555
Cs7 I2 3.890148 1_555
Cs7 I2 3.890148 1_455
Cs7 I0 4.084950 1_455
Cs7 I0 4.084950 1_555
Cs8 O1 2.937818 1_545
Cs8 O3 3.056937 1_555
Cs8 I1 3.890148 1_555
Cs8 I1 3.890148 1_455
Cs8 I3 4.084950 1_445
Cs8 I3 4.084950 1_545
Cs9 O3 3.070155 1_555
Cs9 O0 3.070155 1_545
Cs9 I3 3.971260 1_445
Cs9 I3 3.971260 1_545
Cs9 I2 3.971260 1_555
Cs9 I2 3.971260 1_455
Ag0 O3 2.044177 1_555
Ag0 O0 2.044177 1_555
Ag1 O2 2.044177 1_555
Ag1 O1 2.044177 1_544
