# generated using pymatgen
data_YbO3
_symmetry_space_group_name_H-M   'P 1'
_cell_length_a   3.66009302
_cell_length_b   3.88488227
_cell_length_c   6.28921452
_cell_angle_alpha   78.22117559
_cell_angle_beta   90.00000000
_cell_angle_gamma   90.00000000
_symmetry_Int_Tables_number   1
_chemical_formula_structural   YbO3
_chemical_formula_sum   'Yb2 O6'
_cell_volume   87.54346949
_cell_formula_units_Z   2
loop_
 _symmetry_equiv_pos_site_id
 _symmetry_equiv_pos_as_xyz
  1  'x, y, z'
loop_
 _atom_site_type_symbol
 _atom_site_label
 _atom_site_symmetry_multiplicity
 _atom_site_fract_x
 _atom_site_fract_y
 _atom_site_fract_z
 _atom_site_occupancy
  Yb  Yb0  1  0.75000000  0.69891899  0.67778847  1
  Yb  Yb1  1  0.25000000  0.30108101  0.32221153  1
  O  O0  1  0.75000000  0.71949607  0.10141410  1
  O  O1  1  0.75000000  0.03640504  0.15145167  1
  O  O2  1  0.75000000  0.24844700  0.52173667  1
  O  O3  1  0.25000000  0.28050393  0.89858590  1
  O  O4  1  0.25000000  0.96359496  0.84854833  1
  O  O5  1  0.25000000  0.75155300  0.47826333  1
loop_
_geom_bond_atom_site_label_1
_geom_bond_atom_site_label_2
_geom_bond_distance
_geom_bond_site_symmetry_2
O0 O1 1.331523 1_565
O0 Yb1 2.645387 1_655
O0 Yb1 2.645387 1_555
O0 Yb0 2.681733 1_554
O1 Yb1 2.451639 1_655
O1 Yb1 2.451639 1_555
O2 Yb0 2.159955 1_545
O2 Yb0 2.174181 1_555
O2 Yb1 2.204720 1_655
O2 Yb1 2.204720 1_555
O3 O4 1.331523 1_545
O3 Yb0 2.645387 1_555
O3 Yb0 2.645387 1_455
O3 Yb1 2.681733 1_556
O4 Yb0 2.451639 1_455
O4 Yb0 2.451639 1_555
O5 Yb1 2.159955 1_565
O5 Yb1 2.174181 1_555
O5 Yb0 2.204720 1_555
O5 Yb0 2.204720 1_455
