# generated using pymatgen
data_LaSn3Ru
_symmetry_space_group_name_H-M   'P 1'
_cell_length_a   9.82742301
_cell_length_b   9.82745436
_cell_length_c   9.82745540
_cell_angle_alpha   90.00003253
_cell_angle_beta   90.00005329
_cell_angle_gamma   90.00001545
_symmetry_Int_Tables_number   1
_chemical_formula_structural   LaSn3Ru
_chemical_formula_sum   'La8 Sn24 Ru8'
_cell_volume   949.12140360
_cell_formula_units_Z   8
loop_
 _symmetry_equiv_pos_site_id
 _symmetry_equiv_pos_as_xyz
  1  'x, y, z'
loop_
 _atom_site_type_symbol
 _atom_site_label
 _atom_site_symmetry_multiplicity
 _atom_site_fract_x
 _atom_site_fract_y
 _atom_site_fract_z
 _atom_site_occupancy
  La  La0  1  0.00000973  0.25000002  0.49999122  1
  La  La1  1  0.00001015  0.74999979  0.49998976  1
  La  La2  1  0.49999037  0.99997177  0.75000523  1
  La  La3  1  0.49999070  0.99997198  0.24999465  1
  La  La4  1  0.74999592  0.50002909  0.00000875  1
  La  La5  1  0.25000356  0.50002848  0.00000866  1
  La  La6  1  0.49998891  0.50003184  0.49999144  1
  La  La7  1  0.00001111  0.99996789  0.00000845  1
  Sn  Sn0  1  0.00000476  0.31641998  0.84195716  1
  Sn  Sn1  1  0.00000641  0.68358925  0.15805638  1
  Sn  Sn2  1  0.81641686  0.50000988  0.34194832  1
  Sn  Sn3  1  0.18358566  0.50001370  0.34194655  1
  Sn  Sn4  1  0.65804402  0.18357958  0.49999255  1
  Sn  Sn5  1  0.34195336  0.18357973  0.49999500  1
  Sn  Sn6  1  0.49999343  0.65805139  0.81641800  1
  Sn  Sn7  1  0.49999788  0.34195688  0.18358486  1
  Sn  Sn8  1  0.00000187  0.31641983  0.15804793  1
  Sn  Sn9  1  0.49999453  0.34195711  0.81641854  1
  Sn  Sn10  1  0.49999401  0.65805405  0.18358593  1
  Sn  Sn11  1  0.65804974  0.81641135  0.49999081  1
  Sn  Sn12  1  0.34194577  0.81641100  0.49999127  1
  Sn  Sn13  1  0.18358563  0.50001011  0.65804784  1
  Sn  Sn14  1  0.81641778  0.50000833  0.65804361  1
  Sn  Sn15  1  0.15805078  -0.00001399  0.31641476  1
  Sn  Sn16  1  0.31641550  0.15804407  0.00000457  1
  Sn  Sn17  1  0.68358165  0.84194938  0.00000845  1
  Sn  Sn18  1  0.15805022  0.99998976  0.68358194  1
  Sn  Sn19  1  0.68358160  0.15804256  0.00000764  1
  Sn  Sn20  1  0.84195187  0.99998975  0.31641446  1
  Sn  Sn21  1  0.84195463  0.99999156  0.68358133  1
  Sn  Sn22  1  0.31641484  0.84194491  0.00000814  1
  Sn  Sn23  1  0.00000730  0.68358866  0.84195118  1
  Ru  Ru0  1  0.74999905  0.24999798  0.25000150  1
  Ru  Ru1  1  0.24999704  0.25000329  0.75000066  1
  Ru  Ru2  1  0.24999946  0.74999993  0.25000054  1
  Ru  Ru3  1  0.75000391  0.74999789  0.74999808  1
  Ru  Ru4  1  0.24999600  0.74999603  0.75000036  1
  Ru  Ru5  1  0.75000013  0.75000162  0.25000220  1
  Ru  Ru6  1  0.75000354  0.25000166  0.74999915  1
  Ru  Ru7  1  0.25000134  0.24999988  0.24999915  1
loop_
_geom_bond_atom_site_label_1
_geom_bond_atom_site_label_2
_geom_bond_distance
_geom_bond_site_symmetry_2
La0 Sn15 3.421086 1_555
La0 Sn3 3.421097 1_555
La0 Sn13 3.421122 1_555
La0 Sn18 3.421131 1_545
La0 Sn20 3.421134 1_445
La0 Sn2 3.421149 1_455
La0 Sn14 3.421176 1_455
La0 Sn21 3.421181 1_445
La0 Sn5 3.423234 1_555
La0 Sn8 3.423240 1_555
La0 Sn4 3.423446 1_455
La0 Sn0 3.423458 1_555
La0 Ru7 3.474413 1_555
La0 Ru1 3.474500 1_555
La0 Ru0 3.474526 1_455
La0 Ru6 3.474624 1_455
La1 Sn15 3.420881 1_565
La1 Sn3 3.420893 1_555
La1 Sn13 3.420984 1_555
La1 Sn20 3.420987 1_455
La1 Sn18 3.420991 1_555
La1 Sn2 3.421002 1_455
La1 Sn14 3.421066 1_455
La1 Sn21 3.421072 1_455
La1 Sn1 3.423127 1_555
La1 Sn12 3.423139 1_555
La1 Sn11 3.423379 1_455
La1 Sn23 3.423399 1_555
La1 Ru2 3.474377 1_555
La1 Ru4 3.474498 1_555
La1 Ru5 3.474506 1_455
La1 Ru3 3.474627 1_455
La2 Sn22 3.420940 1_556
La2 Sn17 3.421002 1_556
La2 Sn12 3.421018 1_555
La2 Sn11 3.421088 1_555
La2 Sn16 3.421113 1_566
La2 Sn5 3.421204 1_565
La2 Sn19 3.421210 1_566
La2 Sn4 3.421296 1_565
La2 Sn6 3.423006 1_555
La2 Sn18 3.423205 1_555
La2 Sn21 3.423440 1_555
La2 Sn9 3.423633 1_565
La2 Ru4 3.474316 1_555
La2 Ru3 3.474437 1_555
La2 Ru1 3.474697 1_565
La2 Ru6 3.474823 1_565
La3 Sn22 3.420823 1_555
La3 Sn17 3.420882 1_555
La3 Sn12 3.420902 1_555
La3 Sn11 3.420958 1_555
La3 Sn16 3.421048 1_565
La3 Sn19 3.421103 1_565
La3 Sn5 3.421135 1_565
La3 Sn4 3.421186 1_565
La3 Sn10 3.422974 1_555
La3 Sn15 3.423198 1_565
La3 Sn20 3.423401 1_555
La3 Sn7 3.423623 1_565
La3 Ru2 3.474269 1_555
La3 Ru5 3.474384 1_555
La3 Ru7 3.474645 1_565
La3 Ru0 3.474763 1_565
La4 Sn10 3.420930 1_555
La4 Sn6 3.420991 1_554
La4 Sn1 3.421000 1_655
La4 Sn23 3.421051 1_654
La4 Sn7 3.421108 1_555
La4 Sn8 3.421187 1_655
La4 Sn9 3.421200 1_554
La4 Sn0 3.421263 1_654
La4 Sn17 3.423007 1_555
La4 Sn2 3.423205 1_555
La4 Sn14 3.423455 1_554
La4 Sn19 3.423646 1_555
La4 Ru5 3.474293 1_555
La4 Ru3 3.474388 1_554
La4 Ru0 3.474697 1_555
La4 Ru6 3.474786 1_554
La5 Sn10 3.420849 1_555
La5 Sn6 3.420906 1_554
La5 Sn1 3.420913 1_555
La5 Sn23 3.420946 1_554
La5 Sn7 3.421078 1_555
La5 Sn9 3.421127 1_554
La5 Sn8 3.421155 1_555
La5 Sn0 3.421186 1_554
La5 Sn22 3.422964 1_555
La5 Sn3 3.423185 1_555
La5 Sn13 3.423405 1_554
La5 Sn16 3.423621 1_555
La5 Ru2 3.474274 1_555
La5 Ru4 3.474363 1_554
La5 Ru7 3.474664 1_555
La5 Ru1 3.474760 1_554
La6 Sn12 3.475548 1_555
La6 Sn11 3.475628 1_555
La6 Sn10 3.475691 1_555
La6 Sn3 3.475759 1_555
La6 Sn13 3.475813 1_555
La6 Sn6 3.475863 1_555
La6 Sn7 3.475930 1_555
La6 Sn2 3.475971 1_555
La6 Sn14 3.476016 1_555
La6 Sn9 3.476111 1_555
La6 Sn5 3.476155 1_555
La6 Sn4 3.476243 1_555
La7 Sn1 3.475567 1_555
La7 Sn23 3.475612 1_554
La7 Sn22 3.475669 1_555
La7 Sn15 3.475770 1_565
La7 Sn20 3.475856 1_455
La7 Sn17 3.475875 1_455
La7 Sn16 3.475908 1_565
La7 Sn18 3.475948 1_554
La7 Sn21 3.476027 1_454
La7 Sn19 3.476123 1_465
La7 Sn8 3.476173 1_565
La7 Sn0 3.476228 1_564
Sn0 Sn8 3.106368 1_556
Sn0 Sn13 3.126765 1_555
Sn0 Sn14 3.126812 1_455
Sn1 Sn23 3.106510 1_554
Sn1 Sn3 3.126563 1_555
Sn1 Sn2 3.126654 1_455
Sn2 Sn8 3.126736 1_655
Sn3 Sn8 3.126739 1_555
Sn4 Sn5 3.106357 1_555
Sn6 Sn9 3.106402 1_555
Sn10 Sn7 3.106431 1_555
Sn10 Sn22 3.126579 1_555
Sn10 Sn17 3.126652 1_555
Sn11 Sn12 3.106487 1_555
Sn11 Sn20 3.126632 1_555
Sn11 Sn21 3.126735 1_555
Sn12 Sn15 3.126571 1_565
Sn12 Sn18 3.126677 1_555
Sn13 Sn3 3.106471 1_555
Sn13 Sn23 3.126650 1_555
Sn14 Sn2 3.106412 1_555
Sn14 Sn23 3.126745 1_655
Sn15 Sn20 3.106438 1_445
Sn15 Sn5 3.126740 1_555
Sn16 Sn22 3.106450 1_545
Sn16 Sn7 3.126734 1_555
Sn16 Sn9 3.126752 1_554
Sn17 Sn19 3.106391 1_565
Sn17 Sn6 3.126741 1_554
Sn18 Sn21 3.106405 1_455
Sn18 Sn5 3.126763 1_565
Sn19 Sn7 3.126735 1_555
Sn19 Sn9 3.126822 1_554
Sn20 Sn4 3.126738 1_565
Sn21 Sn4 3.126803 1_565
Sn22 Sn6 3.126661 1_554
Ru0 Sn4 2.697859 1_555
Ru0 Sn19 2.697881 1_555
Ru0 Sn7 2.697950 1_555
Ru0 Sn8 2.697961 1_655
Ru0 Sn20 2.697991 1_545
Ru0 Sn2 2.698015 1_555
Ru1 Sn0 2.697864 1_555
Ru1 Sn9 2.697903 1_555
Ru1 Sn13 2.697975 1_555
Ru1 Sn16 2.697987 1_556
Ru1 Sn5 2.698005 1_555
Ru1 Sn18 2.698032 1_545
Ru2 Sn3 2.697775 1_555
Ru2 Sn15 2.697782 1_565
Ru2 Sn12 2.697807 1_555
Ru2 Sn1 2.697814 1_555
Ru2 Sn22 2.697831 1_555
Ru2 Sn10 2.697844 1_555
Ru3 Sn14 2.697832 1_555
Ru3 Sn21 2.697863 1_555
Ru3 Sn23 2.697933 1_655
Ru3 Sn11 2.697988 1_555
Ru3 Sn6 2.698001 1_555
Ru3 Sn17 2.698029 1_556
Ru4 Sn13 2.697784 1_555
Ru4 Sn23 2.697791 1_555
Ru4 Sn18 2.697851 1_555
Ru4 Sn6 2.697872 1_555
Ru4 Sn22 2.697987 1_556
Ru4 Sn12 2.697995 1_555
Ru5 Sn11 2.697800 1_555
Ru5 Sn20 2.697805 1_555
Ru5 Sn2 2.697831 1_555
Ru5 Sn17 2.697858 1_555
Ru5 Sn1 2.697944 1_655
Ru5 Sn10 2.697956 1_555
Ru6 Sn0 2.697951 1_655
Ru6 Sn14 2.697990 1_555
Ru6 Sn21 2.698014 1_545
Ru6 Sn9 2.698016 1_555
Ru6 Sn4 2.698019 1_555
Ru6 Sn19 2.698037 1_556
Ru7 Sn16 2.697882 1_555
Ru7 Sn5 2.697894 1_555
Ru7 Sn7 2.697897 1_555
Ru7 Sn8 2.697917 1_555
Ru7 Sn3 2.698030 1_555
Ru7 Sn15 2.698041 1_555
