# generated using pymatgen
data_K12Ga2AsP5
_symmetry_space_group_name_H-M   'P 1'
_cell_length_a   8.79781587
_cell_length_b   8.74839332
_cell_length_c   9.95059952
_cell_angle_alpha   81.52611431
_cell_angle_beta   107.17194348
_cell_angle_gamma   119.36969404
_symmetry_Int_Tables_number   1
_chemical_formula_structural   K12Ga2AsP5
_chemical_formula_sum   'K12 Ga2 As1 P5'
_cell_volume   637.67616897
_cell_formula_units_Z   1
loop_
 _symmetry_equiv_pos_site_id
 _symmetry_equiv_pos_as_xyz
  1  'x, y, z'
loop_
 _atom_site_type_symbol
 _atom_site_label
 _atom_site_symmetry_multiplicity
 _atom_site_fract_x
 _atom_site_fract_y
 _atom_site_fract_z
 _atom_site_occupancy
  K  K0  1  0.73610418  0.12372351  0.61958116  1
  K  K1  1  0.25267322  0.85565854  0.39165766  1
  K  K2  1  0.96296998  0.81593248  0.62715785  1
  K  K3  1  0.03067980  0.20049453  0.39776226  1
  K  K4  1  0.62615932  0.44428753  0.39981750  1
  K  K5  1  0.40809782  0.56936274  0.59604048  1
  K  K6  1  0.86339823  0.48724307  0.13177709  1
  K  K7  1  0.10850472  0.50330035  0.84189693  1
  K  K8  1  0.74727074  0.09319900  0.98736056  1
  K  K9  1  0.24790923  0.88206072  0.00254175  1
  K  K10  1  0.55445741  0.61684731  0.94914978  1
  K  K11  1  0.24098141  0.19804906  0.11118341  1
  Ga  Ga0  1  0.59558499  0.83779376  0.25597233  1
  Ga  Ga1  1  0.41831552  0.17370186  0.74866026  1
  As  As0  1  0.30244090  0.56508238  0.22656970  1
  P  P0  1  0.69914477  0.42449387  0.76248370  1
  P  P1  1  0.60253642  0.10698595  0.26488031  1
  P  P2  1  0.38522659  0.88871095  0.73641033  1
  P  P3  1  0.85240960  0.82505644  0.24623718  1
  P  P4  1  0.17451217  0.20475595  0.76424078  1
loop_
_geom_bond_atom_site_label_1
_geom_bond_atom_site_label_2
_geom_bond_distance
_geom_bond_site_symmetry_2
K0 P2 3.208897 1_545
K0 P0 3.356514 1_555
K0 P1 3.375514 1_555
K0 P4 3.433897 1_655
K1 P1 3.276742 1_565
K1 P3 3.278216 1_455
K1 P2 3.288040 1_555
K2 P4 3.248672 1_665
K2 P2 3.299573 1_655
K2 P0 3.408462 1_555
K2 P3 3.623466 1_555
K3 P3 3.245195 1_445
K3 P1 3.310767 1_455
K3 P4 3.488542 1_555
K4 P1 3.309823 1_555
K4 P3 3.344536 1_555
K4 P0 3.467270 1_555
K5 P0 3.311529 1_555
K5 P4 3.350619 1_555
K5 P2 3.415274 1_555
K6 P1 3.330973 1_555
K6 P3 3.373093 1_555
K6 P0 3.545951 1_554
K7 P4 3.178561 1_555
K7 P0 3.180401 1_455
K7 P2 3.288082 1_555
K8 P2 3.257625 1_545
K8 P1 3.403955 1_556
K8 P3 3.454654 1_546
K8 P0 3.509902 1_555
K9 P2 3.201624 1_554
K9 P1 3.332151 1_565
K9 P4 3.594512 1_564
K10 P3 3.355007 1_556
K10 P0 3.510077 1_555
K10 P2 3.533138 1_555
K10 P4 3.749502 1_555
K11 P4 3.323488 1_554
K11 P1 3.513651 1_555
K11 P3 3.823463 1_445
Ga0 P1 2.339800 1_565
Ga0 P3 2.346596 1_555
Ga0 K8 3.367312 1_564
Ga1 P4 2.340716 1_555
Ga1 P0 2.346932 1_555
Ga1 P2 2.381680 1_545
Ga1 K8 3.458414 1_555
As0 Ga0 2.480671 1_555
As0 K11 3.307234 1_555
As0 K4 3.422858 1_555
As0 K6 3.425075 1_455
As0 K9 3.426510 1_555
As0 K1 3.478446 1_555
As0 K3 3.480658 1_555
As0 K5 3.517142 1_555
As0 K7 3.701831 1_554
As0 K10 3.873256 1_554
