# generated using pymatgen
data_TaBe8Nb2Rh
_symmetry_space_group_name_H-M   'P 1'
_cell_length_a   4.52685598
_cell_length_b   4.52685596
_cell_length_c   7.44185605
_cell_angle_alpha   90.00000000
_cell_angle_beta   90.00000000
_cell_angle_gamma   120.00000736
_symmetry_Int_Tables_number   1
_chemical_formula_structural   TaBe8Nb2Rh
_chemical_formula_sum   'Ta1 Be8 Nb2 Rh1'
_cell_volume   132.07031646
_cell_formula_units_Z   1
loop_
 _symmetry_equiv_pos_site_id
 _symmetry_equiv_pos_as_xyz
  1  'x, y, z'
loop_
 _atom_site_type_symbol
 _atom_site_label
 _atom_site_symmetry_multiplicity
 _atom_site_fract_x
 _atom_site_fract_y
 _atom_site_fract_z
 _atom_site_occupancy
  Ta  Ta0  1  0.66666700  0.33333300  0.05790221  1
  Be  Be0  1  0.00000000  0.00000000  0.50626987  1
  Be  Be1  1  0.00000000  0.00000000  0.00004689  1
  Be  Be2  1  0.66364438  0.83182119  0.24714212  1
  Be  Be3  1  0.16817881  0.83182119  0.24714212  1
  Be  Be4  1  0.16817881  0.33635562  0.24714212  1
  Be  Be5  1  0.33782670  0.16891435  0.75264237  1
  Be  Be6  1  0.83108565  0.16891435  0.75264237  1
  Be  Be7  1  0.83108565  0.66217330  0.75264237  1
  Nb  Nb0  1  0.66666700  0.33333300  0.43100337  1
  Nb  Nb1  1  0.33333300  0.66666700  0.57056545  1
  Rh  Rh0  1  0.33333300  0.66666700  0.93485772  1
loop_
_geom_bond_atom_site_label_1
_geom_bond_atom_site_label_2
_geom_bond_distance
_geom_bond_site_symmetry_2
Be0 Be7 2.261782 1_445
Be0 Be5 2.261782 1_555
Be0 Be6 2.261787 1_455
Be0 Be4 2.336130 1_555
Be0 Be2 2.336130 1_445
Be0 Be3 2.336134 1_545
Be0 Nb1 2.657017 1_545
Be0 Nb1 2.657020 1_555
Be0 Nb1 2.657020 1_445
Be0 Nb0 2.672926 1_455
Be0 Nb0 2.672929 1_445
Be0 Nb0 2.672929 1_555
Be1 Be4 2.262779 1_555
Be1 Be2 2.262779 1_445
Be1 Be3 2.262784 1_545
Be1 Be7 2.268013 1_444
Be1 Be5 2.268013 1_554
Be1 Be6 2.268017 1_454
Be1 Ta0 2.648805 1_455
Be1 Ta0 2.648809 1_445
Be1 Ta0 2.648809 1_555
Be1 Rh0 2.658222 1_544
Be1 Rh0 2.658226 1_554
Be1 Rh0 2.658226 1_444
Be2 Be4 2.242901 1_555
Be2 Be3 2.242901 1_555
Be2 Be4 2.283954 1_665
Be2 Be3 2.283955 1_655
Be2 Nb0 2.644881 1_555
Be2 Nb0 2.644885 1_565
Be2 Rh0 2.660402 1_554
Be2 Ta0 2.665808 1_555
Be2 Ta0 2.665812 1_565
Be2 Nb1 2.733112 1_555
Be3 Be4 2.242901 1_555
Be3 Be4 2.283955 1_565
Be3 Nb0 2.644883 1_565
Be3 Nb0 2.644883 1_455
Be3 Rh0 2.660397 1_554
Be3 Ta0 2.665810 1_565
Be3 Ta0 2.665810 1_455
Be3 Nb1 2.733106 1_555
Be4 Nb0 2.644881 1_555
Be4 Nb0 2.644885 1_455
Be4 Rh0 2.660402 1_554
Be4 Ta0 2.665808 1_555
Be4 Ta0 2.665812 1_455
Be4 Nb1 2.733112 1_555
Be5 Be7 2.232912 1_555
Be5 Be6 2.232912 1_555
Be5 Be7 2.293944 1_445
Be5 Be6 2.293944 1_455
Be5 Ta0 2.612010 1_556
Be5 Nb1 2.638068 1_555
Be5 Nb1 2.638072 1_545
Be5 Rh0 2.638598 1_555
Be5 Rh0 2.638602 1_545
Be5 Nb0 2.718686 1_555
Be6 Be7 2.232912 1_555
Be6 Be7 2.293944 1_545
Be6 Ta0 2.612004 1_556
Be6 Nb1 2.638070 1_545
Be6 Nb1 2.638070 1_655
Be6 Rh0 2.638599 1_545
Be6 Rh0 2.638599 1_655
Be6 Nb0 2.718681 1_555
Be7 Ta0 2.612010 1_556
Be7 Nb1 2.638068 1_555
Be7 Nb1 2.638072 1_655
Be7 Rh0 2.638598 1_555
Be7 Rh0 2.638602 1_655
Be7 Nb0 2.718686 1_555
Nb0 Ta0 2.776565 1_555
Nb0 Nb1 2.812381 1_545
Nb0 Nb1 2.812381 1_655
Nb0 Nb1 2.812388 1_555
Nb1 Rh0 2.711011 1_555
Rh0 Ta0 2.769343 1_566
Rh0 Ta0 2.769343 1_456
Rh0 Ta0 2.769351 1_556
