# generated using pymatgen
data_RbBa3(CrN2)4
_symmetry_space_group_name_H-M   'P 1'
_cell_length_a   6.46813082
_cell_length_b   6.46813098
_cell_length_c   7.85647895
_cell_angle_alpha   89.43385978
_cell_angle_beta   90.56613758
_cell_angle_gamma   126.59236520
_symmetry_Int_Tables_number   1
_chemical_formula_structural   RbBa3(CrN2)4
_chemical_formula_sum   'Rb1 Ba3 Cr4 N8'
_cell_volume   263.88747405
_cell_formula_units_Z   1
loop_
 _symmetry_equiv_pos_site_id
 _symmetry_equiv_pos_as_xyz
  1  'x, y, z'
loop_
 _atom_site_type_symbol
 _atom_site_label
 _atom_site_symmetry_multiplicity
 _atom_site_fract_x
 _atom_site_fract_y
 _atom_site_fract_z
 _atom_site_occupancy
  Rb  Rb0  1  0.83918034  0.16081966  0.56586328  1
  Ba  Ba0  1  0.16415011  0.83584989  0.44622687  1
  Ba  Ba1  1  0.66393616  0.33606384  0.06830357  1
  Ba  Ba2  1  0.33984482  0.66015518  0.92591163  1
  Cr  Cr0  1  0.54993357  0.45006643  0.63623744  1
  Cr  Cr1  1  0.44763804  0.55236196  0.35852571  1
  Cr  Cr2  1  0.95190766  0.04809234  0.13995550  1
  Cr  Cr3  1  0.04919506  0.95080494  0.86514445  1
  N  N0  1  0.89453154  0.10546846  0.92129353  1
  N  N1  1  0.10763916  0.89236084  0.08865271  1
  N  N2  1  0.60206208  0.39793792  0.41363136  1
  N  N3  1  0.39522882  0.60477118  0.58018667  1
  N  N4  1  0.34391724  0.15653028  0.75285957  1
  N  N5  1  0.15682663  0.34945996  0.24217357  1
  N  N6  1  0.65054004  0.84317337  0.24217357  1
  N  N7  1  0.84346972  0.65608276  0.75285957  1
loop_
_geom_bond_atom_site_label_1
_geom_bond_atom_site_label_2
_geom_bond_distance
_geom_bond_site_symmetry_2
Ba0 N3 2.859518 1_555
Ba0 N1 2.877140 1_555
Ba0 N7 2.936975 1_455
Ba0 N4 2.936975 1_565
Ba0 N2 3.004147 1_455
Ba0 N2 3.004147 1_565
Ba1 N2 2.813344 1_555
Ba1 N0 2.916098 1_554
Ba1 N7 2.977361 1_554
Ba1 N4 2.977361 1_554
Ba1 N1 2.983234 1_545
Ba1 N1 2.983234 1_655
Ba2 N3 2.797455 1_555
Ba2 N5 2.955815 1_556
Ba2 N6 2.955815 1_556
Ba2 N0 2.974858 1_565
Ba2 N0 2.974858 1_455
Ba2 N1 2.985253 1_556
Cr0 N4 1.786994 1_555
Cr0 N7 1.786994 1_555
Cr0 N3 1.836544 1_555
Cr0 N2 1.856036 1_555
Cr1 N6 1.772773 1_555
Cr1 N5 1.772773 1_555
Cr1 N2 1.831705 1_555
Cr1 N3 1.850108 1_555
Cr2 N6 1.769463 1_545
Cr2 N5 1.769463 1_655
Cr2 N0 1.834581 1_554
Cr2 N1 1.848638 1_645
Cr3 N4 1.780061 1_565
Cr3 N7 1.780061 1_455
Cr3 N0 1.845732 1_465
Cr3 N1 1.874416 1_556
N0 Rb0 2.857853 1_555
N2 Rb0 2.977741 1_555
N3 Rb0 2.979790 1_455
N3 Rb0 2.979790 1_565
N5 Rb0 3.038148 1_455
N6 Rb0 3.038148 1_565
