# generated using pymatgen
data_Sb12Ir2RuPt
_symmetry_space_group_name_H-M   'P 1'
_cell_length_a   8.09501387
_cell_length_b   8.09776675
_cell_length_c   8.09496668
_cell_angle_alpha   109.51320923
_cell_angle_beta   109.50220572
_cell_angle_gamma   109.52438529
_symmetry_Int_Tables_number   1
_chemical_formula_structural   Sb12Ir2RuPt
_chemical_formula_sum   'Sb12 Ir2 Ru1 Pt1'
_cell_volume   407.84778040
_cell_formula_units_Z   1
loop_
 _symmetry_equiv_pos_site_id
 _symmetry_equiv_pos_as_xyz
  1  'x, y, z'
loop_
 _atom_site_type_symbol
 _atom_site_label
 _atom_site_symmetry_multiplicity
 _atom_site_fract_x
 _atom_site_fract_y
 _atom_site_fract_z
 _atom_site_occupancy
  Sb  Sb0  1  0.84204783  0.65499356  0.50577234  1
  Sb  Sb1  1  0.84665285  0.33970488  0.18572025  1
  Sb  Sb2  1  0.15334715  0.66029512  0.81427975  1
  Sb  Sb3  1  0.33771889  0.49048039  0.15658139  1
  Sb  Sb4  1  0.15795217  0.34500644  0.49422766  1
  Sb  Sb5  1  0.65319216  0.80884138  0.14983136  1
  Sb  Sb6  1  0.19133900  0.84517561  0.34148858  1
  Sb  Sb7  1  0.66228111  0.50951961  0.84341861  1
  Sb  Sb8  1  0.80866100  0.15482439  0.65851142  1
  Sb  Sb9  1  0.34680784  0.19115862  0.85016864  1
  Sb  Sb10  1  0.50936740  0.84332378  0.66221780  1
  Sb  Sb11  1  0.49063260  0.15667622  0.33778220  1
  Ir  Ir0  1  0.00000000  0.50000000  0.00000000  1
  Ir  Ir1  1  0.50000000  0.00000000  0.00000000  1
  Ru  Ru0  1  0.50000000  0.50000000  0.50000000  1
  Pt  Pt0  1  0.00000000  0.00000000  0.50000000  1
loop_
_geom_bond_atom_site_label_1
_geom_bond_atom_site_label_2
_geom_bond_distance
_geom_bond_site_symmetry_2
Sb0 Sb2 2.871068 1_655
Sb0 Sb1 2.990210 1_555
Sb1 Sb4 2.871068 1_655
Sb2 Sb4 2.990210 1_555
Sb3 Sb9 2.873583 1_554
Sb3 Sb5 2.992909 1_555
Sb5 Sb7 2.873583 1_554
Sb7 Sb9 2.992909 1_555
Sb10 Sb8 2.871888 1_565
Sb10 Sb6 2.992944 1_555
Sb11 Sb6 2.871888 1_545
Sb11 Sb8 2.992944 1_555
Ir0 Sb6 2.634204 1_555
Ir0 Sb8 2.634204 1_454
Ir0 Sb2 2.637944 1_554
Ir0 Sb1 2.637944 1_455
Ir0 Sb3 2.641761 1_555
Ir0 Sb7 2.641761 1_454
Ir1 Sb5 2.634042 1_545
Ir1 Sb9 2.634042 1_554
Ir1 Sb1 2.638670 1_555
Ir1 Sb2 2.638670 1_544
Ir1 Sb11 2.641441 1_555
Ir1 Sb10 2.641441 1_544
Ru0 Sb4 2.606858 1_555
Ru0 Sb0 2.606858 1_555
Ru0 Sb7 2.609722 1_555
Ru0 Sb3 2.609722 1_555
Ru0 Sb10 2.610190 1_555
Ru0 Sb11 2.610190 1_555
Pt0 Sb9 2.676429 1_555
Pt0 Sb5 2.676429 1_445
Pt0 Sb8 2.677248 1_455
Pt0 Sb6 2.677248 1_545
Pt0 Sb0 2.679863 1_445
Pt0 Sb4 2.679863 1_555
