# generated using pymatgen
data_Ta9Ti(AlSi2)2
_symmetry_space_group_name_H-M   'P 1'
_cell_length_a   7.55816211
_cell_length_b   7.55816271
_cell_length_c   7.55816261
_cell_angle_alpha   128.37720641
_cell_angle_beta   128.37720765
_cell_angle_gamma   76.01475726
_symmetry_Int_Tables_number   1
_chemical_formula_structural   Ta9Ti(AlSi2)2
_chemical_formula_sum   'Ta9 Ti1 Al2 Si4'
_cell_volume   257.98487276
_cell_formula_units_Z   1
loop_
 _symmetry_equiv_pos_site_id
 _symmetry_equiv_pos_as_xyz
  1  'x, y, z'
loop_
 _atom_site_type_symbol
 _atom_site_label
 _atom_site_symmetry_multiplicity
 _atom_site_fract_x
 _atom_site_fract_y
 _atom_site_fract_z
 _atom_site_occupancy
  Ta  Ta0  1  0.01782010  0.18840387  0.50202312  1
  Ta  Ta1  1  0.68638075  0.51579698  0.49797688  1
  Ta  Ta2  1  0.51579698  0.01782010  0.82941724  1
  Ta  Ta3  1  0.18840387  0.68638075  0.17058276  1
  Ta  Ta4  1  0.98217990  0.81159613  0.49797688  1
  Ta  Ta5  1  0.31361925  0.48420302  0.50202312  1
  Ta  Ta6  1  0.48420302  0.98217990  0.17058276  1
  Ta  Ta7  1  0.81159613  0.31361925  0.82941724  1
  Ta  Ta8  1  0.50000000  0.50000000  0.00000000  1
  Ti  Ti0  1  0.00000000  0.00000000  0.00000000  1
  Al  Al0  1  0.75125876  0.75125876  0.00000000  1
  Al  Al1  1  0.24874124  0.24874124  0.00000000  1
  Si  Si0  1  0.36658219  0.12694601  0.49352820  1
  Si  Si1  1  0.63341781  0.87305399  0.50647180  1
  Si  Si2  1  0.87305399  0.36658219  0.23963518  1
  Si  Si3  1  0.12694601  0.63341781  0.76036482  1
loop_
_geom_bond_atom_site_label_1
_geom_bond_atom_site_label_2
_geom_bond_distance
_geom_bond_site_symmetry_2
Al0 Ta6 2.741730 1_555
Al0 Ta5 2.741734 1_554
Al0 Ta4 2.741734 1_555
Al0 Ta7 2.741735 1_554
Al0 Ta2 2.744412 1_564
Al0 Ta1 2.744416 1_554
Al0 Ta0 2.744416 1_665
Al0 Ta3 2.744417 1_655
Al0 Ti0 2.962664 1_665
Al0 Ta8 2.992650 1_555
Al1 Ta2 2.741730 1_554
Al1 Ta1 2.741734 1_555
Al1 Ta0 2.741734 1_554
Al1 Ta3 2.741735 1_555
Al1 Ta6 2.744412 1_545
Al1 Ta5 2.744416 1_555
Al1 Ta4 2.744416 1_444
Al1 Ta7 2.744417 1_454
Al1 Ti0 2.962664 1_555
Al1 Ta8 2.992650 1_555
Si0 Si1 2.424234 1_545
Si0 Ti0 2.553347 1_555
Si0 Ta0 2.598014 1_555
Si0 Ta5 2.598014 1_555
Si0 Ta8 2.607670 1_556
Si0 Ta3 2.617894 1_545
Si0 Ta6 2.617902 1_545
Si0 Ta7 2.644322 1_555
Si0 Ta2 2.644330 1_555
Si1 Ti0 2.553347 1_666
Si1 Ta4 2.598014 1_555
Si1 Ta1 2.598014 1_555
Si1 Ta8 2.607670 1_555
Si1 Ta7 2.617894 1_565
Si1 Ta2 2.617902 1_565
Si1 Ta3 2.644322 1_555
Si1 Ta6 2.644330 1_555
Si2 Si3 2.424243 1_655
Si2 Ti0 2.553345 1_655
Si2 Ta7 2.598000 1_554
Si2 Ta2 2.598016 1_554
Si2 Ta8 2.607667 1_555
Si2 Ta5 2.617893 1_655
Si2 Ta0 2.617901 1_655
Si2 Ta4 2.644322 1_555
Si2 Ta1 2.644330 1_555
Si3 Ti0 2.553345 1_566
Si3 Ta3 2.598000 1_556
Si3 Ta6 2.598016 1_556
Si3 Ta8 2.607667 1_556
Si3 Ta1 2.617893 1_455
Si3 Ta4 2.617901 1_455
Si3 Ta0 2.644322 1_555
Si3 Ta5 2.644330 1_555
