# generated using pymatgen
data_Zr3AlRh2N
_symmetry_space_group_name_H-M   'P 1'
_cell_length_a   8.52728766
_cell_length_b   8.52728770
_cell_length_c   8.52728790
_cell_angle_alpha   59.99999923
_cell_angle_beta   59.99999904
_cell_angle_gamma   59.99999735
_symmetry_Int_Tables_number   1
_chemical_formula_structural   Zr3AlRh2N
_chemical_formula_sum   'Zr12 Al4 Rh8 N4'
_cell_volume   438.44764683
_cell_formula_units_Z   4
loop_
 _symmetry_equiv_pos_site_id
 _symmetry_equiv_pos_as_xyz
  1  'x, y, z'
loop_
 _atom_site_type_symbol
 _atom_site_label
 _atom_site_symmetry_multiplicity
 _atom_site_fract_x
 _atom_site_fract_y
 _atom_site_fract_z
 _atom_site_occupancy
  Zr  Zr0  1  0.80977971  0.80977971  0.19022029  1
  Zr  Zr1  1  0.19022029  0.19022029  0.80977971  1
  Zr  Zr2  1  0.80977971  0.19022029  0.80977971  1
  Zr  Zr3  1  0.19022029  0.80977971  0.19022029  1
  Zr  Zr4  1  0.19022029  0.80977971  0.80977971  1
  Zr  Zr5  1  0.80977971  0.19022029  0.19022029  1
  Zr  Zr6  1  0.44022029  0.44022029  0.05977971  1
  Zr  Zr7  1  0.05977971  0.05977971  0.44022029  1
  Zr  Zr8  1  0.44022029  0.05977971  0.44022029  1
  Zr  Zr9  1  0.05977971  0.44022029  0.05977971  1
  Zr  Zr10  1  0.05977971  0.44022029  0.44022029  1
  Zr  Zr11  1  0.44022029  0.05977971  0.05977971  1
  Al  Al0  1  0.12500000  0.62500000  0.62500000  1
  Al  Al1  1  0.62500000  0.12500000  0.62500000  1
  Al  Al2  1  0.62500000  0.62500000  0.12500000  1
  Al  Al3  1  0.62500000  0.62500000  0.62500000  1
  Rh  Rh0  1  0.75344493  0.41551769  0.41551769  1
  Rh  Rh1  1  0.41551769  0.75344493  0.41551769  1
  Rh  Rh2  1  0.41551769  0.41551769  0.75344493  1
  Rh  Rh3  1  0.41551769  0.41551769  0.41551769  1
  Rh  Rh4  1  0.49655507  0.83448231  0.83448231  1
  Rh  Rh5  1  0.83448231  0.49655507  0.83448231  1
  Rh  Rh6  1  0.83448231  0.83448231  0.49655507  1
  Rh  Rh7  1  0.83448231  0.83448231  0.83448231  1
  N  N0  1  0.62500000  0.12500000  0.12500000  1
  N  N1  1  0.12500000  0.62500000  0.12500000  1
  N  N2  1  0.12500000  0.12500000  0.62500000  1
  N  N3  1  0.12500000  0.12500000  0.12500000  1
loop_
_geom_bond_atom_site_label_1
_geom_bond_atom_site_label_2
_geom_bond_distance
_geom_bond_site_symmetry_2
Al0 Rh2 2.619026 1_555
Al0 Rh6 2.619026 1_455
Al0 Rh1 2.619026 1_555
Al0 Rh5 2.619026 1_455
Al0 Rh7 2.619035 1_455
Al0 Rh3 2.619035 1_555
Al1 Rh2 2.619026 1_555
Al1 Rh6 2.619026 1_545
Al1 Rh0 2.619026 1_555
Al1 Rh4 2.619026 1_545
Al1 Rh7 2.619035 1_545
Al1 Rh3 2.619035 1_555
Al2 Rh1 2.619026 1_555
Al2 Rh5 2.619026 1_554
Al2 Rh0 2.619026 1_555
Al2 Rh4 2.619026 1_554
Al2 Rh7 2.619035 1_554
Al2 Rh3 2.619035 1_555
Al3 Rh5 2.619040 1_555
Al3 Rh1 2.619040 1_555
Al3 Rh4 2.619040 1_555
Al3 Rh0 2.619040 1_555
Al3 Rh6 2.619040 1_555
Al3 Rh2 2.619040 1_555
Rh0 Zr7 2.838516 1_655
Rh0 Zr9 2.838516 1_655
Rh0 Zr10 2.838526 1_655
Rh0 Zr5 3.075340 1_555
Rh0 Zr0 3.075355 1_555
Rh0 Zr2 3.075355 1_555
Rh1 Zr7 2.838516 1_565
Rh1 Zr11 2.838516 1_565
Rh1 Zr8 2.838526 1_565
Rh1 Zr3 3.075340 1_555
Rh1 Zr0 3.075355 1_555
Rh1 Zr4 3.075355 1_555
Rh2 Zr9 2.838516 1_556
Rh2 Zr11 2.838516 1_556
Rh2 Zr6 2.838526 1_556
Rh2 Zr1 3.075340 1_555
Rh2 Zr2 3.075355 1_555
Rh2 Zr4 3.075355 1_555
Rh3 Zr10 2.838509 1_555
Rh3 Zr8 2.838509 1_555
Rh3 Zr6 2.838509 1_555
Rh3 Zr5 3.075348 1_555
Rh3 Zr3 3.075348 1_555
Rh3 Zr1 3.075348 1_555
Rh4 Zr1 2.838516 1_565
Rh4 Zr3 2.838516 1_556
Rh4 Zr4 2.838526 1_555
Rh4 Zr11 3.075340 1_566
Rh4 Zr6 3.075355 1_556
Rh4 Zr8 3.075355 1_565
Rh5 Zr1 2.838516 1_655
Rh5 Zr5 2.838516 1_556
Rh5 Zr2 2.838526 1_555
Rh5 Zr9 3.075340 1_656
Rh5 Zr6 3.075355 1_556
Rh5 Zr10 3.075355 1_655
Rh6 Zr3 2.838516 1_655
Rh6 Zr5 2.838516 1_565
Rh6 Zr0 2.838526 1_555
Rh6 Zr7 3.075340 1_665
Rh6 Zr8 3.075355 1_565
Rh6 Zr10 3.075355 1_655
Rh7 Zr4 2.838509 1_655
Rh7 Zr2 2.838509 1_565
Rh7 Zr0 2.838509 1_556
Rh7 Zr11 3.075348 1_566
Rh7 Zr9 3.075348 1_656
Rh7 Zr7 3.075348 1_665
N0 Zr6 2.272284 1_555
N0 Zr0 2.272284 1_545
N0 Zr5 2.272284 1_555
N0 Zr8 2.272284 1_555
N0 Zr2 2.272284 1_554
N0 Zr11 2.272284 1_555
N1 Zr6 2.272284 1_555
N1 Zr0 2.272284 1_455
N1 Zr3 2.272284 1_555
N1 Zr10 2.272284 1_555
N1 Zr4 2.272284 1_554
N1 Zr9 2.272284 1_555
N2 Zr8 2.272284 1_555
N2 Zr2 2.272284 1_455
N2 Zr10 2.272284 1_555
N2 Zr4 2.272284 1_545
N2 Zr1 2.272284 1_555
N2 Zr7 2.272284 1_555
N3 Zr11 2.272284 1_555
N3 Zr5 2.272284 1_455
N3 Zr9 2.272284 1_555
N3 Zr3 2.272284 1_545
N3 Zr7 2.272284 1_555
N3 Zr1 2.272284 1_554
