# generated using pymatgen
data_Sc11(SbO8)3
_symmetry_space_group_name_H-M   'P 1'
_cell_length_a   7.87381009
_cell_length_b   7.90119613
_cell_length_c   7.94973890
_cell_angle_alpha   71.52526057
_cell_angle_beta   72.59248765
_cell_angle_gamma   72.35868218
_symmetry_Int_Tables_number   1
_chemical_formula_structural   Sc11(SbO8)3
_chemical_formula_sum   'Sc11 Sb3 O24'
_cell_volume   435.58954392
_cell_formula_units_Z   1
loop_
 _symmetry_equiv_pos_site_id
 _symmetry_equiv_pos_as_xyz
  1  'x, y, z'
loop_
 _atom_site_type_symbol
 _atom_site_label
 _atom_site_symmetry_multiplicity
 _atom_site_fract_x
 _atom_site_fract_y
 _atom_site_fract_z
 _atom_site_occupancy
  Sc  Sc0  1  0.39023563  0.92244695  0.22525121  1
  Sc  Sc1  1  0.71025079  0.89616662  0.43895642  1
  Sc  Sc2  1  0.41154906  0.71834365  0.89415837  1
  Sc  Sc3  1  0.07646174  0.78845682  0.60277258  1
  Sc  Sc4  1  0.89662022  0.42497967  0.70385457  1
  Sc  Sc5  1  0.22450130  0.38629930  0.92175723  1
  Sc  Sc6  1  0.11173889  0.57723042  0.28368646  1
  Sc  Sc7  1  0.92871116  0.21025478  0.39444219  1
  Sc  Sc8  1  0.57284913  0.27652832  0.10711871  1
  Sc  Sc9  1  0.28494069  0.10922736  0.57427923  1
  Sc  Sc10  1  0.60863302  0.08048556  0.77915454  1
  Sb  Sb0  1  0.99800718  0.00117581  0.99775788  1
  Sb  Sb1  1  0.50080998  0.50594612  0.50127082  1
  Sb  Sb2  1  0.79277009  0.60165096  0.05903144  1
  O  O0  1  0.13873660  0.90969034  0.77897486  1
  O  O1  1  0.57983393  0.73429608  0.38273182  1
  O  O2  1  0.50595986  0.91667437  0.68154784  1
  O  O3  1  0.21751985  0.85792236  0.09366453  1
  O  O4  1  0.83121159  0.99321082  0.58929551  1
  O  O5  1  0.91839175  0.67227802  0.50406358  1
  O  O6  1  0.59329417  0.81317002  0.00579917  1
  O  O7  1  0.68048261  0.50484938  0.91750725  1
  O  O8  1  0.27929860  0.64041538  0.40900968  1
  O  O9  1  0.98717853  0.59470616  0.83235654  1
  O  O10  1  0.90803882  0.76401942  0.12549328  1
  O  O11  1  0.64048598  0.43430753  0.26475959  1
  O  O12  1  0.36361259  0.58489039  0.72722135  1
  O  O13  1  0.08665771  0.22707743  0.86037383  1
  O  O14  1  0.99564360  0.41664284  0.16179469  1
  O  O15  1  0.72373770  0.36103393  0.58861799  1
  O  O16  1  0.32840945  0.48528412  0.08663792  1
  O  O17  1  0.41514386  0.16134578  0.00747018  1
  O  O18  1  0.08633966  0.33154318  0.48483167  1
  O  O19  1  0.17042460  0.00948887  0.41340499  1
  O  O20  1  0.77356950  0.13334439  0.91259821  1
  O  O21  1  0.49088293  0.09206906  0.33410248  1
  O  O22  1  0.41312978  0.28041694  0.63067374  1
  O  O23  1  0.86393845  0.08212986  0.22358063  1
loop_
_geom_bond_atom_site_label_1
_geom_bond_atom_site_label_2
_geom_bond_distance
_geom_bond_site_symmetry_2
O0 Sb0 1.983324 1_465
O0 Sc3 2.160128 1_555
O0 Sc9 2.193650 1_565
O0 Sc2 2.463638 1_555
O1 Sb1 1.944868 1_555
O1 Sc1 2.079181 1_555
O1 Sc0 2.144656 1_555
O2 Sc2 2.034867 1_555
O2 Sc1 2.125300 1_555
O2 Sc9 2.128682 1_565
O2 Sc10 2.139375 1_565
O3 Sb0 1.976258 1_464
O3 Sc2 2.168705 1_554
O3 Sc0 2.193862 1_555
O3 Sc6 2.477467 1_555
O4 Sc10 2.041921 1_565
O4 Sc7 2.081493 1_565
O4 Sc3 2.116158 1_655
O4 Sc1 2.151265 1_555
O5 Sc1 2.062312 1_555
O5 Sc4 2.107892 1_555
O5 Sc6 2.120373 1_655
O5 Sc3 2.177347 1_655
O6 Sb2 1.948722 1_555
O6 Sc0 2.189605 1_555
O6 Sc2 2.286504 1_554
O6 Sc10 2.309661 1_564
O7 Sb2 2.045213 1_556
O7 Sc4 2.116171 1_555
O7 Sc8 2.164192 1_556
O7 Sc2 2.288143 1_555
O8 Sb1 1.963964 1_555
O8 Sc6 2.117400 1_555
O8 Sc3 2.197567 1_555
O8 Sc0 2.493174 1_555
O9 Sb2 1.988645 1_556
O9 Sc3 2.069462 1_655
O9 Sc5 2.212758 1_655
O9 Sc4 2.287803 1_555
O10 Sb2 2.042303 1_555
O10 Sb0 2.052412 1_564
O10 Sc6 2.219909 1_655
O11 Sb1 2.031014 1_555
O11 Sb2 2.068302 1_555
O11 Sc8 2.280382 1_555
O11 Sc7 2.674919 1_555
O12 Sb1 1.980709 1_555
O12 Sc2 2.107920 1_555
O12 Sc5 2.131618 1_555
O12 Sc3 2.608348 1_555
O13 Sb0 1.982280 1_455
O13 Sc5 2.128936 1_555
O13 Sc4 2.166800 1_455
O13 Sc9 2.610324 1_555
O14 Sb2 1.991109 1_555
O14 Sc7 2.093758 1_555
O14 Sc5 2.217352 1_654
O14 Sc6 2.323089 1_655
O15 Sb1 1.970136 1_555
O15 Sc4 2.098536 1_555
O15 Sc7 2.217285 1_555
O15 Sc10 2.509521 1_555
O16 Sc6 2.064748 1_555
O16 Sc2 2.122824 1_554
O16 Sc8 2.131804 1_555
O16 Sc5 2.162946 1_554
O17 Sc5 2.025833 1_554
O17 Sc10 2.124638 1_554
O17 Sc0 2.132819 1_545
O17 Sc8 2.174433 1_555
O18 Sc9 2.060404 1_555
O18 Sc4 2.097185 1_455
O18 Sc6 2.107598 1_555
O18 Sc7 2.160121 1_455
O19 Sc0 2.021720 1_545
O19 Sc3 2.077049 1_545
O19 Sc7 2.086016 1_455
O19 Sc9 2.197513 1_555
O20 Sb0 1.954738 1_555
O20 Sc10 2.102439 1_555
O20 Sc8 2.175252 1_556
O20 Sc4 2.640058 1_555
O21 Sc8 2.000829 1_555
O21 Sc9 2.114642 1_555
O21 Sc1 2.120707 1_545
O21 Sc0 2.227575 1_545
O22 Sb1 1.967018 1_555
O22 Sc9 2.128812 1_555
O22 Sc10 2.165615 1_555
O22 Sc5 2.584180 1_555
O23 Sb0 1.982661 1_554
O23 Sc7 2.174590 1_555
O23 Sc1 2.190535 1_545
O23 Sc8 2.589248 1_555
