# generated using pymatgen
data_CsAlCdF6
_symmetry_space_group_name_H-M   'P 1'
_cell_length_a   7.22898969
_cell_length_b   7.65819061
_cell_length_c   10.23968825
_cell_angle_alpha   90.00000000
_cell_angle_beta   90.00000000
_cell_angle_gamma   90.00000000
_symmetry_Int_Tables_number   1
_chemical_formula_structural   CsAlCdF6
_chemical_formula_sum   'Cs4 Al4 Cd4 F24'
_cell_volume   566.87918642
_cell_formula_units_Z   4
loop_
 _symmetry_equiv_pos_site_id
 _symmetry_equiv_pos_as_xyz
  1  'x, y, z'
loop_
 _atom_site_type_symbol
 _atom_site_label
 _atom_site_symmetry_multiplicity
 _atom_site_fract_x
 _atom_site_fract_y
 _atom_site_fract_z
 _atom_site_occupancy
  Cs  Cs0  1  0.25000000  0.99354652  0.64610150  1
  Cs  Cs1  1  0.75000000  0.00645348  0.35389850  1
  Cs  Cs2  1  0.25000000  0.49354652  0.85389850  1
  Cs  Cs3  1  0.75000000  0.50645348  0.14610150  1
  Al  Al0  1  0.00000000  0.50000000  0.50000000  1
  Al  Al1  1  0.50000000  0.50000000  0.50000000  1
  Al  Al2  1  0.50000000  0.00000000  0.00000000  1
  Al  Al3  1  0.00000000  0.00000000  0.00000000  1
  Cd  Cd0  1  0.25000000  0.75796730  0.25082881  1
  Cd  Cd1  1  0.75000000  0.24203270  0.74917119  1
  Cd  Cd2  1  0.25000000  0.25796730  0.24917119  1
  Cd  Cd3  1  0.75000000  0.74203270  0.75082881  1
  F  F0  1  0.98697297  0.32716868  0.61860890  1
  F  F1  1  0.48697297  0.67283132  0.38139110  1
  F  F2  1  0.51302703  0.82716868  0.88139110  1
  F  F3  1  0.01302703  0.17283132  0.11860890  1
  F  F4  1  0.01302703  0.67283132  0.38139110  1
  F  F5  1  0.51302703  0.32716868  0.61860890  1
  F  F6  1  0.48697297  0.17283132  0.11860890  1
  F  F7  1  0.98697297  0.82716868  0.88139110  1
  F  F8  1  0.99772756  0.15847937  0.87029840  1
  F  F9  1  0.49772756  0.84152063  0.12970160  1
  F  F10  1  0.50227244  0.65847937  0.62970160  1
  F  F11  1  0.00227244  0.34152063  0.37029840  1
  F  F12  1  0.75000000  0.99117158  0.64682782  1
  F  F13  1  0.25000000  0.00882842  0.35317218  1
  F  F14  1  0.75000000  0.49117158  0.85317218  1
  F  F15  1  0.25000000  0.50882842  0.14682782  1
  F  F16  1  0.75000000  0.00922530  0.00794135  1
  F  F17  1  0.25000000  0.99077470  0.99205865  1
  F  F18  1  0.75000000  0.50922530  0.49205865  1
  F  F19  1  0.25000000  0.49077470  0.50794135  1
  F  F20  1  0.99772756  0.65847937  0.62970160  1
  F  F21  1  0.49772756  0.34152063  0.37029840  1
  F  F22  1  0.50227244  0.15847937  0.87029840  1
  F  F23  1  0.00227244  0.84152063  0.12970160  1
loop_
_geom_bond_atom_site_label_1
_geom_bond_atom_site_label_2
_geom_bond_distance
_geom_bond_site_symmetry_2
Cs0 F13 3.001787 1_565
Cs0 F10 3.152521 1_555
Cs0 F20 3.152521 1_455
Cs0 F22 3.192405 1_565
Cs0 F8 3.192405 1_465
Cs0 F5 3.197245 1_565
Cs0 F0 3.197245 1_465
Cs0 F2 3.323184 1_555
Cs0 F7 3.323184 1_455
Cs0 F17 3.542557 1_555
Cs0 F12 3.614548 1_555
Cs0 F12 3.614548 1_455
Cs1 F12 3.001787 1_545
Cs1 F11 3.152521 1_655
Cs1 F21 3.152521 1_555
Cs1 F23 3.192405 1_645
Cs1 F9 3.192405 1_545
Cs1 F4 3.197245 1_645
Cs1 F1 3.197245 1_545
Cs1 F3 3.323184 1_655
Cs1 F6 3.323184 1_555
Cs1 F16 3.542557 1_555
Cs1 F13 3.614548 1_555
Cs1 F13 3.614548 1_655
Cs2 F15 3.001787 1_556
Cs2 F22 3.152521 1_555
Cs2 F8 3.152521 1_455
Cs2 F10 3.192405 1_555
Cs2 F20 3.192405 1_455
Cs2 F2 3.197245 1_555
Cs2 F7 3.197245 1_455
Cs2 F5 3.323184 1_555
Cs2 F0 3.323184 1_455
Cs2 F19 3.542557 1_555
Cs2 F14 3.614548 1_455
Cs2 F14 3.614548 1_555
Cs3 F14 3.001787 1_554
Cs3 F23 3.152521 1_655
Cs3 F9 3.152521 1_555
Cs3 F11 3.192405 1_655
Cs3 F21 3.192405 1_555
Cs3 F3 3.197245 1_655
Cs3 F6 3.197245 1_555
Cs3 F4 3.323184 1_655
Cs3 F1 3.323184 1_555
Cs3 F18 3.542557 1_555
Cs3 F15 3.614548 1_655
Cs3 F15 3.614548 1_555
Al0 F0 1.798826 1_455
Al0 F4 1.798826 1_555
Al0 F20 1.799198 1_455
Al0 F11 1.799198 1_555
Al0 F19 1.810455 1_555
Al0 F18 1.810455 1_455
Al1 F5 1.798826 1_555
Al1 F1 1.798826 1_555
Al1 F10 1.799198 1_555
Al1 F21 1.799198 1_555
Al1 F18 1.810455 1_555
Al1 F19 1.810455 1_555
Al2 F6 1.798826 1_555
Al2 F2 1.798826 1_544
Al2 F9 1.799198 1_545
Al2 F22 1.799198 1_554
Al2 F16 1.810455 1_555
Al2 F17 1.810455 1_544
Al3 F3 1.798826 1_555
Al3 F7 1.798826 1_444
Al3 F23 1.799198 1_545
Al3 F8 1.799198 1_454
Al3 F16 1.810455 1_455
Al3 F17 1.810455 1_544
Cd0 F15 2.185035 1_555
Cd0 F13 2.188382 1_565
Cd0 F1 2.268714 1_555
Cd0 F4 2.268714 1_555
Cd0 F9 2.270423 1_555
Cd0 F23 2.270423 1_555
Cd1 F14 2.185035 1_555
Cd1 F12 2.188382 1_545
Cd1 F0 2.268714 1_555
Cd1 F5 2.268714 1_555
Cd1 F8 2.270423 1_555
Cd1 F22 2.270423 1_555
Cd2 F13 2.185035 1_555
Cd2 F15 2.188382 1_555
Cd2 F6 2.268714 1_555
Cd2 F3 2.268714 1_555
Cd2 F21 2.270423 1_555
Cd2 F11 2.270423 1_555
Cd3 F12 2.185035 1_555
Cd3 F14 2.188382 1_555
Cd3 F7 2.268714 1_555
Cd3 F2 2.268714 1_555
Cd3 F20 2.270423 1_555
Cd3 F10 2.270423 1_555
