# generated using pymatgen
data_Sr9Cd4Bi9
_symmetry_space_group_name_H-M   'P 1'
_cell_length_a   4.92851629
_cell_length_b   13.37509040
_cell_length_c   23.58721249
_cell_angle_alpha   89.99999363
_cell_angle_beta   90.00000449
_cell_angle_gamma   90.00000158
_symmetry_Int_Tables_number   1
_chemical_formula_structural   Sr9Cd4Bi9
_chemical_formula_sum   'Sr18 Cd8 Bi18'
_cell_volume   1554.85373727
_cell_formula_units_Z   2
loop_
 _symmetry_equiv_pos_site_id
 _symmetry_equiv_pos_as_xyz
  1  'x, y, z'
loop_
 _atom_site_type_symbol
 _atom_site_label
 _atom_site_symmetry_multiplicity
 _atom_site_fract_x
 _atom_site_fract_y
 _atom_site_fract_z
 _atom_site_occupancy
  Sr  Sr0  1  0.00000009  0.36762993  0.63572213  1
  Sr  Sr1  1  0.00000005  0.56546181  0.91080646  1
  Sr  Sr2  1  1.00000059  0.63237186  0.36429065  1
  Sr  Sr3  1  0.99999993  0.43454276  0.08917270  1
  Sr  Sr4  1  0.99999964  0.13240928  0.13570034  1
  Sr  Sr5  1  1.00000029  0.86758167  0.86428570  1
  Sr  Sr6  1  0.50000011  0.50000852  0.50001506  1
  Sr  Sr7  1  0.49999976  1.00000583  0.99999012  1
  Sr  Sr8  1  0.50000004  0.70926111  0.10257310  1
  Sr  Sr9  1  0.50000019  0.29073765  0.89742021  1
  Sr  Sr10  1  0.50000020  0.20931522  0.39741606  1
  Sr  Sr11  1  0.49999991  0.79067387  0.60259262  1
  Sr  Sr12  1  1.00000055  0.87508050  0.23574403  1
  Sr  Sr13  1  -0.00000056  0.12491721  0.76424740  1
  Sr  Sr14  1  0.99999996  0.37511218  0.26423584  1
  Sr  Sr15  1  0.99999955  0.62488563  0.73576649  1
  Sr  Sr16  1  0.99999998  0.93452753  0.41081777  1
  Sr  Sr17  1  1.00000004  0.06547071  0.58920164  1
  Cd  Cd0  1  0.49999938  0.72875345  0.95435548  1
  Cd  Cd1  1  0.50000010  0.27124359  0.04566729  1
  Cd  Cd2  1  0.50000044  0.22879772  0.54565195  1
  Cd  Cd3  1  0.49999984  0.77120105  0.45433381  1
  Cd  Cd4  1  0.49999989  0.61335667  0.26144219  1
  Cd  Cd5  1  0.49999979  0.11336754  0.23854723  1
  Cd  Cd6  1  0.50000040  0.38665324  0.73855640  1
  Cd  Cd7  1  0.49999990  0.88661397  0.76144754  1
  Bi  Bi0  1  0.50000013  0.80997473  0.33144363  1
  Bi  Bi1  1  0.50000001  0.19003182  0.66856929  1
  Bi  Bi2  1  0.49999989  0.31001078  0.16854668  1
  Bi  Bi3  1  0.49999995  0.68998904  0.83144049  1
  Bi  Bi4  1  0.50000000  0.95708052  0.14610252  1
  Bi  Bi5  1  0.50000009  0.04290920  0.85388501  1
  Bi  Bi6  1  0.50000008  0.45708025  0.35388847  1
  Bi  Bi7  1  0.49999991  0.54292111  0.64612101  1
  Bi  Bi8  1  0.99999985  0.61769144  0.19266293  1
  Bi  Bi9  1  0.00000027  0.38232173  0.80732794  1
  Bi  Bi10  1  -0.00000020  0.11772050  0.30733048  1
  Bi  Bi11  1  0.99999997  0.88227755  0.69267545  1
  Bi  Bi12  1  0.99999974  0.81057447  0.00935250  1
  Bi  Bi13  1  0.00000010  0.18942855  0.99062578  1
  Bi  Bi14  1  1.00000014  0.31061707  0.49065006  1
  Bi  Bi15  1  -0.00000003  0.68938817  0.50937674  1
  Bi  Bi16  1  0.49999999  -0.00000189  0.50001009  1
  Bi  Bi17  1  0.50000004  0.50000445  0.99999073  1
loop_
_geom_bond_atom_site_label_1
_geom_bond_atom_site_label_2
_geom_bond_distance
_geom_bond_site_symmetry_2
Cd0 Sr1 3.449308 1_555
Cd0 Sr1 3.449313 1_655
Cd0 Sr8 3.505748 1_556
Cd0 Sr5 3.746182 1_455
Cd0 Sr5 3.746188 1_555
Cd0 Sr7 3.784335 1_555
Cd1 Sr3 3.449067 1_555
Cd1 Sr3 3.449069 1_455
Cd1 Sr9 3.506443 1_554
Cd1 Sr4 3.745732 1_555
Cd1 Sr4 3.745736 1_455
Cd1 Sr7 3.784433 1_544
Cd2 Sr17 3.449613 1_555
Cd2 Sr17 3.449616 1_455
Cd2 Sr10 3.506168 1_555
Cd2 Sr0 3.746216 1_655
Cd2 Sr0 3.746218 1_555
Cd2 Sr6 3.783817 1_555
Cd3 Sr16 3.449373 1_455
Cd3 Sr16 3.449374 1_555
Cd3 Sr11 3.506698 1_555
Cd3 Sr2 3.745833 1_455
Cd3 Sr2 3.745838 1_555
Cd3 Sr6 3.783880 1_555
Cd4 Sr2 3.467314 1_455
Cd4 Sr2 3.467319 1_555
Cd5 Sr4 3.467316 1_555
Cd5 Sr4 3.467317 1_455
Cd6 Sr0 3.467089 1_655
Cd6 Sr0 3.467091 1_555
Cd7 Sr5 3.467162 1_455
Cd7 Sr5 3.467165 1_555
Bi0 Cd3 2.944663 1_555
Bi0 Cd4 3.105161 1_555
Bi0 Sr12 3.453431 1_455
Bi0 Sr12 3.453434 1_555
Bi0 Sr2 3.509360 1_455
Bi0 Sr2 3.509363 1_555
Bi0 Sr16 3.514682 1_555
Bi0 Sr16 3.514684 1_455
Bi1 Cd2 2.945276 1_555
Bi1 Cd6 3.105020 1_555
Bi1 Sr13 3.453129 1_655
Bi1 Sr13 3.453133 1_555
Bi1 Sr0 3.509319 1_555
Bi1 Sr0 3.509320 1_655
Bi1 Sr17 3.514654 1_455
Bi1 Sr17 3.514654 1_555
Bi2 Cd1 2.944398 1_555
Bi2 Cd5 3.105435 1_555
Bi2 Sr14 3.453257 1_455
Bi2 Sr14 3.453257 1_555
Bi2 Sr4 3.509345 1_555
Bi2 Sr4 3.509347 1_455
Bi2 Sr3 3.514549 1_455
Bi2 Sr3 3.514549 1_555
Bi3 Cd0 2.945218 1_555
Bi3 Cd7 3.105132 1_555
Bi3 Sr15 3.453029 1_555
Bi3 Sr15 3.453031 1_455
Bi3 Sr5 3.509259 1_455
Bi3 Sr5 3.509261 1_555
Bi3 Sr1 3.514418 1_555
Bi3 Sr1 3.514418 1_655
Bi4 Cd5 3.020631 1_565
Bi4 Sr4 3.410566 1_565
Bi4 Sr4 3.410569 1_465
Bi4 Sr12 3.427257 1_455
Bi4 Sr12 3.427261 1_555
Bi4 Sr8 3.469987 1_555
Bi4 Sr7 3.493879 1_554
Bi5 Cd7 3.020584 1_545
Bi5 Sr5 3.410553 1_445
Bi5 Sr5 3.410555 1_545
Bi5 Sr13 3.427234 1_655
Bi5 Sr13 3.427239 1_555
Bi5 Sr9 3.470143 1_555
Bi5 Sr7 3.493661 1_545
Bi6 Cd4 3.020560 1_555
Bi6 Sr2 3.410224 1_455
Bi6 Sr2 3.410228 1_555
Bi6 Sr14 3.427284 1_555
Bi6 Sr14 3.427285 1_455
Bi6 Sr10 3.469279 1_555
Bi6 Sr6 3.494216 1_555
Bi7 Cd6 3.020295 1_555
Bi7 Sr0 3.410216 1_555
Bi7 Sr0 3.410217 1_655
Bi7 Sr15 3.427164 1_555
Bi7 Sr15 3.427166 1_455
Bi7 Sr11 3.469128 1_555
Bi7 Sr6 3.493701 1_555
Bi8 Cd4 2.950902 1_555
Bi8 Cd4 2.950902 1_655
Bi8 Sr3 3.458236 1_555
Bi8 Sr8 3.476790 1_555
Bi8 Sr8 3.476792 1_655
Bi8 Sr12 3.589442 1_555
Bi8 Sr14 3.657450 1_555
Bi9 Cd6 2.950800 1_455
Bi9 Cd6 2.950802 1_555
Bi9 Sr1 3.457959 1_555
Bi9 Sr9 3.476894 1_555
Bi9 Sr9 3.476894 1_455
Bi9 Sr13 3.589637 1_555
Bi9 Sr15 3.657143 1_455
Bi10 Cd5 2.950958 1_455
Bi10 Cd5 2.950959 1_555
Bi10 Sr16 3.458606 1_445
Bi10 Sr10 3.476847 1_455
Bi10 Sr10 3.476849 1_555
Bi10 Sr14 3.589566 1_455
Bi10 Sr12 3.658319 1_445
Bi11 Cd7 2.950809 1_655
Bi11 Cd7 2.950810 1_555
Bi11 Sr17 3.458384 1_565
Bi11 Sr11 3.476850 1_655
Bi11 Sr11 3.476851 1_555
Bi11 Sr15 3.589545 1_555
Bi11 Sr13 3.658157 1_665
Bi12 Cd0 2.992154 1_654
Bi12 Cd0 2.992157 1_554
Bi12 Sr5 3.505645 1_554
Bi12 Sr7 3.541296 1_554
Bi12 Sr7 3.541296 1_654
Bi12 Sr8 3.569814 1_555
Bi12 Sr8 3.569816 1_655
Bi13 Cd1 2.992582 1_556
Bi13 Cd1 2.992582 1_456
Bi13 Sr4 3.505859 1_456
Bi13 Sr7 3.541215 1_545
Bi13 Sr7 3.541217 1_445
Bi13 Sr9 3.569575 1_455
Bi13 Sr9 3.569576 1_555
Bi14 Cd2 2.992196 1_555
Bi14 Cd2 2.992198 1_655
Bi14 Sr0 3.505783 1_655
Bi14 Sr6 3.540918 1_655
Bi14 Sr6 3.540918 1_555
Bi14 Sr10 3.569951 1_555
Bi14 Sr10 3.569952 1_655
Bi15 Cd3 2.992585 1_555
Bi15 Cd3 2.992586 1_455
Bi15 Sr2 3.506116 1_455
Bi15 Sr6 3.540799 1_455
Bi15 Sr6 3.540801 1_555
Bi15 Sr11 3.569606 1_555
Bi15 Sr11 3.569607 1_455
Bi16 Cd2 3.244058 1_555
Bi16 Cd3 3.244295 1_545
Bi16 Sr17 3.356384 1_455
Bi16 Sr17 3.356384 1_555
Bi16 Sr16 3.356388 1_445
Bi16 Sr16 3.356388 1_545
Bi16 Sr11 3.700423 1_545
Bi16 Sr10 3.700528 1_555
Bi17 Cd0 3.243367 1_555
Bi17 Cd1 3.243840 1_556
Bi17 Sr3 3.356204 1_556
Bi17 Sr3 3.356205 1_456
Bi17 Sr1 3.356223 1_555
Bi17 Sr1 3.356223 1_655
Bi17 Sr9 3.699657 1_555
Bi17 Sr8 3.699737 1_556
