# generated using pymatgen
data_Er(CoSi)2
_symmetry_space_group_name_H-M   'P 1'
_cell_length_a   3.83213160
_cell_length_b   3.83213146
_cell_length_c   5.52961891
_cell_angle_alpha   110.27396795
_cell_angle_beta   110.27397967
_cell_angle_gamma   89.99999268
_symmetry_Int_Tables_number   1
_chemical_formula_structural   Er(CoSi)2
_chemical_formula_sum   'Er1 Co2 Si2'
_cell_volume   70.78536042
_cell_formula_units_Z   1
loop_
 _symmetry_equiv_pos_site_id
 _symmetry_equiv_pos_as_xyz
  1  'x, y, z'
loop_
 _atom_site_type_symbol
 _atom_site_label
 _atom_site_symmetry_multiplicity
 _atom_site_fract_x
 _atom_site_fract_y
 _atom_site_fract_z
 _atom_site_occupancy
  Er  Er0  1  0.00000000  -0.00000000  0.00000000  1
  Co  Co0  1  0.25000000  0.75000000  0.50000000  1
  Co  Co1  1  0.75000000  0.25000000  0.50000000  1
  Si  Si0  1  0.62809700  0.62809700  0.25619501  1
  Si  Si1  1  0.37190300  0.37190300  0.74380499  1
loop_
_geom_bond_atom_site_label_1
_geom_bond_atom_site_label_2
_geom_bond_distance
_geom_bond_site_symmetry_2
Er0 Si0 2.977850 1_555
Er0 Si1 2.977850 1_444
Er0 Si1 2.977852 1_454
Er0 Si0 2.977852 1_545
Er0 Si0 2.977852 1_455
Er0 Si1 2.977852 1_544
Er0 Si0 2.977855 1_445
Er0 Si1 2.977855 1_554
Co0 Si1 2.247744 1_555
Co0 Si0 2.247744 1_555
Co0 Si0 2.247747 1_455
Co0 Si1 2.247748 1_565
Co0 Er0 3.078932 1_565
Co0 Er0 3.078932 1_666
Co0 Er0 3.078933 1_555
Co0 Er0 3.078933 1_566
Co1 Si0 2.247744 1_555
Co1 Si1 2.247744 1_555
Co1 Si1 2.247747 1_655
Co1 Si0 2.247748 1_545
Co1 Er0 3.078932 1_656
Co1 Er0 3.078932 1_555
Co1 Er0 3.078933 1_666
Co1 Er0 3.078933 1_655
Si0 Si1 2.469809 1_554
