# generated using pymatgen
data_Sc10Ga5PbO2
_symmetry_space_group_name_H-M   'P 1'
_cell_length_a   8.33179839
_cell_length_b   8.33179791
_cell_length_c   8.33179669
_cell_angle_alpha   128.07474469
_cell_angle_beta   128.07473765
_cell_angle_gamma   76.50398502
_symmetry_Int_Tables_number   1
_chemical_formula_structural   Sc10Ga5PbO2
_chemical_formula_sum   'Sc10 Ga5 Pb1 O2'
_cell_volume   348.20146551
_cell_formula_units_Z   1
loop_
 _symmetry_equiv_pos_site_id
 _symmetry_equiv_pos_as_xyz
  1  'x, y, z'
loop_
 _atom_site_type_symbol
 _atom_site_label
 _atom_site_symmetry_multiplicity
 _atom_site_fract_x
 _atom_site_fract_y
 _atom_site_fract_z
 _atom_site_occupancy
  Sc  Sc0  1  0.00006241  0.19321005  0.48810804  1
  Sc  Sc1  1  0.79489899  0.30678995  0.80685237  1
  Sc  Sc2  1  0.51195338  0.00006241  0.80685237  1
  Sc  Sc3  1  0.49993759  0.98804662  0.19314763  1
  Sc  Sc4  1  0.98804662  0.79489899  0.48810804  1
  Sc  Sc5  1  0.50313841  0.50313841  0.00000000  1
  Sc  Sc6  1  0.19321005  0.70510101  0.19314763  1
  Sc  Sc7  1  0.70510101  0.51195338  0.51189196  1
  Sc  Sc8  1  0.30678995  0.49993759  0.51189196  1
  Sc  Sc9  1  0.99686159  0.99686159  1.00000000  1
  Ga  Ga0  1  0.86748196  0.36748196  0.23496393  1
  Ga  Ga1  1  0.13251804  0.63251804  0.76503607  1
  Ga  Ga2  1  0.36748196  0.13251804  0.50000000  1
  Ga  Ga3  1  0.75000000  0.75000000  0.00000000  1
  Ga  Ga4  1  0.63251804  0.86748196  0.50000000  1
  Pb  Pb0  1  0.25000000  0.25000000  0.00000000  1
  O  O0  1  0.75000000  0.25000000  0.50000000  1
  O  O1  1  0.25000000  0.75000000  0.50000000  1
loop_
_geom_bond_atom_site_label_1
_geom_bond_atom_site_label_2
_geom_bond_distance
_geom_bond_site_symmetry_2
Ga0 Ga1 2.734320 1_655
Ga0 Sc0 2.816379 1_655
Ga0 Sc4 2.816388 1_555
Ga0 Sc9 2.850083 1_544
Ga0 Sc5 2.850083 1_555
Ga0 Sc8 2.875319 1_655
Ga0 Sc7 2.875327 1_555
Ga0 Sc1 2.932925 1_554
Ga0 Sc2 2.932925 1_554
Ga1 Sc8 2.816379 1_555
Ga1 Sc7 2.816389 1_455
Ga1 Sc9 2.850083 1_455
Ga1 Sc5 2.850083 1_556
Ga1 Sc0 2.875319 1_555
Ga1 Sc4 2.875328 1_455
Ga1 Sc6 2.932925 1_556
Ga1 Sc3 2.932925 1_556
Ga2 Ga4 2.734321 1_545
Ga2 Sc6 2.816386 1_545
Ga2 Sc1 2.816387 1_555
Ga2 Sc5 2.850082 1_556
Ga2 Sc9 2.850083 1_444
Ga2 Sc3 2.875320 1_545
Ga2 Sc2 2.875321 1_555
Ga2 Sc8 2.932921 1_555
Ga2 Sc0 2.932921 1_555
Ga3 Sc7 3.022283 1_554
Ga3 Sc4 3.022283 1_555
Ga3 Sc0 3.022289 1_665
Ga3 Sc8 3.022289 1_554
Ga3 Sc3 3.022290 1_555
Ga3 Sc1 3.022290 1_554
Ga3 Sc2 3.022290 1_564
Ga3 Sc6 3.022291 1_655
Ga3 Sc9 3.230393 1_554
Ga3 Sc5 3.230393 1_555
Ga4 Sc2 2.816386 1_565
Ga4 Sc3 2.816386 1_555
Ga4 Sc5 2.850082 1_555
Ga4 Sc9 2.850083 1_555
Ga4 Sc1 2.875321 1_565
Ga4 Sc6 2.875321 1_555
Ga4 Sc7 2.932930 1_555
Ga4 Sc4 2.932930 1_555
Pb0 Sc2 3.125228 1_554
Pb0 Sc6 3.125228 1_555
Pb0 Sc3 3.125229 1_545
Pb0 Sc1 3.125229 1_454
Pb0 Sc4 3.125230 1_444
Pb0 Sc7 3.125230 1_555
Pb0 Sc8 3.125235 1_555
Pb0 Sc0 3.125235 1_554
Pb0 Sc5 3.312530 1_555
Pb0 Sc9 3.312530 1_444
O0 Sc7 2.076333 1_555
O0 Sc1 2.076337 1_555
O0 Sc3 2.076337 1_545
O0 Sc0 2.076342 1_655
O1 Sc4 2.076334 1_455
O1 Sc6 2.076337 1_555
O1 Sc2 2.076337 1_565
O1 Sc8 2.076342 1_555
