# generated using pymatgen
data_HfSc2Ga5Ni
_symmetry_space_group_name_H-M   'P 1'
_cell_length_a   6.57933597
_cell_length_b   6.57832115
_cell_length_c   3.96167002
_cell_angle_alpha   90.00000000
_cell_angle_beta   90.00000000
_cell_angle_gamma   120.00509836
_symmetry_Int_Tables_number   1
_chemical_formula_structural   HfSc2Ga5Ni
_chemical_formula_sum   'Hf1 Sc2 Ga5 Ni1'
_cell_volume   148.48539959
_cell_formula_units_Z   1
loop_
 _symmetry_equiv_pos_site_id
 _symmetry_equiv_pos_as_xyz
  1  'x, y, z'
loop_
 _atom_site_type_symbol
 _atom_site_label
 _atom_site_symmetry_multiplicity
 _atom_site_fract_x
 _atom_site_fract_y
 _atom_site_fract_z
 _atom_site_occupancy
  Hf  Hf0  1  0.59510525  1.00000000  0.00000000  1
  Sc  Sc0  1  0.00181461  0.59476877  0.00000000  1
  Sc  Sc1  1  0.40704584  0.40523123  0.00000000  1
  Ga  Ga0  1  0.24106260  0.00000000  0.50000000  1
  Ga  Ga1  1  0.99968933  0.24004194  0.50000000  1
  Ga  Ga2  1  0.75964740  0.75995806  0.50000000  1
  Ga  Ga3  1  0.33448774  0.66804909  0.50000000  1
  Ga  Ga4  1  0.66643965  0.33195091  0.50000000  1
  Ni  Ni0  1  0.99470758  0.00000000  0.00000000  1
loop_
_geom_bond_atom_site_label_1
_geom_bond_atom_site_label_2
_geom_bond_distance
_geom_bond_site_symmetry_2
Hf0 Ni0 2.629118 1_565
Ga0 Ga3 2.547301 1_545
Ga0 Ga4 2.547306 1_555
Ga0 Ni0 2.559467 1_456
Ga0 Ni0 2.559467 1_455
Ga0 Ga1 2.742905 1_455
Ga0 Ga2 2.742906 1_445
Ga0 Sc1 3.051374 1_555
Ga0 Sc1 3.051374 1_556
Ga0 Sc0 3.051374 1_545
Ga0 Sc0 3.051374 1_546
Ga0 Hf0 3.057720 1_546
Ga0 Hf0 3.057720 1_545
Ga1 Ni0 2.523190 1_556
Ga1 Ni0 2.523190 1_555
Ga1 Ga4 2.549258 1_555
Ga1 Ga3 2.564486 1_655
Ga1 Ga2 2.734894 1_545
Ga1 Hf0 3.049408 1_546
Ga1 Hf0 3.049408 1_545
Ga1 Sc0 3.055573 1_655
Ga1 Sc0 3.055573 1_656
Ga1 Sc1 3.061832 1_656
Ga1 Sc1 3.061832 1_655
Ga2 Ni0 2.523190 1_565
Ga2 Ni0 2.523190 1_566
Ga2 Ga3 2.549265 1_555
Ga2 Ga4 2.564487 1_555
Ga2 Hf0 3.049408 1_555
Ga2 Hf0 3.049408 1_556
Ga2 Sc1 3.055573 1_556
Ga2 Sc1 3.055573 1_555
Ga2 Sc0 3.061832 1_655
Ga2 Sc0 3.061832 1_656
Ga3 Hf0 2.808454 1_555
Ga3 Hf0 2.808454 1_556
Ga3 Sc0 2.809184 1_555
Ga3 Sc0 2.809184 1_556
Ga3 Sc1 2.822441 1_555
Ga3 Sc1 2.822441 1_556
Ga4 Hf0 2.808453 1_546
Ga4 Hf0 2.808453 1_545
Ga4 Sc1 2.809188 1_555
Ga4 Sc1 2.809188 1_556
Ga4 Sc0 2.822438 1_656
Ga4 Sc0 2.822438 1_655
Ni0 Sc0 2.689429 1_645
Ni0 Sc1 2.689430 1_655
