# generated using pymatgen
data_RbTe8Rh5
_symmetry_space_group_name_H-M   'P 1'
_cell_length_a   10.43405229
_cell_length_b   10.43405156
_cell_length_c   9.16563092
_cell_angle_alpha   75.61730496
_cell_angle_beta   75.61730659
_cell_angle_gamma   22.22788989
_symmetry_Int_Tables_number   1
_chemical_formula_structural   RbTe8Rh5
_chemical_formula_sum   'Rb1 Te8 Rh5'
_cell_volume   365.18562953
_cell_formula_units_Z   1
loop_
 _symmetry_equiv_pos_site_id
 _symmetry_equiv_pos_as_xyz
  1  'x, y, z'
loop_
 _atom_site_type_symbol
 _atom_site_label
 _atom_site_symmetry_multiplicity
 _atom_site_fract_x
 _atom_site_fract_y
 _atom_site_fract_z
 _atom_site_occupancy
  Rb  Rb0  1  0.50000000  0.50000000  0.50000000  1
  Te  Te0  1  0.76299924  0.76299924  0.15119826  1
  Te  Te1  1  0.23700076  0.23700076  0.84880174  1
  Te  Te2  1  0.42702098  0.42702098  0.14737435  1
  Te  Te3  1  0.57297902  0.57297902  0.85262565  1
  Te  Te4  1  0.91000823  0.91000823  0.83394871  1
  Te  Te5  1  0.08999177  0.08999177  0.16605129  1
  Te  Te6  1  0.82264674  0.82264674  0.48669964  1
  Te  Te7  1  0.17735326  0.17735326  0.51330036  1
  Rh  Rh0  1  0.66030081  0.66030081  0.02022232  1
  Rh  Rh1  1  0.33969919  0.33969919  0.97977768  1
  Rh  Rh2  1  0.70327390  0.70327390  0.67942144  1
  Rh  Rh3  1  0.29672610  0.29672610  0.32057856  1
  Rh  Rh4  1  0.00000000  0.00000000  0.00000000  1
loop_
_geom_bond_atom_site_label_1
_geom_bond_atom_site_label_2
_geom_bond_distance
_geom_bond_site_symmetry_2
Rb0 Te4 3.735515 1_545
Rb0 Te5 3.735515 1_565
Rb0 Te4 3.735515 1_455
Rb0 Te5 3.735515 1_655
Rb0 Te3 3.889026 1_555
Rb0 Te2 3.889026 1_555
Rb0 Te7 4.180056 1_565
Rb0 Te6 4.180056 1_545
Rb0 Te7 4.180057 1_655
Rb0 Te6 4.180057 1_455
Rh0 Te5 2.632535 1_655
Rh0 Te5 2.632535 1_565
Rh0 Te3 2.635811 1_554
Rh0 Te0 2.672376 1_555
Rh0 Te1 2.780497 1_564
Rh0 Te1 2.780498 1_654
Rh1 Te4 2.632535 1_455
Rh1 Te4 2.632535 1_545
Rh1 Te2 2.635811 1_556
Rh1 Te1 2.672376 1_555
Rh1 Te0 2.780497 1_546
Rh1 Te0 2.780498 1_456
Rh2 Te6 2.628519 1_555
Rh2 Te7 2.656018 1_655
Rh2 Te7 2.656018 1_565
Rh2 Te1 2.734080 1_565
Rh2 Te1 2.734080 1_655
Rh2 Te3 2.737540 1_555
Rh3 Te7 2.628519 1_555
Rh3 Te6 2.656018 1_455
Rh3 Te6 2.656018 1_545
Rh3 Te0 2.734080 1_545
Rh3 Te0 2.734080 1_455
Rh3 Te2 2.737540 1_555
Rh4 Te3 2.661015 1_454
Rh4 Te2 2.661015 1_545
Rh4 Te3 2.661016 1_544
Rh4 Te2 2.661016 1_455
Rh4 Te5 2.670579 1_555
Rh4 Te4 2.670579 1_444
