# generated using pymatgen
data_Hf6Al16Co5Ni2
_symmetry_space_group_name_H-M   'P 1'
_cell_length_a   8.45388601
_cell_length_b   8.39222942
_cell_length_c   8.39222262
_cell_angle_alpha   60.48811528
_cell_angle_beta   59.75876421
_cell_angle_gamma   59.75875760
_symmetry_Int_Tables_number   1
_chemical_formula_structural   Hf6Al16Co5Ni2
_chemical_formula_sum   'Hf6 Al16 Co5 Ni2'
_cell_volume   420.98545006
_cell_formula_units_Z   1
loop_
 _symmetry_equiv_pos_site_id
 _symmetry_equiv_pos_as_xyz
  1  'x, y, z'
loop_
 _atom_site_type_symbol
 _atom_site_label
 _atom_site_symmetry_multiplicity
 _atom_site_fract_x
 _atom_site_fract_y
 _atom_site_fract_z
 _atom_site_occupancy
  Hf  Hf0  1  0.69637017  0.69637516  0.30363035  1
  Hf  Hf1  1  0.30362883  0.69637165  0.30362484  1
  Hf  Hf2  1  0.67866371  0.32132808  0.32132908  1
  Hf  Hf3  1  0.30362983  0.30362484  0.69636965  1
  Hf  Hf4  1  0.69637117  0.30362835  0.69637516  1
  Hf  Hf5  1  0.32133629  0.67867192  0.67867092  1
  Al  Al0  1  0.87918448  0.88669677  0.35493804  1
  Al  Al1  1  0.87918548  0.35493704  0.88669577  1
  Al  Al2  1  0.35493831  0.87919121  0.87919021  1
  Al  Al3  1  0.88668310  0.87918773  0.87918573  1
  Al  Al4  1  0.12081552  0.11330323  0.64506196  1
  Al  Al5  1  0.12081452  0.64506296  0.11330423  1
  Al  Al6  1  0.64506169  0.12080879  0.12080979  1
  Al  Al7  1  0.11331690  0.12081227  0.12081427  1
  Al  Al8  1  0.66533418  0.66562774  0.00374808  1
  Al  Al9  1  0.66533518  0.00374908  0.66562574  1
  Al  Al10  1  0.00373235  0.66533238  0.66532938  1
  Al  Al11  1  0.66563112  0.66532914  0.66532714  1
  Al  Al12  1  0.33466582  0.33437226  0.99625192  1
  Al  Al13  1  0.33466482  0.99625092  0.33437426  1
  Al  Al14  1  0.99626765  0.33466762  0.33467062  1
  Al  Al15  1  0.33436888  0.33467086  0.33467286  1
  Co  Co0  1  0.00000000  0.00000000  0.00000000  1
  Co  Co1  1  0.00000000  0.00000000  0.50000000  1
  Co  Co2  1  0.50000000  0.00000000  0.50000000  1
  Co  Co3  1  0.50000000  0.50000000  0.00000000  1
  Co  Co4  1  0.00000000  0.50000000  0.00000000  1
  Ni  Ni0  1  0.00000000  0.50000000  0.50000000  1
  Ni  Ni1  1  0.50000000  0.00000000  0.00000000  1
loop_
_geom_bond_atom_site_label_1
_geom_bond_atom_site_label_2
_geom_bond_distance
_geom_bond_site_symmetry_2
Hf0 Ni0 3.056908 1_655
Hf0 Ni1 3.056941 1_565
Hf0 Hf5 3.153187 1_555
Hf0 Hf2 3.153204 1_555
Hf1 Ni0 3.056914 1_555
Hf1 Ni1 3.056935 1_565
Hf1 Hf5 3.153194 1_555
Hf1 Hf2 3.153204 1_555
Hf2 Hf3 3.153187 1_555
Hf2 Hf4 3.153194 1_555
Hf3 Ni0 3.056908 1_555
Hf3 Ni1 3.056941 1_556
Hf3 Hf5 3.153204 1_555
Hf4 Ni0 3.056914 1_655
Hf4 Ni1 3.056935 1_556
Hf4 Hf5 3.153204 1_555
Al0 Co0 2.437903 1_665
Al0 Co1 2.607782 1_665
Al0 Co2 2.607920 1_565
Al0 Al9 2.649176 1_565
Al0 Ni0 2.660507 1_655
Al0 Al11 2.714712 1_555
Al0 Al10 2.714772 1_655
Al0 Al7 2.799123 1_665
Al0 Al6 2.799140 1_565
Al0 Al5 2.846641 1_655
Al0 Hf0 2.993229 1_555
Al0 Hf1 2.993336 1_655
Al0 Hf2 3.081788 1_565
Al1 Co0 2.437898 1_656
Al1 Co4 2.607790 1_656
Al1 Co3 2.607927 1_556
Al1 Al8 2.649198 1_556
Al1 Ni0 2.660499 1_655
Al1 Al11 2.714728 1_555
Al1 Al10 2.714797 1_655
Al1 Al7 2.799134 1_656
Al1 Al6 2.799148 1_556
Al1 Al4 2.846641 1_655
Al1 Hf4 2.993227 1_555
Al1 Hf3 2.993337 1_655
Al1 Hf2 3.081800 1_556
Al2 Co0 2.437923 1_566
Al2 Co2 2.607939 1_565
Al2 Co3 2.607948 1_556
Al2 Ni1 2.660300 1_566
Al2 Al8 2.714860 1_556
Al2 Al9 2.714868 1_565
Al2 Al4 2.799140 1_565
Al2 Al5 2.799148 1_556
Al2 Al7 2.846509 1_566
Al2 Hf3 2.993244 1_565
Al2 Hf1 2.993247 1_556
Al2 Hf5 3.081771 1_555
Al3 Co0 2.437854 1_666
Al3 Co1 2.607900 1_665
Al3 Co4 2.607916 1_656
Al3 Ni1 2.660426 1_566
Al3 Al9 2.714492 1_565
Al3 Al8 2.714498 1_556
Al3 Al4 2.799123 1_665
Al3 Al5 2.799134 1_656
Al3 Al6 2.846509 1_566
Al3 Hf4 2.993303 1_565
Al3 Hf0 2.993329 1_556
Al3 Hf5 3.081962 1_655
Al4 Co0 2.437903 1_556
Al4 Co1 2.607782 1_555
Al4 Co2 2.607920 1_555
Al4 Ni0 2.660507 1_555
Al4 Hf3 2.993229 1_555
Al4 Hf4 2.993336 1_455
Al4 Hf5 3.081788 1_545
Al5 Co0 2.437898 1_565
Al5 Co4 2.607790 1_555
Al5 Co3 2.607927 1_555
Al5 Ni0 2.660499 1_555
Al5 Hf1 2.993227 1_555
Al5 Hf0 2.993337 1_455
Al5 Hf5 3.081800 1_554
Al6 Co0 2.437923 1_655
Al6 Co2 2.607939 1_555
Al6 Co3 2.607948 1_555
Al6 Ni1 2.660300 1_555
Al6 Hf0 2.993244 1_545
Al6 Hf4 2.993247 1_554
Al6 Hf2 3.081771 1_555
Al7 Co0 2.437854 1_555
Al7 Co1 2.607900 1_555
Al7 Co4 2.607916 1_555
Al7 Ni1 2.660426 1_555
Al7 Hf1 2.993303 1_545
Al7 Hf3 2.993329 1_554
Al7 Hf2 3.081962 1_455
Al8 Ni1 2.415687 1_565
Al8 Co4 2.435114 1_655
Al8 Co3 2.435360 1_555
Al8 Hf0 2.800395 1_555
Al8 Hf1 2.800681 1_555
Al8 Hf2 2.802215 1_555
Al9 Ni1 2.415697 1_556
Al9 Co1 2.435104 1_655
Al9 Co2 2.435357 1_555
Al9 Hf4 2.800382 1_555
Al9 Hf3 2.800678 1_555
Al9 Hf2 2.802193 1_555
Al10 Ni0 2.415810 1_555
Al10 Co1 2.435151 1_565
Al10 Co4 2.435171 1_556
Al10 Al3 2.648948 1_455
Al10 Hf1 2.800734 1_555
Al10 Hf3 2.800753 1_555
Al10 Hf5 2.802171 1_555
Al11 Ni0 2.415775 1_655
Al11 Co2 2.435246 1_565
Al11 Co3 2.435260 1_556
Al11 Al2 2.649156 1_555
Al11 Hf0 2.800677 1_555
Al11 Hf4 2.800702 1_555
Al11 Hf5 2.802246 1_555
Al12 Ni1 2.415687 1_556
Al12 Co4 2.435114 1_556
Al12 Co3 2.435360 1_556
Al12 Al5 2.649198 1_556
Al12 Al7 2.714498 1_556
Al12 Al6 2.714860 1_556
Al12 Hf3 2.800395 1_555
Al12 Hf4 2.800681 1_555
Al12 Hf5 2.802215 1_555
Al13 Ni1 2.415697 1_565
Al13 Co1 2.435104 1_565
Al13 Co2 2.435357 1_565
Al13 Al4 2.649176 1_565
Al13 Al7 2.714492 1_565
Al13 Al6 2.714868 1_565
Al13 Hf1 2.800382 1_555
Al13 Hf0 2.800678 1_555
Al13 Hf5 2.802193 1_555
Al14 Ni0 2.415810 1_655
Al14 Co1 2.435151 1_655
Al14 Co4 2.435171 1_655
Al14 Al7 2.648948 1_655
Al14 Al4 2.714772 1_655
Al14 Al5 2.714797 1_655
Al14 Hf4 2.800734 1_555
Al14 Hf0 2.800753 1_555
Al14 Hf2 2.802171 1_555
Al15 Ni0 2.415775 1_555
Al15 Co2 2.435246 1_555
Al15 Co3 2.435260 1_555
Al15 Al6 2.649156 1_555
Al15 Al4 2.714712 1_555
Al15 Al5 2.714728 1_555
Al15 Hf3 2.800677 1_555
Al15 Hf1 2.800702 1_555
Al15 Hf2 2.802246 1_555
Co1 Hf4 3.014221 1_455
Co1 Hf1 3.014221 1_545
Co1 Hf5 3.104875 1_545
Co1 Hf2 3.104875 1_455
Co2 Hf0 3.014130 1_545
Co2 Hf3 3.014130 1_555
Co2 Hf2 3.104736 1_555
Co2 Hf5 3.104736 1_545
Co3 Hf1 3.014140 1_555
Co3 Hf4 3.014140 1_554
Co3 Hf2 3.104739 1_555
Co3 Hf5 3.104739 1_554
Co4 Hf0 3.014233 1_455
Co4 Hf3 3.014233 1_554
Co4 Hf5 3.104881 1_554
Co4 Hf2 3.104881 1_455
