# generated using pymatgen
data_Zr2ReB2Ru5
_symmetry_space_group_name_H-M   'P 1'
_cell_length_a   9.47940929
_cell_length_b   9.47940929
_cell_length_c   3.01312881
_cell_angle_alpha   90.00000000
_cell_angle_beta   90.00000000
_cell_angle_gamma   90.00000000
_symmetry_Int_Tables_number   1
_chemical_formula_structural   Zr2ReB2Ru5
_chemical_formula_sum   'Zr4 Re2 B4 Ru10'
_cell_volume   270.75734558
_cell_formula_units_Z   2
loop_
 _symmetry_equiv_pos_site_id
 _symmetry_equiv_pos_as_xyz
  1  'x, y, z'
loop_
 _atom_site_type_symbol
 _atom_site_label
 _atom_site_symmetry_multiplicity
 _atom_site_fract_x
 _atom_site_fract_y
 _atom_site_fract_z
 _atom_site_occupancy
  Zr  Zr0  1  0.67631591  0.17631591  0.00000000  1
  Zr  Zr1  1  0.32368409  0.82368409  0.00000000  1
  Zr  Zr2  1  0.17631591  0.32368409  0.00000000  1
  Zr  Zr3  1  0.82368409  0.67631591  0.00000000  1
  Re  Re0  1  0.00000000  0.00000000  0.00000000  1
  Re  Re1  1  0.50000000  0.50000000  0.00000000  1
  B  B0  1  0.12065364  0.62065364  0.00000000  1
  B  B1  1  0.87934636  0.37934636  0.00000000  1
  B  B2  1  0.62065364  0.87934636  0.00000000  1
  B  B3  1  0.37934636  0.12065364  0.00000000  1
  Ru  Ru0  1  0.21825967  0.07076989  0.50000000  1
  Ru  Ru1  1  0.78174033  0.92923011  0.50000000  1
  Ru  Ru2  1  0.07076989  0.78174033  0.50000000  1
  Ru  Ru3  1  0.71825967  0.42923011  0.50000000  1
  Ru  Ru4  1  0.92923011  0.21825967  0.50000000  1
  Ru  Ru5  1  0.28174033  0.57076989  0.50000000  1
  Ru  Ru6  1  0.57076989  0.71825967  0.50000000  1
  Ru  Ru7  1  0.42923011  0.28174033  0.50000000  1
  Ru  Ru8  1  0.50000000  0.00000000  0.50000000  1
  Ru  Ru9  1  0.00000000  0.50000000  0.50000000  1
loop_
_geom_bond_atom_site_label_1
_geom_bond_atom_site_label_2
_geom_bond_distance
_geom_bond_site_symmetry_2
Re0 Ru0 2.645833 1_555
Re0 Ru0 2.645833 1_554
Re0 Ru4 2.645833 1_454
Re0 Ru4 2.645833 1_455
Re0 Ru2 2.645833 1_544
Re0 Ru2 2.645833 1_545
Re0 Ru1 2.645833 1_444
Re0 Ru1 2.645833 1_445
Re1 Ru6 2.645833 1_555
Re1 Ru6 2.645833 1_554
Re1 Ru3 2.645833 1_555
Re1 Ru3 2.645833 1_554
Re1 Ru5 2.645833 1_555
Re1 Ru5 2.645833 1_554
Re1 Ru7 2.645833 1_554
Re1 Ru7 2.645833 1_555
B0 Ru5 2.196609 1_555
B0 Ru2 2.196609 1_555
B0 Ru5 2.196609 1_554
B0 Ru2 2.196609 1_554
B0 Ru9 2.210419 1_554
B0 Ru9 2.210419 1_555
B0 Zr1 2.721808 1_555
B0 Zr2 2.864119 1_555
B0 Zr3 2.864119 1_455
B1 Ru4 2.196609 1_555
B1 Ru3 2.196609 1_554
B1 Ru4 2.196609 1_554
B1 Ru3 2.196609 1_555
B1 Ru9 2.210419 1_654
B1 Ru9 2.210419 1_655
B1 Zr0 2.721808 1_555
B1 Zr2 2.864119 1_655
B1 Zr3 2.864119 1_555
B2 Ru1 2.196609 1_554
B2 Ru6 2.196609 1_555
B2 Ru1 2.196609 1_555
B2 Ru6 2.196609 1_554
B2 Ru8 2.210419 1_565
B2 Ru8 2.210419 1_564
B2 Zr3 2.721808 1_555
B2 Zr0 2.864119 1_565
B2 Zr1 2.864119 1_555
B3 Ru7 2.196609 1_554
B3 Ru0 2.196609 1_554
B3 Ru0 2.196609 1_555
B3 Ru7 2.196609 1_555
B3 Ru8 2.210419 1_555
B3 Ru8 2.210419 1_554
B3 Zr2 2.721808 1_555
B3 Zr0 2.864119 1_555
B3 Zr1 2.864119 1_545
Ru0 Zr2 2.859322 1_556
Ru0 Zr2 2.859322 1_555
Ru0 Zr1 2.958798 1_545
Ru0 Zr1 2.958798 1_546
Ru1 Zr3 2.859322 1_555
Ru1 Zr3 2.859322 1_556
Ru1 Zr0 2.958798 1_565
Ru1 Zr0 2.958798 1_566
Ru2 Zr1 2.859322 1_556
Ru2 Zr1 2.859322 1_555
Ru2 Zr3 2.958798 1_455
Ru2 Zr3 2.958798 1_456
Ru3 Zr0 2.859322 1_555
Ru3 Zr0 2.859322 1_556
Ru3 Zr3 2.958798 1_556
Ru3 Zr3 2.958798 1_555
Ru4 Zr0 2.859322 1_555
Ru4 Zr0 2.859322 1_556
Ru4 Zr2 2.958798 1_655
Ru4 Zr2 2.958798 1_656
Ru5 Zr1 2.859322 1_556
Ru5 Zr1 2.859322 1_555
Ru5 Zr2 2.958798 1_555
Ru5 Zr2 2.958798 1_556
Ru6 Zr3 2.859322 1_555
Ru6 Zr3 2.859322 1_556
Ru6 Zr1 2.958798 1_555
Ru6 Zr1 2.958798 1_556
Ru7 Zr2 2.859322 1_556
Ru7 Zr2 2.859322 1_555
Ru7 Zr0 2.958798 1_555
Ru7 Zr0 2.958798 1_556
Ru8 Zr0 2.802980 1_555
Ru8 Zr0 2.802980 1_556
Ru8 Zr1 2.802980 1_546
Ru8 Zr1 2.802980 1_545
Ru9 Zr2 2.802980 1_556
Ru9 Zr2 2.802980 1_555
Ru9 Zr3 2.802980 1_455
Ru9 Zr3 2.802980 1_456
