# generated using pymatgen
data_Rb6GaTe4Cl
_symmetry_space_group_name_H-M   'P 1'
_cell_length_a   11.51866249
_cell_length_b   11.51866119
_cell_length_c   8.47417732
_cell_angle_alpha   90.00000000
_cell_angle_beta   90.00000000
_cell_angle_gamma   119.99999826
_symmetry_Int_Tables_number   1
_chemical_formula_structural   Rb6GaTe4Cl
_chemical_formula_sum   'Rb12 Ga2 Te8 Cl2'
_cell_volume   973.71586007
_cell_formula_units_Z   2
loop_
 _symmetry_equiv_pos_site_id
 _symmetry_equiv_pos_as_xyz
  1  'x, y, z'
loop_
 _atom_site_type_symbol
 _atom_site_label
 _atom_site_symmetry_multiplicity
 _atom_site_fract_x
 _atom_site_fract_y
 _atom_site_fract_z
 _atom_site_occupancy
  Rb  Rb0  1  0.12686615  0.87313385  0.51465479  1
  Rb  Rb1  1  0.74626671  0.87313385  0.51465479  1
  Rb  Rb2  1  0.95415508  0.47707804  0.31837467  1
  Rb  Rb3  1  0.52292196  0.47707804  0.31837467  1
  Rb  Rb4  1  0.87313385  0.74626671  0.01465479  1
  Rb  Rb5  1  0.25373329  0.12686615  0.01465479  1
  Rb  Rb6  1  0.52292196  0.04584492  0.31837467  1
  Rb  Rb7  1  0.12686615  0.25373329  0.51465479  1
  Rb  Rb8  1  0.87313385  0.12686615  0.01465479  1
  Rb  Rb9  1  0.04584492  0.52292196  0.81837467  1
  Rb  Rb10  1  0.47707804  0.95415508  0.81837467  1
  Rb  Rb11  1  0.47707804  0.52292196  0.81837467  1
  Ga  Ga0  1  0.66666700  0.33333300  0.70971216  1
  Ga  Ga1  1  0.33333300  0.66666700  0.20971216  1
  Te  Te0  1  0.41341500  0.20670750  0.61161660  1
  Te  Te1  1  0.58658500  0.79329250  0.11161660  1
  Te  Te2  1  0.66666700  0.33333300  0.02480630  1
  Te  Te3  1  0.79329250  0.58658500  0.61161660  1
  Te  Te4  1  0.20670750  0.41341500  0.11161660  1
  Te  Te5  1  0.33333300  0.66666700  0.52480630  1
  Te  Te6  1  0.20670750  0.79329250  0.11161660  1
  Te  Te7  1  0.79329250  0.20670750  0.61161660  1
  Cl  Cl0  1  0.00000000  0.00000000  0.27214636  1
  Cl  Cl1  1  0.00000000  0.00000000  0.77214636  1
loop_
_geom_bond_atom_site_label_1
_geom_bond_atom_site_label_2
_geom_bond_distance
_geom_bond_site_symmetry_2
Rb0 Te0 3.694691 1_565
Rb0 Te3 3.694691 1_455
Rb0 Te6 3.768611 1_555
Rb0 Te5 4.120099 1_555
Rb1 Te7 3.694686 1_565
Rb1 Te3 3.694697 1_555
Rb1 Te1 3.768607 1_555
Rb1 Te5 4.120100 1_555
Rb2 Te3 3.679233 1_555
Rb2 Te7 3.679240 1_555
Rb2 Te6 3.768752 1_655
Rb2 Te4 3.768758 1_655
Rb2 Te2 3.796488 1_555
Rb2 Te5 4.167407 1_655
Rb3 Te0 3.679241 1_555
Rb3 Te3 3.679241 1_555
Rb3 Te1 3.768748 1_555
Rb3 Te4 3.768748 1_555
Rb3 Te2 3.796502 1_555
Rb3 Te5 4.167407 1_555
Rb4 Te6 3.694687 1_655
Rb4 Te1 3.694698 1_555
Rb4 Te3 3.768607 1_554
Rb4 Te2 4.120099 1_555
Rb5 Te6 3.694686 1_545
Rb5 Te4 3.694697 1_555
Rb5 Te0 3.768607 1_554
Rb5 Te2 4.120100 1_555
Rb6 Te0 3.679233 1_555
Rb6 Te7 3.679240 1_555
Rb6 Te6 3.768752 1_545
Rb6 Te1 3.768758 1_545
Rb6 Te2 3.796487 1_555
Rb6 Te5 4.167406 1_545
Rb7 Te7 3.694687 1_455
Rb7 Te0 3.694698 1_555
Rb7 Te4 3.768607 1_555
Rb7 Te5 4.120099 1_555
Rb8 Te1 3.694691 1_545
Rb8 Te4 3.694691 1_655
Rb8 Te7 3.768611 1_554
Rb8 Te2 4.120099 1_555
Rb9 Te4 3.679233 1_556
Rb9 Te6 3.679240 1_556
Rb9 Te7 3.768752 1_455
Rb9 Te3 3.768758 1_455
Rb9 Te5 3.796488 1_555
Rb9 Te2 4.167407 1_456
Rb10 Te1 3.679233 1_556
Rb10 Te6 3.679240 1_556
Rb10 Te7 3.768752 1_565
Rb10 Te0 3.768758 1_565
Rb10 Te5 3.796487 1_555
Rb10 Te2 4.167406 1_566
Rb11 Te1 3.679241 1_556
Rb11 Te4 3.679241 1_556
Rb11 Te0 3.768748 1_555
Rb11 Te3 3.768748 1_555
Rb11 Te5 3.796502 1_555
Rb11 Te2 4.167407 1_556
Ga0 Te7 2.659546 1_555
Ga0 Te3 2.659555 1_555
Ga0 Te0 2.659556 1_555
Ga0 Te2 2.670164 1_556
Ga1 Te6 2.659546 1_555
Ga1 Te4 2.659555 1_555
Ga1 Te1 2.659556 1_555
Ga1 Te5 2.670164 1_555
Cl0 Rb0 3.260324 1_545
Cl0 Rb7 3.260331 1_555
Cl0 Rb1 3.260332 1_445
Cl0 Rb8 3.341810 1_455
Cl0 Rb4 3.341817 1_445
Cl0 Rb5 3.341817 1_555
Cl1 Rb8 3.260324 1_456
Cl1 Rb4 3.260331 1_446
Cl1 Rb5 3.260332 1_556
Cl1 Rb0 3.341810 1_545
Cl1 Rb7 3.341817 1_555
Cl1 Rb1 3.341817 1_445
