# generated using pymatgen
data_CaTa4Hg3O14
_symmetry_space_group_name_H-M   'P 1'
_cell_length_a   7.35777081
_cell_length_b   7.48201913
_cell_length_c   7.35777059
_cell_angle_alpha   60.54782775
_cell_angle_beta   60.00000102
_cell_angle_gamma   60.54782988
_symmetry_Int_Tables_number   1
_chemical_formula_structural   CaTa4Hg3O14
_chemical_formula_sum   'Ca1 Ta4 Hg3 O14'
_cell_volume   288.76414409
_cell_formula_units_Z   1
loop_
 _symmetry_equiv_pos_site_id
 _symmetry_equiv_pos_as_xyz
  1  'x, y, z'
loop_
 _atom_site_type_symbol
 _atom_site_label
 _atom_site_symmetry_multiplicity
 _atom_site_fract_x
 _atom_site_fract_y
 _atom_site_fract_z
 _atom_site_occupancy
  Ca  Ca0  1  0.12500000  0.62500000  0.12500000  1
  Ta  Ta0  1  0.62500000  0.62500000  0.12500000  1
  Ta  Ta1  1  0.62500000  0.12500000  0.62500000  1
  Ta  Ta2  1  0.12500000  0.62500000  0.62500000  1
  Ta  Ta3  1  0.62500000  0.62500000  0.62500000  1
  Hg  Hg0  1  0.12500000  0.12500000  0.62500000  1
  Hg  Hg1  1  0.62500000  0.12500000  0.12500000  1
  Hg  Hg2  1  0.12500000  0.12500000  0.12500000  1
  O  O0  1  0.30747607  0.68526622  0.30747607  1
  O  O1  1  0.56229344  0.93573615  0.56229344  1
  O  O2  1  0.31032403  0.31426385  0.68770656  1
  O  O3  1  0.68770656  0.31426385  0.31032403  1
  O  O4  1  0.30747607  0.68526622  0.69978165  1
  O  O5  1  0.69978165  0.68526622  0.30747607  1
  O  O6  1  0.93967597  0.93573615  0.56229344  1
  O  O7  1  0.55021835  0.56473378  0.94252393  1
  O  O8  1  0.99306649  0.02080154  0.99306649  1
  O  O9  1  0.25693351  0.22919846  0.25693351  1
  O  O10  1  0.68770656  0.31426385  0.68770656  1
  O  O11  1  0.94252393  0.56473378  0.55021835  1
  O  O12  1  0.56229344  0.93573615  0.93967597  1
  O  O13  1  0.94252393  0.56473378  0.94252393  1
loop_
_geom_bond_atom_site_label_1
_geom_bond_atom_site_label_2
_geom_bond_distance
_geom_bond_site_symmetry_2
Ca0 O8 2.437797 1_464
Ca0 O9 2.437797 1_555
Ca0 O0 2.608042 1_555
Ca0 O11 2.608042 1_455
Ca0 O4 2.608042 1_554
Ca0 O13 2.608042 1_454
Ca0 O7 2.608042 1_554
Ca0 O5 2.608042 1_455
Hg0 O8 2.218847 1_455
Hg0 O9 2.218847 1_555
Hg1 O8 2.218847 1_554
Hg1 O9 2.218847 1_555
Hg2 O9 2.218841 1_555
Hg2 O8 2.218841 1_454
O0 Ta2 1.971489 1_555
O0 Ta0 1.971489 1_555
O1 Ta1 1.982142 1_565
O1 Ta3 1.983482 1_555
O2 Ta1 1.982137 1_555
O2 Ta2 1.983484 1_555
O3 Ta1 1.982137 1_555
O3 Ta0 1.983484 1_555
O4 Ta2 1.971489 1_555
O4 Ta3 1.971489 1_555
O5 Ta0 1.971489 1_555
O5 Ta3 1.971489 1_555
O6 Ta1 1.982137 1_565
O6 Ta2 1.983484 1_655
O7 Ta0 1.971489 1_556
O7 Ta3 1.971489 1_555
O10 Ta1 1.982142 1_555
O10 Ta3 1.983482 1_555
O11 Ta2 1.971489 1_655
O11 Ta3 1.971489 1_555
O12 Ta1 1.982137 1_565
O12 Ta0 1.983484 1_556
O13 Ta2 1.971489 1_655
O13 Ta0 1.971489 1_556
