# generated using pymatgen
data_Rb2BaTa6Cl18
_symmetry_space_group_name_H-M   'P 1'
_cell_length_a   10.42904281
_cell_length_b   10.42917555
_cell_length_c   10.42948052
_cell_angle_alpha   54.67325864
_cell_angle_beta   54.67356062
_cell_angle_gamma   54.67450796
_symmetry_Int_Tables_number   1
_chemical_formula_structural   Rb2BaTa6Cl18
_chemical_formula_sum   'Rb2 Ba1 Ta6 Cl18'
_cell_volume   702.59098777
_cell_formula_units_Z   1
loop_
 _symmetry_equiv_pos_site_id
 _symmetry_equiv_pos_as_xyz
  1  'x, y, z'
loop_
 _atom_site_type_symbol
 _atom_site_label
 _atom_site_symmetry_multiplicity
 _atom_site_fract_x
 _atom_site_fract_y
 _atom_site_fract_z
 _atom_site_occupancy
  Rb  Rb0  1  0.27672743  0.27672085  0.27672844  1
  Rb  Rb1  1  0.72327257  0.72327915  0.72327156  1
  Ba  Ba0  1  0.00000000  0.00000000  0.00000000  1
  Ta  Ta0  1  0.43132851  0.29548072  0.64060873  1
  Ta  Ta1  1  0.35941510  0.56867629  0.70450447  1
  Ta  Ta2  1  0.70451679  0.35939720  0.56867282  1
  Ta  Ta3  1  0.64058490  0.43132371  0.29549553  1
  Ta  Ta4  1  0.56867149  0.70451928  0.35939127  1
  Ta  Ta5  1  0.29548321  0.64060280  0.43132718  1
  Cl  Cl0  1  0.66156030  0.08829579  0.75098643  1
  Cl  Cl1  1  0.75094097  0.66155493  0.08835537  1
  Cl  Cl2  1  0.08833814  0.75095810  0.66154571  1
  Cl  Cl3  1  0.81819041  0.34893586  0.02946708  1
  Cl  Cl4  1  0.17302274  0.42264155  0.58486263  1
  Cl  Cl5  1  0.65105648  0.97056438  0.18179108  1
  Cl  Cl6  1  0.91166186  0.24904190  0.33845429  1
  Cl  Cl7  1  0.57734632  0.41515312  0.82698294  1
  Cl  Cl8  1  0.41517558  0.82694174  0.57730303  1
  Cl  Cl9  1  0.97054759  0.18182489  0.65104468  1
  Cl  Cl10  1  0.18180959  0.65106414  0.97053292  1
  Cl  Cl11  1  0.02945241  0.81817511  0.34895532  1
  Cl  Cl12  1  0.34894352  0.02943562  0.81820892  1
  Cl  Cl13  1  0.24905903  0.33844507  0.91164463  1
  Cl  Cl14  1  0.58482442  0.17305826  0.42269697  1
  Cl  Cl15  1  0.42265368  0.58484688  0.17301706  1
  Cl  Cl16  1  0.33843970  0.91170421  0.24901357  1
  Cl  Cl17  1  0.82697726  0.57735845  0.41513737  1
loop_
_geom_bond_atom_site_label_1
_geom_bond_atom_site_label_2
_geom_bond_distance
_geom_bond_site_symmetry_2
Ba0 Cl12 3.093842 1_554
Ba0 Cl5 3.093842 1_445
Ba0 Cl3 3.093978 1_455
Ba0 Cl10 3.093978 1_544
Ba0 Cl11 3.094118 1_545
Ba0 Cl9 3.094118 1_454
Cl0 Ta2 2.464254 1_555
Cl0 Ta0 2.465658 1_555
Cl0 Rb1 3.635068 1_545
Cl1 Ta4 2.463826 1_555
Cl1 Ta3 2.465468 1_555
Cl1 Rb1 3.635507 1_554
Cl2 Ta1 2.464080 1_555
Cl2 Ta5 2.465466 1_555
Cl2 Rb1 3.635207 1_455
Cl3 Ta3 2.615426 1_555
Cl3 Rb1 3.344871 1_554
Cl4 Ta0 2.478288 1_555
Cl4 Ta5 2.478944 1_555
Cl4 Rb0 3.680546 1_555
Cl4 Rb1 3.783095 1_455
Cl5 Ta4 2.615447 1_555
Cl5 Rb0 3.344654 1_565
Cl6 Ta3 2.464080 1_555
Cl6 Ta2 2.465466 1_555
Cl6 Rb0 3.635207 1_655
Cl7 Ta2 2.478449 1_555
Cl7 Ta1 2.478888 1_555
Cl7 Rb1 3.680321 1_555
Cl7 Rb0 3.783045 1_556
Cl8 Ta1 2.477866 1_555
Cl8 Ta4 2.478436 1_555
Cl8 Rb1 3.680651 1_555
Cl8 Rb0 3.783103 1_565
Cl9 Ta2 2.615316 1_555
Cl9 Rb0 3.344607 1_655
Cl10 Ta1 2.615426 1_555
Cl10 Rb0 3.344871 1_556
Cl11 Ta5 2.615316 1_555
Cl11 Rb1 3.344607 1_455
Cl12 Ta0 2.615447 1_555
Cl12 Rb1 3.344654 1_545
Cl13 Ta0 2.463826 1_555
Cl13 Ta1 2.465468 1_555
Cl13 Rb0 3.635507 1_556
Cl14 Ta3 2.477866 1_555
Cl14 Ta0 2.478436 1_555
Cl14 Rb0 3.680651 1_555
Cl14 Rb1 3.783103 1_545
Cl15 Ta5 2.478449 1_555
Cl15 Ta3 2.478888 1_555
Cl15 Rb0 3.680321 1_555
Cl15 Rb1 3.783045 1_554
Cl16 Ta5 2.464254 1_555
Cl16 Ta4 2.465658 1_555
Cl16 Rb0 3.635068 1_565
Cl17 Ta4 2.478288 1_555
Cl17 Ta2 2.478944 1_555
Cl17 Rb1 3.680546 1_555
Cl17 Rb0 3.783095 1_655
