# generated using pymatgen
data_ScRu(SeO3)4
_symmetry_space_group_name_H-M   'P 1'
_cell_length_a   8.10648979
_cell_length_b   8.39146931
_cell_length_c   8.17544741
_cell_angle_alpha   90.45515271
_cell_angle_beta   90.00000000
_cell_angle_gamma   90.00000000
_symmetry_Int_Tables_number   1
_chemical_formula_structural   ScRu(SeO3)4
_chemical_formula_sum   'Sc2 Ru2 Se8 O24'
_cell_volume   556.12020795
_cell_formula_units_Z   2
loop_
 _symmetry_equiv_pos_site_id
 _symmetry_equiv_pos_as_xyz
  1  'x, y, z'
loop_
 _atom_site_type_symbol
 _atom_site_label
 _atom_site_symmetry_multiplicity
 _atom_site_fract_x
 _atom_site_fract_y
 _atom_site_fract_z
 _atom_site_occupancy
  Sc  Sc0  1  0.00000000  0.50000000  0.00000000  1
  Sc  Sc1  1  0.50000000  0.50000000  0.50000000  1
  Ru  Ru0  1  0.00000000  0.00000000  0.50000000  1
  Ru  Ru1  1  0.50000000  0.00000000  0.00000000  1
  Se  Se0  1  0.34086747  0.68103487  0.16539338  1
  Se  Se1  1  0.84086747  0.31896513  0.33460662  1
  Se  Se2  1  0.68522431  0.84150635  0.68183886  1
  Se  Se3  1  0.18522431  0.15849365  0.81816114  1
  Se  Se4  1  0.65913253  0.31896513  0.83460662  1
  Se  Se5  1  0.15913253  0.68103487  0.66539338  1
  Se  Se6  1  0.31477569  0.15849365  0.31816114  1
  Se  Se7  1  0.81477569  0.84150635  0.18183886  1
  O  O0  1  0.24697104  0.55870864  0.03212220  1
  O  O1  1  0.74697104  0.44129136  0.46787780  1
  O  O2  1  0.76318450  0.98043225  0.54215725  1
  O  O3  1  0.26318450  0.01956775  0.95784275  1
  O  O4  1  0.54238475  0.97637551  0.76570579  1
  O  O5  1  0.47876582  0.56147963  0.25471886  1
  O  O6  1  0.97876582  0.43852037  0.24528114  1
  O  O7  1  0.04238475  0.02362449  0.73429421  1
  O  O8  1  0.98108435  0.22733600  0.47534242  1
  O  O9  1  0.56161320  0.73957174  0.55851848  1
  O  O10  1  0.48108435  0.77266400  0.02465758  1
  O  O11  1  0.06161320  0.26042826  0.94148152  1
  O  O12  1  0.75302896  0.44129136  0.96787780  1
  O  O13  1  0.25302896  0.55870864  0.53212220  1
  O  O14  1  0.23681550  0.01956775  0.45784275  1
  O  O15  1  0.73681550  0.98043225  0.04215725  1
  O  O16  1  0.45761525  0.02362449  0.23429421  1
  O  O17  1  0.52123418  0.43852037  0.74528114  1
  O  O18  1  0.02123418  0.56147963  0.75471886  1
  O  O19  1  0.95761525  0.97637551  0.26570579  1
  O  O20  1  0.01891565  0.77266400  0.52465758  1
  O  O21  1  0.43838680  0.26042826  0.44148152  1
  O  O22  1  0.51891565  0.22733600  0.97534242  1
  O  O23  1  0.93838680  0.73957174  0.05851848  1
loop_
_geom_bond_atom_site_label_1
_geom_bond_atom_site_label_2
_geom_bond_distance
_geom_bond_site_symmetry_2
O0 Se0 1.674046 1_555
O0 Sc0 2.077954 1_555
O1 Se1 1.674046 1_555
O1 Sc1 2.077954 1_555
O2 Se2 1.756046 1_555
O2 Ru0 1.957565 1_665
O3 Se3 1.756046 1_555
O3 Ru1 1.957565 1_556
O4 Se2 1.754834 1_555
O4 Ru1 1.954561 1_566
O5 Se0 1.673642 1_555
O5 Sc1 2.081678 1_555
O6 Se1 1.673642 1_555
O6 Sc0 2.081678 1_655
O7 Se3 1.754834 1_555
O7 Ru0 1.954561 1_555
O8 Se1 1.794745 1_555
O8 Ru0 1.926010 1_655
O9 Se2 1.654857 1_555
O9 Sc1 2.122407 1_555
O10 Se0 1.794745 1_555
O10 Ru1 1.926010 1_565
O11 Se3 1.654857 1_555
O11 Sc0 2.122407 1_556
O12 Se4 1.674046 1_555
O12 Sc0 2.077954 1_656
O13 Se5 1.674046 1_555
O13 Sc1 2.077954 1_555
O14 Se6 1.756046 1_555
O14 Ru0 1.957565 1_555
O15 Se7 1.756046 1_555
O15 Ru1 1.957565 1_565
O16 Se6 1.754834 1_555
O16 Ru1 1.954561 1_555
O17 Se4 1.673642 1_555
O17 Sc1 2.081678 1_555
O18 Se5 1.673642 1_555
O18 Sc0 2.081678 1_556
O19 Se7 1.754834 1_555
O19 Ru0 1.954561 1_665
O20 Se5 1.794745 1_555
O20 Ru0 1.926010 1_565
O21 Se6 1.654857 1_555
O21 Sc1 2.122407 1_555
O22 Se4 1.794745 1_555
O22 Ru1 1.926010 1_556
O23 Se7 1.654857 1_555
O23 Sc0 2.122407 1_655
