# generated using pymatgen
data_Ba6HPb2N
_symmetry_space_group_name_H-M   'P 1'
_cell_length_a   7.92901297
_cell_length_b   7.92901293
_cell_length_c   7.92901270
_cell_angle_alpha   59.99999680
_cell_angle_beta   59.99999699
_cell_angle_gamma   59.99999781
_symmetry_Int_Tables_number   1
_chemical_formula_structural   Ba6HPb2N
_chemical_formula_sum   'Ba6 H1 Pb2 N1'
_cell_volume   352.48638130
_cell_formula_units_Z   1
loop_
 _symmetry_equiv_pos_site_id
 _symmetry_equiv_pos_as_xyz
  1  'x, y, z'
loop_
 _atom_site_type_symbol
 _atom_site_label
 _atom_site_symmetry_multiplicity
 _atom_site_fract_x
 _atom_site_fract_y
 _atom_site_fract_z
 _atom_site_occupancy
  Ba  Ba0  1  0.25850626  0.74149374  0.74149374  1
  Ba  Ba1  1  0.25850626  0.74149374  0.25850626  1
  Ba  Ba2  1  0.74149374  0.25850626  0.74149374  1
  Ba  Ba3  1  0.74149374  0.74149374  0.25850626  1
  Ba  Ba4  1  0.25850626  0.25850626  0.74149374  1
  Ba  Ba5  1  0.74149374  0.25850626  0.25850626  1
  H  H0  1  0.00000000  0.00000000  0.00000000  1
  Pb  Pb0  1  0.25000000  0.25000000  0.25000000  1
  Pb  Pb1  1  0.75000000  0.75000000  0.75000000  1
  N  N0  1  0.50000000  0.50000000  0.50000000  1
loop_
_geom_bond_atom_site_label_1
_geom_bond_atom_site_label_2
_geom_bond_distance
_geom_bond_site_symmetry_2
Ba0 N0 2.707946 1_555
Ba0 H0 2.898713 1_566
Ba0 Pb0 3.965653 1_556
Ba0 Pb0 3.965653 1_565
Ba0 Pb1 3.965654 1_455
Ba0 Pb1 3.965654 1_555
Ba1 N0 2.707946 1_555
Ba1 H0 2.898713 1_565
Ba1 Pb1 3.965653 1_554
Ba1 Pb1 3.965654 1_455
Ba1 Pb0 3.965654 1_565
Ba1 Pb0 3.965654 1_555
Ba2 N0 2.707946 1_555
Ba2 H0 2.898713 1_656
Ba2 Pb0 3.965653 1_556
Ba2 Pb0 3.965654 1_655
Ba2 Pb1 3.965654 1_545
Ba2 Pb1 3.965654 1_555
Ba3 N0 2.707946 1_555
Ba3 H0 2.898713 1_665
Ba3 Pb0 3.965654 1_565
Ba3 Pb1 3.965654 1_554
Ba3 Pb0 3.965654 1_655
Ba3 Pb1 3.965654 1_555
Ba4 N0 2.707946 1_555
Ba4 H0 2.898713 1_556
Ba4 Pb1 3.965654 1_545
Ba4 Pb0 3.965654 1_556
Ba4 Pb1 3.965654 1_455
Ba4 Pb0 3.965654 1_555
Ba5 N0 2.707946 1_555
Ba5 H0 2.898713 1_655
Ba5 Pb1 3.965653 1_554
Ba5 Pb1 3.965653 1_545
Ba5 Pb0 3.965654 1_655
Ba5 Pb0 3.965654 1_555
