# generated using pymatgen
data_Ca7Sn6
_symmetry_space_group_name_H-M   'P 1'
_cell_length_a   7.93694600
_cell_length_b   8.50655000
_cell_length_c   23.90688000
_cell_angle_alpha   90.00000000
_cell_angle_beta   90.00000000
_cell_angle_gamma   90.00000000
_symmetry_Int_Tables_number   1
_chemical_formula_structural   Ca7Sn6
_chemical_formula_sum   'Ca28 Sn24'
_cell_volume   1614.09757938
_cell_formula_units_Z   4
loop_
 _symmetry_equiv_pos_site_id
 _symmetry_equiv_pos_as_xyz
  1  'x, y, z'
loop_
 _atom_site_type_symbol
 _atom_site_label
 _atom_site_symmetry_multiplicity
 _atom_site_fract_x
 _atom_site_fract_y
 _atom_site_fract_z
 _atom_site_occupancy
  Ca  Ca0  1  0.99674300  0.67478900  0.66358600  1
  Ca  Ca1  1  0.49674300  0.82521100  0.83641400  1
  Ca  Ca2  1  0.50325700  0.17478900  0.33641400  1
  Ca  Ca3  1  0.00325700  0.32521100  0.16358600  1
  Ca  Ca4  1  0.00325700  0.32521100  0.33641400  1
  Ca  Ca5  1  0.50325700  0.17478900  0.16358600  1
  Ca  Ca6  1  0.49674300  0.82521100  0.66358600  1
  Ca  Ca7  1  0.99674300  0.67478900  0.83641400  1
  Ca  Ca8  1  0.82857300  0.17975000  0.64748200  1
  Ca  Ca9  1  0.32857300  0.32025000  0.85251800  1
  Ca  Ca10  1  0.67142700  0.67975000  0.35251800  1
  Ca  Ca11  1  0.17142700  0.82025000  0.14748200  1
  Ca  Ca12  1  0.17142700  0.82025000  0.35251800  1
  Ca  Ca13  1  0.67142700  0.67975000  0.14748200  1
  Ca  Ca14  1  0.32857300  0.32025000  0.64748200  1
  Ca  Ca15  1  0.82857300  0.17975000  0.85251800  1
  Ca  Ca16  1  0.66956800  0.32584400  0.02151800  1
  Ca  Ca17  1  0.16956800  0.17415600  0.47848200  1
  Ca  Ca18  1  0.83043200  0.82584400  0.97848200  1
  Ca  Ca19  1  0.33043200  0.67415600  0.52151800  1
  Ca  Ca20  1  0.33043200  0.67415600  0.97848200  1
  Ca  Ca21  1  0.83043200  0.82584400  0.52151800  1
  Ca  Ca22  1  0.16956800  0.17415600  0.02151800  1
  Ca  Ca23  1  0.66956800  0.32584400  0.47848200  1
  Ca  Ca24  1  0.66581800  0.49376400  0.75000000  1
  Ca  Ca25  1  0.16581800  0.00623600  0.75000000  1
  Ca  Ca26  1  0.83418200  0.99376400  0.25000000  1
  Ca  Ca27  1  0.33418200  0.50623600  0.25000000  1
  Sn  Sn0  1  0.00027900  0.44453800  0.55812400  1
  Sn  Sn1  1  0.50027900  0.05546200  0.94187600  1
  Sn  Sn2  1  0.49972100  0.94453800  0.44187600  1
  Sn  Sn3  1  0.99972100  0.55546200  0.05812400  1
  Sn  Sn4  1  0.99972100  0.55546200  0.44187600  1
  Sn  Sn5  1  0.49972100  0.94453800  0.05812400  1
  Sn  Sn6  1  0.50027900  0.05546200  0.55812400  1
  Sn  Sn7  1  0.00027900  0.44453800  0.94187600  1
  Sn  Sn8  1  0.84141300  0.02483200  0.09914300  1
  Sn  Sn9  1  0.34141300  0.47516800  0.40085700  1
  Sn  Sn10  1  0.65858700  0.52483200  0.90085700  1
  Sn  Sn11  1  0.15858700  0.97516800  0.59914300  1
  Sn  Sn12  1  0.15858700  0.97516800  0.90085700  1
  Sn  Sn13  1  0.65858700  0.52483200  0.59914300  1
  Sn  Sn14  1  0.34141300  0.47516800  0.09914300  1
  Sn  Sn15  1  0.84141300  0.02483200  0.40085700  1
  Sn  Sn16  1  0.79313000  0.88672600  0.75000000  1
  Sn  Sn17  1  0.29313000  0.61327400  0.75000000  1
  Sn  Sn18  1  0.70687000  0.38672600  0.25000000  1
  Sn  Sn19  1  0.20687000  0.11327400  0.25000000  1
  Sn  Sn20  1  0.54190800  0.13528600  0.75000000  1
  Sn  Sn21  1  0.04190800  0.36471400  0.75000000  1
  Sn  Sn22  1  0.95809200  0.63528600  0.25000000  1
  Sn  Sn23  1  0.45809200  0.86471400  0.25000000  1
loop_
_geom_bond_atom_site_label_1
_geom_bond_atom_site_label_2
_geom_bond_distance
_geom_bond_site_symmetry_2
Ca0 Sn17 3.174199 1_655
Ca0 Sn16 3.182741 1_555
Ca0 Sn0 3.192782 1_655
Ca0 Sn11 3.248476 1_655
Ca0 Sn13 3.347268 1_555
Ca0 Sn21 3.369524 1_655
Ca1 Sn16 3.174199 1_555
Ca1 Sn17 3.182741 1_555
Ca1 Sn1 3.192782 1_565
Ca1 Sn10 3.248476 1_555
Ca1 Sn12 3.347268 1_555
Ca1 Sn20 3.369524 1_565
Ca2 Sn19 3.174199 1_555
Ca2 Sn18 3.182741 1_555
Ca2 Sn2 3.192782 1_545
Ca2 Sn9 3.248476 1_555
Ca2 Sn15 3.347268 1_555
Ca2 Sn23 3.369524 1_545
Ca3 Sn18 3.174199 1_455
Ca3 Sn19 3.182741 1_555
Ca3 Sn3 3.192782 1_455
Ca3 Sn8 3.248476 1_455
Ca3 Sn14 3.347268 1_555
Ca3 Sn22 3.369524 1_455
Ca4 Sn18 3.174199 1_455
Ca4 Sn19 3.182741 1_555
Ca4 Sn4 3.192782 1_455
Ca4 Sn15 3.248476 1_455
Ca4 Sn9 3.347268 1_555
Ca4 Sn22 3.369524 1_455
Ca5 Sn19 3.174199 1_555
Ca5 Sn18 3.182741 1_555
Ca5 Sn5 3.192782 1_545
Ca5 Sn14 3.248476 1_555
Ca5 Sn8 3.347268 1_555
Ca5 Sn23 3.369524 1_545
Ca6 Sn16 3.174199 1_555
Ca6 Sn17 3.182741 1_555
Ca6 Sn6 3.192782 1_565
Ca6 Sn13 3.248476 1_555
Ca6 Sn11 3.347268 1_555
Ca6 Sn20 3.369524 1_565
Ca7 Sn17 3.174199 1_655
Ca7 Sn16 3.182741 1_555
Ca7 Sn7 3.192782 1_655
Ca7 Sn12 3.248476 1_655
Ca7 Sn10 3.347268 1_555
Ca7 Sn21 3.369524 1_655
Ca8 Sn11 3.350349 1_645
Ca8 Sn20 3.365507 1_555
Ca8 Sn21 3.368897 1_655
Ca8 Sn0 3.390337 1_655
Ca8 Sn13 3.431131 1_555
Ca8 Sn16 3.507014 1_545
Ca8 Sn6 3.531413 1_555
Ca9 Sn10 3.350349 1_555
Ca9 Sn21 3.365507 1_555
Ca9 Sn20 3.368897 1_555
Ca9 Sn1 3.390337 1_555
Ca9 Sn12 3.431131 1_545
Ca9 Sn17 3.507014 1_555
Ca9 Sn7 3.531413 1_555
Ca10 Sn9 3.350349 1_555
Ca10 Sn22 3.365507 1_555
Ca10 Sn23 3.368897 1_555
Ca10 Sn2 3.390337 1_555
Ca10 Sn15 3.431131 1_565
Ca10 Sn18 3.507014 1_555
Ca10 Sn4 3.531413 1_555
Ca11 Sn8 3.350349 1_465
Ca11 Sn23 3.365507 1_555
Ca11 Sn22 3.368897 1_455
Ca11 Sn3 3.390337 1_455
Ca11 Sn14 3.431131 1_555
Ca11 Sn19 3.507014 1_565
Ca11 Sn5 3.531413 1_555
Ca12 Sn15 3.350349 1_465
Ca12 Sn23 3.365507 1_555
Ca12 Sn22 3.368897 1_455
Ca12 Sn4 3.390337 1_455
Ca12 Sn9 3.431131 1_555
Ca12 Sn19 3.507014 1_565
Ca12 Sn2 3.531413 1_555
Ca13 Sn14 3.350349 1_555
Ca13 Sn22 3.365507 1_555
Ca13 Sn23 3.368897 1_555
Ca13 Sn5 3.390337 1_555
Ca13 Sn8 3.431131 1_565
Ca13 Sn18 3.507014 1_555
Ca13 Sn3 3.531413 1_555
Ca14 Sn13 3.350349 1_555
Ca14 Sn21 3.365507 1_555
Ca14 Sn20 3.368897 1_555
Ca14 Sn6 3.390337 1_555
Ca14 Sn11 3.431131 1_545
Ca14 Sn17 3.507014 1_555
Ca14 Sn0 3.531413 1_555
Ca15 Sn12 3.350349 1_645
Ca15 Sn20 3.365507 1_555
Ca15 Sn21 3.368897 1_655
Ca15 Sn7 3.390337 1_655
Ca15 Sn10 3.431131 1_555
Ca15 Sn16 3.507014 1_545
Ca15 Sn1 3.531413 1_555
Ca16 Sn1 3.274237 1_554
Ca16 Sn10 3.345731 1_554
Ca16 Sn3 3.383431 1_555
Ca16 Sn7 3.396232 1_654
Ca16 Sn14 3.441083 1_555
Ca16 Sn8 3.443939 1_555
Ca16 Sn5 3.619955 1_545
Ca17 Sn0 3.274237 1_555
Ca17 Sn11 3.345731 1_545
Ca17 Sn2 3.383431 1_545
Ca17 Sn6 3.396232 1_555
Ca17 Sn15 3.441083 1_455
Ca17 Sn9 3.443939 1_555
Ca17 Sn4 3.619955 1_455
Ca18 Sn3 3.274237 1_556
Ca18 Sn8 3.345731 1_566
Ca18 Sn1 3.383431 1_565
Ca18 Sn5 3.396232 1_556
Ca18 Sn12 3.441083 1_655
Ca18 Sn10 3.443939 1_555
Ca18 Sn7 3.619955 1_655
Ca19 Sn2 3.274237 1_555
Ca19 Sn9 3.345731 1_555
Ca19 Sn0 3.383431 1_555
Ca19 Sn4 3.396232 1_455
Ca19 Sn13 3.441083 1_555
Ca19 Sn11 3.443939 1_555
Ca19 Sn6 3.619955 1_565
Ca20 Sn5 3.274237 1_556
Ca20 Sn14 3.345731 1_556
Ca20 Sn7 3.383431 1_555
Ca20 Sn3 3.396232 1_456
Ca20 Sn10 3.441083 1_555
Ca20 Sn12 3.443939 1_555
Ca20 Sn1 3.619955 1_565
Ca21 Sn4 3.274237 1_555
Ca21 Sn15 3.345731 1_565
Ca21 Sn6 3.383431 1_565
Ca21 Sn2 3.396232 1_555
Ca21 Sn11 3.441083 1_655
Ca21 Sn13 3.443939 1_555
Ca21 Sn0 3.619955 1_655
Ca22 Sn7 3.274237 1_554
Ca22 Sn12 3.345731 1_544
Ca22 Sn5 3.383431 1_545
Ca22 Sn1 3.396232 1_554
Ca22 Sn8 3.441083 1_455
Ca22 Sn14 3.443939 1_555
Ca22 Sn3 3.619955 1_455
Ca23 Sn6 3.274237 1_555
Ca23 Sn13 3.345731 1_555
Ca23 Sn4 3.383431 1_555
Ca23 Sn0 3.396232 1_655
Ca23 Sn9 3.441083 1_555
Ca23 Sn15 3.443939 1_555
Ca23 Sn2 3.619955 1_545
Ca24 Sn17 3.127827 1_555
Ca24 Sn21 3.180465 1_655
Ca24 Sn20 3.204078 1_555
Ca24 Sn16 3.492138 1_555
Ca24 Sn13 3.616646 1_555
Ca24 Sn10 3.616646 1_555
Ca25 Sn16 3.127827 1_445
Ca25 Sn20 3.180465 1_555
Ca25 Sn21 3.204078 1_555
Ca25 Sn17 3.492138 1_545
Ca25 Sn11 3.616646 1_545
Ca25 Sn12 3.616646 1_545
Ca26 Sn19 3.127827 1_665
Ca26 Sn23 3.180465 1_555
Ca26 Sn22 3.204078 1_555
Ca26 Sn18 3.492138 1_565
Ca26 Sn8 3.616646 1_565
Ca26 Sn15 3.616646 1_565
Ca27 Sn18 3.127827 1_555
Ca27 Sn22 3.180465 1_455
Ca27 Sn23 3.204078 1_555
Ca27 Sn19 3.492138 1_555
Ca27 Sn14 3.616646 1_555
Ca27 Sn9 3.616646 1_555
Sn0 Sn4 2.934946 1_455
Sn0 Sn13 2.963624 1_455
Sn1 Sn5 2.934946 1_546
Sn1 Sn12 2.963624 1_545
Sn2 Sn6 2.934946 1_565
Sn3 Sn7 2.934946 1_654
Sn4 Sn9 2.963624 1_655
Sn5 Sn8 2.963624 1_565
Sn10 Sn7 2.963624 1_655
Sn11 Sn6 2.963624 1_565
Sn14 Sn3 2.963624 1_455
Sn15 Sn2 2.963624 1_545
Sn16 Sn20 2.906272 1_565
Sn17 Sn21 2.906272 1_555
Sn18 Sn22 2.906272 1_555
Sn19 Sn23 2.906272 1_545
