# generated using pymatgen
data_Ti(NbCo)6
_symmetry_space_group_name_H-M   'P 1'
_cell_length_a   9.04034256
_cell_length_b   9.04034264
_cell_length_c   9.04034261
_cell_angle_alpha   31.81238364
_cell_angle_beta   31.81238314
_cell_angle_gamma   31.81238616
_symmetry_Int_Tables_number   1
_chemical_formula_structural   Ti(NbCo)6
_chemical_formula_sum   'Ti1 Nb6 Co6'
_cell_volume   182.36112681
_cell_formula_units_Z   1
loop_
 _symmetry_equiv_pos_site_id
 _symmetry_equiv_pos_as_xyz
  1  'x, y, z'
loop_
 _atom_site_type_symbol
 _atom_site_label
 _atom_site_symmetry_multiplicity
 _atom_site_fract_x
 _atom_site_fract_y
 _atom_site_fract_z
 _atom_site_occupancy
  Ti  Ti0  1  0.00000000  0.00000000  0.00000000  1
  Nb  Nb0  1  0.83311924  0.83311924  0.83311924  1
  Nb  Nb1  1  0.16688076  0.16688076  0.16688076  1
  Nb  Nb2  1  0.65463805  0.65463805  0.65463805  1
  Nb  Nb3  1  0.34536195  0.34536195  0.34536195  1
  Nb  Nb4  1  0.55072696  0.55072696  0.55072696  1
  Nb  Nb5  1  0.44927304  0.44927304  0.44927304  1
  Co  Co0  1  0.90813803  0.41577606  0.90813803  1
  Co  Co1  1  0.90813803  0.90813803  0.41577606  1
  Co  Co2  1  0.41577606  0.90813803  0.90813803  1
  Co  Co3  1  0.09186197  0.58422394  0.09186197  1
  Co  Co4  1  0.09186197  0.09186197  0.58422394  1
  Co  Co5  1  0.58422394  0.09186197  0.09186197  1
loop_
_geom_bond_atom_site_label_1
_geom_bond_atom_site_label_2
_geom_bond_distance
_geom_bond_site_symmetry_2
Nb2 Nb4 2.673337 1_555
Nb2 Ti0 2.877603 1_665
Nb2 Ti0 2.877603 1_566
Nb2 Ti0 2.877603 1_656
Nb2 Nb3 2.927097 1_556
Nb2 Nb3 2.927098 1_655
Nb2 Nb3 2.927098 1_565
Nb3 Nb5 2.673337 1_555
Nb3 Ti0 2.877603 1_556
Nb3 Ti0 2.877603 1_655
Nb3 Ti0 2.877603 1_565
Nb4 Nb5 2.610121 1_555
Co0 Co1 2.439776 1_555
Co0 Co2 2.439777 1_555
Co0 Ti0 2.463607 1_656
Co0 Co1 2.515473 1_546
Co0 Co2 2.515473 1_645
Co0 Nb5 2.669218 1_655
Co0 Nb5 2.669218 1_556
Co0 Nb0 2.690536 1_555
Co0 Nb2 2.696620 1_555
Co0 Nb1 2.722984 1_656
Co0 Nb3 2.993886 1_556
Co0 Nb3 2.993886 1_655
Co1 Co2 2.439776 1_555
Co1 Ti0 2.463606 1_665
Co1 Co2 2.515473 1_654
Co1 Nb5 2.669218 1_655
Co1 Nb5 2.669218 1_565
Co1 Nb0 2.690536 1_555
Co1 Nb2 2.696620 1_555
Co1 Nb1 2.722984 1_665
Co1 Nb3 2.993887 1_565
Co1 Nb3 2.993887 1_655
Co2 Ti0 2.463606 1_566
Co2 Nb5 2.669218 1_565
Co2 Nb5 2.669218 1_556
Co2 Nb0 2.690536 1_555
Co2 Nb2 2.696620 1_555
Co2 Nb1 2.722984 1_566
Co2 Nb3 2.993886 1_556
Co2 Nb3 2.993887 1_565
Co3 Co4 2.439776 1_555
Co3 Co5 2.439777 1_555
Co3 Ti0 2.463607 1_565
Co3 Co4 2.515473 1_564
Co3 Co5 2.515473 1_465
Co3 Nb4 2.669218 1_455
Co3 Nb4 2.669218 1_554
Co3 Nb1 2.690536 1_555
Co3 Nb3 2.696620 1_555
Co3 Nb0 2.722984 1_454
Co3 Nb2 2.993886 1_554
Co3 Nb2 2.993886 1_455
Co4 Co5 2.439776 1_555
Co4 Ti0 2.463606 1_556
Co4 Co5 2.515473 1_456
Co4 Nb4 2.669218 1_455
Co4 Nb4 2.669218 1_545
Co4 Nb1 2.690536 1_555
Co4 Nb3 2.696620 1_555
Co4 Nb0 2.722984 1_445
Co4 Nb2 2.993887 1_545
Co4 Nb2 2.993887 1_455
Co5 Ti0 2.463606 1_655
Co5 Nb4 2.669218 1_545
Co5 Nb4 2.669218 1_554
Co5 Nb1 2.690536 1_555
Co5 Nb3 2.696620 1_555
Co5 Nb0 2.722984 1_544
Co5 Nb2 2.993886 1_554
Co5 Nb2 2.993887 1_545
