# generated using pymatgen
data_Ba2Ga(SiRh2)3
_symmetry_space_group_name_H-M   'P 1'
_cell_length_a   5.89259759
_cell_length_b   6.87090667
_cell_length_c   6.87090720
_cell_angle_alpha   62.08470906
_cell_angle_beta   64.57889419
_cell_angle_gamma   64.57890222
_symmetry_Int_Tables_number   1
_chemical_formula_structural   Ba2Ga(SiRh2)3
_chemical_formula_sum   'Ba2 Ga1 Si3 Rh6'
_cell_volume   212.73806516
_cell_formula_units_Z   1
loop_
 _symmetry_equiv_pos_site_id
 _symmetry_equiv_pos_as_xyz
  1  'x, y, z'
loop_
 _atom_site_type_symbol
 _atom_site_label
 _atom_site_symmetry_multiplicity
 _atom_site_fract_x
 _atom_site_fract_y
 _atom_site_fract_z
 _atom_site_occupancy
  Ba  Ba0  1  0.50369450  0.74744592  0.74744592  1
  Ba  Ba1  1  0.49372141  0.25546482  0.25546482  1
  Ga  Ga0  1  0.16628485  0.58550939  0.58550939  1
  Si  Si0  1  0.81749935  0.43072912  0.43072912  1
  Si  Si1  1  0.16771916  0.08115980  0.08115980  1
  Si  Si2  1  0.85466958  0.89624619  0.89624619  1
  Rh  Rh0  1  0.50792238  0.22842055  0.76973395  1
  Rh  Rh1  1  0.99435953  0.76787632  0.22977698  1
  Rh  Rh2  1  0.50792238  0.76973395  0.22842055  1
  Rh  Rh3  1  0.99435953  0.22977698  0.76787632  1
  Rh  Rh4  1  0.99592266  0.47851041  0.02912553  1
  Rh  Rh5  1  0.99592266  0.02912553  0.47851041  1
loop_
_geom_bond_atom_site_label_1
_geom_bond_atom_site_label_2
_geom_bond_distance
_geom_bond_site_symmetry_2
Ba0 Si0 3.227230 1_555
Ba0 Si2 3.313195 1_555
Ba0 Si2 3.313877 1_455
Ba0 Ga0 3.374413 1_555
Ba0 Ga0 3.379350 1_655
Ba0 Rh0 3.390154 1_565
Ba0 Rh2 3.390155 1_556
Ba0 Rh1 3.397787 1_456
Ba0 Rh3 3.397787 1_465
Ba0 Si1 3.400383 1_566
Ba0 Rh1 3.475966 1_555
Ba0 Rh3 3.475966 1_555
Ba0 Rh0 3.486736 1_555
Ba0 Rh2 3.486736 1_555
Ba0 Rh5 3.527408 1_565
Ba0 Rh4 3.527409 1_556
Ba0 Rh4 3.541093 1_456
Ba0 Rh5 3.541094 1_465
Ba0 Ba1 3.544092 1_556
Ba0 Ba1 3.544092 1_565
Ba1 Rh5 3.346188 1_455
Ba1 Rh4 3.346188 1_455
Ba1 Rh4 3.351918 1_555
Ba1 Rh5 3.351918 1_555
Ba1 Ga0 3.363021 1_555
Ba1 Rh2 3.392255 1_545
Ba1 Rh0 3.392256 1_554
Ba1 Rh3 3.402824 1_554
Ba1 Rh1 3.402824 1_545
Ba1 Si1 3.437726 1_655
Ba1 Si0 3.441399 1_555
Ba1 Si1 3.442715 1_555
Ba1 Si0 3.449156 1_455
Ba1 Rh3 3.472023 1_455
Ba1 Rh1 3.472024 1_455
Ba1 Rh2 3.486092 1_555
Ba1 Rh0 3.486093 1_555
Ba1 Si2 3.660252 1_544
Ga0 Rh2 2.591134 1_555
Ga0 Rh0 2.591135 1_555
Ga0 Rh3 2.595948 1_455
Ga0 Rh1 2.595949 1_455
Ga0 Rh5 2.597551 1_465
Ga0 Rh4 2.597551 1_456
Rh0 Si1 2.377525 1_556
Rh0 Si2 2.408955 1_545
Rh0 Si0 2.486536 1_555
Rh1 Si1 2.377788 1_665
Rh1 Si2 2.410561 1_554
Rh1 Si0 2.490216 1_555
Rh2 Si1 2.377525 1_565
Rh2 Si2 2.408955 1_554
Rh2 Si0 2.486536 1_555
Rh3 Si1 2.377789 1_656
Rh3 Si2 2.410560 1_545
Rh3 Si0 2.490217 1_555
Rh4 Si1 2.372835 1_655
Rh4 Si0 2.405146 1_555
Rh4 Si2 2.431513 1_554
Rh5 Si1 2.372835 1_655
Rh5 Si0 2.405146 1_555
Rh5 Si2 2.431513 1_545
