# generated using pymatgen
data_Cs(BIr)2
_symmetry_space_group_name_H-M   'P 1'
_cell_length_a   14.33370851
_cell_length_b   14.33370929
_cell_length_c   14.33371019
_cell_angle_alpha   147.82599942
_cell_angle_beta   147.82600488
_cell_angle_gamma   46.14229251
_symmetry_Int_Tables_number   1
_chemical_formula_structural   Cs(BIr)2
_chemical_formula_sum   'Cs8 B16 Ir16'
_cell_volume   832.13741501
_cell_formula_units_Z   8
loop_
 _symmetry_equiv_pos_site_id
 _symmetry_equiv_pos_as_xyz
  1  'x, y, z'
loop_
 _atom_site_type_symbol
 _atom_site_label
 _atom_site_symmetry_multiplicity
 _atom_site_fract_x
 _atom_site_fract_y
 _atom_site_fract_z
 _atom_site_occupancy
  Cs  Cs0_0  1  0.00000000  0.00000000  0.00000000  1
  Cs  Cs0_1  1  0.00000000  0.00000000  0.50000000  1
  Cs  Cs0_2  1  0.00000000  0.50000000  0.00000000  1
  Cs  Cs0_3  1  0.00000000  0.50000000  0.50000000  1
  Cs  Cs0_4  1  0.50000000  0.00000000  0.00000000  1
  Cs  Cs0_5  1  0.50000000  0.00000000  0.50000000  1
  Cs  Cs0_6  1  0.50000000  0.50000000  0.00000000  1
  Cs  Cs0_7  1  0.50000000  0.50000000  0.50000000  1
  B  B0_0  1  0.35031742  0.35031742  0.00000000  1
  B  B0_1  1  0.35031742  0.35031742  0.50000000  1
  B  B0_2  1  0.35031742  0.85031742  0.00000000  1
  B  B0_3  1  0.35031742  0.85031742  0.50000000  1
  B  B0_4  1  0.85031742  0.35031742  0.00000000  1
  B  B0_5  1  0.85031742  0.35031742  0.50000000  1
  B  B0_6  1  0.85031742  0.85031742  0.00000000  1
  B  B0_7  1  0.85031742  0.85031742  0.50000000  1
  B  B1_0  1  0.14968258  0.14968258  0.50000000  1
  B  B1_1  1  0.14968258  0.14968258  1.00000000  1
  B  B1_2  1  0.14968258  0.64968258  0.50000000  1
  B  B1_3  1  0.14968258  0.64968258  1.00000000  1
  B  B1_4  1  0.64968258  0.14968258  0.50000000  1
  B  B1_5  1  0.64968258  0.14968258  1.00000000  1
  B  B1_6  1  0.64968258  0.64968258  0.50000000  1
  B  B1_7  1  0.64968258  0.64968258  1.00000000  1
  Ir  Ir0_0  1  0.12500000  0.37500000  0.25000000  1
  Ir  Ir0_1  1  0.12500000  0.37500000  0.75000000  1
  Ir  Ir0_2  1  0.12500000  0.87500000  0.25000000  1
  Ir  Ir0_3  1  0.12500000  0.87500000  0.75000000  1
  Ir  Ir0_4  1  0.62500000  0.37500000  0.25000000  1
  Ir  Ir0_5  1  0.62500000  0.37500000  0.75000000  1
  Ir  Ir0_6  1  0.62500000  0.87500000  0.25000000  1
  Ir  Ir0_7  1  0.62500000  0.87500000  0.75000000  1
  Ir  Ir1_0  1  0.37500000  0.12500000  0.25000000  1
  Ir  Ir1_1  1  0.37500000  0.12500000  0.75000000  1
  Ir  Ir1_2  1  0.37500000  0.62500000  0.25000000  1
  Ir  Ir1_3  1  0.37500000  0.62500000  0.75000000  1
  Ir  Ir1_4  1  0.87500000  0.12500000  0.25000000  1
  Ir  Ir1_5  1  0.87500000  0.12500000  0.75000000  1
  Ir  Ir1_6  1  0.87500000  0.62500000  0.25000000  1
  Ir  Ir1_7  1  0.87500000  0.62500000  0.75000000  1
loop_
_geom_bond_atom_site_label_1
_geom_bond_atom_site_label_2
_geom_bond_distance
_geom_bond_site_symmetry_2
Cs0_0 Ir0_7 3.848749 1_444
Cs0_0 Ir1_0 3.848749 1_555
Cs0_0 Ir1_7 3.848749 1_444
Cs0_0 Ir0_0 3.848749 1_555
Cs0_0 Ir0_2 3.848750 1_545
Cs0_0 Ir1_5 3.848750 1_454
Cs0_0 Ir1_4 3.848750 1_455
Cs0_0 Ir0_3 3.848750 1_544
Cs0_0 Cs0_5 3.971822 1_454
Cs0_0 Cs0_5 3.971822 1_555
Cs0_0 Cs0_3 3.971823 1_544
Cs0_0 Cs0_3 3.971823 1_555
Cs0_1 Ir0_6 3.848749 1_445
Cs0_1 Ir1_1 3.848749 1_555
Cs0_1 Ir1_6 3.848749 1_445
Cs0_1 Ir0_1 3.848749 1_555
Cs0_1 Ir0_3 3.848750 1_545
Cs0_1 Ir1_4 3.848750 1_455
Cs0_1 Ir1_5 3.848750 1_455
Cs0_1 Ir0_2 3.848750 1_545
Cs0_1 Cs0_4 3.971822 1_455
Cs0_1 Cs0_4 3.971822 1_556
Cs0_1 Cs0_2 3.971823 1_545
Cs0_1 Cs0_2 3.971823 1_556
Cs0_2 Ir1_2 3.848749 1_555
Cs0_2 Ir0_5 3.848749 1_454
Cs0_2 Ir1_5 3.848749 1_454
Cs0_2 Ir0_2 3.848749 1_555
Cs0_2 Ir0_0 3.848750 1_555
Cs0_2 Ir1_7 3.848750 1_454
Cs0_2 Ir1_6 3.848750 1_455
Cs0_2 Ir0_1 3.848750 1_554
Cs0_2 Cs0_7 3.971822 1_454
Cs0_2 Cs0_7 3.971822 1_555
Cs0_3 Ir0_4 3.848749 1_455
Cs0_3 Ir1_3 3.848749 1_555
Cs0_3 Ir1_4 3.848749 1_455
Cs0_3 Ir0_3 3.848749 1_555
Cs0_3 Ir0_1 3.848750 1_555
Cs0_3 Ir1_6 3.848750 1_455
Cs0_3 Ir1_7 3.848750 1_455
Cs0_3 Ir0_0 3.848750 1_555
Cs0_3 Cs0_6 3.971822 1_455
Cs0_3 Cs0_6 3.971822 1_556
Cs0_4 Ir0_3 3.848749 1_544
Cs0_4 Ir1_4 3.848749 1_555
Cs0_4 Ir1_3 3.848749 1_544
Cs0_4 Ir0_4 3.848749 1_555
Cs0_4 Ir0_6 3.848750 1_545
Cs0_4 Ir1_1 3.848750 1_554
Cs0_4 Ir1_0 3.848750 1_555
Cs0_4 Ir0_7 3.848750 1_544
Cs0_4 Cs0_7 3.971823 1_544
Cs0_4 Cs0_7 3.971823 1_555
Cs0_5 Ir0_2 3.848749 1_545
Cs0_5 Ir1_5 3.848749 1_555
Cs0_5 Ir1_2 3.848749 1_545
Cs0_5 Ir0_5 3.848749 1_555
Cs0_5 Ir0_7 3.848750 1_545
Cs0_5 Ir1_0 3.848750 1_555
Cs0_5 Ir1_1 3.848750 1_555
Cs0_5 Ir0_6 3.848750 1_545
Cs0_5 Cs0_6 3.971823 1_545
Cs0_5 Cs0_6 3.971823 1_556
Cs0_6 Ir0_1 3.848749 1_554
Cs0_6 Ir1_6 3.848749 1_555
Cs0_6 Ir1_1 3.848749 1_554
Cs0_6 Ir0_6 3.848749 1_555
Cs0_6 Ir0_4 3.848750 1_555
Cs0_6 Ir1_3 3.848750 1_554
Cs0_6 Ir1_2 3.848750 1_555
Cs0_6 Ir0_5 3.848750 1_554
Cs0_7 Ir0_0 3.848749 1_555
Cs0_7 Ir1_7 3.848749 1_555
Cs0_7 Ir1_0 3.848749 1_555
Cs0_7 Ir0_7 3.848749 1_555
Cs0_7 Ir0_5 3.848750 1_555
Cs0_7 Ir1_2 3.848750 1_555
Cs0_7 Ir1_3 3.848750 1_555
Cs0_7 Ir0_4 3.848750 1_555
B0_0 Ir0_4 2.089888 1_555
B0_0 Ir0_1 2.089889 1_554
B0_0 Ir1_2 2.089889 1_555
B0_0 Ir1_1 2.089889 1_554
B0_0 Cs0_1 3.858509 1_554
B0_0 Cs0_2 3.858510 1_555
B0_0 Cs0_4 3.858510 1_555
B0_0 Cs0_7 3.858510 1_555
B0_0 Cs0_6 3.947813 1_555
B0_1 Ir0_5 2.089888 1_555
B0_1 Ir0_0 2.089889 1_555
B0_1 Ir1_3 2.089889 1_555
B0_1 Ir1_0 2.089889 1_555
B0_1 Cs0_0 3.858509 1_555
B0_1 Cs0_3 3.858510 1_555
B0_1 Cs0_5 3.858510 1_555
B0_1 Cs0_6 3.858510 1_556
B0_1 Cs0_7 3.947813 1_555
B0_2 Ir0_6 2.089888 1_555
B0_2 Ir0_3 2.089889 1_554
B0_2 Ir1_0 2.089889 1_565
B0_2 Ir1_3 2.089889 1_554
B0_2 Cs0_3 3.858509 1_554
B0_2 Cs0_0 3.858510 1_565
B0_2 Cs0_6 3.858510 1_555
B0_2 Cs0_5 3.858510 1_565
B0_2 Cs0_4 3.947813 1_565
B0_3 Ir0_7 2.089888 1_555
B0_3 Ir0_2 2.089889 1_555
B0_3 Ir1_1 2.089889 1_565
B0_3 Ir1_2 2.089889 1_555
B0_3 Cs0_2 3.858509 1_555
B0_3 Cs0_1 3.858510 1_565
B0_3 Cs0_7 3.858510 1_555
B0_3 Cs0_4 3.858510 1_566
B0_3 Cs0_5 3.947813 1_565
B0_4 Ir0_0 2.089888 1_655
B0_4 Ir0_5 2.089889 1_554
B0_4 Ir1_6 2.089889 1_555
B0_4 Ir1_5 2.089889 1_554
B0_4 Cs0_5 3.858509 1_554
B0_4 Cs0_6 3.858510 1_555
B0_4 Cs0_0 3.858510 1_655
B0_4 Cs0_3 3.858510 1_655
B0_4 Cs0_2 3.947813 1_655
B0_5 Ir0_1 2.089888 1_655
B0_5 Ir0_4 2.089889 1_555
B0_5 Ir1_7 2.089889 1_555
B0_5 Ir1_4 2.089889 1_555
B0_5 Cs0_4 3.858509 1_555
B0_5 Cs0_7 3.858510 1_555
B0_5 Cs0_1 3.858510 1_655
B0_5 Cs0_2 3.858510 1_656
B0_5 Cs0_3 3.947813 1_655
B0_6 Ir0_2 2.089888 1_655
B0_6 Ir0_7 2.089889 1_554
B0_6 Ir1_4 2.089889 1_565
B0_6 Ir1_7 2.089889 1_554
B0_6 Cs0_7 3.858509 1_554
B0_6 Cs0_4 3.858510 1_565
B0_6 Cs0_2 3.858510 1_655
B0_6 Cs0_1 3.858510 1_665
B0_6 Cs0_0 3.947813 1_665
B0_7 Ir0_3 2.089888 1_655
B0_7 Ir0_6 2.089889 1_555
B0_7 Ir1_5 2.089889 1_565
B0_7 Ir1_6 2.089889 1_555
B0_7 Cs0_6 3.858509 1_555
B0_7 Cs0_5 3.858510 1_565
B0_7 Cs0_3 3.858510 1_655
B0_7 Cs0_0 3.858510 1_666
B0_7 Cs0_1 3.947813 1_665
B1_0 Ir1_4 2.089888 1_455
B1_0 Ir1_1 2.089889 1_555
B1_0 Ir0_2 2.089889 1_545
B1_0 Ir0_1 2.089889 1_555
B1_0 Cs0_6 3.858509 1_556
B1_0 Cs0_5 3.858510 1_555
B1_0 Cs0_3 3.858510 1_555
B1_0 Cs0_0 3.858510 1_555
B1_0 Cs0_1 3.947813 1_555
B1_1 Ir1_5 2.089888 1_455
B1_1 Ir1_0 2.089889 1_556
B1_1 Ir0_3 2.089889 1_545
B1_1 Ir0_0 2.089889 1_556
B1_1 Cs0_7 3.858509 1_556
B1_1 Cs0_4 3.858510 1_556
B1_1 Cs0_2 3.858510 1_556
B1_1 Cs0_1 3.858510 1_555
B1_1 Cs0_0 3.947813 1_556
B1_2 Ir1_6 2.089888 1_455
B1_2 Ir1_3 2.089889 1_555
B1_2 Ir0_0 2.089889 1_555
B1_2 Ir0_3 2.089889 1_555
B1_2 Cs0_4 3.858509 1_566
B1_2 Cs0_7 3.858510 1_555
B1_2 Cs0_1 3.858510 1_565
B1_2 Cs0_2 3.858510 1_555
B1_2 Cs0_3 3.947813 1_555
B1_3 Ir1_7 2.089888 1_455
B1_3 Ir1_2 2.089889 1_556
B1_3 Ir0_1 2.089889 1_555
B1_3 Ir0_2 2.089889 1_556
B1_3 Cs0_5 3.858509 1_566
B1_3 Cs0_6 3.858510 1_556
B1_3 Cs0_0 3.858510 1_566
B1_3 Cs0_3 3.858510 1_555
B1_3 Cs0_2 3.947813 1_556
B1_4 Ir1_0 2.089888 1_555
B1_4 Ir1_5 2.089889 1_555
B1_4 Ir0_6 2.089889 1_545
B1_4 Ir0_5 2.089889 1_555
B1_4 Cs0_2 3.858509 1_656
B1_4 Cs0_1 3.858510 1_655
B1_4 Cs0_7 3.858510 1_555
B1_4 Cs0_4 3.858510 1_555
B1_4 Cs0_5 3.947813 1_555
B1_5 Ir1_1 2.089888 1_555
B1_5 Ir1_4 2.089889 1_556
B1_5 Ir0_7 2.089889 1_545
B1_5 Ir0_4 2.089889 1_556
B1_5 Cs0_3 3.858509 1_656
B1_5 Cs0_0 3.858510 1_656
B1_5 Cs0_6 3.858510 1_556
B1_5 Cs0_5 3.858510 1_555
B1_5 Cs0_4 3.947813 1_556
B1_6 Ir1_2 2.089888 1_555
B1_6 Ir1_7 2.089889 1_555
B1_6 Ir0_4 2.089889 1_555
B1_6 Ir0_7 2.089889 1_555
B1_6 Cs0_0 3.858509 1_666
B1_6 Cs0_3 3.858510 1_655
B1_6 Cs0_5 3.858510 1_565
B1_6 Cs0_6 3.858510 1_555
B1_6 Cs0_7 3.947813 1_555
B1_7 Ir1_3 2.089888 1_555
B1_7 Ir1_6 2.089889 1_556
B1_7 Ir0_5 2.089889 1_555
B1_7 Ir0_6 2.089889 1_556
B1_7 Cs0_1 3.858509 1_666
B1_7 Cs0_2 3.858510 1_656
B1_7 Cs0_4 3.858510 1_566
B1_7 Cs0_7 3.858510 1_555
B1_7 Cs0_6 3.947813 1_556
