# generated using pymatgen
data_Hf12Cu5Ir7N4
_symmetry_space_group_name_H-M   'P 1'
_cell_length_a   8.37572246
_cell_length_b   8.35731544
_cell_length_c   8.37572125
_cell_angle_alpha   59.92711199
_cell_angle_beta   59.99999704
_cell_angle_gamma   59.92711074
_symmetry_Int_Tables_number   1
_chemical_formula_structural   Hf12Cu5Ir7N4
_chemical_formula_sum   'Hf12 Cu5 Ir7 N4'
_cell_volume   414.11115866
_cell_formula_units_Z   1
loop_
 _symmetry_equiv_pos_site_id
 _symmetry_equiv_pos_as_xyz
  1  'x, y, z'
loop_
 _atom_site_type_symbol
 _atom_site_label
 _atom_site_symmetry_multiplicity
 _atom_site_fract_x
 _atom_site_fract_y
 _atom_site_fract_z
 _atom_site_occupancy
  Hf  Hf0  1  0.80609414  0.18906632  0.19874440  1
  Hf  Hf1  1  0.19393088  0.80664353  0.19393088  1
  Hf  Hf2  1  0.80549470  0.80664353  0.19393088  1
  Hf  Hf3  1  0.19393088  0.80664353  0.80549470  1
  Hf  Hf4  1  0.80609414  0.18906632  0.80609414  1
  Hf  Hf5  1  0.19874440  0.18906632  0.80609414  1
  Hf  Hf6  1  0.44264058  0.05760687  0.05711197  1
  Hf  Hf7  1  0.05794546  0.44429481  0.05794546  1
  Hf  Hf8  1  0.43981526  0.44429481  0.05794546  1
  Hf  Hf9  1  0.05794546  0.44429481  0.43981526  1
  Hf  Hf10  1  0.44264058  0.05760687  0.44264058  1
  Hf  Hf11  1  0.05711197  0.05760687  0.44264058  1
  Cu  Cu0  1  0.83222465  0.50332705  0.83222465  1
  Cu  Cu1  1  0.63150679  0.61682639  0.12016004  1
  Cu  Cu2  1  0.63150679  0.61682639  0.63150679  1
  Cu  Cu3  1  0.12016004  0.61682639  0.63150679  1
  Cu  Cu4  1  0.62436896  0.12689312  0.62436896  1
  Ir  Ir0  1  0.41404220  0.41631133  0.75560326  1
  Ir  Ir1  1  0.41404220  0.41631133  0.41404220  1
  Ir  Ir2  1  0.75560326  0.41631133  0.41404220  1
  Ir  Ir3  1  0.41486419  0.75540544  0.41486419  1
  Ir  Ir4  1  0.83611311  0.83626522  0.49150956  1
  Ir  Ir5  1  0.83611311  0.83626522  0.83611311  1
  Ir  Ir6  1  0.49150956  0.83626522  0.83611311  1
  N  N0  1  0.12319779  0.12902605  0.62457837  1
  N  N1  1  0.12319779  0.12902605  0.12319779  1
  N  N2  1  0.62457837  0.12902605  0.12319779  1
  N  N3  1  0.12458173  0.62625480  0.12458173  1
loop_
_geom_bond_atom_site_label_1
_geom_bond_atom_site_label_2
_geom_bond_distance
_geom_bond_site_symmetry_2
Hf0 N2 2.237921 1_555
Hf0 N1 2.237929 1_655
Hf0 Ir4 2.719784 1_545
Hf0 Ir1 2.983650 1_555
Hf0 Ir2 2.983651 1_555
Hf1 N3 2.245018 1_555
Hf1 N1 2.261095 1_565
Hf1 Ir6 2.767753 1_554
Hf1 Ir4 2.767753 1_455
Hf1 Ir1 2.963683 1_555
Hf1 Ir3 2.977896 1_555
Hf2 N3 2.245018 1_655
Hf2 N2 2.261095 1_565
Hf2 Ir5 2.767750 1_554
Hf2 Ir4 2.767758 1_555
Hf2 Ir2 2.963686 1_555
Hf2 Ir3 2.977910 1_555
Hf3 N3 2.245018 1_556
Hf3 N0 2.261095 1_565
Hf3 Ir5 2.767750 1_455
Hf3 Ir6 2.767759 1_555
Hf3 Ir0 2.963686 1_555
Hf3 Ir3 2.977910 1_555
Hf4 N2 2.237927 1_556
Hf4 N0 2.237927 1_655
Hf4 Ir5 2.719778 1_545
Hf4 Ir2 2.983650 1_555
Hf4 Ir0 2.983651 1_555
Hf5 N0 2.237921 1_555
Hf5 N1 2.237929 1_556
Hf5 Ir6 2.719784 1_545
Hf5 Ir1 2.983650 1_555
Hf5 Ir0 2.983651 1_555
Hf6 N1 2.251873 1_555
Hf6 N2 2.251873 1_555
Hf6 Ir3 2.778249 1_545
Hf6 Ir0 2.778432 1_554
Hf6 Ir6 2.988446 1_544
Hf6 Ir5 2.988450 1_544
Hf7 N3 2.224468 1_555
Hf7 N1 2.225289 1_555
Hf7 Ir2 2.775740 1_455
Hf7 Ir0 2.775740 1_554
Hf7 Ir5 2.981234 1_454
Hf8 N3 2.224474 1_555
Hf8 N2 2.225287 1_555
Hf8 Ir1 2.775733 1_555
Hf8 Ir0 2.775750 1_554
Hf8 Ir6 2.981235 1_554
Hf9 N3 2.224474 1_555
Hf9 N0 2.225287 1_555
Hf9 Ir1 2.775733 1_555
Hf9 Ir2 2.775750 1_455
Hf9 Ir4 2.981235 1_455
Hf10 N2 2.251872 1_555
Hf10 N0 2.251872 1_555
Hf10 Ir3 2.778260 1_545
Hf10 Ir1 2.778429 1_555
Hf10 Ir6 2.988453 1_545
Hf10 Ir4 2.988453 1_545
Hf11 N1 2.251872 1_555
Hf11 N0 2.251872 1_555
Hf11 Ir3 2.778250 1_545
Hf11 Ir2 2.778432 1_455
Hf11 Ir4 2.988446 1_445
Hf11 Ir5 2.988450 1_445
Cu0 Cu1 2.486409 1_556
Cu0 Cu3 2.486410 1_655
Cu0 Cu2 2.486416 1_555
Cu0 Ir4 2.815485 1_555
Cu0 Ir6 2.815485 1_555
Cu0 Ir5 2.815486 1_555
Cu0 Hf0 2.862456 1_556
Cu0 Hf5 2.862456 1_655
Cu0 Hf4 2.862466 1_555
Cu0 Hf9 3.016069 1_655
Cu0 Hf7 3.016069 1_656
Cu0 Hf8 3.016069 1_556
Cu1 Ir2 2.574157 1_555
Cu1 Ir1 2.574162 1_555
Cu1 Ir6 2.580727 1_554
Cu1 Ir5 2.580732 1_554
Cu1 Ir3 2.647001 1_555
Cu1 Hf0 2.952423 1_555
Cu1 Hf8 2.972916 1_555
Cu1 Hf7 2.972924 1_655
Cu1 Hf1 3.036709 1_555
Cu1 Hf2 3.036709 1_555
Cu1 Hf6 3.065430 1_565
Cu2 Ir2 2.574164 1_555
Cu2 Ir0 2.574164 1_555
Cu2 Ir6 2.580733 1_555
Cu2 Ir4 2.580734 1_555
Cu2 Ir3 2.647015 1_555
Cu2 Hf4 2.952422 1_555
Cu2 Hf8 2.972922 1_556
Cu2 Hf9 2.972922 1_655
Cu2 Hf2 3.036709 1_555
Cu2 Hf3 3.036709 1_555
Cu2 Hf10 3.065430 1_565
Cu3 Ir0 2.574157 1_555
Cu3 Ir1 2.574162 1_555
Cu3 Ir4 2.580727 1_455
Cu3 Ir5 2.580731 1_455
Cu3 Ir3 2.647001 1_555
Cu3 Hf5 2.952423 1_555
Cu3 Hf9 2.972916 1_555
Cu3 Hf7 2.972923 1_556
Cu3 Hf1 3.036709 1_555
Cu3 Hf3 3.036709 1_555
Cu3 Hf11 3.065430 1_565
Cu4 Ir0 2.572888 1_555
Cu4 Ir2 2.572888 1_555
Cu4 Ir1 2.572893 1_555
Cu4 Ir4 2.588662 1_545
Cu4 Ir6 2.588662 1_545
Cu4 Ir5 2.588667 1_545
Cu4 Hf4 2.967389 1_555
Cu4 Hf0 2.967396 1_555
Cu4 Hf5 2.967396 1_555
Cu4 Hf6 3.008711 1_556
Cu4 Hf10 3.008711 1_555
Cu4 Hf11 3.008711 1_655
