# generated using pymatgen
data_Rb4VReBr12
_symmetry_space_group_name_H-M   'P 1'
_cell_length_a   7.51448594
_cell_length_b   7.51448594
_cell_length_c   10.36938739
_cell_angle_alpha   90.00000000
_cell_angle_beta   90.00000000
_cell_angle_gamma   90.00000000
_symmetry_Int_Tables_number   1
_chemical_formula_structural   Rb4VReBr12
_chemical_formula_sum   'Rb4 V1 Re1 Br12'
_cell_volume   585.53337165
_cell_formula_units_Z   1
loop_
 _symmetry_equiv_pos_site_id
 _symmetry_equiv_pos_as_xyz
  1  'x, y, z'
loop_
 _atom_site_type_symbol
 _atom_site_label
 _atom_site_symmetry_multiplicity
 _atom_site_fract_x
 _atom_site_fract_y
 _atom_site_fract_z
 _atom_site_occupancy
  Rb  Rb0  1  0.50000000  0.00000000  0.75706536  1
  Rb  Rb1  1  0.00000000  0.50000000  0.24293464  1
  Rb  Rb2  1  0.50000000  0.00000000  0.24293464  1
  Rb  Rb3  1  0.00000000  0.50000000  0.75706536  1
  V  V0  1  0.00000000  0.00000000  0.00000000  1
  Re  Re0  1  0.50000000  0.50000000  0.50000000  1
  Br  Br0  1  0.00000000  0.00000000  0.76271912  1
  Br  Br1  1  0.50000000  0.50000000  0.25718141  1
  Br  Br2  1  0.73786450  0.73786450  0.50000000  1
  Br  Br3  1  0.23585173  0.23585173  0.00000000  1
  Br  Br4  1  0.73786450  0.26213550  0.50000000  1
  Br  Br5  1  0.23585173  0.76414827  0.00000000  1
  Br  Br6  1  0.00000000  0.00000000  0.23728088  1
  Br  Br7  1  0.50000000  0.50000000  0.74281859  1
  Br  Br8  1  0.26213550  0.26213550  0.50000000  1
  Br  Br9  1  0.76414827  0.76414827  0.00000000  1
  Br  Br10  1  0.26213550  0.73786450  0.50000000  1
  Br  Br11  1  0.76414827  0.23585173  0.00000000  1
loop_
_geom_bond_atom_site_label_1
_geom_bond_atom_site_label_2
_geom_bond_distance
_geom_bond_site_symmetry_2
Br0 V0 2.460457 1_556
Br0 Rb3 3.757700 1_555
Br0 Rb3 3.757700 1_545
Br0 Rb0 3.757700 1_455
Br0 Rb0 3.757700 1_555
Br1 Re0 2.517880 1_555
Br1 Rb2 3.760146 1_565
Br1 Rb1 3.760146 1_555
Br1 Rb2 3.760146 1_555
Br1 Rb1 3.760146 1_655
Br2 Re0 2.527807 1_555
Br2 Rb3 3.765707 1_655
Br2 Rb0 3.765707 1_565
Br2 Rb2 3.765707 1_565
Br2 Rb1 3.765707 1_655
Br3 V0 2.506417 1_555
Br3 Rb1 3.664263 1_555
Br3 Rb2 3.664263 1_555
Br3 Rb0 3.664263 1_554
Br3 Rb3 3.664263 1_554
Br4 Re0 2.527807 1_555
Br4 Rb3 3.765707 1_655
Br4 Rb0 3.765707 1_555
Br4 Rb2 3.765707 1_555
Br4 Rb1 3.765707 1_655
Br5 V0 2.506417 1_565
Br5 Rb1 3.664263 1_555
Br5 Rb3 3.664263 1_554
Br5 Rb2 3.664263 1_565
Br5 Rb0 3.664263 1_564
Br6 V0 2.460457 1_555
Br6 Rb2 3.757700 1_455
Br6 Rb1 3.757700 1_545
Br6 Rb1 3.757700 1_555
Br6 Rb2 3.757700 1_555
Br7 Re0 2.517880 1_555
Br7 Rb0 3.760146 1_565
Br7 Rb3 3.760146 1_555
Br7 Rb3 3.760146 1_655
Br7 Rb0 3.760146 1_555
Br8 Re0 2.527807 1_555
Br8 Rb3 3.765707 1_555
Br8 Rb0 3.765707 1_555
Br8 Rb1 3.765707 1_555
Br8 Rb2 3.765707 1_555
Br9 V0 2.506417 1_665
Br9 Rb1 3.664263 1_655
Br9 Rb2 3.664263 1_565
Br9 Rb3 3.664263 1_654
Br9 Rb0 3.664263 1_564
Br10 Re0 2.527807 1_555
Br10 Rb3 3.765707 1_555
Br10 Rb0 3.765707 1_565
Br10 Rb1 3.765707 1_555
Br10 Rb2 3.765707 1_565
Br11 V0 2.506417 1_655
Br11 Rb2 3.664263 1_555
Br11 Rb0 3.664263 1_554
Br11 Rb1 3.664263 1_655
Br11 Rb3 3.664263 1_654
