# generated using pymatgen
data_K3Rb6AlSb4
_symmetry_space_group_name_H-M   'P 1'
_cell_length_a   10.79916959
_cell_length_b   10.79916920
_cell_length_c   11.27519608
_cell_angle_alpha   90.00000000
_cell_angle_beta   90.00000000
_cell_angle_gamma   119.99999525
_symmetry_Int_Tables_number   1
_chemical_formula_structural   K3Rb6AlSb4
_chemical_formula_sum   'K6 Rb12 Al2 Sb8'
_cell_volume   1138.76854593
_cell_formula_units_Z   2
loop_
 _symmetry_equiv_pos_site_id
 _symmetry_equiv_pos_as_xyz
  1  'x, y, z'
loop_
 _atom_site_type_symbol
 _atom_site_label
 _atom_site_symmetry_multiplicity
 _atom_site_fract_x
 _atom_site_fract_y
 _atom_site_fract_z
 _atom_site_occupancy
  K  K0  1  0.23781526  0.11890763  0.75000000  1
  K  K1  1  0.88109237  0.11890763  0.75000000  1
  K  K2  1  0.76218474  0.88109237  0.25000000  1
  K  K3  1  0.11890763  0.23781526  0.25000000  1
  K  K4  1  0.11890763  0.88109237  0.25000000  1
  K  K5  1  0.88109237  0.76218474  0.75000000  1
  Rb  Rb0  1  0.20837313  0.79162687  0.95711963  1
  Rb  Rb1  1  0.20837313  0.41674526  0.95711963  1
  Rb  Rb2  1  0.58325474  0.79162687  0.95711963  1
  Rb  Rb3  1  0.41674526  0.20837313  0.45711963  1
  Rb  Rb4  1  0.79162687  0.58325474  0.04288037  1
  Rb  Rb5  1  0.79162687  0.20837313  0.45711963  1
  Rb  Rb6  1  0.79162687  0.58325474  0.45711963  1
  Rb  Rb7  1  0.20837313  0.79162687  0.54288037  1
  Rb  Rb8  1  0.58325474  0.79162687  0.54288037  1
  Rb  Rb9  1  0.41674526  0.20837313  0.04288037  1
  Rb  Rb10  1  0.79162687  0.20837313  0.04288037  1
  Rb  Rb11  1  0.20837313  0.41674526  0.54288037  1
  Al  Al0  1  0.33333300  0.66666700  0.25000000  1
  Al  Al1  1  0.66666700  0.33333300  0.75000000  1
  Sb  Sb0  1  0.00000000  0.00000000  0.00000000  1
  Sb  Sb1  1  0.04800934  0.52400517  0.25000000  1
  Sb  Sb2  1  0.47599483  0.95199066  0.25000000  1
  Sb  Sb3  1  0.52400517  0.04800934  0.75000000  1
  Sb  Sb4  1  0.52400517  0.47599483  0.75000000  1
  Sb  Sb5  1  0.00000000  0.00000000  0.50000000  1
  Sb  Sb6  1  0.47599483  0.52400517  0.25000000  1
  Sb  Sb7  1  0.95199066  0.47599483  0.75000000  1
loop_
_geom_bond_atom_site_label_1
_geom_bond_atom_site_label_2
_geom_bond_distance
_geom_bond_site_symmetry_2
K0 Sb4 3.536150 1_555
K0 Sb3 3.536157 1_555
K0 Sb0 3.590598 1_556
K0 Sb5 3.590598 1_555
K1 Sb7 3.536146 1_555
K1 Sb3 3.536146 1_555
K1 Sb0 3.590598 1_656
K1 Sb5 3.590598 1_655
K2 Sb6 3.536150 1_555
K2 Sb2 3.536157 1_555
K2 Sb0 3.590598 1_665
K2 Sb5 3.590598 1_665
K3 Sb6 3.536150 1_555
K3 Sb1 3.536157 1_555
K3 Sb5 3.590598 1_555
K3 Sb0 3.590598 1_555
K4 Sb1 3.536146 1_555
K4 Sb2 3.536146 1_555
K4 Sb5 3.590598 1_565
K4 Sb0 3.590598 1_565
K5 Sb4 3.536150 1_555
K5 Sb7 3.536157 1_555
K5 Sb0 3.590598 1_666
K5 Sb5 3.590598 1_665
Rb0 Sb7 3.911579 1_455
Rb0 Sb3 3.911579 1_565
Rb0 Sb0 3.927432 1_566
Rb0 Sb1 4.153526 1_556
Rb0 Sb2 4.153526 1_556
Rb1 Sb7 3.911579 1_455
Rb1 Sb4 3.911579 1_555
Rb1 Sb0 3.927423 1_556
Rb1 Sb6 4.153524 1_556
Rb1 Sb1 4.153536 1_556
Rb2 Sb3 3.911579 1_565
Rb2 Sb4 3.911579 1_555
Rb2 Sb0 3.927423 1_666
Rb2 Sb6 4.153524 1_556
Rb2 Sb2 4.153536 1_556
Rb3 Sb2 3.911579 1_545
Rb3 Sb6 3.911579 1_555
Rb3 Sb5 3.927423 1_555
Rb3 Sb4 4.153524 1_555
Rb3 Sb3 4.153536 1_555
Rb4 Sb1 3.911579 1_655
Rb4 Sb6 3.911579 1_555
Rb4 Sb0 3.927423 1_665
Rb4 Sb4 4.153524 1_554
Rb4 Sb7 4.153536 1_554
Rb5 Sb1 3.911579 1_655
Rb5 Sb2 3.911579 1_545
Rb5 Sb5 3.927432 1_655
Rb5 Sb7 4.153526 1_555
Rb5 Sb3 4.153526 1_555
Rb6 Sb1 3.911579 1_655
Rb6 Sb6 3.911579 1_555
Rb6 Sb5 3.927423 1_665
Rb6 Sb4 4.153524 1_555
Rb6 Sb7 4.153536 1_555
Rb7 Sb7 3.911579 1_455
Rb7 Sb3 3.911579 1_565
Rb7 Sb5 3.927432 1_565
Rb7 Sb1 4.153526 1_555
Rb7 Sb2 4.153526 1_555
Rb8 Sb3 3.911579 1_565
Rb8 Sb4 3.911579 1_555
Rb8 Sb5 3.927423 1_665
Rb8 Sb6 4.153524 1_555
Rb8 Sb2 4.153536 1_555
Rb9 Sb2 3.911579 1_545
Rb9 Sb6 3.911579 1_555
Rb9 Sb0 3.927423 1_555
Rb9 Sb4 4.153524 1_554
Rb9 Sb3 4.153536 1_554
Rb10 Sb1 3.911579 1_655
Rb10 Sb2 3.911579 1_545
Rb10 Sb0 3.927432 1_655
Rb10 Sb7 4.153526 1_554
Rb10 Sb3 4.153526 1_554
Rb11 Sb7 3.911579 1_455
Rb11 Sb4 3.911579 1_555
Rb11 Sb5 3.927423 1_555
Rb11 Sb6 4.153524 1_555
Rb11 Sb1 4.153536 1_555
Al0 Sb6 2.668448 1_555
Al0 Sb2 2.668448 1_555
Al0 Sb1 2.668448 1_555
Al1 Sb4 2.668448 1_555
Al1 Sb3 2.668448 1_555
Al1 Sb7 2.668448 1_555
