# generated using pymatgen
data_Rb5BaVAs4
_symmetry_space_group_name_H-M   'P 1'
_cell_length_a   10.66292896
_cell_length_b   10.66292992
_cell_length_c   8.25906058
_cell_angle_alpha   88.73668191
_cell_angle_beta   88.73668845
_cell_angle_gamma   120.86584461
_symmetry_Int_Tables_number   1
_chemical_formula_structural   Rb5BaVAs4
_chemical_formula_sum   'Rb10 Ba2 V2 As8'
_cell_volume   805.23893959
_cell_formula_units_Z   2
loop_
 _symmetry_equiv_pos_site_id
 _symmetry_equiv_pos_as_xyz
  1  'x, y, z'
loop_
 _atom_site_type_symbol
 _atom_site_label
 _atom_site_symmetry_multiplicity
 _atom_site_fract_x
 _atom_site_fract_y
 _atom_site_fract_z
 _atom_site_occupancy
  Rb  Rb0  1  0.46792158  0.52490363  0.60646659  1
  Rb  Rb1  1  0.05829755  0.52591350  0.60746956  1
  Rb  Rb2  1  0.52490363  0.46792158  0.10646659  1
  Rb  Rb3  1  0.52591350  0.05829755  0.10746956  1
  Rb  Rb4  1  0.86625963  0.14197530  0.78904877  1
  Rb  Rb5  1  0.29479228  0.15413231  0.82299382  1
  Rb  Rb6  1  0.85488324  0.71496795  0.77046232  1
  Rb  Rb7  1  0.14197530  0.86625963  0.28904877  1
  Rb  Rb8  1  0.71496795  0.85488324  0.27046232  1
  Rb  Rb9  1  0.15413231  0.29479228  0.32299382  1
  Ba  Ba0  1  0.46645943  0.93818332  0.60374442  1
  Ba  Ba1  1  0.93818332  0.46645943  0.10374442  1
  V  V0  1  0.66903763  0.33096725  0.50034749  1
  V  V1  1  0.33096725  0.66903763  0.00034749  1
  As  As0  1  0.67979797  0.33298237  0.78883272  1
  As  As1  1  0.33298237  0.67979797  0.28883272  1
  As  As2  1  0.20440943  0.78804355  0.90166393  1
  As  As3  1  0.57484337  0.79340408  0.88815348  1
  As  As4  1  0.20018587  0.41763873  0.92801690  1
  As  As5  1  0.78804355  0.20440943  0.40166393  1
  As  As6  1  0.41763873  0.20018587  0.42801690  1
  As  As7  1  0.79340408  0.57484337  0.38815348  1
loop_
_geom_bond_atom_site_label_1
_geom_bond_atom_site_label_2
_geom_bond_distance
_geom_bond_site_symmetry_2
As0 V0 2.387943 1_555
As0 Rb4 3.500873 1_555
As0 Rb6 3.500916 1_555
As0 Rb5 3.530159 1_555
As0 Rb3 3.568636 1_556
As0 Ba1 3.582843 1_556
As0 Rb1 3.720599 1_655
As0 Rb2 3.754186 1_556
As1 V1 2.387943 1_555
As1 Rb7 3.500873 1_555
As1 Rb8 3.500916 1_555
As1 Rb9 3.530159 1_555
As1 Rb1 3.568636 1_555
As1 Ba0 3.582843 1_555
As1 Rb3 3.720600 1_565
As1 Rb0 3.754186 1_555
As2 V1 2.419823 1_556
As2 Ba0 3.370178 1_555
As2 Rb7 3.459566 1_556
As2 Rb1 3.484502 1_555
As2 Ba1 3.486144 1_456
As2 Rb5 3.548148 1_565
As2 Rb6 3.592666 1_455
As2 Rb3 3.644486 1_566
As3 V1 2.383419 1_556
As3 Ba0 3.320669 1_555
As3 Rb8 3.453457 1_556
As3 Rb0 3.459849 1_555
As3 Rb4 3.470373 1_565
As3 Rb6 3.609866 1_555
As3 Rb3 3.636922 1_566
As3 Rb2 3.655831 1_556
As4 V1 2.399821 1_556
As4 Ba1 3.395437 1_456
As4 Rb9 3.417524 1_556
As4 Rb4 3.496505 1_455
As4 Rb1 3.530561 1_555
As4 Rb5 3.555542 1_555
As4 Rb0 3.562654 1_555
As4 Rb2 3.578155 1_556
As5 V0 2.419824 1_555
As5 Ba1 3.370178 1_555
As5 Rb4 3.459566 1_555
As5 Rb3 3.484502 1_555
As5 Ba0 3.486144 1_545
As5 Rb9 3.548148 1_655
As5 Rb8 3.592666 1_545
As5 Rb1 3.644486 1_655
As6 V0 2.399821 1_555
As6 Ba0 3.395437 1_545
As6 Rb5 3.417524 1_555
As6 Rb7 3.496505 1_545
As6 Rb3 3.530561 1_555
As6 Rb9 3.555541 1_555
As6 Rb2 3.562654 1_555
As6 Rb0 3.578155 1_555
As7 V0 2.383419 1_555
As7 Ba1 3.320669 1_555
As7 Rb6 3.453457 1_555
As7 Rb2 3.459848 1_555
As7 Rb7 3.470373 1_655
As7 Rb8 3.609866 1_555
As7 Rb1 3.636921 1_655
As7 Rb0 3.655831 1_555
