# generated using pymatgen
data_Zr6Sn6Rh5Au
_symmetry_space_group_name_H-M   'P 1'
_cell_length_a   7.31144415
_cell_length_b   7.31144394
_cell_length_c   7.51095775
_cell_angle_alpha   90.00000000
_cell_angle_beta   90.00000000
_cell_angle_gamma   119.99999658
_symmetry_Int_Tables_number   1
_chemical_formula_structural   Zr6Sn6Rh5Au
_chemical_formula_sum   'Zr6 Sn6 Rh5 Au1'
_cell_volume   347.72209487
_cell_formula_units_Z   1
loop_
 _symmetry_equiv_pos_site_id
 _symmetry_equiv_pos_as_xyz
  1  'x, y, z'
loop_
 _atom_site_type_symbol
 _atom_site_label
 _atom_site_symmetry_multiplicity
 _atom_site_fract_x
 _atom_site_fract_y
 _atom_site_fract_z
 _atom_site_occupancy
  Zr  Zr0  1  0.58542153  0.96679311  0.74435506  1
  Zr  Zr1  1  0.38137058  0.41457847  0.74435506  1
  Zr  Zr2  1  0.03320689  0.61862942  0.74435506  1
  Zr  Zr3  1  0.60941327  0.01289637  0.25708219  1
  Zr  Zr4  1  0.40348311  0.39058673  0.25708219  1
  Zr  Zr5  1  0.98710363  0.59651689  0.25708219  1
  Sn  Sn0  1  0.26235632  0.99546508  0.00453636  1
  Sn  Sn1  1  0.73536334  0.73147649  0.50240807  1
  Sn  Sn2  1  0.99611314  0.26463666  0.50240807  1
  Sn  Sn3  1  0.00453492  0.26689024  0.00453636  1
  Sn  Sn4  1  0.73310976  0.73764368  0.00453636  1
  Sn  Sn5  1  0.26852351  0.00388686  0.50240807  1
  Rh  Rh0  1  0.66666700  0.33333300  0.53235876  1
  Rh  Rh1  1  0.33333300  0.66666700  0.03324823  1
  Rh  Rh2  1  0.33333300  0.66666700  0.45610240  1
  Rh  Rh3  1  0.00000000  0.00000000  0.75334723  1
  Rh  Rh4  1  0.00000000  0.00000000  0.25403473  1
  Au  Au0  1  0.66666700  0.33333300  0.94576260  1
loop_
_geom_bond_atom_site_label_1
_geom_bond_atom_site_label_2
_geom_bond_distance
_geom_bond_site_symmetry_2
Sn0 Zr2 3.098552 1_554
Sn0 Zr3 3.119258 1_565
Sn0 Zr0 3.152371 1_554
Sn0 Zr4 3.166652 1_565
Sn0 Zr5 3.207215 1_455
Sn0 Zr1 3.361509 1_564
Sn1 Zr0 3.057871 1_555
Sn1 Zr1 3.061499 1_555
Sn1 Zr4 3.073677 1_555
Sn1 Zr5 3.094013 1_555
Sn1 Zr3 3.220520 1_565
Sn1 Zr2 3.243783 1_655
Sn2 Zr1 3.057865 1_655
Sn2 Zr2 3.061502 1_655
Sn2 Zr5 3.073677 1_555
Sn2 Zr3 3.094013 1_555
Sn2 Zr4 3.220520 1_655
Sn2 Zr0 3.243788 1_545
Sn3 Zr1 3.098551 1_554
Sn3 Zr5 3.119264 1_455
Sn3 Zr2 3.152383 1_554
Sn3 Zr3 3.166651 1_455
Sn3 Zr4 3.207214 1_555
Sn3 Zr0 3.361506 1_444
Sn4 Zr0 3.098561 1_554
Sn4 Zr4 3.119261 1_555
Sn4 Zr1 3.152378 1_554
Sn4 Zr5 3.166646 1_555
Sn4 Zr3 3.207219 1_565
Sn4 Zr2 3.361497 1_654
Sn5 Zr2 3.057866 1_545
Sn5 Zr0 3.061496 1_545
Sn5 Zr3 3.073677 1_555
Sn5 Zr4 3.094013 1_555
Sn5 Zr5 3.220520 1_445
Sn5 Zr1 3.243789 1_555
Rh0 Sn2 2.704566 1_555
Rh0 Sn5 2.704571 1_555
Rh0 Sn1 2.704573 1_555
Rh0 Zr0 2.911766 1_545
Rh0 Zr2 2.911770 1_655
Rh0 Zr1 2.911778 1_555
Rh0 Zr3 2.993058 1_555
Rh0 Zr5 2.993060 1_555
Rh0 Zr4 2.993063 1_555
Rh1 Sn0 2.709705 1_555
Rh1 Sn3 2.709714 1_555
Rh1 Sn4 2.709719 1_555
Rh1 Zr5 2.863446 1_455
Rh1 Zr3 2.863448 1_565
Rh1 Zr4 2.863452 1_555
Rh1 Zr1 2.979288 1_554
Rh1 Zr2 2.979288 1_554
Rh1 Zr0 2.979288 1_554
Rh2 Sn5 2.755506 1_565
Rh2 Sn2 2.755511 1_455
Rh2 Sn1 2.755514 1_555
Rh2 Zr5 2.758150 1_455
Rh2 Zr3 2.758152 1_565
Rh2 Zr4 2.758156 1_555
Rh2 Zr1 2.975786 1_555
Rh2 Zr2 2.975786 1_555
Rh2 Zr0 2.975786 1_555
Rh3 Sn3 2.702537 1_556
Rh3 Sn4 2.702539 1_446
Rh3 Sn0 2.702542 1_546
Rh3 Sn2 2.711455 1_455
Rh3 Sn5 2.711455 1_555
Rh3 Sn1 2.711455 1_445
Rh3 Zr2 2.918133 1_545
Rh3 Zr1 2.918138 1_555
Rh3 Zr0 2.918141 1_445
Rh4 Sn3 2.693687 1_555
Rh4 Sn4 2.693689 1_445
Rh4 Sn0 2.693692 1_545
Rh4 Sn2 2.698094 1_455
Rh4 Sn5 2.698094 1_555
Rh4 Sn1 2.698094 1_445
Rh4 Zr5 2.904137 1_445
Rh4 Zr3 2.904137 1_455
Rh4 Zr4 2.904137 1_555
Au0 Sn4 2.780884 1_556
Au0 Sn3 2.780884 1_656
Au0 Sn0 2.780885 1_546
Au0 Zr0 2.869047 1_545
Au0 Zr2 2.869051 1_655
Au0 Zr1 2.869059 1_555
Au0 Rh0 3.105059 1_555
Au0 Zr3 3.186087 1_556
Au0 Zr5 3.186089 1_556
Au0 Zr4 3.186092 1_556
