# generated using pymatgen
data_NaCaPd4
_symmetry_space_group_name_H-M   'P 1'
_cell_length_a   5.37070109
_cell_length_b   5.37070036
_cell_length_c   5.37070133
_cell_angle_alpha   59.99999998
_cell_angle_beta   60.00000448
_cell_angle_gamma   59.99999849
_symmetry_Int_Tables_number   1
_chemical_formula_structural   NaCaPd4
_chemical_formula_sum   'Na1 Ca1 Pd4'
_cell_volume   109.54130718
_cell_formula_units_Z   1
loop_
 _symmetry_equiv_pos_site_id
 _symmetry_equiv_pos_as_xyz
  1  'x, y, z'
loop_
 _atom_site_type_symbol
 _atom_site_label
 _atom_site_symmetry_multiplicity
 _atom_site_fract_x
 _atom_site_fract_y
 _atom_site_fract_z
 _atom_site_occupancy
  Na  Na0  1  0.75000000  0.75000000  0.75000000  1
  Ca  Ca0  1  0.50000000  0.50000000  0.50000000  1
  Pd  Pd0  1  0.12491453  0.62525541  0.12491453  1
  Pd  Pd1  1  0.12491453  0.12491453  0.62525541  1
  Pd  Pd2  1  0.62525541  0.12491453  0.12491453  1
  Pd  Pd3  1  0.12491453  0.12491453  0.12491453  1
loop_
_geom_bond_atom_site_label_1
_geom_bond_atom_site_label_2
_geom_bond_distance
_geom_bond_site_symmetry_2
Na0 Pd1 3.148655 1_665
Na0 Pd2 3.148655 1_566
Na0 Pd0 3.148655 1_656
Na0 Pd3 3.148657 1_656
Na0 Pd3 3.148657 1_566
Na0 Pd3 3.148657 1_665
Na0 Pd1 3.148659 1_655
Na0 Pd2 3.148659 1_556
Na0 Pd1 3.148659 1_565
Na0 Pd2 3.148659 1_565
Na0 Pd0 3.148660 1_556
Na0 Pd0 3.148660 1_655
Ca0 Pd1 3.149046 1_565
Ca0 Pd2 3.149046 1_565
Ca0 Pd1 3.149046 1_655
Ca0 Pd2 3.149046 1_556
Ca0 Pd0 3.149046 1_655
Ca0 Pd0 3.149046 1_556
Ca0 Pd3 3.149048 1_565
Ca0 Pd3 3.149049 1_655
Ca0 Pd3 3.149049 1_556
Ca0 Pd1 3.149051 1_555
Ca0 Pd2 3.149051 1_555
Ca0 Pd0 3.149051 1_555
Ca0 Na0 3.288869 1_545
Ca0 Na0 3.288869 1_555
Ca0 Na0 3.288869 1_455
Ca0 Na0 3.288870 1_554
Pd0 Pd3 2.683519 1_565
Pd0 Pd2 2.683520 1_465
Pd0 Pd1 2.683520 1_564
Pd0 Pd3 2.687181 1_555
Pd0 Pd2 2.687181 1_555
Pd0 Pd1 2.687181 1_555
Pd1 Pd3 2.683520 1_556
Pd1 Pd2 2.683520 1_456
Pd1 Pd3 2.687181 1_555
Pd1 Pd2 2.687182 1_555
Pd2 Pd3 2.683520 1_655
Pd2 Pd3 2.687181 1_555
