# generated using pymatgen
data_AlCoTeO6
_symmetry_space_group_name_H-M   'P 1'
_cell_length_a   4.43578332
_cell_length_b   4.43578332
_cell_length_c   8.75480448
_cell_angle_alpha   90.00000000
_cell_angle_beta   90.00000000
_cell_angle_gamma   90.00000000
_symmetry_Int_Tables_number   1
_chemical_formula_structural   AlCoTeO6
_chemical_formula_sum   'Al2 Co2 Te2 O12'
_cell_volume   172.26105312
_cell_formula_units_Z   2
loop_
 _symmetry_equiv_pos_site_id
 _symmetry_equiv_pos_as_xyz
  1  'x, y, z'
loop_
 _atom_site_type_symbol
 _atom_site_label
 _atom_site_symmetry_multiplicity
 _atom_site_fract_x
 _atom_site_fract_y
 _atom_site_fract_z
 _atom_site_occupancy
  Al  Al0  1  0.50000000  0.50000000  0.16467146  1
  Al  Al1  1  0.00000000  0.00000000  0.66467146  1
  Co  Co0  1  0.50000000  0.50000000  0.83398839  1
  Co  Co1  1  0.00000000  0.00000000  0.33398839  1
  Te  Te0  1  0.50000000  0.50000000  0.49966149  1
  Te  Te1  1  0.00000000  0.00000000  0.99966149  1
  O  O0  1  0.19213340  0.80786660  0.50212298  1
  O  O1  1  0.80786660  0.19213340  0.50212298  1
  O  O2  1  0.30786660  0.30786660  0.00212298  1
  O  O3  1  0.69213340  0.69213340  0.00212298  1
  O  O4  1  0.19627083  0.80372917  0.16789364  1
  O  O5  1  0.80372917  0.19627083  0.16789364  1
  O  O6  1  0.30372917  0.30372917  0.66789364  1
  O  O7  1  0.69627083  0.69627083  0.66789364  1
  O  O8  1  0.80481661  0.19518339  0.83082272  1
  O  O9  1  0.19518339  0.80481661  0.83082272  1
  O  O10  1  0.69518339  0.69518339  0.33082272  1
  O  O11  1  0.30481761  0.30481761  0.33082272  1
loop_
_geom_bond_atom_site_label_1
_geom_bond_atom_site_label_2
_geom_bond_distance
_geom_bond_site_symmetry_2
Al0 O3 1.864902 1_555
Al0 O2 1.864902 1_555
Al0 O11 1.901341 1_555
Al0 O10 1.901345 1_555
Al0 O4 1.905546 1_555
Al0 O5 1.905546 1_555
Al1 O1 1.864902 1_455
Al1 O0 1.864902 1_545
Al1 O9 1.901345 1_545
Al1 O8 1.901345 1_455
Al1 O6 1.905546 1_555
Al1 O7 1.905546 1_445
Co0 O3 1.902483 1_556
Co0 O2 1.902483 1_556
Co0 O7 1.905368 1_555
Co0 O6 1.905368 1_555
Co0 O8 1.912360 1_555
Co0 O9 1.912360 1_555
Co1 O1 1.902483 1_455
Co1 O0 1.902483 1_545
Co1 O4 1.905368 1_545
Co1 O5 1.905368 1_455
Co1 O10 1.912360 1_445
Co1 O11 1.912366 1_555
O0 Te0 1.931412 1_555
O1 Te0 1.931412 1_555
O2 Te1 1.931412 1_554
O3 Te1 1.931412 1_664
O4 Te1 1.919687 1_564
O5 Te1 1.919687 1_654
O6 Te0 1.919687 1_555
O7 Te0 1.919687 1_555
O8 Te1 1.919406 1_655
O9 Te1 1.919406 1_565
O10 Te0 1.919406 1_555
O11 Te0 1.919402 1_555
