# generated using pymatgen
data_Nb6Zn2Cu4N
_symmetry_space_group_name_H-M   'P 1'
_cell_length_a   8.04953944
_cell_length_b   8.04954092
_cell_length_c   8.04953975
_cell_angle_alpha   60.00000079
_cell_angle_beta   59.99999473
_cell_angle_gamma   60.00000255
_symmetry_Int_Tables_number   1
_chemical_formula_structural   Nb6Zn2Cu4N
_chemical_formula_sum   'Nb12 Zn4 Cu8 N2'
_cell_volume   368.80618041
_cell_formula_units_Z   2
loop_
 _symmetry_equiv_pos_site_id
 _symmetry_equiv_pos_as_xyz
  1  'x, y, z'
loop_
 _atom_site_type_symbol
 _atom_site_label
 _atom_site_symmetry_multiplicity
 _atom_site_fract_x
 _atom_site_fract_y
 _atom_site_fract_z
 _atom_site_occupancy
  Nb  Nb0  1  0.19209896  0.80790104  0.19209896  1
  Nb  Nb1  1  0.44209896  0.05790104  0.44209896  1
  Nb  Nb2  1  0.44209896  0.05790104  0.05790104  1
  Nb  Nb3  1  0.44209896  0.44209896  0.05790104  1
  Nb  Nb4  1  0.19209896  0.80790104  0.80790104  1
  Nb  Nb5  1  0.05790104  0.44209896  0.05790104  1
  Nb  Nb6  1  0.80790104  0.80790104  0.19209896  1
  Nb  Nb7  1  0.05790104  0.44209896  0.44209896  1
  Nb  Nb8  1  0.19209896  0.19209896  0.80790104  1
  Nb  Nb9  1  0.80790104  0.19209896  0.19209896  1
  Nb  Nb10  1  0.80790104  0.19209896  0.80790104  1
  Nb  Nb11  1  0.05790104  0.05790104  0.44209896  1
  Zn  Zn0  1  0.62500000  0.12500000  0.62500000  1
  Zn  Zn1  1  0.62500000  0.62500000  0.12500000  1
  Zn  Zn2  1  0.12500000  0.62500000  0.62500000  1
  Zn  Zn3  1  0.62500000  0.62500000  0.62500000  1
  Cu  Cu0  1  0.83110882  0.50667355  0.83110882  1
  Cu  Cu1  1  0.41889118  0.41889118  0.74332645  1
  Cu  Cu2  1  0.74332645  0.41889118  0.41889118  1
  Cu  Cu3  1  0.41889118  0.41889118  0.41889118  1
  Cu  Cu4  1  0.83110882  0.83110882  0.50667355  1
  Cu  Cu5  1  0.41889118  0.74332645  0.41889118  1
  Cu  Cu6  1  0.83110882  0.83110882  0.83110882  1
  Cu  Cu7  1  0.50667355  0.83110882  0.83110882  1
  N  N0  1  0.00000000  0.00000000  0.00000000  1
  N  N1  1  0.25000000  0.25000000  0.25000000  1
loop_
_geom_bond_atom_site_label_1
_geom_bond_atom_site_label_2
_geom_bond_distance
_geom_bond_site_symmetry_2
Cu0 Zn2 2.450386 1_655
Cu0 Zn1 2.450387 1_556
Cu0 Zn3 2.450387 1_555
Cu0 Cu4 2.611555 1_555
Cu0 Cu7 2.611555 1_555
Cu0 Cu6 2.611555 1_555
Cu0 Nb9 2.731798 1_556
Cu0 Nb8 2.731798 1_655
Cu0 Nb10 2.731798 1_555
Cu0 Nb3 2.893179 1_556
Cu0 Nb7 2.893179 1_655
Cu0 Nb5 2.893180 1_656
Cu1 Zn3 2.450387 1_555
Cu1 Zn2 2.450387 1_555
Cu1 Zn0 2.450387 1_555
Cu1 Cu2 2.611554 1_555
Cu1 Cu3 2.611555 1_555
Cu1 Cu5 2.611555 1_555
Cu1 Nb5 2.731797 1_556
Cu1 Nb3 2.731798 1_556
Cu1 Nb2 2.731798 1_556
Cu1 Nb10 2.893180 1_555
Cu1 Nb8 2.893180 1_555
Cu1 Nb4 2.893180 1_555
Cu2 Zn1 2.450387 1_555
Cu2 Zn3 2.450387 1_555
Cu2 Zn0 2.450387 1_555
Cu2 Cu3 2.611555 1_555
Cu2 Cu5 2.611555 1_555
Cu2 Nb5 2.731797 1_655
Cu2 Nb7 2.731797 1_655
Cu2 Nb11 2.731798 1_655
Cu2 Nb10 2.893180 1_555
Cu2 Nb9 2.893180 1_555
Cu2 Nb6 2.893180 1_555
Cu3 Zn1 2.450387 1_555
Cu3 Zn2 2.450387 1_555
Cu3 Zn0 2.450387 1_555
Cu3 Cu5 2.611555 1_555
Cu3 Nb7 2.731797 1_555
Cu3 Nb3 2.731798 1_555
Cu3 Nb1 2.731798 1_555
Cu3 Nb8 2.893179 1_555
Cu3 Nb9 2.893180 1_555
Cu3 Nb0 2.893180 1_555
Cu4 Zn3 2.450387 1_555
Cu4 Zn2 2.450387 1_655
Cu4 Zn0 2.450387 1_565
Cu4 Cu7 2.611554 1_555
Cu4 Cu6 2.611555 1_555
Cu4 Nb0 2.731797 1_655
Cu4 Nb6 2.731798 1_555
Cu4 Nb9 2.731798 1_565
Cu4 Nb1 2.893180 1_565
Cu4 Nb11 2.893180 1_665
Cu4 Nb7 2.893180 1_655
Cu5 Zn2 2.450386 1_555
Cu5 Zn1 2.450387 1_555
Cu5 Zn3 2.450387 1_555
Cu5 Nb2 2.731798 1_565
Cu5 Nb11 2.731798 1_565
Cu5 Nb1 2.731798 1_565
Cu5 Nb6 2.893179 1_555
Cu5 Nb4 2.893179 1_555
Cu5 Nb0 2.893180 1_555
Cu6 Zn1 2.450387 1_556
Cu6 Zn2 2.450387 1_655
Cu6 Zn0 2.450387 1_565
Cu6 Cu7 2.611555 1_555
Cu6 Nb4 2.731797 1_655
Cu6 Nb6 2.731798 1_556
Cu6 Nb10 2.731798 1_565
Cu6 Nb11 2.893179 1_665
Cu6 Nb2 2.893180 1_566
Cu6 Nb5 2.893180 1_656
Cu7 Zn1 2.450387 1_556
Cu7 Zn3 2.450387 1_555
Cu7 Zn0 2.450387 1_565
Cu7 Nb0 2.731797 1_556
Cu7 Nb4 2.731797 1_555
Cu7 Nb8 2.731798 1_565
Cu7 Nb1 2.893180 1_565
Cu7 Nb2 2.893180 1_566
Cu7 Nb3 2.893180 1_556
N0 Nb8 2.186810 1_554
N0 Nb6 2.186810 1_445
N0 Nb0 2.186810 1_545
N0 Nb10 2.186810 1_454
N0 Nb9 2.186810 1_455
N0 Nb4 2.186810 1_544
N1 Nb3 2.186810 1_555
N1 Nb11 2.186810 1_555
N1 Nb1 2.186810 1_555
N1 Nb5 2.186810 1_555
N1 Nb7 2.186810 1_555
N1 Nb2 2.186810 1_555
