# generated using pymatgen
data_K7Ta(SeO4)6
_symmetry_space_group_name_H-M   'P 1'
_cell_length_a   9.57773781
_cell_length_b   9.57773758
_cell_length_c   9.57773809
_cell_angle_alpha   109.38743744
_cell_angle_beta   109.38745011
_cell_angle_gamma   109.38744775
_symmetry_Int_Tables_number   1
_chemical_formula_structural   K7Ta(SeO4)6
_chemical_formula_sum   'K7 Ta1 Se6 O24'
_cell_volume   678.43262217
_cell_formula_units_Z   1
loop_
 _symmetry_equiv_pos_site_id
 _symmetry_equiv_pos_as_xyz
  1  'x, y, z'
loop_
 _atom_site_type_symbol
 _atom_site_label
 _atom_site_symmetry_multiplicity
 _atom_site_fract_x
 _atom_site_fract_y
 _atom_site_fract_z
 _atom_site_occupancy
  K  K0  1  0.32379853  0.66222879  0.16523961  1
  K  K1  1  0.66222979  0.16523961  0.32379853  1
  K  K2  1  0.83475939  0.67620147  0.33777121  1
  K  K3  1  0.50000000  0.50000000  0.50000000  1
  K  K4  1  0.16524061  0.32379853  0.66222879  1
  K  K5  1  0.33777021  0.83476039  0.67620147  1
  K  K6  1  0.67620147  0.33777121  0.83475939  1
  Ta  Ta0  1  0.00000000  0.00000000  0.00000000  1
  Se  Se0  1  0.38497696  0.25594790  0.03071157  1
  Se  Se1  1  0.03071257  0.38497696  0.25594890  1
  Se  Se2  1  0.25594890  0.03071257  0.38497696  1
  Se  Se3  1  0.74405110  0.96928743  0.61502304  1
  Se  Se4  1  0.96928743  0.61502304  0.74405110  1
  Se  Se5  1  0.61502304  0.74405210  0.96928843  1
  O  O0  1  0.69696946  0.63336023  0.02347753  1
  O  O1  1  0.23000190  0.09434159  0.02596725  1
  O  O2  1  0.56395580  0.84046470  0.10242230  1
  O  O3  1  0.02596825  0.23000190  0.09434059  1
  O  O4  1  0.89757770  0.43604420  0.15953530  1
  O  O5  1  0.54053137  0.36556228  0.22901745  1
  O  O6  1  0.09434159  0.02596825  0.23000090  1
  O  O7  1  0.36663977  0.97652247  0.30303054  1
  O  O8  1  0.97652247  0.30302954  0.36663977  1
  O  O9  1  0.22901745  0.54053037  0.36556228  1
  O  O10  1  0.15953530  0.89757770  0.43604420  1
  O  O11  1  0.63443772  0.77098255  0.45946863  1
  O  O12  1  0.36556228  0.22901745  0.54053137  1
  O  O13  1  0.84046470  0.10242230  0.56395580  1
  O  O14  1  0.77098255  0.45946963  0.63443772  1
  O  O15  1  0.02347753  0.69697046  0.63336023  1
  O  O16  1  0.63336123  0.02347753  0.69696946  1
  O  O17  1  0.90565841  0.97403175  0.76999910  1
  O  O18  1  0.45946963  0.63443772  0.77098255  1
  O  O19  1  0.10242230  0.56395580  0.84046470  1
  O  O20  1  0.97403175  0.76999810  0.90565941  1
  O  O21  1  0.43604520  0.15953530  0.89757770  1
  O  O22  1  0.76999810  0.90565841  0.97403275  1
  O  O23  1  0.30303054  0.36663977  0.97652247  1
loop_
_geom_bond_atom_site_label_1
_geom_bond_atom_site_label_2
_geom_bond_distance
_geom_bond_site_symmetry_2
K0 O7 2.674779 1_555
K0 O23 2.704012 1_554
K0 O19 2.722120 1_554
K0 O2 2.749666 1_555
K0 O9 2.793287 1_555
K0 O11 2.881946 1_555
K1 O8 2.674769 1_555
K1 O7 2.704020 1_545
K1 O2 2.722117 1_545
K1 O13 2.749662 1_555
K1 O5 2.793287 1_555
K1 O14 2.881954 1_555
K2 O0 2.674778 1_555
K2 O15 2.704010 1_655
K2 O10 2.722127 1_655
K2 O4 2.749673 1_555
K2 O11 2.793273 1_555
K2 O5 2.881941 1_555
K3 O14 2.706802 1_555
K3 O9 2.706802 1_555
K3 O18 2.706802 1_555
K3 O11 2.706808 1_555
K3 O12 2.706808 1_555
K3 O5 2.706808 1_555
K4 O23 2.674778 1_555
K4 O8 2.704010 1_455
K4 O13 2.722127 1_455
K4 O19 2.749673 1_555
K4 O12 2.793273 1_555
K4 O18 2.881946 1_555
K5 O15 2.674769 1_555
K5 O16 2.704027 1_565
K5 O21 2.722114 1_565
K5 O10 2.749662 1_555
K5 O18 2.793292 1_555
K5 O9 2.881954 1_555
K6 O16 2.674782 1_555
K6 O0 2.704015 1_556
K6 O4 2.722127 1_556
K6 O21 2.749666 1_555
K6 O14 2.793278 1_555
K6 O12 2.881941 1_555
O0 Se5 1.629925 1_554
O1 Se0 1.727492 1_555
O1 Ta0 1.973987 1_555
O2 Se5 1.627895 1_554
O3 Se1 1.727503 1_555
O3 Ta0 1.973983 1_555
O4 Se1 1.627906 1_655
O5 Se0 1.639614 1_555
O6 Se2 1.727503 1_555
O6 Ta0 1.973975 1_555
O7 Se2 1.629920 1_565
O8 Se1 1.629925 1_655
O9 Se1 1.639605 1_555
O10 Se2 1.627906 1_565
O11 Se3 1.639608 1_555
O12 Se2 1.639608 1_555
O13 Se3 1.627906 1_545
O14 Se4 1.639605 1_555
O15 Se4 1.629925 1_455
O16 Se3 1.629911 1_545
O17 Se3 1.727503 1_555
O17 Ta0 1.973975 1_666
O18 Se5 1.639611 1_555
O19 Se4 1.627906 1_455
O20 Se4 1.727503 1_555
O20 Ta0 1.973983 1_666
O21 Se0 1.627903 1_556
O22 Se5 1.727492 1_555
O22 Ta0 1.973987 1_666
O23 Se0 1.629925 1_556
