# generated using pymatgen
data_Rb4TcMoAs4
_symmetry_space_group_name_H-M   'P 1'
_cell_length_a   8.53129544
_cell_length_b   8.53129505
_cell_length_c   8.53129596
_cell_angle_alpha   137.28512862
_cell_angle_beta   127.52655228
_cell_angle_gamma   69.88731513
_symmetry_Int_Tables_number   1
_chemical_formula_structural   Rb4TcMoAs4
_chemical_formula_sum   'Rb4 Tc1 Mo1 As4'
_cell_volume   327.78718637
_cell_formula_units_Z   1
loop_
 _symmetry_equiv_pos_site_id
 _symmetry_equiv_pos_as_xyz
  1  'x, y, z'
loop_
 _atom_site_type_symbol
 _atom_site_label
 _atom_site_symmetry_multiplicity
 _atom_site_fract_x
 _atom_site_fract_y
 _atom_site_fract_z
 _atom_site_occupancy
  Rb  Rb0  1  0.99481885  0.65182145  0.34414669  1
  Rb  Rb1  1  0.00518115  0.34932784  0.65700160  1
  Rb  Rb2  1  0.69232624  0.84817855  0.84299840  1
  Rb  Rb3  1  0.30767376  0.15067216  0.15585331  1
  Tc  Tc0  1  0.50000000  0.25000000  0.75000000  1
  Mo  Mo0  1  0.50000000  0.75000000  0.25000000  1
  As  As0  1  0.57929295  0.40297103  0.17100846  1
  As  As1  1  0.42070705  0.59171551  0.82367807  1
  As  As2  1  0.23196257  0.90828449  0.32899154  1
  As  As3  1  0.76803743  0.09702897  0.67632193  1
loop_
_geom_bond_atom_site_label_1
_geom_bond_atom_site_label_2
_geom_bond_distance
_geom_bond_site_symmetry_2
As0 Tc0 2.412578 1_554
As0 Mo0 2.433745 1_555
As0 Rb2 3.442146 1_544
As0 Rb2 3.465424 1_555
As0 Rb3 3.560298 1_555
As0 Rb0 3.666678 1_555
As0 Rb1 3.727422 1_655
As0 Rb1 3.981865 1_554
As1 Tc0 2.412577 1_555
As1 Mo0 2.433745 1_556
As1 Rb3 3.442141 1_555
As1 Rb3 3.465423 1_566
As1 Rb2 3.560291 1_555
As1 Rb1 3.666673 1_555
As1 Rb0 3.727427 1_455
As1 Rb0 3.981862 1_556
As2 Tc0 2.412578 1_565
As2 Mo0 2.433745 1_555
As2 Rb1 3.442140 1_565
As2 Rb1 3.465424 1_554
As2 Rb0 3.560291 1_455
As2 Rb3 3.666673 1_565
As2 Rb2 3.727420 1_454
As2 Rb2 3.981870 1_555
As3 Tc0 2.412578 1_555
As3 Mo0 2.433745 1_545
As3 Rb0 3.442143 1_556
As3 Rb0 3.465421 1_545
As3 Rb1 3.560298 1_655
As3 Rb2 3.666681 1_545
As3 Rb3 3.727422 1_656
As3 Rb3 3.981865 1_555
