# generated using pymatgen
data_Lu9Mg(Zn2Sb)2
_symmetry_space_group_name_H-M   'P 1'
_cell_length_a   8.34896771
_cell_length_b   8.34896794
_cell_length_c   8.34896852
_cell_angle_alpha   125.11833953
_cell_angle_beta   125.11834185
_cell_angle_gamma   81.34211302
_symmetry_Int_Tables_number   1
_chemical_formula_structural   Lu9Mg(Zn2Sb)2
_chemical_formula_sum   'Lu9 Mg1 Zn4 Sb2'
_cell_volume   374.95491685
_cell_formula_units_Z   1
loop_
 _symmetry_equiv_pos_site_id
 _symmetry_equiv_pos_as_xyz
  1  'x, y, z'
loop_
 _atom_site_type_symbol
 _atom_site_label
 _atom_site_symmetry_multiplicity
 _atom_site_fract_x
 _atom_site_fract_y
 _atom_site_fract_z
 _atom_site_occupancy
  Lu  Lu0  1  0.50000000  0.50000000  0.00000000  1
  Lu  Lu1  1  0.80459543  0.29561706  0.81281237  1
  Lu  Lu2  1  0.19540457  0.70438294  0.18718763  1
  Lu  Lu3  1  0.48280469  0.99178306  0.18718763  1
  Lu  Lu4  1  0.29561706  0.48280469  0.49102164  1
  Lu  Lu5  1  0.00821694  0.19540457  0.49102164  1
  Lu  Lu6  1  0.51719531  0.00821694  0.81281237  1
  Lu  Lu7  1  0.70438294  0.51719531  0.50897836  1
  Lu  Lu8  1  0.99178306  0.80459543  0.50897836  1
  Mg  Mg0  1  0.00000000  0.00000000  0.00000000  1
  Zn  Zn0  1  0.13693213  0.63323283  0.77016596  1
  Zn  Zn1  1  0.86306787  0.36676717  0.22983404  1
  Zn  Zn2  1  0.63323283  0.86306787  0.49630070  1
  Zn  Zn3  1  0.36676717  0.13693213  0.50369930  1
  Sb  Sb0  1  0.25157321  0.25157321  1.00000000  1
  Sb  Sb1  1  0.74842679  0.74842679  0.00000000  1
loop_
_geom_bond_atom_site_label_1
_geom_bond_atom_site_label_2
_geom_bond_distance
_geom_bond_site_symmetry_2
Lu0 Zn1 2.975956 1_555
Lu0 Zn0 2.975956 1_554
Lu0 Zn2 2.975959 1_555
Lu0 Zn3 2.975959 1_554
Lu0 Sb1 3.146270 1_555
Lu0 Sb0 3.146270 1_554
Lu1 Zn2 2.880583 1_545
Lu1 Zn3 2.906539 1_555
Lu1 Zn1 2.909569 1_556
Lu1 Sb0 3.168903 1_655
Lu1 Sb1 3.235164 1_556
Lu2 Zn3 2.880583 1_565
Lu2 Zn2 2.906539 1_555
Lu2 Zn0 2.909569 1_554
Lu2 Sb1 3.168903 1_455
Lu2 Sb0 3.235164 1_554
Lu3 Zn3 2.880583 1_565
Lu3 Zn2 2.906540 1_555
Lu3 Zn0 2.909577 1_554
Lu3 Sb0 3.168904 1_564
Lu3 Sb1 3.235164 1_555
Lu4 Zn1 2.880581 1_455
Lu4 Zn0 2.906546 1_555
Lu4 Zn3 2.909577 1_555
Lu4 Sb0 3.168904 1_554
Lu4 Sb1 3.235164 1_556
Lu5 Zn1 2.880589 1_455
Lu5 Zn0 2.906538 1_555
Lu5 Zn3 2.909577 1_555
Lu5 Sb1 3.168904 1_445
Lu5 Sb0 3.235164 1_555
Lu6 Zn2 2.880583 1_545
Lu6 Zn3 2.906540 1_555
Lu6 Zn1 2.909577 1_556
Lu6 Sb1 3.168904 1_546
Lu6 Sb0 3.235164 1_555
Lu7 Zn0 2.880581 1_655
Lu7 Zn1 2.906546 1_555
Lu7 Zn2 2.909577 1_555
Lu7 Sb1 3.168904 1_556
Lu7 Sb0 3.235164 1_554
Lu8 Zn0 2.880589 1_655
Lu8 Zn1 2.906538 1_555
Lu8 Zn2 2.909577 1_555
Lu8 Sb0 3.168904 1_665
Lu8 Sb1 3.235164 1_555
Mg0 Zn1 3.012534 1_455
Mg0 Zn0 3.012534 1_544
Mg0 Zn3 3.012536 1_555
Mg0 Zn2 3.012536 1_444
Mg0 Sb0 3.186119 1_554
Mg0 Sb1 3.186119 1_445
