# generated using pymatgen
data_Y20In3Ru2Au3
_symmetry_space_group_name_H-M   'P 1'
_cell_length_a   9.68032390
_cell_length_b   9.68032229
_cell_length_c   9.56078070
_cell_angle_alpha   90.00000000
_cell_angle_beta   90.00000000
_cell_angle_gamma   120.00000212
_symmetry_Int_Tables_number   1
_chemical_formula_structural   Y20In3Ru2Au3
_chemical_formula_sum   'Y20 In3 Ru2 Au3'
_cell_volume   775.89630692
_cell_formula_units_Z   1
loop_
 _symmetry_equiv_pos_site_id
 _symmetry_equiv_pos_as_xyz
  1  'x, y, z'
loop_
 _atom_site_type_symbol
 _atom_site_label
 _atom_site_symmetry_multiplicity
 _atom_site_fract_x
 _atom_site_fract_y
 _atom_site_fract_z
 _atom_site_occupancy
  Y  Y0  1  0.00000000  0.00000000  0.45491920  1
  Y  Y1  1  0.00000000  0.00000000  0.04508080  1
  Y  Y2  1  0.20966668  0.79033332  0.43849957  1
  Y  Y3  1  0.20966668  0.41933436  0.43849957  1
  Y  Y4  1  0.58066564  0.79033332  0.43849957  1
  Y  Y5  1  0.79192016  0.20807984  0.55949017  1
  Y  Y6  1  0.79192016  0.58383832  0.55949017  1
  Y  Y7  1  0.41616168  0.20807984  0.55949017  1
  Y  Y8  1  0.79192016  0.20807984  0.94050983  1
  Y  Y9  1  0.79192016  0.58383832  0.94050983  1
  Y  Y10  1  0.41616168  0.20807984  0.94050983  1
  Y  Y11  1  0.20966668  0.79033332  0.06150043  1
  Y  Y12  1  0.20966668  0.41933436  0.06150043  1
  Y  Y13  1  0.58066564  0.79033332  0.06150043  1
  Y  Y14  1  0.54096266  0.45903734  0.25000000  1
  Y  Y15  1  0.54096266  0.08192332  0.25000000  1
  Y  Y16  1  0.91807668  0.45903734  0.25000000  1
  Y  Y17  1  0.45997450  0.54002550  0.75000000  1
  Y  Y18  1  0.45997450  0.91994900  0.75000000  1
  Y  Y19  1  0.08005100  0.54002550  0.75000000  1
  In  In0  1  0.11033840  0.88966160  0.75000000  1
  In  In1  1  0.11033840  0.22067679  0.75000000  1
  In  In2  1  0.77932321  0.88966160  0.75000000  1
  Ru  Ru0  1  0.33333300  0.66666700  0.25000000  1
  Ru  Ru1  1  0.66666700  0.33333300  0.75000000  1
  Au  Au0  1  0.86812526  0.13187474  0.25000000  1
  Au  Au1  1  0.86812526  0.73625153  0.25000000  1
  Au  Au2  1  0.26374847  0.13187474  0.25000000  1
loop_
_geom_bond_atom_site_label_1
_geom_bond_atom_site_label_2
_geom_bond_distance
_geom_bond_site_symmetry_2
In0 In1 3.204334 1_565
In0 In2 3.204334 1_455
In0 Y19 3.247934 1_555
In0 Y18 3.247935 1_555
In0 Y1 3.373688 1_566
In0 Y0 3.373688 1_565
In0 Y11 3.412216 1_556
In0 Y2 3.412216 1_555
In0 Y10 3.529556 1_565
In0 Y7 3.529556 1_565
In0 Y9 3.529556 1_455
In0 Y6 3.529556 1_455
In1 In2 3.204334 1_445
In1 Y19 3.247934 1_555
In1 Y17 3.247935 1_555
In1 Y1 3.373688 1_556
In1 Y0 3.373688 1_555
In1 Y12 3.412220 1_556
In1 Y3 3.412220 1_555
In1 Y8 3.529549 1_455
In1 Y5 3.529549 1_455
In1 Y10 3.529565 1_555
In1 Y7 3.529565 1_555
In2 Y17 3.247935 1_555
In2 Y18 3.247935 1_555
In2 Y1 3.373688 1_666
In2 Y0 3.373688 1_665
In2 Y13 3.412220 1_556
In2 Y4 3.412220 1_555
In2 Y8 3.529548 1_565
In2 Y5 3.529548 1_565
In2 Y9 3.529565 1_555
In2 Y6 3.529565 1_555
Ru0 Y3 2.747234 1_555
Ru0 Y12 2.747234 1_555
Ru0 Y2 2.747234 1_555
Ru0 Y11 2.747234 1_555
Ru0 Y4 2.747234 1_555
Ru0 Y13 2.747234 1_555
Ru1 Y9 2.779919 1_555
Ru1 Y6 2.779919 1_555
Ru1 Y10 2.779919 1_555
Ru1 Y7 2.779919 1_555
Ru1 Y8 2.779925 1_555
Ru1 Y5 2.779925 1_555
Ru1 Y18 3.465565 1_545
Ru1 Y19 3.465566 1_655
Ru1 Y17 3.465574 1_555
Au0 Y0 2.954228 1_655
Au0 Y1 2.954228 1_655
Au0 Y16 2.955088 1_555
Au0 Y15 2.955089 1_555
Au0 Y5 3.223050 1_555
Au0 Y8 3.223050 1_554
Au0 Y4 3.566830 1_545
Au0 Y13 3.566830 1_545
Au0 Y3 3.566830 1_655
Au0 Y12 3.566830 1_655
Au1 Y0 2.954221 1_665
Au1 Y1 2.954221 1_665
Au1 Y14 2.955099 1_555
Au1 Y16 2.955117 1_555
Au1 Y6 3.223060 1_555
Au1 Y9 3.223060 1_554
Au1 Y4 3.566830 1_555
Au1 Y13 3.566830 1_555
Au1 Y2 3.566830 1_655
Au1 Y11 3.566830 1_655
Au2 Y0 2.954222 1_555
Au2 Y1 2.954222 1_555
Au2 Y14 2.955099 1_555
Au2 Y15 2.955117 1_555
Au2 Y7 3.223060 1_555
Au2 Y10 3.223060 1_554
Au2 Y2 3.566830 1_545
Au2 Y11 3.566830 1_545
Au2 Y3 3.566830 1_555
Au2 Y12 3.566830 1_555
