# generated using pymatgen
data_K12AlGaP6
_symmetry_space_group_name_H-M   'P 1'
_cell_length_a   8.76886343
_cell_length_b   8.72132219
_cell_length_c   9.89892032
_cell_angle_alpha   81.62255917
_cell_angle_beta   107.10911490
_cell_angle_gamma   119.57157905
_symmetry_Int_Tables_number   1
_chemical_formula_structural   K12AlGaP6
_chemical_formula_sum   'K12 Al1 Ga1 P6'
_cell_volume   629.28204236
_cell_formula_units_Z   1
loop_
 _symmetry_equiv_pos_site_id
 _symmetry_equiv_pos_as_xyz
  1  'x, y, z'
loop_
 _atom_site_type_symbol
 _atom_site_label
 _atom_site_symmetry_multiplicity
 _atom_site_fract_x
 _atom_site_fract_y
 _atom_site_fract_z
 _atom_site_occupancy
  K  K0  1  0.73956527  0.12725796  0.61916999  1
  K  K1  1  0.25116325  0.85260778  0.39105745  1
  K  K2  1  0.96205957  0.81713083  0.62524275  1
  K  K3  1  0.03160230  0.20270699  0.39572787  1
  K  K4  1  0.62235280  0.44258720  0.39880434  1
  K  K5  1  0.41081975  0.57523986  0.59356869  1
  K  K6  1  0.86608300  0.48512303  0.13192018  1
  K  K7  1  0.11042324  0.50610817  0.84296530  1
  K  K8  1  0.75124193  0.08833249  0.98817566  1
  K  K9  1  0.24107072  0.87693084  0.00474995  1
  K  K10  1  0.55233384  0.61224231  0.94872013  1
  K  K11  1  0.24229136  0.20194253  0.11280380  1
  Al  Al0  1  0.42031713  0.17662633  0.75056843  1
  Ga  Ga0  1  0.58771039  0.82990527  0.25473096  1
  P  P0  1  0.30603042  0.56782372  0.22779966  1
  P  P1  1  0.70131486  0.42847456  0.76337466  1
  P  P2  1  0.60119425  0.10422160  0.26381267  1
  P  P3  1  0.38625967  0.89237249  0.73681420  1
  P  P4  1  0.84994815  0.82194521  0.24628299  1
  P  P5  1  0.17559811  0.20716284  0.76509331  1
loop_
_geom_bond_atom_site_label_1
_geom_bond_atom_site_label_2
_geom_bond_distance
_geom_bond_site_symmetry_2
K0 P3 3.211592 1_545
K0 P1 3.360869 1_555
K0 P2 3.367563 1_555
K0 P5 3.406634 1_655
K1 P2 3.262571 1_565
K1 P4 3.274063 1_455
K1 P3 3.285221 1_555
K1 P0 3.437795 1_555
K2 P5 3.248646 1_665
K2 P3 3.297220 1_655
K2 P1 3.380281 1_555
K2 P4 3.586836 1_555
K3 P4 3.252250 1_445
K3 P2 3.303751 1_455
K3 P0 3.455700 1_555
K3 P5 3.498725 1_555
K4 P2 3.315293 1_555
K4 P4 3.317957 1_555
K4 P0 3.382480 1_555
K4 P1 3.464510 1_555
K5 P1 3.320321 1_555
K5 P5 3.373315 1_555
K5 P3 3.408396 1_555
K5 P0 3.465565 1_555
K6 P2 3.322623 1_555
K6 P4 3.377007 1_555
K6 P0 3.406266 1_655
K6 P1 3.515714 1_554
K7 P5 3.167624 1_555
K7 P1 3.169185 1_455
K7 P3 3.274831 1_555
K7 P0 3.685822 1_556
K8 P3 3.241886 1_545
K8 P2 3.405526 1_556
K8 P4 3.410066 1_546
K8 P1 3.567738 1_555
K9 P3 3.222901 1_554
K9 P2 3.319008 1_565
K9 P0 3.392379 1_555
K9 P5 3.618304 1_564
K10 P4 3.341797 1_556
K10 P1 3.460519 1_555
K10 P3 3.565197 1_555
K10 P5 3.676543 1_555
K11 P0 3.273256 1_555
K11 P5 3.314725 1_554
K11 P2 3.517620 1_555
Al0 P5 2.335229 1_555
Al0 P1 2.338243 1_555
Al0 P3 2.365837 1_545
Al0 K8 3.493945 1_555
Ga0 P2 2.350077 1_565
Ga0 P4 2.360517 1_555
Ga0 P0 2.369417 1_555
Ga0 K8 3.376644 1_564
