# generated using pymatgen
data_V(NiPt3)2
_symmetry_space_group_name_H-M   'P 1'
_cell_length_a   5.98593416
_cell_length_b   5.98593335
_cell_length_c   6.09955881
_cell_angle_alpha   95.83372414
_cell_angle_beta   95.83371726
_cell_angle_gamma   142.45336776
_symmetry_Int_Tables_number   1
_chemical_formula_structural   V(NiPt3)2
_chemical_formula_sum   'V1 Ni2 Pt6'
_cell_volume   126.37221094
_cell_formula_units_Z   1
loop_
 _symmetry_equiv_pos_site_id
 _symmetry_equiv_pos_as_xyz
  1  'x, y, z'
loop_
 _atom_site_type_symbol
 _atom_site_label
 _atom_site_symmetry_multiplicity
 _atom_site_fract_x
 _atom_site_fract_y
 _atom_site_fract_z
 _atom_site_occupancy
  V  V0  1  0.00000000  0.00000000  0.00000000  1
  Ni  Ni0  1  0.33583045  0.33583045  0.67166090  1
  Ni  Ni1  1  0.66416955  0.66416955  0.32833910  1
  Pt  Pt0  1  0.65463364  0.34536636  0.00000000  1
  Pt  Pt1  1  0.34536636  0.65463364  1.00000000  1
  Pt  Pt2  1  0.01034342  0.32232241  0.33266583  1
  Pt  Pt3  1  0.98965658  0.67767759  0.66733417  1
  Pt  Pt4  1  0.67767759  0.98965658  0.66733417  1
  Pt  Pt5  1  0.32232241  0.01034342  0.33266583  1
loop_
_geom_bond_atom_site_label_1
_geom_bond_atom_site_label_2
_geom_bond_distance
_geom_bond_site_symmetry_2
Ni0 Pt1 2.585151 1_555
Ni0 Pt0 2.585152 1_556
Ni0 Pt3 2.614962 1_445
Ni0 Pt4 2.614962 1_555
Ni0 Pt3 2.614962 1_555
Ni0 Pt4 2.614962 1_445
Ni0 Pt5 2.641078 1_555
Ni0 Pt2 2.641078 1_555
Ni0 V0 2.705905 1_556
Ni0 V0 2.705905 1_666
Ni0 Ni1 2.767486 1_555
Ni0 Ni1 2.767486 1_445
Ni1 Pt0 2.585151 1_555
Ni1 Pt1 2.585152 1_554
Ni1 Pt2 2.614962 1_665
Ni1 Pt5 2.614962 1_555
Ni1 Pt2 2.614962 1_555
Ni1 Pt5 2.614962 1_665
Ni1 Pt4 2.641078 1_555
Ni1 Pt3 2.641078 1_555
Ni1 V0 2.705905 1_665
Ni1 V0 2.705905 1_555
Pt0 V0 2.604474 1_665
Pt0 V0 2.604475 1_555
Pt0 Pt5 2.723591 1_555
Pt0 Pt3 2.723591 1_554
Pt0 Pt3 2.723591 1_444
Pt0 Pt5 2.723591 1_665
Pt0 Pt4 2.883472 1_544
Pt0 Pt2 2.883472 1_655
Pt0 Pt1 2.895706 1_544
Pt0 Pt1 2.895707 1_654
Pt1 V0 2.604474 1_556
Pt1 V0 2.604475 1_666
Pt1 Pt4 2.723591 1_555
Pt1 Pt2 2.723591 1_556
Pt1 Pt2 2.723591 1_666
Pt1 Pt4 2.723591 1_445
Pt1 Pt5 2.883472 1_566
Pt1 Pt3 2.883472 1_455
Pt2 V0 2.613983 1_555
Pt2 Pt4 2.731753 1_445
Pt2 Pt4 2.731753 1_555
Pt2 Pt5 2.872830 1_565
Pt2 Pt5 2.872831 1_455
Pt2 Pt3 2.879831 1_455
Pt3 V0 2.613983 1_666
Pt3 Pt5 2.731753 1_665
Pt3 Pt5 2.731753 1_555
Pt3 Pt4 2.872830 1_545
Pt3 Pt4 2.872831 1_655
Pt4 V0 2.613984 1_666
Pt4 Pt5 2.879831 1_565
Pt5 V0 2.613984 1_555
