# generated using pymatgen
data_Cs8V7PN16
_symmetry_space_group_name_H-M   'P 1'
_cell_length_a   5.83116836
_cell_length_b   8.25856758
_cell_length_c   11.67877681
_cell_angle_alpha   90.00000000
_cell_angle_beta   89.99394273
_cell_angle_gamma   90.00000000
_symmetry_Int_Tables_number   1
_chemical_formula_structural   Cs8V7PN16
_chemical_formula_sum   'Cs8 V7 P1 N16'
_cell_volume   562.41599637
_cell_formula_units_Z   1
loop_
 _symmetry_equiv_pos_site_id
 _symmetry_equiv_pos_as_xyz
  1  'x, y, z'
loop_
 _atom_site_type_symbol
 _atom_site_label
 _atom_site_symmetry_multiplicity
 _atom_site_fract_x
 _atom_site_fract_y
 _atom_site_fract_z
 _atom_site_occupancy
  Cs  Cs0  1  0.75000000  0.12082564  0.50000000  1
  Cs  Cs1  1  0.25000000  0.87108503  0.00000000  1
  Cs  Cs2  1  0.25000000  0.87738194  0.50000000  1
  Cs  Cs3  1  0.75000000  0.13066459  0.00000000  1
  Cs  Cs4  1  0.75174647  0.37494392  0.74537086  1
  Cs  Cs5  1  0.25169626  0.62392485  0.75191479  1
  Cs  Cs6  1  0.24830374  0.62392485  0.24808521  1
  Cs  Cs7  1  0.74825353  0.37494392  0.25462914  1
  V  V0  1  0.25000000  0.37366909  0.50000000  1
  V  V1  1  0.75000000  0.60662738  0.00000000  1
  V  V2  1  0.75000000  0.62945233  0.50000000  1
  V  V3  1  0.25137263  0.13255600  0.75934744  1
  V  V4  1  0.75138084  0.87496235  0.75549099  1
  V  V5  1  0.74861916  0.87496235  0.24450901  1
  V  V6  1  0.24862737  0.13255600  0.24065256  1
  P  P0  1  0.25000000  0.37617792  0.00000000  1
  N  N0  1  0.50159931  0.00376365  0.75874633  1
  N  N1  1  0.00318427  0.00173810  0.75864863  1
  N  N2  1  0.49681573  0.00173810  0.24135137  1
  N  N3  1  0.99840069  0.00376365  0.24125367  1
  N  N4  1  0.25018470  0.26209770  0.88481863  1
  N  N5  1  0.75021608  0.75592219  0.62551859  1
  N  N6  1  0.74978392  0.75592219  0.37448141  1
  N  N7  1  0.24981530  0.26209770  0.11518137  1
  N  N8  1  0.74964562  0.73816898  0.12345200  1
  N  N9  1  0.24956384  0.24964922  0.37175761  1
  N  N10  1  0.25043616  0.24964922  0.62824239  1
  N  N11  1  0.75035438  0.73816898  0.87654800  1
  N  N12  1  0.01567012  0.48812417  0.00002614  1
  N  N13  1  0.49958387  0.50120642  0.49995804  1
  N  N14  1  0.00041613  0.50120642  0.50004196  1
  N  N15  1  0.48432988  0.48812417  0.99997386  1
loop_
_geom_bond_atom_site_label_1
_geom_bond_atom_site_label_2
_geom_bond_distance
_geom_bond_site_symmetry_2
Cs0 N5 3.351200 1_545
Cs0 N6 3.351200 1_545
Cs0 N10 3.443822 1_555
Cs0 N9 3.443822 1_655
Cs0 N10 3.448394 1_655
Cs0 N9 3.448394 1_555
Cs0 N14 3.464193 1_655
Cs0 N13 3.464193 1_555
Cs0 N0 3.487590 1_555
Cs0 N3 3.487590 1_555
Cs0 N1 3.503208 1_655
Cs0 N2 3.503208 1_555
Cs1 N2 3.343873 1_565
Cs1 N1 3.343873 1_564
Cs1 N3 3.360174 1_465
Cs1 N0 3.360174 1_564
Cs1 N8 3.431196 1_555
Cs1 N11 3.431196 1_454
Cs1 N8 3.434447 1_455
Cs1 N11 3.434447 1_554
Cs1 N15 3.445260 1_554
Cs1 N12 3.445260 1_555
Cs1 N7 3.498180 1_565
Cs1 N4 3.498180 1_564
Cs2 N6 3.412833 1_555
Cs2 N5 3.412833 1_455
Cs2 N5 3.415250 1_555
Cs2 N6 3.415250 1_455
Cs2 N10 3.419804 1_565
Cs2 N9 3.419804 1_565
Cs2 N13 3.430670 1_555
Cs2 N14 3.430670 1_555
Cs2 N1 3.499973 1_565
Cs2 N2 3.499973 1_565
Cs2 N0 3.517708 1_565
Cs2 N3 3.517708 1_465
Cs3 N12 3.333892 1_655
Cs3 N15 3.333892 1_554
Cs3 N3 3.337040 1_555
Cs3 N0 3.337040 1_554
Cs3 N2 3.355213 1_555
Cs3 N1 3.355213 1_654
Cs3 N7 3.388640 1_655
Cs3 N4 3.388640 1_554
Cs3 N4 3.390249 1_654
Cs3 N7 3.390249 1_555
Cs3 N8 3.547634 1_545
Cs3 N11 3.547634 1_544
Cs4 N11 3.368288 1_555
Cs4 N10 3.375975 1_655
Cs4 N14 3.376104 1_655
Cs4 N13 3.385993 1_555
Cs4 N10 3.389396 1_555
Cs4 N0 3.398352 1_555
Cs4 N1 3.416634 1_655
Cs4 N5 3.443653 1_555
Cs4 N4 3.459683 1_655
Cs4 N4 3.474710 1_555
Cs4 N12 3.476803 1_656
Cs4 N15 3.485066 1_555
Cs5 N4 3.367260 1_555
Cs5 N11 3.385972 1_555
Cs5 N15 3.389921 1_555
Cs5 N12 3.398159 1_556
Cs5 N11 3.399156 1_455
Cs5 N10 3.411795 1_555
Cs5 N13 3.431358 1_555
Cs5 N5 3.437562 1_555
Cs5 N14 3.439163 1_555
Cs5 N1 3.441180 1_565
Cs5 N5 3.452436 1_455
Cs5 N0 3.459797 1_565
Cs6 N7 3.367260 1_555
Cs6 N8 3.385972 1_455
Cs6 N12 3.389921 1_555
Cs6 N15 3.398159 1_554
Cs6 N8 3.399156 1_555
Cs6 N9 3.411795 1_555
Cs6 N14 3.431358 1_555
Cs6 N6 3.437562 1_455
Cs6 N13 3.439163 1_555
Cs6 N2 3.441180 1_565
Cs6 N6 3.452436 1_555
Cs6 N3 3.459797 1_465
Cs7 N8 3.368288 1_555
Cs7 N9 3.375975 1_555
Cs7 N13 3.376104 1_555
Cs7 N14 3.385993 1_655
Cs7 N9 3.389396 1_655
Cs7 N3 3.398352 1_555
Cs7 N2 3.416634 1_555
Cs7 N6 3.443653 1_555
Cs7 N7 3.459683 1_555
Cs7 N7 3.474710 1_655
Cs7 N15 3.476803 1_554
Cs7 N12 3.485066 1_655
N0 V4 1.803986 1_545
N0 V3 1.805655 1_555
N1 V4 1.803741 1_445
N1 V3 1.806027 1_555
N2 V5 1.803741 1_545
N2 V6 1.806027 1_555
N3 V5 1.803986 1_545
N3 V6 1.805655 1_655
N4 P0 1.642294 1_556
N4 V3 1.814340 1_555
N5 V2 1.799937 1_555
N5 V4 1.808484 1_555
N6 V2 1.799937 1_555
N6 V5 1.808484 1_555
N7 P0 1.642294 1_555
N7 V6 1.814340 1_555
N8 V1 1.805227 1_555
N8 V5 1.809729 1_555
N9 V6 1.810959 1_555
N9 V0 1.814441 1_555
N10 V3 1.810959 1_555
N10 V0 1.814441 1_555
N11 V1 1.805227 1_556
N11 V4 1.809729 1_555
N12 P0 1.649795 1_555
N12 V1 1.832405 1_455
N13 V0 1.796518 1_555
N13 V2 1.803882 1_555
N14 V0 1.796518 1_555
N14 V2 1.803882 1_455
N15 P0 1.649795 1_556
N15 V1 1.832405 1_556
