# generated using pymatgen
data_CsAlAsH
_symmetry_space_group_name_H-M   'P 1'
_cell_length_a   4.14184423
_cell_length_b   4.14184408
_cell_length_c   6.68581034
_cell_angle_alpha   90.00000000
_cell_angle_beta   90.00000000
_cell_angle_gamma   119.99998565
_symmetry_Int_Tables_number   1
_chemical_formula_structural   CsAlAsH
_chemical_formula_sum   'Cs1 Al1 As1 H1'
_cell_volume   99.32812878
_cell_formula_units_Z   1
loop_
 _symmetry_equiv_pos_site_id
 _symmetry_equiv_pos_as_xyz
  1  'x, y, z'
loop_
 _atom_site_type_symbol
 _atom_site_label
 _atom_site_symmetry_multiplicity
 _atom_site_fract_x
 _atom_site_fract_y
 _atom_site_fract_z
 _atom_site_occupancy
  Cs  Cs0  1  0.00000000  0.00000000  0.03107404  1
  Al  Al0  1  0.66666700  0.33333300  0.56364307  1
  As  As0  1  0.33333300  0.66666700  0.45376225  1
  H  H0  1  0.66666700  0.33333300  0.80861964  1
loop_
_geom_bond_atom_site_label_1
_geom_bond_atom_site_label_2
_geom_bond_distance
_geom_bond_site_symmetry_2
Cs0 H0 2.816080 1_454
Cs0 H0 2.816083 1_444
Cs0 H0 2.816083 1_554
Al0 H0 1.637867 1_555
Al0 As0 2.501596 1_545
Al0 As0 2.501596 1_655
Al0 As0 2.501602 1_555
As0 Cs0 3.701976 1_565
As0 Cs0 3.701979 1_555
As0 Cs0 3.701979 1_665
