# generated using pymatgen
data_Hf6Ti6Ga10Ir7
_symmetry_space_group_name_H-M   'P 1'
_cell_length_a   8.78557457
_cell_length_b   8.74189566
_cell_length_c   8.74189766
_cell_angle_alpha   59.59130134
_cell_angle_beta   59.83458296
_cell_angle_gamma   59.83457840
_symmetry_Int_Tables_number   1
_chemical_formula_structural   Hf6Ti6Ga10Ir7
_chemical_formula_sum   'Hf6 Ti6 Ga10 Ir7'
_cell_volume   472.08847370
_cell_formula_units_Z   1
loop_
 _symmetry_equiv_pos_site_id
 _symmetry_equiv_pos_as_xyz
  1  'x, y, z'
loop_
 _atom_site_type_symbol
 _atom_site_label
 _atom_site_symmetry_multiplicity
 _atom_site_fract_x
 _atom_site_fract_y
 _atom_site_fract_z
 _atom_site_occupancy
  Hf  Hf0  1  0.68401803  0.69273502  0.31265292  1
  Hf  Hf1  1  0.31059504  0.69273502  0.31265292  1
  Hf  Hf2  1  0.69091035  0.30908965  0.30908965  1
  Hf  Hf3  1  0.31059504  0.31265292  0.69273502  1
  Hf  Hf4  1  0.68401803  0.31265292  0.69273502  1
  Hf  Hf5  1  0.31181684  0.68818316  0.68818316  1
  Ti  Ti0  1  0.87679068  0.88158415  0.36483449  1
  Ti  Ti1  1  0.87679068  0.36483449  0.88158415  1
  Ti  Ti2  1  0.37135864  0.87808369  0.87808369  1
  Ti  Ti3  1  0.87247498  0.87808369  0.87808369  1
  Ti  Ti4  1  0.12462929  0.12528601  0.62545540  1
  Ti  Ti5  1  0.12462929  0.62545540  0.12528601  1
  Ga  Ga0  1  0.64780987  0.11829829  0.11829829  1
  Ga  Ga1  1  0.11559256  0.11829829  0.11829829  1
  Ga  Ga2  1  0.65769800  0.65431918  0.03028381  1
  Ga  Ga3  1  0.65769800  0.03028381  0.65431918  1
  Ga  Ga4  1  0.02764518  0.65672105  0.65672105  1
  Ga  Ga5  1  0.65891272  0.65672105  0.65672105  1
  Ga  Ga6  1  0.34042983  0.33932199  0.97982035  1
  Ga  Ga7  1  0.34042983  0.97982035  0.33932199  1
  Ga  Ga8  1  0.96763508  0.34403911  0.34403911  1
  Ga  Ga9  1  0.34428669  0.34403911  0.34403911  1
  Ir  Ir0  1  0.01240344  0.98759656  0.98759656  1
  Ir  Ir1  1  0.99897680  0.99955216  0.50548450  1
  Ir  Ir2  1  0.49598654  0.99955216  0.50548450  1
  Ir  Ir3  1  0.99935371  0.50064629  0.50064629  1
  Ir  Ir4  1  0.49598654  0.50548450  0.99955216  1
  Ir  Ir5  1  0.99897680  0.50548450  0.99955216  1
  Ir  Ir6  1  0.50155254  0.99844746  0.99844746  1
loop_
_geom_bond_atom_site_label_1
_geom_bond_atom_site_label_2
_geom_bond_distance
_geom_bond_site_symmetry_2
Hf0 Ti3 3.153131 1_554
Hf0 Ir6 3.153593 1_554
Hf0 Ir2 3.176491 1_555
Hf0 Ti0 3.186011 1_555
Hf0 Ir5 3.193725 1_554
Hf0 Ir3 3.209733 1_555
Hf0 Ti5 3.213801 1_655
Hf0 Hf5 3.268265 1_555
Hf0 Hf1 3.280736 1_555
Hf0 Hf4 3.302092 1_555
Hf0 Hf2 3.339505 1_555
Hf1 Ti2 3.153131 1_554
Hf1 Ir6 3.153588 1_554
Hf1 Ir1 3.176492 1_455
Hf1 Ti0 3.186018 1_455
Hf1 Ir4 3.193727 1_554
Hf1 Ir3 3.209740 1_455
Hf1 Ti5 3.213809 1_555
Hf1 Hf5 3.268261 1_555
Hf1 Hf3 3.302092 1_555
Hf1 Hf2 3.339501 1_555
Hf2 Ti0 3.113462 1_545
Hf2 Ti1 3.113463 1_554
Hf2 Ir2 3.194016 1_545
Hf2 Ir1 3.194016 1_545
Hf2 Ir5 3.194016 1_554
Hf2 Ir4 3.194016 1_554
Hf2 Hf3 3.339501 1_555
Hf2 Hf4 3.339506 1_555
Hf3 Ti2 3.153130 1_545
Hf3 Ir6 3.153588 1_545
Hf3 Ir5 3.176493 1_455
Hf3 Ti1 3.186018 1_455
Hf3 Ir2 3.193727 1_545
Hf3 Ir3 3.209740 1_455
Hf3 Ti4 3.213809 1_555
Hf3 Hf5 3.268260 1_555
Hf3 Hf4 3.280736 1_555
Hf4 Ti3 3.153130 1_545
Hf4 Ir6 3.153593 1_545
Hf4 Ir4 3.176491 1_555
Hf4 Ti1 3.186011 1_555
Hf4 Ir1 3.193725 1_545
Hf4 Ir3 3.209733 1_555
Hf4 Ti4 3.213801 1_655
Hf4 Hf5 3.268264 1_555
Hf5 Ir2 3.163240 1_555
Hf5 Ir1 3.163241 1_455
Hf5 Ir5 3.163241 1_455
Hf5 Ir4 3.163241 1_555
Hf5 Ti4 3.174246 1_565
Hf5 Ti5 3.174247 1_556
Hf5 Ti3 3.212597 1_455
Hf5 Ti2 3.212603 1_555
Ti0 Ti5 3.066622 1_655
Ti1 Ti4 3.066622 1_655
Ti2 Ti5 3.085123 1_556
Ti2 Ti4 3.085123 1_565
Ti3 Ti4 3.085117 1_665
Ti3 Ti5 3.085117 1_656
Ga0 Ir0 2.614672 1_644
Ga0 Ir4 2.758723 1_554
Ga0 Ir2 2.758724 1_545
Ga0 Ir6 2.768361 1_544
Ga0 Ga6 2.857480 1_554
Ga0 Ga7 2.857480 1_545
Ga0 Ga9 2.874826 1_555
Ga0 Ti1 2.938170 1_554
Ga0 Ti0 2.938170 1_545
Ga0 Ti3 2.974606 1_544
Ga0 Hf0 3.127797 1_545
Ga0 Hf4 3.127798 1_554
Ga0 Hf2 3.129309 1_555
Ga1 Ir0 2.614665 1_544
Ga1 Ir5 2.758724 1_454
Ga1 Ir1 2.758725 1_445
Ga1 Ir6 2.768369 1_544
Ga1 Ga6 2.857502 1_554
Ga1 Ga7 2.857502 1_545
Ga1 Ga8 2.874828 1_455
Ga1 Ti0 2.938163 1_445
Ga1 Ti1 2.938164 1_454
Ga1 Ti2 2.974606 1_544
Ga1 Hf1 3.127801 1_545
Ga1 Hf3 3.127802 1_554
Ga1 Hf2 3.129303 1_455
Ga2 Ir4 2.525605 1_554
Ga2 Ir5 2.525613 1_554
Ga2 Ir6 2.529433 1_554
Ga2 Hf2 2.741714 1_555
Ga2 Ti2 2.776473 1_554
Ga2 Ti3 2.776487 1_554
Ga2 Ti1 2.778324 1_554
Ga2 Hf1 2.783932 1_555
Ga2 Hf0 2.783942 1_555
Ga3 Ir2 2.525605 1_545
Ga3 Ir1 2.525613 1_545
Ga3 Ir6 2.529434 1_545
Ga3 Hf2 2.741715 1_555
Ga3 Ti2 2.776473 1_545
Ga3 Ti3 2.776487 1_545
Ga3 Ti0 2.778325 1_545
Ga3 Hf3 2.783932 1_555
Ga3 Hf4 2.783942 1_555
Ga4 Ir3 2.520130 1_455
Ga4 Ir1 2.521551 1_455
Ga4 Ir5 2.521552 1_455
Ga4 Hf3 2.763897 1_555
Ga4 Hf1 2.763898 1_555
Ga4 Ti1 2.798971 1_455
Ga4 Ti0 2.798971 1_455
Ga4 Ti3 2.799338 1_455
Ga4 Hf5 2.800202 1_555
Ga5 Ir3 2.520130 1_555
Ga5 Ir2 2.521551 1_555
Ga5 Ir4 2.521552 1_555
Ga5 Hf4 2.763893 1_555
Ga5 Hf0 2.763894 1_555
Ga5 Ti1 2.798971 1_555
Ga5 Ti0 2.798971 1_555
Ga5 Ti2 2.799336 1_555
Ga5 Hf5 2.800202 1_555
Ga6 Ir6 2.532038 1_545
Ga6 Ir4 2.548162 1_555
Ga6 Ir5 2.548177 1_455
Ga6 Ti5 2.738494 1_556
Ga6 Hf4 2.781423 1_555
Ga6 Hf3 2.781428 1_555
Ga6 Hf5 2.804694 1_555
Ga7 Ir6 2.532039 1_554
Ga7 Ir2 2.548162 1_555
Ga7 Ir1 2.548177 1_455
Ga7 Ti4 2.738495 1_565
Ga7 Hf0 2.781423 1_555
Ga7 Hf1 2.781428 1_555
Ga7 Hf5 2.804695 1_555
Ga8 Ir1 2.528089 1_545
Ga8 Ir5 2.528089 1_554
Ga8 Ir3 2.547633 1_555
Ga8 Ti5 2.758325 1_655
Ga8 Ti4 2.758325 1_655
Ga8 Hf2 2.772156 1_555
Ga8 Hf0 2.789791 1_555
Ga8 Hf4 2.789792 1_555
Ga9 Ir2 2.528089 1_545
Ga9 Ir4 2.528089 1_554
Ga9 Ir3 2.547632 1_455
Ga9 Ti5 2.758325 1_555
Ga9 Ti4 2.758325 1_555
Ga9 Hf2 2.772156 1_555
Ga9 Hf1 2.789794 1_555
Ga9 Hf3 2.789795 1_555
Ir0 Ti3 2.576386 1_455
Ir0 Ti2 2.576394 1_555
Ir0 Ti5 2.577095 1_556
Ir0 Ti4 2.577096 1_565
Ir0 Ti1 2.687149 1_465
Ir0 Ti0 2.687150 1_456
Ir1 Ti3 2.649299 1_555
Ir1 Ti4 2.660207 1_665
Ir1 Ti0 2.729527 1_555
Ir2 Ti2 2.649299 1_555
Ir2 Ti4 2.660207 1_565
Ir2 Ti0 2.729527 1_555
Ir3 Ti4 2.668720 1_655
Ir3 Ti5 2.668721 1_655
Ir3 Ti0 2.708755 1_555
Ir3 Ti1 2.708756 1_555
Ir4 Ti2 2.649298 1_555
Ir4 Ti5 2.660207 1_556
Ir4 Ti1 2.729527 1_555
Ir5 Ti3 2.649298 1_555
Ir5 Ti5 2.660207 1_656
Ir5 Ti1 2.729527 1_555
Ir6 Ti2 2.657543 1_555
Ir6 Ti3 2.657550 1_555
