# generated using pymatgen
data_NdZn11
_symmetry_space_group_name_H-M   'P 1'
_cell_length_a   6.75408071
_cell_length_b   8.15131093
_cell_length_c   8.15131197
_cell_angle_alpha   80.21583497
_cell_angle_beta   65.59823567
_cell_angle_gamma   65.59822692
_symmetry_Int_Tables_number   1
_chemical_formula_structural   NdZn11
_chemical_formula_sum   'Nd2 Zn22'
_cell_volume   372.17223747
_cell_formula_units_Z   2
loop_
 _symmetry_equiv_pos_site_id
 _symmetry_equiv_pos_as_xyz
  1  'x, y, z'
loop_
 _atom_site_type_symbol
 _atom_site_label
 _atom_site_symmetry_multiplicity
 _atom_site_fract_x
 _atom_site_fract_y
 _atom_site_fract_z
 _atom_site_occupancy
  Nd  Nd0  1  0.62545230  0.74957096  0.24957096  1
  Nd  Nd1  1  0.37454770  0.25042904  0.75042904  1
  Zn  Zn0  1  0.55542923  0.57786078  0.66681066  1
  Zn  Zn1  1  0.79975633  0.92249404  0.83361329  1
  Zn  Zn2  1  0.87447625  0.25045020  0.75045020  1
  Zn  Zn3  1  0.12552375  0.74954980  0.24954980  1
  Zn  Zn4  1  -0.00000000  0.50000000  0.50000000  1
  Zn  Zn5  1  -0.00000000  -0.00000000  0.50000000  1
  Zn  Zn6  1  0.50000000  0.50000000  0.00000000  1
  Zn  Zn7  1  -0.00000000  -0.00000000  0.00000000  1
  Zn  Zn8  1  0.79975633  0.33361329  0.42249404  1
  Zn  Zn9  1  0.72209148  0.07761476  0.33350204  1
  Zn  Zn10  1  0.13317886  0.42288558  0.16653675  1
  Zn  Zn11  1  0.55542923  0.16681066  0.07786078  1
  Zn  Zn12  1  0.86682214  0.33346425  0.07711442  1
  Zn  Zn13  1  0.27790852  0.16649796  0.42238524  1
  Zn  Zn14  1  0.20024367  0.07750596  0.16638671  1
  Zn  Zn15  1  0.44457077  0.42213922  0.33318934  1
  Zn  Zn16  1  0.20024367  0.66638671  0.57750596  1
  Zn  Zn17  1  0.27790852  0.92238524  0.66649796  1
  Zn  Zn18  1  0.86682214  0.57711442  0.83346325  1
  Zn  Zn19  1  0.44457077  0.83318934  0.92213922  1
  Zn  Zn20  1  0.13317886  0.66653675  0.92288558  1
  Zn  Zn21  1  0.72209148  0.83350204  0.57761476  1
loop_
_geom_bond_atom_site_label_1
_geom_bond_atom_site_label_2
_geom_bond_distance
_geom_bond_site_symmetry_2
Nd0 Zn10 3.233940 1_655
Nd0 Zn20 3.233941 1_654
Nd0 Zn15 3.235508 1_555
Nd0 Zn19 3.235508 1_554
Nd0 Zn9 3.236841 1_565
Nd0 Zn21 3.236841 1_555
Nd0 Zn14 3.240810 1_565
Nd0 Zn16 3.240811 1_555
Nd0 Zn12 3.361010 1_555
Nd0 Zn18 3.361018 1_554
Nd0 Zn8 3.364162 1_555
Nd0 Zn1 3.364162 1_554
Nd0 Zn13 3.368624 1_565
Nd0 Zn17 3.368624 1_555
Nd0 Zn11 3.368957 1_565
Nd0 Zn0 3.368957 1_555
Nd0 Zn3 3.376700 1_555
Nd0 Zn3 3.377380 1_655
Nd1 Zn12 3.233936 1_456
Nd1 Zn18 3.233936 1_455
Nd1 Zn0 3.235508 1_555
Nd1 Zn11 3.235508 1_556
Nd1 Zn17 3.236841 1_545
Nd1 Zn13 3.236841 1_555
Nd1 Zn1 3.240810 1_545
Nd1 Zn8 3.240811 1_555
Nd1 Zn20 3.361018 1_555
Nd1 Zn10 3.361018 1_556
Nd1 Zn16 3.364162 1_555
Nd1 Zn14 3.364162 1_556
Nd1 Zn21 3.368624 1_545
Nd1 Zn9 3.368624 1_555
Nd1 Zn19 3.368957 1_545
Nd1 Zn15 3.368957 1_555
Nd1 Zn2 3.376700 1_555
Nd1 Zn2 3.377380 1_455
Zn0 Zn8 2.563316 1_555
Zn0 Zn4 2.571552 1_655
Zn0 Zn16 2.576750 1_555
Zn0 Zn6 2.586424 1_556
Zn0 Zn21 2.623917 1_555
Zn0 Zn20 2.627491 1_555
Zn0 Zn17 2.655596 1_555
Zn0 Zn2 2.841576 1_555
Zn0 Zn19 2.849727 1_555
Zn0 Zn18 2.935303 1_555
Zn1 Zn11 2.563316 1_566
Zn1 Zn7 2.565270 1_666
Zn1 Zn19 2.576750 1_555
Zn1 Zn5 2.589700 1_665
Zn1 Zn21 2.624707 1_555
Zn1 Zn20 2.628632 1_655
Zn1 Zn18 2.660471 1_555
Zn1 Zn2 2.841961 1_565
Zn1 Zn16 2.860508 1_655
Zn1 Zn17 2.940793 1_655
Zn2 Zn6 2.752622 1_556
Zn2 Zn7 2.758210 1_656
Zn2 Zn4 2.758211 1_655
Zn2 Zn5 2.758718 1_655
Zn2 Zn8 2.841961 1_555
Zn3 Zn6 2.752622 1_555
Zn3 Zn7 2.758210 1_565
Zn3 Zn4 2.758211 1_555
Zn3 Zn5 2.758718 1_565
Zn3 Zn9 2.846867 1_465
Zn4 Zn8 2.565270 1_455
Zn5 Zn9 2.568504 1_455
Zn5 Zn8 2.589700 1_455
Zn7 Zn9 2.588589 1_455
Zn8 Zn9 2.624707 1_555
Zn10 Zn20 2.558978 1_554
Zn10 Zn6 2.567867 1_555
Zn10 Zn12 2.578085 1_455
Zn10 Zn4 2.585720 1_555
Zn10 Zn11 2.627491 1_555
Zn10 Zn8 2.628632 1_455
Zn10 Zn14 2.660472 1_555
Zn10 Zn3 2.832042 1_555
Zn10 Zn13 2.861403 1_555
Zn10 Zn15 2.935297 1_555
Zn11 Zn7 2.571552 1_655
Zn11 Zn14 2.576750 1_555
Zn11 Zn6 2.586424 1_555
Zn11 Zn9 2.623917 1_555
Zn11 Zn13 2.655596 1_555
Zn11 Zn2 2.841577 1_554
Zn11 Zn15 2.849727 1_555
Zn11 Zn12 2.935310 1_555
Zn12 Zn18 2.558972 1_554
Zn12 Zn6 2.567872 1_555
Zn12 Zn7 2.585728 1_655
Zn12 Zn15 2.627495 1_555
Zn12 Zn14 2.628631 1_655
Zn12 Zn8 2.660470 1_555
Zn12 Zn2 2.832049 1_554
Zn12 Zn9 2.861412 1_555
Zn13 Zn17 2.563825 1_545
Zn13 Zn5 2.568504 1_555
Zn13 Zn9 2.576166 1_555
Zn13 Zn4 2.588589 1_555
Zn13 Zn15 2.623917 1_555
Zn13 Zn14 2.624707 1_555
Zn13 Zn2 2.846868 1_455
Zn13 Zn8 2.940793 1_455
Zn14 Zn19 2.563316 1_544
Zn14 Zn7 2.565270 1_555
Zn14 Zn5 2.589700 1_555
Zn14 Zn3 2.841961 1_545
Zn14 Zn8 2.860508 1_455
Zn14 Zn9 2.940793 1_455
Zn15 Zn16 2.563316 1_555
Zn15 Zn4 2.571552 1_555
Zn15 Zn8 2.576750 1_555
Zn15 Zn6 2.586424 1_555
Zn15 Zn9 2.655596 1_555
Zn15 Zn3 2.841576 1_555
Zn16 Zn4 2.565270 1_555
Zn16 Zn5 2.589700 1_565
Zn16 Zn17 2.624707 1_555
Zn16 Zn18 2.628628 1_455
Zn16 Zn20 2.660473 1_555
Zn16 Zn3 2.841961 1_555
Zn16 Zn21 2.940793 1_455
Zn17 Zn5 2.568504 1_565
Zn17 Zn21 2.576166 1_555
Zn17 Zn7 2.588589 1_566
Zn17 Zn19 2.623917 1_555
Zn17 Zn2 2.846867 1_465
Zn17 Zn20 2.861403 1_555
Zn18 Zn6 2.567873 1_556
Zn18 Zn20 2.578090 1_655
Zn18 Zn4 2.585721 1_655
Zn18 Zn19 2.627495 1_555
Zn18 Zn2 2.832045 1_555
Zn18 Zn21 2.861406 1_555
Zn19 Zn7 2.571552 1_566
Zn19 Zn6 2.586424 1_556
Zn19 Zn21 2.655596 1_555
Zn19 Zn3 2.841577 1_556
Zn19 Zn20 2.935297 1_555
Zn20 Zn6 2.567867 1_556
Zn20 Zn7 2.585719 1_566
Zn20 Zn3 2.832042 1_556
Zn21 Zn9 2.563825 1_565
Zn21 Zn5 2.568504 1_665
Zn21 Zn4 2.588589 1_655
Zn21 Zn3 2.846868 1_655
