# generated using pymatgen
data_CsCl(OF)2
_symmetry_space_group_name_H-M   'P 1'
_cell_length_a   5.38777352
_cell_length_b   7.25564282
_cell_length_c   12.00124187
_cell_angle_alpha   90.00000000
_cell_angle_beta   90.00000000
_cell_angle_gamma   90.00000000
_symmetry_Int_Tables_number   1
_chemical_formula_structural   CsCl(OF)2
_chemical_formula_sum   'Cs4 Cl4 O8 F8'
_cell_volume   469.14966946
_cell_formula_units_Z   4
loop_
 _symmetry_equiv_pos_site_id
 _symmetry_equiv_pos_as_xyz
  1  'x, y, z'
loop_
 _atom_site_type_symbol
 _atom_site_label
 _atom_site_symmetry_multiplicity
 _atom_site_fract_x
 _atom_site_fract_y
 _atom_site_fract_z
 _atom_site_occupancy
  Cs  Cs0  1  0.25000000  0.64002903  0.19563368  1
  Cs  Cs1  1  0.75000000  0.35997097  0.80436632  1
  Cs  Cs2  1  0.75000000  0.14002903  0.30436632  1
  Cs  Cs3  1  0.25000000  0.85997097  0.69563368  1
  Cl  Cl0  1  0.25000000  0.14776552  0.04433558  1
  Cl  Cl1  1  0.75000000  0.85223448  0.95566442  1
  Cl  Cl2  1  0.75000000  0.64776552  0.45566442  1
  Cl  Cl3  1  0.25000000  0.35223448  0.54433558  1
  O  O0  1  0.02825485  0.25528967  0.05660201  1
  O  O1  1  0.97174515  0.74471033  0.94339799  1
  O  O2  1  0.97174515  0.75528967  0.44339799  1
  O  O3  1  0.52825485  0.74471033  0.94339799  1
  O  O4  1  0.02825485  0.24471033  0.55660201  1
  O  O5  1  0.47174515  0.25528967  0.05660201  1
  O  O6  1  0.47174515  0.24471033  0.55660201  1
  O  O7  1  0.52825485  0.75528967  0.44339799  1
  F  F0  1  0.25000000  0.34909368  0.38360849  1
  F  F1  1  0.75000000  0.65090632  0.61639151  1
  F  F2  1  0.75000000  0.84909368  0.11639151  1
  F  F3  1  0.25000000  0.15090632  0.88360849  1
  F  F4  1  0.25000000  0.05549907  0.19973069  1
  F  F5  1  0.75000000  0.94450093  0.80026931  1
  F  F6  1  0.75000000  0.55549907  0.30026931  1
  F  F7  1  0.25000000  0.44450093  0.69973069  1
loop_
_geom_bond_atom_site_label_1
_geom_bond_atom_site_label_2
_geom_bond_distance
_geom_bond_site_symmetry_2
Cs0 F4 3.014903 1_565
Cs0 F6 3.034817 1_455
Cs0 F6 3.034817 1_555
Cs0 F0 3.089534 1_555
Cs0 F2 3.234566 1_555
Cs0 F2 3.234566 1_455
Cs0 O7 3.433436 1_555
Cs0 O2 3.433436 1_455
Cs0 O3 3.462368 1_554
Cs0 O1 3.462368 1_454
Cs0 O5 3.464687 1_555
Cs0 O0 3.464687 1_555
Cs1 F5 3.014903 1_545
Cs1 F7 3.034817 1_555
Cs1 F7 3.034817 1_655
Cs1 F1 3.089534 1_555
Cs1 F3 3.234566 1_555
Cs1 F3 3.234566 1_655
Cs1 O4 3.433436 1_655
Cs1 O6 3.433436 1_555
Cs1 O0 3.462368 1_656
Cs1 O5 3.462368 1_556
Cs1 O1 3.464687 1_555
Cs1 O3 3.464687 1_555
Cs2 F6 3.014903 1_555
Cs2 F4 3.034817 1_555
Cs2 F4 3.034817 1_655
Cs2 F2 3.089534 1_545
Cs2 F0 3.234566 1_555
Cs2 F0 3.234566 1_655
Cs2 O0 3.433436 1_655
Cs2 O5 3.433436 1_555
Cs2 O4 3.462368 1_655
Cs2 O6 3.462368 1_555
Cs2 O2 3.464687 1_545
Cs2 O7 3.464687 1_545
Cs3 F7 3.014903 1_555
Cs3 F5 3.034817 1_555
Cs3 F5 3.034817 1_455
Cs3 F3 3.089534 1_565
Cs3 F1 3.234566 1_455
Cs3 F1 3.234566 1_555
Cs3 O3 3.433436 1_555
Cs3 O1 3.433436 1_455
Cs3 O7 3.462368 1_555
Cs3 O2 3.462368 1_455
Cs3 O6 3.464687 1_565
Cs3 O4 3.464687 1_565
Cl0 O5 1.434453 1_555
Cl0 O0 1.434453 1_555
Cl0 F3 1.929059 1_554
Cl0 F4 1.981451 1_555
Cl1 O1 1.434453 1_555
Cl1 O3 1.434453 1_555
Cl1 F2 1.929059 1_556
Cl1 F5 1.981451 1_555
Cl2 O2 1.434453 1_555
Cl2 O7 1.434453 1_555
Cl2 F1 1.929059 1_555
Cl2 F6 1.981451 1_555
Cl3 O6 1.434453 1_555
Cl3 O4 1.434453 1_555
Cl3 F0 1.929059 1_555
Cl3 F7 1.981451 1_555
