# generated using pymatgen
data_Sr10InSi4Ge
_symmetry_space_group_name_H-M   'P 1'
_cell_length_a   8.17556847
_cell_length_b   9.91592844
_cell_length_c   8.17556847
_cell_angle_alpha   114.34589481
_cell_angle_beta   90.00000000
_cell_angle_gamma   114.34589481
_symmetry_Int_Tables_number   1
_chemical_formula_structural   Sr10InSi4Ge
_chemical_formula_sum   'Sr10 In1 Si4 Ge1'
_cell_volume   538.48949428
_cell_formula_units_Z   1
loop_
 _symmetry_equiv_pos_site_id
 _symmetry_equiv_pos_as_xyz
  1  'x, y, z'
loop_
 _atom_site_type_symbol
 _atom_site_label
 _atom_site_symmetry_multiplicity
 _atom_site_fract_x
 _atom_site_fract_y
 _atom_site_fract_z
 _atom_site_occupancy
  Sr  Sr0  1  0.98527659  0.97055319  0.98527659  1
  Sr  Sr1  1  0.51472341  0.02944681  0.51472341  1
  Sr  Sr2  1  0.52918531  0.72289925  0.67195741  1
  Sr  Sr3  1  0.19371494  0.72289925  0.05094284  1
  Sr  Sr4  1  0.67195741  0.72289925  0.19371494  1
  Sr  Sr5  1  0.05094284  0.72289925  0.52918531  1
  Sr  Sr6  1  0.44905716  0.27710075  0.30628506  1
  Sr  Sr7  1  0.82804259  0.27710075  0.97081469  1
  Sr  Sr8  1  0.30628506  0.27710075  0.82804259  1
  Sr  Sr9  1  0.97081469  0.27710075  0.44905716  1
  In  In0  1  0.75000000  0.50000000  0.75000000  1
  Si  Si0  1  0.89380477  0.00000000  0.60619523  1
  Si  Si1  1  0.10619523  0.00000000  0.39380477  1
  Si  Si2  1  0.60619523  1.00000000  0.10619523  1
  Si  Si3  1  0.39380477  0.00000000  0.89380477  1
  Ge  Ge0  1  0.25000000  0.50000000  0.25000000  1
loop_
_geom_bond_atom_site_label_1
_geom_bond_atom_site_label_2
_geom_bond_distance
_geom_bond_site_symmetry_2
In0 Sr7 3.606095 1_555
In0 Sr2 3.606095 1_555
In0 Sr5 3.606098 1_655
In0 Sr9 3.606098 1_555
In0 Sr4 3.606101 1_556
In0 Sr8 3.606101 1_555
In0 Sr3 3.606104 1_656
In0 Sr6 3.606104 1_555
In0 Sr0 3.790967 1_555
In0 Sr1 3.790967 1_555
Si0 Si1 2.455658 1_655
Si0 Sr8 3.234662 1_655
Si0 Sr4 3.234662 1_545
Si0 Sr9 3.328789 1_555
Si0 Sr5 3.328789 1_645
Si0 Sr1 3.343014 1_555
Si0 Sr0 3.343014 1_545
Si0 Sr7 3.345133 1_555
Si0 Sr2 3.345133 1_545
Si1 Sr9 3.234670 1_455
Si1 Sr5 3.234670 1_545
Si1 Sr4 3.328781 1_445
Si1 Sr8 3.328781 1_555
Si1 Sr0 3.343014 1_444
Si1 Sr1 3.343014 1_555
Si1 Sr6 3.345133 1_555
Si1 Sr3 3.345133 1_545
Si2 Si3 2.455658 1_564
Si2 Sr3 3.234664 1_555
Si2 Sr7 3.234668 1_564
Si2 Sr2 3.328783 1_554
Si2 Sr6 3.328787 1_565
Si2 Sr1 3.343014 1_565
Si2 Sr0 3.343014 1_554
Si2 Sr9 3.345129 1_565
Si2 Sr4 3.345137 1_555
Si3 Sr6 3.234664 1_556
Si3 Sr2 3.234668 1_545
Si3 Sr7 3.328783 1_555
Si3 Sr3 3.328787 1_546
Si3 Sr0 3.343014 1_445
Si3 Sr1 3.343014 1_555
Si3 Sr5 3.345129 1_545
Si3 Sr8 3.345137 1_555
Ge0 Sr6 3.398478 1_555
Ge0 Sr3 3.398478 1_555
Ge0 Sr5 3.398481 1_555
Ge0 Sr9 3.398481 1_455
Ge0 Sr4 3.398484 1_555
Ge0 Sr8 3.398484 1_554
Ge0 Sr2 3.398487 1_555
Ge0 Sr7 3.398487 1_454
