# generated using pymatgen
data_Nb3Ni2WN
_symmetry_space_group_name_H-M   'P 1'
_cell_length_a   8.15259027
_cell_length_b   8.15259083
_cell_length_c   8.15259186
_cell_angle_alpha   60.00000389
_cell_angle_beta   60.00000161
_cell_angle_gamma   60.00000336
_symmetry_Int_Tables_number   1
_chemical_formula_structural   Nb3Ni2WN
_chemical_formula_sum   'Nb12 Ni8 W4 N4'
_cell_volume   383.15279208
_cell_formula_units_Z   4
loop_
 _symmetry_equiv_pos_site_id
 _symmetry_equiv_pos_as_xyz
  1  'x, y, z'
loop_
 _atom_site_type_symbol
 _atom_site_label
 _atom_site_symmetry_multiplicity
 _atom_site_fract_x
 _atom_site_fract_y
 _atom_site_fract_z
 _atom_site_occupancy
  Nb  Nb0  1  0.81223821  0.81223821  0.18776179  1
  Nb  Nb1  1  0.18776179  0.18776179  0.81223821  1
  Nb  Nb2  1  0.81223821  0.18776179  0.81223821  1
  Nb  Nb3  1  0.18776179  0.81223821  0.18776179  1
  Nb  Nb4  1  0.18776179  0.81223821  0.81223821  1
  Nb  Nb5  1  0.81223821  0.18776179  0.18776179  1
  Nb  Nb6  1  0.43776179  0.43776179  0.06223821  1
  Nb  Nb7  1  0.06223821  0.06223821  0.43776179  1
  Nb  Nb8  1  0.43776179  0.06223821  0.43776179  1
  Nb  Nb9  1  0.06223821  0.43776179  0.06223821  1
  Nb  Nb10  1  0.06223821  0.43776179  0.43776179  1
  Nb  Nb11  1  0.43776179  0.06223821  0.06223821  1
  Ni  Ni0  1  0.73496618  0.42167894  0.42167894  1
  Ni  Ni1  1  0.42167894  0.73496618  0.42167894  1
  Ni  Ni2  1  0.42167894  0.42167894  0.73496618  1
  Ni  Ni3  1  0.42167894  0.42167894  0.42167894  1
  Ni  Ni4  1  0.51503382  0.82832106  0.82832106  1
  Ni  Ni5  1  0.82832106  0.51503382  0.82832106  1
  Ni  Ni6  1  0.82832106  0.82832106  0.51503382  1
  Ni  Ni7  1  0.82832106  0.82832106  0.82832106  1
  W  W0  1  0.12500000  0.62500000  0.62500000  1
  W  W1  1  0.62500000  0.12500000  0.62500000  1
  W  W2  1  0.62500000  0.62500000  0.12500000  1
  W  W3  1  0.62500000  0.62500000  0.62500000  1
  N  N0  1  0.62500000  0.12500000  0.12500000  1
  N  N1  1  0.12500000  0.62500000  0.12500000  1
  N  N2  1  0.12500000  0.12500000  0.62500000  1
  N  N3  1  0.12500000  0.12500000  0.12500000  1
loop_
_geom_bond_atom_site_label_1
_geom_bond_atom_site_label_2
_geom_bond_distance
_geom_bond_site_symmetry_2
Nb0 Ni6 2.805367 1_555
Nb0 Ni7 2.805391 1_554
Nb0 W2 2.968890 1_555
Nb0 W3 2.968890 1_555
Nb0 Ni1 2.984007 1_555
Nb0 Ni0 2.984007 1_555
Nb1 Ni5 2.805380 1_455
Nb1 Ni4 2.805380 1_545
Nb1 W1 2.968890 1_555
Nb1 W0 2.968890 1_555
Nb1 Ni3 2.984018 1_555
Nb1 Ni2 2.984028 1_555
Nb2 Ni5 2.805367 1_555
Nb2 Ni7 2.805391 1_545
Nb2 W1 2.968890 1_555
Nb2 W3 2.968890 1_555
Nb2 Ni2 2.984007 1_555
Nb2 Ni0 2.984008 1_555
Nb3 Ni6 2.805380 1_455
Nb3 Ni4 2.805380 1_554
Nb3 W2 2.968890 1_555
Nb3 W0 2.968890 1_555
Nb3 Ni3 2.984018 1_555
Nb3 Ni1 2.984028 1_555
Nb4 Ni4 2.805366 1_555
Nb4 Ni7 2.805391 1_455
Nb4 W3 2.968890 1_555
Nb4 W0 2.968890 1_555
Nb4 Ni2 2.984007 1_555
Nb4 Ni1 2.984008 1_555
Nb5 Ni6 2.805380 1_545
Nb5 Ni5 2.805380 1_554
Nb5 W2 2.968890 1_555
Nb5 W1 2.968890 1_555
Nb5 Ni3 2.984018 1_555
Nb5 Ni0 2.984028 1_555
Nb6 Ni2 2.805367 1_554
Nb6 Ni3 2.805391 1_555
Nb6 W2 2.968890 1_555
Nb6 W3 2.968890 1_554
Nb6 Ni5 2.984007 1_554
Nb6 Ni4 2.984007 1_554
Nb7 Ni1 2.805380 1_545
Nb7 Ni0 2.805380 1_455
Nb7 W1 2.968890 1_455
Nb7 W0 2.968890 1_545
Nb7 Ni7 2.984018 1_445
Nb7 Ni6 2.984028 1_445
Nb8 Ni1 2.805367 1_545
Nb8 Ni3 2.805391 1_555
Nb8 W1 2.968890 1_555
Nb8 W3 2.968890 1_545
Nb8 Ni6 2.984007 1_545
Nb8 Ni4 2.984008 1_545
Nb9 Ni2 2.805380 1_554
Nb9 Ni0 2.805380 1_455
Nb9 W2 2.968890 1_455
Nb9 W0 2.968890 1_554
Nb9 Ni7 2.984018 1_454
Nb9 Ni5 2.984028 1_454
Nb10 Ni0 2.805366 1_455
Nb10 Ni3 2.805391 1_555
Nb10 W3 2.968890 1_455
Nb10 W0 2.968890 1_555
Nb10 Ni6 2.984007 1_455
Nb10 Ni5 2.984008 1_455
Nb11 Ni2 2.805380 1_554
Nb11 Ni1 2.805380 1_545
Nb11 W2 2.968890 1_545
Nb11 W1 2.968890 1_554
Nb11 Ni7 2.984018 1_544
Nb11 Ni4 2.984028 1_544
Ni0 W3 2.464646 1_555
Ni0 W1 2.464666 1_555
Ni0 W2 2.464667 1_555
Ni0 Ni3 2.554103 1_555
Ni0 Ni1 2.554103 1_555
Ni0 Ni2 2.554103 1_555
Ni1 W3 2.464646 1_555
Ni1 W0 2.464666 1_555
Ni1 W2 2.464667 1_555
Ni1 Ni3 2.554103 1_555
Ni1 Ni2 2.554103 1_555
Ni2 W3 2.464646 1_555
Ni2 W0 2.464666 1_555
Ni2 W1 2.464667 1_555
Ni2 Ni3 2.554103 1_555
Ni3 W0 2.464654 1_555
Ni3 W2 2.464654 1_555
Ni3 W1 2.464654 1_555
Ni4 W3 2.464646 1_555
Ni4 W1 2.464666 1_565
Ni4 W2 2.464667 1_556
Ni4 Ni7 2.554103 1_555
Ni4 Ni5 2.554103 1_555
Ni4 Ni6 2.554103 1_555
Ni5 W3 2.464646 1_555
Ni5 W0 2.464666 1_655
Ni5 W2 2.464667 1_556
Ni5 Ni7 2.554103 1_555
Ni5 Ni6 2.554103 1_555
Ni6 W3 2.464646 1_555
Ni6 W0 2.464666 1_655
Ni6 W1 2.464667 1_565
Ni6 Ni7 2.554103 1_555
Ni7 W0 2.464654 1_655
Ni7 W2 2.464654 1_556
Ni7 W1 2.464654 1_565
N0 Nb5 2.162790 1_555
N0 Nb11 2.162790 1_555
N0 Nb6 2.162790 1_555
N0 Nb0 2.162790 1_545
N0 Nb8 2.162790 1_555
N0 Nb2 2.162790 1_554
N1 Nb6 2.162790 1_555
N1 Nb0 2.162790 1_455
N1 Nb3 2.162790 1_555
N1 Nb9 2.162790 1_555
N1 Nb10 2.162790 1_555
N1 Nb4 2.162790 1_554
N2 Nb2 2.162790 1_455
N2 Nb8 2.162790 1_555
N2 Nb1 2.162790 1_555
N2 Nb7 2.162790 1_555
N2 Nb10 2.162790 1_555
N2 Nb4 2.162790 1_545
N3 Nb11 2.162790 1_555
N3 Nb5 2.162790 1_455
N3 Nb9 2.162790 1_555
N3 Nb3 2.162790 1_545
N3 Nb7 2.162790 1_555
N3 Nb1 2.162790 1_554
