# generated using pymatgen
data_TaCo3H
_symmetry_space_group_name_H-M   'P 1'
_cell_length_a   3.64673283
_cell_length_b   3.64673283
_cell_length_c   3.64673283
_cell_angle_alpha   90.00000000
_cell_angle_beta   90.00000000
_cell_angle_gamma   90.00000000
_symmetry_Int_Tables_number   1
_chemical_formula_structural   TaCo3H
_chemical_formula_sum   'Ta1 Co3 H1'
_cell_volume   48.49666118
_cell_formula_units_Z   1
loop_
 _symmetry_equiv_pos_site_id
 _symmetry_equiv_pos_as_xyz
  1  'x, y, z'
loop_
 _atom_site_type_symbol
 _atom_site_label
 _atom_site_symmetry_multiplicity
 _atom_site_fract_x
 _atom_site_fract_y
 _atom_site_fract_z
 _atom_site_occupancy
  Ta  Ta0  1  0.00000000  0.00000000  0.00000000  1
  Co  Co0  1  0.00000000  0.50000000  0.50000000  1
  Co  Co1  1  0.50000000  0.50000000  0.00000000  1
  Co  Co2  1  0.50000000  0.00000000  0.50000000  1
  H  H0  1  0.50000000  0.50000000  0.50000000  1
loop_
_geom_bond_atom_site_label_1
_geom_bond_atom_site_label_2
_geom_bond_distance
_geom_bond_site_symmetry_2
Co0 H0 1.823366 1_555
Co0 H0 1.823366 1_455
Co0 Ta0 2.578630 1_565
Co0 Ta0 2.578630 1_556
Co0 Ta0 2.578630 1_555
Co0 Ta0 2.578630 1_566
Co1 H0 1.823366 1_555
Co1 H0 1.823366 1_554
Co1 Ta0 2.578630 1_565
Co1 Ta0 2.578630 1_555
Co1 Ta0 2.578630 1_665
Co1 Ta0 2.578630 1_655
Co2 H0 1.823366 1_555
Co2 H0 1.823366 1_545
Co2 Ta0 2.578630 1_556
Co2 Ta0 2.578630 1_555
Co2 Ta0 2.578630 1_656
Co2 Ta0 2.578630 1_655
