# generated using pymatgen
data_Sc2AlSi13Ir6
_symmetry_space_group_name_H-M   'P 1'
_cell_length_a   7.91463738
_cell_length_b   7.91463708
_cell_length_c   7.91463696
_cell_angle_alpha   57.18354002
_cell_angle_beta   57.18354147
_cell_angle_gamma   57.18353739
_symmetry_Int_Tables_number   1
_chemical_formula_structural   Sc2AlSi13Ir6
_chemical_formula_sum   'Sc2 Al1 Si13 Ir6'
_cell_volume   327.82690496
_cell_formula_units_Z   1
loop_
 _symmetry_equiv_pos_site_id
 _symmetry_equiv_pos_as_xyz
  1  'x, y, z'
loop_
 _atom_site_type_symbol
 _atom_site_label
 _atom_site_symmetry_multiplicity
 _atom_site_fract_x
 _atom_site_fract_y
 _atom_site_fract_z
 _atom_site_occupancy
  Sc  Sc0  1  0.99935793  0.99935793  0.99935793  1
  Sc  Sc1  1  0.50064207  0.50064207  0.50064207  1
  Al  Al0  1  0.75000000  0.75000000  0.75000000  1
  Si  Si0  1  0.25000000  0.25000000  0.25000000  1
  Si  Si1  1  0.85006421  0.06323660  0.67253888  1
  Si  Si2  1  0.67253888  0.85006421  0.06323660  1
  Si  Si3  1  0.06323660  0.67253888  0.85006421  1
  Si  Si4  1  0.64993579  0.82746112  0.43676340  1
  Si  Si5  1  0.43676340  0.64993579  0.82746112  1
  Si  Si6  1  0.82746112  0.43676340  0.64993579  1
  Si  Si7  1  0.17107564  0.56059819  0.35642519  1
  Si  Si8  1  0.56059819  0.35642519  0.17107564  1
  Si  Si9  1  0.35642519  0.17107564  0.56059819  1
  Si  Si10  1  0.93940181  0.32892436  0.14357481  1
  Si  Si11  1  0.32892436  0.14357481  0.93940181  1
  Si  Si12  1  0.14357481  0.93940181  0.32892436  1
  Ir  Ir0  1  0.08335536  0.41664464  0.75000000  1
  Ir  Ir1  1  0.25000000  0.92542461  0.57457539  1
  Ir  Ir2  1  0.57457539  0.25000000  0.92542461  1
  Ir  Ir3  1  0.92542461  0.57457539  0.25000000  1
  Ir  Ir4  1  0.41664464  0.75000000  0.08335536  1
  Ir  Ir5  1  0.75000000  0.08335536  0.41664464  1
loop_
_geom_bond_atom_site_label_1
_geom_bond_atom_site_label_2
_geom_bond_distance
_geom_bond_site_symmetry_2
Sc0 Si3 3.096842 1_655
Sc0 Si1 3.096842 1_565
Sc0 Si2 3.096842 1_556
Sc0 Si10 3.103249 1_566
Sc0 Si12 3.103249 1_656
Sc0 Si11 3.103250 1_665
Sc0 Si6 3.174871 1_565
Sc0 Si5 3.174871 1_655
Sc0 Si4 3.174872 1_556
Sc0 Si7 3.209853 1_656
Sc0 Si8 3.209853 1_566
Sc0 Si9 3.209853 1_665
Sc1 Si5 3.096842 1_555
Sc1 Si6 3.096842 1_555
Sc1 Si4 3.096842 1_555
Sc1 Si8 3.103249 1_555
Sc1 Si7 3.103249 1_555
Sc1 Si9 3.103250 1_555
Sc1 Si1 3.174871 1_555
Sc1 Si3 3.174871 1_555
Sc1 Si2 3.174871 1_555
Sc1 Si12 3.209853 1_555
Sc1 Si10 3.209853 1_555
Sc1 Si11 3.209853 1_555
Al0 Ir0 2.525283 1_655
Al0 Ir5 2.525283 1_565
Al0 Ir4 2.525283 1_556
Al0 Si2 2.665282 1_556
Al0 Si4 2.665282 1_555
Al0 Si6 2.665282 1_555
Al0 Si3 2.665282 1_655
Al0 Si1 2.665282 1_565
Al0 Si5 2.665282 1_555
Si1 Si3 2.566704 1_645
Si1 Si2 2.566704 1_546
Si1 Si12 2.706800 1_645
Si1 Si6 2.773461 1_555
Si2 Si3 2.566704 1_654
Si2 Si4 2.773461 1_555
Si3 Si5 2.773461 1_555
Si4 Si6 2.566704 1_555
Si4 Si5 2.566704 1_555
Si4 Si9 2.706800 1_565
Si5 Si6 2.566704 1_555
Si5 Si8 2.706800 1_556
Si6 Si7 2.706800 1_655
Si10 Si3 2.706800 1_654
Si11 Si2 2.706800 1_546
Ir0 Si11 2.406037 1_555
Ir0 Si9 2.406037 1_555
Ir0 Si3 2.450873 1_555
Ir0 Si6 2.450873 1_455
Ir0 Si7 2.479881 1_555
Ir0 Si10 2.479881 1_456
Ir0 Sc0 3.022815 1_445
Ir0 Sc1 3.022815 1_555
Ir1 Si5 2.434803 1_555
Ir1 Si3 2.434803 1_555
Ir1 Si12 2.437773 1_555
Ir1 Si9 2.437774 1_565
Ir1 Si0 2.458772 1_565
Ir1 Si1 2.514869 1_465
Ir1 Si4 2.514869 1_555
Ir1 Sc1 3.037424 1_555
Ir1 Sc0 3.037424 1_455
Ir2 Si1 2.434803 1_555
Ir2 Si6 2.434803 1_555
Ir2 Si8 2.437773 1_556
Ir2 Si11 2.437774 1_555
Ir2 Si0 2.458772 1_556
Ir2 Si5 2.514869 1_555
Ir2 Si2 2.514869 1_546
Ir2 Sc1 3.037424 1_555
Ir2 Sc0 3.037424 1_545
Ir3 Si2 2.434803 1_555
Ir3 Si4 2.434803 1_555
Ir3 Si10 2.437773 1_555
Ir3 Si7 2.437774 1_655
Ir3 Si0 2.458772 1_655
Ir3 Si6 2.514869 1_555
Ir3 Si3 2.514869 1_654
Ir3 Sc0 3.037424 1_554
Ir3 Sc1 3.037425 1_555
Ir4 Si12 2.406037 1_555
Ir4 Si7 2.406037 1_555
Ir4 Si5 2.450873 1_554
Ir4 Si2 2.450873 1_555
Ir4 Si8 2.479881 1_555
Ir4 Si11 2.479881 1_564
Ir4 Sc1 3.022815 1_555
Ir4 Sc0 3.022815 1_454
Ir5 Si8 2.406037 1_555
Ir5 Si10 2.406037 1_555
Ir5 Si1 2.450873 1_555
Ir5 Si4 2.450873 1_545
Ir5 Si12 2.479881 1_645
Ir5 Si9 2.479881 1_555
Ir5 Sc1 3.022815 1_555
Ir5 Sc0 3.022815 1_544
