# generated using pymatgen
data_MnAg2(PS3)2
_symmetry_space_group_name_H-M   'P 1'
_cell_length_a   6.33057645
_cell_length_b   6.33057718
_cell_length_c   13.65966263
_cell_angle_alpha   85.63139983
_cell_angle_beta   85.63139856
_cell_angle_gamma   119.91318077
_symmetry_Int_Tables_number   1
_chemical_formula_structural   MnAg2(PS3)2
_chemical_formula_sum   'Mn2 Ag4 P4 S12'
_cell_volume   468.97616312
_cell_formula_units_Z   2
loop_
 _symmetry_equiv_pos_site_id
 _symmetry_equiv_pos_as_xyz
  1  'x, y, z'
loop_
 _atom_site_type_symbol
 _atom_site_label
 _atom_site_symmetry_multiplicity
 _atom_site_fract_x
 _atom_site_fract_y
 _atom_site_fract_z
 _atom_site_occupancy
  Mn  Mn0  1  0.42234041  0.57765959  0.25000000  1
  Mn  Mn1  1  0.57765959  0.42234041  0.75000000  1
  Ag  Ag0  1  0.04737936  0.87162138  0.36247885  1
  Ag  Ag1  1  0.95262064  0.12837862  0.63752115  1
  Ag  Ag2  1  0.12837862  0.95262064  0.13752115  1
  Ag  Ag3  1  0.87162138  0.04737936  0.86247885  1
  P  P0  1  0.21568374  0.72511191  0.83312641  1
  P  P1  1  0.78431626  0.27488809  0.16687359  1
  P  P2  1  0.27488809  0.78431626  0.66687359  1
  P  P3  1  0.72511191  0.21568374  0.33312641  1
  S  S0  1  0.47680248  0.65434392  0.87634042  1
  S  S1  1  0.52319752  0.34565608  0.12365958  1
  S  S2  1  0.34565608  0.52319752  0.62365958  1
  S  S3  1  0.65434392  0.47680248  0.37634042  1
  S  S4  1  0.04093076  0.25591397  0.37835120  1
  S  S5  1  0.95906924  0.74408603  0.62164880  1
  S  S6  1  0.74408603  0.95906924  0.12164880  1
  S  S7  1  0.25591397  0.04093076  0.87835120  1
  S  S8  1  0.12976039  0.56500063  0.12542611  1
  S  S9  1  0.87023961  0.43499937  0.87457389  1
  S  S10  1  0.43499937  0.87023961  0.37457389  1
  S  S11  1  0.56500063  0.12976039  0.62542611  1
loop_
_geom_bond_atom_site_label_1
_geom_bond_atom_site_label_2
_geom_bond_distance
_geom_bond_site_symmetry_2
Mn0 S8 2.585639 1_555
Mn0 S10 2.585639 1_555
Mn0 S3 2.587785 1_555
Mn0 S1 2.587785 1_555
Mn0 S4 2.637894 1_555
Mn0 S6 2.637894 1_555
Mn1 S9 2.585639 1_555
Mn1 S11 2.585639 1_555
Mn1 S2 2.587785 1_555
Mn1 S0 2.587785 1_555
Mn1 S5 2.637894 1_555
Mn1 S7 2.637894 1_555
Ag0 S3 2.475354 1_455
Ag0 S10 2.476236 1_555
Ag0 S4 2.478956 1_565
Ag1 S2 2.475354 1_655
Ag1 S11 2.476236 1_555
Ag1 S5 2.478956 1_545
Ag2 S1 2.475354 1_565
Ag2 S8 2.476236 1_555
Ag2 S6 2.478955 1_455
Ag3 S0 2.475354 1_545
Ag3 S9 2.476236 1_555
Ag3 S7 2.478955 1_655
P0 S9 2.030540 1_455
P0 S0 2.031907 1_555
P0 S7 2.036670 1_565
P0 P2 2.244717 1_555
P1 S8 2.030540 1_655
P1 S1 2.031907 1_555
P1 S6 2.036670 1_545
P1 P3 2.244717 1_555
P2 S11 2.030540 1_565
P2 S2 2.031907 1_555
P2 S5 2.036670 1_455
P3 S10 2.030540 1_545
P3 S3 2.031907 1_555
P3 S4 2.036670 1_655
