# generated using pymatgen
data_MnZn(AuO2)2
_symmetry_space_group_name_H-M   'P 1'
_cell_length_a   5.15490022
_cell_length_b   6.10534061
_cell_length_c   7.04030118
_cell_angle_alpha   64.31127436
_cell_angle_beta   76.25386228
_cell_angle_gamma   89.99898747
_symmetry_Int_Tables_number   1
_chemical_formula_structural   MnZn(AuO2)2
_chemical_formula_sum   'Mn2 Zn2 Au4 O8'
_cell_volume   192.60921848
_cell_formula_units_Z   2
loop_
 _symmetry_equiv_pos_site_id
 _symmetry_equiv_pos_as_xyz
  1  'x, y, z'
loop_
 _atom_site_type_symbol
 _atom_site_label
 _atom_site_symmetry_multiplicity
 _atom_site_fract_x
 _atom_site_fract_y
 _atom_site_fract_z
 _atom_site_occupancy
  Mn  Mn0  1  0.50005402  0.24698247  0.99999288  1
  Mn  Mn1  1  0.99999314  0.00290782  0.99995671  1
  Zn  Zn0  1  0.49995584  0.74429971  0.99999106  1
  Zn  Zn1  1  0.00003924  0.50551541  0.00007305  1
  Au  Au0  1  0.00557772  0.00309676  0.50024249  1
  Au  Au1  1  0.99436372  0.50335410  0.49986048  1
  Au  Au2  1  0.50601200  0.74682872  0.50020023  1
  Au  Au3  1  0.49387599  0.24726904  0.49976217  1
  O  O0  1  0.89980739  0.85662336  0.83479316  1
  O  O1  1  0.87502852  0.31384158  0.83720715  1
  O  O2  1  0.39991278  0.55843410  0.83471707  1
  O  O3  1  0.37499898  0.09893811  0.83713872  1
  O  O4  1  0.12499798  0.15108893  0.16280449  1
  O  O5  1  0.10018763  0.69148926  0.16523907  1
  O  O6  1  0.62502208  0.93606074  0.16279668  1
  O  O7  1  0.60017096  0.39326987  0.16522459  1
loop_
_geom_bond_atom_site_label_1
_geom_bond_atom_site_label_2
_geom_bond_distance
_geom_bond_site_symmetry_2
Mn0 O7 1.898247 1_556
Mn0 O2 1.898260 1_555
Mn0 O1 1.938569 1_555
Mn0 O4 1.938976 1_556
Mn0 O6 1.948524 1_546
Mn0 O3 1.948543 1_555
Mn1 O0 1.897959 1_545
Mn1 O5 1.898237 1_646
Mn1 O6 1.938658 1_546
Mn1 O3 1.938803 1_655
Mn1 O1 1.948476 1_555
Mn1 O4 1.948982 1_656
Au0 O0 2.051397 1_445
Au0 O4 2.069586 1_555
Au1 O5 2.051872 1_655
Au1 O1 2.069099 1_555
Au2 O2 2.051342 1_555
Au2 O6 2.069288 1_555
Au3 O7 2.051477 1_555
Au3 O3 2.069010 1_555
O0 Zn0 2.059315 1_555
O0 Zn1 2.083098 1_656
O1 Zn1 2.148014 1_656
O2 Zn1 2.059647 1_556
O2 Zn0 2.082671 1_555
O3 Zn0 2.148539 1_545
O4 Zn1 2.147395 1_555
O5 Zn0 2.059038 1_554
O5 Zn1 2.082749 1_555
O6 Zn0 2.148192 1_554
O7 Zn1 2.059288 1_655
O7 Zn0 2.082634 1_554
