# generated using pymatgen
data_Y10Al4IrRu5
_symmetry_space_group_name_H-M   'P 1'
_cell_length_a   8.32996085
_cell_length_b   8.34719455
_cell_length_c   8.34719443
_cell_angle_alpha   109.50164157
_cell_angle_beta   109.72274012
_cell_angle_gamma   109.27335595
_symmetry_Int_Tables_number   1
_chemical_formula_structural   Y10Al4IrRu5
_chemical_formula_sum   'Y10 Al4 Ir1 Ru5'
_cell_volume   446.31931369
_cell_formula_units_Z   1
loop_
 _symmetry_equiv_pos_site_id
 _symmetry_equiv_pos_as_xyz
  1  'x, y, z'
loop_
 _atom_site_type_symbol
 _atom_site_label
 _atom_site_symmetry_multiplicity
 _atom_site_fract_x
 _atom_site_fract_y
 _atom_site_fract_z
 _atom_site_occupancy
  Y  Y0  1  0.25000000  0.68117401  0.43117401  1
  Y  Y1  1  0.75000000  0.81908828  0.06908828  1
  Y  Y2  1  0.43370316  0.25174429  0.67956301  1
  Y  Y3  1  0.67967308  0.43042244  0.24908300  1
  Y  Y4  1  0.06629684  0.74585985  0.81804112  1
  Y  Y5  1  0.82032692  0.06940993  0.75074937  1
  Y  Y6  1  0.21256648  0.21487244  0.21492588  1
  Y  Y7  1  0.50019818  0.99926684  0.28720474  1
  Y  Y8  1  0.28743352  0.50236039  0.00230595  1
  Y  Y9  1  0.99980182  0.28700556  0.49906866  1
  Al  Al0  1  0.58728522  0.58780154  0.58714949  1
  Al  Al1  1  0.49877776  0.99816081  0.91120108  1
  Al  Al2  1  0.91271478  0.49986528  0.00051632  1
  Al  Al3  1  0.00122224  0.91242332  0.49938305  1
  Ir  Ir0  1  0.25000000  0.12050536  0.87050536  1
  Ru  Ru0  1  0.75000000  0.37914511  0.62914511  1
  Ru  Ru1  1  0.86803957  0.24989798  0.11872294  1
  Ru  Ru2  1  0.12095288  0.87157605  0.24969105  1
  Ru  Ru3  1  0.63195943  0.75068237  0.38185641  1
  Ru  Ru4  1  0.37904712  0.62873617  0.75062317  1
loop_
_geom_bond_atom_site_label_1
_geom_bond_atom_site_label_2
_geom_bond_distance
_geom_bond_site_symmetry_2
Al0 Ru3 2.564263 1_555
Al0 Ru0 2.576605 1_555
Al0 Ru4 2.581696 1_555
Al0 Y6 3.109526 1_555
Al0 Y2 3.137237 1_555
Al0 Y0 3.138545 1_555
Al0 Y3 3.152656 1_555
Al0 Y4 3.318586 1_655
Al0 Y1 3.339839 1_556
Al0 Y5 3.344835 1_565
Al1 Ru1 2.565953 1_566
Al1 Ir0 2.570283 1_565
Al1 Ru4 2.570615 1_555
Al1 Y7 3.131517 1_556
Al1 Y1 3.141537 1_556
Al1 Y3 3.160999 1_566
Al1 Y4 3.166314 1_555
Al1 Y0 3.323836 1_555
Al1 Y5 3.350114 1_565
Al1 Y2 3.360872 1_565
Al2 Ru1 2.564263 1_555
Al2 Ru0 2.576604 1_554
Al2 Ru2 2.581693 1_655
Al2 Y8 3.109526 1_655
Al2 Y4 3.137231 1_654
Al2 Y0 3.138546 1_655
Al2 Y5 3.152663 1_554
Al2 Y2 3.318585 1_554
Al2 Y1 3.339831 1_555
Al2 Y3 3.344837 1_555
Al3 Ru3 2.565957 1_455
Al3 Ir0 2.570283 1_565
Al3 Ru2 2.570600 1_555
Al3 Y9 3.131509 1_465
Al3 Y1 3.141537 1_455
Al3 Y5 3.160999 1_465
Al3 Y2 3.166314 1_565
Al3 Y0 3.323836 1_555
Al3 Y3 3.350114 1_455
Al3 Y4 3.360872 1_555
Ir0 Y2 2.790566 1_555
Ir0 Y4 2.790566 1_545
Ir0 Y6 2.870230 1_556
Ir0 Y8 2.870238 1_556
Ir0 Y3 3.206921 1_556
Ir0 Y5 3.206921 1_455
Ru0 Y4 2.728993 1_655
Ru0 Y2 2.728993 1_555
Ru0 Y7 2.850289 1_545
Ru0 Y9 2.850292 1_555
Ru0 Y3 3.226239 1_555
Ru0 Y5 3.226239 1_555
Ru1 Y3 2.745037 1_555
Ru1 Y5 2.748319 1_554
Ru1 Y6 2.849881 1_655
Ru1 Y9 2.854330 1_555
Ru1 Y0 3.233294 1_655
Ru1 Y1 3.235142 1_545
Ru2 Y1 2.744825 1_455
Ru2 Y0 2.759088 1_555
Ru2 Y7 2.846169 1_555
Ru2 Y6 2.852907 1_565
Ru2 Y4 3.216139 1_554
Ru2 Y2 3.219171 1_565
Ru3 Y5 2.745049 1_565
Ru3 Y3 2.748314 1_555
Ru3 Y8 2.849869 1_555
Ru3 Y7 2.854324 1_555
Ru3 Y0 3.233296 1_555
Ru3 Y1 3.235133 1_555
Ru4 Y1 2.744823 1_556
Ru4 Y0 2.759098 1_555
Ru4 Y9 2.846166 1_455
Ru4 Y8 2.852894 1_556
Ru4 Y2 3.216123 1_555
Ru4 Y4 3.219180 1_555
