# generated using pymatgen
data_Lu3RuI12
_symmetry_space_group_name_H-M   'P 1'
_cell_length_a   7.13398482
_cell_length_b   7.47656219
_cell_length_c   13.00440484
_cell_angle_alpha   90.00000000
_cell_angle_beta   90.00000000
_cell_angle_gamma   90.21429518
_symmetry_Int_Tables_number   1
_chemical_formula_structural   Lu3RuI12
_chemical_formula_sum   'Lu3 Ru1 I12'
_cell_volume   693.61994762
_cell_formula_units_Z   1
loop_
 _symmetry_equiv_pos_site_id
 _symmetry_equiv_pos_as_xyz
  1  'x, y, z'
loop_
 _atom_site_type_symbol
 _atom_site_label
 _atom_site_symmetry_multiplicity
 _atom_site_fract_x
 _atom_site_fract_y
 _atom_site_fract_z
 _atom_site_occupancy
  Lu  Lu0  1  0.25000295  0.25025419  0.50000000  1
  Lu  Lu1  1  0.74981023  0.25020881  0.50000000  1
  Lu  Lu2  1  0.75078912  0.74999549  0.00000000  1
  Ru  Ru0  1  0.25009342  0.74976201  0.00000000  1
  I  I0  1  0.50030116  0.40704487  0.34159633  1
  I  I1  1  0.02658506  0.60189229  0.85146652  1
  I  I2  1  0.02658506  0.60189229  0.14853348  1
  I  I3  1  0.50030116  0.40704487  0.65840367  1
  I  I4  1  0.47357464  0.89769539  0.85168783  1
  I  I5  1  0.99931923  0.09277855  0.34186834  1
  I  I6  1  0.99931923  0.09277855  0.65813166  1
  I  I7  1  0.47357464  0.89769539  0.14831217  1
  I  I8  1  0.49903236  0.93305086  0.50000000  1
  I  I9  1  0.02207636  0.04871303  0.00000000  1
  I  I10  1  0.47803504  0.45200321  0.00000000  1
  I  I11  1  0.00060235  0.56718919  0.50000000  1
loop_
_geom_bond_atom_site_label_1
_geom_bond_atom_site_label_2
_geom_bond_distance
_geom_bond_site_symmetry_2
I0 Lu0 2.964853 1_555
I0 Lu1 2.966875 1_555
I1 Ru0 2.735426 1_556
I1 Lu2 2.973988 1_456
I2 Ru0 2.735426 1_555
I2 Lu2 2.973988 1_455
I3 Lu0 2.964853 1_555
I3 Lu1 2.966875 1_555
I4 Ru0 2.733473 1_556
I4 Lu2 2.977716 1_556
I5 Lu0 2.966068 1_655
I5 Lu1 2.966189 1_555
I6 Lu0 2.966068 1_655
I6 Lu1 2.966189 1_555
I7 Ru0 2.733473 1_555
I7 Lu2 2.977716 1_555
I8 Lu1 2.965094 1_565
I8 Lu0 2.968529 1_565
I9 Ru0 2.769303 1_545
I9 Lu2 2.949791 1_445
I10 Ru0 2.761776 1_555
I10 Lu2 2.952558 1_555
I11 Lu1 2.964096 1_455
I11 Lu0 2.968517 1_555
