# generated using pymatgen
data_Be(SiMo2)5
_symmetry_space_group_name_H-M   'P 1'
_cell_length_a   4.86671613
_cell_length_b   7.21194363
_cell_length_c   7.21195124
_cell_angle_alpha   96.58458903
_cell_angle_beta   109.73115494
_cell_angle_gamma   70.26887616
_symmetry_Int_Tables_number   1
_chemical_formula_structural   Be(SiMo2)5
_chemical_formula_sum   'Be1 Si5 Mo10'
_cell_volume   224.27728687
_cell_formula_units_Z   1
loop_
 _symmetry_equiv_pos_site_id
 _symmetry_equiv_pos_as_xyz
  1  'x, y, z'
loop_
 _atom_site_type_symbol
 _atom_site_label
 _atom_site_symmetry_multiplicity
 _atom_site_fract_x
 _atom_site_fract_y
 _atom_site_fract_z
 _atom_site_occupancy
  Be  Be0  1  0.24999990  0.99995734  0.99995767  1
  Si  Si0  1  0.33173336  0.50008636  0.16345497  1
  Si  Si1  1  0.66826991  0.49990542  0.83647759  1
  Si  Si2  1  0.83173157  0.83647793  0.49990500  1
  Si  Si3  1  0.16826703  0.16345396  0.50008670  1
  Si  Si4  1  0.74999964  0.00004340  0.00004295  1
  Mo  Mo0  1  0.42139725  0.85309077  0.70199430  1
  Mo  Mo1  1  0.57362039  0.14695570  0.29821458  1
  Mo  Mo2  1  0.92637872  0.29821565  0.14695568  1
  Mo  Mo3  1  0.07860408  0.70199297  0.85309230  1
  Mo  Mo4  1  0.71998969  0.70182681  0.14665937  1
  Mo  Mo5  1  0.27496083  0.29802369  0.85329920  1
  Mo  Mo6  1  0.78000977  0.14665978  0.70182696  1
  Mo  Mo7  1  0.22503848  0.85329811  0.29802140  1
  Mo  Mo8  1  0.24999970  0.49998946  0.49998904  1
  Mo  Mo9  1  0.74999968  0.50002265  0.50002230  1
loop_
_geom_bond_atom_site_label_1
_geom_bond_atom_site_label_2
_geom_bond_distance
_geom_bond_site_symmetry_2
Be0 Si4 2.433358 1_466
Be0 Si4 2.433359 1_566
Be0 Mo3 2.554836 1_555
Be0 Mo0 2.554837 1_555
Be0 Mo7 2.557122 1_556
Be0 Mo5 2.557134 1_565
Be0 Mo4 2.557562 1_556
Be0 Mo6 2.557565 1_465
Be0 Mo1 2.558952 1_566
Be0 Mo2 2.558958 1_466
Mo0 Si3 2.514454 1_565
Mo0 Si1 2.566238 1_555
Mo0 Si4 2.569430 1_566
Mo0 Si2 2.782433 1_455
Mo0 Si2 2.808931 1_555
Mo1 Si2 2.514271 1_545
Mo1 Si0 2.566544 1_555
Mo1 Si4 2.567757 1_555
Mo1 Si3 2.786852 1_555
Mo1 Si3 2.802991 1_655
Mo2 Si1 2.514272 1_554
Mo2 Si3 2.566553 1_655
Mo2 Si4 2.567759 1_555
Mo2 Si0 2.786846 1_655
Mo2 Si0 2.802987 1_555
Mo3 Si0 2.514448 1_556
Mo3 Si2 2.566256 1_455
Mo3 Si4 2.569435 1_466
Mo3 Si1 2.782436 1_555
Mo3 Si1 2.808916 1_455
Mo4 Si1 2.511661 1_554
Mo4 Si2 2.565682 1_555
Mo4 Si4 2.569616 1_565
Mo4 Si0 2.784437 1_555
Mo4 Si0 2.804869 1_655
Mo5 Si0 2.512042 1_556
Mo5 Si3 2.565283 1_555
Mo5 Si4 2.568656 1_556
Mo5 Si1 2.783584 1_455
Mo5 Si1 2.806680 1_555
Mo6 Si2 2.511663 1_545
Mo6 Si1 2.565680 1_555
Mo6 Si4 2.569614 1_556
Mo6 Si3 2.784438 1_655
Mo6 Si3 2.804867 1_555
Mo7 Si3 2.512052 1_565
Mo7 Si0 2.565269 1_555
Mo7 Si4 2.568651 1_465
Mo7 Si2 2.783598 1_555
Mo7 Si2 2.806679 1_455
Mo8 Mo9 2.433358 1_555
Mo8 Mo9 2.433358 1_455
Mo8 Si2 2.587806 1_455
Mo8 Si1 2.587812 1_555
Mo8 Si0 2.588692 1_555
Mo8 Si3 2.588698 1_555
Mo9 Si1 2.588144 1_555
Mo9 Si2 2.588146 1_555
Mo9 Si0 2.588208 1_555
Mo9 Si3 2.588215 1_655
