# generated using pymatgen
data_Ca10FeTc3N14
_symmetry_space_group_name_H-M   'P 1'
_cell_length_a   6.09351989
_cell_length_b   8.82119795
_cell_length_c   8.87650119
_cell_angle_alpha   116.53483402
_cell_angle_beta   97.07601316
_cell_angle_gamma   89.46853411
_symmetry_Int_Tables_number   1
_chemical_formula_structural   Ca10FeTc3N14
_chemical_formula_sum   'Ca10 Fe1 Tc3 N14'
_cell_volume   423.05722756
_cell_formula_units_Z   1
loop_
 _symmetry_equiv_pos_site_id
 _symmetry_equiv_pos_as_xyz
  1  'x, y, z'
loop_
 _atom_site_type_symbol
 _atom_site_label
 _atom_site_symmetry_multiplicity
 _atom_site_fract_x
 _atom_site_fract_y
 _atom_site_fract_z
 _atom_site_occupancy
  Ca  Ca0  1  0.84083622  0.61291635  0.31858228  1
  Ca  Ca1  1  0.25458176  0.97982841  0.55021538  1
  Ca  Ca2  1  0.71397308  0.43893201  0.86993572  1
  Ca  Ca3  1  0.28209968  0.59982759  0.14229984  1
  Ca  Ca4  1  0.41354878  0.79646530  0.93727339  1
  Ca  Ca5  1  0.60185571  0.20549105  0.06997042  1
  Ca  Ca6  1  0.15899120  0.40652094  0.67971858  1
  Ca  Ca7  1  0.90072339  0.82958249  0.77467842  1
  Ca  Ca8  1  0.09532358  0.12764700  0.23155643  1
  Ca  Ca9  1  0.72226491  0.99196142  0.40886190  1
  Fe  Fe0  1  0.87865609  0.78520901  0.08473250  1
  Tc  Tc0  1  0.58341992  0.35123615  0.47360529  1
  Tc  Tc1  1  0.42501595  0.64358831  0.52725688  1
  Tc  Tc2  1  0.12030211  0.21846640  0.91492493  1
  N  N0  1  0.53071573  0.55247612  0.68369441  1
  N  N1  1  0.47752706  0.44775495  0.31842296  1
  N  N2  1  0.14778401  0.70267745  0.55156365  1
  N  N3  1  0.85699632  0.28112373  0.44331198  1
  N  N4  1  0.40645948  0.18097238  0.46295979  1
  N  N5  1  0.59484805  0.81741665  0.54205235  1
  N  N6  1  0.95277316  0.14332040  0.71262294  1
  N  N7  1  0.05181980  0.84844227  0.28885465  1
  N  N8  1  0.22761124  0.04957152  0.95952399  1
  N  N9  1  0.75922101  0.95546420  0.03664978  1
  N  N10  1  0.36292756  0.32877111  0.90347857  1
  N  N11  1  0.96154896  0.35908789  0.08066253  1
  N  N12  1  0.04931276  0.64926177  0.91181929  1
  N  N13  1  0.62886348  0.69598809  0.12077116  1
loop_
_geom_bond_atom_site_label_1
_geom_bond_atom_site_label_2
_geom_bond_distance
_geom_bond_site_symmetry_2
Ca0 N13 2.421107 1_555
Ca0 N2 2.452265 1_655
Ca0 N11 2.478258 1_555
Ca0 N7 2.581078 1_655
Ca0 N5 2.630775 1_555
Ca0 N1 2.660995 1_555
Ca1 N7 2.273764 1_555
Ca1 N4 2.457555 1_565
Ca1 N5 2.499201 1_555
Ca1 N6 2.507335 1_465
Ca1 N2 2.541317 1_555
Ca2 N0 2.446838 1_555
Ca2 N10 2.462256 1_555
Ca2 N13 2.473838 1_556
Ca2 N11 2.594797 1_556
Ca2 N12 2.650078 1_655
Ca2 N6 2.836182 1_555
Ca3 N13 2.344875 1_555
Ca3 N10 2.481968 1_554
Ca3 N7 2.512868 1_555
Ca3 N12 2.541353 1_554
Ca3 N1 2.654657 1_555
Ca3 N11 2.720280 1_455
Ca4 N9 2.381944 1_556
Ca4 N13 2.429372 1_556
Ca4 N8 2.433491 1_565
Ca4 N0 2.499492 1_555
Ca4 N12 2.516157 1_555
Ca5 N9 2.306332 1_545
Ca5 N1 2.485013 1_555
Ca5 N8 2.521105 1_554
Ca5 N10 2.522471 1_554
Ca5 N11 2.556894 1_555
Ca6 N12 2.376412 1_555
Ca6 N3 2.454770 1_455
Ca6 N10 2.559862 1_555
Ca6 N0 2.604503 1_555
Ca6 N4 2.678295 1_555
Ca6 N6 2.793792 1_455
Ca7 N9 2.356491 1_556
Ca7 N2 2.482803 1_655
Ca7 N12 2.502733 1_655
Ca7 N5 2.570374 1_555
Ca7 N8 2.616720 1_665
Ca7 N6 3.079728 1_565
Ca8 N3 2.416065 1_455
Ca8 N8 2.436850 1_554
Ca8 N4 2.495734 1_555
Ca8 N9 2.516250 1_445
Ca8 N7 2.749453 1_545
Ca8 N11 2.961411 1_455
Ca9 N7 2.458678 1_655
Ca9 N4 2.483237 1_565
Ca9 N5 2.499199 1_555
Ca9 N3 2.560072 1_565
Ca9 N6 2.628865 1_565
Ca9 N13 2.717256 1_555
Fe0 N7 1.828759 1_655
Fe0 N13 1.845464 1_555
Fe0 N9 1.855617 1_555
Fe0 N12 1.897589 1_654
N0 Tc1 1.938116 1_555
N0 Tc0 1.977682 1_555
N1 Tc1 1.948732 1_555
N1 Tc0 1.964028 1_555
N2 Tc1 1.773420 1_555
N3 Tc0 1.782294 1_555
N4 Tc0 1.818135 1_555
N5 Tc1 1.804293 1_555
N6 Tc2 1.789843 1_655
N8 Tc2 1.802526 1_555
N10 Tc2 1.815189 1_555
N11 Tc2 1.826661 1_654
