# generated using pymatgen
data_BaTl2
_symmetry_space_group_name_H-M   'P 1'
_cell_length_a   5.29410766
_cell_length_b   5.29410727
_cell_length_c   8.62833932
_cell_angle_alpha   90.00000000
_cell_angle_beta   90.00000000
_cell_angle_gamma   120.00001532
_symmetry_Int_Tables_number   1
_chemical_formula_structural   BaTl2
_chemical_formula_sum   'Ba2 Tl4'
_cell_volume   209.43211850
_cell_formula_units_Z   2
loop_
 _symmetry_equiv_pos_site_id
 _symmetry_equiv_pos_as_xyz
  1  'x, y, z'
loop_
 _atom_site_type_symbol
 _atom_site_label
 _atom_site_symmetry_multiplicity
 _atom_site_fract_x
 _atom_site_fract_y
 _atom_site_fract_z
 _atom_site_occupancy
  Ba  Ba0  1  0.00000000  0.00000000  0.25000000  1
  Ba  Ba1  1  -0.00000000  0.00000000  0.75000000  1
  Tl  Tl0  1  0.33333300  0.66666700  0.45373435  1
  Tl  Tl1  1  0.66666700  0.33333300  0.95373435  1
  Tl  Tl2  1  0.66666700  0.33333300  0.54626565  1
  Tl  Tl3  1  0.33333300  0.66666700  0.04626565  1
loop_
_geom_bond_atom_site_label_1
_geom_bond_atom_site_label_2
_geom_bond_distance
_geom_bond_site_symmetry_2
Ba0 Tl3 3.526001 1_545
Ba0 Tl0 3.526001 1_545
Ba0 Tl3 3.526004 1_555
Ba0 Tl0 3.526004 1_555
Ba0 Tl0 3.526004 1_445
Ba0 Tl3 3.526004 1_445
Ba0 Tl1 3.984605 1_454
Ba0 Tl2 3.984605 1_455
Ba0 Tl1 3.984608 1_444
Ba0 Tl2 3.984608 1_445
Ba0 Tl1 3.984608 1_554
Ba0 Tl2 3.984608 1_555
Ba1 Tl2 3.526001 1_455
Ba1 Tl1 3.526001 1_455
Ba1 Tl2 3.526004 1_445
Ba1 Tl1 3.526004 1_445
Ba1 Tl2 3.526004 1_555
Ba1 Tl1 3.526004 1_555
Ba1 Tl0 3.984605 1_545
Ba1 Tl3 3.984605 1_546
Ba1 Tl0 3.984608 1_555
Ba1 Tl3 3.984608 1_556
Ba1 Tl0 3.984608 1_445
Ba1 Tl3 3.984608 1_446
Tl0 Tl2 3.159103 1_565
Tl0 Tl2 3.159103 1_455
Tl0 Tl2 3.159113 1_555
Tl0 Tl3 3.515778 1_555
Tl1 Tl3 3.159103 1_546
Tl1 Tl3 3.159103 1_656
Tl1 Tl3 3.159113 1_556
Tl1 Tl2 3.515778 1_555
