# generated using pymatgen
data_Cs4ZnW3N8
_symmetry_space_group_name_H-M   'P 1'
_cell_length_a   6.11575378
_cell_length_b   8.73516723
_cell_length_c   12.37590270
_cell_angle_alpha   90.00000000
_cell_angle_beta   90.00000000
_cell_angle_gamma   90.00000000
_symmetry_Int_Tables_number   1
_chemical_formula_structural   Cs4ZnW3N8
_chemical_formula_sum   'Cs8 Zn2 W6 N16'
_cell_volume   661.14710852
_cell_formula_units_Z   2
loop_
 _symmetry_equiv_pos_site_id
 _symmetry_equiv_pos_as_xyz
  1  'x, y, z'
loop_
 _atom_site_type_symbol
 _atom_site_label
 _atom_site_symmetry_multiplicity
 _atom_site_fract_x
 _atom_site_fract_y
 _atom_site_fract_z
 _atom_site_occupancy
  Cs  Cs0  1  0.75000000  0.18004467  0.50000000  1
  Cs  Cs1  1  0.25000000  0.81995533  0.00000000  1
  Cs  Cs2  1  0.25000000  0.89967694  0.50000000  1
  Cs  Cs3  1  0.75000000  0.10032306  0.00000000  1
  Cs  Cs4  1  0.76571181  0.39352675  0.78017289  1
  Cs  Cs5  1  0.26571181  0.60647325  0.71982711  1
  Cs  Cs6  1  0.23428819  0.60647325  0.28017289  1
  Cs  Cs7  1  0.73428819  0.39352675  0.21982711  1
  Zn  Zn0  1  0.25000000  0.36753049  0.50000000  1
  Zn  Zn1  1  0.75000000  0.63246951  0.00000000  1
  W  W0  1  0.75000000  0.62355051  0.50000000  1
  W  W1  1  0.25000000  0.37644949  0.00000000  1
  W  W2  1  0.27368802  0.12320360  0.75055377  1
  W  W3  1  0.77368802  0.87679640  0.74944623  1
  W  W4  1  0.72631198  0.87679640  0.25055377  1
  W  W5  1  0.22631198  0.12320360  0.24944623  1
  N  N0  1  0.55543926  0.03062439  0.74487029  1
  N  N1  1  0.05543926  0.96937561  0.75512971  1
  N  N2  1  0.44456074  0.96937561  0.24487029  1
  N  N3  1  0.94456074  0.03062439  0.25512971  1
  N  N4  1  0.25529486  0.24993387  0.87182773  1
  N  N5  1  0.75529486  0.75006613  0.62817227  1
  N  N6  1  0.74470514  0.75006613  0.37182773  1
  N  N7  1  0.24470514  0.24993387  0.12817227  1
  N  N8  1  0.75680582  0.76276812  0.13171381  1
  N  N9  1  0.25680582  0.23723188  0.36828619  1
  N  N10  1  0.24319418  0.23723188  0.63171381  1
  N  N11  1  0.74319418  0.76276812  0.86828619  1
  N  N12  1  0.00794967  0.49392224  0.99800845  1
  N  N13  1  0.50794967  0.50607776  0.50199155  1
  N  N14  1  0.99205033  0.50607776  0.49800845  1
  N  N15  1  0.49205033  0.49392224  0.00199155  1
loop_
_geom_bond_atom_site_label_1
_geom_bond_atom_site_label_2
_geom_bond_distance
_geom_bond_site_symmetry_2
Cs0 N14 3.209797 1_555
Cs0 N13 3.209797 1_555
Cs0 N10 3.464748 1_655
Cs0 N9 3.464748 1_555
Cs0 N0 3.507603 1_555
Cs0 N3 3.507603 1_555
Cs0 N9 3.537455 1_655
Cs0 N10 3.537455 1_555
Cs1 N15 3.209797 1_555
Cs1 N12 3.209797 1_554
Cs1 N8 3.464748 1_455
Cs1 N11 3.464748 1_554
Cs1 N1 3.507603 1_554
Cs1 N2 3.507603 1_555
Cs1 N8 3.537455 1_555
Cs1 N11 3.537455 1_454
Cs2 N10 3.369439 1_565
Cs2 N9 3.369439 1_565
Cs2 N2 3.428711 1_555
Cs2 N1 3.428711 1_555
Cs2 N5 3.657557 1_455
Cs2 N6 3.657557 1_555
Cs2 N5 3.711308 1_555
Cs2 N6 3.711308 1_455
Cs2 N0 3.739205 1_565
Cs2 N3 3.739205 1_465
Cs2 N13 3.782882 1_555
Cs2 N14 3.782882 1_455
Cs3 N8 3.369439 1_545
Cs3 N11 3.369439 1_544
Cs3 N3 3.428711 1_555
Cs3 N0 3.428711 1_554
Cs3 N7 3.657557 1_655
Cs3 N4 3.657557 1_554
Cs3 N4 3.711308 1_654
Cs3 N7 3.711308 1_555
Cs3 N1 3.739205 1_644
Cs3 N2 3.739205 1_545
Cs3 N12 3.782882 1_654
Cs3 N15 3.782882 1_555
Cs4 N12 3.198713 1_655
Cs4 N15 3.332616 1_556
Cs4 N11 3.407525 1_555
Cs4 N4 3.438750 1_655
Cs4 N0 3.448709 1_555
Cs4 N4 3.550245 1_555
Cs4 N5 3.639017 1_555
Cs4 N10 3.710395 1_655
Cs5 N13 3.198713 1_555
Cs5 N14 3.332616 1_455
Cs5 N10 3.407525 1_555
Cs5 N5 3.438750 1_555
Cs5 N1 3.448709 1_555
Cs5 N5 3.550245 1_455
Cs5 N4 3.639017 1_555
Cs5 N11 3.710395 1_555
Cs6 N14 3.198713 1_455
Cs6 N13 3.332616 1_555
Cs6 N9 3.407525 1_555
Cs6 N6 3.438750 1_455
Cs6 N2 3.448709 1_555
Cs6 N6 3.550245 1_555
Cs6 N7 3.639017 1_555
Cs6 N8 3.710395 1_455
Cs7 N15 3.198713 1_555
Cs7 N12 3.332616 1_654
Cs7 N8 3.407525 1_555
Cs7 N7 3.438750 1_555
Cs7 N3 3.448709 1_555
Cs7 N7 3.550245 1_655
Cs7 N6 3.639017 1_555
Cs7 N9 3.710395 1_555
N0 W3 1.894821 1_545
N0 W2 1.904752 1_555
N1 W2 1.894821 1_565
N1 W3 1.904752 1_455
N2 W5 1.894821 1_565
N2 W4 1.904752 1_555
N3 W4 1.894821 1_545
N3 W5 1.904752 1_655
N4 W2 1.868355 1_555
N4 W1 1.933534 1_556
N5 W3 1.868355 1_555
N5 W0 1.933534 1_555
N6 W4 1.868355 1_555
N6 W0 1.933534 1_555
N7 W5 1.868355 1_555
N7 W1 1.933534 1_555
N8 W4 1.786062 1_555
N8 Zn1 1.988552 1_555
N9 W5 1.786062 1_555
N9 Zn0 1.988552 1_555
N10 W2 1.786062 1_555
N10 Zn0 1.988552 1_555
N11 W3 1.786062 1_555
N11 Zn1 1.988552 1_556
N12 W1 1.801368 1_556
N12 Zn1 1.988456 1_456
N13 W0 1.801368 1_555
N13 Zn0 1.988456 1_555
N14 W0 1.801368 1_555
N14 Zn0 1.988456 1_655
N15 W1 1.801368 1_555
N15 Zn1 1.988456 1_555
