# generated using pymatgen
data_Rb4Ba2TiSb4
_symmetry_space_group_name_H-M   'P 1'
_cell_length_a   11.30465868
_cell_length_b   11.30465933
_cell_length_c   8.61491406
_cell_angle_alpha   88.43651665
_cell_angle_beta   88.43651562
_cell_angle_gamma   119.44902154
_symmetry_Int_Tables_number   1
_chemical_formula_structural   Rb4Ba2TiSb4
_chemical_formula_sum   'Rb8 Ba4 Ti2 Sb8'
_cell_volume   957.29132432
_cell_formula_units_Z   2
loop_
 _symmetry_equiv_pos_site_id
 _symmetry_equiv_pos_as_xyz
  1  'x, y, z'
loop_
 _atom_site_type_symbol
 _atom_site_label
 _atom_site_symmetry_multiplicity
 _atom_site_fract_x
 _atom_site_fract_y
 _atom_site_fract_z
 _atom_site_occupancy
  Rb  Rb0  1  0.47718647  0.94996726  0.38611691  1
  Rb  Rb1  1  0.94996726  0.47718647  0.88611691  1
  Rb  Rb2  1  0.86433334  0.72057702  0.16983913  1
  Rb  Rb3  1  0.26798956  0.12694452  0.23011156  1
  Rb  Rb4  1  0.85333873  0.14099584  0.19486506  1
  Rb  Rb5  1  0.12694452  0.26798956  0.73011156  1
  Rb  Rb6  1  0.72057702  0.86433334  0.66983913  1
  Rb  Rb7  1  0.14099584  0.85333873  0.69486506  1
  Ba  Ba0  1  0.06007516  0.53043913  0.39256652  1
  Ba  Ba1  1  0.47830606  0.52800340  0.38046065  1
  Ba  Ba2  1  0.53043913  0.06007516  0.89256652  1
  Ba  Ba3  1  0.52800340  0.47830606  0.88046065  1
  Ti  Ti0  1  0.66469339  0.33454860  0.49317115  1
  Ti  Ti1  1  0.33454860  0.66469339  0.99317115  1
  Sb  Sb0  1  0.64815616  0.33297169  0.17734643  1
  Sb  Sb1  1  0.33297169  0.64815616  0.67734643  1
  Sb  Sb2  1  0.21089815  0.40715035  0.12020366  1
  Sb  Sb3  1  0.59744604  0.79551848  0.07781616  1
  Sb  Sb4  1  0.21018471  0.80008595  0.09516977  1
  Sb  Sb5  1  0.79551848  0.59744604  0.57781616  1
  Sb  Sb6  1  0.40715035  0.21089815  0.62020366  1
  Sb  Sb7  1  0.80008595  0.21018471  0.59516977  1
loop_
_geom_bond_atom_site_label_1
_geom_bond_atom_site_label_2
_geom_bond_distance
_geom_bond_site_symmetry_2
Rb0 Sb4 3.725541 1_555
Rb0 Sb3 3.786951 1_555
Rb0 Sb1 3.799161 1_555
Rb0 Sb7 3.912887 1_565
Rb0 Ti0 3.938128 1_565
Rb0 Sb6 3.991051 1_565
Rb0 Sb0 4.107762 1_565
Rb1 Sb7 3.725541 1_555
Rb1 Sb5 3.786951 1_555
Rb1 Sb0 3.799160 1_556
Rb1 Sb4 3.912887 1_656
Rb1 Ti1 3.938128 1_655
Rb1 Sb2 3.991050 1_656
Rb1 Sb1 4.107762 1_655
Rb2 Sb4 3.589349 1_655
Rb2 Sb3 3.613326 1_555
Rb2 Sb5 3.662623 1_555
Rb2 Sb0 3.823963 1_555
Rb3 Sb2 3.636876 1_555
Rb3 Sb4 3.651476 1_545
Rb3 Sb6 3.696446 1_555
Rb3 Sb0 3.754236 1_555
Rb4 Sb7 3.655661 1_555
Rb4 Sb2 3.687661 1_655
Rb4 Sb3 3.728666 1_545
Rb4 Sb0 3.881215 1_555
Rb5 Sb6 3.636876 1_555
Rb5 Sb7 3.651476 1_455
Rb5 Sb2 3.696446 1_556
Rb5 Sb1 3.754236 1_555
Rb6 Sb7 3.589349 1_565
Rb6 Sb5 3.613326 1_555
Rb6 Sb3 3.662623 1_556
Rb6 Sb1 3.823963 1_555
Rb7 Sb4 3.655661 1_556
Rb7 Sb6 3.687661 1_565
Rb7 Sb5 3.728666 1_455
Rb7 Sb1 3.881215 1_555
Ba0 Sb2 3.556941 1_555
Ba0 Sb4 3.603591 1_555
Ba0 Sb7 3.701910 1_455
Ba0 Sb1 3.723097 1_555
Ba0 Sb5 3.754765 1_455
Ba1 Sb2 3.536631 1_555
Ba1 Sb3 3.623592 1_555
Ba1 Sb1 3.638735 1_555
Ba1 Sb5 3.742146 1_555
Ba1 Sb6 3.799113 1_555
Ba1 Ti0 3.833009 1_555
Ba1 Sb0 3.974853 1_555
Ba2 Sb6 3.556941 1_555
Ba2 Sb7 3.603590 1_555
Ba2 Sb4 3.701910 1_546
Ba2 Sb0 3.723097 1_556
Ba2 Sb3 3.754765 1_546
Ba3 Sb6 3.536631 1_555
Ba3 Sb5 3.623592 1_555
Ba3 Sb0 3.638735 1_556
Ba3 Sb3 3.742146 1_556
Ba3 Sb2 3.799113 1_556
Ba3 Ti1 3.833009 1_555
Ba3 Sb1 3.974853 1_555
Sb0 Ti0 2.732245 1_555
Sb1 Ti1 2.732245 1_555
Sb2 Ti1 2.714586 1_554
Sb3 Ti1 2.721535 1_554
Sb4 Ti1 2.685730 1_554
Sb5 Ti0 2.721535 1_555
Sb6 Ti0 2.714586 1_555
Sb7 Ti0 2.685730 1_555
