# generated using pymatgen
data_Zr5BeSn2Bi
_symmetry_space_group_name_H-M   'P 1'
_cell_length_a   8.65015168
_cell_length_b   8.63969659
_cell_length_c   5.85395065
_cell_angle_alpha   90.00000000
_cell_angle_beta   90.00000000
_cell_angle_gamma   119.96002326
_symmetry_Int_Tables_number   1
_chemical_formula_structural   Zr5BeSn2Bi
_chemical_formula_sum   'Zr10 Be2 Sn4 Bi2'
_cell_volume   379.03272684
_cell_formula_units_Z   2
loop_
 _symmetry_equiv_pos_site_id
 _symmetry_equiv_pos_as_xyz
  1  'x, y, z'
loop_
 _atom_site_type_symbol
 _atom_site_label
 _atom_site_symmetry_multiplicity
 _atom_site_fract_x
 _atom_site_fract_y
 _atom_site_fract_z
 _atom_site_occupancy
  Zr  Zr0  1  0.66914301  0.33540394  0.00394403  1
  Zr  Zr1  1  0.33085699  0.66626194  0.00394403  1
  Zr  Zr2  1  0.33085699  0.66626194  0.49605597  1
  Zr  Zr3  1  0.66914301  0.33540394  0.49605597  1
  Zr  Zr4  1  0.75996332  0.75474917  0.75000000  1
  Zr  Zr5  1  0.24003668  0.99478685  0.75000000  1
  Zr  Zr6  1  1.00000000  0.24576309  0.75000000  1
  Zr  Zr7  1  0.25483021  0.25576319  0.25000000  1
  Zr  Zr8  1  0.74516979  0.00093298  0.25000000  1
  Zr  Zr9  1  1.00000000  0.74368973  0.25000000  1
  Be  Be0  1  0.00000000  0.00029038  0.01954109  1
  Be  Be1  1  0.00000000  0.00029038  0.48045891  1
  Sn  Sn0  1  1.00000000  0.60402475  0.75000000  1
  Sn  Sn1  1  0.61367890  0.61462855  0.25000000  1
  Sn  Sn2  1  0.38632110  0.00094865  0.25000000  1
  Sn  Sn3  1  1.00000000  0.38833295  0.25000000  1
  Bi  Bi0  1  0.39389345  0.39318001  0.75000000  1
  Bi  Bi1  1  0.60610655  0.99928656  0.75000000  1
loop_
_geom_bond_atom_site_label_1
_geom_bond_atom_site_label_2
_geom_bond_distance
_geom_bond_site_symmetry_2
Be0 Zr8 2.586762 1_455
Be0 Zr7 2.586762 1_555
Be0 Zr9 2.595175 1_445
Be0 Zr5 2.627132 1_544
Be0 Zr4 2.627135 1_444
Be0 Zr6 2.643396 1_454
Be1 Zr8 2.586762 1_455
Be1 Zr7 2.586762 1_555
Be1 Zr9 2.595175 1_445
Be1 Zr5 2.627132 1_545
Be1 Zr4 2.627135 1_445
Be1 Zr6 2.643396 1_455
Sn0 Zr4 2.950863 1_555
Sn0 Zr5 2.950870 1_655
Sn0 Zr1 3.025364 1_656
Sn0 Zr2 3.025364 1_655
Sn0 Zr0 3.025366 1_556
Sn0 Zr3 3.025366 1_555
Sn0 Zr6 3.095272 1_555
Sn0 Zr9 3.165947 1_556
Sn0 Zr9 3.165947 1_555
Sn1 Zr8 2.939622 1_565
Sn1 Zr9 2.947684 1_555
Sn1 Zr3 3.046423 1_555
Sn1 Zr0 3.046423 1_555
Sn1 Zr2 3.057600 1_555
Sn1 Zr1 3.057600 1_555
Sn1 Zr7 3.104168 1_555
Sn1 Zr4 3.178665 1_554
Sn1 Zr4 3.178665 1_555
Sn2 Zr7 2.939630 1_555
Sn2 Zr9 2.947682 1_445
Sn2 Zr2 3.046408 1_545
Sn2 Zr1 3.046408 1_545
Sn2 Zr3 3.057600 1_555
Sn2 Zr0 3.057600 1_555
Sn2 Zr8 3.104163 1_555
Sn2 Zr5 3.178668 1_545
Sn2 Zr5 3.178668 1_544
Sn3 Zr7 2.948317 1_655
Sn3 Zr8 2.948317 1_555
Sn3 Zr3 3.027793 1_555
Sn3 Zr0 3.027793 1_555
Sn3 Zr2 3.027796 1_655
Sn3 Zr1 3.027796 1_655
Sn3 Zr9 3.070175 1_555
Sn3 Zr6 3.175597 1_554
Sn3 Zr6 3.175597 1_555
Bi0 Zr6 2.982798 1_455
Bi0 Zr5 3.007196 1_545
Bi0 Zr0 3.052058 1_556
Bi0 Zr3 3.052058 1_555
Bi0 Zr1 3.059196 1_556
Bi0 Zr2 3.059196 1_555
Bi0 Zr4 3.147321 1_555
Bi0 Zr7 3.161852 1_555
Bi0 Zr7 3.161852 1_556
Bi1 Zr6 2.982798 1_565
Bi1 Zr4 3.007204 1_555
Bi1 Zr1 3.052053 1_556
Bi1 Zr2 3.052053 1_555
Bi1 Zr0 3.059188 1_566
Bi1 Zr3 3.059188 1_565
Bi1 Zr5 3.147326 1_555
Bi1 Zr8 3.161852 1_565
Bi1 Zr8 3.161852 1_566
