# generated using pymatgen
data_Ta4CdHg3O14
_symmetry_space_group_name_H-M   'P 1'
_cell_length_a   7.37767146
_cell_length_b   7.37767132
_cell_length_c   7.44204578
_cell_angle_alpha   60.28573131
_cell_angle_beta   60.28573471
_cell_angle_gamma   60.00000029
_symmetry_Int_Tables_number   1
_chemical_formula_structural   Ta4CdHg3O14
_chemical_formula_sum   'Ta4 Cd1 Hg3 O14'
_cell_volume   287.65913475
_cell_formula_units_Z   1
loop_
 _symmetry_equiv_pos_site_id
 _symmetry_equiv_pos_as_xyz
  1  'x, y, z'
loop_
 _atom_site_type_symbol
 _atom_site_label
 _atom_site_symmetry_multiplicity
 _atom_site_fract_x
 _atom_site_fract_y
 _atom_site_fract_z
 _atom_site_occupancy
  Ta  Ta0  1  0.62500000  0.62500000  0.62500000  1
  Ta  Ta1  1  0.12500000  0.62500000  0.62500000  1
  Ta  Ta2  1  0.62500000  0.62500000  0.12500000  1
  Ta  Ta3  1  0.62500000  0.12500000  0.62500000  1
  Cd  Cd0  1  0.12500000  0.12500000  0.62500000  1
  Hg  Hg0  1  0.12500000  0.12500000  0.12500000  1
  Hg  Hg1  1  0.62500000  0.12500000  0.12500000  1
  Hg  Hg2  1  0.12500000  0.62500000  0.12500000  1
  O  O0  1  0.56097445  0.56097445  0.93801572  1
  O  O1  1  0.30819135  0.30819135  0.68743139  1
  O  O2  1  0.94003537  0.56097445  0.93801572  1
  O  O3  1  0.94180865  0.55381508  0.56256861  1
  O  O4  1  0.56097445  0.94003537  0.93801572  1
  O  O5  1  0.55381508  0.94180865  0.56256861  1
  O  O6  1  0.30996463  0.68902555  0.31198428  1
  O  O7  1  0.69618492  0.30819135  0.68743139  1
  O  O8  1  0.25102613  0.25102613  0.24692161  1
  O  O9  1  0.99897387  0.99897387  0.00307839  1
  O  O10  1  0.94180865  0.94180865  0.56256861  1
  O  O11  1  0.68902555  0.30996463  0.31198428  1
  O  O12  1  0.30819135  0.69618492  0.68743139  1
  O  O13  1  0.68902555  0.68902555  0.31198428  1
loop_
_geom_bond_atom_site_label_1
_geom_bond_atom_site_label_2
_geom_bond_distance
_geom_bond_site_symmetry_2
Cd0 O9 2.307229 1_446
Cd0 O8 2.307229 1_555
Cd0 O10 2.634531 1_445
Cd0 O1 2.634531 1_555
Cd0 O3 2.634537 1_455
Cd0 O12 2.634537 1_545
Cd0 O5 2.634537 1_545
Cd0 O7 2.634537 1_455
Hg0 O8 2.255973 1_555
Hg0 O9 2.255973 1_445
Hg1 O9 2.255973 1_545
Hg1 O8 2.255973 1_555
Hg2 O9 2.255973 1_455
Hg2 O8 2.255973 1_555
O0 Ta2 1.977123 1_556
O0 Ta0 1.978426 1_555
O1 Ta1 1.972948 1_555
O1 Ta3 1.972948 1_555
O2 Ta2 1.977124 1_556
O2 Ta1 1.978426 1_655
O3 Ta1 1.972943 1_655
O3 Ta0 1.972950 1_555
O4 Ta2 1.977123 1_556
O4 Ta3 1.978426 1_565
O5 Ta3 1.972943 1_565
O5 Ta0 1.972950 1_555
O6 Ta2 1.977124 1_555
O6 Ta1 1.978426 1_555
O7 Ta3 1.972943 1_555
O7 Ta0 1.972950 1_555
O10 Ta1 1.972948 1_655
O10 Ta3 1.972948 1_565
O11 Ta2 1.977123 1_555
O11 Ta3 1.978426 1_555
O12 Ta1 1.972943 1_555
O12 Ta0 1.972950 1_555
O13 Ta2 1.977123 1_555
O13 Ta0 1.978426 1_555
