# generated using pymatgen
data_Sr10MnPN10
_symmetry_space_group_name_H-M   'P 1'
_cell_length_a   7.46465794
_cell_length_b   7.46465715
_cell_length_c   8.87864834
_cell_angle_alpha   76.49841208
_cell_angle_beta   76.49841631
_cell_angle_gamma   95.92908223
_symmetry_Int_Tables_number   1
_chemical_formula_structural   Sr10MnPN10
_chemical_formula_sum   'Sr10 Mn1 P1 N10'
_cell_volume   461.19961723
_cell_formula_units_Z   1
loop_
 _symmetry_equiv_pos_site_id
 _symmetry_equiv_pos_as_xyz
  1  'x, y, z'
loop_
 _atom_site_type_symbol
 _atom_site_label
 _atom_site_symmetry_multiplicity
 _atom_site_fract_x
 _atom_site_fract_y
 _atom_site_fract_z
 _atom_site_occupancy
  Sr  Sr0  1  0.39860550  0.38676639  0.38099414  1
  Sr  Sr1  1  0.61323361  0.60139450  0.61900586  1
  Sr  Sr2  1  0.66478425  0.66862185  0.00952861  1
  Sr  Sr3  1  0.33137815  0.33521575  0.99047139  1
  Sr  Sr4  1  0.92150066  0.93168904  0.20038195  1
  Sr  Sr5  1  0.06831096  0.07849934  0.79961805  1
  Sr  Sr6  1  0.56310810  0.09895435  0.75850309  1
  Sr  Sr7  1  0.90104565  0.43689190  0.24149691  1
  Sr  Sr8  1  0.44753385  0.91101601  0.24183582  1
  Sr  Sr9  1  0.08898399  0.55246615  0.75816418  1
  Mn  Mn0  1  0.24235347  0.75764653  1.00000000  1
  P  P0  1  0.75771036  0.24228964  0.00000000  1
  N  N0  1  0.65858471  0.65780250  0.31711485  1
  N  N1  1  0.34219750  0.34141529  0.68288515  1
  N  N2  1  0.72130550  0.02229518  0.98752721  1
  N  N3  1  0.97770482  0.27869450  0.01247279  1
  N  N4  1  0.28172717  0.97985250  0.01441663  1
  N  N5  1  0.02014750  0.71827283  0.98558337  1
  N  N6  1  0.39516795  0.73236676  0.83346919  1
  N  N7  1  0.26763324  0.60483205  0.16652981  1
  N  N8  1  0.60767738  0.27069533  0.16173815  1
  N  N9  1  0.72930467  0.39232262  0.83826085  1
loop_
_geom_bond_atom_site_label_1
_geom_bond_atom_site_label_2
_geom_bond_distance
_geom_bond_site_symmetry_2
Mn0 N4 1.694111 1_556
Mn0 N5 1.694112 1_555
Mn0 N7 1.705921 1_556
Mn0 N6 1.705927 1_555
N0 Sr0 2.514002 1_555
N0 Sr4 2.517454 1_555
N0 Sr1 2.548766 1_555
N0 Sr7 2.647997 1_555
N0 Sr8 2.649213 1_555
N0 Sr2 2.702587 1_555
N1 Sr1 2.514002 1_555
N1 Sr5 2.517454 1_555
N1 Sr0 2.548766 1_555
N1 Sr6 2.647997 1_555
N1 Sr9 2.649213 1_555
N1 Sr3 2.702587 1_555
N2 P0 1.670225 1_556
N2 Sr6 2.564038 1_555
N2 Sr8 2.565818 1_546
N2 Sr2 2.583915 1_546
N2 Sr5 2.664537 1_655
N2 Sr4 2.681962 1_546
N3 P0 1.670225 1_555
N3 Sr7 2.564038 1_555
N3 Sr9 2.565818 1_654
N3 Sr3 2.583916 1_654
N3 Sr4 2.664536 1_545
N3 Sr5 2.681962 1_654
N4 Sr8 2.585893 1_555
N4 Sr3 2.591515 1_564
N4 Sr6 2.609089 1_564
N4 Sr4 2.745168 1_455
N4 Sr5 2.778942 1_564
N5 Sr9 2.585893 1_555
N5 Sr2 2.591515 1_456
N5 Sr7 2.609089 1_456
N5 Sr5 2.745168 1_565
N5 Sr4 2.778942 1_456
N6 Sr1 2.642350 1_555
N6 Sr6 2.748439 1_565
N6 Sr9 2.823632 1_555
N6 Sr2 2.835489 1_556
N6 Sr3 2.903009 1_555
N7 Sr0 2.642356 1_555
N7 Sr7 2.748439 1_455
N7 Sr8 2.823637 1_555
N7 Sr3 2.835483 1_554
N7 Sr2 2.903007 1_555
N8 P0 1.673814 1_555
N8 Sr0 2.573766 1_555
N8 Sr8 2.681744 1_545
N8 Sr7 2.721999 1_555
N8 Sr3 2.850571 1_554
N8 Sr2 2.902794 1_555
N9 P0 1.673820 1_556
N9 Sr1 2.573760 1_555
N9 Sr9 2.681744 1_655
N9 Sr6 2.721994 1_555
N9 Sr2 2.850577 1_556
N9 Sr3 2.902796 1_555
