# generated using pymatgen
data_LiCa2CoN2
_symmetry_space_group_name_H-M   'P 1'
_cell_length_a   5.23794255
_cell_length_b   5.23794255
_cell_length_c   6.71779408
_cell_angle_alpha   90.00000000
_cell_angle_beta   90.00000000
_cell_angle_gamma   90.00000000
_symmetry_Int_Tables_number   1
_chemical_formula_structural   LiCa2CoN2
_chemical_formula_sum   'Li2 Ca4 Co2 N4'
_cell_volume   184.30968165
_cell_formula_units_Z   2
loop_
 _symmetry_equiv_pos_site_id
 _symmetry_equiv_pos_as_xyz
  1  'x, y, z'
loop_
 _atom_site_type_symbol
 _atom_site_label
 _atom_site_symmetry_multiplicity
 _atom_site_fract_x
 _atom_site_fract_y
 _atom_site_fract_z
 _atom_site_occupancy
  Li  Li0  1  0.00000000  0.00000000  0.50000000  1
  Li  Li1  1  0.50000000  0.50000000  0.00000000  1
  Ca  Ca0  1  0.00000000  0.50000000  0.25000000  1
  Ca  Ca1  1  0.00000000  0.50000000  0.75000000  1
  Ca  Ca2  1  0.50000000  0.00000000  0.25000000  1
  Ca  Ca3  1  0.50000000  0.00000000  0.75000000  1
  Co  Co0  1  0.00000000  0.00000000  0.00000000  1
  Co  Co1  1  0.50000000  0.50000000  0.50000000  1
  N  N0  1  0.24000846  0.24000846  0.00000000  1
  N  N1  1  0.75999154  0.75999154  0.00000000  1
  N  N2  1  0.25999154  0.74000846  0.50000000  1
  N  N3  1  0.74000846  0.25999154  0.50000000  1
loop_
_geom_bond_atom_site_label_1
_geom_bond_atom_site_label_2
_geom_bond_distance
_geom_bond_site_symmetry_2
Li0 N3 1.925905 1_455
Li0 N2 1.925905 1_545
Li1 N1 1.925905 1_555
Li1 N0 1.925905 1_555
Ca0 N2 2.501106 1_555
Ca0 N0 2.501106 1_555
Ca0 N1 2.501106 1_455
Ca0 N3 2.501106 1_455
Ca1 N2 2.501106 1_555
Ca1 N1 2.501106 1_456
Ca1 N0 2.501106 1_556
Ca1 N3 2.501106 1_455
Ca2 N3 2.501106 1_555
Ca2 N0 2.501106 1_555
Ca2 N1 2.501106 1_545
Ca2 N2 2.501106 1_545
Ca3 N3 2.501106 1_555
Ca3 N1 2.501106 1_546
Ca3 N0 2.501106 1_556
Ca3 N2 2.501106 1_545
Co0 N0 1.777879 1_555
Co0 N1 1.777879 1_445
Co1 N2 1.777879 1_555
Co1 N3 1.777879 1_555
