# generated using pymatgen
data_Zr3Sn(PN3)4
_symmetry_space_group_name_H-M   'P 1'
_cell_length_a   6.57447819
_cell_length_b   6.57447770
_cell_length_c   5.25392828
_cell_angle_alpha   78.52388945
_cell_angle_beta   78.52389140
_cell_angle_gamma   83.82154176
_symmetry_Int_Tables_number   1
_chemical_formula_structural   Zr3Sn(PN3)4
_chemical_formula_sum   'Zr3 Sn1 P4 N12'
_cell_volume   217.55701478
_cell_formula_units_Z   1
loop_
 _symmetry_equiv_pos_site_id
 _symmetry_equiv_pos_as_xyz
  1  'x, y, z'
loop_
 _atom_site_type_symbol
 _atom_site_label
 _atom_site_symmetry_multiplicity
 _atom_site_fract_x
 _atom_site_fract_y
 _atom_site_fract_z
 _atom_site_occupancy
  Zr  Zr0  1  0.67311760  0.32688240  0.75000000  1
  Zr  Zr1  1  0.89942103  0.10057897  0.25000000  1
  Zr  Zr2  1  0.32633666  0.67366334  0.25000000  1
  Sn  Sn0  1  0.09689065  0.90310935  0.75000000  1
  P  P0  1  0.19805788  0.38605032  0.75482716  1
  P  P1  1  0.38262121  0.19702489  0.25738622  1
  P  P2  1  0.80297511  0.61737879  0.24261378  1
  P  P3  1  0.61394968  0.80194212  0.74517284  1
  N  N0  1  0.32449774  0.38628853  0.00398695  1
  N  N1  1  0.01813216  0.22433803  0.84152923  1
  N  N2  1  0.98689224  0.77329325  0.15316586  1
  N  N3  1  0.38684254  0.32411029  0.50414469  1
  N  N4  1  0.61470183  0.12818470  0.13615400  1
  N  N5  1  0.38362796  0.87185149  0.86827081  1
  N  N6  1  0.87181530  0.38529817  0.36384600  1
  N  N7  1  0.67588971  0.61315746  0.99585531  1
  N  N8  1  0.77566197  0.98186784  0.65847077  1
  N  N9  1  0.12814851  0.61637204  0.63172919  1
  N  N10  1  0.22670675  0.01310776  0.34683414  1
  N  N11  1  0.61371147  0.67550226  0.49601305  1
loop_
_geom_bond_atom_site_label_1
_geom_bond_atom_site_label_2
_geom_bond_distance
_geom_bond_site_symmetry_2
N0 P0 1.684871 1_554
N0 P1 1.705198 1_555
N0 Zr0 2.446251 1_554
N0 Zr2 2.494647 1_555
N1 P0 1.612673 1_555
N1 Zr1 2.156889 1_456
N1 Sn0 2.242585 1_545
N1 Zr0 2.409727 1_455
N2 P2 1.607063 1_555
N2 Sn0 2.131229 1_654
N2 Zr1 2.296157 1_565
N2 Zr2 2.381757 1_655
N3 P1 1.682257 1_555
N3 P0 1.701508 1_555
N3 Zr2 2.452769 1_555
N3 Zr0 2.489039 1_555
N4 P1 1.586812 1_555
N4 Zr1 2.055200 1_555
N4 Zr0 2.171052 1_554
N5 P3 1.581534 1_555
N5 Sn0 2.077031 1_555
N5 Zr2 2.151086 1_556
N6 P2 1.586812 1_555
N6 Zr1 2.055200 1_555
N6 Zr0 2.171052 1_555
N7 P2 1.682257 1_556
N7 P3 1.701508 1_555
N7 Zr2 2.452770 1_556
N7 Zr0 2.489039 1_555
N8 P3 1.612673 1_555
N8 Zr1 2.156889 1_565
N8 Sn0 2.242585 1_655
N8 Zr0 2.409726 1_565
N9 P0 1.581534 1_555
N9 Sn0 2.077031 1_555
N9 Zr2 2.151086 1_555
N10 P1 1.607063 1_555
N10 Sn0 2.131229 1_545
N10 Zr1 2.296157 1_455
N10 Zr2 2.381757 1_545
N11 P3 1.684871 1_555
N11 P2 1.705198 1_555
N11 Zr0 2.446250 1_555
N11 Zr2 2.494647 1_555
