# generated using pymatgen
data_Y4Sn3Ge3Ir7
_symmetry_space_group_name_H-M   'P 1'
_cell_length_a   7.39206592
_cell_length_b   7.39206591
_cell_length_c   7.44529041
_cell_angle_alpha   109.61714217
_cell_angle_beta   109.61714215
_cell_angle_gamma   109.32490197
_symmetry_Int_Tables_number   1
_chemical_formula_structural   Y4Sn3Ge3Ir7
_chemical_formula_sum   'Y4 Sn3 Ge3 Ir7'
_cell_volume   312.61236795
_cell_formula_units_Z   1
loop_
 _symmetry_equiv_pos_site_id
 _symmetry_equiv_pos_as_xyz
  1  'x, y, z'
loop_
 _atom_site_type_symbol
 _atom_site_label
 _atom_site_symmetry_multiplicity
 _atom_site_fract_x
 _atom_site_fract_y
 _atom_site_fract_z
 _atom_site_occupancy
  Y  Y0  1  0.00000000  0.00000000  0.55288715  1
  Y  Y1  1  1.00000000  0.47498894  0.98920429  1
  Y  Y2  1  0.47498894  1.00000000  0.98920429  1
  Y  Y3  1  0.52501106  0.52501106  0.51421535  1
  Sn  Sn0  1  0.70597990  0.70597990  0.01543638  1
  Sn  Sn1  1  0.29402010  1.00000000  0.30945649  1
  Sn  Sn2  1  1.00000000  0.29402010  0.30945649  1
  Ge  Ge0  1  0.34041886  0.34041886  0.01038769  1
  Ge  Ge1  1  0.65958114  0.00000000  0.66996883  1
  Ge  Ge2  1  0.00000000  0.65958114  0.66996883  1
  Ir  Ir0  1  0.74417117  0.24536504  0.49807328  1
  Ir  Ir1  1  0.75463496  0.49880614  0.25270824  1
  Ir  Ir2  1  0.50119386  0.25582883  0.75390111  1
  Ir  Ir3  1  0.25582883  0.50119386  0.75390111  1
  Ir  Ir4  1  0.24536504  0.74417117  0.49807328  1
  Ir  Ir5  1  0.49880614  0.75463496  0.25270824  1
  Ir  Ir6  1  0.00000000  0.00000000  0.96044896  1
loop_
_geom_bond_atom_site_label_1
_geom_bond_atom_site_label_2
_geom_bond_distance
_geom_bond_site_symmetry_2
Sn0 Y3 3.101048 1_554
Sn0 Y2 3.192919 1_554
Sn0 Y1 3.192919 1_554
Sn0 Y0 3.263980 1_665
Sn1 Y2 3.101048 1_554
Sn1 Y3 3.192920 1_565
Sn1 Y1 3.192920 1_454
Sn1 Y0 3.263980 1_565
Sn2 Y1 3.101048 1_554
Sn2 Y3 3.192920 1_655
Sn2 Y2 3.192920 1_544
Sn2 Y0 3.263980 1_655
Ge0 Ir5 2.549657 1_555
Ge0 Ir1 2.549657 1_555
Ge0 Ir3 2.581478 1_554
Ge0 Ir2 2.581478 1_554
Ge0 Ir6 2.712064 1_554
Ge0 Y0 2.926609 1_554
Ge0 Y2 2.973593 1_544
Ge0 Y1 2.973593 1_454
Ge0 Y3 3.112681 1_555
Ge1 Ir2 2.549656 1_555
Ge1 Ir4 2.549657 1_545
Ge1 Ir0 2.581472 1_555
Ge1 Ir5 2.581472 1_545
Ge1 Ir6 2.712064 1_655
Ge1 Y0 2.926609 1_655
Ge1 Y3 2.973593 1_545
Ge1 Y1 2.973593 1_555
Ge1 Y2 3.112681 1_545
Ge2 Ir3 2.549656 1_555
Ge2 Ir0 2.549657 1_455
Ge2 Ir4 2.581472 1_555
Ge2 Ir1 2.581472 1_455
Ge2 Ir6 2.712064 1_565
Ge2 Y0 2.926609 1_565
Ge2 Y3 2.973593 1_455
Ge2 Y2 2.973593 1_555
Ge2 Y1 3.112681 1_455
Ir0 Sn2 2.711069 1_555
Ir0 Sn1 2.737132 1_545
Ir0 Y1 2.982100 1_555
Ir0 Y3 3.015383 1_555
Ir0 Y0 3.046551 1_655
Ir0 Y2 3.088420 1_544
Ir1 Sn0 2.711069 1_555
Ir1 Sn2 2.737131 1_555
Ir1 Y3 2.982100 1_555
Ir1 Y2 3.015383 1_544
Ir1 Y0 3.046551 1_665
Ir1 Y1 3.088420 1_554
Ir2 Sn1 2.711063 1_545
Ir2 Sn0 2.737132 1_556
Ir2 Y2 2.982106 1_545
Ir2 Y1 3.015383 1_555
Ir2 Y0 3.046552 1_555
Ir2 Y3 3.088414 1_555
Ir3 Sn2 2.711063 1_455
Ir3 Sn0 2.737132 1_556
Ir3 Y1 2.982106 1_455
Ir3 Y2 3.015383 1_555
Ir3 Y0 3.046552 1_555
Ir3 Y3 3.088414 1_555
Ir4 Sn1 2.711069 1_555
Ir4 Sn2 2.737132 1_455
Ir4 Y2 2.982100 1_555
Ir4 Y3 3.015383 1_555
Ir4 Y0 3.046551 1_565
Ir4 Y1 3.088420 1_454
Ir5 Sn0 2.711069 1_555
Ir5 Sn1 2.737131 1_555
Ir5 Y3 2.982100 1_555
Ir5 Y1 3.015383 1_454
Ir5 Y0 3.046551 1_665
Ir5 Y2 3.088420 1_554
Ir6 Sn2 2.771932 1_456
Ir6 Sn1 2.771932 1_546
Ir6 Sn0 2.771932 1_446
Ir6 Y0 3.034416 1_555
