# generated using pymatgen
data_Nb6Co6W
_symmetry_space_group_name_H-M   'P 1'
_cell_length_a   9.16382864
_cell_length_b   9.16382900
_cell_length_c   9.16382849
_cell_angle_alpha   31.18485841
_cell_angle_beta   31.18485319
_cell_angle_gamma   31.18485806
_symmetry_Int_Tables_number   1
_chemical_formula_structural   Nb6Co6W
_chemical_formula_sum   'Nb6 Co6 W1'
_cell_volume   183.08814849
_cell_formula_units_Z   1
loop_
 _symmetry_equiv_pos_site_id
 _symmetry_equiv_pos_as_xyz
  1  'x, y, z'
loop_
 _atom_site_type_symbol
 _atom_site_label
 _atom_site_symmetry_multiplicity
 _atom_site_fract_x
 _atom_site_fract_y
 _atom_site_fract_z
 _atom_site_occupancy
  Nb  Nb0  1  0.83413001  0.83413001  0.83413001  1
  Nb  Nb1  1  0.16586999  0.16586999  0.16586999  1
  Nb  Nb2  1  0.65204847  0.65204847  0.65204847  1
  Nb  Nb3  1  0.34795153  0.34795153  0.34795153  1
  Nb  Nb4  1  0.54930578  0.54930578  0.54930578  1
  Nb  Nb5  1  0.45069422  0.45069422  0.45069422  1
  Co  Co0  1  0.90642950  0.41703178  0.90642950  1
  Co  Co1  1  0.90642950  0.90642950  0.41703178  1
  Co  Co2  1  0.41703178  0.90642950  0.90642950  1
  Co  Co3  1  0.09357050  0.58296822  0.09357050  1
  Co  Co4  1  0.09357050  0.09357050  0.58296822  1
  Co  Co5  1  0.58296822  0.09357050  0.09357050  1
  W  W0  1  0.00000000  0.00000000  0.00000000  1
loop_
_geom_bond_atom_site_label_1
_geom_bond_atom_site_label_2
_geom_bond_distance
_geom_bond_site_symmetry_2
Nb2 Nb4 2.685057 1_555
Nb2 W0 2.869764 1_566
Nb2 W0 2.869764 1_665
Nb2 W0 2.869765 1_656
Nb2 Nb3 2.945061 1_556
Nb2 Nb3 2.945061 1_655
Nb2 Nb3 2.945062 1_565
Nb3 Nb5 2.685057 1_555
Nb3 W0 2.869764 1_655
Nb3 W0 2.869764 1_556
Nb3 W0 2.869765 1_565
Nb4 Nb5 2.577095 1_555
Co0 Co2 2.410938 1_555
Co0 Co1 2.410938 1_555
Co0 W0 2.473792 1_656
Co0 Co2 2.515399 1_645
Co0 Co1 2.515399 1_546
Co0 Nb5 2.683496 1_556
Co0 Nb5 2.683496 1_655
Co0 Nb1 2.747382 1_656
Co0 Nb0 2.751823 1_555
Co0 Nb2 2.761193 1_555
Co0 Nb3 2.948642 1_655
Co0 Nb3 2.948642 1_556
Co1 Co2 2.410938 1_555
Co1 W0 2.473791 1_665
Co1 Co2 2.515399 1_654
Co1 Nb5 2.683497 1_655
Co1 Nb5 2.683497 1_565
Co1 Nb1 2.747382 1_665
Co1 Nb0 2.751823 1_555
Co1 Nb2 2.761193 1_555
Co1 Nb3 2.948642 1_565
Co1 Nb3 2.948642 1_655
Co2 W0 2.473791 1_566
Co2 Nb5 2.683497 1_556
Co2 Nb5 2.683497 1_565
Co2 Nb1 2.747382 1_566
Co2 Nb0 2.751823 1_555
Co2 Nb2 2.761193 1_555
Co2 Nb3 2.948642 1_565
Co2 Nb3 2.948642 1_556
Co3 Co5 2.410938 1_555
Co3 Co4 2.410938 1_555
Co3 W0 2.473792 1_565
Co3 Co5 2.515399 1_465
Co3 Co4 2.515399 1_564
Co3 Nb4 2.683496 1_554
Co3 Nb4 2.683496 1_455
Co3 Nb0 2.747382 1_454
Co3 Nb1 2.751823 1_555
Co3 Nb3 2.761193 1_555
Co3 Nb2 2.948642 1_455
Co3 Nb2 2.948642 1_554
Co4 Co5 2.410938 1_555
Co4 W0 2.473791 1_556
Co4 Co5 2.515399 1_456
Co4 Nb4 2.683497 1_455
Co4 Nb4 2.683497 1_545
Co4 Nb0 2.747382 1_445
Co4 Nb1 2.751823 1_555
Co4 Nb3 2.761193 1_555
Co4 Nb2 2.948642 1_545
Co4 Nb2 2.948642 1_455
Co5 W0 2.473791 1_655
Co5 Nb4 2.683497 1_554
Co5 Nb4 2.683497 1_545
Co5 Nb0 2.747382 1_544
Co5 Nb1 2.751823 1_555
Co5 Nb3 2.761193 1_555
Co5 Nb2 2.948642 1_545
Co5 Nb2 2.948642 1_554
