# generated using pymatgen
data_Na3TaCd2O6
_symmetry_space_group_name_H-M   'P 1'
_cell_length_a   10.80803527
_cell_length_b   10.27669127
_cell_length_c   5.71739318
_cell_angle_alpha   79.46503407
_cell_angle_beta   69.19751250
_cell_angle_gamma   31.33746045
_symmetry_Int_Tables_number   1
_chemical_formula_structural   Na3TaCd2O6
_chemical_formula_sum   'Na6 Ta2 Cd4 O12'
_cell_volume   299.10394581
_cell_formula_units_Z   2
loop_
 _symmetry_equiv_pos_site_id
 _symmetry_equiv_pos_as_xyz
  1  'x, y, z'
loop_
 _atom_site_type_symbol
 _atom_site_label
 _atom_site_symmetry_multiplicity
 _atom_site_fract_x
 _atom_site_fract_y
 _atom_site_fract_z
 _atom_site_occupancy
  Na  Na0  1  0.00000000  0.00000000  0.00000000  1
  Na  Na1  1  0.08754844  0.08754844  0.41245156  1
  Na  Na2  1  0.83754844  0.83754844  0.16245156  1
  Na  Na3  1  0.16245156  0.16245156  0.83754844  1
  Na  Na4  1  0.25000000  0.25000000  0.25000000  1
  Na  Na5  1  0.41245156  0.41245156  0.08754844  1
  Ta  Ta0  1  0.75000000  0.75000000  0.75000000  1
  Ta  Ta1  1  0.50000000  0.50000000  0.50000000  1
  Cd  Cd0  1  0.58134420  0.58134420  0.91865580  1
  Cd  Cd1  1  0.91865580  0.91865580  0.58134420  1
  Cd  Cd2  1  0.66865580  0.66865580  0.33134420  1
  Cd  Cd3  1  0.33134420  0.33134420  0.66865580  1
  O  O0  1  0.28516990  0.71483010  0.28516990  1
  O  O1  1  0.71483010  0.28516990  0.71483010  1
  O  O2  1  0.96483010  0.53516990  0.96483010  1
  O  O3  1  0.53516990  0.96483010  0.53516990  1
  O  O4  1  0.20545575  0.64770391  0.79060706  1
  O  O5  1  0.35623328  0.79060706  0.64770391  1
  O  O6  1  0.79060706  0.35623328  0.20545575  1
  O  O7  1  0.64770391  0.20545575  0.35623328  1
  O  O8  1  0.60229609  0.04454425  0.89376672  1
  O  O9  1  0.89376672  0.45939294  0.60229609  1
  O  O10  1  0.45939294  0.89376672  0.04454425  1
  O  O11  1  0.04454425  0.60229609  0.45939294  1
loop_
_geom_bond_atom_site_label_1
_geom_bond_atom_site_label_2
_geom_bond_distance
_geom_bond_site_symmetry_2
Na0 O4 2.331338 1_544
Na0 O6 2.331338 1_455
Na0 O5 2.331339 1_544
Na0 O7 2.331339 1_455
Na0 O0 2.671840 1_545
Na0 O1 2.671840 1_454
Na1 O6 2.385341 1_455
Na1 O5 2.385341 1_545
Na1 O0 2.388051 1_545
Na1 O1 2.388052 1_455
Na1 O9 2.529329 1_455
Na1 O10 2.529329 1_545
Na2 O8 2.385341 1_564
Na2 O11 2.385341 1_655
Na2 O2 2.388051 1_554
Na2 O3 2.388052 1_555
Na2 O7 2.529329 1_565
Na2 O4 2.529329 1_654
Na3 O10 2.385341 1_546
Na3 O9 2.385341 1_455
Na3 O2 2.388051 1_455
Na3 O3 2.388052 1_545
Na3 O5 2.529329 1_545
Na3 O6 2.529329 1_456
Na4 O11 2.331338 1_555
Na4 O10 2.331338 1_545
Na4 O9 2.331339 1_455
Na4 O8 2.331339 1_554
Na4 O3 2.671840 1_545
Na4 O2 2.671840 1_454
Na5 O7 2.385341 1_555
Na5 O4 2.385341 1_554
Na5 O0 2.388051 1_555
Na5 O1 2.388052 1_554
Na5 O8 2.529329 1_554
Na5 O11 2.529329 1_555
Cd0 O1 2.303294 1_555
Cd0 O0 2.303294 1_556
Cd0 O5 2.337760 1_555
Cd0 O6 2.337760 1_556
Cd0 O10 2.346469 1_556
Cd0 O9 2.346469 1_555
Cd1 O1 2.303294 1_565
Cd1 O0 2.303294 1_655
Cd1 O4 2.337760 1_655
Cd1 O7 2.337760 1_565
Cd1 O11 2.346469 1_655
Cd1 O8 2.346469 1_565
Cd2 O3 2.303294 1_555
Cd2 O2 2.303294 1_554
Cd2 O9 2.337760 1_555
Cd2 O10 2.337760 1_555
Cd2 O6 2.346469 1_555
Cd2 O5 2.346469 1_555
Cd3 O3 2.303294 1_545
Cd3 O2 2.303294 1_455
Cd3 O11 2.337760 1_555
Cd3 O8 2.337760 1_555
Cd3 O4 2.346469 1_555
Cd3 O7 2.346469 1_555
O0 Ta1 2.012806 1_555
O1 Ta1 2.012806 1_555
O2 Ta0 2.012806 1_555
O3 Ta0 2.012806 1_555
O4 Ta1 2.027247 1_555
O5 Ta1 2.027247 1_555
O6 Ta1 2.027247 1_555
O7 Ta1 2.027247 1_555
O8 Ta0 2.027247 1_545
O9 Ta0 2.027247 1_555
O10 Ta0 2.027247 1_554
O11 Ta0 2.027247 1_455
