# generated using pymatgen
data_Sr3Ag2
_symmetry_space_group_name_H-M   'P 1'
_cell_length_a   8.48051405
_cell_length_b   8.48051413
_cell_length_c   8.48051514
_cell_angle_alpha   72.15370668
_cell_angle_beta   72.15371597
_cell_angle_gamma   72.15370861
_symmetry_Int_Tables_number   1
_chemical_formula_structural   Sr3Ag2
_chemical_formula_sum   'Sr9 Ag6'
_cell_volume   537.20857671
_cell_formula_units_Z   3
loop_
 _symmetry_equiv_pos_site_id
 _symmetry_equiv_pos_as_xyz
  1  'x, y, z'
loop_
 _atom_site_type_symbol
 _atom_site_label
 _atom_site_symmetry_multiplicity
 _atom_site_fract_x
 _atom_site_fract_y
 _atom_site_fract_z
 _atom_site_occupancy
  Sr  Sr0  1  0.16618408  0.88793044  0.66278254  1
  Sr  Sr1  1  0.88793044  0.66278254  0.16618408  1
  Sr  Sr2  1  0.66278254  0.16618408  0.88793044  1
  Sr  Sr3  1  0.83381592  0.11206856  0.33721746  1
  Sr  Sr4  1  0.11206856  0.33721746  0.83381592  1
  Sr  Sr5  1  0.33721746  0.83381592  0.11206856  1
  Sr  Sr6  1  0.50000000  0.50000000  0.50000000  1
  Sr  Sr7  1  0.29450786  0.29450786  0.29450786  1
  Sr  Sr8  1  0.70549214  0.70549214  0.70549214  1
  Ag  Ag0  1  0.53972390  0.91274260  0.36085972  1
  Ag  Ag1  1  0.91274260  0.36085972  0.53972390  1
  Ag  Ag2  1  0.36085972  0.53972390  0.91274260  1
  Ag  Ag3  1  0.46027610  0.08725740  0.63914028  1
  Ag  Ag4  1  0.08725740  0.63914028  0.46027610  1
  Ag  Ag5  1  0.63914028  0.46027610  0.08725740  1
loop_
_geom_bond_atom_site_label_1
_geom_bond_atom_site_label_2
_geom_bond_distance
_geom_bond_site_symmetry_2
Sr0 Sr6 3.927200 1_555
Sr1 Sr6 3.927200 1_555
Sr2 Sr6 3.927200 1_555
Sr3 Sr6 3.927206 1_555
Sr4 Sr6 3.927206 1_555
Sr5 Sr6 3.927206 1_555
Sr6 Sr7 3.833413 1_555
Sr6 Sr8 3.833413 1_555
Ag0 Ag3 2.961200 1_565
Ag0 Sr7 3.255298 1_565
Ag0 Sr3 3.344805 1_565
Ag0 Sr1 3.355493 1_555
Ag0 Sr8 3.385663 1_555
Ag0 Sr5 3.411739 1_555
Ag0 Sr6 3.421298 1_555
Ag0 Sr0 3.426673 1_555
Ag0 Sr2 3.914081 1_564
Ag1 Ag4 2.961200 1_655
Ag1 Sr7 3.255298 1_655
Ag1 Sr4 3.344805 1_655
Ag1 Sr2 3.355493 1_555
Ag1 Sr8 3.385663 1_555
Ag1 Sr3 3.411739 1_555
Ag1 Sr6 3.421298 1_555
Ag1 Sr1 3.426673 1_555
Ag1 Sr0 3.914080 1_645
Ag2 Ag5 2.961200 1_556
Ag2 Sr7 3.255298 1_556
Ag2 Sr5 3.344805 1_556
Ag2 Sr0 3.355493 1_555
Ag2 Sr8 3.385663 1_555
Ag2 Sr4 3.411739 1_555
Ag2 Sr6 3.421298 1_555
Ag2 Sr2 3.426673 1_555
Ag2 Sr1 3.914080 1_456
Ag3 Sr8 3.255298 1_545
Ag3 Sr0 3.344811 1_545
Ag3 Sr4 3.355498 1_555
Ag3 Sr7 3.385663 1_555
Ag3 Sr2 3.411732 1_555
Ag3 Sr6 3.421298 1_555
Ag3 Sr3 3.426672 1_555
Ag3 Sr5 3.914074 1_546
Ag4 Sr8 3.255298 1_455
Ag4 Sr1 3.344811 1_455
Ag4 Sr5 3.355498 1_555
Ag4 Sr7 3.385663 1_555
Ag4 Sr0 3.411732 1_555
Ag4 Sr6 3.421298 1_555
Ag4 Sr4 3.426672 1_555
Ag4 Sr3 3.914073 1_465
Ag5 Sr8 3.255298 1_554
Ag5 Sr2 3.344812 1_554
Ag5 Sr3 3.355497 1_555
Ag5 Sr7 3.385663 1_555
Ag5 Sr1 3.411732 1_555
Ag5 Sr6 3.421298 1_555
Ag5 Sr5 3.426672 1_555
Ag5 Sr4 3.914074 1_654
