# generated using pymatgen
data_Ca2Zr(Si3Pd10)2
_symmetry_space_group_name_H-M   'P 1'
_cell_length_a   8.62787694
_cell_length_b   8.62787681
_cell_length_c   8.62787785
_cell_angle_alpha   59.99999978
_cell_angle_beta   60.00000027
_cell_angle_gamma   60.00000617
_symmetry_Int_Tables_number   1
_chemical_formula_structural   Ca2Zr(Si3Pd10)2
_chemical_formula_sum   'Ca2 Zr1 Si6 Pd20'
_cell_volume   454.14745845
_cell_formula_units_Z   1
loop_
 _symmetry_equiv_pos_site_id
 _symmetry_equiv_pos_as_xyz
  1  'x, y, z'
loop_
 _atom_site_type_symbol
 _atom_site_label
 _atom_site_symmetry_multiplicity
 _atom_site_fract_x
 _atom_site_fract_y
 _atom_site_fract_z
 _atom_site_occupancy
  Ca  Ca0  1  0.25000000  0.25000000  0.25000000  1
  Ca  Ca1  1  0.75000000  0.75000000  0.75000000  1
  Zr  Zr0  1  0.00000000  0.00000000  0.00000000  1
  Si  Si0  1  0.73118852  0.26881148  0.26881148  1
  Si  Si1  1  0.26881148  0.73118852  0.73118852  1
  Si  Si2  1  0.26881148  0.73118852  0.26881148  1
  Si  Si3  1  0.73118852  0.26881148  0.73118852  1
  Si  Si4  1  0.26881148  0.26881148  0.73118852  1
  Si  Si5  1  0.73118852  0.73118852  0.26881148  1
  Pd  Pd0  1  0.38430314  0.38430314  0.38430314  1
  Pd  Pd1  1  0.61569686  0.61569686  0.61569686  1
  Pd  Pd2  1  0.38430314  0.38430314  0.84709257  1
  Pd  Pd3  1  0.38430314  0.84709257  0.38430314  1
  Pd  Pd4  1  0.61569686  0.61569686  0.15290743  1
  Pd  Pd5  1  0.61569686  0.15290743  0.61569686  1
  Pd  Pd6  1  0.84709257  0.38430314  0.38430314  1
  Pd  Pd7  1  0.15290743  0.61569686  0.61569686  1
  Pd  Pd8  1  0.34153157  1.00000000  0.00000000  1
  Pd  Pd9  1  0.65846843  0.00000000  1.00000000  1
  Pd  Pd10  1  1.00000000  0.34153157  0.65846843  1
  Pd  Pd11  1  0.00000000  0.65846843  0.34153157  1
  Pd  Pd12  1  1.00000000  0.34153157  0.00000000  1
  Pd  Pd13  1  0.65846843  0.00000000  0.34153157  1
  Pd  Pd14  1  0.00000000  0.65846843  1.00000000  1
  Pd  Pd15  1  0.34153157  1.00000000  0.65846843  1
  Pd  Pd16  1  1.00000000  1.00000000  0.34153157  1
  Pd  Pd17  1  0.00000000  0.00000000  0.65846843  1
  Pd  Pd18  1  0.65846843  0.34153157  0.00000000  1
  Pd  Pd19  1  0.34153157  0.65846843  1.00000000  1
loop_
_geom_bond_atom_site_label_1
_geom_bond_atom_site_label_2
_geom_bond_distance
_geom_bond_site_symmetry_2
Ca0 Pd3 2.838335 1_545
Ca0 Pd6 2.838335 1_455
Ca0 Pd2 2.838335 1_554
Ca0 Pd0 2.838349 1_555
Ca1 Pd5 2.838335 1_565
Ca1 Pd7 2.838335 1_655
Ca1 Pd4 2.838335 1_556
Ca1 Pd1 2.838349 1_555
Pd0 Si2 2.443681 1_555
Pd0 Si0 2.443681 1_555
Pd0 Si4 2.443681 1_555
Pd1 Si3 2.443681 1_555
Pd1 Si1 2.443681 1_555
Pd1 Si5 2.443681 1_555
Pd2 Si1 2.443681 1_555
Pd2 Si3 2.443681 1_555
Pd2 Si4 2.443695 1_555
Pd3 Si5 2.443681 1_555
Pd3 Si1 2.443681 1_555
Pd3 Si2 2.443695 1_555
Pd4 Si0 2.443681 1_555
Pd4 Si2 2.443681 1_555
Pd4 Si5 2.443695 1_555
Pd5 Si4 2.443681 1_555
Pd5 Si0 2.443681 1_555
Pd5 Si3 2.443695 1_555
Pd6 Si5 2.443681 1_555
Pd6 Si3 2.443681 1_555
Pd6 Si0 2.443695 1_555
Pd7 Si4 2.443681 1_555
Pd7 Si2 2.443681 1_555
Pd7 Si1 2.443695 1_555
Pd8 Si2 2.402640 1_555
Pd8 Si4 2.402640 1_564
Pd8 Zr0 2.946692 1_565
Pd9 Si3 2.402640 1_555
Pd9 Si5 2.402640 1_546
Pd9 Zr0 2.946692 1_656
Pd10 Si3 2.402640 1_555
Pd10 Si4 2.402640 1_655
Pd10 Zr0 2.946693 1_656
Pd11 Si2 2.402640 1_555
Pd11 Si5 2.402640 1_455
Pd11 Zr0 2.946693 1_565
Pd12 Si0 2.402640 1_555
Pd12 Si4 2.402640 1_654
Pd12 Zr0 2.946692 1_655
Pd13 Si0 2.402640 1_555
Pd13 Si5 2.402640 1_545
Pd13 Zr0 2.946693 1_655
Pd14 Si1 2.402640 1_555
Pd14 Si5 2.402640 1_456
Pd14 Zr0 2.946692 1_566
Pd15 Si1 2.402640 1_555
Pd15 Si4 2.402640 1_565
Pd15 Zr0 2.946693 1_566
Pd16 Si2 2.402640 1_655
Pd16 Si0 2.402640 1_565
Pd16 Zr0 2.946693 1_665
Pd17 Si3 2.402640 1_455
Pd17 Si1 2.402640 1_545
Pd17 Zr0 2.946693 1_556
Pd18 Si3 2.402640 1_554
Pd18 Si0 2.402640 1_555
Pd18 Zr0 2.946693 1_655
Pd19 Si2 2.402640 1_556
Pd19 Si1 2.402640 1_555
Pd19 Zr0 2.946693 1_566
