# generated using pymatgen
data_Hf16TiPt7O4
_symmetry_space_group_name_H-M   'P 1'
_cell_length_a   8.77978965
_cell_length_b   8.72884214
_cell_length_c   8.72884180
_cell_angle_alpha   60.00000502
_cell_angle_beta   60.19177570
_cell_angle_gamma   60.19177117
_symmetry_Int_Tables_number   1
_chemical_formula_structural   Hf16TiPt7O4
_chemical_formula_sum   'Hf16 Ti1 Pt7 O4'
_cell_volume   474.38964226
_cell_formula_units_Z   1
loop_
 _symmetry_equiv_pos_site_id
 _symmetry_equiv_pos_as_xyz
  1  'x, y, z'
loop_
 _atom_site_type_symbol
 _atom_site_label
 _atom_site_symmetry_multiplicity
 _atom_site_fract_x
 _atom_site_fract_y
 _atom_site_fract_z
 _atom_site_occupancy
  Hf  Hf0  1  0.13347288  0.62217571  0.62217571  1
  Hf  Hf1  1  0.62947067  0.10400632  0.63326150  1
  Hf  Hf2  1  0.62947067  0.63326150  0.10400632  1
  Hf  Hf3  1  0.62947067  0.63326150  0.63326150  1
  Hf  Hf4  1  0.81287887  0.80407799  0.19152157  1
  Hf  Hf5  1  0.18472609  0.18902856  0.81312217  1
  Hf  Hf6  1  0.81287887  0.19152157  0.80407799  1
  Hf  Hf7  1  0.18472609  0.81312217  0.18902856  1
  Hf  Hf8  1  0.18472609  0.81312217  0.81312217  1
  Hf  Hf9  1  0.81287887  0.19152157  0.19152157  1
  Hf  Hf10  1  0.43147929  0.43537351  0.06657310  1
  Hf  Hf11  1  0.05287415  0.07743442  0.43484572  1
  Hf  Hf12  1  0.43147929  0.06657310  0.43537351  1
  Hf  Hf13  1  0.05287415  0.43484572  0.07743442  1
  Hf  Hf14  1  0.05287415  0.43484572  0.43484572  1
  Hf  Hf15  1  0.43147929  0.06657310  0.06657310  1
  Ti  Ti0  1  0.74618958  0.41793681  0.41793681  1
  Pt  Pt0  1  0.42131549  0.77487724  0.40190363  1
  Pt  Pt1  1  0.42131549  0.40190363  0.77487724  1
  Pt  Pt2  1  0.42131549  0.40190363  0.40190363  1
  Pt  Pt3  1  0.44674497  0.85108468  0.85108468  1
  Pt  Pt4  1  0.85650367  0.45924479  0.84212577  1
  Pt  Pt5  1  0.85650367  0.84212577  0.45924479  1
  Pt  Pt6  1  0.85650367  0.84212577  0.84212577  1
  O  O0  1  0.61873657  0.12708748  0.12708748  1
  O  O1  1  0.12903643  0.62509991  0.12293183  1
  O  O2  1  0.12903643  0.12293183  0.62509991  1
  O  O3  1  0.12903643  0.12293183  0.12293183  1
loop_
_geom_bond_atom_site_label_1
_geom_bond_atom_site_label_2
_geom_bond_distance
_geom_bond_site_symmetry_2
Hf0 Pt5 2.772769 1_455
Hf0 Pt6 2.772769 1_455
Hf0 Pt4 2.772769 1_455
Hf0 Pt1 2.795620 1_555
Hf0 Pt2 2.795620 1_555
Hf0 Pt0 2.795620 1_555
Hf1 Pt3 2.711807 1_545
Hf1 Pt5 2.727246 1_545
Hf1 Pt6 2.727246 1_545
Hf1 Ti0 2.796120 1_555
Hf1 Pt1 2.805935 1_555
Hf1 Pt2 2.805935 1_555
Hf2 Pt3 2.711806 1_554
Hf2 Pt4 2.727246 1_554
Hf2 Pt6 2.727246 1_554
Hf2 Ti0 2.796120 1_555
Hf2 Pt0 2.805935 1_555
Hf2 Pt2 2.805935 1_555
Hf3 Pt3 2.711800 1_555
Hf3 Pt4 2.727246 1_555
Hf3 Pt5 2.727246 1_555
Hf3 Ti0 2.796120 1_555
Hf3 Pt0 2.805935 1_555
Hf3 Pt1 2.805935 1_555
Hf4 O1 2.340065 1_655
Hf4 O0 2.400132 1_565
Hf4 Pt5 2.740554 1_555
Hf4 Pt6 2.740554 1_554
Hf4 Pt0 3.063101 1_555
Hf4 Ti0 3.124050 1_555
Hf5 O2 2.300149 1_555
Hf5 O3 2.300158 1_556
Hf5 Pt4 2.654426 1_455
Hf5 Pt3 2.671580 1_545
Hf5 Pt2 3.225921 1_555
Hf5 Pt1 3.225925 1_555
Hf6 O2 2.340065 1_655
Hf6 O0 2.400132 1_556
Hf6 Pt4 2.740554 1_555
Hf6 Pt6 2.740554 1_545
Hf6 Pt1 3.063101 1_555
Hf6 Ti0 3.124050 1_555
Hf7 O1 2.300149 1_555
Hf7 O3 2.300158 1_565
Hf7 Pt5 2.654427 1_455
Hf7 Pt3 2.671581 1_554
Hf7 Pt2 3.225921 1_555
Hf7 Pt0 3.225925 1_555
Hf8 O2 2.300156 1_565
Hf8 O1 2.300156 1_556
Hf8 Pt6 2.654423 1_455
Hf8 Pt3 2.671580 1_555
Hf8 Pt1 3.225918 1_555
Hf8 Pt0 3.225918 1_555
Hf9 O3 2.340065 1_655
Hf9 O0 2.400138 1_555
Hf9 Pt5 2.740554 1_545
Hf9 Pt4 2.740554 1_554
Hf9 Pt2 3.063101 1_555
Hf9 Ti0 3.124050 1_555
Hf10 O1 2.275886 1_555
Hf10 O0 2.294960 1_555
Hf10 Pt1 2.751720 1_554
Hf10 Pt2 2.751729 1_555
Hf10 Pt3 3.182886 1_554
Hf11 O2 2.321720 1_555
Hf11 O3 2.321720 1_555
Hf11 Ti0 2.847071 1_455
Hf11 Pt0 2.977026 1_545
Hf12 O2 2.275886 1_555
Hf12 O0 2.294960 1_555
Hf12 Pt0 2.751720 1_545
Hf12 Pt2 2.751729 1_555
Hf12 Pt3 3.182886 1_545
Hf13 O1 2.321720 1_555
Hf13 O3 2.321720 1_555
Hf13 Ti0 2.847071 1_455
Hf13 Pt1 2.977027 1_554
Hf14 O2 2.321720 1_555
Hf14 O1 2.321720 1_555
Hf14 Ti0 2.847071 1_455
Hf14 Pt2 2.977027 1_555
Hf15 O3 2.275884 1_555
Hf15 O0 2.294960 1_555
Hf15 Pt0 2.751726 1_545
Hf15 Pt1 2.751726 1_554
Hf15 Pt3 3.182886 1_544
Pt0 Ti0 2.998043 1_555
Pt1 Ti0 2.998043 1_555
Pt2 Ti0 2.998043 1_555
