# generated using pymatgen
data_Rb3Bi(PO4)2
_symmetry_space_group_name_H-M   'P 1'
_cell_length_a   5.66719738
_cell_length_b   5.66719630
_cell_length_c   8.24004496
_cell_angle_alpha   89.31292407
_cell_angle_beta   89.31292621
_cell_angle_gamma   60.57612755
_symmetry_Int_Tables_number   1
_chemical_formula_structural   Rb3Bi(PO4)2
_chemical_formula_sum   'Rb3 Bi1 P2 O8'
_cell_volume   230.48731926
_cell_formula_units_Z   1
loop_
 _symmetry_equiv_pos_site_id
 _symmetry_equiv_pos_as_xyz
  1  'x, y, z'
loop_
 _atom_site_type_symbol
 _atom_site_label
 _atom_site_symmetry_multiplicity
 _atom_site_fract_x
 _atom_site_fract_y
 _atom_site_fract_z
 _atom_site_occupancy
  Rb  Rb0  1  0.68834165  0.68834165  0.22582175  1
  Rb  Rb1  1  0.00000000  0.00000000  0.00000000  1
  Rb  Rb2  1  0.31165935  0.31165835  0.77417825  1
  Bi  Bi0  1  0.00000000  0.00000000  0.50000000  1
  P  P0  1  0.65687441  0.65687441  0.71652347  1
  P  P1  1  0.34312559  0.34312559  0.28347653  1
  O  O0  1  0.28223469  0.28223469  0.11502754  1
  O  O1  1  0.22985317  0.22985317  0.41542491  1
  O  O2  1  0.34411939  0.78570420  0.69653271  1
  O  O3  1  0.78570420  0.34411939  0.69653271  1
  O  O4  1  0.21429580  0.65588061  0.30346729  1
  O  O5  1  0.65588061  0.21429580  0.30346729  1
  O  O6  1  0.77014683  0.77014683  0.58457509  1
  O  O7  1  0.71776531  0.71776531  0.88497246  1
loop_
_geom_bond_atom_site_label_1
_geom_bond_atom_site_label_2
_geom_bond_distance
_geom_bond_site_symmetry_2
Bi0 O1 2.345842 1_555
Bi0 O6 2.345842 1_445
Bi0 O3 2.366908 1_455
Bi0 O4 2.366908 1_545
Bi0 O2 2.366908 1_545
Bi0 O5 2.366908 1_455
O0 P1 1.518143 1_555
O0 Rb2 2.819358 1_554
O0 Rb1 2.932818 1_555
O0 Rb0 3.134354 1_545
O0 Rb0 3.134355 1_455
O1 P1 1.541982 1_555
O1 Rb2 3.073364 1_555
O1 Rb0 3.285289 1_545
O1 Rb0 3.285289 1_455
O2 P0 1.560256 1_555
O2 Rb2 2.846411 1_555
O2 Rb2 2.971842 1_565
O2 Rb1 3.026532 1_566
O3 P0 1.560255 1_555
O3 Rb2 2.846409 1_555
O3 Rb2 2.971846 1_655
O3 Rb1 3.026532 1_656
O4 P1 1.560255 1_555
O4 Rb0 2.846414 1_555
O4 Rb0 2.971840 1_455
O4 Rb1 3.026532 1_565
O5 P1 1.560256 1_555
O5 Rb0 2.846414 1_555
O5 Rb0 2.971840 1_545
O5 Rb1 3.026532 1_655
O6 P0 1.541982 1_555
O6 Rb0 3.073363 1_555
O6 Rb2 3.285287 1_565
O6 Rb2 3.285292 1_655
O7 P0 1.518143 1_555
O7 Rb0 2.819357 1_556
O7 Rb1 2.932818 1_666
O7 Rb2 3.134353 1_565
O7 Rb2 3.134359 1_655
