# generated using pymatgen
data_Zr10Ga4Ge2S
_symmetry_space_group_name_H-M   'P 1'
_cell_length_a   8.16139128
_cell_length_b   8.15812216
_cell_length_c   5.75819065
_cell_angle_alpha   90.09677874
_cell_angle_beta   89.80652678
_cell_angle_gamma   120.01327653
_symmetry_Int_Tables_number   1
_chemical_formula_structural   Zr10Ga4Ge2S
_chemical_formula_sum   'Zr10 Ga4 Ge2 S1'
_cell_volume   331.97890076
_cell_formula_units_Z   1
loop_
 _symmetry_equiv_pos_site_id
 _symmetry_equiv_pos_as_xyz
  1  'x, y, z'
loop_
 _atom_site_type_symbol
 _atom_site_label
 _atom_site_symmetry_multiplicity
 _atom_site_fract_x
 _atom_site_fract_y
 _atom_site_fract_z
 _atom_site_occupancy
  Zr  Zr0  1  0.99907759  0.74597330  0.24053263  1
  Zr  Zr1  1  0.25310529  0.25402670  0.24053263  1
  Zr  Zr2  1  0.74869657  1.00000000  0.24067450  1
  Zr  Zr3  1  0.99976697  0.25422784  0.75853639  1
  Zr  Zr4  1  0.74553913  0.74577216  0.75853639  1
  Zr  Zr5  1  0.25210907  0.00000000  0.76182820  1
  Zr  Zr6  1  0.33369995  0.66557003  0.49991304  1
  Zr  Zr7  1  0.66813192  0.33442997  0.49991304  1
  Zr  Zr8  1  0.66674377  0.33306393  0.99933221  1
  Zr  Zr9  1  0.33367884  0.66693607  0.99933221  1
  Ga  Ga0  1  0.39214501  0.00000000  0.25026061  1
  Ga  Ga1  1  0.00045094  0.60932040  0.75154515  1
  Ga  Ga2  1  0.39113054  0.39067960  0.75154515  1
  Ga  Ga3  1  0.60675980  1.00000000  0.75131983  1
  Ge  Ge0  1  0.00006764  0.39184307  0.24736969  1
  Ge  Ge1  1  0.60822457  0.60815693  0.24736969  1
  S  S0  1  0.00067240  1.00000000  0.50145765  1
loop_
_geom_bond_atom_site_label_1
_geom_bond_atom_site_label_2
_geom_bond_distance
_geom_bond_site_symmetry_2
Ga0 Zr1 2.817621 1_555
Ga0 Zr0 2.817627 1_445
Ga0 Zr9 2.897030 1_544
Ga0 Zr8 2.897032 1_554
Ga0 Zr6 2.905942 1_545
Ga0 Zr7 2.905947 1_555
Ga0 Zr2 2.910294 1_545
Ga0 Zr5 3.039405 1_554
Ga0 Zr5 3.156046 1_555
Ga1 Zr5 2.798509 1_565
Ga1 Zr4 2.808052 1_455
Ga1 Zr8 2.894253 1_455
Ga1 Zr3 2.894448 1_455
Ga1 Zr9 2.897941 1_555
Ga1 Zr7 2.900932 1_455
Ga1 Zr6 2.904179 1_555
Ga1 Zr0 3.028651 1_456
Ga1 Zr0 3.150417 1_455
Ga2 Zr5 2.798510 1_555
Ga2 Zr3 2.808051 1_455
Ga2 Zr9 2.894258 1_555
Ga2 Zr4 2.894447 1_555
Ga2 Zr8 2.897949 1_555
Ga2 Zr6 2.900942 1_555
Ga2 Zr7 2.904193 1_555
Ga2 Zr1 3.028650 1_556
Ga2 Zr1 3.150416 1_555
Ga3 Zr3 2.817233 1_565
Ga3 Zr4 2.817234 1_555
Ga3 Zr8 2.884972 1_565
Ga3 Zr9 2.884974 1_555
Ga3 Zr5 2.894871 1_565
Ga3 Zr7 2.903727 1_565
Ga3 Zr6 2.903731 1_555
Ga3 Zr2 3.050233 1_556
Ga3 Zr2 3.156708 1_555
Ge0 Zr1 2.802243 1_555
Ge0 Zr2 2.805091 1_445
Ge0 Zr9 2.891613 1_554
Ge0 Zr0 2.893422 1_455
Ge0 Zr7 2.894713 1_455
Ge0 Zr8 2.896419 1_454
Ge0 Zr6 2.906618 1_555
Ge0 Zr3 3.028219 1_454
Ge0 Zr3 3.151564 1_455
Ge1 Zr0 2.802235 1_555
Ge1 Zr2 2.805091 1_555
Ge1 Zr8 2.891618 1_554
Ge1 Zr1 2.893418 1_555
Ge1 Zr6 2.894727 1_555
Ge1 Zr9 2.896426 1_554
Ge1 Zr7 2.906628 1_555
Ge1 Zr4 3.028219 1_554
Ge1 Zr4 3.151564 1_555
S0 Zr5 2.545500 1_565
S0 Zr4 2.549082 1_455
S0 Zr3 2.549082 1_465
S0 Zr2 2.550462 1_455
S0 Zr0 2.552437 1_455
S0 Zr1 2.552440 1_565
