# generated using pymatgen
data_TaNb4B2As
_symmetry_space_group_name_H-M   'P 1'
_cell_length_a   7.34575722
_cell_length_b   7.34575783
_cell_length_c   7.34575758
_cell_angle_alpha   129.44449376
_cell_angle_beta   129.44449729
_cell_angle_gamma   74.29641138
_symmetry_Int_Tables_number   1
_chemical_formula_structural   TaNb4B2As
_chemical_formula_sum   'Ta2 Nb8 B4 As2'
_cell_volume   230.43004731
_cell_formula_units_Z   2
loop_
 _symmetry_equiv_pos_site_id
 _symmetry_equiv_pos_as_xyz
  1  'x, y, z'
loop_
 _atom_site_type_symbol
 _atom_site_label
 _atom_site_symmetry_multiplicity
 _atom_site_fract_x
 _atom_site_fract_y
 _atom_site_fract_z
 _atom_site_occupancy
  Ta  Ta0  1  0.50000000  0.50000000  0.00000000  1
  Ta  Ta1  1  0.00000000  0.00000000  0.00000000  1
  Nb  Nb0  1  0.52879792  0.69553163  0.50000000  1
  Nb  Nb1  1  0.19553163  0.02879792  0.50000000  1
  Nb  Nb2  1  0.02879792  0.52879792  0.83326729  1
  Nb  Nb3  1  0.69553163  0.19553163  0.16673271  1
  Nb  Nb4  1  0.47120208  0.30446837  0.50000000  1
  Nb  Nb5  1  0.80446837  0.97120208  0.50000000  1
  Nb  Nb6  1  0.97120208  0.47120208  0.16673271  1
  Nb  Nb7  1  0.30446837  0.80446837  0.83326729  1
  B  B0  1  0.88351169  0.61648831  0.50000000  1
  B  B1  1  0.11648831  0.38351169  0.50000000  1
  B  B2  1  0.38351169  0.88351169  0.26702138  1
  B  B3  1  0.61648831  0.11648831  0.73297862  1
  As  As0  1  0.25000000  0.25000000  0.00000000  1
  As  As1  1  0.75000000  0.75000000  0.00000000  1
loop_
_geom_bond_atom_site_label_1
_geom_bond_atom_site_label_2
_geom_bond_distance
_geom_bond_site_symmetry_2
Nb0 Ta1 2.841077 1_666
Nb0 Ta0 2.841077 1_555
Nb1 Ta0 2.841077 1_556
Nb1 Ta1 2.841077 1_555
Nb2 Ta0 2.841079 1_556
Nb2 Ta1 2.841080 1_566
Nb3 Ta1 2.841073 1_655
Nb3 Ta0 2.841073 1_555
Nb4 Ta1 2.841077 1_555
Nb4 Ta0 2.841077 1_556
Nb5 Ta0 2.841077 1_555
Nb5 Ta1 2.841077 1_666
Nb6 Ta0 2.841079 1_555
Nb6 Ta1 2.841080 1_655
Nb7 Ta1 2.841073 1_566
Nb7 Ta0 2.841073 1_556
B0 B1 2.066944 1_655
B0 Nb7 2.420507 1_655
B0 Nb3 2.420507 1_555
B0 Nb2 2.420515 1_655
B0 Nb6 2.420515 1_555
B0 Nb0 2.511478 1_555
B0 Nb5 2.511479 1_555
B0 Ta0 2.514448 1_555
B0 Ta1 2.514448 1_666
B1 Nb3 2.420507 1_455
B1 Nb7 2.420507 1_555
B1 Nb6 2.420515 1_455
B1 Nb2 2.420515 1_555
B1 Nb4 2.511478 1_555
B1 Nb1 2.511479 1_555
B1 Ta0 2.514448 1_556
B1 Ta1 2.514448 1_555
B2 B3 2.066962 1_565
B2 Nb5 2.420504 1_555
B2 Nb4 2.420504 1_565
B2 Nb1 2.420520 1_565
B2 Nb0 2.420520 1_555
B2 Nb7 2.511457 1_554
B2 Nb2 2.511479 1_554
B2 Ta1 2.514444 1_565
B2 Ta0 2.514444 1_555
B3 Nb1 2.420504 1_555
B3 Nb0 2.420504 1_545
B3 Nb5 2.420520 1_545
B3 Nb4 2.420520 1_555
B3 Nb3 2.511457 1_556
B3 Nb6 2.511479 1_556
B3 Ta1 2.514444 1_656
B3 Ta0 2.514444 1_556
As0 Nb6 2.681725 1_455
As0 Nb2 2.681725 1_554
As0 Nb5 2.681729 1_444
As0 Nb0 2.681729 1_555
As0 Nb4 2.681729 1_555
As0 Nb1 2.681729 1_554
As0 Nb3 2.681731 1_555
As0 Nb7 2.681731 1_544
As0 Ta0 2.927564 1_555
As0 Ta1 2.927564 1_555
As1 Nb2 2.681725 1_654
As1 Nb6 2.681725 1_555
As1 Nb1 2.681729 1_665
As1 Nb4 2.681729 1_554
As1 Nb0 2.681729 1_554
As1 Nb5 2.681729 1_555
As1 Nb7 2.681731 1_554
As1 Nb3 2.681731 1_565
As1 Ta1 2.927564 1_665
As1 Ta0 2.927564 1_555
