# generated using pymatgen
data_Hf16Nb3TcNi4
_symmetry_space_group_name_H-M   'P 1'
_cell_length_a   8.68207412
_cell_length_b   8.68207337
_cell_length_c   8.68207433
_cell_angle_alpha   60.30525676
_cell_angle_beta   60.30525886
_cell_angle_gamma   60.30526059
_symmetry_Int_Tables_number   1
_chemical_formula_structural   Hf16Nb3TcNi4
_chemical_formula_sum   'Hf16 Nb3 Tc1 Ni4'
_cell_volume   465.95613342
_cell_formula_units_Z   1
loop_
 _symmetry_equiv_pos_site_id
 _symmetry_equiv_pos_as_xyz
  1  'x, y, z'
loop_
 _atom_site_type_symbol
 _atom_site_label
 _atom_site_symmetry_multiplicity
 _atom_site_fract_x
 _atom_site_fract_y
 _atom_site_fract_z
 _atom_site_occupancy
  Hf  Hf0  1  0.69649810  0.10164518  0.10164518  1
  Hf  Hf1  1  0.10164518  0.69649810  0.10164518  1
  Hf  Hf2  1  0.10164518  0.10164518  0.69649810  1
  Hf  Hf3  1  0.10063962  0.10063962  0.10063962  1
  Hf  Hf4  1  0.31387929  0.31387929  0.68172096  1
  Hf  Hf5  1  0.68546654  0.68546654  0.31393790  1
  Hf  Hf6  1  0.31387929  0.68172096  0.31387929  1
  Hf  Hf7  1  0.68546654  0.31393790  0.68546654  1
  Hf  Hf8  1  0.68172096  0.31387929  0.31387929  1
  Hf  Hf9  1  0.31393790  0.68546654  0.68546654  1
  Hf  Hf10  1  0.94810475  0.94810475  0.55189441  1
  Hf  Hf11  1  0.55084728  0.55084728  0.94979841  1
  Hf  Hf12  1  0.94810475  0.55189441  0.94810475  1
  Hf  Hf13  1  0.55084728  0.94979841  0.55084728  1
  Hf  Hf14  1  0.55189441  0.94810475  0.94810475  1
  Hf  Hf15  1  0.94979841  0.55084728  0.55084728  1
  Nb  Nb0  1  0.00133006  0.33396447  0.33396447  1
  Nb  Nb1  1  0.33396447  0.00133006  0.33396447  1
  Nb  Nb2  1  0.33396447  0.33396447  0.00133006  1
  Tc  Tc0  1  0.33709106  0.33709106  0.33709106  1
  Ni  Ni0  1  0.32415248  0.89140585  0.89140585  1
  Ni  Ni1  1  0.89140585  0.32415248  0.89140585  1
  Ni  Ni2  1  0.89140585  0.89140585  0.32415248  1
  Ni  Ni3  1  0.89230725  0.89230725  0.89230725  1
loop_
_geom_bond_atom_site_label_1
_geom_bond_atom_site_label_2
_geom_bond_distance
_geom_bond_site_symmetry_2
Hf0 Ni1 2.571429 1_554
Hf0 Ni2 2.571429 1_545
Hf0 Ni3 2.578158 1_544
Hf0 Nb1 3.069117 1_555
Hf0 Nb2 3.069118 1_555
Hf0 Tc0 3.097539 1_555
Hf0 Hf8 3.114888 1_555
Hf0 Hf5 3.167325 1_545
Hf0 Hf7 3.167325 1_554
Hf1 Ni0 2.571429 1_554
Hf1 Ni2 2.571429 1_455
Hf1 Ni3 2.578158 1_454
Hf1 Nb0 3.069117 1_555
Hf1 Nb2 3.069117 1_555
Hf1 Tc0 3.097539 1_555
Hf1 Hf6 3.114888 1_555
Hf1 Hf5 3.167325 1_455
Hf1 Hf9 3.167325 1_554
Hf2 Ni1 2.571429 1_455
Hf2 Ni0 2.571429 1_545
Hf2 Ni3 2.578158 1_445
Hf2 Nb0 3.069118 1_555
Hf2 Nb1 3.069118 1_555
Hf2 Tc0 3.097538 1_555
Hf2 Hf4 3.114888 1_555
Hf2 Hf9 3.167325 1_545
Hf2 Hf7 3.167325 1_455
Hf3 Ni2 2.578755 1_445
Hf3 Ni0 2.578755 1_544
Hf3 Ni1 2.578755 1_454
Hf3 Nb2 3.091187 1_555
Hf3 Nb0 3.091187 1_555
Hf3 Nb1 3.091187 1_555
Hf3 Hf6 3.183814 1_545
Hf3 Hf4 3.183814 1_554
Hf3 Hf8 3.183814 1_455
Hf4 Tc0 2.807011 1_555
Hf4 Nb2 2.957985 1_556
Hf4 Ni0 3.161797 1_545
Hf4 Ni1 3.161798 1_455
Hf4 Hf6 3.208352 1_555
Hf4 Hf8 3.208353 1_555
Hf4 Hf9 3.242634 1_555
Hf4 Hf7 3.242634 1_555
Hf5 Nb0 2.918738 1_655
Hf5 Nb1 2.918738 1_565
Hf5 Ni2 3.143746 1_555
Hf5 Ni3 3.165298 1_554
Hf5 Hf7 3.240511 1_555
Hf5 Hf9 3.240511 1_555
Hf5 Hf8 3.242634 1_555
Hf5 Hf6 3.242634 1_555
Hf6 Tc0 2.807011 1_555
Hf6 Nb1 2.957984 1_565
Hf6 Ni0 3.161798 1_554
Hf6 Ni2 3.161798 1_455
Hf6 Hf8 3.208353 1_555
Hf6 Hf9 3.242634 1_555
Hf7 Nb0 2.918738 1_655
Hf7 Nb2 2.918738 1_556
Hf7 Ni1 3.143746 1_555
Hf7 Ni3 3.165297 1_545
Hf7 Hf9 3.240511 1_555
Hf7 Hf8 3.242634 1_555
Hf8 Tc0 2.807011 1_555
Hf8 Nb0 2.957985 1_655
Hf8 Ni2 3.161798 1_545
Hf8 Ni1 3.161798 1_554
Hf9 Nb2 2.918738 1_556
Hf9 Nb1 2.918738 1_565
Hf9 Ni0 3.143746 1_555
Hf9 Ni3 3.165298 1_455
Hf10 Ni2 2.561840 1_555
Hf10 Ni3 2.568998 1_555
Hf10 Nb0 3.066584 1_665
Hf10 Nb1 3.066584 1_665
Hf10 Hf7 3.238274 1_565
Hf10 Hf9 3.238275 1_655
Hf10 Hf8 3.265069 1_565
Hf10 Hf6 3.265069 1_655
Hf11 Ni0 2.571179 1_555
Hf11 Ni1 2.571179 1_555
Hf11 Nb2 3.022424 1_556
Hf11 Tc0 3.040044 1_556
Hf11 Hf8 3.211669 1_556
Hf11 Hf6 3.211669 1_556
Hf11 Hf7 3.240526 1_555
Hf11 Hf9 3.240526 1_555
Hf12 Ni1 2.561840 1_555
Hf12 Ni3 2.568998 1_555
Hf12 Nb0 3.066584 1_656
Hf12 Nb2 3.066584 1_656
Hf12 Hf9 3.238274 1_655
Hf12 Hf5 3.238275 1_556
Hf12 Hf8 3.265069 1_556
Hf12 Hf4 3.265069 1_655
Hf13 Ni0 2.571179 1_555
Hf13 Ni2 2.571180 1_555
Hf13 Nb1 3.022424 1_565
Hf13 Tc0 3.040044 1_565
Hf13 Hf8 3.211669 1_565
Hf13 Hf4 3.211669 1_565
Hf13 Hf9 3.240526 1_555
Hf13 Hf5 3.240526 1_555
Hf14 Ni0 2.561840 1_555
Hf14 Ni3 2.568998 1_555
Hf14 Nb2 3.066584 1_566
Hf14 Nb1 3.066584 1_566
Hf14 Hf7 3.238274 1_565
Hf14 Hf5 3.238275 1_556
Hf14 Hf6 3.265069 1_556
Hf14 Hf4 3.265069 1_565
Hf15 Ni2 2.571179 1_555
Hf15 Ni1 2.571179 1_555
Hf15 Nb0 3.022424 1_655
Hf15 Tc0 3.040044 1_655
Hf15 Hf6 3.211669 1_655
Hf15 Hf4 3.211669 1_655
Hf15 Hf7 3.240526 1_555
Hf15 Hf5 3.240526 1_555
Nb0 Nb1 2.901271 1_555
Nb0 Nb2 2.901271 1_555
Nb0 Tc0 2.942248 1_555
Nb1 Nb2 2.901271 1_555
Nb1 Tc0 2.942248 1_555
Nb2 Tc0 2.942248 1_555
