# generated using pymatgen
data_LiTc(OF2)2
_symmetry_space_group_name_H-M   'P 1'
_cell_length_a   4.65173109
_cell_length_b   4.65173109
_cell_length_c   8.79788818
_cell_angle_alpha   90.00000000
_cell_angle_beta   90.00000000
_cell_angle_gamma   90.00000000
_symmetry_Int_Tables_number   1
_chemical_formula_structural   LiTc(OF2)2
_chemical_formula_sum   'Li2 Tc2 O4 F8'
_cell_volume   190.37400190
_cell_formula_units_Z   2
loop_
 _symmetry_equiv_pos_site_id
 _symmetry_equiv_pos_as_xyz
  1  'x, y, z'
loop_
 _atom_site_type_symbol
 _atom_site_label
 _atom_site_symmetry_multiplicity
 _atom_site_fract_x
 _atom_site_fract_y
 _atom_site_fract_z
 _atom_site_occupancy
  Li  Li0  1  0.00000000  0.50000000  0.42003380  1
  Li  Li1  1  0.50000000  0.00000000  0.57996620  1
  Tc  Tc0  1  0.00000000  0.50000000  0.77537006  1
  Tc  Tc1  1  0.50000000  0.00000000  0.22462994  1
  O  O0  1  0.19689751  0.30310249  0.89250768  1
  O  O1  1  0.30310249  0.80310249  0.10749232  1
  O  O2  1  0.80310249  0.69689751  0.89250768  1
  O  O3  1  0.69689751  0.19689751  0.10749232  1
  F  F0  1  0.68837944  0.18837944  0.40513117  1
  F  F1  1  0.81162056  0.68837944  0.59486883  1
  F  F2  1  0.31162056  0.81162056  0.40513117  1
  F  F3  1  0.28131990  0.78131990  0.74017146  1
  F  F4  1  0.71868010  0.21868010  0.74017146  1
  F  F5  1  0.21868010  0.28131990  0.25982854  1
  F  F6  1  0.78131990  0.71868010  0.25982854  1
  F  F7  1  0.18837944  0.31162056  0.59486883  1
loop_
_geom_bond_atom_site_label_1
_geom_bond_atom_site_label_2
_geom_bond_distance
_geom_bond_site_symmetry_2
O0 Tc0 1.655252 1_555
O1 Tc1 1.655252 1_565
O2 Tc0 1.655252 1_655
O3 Tc1 1.655252 1_555
F0 Li1 1.975289 1_555
F0 Tc1 2.014351 1_555
F0 Li0 2.054197 1_655
F1 Li0 1.975289 1_655
F1 Tc0 2.014351 1_655
F1 Li1 2.054197 1_565
F2 Li1 1.975289 1_565
F2 Tc1 2.014351 1_565
F2 Li0 2.054197 1_555
F3 Tc0 1.876404 1_555
F3 Li1 2.013991 1_565
F4 Tc0 1.876404 1_655
F4 Li1 2.013991 1_555
F5 Tc1 1.876404 1_555
F5 Li0 2.013991 1_555
F6 Tc1 1.876404 1_565
F6 Li0 2.013991 1_655
F7 Li0 1.975289 1_555
F7 Tc0 2.014351 1_555
F7 Li1 2.054197 1_555
