# generated using pymatgen
data_HoInCu
_symmetry_space_group_name_H-M   'P 1'
_cell_length_a   7.39629903
_cell_length_b   7.39629945
_cell_length_c   3.90677181
_cell_angle_alpha   90.00000000
_cell_angle_beta   90.00000000
_cell_angle_gamma   119.99999808
_symmetry_Int_Tables_number   1
_chemical_formula_structural   HoInCu
_chemical_formula_sum   'Ho3 In3 Cu3'
_cell_volume   185.08773143
_cell_formula_units_Z   3
loop_
 _symmetry_equiv_pos_site_id
 _symmetry_equiv_pos_as_xyz
  1  'x, y, z'
loop_
 _atom_site_type_symbol
 _atom_site_label
 _atom_site_symmetry_multiplicity
 _atom_site_fract_x
 _atom_site_fract_y
 _atom_site_fract_z
 _atom_site_occupancy
  Ho  Ho0  1  1.00000000  0.58995681  0.50000000  1
  Ho  Ho1  1  0.41004319  0.41004319  0.50000000  1
  Ho  Ho2  1  0.58995681  0.00000000  0.50000000  1
  In  In0  1  0.74534233  0.74534233  0.00000000  1
  In  In1  1  1.00000000  0.25465767  0.00000000  1
  In  In2  1  0.25465767  0.00000000  -0.00000000  1
  Cu  Cu0  1  0.33333300  0.66666700  -0.00000000  1
  Cu  Cu1  1  0.00000000  0.00000000  0.50000000  1
  Cu  Cu2  1  0.66666700  0.33333300  -0.00000000  1
loop_
_geom_bond_atom_site_label_1
_geom_bond_atom_site_label_2
_geom_bond_distance
_geom_bond_site_symmetry_2
Ho0 In1 3.156894 1_555
Ho0 In1 3.156894 1_556
Ho0 In0 3.293769 1_555
Ho0 In0 3.293769 1_556
Ho0 In2 3.293769 1_666
Ho0 In2 3.293769 1_665
Ho1 In0 3.156894 1_555
Ho1 In0 3.156894 1_556
Ho1 In1 3.293769 1_456
Ho1 In1 3.293769 1_455
Ho1 In2 3.293769 1_555
Ho1 In2 3.293769 1_556
Ho2 In2 3.156894 1_556
Ho2 In2 3.156894 1_555
Ho2 In0 3.293769 1_545
Ho2 In0 3.293769 1_546
Ho2 In1 3.293769 1_555
Ho2 In1 3.293769 1_556
Cu0 In2 2.802073 1_565
Cu0 In1 2.802078 1_455
Cu0 In0 2.802080 1_555
Cu0 Ho0 2.969370 1_455
Cu0 Ho0 2.969370 1_454
Cu0 Ho2 2.969372 1_565
Cu0 Ho2 2.969372 1_564
Cu0 Ho1 2.969376 1_555
Cu0 Ho1 2.969376 1_554
Cu1 In2 2.713555 1_556
Cu1 In2 2.713555 1_555
Cu1 In1 2.713555 1_456
Cu1 In1 2.713555 1_455
Cu1 In0 2.713555 1_445
Cu1 In0 2.713555 1_446
Cu1 Ho2 3.032802 1_455
Cu1 Ho0 3.032802 1_445
Cu1 Ho1 3.032802 1_555
Cu2 In1 2.802073 1_555
Cu2 In2 2.802078 1_555
Cu2 In0 2.802080 1_555
Cu2 Ho2 2.969370 1_554
Cu2 Ho2 2.969370 1_555
Cu2 Ho0 2.969372 1_555
Cu2 Ho0 2.969372 1_554
Cu2 Ho1 2.969376 1_555
Cu2 Ho1 2.969376 1_554
