# generated using pymatgen
data_YZn3PdAu
_symmetry_space_group_name_H-M   'P 1'
_cell_length_a   5.18394403
_cell_length_b   5.18394487
_cell_length_c   5.19297703
_cell_angle_alpha   60.05751325
_cell_angle_beta   60.05750871
_cell_angle_gamma   59.99998551
_symmetry_Int_Tables_number   1
_chemical_formula_structural   YZn3PdAu
_chemical_formula_sum   'Y1 Zn3 Pd1 Au1'
_cell_volume   98.76407740
_cell_formula_units_Z   1
loop_
 _symmetry_equiv_pos_site_id
 _symmetry_equiv_pos_as_xyz
  1  'x, y, z'
loop_
 _atom_site_type_symbol
 _atom_site_label
 _atom_site_symmetry_multiplicity
 _atom_site_fract_x
 _atom_site_fract_y
 _atom_site_fract_z
 _atom_site_occupancy
  Y  Y0  1  0.99872862  0.99872862  0.00381315  1
  Zn  Zn0  1  0.62386979  0.13145400  0.62080641  1
  Zn  Zn1  1  0.13145400  0.62386979  0.62080641  1
  Zn  Zn2  1  0.62386979  0.62386979  0.62080641  1
  Pd  Pd0  1  0.62773863  0.62773863  0.11678610  1
  Au  Au0  1  0.24433916  0.24433916  0.26698351  1
loop_
_geom_bond_atom_site_label_1
_geom_bond_atom_site_label_2
_geom_bond_distance
_geom_bond_site_symmetry_2
Y0 Zn2 3.027153 1_555
Y0 Zn0 3.027155 1_565
Y0 Zn1 3.027155 1_655
Y0 Zn0 3.059522 1_564
Y0 Zn1 3.059522 1_654
Y0 Zn2 3.059523 1_654
Y0 Zn2 3.059524 1_564
Y0 Zn0 3.059526 1_664
Y0 Zn1 3.059526 1_664
Zn0 Zn1 2.552656 1_555
Zn0 Zn2 2.552656 1_555
Zn0 Zn1 2.631288 1_645
Zn0 Zn2 2.631289 1_545
Zn1 Zn2 2.552656 1_555
Zn1 Zn2 2.631288 1_455
Pd0 Zn1 2.595781 1_654
Pd0 Zn0 2.595782 1_564
Pd0 Zn2 2.595787 1_554
Pd0 Zn2 2.597500 1_555
Pd0 Zn1 2.597505 1_555
Pd0 Zn0 2.597505 1_555
Pd0 Y0 3.031098 1_555
Pd0 Y0 3.031111 1_455
Pd0 Y0 3.031111 1_545
Au0 Zn0 2.995565 1_555
Au0 Zn1 2.995565 1_555
Au0 Zn2 2.995567 1_455
Au0 Zn2 2.995567 1_545
Au0 Zn0 2.995569 1_455
Au0 Zn1 2.995570 1_545
Au0 Pd0 3.060069 1_455
Au0 Pd0 3.060069 1_545
Au0 Pd0 3.060074 1_555
Au0 Zn2 3.113146 1_554
Au0 Zn0 3.113148 1_554
Au0 Zn1 3.113148 1_554
Au0 Y0 3.126906 1_446
Au0 Y0 3.194532 1_545
Au0 Y0 3.194532 1_455
Au0 Y0 3.194541 1_445
