# generated using pymatgen
data_Ti6FeTc5As6
_symmetry_space_group_name_H-M   'P 1'
_cell_length_a   7.50265557
_cell_length_b   7.50921238
_cell_length_c   7.50921261
_cell_angle_alpha   127.65731755
_cell_angle_beta   123.96612369
_cell_angle_gamma   80.25288059
_symmetry_Int_Tables_number   1
_chemical_formula_structural   Ti6FeTc5As6
_chemical_formula_sum   'Ti6 Fe1 Tc5 As6'
_cell_volume   268.07547350
_cell_formula_units_Z   1
loop_
 _symmetry_equiv_pos_site_id
 _symmetry_equiv_pos_as_xyz
  1  'x, y, z'
loop_
 _atom_site_type_symbol
 _atom_site_label
 _atom_site_symmetry_multiplicity
 _atom_site_fract_x
 _atom_site_fract_y
 _atom_site_fract_z
 _atom_site_occupancy
  Ti  Ti0  1  0.46177580  0.24979448  0.28110180  1
  Ti  Ti1  1  0.53822420  0.81932600  0.78801968  1
  Ti  Ti2  1  0.74845203  0.65288613  0.40529420  1
  Ti  Ti3  1  0.25154797  0.65684217  0.90443309  1
  Ti  Ti4  1  0.05361020  0.85126476  0.29580071  1
  Ti  Ti5  1  0.94638980  0.24219051  0.79765456  1
  Fe  Fe0  1  0.50000000  0.99155991  0.49155991  1
  Tc  Tc0  1  0.66428228  0.50406826  0.91284250  1
  Tc  Tc1  1  0.33571772  0.24856122  0.83978798  1
  Tc  Tc2  1  0.90845940  0.24713826  0.40891498  1
  Tc  Tc3  1  0.09154060  0.50045558  0.33867986  1
  Tc  Tc4  1  0.00000000  0.99180659  0.99180659  1
  As  As0  1  0.83415562  0.57802192  0.74732817  1
  As  As1  1  0.16584438  0.91316954  0.74386629  1
  As  As2  1  0.66910582  0.91624239  0.25438685  1
  As  As3  1  0.33089418  0.58528003  0.24713557  1
  As  As4  1  0.27989388  0.27198819  0.49969396  1
  As  As5  1  0.72010612  0.21980008  0.99209531  1
loop_
_geom_bond_atom_site_label_1
_geom_bond_atom_site_label_2
_geom_bond_distance
_geom_bond_site_symmetry_2
Fe0 Ti2 2.844853 1_555
Fe0 Ti3 2.844858 1_554
Fe0 Ti5 2.878982 1_565
Fe0 Ti4 2.878982 1_555
Tc0 Ti4 2.762386 1_656
Tc0 Ti5 2.766425 1_555
Tc0 Ti2 2.811133 1_556
Tc0 Ti1 2.887896 1_555
Tc0 Tc3 3.020655 1_656
Tc0 Ti3 3.094542 1_555
Tc1 Ti5 2.762380 1_455
Tc1 Ti4 2.766432 1_545
Tc1 Ti3 2.811135 1_555
Tc1 Ti0 2.887891 1_556
Tc1 Tc2 3.020655 1_455
Tc1 Ti2 3.094538 1_556
Tc2 Ti4 2.756190 1_645
Tc2 Ti5 2.793629 1_555
Tc2 Ti3 2.815637 1_655
Tc2 Ti0 2.925659 1_555
Tc2 Tc4 2.928867 1_644
Tc2 Tc3 2.950153 1_655
Tc2 Ti2 3.090538 1_555
Tc2 Ti1 3.165908 1_544
Tc3 Ti5 2.756196 1_454
Tc3 Ti4 2.793633 1_555
Tc3 Ti2 2.815635 1_455
Tc3 Ti1 2.925659 1_555
Tc3 Tc4 2.928867 1_544
Tc3 Ti3 3.090524 1_555
Tc3 Ti0 3.165913 1_555
Tc4 Ti2 2.842341 1_455
Tc4 Ti3 2.842341 1_555
Tc4 Ti5 2.874107 1_465
Tc4 Ti4 2.874107 1_556
As0 Tc0 2.516057 1_555
As0 Tc2 2.518157 1_555
As0 Tc4 2.521876 1_655
As0 Ti0 2.644969 1_555
As0 Ti1 2.650594 1_555
As0 Ti2 2.668831 1_555
As0 Ti4 2.669202 1_656
As0 Ti3 2.682345 1_655
As0 Ti5 2.702105 1_555
As1 Tc1 2.516075 1_565
As1 Tc3 2.518142 1_555
As1 Tc4 2.521869 1_555
As1 Ti1 2.644963 1_555
As1 Ti0 2.650596 1_566
As1 Ti3 2.668803 1_555
As1 Ti5 2.669219 1_465
As1 Ti2 2.682334 1_455
As1 Ti4 2.702117 1_555
As2 Fe0 2.480452 1_555
As2 Tc0 2.528568 1_554
As2 Tc2 2.530774 1_565
As2 Ti5 2.646034 1_565
As2 Ti1 2.653949 1_554
As2 Ti3 2.669637 1_554
As2 Ti2 2.671183 1_555
As2 Ti0 2.673761 1_565
As2 Ti4 2.713525 1_655
As3 Fe0 2.480456 1_555
As3 Tc1 2.528550 1_554
As3 Tc3 2.530783 1_555
As3 Ti4 2.646039 1_555
As3 Ti0 2.653953 1_555
As3 Ti2 2.669636 1_555
As3 Ti3 2.671188 1_554
As3 Ti1 2.673771 1_555
As3 Ti5 2.713522 1_454
As4 Fe0 2.437876 1_545
As4 Tc1 2.461150 1_555
As4 Tc0 2.465171 1_555
As4 Tc4 2.474694 1_544
As4 Tc2 2.482621 1_455
As4 Tc3 2.491313 1_555
As4 Ti0 2.583780 1_555
As4 Ti3 2.723272 1_555
As4 Ti4 2.865115 1_545
As5 Fe0 2.437881 1_545
As5 Tc0 2.461145 1_555
As5 Tc1 2.465173 1_555
As5 Tc4 2.474695 1_645
As5 Tc3 2.482621 1_656
As5 Tc2 2.491311 1_556
As5 Ti1 2.583780 1_545
As5 Ti2 2.723273 1_556
As5 Ti5 2.865122 1_555
