# generated using pymatgen
data_KSnAs
_symmetry_space_group_name_H-M   'P 1'
_cell_length_a   4.14643325
_cell_length_b   4.14643334
_cell_length_c   12.80406716
_cell_angle_alpha   90.00000000
_cell_angle_beta   90.00000000
_cell_angle_gamma   120.00000735
_symmetry_Int_Tables_number   1
_chemical_formula_structural   KSnAs
_chemical_formula_sum   'K2 Sn2 As2'
_cell_volume   190.64609281
_cell_formula_units_Z   2
loop_
 _symmetry_equiv_pos_site_id
 _symmetry_equiv_pos_as_xyz
  1  'x, y, z'
loop_
 _atom_site_type_symbol
 _atom_site_label
 _atom_site_symmetry_multiplicity
 _atom_site_fract_x
 _atom_site_fract_y
 _atom_site_fract_z
 _atom_site_occupancy
  K  K0  1  0.33333300  0.66666700  0.99521892  1
  K  K1  1  0.66666700  0.33333300  0.49521892  1
  Sn  Sn0  1  -0.00000000  0.00000000  0.27638361  1
  Sn  Sn1  1  0.00000000  -0.00000000  0.77638361  1
  As  As0  1  0.33333300  0.66666700  0.67349747  1
  As  As1  1  0.66666700  0.33333300  0.17349747  1
loop_
_geom_bond_atom_site_label_1
_geom_bond_atom_site_label_2
_geom_bond_distance
_geom_bond_site_symmetry_2
K0 Sn1 3.685385 1_565
K0 Sn1 3.685387 1_665
K0 Sn1 3.685387 1_555
K1 Sn0 3.685385 1_655
K1 Sn0 3.685387 1_555
K1 Sn0 3.685387 1_665
As0 Sn1 2.732471 1_565
As0 Sn1 2.732474 1_665
As0 Sn1 2.732474 1_555
As0 K1 3.307814 1_455
As0 K1 3.307814 1_565
As0 K1 3.307819 1_555
As1 Sn0 2.732471 1_655
As1 Sn0 2.732474 1_555
As1 Sn0 2.732474 1_665
As1 K0 3.307814 1_654
As1 K0 3.307814 1_544
As1 K0 3.307819 1_554
