# generated using pymatgen
data_Nb3CrGa2C
_symmetry_space_group_name_H-M   'P 1'
_cell_length_a   8.31203730
_cell_length_b   8.31203746
_cell_length_c   8.31203654
_cell_angle_alpha   60.00000366
_cell_angle_beta   60.00000302
_cell_angle_gamma   60.00000495
_symmetry_Int_Tables_number   1
_chemical_formula_structural   Nb3CrGa2C
_chemical_formula_sum   'Nb12 Cr4 Ga8 C4'
_cell_volume   406.07612777
_cell_formula_units_Z   4
loop_
 _symmetry_equiv_pos_site_id
 _symmetry_equiv_pos_as_xyz
  1  'x, y, z'
loop_
 _atom_site_type_symbol
 _atom_site_label
 _atom_site_symmetry_multiplicity
 _atom_site_fract_x
 _atom_site_fract_y
 _atom_site_fract_z
 _atom_site_occupancy
  Nb  Nb0  1  0.55627385  0.94372615  0.55627385  1
  Nb  Nb1  1  0.30627385  0.69372615  0.69372615  1
  Nb  Nb2  1  0.69372615  0.30627385  0.30627385  1
  Nb  Nb3  1  0.30627385  0.69372615  0.30627385  1
  Nb  Nb4  1  0.69372615  0.69372615  0.30627385  1
  Nb  Nb5  1  0.30627385  0.30627385  0.69372615  1
  Nb  Nb6  1  0.55627385  0.55627385  0.94372615  1
  Nb  Nb7  1  0.94372615  0.55627385  0.55627385  1
  Nb  Nb8  1  0.55627385  0.94372615  0.94372615  1
  Nb  Nb9  1  0.94372615  0.94372615  0.55627385  1
  Nb  Nb10  1  0.69372615  0.30627385  0.69372615  1
  Nb  Nb11  1  0.94372615  0.55627385  0.94372615  1
  Cr  Cr0  1  0.12500000  0.12500000  0.12500000  1
  Cr  Cr1  1  0.62500000  0.12500000  0.12500000  1
  Cr  Cr2  1  0.12500000  0.62500000  0.12500000  1
  Cr  Cr3  1  0.12500000  0.12500000  0.62500000  1
  Ga  Ga0  1  0.91331244  0.91331244  0.91331244  1
  Ga  Ga1  1  0.98993731  0.33668756  0.33668756  1
  Ga  Ga2  1  0.33668756  0.98993731  0.33668756  1
  Ga  Ga3  1  0.33668756  0.33668756  0.98993731  1
  Ga  Ga4  1  0.91331244  0.26006269  0.91331244  1
  Ga  Ga5  1  0.91331244  0.91331244  0.26006269  1
  Ga  Ga6  1  0.26006269  0.91331244  0.91331244  1
  Ga  Ga7  1  0.33668756  0.33668756  0.33668756  1
  C  C0  1  0.62500000  0.62500000  0.62500000  1
  C  C1  1  0.12500000  0.62500000  0.62500000  1
  C  C2  1  0.62500000  0.12500000  0.62500000  1
  C  C3  1  0.62500000  0.62500000  0.12500000  1
loop_
_geom_bond_atom_site_label_1
_geom_bond_atom_site_label_2
_geom_bond_distance
_geom_bond_site_symmetry_2
Cr0 Ga2 2.568603 1_545
Cr0 Ga4 2.568603 1_454
Cr0 Ga1 2.568603 1_455
Cr0 Ga6 2.568603 1_544
Cr0 Ga3 2.568603 1_554
Cr0 Ga5 2.568603 1_445
Cr0 Nb9 2.976364 1_445
Cr0 Nb5 2.976364 1_554
Cr0 Nb8 2.976364 1_544
Cr0 Nb2 2.976364 1_455
Cr0 Nb11 2.976364 1_454
Cr0 Nb3 2.976364 1_545
Cr1 Ga4 2.568603 1_554
Cr1 Ga2 2.568603 1_545
Cr1 Ga7 2.568603 1_555
Cr1 Ga0 2.568603 1_544
Cr1 Ga5 2.568603 1_545
Cr1 Ga3 2.568603 1_554
Cr1 Nb0 2.976364 1_545
Cr1 Nb10 2.976364 1_554
Cr1 Nb2 2.976364 1_555
Cr1 Nb8 2.976364 1_544
Cr1 Nb6 2.976364 1_554
Cr1 Nb4 2.976364 1_545
Cr2 Ga7 2.568603 1_555
Cr2 Ga0 2.568603 1_454
Cr2 Ga5 2.568603 1_455
Cr2 Ga3 2.568603 1_554
Cr2 Ga6 2.568603 1_554
Cr2 Ga1 2.568603 1_455
Cr2 Nb3 2.976364 1_555
Cr2 Nb11 2.976364 1_454
Cr2 Nb7 2.976364 1_455
Cr2 Nb1 2.976364 1_554
Cr2 Nb6 2.976364 1_554
Cr2 Nb4 2.976364 1_455
Cr3 Ga4 2.568603 1_455
Cr3 Ga2 2.568603 1_545
Cr3 Ga6 2.568603 1_545
Cr3 Ga1 2.568603 1_455
Cr3 Ga7 2.568603 1_555
Cr3 Ga0 2.568603 1_445
Cr3 Nb5 2.976364 1_555
Cr3 Nb9 2.976364 1_445
Cr3 Nb0 2.976364 1_545
Cr3 Nb10 2.976364 1_455
Cr3 Nb7 2.976364 1_455
Cr3 Nb1 2.976364 1_545
Ga0 Nb9 2.738356 1_555
Ga0 Nb8 2.738357 1_555
Ga0 Nb11 2.738357 1_555
Ga0 Ga5 2.882201 1_556
Ga0 Ga6 2.882201 1_655
Ga0 Ga4 2.882201 1_565
Ga0 Nb4 2.956273 1_556
Ga0 Nb1 2.956273 1_655
Ga0 Nb10 2.956273 1_565
Ga1 Nb2 2.738356 1_555
Ga1 Nb10 2.738356 1_555
Ga1 Nb4 2.738357 1_555
Ga1 Ga7 2.882201 1_655
Ga1 Ga3 2.882201 1_654
Ga1 Ga2 2.882201 1_645
Ga1 Nb11 2.956273 1_554
Ga1 Nb7 2.956273 1_555
Ga1 Nb9 2.956273 1_545
Ga2 Nb3 2.738356 1_555
Ga2 Nb1 2.738356 1_555
Ga2 Nb4 2.738357 1_555
Ga2 Ga3 2.882201 1_564
Ga2 Ga7 2.882201 1_565
Ga2 Nb8 2.956273 1_554
Ga2 Nb0 2.956273 1_555
Ga2 Nb9 2.956273 1_455
Ga3 Nb5 2.738356 1_555
Ga3 Nb10 2.738357 1_555
Ga3 Nb1 2.738357 1_555
Ga3 Ga7 2.882201 1_556
Ga3 Nb6 2.956273 1_555
Ga3 Nb11 2.956273 1_455
Ga3 Nb8 2.956273 1_545
Ga4 Nb11 2.738356 1_555
Ga4 Nb7 2.738356 1_555
Ga4 Nb6 2.738357 1_555
Ga4 Ga5 2.882201 1_546
Ga4 Ga6 2.882201 1_645
Ga4 Nb2 2.956273 1_556
Ga4 Nb10 2.956273 1_555
Ga4 Nb5 2.956273 1_655
Ga5 Nb9 2.738356 1_555
Ga5 Nb0 2.738357 1_555
Ga5 Nb7 2.738357 1_555
Ga5 Ga6 2.882201 1_654
Ga5 Nb4 2.956273 1_555
Ga5 Nb3 2.956273 1_655
Ga5 Nb2 2.956273 1_565
Ga6 Nb8 2.738356 1_555
Ga6 Nb0 2.738356 1_555
Ga6 Nb6 2.738357 1_555
Ga6 Nb3 2.956273 1_556
Ga6 Nb1 2.956273 1_555
Ga6 Nb5 2.956273 1_565
Ga7 Nb5 2.738356 1_555
Ga7 Nb2 2.738357 1_555
Ga7 Nb3 2.738357 1_555
Ga7 Nb6 2.956273 1_554
Ga7 Nb7 2.956273 1_455
Ga7 Nb0 2.956273 1_545
C0 Nb6 2.229526 1_555
C0 Nb4 2.229526 1_555
C0 Nb7 2.229526 1_555
C0 Nb1 2.229526 1_555
C0 Nb0 2.229526 1_555
C0 Nb10 2.229526 1_555
C1 Nb1 2.229526 1_555
C1 Nb7 2.229526 1_455
C1 Nb11 2.229526 1_455
C1 Nb3 2.229526 1_555
C1 Nb9 2.229526 1_455
C1 Nb5 2.229526 1_555
C2 Nb8 2.229526 1_545
C2 Nb2 2.229526 1_555
C2 Nb10 2.229526 1_555
C2 Nb0 2.229526 1_545
C2 Nb9 2.229526 1_545
C2 Nb5 2.229526 1_555
C3 Nb4 2.229526 1_555
C3 Nb6 2.229526 1_554
C3 Nb11 2.229526 1_554
C3 Nb3 2.229526 1_555
C3 Nb8 2.229526 1_554
C3 Nb2 2.229526 1_555
