# generated using pymatgen
data_Ti16Pt3Rh5O4
_symmetry_space_group_name_H-M   'P 1'
_cell_length_a   8.21668682
_cell_length_b   8.22126333
_cell_length_c   8.21866581
_cell_angle_alpha   60.01044707
_cell_angle_beta   59.99202845
_cell_angle_gamma   59.97811706
_symmetry_Int_Tables_number   1
_chemical_formula_structural   Ti16Pt3Rh5O4
_chemical_formula_sum   'Ti16 Pt3 Rh5 O4'
_cell_volume   392.51643131
_cell_formula_units_Z   1
loop_
 _symmetry_equiv_pos_site_id
 _symmetry_equiv_pos_as_xyz
  1  'x, y, z'
loop_
 _atom_site_type_symbol
 _atom_site_label
 _atom_site_symmetry_multiplicity
 _atom_site_fract_x
 _atom_site_fract_y
 _atom_site_fract_z
 _atom_site_occupancy
  Ti  Ti0  1  0.81855420  0.18441908  0.81802149  1
  Ti  Ti1  1  0.18628670  0.81738487  0.17898128  1
  Ti  Ti2  1  0.43161524  0.07099913  0.43197904  1
  Ti  Ti3  1  0.43161524  0.07099913  0.06540559  1
  Ti  Ti4  1  0.06699749  0.43206793  0.43199199  1
  Ti  Ti5  1  0.06699749  0.43206793  0.06894259  1
  Ti  Ti6  1  0.18310676  0.18074318  0.81807553  1
  Ti  Ti7  1  0.43093284  0.43146352  0.06880182  1
  Ti  Ti8  1  0.12904382  0.61676665  0.62709477  1
  Ti  Ti9  1  0.62505686  0.61993499  0.12480504  1
  Ti  Ti10  1  0.62505686  0.61993499  0.63020310  1
  Ti  Ti11  1  0.61905506  0.13413679  0.62340357  1
  Ti  Ti12  1  0.18628670  0.81738487  0.81734615  1
  Ti  Ti13  1  0.81855420  0.18441908  0.17900523  1
  Ti  Ti14  1  0.06380698  0.07100356  0.43259523  1
  Ti  Ti15  1  0.81768987  0.81733015  0.18248999  1
  Pt  Pt0  1  0.40878632  0.77544200  0.40788534  1
  Pt  Pt1  1  0.84130650  0.84260414  0.47508879  1
  Pt  Pt2  1  0.84130650  0.84260414  0.84100056  1
  Rh  Rh0  1  0.47393420  0.84314412  0.84146134  1
  Rh  Rh1  1  0.40664678  0.40739485  0.40572242  1
  Rh  Rh2  1  0.40664678  0.40739485  0.78023495  1
  Rh  Rh3  1  0.84354705  0.47014788  0.84315254  1
  Rh  Rh4  1  0.77684212  0.40879512  0.40718238  1
  O  O0  1  0.12515288  0.12538873  0.62470893  1
  O  O1  1  0.62484420  0.12559411  0.12478184  1
  O  O2  1  0.12515288  0.12538873  0.12474846  1
  O  O3  1  0.12517847  0.62504251  0.12488901  1
loop_
_geom_bond_atom_site_label_1
_geom_bond_atom_site_label_2
_geom_bond_distance
_geom_bond_site_symmetry_2
Pt0 Ti8 2.596114 1_555
Pt0 Ti9 2.601896 1_555
Pt0 Ti10 2.601903 1_555
Pt0 Ti3 2.636821 1_565
Pt0 Ti2 2.636821 1_565
Pt0 Ti14 2.646832 1_565
Pt1 Ti10 2.605715 1_555
Pt1 Ti8 2.615460 1_655
Pt1 Ti15 2.621141 1_555
Pt1 Ti11 2.622879 1_565
Pt1 Ti13 2.635645 1_565
Pt1 Ti1 2.648909 1_655
Pt2 Ti9 2.605715 1_556
Pt2 Ti8 2.615460 1_655
Pt2 Ti15 2.621141 1_556
Pt2 Ti11 2.622884 1_565
Pt2 Ti0 2.635646 1_565
Pt2 Ti12 2.648906 1_655
Rh0 Ti9 2.583100 1_556
Rh0 Ti10 2.583107 1_555
Rh0 Ti1 2.584884 1_556
Rh0 Ti12 2.584893 1_555
Rh0 Ti6 2.596146 1_565
Rh0 Ti11 2.605351 1_565
Rh1 Ti11 2.544695 1_555
Rh1 Ti8 2.554759 1_555
Rh1 Ti9 2.562196 1_555
Rh1 Ti2 2.572372 1_555
Rh1 Ti7 2.585655 1_555
Rh1 Ti4 2.598251 1_555
Rh2 Ti11 2.544695 1_555
Rh2 Ti8 2.554754 1_555
Rh2 Ti10 2.562198 1_555
Rh2 Ti3 2.572372 1_556
Rh2 Ti7 2.585663 1_556
Rh2 Ti5 2.598254 1_556
Rh3 Ti9 2.564855 1_556
Rh3 Ti10 2.564855 1_555
Rh3 Ti13 2.571584 1_556
Rh3 Ti0 2.571585 1_555
Rh3 Ti8 2.575327 1_655
Rh3 Ti6 2.600034 1_655
Rh4 Ti11 2.559515 1_555
Rh4 Ti10 2.579927 1_555
Rh4 Ti9 2.579940 1_555
Rh4 Ti14 2.583760 1_655
Rh4 Ti4 2.596901 1_655
Rh4 Ti5 2.596910 1_655
O0 Ti2 2.154423 1_555
O0 Ti0 2.156425 1_455
O0 Ti4 2.157128 1_555
O0 Ti6 2.157836 1_555
O0 Ti14 2.162010 1_555
O0 Ti12 2.164668 1_545
O1 Ti7 2.154323 1_555
O1 Ti13 2.158944 1_555
O1 Ti0 2.158955 1_554
O1 Ti2 2.160405 1_555
O1 Ti3 2.160422 1_555
O1 Ti15 2.165689 1_545
O2 Ti3 2.154424 1_555
O2 Ti13 2.156423 1_455
O2 Ti5 2.157130 1_555
O2 Ti6 2.157821 1_554
O2 Ti14 2.162026 1_555
O2 Ti1 2.164668 1_545
O3 Ti7 2.151975 1_555
O3 Ti15 2.159086 1_455
O3 Ti5 2.159854 1_555
O3 Ti4 2.159859 1_555
O3 Ti12 2.161203 1_554
O3 Ti1 2.161204 1_555
