# generated using pymatgen
data_CaY6CoCl12
_symmetry_space_group_name_H-M   'P 1'
_cell_length_a   8.75437465
_cell_length_b   8.75437503
_cell_length_c   8.75437466
_cell_angle_alpha   106.67438935
_cell_angle_beta   106.67437394
_cell_angle_gamma   106.67439208
_symmetry_Int_Tables_number   1
_chemical_formula_structural   CaY6CoCl12
_chemical_formula_sum   'Ca1 Y6 Co1 Cl12'
_cell_volume   563.64404756
_cell_formula_units_Z   1
loop_
 _symmetry_equiv_pos_site_id
 _symmetry_equiv_pos_as_xyz
  1  'x, y, z'
loop_
 _atom_site_type_symbol
 _atom_site_label
 _atom_site_symmetry_multiplicity
 _atom_site_fract_x
 _atom_site_fract_y
 _atom_site_fract_z
 _atom_site_occupancy
  Ca  Ca0  1  0.50000000  0.50000000  0.50000000  1
  Y  Y0  1  0.31380365  0.10645494  0.01870032  1
  Y  Y1  1  0.10645494  0.01870032  0.31380365  1
  Y  Y2  1  0.01870032  0.31380365  0.10645494  1
  Y  Y3  1  0.68619635  0.89354506  0.98129968  1
  Y  Y4  1  0.89354506  0.98129968  0.68619635  1
  Y  Y5  1  0.98129968  0.68619635  0.89354506  1
  Co  Co0  1  0.00000000  0.00000000  0.00000000  1
  Cl  Cl0  1  0.21677475  0.07159911  0.67483396  1
  Cl  Cl1  1  0.07159911  0.67483396  0.21677475  1
  Cl  Cl2  1  0.67483396  0.21677475  0.07159911  1
  Cl  Cl3  1  0.78322525  0.92840089  0.32516604  1
  Cl  Cl4  1  0.92840089  0.32516604  0.78322525  1
  Cl  Cl5  1  0.32516604  0.78322525  0.92840089  1
  Cl  Cl6  1  0.36955936  0.45328285  0.15849858  1
  Cl  Cl7  1  0.45328285  0.15849858  0.36955936  1
  Cl  Cl8  1  0.15849858  0.36955936  0.45328285  1
  Cl  Cl9  1  0.63044064  0.54671715  0.84150142  1
  Cl  Cl10  1  0.54671715  0.84150142  0.63044064  1
  Cl  Cl11  1  0.84150142  0.63044064  0.54671715  1
loop_
_geom_bond_atom_site_label_1
_geom_bond_atom_site_label_2
_geom_bond_distance
_geom_bond_site_symmetry_2
Ca0 Cl11 2.735022 1_555
Ca0 Cl8 2.735022 1_555
Ca0 Cl10 2.735022 1_555
Ca0 Cl7 2.735022 1_555
Ca0 Cl9 2.735022 1_555
Ca0 Cl6 2.735022 1_555
Co0 Y3 2.574361 1_444
Co0 Y0 2.574361 1_555
Co0 Y2 2.574361 1_555
Co0 Y5 2.574361 1_444
Co0 Y1 2.574361 1_555
Co0 Y4 2.574361 1_444
Cl0 Y4 2.750424 1_445
Cl0 Y0 2.780911 1_556
Cl0 Y1 2.878934 1_555
Cl1 Y5 2.750425 1_454
Cl1 Y1 2.780911 1_565
Cl1 Y2 2.878934 1_555
Cl2 Y3 2.750425 1_544
Cl2 Y2 2.780911 1_655
Cl2 Y0 2.878933 1_555
Cl3 Y1 2.750424 1_665
Cl3 Y3 2.780911 1_554
Cl3 Y4 2.878934 1_555
Cl4 Y2 2.750425 1_656
Cl4 Y4 2.780911 1_545
Cl4 Y5 2.878934 1_555
Cl5 Y0 2.750425 1_566
Cl5 Y5 2.780911 1_455
Cl5 Y3 2.878933 1_555
Cl6 Y0 2.762103 1_555
Cl6 Y2 2.803274 1_555
Cl7 Y1 2.762103 1_555
Cl7 Y0 2.803275 1_555
Cl8 Y2 2.762103 1_555
Cl8 Y1 2.803274 1_555
Cl9 Y3 2.762103 1_555
Cl9 Y5 2.803274 1_555
Cl10 Y4 2.762103 1_555
Cl10 Y3 2.803275 1_555
Cl11 Y5 2.762103 1_555
Cl11 Y4 2.803274 1_555
