# generated using pymatgen
data_Hf4Pd2N
_symmetry_space_group_name_H-M   'P 1'
_cell_length_a   8.70492088
_cell_length_b   8.70492035
_cell_length_c   8.70492060
_cell_angle_alpha   59.99999906
_cell_angle_beta   60.00000107
_cell_angle_gamma   59.99999870
_symmetry_Int_Tables_number   1
_chemical_formula_structural   Hf4Pd2N
_chemical_formula_sum   'Hf16 Pd8 N4'
_cell_volume   466.42244652
_cell_formula_units_Z   4
loop_
 _symmetry_equiv_pos_site_id
 _symmetry_equiv_pos_as_xyz
  1  'x, y, z'
loop_
 _atom_site_type_symbol
 _atom_site_label
 _atom_site_symmetry_multiplicity
 _atom_site_fract_x
 _atom_site_fract_y
 _atom_site_fract_z
 _atom_site_occupancy
  Hf  Hf0  1  0.12500000  0.62500000  0.62500000  1
  Hf  Hf1  1  0.62500000  0.12500000  0.62500000  1
  Hf  Hf2  1  0.62500000  0.62500000  0.12500000  1
  Hf  Hf3  1  0.62500000  0.62500000  0.62500000  1
  Hf  Hf4  1  0.81798396  0.81798396  0.18201604  1
  Hf  Hf5  1  0.18201604  0.18201604  0.81798396  1
  Hf  Hf6  1  0.81798396  0.18201604  0.81798396  1
  Hf  Hf7  1  0.18201604  0.81798396  0.18201604  1
  Hf  Hf8  1  0.18201604  0.81798396  0.81798396  1
  Hf  Hf9  1  0.81798396  0.18201604  0.18201604  1
  Hf  Hf10  1  0.43201604  0.43201604  0.06798396  1
  Hf  Hf11  1  0.06798396  0.06798396  0.43201604  1
  Hf  Hf12  1  0.43201604  0.06798396  0.43201604  1
  Hf  Hf13  1  0.06798396  0.43201604  0.06798396  1
  Hf  Hf14  1  0.06798396  0.43201604  0.43201604  1
  Hf  Hf15  1  0.43201604  0.06798396  0.06798396  1
  Pd  Pd0  1  0.77440791  0.40853103  0.40853103  1
  Pd  Pd1  1  0.40853103  0.77440791  0.40853103  1
  Pd  Pd2  1  0.40853103  0.40853103  0.77440791  1
  Pd  Pd3  1  0.40853103  0.40853103  0.40853103  1
  Pd  Pd4  1  0.47559209  0.84146897  0.84146897  1
  Pd  Pd5  1  0.84146897  0.47559209  0.84146897  1
  Pd  Pd6  1  0.84146897  0.84146897  0.47559209  1
  Pd  Pd7  1  0.84146897  0.84146897  0.84146897  1
  N  N0  1  0.62500000  0.12500000  0.12500000  1
  N  N1  1  0.12500000  0.62500000  0.12500000  1
  N  N2  1  0.12500000  0.12500000  0.62500000  1
  N  N3  1  0.12500000  0.12500000  0.12500000  1
loop_
_geom_bond_atom_site_label_1
_geom_bond_atom_site_label_2
_geom_bond_distance
_geom_bond_site_symmetry_2
Hf0 Pd7 2.728058 1_455
Hf0 Pd3 2.728058 1_555
Hf0 Pd2 2.728063 1_555
Hf0 Pd6 2.728063 1_455
Hf0 Pd1 2.728063 1_555
Hf0 Pd5 2.728063 1_455
Hf1 Pd7 2.728058 1_545
Hf1 Pd3 2.728058 1_555
Hf1 Pd2 2.728063 1_555
Hf1 Pd6 2.728063 1_545
Hf1 Pd0 2.728063 1_555
Hf1 Pd4 2.728063 1_545
Hf2 Pd7 2.728058 1_554
Hf2 Pd3 2.728058 1_555
Hf2 Pd0 2.728063 1_555
Hf2 Pd4 2.728063 1_554
Hf2 Pd1 2.728063 1_555
Hf2 Pd5 2.728063 1_554
Hf3 Pd4 2.728056 1_555
Hf3 Pd0 2.728056 1_555
Hf3 Pd5 2.728056 1_555
Hf3 Pd1 2.728056 1_555
Hf3 Pd6 2.728056 1_555
Hf3 Pd2 2.728056 1_555
Hf4 N0 2.286623 1_565
Hf4 N1 2.286623 1_655
Hf4 Pd6 2.775093 1_555
Hf4 Pd7 2.775101 1_554
Hf5 N2 2.286623 1_555
Hf5 N3 2.286623 1_556
Hf5 Pd4 2.775098 1_545
Hf5 Pd5 2.775098 1_455
Hf6 N0 2.286623 1_556
Hf6 N2 2.286623 1_655
Hf6 Pd5 2.775093 1_555
Hf6 Pd7 2.775101 1_545
Hf7 N3 2.286623 1_565
Hf7 N1 2.286623 1_555
Hf7 Pd4 2.775098 1_554
Hf7 Pd6 2.775098 1_455
Hf8 N2 2.286623 1_565
Hf8 N1 2.286623 1_556
Hf8 Pd4 2.775093 1_555
Hf8 Pd7 2.775102 1_455
Hf9 N0 2.286623 1_555
Hf9 N3 2.286623 1_655
Hf9 Pd6 2.775098 1_545
Hf9 Pd5 2.775098 1_554
Hf10 N0 2.286623 1_555
Hf10 N1 2.286623 1_555
Hf10 Pd2 2.775093 1_554
Hf10 Pd3 2.775101 1_555
Hf11 N2 2.286623 1_555
Hf11 N3 2.286623 1_555
Hf11 Pd0 2.775098 1_455
Hf11 Pd1 2.775098 1_545
Hf12 N0 2.286623 1_555
Hf12 N2 2.286623 1_555
Hf12 Pd1 2.775093 1_545
Hf12 Pd3 2.775101 1_555
Hf13 N3 2.286623 1_555
Hf13 N1 2.286623 1_555
Hf13 Pd0 2.775098 1_455
Hf13 Pd2 2.775098 1_554
Hf14 N2 2.286623 1_555
Hf14 N1 2.286623 1_555
Hf14 Pd0 2.775093 1_455
Hf14 Pd3 2.775102 1_555
Hf15 N0 2.286623 1_555
Hf15 N3 2.286623 1_555
Hf15 Pd2 2.775098 1_554
Hf15 Pd1 2.775098 1_545
