# generated using pymatgen
data_Ca2Pt2O6F
_symmetry_space_group_name_H-M   'P 1'
_cell_length_a   7.22569805
_cell_length_b   7.22565920
_cell_length_c   7.22565990
_cell_angle_alpha   59.99966033
_cell_angle_beta   59.99982014
_cell_angle_gamma   59.99982794
_symmetry_Int_Tables_number   1
_chemical_formula_structural   Ca2Pt2O6F
_chemical_formula_sum   'Ca4 Pt4 O12 F2'
_cell_volume   266.75804876
_cell_formula_units_Z   2
loop_
 _symmetry_equiv_pos_site_id
 _symmetry_equiv_pos_as_xyz
  1  'x, y, z'
loop_
 _atom_site_type_symbol
 _atom_site_label
 _atom_site_symmetry_multiplicity
 _atom_site_fract_x
 _atom_site_fract_y
 _atom_site_fract_z
 _atom_site_occupancy
  Ca  Ca0  1  0.12500000  0.12500000  0.62500000  1
  Ca  Ca1  1  0.12500000  0.62500000  0.12500000  1
  Ca  Ca2  1  0.62500000  0.12500000  0.12500000  1
  Ca  Ca3  1  0.12500000  0.12500000  0.12500000  1
  Pt  Pt0  1  0.62500000  0.62500000  0.12500000  1
  Pt  Pt1  1  0.62500000  0.12500000  0.62500000  1
  Pt  Pt2  1  0.12500000  0.62500000  0.62500000  1
  Pt  Pt3  1  0.62500000  0.62500000  0.62500000  1
  O  O0  1  0.29113297  0.29113319  0.70886602  1
  O  O1  1  0.70886782  0.70886602  0.29113319  1
  O  O2  1  0.95886706  0.54113294  0.54113294  1
  O  O3  1  0.70886540  0.29113460  0.29113460  1
  O  O4  1  0.54113239  0.95886664  0.54113410  1
  O  O5  1  0.54113218  0.54113398  0.95886681  1
  O  O6  1  0.29113294  0.70886706  0.70886706  1
  O  O7  1  0.95886686  0.54113410  0.95886664  1
  O  O8  1  0.54113460  0.95886540  0.95886540  1
  O  O9  1  0.70886761  0.29113336  0.70886590  1
  O  O10  1  0.29113314  0.70886590  0.29113336  1
  O  O11  1  0.95886703  0.95886681  0.54113398  1
  F  F0  1  0.24999975  0.25000025  0.25000025  1
  F  F1  1  0.00000025  0.99999975  0.99999975  1
loop_
_geom_bond_atom_site_label_1
_geom_bond_atom_site_label_2
_geom_bond_distance
_geom_bond_site_symmetry_2
Ca0 F1 2.212388 1_545
Ca0 F0 2.212388 1_555
Ca0 O2 2.478935 1_455
Ca0 O6 2.478935 1_545
Ca0 O0 2.478947 1_555
Ca0 O11 2.478947 1_445
Ca0 O4 2.478949 1_545
Ca0 O9 2.478949 1_455
Ca1 F1 2.212388 1_554
Ca1 F0 2.212388 1_555
Ca1 O2 2.478935 1_455
Ca1 O6 2.478935 1_554
Ca1 O5 2.478947 1_554
Ca1 O1 2.478947 1_455
Ca1 O10 2.478949 1_555
Ca1 O7 2.478949 1_454
Ca2 F1 2.212407 1_644
Ca2 F0 2.212407 1_555
Ca2 O5 2.478938 1_554
Ca2 O1 2.478938 1_545
Ca2 O4 2.478939 1_545
Ca2 O9 2.478939 1_554
Ca2 O3 2.478960 1_555
Ca2 O8 2.478960 1_544
Ca3 F0 2.212407 1_555
Ca3 F1 2.212407 1_544
Ca3 O11 2.478938 1_445
Ca3 O0 2.478938 1_554
Ca3 O10 2.478939 1_545
Ca3 O7 2.478939 1_454
Ca3 O8 2.478960 1_544
Ca3 O3 2.478960 1_455
O0 Pt2 1.999391 1_555
O0 Pt1 1.999404 1_555
O1 Pt3 1.999392 1_555
O1 Pt0 1.999404 1_555
O2 Pt2 1.999407 1_655
O2 Pt3 1.999407 1_555
O3 Pt0 1.999383 1_555
O3 Pt1 1.999383 1_555
O4 Pt3 1.999391 1_555
O4 Pt1 1.999404 1_565
O5 Pt3 1.999392 1_555
O5 Pt0 1.999404 1_556
O6 Pt2 1.999407 1_555
O6 Pt3 1.999407 1_555
O7 Pt2 1.999391 1_655
O7 Pt0 1.999404 1_556
O8 Pt0 1.999383 1_556
O8 Pt1 1.999383 1_565
O9 Pt3 1.999391 1_555
O9 Pt1 1.999404 1_555
O10 Pt2 1.999391 1_555
O10 Pt0 1.999404 1_555
O11 Pt2 1.999391 1_655
O11 Pt1 1.999404 1_565
