# generated using pymatgen
data_NaCa4Sb2As
_symmetry_space_group_name_H-M   'P 1'
_cell_length_a   7.99637302
_cell_length_b   9.37953747
_cell_length_c   12.51995740
_cell_angle_alpha   90.00000000
_cell_angle_beta   90.00000000
_cell_angle_gamma   90.00000000
_symmetry_Int_Tables_number   1
_chemical_formula_structural   NaCa4Sb2As
_chemical_formula_sum   'Na4 Ca16 Sb8 As4'
_cell_volume   939.02535587
_cell_formula_units_Z   4
loop_
 _symmetry_equiv_pos_site_id
 _symmetry_equiv_pos_as_xyz
  1  'x, y, z'
loop_
 _atom_site_type_symbol
 _atom_site_label
 _atom_site_symmetry_multiplicity
 _atom_site_fract_x
 _atom_site_fract_y
 _atom_site_fract_z
 _atom_site_occupancy
  Na  Na0  1  0.02089530  0.75000000  0.50019909  1
  Na  Na1  1  0.97910470  0.25000000  0.49980091  1
  Na  Na2  1  0.52089530  0.25000000  0.99980091  1
  Na  Na3  1  0.47910470  0.75000000  0.00019909  1
  Ca  Ca0  1  0.84714969  0.75000000  0.79567677  1
  Ca  Ca1  1  0.15285031  0.25000000  0.20432323  1
  Ca  Ca2  1  0.34714969  0.25000000  0.70432323  1
  Ca  Ca3  1  0.65285031  0.75000000  0.29567677  1
  Ca  Ca4  1  0.69808135  0.50792290  0.56585778  1
  Ca  Ca5  1  0.30191865  0.49207710  0.43414222  1
  Ca  Ca6  1  0.19808135  0.49207710  0.93414222  1
  Ca  Ca7  1  0.30191865  0.00792290  0.43414222  1
  Ca  Ca8  1  0.80191865  0.50792290  0.06585778  1
  Ca  Ca9  1  0.69808135  0.99207710  0.56585778  1
  Ca  Ca10  1  0.80191865  0.99207710  0.06585778  1
  Ca  Ca11  1  0.19808135  0.00792290  0.93414222  1
  Ca  Ca12  1  0.33924156  0.75000000  0.70901926  1
  Ca  Ca13  1  0.66075844  0.25000000  0.29098074  1
  Ca  Ca14  1  0.83924156  0.25000000  0.79098074  1
  Ca  Ca15  1  0.16075844  0.75000000  0.20901926  1
  Sb  Sb0  1  0.56391080  0.50285065  0.82691395  1
  Sb  Sb1  1  0.43608920  0.49714935  0.17308605  1
  Sb  Sb2  1  0.06391080  0.49714935  0.67308605  1
  Sb  Sb3  1  0.43608920  0.00285065  0.17308605  1
  Sb  Sb4  1  0.93608920  0.50285065  0.32691395  1
  Sb  Sb5  1  0.56391080  0.99714935  0.82691395  1
  Sb  Sb6  1  0.93608920  0.99714935  0.32691395  1
  Sb  Sb7  1  0.06391080  0.00285065  0.67308605  1
  As  As0  1  0.01558756  0.75000000  0.99804029  1
  As  As1  1  0.98441244  0.25000000  0.00195971  1
  As  As2  1  0.51558756  0.25000000  0.50195971  1
  As  As3  1  0.48441244  0.75000000  0.49804029  1
loop_
_geom_bond_atom_site_label_1
_geom_bond_atom_site_label_2
_geom_bond_distance
_geom_bond_site_symmetry_2
Na0 Sb7 3.229261 1_565
Na0 Sb2 3.229261 1_555
Na0 Sb6 3.246615 1_455
Na0 Sb4 3.246615 1_455
Na1 Sb4 3.229261 1_555
Na1 Sb6 3.229261 1_545
Na1 Sb2 3.246615 1_655
Na1 Sb7 3.246615 1_655
Na2 Sb0 3.229261 1_555
Na2 Sb5 3.229261 1_545
Na2 Sb1 3.246615 1_556
Na2 Sb3 3.246615 1_556
Na3 Sb3 3.229261 1_565
Na3 Sb1 3.229261 1_555
Na3 Sb5 3.246615 1_554
Na3 Sb0 3.246615 1_554
Ca0 Sb5 3.264422 1_555
Ca0 Sb0 3.264422 1_555
Ca0 Sb7 3.314308 1_665
Ca0 Sb2 3.314308 1_655
Ca1 Sb1 3.264422 1_555
Ca1 Sb3 3.264422 1_555
Ca1 Sb4 3.314308 1_455
Ca1 Sb6 3.314308 1_445
Ca2 Sb2 3.264422 1_555
Ca2 Sb7 3.264422 1_555
Ca2 Sb0 3.314308 1_555
Ca2 Sb5 3.314308 1_545
Ca3 Sb6 3.264422 1_555
Ca3 Sb4 3.264422 1_555
Ca3 Sb3 3.314308 1_565
Ca3 Sb1 3.314308 1_555
Ca4 Sb2 3.220238 1_655
Ca4 Sb0 3.440327 1_555
Ca4 Sb4 3.545970 1_555
Ca5 Sb4 3.220238 1_455
Ca5 Sb1 3.440327 1_555
Ca5 Sb2 3.545970 1_555
Ca6 Sb0 3.220238 1_555
Ca6 Sb2 3.440327 1_555
Ca6 Sb1 3.545970 1_556
Ca7 Sb6 3.220238 1_445
Ca7 Sb3 3.440327 1_555
Ca7 Sb7 3.545970 1_555
Ca8 Sb1 3.220238 1_555
Ca8 Sb4 3.440327 1_555
Ca8 Sb0 3.545970 1_554
Ca9 Sb7 3.220238 1_665
Ca9 Sb5 3.440327 1_555
Ca9 Sb6 3.545970 1_555
Ca10 Sb3 3.220238 1_565
Ca10 Sb6 3.440327 1_555
Ca10 Sb5 3.545970 1_554
Ca11 Sb5 3.220238 1_545
Ca11 Sb7 3.440327 1_555
Ca11 Sb3 3.545970 1_556
Ca12 Sb7 3.267145 1_565
Ca12 Sb2 3.267145 1_555
Ca12 Sb5 3.283297 1_555
Ca12 Sb0 3.283297 1_555
Ca13 Sb4 3.267145 1_555
Ca13 Sb6 3.267145 1_545
Ca13 Sb1 3.283297 1_555
Ca13 Sb3 3.283297 1_555
Ca14 Sb0 3.267145 1_555
Ca14 Sb5 3.267145 1_545
Ca14 Sb2 3.283297 1_655
Ca14 Sb7 3.283297 1_655
Ca15 Sb3 3.267145 1_565
Ca15 Sb1 3.267145 1_555
Ca15 Sb6 3.283297 1_455
Ca15 Sb4 3.283297 1_455
As0 Ca0 2.869348 1_455
As0 Ca15 2.885272 1_556
As0 Ca11 2.936331 1_565
As0 Ca6 2.936331 1_555
As0 Ca10 2.965746 1_456
As0 Ca8 2.965746 1_456
As1 Ca1 2.869348 1_655
As1 Ca14 2.885272 1_554
As1 Ca8 2.936331 1_555
As1 Ca10 2.936331 1_545
As1 Ca6 2.965746 1_654
As1 Ca11 2.965746 1_654
As2 Ca2 2.869348 1_555
As2 Ca13 2.885272 1_555
As2 Ca4 2.936331 1_555
As2 Ca9 2.936331 1_545
As2 Ca5 2.965746 1_555
As2 Ca7 2.965746 1_555
As3 Ca3 2.869348 1_555
As3 Ca12 2.885272 1_555
As3 Ca7 2.936331 1_565
As3 Ca5 2.936331 1_555
As3 Ca9 2.965746 1_555
As3 Ca4 2.965746 1_555
