# generated using pymatgen
data_Y20Al6CoNi
_symmetry_space_group_name_H-M   'P 1'
_cell_length_a   9.59614373
_cell_length_b   9.59614452
_cell_length_c   9.59361989
_cell_angle_alpha   90.00000000
_cell_angle_beta   90.00000000
_cell_angle_gamma   119.99999729
_symmetry_Int_Tables_number   1
_chemical_formula_structural   Y20Al6CoNi
_chemical_formula_sum   'Y20 Al6 Co1 Ni1'
_cell_volume   765.07969371
_cell_formula_units_Z   1
loop_
 _symmetry_equiv_pos_site_id
 _symmetry_equiv_pos_as_xyz
  1  'x, y, z'
loop_
 _atom_site_type_symbol
 _atom_site_label
 _atom_site_symmetry_multiplicity
 _atom_site_fract_x
 _atom_site_fract_y
 _atom_site_fract_z
 _atom_site_occupancy
  Y  Y0  1  0.00000000  0.00000000  0.49981934  1
  Y  Y1  1  0.00000000  0.00000000  0.00018066  1
  Y  Y2  1  0.54221292  0.45778708  0.25000000  1
  Y  Y3  1  0.54221292  0.08442484  0.25000000  1
  Y  Y4  1  0.91557516  0.45778708  0.25000000  1
  Y  Y5  1  0.45621723  0.54378277  0.75000000  1
  Y  Y6  1  0.45621723  0.91243447  0.75000000  1
  Y  Y7  1  0.08756553  0.54378277  0.75000000  1
  Y  Y8  1  0.20993441  0.79006559  0.43628257  1
  Y  Y9  1  0.20993441  0.41986983  0.43628257  1
  Y  Y10  1  0.58013017  0.79006559  0.43628257  1
  Y  Y11  1  0.79142454  0.20857546  0.56301425  1
  Y  Y12  1  0.79142454  0.58284907  0.56301425  1
  Y  Y13  1  0.41715093  0.20857546  0.56301425  1
  Y  Y14  1  0.79142454  0.20857546  0.93698575  1
  Y  Y15  1  0.79142454  0.58284907  0.93698575  1
  Y  Y16  1  0.41715093  0.20857546  0.93698575  1
  Y  Y17  1  0.20993441  0.79006559  0.06371743  1
  Y  Y18  1  0.20993441  0.41986983  0.06371743  1
  Y  Y19  1  0.58013017  0.79006559  0.06371743  1
  Al  Al0  1  0.88725421  0.11274579  0.25000000  1
  Al  Al1  1  0.88725421  0.77451041  0.25000000  1
  Al  Al2  1  0.22548959  0.11274579  0.25000000  1
  Al  Al3  1  0.11321749  0.88678251  0.75000000  1
  Al  Al4  1  0.11321749  0.22643599  0.75000000  1
  Al  Al5  1  0.77356401  0.88678251  0.75000000  1
  Co  Co0  1  0.33333300  0.66666700  0.25000000  1
  Ni  Ni0  1  0.66666700  0.33333300  0.75000000  1
loop_
_geom_bond_atom_site_label_1
_geom_bond_atom_site_label_2
_geom_bond_distance
_geom_bond_site_symmetry_2
Y0 Y11 3.519348 1_455
Y0 Y13 3.519348 1_555
Y0 Y12 3.519348 1_445
Y0 Y8 3.542162 1_545
Y0 Y10 3.542171 1_445
Y0 Y9 3.542171 1_555
Y1 Y14 3.519348 1_454
Y1 Y16 3.519348 1_554
Y1 Y15 3.519348 1_444
Y1 Y17 3.542162 1_545
Y1 Y19 3.542171 1_445
Y1 Y18 3.542171 1_555
Y2 Y9 3.511855 1_555
Y2 Y4 3.582838 1_555
Y2 Y3 3.582838 1_555
Y3 Y8 3.511849 1_545
Y3 Y4 3.582838 1_555
Y4 Y9 3.511839 1_655
Y4 Y8 3.511849 1_655
Y5 Y7 3.537635 1_555
Y5 Y6 3.537635 1_555
Y5 Y9 3.639696 1_555
Y6 Y7 3.537635 1_555
Y6 Y8 3.639696 1_555
Y7 Y9 3.639691 1_555
Y7 Y8 3.639696 1_555
Y10 Y3 3.511839 1_565
Y10 Y2 3.511856 1_555
Y10 Y6 3.639691 1_555
Y10 Y5 3.639696 1_555
Y11 Y6 3.535500 1_545
Y11 Y7 3.535500 1_655
Y11 Y3 3.647878 1_555
Y11 Y4 3.647878 1_555
Y12 Y5 3.535500 1_555
Y12 Y7 3.535500 1_655
Y12 Y2 3.647878 1_555
Y12 Y4 3.647883 1_555
Y13 Y6 3.535500 1_545
Y13 Y5 3.535500 1_555
Y13 Y2 3.647878 1_555
Y13 Y3 3.647883 1_555
Y14 Y6 3.535500 1_545
Y14 Y7 3.535500 1_655
Y14 Y3 3.647878 1_556
Y14 Y4 3.647878 1_556
Y15 Y7 3.535500 1_655
Y15 Y5 3.535500 1_555
Y15 Y2 3.647878 1_556
Y15 Y4 3.647883 1_556
Y16 Y6 3.535500 1_545
Y16 Y5 3.535500 1_555
Y16 Y2 3.647878 1_556
Y16 Y3 3.647883 1_556
Y17 Y3 3.511849 1_565
Y17 Y4 3.511849 1_455
Y17 Y6 3.639696 1_554
Y17 Y7 3.639696 1_554
Y18 Y4 3.511839 1_455
Y18 Y2 3.511855 1_555
Y18 Y7 3.639691 1_554
Y18 Y5 3.639696 1_554
Y19 Y3 3.511839 1_565
Y19 Y2 3.511856 1_555
Y19 Y6 3.639691 1_554
Y19 Y5 3.639696 1_554
Al0 Y0 3.042321 1_655
Al0 Y1 3.042321 1_655
Al0 Y3 3.183891 1_555
Al0 Y4 3.183891 1_555
Al0 Y11 3.399208 1_555
Al0 Y14 3.399208 1_554
Al0 Y9 3.513130 1_655
Al0 Y18 3.513130 1_655
Al0 Y10 3.513130 1_545
Al0 Y19 3.513130 1_545
Al1 Y0 3.042311 1_665
Al1 Y1 3.042311 1_665
Al1 Y2 3.183904 1_555
Al1 Y4 3.183920 1_555
Al1 Y12 3.399216 1_555
Al1 Y15 3.399216 1_554
Al1 Y10 3.513125 1_555
Al1 Y19 3.513125 1_555
Al1 Y8 3.513133 1_655
Al1 Y17 3.513133 1_655
Al2 Y0 3.042311 1_555
Al2 Y1 3.042311 1_555
Al2 Y2 3.183904 1_555
Al2 Y3 3.183920 1_555
Al2 Y13 3.399216 1_555
Al2 Y16 3.399216 1_554
Al2 Y9 3.513125 1_555
Al2 Y18 3.513125 1_555
Al2 Y8 3.513134 1_545
Al2 Y17 3.513134 1_545
Al3 Y1 3.049884 1_566
Al3 Y0 3.049884 1_565
Al3 Y6 3.175559 1_555
Al3 Y7 3.175559 1_555
Al3 Y17 3.412092 1_556
Al3 Y8 3.412092 1_555
Al3 Y15 3.500527 1_455
Al3 Y12 3.500527 1_455
Al3 Y16 3.500527 1_565
Al3 Y13 3.500527 1_565
Al4 Y1 3.049889 1_556
Al4 Y0 3.049889 1_555
Al4 Y7 3.175549 1_555
Al4 Y5 3.175555 1_555
Al4 Y18 3.412092 1_556
Al4 Y9 3.412092 1_555
Al4 Y14 3.500523 1_455
Al4 Y11 3.500523 1_455
Al4 Y16 3.500531 1_555
Al4 Y13 3.500531 1_555
Al5 Y1 3.049889 1_666
Al5 Y0 3.049889 1_665
Al5 Y6 3.175549 1_555
Al5 Y5 3.175555 1_555
Al5 Y19 3.412092 1_556
Al5 Y10 3.412092 1_555
Al5 Y14 3.500523 1_565
Al5 Y11 3.500523 1_565
Al5 Y15 3.500531 1_555
Al5 Y12 3.500531 1_555
Co0 Y10 2.720377 1_555
Co0 Y19 2.720377 1_555
Co0 Y8 2.720377 1_555
Co0 Y17 2.720377 1_555
Co0 Y9 2.720377 1_555
Co0 Y18 2.720377 1_555
Co0 Y4 3.471778 1_455
Co0 Y3 3.471779 1_565
Co0 Y2 3.471795 1_555
Ni0 Y14 2.741855 1_555
Ni0 Y11 2.741855 1_555
Ni0 Y16 2.741862 1_555
Ni0 Y13 2.741862 1_555
Ni0 Y15 2.741862 1_555
Ni0 Y12 2.741862 1_555
Ni0 Y7 3.497879 1_655
Ni0 Y6 3.497879 1_545
Ni0 Y5 3.497887 1_555
