# generated using pymatgen
data_MgAg(AuO2)4
_symmetry_space_group_name_H-M   'P 1'
_cell_length_a   6.63385882
_cell_length_b   6.63385838
_cell_length_c   6.63385848
_cell_angle_alpha   128.33593413
_cell_angle_beta   128.33594003
_cell_angle_gamma   76.08145717
_symmetry_Int_Tables_number   1
_chemical_formula_structural   MgAg(AuO2)4
_chemical_formula_sum   'Mg1 Ag1 Au4 O8'
_cell_volume   174.61960370
_cell_formula_units_Z   1
loop_
 _symmetry_equiv_pos_site_id
 _symmetry_equiv_pos_as_xyz
  1  'x, y, z'
loop_
 _atom_site_type_symbol
 _atom_site_label
 _atom_site_symmetry_multiplicity
 _atom_site_fract_x
 _atom_site_fract_y
 _atom_site_fract_z
 _atom_site_occupancy
  Mg  Mg0  1  0.00000000  0.00000000  0.00000000  1
  Ag  Ag0  1  0.75000000  0.25000000  0.50000000  1
  Au  Au0  1  0.37236093  0.63101541  0.75503115  1
  Au  Au1  1  0.36898459  0.12401574  0.74134652  1
  Au  Au2  1  0.87598426  0.61733078  0.24496885  1
  Au  Au3  1  0.38266922  0.62763907  0.25865348  1
  O  O0  1  0.03871524  0.40979664  0.01967737  1
  O  O1  1  0.76177365  0.26484705  0.09356257  1
  O  O2  1  0.17128348  0.66821008  0.90643743  1
  O  O3  1  0.39011727  0.01903787  0.98032263  1
  O  O4  1  0.73515295  0.82871652  0.49692660  1
  O  O5  1  0.98096213  0.96128476  0.37108140  1
  O  O6  1  0.33178992  0.23822635  0.50307340  1
  O  O7  1  0.59020336  0.60988273  0.62891860  1
loop_
_geom_bond_atom_site_label_1
_geom_bond_atom_site_label_2
_geom_bond_distance
_geom_bond_site_symmetry_2
Mg0 O1 2.120829 1_455
Mg0 O6 2.120830 1_555
Mg0 O4 2.120830 1_444
Mg0 O2 2.120831 1_544
Mg0 O3 2.706922 1_554
Mg0 O7 2.706927 1_444
Mg0 O0 2.706935 1_555
Mg0 O5 2.706935 1_445
Ag0 O0 2.220151 1_656
Ag0 O5 2.220151 1_545
Ag0 O3 2.220155 1_554
Ag0 O7 2.220161 1_555
Au0 O3 2.007102 1_565
Au0 O6 2.008050 1_555
Au0 O2 2.011305 1_555
Au0 O7 2.016152 1_555
Au1 O5 2.007101 1_445
Au1 O1 2.008049 1_556
Au1 O6 2.011306 1_555
Au1 O3 2.016147 1_555
Au2 O0 2.007101 1_655
Au2 O4 2.008050 1_555
Au2 O1 2.011303 1_555
Au2 O5 2.016141 1_555
Au3 O7 2.007097 1_555
Au3 O2 2.008040 1_554
Au3 O4 2.011303 1_555
Au3 O0 2.016144 1_555
