# generated using pymatgen
data_K10Ti4Mn4S17
_symmetry_space_group_name_H-M   'P 1'
_cell_length_a   9.91262163
_cell_length_b   9.91262235
_cell_length_c   9.91262289
_cell_angle_alpha   89.36075521
_cell_angle_beta   89.36075344
_cell_angle_gamma   89.36075655
_symmetry_Int_Tables_number   1
_chemical_formula_structural   K10Ti4Mn4S17
_chemical_formula_sum   'K10 Ti4 Mn4 S17'
_cell_volume   973.83454528
_cell_formula_units_Z   1
loop_
 _symmetry_equiv_pos_site_id
 _symmetry_equiv_pos_as_xyz
  1  'x, y, z'
loop_
 _atom_site_type_symbol
 _atom_site_label
 _atom_site_symmetry_multiplicity
 _atom_site_fract_x
 _atom_site_fract_y
 _atom_site_fract_z
 _atom_site_occupancy
  K  K0  1  0.99985199  0.99985199  0.49962579  1
  K  K1  1  0.49962579  0.99985199  0.99985199  1
  K  K2  1  0.99985199  0.49962579  0.99985199  1
  K  K3  1  0.49815086  0.96222257  0.49815086  1
  K  K4  1  0.49815086  0.49815086  0.96222257  1
  K  K5  1  0.96222257  0.49815086  0.49815086  1
  K  K6  1  0.65744652  0.32999925  0.32999925  1
  K  K7  1  0.32999925  0.65744652  0.32999925  1
  K  K8  1  0.32999925  0.32999925  0.65744652  1
  K  K9  1  0.67288862  0.67288862  0.67288862  1
  Ti  Ti0  1  0.21957489  0.21957489  0.21957489  1
  Ti  Ti1  1  0.22480758  0.77679010  0.77679010  1
  Ti  Ti2  1  0.77679010  0.77679010  0.22480758  1
  Ti  Ti3  1  0.77679010  0.22480758  0.77679010  1
  Mn  Mn0  1  0.86081071  0.13769078  0.13769078  1
  Mn  Mn1  1  0.13769078  0.86081071  0.13769078  1
  Mn  Mn2  1  0.13769078  0.13769078  0.86081071  1
  Mn  Mn3  1  0.86275134  0.86275134  0.86275134  1
  S  S0  1  0.99924145  0.99924145  0.99924145  1
  S  S1  1  0.34624957  0.34624957  0.34624957  1
  S  S2  1  0.36005468  0.65063708  0.65063708  1
  S  S3  1  0.65063708  0.65063708  0.36005468  1
  S  S4  1  0.65063708  0.36005468  0.65063708  1
  S  S5  1  0.27407300  0.99866257  0.27407300  1
  S  S6  1  0.27407300  0.27407300  0.99866257  1
  S  S7  1  0.99866257  0.27407300  0.27407300  1
  S  S8  1  0.27596536  0.99706151  0.72280812  1
  S  S9  1  0.27596536  0.72280812  0.99706151  1
  S  S10  1  0.00509047  0.72415607  0.72415607  1
  S  S11  1  0.72280812  0.99706151  0.27596536  1
  S  S12  1  0.72415607  0.72415607  0.00509047  1
  S  S13  1  0.99706151  0.72280812  0.27596536  1
  S  S14  1  0.72415607  0.00509047  0.72415607  1
  S  S15  1  0.72280812  0.27596536  0.99706151  1
  S  S16  1  0.99706151  0.27596536  0.72280812  1
loop_
_geom_bond_atom_site_label_1
_geom_bond_atom_site_label_2
_geom_bond_distance
_geom_bond_site_symmetry_2
K0 S5 3.500310 1_655
K0 S7 3.500310 1_565
K0 S14 3.505514 1_565
K0 S10 3.505515 1_655
K0 S8 3.538135 1_655
K0 S16 3.538135 1_565
K0 S11 3.549202 1_555
K0 S13 3.549202 1_555
K1 S6 3.500310 1_565
K1 S5 3.500310 1_556
K1 S12 3.505515 1_556
K1 S14 3.505515 1_565
K1 S15 3.538135 1_565
K1 S11 3.538135 1_556
K1 S9 3.549201 1_555
K1 S8 3.549202 1_555
K2 S6 3.500310 1_655
K2 S7 3.500310 1_556
K2 S12 3.505514 1_556
K2 S10 3.505515 1_655
K2 S9 3.538135 1_655
K2 S13 3.538135 1_556
K2 S15 3.549201 1_555
K2 S16 3.549202 1_555
K3 S11 3.133693 1_555
K3 S8 3.133693 1_555
K3 S5 3.173675 1_555
K3 S14 3.220709 1_565
K4 S9 3.133693 1_555
K4 S15 3.133693 1_555
K4 S6 3.173675 1_555
K4 S12 3.220709 1_556
K5 S13 3.133693 1_555
K5 S16 3.133693 1_555
K5 S7 3.173675 1_555
K5 S10 3.220709 1_655
K6 S1 3.089685 1_555
K6 S3 3.195496 1_555
K6 S4 3.195496 1_555
K6 Mn0 3.352782 1_555
K6 S11 3.403313 1_545
K6 S15 3.403314 1_554
K6 S7 3.460940 1_555
K7 S1 3.089685 1_555
K7 S3 3.195496 1_555
K7 S2 3.195496 1_555
K7 Mn1 3.352782 1_555
K7 S13 3.403313 1_455
K7 S9 3.403314 1_554
K7 S5 3.460940 1_555
K8 S1 3.089685 1_555
K8 S4 3.195496 1_555
K8 S2 3.195496 1_555
K8 Mn2 3.352782 1_555
K8 S16 3.403313 1_455
K8 S8 3.403313 1_545
K8 S6 3.460940 1_555
K9 S2 3.121721 1_555
K9 S4 3.121721 1_555
K9 S3 3.121721 1_555
K9 Mn3 3.295952 1_555
K9 S10 3.382419 1_655
K9 S14 3.382420 1_565
K9 S12 3.382420 1_556
Mn0 S0 2.368099 1_544
Mn0 S7 2.376082 1_555
Mn0 S11 2.377263 1_545
Mn0 S15 2.377264 1_554
Mn1 S0 2.368099 1_454
Mn1 S5 2.376082 1_555
Mn1 S13 2.377263 1_455
Mn1 S9 2.377263 1_554
Mn2 S0 2.368099 1_445
Mn2 S6 2.376082 1_555
Mn2 S8 2.377263 1_545
Mn2 S16 2.377264 1_455
Mn3 S0 2.369422 1_555
Mn3 S12 2.391921 1_556
Mn3 S10 2.391921 1_655
Mn3 S14 2.391921 1_565
S1 Ti0 2.199029 1_555
S2 Ti1 2.210196 1_555
S3 Ti2 2.210196 1_555
S4 Ti3 2.210196 1_555
S5 Ti0 2.309265 1_565
S6 Ti0 2.309265 1_556
S7 Ti0 2.309265 1_655
S8 Ti1 2.302955 1_555
S9 Ti1 2.302956 1_555
S10 Ti1 2.311878 1_555
S11 Ti2 2.302955 1_555
S12 Ti2 2.311878 1_555
S13 Ti2 2.302955 1_555
S14 Ti3 2.311878 1_555
S15 Ti3 2.302956 1_555
S16 Ti3 2.302955 1_555
