# generated using pymatgen
data_Rb8Mn3FeBr16
_symmetry_space_group_name_H-M   'P 1'
_cell_length_a   7.65473314
_cell_length_b   9.79646856
_cell_length_c   13.73102428
_cell_angle_alpha   90.22682619
_cell_angle_beta   90.00000000
_cell_angle_gamma   90.00000000
_symmetry_Int_Tables_number   1
_chemical_formula_structural   Rb8Mn3FeBr16
_chemical_formula_sum   'Rb8 Mn3 Fe1 Br16'
_cell_volume   1029.67255203
_cell_formula_units_Z   1
loop_
 _symmetry_equiv_pos_site_id
 _symmetry_equiv_pos_as_xyz
  1  'x, y, z'
loop_
 _atom_site_type_symbol
 _atom_site_label
 _atom_site_symmetry_multiplicity
 _atom_site_fract_x
 _atom_site_fract_y
 _atom_site_fract_z
 _atom_site_occupancy
  Rb  Rb0  1  0.25000000  0.61625503  0.56771953  1
  Rb  Rb1  1  0.75000000  0.38258882  0.42994837  1
  Rb  Rb2  1  0.25000000  0.11830776  0.93360166  1
  Rb  Rb3  1  0.75000000  0.88156989  0.06926607  1
  Rb  Rb4  1  0.25000000  0.97957244  0.32343459  1
  Rb  Rb5  1  0.75000000  0.02169430  0.67772882  1
  Rb  Rb6  1  0.25000000  0.47879646  0.17537207  1
  Rb  Rb7  1  0.75000000  0.52065505  0.82288815  1
  Mn  Mn0  1  0.25000000  0.71947813  0.92572430  1
  Mn  Mn1  1  0.25000000  0.21837433  0.57346785  1
  Mn  Mn2  1  0.75000000  0.78093926  0.42616816  1
  Fe  Fe0  1  0.75000000  0.27921856  0.07545345  1
  Br  Br0  1  0.99321539  0.32601730  0.65302576  1
  Br  Br1  1  0.49381167  0.67391809  0.34524313  1
  Br  Br2  1  0.50744467  0.82716865  0.84717165  1
  Br  Br3  1  0.00123494  0.17543960  0.15466952  1
  Br  Br4  1  0.99255533  0.82716865  0.84717165  1
  Br  Br5  1  0.00618833  0.67391809  0.34524313  1
  Br  Br6  1  0.49876506  0.17543960  0.15466952  1
  Br  Br7  1  0.50678461  0.32601730  0.65302576  1
  Br  Br8  1  0.75000000  0.52609487  0.07851730  1
  Br  Br9  1  0.25000000  0.46786942  0.91704469  1
  Br  Br10  1  0.75000000  0.03274875  0.41893352  1
  Br  Br11  1  0.25000000  0.96669045  0.58108709  1
  Br  Br12  1  0.75000000  0.18892378  0.90867711  1
  Br  Br13  1  0.25000000  0.81489388  0.09505900  1
  Br  Br14  1  0.75000000  0.68556034  0.59478023  1
  Br  Br15  1  0.25000000  0.31468222  0.40490992  1
loop_
_geom_bond_atom_site_label_1
_geom_bond_atom_site_label_2
_geom_bond_distance
_geom_bond_site_symmetry_2
Br0 Mn1 2.481916 1_655
Br0 Rb5 3.532317 1_555
Br0 Rb7 3.536475 1_555
Br0 Rb1 3.628933 1_555
Br0 Rb0 3.653279 1_655
Br1 Mn2 2.484037 1_555
Br1 Rb6 3.541503 1_555
Br1 Rb4 3.542023 1_555
Br1 Rb0 3.626000 1_555
Br1 Rb1 3.656514 1_555
Br2 Mn0 2.483736 1_555
Br2 Rb5 3.539373 1_565
Br2 Rb7 3.545009 1_555
Br2 Rb3 3.608108 1_556
Br2 Rb2 3.660580 1_565
Br3 Fe0 2.433917 1_455
Br3 Rb6 3.540051 1_555
Br3 Rb4 3.565540 1_545
Br3 Rb2 3.624925 1_554
Br3 Rb3 3.651695 1_445
Br4 Mn0 2.483736 1_655
Br4 Rb5 3.539373 1_565
Br4 Rb7 3.545009 1_555
Br4 Rb3 3.608108 1_556
Br4 Rb2 3.660580 1_665
Br5 Mn2 2.484037 1_455
Br5 Rb6 3.541503 1_555
Br5 Rb4 3.542023 1_555
Br5 Rb0 3.626000 1_555
Br5 Rb1 3.656514 1_455
Br6 Fe0 2.433917 1_555
Br6 Rb6 3.540051 1_555
Br6 Rb4 3.565540 1_545
Br6 Rb2 3.624925 1_554
Br6 Rb3 3.651695 1_545
Br7 Mn1 2.481916 1_555
Br7 Rb5 3.532317 1_555
Br7 Rb7 3.536475 1_555
Br7 Rb1 3.628933 1_555
Br7 Rb0 3.653279 1_555
Br8 Fe0 2.418715 1_555
Br8 Rb3 3.485218 1_555
Br8 Rb7 3.510244 1_554
Br9 Mn0 2.467285 1_555
Br9 Rb2 3.432906 1_555
Br9 Rb6 3.548291 1_556
Br10 Mn2 2.469236 1_545
Br10 Rb1 3.429935 1_555
Br10 Rb5 3.555603 1_555
Br11 Mn1 2.468246 1_565
Br11 Rb0 3.437207 1_555
Br11 Rb4 3.540582 1_555
Br12 Fe0 2.451647 1_556
Br12 Rb7 3.461082 1_555
Br12 Rb5 3.563564 1_555
Br12 Rb3 3.739096 1_546
Br12 Rb2 3.904652 1_655
Br12 Rb2 3.904652 1_555
Br13 Mn0 2.502558 1_554
Br13 Rb6 3.476475 1_555
Br13 Rb4 3.520797 1_555
Br13 Rb2 3.715134 1_564
Br13 Rb3 3.899058 1_555
Br13 Rb3 3.899058 1_455
Br14 Mn2 2.500083 1_555
Br14 Rb5 3.480074 1_565
Br14 Rb7 3.529910 1_555
Br14 Rb1 3.725414 1_555
Br14 Rb0 3.904583 1_655
Br14 Rb0 3.904583 1_555
Br15 Mn1 2.502843 1_555
Br15 Rb4 3.464085 1_545
Br15 Rb6 3.543830 1_555
Br15 Rb0 3.697774 1_555
Br15 Rb1 3.899702 1_555
Br15 Rb1 3.899702 1_455
