# generated using pymatgen
data_CaGePt
_symmetry_space_group_name_H-M   'P 1'
_cell_length_a   4.41906818
_cell_length_b   7.19164653
_cell_length_c   7.41378469
_cell_angle_alpha   90.00000000
_cell_angle_beta   90.00000000
_cell_angle_gamma   90.00000000
_symmetry_Int_Tables_number   1
_chemical_formula_structural   CaGePt
_chemical_formula_sum   'Ca4 Ge4 Pt4'
_cell_volume   235.61286757
_cell_formula_units_Z   4
loop_
 _symmetry_equiv_pos_site_id
 _symmetry_equiv_pos_as_xyz
  1  'x, y, z'
loop_
 _atom_site_type_symbol
 _atom_site_label
 _atom_site_symmetry_multiplicity
 _atom_site_fract_x
 _atom_site_fract_y
 _atom_site_fract_z
 _atom_site_occupancy
  Ca  Ca0  1  0.75000000  0.00684307  0.30434104  1
  Ca  Ca1  1  0.25000000  0.99315693  0.69565896  1
  Ca  Ca2  1  0.75000000  0.50684307  0.19565896  1
  Ca  Ca3  1  0.25000000  0.49315693  0.80434104  1
  Ge  Ge0  1  0.75000000  0.68018296  0.58276179  1
  Ge  Ge1  1  0.25000000  0.31981704  0.41723821  1
  Ge  Ge2  1  0.75000000  0.18018296  0.91723821  1
  Ge  Ge3  1  0.25000000  0.81981704  0.08276179  1
  Pt  Pt0  1  0.75000000  0.80258328  0.90682464  1
  Pt  Pt1  1  0.25000000  0.19741672  0.09317536  1
  Pt  Pt2  1  0.75000000  0.30258328  0.59317536  1
  Pt  Pt3  1  0.25000000  0.69741672  0.40682464  1
loop_
_geom_bond_atom_site_label_1
_geom_bond_atom_site_label_2
_geom_bond_distance
_geom_bond_site_symmetry_2
Ca0 Pt2 3.018101 1_555
Ca0 Pt1 3.035016 1_555
Ca0 Pt1 3.035016 1_655
Ca0 Ge3 3.064267 1_545
Ca0 Ge3 3.064267 1_645
Ca0 Ge0 3.127231 1_545
Ca0 Ge2 3.128948 1_554
Ca0 Pt3 3.226642 1_545
Ca0 Pt3 3.226642 1_645
Ca0 Ge1 3.263234 1_555
Ca0 Ge1 3.263234 1_655
Ca0 Pt0 3.292911 1_544
Ca1 Pt3 3.018101 1_555
Ca1 Pt0 3.035016 1_455
Ca1 Pt0 3.035016 1_555
Ca1 Ge2 3.064267 1_465
Ca1 Ge2 3.064267 1_565
Ca1 Ge1 3.127231 1_565
Ca1 Ge3 3.128948 1_556
Ca1 Pt2 3.226642 1_565
Ca1 Pt2 3.226642 1_465
Ca1 Ge0 3.263234 1_555
Ca1 Ge0 3.263234 1_455
Ca1 Pt1 3.292911 1_566
Ca2 Pt0 3.018101 1_554
Ca2 Pt3 3.035016 1_555
Ca2 Pt3 3.035016 1_655
Ca2 Ge1 3.064267 1_555
Ca2 Ge1 3.064267 1_655
Ca2 Ge2 3.127231 1_554
Ca2 Ge0 3.128948 1_555
Ca2 Pt1 3.226642 1_555
Ca2 Pt1 3.226642 1_655
Ca2 Ge3 3.263234 1_555
Ca2 Ge3 3.263234 1_655
Ca2 Pt2 3.292911 1_555
Ca3 Pt1 3.018101 1_556
Ca3 Pt2 3.035016 1_455
Ca3 Pt2 3.035016 1_555
Ca3 Ge0 3.064267 1_555
Ca3 Ge0 3.064267 1_455
Ca3 Ge3 3.127231 1_556
Ca3 Ge1 3.128948 1_555
Ca3 Pt0 3.226642 1_455
Ca3 Pt0 3.226642 1_555
Ca3 Ge2 3.263234 1_555
Ca3 Ge2 3.263234 1_455
Ca3 Pt3 3.292911 1_555
Ge0 Pt0 2.558714 1_555
Ge0 Pt3 2.568805 1_655
Ge0 Pt3 2.568805 1_555
Ge0 Pt2 2.716661 1_555
Ge1 Pt1 2.558714 1_555
Ge1 Pt2 2.568805 1_455
Ge1 Pt2 2.568805 1_555
Ge1 Pt3 2.716661 1_555
Ge2 Pt2 2.558714 1_555
Ge2 Pt1 2.568805 1_556
Ge2 Pt1 2.568805 1_656
Ge2 Pt0 2.716661 1_545
Ge3 Pt3 2.558714 1_555
Ge3 Pt0 2.568805 1_454
Ge3 Pt0 2.568805 1_554
Ge3 Pt1 2.716661 1_565
