# generated using pymatgen
data_HgRh2PbO7
_symmetry_space_group_name_H-M   'P 1'
_cell_length_a   7.18302525
_cell_length_b   7.10741666
_cell_length_c   7.18302542
_cell_angle_alpha   60.34757556
_cell_angle_beta   61.03054512
_cell_angle_gamma   60.34757732
_symmetry_Int_Tables_number   1
_chemical_formula_structural   HgRh2PbO7
_chemical_formula_sum   'Hg2 Rh4 Pb2 O14'
_cell_volume   262.65020120
_cell_formula_units_Z   2
loop_
 _symmetry_equiv_pos_site_id
 _symmetry_equiv_pos_as_xyz
  1  'x, y, z'
loop_
 _atom_site_type_symbol
 _atom_site_label
 _atom_site_symmetry_multiplicity
 _atom_site_fract_x
 _atom_site_fract_y
 _atom_site_fract_z
 _atom_site_occupancy
  Hg  Hg0  1  0.12500000  0.12500000  0.12500000  1
  Hg  Hg1  1  0.12500000  0.62500000  0.12500000  1
  Rh  Rh0  1  0.62500000  0.62500000  0.12500000  1
  Rh  Rh1  1  0.62500000  0.62500000  0.62500000  1
  Rh  Rh2  1  0.62500000  0.12500000  0.62500000  1
  Rh  Rh3  1  0.12500000  0.62500000  0.62500000  1
  Pb  Pb0  1  0.62500000  0.12500000  0.12500000  1
  Pb  Pb1  1  0.12500000  0.12500000  0.62500000  1
  O  O0  1  0.68985611  0.29588254  0.30101833  1
  O  O1  1  0.70854792  0.29145208  0.70854792  1
  O  O2  1  0.01041064  0.98958936  0.01041064  1
  O  O3  1  0.30594381  0.69405619  0.30594381  1
  O  O4  1  0.68985611  0.71324201  0.30101833  1
  O  O5  1  0.94898167  0.53675799  0.56014389  1
  O  O6  1  0.30101833  0.71324201  0.68985611  1
  O  O7  1  0.23958936  0.26041064  0.23958936  1
  O  O8  1  0.94405619  0.55594381  0.94405619  1
  O  O9  1  0.54145208  0.95854792  0.54145208  1
  O  O10  1  0.56014389  0.53675799  0.94898167  1
  O  O11  1  0.94898167  0.95411746  0.56014389  1
  O  O12  1  0.56014389  0.95411746  0.94898167  1
  O  O13  1  0.30101833  0.29588254  0.68985611  1
loop_
_geom_bond_atom_site_label_1
_geom_bond_atom_site_label_2
_geom_bond_distance
_geom_bond_site_symmetry_2
Hg0 O7 2.122538 1_555
Hg0 O2 2.122538 1_545
Hg0 O8 2.553086 1_454
Hg0 O3 2.553086 1_545
Hg0 O11 2.603530 1_445
Hg0 O13 2.603530 1_554
Hg0 O12 2.603530 1_544
Hg0 O0 2.603530 1_455
Hg1 O2 2.122537 1_555
Hg1 O7 2.122537 1_555
Hg1 O3 2.553087 1_555
Hg1 O8 2.553087 1_454
Hg1 O10 2.603531 1_554
Hg1 O4 2.603531 1_455
Hg1 O5 2.603531 1_455
Hg1 O6 2.603531 1_554
O0 Rh2 1.954691 1_555
O0 Rh0 1.962968 1_555
O0 Pb0 2.437320 1_555
O1 Rh1 1.968192 1_555
O1 Rh2 1.968192 1_555
O1 Pb1 2.483938 1_655
O1 Pb0 2.483938 1_556
O2 Pb0 2.282111 1_465
O2 Pb1 2.282111 1_564
O3 Rh0 1.953270 1_555
O3 Rh3 1.953270 1_555
O4 Rh1 1.954692 1_555
O4 Rh0 1.962963 1_555
O4 Pb0 2.437326 1_565
O5 Rh1 1.954692 1_555
O5 Rh3 1.962963 1_655
O5 Pb1 2.437326 1_655
O6 Rh1 1.954692 1_555
O6 Rh3 1.962963 1_555
O6 Pb1 2.437326 1_565
O7 Pb0 2.282111 1_555
O7 Pb1 2.282111 1_555
O8 Rh0 1.953270 1_556
O8 Rh3 1.953270 1_655
O9 Rh1 1.968192 1_555
O9 Rh2 1.968192 1_565
O9 Pb1 2.483938 1_565
O9 Pb0 2.483938 1_565
O10 Rh1 1.954692 1_555
O10 Rh0 1.962963 1_556
O10 Pb0 2.437326 1_556
O11 Rh2 1.954691 1_565
O11 Rh3 1.962968 1_655
O11 Pb1 2.437320 1_665
O12 Rh2 1.954691 1_565
O12 Rh0 1.962968 1_556
O12 Pb0 2.437320 1_566
O13 Rh2 1.954691 1_555
O13 Rh3 1.962968 1_555
O13 Pb1 2.437320 1_555
