# generated using pymatgen
data_Hf6Al12Si4Ir7
_symmetry_space_group_name_H-M   'P 1'
_cell_length_a   8.58505934
_cell_length_b   8.61559336
_cell_length_c   8.61559378
_cell_angle_alpha   59.79959355
_cell_angle_beta   59.62836527
_cell_angle_gamma   59.62836493
_symmetry_Int_Tables_number   1
_chemical_formula_structural   Hf6Al12Si4Ir7
_chemical_formula_sum   'Hf6 Al12 Si4 Ir7'
_cell_volume   447.38515548
_cell_formula_units_Z   1
loop_
 _symmetry_equiv_pos_site_id
 _symmetry_equiv_pos_as_xyz
  1  'x, y, z'
loop_
 _atom_site_type_symbol
 _atom_site_label
 _atom_site_symmetry_multiplicity
 _atom_site_fract_x
 _atom_site_fract_y
 _atom_site_fract_z
 _atom_site_occupancy
  Hf  Hf0  1  0.68665216  0.31455946  0.31455946  1
  Hf  Hf1  1  0.31391251  0.68687207  0.68687207  1
  Hf  Hf2  1  0.31342669  0.68665354  0.31311672  1
  Hf  Hf3  1  0.68756021  0.31391831  0.68559050  1
  Hf  Hf4  1  0.31342669  0.31311672  0.68665354  1
  Hf  Hf5  1  0.68756021  0.68559050  0.31391831  1
  Al  Al0  1  0.66347257  0.66426231  0.01035981  1
  Al  Al1  1  0.66347257  0.01035981  0.66426231  1
  Al  Al2  1  0.98502070  0.33842871  0.33842871  1
  Al  Al3  1  0.00920780  0.66432237  0.66432237  1
  Al  Al4  1  0.11762762  0.12139031  0.12139031  1
  Al  Al5  1  0.88093869  0.88058048  0.88058048  1
  Al  Al6  1  0.11809610  0.12083282  0.63878889  1
  Al  Al7  1  0.11809610  0.63878889  0.12083282  1
  Al  Al8  1  0.88157482  0.88138827  0.35945055  1
  Al  Al9  1  0.88157482  0.35945055  0.88138827  1
  Al  Al10  1  0.63474012  0.12125306  0.12125306  1
  Al  Al11  1  0.35900104  0.88141285  0.88141285  1
  Si  Si0  1  0.34331691  0.34552464  0.34552464  1
  Si  Si1  1  0.65899887  0.65906458  0.65906458  1
  Si  Si2  1  0.34344770  0.34561994  0.96516154  1
  Si  Si3  1  0.34344770  0.96516154  0.34561994  1
  Ir  Ir0  1  0.49072727  0.00800698  0.00800698  1
  Ir  Ir1  1  0.00079714  0.49936246  0.49936246  1
  Ir  Ir2  1  0.00771653  0.49612786  0.00030332  1
  Ir  Ir3  1  0.49490010  0.00118302  0.49611510  1
  Ir  Ir4  1  0.00771653  0.00030332  0.49612786  1
  Ir  Ir5  1  0.49490010  0.49611510  0.00118302  1
  Ir  Ir6  1  0.99867475  0.00034953  0.00034953  1
loop_
_geom_bond_atom_site_label_1
_geom_bond_atom_site_label_2
_geom_bond_distance
_geom_bond_site_symmetry_2
Hf0 Si0 2.704010 1_555
Hf0 Ir4 3.150838 1_655
Hf0 Ir2 3.150838 1_655
Hf1 Si2 2.688131 1_555
Hf1 Si3 2.688131 1_555
Hf1 Si1 2.741168 1_555
Hf1 Ir4 3.102992 1_565
Hf1 Ir2 3.102992 1_556
Hf2 Si0 2.695538 1_555
Hf2 Si3 2.697566 1_555
Hf2 Ir4 3.099492 1_565
Hf3 Si2 2.693348 1_555
Hf3 Si1 2.755093 1_555
Hf3 Ir4 3.148064 1_655
Hf4 Si0 2.695538 1_555
Hf4 Si2 2.697566 1_555
Hf4 Ir2 3.099492 1_556
Hf5 Si3 2.693348 1_555
Hf5 Si1 2.755093 1_555
Hf5 Ir2 3.148064 1_655
Al0 Ir2 2.525525 1_655
Al0 Ir0 2.549375 1_565
Al0 Ir5 2.559364 1_555
Al0 Al11 2.732623 1_554
Al0 Al9 2.738009 1_554
Al0 Hf2 2.804548 1_555
Al0 Hf0 2.821879 1_555
Al0 Hf5 2.825833 1_555
Al1 Ir4 2.525525 1_655
Al1 Ir0 2.549376 1_556
Al1 Ir3 2.559364 1_555
Al1 Al11 2.732623 1_545
Al1 Al8 2.738010 1_545
Al1 Hf4 2.804547 1_555
Al1 Hf0 2.821879 1_555
Al1 Hf3 2.825833 1_555
Al2 Ir4 2.466202 1_655
Al2 Ir2 2.466202 1_655
Al2 Ir1 2.485409 1_655
Al2 Hf5 2.774567 1_555
Al2 Hf3 2.774567 1_555
Al2 Hf0 2.784569 1_555
Al3 Ir4 2.498084 1_565
Al3 Ir2 2.498084 1_556
Al3 Ir1 2.506919 1_555
Al3 Al9 2.737455 1_455
Al3 Al8 2.737455 1_455
Al3 Hf4 2.818694 1_555
Al3 Hf2 2.818694 1_555
Al3 Hf1 2.825644 1_555
Al4 Ir6 2.542796 1_455
Al4 Ir0 2.607715 1_555
Al4 Ir2 2.632245 1_555
Al4 Ir4 2.632245 1_555
Al4 Si2 2.799077 1_554
Al4 Si3 2.799077 1_545
Al4 Al8 2.890804 1_445
Al4 Al9 2.890804 1_454
Al5 Ir6 2.516311 1_566
Al5 Ir2 2.696722 1_656
Al5 Ir4 2.696722 1_665
Al5 Ir0 2.721670 1_566
Al6 Ir6 2.534915 1_456
Al6 Ir3 2.630566 1_555
Al6 Ir4 2.635138 1_555
Al6 Ir1 2.655911 1_555
Al6 Si3 2.786465 1_545
Al6 Si0 2.791787 1_555
Al6 Al9 2.920315 1_455
Al7 Ir6 2.534915 1_465
Al7 Ir5 2.630566 1_555
Al7 Ir2 2.635138 1_555
Al7 Ir1 2.655911 1_555
Al7 Si2 2.786465 1_554
Al7 Si0 2.791787 1_555
Al7 Al8 2.920315 1_455
Al8 Ir6 2.517879 1_565
Al8 Ir1 2.680175 1_655
Al8 Ir4 2.689650 1_665
Al8 Ir3 2.697592 1_565
Al8 Si1 2.778943 1_555
Al8 Hf2 3.099485 1_655
Al8 Hf0 3.124899 1_565
Al8 Hf5 3.153038 1_555
Al9 Ir6 2.517879 1_556
Al9 Ir1 2.680175 1_655
Al9 Ir2 2.689650 1_656
Al9 Ir5 2.697592 1_556
Al9 Si1 2.778943 1_555
Al9 Hf4 3.099485 1_655
Al9 Hf0 3.124899 1_556
Al9 Hf3 3.153038 1_555
Al10 Ir6 2.538010 1_555
Al10 Ir0 2.613398 1_555
Al10 Ir5 2.629820 1_555
Al10 Ir3 2.629820 1_555
Al10 Si3 2.774200 1_545
Al10 Si2 2.774200 1_554
Al10 Si0 2.775920 1_555
Al10 Al9 2.945396 1_554
Al10 Al8 2.945396 1_545
Al11 Ir6 2.512946 1_466
Al11 Ir5 2.701925 1_556
Al11 Ir3 2.701925 1_565
Al11 Ir0 2.710973 1_566
Al11 Si1 2.772448 1_555
Al11 Al4 2.911927 1_566
Al11 Al7 2.936262 1_556
Al11 Al6 2.936262 1_565
Al11 Hf4 3.117054 1_565
Al11 Hf2 3.117054 1_556
Al11 Hf1 3.147499 1_555
Ir0 Si2 2.422481 1_554
Ir0 Si3 2.422482 1_545
Ir1 Si0 2.458724 1_555
Ir1 Si1 2.477090 1_455
Ir2 Si2 2.411176 1_554
Ir3 Si3 2.446581 1_545
Ir3 Si0 2.471664 1_555
Ir3 Si1 2.506298 1_545
Ir4 Si3 2.411176 1_545
Ir5 Si2 2.446581 1_554
Ir5 Si0 2.471664 1_555
Ir5 Si1 2.506298 1_554
