# generated using pymatgen
data_TaAg(OF)2
_symmetry_space_group_name_H-M   'P 1'
_cell_length_a   5.61214633
_cell_length_b   7.56727208
_cell_length_c   8.22660560
_cell_angle_alpha   77.13894283
_cell_angle_beta   90.00000000
_cell_angle_gamma   90.00000000
_symmetry_Int_Tables_number   1
_chemical_formula_structural   TaAg(OF)2
_chemical_formula_sum   'Ta4 Ag4 O8 F8'
_cell_volume   340.60792095
_cell_formula_units_Z   4
loop_
 _symmetry_equiv_pos_site_id
 _symmetry_equiv_pos_as_xyz
  1  'x, y, z'
loop_
 _atom_site_type_symbol
 _atom_site_label
 _atom_site_symmetry_multiplicity
 _atom_site_fract_x
 _atom_site_fract_y
 _atom_site_fract_z
 _atom_site_occupancy
  Ta  Ta0  1  0.74235187  0.70473236  0.15473905  1
  Ta  Ta1  1  0.24235187  0.79526764  0.84526095  1
  Ta  Ta2  1  0.25764813  0.29526764  0.84526095  1
  Ta  Ta3  1  0.75764813  0.20473236  0.15473905  1
  Ag  Ag0  1  0.79610364  0.09598172  0.63950375  1
  Ag  Ag1  1  0.20389636  0.90401828  0.36049625  1
  Ag  Ag2  1  0.70389636  0.59598172  0.63950375  1
  Ag  Ag3  1  0.29610364  0.40401828  0.36049625  1
  O  O0  1  0.47051059  0.78793057  0.01811125  1
  O  O1  1  0.97051059  0.71206943  0.98188875  1
  O  O2  1  0.82901400  0.94975499  0.18201421  1
  O  O3  1  0.67098600  0.44975499  0.18201421  1
  O  O4  1  0.52948941  0.21206943  0.98188875  1
  O  O5  1  0.02948941  0.28793057  0.01811125  1
  O  O6  1  0.17098600  0.05024501  0.81798579  1
  O  O7  1  0.32901400  0.55024501  0.81798579  1
  F  F0  1  0.47087484  0.30650361  0.64166371  1
  F  F1  1  0.49104402  0.87515701  0.66663079  1
  F  F2  1  0.97087484  0.19349639  0.35833629  1
  F  F3  1  0.50895598  0.12484299  0.33336921  1
  F  F4  1  0.99104402  0.62484299  0.33336921  1
  F  F5  1  0.00895598  0.37515701  0.66663079  1
  F  F6  1  0.52912516  0.69349639  0.35833629  1
  F  F7  1  0.02912516  0.80650361  0.64166371  1
loop_
_geom_bond_atom_site_label_1
_geom_bond_atom_site_label_2
_geom_bond_distance
_geom_bond_site_symmetry_2
Ag0 F1 2.367962 1_545
Ag0 F0 2.425341 1_555
Ag0 F2 2.469200 1_555
Ag0 F5 2.479861 1_655
Ag0 O6 2.544767 1_655
Ag0 F7 2.547892 1_645
Ag1 F3 2.367962 1_565
Ag1 F6 2.425341 1_555
Ag1 F7 2.469200 1_555
Ag1 F4 2.479861 1_455
Ag1 O2 2.544767 1_455
Ag1 F2 2.547892 1_465
Ag2 F5 2.367962 1_655
Ag2 F7 2.425341 1_655
Ag2 F6 2.469200 1_555
Ag2 F1 2.479861 1_555
Ag2 O7 2.544767 1_555
Ag2 F0 2.547892 1_555
Ag3 F4 2.367962 1_455
Ag3 F2 2.425341 1_455
Ag3 F0 2.469200 1_555
Ag3 F3 2.479861 1_555
Ag3 O3 2.544767 1_555
Ag3 F6 2.547892 1_555
O0 Ta1 1.905129 1_554
O0 Ta0 1.916294 1_555
O1 Ta0 1.905129 1_556
O1 Ta1 1.916294 1_655
O2 Ta3 1.934149 1_565
O2 Ta0 1.977369 1_555
O3 Ta0 1.934149 1_555
O3 Ta3 1.977369 1_555
O4 Ta3 1.905129 1_556
O4 Ta2 1.916294 1_555
O5 Ta2 1.905129 1_554
O5 Ta3 1.916294 1_455
O6 Ta1 1.934149 1_545
O6 Ta2 1.977369 1_555
O7 Ta2 1.934149 1_555
O7 Ta1 1.977369 1_555
F0 Ta2 2.044789 1_555
F1 Ta1 2.019268 1_555
F2 Ta3 2.044789 1_555
F3 Ta3 2.019268 1_555
F4 Ta0 2.019268 1_555
F5 Ta2 2.019268 1_555
F6 Ta0 2.044789 1_555
F7 Ta1 2.044789 1_555
