# generated using pymatgen
data_V4SiB2W
_symmetry_space_group_name_H-M   'P 1'
_cell_length_a   6.76079388
_cell_length_b   6.78779421
_cell_length_c   6.78779486
_cell_angle_alpha   129.35078129
_cell_angle_beta   129.22295883
_cell_angle_gamma   74.63632712
_symmetry_Int_Tables_number   1
_chemical_formula_structural   V4SiB2W
_chemical_formula_sum   'V8 Si2 B4 W2'
_cell_volume   181.73095709
_cell_formula_units_Z   2
loop_
 _symmetry_equiv_pos_site_id
 _symmetry_equiv_pos_as_xyz
  1  'x, y, z'
loop_
 _atom_site_type_symbol
 _atom_site_label
 _atom_site_symmetry_multiplicity
 _atom_site_fract_x
 _atom_site_fract_y
 _atom_site_fract_z
 _atom_site_occupancy
  V  V0  1  0.69250200  0.19208436  0.15898384  1
  V  V1  1  0.97162469  0.46933306  0.16433101  1
  V  V2  1  0.19250200  0.03351817  0.50041765  1
  V  V3  1  0.47162469  0.30729268  0.50229163  1
  V  V4  1  0.80668233  0.97205682  0.50253906  1
  V  V5  1  0.30668233  0.80414326  0.83462551  1
  V  V6  1  0.00163137  0.00383853  0.00284765  1
  V  V7  1  0.50163137  0.49878471  0.99779284  1
  Si  Si0  1  0.24988055  0.23835493  0.99543240  1
  Si  Si1  1  0.74988055  0.75444814  0.01152462  1
  B  B0  1  0.61635793  0.11989418  0.73365739  1
  B  B1  1  0.11635793  0.38270054  0.49646275  1
  B  B2  1  0.88390596  0.61710655  0.49661922  1
  B  B3  1  0.38390596  0.88728674  0.26679941  1
  W  W0  1  0.52741518  0.69226645  0.50052428  1
  W  W1  1  0.02741518  0.52689089  0.83514873  1
loop_
_geom_bond_atom_site_label_1
_geom_bond_atom_site_label_2
_geom_bond_distance
_geom_bond_site_symmetry_2
V0 V6 2.606283 1_655
V0 V7 2.622159 1_554
V0 W1 2.777279 1_655
V1 V6 2.603028 1_655
V1 V7 2.611860 1_554
V1 W1 2.745641 1_654
V1 W0 3.066971 1_655
V2 V7 2.606287 1_555
V2 V6 2.622153 1_555
V2 W0 2.777279 1_545
V3 V7 2.603024 1_555
V3 V6 2.611858 1_555
V3 W0 2.745648 1_555
V3 W1 3.066973 1_655
V4 V6 2.622484 1_666
V4 V7 2.632252 1_554
V4 W1 3.072837 1_665
V5 V7 2.622478 1_555
V5 V6 2.632256 1_566
V5 W0 3.072837 1_555
V6 W0 2.645902 1_444
V6 W1 2.661887 1_544
V7 W1 2.645902 1_555
V7 W0 2.661890 1_556
Si0 V5 2.424123 1_545
Si0 V4 2.441659 1_445
Si0 V0 2.455345 1_556
Si0 V2 2.467097 1_555
Si0 V3 2.471915 1_556
Si0 V1 2.489332 1_456
Si0 W0 2.509980 1_556
Si0 W1 2.520603 1_555
Si0 V6 2.641508 1_556
Si0 V7 2.746999 1_555
Si1 V4 2.424129 1_555
Si1 V5 2.441660 1_554
Si1 V2 2.455345 1_665
Si1 V0 2.467095 1_565
Si1 V1 2.471914 1_555
Si1 V3 2.489334 1_554
Si1 W1 2.509976 1_654
Si1 W0 2.520597 1_554
Si1 V7 2.641507 1_554
Si1 V6 2.746989 1_665
B0 B3 1.917388 1_545
B0 V3 2.229839 1_555
B0 V4 2.235199 1_545
B0 V2 2.244436 1_555
B0 W0 2.277641 1_545
B0 V7 2.298849 1_555
B0 V1 2.299277 1_556
B0 V0 2.302200 1_556
B0 V6 2.337288 1_656
B1 B2 1.917387 1_455
B1 V1 2.229839 1_455
B1 V5 2.235198 1_555
B1 V0 2.244437 1_455
B1 W1 2.277647 1_555
B1 V6 2.298842 1_555
B1 V3 2.299273 1_555
B1 V2 2.302204 1_555
B1 V7 2.337290 1_555
B2 V1 2.225435 1_555
B2 V5 2.231831 1_655
B2 V0 2.256744 1_555
B2 W1 2.290543 1_655
B2 V4 2.305706 1_555
B2 V7 2.318061 1_554
B2 W0 2.341356 1_555
B2 V6 2.353992 1_666
B3 V3 2.225428 1_565
B3 V4 2.231831 1_555
B3 V2 2.256744 1_565
B3 W0 2.290542 1_555
B3 V5 2.305706 1_554
B3 V6 2.318059 1_565
B3 W1 2.341356 1_554
B3 V7 2.353988 1_554
