# generated using pymatgen
data_Zr3Al2IrC
_symmetry_space_group_name_H-M   'P 1'
_cell_length_a   8.63269643
_cell_length_b   8.63269597
_cell_length_c   8.63269604
_cell_angle_alpha   59.99999594
_cell_angle_beta   59.99999771
_cell_angle_gamma   59.99999671
_symmetry_Int_Tables_number   1
_chemical_formula_structural   Zr3Al2IrC
_chemical_formula_sum   'Zr12 Al8 Ir4 C4'
_cell_volume   454.90879631
_cell_formula_units_Z   4
loop_
 _symmetry_equiv_pos_site_id
 _symmetry_equiv_pos_as_xyz
  1  'x, y, z'
loop_
 _atom_site_type_symbol
 _atom_site_label
 _atom_site_symmetry_multiplicity
 _atom_site_fract_x
 _atom_site_fract_y
 _atom_site_fract_z
 _atom_site_occupancy
  Zr  Zr0  1  0.94582391  0.94582391  0.55417609  1
  Zr  Zr1  1  0.69582391  0.30417609  0.30417609  1
  Zr  Zr2  1  0.30417609  0.69582391  0.69582391  1
  Zr  Zr3  1  0.69582391  0.69582391  0.30417609  1
  Zr  Zr4  1  0.69582391  0.30417609  0.69582391  1
  Zr  Zr5  1  0.30417609  0.69582391  0.30417609  1
  Zr  Zr6  1  0.55417609  0.94582391  0.55417609  1
  Zr  Zr7  1  0.55417609  0.94582391  0.94582391  1
  Zr  Zr8  1  0.94582391  0.55417609  0.55417609  1
  Zr  Zr9  1  0.94582391  0.55417609  0.94582391  1
  Zr  Zr10  1  0.30417609  0.30417609  0.69582391  1
  Zr  Zr11  1  0.55417609  0.55417609  0.94582391  1
  Al  Al0  1  0.92058692  0.23824023  0.92058692  1
  Al  Al1  1  0.32941308  0.32941308  0.01175977  1
  Al  Al2  1  0.01175977  0.32941308  0.32941308  1
  Al  Al3  1  0.32941308  0.32941308  0.32941308  1
  Al  Al4  1  0.23824023  0.92058692  0.92058692  1
  Al  Al5  1  0.92058692  0.92058692  0.92058692  1
  Al  Al6  1  0.92058692  0.92058692  0.23824023  1
  Al  Al7  1  0.32941308  0.01175977  0.32941308  1
  Ir  Ir0  1  0.12500000  0.62500000  0.12500000  1
  Ir  Ir1  1  0.12500000  0.12500000  0.62500000  1
  Ir  Ir2  1  0.62500000  0.12500000  0.12500000  1
  Ir  Ir3  1  0.12500000  0.12500000  0.12500000  1
  C  C0  1  0.62500000  0.12500000  0.62500000  1
  C  C1  1  0.62500000  0.62500000  0.12500000  1
  C  C2  1  0.12500000  0.62500000  0.62500000  1
  C  C3  1  0.62500000  0.62500000  0.62500000  1
loop_
_geom_bond_atom_site_label_1
_geom_bond_atom_site_label_2
_geom_bond_distance
_geom_bond_site_symmetry_2
Al0 Ir3 2.616745 1_656
Al0 Ir1 2.616752 1_655
Al0 Ir2 2.616752 1_556
Al0 Al6 2.742204 1_546
Al0 Al4 2.742204 1_645
Al0 Al5 2.742204 1_545
Al0 Zr9 2.961313 1_555
Al0 Zr8 2.961318 1_555
Al0 Zr11 2.961318 1_555
Al0 Zr1 3.067491 1_556
Al0 Zr10 3.067491 1_655
Al0 Zr4 3.067498 1_555
Al1 Ir3 2.616745 1_555
Al1 Ir0 2.616752 1_555
Al1 Ir2 2.616752 1_555
Al1 Al7 2.742204 1_555
Al1 Al2 2.742204 1_555
Al1 Al3 2.742204 1_555
Al1 Zr10 2.961313 1_554
Al1 Zr2 2.961318 1_554
Al1 Zr4 2.961318 1_554
Al1 Zr7 3.067491 1_544
Al1 Zr9 3.067491 1_454
Al1 Zr11 3.067498 1_554
Al2 Ir3 2.616745 1_555
Al2 Ir1 2.616752 1_555
Al2 Ir0 2.616752 1_555
Al2 Al7 2.742204 1_555
Al2 Al3 2.742205 1_555
Al2 Zr1 2.961313 1_455
Al2 Zr3 2.961318 1_455
Al2 Zr4 2.961318 1_455
Al2 Zr0 3.067491 1_445
Al2 Zr9 3.067491 1_454
Al2 Zr8 3.067498 1_455
Al3 Ir0 2.616748 1_555
Al3 Ir1 2.616748 1_555
Al3 Ir2 2.616748 1_555
Al3 Al7 2.742204 1_555
Al3 Zr5 2.961322 1_555
Al3 Zr10 2.961322 1_555
Al3 Zr1 2.961322 1_555
Al3 Zr6 3.067494 1_545
Al3 Zr11 3.067494 1_554
Al3 Zr8 3.067494 1_455
Al4 Ir3 2.616745 1_566
Al4 Ir1 2.616752 1_565
Al4 Ir0 2.616752 1_556
Al4 Al6 2.742204 1_456
Al4 Al5 2.742205 1_455
Al4 Zr7 2.961313 1_555
Al4 Zr11 2.961318 1_555
Al4 Zr6 2.961318 1_555
Al4 Zr10 3.067491 1_565
Al4 Zr5 3.067491 1_556
Al4 Zr2 3.067498 1_555
Al5 Ir0 2.616748 1_656
Al5 Ir1 2.616748 1_665
Al5 Ir2 2.616748 1_566
Al5 Al6 2.742204 1_556
Al5 Zr9 2.961322 1_555
Al5 Zr0 2.961322 1_555
Al5 Zr7 2.961322 1_555
Al5 Zr4 3.067494 1_565
Al5 Zr3 3.067494 1_556
Al5 Zr2 3.067494 1_655
Al6 Ir3 2.616745 1_665
Al6 Ir0 2.616752 1_655
Al6 Ir2 2.616752 1_565
Al6 Zr0 2.961313 1_555
Al6 Zr8 2.961318 1_555
Al6 Zr6 2.961318 1_555
Al6 Zr1 3.067491 1_565
Al6 Zr5 3.067491 1_655
Al6 Zr3 3.067498 1_555
Al7 Ir3 2.616745 1_555
Al7 Ir1 2.616752 1_555
Al7 Ir2 2.616752 1_555
Al7 Zr5 2.961313 1_545
Al7 Zr2 2.961318 1_545
Al7 Zr3 2.961318 1_545
Al7 Zr7 3.067491 1_544
Al7 Zr0 3.067491 1_445
Al7 Zr6 3.067498 1_545
Ir0 Zr8 3.072902 1_455
Ir0 Zr2 3.072902 1_554
Ir0 Zr11 3.072902 1_554
Ir0 Zr3 3.072902 1_455
Ir0 Zr5 3.072902 1_555
Ir0 Zr9 3.072902 1_454
Ir1 Zr8 3.072902 1_455
Ir1 Zr2 3.072902 1_545
Ir1 Zr6 3.072902 1_545
Ir1 Zr4 3.072902 1_455
Ir1 Zr10 3.072902 1_555
Ir1 Zr0 3.072902 1_445
Ir2 Zr11 3.072902 1_554
Ir2 Zr3 3.072902 1_545
Ir2 Zr6 3.072902 1_545
Ir2 Zr4 3.072902 1_554
Ir2 Zr1 3.072902 1_555
Ir2 Zr7 3.072902 1_544
Ir3 Zr9 3.072902 1_454
Ir3 Zr5 3.072902 1_545
Ir3 Zr0 3.072902 1_445
Ir3 Zr10 3.072902 1_554
Ir3 Zr7 3.072902 1_544
Ir3 Zr1 3.072902 1_455
C0 Zr7 2.324938 1_545
C0 Zr1 2.324938 1_555
C0 Zr0 2.324938 1_545
C0 Zr10 2.324938 1_555
C0 Zr4 2.324938 1_555
C0 Zr6 2.324938 1_545
C1 Zr7 2.324938 1_554
C1 Zr1 2.324938 1_555
C1 Zr9 2.324938 1_554
C1 Zr5 2.324938 1_555
C1 Zr3 2.324938 1_555
C1 Zr11 2.324938 1_554
C2 Zr0 2.324938 1_455
C2 Zr10 2.324938 1_555
C2 Zr9 2.324938 1_455
C2 Zr5 2.324938 1_555
C2 Zr2 2.324938 1_555
C2 Zr8 2.324938 1_455
C3 Zr6 2.324938 1_555
C3 Zr4 2.324938 1_555
C3 Zr11 2.324938 1_555
C3 Zr3 2.324938 1_555
C3 Zr8 2.324938 1_555
C3 Zr2 2.324938 1_555
