# generated using pymatgen
data_RbCrNiP2
_symmetry_space_group_name_H-M   'P 1'
_cell_length_a   7.50329980
_cell_length_b   7.50329962
_cell_length_c   7.50329950
_cell_angle_alpha   150.58625737
_cell_angle_beta   150.58625740
_cell_angle_gamma   42.08151215
_symmetry_Int_Tables_number   1
_chemical_formula_structural   RbCrNiP2
_chemical_formula_sum   'Rb1 Cr1 Ni1 P2'
_cell_volume   101.64503001
_cell_formula_units_Z   1
loop_
 _symmetry_equiv_pos_site_id
 _symmetry_equiv_pos_as_xyz
  1  'x, y, z'
loop_
 _atom_site_type_symbol
 _atom_site_label
 _atom_site_symmetry_multiplicity
 _atom_site_fract_x
 _atom_site_fract_y
 _atom_site_fract_z
 _atom_site_occupancy
  Rb  Rb0  1  0.00000000  0.00000000  0.00000000  1
  Cr  Cr0  1  0.75000000  0.25000000  0.50000000  1
  Ni  Ni0  1  0.25000000  0.75000000  0.50000000  1
  P  P0  1  0.33813685  0.33813685  0.00000000  1
  P  P1  1  0.66186315  0.66186315  1.00000000  1
loop_
_geom_bond_atom_site_label_1
_geom_bond_atom_site_label_2
_geom_bond_distance
_geom_bond_site_symmetry_2
Cr0 P0 2.269907 1_555
Cr0 P1 2.269907 1_555
Cr0 P1 2.269907 1_544
Cr0 P0 2.269907 1_656
Ni0 P1 2.269907 1_555
Ni0 P0 2.269907 1_555
Ni0 P0 2.269907 1_566
Ni0 P1 2.269907 1_454
P0 Rb0 3.520908 1_565
P0 Rb0 3.520908 1_655
P0 Rb0 3.520908 1_554
P0 Rb0 3.520909 1_666
P1 Rb0 3.520908 1_656
P1 Rb0 3.520908 1_566
P1 Rb0 3.520908 1_667
P1 Rb0 3.520909 1_555
