# generated using pymatgen
data_Ca(PrS2)2
_symmetry_space_group_name_H-M   'P 1'
_cell_length_a   7.47326379
_cell_length_b   7.47326379
_cell_length_c   7.47326379
_cell_angle_alpha   109.68231757
_cell_angle_beta   109.68231757
_cell_angle_gamma   109.04984672
_symmetry_Int_Tables_number   1
_chemical_formula_structural   Ca(PrS2)2
_chemical_formula_sum   'Ca2 Pr4 S8'
_cell_volume   321.28573522
_cell_formula_units_Z   2
loop_
 _symmetry_equiv_pos_site_id
 _symmetry_equiv_pos_as_xyz
  1  'x, y, z'
loop_
 _atom_site_type_symbol
 _atom_site_label
 _atom_site_symmetry_multiplicity
 _atom_site_fract_x
 _atom_site_fract_y
 _atom_site_fract_z
 _atom_site_occupancy
  Ca  Ca0  1  0.00000000  -0.00000000  -0.00000000  1
  Ca  Ca1  1  0.75000000  0.25000000  0.50000000  1
  Pr  Pr0  1  0.37500000  0.75416572  0.87916572  1
  Pr  Pr1  1  0.24583428  0.12500000  0.62083428  1
  Pr  Pr2  1  0.87500000  0.49583428  0.12083428  1
  Pr  Pr3  1  0.50416572  0.62500000  0.37916572  1
  S  S0  1  0.48418683  0.23129356  0.10684417  1
  S  S1  1  0.62555061  0.01870644  0.75289327  1
  S  S2  1  0.76870644  0.87555061  0.25289327  1
  S  S3  1  0.12734267  0.37444939  0.39315583  1
  S  S4  1  0.26581317  0.87265733  0.24710673  1
  S  S5  1  0.62265733  0.51581317  0.74710673  1
  S  S6  1  0.12444939  0.37734267  0.89315583  1
  S  S7  1  0.98129356  0.73418683  0.60684417  1
loop_
_geom_bond_atom_site_label_1
_geom_bond_atom_site_label_2
_geom_bond_distance
_geom_bond_site_symmetry_2
Ca0 S3 2.865116 1_555
Ca0 S1 2.865116 1_454
Ca0 S7 2.865116 1_444
Ca0 S4 2.865116 1_545
Ca0 S0 3.124063 1_555
Ca0 S2 3.124063 1_445
Ca0 S5 3.124063 1_444
Ca0 S6 3.124063 1_554
Ca1 S6 2.865116 1_655
Ca1 S0 2.865116 1_555
Ca1 S2 2.865116 1_545
Ca1 S5 2.865116 1_555
Ca1 S1 3.124063 1_555
Ca1 S7 3.124063 1_555
Ca1 S4 3.124063 1_545
Ca1 S3 3.124063 1_655
Pr0 S2 2.880287 1_556
Pr0 S7 2.880287 1_455
Pr0 S6 2.887119 1_555
Pr0 S1 2.887119 1_565
Pr0 S4 3.058400 1_556
Pr0 S0 3.058400 1_566
Pr0 S5 3.125816 1_555
Pr0 S3 3.125816 1_555
Pr1 S4 2.880287 1_545
Pr1 S6 2.880287 1_555
Pr1 S5 2.887119 1_555
Pr1 S7 2.887119 1_445
Pr1 S3 3.058400 1_555
Pr1 S2 3.058400 1_445
Pr1 S0 3.125816 1_556
Pr1 S1 3.125816 1_555
Pr2 S5 2.880287 1_554
Pr2 S3 2.880287 1_655
Pr2 S4 2.887119 1_655
Pr2 S0 2.887119 1_555
Pr2 S6 3.058400 1_654
Pr2 S1 3.058400 1_554
Pr2 S7 3.125816 1_555
Pr2 S2 3.125816 1_555
Pr3 S0 2.880287 1_555
Pr3 S1 2.880287 1_565
Pr3 S3 2.887119 1_555
Pr3 S2 2.887119 1_555
Pr3 S5 3.058400 1_555
Pr3 S7 3.058400 1_555
Pr3 S4 3.125816 1_555
Pr3 S6 3.125816 1_554
