# generated using pymatgen
data_CsBaCoO3
_symmetry_space_group_name_H-M   'P 1'
_cell_length_a   6.65687174
_cell_length_b   6.65687137
_cell_length_c   13.04993188
_cell_angle_alpha   90.00000000
_cell_angle_beta   90.00000000
_cell_angle_gamma   127.68021532
_symmetry_Int_Tables_number   1
_chemical_formula_structural   CsBaCoO3
_chemical_formula_sum   'Cs4 Ba4 Co4 O12'
_cell_volume   457.68181820
_cell_formula_units_Z   4
loop_
 _symmetry_equiv_pos_site_id
 _symmetry_equiv_pos_as_xyz
  1  'x, y, z'
loop_
 _atom_site_type_symbol
 _atom_site_label
 _atom_site_symmetry_multiplicity
 _atom_site_fract_x
 _atom_site_fract_y
 _atom_site_fract_z
 _atom_site_occupancy
  Cs  Cs0  1  0.46035513  0.53964487  0.64612838  1
  Cs  Cs1  1  0.53964487  0.46035513  0.35387162  1
  Cs  Cs2  1  0.03964487  0.96035513  0.14612838  1
  Cs  Cs3  1  0.96035513  0.03964487  0.85387162  1
  Ba  Ba0  1  0.65040001  0.34959999  0.91889976  1
  Ba  Ba1  1  0.84959999  0.15040001  0.41889976  1
  Ba  Ba2  1  0.15040001  0.84959999  0.58110024  1
  Ba  Ba3  1  0.34959999  0.65040001  0.08110024  1
  Co  Co0  1  0.22501661  0.77498339  0.33450162  1
  Co  Co1  1  0.72501661  0.27498339  0.16549838  1
  Co  Co2  1  0.77498339  0.22501661  0.66549838  1
  Co  Co3  1  0.27498339  0.72501661  0.83450162  1
  O  O0  1  0.98656366  0.51343634  0.75000000  1
  O  O1  1  0.51343634  0.98656366  0.25000000  1
  O  O2  1  0.01343634  0.48656366  0.25000000  1
  O  O3  1  0.48656366  0.01343634  0.75000000  1
  O  O4  1  0.41912949  0.58087051  0.88354460  1
  O  O5  1  0.58087051  0.41912949  0.11645540  1
  O  O6  1  0.08087051  0.91912949  0.38354460  1
  O  O7  1  0.68319612  0.31680388  0.55118625  1
  O  O8  1  0.18319612  0.81680388  0.94881375  1
  O  O9  1  0.81680388  0.18319612  0.05118625  1
  O  O10  1  0.31680388  0.68319612  0.44881375  1
  O  O11  1  0.91912949  0.08087051  0.61645540  1
loop_
_geom_bond_atom_site_label_1
_geom_bond_atom_site_label_2
_geom_bond_distance
_geom_bond_site_symmetry_2
Cs0 O7 2.937068 1_555
Cs0 O11 3.001014 1_565
Cs0 O11 3.001014 1_455
Cs0 O10 3.094034 1_555
Cs0 O4 3.137188 1_555
Cs0 O3 3.338066 1_565
Cs0 O0 3.338066 1_455
Cs1 O10 2.937068 1_555
Cs1 O6 3.001014 1_545
Cs1 O6 3.001014 1_655
Cs1 O7 3.094034 1_555
Cs1 O5 3.137188 1_555
Cs1 O1 3.338066 1_545
Cs1 O2 3.338066 1_655
Cs2 O9 2.937068 1_465
Cs2 O5 3.001014 1_455
Cs2 O5 3.001014 1_565
Cs2 O8 3.094034 1_554
Cs2 O6 3.137188 1_555
Cs2 O2 3.338066 1_555
Cs2 O1 3.338066 1_555
Cs3 O8 2.937068 1_645
Cs3 O4 3.001014 1_655
Cs3 O4 3.001014 1_545
Cs3 O9 3.094034 1_556
Cs3 O11 3.137188 1_555
Cs3 O0 3.338066 1_555
Cs3 O3 3.338066 1_555
Ba0 O9 2.633332 1_556
Ba0 O5 2.708670 1_556
Ba0 O4 2.801926 1_555
Ba0 O3 2.841080 1_555
Ba0 O0 2.841080 1_555
Ba0 O8 2.986541 1_545
Ba0 O8 2.986541 1_655
Ba1 O7 2.633332 1_555
Ba1 O11 2.708670 1_555
Ba1 O6 2.801926 1_645
Ba1 O2 2.841080 1_655
Ba1 O1 2.841080 1_545
Ba1 O10 2.986541 1_655
Ba1 O10 2.986541 1_545
Ba2 O10 2.633332 1_555
Ba2 O6 2.708670 1_555
Ba2 O11 2.801926 1_465
Ba2 O0 2.841080 1_455
Ba2 O3 2.841080 1_565
Ba2 O7 2.986541 1_455
Ba2 O7 2.986541 1_565
Ba3 O8 2.633332 1_554
Ba3 O4 2.708670 1_554
Ba3 O5 2.801926 1_555
Ba3 O1 2.841080 1_555
Ba3 O2 2.841080 1_555
Ba3 O9 2.986541 1_565
Ba3 O9 2.986541 1_455
Co0 O6 1.837597 1_555
Co0 O10 1.851609 1_555
Co0 O2 1.892137 1_555
Co0 O1 1.892137 1_555
Co1 O5 1.837597 1_555
Co1 O9 1.851609 1_555
Co1 O1 1.892137 1_545
Co1 O2 1.892137 1_655
Co2 O11 1.837597 1_555
Co2 O7 1.851609 1_555
Co2 O0 1.892137 1_555
Co2 O3 1.892137 1_555
Co3 O4 1.837597 1_555
Co3 O8 1.851609 1_555
Co3 O3 1.892137 1_565
Co3 O0 1.892137 1_455
