# generated using pymatgen
data_Be8VMo3
_symmetry_space_group_name_H-M   'P 1'
_cell_length_a   4.42218915
_cell_length_b   4.42218887
_cell_length_c   7.23555387
_cell_angle_alpha   90.00000000
_cell_angle_beta   90.00000000
_cell_angle_gamma   120.00000214
_symmetry_Int_Tables_number   1
_chemical_formula_structural   Be8VMo3
_chemical_formula_sum   'Be8 V1 Mo3'
_cell_volume   122.53975455
_cell_formula_units_Z   1
loop_
 _symmetry_equiv_pos_site_id
 _symmetry_equiv_pos_as_xyz
  1  'x, y, z'
loop_
 _atom_site_type_symbol
 _atom_site_label
 _atom_site_symmetry_multiplicity
 _atom_site_fract_x
 _atom_site_fract_y
 _atom_site_fract_z
 _atom_site_occupancy
  Be  Be0  1  0.00000000  0.00000000  0.49879685  1
  Be  Be1  1  0.00000000  0.00000000  0.00275627  1
  Be  Be2  1  0.82992392  0.17007608  0.25264078  1
  Be  Be3  1  0.82992392  0.65984585  0.25264078  1
  Be  Be4  1  0.34015415  0.17007608  0.25264078  1
  Be  Be5  1  0.16990049  0.83009951  0.74733182  1
  Be  Be6  1  0.16990049  0.33980197  0.74733182  1
  Be  Be7  1  0.66019803  0.83009951  0.74733182  1
  V  V0  1  0.33333300  0.66666700  0.43517408  1
  Mo  Mo0  1  0.66666700  0.33333300  0.56241274  1
  Mo  Mo1  1  0.66666700  0.33333300  0.93752714  1
  Mo  Mo2  1  0.33333300  0.66666700  0.06341412  1
loop_
_geom_bond_atom_site_label_1
_geom_bond_atom_site_label_2
_geom_bond_distance
_geom_bond_site_symmetry_2
Be0 Be2 2.206634 1_455
Be0 Be3 2.206638 1_445
Be0 Be4 2.206638 1_555
Be0 Be5 2.219761 1_545
Be0 Be6 2.219763 1_555
Be0 Be7 2.219764 1_445
Be0 Mo0 2.594310 1_455
Be0 Mo0 2.594314 1_445
Be0 Mo0 2.594314 1_555
Be0 V0 2.594319 1_545
Be0 V0 2.594323 1_555
Be0 V0 2.594323 1_445
Be1 Be2 2.228465 1_455
Be1 Be3 2.228470 1_445
Be1 Be4 2.228470 1_555
Be1 Be5 2.260334 1_544
Be1 Be6 2.260336 1_554
Be1 Be7 2.260337 1_444
Be1 Mo2 2.590598 1_545
Be1 Mo2 2.590602 1_555
Be1 Mo2 2.590602 1_445
Be1 Mo1 2.596407 1_454
Be1 Mo1 2.596410 1_444
Be1 Mo1 2.596410 1_554
Be2 Be3 2.165854 1_555
Be2 Be4 2.165855 1_555
Be2 Be3 2.256334 1_545
Be2 Be4 2.256335 1_655
Be2 Mo0 2.566592 1_555
Be2 V0 2.575645 1_545
Be2 V0 2.575645 1_655
Be2 Mo1 2.600413 1_554
Be2 Mo2 2.600811 1_545
Be2 Mo2 2.600811 1_655
Be3 Be4 2.165854 1_555
Be3 Be4 2.256334 1_665
Be3 Mo0 2.566590 1_555
Be3 V0 2.575640 1_655
Be3 V0 2.575651 1_555
Be3 Mo1 2.600411 1_554
Be3 Mo2 2.600806 1_655
Be3 Mo2 2.600817 1_555
Be4 Mo0 2.566590 1_555
Be4 V0 2.575639 1_545
Be4 V0 2.575651 1_555
Be4 Mo1 2.600411 1_554
Be4 Mo2 2.600806 1_545
Be4 Mo2 2.600817 1_555
Be5 Be6 2.168188 1_555
Be5 Be7 2.168188 1_555
Be5 Be6 2.254001 1_565
Be5 Be7 2.254001 1_455
Be5 V0 2.582333 1_555
Be5 Mo0 2.584526 1_565
Be5 Mo0 2.584526 1_455
Be5 Mo1 2.604494 1_565
Be5 Mo1 2.604495 1_455
Be5 Mo2 2.607206 1_556
Be6 Be7 2.168188 1_555
Be6 Be7 2.254001 1_445
Be6 V0 2.582333 1_555
Be6 Mo0 2.584522 1_455
Be6 Mo0 2.584530 1_555
Be6 Mo1 2.604491 1_455
Be6 Mo1 2.604498 1_555
Be6 Mo2 2.607206 1_556
Be7 V0 2.582333 1_555
Be7 Mo0 2.584522 1_565
Be7 Mo0 2.584530 1_555
Be7 Mo1 2.604491 1_565
Be7 Mo1 2.604498 1_555
Be7 Mo2 2.607206 1_556
Mo0 V0 2.714066 1_545
Mo0 V0 2.714066 1_655
Mo0 V0 2.714073 1_555
Mo0 Mo1 2.714160 1_555
Mo1 Mo2 2.710764 1_546
Mo1 Mo2 2.710764 1_656
Mo1 Mo2 2.710771 1_556
Mo2 V0 2.689889 1_555
