# generated using pymatgen
data_Zr7Nb3Sn6As
_symmetry_space_group_name_H-M   'P 1'
_cell_length_a   5.75119397
_cell_length_b   8.49680826
_cell_length_c   8.49686225
_cell_angle_alpha   119.99971247
_cell_angle_beta   89.99975810
_cell_angle_gamma   90.00010280
_symmetry_Int_Tables_number   1
_chemical_formula_structural   Zr7Nb3Sn6As
_chemical_formula_sum   'Zr7 Nb3 Sn6 As1'
_cell_volume   359.58726349
_cell_formula_units_Z   1
loop_
 _symmetry_equiv_pos_site_id
 _symmetry_equiv_pos_as_xyz
  1  'x, y, z'
loop_
 _atom_site_type_symbol
 _atom_site_label
 _atom_site_symmetry_multiplicity
 _atom_site_fract_x
 _atom_site_fract_y
 _atom_site_fract_z
 _atom_site_occupancy
  Zr  Zr0  1  0.00000000  0.33333300  0.66666800  1
  Zr  Zr1  1  0.76435459  0.25622027  0.00033192  1
  Zr  Zr2  1  0.76435359  0.74411266  0.74377973  1
  Zr  Zr3  1  0.76435259  0.99966908  0.25588834  1
  Zr  Zr4  1  0.23564541  0.74411266  0.00033192  1
  Zr  Zr5  1  0.23564841  0.25621927  0.25588834  1
  Zr  Zr6  1  0.23564641  0.99966808  0.74378073  1
  Nb  Nb0  1  0.50000000  0.33333400  0.66666800  1
  Nb  Nb1  1  0.50000000  0.66666600  0.33333300  1
  Nb  Nb2  1  0.00000000  0.66666600  0.33333200  1
  Sn  Sn0  1  0.74424460  0.60641811  0.00234128  1
  Sn  Sn1  1  0.74424560  0.39592718  0.39358489  1
  Sn  Sn2  1  0.74424460  0.99765772  0.60407282  1
  Sn  Sn3  1  0.25575540  0.39592418  0.00234128  1
  Sn  Sn4  1  0.25575540  0.60641511  0.60407382  1
  Sn  Sn5  1  0.25575540  0.99765972  0.39358389  1
  As  As0  1  0.50000000  0.00000000  0.00000000  1
loop_
_geom_bond_atom_site_label_1
_geom_bond_atom_site_label_2
_geom_bond_distance
_geom_bond_site_symmetry_2
Nb0 Zr0 2.875597 1_555
Nb0 Zr0 2.875597 1_655
Nb0 Sn4 2.978926 1_555
Nb0 Sn2 2.978930 1_545
Nb0 Sn3 2.978931 1_556
Nb0 Sn1 2.978941 1_555
Nb0 Sn5 2.978942 1_545
Nb0 Sn0 2.978944 1_556
Nb1 Nb2 2.875597 1_655
Nb1 Nb2 2.875597 1_555
Nb1 Sn1 2.950409 1_555
Nb1 Sn4 2.950419 1_555
Nb1 Sn2 2.950426 1_555
Nb1 Sn5 2.950430 1_555
Nb1 Sn0 2.950433 1_555
Nb1 Sn3 2.950439 1_555
Nb2 Sn1 2.982488 1_455
Nb2 Sn2 2.982511 1_455
Nb2 Sn5 2.982511 1_555
Nb2 Sn3 2.982513 1_555
Nb2 Sn0 2.982522 1_455
Nb2 Sn4 2.982523 1_555
Nb2 Zr4 3.483877 1_555
Nb2 Zr1 3.483884 1_455
Nb2 Zr3 3.483884 1_455
Nb2 Zr5 3.483886 1_555
Nb2 Zr2 3.483896 1_455
Nb2 Zr6 3.483915 1_555
Sn0 Zr3 2.936150 1_555
Sn0 Zr2 2.962967 1_554
Sn0 Zr1 2.969318 1_555
Sn0 Zr0 3.010722 1_654
Sn0 Zr4 3.062049 1_655
Sn0 Zr4 3.153574 1_555
Sn1 Zr1 2.936174 1_555
Sn1 Zr3 2.962975 1_545
Sn1 Zr2 2.969314 1_555
Sn1 Zr0 3.010733 1_655
Sn1 Zr5 3.062073 1_655
Sn1 Zr5 3.153577 1_555
Sn2 Zr2 2.936143 1_555
Sn2 Zr1 2.963007 1_566
Sn2 Zr3 2.969310 1_555
Sn2 Zr0 3.010703 1_665
Sn2 Zr6 3.062076 1_655
Sn2 Zr6 3.153576 1_555
Sn3 Zr5 2.936152 1_555
Sn3 Zr6 2.962970 1_544
Sn3 Zr4 2.969318 1_555
Sn3 Zr0 3.010721 1_554
Sn3 Zr1 3.062049 1_455
Sn3 Zr1 3.153574 1_555
Sn4 Zr6 2.936153 1_555
Sn4 Zr4 2.962995 1_556
Sn4 Zr5 2.969318 1_555
Sn4 Zr0 3.010710 1_555
Sn4 Zr2 3.062065 1_455
Sn4 Zr2 3.153580 1_555
Sn5 Zr4 2.936171 1_555
Sn5 Zr5 2.962951 1_565
Sn5 Zr6 2.969331 1_555
Sn5 Zr0 3.010715 1_565
Sn5 Zr3 3.062073 1_455
Sn5 Zr3 3.153562 1_555
As0 Zr4 2.654216 1_545
As0 Zr5 2.654222 1_555
As0 Zr1 2.654223 1_555
As0 Zr2 2.654229 1_544
As0 Zr6 2.654232 1_544
As0 Zr3 2.654232 1_545
