# generated using pymatgen
data_Zr10SiNiSb6
_symmetry_space_group_name_H-M   'P 1'
_cell_length_a   8.61605143
_cell_length_b   8.61605199
_cell_length_c   5.82766250
_cell_angle_alpha   90.00000000
_cell_angle_beta   90.00000000
_cell_angle_gamma   119.99999404
_symmetry_Int_Tables_number   1
_chemical_formula_structural   Zr10SiNiSb6
_chemical_formula_sum   'Zr10 Si1 Ni1 Sb6'
_cell_volume   374.66372264
_cell_formula_units_Z   1
loop_
 _symmetry_equiv_pos_site_id
 _symmetry_equiv_pos_as_xyz
  1  'x, y, z'
loop_
 _atom_site_type_symbol
 _atom_site_label
 _atom_site_symmetry_multiplicity
 _atom_site_fract_x
 _atom_site_fract_y
 _atom_site_fract_z
 _atom_site_occupancy
  Zr  Zr0  1  0.25741293  0.00000000  0.24655108  1
  Zr  Zr1  1  0.25741293  0.25741293  0.75344892  1
  Zr  Zr2  1  1.00000000  0.74258707  0.75344892  1
  Zr  Zr3  1  0.00000000  0.25741293  0.24655108  1
  Zr  Zr4  1  0.74258707  0.74258707  0.24655108  1
  Zr  Zr5  1  0.74258707  1.00000000  0.75344892  1
  Zr  Zr6  1  0.33333300  0.66666700  0.00000000  1
  Zr  Zr7  1  0.66666700  0.33333300  0.50000000  1
  Zr  Zr8  1  0.66666700  0.33333300  0.00000000  1
  Zr  Zr9  1  0.33333300  0.66666700  0.50000000  1
  Si  Si0  1  0.00000000  0.00000000  0.50000000  1
  Ni  Ni0  1  0.00000000  0.00000000  0.00000000  1
  Sb  Sb0  1  0.60919371  1.00000000  0.24843583  1
  Sb  Sb1  1  0.60919371  0.60919371  0.75156417  1
  Sb  Sb2  1  0.00000000  0.39080629  0.75156417  1
  Sb  Sb3  1  1.00000000  0.60919371  0.24843583  1
  Sb  Sb4  1  0.39080629  0.39080629  0.24843583  1
  Sb  Sb5  1  0.39080629  0.00000000  0.75156417  1
loop_
_geom_bond_atom_site_label_1
_geom_bond_atom_site_label_2
_geom_bond_distance
_geom_bond_site_symmetry_2
Si0 Zr5 2.664691 1_445
Si0 Zr0 2.664691 1_555
Si0 Zr2 2.664691 1_445
Si0 Zr3 2.664691 1_555
Si0 Zr1 2.664691 1_555
Si0 Zr4 2.664691 1_445
Ni0 Zr0 2.642621 1_555
Ni0 Zr5 2.642621 1_444
Ni0 Zr3 2.642621 1_555
Ni0 Zr2 2.642621 1_444
Ni0 Zr1 2.642621 1_554
Ni0 Zr4 2.642621 1_445
Sb0 Zr4 2.964648 1_555
Sb0 Zr3 2.964648 1_665
Sb0 Zr8 3.027806 1_565
Sb0 Zr6 3.027809 1_555
Sb0 Zr0 3.030981 1_565
Sb0 Zr7 3.036565 1_565
Sb0 Zr9 3.036568 1_555
Sb0 Zr5 3.105150 1_554
Sb0 Zr5 3.159504 1_555
Sb1 Zr2 2.964648 1_555
Sb1 Zr5 2.964648 1_555
Sb1 Zr6 3.027813 1_556
Sb1 Zr8 3.027813 1_556
Sb1 Zr1 3.030982 1_555
Sb1 Zr9 3.036573 1_555
Sb1 Zr7 3.036573 1_555
Sb1 Zr4 3.105150 1_556
Sb1 Zr4 3.159504 1_555
Sb2 Zr1 2.964648 1_555
Sb2 Zr5 2.964648 1_445
Sb2 Zr8 3.027806 1_456
Sb2 Zr6 3.027808 1_556
Sb2 Zr2 3.030981 1_455
Sb2 Zr7 3.036565 1_455
Sb2 Zr9 3.036568 1_555
Sb2 Zr3 3.105150 1_556
Sb2 Zr3 3.159504 1_555
Sb3 Zr4 2.964648 1_555
Sb3 Zr0 2.964648 1_665
Sb3 Zr6 3.027806 1_655
Sb3 Zr8 3.027808 1_555
Sb3 Zr3 3.030981 1_655
Sb3 Zr9 3.036565 1_655
Sb3 Zr7 3.036568 1_555
Sb3 Zr2 3.105150 1_554
Sb3 Zr2 3.159504 1_555
Sb4 Zr3 2.964648 1_555
Sb4 Zr0 2.964648 1_555
Sb4 Zr8 3.027813 1_555
Sb4 Zr6 3.027813 1_555
Sb4 Zr4 3.030982 1_555
Sb4 Zr7 3.036573 1_555
Sb4 Zr9 3.036573 1_555
Sb4 Zr1 3.105150 1_554
Sb4 Zr1 3.159504 1_555
Sb5 Zr1 2.964648 1_555
Sb5 Zr2 2.964648 1_445
Sb5 Zr6 3.027806 1_546
Sb5 Zr8 3.027809 1_556
Sb5 Zr5 3.030981 1_545
Sb5 Zr9 3.036565 1_545
Sb5 Zr7 3.036568 1_555
Sb5 Zr0 3.105150 1_556
Sb5 Zr0 3.159504 1_555
