# generated using pymatgen
data_BaP12(RuRh)2
_symmetry_space_group_name_H-M   'P 1'
_cell_length_a   7.04343097
_cell_length_b   7.04427817
_cell_length_c   7.04343294
_cell_angle_alpha   109.49327486
_cell_angle_beta   109.43319702
_cell_angle_gamma   109.48232565
_symmetry_Int_Tables_number   1
_chemical_formula_structural   BaP12(RuRh)2
_chemical_formula_sum   'Ba1 P12 Ru2 Rh2'
_cell_volume   269.03527121
_cell_formula_units_Z   1
loop_
 _symmetry_equiv_pos_site_id
 _symmetry_equiv_pos_as_xyz
  1  'x, y, z'
loop_
 _atom_site_type_symbol
 _atom_site_label
 _atom_site_symmetry_multiplicity
 _atom_site_fract_x
 _atom_site_fract_y
 _atom_site_fract_z
 _atom_site_occupancy
  Ba  Ba0  1  0.00000000  0.00000000  0.00000000  1
  P  P0  1  0.35826925  0.21416948  0.85590023  1
  P  P1  1  0.64173075  0.78583052  0.14409977  1
  P  P2  1  0.63990063  0.49755019  0.85764956  1
  P  P3  1  0.36009937  0.50244981  0.14235044  1
  P  P4  1  0.21612825  0.85905697  0.36138130  1
  P  P5  1  0.78387175  0.14094303  0.63861870  1
  P  P6  1  0.49767467  0.85905697  0.64292773  1
  P  P7  1  0.50232533  0.14094303  0.35707227  1
  P  P8  1  0.85442038  0.35686606  0.21601739  1
  P  P9  1  0.14557962  0.64313394  0.78398261  1
  P  P10  1  0.85915134  0.64313394  0.49755432  1
  P  P11  1  0.14084866  0.35686606  0.50244568  1
  Ru  Ru0  1  0.00000000  0.00000000  0.50000000  1
  Ru  Ru1  1  0.50000000  0.00000000  0.00000000  1
  Rh  Rh0  1  0.00000000  0.50000000  0.00000000  1
  Rh  Rh1  1  0.50000000  0.50000000  0.50000000  1
loop_
_geom_bond_atom_site_label_1
_geom_bond_atom_site_label_2
_geom_bond_distance
_geom_bond_site_symmetry_2
Ba0 P0 3.140185 1_554
Ba0 P1 3.140185 1_445
Ba0 P9 3.144952 1_544
Ba0 P8 3.144952 1_455
Ba0 P10 3.144953 1_444
Ba0 P11 3.144953 1_555
Ba0 P4 3.146169 1_545
Ba0 P5 3.146169 1_454
Ba0 P7 3.146176 1_555
Ba0 P6 3.146176 1_444
Ba0 P3 3.149132 1_555
Ba0 P2 3.149132 1_444
P0 P2 2.290394 1_555
P0 P3 2.329271 1_556
P0 Ru0 2.378043 1_555
P0 Ru1 2.378044 1_556
P1 P3 2.290394 1_555
P1 P2 2.329271 1_554
P1 Ru0 2.378043 1_665
P1 Ru1 2.378044 1_565
P2 Rh0 2.388653 1_656
P2 Rh1 2.388654 1_555
P3 Rh0 2.388653 1_555
P3 Rh1 2.388654 1_555
P4 P6 2.290907 1_555
P4 P7 2.327727 1_565
P4 Ru0 2.367814 1_565
P4 Rh0 2.397979 1_555
P5 P7 2.290907 1_555
P5 P6 2.327727 1_545
P5 Ru0 2.367814 1_655
P5 Rh0 2.397979 1_656
P6 Ru1 2.367817 1_566
P6 Rh1 2.397982 1_555
P7 Ru1 2.367817 1_555
P7 Rh1 2.397982 1_555
P8 Ru1 2.366475 1_555
P8 Rh0 2.399030 1_655
P9 Ru1 2.366475 1_566
P9 Rh0 2.399030 1_556
P10 P8 2.289600 1_555
P10 P9 2.330630 1_655
P10 Ru0 2.366475 1_665
P10 Rh1 2.399030 1_555
P11 P9 2.289600 1_555
P11 P8 2.330630 1_455
P11 Ru0 2.366475 1_555
P11 Rh1 2.399030 1_555
