# generated using pymatgen
data_K8HfSb4
_symmetry_space_group_name_H-M   'P 1'
_cell_length_a   11.53497032
_cell_length_b   11.53497006
_cell_length_c   11.53497005
_cell_angle_alpha   60.00000004
_cell_angle_beta   60.00000079
_cell_angle_gamma   59.99999978
_symmetry_Int_Tables_number   1
_chemical_formula_structural   K8HfSb4
_chemical_formula_sum   'K16 Hf2 Sb8'
_cell_volume   1085.26157928
_cell_formula_units_Z   2
loop_
 _symmetry_equiv_pos_site_id
 _symmetry_equiv_pos_as_xyz
  1  'x, y, z'
loop_
 _atom_site_type_symbol
 _atom_site_label
 _atom_site_symmetry_multiplicity
 _atom_site_fract_x
 _atom_site_fract_y
 _atom_site_fract_z
 _atom_site_occupancy
  K  K0  1  0.62488797  0.12533608  0.62488797  1
  K  K1  1  0.62488797  0.62488797  0.12533608  1
  K  K2  1  0.12533608  0.62488797  0.62488797  1
  K  K3  1  0.62488797  0.62488797  0.62488797  1
  K  K4  1  0.02639579  0.02639579  0.47360421  1
  K  K5  1  0.77709060  0.22290940  0.22290940  1
  K  K6  1  0.22290940  0.77709060  0.77709060  1
  K  K7  1  0.77709060  0.77709060  0.22290940  1
  K  K8  1  0.77709060  0.22290940  0.77709060  1
  K  K9  1  0.22290940  0.77709060  0.22290940  1
  K  K10  1  0.47360421  0.02639579  0.47360421  1
  K  K11  1  0.47360421  0.02639579  0.02639579  1
  K  K12  1  0.02639579  0.47360421  0.47360421  1
  K  K13  1  0.02639579  0.47360421  0.02639579  1
  K  K14  1  0.22290940  0.22290940  0.77709060  1
  K  K15  1  0.47360421  0.47360421  0.02639579  1
  Hf  Hf0  1  0.75000000  0.75000000  0.75000000  1
  Hf  Hf1  1  0.50000000  0.50000000  0.50000000  1
  Sb  Sb0  1  0.39916311  0.80250967  0.39916311  1
  Sb  Sb1  1  0.85078445  0.85078445  0.44764666  1
  Sb  Sb2  1  0.44764666  0.85078445  0.85078445  1
  Sb  Sb3  1  0.85078445  0.85078445  0.85078445  1
  Sb  Sb4  1  0.80250967  0.39916311  0.39916311  1
  Sb  Sb5  1  0.39916311  0.39916311  0.39916311  1
  Sb  Sb6  1  0.39916311  0.39916311  0.80250967  1
  Sb  Sb7  1  0.85078445  0.44764666  0.85078445  1
loop_
_geom_bond_atom_site_label_1
_geom_bond_atom_site_label_2
_geom_bond_distance
_geom_bond_site_symmetry_2
K0 Sb6 3.723792 1_555
K0 Sb4 3.723792 1_555
K0 Sb5 3.723799 1_555
K0 Sb1 3.727523 1_545
K0 Sb3 3.727523 1_545
K0 Sb2 3.727523 1_545
K1 Sb4 3.723792 1_555
K1 Sb0 3.723792 1_555
K1 Sb5 3.723799 1_555
K1 Sb2 3.727523 1_554
K1 Sb7 3.727523 1_554
K1 Sb3 3.727523 1_554
K2 Sb6 3.723792 1_555
K2 Sb0 3.723792 1_555
K2 Sb5 3.723799 1_555
K2 Sb1 3.727523 1_455
K2 Sb3 3.727523 1_455
K2 Sb7 3.727523 1_455
K3 Sb4 3.723801 1_555
K3 Sb0 3.723801 1_555
K3 Sb6 3.723801 1_555
K3 Sb2 3.727523 1_555
K3 Sb7 3.727523 1_555
K3 Sb1 3.727523 1_555
K4 Sb4 3.649166 1_455
K4 Sb0 3.649167 1_545
K4 Sb1 3.689545 1_445
K4 Sb3 3.689545 1_445
K5 Sb1 3.646268 1_545
K5 Sb7 3.646268 1_554
K5 Sb4 3.698440 1_555
K5 Sb5 3.698448 1_555
K6 Sb2 3.646268 1_555
K6 Sb3 3.646268 1_455
K6 Sb6 3.698450 1_555
K6 Sb0 3.698450 1_555
K7 Sb3 3.646268 1_554
K7 Sb1 3.646268 1_555
K7 Sb4 3.698450 1_555
K7 Sb0 3.698450 1_555
K8 Sb3 3.646268 1_545
K8 Sb7 3.646268 1_555
K8 Sb4 3.698450 1_555
K8 Sb6 3.698450 1_555
K9 Sb2 3.646268 1_554
K9 Sb1 3.646268 1_455
K9 Sb0 3.698440 1_555
K9 Sb5 3.698448 1_555
K10 Sb5 3.649164 1_555
K10 Sb0 3.649175 1_545
K10 Sb2 3.689545 1_545
K10 Sb1 3.689545 1_545
K11 Sb6 3.649166 1_554
K11 Sb0 3.649166 1_545
K11 Sb2 3.689545 1_544
K11 Sb3 3.689545 1_544
K12 Sb5 3.649164 1_555
K12 Sb4 3.649175 1_455
K12 Sb1 3.689545 1_455
K12 Sb7 3.689545 1_455
K13 Sb4 3.649167 1_455
K13 Sb6 3.649167 1_554
K13 Sb3 3.689545 1_454
K13 Sb7 3.689545 1_454
K14 Sb2 3.646268 1_545
K14 Sb7 3.646268 1_455
K14 Sb6 3.698440 1_555
K14 Sb5 3.698448 1_555
K15 Sb5 3.649164 1_555
K15 Sb6 3.649175 1_554
K15 Sb2 3.689545 1_554
K15 Sb7 3.689545 1_554
Hf0 Sb7 2.847643 1_555
Hf0 Sb1 2.847643 1_555
Hf0 Sb3 2.847643 1_555
Hf0 Sb2 2.847644 1_555
Hf0 K0 3.535014 1_565
Hf0 K1 3.535014 1_556
Hf0 K3 3.535014 1_555
Hf0 K2 3.535014 1_655
Hf1 Sb0 2.849116 1_555
Hf1 Sb6 2.849116 1_555
Hf1 Sb4 2.849116 1_555
Hf1 Sb5 2.849125 1_555
Hf1 K0 3.528684 1_555
Hf1 K3 3.528684 1_555
Hf1 K1 3.528684 1_555
Hf1 K2 3.528684 1_555
