# generated using pymatgen
data_K2BeTe2
_symmetry_space_group_name_H-M   'P 1'
_cell_length_a   8.49739828
_cell_length_b   8.49739944
_cell_length_c   8.49739853
_cell_angle_alpha   133.93003125
_cell_angle_beta   129.90621561
_cell_angle_gamma   70.40847144
_symmetry_Int_Tables_number   1
_chemical_formula_structural   K2BeTe2
_chemical_formula_sum   'K4 Be2 Te4'
_cell_volume   332.20509782
_cell_formula_units_Z   2
loop_
 _symmetry_equiv_pos_site_id
 _symmetry_equiv_pos_as_xyz
  1  'x, y, z'
loop_
 _atom_site_type_symbol
 _atom_site_label
 _atom_site_symmetry_multiplicity
 _atom_site_fract_x
 _atom_site_fract_y
 _atom_site_fract_z
 _atom_site_occupancy
  K  K0  1  0.17778774  0.85793923  0.31984851  1
  K  K1  1  0.82221226  0.14206077  0.68015149  1
  K  K2  1  0.46190928  0.64206077  0.81984851  1
  K  K3  1  0.53809072  0.35793923  0.18015149  1
  Be  Be0  1  0.00000000  0.25000000  0.25000000  1
  Be  Be1  1  0.00000000  0.75000000  0.75000000  1
  Te  Te0  1  0.92123594  0.60049876  0.32073818  1
  Te  Te1  1  0.07876406  0.39950124  0.67926182  1
  Te  Te2  1  0.72023942  0.89950124  0.82073818  1
  Te  Te3  1  0.27976058  0.10049876  0.17926182  1
loop_
_geom_bond_atom_site_label_1
_geom_bond_atom_site_label_2
_geom_bond_distance
_geom_bond_site_symmetry_2
K0 Te3 3.516901 1_565
K0 Te1 3.523022 1_565
K0 Te1 3.523028 1_554
K0 Te0 3.574957 1_455
K0 Te2 3.637140 1_454
K0 Te2 3.649781 1_555
K1 Te2 3.516901 1_545
K1 Te0 3.523022 1_545
K1 Te0 3.523028 1_556
K1 Te1 3.574957 1_655
K1 Te3 3.637140 1_656
K1 Te3 3.649781 1_555
K2 Te1 3.516894 1_555
K2 Te3 3.523025 1_566
K2 Te3 3.523025 1_555
K2 Te2 3.574950 1_555
K2 Te0 3.637145 1_455
K2 Te0 3.649778 1_556
K3 Te0 3.516894 1_555
K3 Te2 3.523025 1_544
K3 Te2 3.523025 1_555
K3 Te3 3.574950 1_555
K3 Te1 3.637145 1_655
K3 Te1 3.649778 1_554
Be0 Te1 2.524873 1_555
Be0 Te3 2.524878 1_555
Be0 Te2 2.524878 1_444
Be0 Te0 2.524878 1_455
Be0 K3 3.457081 1_455
Be0 K1 3.457081 1_454
Be0 K2 3.457081 1_555
Be0 K0 3.457081 1_545
Be1 Te0 2.524873 1_455
Be1 Te2 2.524878 1_455
Be1 Te3 2.524878 1_566
Be1 Te1 2.524878 1_555
Be1 K2 3.457081 1_555
Be1 K0 3.457081 1_556
Be1 K3 3.457081 1_455
Be1 K1 3.457081 1_465
