# generated using pymatgen
data_ZrCd(Ni7B2)3
_symmetry_space_group_name_H-M   'P 1'
_cell_length_a   7.41996600
_cell_length_b   7.41996609
_cell_length_c   7.41996716
_cell_angle_alpha   59.99999957
_cell_angle_beta   59.99999913
_cell_angle_gamma   59.99999986
_symmetry_Int_Tables_number   1
_chemical_formula_structural   ZrCd(Ni7B2)3
_chemical_formula_sum   'Zr1 Cd1 Ni21 B6'
_cell_volume   288.86226783
_cell_formula_units_Z   1
loop_
 _symmetry_equiv_pos_site_id
 _symmetry_equiv_pos_as_xyz
  1  'x, y, z'
loop_
 _atom_site_type_symbol
 _atom_site_label
 _atom_site_symmetry_multiplicity
 _atom_site_fract_x
 _atom_site_fract_y
 _atom_site_fract_z
 _atom_site_occupancy
  Zr  Zr0  1  0.25000000  0.25000000  0.25000000  1
  Cd  Cd0  1  0.75000000  0.75000000  0.75000000  1
  Ni  Ni0  1  0.00000000  0.00000000  0.00000000  1
  Ni  Ni1  1  0.61342266  0.61342266  0.15973302  1
  Ni  Ni2  1  0.61342266  0.15973302  0.61342266  1
  Ni  Ni3  1  0.15973302  0.61342266  0.61342266  1
  Ni  Ni4  1  0.61342266  0.61342266  0.61342266  1
  Ni  Ni5  1  0.38581359  0.38581359  0.84255922  1
  Ni  Ni6  1  0.38581359  0.84255922  0.38581359  1
  Ni  Ni7  1  0.84255922  0.38581359  0.38581359  1
  Ni  Ni8  1  0.38581359  0.38581359  0.38581359  1
  Ni  Ni9  1  0.00149341  0.00149341  0.33587361  1
  Ni  Ni10  1  0.66113957  0.00149341  0.33587361  1
  Ni  Ni11  1  0.00149341  0.66113957  0.33587361  1
  Ni  Ni12  1  0.66113957  0.33587361  0.00149341  1
  Ni  Ni13  1  0.00149341  0.33587361  0.00149341  1
  Ni  Ni14  1  0.00149341  0.33587361  0.66113957  1
  Ni  Ni15  1  0.33587361  0.66113957  0.00149341  1
  Ni  Ni16  1  0.33587361  0.00149341  0.66113957  1
  Ni  Ni17  1  0.33587361  0.00149341  0.00149341  1
  Ni  Ni18  1  0.00149341  0.00149341  0.66113957  1
  Ni  Ni19  1  0.00149341  0.66113957  0.00149341  1
  Ni  Ni20  1  0.66113957  0.00149341  0.00149341  1
  B  B0  1  0.72898718  0.72898718  0.27101282  1
  B  B1  1  0.27101282  0.72898718  0.27101282  1
  B  B2  1  0.72898718  0.27101282  0.27101282  1
  B  B3  1  0.27101282  0.27101282  0.72898718  1
  B  B4  1  0.72898718  0.27101282  0.72898718  1
  B  B5  1  0.27101282  0.72898718  0.72898718  1
loop_
_geom_bond_atom_site_label_1
_geom_bond_atom_site_label_2
_geom_bond_distance
_geom_bond_site_symmetry_2
Cd0 Ni4 2.482311 1_555
Cd0 Ni3 2.482317 1_655
Cd0 Ni2 2.482317 1_565
Cd0 Ni1 2.482317 1_556
Ni0 Ni20 2.503301 1_455
Ni0 Ni17 2.503301 1_555
Ni0 Ni12 2.503301 1_455
Ni0 Ni15 2.503301 1_545
Ni0 Ni19 2.503301 1_545
Ni0 Ni13 2.503301 1_555
Ni0 Ni10 2.503301 1_455
Ni0 Ni16 2.503301 1_554
Ni0 Ni11 2.503301 1_545
Ni0 Ni14 2.503301 1_554
Ni0 Ni9 2.503301 1_555
Ni0 Ni18 2.503301 1_554
Ni5 Zr0 2.468430 1_556
Ni6 Zr0 2.468430 1_565
Ni7 Zr0 2.468430 1_655
Ni8 Zr0 2.468430 1_555
Ni9 Zr0 2.873362 1_555
Ni10 Zr0 2.873362 1_555
Ni11 Zr0 2.873363 1_555
Ni12 Zr0 2.873362 1_555
Ni13 Zr0 2.873363 1_555
Ni14 Zr0 2.873363 1_555
Ni15 Zr0 2.873362 1_555
Ni16 Zr0 2.873363 1_555
Ni17 Zr0 2.873363 1_555
Ni18 Zr0 2.873363 1_555
Ni19 Zr0 2.873363 1_555
Ni20 Zr0 2.873363 1_555
B0 Ni11 2.070361 1_655
B0 Ni10 2.070361 1_565
B0 Ni19 2.070361 1_655
B0 Ni20 2.070361 1_565
B0 Ni1 2.074523 1_555
B0 Ni4 2.074529 1_555
B0 Ni6 2.079082 1_555
B0 Ni7 2.079082 1_555
B1 Ni11 2.070360 1_555
B1 Ni9 2.070361 1_565
B1 Ni17 2.070361 1_565
B1 Ni15 2.070361 1_555
B1 Ni1 2.074529 1_555
B1 Ni3 2.074529 1_555
B1 Ni8 2.079082 1_555
B1 Ni6 2.079082 1_555
B2 Ni10 2.070361 1_555
B2 Ni9 2.070361 1_655
B2 Ni13 2.070361 1_655
B2 Ni12 2.070361 1_555
B2 Ni1 2.074529 1_555
B2 Ni2 2.074529 1_555
B2 Ni8 2.079082 1_555
B2 Ni7 2.079082 1_555
B3 Ni14 2.070361 1_555
B3 Ni16 2.070361 1_555
B3 Ni13 2.070361 1_556
B3 Ni17 2.070361 1_556
B3 Ni2 2.074529 1_555
B3 Ni3 2.074529 1_555
B3 Ni5 2.079082 1_555
B3 Ni8 2.079082 1_555
B4 Ni14 2.070360 1_655
B4 Ni18 2.070361 1_655
B4 Ni20 2.070361 1_556
B4 Ni12 2.070361 1_556
B4 Ni2 2.074523 1_555
B4 Ni4 2.074529 1_555
B4 Ni5 2.079082 1_555
B4 Ni7 2.079082 1_555
B5 Ni16 2.070361 1_565
B5 Ni18 2.070361 1_565
B5 Ni19 2.070361 1_556
B5 Ni15 2.070361 1_556
B5 Ni3 2.074523 1_555
B5 Ni4 2.074529 1_555
B5 Ni5 2.079082 1_555
B5 Ni6 2.079082 1_555
