# generated using pymatgen
data_Er5BiPt2
_symmetry_space_group_name_H-M   'P 1'
_cell_length_a   7.70851720
_cell_length_b   7.70849709
_cell_length_c   8.71897040
_cell_angle_alpha   116.23940612
_cell_angle_beta   116.23927136
_cell_angle_gamma   89.98994635
_symmetry_Int_Tables_number   1
_chemical_formula_structural   Er5BiPt2
_chemical_formula_sum   'Er10 Bi2 Pt4'
_cell_volume   404.35148739
_cell_formula_units_Z   2
loop_
 _symmetry_equiv_pos_site_id
 _symmetry_equiv_pos_as_xyz
  1  'x, y, z'
loop_
 _atom_site_type_symbol
 _atom_site_label
 _atom_site_symmetry_multiplicity
 _atom_site_fract_x
 _atom_site_fract_y
 _atom_site_fract_z
 _atom_site_occupancy
  Er  Er0  1  0.00000075  0.00000229  0.00000118  1
  Er  Er1  1  0.49999982  0.49999792  -0.00000313  1
  Er  Er2  1  0.29068158  0.79068701  0.27112008  1
  Er  Er3  1  0.48044097  0.29067585  0.27111060  1
  Er  Er4  1  0.79066762  0.98045011  0.27110967  1
  Er  Er5  1  0.51956196  0.70933542  0.72889367  1
  Er  Er6  1  0.20933039  0.01954932  0.72889153  1
  Er  Er7  1  0.01962014  0.51961686  0.72891268  1
  Er  Er8  1  0.70931096  0.20930748  0.72887606  1
  Er  Er9  1  0.98037579  0.48037855  0.27108642  1
  Bi  Bi0  1  0.24999615  0.25000554  0.50000092  1
  Bi  Bi1  1  0.75000625  0.74999473  0.49999967  1
  Pt  Pt0  1  0.36009980  0.86009741  0.00002999  1
  Pt  Pt1  1  0.14001798  0.35998237  -0.00000046  1
  Pt  Pt2  1  0.85998442  0.64001739  0.00000024  1
  Pt  Pt3  1  0.63990441  0.13990275  0.99997189  1
loop_
_geom_bond_atom_site_label_1
_geom_bond_atom_site_label_2
_geom_bond_distance
_geom_bond_site_symmetry_2
Er0 Pt1 2.977607 1_555
Er0 Pt2 2.977626 1_445
Er0 Pt3 2.977696 1_454
Er0 Pt0 2.977729 1_545
Er0 Er9 3.449385 1_455
Er0 Er7 3.449431 1_544
Er0 Er8 3.449615 1_454
Er0 Er2 3.449618 1_545
Er0 Er6 3.449896 1_554
Er0 Er4 3.449921 1_445
Er0 Er5 3.449975 1_444
Er0 Er3 3.450000 1_555
Er1 Pt1 2.977626 1_555
Er1 Pt2 2.977626 1_555
Er1 Pt3 2.977703 1_554
Er1 Pt0 2.977704 1_555
Er1 Er9 3.449390 1_555
Er1 Er7 3.449400 1_554
Er1 Er8 3.449625 1_554
Er1 Er2 3.449676 1_555
Er1 Er3 3.449914 1_555
Er1 Er5 3.449931 1_554
Er1 Er6 3.450034 1_554
Er1 Er4 3.450046 1_555
Er2 Pt0 2.897605 1_555
Er2 Pt2 2.931466 1_455
Er2 Pt1 2.931500 1_555
Er3 Pt1 2.896627 1_555
Er3 Pt0 2.930689 1_545
Er3 Pt3 2.930878 1_554
Er4 Pt2 2.896696 1_555
Er4 Pt0 2.930631 1_555
Er4 Pt3 2.930806 1_564
Er5 Pt2 2.896654 1_556
Er5 Pt3 2.930618 1_565
Er5 Pt0 2.930850 1_556
Er6 Pt1 2.896672 1_556
Er6 Pt3 2.930669 1_555
Er6 Pt0 2.930808 1_546
Er7 Pt0 2.897453 1_556
Er7 Pt1 2.931538 1_556
Er7 Pt2 2.931549 1_456
Er8 Pt3 2.897581 1_555
Er8 Pt1 2.931531 1_656
Er8 Pt2 2.931538 1_556
Er9 Pt3 2.897398 1_554
Er9 Pt2 2.931561 1_555
Er9 Pt1 2.931584 1_655
Bi0 Er7 3.304760 1_555
Bi0 Er9 3.304783 1_455
Bi0 Er2 3.304877 1_545
Bi0 Er8 3.304893 1_555
Bi0 Er4 3.305257 1_445
Bi0 Er3 3.305266 1_555
Bi0 Er5 3.305285 1_555
Bi0 Er6 3.305325 1_555
Bi0 Er1 3.402397 1_556
Bi0 Er0 3.402423 1_555
Bi1 Er9 3.304741 1_555
Bi1 Er7 3.304788 1_655
Bi1 Er8 3.304862 1_565
Bi1 Er2 3.304945 1_555
Bi1 Er3 3.305220 1_555
Bi1 Er6 3.305226 1_665
Bi1 Er5 3.305260 1_555
Bi1 Er4 3.305303 1_555
Bi1 Er0 3.402435 1_666
Bi1 Er1 3.402444 1_555
Pt0 Pt3 3.050871 1_564
Pt1 Pt2 3.052519 1_455
