# generated using pymatgen
data_Hf9Ta(Ge3N)2
_symmetry_space_group_name_H-M   'P 1'
_cell_length_a   7.84677000
_cell_length_b   7.84677052
_cell_length_c   5.52296878
_cell_angle_alpha   90.00000000
_cell_angle_beta   90.00000000
_cell_angle_gamma   120.00000196
_symmetry_Int_Tables_number   1
_chemical_formula_structural   Hf9Ta(Ge3N)2
_chemical_formula_sum   'Hf9 Ta1 Ge6 N2'
_cell_volume   294.49985576
_cell_formula_units_Z   1
loop_
 _symmetry_equiv_pos_site_id
 _symmetry_equiv_pos_as_xyz
  1  'x, y, z'
loop_
 _atom_site_type_symbol
 _atom_site_label
 _atom_site_symmetry_multiplicity
 _atom_site_fract_x
 _atom_site_fract_y
 _atom_site_fract_z
 _atom_site_occupancy
  Hf  Hf0  1  0.23379325  0.99956446  0.24926159  1
  Hf  Hf1  1  0.76577220  0.99956446  0.75073841  1
  Hf  Hf2  1  0.00043554  0.23422780  0.24926159  1
  Hf  Hf3  1  0.00043554  0.76620675  0.75073841  1
  Hf  Hf4  1  0.76577220  0.76620675  0.24926159  1
  Hf  Hf5  1  0.23379325  0.23422780  0.75073841  1
  Hf  Hf6  1  0.66666700  0.33333300  0.00000000  1
  Hf  Hf7  1  0.66666700  0.33333300  0.50000000  1
  Hf  Hf8  1  0.33333300  0.66666700  0.50000000  1
  Ta  Ta0  1  0.33333300  0.66666700  0.00000000  1
  Ge  Ge0  1  0.59458201  0.99814199  0.24623424  1
  Ge  Ge1  1  0.40356098  0.99814199  0.75376576  1
  Ge  Ge2  1  0.00185801  0.59643902  0.24623424  1
  Ge  Ge3  1  0.00185801  0.40541799  0.75376576  1
  Ge  Ge4  1  0.40356098  0.40541799  0.24623424  1
  Ge  Ge5  1  0.59458201  0.59643902  0.75376576  1
  N  N0  1  0.00000000  0.00000000  0.00000000  1
  N  N1  1  0.00000000  0.00000000  0.50000000  1
loop_
_geom_bond_atom_site_label_1
_geom_bond_atom_site_label_2
_geom_bond_distance
_geom_bond_site_symmetry_2
Hf0 N0 2.294985 1_565
Hf0 N1 2.299887 1_565
Hf1 N0 2.294979 1_666
Hf1 N1 2.299881 1_665
Hf2 N0 2.294979 1_555
Hf2 N1 2.299881 1_555
Hf3 N0 2.294985 1_566
Hf3 N1 2.299887 1_565
Hf4 N0 2.294982 1_665
Hf4 N1 2.299884 1_665
Hf5 N0 2.294982 1_556
Hf5 N1 2.299884 1_555
Hf8 Ta0 2.761484 1_555
Hf8 Ta0 2.761484 1_556
Ge0 Ta0 2.735885 1_555
Ge0 Hf4 2.749838 1_555
Ge0 Hf6 2.756711 1_565
Ge0 Hf8 2.756798 1_555
Ge0 Hf2 2.770275 1_665
Ge0 Hf7 2.777467 1_565
Ge0 Hf0 2.836673 1_555
Ge0 Hf1 3.046077 1_554
Ge0 Hf1 3.090852 1_555
Ge1 Ta0 2.735881 1_556
Ge1 Hf3 2.749838 1_555
Ge1 Hf6 2.756711 1_566
Ge1 Hf8 2.756794 1_555
Ge1 Hf5 2.770275 1_565
Ge1 Hf7 2.777467 1_565
Ge1 Hf1 2.836673 1_555
Ge1 Hf0 3.046077 1_556
Ge1 Hf0 3.090852 1_555
Ge2 Ta0 2.735880 1_555
Ge2 Hf0 2.749838 1_555
Ge2 Hf6 2.756711 1_455
Ge2 Hf8 2.756793 1_555
Ge2 Hf4 2.770275 1_455
Ge2 Hf7 2.777467 1_455
Ge2 Hf2 2.836673 1_555
Ge2 Hf3 3.046077 1_554
Ge2 Hf3 3.090852 1_555
Ge3 Ta0 2.735885 1_556
Ge3 Hf5 2.749838 1_555
Ge3 Hf6 2.756711 1_456
Ge3 Hf8 2.756798 1_555
Ge3 Hf1 2.770275 1_445
Ge3 Hf7 2.777467 1_455
Ge3 Hf3 2.836673 1_555
Ge3 Hf2 3.046077 1_556
Ge3 Hf2 3.090852 1_555
Ge4 Ta0 2.735894 1_555
Ge4 Hf2 2.749838 1_555
Ge4 Hf6 2.756711 1_555
Ge4 Hf8 2.756807 1_555
Ge4 Hf0 2.770275 1_545
Ge4 Hf7 2.777467 1_555
Ge4 Hf4 2.836673 1_555
Ge4 Hf5 3.046077 1_554
Ge4 Hf5 3.090852 1_555
Ge5 Ta0 2.735894 1_556
Ge5 Hf1 2.749838 1_555
Ge5 Hf6 2.756711 1_556
Ge5 Hf8 2.756807 1_555
Ge5 Hf3 2.770275 1_655
Ge5 Hf7 2.777467 1_555
Ge5 Hf5 2.836673 1_555
Ge5 Hf4 3.046077 1_556
Ge5 Hf4 3.090852 1_555
