# generated using pymatgen
data_Sc22Tc3OsRh4
_symmetry_space_group_name_H-M   'P 1'
_cell_length_a   9.48480588
_cell_length_b   9.48761080
_cell_length_c   9.48480663
_cell_angle_alpha   59.99022361
_cell_angle_beta   59.88203604
_cell_angle_gamma   59.99021877
_symmetry_Int_Tables_number   1
_chemical_formula_structural   Sc22Tc3OsRh4
_chemical_formula_sum   'Sc22 Tc3 Os1 Rh4'
_cell_volume   602.90102534
_cell_formula_units_Z   1
loop_
 _symmetry_equiv_pos_site_id
 _symmetry_equiv_pos_as_xyz
  1  'x, y, z'
loop_
 _atom_site_type_symbol
 _atom_site_label
 _atom_site_symmetry_multiplicity
 _atom_site_fract_x
 _atom_site_fract_y
 _atom_site_fract_z
 _atom_site_occupancy
  Sc  Sc0  1  0.84443922  0.84252891  0.84443922  1
  Sc  Sc1  1  0.53110110  0.15690853  0.15508184  1
  Sc  Sc2  1  0.15508184  0.15690853  0.53110110  1
  Sc  Sc3  1  0.15556078  0.53140734  0.15556078  1
  Sc  Sc4  1  0.84491816  0.84309147  0.46889890  1
  Sc  Sc5  1  0.84443922  0.46859266  0.84443922  1
  Sc  Sc6  1  0.46889890  0.84309147  0.84491816  1
  Sc  Sc7  1  0.15556078  0.15747109  0.15556078  1
  Sc  Sc8  1  0.19710064  0.80289936  0.19710064  1
  Sc  Sc9  1  0.19662789  0.80360001  0.80337211  1
  Sc  Sc10  1  0.80337211  0.19639999  0.19662789  1
  Sc  Sc11  1  0.80337211  0.80360001  0.19662789  1
  Sc  Sc12  1  0.19662789  0.19639999  0.80337211  1
  Sc  Sc13  1  0.80289936  0.19710064  0.80289936  1
  Sc  Sc14  1  0.38505912  0.38121010  0.38505912  1
  Sc  Sc15  1  0.15113030  0.61425649  0.62035773  1
  Sc  Sc16  1  0.61494088  0.15132935  0.61494088  1
  Sc  Sc17  1  0.62035773  0.61425649  0.15113030  1
  Sc  Sc18  1  0.38505912  0.84867065  0.38505912  1
  Sc  Sc19  1  0.37964227  0.38574351  0.84886970  1
  Sc  Sc20  1  0.84886970  0.38574351  0.37964227  1
  Sc  Sc21  1  0.61494088  0.61878990  0.61494088  1
  Tc  Tc0  1  0.50000000  0.00000000  0.50000000  1
  Tc  Tc1  1  0.50000000  0.50000000  0.50000000  1
  Tc  Tc2  1  0.00000000  0.00000000  0.00000000  1
  Os  Os0  1  0.00000000  0.50000000  0.00000000  1
  Rh  Rh0  1  0.50000000  0.50000000  0.00000000  1
  Rh  Rh1  1  0.00000000  0.00000000  0.50000000  1
  Rh  Rh2  1  0.00000000  0.50000000  0.50000000  1
  Rh  Rh3  1  0.50000000  0.00000000  0.00000000  1
loop_
_geom_bond_atom_site_label_1
_geom_bond_atom_site_label_2
_geom_bond_distance
_geom_bond_site_symmetry_2
Sc0 Sc9 3.008434 1_655
Sc0 Sc11 3.008434 1_556
Sc0 Sc13 3.021818 1_565
Sc0 Sc15 3.125293 1_655
Sc0 Sc17 3.125293 1_556
Sc0 Sc16 3.171219 1_565
Sc1 Tc0 2.757705 1_555
Sc1 Sc13 3.002757 1_554
Sc1 Sc10 3.016863 1_555
Sc1 Sc11 3.016863 1_545
Sc1 Sc14 3.141328 1_555
Sc1 Sc18 3.141336 1_545
Sc1 Sc19 3.157925 1_554
Sc2 Tc0 2.757705 1_555
Sc2 Sc9 3.016863 1_545
Sc2 Sc20 3.157925 1_455
Sc3 Sc9 3.008434 1_554
Sc3 Sc8 3.021818 1_555
Sc4 Tc0 2.757705 1_565
Sc4 Sc8 3.002757 1_655
Sc6 Tc0 2.757705 1_565
Sc6 Sc8 3.002757 1_556
Sc6 Sc9 3.016863 1_555
Sc7 Sc8 3.021818 1_545
Sc8 Tc2 2.645782 1_565
Sc9 Tc2 2.633986 1_566
Sc10 Tc2 2.633986 1_655
Sc10 Sc7 3.008434 1_655
Sc10 Sc5 3.008434 1_554
Sc10 Sc4 3.016863 1_545
Sc10 Sc14 3.327171 1_555
Sc10 Sc16 3.327173 1_555
Sc10 Sc20 3.327609 1_555
Sc10 Sc17 3.327617 1_555
Sc11 Tc2 2.633986 1_665
Sc11 Sc3 3.008434 1_655
Sc11 Sc4 3.016863 1_555
Sc11 Sc21 3.327171 1_555
Sc11 Sc18 3.327173 1_555
Sc11 Sc17 3.327609 1_555
Sc11 Sc20 3.327617 1_555
Sc12 Tc2 2.633986 1_556
Sc12 Sc5 3.008434 1_455
Sc12 Sc7 3.008434 1_556
Sc12 Sc6 3.016863 1_545
Sc12 Sc2 3.016863 1_555
Sc12 Sc14 3.327171 1_555
Sc12 Sc16 3.327173 1_555
Sc12 Sc19 3.327609 1_555
Sc12 Sc15 3.327617 1_555
Sc13 Tc2 2.645782 1_656
Sc13 Sc2 3.002757 1_655
Sc13 Sc5 3.021818 1_555
Sc13 Sc16 3.359064 1_555
Sc13 Sc21 3.359071 1_555
Sc13 Sc19 3.368453 1_555
Sc13 Sc20 3.368453 1_555
Sc14 Tc1 2.701496 1_555
Sc14 Tc0 2.960161 1_555
Sc14 Sc16 3.085819 1_555
Sc14 Sc15 3.138754 1_555
Sc14 Sc17 3.138754 1_555
Sc14 Sc2 3.141328 1_555
Sc14 Sc3 3.171217 1_555
Sc14 Sc8 3.359071 1_555
Sc15 Tc1 2.699341 1_555
Sc15 Sc19 3.067432 1_555
Sc15 Sc5 3.125298 1_455
Sc15 Sc18 3.138741 1_555
Sc15 Sc4 3.157925 1_455
Sc15 Sc9 3.327609 1_555
Sc15 Sc8 3.368453 1_555
Sc16 Tc1 2.701489 1_555
Sc16 Tc0 2.960169 1_555
Sc16 Sc19 3.138741 1_555
Sc16 Sc20 3.138741 1_555
Sc16 Sc4 3.141336 1_545
Sc16 Sc6 3.141336 1_545
Sc17 Tc1 2.699342 1_555
Sc17 Sc20 3.067432 1_555
Sc17 Sc5 3.125298 1_554
Sc17 Sc18 3.138741 1_555
Sc17 Sc6 3.157925 1_554
Sc17 Sc8 3.368453 1_555
Sc18 Tc1 2.701489 1_555
Sc18 Tc0 2.960169 1_565
Sc18 Sc21 3.085819 1_555
Sc18 Sc2 3.141336 1_565
Sc18 Sc7 3.171219 1_565
Sc18 Sc9 3.327173 1_555
Sc18 Sc8 3.359064 1_555
Sc19 Tc1 2.699342 1_555
Sc19 Sc7 3.125293 1_556
Sc19 Sc3 3.125298 1_556
Sc19 Sc21 3.138754 1_555
Sc19 Sc9 3.327617 1_555
Sc20 Tc1 2.699341 1_555
Sc20 Sc7 3.125293 1_655
Sc20 Sc3 3.125298 1_655
Sc20 Sc21 3.138754 1_555
Sc21 Tc1 2.701496 1_555
Sc21 Tc0 2.960161 1_565
Sc21 Sc6 3.141328 1_555
Sc21 Sc4 3.141328 1_555
Sc21 Sc5 3.171217 1_555
Sc21 Sc9 3.327171 1_555
Os0 Sc3 2.739911 1_555
Os0 Sc5 2.739911 1_454
Os0 Sc7 2.739911 1_555
Os0 Sc0 2.739911 1_454
Os0 Sc19 2.943753 1_554
Os0 Sc17 2.943753 1_455
Os0 Sc20 2.943754 1_455
Os0 Sc15 2.943754 1_554
Rh0 Sc6 2.744436 1_554
Rh0 Sc1 2.744436 1_555
Rh0 Sc5 2.750866 1_554
Rh0 Sc3 2.750866 1_555
Rh0 Sc21 2.985504 1_554
Rh0 Sc14 2.985504 1_555
Rh0 Sc17 2.994568 1_555
Rh0 Sc19 2.994568 1_554
Rh1 Sc2 2.744436 1_555
Rh1 Sc4 2.744436 1_445
Rh1 Sc7 2.750867 1_555
Rh1 Sc0 2.750867 1_445
Rh1 Sc18 2.985504 1_545
Rh1 Sc16 2.985504 1_455
Rh1 Sc20 2.994560 1_455
Rh1 Sc15 2.994560 1_545
Rh2 Sc4 2.744436 1_455
Rh2 Sc2 2.744436 1_555
Rh2 Sc5 2.750866 1_455
Rh2 Sc3 2.750866 1_555
Rh2 Sc14 2.985504 1_555
Rh2 Sc21 2.985504 1_455
Rh2 Sc15 2.994568 1_555
Rh2 Sc20 2.994568 1_455
Rh3 Sc1 2.744436 1_555
Rh3 Sc6 2.744436 1_544
Rh3 Sc0 2.750866 1_544
Rh3 Sc7 2.750866 1_555
Rh3 Sc18 2.985505 1_545
Rh3 Sc16 2.985505 1_554
Rh3 Sc19 2.994560 1_554
Rh3 Sc17 2.994560 1_545
