# generated using pymatgen
data_Na6In4PtAu
_symmetry_space_group_name_H-M   'P 1'
_cell_length_a   9.51957112
_cell_length_b   9.48044314
_cell_length_c   9.48044389
_cell_angle_alpha   59.62825563
_cell_angle_beta   59.86338732
_cell_angle_gamma   59.86338026
_symmetry_Int_Tables_number   1
_chemical_formula_structural   Na6In4PtAu
_chemical_formula_sum   'Na12 In8 Pt2 Au2'
_cell_volume   602.04621402
_cell_formula_units_Z   2
loop_
 _symmetry_equiv_pos_site_id
 _symmetry_equiv_pos_as_xyz
  1  'x, y, z'
loop_
 _atom_site_type_symbol
 _atom_site_label
 _atom_site_symmetry_multiplicity
 _atom_site_fract_x
 _atom_site_fract_y
 _atom_site_fract_z
 _atom_site_occupancy
  Na  Na0  1  0.45622459  0.04377541  0.04377541  1
  Na  Na1  1  0.79503136  0.20697713  0.79026095  1
  Na  Na2  1  0.45496864  0.45973905  0.04302287  1
  Na  Na3  1  0.79503136  0.79026095  0.20697713  1
  Na  Na4  1  0.20872849  0.79127151  0.79127151  1
  Na  Na5  1  0.04127151  0.45872849  0.45872849  1
  Na  Na6  1  0.04226944  0.04302287  0.45973905  1
  Na  Na7  1  0.20773056  0.20697713  0.79026095  1
  Na  Na8  1  0.45496864  0.04302287  0.45973905  1
  Na  Na9  1  0.79377541  0.20622459  0.20622459  1
  Na  Na10  1  0.04226944  0.45973905  0.04302287  1
  Na  Na11  1  0.20773056  0.79026095  0.20697713  1
  In  In0  1  0.42517866  0.41290917  0.41290917  1
  In  In1  1  0.74900299  0.41290917  0.41290917  1
  In  In2  1  0.82482134  0.83709083  0.83709083  1
  In  In3  1  0.42140895  0.40912252  0.74805859  1
  In  In4  1  0.82859105  0.84087748  0.50194141  1
  In  In5  1  0.42140895  0.74805859  0.40912252  1
  In  In6  1  0.82859105  0.50194141  0.84087748  1
  In  In7  1  0.50099701  0.83709083  0.83709083  1
  Pt  Pt0  1  0.62500000  0.62500000  0.12500000  1
  Pt  Pt1  1  0.62500000  0.12500000  0.62500000  1
  Au  Au0  1  0.12500000  0.62500000  0.62500000  1
  Au  Au1  1  0.62500000  0.62500000  0.62500000  1
loop_
_geom_bond_atom_site_label_1
_geom_bond_atom_site_label_2
_geom_bond_distance
_geom_bond_site_symmetry_2
Na0 Pt0 3.268391 1_545
Na0 Pt1 3.268391 1_554
Na1 Pt1 3.274073 1_555
Na2 Pt0 3.274073 1_555
Na3 Pt0 3.274073 1_555
Na6 Pt1 3.274073 1_455
Na7 Pt1 3.274073 1_555
Na8 Pt1 3.274073 1_555
Na9 Pt0 3.268391 1_555
Na9 Pt1 3.268391 1_555
Na10 Pt0 3.274073 1_455
Na11 Pt0 3.274073 1_555
In0 Pt1 2.861615 1_555
In0 Pt0 2.861615 1_555
In0 Na9 3.172696 1_555
In0 Na8 3.182440 1_555
In0 Na2 3.182440 1_555
In0 Na11 3.233283 1_555
In0 Na7 3.233283 1_555
In0 Na5 3.276640 1_555
In1 Pt0 2.861615 1_555
In1 Pt1 2.861615 1_555
In1 Na9 3.172696 1_555
In1 Na6 3.182440 1_655
In1 Na10 3.182440 1_655
In1 Na3 3.233283 1_555
In1 Na1 3.233283 1_555
In1 Na5 3.276640 1_655
In2 Pt1 2.861615 1_565
In2 Pt0 2.861615 1_556
In2 Na0 3.172696 1_566
In2 Na1 3.182440 1_565
In2 Na3 3.182440 1_556
In2 Na10 3.233283 1_656
In2 Na6 3.233283 1_665
In2 Na4 3.276640 1_655
In3 Pt1 2.835159 1_555
In3 Na0 3.150785 1_556
In3 Na7 3.208150 1_555
In3 Na1 3.208158 1_555
In3 Na10 3.249624 1_556
In3 Na2 3.249630 1_556
In3 Na4 3.270367 1_555
In4 Pt1 2.835159 1_565
In4 Na9 3.150785 1_565
In4 Na6 3.208150 1_665
In4 Na8 3.208158 1_565
In4 Na11 3.249624 1_655
In4 Na3 3.249630 1_555
In4 Na5 3.270367 1_655
In5 Pt0 2.835159 1_555
In5 Na0 3.150785 1_565
In5 Na11 3.208150 1_555
In5 Na3 3.208158 1_555
In5 Na6 3.249624 1_565
In5 Na8 3.249630 1_565
In5 Na4 3.270367 1_555
In6 Pt0 2.835159 1_556
In6 Na9 3.150785 1_556
In6 Na10 3.208150 1_656
In6 Na2 3.208158 1_556
In6 Na7 3.249624 1_655
In6 Na1 3.249630 1_555
In6 Na5 3.270367 1_655
In7 Pt0 2.861615 1_556
In7 Pt1 2.861615 1_565
In7 Na0 3.172696 1_566
In7 Na7 3.182440 1_565
In7 Na11 3.182440 1_556
In7 Na2 3.233283 1_556
In7 Na8 3.233283 1_565
In7 Na4 3.276640 1_555
Au0 In3 2.933244 1_555
Au0 In4 2.933244 1_455
Au0 In5 2.933244 1_555
Au0 In6 2.933244 1_455
Au0 In2 2.966655 1_455
Au0 In0 2.966655 1_555
Au0 Na6 3.256824 1_565
Au0 Na7 3.256824 1_555
Au0 Na10 3.256825 1_556
Au0 Na11 3.256825 1_555
Au0 Na4 3.262028 1_555
Au0 Na5 3.262028 1_555
Au1 In6 2.933251 1_555
Au1 In5 2.933251 1_555
Au1 In4 2.933252 1_555
Au1 In3 2.933252 1_555
Au1 In7 2.966654 1_555
Au1 In1 2.966654 1_555
Au1 Na8 3.256824 1_565
Au1 Na1 3.256824 1_555
Au1 Na2 3.256825 1_556
Au1 Na3 3.256825 1_555
Au1 Na5 3.262028 1_655
Au1 Na4 3.262028 1_555
