# generated using pymatgen
data_BaLiAlP2
_symmetry_space_group_name_H-M   'P 1'
_cell_length_a   7.21959554
_cell_length_b   7.21959589
_cell_length_c   7.21959717
_cell_angle_alpha   147.79957960
_cell_angle_beta   147.79958511
_cell_angle_gamma   46.18131701
_symmetry_Int_Tables_number   1
_chemical_formula_structural   BaLiAlP2
_chemical_formula_sum   'Ba1 Li1 Al1 P2'
_cell_volume   106.48515545
_cell_formula_units_Z   1
loop_
 _symmetry_equiv_pos_site_id
 _symmetry_equiv_pos_as_xyz
  1  'x, y, z'
loop_
 _atom_site_type_symbol
 _atom_site_label
 _atom_site_symmetry_multiplicity
 _atom_site_fract_x
 _atom_site_fract_y
 _atom_site_fract_z
 _atom_site_occupancy
  Ba  Ba0  1  0.00000000  0.00000000  0.00000000  1
  Li  Li0  1  0.75000000  0.25000000  0.50000000  1
  Al  Al0  1  0.25000000  0.75000000  0.50000000  1
  P  P0  1  0.64501604  0.64501604  1.00000000  1
  P  P1  1  0.35498396  0.35498396  0.00000000  1
loop_
_geom_bond_atom_site_label_1
_geom_bond_atom_site_label_2
_geom_bond_distance
_geom_bond_site_symmetry_2
Ba0 P0 3.424486 1_555
Ba0 P1 3.424486 1_444
Ba0 P0 3.424486 1_544
Ba0 P1 3.424486 1_455
Ba0 P0 3.424487 1_454
Ba0 P1 3.424487 1_545
Ba0 P0 3.424487 1_443
Ba0 P1 3.424487 1_556
Li0 P1 2.439869 1_656
Li0 P0 2.439870 1_544
Li0 P1 2.439870 1_555
Li0 P0 2.439871 1_555
Al0 P0 2.439869 1_454
Al0 P1 2.439870 1_566
Al0 P0 2.439870 1_555
Al0 P1 2.439871 1_555
Al0 Li0 2.831433 1_454
Al0 Li0 2.831433 1_566
Al0 Li0 2.831433 1_555
Al0 Li0 2.831433 1_465
