# generated using pymatgen
data_BaP2OsRu
_symmetry_space_group_name_H-M   'P 1'
_cell_length_a   6.78667902
_cell_length_b   6.78667864
_cell_length_c   6.78668038
_cell_angle_alpha   145.28173039
_cell_angle_beta   145.28172621
_cell_angle_gamma   49.91487785
_symmetry_Int_Tables_number   1
_chemical_formula_structural   BaP2OsRu
_chemical_formula_sum   'Ba1 P2 Os1 Ru1'
_cell_volume   100.91124943
_cell_formula_units_Z   1
loop_
 _symmetry_equiv_pos_site_id
 _symmetry_equiv_pos_as_xyz
  1  'x, y, z'
loop_
 _atom_site_type_symbol
 _atom_site_label
 _atom_site_symmetry_multiplicity
 _atom_site_fract_x
 _atom_site_fract_y
 _atom_site_fract_z
 _atom_site_occupancy
  Ba  Ba0  1  0.00000000  0.00000000  0.00000000  1
  P  P0  1  0.65769399  0.65769399  0.00000000  1
  P  P1  1  0.34230601  0.34230601  1.00000000  1
  Os  Os0  1  0.75000000  0.25000000  0.50000000  1
  Ru  Ru0  1  0.25000000  0.75000000  0.50000000  1
loop_
_geom_bond_atom_site_label_1
_geom_bond_atom_site_label_2
_geom_bond_distance
_geom_bond_site_symmetry_2
Ba0 P0 3.459195 1_455
Ba0 P1 3.459195 1_544
Ba0 P0 3.459195 1_545
Ba0 P1 3.459195 1_454
Ba0 P0 3.459195 1_556
Ba0 P1 3.459195 1_443
Ba0 P0 3.459196 1_444
Ba0 P1 3.459196 1_555
P0 Ru0 2.321725 1_655
P0 Ru0 2.321725 1_554
P1 Ru0 2.321724 1_545
P1 Ru0 2.321725 1_556
Os0 P0 2.321724 1_545
Os0 P1 2.321725 1_655
Os0 P0 2.321725 1_556
Os0 P1 2.321725 1_554
