# generated using pymatgen
data_LuAl2AgPd4
_symmetry_space_group_name_H-M   'P 1'
_cell_length_a   7.75431061
_cell_length_b   7.75431070
_cell_length_c   7.75431055
_cell_angle_alpha   148.66863953
_cell_angle_beta   148.66863969
_cell_angle_gamma   44.89928087
_symmetry_Int_Tables_number   1
_chemical_formula_structural   LuAl2AgPd4
_chemical_formula_sum   'Lu1 Al2 Ag1 Pd4'
_cell_volume   125.68017263
_cell_formula_units_Z   1
loop_
 _symmetry_equiv_pos_site_id
 _symmetry_equiv_pos_as_xyz
  1  'x, y, z'
loop_
 _atom_site_type_symbol
 _atom_site_label
 _atom_site_symmetry_multiplicity
 _atom_site_fract_x
 _atom_site_fract_y
 _atom_site_fract_z
 _atom_site_occupancy
  Lu  Lu0  1  0.00000000  0.00000000  0.00000000  1
  Al  Al0  1  0.25322928  0.25322928  0.00000000  1
  Al  Al1  1  0.74677072  0.74677072  1.00000000  1
  Ag  Ag0  1  0.50000000  0.50000000  0.00000000  1
  Pd  Pd0  1  0.64253130  0.14253130  0.50000000  1
  Pd  Pd1  1  0.35746870  0.85746870  0.50000000  1
  Pd  Pd2  1  0.14253130  0.64253130  0.50000000  1
  Pd  Pd3  1  0.85746870  0.35746870  0.50000000  1
loop_
_geom_bond_atom_site_label_1
_geom_bond_atom_site_label_2
_geom_bond_distance
_geom_bond_site_symmetry_2
Lu0 Pd2 2.925376 1_544
Lu0 Pd3 2.925376 1_455
Lu0 Pd1 2.925376 1_545
Lu0 Pd0 2.925376 1_454
Lu0 Pd0 2.925376 1_555
Lu0 Pd1 2.925376 1_444
Lu0 Pd2 2.925376 1_555
Lu0 Pd3 2.925376 1_444
Al0 Pd1 2.572260 1_544
Al0 Pd3 2.572260 1_454
Al0 Pd3 2.572260 1_555
Al0 Pd1 2.572260 1_555
Al0 Pd2 2.627112 1_555
Al0 Pd0 2.627112 1_555
Al0 Pd0 2.627112 1_454
Al0 Pd2 2.627112 1_544
Al1 Pd0 2.572260 1_566
Al1 Pd2 2.572260 1_656
Al1 Pd2 2.572260 1_555
Al1 Pd0 2.572260 1_555
Al1 Pd3 2.627112 1_555
Al1 Pd1 2.627112 1_555
Al1 Pd1 2.627112 1_656
Al1 Pd3 2.627112 1_566
Ag0 Pd1 2.925376 1_555
Ag0 Pd0 2.925376 1_554
Ag0 Pd3 2.925376 1_555
Ag0 Pd2 2.925376 1_554
Ag0 Pd2 2.925376 1_655
Ag0 Pd3 2.925376 1_454
Ag0 Pd1 2.925376 1_544
Ag0 Pd0 2.925376 1_565
Ag0 Lu0 2.961148 1_666
Ag0 Lu0 2.961148 1_554
Ag0 Lu0 2.961148 1_565
Ag0 Lu0 2.961148 1_655
