# generated using pymatgen
data_Y2Lu(ZnAu)3
_symmetry_space_group_name_H-M   'P 1'
_cell_length_a   7.32533267
_cell_length_b   7.37454889
_cell_length_c   3.88975403
_cell_angle_alpha   90.00000000
_cell_angle_beta   90.00000000
_cell_angle_gamma   120.22249208
_symmetry_Int_Tables_number   1
_chemical_formula_structural   Y2Lu(ZnAu)3
_chemical_formula_sum   'Y2 Lu1 Zn3 Au3'
_cell_volume   181.56725661
_cell_formula_units_Z   1
loop_
 _symmetry_equiv_pos_site_id
 _symmetry_equiv_pos_as_xyz
  1  'x, y, z'
loop_
 _atom_site_type_symbol
 _atom_site_label
 _atom_site_symmetry_multiplicity
 _atom_site_fract_x
 _atom_site_fract_y
 _atom_site_fract_z
 _atom_site_occupancy
  Y  Y0  1  0.40759904  0.40764540  0.50000000  1
  Y  Y1  1  0.59240096  0.00004637  0.50000000  1
  Lu  Lu0  1  0.00000000  0.59534985  0.50000000  1
  Zn  Zn0  1  0.74821208  0.74781787  0.00000000  1
  Zn  Zn1  1  0.25178792  0.99960478  0.00000000  1
  Zn  Zn2  1  1.00000000  0.25058741  0.00000000  1
  Au  Au0  1  0.67594038  0.33997030  0.00000000  1
  Au  Au1  1  0.32405962  0.66402992  0.00000000  1
  Au  Au2  1  1.00000000  0.99495010  0.50000000  1
loop_
_geom_bond_atom_site_label_1
_geom_bond_atom_site_label_2
_geom_bond_distance
_geom_bond_site_symmetry_2
Y0 Zn0 3.162268 1_556
Y0 Zn0 3.162268 1_555
Y0 Zn2 3.249240 1_455
Y0 Zn2 3.249240 1_456
Y0 Zn1 3.268403 1_546
Y0 Zn1 3.268403 1_545
Y1 Zn1 3.162265 1_546
Y1 Zn1 3.162265 1_545
Y1 Zn2 3.249240 1_555
Y1 Zn2 3.249240 1_556
Y1 Zn0 3.268398 1_546
Y1 Zn0 3.268398 1_545
Lu0 Zn2 3.201045 1_455
Lu0 Zn2 3.201045 1_456
Lu0 Zn1 3.245991 1_555
Lu0 Zn1 3.245991 1_556
Lu0 Zn0 3.245995 1_455
Lu0 Zn0 3.245995 1_456
Au0 Zn2 2.764938 1_555
Au0 Zn0 2.779114 1_555
Au0 Zn1 2.846556 1_545
Au0 Lu0 2.909264 1_655
Au0 Lu0 2.909264 1_654
Au0 Y0 2.980465 1_555
Au0 Y0 2.980465 1_554
Au0 Y1 2.982728 1_555
Au0 Y1 2.982728 1_554
Au1 Zn2 2.764938 1_455
Au1 Zn1 2.779107 1_555
Au1 Zn0 2.846553 1_555
Au1 Lu0 2.909264 1_555
Au1 Lu0 2.909264 1_554
Au1 Y1 2.980465 1_565
Au1 Y1 2.980465 1_564
Au1 Y0 2.982728 1_554
Au1 Y0 2.982728 1_555
Au2 Zn0 2.668688 1_555
Au2 Zn0 2.668688 1_556
Au2 Zn1 2.668691 1_655
Au2 Zn1 2.668691 1_656
Au2 Zn2 2.708609 1_566
Au2 Zn2 2.708609 1_565
Au2 Lu0 2.946872 1_655
Au2 Y1 3.004892 1_565
Au2 Y0 3.004892 1_665
