# generated using pymatgen
data_Zr4Nb5MoN12
_symmetry_space_group_name_H-M   'P 1'
_cell_length_a   5.30988859
_cell_length_b   5.29567340
_cell_length_c   10.65771275
_cell_angle_alpha   90.00000000
_cell_angle_beta   90.00000000
_cell_angle_gamma   120.08884815
_symmetry_Int_Tables_number   1
_chemical_formula_structural   Zr4Nb5MoN12
_chemical_formula_sum   'Zr4 Nb5 Mo1 N12'
_cell_volume   259.30549948
_cell_formula_units_Z   1
loop_
 _symmetry_equiv_pos_site_id
 _symmetry_equiv_pos_as_xyz
  1  'x, y, z'
loop_
 _atom_site_type_symbol
 _atom_site_label
 _atom_site_symmetry_multiplicity
 _atom_site_fract_x
 _atom_site_fract_y
 _atom_site_fract_z
 _atom_site_occupancy
  Zr  Zr0  1  0.33272612  0.66586100  0.49893847  1
  Zr  Zr1  1  0.66686712  0.33413900  0.00106153  1
  Zr  Zr2  1  0.66686712  0.33413900  0.49893847  1
  Zr  Zr3  1  0.33272612  0.66586100  0.00106153  1
  Nb  Nb0  1  0.67879269  0.67878119  0.25000000  1
  Nb  Nb1  1  0.00001150  0.32121881  0.25000000  1
  Nb  Nb2  1  0.99905157  0.67589327  0.75000000  1
  Nb  Nb3  1  0.32315830  0.32410673  0.75000000  1
  Nb  Nb4  1  0.32108121  1.00000000  0.25000000  1
  Mo  Mo0  1  0.67576361  0.00000000  0.75000000  1
  N  N0  1  0.34457161  0.34428897  0.37394520  1
  N  N1  1  0.65472991  1.00000000  0.37437808  1
  N  N2  1  0.00028264  0.65571103  0.37394520  1
  N  N3  1  0.99737260  0.34171436  0.87175321  1
  N  N4  1  0.65472991  1.00000000  0.12562192  1
  N  N5  1  0.65565923  0.65828564  0.87175321  1
  N  N6  1  0.34886234  0.00000000  0.87130828  1
  N  N7  1  0.65565923  0.65828564  0.62824679  1
  N  N8  1  0.99737260  0.34171436  0.62824679  1
  N  N9  1  0.00028264  0.65571103  0.12605480  1
  N  N10  1  0.34886234  0.00000000  0.62869172  1
  N  N11  1  0.34457161  0.34428897  0.12605480  1
loop_
_geom_bond_atom_site_label_1
_geom_bond_atom_site_label_2
_geom_bond_distance
_geom_bond_site_symmetry_2
Mo0 N6 2.164381 1_555
Mo0 N10 2.164381 1_555
Mo0 N3 2.185443 1_555
Mo0 N8 2.185443 1_555
Mo0 N5 2.185445 1_545
Mo0 N7 2.185445 1_545
N0 Zr0 2.187685 1_555
N0 Zr2 2.190538 1_555
N0 Nb4 2.203795 1_545
N0 Nb0 2.209102 1_555
N0 Nb1 2.209778 1_555
N1 Zr2 2.187062 1_565
N1 Zr0 2.187066 1_555
N1 Nb1 2.210220 1_665
N1 Nb0 2.210220 1_555
N1 Nb4 2.212663 1_555
N2 Zr2 2.187680 1_455
N2 Zr0 2.190529 1_555
N2 Nb4 2.203794 1_555
N2 Nb1 2.209103 1_555
N2 Nb0 2.209778 1_455
N3 Nb2 2.190867 1_555
N3 Nb3 2.201529 1_655
N3 Zr1 2.215875 1_556
N3 Zr3 2.225272 1_656
N4 Zr1 2.187062 1_565
N4 Zr3 2.187066 1_555
N4 Nb1 2.210220 1_665
N4 Nb0 2.210220 1_555
N4 Nb4 2.212663 1_555
N5 Nb3 2.190869 1_555
N5 Nb2 2.201524 1_555
N5 Zr3 2.215888 1_556
N5 Zr1 2.225275 1_556
N6 Nb2 2.207018 1_445
N6 Nb3 2.207018 1_555
N6 Zr3 2.213314 1_546
N6 Zr1 2.213317 1_556
N7 Nb3 2.190869 1_555
N7 Nb2 2.201524 1_555
N7 Zr0 2.215888 1_555
N7 Zr2 2.225275 1_555
N8 Nb2 2.190867 1_555
N8 Nb3 2.201529 1_655
N8 Zr2 2.215875 1_555
N8 Zr0 2.225272 1_655
N9 Zr1 2.187680 1_455
N9 Zr3 2.190529 1_555
N9 Nb4 2.203794 1_555
N9 Nb1 2.209103 1_555
N9 Nb0 2.209778 1_455
N10 Nb2 2.207018 1_445
N10 Nb3 2.207018 1_555
N10 Zr0 2.213314 1_545
N10 Zr2 2.213317 1_555
N11 Zr3 2.187685 1_555
N11 Zr1 2.190538 1_555
N11 Nb4 2.203795 1_545
N11 Nb0 2.209102 1_555
N11 Nb1 2.209778 1_555
