# generated using pymatgen
data_Zr2TaReW2
_symmetry_space_group_name_H-M   'P 1'
_cell_length_a   5.46849645
_cell_length_b   5.36259247
_cell_length_c   5.46849654
_cell_angle_alpha   120.11769246
_cell_angle_beta   120.80379002
_cell_angle_gamma   89.75694053
_symmetry_Int_Tables_number   1
_chemical_formula_structural   Zr2TaReW2
_chemical_formula_sum   'Zr2 Ta1 Re1 W2'
_cell_volume   112.04195025
_cell_formula_units_Z   1
loop_
 _symmetry_equiv_pos_site_id
 _symmetry_equiv_pos_as_xyz
  1  'x, y, z'
loop_
 _atom_site_type_symbol
 _atom_site_label
 _atom_site_symmetry_multiplicity
 _atom_site_fract_x
 _atom_site_fract_y
 _atom_site_fract_z
 _atom_site_occupancy
  Zr  Zr0  1  0.12419248  0.87706263  0.25286914  1
  Zr  Zr1  1  0.87580752  0.12293737  0.74713086  1
  Ta  Ta0  1  0.50000000  0.50000000  0.50000000  1
  Re  Re0  1  0.50000000  0.00000000  0.00000000  1
  W  W0  1  0.50000000  0.50000000  0.00000000  1
  W  W1  1  0.00000000  0.50000000  0.50000000  1
loop_
_geom_bond_atom_site_label_1
_geom_bond_atom_site_label_2
_geom_bond_distance
_geom_bond_site_symmetry_2
Zr0 Zr1 3.289855 1_454
Zr0 Zr1 3.321002 1_464
Zr0 Zr1 3.321011 1_565
Zr0 Zr1 3.325271 1_465
Ta0 W1 2.734248 1_555
Ta0 W1 2.734248 1_655
Ta0 W0 2.734248 1_556
Ta0 W0 2.734248 1_555
Ta0 Zr1 3.145196 1_565
Ta0 Zr0 3.145196 1_545
Ta0 Zr1 3.162431 1_454
Ta0 Zr0 3.162431 1_656
Ta0 Zr0 3.162435 1_555
Ta0 Zr1 3.162435 1_555
Re0 W0 2.681296 1_545
Re0 W0 2.681296 1_555
Re0 W1 2.681296 1_655
Re0 W1 2.681296 1_544
Re0 Ta0 2.703343 1_555
Re0 Ta0 2.703343 1_544
Re0 Zr0 3.171677 1_645
Re0 Zr1 3.171677 1_454
Re0 Zr0 3.171682 1_544
Re0 Zr1 3.171682 1_555
Re0 Zr1 3.226022 1_554
Re0 Zr0 3.226022 1_545
W0 W1 2.700962 1_655
W0 W1 2.700962 1_554
W0 Zr0 3.136423 1_544
W0 Zr1 3.136423 1_565
W0 Zr0 3.173368 1_655
W0 Zr1 3.173368 1_454
W0 Zr1 3.208354 1_554
W0 Zr0 3.208354 1_555
W1 Zr1 3.136421 1_465
W1 Zr0 3.136421 1_545
W1 Zr0 3.173370 1_555
W1 Zr1 3.173370 1_455
W1 Zr1 3.208352 1_454
W1 Zr0 3.208352 1_556
