# generated using pymatgen
data_RbNa(GaI4)2
_symmetry_space_group_name_H-M   'P 1'
_cell_length_a   11.89075895
_cell_length_b   7.46211784
_cell_length_c   12.67601692
_cell_angle_alpha   79.65492483
_cell_angle_beta   89.06201044
_cell_angle_gamma   94.44312085
_symmetry_Int_Tables_number   1
_chemical_formula_structural   RbNa(GaI4)2
_chemical_formula_sum   'Rb2 Na2 Ga4 I16'
_cell_volume   1102.61114830
_cell_formula_units_Z   2
loop_
 _symmetry_equiv_pos_site_id
 _symmetry_equiv_pos_as_xyz
  1  'x, y, z'
loop_
 _atom_site_type_symbol
 _atom_site_label
 _atom_site_symmetry_multiplicity
 _atom_site_fract_x
 _atom_site_fract_y
 _atom_site_fract_z
 _atom_site_occupancy
  Rb  Rb0  1  0.48043989  0.57462278  0.69708465  1
  Rb  Rb1  1  0.51956011  0.42537722  0.30291535  1
  Na  Na0  1  0.98111822  0.45606736  0.22633487  1
  Na  Na1  1  0.01888178  0.54393264  0.77366513  1
  Ga  Ga0  1  0.75965236  0.27143641  0.55011316  1
  Ga  Ga1  1  0.24034764  0.72856359  0.44988684  1
  Ga  Ga2  1  0.74820242  0.43372708  0.01512479  1
  Ga  Ga3  1  0.25179758  0.56627292  0.98487521  1
  I  I0  1  0.78615231  0.15933474  0.37030377  1
  I  I1  1  0.91450066  0.23068171  0.04270562  1
  I  I2  1  0.72572300  0.61182720  0.49923370  1
  I  I3  1  0.41943442  0.89281078  0.34937297  1
  I  I4  1  0.76222097  0.61339272  0.82104628  1
  I  I5  1  0.76649334  0.67307387  0.13977003  1
  I  I6  1  0.56397232  0.23385608  0.05111575  1
  I  I7  1  0.08549934  0.76931829  0.95729438  1
  I  I8  1  0.21384769  0.84066526  0.62969623  1
  I  I9  1  0.58056558  0.10718922  0.65062703  1
  I  I10  1  0.06384366  0.78821653  0.34037252  1
  I  I11  1  0.27427700  0.38817280  0.50076630  1
  I  I12  1  0.23777903  0.38660728  0.17895372  1
  I  I13  1  0.93615634  0.21178347  0.65962748  1
  I  I14  1  0.43602768  0.76614392  0.94888425  1
  I  I15  1  0.23350666  0.32692613  0.86022997  1
loop_
_geom_bond_atom_site_label_1
_geom_bond_atom_site_label_2
_geom_bond_distance
_geom_bond_site_symmetry_2
Ga0 I13 2.558962 1_555
Ga0 I9 2.570244 1_555
Ga0 I2 2.570884 1_555
Ga0 I0 2.587703 1_555
Ga1 I10 2.558962 1_555
Ga1 I3 2.570244 1_555
Ga1 I11 2.570884 1_555
Ga1 I8 2.587703 1_555
Ga2 I6 2.539322 1_555
Ga2 I1 2.573841 1_555
Ga2 I4 2.577768 1_554
Ga2 I5 2.588090 1_555
Ga3 I14 2.539322 1_555
Ga3 I7 2.573841 1_555
Ga3 I12 2.577768 1_556
Ga3 I15 2.588090 1_555
I0 Na0 3.350028 1_555
I0 Rb1 3.895422 1_555
I1 Na0 3.183427 1_555
I2 Rb0 3.776044 1_555
I2 Rb1 3.879802 1_555
I3 Rb1 3.910104 1_555
I3 Rb1 3.995116 1_565
I4 Na1 3.200048 1_655
I4 Rb0 3.736940 1_555
I5 Na0 3.230027 1_555
I5 Rb1 3.728541 1_555
I6 Rb1 3.769497 1_555
I7 Na1 3.183427 1_555
I8 Na1 3.350028 1_555
I8 Rb0 3.895422 1_555
I9 Rb0 3.910104 1_555
I9 Rb0 3.995116 1_545
I10 Na0 3.186837 1_455
I11 Rb1 3.776044 1_555
I11 Rb0 3.879802 1_555
I12 Na0 3.200048 1_455
I12 Rb1 3.736940 1_555
I13 Na1 3.186837 1_655
I14 Rb0 3.769497 1_555
I15 Na1 3.230027 1_555
I15 Rb0 3.728541 1_555
