# generated using pymatgen
data_Rb2Hg(PS3)2
_symmetry_space_group_name_H-M   'P 1'
_cell_length_a   12.41606284
_cell_length_b   6.48507560
_cell_length_c   9.68987090
_cell_angle_alpha   52.75193665
_cell_angle_beta   90.00000000
_cell_angle_gamma   90.00000000
_symmetry_Int_Tables_number   1
_chemical_formula_structural   Rb2Hg(PS3)2
_chemical_formula_sum   'Rb4 Hg2 P4 S12'
_cell_volume   621.07244120
_cell_formula_units_Z   2
loop_
 _symmetry_equiv_pos_site_id
 _symmetry_equiv_pos_as_xyz
  1  'x, y, z'
loop_
 _atom_site_type_symbol
 _atom_site_label
 _atom_site_symmetry_multiplicity
 _atom_site_fract_x
 _atom_site_fract_y
 _atom_site_fract_z
 _atom_site_occupancy
  Rb  Rb0  1  0.32561415  0.22266453  0.51946202  1
  Rb  Rb1  1  0.67438585  0.77733547  0.48053798  1
  Rb  Rb2  1  0.82561415  0.77733547  0.98053798  1
  Rb  Rb3  1  0.17438585  0.22266453  0.01946202  1
  Hg  Hg0  1  0.50000000  0.50000000  0.00000000  1
  Hg  Hg1  1  0.00000000  0.50000000  0.50000000  1
  P  P0  1  0.45959974  0.85172036  0.12960963  1
  P  P1  1  0.04040026  0.85172036  0.62960963  1
  P  P2  1  0.95959974  0.14827964  0.37039037  1
  P  P3  1  0.54040026  0.14827964  0.87039037  1
  S  S0  1  0.06692897  0.05779390  0.72707648  1
  S  S1  1  0.67812568  0.25662360  0.91703270  1
  S  S2  1  0.06399763  0.43910865  0.22552974  1
  S  S3  1  0.93307103  0.94220610  0.27292352  1
  S  S4  1  0.43307103  0.05779390  0.22707648  1
  S  S5  1  0.32187432  0.74337640  0.08296730  1
  S  S6  1  0.43600237  0.43910865  0.72552974  1
  S  S7  1  0.56399763  0.56089135  0.27447026  1
  S  S8  1  0.56692897  0.94220610  0.77292352  1
  S  S9  1  0.17812568  0.74337640  0.58296730  1
  S  S10  1  0.93600237  0.56089135  0.77447026  1
  S  S11  1  0.82187432  0.25662360  0.41703270  1
loop_
_geom_bond_atom_site_label_1
_geom_bond_atom_site_label_2
_geom_bond_distance
_geom_bond_site_symmetry_2
Rb0 S9 3.328323 1_545
Rb0 S6 3.350927 1_555
Rb0 S5 3.464819 1_555
Rb0 S0 3.592008 1_555
Rb0 S7 3.592172 1_555
Rb0 S8 3.593002 1_545
Rb0 S4 3.823236 1_555
Rb1 S11 3.328323 1_565
Rb1 S7 3.350927 1_555
Rb1 S1 3.464819 1_555
Rb1 S3 3.592008 1_555
Rb1 S6 3.592172 1_555
Rb1 S4 3.593002 1_565
Rb1 S8 3.823236 1_555
Rb2 S1 3.328323 1_565
Rb2 S10 3.350927 1_555
Rb2 S11 3.464819 1_556
Rb2 S8 3.592008 1_555
Rb2 S2 3.592172 1_656
Rb2 S0 3.593002 1_665
Rb2 S3 3.823236 1_556
Rb3 S5 3.328323 1_545
Rb3 S2 3.350927 1_555
Rb3 S9 3.464819 1_554
Rb3 S4 3.592008 1_555
Rb3 S10 3.592172 1_454
Rb3 S3 3.593002 1_445
Rb3 S0 3.823236 1_554
Hg0 S8 2.473360 1_554
Hg0 S4 2.473360 1_555
Hg1 S0 2.473360 1_555
Hg1 S3 2.473360 1_455
P0 S7 2.000720 1_555
P0 S5 2.001618 1_555
P0 S4 2.077092 1_565
P1 S10 2.000720 1_455
P1 S9 2.001618 1_555
P1 S0 2.077092 1_565
P2 S2 2.000720 1_655
P2 S11 2.001618 1_555
P2 S3 2.077092 1_545
P3 S6 2.000720 1_555
P3 S1 2.001618 1_555
P3 S8 2.077092 1_545
