# generated using pymatgen
data_Cs3CoGe2O7
_symmetry_space_group_name_H-M   'P 1'
_cell_length_a   9.81418011
_cell_length_b   9.81417972
_cell_length_c   7.78786139
_cell_angle_alpha   72.65344715
_cell_angle_beta   72.65344923
_cell_angle_gamma   120.34191986
_symmetry_Int_Tables_number   1
_chemical_formula_structural   Cs3CoGe2O7
_chemical_formula_sum   'Cs6 Co2 Ge4 O14'
_cell_volume   518.18358213
_cell_formula_units_Z   2
loop_
 _symmetry_equiv_pos_site_id
 _symmetry_equiv_pos_as_xyz
  1  'x, y, z'
loop_
 _atom_site_type_symbol
 _atom_site_label
 _atom_site_symmetry_multiplicity
 _atom_site_fract_x
 _atom_site_fract_y
 _atom_site_fract_z
 _atom_site_occupancy
  Cs  Cs0  1  0.59018517  0.97868202  0.73499365  1
  Cs  Cs1  1  0.01425003  0.98574997  0.75000000  1
  Cs  Cs2  1  0.97868202  0.59018517  0.23499365  1
  Cs  Cs3  1  0.98574997  0.01425003  0.25000000  1
  Cs  Cs4  1  0.02131798  0.40981483  0.76500635  1
  Cs  Cs5  1  0.40981483  0.02131798  0.26500635  1
  Co  Co0  1  0.43923558  0.56076442  0.75000000  1
  Co  Co1  1  0.56076442  0.43923558  0.25000000  1
  Ge  Ge0  1  0.76449663  0.56946692  0.75539851  1
  Ge  Ge1  1  0.43053308  0.23550337  0.74460149  1
  Ge  Ge2  1  0.56946692  0.76449663  0.25539851  1
  Ge  Ge3  1  0.23550337  0.43053308  0.24460149  1
  O  O0  1  0.66144544  0.67531464  0.74059381  1
  O  O1  1  0.67531464  0.66144544  0.24059381  1
  O  O2  1  0.51398456  0.26281338  0.49024150  1
  O  O3  1  0.32468536  0.33855456  0.75940619  1
  O  O4  1  0.00347854  0.27408958  0.44971094  1
  O  O5  1  0.48601544  0.73718662  0.50975850  1
  O  O6  1  0.27408958  0.00347854  0.94971094  1
  O  O7  1  0.26281338  0.51398456  0.99024150  1
  O  O8  1  0.36139715  0.63860285  0.25000000  1
  O  O9  1  0.33855456  0.32468536  0.25940619  1
  O  O10  1  0.72591042  0.99652146  0.05028906  1
  O  O11  1  0.63860285  0.36139715  0.75000000  1
  O  O12  1  0.99652146  0.72591042  0.55028906  1
  O  O13  1  0.73718662  0.48601544  0.00975850  1
loop_
_geom_bond_atom_site_label_1
_geom_bond_atom_site_label_2
_geom_bond_distance
_geom_bond_site_symmetry_2
Cs0 O4 2.949275 1_665
Cs0 O10 3.131362 1_556
Cs0 O6 3.223552 1_565
Cs0 O5 3.292365 1_555
Cs0 O7 3.324928 1_555
Cs0 O8 3.368058 1_556
Cs0 O0 3.376357 1_555
Cs0 O2 3.428667 1_565
Cs0 O11 3.583143 1_565
Cs1 O4 3.160944 1_565
Cs1 O10 3.160944 1_456
Cs1 O9 3.204127 1_565
Cs1 O1 3.204127 1_456
Cs1 O3 3.301939 1_565
Cs1 O0 3.301939 1_455
Cs1 O12 3.321225 1_455
Cs1 O6 3.321225 1_565
Cs2 O6 2.949275 1_664
Cs2 O12 3.131362 1_555
Cs2 O4 3.223552 1_655
Cs2 O13 3.292365 1_555
Cs2 O2 3.324928 1_555
Cs2 O11 3.368058 1_555
Cs2 O1 3.376357 1_555
Cs2 O7 3.428667 1_654
Cs2 O8 3.583143 1_655
Cs3 O12 3.160944 1_545
Cs3 O6 3.160944 1_654
Cs3 O0 3.204127 1_545
Cs3 O3 3.204127 1_654
Cs3 O1 3.301939 1_545
Cs3 O9 3.301939 1_655
Cs3 O4 3.321225 1_655
Cs3 O10 3.321225 1_545
Cs4 O10 2.949275 1_446
Cs4 O4 3.131362 1_555
Cs4 O12 3.223552 1_455
Cs4 O7 3.292365 1_555
Cs4 O5 3.324928 1_555
Cs4 O8 3.368058 1_555
Cs4 O3 3.376357 1_555
Cs4 O13 3.428667 1_456
Cs4 O11 3.583143 1_455
Cs5 O12 2.949275 1_445
Cs5 O6 3.131362 1_554
Cs5 O10 3.223552 1_545
Cs5 O2 3.292365 1_555
Cs5 O13 3.324928 1_555
Cs5 O11 3.368058 1_554
Cs5 O9 3.376357 1_555
Cs5 O5 3.428667 1_545
Cs5 O8 3.583143 1_545
Co0 O3 1.844935 1_555
Co0 O0 1.844935 1_555
Co0 O5 1.860688 1_555
Co0 O7 1.860688 1_555
Co1 O1 1.844935 1_555
Co1 O9 1.844935 1_555
Co1 O2 1.860688 1_555
Co1 O13 1.860688 1_555
Ge0 O12 1.711872 1_555
Ge0 O13 1.777877 1_556
Ge0 O0 1.781807 1_555
Ge0 O11 1.797596 1_555
Ge1 O6 1.711872 1_555
Ge1 O2 1.777877 1_555
Ge1 O3 1.781807 1_555
Ge1 O11 1.797597 1_555
Ge2 O10 1.711872 1_555
Ge2 O5 1.777877 1_555
Ge2 O1 1.781807 1_555
Ge2 O8 1.797597 1_555
Ge3 O4 1.711872 1_555
Ge3 O7 1.777877 1_554
Ge3 O9 1.781807 1_555
Ge3 O8 1.797596 1_555
