# generated using pymatgen
data_Y3Ni6B2Ir
_symmetry_space_group_name_H-M   'P 1'
_cell_length_a   5.07747652
_cell_length_b   5.07747687
_cell_length_c   14.45558300
_cell_angle_alpha   90.00000000
_cell_angle_beta   90.00000000
_cell_angle_gamma   120.00000418
_symmetry_Int_Tables_number   1
_chemical_formula_structural   Y3Ni6B2Ir
_chemical_formula_sum   'Y6 Ni12 B4 Ir2'
_cell_volume   322.74691675
_cell_formula_units_Z   2
loop_
 _symmetry_equiv_pos_site_id
 _symmetry_equiv_pos_as_xyz
  1  'x, y, z'
loop_
 _atom_site_type_symbol
 _atom_site_label
 _atom_site_symmetry_multiplicity
 _atom_site_fract_x
 _atom_site_fract_y
 _atom_site_fract_z
 _atom_site_occupancy
  Y  Y0  1  0.33333300  0.66666700  0.96892749  1
  Y  Y1  1  0.66666700  0.33333300  0.03107251  1
  Y  Y2  1  0.66666700  0.33333300  0.46892749  1
  Y  Y3  1  0.33333300  0.66666700  0.53107251  1
  Y  Y4  1  0.33333300  0.66666700  0.75000000  1
  Y  Y5  1  0.66666700  0.33333300  0.25000000  1
  Ni  Ni0  1  0.16468110  0.83531890  0.34718096  1
  Ni  Ni1  1  0.16468110  0.32936119  0.34718096  1
  Ni  Ni2  1  0.67063881  0.83531890  0.34718096  1
  Ni  Ni3  1  0.83531890  0.16468110  0.65281904  1
  Ni  Ni4  1  0.83531890  0.67063881  0.65281904  1
  Ni  Ni5  1  0.32936119  0.16468110  0.65281904  1
  Ni  Ni6  1  0.83531890  0.16468110  0.84718096  1
  Ni  Ni7  1  0.83531890  0.67063881  0.84718096  1
  Ni  Ni8  1  0.32936119  0.16468110  0.84718096  1
  Ni  Ni9  1  0.16468110  0.83531890  0.15281904  1
  Ni  Ni10  1  0.16468110  0.32936119  0.15281904  1
  Ni  Ni11  1  0.67063881  0.83531890  0.15281904  1
  B  B0  1  0.33333300  0.66666700  0.25000000  1
  B  B1  1  0.66666700  0.33333300  0.75000000  1
  B  B2  1  0.00000000  0.00000000  0.25000000  1
  B  B3  1  0.00000000  0.00000000  0.75000000  1
  Ir  Ir0  1  0.00000000  0.00000000  0.50000000  1
  Ir  Ir1  1  0.00000000  0.00000000  0.00000000  1
loop_
_geom_bond_atom_site_label_1
_geom_bond_atom_site_label_2
_geom_bond_distance
_geom_bond_site_symmetry_2
Y0 Y4 3.164724 1_555
Y1 Y5 3.164724 1_555
Y2 Y5 3.164724 1_555
Y3 Y4 3.164724 1_555
Ni0 Y5 2.901548 1_565
Ni0 Y5 2.901548 1_455
Ni0 Y3 3.044048 1_555
Ni0 Y2 3.089143 1_565
Ni0 Y2 3.089143 1_455
Ni1 Y5 2.901548 1_555
Ni1 Y5 2.901548 1_455
Ni1 Y3 3.044052 1_555
Ni1 Y2 3.089143 1_555
Ni1 Y2 3.089143 1_455
Ni2 Y5 2.901548 1_555
Ni2 Y5 2.901548 1_565
Ni2 Y3 3.044052 1_555
Ni2 Y2 3.089143 1_555
Ni2 Y2 3.089143 1_565
Ni3 Y4 2.901548 1_545
Ni3 Y4 2.901548 1_655
Ni3 Y2 3.044048 1_555
Ni3 Y3 3.089143 1_545
Ni3 Y3 3.089143 1_655
Ni4 Y4 2.901548 1_555
Ni4 Y4 2.901548 1_655
Ni4 Y2 3.044052 1_555
Ni4 Y3 3.089143 1_555
Ni4 Y3 3.089143 1_655
Ni5 Y4 2.901548 1_555
Ni5 Y4 2.901548 1_545
Ni5 Y2 3.044052 1_555
Ni5 Y3 3.089143 1_555
Ni5 Y3 3.089143 1_545
Ni6 Y4 2.901548 1_545
Ni6 Y4 2.901548 1_655
Ni6 Y1 3.044048 1_556
Ni6 Y0 3.089143 1_545
Ni6 Y0 3.089143 1_655
Ni7 Y4 2.901548 1_555
Ni7 Y4 2.901548 1_655
Ni7 Y1 3.044052 1_556
Ni7 Y0 3.089143 1_555
Ni7 Y0 3.089143 1_655
Ni8 Y4 2.901548 1_555
Ni8 Y4 2.901548 1_545
Ni8 Y1 3.044052 1_556
Ni8 Y0 3.089143 1_555
Ni8 Y0 3.089143 1_545
Ni9 Y5 2.901548 1_565
Ni9 Y5 2.901548 1_455
Ni9 Y0 3.044048 1_554
Ni9 Y1 3.089143 1_565
Ni9 Y1 3.089143 1_455
Ni10 Y5 2.901548 1_555
Ni10 Y5 2.901548 1_455
Ni10 Y0 3.044052 1_554
Ni10 Y1 3.089143 1_555
Ni10 Y1 3.089143 1_455
Ni11 Y5 2.901548 1_555
Ni11 Y5 2.901548 1_565
Ni11 Y0 3.044052 1_554
Ni11 Y1 3.089143 1_555
Ni11 Y1 3.089143 1_565
B0 Ni9 2.042882 1_555
B0 Ni0 2.042882 1_555
B0 Ni11 2.042888 1_555
B0 Ni2 2.042888 1_555
B0 Ni10 2.042888 1_555
B0 Ni1 2.042888 1_555
B0 Y5 2.931479 1_455
B0 Y5 2.931480 1_565
B0 Y5 2.931488 1_555
B1 Ni3 2.042882 1_555
B1 Ni6 2.042882 1_555
B1 Ni5 2.042888 1_555
B1 Ni8 2.042888 1_555
B1 Ni4 2.042888 1_555
B1 Ni7 2.042888 1_555
B1 Y4 2.931479 1_655
B1 Y4 2.931480 1_545
B1 Y4 2.931488 1_555
B2 Ni11 2.017668 1_445
B2 Ni2 2.017668 1_445
B2 Ni10 2.017668 1_555
B2 Ni1 2.017668 1_555
B2 Ni9 2.017671 1_545
B2 Ni0 2.017671 1_545
B2 Y5 2.931480 1_455
B2 Y5 2.931484 1_555
B2 Y5 2.931484 1_445
B3 Ni5 2.017668 1_555
B3 Ni8 2.017668 1_555
B3 Ni4 2.017668 1_445
B3 Ni7 2.017668 1_445
B3 Ni3 2.017671 1_455
B3 Ni6 2.017671 1_455
B3 Y4 2.931480 1_545
B3 Y4 2.931484 1_445
B3 Y4 2.931484 1_555
Ir0 Ni5 2.641509 1_555
Ir0 Ni2 2.641509 1_445
Ir0 Ni1 2.641509 1_555
Ir0 Ni4 2.641509 1_445
Ir0 Ni0 2.641512 1_545
Ir0 Ni3 2.641512 1_455
Ir0 Y3 2.965692 1_545
Ir0 Y2 2.965692 1_455
Ir0 Y2 2.965696 1_555
Ir0 Y3 2.965696 1_445
Ir0 Y3 2.965696 1_555
Ir0 Y2 2.965696 1_445
Ir1 Ni8 2.641509 1_554
Ir1 Ni11 2.641509 1_445
Ir1 Ni10 2.641509 1_555
Ir1 Ni7 2.641509 1_444
Ir1 Ni6 2.641512 1_454
Ir1 Ni9 2.641512 1_545
Ir1 Y1 2.965692 1_455
Ir1 Y0 2.965692 1_544
Ir1 Y1 2.965696 1_555
Ir1 Y0 2.965696 1_444
Ir1 Y0 2.965696 1_554
Ir1 Y1 2.965696 1_445
