# generated using pymatgen
data_SrLiTa2O6F
_symmetry_space_group_name_H-M   'P 1'
_cell_length_a   7.46180821
_cell_length_b   7.46180821
_cell_length_c   7.46180821
_cell_angle_alpha   120.36437901
_cell_angle_beta   119.42572459
_cell_angle_gamma   90.18378804
_symmetry_Int_Tables_number   1
_chemical_formula_structural   SrLiTa2O6F
_chemical_formula_sum   'Sr2 Li2 Ta4 O12 F2'
_cell_volume   294.21642702
_cell_formula_units_Z   2
loop_
 _symmetry_equiv_pos_site_id
 _symmetry_equiv_pos_as_xyz
  1  'x, y, z'
loop_
 _atom_site_type_symbol
 _atom_site_label
 _atom_site_symmetry_multiplicity
 _atom_site_fract_x
 _atom_site_fract_y
 _atom_site_fract_z
 _atom_site_occupancy
  Sr  Sr0  1  0.00000000  0.50000000  0.50000000  1
  Sr  Sr1  1  0.50000000  0.50000000  0.00000000  1
  Li  Li0  1  0.50000000  0.00000000  0.00000000  1
  Li  Li1  1  0.50000000  0.50000000  0.50000000  1
  Ta  Ta0  1  0.00000000  0.00000000  0.50000000  1
  Ta  Ta1  1  0.00000000  0.00000000  0.00000000  1
  Ta  Ta2  1  0.00000000  0.50000000  0.00000000  1
  Ta  Ta3  1  0.50000000  0.00000000  0.50000000  1
  O  O0  1  0.06351200  0.93054100  0.74537000  1
  O  O1  1  0.07111300  0.32111300  0.75000000  1
  O  O2  1  0.06351200  0.31814200  0.13297100  1
  O  O3  1  0.68517100  0.93054100  0.36702900  1
  O  O4  1  0.93648800  0.06945900  0.25463000  1
  O  O5  1  0.68860500  0.93860500  0.75000000  1
  O  O6  1  0.92888700  0.67888700  0.25000000  1
  O  O7  1  0.68517100  0.31814200  0.75463000  1
  O  O8  1  0.93648800  0.68185800  0.86702900  1
  O  O9  1  0.31482900  0.06945900  0.63297100  1
  O  O10  1  0.31482900  0.68185800  0.24537000  1
  O  O11  1  0.31139500  0.06139500  0.25000000  1
  F  F0  1  0.60063000  0.35063000  0.25000000  1
  F  F1  1  0.39937000  0.64937000  0.75000000  1
loop_
_geom_bond_atom_site_label_1
_geom_bond_atom_site_label_2
_geom_bond_distance
_geom_bond_site_symmetry_2
O0 Ta0 1.988414 1_565
O0 Ta1 1.998494 1_566
O0 Sr0 2.662458 1_555
O1 Ta0 2.000746 1_555
O1 Ta2 2.000746 1_556
O1 Sr1 2.663186 1_556
O1 Sr0 2.663186 1_555
O2 Ta2 1.988414 1_555
O2 Ta1 1.998494 1_555
O2 Sr0 2.662458 1_555
O3 Ta0 1.988414 1_665
O3 Ta3 1.998494 1_565
O3 Sr1 2.662458 1_555
O4 Ta0 1.988414 1_655
O4 Ta1 1.998494 1_655
O4 Sr0 2.662458 1_655
O5 Ta3 1.989697 1_565
O5 Ta1 1.989697 1_666
O6 Ta0 2.000746 1_665
O6 Ta2 2.000746 1_655
O6 Sr0 2.663186 1_655
O6 Sr1 2.663186 1_555
O7 Ta2 1.988414 1_656
O7 Ta3 1.998494 1_555
O7 Sr1 2.662458 1_556
O8 Ta2 1.988414 1_656
O8 Ta1 1.998494 1_666
O8 Sr0 2.662458 1_655
O9 Ta0 1.988414 1_555
O9 Ta3 1.998494 1_555
O9 Sr1 2.662458 1_556
O10 Ta2 1.988414 1_555
O10 Ta3 1.998494 1_565
O10 Sr1 2.662458 1_555
O11 Ta3 1.989697 1_555
O11 Ta1 1.989697 1_555
F0 Li0 2.136745 1_555
F0 Li1 2.136745 1_555
F0 Sr0 2.452970 1_655
F0 Sr1 2.452970 1_555
F1 Li0 2.136745 1_566
F1 Li1 2.136745 1_555
F1 Sr0 2.452970 1_555
F1 Sr1 2.452970 1_556
