# generated using pymatgen
data_Cd5Pd12PbAu6
_symmetry_space_group_name_H-M   'P 1'
_cell_length_a   4.25357764
_cell_length_b   7.39526446
_cell_length_c   12.82410691
_cell_angle_alpha   89.99989578
_cell_angle_beta   90.00061713
_cell_angle_gamma   89.99975808
_symmetry_Int_Tables_number   1
_chemical_formula_structural   Cd5Pd12PbAu6
_chemical_formula_sum   'Cd5 Pd12 Pb1 Au6'
_cell_volume   403.39935921
_cell_formula_units_Z   1
loop_
 _symmetry_equiv_pos_site_id
 _symmetry_equiv_pos_as_xyz
  1  'x, y, z'
loop_
 _atom_site_type_symbol
 _atom_site_label
 _atom_site_symmetry_multiplicity
 _atom_site_fract_x
 _atom_site_fract_y
 _atom_site_fract_z
 _atom_site_occupancy
  Cd  Cd0  1  0.50000929  0.50000000  0.16713405  1
  Cd  Cd1  1  0.99999960  0.00000000  0.33651490  1
  Cd  Cd2  1  0.50000100  0.50000000  0.50000000  1
  Cd  Cd3  1  0.00000040  1.00000000  0.66348510  1
  Cd  Cd4  1  0.49999071  0.50000000  0.83286695  1
  Pd  Pd0  1  0.50000000  0.24723549  1.00000000  1
  Pd  Pd1  1  0.50000000  0.75276451  0.00000000  1
  Pd  Pd2  1  0.00000573  0.24949781  0.16724243  1
  Pd  Pd3  1  0.00000573  0.75050319  0.16724243  1
  Pd  Pd4  1  0.49999188  0.25304255  0.33481263  1
  Pd  Pd5  1  0.49998888  0.74695745  0.33481263  1
  Pd  Pd6  1  1.00000000  0.25139592  0.50000000  1
  Pd  Pd7  1  0.00000000  0.74860408  0.50000000  1
  Pd  Pd8  1  0.50001012  0.25304155  0.66518737  1
  Pd  Pd9  1  0.50000712  0.74695645  0.66518737  1
  Pd  Pd10  1  0.99999427  0.24949681  0.83275757  1
  Pd  Pd11  1  0.99999427  0.75050219  0.83275757  1
  Pb  Pb0  1  0.00000000  0.00000000  0.00000000  1
  Au  Au0  1  0.00000000  0.50000000  0.00000000  1
  Au  Au1  1  0.50000221  0.00000100  0.17553243  1
  Au  Au2  1  0.99999836  0.50000000  0.33299371  1
  Au  Au3  1  0.50000100  0.00000000  0.50000000  1
  Au  Au4  1  0.00000164  0.50000000  0.66700529  1
  Au  Au5  1  0.49999779  0.99999900  0.82446757  1
loop_
_geom_bond_atom_site_label_1
_geom_bond_atom_site_label_2
_geom_bond_distance
_geom_bond_site_symmetry_2
Cd0 Pd2 2.820461 1_655
Cd0 Pd3 2.820478 1_655
Cd0 Pd3 2.820489 1_555
Cd0 Pd2 2.820496 1_555
Cd0 Pd4 2.821228 1_555
Cd0 Pd5 2.821233 1_555
Cd0 Pd1 2.843949 1_555
Cd0 Pd0 2.843954 1_554
Cd1 Pd7 2.802126 1_645
Cd1 Pd6 2.802131 1_555
Cd1 Pd5 2.832897 1_645
Cd1 Pd4 2.832919 1_655
Cd1 Pd4 2.832956 1_555
Cd1 Pd5 2.832977 1_545
Cd1 Pd2 2.848969 1_655
Cd1 Pd3 2.848969 1_645
Cd2 Pd5 2.796954 1_555
Cd2 Pd9 2.796954 1_555
Cd2 Pd8 2.796959 1_555
Cd2 Pd4 2.796959 1_555
Cd2 Pd6 2.811269 1_555
Cd2 Pd7 2.811276 1_555
Cd2 Pd7 2.811281 1_655
Cd2 Pd6 2.811288 1_455
Cd3 Pd6 2.802126 1_465
Cd3 Pd7 2.802131 1_555
Cd3 Pd8 2.832896 1_465
Cd3 Pd9 2.832927 1_455
Cd3 Pd9 2.832957 1_555
Cd3 Pd8 2.832969 1_565
Cd3 Pd11 2.848969 1_455
Cd3 Pd10 2.848969 1_465
Cd4 Pd11 2.820461 1_455
Cd4 Pd10 2.820478 1_455
Cd4 Pd10 2.820489 1_555
Cd4 Pd11 2.820496 1_555
Cd4 Pd9 2.821233 1_555
Cd4 Pd8 2.821247 1_555
Cd4 Pd0 2.843940 1_555
Cd4 Pd1 2.843945 1_556
Pd0 Pd2 3.020495 1_556
Pd0 Pd10 3.020495 1_555
Pd0 Pd10 3.020497 1_455
Pd0 Pd2 3.020497 1_656
Pd1 Pd11 3.020495 1_554
Pd1 Pd3 3.020495 1_555
Pd1 Pd3 3.020497 1_655
Pd1 Pd11 3.020497 1_454
Pd2 Pd4 3.023492 1_555
Pd2 Pd4 3.023607 1_455
Pd3 Pd5 3.023483 1_555
Pd3 Pd5 3.023616 1_455
Pd4 Pd6 3.001810 1_455
Pd4 Pd6 3.001827 1_555
Pd5 Pd7 3.001801 1_555
Pd5 Pd7 3.001836 1_655
Pd6 Pd8 3.001804 1_555
Pd6 Pd8 3.001833 1_655
Pd7 Pd9 3.001813 1_455
Pd7 Pd9 3.001824 1_555
Pd10 Pd8 3.023486 1_555
Pd10 Pd8 3.023613 1_655
Pd11 Pd9 3.023495 1_555
Pd11 Pd9 3.023604 1_655
Pb0 Pd0 2.804664 1_454
Pb0 Pd1 2.804664 1_545
Pb0 Pd0 2.804676 1_554
Pb0 Pd1 2.804676 1_445
Pb0 Pd3 2.829178 1_545
Pb0 Pd10 2.829178 1_454
Pb0 Pd2 2.829188 1_555
Pb0 Pd11 2.829188 1_444
Au0 Pd1 2.831489 1_455
Au0 Pd0 2.831489 1_554
Au0 Pd1 2.831501 1_555
Au0 Pd0 2.831501 1_454
Au0 Pd2 2.834033 1_555
Au0 Pd11 2.834033 1_454
Au0 Pd3 2.834042 1_555
Au0 Pd10 2.834042 1_454
Au0 Cd4 3.019443 1_554
Au0 Cd0 3.019452 1_455
Au0 Cd4 3.019466 1_454
Au0 Cd0 3.019475 1_555
Au1 Pd4 2.770223 1_555
Au1 Pd5 2.770228 1_545
Au1 Pd2 2.817589 1_555
Au1 Pd3 2.817606 1_545
Au1 Pd3 2.817618 1_645
Au1 Pd2 2.817625 1_655
Au1 Pd0 2.900019 1_554
Au1 Pd1 2.900034 1_545
Au1 Cd1 2.963962 1_555
Au1 Cd1 2.964010 1_455
Au1 Pb0 3.096834 1_555
Au1 Pb0 3.096854 1_655
Au2 Pd4 2.803400 1_655
Au2 Pd5 2.803402 1_655
Au2 Pd5 2.803452 1_555
Au2 Pd4 2.803454 1_555
Au2 Pd3 2.819593 1_655
Au2 Pd2 2.819594 1_655
Au2 Pd6 2.822578 1_555
Au2 Pd7 2.822583 1_655
Au2 Cd0 3.007835 1_555
Au2 Cd0 3.007933 1_655
Au2 Cd2 3.018292 1_655
Au2 Cd2 3.018309 1_555
Au3 Pd7 2.824815 1_645
Au3 Pd6 2.824821 1_455
Au3 Pd6 2.824827 1_555
Au3 Pd7 2.824833 1_545
Au3 Pd4 2.826543 1_555
Au3 Pd8 2.826544 1_555
Au3 Pd9 2.826548 1_545
Au3 Pd5 2.826548 1_545
Au3 Cd3 2.986410 1_645
Au3 Cd1 2.986416 1_455
Au3 Cd1 2.986440 1_555
Au3 Cd3 2.986446 1_545
Au4 Pd9 2.803398 1_455
Au4 Pd8 2.803410 1_455
Au4 Pd9 2.803446 1_555
Au4 Pd8 2.803454 1_555
Au4 Pd10 2.819603 1_455
Au4 Pd11 2.819603 1_455
Au4 Pd7 2.822569 1_555
Au4 Pd6 2.822574 1_455
Au4 Cd4 3.007853 1_555
Au4 Cd4 3.007952 1_455
Au4 Cd2 3.018277 1_455
Au4 Cd2 3.018306 1_555
Au5 Pd8 2.770223 1_565
Au5 Pd9 2.770228 1_555
Au5 Pd11 2.817589 1_555
Au5 Pd10 2.817606 1_565
Au5 Pd10 2.817618 1_465
Au5 Pd11 2.817625 1_455
Au5 Pd1 2.900019 1_556
Au5 Pd0 2.900034 1_565
Au5 Cd3 2.963962 1_555
Au5 Cd3 2.964010 1_655
Au5 Pb0 3.096834 1_666
Au5 Pb0 3.096854 1_566
