# generated using pymatgen
data_Zr12Al9Au3N4
_symmetry_space_group_name_H-M   'P 1'
_cell_length_a   8.67076752
_cell_length_b   8.66309571
_cell_length_c   8.66309547
_cell_angle_alpha   59.99999716
_cell_angle_beta   60.02926145
_cell_angle_gamma   60.02925587
_symmetry_Int_Tables_number   1
_chemical_formula_structural   Zr12Al9Au3N4
_chemical_formula_sum   'Zr12 Al9 Au3 N4'
_cell_volume   460.34207472
_cell_formula_units_Z   1
loop_
 _symmetry_equiv_pos_site_id
 _symmetry_equiv_pos_as_xyz
  1  'x, y, z'
loop_
 _atom_site_type_symbol
 _atom_site_label
 _atom_site_symmetry_multiplicity
 _atom_site_fract_x
 _atom_site_fract_y
 _atom_site_fract_z
 _atom_site_occupancy
  Zr  Zr0  1  0.81508228  0.18322538  0.18322538  1
  Zr  Zr1  1  0.18303265  0.81605916  0.18484803  1
  Zr  Zr2  1  0.81508228  0.81846896  0.18322538  1
  Zr  Zr3  1  0.18303265  0.81605916  0.81605916  1
  Zr  Zr4  1  0.81508228  0.18322538  0.81846896  1
  Zr  Zr5  1  0.18303265  0.18484803  0.81605916  1
  Zr  Zr6  1  0.43491772  0.06677462  0.06677462  1
  Zr  Zr7  1  0.06696735  0.43394084  0.06515197  1
  Zr  Zr8  1  0.43491772  0.43153104  0.06677462  1
  Zr  Zr9  1  0.06696735  0.43394084  0.43394084  1
  Zr  Zr10  1  0.43491772  0.06677462  0.43153104  1
  Zr  Zr11  1  0.06696735  0.06515197  0.43394084  1
  Al  Al0  1  0.42025236  0.41515212  0.74944239  1
  Al  Al1  1  0.42025236  0.41515212  0.41515212  1
  Al  Al2  1  0.74760690  0.41746337  0.41746337  1
  Al  Al3  1  0.42025236  0.74944239  0.41515212  1
  Al  Al4  1  0.82974764  0.83484788  0.50055761  1
  Al  Al5  1  0.82974764  0.83484788  0.83484788  1
  Al  Al6  1  0.50239310  0.83253663  0.83253663  1
  Al  Al7  1  0.82974764  0.50055761  0.83484788  1
  Al  Al8  1  0.12500000  0.62500000  0.62500000  1
  Au  Au0  1  0.62500000  0.62500000  0.12500000  1
  Au  Au1  1  0.62500000  0.62500000  0.62500000  1
  Au  Au2  1  0.62500000  0.12500000  0.62500000  1
  N  N0  1  0.12500000  0.12500000  0.62500000  1
  N  N1  1  0.12500000  0.12500000  0.12500000  1
  N  N2  1  0.62500000  0.12500000  0.12500000  1
  N  N3  1  0.12500000  0.62500000  0.12500000  1
loop_
_geom_bond_atom_site_label_1
_geom_bond_atom_site_label_2
_geom_bond_distance
_geom_bond_site_symmetry_2
Al0 Au2 2.640326 1_555
Al0 Au1 2.640334 1_555
Al0 Al8 2.677447 1_555
Al1 Au2 2.640331 1_555
Al1 Au0 2.640331 1_555
Al1 Al8 2.677452 1_555
Al2 Au0 2.647296 1_555
Al2 Au2 2.647297 1_555
Al2 Au1 2.647318 1_555
Al3 Au0 2.640326 1_555
Al3 Au1 2.640333 1_555
Al3 Al8 2.677448 1_555
Al4 Au2 2.640326 1_565
Al4 Au1 2.640334 1_555
Al4 Al8 2.677447 1_655
Al5 Au2 2.640331 1_565
Al5 Au0 2.640331 1_556
Al5 Al8 2.677452 1_655
Al6 Au0 2.647296 1_556
Al6 Au2 2.647297 1_565
Al6 Au1 2.647318 1_555
Al7 Au0 2.640326 1_556
Al7 Au1 2.640333 1_555
Al7 Al8 2.677448 1_655
Al8 Zr3 3.183731 1_555
Al8 Zr9 3.183731 1_555
Al8 Zr7 3.183738 1_556
Al8 Zr1 3.183738 1_555
Al8 Zr11 3.183738 1_565
Al8 Zr5 3.183738 1_555
Au0 Zr6 3.196223 1_565
Au0 Zr0 3.196223 1_555
Au0 Zr2 3.196238 1_555
Au0 Zr8 3.196238 1_555
Au0 Zr7 3.198412 1_655
Au0 Zr1 3.198412 1_555
Au1 Zr10 3.196226 1_565
Au1 Zr4 3.196226 1_555
Au1 Zr8 3.196226 1_556
Au1 Zr2 3.196226 1_555
Au1 Zr9 3.198410 1_655
Au1 Zr3 3.198410 1_555
Au2 Zr6 3.196223 1_556
Au2 Zr0 3.196223 1_555
Au2 Zr4 3.196238 1_555
Au2 Zr10 3.196238 1_555
Au2 Zr11 3.198412 1_655
Au2 Zr5 3.198412 1_555
N0 Zr5 2.283091 1_555
N0 Zr11 2.283091 1_555
N0 Zr9 2.283097 1_555
N0 Zr3 2.283097 1_545
N0 Zr10 2.296944 1_555
N0 Zr4 2.296944 1_455
N1 Zr11 2.283099 1_555
N1 Zr5 2.283099 1_554
N1 Zr7 2.283099 1_555
N1 Zr1 2.283099 1_545
N1 Zr6 2.296940 1_555
N1 Zr0 2.296940 1_455
N2 Zr8 2.267355 1_555
N2 Zr2 2.267355 1_545
N2 Zr10 2.267355 1_555
N2 Zr4 2.267355 1_554
N2 Zr0 2.267367 1_555
N2 Zr6 2.267367 1_555
N3 Zr1 2.283091 1_555
N3 Zr7 2.283091 1_555
N3 Zr9 2.283097 1_555
N3 Zr3 2.283097 1_554
N3 Zr8 2.296944 1_555
N3 Zr2 2.296944 1_455
