# generated using pymatgen
data_LiCrPbF6
_symmetry_space_group_name_H-M   'P 1'
_cell_length_a   5.17796806
_cell_length_b   5.17796782
_cell_length_c   10.50750644
_cell_angle_alpha   90.00000000
_cell_angle_beta   90.00000000
_cell_angle_gamma   119.99999564
_symmetry_Int_Tables_number   1
_chemical_formula_structural   LiCrPbF6
_chemical_formula_sum   'Li2 Cr2 Pb2 F12'
_cell_volume   243.97708023
_cell_formula_units_Z   2
loop_
 _symmetry_equiv_pos_site_id
 _symmetry_equiv_pos_as_xyz
  1  'x, y, z'
loop_
 _atom_site_type_symbol
 _atom_site_label
 _atom_site_symmetry_multiplicity
 _atom_site_fract_x
 _atom_site_fract_y
 _atom_site_fract_z
 _atom_site_occupancy
  Li  Li0  1  0.33333300  0.66666700  0.75000000  1
  Li  Li1  1  0.66666700  0.33333300  0.25000000  1
  Cr  Cr0  1  0.66666700  0.33333300  0.75000000  1
  Cr  Cr1  1  0.33333300  0.66666700  0.25000000  1
  Pb  Pb0  1  0.00000000  0.00000000  0.50000000  1
  Pb  Pb1  1  0.00000000  0.00000000  0.00000000  1
  F  F0  1  0.63740195  0.01398536  0.64732198  1
  F  F1  1  0.36259805  0.98601464  0.35267802  1
  F  F2  1  0.98601464  0.62341559  0.64732198  1
  F  F3  1  0.63740195  0.62341559  0.85267802  1
  F  F4  1  0.01398536  0.37658441  0.35267802  1
  F  F5  1  0.36259805  0.37658441  0.14732198  1
  F  F6  1  0.37658441  0.36259805  0.64732198  1
  F  F7  1  0.98601464  0.36259805  0.85267802  1
  F  F8  1  0.62341559  0.63740195  0.35267802  1
  F  F9  1  0.01398536  0.63740195  0.14732198  1
  F  F10  1  0.37658441  0.01398536  0.85267802  1
  F  F11  1  0.62341559  0.98601464  0.14732198  1
loop_
_geom_bond_atom_site_label_1
_geom_bond_atom_site_label_2
_geom_bond_distance
_geom_bond_site_symmetry_2
Cr0 F3 1.915906 1_555
Cr0 F0 1.915906 1_555
Cr0 F6 1.915906 1_555
Cr0 F7 1.915906 1_555
Cr0 F10 1.915906 1_555
Cr0 F2 1.915906 1_555
Cr1 F5 1.915906 1_555
Cr1 F1 1.915906 1_555
Cr1 F8 1.915906 1_555
Cr1 F9 1.915906 1_555
Cr1 F11 1.915906 1_555
Cr1 F4 1.915906 1_555
F0 Li0 2.011385 1_545
F0 Pb0 2.462225 1_655
F1 Li1 2.011385 1_565
F1 Pb0 2.462225 1_565
F2 Li0 2.011381 1_655
F2 Pb0 2.462229 1_665
F3 Li0 2.011390 1_555
F3 Pb1 2.462228 1_666
F4 Li1 2.011381 1_455
F4 Pb0 2.462229 1_555
F5 Li1 2.011390 1_555
F5 Pb1 2.462228 1_555
F6 Li0 2.011390 1_555
F6 Pb0 2.462228 1_555
F7 Li0 2.011385 1_655
F7 Pb1 2.462225 1_656
F8 Li1 2.011390 1_555
F8 Pb0 2.462228 1_665
F9 Li1 2.011385 1_455
F9 Pb1 2.462225 1_565
F10 Li0 2.011381 1_545
F10 Pb1 2.462230 1_556
F11 Li1 2.011381 1_565
F11 Pb1 2.462230 1_665
