# generated using pymatgen
data_Sr21Ga8Sn6Sb
_symmetry_space_group_name_H-M   'P 1'
_cell_length_a   12.05131845
_cell_length_b   12.05131906
_cell_length_c   12.05131893
_cell_angle_alpha   60.00000306
_cell_angle_beta   60.00000139
_cell_angle_gamma   59.99999947
_symmetry_Int_Tables_number   1
_chemical_formula_structural   Sr21Ga8Sn6Sb
_chemical_formula_sum   'Sr21 Ga8 Sn6 Sb1'
_cell_volume   1237.62405516
_cell_formula_units_Z   1
loop_
 _symmetry_equiv_pos_site_id
 _symmetry_equiv_pos_as_xyz
  1  'x, y, z'
loop_
 _atom_site_type_symbol
 _atom_site_label
 _atom_site_symmetry_multiplicity
 _atom_site_fract_x
 _atom_site_fract_y
 _atom_site_fract_z
 _atom_site_occupancy
  Sr  Sr0  1  0.86927479  0.86927479  0.39217462  1
  Sr  Sr1  1  0.60782538  0.13072521  0.13072521  1
  Sr  Sr2  1  0.86927479  0.39217462  0.86927479  1
  Sr  Sr3  1  0.13072521  0.13072521  0.13072521  1
  Sr  Sr4  1  0.39217462  0.86927479  0.86927479  1
  Sr  Sr5  1  0.86927479  0.86927479  0.86927479  1
  Sr  Sr6  1  0.17933383  0.82066617  0.50000000  1
  Sr  Sr7  1  0.82066617  0.50000000  0.50000000  1
  Sr  Sr8  1  0.13072521  0.13072521  0.60782538  1
  Sr  Sr9  1  0.82066617  0.17933383  0.50000000  1
  Sr  Sr10  1  0.17933383  0.50000000  0.50000000  1
  Sr  Sr11  1  0.13072521  0.60782538  0.13072521  1
  Sr  Sr12  1  0.50000000  0.50000000  0.17933383  1
  Sr  Sr13  1  0.50000000  0.17933383  0.82066617  1
  Sr  Sr14  1  0.50000000  0.82066617  0.17933383  1
  Sr  Sr15  1  0.50000000  0.50000000  0.82066617  1
  Sr  Sr16  1  0.50000000  0.17933383  0.50000000  1
  Sr  Sr17  1  0.17933383  0.50000000  0.82066617  1
  Sr  Sr18  1  0.00000000  0.00000000  0.00000000  1
  Sr  Sr19  1  0.50000000  0.82066617  0.50000000  1
  Sr  Sr20  1  0.82066617  0.50000000  0.17933383  1
  Ga  Ga0  1  0.69386632  0.91840303  0.69386632  1
  Ga  Ga1  1  0.69386632  0.69386632  0.91840303  1
  Ga  Ga2  1  0.69386632  0.69386632  0.69386632  1
  Ga  Ga3  1  0.30613368  0.08159697  0.30613368  1
  Ga  Ga4  1  0.91840303  0.69386632  0.69386632  1
  Ga  Ga5  1  0.30613368  0.30613368  0.08159697  1
  Ga  Ga6  1  0.08159697  0.30613368  0.30613368  1
  Ga  Ga7  1  0.30613368  0.30613368  0.30613368  1
  Sn  Sn0  1  0.78666249  0.21333751  0.78666249  1
  Sn  Sn1  1  0.78666249  0.21333751  0.21333751  1
  Sn  Sn2  1  0.21333751  0.78666249  0.21333751  1
  Sn  Sn3  1  0.21333751  0.78666249  0.78666249  1
  Sn  Sn4  1  0.78666249  0.78666249  0.21333751  1
  Sn  Sn5  1  0.21333751  0.21333751  0.78666249  1
  Sb  Sb0  1  0.50000000  0.50000000  0.50000000  1
loop_
_geom_bond_atom_site_label_1
_geom_bond_atom_site_label_2
_geom_bond_distance
_geom_bond_site_symmetry_2
Ga0 Ga4 2.705963 1_555
Ga0 Ga2 2.705963 1_555
Ga0 Ga1 2.705964 1_555
Ga0 Sr5 3.354576 1_555
Ga0 Sr4 3.354607 1_555
Ga0 Sr0 3.354607 1_555
Ga0 Sr13 3.401490 1_565
Ga0 Sr9 3.401490 1_565
Ga0 Sr16 3.401504 1_565
Ga1 Ga2 2.705963 1_555
Ga1 Ga4 2.705963 1_555
Ga1 Sr5 3.354576 1_555
Ga1 Sr4 3.354607 1_555
Ga1 Sr2 3.354607 1_555
Ga1 Sr14 3.401490 1_556
Ga1 Sr20 3.401490 1_556
Ga1 Sr12 3.401504 1_556
Ga2 Ga4 2.705963 1_555
Ga2 Sr4 3.354593 1_555
Ga2 Sr2 3.354593 1_555
Ga2 Sr0 3.354593 1_555
Ga2 Sr19 3.401509 1_555
Ga2 Sr7 3.401509 1_555
Ga2 Sr15 3.401509 1_555
Ga3 Ga6 2.705963 1_555
Ga3 Ga7 2.705963 1_555
Ga3 Ga5 2.705964 1_555
Ga3 Sr3 3.354576 1_555
Ga3 Sr1 3.354607 1_555
Ga3 Sr8 3.354607 1_555
Ga3 Sr14 3.401490 1_545
Ga3 Sr6 3.401490 1_545
Ga3 Sr19 3.401504 1_545
Ga4 Sr5 3.354576 1_555
Ga4 Sr0 3.354607 1_555
Ga4 Sr2 3.354607 1_555
Ga4 Sr17 3.401490 1_655
Ga4 Sr6 3.401490 1_655
Ga4 Sr10 3.401504 1_655
Ga5 Ga7 2.705963 1_555
Ga5 Ga6 2.705963 1_555
Ga5 Sr3 3.354576 1_555
Ga5 Sr1 3.354607 1_555
Ga5 Sr11 3.354607 1_555
Ga5 Sr13 3.401490 1_554
Ga5 Sr17 3.401490 1_554
Ga5 Sr15 3.401504 1_554
Ga6 Ga7 2.705963 1_555
Ga6 Sr3 3.354576 1_555
Ga6 Sr8 3.354607 1_555
Ga6 Sr11 3.354607 1_555
Ga6 Sr20 3.401490 1_455
Ga6 Sr9 3.401490 1_455
Ga6 Sr7 3.401504 1_455
Ga7 Sr1 3.354593 1_555
Ga7 Sr11 3.354593 1_555
Ga7 Sr8 3.354593 1_555
Ga7 Sr16 3.401509 1_555
Ga7 Sr10 3.401509 1_555
Ga7 Sr12 3.401509 1_555
Sn0 Sr2 3.451086 1_555
Sn0 Sr8 3.451095 1_655
Sn0 Sr1 3.451095 1_556
Sn0 Sr5 3.451097 1_545
Sn0 Sr13 3.478880 1_555
Sn0 Sr15 3.478881 1_555
Sn0 Sr9 3.478881 1_555
Sn0 Sr7 3.478881 1_555
Sn0 Sr18 3.635941 1_656
Sn1 Sr1 3.451086 1_555
Sn1 Sr0 3.451095 1_545
Sn1 Sr2 3.451095 1_554
Sn1 Sr3 3.451097 1_655
Sn1 Sr12 3.478881 1_555
Sn1 Sr9 3.478881 1_555
Sn1 Sr16 3.478881 1_555
Sn1 Sr20 3.478881 1_555
Sn1 Sr18 3.635941 1_655
Sn2 Sr11 3.451086 1_555
Sn2 Sr0 3.451095 1_455
Sn2 Sr4 3.451095 1_554
Sn2 Sr3 3.451097 1_565
Sn2 Sr14 3.478880 1_555
Sn2 Sr12 3.478881 1_555
Sn2 Sr6 3.478881 1_555
Sn2 Sr10 3.478881 1_555
Sn2 Sr18 3.635941 1_565
Sn3 Sr4 3.451086 1_555
Sn3 Sr8 3.451095 1_565
Sn3 Sr11 3.451095 1_556
Sn3 Sr5 3.451097 1_455
Sn3 Sr15 3.478881 1_555
Sn3 Sr6 3.478881 1_555
Sn3 Sr19 3.478881 1_555
Sn3 Sr17 3.478881 1_555
Sn3 Sr18 3.635941 1_566
Sn4 Sr0 3.451086 1_555
Sn4 Sr11 3.451095 1_655
Sn4 Sr1 3.451095 1_565
Sn4 Sr5 3.451097 1_554
Sn4 Sr14 3.478880 1_555
Sn4 Sr19 3.478881 1_555
Sn4 Sr20 3.478881 1_555
Sn4 Sr7 3.478881 1_555
Sn4 Sr18 3.635941 1_665
Sn5 Sr8 3.451086 1_555
Sn5 Sr2 3.451095 1_455
Sn5 Sr4 3.451095 1_545
Sn5 Sr3 3.451097 1_556
Sn5 Sr13 3.478880 1_555
Sn5 Sr16 3.478881 1_555
Sn5 Sr17 3.478881 1_555
Sn5 Sr10 3.478881 1_555
Sn5 Sr18 3.635941 1_556
Sb0 Sr7 3.864450 1_555
Sb0 Sr10 3.864450 1_555
Sb0 Sr9 3.864450 1_555
Sb0 Sr6 3.864450 1_555
Sb0 Sr15 3.864450 1_555
Sb0 Sr12 3.864450 1_555
Sb0 Sr20 3.864450 1_555
Sb0 Sr17 3.864450 1_555
Sb0 Sr19 3.864450 1_555
Sb0 Sr16 3.864450 1_555
Sb0 Sr13 3.864451 1_555
Sb0 Sr14 3.864451 1_555
