# generated using pymatgen
data_LiMg(Nb2N3)2
_symmetry_space_group_name_H-M   'P 1'
_cell_length_a   5.25569646
_cell_length_b   5.25569650
_cell_length_c   10.40783001
_cell_angle_alpha   90.00000000
_cell_angle_beta   90.00000000
_cell_angle_gamma   119.99999979
_symmetry_Int_Tables_number   1
_chemical_formula_structural   LiMg(Nb2N3)2
_chemical_formula_sum   'Li2 Mg2 Nb8 N12'
_cell_volume   248.97249759
_cell_formula_units_Z   2
loop_
 _symmetry_equiv_pos_site_id
 _symmetry_equiv_pos_as_xyz
  1  'x, y, z'
loop_
 _atom_site_type_symbol
 _atom_site_label
 _atom_site_symmetry_multiplicity
 _atom_site_fract_x
 _atom_site_fract_y
 _atom_site_fract_z
 _atom_site_occupancy
  Li  Li0  1  0.33333300  0.66666700  0.00000000  1
  Li  Li1  1  0.33333300  0.66666700  0.50000000  1
  Mg  Mg0  1  0.66666700  0.33333300  0.50000000  1
  Mg  Mg1  1  0.66666700  0.33333300  0.00000000  1
  Nb  Nb0  1  0.00424353  0.34666799  0.25000000  1
  Nb  Nb1  1  0.65333201  0.99575647  0.75000000  1
  Nb  Nb2  1  0.34242346  0.34666799  0.75000000  1
  Nb  Nb3  1  0.00000000  0.00000000  0.50000000  1
  Nb  Nb4  1  0.00000000  0.00000000  0.00000000  1
  Nb  Nb5  1  0.65333201  0.65757654  0.25000000  1
  Nb  Nb6  1  0.34242346  0.99575647  0.25000000  1
  Nb  Nb7  1  0.00424353  0.65757654  0.75000000  1
  N  N0  1  0.67512241  0.67145658  0.62211176  1
  N  N1  1  0.67512241  0.67145658  0.87788824  1
  N  N2  1  0.32854342  0.32487759  0.12211176  1
  N  N3  1  0.32854342  0.32487759  0.37788824  1
  N  N4  1  0.32854342  0.00366482  0.87788824  1
  N  N5  1  0.32854342  0.00366482  0.62211176  1
  N  N6  1  0.99633518  0.67145658  0.37788824  1
  N  N7  1  0.99633518  0.67145658  0.12211176  1
  N  N8  1  0.67512241  0.00366482  0.12211176  1
  N  N9  1  0.67512241  0.00366482  0.37788824  1
  N  N10  1  0.99633518  0.32487759  0.87788824  1
  N  N11  1  0.99633518  0.32487759  0.62211176  1
loop_
_geom_bond_atom_site_label_1
_geom_bond_atom_site_label_2
_geom_bond_distance
_geom_bond_site_symmetry_2
Li0 N7 2.190309 1_455
Li0 N4 2.190309 1_564
Li0 N8 2.190313 1_565
Li0 N10 2.190313 1_454
Li0 N1 2.190318 1_554
Li0 N2 2.190318 1_555
Li1 N6 2.190309 1_455
Li1 N5 2.190309 1_565
Li1 N9 2.190313 1_565
Li1 N11 2.190313 1_455
Li1 N0 2.190318 1_555
Li1 N3 2.190318 1_555
Mg0 N3 2.167079 1_555
Mg0 N11 2.167079 1_555
Mg0 N5 2.167079 1_555
Mg0 N9 2.167079 1_555
Mg0 N0 2.167079 1_555
Mg0 N6 2.167079 1_555
Mg1 N2 2.167079 1_555
Mg1 N10 2.167079 1_554
Mg1 N4 2.167079 1_554
Mg1 N8 2.167079 1_555
Mg1 N1 2.167079 1_554
Mg1 N7 2.167079 1_555
N0 Nb3 2.136332 1_665
N0 Nb2 2.181324 1_555
N0 Nb1 2.210211 1_555
N0 Nb7 2.212520 1_655
N1 Nb4 2.136332 1_666
N1 Nb2 2.181324 1_555
N1 Nb1 2.210211 1_555
N1 Nb7 2.212520 1_655
N2 Nb4 2.136332 1_555
N2 Nb5 2.181324 1_555
N2 Nb0 2.210211 1_555
N2 Nb6 2.212520 1_545
N3 Nb3 2.136332 1_555
N3 Nb5 2.181324 1_555
N3 Nb0 2.210211 1_555
N3 Nb6 2.212520 1_545
N4 Nb4 2.136334 1_556
N4 Nb1 2.181320 1_545
N4 Nb7 2.210206 1_545
N4 Nb2 2.212528 1_555
N5 Nb3 2.136334 1_555
N5 Nb1 2.181320 1_545
N5 Nb7 2.210206 1_545
N5 Nb2 2.212528 1_555
N6 Nb3 2.136334 1_665
N6 Nb0 2.181320 1_655
N6 Nb6 2.210206 1_655
N6 Nb5 2.212528 1_555
N7 Nb4 2.136334 1_665
N7 Nb0 2.181320 1_655
N7 Nb6 2.210206 1_655
N7 Nb5 2.212528 1_555
N8 Nb4 2.136330 1_655
N8 Nb6 2.181328 1_545
N8 Nb5 2.210202 1_545
N8 Nb0 2.212524 1_655
N9 Nb3 2.136330 1_655
N9 Nb6 2.181328 1_545
N9 Nb5 2.210202 1_545
N9 Nb0 2.212524 1_655
N10 Nb4 2.136330 1_656
N10 Nb7 2.181328 1_655
N10 Nb2 2.210202 1_655
N10 Nb1 2.212524 1_545
N11 Nb3 2.136330 1_655
N11 Nb7 2.181328 1_655
N11 Nb2 2.210202 1_655
N11 Nb1 2.212524 1_545
