# generated using pymatgen
data_MgNb2SiRu4
_symmetry_space_group_name_H-M   'P 1'
_cell_length_a   4.38117780
_cell_length_b   6.16177609
_cell_length_c   13.09166811
_cell_angle_alpha   89.99998843
_cell_angle_beta   89.99852486
_cell_angle_gamma   89.99992292
_symmetry_Int_Tables_number   1
_chemical_formula_structural   MgNb2SiRu4
_chemical_formula_sum   'Mg3 Nb6 Si3 Ru12'
_cell_volume   353.42053319
_cell_formula_units_Z   3
loop_
 _symmetry_equiv_pos_site_id
 _symmetry_equiv_pos_as_xyz
  1  'x, y, z'
loop_
 _atom_site_type_symbol
 _atom_site_label
 _atom_site_symmetry_multiplicity
 _atom_site_fract_x
 _atom_site_fract_y
 _atom_site_fract_z
 _atom_site_occupancy
  Mg  Mg0  1  0.49996753  0.50000003  0.49889158  1
  Mg  Mg1  1  0.00011871  0.99999903  0.66693440  1
  Mg  Mg2  1  0.50020184  0.49999829  0.83410497  1
  Nb  Nb0  1  0.00000196  0.50000277  0.99997373  1
  Nb  Nb1  1  0.49992454  0.99999945  0.16666813  1
  Nb  Nb2  1  0.99994202  0.50000504  0.33334541  1
  Nb  Nb3  1  0.50000284  0.00000120  0.50098369  1
  Nb  Nb4  1  0.00005913  0.50000270  0.66664322  1
  Nb  Nb5  1  0.50002847  0.99999746  0.83245019  1
  Si  Si0  1  0.99998455  0.00000215  0.99925720  1
  Si  Si1  1  0.49992264  0.49999604  0.16666415  1
  Si  Si2  1  0.99991628  0.00000160  0.33408335  1
  Ru  Ru0  1  0.49998727  0.24865510  0.00688096  1
  Ru  Ru1  1  0.49998742  0.75134377  0.00688125  1
  Ru  Ru2  1  0.99992252  0.24805976  0.16666584  1
  Ru  Ru3  1  0.99992222  0.75194030  0.16666629  1
  Ru  Ru4  1  0.49994039  0.24863416  0.32642003  1
  Ru  Ru5  1  0.49994099  0.75136808  0.32642221  1
  Ru  Ru6  1  0.99998411  0.24606709  0.49245150  1
  Ru  Ru7  1  0.99998458  0.75393226  0.49245208  1
  Ru  Ru8  1  0.50006431  0.24916280  0.66666429  1
  Ru  Ru9  1  0.50006445  0.75083505  0.66666390  1
  Ru  Ru10  1  0.00006558  0.24612494  0.84091849  1
  Ru  Ru11  1  0.00006565  0.75387194  0.84091813  1
loop_
_geom_bond_atom_site_label_1
_geom_bond_atom_site_label_2
_geom_bond_distance
_geom_bond_site_symmetry_2
Mg0 Ru9 2.685723 1_555
Mg0 Ru8 2.685734 1_555
Mg0 Ru7 2.693263 1_455
Mg0 Ru6 2.693270 1_455
Mg0 Ru6 2.693382 1_555
Mg0 Ru7 2.693384 1_555
Mg0 Ru5 2.738097 1_555
Mg0 Ru4 2.738113 1_555
Mg1 Ru9 2.674839 1_555
Mg1 Ru8 2.674841 1_565
Mg1 Ru8 2.675228 1_465
Mg1 Ru9 2.675232 1_455
Mg1 Ru11 2.736439 1_555
Mg1 Ru10 2.736440 1_565
Mg1 Ru7 2.741670 1_455
Mg1 Ru6 2.741680 1_465
Mg2 Ru8 2.682175 1_555
Mg2 Ru9 2.682183 1_555
Mg2 Ru10 2.692785 1_655
Mg2 Ru11 2.692789 1_655
Mg2 Ru11 2.693753 1_555
Mg2 Ru10 2.693756 1_555
Mg2 Ru0 2.741321 1_556
Mg2 Ru1 2.741333 1_556
Nb0 Ru11 2.604414 1_555
Nb0 Ru10 2.604443 1_555
Nb0 Ru3 2.678107 1_456
Nb0 Ru2 2.678121 1_456
Nb0 Ru1 2.684230 1_556
Nb0 Ru0 2.684250 1_556
Nb0 Ru1 2.684327 1_456
Nb0 Ru0 2.684354 1_456
Nb1 Ru4 2.592519 1_565
Nb1 Ru5 2.592529 1_555
Nb1 Ru1 2.592965 1_555
Nb1 Ru0 2.592967 1_565
Nb1 Ru3 2.671122 1_555
Nb1 Ru2 2.671131 1_565
Nb1 Ru2 2.671142 1_465
Nb1 Ru3 2.671142 1_455
Nb2 Ru7 2.605164 1_555
Nb2 Ru6 2.605197 1_555
Nb2 Ru3 2.677955 1_555
Nb2 Ru2 2.677996 1_555
Nb2 Ru5 2.684360 1_655
Nb2 Ru5 2.684368 1_555
Nb2 Ru4 2.684383 1_655
Nb2 Ru4 2.684402 1_555
Nb3 Ru8 2.657404 1_555
Nb3 Ru9 2.657415 1_545
Nb3 Ru6 2.666396 1_555
Nb3 Ru7 2.666404 1_545
Nb3 Ru6 2.666532 1_455
Nb3 Ru7 2.666544 1_445
Nb3 Ru5 2.751307 1_545
Nb3 Ru4 2.751330 1_555
Nb4 Ru9 2.680926 1_455
Nb4 Ru8 2.680957 1_455
Nb4 Ru9 2.680967 1_555
Nb4 Ru8 2.680990 1_555
Nb4 Ru7 2.765613 1_455
Nb4 Ru6 2.765641 1_455
Nb4 Ru11 2.766308 1_555
Nb4 Ru10 2.766341 1_555
Nb5 Ru9 2.658536 1_555
Nb5 Ru8 2.658542 1_565
Nb5 Ru11 2.666503 1_555
Nb5 Ru10 2.666507 1_565
Nb5 Ru11 2.666772 1_655
Nb5 Ru10 2.666782 1_665
Nb5 Ru1 2.749959 1_556
Nb5 Ru0 2.749970 1_566
Ru0 Si1 2.602737 1_555
Ru0 Si0 2.675076 1_554
Ru0 Si0 2.675103 1_454
Ru1 Si1 2.602758 1_555
Ru1 Si0 2.675098 1_564
Ru1 Si0 2.675120 1_464
Ru2 Si0 2.672004 1_554
Ru2 Si2 2.672101 1_555
Ru2 Si1 2.684872 1_555
Ru2 Si1 2.684876 1_655
Ru3 Si0 2.672023 1_564
Ru3 Si2 2.672107 1_565
Ru3 Si1 2.684902 1_655
Ru3 Si1 2.684902 1_555
Ru4 Si1 2.602526 1_555
Ru4 Si2 2.674951 1_555
Ru4 Si2 2.675123 1_455
Ru5 Si1 2.602587 1_555
Ru5 Si2 2.674955 1_565
Ru5 Si2 2.675125 1_465
Ru6 Si2 2.568551 1_555
Ru7 Si2 2.568570 1_565
Ru10 Si0 2.568447 1_455
Ru11 Si0 2.568479 1_465
