# generated using pymatgen
data_ZrPCl9
_symmetry_space_group_name_H-M   'P 1'
_cell_length_a   7.05910775
_cell_length_b   9.29251650
_cell_length_c   9.67402637
_cell_angle_alpha   101.29919246
_cell_angle_beta   95.83519680
_cell_angle_gamma   95.38667023
_symmetry_Int_Tables_number   1
_chemical_formula_structural   ZrPCl9
_chemical_formula_sum   'Zr2 P2 Cl18'
_cell_volume   614.83527389
_cell_formula_units_Z   2
loop_
 _symmetry_equiv_pos_site_id
 _symmetry_equiv_pos_as_xyz
  1  'x, y, z'
loop_
 _atom_site_type_symbol
 _atom_site_label
 _atom_site_symmetry_multiplicity
 _atom_site_fract_x
 _atom_site_fract_y
 _atom_site_fract_z
 _atom_site_occupancy
  Zr  Zr0  1  0.61638720  0.63997931  0.68355532  1
  Zr  Zr1  1  0.38361280  0.36002069  0.31644468  1
  P  P0  1  0.04875907  0.19004330  0.77298511  1
  P  P1  1  0.95124093  0.80995670  0.22701489  1
  Cl  Cl0  1  0.36940891  0.57729141  0.20962523  1
  Cl  Cl1  1  0.63059109  0.42270859  0.79037477  1
  Cl  Cl2  1  0.41959784  0.16038463  0.44328534  1
  Cl  Cl3  1  0.58040216  0.83961537  0.55671466  1
  Cl  Cl4  1  0.05001577  0.27908417  0.23939081  1
  Cl  Cl5  1  0.94998423  0.72091583  0.76060919  1
  Cl  Cl6  1  0.51856749  0.22742280  0.11728108  1
  Cl  Cl7  1  0.48143251  0.77257720  0.88271892  1
  Cl  Cl8  1  0.28324215  0.51632588  0.55005362  1
  Cl  Cl9  1  0.71675785  0.48367412  0.44994638  1
  Cl  Cl10  1  0.84566690  0.61658372  0.11817104  1
  Cl  Cl11  1  0.15433310  0.38341628  0.88182896  1
  Cl  Cl12  1  0.94231881  0.20377788  0.58406777  1
  Cl  Cl13  1  0.05768119  0.79622212  0.41593223  1
  Cl  Cl14  1  0.25079602  0.06124424  0.75947079  1
  Cl  Cl15  1  0.74920398  0.93875576  0.24052921  1
  Cl  Cl16  1  0.84866022  0.10741965  0.86828728  1
  Cl  Cl17  1  0.15133978  0.89258035  0.13171272  1
loop_
_geom_bond_atom_site_label_1
_geom_bond_atom_site_label_2
_geom_bond_distance
_geom_bond_site_symmetry_2
Cl0 Zr1 2.447194 1_555
Cl1 Zr0 2.447194 1_555
Cl2 Zr1 2.434912 1_555
Cl3 Zr0 2.434912 1_555
Cl4 Zr1 2.399520 1_555
Cl5 Zr0 2.399520 1_555
Cl6 Zr1 2.408597 1_555
Cl7 Zr0 2.408597 1_555
Cl8 Zr0 2.610050 1_555
Cl8 Zr1 2.636572 1_555
Cl9 Zr1 2.610050 1_555
Cl9 Zr0 2.636572 1_555
Cl10 P1 1.934069 1_555
Cl11 P0 1.934069 1_555
Cl12 P0 1.936783 1_655
Cl13 P1 1.936783 1_455
Cl14 P0 1.944407 1_555
Cl15 P1 1.944407 1_555
Cl16 P0 1.942490 1_655
Cl17 P1 1.942490 1_455
