# generated using pymatgen
data_Rb4BiSbCl12
_symmetry_space_group_name_H-M   'P 1'
_cell_length_a   12.66206831
_cell_length_b   12.66206827
_cell_length_c   12.66206773
_cell_angle_alpha   131.84209238
_cell_angle_beta   131.84209302
_cell_angle_gamma   70.47853986
_symmetry_Int_Tables_number   1
_chemical_formula_structural   Rb4BiSbCl12
_chemical_formula_sum   'Rb8 Bi2 Sb2 Cl24'
_cell_volume   1104.00950995
_cell_formula_units_Z   2
loop_
 _symmetry_equiv_pos_site_id
 _symmetry_equiv_pos_as_xyz
  1  'x, y, z'
loop_
 _atom_site_type_symbol
 _atom_site_label
 _atom_site_symmetry_multiplicity
 _atom_site_fract_x
 _atom_site_fract_y
 _atom_site_fract_z
 _atom_site_occupancy
  Rb  Rb0  1  0.37500000  0.84537542  0.97037542  1
  Rb  Rb1  1  0.59537542  0.62500000  0.47037542  1
  Rb  Rb2  1  0.87500000  0.84537542  0.47037542  1
  Rb  Rb3  1  0.59537542  0.12500000  0.97037542  1
  Rb  Rb4  1  0.87500000  0.40462458  0.02962458  1
  Rb  Rb5  1  0.15462458  0.12500000  0.52962458  1
  Rb  Rb6  1  0.37500000  0.40462458  0.52962458  1
  Rb  Rb7  1  0.15462458  0.62500000  0.02962458  1
  Bi  Bi0  1  0.50000000  0.50000000  0.00000000  1
  Bi  Bi1  1  0.25000000  0.75000000  0.50000000  1
  Sb  Sb0  1  0.00000000  0.00000000  0.00000000  1
  Sb  Sb1  1  0.75000000  0.25000000  0.50000000  1
  Cl  Cl0  1  0.75523170  0.49427189  0.26095981  1
  Cl  Cl1  1  0.50572811  0.24476830  0.73904019  1
  Cl  Cl2  1  0.36965217  0.36965217  1.00000000  1
  Cl  Cl3  1  0.11965217  0.61965217  0.50000000  1
  Cl  Cl4  1  0.38034783  0.88034783  0.50000000  1
  Cl  Cl5  1  0.63034783  0.63034783  0.00000000  1
  Cl  Cl6  1  0.11567690  0.11567690  0.00000000  1
  Cl  Cl7  1  0.86567690  0.36567690  0.50000000  1
  Cl  Cl8  1  0.63432310  0.13432310  0.50000000  1
  Cl  Cl9  1  0.88432310  0.88432310  1.00000000  1
  Cl  Cl10  1  0.23250632  0.00050241  0.23200391  1
  Cl  Cl11  1  0.75050241  0.01849850  0.26799609  1
  Cl  Cl12  1  0.50572811  0.76668692  0.26095981  1
  Cl  Cl13  1  0.51749368  0.24949759  0.26799609  1
  Cl  Cl14  1  0.98150150  0.24949759  0.73200391  1
  Cl  Cl15  1  0.99949759  0.23150150  0.23200391  1
  Cl  Cl16  1  0.99949759  0.76749368  0.76799609  1
  Cl  Cl17  1  0.76849850  0.00050241  0.76799609  1
  Cl  Cl18  1  0.75050241  0.48250632  0.73200391  1
  Cl  Cl19  1  0.24427189  0.48331308  0.23904019  1
  Cl  Cl20  1  0.24427189  0.00523170  0.76095981  1
  Cl  Cl21  1  0.99476830  0.75572811  0.23904019  1
  Cl  Cl22  1  0.51668692  0.75572811  0.76095981  1
  Cl  Cl23  1  0.23331308  0.49427189  0.73904019  1
loop_
_geom_bond_atom_site_label_1
_geom_bond_atom_site_label_2
_geom_bond_distance
_geom_bond_site_symmetry_2
Bi0 Cl5 2.696047 1_555
Bi0 Cl2 2.696047 1_554
Bi0 Cl23 2.698865 1_554
Bi0 Cl12 2.698865 1_555
Bi0 Cl0 2.698871 1_555
Bi0 Cl1 2.698871 1_554
Bi1 Cl4 2.696047 1_555
Bi1 Cl3 2.696047 1_555
Bi1 Cl22 2.698865 1_555
Bi1 Cl19 2.698865 1_555
Bi1 Cl21 2.698871 1_455
Bi1 Cl20 2.698871 1_565
Cl0 Rb4 3.536728 1_555
Cl0 Rb2 3.536728 1_555
Cl0 Rb1 3.596354 1_555
Cl0 Rb3 3.596354 1_554
Cl1 Rb3 3.536728 1_555
Cl1 Rb5 3.536728 1_555
Cl1 Rb6 3.596354 1_555
Cl1 Rb4 3.596354 1_556
Cl2 Rb5 3.445108 1_555
Cl2 Rb1 3.445108 1_556
Cl2 Rb7 3.445108 1_556
Cl2 Rb3 3.445108 1_555
Cl3 Rb4 3.445108 1_455
Cl3 Rb0 3.445108 1_555
Cl3 Rb2 3.445108 1_455
Cl3 Rb6 3.445108 1_555
Cl4 Rb3 3.445108 1_565
Cl4 Rb7 3.445108 1_555
Cl4 Rb1 3.445108 1_555
Cl4 Rb5 3.445108 1_565
Cl5 Rb2 3.445108 1_555
Cl5 Rb6 3.445108 1_554
Cl5 Rb4 3.445108 1_555
Cl5 Rb0 3.445108 1_554
Cl6 Sb0 2.392601 1_555
Cl6 Rb2 3.880235 1_444
Cl6 Rb6 3.880235 1_555
Cl6 Rb4 3.880235 1_455
Cl6 Rb0 3.880235 1_544
Cl7 Sb1 2.392601 1_555
Cl7 Rb3 3.880235 1_554
Cl7 Rb7 3.880235 1_656
Cl7 Rb1 3.880235 1_555
Cl7 Rb5 3.880235 1_655
Cl8 Sb1 2.392601 1_555
Cl8 Rb4 3.880235 1_556
Cl8 Rb0 3.880235 1_544
Cl8 Rb2 3.880235 1_545
Cl8 Rb6 3.880235 1_555
Cl9 Sb0 2.392601 1_666
Cl9 Rb5 3.880235 1_666
Cl9 Rb1 3.880235 1_555
Cl9 Rb7 3.880235 1_656
Cl9 Rb3 3.880235 1_565
Cl10 Sb0 2.397116 1_555
Cl10 Rb5 3.694922 1_555
Cl10 Rb7 3.694922 1_545
Cl10 Rb0 3.874585 1_544
Cl10 Rb6 3.874585 1_555
Cl11 Sb1 2.397116 1_555
Cl11 Rb2 3.694922 1_545
Cl11 Rb0 3.694922 1_544
Cl11 Rb3 3.874585 1_554
Cl11 Rb5 3.874585 1_655
Cl12 Rb1 3.536717 1_555
Cl12 Rb7 3.536724 1_555
Cl12 Rb2 3.596357 1_555
Cl12 Rb0 3.596364 1_554
Cl13 Sb1 2.397116 1_555
Cl13 Rb3 3.694922 1_554
Cl13 Rb1 3.694922 1_555
Cl13 Rb6 3.874585 1_555
Cl13 Rb0 3.874585 1_544
Cl14 Sb1 2.397116 1_555
Cl14 Rb5 3.694922 1_655
Cl14 Rb7 3.694922 1_656
Cl14 Rb4 3.874585 1_556
Cl14 Rb2 3.874585 1_545
Cl15 Sb0 2.397116 1_655
Cl15 Rb4 3.694922 1_555
Cl15 Rb6 3.694922 1_655
Cl15 Rb5 3.874585 1_655
Cl15 Rb3 3.874585 1_554
Cl16 Sb0 2.397116 1_666
Cl16 Rb2 3.694922 1_555
Cl16 Rb0 3.694922 1_655
Cl16 Rb7 3.874585 1_656
Cl16 Rb1 3.874585 1_555
Cl17 Sb0 2.397116 1_656
Cl17 Rb3 3.694922 1_555
Cl17 Rb1 3.694922 1_545
Cl17 Rb2 3.874585 1_545
Cl17 Rb4 3.874585 1_556
Cl18 Sb1 2.397116 1_555
Cl18 Rb4 3.694922 1_556
Cl18 Rb6 3.694922 1_555
Cl18 Rb1 3.874585 1_555
Cl18 Rb7 3.874585 1_656
Cl19 Rb7 3.536717 1_555
Cl19 Rb1 3.536724 1_555
Cl19 Rb4 3.596357 1_455
Cl19 Rb6 3.596364 1_555
Cl20 Rb5 3.536728 1_555
Cl20 Rb3 3.536728 1_555
Cl20 Rb0 3.596354 1_545
Cl20 Rb2 3.596354 1_445
Cl21 Rb2 3.536728 1_555
Cl21 Rb4 3.536728 1_555
Cl21 Rb7 3.596354 1_655
Cl21 Rb5 3.596354 1_665
Cl22 Rb0 3.536717 1_555
Cl22 Rb6 3.536724 1_555
Cl22 Rb3 3.596357 1_565
Cl22 Rb1 3.596364 1_555
Cl23 Rb6 3.536717 1_555
Cl23 Rb0 3.536724 1_555
Cl23 Rb5 3.596357 1_555
Cl23 Rb7 3.596364 1_556
