# generated using pymatgen
data_Ba3Al2Cl2O5
_symmetry_space_group_name_H-M   'P 1'
_cell_length_a   8.47220791
_cell_length_b   8.47221670
_cell_length_c   8.47219484
_cell_angle_alpha   109.46906531
_cell_angle_beta   109.47129953
_cell_angle_gamma   109.47309771
_symmetry_Int_Tables_number   1
_chemical_formula_structural   Ba3Al2Cl2O5
_chemical_formula_sum   'Ba6 Al4 Cl4 O10'
_cell_volume   468.13247795
_cell_formula_units_Z   2
loop_
 _symmetry_equiv_pos_site_id
 _symmetry_equiv_pos_as_xyz
  1  'x, y, z'
loop_
 _atom_site_type_symbol
 _atom_site_label
 _atom_site_symmetry_multiplicity
 _atom_site_fract_x
 _atom_site_fract_y
 _atom_site_fract_z
 _atom_site_occupancy
  Ba  Ba0  1  0.65561980  0.40562158  0.24999610  1
  Ba  Ba1  1  0.24999821  0.65560880  0.40561075  1
  Ba  Ba2  1  0.84437450  0.09437804  0.74999822  1
  Ba  Ba3  1  0.40560971  0.24999954  0.65560971  1
  Ba  Ba4  1  0.09438658  0.74999892  0.84438674  1
  Ba  Ba5  1  0.75000176  0.84439006  0.09438901  1
  Al  Al0  1  0.49999533  0.99999441  0.30959771  1
  Al  Al1  1  0.30960288  0.50000645  0.99999985  1
  Al  Al2  1  0.00000622  0.30960213  0.50000008  1
  Al  Al3  1  0.19039677  0.19039809  0.19040528  1
  Cl  Cl0  1  0.00000920  0.88380211  0.49999860  1
  Cl  Cl1  1  0.61619470  0.61619791  0.61620714  1
  Cl  Cl2  1  0.88380579  0.50001351  0.00000381  1
  Cl  Cl3  1  0.49998947  0.99998589  0.88379243  1
  O  O0  1  0.98640894  0.98641234  0.98639955  1
  O  O1  1  0.99998600  0.51358746  0.49999515  1
  O  O2  1  0.51359373  0.50000120  0.00000562  1
  O  O3  1  0.50000403  0.99999817  0.51359266  1
  O  O4  1  0.12269317  0.37268823  0.75000357  1
  O  O5  1  0.75000649  0.12267237  0.37267264  1
  O  O6  1  0.12732021  0.25000316  0.37731461  1
  O  O7  1  0.24999962  0.37732712  0.12733439  1
  O  O8  1  0.37731687  0.12731295  0.25000765  1
  O  O9  1  0.37267799  0.74999755  0.12267774  1
loop_
_geom_bond_atom_site_label_1
_geom_bond_atom_site_label_2
_geom_bond_distance
_geom_bond_site_symmetry_2
Ba0 O2 2.577676 1_555
Ba0 O1 2.577677 1_555
Ba0 O8 2.722622 1_555
Ba0 O7 3.138599 1_555
Ba0 O5 3.138651 1_555
Ba0 Cl3 3.212313 1_544
Ba0 Cl1 3.212326 1_555
Ba0 Cl2 3.419182 1_555
Ba0 Cl0 3.419216 1_655
Ba1 O3 2.577775 1_555
Ba1 O1 2.577807 1_455
Ba1 O7 2.722444 1_555
Ba1 O6 3.138451 1_555
Ba1 O9 3.138516 1_555
Ba1 Cl2 3.212129 1_455
Ba1 Cl1 3.212134 1_555
Ba1 Cl0 3.419279 1_555
Ba1 Cl3 3.419280 1_555
Ba2 O0 2.577680 1_545
Ba2 O3 2.577682 1_545
Ba2 O4 2.722624 1_655
Ba2 O5 3.138591 1_555
Ba2 O7 3.138656 1_656
Ba2 Cl2 3.212314 1_556
Ba2 Cl0 3.212316 1_645
Ba2 Cl3 3.419191 1_545
Ba2 Cl1 3.419212 1_545
Ba3 O3 2.577889 1_545
Ba3 O2 2.577892 1_556
Ba3 O6 2.722508 1_555
Ba3 O8 3.138484 1_555
Ba3 O4 3.138504 1_555
Ba3 Cl1 3.212016 1_555
Ba3 Cl0 3.212020 1_545
Ba3 Cl3 3.419302 1_545
Ba3 Cl2 3.419310 1_556
Ba4 O1 2.577845 1_455
Ba4 O0 2.577846 1_455
Ba4 O9 2.722487 1_556
Ba4 O4 3.138567 1_555
Ba4 O8 3.138599 1_566
Ba4 Cl2 3.212009 1_456
Ba4 Cl3 3.212016 1_555
Ba4 Cl0 3.419260 1_555
Ba4 Cl1 3.419276 1_455
Ba5 O2 2.577773 1_555
Ba5 O0 2.577809 1_554
Ba5 O5 2.722453 1_565
Ba5 O6 3.138518 1_665
Ba5 O9 3.138525 1_555
Ba5 Cl3 3.212130 1_554
Ba5 Cl0 3.212143 1_655
Ba5 Cl2 3.419269 1_555
Ba5 Cl1 3.419271 1_554
Al0 O3 1.728250 1_555
Al0 O8 1.805368 1_565
Al0 O9 1.805413 1_555
Al0 O5 1.805470 1_565
Al1 O2 1.728251 1_556
Al1 O4 1.805368 1_555
Al1 O9 1.805372 1_556
Al1 O7 1.805484 1_556
Al2 O1 1.728279 1_455
Al2 O5 1.805395 1_455
Al2 O6 1.805406 1_555
Al2 O4 1.805427 1_555
Al3 O0 1.728277 1_444
Al3 O6 1.805326 1_555
Al3 O7 1.805390 1_555
Al3 O8 1.805444 1_555
