# generated using pymatgen
data_Rb4PbSe4
_symmetry_space_group_name_H-M   'P 1'
_cell_length_a   8.77242567
_cell_length_b   10.73081764
_cell_length_c   15.13608017
_cell_angle_alpha   90.00000000
_cell_angle_beta   90.00000000
_cell_angle_gamma   90.00000000
_symmetry_Int_Tables_number   1
_chemical_formula_structural   Rb4PbSe4
_chemical_formula_sum   'Rb16 Pb4 Se16'
_cell_volume   1424.83945000
_cell_formula_units_Z   4
loop_
 _symmetry_equiv_pos_site_id
 _symmetry_equiv_pos_as_xyz
  1  'x, y, z'
loop_
 _atom_site_type_symbol
 _atom_site_label
 _atom_site_symmetry_multiplicity
 _atom_site_fract_x
 _atom_site_fract_y
 _atom_site_fract_z
 _atom_site_occupancy
  Rb  Rb0  1  0.00000000  0.00000000  0.00000000  1
  Rb  Rb1  1  0.50000000  0.00000000  0.50000000  1
  Rb  Rb2  1  0.00000000  0.50000000  0.00000000  1
  Rb  Rb3  1  0.50000000  0.50000000  0.50000000  1
  Rb  Rb4  1  0.98728802  0.75000000  0.41616678  1
  Rb  Rb5  1  0.48728802  0.25000000  0.08383322  1
  Rb  Rb6  1  0.01271198  0.25000000  0.58383322  1
  Rb  Rb7  1  0.51271198  0.75000000  0.91616678  1
  Rb  Rb8  1  0.83335349  0.04742421  0.27541522  1
  Rb  Rb9  1  0.33335349  0.95257579  0.22458478  1
  Rb  Rb10  1  0.16664651  0.54742421  0.72458478  1
  Rb  Rb11  1  0.66664651  0.45257579  0.77541522  1
  Rb  Rb12  1  0.16664651  0.95257579  0.72458478  1
  Rb  Rb13  1  0.66664651  0.04742421  0.77541522  1
  Rb  Rb14  1  0.83335349  0.45257579  0.27541522  1
  Rb  Rb15  1  0.33335349  0.54742421  0.22458478  1
  Pb  Pb0  1  0.76995936  0.75000000  0.66321848  1
  Pb  Pb1  1  0.23004064  0.25000000  0.33678152  1
  Pb  Pb2  1  0.73004064  0.75000000  0.16321848  1
  Pb  Pb3  1  0.26995936  0.25000000  0.83678152  1
  Se  Se0  1  0.96729273  0.25000000  0.82534399  1
  Se  Se1  1  0.53270727  0.25000000  0.32534399  1
  Se  Se2  1  0.46729273  0.75000000  0.67465601  1
  Se  Se3  1  0.03270727  0.75000000  0.17465601  1
  Se  Se4  1  0.63809224  0.55011305  0.08026348  1
  Se  Se5  1  0.13809224  0.44988695  0.41973652  1
  Se  Se6  1  0.36190776  0.05011305  0.91973652  1
  Se  Se7  1  0.86190776  0.94988695  0.58026348  1
  Se  Se8  1  0.36190776  0.44988695  0.91973652  1
  Se  Se9  1  0.86190776  0.55011305  0.58026348  1
  Se  Se10  1  0.63809224  0.94988695  0.08026348  1
  Se  Se11  1  0.13809224  0.05011305  0.41973652  1
  Se  Se12  1  0.61309153  0.75000000  0.32599991  1
  Se  Se13  1  0.11309153  0.25000000  0.17400009  1
  Se  Se14  1  0.38690847  0.25000000  0.67400009  1
  Se  Se15  1  0.88690847  0.75000000  0.82599991  1
loop_
_geom_bond_atom_site_label_1
_geom_bond_atom_site_label_2
_geom_bond_distance
_geom_bond_site_symmetry_2
Rb0 Se6 3.441586 1_554
Rb0 Se10 3.441586 1_445
Rb0 Se3 3.777286 1_545
Rb0 Se0 3.777286 1_454
Rb0 Se13 3.888111 1_555
Rb0 Se15 3.888111 1_444
Rb1 Se7 3.441586 1_545
Rb1 Se11 3.441586 1_555
Rb1 Se2 3.777286 1_545
Rb1 Se1 3.777286 1_555
Rb1 Se14 3.888111 1_555
Rb1 Se12 3.888111 1_545
Rb2 Se8 3.441586 1_554
Rb2 Se4 3.441586 1_455
Rb2 Se3 3.777286 1_555
Rb2 Se0 3.777286 1_454
Rb2 Se13 3.888111 1_555
Rb2 Se15 3.888111 1_454
Rb3 Se9 3.441586 1_555
Rb3 Se5 3.441586 1_555
Rb3 Se2 3.777286 1_555
Rb3 Se1 3.777286 1_555
Rb3 Se14 3.888111 1_555
Rb3 Se12 3.888111 1_555
Rb4 Se7 3.461175 1_555
Rb4 Se9 3.461175 1_555
Rb4 Se11 3.482009 1_665
Rb4 Se5 3.482009 1_655
Rb4 Se12 3.555016 1_555
Rb4 Se3 3.677176 1_655
Rb5 Se8 3.461175 1_554
Rb5 Se6 3.461175 1_554
Rb5 Se4 3.482009 1_555
Rb5 Se10 3.482009 1_545
Rb5 Se13 3.555016 1_555
Rb5 Se1 3.677176 1_555
Rb6 Se5 3.461175 1_555
Rb6 Se11 3.461175 1_555
Rb6 Se9 3.482009 1_455
Rb6 Se7 3.482009 1_445
Rb6 Se14 3.555016 1_555
Rb6 Se0 3.677176 1_455
Rb7 Se10 3.461175 1_556
Rb7 Se4 3.461175 1_556
Rb7 Se6 3.482009 1_565
Rb7 Se8 3.482009 1_555
Rb7 Se15 3.555016 1_555
Rb7 Se2 3.677176 1_555
Rb8 Se11 3.452422 1_655
Rb8 Se1 3.500344 1_555
Rb8 Se10 3.571371 1_545
Rb8 Se13 3.619911 1_655
Rb8 Se12 3.808686 1_545
Rb8 Se3 3.945964 1_645
Rb9 Se10 3.452422 1_555
Rb9 Se3 3.500344 1_555
Rb9 Se11 3.571371 1_565
Rb9 Se12 3.619911 1_555
Rb9 Se13 3.808686 1_565
Rb9 Se1 3.945964 1_565
Rb10 Se9 3.452422 1_455
Rb10 Se2 3.500344 1_555
Rb10 Se8 3.571371 1_555
Rb10 Se15 3.619911 1_455
Rb10 Se14 3.808686 1_555
Rb10 Se0 3.945964 1_455
Rb11 Se8 3.452422 1_555
Rb11 Se0 3.500344 1_555
Rb11 Se9 3.571371 1_555
Rb11 Se14 3.619911 1_555
Rb11 Se15 3.808686 1_555
Rb11 Se2 3.945964 1_555
Rb12 Se7 3.452422 1_455
Rb12 Se2 3.500344 1_555
Rb12 Se6 3.571371 1_565
Rb12 Se15 3.619911 1_455
Rb12 Se14 3.808686 1_565
Rb12 Se0 3.945964 1_465
Rb13 Se6 3.452422 1_555
Rb13 Se0 3.500344 1_555
Rb13 Se7 3.571371 1_545
Rb13 Se14 3.619911 1_555
Rb13 Se15 3.808686 1_545
Rb13 Se2 3.945964 1_545
Rb14 Se5 3.452422 1_655
Rb14 Se1 3.500344 1_555
Rb14 Se4 3.571371 1_555
Rb14 Se13 3.619911 1_655
Rb14 Se12 3.808686 1_555
Rb14 Se3 3.945964 1_655
Rb15 Se4 3.452422 1_555
Rb15 Se3 3.500344 1_555
Rb15 Se5 3.571371 1_555
Rb15 Se12 3.619911 1_555
Rb15 Se13 3.808686 1_555
Rb15 Se1 3.945964 1_555
Pb0 Se7 2.613044 1_555
Pb0 Se9 2.613044 1_555
Pb0 Se2 2.660758 1_555
Pb0 Se15 2.668932 1_555
Pb0 Rb11 3.727154 1_555
Pb0 Rb13 3.727154 1_565
Pb1 Se5 2.613044 1_555
Pb1 Se11 2.613044 1_555
Pb1 Se1 2.660758 1_555
Pb1 Se13 2.668932 1_555
Pb1 Rb9 3.727154 1_545
Pb1 Rb15 3.727154 1_555
Pb2 Se10 2.613044 1_555
Pb2 Se4 2.613044 1_555
Pb2 Se3 2.660758 1_655
Pb2 Se12 2.668932 1_555
Pb2 Rb14 3.727154 1_555
Pb2 Rb8 3.727154 1_565
Pb3 Se8 2.613044 1_555
Pb3 Se6 2.613044 1_555
Pb3 Se0 2.660758 1_455
Pb3 Se14 2.668932 1_555
Pb3 Rb12 3.727154 1_545
Pb3 Rb10 3.727154 1_555
