# generated using pymatgen
data_Ta3Sn
_symmetry_space_group_name_H-M   'P 1'
_cell_length_a   5.29897901
_cell_length_b   5.29897901
_cell_length_c   5.29897901
_cell_angle_alpha   90.00000000
_cell_angle_beta   90.00000000
_cell_angle_gamma   90.00000000
_symmetry_Int_Tables_number   1
_chemical_formula_structural   Ta3Sn
_chemical_formula_sum   'Ta6 Sn2'
_cell_volume   148.79097775
_cell_formula_units_Z   2
loop_
 _symmetry_equiv_pos_site_id
 _symmetry_equiv_pos_as_xyz
  1  'x, y, z'
loop_
 _atom_site_type_symbol
 _atom_site_label
 _atom_site_symmetry_multiplicity
 _atom_site_fract_x
 _atom_site_fract_y
 _atom_site_fract_z
 _atom_site_occupancy
  Ta  Ta0  1  0.25000000  0.00000000  0.50000000  1
  Ta  Ta1  1  0.75000000  0.00000000  0.50000000  1
  Ta  Ta2  1  0.00000000  0.50000000  0.25000000  1
  Ta  Ta3  1  0.00000000  0.50000000  0.75000000  1
  Ta  Ta4  1  0.50000000  0.75000000  0.00000000  1
  Ta  Ta5  1  0.50000000  0.25000000  0.00000000  1
  Sn  Sn0  1  0.00000000  0.00000000  0.00000000  1
  Sn  Sn1  1  0.50000000  0.50000000  0.50000000  1
loop_
_geom_bond_atom_site_label_1
_geom_bond_atom_site_label_2
_geom_bond_distance
_geom_bond_site_symmetry_2
Ta0 Ta1 2.649490 1_455
Ta0 Ta1 2.649490 1_555
Ta2 Ta3 2.649490 1_555
Ta2 Ta3 2.649490 1_554
Ta4 Ta5 2.649490 1_555
Ta4 Ta5 2.649490 1_565
Sn0 Ta3 2.962219 1_554
Sn0 Ta2 2.962219 1_545
Sn0 Ta5 2.962219 1_555
Sn0 Ta0 2.962219 1_555
Sn0 Ta0 2.962219 1_554
Sn0 Ta4 2.962219 1_445
Sn0 Ta1 2.962219 1_455
Sn0 Ta1 2.962219 1_454
Sn0 Ta3 2.962219 1_544
Sn0 Ta4 2.962219 1_545
Sn0 Ta5 2.962219 1_455
Sn0 Ta2 2.962219 1_555
Sn1 Ta1 2.962219 1_565
Sn1 Ta3 2.962219 1_555
Sn1 Ta0 2.962219 1_555
Sn1 Ta2 2.962219 1_655
Sn1 Ta4 2.962219 1_555
Sn1 Ta1 2.962219 1_555
Sn1 Ta4 2.962219 1_556
Sn1 Ta3 2.962219 1_655
Sn1 Ta5 2.962219 1_555
Sn1 Ta2 2.962219 1_555
Sn1 Ta5 2.962219 1_556
Sn1 Ta0 2.962219 1_565
