# generated using pymatgen
data_Be2Te7Cl6
_symmetry_space_group_name_H-M   'P 1'
_cell_length_a   5.46220766
_cell_length_b   10.02798778
_cell_length_c   16.74100031
_cell_angle_alpha   90.00000000
_cell_angle_beta   90.00000000
_cell_angle_gamma   90.00000000
_symmetry_Int_Tables_number   1
_chemical_formula_structural   Be2Te7Cl6
_chemical_formula_sum   'Be4 Te14 Cl12'
_cell_volume   916.98748283
_cell_formula_units_Z   2
loop_
 _symmetry_equiv_pos_site_id
 _symmetry_equiv_pos_as_xyz
  1  'x, y, z'
loop_
 _atom_site_type_symbol
 _atom_site_label
 _atom_site_symmetry_multiplicity
 _atom_site_fract_x
 _atom_site_fract_y
 _atom_site_fract_z
 _atom_site_occupancy
  Be  Be0  1  0.00000000  0.50000000  0.41914309  1
  Be  Be1  1  0.50000000  -0.00000000  0.08085691  1
  Be  Be2  1  0.00000000  0.50000000  0.58085691  1
  Be  Be3  1  0.50000000  -0.00000000  0.91914309  1
  Te  Te0  1  0.50000000  0.50000000  0.76128822  1
  Te  Te1  1  0.00000000  -0.00000000  0.73871178  1
  Te  Te2  1  0.50000000  0.50000000  0.23871178  1
  Te  Te3  1  0.00000000  -0.00000000  0.26128822  1
  Te  Te4  1  0.33037555  0.89254824  0.62893197  1
  Te  Te5  1  0.83037555  0.60745176  0.87106803  1
  Te  Te6  1  0.16962445  0.39254824  0.87106803  1
  Te  Te7  1  0.66962445  0.10745176  0.62893197  1
  Te  Te8  1  0.66962445  0.10745176  0.37106803  1
  Te  Te9  1  0.16962445  0.39254824  0.12893197  1
  Te  Te10  1  0.83037555  0.60745176  0.12893197  1
  Te  Te11  1  0.33037555  0.89254824  0.37106803  1
  Te  Te12  1  0.50000000  0.50000000  0.00000000  1
  Te  Te13  1  0.00000000  -0.00000000  0.50000000  1
  Cl  Cl0  1  0.35296210  0.85467732  0.14585011  1
  Cl  Cl1  1  0.85296210  0.64532268  0.35414989  1
  Cl  Cl2  1  0.14703790  0.35467732  0.35414989  1
  Cl  Cl3  1  0.64703790  0.14532268  0.14585011  1
  Cl  Cl4  1  0.64703790  0.14532268  0.85414989  1
  Cl  Cl5  1  0.14703790  0.35467732  0.64585011  1
  Cl  Cl6  1  0.85296210  0.64532268  0.64585011  1
  Cl  Cl7  1  0.35296210  0.85467732  0.85414989  1
  Cl  Cl8  1  0.26160861  0.08580197  0.00000000  1
  Cl  Cl9  1  0.76160861  0.41419803  0.50000000  1
  Cl  Cl10  1  0.73839139  0.91419803  0.00000000  1
  Cl  Cl11  1  0.23839139  0.58580197  0.50000000  1
loop_
_geom_bond_atom_site_label_1
_geom_bond_atom_site_label_2
_geom_bond_distance
_geom_bond_site_symmetry_2
Be0 Cl2 1.988118 1_555
Be0 Cl1 1.988118 1_455
Be0 Cl11 2.065963 1_555
Be0 Cl9 2.065963 1_455
Be1 Cl3 1.988118 1_555
Be1 Cl0 1.988118 1_545
Be1 Cl10 2.065963 1_545
Be1 Cl8 2.065963 1_555
Be2 Cl5 1.988118 1_555
Be2 Cl6 1.988118 1_455
Be2 Cl11 2.065963 1_555
Be2 Cl9 2.065963 1_455
Be3 Cl4 1.988118 1_555
Be3 Cl7 1.988118 1_545
Be3 Cl8 2.065963 1_556
Be3 Cl10 2.065963 1_546
Te0 Te5 2.791982 1_555
Te0 Te6 2.791982 1_555
Te1 Te7 2.791982 1_455
Te1 Te4 2.791982 1_545
Te2 Te9 2.791982 1_555
Te3 Te8 2.791982 1_455
Te4 Te7 2.842187 1_565
Te5 Te6 2.842187 1_655
Te10 Te2 2.791982 1_555
Te10 Te9 2.842187 1_655
Te10 Te12 3.012719 1_555
Te11 Te3 2.791982 1_565
Te11 Te8 2.842187 1_565
Te11 Te13 3.012719 1_565
Te12 Te6 3.012719 1_554
Te12 Te9 3.012719 1_555
Te12 Te5 3.012719 1_554
Te13 Te7 3.012719 1_455
Te13 Te8 3.012719 1_455
Te13 Te4 3.012719 1_545
Cl0 Te3 3.094423 1_565
Cl1 Te2 3.094423 1_555
Cl2 Te2 3.094423 1_555
Cl3 Te3 3.094423 1_655
Cl4 Te1 3.094423 1_655
Cl5 Te0 3.094423 1_555
Cl6 Te0 3.094423 1_555
Cl7 Te1 3.094423 1_565
