# generated using pymatgen
data_Th2Fe7
_symmetry_space_group_name_H-M   'P 1'
_cell_length_a   5.12279559
_cell_length_b   5.12279559
_cell_length_c   24.77002900
_cell_angle_alpha   90.00000000
_cell_angle_beta   90.00000000
_cell_angle_gamma   119.99999469
_symmetry_Int_Tables_number   1
_chemical_formula_structural   Th2Fe7
_chemical_formula_sum   'Th8 Fe28'
_cell_volume   562.95181515
_cell_formula_units_Z   4
loop_
 _symmetry_equiv_pos_site_id
 _symmetry_equiv_pos_as_xyz
  1  'x, y, z'
loop_
 _atom_site_type_symbol
 _atom_site_label
 _atom_site_symmetry_multiplicity
 _atom_site_fract_x
 _atom_site_fract_y
 _atom_site_fract_z
 _atom_site_occupancy
  Th  Th0  1  0.33333300  0.66666700  0.02742600  1
  Th  Th1  1  0.66666700  0.33333300  0.52742600  1
  Th  Th2  1  0.66666700  0.33333300  0.97257400  1
  Th  Th3  1  0.33333300  0.66666700  0.47257400  1
  Th  Th4  1  0.33333300  0.66666700  0.17312800  1
  Th  Th5  1  0.66666700  0.33333300  0.67312800  1
  Th  Th6  1  0.66666700  0.33333300  0.82687200  1
  Th  Th7  1  0.33333300  0.66666700  0.32687200  1
  Fe  Fe0  1  0.00000000  0.00000000  0.00000000  1
  Fe  Fe1  1  0.00000000  0.00000000  0.50000000  1
  Fe  Fe2  1  0.00000000  0.00000000  0.16814800  1
  Fe  Fe3  1  0.00000000  0.00000000  0.66814800  1
  Fe  Fe4  1  0.00000000  0.00000000  0.83185200  1
  Fe  Fe5  1  0.00000000  0.00000000  0.33185200  1
  Fe  Fe6  1  0.33333300  0.66666700  0.83246200  1
  Fe  Fe7  1  0.66666700  0.33333300  0.33246200  1
  Fe  Fe8  1  0.66666700  0.33333300  0.16753800  1
  Fe  Fe9  1  0.33333300  0.66666700  0.66753800  1
  Fe  Fe10  1  0.83323600  0.66647200  0.25000000  1
  Fe  Fe11  1  0.16676400  0.83323600  0.75000000  1
  Fe  Fe12  1  0.66647200  0.83323600  0.75000000  1
  Fe  Fe13  1  0.33352800  0.16676400  0.25000000  1
  Fe  Fe14  1  0.83323600  0.16676400  0.25000000  1
  Fe  Fe15  1  0.16676400  0.33352800  0.75000000  1
  Fe  Fe16  1  0.83378800  0.66757500  0.08594500  1
  Fe  Fe17  1  0.16621200  0.83378800  0.58594500  1
  Fe  Fe18  1  0.66757500  0.83378800  0.58594500  1
  Fe  Fe19  1  0.33242500  0.16621200  0.08594500  1
  Fe  Fe20  1  0.83378800  0.16621200  0.08594500  1
  Fe  Fe21  1  0.16621200  0.33242500  0.91405500  1
  Fe  Fe22  1  0.16621200  0.83378800  0.91405500  1
  Fe  Fe23  1  0.16621200  0.33242500  0.58594500  1
  Fe  Fe24  1  0.66757500  0.83378800  0.91405500  1
  Fe  Fe25  1  0.33242500  0.16621200  0.41405500  1
  Fe  Fe26  1  0.83378800  0.66757500  0.41405500  1
  Fe  Fe27  1  0.83378800  0.16621200  0.41405500  1
loop_
_geom_bond_atom_site_label_1
_geom_bond_atom_site_label_2
_geom_bond_distance
_geom_bond_site_symmetry_2
Fe0 Fe20 2.589797 1_455
Fe0 Fe22 2.589797 1_544
Fe0 Fe16 2.589800 1_445
Fe0 Fe19 2.589800 1_555
Fe0 Fe24 2.589800 1_444
Fe0 Fe21 2.589800 1_554
Fe0 Th2 3.034661 1_454
Fe0 Th0 3.034661 1_545
Fe0 Th2 3.034665 1_554
Fe0 Th0 3.034665 1_445
Fe0 Th0 3.034665 1_555
Fe0 Th2 3.034665 1_444
Fe1 Fe27 2.589797 1_455
Fe1 Fe17 2.589797 1_545
Fe1 Fe26 2.589800 1_445
Fe1 Fe25 2.589800 1_555
Fe1 Fe18 2.589800 1_445
Fe1 Fe23 2.589800 1_555
Fe1 Th1 3.034661 1_455
Fe1 Th3 3.034661 1_545
Fe1 Th1 3.034665 1_555
Fe1 Th3 3.034665 1_445
Fe1 Th3 3.034665 1_555
Fe1 Th1 3.034665 1_445
Fe2 Fe20 2.514159 1_455
Fe2 Th4 2.960216 1_545
Fe2 Th4 2.960220 1_555
Fe2 Th4 2.960220 1_445
Fe3 Th5 2.960216 1_455
Fe3 Th5 2.960220 1_445
Fe3 Th5 2.960220 1_555
Fe4 Th6 2.960216 1_455
Fe4 Th6 2.960220 1_445
Fe4 Th6 2.960220 1_555
Fe5 Th7 2.960216 1_545
Fe5 Th7 2.960220 1_555
Fe5 Th7 2.960220 1_445
Fe6 Th6 2.960884 1_455
Fe6 Th6 2.960884 1_565
Fe6 Th6 2.960893 1_555
Fe7 Th7 2.960884 1_545
Fe7 Th7 2.960884 1_655
Fe7 Th7 2.960893 1_555
Fe8 Th4 2.960884 1_545
Fe8 Th4 2.960884 1_655
Fe8 Th4 2.960893 1_555
Fe9 Th5 2.960884 1_455
Fe9 Th5 2.960884 1_565
Fe9 Th5 2.960893 1_555
Fe10 Fe5 2.510007 1_665
Fe10 Fe2 2.510007 1_665
Fe10 Fe7 2.521216 1_555
Fe10 Fe8 2.521216 1_555
Fe10 Fe14 2.559902 1_555
Fe10 Fe13 2.559902 1_555
Fe10 Fe14 2.562894 1_565
Fe10 Fe13 2.562894 1_665
Fe10 Th4 3.191618 1_655
Fe10 Th7 3.191618 1_655
Fe10 Th4 3.191622 1_555
Fe10 Th7 3.191622 1_555
Fe11 Fe3 2.510007 1_565
Fe11 Fe4 2.510007 1_565
Fe11 Fe9 2.521213 1_555
Fe11 Fe6 2.521213 1_555
Fe11 Fe12 2.559902 1_555
Fe11 Fe15 2.559902 1_555
Fe11 Fe12 2.562894 1_455
Fe11 Fe15 2.562894 1_565
Fe11 Th6 3.191620 1_455
Fe11 Th5 3.191620 1_455
Fe11 Th5 3.191620 1_565
Fe11 Th6 3.191620 1_565
Fe12 Fe3 2.510007 1_665
Fe12 Fe4 2.510007 1_665
Fe12 Fe9 2.521216 1_555
Fe12 Fe6 2.521216 1_555
Fe12 Fe15 2.559902 1_555
Fe12 Fe15 2.562894 1_665
Fe12 Th6 3.191618 1_565
Fe12 Th5 3.191618 1_565
Fe12 Th6 3.191622 1_555
Fe12 Th5 3.191622 1_555
Fe13 Fe5 2.510007 1_555
Fe13 Fe2 2.510007 1_555
Fe13 Fe7 2.521216 1_555
Fe13 Fe8 2.521216 1_555
Fe13 Fe14 2.559902 1_555
Fe13 Fe14 2.562894 1_455
Fe13 Th7 3.191618 1_545
Fe13 Th4 3.191618 1_545
Fe13 Th7 3.191622 1_555
Fe13 Th4 3.191622 1_555
Fe14 Fe5 2.510007 1_655
Fe14 Fe2 2.510007 1_655
Fe14 Fe7 2.521213 1_555
Fe14 Fe8 2.521213 1_555
Fe14 Th4 3.191620 1_545
Fe14 Th7 3.191620 1_545
Fe14 Th7 3.191620 1_655
Fe14 Th4 3.191620 1_655
Fe15 Fe4 2.510007 1_555
Fe15 Fe3 2.510007 1_555
Fe15 Fe9 2.521216 1_555
Fe15 Fe6 2.521216 1_555
Fe15 Th6 3.191618 1_455
Fe15 Th5 3.191618 1_455
Fe15 Th6 3.191622 1_555
Fe15 Th5 3.191622 1_555
Fe16 Fe8 2.506700 1_555
Fe16 Fe2 2.514162 1_665
Fe16 Fe20 2.554415 1_565
Fe16 Fe19 2.554416 1_665
Fe16 Fe20 2.568380 1_555
Fe16 Fe19 2.568380 1_555
Fe16 Th0 2.943102 1_655
Fe16 Th0 2.943111 1_555
Fe16 Th2 3.175667 1_554
Fe16 Th4 3.350268 1_655
Fe16 Th4 3.350276 1_555
Fe17 Fe9 2.506700 1_555
Fe17 Fe3 2.514159 1_565
Fe17 Fe18 2.554415 1_455
Fe17 Fe23 2.554415 1_565
Fe17 Fe18 2.568380 1_555
Fe17 Fe23 2.568380 1_555
Fe17 Th1 2.943107 1_455
Fe17 Th1 2.943107 1_565
Fe17 Th3 3.175667 1_555
Fe17 Th5 3.350273 1_455
Fe17 Th5 3.350273 1_565
Fe18 Fe9 2.506700 1_555
Fe18 Fe3 2.514162 1_665
Fe18 Fe23 2.554416 1_665
Fe18 Fe23 2.568380 1_555
Fe18 Th1 2.943102 1_565
Fe18 Th1 2.943111 1_555
Fe18 Th3 3.175667 1_555
Fe18 Th5 3.350268 1_565
Fe18 Th5 3.350276 1_555
Fe19 Fe8 2.506700 1_555
Fe19 Fe2 2.514162 1_555
Fe19 Fe20 2.554415 1_455
Fe19 Fe20 2.568380 1_555
Fe19 Th0 2.943102 1_545
Fe19 Th0 2.943111 1_555
Fe19 Th2 3.175667 1_554
Fe19 Th4 3.350268 1_545
Fe19 Th4 3.350276 1_555
Fe20 Fe8 2.506700 1_555
Fe20 Th0 2.943107 1_545
Fe20 Th0 2.943107 1_655
Fe20 Th2 3.175667 1_554
Fe20 Th4 3.350273 1_545
Fe20 Th4 3.350273 1_655
Fe21 Fe6 2.506700 1_555
Fe21 Fe4 2.514162 1_555
Fe21 Fe22 2.554415 1_545
Fe21 Fe24 2.554416 1_445
Fe21 Fe22 2.568380 1_555
Fe21 Fe24 2.568380 1_555
Fe21 Th2 2.943102 1_455
Fe21 Th2 2.943111 1_555
Fe21 Th0 3.175667 1_556
Fe21 Th6 3.350268 1_455
Fe21 Th6 3.350276 1_555
Fe22 Fe6 2.506700 1_555
Fe22 Fe4 2.514159 1_565
Fe22 Fe24 2.554415 1_455
Fe22 Fe24 2.568380 1_555
Fe22 Th2 2.943107 1_455
Fe22 Th2 2.943107 1_565
Fe22 Th0 3.175667 1_556
Fe22 Th6 3.350273 1_455
Fe22 Th6 3.350273 1_565
Fe23 Fe9 2.506700 1_555
Fe23 Fe3 2.514162 1_555
Fe23 Th1 2.943102 1_455
Fe23 Th1 2.943111 1_555
Fe23 Th3 3.175667 1_555
Fe23 Th5 3.350268 1_455
Fe23 Th5 3.350276 1_555
Fe24 Fe6 2.506700 1_555
Fe24 Fe4 2.514162 1_665
Fe24 Th2 2.943102 1_565
Fe24 Th2 2.943111 1_555
Fe24 Th0 3.175667 1_556
Fe24 Th6 3.350268 1_565
Fe24 Th6 3.350276 1_555
Fe25 Fe7 2.506700 1_555
Fe25 Fe5 2.514162 1_555
Fe25 Fe27 2.554415 1_455
Fe25 Fe26 2.554416 1_445
Fe25 Fe27 2.568380 1_555
Fe25 Fe26 2.568380 1_555
Fe25 Th3 2.943102 1_545
Fe25 Th3 2.943111 1_555
Fe25 Th1 3.175667 1_555
Fe25 Th7 3.350268 1_545
Fe25 Th7 3.350276 1_555
Fe26 Fe7 2.506700 1_555
Fe26 Fe5 2.514162 1_665
Fe26 Fe27 2.554415 1_565
Fe26 Fe27 2.568380 1_555
Fe26 Th3 2.943102 1_655
Fe26 Th3 2.943111 1_555
Fe26 Th1 3.175667 1_555
Fe26 Th7 3.350268 1_655
Fe26 Th7 3.350276 1_555
Fe27 Fe7 2.506700 1_555
Fe27 Fe5 2.514159 1_655
Fe27 Th3 2.943107 1_545
Fe27 Th3 2.943107 1_655
Fe27 Th1 3.175667 1_555
Fe27 Th7 3.350273 1_545
Fe27 Th7 3.350273 1_655
