# generated using pymatgen
data_Li2MnP2O7
_symmetry_space_group_name_H-M   'P 1'
_cell_length_a   6.66141500
_cell_length_b   9.36354971
_cell_length_c   10.51761105
_cell_angle_alpha   113.74564641
_cell_angle_beta   88.57729375
_cell_angle_gamma   106.75598714
_symmetry_Int_Tables_number   1
_chemical_formula_structural   Li2MnP2O7
_chemical_formula_sum   'Li8 Mn4 P8 O28'
_cell_volume   571.87080954
_cell_formula_units_Z   4
loop_
 _symmetry_equiv_pos_site_id
 _symmetry_equiv_pos_as_xyz
  1  'x, y, z'
loop_
 _atom_site_type_symbol
 _atom_site_label
 _atom_site_symmetry_multiplicity
 _atom_site_fract_x
 _atom_site_fract_y
 _atom_site_fract_z
 _atom_site_occupancy
  Li  Li0  1  0.60247800  0.51228100  0.97253400  1
  Li  Li1  1  0.16481500  0.48541400  0.03661000  1
  Li  Li2  1  0.04440600  0.19926500  0.51351000  1
  Li  Li3  1  0.93933600  0.82732600  0.49897400  1
  Li  Li4  1  0.16374700  0.10865500  0.13551800  1
  Li  Li5  1  0.35189100  0.92269900  0.37734600  1
  Li  Li6  1  0.63152800  0.07898400  0.62216500  1
  Li  Li7  1  0.86425800  0.89344700  0.88088700  1
  Mn  Mn0  1  0.35867800  0.50167200  0.73540500  1
  Mn  Mn1  1  0.28436800  0.89468000  0.78251400  1
  Mn  Mn2  1  0.62996500  0.49018500  0.25534900  1
  Mn  Mn3  1  0.72274900  0.09631700  0.21417800  1
  P  P0  1  0.30957900  0.79887000  0.05624100  1
  P  P1  1  0.92973000  0.80815200  0.19905300  1
  P  P2  1  0.07713200  0.17978400  0.79385100  1
  P  P3  1  0.70055300  0.19336300  0.94219200  1
  P  P4  1  0.44332500  0.71081200  0.53162500  1
  P  P5  1  0.55090800  0.28514800  0.46260200  1
  P  P6  1  0.86547100  0.54355900  0.69728900  1
  P  P7  1  0.12233600  0.44448200  0.30021200  1
  O  O0  1  0.09717900  0.05511800  0.84890700  1
  O  O1  1  0.63023200  0.33685500  0.03832500  1
  O  O2  1  0.93107300  0.28070500  0.90324600  1
  O  O3  1  0.37503700  0.65051900  0.96132700  1
  O  O4  1  0.28044800  0.31693800  0.81880500  1
  O  O5  1  0.44732000  0.90236500  0.19567900  1
  O  O6  1  0.53484700  0.27153900  0.31073600  1
  O  O7  1  0.56311800  0.09148700  0.80281600  1
  O  O8  1  0.02586200  0.45267000  0.68739600  1
  O  O9  1  0.73929700  0.08244700  0.00788200  1
  O  O10  1  0.95804400  0.09368200  0.64620900  1
  O  O11  1  0.91809600  0.93442000  0.14280200  1
  O  O12  1  0.72258100  0.67468100  0.17195600  1
  O  O13  1  0.95774200  0.52793200  0.30217200  1
  O  O14  1  0.62618000  0.14365800  0.46338200  1
  O  O15  1  0.08328700  0.70871200  0.09674400  1
  O  O16  1  0.36946700  0.85447600  0.53519900  1
  O  O17  1  0.27050100  0.90696900  0.98848100  1
  O  O18  1  0.64101700  0.69933200  0.45730700  1
  O  O19  1  0.35107700  0.29532100  0.53473600  1
  O  O20  1  0.73320200  0.45593700  0.54210600  1
  O  O21  1  0.69819300  0.52830200  0.79811000  1
  O  O22  1  0.25972500  0.54108500  0.45219000  1
  O  O23  1  0.04109100  0.89234200  0.34830000  1
  O  O24  1  0.96415400  0.72320200  0.71895100  1
  O  O25  1  0.03375500  0.26777900  0.28934800  1
  O  O26  1  0.28068100  0.45333300  0.19192400  1
  O  O27  1  0.45838800  0.71891400  0.68166300  1
loop_
_geom_bond_atom_site_label_1
_geom_bond_atom_site_label_2
_geom_bond_distance
_geom_bond_site_symmetry_2
Li0 O21 1.975580 1_555
Li0 O12 2.040811 1_556
Li0 O1 2.075574 1_556
Li0 O3 2.290706 1_555
Li0 O4 2.467733 1_555
Li1 O26 1.986420 1_555
Li1 O2 2.070820 1_454
Li1 O15 2.153914 1_555
Li1 O3 2.158819 1_554
Li1 O4 2.456072 1_554
Li2 O19 1.957957 1_555
Li2 O10 1.999924 1_455
Li2 O8 2.377607 1_555
Li3 O18 1.955630 1_555
Li3 O23 1.956307 1_655
Li3 O10 2.313818 1_565
Li4 O11 1.974939 1_445
Li4 O25 2.078566 1_555
Li4 O17 2.198047 1_544
Li5 O5 1.951315 1_555
Li5 O23 2.020568 1_555
Li5 O16 2.021160 1_555
Li5 O14 2.198305 1_565
Li6 O7 1.907895 1_555
Li6 O14 1.996703 1_555
Li6 O10 2.154172 1_555
Li6 O16 2.172110 1_545
Li7 O0 1.960108 1_665
Li7 O24 2.062423 1_555
Li7 O9 2.121170 1_566
Mn0 O8 2.159435 1_555
Mn0 O4 2.170851 1_555
Mn0 O19 2.203410 1_555
Mn0 O3 2.204239 1_555
Mn0 O27 2.242044 1_555
Mn0 O21 2.286624 1_555
Mn1 O0 2.119273 1_565
Mn1 O17 2.123673 1_555
Mn1 O7 2.149252 1_565
Mn1 O24 2.192388 1_455
Mn1 O27 2.193309 1_555
Mn1 O16 2.547613 1_555
Mn2 O13 2.145502 1_555
Mn2 O1 2.152544 1_555
Mn2 O12 2.170988 1_555
Mn2 O18 2.219683 1_555
Mn2 O6 2.264172 1_555
Mn2 O26 2.325184 1_555
Mn3 O9 2.122789 1_555
Mn3 O5 2.124669 1_545
Mn3 O25 2.153142 1_655
Mn3 O11 2.174249 1_545
Mn3 O6 2.251464 1_555
Mn3 O14 2.573929 1_555
O0 P2 1.534231 1_555
O1 P3 1.514033 1_554
O2 P3 1.645938 1_555
O2 P2 1.662037 1_655
O3 P0 1.525485 1_556
O4 P2 1.515191 1_555
O5 P0 1.530146 1_555
O6 P5 1.554237 1_555
O7 P3 1.527715 1_555
O8 P6 1.524499 1_455
O9 P3 1.537487 1_554
O10 P2 1.541030 1_655
O11 P1 1.540242 1_555
O12 P1 1.511814 1_555
O13 P7 1.514279 1_655
O14 P5 1.548774 1_555
O15 P0 1.640262 1_555
O15 P1 1.660962 1_455
O16 P4 1.546940 1_555
O17 P0 1.530453 1_556
O18 P4 1.523029 1_555
O19 P5 1.523616 1_555
O20 P5 1.607794 1_555
O20 P6 1.639983 1_555
O21 P6 1.535601 1_555
O22 P4 1.606307 1_555
O22 P7 1.625334 1_555
O23 P1 1.536174 1_455
O24 P6 1.541010 1_555
O25 P7 1.544989 1_555
O26 P7 1.543567 1_555
O27 P4 1.553415 1_555
