# generated using pymatgen
data_In2(Se2O5)3
_symmetry_space_group_name_H-M   'P 1'
_cell_length_a   13.36423675
_cell_length_b   9.75653108
_cell_length_c   11.21180699
_cell_angle_alpha   74.77657930
_cell_angle_beta   90.00000000
_cell_angle_gamma   90.00000000
_symmetry_Int_Tables_number   1
_chemical_formula_structural   In2(Se2O5)3
_chemical_formula_sum   'In8 Se24 O60'
_cell_volume   1410.59282541
_cell_formula_units_Z   4
loop_
 _symmetry_equiv_pos_site_id
 _symmetry_equiv_pos_as_xyz
  1  'x, y, z'
loop_
 _atom_site_type_symbol
 _atom_site_label
 _atom_site_symmetry_multiplicity
 _atom_site_fract_x
 _atom_site_fract_y
 _atom_site_fract_z
 _atom_site_occupancy
  In  In0  1  0.70667898  0.57571535  0.86202383  1
  In  In1  1  0.29332102  0.07571535  0.86202383  1
  In  In2  1  0.95160466  0.53776992  0.32703575  1
  In  In3  1  0.04839534  0.03776992  0.32703575  1
  In  In4  1  0.45262167  0.51898368  0.33274369  1
  In  In5  1  0.54737833  0.01898368  0.33274369  1
  In  In6  1  0.79745352  0.08409259  0.84582874  1
  In  In7  1  0.20254648  0.58409259  0.84582874  1
  Se  Se0  1  0.53263890  0.68912898  0.54617779  1
  Se  Se1  1  0.46736110  0.18912898  0.54617779  1
  Se  Se2  1  0.48861037  0.34624199  0.11894938  1
  Se  Se3  1  0.51138963  0.84624199  0.11894938  1
  Se  Se4  1  0.98728210  0.35731450  0.10378892  1
  Se  Se5  1  0.01271790  0.85731450  0.10378892  1
  Se  Se6  1  0.73900859  0.77442092  0.08340340  1
  Se  Se7  1  0.26099141  0.27442092  0.08340340  1
  Se  Se8  1  0.95715564  0.18319577  0.54274200  1
  Se  Se9  1  0.04284436  0.68319577  0.54274200  1
  Se  Se10  1  0.53506579  0.18982114  0.82388041  1
  Se  Se11  1  0.46493421  0.68982114  0.82388041  1
  Se  Se12  1  0.23332081  0.74374990  0.06616168  1
  Se  Se13  1  0.76667919  0.24374990  0.06616168  1
  Se  Se14  1  0.04618281  0.18757676  0.80407189  1
  Se  Se15  1  0.95381719  0.68757676  0.80407189  1
  Se  Se16  1  0.77158068  0.41897115  0.63487778  1
  Se  Se17  1  0.22841932  0.91897115  0.63487778  1
  Se  Se18  1  0.79772307  0.91245318  0.38049257  1
  Se  Se19  1  0.20227693  0.41245318  0.38049257  1
  Se  Se20  1  0.71067436  0.41331672  0.35741786  1
  Se  Se21  1  0.28932564  0.91331672  0.35741786  1
  Se  Se22  1  0.70292694  0.91514524  0.64280359  1
  Se  Se23  1  0.29707306  0.41514524  0.64280359  1
  O  O0  1  0.39057077  0.29750034  0.02567743  1
  O  O1  1  0.60942923  0.79750034  0.02567743  1
  O  O2  1  0.55700838  0.15639581  0.67163045  1
  O  O3  1  0.44299162  0.65639581  0.67163045  1
  O  O4  1  0.86492884  0.28484277  0.16320581  1
  O  O5  1  0.13507116  0.78484277  0.16320581  1
  O  O6  1  0.01690242  0.27817631  0.64627881  1
  O  O7  1  0.98309758  0.77817631  0.64627881  1
  O  O8  1  0.68121628  0.43870521  0.50891864  1
  O  O9  1  0.31878372  0.93870521  0.50891864  1
  O  O10  1  0.77183636  0.82875189  0.54183726  1
  O  O11  1  0.22816364  0.32875189  0.54183726  1
  O  O12  1  0.65016869  0.76300003  0.72648638  1
  O  O13  1  0.34983131  0.26300003  0.72648638  1
  O  O14  1  0.68421195  0.44292140  0.73571419  1
  O  O15  1  0.31578805  0.94292140  0.73571419  1
  O  O16  1  0.45342875  0.05929308  0.88689906  1
  O  O17  1  0.54657125  0.55929308  0.88689906  1
  O  O18  1  0.14419934  0.08595475  0.78648934  1
  O  O19  1  0.85580066  0.58595475  0.78648934  1
  O  O20  1  0.29439212  0.89882516  0.02382139  1
  O  O21  1  0.70560788  0.39882516  0.02382139  1
  O  O22  1  0.89667627  0.01425108  0.39278973  1
  O  O23  1  0.77638304  0.68804182  0.98069824  1
  O  O24  1  0.91013148  0.33104036  0.44487645  1
  O  O25  1  0.08986852  0.83104036  0.44487645  1
  O  O26  1  0.98210494  0.51021040  0.14556444  1
  O  O27  1  0.01789506  0.01021040  0.14556444  1
  O  O28  1  0.06193488  0.14617284  0.47364541  1
  O  O29  1  0.93806512  0.64617284  0.47364541  1
  O  O30  1  0.05671697  0.25740334  0.21833528  1
  O  O31  1  0.94328303  0.75740334  0.21833528  1
  O  O32  1  0.21392144  0.74113630  0.67172456  1
  O  O33  1  0.78607856  0.24113630  0.67172456  1
  O  O34  1  0.83568153  0.24352838  0.94003846  1
  O  O35  1  0.16431847  0.74352838  0.94003846  1
  O  O36  1  0.35890325  0.61229604  0.88721289  1
  O  O37  1  0.64109675  0.11229604  0.88721289  1
  O  O38  1  0.20286993  0.43250100  0.73763916  1
  O  O39  1  0.79713007  0.93250100  0.73763916  1
  O  O40  1  0.20923619  0.43638111  0.02612717  1
  O  O41  1  0.79076381  0.93638111  0.02612717  1
  O  O42  1  0.04277598  0.56007823  0.83209327  1
  O  O43  1  0.95722402  0.06007823  0.83209327  1
  O  O44  1  0.55074278  0.17136580  0.43909919  1
  O  O45  1  0.44925722  0.67136580  0.43909919  1
  O  O46  1  0.45762308  0.36800256  0.51127475  1
  O  O47  1  0.54237692  0.86800256  0.51127475  1
  O  O48  1  0.45178869  0.68947295  0.16659843  1
  O  O49  1  0.54821131  0.18947295  0.16659843  1
  O  O50  1  0.39294382  0.99325115  0.28704677  1
  O  O51  1  0.60705618  0.49325115  0.28704677  1
  O  O52  1  0.58523661  0.85917843  0.23899150  1
  O  O53  1  0.41476339  0.35917843  0.23899150  1
  O  O54  1  0.29113153  0.53863511  0.34841464  1
  O  O55  1  0.70886847  0.03863511  0.34841464  1
  O  O56  1  0.20744412  0.04688657  0.30599266  1
  O  O57  1  0.79255588  0.54688657  0.30599266  1
  O  O58  1  0.10332373  0.51425108  0.39278973  1
  O  O59  1  0.22361696  0.18804182  0.98069824  1
loop_
_geom_bond_atom_site_label_1
_geom_bond_atom_site_label_2
_geom_bond_distance
_geom_bond_site_symmetry_2
In0 O23 2.145918 1_555
In0 O21 2.150651 1_556
In0 O19 2.157404 1_555
In0 O17 2.158328 1_555
In0 O14 2.176656 1_555
In0 O12 2.181786 1_555
In1 O59 2.145918 1_555
In1 O20 2.150651 1_546
In1 O18 2.157404 1_555
In1 O16 2.158328 1_555
In1 O15 2.176656 1_545
In1 O13 2.181786 1_555
In2 O57 2.137892 1_555
In2 O58 2.149072 1_655
In2 O26 2.159963 1_555
In2 O31 2.172098 1_555
In2 O24 2.172890 1_555
In2 O29 2.183182 1_555
In3 O56 2.137892 1_555
In3 O22 2.149072 1_455
In3 O27 2.159963 1_555
In3 O30 2.172098 1_555
In3 O25 2.172890 1_545
In3 O28 2.183182 1_555
In4 O45 2.136655 1_555
In4 O48 2.147022 1_555
In4 O46 2.152324 1_555
In4 O53 2.156959 1_555
In4 O51 2.157026 1_555
In4 O54 2.177870 1_555
In5 O44 2.136655 1_555
In5 O49 2.147022 1_555
In5 O47 2.152324 1_545
In5 O52 2.156959 1_545
In5 O50 2.157026 1_545
In5 O55 2.177870 1_555
In6 O39 2.145000 1_545
In6 O33 2.147190 1_555
In6 O41 2.154371 1_546
In6 O43 2.157935 1_555
In6 O34 2.158536 1_555
In6 O37 2.173577 1_555
In7 O38 2.145000 1_555
In7 O32 2.147190 1_555
In7 O40 2.154371 1_556
In7 O42 2.157935 1_555
In7 O35 2.158536 1_555
In7 O36 2.173577 1_555
O0 Se2 1.815927 1_555
O0 Se7 1.841722 1_555
O1 Se3 1.815927 1_555
O1 Se6 1.841722 1_555
O2 Se1 1.811033 1_555
O2 Se10 1.843511 1_555
O3 Se0 1.811033 1_555
O3 Se11 1.843511 1_555
O4 Se13 1.815960 1_555
O4 Se4 1.835785 1_555
O5 Se12 1.815960 1_555
O5 Se5 1.835785 1_555
O6 Se14 1.800856 1_555
O6 Se8 1.846284 1_455
O7 Se15 1.800856 1_555
O7 Se9 1.846284 1_655
O8 Se20 1.822784 1_555
O8 Se16 1.829505 1_555
O9 Se21 1.822784 1_555
O9 Se17 1.829505 1_555
O10 Se18 1.811939 1_555
O10 Se22 1.827877 1_555
O11 Se19 1.811939 1_555
O11 Se23 1.827877 1_555
O12 Se22 1.688038 1_555
O13 Se23 1.688038 1_555
O14 Se16 1.683696 1_555
O15 Se17 1.683696 1_555
O16 Se10 1.684873 1_555
O17 Se11 1.684873 1_555
O18 Se14 1.685353 1_555
O19 Se15 1.685353 1_555
O20 Se12 1.674351 1_555
O21 Se13 1.674351 1_555
O22 Se18 1.681127 1_545
O23 Se6 1.671930 1_556
O24 Se8 1.687709 1_555
O25 Se9 1.687709 1_555
O26 Se4 1.678204 1_555
O27 Se5 1.678204 1_545
O28 Se8 1.684760 1_455
O29 Se9 1.684760 1_655
O30 Se4 1.674273 1_455
O31 Se5 1.674273 1_655
O32 Se17 1.685877 1_555
O33 Se16 1.685877 1_555
O34 Se13 1.688664 1_556
O35 Se12 1.688664 1_556
O36 Se11 1.673978 1_555
O37 Se10 1.673978 1_555
O38 Se23 1.684859 1_555
O39 Se22 1.684859 1_555
O40 Se7 1.689621 1_555
O41 Se6 1.689621 1_555
O42 Se15 1.689456 1_455
O43 Se14 1.689456 1_655
O44 Se1 1.679984 1_555
O45 Se0 1.679984 1_555
O46 Se1 1.690293 1_555
O47 Se0 1.690293 1_555
O48 Se3 1.682309 1_555
O49 Se2 1.682309 1_555
O50 Se21 1.680828 1_555
O51 Se20 1.680828 1_555
O52 Se3 1.700161 1_555
O53 Se2 1.700161 1_555
O54 Se19 1.680035 1_555
O55 Se18 1.680035 1_545
O56 Se21 1.683320 1_545
O57 Se20 1.683320 1_555
O58 Se19 1.681127 1_555
O59 Se7 1.671930 1_556
