# generated using pymatgen
data_TbCo3B2
_symmetry_space_group_name_H-M   'P 1'
_cell_length_a   10.07378364
_cell_length_b   10.07379270
_cell_length_c   5.85731400
_cell_angle_alpha   90.00000000
_cell_angle_beta   90.00000000
_cell_angle_gamma   119.99947206
_symmetry_Int_Tables_number   1
_chemical_formula_structural   TbCo3B2
_chemical_formula_sum   'Tb8 Co24 B16'
_cell_volume   514.77456117
_cell_formula_units_Z   8
loop_
 _symmetry_equiv_pos_site_id
 _symmetry_equiv_pos_as_xyz
  1  'x, y, z'
loop_
 _atom_site_type_symbol
 _atom_site_label
 _atom_site_symmetry_multiplicity
 _atom_site_fract_x
 _atom_site_fract_y
 _atom_site_fract_z
 _atom_site_occupancy
  Tb  Tb0_0  1  0.00000000  0.00000000  0.00000000  1
  Tb  Tb0_1  1  0.00000000  0.00000000  0.50000000  1
  Tb  Tb0_2  1  0.00000000  0.50000000  0.00000000  1
  Tb  Tb0_3  1  0.00000000  0.50000000  0.50000000  1
  Tb  Tb0_4  1  0.50000000  0.00000000  0.00000000  1
  Tb  Tb0_5  1  0.50000000  0.00000000  0.50000000  1
  Tb  Tb0_6  1  0.50000000  0.50000000  0.00000000  1
  Tb  Tb0_7  1  0.50000000  0.50000000  0.50000000  1
  Co  Co0_0  1  0.25000000  0.00000000  0.25000000  1
  Co  Co0_1  1  0.25000000  0.00000000  0.75000000  1
  Co  Co0_2  1  0.25000000  0.50000000  0.25000000  1
  Co  Co0_3  1  0.25000000  0.50000000  0.75000000  1
  Co  Co0_4  1  0.75000000  0.00000000  0.25000000  1
  Co  Co0_5  1  0.75000000  0.00000000  0.75000000  1
  Co  Co0_6  1  0.75000000  0.50000000  0.25000000  1
  Co  Co0_7  1  0.75000000  0.50000000  0.75000000  1
  Co  Co1_0  1  0.00000000  0.25000000  0.25000000  1
  Co  Co1_1  1  0.00000000  0.25000000  0.75000000  1
  Co  Co1_2  1  0.00000000  0.75000000  0.25000000  1
  Co  Co1_3  1  0.00000000  0.75000000  0.75000000  1
  Co  Co1_4  1  0.50000000  0.25000000  0.25000000  1
  Co  Co1_5  1  0.50000000  0.25000000  0.75000000  1
  Co  Co1_6  1  0.50000000  0.75000000  0.25000000  1
  Co  Co1_7  1  0.50000000  0.75000000  0.75000000  1
  Co  Co2_0  1  0.25000000  0.25000000  0.25000000  1
  Co  Co2_1  1  0.25000000  0.25000000  0.75000000  1
  Co  Co2_2  1  0.25000000  0.75000000  0.25000000  1
  Co  Co2_3  1  0.25000000  0.75000000  0.75000000  1
  Co  Co2_4  1  0.75000000  0.25000000  0.25000000  1
  Co  Co2_5  1  0.75000000  0.25000000  0.75000000  1
  Co  Co2_6  1  0.75000000  0.75000000  0.25000000  1
  Co  Co2_7  1  0.75000000  0.75000000  0.75000000  1
  B  B0_0  1  0.16666728  0.33333095  0.00000000  1
  B  B0_1  1  0.16666728  0.33333095  0.50000000  1
  B  B0_2  1  0.16666728  0.83333095  0.00000000  1
  B  B0_3  1  0.16666728  0.83333095  0.50000000  1
  B  B0_4  1  0.66666728  0.33333095  0.00000000  1
  B  B0_5  1  0.66666728  0.33333095  0.50000000  1
  B  B0_6  1  0.66666729  0.83333095  0.00000000  1
  B  B0_7  1  0.66666729  0.83333095  0.50000000  1
  B  B1_0  1  0.33333272  0.16666905  0.00000000  1
  B  B1_1  1  0.33333272  0.16666905  0.50000000  1
  B  B1_2  1  0.33333272  0.66666905  0.00000000  1
  B  B1_3  1  0.33333272  0.66666905  0.50000000  1
  B  B1_4  1  0.83333271  0.16666905  0.00000000  1
  B  B1_5  1  0.83333271  0.16666905  0.50000000  1
  B  B1_6  1  0.83333272  0.66666905  0.00000000  1
  B  B1_7  1  0.83333272  0.66666905  0.50000000  1
loop_
_geom_bond_atom_site_label_1
_geom_bond_atom_site_label_2
_geom_bond_distance
_geom_bond_site_symmetry_2
Tb0_0 Tb0_1 2.928657 1_554
Tb0_0 Tb0_1 2.928657 1_555
Tb0_2 Tb0_3 2.928657 1_554
Tb0_2 Tb0_3 2.928657 1_555
Tb0_4 Tb0_5 2.928657 1_554
Tb0_4 Tb0_5 2.928657 1_555
Tb0_6 Tb0_7 2.928657 1_554
Tb0_6 Tb0_7 2.928657 1_555
Co0_0 Tb0_4 2.913216 1_555
Co0_0 Tb0_1 2.913216 1_555
Co0_0 Tb0_5 2.913216 1_555
Co0_0 Tb0_0 2.913216 1_555
Co0_1 Tb0_0 2.913216 1_556
Co0_1 Tb0_4 2.913216 1_556
Co0_1 Tb0_1 2.913216 1_555
Co0_1 Tb0_5 2.913216 1_555
Co0_2 Tb0_6 2.913216 1_555
Co0_2 Tb0_3 2.913216 1_555
Co0_2 Tb0_7 2.913216 1_555
Co0_2 Tb0_2 2.913216 1_555
Co0_3 Tb0_3 2.913216 1_555
Co0_3 Tb0_6 2.913216 1_556
Co0_3 Tb0_7 2.913216 1_555
Co0_3 Tb0_2 2.913216 1_556
Co0_4 Tb0_4 2.913216 1_555
Co0_4 Tb0_1 2.913216 1_655
Co0_4 Tb0_0 2.913216 1_655
Co0_4 Tb0_5 2.913216 1_555
Co0_5 Tb0_4 2.913216 1_556
Co0_5 Tb0_1 2.913216 1_655
Co0_5 Tb0_0 2.913216 1_656
Co0_5 Tb0_5 2.913216 1_555
Co0_6 Tb0_6 2.913216 1_555
Co0_6 Tb0_7 2.913216 1_555
Co0_6 Tb0_2 2.913216 1_655
Co0_6 Tb0_3 2.913216 1_655
Co0_7 Tb0_7 2.913216 1_555
Co0_7 Tb0_6 2.913216 1_556
Co0_7 Tb0_2 2.913216 1_656
Co0_7 Tb0_3 2.913216 1_655
Co1_0 Tb0_2 2.913218 1_555
Co1_0 Tb0_0 2.913218 1_555
Co1_0 Tb0_3 2.913218 1_555
Co1_0 Tb0_1 2.913218 1_555
Co1_1 Tb0_2 2.913218 1_556
Co1_1 Tb0_3 2.913218 1_555
Co1_1 Tb0_0 2.913218 1_556
Co1_1 Tb0_1 2.913218 1_555
Co1_2 Tb0_2 2.913218 1_555
Co1_2 Tb0_3 2.913218 1_555
Co1_2 Tb0_0 2.913218 1_565
Co1_2 Tb0_1 2.913218 1_565
Co1_3 Tb0_2 2.913218 1_556
Co1_3 Tb0_3 2.913218 1_555
Co1_3 Tb0_1 2.913218 1_565
Co1_3 Tb0_0 2.913218 1_566
Co1_4 Tb0_5 2.913218 1_555
Co1_4 Tb0_4 2.913218 1_555
Co1_4 Tb0_6 2.913218 1_555
Co1_4 Tb0_7 2.913218 1_555
Co1_5 Tb0_5 2.913218 1_555
Co1_5 Tb0_4 2.913218 1_556
Co1_5 Tb0_6 2.913218 1_556
Co1_5 Tb0_7 2.913218 1_555
Co1_6 Tb0_7 2.913218 1_555
Co1_6 Tb0_6 2.913218 1_555
Co1_6 Tb0_5 2.913218 1_565
Co1_6 Tb0_4 2.913218 1_565
Co1_7 Tb0_6 2.913218 1_556
Co1_7 Tb0_7 2.913218 1_555
Co1_7 Tb0_5 2.913218 1_565
Co1_7 Tb0_4 2.913218 1_566
Co2_0 Tb0_0 2.913234 1_555
Co2_0 Tb0_6 2.913234 1_555
Co2_0 Tb0_7 2.913234 1_555
Co2_0 Tb0_1 2.913234 1_555
Co2_1 Tb0_6 2.913234 1_556
Co2_1 Tb0_0 2.913234 1_556
Co2_1 Tb0_7 2.913234 1_555
Co2_1 Tb0_1 2.913234 1_555
Co2_2 Tb0_5 2.913234 1_565
Co2_2 Tb0_4 2.913234 1_565
Co2_2 Tb0_2 2.913234 1_555
Co2_2 Tb0_3 2.913234 1_555
Co2_3 Tb0_4 2.913234 1_566
Co2_3 Tb0_5 2.913234 1_565
Co2_3 Tb0_2 2.913234 1_556
Co2_3 Tb0_3 2.913234 1_555
Co2_4 Tb0_2 2.913234 1_655
Co2_4 Tb0_3 2.913234 1_655
Co2_4 Tb0_4 2.913234 1_555
Co2_4 Tb0_5 2.913234 1_555
Co2_5 Tb0_2 2.913234 1_656
Co2_5 Tb0_3 2.913234 1_655
Co2_5 Tb0_4 2.913234 1_556
Co2_5 Tb0_5 2.913234 1_555
Co2_6 Tb0_0 2.913234 1_665
Co2_6 Tb0_1 2.913234 1_665
Co2_6 Tb0_7 2.913234 1_555
Co2_6 Tb0_6 2.913234 1_555
Co2_7 Tb0_0 2.913234 1_666
Co2_7 Tb0_1 2.913234 1_665
Co2_7 Tb0_7 2.913234 1_555
Co2_7 Tb0_6 2.913234 1_556
B0_0 Co2_1 2.063580 1_554
B0_0 Co2_0 2.063580 1_555
B0_0 Co1_0 2.063610 1_555
B0_0 Co1_1 2.063610 1_554
B0_0 Co0_2 2.063622 1_555
B0_0 Co0_3 2.063622 1_554
B0_0 Tb0_0 2.908048 1_555
B0_0 Tb0_6 2.908061 1_555
B0_0 Tb0_2 2.908071 1_555
B0_1 Co2_1 2.063580 1_555
B0_1 Co2_0 2.063580 1_555
B0_1 Co1_0 2.063610 1_555
B0_1 Co1_1 2.063610 1_555
B0_1 Co0_2 2.063622 1_555
B0_1 Co0_3 2.063622 1_555
B0_1 Tb0_1 2.908048 1_555
B0_1 Tb0_7 2.908061 1_555
B0_1 Tb0_3 2.908071 1_555
B0_2 Co2_3 2.063580 1_554
B0_2 Co2_2 2.063580 1_555
B0_2 Co1_3 2.063610 1_554
B0_2 Co1_2 2.063610 1_555
B0_2 Co0_0 2.063622 1_565
B0_2 Co0_1 2.063622 1_564
B0_2 Tb0_2 2.908048 1_555
B0_2 Tb0_4 2.908061 1_565
B0_2 Tb0_0 2.908071 1_565
B0_3 Co2_3 2.063580 1_555
B0_3 Co2_2 2.063580 1_555
B0_3 Co1_3 2.063610 1_555
B0_3 Co1_2 2.063610 1_555
B0_3 Co0_0 2.063622 1_565
B0_3 Co0_1 2.063622 1_565
B0_3 Tb0_3 2.908048 1_555
B0_3 Tb0_5 2.908061 1_565
B0_3 Tb0_1 2.908071 1_565
B0_4 Co2_4 2.063580 1_555
B0_4 Co2_5 2.063580 1_554
B0_4 Co1_4 2.063610 1_555
B0_4 Co1_5 2.063610 1_554
B0_4 Co0_7 2.063622 1_554
B0_4 Co0_6 2.063622 1_555
B0_4 Tb0_4 2.908048 1_555
B0_4 Tb0_2 2.908061 1_655
B0_4 Tb0_6 2.908071 1_555
B0_5 Co2_4 2.063580 1_555
B0_5 Co2_5 2.063580 1_555
B0_5 Co1_4 2.063610 1_555
B0_5 Co1_5 2.063610 1_555
B0_5 Co0_7 2.063622 1_555
B0_5 Co0_6 2.063622 1_555
B0_5 Tb0_5 2.908048 1_555
B0_5 Tb0_3 2.908061 1_655
B0_5 Tb0_7 2.908071 1_555
B0_6 Co2_6 2.063580 1_555
B0_6 Co2_7 2.063580 1_554
B0_6 Co1_6 2.063610 1_555
B0_6 Co1_7 2.063610 1_554
B0_6 Co0_4 2.063622 1_565
B0_6 Co0_5 2.063622 1_564
B0_6 Tb0_6 2.908048 1_555
B0_6 Tb0_0 2.908061 1_665
B0_6 Tb0_4 2.908071 1_565
B0_7 Co2_7 2.063580 1_555
B0_7 Co2_6 2.063580 1_555
B0_7 Co1_6 2.063610 1_555
B0_7 Co1_7 2.063610 1_555
B0_7 Co0_4 2.063622 1_565
B0_7 Co0_5 2.063622 1_565
B0_7 Tb0_7 2.908048 1_555
B0_7 Tb0_1 2.908061 1_665
B0_7 Tb0_5 2.908071 1_565
B1_0 Co2_1 2.063580 1_554
B1_0 Co2_0 2.063580 1_555
B1_0 Co1_4 2.063610 1_555
B1_0 Co1_5 2.063610 1_554
B1_0 Co0_1 2.063622 1_554
B1_0 Co0_0 2.063622 1_555
B1_0 Tb0_6 2.908048 1_555
B1_0 Tb0_0 2.908061 1_555
B1_0 Tb0_4 2.908071 1_555
B1_1 Co2_1 2.063580 1_555
B1_1 Co2_0 2.063580 1_555
B1_1 Co1_4 2.063610 1_555
B1_1 Co1_5 2.063610 1_555
B1_1 Co0_1 2.063622 1_555
B1_1 Co0_0 2.063622 1_555
B1_1 Tb0_7 2.908048 1_555
B1_1 Tb0_1 2.908061 1_555
B1_1 Tb0_5 2.908071 1_555
B1_2 Co2_3 2.063580 1_554
B1_2 Co2_2 2.063580 1_555
B1_2 Co1_7 2.063610 1_554
B1_2 Co1_6 2.063610 1_555
B1_2 Co0_2 2.063622 1_555
B1_2 Co0_3 2.063622 1_554
B1_2 Tb0_4 2.908048 1_565
B1_2 Tb0_2 2.908061 1_555
B1_2 Tb0_6 2.908071 1_555
B1_3 Co2_3 2.063580 1_555
B1_3 Co2_2 2.063580 1_555
B1_3 Co1_6 2.063610 1_555
B1_3 Co1_7 2.063610 1_555
B1_3 Co0_2 2.063622 1_555
B1_3 Co0_3 2.063622 1_555
B1_3 Tb0_5 2.908048 1_565
B1_3 Tb0_3 2.908061 1_555
B1_3 Tb0_7 2.908071 1_555
B1_4 Co2_4 2.063580 1_555
B1_4 Co2_5 2.063580 1_554
B1_4 Co1_0 2.063610 1_655
B1_4 Co1_1 2.063610 1_654
B1_4 Co0_5 2.063622 1_554
B1_4 Co0_4 2.063622 1_555
B1_4 Tb0_2 2.908048 1_655
B1_4 Tb0_4 2.908061 1_555
B1_4 Tb0_0 2.908071 1_655
B1_5 Co2_4 2.063580 1_555
B1_5 Co2_5 2.063580 1_555
B1_5 Co1_0 2.063610 1_655
B1_5 Co1_1 2.063610 1_655
B1_5 Co0_4 2.063622 1_555
B1_5 Co0_5 2.063622 1_555
B1_5 Tb0_3 2.908048 1_655
B1_5 Tb0_5 2.908061 1_555
B1_5 Tb0_1 2.908071 1_655
B1_6 Co2_6 2.063580 1_555
B1_6 Co2_7 2.063580 1_554
B1_6 Co1_2 2.063610 1_655
B1_6 Co1_3 2.063610 1_654
B1_6 Co0_7 2.063622 1_554
B1_6 Co0_6 2.063622 1_555
B1_6 Tb0_0 2.908048 1_665
B1_6 Tb0_6 2.908061 1_555
B1_6 Tb0_2 2.908071 1_655
B1_7 Co2_6 2.063580 1_555
B1_7 Co2_7 2.063580 1_555
B1_7 Co1_2 2.063610 1_655
B1_7 Co1_3 2.063610 1_655
B1_7 Co0_7 2.063622 1_555
B1_7 Co0_6 2.063622 1_555
B1_7 Tb0_1 2.908048 1_665
B1_7 Tb0_7 2.908061 1_555
B1_7 Tb0_3 2.908071 1_655
