# generated using pymatgen
data_K4RbCuSb2
_symmetry_space_group_name_H-M   'P 1'
_cell_length_a   10.06489252
_cell_length_b   10.06489224
_cell_length_c   10.06489183
_cell_angle_alpha   34.55461753
_cell_angle_beta   34.55461946
_cell_angle_gamma   34.55461487
_symmetry_Int_Tables_number   1
_chemical_formula_structural   K4RbCuSb2
_chemical_formula_sum   'K4 Rb1 Cu1 Sb2'
_cell_volume   292.65218501
_cell_formula_units_Z   1
loop_
 _symmetry_equiv_pos_site_id
 _symmetry_equiv_pos_as_xyz
  1  'x, y, z'
loop_
 _atom_site_type_symbol
 _atom_site_label
 _atom_site_symmetry_multiplicity
 _atom_site_fract_x
 _atom_site_fract_y
 _atom_site_fract_z
 _atom_site_occupancy
  K  K0  1  0.36437201  0.36437201  0.36437201  1
  K  K1  1  0.63562799  0.63562799  0.63562799  1
  K  K2  1  0.21753426  0.21753426  0.21753426  1
  K  K3  1  0.78246574  0.78246574  0.78246574  1
  Rb  Rb0  1  0.50000000  0.50000000  0.50000000  1
  Cu  Cu0  1  0.00000000  0.00000000  0.00000000  1
  Sb  Sb0  1  0.08752105  0.08752105  0.08752105  1
  Sb  Sb1  1  0.91247895  0.91247895  0.91247895  1
loop_
_geom_bond_atom_site_label_1
_geom_bond_atom_site_label_2
_geom_bond_distance
_geom_bond_site_symmetry_2
K0 Sb0 3.805340 1_565
K0 Sb0 3.805340 1_556
K0 Sb0 3.805340 1_655
K0 Rb0 3.846893 1_555
K1 Sb1 3.805340 1_545
K1 Sb1 3.805340 1_554
K1 Sb1 3.805340 1_455
K1 Rb0 3.846893 1_555
K2 Sb1 3.543640 1_454
K2 Sb1 3.543640 1_445
K2 Sb1 3.543640 1_544
K2 Sb0 3.687638 1_555
K2 Rb0 3.741083 1_545
K2 Rb0 3.741084 1_554
K2 Rb0 3.741084 1_455
K3 Sb0 3.543640 1_656
K3 Sb0 3.543640 1_665
K3 Sb0 3.543640 1_566
K3 Sb1 3.687638 1_555
K3 Rb0 3.741083 1_565
K3 Rb0 3.741084 1_556
K3 Rb0 3.741084 1_655
Rb0 Sb1 4.117455 1_545
Rb0 Sb0 4.117455 1_565
Rb0 Sb1 4.117455 1_455
Rb0 Sb0 4.117455 1_655
Rb0 Sb1 4.117455 1_554
Rb0 Sb0 4.117455 1_556
Cu0 Sb0 2.482409 1_555
Cu0 Sb1 2.482409 1_444
Cu0 K0 3.562179 1_545
Cu0 K1 3.562179 1_454
Cu0 K0 3.562179 1_455
Cu0 K1 3.562179 1_544
Cu0 K0 3.562180 1_554
Cu0 K1 3.562180 1_445
