# generated using pymatgen
data_CaZnSn
_symmetry_space_group_name_H-M   'P 1'
_cell_length_a   4.65142663
_cell_length_b   4.65142673
_cell_length_c   7.57786106
_cell_angle_alpha   90.00000000
_cell_angle_beta   90.00000000
_cell_angle_gamma   119.99999935
_symmetry_Int_Tables_number   1
_chemical_formula_structural   CaZnSn
_chemical_formula_sum   'Ca2 Zn2 Sn2'
_cell_volume   141.98734294
_cell_formula_units_Z   2
loop_
 _symmetry_equiv_pos_site_id
 _symmetry_equiv_pos_as_xyz
  1  'x, y, z'
loop_
 _atom_site_type_symbol
 _atom_site_label
 _atom_site_symmetry_multiplicity
 _atom_site_fract_x
 _atom_site_fract_y
 _atom_site_fract_z
 _atom_site_occupancy
  Ca  Ca0  1  0.00000000  0.00000000  0.24486757  1
  Ca  Ca1  1  0.00000000  0.00000000  0.74486757  1
  Zn  Zn0  1  0.33333300  0.66666700  0.05650850  1
  Zn  Zn1  1  0.66666700  0.33333300  0.55650850  1
  Sn  Sn0  1  0.33333300  0.66666700  0.46442493  1
  Sn  Sn1  1  0.66666700  0.33333300  0.96442493  1
loop_
_geom_bond_atom_site_label_1
_geom_bond_atom_site_label_2
_geom_bond_distance
_geom_bond_site_symmetry_2
Ca0 Zn0 3.041260 1_545
Ca0 Zn0 3.041264 1_445
Ca0 Zn0 3.041264 1_555
Ca0 Sn0 3.159123 1_545
Ca0 Sn0 3.159126 1_445
Ca0 Sn0 3.159126 1_555
Ca0 Sn1 3.424645 1_454
Ca0 Sn1 3.424648 1_554
Ca0 Sn1 3.424648 1_444
Ca0 Zn1 3.576161 1_455
Ca0 Zn1 3.576164 1_555
Ca0 Zn1 3.576164 1_445
Ca0 Ca1 3.788931 1_555
Ca0 Ca1 3.788931 1_554
Ca1 Zn1 3.041260 1_455
Ca1 Zn1 3.041264 1_555
Ca1 Zn1 3.041264 1_445
Ca1 Sn1 3.159123 1_455
Ca1 Sn1 3.159126 1_555
Ca1 Sn1 3.159126 1_445
Ca1 Sn0 3.424645 1_545
Ca1 Sn0 3.424648 1_445
Ca1 Sn0 3.424648 1_555
Ca1 Zn0 3.576161 1_546
Ca1 Zn0 3.576164 1_446
Ca1 Zn0 3.576164 1_556
Sn0 Zn1 2.774676 1_455
Sn0 Zn1 2.774676 1_565
Sn0 Zn1 2.774684 1_555
Sn0 Zn0 3.091134 1_555
Sn1 Zn0 2.774676 1_656
Sn1 Zn0 2.774676 1_546
Sn1 Zn0 2.774684 1_556
Sn1 Zn1 3.091134 1_555
