# generated using pymatgen
data_Hf6Ti4Ga12Rh7
_symmetry_space_group_name_H-M   'P 1'
_cell_length_a   8.67824833
_cell_length_b   8.67824816
_cell_length_c   8.67824867
_cell_angle_alpha   60.00000177
_cell_angle_beta   60.00000241
_cell_angle_gamma   60.00000097
_symmetry_Int_Tables_number   1
_chemical_formula_structural   Hf6Ti4Ga12Rh7
_chemical_formula_sum   'Hf6 Ti4 Ga12 Rh7'
_cell_volume   462.14818115
_cell_formula_units_Z   1
loop_
 _symmetry_equiv_pos_site_id
 _symmetry_equiv_pos_as_xyz
  1  'x, y, z'
loop_
 _atom_site_type_symbol
 _atom_site_label
 _atom_site_symmetry_multiplicity
 _atom_site_fract_x
 _atom_site_fract_y
 _atom_site_fract_z
 _atom_site_occupancy
  Hf  Hf0  1  0.69139771  0.69139771  0.30860229  1
  Hf  Hf1  1  0.30860229  0.69139771  0.30860229  1
  Hf  Hf2  1  0.69139771  0.30860229  0.30860229  1
  Hf  Hf3  1  0.30860229  0.30860229  0.69139771  1
  Hf  Hf4  1  0.69139771  0.30860229  0.69139771  1
  Hf  Hf5  1  0.30860229  0.69139771  0.69139771  1
  Ti  Ti0  1  0.87873149  0.87873149  0.36380654  1
  Ti  Ti1  1  0.87873149  0.36380654  0.87873149  1
  Ti  Ti2  1  0.36380654  0.87873149  0.87873149  1
  Ti  Ti3  1  0.87873149  0.87873149  0.87873149  1
  Ga  Ga0  1  0.11976119  0.11976119  0.64071544  1
  Ga  Ga1  1  0.11976119  0.64071544  0.11976119  1
  Ga  Ga2  1  0.64071544  0.11976119  0.11976119  1
  Ga  Ga3  1  0.11976119  0.11976119  0.11976119  1
  Ga  Ga4  1  0.65886653  0.65886653  0.02340042  1
  Ga  Ga5  1  0.65886653  0.02340042  0.65886653  1
  Ga  Ga6  1  0.02340042  0.65886653  0.65886653  1
  Ga  Ga7  1  0.65886653  0.65886653  0.65886653  1
  Ga  Ga8  1  0.34024252  0.34024252  0.97927243  1
  Ga  Ga9  1  0.34024252  0.97927243  0.34024252  1
  Ga  Ga10  1  0.97927243  0.34024252  0.34024252  1
  Ga  Ga11  1  0.34024252  0.34024252  0.34024252  1
  Rh  Rh0  1  0.00000000  0.00000000  0.00000000  1
  Rh  Rh1  1  0.99775998  0.99775998  0.50224002  1
  Rh  Rh2  1  0.50224002  0.99775998  0.50224002  1
  Rh  Rh3  1  0.99775998  0.50224002  0.50224002  1
  Rh  Rh4  1  0.50224002  0.50224002  0.99775998  1
  Rh  Rh5  1  0.99775998  0.50224002  0.99775998  1
  Rh  Rh6  1  0.50224002  0.99775998  0.99775998  1
loop_
_geom_bond_atom_site_label_1
_geom_bond_atom_site_label_2
_geom_bond_distance
_geom_bond_site_symmetry_2
Hf0 Ti3 3.117076 1_554
Hf0 Ti0 3.117081 1_555
Hf0 Rh2 3.151513 1_555
Hf0 Rh3 3.151513 1_555
Hf0 Rh6 3.151513 1_554
Hf0 Rh5 3.151513 1_554
Hf1 Ti0 3.117074 1_455
Hf1 Ti2 3.117074 1_554
Hf1 Rh3 3.151513 1_455
Hf1 Rh1 3.151513 1_455
Hf1 Rh6 3.151513 1_554
Hf1 Rh4 3.151513 1_554
Hf2 Ti0 3.117074 1_545
Hf2 Ti1 3.117074 1_554
Hf2 Rh2 3.151513 1_545
Hf2 Rh1 3.151513 1_545
Hf2 Rh4 3.151513 1_554
Hf2 Rh5 3.151513 1_554
Hf3 Ti2 3.117074 1_545
Hf3 Ti1 3.117074 1_455
Hf3 Rh2 3.151513 1_545
Hf3 Rh3 3.151513 1_455
Hf3 Rh6 3.151513 1_545
Hf3 Rh5 3.151513 1_455
Hf4 Ti3 3.117075 1_545
Hf4 Ti1 3.117081 1_555
Hf4 Rh3 3.151513 1_555
Hf4 Rh1 3.151513 1_545
Hf4 Rh6 3.151513 1_545
Hf4 Rh4 3.151513 1_555
Hf5 Ti3 3.117075 1_455
Hf5 Ti2 3.117081 1_555
Hf5 Rh2 3.151513 1_555
Hf5 Rh1 3.151513 1_455
Hf5 Rh4 3.151513 1_555
Hf5 Rh5 3.151513 1_455
Ga0 Rh0 2.545804 1_556
Ga0 Rh1 2.711403 1_445
Ga0 Rh3 2.711410 1_455
Ga0 Rh2 2.711410 1_545
Ga0 Ga10 2.793565 1_455
Ga0 Ga9 2.793565 1_545
Ga0 Ga11 2.793570 1_555
Ga0 Ti3 2.958248 1_445
Ga0 Ti1 2.958261 1_455
Ga0 Ti2 2.958261 1_545
Ga0 Hf5 3.113215 1_545
Ga0 Hf4 3.113215 1_455
Ga0 Hf3 3.113223 1_555
Ga1 Rh0 2.545804 1_565
Ga1 Rh5 2.711403 1_454
Ga1 Rh4 2.711410 1_554
Ga1 Rh3 2.711410 1_455
Ga1 Ga8 2.793565 1_554
Ga1 Ga10 2.793565 1_455
Ga1 Ga11 2.793570 1_555
Ga1 Ti3 2.958248 1_454
Ga1 Ti2 2.958261 1_554
Ga1 Ti0 2.958261 1_455
Ga1 Hf0 3.113215 1_455
Ga1 Hf5 3.113215 1_554
Ga1 Hf1 3.113223 1_555
Ga2 Rh0 2.545804 1_655
Ga2 Rh6 2.711403 1_544
Ga2 Rh4 2.711410 1_554
Ga2 Rh2 2.711410 1_545
Ga2 Ga8 2.793565 1_554
Ga2 Ga9 2.793565 1_545
Ga2 Ti3 2.958248 1_544
Ga2 Ti1 2.958261 1_554
Ga2 Ti0 2.958261 1_545
Ga2 Hf0 3.113215 1_545
Ga2 Hf4 3.113215 1_554
Ga2 Hf2 3.113223 1_555
Ga3 Rh0 2.545797 1_555
Ga3 Rh5 2.711410 1_454
Ga3 Rh6 2.711410 1_544
Ga3 Rh1 2.711410 1_445
Ga3 Ga8 2.793572 1_554
Ga3 Ga9 2.793572 1_545
Ga3 Ti0 2.958248 1_445
Ga3 Ti1 2.958248 1_454
Ga3 Ti2 2.958248 1_544
Ga3 Hf1 3.113217 1_545
Ga3 Hf2 3.113217 1_455
Ga3 Hf3 3.113217 1_554
Ga4 Rh4 2.489386 1_554
Ga4 Rh6 2.489386 1_554
Ga4 Rh5 2.489386 1_554
Ga4 Ti1 2.776160 1_554
Ga4 Ti2 2.776160 1_554
Ga4 Ti3 2.776167 1_554
Ga4 Hf2 2.786121 1_555
Ga4 Hf0 2.786121 1_555
Ga4 Hf1 2.786121 1_555
Ga5 Rh2 2.489386 1_545
Ga5 Rh1 2.489386 1_545
Ga5 Rh6 2.489387 1_545
Ga5 Ti2 2.776160 1_545
Ga5 Ti0 2.776160 1_545
Ga5 Ti3 2.776167 1_545
Ga5 Hf4 2.786121 1_555
Ga5 Hf3 2.786121 1_555
Ga5 Hf2 2.786121 1_555
Ga6 Rh1 2.489386 1_455
Ga6 Rh3 2.489386 1_455
Ga6 Rh5 2.489387 1_455
Ga6 Ti1 2.776160 1_455
Ga6 Ti0 2.776160 1_455
Ga6 Ti3 2.776167 1_455
Ga6 Hf5 2.786121 1_555
Ga6 Hf3 2.786121 1_555
Ga6 Hf1 2.786121 1_555
Ga7 Rh2 2.489386 1_555
Ga7 Rh3 2.489386 1_555
Ga7 Rh4 2.489387 1_555
Ga7 Ti1 2.776165 1_555
Ga7 Ti2 2.776165 1_555
Ga7 Ti0 2.776165 1_555
Ga7 Hf4 2.786121 1_555
Ga7 Hf5 2.786121 1_555
Ga7 Hf0 2.786121 1_555
Ga8 Rh4 2.531034 1_555
Ga8 Rh6 2.531034 1_545
Ga8 Rh5 2.531034 1_455
Ga8 Hf5 2.799889 1_555
Ga8 Hf3 2.799889 1_555
Ga8 Hf4 2.799889 1_555
Ga9 Rh2 2.531034 1_555
Ga9 Rh1 2.531034 1_455
Ga9 Rh6 2.531034 1_554
Ga9 Hf1 2.799889 1_555
Ga9 Hf0 2.799889 1_555
Ga9 Hf5 2.799889 1_555
Ga10 Rh1 2.531034 1_545
Ga10 Rh3 2.531034 1_555
Ga10 Rh5 2.531034 1_554
Ga10 Ga3 2.793572 1_655
Ga10 Hf2 2.799889 1_555
Ga10 Hf0 2.799889 1_555
Ga10 Hf4 2.799889 1_555
Ga11 Rh2 2.531034 1_545
Ga11 Rh3 2.531034 1_455
Ga11 Rh4 2.531034 1_554
Ga11 Ga2 2.793570 1_555
Ga11 Hf1 2.799889 1_555
Ga11 Hf2 2.799889 1_555
Ga11 Hf3 2.799889 1_555
Rh0 Ti3 2.577839 1_444
Rh0 Ti1 2.577846 1_454
Rh0 Ti2 2.577846 1_544
Rh0 Ti0 2.577846 1_445
Rh1 Ti0 2.669492 1_555
Rh1 Ti3 2.669500 1_555
Rh2 Ti0 2.669499 1_555
Rh2 Ti2 2.669499 1_555
Rh3 Ti0 2.669499 1_555
Rh3 Ti1 2.669499 1_555
Rh4 Ti2 2.669499 1_555
Rh4 Ti1 2.669499 1_555
Rh5 Ti1 2.669492 1_555
Rh5 Ti3 2.669500 1_555
Rh6 Ti2 2.669492 1_555
Rh6 Ti3 2.669500 1_555
