# generated using pymatgen
data_Pr12InPt7
_symmetry_space_group_name_H-M   'P 1'
_cell_length_a   11.29831320
_cell_length_b   11.29832171
_cell_length_c   11.29836821
_cell_angle_alpha   114.62770905
_cell_angle_beta   114.62767516
_cell_angle_gamma   99.58770040
_symmetry_Int_Tables_number   1
_chemical_formula_structural   Pr12InPt7
_chemical_formula_sum   'Pr24 In2 Pt14'
_cell_volume   1086.10831794
_cell_formula_units_Z   2
loop_
 _symmetry_equiv_pos_site_id
 _symmetry_equiv_pos_as_xyz
  1  'x, y, z'
loop_
 _atom_site_type_symbol
 _atom_site_label
 _atom_site_symmetry_multiplicity
 _atom_site_fract_x
 _atom_site_fract_y
 _atom_site_fract_z
 _atom_site_occupancy
  Pr  Pr0  1  0.85100477  0.56986661  0.13496492  1
  Pr  Pr1  1  0.56509684  0.28396158  0.13496694  1
  Pr  Pr2  1  0.14899563  0.43012976  0.86503627  1
  Pr  Pr3  1  0.93490411  0.06987127  0.71886511  1
  Pr  Pr4  1  0.28396168  0.14899315  0.71886456  1
  Pr  Pr5  1  0.43013081  0.56509696  0.28113552  1
  Pr  Pr6  1  0.64899511  0.78396158  0.71886376  1
  Pr  Pr7  1  0.78395962  0.06509836  0.13496595  1
  Pr  Pr8  1  0.93013353  0.64899664  0.86503609  1
  Pr  Pr9  1  0.43490335  0.71603975  0.86503522  1
  Pr  Pr10  1  0.67547568  0.17547461  0.85095063  1
  Pr  Pr11  1  0.06509995  0.93013216  0.28113808  1
  Pr  Pr12  1  0.71603874  0.85100542  0.28113802  1
  Pr  Pr13  1  0.56986986  0.43490148  0.71886170  1
  Pr  Pr14  1  0.63600542  0.13600635  0.50000028  1
  Pr  Pr15  1  0.13600609  0.63600637  0.49999869  1
  Pr  Pr16  1  0.86399100  0.36399234  0.49999948  1
  Pr  Pr17  1  0.36399561  0.86399613  0.50000042  1
  Pr  Pr18  1  0.17547668  0.32452604  0.50000091  1
  Pr  Pr19  1  0.21603980  0.93490490  0.86503745  1
  Pr  Pr20  1  0.82452444  0.67547659  0.50000243  1
  Pr  Pr21  1  0.32452576  0.82452465  0.14904994  1
  Pr  Pr22  1  0.35100669  0.21603879  0.28113726  1
  Pr  Pr23  1  0.06987055  0.35100577  0.13496573  1
  In  In0  1  0.49999561  0.49999721  -0.00000049  1
  In  In1  1  0.00000367  0.00000397  0.00000003  1
  Pt  Pt0  1  0.02010288  0.86998135  0.49999989  1
  Pt  Pt1  1  0.97989798  0.13001784  0.50000196  1
  Pt  Pt2  1  0.63000885  0.47989627  0.49999689  1
  Pt  Pt3  1  0.52010384  0.02010819  0.15012234  1
  Pt  Pt4  1  0.13002012  0.63001595  0.15012399  1
  Pt  Pt5  1  0.47989166  0.97989438  0.84987669  1
  Pt  Pt6  1  0.12583799  0.62583793  0.75167756  1
  Pt  Pt7  1  0.62584003  0.87415923  0.50000074  1
  Pt  Pt8  1  0.37416244  0.12584299  0.50000056  1
  Pt  Pt9  1  0.87415240  0.37415281  0.24830616  1
  Pt  Pt10  1  0.25000134  0.25000179  0.00000322  1
  Pt  Pt11  1  0.74999824  0.74999858  -0.00000305  1
  Pt  Pt12  1  0.36998774  0.52010151  0.49999922  1
  Pt  Pt13  1  0.86998447  0.36998473  0.84987793  1
loop_
_geom_bond_atom_site_label_1
_geom_bond_atom_site_label_2
_geom_bond_distance
_geom_bond_site_symmetry_2
Pr0 Pt9 2.978482 1_555
Pr0 Pt4 3.027900 1_655
Pr0 Pt11 3.111203 1_555
Pr0 Pt13 3.193028 1_554
Pr0 Pt0 3.431752 1_655
Pr1 Pt9 2.978490 1_555
Pr1 Pt3 3.027849 1_555
Pr1 Pt10 3.111161 1_555
Pr1 Pt5 3.193046 1_544
Pr1 Pt2 3.431739 1_555
Pr2 Pt6 2.978565 1_555
Pr2 Pt13 3.027856 1_455
Pr2 Pt10 3.111152 1_556
Pr2 Pt4 3.193020 1_556
Pr2 Pt1 3.431736 1_455
Pr3 Pt7 2.978553 1_545
Pr3 Pt1 3.027881 1_555
Pr3 Pt10 3.111189 1_656
Pr3 Pt0 3.193034 1_645
Pr3 Pt13 3.431716 1_555
Pr4 Pt8 2.978566 1_555
Pr4 Pt0 3.027899 1_545
Pr4 Pt10 3.111206 1_556
Pr4 Pt1 3.193022 1_455
Pr4 Pt5 3.431680 1_545
Pr5 Pt7 2.978534 1_555
Pr5 Pt12 3.027874 1_555
Pr5 Pt10 3.111157 1_555
Pr5 Pt2 3.192966 1_555
Pr5 Pt4 3.431683 1_555
Pr6 Pt7 2.978521 1_555
Pr6 Pt12 3.027879 1_555
Pr6 Pt11 3.111170 1_556
Pr6 Pt2 3.192996 1_555
Pr6 Pt5 3.431744 1_555
Pr7 Pt9 2.978477 1_555
Pr7 Pt3 3.027878 1_555
Pr7 Pt11 3.111200 1_545
Pr7 Pt5 3.193050 1_544
Pr7 Pt1 3.431769 1_555
Pr8 Pt6 2.978523 1_655
Pr8 Pt13 3.027868 1_555
Pr8 Pt11 3.111173 1_556
Pr8 Pt4 3.193059 1_656
Pr8 Pt2 3.431820 1_555
Pr9 Pt6 2.978548 1_555
Pr9 Pt5 3.027880 1_555
Pr9 Pt11 3.111158 1_556
Pr9 Pt3 3.193055 1_566
Pr9 Pt12 3.431785 1_555
Pr10 Pt5 2.845143 1_545
Pr10 Pt13 2.845153 1_555
Pr10 Pt9 3.428735 1_556
Pr10 Pt7 3.726516 1_545
Pr10 Pt8 3.726527 1_555
Pr11 Pt8 2.978537 1_565
Pr11 Pt0 3.027909 1_555
Pr11 Pt11 3.111230 1_455
Pr11 Pt1 3.193031 1_465
Pr11 Pt4 3.431747 1_555
Pr12 Pt7 2.978528 1_555
Pr12 Pt1 3.027905 1_565
Pr12 Pt11 3.111226 1_555
Pr12 Pt0 3.193020 1_655
Pr12 Pt3 3.431765 1_565
Pr13 Pt8 2.978498 1_555
Pr13 Pt2 3.027858 1_555
Pr13 Pt11 3.111179 1_556
Pr13 Pt12 3.192988 1_555
Pr13 Pt13 3.431712 1_555
Pr14 Pt8 2.941440 1_555
Pr14 Pt7 2.941487 1_545
Pr14 Pt13 3.139486 1_555
Pr14 Pt3 3.139487 1_555
Pr15 Pt6 2.941492 1_555
Pr15 Pt9 2.941572 1_455
Pr15 Pt0 3.139455 1_555
Pr15 Pt12 3.139534 1_555
Pr16 Pt6 2.941479 1_655
Pr16 Pt9 2.941583 1_555
Pr16 Pt1 3.139481 1_555
Pr16 Pt2 3.139529 1_555
Pr17 Pt7 2.941453 1_555
Pr17 Pt8 2.941479 1_565
Pr17 Pt4 3.139475 1_555
Pr17 Pt5 3.139481 1_555
Pr18 Pt1 2.845126 1_455
Pr18 Pt12 2.845128 1_555
Pr18 Pt8 3.428827 1_555
Pr18 Pt6 3.726497 1_555
Pr18 Pt9 3.726592 1_455
Pr19 Pt6 2.978561 1_555
Pr19 Pt5 3.027861 1_555
Pr19 Pt10 3.111171 1_566
Pr19 Pt3 3.193004 1_566
Pr19 Pt0 3.431764 1_555
Pr20 Pt0 2.845110 1_655
Pr20 Pt2 2.845144 1_555
Pr20 Pt7 3.428812 1_555
Pr20 Pt6 3.726502 1_655
Pr20 Pt9 3.726604 1_555
Pr21 Pt4 2.845129 1_555
Pr21 Pt3 2.845135 1_565
Pr21 Pt6 3.428880 1_554
Pr21 Pt7 3.726523 1_555
Pr21 Pt8 3.726531 1_565
Pr22 Pt8 2.978507 1_555
Pr22 Pt2 3.027835 1_555
Pr22 Pt10 3.111178 1_555
Pr22 Pt12 3.192984 1_555
Pr22 Pt3 3.431679 1_555
Pr23 Pt9 2.978520 1_455
Pr23 Pt4 3.027849 1_555
Pr23 Pt10 3.111144 1_555
Pr23 Pt13 3.193045 1_454
Pr23 Pt12 3.431756 1_555
In0 Pr2 3.404292 1_554
In0 Pr5 3.404316 1_555
In0 Pr1 3.404325 1_555
In0 Pr4 3.404332 1_554
In0 Pr9 3.404360 1_554
In0 Pr12 3.404383 1_555
In0 Pr0 3.404383 1_555
In0 Pr13 3.404411 1_554
In1 Pr19 3.404288 1_544
In1 Pr23 3.404311 1_555
In1 Pr3 3.404324 1_454
In1 Pr22 3.404329 1_555
In1 Pr8 3.404367 1_444
In1 Pr6 3.404379 1_444
In1 Pr7 3.404389 1_455
In1 Pr11 3.404396 1_545
