# generated using pymatgen
data_Cs4HfSnAs4
_symmetry_space_group_name_H-M   'P 1'
_cell_length_a   9.06432985
_cell_length_b   9.06433026
_cell_length_c   9.06433056
_cell_angle_alpha   136.89068456
_cell_angle_beta   127.47418311
_cell_angle_gamma   70.21722400
_symmetry_Int_Tables_number   1
_chemical_formula_structural   Cs4HfSnAs4
_chemical_formula_sum   'Cs4 Hf1 Sn1 As4'
_cell_volume   396.17216139
_cell_formula_units_Z   1
loop_
 _symmetry_equiv_pos_site_id
 _symmetry_equiv_pos_as_xyz
  1  'x, y, z'
loop_
 _atom_site_type_symbol
 _atom_site_label
 _atom_site_symmetry_multiplicity
 _atom_site_fract_x
 _atom_site_fract_y
 _atom_site_fract_z
 _atom_site_occupancy
  Cs  Cs0  1  0.99854163  0.14506322  0.84366366  1
  Cs  Cs1  1  0.00145837  0.84512203  0.14652159  1
  Cs  Cs2  1  0.69860044  0.35493678  0.35347841  1
  Cs  Cs3  1  0.30139956  0.65487797  0.65633634  1
  Hf  Hf0  1  0.50000000  0.25000000  0.75000000  1
  Sn  Sn0  1  0.50000000  0.75000000  0.25000000  1
  As  As0  1  0.22492638  0.39780612  0.81777731  1
  As  As1  1  0.77507362  0.59285092  0.17287973  1
  As  As2  1  0.41997119  0.10219388  0.32712027  1
  As  As3  1  0.58002881  0.90714908  0.68222269  1
loop_
_geom_bond_atom_site_label_1
_geom_bond_atom_site_label_2
_geom_bond_distance
_geom_bond_site_symmetry_2
As0 Hf0 2.605787 1_555
As0 Sn0 2.645251 1_556
As0 Cs1 3.683258 1_556
As0 Cs1 3.686098 1_545
As0 Cs0 3.750636 1_455
As0 Cs2 3.880623 1_455
As0 Cs3 3.918941 1_555
As1 Hf0 2.605787 1_554
As1 Sn0 2.645251 1_555
As1 Cs0 3.683258 1_565
As1 Cs0 3.686098 1_554
As1 Cs1 3.750636 1_655
As1 Cs3 3.880623 1_655
As1 Cs2 3.918941 1_555
As2 Hf0 2.605788 1_555
As2 Sn0 2.645251 1_545
As2 Cs3 3.683258 1_544
As2 Cs3 3.686098 1_555
As2 Cs2 3.750636 1_555
As2 Cs0 3.880624 1_454
As2 Cs1 3.918940 1_545
As3 Hf0 2.605787 1_565
As3 Sn0 2.645251 1_555
As3 Cs2 3.683258 1_555
As3 Cs2 3.686098 1_566
As3 Cs3 3.750636 1_555
As3 Cs1 3.880624 1_656
As3 Cs0 3.918940 1_565
