# generated using pymatgen
data_HfZr5Bi6
_symmetry_space_group_name_H-M   'P 1'
_cell_length_a   5.75586876
_cell_length_b   5.75586759
_cell_length_c   14.42531447
_cell_angle_alpha   90.00000000
_cell_angle_beta   90.00000000
_cell_angle_gamma   140.60251130
_symmetry_Int_Tables_number   1
_chemical_formula_structural   HfZr5Bi6
_chemical_formula_sum   'Hf1 Zr5 Bi6'
_cell_volume   303.32846600
_cell_formula_units_Z   1
loop_
 _symmetry_equiv_pos_site_id
 _symmetry_equiv_pos_as_xyz
  1  'x, y, z'
loop_
 _atom_site_type_symbol
 _atom_site_label
 _atom_site_symmetry_multiplicity
 _atom_site_fract_x
 _atom_site_fract_y
 _atom_site_fract_z
 _atom_site_occupancy
  Hf  Hf0  1  0.39342222  0.60657778  0.75000000  1
  Zr  Zr0  1  0.60927703  0.39072297  0.25000000  1
  Zr  Zr1  1  0.92753329  0.07246671  0.10862224  1
  Zr  Zr2  1  0.07119200  0.92880800  0.88949077  1
  Zr  Zr3  1  0.07119200  0.92880800  0.61050923  1
  Zr  Zr4  1  0.92753329  0.07246671  0.39137776  1
  Bi  Bi0  1  0.32313120  0.67686880  0.25000000  1
  Bi  Bi1  1  0.68004163  0.31995837  0.75000000  1
  Bi  Bi2  1  0.63988696  0.36011304  0.04935480  1
  Bi  Bi3  1  0.35845171  0.64154829  0.94898534  1
  Bi  Bi4  1  0.35845171  0.64154829  0.55101466  1
  Bi  Bi5  1  0.63988696  0.36011304  0.45064520  1
loop_
_geom_bond_atom_site_label_1
_geom_bond_atom_site_label_2
_geom_bond_distance
_geom_bond_site_symmetry_2
Bi0 Zr0 3.022619 1_565
Bi0 Zr0 3.022620 1_455
Bi0 Zr4 3.033770 1_455
Bi0 Zr1 3.033770 1_455
Bi0 Zr4 3.033771 1_565
Bi0 Zr1 3.033771 1_565
Bi0 Zr0 3.101262 1_555
Bi1 Hf0 3.018685 1_545
Bi1 Hf0 3.018686 1_655
Bi1 Zr2 3.033955 1_655
Bi1 Zr3 3.033955 1_655
Bi1 Zr2 3.033956 1_545
Bi1 Zr3 3.033956 1_545
Bi1 Hf0 3.106394 1_555
Bi2 Zr0 2.913321 1_555
Bi2 Zr2 3.104281 1_654
Bi2 Zr2 3.104282 1_544
Bi2 Zr1 3.129224 1_565
Bi2 Zr1 3.129225 1_455
Bi2 Zr1 3.232630 1_555
Bi3 Hf0 2.895340 1_555
Bi3 Zr1 3.102857 1_456
Bi3 Zr1 3.102857 1_566
Bi3 Zr2 3.133203 1_545
Bi3 Zr2 3.133204 1_655
Bi3 Zr2 3.229459 1_555
Bi4 Hf0 2.895340 1_555
Bi4 Zr4 3.102857 1_455
Bi4 Zr4 3.102857 1_565
Bi4 Zr3 3.133203 1_545
Bi4 Zr3 3.133204 1_655
Bi4 Zr3 3.229459 1_555
Bi5 Zr0 2.913321 1_555
Bi5 Zr3 3.104281 1_655
Bi5 Zr3 3.104282 1_545
Bi5 Zr4 3.129224 1_565
Bi5 Zr4 3.129225 1_455
Bi5 Zr4 3.232630 1_555
