# generated using pymatgen
data_Ca2GaPbF9
_symmetry_space_group_name_H-M   'P 1'
_cell_length_a   5.39881565
_cell_length_b   5.39987586
_cell_length_c   12.34559974
_cell_angle_alpha   91.59938259
_cell_angle_beta   100.81296073
_cell_angle_gamma   91.64476250
_symmetry_Int_Tables_number   1
_chemical_formula_structural   Ca2GaPbF9
_chemical_formula_sum   'Ca4 Ga2 Pb2 F18'
_cell_volume   353.17129204
_cell_formula_units_Z   2
loop_
 _symmetry_equiv_pos_site_id
 _symmetry_equiv_pos_as_xyz
  1  'x, y, z'
loop_
 _atom_site_type_symbol
 _atom_site_label
 _atom_site_symmetry_multiplicity
 _atom_site_fract_x
 _atom_site_fract_y
 _atom_site_fract_z
 _atom_site_occupancy
  Ca  Ca0  1  0.95930809  0.24264169  0.38780646  1
  Ca  Ca1  1  0.04069191  0.75735831  0.61219354  1
  Ca  Ca2  1  0.55039882  0.26488260  0.61224411  1
  Ca  Ca3  1  0.44960118  0.73511740  0.38775589  1
  Ga  Ga0  1  0.79490204  0.79565703  0.18204560  1
  Ga  Ga1  1  0.20509796  0.20434297  0.81795440  1
  Pb  Pb0  1  0.72739578  0.71664694  0.89320742  1
  Pb  Pb1  1  0.27260422  0.28335306  0.10679258  1
  F  F0  1  0.14868353  0.93697447  0.90600279  1
  F  F1  1  0.85131647  0.06302553  0.09399721  1
  F  F2  1  0.26540128  0.45472093  0.71984247  1
  F  F3  1  0.73459872  0.54527907  0.28015753  1
  F  F4  1  0.62156708  0.01139199  0.26969211  1
  F  F5  1  0.37843292  0.98860801  0.73030789  1
  F  F6  1  0.96016720  0.58970177  0.09430539  1
  F  F7  1  0.03983280  0.41029823  0.90569461  1
  F  F8  1  0.09201118  0.90125867  0.28380199  1
  F  F9  1  0.90798882  0.09874133  0.71619801  1
  F  F10  1  0.48451888  0.69938674  0.09114908  1
  F  F11  1  0.51548112  0.30061326  0.90885092  1
  F  F12  1  0.74823321  0.99221662  0.49839604  1
  F  F13  1  0.25176679  0.00778338  0.50160396  1
  F  F14  1  0.74952982  0.48954490  0.49600381  1
  F  F15  1  0.25047018  0.51045510  0.50399619  1
  F  F16  1  0.75781199  0.60041357  0.71250788  1
  F  F17  1  0.24218801  0.39958643  0.28749212  1
loop_
_geom_bond_atom_site_label_1
_geom_bond_atom_site_label_2
_geom_bond_distance
_geom_bond_site_symmetry_2
Ca0 F17 2.297454 1_655
Ca0 F14 2.323655 1_555
Ca0 F13 2.336068 1_655
Ca0 F15 2.351088 1_655
Ca0 F3 2.353447 1_555
Ca0 F12 2.364231 1_545
Ca0 F4 2.404255 1_555
Ca0 F8 2.418470 1_645
Ca1 F16 2.297454 1_455
Ca1 F15 2.323655 1_555
Ca1 F12 2.336068 1_455
Ca1 F14 2.351088 1_455
Ca1 F2 2.353447 1_555
Ca1 F13 2.364231 1_565
Ca1 F5 2.404255 1_555
Ca1 F9 2.418470 1_465
Ca2 F14 2.299581 1_555
Ca2 F16 2.303713 1_555
Ca2 F13 2.309084 1_555
Ca2 F9 2.326597 1_555
Ca2 F15 2.361487 1_555
Ca2 F5 2.400350 1_545
Ca2 F12 2.412910 1_545
Ca2 F2 2.442181 1_555
Ca3 F15 2.299581 1_555
Ca3 F17 2.303713 1_555
Ca3 F12 2.309084 1_555
Ca3 F8 2.326597 1_555
Ca3 F14 2.361487 1_555
Ca3 F4 2.400350 1_565
Ca3 F13 2.412910 1_565
Ca3 F3 2.442181 1_555
F0 Ga1 1.882916 1_565
F0 Pb0 2.512558 1_455
F1 Ga0 1.882916 1_545
F1 Pb1 2.512558 1_655
F2 Ga1 1.901357 1_555
F3 Ga0 1.901357 1_555
F4 Ga0 1.943140 1_545
F5 Ga1 1.943140 1_565
F6 Ga0 1.886426 1_555
F6 Pb1 2.383779 1_655
F6 Pb0 2.680795 1_554
F7 Ga1 1.886426 1_555
F7 Pb0 2.383779 1_455
F7 Pb1 2.680795 1_556
F8 Ga0 1.904650 1_455
F9 Ga1 1.904650 1_655
F10 Ga0 1.883977 1_555
F10 Pb1 2.520459 1_555
F11 Ga1 1.883977 1_555
F11 Pb0 2.520459 1_555
F16 Pb0 2.337258 1_555
F17 Pb1 2.337258 1_555
