# generated using pymatgen
data_Ba4InRhO8
_symmetry_space_group_name_H-M   'P 1'
_cell_length_a   7.24640995
_cell_length_b   7.24640978
_cell_length_c   5.90493618
_cell_angle_alpha   90.00000000
_cell_angle_beta   90.00000000
_cell_angle_gamma   131.96302539
_symmetry_Int_Tables_number   1
_chemical_formula_structural   Ba4InRhO8
_chemical_formula_sum   'Ba4 In1 Rh1 O8'
_cell_volume   230.56142153
_cell_formula_units_Z   1
loop_
 _symmetry_equiv_pos_site_id
 _symmetry_equiv_pos_as_xyz
  1  'x, y, z'
loop_
 _atom_site_type_symbol
 _atom_site_label
 _atom_site_symmetry_multiplicity
 _atom_site_fract_x
 _atom_site_fract_y
 _atom_site_fract_z
 _atom_site_occupancy
  Ba  Ba0  1  0.35776565  0.64223435  0.00000000  1
  Ba  Ba1  1  0.85783532  0.14216468  0.50000000  1
  Ba  Ba2  1  0.14216468  0.85783532  0.50000000  1
  Ba  Ba3  1  0.64223435  0.35776565  0.00000000  1
  In  In0  1  0.00000000  0.00000000  0.00000000  1
  Rh  Rh0  1  0.50000000  0.50000000  0.50000000  1
  O  O0  1  0.25982501  0.25982501  0.73576387  1
  O  O1  1  0.74017499  0.74017499  0.26423613  1
  O  O2  1  0.74017499  0.74017499  0.73576387  1
  O  O3  1  0.25982501  0.25982501  0.26423613  1
  O  O4  1  0.15979114  0.84020886  0.00000000  1
  O  O5  1  0.64803814  0.35196186  0.50000000  1
  O  O6  1  0.35196186  0.64803814  0.50000000  1
  O  O7  1  0.84020886  0.15979114  0.00000000  1
loop_
_geom_bond_atom_site_label_1
_geom_bond_atom_site_label_2
_geom_bond_distance
_geom_bond_site_symmetry_2
Ba0 O4 2.620776 1_555
Ba0 O3 2.826151 1_555
Ba0 O0 2.826151 1_554
Ba0 O1 2.826151 1_555
Ba0 O2 2.826151 1_554
Ba0 O6 2.953468 1_555
Ba0 O6 2.953468 1_554
Ba0 O7 2.958659 1_565
Ba0 O7 2.958659 1_455
Ba1 O5 2.777284 1_555
Ba1 O2 2.798064 1_545
Ba1 O1 2.798064 1_545
Ba1 O0 2.798064 1_655
Ba1 O3 2.798064 1_655
Ba1 O6 2.950541 1_655
Ba1 O6 2.950541 1_545
Ba1 O7 2.961674 1_556
Ba1 O7 2.961674 1_555
Ba2 O6 2.777284 1_555
Ba2 O0 2.798064 1_565
Ba2 O3 2.798064 1_565
Ba2 O2 2.798064 1_455
Ba2 O1 2.798064 1_455
Ba2 O5 2.950541 1_455
Ba2 O5 2.950541 1_565
Ba2 O4 2.961674 1_556
Ba2 O4 2.961674 1_555
Ba3 O7 2.620776 1_555
Ba3 O1 2.826151 1_555
Ba3 O2 2.826151 1_554
Ba3 O3 2.826151 1_555
Ba3 O0 2.826151 1_554
Ba3 O5 2.953468 1_555
Ba3 O5 2.953468 1_554
Ba3 O4 2.958659 1_545
Ba3 O4 2.958659 1_655
In0 O7 2.115307 1_455
In0 O4 2.115307 1_545
In0 O3 2.187178 1_555
In0 O1 2.187178 1_445
In0 O0 2.187178 1_554
In0 O2 2.187178 1_444
O0 Rh0 1.986319 1_555
O1 Rh0 1.986319 1_555
O2 Rh0 1.986319 1_555
O3 Rh0 1.986319 1_555
O5 Rh0 1.959721 1_555
O6 Rh0 1.959721 1_555
