# generated using pymatgen
data_Cs7Rb5(SnSe3)4
_symmetry_space_group_name_H-M   'P 1'
_cell_length_a   10.70267493
_cell_length_b   10.71189189
_cell_length_c   9.78754697
_cell_angle_alpha   85.35664685
_cell_angle_beta   85.45966099
_cell_angle_gamma   79.13934999
_symmetry_Int_Tables_number   1
_chemical_formula_structural   Cs7Rb5(SnSe3)4
_chemical_formula_sum   'Cs7 Rb5 Sn4 Se12'
_cell_volume   1096.04310965
_cell_formula_units_Z   1
loop_
 _symmetry_equiv_pos_site_id
 _symmetry_equiv_pos_as_xyz
  1  'x, y, z'
loop_
 _atom_site_type_symbol
 _atom_site_label
 _atom_site_symmetry_multiplicity
 _atom_site_fract_x
 _atom_site_fract_y
 _atom_site_fract_z
 _atom_site_occupancy
  Cs  Cs0  1  0.60887634  0.19965046  0.62580159  1
  Cs  Cs1  1  0.20022027  0.60848358  0.12633218  1
  Cs  Cs2  1  0.39089334  0.79939304  0.37364565  1
  Cs  Cs3  1  0.75128214  0.79964054  0.69633415  1
  Cs  Cs4  1  0.20172656  0.24743755  0.80831739  1
  Cs  Cs5  1  0.24757088  0.20062594  0.30711517  1
  Cs  Cs6  1  0.80055093  0.75306179  0.19232362  1
  Rb  Rb0  1  0.59210979  0.41055617  0.25079560  1
  Rb  Rb1  1  0.40891343  0.59148234  0.75059177  1
  Rb  Rb2  1  0.91913010  0.08160055  0.25081250  1
  Rb  Rb3  1  0.08048917  0.91760065  0.75071617  1
  Rb  Rb4  1  0.80252957  0.38452805  0.86796791  1
  Sn  Sn0  1  0.91295333  0.42505888  0.45479834  1
  Sn  Sn1  1  0.57567444  0.08879402  0.04203639  1
  Sn  Sn2  1  0.08533149  0.57368337  0.54284699  1
  Sn  Sn3  1  0.42597412  0.91434584  0.95664017  1
  Se  Se0  1  0.05493207  0.58578555  0.80323881  1
  Se  Se1  1  0.40845535  0.93787423  0.69697064  1
  Se  Se2  1  0.93524057  0.41032301  0.19405344  1
  Se  Se3  1  0.58977777  0.06153400  0.30198714  1
  Se  Se4  1  0.03968032  0.79780641  0.43231963  1
  Se  Se5  1  0.20247359  0.95960345  0.06893398  1
  Se  Se6  1  0.96013499  0.20291195  0.57003144  1
  Se  Se7  1  0.79962395  0.04511776  0.93109271  1
  Se  Se8  1  0.68697364  0.53129436  0.53168997  1
  Se  Se9  1  0.47232033  0.31739674  0.97163487  1
  Se  Se10  1  0.31357210  0.46740309  0.47367707  1
  Se  Se11  1  0.53258941  0.68700568  0.02729268  1
loop_
_geom_bond_atom_site_label_1
_geom_bond_atom_site_label_2
_geom_bond_distance
_geom_bond_site_symmetry_2
Cs0 Se3 3.640213 1_555
Cs0 Se6 3.762158 1_555
Cs0 Se9 3.794400 1_555
Cs0 Se8 3.825558 1_555
Cs0 Se1 3.829278 1_545
Cs0 Se7 3.837684 1_555
Cs0 Se10 4.131556 1_555
Cs1 Se0 3.677311 1_554
Cs1 Se5 3.761972 1_555
Cs1 Se10 3.800464 1_555
Cs1 Se2 3.838108 1_455
Cs1 Se11 3.840661 1_555
Cs1 Se4 3.858732 1_555
Cs1 Se9 4.140082 1_554
Cs2 Se1 3.634488 1_555
Cs2 Se4 3.760357 1_555
Cs2 Se11 3.794699 1_555
Cs2 Se3 3.821655 1_565
Cs2 Se10 3.835005 1_555
Cs2 Se5 3.837419 1_555
Cs2 Se8 4.160443 1_555
Cs3 Se8 3.606159 1_555
Cs3 Se1 3.688612 1_555
Cs3 Se7 3.760410 1_565
Cs3 Se0 3.774779 1_655
Cs3 Se4 3.863626 1_655
Cs3 Se11 4.081428 1_556
Cs4 Se9 3.639879 1_555
Cs4 Se0 3.666618 1_555
Cs4 Se6 3.735252 1_455
Cs4 Se1 3.810184 1_545
Cs4 Se5 3.838442 1_546
Cs4 Se10 4.111584 1_555
Cs5 Se10 3.608369 1_555
Cs5 Se3 3.682819 1_555
Cs5 Se5 3.735698 1_545
Cs5 Se2 3.846806 1_455
Cs5 Se6 3.849001 1_455
Cs5 Se9 4.165405 1_554
Cs6 Se11 3.608013 1_555
Cs6 Se2 3.681949 1_555
Cs6 Se4 3.727450 1_655
Cs6 Se3 3.813304 1_565
Cs6 Se7 3.875817 1_564
Cs6 Se8 4.162341 1_555
Rb0 Se9 3.403405 1_554
Rb0 Se8 3.431395 1_555
Rb0 Se11 3.524394 1_555
Rb0 Se10 3.538069 1_555
Rb0 Se2 3.670007 1_555
Rb0 Se3 3.736221 1_555
Rb1 Se11 3.414702 1_556
Rb1 Se10 3.418450 1_555
Rb1 Se9 3.494895 1_555
Rb1 Se8 3.514777 1_555
Rb1 Se1 3.704271 1_555
Rb1 Se0 3.794113 1_555
Rb2 Se4 3.474552 1_645
Rb2 Se5 3.478722 1_645
Rb2 Se7 3.549794 1_554
Rb2 Se2 3.554489 1_555
Rb2 Se3 3.565239 1_555
Rb2 Se6 3.568230 1_555
Rb3 Se7 3.467218 1_465
Rb3 Se6 3.482705 1_465
Rb3 Se1 3.552636 1_555
Rb3 Se4 3.552891 1_555
Rb3 Se5 3.563636 1_556
Rb3 Se0 3.608447 1_555
Rb4 Se7 3.643772 1_555
Rb4 Se2 3.645316 1_556
Rb4 Se8 3.729353 1_555
Rb4 Se6 3.746549 1_555
Rb4 Se0 3.748209 1_655
Rb4 Se9 3.782656 1_555
Se0 Sn2 2.554276 1_555
Se1 Sn3 2.551856 1_555
Se2 Sn0 2.559188 1_555
Se3 Sn1 2.550552 1_555
Se4 Sn2 2.528616 1_555
Se5 Sn3 2.529417 1_554
Se6 Sn0 2.528322 1_555
Se7 Sn1 2.527951 1_556
Se8 Sn0 2.554260 1_555
Se9 Sn1 2.553739 1_556
Se10 Sn2 2.556675 1_555
Se11 Sn3 2.552598 1_554
