# generated using pymatgen
data_Lu2As2Cl2O5
_symmetry_space_group_name_H-M   'P 1'
_cell_length_a   6.82721030
_cell_length_b   7.46014578
_cell_length_c   9.15140274
_cell_angle_alpha   109.60426604
_cell_angle_beta   104.56697107
_cell_angle_gamma   102.16152770
_symmetry_Int_Tables_number   1
_chemical_formula_structural   Lu2As2Cl2O5
_chemical_formula_sum   'Lu4 As4 Cl4 O10'
_cell_volume   402.09804317
_cell_formula_units_Z   2
loop_
 _symmetry_equiv_pos_site_id
 _symmetry_equiv_pos_as_xyz
  1  'x, y, z'
loop_
 _atom_site_type_symbol
 _atom_site_label
 _atom_site_symmetry_multiplicity
 _atom_site_fract_x
 _atom_site_fract_y
 _atom_site_fract_z
 _atom_site_occupancy
  Lu  Lu0  1  0.40285064  0.70028276  0.52109318  1
  Lu  Lu1  1  0.59714936  0.29971724  0.47890682  1
  Lu  Lu2  1  0.84620658  0.76340049  0.33808610  1
  Lu  Lu3  1  0.15379342  0.23659951  0.66191390  1
  As  As0  1  0.89412186  0.84968288  0.74816279  1
  As  As1  1  0.10587814  0.15031712  0.25183721  1
  As  As2  1  0.71343712  0.23821529  0.80159052  1
  As  As3  1  0.28656288  0.76178471  0.19840948  1
  Cl  Cl0  1  0.24975444  0.63433613  0.73906177  1
  Cl  Cl1  1  0.75024556  0.36566387  0.26093823  1
  Cl  Cl2  1  0.76726443  0.71599806  0.03801406  1
  Cl  Cl3  1  0.23273557  0.28400194  0.96198594  1
  O  O0  1  0.84678513  0.27829245  0.66397842  1
  O  O1  1  0.15321487  0.72170755  0.33602158  1
  O  O2  1  0.53429757  0.78428592  0.34247158  1
  O  O3  1  0.46570243  0.21571408  0.65752842  1
  O  O4  1  0.66899405  0.96442112  0.72459124  1
  O  O5  1  0.33100595  0.03557888  0.27540876  1
  O  O6  1  0.69605509  0.62091108  0.59127882  1
  O  O7  1  0.30394491  0.37908892  0.40872118  1
  O  O8  1  0.99712933  0.92098687  0.60838686  1
  O  O9  1  0.00287067  0.07901313  0.39161314  1
loop_
_geom_bond_atom_site_label_1
_geom_bond_atom_site_label_2
_geom_bond_distance
_geom_bond_site_symmetry_2
Lu0 O7 2.137870 1_555
Lu0 O1 2.154802 1_555
Lu0 O6 2.208643 1_555
Lu0 O4 2.231452 1_555
Lu0 O2 2.249107 1_555
Lu1 O6 2.137870 1_555
Lu1 O0 2.154802 1_555
Lu1 O7 2.208643 1_555
Lu1 O5 2.231452 1_555
Lu1 O3 2.249107 1_555
Lu2 O2 2.176950 1_555
Lu2 O1 2.186554 1_655
Lu2 O8 2.195157 1_555
Lu2 O9 2.197527 1_665
Lu3 O3 2.176950 1_555
Lu3 O0 2.186554 1_455
Lu3 O9 2.195157 1_555
Lu3 O8 2.197527 1_445
As0 O8 1.779106 1_555
As0 O6 1.791464 1_555
As0 O4 1.911283 1_555
As1 O9 1.779106 1_555
As1 O7 1.791464 1_555
As1 O5 1.911283 1_555
As2 O0 1.794115 1_555
As2 O3 1.799201 1_555
As2 O4 1.850970 1_545
As3 O1 1.794115 1_555
As3 O2 1.799201 1_555
As3 O5 1.850970 1_565
Cl0 Lu0 2.608457 1_555
Cl0 Lu3 2.697096 1_555
Cl1 Lu1 2.608457 1_555
Cl1 Lu2 2.697096 1_555
Cl2 Lu2 2.545595 1_555
Cl3 Lu3 2.545595 1_555
