# generated using pymatgen
data_YMn2BiF14
_symmetry_space_group_name_H-M   'P 1'
_cell_length_a   5.33157390
_cell_length_b   8.76751200
_cell_length_c   11.70792889
_cell_angle_alpha   61.51383750
_cell_angle_beta   90.05992493
_cell_angle_gamma   89.83115329
_symmetry_Int_Tables_number   1
_chemical_formula_structural   YMn2BiF14
_chemical_formula_sum   'Y2 Mn4 Bi2 F28'
_cell_volume   481.02067237
_cell_formula_units_Z   2
loop_
 _symmetry_equiv_pos_site_id
 _symmetry_equiv_pos_as_xyz
  1  'x, y, z'
loop_
 _atom_site_type_symbol
 _atom_site_label
 _atom_site_symmetry_multiplicity
 _atom_site_fract_x
 _atom_site_fract_y
 _atom_site_fract_z
 _atom_site_occupancy
  Y  Y0  1  0.76194162  0.19203270  0.23653489  1
  Y  Y1  1  0.23805838  0.80796730  0.76346511  1
  Mn  Mn0  1  0.75664050  0.72241001  0.04067363  1
  Mn  Mn1  1  0.24335950  0.27758999  0.95932637  1
  Mn  Mn2  1  0.25897365  0.27031427  0.45555516  1
  Mn  Mn3  1  0.74102635  0.72968573  0.54444484  1
  Bi  Bi0  1  0.26565530  0.81617770  0.26266489  1
  Bi  Bi1  1  0.73434470  0.18382230  0.73733511  1
  F  F0  1  0.92440522  0.71063046  0.42282853  1
  F  F1  1  0.07559478  0.28936954  0.57717147  1
  F  F2  1  0.43145378  0.29062458  0.08340787  1
  F  F3  1  0.56854622  0.70937542  0.91659213  1
  F  F4  1  0.47402610  0.72761723  0.12281819  1
  F  F5  1  0.52597390  0.27238277  0.87718181  1
  F  F6  1  0.97705741  0.26991315  0.36889146  1
  F  F7  1  0.02294259  0.73008685  0.63110854  1
  F  F8  1  0.93746552  0.73397213  0.16690161  1
  F  F9  1  0.06253448  0.26602787  0.83309839  1
  F  F10  1  0.44375492  0.25553369  0.33005584  1
  F  F11  1  0.55624508  0.74446631  0.66994416  1
  F  F12  1  0.76681089  0.48781632  0.13449119  1
  F  F13  1  0.23318911  0.51218368  0.86550881  1
  F  F14  1  0.27237445  0.50280180  0.36273477  1
  F  F15  1  0.72762555  0.49719820  0.63726523  1
  F  F16  1  0.95591756  0.28243977  0.04181559  1
  F  F17  1  0.04408244  0.71756023  0.95818441  1
  F  F18  1  0.45038269  0.72400718  0.46440801  1
  F  F19  1  0.54961731  0.27599282  0.53559199  1
  F  F20  1  0.73934971  0.96444097  0.45091264  1
  F  F21  1  0.26065029  0.03555903  0.54908736  1
  F  F22  1  0.23848902  0.04200827  0.04824616  1
  F  F23  1  0.76151098  0.95799173  0.95175384  1
  F  F24  1  0.61791182  0.96719450  0.22400497  1
  F  F25  1  0.38208818  0.03280550  0.77599503  1
  F  F26  1  0.11275851  0.03987894  0.27580558  1
  F  F27  1  0.88724149  0.96012106  0.72419442  1
loop_
_geom_bond_atom_site_label_1
_geom_bond_atom_site_label_2
_geom_bond_distance
_geom_bond_site_symmetry_2
Bi0 F26 2.193986 1_565
Bi0 F24 2.220342 1_555
Bi0 F18 2.317706 1_555
Bi0 F22 2.345118 1_565
Bi0 F8 2.369045 1_455
Bi0 F4 2.393593 1_555
Bi0 F14 2.419004 1_555
Bi0 F0 2.458591 1_455
Bi1 F27 2.193986 1_545
Bi1 F25 2.220342 1_555
Bi1 F19 2.317706 1_555
Bi1 F23 2.345118 1_545
Bi1 F9 2.369045 1_655
Bi1 F5 2.393593 1_555
Bi1 F15 2.419004 1_555
Bi1 F1 2.458591 1_655
F0 Mn3 1.800025 1_555
F1 Mn2 1.800025 1_555
F2 Mn1 1.812508 1_554
F2 Y0 2.360552 1_555
F3 Mn0 1.812508 1_556
F3 Y1 2.360552 1_555
F4 Mn0 1.800535 1_555
F5 Mn1 1.800535 1_555
F6 Mn2 1.813548 1_655
F6 Y0 2.278855 1_555
F7 Mn3 1.813548 1_455
F7 Y1 2.278855 1_555
F8 Mn0 1.806745 1_555
F9 Mn1 1.806745 1_555
F10 Mn2 1.824889 1_555
F10 Y0 2.228578 1_555
F11 Mn3 1.824889 1_555
F11 Y1 2.228578 1_555
F12 Mn0 1.812196 1_555
F12 Y0 2.279962 1_555
F13 Mn1 1.812196 1_555
F13 Y1 2.279962 1_555
F14 Mn2 1.796924 1_555
F15 Mn3 1.796924 1_555
F16 Mn1 1.823466 1_654
F16 Y0 2.276224 1_555
F17 Mn0 1.823466 1_456
F17 Y1 2.276224 1_555
F18 Mn3 1.823106 1_555
F19 Mn2 1.823106 1_555
F20 Mn3 1.812573 1_555
F20 Y0 2.349579 1_565
F21 Mn2 1.812573 1_555
F21 Y1 2.349579 1_545
F22 Mn1 1.816555 1_554
F23 Mn0 1.816555 1_556
F24 Y0 2.186698 1_565
F25 Y1 2.186698 1_545
F26 Y0 2.210842 1_455
F27 Y1 2.210842 1_655
