# generated using pymatgen
data_ScCu6BrO8
_symmetry_space_group_name_H-M   'P 1'
_cell_length_a   6.42254081
_cell_length_b   6.42254111
_cell_length_c   6.42254014
_cell_angle_alpha   60.00000001
_cell_angle_beta   59.99999843
_cell_angle_gamma   59.99999764
_symmetry_Int_Tables_number   1
_chemical_formula_structural   ScCu6BrO8
_chemical_formula_sum   'Sc1 Cu6 Br1 O8'
_cell_volume   187.32924476
_cell_formula_units_Z   1
loop_
 _symmetry_equiv_pos_site_id
 _symmetry_equiv_pos_as_xyz
  1  'x, y, z'
loop_
 _atom_site_type_symbol
 _atom_site_label
 _atom_site_symmetry_multiplicity
 _atom_site_fract_x
 _atom_site_fract_y
 _atom_site_fract_z
 _atom_site_occupancy
  Sc  Sc0  1  0.00000000  0.00000000  0.00000000  1
  Cu  Cu0  1  0.00000000  0.00000000  0.50000000  1
  Cu  Cu1  1  0.50000000  0.00000000  0.50000000  1
  Cu  Cu2  1  0.00000000  0.50000000  0.50000000  1
  Cu  Cu3  1  0.50000000  0.50000000  0.00000000  1
  Cu  Cu4  1  0.00000000  0.50000000  0.00000000  1
  Cu  Cu5  1  0.50000000  0.00000000  0.00000000  1
  Br  Br0  1  0.50000000  0.50000000  0.50000000  1
  O  O0  1  0.85912602  0.85912602  0.42262095  1
  O  O1  1  0.85912602  0.42262095  0.85912602  1
  O  O2  1  0.42262095  0.85912602  0.85912602  1
  O  O3  1  0.85912602  0.85912602  0.85912602  1
  O  O4  1  0.14087398  0.14087398  0.57737905  1
  O  O5  1  0.14087398  0.57737905  0.14087398  1
  O  O6  1  0.57737905  0.14087398  0.14087398  1
  O  O7  1  0.14087398  0.14087398  0.14087398  1
loop_
_geom_bond_atom_site_label_1
_geom_bond_atom_site_label_2
_geom_bond_distance
_geom_bond_site_symmetry_2
Cu0 O3 1.897911 1_445
Cu0 O7 1.897911 1_555
Cu0 O4 1.897916 1_555
Cu0 O0 1.897916 1_445
Cu1 O2 1.897911 1_545
Cu1 O6 1.897911 1_555
Cu1 O0 1.897911 1_545
Cu1 O4 1.897911 1_555
Cu2 O5 1.897911 1_555
Cu2 O1 1.897911 1_455
Cu2 O0 1.897911 1_455
Cu2 O4 1.897911 1_555
Cu3 O1 1.897911 1_554
Cu3 O5 1.897911 1_555
Cu3 O2 1.897911 1_554
Cu3 O6 1.897911 1_555
Cu4 O3 1.897911 1_454
Cu4 O7 1.897911 1_555
Cu4 O5 1.897916 1_555
Cu4 O1 1.897916 1_454
Cu5 O3 1.897911 1_544
Cu5 O7 1.897911 1_555
Cu5 O6 1.897916 1_555
Cu5 O2 1.897916 1_544
Br0 Cu3 3.211270 1_556
Br0 Cu3 3.211270 1_555
Br0 Cu4 3.211270 1_655
Br0 Cu4 3.211270 1_556
Br0 Cu5 3.211270 1_565
Br0 Cu5 3.211270 1_556
Br0 Cu0 3.211270 1_565
Br0 Cu0 3.211270 1_655
Br0 Cu2 3.211270 1_655
Br0 Cu2 3.211270 1_555
Br0 Cu1 3.211271 1_555
Br0 Cu1 3.211271 1_565
O0 Sc0 2.216217 1_665
O1 Sc0 2.216217 1_656
O2 Sc0 2.216217 1_566
O3 Sc0 2.216222 1_666
O4 Sc0 2.216217 1_556
O5 Sc0 2.216217 1_565
O6 Sc0 2.216217 1_655
O7 Sc0 2.216222 1_555
