# generated using pymatgen
data_Hf4Zr(ReTc7)3
_symmetry_space_group_name_H-M   'P 1'
_cell_length_a   8.35632604
_cell_length_b   8.35632478
_cell_length_c   8.35632466
_cell_angle_alpha   109.37961695
_cell_angle_beta   109.37960587
_cell_angle_gamma   109.37962626
_symmetry_Int_Tables_number   1
_chemical_formula_structural   Hf4Zr(ReTc7)3
_chemical_formula_sum   'Hf4 Zr1 Re3 Tc21'
_cell_volume   450.70081339
_cell_formula_units_Z   1
loop_
 _symmetry_equiv_pos_site_id
 _symmetry_equiv_pos_as_xyz
  1  'x, y, z'
loop_
 _atom_site_type_symbol
 _atom_site_label
 _atom_site_symmetry_multiplicity
 _atom_site_fract_x
 _atom_site_fract_y
 _atom_site_fract_z
 _atom_site_occupancy
  Hf  Hf0  1  0.62240740  0.00047149  0.00047149  1
  Hf  Hf1  1  0.00047149  0.62240740  0.00047149  1
  Hf  Hf2  1  0.00047149  0.00047149  0.62240740  1
  Hf  Hf3  1  0.37584308  0.37584308  0.37584308  1
  Zr  Zr0  1  0.99982894  0.99982894  0.99982894  1
  Re  Re0  1  0.62557713  0.62557713  0.82104139  1
  Re  Re1  1  0.82104139  0.62557713  0.62557713  1
  Re  Re2  1  0.62557713  0.82104139  0.62557713  1
  Tc  Tc0  1  0.39428844  0.67230992  0.99859376  1
  Tc  Tc1  1  0.71714771  0.32383205  0.32383205  1
  Tc  Tc2  1  0.39428844  0.99859376  0.67230992  1
  Tc  Tc3  1  0.67230992  0.39428844  0.99859376  1
  Tc  Tc4  1  0.99859376  0.39428844  0.67230992  1
  Tc  Tc5  1  0.32383205  0.71714771  0.32383205  1
  Tc  Tc6  1  0.32383205  0.32383205  0.71714771  1
  Tc  Tc7  1  0.99859376  0.67230992  0.39428844  1
  Tc  Tc8  1  0.67230992  0.99859376  0.39428844  1
  Tc  Tc9  1  0.60705237  0.60705237  0.28231773  1
  Tc  Tc10  1  0.28231773  0.60705237  0.60705237  1
  Tc  Tc11  1  0.60705237  0.28231773  0.60705237  1
  Tc  Tc12  1  0.37382909  0.19514904  0.99886756  1
  Tc  Tc13  1  0.18421531  0.80862988  0.80862988  1
  Tc  Tc14  1  0.37382909  0.99886756  0.19514904  1
  Tc  Tc15  1  0.19514904  0.37382909  0.99886756  1
  Tc  Tc16  1  0.99886756  0.37382909  0.19514904  1
  Tc  Tc17  1  0.80862988  0.18421531  0.80862988  1
  Tc  Tc18  1  0.80862988  0.80862988  0.18421531  1
  Tc  Tc19  1  0.99886756  0.19514904  0.37382909  1
  Tc  Tc20  1  0.19514904  0.99886756  0.37382909  1
loop_
_geom_bond_atom_site_label_1
_geom_bond_atom_site_label_2
_geom_bond_distance
_geom_bond_site_symmetry_2
Hf0 Tc1 2.746738 1_555
Hf0 Tc0 2.763377 1_544
Hf0 Tc2 2.763377 1_544
Hf0 Tc16 2.999718 1_555
Hf0 Tc19 2.999718 1_555
Hf0 Re2 3.004503 1_544
Hf0 Re0 3.004503 1_544
Hf0 Tc13 3.008470 1_544
Hf0 Tc17 3.008719 1_554
Hf0 Tc18 3.008719 1_545
Hf0 Tc14 3.033145 1_545
Hf0 Tc12 3.033145 1_554
Hf0 Zr0 3.157425 1_544
Hf0 Tc10 3.180996 1_544
Hf0 Tc3 3.183048 1_554
Hf0 Tc8 3.183048 1_545
Hf1 Tc5 2.746739 1_555
Hf1 Tc4 2.763377 1_454
Hf1 Tc3 2.763377 1_454
Hf1 Tc20 2.999718 1_555
Hf1 Tc14 2.999718 1_555
Hf1 Re1 3.004503 1_454
Hf1 Re0 3.004504 1_454
Hf1 Tc17 3.008469 1_454
Hf1 Tc13 3.008719 1_554
Hf1 Tc18 3.008719 1_455
Hf1 Tc16 3.033145 1_455
Hf1 Tc15 3.033145 1_554
Hf1 Zr0 3.157424 1_454
Hf1 Tc11 3.180997 1_454
Hf1 Tc7 3.183048 1_455
Hf1 Tc0 3.183049 1_554
Hf2 Tc6 2.746738 1_555
Hf2 Tc7 2.763377 1_445
Hf2 Tc8 2.763377 1_445
Hf2 Tc15 2.999718 1_555
Hf2 Tc12 2.999718 1_555
Hf2 Re1 3.004503 1_445
Hf2 Re2 3.004503 1_445
Hf2 Tc18 3.008470 1_445
Hf2 Tc17 3.008719 1_455
Hf2 Tc13 3.008719 1_545
Hf2 Tc20 3.033145 1_545
Hf2 Tc19 3.033145 1_455
Hf2 Zr0 3.157424 1_445
Hf2 Tc9 3.180996 1_445
Hf2 Tc4 3.183048 1_455
Hf2 Tc2 3.183049 1_545
Hf3 Tc9 2.757418 1_555
Hf3 Tc10 2.757418 1_555
Hf3 Tc11 2.757419 1_555
Hf3 Tc20 2.999135 1_545
Hf3 Tc12 2.999135 1_554
Hf3 Tc14 2.999135 1_545
Hf3 Tc19 2.999135 1_455
Hf3 Tc15 2.999135 1_554
Hf3 Tc16 2.999135 1_455
Hf3 Re2 3.058628 1_555
Hf3 Re0 3.058629 1_555
Hf3 Re1 3.058629 1_555
Hf3 Zr0 3.156277 1_444
Hf3 Tc6 3.167318 1_555
Hf3 Tc5 3.167318 1_555
Hf3 Tc1 3.167319 1_555
Re0 Tc18 2.485007 1_556
Re0 Tc6 2.518825 1_555
Re0 Re2 2.665762 1_555
Re0 Re1 2.665762 1_555
Re0 Tc11 2.750780 1_555
Re0 Tc10 2.750781 1_555
Re0 Tc3 2.847573 1_555
Re0 Tc0 2.847573 1_555
Re0 Zr0 3.016715 1_555
Re1 Tc13 2.485007 1_655
Re1 Tc1 2.518825 1_555
Re1 Re2 2.665762 1_555
Re1 Tc11 2.750780 1_555
Re1 Tc9 2.750780 1_555
Re1 Tc7 2.847573 1_555
Re1 Tc4 2.847574 1_555
Re1 Zr0 3.016715 1_555
Re2 Tc17 2.485006 1_565
Re2 Tc5 2.518825 1_555
Re2 Tc9 2.750780 1_555
Re2 Tc10 2.750780 1_555
Re2 Tc8 2.847573 1_555
Re2 Tc2 2.847574 1_555
Re2 Zr0 3.016715 1_555
Tc0 Tc15 2.498399 1_555
Tc0 Tc13 2.752609 1_555
Tc0 Tc14 2.773969 1_556
Tc0 Tc6 2.784915 1_555
Tc0 Tc9 2.789890 1_556
Tc0 Tc10 2.885041 1_555
Tc0 Tc18 2.887440 1_556
Tc0 Tc5 2.899303 1_556
Tc0 Tc8 2.911990 1_556
Tc0 Tc4 2.911990 1_455
Tc1 Tc14 2.757790 1_545
Tc1 Tc12 2.757790 1_554
Tc1 Tc7 2.784915 1_555
Tc1 Tc4 2.784916 1_555
Tc1 Tc16 2.863262 1_555
Tc1 Tc19 2.863262 1_555
Tc1 Tc11 2.888937 1_555
Tc1 Tc9 2.888938 1_555
Tc1 Tc8 2.899303 1_545
Tc1 Tc3 2.899304 1_554
Tc2 Tc20 2.498400 1_555
Tc2 Tc5 2.784915 1_555
Tc2 Tc6 2.899304 1_565
Tc2 Tc3 2.911990 1_565
Tc2 Tc7 2.911990 1_455
Tc3 Tc6 2.784916 1_555
Tc3 Tc9 2.789889 1_556
Tc3 Tc7 2.911990 1_556
Tc4 Tc6 2.899304 1_655
Tc4 Tc8 2.911990 1_545
Tc5 Tc8 2.784916 1_555
Tc5 Tc9 2.888938 1_555
Tc5 Tc7 2.899304 1_455
Tc7 Tc9 2.885041 1_555
Tc8 Tc9 2.885041 1_555
Tc10 Tc13 2.509296 1_555
Tc10 Tc4 2.789889 1_455
Tc10 Tc7 2.789890 1_455
Tc10 Tc2 2.885041 1_555
Tc10 Tc19 2.886157 1_455
Tc10 Tc16 2.886157 1_455
Tc10 Tc5 2.888937 1_555
Tc10 Tc6 2.888938 1_555
Tc11 Tc17 2.509297 1_555
Tc11 Tc2 2.789889 1_545
Tc11 Tc8 2.789889 1_545
Tc11 Tc3 2.885041 1_555
Tc11 Tc4 2.885041 1_555
Tc11 Tc14 2.886157 1_545
Tc11 Tc20 2.886157 1_545
Tc11 Tc6 2.888938 1_555
Tc12 Tc15 2.436857 1_555
Tc12 Tc3 2.498399 1_555
Tc12 Tc13 2.644676 1_545
Tc12 Tc14 2.676907 1_546
Tc12 Tc2 2.773969 1_545
Tc12 Tc6 2.863262 1_555
Tc12 Tc9 2.886157 1_556
Tc12 Zr0 3.011881 1_445
Tc13 Tc14 2.644676 1_556
Tc13 Tc2 2.752609 1_555
Tc13 Tc4 2.887439 1_455
Tc13 Tc7 2.887439 1_455
Tc13 Zr0 3.008796 1_455
Tc14 Tc20 2.436857 1_555
Tc14 Tc8 2.498400 1_555
Tc14 Tc5 2.863261 1_555
Tc14 Zr0 3.011881 1_454
Tc15 Tc17 2.644677 1_455
Tc15 Tc16 2.676907 1_456
Tc15 Tc5 2.757789 1_556
Tc15 Tc4 2.773969 1_455
Tc15 Tc6 2.863261 1_555
Tc15 Tc9 2.886158 1_556
Tc15 Zr0 3.011880 1_445
Tc16 Tc19 2.436857 1_555
Tc16 Tc7 2.498399 1_555
Tc16 Tc17 2.644676 1_554
Tc16 Tc5 2.757789 1_655
Tc16 Tc3 2.773969 1_554
Tc16 Zr0 3.011880 1_544
Tc17 Tc4 2.752609 1_555
Tc17 Tc3 2.752609 1_555
Tc17 Tc8 2.887439 1_545
Tc17 Tc2 2.887440 1_545
Tc17 Zr0 3.008796 1_545
Tc18 Tc9 2.509296 1_555
Tc18 Tc19 2.644676 1_565
Tc18 Tc20 2.644677 1_655
Tc18 Tc8 2.752609 1_555
Tc18 Tc7 2.752609 1_555
Tc18 Tc3 2.887439 1_554
Tc18 Zr0 3.008796 1_554
Tc19 Tc4 2.498399 1_555
Tc19 Tc20 2.676907 1_645
Tc19 Tc6 2.757790 1_655
Tc19 Tc8 2.773969 1_545
Tc19 Zr0 3.011880 1_544
Tc20 Tc6 2.757789 1_565
Tc20 Tc7 2.773968 1_455
Tc20 Tc5 2.863262 1_555
Tc20 Zr0 3.011881 1_454
