# generated using pymatgen
data_VGaTcIr
_symmetry_space_group_name_H-M   'P 1'
_cell_length_a   4.26584175
_cell_length_b   4.26584166
_cell_length_c   4.26584195
_cell_angle_alpha   59.99999778
_cell_angle_beta   59.99999848
_cell_angle_gamma   59.99999391
_symmetry_Int_Tables_number   1
_chemical_formula_structural   VGaTcIr
_chemical_formula_sum   'V1 Ga1 Tc1 Ir1'
_cell_volume   54.89075487
_cell_formula_units_Z   1
loop_
 _symmetry_equiv_pos_site_id
 _symmetry_equiv_pos_as_xyz
  1  'x, y, z'
loop_
 _atom_site_type_symbol
 _atom_site_label
 _atom_site_symmetry_multiplicity
 _atom_site_fract_x
 _atom_site_fract_y
 _atom_site_fract_z
 _atom_site_occupancy
  V  V0  1  0.00000000  0.00000000  0.00000000  1
  Ga  Ga0  1  0.50000000  0.50000000  0.50000000  1
  Tc  Tc0  1  0.25000000  0.25000000  0.25000000  1
  Ir  Ir0  1  0.75000000  0.75000000  0.75000000  1
loop_
_geom_bond_atom_site_label_1
_geom_bond_atom_site_label_2
_geom_bond_distance
_geom_bond_site_symmetry_2
Ga0 Ir0 2.612284 1_545
Ga0 Tc0 2.612284 1_565
Ga0 Tc0 2.612284 1_655
Ga0 Ir0 2.612284 1_455
Ga0 Ir0 2.612284 1_555
Ga0 Tc0 2.612284 1_556
Ga0 Ir0 2.612284 1_554
Ga0 Tc0 2.612284 1_555
Tc0 V0 2.612284 1_565
Tc0 V0 2.612284 1_655
Tc0 V0 2.612284 1_555
Tc0 V0 2.612284 1_556
Ir0 V0 2.612284 1_656
Ir0 V0 2.612284 1_566
Ir0 V0 2.612284 1_665
Ir0 V0 2.612284 1_666
