# generated using pymatgen
data_AlGaNiO4
_symmetry_space_group_name_H-M   'P 1'
_cell_length_a   5.70151617
_cell_length_b   5.79644006
_cell_length_c   8.16539579
_cell_angle_alpha   90.00000000
_cell_angle_beta   90.00000000
_cell_angle_gamma   90.00000000
_symmetry_Int_Tables_number   1
_chemical_formula_structural   AlGaNiO4
_chemical_formula_sum   'Al4 Ga4 Ni4 O16'
_cell_volume   269.85405620
_cell_formula_units_Z   4
loop_
 _symmetry_equiv_pos_site_id
 _symmetry_equiv_pos_as_xyz
  1  'x, y, z'
loop_
 _atom_site_type_symbol
 _atom_site_label
 _atom_site_symmetry_multiplicity
 _atom_site_fract_x
 _atom_site_fract_y
 _atom_site_fract_z
 _atom_site_occupancy
  Al  Al0  1  0.00000000  0.50000000  0.50000000  1
  Al  Al1  1  0.50000000  0.00000000  0.00000000  1
  Al  Al2  1  0.00000000  0.00000000  0.50000000  1
  Al  Al3  1  0.50000000  0.50000000  0.00000000  1
  Ga  Ga0  1  0.00000000  0.25000000  0.13310875  1
  Ga  Ga1  1  0.50000000  0.75000000  0.63310875  1
  Ga  Ga2  1  0.00000000  0.75000000  0.86689125  1
  Ga  Ga3  1  0.50000000  0.25000000  0.36689125  1
  Ni  Ni0  1  0.25000000  0.25000000  0.75000000  1
  Ni  Ni1  1  0.75000000  0.25000000  0.75000000  1
  Ni  Ni2  1  0.75000000  0.75000000  0.25000000  1
  Ni  Ni3  1  0.25000000  0.75000000  0.25000000  1
  O  O0  1  0.00000000  0.50544690  0.27006197  1
  O  O1  1  0.50000000  0.00544690  0.77006197  1
  O  O2  1  0.00000000  0.99455310  0.27006197  1
  O  O3  1  0.50000000  0.49455310  0.77006197  1
  O  O4  1  0.00000000  0.00544690  0.72993803  1
  O  O5  1  0.50000000  0.50544690  0.22993803  1
  O  O6  1  0.00000000  0.49455310  0.72993803  1
  O  O7  1  0.50000000  0.99455310  0.22993803  1
  O  O8  1  0.22735454  0.75000000  0.50100879  1
  O  O9  1  0.72735454  0.25000000  0.00100879  1
  O  O10  1  0.77264546  0.75000000  0.50100879  1
  O  O11  1  0.27264546  0.25000000  0.00100879  1
  O  O12  1  0.22735454  0.25000000  0.49899121  1
  O  O13  1  0.72735454  0.75000000  0.99899121  1
  O  O14  1  0.77264546  0.25000000  0.49899121  1
  O  O15  1  0.27264546  0.75000000  0.99899121  1
loop_
_geom_bond_atom_site_label_1
_geom_bond_atom_site_label_2
_geom_bond_distance
_geom_bond_site_symmetry_2
Al0 O6 1.877800 1_555
Al0 O0 1.877800 1_555
Al0 O8 1.944297 1_555
Al0 O12 1.944297 1_555
Al0 O10 1.944297 1_455
Al0 O14 1.944297 1_455
Al1 O7 1.877800 1_545
Al1 O1 1.877800 1_554
Al1 O13 1.944297 1_544
Al1 O9 1.944297 1_555
Al1 O15 1.944297 1_544
Al1 O11 1.944297 1_555
Al2 O4 1.877800 1_555
Al2 O2 1.877800 1_545
Al2 O8 1.944297 1_545
Al2 O12 1.944297 1_555
Al2 O10 1.944297 1_445
Al2 O14 1.944297 1_455
Al3 O5 1.877800 1_555
Al3 O3 1.877800 1_554
Al3 O13 1.944297 1_554
Al3 O9 1.944297 1_555
Al3 O11 1.944297 1_555
Al3 O15 1.944297 1_554
Ga0 O0 1.855523 1_555
Ga0 O2 1.855523 1_545
Ga0 O11 1.892070 1_555
Ga0 O9 1.892070 1_455
Ga1 O1 1.855523 1_565
Ga1 O3 1.855523 1_555
Ga1 O10 1.892070 1_555
Ga1 O8 1.892070 1_555
Ga2 O4 1.855523 1_565
Ga2 O6 1.855523 1_555
Ga2 O15 1.892070 1_555
Ga2 O13 1.892070 1_455
Ga3 O5 1.855523 1_555
Ga3 O7 1.855523 1_545
Ga3 O14 1.892070 1_555
Ga3 O12 1.892070 1_555
Ni0 O3 2.016917 1_555
Ni0 O6 2.016917 1_555
Ni0 O1 2.016917 1_555
Ni0 O4 2.016917 1_555
Ni0 O11 2.053649 1_556
Ni0 O12 2.053649 1_555
Ni1 O3 2.016917 1_555
Ni1 O6 2.016917 1_655
Ni1 O1 2.016917 1_555
Ni1 O4 2.016917 1_655
Ni1 O9 2.053649 1_556
Ni1 O14 2.053649 1_555
Ni2 O2 2.016917 1_655
Ni2 O7 2.016917 1_555
Ni2 O0 2.016917 1_655
Ni2 O5 2.016917 1_555
Ni2 O10 2.053649 1_555
Ni2 O13 2.053649 1_554
Ni3 O2 2.016917 1_555
Ni3 O7 2.016917 1_555
Ni3 O0 2.016917 1_555
Ni3 O5 2.016917 1_555
Ni3 O8 2.053649 1_555
Ni3 O15 2.053649 1_554
