# generated using pymatgen
data_TiPt(SeO3)4
_symmetry_space_group_name_H-M   'P 1'
_cell_length_a   8.35877584
_cell_length_b   4.73952135
_cell_length_c   6.84373275
_cell_angle_alpha   68.39432257
_cell_angle_beta   90.49344896
_cell_angle_gamma   90.54331429
_symmetry_Int_Tables_number   1
_chemical_formula_structural   TiPt(SeO3)4
_chemical_formula_sum   'Ti1 Pt1 Se4 O12'
_cell_volume   252.06097287
_cell_formula_units_Z   1
loop_
 _symmetry_equiv_pos_site_id
 _symmetry_equiv_pos_as_xyz
  1  'x, y, z'
loop_
 _atom_site_type_symbol
 _atom_site_label
 _atom_site_symmetry_multiplicity
 _atom_site_fract_x
 _atom_site_fract_y
 _atom_site_fract_z
 _atom_site_occupancy
  Ti  Ti0  1  0.00000000  0.50000000  0.00000000  1
  Pt  Pt0  1  0.50000000  0.50000000  0.50000000  1
  Se  Se0  1  0.64518337  0.12996339  0.18894359  1
  Se  Se1  1  0.15630899  0.86229412  0.31609883  1
  Se  Se2  1  0.35481663  0.87003661  0.81105641  1
  Se  Se3  1  0.84369101  0.13770588  0.68390117  1
  O  O0  1  0.15296463  0.16543005  0.08373187  1
  O  O1  1  0.66328988  0.83588914  0.43178387  1
  O  O2  1  0.84703537  0.83456995  0.91626813  1
  O  O3  1  0.33671012  0.16411086  0.56821613  1
  O  O4  1  0.06625937  0.58911433  0.24778254  1
  O  O5  1  0.55687478  0.42150948  0.23877516  1
  O  O6  1  0.64239624  0.20280912  0.71305626  1
  O  O7  1  0.15729563  0.76859421  0.81726142  1
  O  O8  1  0.35760376  0.79719088  0.28694374  1
  O  O9  1  0.84270437  0.23140579  0.18273858  1
  O  O10  1  0.44312522  0.57849052  0.76122484  1
  O  O11  1  0.93374063  0.41088567  0.75221746  1
loop_
_geom_bond_atom_site_label_1
_geom_bond_atom_site_label_2
_geom_bond_distance
_geom_bond_site_symmetry_2
O0 Se1 1.706250 1_545
O0 Ti0 1.958134 1_555
O1 Se0 1.738205 1_565
O1 Pt0 2.009396 1_555
O2 Se3 1.706250 1_565
O2 Ti0 1.958134 1_656
O3 Se2 1.738205 1_545
O3 Pt0 2.009396 1_555
O4 Se1 1.697870 1_555
O4 Ti0 1.966612 1_555
O5 Se0 1.715001 1_555
O5 Pt0 2.016984 1_555
O6 Se3 1.739844 1_555
O6 Pt0 2.004041 1_555
O7 Se2 1.711722 1_555
O7 Ti0 1.933243 1_556
O8 Se1 1.739844 1_555
O8 Pt0 2.004041 1_555
O9 Se0 1.711722 1_555
O9 Ti0 1.933243 1_655
O10 Se2 1.715001 1_555
O10 Pt0 2.016984 1_555
O11 Se3 1.697870 1_555
O11 Ti0 1.966612 1_656
