# generated using pymatgen
data_Sc2B2RuRh4Pb
_symmetry_space_group_name_H-M   'P 1'
_cell_length_a   9.48188508
_cell_length_b   9.48188508
_cell_length_c   3.15260984
_cell_angle_alpha   90.00000000
_cell_angle_beta   90.00000000
_cell_angle_gamma   90.00000000
_symmetry_Int_Tables_number   1
_chemical_formula_structural   Sc2B2RuRh4Pb
_chemical_formula_sum   'Sc4 B4 Ru2 Rh8 Pb2'
_cell_volume   283.43899650
_cell_formula_units_Z   2
loop_
 _symmetry_equiv_pos_site_id
 _symmetry_equiv_pos_as_xyz
  1  'x, y, z'
loop_
 _atom_site_type_symbol
 _atom_site_label
 _atom_site_symmetry_multiplicity
 _atom_site_fract_x
 _atom_site_fract_y
 _atom_site_fract_z
 _atom_site_occupancy
  Sc  Sc0  1  0.67204676  0.17204676  0.00000000  1
  Sc  Sc1  1  0.32795324  0.82795324  0.00000000  1
  Sc  Sc2  1  0.17204676  0.32795324  0.00000000  1
  Sc  Sc3  1  0.82795324  0.67204676  0.00000000  1
  B  B0  1  0.12063298  0.62063298  0.00000000  1
  B  B1  1  0.87936702  0.37936702  0.00000000  1
  B  B2  1  0.62063298  0.87936702  0.00000000  1
  B  B3  1  0.37936702  0.12063298  0.00000000  1
  Ru  Ru0  1  0.50000000  0.00000000  0.50000000  1
  Ru  Ru1  1  0.00000000  0.50000000  0.50000000  1
  Rh  Rh0  1  0.57406829  0.72487390  0.50000000  1
  Rh  Rh1  1  0.42593171  0.27512610  0.50000000  1
  Rh  Rh2  1  0.07406829  0.77512610  0.50000000  1
  Rh  Rh3  1  0.92593171  0.22487390  0.50000000  1
  Rh  Rh4  1  0.27512610  0.57406829  0.50000000  1
  Rh  Rh5  1  0.72487390  0.42593171  0.50000000  1
  Rh  Rh6  1  0.22487390  0.07406829  0.50000000  1
  Rh  Rh7  1  0.77512610  0.92593171  0.50000000  1
  Pb  Pb0  1  0.50000000  0.50000000  0.00000000  1
  Pb  Pb1  1  0.00000000  0.00000000  0.00000000  1
loop_
_geom_bond_atom_site_label_1
_geom_bond_atom_site_label_2
_geom_bond_distance
_geom_bond_site_symmetry_2
B0 Rh2 2.196718 1_555
B0 Rh4 2.196718 1_555
B0 Rh4 2.196718 1_554
B0 Rh2 2.196718 1_554
B0 Ru1 2.258633 1_555
B0 Ru1 2.258633 1_554
B0 Sc1 2.780042 1_555
B0 Sc3 2.817649 1_455
B0 Sc2 2.817649 1_555
B1 Rh3 2.196718 1_554
B1 Rh3 2.196718 1_555
B1 Rh5 2.196718 1_554
B1 Rh5 2.196718 1_555
B1 Ru1 2.258633 1_655
B1 Ru1 2.258633 1_654
B1 Sc0 2.780042 1_555
B1 Sc2 2.817649 1_655
B1 Sc3 2.817649 1_555
B2 Rh0 2.196718 1_555
B2 Rh7 2.196718 1_555
B2 Rh0 2.196718 1_554
B2 Rh7 2.196718 1_554
B2 Ru0 2.258633 1_564
B2 Ru0 2.258633 1_565
B2 Sc3 2.780042 1_555
B2 Sc1 2.817649 1_555
B2 Sc0 2.817649 1_565
B3 Rh1 2.196718 1_554
B3 Rh6 2.196718 1_555
B3 Rh1 2.196718 1_555
B3 Rh6 2.196718 1_554
B3 Ru0 2.258633 1_555
B3 Ru0 2.258633 1_554
B3 Sc2 2.780042 1_555
B3 Sc1 2.817649 1_545
B3 Sc0 2.817649 1_555
Ru0 Sc0 2.794136 1_555
Ru0 Sc0 2.794136 1_556
Ru0 Sc1 2.794136 1_545
Ru0 Sc1 2.794136 1_546
Ru1 Sc2 2.794136 1_556
Ru1 Sc3 2.794136 1_455
Ru1 Sc3 2.794136 1_456
Ru1 Sc2 2.794136 1_555
Rh0 Sc3 2.920748 1_555
Rh0 Sc3 2.920748 1_556
Rh0 Sc1 2.980918 1_556
Rh0 Sc1 2.980918 1_555
Rh1 Sc2 2.920748 1_556
Rh1 Sc2 2.920748 1_555
Rh1 Sc0 2.980918 1_555
Rh1 Sc0 2.980918 1_556
Rh2 Sc1 2.920748 1_555
Rh2 Sc1 2.920748 1_556
Rh2 Sc3 2.980918 1_455
Rh2 Sc3 2.980918 1_456
Rh3 Sc0 2.920748 1_555
Rh3 Sc0 2.920748 1_556
Rh3 Sc2 2.980918 1_656
Rh3 Sc2 2.980918 1_655
Rh4 Sc1 2.920748 1_556
Rh4 Sc1 2.920748 1_555
Rh4 Sc2 2.980918 1_555
Rh4 Sc2 2.980918 1_556
Rh5 Sc0 2.920748 1_555
Rh5 Sc0 2.920748 1_556
Rh5 Sc3 2.980918 1_555
Rh5 Sc3 2.980918 1_556
Rh6 Sc2 2.920748 1_555
Rh6 Sc2 2.920748 1_556
Rh6 Sc1 2.980918 1_546
Rh6 Sc1 2.980918 1_545
Rh7 Sc3 2.920748 1_555
Rh7 Sc3 2.920748 1_556
Rh7 Sc0 2.980918 1_565
Rh7 Sc0 2.980918 1_566
Pb0 Rh0 2.743059 1_555
Pb0 Rh0 2.743059 1_554
Pb0 Rh5 2.743059 1_554
Pb0 Rh5 2.743059 1_555
Pb0 Rh4 2.743059 1_555
Pb0 Rh4 2.743059 1_554
Pb0 Rh1 2.743059 1_555
Pb0 Rh1 2.743059 1_554
Pb1 Rh6 2.743059 1_555
Pb1 Rh6 2.743059 1_554
Pb1 Rh3 2.743059 1_454
Pb1 Rh3 2.743059 1_455
Pb1 Rh2 2.743059 1_545
Pb1 Rh2 2.743059 1_544
Pb1 Rh7 2.743059 1_444
Pb1 Rh7 2.743059 1_445
