# generated using pymatgen
data_KNa3(Ga2Te3)2
_symmetry_space_group_name_H-M   'P 1'
_cell_length_a   7.57810374
_cell_length_b   7.57810349
_cell_length_c   9.16901969
_cell_angle_alpha   82.00044854
_cell_angle_beta   82.00044677
_cell_angle_gamma   120.08815214
_symmetry_Int_Tables_number   1
_chemical_formula_structural   KNa3(Ga2Te3)2
_chemical_formula_sum   'K1 Na3 Ga4 Te6'
_cell_volume   437.55249998
_cell_formula_units_Z   1
loop_
 _symmetry_equiv_pos_site_id
 _symmetry_equiv_pos_as_xyz
  1  'x, y, z'
loop_
 _atom_site_type_symbol
 _atom_site_label
 _atom_site_symmetry_multiplicity
 _atom_site_fract_x
 _atom_site_fract_y
 _atom_site_fract_z
 _atom_site_occupancy
  K  K0  1  0.50000000  0.50000000  0.50000000  1
  Na  Na0  1  0.66223958  0.33776042  0.00000000  1
  Na  Na1  1  0.33776042  0.66223958  1.00000000  1
  Na  Na2  1  0.00000000  0.00000000  0.00000000  1
  Ga  Ga0  1  0.87877340  0.21244995  0.36165121  1
  Ga  Ga1  1  0.78755005  0.12122660  0.63834879  1
  Ga  Ga2  1  0.21244995  0.87877340  0.36165121  1
  Ga  Ga3  1  0.12122660  0.78755005  0.63834879  1
  Te  Te0  1  0.41214924  0.05577247  0.76334185  1
  Te  Te1  1  0.05577247  0.41214924  0.76334185  1
  Te  Te2  1  0.94422753  0.58785076  0.23665815  1
  Te  Te3  1  0.76768093  0.76768093  0.76401044  1
  Te  Te4  1  0.58785076  0.94422753  0.23665815  1
  Te  Te5  1  0.23231907  0.23231907  0.23598956  1
loop_
_geom_bond_atom_site_label_1
_geom_bond_atom_site_label_2
_geom_bond_distance
_geom_bond_site_symmetry_2
K0 Te0 3.556566 1_555
K0 Te4 3.556566 1_555
K0 Te2 3.556566 1_555
K0 Te1 3.556566 1_555
K0 Te3 3.563319 1_555
K0 Te5 3.563319 1_555
Na0 Te4 3.176920 1_545
Na0 Te1 3.176920 1_654
Na0 Te3 3.298692 1_554
Na0 Te5 3.298692 1_555
Na0 Te0 3.352818 1_554
Na0 Te2 3.352818 1_555
Na1 Te0 3.176920 1_565
Na1 Te2 3.176920 1_456
Na1 Te5 3.298692 1_556
Na1 Te3 3.298692 1_555
Na1 Te4 3.352818 1_556
Na1 Te1 3.352818 1_555
Na2 Te5 3.145442 1_555
Na2 Te3 3.145442 1_444
Na2 Te2 3.343214 1_445
Na2 Te1 3.343214 1_554
Na2 Te4 3.343214 1_445
Na2 Te0 3.343214 1_554
Ga0 Ga1 2.436579 1_555
Ga0 Te4 2.676552 1_545
Ga0 Te2 2.678061 1_555
Ga0 Te5 2.686336 1_655
Ga1 Te1 2.676552 1_655
Ga1 Te0 2.678061 1_555
Ga1 Te3 2.686336 1_545
Ga2 Ga3 2.436579 1_555
Ga2 Te2 2.676552 1_455
Ga2 Te4 2.678061 1_555
Ga2 Te5 2.686336 1_565
Ga3 Te0 2.676552 1_565
Ga3 Te1 2.678061 1_555
Ga3 Te3 2.686336 1_455
