# generated using pymatgen
data_KTiCrS4
_symmetry_space_group_name_H-M   'P 1'
_cell_length_a   3.52774875
_cell_length_b   5.95596693
_cell_length_c   7.63655355
_cell_angle_alpha   88.77317604
_cell_angle_beta   90.00000000
_cell_angle_gamma   90.00000000
_symmetry_Int_Tables_number   1
_chemical_formula_structural   KTiCrS4
_chemical_formula_sum   'K1 Ti1 Cr1 S4'
_cell_volume   160.41602887
_cell_formula_units_Z   1
loop_
 _symmetry_equiv_pos_site_id
 _symmetry_equiv_pos_as_xyz
  1  'x, y, z'
loop_
 _atom_site_type_symbol
 _atom_site_label
 _atom_site_symmetry_multiplicity
 _atom_site_fract_x
 _atom_site_fract_y
 _atom_site_fract_z
 _atom_site_occupancy
  K  K0  1  0.00000000  0.50000000  0.00000000  1
  Ti  Ti0  1  0.50000000  0.00000000  0.50000000  1
  Cr  Cr0  1  0.00000000  0.50000000  0.50000000  1
  S  S0  1  0.00000000  0.83938901  0.32026275  1
  S  S1  1  0.50000000  0.34178731  0.32360612  1
  S  S2  1  0.50000000  0.65821269  0.67639388  1
  S  S3  1  0.00000000  0.16061099  0.67973725  1
loop_
_geom_bond_atom_site_label_1
_geom_bond_atom_site_label_2
_geom_bond_distance
_geom_bond_site_symmetry_2
K0 S1 3.163304 1_455
K0 S1 3.163304 1_555
K0 S2 3.163304 1_454
K0 S2 3.163304 1_554
K0 S0 3.206116 1_555
K0 S3 3.206116 1_554
Cr0 S0 2.418918 1_555
Cr0 S3 2.418918 1_555
Cr0 S2 2.422411 1_455
Cr0 S2 2.422411 1_555
Cr0 S1 2.422411 1_555
Cr0 S1 2.422411 1_455
S0 Ti0 2.442643 1_565
S0 Ti0 2.442643 1_465
S1 Ti0 2.416830 1_555
S2 Ti0 2.416830 1_565
S3 Ti0 2.442643 1_455
S3 Ti0 2.442643 1_555
