# generated using pymatgen
data_Sr2LuRhO6
_symmetry_space_group_name_H-M   'P 1'
_cell_length_a   5.72860566
_cell_length_b   5.72860523
_cell_length_c   5.72860557
_cell_angle_alpha   120.00000756
_cell_angle_beta   120.00000506
_cell_angle_gamma   59.99998128
_symmetry_Int_Tables_number   1
_chemical_formula_structural   Sr2LuRhO6
_chemical_formula_sum   'Sr2 Lu1 Rh1 O6'
_cell_volume   132.93264408
_cell_formula_units_Z   1
loop_
 _symmetry_equiv_pos_site_id
 _symmetry_equiv_pos_as_xyz
  1  'x, y, z'
loop_
 _atom_site_type_symbol
 _atom_site_label
 _atom_site_symmetry_multiplicity
 _atom_site_fract_x
 _atom_site_fract_y
 _atom_site_fract_z
 _atom_site_occupancy
  Sr  Sr0  1  0.75000100  0.75000100  0.24999900  1
  Sr  Sr1  1  0.25000000  0.25000000  0.74999800  1
  Lu  Lu0  1  0.00000000  0.00000000  0.00000000  1
  Rh  Rh0  1  0.50000000  0.50000000  0.50000000  1
  O  O0  1  0.73886549  0.26113451  0.26113451  1
  O  O1  1  0.26113451  0.73886549  0.26113451  1
  O  O2  1  0.26113551  0.26113551  0.26113651  1
  O  O3  1  0.73886449  0.73886449  0.73886449  1
  O  O4  1  0.73886549  0.26113451  0.73886449  1
  O  O5  1  0.26113451  0.73886549  0.73886449  1
loop_
_geom_bond_atom_site_label_1
_geom_bond_atom_site_label_2
_geom_bond_distance
_geom_bond_site_symmetry_2
Lu0 O0 2.115574 1_455
Lu0 O1 2.115574 1_545
Lu0 O5 2.115578 1_544
Lu0 O4 2.115578 1_454
Lu0 O3 2.115582 1_444
Lu0 O2 2.115582 1_555
O0 Rh0 1.935162 1_555
O0 Sr0 2.865711 1_545
O0 Sr1 2.865717 1_655
O0 Sr1 2.865729 1_554
O0 Sr0 2.865734 1_555
O1 Rh0 1.935162 1_555
O1 Sr0 2.865712 1_455
O1 Sr1 2.865717 1_565
O1 Sr1 2.865728 1_554
O1 Sr0 2.865735 1_555
O2 Rh0 1.935154 1_555
O2 Sr1 2.865706 1_555
O2 Sr0 2.865722 1_545
O2 Sr0 2.865722 1_455
O2 Sr1 2.865740 1_554
O3 Rh0 1.935154 1_555
O3 Sr0 2.865712 1_556
O3 Sr1 2.865722 1_565
O3 Sr1 2.865722 1_655
O3 Sr0 2.865735 1_555
O4 Rh0 1.935158 1_555
O4 Sr0 2.865719 1_545
O4 Sr1 2.865720 1_555
O4 Sr0 2.865725 1_556
O4 Sr1 2.865726 1_655
O5 Rh0 1.935158 1_555
O5 Sr0 2.865720 1_455
O5 Sr1 2.865720 1_555
O5 Sr1 2.865725 1_565
O5 Sr0 2.865725 1_556
