# generated using pymatgen
data_Ba3BiI3
_symmetry_space_group_name_H-M   'P 1'
_cell_length_a   12.38363297
_cell_length_b   12.38363266
_cell_length_c   12.38363307
_cell_angle_alpha   109.47122293
_cell_angle_beta   109.47122242
_cell_angle_gamma   109.47122166
_symmetry_Int_Tables_number   1
_chemical_formula_structural   Ba3BiI3
_chemical_formula_sum   'Ba12 Bi4 I12'
_cell_volume   1461.91556332
_cell_formula_units_Z   4
loop_
 _symmetry_equiv_pos_site_id
 _symmetry_equiv_pos_as_xyz
  1  'x, y, z'
loop_
 _atom_site_type_symbol
 _atom_site_label
 _atom_site_symmetry_multiplicity
 _atom_site_fract_x
 _atom_site_fract_y
 _atom_site_fract_z
 _atom_site_occupancy
  Ba  Ba0  1  0.48980676  0.49490238  0.24490238  1
  Ba  Ba1  1  0.75000000  0.24490238  0.25509762  1
  Ba  Ba2  1  0.75000000  0.00509762  0.49490238  1
  Ba  Ba3  1  0.24490238  0.48980676  0.49490238  1
  Ba  Ba4  1  0.25509762  0.75000000  0.24490238  1
  Ba  Ba5  1  0.01019324  0.25509762  0.00509762  1
  Ba  Ba6  1  0.00509762  0.01019324  0.25509762  1
  Ba  Ba7  1  0.49490238  0.75000000  0.00509762  1
  Ba  Ba8  1  0.49490238  0.24490238  0.48980676  1
  Ba  Ba9  1  0.00509762  0.49490238  0.75000000  1
  Ba  Ba10  1  0.25509762  0.00509762  0.01019324  1
  Ba  Ba11  1  0.24490238  0.25509762  0.75000000  1
  Bi  Bi0  1  0.25000000  0.25000000  0.25000000  1
  Bi  Bi1  1  0.50000000  0.00000000  0.25000000  1
  Bi  Bi2  1  0.00000000  0.25000000  0.50000000  1
  Bi  Bi3  1  0.25000000  0.50000000  0.00000000  1
  I  I0  1  0.25000000  0.74843006  0.75156994  1
  I  I1  1  0.49686012  0.49843006  0.74843006  1
  I  I2  1  0.00313988  0.75156994  0.00156994  1
  I  I3  1  0.75156994  0.25000000  0.74843006  1
  I  I4  1  0.00156994  0.00313988  0.75156994  1
  I  I5  1  0.25000000  0.00156994  0.49843006  1
  I  I6  1  0.74843006  0.49686012  0.49843006  1
  I  I7  1  0.49843006  0.25000000  0.00156994  1
  I  I8  1  0.74843006  0.75156994  0.25000000  1
  I  I9  1  0.75156994  0.00156994  0.00313988  1
  I  I10  1  0.00156994  0.49843006  0.25000000  1
  I  I11  1  0.49843006  0.74843006  0.49686012  1
loop_
_geom_bond_atom_site_label_1
_geom_bond_atom_site_label_2
_geom_bond_distance
_geom_bond_site_symmetry_2
Ba0 Bi0 3.502727 1_555
Ba0 Bi3 3.502727 1_555
Ba0 I7 3.553489 1_555
Ba0 I11 3.553517 1_555
Ba0 I6 3.648143 1_555
Ba0 I8 3.648143 1_555
Ba1 Bi1 3.502713 1_555
Ba1 Bi2 3.502713 1_655
Ba1 I6 3.553503 1_555
Ba1 I9 3.553503 1_555
Ba1 I10 3.648158 1_655
Ba1 I7 3.648158 1_555
Ba2 Bi2 3.502713 1_655
Ba2 Bi1 3.502713 1_555
Ba2 I8 3.553503 1_545
Ba2 I3 3.553503 1_555
Ba2 I11 3.648157 1_545
Ba2 I4 3.648158 1_655
Ba3 Bi0 3.502727 1_555
Ba3 Bi2 3.502727 1_555
Ba3 I10 3.553489 1_555
Ba3 I1 3.553517 1_555
Ba3 I11 3.648143 1_555
Ba3 I0 3.648143 1_555
Ba4 Bi3 3.502712 1_555
Ba4 Bi1 3.502713 1_565
Ba4 I2 3.553504 1_555
Ba4 I11 3.553504 1_555
Ba4 I5 3.648157 1_565
Ba4 I10 3.648158 1_555
Ba5 Bi3 3.502727 1_555
Ba5 Bi0 3.502727 1_555
Ba5 I10 3.553489 1_555
Ba5 I4 3.553517 1_554
Ba5 I9 3.648143 1_455
Ba5 I3 3.648143 1_454
Ba6 Bi2 3.502727 1_555
Ba6 Bi0 3.502727 1_555
Ba6 I5 3.553489 1_555
Ba6 I9 3.553517 1_455
Ba6 I2 3.648143 1_545
Ba6 I8 3.648143 1_445
Ba7 Bi1 3.502712 1_565
Ba7 Bi3 3.502713 1_555
Ba7 I8 3.553504 1_555
Ba7 I0 3.553504 1_554
Ba7 I1 3.648157 1_554
Ba7 I9 3.648158 1_565
Ba8 Bi1 3.502726 1_555
Ba8 Bi0 3.502727 1_555
Ba8 I5 3.553489 1_555
Ba8 I6 3.553517 1_555
Ba8 I1 3.648143 1_555
Ba8 I3 3.648143 1_555
Ba9 Bi2 3.502712 1_555
Ba9 Bi3 3.502713 1_556
Ba9 I0 3.553503 1_555
Ba9 I3 3.553503 1_455
Ba9 I2 3.648157 1_556
Ba9 I6 3.648158 1_455
Ba10 Bi0 3.502726 1_555
Ba10 Bi1 3.502727 1_555
Ba10 I7 3.553489 1_555
Ba10 I2 3.553517 1_545
Ba10 I4 3.648143 1_554
Ba10 I0 3.648143 1_544
Ba11 Bi3 3.502712 1_556
Ba11 Bi2 3.502713 1_555
Ba11 I4 3.553503 1_555
Ba11 I1 3.553503 1_555
Ba11 I5 3.648157 1_555
Ba11 I7 3.648158 1_556
