# generated using pymatgen
data_AlFe3(AgBr4)4
_symmetry_space_group_name_H-M   'P 1'
_cell_length_a   7.02475362
_cell_length_b   7.54684803
_cell_length_c   13.94600311
_cell_angle_alpha   87.48202406
_cell_angle_beta   89.85982478
_cell_angle_gamma   90.13300641
_symmetry_Int_Tables_number   1
_chemical_formula_structural   AlFe3(AgBr4)4
_chemical_formula_sum   'Al1 Fe3 Ag4 Br16'
_cell_volume   738.62560079
_cell_formula_units_Z   1
loop_
 _symmetry_equiv_pos_site_id
 _symmetry_equiv_pos_as_xyz
  1  'x, y, z'
loop_
 _atom_site_type_symbol
 _atom_site_label
 _atom_site_symmetry_multiplicity
 _atom_site_fract_x
 _atom_site_fract_y
 _atom_site_fract_z
 _atom_site_occupancy
  Al  Al0  1  0.17953599  0.70958052  0.60076042  1
  Fe  Fe0  1  0.82234328  0.28677346  0.40147658  1
  Fe  Fe1  1  0.67711928  0.28819727  0.90158203  1
  Fe  Fe2  1  0.32389147  0.71172656  0.09840795  1
  Ag  Ag0  1  0.49201754  0.84570284  0.87136735  1
  Ag  Ag1  1  0.50932547  0.15304014  0.12875200  1
  Ag  Ag2  1  0.98681579  0.16127315  0.62778354  1
  Ag  Ag3  1  0.00561993  0.84919162  0.36697327  1
  Br  Br0  1  0.19130750  0.45018980  0.69381407  1
  Br  Br1  1  0.81226248  0.55157875  0.30848898  1
  Br  Br2  1  0.68812038  0.55463345  0.80974886  1
  Br  Br3  1  0.31348238  0.44594697  0.19082484  1
  Br  Br4  1  0.32483846  0.93611796  0.68336781  1
  Br  Br5  1  0.67084450  0.06165712  0.31464619  1
  Br  Br6  1  0.82850353  0.06564273  0.81341991  1
  Br  Br7  1  0.17282222  0.93721799  0.18483139  1
  Br  Br8  1  0.16827561  0.68536701  0.95164652  1
  Br  Br9  1  0.83216524  0.31368656  0.04885065  1
  Br  Br10  1  0.66414229  0.31289318  0.54816096  1
  Br  Br11  1  0.32693845  0.68599054  0.45413064  1
  Br  Br12  1  0.86727476  0.80055147  0.57209908  1
  Br  Br13  1  0.14079271  0.19416935  0.42965773  1
  Br  Br14  1  0.35861759  0.19258530  0.92840230  1
  Br  Br15  1  0.64294415  0.80628727  0.07080792  1
loop_
_geom_bond_atom_site_label_1
_geom_bond_atom_site_label_2
_geom_bond_distance
_geom_bond_site_symmetry_2
Al0 Br0 2.302417 1_555
Al0 Br11 2.303906 1_555
Al0 Br12 2.330232 1_455
Al0 Br4 2.337232 1_555
Ag0 Br2 2.763255 1_555
Ag0 Br8 2.783050 1_555
Ag0 Br14 2.924855 1_565
Ag0 Br4 2.929240 1_555
Ag0 Br6 2.974894 1_565
Ag0 Br15 2.981934 1_556
Ag1 Br3 2.775772 1_555
Ag1 Br9 2.776855 1_555
Ag1 Br5 2.888754 1_555
Ag1 Br15 2.928424 1_545
Ag1 Br7 2.951867 1_545
Ag1 Br14 2.993230 1_554
Ag2 Br10 2.755539 1_555
Ag2 Br0 2.798941 1_655
Ag2 Br6 2.877148 1_555
Ag2 Br13 2.964789 1_655
Ag2 Br12 2.982877 1_545
Ag2 Br4 3.006426 1_645
Ag3 Br1 2.776166 1_455
Ag3 Br11 2.825610 1_555
Ag3 Br7 2.847240 1_555
Ag3 Br5 2.925274 1_465
Ag3 Br13 2.938813 1_565
Ag3 Br12 3.025759 1_455
Br1 Fe0 2.335358 1_555
Br2 Fe1 2.337056 1_555
Br3 Fe2 2.336966 1_555
Br5 Fe0 2.379912 1_555
Br6 Fe1 2.376329 1_555
Br7 Fe2 2.378476 1_555
Br8 Fe2 2.338679 1_556
Br9 Fe1 2.342240 1_554
Br10 Fe0 2.341783 1_555
Br13 Fe0 2.373732 1_455
Br14 Fe1 2.373015 1_555
Br15 Fe2 2.375905 1_555
