# generated using pymatgen
data_LaTaO4
_symmetry_space_group_name_H-M   'P 1'
_cell_length_a   7.63161357
_cell_length_b   7.63161357
_cell_length_c   5.64557782
_cell_angle_alpha   90.00000000
_cell_angle_beta   90.00000000
_cell_angle_gamma   149.99045982
_symmetry_Int_Tables_number   1
_chemical_formula_structural   LaTaO4
_chemical_formula_sum   'La2 Ta2 O8'
_cell_volume   164.45094422
_cell_formula_units_Z   2
loop_
 _symmetry_equiv_pos_site_id
 _symmetry_equiv_pos_as_xyz
  1  'x, y, z'
loop_
 _atom_site_type_symbol
 _atom_site_label
 _atom_site_symmetry_multiplicity
 _atom_site_fract_x
 _atom_site_fract_y
 _atom_site_fract_z
 _atom_site_occupancy
  La  La0  1  0.82801871  0.17198129  0.16911906  1
  La  La1  1  0.17198129  0.82801871  0.66911906  1
  Ta  Ta0  1  0.58520833  0.41479167  0.21619790  1
  Ta  Ta1  1  0.41479167  0.58520833  0.71619790  1
  O  O0  1  0.91292548  0.08707452  0.75024815  1
  O  O1  1  0.08707452  0.91292548  0.25024815  1
  O  O2  1  0.46950396  0.53049604  0.05895827  1
  O  O3  1  0.53049604  0.46950396  0.55895827  1
  O  O4  1  0.69907739  0.30092261  0.42344793  1
  O  O5  1  0.30092261  0.69907739  0.92344793  1
  O  O6  1  0.66356404  0.33643596  0.94862769  1
  O  O7  1  0.33643596  0.66356404  0.44862769  1
loop_
_geom_bond_atom_site_label_1
_geom_bond_atom_site_label_2
_geom_bond_distance
_geom_bond_site_symmetry_2
La0 O4 2.382280 1_555
La0 O5 2.446853 1_654
La0 O5 2.446853 1_544
La0 O7 2.531662 1_655
La0 O7 2.531662 1_545
La0 O0 2.675639 1_554
La0 O6 2.725408 1_554
La0 O2 2.939659 1_655
La0 O2 2.939659 1_545
La1 O5 2.382280 1_555
La1 O4 2.446853 1_455
La1 O4 2.446853 1_565
La1 O6 2.531662 1_565
La1 O6 2.531662 1_455
La1 O1 2.675639 1_555
La1 O7 2.725408 1_555
La1 O3 2.939659 1_565
La1 O3 2.939659 1_455
O0 Ta1 1.985341 1_545
O0 Ta1 1.985341 1_655
O1 Ta0 1.985341 1_455
O1 Ta0 1.985341 1_565
O2 Ta0 1.922969 1_555
O2 Ta1 2.096464 1_554
O3 Ta1 1.922969 1_555
O3 Ta0 2.096464 1_555
O4 Ta0 2.046268 1_555
O5 Ta1 2.046268 1_555
O6 Ta0 1.901664 1_556
O7 Ta1 1.901664 1_555
