# generated using pymatgen
data_Rb3CuSi4
_symmetry_space_group_name_H-M   'P 1'
_cell_length_a   5.71707703
_cell_length_b   6.89728008
_cell_length_c   12.48668596
_cell_angle_alpha   90.00000000
_cell_angle_beta   90.00000000
_cell_angle_gamma   90.00000000
_symmetry_Int_Tables_number   1
_chemical_formula_structural   Rb3CuSi4
_chemical_formula_sum   'Rb6 Cu2 Si8'
_cell_volume   492.37851582
_cell_formula_units_Z   2
loop_
 _symmetry_equiv_pos_site_id
 _symmetry_equiv_pos_as_xyz
  1  'x, y, z'
loop_
 _atom_site_type_symbol
 _atom_site_label
 _atom_site_symmetry_multiplicity
 _atom_site_fract_x
 _atom_site_fract_y
 _atom_site_fract_z
 _atom_site_occupancy
  Rb  Rb0  1  0.43988670  0.50000000  0.50000000  1
  Rb  Rb1  1  0.56011330  0.00000000  0.00000000  1
  Rb  Rb2  1  0.15961576  0.00000000  0.23309196  1
  Rb  Rb3  1  0.15961576  0.00000000  0.76690804  1
  Rb  Rb4  1  0.84038424  0.50000000  0.26690804  1
  Rb  Rb5  1  0.84038424  0.50000000  0.73309196  1
  Cu  Cu0  1  0.69332810  0.50000000  0.00000000  1
  Cu  Cu1  1  0.30667190  0.00000000  0.50000000  1
  Si  Si0  1  0.94882881  0.17971990  0.50000000  1
  Si  Si1  1  0.66364167  0.00000000  0.59965368  1
  Si  Si2  1  0.33635833  0.50000000  0.09965368  1
  Si  Si3  1  0.33635833  0.50000000  0.90034632  1
  Si  Si4  1  0.05117119  0.67971990  0.00000000  1
  Si  Si5  1  0.05117119  0.32028010  0.00000000  1
  Si  Si6  1  0.66364167  0.00000000  0.40034632  1
  Si  Si7  1  0.94882881  0.82028010  0.50000000  1
loop_
_geom_bond_atom_site_label_1
_geom_bond_atom_site_label_2
_geom_bond_distance
_geom_bond_site_symmetry_2
Rb0 Si7 3.572329 1_455
Rb0 Si0 3.572329 1_455
Rb0 Si7 3.653229 1_555
Rb0 Si0 3.653229 1_555
Rb0 Si1 3.883030 1_565
Rb0 Si1 3.883030 1_555
Rb0 Si6 3.883030 1_565
Rb0 Si6 3.883030 1_555
Rb1 Si5 3.572329 1_655
Rb1 Si4 3.572329 1_645
Rb1 Si5 3.653229 1_555
Rb1 Si4 3.653229 1_545
Rb1 Si2 3.883030 1_545
Rb1 Si2 3.883030 1_555
Rb1 Si3 3.883030 1_544
Rb1 Si3 3.883030 1_554
Rb2 Si6 3.521622 1_455
Rb2 Si6 3.558791 1_555
Rb2 Si5 3.706159 1_555
Rb2 Si4 3.706159 1_545
Rb2 Si0 3.754507 1_455
Rb2 Si7 3.754507 1_445
Rb2 Si2 3.961106 1_545
Rb2 Si2 3.961106 1_555
Rb3 Si1 3.521622 1_455
Rb3 Si1 3.558791 1_555
Rb3 Si5 3.706159 1_556
Rb3 Si4 3.706159 1_546
Rb3 Si0 3.754507 1_455
Rb3 Si7 3.754507 1_445
Rb3 Si3 3.961106 1_555
Rb3 Si3 3.961106 1_545
Rb4 Si2 3.521622 1_655
Rb4 Si2 3.558791 1_555
Rb4 Si7 3.706159 1_555
Rb4 Si0 3.706159 1_555
Rb4 Si4 3.754507 1_655
Rb4 Si5 3.754507 1_655
Rb4 Si6 3.961106 1_565
Rb4 Si6 3.961106 1_555
Rb5 Si3 3.521622 1_655
Rb5 Si3 3.558791 1_555
Rb5 Si7 3.706159 1_555
Rb5 Si0 3.706159 1_555
Rb5 Si4 3.754507 1_656
Rb5 Si5 3.754507 1_656
Rb5 Si1 3.961106 1_565
Rb5 Si1 3.961106 1_555
Cu0 Si2 2.390262 1_555
Cu0 Si3 2.390262 1_554
Cu0 Si4 2.392054 1_655
Cu0 Si5 2.392054 1_655
Cu0 Rb4 3.437203 1_555
Cu0 Rb5 3.437203 1_554
Cu0 Rb1 3.531735 1_555
Cu0 Rb1 3.531735 1_565
Cu1 Si1 2.390262 1_555
Cu1 Si6 2.390262 1_555
Cu1 Si0 2.392054 1_455
Cu1 Si7 2.392054 1_445
Cu1 Rb3 3.437203 1_555
Cu1 Rb2 3.437203 1_555
Cu1 Rb0 3.531735 1_555
Cu1 Rb0 3.531735 1_545
Si0 Si1 2.396512 1_555
Si0 Si6 2.396512 1_555
Si0 Si7 2.479157 1_545
Si1 Si7 2.396512 1_545
Si1 Si6 2.488689 1_555
Si2 Si4 2.396512 1_555
Si2 Si5 2.396512 1_555
Si2 Si3 2.488689 1_554
Si3 Si4 2.396512 1_556
Si3 Si5 2.396512 1_556
Si4 Si5 2.479157 1_555
Si6 Si7 2.396512 1_545
