# generated using pymatgen
data_Zr3ZnPd2N
_symmetry_space_group_name_H-M   'P 1'
_cell_length_a   8.57907306
_cell_length_b   8.57907318
_cell_length_c   8.57907412
_cell_angle_alpha   60.00000017
_cell_angle_beta   59.99999970
_cell_angle_gamma   60.00000027
_symmetry_Int_Tables_number   1
_chemical_formula_structural   Zr3ZnPd2N
_chemical_formula_sum   'Zr12 Zn4 Pd8 N4'
_cell_volume   446.48426879
_cell_formula_units_Z   4
loop_
 _symmetry_equiv_pos_site_id
 _symmetry_equiv_pos_as_xyz
  1  'x, y, z'
loop_
 _atom_site_type_symbol
 _atom_site_label
 _atom_site_symmetry_multiplicity
 _atom_site_fract_x
 _atom_site_fract_y
 _atom_site_fract_z
 _atom_site_occupancy
  Zr  Zr0  1  0.81094182  0.18905818  0.18905818  1
  Zr  Zr1  1  0.18905818  0.81094182  0.18905818  1
  Zr  Zr2  1  0.81094182  0.81094182  0.18905818  1
  Zr  Zr3  1  0.18905818  0.81094182  0.81094182  1
  Zr  Zr4  1  0.81094182  0.18905818  0.81094182  1
  Zr  Zr5  1  0.18905818  0.18905818  0.81094182  1
  Zr  Zr6  1  0.43905818  0.06094182  0.06094182  1
  Zr  Zr7  1  0.06094182  0.43905818  0.06094182  1
  Zr  Zr8  1  0.43905818  0.43905818  0.06094182  1
  Zr  Zr9  1  0.06094182  0.43905818  0.43905818  1
  Zr  Zr10  1  0.43905818  0.06094182  0.43905818  1
  Zr  Zr11  1  0.06094182  0.06094182  0.43905818  1
  Zn  Zn0  1  0.62500000  0.62500000  0.12500000  1
  Zn  Zn1  1  0.62500000  0.62500000  0.62500000  1
  Zn  Zn2  1  0.12500000  0.62500000  0.62500000  1
  Zn  Zn3  1  0.62500000  0.12500000  0.62500000  1
  Pd  Pd0  1  0.41303047  0.41303047  0.76090558  1
  Pd  Pd1  1  0.41303047  0.41303047  0.41303047  1
  Pd  Pd2  1  0.76090558  0.41303047  0.41303047  1
  Pd  Pd3  1  0.41303047  0.76090558  0.41303047  1
  Pd  Pd4  1  0.83696953  0.83696953  0.48909442  1
  Pd  Pd5  1  0.83696953  0.83696953  0.83696953  1
  Pd  Pd6  1  0.48909442  0.83696953  0.83696953  1
  Pd  Pd7  1  0.83696953  0.48909442  0.83696953  1
  N  N0  1  0.12500000  0.12500000  0.62500000  1
  N  N1  1  0.12500000  0.12500000  0.12500000  1
  N  N2  1  0.62500000  0.12500000  0.12500000  1
  N  N3  1  0.12500000  0.62500000  0.12500000  1
loop_
_geom_bond_atom_site_label_1
_geom_bond_atom_site_label_2
_geom_bond_distance
_geom_bond_site_symmetry_2
Pd0 Zn2 2.653229 1_555
Pd0 Zn3 2.653229 1_555
Pd0 Zn1 2.653249 1_555
Pd0 Zr7 2.815079 1_556
Pd0 Zr6 2.815080 1_556
Pd0 Zr8 2.815095 1_556
Pd0 Zr5 3.100132 1_555
Pd0 Zr4 3.100155 1_555
Pd0 Zr3 3.100155 1_555
Pd1 Zn0 2.653243 1_555
Pd1 Zn2 2.653243 1_555
Pd1 Zn3 2.653243 1_555
Pd1 Zr9 2.815069 1_555
Pd1 Zr10 2.815069 1_555
Pd1 Zr8 2.815069 1_555
Pd1 Zr0 3.100145 1_555
Pd1 Zr1 3.100145 1_555
Pd1 Zr5 3.100145 1_555
Pd2 Zn3 2.653228 1_555
Pd2 Zn0 2.653229 1_555
Pd2 Zn1 2.653249 1_555
Pd2 Zr11 2.815079 1_655
Pd2 Zr7 2.815080 1_655
Pd2 Zr9 2.815094 1_655
Pd2 Zr0 3.100133 1_555
Pd2 Zr2 3.100155 1_555
Pd2 Zr4 3.100155 1_555
Pd3 Zn2 2.653228 1_555
Pd3 Zn0 2.653229 1_555
Pd3 Zn1 2.653249 1_555
Pd3 Zr11 2.815079 1_565
Pd3 Zr6 2.815080 1_565
Pd3 Zr10 2.815094 1_565
Pd3 Zr1 3.100133 1_555
Pd3 Zr2 3.100154 1_555
Pd3 Zr3 3.100155 1_555
Pd4 Zn2 2.653229 1_655
Pd4 Zn3 2.653229 1_565
Pd4 Zn1 2.653249 1_555
Pd4 Zr1 2.815079 1_655
Pd4 Zr0 2.815080 1_565
Pd4 Zr2 2.815095 1_555
Pd4 Zr11 3.100132 1_665
Pd4 Zr10 3.100155 1_565
Pd4 Zr9 3.100155 1_655
Pd5 Zn0 2.653243 1_556
Pd5 Zn2 2.653243 1_655
Pd5 Zn3 2.653243 1_565
Pd5 Zr3 2.815069 1_655
Pd5 Zr4 2.815069 1_565
Pd5 Zr2 2.815069 1_556
Pd5 Zr6 3.100145 1_566
Pd5 Zr7 3.100145 1_656
Pd5 Zr11 3.100145 1_665
Pd6 Zn3 2.653228 1_565
Pd6 Zn0 2.653229 1_556
Pd6 Zn1 2.653249 1_555
Pd6 Zr5 2.815079 1_565
Pd6 Zr1 2.815080 1_556
Pd6 Zr3 2.815094 1_555
Pd6 Zr6 3.100133 1_566
Pd6 Zr8 3.100155 1_556
Pd6 Zr10 3.100155 1_565
Pd7 Zn2 2.653228 1_655
Pd7 Zn0 2.653229 1_556
Pd7 Zn1 2.653249 1_555
Pd7 Zr5 2.815079 1_655
Pd7 Zr0 2.815080 1_556
Pd7 Zr4 2.815094 1_555
Pd7 Zr7 3.100133 1_656
Pd7 Zr8 3.100154 1_556
Pd7 Zr9 3.100155 1_655
N0 Zr4 2.281242 1_455
N0 Zr10 2.281242 1_555
N0 Zr3 2.281242 1_545
N0 Zr9 2.281242 1_555
N0 Zr11 2.281242 1_555
N0 Zr5 2.281242 1_555
N1 Zr6 2.281242 1_555
N1 Zr0 2.281242 1_455
N1 Zr7 2.281242 1_555
N1 Zr1 2.281242 1_545
N1 Zr5 2.281242 1_554
N1 Zr11 2.281242 1_555
N2 Zr2 2.281242 1_545
N2 Zr8 2.281242 1_555
N2 Zr0 2.281242 1_555
N2 Zr6 2.281242 1_555
N2 Zr10 2.281242 1_555
N2 Zr4 2.281242 1_554
N3 Zr2 2.281242 1_455
N3 Zr8 2.281242 1_555
N3 Zr1 2.281242 1_555
N3 Zr7 2.281242 1_555
N3 Zr9 2.281242 1_555
N3 Zr3 2.281242 1_554
