# generated using pymatgen
data_Be4Ni2Mo6C
_symmetry_space_group_name_H-M   'P 1'
_cell_length_a   7.50279557
_cell_length_b   7.50279571
_cell_length_c   7.50279472
_cell_angle_alpha   59.99999567
_cell_angle_beta   59.99999502
_cell_angle_gamma   59.99999984
_symmetry_Int_Tables_number   1
_chemical_formula_structural   Be4Ni2Mo6C
_chemical_formula_sum   'Be8 Ni4 Mo12 C2'
_cell_volume   298.64432732
_cell_formula_units_Z   2
loop_
 _symmetry_equiv_pos_site_id
 _symmetry_equiv_pos_as_xyz
  1  'x, y, z'
loop_
 _atom_site_type_symbol
 _atom_site_label
 _atom_site_symmetry_multiplicity
 _atom_site_fract_x
 _atom_site_fract_y
 _atom_site_fract_z
 _atom_site_occupancy
  Be  Be0  1  0.32700504  0.32700504  0.01898387  1
  Be  Be1  1  0.32700504  0.32700504  0.32700504  1
  Be  Be2  1  0.23101613  0.92299496  0.92299496  1
  Be  Be3  1  0.92299496  0.92299496  0.92299496  1
  Be  Be4  1  0.01898387  0.32700504  0.32700504  1
  Be  Be5  1  0.32700504  0.01898387  0.32700504  1
  Be  Be6  1  0.92299496  0.92299496  0.23101613  1
  Be  Be7  1  0.92299496  0.23101613  0.92299496  1
  Ni  Ni0  1  0.12500000  0.62500000  0.12500000  1
  Ni  Ni1  1  0.12500000  0.12500000  0.62500000  1
  Ni  Ni2  1  0.62500000  0.12500000  0.12500000  1
  Ni  Ni3  1  0.12500000  0.12500000  0.12500000  1
  Mo  Mo0  1  0.29986892  0.70013108  0.70013108  1
  Mo  Mo1  1  0.70013108  0.70013108  0.29986892  1
  Mo  Mo2  1  0.70013108  0.29986892  0.70013108  1
  Mo  Mo3  1  0.29986892  0.70013108  0.29986892  1
  Mo  Mo4  1  0.54986892  0.95013108  0.54986892  1
  Mo  Mo5  1  0.54986892  0.95013108  0.95013108  1
  Mo  Mo6  1  0.95013108  0.54986892  0.54986892  1
  Mo  Mo7  1  0.95013108  0.54986892  0.95013108  1
  Mo  Mo8  1  0.29986892  0.29986892  0.70013108  1
  Mo  Mo9  1  0.54986892  0.54986892  0.95013108  1
  Mo  Mo10  1  0.95013108  0.95013108  0.54986892  1
  Mo  Mo11  1  0.70013108  0.29986892  0.29986892  1
  C  C0  1  0.50000000  0.50000000  0.50000000  1
  C  C1  1  0.75000000  0.75000000  0.75000000  1
loop_
_geom_bond_atom_site_label_1
_geom_bond_atom_site_label_2
_geom_bond_distance
_geom_bond_site_symmetry_2
Be0 Ni3 2.261143 1_555
Be0 Ni2 2.261149 1_555
Be0 Ni0 2.261149 1_555
Be0 Be4 2.311020 1_555
Be0 Be1 2.311020 1_555
Be0 Be5 2.311020 1_555
Be0 Mo8 2.611803 1_554
Be0 Mo2 2.611808 1_554
Be0 Mo0 2.611808 1_554
Be0 Mo7 2.631925 1_454
Be0 Mo5 2.631925 1_544
Be0 Mo9 2.631931 1_554
Be1 Ni1 2.261145 1_555
Be1 Ni2 2.261146 1_555
Be1 Ni0 2.261146 1_555
Be1 Be4 2.311020 1_555
Be1 Be5 2.311020 1_555
Be1 Mo8 2.611811 1_555
Be1 Mo11 2.611811 1_555
Be1 Mo3 2.611811 1_555
Be1 Mo9 2.631928 1_554
Be1 Mo6 2.631928 1_455
Be1 Mo4 2.631928 1_545
Be2 Ni3 2.261143 1_566
Be2 Ni1 2.261149 1_565
Be2 Ni0 2.261149 1_556
Be2 Be6 2.311020 1_456
Be2 Be3 2.311020 1_455
Be2 Be7 2.311020 1_465
Be2 Mo5 2.611803 1_555
Be2 Mo4 2.611807 1_555
Be2 Mo9 2.611808 1_555
Be2 Mo3 2.631925 1_556
Be2 Mo8 2.631925 1_565
Be2 Mo0 2.631931 1_555
Be3 Ni1 2.261145 1_665
Be3 Ni2 2.261146 1_566
Be3 Ni0 2.261146 1_656
Be3 Be6 2.311020 1_556
Be3 Be7 2.311020 1_565
Be3 Mo10 2.611811 1_555
Be3 Mo5 2.611811 1_555
Be3 Mo7 2.611811 1_555
Be3 Mo1 2.631928 1_556
Be3 Mo0 2.631928 1_655
Be3 Mo2 2.631928 1_565
Be4 Ni3 2.261143 1_555
Be4 Ni1 2.261149 1_555
Be4 Ni0 2.261149 1_555
Be4 Be5 2.311020 1_555
Be4 Mo11 2.611803 1_455
Be4 Mo2 2.611807 1_455
Be4 Mo1 2.611808 1_455
Be4 Mo7 2.631925 1_454
Be4 Mo10 2.631925 1_445
Be4 Mo6 2.631931 1_455
Be5 Ni3 2.261143 1_555
Be5 Ni1 2.261149 1_555
Be5 Ni2 2.261149 1_555
Be5 Mo3 2.611804 1_545
Be5 Mo0 2.611807 1_545
Be5 Mo1 2.611808 1_545
Be5 Mo5 2.631925 1_544
Be5 Mo10 2.631925 1_445
Be5 Mo4 2.631931 1_545
Be6 Ni3 2.261143 1_665
Be6 Ni2 2.261149 1_565
Be6 Ni0 2.261149 1_655
Be6 Be7 2.311020 1_564
Be6 Mo10 2.611803 1_555
Be6 Mo4 2.611808 1_555
Be6 Mo6 2.611808 1_555
Be6 Mo3 2.631925 1_655
Be6 Mo11 2.631925 1_565
Be6 Mo1 2.631931 1_555
Be7 Ni3 2.261143 1_656
Be7 Ni1 2.261149 1_655
Be7 Ni2 2.261149 1_556
Be7 Mo7 2.611804 1_555
Be7 Mo6 2.611807 1_555
Be7 Mo9 2.611808 1_555
Be7 Mo11 2.631925 1_556
Be7 Mo8 2.631925 1_655
Be7 Mo2 2.631931 1_555
Mo0 Ni0 2.638364 1_556
Mo0 Ni1 2.638364 1_565
Mo1 Ni0 2.638364 1_655
Mo1 Ni2 2.638364 1_565
Mo2 Ni2 2.638364 1_556
Mo2 Ni1 2.638364 1_655
Mo3 Ni0 2.638364 1_555
Mo3 Ni3 2.638364 1_565
Mo4 Ni2 2.638364 1_565
Mo4 Ni1 2.638364 1_565
Mo5 Ni3 2.638364 1_566
Mo5 Ni2 2.638364 1_566
Mo6 Ni0 2.638364 1_655
Mo6 Ni1 2.638364 1_655
Mo7 Ni0 2.638364 1_656
Mo7 Ni3 2.638364 1_656
Mo8 Ni3 2.638364 1_556
Mo8 Ni1 2.638364 1_555
Mo9 Ni0 2.638364 1_556
Mo9 Ni2 2.638364 1_556
Mo10 Ni3 2.638364 1_665
Mo10 Ni1 2.638364 1_665
Mo11 Ni3 2.638364 1_655
Mo11 Ni2 2.638364 1_555
C0 Mo1 2.123502 1_555
C0 Mo8 2.123502 1_555
C0 Mo2 2.123502 1_555
C0 Mo3 2.123502 1_555
C0 Mo0 2.123502 1_555
C0 Mo11 2.123502 1_555
C1 Mo10 2.123502 1_555
C1 Mo9 2.123502 1_555
C1 Mo7 2.123502 1_555
C1 Mo4 2.123502 1_555
C1 Mo5 2.123502 1_555
C1 Mo6 2.123502 1_555
