# generated using pymatgen
data_Zr6Al7Cu13Pd3
_symmetry_space_group_name_H-M   'P 1'
_cell_length_a   8.44927566
_cell_length_b   8.44927581
_cell_length_c   8.44927611
_cell_angle_alpha   60.05021567
_cell_angle_beta   60.05021357
_cell_angle_gamma   60.05021093
_symmetry_Int_Tables_number   1
_chemical_formula_structural   Zr6Al7Cu13Pd3
_chemical_formula_sum   'Zr6 Al7 Cu13 Pd3'
_cell_volume   427.00942509
_cell_formula_units_Z   1
loop_
 _symmetry_equiv_pos_site_id
 _symmetry_equiv_pos_as_xyz
  1  'x, y, z'
loop_
 _atom_site_type_symbol
 _atom_site_label
 _atom_site_symmetry_multiplicity
 _atom_site_fract_x
 _atom_site_fract_y
 _atom_site_fract_z
 _atom_site_occupancy
  Zr  Zr0  1  0.70626880  0.70626880  0.29476401  1
  Zr  Zr1  1  0.29537524  0.70540892  0.29537524  1
  Zr  Zr2  1  0.70540892  0.29537524  0.29537524  1
  Zr  Zr3  1  0.29537524  0.29537524  0.70540892  1
  Zr  Zr4  1  0.70626880  0.29476401  0.70626880  1
  Zr  Zr5  1  0.29476401  0.70626880  0.70626880  1
  Al  Al0  1  0.99598570  0.99598570  0.99598570  1
  Al  Al1  1  0.00067345  0.00067345  0.50000846  1
  Al  Al2  1  0.50003856  0.00100500  0.50003856  1
  Al  Al3  1  0.00100500  0.50003856  0.50003856  1
  Al  Al4  1  0.50003856  0.50003856  0.00100500  1
  Al  Al5  1  0.00067345  0.50000846  0.00067345  1
  Al  Al6  1  0.50000846  0.00067345  0.00067345  1
  Cu  Cu0  1  0.87863519  0.87863519  0.87863519  1
  Cu  Cu1  1  0.12036725  0.12036725  0.63702596  1
  Cu  Cu2  1  0.12036725  0.63702596  0.12036725  1
  Cu  Cu3  1  0.63702596  0.12036725  0.12036725  1
  Cu  Cu4  1  0.12025529  0.12025529  0.12025529  1
  Cu  Cu5  1  0.67223709  0.67223709  0.98788923  1
  Cu  Cu6  1  0.67223709  0.98788923  0.67223709  1
  Cu  Cu7  1  0.98788923  0.67223709  0.67223709  1
  Cu  Cu8  1  0.67015100  0.67015100  0.67015100  1
  Cu  Cu9  1  0.32832142  0.32832142  0.01590465  1
  Cu  Cu10  1  0.32832142  0.01590465  0.32832142  1
  Cu  Cu11  1  0.01590465  0.32832142  0.32832142  1
  Cu  Cu12  1  0.32855464  0.32855464  0.32855464  1
  Pd  Pd0  1  0.88329677  0.88329677  0.35125480  1
  Pd  Pd1  1  0.88329677  0.35125480  0.88329677  1
  Pd  Pd2  1  0.35125480  0.88329677  0.88329677  1
loop_
_geom_bond_atom_site_label_1
_geom_bond_atom_site_label_2
_geom_bond_distance
_geom_bond_site_symmetry_2
Zr0 Zr1 3.472808 1_555
Zr0 Zr2 3.472808 1_555
Zr0 Zr5 3.479556 1_555
Zr0 Zr4 3.479556 1_555
Zr1 Zr2 3.467117 1_555
Zr1 Zr3 3.467117 1_555
Zr1 Zr5 3.472808 1_555
Zr2 Zr3 3.467117 1_555
Zr2 Zr4 3.472808 1_555
Zr3 Zr4 3.472808 1_555
Zr3 Zr5 3.472808 1_555
Zr4 Zr5 3.479556 1_555
Al0 Cu0 2.427813 1_555
Al0 Pd2 2.453857 1_655
Al0 Pd1 2.453857 1_565
Al0 Pd0 2.453857 1_556
Al0 Cu3 2.478974 1_566
Al0 Cu2 2.478974 1_656
Al0 Cu1 2.478974 1_665
Al0 Cu4 2.570959 1_666
Al1 Cu6 2.437294 1_445
Al1 Cu7 2.437294 1_445
Al1 Cu10 2.438110 1_555
Al1 Cu11 2.438110 1_555
Al1 Cu1 2.597137 1_555
Al1 Cu0 2.614393 1_445
Al1 Cu4 2.623428 1_555
Al1 Pd0 2.649168 1_445
Al1 Zr1 3.036303 1_545
Al1 Zr2 3.036303 1_455
Al1 Zr4 3.036946 1_455
Al1 Zr5 3.036946 1_545
Al2 Cu12 2.438548 1_555
Al2 Cu10 2.441947 1_555
Al2 Cu8 2.446518 1_545
Al2 Cu6 2.457183 1_545
Al2 Cu1 2.622118 1_555
Al2 Cu3 2.622118 1_555
Al2 Pd0 2.650232 1_545
Al2 Pd2 2.650232 1_545
Al2 Zr3 3.034193 1_555
Al2 Zr2 3.034193 1_555
Al2 Zr0 3.034539 1_545
Al2 Zr5 3.034539 1_545
Al3 Cu12 2.438548 1_555
Al3 Cu11 2.441947 1_555
Al3 Cu8 2.446518 1_455
Al3 Cu7 2.457183 1_455
Al3 Cu1 2.622118 1_555
Al3 Cu2 2.622118 1_555
Al3 Pd0 2.650232 1_455
Al3 Pd1 2.650232 1_455
Al3 Zr3 3.034193 1_555
Al3 Zr1 3.034193 1_555
Al3 Zr0 3.034539 1_455
Al3 Zr4 3.034539 1_455
Al4 Cu12 2.438548 1_555
Al4 Cu9 2.441947 1_555
Al4 Cu8 2.446519 1_554
Al4 Cu5 2.457183 1_554
Al4 Cu2 2.622118 1_555
Al4 Cu3 2.622118 1_555
Al4 Pd1 2.650232 1_554
Al4 Pd2 2.650232 1_554
Al4 Zr1 3.034193 1_555
Al4 Zr2 3.034193 1_555
Al4 Zr4 3.034539 1_554
Al4 Zr5 3.034539 1_554
Al5 Cu5 2.437294 1_454
Al5 Cu7 2.437295 1_454
Al5 Cu9 2.438110 1_555
Al5 Cu11 2.438110 1_555
Al5 Cu2 2.597137 1_555
Al5 Cu0 2.614392 1_454
Al5 Cu4 2.623428 1_555
Al5 Pd1 2.649168 1_454
Al5 Zr3 3.036303 1_554
Al5 Zr2 3.036303 1_455
Al5 Zr0 3.036946 1_455
Al5 Zr5 3.036946 1_554
Al6 Cu5 2.437294 1_544
Al6 Cu6 2.437294 1_544
Al6 Cu9 2.438110 1_555
Al6 Cu10 2.438110 1_555
Al6 Cu3 2.597137 1_555
Al6 Cu0 2.614392 1_544
Al6 Cu4 2.623428 1_555
Al6 Pd2 2.649168 1_544
Al6 Zr3 3.036303 1_554
Al6 Zr1 3.036303 1_545
Al6 Zr0 3.036946 1_545
Al6 Zr4 3.036946 1_554
Cu0 Cu7 2.599318 1_555
Cu0 Cu6 2.599318 1_555
Cu0 Cu5 2.599318 1_555
Cu0 Cu3 2.889571 1_566
Cu0 Cu2 2.889571 1_656
Cu0 Cu1 2.889571 1_665
Cu0 Zr5 2.914855 1_655
Cu0 Zr4 2.914855 1_565
Cu0 Zr0 2.914855 1_556
Cu1 Cu10 2.616079 1_555
Cu1 Cu11 2.616079 1_555
Cu1 Cu12 2.629749 1_555
Cu1 Pd1 2.852640 1_455
Cu1 Pd2 2.852640 1_545
Cu1 Zr4 2.902497 1_455
Cu1 Zr5 2.902497 1_545
Cu1 Zr3 2.931934 1_555
Cu2 Cu9 2.616079 1_555
Cu2 Pd0 2.852640 1_455
Cu2 Pd2 2.852640 1_554
Cu2 Zr0 2.902497 1_455
Cu2 Zr5 2.902497 1_554
Cu2 Zr1 2.931934 1_555
Cu3 Cu9 2.616079 1_555
Cu3 Pd0 2.852640 1_545
Cu3 Pd1 2.852640 1_554
Cu3 Zr0 2.902497 1_545
Cu3 Zr4 2.902497 1_554
Cu3 Zr2 2.931934 1_555
Cu4 Cu9 2.636122 1_555
Cu4 Pd2 2.832904 1_544
Cu4 Pd1 2.832904 1_454
Cu4 Pd0 2.832905 1_445
Cu4 Zr2 2.914410 1_455
Cu4 Zr1 2.914410 1_545
Cu4 Zr3 2.914410 1_554
Cu5 Cu7 2.669056 1_555
Cu5 Cu6 2.669056 1_555
Cu5 Cu8 2.702372 1_555
Cu5 Pd1 2.703127 1_555
Cu5 Pd2 2.703127 1_555
Cu5 Zr0 2.908565 1_556
Cu5 Zr1 2.922903 1_556
Cu5 Zr2 2.922903 1_556
Cu6 Cu7 2.669056 1_555
Cu6 Cu8 2.702372 1_555
Cu6 Pd2 2.703127 1_555
Cu6 Pd0 2.703127 1_555
Cu6 Zr4 2.908565 1_565
Cu6 Zr3 2.922903 1_565
Cu6 Zr2 2.922903 1_565
Cu7 Cu8 2.702372 1_555
Cu7 Pd1 2.703128 1_555
Cu7 Pd0 2.703128 1_555
Cu7 Zr5 2.908565 1_655
Cu7 Zr3 2.922903 1_655
Cu7 Zr1 2.922903 1_655
Cu8 Pd2 2.700899 1_555
Cu8 Pd1 2.700900 1_555
Cu8 Pd0 2.700900 1_555
Cu8 Zr5 2.899367 1_555
Cu8 Zr4 2.899367 1_555
Cu8 Zr0 2.899367 1_555
Cu9 Zr3 2.928019 1_554
Cu9 Zr4 2.935530 1_554
Cu9 Zr5 2.935530 1_554
Cu10 Cu3 2.616079 1_555
Cu10 Cu4 2.636122 1_555
Cu10 Cu11 2.641699 1_555
Cu10 Cu9 2.641699 1_555
Cu10 Cu12 2.643635 1_555
Cu10 Zr1 2.928019 1_545
Cu10 Zr0 2.935530 1_545
Cu10 Zr5 2.935530 1_545
Cu11 Cu2 2.616079 1_555
Cu11 Cu4 2.636122 1_555
Cu11 Cu9 2.641699 1_555
Cu11 Cu12 2.643635 1_555
Cu11 Zr2 2.928019 1_455
Cu11 Zr0 2.935530 1_455
Cu11 Zr4 2.935530 1_455
Cu12 Cu3 2.629749 1_555
Cu12 Cu2 2.629749 1_555
Cu12 Cu9 2.643635 1_555
Cu12 Zr2 2.931186 1_555
Cu12 Zr1 2.931186 1_555
Cu12 Zr3 2.931186 1_555
Pd0 Zr0 2.891713 1_555
Pd0 Zr1 2.906308 1_655
Pd0 Zr2 2.906308 1_565
Pd1 Zr4 2.891713 1_555
Pd1 Zr3 2.906308 1_655
Pd1 Zr2 2.906308 1_556
Pd2 Zr5 2.891713 1_555
Pd2 Zr3 2.906308 1_565
Pd2 Zr1 2.906308 1_556
