# generated using pymatgen
data_Zr10In3Ga2Sb3
_symmetry_space_group_name_H-M   'P 1'
_cell_length_a   8.69357261
_cell_length_b   8.69357300
_cell_length_c   5.87930105
_cell_angle_alpha   90.00000000
_cell_angle_beta   90.00000000
_cell_angle_gamma   119.99999477
_symmetry_Int_Tables_number   1
_chemical_formula_structural   Zr10In3Ga2Sb3
_chemical_formula_sum   'Zr10 In3 Ga2 Sb3'
_cell_volume   384.81584384
_cell_formula_units_Z   1
loop_
 _symmetry_equiv_pos_site_id
 _symmetry_equiv_pos_as_xyz
  1  'x, y, z'
loop_
 _atom_site_type_symbol
 _atom_site_label
 _atom_site_symmetry_multiplicity
 _atom_site_fract_x
 _atom_site_fract_y
 _atom_site_fract_z
 _atom_site_occupancy
  Zr  Zr0  1  0.66666700  0.33333300  0.99706198  1
  Zr  Zr1  1  0.33333300  0.66666700  0.99706198  1
  Zr  Zr2  1  0.33333300  0.66666700  0.50293802  1
  Zr  Zr3  1  0.66666700  0.33333300  0.50293802  1
  Zr  Zr4  1  0.72812635  0.72812635  0.75000000  1
  Zr  Zr5  1  0.27187365  0.00000000  0.75000000  1
  Zr  Zr6  1  0.00000000  0.27187365  0.75000000  1
  Zr  Zr7  1  0.26001570  0.26001570  0.25000000  1
  Zr  Zr8  1  0.73998430  1.00000000  0.25000000  1
  Zr  Zr9  1  1.00000000  0.73998430  0.25000000  1
  In  In0  1  0.38298592  0.38298592  0.75000000  1
  In  In1  1  0.61701408  0.00000000  0.75000000  1
  In  In2  1  0.00000000  0.61701408  0.75000000  1
  Ga  Ga0  1  0.00000000  0.00000000  0.51521186  1
  Ga  Ga1  1  0.00000000  0.00000000  0.98478814  1
  Sb  Sb0  1  0.60715121  0.60715121  0.25000000  1
  Sb  Sb1  1  0.39284879  1.00000000  0.25000000  1
  Sb  Sb2  1  1.00000000  0.39284879  0.25000000  1
loop_
_geom_bond_atom_site_label_1
_geom_bond_atom_site_label_2
_geom_bond_distance
_geom_bond_site_symmetry_2
Zr0 Zr3 2.905104 1_555
Zr0 Zr3 2.974197 1_556
Zr1 Zr2 2.905104 1_555
Zr1 Zr2 2.974197 1_556
In0 Zr6 2.966913 1_555
In0 Zr5 2.966913 1_555
In0 Zr4 3.000504 1_555
In0 Zr0 3.072939 1_555
In0 Zr3 3.072939 1_555
In0 Zr1 3.072939 1_555
In0 Zr2 3.072939 1_555
In0 Zr7 3.128005 1_555
In0 Zr7 3.128005 1_556
In1 Zr4 2.966913 1_545
In1 Zr6 2.966913 1_655
In1 Zr5 3.000503 1_555
In1 Zr0 3.072932 1_555
In1 Zr3 3.072932 1_555
In1 Zr1 3.072935 1_545
In1 Zr2 3.072935 1_545
In1 Zr8 3.128005 1_546
In1 Zr8 3.128005 1_545
In2 Zr4 2.966913 1_455
In2 Zr5 2.966913 1_565
In2 Zr6 3.000503 1_555
In2 Zr1 3.072932 1_555
In2 Zr2 3.072932 1_555
In2 Zr0 3.072935 1_455
In2 Zr3 3.072935 1_455
In2 Zr9 3.128005 1_456
In2 Zr9 3.128005 1_455
Ga0 Zr5 2.737126 1_555
Ga0 Zr6 2.737127 1_555
Ga0 Zr4 2.737127 1_445
Ga0 Zr8 2.746088 1_445
Ga0 Zr9 2.746088 1_445
Ga0 Zr7 2.746088 1_555
Ga1 Zr5 2.737126 1_555
Ga1 Zr6 2.737127 1_555
Ga1 Zr4 2.737127 1_445
Ga1 Zr8 2.746088 1_446
Ga1 Zr9 2.746088 1_446
Ga1 Zr7 2.746088 1_556
Sb0 Zr9 3.008924 1_555
Sb0 Zr8 3.008925 1_555
Sb0 Zr7 3.017848 1_555
Sb0 Zr2 3.062256 1_555
Sb0 Zr1 3.062256 1_554
Sb0 Zr3 3.062256 1_555
Sb0 Zr0 3.062256 1_554
Sb0 Zr4 3.122120 1_555
Sb0 Zr4 3.122120 1_554
Sb1 Zr7 3.008924 1_565
Sb1 Zr9 3.008925 1_455
Sb1 Zr8 3.017848 1_555
Sb1 Zr2 3.062249 1_555
Sb1 Zr1 3.062249 1_554
Sb1 Zr3 3.062252 1_565
Sb1 Zr0 3.062252 1_564
Sb1 Zr5 3.122120 1_564
Sb1 Zr5 3.122120 1_565
Sb2 Zr7 3.008924 1_655
Sb2 Zr8 3.008925 1_545
Sb2 Zr9 3.017848 1_555
Sb2 Zr3 3.062249 1_555
Sb2 Zr0 3.062249 1_554
Sb2 Zr2 3.062252 1_655
Sb2 Zr1 3.062252 1_654
Sb2 Zr6 3.122120 1_655
Sb2 Zr6 3.122120 1_654
