# generated using pymatgen
data_Cd3BiP6N13
_symmetry_space_group_name_H-M   'P 1'
_cell_length_a   7.30561025
_cell_length_b   7.27636068
_cell_length_c   7.27636172
_cell_angle_alpha   109.38964583
_cell_angle_beta   109.55268330
_cell_angle_gamma   109.55267473
_symmetry_Int_Tables_number   1
_chemical_formula_structural   Cd3BiP6N13
_chemical_formula_sum   'Cd3 Bi1 P6 N13'
_cell_volume   297.45788617
_cell_formula_units_Z   1
loop_
 _symmetry_equiv_pos_site_id
 _symmetry_equiv_pos_as_xyz
  1  'x, y, z'
loop_
 _atom_site_type_symbol
 _atom_site_label
 _atom_site_symmetry_multiplicity
 _atom_site_fract_x
 _atom_site_fract_y
 _atom_site_fract_z
 _atom_site_occupancy
  Cd  Cd0  1  0.00321044  0.00000000  0.70021473  1
  Cd  Cd1  1  0.00321044  0.70021473  0.00000000  1
  Cd  Cd2  1  0.30299571  0.29978527  0.29978527  1
  Bi  Bi0  1  0.70325961  0.00000000  0.00000000  1
  P  P0  1  0.24539734  0.74773034  0.49607914  1
  P  P1  1  0.74931821  0.25165120  0.50392086  1
  P  P2  1  0.74931821  0.50392086  0.25165120  1
  P  P3  1  0.24539734  0.49607914  0.74773034  1
  P  P4  1  0.49766701  0.74834880  0.25226966  1
  P  P5  1  0.49766701  0.25226966  0.74834880  1
  N  N0  1  0.01130189  1.00000000  1.00000000  1
  N  N1  1  0.71456496  0.28772875  0.28772875  1
  N  N2  1  0.27907944  0.71036284  0.27993755  1
  N  N3  1  0.29228682  0.57385694  0.57385694  1
  N  N4  1  0.56871660  0.56957471  0.28963716  1
  N  N5  1  0.42683620  0.71227125  1.00000000  1
  N  N6  1  0.99914189  0.72006245  0.43042529  1
  N  N7  1  0.56871660  0.28963716  0.56957471  1
  N  N8  1  0.71842888  1.00000000  0.42614306  1
  N  N9  1  0.42683620  1.00000000  0.71227125  1
  N  N10  1  0.71842888  0.42614306  1.00000000  1
  N  N11  1  0.27907944  0.27993755  0.71036284  1
  N  N12  1  0.99914189  0.43042529  0.72006245  1
loop_
_geom_bond_atom_site_label_1
_geom_bond_atom_site_label_2
_geom_bond_distance
_geom_bond_site_symmetry_2
Cd0 N0 2.162280 1_545
Cd0 N11 2.295439 1_555
Cd0 N6 2.295439 1_445
Cd0 N8 2.351247 1_445
Cd1 N0 2.162280 1_554
Cd1 N2 2.295439 1_555
Cd1 N12 2.295439 1_454
Cd1 N10 2.351247 1_454
Cd2 N0 2.162279 1_544
Cd2 N7 2.295439 1_555
Cd2 N4 2.295439 1_555
Cd2 N3 2.351243 1_555
Bi0 N0 2.250437 1_644
Bi0 N9 2.373062 1_544
Bi0 N5 2.373062 1_544
Bi0 N1 2.373063 1_555
N1 P2 1.630787 1_555
N1 P1 1.630787 1_555
N2 P4 1.619804 1_555
N2 P0 1.621057 1_555
N3 P0 1.635242 1_555
N3 P3 1.635242 1_555
N4 P2 1.619804 1_555
N4 P4 1.621057 1_555
N5 P3 1.630787 1_555
N5 P4 1.630787 1_556
N6 P0 1.619803 1_655
N6 P2 1.621056 1_555
N7 P1 1.619804 1_555
N7 P5 1.621057 1_555
N8 P4 1.635239 1_555
N8 P1 1.635239 1_565
N9 P0 1.630787 1_555
N9 P5 1.630787 1_565
N10 P5 1.635239 1_555
N10 P2 1.635240 1_556
N11 P5 1.619804 1_555
N11 P3 1.621057 1_555
N12 P3 1.619803 1_655
N12 P1 1.621056 1_555
