# generated using pymatgen
data_GaRhS3
_symmetry_space_group_name_H-M   'P 1'
_cell_length_a   3.61309994
_cell_length_b   9.72072690
_cell_length_c   11.89159384
_cell_angle_alpha   90.00000000
_cell_angle_beta   90.00000000
_cell_angle_gamma   90.00000000
_symmetry_Int_Tables_number   1
_chemical_formula_structural   GaRhS3
_chemical_formula_sum   'Ga4 Rh4 S12'
_cell_volume   417.65605691
_cell_formula_units_Z   4
loop_
 _symmetry_equiv_pos_site_id
 _symmetry_equiv_pos_as_xyz
  1  'x, y, z'
loop_
 _atom_site_type_symbol
 _atom_site_label
 _atom_site_symmetry_multiplicity
 _atom_site_fract_x
 _atom_site_fract_y
 _atom_site_fract_z
 _atom_site_occupancy
  Ga  Ga0  1  0.75000000  0.25525425  0.79525780  1
  Ga  Ga1  1  0.25000000  0.74474575  0.20474220  1
  Ga  Ga2  1  0.75000000  0.75525425  0.70474220  1
  Ga  Ga3  1  0.25000000  0.24474575  0.29525780  1
  Rh  Rh0  1  0.25000000  0.40523298  0.60698326  1
  Rh  Rh1  1  0.75000000  0.59476702  0.39301674  1
  Rh  Rh2  1  0.25000000  0.90523298  0.89301674  1
  Rh  Rh3  1  0.75000000  0.09476702  0.10698326  1
  S  S0  1  0.25000000  0.93619616  0.09182132  1
  S  S1  1  0.75000000  0.06380384  0.90817868  1
  S  S2  1  0.25000000  0.43619616  0.40817868  1
  S  S3  1  0.75000000  0.56380384  0.59182132  1
  S  S4  1  0.75000000  0.10209387  0.31038700  1
  S  S5  1  0.25000000  0.89790613  0.68961300  1
  S  S6  1  0.75000000  0.60209387  0.18961300  1
  S  S7  1  0.25000000  0.39790613  0.81038700  1
  S  S8  1  0.25000000  0.25873834  0.10454413  1
  S  S9  1  0.75000000  0.74126166  0.89545587  1
  S  S10  1  0.25000000  0.75873834  0.39545587  1
  S  S11  1  0.75000000  0.24126166  0.60454413  1
loop_
_geom_bond_atom_site_label_1
_geom_bond_atom_site_label_2
_geom_bond_distance
_geom_bond_site_symmetry_2
Ga0 S11 2.271965 1_555
Ga0 S7 2.284485 1_555
Ga0 S7 2.284485 1_655
Ga0 S1 2.294907 1_555
Ga1 S10 2.271965 1_555
Ga1 S6 2.284485 1_555
Ga1 S6 2.284485 1_455
Ga1 S0 2.294907 1_555
Ga2 S9 2.271965 1_555
Ga2 S5 2.284485 1_555
Ga2 S5 2.284485 1_655
Ga2 S3 2.294907 1_555
Ga3 S8 2.271965 1_555
Ga3 S4 2.284485 1_555
Ga3 S4 2.284485 1_455
Ga3 S2 2.294907 1_555
Rh0 S3 2.381621 1_455
Rh0 S3 2.381621 1_555
Rh0 S2 2.383186 1_555
Rh0 S11 2.409366 1_455
Rh0 S11 2.409366 1_555
Rh0 S7 2.419843 1_555
Rh1 S2 2.381621 1_555
Rh1 S2 2.381621 1_655
Rh1 S3 2.383186 1_555
Rh1 S10 2.409366 1_655
Rh1 S10 2.409366 1_555
Rh1 S6 2.419843 1_555
Rh2 S1 2.381621 1_565
Rh2 S1 2.381621 1_465
Rh2 S0 2.383186 1_556
Rh2 S9 2.409366 1_555
Rh2 S9 2.409366 1_455
Rh2 S5 2.419843 1_555
Rh3 S0 2.381621 1_645
Rh3 S0 2.381621 1_545
Rh3 S1 2.383186 1_554
Rh3 S8 2.409366 1_555
Rh3 S8 2.409366 1_655
Rh3 S4 2.419843 1_555
