# generated using pymatgen
data_Hf15Ta(Ir2N)4
_symmetry_space_group_name_H-M   'P 1'
_cell_length_a   8.62966288
_cell_length_b   8.68470814
_cell_length_c   8.62966523
_cell_angle_alpha   60.20950722
_cell_angle_beta   60.00003714
_cell_angle_gamma   60.20944554
_symmetry_Int_Tables_number   1
_chemical_formula_structural   Hf15Ta(Ir2N)4
_chemical_formula_sum   'Hf15 Ta1 Ir8 N4'
_cell_volume   458.77102183
_cell_formula_units_Z   1
loop_
 _symmetry_equiv_pos_site_id
 _symmetry_equiv_pos_as_xyz
  1  'x, y, z'
loop_
 _atom_site_type_symbol
 _atom_site_label
 _atom_site_symmetry_multiplicity
 _atom_site_fract_x
 _atom_site_fract_y
 _atom_site_fract_z
 _atom_site_occupancy
  Hf  Hf0  1  0.12500663  0.62499745  0.62499796  1
  Hf  Hf1  1  0.62499896  0.62499745  0.12500363  1
  Hf  Hf2  1  0.62499696  0.62499745  0.62499796  1
  Hf  Hf3  1  0.81626766  0.81635166  0.18369034  1
  Hf  Hf4  1  0.18552734  0.18458823  0.81494221  1
  Hf  Hf5  1  0.81494221  0.18458823  0.81494121  1
  Hf  Hf6  1  0.18369034  0.81635166  0.18369034  1
  Hf  Hf7  1  0.18368934  0.81635166  0.81626866  1
  Hf  Hf8  1  0.81494221  0.18458623  0.18552834  1
  Hf  Hf9  1  0.43372863  0.43364562  0.06631338  1
  Hf  Hf10  1  0.06447683  0.06541434  0.43505391  1
  Hf  Hf11  1  0.43505491  0.06541434  0.43505491  1
  Hf  Hf12  1  0.06631338  0.43364562  0.06631338  1
  Hf  Hf13  1  0.06631338  0.43364662  0.43372763  1
  Hf  Hf14  1  0.43505491  0.06541334  0.06447583  1
  Ta  Ta0  1  0.62499749  0.12500654  0.62499949  1
  Ir  Ir0  1  0.76422384  0.40566385  0.41505516  1
  Ir  Ir1  1  0.40934053  0.77198641  0.40933453  1
  Ir  Ir2  1  0.41505516  0.40566085  0.76422884  1
  Ir  Ir3  1  0.41505716  0.40566285  0.41505516  1
  Ir  Ir4  1  0.48576480  0.84434288  0.83494466  1
  Ir  Ir5  1  0.84066799  0.47799804  0.84066499  1
  Ir  Ir6  1  0.83494566  0.84434288  0.48576580  1
  Ir  Ir7  1  0.83494666  0.84434488  0.83494566  1
  N  N0  1  0.62500031  0.12499933  0.12500068  1
  N  N1  1  0.12500035  0.62499995  0.12500035  1
  N  N2  1  0.12500068  0.12500133  0.62499731  1
  N  N3  1  0.12499968  0.12499933  0.12500068  1
loop_
_geom_bond_atom_site_label_1
_geom_bond_atom_site_label_2
_geom_bond_distance
_geom_bond_site_symmetry_2
Hf0 Ir1 2.701681 1_555
Hf0 Ir5 2.701766 1_455
Hf0 Ir3 2.707903 1_555
Hf0 Ir2 2.707909 1_555
Hf0 Ir6 2.708002 1_455
Hf0 Ir7 2.708010 1_455
Hf1 Ir1 2.701659 1_555
Hf1 Ir5 2.701765 1_554
Hf1 Ir0 2.707901 1_555
Hf1 Ir3 2.707903 1_555
Hf1 Ir4 2.707999 1_554
Hf1 Ir7 2.708009 1_554
Hf2 Ir1 2.701659 1_555
Hf2 Ir5 2.701765 1_555
Hf2 Ir0 2.707895 1_555
Hf2 Ir2 2.707903 1_555
Hf2 Ir4 2.707995 1_555
Hf2 Ir6 2.708010 1_555
Hf3 N1 2.281218 1_655
Hf3 N0 2.292748 1_565
Hf3 Ir7 2.822991 1_554
Hf3 Ir6 2.823001 1_555
Hf3 Ir1 3.167457 1_555
Hf4 N3 2.279274 1_556
Hf4 N2 2.279279 1_555
Hf4 Ir5 2.786622 1_455
Hf4 Ir4 2.794152 1_545
Hf5 N2 2.279278 1_655
Hf5 N0 2.279281 1_556
Hf5 Ir5 2.786622 1_555
Hf5 Ir7 2.794131 1_545
Hf6 N1 2.281211 1_555
Hf6 N3 2.292748 1_565
Hf6 Ir6 2.823002 1_455
Hf6 Ir4 2.823004 1_554
Hf6 Ir1 3.167470 1_555
Hf7 N1 2.281214 1_556
Hf7 N2 2.292770 1_565
Hf7 Ir7 2.822980 1_455
Hf7 Ir4 2.822991 1_555
Hf7 Ir1 3.167509 1_555
Hf8 N0 2.279260 1_555
Hf8 N3 2.279269 1_655
Hf8 Ir5 2.786652 1_554
Hf8 Ir6 2.794145 1_545
Hf9 N1 2.281197 1_555
Hf9 N0 2.292749 1_555
Hf9 Ir2 2.823025 1_554
Hf9 Ir3 2.823032 1_555
Hf9 Ir5 3.167507 1_554
Hf10 N3 2.279250 1_555
Hf10 N2 2.279250 1_555
Hf10 Ir1 2.786710 1_545
Hf10 Ir0 2.794230 1_455
Hf11 N2 2.279249 1_555
Hf11 N0 2.279257 1_555
Hf11 Ir1 2.786705 1_545
Hf11 Ir3 2.794218 1_555
Hf12 N1 2.281197 1_555
Hf12 N3 2.292751 1_555
Hf12 Ir2 2.823021 1_554
Hf12 Ir0 2.823040 1_455
Hf12 Ir5 3.167520 1_454
Hf13 N1 2.281191 1_555
Hf13 N2 2.292740 1_555
Hf13 Ir3 2.823040 1_555
Hf13 Ir0 2.823052 1_455
Hf13 Ir5 3.167489 1_455
Hf14 N3 2.279259 1_555
Hf14 N0 2.279266 1_555
Hf14 Ir1 2.786685 1_545
Hf14 Ir2 2.794201 1_554
Ir0 Ta0 2.648056 1_555
Ir2 Ta0 2.648047 1_555
Ir3 Ta0 2.648058 1_555
Ir4 Ta0 2.648131 1_565
Ir6 Ta0 2.648134 1_565
Ir7 Ta0 2.648122 1_565
