# generated using pymatgen
data_Ba4Na2Tc2O11
_symmetry_space_group_name_H-M   'P 1'
_cell_length_a   5.84834898
_cell_length_b   5.84834938
_cell_length_c   8.58771488
_cell_angle_alpha   90.00000000
_cell_angle_beta   90.00000000
_cell_angle_gamma   91.78768879
_symmetry_Int_Tables_number   1
_chemical_formula_structural   Ba4Na2Tc2O11
_chemical_formula_sum   'Ba4 Na2 Tc2 O11'
_cell_volume   293.58426695
_cell_formula_units_Z   1
loop_
 _symmetry_equiv_pos_site_id
 _symmetry_equiv_pos_as_xyz
  1  'x, y, z'
loop_
 _atom_site_type_symbol
 _atom_site_label
 _atom_site_symmetry_multiplicity
 _atom_site_fract_x
 _atom_site_fract_y
 _atom_site_fract_z
 _atom_site_occupancy
  Ba  Ba0  1  0.01295506  0.48150801  0.27642278  1
  Ba  Ba1  1  0.01295506  0.48150801  0.72357722  1
  Ba  Ba2  1  0.51849199  0.98704494  0.27642278  1
  Ba  Ba3  1  0.51849199  0.98704494  0.72357722  1
  Na  Na0  1  0.51294099  0.48705901  0.50000000  1
  Na  Na1  1  0.98629482  0.01370518  0.00000000  1
  Tc  Tc0  1  0.51323411  0.48676589  0.00000000  1
  Tc  Tc1  1  0.01749911  0.98250089  0.50000000  1
  O  O0  1  0.24494172  0.75505728  0.50000000  1
  O  O1  1  0.78227918  0.21772082  0.50000000  1
  O  O2  1  0.78331402  0.76298582  0.50000000  1
  O  O3  1  0.23701418  0.21668598  0.50000000  1
  O  O4  1  0.02020193  0.97979807  0.26885435  1
  O  O5  1  0.02020193  0.97979807  0.73114565  1
  O  O6  1  0.49493387  0.50506613  0.77786211  1
  O  O7  1  0.49493387  0.50506613  0.22213789  1
  O  O8  1  0.72164023  0.27835977  0.00000000  1
  O  O9  1  0.60995241  0.78853945  0.00000000  1
  O  O10  1  0.21146055  0.39004759  0.00000000  1
loop_
_geom_bond_atom_site_label_1
_geom_bond_atom_site_label_2
_geom_bond_distance
_geom_bond_site_symmetry_2
Ba0 O10 2.703281 1_555
Ba0 O1 2.785067 1_455
Ba0 O3 2.815825 1_555
Ba0 O0 2.819784 1_555
Ba0 O7 2.856151 1_555
Ba0 O2 2.887563 1_455
Ba0 O4 2.913885 1_555
Ba0 O4 2.936522 1_545
Ba0 O7 3.072562 1_455
Ba0 O8 3.134166 1_455
Ba1 O10 2.703281 1_556
Ba1 O1 2.785067 1_455
Ba1 O3 2.815825 1_555
Ba1 O0 2.819784 1_555
Ba1 O6 2.856151 1_555
Ba1 O2 2.887563 1_455
Ba1 O5 2.913885 1_555
Ba1 O5 2.936522 1_545
Ba1 O6 3.072562 1_455
Ba1 O8 3.134166 1_456
Ba2 O9 2.703281 1_555
Ba2 O1 2.785067 1_565
Ba2 O2 2.815825 1_555
Ba2 O0 2.819790 1_555
Ba2 O7 2.856152 1_555
Ba2 O3 2.887563 1_565
Ba2 O4 2.913885 1_555
Ba2 O4 2.936522 1_655
Ba2 O7 3.072562 1_565
Ba2 O8 3.134166 1_565
Ba3 O9 2.703281 1_556
Ba3 O1 2.785067 1_565
Ba3 O2 2.815825 1_555
Ba3 O0 2.819790 1_555
Ba3 O6 2.856152 1_555
Ba3 O3 2.887563 1_565
Ba3 O5 2.913885 1_555
Ba3 O5 2.936522 1_655
Ba3 O6 3.072562 1_565
Ba3 O8 3.134166 1_566
Na0 O3 2.223777 1_555
Na0 O2 2.223777 1_555
Na0 O0 2.250877 1_555
Na0 O1 2.262126 1_555
Na0 O6 2.390989 1_555
Na0 O7 2.390989 1_555
Na1 O8 2.222789 1_555
Na1 O4 2.326341 1_645
Na1 O5 2.326341 1_644
Na1 O9 2.529343 1_545
Na1 O10 2.529343 1_655
O0 Tc1 1.910257 1_555
O1 Tc1 1.975573 1_645
O2 Tc1 1.847765 1_655
O3 Tc1 1.847765 1_545
O4 Tc1 1.985143 1_555
O5 Tc1 1.985143 1_555
O6 Tc0 1.913839 1_556
O7 Tc0 1.913839 1_555
O8 Tc0 1.750368 1_555
O9 Tc0 1.836425 1_555
O10 Tc0 1.836425 1_555
