# generated using pymatgen
data_LiFe(NO3)4
_symmetry_space_group_name_H-M   'P 1'
_cell_length_a   7.53189474
_cell_length_b   7.45464233
_cell_length_c   7.55214839
_cell_angle_alpha   90.00000000
_cell_angle_beta   90.02579374
_cell_angle_gamma   90.00000000
_symmetry_Int_Tables_number   1
_chemical_formula_structural   LiFe(NO3)4
_chemical_formula_sum   'Li2 Fe2 N8 O24'
_cell_volume   424.03482327
_cell_formula_units_Z   2
loop_
 _symmetry_equiv_pos_site_id
 _symmetry_equiv_pos_as_xyz
  1  'x, y, z'
loop_
 _atom_site_type_symbol
 _atom_site_label
 _atom_site_symmetry_multiplicity
 _atom_site_fract_x
 _atom_site_fract_y
 _atom_site_fract_z
 _atom_site_occupancy
  Li  Li0  1  0.00000000  0.50000000  0.00000000  1
  Li  Li1  1  0.00000000  0.00000000  0.50000000  1
  Fe  Fe0  1  0.50000000  0.50000000  0.50000000  1
  Fe  Fe1  1  0.50000000  0.00000000  0.00000000  1
  N  N0  1  0.67896958  0.18680723  0.31731293  1
  N  N1  1  0.67896958  0.31319277  0.81731293  1
  N  N2  1  0.81760178  0.82999365  0.81921736  1
  N  N3  1  0.81760178  0.67000635  0.31921736  1
  N  N4  1  0.18239822  0.17000635  0.18078264  1
  N  N5  1  0.18239822  0.32999365  0.68078264  1
  N  N6  1  0.32103042  0.68680723  0.18268707  1
  N  N7  1  0.32103042  0.81319277  0.68268707  1
  O  O0  1  0.55535000  0.19641405  0.81714038  1
  O  O1  1  0.55535000  0.30358595  0.31714038  1
  O  O2  1  0.67813347  0.42962572  0.69397532  1
  O  O3  1  0.67813347  0.07037428  0.19397532  1
  O  O4  1  0.69167090  0.66989546  0.43860550  1
  O  O5  1  0.69167090  0.83010454  0.93860550  1
  O  O6  1  0.79559149  0.31468056  0.92974682  1
  O  O7  1  0.79559149  0.18531944  0.42974682  1
  O  O8  1  0.81717054  0.94698037  0.70350397  1
  O  O9  1  0.81717054  0.55301963  0.20350397  1
  O  O10  1  0.92990884  0.71034373  0.82960881  1
  O  O11  1  0.92990884  0.78965627  0.32960881  1
  O  O12  1  0.07009116  0.21034373  0.67039119  1
  O  O13  1  0.07009116  0.28965627  0.17039119  1
  O  O14  1  0.18282946  0.44698037  0.79649603  1
  O  O15  1  0.18282946  0.05301963  0.29649603  1
  O  O16  1  0.20440851  0.68531944  0.07025318  1
  O  O17  1  0.20440851  0.81468056  0.57025318  1
  O  O18  1  0.30832910  0.16989546  0.06139450  1
  O  O19  1  0.30832910  0.33010454  0.56139450  1
  O  O20  1  0.32186653  0.57037428  0.30602468  1
  O  O21  1  0.32186653  0.92962572  0.80602468  1
  O  O22  1  0.44465000  0.69641405  0.68285962  1
  O  O23  1  0.44465000  0.80358595  0.18285962  1
loop_
_geom_bond_atom_site_label_1
_geom_bond_atom_site_label_2
_geom_bond_distance
_geom_bond_site_symmetry_2
Li0 O13 2.095885 1_555
Li0 O10 2.095885 1_454
Li0 O9 2.101531 1_455
Li0 O14 2.101531 1_554
Li0 O6 2.135320 1_454
Li0 O16 2.135320 1_555
Li1 O12 2.095885 1_555
Li1 O11 2.095885 1_445
Li1 O15 2.101531 1_555
Li1 O8 2.101531 1_445
Li1 O7 2.135320 1_455
Li1 O17 2.135320 1_545
Fe0 O4 1.975789 1_555
Fe0 O19 1.975789 1_555
Fe0 O2 2.054163 1_555
Fe0 O20 2.054163 1_555
Fe0 O22 2.055554 1_555
Fe0 O1 2.055554 1_555
Fe1 O18 1.975789 1_555
Fe1 O5 1.975789 1_544
Fe1 O3 2.054163 1_555
Fe1 O21 2.054163 1_544
Fe1 O0 2.055554 1_554
Fe1 O23 2.055554 1_545
N0 O7 1.221479 1_555
N0 O3 1.273195 1_555
N0 O1 1.274667 1_555
N1 O6 1.221479 1_555
N1 O2 1.273195 1_555
N1 O0 1.274667 1_555
N2 O10 1.231743 1_555
N2 O8 1.234597 1_555
N2 O5 1.308957 1_555
N3 O11 1.231743 1_555
N3 O9 1.234597 1_555
N3 O4 1.308957 1_555
N4 O13 1.231743 1_555
N4 O15 1.234597 1_555
N4 O18 1.308957 1_555
N5 O12 1.231743 1_555
N5 O14 1.234597 1_555
N5 O19 1.308957 1_555
N6 O16 1.221479 1_555
N6 O20 1.273195 1_555
N6 O23 1.274667 1_555
N7 O17 1.221479 1_555
N7 O21 1.273195 1_555
N7 O22 1.274667 1_555
