# generated using pymatgen
data_Nb3Zn2PtC
_symmetry_space_group_name_H-M   'P 1'
_cell_length_a   8.32194856
_cell_length_b   8.32194904
_cell_length_c   8.32194781
_cell_angle_alpha   59.99999703
_cell_angle_beta   59.99999512
_cell_angle_gamma   59.99999412
_symmetry_Int_Tables_number   1
_chemical_formula_structural   Nb3Zn2PtC
_chemical_formula_sum   'Nb12 Zn8 Pt4 C4'
_cell_volume   407.53041288
_cell_formula_units_Z   4
loop_
 _symmetry_equiv_pos_site_id
 _symmetry_equiv_pos_as_xyz
  1  'x, y, z'
loop_
 _atom_site_type_symbol
 _atom_site_label
 _atom_site_symmetry_multiplicity
 _atom_site_fract_x
 _atom_site_fract_y
 _atom_site_fract_z
 _atom_site_occupancy
  Nb  Nb0  1  0.81303211  0.18696789  0.81303211  1
  Nb  Nb1  1  0.06303211  0.43696789  0.43696789  1
  Nb  Nb2  1  0.43696789  0.06303211  0.06303211  1
  Nb  Nb3  1  0.06303211  0.43696789  0.06303211  1
  Nb  Nb4  1  0.43696789  0.43696789  0.06303211  1
  Nb  Nb5  1  0.06303211  0.06303211  0.43696789  1
  Nb  Nb6  1  0.81303211  0.81303211  0.18696789  1
  Nb  Nb7  1  0.18696789  0.81303211  0.81303211  1
  Nb  Nb8  1  0.81303211  0.18696789  0.18696789  1
  Nb  Nb9  1  0.18696789  0.18696789  0.81303211  1
  Nb  Nb10  1  0.43696789  0.06303211  0.43696789  1
  Nb  Nb11  1  0.18696789  0.81303211  0.18696789  1
  Zn  Zn0  1  0.41562888  0.41562888  0.41562888  1
  Zn  Zn1  1  0.49688665  0.83437112  0.83437112  1
  Zn  Zn2  1  0.83437112  0.49688665  0.83437112  1
  Zn  Zn3  1  0.83437112  0.83437112  0.49688665  1
  Zn  Zn4  1  0.41562888  0.75311335  0.41562888  1
  Zn  Zn5  1  0.41562888  0.41562888  0.75311335  1
  Zn  Zn6  1  0.75311335  0.41562888  0.41562888  1
  Zn  Zn7  1  0.83437112  0.83437112  0.83437112  1
  Pt  Pt0  1  0.62500000  0.62500000  0.62500000  1
  Pt  Pt1  1  0.12500000  0.62500000  0.62500000  1
  Pt  Pt2  1  0.62500000  0.12500000  0.62500000  1
  Pt  Pt3  1  0.62500000  0.62500000  0.12500000  1
  C  C0  1  0.12500000  0.12500000  0.12500000  1
  C  C1  1  0.62500000  0.12500000  0.12500000  1
  C  C2  1  0.12500000  0.62500000  0.12500000  1
  C  C3  1  0.12500000  0.12500000  0.62500000  1
loop_
_geom_bond_atom_site_label_1
_geom_bond_atom_site_label_2
_geom_bond_distance
_geom_bond_site_symmetry_2
Nb0 Pt0 3.037365 1_555
Nb0 Pt2 3.037365 1_555
Nb1 Pt0 3.037364 1_455
Nb1 Pt1 3.037365 1_555
Nb2 Pt2 3.037364 1_554
Nb2 Pt3 3.037365 1_545
Nb3 Pt1 3.037364 1_554
Nb3 Pt3 3.037364 1_455
Nb4 Pt0 3.037364 1_554
Nb4 Pt3 3.037365 1_555
Nb5 Pt2 3.037364 1_455
Nb5 Pt1 3.037365 1_545
Nb6 Pt0 3.037364 1_555
Nb6 Pt3 3.037365 1_555
Nb7 Pt0 3.037364 1_555
Nb7 Pt1 3.037365 1_555
Nb8 Pt2 3.037364 1_555
Nb8 Pt3 3.037365 1_555
Nb9 Pt2 3.037364 1_555
Nb9 Pt1 3.037365 1_555
Nb10 Pt0 3.037365 1_545
Nb10 Pt2 3.037365 1_555
Nb11 Pt1 3.037364 1_555
Nb11 Pt3 3.037364 1_555
Pt0 Zn2 2.555195 1_555
Pt0 Zn4 2.555195 1_555
Pt0 Zn1 2.555195 1_555
Pt0 Zn6 2.555195 1_555
Pt0 Zn3 2.555195 1_555
Pt0 Zn5 2.555195 1_555
Pt1 Zn7 2.555195 1_455
Pt1 Zn0 2.555195 1_555
Pt1 Zn5 2.555195 1_555
Pt1 Zn3 2.555195 1_455
Pt1 Zn4 2.555195 1_555
Pt1 Zn2 2.555195 1_455
Pt2 Zn7 2.555195 1_545
Pt2 Zn0 2.555195 1_555
Pt2 Zn5 2.555195 1_555
Pt2 Zn3 2.555195 1_545
Pt2 Zn6 2.555195 1_555
Pt2 Zn1 2.555195 1_545
Pt3 Zn4 2.555195 1_555
Pt3 Zn2 2.555195 1_554
Pt3 Zn6 2.555195 1_555
Pt3 Zn1 2.555195 1_554
Pt3 Zn7 2.555195 1_554
Pt3 Zn0 2.555195 1_555
C0 Nb5 2.204610 1_555
C0 Nb9 2.204610 1_554
C0 Nb2 2.204610 1_555
C0 Nb8 2.204610 1_455
C0 Nb3 2.204610 1_555
C0 Nb11 2.204610 1_545
C1 Nb10 2.204610 1_555
C1 Nb0 2.204610 1_554
C1 Nb4 2.204610 1_555
C1 Nb6 2.204610 1_545
C1 Nb8 2.204610 1_555
C1 Nb2 2.204610 1_555
C2 Nb1 2.204610 1_555
C2 Nb7 2.204610 1_554
C2 Nb4 2.204610 1_555
C2 Nb6 2.204610 1_455
C2 Nb11 2.204610 1_555
C2 Nb3 2.204610 1_555
C3 Nb10 2.204610 1_555
C3 Nb0 2.204610 1_455
C3 Nb9 2.204610 1_555
C3 Nb5 2.204610 1_555
C3 Nb1 2.204610 1_555
C3 Nb7 2.204610 1_545
