# generated using pymatgen
data_Ba2Sr(InP2)2
_symmetry_space_group_name_H-M   'P 1'
_cell_length_a   8.79589568
_cell_length_b   8.79589626
_cell_length_c   7.03240309
_cell_angle_alpha   89.77561255
_cell_angle_beta   89.77561155
_cell_angle_gamma   76.76957077
_symmetry_Int_Tables_number   1
_chemical_formula_structural   Ba2Sr(InP2)2
_chemical_formula_sum   'Ba4 Sr2 In4 P8'
_cell_volume   529.63355911
_cell_formula_units_Z   2
loop_
 _symmetry_equiv_pos_site_id
 _symmetry_equiv_pos_as_xyz
  1  'x, y, z'
loop_
 _atom_site_type_symbol
 _atom_site_label
 _atom_site_symmetry_multiplicity
 _atom_site_fract_x
 _atom_site_fract_y
 _atom_site_fract_z
 _atom_site_occupancy
  Ba  Ba0  1  0.00670056  0.74641403  0.04102075  1
  Ba  Ba1  1  0.25358597  0.99329944  0.45897925  1
  Ba  Ba2  1  0.99329944  0.25358597  0.95897925  1
  Ba  Ba3  1  0.74641403  0.00670056  0.54102075  1
  Sr  Sr0  1  0.40235087  0.59764913  0.75000000  1
  Sr  Sr1  1  0.59764913  0.40235087  0.25000000  1
  In  In0  1  0.42332140  0.17713164  0.91457613  1
  In  In1  1  0.82286836  0.57667960  0.58542387  1
  In  In2  1  0.57667860  0.82286836  0.08542387  1
  In  In3  1  0.17713164  0.42332140  0.41457613  1
  P  P0  1  0.73173951  0.56765531  0.93324787  1
  P  P1  1  0.43234469  0.26826049  0.56675213  1
  P  P2  1  0.26826049  0.43234469  0.06675213  1
  P  P3  1  0.56765531  0.73173951  0.43324787  1
  P  P4  1  0.05960957  0.70859548  0.53488934  1
  P  P5  1  0.29140452  0.94039043  0.96511066  1
  P  P6  1  0.70859548  0.05960957  0.03488934  1
  P  P7  1  0.94039043  0.29140452  0.46511066  1
loop_
_geom_bond_atom_site_label_1
_geom_bond_atom_site_label_2
_geom_bond_distance
_geom_bond_site_symmetry_2
Ba0 P2 3.169769 1_555
Ba0 P0 3.265013 1_454
Ba0 P6 3.340646 1_465
Ba0 P5 3.377187 1_554
Ba0 P4 3.510312 1_555
Ba0 P4 3.594639 1_554
Ba1 P3 3.169769 1_555
Ba1 P1 3.265013 1_565
Ba1 P7 3.340646 1_465
Ba1 P4 3.377187 1_555
Ba1 P5 3.510312 1_554
Ba1 P5 3.594639 1_555
Ba2 P0 3.169769 1_555
Ba2 P2 3.265013 1_656
Ba2 P5 3.340646 1_645
Ba2 P6 3.377187 1_556
Ba2 P7 3.510312 1_555
Ba2 P7 3.594639 1_556
Ba3 P1 3.169769 1_555
Ba3 P3 3.265013 1_545
Ba3 P4 3.340646 1_645
Ba3 P7 3.377187 1_555
Ba3 P6 3.510312 1_556
Ba3 P6 3.594639 1_555
In0 P1 2.577624 1_555
In0 P2 2.578885 1_556
In0 P6 2.627396 1_556
In0 P5 2.627889 1_545
In1 P0 2.577625 1_555
In1 P3 2.578882 1_555
In1 P7 2.627404 1_555
In1 P4 2.627883 1_655
In2 P3 2.577624 1_555
In2 P0 2.578885 1_554
In2 P5 2.627396 1_554
In2 P6 2.627889 1_565
In3 P2 2.577624 1_555
In3 P1 2.578885 1_555
In3 P4 2.627396 1_555
In3 P7 2.627889 1_455
P0 Sr1 3.034159 1_556
P0 Sr0 3.130678 1_555
P1 Sr1 3.034159 1_555
P1 Sr0 3.130678 1_555
P2 Sr0 3.034159 1_554
P2 Sr1 3.130678 1_555
P3 Sr0 3.034159 1_555
P3 Sr1 3.130678 1_555
P4 Sr0 3.317642 1_555
P5 Sr0 3.317642 1_555
P6 Sr1 3.317642 1_555
P7 Sr1 3.317642 1_555
