# generated using pymatgen
data_LuCo2GeC
_symmetry_space_group_name_H-M   'P 1'
_cell_length_a   5.58350627
_cell_length_b   5.58350532
_cell_length_c   6.72945592
_cell_angle_alpha   90.00000000
_cell_angle_beta   90.00000000
_cell_angle_gamma   141.85522338
_symmetry_Int_Tables_number   1
_chemical_formula_structural   LuCo2GeC
_chemical_formula_sum   'Lu2 Co4 Ge2 C2'
_cell_volume   129.57965388
_cell_formula_units_Z   2
loop_
 _symmetry_equiv_pos_site_id
 _symmetry_equiv_pos_as_xyz
  1  'x, y, z'
loop_
 _atom_site_type_symbol
 _atom_site_label
 _atom_site_symmetry_multiplicity
 _atom_site_fract_x
 _atom_site_fract_y
 _atom_site_fract_z
 _atom_site_occupancy
  Lu  Lu0  1  0.54648244  0.45351756  0.25000000  1
  Lu  Lu1  1  0.45351756  0.54648244  0.75000000  1
  Co  Co0  1  0.83978778  0.16021222  0.05517596  1
  Co  Co1  1  0.16021222  0.83978778  0.94482404  1
  Co  Co2  1  0.16021222  0.83978778  0.55517596  1
  Co  Co3  1  0.83978778  0.16021222  0.44482404  1
  Ge  Ge0  1  0.26871114  0.73128886  0.25000000  1
  Ge  Ge1  1  0.73128886  0.26871114  0.75000000  1
  C  C0  1  0.00000000  0.00000000  0.00000000  1
  C  C1  1  0.00000000  0.00000000  0.50000000  1
loop_
_geom_bond_atom_site_label_1
_geom_bond_atom_site_label_2
_geom_bond_distance
_geom_bond_site_symmetry_2
Co0 Ge1 2.351341 1_554
Co0 Ge0 2.368612 1_655
Co0 Ge0 2.368612 1_545
Co1 Ge0 2.351341 1_556
Co1 Ge1 2.368612 1_455
Co1 Ge1 2.368612 1_565
Co2 Ge0 2.351341 1_555
Co2 Ge1 2.368612 1_455
Co2 Ge1 2.368612 1_565
Co3 Ge1 2.351341 1_555
Co3 Ge0 2.368612 1_655
Co3 Ge0 2.368612 1_545
Ge0 Lu0 2.931602 1_555
Ge0 Lu0 2.971473 1_565
Ge0 Lu0 2.971474 1_455
Ge1 Lu1 2.931602 1_555
Ge1 Lu1 2.971473 1_545
Ge1 Lu1 2.971474 1_655
C0 Co0 1.731170 1_455
C0 Co1 1.731170 1_544
C0 Lu1 2.529771 1_554
C0 Lu0 2.529771 1_445
C0 Lu0 2.529771 1_555
C0 Lu1 2.529771 1_444
C1 Co2 1.731170 1_545
C1 Co3 1.731170 1_455
C1 Lu1 2.529771 1_555
C1 Lu0 2.529771 1_445
C1 Lu0 2.529771 1_555
C1 Lu1 2.529771 1_445
