# generated using pymatgen
data_NaSr2AlAs3
_symmetry_space_group_name_H-M   'P 1'
_cell_length_a   8.34501117
_cell_length_b   8.34501261
_cell_length_c   11.81404536
_cell_angle_alpha   76.12938906
_cell_angle_beta   76.12938858
_cell_angle_gamma   67.85707662
_symmetry_Int_Tables_number   1
_chemical_formula_structural   NaSr2AlAs3
_chemical_formula_sum   'Na4 Sr8 Al4 As12'
_cell_volume   729.54287662
_cell_formula_units_Z   4
loop_
 _symmetry_equiv_pos_site_id
 _symmetry_equiv_pos_as_xyz
  1  'x, y, z'
loop_
 _atom_site_type_symbol
 _atom_site_label
 _atom_site_symmetry_multiplicity
 _atom_site_fract_x
 _atom_site_fract_y
 _atom_site_fract_z
 _atom_site_occupancy
  Na  Na0  1  0.29867436  0.70132564  0.00000000  1
  Na  Na1  1  0.35653906  0.35653906  0.23292847  1
  Na  Na2  1  0.64346094  0.64346094  0.76707153  1
  Na  Na3  1  0.70132564  0.29867436  1.00000000  1
  Sr  Sr0  1  0.74740575  0.19327555  0.68528742  1
  Sr  Sr1  1  0.25259425  0.80672445  0.31471258  1
  Sr  Sr2  1  0.19327555  0.74740575  0.68528742  1
  Sr  Sr3  1  0.50000000  0.00000000  0.50000000  1
  Sr  Sr4  1  0.80672445  0.25259425  0.31471258  1
  Sr  Sr5  1  0.00000000  0.50000000  0.00000000  1
  Sr  Sr6  1  0.50000000  0.00000000  0.00000000  1
  Sr  Sr7  1  0.00000000  0.50000000  0.50000000  1
  Al  Al0  1  0.69867745  0.69867745  0.26584828  1
  Al  Al1  1  0.09020557  0.09020557  0.88301330  1
  Al  Al2  1  0.90979443  0.90979443  0.11698670  1
  Al  Al3  1  0.30132255  0.30132255  0.73415172  1
  As  As0  1  0.02512804  0.60985853  0.22750369  1
  As  As1  1  0.58930015  0.58930015  0.13570244  1
  As  As2  1  0.97487196  0.39014147  0.77249631  1
  As  As3  1  0.09375339  0.09375339  0.48439918  1
  As  As4  1  0.59236379  0.59236379  0.48907812  1
  As  As5  1  0.90904923  0.90904923  0.90322670  1
  As  As6  1  0.09095077  0.09095077  0.09677330  1
  As  As7  1  0.41069985  0.41069985  0.86429756  1
  As  As8  1  0.60985853  0.02512804  0.22750369  1
  As  As9  1  0.90624661  0.90624661  0.51560082  1
  As  As10  1  0.39014147  0.97487196  0.77249631  1
  As  As11  1  0.40763621  0.40763621  0.51092188  1
loop_
_geom_bond_atom_site_label_1
_geom_bond_atom_site_label_2
_geom_bond_distance
_geom_bond_site_symmetry_2
Al0 As1 2.450325 1_555
Al0 As0 2.494631 1_655
Al0 As8 2.494631 1_565
Al0 As4 2.622786 1_555
Al0 Sr1 3.419465 1_555
Al0 Sr4 3.419466 1_555
Al1 As5 2.450397 1_445
Al1 As10 2.472962 1_545
Al1 As2 2.472962 1_455
Al1 As6 2.528371 1_556
Al2 As6 2.450397 1_665
Al2 As8 2.472962 1_565
Al2 As0 2.472962 1_655
Al2 As5 2.528371 1_554
Al3 As7 2.450325 1_555
Al3 As2 2.494631 1_455
Al3 As10 2.494631 1_545
Al3 As11 2.622786 1_555
Al3 Sr0 3.419465 1_555
Al3 Sr2 3.419466 1_555
As0 Na1 2.781078 1_555
As0 Sr7 3.107157 1_555
As0 Sr5 3.115274 1_555
As0 Na0 3.225781 1_555
As0 Sr1 3.385806 1_555
As1 Na0 2.960174 1_555
As1 Na3 2.960174 1_554
As1 Na1 3.093517 1_555
As1 Sr1 3.287425 1_555
As1 Sr4 3.287425 1_555
As1 Sr5 3.299235 1_655
As1 Sr6 3.299235 1_565
As2 Na2 2.781078 1_555
As2 Sr7 3.107157 1_655
As2 Sr5 3.115274 1_656
As2 Na3 3.225781 1_555
As2 Sr0 3.385806 1_555
As3 As9 2.515027 1_445
As3 Sr4 3.185566 1_455
As3 Sr1 3.185566 1_545
As3 Sr3 3.220261 1_555
As3 Sr7 3.220262 1_555
As3 Sr0 3.243868 1_455
As3 Sr2 3.243868 1_545
As4 Sr7 3.220051 1_655
As4 Sr3 3.220052 1_565
As4 Sr2 3.553459 1_555
As4 Sr0 3.553460 1_555
As4 Na2 3.553835 1_555
As4 Sr1 3.562713 1_555
As4 Sr4 3.562713 1_555
As5 Sr6 3.182314 1_566
As5 Sr5 3.182315 1_656
As5 Sr2 3.224898 1_655
As5 Sr0 3.224898 1_565
As5 Na0 3.386304 1_656
As5 Na3 3.386304 1_565
As6 Sr6 3.182314 1_555
As6 Sr5 3.182315 1_555
As6 Sr4 3.224898 1_455
As6 Sr1 3.224898 1_545
As6 Na3 3.386304 1_454
As6 Na0 3.386304 1_545
As7 Na3 2.960174 1_555
As7 Na0 2.960174 1_556
As7 Na2 3.093517 1_555
As7 Sr0 3.287425 1_555
As7 Sr2 3.287425 1_555
As7 Sr5 3.299235 1_556
As7 Sr6 3.299235 1_556
As8 Na1 2.781079 1_555
As8 Sr3 3.107157 1_555
As8 Sr6 3.115274 1_555
As8 Na3 3.225781 1_554
As8 Sr4 3.385806 1_555
As9 Sr2 3.185566 1_655
As9 Sr0 3.185566 1_565
As9 Sr3 3.220261 1_565
As9 Sr7 3.220262 1_655
As9 Sr1 3.243868 1_655
As9 Sr4 3.243868 1_565
As10 Na2 2.781079 1_555
As10 Sr3 3.107157 1_565
As10 Sr6 3.115274 1_566
As10 Na0 3.225781 1_556
As10 Sr2 3.385806 1_555
As11 As4 2.495858 1_555
As11 Sr7 3.220051 1_555
As11 Sr3 3.220052 1_555
As11 Sr4 3.553459 1_555
As11 Sr1 3.553460 1_555
As11 Na1 3.553835 1_555
As11 Sr0 3.562713 1_555
As11 Sr2 3.562713 1_555
