# generated using pymatgen
data_Sr2SiPdI
_symmetry_space_group_name_H-M   'P 1'
_cell_length_a   4.35400689
_cell_length_b   4.35400734
_cell_length_c   18.07904609
_cell_angle_alpha   90.00000000
_cell_angle_beta   90.00000000
_cell_angle_gamma   120.00000414
_symmetry_Int_Tables_number   1
_chemical_formula_structural   Sr2SiPdI
_chemical_formula_sum   'Sr4 Si2 Pd2 I2'
_cell_volume   296.81400897
_cell_formula_units_Z   2
loop_
 _symmetry_equiv_pos_site_id
 _symmetry_equiv_pos_as_xyz
  1  'x, y, z'
loop_
 _atom_site_type_symbol
 _atom_site_label
 _atom_site_symmetry_multiplicity
 _atom_site_fract_x
 _atom_site_fract_y
 _atom_site_fract_z
 _atom_site_occupancy
  Sr  Sr0  1  0.00000000  0.00000000  0.38893864  1
  Sr  Sr1  1  0.00000000  0.00000000  0.88893864  1
  Sr  Sr2  1  0.00000000  0.00000000  0.61166634  1
  Sr  Sr3  1  0.00000000  0.00000000  0.11166634  1
  Si  Si0  1  0.33333300  0.66666700  0.50224684  1
  Si  Si1  1  0.66666700  0.33333300  0.00224684  1
  Pd  Pd0  1  0.66666700  0.33333300  0.49755466  1
  Pd  Pd1  1  0.33333300  0.66666700  0.99755466  1
  I  I0  1  0.33333300  0.66666700  0.24959352  1
  I  I1  1  0.66666700  0.33333300  0.74959352  1
loop_
_geom_bond_atom_site_label_1
_geom_bond_atom_site_label_2
_geom_bond_distance
_geom_bond_site_symmetry_2
Si0 Sr2 3.198811 1_565
Si0 Sr2 3.198813 1_665
Si0 Sr2 3.198814 1_555
Si0 Sr0 3.242759 1_565
Si0 Sr0 3.242761 1_665
Si0 Sr0 3.242761 1_555
Si1 Sr3 3.198811 1_655
Si1 Sr3 3.198813 1_555
Si1 Sr3 3.198814 1_665
Si1 Sr1 3.242759 1_654
Si1 Sr1 3.242761 1_554
Si1 Sr1 3.242761 1_664
Pd0 Si0 2.515215 1_655
Pd0 Si0 2.515216 1_545
Pd0 Si0 2.515223 1_555
Pd0 Sr0 3.189848 1_655
Pd0 Sr0 3.189851 1_555
Pd0 Sr0 3.189851 1_665
Pd0 Sr2 3.251954 1_655
Pd0 Sr2 3.251957 1_555
Pd0 Sr2 3.251957 1_665
Pd1 Si1 2.515215 1_456
Pd1 Si1 2.515216 1_566
Pd1 Si1 2.515223 1_556
Pd1 Sr1 3.189848 1_565
Pd1 Sr1 3.189851 1_665
Pd1 Sr1 3.189851 1_555
Pd1 Sr3 3.251954 1_566
Pd1 Sr3 3.251957 1_666
Pd1 Sr3 3.251957 1_556
I0 Sr3 3.540779 1_565
I0 Sr3 3.540781 1_665
I0 Sr3 3.540781 1_555
I0 Sr0 3.558879 1_565
I0 Sr0 3.558881 1_665
I0 Sr0 3.558881 1_555
I1 Sr2 3.540779 1_655
I1 Sr2 3.540781 1_555
I1 Sr2 3.540781 1_665
I1 Sr1 3.558879 1_655
I1 Sr1 3.558881 1_555
I1 Sr1 3.558881 1_665
