# generated using pymatgen
data_Ca8TaInN8
_symmetry_space_group_name_H-M   'P 1'
_cell_length_a   6.07406672
_cell_length_b   6.08407039
_cell_length_c   9.27936662
_cell_angle_alpha   70.24807125
_cell_angle_beta   81.19434793
_cell_angle_gamma   68.84700627
_symmetry_Int_Tables_number   1
_chemical_formula_structural   Ca8TaInN8
_chemical_formula_sum   'Ca8 Ta1 In1 N8'
_cell_volume   300.80787315
_cell_formula_units_Z   1
loop_
 _symmetry_equiv_pos_site_id
 _symmetry_equiv_pos_as_xyz
  1  'x, y, z'
loop_
 _atom_site_type_symbol
 _atom_site_label
 _atom_site_symmetry_multiplicity
 _atom_site_fract_x
 _atom_site_fract_y
 _atom_site_fract_z
 _atom_site_occupancy
  Ca  Ca0  1  0.24758587  0.94222063  0.60347978  1
  Ca  Ca1  1  0.73289807  0.61870819  0.19133929  1
  Ca  Ca2  1  0.75543248  0.24666700  0.99181123  1
  Ca  Ca3  1  0.25809494  0.52896929  0.42445003  1
  Ca  Ca4  1  0.75179436  0.05219270  0.41418152  1
  Ca  Ca5  1  0.26356534  0.38150313  0.80239035  1
  Ca  Ca6  1  0.73037635  0.47936282  0.58177551  1
  Ca  Ca7  1  0.25422431  0.75522080  0.00370039  1
  Ta  Ta0  1  0.28314747  0.15801527  0.23988367  1
  In  In0  1  0.72129924  0.84453321  0.76692515  1
  N  N0  1  0.99329217  0.69039124  0.60349701  1
  N  N1  1  0.49728989  0.19681602  0.61043239  1
  N  N2  1  0.02286423  0.29458262  0.37510005  1
  N  N3  1  0.50127271  0.60588858  0.80160279  1
  N  N4  1  0.16515099  0.14300738  0.06094200  1
  N  N5  1  0.48188010  0.83285915  0.37030490  1
  N  N6  1  0.48093963  0.37209313  0.19725967  1
  N  N7  1  0.85889286  0.85696884  0.96092228  1
loop_
_geom_bond_atom_site_label_1
_geom_bond_atom_site_label_2
_geom_bond_distance
_geom_bond_site_symmetry_2
Ca0 N3 2.447551 1_555
Ca0 N0 2.537912 1_455
Ca0 N5 2.548834 1_555
Ca0 N1 2.548923 1_565
Ca0 N2 2.579364 1_565
Ca1 N7 2.337386 1_554
Ca1 N5 2.456352 1_555
Ca1 N2 2.457346 1_655
Ca1 N6 2.484402 1_555
Ca2 N7 2.329663 1_545
Ca2 N3 2.463126 1_555
Ca2 N4 2.466829 1_656
Ca2 N6 2.467494 1_556
Ca3 N0 2.335936 1_455
Ca3 N1 2.337628 1_555
Ca3 N2 2.529222 1_555
Ca3 N5 2.548591 1_555
Ca3 N6 2.596439 1_555
Ca4 N1 2.391597 1_555
Ca4 N0 2.434775 1_545
Ca4 N2 2.495073 1_655
Ca4 N6 2.569330 1_555
Ca4 N5 2.604793 1_545
Ca5 N3 2.315401 1_555
Ca5 N1 2.424492 1_555
Ca5 N0 2.447399 1_455
Ca5 N4 2.460257 1_556
Ca6 N0 2.447982 1_555
Ca6 N3 2.471686 1_555
Ca6 N1 2.522401 1_555
Ca6 N5 2.542805 1_555
Ca6 N2 2.659095 1_655
Ca7 N7 2.315125 1_454
Ca7 N3 2.429030 1_554
Ca7 N4 2.445206 1_565
Ca7 N6 2.483271 1_555
In0 N7 2.131465 1_555
In0 N1 2.224956 1_565
In0 N3 2.225031 1_555
In0 N0 2.232647 1_555
N2 Ta0 1.978240 1_555
N4 Ta0 1.947624 1_555
N5 Ta0 1.985180 1_565
N6 Ta0 1.982897 1_555
