# generated using pymatgen
data_Sr10HgBi6Pt
_symmetry_space_group_name_H-M   'P 1'
_cell_length_a   9.78430487
_cell_length_b   9.78430613
_cell_length_c   7.76901471
_cell_angle_alpha   90.00000000
_cell_angle_beta   90.00000000
_cell_angle_gamma   119.99999906
_symmetry_Int_Tables_number   1
_chemical_formula_structural   Sr10HgBi6Pt
_chemical_formula_sum   'Sr10 Hg1 Bi6 Pt1'
_cell_volume   644.10487775
_cell_formula_units_Z   1
loop_
 _symmetry_equiv_pos_site_id
 _symmetry_equiv_pos_as_xyz
  1  'x, y, z'
loop_
 _atom_site_type_symbol
 _atom_site_label
 _atom_site_symmetry_multiplicity
 _atom_site_fract_x
 _atom_site_fract_y
 _atom_site_fract_z
 _atom_site_occupancy
  Sr  Sr0  1  0.66666700  0.33333300  0.00000000  1
  Sr  Sr1  1  0.33333300  0.66666700  0.00000000  1
  Sr  Sr2  1  0.33333300  0.66666700  0.50000000  1
  Sr  Sr3  1  0.66666700  0.33333300  0.50000000  1
  Sr  Sr4  1  0.74343725  0.74343725  0.78323860  1
  Sr  Sr5  1  0.25656275  1.00000000  0.78323860  1
  Sr  Sr6  1  0.00000000  0.25656275  0.78323860  1
  Sr  Sr7  1  0.25656275  0.25656275  0.21676140  1
  Sr  Sr8  1  0.74343725  0.00000000  0.21676140  1
  Sr  Sr9  1  1.00000000  0.74343725  0.21676140  1
  Hg  Hg0  1  0.00000000  0.00000000  0.50000000  1
  Bi  Bi0  1  0.39144556  0.39144556  0.75078402  1
  Bi  Bi1  1  0.60855444  0.00000000  0.75078402  1
  Bi  Bi2  1  1.00000000  0.60855444  0.75078402  1
  Bi  Bi3  1  0.60855444  0.60855444  0.24921598  1
  Bi  Bi4  1  0.39144556  1.00000000  0.24921598  1
  Bi  Bi5  1  0.00000000  0.39144556  0.24921598  1
  Pt  Pt0  1  0.00000000  0.00000000  0.00000000  1
loop_
_geom_bond_atom_site_label_1
_geom_bond_atom_site_label_2
_geom_bond_distance
_geom_bond_site_symmetry_2
Sr0 Sr3 3.884507 1_555
Sr0 Sr3 3.884507 1_554
Sr0 Sr6 4.060405 1_654
Sr0 Sr8 4.060405 1_555
Sr0 Sr5 4.060411 1_544
Sr0 Sr9 4.060411 1_555
Sr0 Sr7 4.060414 1_555
Sr0 Sr4 4.060414 1_554
Sr1 Sr2 3.884507 1_555
Sr1 Sr2 3.884507 1_554
Sr1 Sr9 4.060405 1_455
Sr1 Sr5 4.060405 1_554
Sr1 Sr8 4.060411 1_565
Sr1 Sr6 4.060411 1_554
Sr1 Sr4 4.060414 1_554
Sr1 Sr7 4.060414 1_555
Sr2 Sr9 4.300359 1_455
Sr2 Sr5 4.300360 1_555
Sr2 Sr8 4.300365 1_565
Sr2 Sr6 4.300365 1_555
Sr2 Sr4 4.300368 1_555
Sr2 Sr7 4.300368 1_555
Sr3 Sr6 4.300359 1_655
Sr3 Sr8 4.300360 1_555
Sr3 Sr5 4.300365 1_545
Sr3 Sr9 4.300365 1_555
Sr3 Sr7 4.300368 1_555
Sr3 Sr4 4.300368 1_555
Hg0 Sr5 3.338215 1_545
Hg0 Sr8 3.338215 1_455
Hg0 Sr7 3.338215 1_555
Hg0 Sr4 3.338215 1_445
Hg0 Sr6 3.338215 1_555
Hg0 Sr9 3.338215 1_445
Bi0 Sr6 3.379310 1_555
Bi0 Sr5 3.379310 1_545
Bi0 Sr4 3.453212 1_555
Bi0 Sr0 3.585331 1_556
Bi0 Sr1 3.585331 1_556
Bi0 Sr3 3.591924 1_555
Bi0 Sr2 3.591924 1_555
Bi0 Sr7 3.853238 1_556
Bi1 Sr6 3.379310 1_655
Bi1 Sr4 3.379310 1_545
Bi1 Sr5 3.453211 1_545
Bi1 Sr0 3.585323 1_556
Bi1 Sr1 3.585326 1_546
Bi1 Sr3 3.591916 1_555
Bi1 Sr2 3.591919 1_545
Bi1 Sr8 3.853238 1_556
Bi2 Sr4 3.379310 1_555
Bi2 Sr5 3.379310 1_655
Bi2 Sr6 3.453212 1_655
Bi2 Sr1 3.585322 1_656
Bi2 Sr0 3.585326 1_556
Bi2 Sr2 3.591916 1_655
Bi2 Sr3 3.591919 1_555
Bi2 Sr9 3.853238 1_556
Bi3 Sr9 3.379310 1_555
Bi3 Sr8 3.379310 1_565
Bi3 Sr7 3.453212 1_555
Bi3 Sr1 3.585331 1_555
Bi3 Sr0 3.585331 1_555
Bi3 Sr2 3.591924 1_555
Bi3 Sr3 3.591924 1_555
Bi3 Sr4 3.853238 1_554
Bi4 Sr9 3.379310 1_455
Bi4 Sr7 3.379310 1_565
Bi4 Sr8 3.453211 1_565
Bi4 Sr1 3.585323 1_555
Bi4 Sr0 3.585326 1_565
Bi4 Sr2 3.591916 1_555
Bi4 Sr3 3.591919 1_565
Bi4 Sr5 3.853238 1_554
Bi5 Sr7 3.379310 1_555
Bi5 Sr8 3.379310 1_455
Bi5 Sr9 3.453212 1_455
Bi5 Sr0 3.585322 1_455
Bi5 Sr1 3.585326 1_555
Bi5 Sr3 3.591916 1_455
Bi5 Sr2 3.591919 1_555
Bi5 Sr6 3.853238 1_554
Pt0 Sr8 3.022826 1_455
Pt0 Sr5 3.022826 1_544
Pt0 Sr7 3.022826 1_555
Pt0 Sr4 3.022826 1_444
Pt0 Sr6 3.022827 1_554
Pt0 Sr9 3.022827 1_445
