# generated using pymatgen
data_BeNb10Si4Ge
_symmetry_space_group_name_H-M   'P 1'
_cell_length_a   7.56803120
_cell_length_b   7.56803034
_cell_length_c   7.55997610
_cell_angle_alpha   128.45599243
_cell_angle_beta   128.44314022
_cell_angle_gamma   75.97605820
_symmetry_Int_Tables_number   1
_chemical_formula_structural   BeNb10Si4Ge
_chemical_formula_sum   'Be1 Nb10 Si4 Ge1'
_cell_volume   258.11328654
_cell_formula_units_Z   1
loop_
 _symmetry_equiv_pos_site_id
 _symmetry_equiv_pos_as_xyz
  1  'x, y, z'
loop_
 _atom_site_type_symbol
 _atom_site_label
 _atom_site_symmetry_multiplicity
 _atom_site_fract_x
 _atom_site_fract_y
 _atom_site_fract_z
 _atom_site_occupancy
  Be  Be0  1  0.12431772  0.62413592  0.74845364  1
  Nb  Nb0  1  0.02029912  0.18829528  0.50472825  1
  Nb  Nb1  1  0.51633256  0.02014366  0.83492161  1
  Nb  Nb2  1  0.17839604  0.68228178  0.15504187  1
  Nb  Nb3  1  0.47276009  0.97664583  0.15504187  1
  Nb  Nb4  1  0.68971096  0.51482844  0.50514215  1
  Nb  Nb5  1  0.99031271  0.81543219  0.50514215  1
  Nb  Nb6  1  0.31643397  0.48442812  0.50472825  1
  Nb  Nb7  1  0.81477696  0.31858805  0.83492161  1
  Nb  Nb8  1  0.49598929  0.49795109  0.99394038  1
  Nb  Nb9  1  0.00265611  0.99718396  0.99983907  1
  Si  Si0  1  0.36865094  0.12892456  0.49757550  1
  Si  Si1  1  0.87862902  0.37859336  0.25722238  1
  Si  Si2  1  0.75028797  0.75236184  0.00281433  1
  Si  Si3  1  0.25045249  0.25252637  0.00281433  1
  Ge  Ge0  1  0.62999507  0.86767854  0.49767361  1
loop_
_geom_bond_atom_site_label_1
_geom_bond_atom_site_label_2
_geom_bond_distance
_geom_bond_site_symmetry_2
Be0 Si1 2.281770 1_455
Be0 Nb3 2.578746 1_556
Be0 Nb2 2.578747 1_556
Be0 Nb9 2.583124 1_555
Be0 Nb8 2.584481 1_555
Be0 Nb4 2.605570 1_455
Be0 Nb5 2.605576 1_455
Be0 Nb0 2.605737 1_555
Be0 Nb6 2.605742 1_555
Nb0 Si0 2.593845 1_555
Nb0 Si1 2.614130 1_455
Nb0 Si3 2.725293 1_556
Nb0 Si2 2.740970 1_445
Nb1 Si1 2.648964 1_556
Nb1 Si0 2.655609 1_555
Nb1 Si3 2.727109 1_556
Nb1 Si2 2.742065 1_546
Nb2 Si0 2.653242 1_565
Nb2 Si2 2.718972 1_455
Nb2 Si3 2.732232 1_555
Nb3 Si0 2.653242 1_565
Nb3 Si3 2.718972 1_565
Nb3 Si2 2.732232 1_555
Nb4 Si1 2.614225 1_555
Nb4 Si2 2.727510 1_556
Nb4 Si3 2.745336 1_555
Nb5 Si1 2.614230 1_555
Nb5 Si3 2.727507 1_666
Nb5 Si2 2.745334 1_555
Nb6 Si0 2.593838 1_555
Nb6 Si1 2.614136 1_455
Nb6 Si2 2.725290 1_556
Nb6 Si3 2.740968 1_555
Nb7 Si1 2.648956 1_556
Nb7 Si0 2.655601 1_555
Nb7 Si2 2.727114 1_556
Nb7 Si3 2.742070 1_656
Nb8 Si0 2.565560 1_555
Nb8 Si1 2.639095 1_556
Nb8 Si2 2.981635 1_556
Nb8 Si3 2.981635 1_556
Nb9 Si0 2.556780 1_566
Nb9 Si1 2.640283 1_466
Nb9 Si3 2.983546 1_566
Nb9 Si2 2.983558 1_456
Ge0 Si0 2.434277 1_565
Ge0 Nb8 2.584434 1_554
Ge0 Nb9 2.593249 1_655
Ge0 Nb5 2.628543 1_555
Ge0 Nb4 2.628550 1_555
Ge0 Nb3 2.674739 1_555
Ge0 Nb2 2.674739 1_555
Ge0 Nb7 2.675558 1_565
Ge0 Nb1 2.675566 1_565
