# generated using pymatgen
data_Si12Tc(P4Rh)3
_symmetry_space_group_name_H-M   'P 1'
_cell_length_a   5.83295305
_cell_length_b   6.07552755
_cell_length_c   13.10677491
_cell_angle_alpha   90.47426095
_cell_angle_beta   90.61002890
_cell_angle_gamma   92.30864584
_symmetry_Int_Tables_number   1
_chemical_formula_structural   Si12Tc(P4Rh)3
_chemical_formula_sum   'Si12 Tc1 P12 Rh3'
_cell_volume   464.06045773
_cell_formula_units_Z   1
loop_
 _symmetry_equiv_pos_site_id
 _symmetry_equiv_pos_as_xyz
  1  'x, y, z'
loop_
 _atom_site_type_symbol
 _atom_site_label
 _atom_site_symmetry_multiplicity
 _atom_site_fract_x
 _atom_site_fract_y
 _atom_site_fract_z
 _atom_site_occupancy
  Si  Si0  1  0.01806054  0.13227876  0.31416196  1
  Si  Si1  1  0.46330079  0.84083487  0.68303154  1
  Si  Si2  1  0.92215038  0.62079661  0.21159965  1
  Si  Si3  1  0.43067964  0.37488377  0.78614554  1
  Si  Si4  1  0.34556046  0.91697137  0.95208081  1
  Si  Si5  1  0.84493624  0.08638486  0.04641534  1
  Si  Si6  1  0.91364783  0.52285326  0.67324882  1
  Si  Si7  1  0.40087424  0.48313781  0.32892110  1
  Si  Si8  1  0.99309393  0.05507702  0.56871127  1
  Si  Si9  1  0.50375861  0.95013746  0.43127298  1
  Si  Si10  1  0.91399998  0.62492876  0.92674927  1
  Si  Si11  1  0.40607061  0.37899054  0.07321257  1
  Tc  Tc0  1  0.99236011  0.49009257  0.37699070  1
  P  P0  1  0.57946006  0.03452496  0.82608781  1
  P  P1  1  0.08391399  0.95920640  0.16839017  1
  P  P2  1  0.51852249  0.56454213  0.93182149  1
  P  P3  1  0.01621182  0.43845577  0.06757780  1
  P  P4  1  0.60665366  0.11813732  0.57721312  1
  P  P5  1  0.11534531  0.86388191  0.42614261  1
  P  P6  1  0.53746724  0.65303402  0.18080890  1
  P  P7  1  0.04282699  0.35770210  0.81806500  1
  P  P8  1  0.60939737  0.16028952  0.29529031  1
  P  P9  1  0.07682407  0.86599291  0.70958513  1
  P  P10  1  0.14183717  0.39694363  0.55134466  1
  P  P11  1  0.64327481  0.61558756  0.45324330  1
  Rh  Rh0  1  0.96868251  0.98584843  0.87884639  1
  Rh  Rh1  1  0.47415224  0.02185479  0.12131269  1
  Rh  Rh2  1  0.53073591  0.48662688  0.62173008  1
loop_
_geom_bond_atom_site_label_1
_geom_bond_atom_site_label_2
_geom_bond_distance
_geom_bond_site_symmetry_2
Si0 Tc0 2.329317 1_455
Si2 Tc0 2.352277 1_555
Si7 Tc0 2.473119 1_455
P0 Si4 2.255539 1_545
P0 Si1 2.287290 1_545
P0 Si3 2.335822 1_555
P0 Rh0 2.396666 1_545
P1 Si0 2.217771 1_565
P1 Si5 2.270620 1_465
P1 Si2 2.304911 1_455
P1 Rh1 2.381360 1_565
P2 Si3 2.265180 1_555
P2 Si11 2.266335 1_556
P2 Si10 2.322895 1_555
P2 Si4 2.417310 1_555
P3 Si10 2.260879 1_454
P3 Si2 2.264498 1_455
P3 Si11 2.317377 1_555
P3 Si5 2.337204 1_455
P4 Si9 2.225921 1_545
P4 Si8 2.305283 1_555
P4 Si1 2.326171 1_545
P4 Rh2 2.369044 1_555
P5 Si0 2.287275 1_565
P5 Si9 2.304907 1_555
P5 Si8 2.325668 1_465
P5 Tc0 2.433438 1_455
P6 Si11 2.276750 1_555
P6 Si2 2.292045 1_555
P6 Si7 2.338513 1_555
P6 Rh1 2.419721 1_565
P7 Si6 2.288929 1_455
P7 Si3 2.303453 1_555
P7 Si10 2.304898 1_455
P7 Rh0 2.425720 1_445
P8 Si9 2.276864 1_545
P8 Si7 2.389642 1_555
P8 Si0 2.406876 1_655
P8 Rh1 2.530990 1_555
P8 Tc0 3.115191 1_555
P9 Si8 2.242443 1_465
P9 Si1 2.295636 1_555
P9 Si6 2.300649 1_455
P9 Rh0 2.426893 1_455
P10 Si8 2.232806 1_455
P10 Si6 2.239807 1_455
P10 Rh2 2.478154 1_555
P10 Tc0 2.514246 1_455
P11 Si9 2.239301 1_555
P11 Si7 2.267026 1_555
P11 Tc0 2.425299 1_555
P11 Rh2 2.437115 1_555
Rh0 Si10 2.296718 1_555
Rh0 Si5 2.401010 1_566
Rh0 Si4 2.442307 1_655
Rh1 Si11 2.312978 1_555
Rh1 Si5 2.403787 1_555
Rh1 Si4 2.406496 1_544
Rh2 Si6 2.327826 1_555
Rh2 Si3 2.337613 1_555
Rh2 Si1 2.340445 1_555
