# generated using pymatgen
data_AlZnPS
_symmetry_space_group_name_H-M   'P 1'
_cell_length_a   6.63656992
_cell_length_b   6.63656986
_cell_length_c   6.63657037
_cell_angle_alpha   33.68498254
_cell_angle_beta   33.68498234
_cell_angle_gamma   33.68498501
_symmetry_Int_Tables_number   1
_chemical_formula_structural   AlZnPS
_chemical_formula_sum   'Al1 Zn1 P1 S1'
_cell_volume   80.10623793
_cell_formula_units_Z   1
loop_
 _symmetry_equiv_pos_site_id
 _symmetry_equiv_pos_as_xyz
  1  'x, y, z'
loop_
 _atom_site_type_symbol
 _atom_site_label
 _atom_site_symmetry_multiplicity
 _atom_site_fract_x
 _atom_site_fract_y
 _atom_site_fract_z
 _atom_site_occupancy
  Al  Al0  1  0.49947238  0.49947238  0.49947238  1
  Zn  Zn0  1  0.00190950  0.00190950  0.00190950  1
  P  P0  1  0.12622320  0.12622320  0.12622320  1
  S  S0  1  0.62239492  0.62239492  0.62239492  1
loop_
_geom_bond_atom_site_label_1
_geom_bond_atom_site_label_2
_geom_bond_distance
_geom_bond_site_symmetry_2
Al0 S0 2.306318 1_555
Al0 P0 2.343264 1_556
Al0 P0 2.343264 1_655
Al0 P0 2.343264 1_565
P0 Zn0 2.332419 1_555
S0 Zn0 2.383439 1_665
S0 Zn0 2.383439 1_566
S0 Zn0 2.383439 1_656
