# generated using pymatgen
data_LuSi2IrRh
_symmetry_space_group_name_H-M   'P 1'
_cell_length_a   5.67783111
_cell_length_b   5.67783143
_cell_length_c   5.67783193
_cell_angle_alpha   138.47868674
_cell_angle_beta   138.47869642
_cell_angle_gamma   60.17064500
_symmetry_Int_Tables_number   1
_chemical_formula_structural   LuSi2IrRh
_chemical_formula_sum   'Lu1 Si2 Ir1 Rh1'
_cell_volume   79.59954990
_cell_formula_units_Z   1
loop_
 _symmetry_equiv_pos_site_id
 _symmetry_equiv_pos_as_xyz
  1  'x, y, z'
loop_
 _atom_site_type_symbol
 _atom_site_label
 _atom_site_symmetry_multiplicity
 _atom_site_fract_x
 _atom_site_fract_y
 _atom_site_fract_z
 _atom_site_occupancy
  Lu  Lu0  1  0.00000000  0.00000000  0.00000000  1
  Si  Si0  1  0.62042319  0.62042319  0.00000000  1
  Si  Si1  1  0.37957681  0.37957681  1.00000000  1
  Ir  Ir0  1  0.75000000  0.25000000  0.50000000  1
  Rh  Rh0  1  0.25000000  0.75000000  0.50000000  1
loop_
_geom_bond_atom_site_label_1
_geom_bond_atom_site_label_2
_geom_bond_distance
_geom_bond_site_symmetry_2
Lu0 Si0 3.082394 1_545
Lu0 Si1 3.082394 1_454
Lu0 Si0 3.082394 1_455
Lu0 Si1 3.082394 1_544
Lu0 Si0 3.082394 1_556
Lu0 Si1 3.082394 1_443
Lu0 Si0 3.082394 1_444
Lu0 Si1 3.082394 1_555
Lu0 Rh0 3.175642 1_444
Lu0 Rh0 3.175643 1_555
Lu0 Rh0 3.175643 1_545
Lu0 Rh0 3.175643 1_544
Si0 Si1 2.366515 1_554
Ir0 Si1 2.381504 1_655
Ir0 Si1 2.381504 1_554
Ir0 Si0 2.381505 1_545
Ir0 Si0 2.381505 1_556
Ir0 Lu0 3.175642 1_555
Ir0 Lu0 3.175643 1_666
Ir0 Lu0 3.175643 1_656
Ir0 Lu0 3.175643 1_655
Rh0 Si0 2.381504 1_455
Rh0 Si0 2.381504 1_556
Rh0 Si1 2.381505 1_565
Rh0 Si1 2.381505 1_554
