# generated using pymatgen
data_Lu5NiBiSb
_symmetry_space_group_name_H-M   'P 1'
_cell_length_a   8.32100576
_cell_length_b   8.32100412
_cell_length_c   8.78319249
_cell_angle_alpha   124.20928272
_cell_angle_beta   124.20864975
_cell_angle_gamma   79.23078423
_symmetry_Int_Tables_number   1
_chemical_formula_structural   Lu5NiBiSb
_chemical_formula_sum   'Lu10 Ni2 Bi2 Sb2'
_cell_volume   408.42504743
_cell_formula_units_Z   2
loop_
 _symmetry_equiv_pos_site_id
 _symmetry_equiv_pos_as_xyz
  1  'x, y, z'
loop_
 _atom_site_type_symbol
 _atom_site_label
 _atom_site_symmetry_multiplicity
 _atom_site_fract_x
 _atom_site_fract_y
 _atom_site_fract_z
 _atom_site_occupancy
  Lu  Lu0  1  0.00000000  0.00000000  0.00000000  1
  Lu  Lu1  1  0.50000000  0.50000000  0.00000000  1
  Lu  Lu2  1  0.76809653  0.26810068  0.76395975  1
  Lu  Lu3  1  0.23190347  0.73189932  0.23604025  1
  Lu  Lu4  1  0.50417016  0.00416650  0.23608359  1
  Lu  Lu5  1  0.31482552  0.45091075  0.49999977  1
  Lu  Lu6  1  0.04909011  0.18517709  0.50000374  1
  Lu  Lu7  1  0.49582984  0.99583350  0.76391641  1
  Lu  Lu8  1  0.68517448  0.54908925  0.50000023  1
  Lu  Lu9  1  0.95090989  0.81482291  0.49999626  1
  Ni  Ni0  1  0.62962744  0.87036200  0.49998671  1
  Ni  Ni1  1  0.37037256  0.12963800  0.50001329  1
  Bi  Bi0  1  0.24999905  0.25001398  0.00001240  1
  Bi  Bi1  1  0.75000095  0.74998602  0.99998760  1
  Sb  Sb0  1  0.14962389  0.64962591  0.79927736  1
  Sb  Sb1  1  0.85037611  0.35037409  0.20072264  1
loop_
_geom_bond_atom_site_label_1
_geom_bond_atom_site_label_2
_geom_bond_distance
_geom_bond_site_symmetry_2
Lu0 Sb1 2.913791 1_455
Lu0 Sb0 2.913791 1_544
Lu0 Ni1 3.262749 1_555
Lu0 Ni0 3.262749 1_444
Lu1 Sb1 2.913834 1_555
Lu1 Sb0 2.913834 1_554
Lu1 Ni0 3.262578 1_555
Lu1 Ni1 3.262578 1_554
Lu2 Ni1 2.729316 1_555
Lu2 Ni0 2.729391 1_545
Lu2 Sb1 3.150010 1_556
Lu3 Ni0 2.729316 1_555
Lu3 Ni1 2.729391 1_565
Lu3 Sb0 3.150010 1_554
Lu4 Ni0 2.729259 1_545
Lu4 Ni1 2.729377 1_555
Lu4 Sb0 3.150405 1_544
Lu5 Ni1 2.626550 1_555
Lu5 Sb1 3.139768 1_455
Lu5 Sb0 3.140000 1_555
Lu6 Ni1 2.626535 1_555
Lu6 Sb0 3.139740 1_555
Lu6 Sb1 3.140017 1_455
Lu7 Ni1 2.729259 1_565
Lu7 Ni0 2.729377 1_555
Lu7 Sb1 3.150405 1_566
Lu8 Ni0 2.626550 1_555
Lu8 Sb0 3.139768 1_655
Lu8 Sb1 3.140000 1_555
Lu9 Ni0 2.626535 1_555
Lu9 Sb1 3.139740 1_555
Lu9 Sb0 3.140017 1_655
Bi0 Lu1 3.205006 1_555
Bi0 Lu0 3.205014 1_555
Bi0 Lu3 3.343202 1_555
Bi0 Lu2 3.343328 1_454
Bi0 Lu4 3.343485 1_555
Bi0 Lu7 3.343491 1_544
Bi0 Lu8 3.433550 1_555
Bi0 Lu5 3.433570 1_555
Bi0 Lu9 3.433690 1_444
Bi0 Lu6 3.433693 1_554
Bi1 Lu1 3.205006 1_556
Bi1 Lu0 3.205014 1_666
Bi1 Lu2 3.343202 1_555
Bi1 Lu3 3.343328 1_656
Bi1 Lu7 3.343485 1_555
Bi1 Lu4 3.343491 1_566
Bi1 Lu5 3.433550 1_555
Bi1 Lu8 3.433570 1_555
Bi1 Lu6 3.433690 1_666
Bi1 Lu9 3.433693 1_556
