# generated using pymatgen
data_Ta3Al2IrN
_symmetry_space_group_name_H-M   'P 1'
_cell_length_a   8.23301393
_cell_length_b   8.23301465
_cell_length_c   8.23301395
_cell_angle_alpha   59.99999883
_cell_angle_beta   59.99999596
_cell_angle_gamma   59.99999790
_symmetry_Int_Tables_number   1
_chemical_formula_structural   Ta3Al2IrN
_chemical_formula_sum   'Ta12 Al8 Ir4 N4'
_cell_volume   394.60407679
_cell_formula_units_Z   4
loop_
 _symmetry_equiv_pos_site_id
 _symmetry_equiv_pos_as_xyz
  1  'x, y, z'
loop_
 _atom_site_type_symbol
 _atom_site_label
 _atom_site_symmetry_multiplicity
 _atom_site_fract_x
 _atom_site_fract_y
 _atom_site_fract_z
 _atom_site_occupancy
  Ta  Ta0  1  0.56470476  0.93529524  0.56470476  1
  Ta  Ta1  1  0.31470476  0.68529524  0.68529524  1
  Ta  Ta2  1  0.68529524  0.31470476  0.31470476  1
  Ta  Ta3  1  0.31470476  0.68529524  0.31470476  1
  Ta  Ta4  1  0.68529524  0.68529524  0.31470476  1
  Ta  Ta5  1  0.31470476  0.31470476  0.68529524  1
  Ta  Ta6  1  0.56470476  0.56470476  0.93529524  1
  Ta  Ta7  1  0.93529524  0.56470476  0.56470476  1
  Ta  Ta8  1  0.56470476  0.93529524  0.93529524  1
  Ta  Ta9  1  0.93529524  0.93529524  0.56470476  1
  Ta  Ta10  1  0.68529524  0.31470476  0.68529524  1
  Ta  Ta11  1  0.93529524  0.56470476  0.93529524  1
  Al  Al0  1  0.91659273  0.91659273  0.91659273  1
  Al  Al1  1  0.99977718  0.33340727  0.33340727  1
  Al  Al2  1  0.33340727  0.99977718  0.33340727  1
  Al  Al3  1  0.33340727  0.33340727  0.99977718  1
  Al  Al4  1  0.91659273  0.25022282  0.91659273  1
  Al  Al5  1  0.91659273  0.91659273  0.25022282  1
  Al  Al6  1  0.25022282  0.91659273  0.91659273  1
  Al  Al7  1  0.33340727  0.33340727  0.33340727  1
  Ir  Ir0  1  0.12500000  0.12500000  0.12500000  1
  Ir  Ir1  1  0.62500000  0.12500000  0.12500000  1
  Ir  Ir2  1  0.12500000  0.62500000  0.12500000  1
  Ir  Ir3  1  0.12500000  0.12500000  0.62500000  1
  N  N0  1  0.62500000  0.62500000  0.62500000  1
  N  N1  1  0.12500000  0.62500000  0.62500000  1
  N  N2  1  0.62500000  0.12500000  0.62500000  1
  N  N3  1  0.62500000  0.62500000  0.12500000  1
loop_
_geom_bond_atom_site_label_1
_geom_bond_atom_site_label_2
_geom_bond_distance
_geom_bond_site_symmetry_2
Al0 Ir1 2.521333 1_566
Al0 Ir3 2.521333 1_665
Al0 Ir2 2.521333 1_656
Al1 Ir0 2.521331 1_655
Al1 Ir3 2.521337 1_655
Al1 Ir2 2.521337 1_655
Al2 Ir0 2.521331 1_565
Al2 Ir3 2.521337 1_565
Al2 Ir1 2.521337 1_565
Al3 Ir0 2.521331 1_556
Al3 Ir1 2.521337 1_556
Al3 Ir2 2.521337 1_556
Al4 Ir0 2.521331 1_656
Al4 Ir3 2.521337 1_655
Al4 Ir1 2.521337 1_556
Al5 Ir0 2.521331 1_665
Al5 Ir1 2.521337 1_565
Al5 Ir2 2.521337 1_655
Al6 Ir0 2.521331 1_566
Al6 Ir3 2.521337 1_565
Al6 Ir2 2.521337 1_556
Al7 Ir1 2.521333 1_555
Al7 Ir3 2.521333 1_555
Al7 Ir2 2.521333 1_555
Ir0 Ta8 3.019124 1_544
Ir0 Ta2 3.019124 1_455
Ir0 Ta9 3.019124 1_445
Ir0 Ta5 3.019124 1_554
Ir0 Ta11 3.019124 1_454
Ir0 Ta3 3.019124 1_545
Ir1 Ta0 3.019124 1_545
Ir1 Ta10 3.019124 1_554
Ir1 Ta2 3.019124 1_555
Ir1 Ta8 3.019124 1_544
Ir1 Ta6 3.019124 1_554
Ir1 Ta4 3.019124 1_545
Ir2 Ta6 3.019124 1_554
Ir2 Ta4 3.019124 1_455
Ir2 Ta7 3.019124 1_455
Ir2 Ta1 3.019124 1_554
Ir2 Ta3 3.019124 1_555
Ir2 Ta11 3.019124 1_454
Ir3 Ta0 3.019124 1_545
Ir3 Ta10 3.019124 1_455
Ir3 Ta5 3.019124 1_555
Ir3 Ta9 3.019124 1_445
Ir3 Ta7 3.019124 1_455
Ir3 Ta1 3.019124 1_545
N0 Ta7 2.174685 1_555
N0 Ta1 2.174685 1_555
N0 Ta6 2.174685 1_555
N0 Ta4 2.174685 1_555
N0 Ta0 2.174686 1_555
N0 Ta10 2.174686 1_555
N1 Ta11 2.174685 1_455
N1 Ta3 2.174685 1_555
N1 Ta1 2.174685 1_555
N1 Ta7 2.174685 1_455
N1 Ta9 2.174685 1_455
N1 Ta5 2.174685 1_555
N2 Ta9 2.174685 1_545
N2 Ta5 2.174685 1_555
N2 Ta8 2.174685 1_545
N2 Ta2 2.174685 1_555
N2 Ta10 2.174685 1_555
N2 Ta0 2.174685 1_545
N3 Ta11 2.174685 1_554
N3 Ta3 2.174685 1_555
N3 Ta4 2.174685 1_555
N3 Ta6 2.174685 1_554
N3 Ta8 2.174685 1_554
N3 Ta2 2.174685 1_555
