# generated using pymatgen
data_GeP5Au4
_symmetry_space_group_name_H-M   'P 1'
_cell_length_a   7.97577129
_cell_length_b   7.97577042
_cell_length_c   4.70950280
_cell_angle_alpha   82.03166135
_cell_angle_beta   82.03167028
_cell_angle_gamma   136.38276749
_symmetry_Int_Tables_number   1
_chemical_formula_structural   GeP5Au4
_chemical_formula_sum   'Ge1 P5 Au4'
_cell_volume   191.73836172
_cell_formula_units_Z   1
loop_
 _symmetry_equiv_pos_site_id
 _symmetry_equiv_pos_as_xyz
  1  'x, y, z'
loop_
 _atom_site_type_symbol
 _atom_site_label
 _atom_site_symmetry_multiplicity
 _atom_site_fract_x
 _atom_site_fract_y
 _atom_site_fract_z
 _atom_site_occupancy
  Ge  Ge0  1  0.71254380  0.71254380  0.47517755  1
  P  P0  1  0.31353658  0.31353658  0.46577819  1
  P  P1  1  0.20084888  0.43949711  0.18401640  1
  P  P2  1  0.55457895  0.80493769  0.81551484  1
  P  P3  1  0.43949711  0.20084888  0.18401640  1
  P  P4  1  0.80493769  0.55457895  0.81551484  1
  Au  Au0  1  0.10357509  0.88087604  0.01198663  1
  Au  Au1  1  0.88087604  0.10357509  0.01198663  1
  Au  Au2  1  0.00152164  0.48808423  0.51800575  1
  Au  Au3  1  0.48808423  0.00152164  0.51800575  1
loop_
_geom_bond_atom_site_label_1
_geom_bond_atom_site_label_2
_geom_bond_distance
_geom_bond_site_symmetry_2
Ge0 P0 2.381435 1_555
Ge0 P4 2.410662 1_555
Ge0 P2 2.410662 1_555
P0 P1 2.201439 1_555
P0 P3 2.201439 1_555
P1 P2 2.190974 1_554
P3 P4 2.190974 1_554
Au0 P4 2.367620 1_454
Au0 P3 2.371161 1_565
Au0 Ge0 2.743502 1_455
Au0 P0 3.050709 1_564
Au1 P2 2.367620 1_544
Au1 P1 2.371161 1_655
Au1 Ge0 2.743501 1_545
Au1 P0 3.050709 1_654
Au2 P4 2.345995 1_455
Au2 P1 2.349344 1_555
Au3 P2 2.345995 1_545
Au3 P3 2.349343 1_555
