# generated using pymatgen
data_TaBe8Mo2Ru
_symmetry_space_group_name_H-M   'P 1'
_cell_length_a   4.42596229
_cell_length_b   4.42596249
_cell_length_c   7.32368168
_cell_angle_alpha   90.00000000
_cell_angle_beta   90.00000000
_cell_angle_gamma   120.00000592
_symmetry_Int_Tables_number   1
_chemical_formula_structural   TaBe8Mo2Ru
_chemical_formula_sum   'Ta1 Be8 Mo2 Ru1'
_cell_volume   124.24402241
_cell_formula_units_Z   1
loop_
 _symmetry_equiv_pos_site_id
 _symmetry_equiv_pos_as_xyz
  1  'x, y, z'
loop_
 _atom_site_type_symbol
 _atom_site_label
 _atom_site_symmetry_multiplicity
 _atom_site_fract_x
 _atom_site_fract_y
 _atom_site_fract_z
 _atom_site_occupancy
  Ta  Ta0  1  0.66666700  0.33333300  0.05866255  1
  Be  Be0  1  0.00000000  0.00000000  0.50420838  1
  Be  Be1  1  0.00000000  0.00000000  0.99815698  1
  Be  Be2  1  0.66202166  0.83101033  0.25270174  1
  Be  Be3  1  0.16898967  0.83101033  0.25270174  1
  Be  Be4  1  0.16898967  0.33797834  0.25270174  1
  Be  Be5  1  0.33822144  0.16911122  0.74803662  1
  Be  Be6  1  0.83088878  0.16911122  0.74803662  1
  Be  Be7  1  0.83088878  0.66177856  0.74803662  1
  Mo  Mo0  1  0.66666700  0.33333300  0.43959373  1
  Mo  Mo1  1  0.33333300  0.66666700  0.56234677  1
  Ru  Ru0  1  0.33333300  0.66666700  0.93481753  1
loop_
_geom_bond_atom_site_label_1
_geom_bond_atom_site_label_2
_geom_bond_distance
_geom_bond_site_symmetry_2
Be0 Be5 2.206684 1_555
Be0 Be7 2.206684 1_445
Be0 Be6 2.206686 1_455
Be0 Be2 2.251896 1_445
Be0 Be4 2.251897 1_555
Be0 Be3 2.251899 1_545
Be0 Mo1 2.590559 1_545
Be0 Mo1 2.590563 1_445
Be0 Mo1 2.590563 1_555
Be0 Mo0 2.598776 1_455
Be0 Mo0 2.598779 1_555
Be0 Mo0 2.598779 1_445
Be1 Be5 2.244138 1_555
Be1 Be7 2.244138 1_445
Be1 Be6 2.244140 1_455
Be1 Be2 2.270132 1_446
Be1 Be4 2.270132 1_556
Be1 Be3 2.270135 1_546
Be1 Ta0 2.593465 1_456
Be1 Ta0 2.593468 1_556
Be1 Ta0 2.593468 1_446
Be1 Ru0 2.597092 1_545
Be1 Ru0 2.597095 1_445
Be1 Ru0 2.597095 1_555
Be2 Be4 2.182141 1_555
Be2 Be3 2.182141 1_555
Be2 Be4 2.243821 1_665
Be2 Be3 2.243821 1_655
Be2 Mo1 2.594206 1_555
Be2 Mo0 2.602123 1_565
Be2 Mo0 2.602123 1_555
Be2 Ta0 2.630033 1_565
Be2 Ta0 2.630033 1_555
Be2 Ru0 2.647116 1_554
Be3 Be4 2.182141 1_555
Be3 Be4 2.243821 1_565
Be3 Mo1 2.594202 1_555
Be3 Mo0 2.602123 1_455
Be3 Mo0 2.602123 1_565
Be3 Ta0 2.630033 1_455
Be3 Ta0 2.630033 1_565
Be3 Ru0 2.647112 1_554
Be4 Mo1 2.594206 1_555
Be4 Mo0 2.602123 1_455
Be4 Mo0 2.602123 1_555
Be4 Ta0 2.630033 1_455
Be4 Ta0 2.630033 1_555
Be4 Ru0 2.647116 1_554
Be5 Be7 2.180527 1_555
Be5 Be6 2.180527 1_555
Be5 Be7 2.245435 1_445
Be5 Be6 2.245435 1_455
Be5 Mo0 2.586060 1_555
Be5 Mo1 2.597510 1_545
Be5 Mo1 2.597510 1_555
Be5 Ta0 2.600037 1_556
Be5 Ru0 2.601702 1_545
Be5 Ru0 2.601702 1_555
Be6 Be7 2.180527 1_555
Be6 Be7 2.245435 1_545
Be6 Mo0 2.586056 1_555
Be6 Mo1 2.597509 1_655
Be6 Mo1 2.597509 1_545
Be6 Ta0 2.600033 1_556
Be6 Ru0 2.601702 1_655
Be6 Ru0 2.601702 1_545
Be7 Mo0 2.586060 1_555
Be7 Mo1 2.597509 1_655
Be7 Mo1 2.597509 1_555
Be7 Ta0 2.600037 1_556
Be7 Ru0 2.601702 1_655
Be7 Ru0 2.601702 1_555
Mo0 Mo1 2.708857 1_655
Mo0 Mo1 2.708858 1_545
Mo0 Mo1 2.708865 1_555
Mo0 Ta0 2.789819 1_555
Mo1 Ru0 2.727857 1_555
Ru0 Ta0 2.711522 1_456
Ru0 Ta0 2.711522 1_566
Ru0 Ta0 2.711530 1_556
