# generated using pymatgen
data_NaCa3(ZrH5)4
_symmetry_space_group_name_H-M   'P 1'
_cell_length_a   3.42837104
_cell_length_b   5.16184602
_cell_length_c   14.34696631
_cell_angle_alpha   90.00004794
_cell_angle_beta   90.18079330
_cell_angle_gamma   89.99993857
_symmetry_Int_Tables_number   1
_chemical_formula_structural   NaCa3(ZrH5)4
_chemical_formula_sum   'Na1 Ca3 Zr4 H20'
_cell_volume   253.89303062
_cell_formula_units_Z   1
loop_
 _symmetry_equiv_pos_site_id
 _symmetry_equiv_pos_as_xyz
  1  'x, y, z'
loop_
 _atom_site_type_symbol
 _atom_site_label
 _atom_site_symmetry_multiplicity
 _atom_site_fract_x
 _atom_site_fract_y
 _atom_site_fract_z
 _atom_site_occupancy
  Na  Na0  1  0.74056255  0.50004970  0.81384842  1
  Ca  Ca0  1  0.24452338  0.99991285  0.18807285  1
  Ca  Ca1  1  0.75512894  0.49996357  0.31233035  1
  Ca  Ca2  1  0.26018534  0.00010509  0.69251687  1
  Zr  Zr0  1  0.24028398  0.99995946  0.93053594  1
  Zr  Zr1  1  0.74117405  0.49986917  0.06880855  1
  Zr  Zr2  1  0.25864532  0.99999626  0.43128018  1
  Zr  Zr3  1  0.75954356  0.50016810  0.56662759  1
  H  H0  1  0.73921996  0.75367740  0.95485627  1
  H  H1  1  0.24073045  0.73959139  0.05005746  1
  H  H2  1  0.75926365  0.24448204  0.44965283  1
  H  H3  1  0.26081297  0.24868749  0.54678760  1
  H  H4  1  0.23995783  0.76109883  0.82597551  1
  H  H5  1  0.74393190  0.74727491  0.17627352  1
  H  H6  1  0.25579983  0.24519579  0.32359736  1
  H  H7  1  0.76051059  0.25575018  0.67103664  1
  H  H8  1  0.74392997  0.25253161  0.17628409  1
  H  H9  1  0.23995785  0.23890035  0.82600996  1
  H  H10  1  0.76052007  0.74456172  0.67102476  1
  H  H11  1  0.25579894  0.75476230  0.32360812  1
  H  H12  1  0.73800320  0.00000220  0.85076293  1
  H  H13  1  0.24277368  0.49983492  0.15902926  1
  H  H14  1  0.75713565  0.00001313  0.34188483  1
  H  H15  1  0.26159844  0.50018969  0.64778544  1
  H  H16  1  0.24073618  0.26015607  0.05006257  1
  H  H17  1  0.73922239  0.24619048  0.95485858  1
  H  H18  1  0.26079785  0.75159500  0.54681133  1
  H  H19  1  0.75925146  0.75548233  0.44961820  1
loop_
_geom_bond_atom_site_label_1
_geom_bond_atom_site_label_2
_geom_bond_distance
_geom_bond_site_symmetry_2
Ca0 H8 2.159227 1_565
Ca0 H5 2.159302 1_555
Ca0 H8 2.161606 1_465
Ca0 H5 2.161674 1_455
Ca0 H11 2.320236 1_555
Ca0 H6 2.320477 1_565
Ca0 H16 2.392713 1_565
Ca0 H1 2.392999 1_555
Ca1 H6 2.165144 1_555
Ca1 H11 2.165253 1_555
Ca1 H6 2.167974 1_655
Ca1 H11 2.168082 1_655
Ca1 H5 2.332592 1_555
Ca1 H8 2.332804 1_555
Ca1 H19 2.370490 1_555
Ca1 H2 2.370798 1_555
Ca2 H10 2.183165 1_445
Ca2 H7 2.183482 1_455
Ca2 H10 2.186490 1_545
Ca2 H7 2.186759 1_555
Ca2 H9 2.278832 1_555
Ca2 H4 2.279008 1_545
Ca2 H18 2.452639 1_545
Ca2 H3 2.453126 1_555
H0 Zr1 2.095039 1_556
H0 Zr0 2.158713 1_555
H0 Zr0 2.166244 1_655
H0 Na0 2.409713 1_555
H1 Zr1 2.130654 1_455
H1 Zr1 2.131733 1_555
H1 Zr0 2.178695 1_554
H2 Zr3 2.135031 1_555
H2 Zr2 2.143859 1_645
H2 Zr2 2.145920 1_545
H3 Zr2 2.096217 1_545
H3 Zr3 2.164846 1_555
H3 Zr3 2.173143 1_455
H4 Zr0 1.941792 1_555
H4 Na0 2.185285 1_455
H4 Na0 2.189392 1_555
H5 Zr1 2.002009 1_555
H6 Zr2 1.997182 1_545
H7 Zr3 1.958469 1_555
H7 Na0 2.407037 1_555
H8 Zr1 2.001903 1_555
H9 Zr0 1.941675 1_545
H9 Na0 2.185640 1_455
H9 Na0 2.189754 1_555
H10 Zr3 1.958256 1_555
H10 Na0 2.407760 1_555
H11 Zr2 1.997174 1_555
H12 Zr0 2.057642 1_545
H12 Zr0 2.064642 1_645
H13 Zr1 2.146875 1_555
H13 Zr1 2.149109 1_455
H14 Zr2 2.139974 1_545
H14 Zr2 2.141781 1_645
H15 Zr3 2.069451 1_555
H15 Zr3 2.075028 1_455
H16 Zr1 2.130631 1_455
H16 Zr1 2.131683 1_555
H16 Zr0 2.178205 1_544
H17 Zr1 2.094594 1_556
H17 Zr0 2.158572 1_545
H17 Zr0 2.166086 1_645
H17 Na0 2.410392 1_555
H18 Zr2 2.095571 1_555
H18 Zr3 2.164675 1_555
H18 Zr3 2.172893 1_455
H19 Zr3 2.134237 1_555
H19 Zr2 2.143918 1_655
H19 Zr2 2.145910 1_555
