# generated using pymatgen
data_Y2AlSi13Ir6
_symmetry_space_group_name_H-M   'P 1'
_cell_length_a   7.99893047
_cell_length_b   7.99893080
_cell_length_c   7.99893007
_cell_angle_alpha   57.00032087
_cell_angle_beta   57.00032043
_cell_angle_gamma   57.00031918
_symmetry_Int_Tables_number   1
_chemical_formula_structural   Y2AlSi13Ir6
_chemical_formula_sum   'Y2 Al1 Si13 Ir6'
_cell_volume   336.86289627
_cell_formula_units_Z   1
loop_
 _symmetry_equiv_pos_site_id
 _symmetry_equiv_pos_as_xyz
  1  'x, y, z'
loop_
 _atom_site_type_symbol
 _atom_site_label
 _atom_site_symmetry_multiplicity
 _atom_site_fract_x
 _atom_site_fract_y
 _atom_site_fract_z
 _atom_site_occupancy
  Y  Y0  1  0.99921991  0.99921991  0.99921991  1
  Y  Y1  1  0.50078009  0.50078009  0.50078009  1
  Al  Al0  1  0.75000000  0.75000000  0.75000000  1
  Si  Si0  1  0.25000000  0.25000000  0.25000000  1
  Si  Si1  1  0.84944615  0.06199412  0.67265599  1
  Si  Si2  1  0.67265599  0.84944615  0.06199412  1
  Si  Si3  1  0.06199412  0.67265599  0.84944615  1
  Si  Si4  1  0.65055385  0.82734401  0.43800588  1
  Si  Si5  1  0.43800588  0.65055385  0.82734401  1
  Si  Si6  1  0.82734401  0.43800588  0.65055385  1
  Si  Si7  1  0.17163559  0.55945558  0.35531752  1
  Si  Si8  1  0.55945558  0.35531752  0.17163559  1
  Si  Si9  1  0.35531752  0.17163559  0.55945558  1
  Si  Si10  1  0.94054442  0.32836441  0.14468248  1
  Si  Si11  1  0.32836441  0.14468248  0.94054442  1
  Si  Si12  1  0.14468248  0.94054442  0.32836441  1
  Ir  Ir0  1  0.08153593  0.41846407  0.75000000  1
  Ir  Ir1  1  0.25000000  0.92798345  0.57201655  1
  Ir  Ir2  1  0.57201655  0.25000000  0.92798345  1
  Ir  Ir3  1  0.92798345  0.57201655  0.25000000  1
  Ir  Ir4  1  0.41846407  0.75000000  0.08153593  1
  Ir  Ir5  1  0.75000000  0.08153593  0.41846407  1
loop_
_geom_bond_atom_site_label_1
_geom_bond_atom_site_label_2
_geom_bond_distance
_geom_bond_site_symmetry_2
Al0 Ir4 2.530799 1_556
Al0 Ir0 2.530799 1_655
Al0 Ir5 2.530799 1_565
Al0 Si4 2.681075 1_555
Al0 Si2 2.681075 1_556
Al0 Si3 2.681075 1_655
Al0 Si5 2.681075 1_555
Al0 Si6 2.681075 1_555
Al0 Si1 2.681075 1_565
Si1 Si2 2.577474 1_546
Si1 Si3 2.577474 1_645
Si1 Si12 2.726914 1_645
Si1 Si6 2.825660 1_555
Si1 Y0 3.136179 1_545
Si1 Y1 3.200805 1_555
Si2 Si3 2.577474 1_654
Si2 Si4 2.825660 1_555
Si2 Y0 3.136179 1_554
Si2 Y1 3.200805 1_555
Si3 Si5 2.825660 1_555
Si3 Y0 3.136179 1_455
Si3 Y1 3.200805 1_555
Si4 Si5 2.577474 1_555
Si4 Si6 2.577474 1_555
Si4 Si9 2.726914 1_565
Si4 Y1 3.136179 1_555
Si4 Y0 3.200805 1_554
Si5 Si6 2.577474 1_555
Si5 Si8 2.726914 1_556
Si5 Y1 3.136179 1_555
Si5 Y0 3.200805 1_455
Si6 Si7 2.726914 1_655
Si6 Y1 3.136179 1_555
Si6 Y0 3.200805 1_545
Si7 Y1 3.146710 1_555
Si7 Y0 3.235701 1_454
Si8 Y1 3.146710 1_555
Si8 Y0 3.235701 1_544
Si9 Y1 3.146710 1_555
Si9 Y0 3.235701 1_445
Si10 Si3 2.726914 1_654
Si10 Y0 3.146710 1_544
Si10 Y1 3.235701 1_555
Si11 Si2 2.726914 1_546
Si11 Y0 3.146710 1_445
Si11 Y1 3.235701 1_555
Si12 Y0 3.146710 1_454
Si12 Y1 3.235701 1_555
Ir0 Si11 2.439136 1_555
Ir0 Si9 2.439136 1_555
Ir0 Si6 2.464038 1_455
Ir0 Si3 2.464038 1_555
Ir0 Si10 2.507361 1_456
Ir0 Si7 2.507361 1_555
Ir0 Y1 3.057288 1_555
Ir0 Y0 3.057288 1_445
Ir1 Si12 2.449721 1_555
Ir1 Si9 2.449721 1_565
Ir1 Si0 2.458132 1_565
Ir1 Si5 2.476059 1_555
Ir1 Si3 2.476059 1_555
Ir1 Si1 2.540097 1_465
Ir1 Si4 2.540097 1_555
Ir1 Y0 3.071629 1_455
Ir1 Y1 3.071630 1_555
Ir2 Si8 2.449721 1_556
Ir2 Si11 2.449721 1_555
Ir2 Si0 2.458132 1_556
Ir2 Si1 2.476059 1_555
Ir2 Si6 2.476059 1_555
Ir2 Si5 2.540097 1_555
Ir2 Si2 2.540097 1_546
Ir2 Y1 3.071629 1_555
Ir2 Y0 3.071629 1_545
Ir3 Si7 2.449721 1_655
Ir3 Si10 2.449721 1_555
Ir3 Si0 2.458132 1_655
Ir3 Si2 2.476059 1_555
Ir3 Si4 2.476059 1_555
Ir3 Si3 2.540096 1_654
Ir3 Si6 2.540096 1_555
Ir3 Y1 3.071630 1_555
Ir3 Y0 3.071630 1_554
Ir4 Si12 2.439136 1_555
Ir4 Si7 2.439136 1_555
Ir4 Si5 2.464038 1_554
Ir4 Si2 2.464038 1_555
Ir4 Si8 2.507362 1_555
Ir4 Si11 2.507362 1_564
Ir4 Y1 3.057288 1_555
Ir4 Y0 3.057288 1_454
Ir5 Si8 2.439136 1_555
Ir5 Si10 2.439136 1_555
Ir5 Si1 2.464038 1_555
Ir5 Si4 2.464038 1_545
Ir5 Si12 2.507361 1_645
Ir5 Si9 2.507361 1_555
Ir5 Y0 3.057288 1_544
Ir5 Y1 3.057288 1_555
