# generated using pymatgen
data_Mn7SiO12
_symmetry_space_group_name_H-M   'P 1'
_cell_length_a   11.69227149
_cell_length_b   11.69227149
_cell_length_c   11.69227149
_cell_angle_alpha   131.54301785
_cell_angle_beta   131.54301785
_cell_angle_gamma   70.95174520
_symmetry_Int_Tables_number   1
_chemical_formula_structural   Mn7SiO12
_chemical_formula_sum   'Mn28 Si4 O48'
_cell_volume   876.87594007
_cell_formula_units_Z   4
loop_
 _symmetry_equiv_pos_site_id
 _symmetry_equiv_pos_as_xyz
  1  'x, y, z'
loop_
 _atom_site_type_symbol
 _atom_site_label
 _atom_site_symmetry_multiplicity
 _atom_site_fract_x
 _atom_site_fract_y
 _atom_site_fract_z
 _atom_site_occupancy
  Mn  Mn0  1  0.12500000  0.34168000  0.71668000  1
  Mn  Mn1  1  0.62500000  0.90832000  0.78332000  1
  Mn  Mn2  1  0.12500000  0.84168000  0.21668000  1
  Mn  Mn3  1  0.09168000  0.87500000  0.71668000  1
  Mn  Mn4  1  0.87500000  0.62500000  0.75000000  1
  Mn  Mn5  1  0.87500000  0.12500000  0.25000000  1
  Mn  Mn6  1  0.37500000  0.62500000  0.25000000  1
  Mn  Mn7  1  0.37500000  0.12500000  0.25000000  1
  Mn  Mn8  1  0.87500000  0.12500000  0.75000000  1
  Mn  Mn9  1  0.37500000  0.62500000  0.75000000  1
  Mn  Mn10  1  0.87500000  0.62500000  0.25000000  1
  Mn  Mn11  1  0.37500000  0.12500000  0.75000000  1
  Mn  Mn12  1  0.23316800  0.73316800  0.96633500  1
  Mn  Mn13  1  0.26683200  0.23316800  0.50000000  1
  Mn  Mn14  1  0.73316800  0.76683200  0.50000000  1
  Mn  Mn15  1  0.76683200  0.26683200  0.03366500  1
  Mn  Mn16  1  0.51683200  0.51683200  0.53366500  1
  Mn  Mn17  1  0.48316800  0.01683200  0.00000000  1
  Mn  Mn18  1  0.01683200  0.48316800  0.00000000  1
  Mn  Mn19  1  0.98316800  0.98316800  0.46633500  1
  Mn  Mn20  1  0.65832000  0.37500000  0.78332000  1
  Mn  Mn21  1  0.62500000  0.40832000  0.28332000  1
  Mn  Mn22  1  0.15832000  0.37500000  0.28332000  1
  Mn  Mn23  1  0.59168000  0.87500000  0.21668000  1
  Mn  Mn24  1  0.25000000  0.25000000  0.00000000  1
  Mn  Mn25  1  0.75000000  0.75000000  0.00000000  1
  Mn  Mn26  1  0.00000000  0.50000000  0.50000000  1
  Mn  Mn27  1  0.50000000  0.00000000  0.50000000  1
  Si  Si0  1  0.50000000  0.50000000  0.00000000  1
  Si  Si1  1  0.25000000  0.75000000  0.50000000  1
  Si  Si2  1  0.75000000  0.25000000  0.50000000  1
  Si  Si3  1  0.00000000  0.00000000  0.00000000  1
  O  O0  1  0.07492800  0.53630100  0.75259200  1
  O  O1  1  0.78370900  0.32233600  0.24740800  1
  O  O2  1  0.57492800  0.82233600  0.53862800  1
  O  O3  1  0.46369900  0.21629100  0.53862800  1
  O  O4  1  0.67766400  0.92507200  0.46137200  1
  O  O5  1  0.17766400  0.71629100  0.75259200  1
  O  O6  1  0.96369900  0.42507200  0.24740800  1
  O  O7  1  0.28370900  0.03630100  0.46137200  1
  O  O8  1  0.17507200  0.42766400  0.96137200  1
  O  O9  1  0.46629100  0.21369900  0.03862800  1
  O  O10  1  0.67507200  0.71369900  0.74740800  1
  O  O11  1  0.57233600  0.53370900  0.74740800  1
  O  O12  1  0.78630100  0.82492800  0.25259200  1
  O  O13  1  0.28630100  0.03370900  0.96137200  1
  O  O14  1  0.07233600  0.32492800  0.03862800  1
  O  O15  1  0.96629100  0.92766400  0.25259200  1
  O  O16  1  0.53254200  0.56312000  0.19476800  1
  O  O17  1  0.36835200  0.33777400  0.80523200  1
  O  O18  1  0.03254200  0.83777400  0.96942300  1
  O  O19  1  0.46028100  0.49148300  0.31666900  1
  O  O20  1  0.43688000  0.63164800  0.96942300  1
  O  O21  1  0.16222600  0.13164800  0.19476800  1
  O  O22  1  0.93688000  0.96745800  0.80523200  1
  O  O23  1  0.86835200  0.06312000  0.03057700  1
  O  O24  1  0.78971900  0.60638800  0.53120200  1
  O  O25  1  0.07518600  0.25851700  0.46879800  1
  O  O26  1  0.28971900  0.75851700  0.18333100  1
  O  O27  1  0.39361200  0.92481400  0.18333100  1
  O  O28  1  0.74148300  0.21028100  0.81666900  1
  O  O29  1  0.24148300  0.42481400  0.53120200  1
  O  O30  1  0.89361200  0.71028100  0.46879800  1
  O  O31  1  0.57518600  0.10638800  0.81666900  1
  O  O32  1  0.38164800  0.91222600  0.69476800  1
  O  O33  1  0.08777400  0.78254200  0.46942300  1
  O  O34  1  0.31312000  0.61835200  0.53057700  1
  O  O35  1  0.81312000  0.28254200  0.69476800  1
  O  O36  1  0.58777400  0.11835200  0.30523200  1
  O  O37  1  0.21745800  0.68688000  0.30523200  1
  O  O38  1  0.88164800  0.18688000  0.46942300  1
  O  O39  1  0.71745800  0.41222600  0.53057700  1
  O  O40  1  0.67481400  0.99148300  0.03120200  1
  O  O41  1  0.00851700  0.03971900  0.68333100  1
  O  O42  1  0.35638800  0.32518600  0.31666900  1
  O  O43  1  0.85638800  0.53971900  0.03120200  1
  O  O44  1  0.50851700  0.82518600  0.96879800  1
  O  O45  1  0.96028100  0.64361200  0.96879800  1
  O  O46  1  0.17481400  0.14361200  0.68333100  1
  O  O47  1  0.66222600  0.46745800  0.03057700  1
loop_
_geom_bond_atom_site_label_1
_geom_bond_atom_site_label_2
_geom_bond_distance
_geom_bond_site_symmetry_2
Mn0 O8 1.971381 1_555
Mn0 O0 1.971392 1_555
Mn0 O46 2.019301 1_555
Mn0 O25 2.019301 1_555
Mn0 O17 2.289208 1_555
Mn0 O38 2.289209 1_455
Mn1 O2 1.971381 1_555
Mn1 O10 1.971392 1_555
Mn1 O40 2.019301 1_556
Mn1 O31 2.019301 1_565
Mn1 O32 2.289208 1_555
Mn1 O23 2.289209 1_566
Mn2 O7 1.971391 1_565
Mn2 O15 1.971392 1_455
Mn2 O26 2.019301 1_555
Mn2 O45 2.019301 1_454
Mn2 O18 2.289197 1_554
Mn2 O37 2.289208 1_555
Mn3 O13 1.971391 1_565
Mn3 O5 1.971392 1_555
Mn3 O41 2.019301 1_565
Mn3 O30 2.019301 1_455
Mn3 O33 2.289197 1_555
Mn3 O22 2.289208 1_455
Mn4 O24 1.898960 1_555
Mn4 O45 1.898960 1_555
Mn4 O18 2.102785 1_655
Mn4 O39 2.102785 1_555
Mn4 O10 2.214997 1_555
Mn4 O0 2.214997 1_655
Mn5 O25 1.898960 1_655
Mn5 O40 1.898960 1_545
Mn5 O38 2.102798 1_555
Mn5 O23 2.102798 1_555
Mn5 O1 2.214997 1_555
Mn5 O15 2.214997 1_545
Mn6 O19 1.898960 1_555
Mn6 O26 1.898960 1_555
Mn6 O16 2.102787 1_555
Mn6 O37 2.102787 1_555
Mn6 O2 2.214998 1_555
Mn6 O8 2.214998 1_554
Mn7 O42 1.898960 1_555
Mn7 O27 1.898960 1_545
Mn7 O36 2.102787 1_555
Mn7 O21 2.102787 1_555
Mn7 O13 2.215007 1_554
Mn7 O3 2.215007 1_555
Mn8 O28 1.898960 1_555
Mn8 O41 1.898960 1_655
Mn8 O35 2.102787 1_555
Mn8 O22 2.102787 1_545
Mn8 O14 2.214998 1_656
Mn8 O4 2.214998 1_545
Mn9 O44 1.898960 1_555
Mn9 O29 1.898960 1_555
Mn9 O20 2.102798 1_555
Mn9 O34 2.102798 1_555
Mn9 O5 2.214997 1_555
Mn9 O11 2.214997 1_555
Mn10 O43 1.898960 1_555
Mn10 O30 1.898960 1_555
Mn10 O33 2.102785 1_655
Mn10 O47 2.102785 1_555
Mn10 O6 2.214997 1_555
Mn10 O12 2.214997 1_555
Mn11 O31 1.898960 1_555
Mn11 O46 1.898960 1_555
Mn11 O17 2.102787 1_555
Mn11 O32 2.102787 1_545
Mn11 O9 2.215007 1_556
Mn11 O7 2.215007 1_555
Mn12 O27 1.966634 1_556
Mn12 O26 1.966647 1_556
Mn12 O5 1.996023 1_555
Mn12 O0 1.996036 1_555
Mn12 O20 2.276149 1_555
Mn12 O18 2.276165 1_555
Mn13 O29 1.966636 1_555
Mn13 O25 1.966636 1_555
Mn13 O3 1.996029 1_555
Mn13 O7 1.996029 1_555
Mn13 O21 2.276157 1_555
Mn13 O17 2.276157 1_555
Mn14 O30 1.966636 1_555
Mn14 O24 1.966636 1_555
Mn14 O2 1.996042 1_555
Mn14 O4 1.996042 1_555
Mn14 O16 2.276157 1_555
Mn14 O22 2.276157 1_555
Mn15 O31 1.966634 1_554
Mn15 O28 1.966647 1_554
Mn15 O1 1.996023 1_555
Mn15 O6 1.996036 1_555
Mn15 O23 2.276149 1_555
Mn15 O47 2.276165 1_555
Mn16 O42 1.966634 1_555
Mn16 O19 1.966647 1_555
Mn16 O11 1.996023 1_555
Mn16 O10 1.996036 1_555
Mn16 O34 2.276149 1_555
Mn16 O39 2.276165 1_555
Mn17 O44 1.966636 1_544
Mn17 O40 1.966636 1_545
Mn17 O9 1.996029 1_555
Mn17 O13 1.996029 1_554
Mn17 O36 2.276157 1_555
Mn17 O32 2.276157 1_544
Mn18 O43 1.966636 1_455
Mn18 O45 1.966636 1_454
Mn18 O14 1.996042 1_555
Mn18 O8 1.996042 1_554
Mn18 O37 2.276157 1_555
Mn18 O35 2.276157 1_454
Mn19 O46 1.966634 1_665
Mn19 O41 1.966647 1_665
Mn19 O15 1.996023 1_555
Mn19 O12 1.996036 1_555
Mn19 O38 2.276149 1_565
Mn19 O33 2.276165 1_655
Mn20 O3 1.971391 1_555
Mn20 O11 1.971392 1_555
Mn20 O43 2.019301 1_556
Mn20 O28 2.019301 1_555
Mn20 O47 2.289197 1_556
Mn20 O35 2.289208 1_555
Mn21 O9 1.971391 1_555
Mn21 O1 1.971392 1_555
Mn21 O24 2.019301 1_555
Mn21 O19 2.019301 1_555
Mn21 O39 2.289197 1_555
Mn21 O16 2.289208 1_555
Mn22 O14 1.971381 1_555
Mn22 O6 1.971392 1_455
Mn22 O42 2.019301 1_555
Mn22 O29 2.019301 1_555
Mn22 O21 2.289208 1_555
Mn22 O34 2.289209 1_555
Mn23 O4 1.971381 1_555
Mn23 O12 1.971392 1_555
Mn23 O44 2.019301 1_554
Mn23 O27 2.019301 1_555
Mn23 O36 2.289208 1_565
Mn23 O20 2.289209 1_554
Mn24 O9 2.195066 1_555
Mn24 O13 2.195066 1_554
Mn24 O14 2.195077 1_555
Mn24 O8 2.195077 1_554
Mn24 O46 2.513356 1_554
Mn24 O19 2.513356 1_555
Mn24 O41 2.513356 1_554
Mn24 O42 2.513356 1_555
Mn25 O15 2.195071 1_555
Mn25 O11 2.195071 1_554
Mn25 O10 2.195071 1_554
Mn25 O12 2.195071 1_555
Mn25 O43 2.513356 1_555
Mn25 O45 2.513356 1_554
Mn25 O44 2.513356 1_554
Mn25 O40 2.513356 1_555
Mn26 O0 2.195071 1_555
Mn26 O1 2.195071 1_455
Mn26 O6 2.195071 1_455
Mn26 O5 2.195071 1_555
Mn26 O30 2.513356 1_455
Mn26 O29 2.513356 1_555
Mn26 O24 2.513356 1_455
Mn26 O25 2.513356 1_555
Mn27 O3 2.195066 1_555
Mn27 O7 2.195066 1_555
Mn27 O4 2.195077 1_545
Mn27 O2 2.195077 1_545
Mn27 O27 2.513356 1_545
Mn27 O26 2.513356 1_545
Mn27 O31 2.513356 1_555
Mn27 O28 2.513356 1_555
O16 Si0 1.637158 1_555
O17 Si0 1.637158 1_556
O18 Si3 1.637163 1_566
O20 Si0 1.637152 1_556
O21 Si3 1.637158 1_555
O22 Si3 1.637158 1_666
O23 Si3 1.637152 1_655
O32 Si1 1.637158 1_555
O33 Si1 1.637163 1_555
O34 Si1 1.637152 1_555
O35 Si2 1.637158 1_555
O36 Si2 1.637158 1_555
O37 Si1 1.637158 1_555
O38 Si2 1.637152 1_555
O39 Si2 1.637163 1_555
O47 Si0 1.637163 1_555
