# generated using pymatgen
data_Na10HfGeAs6
_symmetry_space_group_name_H-M   'P 1'
_cell_length_a   7.51807354
_cell_length_b   8.33561544
_cell_length_c   16.00157430
_cell_angle_alpha   57.90451398
_cell_angle_beta   90.00000000
_cell_angle_gamma   90.00000000
_symmetry_Int_Tables_number   1
_chemical_formula_structural   Na10HfGeAs6
_chemical_formula_sum   'Na20 Hf2 Ge2 As12'
_cell_volume   849.52142055
_cell_formula_units_Z   2
loop_
 _symmetry_equiv_pos_site_id
 _symmetry_equiv_pos_as_xyz
  1  'x, y, z'
loop_
 _atom_site_type_symbol
 _atom_site_label
 _atom_site_symmetry_multiplicity
 _atom_site_fract_x
 _atom_site_fract_y
 _atom_site_fract_z
 _atom_site_occupancy
  Na  Na0  1  0.47977425  0.06613632  0.24734238  1
  Na  Na1  1  0.97977425  0.93386368  0.25265762  1
  Na  Na2  1  0.51376291  0.91888561  0.76101256  1
  Na  Na3  1  0.01376291  0.08111439  0.73898744  1
  Na  Na4  1  0.01935102  0.41939663  0.41980180  1
  Na  Na5  1  0.51935102  0.58060337  0.08019820  1
  Na  Na6  1  0.96719580  0.59376299  0.58438670  1
  Na  Na7  1  0.46719580  0.40623701  0.91561330  1
  Na  Na8  1  0.52289007  0.25387251  0.40870246  1
  Na  Na9  1  0.02289007  0.74612749  0.09129754  1
  Na  Na10  1  0.48593819  0.74548873  0.58886421  1
  Na  Na11  1  0.98593819  0.25451127  0.91113579  1
  Na  Na12  1  0.65508250  0.98928877  0.08407009  1
  Na  Na13  1  0.15508250  0.01071123  0.41592991  1
  Na  Na14  1  0.34354069  0.01015074  0.91861184  1
  Na  Na15  1  0.84354069  0.98984926  0.58138816  1
  Na  Na16  1  0.84618287  0.31636124  0.25640487  1
  Na  Na17  1  0.34618287  0.68363876  0.24359513  1
  Na  Na18  1  0.15591218  0.68068214  0.74164207  1
  Na  Na19  1  0.65591218  0.31931786  0.75835793  1
  Hf  Hf0  1  0.86607040  0.64918617  0.91988095  1
  Hf  Hf1  1  0.36607040  0.35081383  0.58011905  1
  Ge  Ge0  1  0.13740618  0.34495135  0.08410758  1
  Ge  Ge1  1  0.63740618  0.65504865  0.41589242  1
  As  As0  1  0.75857344  0.92639458  0.41907710  1
  As  As1  1  0.25857344  0.07360542  0.08092290  1
  As  As2  1  0.24034053  0.06591413  0.57768293  1
  As  As3  1  0.74034053  0.93408587  0.92231707  1
  As  As4  1  0.73096354  0.63458406  0.27514063  1
  As  As5  1  0.23096354  0.36541594  0.22485937  1
  As  As6  1  0.26696229  0.35692939  0.73171604  1
  As  As7  1  0.76696229  0.64307061  0.76828396  1
  As  As8  1  0.79900654  0.32232880  0.07627620  1
  As  As9  1  0.29900654  0.67767120  0.42372380  1
  As  As10  1  0.21104762  0.65980698  0.93081674  1
  As  As11  1  0.71104762  0.34019302  0.56918326  1
loop_
_geom_bond_atom_site_label_1
_geom_bond_atom_site_label_2
_geom_bond_distance
_geom_bond_site_symmetry_2
Ge0 Na1 3.255698 1_445
Ge1 Na0 3.255698 1_565
As0 Ge1 2.463900 1_555
As0 Na16 2.963844 1_565
As0 Na15 2.982162 1_555
As0 Na13 3.056986 1_665
As0 Na6 3.057941 1_555
As0 Na10 3.082672 1_555
As0 Na1 3.112025 1_555
As0 Na0 3.146468 1_565
As0 Na8 3.183866 1_565
As1 Ge0 2.463900 1_555
As1 Na17 2.963844 1_545
As1 Na14 2.982162 1_554
As1 Na12 3.056986 1_545
As1 Na7 3.057941 1_554
As1 Na11 3.082672 1_454
As1 Na0 3.112025 1_555
As1 Na1 3.146468 1_445
As1 Na9 3.183866 1_545
As2 Hf1 2.575486 1_555
As2 Na13 2.930451 1_555
As2 Na18 2.940229 1_545
As2 Na15 3.043828 1_445
As2 Na8 3.126744 1_555
As2 Na4 3.148687 1_555
As2 Na3 3.150787 1_555
As2 Na10 3.172916 1_545
As2 Na2 3.242339 1_545
As3 Hf0 2.575486 1_555
As3 Na12 2.930451 1_556
As3 Na19 2.940229 1_565
As3 Na14 3.043828 1_565
As3 Na9 3.126744 1_656
As3 Na5 3.148687 1_556
As3 Na2 3.150787 1_555
As3 Na11 3.172916 1_565
As3 Na3 3.242339 1_665
As4 Ge1 2.450456 1_555
As4 Na17 2.927629 1_555
As4 Na16 2.953220 1_555
As4 Na12 2.967991 1_555
As4 Na4 2.977280 1_655
As4 Na1 2.982982 1_555
As4 Na8 3.142967 1_555
As4 Na9 3.380645 1_655
As5 Ge0 2.450456 1_555
As5 Na16 2.927629 1_455
As5 Na17 2.953220 1_555
As5 Na13 2.967991 1_555
As5 Na5 2.977280 1_555
As5 Na0 2.982982 1_555
As5 Na9 3.142967 1_555
As5 Na8 3.380645 1_555
As6 Hf1 2.563912 1_555
As6 Na14 2.905941 1_555
As6 Na18 2.908714 1_555
As6 Na3 2.939159 1_555
As6 Na19 2.947656 1_555
As6 Na6 3.096514 1_455
As6 Na10 3.249332 1_555
As6 Na11 3.290989 1_455
As7 Hf0 2.563912 1_555
As7 Na15 2.905941 1_555
As7 Na19 2.908714 1_555
As7 Na2 2.939159 1_555
As7 Na18 2.947656 1_655
As7 Na7 3.096514 1_555
As7 Na11 3.249332 1_555
As7 Na10 3.290989 1_555
As8 Ge0 2.559080 1_655
As8 Hf0 2.587396 1_554
As8 Na16 2.878160 1_555
As8 Na12 2.919782 1_545
As8 Na5 3.033608 1_555
As8 Na1 3.253646 1_545
As8 Na11 3.296191 1_554
As8 Na7 3.377962 1_554
As8 Na0 3.406104 1_555
As9 Ge1 2.559080 1_555
As9 Hf1 2.587396 1_555
As9 Na17 2.878160 1_555
As9 Na13 2.919782 1_565
As9 Na4 3.033608 1_555
As9 Na0 3.253646 1_565
As9 Na10 3.296191 1_555
As9 Na6 3.377962 1_455
As9 Na1 3.406104 1_455
As10 Ge0 2.523931 1_556
As10 Hf0 2.604131 1_455
As10 Na7 2.963387 1_555
As10 Na18 2.967431 1_555
As10 Na14 2.992090 1_565
As10 Na5 3.137674 1_556
As10 Na2 3.315186 1_555
As10 Na9 3.328157 1_556
As10 Na3 3.535518 1_565
As11 Ge1 2.523931 1_555
As11 Hf1 2.604131 1_555
As11 Na6 2.963387 1_555
As11 Na19 2.967431 1_555
As11 Na15 2.992090 1_545
As11 Na4 3.137674 1_655
As11 Na3 3.315186 1_655
As11 Na8 3.328157 1_555
As11 Na2 3.535518 1_545
