# generated using pymatgen
data_Cs3FeSe2S
_symmetry_space_group_name_H-M   'P 1'
_cell_length_a   10.85878966
_cell_length_b   10.85879005
_cell_length_c   13.81940994
_cell_angle_alpha   90.00000000
_cell_angle_beta   90.00000000
_cell_angle_gamma   139.44832365
_symmetry_Int_Tables_number   1
_chemical_formula_structural   Cs3FeSe2S
_chemical_formula_sum   'Cs12 Fe4 Se8 S4'
_cell_volume   1059.38782219
_cell_formula_units_Z   4
loop_
 _symmetry_equiv_pos_site_id
 _symmetry_equiv_pos_as_xyz
  1  'x, y, z'
loop_
 _atom_site_type_symbol
 _atom_site_label
 _atom_site_symmetry_multiplicity
 _atom_site_fract_x
 _atom_site_fract_y
 _atom_site_fract_z
 _atom_site_occupancy
  Cs  Cs0  1  0.88774566  0.88774566  0.67953576  1
  Cs  Cs1  1  0.11225434  0.11225434  0.32046424  1
  Cs  Cs2  1  0.61225434  0.61225434  0.17953576  1
  Cs  Cs3  1  0.38774566  0.38774566  0.82046424  1
  Cs  Cs4  1  0.16658492  0.51974936  0.12600771  1
  Cs  Cs5  1  0.48025064  0.83341508  0.87399229  1
  Cs  Cs6  1  0.98025064  0.33341508  0.62600771  1
  Cs  Cs7  1  0.66658492  0.01974936  0.37399229  1
  Cs  Cs8  1  0.83341508  0.48025064  0.87399229  1
  Cs  Cs9  1  0.51974936  0.16658492  0.12600771  1
  Cs  Cs10  1  0.01974936  0.66658492  0.37399229  1
  Cs  Cs11  1  0.33341508  0.98025064  0.62600771  1
  Fe  Fe0  1  0.92386924  0.07613076  0.00000000  1
  Fe  Fe1  1  0.42386924  0.57613076  0.50000000  1
  Fe  Fe2  1  0.07613076  0.92386924  0.00000000  1
  Fe  Fe3  1  0.57613076  0.42386924  0.50000000  1
  Se  Se0  1  0.71122972  0.99847664  0.11707189  1
  Se  Se1  1  0.00152336  0.28877028  0.88292811  1
  Se  Se2  1  0.50152336  0.78877028  0.61707189  1
  Se  Se3  1  0.21122972  0.49847664  0.38292811  1
  Se  Se4  1  0.28877028  0.00152336  0.88292811  1
  Se  Se5  1  0.99847664  0.71122972  0.11707189  1
  Se  Se6  1  0.49847664  0.21122972  0.38292811  1
  Se  Se7  1  0.78877028  0.50152336  0.61707189  1
  S  S0  1  0.30334987  0.30334987  0.56683653  1
  S  S1  1  0.69665013  0.69665013  0.43316347  1
  S  S2  1  0.19665013  0.19665013  0.06683653  1
  S  S3  1  0.80334987  0.80334987  0.93316347  1
loop_
_geom_bond_atom_site_label_1
_geom_bond_atom_site_label_2
_geom_bond_distance
_geom_bond_site_symmetry_2
Cs0 S0 3.494139 1_665
Cs0 Se2 3.555199 1_555
Cs0 Se7 3.555199 1_555
Cs0 S3 3.562072 1_555
Cs0 S1 3.696011 1_555
Cs1 S1 3.494139 1_445
Cs1 Se6 3.555199 1_555
Cs1 Se3 3.555199 1_555
Cs1 S2 3.562072 1_555
Cs1 S0 3.696011 1_555
Cs2 S2 3.494139 1_555
Cs2 Se5 3.555199 1_555
Cs2 Se0 3.555199 1_555
Cs2 S1 3.562072 1_555
Cs2 S3 3.696011 1_554
Cs3 S3 3.494139 1_555
Cs3 Se1 3.555199 1_555
Cs3 Se4 3.555199 1_555
Cs3 S0 3.562072 1_555
Cs3 S2 3.696011 1_556
Cs4 Se3 3.614488 1_555
Cs4 Se5 3.665880 1_455
Cs4 Se1 3.735794 1_554
Cs4 Se0 3.737929 1_445
Cs4 S2 3.850350 1_555
Cs4 Se0 3.911001 1_555
Cs5 Se2 3.614488 1_555
Cs5 Se4 3.665880 1_565
Cs5 Se0 3.735794 1_556
Cs5 Se1 3.737929 1_665
Cs5 S3 3.850349 1_555
Cs5 Se1 3.911001 1_555
Cs6 Se1 3.614488 1_655
Cs6 Se7 3.665880 1_555
Cs6 Se3 3.735794 1_655
Cs6 Se2 3.737929 1_655
Cs6 S0 3.850349 1_655
Cs6 Se2 3.911001 1_545
Cs7 Se0 3.614488 1_545
Cs7 Se6 3.665880 1_555
Cs7 Se2 3.735794 1_545
Cs7 Se3 3.737929 1_545
Cs7 S1 3.850350 1_545
Cs7 Se3 3.911001 1_655
Cs8 Se7 3.614488 1_555
Cs8 Se1 3.665880 1_655
Cs8 Se5 3.735794 1_556
Cs8 Se4 3.737929 1_665
Cs8 S3 3.850350 1_555
Cs8 Se4 3.911001 1_555
Cs9 Se6 3.614488 1_555
Cs9 Se0 3.665880 1_545
Cs9 Se4 3.735794 1_554
Cs9 Se5 3.737929 1_445
Cs9 S2 3.850349 1_555
Cs9 Se5 3.911001 1_555
Cs10 Se5 3.614488 1_455
Cs10 Se3 3.665880 1_555
Cs10 Se7 3.735794 1_455
Cs10 Se6 3.737929 1_455
Cs10 S1 3.850349 1_455
Cs10 Se6 3.911001 1_565
Cs11 Se4 3.614488 1_565
Cs11 Se2 3.665880 1_555
Cs11 Se6 3.735794 1_565
Cs11 Se7 3.737929 1_565
Cs11 S0 3.850350 1_565
Cs11 Se7 3.911001 1_455
Fe0 S2 2.334278 1_655
Fe0 S3 2.334278 1_544
Fe0 Se0 2.387732 1_545
Fe0 Se1 2.387732 1_654
Fe1 S1 2.334278 1_555
Fe1 S0 2.334278 1_555
Fe1 Se3 2.387732 1_555
Fe1 Se2 2.387732 1_555
Fe2 S3 2.334278 1_454
Fe2 S2 2.334278 1_565
Fe2 Se4 2.387732 1_564
Fe2 Se5 2.387732 1_455
Fe3 S0 2.334278 1_555
Fe3 S1 2.334278 1_555
Fe3 Se7 2.387732 1_555
Fe3 Se6 2.387732 1_555
