# generated using pymatgen
data_Cs4TiReBr12
_symmetry_space_group_name_H-M   'P 1'
_cell_length_a   7.66867845
_cell_length_b   7.66853556
_cell_length_c   10.83295154
_cell_angle_alpha   90.00000000
_cell_angle_beta   90.00000000
_cell_angle_gamma   90.00000000
_symmetry_Int_Tables_number   1
_chemical_formula_structural   Cs4TiReBr12
_chemical_formula_sum   'Cs4 Ti1 Re1 Br12'
_cell_volume   637.05915924
_cell_formula_units_Z   1
loop_
 _symmetry_equiv_pos_site_id
 _symmetry_equiv_pos_as_xyz
  1  'x, y, z'
loop_
 _atom_site_type_symbol
 _atom_site_label
 _atom_site_symmetry_multiplicity
 _atom_site_fract_x
 _atom_site_fract_y
 _atom_site_fract_z
 _atom_site_occupancy
  Cs  Cs0  1  0.50000000  0.00000000  0.75025272  1
  Cs  Cs1  1  0.00000000  0.50000000  0.24975757  1
  Cs  Cs2  1  0.50000000  0.00000000  0.24974728  1
  Cs  Cs3  1  0.00000000  0.50000000  0.75024243  1
  Ti  Ti0  1  0.00000000  0.00000000  0.00000000  1
  Re  Re0  1  0.50000000  0.50000000  0.50000000  1
  Br  Br0  1  0.00000000  0.00000000  0.76726027  1
  Br  Br1  1  0.50000000  0.50000000  0.26629401  1
  Br  Br2  1  0.73345756  0.73347075  0.50000000  1
  Br  Br3  1  0.23272061  0.23276432  0.00000000  1
  Br  Br4  1  0.73345756  0.26652925  0.50000000  1
  Br  Br5  1  0.23272061  0.76723568  0.00000000  1
  Br  Br6  1  0.00000000  0.00000000  0.23273973  1
  Br  Br7  1  0.50000000  0.50000000  0.73370599  1
  Br  Br8  1  0.26654244  0.26652925  0.50000000  1
  Br  Br9  1  0.76727939  0.76723568  0.00000000  1
  Br  Br10  1  0.26654244  0.73347075  0.50000000  1
  Br  Br11  1  0.76727939  0.23276432  0.00000000  1
loop_
_geom_bond_atom_site_label_1
_geom_bond_atom_site_label_2
_geom_bond_distance
_geom_bond_site_symmetry_2
Br0 Ti0 2.521258 1_556
Br0 Cs3 3.838697 1_545
Br0 Cs3 3.838697 1_555
Br0 Cs0 3.838763 1_455
Br0 Cs0 3.838763 1_555
Br1 Re0 2.531726 1_555
Br1 Cs2 3.838455 1_565
Br1 Cs2 3.838455 1_555
Br1 Cs1 3.838522 1_655
Br1 Cs1 3.838522 1_555
Br2 Re0 2.531930 1_555
Br2 Cs2 3.838240 1_565
Br2 Cs0 3.838240 1_565
Br2 Cs3 3.838267 1_655
Br2 Cs1 3.838267 1_655
Br3 Ti0 2.524103 1_555
Br3 Cs1 3.834710 1_555
Br3 Cs3 3.834710 1_554
Br3 Cs0 3.834971 1_554
Br3 Cs2 3.834971 1_555
Br4 Re0 2.531930 1_555
Br4 Cs2 3.838240 1_555
Br4 Cs0 3.838240 1_555
Br4 Cs3 3.838267 1_655
Br4 Cs1 3.838267 1_655
Br5 Ti0 2.524103 1_565
Br5 Cs1 3.834710 1_555
Br5 Cs3 3.834710 1_554
Br5 Cs0 3.834971 1_564
Br5 Cs2 3.834971 1_565
Br6 Ti0 2.521258 1_555
Br6 Cs1 3.838697 1_555
Br6 Cs1 3.838697 1_545
Br6 Cs2 3.838763 1_555
Br6 Cs2 3.838763 1_455
Br7 Re0 2.531726 1_555
Br7 Cs0 3.838455 1_555
Br7 Cs0 3.838455 1_565
Br7 Cs3 3.838522 1_655
Br7 Cs3 3.838522 1_555
Br8 Re0 2.531930 1_555
Br8 Cs2 3.838240 1_555
Br8 Cs0 3.838240 1_555
Br8 Cs3 3.838267 1_555
Br8 Cs1 3.838267 1_555
Br9 Ti0 2.524103 1_665
Br9 Cs1 3.834710 1_655
Br9 Cs3 3.834710 1_654
Br9 Cs0 3.834971 1_564
Br9 Cs2 3.834971 1_565
Br10 Re0 2.531930 1_555
Br10 Cs2 3.838240 1_565
Br10 Cs0 3.838240 1_565
Br10 Cs3 3.838267 1_555
Br10 Cs1 3.838267 1_555
Br11 Ti0 2.524103 1_655
Br11 Cs1 3.834710 1_655
Br11 Cs3 3.834710 1_654
Br11 Cs2 3.834971 1_555
Br11 Cs0 3.834971 1_554
