# generated using pymatgen
data_CdAg10(SnO4)3
_symmetry_space_group_name_H-M   'P 1'
_cell_length_a   8.58834039
_cell_length_b   8.58833994
_cell_length_c   5.76827202
_cell_angle_alpha   70.26570084
_cell_angle_beta   70.26569405
_cell_angle_gamma   71.58069556
_symmetry_Int_Tables_number   1
_chemical_formula_structural   CdAg10(SnO4)3
_chemical_formula_sum   'Cd1 Ag10 Sn3 O12'
_cell_volume   367.03290823
_cell_formula_units_Z   1
loop_
 _symmetry_equiv_pos_site_id
 _symmetry_equiv_pos_as_xyz
  1  'x, y, z'
loop_
 _atom_site_type_symbol
 _atom_site_label
 _atom_site_symmetry_multiplicity
 _atom_site_fract_x
 _atom_site_fract_y
 _atom_site_fract_z
 _atom_site_occupancy
  Cd  Cd0  1  0.41529669  0.58470331  1.00000000  1
  Ag  Ag0  1  0.25136076  0.24720674  0.00668877  1
  Ag  Ag1  1  0.74801700  0.75183007  0.49208210  1
  Ag  Ag2  1  0.24816993  0.25198300  0.50791790  1
  Ag  Ag3  1  0.75279326  0.74863924  0.99331123  1
  Ag  Ag4  1  0.49983152  0.00257441  0.75149094  1
  Ag  Ag5  1  0.99742559  0.50016848  0.24850906  1
  Ag  Ag6  1  0.12873979  0.61410362  0.62732359  1
  Ag  Ag7  1  0.60212867  0.11075693  0.14180773  1
  Ag  Ag8  1  0.38589638  0.87126021  0.37267641  1
  Ag  Ag9  1  0.88924307  0.39787133  0.85819227  1
  Sn  Sn0  1  0.91642086  0.08357914  0.50000000  1
  Sn  Sn1  1  0.58630882  0.41369118  0.50000000  1
  Sn  Sn2  1  0.07906582  0.92093418  1.00000000  1
  O  O0  1  0.66562627  0.52418477  0.69283531  1
  O  O1  1  0.14270023  0.03460709  0.22175832  1
  O  O2  1  0.54745096  0.64365759  0.23086878  1
  O  O3  1  0.02651948  0.14977396  0.71778170  1
  O  O4  1  0.32468379  0.86705055  0.78936811  1
  O  O5  1  0.84445567  0.33285759  0.29371383  1
  O  O6  1  0.35634241  0.45254904  0.76913122  1
  O  O7  1  0.85022604  0.97348052  0.28221830  1
  O  O8  1  0.47581523  0.33437373  0.30716469  1
  O  O9  1  0.96539291  0.85729977  0.77824168  1
  O  O10  1  0.66714241  0.15554433  0.70628617  1
  O  O11  1  0.13294945  0.67531621  0.21063189  1
loop_
_geom_bond_atom_site_label_1
_geom_bond_atom_site_label_2
_geom_bond_distance
_geom_bond_site_symmetry_2
Cd0 O6 2.270956 1_555
Cd0 O2 2.270956 1_556
Cd0 O0 2.318383 1_555
Cd0 O8 2.318383 1_556
Cd0 O11 2.327722 1_556
Cd0 O4 2.327722 1_555
Ag0 O6 2.083084 1_554
Ag0 O1 2.123443 1_555
Ag1 O0 2.110929 1_555
Ag1 O7 2.154495 1_555
Ag2 O8 2.110929 1_555
Ag2 O3 2.154495 1_555
Ag3 O2 2.083084 1_556
Ag3 O9 2.123443 1_555
Ag4 O4 2.092339 1_545
Ag4 O10 2.137119 1_555
Ag5 O11 2.092339 1_655
Ag5 O5 2.137119 1_555
Ag6 O6 2.239333 1_555
Ag6 O11 2.270446 1_555
Ag6 O9 2.374841 1_455
Ag7 O8 2.235316 1_555
Ag7 O10 2.303644 1_554
Ag7 O7 2.349282 1_545
Ag8 O2 2.239333 1_555
Ag8 O4 2.270446 1_555
Ag8 O1 2.374841 1_565
Ag9 O0 2.235316 1_555
Ag9 O5 2.303644 1_556
Ag9 O3 2.349282 1_655
O0 Sn1 2.057880 1_555
O1 Sn0 2.088659 1_455
O1 Sn2 2.130873 1_544
O2 Sn1 2.070000 1_555
O3 Sn0 2.102273 1_455
O3 Sn2 2.119288 1_545
O4 Sn2 2.042579 1_555
O5 Sn0 2.078803 1_555
O5 Sn1 2.148682 1_555
O6 Sn1 2.070000 1_555
O7 Sn0 2.102273 1_565
O7 Sn2 2.119288 1_654
O8 Sn1 2.057880 1_555
O9 Sn0 2.088659 1_565
O9 Sn2 2.130873 1_655
O10 Sn0 2.078803 1_555
O10 Sn1 2.148682 1_555
O11 Sn2 2.042579 1_554
