# generated using pymatgen
data_Mn2GaGeRh4
_symmetry_space_group_name_H-M   'P 1'
_cell_length_a   7.37931064
_cell_length_b   7.37931063
_cell_length_c   7.37931207
_cell_angle_alpha   33.59590161
_cell_angle_beta   33.59589784
_cell_angle_gamma   33.59590925
_symmetry_Int_Tables_number   1
_chemical_formula_structural   Mn2GaGeRh4
_chemical_formula_sum   'Mn2 Ga1 Ge1 Rh4'
_cell_volume   109.59469291
_cell_formula_units_Z   1
loop_
 _symmetry_equiv_pos_site_id
 _symmetry_equiv_pos_as_xyz
  1  'x, y, z'
loop_
 _atom_site_type_symbol
 _atom_site_label
 _atom_site_symmetry_multiplicity
 _atom_site_fract_x
 _atom_site_fract_y
 _atom_site_fract_z
 _atom_site_occupancy
  Mn  Mn0  1  0.25155486  0.25155486  0.25155486  1
  Mn  Mn1  1  0.74844514  0.74844514  0.74844514  1
  Ga  Ga0  1  0.00000000  0.00000000  0.00000000  1
  Ge  Ge0  1  0.50000000  0.50000000  0.50000000  1
  Rh  Rh0  1  0.37632214  0.37632214  0.37632214  1
  Rh  Rh1  1  0.87374230  0.87374230  0.87374230  1
  Rh  Rh2  1  0.62367786  0.62367786  0.62367786  1
  Rh  Rh3  1  0.12625770  0.12625770  0.12625770  1
loop_
_geom_bond_atom_site_label_1
_geom_bond_atom_site_label_2
_geom_bond_distance
_geom_bond_site_symmetry_2
Mn0 Rh2 2.592157 1_554
Mn0 Rh2 2.592158 1_455
Mn0 Rh2 2.592158 1_545
Mn0 Rh0 2.603759 1_555
Mn0 Rh3 2.614817 1_555
Mn0 Rh1 2.631655 1_445
Mn0 Rh1 2.631656 1_544
Mn0 Rh1 2.631656 1_454
Mn1 Rh0 2.592157 1_556
Mn1 Rh0 2.592158 1_655
Mn1 Rh0 2.592158 1_565
Mn1 Rh2 2.603759 1_555
Mn1 Rh1 2.614817 1_555
Mn1 Rh3 2.631655 1_665
Mn1 Rh3 2.631656 1_566
Mn1 Rh3 2.631656 1_656
Ga0 Rh0 2.620846 1_554
Ga0 Rh2 2.620846 1_445
Ga0 Rh0 2.620847 1_455
Ga0 Rh2 2.620847 1_544
Ga0 Rh0 2.620847 1_545
Ga0 Rh2 2.620847 1_454
Ga0 Rh3 2.634863 1_555
Ga0 Rh1 2.634863 1_444
Ge0 Rh2 2.581024 1_555
Ge0 Rh0 2.581024 1_555
Ge0 Rh1 2.602908 1_554
Ge0 Rh3 2.602908 1_556
Ge0 Rh1 2.602909 1_455
Ge0 Rh3 2.602909 1_655
Ge0 Rh1 2.602909 1_545
Ge0 Rh3 2.602909 1_565
