# generated using pymatgen
data_KYB12
_symmetry_space_group_name_H-M   'P 1'
_cell_length_a   4.14883875
_cell_length_b   4.14883875
_cell_length_c   8.31156311
_cell_angle_alpha   90.00000000
_cell_angle_beta   90.00000000
_cell_angle_gamma   90.00000000
_symmetry_Int_Tables_number   1
_chemical_formula_structural   KYB12
_chemical_formula_sum   'K1 Y1 B12'
_cell_volume   143.06579687
_cell_formula_units_Z   1
loop_
 _symmetry_equiv_pos_site_id
 _symmetry_equiv_pos_as_xyz
  1  'x, y, z'
loop_
 _atom_site_type_symbol
 _atom_site_label
 _atom_site_symmetry_multiplicity
 _atom_site_fract_x
 _atom_site_fract_y
 _atom_site_fract_z
 _atom_site_occupancy
  K  K0  1  0.00000000  0.00000000  0.00000000  1
  Y  Y0  1  0.00000000  0.00000000  0.50000000  1
  B  B0  1  0.20175228  0.50000000  0.25527646  1
  B  B1  1  0.20175228  0.50000000  0.74472354  1
  B  B2  1  0.50000000  0.50000000  0.40176576  1
  B  B3  1  0.50000000  0.50000000  0.89641478  1
  B  B4  1  0.50000000  0.20175228  0.25527646  1
  B  B5  1  0.50000000  0.20175228  0.74472354  1
  B  B6  1  0.50000000  0.50000000  0.10358522  1
  B  B7  1  0.50000000  0.50000000  0.59823424  1
  B  B8  1  0.50000000  0.79824772  0.25527646  1
  B  B9  1  0.50000000  0.79824772  0.74472354  1
  B  B10  1  0.79824772  0.50000000  0.25527646  1
  B  B11  1  0.79824772  0.50000000  0.74472354  1
loop_
_geom_bond_atom_site_label_1
_geom_bond_atom_site_label_2
_geom_bond_distance
_geom_bond_site_symmetry_2
B0 B10 1.674075 1_455
B0 B2 1.735959 1_555
B0 B8 1.749922 1_555
B0 B4 1.749922 1_555
B0 B6 1.766553 1_555
B0 Y0 3.023433 1_565
B0 Y0 3.023433 1_555
B0 K0 3.083124 1_555
B0 K0 3.083124 1_565
B1 B11 1.674075 1_455
B1 B7 1.735959 1_555
B1 B9 1.749922 1_555
B1 B5 1.749922 1_555
B1 B3 1.766553 1_555
B1 Y0 3.023433 1_565
B1 Y0 3.023433 1_555
B1 K0 3.083124 1_566
B1 K0 3.083124 1_556
B2 B7 1.632960 1_555
B2 B8 1.735959 1_555
B2 B4 1.735959 1_555
B2 Y0 3.045172 1_565
B2 Y0 3.045172 1_665
B2 Y0 3.045172 1_555
B2 Y0 3.045172 1_655
B3 B6 1.721910 1_556
B3 B9 1.766553 1_555
B3 B5 1.766553 1_555
B3 K0 3.057397 1_566
B3 K0 3.057397 1_556
B3 K0 3.057397 1_666
B3 K0 3.057397 1_656
B4 B8 1.674075 1_545
B4 B6 1.766553 1_555
B4 Y0 3.023433 1_555
B4 Y0 3.023433 1_655
B4 K0 3.083124 1_555
B4 K0 3.083124 1_655
B5 B9 1.674075 1_545
B5 B7 1.735959 1_555
B5 Y0 3.023433 1_655
B5 Y0 3.023433 1_555
B5 K0 3.083124 1_556
B5 K0 3.083124 1_656
B6 B8 1.766553 1_555
B6 K0 3.057397 1_555
B6 K0 3.057397 1_655
B6 K0 3.057397 1_565
B6 K0 3.057397 1_665
B7 B9 1.735959 1_555
B7 Y0 3.045172 1_655
B7 Y0 3.045172 1_565
B7 Y0 3.045172 1_665
B7 Y0 3.045172 1_555
B8 Y0 3.023433 1_565
B8 Y0 3.023433 1_665
B8 K0 3.083124 1_665
B8 K0 3.083124 1_565
B9 Y0 3.023433 1_565
B9 Y0 3.023433 1_665
B9 K0 3.083124 1_566
B9 K0 3.083124 1_666
B10 B2 1.735959 1_555
B10 B8 1.749922 1_555
B10 B4 1.749922 1_555
B10 B6 1.766553 1_555
B10 Y0 3.023433 1_665
B10 Y0 3.023433 1_655
B10 K0 3.083124 1_665
B10 K0 3.083124 1_655
B11 B7 1.735959 1_555
B11 B9 1.749922 1_555
B11 B5 1.749922 1_555
B11 B3 1.766553 1_555
B11 Y0 3.023433 1_655
B11 Y0 3.023433 1_665
B11 K0 3.083124 1_656
B11 K0 3.083124 1_666
