# generated using pymatgen
data_Sr2In3SnPt2
_symmetry_space_group_name_H-M   'P 1'
_cell_length_a   6.05834498
_cell_length_b   6.05834545
_cell_length_c   7.78957913
_cell_angle_alpha   90.53584870
_cell_angle_beta   89.46414929
_cell_angle_gamma   136.38101827
_symmetry_Int_Tables_number   1
_chemical_formula_structural   Sr2In3SnPt2
_chemical_formula_sum   'Sr2 In3 Sn1 Pt2'
_cell_volume   197.22437576
_cell_formula_units_Z   1
loop_
 _symmetry_equiv_pos_site_id
 _symmetry_equiv_pos_as_xyz
  1  'x, y, z'
loop_
 _atom_site_type_symbol
 _atom_site_label
 _atom_site_symmetry_multiplicity
 _atom_site_fract_x
 _atom_site_fract_y
 _atom_site_fract_z
 _atom_site_occupancy
  Sr  Sr0  1  0.93751740  0.06248260  0.74954327  1
  Sr  Sr1  1  0.06237073  0.93762927  0.24907427  1
  In  In0  1  0.65160771  0.34839229  0.55186239  1
  In  In1  1  0.35153228  0.64846772  0.05403541  1
  In  In2  1  0.34620457  0.65379543  0.44820084  1
  Sn  Sn0  1  0.65199783  0.34800217  0.94631679  1
  Pt  Pt0  1  0.21657080  0.78342920  0.75523793  1
  Pt  Pt1  1  0.78219669  0.21780331  0.24572910  1
loop_
_geom_bond_atom_site_label_1
_geom_bond_atom_site_label_2
_geom_bond_distance
_geom_bond_site_symmetry_2
In0 Pt1 2.788205 1_555
In0 Pt0 2.851883 1_655
In0 Pt0 2.851883 1_545
In0 Sn0 3.072681 1_555
In0 Sr1 3.418264 1_545
In0 Sr1 3.418264 1_655
In0 Sr0 3.579894 1_555
In0 Sr0 3.628073 1_455
In0 Sr0 3.628074 1_565
In1 Pt0 2.791690 1_554
In1 Pt1 2.807263 1_455
In1 Pt1 2.807264 1_565
In1 In2 3.070364 1_555
In1 Sn0 3.293415 1_454
In1 Sn0 3.293415 1_564
In1 Sr0 3.403130 1_564
In1 Sr0 3.403130 1_454
In1 Sn0 3.474445 1_554
In1 Sr1 3.576310 1_555
In1 Sr1 3.615578 1_655
In1 Sr1 3.615578 1_545
In2 Pt0 2.788650 1_555
In2 Pt1 2.845162 1_455
In2 Pt1 2.845162 1_565
In2 Sr0 3.417579 1_565
In2 Sr0 3.417579 1_455
In2 Sr1 3.563815 1_555
In2 Sr1 3.648215 1_655
In2 Sr1 3.648216 1_545
Sn0 Sr1 3.405382 1_546
Sn0 Sr1 3.405383 1_656
Sn0 Sr0 3.544961 1_555
Sn0 Sr0 3.648503 1_455
Sn0 Sr0 3.648504 1_565
Pt0 Sn0 2.790595 1_455
Pt0 Sn0 2.790595 1_565
Pt0 Sr0 3.139952 1_465
Pt0 Sr0 3.353163 1_565
Pt0 Sr0 3.353163 1_455
Pt1 Sn0 2.766525 1_554
Pt1 Sr1 3.152168 1_645
Pt1 Sr1 3.343774 1_545
Pt1 Sr1 3.343775 1_655
