# generated using pymatgen
data_Hf16NbNi4Pd3
_symmetry_space_group_name_H-M   'P 1'
_cell_length_a   8.67617573
_cell_length_b   8.67617537
_cell_length_c   8.67617492
_cell_angle_alpha   59.55317751
_cell_angle_beta   59.55318215
_cell_angle_gamma   59.55318006
_symmetry_Int_Tables_number   1
_chemical_formula_structural   Hf16NbNi4Pd3
_chemical_formula_sum   'Hf16 Nb1 Ni4 Pd3'
_cell_volume   457.12563397
_cell_formula_units_Z   1
loop_
 _symmetry_equiv_pos_site_id
 _symmetry_equiv_pos_as_xyz
  1  'x, y, z'
loop_
 _atom_site_type_symbol
 _atom_site_label
 _atom_site_symmetry_multiplicity
 _atom_site_fract_x
 _atom_site_fract_y
 _atom_site_fract_z
 _atom_site_occupancy
  Hf  Hf0  1  0.70039107  0.09997550  0.09997550  1
  Hf  Hf1  1  0.09997550  0.70039107  0.09997550  1
  Hf  Hf2  1  0.09997550  0.09997550  0.70039107  1
  Hf  Hf3  1  0.11061823  0.11061823  0.11061823  1
  Hf  Hf4  1  0.31265027  0.31265027  0.67438214  1
  Hf  Hf5  1  0.68380823  0.68380823  0.31506869  1
  Hf  Hf6  1  0.31265027  0.67438214  0.31265027  1
  Hf  Hf7  1  0.68380823  0.31506869  0.68380823  1
  Hf  Hf8  1  0.67438214  0.31265027  0.31265027  1
  Hf  Hf9  1  0.31506869  0.68380823  0.68380823  1
  Hf  Hf10  1  0.94504276  0.94504276  0.55665857  1
  Hf  Hf11  1  0.55496486  0.55496486  0.94834593  1
  Hf  Hf12  1  0.94504276  0.55665857  0.94504276  1
  Hf  Hf13  1  0.55496486  0.94834593  0.55496486  1
  Hf  Hf14  1  0.55665857  0.94504276  0.94504276  1
  Hf  Hf15  1  0.94834593  0.55496486  0.55496486  1
  Nb  Nb0  1  0.32772025  0.32772025  0.32772025  1
  Ni  Ni0  1  0.32050981  0.89919318  0.89919318  1
  Ni  Ni1  1  0.89919318  0.32050981  0.89919318  1
  Ni  Ni2  1  0.89919318  0.89919318  0.32050981  1
  Ni  Ni3  1  0.89124309  0.89124309  0.89124309  1
  Pd  Pd0  1  0.98064656  0.34157302  0.34157302  1
  Pd  Pd1  1  0.34157302  0.98064656  0.34157302  1
  Pd  Pd2  1  0.34157302  0.34157302  0.98064656  1
loop_
_geom_bond_atom_site_label_1
_geom_bond_atom_site_label_2
_geom_bond_distance
_geom_bond_site_symmetry_2
Hf0 Ni3 2.558686 1_544
Hf0 Ni2 2.567543 1_545
Hf0 Ni1 2.567543 1_554
Hf0 Nb0 3.044711 1_555
Hf0 Hf8 3.076872 1_555
Hf0 Pd2 3.100171 1_554
Hf0 Pd1 3.100172 1_545
Hf0 Hf7 3.156905 1_554
Hf0 Hf5 3.156906 1_545
Hf1 Ni3 2.558686 1_454
Hf1 Ni2 2.567543 1_455
Hf1 Ni0 2.567543 1_554
Hf1 Nb0 3.044710 1_555
Hf1 Hf6 3.076872 1_555
Hf1 Pd0 3.100171 1_455
Hf1 Pd2 3.100171 1_554
Hf1 Hf9 3.156905 1_554
Hf1 Hf5 3.156906 1_455
Hf2 Ni3 2.558686 1_445
Hf2 Ni0 2.567543 1_545
Hf2 Ni1 2.567543 1_455
Hf2 Nb0 3.044710 1_555
Hf2 Hf4 3.076872 1_555
Hf2 Pd0 3.100171 1_455
Hf2 Pd1 3.100171 1_545
Hf2 Hf9 3.156906 1_545
Hf2 Hf7 3.156906 1_455
Hf3 Ni1 2.585584 1_454
Hf3 Ni0 2.585584 1_544
Hf3 Ni2 2.585584 1_445
Hf3 Pd1 2.965014 1_545
Hf3 Pd0 2.965014 1_455
Hf3 Pd2 2.965014 1_554
Hf3 Hf4 3.183813 1_554
Hf3 Hf6 3.183813 1_545
Hf3 Hf8 3.183814 1_455
Hf4 Nb0 2.881087 1_555
Hf4 Pd2 2.932926 1_555
Hf4 Ni0 3.077823 1_545
Hf4 Ni1 3.077824 1_455
Hf4 Hf6 3.117229 1_555
Hf4 Hf8 3.117229 1_555
Hf4 Hf9 3.273247 1_555
Hf4 Hf7 3.273247 1_555
Hf5 Pd0 2.767732 1_555
Hf5 Pd1 2.767732 1_555
Hf5 Ni3 3.141370 1_554
Hf5 Hf7 3.177618 1_555
Hf5 Hf9 3.177618 1_555
Hf5 Ni2 3.271761 1_555
Hf5 Hf8 3.273247 1_555
Hf5 Hf6 3.273247 1_555
Hf6 Nb0 2.881087 1_555
Hf6 Pd1 2.932926 1_555
Hf6 Ni0 3.077823 1_554
Hf6 Ni2 3.077824 1_455
Hf6 Hf8 3.117229 1_555
Hf6 Hf9 3.273247 1_555
Hf7 Pd0 2.767732 1_555
Hf7 Pd2 2.767732 1_555
Hf7 Ni3 3.141370 1_545
Hf7 Hf9 3.177618 1_555
Hf7 Ni1 3.271761 1_555
Hf7 Hf8 3.273247 1_555
Hf8 Nb0 2.881087 1_555
Hf8 Pd0 2.932926 1_555
Hf8 Ni1 3.077823 1_554
Hf8 Ni2 3.077824 1_545
Hf9 Pd1 2.767732 1_555
Hf9 Pd2 2.767732 1_555
Hf9 Ni3 3.141370 1_455
Hf9 Ni0 3.271761 1_555
Hf10 Ni2 2.515307 1_555
Hf10 Ni3 2.517328 1_555
Hf10 Pd0 3.065963 1_565
Hf10 Pd1 3.065964 1_655
Hf10 Hf3 3.150657 1_665
Hf10 Hf9 3.215839 1_655
Hf10 Hf7 3.215839 1_565
Hf10 Hf8 3.282302 1_565
Hf10 Hf6 3.282303 1_655
Hf11 Ni0 2.582765 1_555
Hf11 Ni1 2.582765 1_555
Hf11 Pd2 3.058817 1_555
Hf11 Nb0 3.064986 1_556
Hf11 Hf8 3.140159 1_556
Hf11 Hf6 3.140159 1_556
Hf11 Hf9 3.276091 1_555
Hf11 Hf7 3.276092 1_555
Hf12 Ni1 2.515307 1_555
Hf12 Ni3 2.517329 1_555
Hf12 Pd0 3.065963 1_556
Hf12 Pd2 3.065964 1_655
Hf12 Hf3 3.150657 1_656
Hf12 Hf5 3.215839 1_556
Hf12 Hf9 3.215839 1_655
Hf12 Hf8 3.282302 1_556
Hf12 Hf4 3.282303 1_655
Hf13 Ni0 2.582765 1_555
Hf13 Ni2 2.582765 1_555
Hf13 Pd1 3.058817 1_555
Hf13 Nb0 3.064986 1_565
Hf13 Hf8 3.140159 1_565
Hf13 Hf4 3.140159 1_565
Hf13 Hf5 3.276092 1_555
Hf13 Hf9 3.276092 1_555
Hf14 Ni0 2.515307 1_555
Hf14 Ni3 2.517329 1_555
Hf14 Pd1 3.065963 1_556
Hf14 Pd2 3.065963 1_565
Hf14 Hf3 3.150657 1_566
Hf14 Hf5 3.215839 1_556
Hf14 Hf7 3.215839 1_565
Hf14 Hf4 3.282302 1_565
Hf14 Hf6 3.282302 1_556
Hf15 Ni1 2.582765 1_555
Hf15 Ni2 2.582765 1_555
Hf15 Pd0 3.058817 1_555
Hf15 Nb0 3.064986 1_655
Hf15 Hf4 3.140159 1_655
Hf15 Hf6 3.140159 1_655
Hf15 Hf5 3.276092 1_555
Hf15 Hf7 3.276092 1_555
Nb0 Pd2 2.894424 1_554
Nb0 Pd1 2.894424 1_545
Nb0 Pd0 2.894424 1_455
Pd0 Pd1 3.110289 1_645
Pd0 Pd2 3.110289 1_654
Pd1 Pd2 3.110288 1_564
