# generated using pymatgen
data_Hf10Cu2(SnSb)3
_symmetry_space_group_name_H-M   'P 1'
_cell_length_a   8.52692778
_cell_length_b   8.52692828
_cell_length_c   5.75332290
_cell_angle_alpha   90.00000000
_cell_angle_beta   90.00000000
_cell_angle_gamma   119.99999430
_symmetry_Int_Tables_number   1
_chemical_formula_structural   Hf10Cu2(SnSb)3
_chemical_formula_sum   'Hf10 Cu2 Sn3 Sb3'
_cell_volume   362.27185966
_cell_formula_units_Z   1
loop_
 _symmetry_equiv_pos_site_id
 _symmetry_equiv_pos_as_xyz
  1  'x, y, z'
loop_
 _atom_site_type_symbol
 _atom_site_label
 _atom_site_symmetry_multiplicity
 _atom_site_fract_x
 _atom_site_fract_y
 _atom_site_fract_z
 _atom_site_occupancy
  Hf  Hf0  1  0.66666700  0.33333300  0.99841110  1
  Hf  Hf1  1  0.33333300  0.66666700  0.99841110  1
  Hf  Hf2  1  0.33333300  0.66666700  0.50158890  1
  Hf  Hf3  1  0.66666700  0.33333300  0.50158890  1
  Hf  Hf4  1  0.73428688  0.73428688  0.75000000  1
  Hf  Hf5  1  0.26571312  0.00000000  0.75000000  1
  Hf  Hf6  1  0.00000000  0.26571312  0.75000000  1
  Hf  Hf7  1  0.25584484  0.25584484  0.25000000  1
  Hf  Hf8  1  0.74415516  0.00000000  0.25000000  1
  Hf  Hf9  1  0.00000000  0.74415516  0.25000000  1
  Cu  Cu0  1  0.00000000  0.00000000  0.51413876  1
  Cu  Cu1  1  0.00000000  0.00000000  0.98586124  1
  Sn  Sn0  1  0.38457904  0.38457904  0.75000000  1
  Sn  Sn1  1  0.61542096  0.00000000  0.75000000  1
  Sn  Sn2  1  0.00000000  0.61542096  0.75000000  1
  Sb  Sb0  1  0.60934222  0.60934222  0.25000000  1
  Sb  Sb1  1  0.39065778  0.00000000  0.25000000  1
  Sb  Sb2  1  0.00000000  0.39065778  0.25000000  1
loop_
_geom_bond_atom_site_label_1
_geom_bond_atom_site_label_2
_geom_bond_distance
_geom_bond_site_symmetry_2
Hf0 Sb2 3.003911 1_656
Hf0 Sb1 3.003914 1_556
Hf0 Sb0 3.003918 1_556
Hf0 Sn1 3.011682 1_555
Hf0 Sn2 3.011685 1_655
Hf0 Sn0 3.011689 1_555
Hf1 Sb1 3.003911 1_566
Hf1 Sb2 3.003914 1_556
Hf1 Sb0 3.003918 1_556
Hf1 Sn2 3.011682 1_555
Hf1 Sn1 3.011685 1_565
Hf1 Sn0 3.011689 1_555
Hf2 Sb1 3.003911 1_565
Hf2 Sb2 3.003914 1_555
Hf2 Sb0 3.003918 1_555
Hf2 Sn2 3.011682 1_555
Hf2 Sn1 3.011685 1_565
Hf2 Sn0 3.011689 1_555
Hf3 Sb2 3.003911 1_655
Hf3 Sb1 3.003914 1_555
Hf3 Sb0 3.003918 1_555
Hf3 Sn1 3.011682 1_555
Hf3 Sn2 3.011685 1_655
Hf3 Sn0 3.011689 1_555
Hf4 Sn2 2.908130 1_655
Hf4 Sn1 2.908130 1_565
Hf4 Sn0 2.981934 1_555
Hf4 Sb0 3.067612 1_555
Hf4 Sb0 3.067612 1_556
Hf5 Sn0 2.908130 1_555
Hf5 Sn2 2.908130 1_545
Hf5 Sn1 2.981934 1_555
Hf5 Sb1 3.067612 1_556
Hf5 Sb1 3.067612 1_555
Hf6 Sn0 2.908130 1_555
Hf6 Sn1 2.908130 1_455
Hf6 Sn2 2.981934 1_555
Hf6 Sb2 3.067612 1_555
Hf6 Sb2 3.067612 1_556
Hf7 Sb2 2.930613 1_555
Hf7 Sb1 2.930614 1_555
Hf7 Sb0 3.014247 1_555
Hf7 Sn0 3.078984 1_555
Hf7 Sn0 3.078984 1_554
Hf8 Sb0 2.930614 1_545
Hf8 Sb2 2.930614 1_655
Hf8 Sb1 3.014247 1_555
Hf8 Sn1 3.078984 1_555
Hf8 Sn1 3.078984 1_554
Hf9 Sb0 2.930614 1_455
Hf9 Sb1 2.930614 1_565
Hf9 Sb2 3.014247 1_555
Hf9 Sn2 3.078984 1_554
Hf9 Sn2 3.078984 1_555
Cu0 Hf5 2.641000 1_555
Cu0 Hf6 2.641000 1_555
Cu0 Hf4 2.641000 1_445
Cu0 Hf8 2.658696 1_455
Cu0 Hf9 2.658696 1_545
Cu0 Hf7 2.658696 1_555
Cu1 Hf5 2.641000 1_555
Cu1 Hf6 2.641000 1_555
Cu1 Hf4 2.641000 1_445
Cu1 Hf8 2.658696 1_456
Cu1 Hf9 2.658696 1_546
Cu1 Hf7 2.658696 1_556
