# generated using pymatgen
data_HfGaIr3S8
_symmetry_space_group_name_H-M   'P 1'
_cell_length_a   6.92043086
_cell_length_b   6.92043006
_cell_length_c   6.92043031
_cell_angle_alpha   62.36652643
_cell_angle_beta   62.36653064
_cell_angle_gamma   62.36652268
_symmetry_Int_Tables_number   1
_chemical_formula_structural   HfGaIr3S8
_chemical_formula_sum   'Hf1 Ga1 Ir3 S8'
_cell_volume   246.73262477
_cell_formula_units_Z   1
loop_
 _symmetry_equiv_pos_site_id
 _symmetry_equiv_pos_as_xyz
  1  'x, y, z'
loop_
 _atom_site_type_symbol
 _atom_site_label
 _atom_site_symmetry_multiplicity
 _atom_site_fract_x
 _atom_site_fract_y
 _atom_site_fract_z
 _atom_site_occupancy
  Hf  Hf0  1  0.59754965  0.59754965  0.59754965  1
  Ga  Ga0  1  0.01074631  0.01074631  0.01074631  1
  Ir  Ir0  1  0.62569445  0.62569445  0.13771203  1
  Ir  Ir1  1  0.62569445  0.13771203  0.62569445  1
  Ir  Ir2  1  0.13771203  0.62569445  0.62569445  1
  S  S0  1  0.36028455  0.36028455  0.87749395  1
  S  S1  1  0.36028455  0.87749395  0.36028455  1
  S  S2  1  0.87749395  0.36028455  0.36028455  1
  S  S3  1  0.38971476  0.38971476  0.38971476  1
  S  S4  1  0.86649922  0.86649922  0.41316505  1
  S  S5  1  0.86649922  0.41316505  0.86649922  1
  S  S6  1  0.41316505  0.86649922  0.86649922  1
  S  S7  1  0.86865782  0.86865782  0.86865782  1
loop_
_geom_bond_atom_site_label_1
_geom_bond_atom_site_label_2
_geom_bond_distance
_geom_bond_site_symmetry_2
Hf0 S1 2.396817 1_555
Hf0 S2 2.396817 1_555
Hf0 S0 2.396817 1_555
Hf0 S6 2.713673 1_555
Hf0 S5 2.713673 1_555
Hf0 S4 2.713673 1_555
Ga0 S5 2.348498 1_454
Ga0 S4 2.348498 1_445
Ga0 S6 2.348498 1_544
Ga0 S7 2.364636 1_444
Ir0 S3 2.359116 1_555
Ir0 S2 2.383086 1_555
Ir0 S1 2.383086 1_555
Ir0 S6 2.418433 1_554
Ir0 S5 2.418433 1_554
Ir0 S7 2.436276 1_554
Ir1 S3 2.359116 1_555
Ir1 S0 2.383086 1_555
Ir1 S2 2.383086 1_555
Ir1 S4 2.418433 1_545
Ir1 S6 2.418433 1_545
Ir1 S7 2.436276 1_545
Ir2 S3 2.359116 1_555
Ir2 S0 2.383086 1_555
Ir2 S1 2.383086 1_555
Ir2 S4 2.418433 1_455
Ir2 S5 2.418433 1_455
Ir2 S7 2.436276 1_455
