# generated using pymatgen
data_Ti12Ga3Cu9O4
_symmetry_space_group_name_H-M   'P 1'
_cell_length_a   7.95109103
_cell_length_b   7.95109074
_cell_length_c   7.95109188
_cell_angle_alpha   59.93631819
_cell_angle_beta   59.93631876
_cell_angle_gamma   59.93631785
_symmetry_Int_Tables_number   1
_chemical_formula_structural   Ti12Ga3Cu9O4
_chemical_formula_sum   'Ti12 Ga3 Cu9 O4'
_cell_volume   354.92571065
_cell_formula_units_Z   1
loop_
 _symmetry_equiv_pos_site_id
 _symmetry_equiv_pos_as_xyz
  1  'x, y, z'
loop_
 _atom_site_type_symbol
 _atom_site_label
 _atom_site_symmetry_multiplicity
 _atom_site_fract_x
 _atom_site_fract_y
 _atom_site_fract_z
 _atom_site_occupancy
  Ti  Ti0  1  0.93620832  0.56450413  0.56450413  1
  Ti  Ti1  1  0.68549587  0.31379168  0.68549587  1
  Ti  Ti2  1  0.93642364  0.56238988  0.93642364  1
  Ti  Ti3  1  0.56238988  0.93642364  0.93642364  1
  Ti  Ti4  1  0.31357636  0.68761012  0.31357636  1
  Ti  Ti5  1  0.56450413  0.93620832  0.56450413  1
  Ti  Ti6  1  0.68549587  0.68549587  0.31379168  1
  Ti  Ti7  1  0.93642364  0.93642364  0.56238988  1
  Ti  Ti8  1  0.31357636  0.31357636  0.68761012  1
  Ti  Ti9  1  0.68761012  0.31357636  0.31357636  1
  Ti  Ti10  1  0.56450413  0.56450413  0.93620832  1
  Ti  Ti11  1  0.31379168  0.68549587  0.68549587  1
  Ga  Ga0  1  0.12500000  0.62500000  0.12500000  1
  Ga  Ga1  1  0.12500000  0.12500000  0.62500000  1
  Ga  Ga2  1  0.62500000  0.12500000  0.12500000  1
  Cu  Cu0  1  0.25216005  0.91685762  0.91685762  1
  Cu  Cu1  1  0.33498664  0.33498664  0.33498664  1
  Cu  Cu2  1  0.33314238  0.33314238  0.99783995  1
  Cu  Cu3  1  0.91685762  0.25216005  0.91685762  1
  Cu  Cu4  1  0.91501336  0.91501336  0.91501336  1
  Cu  Cu5  1  0.99783995  0.33314238  0.33314238  1
  Cu  Cu6  1  0.91685762  0.91685762  0.25216005  1
  Cu  Cu7  1  0.33314238  0.99783995  0.33314238  1
  Cu  Cu8  1  0.12500000  0.12500000  0.12500000  1
  O  O0  1  0.62500000  0.12500000  0.62500000  1
  O  O1  1  0.62500000  0.62500000  0.12500000  1
  O  O2  1  0.12500000  0.62500000  0.62500000  1
  O  O3  1  0.62500000  0.62500000  0.62500000  1
loop_
_geom_bond_atom_site_label_1
_geom_bond_atom_site_label_2
_geom_bond_distance
_geom_bond_site_symmetry_2
Ga0 Ti10 2.912046 1_554
Ga0 Ti6 2.912046 1_455
Ga0 Ti0 2.912046 1_455
Ga0 Ti11 2.912046 1_554
Ga0 Ti4 2.914166 1_555
Ga0 Ti2 2.914166 1_454
Ga1 Ti0 2.912046 1_455
Ga1 Ti11 2.912046 1_545
Ga1 Ti5 2.912046 1_545
Ga1 Ti1 2.912046 1_455
Ga1 Ti8 2.914166 1_555
Ga1 Ti7 2.914166 1_445
Ga2 Ti10 2.912046 1_554
Ga2 Ti6 2.912046 1_545
Ga2 Ti5 2.912046 1_545
Ga2 Ti1 2.912046 1_554
Ga2 Ti9 2.914166 1_555
Ga2 Ti3 2.914166 1_544
Cu0 Cu8 2.427182 1_566
Cu0 Ga0 2.443906 1_556
Cu0 Ga1 2.443906 1_565
Cu0 Ti3 2.631740 1_555
Cu0 Ti10 2.649554 1_555
Cu0 Ti5 2.649554 1_555
Cu0 Cu3 2.663453 1_465
Cu0 Cu6 2.663454 1_456
Cu0 Cu4 2.695456 1_455
Cu0 Ti8 2.898558 1_565
Cu0 Ti4 2.898558 1_556
Cu0 Ti11 2.931279 1_555
Cu1 Ga1 2.443503 1_555
Cu1 Ga0 2.443503 1_555
Cu1 Ga2 2.443503 1_555
Cu1 Ti4 2.644151 1_555
Cu1 Ti9 2.644151 1_555
Cu1 Ti8 2.644151 1_555
Cu1 Cu7 2.695456 1_545
Cu1 Cu5 2.695456 1_455
Cu1 Cu2 2.695456 1_554
Cu1 Ti5 2.907914 1_545
Cu1 Ti0 2.907914 1_455
Cu1 Ti10 2.907914 1_554
Cu2 Cu8 2.427182 1_556
Cu2 Ga0 2.443906 1_556
Cu2 Ga2 2.443906 1_556
Cu2 Ti8 2.631740 1_555
Cu2 Ti11 2.649554 1_555
Cu2 Ti1 2.649554 1_555
Cu2 Cu7 2.663454 1_546
Cu2 Cu5 2.663454 1_456
Cu2 Ti3 2.898558 1_545
Cu2 Ti2 2.898558 1_455
Cu2 Ti10 2.931279 1_555
Cu3 Cu8 2.427182 1_656
Cu3 Ga2 2.443906 1_556
Cu3 Ga1 2.443906 1_655
Cu3 Ti2 2.631740 1_555
Cu3 Ti10 2.649554 1_555
Cu3 Ti0 2.649554 1_555
Cu3 Cu6 2.663454 1_546
Cu3 Cu4 2.695456 1_545
Cu3 Ti8 2.898558 1_655
Cu3 Ti9 2.898558 1_556
Cu3 Ti1 2.931279 1_555
Cu4 Ga1 2.443503 1_665
Cu4 Ga0 2.443503 1_656
Cu4 Ga2 2.443503 1_566
Cu4 Ti2 2.644151 1_555
Cu4 Ti3 2.644151 1_555
Cu4 Ti7 2.644151 1_555
Cu4 Cu6 2.695456 1_556
Cu4 Ti1 2.907914 1_565
Cu4 Ti11 2.907914 1_655
Cu4 Ti6 2.907914 1_556
Cu5 Cu8 2.427182 1_655
Cu5 Ga0 2.443906 1_655
Cu5 Ga1 2.443906 1_655
Cu5 Ti9 2.631740 1_555
Cu5 Ti6 2.649554 1_555
Cu5 Ti1 2.649554 1_555
Cu5 Cu7 2.663453 1_645
Cu5 Ti7 2.898558 1_545
Cu5 Ti2 2.898558 1_554
Cu5 Ti0 2.931279 1_555
Cu6 Cu8 2.427182 1_665
Cu6 Ga0 2.443906 1_655
Cu6 Ga2 2.443906 1_565
Cu6 Ti7 2.631740 1_555
Cu6 Ti0 2.649554 1_555
Cu6 Ti5 2.649554 1_555
Cu6 Ti9 2.898558 1_565
Cu6 Ti4 2.898558 1_655
Cu6 Ti6 2.931279 1_555
Cu7 Cu8 2.427182 1_565
Cu7 Ga2 2.443906 1_565
Cu7 Ga1 2.443906 1_565
Cu7 Ti4 2.631740 1_555
Cu7 Ti6 2.649554 1_555
Cu7 Ti11 2.649554 1_555
Cu7 Ti7 2.898558 1_455
Cu7 Ti3 2.898558 1_554
Cu7 Ti5 2.931279 1_555
Cu8 Ti2 2.897311 1_454
Cu8 Ti4 2.897311 1_545
Cu8 Ti3 2.897311 1_544
Cu8 Ti9 2.897311 1_455
Cu8 Ti7 2.897311 1_445
Cu8 Ti8 2.897311 1_554
O0 Ti1 2.096357 1_555
O0 Ti5 2.096357 1_545
O0 Ti7 2.102448 1_545
O0 Ti8 2.102448 1_555
O0 Ti3 2.102448 1_545
O0 Ti9 2.102448 1_555
O1 Ti6 2.096358 1_555
O1 Ti10 2.096358 1_554
O1 Ti3 2.102448 1_554
O1 Ti9 2.102448 1_555
O1 Ti4 2.102448 1_555
O1 Ti2 2.102448 1_554
O2 Ti11 2.096357 1_555
O2 Ti0 2.096357 1_455
O2 Ti7 2.102448 1_455
O2 Ti8 2.102448 1_555
O2 Ti2 2.102448 1_455
O2 Ti4 2.102448 1_555
O3 Ti5 2.105325 1_555
O3 Ti1 2.105325 1_555
O3 Ti0 2.105325 1_555
O3 Ti11 2.105325 1_555
O3 Ti10 2.105326 1_555
O3 Ti6 2.105326 1_555
