# generated using pymatgen
data_Zr6Zn21Ni2Ge
_symmetry_space_group_name_H-M   'P 1'
_cell_length_a   8.69064480
_cell_length_b   8.62369552
_cell_length_c   8.62369533
_cell_angle_alpha   60.01335636
_cell_angle_beta   59.74285537
_cell_angle_gamma   59.74285125
_symmetry_Int_Tables_number   1
_chemical_formula_structural   Zr6Zn21Ni2Ge
_chemical_formula_sum   'Zr6 Zn21 Ni2 Ge1'
_cell_volume   455.26924394
_cell_formula_units_Z   1
loop_
 _symmetry_equiv_pos_site_id
 _symmetry_equiv_pos_as_xyz
  1  'x, y, z'
loop_
 _atom_site_type_symbol
 _atom_site_label
 _atom_site_symmetry_multiplicity
 _atom_site_fract_x
 _atom_site_fract_y
 _atom_site_fract_z
 _atom_site_occupancy
  Zr  Zr0  1  0.71567406  0.28432594  0.28432594  1
  Zr  Zr1  1  0.28432594  0.71567406  0.71567406  1
  Zr  Zr2  1  0.28635606  0.71072324  0.28927676  1
  Zr  Zr3  1  0.71364394  0.28927676  0.71072324  1
  Zr  Zr4  1  0.28635606  0.28927676  0.71072324  1
  Zr  Zr5  1  0.71364394  0.71072324  0.28927676  1
  Zn  Zn0  1  0.11989308  0.11912454  0.11912454  1
  Zn  Zn1  1  0.88010692  0.88087546  0.88087546  1
  Zn  Zn2  1  0.11533109  0.13117456  0.63816425  1
  Zn  Zn3  1  0.11533109  0.63816425  0.13117456  1
  Zn  Zn4  1  0.88466891  0.86882544  0.36183575  1
  Zn  Zn5  1  0.88466891  0.36183575  0.86882544  1
  Zn  Zn6  1  0.64185884  0.11912454  0.11912454  1
  Zn  Zn7  1  0.35814116  0.88087546  0.88087546  1
  Zn  Zn8  1  0.50000000  0.00000000  0.00000000  1
  Zn  Zn9  1  0.00000000  0.50000000  0.00000000  1
  Zn  Zn10  1  0.50000000  0.00000000  0.50000000  1
  Zn  Zn11  1  0.00000000  0.00000000  0.50000000  1
  Zn  Zn12  1  0.50000000  0.50000000  0.00000000  1
  Zn  Zn13  1  0.32691233  0.33689409  0.33689409  1
  Zn  Zn14  1  0.67308767  0.66310591  0.66310591  1
  Zn  Zn15  1  0.33249616  0.33452070  0.00048798  1
  Zn  Zn16  1  0.33249616  0.00048798  0.33452070  1
  Zn  Zn17  1  0.66750384  0.66547930  0.99951202  1
  Zn  Zn18  1  0.66750384  0.99951202  0.66547930  1
  Zn  Zn19  1  0.99929949  0.33689409  0.33689409  1
  Zn  Zn20  1  0.00070051  0.66310591  0.66310591  1
  Ni  Ni0  1  0.00000000  0.50000000  0.50000000  1
  Ni  Ni1  1  0.00000000  0.00000000  0.00000000  1
  Ge  Ge0  1  0.50000000  0.50000000  0.50000000  1
loop_
_geom_bond_atom_site_label_1
_geom_bond_atom_site_label_2
_geom_bond_distance
_geom_bond_site_symmetry_2
Zn0 Zn9 2.680716 1_555
Zn0 Zn11 2.680716 1_555
Zn0 Zn8 2.690370 1_555
Zn0 Zn16 2.750448 1_555
Zn0 Zn15 2.750449 1_555
Zn0 Zn19 2.776765 1_455
Zn0 Zr0 2.888185 1_455
Zn0 Zn7 2.893986 1_544
Zn0 Zr2 2.913547 1_545
Zn0 Zr4 2.913547 1_554
Zn0 Zn5 2.972837 1_454
Zn0 Zn4 2.972837 1_445
Zn1 Zn9 2.680716 1_656
Zn1 Zn11 2.680716 1_665
Zn1 Zn8 2.690370 1_566
Zn1 Zn18 2.750448 1_555
Zn1 Zn17 2.750449 1_555
Zn1 Zn20 2.776765 1_655
Zn1 Zr1 2.888185 1_655
Zn1 Zn6 2.893986 1_566
Zn1 Zr3 2.913547 1_565
Zn1 Zr5 2.913547 1_556
Zn1 Zn3 2.972837 1_656
Zn1 Zn2 2.972837 1_665
Zn2 Zn5 2.801817 1_455
Zn2 Zr4 2.879558 1_555
Zn2 Zr3 2.879565 1_455
Zn2 Zr1 2.955444 1_545
Zn2 Zn7 2.972825 1_545
Zn3 Zn9 2.719793 1_555
Zn3 Zn4 2.801817 1_455
Zn3 Zr2 2.879557 1_555
Zn3 Zr5 2.879565 1_455
Zn3 Zr1 2.955444 1_554
Zn3 Zn7 2.972825 1_554
Zn4 Zr5 2.879558 1_555
Zn4 Zr2 2.879565 1_655
Zn4 Zr0 2.955444 1_565
Zn4 Zn6 2.972825 1_565
Zn5 Zn9 2.719793 1_656
Zn5 Zr3 2.879557 1_555
Zn5 Zr4 2.879565 1_655
Zn5 Zr0 2.955444 1_556
Zn5 Zn6 2.972825 1_556
Zn6 Zn8 2.690377 1_555
Zn6 Zr0 2.888179 1_555
Zn6 Zr5 2.913548 1_545
Zn6 Zr3 2.913548 1_554
Zn7 Zn8 2.690377 1_566
Zn7 Zr1 2.888179 1_555
Zn7 Zr4 2.913548 1_565
Zn7 Zr2 2.913548 1_556
Zn8 Zr5 3.110155 1_545
Zn8 Zr4 3.110155 1_554
Zn8 Zr3 3.110155 1_554
Zn8 Zr2 3.110155 1_545
Zn9 Zr5 3.071854 1_455
Zn9 Zr4 3.071854 1_554
Zn9 Zr1 3.089368 1_554
Zn9 Zr0 3.089368 1_455
Zn10 Zn18 2.497379 1_545
Zn10 Zn16 2.497379 1_555
Zn10 Zn13 2.514969 1_555
Zn10 Zn14 2.514969 1_545
Zn10 Zn7 2.680716 1_545
Zn10 Zn6 2.680716 1_555
Zn10 Zn4 2.719786 1_545
Zn10 Zn2 2.719786 1_555
Zn10 Zr4 3.071854 1_555
Zn10 Zr5 3.071854 1_545
Zn10 Zr0 3.089368 1_555
Zn10 Zr1 3.089368 1_545
Zn11 Zn16 2.497386 1_555
Zn11 Zn18 2.497386 1_445
Zn11 Zn19 2.514969 1_455
Zn11 Zn20 2.514969 1_545
Zn11 Zn2 2.719793 1_555
Zn11 Zn4 2.719793 1_445
Zn11 Zr3 3.071854 1_455
Zn11 Zr2 3.071854 1_545
Zn11 Zr1 3.089367 1_545
Zn11 Zr0 3.089367 1_455
Zn12 Zn17 2.497379 1_554
Zn12 Zn15 2.497379 1_555
Zn12 Zn13 2.514969 1_555
Zn12 Zn14 2.514969 1_554
Zn12 Zn7 2.680716 1_554
Zn12 Zn6 2.680716 1_555
Zn12 Zn5 2.719786 1_554
Zn12 Zn3 2.719786 1_555
Zn12 Zr2 3.071854 1_555
Zn12 Zr3 3.071854 1_554
Zn12 Zr0 3.089367 1_555
Zn12 Zr1 3.089367 1_554
Zn13 Zn3 2.672854 1_555
Zn13 Zn2 2.672854 1_555
Zn13 Zn6 2.776768 1_555
Zn13 Zn19 2.847167 1_455
Zn13 Zn15 2.887113 1_555
Zn13 Zn16 2.887113 1_555
Zn13 Zr4 2.891915 1_555
Zn13 Zr2 2.891915 1_555
Zn13 Zr0 2.990701 1_555
Zn14 Zn5 2.672854 1_555
Zn14 Zn4 2.672854 1_555
Zn14 Zn7 2.776768 1_555
Zn14 Zn20 2.847167 1_655
Zn14 Zn17 2.887113 1_555
Zn14 Zn18 2.887113 1_555
Zn14 Zr5 2.891915 1_555
Zn14 Zr3 2.891915 1_555
Zn14 Zr1 2.990701 1_555
Zn15 Zn8 2.493016 1_555
Zn15 Zn9 2.497386 1_555
Zn15 Zn3 2.741314 1_555
Zn15 Zn6 2.750448 1_555
Zn15 Zn16 2.881178 1_555
Zn15 Zn19 2.887118 1_455
Zn15 Zr1 2.931123 1_554
Zn15 Zr3 2.949447 1_554
Zn15 Zr4 2.949452 1_554
Zn16 Zn8 2.493016 1_555
Zn16 Zn2 2.741314 1_555
Zn16 Zn6 2.750449 1_555
Zn16 Zn19 2.887118 1_455
Zn16 Zr1 2.931123 1_545
Zn16 Zr5 2.949447 1_545
Zn16 Zr2 2.949452 1_545
Zn17 Zn8 2.493016 1_566
Zn17 Zn9 2.497386 1_656
Zn17 Zn5 2.741314 1_555
Zn17 Zn7 2.750448 1_555
Zn17 Zn18 2.881178 1_555
Zn17 Zn20 2.887118 1_655
Zn17 Zr0 2.931123 1_556
Zn17 Zr2 2.949447 1_556
Zn17 Zr5 2.949452 1_556
Zn18 Zn8 2.493016 1_566
Zn18 Zn4 2.741314 1_555
Zn18 Zn7 2.750449 1_555
Zn18 Zn20 2.887118 1_655
Zn18 Zr0 2.931123 1_565
Zn18 Zr4 2.949447 1_565
Zn18 Zr3 2.949452 1_565
Zn19 Zn9 2.514969 1_655
Zn19 Zn2 2.672859 1_655
Zn19 Zn3 2.672859 1_655
Zn19 Zr5 2.891914 1_555
Zn19 Zr3 2.891915 1_555
Zn19 Zr0 2.990701 1_555
Zn20 Zn9 2.514969 1_556
Zn20 Zn4 2.672859 1_455
Zn20 Zn5 2.672859 1_455
Zn20 Zr4 2.891914 1_555
Zn20 Zr2 2.891915 1_555
Zn20 Zr1 2.990701 1_555
Ni0 Zn14 2.439644 1_455
Ni0 Zn13 2.439644 1_555
Ni0 Zn20 2.439644 1_555
Ni0 Zn19 2.439644 1_455
Ni0 Zn2 2.596795 1_555
Ni0 Zn4 2.596795 1_455
Ni0 Zn5 2.596795 1_455
Ni0 Zn3 2.596795 1_555
Ni0 Zr4 3.081691 1_555
Ni0 Zr5 3.081691 1_455
Ni0 Zr2 3.081691 1_555
Ni0 Zr3 3.081691 1_455
Ni1 Zn7 2.531518 1_544
Ni1 Zn6 2.531518 1_455
Ni1 Zn0 2.531525 1_555
Ni1 Zn1 2.531525 1_444
Ni1 Zn5 2.546239 1_454
Ni1 Zn3 2.546239 1_545
Ni1 Zn4 2.546239 1_445
Ni1 Zn2 2.546239 1_554
Ge0 Zr3 2.598258 1_555
Ge0 Zr2 2.598258 1_555
Ge0 Zr5 2.598258 1_555
Ge0 Zr4 2.598258 1_555
Ge0 Zr1 2.619770 1_555
Ge0 Zr0 2.619770 1_555
