# generated using pymatgen
data_Y4TaIO12
_symmetry_space_group_name_H-M   'P 1'
_cell_length_a   5.39583268
_cell_length_b   7.65534081
_cell_length_c   11.44542253
_cell_angle_alpha   75.73963046
_cell_angle_beta   90.00000000
_cell_angle_gamma   90.00000000
_symmetry_Int_Tables_number   1
_chemical_formula_structural   Y4TaIO12
_chemical_formula_sum   'Y8 Ta2 I2 O24'
_cell_volume   458.20742301
_cell_formula_units_Z   2
loop_
 _symmetry_equiv_pos_site_id
 _symmetry_equiv_pos_as_xyz
  1  'x, y, z'
loop_
 _atom_site_type_symbol
 _atom_site_label
 _atom_site_symmetry_multiplicity
 _atom_site_fract_x
 _atom_site_fract_y
 _atom_site_fract_z
 _atom_site_occupancy
  Y  Y0  1  0.18983984  0.79029643  0.07711265  1
  Y  Y1  1  0.25754566  0.98364605  0.75761144  1
  Y  Y2  1  0.74245434  0.98364605  0.25761144  1
  Y  Y3  1  0.31033502  0.51930840  0.74671500  1
  Y  Y4  1  0.19316170  0.20663396  0.42274600  1
  Y  Y5  1  0.68966498  0.51930840  0.24671500  1
  Y  Y6  1  0.80683830  0.20663396  0.92274600  1
  Y  Y7  1  0.81016016  0.79029643  0.57711265  1
  Ta  Ta0  1  0.74439848  0.71925488  0.88882930  1
  Ta  Ta1  1  0.25560152  0.71925488  0.38882930  1
  I  I0  1  0.74580807  0.27332141  0.61690307  1
  I  I1  1  0.25419193  0.27332141  0.11690307  1
  O  O0  1  0.86020127  0.36106146  0.45920679  1
  O  O1  1  0.46696614  0.85363721  0.92965876  1
  O  O2  1  0.85392883  0.63284643  0.05164813  1
  O  O3  1  0.01455857  0.30229532  0.72130300  1
  O  O4  1  0.98544143  0.30229532  0.22130300  1
  O  O5  1  0.13979873  0.36106146  0.95920679  1
  O  O6  1  0.63269428  0.48527524  0.88024390  1
  O  O7  1  0.52704903  0.16176687  0.06559112  1
  O  O8  1  0.14607117  0.63284643  0.55164813  1
  O  O9  1  0.01910033  0.71877815  0.76916384  1
  O  O10  1  0.43410133  0.19603901  0.26523970  1
  O  O11  1  0.03323686  0.94589325  0.40231215  1
  O  O12  1  0.47295097  0.16176687  0.56559112  1
  O  O13  1  0.98089967  0.71877815  0.26916384  1
  O  O14  1  0.93532248  0.06406362  0.61278412  1
  O  O15  1  0.56589867  0.19603901  0.76523970  1
  O  O16  1  0.52860160  0.78617763  0.72160178  1
  O  O17  1  0.06467752  0.06406362  0.11278412  1
  O  O18  1  0.62448322  0.49970368  0.61132725  1
  O  O19  1  0.37551678  0.49970368  0.11132725  1
  O  O20  1  0.47139840  0.78617763  0.22160178  1
  O  O21  1  0.36730572  0.48527524  0.38024390  1
  O  O22  1  0.53303386  0.85363721  0.42965876  1
  O  O23  1  0.96676314  0.94589325  0.90231215  1
loop_
_geom_bond_atom_site_label_1
_geom_bond_atom_site_label_2
_geom_bond_distance
_geom_bond_site_symmetry_2
I0 O18 1.838901 1_555
I0 O12 1.867867 1_555
I0 O0 1.868838 1_555
I0 O14 1.910844 1_555
I0 O15 1.918330 1_555
I0 O3 1.926251 1_655
I1 O19 1.838901 1_555
I1 O7 1.867867 1_555
I1 O5 1.868838 1_554
I1 O17 1.910844 1_555
I1 O10 1.918330 1_555
I1 O4 1.926251 1_455
O0 Y4 2.245562 1_655
O0 Y5 2.603405 1_555
O1 Ta0 1.937647 1_555
O1 Y0 2.217251 1_556
O1 Y1 2.275849 1_555
O2 Ta0 1.911099 1_554
O2 Y0 2.235189 1_655
O2 Y5 2.360010 1_555
O3 Y3 2.372695 1_555
O3 Y6 2.505296 1_455
O3 Y1 2.709765 1_545
O4 Y5 2.372695 1_555
O4 Y4 2.505296 1_655
O4 Y2 2.709765 1_545
O5 Y6 2.245562 1_455
O5 Y3 2.603405 1_555
O6 Ta0 1.915212 1_555
O6 Y6 2.271226 1_555
O6 Y3 2.287553 1_555
O7 Y6 2.189401 1_554
O7 Y2 2.562027 1_545
O8 Ta1 1.911099 1_555
O8 Y7 2.235189 1_455
O8 Y3 2.360010 1_555
O9 Ta0 2.018760 1_455
O9 Y3 2.249562 1_555
O9 Y1 2.377425 1_555
O9 Y7 2.410307 1_455
O10 Y4 2.240227 1_555
O10 Y2 2.342977 1_545
O10 Y5 2.795061 1_555
O11 Ta1 2.146053 1_555
O11 Y4 2.239102 1_565
O11 Y2 2.247752 1_455
O11 Y7 2.386693 1_455
O12 Y4 2.189401 1_555
O12 Y1 2.562027 1_545
O13 Ta1 2.018760 1_655
O13 Y5 2.249562 1_555
O13 Y2 2.377425 1_555
O13 Y0 2.410307 1_655
O14 Y7 2.331660 1_545
O14 Y1 2.376315 1_645
O14 Y4 2.586153 1_655
O15 Y6 2.240227 1_555
O15 Y1 2.342977 1_545
O15 Y3 2.795061 1_555
O16 Ta0 2.190565 1_555
O16 Y1 2.213849 1_555
O16 Y7 2.240147 1_555
O16 Y3 2.313896 1_555
O17 Y0 2.331660 1_545
O17 Y2 2.376315 1_445
O17 Y6 2.586153 1_454
O18 Y3 2.326284 1_555
O18 Y7 2.382588 1_555
O19 Y5 2.326284 1_555
O19 Y0 2.382588 1_555
O20 Ta1 2.190565 1_555
O20 Y2 2.213849 1_555
O20 Y0 2.240147 1_555
O20 Y5 2.313896 1_555
O21 Ta1 1.915212 1_555
O21 Y4 2.271226 1_555
O21 Y5 2.287553 1_555
O22 Ta1 1.937647 1_555
O22 Y7 2.217251 1_555
O22 Y2 2.275849 1_555
O23 Ta0 2.146053 1_555
O23 Y6 2.239102 1_565
O23 Y1 2.247752 1_655
O23 Y0 2.386693 1_656
