# generated using pymatgen
data_Li31Zr2As13
_symmetry_space_group_name_H-M   'P 1'
_cell_length_a   4.32347398
_cell_length_b   4.32347397
_cell_length_c   56.89392464
_cell_angle_alpha   60.36726033
_cell_angle_beta   60.36725995
_cell_angle_gamma   60.05530910
_symmetry_Int_Tables_number   1
_chemical_formula_structural   Li31Zr2As13
_chemical_formula_sum   'Li31 Zr2 As13'
_cell_volume   756.46430771
_cell_formula_units_Z   1
loop_
 _symmetry_equiv_pos_site_id
 _symmetry_equiv_pos_as_xyz
  1  'x, y, z'
loop_
 _atom_site_type_symbol
 _atom_site_label
 _atom_site_symmetry_multiplicity
 _atom_site_fract_x
 _atom_site_fract_y
 _atom_site_fract_z
 _atom_site_occupancy
  Li  Li0  1  0.26429300  0.26429300  0.16978500  1
  Li  Li1  1  0.74434600  0.74434600  0.05901600  1
  Li  Li2  1  0.73985500  0.73985500  0.13693000  1
  Li  Li3  1  0.48811100  0.48811100  0.19504800  1
  Li  Li4  1  0.25106400  0.25106400  0.24975400  1
  Li  Li5  1  0.25332700  0.25332700  0.32615500  1
  Li  Li6  1  0.74687900  0.74687900  0.21225900  1
  Li  Li7  1  0.49309200  0.49309200  0.27086100  1
  Li  Li8  1  0.48833700  0.48833700  0.34887200  1
  Li  Li9  1  0.74980400  0.74980400  0.28852200  1
  Li  Li10  1  0.24061500  0.24061500  0.40604900  1
  Li  Li11  1  0.24880300  0.24880300  0.48103700  1
  Li  Li12  1  0.73508400  0.73508400  0.36870500  1
  Li  Li13  1  0.75838500  0.75838500  0.44040700  1
  Li  Li14  1  0.24649300  0.24649300  0.55844100  1
  Li  Li15  1  0.75287000  0.75287000  0.51862500  1
  Li  Li16  1  0.24203200  0.24203200  0.63642800  1
  Li  Li17  1  0.26537400  0.26537400  0.70811300  1
  Li  Li18  1  0.75050300  0.75050300  0.59603400  1
  Li  Li19  1  0.75984700  0.75984700  0.67078400  1
  Li  Li20  1  0.51254200  0.51254200  0.72785900  1
  Li  Li21  1  0.25114300  0.25114300  0.78821900  1
  Li  Li22  1  0.25223700  0.25223700  0.86487000  1
  Li  Li23  1  0.74704600  0.74704600  0.75071400  1
  Li  Li24  1  0.50848100  0.50848100  0.80573500  1
  Li  Li25  1  0.74940500  0.74940500  0.82706700  1
  Li  Li26  1  0.51142900  0.51142900  0.88198600  1
  Li  Li27  1  0.25941100  0.25941100  0.94011900  1
  Li  Li28  1  0.75541900  0.75541900  0.90259700  1
  Li  Li29  1  0.52282800  0.52282800  0.95627300  1
  Li  Li30  1  0.74779700  0.74779700  0.98127100  1
  Zr  Zr0  1  0.23780200  0.23780200  0.02205600  1
  Zr  Zr1  1  0.24021300  0.24021300  0.09846900  1
  As  As0  1  0.00421900  0.00421900  0.99898300  1
  As  As1  1  0.99086800  0.99086800  0.07901200  1
  As  As2  1  0.99427600  0.99427600  0.15515300  1
  As  As3  1  0.00943700  0.00943700  0.22857000  1
  As  As4  1  0.00939400  0.00939400  0.30555200  1
  As  As5  1  0.01374400  0.01374400  0.38138800  1
  As  As6  1  0.99630200  0.99630200  0.46230200  1
  As  As7  1  0.99978600  0.99978600  0.53848000  1
  As  As8  1  0.00351500  0.00351500  0.61461100  1
  As  As9  1  0.98607800  0.98607800  0.69555900  1
  As  As10  1  0.99016900  0.99016900  0.77155800  1
  As  As11  1  0.99494800  0.99494800  0.92419100  1
  As  As12  1  0.99240000  0.99240000  0.84788600  1
loop_
_geom_bond_atom_site_label_1
_geom_bond_atom_site_label_2
_geom_bond_distance
_geom_bond_site_symmetry_2
Li0 Li3 2.761197 1_555
Li0 Li3 2.761788 1_455
Li0 Li3 2.761788 1_545
Li2 Li3 2.714322 1_555
Li3 Li4 2.554969 1_555
Li3 Li6 2.622665 1_555
Li3 Li6 2.623246 1_455
Li3 Li6 2.623246 1_545
Li4 Li7 2.684008 1_455
Li4 Li7 2.684008 1_545
Li4 Li7 2.685203 1_555
Li5 Li7 2.582429 1_555
Li5 Li8 2.712631 1_455
Li5 Li8 2.712631 1_545
Li5 Li8 2.713499 1_555
Li6 Li7 2.736927 1_555
Li7 Li9 2.628450 1_555
Li7 Li9 2.630127 1_455
Li7 Li9 2.630127 1_545
Li8 Li9 2.818564 1_555
Li10 Li8 2.670374 1_555
Li12 Li8 2.658248 1_555
Li12 Li8 2.665572 1_655
Li12 Li8 2.665572 1_565
Li17 Li20 2.657140 1_555
Li17 Li20 2.664010 1_455
Li17 Li20 2.664010 1_545
Li19 Li20 2.665610 1_555
Li20 Li23 2.714839 1_455
Li20 Li23 2.714839 1_545
Li20 Li23 2.716665 1_555
Li20 Li21 2.819032 1_555
Li21 Li24 2.626310 1_555
Li21 Li24 2.628023 1_455
Li21 Li24 2.628023 1_545
Li22 Li26 2.621392 1_555
Li22 Li26 2.621848 1_455
Li22 Li26 2.621848 1_545
Li22 Li24 2.761819 1_555
Li23 Li24 2.569679 1_555
Li24 Li25 2.688192 1_555
Li24 Li25 2.688327 1_455
Li24 Li25 2.688327 1_545
Li25 Li26 2.564916 1_555
Li26 Li28 2.675454 1_555
Li26 Li28 2.676251 1_455
Li26 Li28 2.676251 1_545
Li26 Li27 2.715021 1_555
Li27 Li29 2.608322 1_455
Li27 Li29 2.608322 1_545
Li27 Li29 2.608399 1_555
Li28 Li29 2.506864 1_555
Li29 Li30 2.755937 1_555
Li29 Li30 2.756520 1_455
Li29 Li30 2.756520 1_545
Li29 Zr0 3.072305 1_556
As0 Li30 2.628711 1_445
As0 Li30 2.631119 1_545
As0 Li30 2.631119 1_455
As0 Zr0 2.718772 1_456
As0 Zr0 2.718772 1_546
As0 Zr0 2.720854 1_556
As0 Li27 2.749161 1_555
As0 Li1 2.803762 1_446
As0 Li29 3.194197 1_555
As0 Li29 3.196605 1_545
As0 Li29 3.196605 1_455
As1 Zr1 2.656125 1_565
As1 Zr1 2.656125 1_655
As1 Zr1 2.658976 1_665
As1 Zr0 2.660051 1_665
As1 Li1 2.664292 1_555
As1 Li1 2.666535 1_655
As1 Li1 2.666535 1_565
As1 Li2 2.704980 1_555
As2 Li0 2.588676 1_565
As2 Li0 2.588676 1_655
As2 Li0 2.588694 1_665
As2 Li2 2.637854 1_555
As2 Li2 2.637953 1_655
As2 Li2 2.637953 1_565
As2 Zr1 2.647347 1_665
As2 Li6 2.667058 1_555
As2 Li3 3.112431 1_555
As2 Li3 3.116940 1_565
As2 Li3 3.116940 1_655
As3 Li6 2.609258 1_445
As3 Li6 2.611088 1_545
As3 Li6 2.611088 1_455
As3 Li4 2.685562 1_455
As3 Li4 2.685562 1_545
As3 Li4 2.686060 1_555
As3 Li0 2.745472 1_555
As3 Li9 2.799977 1_445
As3 Li3 2.944986 1_555
As3 Li3 2.948152 1_545
As3 Li3 2.948152 1_455
As3 Li7 3.179400 1_445
As3 Li7 3.185739 1_455
As3 Li7 3.185739 1_545
As4 Li4 2.605970 1_555
As4 Li9 2.620346 1_445
As4 Li9 2.620538 1_545
As4 Li9 2.620538 1_455
As4 Li5 2.674678 1_555
As4 Li5 2.676437 1_455
As4 Li5 2.676437 1_545
As4 Li12 2.949473 1_445
As4 Li7 2.974058 1_555
As4 Li7 2.977660 1_545
As4 Li7 2.977660 1_455
As4 Li8 3.210906 1_445
As4 Li8 3.215039 1_455
As4 Li8 3.215040 1_545
As5 Li12 2.565480 1_545
As5 Li12 2.565480 1_455
As5 Li12 2.567509 1_445
As5 Li5 2.579580 1_555
As5 Li10 2.748401 1_455
As5 Li10 2.748401 1_545
As5 Li10 2.752294 1_555
As5 Li13 2.756406 1_445
As5 Li8 2.922103 1_555
As5 Li8 2.922562 1_545
As5 Li8 2.922562 1_455
As6 Li10 2.627218 1_665
As6 Li15 2.630498 1_555
As6 Li11 2.644699 1_565
As6 Li11 2.644699 1_655
As6 Li11 2.647801 1_665
As6 Li13 2.694144 1_555
As6 Li13 2.700134 1_655
As6 Li13 2.700134 1_565
As7 Li15 2.660462 1_555
As7 Li14 2.663952 1_665
As7 Li15 2.665001 1_655
As7 Li15 2.665001 1_565
As7 Li14 2.665847 1_565
As7 Li14 2.665847 1_655
As7 Li11 2.682796 1_665
As7 Li18 2.687982 1_555
As8 Li14 2.623348 1_555
As8 Li19 2.623481 1_445
As8 Li18 2.642883 1_545
As8 Li18 2.642883 1_455
As8 Li18 2.644136 1_445
As8 Li16 2.694575 1_555
As8 Li16 2.697850 1_455
As8 Li16 2.697850 1_545
As9 Li17 2.563819 1_565
As9 Li17 2.563819 1_655
As9 Li17 2.566680 1_665
As9 Li23 2.575938 1_555
As9 Li19 2.751128 1_655
As9 Li19 2.751128 1_565
As9 Li19 2.753540 1_555
As9 Li16 2.761635 1_665
As9 Li20 2.916107 1_555
As9 Li20 2.917715 1_565
As9 Li20 2.917715 1_655
As10 Li25 2.592470 1_555
As10 Li21 2.613613 1_665
As10 Li21 2.616136 1_565
As10 Li21 2.616136 1_655
As10 Li23 2.679682 1_655
As10 Li23 2.679682 1_565
As10 Li23 2.680394 1_555
As10 Li24 2.962441 1_555
As10 Li17 2.963110 1_665
As10 Li24 2.963971 1_565
As10 Li24 2.963971 1_655
As11 Li27 2.605056 1_565
As11 Li27 2.605056 1_655
As11 Li27 2.605833 1_665
As11 Li30 2.665845 1_555
As11 Li28 2.690961 1_555
As11 Li28 2.693780 1_655
As11 Li28 2.693780 1_565
As11 Li22 2.770504 1_665
As11 Li29 2.907838 1_555
As11 Li29 2.913973 1_565
As11 Li29 2.913973 1_655
As11 Li26 3.179897 1_665
As11 Li26 3.181753 1_655
As11 Li26 3.181753 1_565
As12 Li28 2.555203 1_555
As12 Li22 2.619718 1_565
As12 Li22 2.619718 1_655
As12 Li22 2.620033 1_665
As12 Li25 2.678320 1_555
As12 Li25 2.680082 1_655
As12 Li25 2.680082 1_565
As12 Li21 2.786664 1_665
As12 Li26 2.958090 1_555
As12 Li26 2.963244 1_565
As12 Li26 2.963244 1_655
As12 Li24 3.177361 1_665
As12 Li24 3.180678 1_655
As12 Li24 3.180679 1_565
