# generated using pymatgen
data_Rb2Zr(GeO3)3
_symmetry_space_group_name_H-M   'P 1'
_cell_length_a   7.20345575
_cell_length_b   7.20345599
_cell_length_c   10.70852658
_cell_angle_alpha   90.00000000
_cell_angle_beta   90.00000000
_cell_angle_gamma   120.00000446
_symmetry_Int_Tables_number   1
_chemical_formula_structural   Rb2Zr(GeO3)3
_chemical_formula_sum   'Rb4 Zr2 Ge6 O18'
_cell_volume   481.21829593
_cell_formula_units_Z   2
loop_
 _symmetry_equiv_pos_site_id
 _symmetry_equiv_pos_as_xyz
  1  'x, y, z'
loop_
 _atom_site_type_symbol
 _atom_site_label
 _atom_site_symmetry_multiplicity
 _atom_site_fract_x
 _atom_site_fract_y
 _atom_site_fract_z
 _atom_site_occupancy
  Rb  Rb0  1  0.33333300  0.66666700  0.44270698  1
  Rb  Rb1  1  0.66666700  0.33333300  0.94270698  1
  Rb  Rb2  1  0.66666700  0.33333300  0.55729302  1
  Rb  Rb3  1  0.33333300  0.66666700  0.05729302  1
  Zr  Zr0  1  0.00000000  0.00000000  0.50000000  1
  Zr  Zr1  1  0.00000000  0.00000000  0.00000000  1
  Ge  Ge0  1  0.62409602  0.74992342  0.75000000  1
  Ge  Ge1  1  0.87417261  0.62409602  0.25000000  1
  Ge  Ge2  1  0.74992342  0.12582739  0.25000000  1
  Ge  Ge3  1  0.25007658  0.87417261  0.75000000  1
  Ge  Ge4  1  0.12582739  0.37590398  0.75000000  1
  Ge  Ge5  1  0.37590398  0.25007658  0.25000000  1
  O  O0  1  0.24575224  0.23008157  0.38874071  1
  O  O1  1  0.01567167  0.24575224  0.88874071  1
  O  O2  1  0.23008157  0.98432833  0.88874071  1
  O  O3  1  0.76991843  0.01567167  0.38874071  1
  O  O4  1  0.98432833  0.75424776  0.38874071  1
  O  O5  1  0.75424776  0.76991843  0.88874071  1
  O  O6  1  0.75424776  0.76991843  0.61125929  1
  O  O7  1  0.98432833  0.75424776  0.11125929  1
  O  O8  1  0.76991843  0.01567167  0.11125929  1
  O  O9  1  0.23008157  0.98432833  0.61125929  1
  O  O10  1  0.01567167  0.24575224  0.61125929  1
  O  O11  1  0.24575224  0.23008157  0.11125929  1
  O  O12  1  0.47943435  0.07281097  0.25000000  1
  O  O13  1  0.40662338  0.47943435  0.75000000  1
  O  O14  1  0.07281097  0.59337662  0.75000000  1
  O  O15  1  0.92718903  0.40662338  0.25000000  1
  O  O16  1  0.59337662  0.52056565  0.25000000  1
  O  O17  1  0.52056565  0.92718903  0.75000000  1
loop_
_geom_bond_atom_site_label_1
_geom_bond_atom_site_label_2
_geom_bond_distance
_geom_bond_site_symmetry_2
Ge0 O5 1.723956 1_555
Ge0 O6 1.723956 1_555
Ge0 O17 1.771728 1_555
Ge0 O13 1.788354 1_555
Ge1 O4 1.723955 1_555
Ge1 O7 1.723955 1_555
Ge1 O16 1.771728 1_555
Ge1 O15 1.788354 1_555
Ge2 O3 1.723952 1_555
Ge2 O8 1.723952 1_555
Ge2 O15 1.771728 1_555
Ge2 O12 1.788354 1_555
Ge3 O2 1.723952 1_555
Ge3 O9 1.723952 1_555
Ge3 O14 1.771728 1_555
Ge3 O17 1.788354 1_555
Ge4 O1 1.723955 1_555
Ge4 O10 1.723955 1_555
Ge4 O13 1.771728 1_555
Ge4 O14 1.788354 1_555
Ge5 O0 1.723956 1_555
Ge5 O11 1.723956 1_555
Ge5 O12 1.771728 1_555
Ge5 O16 1.788354 1_555
O0 Zr0 2.089554 1_555
O0 Rb0 2.939123 1_555
O0 Rb2 3.278591 1_555
O1 Zr1 2.089552 1_556
O1 Rb1 2.939123 1_455
O1 Rb3 3.278588 1_556
O2 Zr1 2.089558 1_566
O2 Rb1 2.939123 1_565
O2 Rb3 3.278580 1_556
O3 Zr0 2.089558 1_655
O3 Rb0 2.939123 1_545
O3 Rb2 3.278580 1_555
O4 Zr0 2.089552 1_665
O4 Rb0 2.939123 1_655
O4 Rb2 3.278588 1_555
O5 Zr1 2.089554 1_666
O5 Rb1 2.939123 1_555
O5 Rb3 3.278591 1_556
O6 Zr0 2.089554 1_665
O6 Rb2 2.939123 1_555
O6 Rb0 3.278591 1_555
O7 Zr1 2.089552 1_665
O7 Rb3 2.939123 1_655
O7 Rb1 3.278588 1_554
O8 Zr1 2.089558 1_655
O8 Rb3 2.939123 1_545
O8 Rb1 3.278580 1_554
O9 Zr0 2.089558 1_565
O9 Rb2 2.939123 1_565
O9 Rb0 3.278580 1_555
O10 Zr0 2.089552 1_555
O10 Rb2 2.939123 1_455
O10 Rb0 3.278588 1_555
O11 Zr1 2.089554 1_555
O11 Rb3 2.939123 1_555
O11 Rb1 3.278591 1_554
O12 Rb0 3.293391 1_545
O12 Rb3 3.293391 1_545
O13 Rb1 3.293396 1_555
O13 Rb2 3.293396 1_555
O14 Rb1 3.293391 1_455
O14 Rb2 3.293391 1_455
O15 Rb0 3.293391 1_655
O15 Rb3 3.293391 1_655
O16 Rb0 3.293396 1_555
O16 Rb3 3.293396 1_555
O17 Rb1 3.293391 1_565
O17 Rb2 3.293391 1_565
