# generated using pymatgen
data_Sr2LiScSi2
_symmetry_space_group_name_H-M   'P 1'
_cell_length_a   8.59823315
_cell_length_b   8.59823357
_cell_length_c   8.59823300
_cell_angle_alpha   134.90322415
_cell_angle_beta   135.12273446
_cell_angle_gamma   65.51019319
_symmetry_Int_Tables_number   1
_chemical_formula_structural   Sr2LiScSi2
_chemical_formula_sum   'Sr4 Li2 Sc2 Si4'
_cell_volume   312.98101498
_cell_formula_units_Z   2
loop_
 _symmetry_equiv_pos_site_id
 _symmetry_equiv_pos_as_xyz
  1  'x, y, z'
loop_
 _atom_site_type_symbol
 _atom_site_label
 _atom_site_symmetry_multiplicity
 _atom_site_fract_x
 _atom_site_fract_y
 _atom_site_fract_z
 _atom_site_occupancy
  Sr  Sr0  1  0.11105824  0.82948643  0.28157181  1
  Sr  Sr1  1  0.88894176  0.17051357  0.71842819  1
  Sr  Sr2  1  0.45208437  0.67051357  0.78157181  1
  Sr  Sr3  1  0.54791563  0.32948643  0.21842819  1
  Li  Li0  1  0.50000000  0.25000000  0.75000000  1
  Li  Li1  1  0.50000000  0.75000000  0.25000000  1
  Sc  Sc0  1  0.00000000  0.25000000  0.25000000  1
  Sc  Sc1  1  0.00000000  0.75000000  0.75000000  1
  Si  Si0  1  0.65810009  0.89592980  0.76217028  1
  Si  Si1  1  0.13376052  0.39592980  0.73782972  1
  Si  Si2  1  0.86623948  0.60407020  0.26217028  1
  Si  Si3  1  0.34189991  0.10407020  0.23782972  1
loop_
_geom_bond_atom_site_label_1
_geom_bond_atom_site_label_2
_geom_bond_distance
_geom_bond_site_symmetry_2
Li0 Si1 2.818542 1_555
Li0 Si2 2.818546 1_556
Li0 Si3 2.818549 1_555
Li0 Si0 2.818549 1_545
Li0 Sr3 3.294585 1_556
Li0 Sr2 3.294588 1_555
Li0 Sr1 3.294590 1_555
Li0 Sr0 3.294591 1_545
Li1 Si2 2.818542 1_555
Li1 Si1 2.818546 1_554
Li1 Si0 2.818549 1_555
Li1 Si3 2.818549 1_565
Li1 Sr2 3.294585 1_554
Li1 Sr3 3.294588 1_555
Li1 Sr0 3.294590 1_555
Li1 Sr1 3.294591 1_565
Sc0 Si1 2.723943 1_555
Sc0 Si3 2.723947 1_555
Sc0 Si2 2.723947 1_455
Sc0 Si0 2.723947 1_444
Sc0 Sr3 3.494922 1_455
Sc0 Sr2 3.494926 1_555
Sc0 Sr1 3.494931 1_454
Sc0 Sr0 3.494931 1_545
Sc1 Si2 2.723943 1_455
Sc1 Si0 2.723947 1_455
Sc1 Si1 2.723947 1_555
Sc1 Si3 2.723947 1_566
Sc1 Sr2 3.494922 1_555
Sc1 Sr3 3.494926 1_455
Sc1 Sr0 3.494931 1_556
Sc1 Sr1 3.494931 1_465
Si0 Sr2 3.262479 1_555
Si0 Sr0 3.297650 1_555
Si0 Sr3 3.446254 1_566
Si0 Sr3 3.446261 1_555
Si0 Sr0 3.542069 1_656
Si1 Sr1 3.262480 1_455
Si1 Sr3 3.297650 1_556
Si1 Sr0 3.446259 1_545
Si1 Sr0 3.446265 1_556
Si1 Sr3 3.542069 1_455
Si2 Sr0 3.262480 1_655
Si2 Sr2 3.297650 1_554
Si2 Sr1 3.446259 1_565
Si2 Sr1 3.446265 1_554
Si2 Sr2 3.542069 1_655
Si3 Sr3 3.262479 1_555
Si3 Sr1 3.297650 1_555
Si3 Sr2 3.446254 1_544
Si3 Sr2 3.446261 1_555
Si3 Sr1 3.542069 1_454
