# generated using pymatgen
data_V3B4Mo
_symmetry_space_group_name_H-M   'P 1'
_cell_length_a   2.99448316
_cell_length_b   3.07451741
_cell_length_c   8.11894623
_cell_angle_alpha   90.00000000
_cell_angle_beta   90.00000000
_cell_angle_gamma   90.00000000
_symmetry_Int_Tables_number   1
_chemical_formula_structural   V3B4Mo
_chemical_formula_sum   'V3 B4 Mo1'
_cell_volume   74.74781412
_cell_formula_units_Z   1
loop_
 _symmetry_equiv_pos_site_id
 _symmetry_equiv_pos_as_xyz
  1  'x, y, z'
loop_
 _atom_site_type_symbol
 _atom_site_label
 _atom_site_symmetry_multiplicity
 _atom_site_fract_x
 _atom_site_fract_y
 _atom_site_fract_z
 _atom_site_occupancy
  V  V0  1  0.00000000  0.50000000  0.64680276  1
  V  V1  1  0.50000000  0.50000000  0.35941978  1
  V  V2  1  0.50000000  0.00000000  0.85026130  1
  B  B0  1  0.00000000  0.00000000  0.44240217  1
  B  B1  1  0.00000000  0.50000000  0.93054626  1
  B  B2  1  0.50000000  0.50000000  0.05551710  1
  B  B3  1  0.50000000  0.00000000  0.56571292  1
  Mo  Mo0  1  0.00000000  0.00000000  0.14933770  1
loop_
_geom_bond_atom_site_label_1
_geom_bond_atom_site_label_2
_geom_bond_distance
_geom_bond_site_symmetry_2
B0 B3 1.801122 1_555
B0 B3 1.801122 1_455
B0 V1 2.249179 1_445
B0 V1 2.249179 1_555
B0 V1 2.249179 1_545
B0 V1 2.249179 1_455
B0 V0 2.262115 1_545
B0 V0 2.262115 1_555
B0 Mo0 2.379375 1_555
B1 B2 1.808649 1_456
B1 B2 1.808649 1_556
B1 V2 2.242717 1_555
B1 V2 2.242717 1_465
B1 V2 2.242717 1_455
B1 V2 2.242717 1_565
B1 V0 2.303698 1_555
B1 Mo0 2.349171 1_566
B1 Mo0 2.349171 1_556
B2 V2 2.267213 1_554
B2 V2 2.267213 1_564
B2 Mo0 2.277086 1_665
B2 Mo0 2.277086 1_555
B2 Mo0 2.277086 1_655
B2 Mo0 2.277086 1_565
B2 V1 2.467369 1_555
B3 V0 2.244625 1_655
B3 V0 2.244625 1_545
B3 V0 2.244625 1_555
B3 V0 2.244625 1_645
B3 V1 2.273411 1_545
B3 V1 2.273411 1_555
B3 V2 2.310233 1_555
Mo0 V1 2.741190 1_445
Mo0 V1 2.741190 1_545
Mo0 V1 2.741190 1_555
Mo0 V1 2.741190 1_455
