# generated using pymatgen
data_K2Sr(SiS3)2
_symmetry_space_group_name_H-M   'P 1'
_cell_length_a   8.53556738
_cell_length_b   8.53556776
_cell_length_c   8.95516295
_cell_angle_alpha   89.92989409
_cell_angle_beta   89.92989335
_cell_angle_gamma   114.48418331
_symmetry_Int_Tables_number   1
_chemical_formula_structural   K2Sr(SiS3)2
_chemical_formula_sum   'K4 Sr2 Si4 S12'
_cell_volume   593.76516695
_cell_formula_units_Z   2
loop_
 _symmetry_equiv_pos_site_id
 _symmetry_equiv_pos_as_xyz
  1  'x, y, z'
loop_
 _atom_site_type_symbol
 _atom_site_label
 _atom_site_symmetry_multiplicity
 _atom_site_fract_x
 _atom_site_fract_y
 _atom_site_fract_z
 _atom_site_occupancy
  K  K0  1  0.25885828  0.53298455  0.52116083  1
  K  K1  1  0.74114172  0.46701545  0.47883917  1
  K  K2  1  0.46701545  0.74114172  0.97883917  1
  K  K3  1  0.53298455  0.25885828  0.02116083  1
  Sr  Sr0  1  0.98442752  0.01557248  0.25000000  1
  Sr  Sr1  1  0.01557248  0.98442752  0.75000000  1
  Si  Si0  1  0.97900703  0.65232544  0.05188333  1
  Si  Si1  1  0.02099297  0.34767456  0.94811667  1
  Si  Si2  1  0.34767456  0.02099297  0.44811667  1
  Si  Si3  1  0.65232544  0.97900703  0.55188333  1
  S  S0  1  0.64947291  0.75975010  0.65507371  1
  S  S1  1  0.91376236  0.51122994  0.84156844  1
  S  S2  1  0.24024990  0.35052709  0.84492629  1
  S  S3  1  0.51122994  0.91376236  0.34156844  1
  S  S4  1  0.35052709  0.24024990  0.34492629  1
  S  S5  1  0.89819593  0.17427629  0.52051338  1
  S  S6  1  0.82572371  0.10180407  0.97948662  1
  S  S7  1  0.17427629  0.89819593  0.02051338  1
  S  S8  1  0.08623764  0.48877006  0.15843156  1
  S  S9  1  0.48877006  0.08623764  0.65843156  1
  S  S10  1  0.10180407  0.82572371  0.47948662  1
  S  S11  1  0.75975010  0.64947291  0.15507371  1
loop_
_geom_bond_atom_site_label_1
_geom_bond_atom_site_label_2
_geom_bond_distance
_geom_bond_site_symmetry_2
K0 S2 3.261871 1_555
K0 S10 3.309865 1_555
K0 S0 3.311678 1_555
K0 S4 3.312612 1_555
K0 S5 3.322472 1_455
K0 S3 3.459169 1_555
K0 S8 3.524008 1_555
K1 S11 3.261871 1_555
K1 S5 3.309865 1_555
K1 S4 3.311678 1_555
K1 S0 3.312612 1_555
K1 S10 3.322472 1_655
K1 S9 3.459169 1_555
K1 S1 3.524008 1_555
K2 S0 3.261871 1_555
K2 S7 3.309865 1_556
K2 S2 3.311678 1_555
K2 S11 3.312612 1_556
K2 S6 3.322472 1_565
K2 S8 3.459169 1_556
K2 S3 3.524008 1_556
K3 S4 3.261871 1_555
K3 S6 3.309865 1_554
K3 S11 3.311678 1_555
K3 S2 3.312612 1_554
K3 S7 3.322472 1_545
K3 S1 3.459169 1_554
K3 S9 3.524008 1_554
S0 Si3 2.077238 1_555
S0 Sr1 3.034538 1_655
S1 Si1 2.180609 1_655
S1 Si0 2.181731 1_556
S2 Si1 2.077238 1_555
S2 Sr1 3.034538 1_545
S3 Si2 2.180609 1_565
S3 Si3 2.181731 1_555
S4 Si2 2.077238 1_555
S4 Sr0 3.034538 1_455
S5 Si3 2.087894 1_545
S5 Sr0 3.012530 1_555
S5 Sr1 3.032433 1_645
S6 Si1 2.087894 1_655
S6 Sr0 3.012530 1_556
S6 Sr1 3.032433 1_645
S7 Si0 2.087894 1_455
S7 Sr1 3.012530 1_554
S7 Sr0 3.032433 1_465
S8 Si0 2.180609 1_455
S8 Si1 2.181731 1_554
S9 Si3 2.180609 1_545
S9 Si2 2.181731 1_555
S10 Si2 2.087894 1_565
S10 Sr1 3.012530 1_555
S10 Sr0 3.032433 1_465
S11 Si0 2.077238 1_555
S11 Sr0 3.034538 1_565
