# generated using pymatgen
data_YSi2Ir2Rh
_symmetry_space_group_name_H-M   'P 1'
_cell_length_a   6.60108463
_cell_length_b   6.59979016
_cell_length_c   6.59985093
_cell_angle_alpha   130.07707642
_cell_angle_beta   114.37188633
_cell_angle_gamma   86.77090057
_symmetry_Int_Tables_number   1
_chemical_formula_structural   YSi2Ir2Rh
_chemical_formula_sum   'Y2 Si4 Ir4 Rh2'
_cell_volume   191.15075833
_cell_formula_units_Z   2
loop_
 _symmetry_equiv_pos_site_id
 _symmetry_equiv_pos_as_xyz
  1  'x, y, z'
loop_
 _atom_site_type_symbol
 _atom_site_label
 _atom_site_symmetry_multiplicity
 _atom_site_fract_x
 _atom_site_fract_y
 _atom_site_fract_z
 _atom_site_occupancy
  Y  Y0  1  0.25004218  0.53684214  0.28693232  1
  Y  Y1  1  0.74995782  0.46315786  0.71306768  1
  Si  Si0  1  0.07910313  0.88336237  0.80421172  1
  Si  Si1  1  0.92089687  0.11663763  0.19578828  1
  Si  Si2  1  0.57911076  0.77496137  0.19579732  1
  Si  Si3  1  0.42088924  0.22503863  0.80420268  1
  Ir  Ir0  1  0.71687127  0.00001320  0.71688234  1
  Ir  Ir1  1  0.21695909  0.50005415  0.71692220  1
  Ir  Ir2  1  0.28312873  0.99998680  0.28311766  1
  Ir  Ir3  1  0.78304091  0.49994585  0.28307780  1
  Rh  Rh0  1  0.00000000  0.00000000  0.50000000  1
  Rh  Rh1  1  0.50000000  0.00000000  0.00000000  1
loop_
_geom_bond_atom_site_label_1
_geom_bond_atom_site_label_2
_geom_bond_distance
_geom_bond_site_symmetry_2
Y0 Y1 3.599544 1_555
Y0 Y1 3.601240 1_454
Si0 Y0 3.148428 1_566
Si0 Y1 3.197752 1_455
Si0 Y0 3.315700 1_555
Si1 Y1 3.148428 1_544
Si1 Y0 3.197752 1_655
Si1 Y1 3.315700 1_555
Si2 Y1 3.149414 1_554
Si2 Y0 3.198439 1_555
Si2 Y1 3.315065 1_565
Si3 Y0 3.149414 1_556
Si3 Y1 3.198439 1_555
Si3 Y0 3.315065 1_545
Ir0 Si2 2.419528 1_545
Ir0 Si3 2.419791 1_555
Ir0 Si1 2.422268 1_556
Ir0 Si0 2.422586 1_645
Ir0 Y0 3.093171 1_545
Ir0 Y1 3.093595 1_555
Ir0 Y1 3.522020 1_545
Ir0 Y0 3.522363 1_656
Ir1 Si1 2.419729 1_455
Ir1 Si0 2.419997 1_555
Ir1 Si2 2.421765 1_556
Ir1 Si3 2.422680 1_555
Ir1 Y0 3.092701 1_555
Ir1 Y1 3.094340 1_455
Ir1 Y1 3.522534 1_555
Ir1 Y0 3.522921 1_556
Ir2 Si3 2.419528 1_565
Ir2 Si2 2.419791 1_555
Ir2 Si0 2.422268 1_554
Ir2 Si1 2.422586 1_465
Ir2 Y1 3.093171 1_565
Ir2 Y0 3.093595 1_555
Ir2 Y0 3.522020 1_565
Ir2 Y1 3.522363 1_454
Ir3 Si0 2.419729 1_655
Ir3 Si1 2.419997 1_555
Ir3 Si3 2.421765 1_554
Ir3 Si2 2.422680 1_555
Ir3 Y1 3.092701 1_555
Ir3 Y0 3.094340 1_655
Ir3 Y0 3.522534 1_555
Ir3 Y1 3.522921 1_554
Rh0 Si1 2.444555 1_455
Rh0 Si0 2.444555 1_545
Rh0 Si3 2.444889 1_555
Rh0 Si2 2.444889 1_445
Rh0 Y1 3.139715 1_455
Rh0 Y0 3.139715 1_545
Rh0 Y0 3.484411 1_556
Rh0 Y1 3.484411 1_444
Rh1 Si2 2.444457 1_545
Rh1 Si3 2.444457 1_554
Rh1 Si1 2.445157 1_555
Rh1 Si0 2.445157 1_544
Rh1 Y1 3.138508 1_555
Rh1 Y0 3.138508 1_544
Rh1 Y0 3.484622 1_555
Rh1 Y1 3.484622 1_544
