# generated using pymatgen
data_Rb3Au7
_symmetry_space_group_name_H-M   'P 1'
_cell_length_a   5.64183319
_cell_length_b   7.31045070
_cell_length_c   7.26756765
_cell_angle_alpha   90.00000000
_cell_angle_beta   90.00000000
_cell_angle_gamma   112.69805067
_symmetry_Int_Tables_number   1
_chemical_formula_structural   Rb3Au7
_chemical_formula_sum   'Rb3 Au7'
_cell_volume   276.53108897
_cell_formula_units_Z   1
loop_
 _symmetry_equiv_pos_site_id
 _symmetry_equiv_pos_as_xyz
  1  'x, y, z'
loop_
 _atom_site_type_symbol
 _atom_site_label
 _atom_site_symmetry_multiplicity
 _atom_site_fract_x
 _atom_site_fract_y
 _atom_site_fract_z
 _atom_site_occupancy
  Rb  Rb0  1  0.33660805  0.67321709  0.50000000  1
  Rb  Rb1  1  0.66339195  0.32678291  0.50000000  1
  Rb  Rb2  1  0.50000000  -0.00000000  0.00000000  1
  Au  Au0  1  0.10814731  0.21629362  0.80354818  1
  Au  Au1  1  0.89185269  0.78370638  0.19645182  1
  Au  Au2  1  0.89185269  0.78370638  0.80354818  1
  Au  Au3  1  0.10814731  0.21629362  0.19645182  1
  Au  Au4  1  0.50000000  0.50000000  0.00000000  1
  Au  Au5  1  -0.00000000  0.50000000  -0.00000000  1
  Au  Au6  1  -0.00000000  -0.00000000  0.50000000  1
loop_
_geom_bond_atom_site_label_1
_geom_bond_atom_site_label_2
_geom_bond_distance
_geom_bond_site_symmetry_2
Au0 Au6 2.644733 1_555
Au0 Au4 2.772878 1_556
Au0 Au5 2.772881 1_556
Au0 Au3 2.855454 1_556
Au0 Au2 2.917483 1_445
Au0 Rb2 3.481937 1_556
Au0 Rb2 3.481941 1_456
Au0 Rb1 3.657805 1_555
Au0 Rb1 3.657805 1_455
Au0 Rb0 3.789858 1_555
Au1 Au6 2.644733 1_665
Au1 Au4 2.772878 1_555
Au1 Au5 2.772881 1_655
Au1 Au2 2.855454 1_554
Au1 Au3 2.917483 1_665
Au1 Rb2 3.481937 1_565
Au1 Rb2 3.481941 1_665
Au1 Rb0 3.657805 1_555
Au1 Rb0 3.657805 1_655
Au1 Rb1 3.789858 1_555
Au2 Au6 2.644733 1_665
Au2 Au4 2.772878 1_556
Au2 Au5 2.772881 1_656
Au2 Rb2 3.481937 1_566
Au2 Rb2 3.481941 1_666
Au2 Rb0 3.657805 1_555
Au2 Rb0 3.657805 1_655
Au2 Rb1 3.789858 1_555
Au3 Au6 2.644733 1_555
Au3 Au4 2.772878 1_555
Au3 Au5 2.772881 1_555
Au3 Rb2 3.481937 1_555
Au3 Rb2 3.481941 1_455
Au3 Rb1 3.657805 1_555
Au3 Rb1 3.657805 1_455
Au3 Rb0 3.789858 1_555
Au4 Au5 2.820917 1_655
Au4 Au5 2.820917 1_555
Au4 Rb2 3.655225 1_555
Au4 Rb2 3.655225 1_565
Au4 Rb0 4.069217 1_555
Au4 Rb1 4.069217 1_555
Au4 Rb1 4.069217 1_554
Au4 Rb0 4.069217 1_554
Au5 Rb2 3.655225 1_455
Au5 Rb2 3.655225 1_565
Au5 Rb1 4.069215 1_454
Au5 Rb0 4.069215 1_554
Au5 Rb0 4.069215 1_555
Au5 Rb1 4.069215 1_455
Au6 Rb1 3.579774 1_455
Au6 Rb0 3.579774 1_545
Au6 Rb1 3.579777 1_555
Au6 Rb0 3.579777 1_445
