# generated using pymatgen
data_KBa(BeAs)4
_symmetry_space_group_name_H-M   'P 1'
_cell_length_a   7.43115579
_cell_length_b   7.43115483
_cell_length_c   5.32136288
_cell_angle_alpha   90.00000000
_cell_angle_beta   90.00000000
_cell_angle_gamma   138.12845470
_symmetry_Int_Tables_number   1
_chemical_formula_structural   KBa(BeAs)4
_chemical_formula_sum   'K1 Ba1 Be4 As4'
_cell_volume   196.13840330
_cell_formula_units_Z   1
loop_
 _symmetry_equiv_pos_site_id
 _symmetry_equiv_pos_as_xyz
  1  'x, y, z'
loop_
 _atom_site_type_symbol
 _atom_site_label
 _atom_site_symmetry_multiplicity
 _atom_site_fract_x
 _atom_site_fract_y
 _atom_site_fract_z
 _atom_site_occupancy
  K  K0  1  0.00000000  0.00000000  0.00000000  1
  Ba  Ba0  1  0.50000000  0.50000000  0.50000000  1
  Be  Be0  1  0.50000000  0.00000000  0.75168498  1
  Be  Be1  1  0.00000000  0.50000000  0.24831502  1
  Be  Be2  1  0.00000000  0.50000000  0.75168498  1
  Be  Be3  1  0.50000000  0.00000000  0.24831502  1
  As  As0  1  0.65178858  0.34821142  0.00000000  1
  As  As1  1  0.15235860  0.84764140  0.50000000  1
  As  As2  1  0.84764140  0.15235860  0.50000000  1
  As  As3  1  0.34821142  0.65178858  0.00000000  1
loop_
_geom_bond_atom_site_label_1
_geom_bond_atom_site_label_2
_geom_bond_distance
_geom_bond_site_symmetry_2
As0 Be3 2.316731 1_555
As0 Be0 2.316731 1_554
As0 Be1 2.316731 1_655
As0 Be2 2.316731 1_654
As0 K0 3.389705 1_665
As0 K0 3.389705 1_555
As0 Ba0 3.393915 1_555
As0 Ba0 3.393915 1_554
As1 Be2 2.322379 1_555
As1 Be1 2.322379 1_555
As1 Be0 2.322379 1_565
As1 Be3 2.322379 1_565
As1 Ba0 3.394629 1_565
As1 Ba0 3.394629 1_455
As1 K0 3.398833 1_566
As1 K0 3.398833 1_565
As2 Be2 2.322379 1_655
As2 Be1 2.322379 1_655
As2 Be0 2.322379 1_555
As2 Be3 2.322379 1_555
As2 Ba0 3.394629 1_545
As2 Ba0 3.394629 1_655
As2 K0 3.398833 1_655
As2 K0 3.398833 1_656
As3 Be3 2.316731 1_565
As3 Be0 2.316731 1_564
As3 Be1 2.316731 1_555
As3 Be2 2.316731 1_554
As3 K0 3.389705 1_555
As3 K0 3.389705 1_665
As3 Ba0 3.393915 1_555
As3 Ba0 3.393915 1_554
