# generated using pymatgen
data_Sm(CuSi)2
_symmetry_space_group_name_H-M   'P 1'
_cell_length_a   4.03029098
_cell_length_b   4.03029055
_cell_length_c   5.69649446
_cell_angle_alpha   110.71696666
_cell_angle_beta   110.71695119
_cell_angle_gamma   90.00000814
_symmetry_Int_Tables_number   1
_chemical_formula_structural   Sm(CuSi)2
_chemical_formula_sum   'Sm1 Cu2 Si2'
_cell_volume   80.11794835
_cell_formula_units_Z   1
loop_
 _symmetry_equiv_pos_site_id
 _symmetry_equiv_pos_as_xyz
  1  'x, y, z'
loop_
 _atom_site_type_symbol
 _atom_site_label
 _atom_site_symmetry_multiplicity
 _atom_site_fract_x
 _atom_site_fract_y
 _atom_site_fract_z
 _atom_site_occupancy
  Sm  Sm0  1  -0.00000000  0.00000000  0.00000000  1
  Cu  Cu0  1  0.25000000  0.75000000  0.50000000  1
  Cu  Cu1  1  0.75000000  0.25000000  0.50000000  1
  Si  Si0  1  0.62063021  0.62063021  0.24126142  1
  Si  Si1  1  0.37936979  0.37936979  0.75873858  1
loop_
_geom_bond_atom_site_label_1
_geom_bond_atom_site_label_2
_geom_bond_distance
_geom_bond_site_symmetry_2
Cu0 Si0 2.385264 1_555
Cu0 Si1 2.385264 1_555
Cu0 Si1 2.385267 1_565
Cu0 Si0 2.385268 1_455
Cu0 Cu1 2.849846 1_565
Cu0 Cu1 2.849846 1_455
Cu0 Cu1 2.849846 1_555
Cu0 Cu1 2.849846 1_465
Cu0 Sm0 3.184795 1_566
Cu0 Sm0 3.184795 1_555
Cu0 Sm0 3.184795 1_565
Cu0 Sm0 3.184795 1_666
Cu1 Si1 2.385264 1_555
Cu1 Si0 2.385264 1_555
Cu1 Si0 2.385267 1_545
Cu1 Si1 2.385268 1_655
Cu1 Sm0 3.184795 1_655
Cu1 Sm0 3.184795 1_666
Cu1 Sm0 3.184795 1_656
Cu1 Sm0 3.184795 1_555
Si0 Si1 2.379989 1_554
Si0 Sm0 3.088315 1_555
Si0 Sm0 3.088318 1_655
Si0 Sm0 3.088319 1_565
Si0 Sm0 3.088320 1_665
Si1 Sm0 3.088315 1_666
Si1 Sm0 3.088318 1_566
Si1 Sm0 3.088319 1_656
Si1 Sm0 3.088320 1_556
