# generated using pymatgen
data_Mg5Si16(Pd4Rh)2
_symmetry_space_group_name_H-M   'P 1'
_cell_length_a   8.84947608
_cell_length_b   8.86939320
_cell_length_c   8.86057922
_cell_angle_alpha   59.91622147
_cell_angle_beta   60.04144251
_cell_angle_gamma   60.07425449
_symmetry_Int_Tables_number   1
_chemical_formula_structural   Mg5Si16(Pd4Rh)2
_chemical_formula_sum   'Mg5 Si16 Pd8 Rh2'
_cell_volume   491.88263166
_cell_formula_units_Z   1
loop_
 _symmetry_equiv_pos_site_id
 _symmetry_equiv_pos_as_xyz
  1  'x, y, z'
loop_
 _atom_site_type_symbol
 _atom_site_label
 _atom_site_symmetry_multiplicity
 _atom_site_fract_x
 _atom_site_fract_y
 _atom_site_fract_z
 _atom_site_occupancy
  Mg  Mg0  1  0.19699785  0.60192173  0.60047089  1
  Mg  Mg1  1  0.60086114  0.60101401  0.19726371  1
  Mg  Mg2  1  0.60061053  0.60192173  0.60047089  1
  Mg  Mg3  1  0.60129780  0.19691491  0.60049049  1
  Mg  Mg4  1  0.25037866  0.23964517  0.25959750  1
  Si  Si0  1  0.20463847  0.66373390  0.20395194  1
  Si  Si1  1  0.92767569  0.66373390  0.20395194  1
  Si  Si2  1  0.20882527  0.19887773  0.66263833  1
  Si  Si3  1  0.66004786  0.20260975  0.21141627  1
  Si  Si4  1  0.92965867  0.19887773  0.66263833  1
  Si  Si5  1  0.20546026  0.66216154  0.92691793  1
  Si  Si6  1  0.92592613  0.20260975  0.21141627  1
  Si  Si7  1  0.66184791  0.92679427  0.21056800  1
  Si  Si8  1  0.20078982  0.92679427  0.21056800  1
  Si  Si9  1  0.20842630  0.92506481  0.65808259  1
  Si  Si10  1  0.53424970  0.82736546  0.81386406  1
  Si  Si11  1  0.82451979  0.82736546  0.81386406  1
  Si  Si12  1  0.66453736  0.20295075  0.93044589  1
  Si  Si13  1  0.82009113  0.83136700  0.52845073  1
  Si  Si14  1  0.82060688  0.54110699  0.81767826  1
  Si  Si15  1  0.20206500  0.20295075  0.93044589  1
  Pd  Pd0  1  0.98557801  0.51450404  0.98578246  1
  Pd  Pd1  1  0.37815962  0.37618263  0.86749712  1
  Pd  Pd2  1  0.37666304  0.38169306  0.37877088  1
  Pd  Pd3  1  0.86287202  0.38169306  0.37877088  1
  Pd  Pd4  1  0.98628716  0.51417061  0.51325507  1
  Pd  Pd5  1  0.51413449  0.51450404  0.98578246  1
  Pd  Pd6  1  0.38278297  0.85718923  0.37724483  1
  Pd  Pd7  1  0.51381697  0.98611852  0.98624854  1
  Rh  Rh0  1  0.98940215  0.98908011  0.51072739  1
  Rh  Rh1  1  0.51078934  0.98908011  0.51072739  1
loop_
_geom_bond_atom_site_label_1
_geom_bond_atom_site_label_2
_geom_bond_distance
_geom_bond_site_symmetry_2
Mg0 Pd6 2.778116 1_555
Mg0 Pd2 2.798365 1_555
Mg0 Pd1 2.830812 1_555
Mg0 Pd4 2.858348 1_455
Mg0 Pd0 2.858600 1_455
Mg0 Rh0 2.868104 1_455
Mg1 Pd6 2.759327 1_555
Mg1 Pd3 2.798995 1_555
Mg1 Pd2 2.799002 1_555
Mg1 Pd0 2.855585 1_554
Mg1 Pd5 2.855592 1_554
Mg1 Pd7 2.857734 1_554
Mg2 Pd6 2.778122 1_555
Mg2 Pd3 2.798363 1_555
Mg2 Pd1 2.830823 1_555
Mg2 Pd4 2.858340 1_555
Mg2 Pd5 2.858596 1_555
Mg2 Rh1 2.868101 1_555
Mg3 Pd3 2.814095 1_555
Mg3 Pd2 2.814109 1_555
Mg3 Pd1 2.827934 1_555
Mg3 Pd7 2.858766 1_545
Mg3 Rh0 2.872501 1_545
Mg3 Rh1 2.872514 1_545
Mg4 Pd6 2.770457 1_545
Mg4 Pd2 2.805062 1_555
Mg4 Pd3 2.805069 1_455
Mg4 Pd1 2.835521 1_554
Mg4 Rh1 3.202314 1_545
Mg4 Rh0 3.202321 1_445
Si0 Si8 2.346102 1_555
Si0 Si1 2.450976 1_455
Si0 Si5 2.458068 1_554
Si1 Si7 2.346102 1_555
Si1 Si5 2.458068 1_654
Si2 Si9 2.450816 1_545
Si2 Si4 2.470478 1_455
Si3 Si6 2.352883 1_555
Si3 Si7 2.442172 1_545
Si4 Si9 2.450815 1_645
Si5 Si9 2.354186 1_555
Si6 Si8 2.442172 1_645
Si12 Si4 2.361716 1_555
Si12 Si7 2.462678 1_546
Si12 Si3 2.468458 1_556
Si15 Si2 2.361712 1_555
Si15 Si8 2.462678 1_546
Si15 Si6 2.468453 1_456
Pd0 Si14 2.425158 1_555
Pd0 Si11 2.456925 1_555
Pd0 Si5 2.572483 1_655
Pd0 Si1 2.578845 1_556
Pd0 Si15 2.585456 1_655
Pd0 Si6 2.605104 1_556
Pd1 Si5 2.390388 1_555
Pd1 Si12 2.400410 1_555
Pd1 Si15 2.400410 1_555
Pd2 Si0 2.376002 1_555
Pd2 Si3 2.384054 1_555
Pd2 Si2 2.396804 1_555
Pd2 Rh1 2.842922 1_545
Pd3 Si1 2.376006 1_555
Pd3 Si6 2.384050 1_555
Pd3 Si4 2.396808 1_555
Pd3 Rh0 2.842922 1_545
Pd4 Si14 2.414381 1_555
Pd4 Si13 2.479851 1_555
Pd4 Si0 2.574518 1_655
Pd4 Si1 2.574518 1_555
Pd4 Si2 2.616911 1_655
Pd4 Si4 2.616911 1_555
Pd5 Si14 2.425158 1_555
Pd5 Si10 2.456925 1_555
Pd5 Si5 2.572475 1_555
Pd5 Si0 2.578841 1_556
Pd5 Si12 2.585456 1_555
Pd5 Si3 2.605107 1_556
Pd6 Si7 2.371821 1_555
Pd6 Si8 2.371821 1_555
Pd6 Si9 2.382348 1_555
Pd6 Rh1 2.845663 1_555
Pd6 Rh0 2.845670 1_455
Pd7 Si11 2.444284 1_555
Pd7 Si10 2.444293 1_555
Pd7 Si12 2.582530 1_565
Pd7 Si15 2.582544 1_565
Pd7 Si7 2.609174 1_556
Pd7 Si8 2.609181 1_556
Rh0 Si11 2.390048 1_555
Rh0 Si13 2.421207 1_555
Rh0 Si6 2.515313 1_565
Rh0 Si8 2.520096 1_655
Rh0 Si4 2.524369 1_565
Rh0 Si9 2.543658 1_655
Rh1 Si10 2.390048 1_555
Rh1 Si13 2.421214 1_555
Rh1 Si3 2.515316 1_565
Rh1 Si7 2.520095 1_555
Rh1 Si2 2.524365 1_565
Rh1 Si9 2.543650 1_555
