# generated using pymatgen
data_CsU2F9
_symmetry_space_group_name_H-M   'P 1'
_cell_length_a   7.04772541
_cell_length_b   8.37785139
_cell_length_c   8.70525227
_cell_angle_alpha   115.87306829
_cell_angle_beta   90.03665742
_cell_angle_gamma   114.35539297
_symmetry_Int_Tables_number   1
_chemical_formula_structural   CsU2F9
_chemical_formula_sum   'Cs2 U4 F18'
_cell_volume   410.96622330
_cell_formula_units_Z   2
loop_
 _symmetry_equiv_pos_site_id
 _symmetry_equiv_pos_as_xyz
  1  'x, y, z'
loop_
 _atom_site_type_symbol
 _atom_site_label
 _atom_site_symmetry_multiplicity
 _atom_site_fract_x
 _atom_site_fract_y
 _atom_site_fract_z
 _atom_site_occupancy
  Cs  Cs0  1  0.10956845  0.99346961  0.24572337  1
  Cs  Cs1  1  0.87728943  0.99393414  0.74996871  1
  U  U0  1  0.18607278  0.56507132  0.69816616  1
  U  U1  1  0.37754773  0.56486873  0.19793670  1
  U  U2  1  0.61347277  0.41480876  0.78884579  1
  U  U3  1  0.80276023  0.41597428  0.28955496  1
  F  F0  1  0.02737092  0.67811154  0.57480722  1
  F  F1  1  0.12485617  0.67176493  0.28584891  1
  F  F2  1  0.05312034  0.31369507  0.13179417  1
  F  F3  1  0.25841379  0.62657761  0.99027724  1
  F  F4  1  0.36354148  0.62319896  0.48889447  1
  F  F5  1  0.26364988  0.31299864  0.63022400  1
  F  F6  1  0.33647924  0.31858026  0.92671430  1
  F  F7  1  0.54309550  0.67129767  0.78601947  1
  F  F8  1  0.43831325  0.33345991  0.21933960  1
  F  F9  1  0.64710140  0.67641130  0.07428035  1
  F  F10  1  0.47924153  0.10176625  0.65579231  1
  F  F11  1  0.72870260  0.68847066  0.36394975  1
  F  F12  1  0.64316989  0.38505753  0.51700065  1
  F  F13  1  0.74304467  0.38389061  0.01667824  1
  F  F14  1  0.63531351  0.10272967  0.15523154  1
  F  F15  1  0.95470447  0.68841145  0.86301067  1
  F  F16  1  0.89942392  0.33503167  0.72098166  1
  F  F17  1  0.98294905  0.31882143  0.42835876  1
loop_
_geom_bond_atom_site_label_1
_geom_bond_atom_site_label_2
_geom_bond_distance
_geom_bond_site_symmetry_2
Cs0 F1 2.908402 1_555
Cs0 F8 2.943229 1_565
Cs0 F17 2.996600 1_465
Cs0 F15 3.014302 1_454
Cs0 F9 3.049517 1_455
Cs0 F5 3.053933 1_565
Cs0 F11 3.381598 1_455
Cs0 F2 3.397251 1_565
Cs1 F7 2.905602 1_555
Cs1 F16 2.918214 1_565
Cs1 F11 3.036065 1_555
Cs1 F0 3.038741 1_655
Cs1 F2 3.040673 1_666
Cs1 F6 3.052802 1_665
Cs1 F15 3.341736 1_555
F0 U0 2.249620 1_555
F0 U3 2.421410 1_455
F1 U1 2.297468 1_555
F1 U3 2.407198 1_455
F2 U1 2.227107 1_555
F2 U3 2.440647 1_455
F3 U1 2.326340 1_556
F3 U0 2.372732 1_555
F4 U0 2.322752 1_555
F4 U1 2.371450 1_555
F5 U0 2.229614 1_555
F5 U2 2.438438 1_555
F6 U1 2.273888 1_556
F6 U2 2.334682 1_555
F7 U0 2.294501 1_555
F7 U2 2.406092 1_555
F8 U1 2.230843 1_555
F8 U3 2.369287 1_555
F9 U1 2.248859 1_555
F9 U2 2.419019 1_554
F10 U2 2.101371 1_555
F11 U3 2.365688 1_555
F11 U1 2.421013 1_555
F12 U2 2.288018 1_555
F12 U3 2.337219 1_555
F13 U3 2.289179 1_555
F13 U2 2.340040 1_554
F14 U3 2.100638 1_555
F15 U2 2.369459 1_555
F15 U0 2.425804 1_655
F16 U0 2.226724 1_655
F16 U2 2.371717 1_555
F17 U0 2.269998 1_655
F17 U3 2.333269 1_555
