# generated using pymatgen
data_Hf15Sc(Ir2N)4
_symmetry_space_group_name_H-M   'P 1'
_cell_length_a   8.66968085
_cell_length_b   8.66967666
_cell_length_c   8.66922534
_cell_angle_alpha   60.00166413
_cell_angle_beta   60.00176736
_cell_angle_gamma   60.14270831
_symmetry_Int_Tables_number   1
_chemical_formula_structural   Hf15Sc(Ir2N)4
_chemical_formula_sum   'Hf15 Sc1 Ir8 N4'
_cell_volume   461.26318936
_cell_formula_units_Z   1
loop_
 _symmetry_equiv_pos_site_id
 _symmetry_equiv_pos_as_xyz
  1  'x, y, z'
loop_
 _atom_site_type_symbol
 _atom_site_label
 _atom_site_symmetry_multiplicity
 _atom_site_fract_x
 _atom_site_fract_y
 _atom_site_fract_z
 _atom_site_occupancy
  Hf  Hf0  1  0.12644707  0.62219472  0.62568061  1
  Hf  Hf1  1  0.62219420  0.12644990  0.62567945  1
  Hf  Hf2  1  0.62619871  0.62619921  0.12465584  1
  Hf  Hf3  1  0.62619971  0.62619921  0.62294324  1
  Hf  Hf4  1  0.18233655  0.18233545  0.81766450  1
  Hf  Hf5  1  0.81468222  0.18315492  0.81675384  1
  Hf  Hf6  1  0.18315475  0.81467937  0.18540989  1
  Hf  Hf7  1  0.18315675  0.81468237  0.81675199  1
  Hf  Hf8  1  0.81468322  0.18315392  0.18540901  1
  Hf  Hf9  1  0.43582708  0.43582611  0.06417341  1
  Hf  Hf10  1  0.06399934  0.06399816  0.43600025  1
  Hf  Hf11  1  0.43397270  0.06591819  0.43289148  1
  Hf  Hf12  1  0.06591846  0.43397104  0.06721931  1
  Hf  Hf13  1  0.06591946  0.43397104  0.43289119  1
  Hf  Hf14  1  0.43396970  0.06591819  0.06722063  1
  Sc  Sc0  1  0.81709441  0.81708904  0.18290678  1
  Ir  Ir0  1  0.76321342  0.41041288  0.41318435  1
  Ir  Ir1  1  0.41041185  0.76321146  0.41318834  1
  Ir  Ir2  1  0.41284634  0.41284868  0.76335656  1
  Ir  Ir3  1  0.41284534  0.41285068  0.41095042  1
  Ir  Ir4  1  0.48741425  0.83761806  0.83748334  1
  Ir  Ir5  1  0.83761534  0.48741306  0.83748580  1
  Ir  Ir6  1  0.83892519  0.83892614  0.48997122  1
  Ir  Ir7  1  0.83892619  0.83892714  0.83217845  1
  N  N0  1  0.62199715  0.13024429  0.12387928  1
  N  N1  1  0.13024419  0.62199710  0.12387885  1
  N  N2  1  0.12490471  0.12490434  0.62470584  1
  N  N3  1  0.12490371  0.12490334  0.12548612  1
loop_
_geom_bond_atom_site_label_1
_geom_bond_atom_site_label_2
_geom_bond_distance
_geom_bond_site_symmetry_2
Hf0 Ir1 2.675619 1_555
Hf0 Ir5 2.679108 1_455
Hf0 Ir7 2.680824 1_455
Hf0 Ir6 2.680828 1_455
Hf0 Ir3 2.682172 1_555
Hf0 Ir2 2.682176 1_555
Hf1 Ir0 2.675617 1_555
Hf1 Ir4 2.679099 1_545
Hf1 Ir7 2.680828 1_545
Hf1 Ir6 2.680838 1_545
Hf1 Ir2 2.682180 1_555
Hf1 Ir3 2.682191 1_555
Hf2 Ir3 2.688519 1_555
Hf2 Ir5 2.691046 1_554
Hf2 Ir4 2.691051 1_554
Hf2 Ir0 2.691972 1_555
Hf2 Ir1 2.691992 1_555
Hf2 Ir7 2.695626 1_554
Hf3 Ir2 2.688521 1_555
Hf3 Ir5 2.691057 1_555
Hf3 Ir4 2.691066 1_555
Hf3 Ir1 2.691975 1_555
Hf3 Ir0 2.691991 1_555
Hf3 Ir6 2.695619 1_555
Hf4 N3 2.281810 1_556
Hf4 N2 2.281815 1_555
Hf4 Ir4 2.833249 1_545
Hf4 Ir5 2.833268 1_455
Hf5 N0 2.276902 1_556
Hf5 N2 2.295936 1_655
Hf5 Ir7 2.823626 1_545
Hf5 Ir5 2.839353 1_555
Hf6 N1 2.276886 1_555
Hf6 N3 2.295944 1_565
Hf6 Ir6 2.823646 1_455
Hf6 Ir4 2.839376 1_554
Hf7 N1 2.276908 1_556
Hf7 N2 2.295924 1_565
Hf7 Ir7 2.823641 1_455
Hf7 Ir4 2.839358 1_555
Hf8 N0 2.276904 1_555
Hf8 N3 2.295921 1_655
Hf8 Ir6 2.823635 1_545
Hf8 Ir5 2.839354 1_554
Hf9 N0 2.257956 1_555
Hf9 N1 2.257966 1_555
Hf9 Ir2 2.821134 1_554
Hf9 Ir3 2.821155 1_555
Hf10 N3 2.288885 1_555
Hf10 N2 2.288906 1_555
Hf10 Ir1 2.825404 1_545
Hf10 Ir0 2.825411 1_455
Hf11 N0 2.278016 1_555
Hf11 N2 2.288452 1_555
Hf11 Ir1 2.824023 1_545
Hf11 Ir3 2.833857 1_555
Hf12 N1 2.278013 1_555
Hf12 N3 2.288450 1_555
Hf12 Ir0 2.823991 1_455
Hf12 Ir2 2.833832 1_554
Hf13 N1 2.278018 1_555
Hf13 N2 2.288440 1_555
Hf13 Ir0 2.824023 1_455
Hf13 Ir3 2.833829 1_555
Hf14 N0 2.278022 1_555
Hf14 N3 2.288441 1_555
Hf14 Ir1 2.824006 1_545
Hf14 Ir2 2.833845 1_554
Ir6 Sc0 2.863807 1_555
Ir7 Sc0 2.863765 1_556
N0 Sc0 2.323297 1_545
N1 Sc0 2.323254 1_455
