# generated using pymatgen
data_Cr2Co(SeO3)4
_symmetry_space_group_name_H-M   'P 1'
_cell_length_a   7.88770696
_cell_length_b   8.01218263
_cell_length_c   8.11462781
_cell_angle_alpha   87.97591840
_cell_angle_beta   90.00000000
_cell_angle_gamma   90.00000000
_symmetry_Int_Tables_number   1
_chemical_formula_structural   Cr2Co(SeO3)4
_chemical_formula_sum   'Cr4 Co2 Se8 O24'
_cell_volume   512.50624199
_cell_formula_units_Z   2
loop_
 _symmetry_equiv_pos_site_id
 _symmetry_equiv_pos_as_xyz
  1  'x, y, z'
loop_
 _atom_site_type_symbol
 _atom_site_label
 _atom_site_symmetry_multiplicity
 _atom_site_fract_x
 _atom_site_fract_y
 _atom_site_fract_z
 _atom_site_occupancy
  Cr  Cr0  1  0.75454850  0.75059752  0.00495181  1
  Cr  Cr1  1  0.73691487  0.24636410  0.50562807  1
  Cr  Cr2  1  0.24545150  0.25059752  0.00495181  1
  Cr  Cr3  1  0.26308513  0.74636410  0.50562807  1
  Co  Co0  1  0.60708185  0.34387476  0.15855569  1
  Co  Co1  1  0.39291815  0.84387476  0.15855569  1
  Se  Se0  1  0.09219513  0.55208260  0.18565982  1
  Se  Se1  1  0.90780487  0.05208260  0.18565982  1
  Se  Se2  1  0.56975214  0.45213427  0.81713492  1
  Se  Se3  1  0.31475611  0.16497342  0.41948170  1
  Se  Se4  1  0.05919403  0.41919425  0.68430379  1
  Se  Se5  1  0.43024786  0.95213427  0.81713492  1
  Se  Se6  1  0.68524389  0.66497342  0.41948170  1
  Se  Se7  1  0.94080597  0.91919425  0.68430379  1
  O  O0  1  0.97811618  0.71445944  0.10424579  1
  O  O1  1  0.30641567  0.00988256  0.98777816  1
  O  O2  1  0.16905591  0.25375742  0.77670581  1
  O  O3  1  0.66602332  0.45487323  0.37027561  1
  O  O4  1  0.74533421  0.16931404  0.27244950  1
  O  O5  1  0.20112488  0.49072802  0.01692710  1
  O  O6  1  0.22576952  0.51467498  0.58365360  1
  O  O7  1  0.63184398  0.75381093  0.22861135  1
  O  O8  1  0.72158433  0.34640168  0.72128573  1
  O  O9  1  0.33397668  0.95487323  0.37027561  1
  O  O10  1  0.97484943  0.31536446  0.51884664  1
  O  O11  1  0.48563569  0.29074135  0.94098676  1
  O  O12  1  0.83094409  0.75375742  0.77670581  1
  O  O13  1  0.50976238  0.69747197  0.52841812  1
  O  O14  1  0.27841567  0.84640168  0.72128573  1
  O  O15  1  0.25466579  0.66931404  0.27244950  1
  O  O16  1  0.36815602  0.25381093  0.22861135  1
  O  O17  1  0.02188382  0.21445944  0.10424579  1
  O  O18  1  0.02515057  0.81536446  0.51884664  1
  O  O19  1  0.51436431  0.79074135  0.94098676  1
  O  O20  1  0.69358433  0.50988156  0.98777816  1
  O  O21  1  0.77423048  0.01467498  0.58365360  1
  O  O22  1  0.49023762  0.19747197  0.52841812  1
  O  O23  1  0.79887512  0.99072802  0.01692710  1
loop_
_geom_bond_atom_site_label_1
_geom_bond_atom_site_label_2
_geom_bond_distance
_geom_bond_site_symmetry_2
Cr0 O12 1.947005 1_554
Cr0 O0 1.956086 1_555
Cr0 O23 1.961263 1_555
Cr0 O19 1.987515 1_554
Cr0 O20 1.997341 1_554
Cr0 O7 2.057820 1_555
Cr1 O8 1.954117 1_555
Cr1 O10 1.960498 1_555
Cr1 O21 1.962261 1_555
Cr1 O22 1.992073 1_555
Cr1 O4 2.012036 1_555
Cr1 O3 2.044589 1_555
Cr2 O2 1.947005 1_554
Cr2 O17 1.956086 1_555
Cr2 O5 1.961263 1_555
Cr2 O11 1.987515 1_554
Cr2 O1 1.997333 1_554
Cr2 O16 2.057820 1_555
Cr3 O14 1.954117 1_555
Cr3 O18 1.960498 1_555
Cr3 O6 1.962261 1_555
Cr3 O13 1.992073 1_555
Cr3 O15 2.012036 1_555
Cr3 O9 2.044589 1_555
Co0 O4 1.976902 1_555
Co0 O20 2.006209 1_554
Co0 O3 2.016587 1_555
Co0 O11 2.066136 1_554
Co0 O16 2.089626 1_555
Co1 O15 1.976902 1_555
Co1 O1 2.006214 1_564
Co1 O9 2.016587 1_555
Co1 O19 2.066136 1_554
Co1 O7 2.089626 1_555
O0 Se0 1.696466 1_655
O1 Se5 1.769406 1_545
O2 Se4 1.732024 1_555
O3 Se6 1.750314 1_555
O4 Se1 1.751360 1_555
O5 Se0 1.703571 1_555
O6 Se4 1.713037 1_555
O7 Se6 1.733517 1_555
O8 Se2 1.674339 1_555
O9 Se3 1.750314 1_565
O10 Se4 1.736722 1_655
O11 Se2 1.740860 1_555
O12 Se7 1.732024 1_555
O13 Se6 1.667735 1_555
O14 Se5 1.674339 1_555
O15 Se0 1.751360 1_555
O16 Se3 1.733517 1_555
O17 Se1 1.696466 1_455
O18 Se7 1.736722 1_455
O19 Se5 1.740860 1_555
O20 Se2 1.769403 1_555
O21 Se7 1.713037 1_545
O22 Se3 1.667735 1_555
O23 Se1 1.703571 1_565
