# generated using pymatgen
data_CdInIO6
_symmetry_space_group_name_H-M   'P 1'
_cell_length_a   4.85538700
_cell_length_b   4.85541652
_cell_length_c   9.74336612
_cell_angle_alpha   90.00000000
_cell_angle_beta   90.00000000
_cell_angle_gamma   90.00000000
_symmetry_Int_Tables_number   1
_chemical_formula_structural   CdInIO6
_chemical_formula_sum   'Cd2 In2 I2 O12'
_cell_volume   229.69913766
_cell_formula_units_Z   2
loop_
 _symmetry_equiv_pos_site_id
 _symmetry_equiv_pos_as_xyz
  1  'x, y, z'
loop_
 _atom_site_type_symbol
 _atom_site_label
 _atom_site_symmetry_multiplicity
 _atom_site_fract_x
 _atom_site_fract_y
 _atom_site_fract_z
 _atom_site_occupancy
  Cd  Cd0  1  0.00000000  0.00000000  0.66995076  1
  Cd  Cd1  1  0.50000000  0.50000000  0.83004924  1
  In  In0  1  0.00000000  0.00000000  0.33888093  1
  In  In1  1  0.50000000  0.50000000  0.16111907  1
  I  I0  1  0.50000000  0.50000000  0.49397757  1
  I  I1  1  0.00000000  0.00000000  0.00602243  1
  O  O0  1  0.68390753  0.68396381  0.63219201  1
  O  O1  1  0.31609247  0.31603619  0.63219201  1
  O  O2  1  0.81609247  0.18396381  0.86780799  1
  O  O3  1  0.18390753  0.81603619  0.86780799  1
  O  O4  1  0.31644158  0.31639760  0.34442553  1
  O  O5  1  0.68355842  0.68360240  0.34442553  1
  O  O6  1  0.18355842  0.81639760  0.15557447  1
  O  O7  1  0.81644158  0.18360240  0.15557447  1
  O  O8  1  0.72612660  0.72619405  0.01065748  1
  O  O9  1  0.27387340  0.27380595  0.01065748  1
  O  O10  1  0.77387340  0.22619405  0.48934252  1
  O  O11  1  0.22612660  0.77380595  0.48934252  1
loop_
_geom_bond_atom_site_label_1
_geom_bond_atom_site_label_2
_geom_bond_distance
_geom_bond_site_symmetry_2
Cd0 O1 2.201241 1_555
Cd0 O0 2.201241 1_445
Cd0 O3 2.304688 1_545
Cd0 O2 2.304688 1_455
Cd0 O10 2.346977 1_455
Cd0 O11 2.346977 1_545
Cd1 O2 2.201241 1_555
Cd1 O3 2.201241 1_555
Cd1 O0 2.304688 1_555
Cd1 O1 2.304688 1_555
Cd1 O8 2.346977 1_556
Cd1 O9 2.346977 1_556
In0 O11 2.135605 1_545
In0 O10 2.135605 1_455
In0 O4 2.173390 1_555
In0 O5 2.173390 1_445
In0 O7 2.186071 1_455
In0 O6 2.186071 1_545
In1 O8 2.135605 1_555
In1 O9 2.135605 1_555
In1 O6 2.173390 1_555
In1 O7 2.173390 1_555
In1 O5 2.186071 1_555
In1 O4 2.186071 1_555
I0 O0 1.846272 1_555
I0 O1 1.846272 1_555
I0 O10 1.880883 1_555
I0 O11 1.880883 1_555
I0 O5 1.926731 1_555
I0 O4 1.926731 1_555
I1 O3 1.846272 1_544
I1 O2 1.846272 1_454
I1 O9 1.880883 1_555
I1 O8 1.880883 1_445
I1 O6 1.926731 1_545
I1 O7 1.926731 1_455
