# generated using pymatgen
data_Lu3AuO6
_symmetry_space_group_name_H-M   'P 1'
_cell_length_a   3.43963085
_cell_length_b   5.42277657
_cell_length_c   6.90788165
_cell_angle_alpha   89.32433781
_cell_angle_beta   102.65198010
_cell_angle_gamma   91.17923151
_symmetry_Int_Tables_number   1
_chemical_formula_structural   Lu3AuO6
_chemical_formula_sum   'Lu3 Au1 O6'
_cell_volume   125.68945881
_cell_formula_units_Z   1
loop_
 _symmetry_equiv_pos_site_id
 _symmetry_equiv_pos_as_xyz
  1  'x, y, z'
loop_
 _atom_site_type_symbol
 _atom_site_label
 _atom_site_symmetry_multiplicity
 _atom_site_fract_x
 _atom_site_fract_y
 _atom_site_fract_z
 _atom_site_occupancy
  Lu  Lu0  1  0.61278877  0.53095075  0.76192307  1
  Lu  Lu1  1  0.38721123  0.46904925  0.23807693  1
  Lu  Lu2  1  0.00000000  0.00000000  0.50000000  1
  Au  Au0  1  0.00000000  0.00000000  0.00000000  1
  O  O0  1  0.82977272  0.67608412  0.10365033  1
  O  O1  1  0.17022728  0.32391588  0.89634967  1
  O  O2  1  0.52522749  0.25617031  0.53404622  1
  O  O3  1  0.47477251  0.74382969  0.46595378  1
  O  O4  1  0.12753304  0.79967625  0.78192864  1
  O  O5  1  0.87246696  0.20032375  0.21807136  1
loop_
_geom_bond_atom_site_label_1
_geom_bond_atom_site_label_2
_geom_bond_distance
_geom_bond_site_symmetry_2
Lu0 O2 2.148983 1_555
Lu0 O1 2.228070 1_555
Lu0 O4 2.251397 1_655
Lu0 O1 2.254592 1_655
Lu0 O4 2.265931 1_555
Lu0 O3 2.297777 1_555
Lu0 O0 2.448833 1_556
Lu1 O3 2.148983 1_555
Lu1 O0 2.228070 1_555
Lu1 O5 2.251397 1_455
Lu1 O0 2.254592 1_455
Lu1 O5 2.265931 1_555
Lu1 O2 2.297777 1_555
Lu1 O1 2.448833 1_554
Lu2 O4 2.181937 1_545
Lu2 O5 2.181937 1_455
Lu2 O2 2.218381 1_455
Lu2 O3 2.218381 1_545
Lu2 O2 2.228701 1_555
Lu2 O3 2.228701 1_445
Au0 O5 1.997362 1_455
Au0 O4 1.997362 1_544
Au0 O1 2.013088 1_554
Au0 O0 2.013088 1_445
