# generated using pymatgen
data_Ba2LiTc2H17
_symmetry_space_group_name_H-M   'P 1'
_cell_length_a   5.13942144
_cell_length_b   5.13942247
_cell_length_c   9.78037249
_cell_angle_alpha   89.85243092
_cell_angle_beta   90.14757020
_cell_angle_gamma   119.45679498
_symmetry_Int_Tables_number   1
_chemical_formula_structural   Ba2LiTc2H17
_chemical_formula_sum   'Ba2 Li1 Tc2 H17'
_cell_volume   224.93856094
_cell_formula_units_Z   1
loop_
 _symmetry_equiv_pos_site_id
 _symmetry_equiv_pos_as_xyz
  1  'x, y, z'
loop_
 _atom_site_type_symbol
 _atom_site_label
 _atom_site_symmetry_multiplicity
 _atom_site_fract_x
 _atom_site_fract_y
 _atom_site_fract_z
 _atom_site_occupancy
  Ba  Ba0  1  0.99259158  0.00740842  0.99069910  1
  Ba  Ba1  1  0.99037419  0.00962581  0.49250476  1
  Li  Li0  1  0.65326946  0.34673054  0.24487267  1
  Tc  Tc0  1  0.31403499  0.68596501  0.25447891  1
  Tc  Tc1  1  0.65399520  0.34600480  0.74762373  1
  H  H0  1  0.52052920  0.47947080  0.87070684  1
  H  H1  1  0.43362269  0.56637731  0.38892047  1
  H  H2  1  0.52114948  0.47885052  0.62513055  1
  H  H3  1  0.49013790  0.98663991  0.36251612  1
  H  H4  1  0.92091872  0.47826803  0.62745952  1
  H  H5  1  0.47177142  0.94116807  0.12627622  1
  H  H6  1  0.92738376  0.47900200  0.86660653  1
  H  H7  1  0.52173197  0.07908128  0.62745952  1
  H  H8  1  0.01336009  0.50986210  0.36251612  1
  H  H9  1  0.52099800  0.07261624  0.86660653  1
  H  H10  1  0.05883193  0.52822858  0.12627622  1
  H  H11  1  0.66061115  0.74903980  0.22125844  1
  H  H12  1  0.83119976  0.71250810  0.74463356  1
  H  H13  1  0.28749190  0.16880024  0.74463356  1
  H  H14  1  0.25096020  0.33938885  0.22125844  1
  H  H15  1  0.12701935  0.87298065  0.24313784  1
  H  H16  1  0.83801808  0.16198192  0.74442633  1
loop_
_geom_bond_atom_site_label_1
_geom_bond_atom_site_label_2
_geom_bond_distance
_geom_bond_site_symmetry_2
Ba0 H15 2.739016 1_646
Ba0 H11 2.745039 1_546
Ba0 H14 2.745040 1_656
Ba0 H13 2.747534 1_655
Ba0 H12 2.747535 1_545
Ba0 H16 2.768527 1_555
Ba0 H9 2.842553 1_655
Ba0 H6 2.842554 1_545
Ba0 H0 2.855285 1_655
Ba0 H0 2.855285 1_545
Ba0 H5 2.856338 1_546
Ba0 H10 2.856339 1_656
Ba0 H9 2.870777 1_555
Ba0 H6 2.870777 1_555
Ba0 H5 2.957115 1_646
Ba0 H10 2.957116 1_646
Ba1 H15 2.727149 1_645
Ba1 H13 2.800731 1_655
Ba1 H12 2.800732 1_545
Ba1 H16 2.814230 1_555
Ba1 H3 2.815161 1_545
Ba1 H8 2.815162 1_655
Ba1 H1 2.826530 1_545
Ba1 H1 2.826530 1_655
Ba1 H7 2.890040 1_655
Ba1 H4 2.890041 1_545
Ba1 H2 2.909848 1_655
Ba1 H2 2.909848 1_545
Ba1 H7 2.921488 1_555
Ba1 H4 2.921489 1_555
Ba1 H3 2.922919 1_645
Ba1 H8 2.922919 1_645
Ba1 H11 3.076769 1_545
Ba1 H14 3.076770 1_655
H0 Tc1 1.691574 1_555
H1 Tc0 1.687492 1_555
H2 Tc1 1.678575 1_555
H3 Tc0 1.717993 1_555
H3 Li0 1.979818 1_565
H4 Tc1 1.676973 1_555
H5 Tc0 1.703133 1_555
H5 Li0 2.157470 1_565
H6 Tc1 1.687211 1_555
H7 Tc1 1.676974 1_555
H8 Tc0 1.717993 1_555
H8 Li0 1.979818 1_455
H9 Tc1 1.687211 1_555
H10 Tc0 1.703133 1_555
H10 Li0 2.157469 1_455
H11 Tc0 1.678650 1_555
H11 Li0 2.061733 1_555
H12 Tc1 1.640404 1_555
H13 Tc1 1.640404 1_555
H14 Tc0 1.678650 1_555
H14 Li0 2.061732 1_555
H15 Tc0 1.663561 1_555
H16 Tc1 1.634015 1_555
