# generated using pymatgen
data_Hf2TaReW2
_symmetry_space_group_name_H-M   'P 1'
_cell_length_a   5.42743753
_cell_length_b   5.36412776
_cell_length_c   5.33722803
_cell_angle_alpha   59.83313483
_cell_angle_beta   59.84036937
_cell_angle_gamma   60.38513148
_symmetry_Int_Tables_number   1
_chemical_formula_structural   Hf2TaReW2
_chemical_formula_sum   'Hf2 Ta1 Re1 W2'
_cell_volume   109.91589103
_cell_formula_units_Z   1
loop_
 _symmetry_equiv_pos_site_id
 _symmetry_equiv_pos_as_xyz
  1  'x, y, z'
loop_
 _atom_site_type_symbol
 _atom_site_label
 _atom_site_symmetry_multiplicity
 _atom_site_fract_x
 _atom_site_fract_y
 _atom_site_fract_z
 _atom_site_occupancy
  Hf  Hf0  1  0.99680464  0.00085754  0.00147928  1
  Hf  Hf1  1  0.25319536  0.24914246  0.24852072  1
  Ta  Ta0  1  0.12500000  0.62500000  0.62500000  1
  Re  Re0  1  0.62500000  0.62500000  0.12500000  1
  W  W0  1  0.62500000  0.62500000  0.62500000  1
  W  W1  1  0.62500000  0.12500000  0.62500000  1
loop_
_geom_bond_atom_site_label_1
_geom_bond_atom_site_label_2
_geom_bond_distance
_geom_bond_site_symmetry_2
Hf0 W0 3.121148 1_545
Hf0 W1 3.121151 1_555
Hf0 Ta0 3.133780 1_645
Hf0 Ta0 3.141151 1_644
Hf0 Ta0 3.141155 1_654
Hf0 Re0 3.149600 1_545
Hf0 Re0 3.149605 1_555
Hf0 W1 3.155071 1_554
Hf0 W0 3.155073 1_554
Hf0 W0 3.181321 1_644
Hf0 W1 3.181323 1_654
Hf0 Re0 3.202025 1_645
Hf0 Hf1 3.270091 1_654
Hf0 Hf1 3.299818 1_645
Hf0 Hf1 3.299827 1_655
Hf0 Hf1 3.302440 1_555
Hf1 W0 3.121148 1_554
Hf1 W1 3.121151 1_554
Hf1 Ta0 3.133780 1_554
Hf1 Ta0 3.141151 1_555
Hf1 Ta0 3.141155 1_545
Hf1 Re0 3.149600 1_555
Hf1 Re0 3.149605 1_545
Hf1 W1 3.155071 1_555
Hf1 W0 3.155073 1_545
Hf1 W0 3.181321 1_455
Hf1 W1 3.181323 1_455
Hf1 Re0 3.202025 1_455
Ta0 W0 2.713719 1_555
Ta0 W0 2.713719 1_455
Ta0 W1 2.713719 1_555
Ta0 W1 2.713719 1_465
Re0 W1 2.668614 1_555
Re0 W1 2.668614 1_564
Re0 W0 2.668614 1_555
Re0 W0 2.668614 1_554
Re0 Ta0 2.684955 1_555
Re0 Ta0 2.684955 1_654
W0 W1 2.682064 1_555
W0 W1 2.682064 1_565
