# generated using pymatgen
data_CsNaNb4(PS10)2
_symmetry_space_group_name_H-M   'P 1'
_cell_length_a   7.24519691
_cell_length_b   7.64697172
_cell_length_c   12.97846328
_cell_angle_alpha   88.10315909
_cell_angle_beta   77.59611371
_cell_angle_gamma   87.02770006
_symmetry_Int_Tables_number   1
_chemical_formula_structural   CsNaNb4(PS10)2
_chemical_formula_sum   'Cs1 Na1 Nb4 P2 S20'
_cell_volume   701.14939919
_cell_formula_units_Z   1
loop_
 _symmetry_equiv_pos_site_id
 _symmetry_equiv_pos_as_xyz
  1  'x, y, z'
loop_
 _atom_site_type_symbol
 _atom_site_label
 _atom_site_symmetry_multiplicity
 _atom_site_fract_x
 _atom_site_fract_y
 _atom_site_fract_z
 _atom_site_occupancy
  Cs  Cs0  1  0.01477145  0.49626034  0.49050651  1
  Na  Na0  1  0.99691692  0.50523490  0.99508284  1
  Nb  Nb0  1  0.50212619  0.06381917  0.60247186  1
  Nb  Nb1  1  0.50359088  0.93034501  0.39551531  1
  Nb  Nb2  1  0.49647226  0.07039814  0.89372741  1
  Nb  Nb3  1  0.50480430  0.93616171  0.10407856  1
  P  P0  1  0.26456095  0.36961378  0.76508695  1
  P  P1  1  0.73810886  0.63014699  0.22784087  1
  S  S0  1  0.63969533  0.87245006  0.73675052  1
  S  S1  1  0.36361998  0.12788795  0.26449436  1
  S  S2  1  0.69833403  0.18164480  0.01197941  1
  S  S3  1  0.30046470  0.82790073  0.98688096  1
  S  S4  1  0.40710569  0.40555865  0.88287542  1
  S  S5  1  0.59241789  0.60076199  0.11056723  1
  S  S6  1  0.71044388  0.16613086  0.43066995  1
  S  S7  1  0.29912558  0.82404597  0.56802523  1
  S  S8  1  0.78408407  0.92428984  0.48061183  1
  S  S9  1  0.22068119  0.06473009  0.51866272  1
  S  S10  1  0.78532145  0.94246476  0.95243288  1
  S  S11  1  0.21598125  0.06763089  0.04619084  1
  S  S12  1  0.02416129  0.50924582  0.77988141  1
  S  S13  1  0.97783406  0.48867924  0.20917402  1
  S  S14  1  0.74489264  0.11612031  0.71793761  1
  S  S15  1  0.25883143  0.88405294  0.27961721  1
  S  S16  1  0.24019991  0.09817755  0.77675386  1
  S  S17  1  0.76341563  0.90150656  0.22004235  1
  S  S18  1  0.43324852  0.39896430  0.61716382  1
  S  S19  1  0.57318866  0.59557766  0.37637907  1
loop_
_geom_bond_atom_site_label_1
_geom_bond_atom_site_label_2
_geom_bond_distance
_geom_bond_site_symmetry_2
Cs0 S9 3.590590 1_555
Cs0 S8 3.608380 1_455
Cs0 S7 3.623869 1_555
Cs0 S6 3.644234 1_455
Cs0 S13 3.720499 1_455
Cs0 S12 3.775511 1_555
Cs0 S18 3.778179 1_555
Cs0 S19 3.836144 1_455
Cs0 S19 4.099915 1_555
Cs0 S15 4.164032 1_555
Na0 S13 2.751201 1_556
Na0 S12 2.756588 1_655
Na0 S5 3.054886 1_556
Na0 S4 3.084346 1_655
Na0 S2 3.341618 1_556
Na0 S3 3.373579 1_655
Nb0 S9 2.508401 1_555
Nb0 S8 2.512097 1_545
Nb0 S7 2.518201 1_545
Nb0 S6 2.534363 1_555
Nb0 S0 2.568697 1_545
Nb0 S18 2.590831 1_555
Nb0 S14 2.596988 1_555
Nb0 S16 2.632519 1_555
Nb1 S9 2.508945 1_565
Nb1 S8 2.510561 1_555
Nb1 S6 2.516679 1_565
Nb1 S7 2.539200 1_555
Nb1 S1 2.571732 1_565
Nb1 S19 2.593018 1_555
Nb1 S15 2.603622 1_555
Nb1 S17 2.631961 1_555
Nb2 S3 2.510811 1_545
Nb2 S11 2.513943 1_556
Nb2 S10 2.518054 1_545
Nb2 S2 2.529390 1_556
Nb2 S0 2.579106 1_545
Nb2 S14 2.610601 1_555
Nb2 S4 2.617447 1_555
Nb2 S16 2.635540 1_555
Nb3 S10 2.508379 1_554
Nb3 S2 2.514579 1_565
Nb3 S11 2.522155 1_565
Nb3 S3 2.523618 1_554
Nb3 S1 2.581089 1_565
Nb3 S15 2.606600 1_555
Nb3 S5 2.613048 1_555
Nb3 S17 2.641899 1_555
P0 S12 1.971721 1_555
P0 S4 2.052958 1_555
P0 S18 2.054677 1_555
P0 S16 2.090017 1_555
P1 S13 1.971643 1_555
P1 S5 2.053952 1_555
P1 S19 2.055105 1_555
P1 S17 2.089832 1_555
S0 S14 2.037100 1_565
S1 S15 2.037210 1_545
S6 S8 2.022813 1_545
S7 S9 2.022570 1_565
S10 S2 2.025956 1_566
S11 S3 2.025456 1_544
