# generated using pymatgen
data_K2SrAs2Pd3
_symmetry_space_group_name_H-M   'P 1'
_cell_length_a   7.66328045
_cell_length_b   7.66328135
_cell_length_c   7.66328058
_cell_angle_alpha   43.34615149
_cell_angle_beta   43.34614587
_cell_angle_gamma   43.34615085
_symmetry_Int_Tables_number   1
_chemical_formula_structural   K2SrAs2Pd3
_chemical_formula_sum   'K2 Sr1 As2 Pd3'
_cell_volume   192.32368768
_cell_formula_units_Z   1
loop_
 _symmetry_equiv_pos_site_id
 _symmetry_equiv_pos_as_xyz
  1  'x, y, z'
loop_
 _atom_site_type_symbol
 _atom_site_label
 _atom_site_symmetry_multiplicity
 _atom_site_fract_x
 _atom_site_fract_y
 _atom_site_fract_z
 _atom_site_occupancy
  K  K0  1  0.50948513  0.50948513  0.50948513  1
  K  K1  1  0.91023815  0.91023815  0.91023815  1
  Sr  Sr0  1  0.08110736  0.08110736  0.08110736  1
  As  As0  1  0.24319318  0.24319318  0.24319318  1
  As  As1  1  0.75653452  0.75653452  0.75653452  1
  Pd  Pd0  1  0.49905993  0.49905993  0.00132278  1
  Pd  Pd1  1  0.49905893  0.00132278  0.49906093  1
  Pd  Pd2  1  0.00132278  0.49905893  0.49906093  1
loop_
_geom_bond_atom_site_label_1
_geom_bond_atom_site_label_2
_geom_bond_distance
_geom_bond_site_symmetry_2
K0 K1 3.555982 1_455
K0 K1 3.555982 1_554
K0 K1 3.555982 1_545
K0 Pd2 3.654062 1_655
K0 Pd0 3.654063 1_556
K0 Pd1 3.654063 1_565
K0 Sr0 3.819124 1_655
K0 Sr0 3.819124 1_556
K0 Sr0 3.819124 1_565
K0 Pd2 4.011453 1_555
K0 Pd0 4.011453 1_555
K0 Pd1 4.011453 1_555
K1 Pd1 3.388112 1_665
K1 Pd2 3.388112 1_665
K1 Pd0 3.388117 1_656
K1 Pd0 3.388117 1_566
K1 Pd1 3.388121 1_566
K1 Pd2 3.388121 1_656
As0 Pd1 2.478869 1_555
As0 Pd0 2.478869 1_555
As0 Pd2 2.478869 1_555
As0 K1 3.267958 1_544
As0 K1 3.267958 1_445
As0 K1 3.267959 1_454
As0 Sr0 3.370518 1_555
As0 K0 3.552887 1_455
As0 K0 3.552888 1_554
As0 K0 3.552888 1_545
As1 Pd1 2.490151 1_565
As1 Pd0 2.490151 1_556
As1 Pd2 2.490151 1_655
As1 K1 3.196213 1_555
As1 Sr0 3.273022 1_566
As1 Sr0 3.273022 1_665
As1 Sr0 3.273023 1_656
As1 K0 3.728110 1_655
As1 K0 3.728110 1_556
As1 K0 3.728110 1_565
Pd0 Pd2 2.817321 1_555
Pd0 Pd1 2.817322 1_555
Pd0 Pd2 2.842932 1_654
Pd0 Pd1 2.842933 1_564
Pd0 Sr0 3.296564 1_655
Pd0 Sr0 3.296565 1_565
Pd1 Pd2 2.817313 1_555
Pd1 Pd2 2.842941 1_645
Pd1 Sr0 3.296559 1_556
Pd1 Sr0 3.296569 1_655
Pd2 Sr0 3.296559 1_556
Pd2 Sr0 3.296569 1_565
