# generated using pymatgen
data_Ta12Al5Zn7N2
_symmetry_space_group_name_H-M   'P 1'
_cell_length_a   8.15322682
_cell_length_b   8.14670740
_cell_length_c   8.15800521
_cell_angle_alpha   60.02163398
_cell_angle_beta   60.01937723
_cell_angle_gamma   59.97352982
_symmetry_Int_Tables_number   1
_chemical_formula_structural   Ta12Al5Zn7N2
_chemical_formula_sum   'Ta12 Al5 Zn7 N2'
_cell_volume   383.20233847
_cell_formula_units_Z   1
loop_
 _symmetry_equiv_pos_site_id
 _symmetry_equiv_pos_as_xyz
  1  'x, y, z'
loop_
 _atom_site_type_symbol
 _atom_site_label
 _atom_site_symmetry_multiplicity
 _atom_site_fract_x
 _atom_site_fract_y
 _atom_site_fract_z
 _atom_site_occupancy
  Ta  Ta0  1  0.18985226  0.81089342  0.18813126  1
  Ta  Ta1  1  0.43972443  0.05939590  0.43944561  1
  Ta  Ta2  1  0.43870340  0.06032450  0.06226971  1
  Ta  Ta3  1  0.43896282  0.43872313  0.06112789  1
  Ta  Ta4  1  0.18963705  0.81011878  0.81060712  1
  Ta  Ta5  1  0.06118516  0.43872313  0.06112789  1
  Ta  Ta6  1  0.81112306  0.81089342  0.18813126  1
  Ta  Ta7  1  0.05996416  0.43976299  0.44030868  1
  Ta  Ta8  1  0.19099450  0.18916107  0.80980952  1
  Ta  Ta9  1  0.81057862  0.18938586  0.18945790  1
  Ta  Ta10  1  0.81003491  0.18916107  0.80980952  1
  Ta  Ta11  1  0.06143405  0.05939590  0.43944561  1
  Al  Al0  1  0.83352898  0.49735668  0.83558636  1
  Al  Al1  1  0.41508028  0.41589922  0.75393921  1
  Al  Al2  1  0.75370089  0.41633902  0.41443147  1
  Al  Al3  1  0.41552662  0.41633902  0.41443147  1
  Al  Al4  1  0.83396855  0.83500237  0.49706154  1
  Zn  Zn0  1  0.41661179  0.75076348  0.41600993  1
  Zn  Zn1  1  0.83380277  0.83343264  0.83399531  1
  Zn  Zn2  1  0.49877129  0.83343264  0.83399531  1
  Zn  Zn3  1  0.62454063  0.12332829  0.62758944  1
  Zn  Zn4  1  0.62340809  0.62955218  0.12363164  1
  Zn  Zn5  1  0.12475311  0.62750603  0.62507510  1
  Zn  Zn6  1  0.62266576  0.62750603  0.62507510  1
  N  N0  1  0.00132785  0.99935892  0.99798638  1
  N  N1  1  0.25011896  0.24824231  0.25151978  1
loop_
_geom_bond_atom_site_label_1
_geom_bond_atom_site_label_2
_geom_bond_distance
_geom_bond_site_symmetry_2
Ta0 Zn2 2.717434 1_554
Ta0 Zn4 2.940461 1_555
Ta0 Zn0 2.955109 1_555
Ta0 Zn5 2.966611 1_555
Ta1 Zn0 2.717453 1_545
Ta1 Zn6 2.928857 1_545
Ta1 Zn2 2.953162 1_545
Ta1 Zn3 2.965391 1_555
Ta2 Zn0 2.717076 1_545
Ta2 Zn4 2.922813 1_545
Ta2 Zn3 2.953596 1_554
Ta2 Zn2 2.957541 1_544
Ta2 Zn1 2.957545 1_544
Ta3 Zn2 2.953475 1_554
Ta3 Zn6 2.962458 1_554
Ta3 Zn4 2.972654 1_555
Ta4 Zn1 2.724141 1_455
Ta4 Zn2 2.724158 1_555
Ta4 Zn5 2.936343 1_555
Ta4 Zn6 2.936343 1_555
Ta4 Zn0 2.954235 1_555
Ta5 Zn1 2.953465 1_454
Ta5 Zn5 2.962456 1_554
Ta5 Zn4 2.972648 1_455
Ta6 Zn1 2.717427 1_554
Ta6 Zn4 2.940460 1_555
Ta6 Zn0 2.955130 1_555
Ta6 Zn6 2.966611 1_555
Ta7 Zn5 2.966255 1_555
Ta7 Zn6 2.966255 1_455
Ta8 Zn2 2.716571 1_545
Ta8 Zn3 2.939413 1_555
Ta8 Zn5 2.969916 1_555
Ta9 Zn3 2.973575 1_555
Ta9 Zn4 2.982264 1_555
Ta10 Zn1 2.716564 1_545
Ta10 Zn3 2.939419 1_555
Ta10 Zn6 2.969916 1_555
Ta11 Zn0 2.717439 1_545
Ta11 Zn5 2.928857 1_545
Ta11 Zn1 2.953155 1_445
Ta11 Zn3 2.965398 1_455
Al0 Zn4 2.505174 1_556
Al0 Zn5 2.517127 1_655
Al0 Zn6 2.517133 1_555
Al0 Ta9 2.712122 1_556
Al0 Ta8 2.726560 1_655
Al0 Ta10 2.726565 1_555
Al0 Zn2 2.732561 1_555
Al0 Zn1 2.732565 1_555
Al0 Al4 2.757109 1_555
Al0 Ta5 2.950670 1_656
Al0 Ta3 2.950684 1_556
Al0 Ta7 2.953359 1_655
Al1 Zn5 2.504433 1_555
Al1 Zn6 2.504439 1_555
Al1 Zn3 2.506431 1_555
Al1 Ta3 2.709678 1_556
Al1 Ta5 2.709678 1_556
Al1 Ta2 2.720211 1_556
Al1 Zn0 2.743416 1_555
Al1 Al2 2.766098 1_555
Al1 Al3 2.766102 1_555
Al1 Ta4 2.938229 1_555
Al1 Ta8 2.943074 1_555
Al1 Ta10 2.943082 1_555
Al2 Zn4 2.515472 1_555
Al2 Zn6 2.516741 1_555
Al2 Zn3 2.523558 1_555
Al2 Ta5 2.708572 1_655
Al2 Ta7 2.712957 1_655
Al2 Ta11 2.722060 1_655
Al2 Zn0 2.735368 1_555
Al2 Al3 2.757212 1_555
Al2 Ta6 2.944712 1_555
Al2 Ta9 2.946943 1_555
Al2 Ta10 2.950298 1_555
Al3 Zn4 2.515481 1_555
Al3 Zn5 2.516737 1_555
Al3 Zn3 2.523563 1_555
Al3 Ta3 2.708568 1_555
Al3 Ta7 2.712941 1_555
Al3 Ta1 2.722053 1_555
Al3 Zn0 2.735364 1_555
Al3 Ta0 2.944705 1_555
Al3 Ta9 2.946955 1_555
Al3 Ta8 2.950292 1_555
Al4 Zn3 2.497055 1_565
Al4 Zn5 2.503673 1_655
Al4 Zn6 2.503679 1_555
Al4 Ta9 2.712167 1_565
Al4 Ta0 2.724955 1_655
Al4 Ta6 2.724959 1_555
Al4 Zn2 2.741662 1_555
Al4 Zn1 2.741666 1_555
Al4 Ta11 2.943696 1_665
Al4 Ta1 2.943703 1_565
Al4 Ta7 2.945633 1_655
Zn0 Zn4 2.485046 1_555
Zn0 Zn5 2.490659 1_555
Zn0 Zn6 2.490679 1_555
Zn1 Zn4 2.482544 1_556
Zn1 Zn5 2.486052 1_655
Zn1 Zn3 2.487652 1_565
Zn1 Zn2 2.731588 1_555
Zn2 Zn4 2.482535 1_556
Zn2 Zn6 2.486057 1_555
Zn2 Zn3 2.487638 1_565
N0 Ta4 2.170583 1_555
N0 Ta0 2.183381 1_556
N0 Ta6 2.183387 1_456
N0 Ta8 2.187978 1_565
N0 Ta10 2.187984 1_465
N0 Ta9 2.198724 1_466
N1 Ta2 2.173763 1_555
N1 Ta11 2.176787 1_555
N1 Ta1 2.176787 1_555
N1 Ta3 2.187144 1_555
N1 Ta5 2.187150 1_555
N1 Ta7 2.191859 1_555
