# generated using pymatgen
data_Cs6Rb2SnSb4
_symmetry_space_group_name_H-M   'P 1'
_cell_length_a   12.38394997
_cell_length_b   12.38395025
_cell_length_c   12.38394847
_cell_angle_alpha   59.99999948
_cell_angle_beta   59.99999876
_cell_angle_gamma   59.99999687
_symmetry_Int_Tables_number   1
_chemical_formula_structural   Cs6Rb2SnSb4
_chemical_formula_sum   'Cs12 Rb4 Sn2 Sb8'
_cell_volume   1342.95824493
_cell_formula_units_Z   2
loop_
 _symmetry_equiv_pos_site_id
 _symmetry_equiv_pos_as_xyz
  1  'x, y, z'
loop_
 _atom_site_type_symbol
 _atom_site_label
 _atom_site_symmetry_multiplicity
 _atom_site_fract_x
 _atom_site_fract_y
 _atom_site_fract_z
 _atom_site_occupancy
  Cs  Cs0  1  0.02258048  0.02258048  0.47741952  1
  Cs  Cs1  1  0.77258048  0.22741952  0.22741952  1
  Cs  Cs2  1  0.22741952  0.77258048  0.77258048  1
  Cs  Cs3  1  0.77258048  0.77258048  0.22741952  1
  Cs  Cs4  1  0.77258048  0.22741952  0.77258048  1
  Cs  Cs5  1  0.22741952  0.77258048  0.22741952  1
  Cs  Cs6  1  0.47741952  0.02258048  0.47741952  1
  Cs  Cs7  1  0.47741952  0.02258048  0.02258048  1
  Cs  Cs8  1  0.02258048  0.47741952  0.47741952  1
  Cs  Cs9  1  0.02258048  0.47741952  0.02258048  1
  Cs  Cs10  1  0.22741952  0.22741952  0.77258048  1
  Cs  Cs11  1  0.47741952  0.47741952  0.02258048  1
  Rb  Rb0  1  0.62500000  0.12500000  0.62500000  1
  Rb  Rb1  1  0.62500000  0.62500000  0.12500000  1
  Rb  Rb2  1  0.12500000  0.62500000  0.62500000  1
  Rb  Rb3  1  0.62500000  0.62500000  0.62500000  1
  Sn  Sn0  1  0.75000000  0.75000000  0.75000000  1
  Sn  Sn1  1  0.50000000  0.50000000  0.50000000  1
  Sb  Sb0  1  0.40332024  0.79003828  0.40332024  1
  Sb  Sb1  1  0.84667976  0.84667976  0.45996172  1
  Sb  Sb2  1  0.45996172  0.84667976  0.84667976  1
  Sb  Sb3  1  0.84667976  0.84667976  0.84667976  1
  Sb  Sb4  1  0.79003828  0.40332024  0.40332024  1
  Sb  Sb5  1  0.40332024  0.40332024  0.40332024  1
  Sb  Sb6  1  0.40332024  0.40332024  0.79003828  1
  Sb  Sb7  1  0.84667976  0.45996172  0.84667976  1
loop_
_geom_bond_atom_site_label_1
_geom_bond_atom_site_label_2
_geom_bond_distance
_geom_bond_site_symmetry_2
Cs0 Sb1 3.901822 1_445
Cs0 Sb3 3.901829 1_445
Cs0 Sb0 4.013048 1_545
Cs0 Sb4 4.013048 1_455
Cs0 Rb0 4.033063 1_455
Cs0 Rb2 4.033063 1_545
Cs1 Sb4 3.901822 1_555
Cs1 Sb5 3.901829 1_555
Cs1 Sb7 4.013048 1_554
Cs1 Sb1 4.013048 1_545
Cs1 Rb0 4.033062 1_555
Cs1 Rb1 4.033063 1_555
Cs2 Sb0 3.901832 1_555
Cs2 Sb6 3.901832 1_555
Cs2 Sb3 4.013045 1_455
Cs2 Sb2 4.013057 1_555
Cs2 Rb3 4.033063 1_555
Cs2 Rb2 4.033063 1_555
Cs3 Sb0 3.901832 1_555
Cs3 Sb4 3.901833 1_555
Cs3 Sb3 4.013045 1_554
Cs3 Sb1 4.013057 1_555
Cs3 Rb3 4.033062 1_555
Cs3 Rb1 4.033063 1_555
Cs4 Sb4 3.901832 1_555
Cs4 Sb6 3.901832 1_555
Cs4 Sb3 4.013046 1_545
Cs4 Sb7 4.013057 1_555
Cs4 Rb0 4.033063 1_555
Cs4 Rb3 4.033063 1_555
Cs5 Sb0 3.901822 1_555
Cs5 Sb5 3.901829 1_555
Cs5 Sb2 4.013048 1_554
Cs5 Sb1 4.013048 1_455
Cs5 Rb2 4.033062 1_555
Cs5 Rb1 4.033063 1_555
Cs6 Sb2 3.901832 1_545
Cs6 Sb1 3.901832 1_545
Cs6 Sb5 4.013046 1_555
Cs6 Sb0 4.013057 1_545
Cs6 Rb0 4.033063 1_555
Cs6 Rb3 4.033063 1_545
Cs7 Sb2 3.901822 1_544
Cs7 Sb3 3.901829 1_544
Cs7 Sb0 4.013048 1_545
Cs7 Sb6 4.013048 1_554
Cs7 Rb0 4.033062 1_554
Cs7 Rb1 4.033063 1_545
Cs8 Sb7 3.901832 1_455
Cs8 Sb1 3.901832 1_455
Cs8 Sb5 4.013045 1_555
Cs8 Sb4 4.013057 1_455
Cs8 Rb3 4.033063 1_455
Cs8 Rb2 4.033063 1_555
Cs9 Sb7 3.901822 1_454
Cs9 Sb3 3.901829 1_454
Cs9 Sb4 4.013048 1_455
Cs9 Sb6 4.013048 1_554
Cs9 Rb2 4.033062 1_554
Cs9 Rb1 4.033063 1_455
Cs10 Sb6 3.901822 1_555
Cs10 Sb5 3.901829 1_555
Cs10 Sb7 4.013048 1_455
Cs10 Sb2 4.013048 1_545
Cs10 Rb0 4.033063 1_555
Cs10 Rb2 4.033063 1_555
Cs11 Sb7 3.901832 1_554
Cs11 Sb2 3.901833 1_554
Cs11 Sb5 4.013045 1_555
Cs11 Sb6 4.013057 1_554
Cs11 Rb3 4.033062 1_554
Cs11 Rb1 4.033063 1_555
Rb0 Sn0 3.791795 1_545
Rb0 Sn1 3.791795 1_555
Rb0 Sb6 3.945247 1_555
Rb0 Sb1 3.945247 1_545
Rb0 Sb4 3.945247 1_555
Rb0 Sb2 3.945247 1_545
Rb0 Sb3 3.945254 1_545
Rb0 Sb5 3.945254 1_555
Rb1 Sn1 3.791794 1_555
Rb1 Sn0 3.791794 1_554
Rb1 Sb0 3.945247 1_555
Rb1 Sb7 3.945247 1_554
Rb1 Sb4 3.945247 1_555
Rb1 Sb2 3.945247 1_554
Rb1 Sb3 3.945255 1_554
Rb1 Sb5 3.945255 1_555
Rb2 Sn0 3.791795 1_455
Rb2 Sn1 3.791795 1_555
Rb2 Sb6 3.945247 1_555
Rb2 Sb1 3.945247 1_455
Rb2 Sb0 3.945247 1_555
Rb2 Sb7 3.945247 1_455
Rb2 Sb3 3.945254 1_455
Rb2 Sb5 3.945254 1_555
Rb3 Sn0 3.791795 1_555
Rb3 Sn1 3.791795 1_555
Rb3 Sb7 3.945257 1_555
Rb3 Sb0 3.945257 1_555
Rb3 Sb2 3.945257 1_555
Rb3 Sb4 3.945257 1_555
Rb3 Sb1 3.945257 1_555
Rb3 Sb6 3.945257 1_555
Sb0 Sn1 2.932708 1_555
Sb1 Sn0 2.932708 1_555
Sb2 Sn0 2.932708 1_555
Sb3 Sn0 2.932718 1_555
Sb4 Sn1 2.932708 1_555
Sb5 Sn1 2.932718 1_555
Sb6 Sn1 2.932708 1_555
Sb7 Sn0 2.932708 1_555
