# generated using pymatgen
data_Lu2BIr5Rh
_symmetry_space_group_name_H-M   'P 1'
_cell_length_a   5.74428114
_cell_length_b   5.74428146
_cell_length_c   5.73700425
_cell_angle_alpha   60.04189860
_cell_angle_beta   60.04189682
_cell_angle_gamma   59.91619381
_symmetry_Int_Tables_number   1
_chemical_formula_structural   Lu2BIr5Rh
_chemical_formula_sum   'Lu2 B1 Ir5 Rh1'
_cell_volume   133.85670934
_cell_formula_units_Z   1
loop_
 _symmetry_equiv_pos_site_id
 _symmetry_equiv_pos_as_xyz
  1  'x, y, z'
loop_
 _atom_site_type_symbol
 _atom_site_label
 _atom_site_symmetry_multiplicity
 _atom_site_fract_x
 _atom_site_fract_y
 _atom_site_fract_z
 _atom_site_occupancy
  Lu  Lu0  1  0.74984895  0.74984895  0.75015105  1
  Lu  Lu1  1  0.24984895  0.24984895  0.25015105  1
  B  B0  1  0.00027236  0.00027236  0.99972764  1
  Ir  Ir0  1  0.25834210  0.74122804  0.25877196  1
  Ir  Ir1  1  0.74122804  0.25834210  0.25877196  1
  Ir  Ir2  1  0.25914058  0.25914058  0.74085942  1
  Ir  Ir3  1  0.74122804  0.25834210  0.74165790  1
  Ir  Ir4  1  0.25834210  0.74122804  0.74165790  1
  Rh  Rh0  1  0.74174686  0.74174686  0.25825314  1
loop_
_geom_bond_atom_site_label_1
_geom_bond_atom_site_label_2
_geom_bond_distance
_geom_bond_site_symmetry_2
Lu0 Rh0 2.869259 1_556
Lu0 Rh0 2.869259 1_555
Lu1 Rh0 2.869259 1_455
Lu1 Rh0 2.869259 1_545
B0 Ir1 2.097767 1_456
B0 Ir3 2.097767 1_455
B0 Ir0 2.097767 1_546
B0 Ir4 2.097767 1_545
B0 Rh0 2.102826 1_446
B0 Ir2 2.105613 1_555
Ir0 Lu0 2.872612 1_455
Ir0 Lu1 2.872612 1_555
Ir0 Lu0 2.873347 1_554
Ir0 Lu1 2.873347 1_565
Ir1 Lu1 2.872612 1_555
Ir1 Lu0 2.872612 1_545
Ir1 Lu1 2.873347 1_655
Ir1 Lu0 2.873347 1_554
Ir2 Lu0 2.869497 1_455
Ir2 Lu0 2.869497 1_545
Ir2 Lu1 2.869498 1_555
Ir2 Lu1 2.869498 1_556
Ir3 Lu1 2.872612 1_556
Ir3 Lu0 2.872612 1_545
Ir3 Lu1 2.873347 1_655
Ir3 Lu0 2.873347 1_555
Ir4 Lu0 2.872612 1_455
Ir4 Lu1 2.872612 1_556
Ir4 Lu0 2.873347 1_555
Ir4 Lu1 2.873347 1_565
