# generated using pymatgen
data_MgNb5(SiTc)6
_symmetry_space_group_name_H-M   'P 1'
_cell_length_a   7.62874028
_cell_length_b   7.52336583
_cell_length_c   7.62874020
_cell_angle_alpha   125.99553235
_cell_angle_beta   128.78232452
_cell_angle_gamma   77.94489555
_symmetry_Int_Tables_number   1
_chemical_formula_structural   MgNb5(SiTc)6
_chemical_formula_sum   'Mg1 Nb5 Si6 Tc6'
_cell_volume   267.19185350
_cell_formula_units_Z   1
loop_
 _symmetry_equiv_pos_site_id
 _symmetry_equiv_pos_as_xyz
  1  'x, y, z'
loop_
 _atom_site_type_symbol
 _atom_site_label
 _atom_site_symmetry_multiplicity
 _atom_site_fract_x
 _atom_site_fract_y
 _atom_site_fract_z
 _atom_site_occupancy
  Mg  Mg0  1  0.55135838  0.10055830  0.04920092  1
  Nb  Nb0  1  0.44940957  0.48872949  0.53931992  1
  Nb  Nb1  1  0.95025222  0.49174295  0.04149074  1
  Nb  Nb2  1  0.04933901  0.09463297  0.54529495  1
  Nb  Nb3  1  0.74884123  0.89998108  0.65113985  1
  Nb  Nb4  1  0.24482164  0.89408049  0.14925785  1
  Si  Si0  1  0.74944851  0.49783575  0.24838823  1
  Si  Si1  1  0.25415705  0.50306617  0.74890912  1
  Si  Si2  1  0.33566306  0.82909131  0.50107551  1
  Si  Si3  1  0.66388777  0.16064716  0.49184239  1
  Si  Si4  1  0.82801581  0.82909131  0.99342726  1
  Si  Si5  1  0.16880476  0.16064716  0.99675838  1
  Tc  Tc0  1  0.49954278  0.24281214  0.74146331  1
  Tc  Tc1  1  0.00134783  0.24281214  0.24326836  1
  Tc  Tc2  1  0.12357729  0.75548917  0.62011185  1
  Tc  Tc3  1  0.87849259  0.49774612  0.63008396  1
  Tc  Tc4  1  0.63537731  0.75548917  0.13191288  1
  Tc  Tc5  1  0.36766216  0.49774612  0.11925453  1
loop_
_geom_bond_atom_site_label_1
_geom_bond_atom_site_label_2
_geom_bond_distance
_geom_bond_site_symmetry_2
Mg0 Si3 2.660893 1_555
Mg0 Si5 2.660894 1_554
Mg0 Si4 2.666389 1_544
Mg0 Si2 2.666391 1_544
Mg0 Si0 2.682807 1_555
Mg0 Tc2 2.876178 1_544
Mg0 Tc4 2.876178 1_545
Mg0 Tc1 2.902955 1_655
Mg0 Tc0 2.902963 1_554
Mg0 Tc3 2.913865 1_555
Mg0 Tc5 2.913868 1_555
Nb0 Si3 2.627805 1_555
Nb0 Si5 2.627809 1_554
Nb0 Si4 2.651034 1_555
Nb0 Si2 2.651035 1_555
Nb0 Si1 2.738706 1_555
Nb0 Tc0 2.875160 1_555
Nb0 Tc1 2.875164 1_555
Nb0 Tc5 2.897776 1_555
Nb0 Tc3 2.897783 1_555
Nb0 Tc2 2.994626 1_555
Nb0 Tc4 2.994632 1_556
Nb1 Si5 2.660814 1_654
Nb1 Si3 2.660815 1_554
Nb1 Si2 2.668776 1_655
Nb1 Si4 2.668779 1_554
Nb1 Si0 2.784700 1_555
Nb1 Tc5 2.855857 1_655
Nb1 Tc3 2.855861 1_554
Nb1 Tc1 2.891503 1_655
Nb1 Tc0 2.891507 1_554
Nb1 Tc2 2.942634 1_655
Nb1 Tc4 2.942636 1_555
Nb2 Si2 2.680330 1_545
Nb2 Si4 2.680340 1_444
Nb2 Si5 2.680559 1_555
Nb2 Si3 2.680570 1_455
Nb2 Si1 2.766025 1_555
Nb2 Tc2 2.803557 1_545
Nb2 Tc4 2.803562 1_445
Nb2 Tc5 2.900679 1_556
Nb2 Tc3 2.900680 1_455
Nb2 Tc0 2.911634 1_555
Nb2 Tc1 2.911641 1_555
Nb3 Si4 2.644688 1_555
Nb3 Si2 2.644695 1_555
Nb3 Si3 2.650751 1_565
Nb3 Si5 2.650752 1_665
Nb3 Si0 2.771117 1_555
Nb3 Tc1 2.871914 1_666
Nb3 Tc0 2.871917 1_565
Nb3 Tc5 2.922180 1_555
Nb3 Tc3 2.922181 1_555
Nb3 Tc4 2.942343 1_555
Nb3 Tc2 2.942351 1_655
Nb4 Si4 2.644553 1_454
Nb4 Si2 2.644560 1_555
Nb4 Si3 2.668932 1_565
Nb4 Si5 2.668933 1_564
Nb4 Si1 2.758792 1_554
Nb4 Tc3 2.849699 1_454
Nb4 Tc5 2.849705 1_555
Nb4 Tc1 2.875624 1_565
Nb4 Tc0 2.875624 1_565
Nb4 Tc2 3.002641 1_554
Nb4 Tc4 3.002641 1_555
Si0 Tc4 2.378155 1_555
Si0 Tc2 2.378155 1_655
Si0 Tc1 2.416896 1_655
Si0 Tc0 2.416905 1_554
Si0 Tc3 2.420549 1_555
Si0 Tc5 2.420557 1_555
Si1 Tc2 2.396079 1_555
Si1 Tc4 2.396079 1_556
Si1 Tc3 2.405673 1_455
Si1 Tc5 2.405681 1_556
Si1 Tc0 2.410957 1_555
Si1 Tc1 2.410962 1_555
Si2 Tc2 2.560251 1_555
Si2 Tc0 2.580311 1_565
Si2 Tc5 2.619116 1_555
Si3 Tc4 2.562955 1_545
Si3 Tc3 2.579139 1_555
Si3 Tc0 2.619887 1_555
Si4 Tc4 2.560265 1_556
Si4 Tc1 2.580309 1_666
Si4 Tc3 2.619116 1_555
Si5 Tc2 2.562955 1_545
Si5 Tc5 2.579130 1_556
Si5 Tc1 2.619894 1_556
