# generated using pymatgen
data_Cs2Cr(WO4)3
_symmetry_space_group_name_H-M   'P 1'
_cell_length_a   7.16179586
_cell_length_b   7.16179604
_cell_length_c   7.16179649
_cell_angle_alpha   61.15675627
_cell_angle_beta   61.15675699
_cell_angle_gamma   61.15675760
_symmetry_Int_Tables_number   1
_chemical_formula_structural   Cs2Cr(WO4)3
_chemical_formula_sum   'Cs2 Cr1 W3 O12'
_cell_volume   266.50789998
_cell_formula_units_Z   1
loop_
 _symmetry_equiv_pos_site_id
 _symmetry_equiv_pos_as_xyz
  1  'x, y, z'
loop_
 _atom_site_type_symbol
 _atom_site_label
 _atom_site_symmetry_multiplicity
 _atom_site_fract_x
 _atom_site_fract_y
 _atom_site_fract_z
 _atom_site_occupancy
  Cs  Cs0  1  0.63014341  0.63014341  0.63014341  1
  Cs  Cs1  1  0.36985659  0.36985659  0.36985659  1
  Cr  Cr0  1  0.00000000  0.00000000  0.00000000  1
  W  W0  1  0.50000000  0.00000000  0.00000000  1
  W  W1  1  0.00000000  0.00000000  0.50000000  1
  W  W2  1  0.00000000  0.50000000  0.00000000  1
  O  O0  1  0.94319488  0.31381338  0.31381338  1
  O  O1  1  0.30652450  0.94279552  0.94279552  1
  O  O2  1  0.31381338  0.31381338  0.94319488  1
  O  O3  1  0.94279552  0.94279552  0.30652450  1
  O  O4  1  0.94279552  0.30652450  0.94279552  1
  O  O5  1  0.31381338  0.94319488  0.31381338  1
  O  O6  1  0.05680512  0.68618662  0.68618662  1
  O  O7  1  0.69347550  0.05720448  0.05720448  1
  O  O8  1  0.68618662  0.68618662  0.05680512  1
  O  O9  1  0.05720448  0.05720448  0.69347550  1
  O  O10  1  0.05720448  0.69347550  0.05720448  1
  O  O11  1  0.68618662  0.05680512  0.68618662  1
loop_
_geom_bond_atom_site_label_1
_geom_bond_atom_site_label_2
_geom_bond_distance
_geom_bond_site_symmetry_2
Cs0 O3 3.197259 1_555
Cs0 O4 3.197259 1_555
Cs0 O1 3.197259 1_555
Cs0 O2 3.231442 1_555
Cs0 O5 3.231442 1_555
Cs0 O0 3.231442 1_555
Cs1 O9 3.197259 1_555
Cs1 O10 3.197259 1_555
Cs1 O7 3.197259 1_555
Cs1 O8 3.231442 1_555
Cs1 O11 3.231442 1_555
Cs1 O6 3.231442 1_555
Cr0 O1 1.892442 1_544
Cr0 O7 1.892442 1_455
Cr0 O4 1.892442 1_454
Cr0 O10 1.892442 1_545
Cr0 O3 1.892443 1_445
Cr0 O9 1.892443 1_554
O0 W1 1.935055 1_655
O0 W2 1.935055 1_655
O1 W0 1.874306 1_566
O2 W2 1.935055 1_556
O2 W0 1.935055 1_556
O3 W1 1.874306 1_665
O4 W2 1.874306 1_656
O5 W1 1.935055 1_565
O5 W0 1.935055 1_565
O6 W1 1.935055 1_565
O6 W2 1.935055 1_556
O7 W0 1.874306 1_555
O8 W2 1.935055 1_655
O8 W0 1.935055 1_565
O9 W1 1.874306 1_555
O10 W2 1.874306 1_555
O11 W1 1.935055 1_655
O11 W0 1.935055 1_556
