# generated using pymatgen
data_Sc6Ti8Ga8Ir7
_symmetry_space_group_name_H-M   'P 1'
_cell_length_a   8.81950731
_cell_length_b   8.81950739
_cell_length_c   8.81950714
_cell_angle_alpha   59.99999723
_cell_angle_beta   59.99999697
_cell_angle_gamma   59.99999825
_symmetry_Int_Tables_number   1
_chemical_formula_structural   Sc6Ti8Ga8Ir7
_chemical_formula_sum   'Sc6 Ti8 Ga8 Ir7'
_cell_volume   485.08511288
_cell_formula_units_Z   1
loop_
 _symmetry_equiv_pos_site_id
 _symmetry_equiv_pos_as_xyz
  1  'x, y, z'
loop_
 _atom_site_type_symbol
 _atom_site_label
 _atom_site_symmetry_multiplicity
 _atom_site_fract_x
 _atom_site_fract_y
 _atom_site_fract_z
 _atom_site_occupancy
  Sc  Sc0  1  0.69594970  0.69594970  0.30405030  1
  Sc  Sc1  1  0.30405030  0.69594970  0.30405030  1
  Sc  Sc2  1  0.69594970  0.30405030  0.30405030  1
  Sc  Sc3  1  0.30405030  0.30405030  0.69594970  1
  Sc  Sc4  1  0.69594970  0.30405030  0.69594970  1
  Sc  Sc5  1  0.30405030  0.69594970  0.69594970  1
  Ti  Ti0  1  0.87716933  0.87716933  0.36849100  1
  Ti  Ti1  1  0.87716933  0.36849100  0.87716933  1
  Ti  Ti2  1  0.36849100  0.87716933  0.87716933  1
  Ti  Ti3  1  0.87716933  0.87716933  0.87716933  1
  Ti  Ti4  1  0.12283067  0.12283067  0.63150900  1
  Ti  Ti5  1  0.12283067  0.63150900  0.12283067  1
  Ti  Ti6  1  0.63150900  0.12283067  0.12283067  1
  Ti  Ti7  1  0.12283067  0.12283067  0.12283067  1
  Ga  Ga0  1  0.65997771  0.65997771  0.02006686  1
  Ga  Ga1  1  0.65997771  0.02006686  0.65997771  1
  Ga  Ga2  1  0.02006686  0.65997771  0.65997771  1
  Ga  Ga3  1  0.65997771  0.65997771  0.65997771  1
  Ga  Ga4  1  0.34002229  0.34002229  0.97993314  1
  Ga  Ga5  1  0.34002229  0.97993314  0.34002229  1
  Ga  Ga6  1  0.97993314  0.34002229  0.34002229  1
  Ga  Ga7  1  0.34002229  0.34002229  0.34002229  1
  Ir  Ir0  1  0.00000000  0.00000000  0.00000000  1
  Ir  Ir1  1  0.00000000  0.00000000  0.50000000  1
  Ir  Ir2  1  0.50000000  0.00000000  0.50000000  1
  Ir  Ir3  1  0.00000000  0.50000000  0.50000000  1
  Ir  Ir4  1  0.50000000  0.50000000  0.00000000  1
  Ir  Ir5  1  0.00000000  0.50000000  0.00000000  1
  Ir  Ir6  1  0.50000000  0.00000000  0.00000000  1
loop_
_geom_bond_atom_site_label_1
_geom_bond_atom_site_label_2
_geom_bond_distance
_geom_bond_site_symmetry_2
Sc0 Ti0 3.130989 1_555
Sc0 Ti3 3.130994 1_554
Sc0 Ti5 3.130996 1_655
Sc0 Ti6 3.130996 1_565
Sc1 Ti5 3.130989 1_555
Sc1 Ti7 3.130995 1_565
Sc1 Ti2 3.130996 1_554
Sc1 Ti0 3.130996 1_455
Sc2 Ti6 3.130989 1_555
Sc2 Ti7 3.130995 1_655
Sc2 Ti1 3.130996 1_554
Sc2 Ti0 3.130996 1_545
Sc3 Ti4 3.130989 1_555
Sc3 Ti7 3.130994 1_556
Sc3 Ti1 3.130996 1_455
Sc3 Ti2 3.130996 1_545
Sc4 Ti1 3.130989 1_555
Sc4 Ti3 3.130995 1_545
Sc4 Ti6 3.130996 1_556
Sc4 Ti4 3.130996 1_655
Sc5 Ti2 3.130989 1_555
Sc5 Ti3 3.130995 1_455
Sc5 Ti5 3.130996 1_556
Sc5 Ti4 3.130996 1_565
Ti0 Ti5 3.064039 1_655
Ti0 Ti6 3.064039 1_565
Ti0 Ti7 3.064052 1_665
Ti1 Ti6 3.064039 1_556
Ti1 Ti4 3.064039 1_655
Ti1 Ti7 3.064052 1_656
Ti2 Ti5 3.064039 1_556
Ti2 Ti4 3.064039 1_565
Ti2 Ti7 3.064052 1_566
Ti3 Ti4 3.064052 1_665
Ti3 Ti5 3.064052 1_656
Ti3 Ti6 3.064052 1_566
Ga0 Ir5 2.550070 1_655
Ga0 Ir6 2.550070 1_565
Ga0 Ir4 2.550070 1_555
Ga0 Ti3 2.787076 1_554
Ga0 Ti2 2.787083 1_554
Ga0 Ti1 2.787083 1_554
Ga0 Sc1 2.857295 1_555
Ga0 Sc2 2.857295 1_555
Ga0 Sc0 2.857295 1_555
Ga1 Ir6 2.550070 1_556
Ga1 Ir1 2.550070 1_655
Ga1 Ir2 2.550070 1_555
Ga1 Ti3 2.787076 1_545
Ga1 Ti0 2.787083 1_545
Ga1 Ti2 2.787083 1_545
Ga1 Sc2 2.857295 1_555
Ga1 Sc3 2.857295 1_555
Ga1 Sc4 2.857295 1_555
Ga2 Ir5 2.550070 1_556
Ga2 Ir1 2.550070 1_565
Ga2 Ir3 2.550070 1_555
Ga2 Ti3 2.787076 1_455
Ga2 Ti0 2.787083 1_455
Ga2 Ti1 2.787083 1_455
Ga2 Sc1 2.857295 1_555
Ga2 Sc3 2.857295 1_555
Ga2 Sc5 2.857295 1_555
Ga3 Ir4 2.550070 1_556
Ga3 Ir3 2.550070 1_655
Ga3 Ir2 2.550070 1_565
Ga3 Ti0 2.787078 1_555
Ga3 Ti2 2.787078 1_555
Ga3 Ti1 2.787078 1_555
Ga3 Sc0 2.857295 1_555
Ga3 Sc5 2.857295 1_555
Ga3 Sc4 2.857295 1_555
Ga4 Ir5 2.550070 1_556
Ga4 Ir6 2.550070 1_556
Ga4 Ir4 2.550070 1_556
Ga4 Ti7 2.787076 1_556
Ga4 Ti6 2.787083 1_556
Ga4 Ti5 2.787083 1_556
Ga4 Sc4 2.857295 1_555
Ga4 Sc5 2.857295 1_555
Ga4 Sc3 2.857295 1_555
Ga5 Ir6 2.550070 1_565
Ga5 Ir1 2.550070 1_565
Ga5 Ir2 2.550070 1_565
Ga5 Ti7 2.787076 1_565
Ga5 Ti4 2.787083 1_565
Ga5 Ti6 2.787083 1_565
Ga5 Sc5 2.857295 1_555
Ga5 Sc0 2.857295 1_555
Ga5 Sc1 2.857295 1_555
Ga6 Ir5 2.550070 1_655
Ga6 Ir1 2.550070 1_655
Ga6 Ir3 2.550070 1_655
Ga6 Ti7 2.787076 1_655
Ga6 Ti4 2.787083 1_655
Ga6 Ti5 2.787083 1_655
Ga6 Sc4 2.857295 1_555
Ga6 Sc0 2.857295 1_555
Ga6 Sc2 2.857295 1_555
Ga7 Ir4 2.550070 1_555
Ga7 Ir3 2.550070 1_555
Ga7 Ir2 2.550070 1_555
Ga7 Ti4 2.787078 1_555
Ga7 Ti6 2.787078 1_555
Ga7 Ti5 2.787078 1_555
Ga7 Sc3 2.857295 1_555
Ga7 Sc2 2.857295 1_555
Ga7 Sc1 2.857295 1_555
Ir0 Ti0 2.653539 1_445
Ir0 Ti4 2.653539 1_554
Ir0 Ti2 2.653540 1_544
Ir0 Ti6 2.653540 1_455
Ir0 Ti1 2.653540 1_454
Ir0 Ti5 2.653540 1_545
Ir0 Ti7 2.653547 1_555
Ir0 Ti3 2.653547 1_444
Ir1 Ti3 2.716392 1_445
Ir1 Ti7 2.716392 1_555
Ir1 Ti4 2.716400 1_555
Ir1 Ti0 2.716400 1_445
Ir2 Ti2 2.716393 1_545
Ir2 Ti6 2.716393 1_555
Ir2 Ti0 2.716393 1_545
Ir2 Ti4 2.716393 1_555
Ir3 Ti1 2.716393 1_455
Ir3 Ti5 2.716393 1_555
Ir3 Ti0 2.716393 1_455
Ir3 Ti4 2.716393 1_555
Ir4 Ti1 2.716393 1_554
Ir4 Ti5 2.716393 1_555
Ir4 Ti2 2.716393 1_554
Ir4 Ti6 2.716393 1_555
Ir5 Ti3 2.716392 1_454
Ir5 Ti7 2.716392 1_555
Ir5 Ti5 2.716400 1_555
Ir5 Ti1 2.716400 1_454
Ir6 Ti3 2.716392 1_544
Ir6 Ti7 2.716392 1_555
Ir6 Ti6 2.716400 1_555
Ir6 Ti2 2.716400 1_544
