# generated using pymatgen
data_Y15Lu(In3Rh)2
_symmetry_space_group_name_H-M   'P 1'
_cell_length_a   10.42759357
_cell_length_b   10.42759325
_cell_length_c   7.05945488
_cell_angle_alpha   90.00000000
_cell_angle_beta   90.00000000
_cell_angle_gamma   120.00000100
_symmetry_Int_Tables_number   1
_chemical_formula_structural   Y15Lu(In3Rh)2
_chemical_formula_sum   'Y15 Lu1 In6 Rh2'
_cell_volume   664.76779576
_cell_formula_units_Z   1
loop_
 _symmetry_equiv_pos_site_id
 _symmetry_equiv_pos_as_xyz
  1  'x, y, z'
loop_
 _atom_site_type_symbol
 _atom_site_label
 _atom_site_symmetry_multiplicity
 _atom_site_fract_x
 _atom_site_fract_y
 _atom_site_fract_z
 _atom_site_occupancy
  Y  Y0  1  0.53397135  0.06794270  0.52325322  1
  Y  Y1  1  0.93205730  0.46602865  0.52325322  1
  Y  Y2  1  0.53397135  0.46602865  0.52325322  1
  Y  Y3  1  0.46618479  0.93237058  0.02318056  1
  Y  Y4  1  0.06762942  0.53381521  0.02318056  1
  Y  Y5  1  0.46618479  0.53381521  0.02318056  1
  Y  Y6  1  0.17496333  0.34992565  0.73169312  1
  Y  Y7  1  0.65007435  0.82503667  0.73169312  1
  Y  Y8  1  0.17496333  0.82503667  0.73169312  1
  Y  Y9  1  0.82509054  0.65018208  0.22896891  1
  Y  Y10  1  0.34981792  0.17490946  0.22896891  1
  Y  Y11  1  0.82509054  0.17490946  0.22896891  1
  Y  Y12  1  0.66666700  0.33333300  0.90428913  1
  Y  Y13  1  0.33333300  0.66666700  0.40326375  1
  Y  Y14  1  0.00000000  0.00000000  0.50751377  1
  Lu  Lu0  1  0.00000000  0.00000000  0.00666381  1
  In  In0  1  0.83676562  0.67353224  0.77200371  1
  In  In1  1  0.32646776  0.16323438  0.77200371  1
  In  In2  1  0.83676562  0.16323438  0.77200371  1
  In  In3  1  0.16325912  0.32651723  0.26899745  1
  In  In4  1  0.67348277  0.83674088  0.26899745  1
  In  In5  1  0.16325912  0.83674088  0.26899745  1
  Rh  Rh0  1  0.66666700  0.33333300  0.29557253  1
  Rh  Rh1  1  0.33333300  0.66666700  0.79408510  1
loop_
_geom_bond_atom_site_label_1
_geom_bond_atom_site_label_2
_geom_bond_distance
_geom_bond_site_symmetry_2
Lu0 Y14 3.523727 1_554
Lu0 Y9 3.527390 1_445
Lu0 Y10 3.527390 1_555
Lu0 Y11 3.527398 1_455
Lu0 Y14 3.535728 1_555
Lu0 Y6 3.708611 1_554
Lu0 Y7 3.708611 1_444
Lu0 Y8 3.708619 1_544
In0 Y7 3.072807 1_555
In0 Y8 3.072826 1_655
In0 Y12 3.210989 1_555
In0 Y9 3.232809 1_556
In0 Y2 3.301959 1_555
In0 Y1 3.301965 1_555
In0 Lu0 3.381721 1_666
In0 Y14 3.489710 1_665
In0 Y4 3.816987 1_656
In0 Y5 3.816987 1_556
In0 Y9 3.839325 1_555
In1 Y6 3.072807 1_555
In1 Y8 3.072826 1_545
In1 Y12 3.210989 1_555
In1 Y10 3.232809 1_556
In1 Y2 3.301959 1_555
In1 Y0 3.301965 1_555
In1 Lu0 3.381721 1_556
In1 Y14 3.489710 1_555
In1 Y5 3.816987 1_556
In1 Y3 3.816987 1_546
In1 Y10 3.839325 1_555
In2 Y7 3.072825 1_545
In2 Y6 3.072825 1_655
In2 Y12 3.210972 1_555
In2 Y11 3.232809 1_556
In2 Y1 3.301957 1_555
In2 Y0 3.301957 1_555
In2 Lu0 3.381729 1_656
In2 Y14 3.489717 1_655
In2 Y4 3.816987 1_656
In2 Y3 3.816987 1_546
In2 Y11 3.839325 1_555
In3 Y10 3.072289 1_555
In3 Y11 3.072308 1_455
In3 Y13 3.214657 1_555
In3 Y6 3.273212 1_555
In3 Y5 3.291476 1_555
In3 Y4 3.291489 1_555
In3 Y14 3.395527 1_555
In3 Lu0 3.481967 1_555
In3 Y6 3.798962 1_554
In3 Y2 3.828522 1_555
In3 Y1 3.828531 1_455
In4 Y9 3.072289 1_555
In4 Y11 3.072307 1_565
In4 Y13 3.214657 1_555
In4 Y7 3.273212 1_555
In4 Y5 3.291476 1_555
In4 Y3 3.291489 1_555
In4 Y14 3.395528 1_665
In4 Lu0 3.481967 1_665
In4 Y7 3.798962 1_554
In4 Y2 3.828522 1_555
In4 Y0 3.828531 1_565
In5 Y10 3.072306 1_565
In5 Y9 3.072306 1_455
In5 Y13 3.214640 1_555
In5 Y8 3.273212 1_555
In5 Y4 3.291472 1_555
In5 Y3 3.291472 1_555
In5 Y14 3.395535 1_565
In5 Lu0 3.481975 1_565
In5 Y8 3.798962 1_554
In5 Y1 3.828523 1_455
In5 Y0 3.828523 1_565
Rh0 Y12 2.762248 1_554
Rh0 Y0 2.885692 1_555
Rh0 Y1 2.885693 1_555
Rh0 Y2 2.885700 1_555
Rh0 Y11 2.899681 1_555
Rh0 Y9 2.899699 1_555
Rh0 Y10 2.899699 1_555
Rh1 Y13 2.758986 1_555
Rh1 Y3 2.893613 1_556
Rh1 Y5 2.893613 1_556
Rh1 Y4 2.893613 1_556
Rh1 Y8 2.894047 1_555
Rh1 Y6 2.894065 1_555
Rh1 Y7 2.894065 1_555
