# generated using pymatgen
data_Y16In4Ru3Au
_symmetry_space_group_name_H-M   'P 1'
_cell_length_a   9.68567256
_cell_length_b   9.68556997
_cell_length_c   9.68556978
_cell_angle_alpha   60.20295688
_cell_angle_beta   60.20358586
_cell_angle_gamma   60.20358472
_symmetry_Int_Tables_number   1
_chemical_formula_structural   Y16In4Ru3Au
_chemical_formula_sum   'Y16 In4 Ru3 Au1'
_cell_volume   645.44689607
_cell_formula_units_Z   1
loop_
 _symmetry_equiv_pos_site_id
 _symmetry_equiv_pos_as_xyz
  1  'x, y, z'
loop_
 _atom_site_type_symbol
 _atom_site_label
 _atom_site_symmetry_multiplicity
 _atom_site_fract_x
 _atom_site_fract_y
 _atom_site_fract_z
 _atom_site_occupancy
  Y  Y0  1  0.10503194  0.69700494  0.10500023  1
  Y  Y1  1  0.94271174  0.94271053  0.54704437  1
  Y  Y2  1  0.94271174  0.54704437  0.94271053  1
  Y  Y3  1  0.31141800  0.69084893  0.31139481  1
  Y  Y4  1  0.94260721  0.55927634  0.55927634  1
  Y  Y5  1  0.31141800  0.31139481  0.69084893  1
  Y  Y6  1  0.09603089  0.09599550  0.09599550  1
  Y  Y7  1  0.55924348  0.55929983  0.94261175  1
  Y  Y8  1  0.10503194  0.10500023  0.69700494  1
  Y  Y9  1  0.69129468  0.31383925  0.69130591  1
  Y  Y10  1  0.69129468  0.69130591  0.31383925  1
  Y  Y11  1  0.69083990  0.31140652  0.31140652  1
  Y  Y12  1  0.31384214  0.69130697  0.69130697  1
  Y  Y13  1  0.55924348  0.94261175  0.55929983  1
  Y  Y14  1  0.69698626  0.10501122  0.10501122  1
  Y  Y15  1  0.54702294  0.94270976  0.94270976  1
  In  In0  1  0.33359732  0.33357771  0.33357771  1
  In  In1  1  0.00172258  0.33162557  0.33162557  1
  In  In2  1  0.33163310  0.00172557  0.33162686  1
  In  In3  1  0.33163310  0.33162686  0.00172557  1
  Ru  Ru0  1  0.88737568  0.88739300  0.32809429  1
  Ru  Ru1  1  0.32809058  0.88738758  0.88738758  1
  Ru  Ru2  1  0.88737568  0.32809429  0.88739300  1
  Au  Au0  1  0.89183794  0.89179755  0.89179755  1
loop_
_geom_bond_atom_site_label_1
_geom_bond_atom_site_label_2
_geom_bond_distance
_geom_bond_site_symmetry_2
In0 In3 3.233132 1_555
In0 In2 3.233132 1_555
In0 In1 3.233332 1_555
In0 Y11 3.260933 1_555
In0 Y5 3.261087 1_555
In0 Y3 3.261087 1_555
In0 Y14 3.401910 1_555
In0 Y0 3.402059 1_555
In0 Y8 3.402059 1_555
In0 Y13 3.491606 1_545
In0 Y7 3.491606 1_554
In0 Y4 3.491871 1_455
In1 In2 3.205165 1_555
In1 In3 3.205165 1_555
In1 Y11 3.217712 1_455
In1 Y10 3.273307 1_455
In1 Y9 3.273307 1_455
In1 Y8 3.458236 1_555
In1 Y0 3.458236 1_555
In1 Y2 3.465927 1_454
In1 Y1 3.465927 1_445
In1 Y6 3.504884 1_555
In1 Y4 3.517626 1_455
In2 In3 3.205079 1_555
In2 Y3 3.217673 1_545
In2 Y10 3.273180 1_545
In2 Y12 3.273226 1_545
In2 Y14 3.457953 1_555
In2 Y8 3.458093 1_555
In2 Y15 3.465994 1_544
In2 Y1 3.466048 1_445
In2 Y6 3.504815 1_555
In2 Y13 3.517488 1_545
In3 Y5 3.217673 1_554
In3 Y9 3.273180 1_554
In3 Y12 3.273226 1_554
In3 Y14 3.457953 1_555
In3 Y0 3.458093 1_555
In3 Y15 3.465994 1_544
In3 Y2 3.466048 1_454
In3 Y6 3.504815 1_555
In3 Y7 3.517488 1_554
Ru0 Y1 2.759661 1_555
Ru0 Y4 2.797882 1_555
Ru0 Y13 2.798101 1_555
Ru0 Y14 2.842973 1_565
Ru0 Y0 2.843072 1_655
Ru0 Y6 2.872082 1_665
Ru0 Y10 3.367326 1_555
Ru0 Y11 3.520261 1_565
Ru0 Y3 3.520515 1_655
Ru1 Y15 2.759451 1_555
Ru1 Y7 2.797633 1_555
Ru1 Y13 2.797633 1_555
Ru1 Y8 2.842764 1_565
Ru1 Y0 2.842765 1_556
Ru1 Y6 2.871797 1_566
Ru1 Y12 3.367223 1_555
Ru1 Y3 3.520227 1_556
Ru1 Y5 3.520227 1_565
Ru2 Y2 2.759661 1_555
Ru2 Y4 2.797882 1_555
Ru2 Y7 2.798101 1_555
Ru2 Y14 2.842973 1_556
Ru2 Y8 2.843072 1_655
Ru2 Y6 2.872082 1_656
Ru2 Y9 3.367326 1_555
Ru2 Y11 3.520261 1_556
Ru2 Y5 3.520515 1_655
Au0 Y0 2.929428 1_656
Au0 Y8 2.929428 1_665
Au0 Y14 2.929623 1_566
Au0 Y1 2.933523 1_555
Au0 Y2 2.933523 1_555
Au0 Y15 2.934032 1_555
Au0 Y12 3.495657 1_655
Au0 Y9 3.495958 1_565
Au0 Y10 3.495958 1_556
