# generated using pymatgen
data_Hf6Ta4Al12Ru7
_symmetry_space_group_name_H-M   'P 1'
_cell_length_a   8.75236964
_cell_length_b   8.75234533
_cell_length_c   8.75237966
_cell_angle_alpha   59.99961551
_cell_angle_beta   60.00049279
_cell_angle_gamma   60.00031646
_symmetry_Int_Tables_number   1
_chemical_formula_structural   Hf6Ta4Al12Ru7
_chemical_formula_sum   'Hf6 Ta4 Al12 Ru7'
_cell_volume   474.09201412
_cell_formula_units_Z   1
loop_
 _symmetry_equiv_pos_site_id
 _symmetry_equiv_pos_as_xyz
  1  'x, y, z'
loop_
 _atom_site_type_symbol
 _atom_site_label
 _atom_site_symmetry_multiplicity
 _atom_site_fract_x
 _atom_site_fract_y
 _atom_site_fract_z
 _atom_site_occupancy
  Hf  Hf0  1  0.69843548  0.69842065  0.30156800  1
  Hf  Hf1  1  0.30156300  0.69843486  0.30157867  1
  Hf  Hf2  1  0.69843685  0.30157206  0.30157498  1
  Hf  Hf3  1  0.30156257  0.30157758  0.69843427  1
  Hf  Hf4  1  0.69843491  0.30156885  0.69842040  1
  Hf  Hf5  1  0.30156749  0.69842536  0.69842029  1
  Ta  Ta0  1  0.87951896  0.87949971  0.36148650  1
  Ta  Ta1  1  0.87951621  0.36148389  0.87949726  1
  Ta  Ta2  1  0.36148038  0.87951056  0.87950953  1
  Ta  Ta3  1  0.87950718  0.87950207  0.87950102  1
  Al  Al0  1  0.12102882  0.12103444  0.63690204  1
  Al  Al1  1  0.12102647  0.63690074  0.12104099  1
  Al  Al2  1  0.63690053  0.12103407  0.12102793  1
  Al  Al3  1  0.12103814  0.12103055  0.12103487  1
  Al  Al4  1  0.66042952  0.66044154  0.01868615  1
  Al  Al5  1  0.66043900  0.01867980  0.66044174  1
  Al  Al6  1  0.01867802  0.66044021  0.66042861  1
  Al  Al7  1  0.66045011  0.66043157  0.66043189  1
  Al  Al8  1  0.33379163  0.33378872  0.99862770  1
  Al  Al9  1  0.33379483  0.99863376  0.33378591  1
  Al  Al10  1  0.99862507  0.33379239  0.33379253  1
  Al  Al11  1  0.33379367  0.33378586  0.33378740  1
  Ru  Ru0  1  0.00000097  0.00000732  0.00000804  1
  Ru  Ru1  1  0.99731209  0.99730991  0.50268475  1
  Ru  Ru2  1  0.50269056  0.99731107  0.50269389  1
  Ru  Ru3  1  0.99731243  0.50268790  0.50269342  1
  Ru  Ru4  1  0.50268875  0.50269304  0.99730853  1
  Ru  Ru5  1  0.99730753  0.50268304  0.99731209  1
  Ru  Ru6  1  0.50267384  0.99731747  0.99731960  1
loop_
_geom_bond_atom_site_label_1
_geom_bond_atom_site_label_2
_geom_bond_distance
_geom_bond_site_symmetry_2
Hf0 Ta3 3.077724 1_554
Hf0 Ta0 3.077813 1_555
Hf0 Ru5 3.159741 1_554
Hf0 Ru3 3.159769 1_555
Hf0 Ru6 3.159793 1_554
Hf0 Ru2 3.159879 1_555
Hf1 Ta0 3.077574 1_455
Hf1 Ta2 3.077729 1_554
Hf1 Ru1 3.159673 1_455
Hf1 Ru6 3.159713 1_554
Hf1 Ru3 3.159730 1_455
Hf1 Ru4 3.159857 1_554
Hf2 Ta0 3.077761 1_545
Hf2 Ta1 3.077819 1_554
Hf2 Ru5 3.159659 1_554
Hf2 Ru1 3.159672 1_545
Hf2 Ru2 3.159787 1_545
Hf2 Ru4 3.159839 1_554
Hf3 Ta1 3.077598 1_455
Hf3 Ta2 3.077698 1_545
Hf3 Ru3 3.159693 1_455
Hf3 Ru5 3.159698 1_455
Hf3 Ru6 3.159730 1_545
Hf3 Ru2 3.159814 1_545
Hf4 Ta3 3.077706 1_545
Hf4 Ta1 3.077762 1_555
Hf4 Ru3 3.159743 1_555
Hf4 Ru1 3.159750 1_545
Hf4 Ru6 3.159813 1_545
Hf4 Ru4 3.159856 1_555
Hf5 Ta3 3.077716 1_455
Hf5 Ta2 3.077876 1_555
Hf5 Ru1 3.159703 1_455
Hf5 Ru5 3.159780 1_455
Hf5 Ru2 3.159820 1_555
Hf5 Ru4 3.159823 1_555
Al0 Ru0 2.594860 1_556
Al0 Ru3 2.727904 1_455
Al0 Ru1 2.727950 1_445
Al0 Ru2 2.727996 1_545
Al0 Al10 2.749603 1_455
Al0 Al11 2.749637 1_555
Al0 Al9 2.749672 1_545
Al0 Ta1 2.989535 1_455
Al0 Ta3 2.989559 1_445
Al0 Ta2 2.989589 1_545
Al0 Hf4 3.079294 1_455
Al0 Hf3 3.079365 1_555
Al0 Hf5 3.079387 1_545
Al1 Ru0 2.594850 1_565
Al1 Ru3 2.727913 1_455
Al1 Ru4 2.727999 1_554
Al1 Ru5 2.728000 1_454
Al1 Al10 2.749580 1_455
Al1 Al11 2.749618 1_555
Al1 Al8 2.749692 1_554
Al1 Ta0 2.989534 1_455
Al1 Ta3 2.989590 1_454
Al1 Ta2 2.989620 1_554
Al1 Hf0 3.079274 1_455
Al1 Hf1 3.079359 1_555
Al1 Hf5 3.079484 1_554
Al2 Ru0 2.594836 1_655
Al2 Ru6 2.727902 1_544
Al2 Ru4 2.727945 1_554
Al2 Ru2 2.728010 1_545
Al2 Al9 2.749574 1_545
Al2 Al8 2.749592 1_554
Al2 Ta3 2.989623 1_544
Al2 Ta1 2.989631 1_554
Al2 Ta0 2.989700 1_545
Al2 Hf4 3.079354 1_554
Al2 Hf0 3.079382 1_545
Al2 Hf2 3.079457 1_555
Al3 Ru0 2.594719 1_555
Al3 Ru6 2.727810 1_544
Al3 Ru1 2.727894 1_445
Al3 Ru5 2.727897 1_454
Al3 Al9 2.749586 1_545
Al3 Al8 2.749586 1_554
Al3 Ta0 2.989535 1_445
Al3 Ta2 2.989539 1_544
Al3 Ta1 2.989592 1_454
Al3 Hf1 3.079265 1_545
Al3 Hf3 3.079315 1_554
Al3 Hf2 3.079360 1_455
Al4 Ru4 2.504020 1_554
Al4 Ru6 2.504117 1_554
Al4 Ru5 2.504129 1_554
Al4 Ta2 2.800192 1_554
Al4 Ta3 2.800256 1_554
Al4 Ta1 2.800333 1_554
Al4 Hf0 2.847513 1_555
Al4 Hf2 2.847527 1_555
Al4 Hf1 2.847569 1_555
Al5 Ru2 2.504027 1_545
Al5 Ru1 2.504104 1_545
Al5 Ru6 2.504155 1_545
Al5 Ta3 2.800198 1_545
Al5 Ta2 2.800228 1_545
Al5 Ta0 2.800281 1_545
Al5 Hf4 2.847510 1_555
Al5 Hf2 2.847530 1_555
Al5 Hf3 2.847629 1_555
Al6 Ru3 2.503949 1_455
Al6 Ru1 2.504057 1_455
Al6 Ru5 2.504162 1_455
Al6 Ta0 2.800048 1_455
Al6 Ta1 2.800159 1_455
Al6 Ta3 2.800284 1_455
Al6 Hf1 2.847450 1_555
Al6 Hf3 2.847500 1_555
Al6 Hf5 2.847529 1_555
Al7 Ru3 2.504011 1_555
Al7 Ru2 2.504101 1_555
Al7 Ru4 2.504103 1_555
Al7 Ta1 2.800209 1_555
Al7 Ta0 2.800237 1_555
Al7 Ta2 2.800420 1_555
Al7 Hf4 2.847504 1_555
Al7 Hf0 2.847524 1_555
Al7 Hf5 2.847661 1_555
Al8 Ru6 2.553700 1_545
Al8 Ru4 2.553802 1_555
Al8 Ru5 2.553823 1_455
Al8 Hf3 2.936615 1_555
Al8 Hf5 2.936656 1_555
Al8 Hf4 2.936737 1_555
Al9 Ru6 2.553698 1_554
Al9 Ru2 2.553805 1_555
Al9 Ru1 2.553838 1_455
Al9 Hf1 2.936647 1_555
Al9 Hf5 2.936653 1_555
Al9 Hf0 2.936732 1_555
Al10 Ru1 2.553779 1_545
Al10 Ru5 2.553785 1_554
Al10 Ru3 2.553808 1_555
Al10 Al3 2.749650 1_655
Al10 Hf2 2.936552 1_555
Al10 Hf0 2.936576 1_555
Al10 Hf4 2.936592 1_555
Al11 Ru2 2.553765 1_545
Al11 Ru4 2.553795 1_554
Al11 Ru3 2.553847 1_455
Al11 Al2 2.749627 1_555
Al11 Hf3 2.936735 1_555
Al11 Hf1 2.936739 1_555
Al11 Hf2 2.936748 1_555
Ru0 Ta1 2.583201 1_454
Ru0 Ta0 2.583229 1_445
Ru0 Ta2 2.583251 1_544
Ru0 Ta3 2.583419 1_444
Ru1 Ta0 2.695320 1_555
Ru1 Ta3 2.695432 1_555
Ru2 Ta2 2.695431 1_555
Ru2 Ta0 2.695535 1_555
Ru3 Ta1 2.695343 1_555
Ru3 Ta0 2.695385 1_555
Ru4 Ta2 2.695428 1_555
Ru4 Ta1 2.695529 1_555
Ru5 Ta1 2.695346 1_555
Ru5 Ta3 2.695438 1_555
Ru6 Ta2 2.695380 1_555
Ru6 Ta3 2.695565 1_555
