# generated using pymatgen
data_BaGe4O9
_symmetry_space_group_name_H-M   'P 1'
_cell_length_a   11.67241203
_cell_length_b   11.67240312
_cell_length_c   4.76336423
_cell_angle_alpha   89.99955106
_cell_angle_beta   90.00054928
_cell_angle_gamma   119.99965716
_symmetry_Int_Tables_number   1
_chemical_formula_structural   BaGe4O9
_chemical_formula_sum   'Ba3 Ge12 O27'
_cell_volume   562.03946337
_cell_formula_units_Z   3
loop_
 _symmetry_equiv_pos_site_id
 _symmetry_equiv_pos_as_xyz
  1  'x, y, z'
loop_
 _atom_site_type_symbol
 _atom_site_label
 _atom_site_symmetry_multiplicity
 _atom_site_fract_x
 _atom_site_fract_y
 _atom_site_fract_z
 _atom_site_occupancy
  Ba  Ba0  1  0.33207891  0.33207839  0.00000006  1
  Ba  Ba1  1  -0.00000097  0.66791910  0.00000157  1
  Ba  Ba2  1  0.66792047  0.00000075  -0.00000043  1
  Ge  Ge0  1  0.00000144  0.00000203  0.00000122  1
  Ge  Ge1  1  0.66666382  0.33333267  0.09909590  1
  Ge  Ge2  1  0.33333304  0.66666312  0.90090284  1
  Ge  Ge3  1  0.82107902  0.82108006  0.50000317  1
  Ge  Ge4  1  0.00000092  0.17891976  0.50000024  1
  Ge  Ge5  1  0.17891843  -0.00000084  0.50000281  1
  Ge  Ge6  1  0.48734651  0.15000210  0.59011216  1
  Ge  Ge7  1  0.84999853  0.33734436  0.59010674  1
  Ge  Ge8  1  0.66264859  0.51265250  0.59012158  1
  Ge  Ge9  1  0.33734576  0.84999936  0.40989042  1
  Ge  Ge10  1  0.51265150  0.66264851  0.40987808  1
  Ge  Ge11  1  0.15000416  0.48734604  0.40989262  1
  O  O0  1  0.51788303  0.51788444  0.50000082  1
  O  O1  1  0.00000010  0.48212226  0.50000094  1
  O  O2  1  0.48211949  -0.00000392  0.50000205  1
  O  O3  1  0.59395118  0.18239636  0.87310719  1
  O  O4  1  0.81760365  0.41155562  0.87311022  1
  O  O5  1  0.58844816  0.40605213  0.87310909  1
  O  O6  1  0.41155451  0.81760411  0.12688419  1
  O  O7  1  0.40605299  0.58844944  0.12688858  1
  O  O8  1  0.18239589  0.59395111  0.12688678  1
  O  O9  1  0.51374030  0.26350319  0.32332484  1
  O  O10  1  0.73649878  0.25023783  0.32332236  1
  O  O11  1  0.74976696  0.48626061  0.32331607  1
  O  O12  1  0.25023499  0.73649413  0.67667634  1
  O  O13  1  0.48625856  0.74976840  0.67667997  1
  O  O14  1  0.26350446  0.51373923  0.67667360  1
  O  O15  1  0.08817259  0.15165423  0.76491984  1
  O  O16  1  0.84834266  0.93651914  0.76492423  1
  O  O17  1  0.06348028  0.91182252  0.76492948  1
  O  O18  1  0.93651943  0.84834319  0.23507845  1
  O  O19  1  0.91182374  0.06348186  0.23507342  1
  O  O20  1  0.15165414  0.08817173  0.23508106  1
  O  O21  1  0.11186798  0.32491862  0.30952904  1
  O  O22  1  0.67508452  0.78695227  0.30952711  1
  O  O23  1  0.21305133  0.88812908  0.30952996  1
  O  O24  1  0.78695163  0.67508492  0.69047429  1
  O  O25  1  0.88813243  0.21305335  0.69047047  1
  O  O26  1  0.32491611  0.11186522  0.69047061  1
loop_
_geom_bond_atom_site_label_1
_geom_bond_atom_site_label_2
_geom_bond_distance
_geom_bond_site_symmetry_2
Ba0 O5 2.735296 1_554
Ba0 O7 2.735308 1_555
Ba0 O15 2.792612 1_554
Ba0 O20 2.792620 1_555
Ba0 O21 2.927971 1_555
Ba0 O26 2.927977 1_554
Ba0 O14 3.034137 1_554
Ba0 O9 3.034144 1_555
Ba0 O0 3.221198 1_555
Ba0 O0 3.221199 1_554
Ba1 O8 2.735237 1_555
Ba1 O4 2.735250 1_454
Ba1 O17 2.792558 1_554
Ba1 O18 2.792584 1_455
Ba1 O24 2.927936 1_454
Ba1 O23 2.927967 1_555
Ba1 O11 3.034112 1_455
Ba1 O12 3.034171 1_554
Ba1 O1 3.221115 1_555
Ba1 O1 3.221145 1_554
Ba2 O3 2.735242 1_554
Ba2 O6 2.735270 1_545
Ba2 O19 2.792560 1_555
Ba2 O16 2.792579 1_544
Ba2 O22 2.927939 1_545
Ba2 O25 2.927985 1_554
Ba2 O13 3.034129 1_544
Ba2 O10 3.034162 1_555
Ba2 O2 3.221117 1_554
Ba2 O2 3.221165 1_555
Ge0 O20 1.903871 1_555
Ge0 O15 1.903875 1_554
Ge0 O19 1.903901 1_455
Ge0 O17 1.903907 1_544
Ge0 O16 1.903913 1_444
Ge0 O18 1.903916 1_445
Ge1 O5 1.867522 1_554
Ge1 O3 1.867557 1_554
Ge1 O4 1.867581 1_554
Ge1 O9 1.880550 1_555
Ge1 O11 1.880562 1_555
Ge1 O10 1.880572 1_555
Ge2 O7 1.867507 1_556
Ge2 O8 1.867555 1_556
Ge2 O6 1.867574 1_556
Ge2 O14 1.880550 1_555
Ge2 O13 1.880555 1_555
Ge2 O12 1.880568 1_555
Ge3 O16 1.755149 1_555
Ge3 O18 1.755176 1_555
Ge3 O24 1.790812 1_555
Ge3 O22 1.790816 1_555
Ge4 O15 1.755109 1_555
Ge4 O19 1.755165 1_455
Ge4 O21 1.790845 1_555
Ge4 O25 1.790870 1_455
Ge5 O20 1.755117 1_555
Ge5 O17 1.755168 1_545
Ge5 O26 1.790823 1_555
Ge5 O23 1.790885 1_545
Ge6 O3 1.742969 1_555
Ge6 O9 1.748390 1_555
Ge6 O2 1.773951 1_555
Ge6 O26 1.782517 1_555
Ge7 O4 1.743022 1_555
Ge7 O10 1.748376 1_555
Ge7 O1 1.773920 1_655
Ge7 O25 1.782460 1_555
Ge8 O5 1.742909 1_555
Ge8 O11 1.748542 1_555
Ge8 O0 1.773834 1_555
Ge8 O24 1.782558 1_555
Ge9 O6 1.743017 1_555
Ge9 O12 1.748424 1_555
Ge9 O2 1.773874 1_565
Ge9 O23 1.782462 1_555
Ge10 O7 1.742901 1_555
Ge10 O13 1.748545 1_555
Ge10 O0 1.773816 1_555
Ge10 O22 1.782565 1_555
Ge11 O8 1.743018 1_555
Ge11 O14 1.748362 1_555
Ge11 O1 1.773946 1_555
Ge11 O21 1.782491 1_555
