# generated using pymatgen
data_Sr4LuSc7Se16
_symmetry_space_group_name_H-M   'P 1'
_cell_length_a   3.97634173
_cell_length_b   12.28635700
_cell_length_c   14.38583174
_cell_angle_alpha   90.12364531
_cell_angle_beta   90.00000000
_cell_angle_gamma   90.00000000
_symmetry_Int_Tables_number   1
_chemical_formula_structural   Sr4LuSc7Se16
_chemical_formula_sum   'Sr4 Lu1 Sc7 Se16'
_cell_volume   702.81463529
_cell_formula_units_Z   1
loop_
 _symmetry_equiv_pos_site_id
 _symmetry_equiv_pos_as_xyz
  1  'x, y, z'
loop_
 _atom_site_type_symbol
 _atom_site_label
 _atom_site_symmetry_multiplicity
 _atom_site_fract_x
 _atom_site_fract_y
 _atom_site_fract_z
 _atom_site_occupancy
  Sr  Sr0  1  0.25000000  0.76206903  0.33059746  1
  Sr  Sr1  1  0.25000000  0.26130530  0.16653113  1
  Sr  Sr2  1  0.75000000  0.24076712  0.67156758  1
  Sr  Sr3  1  0.75000000  0.73789926  0.83165442  1
  Lu  Lu0  1  0.75000000  0.08380911  0.40398359  1
  Sc  Sc0  1  0.25000000  0.44405522  0.38901063  1
  Sc  Sc1  1  0.25000000  0.94129164  0.10858970  1
  Sc  Sc2  1  0.75000000  0.55767013  0.60987477  1
  Sc  Sc3  1  0.75000000  0.05721870  0.88934477  1
  Sc  Sc4  1  0.25000000  0.41849787  0.90274164  1
  Sc  Sc5  1  0.25000000  0.91626712  0.59882803  1
  Sc  Sc6  1  0.75000000  0.58179408  0.09685126  1
  Se  Se0  1  0.25000000  0.20321968  0.84137113  1
  Se  Se1  1  0.25000000  0.70195895  0.66073220  1
  Se  Se2  1  0.75000000  0.79647183  0.15869904  1
  Se  Se3  1  0.75000000  0.30048822  0.33748189  1
  Se  Se4  1  0.25000000  0.12435763  0.53472505  1
  Se  Se5  1  0.25000000  0.62327222  0.97159152  1
  Se  Se6  1  0.75000000  0.87318772  0.47402666  1
  Se  Se7  1  0.75000000  0.37647385  0.02782557  1
  Se  Se8  1  0.25000000  0.02748440  0.28151473  1
  Se  Se9  1  0.25000000  0.52986683  0.21465257  1
  Se  Se10  1  0.75000000  0.96934203  0.71610028  1
  Se  Se11  1  0.75000000  0.47097715  0.78478990  1
  Se  Se12  1  0.25000000  0.41187139  0.57363649  1
  Se  Se13  1  0.25000000  0.91109270  0.92453410  1
  Se  Se14  1  0.75000000  0.58931811  0.42537061  1
  Se  Se15  1  0.75000000  0.08797273  0.07337230  1
loop_
_geom_bond_atom_site_label_1
_geom_bond_atom_site_label_2
_geom_bond_distance
_geom_bond_site_symmetry_2
Lu0 Se8 2.744168 1_655
Lu0 Se8 2.744168 1_555
Lu0 Se6 2.779050 1_545
Lu0 Se4 2.781093 1_655
Lu0 Se4 2.781093 1_555
Lu0 Se3 2.830817 1_555
Sc0 Se12 2.686114 1_555
Sc0 Se14 2.721715 1_555
Sc0 Se14 2.721715 1_455
Sc0 Se9 2.722955 1_555
Sc0 Se3 2.758275 1_555
Sc0 Se3 2.758275 1_455
Sc1 Se13 2.672870 1_554
Sc1 Se8 2.701593 1_565
Sc1 Se15 2.731534 1_465
Sc1 Se15 2.731534 1_565
Sc1 Se2 2.764768 1_455
Sc1 Se2 2.764768 1_555
Sc2 Se14 2.683406 1_555
Sc2 Se12 2.725701 1_555
Sc2 Se12 2.725701 1_655
Sc2 Se11 2.734567 1_555
Sc2 Se1 2.761388 1_655
Sc2 Se1 2.761388 1_555
Sc3 Se15 2.673411 1_556
Sc3 Se10 2.713944 1_545
Sc3 Se13 2.726961 1_645
Sc3 Se13 2.726961 1_545
Sc3 Se0 2.766270 1_655
Sc3 Se0 2.766270 1_555
Sc4 Se11 2.693052 1_455
Sc4 Se11 2.693052 1_555
Sc4 Se5 2.701883 1_555
Sc4 Se7 2.731555 1_556
Sc4 Se7 2.731555 1_456
Sc4 Se0 2.786632 1_555
Sc5 Se10 2.686908 1_455
Sc5 Se10 2.686908 1_555
Sc5 Se4 2.719773 1_565
Sc5 Se6 2.729877 1_555
Sc5 Se6 2.729877 1_455
Sc5 Se1 2.781408 1_555
Sc6 Se9 2.690062 1_555
Sc6 Se9 2.690062 1_655
Sc6 Se7 2.709044 1_555
Sc6 Se5 2.731954 1_654
Sc6 Se5 2.731954 1_554
Sc6 Se2 2.781810 1_555
Se0 Sr2 3.183961 1_455
Se0 Sr2 3.183961 1_555
Se1 Sr3 3.192039 1_455
Se1 Sr3 3.192039 1_555
Se2 Sr0 3.201756 1_655
Se2 Sr0 3.201756 1_555
Se3 Sr1 3.198043 1_555
Se3 Sr1 3.198043 1_655
Se4 Sr2 3.140325 1_555
Se4 Sr2 3.140325 1_455
Se5 Sr3 3.162455 1_455
Se5 Sr3 3.162455 1_555
Se6 Sr0 3.172060 1_655
Se6 Sr0 3.172060 1_555
Se7 Sr1 3.154178 1_655
Se7 Sr1 3.154178 1_555
Se8 Sr1 3.318086 1_555
Se8 Sr0 3.338046 1_545
Se9 Sr0 3.301623 1_555
Se9 Sr1 3.370018 1_555
Se10 Sr3 3.296935 1_555
Se10 Sr2 3.397161 1_565
Se11 Sr2 3.260856 1_555
Se11 Sr3 3.346656 1_555
Se12 Sr2 3.220222 1_555
Se12 Sr2 3.220222 1_455
Se13 Sr3 3.202168 1_455
Se13 Sr3 3.202168 1_555
Se14 Sr0 3.213886 1_655
Se14 Sr0 3.213886 1_555
Se15 Sr1 3.204974 1_555
Se15 Sr1 3.204974 1_655
