# generated using pymatgen
data_LiCa3Ag2As3
_symmetry_space_group_name_H-M   'P 1'
_cell_length_a   7.17889425
_cell_length_b   7.16462059
_cell_length_c   4.27283772
_cell_angle_alpha   90.00000000
_cell_angle_beta   90.00000000
_cell_angle_gamma   119.93424196
_symmetry_Int_Tables_number   1
_chemical_formula_structural   LiCa3Ag2As3
_chemical_formula_sum   'Li1 Ca3 Ag2 As3'
_cell_volume   190.45184104
_cell_formula_units_Z   1
loop_
 _symmetry_equiv_pos_site_id
 _symmetry_equiv_pos_as_xyz
  1  'x, y, z'
loop_
 _atom_site_type_symbol
 _atom_site_label
 _atom_site_symmetry_multiplicity
 _atom_site_fract_x
 _atom_site_fract_y
 _atom_site_fract_z
 _atom_site_occupancy
  Li  Li0  1  1.00000000  0.23550179  0.00000000  1
  Ca  Ca0  1  1.00000000  0.59064257  0.50000000  1
  Ca  Ca1  1  0.42086169  0.41729611  0.50000000  1
  Ca  Ca2  1  0.57913831  0.99643443  0.50000000  1
  Ag  Ag0  1  0.75320850  0.75385253  0.00000000  1
  Ag  Ag1  1  0.24679150  0.00064403  0.00000000  1
  As  As0  1  1.00000000  0.01170033  0.50000000  1
  As  As1  1  0.32796526  0.66094773  0.00000000  1
  As  As2  1  0.67203474  0.33298148  0.00000000  1
loop_
_geom_bond_atom_site_label_1
_geom_bond_atom_site_label_2
_geom_bond_distance
_geom_bond_site_symmetry_2
Ag0 As2 2.770997 1_555
Ag0 As1 2.781103 1_555
Ag0 As0 2.801698 1_565
Ag0 As0 2.801698 1_564
Ag0 Li0 2.990901 1_565
Ag0 Ag1 3.070689 1_665
Ag0 Ca1 3.213946 1_554
Ag0 Ca1 3.213946 1_555
Ag0 Ca0 3.337380 1_554
Ag0 Ca0 3.337380 1_555
Ag0 Ca2 3.363641 1_554
Ag0 Ca2 3.363641 1_555
Ag1 As1 2.770990 1_545
Ag1 As2 2.781101 1_555
Ag1 As0 2.801698 1_455
Ag1 As0 2.801698 1_454
Ag1 Li0 2.990901 1_455
Ag1 Ca2 3.213946 1_545
Ag1 Ca2 3.213946 1_544
Ag1 Ca0 3.337380 1_444
Ag1 Ca0 3.337380 1_445
Ag1 Ca1 3.363642 1_555
Ag1 Ca1 3.363642 1_554
As0 Li0 2.671207 1_556
As0 Li0 2.671207 1_555
As0 Ca2 2.968257 1_545
As0 Ca1 2.968257 1_655
As0 Ca0 3.016719 1_545
As1 Li0 2.769874 1_455
As1 Ca0 3.029480 1_455
As1 Ca0 3.029480 1_454
As1 Ca1 3.036159 1_554
As1 Ca1 3.036159 1_555
As1 Ca2 3.044272 1_555
As1 Ca2 3.044272 1_554
As2 Li0 2.769869 1_555
As2 Ca0 3.029482 1_555
As2 Ca0 3.029482 1_554
As2 Ca2 3.036155 1_545
As2 Ca2 3.036155 1_544
As2 Ca1 3.044276 1_555
As2 Ca1 3.044276 1_554
