# generated using pymatgen
data_Nb3Al2BPt
_symmetry_space_group_name_H-M   'P 1'
_cell_length_a   8.42156440
_cell_length_b   8.42156476
_cell_length_c   8.42156321
_cell_angle_alpha   59.99999832
_cell_angle_beta   59.99999690
_cell_angle_gamma   59.99999935
_symmetry_Int_Tables_number   1
_chemical_formula_structural   Nb3Al2BPt
_chemical_formula_sum   'Nb12 Al8 B4 Pt4'
_cell_volume   422.34101888
_cell_formula_units_Z   4
loop_
 _symmetry_equiv_pos_site_id
 _symmetry_equiv_pos_as_xyz
  1  'x, y, z'
loop_
 _atom_site_type_symbol
 _atom_site_label
 _atom_site_symmetry_multiplicity
 _atom_site_fract_x
 _atom_site_fract_y
 _atom_site_fract_z
 _atom_site_occupancy
  Nb  Nb0  1  0.56169755  0.93830245  0.56169755  1
  Nb  Nb1  1  0.31169755  0.68830245  0.68830245  1
  Nb  Nb2  1  0.68830245  0.31169755  0.31169755  1
  Nb  Nb3  1  0.31169755  0.68830245  0.31169755  1
  Nb  Nb4  1  0.68830245  0.68830245  0.31169755  1
  Nb  Nb5  1  0.31169755  0.31169755  0.68830245  1
  Nb  Nb6  1  0.56169755  0.56169755  0.93830245  1
  Nb  Nb7  1  0.93830245  0.56169755  0.56169755  1
  Nb  Nb8  1  0.56169755  0.93830245  0.93830245  1
  Nb  Nb9  1  0.93830245  0.93830245  0.56169755  1
  Nb  Nb10  1  0.68830245  0.31169755  0.68830245  1
  Nb  Nb11  1  0.93830245  0.56169755  0.93830245  1
  Al  Al0  1  0.91583894  0.91583894  0.91583894  1
  Al  Al1  1  0.99751581  0.33416106  0.33416106  1
  Al  Al2  1  0.33416106  0.99751581  0.33416106  1
  Al  Al3  1  0.33416106  0.33416106  0.99751581  1
  Al  Al4  1  0.91583894  0.25248419  0.91583894  1
  Al  Al5  1  0.91583894  0.91583894  0.25248419  1
  Al  Al6  1  0.25248419  0.91583894  0.91583894  1
  Al  Al7  1  0.33416106  0.33416106  0.33416106  1
  B  B0  1  0.62500000  0.62500000  0.62500000  1
  B  B1  1  0.12500000  0.62500000  0.62500000  1
  B  B2  1  0.62500000  0.12500000  0.62500000  1
  B  B3  1  0.62500000  0.62500000  0.12500000  1
  Pt  Pt0  1  0.12500000  0.12500000  0.12500000  1
  Pt  Pt1  1  0.62500000  0.12500000  0.12500000  1
  Pt  Pt2  1  0.12500000  0.62500000  0.12500000  1
  Pt  Pt3  1  0.12500000  0.12500000  0.62500000  1
loop_
_geom_bond_atom_site_label_1
_geom_bond_atom_site_label_2
_geom_bond_distance
_geom_bond_site_symmetry_2
Nb0 Pt1 3.062161 1_565
Nb0 Pt3 3.062162 1_565
Nb1 Pt2 3.062161 1_556
Nb1 Pt3 3.062162 1_565
Nb2 Pt0 3.062162 1_655
Nb2 Pt1 3.062162 1_555
Nb3 Pt2 3.062162 1_555
Nb3 Pt0 3.062162 1_565
Nb4 Pt2 3.062162 1_655
Nb4 Pt1 3.062162 1_565
Nb5 Pt0 3.062161 1_556
Nb5 Pt3 3.062162 1_555
Nb6 Pt2 3.062162 1_556
Nb6 Pt1 3.062162 1_556
Nb7 Pt2 3.062161 1_655
Nb7 Pt3 3.062162 1_655
Nb8 Pt0 3.062162 1_566
Nb8 Pt1 3.062162 1_566
Nb9 Pt0 3.062161 1_665
Nb9 Pt3 3.062162 1_665
Nb10 Pt1 3.062161 1_556
Nb10 Pt3 3.062162 1_655
Nb11 Pt2 3.062162 1_656
Nb11 Pt0 3.062162 1_656
Al0 Pt3 2.584309 1_665
Al0 Pt1 2.584309 1_566
Al0 Pt2 2.584309 1_656
Al1 Pt0 2.584306 1_655
Al1 Pt3 2.584313 1_655
Al1 Pt2 2.584313 1_655
Al2 Pt0 2.584306 1_565
Al2 Pt3 2.584313 1_565
Al2 Pt1 2.584313 1_565
Al3 Pt0 2.584307 1_556
Al3 Pt1 2.584313 1_556
Al3 Pt2 2.584313 1_556
Al4 Pt0 2.584306 1_656
Al4 Pt3 2.584313 1_655
Al4 Pt1 2.584313 1_556
Al5 Pt0 2.584307 1_665
Al5 Pt1 2.584313 1_565
Al5 Pt2 2.584313 1_655
Al6 Pt0 2.584306 1_566
Al6 Pt3 2.584313 1_565
Al6 Pt2 2.584313 1_556
Al7 Pt3 2.584309 1_555
Al7 Pt1 2.584309 1_555
Al7 Pt2 2.584309 1_555
B0 Nb6 2.236308 1_555
B0 Nb4 2.236308 1_555
B0 Nb7 2.236308 1_555
B0 Nb1 2.236308 1_555
B0 Nb0 2.236308 1_555
B0 Nb10 2.236308 1_555
B1 Nb11 2.236308 1_455
B1 Nb3 2.236308 1_555
B1 Nb1 2.236308 1_555
B1 Nb7 2.236308 1_455
B1 Nb9 2.236308 1_455
B1 Nb5 2.236308 1_555
B2 Nb2 2.236308 1_555
B2 Nb8 2.236308 1_545
B2 Nb9 2.236308 1_545
B2 Nb5 2.236308 1_555
B2 Nb10 2.236308 1_555
B2 Nb0 2.236308 1_545
B3 Nb4 2.236308 1_555
B3 Nb6 2.236308 1_554
B3 Nb3 2.236308 1_555
B3 Nb11 2.236308 1_554
B3 Nb8 2.236308 1_554
B3 Nb2 2.236308 1_555
