# generated using pymatgen
data_Ho2S3
_symmetry_space_group_name_H-M   'P 1'
_cell_length_a   13.70587323
_cell_length_b   13.70587323
_cell_length_c   13.70587323
_cell_angle_alpha   144.80791510
_cell_angle_beta   144.80791510
_cell_angle_gamma   50.62086701
_symmetry_Int_Tables_number   1
_chemical_formula_structural   Ho2S3
_chemical_formula_sum   'Ho16 S24'
_cell_volume   850.82207969
_cell_formula_units_Z   8
loop_
 _symmetry_equiv_pos_site_id
 _symmetry_equiv_pos_as_xyz
  1  'x, y, z'
loop_
 _atom_site_type_symbol
 _atom_site_label
 _atom_site_symmetry_multiplicity
 _atom_site_fract_x
 _atom_site_fract_y
 _atom_site_fract_z
 _atom_site_occupancy
  Ho  Ho0  1  0.16574000  0.16574000  0.00000000  1
  Ho  Ho1  1  0.87500000  0.50641900  0.13141900  1
  Ho  Ho2  1  0.17730400  0.29847500  0.39788700  1
  Ho  Ho3  1  0.58426000  0.08426000  0.50000000  1
  Ho  Ho4  1  0.37500000  0.74358100  0.86858100  1
  Ho  Ho5  1  0.90058800  0.77941700  0.60211300  1
  Ho  Ho6  1  0.22058300  0.82269600  0.12117100  1
  Ho  Ho7  1  0.49358100  0.62500000  0.36858100  1
  Ho  Ho8  1  0.91574000  0.41574000  0.50000000  1
  Ho  Ho9  1  0.25641900  0.12500000  0.63141900  1
  Ho  Ho10  1  0.70152500  0.09941200  0.87882900  1
  Ho  Ho11  1  0.83426000  0.83426000  0.00000000  1
  Ho  Ho12  1  0.52941700  0.15058800  0.10211300  1
  Ho  Ho13  1  0.84941200  0.95152500  0.37882900  1
  Ho  Ho14  1  0.57269600  0.47058300  0.62117100  1
  Ho  Ho15  1  0.04847500  0.42730400  0.89788700  1
  S  S0  1  0.07387700  0.82796400  0.61336300  1
  S  S1  1  0.86422000  0.25069900  0.74631200  1
  S  S2  1  0.50438700  0.11790800  0.25368800  1
  S  S3  1  0.88578000  0.13209200  0.88648000  1
  S  S4  1  0.24561300  0.99930100  0.11352000  1
  S  S5  1  0.67612300  0.78948600  0.25408700  1
  S  S6  1  0.21460100  0.46051400  0.38663700  1
  S  S7  1  0.53539900  0.42203600  0.74591300  1
  S  S8  1  0.40371400  0.15656700  0.59495100  1
  S  S9  1  0.19123800  0.59628600  0.75285300  1
  S  S10  1  0.21051400  0.46460100  0.88663700  1
  S  S11  1  0.84343300  0.43838400  0.24714700  1
  S  S12  1  0.57796400  0.32387700  0.11336300  1
  S  S13  1  0.56161600  0.80876200  0.40504900  1
  S  S14  1  0.00069900  0.11422000  0.24631200  1
  S  S15  1  0.86790800  0.75438700  0.75368800  1
  S  S16  1  0.74930100  0.49561300  0.61352000  1
  S  S17  1  0.53948600  0.92612300  0.75408700  1
  S  S18  1  0.17203600  0.78539900  0.24591300  1
  S  S19  1  0.55876200  0.81161600  0.90504900  1
  S  S20  1  0.90656700  0.65371400  0.09495100  1
  S  S21  1  0.34628600  0.44123800  0.25285300  1
  S  S22  1  0.88209200  0.13578000  0.38648000  1
  S  S23  1  0.18838400  0.09343300  0.74714700  1
loop_
_geom_bond_atom_site_label_1
_geom_bond_atom_site_label_2
_geom_bond_distance
_geom_bond_site_symmetry_2
Ho0 S6 2.737299 1_555
Ho0 S0 2.737299 1_544
Ho0 S2 2.747674 1_555
Ho0 S1 2.747674 1_454
Ho0 S4 2.944735 1_545
Ho0 S3 2.944756 1_454
Ho0 S23 2.973688 1_554
Ho0 S21 2.973700 1_555
Ho1 S7 2.750698 1_554
Ho1 S6 2.750698 1_655
Ho1 S20 2.761087 1_555
Ho1 S11 2.761087 1_555
Ho1 S0 2.952765 1_655
Ho1 S5 2.952765 1_555
Ho1 S1 3.051492 1_554
Ho1 S3 3.051495 1_554
Ho2 S6 2.710447 1_555
Ho2 S9 2.716588 1_555
Ho2 S14 2.741331 1_555
Ho2 S4 2.802240 1_545
Ho2 S8 2.817126 1_555
Ho2 S11 2.962085 1_455
Ho2 S7 2.964561 1_555
Ho2 S3 3.155448 1_454
Ho3 S7 2.737299 1_555
Ho3 S5 2.737299 1_545
Ho3 S4 2.747677 1_545
Ho3 S3 2.747681 1_555
Ho3 S1 2.944747 1_555
Ho3 S2 2.944747 1_555
Ho3 S8 2.973688 1_555
Ho3 S13 2.973702 1_545
Ho4 S0 2.750698 1_555
Ho4 S5 2.750698 1_556
Ho4 S19 2.761073 1_555
Ho4 S9 2.761074 1_555
Ho4 S6 2.952765 1_555
Ho4 S7 2.952765 1_555
Ho4 S4 3.051483 1_556
Ho4 S2 3.051492 1_566
Ho5 S0 2.710447 1_655
Ho5 S11 2.716594 1_555
Ho5 S15 2.741331 1_555
Ho5 S3 2.802234 1_565
Ho5 S13 2.817128 1_555
Ho5 S9 2.962088 1_655
Ho5 S5 2.964561 1_555
Ho5 S4 3.155453 1_656
Ho6 S18 2.710447 1_555
Ho6 S13 2.716596 1_555
Ho6 S4 2.741343 1_555
Ho6 S15 2.802234 1_454
Ho6 S9 2.817135 1_554
Ho6 S8 2.962085 1_565
Ho6 S10 2.964561 1_554
Ho6 S14 3.155456 1_565
Ho7 S17 2.750698 1_555
Ho7 S12 2.750698 1_555
Ho7 S13 2.761073 1_555
Ho7 S21 2.761074 1_555
Ho7 S10 2.952765 1_554
Ho7 S18 2.952765 1_555
Ho7 S16 3.051483 1_555
Ho7 S15 3.051492 1_555
Ho8 S10 2.737299 1_655
Ho8 S12 2.737299 1_555
Ho8 S15 2.747674 1_555
Ho8 S14 2.747674 1_655
Ho8 S16 2.944735 1_555
Ho8 S22 2.944756 1_555
Ho8 S11 2.973688 1_555
Ho8 S9 2.973700 1_655
Ho9 S18 2.750698 1_545
Ho9 S10 2.750698 1_555
Ho9 S8 2.761087 1_555
Ho9 S23 2.761087 1_555
Ho9 S12 2.952765 1_556
Ho9 S17 2.952765 1_545
Ho9 S14 3.051492 1_555
Ho9 S22 3.051495 1_455
Ho10 S17 2.710447 1_545
Ho10 S8 2.716594 1_555
Ho10 S3 2.741319 1_555
Ho10 S14 2.802234 1_656
Ho10 S11 2.817126 1_556
Ho10 S13 2.962085 1_545
Ho10 S12 2.964561 1_556
Ho10 S15 3.155456 1_545
Ho11 S17 2.737299 1_554
Ho11 S18 2.737299 1_655
Ho11 S16 2.747677 1_554
Ho11 S22 2.747681 1_565
Ho11 S15 2.944747 1_554
Ho11 S14 2.944747 1_665
Ho11 S20 2.973688 1_555
Ho11 S19 2.973702 1_554
Ho12 S12 2.710447 1_555
Ho12 S23 2.716594 1_554
Ho12 S2 2.741331 1_555
Ho12 S22 2.802234 1_555
Ho12 S19 2.817128 1_544
Ho12 S21 2.962088 1_555
Ho12 S17 2.964561 1_544
Ho12 S16 3.155453 1_555
Ho13 S5 2.710447 1_555
Ho13 S20 2.716594 1_555
Ho13 S22 2.741319 1_565
Ho13 S1 2.802234 1_565
Ho13 S23 2.817126 1_665
Ho13 S19 2.962085 1_554
Ho13 S0 2.964561 1_655
Ho13 S2 3.155456 1_565
Ho14 S7 2.710447 1_555
Ho14 S19 2.716596 1_555
Ho14 S16 2.741343 1_555
Ho14 S2 2.802234 1_555
Ho14 S21 2.817135 1_555
Ho14 S20 2.962085 1_556
Ho14 S6 2.964561 1_555
Ho14 S1 3.155456 1_555
Ho15 S10 2.710447 1_555
Ho15 S21 2.716588 1_556
Ho15 S1 2.741331 1_455
Ho15 S16 2.802240 1_455
Ho15 S20 2.817126 1_456
Ho15 S23 2.962085 1_555
Ho15 S18 2.964561 1_556
Ho15 S22 3.155448 1_455
