# generated using pymatgen
data_Cs2KLuAs2
_symmetry_space_group_name_H-M   'P 1'
_cell_length_a   9.78270323
_cell_length_b   9.78270350
_cell_length_c   9.78270212
_cell_angle_alpha   133.13941227
_cell_angle_beta   65.65222007
_cell_angle_gamma   136.76065365
_symmetry_Int_Tables_number   1
_chemical_formula_structural   Cs2KLuAs2
_chemical_formula_sum   'Cs4 K2 Lu2 As4'
_cell_volume   461.03600974
_cell_formula_units_Z   2
loop_
 _symmetry_equiv_pos_site_id
 _symmetry_equiv_pos_as_xyz
  1  'x, y, z'
loop_
 _atom_site_type_symbol
 _atom_site_label
 _atom_site_symmetry_multiplicity
 _atom_site_fract_x
 _atom_site_fract_y
 _atom_site_fract_z
 _atom_site_occupancy
  Cs  Cs0  1  0.81595915  0.26170916  0.07766831  1
  Cs  Cs1  1  0.68404085  0.76170916  0.44575000  1
  Cs  Cs2  1  0.31595915  0.23829084  0.55425100  1
  Cs  Cs3  1  0.18404085  0.73829084  0.92233169  1
  K  K0  1  0.74999900  0.24999900  0.50000000  1
  K  K1  1  0.24999900  0.74999900  0.50000000  1
  Lu  Lu0  1  0.24999900  0.24999900  0.00000000  1
  Lu  Lu1  1  0.75000000  0.75000000  0.00000000  1
  As  As0  1  0.40882656  0.69321782  0.10204337  1
  As  As1  1  0.09117344  0.19321682  0.28439126  1
  As  As2  1  0.90882656  0.80678318  0.71560874  1
  As  As3  1  0.59117344  0.30678318  0.89795663  1
loop_
_geom_bond_atom_site_label_1
_geom_bond_atom_site_label_2
_geom_bond_distance
_geom_bond_site_symmetry_2
As0 Lu1 2.784693 1_555
As0 Lu0 2.784702 1_555
As0 K0 3.345343 1_565
As0 K1 3.345355 1_555
As0 Cs3 3.712336 1_554
As0 Cs2 3.854551 1_554
As0 Cs0 3.950530 1_565
As0 Cs0 3.950537 1_455
As1 Lu0 2.784692 1_555
As1 Lu1 2.784692 1_445
As1 K1 3.345347 1_555
As1 K0 3.345351 1_455
As1 Cs2 3.712345 1_555
As1 Cs3 3.854558 1_544
As1 Cs1 3.950530 1_445
As1 Cs1 3.950537 1_555
As2 Lu0 2.784688 1_666
As2 Lu1 2.784697 1_556
As2 K1 3.345343 1_655
As2 K0 3.345355 1_555
As2 Cs1 3.712336 1_555
As2 Cs0 3.854558 1_566
As2 Cs2 3.950523 1_665
As2 Cs2 3.950536 1_555
As3 Lu1 2.784689 1_556
As3 Lu0 2.784693 1_556
As3 K0 3.345344 1_555
As3 K1 3.345352 1_545
As3 Cs0 3.712345 1_556
As3 Cs1 3.854557 1_556
As3 Cs3 3.950537 1_655
As3 Cs3 3.950537 1_545
