# generated using pymatgen
data_GaTc20(B3Mo)2
_symmetry_space_group_name_H-M   'P 1'
_cell_length_a   8.04109386
_cell_length_b   8.04109406
_cell_length_c   8.04109330
_cell_angle_alpha   60.00000314
_cell_angle_beta   60.00000232
_cell_angle_gamma   60.00000004
_symmetry_Int_Tables_number   1
_chemical_formula_structural   GaTc20(B3Mo)2
_chemical_formula_sum   'Ga1 Tc20 B6 Mo2'
_cell_volume   367.64646585
_cell_formula_units_Z   1
loop_
 _symmetry_equiv_pos_site_id
 _symmetry_equiv_pos_as_xyz
  1  'x, y, z'
loop_
 _atom_site_type_symbol
 _atom_site_label
 _atom_site_symmetry_multiplicity
 _atom_site_fract_x
 _atom_site_fract_y
 _atom_site_fract_z
 _atom_site_occupancy
  Ga  Ga0  1  0.00000000  0.00000000  0.00000000  1
  Tc  Tc0  1  0.61982818  0.61982818  0.14051546  1
  Tc  Tc1  1  0.61982818  0.14051546  0.61982818  1
  Tc  Tc2  1  0.14051546  0.61982818  0.61982818  1
  Tc  Tc3  1  0.61982818  0.61982818  0.61982818  1
  Tc  Tc4  1  0.38017182  0.38017182  0.85948454  1
  Tc  Tc5  1  0.38017182  0.85948454  0.38017182  1
  Tc  Tc6  1  0.85948454  0.38017182  0.38017182  1
  Tc  Tc7  1  0.38017182  0.38017182  0.38017182  1
  Tc  Tc8  1  0.00000000  0.00000000  0.34009384  1
  Tc  Tc9  1  0.65990616  1.00000000  0.34009384  1
  Tc  Tc10  1  1.00000000  0.65990616  0.34009384  1
  Tc  Tc11  1  0.65990616  0.34009384  1.00000000  1
  Tc  Tc12  1  0.00000000  0.34009384  1.00000000  1
  Tc  Tc13  1  0.00000000  0.34009384  0.65990616  1
  Tc  Tc14  1  0.34009384  0.65990616  0.00000000  1
  Tc  Tc15  1  0.34009384  0.00000000  0.65990616  1
  Tc  Tc16  1  0.34009384  0.00000000  1.00000000  1
  Tc  Tc17  1  0.00000000  0.00000000  0.65990616  1
  Tc  Tc18  1  1.00000000  0.65990616  0.00000000  1
  Tc  Tc19  1  0.65990616  1.00000000  0.00000000  1
  B  B0  1  0.71953639  0.71953639  0.28046361  1
  B  B1  1  0.28046361  0.71953639  0.28046361  1
  B  B2  1  0.71953639  0.28046361  0.28046361  1
  B  B3  1  0.28046361  0.28046361  0.71953639  1
  B  B4  1  0.71953639  0.28046361  0.71953639  1
  B  B5  1  0.28046361  0.71953639  0.71953639  1
  Mo  Mo0  1  0.75000000  0.75000000  0.75000000  1
  Mo  Mo1  1  0.25000000  0.25000000  0.25000000  1
loop_
_geom_bond_atom_site_label_1
_geom_bond_atom_site_label_2
_geom_bond_distance
_geom_bond_site_symmetry_2
Ga0 Tc8 2.734726 1_555
Ga0 Tc17 2.734726 1_554
Ga0 Tc16 2.734727 1_554
Ga0 Tc9 2.734727 1_445
Ga0 Tc15 2.734727 1_554
Ga0 Tc19 2.734727 1_445
Ga0 Tc14 2.734727 1_545
Ga0 Tc11 2.734727 1_454
Ga0 Tc12 2.734727 1_554
Ga0 Tc10 2.734727 1_445
Ga0 Tc13 2.734727 1_554
Ga0 Tc18 2.734727 1_445
B0 Tc0 2.235925 1_555
B0 Tc3 2.235925 1_555
B0 Tc5 2.235925 1_555
B0 Tc6 2.235925 1_555
B0 Tc18 2.305644 1_555
B0 Tc10 2.305644 1_555
B0 Tc19 2.305644 1_555
B0 Tc9 2.305644 1_555
B1 Tc2 2.235925 1_555
B1 Tc5 2.235925 1_555
B1 Tc0 2.235925 1_555
B1 Tc7 2.235925 1_555
B1 Tc14 2.305644 1_555
B1 Tc8 2.305644 1_565
B1 Tc10 2.305644 1_455
B1 Tc16 2.305644 1_564
B2 Tc6 2.235925 1_555
B2 Tc1 2.235925 1_555
B2 Tc7 2.235925 1_555
B2 Tc0 2.235925 1_555
B2 Tc11 2.305644 1_554
B2 Tc8 2.305644 1_655
B2 Tc12 2.305644 1_654
B2 Tc9 2.305644 1_545
B3 Tc7 2.235925 1_555
B3 Tc4 2.235925 1_555
B3 Tc1 2.235925 1_555
B3 Tc2 2.235925 1_555
B3 Tc13 2.305644 1_555
B3 Tc12 2.305644 1_555
B3 Tc15 2.305644 1_555
B3 Tc16 2.305644 1_555
B4 Tc6 2.235925 1_555
B4 Tc1 2.235925 1_555
B4 Tc4 2.235925 1_555
B4 Tc3 2.235925 1_555
B4 Tc11 2.305644 1_555
B4 Tc17 2.305644 1_655
B4 Tc13 2.305644 1_655
B4 Tc19 2.305644 1_546
B5 Tc2 2.235925 1_555
B5 Tc5 2.235925 1_555
B5 Tc3 2.235925 1_555
B5 Tc4 2.235925 1_555
B5 Tc14 2.305644 1_556
B5 Tc17 2.305644 1_565
B5 Tc18 2.305644 1_456
B5 Tc15 2.305644 1_565
Mo0 Tc0 2.563939 1_556
Mo0 Tc3 2.563939 1_555
Mo0 Tc2 2.563939 1_655
Mo0 Tc1 2.563939 1_565
Mo1 Tc4 2.563939 1_554
Mo1 Tc7 2.563939 1_555
Mo1 Tc6 2.563939 1_455
Mo1 Tc5 2.563939 1_545
