# generated using pymatgen
data_CaNb8NiSe16
_symmetry_space_group_name_H-M   'P 1'
_cell_length_a   7.00384145
_cell_length_b   7.00384047
_cell_length_c   13.73457844
_cell_angle_alpha   90.00000000
_cell_angle_beta   90.00000000
_cell_angle_gamma   120.00000462
_symmetry_Int_Tables_number   1
_chemical_formula_structural   CaNb8NiSe16
_chemical_formula_sum   'Ca1 Nb8 Ni1 Se16'
_cell_volume   583.46995494
_cell_formula_units_Z   1
loop_
 _symmetry_equiv_pos_site_id
 _symmetry_equiv_pos_as_xyz
  1  'x, y, z'
loop_
 _atom_site_type_symbol
 _atom_site_label
 _atom_site_symmetry_multiplicity
 _atom_site_fract_x
 _atom_site_fract_y
 _atom_site_fract_z
 _atom_site_occupancy
  Ca  Ca0  1  0.00000000  0.00000000  0.50000000  1
  Nb  Nb0  1  0.00000000  0.00000000  0.22923382  1
  Nb  Nb1  1  0.00000000  0.00000000  0.77076618  1
  Nb  Nb2  1  0.50998645  0.01997390  0.22800505  1
  Nb  Nb3  1  0.98002610  0.49001355  0.22800505  1
  Nb  Nb4  1  0.50998645  0.49001355  0.22800505  1
  Nb  Nb5  1  0.49001355  0.98002610  0.77199495  1
  Nb  Nb6  1  0.01997390  0.50998645  0.77199495  1
  Nb  Nb7  1  0.49001355  0.50998645  0.77199495  1
  Ni  Ni0  1  0.00000000  0.00000000  0.00000000  1
  Se  Se0  1  0.33333300  0.66666700  0.89793626  1
  Se  Se1  1  0.66666700  0.33333300  0.10206374  1
  Se  Se2  1  0.66666700  0.33333300  0.35655751  1
  Se  Se3  1  0.33333300  0.66666700  0.64344249  1
  Se  Se4  1  0.16904392  0.83095608  0.34810919  1
  Se  Se5  1  0.16904392  0.33808784  0.34810919  1
  Se  Se6  1  0.66191216  0.83095608  0.34810919  1
  Se  Se7  1  0.83095608  0.16904392  0.65189081  1
  Se  Se8  1  0.83095608  0.66191216  0.65189081  1
  Se  Se9  1  0.33808784  0.16904392  0.65189081  1
  Se  Se10  1  0.83216602  0.16783398  0.89077208  1
  Se  Se11  1  0.83216602  0.66433004  0.89077208  1
  Se  Se12  1  0.33566996  0.16783398  0.89077208  1
  Se  Se13  1  0.16783398  0.83216602  0.10922792  1
  Se  Se14  1  0.16783398  0.33566996  0.10922792  1
  Se  Se15  1  0.66433004  0.83216602  0.10922792  1
loop_
_geom_bond_atom_site_label_1
_geom_bond_atom_site_label_2
_geom_bond_distance
_geom_bond_site_symmetry_2
Ca0 Se8 2.925288 1_445
Ca0 Se5 2.925288 1_555
Ca0 Se9 2.925288 1_555
Ca0 Se6 2.925288 1_445
Ca0 Se7 2.925288 1_455
Ca0 Se4 2.925288 1_545
Nb0 Se13 2.619531 1_545
Nb0 Se14 2.619540 1_555
Nb0 Se15 2.619540 1_445
Nb0 Se5 2.621255 1_555
Nb0 Se6 2.621255 1_445
Nb0 Se4 2.621255 1_545
Nb1 Se10 2.619531 1_455
Nb1 Se11 2.619540 1_445
Nb1 Se12 2.619540 1_555
Nb1 Se8 2.621255 1_445
Nb1 Se9 2.621255 1_555
Nb1 Se7 2.621255 1_455
Nb2 Se1 2.569947 1_555
Nb2 Se2 2.594220 1_555
Nb2 Se15 2.642349 1_545
Nb2 Se13 2.642353 1_545
Nb2 Se4 2.648502 1_545
Nb2 Se6 2.648506 1_545
Nb3 Se1 2.569947 1_555
Nb3 Se2 2.594221 1_555
Nb3 Se14 2.642349 1_655
Nb3 Se13 2.642353 1_655
Nb3 Se4 2.648502 1_655
Nb3 Se5 2.648506 1_655
Nb4 Se1 2.569956 1_555
Nb4 Se2 2.594229 1_555
Nb4 Se15 2.642353 1_555
Nb4 Se14 2.642354 1_555
Nb4 Se6 2.648501 1_555
Nb4 Se5 2.648502 1_555
Nb5 Se0 2.569947 1_555
Nb5 Se3 2.594220 1_555
Nb5 Se12 2.642349 1_565
Nb5 Se10 2.642353 1_565
Nb5 Se7 2.648502 1_565
Nb5 Se9 2.648506 1_565
Nb6 Se0 2.569947 1_555
Nb6 Se3 2.594221 1_555
Nb6 Se11 2.642349 1_455
Nb6 Se10 2.642353 1_455
Nb6 Se7 2.648502 1_455
Nb6 Se8 2.648506 1_455
Nb7 Se0 2.569956 1_555
Nb7 Se3 2.594229 1_555
Nb7 Se12 2.642353 1_555
Nb7 Se11 2.642354 1_555
Nb7 Se9 2.648501 1_555
Nb7 Se8 2.648502 1_555
Ni0 Se13 2.529007 1_545
Ni0 Se10 2.529007 1_454
Ni0 Se14 2.529016 1_555
Ni0 Se11 2.529016 1_444
Ni0 Se15 2.529017 1_445
Ni0 Se12 2.529017 1_554
