# generated using pymatgen
data_RbY(NbBr3)6
_symmetry_space_group_name_H-M   'P 1'
_cell_length_a   10.68134304
_cell_length_b   10.68134332
_cell_length_c   10.68134319
_cell_angle_alpha   55.39967866
_cell_angle_beta   55.39967712
_cell_angle_gamma   55.39968551
_symmetry_Int_Tables_number   1
_chemical_formula_structural   RbY(NbBr3)6
_chemical_formula_sum   'Rb1 Y1 Nb6 Br18'
_cell_volume   769.63282349
_cell_formula_units_Z   1
loop_
 _symmetry_equiv_pos_site_id
 _symmetry_equiv_pos_as_xyz
  1  'x, y, z'
loop_
 _atom_site_type_symbol
 _atom_site_label
 _atom_site_symmetry_multiplicity
 _atom_site_fract_x
 _atom_site_fract_y
 _atom_site_fract_z
 _atom_site_occupancy
  Rb  Rb0  1  0.22259376  0.22259376  0.22259376  1
  Y  Y0  1  0.49837289  0.49837289  0.49837289  1
  Nb  Nb0  1  0.80796548  0.14397454  0.91466469  1
  Nb  Nb1  1  0.91466469  0.80796548  0.14397454  1
  Nb  Nb2  1  0.14397454  0.91466469  0.80796548  1
  Nb  Nb3  1  0.19317040  0.85633839  0.08438263  1
  Nb  Nb4  1  0.08438263  0.19317040  0.85633839  1
  Nb  Nb5  1  0.85633839  0.08438263  0.19317040  1
  Br  Br0  1  0.86584319  0.41402805  0.72128896  1
  Br  Br1  1  0.72128896  0.86584319  0.41402805  1
  Br  Br2  1  0.41402805  0.72128896  0.86584319  1
  Br  Br3  1  0.13369492  0.58553630  0.28061448  1
  Br  Br4  1  0.28061448  0.13369492  0.58553630  1
  Br  Br5  1  0.58553630  0.28061448  0.13369492  1
  Br  Br6  1  0.53035126  0.34303190  0.80497900  1
  Br  Br7  1  0.80497900  0.53035126  0.34303190  1
  Br  Br8  1  0.34303190  0.80497900  0.53035126  1
  Br  Br9  1  0.46701331  0.65868460  0.19595301  1
  Br  Br10  1  0.19595301  0.46701331  0.65868460  1
  Br  Br11  1  0.65868460  0.19595301  0.46701331  1
  Br  Br12  1  0.65959074  0.93905910  0.07137230  1
  Br  Br13  1  0.07137230  0.65959074  0.93905910  1
  Br  Br14  1  0.93905910  0.07137230  0.65959074  1
  Br  Br15  1  0.34234752  0.06044366  0.92584489  1
  Br  Br16  1  0.92584489  0.34234752  0.06044366  1
  Br  Br17  1  0.06044366  0.92584489  0.34234752  1
loop_
_geom_bond_atom_site_label_1
_geom_bond_atom_site_label_2
_geom_bond_distance
_geom_bond_site_symmetry_2
Br0 Nb0 2.603377 1_555
Br0 Nb4 2.607752 1_655
Br1 Nb1 2.603377 1_555
Br1 Nb5 2.607751 1_565
Br2 Nb2 2.603377 1_555
Br2 Nb3 2.607752 1_556
Br3 Nb3 2.617780 1_555
Br3 Nb1 2.622097 1_455
Br3 Rb0 3.767519 1_555
Br4 Nb4 2.617780 1_555
Br4 Nb2 2.622097 1_545
Br4 Rb0 3.767518 1_555
Br5 Nb5 2.617781 1_555
Br5 Nb0 2.622097 1_554
Br5 Rb0 3.767518 1_555
Br6 Y0 2.837356 1_555
Br6 Nb0 2.939803 1_555
Br6 Rb0 3.740473 1_556
Br7 Y0 2.837356 1_555
Br7 Nb1 2.939802 1_555
Br7 Rb0 3.740474 1_655
Br8 Y0 2.837356 1_555
Br8 Nb2 2.939802 1_555
Br8 Rb0 3.740474 1_565
Br9 Y0 2.788260 1_555
Br9 Nb3 2.919116 1_555
Br10 Y0 2.788260 1_555
Br10 Nb4 2.919116 1_555
Br11 Y0 2.788261 1_555
Br11 Nb5 2.919116 1_555
Br12 Nb1 2.611276 1_555
Br12 Nb0 2.621107 1_564
Br12 Rb0 3.808812 1_565
Br13 Nb2 2.611276 1_555
Br13 Nb1 2.621108 1_456
Br13 Rb0 3.808812 1_556
Br14 Nb0 2.611276 1_555
Br14 Nb2 2.621108 1_645
Br14 Rb0 3.808811 1_655
Br15 Nb4 2.616266 1_555
Br15 Nb3 2.616770 1_546
Br15 Rb0 3.714417 1_556
Br16 Nb5 2.616266 1_555
Br16 Nb4 2.616770 1_654
Br16 Rb0 3.714417 1_655
Br17 Nb3 2.616266 1_555
Br17 Nb5 2.616771 1_465
Br17 Rb0 3.714416 1_565
