# generated using pymatgen
data_Li2TcSn8Pd
_symmetry_space_group_name_H-M   'P 1'
_cell_length_a   7.38690071
_cell_length_b   7.38689928
_cell_length_c   7.38689962
_cell_angle_alpha   125.80796835
_cell_angle_beta   125.80795341
_cell_angle_gamma   80.20399654
_symmetry_Int_Tables_number   1
_chemical_formula_structural   Li2TcSn8Pd
_chemical_formula_sum   'Li2 Tc1 Sn8 Pd1'
_cell_volume   255.85572934
_cell_formula_units_Z   1
loop_
 _symmetry_equiv_pos_site_id
 _symmetry_equiv_pos_as_xyz
  1  'x, y, z'
loop_
 _atom_site_type_symbol
 _atom_site_label
 _atom_site_symmetry_multiplicity
 _atom_site_fract_x
 _atom_site_fract_y
 _atom_site_fract_z
 _atom_site_occupancy
  Li  Li0  1  0.49525730  0.49525730  0.00000000  1
  Li  Li1  1  0.00474270  0.00474270  1.00000000  1
  Tc  Tc0  1  0.75000000  0.75000000  0.00000000  1
  Sn  Sn0  1  0.19978859  0.01540461  0.48741648  1
  Sn  Sn1  1  0.01540461  0.52798813  0.81561702  1
  Sn  Sn2  1  0.71237211  0.19978859  0.18438298  1
  Sn  Sn3  1  0.30021141  0.78762789  0.81561702  1
  Sn  Sn4  1  0.97201187  0.48459539  0.18438298  1
  Sn  Sn5  1  0.78762789  0.97201187  0.48741648  1
  Sn  Sn6  1  0.48459539  0.30021141  0.51258352  1
  Sn  Sn7  1  0.52798813  0.71237211  0.51258352  1
  Pd  Pd0  1  0.25000000  0.25000000  0.00000000  1
loop_
_geom_bond_atom_site_label_1
_geom_bond_atom_site_label_2
_geom_bond_distance
_geom_bond_site_symmetry_2
Li0 Pd0 2.771521 1_555
Li0 Tc0 2.878711 1_555
Li0 Sn3 2.946567 1_554
Li0 Sn6 2.946571 1_554
Li0 Sn5 2.946572 1_555
Li0 Sn4 2.946574 1_555
Li0 Sn2 2.987027 1_555
Li0 Sn7 2.987031 1_555
Li0 Sn0 2.987031 1_554
Li0 Sn1 2.987033 1_554
Li1 Pd0 2.771521 1_556
Li1 Tc0 2.878711 1_446
Li1 Sn2 2.946567 1_456
Li1 Sn0 2.946572 1_556
Li1 Sn7 2.946572 1_445
Li1 Sn1 2.946573 1_545
Li1 Sn3 2.987027 1_545
Li1 Sn5 2.987031 1_445
Li1 Sn6 2.987032 1_556
Li1 Sn4 2.987032 1_456
Sn0 Tc0 2.793754 1_445
Sn1 Tc0 2.793750 1_456
Sn2 Tc0 2.793755 1_545
Sn3 Tc0 2.793756 1_556
Sn4 Tc0 2.793750 1_555
Sn5 Tc0 2.793754 1_555
Sn6 Tc0 2.793754 1_556
Sn7 Tc0 2.793754 1_556
Pd0 Sn4 2.893933 1_455
Pd0 Sn1 2.893933 1_554
Pd0 Sn0 2.893937 1_554
Pd0 Sn7 2.893937 1_555
Pd0 Sn6 2.893937 1_555
Pd0 Sn5 2.893938 1_444
Pd0 Sn3 2.893938 1_544
Pd0 Sn2 2.893939 1_555
