# generated using pymatgen
data_CsH5Ir
_symmetry_space_group_name_H-M   'P 1'
_cell_length_a   11.40720765
_cell_length_b   7.50220421
_cell_length_c   4.70253579
_cell_angle_alpha   90.00000000
_cell_angle_beta   90.00000000
_cell_angle_gamma   90.00000000
_symmetry_Int_Tables_number   1
_chemical_formula_structural   CsH5Ir
_chemical_formula_sum   'Cs4 H20 Ir4'
_cell_volume   402.43925642
_cell_formula_units_Z   4
loop_
 _symmetry_equiv_pos_site_id
 _symmetry_equiv_pos_as_xyz
  1  'x, y, z'
loop_
 _atom_site_type_symbol
 _atom_site_label
 _atom_site_symmetry_multiplicity
 _atom_site_fract_x
 _atom_site_fract_y
 _atom_site_fract_z
 _atom_site_occupancy
  Cs  Cs0  1  0.67461893  0.09777580  0.26777600  1
  Cs  Cs1  1  0.17461893  0.40222320  0.26777600  1
  Cs  Cs2  1  0.82538107  0.59777580  0.76777600  1
  Cs  Cs3  1  0.32538107  0.90222420  0.76777600  1
  H  H0  1  0.32430746  0.34256681  0.76823436  1
  H  H1  1  0.82430746  0.15743319  0.76823436  1
  H  H2  1  0.04898813  0.74043973  0.50489848  1
  H  H3  1  0.54898813  0.75955927  0.50489848  1
  H  H4  1  0.58293170  0.45554074  0.98744163  1
  H  H5  1  0.08293070  0.04445926  0.98744163  1
  H  H6  1  0.41726269  0.54473051  0.04496975  1
  H  H7  1  0.91726269  0.95527049  0.04496975  1
  H  H8  1  0.95007759  0.25915187  0.52726900  1
  H  H9  1  0.45007759  0.24084913  0.52726900  1
  H  H10  1  0.17569254  0.84256681  0.26823336  1
  H  H11  1  0.67569254  0.65743219  0.26823336  1
  H  H12  1  0.45101287  0.24043973  0.00490048  1
  H  H13  1  0.95101287  0.25955927  0.00490048  1
  H  H14  1  0.91706930  0.95553974  0.48744163  1
  H  H15  1  0.41706930  0.54446026  0.48744163  1
  H  H16  1  0.08273731  0.04472951  0.54496975  1
  H  H17  1  0.58273731  0.45527049  0.54496975  1
  H  H18  1  0.54992241  0.75915187  0.02727100  1
  H  H19  1  0.04992241  0.74084913  0.02727100  1
  Ir  Ir0  1  0.53886791  0.60849350  0.26640879  1
  Ir  Ir1  1  0.03886791  0.89150650  0.26640879  1
  Ir  Ir2  1  0.96113209  0.10849250  0.76640779  1
  Ir  Ir3  1  0.46113209  0.39150750  0.76640779  1
loop_
_geom_bond_atom_site_label_1
_geom_bond_atom_site_label_2
_geom_bond_distance
_geom_bond_site_symmetry_2
Cs0 H1 2.938417 1_554
Cs0 H1 2.941864 1_555
Cs0 H12 3.029827 1_555
Cs0 H9 3.033464 1_555
Cs0 H3 3.120161 1_545
Cs0 H18 3.123495 1_545
Cs0 H14 3.139223 1_545
Cs0 H7 3.146740 1_545
Cs0 H17 3.160823 1_555
Cs0 H4 3.167927 1_554
Cs0 H11 3.303571 1_545
Cs1 H0 2.938416 1_554
Cs1 H0 2.941863 1_555
Cs1 H13 3.029827 1_455
Cs1 H8 3.033458 1_455
Cs1 H2 3.120161 1_555
Cs1 H19 3.123507 1_555
Cs1 H15 3.139226 1_555
Cs1 H6 3.146746 1_555
Cs1 H16 3.160817 1_555
Cs1 H5 3.167924 1_554
Cs1 H10 3.303571 1_555
Cs2 H11 2.938419 1_555
Cs2 H11 2.941859 1_556
Cs2 H2 3.029840 1_655
Cs2 H19 3.033467 1_656
Cs2 H13 3.120170 1_556
Cs2 H8 3.123498 1_555
Cs2 H4 3.139211 1_555
Cs2 H17 3.146740 1_555
Cs2 H7 3.160823 1_556
Cs2 H14 3.167924 1_555
Cs2 H1 3.303564 1_555
Cs3 H10 2.938421 1_555
Cs3 H10 2.941861 1_556
Cs3 H3 3.029843 1_555
Cs3 H18 3.033465 1_556
Cs3 H12 3.120164 1_566
Cs3 H9 3.123504 1_565
Cs3 H5 3.139221 1_565
Cs3 H16 3.146740 1_565
Cs3 H6 3.160817 1_556
Cs3 H15 3.167924 1_555
Cs3 H0 3.303564 1_565
H0 Ir3 1.603415 1_555
H1 Ir2 1.603415 1_555
H2 Ir1 1.598608 1_555
H3 Ir0 1.598603 1_555
H4 Ir3 1.800440 1_555
H4 Ir0 1.813926 1_556
H5 Ir2 1.800431 1_455
H5 Ir1 1.813923 1_546
H6 Ir0 1.799291 1_555
H6 Ir3 1.813219 1_554
H7 Ir1 1.799292 1_655
H7 Ir2 1.813215 1_564
H8 Ir2 1.599394 1_555
H9 Ir3 1.599389 1_555
H10 Ir1 1.603413 1_555
H11 Ir0 1.603411 1_555
H12 Ir3 1.598623 1_554
H13 Ir2 1.598618 1_554
H14 Ir1 1.800428 1_655
H14 Ir2 1.813919 1_565
H15 Ir0 1.800428 1_555
H15 Ir3 1.813919 1_555
H16 Ir2 1.799288 1_455
H16 Ir1 1.813216 1_545
H17 Ir3 1.799288 1_555
H17 Ir0 1.813216 1_555
H18 Ir0 1.599385 1_555
H19 Ir1 1.599380 1_555
