# generated using pymatgen
data_Ba2Cu3MoAs4
_symmetry_space_group_name_H-M   'P 1'
_cell_length_a   5.75568936
_cell_length_b   7.18314341
_cell_length_c   5.76913103
_cell_angle_alpha   66.33837173
_cell_angle_beta   90.00012820
_cell_angle_gamma   89.99980650
_symmetry_Int_Tables_number   1
_chemical_formula_structural   Ba2Cu3MoAs4
_chemical_formula_sum   'Ba2 Cu3 Mo1 As4'
_cell_volume   218.46673536
_cell_formula_units_Z   1
loop_
 _symmetry_equiv_pos_site_id
 _symmetry_equiv_pos_as_xyz
  1  'x, y, z'
loop_
 _atom_site_type_symbol
 _atom_site_label
 _atom_site_symmetry_multiplicity
 _atom_site_fract_x
 _atom_site_fract_y
 _atom_site_fract_z
 _atom_site_occupancy
  Ba  Ba0  1  0.99685808  0.99999774  0.00000247  1
  Ba  Ba1  1  0.50252137  0.99999861  0.49999887  1
  Cu  Cu0  1  0.25054885  0.49999913  0.99999868  1
  Cu  Cu1  1  0.74912648  0.50000845  0.99999395  1
  Cu  Cu2  1  0.75001237  0.50000741  0.49999972  1
  Mo  Mo0  1  0.25011055  0.49999967  0.49999840  1
  As  As0  1  0.49585620  0.71072540  0.14813946  1
  As  As1  1  0.00455212  0.71029792  0.64178377  1
  As  As2  1  0.00455389  0.28969394  0.35822304  1
  As  As3  1  0.49585910  0.28927171  0.85186165  1
loop_
_geom_bond_atom_site_label_1
_geom_bond_atom_site_label_2
_geom_bond_distance
_geom_bond_site_symmetry_2
Cu0 Mo0 2.884567 1_556
Cu0 Mo0 2.884567 1_555
Cu2 Mo0 2.877280 1_555
Cu2 Mo0 2.878410 1_655
As0 Mo0 2.438469 1_555
As0 Cu0 2.460390 1_554
As0 Cu2 2.466840 1_555
As0 Cu1 2.486936 1_554
As0 Ba1 3.438795 1_555
As0 Ba0 3.445487 1_455
As0 Ba0 3.455121 1_555
As0 Ba1 3.473372 1_554
As1 Mo0 2.437292 1_555
As1 Cu0 2.460008 1_555
As1 Cu2 2.467586 1_455
As1 Cu1 2.491616 1_455
As1 Ba1 3.442108 1_555
As1 Ba0 3.443342 1_455
As1 Ba1 3.461582 1_455
As1 Ba0 3.472047 1_456
As2 Mo0 2.437296 1_555
As2 Cu0 2.460058 1_554
As2 Cu2 2.467686 1_455
As2 Cu1 2.491723 1_454
As2 Ba1 3.442065 1_545
As2 Ba0 3.443329 1_446
As2 Ba1 3.461586 1_445
As2 Ba0 3.472035 1_445
As3 Mo0 2.438486 1_555
As3 Cu0 2.460389 1_555
As3 Cu2 2.466884 1_555
As3 Cu1 2.486992 1_555
As3 Ba1 3.438811 1_545
As3 Ba0 3.445522 1_446
As3 Ba0 3.455099 1_546
As3 Ba1 3.473355 1_546
