# generated using pymatgen
data_AgIr4Pb3O14
_symmetry_space_group_name_H-M   'P 1'
_cell_length_a   7.28372434
_cell_length_b   7.19684304
_cell_length_c   7.28372478
_cell_angle_alpha   59.59985367
_cell_angle_beta   60.00000679
_cell_angle_gamma   59.59985138
_symmetry_Int_Tables_number   1
_chemical_formula_structural   AgIr4Pb3O14
_chemical_formula_sum   'Ag1 Ir4 Pb3 O14'
_cell_volume   268.33709965
_cell_formula_units_Z   1
loop_
 _symmetry_equiv_pos_site_id
 _symmetry_equiv_pos_as_xyz
  1  'x, y, z'
loop_
 _atom_site_type_symbol
 _atom_site_label
 _atom_site_symmetry_multiplicity
 _atom_site_fract_x
 _atom_site_fract_y
 _atom_site_fract_z
 _atom_site_occupancy
  Ag  Ag0  1  0.12500000  0.62500000  0.12500000  1
  Ir  Ir0  1  0.12500000  0.62500000  0.62500000  1
  Ir  Ir1  1  0.62500000  0.12500000  0.62500000  1
  Ir  Ir2  1  0.62500000  0.62500000  0.12500000  1
  Ir  Ir3  1  0.62500000  0.62500000  0.62500000  1
  Pb  Pb0  1  0.62500000  0.12500000  0.12500000  1
  Pb  Pb1  1  0.12500000  0.12500000  0.62500000  1
  Pb  Pb2  1  0.12500000  0.12500000  0.12500000  1
  O  O0  1  0.69063636  0.70808816  0.30063724  1
  O  O1  1  0.29496039  0.29119270  0.70692396  1
  O  O2  1  0.70692396  0.29119270  0.70692396  1
  O  O3  1  0.30063724  0.70808816  0.30063724  1
  O  O4  1  0.30063724  0.70808816  0.69063636  1
  O  O5  1  0.70692396  0.29119270  0.29496039  1
  O  O6  1  0.55936364  0.54191184  0.94936276  1
  O  O7  1  0.95503961  0.95880730  0.54307604  1
  O  O8  1  0.54307604  0.95880730  0.54307604  1
  O  O9  1  0.94936276  0.54191184  0.94936276  1
  O  O10  1  0.94936276  0.54191184  0.55936364  1
  O  O11  1  0.54307604  0.95880730  0.95503961  1
  O  O12  1  0.24199409  0.27401773  0.24199409  1
  O  O13  1  0.00800591  0.97598227  0.00800591  1
loop_
_geom_bond_atom_site_label_1
_geom_bond_atom_site_label_2
_geom_bond_distance
_geom_bond_site_symmetry_2
Ag0 O13 2.049879 1_555
Ag0 O12 2.049879 1_555
Ag0 O3 2.610705 1_555
Ag0 O9 2.610705 1_454
Ag0 O6 2.610711 1_554
Ag0 O0 2.610711 1_455
Ag0 O10 2.610711 1_455
Ag0 O4 2.610711 1_554
Ir0 O4 1.974301 1_555
Ir0 O10 1.974301 1_455
Ir0 O3 1.974307 1_555
Ir0 O9 1.974307 1_455
Ir0 O7 1.984411 1_455
Ir0 O1 1.984411 1_555
Ir1 O7 1.985794 1_545
Ir1 O1 1.985794 1_555
Ir1 O11 1.985795 1_545
Ir1 O5 1.985795 1_555
Ir1 O2 1.985800 1_555
Ir1 O8 1.985800 1_545
Ir2 O0 1.974301 1_555
Ir2 O6 1.974301 1_554
Ir2 O9 1.974307 1_554
Ir2 O3 1.974307 1_555
Ir2 O11 1.984411 1_554
Ir2 O5 1.984411 1_555
Ir3 O10 1.974308 1_555
Ir3 O4 1.974308 1_555
Ir3 O6 1.974308 1_555
Ir3 O0 1.974308 1_555
Ir3 O8 1.984409 1_555
Ir3 O2 1.984409 1_555
O0 Pb0 2.478485 1_565
O1 Pb2 2.505726 1_556
O1 Pb1 2.505731 1_555
O2 Pb1 2.505725 1_655
O2 Pb0 2.505725 1_556
O3 Pb2 2.478484 1_565
O4 Pb1 2.478485 1_565
O5 Pb2 2.505726 1_655
O5 Pb0 2.505731 1_555
O6 Pb0 2.478485 1_556
O7 Pb2 2.505726 1_665
O7 Pb1 2.505731 1_665
O8 Pb1 2.505725 1_565
O8 Pb0 2.505725 1_565
O9 Pb2 2.478484 1_656
O10 Pb1 2.478485 1_655
O11 Pb2 2.505726 1_566
O11 Pb0 2.505731 1_566
O12 Pb2 2.275635 1_555
O12 Pb0 2.275636 1_555
O12 Pb1 2.275636 1_555
O13 Pb2 2.275635 1_565
O13 Pb0 2.275636 1_465
O13 Pb1 2.275636 1_564
