# generated using pymatgen
data_SrBe(AlCu2)4
_symmetry_space_group_name_H-M   'P 1'
_cell_length_a   8.21496812
_cell_length_b   8.21496845
_cell_length_c   8.21496859
_cell_angle_alpha   119.75246548
_cell_angle_beta   119.75245609
_cell_angle_gamma   90.42929321
_symmetry_Int_Tables_number   1
_chemical_formula_structural   SrBe(AlCu2)4
_chemical_formula_sum   'Sr2 Be2 Al8 Cu16'
_cell_volume   393.46977235
_cell_formula_units_Z   2
loop_
 _symmetry_equiv_pos_site_id
 _symmetry_equiv_pos_as_xyz
  1  'x, y, z'
loop_
 _atom_site_type_symbol
 _atom_site_label
 _atom_site_symmetry_multiplicity
 _atom_site_fract_x
 _atom_site_fract_y
 _atom_site_fract_z
 _atom_site_occupancy
  Sr  Sr0  1  0.25000000  0.25000000  0.00000000  1
  Sr  Sr1  1  0.75000000  0.75000000  0.00000000  1
  Be  Be0  1  0.50000000  0.00000000  0.50000000  1
  Be  Be1  1  0.00000000  0.50000000  0.50000000  1
  Al  Al0  1  0.80378871  0.30378871  0.86681973  1
  Al  Al1  1  0.56303102  0.06303102  0.86681973  1
  Al  Al2  1  0.06303102  0.19621129  0.50000000  1
  Al  Al3  1  0.30378871  0.43696898  0.50000000  1
  Al  Al4  1  0.93696898  0.80378871  0.50000000  1
  Al  Al5  1  0.43696898  0.93696898  0.13318027  1
  Al  Al6  1  0.19621129  0.69621129  0.13318027  1
  Al  Al7  1  0.69621129  0.56303102  0.50000000  1
  Cu  Cu0  1  0.94304265  0.21126925  0.15431091  1
  Cu  Cu1  1  0.21126925  0.05695735  0.26822560  1
  Cu  Cu2  1  0.78873075  0.94304265  0.73177440  1
  Cu  Cu3  1  0.44304265  0.28873075  0.73177440  1
  Cu  Cu4  1  0.05695735  0.78873075  0.84568909  1
  Cu  Cu5  1  0.78456309  0.06479741  0.50000000  1
  Cu  Cu6  1  0.56479741  0.28456309  0.50000000  1
  Cu  Cu7  1  0.21543691  0.93520259  0.50000000  1
  Cu  Cu8  1  0.43520259  0.71543691  0.50000000  1
  Cu  Cu9  1  0.93520259  0.43520259  0.71976468  1
  Cu  Cu10  1  0.71543691  0.21543691  0.28023532  1
  Cu  Cu11  1  0.06479741  0.56479741  0.28023532  1
  Cu  Cu12  1  0.71126925  0.44304265  0.15431091  1
  Cu  Cu13  1  0.55695735  0.71126925  0.26822560  1
  Cu  Cu14  1  0.28456309  0.78456309  0.71976468  1
  Cu  Cu15  1  0.28873075  0.55695735  0.84568909  1
loop_
_geom_bond_atom_site_label_1
_geom_bond_atom_site_label_2
_geom_bond_distance
_geom_bond_site_symmetry_2
Be0 Cu5 2.393624 1_555
Be0 Cu7 2.393624 1_545
Be0 Cu6 2.393625 1_555
Be0 Cu8 2.393625 1_545
Be0 Cu3 2.426668 1_555
Be0 Cu13 2.426668 1_545
Be0 Cu2 2.426668 1_545
Be0 Cu1 2.426668 1_555
Be1 Cu11 2.393617 1_555
Be1 Cu9 2.393617 1_455
Be1 Cu14 2.393626 1_555
Be1 Cu10 2.393626 1_455
Be1 Cu4 2.426669 1_555
Be1 Cu0 2.426669 1_455
Be1 Cu15 2.426670 1_555
Be1 Cu12 2.426670 1_455
Al0 Cu11 2.491039 1_656
Al0 Cu9 2.522225 1_555
Al0 Be0 2.552561 1_555
Al0 Cu12 2.564605 1_556
Al0 Cu0 2.564606 1_556
Al0 Cu5 2.571232 1_555
Al0 Cu6 2.571232 1_555
Al0 Cu2 2.573659 1_545
Al0 Cu3 2.573659 1_555
Al0 Al1 2.786557 1_555
Al0 Sr1 3.369369 1_556
Al0 Sr0 3.369369 1_656
Al1 Cu10 2.491042 1_556
Al1 Cu14 2.522214 1_545
Al1 Be0 2.552562 1_555
Al1 Cu12 2.564612 1_556
Al1 Cu0 2.564612 1_556
Al1 Cu8 2.571232 1_545
Al1 Cu7 2.571232 1_545
Al1 Cu2 2.573653 1_545
Al1 Cu3 2.573653 1_555
Al1 Sr0 3.369369 1_556
Al1 Sr1 3.369369 1_546
Al2 Cu7 2.491035 1_545
Al2 Cu5 2.522218 1_455
Al2 Be1 2.552562 1_555
Al2 Cu3 2.564612 1_555
Al2 Cu1 2.564619 1_555
Al2 Cu9 2.571227 1_455
Al2 Cu10 2.571230 1_455
Al2 Cu15 2.573659 1_555
Al2 Cu0 2.573665 1_455
Al2 Al3 2.786557 1_555
Al2 Sr1 3.369369 1_445
Al2 Sr0 3.369369 1_556
Al3 Cu6 2.491035 1_555
Al3 Cu8 2.522218 1_555
Al3 Be1 2.552562 1_555
Al3 Cu1 2.564612 1_555
Al3 Cu3 2.564619 1_555
Al3 Cu11 2.571228 1_555
Al3 Cu14 2.571230 1_555
Al3 Cu0 2.573659 1_455
Al3 Cu15 2.573665 1_555
Al3 Sr1 3.369369 1_556
Al3 Sr0 3.369369 1_555
Al4 Cu5 2.491035 1_565
Al4 Cu7 2.522218 1_655
Al4 Be1 2.552562 1_655
Al4 Cu13 2.564612 1_555
Al4 Cu2 2.564619 1_555
Al4 Cu11 2.571227 1_655
Al4 Cu14 2.571230 1_655
Al4 Cu12 2.573659 1_555
Al4 Cu4 2.573665 1_655
Al4 Al7 2.786557 1_555
Al4 Sr0 3.369369 1_666
Al4 Sr1 3.369369 1_555
Al5 Cu14 2.491042 1_554
Al5 Cu10 2.522214 1_565
Al5 Be0 2.552562 1_565
Al5 Cu15 2.564612 1_554
Al5 Cu4 2.564612 1_554
Al5 Cu6 2.571232 1_565
Al5 Cu5 2.571232 1_565
Al5 Cu1 2.573653 1_565
Al5 Cu13 2.573653 1_555
Al5 Al6 2.786557 1_555
Al5 Sr1 3.369369 1_555
Al5 Sr0 3.369369 1_565
Al6 Cu9 2.491039 1_454
Al6 Cu11 2.522225 1_555
Al6 Be0 2.552561 1_565
Al6 Cu15 2.564605 1_554
Al6 Cu4 2.564606 1_554
Al6 Cu7 2.571232 1_555
Al6 Cu8 2.571232 1_555
Al6 Cu1 2.573659 1_565
Al6 Cu13 2.573659 1_555
Al6 Sr0 3.369369 1_555
Al6 Sr1 3.369369 1_455
Al7 Cu8 2.491035 1_555
Al7 Cu6 2.522218 1_555
Al7 Be1 2.552562 1_655
Al7 Cu2 2.564612 1_555
Al7 Cu13 2.564619 1_555
Al7 Cu9 2.571228 1_555
Al7 Cu10 2.571230 1_555
Al7 Cu4 2.573659 1_655
Al7 Cu12 2.573665 1_555
Al7 Sr0 3.369369 1_555
Al7 Sr1 3.369369 1_556
Cu0 Cu11 2.540233 1_655
Cu0 Cu10 2.540251 1_555
Cu0 Cu2 2.551594 1_544
Cu0 Cu1 2.551606 1_655
Cu0 Cu12 2.702747 1_555
Cu0 Sr0 3.409958 1_655
Cu0 Sr1 3.409967 1_545
Cu1 Cu6 2.540237 1_555
Cu1 Cu7 2.540246 1_545
Cu1 Cu4 2.551594 1_544
Cu1 Cu3 2.702759 1_555
Cu1 Sr0 3.409957 1_555
Cu1 Sr1 3.409966 1_445
Cu2 Cu8 2.540237 1_555
Cu2 Cu5 2.540246 1_565
Cu2 Cu4 2.551606 1_655
Cu2 Sr1 3.409957 1_556
Cu2 Sr0 3.409966 1_666
Cu3 Cu7 2.540237 1_545
Cu3 Cu6 2.540246 1_555
Cu3 Sr0 3.409956 1_556
Cu3 Sr1 3.409966 1_556
Cu4 Cu9 2.540233 1_455
Cu4 Sr1 3.409958 1_456
Cu4 Sr0 3.409967 1_566
Cu5 Cu9 2.514684 1_555
Cu5 Cu6 2.562723 1_555
Cu5 Sr1 3.453781 1_545
Cu5 Sr0 3.453781 1_656
Cu6 Cu9 2.514684 1_555
Cu6 Sr1 3.453781 1_556
Cu6 Sr0 3.453781 1_555
Cu7 Cu8 2.562723 1_555
Cu7 Sr0 3.453781 1_566
Cu7 Sr1 3.453781 1_455
Cu8 Sr0 3.453781 1_555
Cu8 Sr1 3.453781 1_556
Cu9 Sr1 3.453785 1_556
Cu9 Sr0 3.453786 1_656
Cu10 Cu6 2.514676 1_555
Cu10 Cu5 2.514677 1_555
Cu10 Cu12 2.540251 1_555
Cu10 Cu9 2.562711 1_555
Cu10 Sr1 3.453782 1_545
Cu10 Sr0 3.453783 1_555
Cu11 Cu7 2.514684 1_555
Cu11 Cu8 2.514684 1_555
Cu11 Cu12 2.540233 1_455
Cu11 Cu14 2.562711 1_555
Cu11 Sr0 3.453785 1_555
Cu11 Sr1 3.453786 1_455
Cu12 Cu3 2.551595 1_554
Cu12 Cu13 2.551606 1_555
Cu12 Sr1 3.409958 1_555
Cu12 Sr0 3.409967 1_555
Cu13 Cu5 2.540237 1_565
Cu13 Cu8 2.540246 1_555
Cu13 Cu15 2.551595 1_554
Cu13 Cu2 2.702759 1_555
Cu13 Sr1 3.409956 1_555
Cu13 Sr0 3.409966 1_555
Cu14 Cu8 2.514676 1_555
Cu14 Cu7 2.514677 1_555
Cu14 Cu4 2.540251 1_555
Cu14 Cu15 2.540251 1_555
Cu14 Sr0 3.453782 1_566
Cu14 Sr1 3.453783 1_556
Cu15 Cu9 2.540233 1_455
Cu15 Cu3 2.551606 1_555
Cu15 Cu4 2.702747 1_555
Cu15 Sr0 3.409958 1_556
Cu15 Sr1 3.409967 1_556
