# generated using pymatgen
data_Rb16HfSnAs8
_symmetry_space_group_name_H-M   'P 1'
_cell_length_a   11.38534643
_cell_length_b   11.38534676
_cell_length_c   11.38534717
_cell_angle_alpha   60.00000163
_cell_angle_beta   60.00000067
_cell_angle_gamma   60.00000628
_symmetry_Int_Tables_number   1
_chemical_formula_structural   Rb16HfSnAs8
_chemical_formula_sum   'Rb16 Hf1 Sn1 As8'
_cell_volume   1043.57536918
_cell_formula_units_Z   1
loop_
 _symmetry_equiv_pos_site_id
 _symmetry_equiv_pos_as_xyz
  1  'x, y, z'
loop_
 _atom_site_type_symbol
 _atom_site_label
 _atom_site_symmetry_multiplicity
 _atom_site_fract_x
 _atom_site_fract_y
 _atom_site_fract_z
 _atom_site_occupancy
  Rb  Rb0  1  0.62326474  0.13020479  0.62326474  1
  Rb  Rb1  1  0.62326474  0.62326474  0.13020479  1
  Rb  Rb2  1  0.13020479  0.62326474  0.62326474  1
  Rb  Rb3  1  0.62326474  0.62326474  0.62326474  1
  Rb  Rb4  1  0.02286638  0.02286638  0.47713362  1
  Rb  Rb5  1  0.77785968  0.22214032  0.22214032  1
  Rb  Rb6  1  0.22214032  0.77785968  0.77785968  1
  Rb  Rb7  1  0.77785968  0.77785968  0.22214032  1
  Rb  Rb8  1  0.77785968  0.22214032  0.77785968  1
  Rb  Rb9  1  0.22214032  0.77785968  0.22214032  1
  Rb  Rb10  1  0.47713362  0.02286638  0.47713362  1
  Rb  Rb11  1  0.47713362  0.02286638  0.02286638  1
  Rb  Rb12  1  0.02286638  0.47713362  0.47713362  1
  Rb  Rb13  1  0.02286638  0.47713362  0.02286638  1
  Rb  Rb14  1  0.22214032  0.22214032  0.77785968  1
  Rb  Rb15  1  0.47713362  0.47713362  0.02286638  1
  Hf  Hf0  1  0.75000000  0.75000000  0.75000000  1
  Sn  Sn0  1  0.50000000  0.50000000  0.50000000  1
  As  As0  1  0.40153261  0.79540317  0.40153261  1
  As  As1  1  0.84540698  0.84540698  0.46377905  1
  As  As2  1  0.46377905  0.84540698  0.84540698  1
  As  As3  1  0.84540698  0.84540698  0.84540698  1
  As  As4  1  0.79540317  0.40153261  0.40153261  1
  As  As5  1  0.40153261  0.40153261  0.40153261  1
  As  As6  1  0.40153261  0.40153261  0.79540317  1
  As  As7  1  0.84540698  0.46377905  0.84540698  1
loop_
_geom_bond_atom_site_label_1
_geom_bond_atom_site_label_2
_geom_bond_distance
_geom_bond_site_symmetry_2
Rb0 Sn0 3.437652 1_555
Rb0 Rb10 3.723468 1_555
Rb0 Rb4 3.723478 1_655
Rb0 Rb11 3.723478 1_556
Rb0 Rb14 3.751570 1_555
Rb0 Rb5 3.751570 1_555
Rb0 Rb8 3.751579 1_555
Rb1 Sn0 3.437652 1_555
Rb1 Rb15 3.723468 1_555
Rb1 Rb13 3.723478 1_655
Rb1 Rb11 3.723478 1_565
Rb1 Rb9 3.751570 1_555
Rb1 Rb5 3.751570 1_555
Rb1 Rb7 3.751579 1_555
Rb2 Sn0 3.437652 1_555
Rb2 Rb4 3.723478 1_565
Rb2 Rb9 3.751570 1_555
Rb2 Rb6 3.751579 1_555
Rb3 Sn0 3.437643 1_555
Rb3 Rb6 3.751571 1_555
Rb3 Rb7 3.751571 1_555
Rb3 Rb8 3.751571 1_555
Rb10 Rb3 3.723477 1_545
Rb12 Rb2 3.723468 1_555
Rb12 Rb3 3.723477 1_455
Rb13 Rb2 3.723478 1_554
Rb14 Rb2 3.751570 1_555
Rb15 Rb3 3.723477 1_554
Hf0 Rb2 3.534421 1_655
Hf0 Rb1 3.534421 1_556
Hf0 Rb0 3.534421 1_565
Hf0 Rb3 3.534430 1_555
As0 Sn0 2.746097 1_555
As0 Rb3 3.614553 1_555
As0 Rb2 3.614570 1_555
As0 Rb1 3.614571 1_555
As0 Rb7 3.656564 1_555
As0 Rb6 3.656564 1_555
As0 Rb9 3.656574 1_555
As0 Rb10 3.658914 1_565
As0 Rb11 3.658922 1_565
As0 Rb4 3.658922 1_565
As1 Hf0 2.660738 1_555
As1 Rb4 3.589431 1_665
As1 Rb10 3.589431 1_565
As1 Rb12 3.589431 1_655
As1 Rb2 3.647217 1_655
As1 Rb0 3.647217 1_565
As1 Rb3 3.647226 1_555
As1 Rb7 3.684374 1_555
As1 Rb9 3.684374 1_655
As1 Rb5 3.684374 1_565
As2 Hf0 2.660738 1_555
As2 Rb11 3.589431 1_566
As2 Rb15 3.589431 1_556
As2 Rb10 3.589431 1_565
As2 Rb0 3.647217 1_565
As2 Rb1 3.647217 1_556
As2 Rb3 3.647226 1_555
As2 Rb6 3.684374 1_555
As2 Rb9 3.684374 1_556
As2 Rb14 3.684375 1_565
As3 Hf0 2.660738 1_555
As3 Rb4 3.589431 1_665
As3 Rb11 3.589431 1_566
As3 Rb13 3.589431 1_656
As3 Rb1 3.647224 1_556
As3 Rb2 3.647224 1_655
As3 Rb0 3.647224 1_565
As3 Rb6 3.684374 1_655
As3 Rb8 3.684374 1_565
As3 Rb7 3.684374 1_556
As4 Sn0 2.746096 1_555
As4 Rb3 3.614553 1_555
As4 Rb0 3.614570 1_555
As4 Rb1 3.614571 1_555
As4 Rb7 3.656564 1_555
As4 Rb8 3.656564 1_555
As4 Rb5 3.656574 1_555
As4 Rb12 3.658914 1_655
As4 Rb13 3.658922 1_655
As4 Rb4 3.658922 1_655
As5 Sn0 2.746087 1_555
As5 Rb1 3.614556 1_555
As5 Rb2 3.614557 1_555
As5 Rb0 3.614557 1_555
As5 Rb14 3.656567 1_555
As5 Rb5 3.656567 1_555
As5 Rb9 3.656567 1_555
As5 Rb12 3.658924 1_555
As5 Rb10 3.658925 1_555
As5 Rb15 3.658925 1_555
As6 Sn0 2.746097 1_555
As6 Rb3 3.614553 1_555
As6 Rb2 3.614571 1_555
As6 Rb0 3.614571 1_555
As6 Rb8 3.656564 1_555
As6 Rb6 3.656564 1_555
As6 Rb14 3.656573 1_555
As6 Rb15 3.658914 1_556
As6 Rb13 3.658922 1_556
As6 Rb11 3.658922 1_556
As7 Hf0 2.660738 1_555
As7 Rb15 3.589431 1_556
As7 Rb13 3.589431 1_656
As7 Rb12 3.589431 1_655
As7 Rb2 3.647217 1_655
As7 Rb1 3.647217 1_556
As7 Rb3 3.647226 1_555
As7 Rb8 3.684374 1_555
As7 Rb5 3.684374 1_556
As7 Rb14 3.684374 1_655
