# generated using pymatgen
data_Cs2Tc7Mo5S14
_symmetry_space_group_name_H-M   'P 1'
_cell_length_a   9.55835285
_cell_length_b   9.58389941
_cell_length_c   9.55224387
_cell_angle_alpha   59.85765786
_cell_angle_beta   60.65452606
_cell_angle_gamma   60.31234695
_symmetry_Int_Tables_number   1
_chemical_formula_structural   Cs2Tc7Mo5S14
_chemical_formula_sum   'Cs2 Tc7 Mo5 S14'
_cell_volume   622.53959895
_cell_formula_units_Z   1
loop_
 _symmetry_equiv_pos_site_id
 _symmetry_equiv_pos_as_xyz
  1  'x, y, z'
loop_
 _atom_site_type_symbol
 _atom_site_label
 _atom_site_symmetry_multiplicity
 _atom_site_fract_x
 _atom_site_fract_y
 _atom_site_fract_z
 _atom_site_occupancy
  Cs  Cs0  1  0.37945954  0.37565827  0.37730054  1
  Cs  Cs1  1  0.61942784  0.62290917  0.62579331  1
  Tc  Tc0  1  0.30628678  0.12715642  0.99056628  1
  Tc  Tc1  1  0.19860692  0.88442907  0.06077074  1
  Tc  Tc2  1  0.88524921  0.05908629  0.19759489  1
  Tc  Tc3  1  0.93908613  0.79814699  0.11680955  1
  Tc  Tc4  1  0.79911791  0.11651871  0.94018575  1
  Tc  Tc5  1  0.11737314  0.94036103  0.80158337  1
  Tc  Tc6  1  0.98973216  0.30488493  0.12757547  1
  Mo  Mo0  1  0.87331915  0.00864662  0.69727182  1
  Mo  Mo1  1  0.12813672  0.99152203  0.30253006  1
  Mo  Mo2  1  0.00785150  0.69746548  0.87473679  1
  Mo  Mo3  1  0.69791123  0.87246732  0.00597787  1
  Mo  Mo4  1  0.05916378  0.19686860  0.88742405  1
  S  S0  1  0.97799746  0.23400393  0.65227384  1
  S  S1  1  0.23269774  0.65293663  0.98205455  1
  S  S2  1  0.65367843  0.97852367  0.23185121  1
  S  S3  1  0.02320009  0.76792250  0.34767432  1
  S  S4  1  0.76437800  0.34814841  0.02484934  1
  S  S5  1  0.35088463  0.01841716  0.77048108  1
  S  S6  1  0.16444143  0.41130396  0.82665375  1
  S  S7  1  0.41278736  0.82354203  0.16300660  1
  S  S8  1  0.82141416  0.16651320  0.40780074  1
  S  S9  1  0.83538036  0.58374310  0.17825570  1
  S  S10  1  0.58508284  0.17943441  0.83202643  1
  S  S11  1  0.17749018  0.83829309  0.58631316  1
  S  S12  1  0.78040741  0.77961966  0.77759771  1
  S  S13  1  0.21943488  0.22147837  0.21304208  1
loop_
_geom_bond_atom_site_label_1
_geom_bond_atom_site_label_2
_geom_bond_distance
_geom_bond_site_symmetry_2
Cs0 S4 3.567964 1_555
Cs0 S5 3.592936 1_555
Cs0 S3 3.606167 1_555
Cs0 S13 3.728867 1_555
Cs0 S8 3.765673 1_555
Cs0 S7 3.822025 1_555
Cs0 S1 3.834889 1_554
Cs0 S6 3.859453 1_555
Cs0 S2 3.891850 1_545
Cs0 S0 3.894504 1_455
Cs1 S2 3.591761 1_555
Cs1 S1 3.595554 1_555
Cs1 S0 3.598898 1_555
Cs1 S12 3.659136 1_555
Cs1 S11 3.793344 1_555
Cs1 S10 3.793717 1_555
Cs1 S4 3.855626 1_556
Cs1 S9 3.856448 1_555
Cs1 S5 3.874708 1_565
Cs1 S3 3.929339 1_655
Mo0 S12 2.401435 1_545
Mo0 S10 2.469737 1_555
Mo0 S11 2.501492 1_645
Mo0 S8 2.565262 1_555
Mo0 S0 2.576293 1_555
Mo0 Mo3 2.581947 1_546
Mo0 Mo2 2.584959 1_645
Mo0 Tc5 2.640832 1_645
Mo0 Tc4 2.650628 1_555
Mo1 S13 2.373018 1_565
Mo1 S7 2.456140 1_555
Mo1 S11 2.509299 1_555
Mo1 S8 2.520482 1_465
Mo1 S3 2.561513 1_555
Mo1 Tc6 2.598729 1_465
Mo1 Tc0 2.607325 1_564
Mo1 Tc2 2.637014 1_465
Mo1 Tc1 2.647865 1_555
Mo2 S12 2.398980 1_455
Mo2 S11 2.469007 1_555
Mo2 S9 2.496589 1_456
Mo2 S6 2.549105 1_555
Mo2 S1 2.581366 1_555
Mo2 Mo3 2.590527 1_456
Mo2 Tc3 2.613982 1_456
Mo2 Tc5 2.658282 1_555
Mo3 S12 2.396083 1_554
Mo3 S9 2.456863 1_555
Mo3 S10 2.506657 1_564
Mo3 S7 2.539649 1_555
Mo3 S2 2.598041 1_555
Mo3 Tc3 2.636398 1_555
Mo3 Tc4 2.640190 1_564
Mo4 S6 2.418871 1_555
Mo4 S4 2.450313 1_456
Mo4 S5 2.467757 1_555
Mo4 S0 2.530950 1_455
Mo4 Tc2 2.589033 1_456
Mo4 Tc1 2.591326 1_546
Mo4 Tc6 2.643246 1_456
Mo4 Tc0 2.655797 1_555
Mo4 Tc5 2.692172 1_545
Mo4 Tc4 2.702519 1_455
S0 Tc5 2.417950 1_645
S0 Tc4 2.437805 1_555
S1 Tc3 2.420619 1_456
S1 Tc5 2.420877 1_555
S1 Tc1 2.512543 1_556
S2 Tc4 2.401714 1_564
S2 Tc3 2.436457 1_555
S2 Tc2 2.516288 1_565
S3 Tc2 2.402319 1_465
S3 Tc1 2.417847 1_555
S3 Tc3 2.541485 1_455
S4 Tc2 2.416527 1_555
S4 Tc4 2.549897 1_554
S4 Tc6 2.559880 1_555
S5 Tc1 2.403329 1_546
S5 Tc5 2.531878 1_545
S5 Tc0 2.563080 1_555
S6 Tc0 2.418055 1_555
S6 Tc6 2.475758 1_456
S7 Tc1 2.385213 1_555
S7 Tc0 2.472305 1_564
S8 Tc2 2.391071 1_555
S8 Tc6 2.416500 1_555
S9 Tc3 2.405301 1_555
S9 Tc6 2.499439 1_555
S10 Tc4 2.416721 1_555
S10 Tc0 2.500152 1_555
S11 Tc5 2.412620 1_555
S13 Tc0 2.340804 1_554
S13 Tc6 2.342877 1_455
