# generated using pymatgen
data_Sc6Al12Mo4Os7
_symmetry_space_group_name_H-M   'P 1'
_cell_length_a   8.75398081
_cell_length_b   8.75361003
_cell_length_c   8.75386006
_cell_angle_alpha   59.99889096
_cell_angle_beta   60.00029905
_cell_angle_gamma   59.99936390
_symmetry_Int_Tables_number   1
_chemical_formula_structural   Sc6Al12Mo4Os7
_chemical_formula_sum   'Sc6 Al12 Mo4 Os7'
_cell_volume   474.32131429
_cell_formula_units_Z   1
loop_
 _symmetry_equiv_pos_site_id
 _symmetry_equiv_pos_as_xyz
  1  'x, y, z'
loop_
 _atom_site_type_symbol
 _atom_site_label
 _atom_site_symmetry_multiplicity
 _atom_site_fract_x
 _atom_site_fract_y
 _atom_site_fract_z
 _atom_site_occupancy
  Sc  Sc0  1  0.70616468  0.70625082  0.29378669  1
  Sc  Sc1  1  0.29380615  0.70624317  0.29376518  1
  Sc  Sc2  1  0.70619950  0.29377510  0.29379748  1
  Sc  Sc3  1  0.29380499  0.29375338  0.70622757  1
  Sc  Sc4  1  0.70619222  0.29377001  0.70623584  1
  Sc  Sc5  1  0.29380002  0.70623524  0.70619692  1
  Al  Al0  1  0.12121995  0.12120049  0.63636084  1
  Al  Al1  1  0.12121014  0.63637861  0.12120440  1
  Al  Al2  1  0.63635304  0.12120199  0.12122037  1
  Al  Al3  1  0.12122520  0.12119972  0.12121896  1
  Al  Al4  1  0.65841906  0.65851321  0.02459601  1
  Al  Al5  1  0.65842825  0.02457620  0.65850433  1
  Al  Al6  1  0.02459269  0.65850329  0.65846147  1
  Al  Al7  1  0.65841251  0.65850989  0.65847759  1
  Al  Al8  1  0.33268487  0.33268865  0.00194088  1
  Al  Al9  1  0.33267287  0.00195442  0.33268842  1
  Al  Al10  1  0.00193691  0.33269426  0.33268313  1
  Al  Al11  1  0.33268528  0.33269122  0.33268342  1
  Mo  Mo0  1  0.87926730  0.87931083  0.36213988  1
  Mo  Mo1  1  0.87927746  0.36214938  0.87929003  1
  Mo  Mo2  1  0.36214695  0.87930127  0.87927963  1
  Mo  Mo3  1  0.87926643  0.87931017  0.87928993  1
  Os  Os0  1  0.00007135  0.99992462  0.99998826  1
  Os  Os1  1  0.99546953  0.99544756  0.50454473  1
  Os  Os2  1  0.50456467  0.99541187  0.50459734  1
  Os  Os3  1  0.99551445  0.50450975  0.50449569  1
  Os  Os4  1  0.50453079  0.50457058  0.99544606  1
  Os  Os5  1  0.99550257  0.50452657  0.99546453  1
  Os  Os6  1  0.50458014  0.99539871  0.99541443  1
loop_
_geom_bond_atom_site_label_1
_geom_bond_atom_site_label_2
_geom_bond_distance
_geom_bond_site_symmetry_2
Sc0 Sc1 3.609906 1_555
Sc0 Sc5 3.610023 1_555
Sc0 Sc2 3.610452 1_555
Sc0 Sc4 3.610549 1_555
Sc1 Sc2 3.610299 1_555
Sc1 Sc5 3.610308 1_555
Sc1 Sc3 3.610646 1_555
Sc2 Sc3 3.610241 1_555
Sc2 Sc4 3.610374 1_555
Sc3 Sc4 3.610139 1_555
Sc3 Sc5 3.610549 1_555
Sc4 Sc5 3.610282 1_555
Al0 Os0 2.599014 1_545
Al0 Al9 2.739461 1_555
Al0 Al11 2.739621 1_555
Al0 Al10 2.739634 1_555
Al0 Os3 2.739761 1_455
Al0 Os1 2.739943 1_445
Al0 Os2 2.740160 1_545
Al0 Mo3 2.994939 1_445
Al0 Mo2 2.994951 1_545
Al0 Mo1 2.995151 1_455
Al0 Sc5 3.010943 1_545
Al0 Sc3 3.011309 1_555
Al0 Sc4 3.011513 1_455
Al1 Os0 2.598333 1_554
Al1 Al10 2.739598 1_555
Al1 Al11 2.739601 1_555
Al1 Al8 2.739606 1_555
Al1 Os3 2.739737 1_455
Al1 Os5 2.739802 1_454
Al1 Os4 2.739991 1_554
Al1 Mo3 2.995027 1_454
Al1 Mo2 2.995034 1_554
Al1 Mo0 2.995086 1_455
Al1 Sc5 3.011353 1_554
Al1 Sc1 3.011455 1_555
Al1 Sc0 3.011667 1_455
Al2 Os0 2.599712 1_644
Al2 Al9 2.739542 1_555
Al2 Al8 2.739579 1_555
Al2 Os4 2.740180 1_554
Al2 Os2 2.740342 1_545
Al2 Os6 2.740386 1_544
Al2 Mo3 2.994806 1_544
Al2 Mo0 2.994877 1_545
Al2 Mo1 2.995112 1_554
Al2 Sc0 3.010860 1_545
Al2 Sc4 3.011177 1_554
Al2 Sc2 3.011267 1_555
Al3 Os0 2.599253 1_544
Al3 Al9 2.739457 1_555
Al3 Al8 2.739574 1_555
Al3 Os5 2.739885 1_454
Al3 Os1 2.739979 1_445
Al3 Os6 2.740232 1_544
Al3 Mo2 2.994901 1_544
Al3 Mo0 2.994957 1_445
Al3 Mo1 2.995142 1_454
Al3 Sc1 3.010885 1_545
Al3 Sc3 3.011211 1_554
Al3 Sc2 3.011500 1_455
Al4 Os6 2.488869 1_554
Al4 Os4 2.489736 1_554
Al4 Os5 2.490579 1_554
Al4 Mo2 2.812109 1_554
Al4 Mo3 2.812510 1_554
Al4 Mo1 2.812658 1_554
Al4 Sc1 2.836274 1_555
Al4 Sc0 2.836638 1_555
Al4 Sc2 2.836918 1_555
Al5 Os6 2.489162 1_545
Al5 Os2 2.489381 1_545
Al5 Os1 2.490285 1_545
Al5 Mo2 2.811988 1_545
Al5 Mo3 2.812470 1_545
Al5 Mo0 2.812512 1_545
Al5 Sc3 2.836302 1_555
Al5 Sc4 2.836679 1_555
Al5 Sc2 2.836783 1_555
Al6 Os1 2.489415 1_455
Al6 Os5 2.490002 1_455
Al6 Os3 2.490292 1_455
Al6 Mo3 2.812396 1_455
Al6 Mo0 2.812477 1_455
Al6 Mo1 2.812623 1_455
Al6 Sc5 2.836718 1_555
Al6 Sc1 2.836848 1_555
Al6 Sc3 2.837043 1_555
Al7 Os2 2.489007 1_555
Al7 Os4 2.489639 1_555
Al7 Os3 2.490739 1_555
Al7 Mo2 2.812118 1_555
Al7 Mo0 2.812562 1_555
Al7 Mo1 2.812687 1_555
Al7 Sc5 2.836272 1_555
Al7 Sc0 2.836750 1_555
Al7 Sc4 2.836934 1_555
Al8 Os5 2.573001 1_454
Al8 Os4 2.573406 1_554
Al8 Os6 2.573844 1_544
Al8 Al9 2.895170 1_555
Al8 Sc4 2.968464 1_554
Al8 Sc3 2.968563 1_554
Al8 Sc5 2.968651 1_554
Al9 Os1 2.573266 1_445
Al9 Os2 2.573748 1_545
Al9 Os6 2.573897 1_544
Al9 Sc0 2.968313 1_545
Al9 Sc1 2.968348 1_545
Al9 Sc5 2.968404 1_545
Al10 Os3 2.572994 1_455
Al10 Os5 2.573118 1_454
Al10 Os1 2.573347 1_445
Al10 Al3 2.739609 1_555
Al10 Al9 2.895184 1_555
Al10 Al8 2.895329 1_555
Al10 Al11 2.895353 1_555
Al10 Sc2 2.968747 1_455
Al10 Sc4 2.968818 1_455
Al10 Sc0 2.968829 1_455
Al11 Os3 2.572869 1_455
Al11 Os4 2.573411 1_554
Al11 Os2 2.573728 1_545
Al11 Al2 2.739598 1_555
Al11 Al9 2.895173 1_555
Al11 Al8 2.895287 1_555
Al11 Sc2 2.968529 1_555
Al11 Sc3 2.968685 1_555
Al11 Sc1 2.968720 1_555
Mo0 Os0 2.588466 1_654
Mo0 Os2 2.681530 1_555
Mo0 Os1 2.681758 1_555
Mo0 Os3 2.682029 1_555
Mo0 Sc2 3.009169 1_565
Mo0 Sc0 3.009651 1_555
Mo0 Sc1 3.009836 1_655
Mo1 Os0 2.588890 1_645
Mo1 Os4 2.681820 1_555
Mo1 Os5 2.681973 1_555
Mo1 Os3 2.682081 1_555
Mo1 Sc2 3.009570 1_556
Mo1 Sc4 3.009657 1_555
Mo1 Sc3 3.009742 1_655
Mo2 Os0 2.587971 1_555
Mo2 Os6 2.681221 1_555
Mo2 Os2 2.681325 1_555
Mo2 Os4 2.681548 1_555
Mo2 Sc3 3.009069 1_565
Mo2 Sc1 3.009424 1_556
Mo2 Sc5 3.009500 1_555
Mo3 Os0 2.588232 1_655
Mo3 Os6 2.681422 1_555
Mo3 Os1 2.681759 1_555
Mo3 Os5 2.681913 1_555
Mo3 Sc4 3.009148 1_565
Mo3 Sc0 3.009522 1_556
Mo3 Sc5 3.009808 1_655
Os1 Sc5 3.142423 1_655
Os1 Sc1 3.142429 1_655
Os1 Sc4 3.142626 1_565
Os1 Sc2 3.142644 1_565
Os2 Sc5 3.142182 1_555
Os2 Sc0 3.142354 1_555
Os2 Sc3 3.142365 1_565
Os2 Sc2 3.142508 1_565
Os3 Sc3 3.142657 1_655
Os3 Sc1 3.142702 1_655
Os3 Sc4 3.142945 1_555
Os3 Sc0 3.142953 1_555
Os4 Sc5 3.142444 1_555
Os4 Sc1 3.142525 1_556
Os4 Sc4 3.142599 1_555
Os4 Sc2 3.142661 1_556
Os5 Sc3 3.142579 1_655
Os5 Sc5 3.142585 1_655
Os5 Sc0 3.142883 1_556
Os5 Sc2 3.142899 1_556
Os6 Sc1 3.142110 1_556
Os6 Sc0 3.142265 1_556
Os6 Sc3 3.142305 1_565
Os6 Sc4 3.142422 1_565
