# generated using pymatgen
data_K6PbS4
_symmetry_space_group_name_H-M   'P 1'
_cell_length_a   10.34637572
_cell_length_b   10.34637584
_cell_length_c   7.78823878
_cell_angle_alpha   90.00000000
_cell_angle_beta   90.00000000
_cell_angle_gamma   119.99999961
_symmetry_Int_Tables_number   1
_chemical_formula_structural   K6PbS4
_chemical_formula_sum   'K12 Pb2 S8'
_cell_volume   722.01527798
_cell_formula_units_Z   2
loop_
 _symmetry_equiv_pos_site_id
 _symmetry_equiv_pos_as_xyz
  1  'x, y, z'
loop_
 _atom_site_type_symbol
 _atom_site_label
 _atom_site_symmetry_multiplicity
 _atom_site_fract_x
 _atom_site_fract_y
 _atom_site_fract_z
 _atom_site_occupancy
  K  K0  1  0.85437968  0.70876135  0.29007104  1
  K  K1  1  0.53144177  0.06288354  0.62606303  1
  K  K2  1  0.06288354  0.53144177  0.12606303  1
  K  K3  1  0.93711646  0.46855823  0.62606303  1
  K  K4  1  0.53144177  0.46855823  0.62606303  1
  K  K5  1  0.46855823  0.93711646  0.12606303  1
  K  K6  1  0.70876135  0.85437968  0.79007104  1
  K  K7  1  0.29123865  0.14562032  0.29007104  1
  K  K8  1  0.85437968  0.14562032  0.29007104  1
  K  K9  1  0.14562032  0.29123865  0.79007104  1
  K  K10  1  0.46855823  0.53144177  0.12606303  1
  K  K11  1  0.14562032  0.85437968  0.79007104  1
  Pb  Pb0  1  0.66666700  0.33333300  0.00336033  1
  Pb  Pb1  1  0.33333300  0.66666700  0.50336033  1
  S  S0  1  0.18332784  0.36665569  0.39057719  1
  S  S1  1  0.81667216  0.18332784  0.89057719  1
  S  S2  1  0.18332784  0.81667216  0.39057719  1
  S  S3  1  0.81667216  0.63334431  0.89057719  1
  S  S4  1  0.66666700  0.33333300  0.36450186  1
  S  S5  1  0.33333300  0.66666700  0.86450186  1
  S  S6  1  0.36665569  0.18332784  0.89057719  1
  S  S7  1  0.63334431  0.81667216  0.39057719  1
loop_
_geom_bond_atom_site_label_1
_geom_bond_atom_site_label_2
_geom_bond_distance
_geom_bond_site_symmetry_2
K0 S7 3.105246 1_555
K0 S2 3.105265 1_655
K0 S3 3.183891 1_554
K0 S4 3.413504 1_555
K1 S4 3.165771 1_555
K1 S1 3.290650 1_555
K1 S6 3.290650 1_555
K1 S2 3.694621 1_545
K1 S7 3.694621 1_545
K2 S5 3.165771 1_554
K2 S0 3.290650 1_555
K2 S2 3.290650 1_555
K2 S3 3.694621 1_454
K2 S1 3.694621 1_454
K3 S4 3.165771 1_555
K3 S3 3.290650 1_555
K3 S1 3.290650 1_555
K3 S0 3.694621 1_655
K3 S2 3.694621 1_655
K4 S4 3.165778 1_555
K4 S3 3.290650 1_555
K4 S6 3.290650 1_555
K4 S0 3.694621 1_555
K4 S7 3.694621 1_555
K5 S5 3.165771 1_554
K5 S2 3.290650 1_555
K5 S7 3.290650 1_555
K5 S1 3.694621 1_564
K5 S6 3.694621 1_564
K6 S3 3.105246 1_555
K6 S1 3.105265 1_565
K6 S7 3.183891 1_555
K6 S5 3.413504 1_555
K7 S0 3.105246 1_555
K7 S2 3.105265 1_545
K7 S6 3.183891 1_554
K7 S4 3.413504 1_555
K8 S0 3.105261 1_655
K8 S7 3.105261 1_545
K8 S1 3.183887 1_554
K8 S4 3.413477 1_555
K9 S6 3.105246 1_555
K9 S1 3.105265 1_455
K9 S0 3.183891 1_555
K9 S5 3.413504 1_555
K10 S5 3.165778 1_554
K10 S0 3.290650 1_555
K10 S7 3.290650 1_555
K10 S3 3.694621 1_554
K10 S6 3.694621 1_554
K11 S3 3.105261 1_455
K11 S6 3.105261 1_565
K11 S2 3.183887 1_555
K11 S5 3.413477 1_555
Pb0 S4 2.812656 1_555
Pb0 S1 2.828031 1_554
Pb0 S6 2.828039 1_554
Pb0 S3 2.828039 1_554
Pb1 S5 2.812656 1_555
Pb1 S2 2.828031 1_555
Pb1 S7 2.828039 1_555
Pb1 S0 2.828039 1_555
