# generated using pymatgen
data_Ta8AlV2Si5
_symmetry_space_group_name_H-M   'P 1'
_cell_length_a   7.49663787
_cell_length_b   7.49663732
_cell_length_c   7.49663788
_cell_angle_alpha   129.19860311
_cell_angle_beta   129.19859782
_cell_angle_gamma   74.69122076
_symmetry_Int_Tables_number   1
_chemical_formula_structural   Ta8AlV2Si5
_chemical_formula_sum   'Ta8 Al1 V2 Si5'
_cell_volume   246.50586593
_cell_formula_units_Z   1
loop_
 _symmetry_equiv_pos_site_id
 _symmetry_equiv_pos_as_xyz
  1  'x, y, z'
loop_
 _atom_site_type_symbol
 _atom_site_label
 _atom_site_symmetry_multiplicity
 _atom_site_fract_x
 _atom_site_fract_y
 _atom_site_fract_z
 _atom_site_occupancy
  Ta  Ta0  1  0.01969137  0.51376117  0.83067976  1
  Ta  Ta1  1  0.68308141  0.18901161  0.16932024  1
  Ta  Ta2  1  0.51376117  0.68308141  0.49406980  1
  Ta  Ta3  1  0.18901161  0.01969137  0.50593020  1
  Ta  Ta4  1  0.98623883  0.48030863  0.16932024  1
  Ta  Ta5  1  0.31098839  0.81691859  0.83067976  1
  Ta  Ta6  1  0.48030863  0.31098839  0.49406980  1
  Ta  Ta7  1  0.81691859  0.98623883  0.50593020  1
  Al  Al0  1  0.75000000  0.75000000  0.00000000  1
  V  V0  1  0.00111065  0.00111065  1.00000000  1
  V  V1  1  0.49888935  0.49888935  0.00000000  1
  Si  Si0  1  0.25000000  0.25000000  0.00000000  1
  Si  Si1  1  0.63251867  0.13251867  0.76503634  1
  Si  Si2  1  0.36748133  0.86748133  0.23496366  1
  Si  Si3  1  0.13251867  0.36748133  0.50000000  1
  Si  Si4  1  0.86748133  0.63251867  0.50000000  1
loop_
_geom_bond_atom_site_label_1
_geom_bond_atom_site_label_2
_geom_bond_distance
_geom_bond_site_symmetry_2
Al0 Ta1 2.710518 1_565
Al0 Ta0 2.710518 1_654
Al0 Ta4 2.710518 1_555
Al0 Ta7 2.710518 1_555
Al0 Ta5 2.710518 1_554
Al0 Ta6 2.710518 1_554
Al0 Ta2 2.710518 1_554
Al0 Ta3 2.710518 1_665
Al0 V0 2.993118 1_664
Al0 V1 2.993118 1_555
Si0 Ta5 2.664887 1_544
Si0 Ta4 2.664887 1_455
Si0 Ta0 2.664887 1_554
Si0 Ta3 2.664887 1_554
Si0 Ta1 2.664887 1_555
Si0 Ta2 2.664887 1_555
Si0 Ta6 2.664887 1_555
Si0 Ta7 2.664887 1_444
Si0 V1 2.966641 1_555
Si0 V0 2.966641 1_554
Si1 Si2 2.410570 1_545
Si1 V1 2.512397 1_556
Si1 V0 2.512397 1_655
Si1 Ta4 2.553188 1_556
Si1 Ta1 2.553196 1_556
Si1 Ta7 2.605323 1_545
Si1 Ta3 2.605332 1_555
Si1 Ta6 2.630157 1_555
Si1 Ta2 2.630165 1_545
Si2 V1 2.512397 1_555
Si2 V0 2.512397 1_564
Si2 Ta0 2.553188 1_554
Si2 Ta5 2.553196 1_554
Si2 Ta2 2.605323 1_555
Si2 Ta6 2.605331 1_565
Si2 Ta3 2.630157 1_565
Si2 Ta7 2.630165 1_555
Si3 Si4 2.410579 1_455
Si3 V0 2.512395 1_554
Si3 V1 2.512395 1_556
Si3 Ta3 2.553188 1_555
Si3 Ta6 2.553188 1_555
Si3 Ta0 2.605329 1_555
Si3 Ta4 2.605329 1_455
Si3 Ta5 2.630163 1_555
Si3 Ta1 2.630164 1_455
Si4 V0 2.512395 1_665
Si4 V1 2.512395 1_555
Si4 Ta7 2.553188 1_555
Si4 Ta2 2.553188 1_555
Si4 Ta1 2.605329 1_555
Si4 Ta5 2.605330 1_655
Si4 Ta4 2.630163 1_555
Si4 Ta0 2.630163 1_655
