# generated using pymatgen
data_LiGa(PSe3)2
_symmetry_space_group_name_H-M   'P 1'
_cell_length_a   6.32708510
_cell_length_b   6.32708544
_cell_length_c   13.87143724
_cell_angle_alpha   90.00000000
_cell_angle_beta   90.00000000
_cell_angle_gamma   119.99998810
_symmetry_Int_Tables_number   1
_chemical_formula_structural   LiGa(PSe3)2
_chemical_formula_sum   'Li2 Ga2 P4 Se12'
_cell_volume   480.90525199
_cell_formula_units_Z   2
loop_
 _symmetry_equiv_pos_site_id
 _symmetry_equiv_pos_as_xyz
  1  'x, y, z'
loop_
 _atom_site_type_symbol
 _atom_site_label
 _atom_site_symmetry_multiplicity
 _atom_site_fract_x
 _atom_site_fract_y
 _atom_site_fract_z
 _atom_site_occupancy
  Li  Li0  1  0.33333300  0.66666700  0.75000000  1
  Li  Li1  1  0.66666700  0.33333300  0.25000000  1
  Ga  Ga0  1  0.00000000  0.00000000  0.25000000  1
  Ga  Ga1  1  0.00000000  0.00000000  0.75000000  1
  P  P0  1  0.66666700  0.33333300  0.67033559  1
  P  P1  1  0.66666700  0.33333300  0.82966441  1
  P  P2  1  0.33333300  0.66666700  0.32966441  1
  P  P3  1  0.33333300  0.66666700  0.17033559  1
  Se  Se0  1  0.67690491  0.99149847  0.12848608  1
  Se  Se1  1  0.67690491  0.68540644  0.37151392  1
  Se  Se2  1  0.31459356  0.32309509  0.12848608  1
  Se  Se3  1  0.31459356  0.99149847  0.37151392  1
  Se  Se4  1  0.68540644  0.67690491  0.87151392  1
  Se  Se5  1  0.32309509  0.00850153  0.87151392  1
  Se  Se6  1  0.99149847  0.31459356  0.87151392  1
  Se  Se7  1  0.32309509  0.31459356  0.62848608  1
  Se  Se8  1  0.99149847  0.67690491  0.62848608  1
  Se  Se9  1  0.68540644  0.00850153  0.62848608  1
  Se  Se10  1  0.00850153  0.32309509  0.37151392  1
  Se  Se11  1  0.00850153  0.68540644  0.12848608  1
loop_
_geom_bond_atom_site_label_1
_geom_bond_atom_site_label_2
_geom_bond_distance
_geom_bond_site_symmetry_2
Li0 Se8 2.768253 1_455
Li0 Se5 2.768253 1_565
Li0 Se9 2.768256 1_565
Li0 Se6 2.768256 1_455
Li0 Se4 2.768258 1_555
Li0 Se7 2.768258 1_555
Li1 Se10 2.768253 1_655
Li1 Se0 2.768253 1_545
Li1 Se3 2.768256 1_545
Li1 Se11 2.768256 1_655
Li1 Se2 2.768258 1_555
Li1 Se1 2.768258 1_555
Ga0 Se3 2.629267 1_545
Ga0 Se0 2.629267 1_445
Ga0 Se11 2.629268 1_545
Ga0 Se10 2.629268 1_555
Ga0 Se1 2.629268 1_445
Ga0 Se2 2.629268 1_555
Ga1 Se9 2.629267 1_455
Ga1 Se5 2.629267 1_555
Ga1 Se6 2.629268 1_455
Ga1 Se8 2.629268 1_445
Ga1 Se7 2.629268 1_555
Ga1 Se4 2.629268 1_445
P0 Se9 2.195161 1_555
P0 Se8 2.195164 1_555
P0 Se7 2.195167 1_555
P0 P1 2.210120 1_555
P1 Se6 2.195161 1_555
P1 Se5 2.195164 1_555
P1 Se4 2.195167 1_555
P2 Se3 2.195161 1_555
P2 Se10 2.195164 1_555
P2 Se1 2.195167 1_555
P2 P3 2.210120 1_555
P3 Se11 2.195161 1_555
P3 Se0 2.195164 1_555
P3 Se2 2.195167 1_555
