# generated using pymatgen
data_SrLaI4
_symmetry_space_group_name_H-M   'P 1'
_cell_length_a   9.12059228
_cell_length_b   9.12080396
_cell_length_c   7.53050518
_cell_angle_alpha   71.24555822
_cell_angle_beta   71.23613567
_cell_angle_gamma   110.95366999
_symmetry_Int_Tables_number   1
_chemical_formula_structural   SrLaI4
_chemical_formula_sum   'Sr2 La2 I8'
_cell_volume   481.70949306
_cell_formula_units_Z   2
loop_
 _symmetry_equiv_pos_site_id
 _symmetry_equiv_pos_as_xyz
  1  'x, y, z'
loop_
 _atom_site_type_symbol
 _atom_site_label
 _atom_site_symmetry_multiplicity
 _atom_site_fract_x
 _atom_site_fract_y
 _atom_site_fract_z
 _atom_site_occupancy
  Sr  Sr0  1  0.63504372  0.36499130  0.74999169  1
  Sr  Sr1  1  0.36497949  0.63505995  0.24998769  1
  La  La0  1  0.99892256  0.00109134  0.24997548  1
  La  La1  1  0.00109149  0.99893927  0.74995399  1
  I  I0  1  0.94498477  0.30057634  0.41167222  1
  I  I1  1  0.69945716  0.05496516  0.08831950  1
  I  I2  1  0.05495810  0.69943882  0.58838969  1
  I  I3  1  0.30061802  0.94502947  0.91154338  1
  I  I4  1  0.36729506  0.24387497  0.26134772  1
  I  I5  1  0.75604429  0.63268396  0.23876909  1
  I  I6  1  0.63267996  0.75605062  0.73875752  1
  I  I7  1  0.24392639  0.36730080  0.76129002  1
loop_
_geom_bond_atom_site_label_1
_geom_bond_atom_site_label_2
_geom_bond_distance
_geom_bond_site_symmetry_2
I0 La1 3.414558 1_645
I0 Sr1 3.422828 1_655
I0 La0 3.449713 1_555
I0 Sr0 3.513422 1_555
I1 La1 3.413970 1_644
I1 Sr1 3.422360 1_545
I1 La0 3.449307 1_555
I1 Sr0 3.514353 1_554
I2 La0 3.414739 1_465
I2 Sr0 3.422382 1_455
I2 La1 3.449085 1_555
I2 Sr1 3.513981 1_555
I3 La0 3.414806 1_466
I3 Sr0 3.422791 1_565
I3 La1 3.449661 1_555
I3 Sr1 3.514157 1_556
I4 La1 3.340088 1_545
I4 La0 3.344369 1_455
I4 Sr0 3.361208 1_554
I4 Sr1 3.549171 1_555
I5 La1 3.341348 1_654
I5 La0 3.344223 1_565
I5 Sr0 3.360851 1_555
I5 Sr1 3.548502 1_555
I6 La0 3.340940 1_565
I6 La1 3.344200 1_655
I6 Sr1 3.360682 1_556
I6 Sr0 3.548471 1_555
I7 La0 3.340644 1_456
I7 La1 3.344323 1_545
I7 Sr1 3.361338 1_555
I7 Sr0 3.548576 1_555
