# generated using pymatgen
data_Zr3ZnCu2N
_symmetry_space_group_name_H-M   'P 1'
_cell_length_a   8.43849084
_cell_length_b   8.43849049
_cell_length_c   8.43849143
_cell_angle_alpha   60.00000018
_cell_angle_beta   60.00000154
_cell_angle_gamma   60.00000409
_symmetry_Int_Tables_number   1
_chemical_formula_structural   Zr3ZnCu2N
_chemical_formula_sum   'Zr12 Zn4 Cu8 N4'
_cell_volume   424.89281146
_cell_formula_units_Z   4
loop_
 _symmetry_equiv_pos_site_id
 _symmetry_equiv_pos_as_xyz
  1  'x, y, z'
loop_
 _atom_site_type_symbol
 _atom_site_label
 _atom_site_symmetry_multiplicity
 _atom_site_fract_x
 _atom_site_fract_y
 _atom_site_fract_z
 _atom_site_occupancy
  Zr  Zr0  1  0.80989790  0.19010210  0.19010210  1
  Zr  Zr1  1  0.19010210  0.80989790  0.19010210  1
  Zr  Zr2  1  0.80989790  0.80989790  0.19010210  1
  Zr  Zr3  1  0.19010210  0.80989790  0.80989790  1
  Zr  Zr4  1  0.80989790  0.19010210  0.80989790  1
  Zr  Zr5  1  0.19010210  0.19010210  0.80989790  1
  Zr  Zr6  1  0.44010210  0.05989790  0.05989790  1
  Zr  Zr7  1  0.05989790  0.44010210  0.05989790  1
  Zr  Zr8  1  0.44010210  0.44010210  0.05989790  1
  Zr  Zr9  1  0.05989790  0.44010210  0.44010210  1
  Zr  Zr10  1  0.44010210  0.05989790  0.44010210  1
  Zr  Zr11  1  0.05989790  0.05989790  0.44010210  1
  Zn  Zn0  1  0.62500000  0.62500000  0.12500000  1
  Zn  Zn1  1  0.62500000  0.62500000  0.62500000  1
  Zn  Zn2  1  0.12500000  0.62500000  0.62500000  1
  Zn  Zn3  1  0.62500000  0.12500000  0.62500000  1
  Cu  Cu0  1  0.41955744  0.41955744  0.74132767  1
  Cu  Cu1  1  0.41955744  0.41955744  0.41955744  1
  Cu  Cu2  1  0.74132767  0.41955744  0.41955744  1
  Cu  Cu3  1  0.41955744  0.74132767  0.41955744  1
  Cu  Cu4  1  0.83044256  0.83044256  0.50867233  1
  Cu  Cu5  1  0.83044256  0.83044256  0.83044256  1
  Cu  Cu6  1  0.50867233  0.83044256  0.83044256  1
  Cu  Cu7  1  0.83044256  0.50867233  0.83044256  1
  N  N0  1  0.12500000  0.12500000  0.62500000  1
  N  N1  1  0.12500000  0.12500000  0.12500000  1
  N  N2  1  0.62500000  0.12500000  0.12500000  1
  N  N3  1  0.12500000  0.62500000  0.12500000  1
loop_
_geom_bond_atom_site_label_1
_geom_bond_atom_site_label_2
_geom_bond_distance
_geom_bond_site_symmetry_2
Zn0 Zr2 3.052757 1_555
Zn0 Zr8 3.052757 1_555
Zn0 Zr6 3.052757 1_565
Zn0 Zr0 3.052757 1_555
Zn0 Zr7 3.052757 1_655
Zn0 Zr1 3.052757 1_555
Zn1 Zr10 3.052757 1_565
Zn1 Zr4 3.052757 1_555
Zn1 Zr8 3.052757 1_556
Zn1 Zr2 3.052757 1_555
Zn1 Zr9 3.052757 1_655
Zn1 Zr3 3.052757 1_555
Zn2 Zr11 3.052757 1_565
Zn2 Zr5 3.052757 1_555
Zn2 Zr3 3.052757 1_555
Zn2 Zr9 3.052757 1_555
Zn2 Zr7 3.052757 1_556
Zn2 Zr1 3.052757 1_555
Zn3 Zr4 3.052757 1_555
Zn3 Zr10 3.052757 1_555
Zn3 Zr11 3.052757 1_655
Zn3 Zr5 3.052757 1_555
Zn3 Zr6 3.052757 1_556
Zn3 Zr0 3.052757 1_555
Cu0 Zn1 2.564451 1_555
Cu0 Zn3 2.564451 1_555
Cu0 Zn2 2.564451 1_555
Cu0 Cu3 2.715255 1_555
Cu0 Cu2 2.715255 1_555
Cu0 Cu1 2.715255 1_555
Cu0 Zr6 2.872102 1_556
Cu0 Zr7 2.872102 1_556
Cu0 Zr8 2.872102 1_556
Cu0 Zr5 3.056359 1_555
Cu0 Zr3 3.056360 1_555
Cu0 Zr4 3.056360 1_555
Cu1 Zn0 2.564451 1_555
Cu1 Zn3 2.564451 1_555
Cu1 Zn2 2.564451 1_555
Cu1 Cu3 2.715255 1_555
Cu1 Cu2 2.715255 1_555
Cu1 Zr10 2.872102 1_555
Cu1 Zr9 2.872102 1_555
Cu1 Zr8 2.872102 1_555
Cu1 Zr5 3.056360 1_555
Cu1 Zr1 3.056360 1_555
Cu1 Zr0 3.056360 1_555
Cu2 Zn3 2.564451 1_555
Cu2 Zn1 2.564451 1_555
Cu2 Zn0 2.564451 1_555
Cu2 Cu3 2.715255 1_555
Cu2 Zr9 2.872102 1_655
Cu2 Zr11 2.872102 1_655
Cu2 Zr7 2.872102 1_655
Cu2 Zr2 3.056359 1_555
Cu2 Zr0 3.056360 1_555
Cu2 Zr4 3.056360 1_555
Cu3 Zn2 2.564451 1_555
Cu3 Zn1 2.564451 1_555
Cu3 Zn0 2.564451 1_555
Cu3 Zr10 2.872102 1_565
Cu3 Zr6 2.872102 1_565
Cu3 Zr11 2.872102 1_565
Cu3 Zr2 3.056360 1_555
Cu3 Zr1 3.056360 1_555
Cu3 Zr3 3.056360 1_555
Cu4 Zn1 2.564451 1_555
Cu4 Zn3 2.564451 1_565
Cu4 Zn2 2.564451 1_655
Cu4 Cu7 2.715255 1_555
Cu4 Cu6 2.715255 1_555
Cu4 Cu5 2.715255 1_555
Cu4 Zr0 2.872102 1_565
Cu4 Zr1 2.872102 1_655
Cu4 Zr2 2.872102 1_555
Cu4 Zr11 3.056359 1_665
Cu4 Zr9 3.056360 1_655
Cu4 Zr10 3.056360 1_565
Cu5 Zn0 2.564451 1_556
Cu5 Zn3 2.564451 1_565
Cu5 Zn2 2.564451 1_655
Cu5 Cu7 2.715255 1_555
Cu5 Cu6 2.715255 1_555
Cu5 Zr4 2.872102 1_565
Cu5 Zr3 2.872102 1_655
Cu5 Zr2 2.872102 1_556
Cu5 Zr11 3.056360 1_665
Cu5 Zr7 3.056360 1_656
Cu5 Zr6 3.056360 1_566
Cu6 Zn3 2.564451 1_565
Cu6 Zn1 2.564451 1_555
Cu6 Zn0 2.564451 1_556
Cu6 Cu7 2.715255 1_555
Cu6 Zr3 2.872102 1_555
Cu6 Zr5 2.872102 1_565
Cu6 Zr1 2.872102 1_556
Cu6 Zr8 3.056359 1_556
Cu6 Zr6 3.056360 1_566
Cu6 Zr10 3.056360 1_565
Cu7 Zn2 2.564451 1_655
Cu7 Zn1 2.564451 1_555
Cu7 Zn0 2.564451 1_556
Cu7 Zr4 2.872102 1_555
Cu7 Zr0 2.872102 1_556
Cu7 Zr5 2.872102 1_655
Cu7 Zr8 3.056360 1_556
Cu7 Zr7 3.056360 1_656
Cu7 Zr9 3.056360 1_655
N0 Zr9 2.248134 1_555
N0 Zr3 2.248134 1_545
N0 Zr5 2.248134 1_555
N0 Zr11 2.248134 1_555
N0 Zr10 2.248135 1_555
N0 Zr4 2.248135 1_455
N1 Zr7 2.248134 1_555
N1 Zr1 2.248134 1_545
N1 Zr6 2.248134 1_555
N1 Zr0 2.248134 1_455
N1 Zr11 2.248135 1_555
N1 Zr5 2.248135 1_554
N2 Zr0 2.248134 1_555
N2 Zr6 2.248134 1_555
N2 Zr8 2.248134 1_555
N2 Zr2 2.248134 1_545
N2 Zr10 2.248135 1_555
N2 Zr4 2.248135 1_554
N3 Zr1 2.248134 1_555
N3 Zr7 2.248134 1_555
N3 Zr9 2.248135 1_555
N3 Zr3 2.248135 1_554
N3 Zr8 2.248135 1_555
N3 Zr2 2.248135 1_455
