# generated using pymatgen
data_Ca2NiPt3
_symmetry_space_group_name_H-M   'P 1'
_cell_length_a   5.43297273
_cell_length_b   5.43297276
_cell_length_c   5.21542313
_cell_angle_alpha   58.61028294
_cell_angle_beta   58.61028149
_cell_angle_gamma   59.99998981
_symmetry_Int_Tables_number   1
_chemical_formula_structural   Ca2NiPt3
_chemical_formula_sum   'Ca2 Ni1 Pt3'
_cell_volume   106.51239923
_cell_formula_units_Z   1
loop_
 _symmetry_equiv_pos_site_id
 _symmetry_equiv_pos_as_xyz
  1  'x, y, z'
loop_
 _atom_site_type_symbol
 _atom_site_label
 _atom_site_symmetry_multiplicity
 _atom_site_fract_x
 _atom_site_fract_y
 _atom_site_fract_z
 _atom_site_occupancy
  Ca  Ca0  1  0.49937222  0.49937222  0.50188235  1
  Ca  Ca1  1  0.75062778  0.75062778  0.74811765  1
  Ni  Ni0  1  0.12500000  0.12500000  0.62500000  1
  Pt  Pt0  1  0.12500000  0.12500000  0.12500000  1
  Pt  Pt1  1  0.62500000  0.12500000  0.12500000  1
  Pt  Pt2  1  0.12500000  0.62500000  0.12500000  1
loop_
_geom_bond_atom_site_label_1
_geom_bond_atom_site_label_2
_geom_bond_distance
_geom_bond_site_symmetry_2
Ca0 Pt0 3.033287 1_556
Ca0 Pt2 3.033290 1_556
Ca0 Pt1 3.033290 1_556
Ca0 Pt1 3.137726 1_555
Ca0 Pt2 3.137726 1_555
Ca0 Pt0 3.137728 1_655
Ca0 Pt0 3.137728 1_565
Ca0 Pt2 3.137731 1_655
Ca0 Pt1 3.137731 1_565
Ca0 Ni0 3.178398 1_555
Ca0 Ni0 3.178402 1_565
Ca0 Ni0 3.178402 1_655
Ca1 Pt0 3.033287 1_665
Ca1 Pt2 3.033290 1_655
Ca1 Pt1 3.033290 1_565
Ca1 Pt1 3.137726 1_566
Ca1 Pt2 3.137726 1_656
Ca1 Pt0 3.137728 1_566
Ca1 Pt0 3.137728 1_656
Ca1 Pt2 3.137731 1_556
Ca1 Pt1 3.137731 1_556
Ca1 Ni0 3.178398 1_665
Ca1 Ni0 3.178402 1_655
Ca1 Ni0 3.178402 1_565
Ni0 Pt1 2.607711 1_555
Ni0 Pt1 2.607711 1_456
Ni0 Pt2 2.607711 1_546
Ni0 Pt2 2.607711 1_555
Ni0 Pt0 2.607712 1_555
Ni0 Pt0 2.607712 1_556
Pt0 Pt1 2.716486 1_455
Pt0 Pt1 2.716486 1_555
Pt0 Pt2 2.716486 1_555
Pt0 Pt2 2.716486 1_545
Pt1 Pt2 2.716486 1_555
Pt1 Pt2 2.716486 1_645
