# generated using pymatgen
data_RbNa2AsSe3
_symmetry_space_group_name_H-M   'P 1'
_cell_length_a   9.31112035
_cell_length_b   9.31112035
_cell_length_c   9.31112035
_cell_angle_alpha   90.00000000
_cell_angle_beta   90.00000000
_cell_angle_gamma   90.00000000
_symmetry_Int_Tables_number   1
_chemical_formula_structural   RbNa2AsSe3
_chemical_formula_sum   'Rb4 Na8 As4 Se12'
_cell_volume   807.24584830
_cell_formula_units_Z   4
loop_
 _symmetry_equiv_pos_site_id
 _symmetry_equiv_pos_as_xyz
  1  'x, y, z'
loop_
 _atom_site_type_symbol
 _atom_site_label
 _atom_site_symmetry_multiplicity
 _atom_site_fract_x
 _atom_site_fract_y
 _atom_site_fract_z
 _atom_site_occupancy
  Rb  Rb0  1  0.92167589  0.42167589  0.07832411  1
  Rb  Rb1  1  0.42167589  0.07832411  0.92167589  1
  Rb  Rb2  1  0.07832411  0.92167589  0.42167589  1
  Rb  Rb3  1  0.57832411  0.57832411  0.57832411  1
  Na  Na0  1  0.18408850  0.68408850  0.81591150  1
  Na  Na1  1  0.68408850  0.81591150  0.18408850  1
  Na  Na2  1  0.81591150  0.18408850  0.68408850  1
  Na  Na3  1  0.31591150  0.31591150  0.31591150  1
  Na  Na4  1  0.68715636  0.18715636  0.31284364  1
  Na  Na5  1  0.18715636  0.31284364  0.68715636  1
  Na  Na6  1  0.31284364  0.68715636  0.18715636  1
  Na  Na7  1  0.81284364  0.81284364  0.81284364  1
  As  As0  1  0.47760902  0.97760902  0.52239098  1
  As  As1  1  0.97760902  0.52239098  0.47760902  1
  As  As2  1  0.52239098  0.47760902  0.97760902  1
  As  As3  1  0.02239098  0.02239098  0.02239098  1
  Se  Se0  1  0.00513945  0.77430847  0.08792579  1
  Se  Se1  1  0.91207421  0.50513945  0.72569153  1
  Se  Se2  1  0.27430847  0.41207421  0.99486055  1
  Se  Se3  1  0.50513945  0.72569153  0.91207421  1
  Se  Se4  1  0.41207421  0.99486055  0.27430847  1
  Se  Se5  1  0.77430847  0.08792579  0.00513945  1
  Se  Se6  1  0.99486055  0.27430847  0.41207421  1
  Se  Se7  1  0.08792579  0.00513945  0.77430847  1
  Se  Se8  1  0.72569153  0.91207421  0.50513945  1
  Se  Se9  1  0.49486055  0.22569153  0.58792579  1
  Se  Se10  1  0.58792579  0.49486055  0.22569153  1
  Se  Se11  1  0.22569153  0.58792579  0.49486055  1
loop_
_geom_bond_atom_site_label_1
_geom_bond_atom_site_label_2
_geom_bond_distance
_geom_bond_site_symmetry_2
Rb0 Se1 3.375305 1_554
Rb0 Se2 3.375305 1_654
Rb0 Se0 3.375305 1_655
Rb0 Se10 3.464716 1_555
Rb0 Se6 3.464716 1_555
Rb0 Se5 3.464716 1_555
Rb1 Se3 3.375305 1_545
Rb1 Se5 3.375305 1_556
Rb1 Se4 3.375305 1_546
Rb1 Se9 3.464716 1_555
Rb1 Se7 3.464716 1_555
Rb1 Se2 3.464716 1_555
Rb2 Se8 3.375305 1_455
Rb2 Se7 3.375305 1_565
Rb2 Se6 3.375305 1_465
Rb2 Se11 3.464716 1_555
Rb2 Se0 3.464716 1_555
Rb2 Se4 3.464716 1_555
Rb3 Se10 3.375305 1_555
Rb3 Se11 3.375305 1_555
Rb3 Se9 3.375305 1_555
Rb3 Se8 3.464716 1_555
Rb3 Se1 3.464716 1_555
Rb3 Se3 3.464716 1_555
Na0 Se7 3.144510 1_565
Na0 Se11 3.144510 1_555
Na0 Se3 3.144510 1_555
Na0 Se0 3.145921 1_556
Na0 Se1 3.145921 1_455
Na0 Se2 3.145921 1_555
Na1 Se0 3.144510 1_655
Na1 Se10 3.144510 1_555
Na1 Se8 3.144510 1_555
Na1 Se5 3.145921 1_565
Na1 Se3 3.145921 1_554
Na1 Se4 3.145921 1_555
Na2 Se5 3.144510 1_556
Na2 Se9 3.144510 1_555
Na2 Se1 3.144510 1_555
Na2 Se7 3.145921 1_655
Na2 Se8 3.145921 1_545
Na2 Se6 3.145921 1_555
Na3 Se2 3.144510 1_554
Na3 Se4 3.144510 1_545
Na3 Se6 3.144510 1_455
Na3 Se11 3.145921 1_555
Na3 Se9 3.145921 1_555
Na3 Se10 3.145921 1_555
Na4 Se5 3.117822 1_555
Na4 Se10 3.117822 1_555
Na4 Se6 3.117822 1_555
Na4 Se4 3.145627 1_545
Na4 Se9 3.145627 1_555
Na4 Se8 3.145627 1_545
Na5 Se9 3.117822 1_555
Na5 Se7 3.117822 1_555
Na5 Se2 3.117822 1_555
Na5 Se6 3.145627 1_455
Na5 Se1 3.145627 1_455
Na5 Se11 3.145627 1_555
Na6 Se4 3.117822 1_555
Na6 Se11 3.117822 1_555
Na6 Se0 3.117822 1_555
Na6 Se2 3.145627 1_554
Na6 Se3 3.145627 1_554
Na6 Se10 3.145627 1_555
Na7 Se3 3.117822 1_555
Na7 Se8 3.117822 1_555
Na7 Se1 3.117822 1_555
Na7 Se5 3.145627 1_566
Na7 Se7 3.145627 1_665
Na7 Se0 3.145627 1_656
As0 Se9 2.394558 1_565
As0 Se8 2.394558 1_555
As0 Se4 2.394558 1_555
As1 Se11 2.394558 1_655
As1 Se1 2.394558 1_555
As1 Se6 2.394558 1_555
As2 Se10 2.394558 1_556
As2 Se3 2.394558 1_555
As2 Se2 2.394558 1_555
As3 Se0 2.394558 1_545
As3 Se5 2.394558 1_455
As3 Se7 2.394558 1_554
