# generated using pymatgen
data_Y2FeIr3
_symmetry_space_group_name_H-M   'P 1'
_cell_length_a   5.13197683
_cell_length_b   5.13197651
_cell_length_c   5.13197678
_cell_angle_alpha   64.59667783
_cell_angle_beta   64.59667635
_cell_angle_gamma   64.59668305
_symmetry_Int_Tables_number   1
_chemical_formula_structural   Y2FeIr3
_chemical_formula_sum   'Y2 Fe1 Ir3'
_cell_volume   105.20093072
_cell_formula_units_Z   1
loop_
 _symmetry_equiv_pos_site_id
 _symmetry_equiv_pos_as_xyz
  1  'x, y, z'
loop_
 _atom_site_type_symbol
 _atom_site_label
 _atom_site_symmetry_multiplicity
 _atom_site_fract_x
 _atom_site_fract_y
 _atom_site_fract_z
 _atom_site_occupancy
  Y  Y0  1  0.62666719  0.62666719  0.62666719  1
  Y  Y1  1  0.37333281  0.37333281  0.37333281  1
  Fe  Fe0  1  0.00000000  0.00000000  0.00000000  1
  Ir  Ir0  1  0.00000000  0.50000000  0.00000000  1
  Ir  Ir1  1  0.50000000  0.00000000  0.00000000  1
  Ir  Ir2  1  0.00000000  0.00000000  0.50000000  1
loop_
_geom_bond_atom_site_label_1
_geom_bond_atom_site_label_2
_geom_bond_distance
_geom_bond_site_symmetry_2
Y0 Y1 3.069442 1_555
Y0 Y1 3.311406 1_556
Y0 Y1 3.311406 1_565
Y0 Y1 3.311407 1_655
Fe0 Ir0 2.565988 1_545
Fe0 Ir0 2.565988 1_555
Fe0 Ir2 2.565988 1_554
Fe0 Ir2 2.565988 1_555
Fe0 Ir1 2.565988 1_555
Fe0 Ir1 2.565988 1_455
Fe0 Y1 3.203246 1_554
Fe0 Y0 3.203246 1_445
Fe0 Y1 3.203246 1_455
Fe0 Y0 3.203246 1_544
Fe0 Y1 3.203246 1_545
Fe0 Y0 3.203246 1_454
Ir0 Ir2 2.742158 1_564
Ir0 Ir2 2.742158 1_555
Ir0 Ir1 2.742158 1_555
Ir0 Ir1 2.742158 1_465
Ir0 Y1 2.962516 1_555
Ir0 Y0 2.962516 1_454
Ir0 Y0 3.142419 1_554
Ir0 Y1 3.142419 1_455
Ir0 Y0 3.142419 1_455
Ir0 Y1 3.142419 1_554
Ir1 Ir2 2.742158 1_654
Ir1 Ir2 2.742158 1_555
Ir1 Y1 2.962516 1_555
Ir1 Y0 2.962516 1_544
Ir1 Y0 3.142419 1_554
Ir1 Y1 3.142419 1_545
Ir1 Y0 3.142419 1_545
Ir1 Y1 3.142419 1_554
Ir2 Y1 2.962516 1_555
Ir2 Y0 2.962516 1_445
Ir2 Y0 3.142419 1_455
Ir2 Y1 3.142419 1_545
Ir2 Y0 3.142420 1_545
Ir2 Y1 3.142420 1_455
