# generated using pymatgen
data_LaBPt2
_symmetry_space_group_name_H-M   'P 1'
_cell_length_a   5.55118841
_cell_length_b   5.55118976
_cell_length_c   7.98363492
_cell_angle_alpha   90.00000000
_cell_angle_beta   90.00000000
_cell_angle_gamma   119.99999187
_symmetry_Int_Tables_number   1
_chemical_formula_structural   LaBPt2
_chemical_formula_sum   'La3 B3 Pt6'
_cell_volume   213.06071382
_cell_formula_units_Z   3
loop_
 _symmetry_equiv_pos_site_id
 _symmetry_equiv_pos_as_xyz
  1  'x, y, z'
loop_
 _atom_site_type_symbol
 _atom_site_label
 _atom_site_symmetry_multiplicity
 _atom_site_fract_x
 _atom_site_fract_y
 _atom_site_fract_z
 _atom_site_occupancy
  La  La0  1  0.50000000  0.50000000  0.33333300  1
  La  La1  1  -0.00000000  0.50000000  0.66666700  1
  La  La2  1  0.50000000  0.00000000  0.00000000  1
  B  B0  1  -0.00000000  0.50000000  0.16666700  1
  B  B1  1  0.50000000  0.50000000  0.83333300  1
  B  B2  1  0.50000000  0.00000000  0.50000000  1
  Pt  Pt0  1  0.30891670  0.15445885  0.66666700  1
  Pt  Pt1  1  0.15445885  0.84554115  0.33333300  1
  Pt  Pt2  1  0.84554115  0.69108330  0.00000000  1
  Pt  Pt3  1  0.84554115  0.15445885  0.33333300  1
  Pt  Pt4  1  0.15445885  0.30891670  0.00000000  1
  Pt  Pt5  1  0.69108330  0.84554115  0.66666700  1
loop_
_geom_bond_atom_site_label_1
_geom_bond_atom_site_label_2
_geom_bond_distance
_geom_bond_site_symmetry_2
La0 Pt2 3.138771 1_555
La0 Pt4 3.138771 1_555
La0 Pt0 3.138778 1_555
La0 Pt5 3.138778 1_555
La0 Pt1 3.147933 1_655
La0 Pt3 3.147933 1_455
La0 Pt3 3.147934 1_565
La0 Pt1 3.147934 1_545
La0 Pt1 3.322358 1_555
La0 Pt3 3.322358 1_555
La1 Pt2 3.138773 1_456
La1 Pt4 3.138773 1_556
La1 Pt1 3.138778 1_555
La1 Pt3 3.138778 1_455
La1 Pt0 3.147929 1_555
La1 Pt5 3.147929 1_455
La1 Pt0 3.147934 1_565
La1 Pt5 3.147934 1_445
La1 Pt5 3.322363 1_555
La1 Pt0 3.322363 1_455
La2 Pt1 3.138771 1_545
La2 Pt3 3.138771 1_555
La2 Pt0 3.138773 1_554
La2 Pt5 3.138773 1_544
La2 Pt2 3.147929 1_545
La2 Pt4 3.147929 1_555
La2 Pt4 3.147933 1_655
La2 Pt2 3.147933 1_445
La2 Pt2 3.322363 1_555
La2 Pt4 3.322363 1_545
B0 Pt1 2.130809 1_555
B0 Pt3 2.130809 1_455
B0 Pt2 2.130818 1_455
B0 Pt4 2.130818 1_555
B0 La0 3.078055 1_455
B0 La0 3.078055 1_555
B0 La2 3.078059 1_455
B0 La2 3.078059 1_565
B1 Pt5 2.130809 1_555
B1 Pt0 2.130809 1_555
B1 Pt2 2.130814 1_556
B1 Pt4 2.130814 1_556
B1 La1 3.078055 1_555
B1 La1 3.078055 1_655
B1 La2 3.078059 1_566
B1 La2 3.078059 1_556
B2 Pt1 2.130814 1_545
B2 Pt3 2.130814 1_555
B2 Pt5 2.130818 1_545
B2 Pt0 2.130818 1_555
B2 La0 3.078059 1_545
B2 La0 3.078059 1_555
B2 La1 3.078059 1_545
B2 La1 3.078059 1_655
