# generated using pymatgen
data_Sr3LiBi2H
_symmetry_space_group_name_H-M   'P 1'
_cell_length_a   4.81686965
_cell_length_b   12.94051795
_cell_length_c   13.22643026
_cell_angle_alpha   90.00000000
_cell_angle_beta   90.00000000
_cell_angle_gamma   90.00000000
_symmetry_Int_Tables_number   1
_chemical_formula_structural   Sr3LiBi2H
_chemical_formula_sum   'Sr12 Li4 Bi8 H4'
_cell_volume   824.44027654
_cell_formula_units_Z   4
loop_
 _symmetry_equiv_pos_site_id
 _symmetry_equiv_pos_as_xyz
  1  'x, y, z'
loop_
 _atom_site_type_symbol
 _atom_site_label
 _atom_site_symmetry_multiplicity
 _atom_site_fract_x
 _atom_site_fract_y
 _atom_site_fract_z
 _atom_site_occupancy
  Sr  Sr0  1  0.25000000  0.06071735  0.62376197  1
  Sr  Sr1  1  0.25000000  0.56071735  0.87623803  1
  Sr  Sr2  1  0.75000000  0.93928265  0.37623803  1
  Sr  Sr3  1  0.75000000  0.43928265  0.12376197  1
  Sr  Sr4  1  0.25000000  0.21510953  0.29028560  1
  Sr  Sr5  1  0.25000000  0.71510953  0.20971440  1
  Sr  Sr6  1  0.75000000  0.78489047  0.70971440  1
  Sr  Sr7  1  0.75000000  0.28489047  0.79028560  1
  Sr  Sr8  1  0.25000000  0.36597721  0.56221677  1
  Sr  Sr9  1  0.25000000  0.86597721  0.93778323  1
  Sr  Sr10  1  0.75000000  0.63402279  0.43778323  1
  Sr  Sr11  1  0.75000000  0.13402279  0.06221677  1
  Li  Li0  1  0.25000000  0.13813737  0.85580693  1
  Li  Li1  1  0.25000000  0.63813737  0.64419307  1
  Li  Li2  1  0.75000000  0.86186263  0.14419307  1
  Li  Li3  1  0.75000000  0.36186263  0.35580693  1
  Bi  Bi0  1  0.25000000  0.31281932  0.98794751  1
  Bi  Bi1  1  0.25000000  0.81281932  0.51205249  1
  Bi  Bi2  1  0.75000000  0.68718068  0.01205249  1
  Bi  Bi3  1  0.75000000  0.18718068  0.48794751  1
  Bi  Bi4  1  0.25000000  0.48001092  0.32233994  1
  Bi  Bi5  1  0.25000000  0.98001092  0.17766006  1
  Bi  Bi6  1  0.75000000  0.51998908  0.67766006  1
  Bi  Bi7  1  0.75000000  0.01998908  0.82233994  1
  H  H0  1  0.25000000  0.23138154  0.72511184  1
  H  H1  1  0.25000000  0.73138154  0.77488816  1
  H  H2  1  0.75000000  0.76861846  0.27488816  1
  H  H3  1  0.75000000  0.26861846  0.22511184  1
loop_
_geom_bond_atom_site_label_1
_geom_bond_atom_site_label_2
_geom_bond_distance
_geom_bond_site_symmetry_2
Bi0 Li0 2.857336 1_555
Bi0 Sr3 3.421335 1_556
Bi0 Sr3 3.421335 1_456
Bi0 Sr11 3.481207 1_556
Bi0 Sr11 3.481207 1_456
Bi0 Sr1 3.531836 1_555
Bi0 Sr7 3.572963 1_455
Bi0 Sr7 3.572963 1_555
Bi1 Li1 2.857336 1_555
Bi1 Sr2 3.421335 1_455
Bi1 Sr2 3.421335 1_555
Bi1 Sr10 3.481207 1_455
Bi1 Sr10 3.481207 1_555
Bi1 Sr0 3.531836 1_565
Bi1 Sr6 3.572963 1_455
Bi1 Sr6 3.572963 1_555
Bi2 Li2 2.857336 1_555
Bi2 Sr1 3.421335 1_654
Bi2 Sr1 3.421335 1_554
Bi2 Sr9 3.481207 1_654
Bi2 Sr9 3.481207 1_554
Bi2 Sr3 3.531836 1_555
Bi2 Sr5 3.572963 1_655
Bi2 Sr5 3.572963 1_555
Bi3 Li3 2.857336 1_555
Bi3 Sr0 3.421335 1_555
Bi3 Sr0 3.421335 1_655
Bi3 Sr8 3.481207 1_555
Bi3 Sr8 3.481207 1_655
Bi3 Sr2 3.531836 1_545
Bi3 Sr4 3.572963 1_555
Bi3 Sr4 3.572963 1_655
Bi4 Li3 2.886872 1_455
Bi4 Li3 2.886872 1_555
Bi4 Sr5 3.387416 1_555
Bi4 Sr4 3.454079 1_555
Bi4 Sr10 3.479082 1_455
Bi4 Sr10 3.479082 1_555
Bi4 Sr8 3.499096 1_555
Bi4 Sr3 3.602321 1_455
Bi4 Sr3 3.602321 1_555
Bi5 Li2 2.886872 1_455
Bi5 Li2 2.886872 1_555
Bi5 Sr4 3.387416 1_565
Bi5 Sr5 3.454079 1_555
Bi5 Sr11 3.479082 1_565
Bi5 Sr11 3.479082 1_465
Bi5 Sr9 3.499096 1_554
Bi5 Sr2 3.602321 1_555
Bi5 Sr2 3.602321 1_455
Bi6 Li1 2.886872 1_555
Bi6 Li1 2.886872 1_655
Bi6 Sr7 3.387416 1_555
Bi6 Sr6 3.454079 1_555
Bi6 Sr8 3.479082 1_655
Bi6 Sr8 3.479082 1_555
Bi6 Sr10 3.499096 1_555
Bi6 Sr1 3.602321 1_655
Bi6 Sr1 3.602321 1_555
Bi7 Li0 2.886872 1_655
Bi7 Li0 2.886872 1_555
Bi7 Sr6 3.387416 1_545
Bi7 Sr7 3.454079 1_555
Bi7 Sr9 3.479082 1_645
Bi7 Sr9 3.479082 1_545
Bi7 Sr11 3.499096 1_556
Bi7 Sr0 3.602321 1_555
Bi7 Sr0 3.602321 1_655
H0 Li0 2.108106 1_555
H0 Sr0 2.583472 1_555
H0 Sr7 2.650112 1_455
H0 Sr7 2.650112 1_555
H0 Sr8 2.770489 1_555
H1 Li1 2.108106 1_555
H1 Sr1 2.583472 1_555
H1 Sr6 2.650112 1_555
H1 Sr6 2.650112 1_455
H1 Sr9 2.770489 1_555
H2 Li2 2.108106 1_555
H2 Sr2 2.583472 1_555
H2 Sr5 2.650112 1_555
H2 Sr5 2.650112 1_655
H2 Sr10 2.770489 1_555
H3 Li3 2.108106 1_555
H3 Sr3 2.583472 1_555
H3 Sr4 2.650112 1_555
H3 Sr4 2.650112 1_655
H3 Sr11 2.770489 1_555
