# generated using pymatgen
data_MgScAlNi3
_symmetry_space_group_name_H-M   'P 1'
_cell_length_a   4.99760745
_cell_length_b   4.99760713
_cell_length_c   4.80969449
_cell_angle_alpha   58.69895511
_cell_angle_beta   58.69896435
_cell_angle_gamma   60.00001161
_symmetry_Int_Tables_number   1
_chemical_formula_structural   MgScAlNi3
_chemical_formula_sum   'Mg1 Sc1 Al1 Ni3'
_cell_volume   83.23390951
_cell_formula_units_Z   1
loop_
 _symmetry_equiv_pos_site_id
 _symmetry_equiv_pos_as_xyz
  1  'x, y, z'
loop_
 _atom_site_type_symbol
 _atom_site_label
 _atom_site_symmetry_multiplicity
 _atom_site_fract_x
 _atom_site_fract_y
 _atom_site_fract_z
 _atom_site_occupancy
  Mg  Mg0  1  0.25249133  0.25249133  0.24252502  1
  Sc  Sc0  1  0.00357466  0.00357466  0.98927801  1
  Al  Al0  1  0.62271301  0.62271301  0.13186198  1
  Ni  Ni0  1  0.62366684  0.12388933  0.62877900  1
  Ni  Ni1  1  0.12388933  0.62366684  0.62877900  1
  Ni  Ni2  1  0.62366684  0.62366684  0.62877900  1
loop_
_geom_bond_atom_site_label_1
_geom_bond_atom_site_label_2
_geom_bond_distance
_geom_bond_site_symmetry_2
Mg0 Ni1 2.767190 1_554
Mg0 Ni0 2.767190 1_554
Mg0 Ni2 2.767197 1_554
Mg0 Sc0 2.873574 1_555
Mg0 Ni1 2.907437 1_545
Mg0 Ni0 2.907438 1_455
Mg0 Ni2 2.907444 1_545
Mg0 Ni2 2.907444 1_455
Mg0 Ni0 2.907450 1_555
Mg0 Ni1 2.907450 1_555
Mg0 Sc0 3.045487 1_554
Mg0 Sc0 3.045500 1_564
Mg0 Sc0 3.045500 1_654
Al0 Ni0 2.394979 1_555
Al0 Ni1 2.394979 1_555
Al0 Ni2 2.394981 1_555
Al0 Ni2 2.414731 1_554
Al0 Ni0 2.414734 1_564
Al0 Ni1 2.414735 1_654
Al0 Mg0 2.916622 1_565
Al0 Mg0 2.916622 1_655
Al0 Mg0 2.916630 1_555
Al0 Sc0 2.937073 1_654
Al0 Sc0 2.937073 1_564
Al0 Sc0 2.937077 1_664
Ni0 Ni2 2.497692 1_555
Ni0 Ni1 2.497692 1_555
Ni0 Ni2 2.499916 1_545
Ni0 Ni1 2.499916 1_645
Ni0 Sc0 2.852896 1_654
Ni0 Sc0 2.858047 1_655
Ni0 Sc0 2.858048 1_555
Ni1 Ni2 2.497692 1_555
Ni1 Ni2 2.499916 1_455
Ni1 Sc0 2.852896 1_564
Ni1 Sc0 2.858047 1_565
Ni1 Sc0 2.858048 1_555
Ni2 Sc0 2.852896 1_664
Ni2 Sc0 2.858048 1_655
Ni2 Sc0 2.858048 1_565
