# generated using pymatgen
data_Nb2Bi2MoS6
_symmetry_space_group_name_H-M   'P 1'
_cell_length_a   5.71370850
_cell_length_b   5.72096246
_cell_length_c   17.41858441
_cell_angle_alpha   90.00000000
_cell_angle_beta   90.00000000
_cell_angle_gamma   120.04200877
_symmetry_Int_Tables_number   1
_chemical_formula_structural   Nb2Bi2MoS6
_chemical_formula_sum   'Nb4 Bi4 Mo2 S12'
_cell_volume   492.88621448
_cell_formula_units_Z   2
loop_
 _symmetry_equiv_pos_site_id
 _symmetry_equiv_pos_as_xyz
  1  'x, y, z'
loop_
 _atom_site_type_symbol
 _atom_site_label
 _atom_site_symmetry_multiplicity
 _atom_site_fract_x
 _atom_site_fract_y
 _atom_site_fract_z
 _atom_site_occupancy
  Nb  Nb0  1  0.99799019  0.32246877  0.25000000  1
  Nb  Nb1  1  0.99799019  0.67552142  0.75000000  1
  Nb  Nb2  1  0.32306896  0.99733748  0.25000000  1
  Nb  Nb3  1  0.32306896  0.32573248  0.75000000  1
  Bi  Bi0  1  0.34460317  0.67230209  0.00000000  1
  Bi  Bi1  1  0.67533116  0.33766458  0.50000000  1
  Bi  Bi2  1  0.34460317  0.67230209  0.50000000  1
  Bi  Bi3  1  0.67533116  0.33766458  0.00000000  1
  Mo  Mo0  1  0.67153281  0.00044758  0.75000000  1
  Mo  Mo1  1  0.67153281  0.67108523  0.25000000  1
  S  S0  1  0.33755286  0.67355784  0.66210756  1
  S  S1  1  0.66472233  0.33728231  0.16210574  1
  S  S2  1  0.66472233  0.32744002  0.83789426  1
  S  S3  1  0.33755286  0.66399602  0.33789244  1
  S  S4  1  0.33755286  0.66399602  0.16210756  1
  S  S5  1  0.66472233  0.32744002  0.66210574  1
  S  S6  1  0.66472233  0.33728231  0.33789426  1
  S  S7  1  0.33755286  0.67355784  0.83789244  1
  S  S8  1  0.99146166  0.99100594  0.15848013  1
  S  S9  1  0.99146166  0.00045573  0.65848013  1
  S  S10  1  0.99146166  0.00045573  0.84151987  1
  S  S11  1  0.99146166  0.99100594  0.34151987  1
loop_
_geom_bond_atom_site_label_1
_geom_bond_atom_site_label_2
_geom_bond_distance
_geom_bond_site_symmetry_2
Nb0 S11 2.463285 1_545
Nb0 S8 2.463285 1_545
Nb0 S3 2.475890 1_655
Nb0 S4 2.475890 1_655
Nb0 S6 2.477633 1_555
Nb0 S1 2.477633 1_555
Nb1 S10 2.463285 1_565
Nb1 S9 2.463285 1_565
Nb1 S7 2.475888 1_655
Nb1 S0 2.475888 1_655
Nb1 S2 2.477633 1_555
Nb1 S5 2.477633 1_555
Nb2 S11 2.462481 1_455
Nb2 S8 2.462481 1_455
Nb2 S6 2.477026 1_565
Nb2 S1 2.477026 1_565
Nb2 S3 2.479010 1_555
Nb2 S4 2.479010 1_555
Nb3 S10 2.462483 1_455
Nb3 S9 2.462483 1_455
Nb3 S2 2.477028 1_555
Nb3 S5 2.477028 1_555
Nb3 S7 2.479010 1_555
Nb3 S0 2.479010 1_555
Bi0 S4 2.824032 1_555
Bi0 S7 2.824032 1_554
Bi1 S5 2.824280 1_555
Bi1 S6 2.824280 1_555
Bi2 S3 2.824032 1_555
Bi2 S0 2.824032 1_555
Bi3 S2 2.824280 1_554
Bi3 S1 2.824280 1_555
Mo0 S10 2.425434 1_555
Mo0 S9 2.425434 1_555
Mo0 S7 2.430938 1_545
Mo0 S0 2.430938 1_545
Mo0 S2 2.432674 1_555
Mo0 S5 2.432674 1_555
Mo1 S11 2.425434 1_555
Mo1 S8 2.425434 1_555
Mo1 S3 2.430940 1_555
Mo1 S4 2.430940 1_555
Mo1 S6 2.432674 1_555
Mo1 S1 2.432674 1_555
