# generated using pymatgen
data_KAgSnF6
_symmetry_space_group_name_H-M   'P 1'
_cell_length_a   6.10483353
_cell_length_b   8.19953467
_cell_length_c   12.03077766
_cell_angle_alpha   90.00000000
_cell_angle_beta   90.00000000
_cell_angle_gamma   90.00000000
_symmetry_Int_Tables_number   1
_chemical_formula_structural   KAgSnF6
_chemical_formula_sum   'K4 Ag4 Sn4 F24'
_cell_volume   602.22216074
_cell_formula_units_Z   4
loop_
 _symmetry_equiv_pos_site_id
 _symmetry_equiv_pos_as_xyz
  1  'x, y, z'
loop_
 _atom_site_type_symbol
 _atom_site_label
 _atom_site_symmetry_multiplicity
 _atom_site_fract_x
 _atom_site_fract_y
 _atom_site_fract_z
 _atom_site_occupancy
  K  K0  1  0.03631798  0.75749801  0.45780115  1
  K  K1  1  0.53631798  0.25749801  0.04219885  1
  K  K2  1  0.46368202  0.75749801  0.95780115  1
  K  K3  1  0.96368202  0.25749801  0.54219885  1
  Ag  Ag0  1  0.43232182  0.49639907  0.65933828  1
  Ag  Ag1  1  0.56767818  0.99639907  0.34066172  1
  Ag  Ag2  1  0.93232182  0.99639907  0.84066172  1
  Ag  Ag3  1  0.06767818  0.49639907  0.15933828  1
  Sn  Sn0  1  0.44803349  0.99954269  0.63276679  1
  Sn  Sn1  1  0.05196651  0.99954269  0.13276679  1
  Sn  Sn2  1  0.55196651  0.49954269  0.36723321  1
  Sn  Sn3  1  0.94803349  0.49954269  0.86723321  1
  F  F0  1  0.67129514  0.27555472  0.37793190  1
  F  F1  1  0.17348819  0.08268596  0.70020153  1
  F  F2  1  0.77884515  0.94424523  0.05132976  1
  F  F3  1  0.43009280  0.72367289  0.35916692  1
  F  F4  1  0.32870486  0.77555472  0.62206810  1
  F  F5  1  0.56990720  0.22367289  0.64083308  1
  F  F6  1  0.06743407  0.44700179  0.71845271  1
  F  F7  1  0.27884515  0.44424523  0.44867024  1
  F  F8  1  0.70439124  0.54349864  0.51134263  1
  F  F9  1  0.67348819  0.58268596  0.79979847  1
  F  F10  1  0.43256593  0.44700179  0.21845271  1
  F  F11  1  0.93256593  0.94700179  0.28154729  1
  F  F12  1  0.22115485  0.44424523  0.94867024  1
  F  F13  1  0.72115485  0.94424523  0.55132976  1
  F  F14  1  0.20439124  0.04349864  0.98865737  1
  F  F15  1  0.93009280  0.22367289  0.14083308  1
  F  F16  1  0.79560876  0.54349864  0.01134263  1
  F  F17  1  0.82651181  0.58268596  0.29979847  1
  F  F18  1  0.06990720  0.72367289  0.85916692  1
  F  F19  1  0.32651181  0.08268596  0.20020153  1
  F  F20  1  0.29560876  0.04349864  0.48865737  1
  F  F21  1  0.82870486  0.27555472  0.87793190  1
  F  F22  1  0.56743407  0.94700179  0.78154729  1
  F  F23  1  0.17129514  0.77555472  0.12206810  1
loop_
_geom_bond_atom_site_label_1
_geom_bond_atom_site_label_2
_geom_bond_distance
_geom_bond_site_symmetry_2
Ag0 F9 2.350268 1_555
Ag0 F6 2.373174 1_555
Ag0 F5 2.399119 1_555
Ag0 F4 2.416706 1_555
Ag0 F8 2.465371 1_555
Ag0 F7 2.735771 1_555
Ag1 F19 2.350268 1_565
Ag1 F11 2.373174 1_555
Ag1 F3 2.399119 1_555
Ag1 F0 2.416706 1_565
Ag1 F20 2.465371 1_565
Ag1 F13 2.735771 1_555
Ag2 F1 2.350268 1_665
Ag2 F22 2.373174 1_555
Ag2 F18 2.399119 1_655
Ag2 F21 2.416706 1_565
Ag2 F14 2.465371 1_665
Ag2 F2 2.735771 1_556
Ag3 F17 2.350268 1_455
Ag3 F10 2.373174 1_555
Ag3 F15 2.399119 1_455
Ag3 F23 2.416706 1_555
Ag3 F16 2.465371 1_455
Ag3 F12 2.735771 1_554
F0 Sn2 1.979985 1_555
F0 K3 2.667143 1_555
F1 Sn0 1.982956 1_545
F1 K3 2.703424 1_455
F2 Sn1 1.986350 1_655
F2 K2 2.704195 1_554
F2 K1 2.966739 1_565
F3 Sn2 1.985033 1_555
F3 K0 2.695168 1_555
F4 Sn0 1.979985 1_555
F4 K0 2.667143 1_555
F5 Sn0 1.985033 1_545
F5 K3 2.695168 1_555
F6 Sn3 1.980108 1_455
F6 K3 2.704072 1_455
F7 Sn2 1.986350 1_555
F7 K3 2.704195 1_455
F7 K0 2.966739 1_555
F8 Sn2 2.000417 1_555
F8 K0 2.756810 1_655
F8 K3 2.853564 1_555
F9 Sn3 1.982956 1_555
F9 K2 2.703424 1_555
F10 Sn2 1.980108 1_555
F10 K1 2.704072 1_555
F11 Sn1 1.980108 1_655
F11 K0 2.704072 1_655
F12 Sn3 1.986350 1_455
F12 K1 2.704195 1_556
F12 K2 2.966739 1_555
F13 Sn0 1.986350 1_555
F13 K0 2.704195 1_655
F13 K3 2.966739 1_565
F14 Sn1 2.000417 1_546
F14 K1 2.756810 1_556
F14 K2 2.853564 1_545
F15 Sn1 1.985033 1_645
F15 K1 2.695168 1_555
F16 Sn3 2.000417 1_554
F16 K2 2.756810 1_554
F16 K1 2.853564 1_555
F17 Sn2 1.982956 1_555
F17 K0 2.703424 1_655
F18 Sn3 1.985033 1_455
F18 K2 2.695168 1_555
F19 Sn1 1.982956 1_545
F19 K1 2.703424 1_555
F20 Sn0 2.000417 1_545
F20 K3 2.756810 1_455
F20 K0 2.853564 1_545
F21 Sn3 1.979985 1_555
F21 K1 2.667143 1_556
F22 Sn0 1.980108 1_555
F22 K2 2.704072 1_555
F23 Sn1 1.979985 1_555
F23 K2 2.667143 1_554
