# generated using pymatgen
data_Sc6Zn23Ge
_symmetry_space_group_name_H-M   'P 1'
_cell_length_a   8.72540179
_cell_length_b   8.72540146
_cell_length_c   8.72540130
_cell_angle_alpha   60.00000063
_cell_angle_beta   60.00000188
_cell_angle_gamma   59.99999791
_symmetry_Int_Tables_number   1
_chemical_formula_structural   Sc6Zn23Ge
_chemical_formula_sum   'Sc6 Zn23 Ge1'
_cell_volume   469.72239504
_cell_formula_units_Z   1
loop_
 _symmetry_equiv_pos_site_id
 _symmetry_equiv_pos_as_xyz
  1  'x, y, z'
loop_
 _atom_site_type_symbol
 _atom_site_label
 _atom_site_symmetry_multiplicity
 _atom_site_fract_x
 _atom_site_fract_y
 _atom_site_fract_z
 _atom_site_occupancy
  Sc  Sc0  1  0.71286084  0.28713916  0.28713916  1
  Sc  Sc1  1  0.71286084  0.28713916  0.71286084  1
  Sc  Sc2  1  0.71286084  0.71286084  0.28713916  1
  Sc  Sc3  1  0.28713916  0.71286084  0.71286084  1
  Sc  Sc4  1  0.28713916  0.71286084  0.28713916  1
  Sc  Sc5  1  0.28713916  0.28713916  0.71286084  1
  Zn  Zn0  1  0.62822996  0.12392368  0.12392368  1
  Zn  Zn1  1  0.12392368  0.62822996  0.12392368  1
  Zn  Zn2  1  0.12392368  0.12392368  0.62822996  1
  Zn  Zn3  1  0.12392368  0.12392368  0.12392368  1
  Zn  Zn4  1  0.37177004  0.87607632  0.87607632  1
  Zn  Zn5  1  0.87607632  0.37177004  0.87607632  1
  Zn  Zn6  1  0.87607632  0.87607632  0.37177004  1
  Zn  Zn7  1  0.87607632  0.87607632  0.87607632  1
  Zn  Zn8  1  0.50000000  0.00000000  0.00000000  1
  Zn  Zn9  1  0.50000000  0.00000000  0.50000000  1
  Zn  Zn10  1  0.50000000  0.50000000  0.00000000  1
  Zn  Zn11  1  0.00000000  0.50000000  0.50000000  1
  Zn  Zn12  1  0.00000000  0.50000000  0.00000000  1
  Zn  Zn13  1  0.00000000  0.00000000  0.50000000  1
  Zn  Zn14  1  0.00000000  0.00000000  0.00000000  1
  Zn  Zn15  1  0.00182605  0.33272398  0.33272398  1
  Zn  Zn16  1  0.33272398  0.00182605  0.33272398  1
  Zn  Zn17  1  0.33272398  0.33272398  0.00182605  1
  Zn  Zn18  1  0.33272398  0.33272398  0.33272398  1
  Zn  Zn19  1  0.99817395  0.66727602  0.66727602  1
  Zn  Zn20  1  0.66727602  0.99817395  0.66727602  1
  Zn  Zn21  1  0.66727602  0.66727602  0.99817395  1
  Zn  Zn22  1  0.66727602  0.66727602  0.66727602  1
  Ge  Ge0  1  0.50000000  0.50000000  0.50000000  1
loop_
_geom_bond_atom_site_label_1
_geom_bond_atom_site_label_2
_geom_bond_distance
_geom_bond_site_symmetry_2
Sc0 Zn0 2.955148 1_555
Sc0 Zn3 2.955155 1_655
Sc0 Zn6 2.955155 1_545
Sc0 Zn5 2.955156 1_554
Sc0 Zn15 2.972785 1_655
Sc0 Zn21 2.972796 1_554
Sc0 Zn20 2.972796 1_545
Sc0 Zn18 2.972802 1_555
Sc0 Zn10 3.118750 1_555
Sc0 Zn13 3.118750 1_655
Sc0 Zn9 3.118750 1_555
Sc0 Zn12 3.118750 1_655
Sc1 Zn5 2.955148 1_555
Sc1 Zn7 2.955154 1_545
Sc1 Zn0 2.955155 1_556
Sc1 Zn2 2.955156 1_655
Sc1 Zn20 2.972785 1_545
Sc1 Zn15 2.972796 1_655
Sc1 Zn17 2.972796 1_556
Sc1 Zn22 2.972802 1_555
Sc1 Zn10 3.118750 1_556
Sc1 Zn13 3.118750 1_655
Sc1 Zn8 3.118750 1_556
Sc1 Zn11 3.118750 1_655
Sc2 Zn6 2.955148 1_555
Sc2 Zn7 2.955155 1_554
Sc2 Zn0 2.955155 1_565
Sc2 Zn1 2.955156 1_655
Sc2 Zn21 2.972785 1_554
Sc2 Zn15 2.972796 1_655
Sc2 Zn16 2.972796 1_565
Sc2 Zn22 2.972802 1_555
Sc2 Zn8 3.118750 1_565
Sc2 Zn9 3.118750 1_565
Sc2 Zn12 3.118750 1_655
Sc2 Zn11 3.118750 1_655
Sc3 Zn4 2.955148 1_555
Sc3 Zn7 2.955155 1_455
Sc3 Zn2 2.955155 1_565
Sc3 Zn1 2.955156 1_556
Sc3 Zn19 2.972785 1_455
Sc3 Zn17 2.972796 1_556
Sc3 Zn16 2.972796 1_565
Sc3 Zn22 2.972802 1_555
Sc3 Zn10 3.118750 1_556
Sc3 Zn13 3.118750 1_565
Sc3 Zn9 3.118750 1_565
Sc3 Zn12 3.118750 1_556
Sc4 Zn1 2.955148 1_555
Sc4 Zn3 2.955154 1_565
Sc4 Zn4 2.955155 1_554
Sc4 Zn6 2.955156 1_455
Sc4 Zn16 2.972785 1_565
Sc4 Zn19 2.972796 1_455
Sc4 Zn21 2.972796 1_554
Sc4 Zn18 2.972802 1_555
Sc4 Zn10 3.118750 1_555
Sc4 Zn13 3.118750 1_565
Sc4 Zn8 3.118750 1_565
Sc4 Zn11 3.118750 1_555
Sc5 Zn2 2.955148 1_555
Sc5 Zn3 2.955155 1_556
Sc5 Zn4 2.955155 1_545
Sc5 Zn5 2.955156 1_455
Sc5 Zn17 2.972785 1_556
Sc5 Zn19 2.972796 1_455
Sc5 Zn20 2.972796 1_545
Sc5 Zn18 2.972802 1_555
Sc5 Zn8 3.118750 1_556
Sc5 Zn9 3.118750 1_555
Sc5 Zn12 3.118750 1_556
Sc5 Zn11 3.118750 1_555
Zn0 Zn14 2.648587 1_655
Zn0 Zn10 2.679353 1_555
Zn0 Zn9 2.679354 1_555
Zn0 Zn8 2.679361 1_555
Zn0 Zn18 2.685284 1_555
Zn0 Zn17 2.685298 1_555
Zn0 Zn16 2.685298 1_555
Zn1 Zn14 2.648587 1_565
Zn1 Zn11 2.679354 1_555
Zn1 Zn10 2.679354 1_555
Zn1 Zn12 2.679361 1_555
Zn1 Zn18 2.685284 1_555
Zn1 Zn17 2.685298 1_555
Zn1 Zn15 2.685298 1_555
Zn2 Zn9 2.679354 1_555
Zn3 Zn8 2.679354 1_555
Zn4 Zn9 2.679354 1_565
Zn4 Zn8 2.679361 1_566
Zn6 Zn9 2.679354 1_565
Zn7 Zn8 2.679354 1_566
Zn10 Zn18 2.518840 1_555
Zn10 Zn22 2.518840 1_554
Zn10 Zn17 2.518850 1_555
Zn10 Zn21 2.518850 1_554
Zn10 Zn4 2.679353 1_554
Zn10 Zn5 2.679354 1_554
Zn11 Zn22 2.518840 1_455
Zn11 Zn18 2.518840 1_555
Zn11 Zn15 2.518850 1_555
Zn11 Zn19 2.518850 1_455
Zn11 Zn6 2.679353 1_455
Zn11 Zn2 2.679353 1_555
Zn11 Zn5 2.679354 1_455
Zn12 Zn19 2.518835 1_454
Zn12 Zn15 2.518835 1_555
Zn12 Zn21 2.518835 1_454
Zn12 Zn17 2.518835 1_555
Zn12 Zn7 2.679353 1_454
Zn12 Zn3 2.679353 1_555
Zn12 Zn5 2.679361 1_454
Zn13 Zn15 2.518835 1_555
Zn13 Zn19 2.518835 1_445
Zn13 Zn16 2.518835 1_555
Zn13 Zn20 2.518835 1_445
Zn13 Zn7 2.679353 1_445
Zn13 Zn3 2.679353 1_555
Zn13 Zn2 2.679361 1_555
Zn13 Zn6 2.679361 1_445
Zn14 Zn5 2.648587 1_454
Zn14 Zn6 2.648587 1_445
Zn14 Zn2 2.648587 1_554
Zn14 Zn4 2.648587 1_544
Zn14 Zn3 2.648594 1_555
Zn14 Zn7 2.648594 1_444
Zn15 Zn3 2.685277 1_555
Zn15 Zn2 2.685298 1_555
Zn15 Zn16 2.887217 1_555
Zn15 Zn17 2.887217 1_555
Zn15 Zn18 2.887217 1_555
Zn16 Zn8 2.518835 1_555
Zn16 Zn9 2.518850 1_555
Zn16 Zn3 2.685277 1_555
Zn16 Zn2 2.685298 1_555
Zn16 Zn17 2.887217 1_555
Zn16 Zn18 2.887217 1_555
Zn17 Zn8 2.518835 1_555
Zn17 Zn3 2.685277 1_555
Zn17 Zn18 2.887217 1_555
Zn18 Zn9 2.518840 1_555
Zn18 Zn2 2.685284 1_555
Zn19 Zn7 2.685277 1_555
Zn19 Zn6 2.685298 1_555
Zn19 Zn5 2.685298 1_555
Zn19 Zn20 2.887217 1_555
Zn19 Zn21 2.887217 1_555
Zn19 Zn22 2.887217 1_555
Zn20 Zn8 2.518835 1_566
Zn20 Zn9 2.518850 1_565
Zn20 Zn7 2.685277 1_555
Zn20 Zn6 2.685298 1_555
Zn20 Zn4 2.685298 1_555
Zn20 Zn22 2.887217 1_555
Zn20 Zn21 2.887217 1_555
Zn21 Zn8 2.518835 1_566
Zn21 Zn7 2.685277 1_555
Zn21 Zn5 2.685298 1_555
Zn21 Zn4 2.685298 1_555
Zn21 Zn22 2.887217 1_555
Zn22 Zn9 2.518840 1_565
Zn22 Zn5 2.685284 1_555
Zn22 Zn4 2.685284 1_555
Zn22 Zn6 2.685284 1_555
Ge0 Sc3 2.626614 1_555
Ge0 Sc0 2.626614 1_555
Ge0 Sc1 2.626614 1_555
Ge0 Sc4 2.626614 1_555
Ge0 Sc2 2.626614 1_555
Ge0 Sc5 2.626614 1_555
