# generated using pymatgen
data_Ca4GaSi4Rh9
_symmetry_space_group_name_H-M   'P 1'
_cell_length_a   11.48847555
_cell_length_b   11.48847462
_cell_length_c   11.48847523
_cell_angle_alpha   28.34616316
_cell_angle_beta   28.34617041
_cell_angle_gamma   28.34617054
_symmetry_Int_Tables_number   1
_chemical_formula_structural   Ca4GaSi4Rh9
_chemical_formula_sum   'Ca4 Ga1 Si4 Rh9'
_cell_volume   302.06037541
_cell_formula_units_Z   1
loop_
 _symmetry_equiv_pos_site_id
 _symmetry_equiv_pos_as_xyz
  1  'x, y, z'
loop_
 _atom_site_type_symbol
 _atom_site_label
 _atom_site_symmetry_multiplicity
 _atom_site_fract_x
 _atom_site_fract_y
 _atom_site_fract_z
 _atom_site_occupancy
  Ca  Ca0  1  0.94979650  0.94979650  0.94979650  1
  Ca  Ca1  1  0.85222615  0.85222615  0.85222615  1
  Ca  Ca2  1  0.14777385  0.14777385  0.14777385  1
  Ca  Ca3  1  0.05020350  0.05020350  0.05020350  1
  Ga  Ga0  1  0.50000000  0.50000000  0.50000000  1
  Si  Si0  1  0.27946766  0.27946766  0.27946766  1
  Si  Si1  1  0.38702132  0.38702132  0.38702132  1
  Si  Si2  1  0.72053234  0.72053234  0.72053234  1
  Si  Si3  1  0.61297868  0.61297868  0.61297868  1
  Rh  Rh0  1  0.60468041  0.60468041  0.10581460  1
  Rh  Rh1  1  0.89418540  0.39531959  0.39531959  1
  Rh  Rh2  1  0.50000000  0.00000000  0.50000000  1
  Rh  Rh3  1  0.39531959  0.89418540  0.39531959  1
  Rh  Rh4  1  0.50000000  0.50000000  0.00000000  1
  Rh  Rh5  1  0.10581460  0.60468041  0.60468041  1
  Rh  Rh6  1  0.00000000  0.50000000  0.50000000  1
  Rh  Rh7  1  0.39531959  0.39531959  0.89418540  1
  Rh  Rh8  1  0.60468041  0.10581460  0.60468041  1
loop_
_geom_bond_atom_site_label_1
_geom_bond_atom_site_label_2
_geom_bond_distance
_geom_bond_site_symmetry_2
Ca0 Ca1 3.225599 1_555
Ca0 Si3 3.250186 1_565
Ca0 Si3 3.250186 1_556
Ca0 Si3 3.250187 1_655
Ca0 Si0 3.250399 1_656
Ca0 Si0 3.250399 1_665
Ca0 Si0 3.250400 1_566
Ca0 Rh6 3.266097 1_665
Ca0 Rh6 3.266098 1_656
Ca0 Rh4 3.266098 1_566
Ca0 Rh2 3.266098 1_566
Ca0 Rh2 3.266098 1_665
Ca0 Rh4 3.266098 1_656
Ca0 Ca3 3.319376 1_666
Ca0 Rh1 3.346862 1_556
Ca0 Rh1 3.346862 1_565
Ca0 Rh7 3.346863 1_655
Ca0 Rh3 3.346863 1_655
Ca0 Rh3 3.346863 1_556
Ca0 Rh7 3.346863 1_565
Ca1 Rh0 3.119633 1_556
Ca1 Rh5 3.119633 1_655
Ca1 Rh8 3.119633 1_565
Ca1 Rh1 3.147534 1_565
Ca1 Rh1 3.147534 1_556
Ca1 Rh7 3.147535 1_565
Ca1 Rh3 3.147535 1_556
Ca1 Rh3 3.147535 1_655
Ca1 Rh7 3.147535 1_655
Ca2 Rh7 3.119633 1_554
Ca2 Rh1 3.119633 1_455
Ca2 Rh3 3.119633 1_545
Ca2 Rh5 3.147534 1_545
Ca2 Rh5 3.147534 1_554
Ca2 Rh0 3.147535 1_545
Ca2 Rh8 3.147535 1_554
Ca2 Rh8 3.147535 1_455
Ca2 Rh0 3.147535 1_455
Ca2 Ca3 3.225599 1_555
Ca3 Si1 3.250186 1_545
Ca3 Si1 3.250186 1_554
Ca3 Si1 3.250187 1_455
Ca3 Si2 3.250399 1_454
Ca3 Si2 3.250399 1_445
Ca3 Si2 3.250400 1_544
Ca3 Rh6 3.266097 1_545
Ca3 Rh6 3.266098 1_554
Ca3 Rh4 3.266098 1_545
Ca3 Rh2 3.266098 1_554
Ca3 Rh2 3.266098 1_455
Ca3 Rh4 3.266098 1_455
Ca3 Rh5 3.346862 1_554
Ca3 Rh5 3.346862 1_545
Ca3 Rh0 3.346863 1_455
Ca3 Rh8 3.346863 1_455
Ca3 Rh8 3.346863 1_554
Ca3 Rh0 3.346863 1_545
Ga0 Rh3 2.602668 1_555
Ga0 Rh8 2.602668 1_555
Ga0 Rh7 2.602668 1_555
Ga0 Rh0 2.602668 1_555
Ga0 Rh1 2.602668 1_555
Ga0 Rh5 2.602668 1_555
Rh0 Si1 2.347290 1_555
Rh0 Si2 2.348145 1_554
Rh0 Rh8 2.806594 1_555
Rh0 Rh5 2.806595 1_555
Rh0 Rh8 2.819356 1_564
Rh0 Rh5 2.819357 1_654
Rh1 Si3 2.347290 1_555
Rh1 Si0 2.348145 1_655
Rh1 Rh3 2.806595 1_555
Rh1 Rh7 2.806595 1_555
Rh1 Rh3 2.819357 1_645
Rh1 Rh7 2.819357 1_654
Rh2 Si1 2.405788 1_555
Rh2 Si3 2.405788 1_545
Rh2 Si2 2.410126 1_545
Rh2 Si0 2.410126 1_555
Rh3 Si3 2.347290 1_555
Rh3 Si0 2.348145 1_565
Rh3 Rh7 2.806594 1_555
Rh3 Rh7 2.819356 1_564
Rh4 Si1 2.405789 1_555
Rh4 Si3 2.405789 1_554
Rh4 Si2 2.410125 1_554
Rh4 Si0 2.410125 1_555
Rh5 Si1 2.347290 1_555
Rh5 Si2 2.348145 1_455
Rh5 Rh8 2.806595 1_555
Rh5 Rh8 2.819357 1_465
Rh6 Si1 2.405789 1_555
Rh6 Si3 2.405789 1_455
Rh6 Si2 2.410126 1_455
Rh6 Si0 2.410126 1_555
Rh7 Si3 2.347290 1_555
Rh7 Si0 2.348145 1_556
Rh8 Si1 2.347290 1_555
Rh8 Si2 2.348145 1_545
