# generated using pymatgen
data_YZnSi2Pd
_symmetry_space_group_name_H-M   'P 1'
_cell_length_a   5.92076878
_cell_length_b   5.92076926
_cell_length_c   5.92076945
_cell_angle_alpha   140.26219037
_cell_angle_beta   140.26218821
_cell_angle_gamma   57.45541801
_symmetry_Int_Tables_number   1
_chemical_formula_structural   YZnSi2Pd
_chemical_formula_sum   'Y1 Zn1 Si2 Pd1'
_cell_volume   84.09591823
_cell_formula_units_Z   1
loop_
 _symmetry_equiv_pos_site_id
 _symmetry_equiv_pos_as_xyz
  1  'x, y, z'
loop_
 _atom_site_type_symbol
 _atom_site_label
 _atom_site_symmetry_multiplicity
 _atom_site_fract_x
 _atom_site_fract_y
 _atom_site_fract_z
 _atom_site_occupancy
  Y  Y0  1  0.00000000  0.00000000  0.00000000  1
  Zn  Zn0  1  0.75000000  0.25000000  0.50000000  1
  Si  Si0  1  0.61179437  0.61179437  0.00000000  1
  Si  Si1  1  0.38820563  0.38820563  1.00000000  1
  Pd  Pd0  1  0.25000000  0.75000000  0.50000000  1
loop_
_geom_bond_atom_site_label_1
_geom_bond_atom_site_label_2
_geom_bond_distance
_geom_bond_site_symmetry_2
Y0 Zn0 3.284589 1_555
Y0 Zn0 3.284589 1_444
Y0 Zn0 3.284589 1_455
Y0 Zn0 3.284589 1_454
Si0 Si1 2.321747 1_554
Si0 Zn0 2.471617 1_565
Si0 Zn0 2.471617 1_554
Si0 Y0 3.073471 1_565
Si0 Y0 3.073471 1_554
Si0 Y0 3.073471 1_655
Si0 Y0 3.073472 1_666
Si1 Zn0 2.471617 1_455
Si1 Zn0 2.471618 1_556
Si1 Y0 3.073471 1_656
Si1 Y0 3.073471 1_667
Si1 Y0 3.073471 1_566
Si1 Y0 3.073472 1_555
Pd0 Si0 2.471617 1_455
Pd0 Si1 2.471617 1_565
Pd0 Si1 2.471617 1_554
Pd0 Si0 2.471618 1_556
Pd0 Zn0 2.845804 1_555
Pd0 Zn0 2.845804 1_465
Pd0 Zn0 2.845804 1_566
Pd0 Zn0 2.845804 1_454
Pd0 Y0 3.284589 1_666
Pd0 Y0 3.284589 1_555
Pd0 Y0 3.284589 1_566
Pd0 Y0 3.284589 1_565
