# generated using pymatgen
data_ThHg3
_symmetry_space_group_name_H-M   'P 1'
_cell_length_a   6.81529105
_cell_length_b   6.81529166
_cell_length_c   4.96595895
_cell_angle_alpha   90.00000000
_cell_angle_beta   90.00000000
_cell_angle_gamma   120.00000212
_symmetry_Int_Tables_number   1
_chemical_formula_structural   ThHg3
_chemical_formula_sum   'Th2 Hg6'
_cell_volume   199.75727323
_cell_formula_units_Z   2
loop_
 _symmetry_equiv_pos_site_id
 _symmetry_equiv_pos_as_xyz
  1  'x, y, z'
loop_
 _atom_site_type_symbol
 _atom_site_label
 _atom_site_symmetry_multiplicity
 _atom_site_fract_x
 _atom_site_fract_y
 _atom_site_fract_z
 _atom_site_occupancy
  Th  Th0  1  0.33333300  0.66666700  0.25000000  1
  Th  Th1  1  0.66666700  0.33333300  0.75000000  1
  Hg  Hg0  1  0.83869892  0.67739784  0.25000000  1
  Hg  Hg1  1  0.16130108  0.83869892  0.75000000  1
  Hg  Hg2  1  0.67739784  0.83869892  0.75000000  1
  Hg  Hg3  1  0.32260216  0.16130108  0.25000000  1
  Hg  Hg4  1  0.83869892  0.16130108  0.25000000  1
  Hg  Hg5  1  0.16130108  0.32260216  0.75000000  1
loop_
_geom_bond_atom_site_label_1
_geom_bond_atom_site_label_2
_geom_bond_distance
_geom_bond_site_symmetry_2
Hg0 Hg1 3.129003 1_655
Hg0 Hg1 3.129003 1_654
Hg0 Hg2 3.129003 1_555
Hg0 Hg2 3.129003 1_554
Hg0 Th1 3.207665 1_554
Hg0 Th1 3.207665 1_555
Hg0 Hg3 3.297941 1_665
Hg0 Hg4 3.297942 1_565
Hg0 Th0 3.408231 1_655
Hg0 Th0 3.408237 1_555
Hg1 Hg3 3.129003 1_566
Hg1 Hg3 3.129003 1_565
Hg1 Th0 3.207661 1_555
Hg1 Th0 3.207661 1_556
Hg1 Hg2 3.297941 1_455
Hg1 Hg5 3.297942 1_565
Hg1 Th1 3.408234 1_565
Hg1 Th1 3.408234 1_455
Hg2 Hg4 3.129003 1_565
Hg2 Hg4 3.129003 1_566
Hg2 Th0 3.207664 1_555
Hg2 Th0 3.207664 1_556
Hg2 Hg5 3.297941 1_665
Hg2 Th1 3.408231 1_565
Hg2 Th1 3.408238 1_555
Hg3 Hg5 3.129003 1_555
Hg3 Hg5 3.129003 1_554
Hg3 Th1 3.207664 1_555
Hg3 Th1 3.207664 1_554
Hg3 Hg4 3.297941 1_455
Hg3 Th0 3.408231 1_545
Hg3 Th0 3.408238 1_555
Hg4 Hg5 3.129003 1_655
Hg4 Hg5 3.129003 1_654
Hg4 Th1 3.207661 1_554
Hg4 Th1 3.207661 1_555
Hg4 Th0 3.408234 1_545
Hg4 Th0 3.408234 1_655
Hg5 Th0 3.207665 1_555
Hg5 Th0 3.207665 1_556
Hg5 Th1 3.408231 1_455
Hg5 Th1 3.408237 1_555
