# generated using pymatgen
data_TcMo11P4
_symmetry_space_group_name_H-M   'P 1'
_cell_length_a   7.31160934
_cell_length_b   7.31160936
_cell_length_c   7.32301685
_cell_angle_alpha   96.28215432
_cell_angle_beta   96.28216408
_cell_angle_gamma   141.44478280
_symmetry_Int_Tables_number   1
_chemical_formula_structural   TcMo11P4
_chemical_formula_sum   'Tc1 Mo11 P4'
_cell_volume   230.20859685
_cell_formula_units_Z   1
loop_
 _symmetry_equiv_pos_site_id
 _symmetry_equiv_pos_as_xyz
  1  'x, y, z'
loop_
 _atom_site_type_symbol
 _atom_site_label
 _atom_site_symmetry_multiplicity
 _atom_site_fract_x
 _atom_site_fract_y
 _atom_site_fract_z
 _atom_site_occupancy
  Tc  Tc0  1  0.91755604  0.91755604  0.40501441  1
  Mo  Mo0  1  0.06766152  0.47138394  0.00012263  1
  Mo  Mo1  1  0.47138394  0.06766152  0.00012263  1
  Mo  Mo2  1  0.51662930  0.51662930  0.59112872  1
  Mo  Mo3  1  0.00381880  0.35795165  0.35570418  1
  Mo  Mo4  1  0.65127314  0.00281673  0.64385612  1
  Mo  Mo5  1  0.35795165  0.00381880  0.35570418  1
  Mo  Mo6  1  0.00281673  0.65127314  0.64385612  1
  Mo  Mo7  1  0.14230918  0.14230918  0.81080355  1
  Mo  Mo8  1  0.86189737  0.67732257  0.00236659  1
  Mo  Mo9  1  0.67732257  0.86189737  0.00236659  1
  Mo  Mo10  1  0.31129441  0.31129441  0.18412316  1
  P  P0  1  0.50762157  0.21292822  0.70971749  1
  P  P1  1  0.79312002  0.50441653  0.29269556  1
  P  P2  1  0.21292822  0.50762157  0.70971749  1
  P  P3  1  0.50441653  0.79312002  0.29269556  1
loop_
_geom_bond_atom_site_label_1
_geom_bond_atom_site_label_2
_geom_bond_distance
_geom_bond_site_symmetry_2
Mo0 P2 2.428670 1_554
Mo0 P3 2.443855 1_555
Mo0 Mo10 3.072439 1_555
Mo1 P0 2.428670 1_554
Mo1 P1 2.443855 1_555
Mo1 Mo10 3.072439 1_555
Mo2 P0 2.427988 1_555
Mo2 P2 2.427989 1_555
Mo2 Tc0 2.711603 1_555
Mo2 Tc0 2.758509 1_445
Mo3 P2 2.480080 1_555
Mo3 P3 2.492004 1_555
Mo3 P3 2.496110 1_445
Mo3 P1 2.503164 1_455
Mo3 Tc0 2.832760 1_445
Mo4 P3 2.464670 1_545
Mo4 P0 2.483590 1_555
Mo4 P2 2.486995 1_545
Mo4 P2 2.488102 1_655
Mo5 P0 2.480080 1_555
Mo5 P1 2.492004 1_555
Mo5 P1 2.496110 1_445
Mo5 P3 2.503164 1_545
Mo5 Tc0 2.832760 1_445
Mo6 P1 2.464670 1_455
Mo6 P2 2.483590 1_555
Mo6 P0 2.486995 1_455
Mo6 P0 2.488102 1_565
Mo7 P2 2.511631 1_555
Mo7 P0 2.511631 1_555
Mo7 Tc0 2.805418 1_445
Mo8 P1 2.489834 1_555
Mo8 P0 2.503650 1_554
Mo8 Mo9 2.547740 1_555
Mo9 P3 2.489834 1_555
Mo9 P2 2.503650 1_554
Mo10 P1 2.529445 1_555
Mo10 P3 2.529446 1_555
Mo10 Mo7 2.580876 1_554
Mo10 Mo2 2.812037 1_555
Mo10 Mo9 2.815300 1_445
Mo10 Mo8 2.815300 1_445
Mo10 Tc0 2.836353 1_555
Mo10 Tc0 2.875457 1_445
Mo10 Mo5 2.910871 1_555
Mo10 Mo3 2.910871 1_555
Mo10 Mo9 3.200374 1_555
Mo10 Mo8 3.200374 1_555
P1 Tc0 2.371303 1_555
P3 Tc0 2.371303 1_555
