# generated using pymatgen
data_Sr(Mo3S4)2
_symmetry_space_group_name_H-M   'P 1'
_cell_length_a   6.62925887
_cell_length_b   6.62941845
_cell_length_c   6.63099647
_cell_angle_alpha   89.32769205
_cell_angle_beta   89.20816447
_cell_angle_gamma   89.18993275
_symmetry_Int_Tables_number   1
_chemical_formula_structural   Sr(Mo3S4)2
_chemical_formula_sum   'Sr1 Mo6 S8'
_cell_volume   291.34354574
_cell_formula_units_Z   1
loop_
 _symmetry_equiv_pos_site_id
 _symmetry_equiv_pos_as_xyz
  1  'x, y, z'
loop_
 _atom_site_type_symbol
 _atom_site_label
 _atom_site_symmetry_multiplicity
 _atom_site_fract_x
 _atom_site_fract_y
 _atom_site_fract_z
 _atom_site_occupancy
  Sr  Sr0  1  0.00000000  -0.00000000  0.00000000  1
  Mo  Mo0  1  0.41894123  0.23442944  0.56226230  1
  Mo  Mo1  1  0.76562300  0.43770622  0.58112724  1
  Mo  Mo2  1  0.23437700  0.56229378  0.41887276  1
  Mo  Mo3  1  0.43733983  0.58142492  0.76555456  1
  Mo  Mo4  1  0.56266017  0.41857508  0.23444544  1
  Mo  Mo5  1  0.58105877  0.76557056  0.43773770  1
  S  S0  1  0.87445331  0.61695457  0.26319111  1
  S  S1  1  0.12554669  0.38304543  0.73680889  1
  S  S2  1  0.26273673  0.87460809  0.61744849  1
  S  S3  1  0.73726327  0.12539191  0.38255151  1
  S  S4  1  0.75242448  0.75320060  0.75305532  1
  S  S5  1  0.24757552  0.24679940  0.24694468  1
  S  S6  1  0.61742011  0.26338410  0.87400615  1
  S  S7  1  0.38257989  0.73661590  0.12599385  1
loop_
_geom_bond_atom_site_label_1
_geom_bond_atom_site_label_2
_geom_bond_distance
_geom_bond_site_symmetry_2
Mo0 S5 2.393327 1_555
Mo0 S1 2.450234 1_555
Mo0 S6 2.476474 1_555
Mo0 S3 2.510630 1_555
Mo0 S2 2.633489 1_545
Mo1 S4 2.393734 1_555
Mo1 S6 2.449319 1_555
Mo1 S3 2.477465 1_555
Mo1 S0 2.510111 1_555
Mo1 S1 2.631537 1_655
Mo2 S5 2.393734 1_555
Mo2 S7 2.449319 1_555
Mo2 S2 2.477465 1_555
Mo2 S1 2.510111 1_555
Mo2 S0 2.631537 1_455
Mo3 S4 2.393099 1_555
Mo3 S2 2.450512 1_555
Mo3 S1 2.476263 1_555
Mo3 S6 2.510927 1_555
Mo3 S7 2.631705 1_556
Mo4 S5 2.393099 1_555
Mo4 S3 2.450512 1_555
Mo4 S0 2.476263 1_555
Mo4 S7 2.510927 1_555
Mo4 S6 2.631705 1_554
Mo5 S4 2.393327 1_555
Mo5 S0 2.450234 1_555
Mo5 S7 2.476474 1_555
Mo5 S2 2.510630 1_555
Mo5 S3 2.633489 1_565
S0 Sr0 3.178441 1_665
S1 Sr0 3.178441 1_556
S2 Sr0 3.169538 1_566
S3 Sr0 3.169538 1_655
S4 Sr0 2.874904 1_666
S5 Sr0 2.874904 1_555
S6 Sr0 3.174640 1_656
S7 Sr0 3.174640 1_565
