# generated using pymatgen
data_Rb4HfTcI12
_symmetry_space_group_name_H-M   'P 1'
_cell_length_a   8.24470701
_cell_length_b   8.07621646
_cell_length_c   14.16145412
_cell_angle_alpha   55.70696132
_cell_angle_beta   90.23108496
_cell_angle_gamma   90.39742331
_symmetry_Int_Tables_number   1
_chemical_formula_structural   Rb4HfTcI12
_chemical_formula_sum   'Rb4 Hf1 Tc1 I12'
_cell_volume   779.01942922
_cell_formula_units_Z   1
loop_
 _symmetry_equiv_pos_site_id
 _symmetry_equiv_pos_as_xyz
  1  'x, y, z'
loop_
 _atom_site_type_symbol
 _atom_site_label
 _atom_site_symmetry_multiplicity
 _atom_site_fract_x
 _atom_site_fract_y
 _atom_site_fract_z
 _atom_site_occupancy
  Rb  Rb0  1  0.45085415  0.72571659  0.25210701  1
  Rb  Rb1  1  0.94825797  0.26818362  0.25190623  1
  Rb  Rb2  1  0.05174203  0.73181638  0.74809377  1
  Rb  Rb3  1  0.54914585  0.27428341  0.74789299  1
  Hf  Hf0  1  0.00000000  0.00000000  0.00000000  1
  Tc  Tc0  1  0.50000000  0.00000000  0.50000000  1
  I  I0  1  0.79898595  0.30876422  0.97404242  1
  I  I1  1  0.49870456  0.18034561  0.26736658  1
  I  I2  1  0.50129544  0.81965439  0.73263342  1
  I  I3  1  0.28214615  0.22348136  0.98019240  1
  I  I4  1  0.30056336  0.70117278  0.52609087  1
  I  I5  1  0.23122452  0.21990191  0.47904688  1
  I  I6  1  0.20101405  0.69123578  0.02595758  1
  I  I7  1  0.76877548  0.78009809  0.52095312  1
  I  I8  1  0.71785385  0.77651864  0.01980760  1
  I  I9  1  0.99915396  0.80839738  0.24138256  1
  I  I10  1  0.00084604  0.19160262  0.75861744  1
  I  I11  1  0.69943664  0.29882722  0.47390913  1
loop_
_geom_bond_atom_site_label_1
_geom_bond_atom_site_label_2
_geom_bond_distance
_geom_bond_site_symmetry_2
Hf0 I9 2.849383 1_445
Hf0 I10 2.849383 1_554
Hf0 I6 2.849479 1_545
Hf0 I0 2.849479 1_454
Hf0 I3 2.850276 1_554
Hf0 I8 2.850276 1_445
I0 Rb2 3.726982 1_655
I0 Rb3 3.939676 1_555
I0 Rb1 3.952117 1_556
I1 Tc0 2.750941 1_555
I1 Rb1 3.752852 1_555
I1 Rb0 3.815350 1_545
I2 Tc0 2.750941 1_565
I2 Rb2 3.752852 1_555
I2 Rb3 3.815350 1_565
I3 Rb3 3.789626 1_555
I3 Rb0 3.938803 1_546
I3 Rb2 4.014800 1_555
I4 Tc0 2.758572 1_565
I4 Rb3 3.714300 1_555
I4 Rb2 3.884529 1_555
I4 Rb0 3.974652 1_555
I5 Tc0 2.758287 1_555
I5 Rb1 3.805301 1_455
I5 Rb2 3.909662 1_545
I5 Rb0 3.930086 1_555
I6 Rb1 3.726982 1_455
I6 Rb0 3.939676 1_555
I6 Rb2 3.952117 1_554
I7 Tc0 2.758287 1_565
I7 Rb2 3.805301 1_655
I7 Rb1 3.909662 1_565
I7 Rb3 3.930086 1_555
I8 Rb0 3.789626 1_555
I8 Rb3 3.938803 1_564
I8 Rb1 4.014800 1_555
I9 Rb0 3.775420 1_655
I9 Rb1 3.825292 1_565
I10 Rb3 3.775420 1_455
I10 Rb2 3.825292 1_545
I11 Tc0 2.758572 1_555
I11 Rb0 3.714300 1_555
I11 Rb1 3.884529 1_555
I11 Rb3 3.974652 1_555
