# generated using pymatgen
data_SrCdBi2O7
_symmetry_space_group_name_H-M   'P 1'
_cell_length_a   7.69735695
_cell_length_b   7.69735693
_cell_length_c   7.69735665
_cell_angle_alpha   119.65750461
_cell_angle_beta   121.11414615
_cell_angle_gamma   89.33770741
_symmetry_Int_Tables_number   1
_chemical_formula_structural   SrCdBi2O7
_chemical_formula_sum   'Sr2 Cd2 Bi4 O14'
_cell_volume   320.51568582
_cell_formula_units_Z   2
loop_
 _symmetry_equiv_pos_site_id
 _symmetry_equiv_pos_as_xyz
  1  'x, y, z'
loop_
 _atom_site_type_symbol
 _atom_site_label
 _atom_site_symmetry_multiplicity
 _atom_site_fract_x
 _atom_site_fract_y
 _atom_site_fract_z
 _atom_site_occupancy
  Sr  Sr0  1  0.00000000  0.00000000  0.50000000  1
  Sr  Sr1  1  0.00000000  0.50000000  0.00000000  1
  Cd  Cd0  1  0.00000000  0.00000000  0.00000000  1
  Cd  Cd1  1  0.50000000  0.50000000  0.00000000  1
  Bi  Bi0  1  0.50000000  0.00000000  0.00000000  1
  Bi  Bi1  1  0.50000000  0.50000000  0.50000000  1
  Bi  Bi2  1  0.50000000  0.00000000  0.50000000  1
  Bi  Bi3  1  0.00000000  0.50000000  0.50000000  1
  O  O0  1  0.43030011  0.09117502  0.76156611  1
  O  O1  1  0.56969989  0.33126599  0.66087391  1
  O  O2  1  0.17039209  0.40882498  0.33912609  1
  O  O3  1  0.82960791  0.16873401  0.23843389  1
  O  O4  1  0.56969989  0.90882498  0.23843389  1
  O  O5  1  0.43030011  0.66873401  0.33912609  1
  O  O6  1  0.82960791  0.59117502  0.66087391  1
  O  O7  1  0.17039209  0.83126599  0.76156611  1
  O  O8  1  0.60861658  0.75000000  0.85861658  1
  O  O9  1  0.39138342  0.25000000  0.14138342  1
  O  O10  1  0.16545254  0.91203679  0.25341675  1
  O  O11  1  0.83454746  0.08796321  0.74658325  1
  O  O12  1  0.84137896  0.58796321  0.25341675  1
  O  O13  1  0.15862104  0.41203679  0.74658325  1
loop_
_geom_bond_atom_site_label_1
_geom_bond_atom_site_label_2
_geom_bond_distance
_geom_bond_site_symmetry_2
Cd0 O10 2.145937 1_545
Cd0 O11 2.145937 1_454
Cd0 O2 2.620081 1_555
Cd0 O6 2.620081 1_444
Cd0 O3 2.620087 1_455
Cd0 O7 2.620087 1_544
Cd1 O12 2.145932 1_555
Cd1 O13 2.145932 1_554
Cd1 O4 2.620080 1_555
Cd1 O0 2.620080 1_554
Cd1 O5 2.620087 1_555
Cd1 O1 2.620087 1_554
Bi0 O3 2.096915 1_555
Bi0 O7 2.096915 1_544
Bi0 O0 2.096921 1_554
Bi0 O4 2.096921 1_545
Bi0 O9 2.101684 1_555
Bi0 O8 2.101684 1_544
Bi1 O5 2.096915 1_555
Bi1 O1 2.096915 1_555
Bi1 O6 2.096915 1_555
Bi1 O2 2.096915 1_555
Bi1 O8 2.101684 1_555
Bi1 O9 2.101684 1_555
Bi2 O11 2.099861 1_555
Bi2 O10 2.099861 1_545
Bi2 O4 2.131509 1_545
Bi2 O0 2.131509 1_555
Bi2 O1 2.131510 1_555
Bi2 O5 2.131510 1_545
Bi3 O13 2.099856 1_555
Bi3 O12 2.099856 1_455
Bi3 O7 2.131510 1_555
Bi3 O3 2.131510 1_455
Bi3 O2 2.131511 1_555
Bi3 O6 2.131511 1_455
O0 Sr0 2.698170 1_555
O1 Sr1 2.698171 1_656
O2 Sr1 2.698176 1_555
O3 Sr0 2.698171 1_655
O4 Sr0 2.698170 1_665
O5 Sr1 2.698171 1_555
O6 Sr1 2.698176 1_656
O7 Sr0 2.698171 1_565
O10 Sr0 2.624762 1_565
O10 Sr1 2.624768 1_555
O11 Sr0 2.624762 1_655
O11 Sr1 2.624768 1_656
O12 Sr0 2.624769 1_665
O12 Sr1 2.624775 1_655
O13 Sr0 2.624769 1_555
O13 Sr1 2.624775 1_556
