# generated using pymatgen
data_Rb2IrOF5
_symmetry_space_group_name_H-M   'P 1'
_cell_length_a   6.05223258
_cell_length_b   6.05221730
_cell_length_c   6.05222926
_cell_angle_alpha   119.27100570
_cell_angle_beta   119.27114908
_cell_angle_gamma   91.26770734
_symmetry_Int_Tables_number   1
_chemical_formula_structural   Rb2IrOF5
_chemical_formula_sum   'Rb2 Ir1 O1 F5'
_cell_volume   158.44278161
_cell_formula_units_Z   1
loop_
 _symmetry_equiv_pos_site_id
 _symmetry_equiv_pos_as_xyz
  1  'x, y, z'
loop_
 _atom_site_type_symbol
 _atom_site_label
 _atom_site_symmetry_multiplicity
 _atom_site_fract_x
 _atom_site_fract_y
 _atom_site_fract_z
 _atom_site_occupancy
  Rb  Rb0  1  0.75723770  0.25723555  0.50000048  1
  Rb  Rb1  1  0.25723601  0.75723642  0.50000036  1
  Ir  Ir0  1  0.99950394  0.99950402  0.99999992  1
  O  O0  1  0.78867075  0.78867177  0.00001211  1
  F  F0  1  0.23323089  0.23323160  0.99999046  1
  F  F1  1  0.78397557  0.23805307  0.00000146  1
  F  F2  1  0.23805155  0.78397639  0.99999579  1
  F  F3  1  0.23806426  0.23805953  0.45407939  1
  F  F4  1  0.78396434  0.78396665  0.54591903  1
loop_
_geom_bond_atom_site_label_1
_geom_bond_atom_site_label_2
_geom_bond_distance
_geom_bond_site_symmetry_2
Ir0 O0 1.784525 1_556
O0 Rb0 3.070894 1_565
O0 Rb1 3.070902 1_655
O0 Rb1 3.070967 1_554
O0 Rb0 3.070980 1_554
F0 Ir0 1.978291 1_445
F0 Rb0 3.066090 1_455
F0 Rb1 3.066103 1_545
F0 Rb1 3.066158 1_556
F0 Rb0 3.066166 1_556
F1 Ir0 1.967048 1_544
F1 Rb1 3.010378 1_655
F1 Rb0 3.010413 1_554
F1 Rb1 3.055002 1_544
F1 Rb0 3.055020 1_555
F2 Ir0 1.967040 1_455
F2 Rb1 3.010381 1_555
F2 Rb0 3.010386 1_566
F2 Rb0 3.054998 1_455
F2 Rb1 3.055054 1_556
F3 Ir0 1.967045 1_444
F3 Rb0 3.010352 1_555
F3 Rb1 3.010367 1_555
F3 Rb1 3.055055 1_545
F3 Rb0 3.055085 1_455
F4 Ir0 1.967046 1_555
F4 Rb0 3.010436 1_565
F4 Rb1 3.010461 1_655
F4 Rb1 3.054973 1_555
F4 Rb0 3.054983 1_555
