# generated using pymatgen
data_Cs2TaF7
_symmetry_space_group_name_H-M   'P 1'
_cell_length_a   6.21184285
_cell_length_b   5.98346140
_cell_length_c   11.13940606
_cell_angle_alpha   90.00000000
_cell_angle_beta   90.00000000
_cell_angle_gamma   90.00000000
_symmetry_Int_Tables_number   1
_chemical_formula_structural   Cs2TaF7
_chemical_formula_sum   'Cs4 Ta2 F14'
_cell_volume   414.03303045
_cell_formula_units_Z   2
loop_
 _symmetry_equiv_pos_site_id
 _symmetry_equiv_pos_as_xyz
  1  'x, y, z'
loop_
 _atom_site_type_symbol
 _atom_site_label
 _atom_site_symmetry_multiplicity
 _atom_site_fract_x
 _atom_site_fract_y
 _atom_site_fract_z
 _atom_site_occupancy
  Cs  Cs0  1  0.00000000  0.50000000  0.36603352  1
  Cs  Cs1  1  0.50000000  0.00000000  0.63396648  1
  Cs  Cs2  1  0.50000000  0.50000000  0.99087626  1
  Cs  Cs3  1  0.00000000  0.00000000  0.00912374  1
  Ta  Ta0  1  0.00000000  0.50000000  0.75721977  1
  Ta  Ta1  1  0.50000000  0.00000000  0.24278023  1
  F  F0  1  0.20499531  0.26184622  0.79598232  1
  F  F1  1  0.29500469  0.23815378  0.20401768  1
  F  F2  1  0.70499531  0.76184622  0.20401768  1
  F  F3  1  0.79500469  0.73815378  0.79598232  1
  F  F4  1  0.20499531  0.73815378  0.79598232  1
  F  F5  1  0.70499531  0.23815378  0.20401768  1
  F  F6  1  0.29500469  0.76184622  0.20401768  1
  F  F7  1  0.79500469  0.26184622  0.79598232  1
  F  F8  1  0.00000000  0.50000000  0.93852961  1
  F  F9  1  0.50000000  0.00000000  0.06147039  1
  F  F10  1  0.19234424  0.50000000  0.61730449  1
  F  F11  1  0.80765576  0.50000000  0.61730449  1
  F  F12  1  0.30765576  0.00000000  0.38269551  1
  F  F13  1  0.69234424  0.00000000  0.38269551  1
loop_
_geom_bond_atom_site_label_1
_geom_bond_atom_site_label_2
_geom_bond_distance
_geom_bond_site_symmetry_2
Cs0 F6 3.011643 1_555
Cs0 F1 3.011643 1_555
Cs0 F2 3.011643 1_455
Cs0 F5 3.011643 1_455
Cs0 F10 3.043358 1_555
Cs0 F11 3.043358 1_455
Cs0 F12 3.554890 1_565
Cs0 F12 3.554890 1_555
Cs0 F13 3.554890 1_455
Cs0 F13 3.554890 1_465
Cs1 F7 3.011643 1_555
Cs1 F0 3.011643 1_555
Cs1 F3 3.011643 1_545
Cs1 F4 3.011643 1_545
Cs1 F13 3.043358 1_555
Cs1 F12 3.043358 1_555
Cs1 F11 3.554890 1_545
Cs1 F11 3.554890 1_555
Cs1 F10 3.554890 1_545
Cs1 F10 3.554890 1_555
Cs2 F9 3.093354 1_566
Cs2 F9 3.093354 1_556
Cs2 F2 3.116632 1_556
Cs2 F5 3.116632 1_556
Cs2 F6 3.116632 1_556
Cs2 F1 3.116632 1_556
Cs2 F8 3.160184 1_555
Cs2 F8 3.160184 1_655
Cs2 F3 3.178360 1_555
Cs2 F7 3.178360 1_555
Cs2 F4 3.178360 1_555
Cs2 F0 3.178360 1_555
Cs3 F8 3.093354 1_554
Cs3 F8 3.093354 1_544
Cs3 F0 3.116632 1_554
Cs3 F7 3.116632 1_454
Cs3 F4 3.116632 1_544
Cs3 F3 3.116632 1_444
Cs3 F9 3.160184 1_555
Cs3 F9 3.160184 1_455
Cs3 F1 3.178360 1_555
Cs3 F6 3.178360 1_545
Cs3 F5 3.178360 1_455
Cs3 F2 3.178360 1_445
F0 Ta0 1.959226 1_555
F1 Ta1 1.959226 1_555
F2 Ta1 1.959226 1_565
F3 Ta0 1.959226 1_655
F4 Ta0 1.959226 1_555
F5 Ta1 1.959226 1_555
F6 Ta1 1.959226 1_565
F7 Ta0 1.959226 1_655
F8 Ta0 2.019684 1_555
F9 Ta1 2.019684 1_555
F10 Ta0 1.963855 1_555
F11 Ta0 1.963855 1_655
F12 Ta1 1.963855 1_555
F13 Ta1 1.963855 1_555
