# generated using pymatgen
data_LuHfCuS4
_symmetry_space_group_name_H-M   'P 1'
_cell_length_a   7.44270002
_cell_length_b   7.44269999
_cell_length_c   7.44269939
_cell_angle_alpha   120.47543161
_cell_angle_beta   119.65486546
_cell_angle_gamma   89.88866767
_symmetry_Int_Tables_number   1
_chemical_formula_structural   LuHfCuS4
_chemical_formula_sum   'Lu2 Hf2 Cu2 S8'
_cell_volume   291.21909537
_cell_formula_units_Z   2
loop_
 _symmetry_equiv_pos_site_id
 _symmetry_equiv_pos_as_xyz
  1  'x, y, z'
loop_
 _atom_site_type_symbol
 _atom_site_label
 _atom_site_symmetry_multiplicity
 _atom_site_fract_x
 _atom_site_fract_y
 _atom_site_fract_z
 _atom_site_occupancy
  Lu  Lu0  1  0.50000000  0.50000000  0.00000000  1
  Lu  Lu1  1  0.00000000  0.50000000  0.50000000  1
  Hf  Hf0  1  0.00000000  0.50000000  0.00000000  1
  Hf  Hf1  1  0.00000000  0.00000000  0.50000000  1
  Cu  Cu0  1  0.62865853  0.87865853  0.75000000  1
  Cu  Cu1  1  0.37134147  0.12134147  0.25000000  1
  S  S0  1  0.24137805  0.75295207  0.48842598  1
  S  S1  1  0.76452610  0.75295207  0.01157402  1
  S  S2  1  0.75977844  0.76044891  0.50067147  1
  S  S3  1  0.75977844  0.25910697  0.99932853  1
  S  S4  1  0.75862195  0.24704793  0.51157402  1
  S  S5  1  0.23547390  0.24704793  0.98842598  1
  S  S6  1  0.24022156  0.23955109  0.49932853  1
  S  S7  1  0.24022156  0.74089303  0.00067147  1
loop_
_geom_bond_atom_site_label_1
_geom_bond_atom_site_label_2
_geom_bond_distance
_geom_bond_site_symmetry_2
Lu0 S2 2.634338 1_555
Lu0 S6 2.634338 1_554
Lu0 S7 2.634338 1_555
Lu0 S3 2.634338 1_554
Lu0 S1 2.666456 1_555
Lu0 S5 2.666456 1_554
Lu1 S2 2.634333 1_455
Lu1 S6 2.634333 1_555
Lu1 S7 2.634338 1_556
Lu1 S3 2.634338 1_454
Lu1 S0 2.666456 1_555
Lu1 S4 2.666456 1_455
Hf0 S7 2.530928 1_555
Hf0 S3 2.530928 1_454
Hf0 S0 2.568135 1_555
Hf0 S4 2.568135 1_454
Hf0 S5 2.568135 1_554
Hf0 S1 2.568135 1_455
Hf1 S6 2.530934 1_555
Hf1 S2 2.530934 1_445
Hf1 S1 2.568135 1_445
Hf1 S5 2.568135 1_555
Hf1 S4 2.568135 1_455
Hf1 S0 2.568135 1_545
Cu0 S2 2.302732 1_555
Cu0 S3 2.302732 1_565
Cu0 S1 2.363004 1_556
Cu0 S0 2.363004 1_555
Cu1 S6 2.302732 1_555
Cu1 S7 2.302732 1_545
Cu1 S5 2.363004 1_554
Cu1 S4 2.363004 1_555
