# generated using pymatgen
data_Zr2InTcF15
_symmetry_space_group_name_H-M   'P 1'
_cell_length_a   7.90794643
_cell_length_b   7.90794600
_cell_length_c   7.95977359
_cell_angle_alpha   79.91181989
_cell_angle_beta   79.91182031
_cell_angle_gamma   99.75870807
_symmetry_Int_Tables_number   1
_chemical_formula_structural   Zr2InTcF15
_chemical_formula_sum   'Zr4 In2 Tc2 F30'
_cell_volume   472.09533999
_cell_formula_units_Z   2
loop_
 _symmetry_equiv_pos_site_id
 _symmetry_equiv_pos_as_xyz
  1  'x, y, z'
loop_
 _atom_site_type_symbol
 _atom_site_label
 _atom_site_symmetry_multiplicity
 _atom_site_fract_x
 _atom_site_fract_y
 _atom_site_fract_z
 _atom_site_occupancy
  Zr  Zr0  1  0.75143961  0.67881128  0.67477839  1
  Zr  Zr1  1  0.32118872  0.24856039  0.82522161  1
  Zr  Zr2  1  0.24856039  0.32118872  0.32522161  1
  Zr  Zr3  1  0.67881128  0.75143961  0.17477839  1
  In  In0  1  0.17846228  0.82153772  0.25000000  1
  In  In1  1  0.82153772  0.17846228  0.75000000  1
  Tc  Tc0  1  0.74992932  0.25007068  0.25000000  1
  Tc  Tc1  1  0.25007068  0.74992932  0.75000000  1
  F  F0  1  0.31719520  0.35221847  0.05184499  1
  F  F1  1  0.94391167  0.81563400  0.14966773  1
  F  F2  1  0.85010542  0.45477000  0.68413788  1
  F  F3  1  0.45477000  0.85010542  0.18413788  1
  F  F4  1  0.81563400  0.94391167  0.64966773  1
  F  F5  1  0.35221847  0.31719520  0.55184399  1
  F  F6  1  0.68280480  0.64778153  0.94815501  1
  F  F7  1  0.05608833  0.18436600  0.85033227  1
  F  F8  1  0.14989458  0.54523000  0.31586212  1
  F  F9  1  0.54523000  0.14989458  0.81586212  1
  F  F10  1  0.18436600  0.05608833  0.35033227  1
  F  F11  1  0.64778153  0.68280480  0.44815501  1
  F  F12  1  0.77123253  0.28512955  0.00072709  1
  F  F13  1  0.00375379  0.27386117  0.21486723  1
  F  F14  1  0.78346596  0.50433709  0.22480202  1
  F  F15  1  0.50433709  0.78346596  0.72480202  1
  F  F16  1  0.27386117  0.00375379  0.71486723  1
  F  F17  1  0.28512955  0.77123253  0.50072709  1
  F  F18  1  0.22876747  0.71487045  0.99927291  1
  F  F19  1  0.99624621  0.72613883  0.78513277  1
  F  F20  1  0.21653404  0.49566291  0.77519798  1
  F  F21  1  0.49566291  0.21653404  0.27519798  1
  F  F22  1  0.72613883  0.99624621  0.28513277  1
  F  F23  1  0.71487045  0.22876747  0.49927291  1
  F  F24  1  0.46700085  0.53299915  0.25000000  1
  F  F25  1  0.74791574  0.96035043  0.96904559  1
  F  F26  1  0.03964957  0.25208426  0.53095441  1
  F  F27  1  0.25208426  0.03964957  0.03095441  1
  F  F28  1  0.96035043  0.74791574  0.46904559  1
  F  F29  1  0.53299915  0.46700085  0.75000000  1
loop_
_geom_bond_atom_site_label_1
_geom_bond_atom_site_label_2
_geom_bond_distance
_geom_bond_site_symmetry_2
F0 Zr1 2.105643 1_554
F0 Zr2 2.108052 1_555
F1 Zr3 2.037016 1_555
F1 In0 2.140784 1_655
F2 Zr0 2.048418 1_555
F2 In1 2.118982 1_555
F3 Zr3 2.048418 1_555
F3 In0 2.118982 1_555
F4 Zr0 2.037016 1_555
F4 In1 2.140784 1_565
F5 Zr2 2.105635 1_555
F5 Zr1 2.108060 1_555
F6 Zr3 2.105643 1_556
F6 Zr0 2.108052 1_555
F7 Zr1 2.037016 1_555
F7 In1 2.140784 1_455
F8 Zr2 2.048418 1_555
F8 In0 2.118982 1_555
F9 Zr1 2.048418 1_555
F9 In1 2.118982 1_555
F10 Zr2 2.037016 1_555
F10 In0 2.140784 1_545
F11 Zr0 2.105643 1_555
F11 Zr3 2.108052 1_555
F12 Tc0 1.927815 1_555
F12 In1 2.297411 1_554
F13 Tc0 1.949225 1_455
F13 Zr2 2.263783 1_555
F14 Tc0 1.952661 1_555
F14 Zr3 2.247881 1_555
F15 Tc1 1.952661 1_555
F15 Zr0 2.247881 1_555
F16 Tc1 1.949225 1_545
F16 Zr1 2.263783 1_555
F17 Tc1 1.927815 1_555
F17 In0 2.297411 1_555
F18 Tc1 1.927815 1_555
F18 In0 2.297411 1_556
F19 Tc1 1.949225 1_655
F19 Zr0 2.263783 1_555
F20 Tc1 1.952661 1_555
F20 Zr1 2.247881 1_555
F21 Tc0 1.952661 1_555
F21 Zr2 2.247881 1_555
F22 Tc0 1.949225 1_565
F22 Zr3 2.263783 1_555
F23 Tc0 1.927815 1_555
F23 In1 2.297411 1_555
F24 Zr3 2.110332 1_555
F24 Zr2 2.110332 1_555
F25 Zr3 2.035260 1_556
F25 In1 2.145775 1_565
F26 Zr2 2.035260 1_555
F26 In1 2.145775 1_455
F27 Zr1 2.035260 1_554
F27 In0 2.145775 1_545
F28 Zr0 2.035260 1_555
F28 In0 2.145775 1_655
F29 Zr1 2.110332 1_555
F29 Zr0 2.110332 1_555
