# generated using pymatgen
data_NaVIrSe4
_symmetry_space_group_name_H-M   'P 1'
_cell_length_a   3.67778431
_cell_length_b   5.88640704
_cell_length_c   7.97482727
_cell_angle_alpha   64.01755619
_cell_angle_beta   90.00000000
_cell_angle_gamma   90.00000000
_symmetry_Int_Tables_number   1
_chemical_formula_structural   NaVIrSe4
_chemical_formula_sum   'Na1 V1 Ir1 Se4'
_cell_volume   155.19684801
_cell_formula_units_Z   1
loop_
 _symmetry_equiv_pos_site_id
 _symmetry_equiv_pos_as_xyz
  1  'x, y, z'
loop_
 _atom_site_type_symbol
 _atom_site_label
 _atom_site_symmetry_multiplicity
 _atom_site_fract_x
 _atom_site_fract_y
 _atom_site_fract_z
 _atom_site_occupancy
  Na  Na0  1  0.50000000  0.58559879  0.51125458  1
  V  V0  1  0.50000000  0.56482018  0.00572148  1
  Ir  Ir0  1  0.00000000  0.97871219  0.99357854  1
  Se  Se0  1  0.00000000  0.52824216  0.23011187  1
  Se  Se1  1  0.50000000  0.06566277  0.17028478  1
  Se  Se2  1  0.00000000  0.45579642  0.82246166  1
  Se  Se3  1  0.50000000  0.98626750  0.77128609  1
loop_
_geom_bond_atom_site_label_1
_geom_bond_atom_site_label_2
_geom_bond_distance
_geom_bond_site_symmetry_2
Na0 Se2 2.909169 1_555
Na0 Se2 2.909169 1_655
Na0 Se1 2.940529 1_565
Na0 Se0 3.030779 1_555
Na0 Se0 3.030779 1_655
Na0 Se3 3.215013 1_545
Ir0 Se0 2.491356 1_556
Ir0 Se1 2.502261 1_466
Ir0 Se1 2.502261 1_566
Ir0 Se2 2.528042 1_565
Ir0 Se3 2.541071 1_555
Ir0 Se3 2.541071 1_455
Se0 V0 2.508487 1_555
Se0 V0 2.508487 1_455
Se1 V0 2.641390 1_555
Se2 V0 2.598277 1_456
Se2 V0 2.598277 1_556
Se3 V0 2.363453 1_556
