# generated using pymatgen
data_K3Zn(BPt3)2
_symmetry_space_group_name_H-M   'P 1'
_cell_length_a   8.21581690
_cell_length_b   8.21581696
_cell_length_c   8.21581543
_cell_angle_alpha   40.18390536
_cell_angle_beta   40.18390531
_cell_angle_gamma   40.18390626
_symmetry_Int_Tables_number   1
_chemical_formula_structural   K3Zn(BPt3)2
_chemical_formula_sum   'K3 Zn1 B2 Pt6'
_cell_volume   208.10886380
_cell_formula_units_Z   1
loop_
 _symmetry_equiv_pos_site_id
 _symmetry_equiv_pos_as_xyz
  1  'x, y, z'
loop_
 _atom_site_type_symbol
 _atom_site_label
 _atom_site_symmetry_multiplicity
 _atom_site_fract_x
 _atom_site_fract_y
 _atom_site_fract_z
 _atom_site_occupancy
  K  K0  1  0.86030870  0.86030870  0.86030870  1
  K  K1  1  0.13969130  0.13969130  0.13969130  1
  K  K2  1  0.00000000  0.00000000  0.00000000  1
  Zn  Zn0  1  0.50000000  0.50000000  0.50000000  1
  B  B0  1  0.66887315  0.66887315  0.66887315  1
  B  B1  1  0.33112685  0.33112685  0.33112685  1
  Pt  Pt0  1  0.43717966  0.93193037  0.43717966  1
  Pt  Pt1  1  0.43717966  0.43717966  0.93193037  1
  Pt  Pt2  1  0.93193037  0.43717966  0.43717966  1
  Pt  Pt3  1  0.56282034  0.06806963  0.56282034  1
  Pt  Pt4  1  0.56282034  0.56282034  0.06806963  1
  Pt  Pt5  1  0.06806963  0.56282034  0.56282034  1
loop_
_geom_bond_atom_site_label_1
_geom_bond_atom_site_label_2
_geom_bond_distance
_geom_bond_site_symmetry_2
K0 K2 3.160569 1_666
K0 Pt2 3.294664 1_556
K0 Pt0 3.294664 1_556
K0 Pt1 3.294664 1_655
K0 Pt1 3.294664 1_565
K0 Pt0 3.294665 1_655
K0 Pt2 3.294665 1_565
K0 Zn0 3.315639 1_556
K0 Zn0 3.315639 1_655
K0 Zn0 3.315639 1_565
K0 Pt3 3.352529 1_565
K0 Pt5 3.352529 1_655
K0 Pt4 3.352530 1_556
K1 K2 3.160569 1_555
K1 Pt5 3.294664 1_554
K1 Pt3 3.294664 1_554
K1 Pt4 3.294664 1_455
K1 Pt4 3.294664 1_545
K1 Pt3 3.294665 1_455
K1 Pt5 3.294665 1_545
K1 Zn0 3.315639 1_554
K1 Zn0 3.315639 1_455
K1 Zn0 3.315639 1_545
K1 Pt0 3.352529 1_545
K1 Pt2 3.352529 1_455
K1 Pt1 3.352530 1_554
K2 Pt5 3.178099 1_545
K2 Pt2 3.178099 1_454
K2 Pt3 3.178099 1_455
K2 Pt0 3.178099 1_544
K2 Pt4 3.178099 1_545
K2 Pt1 3.178099 1_454
K2 Pt4 3.178099 1_455
K2 Pt1 3.178099 1_544
K2 Pt3 3.178099 1_554
K2 Pt0 3.178099 1_445
K2 Pt5 3.178099 1_554
K2 Pt2 3.178099 1_445
B0 Pt4 2.168458 1_556
B0 Pt5 2.168458 1_655
B0 Pt3 2.168458 1_565
B0 Pt0 2.209623 1_555
B0 Pt2 2.209624 1_555
B0 Pt1 2.209624 1_555
B0 K2 3.259364 1_665
B0 K2 3.259365 1_566
B0 K2 3.259365 1_656
B1 Pt1 2.168458 1_554
B1 Pt2 2.168458 1_455
B1 Pt0 2.168458 1_545
B1 Pt3 2.209623 1_555
B1 Pt5 2.209624 1_555
B1 Pt4 2.209624 1_555
B1 K2 3.259364 1_556
B1 K2 3.259365 1_655
B1 K2 3.259365 1_565
Pt0 Zn0 2.817049 1_555
Pt1 Zn0 2.817048 1_555
Pt2 Zn0 2.817049 1_555
Pt3 Zn0 2.817049 1_555
Pt4 Zn0 2.817048 1_555
Pt5 Zn0 2.817049 1_555
