# generated using pymatgen
data_Lu4Sb5PRh7
_symmetry_space_group_name_H-M   'P 1'
_cell_length_a   7.43409029
_cell_length_b   7.43424001
_cell_length_c   7.43409047
_cell_angle_alpha   110.80658198
_cell_angle_beta   106.83234759
_cell_angle_gamma   110.80658995
_symmetry_Int_Tables_number   1
_chemical_formula_structural   Lu4Sb5PRh7
_chemical_formula_sum   'Lu4 Sb5 P1 Rh7'
_cell_volume   315.77848338
_cell_formula_units_Z   1
loop_
 _symmetry_equiv_pos_site_id
 _symmetry_equiv_pos_as_xyz
  1  'x, y, z'
loop_
 _atom_site_type_symbol
 _atom_site_label
 _atom_site_symmetry_multiplicity
 _atom_site_fract_x
 _atom_site_fract_y
 _atom_site_fract_z
 _atom_site_occupancy
  Lu  Lu0  1  0.47368000  0.46190217  0.47368000  1
  Lu  Lu1  1  0.01178825  0.53808122  0.01178825  1
  Lu  Lu2  1  0.47368852  0.00000005  0.01177911  1
  Lu  Lu3  1  0.01177911  0.00000005  0.47368852  1
  Sb  Sb0  1  0.68942704  0.99999113  0.68942704  1
  Sb  Sb1  1  0.67523670  0.68692180  0.98829663  1
  Sb  Sb2  1  0.30137095  0.31307281  0.98829240  1
  Sb  Sb3  1  0.98829663  0.68692180  0.67523670  1
  Sb  Sb4  1  0.98829240  0.31307281  0.30137095  1
  P  P0  1  0.35144538  0.99998756  0.35144538  1
  Rh  Rh0  1  0.74120916  0.50002175  0.24121113  1
  Rh  Rh1  1  0.49174248  0.24377724  0.73552809  1
  Rh  Rh2  1  0.73552809  0.24377724  0.49174248  1
  Rh  Rh3  1  0.24794555  0.75621750  0.49174409  1
  Rh  Rh4  1  0.24121113  0.50002175  0.74120916  1
  Rh  Rh5  1  0.49174409  0.75621750  0.24794555  1
  Rh  Rh6  1  0.08561453  0.00001963  0.08561453  1
loop_
_geom_bond_atom_site_label_1
_geom_bond_atom_site_label_2
_geom_bond_distance
_geom_bond_site_symmetry_2
Lu0 P0 2.920917 1_545
Lu0 Rh1 2.946643 1_555
Lu0 Rh2 2.946643 1_555
Lu0 Rh0 2.993415 1_555
Lu0 Rh4 2.993415 1_555
Lu0 Sb4 3.060313 1_455
Lu0 Sb2 3.060313 1_554
Lu0 Rh6 3.088835 1_555
Lu0 Sb3 3.167391 1_555
Lu0 Sb1 3.167391 1_555
Lu0 Rh5 3.186196 1_555
Lu0 Rh3 3.186196 1_555
Lu0 Sb0 3.246710 1_555
Lu1 P0 2.920787 1_555
Lu1 Rh5 2.946485 1_555
Lu1 Rh3 2.946485 1_555
Lu1 Rh0 2.993412 1_455
Lu1 Rh4 2.993412 1_554
Lu1 Sb3 3.060340 1_454
Lu1 Sb1 3.060340 1_454
Lu1 Rh6 3.089247 1_565
Lu1 Sb4 3.167280 1_455
Lu1 Sb2 3.167280 1_554
Lu1 Rh1 3.186134 1_454
Lu1 Rh2 3.186134 1_454
Lu1 Sb0 3.246726 1_444
Lu2 P0 2.920809 1_545
Lu2 Rh5 2.946499 1_545
Lu2 Rh2 2.946553 1_555
Lu2 Rh4 2.993343 1_544
Lu2 Rh0 2.993600 1_555
Lu2 Sb3 3.060316 1_444
Lu2 Sb2 3.060376 1_554
Lu2 Rh6 3.088970 1_555
Lu2 Sb4 3.167328 1_555
Lu2 Sb1 3.167500 1_544
Lu2 Rh1 3.186059 1_554
Lu2 Rh3 3.186064 1_544
Lu2 Sb0 3.246657 1_544
Lu3 P0 2.920809 1_545
Lu3 Rh3 2.946499 1_545
Lu3 Rh1 2.946552 1_555
Lu3 Rh0 2.993343 1_445
Lu3 Rh4 2.993600 1_555
Lu3 Sb1 3.060316 1_444
Lu3 Sb4 3.060376 1_455
Lu3 Rh6 3.088970 1_555
Lu3 Sb2 3.167328 1_555
Lu3 Sb3 3.167500 1_445
Lu3 Rh2 3.186059 1_455
Lu3 Rh5 3.186064 1_445
Lu3 Sb0 3.246657 1_445
P0 Rh6 2.355778 1_565
P0 Rh3 2.404384 1_555
P0 Rh5 2.404384 1_555
P0 Rh2 2.404432 1_565
P0 Rh1 2.404433 1_565
Rh0 Sb3 2.699048 1_555
Rh0 Sb4 2.699086 1_555
Rh0 Sb1 2.740854 1_554
Rh0 Sb2 2.740965 1_554
Rh1 Sb2 2.677609 1_555
Rh1 Sb1 2.677690 1_555
Rh1 Sb0 2.702680 1_545
Rh2 Sb4 2.677609 1_555
Rh2 Sb3 2.677690 1_555
Rh2 Sb0 2.702680 1_545
Rh3 Sb3 2.677640 1_455
Rh3 Sb4 2.677694 1_455
Rh3 Sb0 2.702712 1_555
Rh4 Sb1 2.699048 1_555
Rh4 Sb2 2.699086 1_555
Rh4 Sb3 2.740854 1_455
Rh4 Sb4 2.740965 1_455
Rh5 Sb1 2.677640 1_554
Rh5 Sb2 2.677695 1_554
Rh5 Sb0 2.702712 1_555
Rh6 Sb2 2.780081 1_554
Rh6 Sb4 2.780081 1_455
Rh6 Sb1 2.780138 1_444
Rh6 Sb3 2.780138 1_444
