# generated using pymatgen
data_BaGa2GePt
_symmetry_space_group_name_H-M   'P 1'
_cell_length_a   6.26710474
_cell_length_b   6.26710441
_cell_length_c   6.26710482
_cell_angle_alpha   137.85992657
_cell_angle_beta   137.85991589
_cell_angle_gamma   61.11759876
_symmetry_Int_Tables_number   1
_chemical_formula_structural   BaGa2GePt
_chemical_formula_sum   'Ba1 Ga2 Ge1 Pt1'
_cell_volume   109.58161327
_cell_formula_units_Z   1
loop_
 _symmetry_equiv_pos_site_id
 _symmetry_equiv_pos_as_xyz
  1  'x, y, z'
loop_
 _atom_site_type_symbol
 _atom_site_label
 _atom_site_symmetry_multiplicity
 _atom_site_fract_x
 _atom_site_fract_y
 _atom_site_fract_z
 _atom_site_occupancy
  Ba  Ba0  1  0.99892677  0.99892677  1.00000000  1
  Ga  Ga0  1  0.24685552  0.74685552  0.50000000  1
  Ga  Ga1  1  0.74685552  0.24685552  0.50000000  1
  Ge  Ge0  1  0.59502657  0.59502657  1.00000000  1
  Pt  Pt0  1  0.35663461  0.35663461  0.00000000  1
loop_
_geom_bond_atom_site_label_1
_geom_bond_atom_site_label_2
_geom_bond_distance
_geom_bond_site_symmetry_2
Ba0 Ge0 3.350909 1_565
Ba0 Ge0 3.350909 1_655
Ba0 Ge0 3.350910 1_554
Ba0 Ge0 3.350910 1_666
Ba0 Ga0 3.498169 1_666
Ba0 Ga0 3.498169 1_655
Ba0 Ga1 3.498169 1_565
Ba0 Ga1 3.498170 1_666
Ba0 Ga1 3.532489 1_555
Ba0 Ga1 3.532489 1_566
Ba0 Ga0 3.532489 1_656
Ba0 Ga0 3.532490 1_555
Ba0 Pt0 3.537149 1_656
Ba0 Pt0 3.537150 1_566
Ba0 Pt0 3.537150 1_667
Ba0 Pt0 3.537150 1_555
Ga0 Pt0 2.545645 1_566
Ga0 Pt0 2.545645 1_555
Ga0 Ge0 2.786006 1_555
Ga0 Ge0 2.786006 1_454
Ga1 Pt0 2.545645 1_555
Ga1 Pt0 2.545645 1_656
Ga1 Ge0 2.786005 1_544
Ga1 Ge0 2.786005 1_555
Ge0 Pt0 2.573037 1_556
