# generated using pymatgen
data_MnNiBr18
_symmetry_space_group_name_H-M   'P 1'
_cell_length_a   8.82372270
_cell_length_b   8.82372160
_cell_length_c   8.82372133
_cell_angle_alpha   92.34541471
_cell_angle_beta   92.34541889
_cell_angle_gamma   92.34541767
_symmetry_Int_Tables_number   1
_chemical_formula_structural   MnNiBr18
_chemical_formula_sum   'Mn1 Ni1 Br18'
_cell_volume   685.22272379
_cell_formula_units_Z   1
loop_
 _symmetry_equiv_pos_site_id
 _symmetry_equiv_pos_as_xyz
  1  'x, y, z'
loop_
 _atom_site_type_symbol
 _atom_site_label
 _atom_site_symmetry_multiplicity
 _atom_site_fract_x
 _atom_site_fract_y
 _atom_site_fract_z
 _atom_site_occupancy
  Mn  Mn0  1  0.00000000  0.00000000  0.00000000  1
  Ni  Ni0  1  0.50000000  0.50000000  0.50000000  1
  Br  Br0  1  0.27571194  0.98319575  0.04117198  1
  Br  Br1  1  0.04117198  0.27571194  0.98319575  1
  Br  Br2  1  0.98319575  0.04117198  0.27571194  1
  Br  Br3  1  0.72428806  0.01680425  0.95882802  1
  Br  Br4  1  0.95882802  0.72428806  0.01680425  1
  Br  Br5  1  0.01680425  0.95882802  0.72428806  1
  Br  Br6  1  0.62731939  0.26168764  0.10613775  1
  Br  Br7  1  0.10613775  0.62731939  0.26168764  1
  Br  Br8  1  0.26168764  0.10613775  0.62731939  1
  Br  Br9  1  0.37268061  0.73831236  0.89386225  1
  Br  Br10  1  0.89386225  0.37268061  0.73831236  1
  Br  Br11  1  0.73831236  0.89386225  0.37268061  1
  Br  Br12  1  0.49162665  0.21553134  0.51799428  1
  Br  Br13  1  0.51799428  0.49162665  0.21553134  1
  Br  Br14  1  0.21553134  0.51799428  0.49162665  1
  Br  Br15  1  0.50837335  0.78446866  0.48200572  1
  Br  Br16  1  0.48200572  0.50837335  0.78446866  1
  Br  Br17  1  0.78446866  0.48200572  0.50837335  1
loop_
_geom_bond_atom_site_label_1
_geom_bond_atom_site_label_2
_geom_bond_distance
_geom_bond_site_symmetry_2
Br0 Mn0 2.456441 1_565
Br0 Br9 2.665160 1_554
Br1 Mn0 2.456441 1_556
Br1 Br10 2.665160 1_455
Br2 Mn0 2.456441 1_655
Br3 Mn0 2.456441 1_656
Br3 Br6 2.665160 1_556
Br4 Mn0 2.456441 1_665
Br4 Br7 2.665160 1_655
Br5 Mn0 2.456441 1_566
Br5 Br8 2.665160 1_565
Br10 Br17 2.460671 1_555
Br11 Br15 2.460671 1_555
Br11 Br2 2.665160 1_565
Br12 Br8 2.460671 1_555
Br12 Ni0 2.519828 1_555
Br13 Br6 2.460671 1_555
Br13 Ni0 2.519828 1_555
Br14 Br7 2.460671 1_555
Br14 Ni0 2.519828 1_555
Br15 Ni0 2.519828 1_555
Br16 Br9 2.460671 1_555
Br16 Ni0 2.519828 1_555
Br17 Ni0 2.519828 1_555
