# generated using pymatgen
data_TaCu(AgS2)2
_symmetry_space_group_name_H-M   'P 1'
_cell_length_a   5.58512123
_cell_length_b   6.02597622
_cell_length_c   6.02597622
_cell_angle_alpha   90.00000000
_cell_angle_beta   90.00000000
_cell_angle_gamma   90.00000000
_symmetry_Int_Tables_number   1
_chemical_formula_structural   TaCu(AgS2)2
_chemical_formula_sum   'Ta1 Cu1 Ag2 S4'
_cell_volume   202.80909679
_cell_formula_units_Z   1
loop_
 _symmetry_equiv_pos_site_id
 _symmetry_equiv_pos_as_xyz
  1  'x, y, z'
loop_
 _atom_site_type_symbol
 _atom_site_label
 _atom_site_symmetry_multiplicity
 _atom_site_fract_x
 _atom_site_fract_y
 _atom_site_fract_z
 _atom_site_occupancy
  Ta  Ta0  1  0.00000000  0.00000000  0.00000000  1
  Cu  Cu0  1  0.50000000  0.00000000  0.00000000  1
  Ag  Ag0  1  0.00000000  0.00000000  0.50000000  1
  Ag  Ag1  1  0.00000000  0.50000000  0.00000000  1
  S  S0  1  0.74854962  0.78306577  0.21693423  1
  S  S1  1  0.74854962  0.21693423  0.78306577  1
  S  S2  1  0.25145038  0.78306577  0.78306577  1
  S  S3  1  0.25145038  0.21693423  0.21693423  1
loop_
_geom_bond_atom_site_label_1
_geom_bond_atom_site_label_2
_geom_bond_distance
_geom_bond_site_symmetry_2
Cu0 S3 2.311882 1_555
Cu0 S0 2.311882 1_545
Cu0 S1 2.311882 1_554
Cu0 S2 2.311882 1_544
Ag0 S1 2.567243 1_455
Ag0 S2 2.567243 1_545
Ag0 S3 2.567243 1_555
Ag0 S0 2.567243 1_445
Ag1 S0 2.567243 1_455
Ag1 S2 2.567243 1_554
Ag1 S3 2.567243 1_555
Ag1 S1 2.567243 1_454
S0 Ta0 2.321646 1_665
S1 Ta0 2.321646 1_656
S2 Ta0 2.321646 1_566
S3 Ta0 2.321646 1_555
