# generated using pymatgen
data_Cs6ScSbSe3
_symmetry_space_group_name_H-M   'P 1'
_cell_length_a   11.24692600
_cell_length_b   11.24692646
_cell_length_c   9.18407030
_cell_angle_alpha   90.00000000
_cell_angle_beta   90.00000000
_cell_angle_gamma   119.99999865
_symmetry_Int_Tables_number   1
_chemical_formula_structural   Cs6ScSbSe3
_chemical_formula_sum   'Cs12 Sc2 Sb2 Se6'
_cell_volume   1006.08235092
_cell_formula_units_Z   2
loop_
 _symmetry_equiv_pos_site_id
 _symmetry_equiv_pos_as_xyz
  1  'x, y, z'
loop_
 _atom_site_type_symbol
 _atom_site_label
 _atom_site_symmetry_multiplicity
 _atom_site_fract_x
 _atom_site_fract_y
 _atom_site_fract_z
 _atom_site_occupancy
  Cs  Cs0  1  0.14160125  0.85839875  0.53591954  1
  Cs  Cs1  1  0.28320149  0.14160125  0.03591954  1
  Cs  Cs2  1  0.85839875  0.71679851  0.03591954  1
  Cs  Cs3  1  0.14160125  0.28320149  0.53591954  1
  Cs  Cs4  1  0.71679851  0.85839875  0.53591954  1
  Cs  Cs5  1  0.85839875  0.14160125  0.03591954  1
  Cs  Cs6  1  0.53027974  0.46972026  0.37086161  1
  Cs  Cs7  1  0.06056048  0.53027974  0.87086161  1
  Cs  Cs8  1  0.46972026  0.93943952  0.87086161  1
  Cs  Cs9  1  0.53027974  0.06056048  0.37086161  1
  Cs  Cs10  1  0.93943952  0.46972026  0.37086161  1
  Cs  Cs11  1  0.46972026  0.53027974  0.87086161  1
  Sc  Sc0  1  0.33333300  0.66666700  0.25012547  1
  Sc  Sc1  1  0.66666700  0.33333300  0.75012547  1
  Sb  Sb0  1  0.33333300  0.66666700  0.55598932  1
  Sb  Sb1  1  0.66666700  0.33333300  0.05598932  1
  Se  Se0  1  0.20409176  0.79590824  0.16108226  1
  Se  Se1  1  0.40818252  0.20409176  0.66108226  1
  Se  Se2  1  0.79590824  0.59181748  0.66108226  1
  Se  Se3  1  0.20409176  0.40818252  0.16108226  1
  Se  Se4  1  0.59181748  0.79590824  0.16108226  1
  Se  Se5  1  0.79590824  0.20409176  0.66108226  1
loop_
_geom_bond_atom_site_label_1
_geom_bond_atom_site_label_2
_geom_bond_distance
_geom_bond_site_symmetry_2
Cs0 Se0 3.651427 1_555
Cs0 Se2 3.710804 1_455
Cs0 Se1 3.710804 1_565
Cs0 Sb0 3.739527 1_555
Cs1 Se1 3.651427 1_554
Cs1 Se3 3.710790 1_555
Cs1 Se0 3.710811 1_545
Cs1 Sb1 3.739547 1_555
Cs2 Se2 3.651427 1_554
Cs2 Se4 3.710790 1_555
Cs2 Se0 3.710811 1_655
Cs2 Sb1 3.739547 1_555
Cs3 Se3 3.651427 1_555
Cs3 Se1 3.710790 1_555
Cs3 Se5 3.710811 1_455
Cs3 Sb0 3.739547 1_555
Cs4 Se4 3.651427 1_555
Cs4 Se2 3.710790 1_555
Cs4 Se5 3.710811 1_565
Cs4 Sb0 3.739547 1_555
Cs5 Se5 3.651427 1_554
Cs5 Se3 3.710804 1_655
Cs5 Se4 3.710804 1_545
Cs5 Sb1 3.739527 1_555
Cs6 Se2 3.716559 1_555
Cs6 Se1 3.716559 1_555
Cs6 Se3 3.887228 1_555
Cs6 Se4 3.887228 1_555
Cs6 Sb1 3.927016 1_555
Cs6 Sb0 4.196433 1_555
Cs7 Se3 3.716559 1_556
Cs7 Se0 3.716559 1_556
Cs7 Se5 3.887235 1_455
Cs7 Se2 3.887247 1_455
Cs7 Sb0 3.927003 1_555
Cs7 Sb1 4.196433 1_456
Cs8 Se4 3.716559 1_556
Cs8 Se0 3.716559 1_556
Cs8 Se5 3.887235 1_565
Cs8 Se1 3.887248 1_565
Cs8 Sb0 3.927003 1_555
Cs8 Sb1 4.196433 1_566
Cs9 Se1 3.716559 1_555
Cs9 Se5 3.716559 1_555
Cs9 Se0 3.887235 1_545
Cs9 Se4 3.887248 1_545
Cs9 Sb1 3.927003 1_555
Cs9 Sb0 4.196433 1_545
Cs10 Se2 3.716559 1_555
Cs10 Se5 3.716559 1_555
Cs10 Se0 3.887235 1_655
Cs10 Se3 3.887247 1_655
Cs10 Sb1 3.927003 1_555
Cs10 Sb0 4.196433 1_655
Cs11 Se3 3.716559 1_556
Cs11 Se4 3.716559 1_556
Cs11 Se2 3.887228 1_555
Cs11 Se1 3.887228 1_555
Cs11 Sb0 3.927016 1_555
Cs11 Sb1 4.196433 1_556
Sc0 Se0 2.647136 1_555
Sc0 Se4 2.647155 1_555
Sc0 Se3 2.647155 1_555
Sc1 Se5 2.647136 1_555
Sc1 Se1 2.647155 1_555
Sc1 Se2 2.647155 1_555
Sb0 Sc0 2.809075 1_555
Sb1 Sc1 2.809075 1_554
