# generated using pymatgen
data_ZrSc3Si6Ir7
_symmetry_space_group_name_H-M   'P 1'
_cell_length_a   6.97458164
_cell_length_b   6.97458055
_cell_length_c   6.97458177
_cell_angle_alpha   109.56681110
_cell_angle_beta   109.56679957
_cell_angle_gamma   109.56681166
_symmetry_Int_Tables_number   1
_chemical_formula_structural   ZrSc3Si6Ir7
_chemical_formula_sum   'Zr1 Sc3 Si6 Ir7'
_cell_volume   260.24715522
_cell_formula_units_Z   1
loop_
 _symmetry_equiv_pos_site_id
 _symmetry_equiv_pos_as_xyz
  1  'x, y, z'
loop_
 _atom_site_type_symbol
 _atom_site_label
 _atom_site_symmetry_multiplicity
 _atom_site_fract_x
 _atom_site_fract_y
 _atom_site_fract_z
 _atom_site_occupancy
  Zr  Zr0  1  0.50000000  0.50000000  0.50000000  1
  Sc  Sc0  1  0.00000000  0.00000000  0.50000000  1
  Sc  Sc1  1  0.00000000  0.50000000  0.00000000  1
  Sc  Sc2  1  0.50000000  0.00000000  0.00000000  1
  Si  Si0  1  0.68275970  0.68275970  0.00339878  1
  Si  Si1  1  0.31724030  0.99660122  0.31724030  1
  Si  Si2  1  0.99660122  0.31724030  0.31724030  1
  Si  Si3  1  0.31724030  0.31724030  0.99660122  1
  Si  Si4  1  0.68275970  0.00339878  0.68275970  1
  Si  Si5  1  0.00339878  0.68275970  0.68275970  1
  Ir  Ir0  1  0.74963489  0.25036511  0.50000000  1
  Ir  Ir1  1  0.74963489  0.50000000  0.25036511  1
  Ir  Ir2  1  0.50000000  0.25036511  0.74963489  1
  Ir  Ir3  1  0.25036511  0.50000000  0.74963489  1
  Ir  Ir4  1  0.25036511  0.74963489  0.50000000  1
  Ir  Ir5  1  0.50000000  0.74963489  0.25036511  1
  Ir  Ir6  1  0.00000000  0.00000000  0.00000000  1
loop_
_geom_bond_atom_site_label_1
_geom_bond_atom_site_label_2
_geom_bond_distance
_geom_bond_site_symmetry_2
Sc0 Si3 2.870937 1_555
Sc0 Si0 2.870937 1_445
Sc0 Si2 2.902591 1_455
Sc0 Si5 2.902591 1_545
Sc0 Si1 2.902591 1_545
Sc0 Si4 2.902591 1_455
Sc1 Si1 2.870936 1_555
Sc1 Si4 2.870936 1_454
Sc1 Si3 2.902591 1_554
Sc1 Si0 2.902591 1_455
Sc1 Si2 2.902591 1_455
Sc1 Si5 2.902591 1_554
Sc2 Si2 2.870937 1_555
Sc2 Si5 2.870937 1_544
Sc2 Si3 2.902591 1_554
Sc2 Si0 2.902591 1_545
Sc2 Si1 2.902591 1_545
Sc2 Si4 2.902591 1_554
Si0 Zr0 2.914286 1_554
Si1 Zr0 2.914285 1_565
Si2 Zr0 2.914286 1_655
Si3 Zr0 2.914286 1_556
Si4 Zr0 2.914285 1_545
Si5 Zr0 2.914286 1_455
Ir0 Si4 2.477911 1_555
Ir0 Si2 2.477911 1_555
Ir0 Si5 2.488183 1_655
Ir0 Si1 2.488183 1_545
Ir0 Sc2 2.838957 1_555
Ir0 Sc1 2.838957 1_656
Ir0 Zr0 2.844879 1_555
Ir0 Sc0 2.853200 1_655
Ir1 Si2 2.477911 1_555
Ir1 Si0 2.477911 1_555
Ir1 Si3 2.488183 1_554
Ir1 Si5 2.488183 1_655
Ir1 Sc0 2.838956 1_665
Ir1 Sc2 2.838956 1_555
Ir1 Zr0 2.844879 1_555
Ir1 Sc1 2.853200 1_655
Ir2 Si4 2.477911 1_555
Ir2 Si3 2.477911 1_555
Ir2 Si0 2.488183 1_556
Ir2 Si1 2.488183 1_545
Ir2 Sc0 2.838957 1_555
Ir2 Sc1 2.838957 1_656
Ir2 Zr0 2.844879 1_555
Ir2 Sc2 2.853200 1_556
Ir3 Si5 2.477911 1_555
Ir3 Si3 2.477911 1_555
Ir3 Si0 2.488183 1_556
Ir3 Si2 2.488183 1_455
Ir3 Sc0 2.838956 1_555
Ir3 Sc2 2.838956 1_566
Ir3 Zr0 2.844879 1_555
Ir3 Sc1 2.853200 1_556
Ir4 Si1 2.477911 1_555
Ir4 Si5 2.477911 1_555
Ir4 Si2 2.488183 1_455
Ir4 Si4 2.488183 1_565
Ir4 Sc2 2.838957 1_566
Ir4 Sc1 2.838957 1_555
Ir4 Zr0 2.844879 1_555
Ir4 Sc0 2.853200 1_565
Ir5 Si1 2.477911 1_555
Ir5 Si0 2.477911 1_555
Ir5 Si3 2.488183 1_554
Ir5 Si4 2.488183 1_565
Ir5 Sc0 2.838957 1_665
Ir5 Sc1 2.838957 1_555
Ir5 Zr0 2.844879 1_555
Ir5 Sc2 2.853200 1_565
Ir6 Si3 2.565736 1_554
Ir6 Si0 2.565736 1_445
Ir6 Si2 2.565736 1_455
Ir6 Si5 2.565736 1_544
Ir6 Si1 2.565737 1_545
Ir6 Si4 2.565737 1_454
