# generated using pymatgen
data_Ti16Pd5Pt3O4
_symmetry_space_group_name_H-M   'P 1'
_cell_length_a   8.27976008
_cell_length_b   8.25656229
_cell_length_c   8.26661315
_cell_angle_alpha   59.95972325
_cell_angle_beta   60.05251141
_cell_angle_gamma   59.97368622
_symmetry_Int_Tables_number   1
_chemical_formula_structural   Ti16Pd5Pt3O4
_chemical_formula_sum   'Ti16 Pd5 Pt3 O4'
_cell_volume   399.56068979
_cell_formula_units_Z   1
loop_
 _symmetry_equiv_pos_site_id
 _symmetry_equiv_pos_as_xyz
  1  'x, y, z'
loop_
 _atom_site_type_symbol
 _atom_site_label
 _atom_site_symmetry_multiplicity
 _atom_site_fract_x
 _atom_site_fract_y
 _atom_site_fract_z
 _atom_site_occupancy
  Ti  Ti0  1  0.82114058  0.18131346  0.82110662  1
  Ti  Ti1  1  0.18351543  0.81880388  0.17925311  1
  Ti  Ti2  1  0.43081682  0.07221077  0.43010905  1
  Ti  Ti3  1  0.43081682  0.07221077  0.06686336  1
  Ti  Ti4  1  0.06962966  0.42932420  0.42993569  1
  Ti  Ti5  1  0.06962966  0.42932420  0.07111045  1
  Ti  Ti6  1  0.17887557  0.17765819  0.82173362  1
  Ti  Ti7  1  0.42844204  0.42848745  0.07153525  1
  Ti  Ti8  1  0.12423901  0.62188649  0.62693675  1
  Ti  Ti9  1  0.62454625  0.62098465  0.12831993  1
  Ti  Ti10  1  0.62454625  0.62098465  0.62615016  1
  Ti  Ti11  1  0.62555567  0.11878276  0.62783078  1
  Ti  Ti12  1  0.18351543  0.81880388  0.81842658  1
  Ti  Ti13  1  0.82114058  0.18131346  0.17644034  1
  Ti  Ti14  1  0.06456226  0.07015247  0.43264264  1
  Ti  Ti15  1  0.81687169  0.81835983  0.18238374  1
  Pd  Pd0  1  0.48770381  0.83528011  0.83850804  1
  Pd  Pd1  1  0.41284148  0.40926406  0.41483292  1
  Pd  Pd2  1  0.41284148  0.40926406  0.76306253  1
  Pd  Pd3  1  0.83641071  0.48903271  0.83727779  1
  Pd  Pd4  1  0.76224712  0.40852931  0.41461229  1
  Pt  Pt0  1  0.40463459  0.78293910  0.40621315  1
  Pt  Pt1  1  0.84223080  0.84118543  0.47100460  1
  Pt  Pt2  1  0.84223080  0.84118543  0.84557917  1
  O  O0  1  0.12501681  0.12595880  0.62490632  1
  O  O1  1  0.62471193  0.12680936  0.12424035  1
  O  O2  1  0.12501681  0.12595880  0.12411808  1
  O  O3  1  0.12627294  0.62399270  0.12486668  1
loop_
_geom_bond_atom_site_label_1
_geom_bond_atom_site_label_2
_geom_bond_distance
_geom_bond_site_symmetry_2
Pd0 Ti11 2.534282 1_565
Pd0 Ti10 2.571715 1_555
Pd0 Ti9 2.571721 1_556
Pd0 Ti1 2.678127 1_556
Pd0 Ti12 2.678132 1_555
Pd0 Ti6 2.697443 1_565
Pd1 Ti9 2.552305 1_555
Pd1 Ti8 2.562547 1_555
Pd1 Ti11 2.568083 1_555
Pd1 Ti2 2.652364 1_555
Pd1 Ti7 2.701695 1_555
Pd1 Ti4 2.704401 1_555
Pd2 Ti10 2.552305 1_555
Pd2 Ti8 2.562557 1_555
Pd2 Ti11 2.568087 1_555
Pd2 Ti3 2.652360 1_556
Pd2 Ti7 2.701687 1_556
Pd2 Ti5 2.704398 1_556
Pd3 Ti8 2.544674 1_655
Pd3 Ti10 2.559401 1_555
Pd3 Ti9 2.559414 1_556
Pd3 Ti0 2.677208 1_555
Pd3 Ti13 2.677217 1_556
Pd3 Ti6 2.708788 1_655
Pd4 Ti9 2.552251 1_555
Pd4 Ti10 2.552251 1_555
Pd4 Ti11 2.570410 1_555
Pd4 Ti14 2.655178 1_655
Pd4 Ti4 2.702553 1_655
Pd4 Ti5 2.702558 1_655
Pt0 Ti14 2.611811 1_565
Pt0 Ti2 2.612225 1_565
Pt0 Ti3 2.612225 1_565
Pt0 Ti9 2.615988 1_555
Pt0 Ti10 2.615995 1_555
Pt0 Ti8 2.630276 1_555
Pt1 Ti11 2.586545 1_565
Pt1 Ti15 2.600418 1_555
Pt1 Ti8 2.613267 1_655
Pt1 Ti10 2.614557 1_555
Pt1 Ti13 2.633164 1_565
Pt1 Ti1 2.637254 1_655
Pt2 Ti11 2.586545 1_565
Pt2 Ti15 2.600410 1_556
Pt2 Ti8 2.613272 1_655
Pt2 Ti9 2.614558 1_556
Pt2 Ti0 2.633168 1_565
Pt2 Ti12 2.637250 1_655
O0 Ti4 2.151342 1_555
O0 Ti6 2.153794 1_555
O0 Ti0 2.164927 1_455
O0 Ti12 2.169711 1_545
O0 Ti2 2.172795 1_555
O0 Ti14 2.178828 1_555
O1 Ti7 2.145752 1_555
O1 Ti13 2.159038 1_555
O1 Ti0 2.159044 1_554
O1 Ti2 2.168891 1_555
O1 Ti3 2.168903 1_555
O1 Ti15 2.175096 1_545
O2 Ti5 2.151342 1_555
O2 Ti6 2.153786 1_554
O2 Ti13 2.164925 1_455
O2 Ti1 2.169713 1_545
O2 Ti3 2.172795 1_555
O2 Ti14 2.178828 1_555
O3 Ti7 2.151501 1_555
O3 Ti5 2.162968 1_555
O3 Ti4 2.162973 1_555
O3 Ti1 2.171100 1_555
O3 Ti12 2.171100 1_554
O3 Ti15 2.190336 1_455
