# generated using pymatgen
data_Hf7Ti3(BeSn3)2
_symmetry_space_group_name_H-M   'P 1'
_cell_length_a   8.39992866
_cell_length_b   8.39992917
_cell_length_c   5.63600789
_cell_angle_alpha   90.00000000
_cell_angle_beta   90.00000000
_cell_angle_gamma   119.99999415
_symmetry_Int_Tables_number   1
_chemical_formula_structural   Hf7Ti3(BeSn3)2
_chemical_formula_sum   'Hf7 Ti3 Be2 Sn6'
_cell_volume   344.39233043
_cell_formula_units_Z   1
loop_
 _symmetry_equiv_pos_site_id
 _symmetry_equiv_pos_as_xyz
  1  'x, y, z'
loop_
 _atom_site_type_symbol
 _atom_site_label
 _atom_site_symmetry_multiplicity
 _atom_site_fract_x
 _atom_site_fract_y
 _atom_site_fract_z
 _atom_site_occupancy
  Hf  Hf0  1  0.33333300  0.66666700  0.50000000  1
  Hf  Hf1  1  0.24762415  0.99844061  0.25192680  1
  Hf  Hf2  1  0.24762415  0.24918354  0.74807320  1
  Hf  Hf3  1  0.00155939  0.75237585  0.74807320  1
  Hf  Hf4  1  0.00155939  0.24918354  0.25192680  1
  Hf  Hf5  1  0.75081646  0.75237585  0.25192680  1
  Hf  Hf6  1  0.75081646  0.99844061  0.74807320  1
  Ti  Ti0  1  0.33333300  0.66666700  0.00000000  1
  Ti  Ti1  1  0.66666700  0.33333300  0.50000000  1
  Ti  Ti2  1  0.66666700  0.33333300  0.00000000  1
  Be  Be0  1  0.00000000  0.00000000  0.00000000  1
  Be  Be1  1  0.00000000  0.00000000  0.50000000  1
  Sn  Sn0  1  0.60698559  0.00441150  0.24605177  1
  Sn  Sn1  1  0.60698559  0.60257409  0.75394823  1
  Sn  Sn2  1  0.99558850  0.39301441  0.75394823  1
  Sn  Sn3  1  0.99558850  0.60257409  0.24605177  1
  Sn  Sn4  1  0.39742591  0.39301441  0.24605177  1
  Sn  Sn5  1  0.39742591  0.00441150  0.75394823  1
loop_
_geom_bond_atom_site_label_1
_geom_bond_atom_site_label_2
_geom_bond_distance
_geom_bond_site_symmetry_2
Hf0 Ti0 2.818004 1_555
Hf0 Ti0 2.818004 1_556
Hf0 Sn3 2.976523 1_455
Hf0 Sn5 2.976523 1_565
Hf0 Sn2 2.976525 1_455
Hf0 Sn0 2.976525 1_565
Hf0 Sn1 2.976530 1_555
Hf0 Sn4 2.976530 1_555
Hf1 Sn4 2.898119 1_565
Hf1 Sn3 2.915578 1_455
Hf1 Sn0 2.994031 1_565
Hf1 Sn5 3.065917 1_564
Hf1 Sn5 3.086790 1_565
Hf2 Sn5 2.898118 1_555
Hf2 Sn2 2.915578 1_455
Hf2 Sn1 2.994031 1_555
Hf2 Sn4 3.065917 1_556
Hf2 Sn4 3.086790 1_555
Hf3 Sn1 2.898118 1_455
Hf3 Sn5 2.915578 1_565
Hf3 Sn2 2.994031 1_455
Hf3 Sn3 3.065917 1_456
Hf3 Sn3 3.086790 1_455
Hf4 Sn0 2.898118 1_455
Hf4 Sn4 2.915578 1_555
Hf4 Sn3 2.994031 1_455
Hf4 Sn2 3.065917 1_454
Hf4 Sn2 3.086790 1_455
Hf5 Sn3 2.898118 1_555
Hf5 Sn0 2.915578 1_565
Hf5 Sn4 2.994031 1_555
Hf5 Sn1 3.065917 1_554
Hf5 Sn1 3.086790 1_555
Hf6 Sn2 2.898119 1_565
Hf6 Sn1 2.915578 1_555
Hf6 Sn5 2.994031 1_565
Hf6 Sn0 3.065917 1_566
Hf6 Sn0 3.086790 1_565
Be0 Hf1 2.523872 1_545
Be0 Hf6 2.523872 1_444
Be0 Hf3 2.523872 1_544
Be0 Hf4 2.523872 1_555
Be0 Hf5 2.523872 1_445
Be0 Hf2 2.523872 1_554
Be1 Hf1 2.511717 1_545
Be1 Hf6 2.511717 1_445
Be1 Hf3 2.511718 1_545
Be1 Hf4 2.511718 1_555
Be1 Hf5 2.511718 1_445
Be1 Hf2 2.511718 1_555
Sn0 Ti2 2.902241 1_555
Sn0 Ti1 2.923768 1_555
Sn0 Ti0 2.955383 1_545
Sn1 Ti2 2.902248 1_556
Sn1 Ti1 2.923775 1_555
Sn1 Ti0 2.955388 1_556
Sn2 Ti2 2.902241 1_556
Sn2 Ti1 2.923768 1_555
Sn2 Ti0 2.955383 1_656
Sn3 Ti2 2.902244 1_555
Sn3 Ti1 2.923770 1_555
Sn3 Ti0 2.955380 1_655
Sn4 Ti2 2.902248 1_555
Sn4 Ti1 2.923775 1_555
Sn4 Ti0 2.955388 1_555
Sn5 Ti2 2.902244 1_556
Sn5 Ti1 2.923770 1_555
Sn5 Ti0 2.955380 1_546
