# generated using pymatgen
data_Ca2B5Os2Ru
_symmetry_space_group_name_H-M   'P 1'
_cell_length_a   5.61296903
_cell_length_b   5.61296928
_cell_length_c   7.99015549
_cell_angle_alpha   58.24505477
_cell_angle_beta   58.24505318
_cell_angle_gamma   42.40867194
_symmetry_Int_Tables_number   1
_chemical_formula_structural   Ca2B5Os2Ru
_chemical_formula_sum   'Ca2 B5 Os2 Ru1'
_cell_volume   140.13504751
_cell_formula_units_Z   1
loop_
 _symmetry_equiv_pos_site_id
 _symmetry_equiv_pos_as_xyz
  1  'x, y, z'
loop_
 _atom_site_type_symbol
 _atom_site_label
 _atom_site_symmetry_multiplicity
 _atom_site_fract_x
 _atom_site_fract_y
 _atom_site_fract_z
 _atom_site_occupancy
  Ca  Ca0  1  0.39537954  0.92332494  0.73921190  1
  Ca  Ca1  1  0.07667506  0.60462046  0.26078810  1
  B  B0  1  0.73605615  0.26394385  1.00000000  1
  B  B1  1  0.53570038  0.52650645  0.37941584  1
  B  B2  1  0.47349355  0.46429962  0.62058416  1
  B  B3  1  0.08049276  0.62893087  0.81224068  1
  B  B4  1  0.37106913  0.91950724  0.18775932  1
  Os  Os0  1  0.61011061  0.12249246  0.90267148  1
  Os  Os1  1  0.87750754  0.38988939  0.09732852  1
  Ru  Ru0  1  0.00978727  0.99021273  0.50000000  1
loop_
_geom_bond_atom_site_label_1
_geom_bond_atom_site_label_2
_geom_bond_distance
_geom_bond_site_symmetry_2
Ca0 Ru0 3.147370 1_655
Ca0 Ru0 3.298096 1_555
Ca1 Ru0 3.147370 1_545
Ca1 Ru0 3.298096 1_555
B0 Os1 1.947382 1_556
B0 Os0 1.947382 1_555
B0 Ca0 2.705743 1_645
B0 Ca1 2.705743 1_646
B0 Ca1 2.705918 1_556
B0 Ca0 2.705919 1_555
B1 B2 1.649448 1_555
B1 B4 1.728787 1_555
B1 Os1 2.108109 1_555
B1 Ru0 2.171794 1_555
B1 Ru0 2.210844 1_645
B1 Ca1 2.862499 1_555
B1 Ca1 2.968158 1_655
B2 B3 1.728787 1_555
B2 Os0 2.108109 1_555
B2 Ru0 2.171794 1_555
B2 Ru0 2.210844 1_645
B2 Ca0 2.862500 1_555
B2 Ca0 2.968158 1_545
B3 Os0 2.113181 1_465
B3 Os1 2.143791 1_456
B3 Ru0 2.241105 1_555
B3 Os0 2.249439 1_555
B3 Ca0 2.899527 1_555
B3 Ca0 3.134064 1_455
B3 Ca0 3.187509 1_545
B4 Os1 2.113181 1_465
B4 Os0 2.143791 1_564
B4 Ru0 2.241105 1_555
B4 Os1 2.249439 1_555
B4 Ca1 2.899527 1_555
B4 Ca1 3.134064 1_565
B4 Ca1 3.187509 1_655
