# generated using pymatgen
data_Ta2TiNb7Si6
_symmetry_space_group_name_H-M   'P 1'
_cell_length_a   7.54595464
_cell_length_b   7.54713989
_cell_length_c   7.54527384
_cell_angle_alpha   128.48467278
_cell_angle_beta   128.48258228
_cell_angle_gamma   75.83274603
_symmetry_Int_Tables_number   1
_chemical_formula_structural   Ta2TiNb7Si6
_chemical_formula_sum   'Ta2 Ti1 Nb7 Si6'
_cell_volume   256.08584555
_cell_formula_units_Z   1
loop_
 _symmetry_equiv_pos_site_id
 _symmetry_equiv_pos_as_xyz
  1  'x, y, z'
loop_
 _atom_site_type_symbol
 _atom_site_label
 _atom_site_symmetry_multiplicity
 _atom_site_fract_x
 _atom_site_fract_y
 _atom_site_fract_z
 _atom_site_occupancy
  Ta  Ta0  1  0.81481623  0.31583148  0.83298882  1
  Ta  Ta1  1  0.50044773  0.50022277  0.00019606  1
  Ti  Ti0  1  0.00017022  0.00019674  0.00019787  1
  Nb  Nb0  1  0.01869671  0.18537390  0.50097032  1
  Nb  Nb1  1  0.68476858  0.51803921  0.49982278  1
  Nb  Nb2  1  0.51832269  0.01889462  0.83392327  1
  Nb  Nb3  1  0.18526009  0.68460927  0.16582976  1
  Nb  Nb4  1  0.98092125  0.81454639  0.49914323  1
  Nb  Nb5  1  0.31493206  0.48132438  0.49996805  1
  Nb  Nb6  1  0.48192334  0.98137309  0.16693267  1
  Si  Si0  1  0.75043611  0.74961569  0.00002141  1
  Si  Si1  1  0.24877242  0.24968502  0.99984279  1
  Si  Si2  1  0.36834525  0.12665296  0.49485982  1
  Si  Si3  1  0.63258725  0.87419744  0.50656437  1
  Si  Si4  1  0.87318923  0.36745848  0.24058852  1
  Si  Si5  1  0.12640782  0.63197857  0.75815123  1
loop_
_geom_bond_atom_site_label_1
_geom_bond_atom_site_label_2
_geom_bond_distance
_geom_bond_site_symmetry_2
Nb0 Si2 2.591031 1_555
Nb0 Si4 2.625046 1_455
Nb0 Si5 2.650397 1_555
Nb0 Si1 2.724669 1_555
Nb0 Si0 2.732244 1_445
Nb1 Si3 2.592200 1_555
Nb1 Si5 2.622446 1_655
Nb1 Si4 2.653784 1_555
Nb1 Si0 2.725974 1_556
Nb1 Si1 2.731891 1_554
Nb2 Si4 2.584959 1_556
Nb2 Si3 2.620962 1_545
Nb2 Si2 2.650068 1_555
Nb2 Si1 2.731168 1_555
Nb2 Si0 2.732084 1_546
Nb3 Si5 2.585064 1_554
Nb3 Si2 2.623206 1_565
Nb3 Si3 2.652620 1_555
Nb3 Si1 2.726355 1_554
Nb3 Si0 2.727451 1_455
Nb4 Si3 2.586008 1_555
Nb4 Si5 2.619880 1_655
Nb4 Si4 2.651093 1_555
Nb4 Si0 2.723307 1_555
Nb4 Si1 2.728930 1_665
Nb5 Si2 2.586845 1_555
Nb5 Si4 2.621058 1_455
Nb5 Si5 2.648019 1_555
Nb5 Si1 2.723468 1_554
Nb5 Si0 2.729949 1_556
Nb6 Si5 2.589539 1_554
Nb6 Si2 2.619459 1_565
Nb6 Si3 2.649071 1_555
Nb6 Si0 2.729507 1_555
Nb6 Si1 2.730997 1_564
Si0 Ta0 2.718549 1_554
Si0 Ta1 2.974125 1_555
Si0 Ti0 2.977597 1_665
Si1 Ta0 2.721856 1_455
Si1 Ti0 2.967517 1_556
Si1 Ta1 2.987845 1_556
Si2 Si3 2.396763 1_545
Si2 Ti0 2.553273 1_555
Si2 Ta1 2.597423 1_556
Si2 Ta0 2.649828 1_555
Si3 Ti0 2.548713 1_666
Si3 Ta1 2.602476 1_555
Si3 Ta0 2.622525 1_565
Si4 Si5 2.400877 1_655
Si4 Ti0 2.548817 1_655
Si4 Ta0 2.590533 1_554
Si4 Ta1 2.595810 1_555
Si5 Ti0 2.553073 1_566
Si5 Ta1 2.600323 1_556
