# generated using pymatgen
data_Rb8Ti6BBr20
_symmetry_space_group_name_H-M   'P 1'
_cell_length_a   11.71740287
_cell_length_b   11.71740221
_cell_length_c   11.71740141
_cell_angle_alpha   59.99999957
_cell_angle_beta   60.00000145
_cell_angle_gamma   59.99999600
_symmetry_Int_Tables_number   1
_chemical_formula_structural   Rb8Ti6BBr20
_chemical_formula_sum   'Rb8 Ti6 B1 Br20'
_cell_volume   1137.57227895
_cell_formula_units_Z   1
loop_
 _symmetry_equiv_pos_site_id
 _symmetry_equiv_pos_as_xyz
  1  'x, y, z'
loop_
 _atom_site_type_symbol
 _atom_site_label
 _atom_site_symmetry_multiplicity
 _atom_site_fract_x
 _atom_site_fract_y
 _atom_site_fract_z
 _atom_site_occupancy
  Rb  Rb0  1  0.36132245  0.36132245  0.36132245  1
  Rb  Rb1  1  0.63867755  0.63867755  0.63867755  1
  Rb  Rb2  1  0.36132245  0.36132245  0.91603364  1
  Rb  Rb3  1  0.36132245  0.91603364  0.36132245  1
  Rb  Rb4  1  0.63867755  0.63867755  0.08396636  1
  Rb  Rb5  1  0.63867755  0.08396636  0.63867755  1
  Rb  Rb6  1  0.91603364  0.36132245  0.36132245  1
  Rb  Rb7  1  0.08396636  0.63867755  0.63867755  1
  Ti  Ti0  1  0.86816300  0.13183700  0.13183700  1
  Ti  Ti1  1  0.13183700  0.86816300  0.86816300  1
  Ti  Ti2  1  0.13183700  0.86816300  0.13183700  1
  Ti  Ti3  1  0.86816300  0.13183700  0.86816300  1
  Ti  Ti4  1  0.13183700  0.13183700  0.86816300  1
  Ti  Ti5  1  0.86816300  0.86816300  0.13183700  1
  B  B0  1  0.00000000  0.00000000  0.00000000  1
  Br  Br0  1  0.30976917  0.00000000  1.00000000  1
  Br  Br1  1  0.69023083  1.00000000  0.00000000  1
  Br  Br2  1  0.00000000  0.30976917  0.69023083  1
  Br  Br3  1  1.00000000  0.69023083  0.30976917  1
  Br  Br4  1  0.00000000  0.30976917  1.00000000  1
  Br  Br5  1  0.69023083  1.00000000  0.30976917  1
  Br  Br6  1  1.00000000  0.69023083  0.00000000  1
  Br  Br7  1  0.30976917  0.00000000  0.69023083  1
  Br  Br8  1  0.00000000  0.00000000  0.30976917  1
  Br  Br9  1  1.00000000  1.00000000  0.69023083  1
  Br  Br10  1  0.69023083  0.30976917  0.00000000  1
  Br  Br11  1  0.30976917  0.69023083  1.00000000  1
  Br  Br12  1  0.69547543  0.30452457  0.30452457  1
  Br  Br13  1  0.30452457  0.69547543  0.69547543  1
  Br  Br14  1  0.30452457  0.69547543  0.30452457  1
  Br  Br15  1  0.69547543  0.30452457  0.69547543  1
  Br  Br16  1  0.30452457  0.30452457  0.69547543  1
  Br  Br17  1  0.69547543  0.69547543  0.30452457  1
  Br  Br18  1  0.25000000  0.25000000  0.25000000  1
  Br  Br19  1  0.75000000  0.75000000  0.75000000  1
loop_
_geom_bond_atom_site_label_1
_geom_bond_atom_site_label_2
_geom_bond_distance
_geom_bond_site_symmetry_2
B0 Ti2 2.184659 1_545
B0 Ti0 2.184659 1_455
B0 Ti3 2.184659 1_454
B0 Ti1 2.184659 1_544
B0 Ti4 2.184659 1_554
B0 Ti5 2.184659 1_445
Br0 Ti4 2.594838 1_555
Br0 Ti2 2.594839 1_546
Br1 Ti5 2.594838 1_555
Br1 Ti3 2.594839 1_564
Br2 Ti4 2.594838 1_555
Br2 Ti3 2.594839 1_455
Br3 Ti5 2.594838 1_555
Br3 Ti2 2.594839 1_655
Br4 Ti4 2.594838 1_555
Br4 Ti0 2.594839 1_456
Br5 Ti5 2.594838 1_555
Br5 Ti0 2.594839 1_565
Br6 Ti5 2.594838 1_555
Br6 Ti1 2.594839 1_654
Br7 Ti4 2.594838 1_555
Br7 Ti1 2.594839 1_545
Br8 Ti0 2.594838 1_455
Br8 Ti2 2.594838 1_545
Br9 Ti1 2.594838 1_655
Br9 Ti3 2.594838 1_565
Br10 Ti3 2.594838 1_554
Br10 Ti0 2.594838 1_555
Br11 Ti2 2.594838 1_556
Br11 Ti1 2.594838 1_555
Br12 Ti0 2.861590 1_555
Br12 Rb0 3.383426 1_555
Br12 Rb5 3.383429 1_555
Br12 Rb4 3.383429 1_555
Br12 Rb6 3.383437 1_555
Br13 Ti1 2.861590 1_555
Br13 Rb1 3.383426 1_555
Br13 Rb3 3.383429 1_555
Br13 Rb2 3.383429 1_555
Br13 Rb7 3.383437 1_555
Br14 Ti2 2.861590 1_555
Br14 Rb0 3.383426 1_555
Br14 Rb7 3.383429 1_555
Br14 Rb4 3.383429 1_555
Br14 Rb3 3.383437 1_555
Br15 Ti3 2.861590 1_555
Br15 Rb1 3.383426 1_555
Br15 Rb6 3.383429 1_555
Br15 Rb2 3.383429 1_555
Br15 Rb5 3.383437 1_555
Br16 Ti4 2.861590 1_555
Br16 Rb0 3.383426 1_555
Br16 Rb7 3.383429 1_555
Br16 Rb5 3.383429 1_555
Br16 Rb2 3.383437 1_555
Br17 Ti5 2.861590 1_555
Br17 Rb1 3.383426 1_555
Br17 Rb6 3.383429 1_555
Br17 Rb3 3.383429 1_555
Br17 Rb4 3.383437 1_555
Br18 Rb2 3.195129 1_554
Br18 Rb3 3.195129 1_545
Br18 Rb6 3.195129 1_455
Br18 Rb0 3.195139 1_555
Br19 Rb4 3.195129 1_556
Br19 Rb5 3.195129 1_565
Br19 Rb7 3.195129 1_655
Br19 Rb1 3.195139 1_555
