# generated using pymatgen
data_K4Ba2TiAs4
_symmetry_space_group_name_H-M   'P 1'
_cell_length_a   10.41253259
_cell_length_b   10.41253291
_cell_length_c   8.09091331
_cell_angle_alpha   89.12877947
_cell_angle_beta   89.12877538
_cell_angle_gamma   119.89766156
_symmetry_Int_Tables_number   1
_chemical_formula_structural   K4Ba2TiAs4
_chemical_formula_sum   'K8 Ba4 Ti2 As8'
_cell_volume   760.12950128
_cell_formula_units_Z   2
loop_
 _symmetry_equiv_pos_site_id
 _symmetry_equiv_pos_as_xyz
  1  'x, y, z'
loop_
 _atom_site_type_symbol
 _atom_site_label
 _atom_site_symmetry_multiplicity
 _atom_site_fract_x
 _atom_site_fract_y
 _atom_site_fract_z
 _atom_site_occupancy
  K  K0  1  0.05471094  0.52623975  0.61894697  1
  K  K1  1  0.52623975  0.05471094  0.11894697  1
  K  K2  1  0.27520583  0.13396627  0.81720493  1
  K  K3  1  0.87107155  0.72739594  0.77472359  1
  K  K4  1  0.86210846  0.14609328  0.79722897  1
  K  K5  1  0.72739594  0.87107155  0.27472359  1
  K  K6  1  0.13396627  0.27520583  0.31720493  1
  K  K7  1  0.14609328  0.86210846  0.29722897  1
  Ba  Ba0  1  0.46763485  0.94072237  0.61340677  1
  Ba  Ba1  1  0.46611753  0.52432957  0.61964272  1
  Ba  Ba2  1  0.94072237  0.46763485  0.11340677  1
  Ba  Ba3  1  0.52432957  0.46611753  0.11964272  1
  Ti  Ti0  1  0.66848131  0.33611028  0.51124021  1
  Ti  Ti1  1  0.33611028  0.66848131  0.01124021  1
  As  As0  1  0.66698033  0.34459961  0.82162894  1
  As  As1  1  0.34459961  0.66698033  0.32162894  1
  As  As2  1  0.59512003  0.79244828  0.89299044  1
  As  As3  1  0.20390778  0.40167358  0.92332597  1
  As  As4  1  0.20149939  0.79350108  0.91065150  1
  As  As5  1  0.40167358  0.20390778  0.42332597  1
  As  As6  1  0.79244828  0.59512003  0.39299044  1
  As  As7  1  0.79350108  0.20149939  0.41065150  1
loop_
_geom_bond_atom_site_label_1
_geom_bond_atom_site_label_2
_geom_bond_distance
_geom_bond_site_symmetry_2
As0 Ti0 2.514311 1_555
As0 Ba3 3.388019 1_556
As0 Ba2 3.463403 1_556
As0 K3 3.468806 1_555
As0 K1 3.508244 1_556
As0 K2 3.541227 1_555
As0 K4 3.553336 1_555
As1 Ti1 2.514312 1_555
As1 Ba1 3.388019 1_555
As1 Ba0 3.463403 1_555
As1 K5 3.468805 1_555
As1 K0 3.508243 1_555
As1 K6 3.541227 1_555
As1 K7 3.553336 1_555
As2 Ti1 2.503715 1_556
As2 Ba1 3.321053 1_555
As2 K5 3.344949 1_556
As2 Ba0 3.360211 1_555
As2 K3 3.392194 1_555
As2 K4 3.395719 1_565
As2 Ba3 3.567167 1_556
As2 K1 3.657669 1_566
As3 Ti1 2.529108 1_556
As3 K2 3.342905 1_555
As3 K6 3.356512 1_556
As3 Ba1 3.368543 1_555
As3 K4 3.397131 1_455
As3 Ba3 3.473687 1_556
As3 Ba2 3.482414 1_456
As3 K0 3.491221 1_555
As4 Ti1 2.478509 1_556
As4 K2 3.304076 1_565
As4 K7 3.324156 1_556
As4 Ba0 3.356106 1_555
As4 K3 3.361273 1_455
As4 K0 3.423444 1_555
As4 Ba2 3.476739 1_456
As4 K1 3.579921 1_566
As5 Ti0 2.529107 1_555
As5 K6 3.342905 1_555
As5 K2 3.356512 1_555
As5 Ba3 3.368543 1_555
As5 K7 3.397131 1_545
As5 Ba1 3.473687 1_555
As5 Ba0 3.482414 1_545
As5 K1 3.491221 1_555
As6 Ti0 2.503715 1_555
As6 Ba3 3.321053 1_555
As6 K3 3.344949 1_555
As6 Ba2 3.360211 1_555
As6 K5 3.392194 1_555
As6 K7 3.395719 1_655
As6 Ba1 3.567166 1_555
As6 K0 3.657669 1_655
As7 Ti0 2.478509 1_555
As7 K6 3.304076 1_655
As7 K4 3.324157 1_555
As7 Ba2 3.356106 1_555
As7 K5 3.361273 1_545
As7 K1 3.423444 1_555
As7 Ba0 3.476739 1_545
As7 K0 3.579921 1_655
