# generated using pymatgen
data_VCrSb2F20
_symmetry_space_group_name_H-M   'P 1'
_cell_length_a   5.42150733
_cell_length_b   7.21983042
_cell_length_c   9.56573218
_cell_angle_alpha   88.90129809
_cell_angle_beta   104.92854470
_cell_angle_gamma   97.33256865
_symmetry_Int_Tables_number   1
_chemical_formula_structural   VCrSb2F20
_chemical_formula_sum   'V1 Cr1 Sb2 F20'
_cell_volume   358.79233862
_cell_formula_units_Z   1
loop_
 _symmetry_equiv_pos_site_id
 _symmetry_equiv_pos_as_xyz
  1  'x, y, z'
loop_
 _atom_site_type_symbol
 _atom_site_label
 _atom_site_symmetry_multiplicity
 _atom_site_fract_x
 _atom_site_fract_y
 _atom_site_fract_z
 _atom_site_occupancy
  V  V0  1  0.35273124  0.39252351  0.22490878  1
  Cr  Cr0  1  0.64329508  0.60075283  0.77307394  1
  Sb  Sb0  1  0.95784622  0.76849329  0.30815991  1
  Sb  Sb1  1  0.04315453  0.23311455  0.69175693  1
  F  F0  1  0.03970763  0.29672088  0.17195465  1
  F  F1  1  0.95443160  0.70036030  0.82746579  1
  F  F2  1  0.48856981  0.23465826  0.15033712  1
  F  F3  1  0.52024070  0.76585647  0.84862701  1
  F  F4  1  0.09788575  0.25978852  0.89246202  1
  F  F5  1  0.89534464  0.73272768  0.10811667  1
  F  F6  1  0.97859758  0.25329226  0.49094189  1
  F  F7  1  0.02754328  0.75528965  0.50952453  1
  F  F8  1  0.79994297  0.02323197  0.67997182  1
  F  F9  1  0.20642552  0.97354693  0.31265245  1
  F  F10  1  0.32678580  0.10471070  0.71014040  1
  F  F11  1  0.68317212  0.90584584  0.29048243  1
  F  F12  1  0.27324843  0.47060452  0.70245953  1
  F  F13  1  0.71816640  0.53693519  0.30410241  1
  F  F14  1  0.77163793  0.39609241  0.67576724  1
  F  F15  1  0.22214717  0.59900420  0.32560567  1
  F  F16  1  0.65183116  0.43688634  0.90368151  1
  F  F17  1  0.34692795  0.56445586  0.09608462  1
  F  F18  1  0.56989230  0.67350303  0.60024440  1
  F  F19  1  0.43047619  0.32160581  0.40148028  1
loop_
_geom_bond_atom_site_label_1
_geom_bond_atom_site_label_2
_geom_bond_distance
_geom_bond_site_symmetry_2
Cr0 F18 1.687760 1_555
Cr0 F3 1.694923 1_555
Cr0 F1 1.698760 1_555
Cr0 F16 1.700069 1_555
Cr0 F14 2.045186 1_555
Cr0 F12 2.051591 1_555
F0 V0 1.698800 1_555
F2 V0 1.693032 1_555
F4 Sb1 1.875418 1_555
F5 Sb0 1.872363 1_555
F6 Sb1 1.868054 1_655
F7 Sb0 1.867957 1_455
F8 Sb1 1.862116 1_655
F9 Sb0 1.863634 1_455
F10 Sb1 1.863654 1_555
F11 Sb0 1.862880 1_555
F12 Sb1 1.975237 1_555
F13 Sb0 1.976600 1_555
F13 V0 2.077467 1_555
F14 Sb1 1.973334 1_655
F15 Sb0 1.973580 1_455
F15 V0 2.080195 1_555
F17 V0 1.729670 1_555
F19 V0 1.716910 1_555
