# generated using pymatgen
data_K2TiWN4
_symmetry_space_group_name_H-M   'P 1'
_cell_length_a   5.85804851
_cell_length_b   5.85804886
_cell_length_c   5.85804864
_cell_angle_alpha   121.07336706
_cell_angle_beta   121.07338310
_cell_angle_gamma   88.15069222
_symmetry_Int_Tables_number   1
_chemical_formula_structural   K2TiWN4
_chemical_formula_sum   'K2 Ti1 W1 N4'
_cell_volume   139.76378150
_cell_formula_units_Z   1
loop_
 _symmetry_equiv_pos_site_id
 _symmetry_equiv_pos_as_xyz
  1  'x, y, z'
loop_
 _atom_site_type_symbol
 _atom_site_label
 _atom_site_symmetry_multiplicity
 _atom_site_fract_x
 _atom_site_fract_y
 _atom_site_fract_z
 _atom_site_occupancy
  K  K0  1  0.25000000  0.75000000  0.50000000  1
  K  K1  1  0.50000000  0.50000000  0.00000000  1
  Ti  Ti0  1  0.00000000  0.00000000  0.00000000  1
  W  W0  1  0.75000000  0.25000000  0.50000000  1
  N  N0  1  0.76795165  0.12884296  0.14806554  1
  N  N1  1  0.98077842  0.61988711  0.85193446  1
  N  N2  1  0.38011289  0.23204835  0.36089131  1
  N  N3  1  0.87115703  0.01922158  0.63910869  1
loop_
_geom_bond_atom_site_label_1
_geom_bond_atom_site_label_2
_geom_bond_distance
_geom_bond_site_symmetry_2
K0 N3 2.896698 1_465
K0 N2 2.896698 1_555
K0 N0 2.896700 1_566
K0 N1 2.896703 1_454
K1 N1 2.874828 1_454
K1 N2 2.874829 1_554
K1 N3 2.874829 1_565
K1 N0 2.874831 1_555
N0 W0 1.863791 1_555
N0 Ti0 1.909176 1_655
N1 W0 1.863796 1_555
N1 Ti0 1.909171 1_666
N2 W0 1.863796 1_555
N2 Ti0 1.909172 1_555
N3 W0 1.863796 1_555
N3 Ti0 1.909172 1_656
