# generated using pymatgen
data_Ba4IrOs5O18
_symmetry_space_group_name_H-M   'P 1'
_cell_length_a   8.13238495
_cell_length_b   8.12620600
_cell_length_c   8.13242213
_cell_angle_alpha   109.58086499
_cell_angle_beta   109.23800145
_cell_angle_gamma   109.62616662
_symmetry_Int_Tables_number   1
_chemical_formula_structural   Ba4IrOs5O18
_chemical_formula_sum   'Ba4 Ir1 Os5 O18'
_cell_volume   413.55288728
_cell_formula_units_Z   1
loop_
 _symmetry_equiv_pos_site_id
 _symmetry_equiv_pos_as_xyz
  1  'x, y, z'
loop_
 _atom_site_type_symbol
 _atom_site_label
 _atom_site_symmetry_multiplicity
 _atom_site_fract_x
 _atom_site_fract_y
 _atom_site_fract_z
 _atom_site_occupancy
  Ba  Ba0  1  0.00064249  0.00139838  0.38107137  1
  Ba  Ba1  1  0.00131783  0.37967792  0.99870440  1
  Ba  Ba2  1  0.61903260  0.62030035  0.62166013  1
  Ba  Ba3  1  0.37966214  0.99860991  0.99921527  1
  Ir  Ir0  1  0.36385518  0.49999464  0.86385144  1
  Os  Os0  1  0.86620059  0.36500979  0.50124327  1
  Os  Os1  1  0.49853006  0.13379817  0.63140101  1
  Os  Os2  1  0.13623659  0.63499546  0.50119976  1
  Os  Os3  1  0.49760575  0.86621990  0.36475377  1
  Os  Os4  1  0.63682093  0.49999064  0.13680561  1
  O  O0  1  0.33226289  0.00000928  0.33229128  1
  O  O1  1  0.34253339  0.33739382  0.00680861  1
  O  O2  1  0.00087788  0.66506254  0.66626696  1
  O  O3  1  0.66941444  0.66260166  0.00513247  1
  O  O4  1  0.00120624  0.33494684  0.33582476  1
  O  O5  1  0.66425879  0.00002846  0.66426870  1
  O  O6  1  0.37098239  0.30210897  0.63702668  1
  O  O7  1  0.06386708  0.33751079  0.69320407  1
  O  O8  1  0.72382488  0.35212734  0.65515339  1
  O  O9  1  0.35569574  0.66248121  0.72635024  1
  O  O10  1  0.27529675  0.93233282  0.62702879  1
  O  O11  1  0.65223463  0.37399922  0.30396717  1
  O  O12  1  0.30302478  0.64785772  0.37171640  1
  O  O13  1  0.69469857  0.06768930  0.34295303  1
  O  O14  1  0.92997049  0.62598703  0.27822540  1
  O  O15  1  0.65661672  0.72590412  0.35437060  1
  O  O16  1  0.62844004  0.27409024  0.93066801  1
  O  O17  1  0.33488813  0.69787347  0.06883743  1
loop_
_geom_bond_atom_site_label_1
_geom_bond_atom_site_label_2
_geom_bond_distance
_geom_bond_site_symmetry_2
Ba0 O6 2.624932 1_555
Ba0 O13 2.660964 1_455
Ba0 O14 2.670511 1_445
Ba0 O7 2.778007 1_555
Ba0 O15 2.820062 1_445
Ba0 O10 2.820509 1_545
Ba0 O3 2.851678 1_445
Ba0 O4 2.853666 1_555
Ba0 O0 2.855353 1_555
Ba1 O7 2.632106 1_555
Ba1 O12 2.653983 1_556
Ba1 O16 2.658196 1_455
Ba1 O17 2.765873 1_556
Ba1 O8 2.834624 1_455
Ba1 O14 2.847788 1_456
Ba1 O5 2.865461 1_455
Ba1 O4 2.884079 1_556
Ba1 O1 2.890957 1_556
Ba2 O9 2.632042 1_555
Ba2 O8 2.653670 1_555
Ba2 O15 2.658349 1_555
Ba2 O6 2.765769 1_555
Ba2 O12 2.834701 1_555
Ba2 O11 2.847920 1_555
Ba2 O5 2.866028 1_565
Ba2 O2 2.883973 1_655
Ba2 O3 2.890723 1_556
Ba3 O17 2.625089 1_556
Ba3 O10 2.660673 1_555
Ba3 O11 2.670448 1_566
Ba3 O9 2.778072 1_555
Ba3 O16 2.820019 1_565
Ba3 O13 2.820609 1_566
Ba3 O1 2.851473 1_566
Ba3 O2 2.853540 1_555
Ba3 O0 2.855909 1_566
Ir0 O7 1.999467 1_555
Ir0 O9 1.999471 1_555
Ir0 O1 2.033757 1_556
Ir0 O3 2.033759 1_556
Ir0 O17 2.033885 1_556
Ir0 O6 2.033898 1_555
O0 Os1 1.999927 1_555
O0 Os3 2.000057 1_545
O1 Os4 1.965531 1_555
O2 Os0 1.997495 1_455
O2 Os2 2.002018 1_555
O3 Os4 1.965510 1_555
O4 Os2 1.997467 1_555
O4 Os0 2.002003 1_455
O5 Os1 2.002780 1_555
O5 Os3 2.002878 1_545
O6 Os1 1.972576 1_555
O7 Os0 1.972933 1_455
O8 Os0 1.969689 1_555
O8 Os1 1.973667 1_555
O9 Os2 1.972912 1_555
O10 Os1 1.974628 1_565
O10 Os2 1.977054 1_555
O11 Os4 1.954179 1_555
O11 Os0 1.982752 1_555
O12 Os2 1.969595 1_555
O12 Os3 1.973842 1_555
O13 Os3 1.974816 1_545
O13 Os0 1.976946 1_555
O14 Os4 1.954145 1_555
O14 Os2 1.982766 1_655
O15 Os4 1.990798 1_555
O15 Os3 1.994341 1_555
O16 Os4 1.990669 1_556
O16 Os1 1.993948 1_555
O17 Os3 1.972969 1_555
