# generated using pymatgen
data_BaLi2(AgAs)2
_symmetry_space_group_name_H-M   'P 1'
_cell_length_a   8.69396227
_cell_length_b   8.69396084
_cell_length_c   8.69396197
_cell_angle_alpha   30.30390750
_cell_angle_beta   30.30391215
_cell_angle_gamma   30.30391109
_symmetry_Int_Tables_number   1
_chemical_formula_structural   BaLi2(AgAs)2
_chemical_formula_sum   'Ba1 Li2 Ag2 As2'
_cell_volume   148.26816818
_cell_formula_units_Z   1
loop_
 _symmetry_equiv_pos_site_id
 _symmetry_equiv_pos_as_xyz
  1  'x, y, z'
loop_
 _atom_site_type_symbol
 _atom_site_label
 _atom_site_symmetry_multiplicity
 _atom_site_fract_x
 _atom_site_fract_y
 _atom_site_fract_z
 _atom_site_occupancy
  Ba  Ba0  1  0.00000000  0.00000000  0.00000000  1
  Li  Li0  1  0.85971526  0.85971526  0.85971526  1
  Li  Li1  1  0.14028474  0.14028474  0.14028474  1
  Ag  Ag0  1  0.56224448  0.56224448  0.56224448  1
  Ag  Ag1  1  0.43775552  0.43775552  0.43775552  1
  As  As0  1  0.75503358  0.75503358  0.75503358  1
  As  As1  1  0.24496642  0.24496642  0.24496642  1
loop_
_geom_bond_atom_site_label_1
_geom_bond_atom_site_label_2
_geom_bond_distance
_geom_bond_site_symmetry_2
Ag0 As1 2.654168 1_565
Ag0 As1 2.654168 1_556
Ag0 As1 2.654169 1_655
Ag0 Li0 2.771360 1_545
Ag0 Li0 2.771360 1_554
Ag0 Li0 2.771361 1_455
Ag1 As0 2.654168 1_545
Ag1 As0 2.654168 1_554
Ag1 As0 2.654169 1_455
Ag1 Li1 2.771360 1_565
Ag1 Li1 2.771360 1_556
Ag1 Li1 2.771361 1_655
As0 Li0 2.602972 1_555
As0 Li1 2.924351 1_665
As0 Li1 2.924351 1_566
As0 Li1 2.924351 1_656
As0 Ba0 3.422475 1_656
As0 Ba0 3.422476 1_665
As0 Ba0 3.422476 1_566
As1 Li1 2.602972 1_555
As1 Li0 2.924351 1_445
As1 Li0 2.924351 1_544
As1 Li0 2.924351 1_454
As1 Ba0 3.422475 1_565
As1 Ba0 3.422476 1_556
As1 Ba0 3.422476 1_655
