# generated using pymatgen
data_Sr(GdSe2)2
_symmetry_space_group_name_H-M   'P 1'
_cell_length_a   7.76076779
_cell_length_b   7.76076779
_cell_length_c   7.76076779
_cell_angle_alpha   109.36277777
_cell_angle_beta   109.36277777
_cell_angle_gamma   109.68832475
_symmetry_Int_Tables_number   1
_chemical_formula_structural   Sr(GdSe2)2
_chemical_formula_sum   'Sr2 Gd4 Se8'
_cell_volume   359.82182210
_cell_formula_units_Z   2
loop_
 _symmetry_equiv_pos_site_id
 _symmetry_equiv_pos_as_xyz
  1  'x, y, z'
loop_
 _atom_site_type_symbol
 _atom_site_label
 _atom_site_symmetry_multiplicity
 _atom_site_fract_x
 _atom_site_fract_y
 _atom_site_fract_z
 _atom_site_occupancy
  Sr  Sr0  1  0.50000000  0.50000000  0.00000000  1
  Sr  Sr1  1  0.75000000  0.25000000  0.50000000  1
  Gd  Gd0  1  0.62500000  0.99903200  0.87403200  1
  Gd  Gd1  1  0.12500000  0.75096800  0.12596800  1
  Gd  Gd2  1  0.00096800  0.87500000  0.62596800  1
  Gd  Gd3  1  0.24903200  0.37500000  0.37403200  1
  Se  Se0  1  0.36059100  0.11332200  0.09878000  1
  Se  Se1  1  0.36332200  0.11059100  0.59878000  1
  Se  Se2  1  0.88940900  0.48818900  0.25273100  1
  Se  Se3  1  0.88667800  0.98545800  0.24726900  1
  Se  Se4  1  0.51181100  0.76454200  0.40122000  1
  Se  Se5  1  0.73818900  0.63940900  0.75273100  1
  Se  Se6  1  0.01454200  0.26181100  0.90122000  1
  Se  Se7  1  0.23545800  0.63667800  0.74726900  1
loop_
_geom_bond_atom_site_label_1
_geom_bond_atom_site_label_2
_geom_bond_distance
_geom_bond_site_symmetry_2
Gd0 Se6 2.912114 1_665
Gd0 Se7 2.912114 1_555
Gd0 Se1 2.995245 1_565
Gd0 Se3 2.995245 1_556
Gd0 Se4 3.147278 1_555
Gd0 Se5 3.147278 1_555
Gd0 Se0 3.257860 1_566
Gd0 Se2 3.257860 1_566
Gd1 Se0 2.912114 1_565
Gd1 Se2 2.912114 1_455
Gd1 Se4 2.995245 1_555
Gd1 Se5 2.995245 1_454
Gd1 Se3 3.147278 1_455
Gd1 Se1 3.147278 1_565
Gd1 Se7 3.257860 1_554
Gd1 Se6 3.257860 1_554
Gd2 Se5 2.912114 1_455
Gd2 Se1 2.912114 1_565
Gd2 Se6 2.995245 1_565
Gd2 Se2 2.995245 1_455
Gd2 Se7 3.147278 1_555
Gd2 Se0 3.147278 1_566
Gd2 Se4 3.257860 1_455
Gd2 Se3 3.257860 1_455
Gd3 Se4 2.912114 1_555
Gd3 Se3 2.912114 1_445
Gd3 Se7 2.995245 1_555
Gd3 Se0 2.995245 1_555
Gd3 Se2 3.147278 1_455
Gd3 Se6 3.147278 1_554
Gd3 Se1 3.257860 1_555
Gd3 Se5 3.257860 1_555
Se0 Sr1 3.060057 1_555
Se0 Sr0 3.263666 1_555
Se1 Sr0 3.060057 1_556
Se1 Sr1 3.263666 1_555
Se2 Sr0 3.060057 1_555
Se2 Sr1 3.263666 1_555
Se3 Sr1 3.060057 1_565
Se3 Sr0 3.263666 1_555
Se4 Sr0 3.060057 1_555
Se4 Sr1 3.263666 1_565
Se5 Sr1 3.060057 1_555
Se5 Sr0 3.263666 1_556
Se6 Sr1 3.060057 1_455
Se6 Sr0 3.263666 1_556
Se7 Sr0 3.060057 1_556
Se7 Sr1 3.263666 1_455
