# generated using pymatgen
data_CsCu(Sb4Ru)3
_symmetry_space_group_name_H-M   'P 1'
_cell_length_a   8.15189537
_cell_length_b   8.15617899
_cell_length_c   8.15617933
_cell_angle_alpha   109.48186182
_cell_angle_beta   109.46057527
_cell_angle_gamma   109.46058146
_symmetry_Int_Tables_number   1
_chemical_formula_structural   CsCu(Sb4Ru)3
_chemical_formula_sum   'Cs1 Cu1 Sb12 Ru3'
_cell_volume   417.51034253
_cell_formula_units_Z   1
loop_
 _symmetry_equiv_pos_site_id
 _symmetry_equiv_pos_as_xyz
  1  'x, y, z'
loop_
 _atom_site_type_symbol
 _atom_site_label
 _atom_site_symmetry_multiplicity
 _atom_site_fract_x
 _atom_site_fract_y
 _atom_site_fract_z
 _atom_site_occupancy
  Cs  Cs0  1  0.00000000  0.00000000  0.00000000  1
  Cu  Cu0  1  0.50000000  0.00000000  0.00000000  1
  Sb  Sb0  1  0.15118492  0.80844337  0.64801440  1
  Sb  Sb1  1  0.16011596  0.50072417  0.34156588  1
  Sb  Sb2  1  0.49682848  0.64801440  0.83957004  1
  Sb  Sb3  1  0.34274255  0.83957004  0.19155663  1
  Sb  Sb4  1  0.81855108  0.65843412  0.15915729  1
  Sb  Sb5  1  0.65939278  0.84084271  0.49927583  1
  Sb  Sb6  1  0.18144892  0.34156588  0.84084271  1
  Sb  Sb7  1  0.65725745  0.16042996  0.80844337  1
  Sb  Sb8  1  0.34060722  0.15915729  0.50072417  1
  Sb  Sb9  1  0.50317152  0.35198560  0.16042996  1
  Sb  Sb10  1  0.83988404  0.49927583  0.65843412  1
  Sb  Sb11  1  0.84881508  0.19155663  0.35198560  1
  Ru  Ru0  1  0.50000000  0.50000000  0.50000000  1
  Ru  Ru1  1  0.00000000  0.00000000  0.50000000  1
  Ru  Ru2  1  0.00000000  0.50000000  0.00000000  1
loop_
_geom_bond_atom_site_label_1
_geom_bond_atom_site_label_2
_geom_bond_distance
_geom_bond_site_symmetry_2
Cs0 Sb6 3.546824 1_554
Cs0 Sb4 3.546824 1_445
Cs0 Sb1 3.546832 1_555
Cs0 Sb10 3.546832 1_444
Cs0 Sb8 3.546833 1_555
Cs0 Sb5 3.546833 1_444
Cs0 Sb11 3.584759 1_455
Cs0 Sb0 3.584759 1_544
Cs0 Sb9 3.584763 1_555
Cs0 Sb2 3.584763 1_444
Cs0 Sb3 3.584772 1_545
Cs0 Sb7 3.584772 1_454
Cu0 Sb9 2.716064 1_555
Cu0 Sb2 2.716064 1_544
Cu0 Sb7 2.716067 1_554
Cu0 Sb3 2.716067 1_545
Cu0 Sb11 2.716067 1_555
Cu0 Sb0 2.716067 1_544
Sb0 Sb1 2.934351 1_555
Sb0 Sb10 2.971281 1_455
Sb1 Sb11 2.971281 1_455
Sb2 Sb6 2.934360 1_555
Sb2 Sb4 2.971291 1_556
Sb3 Sb5 2.934342 1_555
Sb3 Sb8 2.971291 1_565
Sb4 Sb9 2.934360 1_555
Sb5 Sb7 2.971291 1_565
Sb6 Sb9 2.971291 1_556
Sb7 Sb8 2.934342 1_555
Sb10 Sb11 2.934351 1_555
Ru0 Sb2 2.639515 1_555
Ru0 Sb9 2.639515 1_555
Ru0 Sb10 2.641399 1_555
Ru0 Sb1 2.641399 1_555
Ru0 Sb5 2.650628 1_555
Ru0 Sb8 2.650628 1_555
Ru1 Sb0 2.639518 1_545
Ru1 Sb11 2.639518 1_455
Ru1 Sb8 2.641390 1_555
Ru1 Sb5 2.641390 1_445
Ru1 Sb6 2.650625 1_555
Ru1 Sb4 2.650625 1_445
Ru2 Sb3 2.639518 1_555
Ru2 Sb7 2.639518 1_454
Ru2 Sb4 2.641387 1_455
Ru2 Sb6 2.641387 1_554
Ru2 Sb1 2.650620 1_555
Ru2 Sb10 2.650620 1_454
