# generated using pymatgen
data_Al3Cu3(Mo3C)2
_symmetry_space_group_name_H-M   'P 1'
_cell_length_a   7.95781747
_cell_length_b   7.95781696
_cell_length_c   7.95781735
_cell_angle_alpha   119.93684411
_cell_angle_beta   119.98851666
_cell_angle_gamma   90.06465656
_symmetry_Int_Tables_number   1
_chemical_formula_structural   Al3Cu3(Mo3C)2
_chemical_formula_sum   'Al6 Cu6 Mo12 C4'
_cell_volume   356.54257127
_cell_formula_units_Z   2
loop_
 _symmetry_equiv_pos_site_id
 _symmetry_equiv_pos_as_xyz
  1  'x, y, z'
loop_
 _atom_site_type_symbol
 _atom_site_label
 _atom_site_symmetry_multiplicity
 _atom_site_fract_x
 _atom_site_fract_y
 _atom_site_fract_z
 _atom_site_occupancy
  Al  Al0  1  0.25709589  0.50816642  0.74892947  1
  Al  Al1  1  0.75923595  0.50816642  0.25107053  1
  Al  Al2  1  0.24802429  0.51333798  0.26531369  1
  Al  Al3  1  0.24802429  0.98271160  0.73468631  1
  Al  Al4  1  0.46139730  0.29063904  0.17075726  1
  Al  Al5  1  0.11988078  0.29063904  0.82924274  1
  Cu  Cu0  1  0.45277102  0.29099746  0.83822744  1
  Cu  Cu1  1  0.45277102  0.61454358  0.16177256  1
  Cu  Cu2  1  0.04021754  0.70918348  0.33103206  1
  Cu  Cu3  1  0.37815142  0.70918348  0.66896794  1
  Cu  Cu4  1  0.04131135  0.70716693  0.66585458  1
  Cu  Cu5  1  0.04131135  0.37545677  0.33414542  1
  Mo  Mo0  1  0.06975198  0.06975198  0.00000000  1
  Mo  Mo1  1  0.68704593  0.68704593  1.00000000  1
  Mo  Mo2  1  0.68487778  0.06639607  0.00186562  1
  Mo  Mo3  1  0.06453045  0.68301216  0.99813438  1
  Mo  Mo4  1  0.06453045  0.06639607  0.38151829  1
  Mo  Mo5  1  0.68487778  0.68301216  0.61848171  1
  Mo  Mo6  1  0.43771126  0.93771126  0.50000000  1
  Mo  Mo7  1  0.81730381  0.31730381  0.50000000  1
  Mo  Mo8  1  0.81083166  0.93152534  0.49701322  1
  Mo  Mo9  1  0.43451412  0.31381845  0.50298678  1
  Mo  Mo10  1  0.43451412  0.93152534  0.12069368  1
  Mo  Mo11  1  0.81083166  0.31381845  0.87930632  1
  C  C0  1  0.75067324  0.99953894  0.75113429  1
  C  C1  1  0.24840465  0.99953894  0.24886571  1
  C  C2  1  0.74970395  0.00016052  0.25045757  1
  C  C3  1  0.74970395  0.49924638  0.74954243  1
loop_
_geom_bond_atom_site_label_1
_geom_bond_atom_site_label_2
_geom_bond_distance
_geom_bond_site_symmetry_2
Al0 Cu3 2.348845 1_555
Al0 Cu5 2.410343 1_555
Al0 Cu4 2.410350 1_555
Al0 Cu1 2.458038 1_556
Al0 Cu0 2.458045 1_555
Al0 Al5 2.528813 1_555
Al0 Mo10 2.821662 1_556
Al0 Mo9 2.821676 1_555
Al0 Mo1 2.835729 1_555
Al0 Mo4 2.916450 1_555
Al0 Mo3 2.916450 1_555
Al0 Mo7 2.921313 1_455
Al1 Cu2 2.348864 1_655
Al1 Cu4 2.410345 1_655
Al1 Cu5 2.410350 1_655
Al1 Cu1 2.458032 1_555
Al1 Cu0 2.458036 1_554
Al1 Al4 2.528795 1_555
Al1 Mo8 2.821661 1_555
Al1 Mo11 2.821668 1_554
Al1 Mo1 2.835730 1_554
Al1 Mo5 2.916444 1_555
Al1 Mo2 2.916451 1_555
Al1 Mo7 2.921312 1_555
Al2 Cu2 2.343922 1_555
Al2 Cu3 2.343935 1_555
Al2 Cu5 2.388816 1_555
Al2 Cu1 2.446159 1_555
Al2 Al5 2.557936 1_554
Al2 Al4 2.557945 1_555
Al2 Mo6 2.836646 1_555
Al2 Mo3 2.870914 1_554
Al2 Mo5 2.870914 1_555
Al2 Mo0 2.913214 1_555
Al2 Mo11 2.914999 1_454
Al2 Mo9 2.915002 1_555
Al3 Cu2 2.343937 1_555
Al3 Cu3 2.343942 1_555
Al3 Cu4 2.388815 1_555
Al3 Cu0 2.446146 1_565
Al3 Al4 2.557936 1_566
Al3 Al5 2.557936 1_565
Al3 Mo6 2.836644 1_555
Al3 Mo4 2.870908 1_565
Al3 Mo2 2.870915 1_566
Al3 Mo0 2.913215 1_566
Al3 Mo8 2.914998 1_455
Al3 Mo10 2.915004 1_556
Al4 Cu0 2.614020 1_554
Al4 Cu1 2.614028 1_555
Al4 Mo7 2.637611 1_555
Al4 Mo9 2.673637 1_555
Al4 Mo10 2.673641 1_545
Al4 Al5 2.718190 1_554
Al4 Mo0 2.831919 1_555
Al4 Mo2 2.855918 1_555
Al4 Mo5 2.855925 1_555
Al5 Cu1 2.614032 1_556
Al5 Cu0 2.614036 1_555
Al5 Mo7 2.637612 1_455
Al5 Mo11 2.673633 1_455
Al5 Mo8 2.673638 1_445
Al5 Mo0 2.831909 1_556
Al5 Mo3 2.855922 1_555
Al5 Mo4 2.855929 1_555
Cu0 Cu1 2.577174 1_556
Cu0 Mo11 2.695786 1_555
Cu0 Mo9 2.695797 1_555
Cu0 Mo6 2.699436 1_545
Cu0 Mo2 2.868451 1_556
Cu0 Mo4 2.868458 1_555
Cu0 Mo1 2.933258 1_555
Cu1 Mo10 2.695786 1_555
Cu1 Mo8 2.695786 1_555
Cu1 Mo6 2.699441 1_555
Cu1 Mo5 2.868458 1_555
Cu1 Mo3 2.868458 1_554
Cu1 Mo1 2.933251 1_554
Cu2 Mo1 2.646498 1_454
Cu2 Mo3 2.657167 1_554
Cu2 Mo4 2.657176 1_565
Cu2 Cu5 2.668170 1_555
Cu2 Cu4 2.668174 1_555
Cu2 Cu3 2.689691 1_555
Cu2 Mo11 2.879629 1_454
Cu2 Mo8 2.879642 1_455
Cu2 Mo6 2.900958 1_555
Cu3 Mo1 2.646489 1_555
Cu3 Mo2 2.657176 1_566
Cu3 Mo5 2.657176 1_555
Cu3 Cu5 2.668170 1_555
Cu3 Cu4 2.668170 1_555
Cu3 Mo10 2.879621 1_556
Cu3 Mo9 2.879635 1_555
Cu3 Mo6 2.900972 1_555
Cu4 Cu5 2.642204 1_555
Cu4 Mo5 2.661192 1_455
Cu4 Mo3 2.661197 1_555
Cu4 Mo0 2.680756 1_566
Cu4 Mo7 2.844921 1_455
Cu4 Mo8 2.880129 1_455
Cu4 Mo10 2.880143 1_556
Cu5 Mo4 2.661192 1_555
Cu5 Mo2 2.661192 1_455
Cu5 Mo0 2.680761 1_555
Cu5 Mo7 2.844915 1_455
Cu5 Mo11 2.880136 1_454
Cu5 Mo9 2.880149 1_555
C0 Mo6 2.116346 1_555
C0 Mo11 2.118382 1_565
C0 Mo8 2.118382 1_555
C0 Mo5 2.126914 1_555
C0 Mo2 2.126914 1_566
C0 Mo0 2.132402 1_666
C1 Mo6 2.116346 1_555
C1 Mo9 2.118385 1_565
C1 Mo10 2.118397 1_555
C1 Mo3 2.126914 1_554
C1 Mo4 2.126914 1_565
C1 Mo0 2.132402 1_565
C2 Mo1 2.115816 1_544
C2 Mo4 2.116261 1_655
C2 Mo2 2.116267 1_555
C2 Mo10 2.121469 1_545
C2 Mo8 2.121478 1_545
C2 Mo7 2.128175 1_555
C3 Mo1 2.115822 1_555
C3 Mo5 2.116261 1_555
C3 Mo3 2.116261 1_655
C3 Mo9 2.121472 1_555
C3 Mo11 2.121484 1_555
C3 Mo7 2.128170 1_555
