# generated using pymatgen
data_Zr10SiSb6Pt
_symmetry_space_group_name_H-M   'P 1'
_cell_length_a   8.67553348
_cell_length_b   8.67553375
_cell_length_c   5.84743799
_cell_angle_alpha   90.00000000
_cell_angle_beta   90.00000000
_cell_angle_gamma   119.99999519
_symmetry_Int_Tables_number   1
_chemical_formula_structural   Zr10SiSb6Pt
_chemical_formula_sum   'Zr10 Si1 Sb6 Pt1'
_cell_volume   381.14363452
_cell_formula_units_Z   1
loop_
 _symmetry_equiv_pos_site_id
 _symmetry_equiv_pos_as_xyz
  1  'x, y, z'
loop_
 _atom_site_type_symbol
 _atom_site_label
 _atom_site_symmetry_multiplicity
 _atom_site_fract_x
 _atom_site_fract_y
 _atom_site_fract_z
 _atom_site_occupancy
  Zr  Zr0  1  0.26474871  0.00000000  0.25758129  1
  Zr  Zr1  1  0.26474871  0.26474871  0.74241871  1
  Zr  Zr2  1  1.00000000  0.73525129  0.74241871  1
  Zr  Zr3  1  0.00000000  0.26474871  0.25758129  1
  Zr  Zr4  1  0.73525129  0.73525129  0.25758129  1
  Zr  Zr5  1  0.73525129  1.00000000  0.74241871  1
  Zr  Zr6  1  0.33333300  0.66666700  0.00000000  1
  Zr  Zr7  1  0.66666700  0.33333300  0.50000000  1
  Zr  Zr8  1  0.66666700  0.33333300  0.00000000  1
  Zr  Zr9  1  0.33333300  0.66666700  0.50000000  1
  Si  Si0  1  0.00000000  0.00000000  0.50000000  1
  Sb  Sb0  1  0.61057080  0.00000000  0.24664455  1
  Sb  Sb1  1  0.61057080  0.61057080  0.75335545  1
  Sb  Sb2  1  1.00000000  0.38942920  0.75335545  1
  Sb  Sb3  1  0.00000000  0.61057080  0.24664455  1
  Sb  Sb4  1  0.38942920  0.38942920  0.24664455  1
  Sb  Sb5  1  0.38942920  1.00000000  0.75335545  1
  Pt  Pt0  1  0.00000000  0.00000000  0.00000000  1
loop_
_geom_bond_atom_site_label_1
_geom_bond_atom_site_label_2
_geom_bond_distance
_geom_bond_site_symmetry_2
Si0 Zr0 2.699045 1_555
Si0 Zr5 2.699045 1_445
Si0 Zr3 2.699045 1_555
Si0 Zr2 2.699045 1_445
Si0 Zr1 2.699045 1_555
Si0 Zr4 2.699045 1_445
Sb0 Zr4 2.988976 1_545
Sb0 Zr3 2.988976 1_655
Sb0 Zr0 3.000873 1_555
Sb0 Zr8 3.045043 1_555
Sb0 Zr6 3.045046 1_545
Sb0 Zr7 3.063824 1_555
Sb0 Zr9 3.063827 1_545
Sb0 Zr5 3.094230 1_545
Sb0 Zr5 3.140580 1_544
Sb1 Zr2 2.988976 1_555
Sb1 Zr5 2.988976 1_555
Sb1 Zr1 3.000873 1_555
Sb1 Zr6 3.045050 1_556
Sb1 Zr8 3.045050 1_556
Sb1 Zr9 3.063831 1_555
Sb1 Zr7 3.063832 1_555
Sb1 Zr4 3.094230 1_555
Sb1 Zr4 3.140580 1_556
Sb2 Zr1 2.988975 1_655
Sb2 Zr5 2.988976 1_545
Sb2 Zr2 3.000873 1_555
Sb2 Zr8 3.045043 1_556
Sb2 Zr6 3.045046 1_656
Sb2 Zr7 3.063824 1_555
Sb2 Zr9 3.063827 1_655
Sb2 Zr3 3.094230 1_655
Sb2 Zr3 3.140580 1_656
Sb3 Zr4 2.988975 1_455
Sb3 Zr0 2.988976 1_565
Sb3 Zr3 3.000873 1_555
Sb3 Zr6 3.045043 1_555
Sb3 Zr8 3.045046 1_455
Sb3 Zr9 3.063824 1_555
Sb3 Zr7 3.063827 1_455
Sb3 Zr2 3.094230 1_455
Sb3 Zr2 3.140580 1_454
Sb4 Zr3 2.988976 1_555
Sb4 Zr0 2.988976 1_555
Sb4 Zr4 3.000873 1_555
Sb4 Zr8 3.045050 1_555
Sb4 Zr6 3.045050 1_555
Sb4 Zr7 3.063831 1_555
Sb4 Zr9 3.063832 1_555
Sb4 Zr1 3.094230 1_555
Sb4 Zr1 3.140580 1_554
Sb5 Zr1 2.988976 1_565
Sb5 Zr2 2.988976 1_455
Sb5 Zr5 3.000873 1_555
Sb5 Zr6 3.045043 1_556
Sb5 Zr8 3.045046 1_566
Sb5 Zr9 3.063824 1_555
Sb5 Zr7 3.063827 1_565
Sb5 Zr0 3.094230 1_565
Sb5 Zr0 3.140580 1_566
Pt0 Zr0 2.746647 1_555
Pt0 Zr5 2.746647 1_444
Pt0 Zr3 2.746647 1_555
Pt0 Zr2 2.746647 1_444
Pt0 Zr1 2.746647 1_554
Pt0 Zr4 2.746647 1_445
Pt0 Si0 2.923719 1_555
Pt0 Si0 2.923719 1_554
