# generated using pymatgen
data_Lu5(GaBi)2
_symmetry_space_group_name_H-M   'P 1'
_cell_length_a   8.51467195
_cell_length_b   8.51467314
_cell_length_c   7.82583760
_cell_angle_alpha   90.00000000
_cell_angle_beta   90.00000000
_cell_angle_gamma   125.62486498
_symmetry_Int_Tables_number   1
_chemical_formula_structural   Lu5(GaBi)2
_chemical_formula_sum   'Lu10 Ga4 Bi4'
_cell_volume   461.18598833
_cell_formula_units_Z   2
loop_
 _symmetry_equiv_pos_site_id
 _symmetry_equiv_pos_as_xyz
  1  'x, y, z'
loop_
 _atom_site_type_symbol
 _atom_site_label
 _atom_site_symmetry_multiplicity
 _atom_site_fract_x
 _atom_site_fract_y
 _atom_site_fract_z
 _atom_site_occupancy
  Lu  Lu0  1  0.00000000  0.00000000  0.00000000  1
  Lu  Lu1  1  0.50000000  0.50000000  0.50000000  1
  Lu  Lu2  1  0.78997133  0.54260521  0.16665934  1
  Lu  Lu3  1  0.45739479  0.21002867  0.83334066  1
  Lu  Lu4  1  0.95739479  0.71002867  0.66665934  1
  Lu  Lu5  1  0.28997133  0.04260521  0.33334066  1
  Lu  Lu6  1  0.21002867  0.45739479  0.83334066  1
  Lu  Lu7  1  0.54260521  0.78997133  0.16665934  1
  Lu  Lu8  1  0.04260521  0.28997133  0.33334066  1
  Lu  Lu9  1  0.71002867  0.95739479  0.66665934  1
  Ga  Ga0  1  0.86860473  0.86860473  0.37089620  1
  Ga  Ga1  1  0.13139527  0.13139527  0.62910380  1
  Ga  Ga2  1  0.63139527  0.63139527  0.87089620  1
  Ga  Ga3  1  0.36860473  0.36860473  0.12910380  1
  Bi  Bi0  1  0.20766922  0.79233078  0.00000000  1
  Bi  Bi1  1  0.70766922  0.29233078  0.50000000  1
  Bi  Bi2  1  0.79233078  0.20766922  0.00000000  1
  Bi  Bi3  1  0.29233078  0.70766922  0.50000000  1
loop_
_geom_bond_atom_site_label_1
_geom_bond_atom_site_label_2
_geom_bond_distance
_geom_bond_site_symmetry_2
Lu0 Lu3 3.457343 1_554
Lu0 Lu7 3.457343 1_445
Lu0 Lu6 3.457344 1_554
Lu0 Lu2 3.457344 1_445
Lu0 Lu5 3.462564 1_555
Lu0 Lu9 3.462564 1_444
Lu0 Lu8 3.462564 1_555
Lu0 Lu4 3.462564 1_444
Lu1 Lu4 3.457343 1_555
Lu1 Lu8 3.457343 1_555
Lu1 Lu9 3.457344 1_555
Lu1 Lu5 3.457344 1_555
Lu1 Lu6 3.462564 1_555
Lu1 Lu2 3.462564 1_555
Lu1 Lu3 3.462564 1_555
Lu1 Lu7 3.462564 1_555
Ga0 Ga1 2.874729 1_665
Ga0 Lu7 2.922811 1_555
Ga0 Lu2 2.922811 1_555
Ga0 Lu9 2.990182 1_555
Ga0 Lu4 2.990182 1_555
Ga0 Lu5 2.993552 1_665
Ga0 Lu8 2.993553 1_665
Ga0 Lu1 3.040795 1_555
Ga0 Lu0 3.077361 1_665
Ga1 Lu3 2.922811 1_555
Ga1 Lu6 2.922811 1_555
Ga1 Lu5 2.990182 1_555
Ga1 Lu8 2.990182 1_555
Ga1 Lu9 2.993552 1_445
Ga1 Lu4 2.993553 1_445
Ga1 Lu1 3.040795 1_555
Ga1 Lu0 3.077361 1_556
Ga2 Ga3 2.874729 1_556
Ga2 Lu4 2.922811 1_555
Ga2 Lu9 2.922811 1_555
Ga2 Lu2 2.990182 1_556
Ga2 Lu7 2.990182 1_556
Ga2 Lu6 2.993552 1_555
Ga2 Lu3 2.993553 1_555
Ga2 Lu0 3.040795 1_666
Ga2 Lu1 3.077361 1_555
Ga3 Lu8 2.922811 1_555
Ga3 Lu5 2.922811 1_555
Ga3 Lu6 2.990182 1_554
Ga3 Lu3 2.990182 1_554
Ga3 Lu2 2.993552 1_555
Ga3 Lu7 2.993553 1_555
Ga3 Lu0 3.040795 1_555
Ga3 Lu1 3.077361 1_555
Bi0 Lu0 3.145746 1_565
Bi0 Lu7 3.146645 1_555
Bi0 Lu6 3.146646 1_554
Bi0 Lu2 3.172005 1_455
Bi0 Lu3 3.172005 1_564
Bi0 Lu4 3.177694 1_454
Bi0 Lu5 3.177694 1_565
Bi1 Lu1 3.145746 1_555
Bi1 Lu8 3.146645 1_655
Bi1 Lu9 3.146646 1_545
Bi1 Lu5 3.172005 1_555
Bi1 Lu4 3.172005 1_555
Bi1 Lu3 3.177694 1_555
Bi1 Lu2 3.177694 1_555
Bi2 Lu0 3.145746 1_655
Bi2 Lu3 3.146645 1_554
Bi2 Lu2 3.146646 1_555
Bi2 Lu6 3.172005 1_654
Bi2 Lu7 3.172005 1_545
Bi2 Lu8 3.177694 1_655
Bi2 Lu9 3.177694 1_544
Bi3 Lu1 3.145746 1_555
Bi3 Lu4 3.146645 1_455
Bi3 Lu5 3.146646 1_565
Bi3 Lu9 3.172005 1_555
Bi3 Lu8 3.172005 1_555
Bi3 Lu7 3.177694 1_555
Bi3 Lu6 3.177694 1_555
