# generated using pymatgen
data_TaAs3(Se2F3)2
_symmetry_space_group_name_H-M   'P 1'
_cell_length_a   9.65316568
_cell_length_b   6.36642065
_cell_length_c   10.58156264
_cell_angle_alpha   87.79459036
_cell_angle_beta   90.00000000
_cell_angle_gamma   90.00000000
_symmetry_Int_Tables_number   1
_chemical_formula_structural   TaAs3(Se2F3)2
_chemical_formula_sum   'Ta2 As6 Se8 F12'
_cell_volume   649.82002660
_cell_formula_units_Z   2
loop_
 _symmetry_equiv_pos_site_id
 _symmetry_equiv_pos_as_xyz
  1  'x, y, z'
loop_
 _atom_site_type_symbol
 _atom_site_label
 _atom_site_symmetry_multiplicity
 _atom_site_fract_x
 _atom_site_fract_y
 _atom_site_fract_z
 _atom_site_occupancy
  Ta  Ta0  1  0.75000000  0.49081586  0.83098620  1
  Ta  Ta1  1  0.25000000  0.50918414  0.16901380  1
  As  As0  1  0.25000000  0.06011922  0.51853549  1
  As  As1  1  0.12153428  0.98974126  0.84897364  1
  As  As2  1  0.62153428  0.01025874  0.15102636  1
  As  As3  1  0.75000000  0.93988078  0.48146451  1
  As  As4  1  0.87846572  0.01025874  0.15102636  1
  As  As5  1  0.37846572  0.98974126  0.84897364  1
  Se  Se0  1  0.06202807  0.14425672  0.65328798  1
  Se  Se1  1  0.43797193  0.14425672  0.65328798  1
  Se  Se2  1  0.75000000  0.32954835  0.21738720  1
  Se  Se3  1  0.25000000  0.67045165  0.78261280  1
  Se  Se4  1  0.56202807  0.85574328  0.34671202  1
  Se  Se5  1  0.75000000  0.31268472  0.43668498  1
  Se  Se6  1  0.93797193  0.85574328  0.34671202  1
  Se  Se7  1  0.25000000  0.68731528  0.56331502  1
  F  F0  1  0.75000000  0.28670972  0.70130212  1
  F  F1  1  0.61136592  0.32552168  0.91936242  1
  F  F2  1  0.39071686  0.35495762  0.25816833  1
  F  F3  1  0.75000000  0.68509444  0.96398645  1
  F  F4  1  0.10928314  0.35495762  0.25816833  1
  F  F5  1  0.25000000  0.31490556  0.03601355  1
  F  F6  1  0.11136592  0.67447832  0.08063758  1
  F  F7  1  0.60928314  0.64504238  0.74183167  1
  F  F8  1  0.89071686  0.64504238  0.74183167  1
  F  F9  1  0.88863408  0.32552168  0.91936242  1
  F  F10  1  0.38863408  0.67447832  0.08063758  1
  F  F11  1  0.25000000  0.71329028  0.29869788  1
loop_
_geom_bond_atom_site_label_1
_geom_bond_atom_site_label_2
_geom_bond_distance
_geom_bond_site_symmetry_2
As0 Se1 2.381465 1_555
As0 Se0 2.381465 1_555
As0 Se7 2.402316 1_545
As1 Se0 2.329916 1_565
As1 As5 2.480202 1_555
As1 Se3 2.504555 1_555
As2 Se4 2.329916 1_545
As2 As4 2.480202 1_555
As2 Se2 2.504555 1_555
As3 Se6 2.381465 1_555
As3 Se4 2.381465 1_555
As3 Se5 2.402316 1_565
As4 Se6 2.329916 1_545
As4 Se2 2.504555 1_555
As5 Se1 2.329916 1_565
As5 Se3 2.504555 1_555
Se2 Se5 2.318865 1_555
Se3 Se7 2.318865 1_555
F0 Ta0 1.925836 1_555
F1 Ta0 1.922789 1_555
F2 Ta1 1.904711 1_555
F3 Ta0 1.909038 1_555
F4 Ta1 1.904711 1_555
F5 Ta1 1.909038 1_555
F6 Ta1 1.922789 1_555
F7 Ta0 1.904711 1_555
F8 Ta0 1.904711 1_555
F9 Ta0 1.922789 1_555
F10 Ta1 1.922789 1_555
F11 Ta1 1.925836 1_555
