# generated using pymatgen
data_Hf3HgC
_symmetry_space_group_name_H-M   'P 1'
_cell_length_a   6.09406500
_cell_length_b   6.09406544
_cell_length_c   9.06657274
_cell_angle_alpha   90.00000000
_cell_angle_beta   90.00000000
_cell_angle_gamma   147.96484030
_symmetry_Int_Tables_number   1
_chemical_formula_structural   Hf3HgC
_chemical_formula_sum   'Hf6 Hg2 C2'
_cell_volume   178.60485560
_cell_formula_units_Z   2
loop_
 _symmetry_equiv_pos_site_id
 _symmetry_equiv_pos_as_xyz
  1  'x, y, z'
loop_
 _atom_site_type_symbol
 _atom_site_label
 _atom_site_symmetry_multiplicity
 _atom_site_fract_x
 _atom_site_fract_y
 _atom_site_fract_z
 _atom_site_occupancy
  Hf  Hf0  1  0.87498666  0.12501334  0.04181820  1
  Hf  Hf1  1  0.53729257  0.46270743  0.25000000  1
  Hf  Hf2  1  0.87498666  0.12501334  0.45818180  1
  Hf  Hf3  1  0.12501334  0.87498666  0.54181820  1
  Hf  Hf4  1  0.46270743  0.53729257  0.75000000  1
  Hf  Hf5  1  0.12501334  0.87498666  0.95818080  1
  Hg  Hg0  1  0.24661751  0.75338249  0.25000000  1
  Hg  Hg1  1  0.75338249  0.24661751  0.75000000  1
  C  C0  1  0.50000000  0.50000000  0.00000000  1
  C  C1  1  0.50000000  0.50000000  0.50000000  1
loop_
_geom_bond_atom_site_label_1
_geom_bond_atom_site_label_2
_geom_bond_distance
_geom_bond_site_symmetry_2
Hf0 Hg0 2.941390 1_545
Hf0 Hg0 2.941390 1_655
Hf0 Hg1 3.004939 1_554
Hf1 Hg0 2.973390 1_655
Hf1 Hg0 2.973390 1_545
Hf2 Hg0 2.941390 1_545
Hf2 Hg0 2.941390 1_655
Hf2 Hg1 3.004939 1_555
Hf3 Hg1 2.941390 1_565
Hf3 Hg1 2.941390 1_455
Hf3 Hg0 3.004939 1_555
Hf4 Hg1 2.973390 1_455
Hf4 Hg1 2.973390 1_565
Hf5 Hg1 2.941384 1_565
Hf5 Hg1 2.941385 1_455
Hf5 Hg0 3.004947 1_556
C0 Hf0 2.261901 1_455
C0 Hf0 2.261901 1_565
C0 Hf5 2.261902 1_654
C0 Hf5 2.261903 1_544
C0 Hf4 2.308362 1_554
C0 Hf1 2.308362 1_555
C1 Hf3 2.261901 1_655
C1 Hf2 2.261901 1_455
C1 Hf2 2.261901 1_565
C1 Hf3 2.261901 1_545
C1 Hf4 2.308362 1_555
C1 Hf1 2.308362 1_555
