# generated using pymatgen
data_PtRh3(Pb2O7)2
_symmetry_space_group_name_H-M   'P 1'
_cell_length_a   7.24872681
_cell_length_b   7.21318072
_cell_length_c   7.24872649
_cell_angle_alpha   59.83685233
_cell_angle_beta   60.00000146
_cell_angle_gamma   59.83684930
_symmetry_Int_Tables_number   1
_chemical_formula_structural   PtRh3(Pb2O7)2
_chemical_formula_sum   'Pt1 Rh3 Pb4 O14'
_cell_volume   267.33750020
_cell_formula_units_Z   1
loop_
 _symmetry_equiv_pos_site_id
 _symmetry_equiv_pos_as_xyz
  1  'x, y, z'
loop_
 _atom_site_type_symbol
 _atom_site_label
 _atom_site_symmetry_multiplicity
 _atom_site_fract_x
 _atom_site_fract_y
 _atom_site_fract_z
 _atom_site_occupancy
  Pt  Pt0  1  0.12500000  0.62500000  0.12500000  1
  Rh  Rh0  1  0.12500000  0.12500000  0.62500000  1
  Rh  Rh1  1  0.62500000  0.12500000  0.12500000  1
  Rh  Rh2  1  0.12500000  0.12500000  0.12500000  1
  Pb  Pb0  1  0.62500000  0.62500000  0.12500000  1
  Pb  Pb1  1  0.62500000  0.12500000  0.62500000  1
  Pb  Pb2  1  0.12500000  0.62500000  0.62500000  1
  Pb  Pb3  1  0.62500000  0.62500000  0.62500000  1
  O  O0  1  0.49804622  0.50586234  0.49804622  1
  O  O1  1  0.75195378  0.74413766  0.75195378  1
  O  O2  1  0.45751908  0.04126985  0.45751908  1
  O  O3  1  0.20825176  0.79176851  0.20825176  1
  O  O4  1  0.45827204  0.45823149  0.04174824  1
  O  O5  1  0.04174824  0.45823149  0.45827204  1
  O  O6  1  0.45751908  0.04126985  0.04369000  1
  O  O7  1  0.04369000  0.04126985  0.45751908  1
  O  O8  1  0.04174824  0.45823149  0.04174824  1
  O  O9  1  0.79248092  0.20873015  0.20631000  1
  O  O10  1  0.20825176  0.79176851  0.79172796  1
  O  O11  1  0.79248092  0.20873015  0.79248092  1
  O  O12  1  0.20631000  0.20873015  0.79248092  1
  O  O13  1  0.79172796  0.79176851  0.20825176  1
loop_
_geom_bond_atom_site_label_1
_geom_bond_atom_site_label_2
_geom_bond_distance
_geom_bond_site_symmetry_2
O0 Pb3 2.206480 1_555
O0 Pb0 2.206486 1_555
O0 Pb2 2.206486 1_555
O0 Pb1 2.237556 1_555
O1 Pb3 2.206480 1_555
O1 Pb0 2.206486 1_556
O1 Pb2 2.206486 1_655
O1 Pb1 2.237556 1_565
O2 Rh1 1.999015 1_555
O2 Rh0 1.999015 1_555
O2 Pb3 2.472022 1_545
O2 Pb1 2.501999 1_555
O3 Rh2 1.988652 1_565
O3 Pt0 1.999647 1_555
O3 Pb2 2.488308 1_555
O3 Pb0 2.488308 1_555
O4 Rh1 1.988652 1_555
O4 Pt0 1.999647 1_555
O4 Pb3 2.488308 1_554
O4 Pb0 2.488308 1_555
O5 Rh0 1.988652 1_555
O5 Pt0 1.999647 1_555
O5 Pb2 2.488308 1_555
O5 Pb3 2.488308 1_455
O6 Rh2 1.999013 1_555
O6 Rh1 1.999026 1_555
O6 Pb0 2.472020 1_545
O6 Pb1 2.501987 1_554
O7 Rh2 1.999013 1_555
O7 Rh0 1.999026 1_555
O7 Pb2 2.472020 1_545
O7 Pb1 2.501987 1_455
O8 Rh2 1.988652 1_555
O8 Pt0 1.999647 1_555
O8 Pb2 2.488308 1_554
O8 Pb0 2.488308 1_455
O9 Rh2 1.999013 1_655
O9 Rh1 1.999026 1_555
O9 Pb0 2.472020 1_555
O9 Pb1 2.501987 1_555
O10 Rh0 1.988652 1_565
O10 Pt0 1.999647 1_556
O10 Pb2 2.488308 1_555
O10 Pb3 2.488308 1_555
O11 Rh1 1.999015 1_556
O11 Rh0 1.999015 1_655
O11 Pb3 2.472022 1_555
O11 Pb1 2.501999 1_555
O12 Rh2 1.999013 1_556
O12 Rh0 1.999026 1_555
O12 Pb2 2.472020 1_555
O12 Pb1 2.501987 1_555
O13 Rh1 1.988652 1_565
O13 Pt0 1.999647 1_655
O13 Pb0 2.488308 1_555
O13 Pb3 2.488308 1_555
