# generated using pymatgen
data_CsScZnTe3
_symmetry_space_group_name_H-M   'P 1'
_cell_length_a   8.81379034
_cell_length_b   8.81378954
_cell_length_c   11.32743605
_cell_angle_alpha   90.00000000
_cell_angle_beta   90.00000000
_cell_angle_gamma   151.77284359
_symmetry_Int_Tables_number   1
_chemical_formula_structural   CsScZnTe3
_chemical_formula_sum   'Cs2 Sc2 Zn2 Te6'
_cell_volume   416.18761887
_cell_formula_units_Z   2
loop_
 _symmetry_equiv_pos_site_id
 _symmetry_equiv_pos_as_xyz
  1  'x, y, z'
loop_
 _atom_site_type_symbol
 _atom_site_label
 _atom_site_symmetry_multiplicity
 _atom_site_fract_x
 _atom_site_fract_y
 _atom_site_fract_z
 _atom_site_occupancy
  Cs  Cs0  1  0.25136471  0.74863529  0.25000000  1
  Cs  Cs1  1  0.74863529  0.25136471  0.75000000  1
  Sc  Sc0  1  0.00000000  0.00000000  0.50000000  1
  Sc  Sc1  1  0.00000000  0.00000000  0.00000000  1
  Zn  Zn0  1  0.53601215  0.46398785  0.25000000  1
  Zn  Zn1  1  0.46398785  0.53601215  0.75000000  1
  Te  Te0  1  0.61464602  0.38535398  0.44903326  1
  Te  Te1  1  0.38535398  0.61464602  0.55096674  1
  Te  Te2  1  0.61464602  0.38535398  0.05096674  1
  Te  Te3  1  0.38535398  0.61464602  0.94903326  1
  Te  Te4  1  0.94096481  0.05903519  0.25000000  1
  Te  Te5  1  0.05903519  0.94096481  0.75000000  1
loop_
_geom_bond_atom_site_label_1
_geom_bond_atom_site_label_2
_geom_bond_distance
_geom_bond_site_symmetry_2
Cs0 Te4 3.889100 1_455
Cs0 Te4 3.889101 1_565
Cs0 Te0 3.894203 1_565
Cs0 Te2 3.894203 1_565
Cs0 Te0 3.894204 1_455
Cs0 Te2 3.894204 1_455
Cs0 Te1 4.107239 1_555
Cs0 Te3 4.107239 1_554
Cs1 Te5 3.889100 1_655
Cs1 Te5 3.889101 1_545
Cs1 Te3 3.894203 1_545
Cs1 Te1 3.894203 1_545
Cs1 Te3 3.894204 1_655
Cs1 Te1 3.894204 1_655
Cs1 Te2 4.107239 1_556
Cs1 Te0 4.107239 1_555
Sc0 Te1 2.965412 1_555
Sc0 Te0 2.965412 1_445
Sc0 Te1 2.965413 1_445
Sc0 Te0 2.965413 1_555
Sc0 Te5 3.006323 1_545
Sc0 Te4 3.006323 1_455
Sc1 Te3 2.965412 1_554
Sc1 Te2 2.965412 1_445
Sc1 Te2 2.965413 1_555
Sc1 Te3 2.965413 1_444
Sc1 Te5 3.006323 1_544
Sc1 Te4 3.006323 1_455
Te0 Zn0 2.624887 1_555
Te1 Zn1 2.624887 1_555
Te2 Zn0 2.624887 1_555
Te3 Zn1 2.624887 1_555
Te4 Zn0 2.694305 1_545
Te4 Zn0 2.694306 1_655
Te5 Zn1 2.694305 1_565
Te5 Zn1 2.694306 1_455
