# generated using pymatgen
data_CsFeAs2O7
_symmetry_space_group_name_H-M   'P 1'
_cell_length_a   6.50802113
_cell_length_b   6.59286022
_cell_length_c   8.55937708
_cell_angle_alpha   96.50250672
_cell_angle_beta   102.39492760
_cell_angle_gamma   103.32200937
_symmetry_Int_Tables_number   1
_chemical_formula_structural   CsFeAs2O7
_chemical_formula_sum   'Cs2 Fe2 As4 O14'
_cell_volume   343.88731438
_cell_formula_units_Z   2
loop_
 _symmetry_equiv_pos_site_id
 _symmetry_equiv_pos_as_xyz
  1  'x, y, z'
loop_
 _atom_site_type_symbol
 _atom_site_label
 _atom_site_symmetry_multiplicity
 _atom_site_fract_x
 _atom_site_fract_y
 _atom_site_fract_z
 _atom_site_occupancy
  Cs  Cs0  1  0.00000000  0.50000000  0.50000000  1
  Cs  Cs1  1  0.00000000  0.50000000  0.00000000  1
  Fe  Fe0  1  0.37485563  0.18194611  0.73013208  1
  Fe  Fe1  1  0.62514437  0.81805389  0.26986792  1
  As  As0  1  0.81853172  0.02256990  0.68424861  1
  As  As1  1  0.49430504  0.74053507  0.83556260  1
  As  As2  1  0.18146828  0.97743010  0.31575139  1
  As  As3  1  0.50569496  0.25946493  0.16443740  1
  O  O0  1  0.23379658  0.14103751  0.16882463  1
  O  O1  1  0.33174890  0.87129088  0.73156608  1
  O  O2  1  0.57190312  0.50699707  0.26730983  1
  O  O3  1  0.92175272  0.83916948  0.23255024  1
  O  O4  1  0.66825110  0.12870912  0.26843392  1
  O  O5  1  0.76620342  0.85896249  0.83117537  1
  O  O6  1  0.33207680  0.80106552  0.31493000  1
  O  O7  1  0.48294267  0.75204588  0.02936202  1
  O  O8  1  0.42809688  0.49300293  0.73269017  1
  O  O9  1  0.22786681  0.14053896  0.49099228  1
  O  O10  1  0.77213319  0.85946104  0.50900772  1
  O  O11  1  0.07824728  0.16083052  0.76744976  1
  O  O12  1  0.51705733  0.24795412  0.97063798  1
  O  O13  1  0.66792320  0.19893448  0.68507000  1
loop_
_geom_bond_atom_site_label_1
_geom_bond_atom_site_label_2
_geom_bond_distance
_geom_bond_site_symmetry_2
Cs0 O1 3.034870 1_555
Cs0 O4 3.034870 1_455
Cs0 O8 3.070662 1_555
Cs0 O2 3.070662 1_455
Cs0 O10 3.073882 1_455
Cs0 O9 3.073882 1_555
Cs0 O13 3.365213 1_455
Cs0 O6 3.365213 1_555
Cs0 O11 3.418130 1_555
Cs0 O3 3.418130 1_455
Cs1 O3 3.028744 1_455
Cs1 O11 3.028744 1_554
Cs1 O7 3.140430 1_555
Cs1 O12 3.140430 1_454
Cs1 O13 3.191711 1_454
Cs1 O6 3.191711 1_555
Cs1 O5 3.390298 1_454
Cs1 O0 3.390298 1_555
Fe0 O8 1.996306 1_555
Fe0 O11 1.999630 1_555
Fe0 O1 2.003990 1_545
Fe0 O13 2.006544 1_555
Fe0 O12 2.019215 1_555
Fe0 O9 2.022836 1_555
Fe1 O2 1.996306 1_555
Fe1 O3 1.999630 1_555
Fe1 O4 2.003990 1_565
Fe1 O6 2.006544 1_555
Fe1 O7 2.019215 1_555
Fe1 O10 2.022836 1_555
As0 O10 1.669734 1_545
As0 O11 1.679625 1_655
As0 O13 1.684956 1_555
As0 O5 1.784045 1_545
As1 O7 1.670205 1_556
As1 O8 1.676851 1_555
As1 O1 1.686566 1_555
As1 O5 1.772198 1_555
As2 O9 1.669734 1_565
As2 O3 1.679625 1_455
As2 O6 1.684956 1_555
As2 O0 1.784045 1_565
As3 O12 1.670205 1_554
As3 O2 1.676851 1_555
As3 O4 1.686566 1_555
As3 O0 1.772198 1_555
