# generated using pymatgen
data_Ti4VBi2
_symmetry_space_group_name_H-M   'P 1'
_cell_length_a   7.89617055
_cell_length_b   7.89617095
_cell_length_c   7.89617059
_cell_angle_alpha   96.09773514
_cell_angle_beta   96.09774162
_cell_angle_gamma   141.95716805
_symmetry_Int_Tables_number   1
_chemical_formula_structural   Ti4VBi2
_chemical_formula_sum   'Ti8 V2 Bi4'
_cell_volume   286.82760257
_cell_formula_units_Z   2
loop_
 _symmetry_equiv_pos_site_id
 _symmetry_equiv_pos_as_xyz
  1  'x, y, z'
loop_
 _atom_site_type_symbol
 _atom_site_label
 _atom_site_symmetry_multiplicity
 _atom_site_fract_x
 _atom_site_fract_y
 _atom_site_fract_z
 _atom_site_occupancy
  Ti  Ti0  1  0.80456029  0.91900334  0.72356364  1
  Ti  Ti1  1  0.91900334  0.19543971  0.11444305  1
  Ti  Ti2  1  0.58099666  0.69543971  0.27643636  1
  Ti  Ti3  1  0.69543971  0.41900334  0.11444305  1
  Ti  Ti4  1  0.08099666  0.80456029  0.88555695  1
  Ti  Ti5  1  0.19543971  0.08099666  0.27643636  1
  Ti  Ti6  1  0.30456029  0.58099666  0.88555695  1
  Ti  Ti7  1  0.41900334  0.30456029  0.72356364  1
  V  V0  1  0.25000000  0.25000000  0.00000000  1
  V  V1  1  0.75000000  0.75000000  0.00000000  1
  Bi  Bi0  1  0.85947393  0.64052607  0.50000000  1
  Bi  Bi1  1  0.14052607  0.35947393  0.50000000  1
  Bi  Bi2  1  0.35947393  0.85947393  0.21894885  1
  Bi  Bi3  1  0.64052607  0.14052607  0.78105115  1
loop_
_geom_bond_atom_site_label_1
_geom_bond_atom_site_label_2
_geom_bond_distance
_geom_bond_site_symmetry_2
Ti0 V1 2.577611 1_556
Ti0 V0 2.577611 1_666
Ti0 Ti7 3.089096 1_665
Ti0 Ti7 3.089096 1_555
Ti0 Ti6 3.089951 1_555
Ti0 Ti6 3.089951 1_665
Ti0 Ti4 3.158579 1_655
Ti0 Ti1 3.158580 1_566
Ti0 Ti2 3.337812 1_555
Ti1 V0 2.577611 1_655
Ti1 V1 2.577611 1_545
Ti1 Ti6 3.089096 1_654
Ti1 Ti6 3.089096 1_544
Ti1 Ti2 3.089951 1_545
Ti1 Ti2 3.089951 1_655
Ti1 Ti5 3.158579 1_655
Ti1 Ti3 3.337812 1_555
Ti2 V1 2.577611 1_555
Ti2 V0 2.577611 1_555
Ti2 Ti5 3.089096 1_665
Ti2 Ti5 3.089096 1_555
Ti2 Ti6 3.158579 1_554
Ti2 Ti3 3.158580 1_555
Ti3 V0 2.577611 1_555
Ti3 V1 2.577611 1_555
Ti3 Ti4 3.089096 1_654
Ti3 Ti4 3.089096 1_544
Ti3 Ti5 3.089951 1_555
Ti3 Ti5 3.089951 1_665
Ti3 Ti7 3.158579 1_554
Ti4 V1 2.577611 1_456
Ti4 V0 2.577611 1_566
Ti4 Ti7 3.089951 1_565
Ti4 Ti7 3.089951 1_455
Ti4 Ti5 3.158580 1_566
Ti4 Ti6 3.337812 1_555
Ti5 V0 2.577611 1_555
Ti5 V1 2.577611 1_445
Ti5 Ti7 3.337812 1_555
Ti6 V1 2.577611 1_556
Ti6 V0 2.577611 1_556
Ti6 Ti7 3.158580 1_555
Ti7 V0 2.577611 1_556
Ti7 V1 2.577611 1_556
V0 V1 2.573532 1_555
V0 V1 2.573532 1_445
Bi0 Ti4 2.910007 1_655
Bi0 Ti3 2.910007 1_555
Bi0 Ti2 2.996533 1_555
Bi0 Ti0 2.996534 1_555
Bi0 Ti7 3.164951 1_555
Bi0 Ti5 3.164951 1_665
Bi0 Ti5 3.164951 1_555
Bi0 Ti7 3.164952 1_665
Bi1 Ti1 2.910007 1_455
Bi1 Ti6 2.910007 1_555
Bi1 Ti7 2.996533 1_555
Bi1 Ti5 2.996534 1_555
Bi1 Ti2 3.164951 1_555
Bi1 Ti0 3.164951 1_445
Bi1 Ti0 3.164951 1_555
Bi1 Ti2 3.164952 1_445
Bi2 Ti2 2.910006 1_555
Bi2 Ti5 2.910006 1_565
Bi2 Ti4 2.996540 1_554
Bi2 Ti6 2.996540 1_554
Bi2 Ti3 3.164951 1_455
Bi2 Ti1 3.164951 1_455
Bi2 Ti1 3.164955 1_565
Bi2 Ti3 3.164955 1_565
Bi3 Ti7 2.910006 1_555
Bi3 Ti0 2.910006 1_545
Bi3 Ti1 2.996540 1_556
Bi3 Ti3 2.996540 1_556
Bi3 Ti6 3.164951 1_655
Bi3 Ti4 3.164951 1_655
Bi3 Ti4 3.164955 1_545
Bi3 Ti6 3.164955 1_545
