# generated using pymatgen
data_Zr8Nb2Sn6C
_symmetry_space_group_name_H-M   'P 1'
_cell_length_a   8.41222561
_cell_length_b   8.41222491
_cell_length_c   5.73891124
_cell_angle_alpha   90.00000000
_cell_angle_beta   90.00000000
_cell_angle_gamma   119.99999106
_symmetry_Int_Tables_number   1
_chemical_formula_structural   Zr8Nb2Sn6C
_chemical_formula_sum   'Zr8 Nb2 Sn6 C1'
_cell_volume   351.70777238
_cell_formula_units_Z   1
loop_
 _symmetry_equiv_pos_site_id
 _symmetry_equiv_pos_as_xyz
  1  'x, y, z'
loop_
 _atom_site_type_symbol
 _atom_site_label
 _atom_site_symmetry_multiplicity
 _atom_site_fract_x
 _atom_site_fract_y
 _atom_site_fract_z
 _atom_site_occupancy
  Zr  Zr0  1  0.00000000  0.76743337  0.26305612  1
  Zr  Zr1  1  0.23256663  0.23256663  0.26305612  1
  Zr  Zr2  1  0.76743337  0.00000000  0.26305612  1
  Zr  Zr3  1  1.00000000  0.23256663  0.73694388  1
  Zr  Zr4  1  0.76743337  0.76743337  0.73694388  1
  Zr  Zr5  1  0.23256663  1.00000000  0.73694388  1
  Zr  Zr6  1  0.33333300  0.66666700  0.00000000  1
  Zr  Zr7  1  0.66666700  0.33333300  0.00000000  1
  Nb  Nb0  1  0.66666700  0.33333300  0.50000000  1
  Nb  Nb1  1  0.33333300  0.66666700  0.50000000  1
  Sn  Sn0  1  0.00000000  0.40191005  0.25344794  1
  Sn  Sn1  1  0.59808995  0.59808995  0.25344794  1
  Sn  Sn2  1  0.40191005  0.00000000  0.25344794  1
  Sn  Sn3  1  1.00000000  0.59808995  0.74655206  1
  Sn  Sn4  1  0.40191005  0.40191005  0.74655206  1
  Sn  Sn5  1  0.59808995  1.00000000  0.74655206  1
  C  C0  1  0.00000000  0.00000000  0.50000000  1
loop_
_geom_bond_atom_site_label_1
_geom_bond_atom_site_label_2
_geom_bond_distance
_geom_bond_site_symmetry_2
Nb0 Zr7 2.869456 1_555
Nb0 Zr7 2.869456 1_556
Nb0 Sn5 2.929172 1_545
Nb0 Sn0 2.929172 1_655
Nb0 Sn2 2.929174 1_555
Nb0 Sn3 2.929174 1_555
Nb0 Sn1 2.929179 1_555
Nb0 Sn4 2.929179 1_555
Nb1 Zr6 2.869456 1_555
Nb1 Zr6 2.869456 1_556
Nb1 Sn2 2.929172 1_565
Nb1 Sn3 2.929172 1_455
Nb1 Sn5 2.929174 1_555
Nb1 Sn0 2.929174 1_555
Nb1 Sn4 2.929179 1_555
Nb1 Sn1 2.929179 1_555
Sn0 Zr1 2.940563 1_555
Sn0 Zr2 2.940564 1_455
Sn0 Zr7 2.948492 1_455
Sn0 Zr6 2.948495 1_555
Sn0 Zr0 3.075359 1_555
Sn0 Zr3 3.119061 1_455
Sn0 Zr3 3.288718 1_454
Sn1 Zr2 2.940563 1_565
Sn1 Zr0 2.940564 1_655
Sn1 Zr7 2.948499 1_555
Sn1 Zr6 2.948499 1_555
Sn1 Zr1 3.075359 1_555
Sn1 Zr4 3.119061 1_555
Sn1 Zr4 3.288718 1_554
Sn2 Zr1 2.940563 1_555
Sn2 Zr0 2.940564 1_545
Sn2 Zr6 2.948492 1_545
Sn2 Zr7 2.948494 1_555
Sn2 Zr2 3.075359 1_555
Sn2 Zr5 3.119061 1_545
Sn2 Zr5 3.288718 1_544
Sn3 Zr4 2.940563 1_555
Sn3 Zr5 2.940564 1_655
Sn3 Zr6 2.948492 1_656
Sn3 Zr7 2.948495 1_556
Sn3 Zr3 3.075359 1_555
Sn3 Zr0 3.119061 1_655
Sn3 Zr0 3.288718 1_656
Sn4 Zr5 2.940563 1_545
Sn4 Zr3 2.940564 1_455
Sn4 Zr6 2.948499 1_556
Sn4 Zr7 2.948499 1_556
Sn4 Zr4 3.075359 1_555
Sn4 Zr1 3.119061 1_555
Sn4 Zr1 3.288718 1_556
Sn5 Zr4 2.940563 1_555
Sn5 Zr3 2.940564 1_565
Sn5 Zr7 2.948492 1_566
Sn5 Zr6 2.948494 1_556
Sn5 Zr5 3.075359 1_555
Sn5 Zr2 3.119061 1_565
Sn5 Zr2 3.288718 1_566
C0 Zr3 2.382555 1_455
C0 Zr0 2.382555 1_545
C0 Zr5 2.382555 1_545
C0 Zr2 2.382555 1_455
C0 Zr1 2.382555 1_555
C0 Zr4 2.382555 1_445
