# generated using pymatgen
data_TcS2BrO9
_symmetry_space_group_name_H-M   'P 1'
_cell_length_a   7.08351192
_cell_length_b   7.90209664
_cell_length_c   8.03490407
_cell_angle_alpha   89.93725854
_cell_angle_beta   100.98045778
_cell_angle_gamma   112.66536923
_symmetry_Int_Tables_number   1
_chemical_formula_structural   TcS2BrO9
_chemical_formula_sum   'Tc2 S4 Br2 O18'
_cell_volume   406.11892393
_cell_formula_units_Z   2
loop_
 _symmetry_equiv_pos_site_id
 _symmetry_equiv_pos_as_xyz
  1  'x, y, z'
loop_
 _atom_site_type_symbol
 _atom_site_label
 _atom_site_symmetry_multiplicity
 _atom_site_fract_x
 _atom_site_fract_y
 _atom_site_fract_z
 _atom_site_occupancy
  Tc  Tc0  1  0.76208054  0.29928732  0.69041786  1
  Tc  Tc1  1  0.23791946  0.70071268  0.30958214  1
  S  S0  1  0.09621732  0.73034299  0.87693623  1
  S  S1  1  0.90378268  0.26965701  0.12306377  1
  S  S2  1  0.65701116  0.64510015  0.77885749  1
  S  S3  1  0.34298884  0.35489985  0.22114251  1
  Br  Br0  1  0.01398916  0.17474674  0.67909591  1
  Br  Br1  1  0.98601084  0.82525326  0.32090409  1
  O  O0  1  0.54392565  0.11436010  0.63866806  1
  O  O1  1  0.45607435  0.88563990  0.36133194  1
  O  O2  1  0.77735578  0.41123313  0.51625838  1
  O  O3  1  0.22264422  0.58876687  0.48374162  1
  O  O4  1  0.17144296  0.84919314  0.75181877  1
  O  O5  1  0.82855704  0.15080686  0.24818123  1
  O  O6  1  0.22479257  0.78606741  0.04726741  1
  O  O7  1  0.77520743  0.21393259  0.95273259  1
  O  O8  1  0.03483550  0.53439434  0.83129197  1
  O  O9  1  0.96516450  0.46560566  0.16870803  1
  O  O10  1  0.88258800  0.74716825  0.90904767  1
  O  O11  1  0.11741200  0.25283175  0.09095233  1
  O  O12  1  0.51689828  0.68089608  0.86231400  1
  O  O13  1  0.48310172  0.31910392  0.13768600  1
  O  O14  1  0.68181241  0.70292963  0.61397827  1
  O  O15  1  0.31818759  0.29707037  0.38602173  1
  O  O16  1  0.62469948  0.44334967  0.78936363  1
  O  O17  1  0.37530052  0.55665033  0.21063637  1
loop_
_geom_bond_atom_site_label_1
_geom_bond_atom_site_label_2
_geom_bond_distance
_geom_bond_site_symmetry_2
Br0 Tc0 2.361421 1_455
Br1 Tc1 2.361421 1_655
O0 Tc0 1.646961 1_555
O1 Tc1 1.646961 1_555
O2 Tc0 1.653370 1_555
O3 Tc1 1.653370 1_555
O4 S0 1.411710 1_555
O5 S1 1.411710 1_555
O6 S0 1.453904 1_554
O6 Tc1 2.208262 1_555
O7 S1 1.453904 1_556
O7 Tc0 2.208262 1_555
O8 S0 1.463811 1_555
O8 Tc0 2.206981 1_455
O9 S1 1.463811 1_555
O9 Tc1 2.206981 1_655
O10 S2 1.633963 1_555
O10 S0 1.636469 1_655
O11 S3 1.633963 1_555
O11 S1 1.636469 1_455
O12 S2 1.408908 1_555
O13 S3 1.408908 1_555
O14 S2 1.421343 1_555
O15 S3 1.421343 1_555
O16 S2 1.525449 1_555
O16 Tc0 2.006365 1_555
O17 S3 1.525449 1_555
O17 Tc1 2.006365 1_555
