# generated using pymatgen
data_Bi4Ir3RhSe4
_symmetry_space_group_name_H-M   'P 1'
_cell_length_a   6.34724495
_cell_length_b   6.34724495
_cell_length_c   6.34724495
_cell_angle_alpha   90.07552008
_cell_angle_beta   90.07552008
_cell_angle_gamma   90.07552008
_symmetry_Int_Tables_number   1
_chemical_formula_structural   Bi4Ir3RhSe4
_chemical_formula_sum   'Bi4 Ir3 Rh1 Se4'
_cell_volume   255.71408149
_cell_formula_units_Z   1
loop_
 _symmetry_equiv_pos_site_id
 _symmetry_equiv_pos_as_xyz
  1  'x, y, z'
loop_
 _atom_site_type_symbol
 _atom_site_label
 _atom_site_symmetry_multiplicity
 _atom_site_fract_x
 _atom_site_fract_y
 _atom_site_fract_z
 _atom_site_occupancy
  Bi  Bi0  1  0.12916043  0.63111970  0.87107629  1
  Bi  Bi1  1  0.63111970  0.87107629  0.12916043  1
  Bi  Bi2  1  0.87107629  0.12916043  0.63111970  1
  Bi  Bi3  1  0.36956463  0.36956463  0.36956463  1
  Ir  Ir0  1  0.48761779  0.98629322  0.51277328  1
  Ir  Ir1  1  0.98629322  0.51277328  0.48761779  1
  Ir  Ir2  1  0.51277328  0.48761779  0.98629322  1
  Rh  Rh0  1  0.01357680  0.01357680  0.01357680  1
  Se  Se0  1  0.87702180  0.38038807  0.12091822  1
  Se  Se1  1  0.38038807  0.12091822  0.87702180  1
  Se  Se2  1  0.12091822  0.87702180  0.38038807  1
  Se  Se3  1  0.62049078  0.62049078  0.62049078  1
loop_
_geom_bond_atom_site_label_1
_geom_bond_atom_site_label_2
_geom_bond_distance
_geom_bond_site_symmetry_2
Bi0 Rh0 2.692576 1_566
Bi0 Ir2 2.701114 1_555
Bi0 Ir1 2.701487 1_455
Bi0 Se0 2.759598 1_456
Bi1 Rh0 2.692576 1_665
Bi1 Ir0 2.701114 1_555
Bi1 Ir2 2.701487 1_554
Bi1 Se1 2.759598 1_564
Bi2 Rh0 2.692576 1_656
Bi2 Ir1 2.701114 1_555
Bi2 Ir0 2.701487 1_545
Bi2 Se2 2.759598 1_645
Bi3 Ir0 2.704564 1_545
Bi3 Ir2 2.704564 1_554
Bi3 Ir1 2.704564 1_455
Bi3 Se3 2.754981 1_555
Ir0 Se1 2.557167 1_565
Ir0 Se3 2.564664 1_555
Ir0 Se2 2.567795 1_555
Ir1 Se2 2.557167 1_655
Ir1 Se3 2.564664 1_555
Ir1 Se0 2.567795 1_555
Ir2 Se0 2.557167 1_556
Ir2 Se3 2.564664 1_555
Ir2 Se1 2.567795 1_555
Rh0 Se1 2.576597 1_554
Rh0 Se2 2.576597 1_545
Rh0 Se0 2.576597 1_455
