# generated using pymatgen
data_Hf2BI2
_symmetry_space_group_name_H-M   'P 1'
_cell_length_a   3.66974738
_cell_length_b   3.66974787
_cell_length_c   10.75058883
_cell_angle_alpha   90.00000000
_cell_angle_beta   90.00000000
_cell_angle_gamma   119.99999561
_symmetry_Int_Tables_number   1
_chemical_formula_structural   Hf2BI2
_chemical_formula_sum   'Hf2 B1 I2'
_cell_volume   125.38203041
_cell_formula_units_Z   1
loop_
 _symmetry_equiv_pos_site_id
 _symmetry_equiv_pos_as_xyz
  1  'x, y, z'
loop_
 _atom_site_type_symbol
 _atom_site_label
 _atom_site_symmetry_multiplicity
 _atom_site_fract_x
 _atom_site_fract_y
 _atom_site_fract_z
 _atom_site_occupancy
  Hf  Hf0  1  0.33333400  0.66666800  0.38922146  1
  Hf  Hf1  1  0.66666800  0.33333400  0.61077754  1
  B  B0  1  0.00000000  0.00000000  0.50000000  1
  I  I0  1  0.66666800  0.33333400  0.19637732  1
  I  I1  1  0.33333400  0.66666800  0.80362168  1
loop_
_geom_bond_atom_site_label_1
_geom_bond_atom_site_label_2
_geom_bond_distance
_geom_bond_site_symmetry_2
Hf0 I0 2.964307 1_455
Hf0 I0 2.964307 1_565
Hf0 I0 2.964311 1_555
Hf1 I1 2.964307 1_655
Hf1 I1 2.964307 1_545
Hf1 I1 2.964311 1_555
B0 Hf1 2.430495 1_455
B0 Hf1 2.430495 1_445
B0 Hf0 2.430500 1_545
B0 Hf0 2.430500 1_445
B0 Hf1 2.430501 1_555
B0 Hf0 2.430506 1_555
