# generated using pymatgen
data_Ca10Cu3Hg2Pd
_symmetry_space_group_name_H-M   'P 1'
_cell_length_a   9.17160993
_cell_length_b   9.17161049
_cell_length_c   9.16635563
_cell_angle_alpha   129.41427599
_cell_angle_beta   129.41426666
_cell_angle_gamma   74.38818472
_symmetry_Int_Tables_number   1
_chemical_formula_structural   Ca10Cu3Hg2Pd
_chemical_formula_sum   'Ca10 Cu3 Hg2 Pd1'
_cell_volume   448.47488476
_cell_formula_units_Z   1
loop_
 _symmetry_equiv_pos_site_id
 _symmetry_equiv_pos_as_xyz
  1  'x, y, z'
loop_
 _atom_site_type_symbol
 _atom_site_label
 _atom_site_symmetry_multiplicity
 _atom_site_fract_x
 _atom_site_fract_y
 _atom_site_fract_z
 _atom_site_occupancy
  Ca  Ca0  1  0.53039223  0.02763258  0.83870068  1
  Ca  Ca1  1  0.19169155  0.68893190  0.16129932  1
  Ca  Ca2  1  0.02946547  0.18898189  0.50000000  1
  Ca  Ca3  1  0.68695988  0.53248436  0.50000000  1
  Ca  Ca4  1  0.47236742  0.96960777  0.16129932  1
  Ca  Ca5  1  0.81106810  0.30830845  0.83870068  1
  Ca  Ca6  1  0.96751564  0.81304012  0.50000000  1
  Ca  Ca7  1  0.31101811  0.47053453  0.50000000  1
  Ca  Ca8  1  0.50087073  0.50214257  0.00301331  1
  Ca  Ca9  1  0.99785743  0.99912927  0.99698669  1
  Cu  Cu0  1  0.38319722  0.11680278  0.50000000  1
  Cu  Cu1  1  0.11097865  0.61096250  0.72194115  1
  Cu  Cu2  1  0.88903750  0.38902135  0.27805885  1
  Hg  Hg0  1  0.25107596  0.24892404  0.00000000  1
  Hg  Hg1  1  0.75107596  0.74892404  0.00000000  1
  Pd  Pd0  1  0.61542815  0.88457185  0.50000000  1
loop_
_geom_bond_atom_site_label_1
_geom_bond_atom_site_label_2
_geom_bond_distance
_geom_bond_site_symmetry_2
Ca0 Pd0 3.052843 1_545
Ca0 Cu0 3.072117 1_555
Ca0 Cu2 3.181301 1_556
Ca0 Hg1 3.321346 1_546
Ca0 Hg0 3.326965 1_556
Ca1 Pd0 3.052843 1_555
Ca1 Cu0 3.072117 1_565
Ca1 Cu1 3.181301 1_554
Ca1 Hg0 3.321346 1_555
Ca1 Hg1 3.326966 1_455
Ca2 Cu1 3.050278 1_555
Ca2 Cu2 3.050278 1_455
Ca2 Cu0 3.131721 1_555
Ca2 Hg1 3.318373 1_445
Ca2 Hg0 3.318373 1_556
Ca3 Cu2 3.062886 1_555
Ca3 Cu1 3.062886 1_655
Ca3 Pd0 3.117358 1_555
Ca3 Hg1 3.308278 1_556
Ca3 Hg0 3.308278 1_555
Ca4 Pd0 3.052843 1_555
Ca4 Cu0 3.072117 1_565
Ca4 Cu1 3.181301 1_554
Ca4 Hg1 3.321345 1_555
Ca4 Hg0 3.326966 1_565
Ca5 Pd0 3.052843 1_545
Ca5 Cu0 3.072117 1_555
Ca5 Cu2 3.181301 1_556
Ca5 Hg0 3.321346 1_656
Ca5 Hg1 3.326966 1_556
Ca6 Cu2 3.062886 1_555
Ca6 Cu1 3.062886 1_655
Ca6 Pd0 3.117358 1_555
Ca6 Hg0 3.308278 1_666
Ca6 Hg1 3.308278 1_555
Ca7 Cu1 3.050278 1_555
Ca7 Cu2 3.050278 1_455
Ca7 Cu0 3.131721 1_555
Ca7 Hg0 3.318373 1_555
Ca7 Hg1 3.318373 1_556
Ca8 Pd0 3.126453 1_555
Ca8 Cu0 3.155313 1_554
Ca8 Cu2 3.169060 1_555
Ca8 Cu1 3.172768 1_554
Ca8 Hg1 3.653104 1_555
Ca8 Hg0 3.653104 1_555
Ca9 Pd0 3.126453 1_555
Ca9 Cu0 3.155313 1_666
Ca9 Cu1 3.169059 1_655
Ca9 Cu2 3.172767 1_566
Ca9 Hg0 3.653104 1_666
Ca9 Hg1 3.653104 1_556
Cu0 Pd0 2.575160 1_545
Cu1 Cu2 2.457198 1_455
