# generated using pymatgen
data_Hg(NF7)2
_symmetry_space_group_name_H-M   'P 1'
_cell_length_a   6.77081516
_cell_length_b   6.77081504
_cell_length_c   6.77081510
_cell_angle_alpha   118.30786490
_cell_angle_beta   118.30786608
_cell_angle_gamma   92.95672753
_symmetry_Int_Tables_number   1
_chemical_formula_structural   Hg(NF7)2
_chemical_formula_sum   'Hg1 N2 F14'
_cell_volume   224.77649867
_cell_formula_units_Z   1
loop_
 _symmetry_equiv_pos_site_id
 _symmetry_equiv_pos_as_xyz
  1  'x, y, z'
loop_
 _atom_site_type_symbol
 _atom_site_label
 _atom_site_symmetry_multiplicity
 _atom_site_fract_x
 _atom_site_fract_y
 _atom_site_fract_z
 _atom_site_occupancy
  Hg  Hg0  1  0.00000000  0.00000000  0.00000000  1
  N  N0  1  0.75000000  0.25000000  0.50000000  1
  N  N1  1  0.25000000  0.75000000  0.50000000  1
  F  F0  1  0.41765915  0.96261903  0.71749562  1
  F  F1  1  0.26295775  0.15097998  0.41393673  1
  F  F2  1  0.15097998  0.73704225  0.88802324  1
  F  F3  1  0.84902002  0.26295775  0.11197676  1
  F  F4  1  0.73704225  0.84902002  0.58606327  1
  F  F5  1  0.22329726  0.22329726  0.00000000  1
  F  F6  1  0.77670274  0.77670274  1.00000000  1
  F  F7  1  0.75487659  0.29983648  0.71749562  1
  F  F8  1  0.29983648  0.58234085  0.54495989  1
  F  F9  1  0.03738097  0.75487659  0.45504011  1
  F  F10  1  0.58234085  0.03738097  0.28250438  1
  F  F11  1  0.24512341  0.70016352  0.28250438  1
  F  F12  1  0.70016352  0.41765915  0.45504011  1
  F  F13  1  0.96261903  0.24512341  0.54495989  1
loop_
_geom_bond_atom_site_label_1
_geom_bond_atom_site_label_2
_geom_bond_distance
_geom_bond_site_symmetry_2
F0 N1 1.328542 1_555
F1 Hg0 2.105319 1_555
F2 Hg0 2.105322 1_566
F3 Hg0 2.105322 1_655
F4 Hg0 2.105319 1_666
F5 Hg0 2.082281 1_555
F6 Hg0 2.082281 1_666
F7 N0 1.328542 1_555
F8 N1 1.328542 1_555
F9 N1 1.328542 1_555
F10 N0 1.328542 1_555
F11 N1 1.328542 1_555
F12 N0 1.328542 1_555
F13 N0 1.328542 1_555
