# generated using pymatgen
data_Sc6Ta4Ga12Os7
_symmetry_space_group_name_H-M   'P 1'
_cell_length_a   8.82021915
_cell_length_b   8.82021881
_cell_length_c   8.82021962
_cell_angle_alpha   60.00000432
_cell_angle_beta   60.00000557
_cell_angle_gamma   60.00000034
_symmetry_Int_Tables_number   1
_chemical_formula_structural   Sc6Ta4Ga12Os7
_chemical_formula_sum   'Sc6 Ta4 Ga12 Os7'
_cell_volume   485.20265624
_cell_formula_units_Z   1
loop_
 _symmetry_equiv_pos_site_id
 _symmetry_equiv_pos_as_xyz
  1  'x, y, z'
loop_
 _atom_site_type_symbol
 _atom_site_label
 _atom_site_symmetry_multiplicity
 _atom_site_fract_x
 _atom_site_fract_y
 _atom_site_fract_z
 _atom_site_occupancy
  Sc  Sc0  1  0.71257682  0.71257682  0.28742318  1
  Sc  Sc1  1  0.28742318  0.71257682  0.28742318  1
  Sc  Sc2  1  0.71257682  0.28742318  0.28742318  1
  Sc  Sc3  1  0.28742318  0.28742318  0.71257682  1
  Sc  Sc4  1  0.71257682  0.28742318  0.71257682  1
  Sc  Sc5  1  0.28742318  0.71257682  0.71257682  1
  Ta  Ta0  1  0.87790880  0.87790880  0.36627259  1
  Ta  Ta1  1  0.87790880  0.36627259  0.87790880  1
  Ta  Ta2  1  0.36627259  0.87790880  0.87790880  1
  Ta  Ta3  1  0.87790880  0.87790880  0.87790880  1
  Ga  Ga0  1  0.12107512  0.12107512  0.63677463  1
  Ga  Ga1  1  0.12107512  0.63677463  0.12107512  1
  Ga  Ga2  1  0.63677463  0.12107512  0.12107512  1
  Ga  Ga3  1  0.12107512  0.12107512  0.12107512  1
  Ga  Ga4  1  0.65829182  0.65829182  0.02512553  1
  Ga  Ga5  1  0.65829182  0.02512553  0.65829182  1
  Ga  Ga6  1  0.02512553  0.65829182  0.65829182  1
  Ga  Ga7  1  0.65829182  0.65829182  0.65829182  1
  Ga  Ga8  1  0.33930080  0.33930080  0.98209661  1
  Ga  Ga9  1  0.33930080  0.98209661  0.33930080  1
  Ga  Ga10  1  0.98209661  0.33930080  0.33930080  1
  Ga  Ga11  1  0.33930080  0.33930080  0.33930080  1
  Os  Os0  1  0.00000000  0.00000000  0.00000000  1
  Os  Os1  1  0.99666393  0.99666393  0.50333607  1
  Os  Os2  1  0.50333607  0.99666393  0.50333607  1
  Os  Os3  1  0.99666393  0.50333607  0.50333607  1
  Os  Os4  1  0.50333607  0.50333607  0.99666393  1
  Os  Os5  1  0.99666393  0.50333607  0.99666393  1
  Os  Os6  1  0.50333607  0.99666393  0.99666393  1
loop_
_geom_bond_atom_site_label_1
_geom_bond_atom_site_label_2
_geom_bond_distance
_geom_bond_site_symmetry_2
Sc0 Ta0 2.981885 1_555
Sc0 Ta3 2.981892 1_554
Sc1 Ta0 2.981892 1_455
Sc1 Ta2 2.981893 1_554
Sc2 Ta0 2.981892 1_545
Sc2 Ta1 2.981893 1_554
Sc3 Ta2 2.981892 1_545
Sc3 Ta1 2.981892 1_455
Sc4 Ta1 2.981885 1_555
Sc4 Ta3 2.981891 1_545
Sc5 Ta2 2.981885 1_555
Sc5 Ta3 2.981891 1_455
Ga0 Os0 2.615833 1_556
Ga0 Os1 2.753304 1_445
Ga0 Os3 2.753304 1_455
Ga0 Os2 2.753304 1_545
Ga0 Ga11 2.810388 1_555
Ga0 Ga10 2.810393 1_455
Ga0 Ga9 2.810393 1_545
Ga0 Sc5 2.977789 1_545
Ga0 Sc3 2.977789 1_555
Ga0 Sc4 2.977789 1_455
Ga0 Ta1 3.033224 1_455
Ga0 Ta2 3.033224 1_545
Ga0 Ta3 3.033230 1_445
Ga1 Os0 2.615832 1_565
Ga1 Os5 2.753304 1_454
Ga1 Os4 2.753304 1_554
Ga1 Os3 2.753305 1_455
Ga1 Ga11 2.810388 1_555
Ga1 Ga8 2.810392 1_554
Ga1 Ga10 2.810393 1_455
Ga1 Sc1 2.977789 1_555
Ga1 Sc0 2.977789 1_455
Ga1 Sc5 2.977789 1_554
Ga1 Ta0 3.033224 1_455
Ga1 Ta2 3.033224 1_554
Ga1 Ta3 3.033230 1_454
Ga2 Os0 2.615833 1_655
Ga2 Os6 2.753304 1_544
Ga2 Os4 2.753304 1_554
Ga2 Os2 2.753305 1_545
Ga2 Ga8 2.810393 1_554
Ga2 Ga9 2.810393 1_545
Ga2 Sc2 2.977789 1_555
Ga2 Sc0 2.977789 1_545
Ga2 Sc4 2.977789 1_554
Ga2 Ta0 3.033224 1_545
Ga2 Ta1 3.033224 1_554
Ga2 Ta3 3.033230 1_544
Ga3 Os0 2.615832 1_555
Ga3 Os5 2.753304 1_454
Ga3 Os6 2.753304 1_544
Ga3 Os1 2.753305 1_445
Ga3 Ga8 2.810385 1_554
Ga3 Ga9 2.810385 1_545
Ga3 Sc1 2.977789 1_545
Ga3 Sc2 2.977789 1_455
Ga3 Sc3 2.977789 1_554
Ga3 Ta1 3.033230 1_454
Ga3 Ta2 3.033230 1_544
Ga3 Ta0 3.033230 1_445
Ga4 Os6 2.520546 1_554
Ga4 Os5 2.520546 1_554
Ga4 Os4 2.520554 1_554
Ga4 Ta3 2.812876 1_554
Ga4 Ta1 2.812890 1_554
Ga4 Ta2 2.812890 1_554
Ga4 Sc0 2.873257 1_555
Ga4 Sc2 2.873263 1_555
Ga4 Sc1 2.873263 1_555
Ga5 Os1 2.520547 1_545
Ga5 Os6 2.520547 1_545
Ga5 Os2 2.520554 1_545
Ga5 Ta3 2.812876 1_545
Ga5 Ta0 2.812890 1_545
Ga5 Ta2 2.812890 1_545
Ga5 Sc4 2.873257 1_555
Ga5 Sc3 2.873263 1_555
Ga5 Sc2 2.873263 1_555
Ga6 Os1 2.520546 1_455
Ga6 Os5 2.520547 1_455
Ga6 Os3 2.520554 1_455
Ga6 Ta3 2.812876 1_455
Ga6 Ta1 2.812890 1_455
Ga6 Ta0 2.812890 1_455
Ga6 Sc5 2.873257 1_555
Ga6 Sc3 2.873263 1_555
Ga6 Sc1 2.873263 1_555
Ga7 Os2 2.520548 1_555
Ga7 Os3 2.520549 1_555
Ga7 Os4 2.520549 1_555
Ga7 Ta1 2.812880 1_555
Ga7 Ta2 2.812880 1_555
Ga7 Ta0 2.812880 1_555
Ga7 Sc4 2.873266 1_555
Ga7 Sc5 2.873266 1_555
Ga7 Sc0 2.873266 1_555
Ga8 Os6 2.582284 1_545
Ga8 Os5 2.582284 1_455
Ga8 Os4 2.582292 1_555
Ga8 Sc3 2.907716 1_555
Ga8 Sc5 2.907721 1_555
Ga8 Sc4 2.907722 1_555
Ga9 Os1 2.582284 1_455
Ga9 Os6 2.582285 1_554
Ga9 Os2 2.582292 1_555
Ga9 Sc1 2.907715 1_555
Ga9 Sc0 2.907721 1_555
Ga9 Sc5 2.907722 1_555
Ga10 Os1 2.582284 1_545
Ga10 Os5 2.582285 1_554
Ga10 Os3 2.582292 1_555
Ga10 Ga3 2.810385 1_655
Ga10 Sc2 2.907716 1_555
Ga10 Sc0 2.907721 1_555
Ga10 Sc4 2.907722 1_555
Ga11 Os2 2.582287 1_545
Ga11 Os3 2.582287 1_455
Ga11 Os4 2.582287 1_554
Ga11 Ga2 2.810388 1_555
Ga11 Sc1 2.907724 1_555
Ga11 Sc2 2.907724 1_555
Ga11 Sc3 2.907724 1_555
Os0 Ta1 2.637777 1_454
Os0 Ta2 2.637778 1_544
Os0 Ta0 2.637778 1_445
Os0 Ta3 2.637785 1_444
Os1 Ta3 2.699163 1_555
Os1 Ta0 2.699170 1_555
Os2 Ta0 2.699163 1_555
Os2 Ta2 2.699164 1_555
Os3 Ta0 2.699163 1_555
Os3 Ta1 2.699164 1_555
Os4 Ta2 2.699163 1_555
Os4 Ta1 2.699163 1_555
Os5 Ta3 2.699163 1_555
Os5 Ta1 2.699170 1_555
Os6 Ta3 2.699163 1_555
Os6 Ta2 2.699170 1_555
