# generated using pymatgen
data_Sr3Te2(IO3)2
_symmetry_space_group_name_H-M   'P 1'
_cell_length_a   9.39491450
_cell_length_b   9.39491372
_cell_length_c   11.57324238
_cell_angle_alpha   71.98442681
_cell_angle_beta   71.98442980
_cell_angle_gamma   35.83835987
_symmetry_Int_Tables_number   1
_chemical_formula_structural   Sr3Te2(IO3)2
_chemical_formula_sum   'Sr6 Te4 I4 O12'
_cell_volume   565.61518156
_cell_formula_units_Z   2
loop_
 _symmetry_equiv_pos_site_id
 _symmetry_equiv_pos_as_xyz
  1  'x, y, z'
loop_
 _atom_site_type_symbol
 _atom_site_label
 _atom_site_symmetry_multiplicity
 _atom_site_fract_x
 _atom_site_fract_y
 _atom_site_fract_z
 _atom_site_occupancy
  Sr  Sr0  1  0.24987051  0.24987051  0.77664996  1
  Sr  Sr1  1  0.75012949  0.75012949  0.22335004  1
  Sr  Sr2  1  0.02567648  0.02567648  0.81795924  1
  Sr  Sr3  1  0.97432352  0.97432352  0.18204076  1
  Sr  Sr4  1  0.67247714  0.67247714  0.60893089  1
  Sr  Sr5  1  0.32752286  0.32752286  0.39106911  1
  Te  Te0  1  0.59986655  0.59986655  0.94398105  1
  Te  Te1  1  0.40013345  0.40013345  0.05601895  1
  Te  Te2  1  0.87313018  0.87313018  0.55427651  1
  Te  Te3  1  0.12686982  0.12686982  0.44572349  1
  I  I0  1  0.82130840  0.82130840  0.89363756  1
  I  I1  1  0.17869160  0.17869160  0.10636244  1
  I  I2  1  0.47259662  0.47259662  0.68783723  1
  I  I3  1  0.52740338  0.52740338  0.31216277  1
  O  O0  1  0.86133647  0.40763435  0.81742823  1
  O  O1  1  0.40763435  0.86133647  0.81742823  1
  O  O2  1  0.13866353  0.59236565  0.18257177  1
  O  O3  1  0.59236565  0.13866353  0.18257177  1
  O  O4  1  0.71158884  0.28841116  1.00000000  1
  O  O5  1  0.28841116  0.71158884  0.00000000  1
  O  O6  1  0.88150619  0.88150619  0.39012305  1
  O  O7  1  0.11849381  0.11849381  0.60987695  1
  O  O8  1  0.03917117  0.55806264  0.59499508  1
  O  O9  1  0.55806264  0.03917117  0.59499508  1
  O  O10  1  0.96082883  0.44193736  0.40500492  1
  O  O11  1  0.44193736  0.96082883  0.40500492  1
loop_
_geom_bond_atom_site_label_1
_geom_bond_atom_site_label_2
_geom_bond_distance
_geom_bond_site_symmetry_2
I0 Sr2 3.469402 1_665
I0 Sr0 3.597769 1_655
I0 Sr0 3.597769 1_565
I0 Sr1 3.608784 1_556
I1 Sr3 3.469402 1_445
I1 Sr1 3.597769 1_455
I1 Sr1 3.597769 1_545
I1 Sr0 3.608784 1_554
I2 Sr4 3.388604 1_555
I2 Sr2 3.528867 1_565
I2 Sr2 3.528867 1_655
I2 Sr0 3.775169 1_555
I3 Sr5 3.388604 1_555
I3 Sr3 3.528867 1_545
I3 Sr3 3.528867 1_455
I3 Sr1 3.775169 1_555
O0 Te0 1.912809 1_555
O0 Sr2 2.504031 1_655
O0 Sr0 2.517735 1_655
O0 Sr4 2.634072 1_555
O1 Te0 1.912808 1_555
O1 Sr2 2.504031 1_565
O1 Sr0 2.517734 1_565
O1 Sr4 2.634072 1_555
O2 Te1 1.912809 1_555
O2 Sr3 2.504031 1_455
O2 Sr1 2.517735 1_455
O2 Sr5 2.634072 1_555
O3 Te1 1.912808 1_555
O3 Sr3 2.504031 1_545
O3 Sr1 2.517734 1_545
O3 Sr5 2.634072 1_555
O4 Te0 2.086130 1_555
O4 Te1 2.086131 1_556
O4 Sr3 2.607813 1_546
O4 Sr2 2.607813 1_655
O5 Te1 2.086130 1_555
O5 Te0 2.086131 1_554
O5 Sr2 2.607813 1_564
O5 Sr3 2.607813 1_455
O6 Te2 1.856522 1_555
O6 Sr3 2.440322 1_555
O6 Sr5 3.046341 1_655
O6 Sr5 3.046341 1_565
O7 Te3 1.856522 1_555
O7 Sr2 2.440322 1_555
O7 Sr4 3.046341 1_455
O7 Sr4 3.046341 1_545
O8 Te2 1.876873 1_455
O8 Sr0 2.497588 1_555
O8 Sr4 2.609476 1_455
O8 Sr5 2.700718 1_555
O9 Te2 1.876873 1_545
O9 Sr0 2.497589 1_555
O9 Sr4 2.609476 1_545
O9 Sr5 2.700718 1_555
O10 Te3 1.876873 1_655
O10 Sr1 2.497588 1_555
O10 Sr5 2.609476 1_655
O10 Sr4 2.700718 1_555
O11 Te3 1.876873 1_565
O11 Sr1 2.497589 1_555
O11 Sr5 2.609476 1_565
O11 Sr4 2.700718 1_555
