# generated using pymatgen
data_RbTcP2Rh
_symmetry_space_group_name_H-M   'P 1'
_cell_length_a   7.29189247
_cell_length_b   7.29189257
_cell_length_c   7.29189294
_cell_angle_alpha   147.82537402
_cell_angle_beta   147.82537509
_cell_angle_gamma   46.14322022
_symmetry_Int_Tables_number   1
_chemical_formula_structural   RbTcP2Rh
_chemical_formula_sum   'Rb1 Tc1 P2 Rh1'
_cell_volume   109.56076801
_cell_formula_units_Z   1
loop_
 _symmetry_equiv_pos_site_id
 _symmetry_equiv_pos_as_xyz
  1  'x, y, z'
loop_
 _atom_site_type_symbol
 _atom_site_label
 _atom_site_symmetry_multiplicity
 _atom_site_fract_x
 _atom_site_fract_y
 _atom_site_fract_z
 _atom_site_occupancy
  Rb  Rb0  1  0.00000000  0.00000000  0.00000000  1
  Tc  Tc0  1  0.75000000  0.25000000  0.50000000  1
  P  P0  1  0.33447854  0.33447854  1.00000000  1
  P  P1  1  0.66552146  0.66552146  0.00000000  1
  Rh  Rh0  1  0.25000000  0.75000000  0.50000000  1
loop_
_geom_bond_atom_site_label_1
_geom_bond_atom_site_label_2
_geom_bond_distance
_geom_bond_site_symmetry_2
P0 Tc0 2.316803 1_455
P0 Rh0 2.316804 1_545
P0 Tc0 2.316804 1_556
P0 Rh0 2.316804 1_556
P0 Rb0 3.619090 1_667
P0 Rb0 3.619091 1_656
P0 Rb0 3.619091 1_566
P0 Rb0 3.619091 1_555
P1 Rh0 2.316803 1_655
P1 Tc0 2.316804 1_565
P1 Rh0 2.316804 1_554
P1 Tc0 2.316804 1_554
P1 Rb0 3.619090 1_554
P1 Rb0 3.619091 1_565
P1 Rb0 3.619091 1_655
P1 Rb0 3.619091 1_666
