# generated using pymatgen
data_Zr10ZnSiSb6
_symmetry_space_group_name_H-M   'P 1'
_cell_length_a   8.64578140
_cell_length_b   8.64578141
_cell_length_c   5.83931683
_cell_angle_alpha   90.00000000
_cell_angle_beta   90.00000000
_cell_angle_gamma   119.99999617
_symmetry_Int_Tables_number   1
_chemical_formula_structural   Zr10ZnSiSb6
_chemical_formula_sum   'Zr10 Zn1 Si1 Sb6'
_cell_volume   378.00817307
_cell_formula_units_Z   1
loop_
 _symmetry_equiv_pos_site_id
 _symmetry_equiv_pos_as_xyz
  1  'x, y, z'
loop_
 _atom_site_type_symbol
 _atom_site_label
 _atom_site_symmetry_multiplicity
 _atom_site_fract_x
 _atom_site_fract_y
 _atom_site_fract_z
 _atom_site_occupancy
  Zr  Zr0  1  0.26435686  0.00000000  0.25515405  1
  Zr  Zr1  1  0.26435686  0.26435686  0.74484595  1
  Zr  Zr2  1  1.00000000  0.73564314  0.74484595  1
  Zr  Zr3  1  0.00000000  0.26435686  0.25515405  1
  Zr  Zr4  1  0.73564314  0.73564314  0.25515405  1
  Zr  Zr5  1  0.73564314  1.00000000  0.74484595  1
  Zr  Zr6  1  0.33333300  0.66666700  0.00000000  1
  Zr  Zr7  1  0.66666700  0.33333300  0.50000000  1
  Zr  Zr8  1  0.66666700  0.33333300  0.00000000  1
  Zr  Zr9  1  0.33333300  0.66666700  0.50000000  1
  Zn  Zn0  1  0.00000000  0.00000000  0.00000000  1
  Si  Si0  1  0.00000000  0.00000000  0.50000000  1
  Sb  Sb0  1  0.61027987  1.00000000  0.24703304  1
  Sb  Sb1  1  0.61027987  0.61027987  0.75296696  1
  Sb  Sb2  1  0.00000000  0.38972013  0.75296696  1
  Sb  Sb3  1  1.00000000  0.61027987  0.24703304  1
  Sb  Sb4  1  0.38972013  0.38972013  0.24703304  1
  Sb  Sb5  1  0.38972013  0.00000000  0.75296696  1
loop_
_geom_bond_atom_site_label_1
_geom_bond_atom_site_label_2
_geom_bond_distance
_geom_bond_site_symmetry_2
Zn0 Zr0 2.728317 1_555
Zn0 Zr5 2.728317 1_444
Zn0 Zr3 2.728317 1_555
Zn0 Zr2 2.728317 1_444
Zn0 Zr1 2.728317 1_554
Zn0 Zr4 2.728317 1_445
Si0 Zr0 2.695918 1_555
Si0 Zr5 2.695918 1_445
Si0 Zr3 2.695918 1_555
Si0 Zr2 2.695918 1_445
Si0 Zr1 2.695918 1_555
Si0 Zr4 2.695918 1_445
Si0 Zn0 2.919658 1_555
Si0 Zn0 2.919658 1_556
Sb0 Zr4 2.979613 1_555
Sb0 Zr3 2.979613 1_665
Sb0 Zr0 2.991151 1_565
Sb0 Zr8 3.036281 1_565
Sb0 Zr6 3.036284 1_555
Sb0 Zr7 3.052895 1_565
Sb0 Zr9 3.052898 1_555
Sb0 Zr5 3.102379 1_555
Sb0 Zr5 3.126324 1_554
Sb1 Zr2 2.979613 1_555
Sb1 Zr5 2.979613 1_555
Sb1 Zr1 2.991151 1_555
Sb1 Zr6 3.036289 1_556
Sb1 Zr8 3.036289 1_556
Sb1 Zr9 3.052903 1_555
Sb1 Zr7 3.052903 1_555
Sb1 Zr4 3.102379 1_555
Sb1 Zr4 3.126324 1_556
Sb2 Zr1 2.979613 1_555
Sb2 Zr5 2.979613 1_445
Sb2 Zr2 2.991151 1_455
Sb2 Zr8 3.036281 1_456
Sb2 Zr6 3.036284 1_556
Sb2 Zr7 3.052895 1_455
Sb2 Zr9 3.052898 1_555
Sb2 Zr3 3.102379 1_555
Sb2 Zr3 3.126324 1_556
Sb3 Zr4 2.979613 1_555
Sb3 Zr0 2.979613 1_665
Sb3 Zr3 2.991151 1_655
Sb3 Zr6 3.036281 1_655
Sb3 Zr8 3.036284 1_555
Sb3 Zr9 3.052895 1_655
Sb3 Zr7 3.052898 1_555
Sb3 Zr2 3.102379 1_555
Sb3 Zr2 3.126324 1_554
Sb4 Zr3 2.979613 1_555
Sb4 Zr0 2.979613 1_555
Sb4 Zr4 2.991151 1_555
Sb4 Zr8 3.036289 1_555
Sb4 Zr6 3.036289 1_555
Sb4 Zr7 3.052903 1_555
Sb4 Zr9 3.052903 1_555
Sb4 Zr1 3.102379 1_555
Sb4 Zr1 3.126324 1_554
Sb5 Zr1 2.979613 1_555
Sb5 Zr2 2.979613 1_445
Sb5 Zr5 2.991151 1_545
Sb5 Zr6 3.036281 1_546
Sb5 Zr8 3.036284 1_556
Sb5 Zr9 3.052895 1_545
Sb5 Zr7 3.052898 1_555
Sb5 Zr0 3.102379 1_555
Sb5 Zr0 3.126324 1_556
