# generated using pymatgen
data_RbNb4Cl11
_symmetry_space_group_name_H-M   'P 1'
_cell_length_a   6.77349360
_cell_length_b   6.96500625
_cell_length_c   16.27990867
_cell_angle_alpha   90.00000000
_cell_angle_beta   90.00000000
_cell_angle_gamma   90.00000000
_symmetry_Int_Tables_number   1
_chemical_formula_structural   RbNb4Cl11
_chemical_formula_sum   'Rb2 Nb8 Cl22'
_cell_volume   768.04417449
_cell_formula_units_Z   2
loop_
 _symmetry_equiv_pos_site_id
 _symmetry_equiv_pos_as_xyz
  1  'x, y, z'
loop_
 _atom_site_type_symbol
 _atom_site_label
 _atom_site_symmetry_multiplicity
 _atom_site_fract_x
 _atom_site_fract_y
 _atom_site_fract_z
 _atom_site_occupancy
  Rb  Rb0  1  0.98461450  0.50000000  0.75000000  1
  Rb  Rb1  1  0.01538550  0.50000000  0.25000000  1
  Nb  Nb0  1  0.50000000  0.78626212  -0.00000000  1
  Nb  Nb1  1  0.50000000  0.21373788  0.50000000  1
  Nb  Nb2  1  0.50000000  0.21373788  -0.00000000  1
  Nb  Nb3  1  0.50000000  0.78626212  0.50000000  1
  Nb  Nb4  1  0.38099349  0.00000000  0.85900251  1
  Nb  Nb5  1  0.38099349  0.00000000  0.64099749  1
  Nb  Nb6  1  0.61900651  0.00000000  0.14099749  1
  Nb  Nb7  1  0.61900651  0.00000000  0.35900251  1
  Cl  Cl0  1  0.51985491  0.76635847  0.75000000  1
  Cl  Cl1  1  0.51985491  0.23364153  0.75000000  1
  Cl  Cl2  1  0.48014509  0.76635847  0.25000000  1
  Cl  Cl3  1  0.48014509  0.23364153  0.25000000  1
  Cl  Cl4  1  0.09364917  0.00000000  0.75000000  1
  Cl  Cl5  1  0.90635083  0.00000000  0.25000000  1
  Cl  Cl6  1  0.35853753  0.50000000  0.08303192  1
  Cl  Cl7  1  0.35853753  0.50000000  0.41696808  1
  Cl  Cl8  1  0.64146247  0.50000000  0.91696808  1
  Cl  Cl9  1  0.64146247  0.50000000  0.58303192  1
  Cl  Cl10  1  0.28257894  0.00000000  0.41463940  1
  Cl  Cl11  1  0.28257894  0.00000000  0.08536060  1
  Cl  Cl12  1  0.71742106  0.00000000  0.58536060  1
  Cl  Cl13  1  0.71742106  0.00000000  0.91463940  1
  Cl  Cl14  1  0.81614768  0.74708642  0.42042883  1
  Cl  Cl15  1  0.81614768  0.25291358  0.07957117  1
  Cl  Cl16  1  0.18385232  0.74708642  0.57957117  1
  Cl  Cl17  1  0.18385232  0.25291358  0.92042883  1
  Cl  Cl18  1  0.18385232  0.25291358  0.57957117  1
  Cl  Cl19  1  0.18385232  0.74708642  0.92042883  1
  Cl  Cl20  1  0.81614768  0.25291358  0.42042883  1
  Cl  Cl21  1  0.81614768  0.74708642  0.07957117  1
loop_
_geom_bond_atom_site_label_1
_geom_bond_atom_site_label_2
_geom_bond_distance
_geom_bond_site_symmetry_2
Cl0 Nb4 2.584931 1_565
Cl0 Nb5 2.584931 1_565
Cl0 Rb0 3.654028 1_555
Cl1 Nb5 2.584931 1_555
Cl1 Nb4 2.584931 1_555
Cl1 Rb0 3.654028 1_555
Cl2 Nb6 2.584931 1_565
Cl2 Nb7 2.584931 1_565
Cl2 Rb1 3.654028 1_555
Cl3 Nb7 2.584931 1_555
Cl3 Nb6 2.584931 1_555
Cl3 Rb1 3.654028 1_555
Cl4 Nb5 2.633859 1_555
Cl4 Nb4 2.633859 1_555
Cl4 Rb0 3.559955 1_445
Cl4 Rb0 3.559955 1_455
Cl5 Nb6 2.633859 1_555
Cl5 Nb7 2.633859 1_555
Cl5 Rb1 3.559955 1_645
Cl5 Rb1 3.559955 1_655
Cl6 Nb0 2.592427 1_555
Cl6 Nb2 2.592427 1_555
Cl6 Rb1 3.576492 1_555
Cl7 Nb3 2.592427 1_555
Cl7 Nb1 2.592427 1_555
Cl7 Rb1 3.576492 1_555
Cl8 Nb0 2.592427 1_556
Cl8 Nb2 2.592427 1_556
Cl8 Rb0 3.576492 1_555
Cl9 Nb3 2.592427 1_555
Cl9 Nb1 2.592427 1_555
Cl9 Rb0 3.576492 1_555
Cl10 Nb7 2.452201 1_555
Cl10 Nb3 2.513204 1_545
Cl10 Nb1 2.513204 1_555
Cl11 Nb6 2.452201 1_555
Cl11 Nb0 2.513204 1_545
Cl11 Nb2 2.513204 1_555
Cl12 Nb5 2.452201 1_555
Cl12 Nb1 2.513204 1_555
Cl12 Nb3 2.513204 1_545
Cl13 Nb4 2.452201 1_555
Cl13 Nb2 2.513204 1_556
Cl13 Nb0 2.513204 1_546
Cl14 Nb7 2.426147 1_565
Cl14 Nb3 2.517586 1_555
Cl14 Rb1 3.532869 1_655
Cl15 Nb6 2.426147 1_555
Cl15 Nb2 2.517586 1_555
Cl15 Rb1 3.532869 1_655
Cl16 Nb5 2.426147 1_565
Cl16 Nb3 2.517586 1_555
Cl16 Rb0 3.532869 1_455
Cl17 Nb4 2.426147 1_555
Cl17 Nb2 2.517586 1_556
Cl17 Rb0 3.532869 1_455
Cl18 Nb5 2.426147 1_555
Cl18 Nb1 2.517586 1_555
Cl18 Rb0 3.532869 1_455
Cl19 Nb4 2.426147 1_565
Cl19 Nb0 2.517586 1_556
Cl19 Rb0 3.532869 1_455
Cl20 Nb7 2.426147 1_555
Cl20 Nb1 2.517586 1_555
Cl20 Rb1 3.532869 1_655
Cl21 Nb6 2.426147 1_565
Cl21 Nb0 2.517586 1_555
Cl21 Rb1 3.532869 1_655
