# generated using pymatgen
data_LiMn8O16
_symmetry_space_group_name_H-M   'P 1'
_cell_length_a   5.91740500
_cell_length_b   8.29519500
_cell_length_c   11.70526700
_cell_angle_alpha   90.00000000
_cell_angle_beta   90.00000000
_cell_angle_gamma   90.00000000
_symmetry_Int_Tables_number   1
_chemical_formula_structural   LiMn8O16
_chemical_formula_sum   'Li2 Mn16 O32'
_cell_volume   574.56506803
_cell_formula_units_Z   2
loop_
 _symmetry_equiv_pos_site_id
 _symmetry_equiv_pos_as_xyz
  1  'x, y, z'
loop_
 _atom_site_type_symbol
 _atom_site_label
 _atom_site_symmetry_multiplicity
 _atom_site_fract_x
 _atom_site_fract_y
 _atom_site_fract_z
 _atom_site_occupancy
  Li  Li0  1  0.00000000  0.62438500  0.50000000  1
  Li  Li1  1  0.50000000  0.37561500  0.00000000  1
  Mn  Mn0  1  0.25000000  0.50000000  0.25000000  1
  Mn  Mn1  1  0.50000000  0.75007900  0.37290200  1
  Mn  Mn2  1  0.74980300  0.00013200  0.50000000  1
  Mn  Mn3  1  0.00000000  0.24757100  0.37554300  1
  Mn  Mn4  1  0.00000000  0.24757100  0.62445700  1
  Mn  Mn5  1  0.25019700  0.00013200  0.50000000  1
  Mn  Mn6  1  0.25000000  0.50000000  0.75000000  1
  Mn  Mn7  1  0.50000000  0.75007900  0.62709800  1
  Mn  Mn8  1  0.50000000  0.75242900  0.87554300  1
  Mn  Mn9  1  0.75000000  0.50000000  0.75000000  1
  Mn  Mn10  1  0.75019700  0.99986800  0.00000000  1
  Mn  Mn11  1  0.00000000  0.24992100  0.87290200  1
  Mn  Mn12  1  0.00000000  0.24992100  0.12709800  1
  Mn  Mn13  1  0.24980300  0.99986800  0.00000000  1
  Mn  Mn14  1  0.50000000  0.75242900  0.12445700  1
  Mn  Mn15  1  0.75000000  0.50000000  0.25000000  1
  O  O0  1  0.00000000  0.48102200  0.36734200  1
  O  O1  1  0.28462100  0.73834400  0.24982100  1
  O  O2  1  0.27878800  0.76235700  0.50000000  1
  O  O3  1  0.50000000  0.51700400  0.35820100  1
  O  O4  1  0.50000000  0.98378100  0.60890400  1
  O  O5  1  0.50000000  0.98378100  0.39109600  1
  O  O6  1  0.72121200  0.76235700  0.50000000  1
  O  O7  1  0.71537900  0.73834400  0.24982100  1
  O  O8  1  0.78183200  0.23294400  0.50000000  1
  O  O9  1  0.78462100  0.26165600  0.74982100  1
  O  O10  1  0.00000000  0.01353800  0.39078900  1
  O  O11  1  0.00000000  0.01353800  0.60921100  1
  O  O12  1  0.00000000  0.48299600  0.85820100  1
  O  O13  1  0.00000000  0.48102200  0.63265800  1
  O  O14  1  0.21537900  0.26165600  0.74982100  1
  O  O15  1  0.21816800  0.23294400  0.50000000  1
  O  O16  1  0.28462100  0.73834400  0.75017900  1
  O  O17  1  0.28183200  0.76705600  0.00000000  1
  O  O18  1  0.50000000  0.51700400  0.64179900  1
  O  O19  1  0.50000000  0.51897800  0.86734200  1
  O  O20  1  0.50000000  0.98646200  0.10921100  1
  O  O21  1  0.50000000  0.98646200  0.89078900  1
  O  O22  1  0.71816800  0.76705600  0.00000000  1
  O  O23  1  0.71537900  0.73834400  0.75017900  1
  O  O24  1  0.77878800  0.23764300  0.00000000  1
  O  O25  1  0.78462100  0.26165600  0.25017900  1
  O  O26  1  0.00000000  0.01621900  0.89109600  1
  O  O27  1  0.00000000  0.01621900  0.10890400  1
  O  O28  1  0.00000000  0.48299600  0.14179900  1
  O  O29  1  0.21537900  0.26165600  0.25017900  1
  O  O30  1  0.22121200  0.23764300  0.00000000  1
  O  O31  1  0.50000000  0.51897800  0.13265800  1
loop_
_geom_bond_atom_site_label_1
_geom_bond_atom_site_label_2
_geom_bond_distance
_geom_bond_site_symmetry_2
Li0 O13 1.955871 1_555
Li0 O0 1.955871 1_555
Li0 O2 2.007836 1_555
Li0 O6 2.007836 1_455
Li1 O31 1.955871 1_555
Li1 O19 1.955871 1_554
Li1 O24 2.007836 1_555
Li1 O30 2.007836 1_555
Mn0 O3 1.952550 1_555
Mn0 O28 1.952550 1_555
Mn0 O29 1.987697 1_555
Mn0 O1 1.987697 1_555
Mn0 O31 2.024801 1_555
Mn0 O0 2.024801 1_555
Mn1 O7 1.925978 1_555
Mn1 O1 1.925978 1_555
Mn1 O3 1.941045 1_555
Mn1 O5 1.950266 1_555
Mn1 O6 1.984227 1_555
Mn1 O2 1.984227 1_555
Mn2 O8 1.940499 1_555
Mn2 O4 1.956634 1_545
Mn2 O5 1.956634 1_545
Mn2 O11 1.959199 1_655
Mn2 O10 1.959199 1_655
Mn2 O6 1.979633 1_545
Mn3 O0 1.938899 1_555
Mn3 O29 1.947121 1_555
Mn3 O25 1.947121 1_455
Mn3 O10 1.949535 1_555
Mn3 O15 1.950294 1_555
Mn3 O8 1.950294 1_455
Mn4 O13 1.938899 1_555
Mn4 O9 1.947121 1_455
Mn4 O14 1.947121 1_555
Mn4 O11 1.949535 1_555
Mn4 O15 1.950294 1_555
Mn4 O8 1.950294 1_455
Mn5 O15 1.940499 1_555
Mn5 O4 1.956634 1_545
Mn5 O5 1.956634 1_545
Mn5 O11 1.959199 1_555
Mn5 O10 1.959199 1_555
Mn5 O2 1.979633 1_545
Mn6 O12 1.952550 1_555
Mn6 O18 1.952550 1_555
Mn6 O16 1.987697 1_555
Mn6 O14 1.987697 1_555
Mn6 O19 2.024801 1_555
Mn6 O13 2.024801 1_555
Mn7 O23 1.925978 1_555
Mn7 O16 1.925978 1_555
Mn7 O18 1.941045 1_555
Mn7 O4 1.950266 1_555
Mn7 O6 1.984227 1_555
Mn7 O2 1.984227 1_555
Mn8 O19 1.938899 1_555
Mn8 O16 1.947121 1_555
Mn8 O23 1.947121 1_555
Mn8 O21 1.949535 1_555
Mn8 O22 1.950294 1_556
Mn8 O17 1.950294 1_556
Mn9 O12 1.952550 1_655
Mn9 O18 1.952550 1_555
Mn9 O9 1.987697 1_555
Mn9 O23 1.987697 1_555
Mn9 O19 2.024801 1_555
Mn9 O13 2.024801 1_655
Mn10 O22 1.940499 1_555
Mn10 O27 1.956634 1_665
Mn10 O26 1.956634 1_664
Mn10 O20 1.959199 1_555
Mn10 O21 1.959199 1_554
Mn10 O24 1.979633 1_565
Mn11 O9 1.925978 1_455
Mn11 O14 1.925978 1_555
Mn11 O12 1.941045 1_555
Mn11 O26 1.950266 1_555
Mn11 O30 1.984227 1_556
Mn11 O24 1.984227 1_456
Mn12 O25 1.925978 1_455
Mn12 O29 1.925978 1_555
Mn12 O28 1.941045 1_555
Mn12 O27 1.950266 1_555
Mn12 O30 1.984227 1_555
Mn12 O24 1.984227 1_455
Mn13 O17 1.940499 1_555
Mn13 O27 1.956634 1_565
Mn13 O26 1.956634 1_564
Mn13 O20 1.959199 1_555
Mn13 O21 1.959199 1_554
Mn13 O30 1.979633 1_565
Mn14 O31 1.938899 1_555
Mn14 O7 1.947121 1_555
Mn14 O1 1.947121 1_555
Mn14 O20 1.949535 1_555
Mn14 O22 1.950294 1_555
Mn14 O17 1.950294 1_555
Mn15 O3 1.952550 1_555
Mn15 O28 1.952550 1_655
Mn15 O25 1.987697 1_555
Mn15 O7 1.987697 1_555
Mn15 O31 2.024801 1_555
Mn15 O0 2.024801 1_655
