# generated using pymatgen
data_Ba3NbF10
_symmetry_space_group_name_H-M   'P 1'
_cell_length_a   8.61033168
_cell_length_b   8.61033269
_cell_length_c   6.10354271
_cell_angle_alpha   90.00000000
_cell_angle_beta   90.00000000
_cell_angle_gamma   100.21549600
_symmetry_Int_Tables_number   1
_chemical_formula_structural   Ba3NbF10
_chemical_formula_sum   'Ba6 Nb2 F20'
_cell_volume   445.33012406
_cell_formula_units_Z   2
loop_
 _symmetry_equiv_pos_site_id
 _symmetry_equiv_pos_as_xyz
  1  'x, y, z'
loop_
 _atom_site_type_symbol
 _atom_site_label
 _atom_site_symmetry_multiplicity
 _atom_site_fract_x
 _atom_site_fract_y
 _atom_site_fract_z
 _atom_site_occupancy
  Ba  Ba0  1  0.82566966  0.60104268  0.75000000  1
  Ba  Ba1  1  0.17433034  0.39895732  0.25000000  1
  Ba  Ba2  1  0.39895732  0.17433034  0.75000000  1
  Ba  Ba3  1  0.60104268  0.82566966  0.25000000  1
  Ba  Ba4  1  0.88746475  0.11253525  0.75000000  1
  Ba  Ba5  1  0.11253525  0.88746475  0.25000000  1
  Nb  Nb0  1  0.31947565  0.68052435  0.75000000  1
  Nb  Nb1  1  0.68052435  0.31947565  0.25000000  1
  F  F0  1  0.13904323  0.13904323  0.50000000  1
  F  F1  1  0.86095677  0.86095677  0.50000000  1
  F  F2  1  0.86095677  0.86095677  0.00000000  1
  F  F3  1  0.13904323  0.13904323  0.00000000  1
  F  F4  1  0.11616340  0.64883671  0.53917926  1
  F  F5  1  0.88383660  0.35116329  0.46082074  1
  F  F6  1  0.88383660  0.35116329  0.03917926  1
  F  F7  1  0.35116329  0.88383660  0.96082074  1
  F  F8  1  0.11616340  0.64883671  0.96082074  1
  F  F9  1  0.64883671  0.11616340  0.03917926  1
  F  F10  1  0.64883671  0.11616340  0.46082074  1
  F  F11  1  0.35116329  0.88383660  0.53917926  1
  F  F12  1  0.23985759  0.43501912  0.75000000  1
  F  F13  1  0.76014241  0.56498088  0.25000000  1
  F  F14  1  0.56498088  0.76014241  0.75000000  1
  F  F15  1  0.43501912  0.23985759  0.25000000  1
  F  F16  1  0.60427454  0.39572546  0.53994989  1
  F  F17  1  0.39572546  0.60427454  0.46005011  1
  F  F18  1  0.39572546  0.60427454  0.03994989  1
  F  F19  1  0.60427454  0.39572546  0.96005011  1
loop_
_geom_bond_atom_site_label_1
_geom_bond_atom_site_label_2
_geom_bond_distance
_geom_bond_site_symmetry_2
Ba0 F1 2.681019 1_555
Ba0 F2 2.681019 1_556
Ba0 F19 2.684681 1_555
Ba0 F16 2.684681 1_555
Ba0 F8 2.777809 1_655
Ba0 F4 2.777809 1_655
Ba0 F14 2.829419 1_555
Ba0 F6 2.894389 1_556
Ba0 F5 2.894389 1_555
Ba0 F13 3.109006 1_556
Ba0 F13 3.109006 1_555
Ba1 F3 2.681019 1_555
Ba1 F0 2.681019 1_555
Ba1 F17 2.684681 1_555
Ba1 F18 2.684681 1_555
Ba1 F5 2.777809 1_455
Ba1 F6 2.777809 1_455
Ba1 F15 2.829419 1_555
Ba1 F4 2.894389 1_555
Ba1 F8 2.894389 1_554
Ba1 F12 3.109006 1_554
Ba1 F12 3.109006 1_555
Ba2 F0 2.681019 1_555
Ba2 F3 2.681019 1_556
Ba2 F19 2.684681 1_555
Ba2 F16 2.684681 1_555
Ba2 F7 2.777809 1_545
Ba2 F11 2.777809 1_545
Ba2 F12 2.829419 1_555
Ba2 F9 2.894389 1_556
Ba2 F10 2.894389 1_555
Ba2 F15 3.109006 1_555
Ba2 F15 3.109006 1_556
Ba3 F1 2.681019 1_555
Ba3 F2 2.681019 1_555
Ba3 F17 2.684681 1_555
Ba3 F18 2.684681 1_555
Ba3 F10 2.777809 1_565
Ba3 F9 2.777809 1_565
Ba3 F13 2.829419 1_555
Ba3 F11 2.894389 1_555
Ba3 F7 2.894389 1_554
Ba3 F14 3.109006 1_554
Ba3 F14 3.109006 1_555
Ba4 F3 2.626283 1_656
Ba4 F0 2.626283 1_655
Ba4 F1 2.626283 1_545
Ba4 F2 2.626283 1_546
Ba4 F9 2.713058 1_556
Ba4 F10 2.713058 1_555
Ba4 F6 2.713059 1_556
Ba4 F5 2.713059 1_555
Ba5 F2 2.626283 1_455
Ba5 F1 2.626283 1_455
Ba5 F3 2.626283 1_565
Ba5 F0 2.626283 1_565
Ba5 F11 2.713058 1_555
Ba5 F7 2.713058 1_554
Ba5 F4 2.713059 1_555
Ba5 F8 2.713059 1_554
F4 Nb0 2.150654 1_555
F5 Nb1 2.150654 1_555
F6 Nb1 2.150654 1_555
F7 Nb0 2.150654 1_555
F8 Nb0 2.150654 1_555
F9 Nb1 2.150654 1_555
F10 Nb1 2.150654 1_555
F11 Nb0 2.150654 1_555
F12 Nb0 2.103436 1_555
F13 Nb1 2.103436 1_555
F14 Nb0 2.103436 1_555
F15 Nb1 2.103436 1_555
F16 Nb1 2.036390 1_555
F17 Nb0 2.036390 1_555
F18 Nb0 2.036390 1_554
F19 Nb1 2.036390 1_556
