# generated using pymatgen
data_K3VTe4
_symmetry_space_group_name_H-M   'P 1'
_cell_length_a   10.23499040
_cell_length_b   10.20605408
_cell_length_c   11.71362751
_cell_angle_alpha   90.00000000
_cell_angle_beta   90.00000000
_cell_angle_gamma   90.00000000
_symmetry_Int_Tables_number   1
_chemical_formula_structural   K3VTe4
_chemical_formula_sum   'K12 V4 Te16'
_cell_volume   1223.59224002
_cell_formula_units_Z   4
loop_
 _symmetry_equiv_pos_site_id
 _symmetry_equiv_pos_as_xyz
  1  'x, y, z'
loop_
 _atom_site_type_symbol
 _atom_site_label
 _atom_site_symmetry_multiplicity
 _atom_site_fract_x
 _atom_site_fract_y
 _atom_site_fract_z
 _atom_site_occupancy
  K  K0  1  0.05144009  0.20240035  0.04681890  1
  K  K1  1  0.13184744  0.40657347  0.75000000  1
  K  K2  1  0.36815256  0.90657347  0.25000000  1
  K  K3  1  0.63184744  0.09342653  0.75000000  1
  K  K4  1  0.86815256  0.59342653  0.25000000  1
  K  K5  1  0.94855991  0.79759965  0.54681890  1
  K  K6  1  0.55144009  0.29759965  0.45318110  1
  K  K7  1  0.44855991  0.70240035  0.95318110  1
  K  K8  1  0.55144009  0.29759965  0.04681890  1
  K  K9  1  0.05144009  0.20240035  0.45318110  1
  K  K10  1  0.44855991  0.70240035  0.54681890  1
  K  K11  1  0.94855991  0.79759965  0.95318110  1
  V  V0  1  0.78776102  0.01801128  0.25000000  1
  V  V1  1  0.71223898  0.51801128  0.75000000  1
  V  V2  1  0.28776102  0.48198872  0.25000000  1
  V  V3  1  0.21223898  0.98198872  0.75000000  1
  Te  Te0  1  0.33192433  0.04989287  0.92584959  1
  Te  Te1  1  0.19317826  0.73872597  0.75000000  1
  Te  Te2  1  0.30682174  0.23872597  0.25000000  1
  Te  Te3  1  0.69317826  0.76127403  0.75000000  1
  Te  Te4  1  0.80682174  0.26127403  0.25000000  1
  Te  Te5  1  0.98791366  0.08198602  0.75000000  1
  Te  Te6  1  0.51208634  0.58198602  0.25000000  1
  Te  Te7  1  0.48791366  0.41801398  0.75000000  1
  Te  Te8  1  0.01208634  0.91801398  0.25000000  1
  Te  Te9  1  0.66807567  0.95010713  0.42584959  1
  Te  Te10  1  0.83192433  0.45010713  0.57415041  1
  Te  Te11  1  0.16807567  0.54989287  0.07415041  1
  Te  Te12  1  0.66807567  0.95010713  0.07415041  1
  Te  Te13  1  0.33192433  0.04989287  0.57415041  1
  Te  Te14  1  0.16807567  0.54989287  0.42584959  1
  Te  Te15  1  0.83192433  0.45010713  0.92584959  1
loop_
_geom_bond_atom_site_label_1
_geom_bond_atom_site_label_2
_geom_bond_distance
_geom_bond_site_symmetry_2
K0 Te4 3.506242 1_455
K0 Te2 3.554419 1_555
K0 Te0 3.559744 1_554
K0 Te15 3.667021 1_454
K0 Te5 3.744516 1_454
K0 Te11 3.755719 1_555
K0 Te8 3.775032 1_545
K1 Te1 3.447594 1_555
K1 Te5 3.625543 1_455
K1 Te7 3.646204 1_555
K1 Te15 3.723366 1_455
K1 Te10 3.723366 1_455
K1 Te11 4.085840 1_556
K1 Te14 4.085840 1_555
K2 Te2 3.447594 1_565
K2 Te6 3.625543 1_555
K2 Te8 3.646204 1_555
K2 Te9 3.723366 1_555
K2 Te12 3.723366 1_555
K2 Te13 4.085840 1_565
K2 Te0 4.085840 1_564
K3 Te3 3.447594 1_545
K3 Te7 3.625543 1_555
K3 Te5 3.646204 1_555
K3 Te0 3.723366 1_555
K3 Te13 3.723366 1_555
K3 Te12 4.085840 1_546
K3 Te9 4.085840 1_545
K4 Te4 3.447594 1_555
K4 Te8 3.625543 1_655
K4 Te6 3.646204 1_555
K4 Te14 3.723366 1_655
K4 Te11 3.723366 1_655
K4 Te10 4.085840 1_555
K4 Te15 4.085840 1_554
K5 Te1 3.506242 1_655
K5 Te3 3.554419 1_555
K5 Te9 3.559744 1_555
K5 Te14 3.667021 1_655
K5 Te8 3.744516 1_655
K5 Te10 3.755719 1_555
K5 Te5 3.775032 1_565
K6 Te2 3.506242 1_555
K6 Te4 3.554419 1_555
K6 Te10 3.559744 1_555
K6 Te13 3.667021 1_555
K6 Te7 3.744516 1_555
K6 Te9 3.755719 1_545
K6 Te6 3.775032 1_555
K7 Te3 3.506242 1_555
K7 Te1 3.554419 1_555
K7 Te11 3.559744 1_556
K7 Te12 3.667021 1_556
K7 Te6 3.744516 1_556
K7 Te0 3.755719 1_565
K7 Te7 3.775032 1_555
K8 Te2 3.506242 1_555
K8 Te4 3.554419 1_555
K8 Te15 3.559744 1_554
K8 Te0 3.667021 1_554
K8 Te7 3.744516 1_554
K8 Te12 3.755719 1_545
K8 Te6 3.775032 1_555
K9 Te4 3.506242 1_455
K9 Te2 3.554419 1_555
K9 Te13 3.559744 1_555
K9 Te10 3.667021 1_455
K9 Te5 3.744516 1_455
K9 Te14 3.755719 1_555
K9 Te8 3.775032 1_545
K10 Te3 3.506242 1_555
K10 Te1 3.554419 1_555
K10 Te14 3.559744 1_555
K10 Te9 3.667021 1_555
K10 Te6 3.744516 1_555
K10 Te13 3.755719 1_565
K10 Te7 3.775032 1_555
K11 Te1 3.506242 1_655
K11 Te3 3.554419 1_555
K11 Te12 3.559744 1_556
K11 Te11 3.667021 1_656
K11 Te8 3.744516 1_656
K11 Te15 3.755719 1_555
K11 Te5 3.775032 1_565
Te0 V3 2.494753 1_545
Te1 V3 2.490406 1_555
Te2 V2 2.490406 1_555
Te3 V1 2.490406 1_555
Te4 V0 2.490406 1_555
Te5 V3 2.512577 1_645
Te6 V2 2.512577 1_555
Te7 V1 2.512577 1_555
Te8 V0 2.512577 1_465
Te9 V0 2.494753 1_565
Te10 V1 2.494753 1_555
Te11 V2 2.494753 1_555
Te12 V0 2.494753 1_565
Te13 V3 2.494753 1_545
Te14 V2 2.494753 1_555
Te15 V1 2.494753 1_555
