# generated using pymatgen
data_KNi2(Sb6Os)2
_symmetry_space_group_name_H-M   'P 1'
_cell_length_a   8.07420362
_cell_length_b   8.05744964
_cell_length_c   8.07420398
_cell_angle_alpha   109.59597266
_cell_angle_beta   109.41080885
_cell_angle_gamma   109.49130135
_symmetry_Int_Tables_number   1
_chemical_formula_structural   KNi2(Sb6Os)2
_chemical_formula_sum   'K1 Ni2 Sb12 Os2'
_cell_volume   403.94381668
_cell_formula_units_Z   1
loop_
 _symmetry_equiv_pos_site_id
 _symmetry_equiv_pos_as_xyz
  1  'x, y, z'
loop_
 _atom_site_type_symbol
 _atom_site_label
 _atom_site_symmetry_multiplicity
 _atom_site_fract_x
 _atom_site_fract_y
 _atom_site_fract_z
 _atom_site_occupancy
  K  K0  1  0.00000000  0.00000000  0.00000000  1
  Ni  Ni0  1  0.50000000  0.00000000  0.00000000  1
  Ni  Ni1  1  0.00000000  0.00000000  0.50000000  1
  Sb  Sb0  1  0.84398869  0.66157084  0.50150759  1
  Sb  Sb1  1  0.15601131  0.33842916  0.49849241  1
  Sb  Sb2  1  0.16006325  0.66157084  0.81758315  1
  Sb  Sb3  1  0.83993675  0.33842916  0.18241685  1
  Sb  Sb4  1  0.65950175  0.50367511  0.84417236  1
  Sb  Sb5  1  0.34049825  0.49632489  0.15582764  1
  Sb  Sb6  1  0.65879228  0.81768063  0.15888735  1
  Sb  Sb7  1  0.34120772  0.18231937  0.84111265  1
  Sb  Sb8  1  0.50137630  0.84444209  0.66188405  1
  Sb  Sb9  1  0.49862370  0.15555791  0.33811595  1
  Sb  Sb10  1  0.18255804  0.84444209  0.34306678  1
  Sb  Sb11  1  0.81744196  0.15555791  0.65693322  1
  Os  Os0  1  0.50000000  0.50000000  0.50000000  1
  Os  Os1  1  0.00000000  0.50000000  0.00000000  1
loop_
_geom_bond_atom_site_label_1
_geom_bond_atom_site_label_2
_geom_bond_distance
_geom_bond_site_symmetry_2
K0 Sb5 3.481826 1_555
K0 Sb4 3.481826 1_444
K0 Sb3 3.492623 1_455
K0 Sb2 3.492623 1_544
K0 Sb1 3.492625 1_555
K0 Sb0 3.492625 1_444
K0 Sb8 3.502058 1_444
K0 Sb9 3.502058 1_555
K0 Sb10 3.502064 1_545
K0 Sb11 3.502064 1_454
K0 Sb7 3.508037 1_554
K0 Sb6 3.508037 1_445
Ni0 Sb9 2.599681 1_555
Ni0 Sb8 2.599681 1_544
Ni0 Sb3 2.600574 1_555
Ni0 Sb2 2.600574 1_544
Ni0 Sb7 2.622106 1_554
Ni0 Sb6 2.622106 1_545
Ni1 Sb11 2.599677 1_455
Ni1 Sb10 2.599677 1_545
Ni1 Sb1 2.600573 1_555
Ni1 Sb0 2.600573 1_445
Ni1 Sb7 2.622114 1_555
Ni1 Sb6 2.622114 1_445
Sb0 Sb2 2.949055 1_655
Sb0 Sb3 2.967432 1_555
Sb1 Sb3 2.949055 1_455
Sb1 Sb2 2.967432 1_555
Sb4 Sb6 2.926651 1_556
Sb4 Sb7 2.963794 1_555
Sb5 Sb7 2.926651 1_554
Sb5 Sb6 2.963794 1_555
Sb10 Sb9 2.943496 1_565
Sb10 Sb8 2.974645 1_555
Sb11 Sb8 2.943496 1_545
Sb11 Sb9 2.974645 1_555
Os0 Sb5 2.631046 1_555
Os0 Sb4 2.631046 1_555
Os0 Sb8 2.635813 1_555
Os0 Sb9 2.635813 1_555
Os0 Sb0 2.638764 1_555
Os0 Sb1 2.638764 1_555
Os1 Sb4 2.631054 1_454
Os1 Sb5 2.631054 1_555
Os1 Sb10 2.635817 1_555
Os1 Sb11 2.635817 1_454
Os1 Sb2 2.638757 1_554
Os1 Sb3 2.638757 1_455
