# generated using pymatgen
data_Li4Al3Cd
_symmetry_space_group_name_H-M   'P 1'
_cell_length_a   7.84189479
_cell_length_b   7.84189581
_cell_length_c   7.84189611
_cell_angle_alpha   33.42640749
_cell_angle_beta   33.42639133
_cell_angle_gamma   33.42640458
_symmetry_Int_Tables_number   1
_chemical_formula_structural   Li4Al3Cd
_chemical_formula_sum   'Li4 Al3 Cd1'
_cell_volume   130.31779058
_cell_formula_units_Z   1
loop_
 _symmetry_equiv_pos_site_id
 _symmetry_equiv_pos_as_xyz
  1  'x, y, z'
loop_
 _atom_site_type_symbol
 _atom_site_label
 _atom_site_symmetry_multiplicity
 _atom_site_fract_x
 _atom_site_fract_y
 _atom_site_fract_z
 _atom_site_occupancy
  Li  Li0  1  0.12484306  0.12484306  0.12484306  1
  Li  Li1  1  0.62599983  0.62599983  0.62599983  1
  Li  Li2  1  0.00039549  0.00039549  0.00039549  1
  Li  Li3  1  0.49873179  0.49873179  0.49873179  1
  Al  Al0  1  0.87409785  0.87409785  0.87409785  1
  Al  Al1  1  0.75160645  0.75160645  0.75160645  1
  Al  Al2  1  0.24914860  0.24914860  0.24914860  1
  Cd  Cd0  1  0.37517892  0.37517892  0.37517892  1
loop_
_geom_bond_atom_site_label_1
_geom_bond_atom_site_label_2
_geom_bond_distance
_geom_bond_site_symmetry_2
Al0 Li3 2.766066 1_556
Al0 Li3 2.766066 1_655
Al0 Li3 2.766067 1_565
Al0 Li2 2.802635 1_666
Al1 Li0 2.750491 1_566
Al1 Li0 2.750491 1_665
Al1 Li0 2.750492 1_656
Al1 Cd0 2.774097 1_556
Al1 Cd0 2.774097 1_655
Al1 Cd0 2.774098 1_565
Al1 Li1 2.787301 1_555
Al2 Li0 2.758429 1_555
Al2 Li1 2.777353 1_554
Al2 Li1 2.777353 1_455
Al2 Li1 2.777354 1_545
Al2 Cd0 2.796703 1_555
Cd0 Li3 2.741727 1_555
Cd0 Li2 2.761733 1_556
Cd0 Li2 2.761733 1_655
Cd0 Li2 2.761734 1_565
Cd0 Li1 3.183350 1_455
Cd0 Li1 3.183351 1_554
Cd0 Li1 3.183351 1_545
Cd0 Li0 3.189553 1_655
Cd0 Li0 3.189554 1_556
Cd0 Li0 3.189555 1_565
