# generated using pymatgen
data_Ba5SrOs3O16
_symmetry_space_group_name_H-M   'P 1'
_cell_length_a   6.04235387
_cell_length_b   6.06462346
_cell_length_c   10.78910866
_cell_angle_alpha   93.74607734
_cell_angle_beta   93.40733317
_cell_angle_gamma   90.00650612
_symmetry_Int_Tables_number   1
_chemical_formula_structural   Ba5SrOs3O16
_chemical_formula_sum   'Ba5 Sr1 Os3 O16'
_cell_volume   393.81726351
_cell_formula_units_Z   1
loop_
 _symmetry_equiv_pos_site_id
 _symmetry_equiv_pos_as_xyz
  1  'x, y, z'
loop_
 _atom_site_type_symbol
 _atom_site_label
 _atom_site_symmetry_multiplicity
 _atom_site_fract_x
 _atom_site_fract_y
 _atom_site_fract_z
 _atom_site_occupancy
  Ba  Ba0  1  0.50990773  0.02654458  0.20461295  1
  Ba  Ba1  1  0.02929459  0.50242486  0.20666876  1
  Ba  Ba2  1  0.99998147  0.00002056  0.49993660  1
  Ba  Ba3  1  0.97067469  0.49755334  0.79337807  1
  Ba  Ba4  1  0.49007954  0.97348199  0.79543549  1
  Sr  Sr0  1  0.50000564  0.50001071  0.00003745  1
  Os  Os0  1  0.99999285  0.99999807  0.00006915  1
  Os  Os1  1  0.55937777  0.55902729  0.39340678  1
  Os  Os2  1  0.44062808  0.44093805  0.60652809  1
  O  O0  1  0.73473803  0.17572966  0.00397389  1
  O  O1  1  0.82800636  0.73915033  0.01945672  1
  O  O2  1  0.04453721  0.04558665  0.17130673  1
  O  O3  1  0.47467236  0.47205687  0.21760136  1
  O  O4  1  0.75748924  0.75796369  0.33325248  1
  O  O5  1  0.32124531  0.74603568  0.38143419  1
  O  O6  1  0.75063201  0.32407544  0.38157804  1
  O  O7  1  0.32958592  0.32695101  0.43936392  1
  O  O8  1  0.67043650  0.67303531  0.56047100  1
  O  O9  1  0.24938854  0.67589152  0.61834417  1
  O  O10  1  0.67879323  0.25395407  0.61847804  1
  O  O11  1  0.24250869  0.24203336  0.66668315  1
  O  O12  1  0.52535898  0.52793916  0.78241930  1
  O  O13  1  0.95544628  0.95444042  0.82879149  1
  O  O14  1  0.17197569  0.26085807  0.98064946  1
  O  O15  1  0.26524230  0.82428829  0.99613572  1
loop_
_geom_bond_atom_site_label_1
_geom_bond_atom_site_label_2
_geom_bond_distance
_geom_bond_site_symmetry_2
Ba0 O4 2.620401 1_545
Ba0 O3 2.705409 1_555
Ba0 O2 2.816881 1_555
Ba0 O0 2.820516 1_555
Ba0 O15 2.827222 1_544
Ba0 O6 2.869864 1_555
Ba0 O5 2.918076 1_545
Ba1 O4 2.637205 1_455
Ba1 O3 2.693554 1_555
Ba1 O2 2.774187 1_555
Ba1 O1 2.776232 1_455
Ba1 O5 2.844298 1_555
Ba1 O6 2.865349 1_455
Ba1 O14 2.935883 1_554
Ba2 O4 2.622466 1_545
Ba2 O11 2.622853 1_655
Ba2 O10 2.795025 1_555
Ba2 O5 2.795322 1_645
Ba2 O6 2.804086 1_555
Ba2 O9 2.804840 1_645
Ba2 O8 2.940566 1_545
Ba2 O7 2.940711 1_655
Ba3 O11 2.637874 1_655
Ba3 O12 2.693185 1_555
Ba3 O13 2.774518 1_555
Ba3 O14 2.776629 1_655
Ba3 O10 2.844882 1_555
Ba3 O9 2.866480 1_655
Ba3 O1 2.936460 1_556
Ba4 O11 2.620902 1_565
Ba4 O12 2.705613 1_555
Ba4 O13 2.816896 1_555
Ba4 O15 2.821097 1_555
Ba4 O0 2.827668 1_566
Ba4 O9 2.870790 1_555
Ba4 O10 2.919121 1_565
O0 Os0 1.925873 1_545
O0 Sr0 2.426015 1_555
O1 Os0 1.922224 1_555
O1 Sr0 2.446516 1_555
O2 Os0 1.853718 1_445
O3 Os1 1.972754 1_555
O3 Sr0 2.378401 1_555
O4 Os1 1.871920 1_555
O5 Os1 1.835959 1_555
O6 Os1 1.837451 1_555
O7 Os2 1.968248 1_555
O7 Os1 2.080205 1_555
O8 Os1 1.967372 1_555
O8 Os2 2.080709 1_555
O9 Os2 1.837395 1_555
O10 Os2 1.836006 1_555
O11 Os2 1.871827 1_555
O12 Os2 1.973682 1_555
O12 Sr0 2.378977 1_556
O13 Os0 1.854127 1_556
O14 Os0 1.922342 1_446
O14 Sr0 2.446705 1_556
O15 Os0 1.925784 1_456
O15 Sr0 2.426094 1_556
