# generated using pymatgen
data_Ba5Al4InPb
_symmetry_space_group_name_H-M   'P 1'
_cell_length_a   6.22733192
_cell_length_b   6.22733180
_cell_length_c   11.14372536
_cell_angle_alpha   90.00000000
_cell_angle_beta   90.00000000
_cell_angle_gamma   119.99998970
_symmetry_Int_Tables_number   1
_chemical_formula_structural   Ba5Al4InPb
_chemical_formula_sum   'Ba5 Al4 In1 Pb1'
_cell_volume   374.25283383
_cell_formula_units_Z   1
loop_
 _symmetry_equiv_pos_site_id
 _symmetry_equiv_pos_as_xyz
  1  'x, y, z'
loop_
 _atom_site_type_symbol
 _atom_site_label
 _atom_site_symmetry_multiplicity
 _atom_site_fract_x
 _atom_site_fract_y
 _atom_site_fract_z
 _atom_site_occupancy
  Ba  Ba0  1  0.66666700  0.33333300  0.20276884  1
  Ba  Ba1  1  0.66666700  0.33333300  0.79691568  1
  Ba  Ba2  1  0.00000000  0.00000000  0.33044956  1
  Ba  Ba3  1  0.00000000  0.00000000  0.67130404  1
  Ba  Ba4  1  0.33333300  0.66666700  0.99687491  1
  Al  Al0  1  0.52116151  0.04232301  0.50376142  1
  Al  Al1  1  0.52116151  0.47883849  0.50376142  1
  Al  Al2  1  0.33333300  0.66666700  0.66536748  1
  Al  Al3  1  0.95767699  0.47883849  0.50376142  1
  In  In0  1  0.33333300  0.66666700  0.32486216  1
  Pb  Pb0  1  0.00000000  0.00000000  0.00017209  1
loop_
_geom_bond_atom_site_label_1
_geom_bond_atom_site_label_2
_geom_bond_distance
_geom_bond_site_symmetry_2
Ba0 In0 3.844177 1_545
Ba0 In0 3.844177 1_655
Ba0 In0 3.844186 1_555
Ba0 Ba2 3.866652 1_655
Ba0 Ba2 3.866657 1_665
Ba0 Ba2 3.866658 1_555
Ba0 Pb0 4.245428 1_655
Ba0 Pb0 4.245433 1_665
Ba0 Pb0 4.245433 1_555
Ba0 Ba4 4.265081 1_544
Ba0 Ba4 4.265081 1_654
Ba0 Ba4 4.265090 1_554
Ba0 Ba1 4.522716 1_554
Ba1 Ba3 3.858227 1_655
Ba1 Ba3 3.858233 1_665
Ba1 Ba3 3.858233 1_555
Ba1 Ba4 4.229871 1_545
Ba1 Ba4 4.229871 1_655
Ba1 Ba4 4.229880 1_555
Ba1 Pb0 4.249342 1_656
Ba1 Pb0 4.249347 1_666
Ba1 Pb0 4.249347 1_556
Ba2 In0 3.595887 1_545
Ba2 In0 3.595893 1_555
Ba2 In0 3.595893 1_445
Ba2 Pb0 3.680521 1_555
Ba2 Ba3 3.798389 1_555
Ba3 Pb0 3.664815 1_556
Ba4 Pb0 3.595536 1_566
Ba4 Pb0 3.595542 1_556
Ba4 Pb0 3.595542 1_666
Ba4 In0 3.655000 1_556
Al0 Al2 2.710643 1_545
Al0 Al1 2.718327 1_555
Al0 Al3 2.718327 1_555
Al0 In0 2.842327 1_545
Al0 Ba1 3.624262 1_555
Al0 Ba3 3.637703 1_655
Al0 Ba3 3.637703 1_555
Al0 Ba2 3.671115 1_655
Al0 Ba2 3.671115 1_555
Al0 Ba0 3.703189 1_555
Al1 Al2 2.710646 1_555
Al1 Al3 2.718327 1_555
Al1 In0 2.842331 1_555
Al1 Ba1 3.624265 1_555
Al1 Ba3 3.637704 1_665
Al1 Ba3 3.637704 1_555
Al1 Ba2 3.671116 1_665
Al1 Ba2 3.671116 1_555
Al1 Ba0 3.703191 1_555
Al2 Al3 2.710643 1_455
Al2 Ba3 3.595957 1_565
Al2 Ba3 3.595962 1_555
Al2 Ba3 3.595963 1_665
Al2 Ba4 3.694228 1_555
Al2 Ba1 3.882718 1_565
Al2 Ba1 3.882718 1_455
Al2 Ba1 3.882728 1_555
Al3 In0 2.842327 1_655
Al3 Ba1 3.624262 1_555
Al3 Ba3 3.637703 1_655
Al3 Ba3 3.637703 1_665
Al3 Ba2 3.671115 1_655
Al3 Ba2 3.671115 1_665
Al3 Ba0 3.703189 1_555
