# generated using pymatgen
data_Zr5Ge2BiH
_symmetry_space_group_name_H-M   'P 1'
_cell_length_a   8.27801681
_cell_length_b   8.27801642
_cell_length_c   8.27801719
_cell_angle_alpha   128.52789499
_cell_angle_beta   128.52788672
_cell_angle_gamma   75.77141401
_symmetry_Int_Tables_number   1
_chemical_formula_structural   Zr5Ge2BiH
_chemical_formula_sum   'Zr10 Ge4 Bi2 H2'
_cell_volume   337.65889367
_cell_formula_units_Z   2
loop_
 _symmetry_equiv_pos_site_id
 _symmetry_equiv_pos_as_xyz
  1  'x, y, z'
loop_
 _atom_site_type_symbol
 _atom_site_label
 _atom_site_symmetry_multiplicity
 _atom_site_fract_x
 _atom_site_fract_y
 _atom_site_fract_z
 _atom_site_occupancy
  Zr  Zr0  1  0.50000000  0.50000000  0.00000000  1
  Zr  Zr1  1  0.00000000  0.00000000  0.00000000  1
  Zr  Zr2  1  0.51794880  0.01794880  0.81997691  1
  Zr  Zr3  1  0.19797189  0.69797189  0.18002309  1
  Zr  Zr4  1  0.01794880  0.19797189  0.50000000  1
  Zr  Zr5  1  0.69797189  0.51794880  0.50000000  1
  Zr  Zr6  1  0.48205120  0.98205120  0.18002309  1
  Zr  Zr7  1  0.80202811  0.30202811  0.81997691  1
  Zr  Zr8  1  0.98205120  0.80202811  0.50000000  1
  Zr  Zr9  1  0.30202811  0.48205120  0.50000000  1
  Ge  Ge0  1  0.86370253  0.36370253  0.22740606  1
  Ge  Ge1  1  0.13629747  0.63629747  0.77259394  1
  Ge  Ge2  1  0.36370253  0.13629747  0.50000000  1
  Ge  Ge3  1  0.63629747  0.86370253  0.50000000  1
  Bi  Bi0  1  0.25000000  0.25000000  0.00000000  1
  Bi  Bi1  1  0.75000000  0.75000000  0.00000000  1
  H  H0  1  0.25000000  0.75000000  0.50000000  1
  H  H1  1  0.75000000  0.25000000  0.50000000  1
loop_
_geom_bond_atom_site_label_1
_geom_bond_atom_site_label_2
_geom_bond_distance
_geom_bond_site_symmetry_2
Ge0 Zr2 2.781053 1_554
Ge0 Zr7 2.781062 1_554
Ge0 Zr1 2.792251 1_655
Ge0 Zr0 2.792252 1_555
Ge0 Zr5 2.830302 1_555
Ge0 Zr4 2.830302 1_655
Ge0 Zr8 2.830310 1_555
Ge0 Zr9 2.830311 1_655
Ge1 Zr6 2.781053 1_556
Ge1 Zr3 2.781062 1_556
Ge1 Zr1 2.792251 1_566
Ge1 Zr0 2.792252 1_556
Ge1 Zr9 2.830302 1_555
Ge1 Zr8 2.830302 1_455
Ge1 Zr4 2.830310 1_555
Ge1 Zr5 2.830311 1_455
Ge2 Zr9 2.781054 1_555
Ge2 Zr4 2.781054 1_555
Ge2 Zr0 2.792249 1_556
Ge2 Zr1 2.792250 1_555
Ge2 Zr3 2.830308 1_545
Ge2 Zr6 2.830309 1_545
Ge2 Zr7 2.830309 1_555
Ge2 Zr2 2.830309 1_555
Ge3 Zr5 2.781054 1_555
Ge3 Zr8 2.781054 1_555
Ge3 Zr0 2.792249 1_555
Ge3 Zr1 2.792250 1_666
Ge3 Zr7 2.830308 1_565
Ge3 Zr2 2.830309 1_565
Ge3 Zr3 2.830309 1_555
Ge3 Zr6 2.830309 1_555
Bi0 Zr3 3.047591 1_555
Bi0 Zr8 3.047591 1_444
Bi0 Zr2 3.047591 1_554
Bi0 Zr9 3.047591 1_555
Bi0 Zr5 3.047591 1_555
Bi0 Zr6 3.047591 1_545
Bi0 Zr7 3.047591 1_454
Bi0 Zr4 3.047591 1_554
Bi0 Zr0 3.266660 1_555
Bi0 Zr1 3.266660 1_555
Bi1 Zr7 3.047591 1_554
Bi1 Zr4 3.047591 1_665
Bi1 Zr6 3.047591 1_555
Bi1 Zr5 3.047591 1_554
Bi1 Zr9 3.047591 1_554
Bi1 Zr2 3.047591 1_564
Bi1 Zr3 3.047591 1_655
Bi1 Zr8 3.047591 1_555
Bi1 Zr0 3.266660 1_555
Bi1 Zr1 3.266660 1_665
H0 Zr2 2.153086 1_565
H0 Zr9 2.153086 1_555
H0 Zr8 2.153087 1_455
H0 Zr3 2.153087 1_555
H1 Zr6 2.153086 1_545
H1 Zr5 2.153086 1_555
H1 Zr4 2.153087 1_655
H1 Zr7 2.153087 1_555
