# generated using pymatgen
data_Yb3Sn13Rh4
_symmetry_space_group_name_H-M   'P 1'
_cell_length_a   9.79411000
_cell_length_b   9.79411000
_cell_length_c   9.79411000
_cell_angle_alpha   90.00000000
_cell_angle_beta   90.00000000
_cell_angle_gamma   90.00000000
_symmetry_Int_Tables_number   1
_chemical_formula_structural   Yb3Sn13Rh4
_chemical_formula_sum   'Yb6 Sn26 Rh8'
_cell_volume   939.49599294
_cell_formula_units_Z   2
loop_
 _symmetry_equiv_pos_site_id
 _symmetry_equiv_pos_as_xyz
  1  'x, y, z'
loop_
 _atom_site_type_symbol
 _atom_site_label
 _atom_site_symmetry_multiplicity
 _atom_site_fract_x
 _atom_site_fract_y
 _atom_site_fract_z
 _atom_site_occupancy
  Yb  Yb0  1  0.00000000  0.50000000  0.75000000  1
  Yb  Yb1  1  0.50000000  0.25000000  0.00000000  1
  Yb  Yb2  1  0.75000000  0.00000000  0.50000000  1
  Yb  Yb3  1  0.00000000  0.50000000  0.25000000  1
  Yb  Yb4  1  0.50000000  0.75000000  0.00000000  1
  Yb  Yb5  1  0.25000000  0.00000000  0.50000000  1
  Sn  Sn0  1  0.50000000  0.50000000  0.50000000  1
  Sn  Sn1  1  0.00000000  0.00000000  0.00000000  1
  Sn  Sn2  1  0.80568200  0.34693900  0.50000000  1
  Sn  Sn3  1  0.65306100  0.50000000  0.80568200  1
  Sn  Sn4  1  0.50000000  0.19431800  0.65306100  1
  Sn  Sn5  1  0.19431800  0.65306100  0.50000000  1
  Sn  Sn6  1  0.34693900  0.50000000  0.19431800  1
  Sn  Sn7  1  0.50000000  0.80568200  0.34693900  1
  Sn  Sn8  1  0.80568200  0.65306100  0.50000000  1
  Sn  Sn9  1  0.65306100  0.50000000  0.19431800  1
  Sn  Sn10  1  0.19431800  0.34693900  0.50000000  1
  Sn  Sn11  1  0.34693900  0.50000000  0.80568200  1
  Sn  Sn12  1  0.50000000  0.80568200  0.65306100  1
  Sn  Sn13  1  0.50000000  0.19431800  0.34693900  1
  Sn  Sn14  1  0.30568200  0.00000000  0.84693900  1
  Sn  Sn15  1  0.15306100  0.30568200  0.00000000  1
  Sn  Sn16  1  0.00000000  0.15306100  0.69431800  1
  Sn  Sn17  1  0.69431800  0.00000000  0.15306100  1
  Sn  Sn18  1  0.84693900  0.69431800  0.00000000  1
  Sn  Sn19  1  0.00000000  0.84693900  0.30568200  1
  Sn  Sn20  1  0.30568200  0.00000000  0.15306100  1
  Sn  Sn21  1  0.15306100  0.69431800  0.00000000  1
  Sn  Sn22  1  0.69431800  0.00000000  0.84693900  1
  Sn  Sn23  1  0.84693900  0.30568200  0.00000000  1
  Sn  Sn24  1  0.00000000  0.15306100  0.30568200  1
  Sn  Sn25  1  0.00000000  0.84693900  0.69431800  1
  Rh  Rh0  1  0.75000000  0.25000000  0.75000000  1
  Rh  Rh1  1  0.25000000  0.75000000  0.25000000  1
  Rh  Rh2  1  0.75000000  0.75000000  0.25000000  1
  Rh  Rh3  1  0.25000000  0.25000000  0.75000000  1
  Rh  Rh4  1  0.25000000  0.75000000  0.75000000  1
  Rh  Rh5  1  0.75000000  0.25000000  0.25000000  1
  Rh  Rh6  1  0.25000000  0.25000000  0.25000000  1
  Rh  Rh7  1  0.75000000  0.75000000  0.75000000  1
loop_
_geom_bond_atom_site_label_1
_geom_bond_atom_site_label_2
_geom_bond_distance
_geom_bond_site_symmetry_2
Sn0 Sn3 3.348227 1_555
Sn0 Sn4 3.348227 1_555
Sn0 Sn11 3.348227 1_555
Sn0 Sn8 3.348227 1_555
Sn0 Sn2 3.348227 1_555
Sn0 Sn7 3.348227 1_555
Sn0 Sn6 3.348227 1_555
Sn0 Sn12 3.348227 1_555
Sn0 Sn9 3.348227 1_555
Sn0 Sn5 3.348227 1_555
Sn0 Sn13 3.348227 1_555
Sn0 Sn10 3.348227 1_555
Sn1 Sn17 3.348227 1_455
Sn1 Sn19 3.348227 1_545
Sn1 Sn20 3.348227 1_555
Sn1 Sn23 3.348227 1_455
Sn1 Sn18 3.348227 1_445
Sn1 Sn16 3.348227 1_554
Sn1 Sn15 3.348227 1_555
Sn1 Sn24 3.348227 1_555
Sn1 Sn21 3.348227 1_545
Sn1 Sn22 3.348227 1_454
Sn1 Sn25 3.348227 1_544
Sn1 Sn14 3.348227 1_554
Sn2 Yb2 3.441444 1_555
Sn2 Yb3 3.444509 1_655
Sn2 Yb0 3.444509 1_655
Sn3 Yb0 3.441444 1_655
Sn3 Yb4 3.444509 1_556
Sn3 Yb1 3.444509 1_556
Sn4 Yb1 3.441444 1_556
Sn4 Yb5 3.444509 1_555
Sn4 Yb2 3.444509 1_555
Sn5 Yb5 3.441444 1_565
Sn5 Yb3 3.444509 1_555
Sn5 Yb0 3.444509 1_555
Sn6 Yb3 3.441444 1_555
Sn6 Yb4 3.444509 1_555
Sn6 Yb1 3.444509 1_555
Sn7 Yb4 3.441444 1_555
Sn7 Yb5 3.444509 1_565
Sn7 Yb2 3.444509 1_565
Sn8 Yb2 3.441444 1_565
Sn8 Yb3 3.444509 1_655
Sn8 Yb0 3.444509 1_655
Sn9 Yb3 3.441444 1_655
Sn9 Yb4 3.444509 1_555
Sn9 Yb1 3.444509 1_555
Sn10 Yb5 3.441444 1_555
Sn10 Yb3 3.444509 1_555
Sn10 Yb0 3.444509 1_555
Sn11 Yb0 3.441444 1_555
Sn11 Yb4 3.444509 1_556
Sn11 Yb1 3.444509 1_556
Sn12 Yb4 3.441444 1_556
Sn12 Yb5 3.444509 1_565
Sn12 Yb2 3.444509 1_565
Sn13 Yb1 3.441444 1_555
Sn13 Yb5 3.444509 1_555
Sn13 Yb2 3.444509 1_555
Sn14 Yb5 3.441444 1_555
Sn14 Yb1 3.444509 1_556
Sn14 Yb4 3.444509 1_546
Sn15 Yb1 3.441444 1_555
Sn15 Yb3 3.444509 1_555
Sn15 Yb0 3.444509 1_554
Sn16 Yb0 3.441444 1_555
Sn16 Yb2 3.444509 1_455
Sn16 Yb5 3.444509 1_555
Sn17 Yb2 3.441444 1_555
Sn17 Yb4 3.444509 1_545
Sn17 Yb1 3.444509 1_555
Sn18 Yb4 3.441444 1_555
Sn18 Yb3 3.444509 1_655
Sn18 Yb0 3.444509 1_654
Sn19 Yb3 3.441444 1_555
Sn19 Yb5 3.444509 1_565
Sn19 Yb2 3.444509 1_465
Sn20 Yb5 3.441444 1_555
Sn20 Yb4 3.444509 1_545
Sn20 Yb1 3.444509 1_555
Sn21 Yb4 3.441444 1_555
Sn21 Yb3 3.444509 1_555
Sn21 Yb0 3.444509 1_554
Sn22 Yb2 3.441444 1_555
Sn22 Yb1 3.444509 1_556
Sn22 Yb4 3.444509 1_546
Sn23 Yb1 3.441444 1_555
Sn23 Yb3 3.444509 1_655
Sn23 Yb0 3.444509 1_654
Sn24 Yb3 3.441444 1_555
Sn24 Yb2 3.444509 1_455
Sn24 Yb5 3.444509 1_555
Sn25 Yb0 3.441444 1_555
Sn25 Yb5 3.444509 1_565
Sn25 Yb2 3.444509 1_465
Rh0 Sn2 2.682186 1_555
Rh0 Sn23 2.682186 1_556
Rh0 Sn22 2.682186 1_555
Rh0 Sn3 2.682186 1_555
Rh0 Sn4 2.682186 1_555
Rh0 Sn16 2.682186 1_655
Rh0 Yb1 3.462741 1_556
Rh0 Yb0 3.462741 1_655
Rh0 Yb2 3.462741 1_555
Rh1 Sn21 2.682186 1_555
Rh1 Sn5 2.682186 1_555
Rh1 Sn6 2.682186 1_555
Rh1 Sn19 2.682186 1_555
Rh1 Sn7 2.682186 1_555
Rh1 Sn20 2.682186 1_565
Rh1 Yb3 3.462741 1_555
Rh1 Yb5 3.462741 1_565
Rh1 Yb4 3.462741 1_555
Rh2 Sn8 2.682186 1_555
Rh2 Sn18 2.682186 1_555
Rh2 Sn9 2.682186 1_555
Rh2 Sn17 2.682186 1_565
Rh2 Sn19 2.682186 1_655
Rh2 Sn7 2.682186 1_555
Rh2 Yb2 3.462741 1_565
Rh2 Yb4 3.462741 1_555
Rh2 Yb3 3.462741 1_655
Rh3 Sn15 2.682186 1_556
Rh3 Sn10 2.682186 1_555
Rh3 Sn11 2.682186 1_555
Rh3 Sn14 2.682186 1_555
Rh3 Sn16 2.682186 1_555
Rh3 Sn4 2.682186 1_555
Rh3 Yb0 3.462741 1_555
Rh3 Yb1 3.462741 1_556
Rh3 Yb5 3.462741 1_555
Rh4 Sn21 2.682186 1_556
Rh4 Sn5 2.682186 1_555
Rh4 Sn12 2.682186 1_555
Rh4 Sn25 2.682186 1_555
Rh4 Sn11 2.682186 1_555
Rh4 Sn14 2.682186 1_565
Rh4 Yb5 3.462741 1_565
Rh4 Yb0 3.462741 1_555
Rh4 Yb4 3.462741 1_556
Rh5 Sn23 2.682186 1_555
Rh5 Sn2 2.682186 1_555
Rh5 Sn9 2.682186 1_555
Rh5 Sn13 2.682186 1_555
Rh5 Sn17 2.682186 1_555
Rh5 Sn24 2.682186 1_655
Rh5 Yb3 3.462741 1_655
Rh5 Yb1 3.462741 1_555
Rh5 Yb2 3.462741 1_555
Rh6 Sn15 2.682186 1_555
Rh6 Sn10 2.682186 1_555
Rh6 Sn24 2.682186 1_555
Rh6 Sn6 2.682186 1_555
Rh6 Sn13 2.682186 1_555
Rh6 Sn20 2.682186 1_555
Rh6 Yb3 3.462741 1_555
Rh6 Yb1 3.462741 1_555
Rh6 Yb5 3.462741 1_555
Rh7 Sn18 2.682186 1_556
Rh7 Sn8 2.682186 1_555
Rh7 Sn12 2.682186 1_555
Rh7 Sn22 2.682186 1_565
Rh7 Sn3 2.682186 1_555
Rh7 Sn25 2.682186 1_655
Rh7 Yb2 3.462741 1_565
Rh7 Yb0 3.462741 1_655
Rh7 Yb4 3.462741 1_556
