# generated using pymatgen
data_Cs2HfZn3P4
_symmetry_space_group_name_H-M   'P 1'
_cell_length_a   8.01483373
_cell_length_b   8.01483273
_cell_length_c   5.86035039
_cell_angle_alpha   90.00000000
_cell_angle_beta   90.00000000
_cell_angle_gamma   137.12761226
_symmetry_Int_Tables_number   1
_chemical_formula_structural   Cs2HfZn3P4
_chemical_formula_sum   'Cs2 Hf1 Zn3 P4'
_cell_volume   256.12754615
_cell_formula_units_Z   1
loop_
 _symmetry_equiv_pos_site_id
 _symmetry_equiv_pos_as_xyz
  1  'x, y, z'
loop_
 _atom_site_type_symbol
 _atom_site_label
 _atom_site_symmetry_multiplicity
 _atom_site_fract_x
 _atom_site_fract_y
 _atom_site_fract_z
 _atom_site_occupancy
  Cs  Cs0  1  0.50000000  0.00000000  0.25705399  1
  Cs  Cs1  1  0.00000000  0.50000000  0.74294601  1
  Hf  Hf0  1  0.00000000  0.00000000  0.00000000  1
  Zn  Zn0  1  0.50000000  0.50000000  0.50000000  1
  Zn  Zn1  1  0.50000000  0.50000000  0.00000000  1
  Zn  Zn2  1  0.00000000  0.00000000  0.50000000  1
  P  P0  1  0.65736029  0.84095111  0.74963821  1
  P  P1  1  0.15904889  0.34263971  0.25036179  1
  P  P2  1  0.84095111  0.65736029  0.25036179  1
  P  P3  1  0.34263971  0.15904889  0.74963821  1
loop_
_geom_bond_atom_site_label_1
_geom_bond_atom_site_label_2
_geom_bond_distance
_geom_bond_site_symmetry_2
Cs0 P3 3.728983 1_555
Cs0 P0 3.728983 1_545
Cs0 P2 3.758271 1_555
Cs0 P1 3.758271 1_545
Cs0 P1 3.765974 1_655
Cs0 P2 3.765974 1_445
Cs0 P3 3.796667 1_554
Cs0 P0 3.796667 1_544
Cs1 P2 3.728983 1_455
Cs1 P1 3.728983 1_555
Cs1 P0 3.758272 1_555
Cs1 P3 3.758272 1_455
Cs1 P3 3.765973 1_565
Cs1 P0 3.765973 1_445
Cs1 P1 3.796667 1_556
Cs1 P2 3.796667 1_456
Hf0 P1 2.487599 1_555
Hf0 P2 2.487599 1_445
Hf0 P3 2.487600 1_554
Hf0 P0 2.487600 1_444
P0 Zn0 2.479264 1_555
P0 Zn1 2.481768 1_556
P0 Zn2 2.485101 1_665
P1 Zn0 2.479264 1_555
P1 Zn1 2.481769 1_555
P1 Zn2 2.485101 1_555
P2 Zn0 2.479264 1_555
P2 Zn1 2.481769 1_555
P2 Zn2 2.485101 1_665
P3 Zn0 2.479264 1_555
P3 Zn1 2.481768 1_556
P3 Zn2 2.485101 1_555
