# generated using pymatgen
data_Ba2AsS3Cl
_symmetry_space_group_name_H-M   'P 1'
_cell_length_a   6.87982003
_cell_length_b   9.73721138
_cell_length_c   12.01924009
_cell_angle_alpha   90.00000000
_cell_angle_beta   90.00000000
_cell_angle_gamma   90.00000000
_symmetry_Int_Tables_number   1
_chemical_formula_structural   Ba2AsS3Cl
_chemical_formula_sum   'Ba8 As4 S12 Cl4'
_cell_volume   805.17204147
_cell_formula_units_Z   4
loop_
 _symmetry_equiv_pos_site_id
 _symmetry_equiv_pos_as_xyz
  1  'x, y, z'
loop_
 _atom_site_type_symbol
 _atom_site_label
 _atom_site_symmetry_multiplicity
 _atom_site_fract_x
 _atom_site_fract_y
 _atom_site_fract_z
 _atom_site_occupancy
  Ba  Ba0  1  0.25000000  0.85207137  0.37777474  1
  Ba  Ba1  1  0.75000000  0.14792863  0.62222526  1
  Ba  Ba2  1  0.75000000  0.35207137  0.12222526  1
  Ba  Ba3  1  0.25000000  0.64792863  0.87777474  1
  Ba  Ba4  1  0.25000000  0.31074844  0.33942712  1
  Ba  Ba5  1  0.75000000  0.68925156  0.66057288  1
  Ba  Ba6  1  0.75000000  0.81074844  0.16057288  1
  Ba  Ba7  1  0.25000000  0.18925156  0.83942712  1
  As  As0  1  0.25000000  0.02822252  0.09464035  1
  As  As1  1  0.75000000  0.97177748  0.90535965  1
  As  As2  1  0.75000000  0.52822252  0.40535965  1
  As  As3  1  0.25000000  0.47177748  0.59464035  1
  S  S0  1  0.00419355  0.08036800  0.20904390  1
  S  S1  1  0.99580645  0.91963200  0.79095610  1
  S  S2  1  0.99580645  0.58036800  0.29095610  1
  S  S3  1  0.50419355  0.91963200  0.79095610  1
  S  S4  1  0.00419355  0.41963200  0.70904390  1
  S  S5  1  0.49580645  0.08036800  0.20904390  1
  S  S6  1  0.49580645  0.41963200  0.70904390  1
  S  S7  1  0.50419355  0.58036800  0.29095610  1
  S  S8  1  0.25000000  0.79929729  0.11018830  1
  S  S9  1  0.75000000  0.20070271  0.88981170  1
  S  S10  1  0.75000000  0.29929729  0.38981170  1
  S  S11  1  0.25000000  0.70070271  0.61018830  1
  Cl  Cl0  1  0.25000000  0.38923824  0.04756266  1
  Cl  Cl1  1  0.75000000  0.61076176  0.95243734  1
  Cl  Cl2  1  0.75000000  0.88923824  0.45243734  1
  Cl  Cl3  1  0.25000000  0.11076176  0.54756266  1
loop_
_geom_bond_atom_site_label_1
_geom_bond_atom_site_label_2
_geom_bond_distance
_geom_bond_site_symmetry_2
Ba0 S11 3.158430 1_555
Ba0 Cl3 3.241839 1_565
Ba0 S8 3.256979 1_555
Ba0 S7 3.338649 1_555
Ba0 S2 3.338649 1_455
Ba0 S5 3.451708 1_565
Ba0 S0 3.451708 1_565
Ba0 Cl2 3.573410 1_455
Ba0 Cl2 3.573410 1_555
Ba1 S10 3.158430 1_555
Ba1 Cl2 3.241839 1_545
Ba1 S9 3.256979 1_555
Ba1 S4 3.338649 1_655
Ba1 S6 3.338649 1_555
Ba1 S1 3.451708 1_545
Ba1 S3 3.451708 1_545
Ba1 Cl3 3.573410 1_555
Ba1 Cl3 3.573410 1_655
Ba2 S9 3.158430 1_554
Ba2 Cl1 3.241839 1_554
Ba2 S10 3.256979 1_555
Ba2 S0 3.338649 1_655
Ba2 S5 3.338649 1_555
Ba2 S2 3.451708 1_555
Ba2 S7 3.451708 1_555
Ba2 Cl0 3.573410 1_555
Ba2 Cl0 3.573410 1_655
Ba3 S8 3.158430 1_556
Ba3 Cl0 3.241839 1_556
Ba3 S11 3.256979 1_555
Ba3 S3 3.338649 1_555
Ba3 S1 3.338649 1_455
Ba3 S6 3.451708 1_555
Ba3 S4 3.451708 1_555
Ba3 Cl1 3.573410 1_455
Ba3 Cl1 3.573410 1_555
Ba4 Cl3 3.170203 1_555
Ba4 S7 3.207827 1_555
Ba4 S2 3.207827 1_455
Ba4 S5 3.216813 1_555
Ba4 S0 3.216813 1_555
Ba4 S10 3.494588 1_555
Ba4 S10 3.494588 1_455
Ba4 Cl0 3.590278 1_555
Ba5 Cl2 3.170203 1_555
Ba5 S4 3.207827 1_655
Ba5 S6 3.207827 1_555
Ba5 S1 3.216813 1_555
Ba5 S3 3.216813 1_555
Ba5 S11 3.494588 1_555
Ba5 S11 3.494588 1_655
Ba5 Cl1 3.590278 1_555
Ba6 Cl1 3.170203 1_554
Ba6 S0 3.207827 1_665
Ba6 S5 3.207827 1_565
Ba6 S2 3.216813 1_555
Ba6 S7 3.216813 1_555
Ba6 S8 3.494588 1_655
Ba6 S8 3.494588 1_555
Ba6 Cl2 3.590278 1_555
Ba7 Cl0 3.170203 1_556
Ba7 S3 3.207827 1_545
Ba7 S1 3.207827 1_445
Ba7 S6 3.216813 1_555
Ba7 S4 3.216813 1_555
Ba7 S9 3.494588 1_455
Ba7 S9 3.494588 1_555
Ba7 Cl3 3.590278 1_555
As0 S8 2.236913 1_545
As0 S5 2.237943 1_555
As0 S0 2.237943 1_555
As0 Ba7 3.444983 1_554
As1 S9 2.236913 1_565
As1 S1 2.237943 1_555
As1 S3 2.237943 1_555
As1 Ba6 3.444983 1_556
As2 S10 2.236913 1_555
As2 S2 2.237943 1_555
As2 S7 2.237943 1_555
As2 Ba5 3.444983 1_555
As3 S11 2.236913 1_555
As3 S6 2.237943 1_555
As3 S4 2.237943 1_555
As3 Ba4 3.444983 1_555
