# generated using pymatgen
data_La(FeSb3)4
_symmetry_space_group_name_H-M   'P 1'
_cell_length_a   7.91454809
_cell_length_b   7.91436175
_cell_length_c   7.91426448
_cell_angle_alpha   109.47042945
_cell_angle_beta   109.47123894
_cell_angle_gamma   109.47116261
_symmetry_Int_Tables_number   1
_chemical_formula_structural   La(FeSb3)4
_chemical_formula_sum   'La1 Fe4 Sb12'
_cell_volume   381.62352753
_cell_formula_units_Z   1
loop_
 _symmetry_equiv_pos_site_id
 _symmetry_equiv_pos_as_xyz
  1  'x, y, z'
loop_
 _atom_site_type_symbol
 _atom_site_label
 _atom_site_symmetry_multiplicity
 _atom_site_fract_x
 _atom_site_fract_y
 _atom_site_fract_z
 _atom_site_occupancy
  La  La0  1  0.00000000  0.00000000  0.00000000  1
  Fe  Fe0  1  0.50000000  0.50000000  0.50000000  1
  Fe  Fe1  1  0.00000000  0.50000000  0.00000000  1
  Fe  Fe2  1  0.00000000  0.00000000  0.50000000  1
  Fe  Fe3  1  0.50000000  0.00000000  0.00000000  1
  Sb  Sb0  1  0.33565546  0.17300486  0.83735409  1
  Sb  Sb1  1  0.49829389  0.16264156  0.33564415  1
  Sb  Sb2  1  0.16265326  0.66435196  0.82699392  1
  Sb  Sb3  1  0.83735478  0.66434508  0.50169792  1
  Sb  Sb4  1  0.66434277  0.50169894  0.83735305  1
  Sb  Sb5  1  0.66434454  0.82699514  0.16264591  1
  Sb  Sb6  1  0.83734674  0.33564804  0.17300608  1
  Sb  Sb7  1  0.17300582  0.83734973  0.33565615  1
  Sb  Sb8  1  0.33565723  0.49830106  0.16264695  1
  Sb  Sb9  1  0.16264522  0.33565492  0.49830208  1
  Sb  Sb10  1  0.82699418  0.16265027  0.66434385  1
  Sb  Sb11  1  0.50170611  0.83735844  0.66435585  1
loop_
_geom_bond_atom_site_label_1
_geom_bond_atom_site_label_2
_geom_bond_distance
_geom_bond_site_symmetry_2
La0 Sb7 3.408603 1_545
La0 Sb10 3.408603 1_454
La0 Sb3 3.408610 1_444
La0 Sb9 3.408610 1_555
La0 Sb1 3.408626 1_555
La0 Sb11 3.408626 1_444
La0 Sb0 3.408631 1_554
La0 Sb5 3.408631 1_445
La0 Sb6 3.408635 1_455
La0 Sb2 3.408635 1_544
La0 Sb4 3.408653 1_444
La0 Sb8 3.408653 1_555
Fe0 Sb8 2.543545 1_555
Fe0 Sb4 2.543545 1_555
Fe0 Sb11 2.543609 1_555
Fe0 Sb1 2.543609 1_555
Fe0 Sb3 2.543644 1_555
Fe0 Sb9 2.543644 1_555
Fe1 Sb10 2.543584 1_454
Fe1 Sb7 2.543584 1_555
Fe1 Sb2 2.543609 1_554
Fe1 Sb6 2.543609 1_455
Fe1 Sb8 2.543646 1_555
Fe1 Sb4 2.543646 1_454
Fe2 Sb9 2.543578 1_555
Fe2 Sb3 2.543578 1_445
Fe2 Sb10 2.543596 1_455
Fe2 Sb7 2.543596 1_545
Fe2 Sb0 2.543620 1_555
Fe2 Sb5 2.543620 1_445
Fe3 Sb1 2.543515 1_555
Fe3 Sb11 2.543515 1_544
Fe3 Sb0 2.543545 1_554
Fe3 Sb5 2.543545 1_545
Fe3 Sb6 2.543580 1_555
Fe3 Sb2 2.543580 1_544
Sb0 Sb8 2.972778 1_556
Sb0 Sb4 3.003854 1_555
Sb1 Sb7 2.972825 1_545
Sb1 Sb10 3.003873 1_555
Sb2 Sb3 2.972784 1_455
Sb2 Sb9 3.003820 1_555
Sb3 Sb6 3.003820 1_555
Sb4 Sb5 2.972778 1_556
Sb5 Sb8 3.003854 1_555
Sb6 Sb9 2.972784 1_655
Sb10 Sb11 2.972825 1_545
Sb11 Sb7 3.003873 1_555
