# generated using pymatgen
data_Rb2Tc7W5Se14
_symmetry_space_group_name_H-M   'P 1'
_cell_length_a   9.83116095
_cell_length_b   9.84547095
_cell_length_c   9.80253508
_cell_angle_alpha   59.80302980
_cell_angle_beta   60.64933407
_cell_angle_gamma   60.27165909
_symmetry_Int_Tables_number   1
_chemical_formula_structural   Rb2Tc7W5Se14
_chemical_formula_sum   'Rb2 Tc7 W5 Se14'
_cell_volume   674.50287758
_cell_formula_units_Z   1
loop_
 _symmetry_equiv_pos_site_id
 _symmetry_equiv_pos_as_xyz
  1  'x, y, z'
loop_
 _atom_site_type_symbol
 _atom_site_label
 _atom_site_symmetry_multiplicity
 _atom_site_fract_x
 _atom_site_fract_y
 _atom_site_fract_z
 _atom_site_occupancy
  Rb  Rb0  1  0.37874187  0.37368591  0.37658255  1
  Rb  Rb1  1  0.61975438  0.62234620  0.62805206  1
  Tc  Tc0  1  0.30189354  0.12450324  0.99050223  1
  Tc  Tc1  1  0.19578714  0.88639263  0.06033967  1
  Tc  Tc2  1  0.88755867  0.05788581  0.19478258  1
  Tc  Tc3  1  0.93922813  0.80063046  0.11525392  1
  Tc  Tc4  1  0.80168109  0.11499464  0.94033039  1
  Tc  Tc5  1  0.11528139  0.94084558  0.80394112  1
  Tc  Tc6  1  0.99044648  0.30070026  0.12487515  1
  W  W0  1  0.87672293  0.00651002  0.70260254  1
  W  W1  1  0.12551351  0.99418516  0.29492639  1
  W  W2  1  0.00449727  0.70375349  0.87784249  1
  W  W3  1  0.70397433  0.87637505  0.00331066  1
  W  W4  1  0.05809143  0.19034697  0.89275903  1
  Se  Se0  1  0.97954943  0.24529845  0.64237685  1
  Se  Se1  1  0.24178055  0.64380227  0.98276823  1
  Se  Se2  1  0.64435990  0.97947108  0.24143383  1
  Se  Se3  1  0.02490195  0.75910209  0.35853848  1
  Se  Se4  1  0.75579123  0.35670065  0.02552806  1
  Se  Se5  1  0.35977816  0.01824622  0.76209580  1
  Se  Se6  1  0.16724064  0.41673165  0.81386065  1
  Se  Se7  1  0.41840450  0.81109851  0.16859882  1
  Se  Se8  1  0.81086877  0.17064161  0.41303696  1
  Se  Se9  1  0.82879352  0.57871521  0.19182649  1
  Se  Se10  1  0.58031989  0.19354075  0.82429398  1
  Se  Se11  1  0.18994188  0.83242303  0.57992446  1
  Se  Se12  1  0.77666896  0.77734194  0.77411885  1
  Se  Se13  1  0.22242346  0.22373011  0.21549875  1
loop_
_geom_bond_atom_site_label_1
_geom_bond_atom_site_label_2
_geom_bond_distance
_geom_bond_site_symmetry_2
Rb0 Se4 3.615227 1_555
Rb0 Se5 3.635265 1_555
Rb0 Se3 3.656199 1_555
Rb0 Se13 3.742858 1_555
Rb0 Se8 3.810366 1_555
Rb0 Se7 3.861180 1_555
Rb0 Se1 3.873602 1_554
Rb0 Se6 3.884945 1_555
Rb0 Se2 3.920120 1_545
Rb0 Se0 3.920617 1_455
Rb1 Se1 3.638293 1_555
Rb1 Se0 3.640291 1_555
Rb1 Se2 3.650253 1_555
Rb1 Se12 3.668326 1_555
Rb1 Se10 3.794320 1_555
Rb1 Se11 3.828913 1_555
Rb1 Se9 3.879512 1_555
Rb1 Se4 3.898481 1_556
Rb1 Se5 3.928293 1_565
Rb1 Se3 4.010266 1_655
Tc0 W1 2.615416 1_546
Tc0 W4 2.677431 1_555
Tc1 W4 2.589122 1_564
Tc1 W1 2.657419 1_555
Tc1 Tc5 2.721133 1_554
Tc2 W4 2.587537 1_654
Tc2 W1 2.646976 1_645
Tc2 Tc4 2.726382 1_554
Tc3 W2 2.626691 1_654
Tc3 W3 2.657735 1_555
Tc3 Tc4 2.670518 1_564
Tc3 Tc5 2.677331 1_654
Tc4 W3 2.649702 1_546
Tc4 W0 2.674414 1_555
Tc4 Tc5 2.693513 1_645
Tc4 W4 2.734359 1_655
Tc5 W0 2.653169 1_465
Tc5 W2 2.684550 1_555
Tc5 W4 2.722149 1_565
Tc6 W1 2.604643 1_645
Tc6 W4 2.662078 1_654
W0 W2 2.581624 1_645
W0 W3 2.581887 1_546
W2 W3 2.586630 1_456
Se0 Tc5 2.569642 1_645
Se0 Tc4 2.585158 1_555
Se0 W4 2.649655 1_655
Se0 W0 2.696927 1_555
Se1 Tc5 2.558371 1_555
Se1 Tc3 2.567769 1_456
Se1 Tc1 2.627927 1_556
Se1 W2 2.687731 1_555
Se2 Tc4 2.548359 1_564
Se2 Tc3 2.578239 1_555
Se2 Tc2 2.631612 1_565
Se2 W3 2.697149 1_555
Se3 Tc2 2.547280 1_465
Se3 Tc1 2.554687 1_555
Se3 W1 2.634045 1_555
Se3 Tc3 2.685253 1_455
Se4 Tc2 2.550112 1_555
Se4 W4 2.594967 1_654
Se4 Tc6 2.641041 1_555
Se4 Tc4 2.670045 1_554
Se5 Tc1 2.543408 1_546
Se5 W4 2.604467 1_555
Se5 Tc0 2.635900 1_555
Se5 Tc5 2.657507 1_545
Se6 Tc0 2.546895 1_555
Se6 W4 2.557706 1_555
Se6 Tc6 2.625232 1_456
Se6 W2 2.693293 1_555
Se7 Tc1 2.518335 1_555
Se7 W1 2.583839 1_555
Se7 Tc0 2.630013 1_564
Se7 W3 2.683829 1_555
Se8 Tc2 2.521090 1_555
Se8 Tc6 2.539750 1_555
Se8 W1 2.666457 1_645
Se8 W0 2.690202 1_555
Se9 Tc3 2.533724 1_555
Se9 W3 2.591849 1_555
Se9 Tc6 2.630388 1_555
Se9 W2 2.656692 1_654
Se10 Tc4 2.549609 1_555
Se10 W0 2.604883 1_555
Se10 Tc0 2.639773 1_555
Se10 W3 2.668756 1_546
Se11 Tc5 2.549755 1_555
Se11 W2 2.608980 1_555
Se11 W1 2.645915 1_555
Se11 W0 2.659852 1_465
Se12 W3 2.539174 1_556
Se12 W2 2.541165 1_655
Se12 W0 2.546319 1_565
Se13 Tc0 2.480016 1_554
Se13 Tc6 2.481811 1_455
Se13 W1 2.501923 1_545
