# generated using pymatgen
data_Cs12TiTc3S16
_symmetry_space_group_name_H-M   'P 1'
_cell_length_a   9.91475986
_cell_length_b   9.90951387
_cell_length_c   11.60357691
_cell_angle_alpha   90.00000000
_cell_angle_beta   90.00000000
_cell_angle_gamma   89.84715590
_symmetry_Int_Tables_number   1
_chemical_formula_structural   Cs12TiTc3S16
_chemical_formula_sum   'Cs12 Ti1 Tc3 S16'
_cell_volume   1140.05260050
_cell_formula_units_Z   1
loop_
 _symmetry_equiv_pos_site_id
 _symmetry_equiv_pos_as_xyz
  1  'x, y, z'
loop_
 _atom_site_type_symbol
 _atom_site_label
 _atom_site_symmetry_multiplicity
 _atom_site_fract_x
 _atom_site_fract_y
 _atom_site_fract_z
 _atom_site_occupancy
  Cs  Cs0  1  0.40640108  0.84300191  0.75000000  1
  Cs  Cs1  1  0.58788904  0.15388902  0.25000000  1
  Cs  Cs2  1  0.08163686  0.35490229  0.75000000  1
  Cs  Cs3  1  0.71347275  0.55241576  0.95699835  1
  Cs  Cs4  1  0.28879779  0.45716889  0.03814140  1
  Cs  Cs5  1  0.92161981  0.65034605  0.25000000  1
  Cs  Cs6  1  0.20327967  0.95220685  0.03404295  1
  Cs  Cs7  1  0.28879779  0.45716889  0.46185860  1
  Cs  Cs8  1  0.20327967  0.95220685  0.46595705  1
  Cs  Cs9  1  0.71347275  0.55241576  0.54300165  1
  Cs  Cs10  1  0.79762431  0.03812262  0.54608306  1
  Cs  Cs11  1  0.79762431  0.03812262  0.95391694  1
  Ti  Ti0  1  0.98217015  0.77681157  0.75000000  1
  Tc  Tc0  1  0.51700078  0.27407986  0.75000000  1
  Tc  Tc1  1  0.01594736  0.22052010  0.25000000  1
  Tc  Tc2  1  0.48531394  0.72646608  0.25000000  1
  S  S0  1  0.57152087  0.52100269  0.25000000  1
  S  S1  1  0.06855157  0.98962803  0.75000000  1
  S  S2  1  0.45570370  0.16921553  0.90761245  1
  S  S3  1  0.04763920  0.66802645  0.58660163  1
  S  S4  1  0.42992635  0.47814318  0.75000000  1
  S  S5  1  0.95067265  0.32658988  0.09417075  1
  S  S6  1  0.54746421  0.83360848  0.40641548  1
  S  S7  1  0.75305330  0.79164359  0.75000000  1
  S  S8  1  0.04763920  0.66802645  0.91339837  1
  S  S9  1  0.26485008  0.71018727  0.25000000  1
  S  S10  1  0.54746421  0.83360848  0.09358452  1
  S  S11  1  0.23746958  0.20744441  0.25000000  1
  S  S12  1  0.73695954  0.29178585  0.75000000  1
  S  S13  1  0.45570370  0.16921553  0.59238755  1
  S  S14  1  0.93038208  0.01544117  0.25000000  1
  S  S15  1  0.95067265  0.32658988  0.40582925  1
loop_
_geom_bond_atom_site_label_1
_geom_bond_atom_site_label_2
_geom_bond_distance
_geom_bond_site_symmetry_2
Cs0 S7 3.473107 1_555
Cs0 S4 3.622467 1_555
Cs0 S1 3.647697 1_555
Cs0 S13 3.747260 1_565
Cs0 S2 3.747260 1_565
Cs1 S11 3.513225 1_555
Cs1 S0 3.641103 1_555
Cs1 S14 3.659019 1_555
Cs1 S6 3.678959 1_545
Cs1 S10 3.678959 1_545
Cs2 S12 3.475798 1_455
Cs2 S1 3.622360 1_545
Cs2 S8 3.651153 1_555
Cs2 S3 3.651153 1_555
Cs2 S4 3.665870 1_555
Cs3 S7 3.398247 1_555
Cs3 S12 3.534213 1_555
Cs3 S8 3.544837 1_655
Cs3 S10 3.600138 1_556
Cs3 S5 3.611666 1_556
Cs3 S0 3.693124 1_556
Cs3 S4 3.771650 1_555
Cs4 S8 3.485902 1_554
Cs4 S9 3.518952 1_555
Cs4 S11 3.526034 1_555
Cs4 S2 3.626242 1_554
Cs4 S4 3.630629 1_554
Cs4 S5 3.654994 1_455
Cs4 S0 3.782918 1_555
Cs5 S9 3.455884 1_655
Cs5 S14 3.619190 1_565
Cs5 S15 3.693307 1_555
Cs5 S5 3.693307 1_555
Cs5 S0 3.703435 1_555
Cs5 S3 4.104648 1_655
Cs5 S8 4.104648 1_654
Cs6 S8 3.506361 1_554
Cs6 S9 3.520806 1_555
Cs6 S1 3.575230 1_554
Cs6 S11 3.577170 1_565
Cs6 S2 3.615107 1_564
Cs6 S10 3.671833 1_555
Cs6 S14 3.739506 1_465
Cs7 S3 3.485902 1_555
Cs7 S9 3.518952 1_555
Cs7 S11 3.526034 1_555
Cs7 S13 3.626242 1_555
Cs7 S4 3.630629 1_555
Cs7 S15 3.654994 1_455
Cs7 S0 3.782918 1_555
Cs8 S3 3.506361 1_555
Cs8 S9 3.520806 1_555
Cs8 S1 3.575230 1_555
Cs8 S11 3.577170 1_565
Cs8 S13 3.615107 1_565
Cs8 S6 3.671833 1_555
Cs8 S14 3.739506 1_465
Cs9 S7 3.398247 1_555
Cs9 S12 3.534213 1_555
Cs9 S3 3.544837 1_655
Cs9 S6 3.600138 1_555
Cs9 S15 3.611666 1_555
Cs9 S0 3.693124 1_555
Cs9 S4 3.771650 1_555
Cs10 S7 3.430092 1_545
Cs10 S12 3.503003 1_555
Cs10 S6 3.593373 1_545
Cs10 S1 3.610865 1_645
Cs10 S15 3.625709 1_555
Cs10 S13 3.666781 1_555
Cs10 S14 3.685782 1_555
Cs11 S7 3.430092 1_545
Cs11 S12 3.503003 1_555
Cs11 S10 3.593373 1_546
Cs11 S1 3.610865 1_645
Cs11 S5 3.625709 1_556
Cs11 S2 3.666781 1_555
Cs11 S14 3.685782 1_556
S0 Tc2 2.206067 1_555
S1 Ti0 2.278297 1_455
S2 Tc0 2.190280 1_555
S3 Ti0 2.274763 1_455
S4 Tc0 2.196628 1_555
S5 Tc1 2.188500 1_655
S6 Tc2 2.191944 1_555
S7 Ti0 2.275997 1_555
S8 Ti0 2.274763 1_455
S9 Tc2 2.192220 1_555
S10 Tc2 2.191944 1_555
S11 Tc1 2.199813 1_555
S12 Tc0 2.188352 1_555
S13 Tc0 2.190280 1_555
S14 Tc1 2.204287 1_655
S15 Tc1 2.188500 1_655
