# generated using pymatgen
data_SrFeIO6
_symmetry_space_group_name_H-M   'P 1'
_cell_length_a   5.19721103
_cell_length_b   5.19721087
_cell_length_c   5.34794926
_cell_angle_alpha   90.00000000
_cell_angle_beta   90.00000000
_cell_angle_gamma   120.00000102
_symmetry_Int_Tables_number   1
_chemical_formula_structural   SrFeIO6
_chemical_formula_sum   'Sr1 Fe1 I1 O6'
_cell_volume   125.10037014
_cell_formula_units_Z   1
loop_
 _symmetry_equiv_pos_site_id
 _symmetry_equiv_pos_as_xyz
  1  'x, y, z'
loop_
 _atom_site_type_symbol
 _atom_site_label
 _atom_site_symmetry_multiplicity
 _atom_site_fract_x
 _atom_site_fract_y
 _atom_site_fract_z
 _atom_site_occupancy
  Sr  Sr0  1  0.00000000  0.00000000  0.00000000  1
  Fe  Fe0  1  0.33333300  0.66666700  0.50000000  1
  I  I0  1  0.66666700  0.33333300  0.50000000  1
  O  O0  1  0.38853132  0.02042511  0.70070394  1
  O  O1  1  0.97957489  0.36810721  0.70070394  1
  O  O2  1  0.63189279  0.61146868  0.70070394  1
  O  O3  1  0.97957489  0.61146868  0.29929606  1
  O  O4  1  0.63189279  0.02042511  0.29929606  1
  O  O5  1  0.38853132  0.36810721  0.29929606  1
loop_
_geom_bond_atom_site_label_1
_geom_bond_atom_site_label_2
_geom_bond_distance
_geom_bond_site_symmetry_2
Fe0 O4 2.021691 1_565
Fe0 O0 2.021691 1_565
Fe0 O1 2.021691 1_455
Fe0 O5 2.021691 1_555
Fe0 O2 2.021691 1_555
Fe0 O3 2.021691 1_455
I0 O4 1.880299 1_555
I0 O1 1.880300 1_555
I0 O0 1.880303 1_555
I0 O3 1.880303 1_555
I0 O2 1.880308 1_555
I0 O5 1.880308 1_555
O0 Sr0 2.537004 1_556
O1 Sr0 2.537008 1_656
O2 Sr0 2.537006 1_666
O3 Sr0 2.537004 1_665
O4 Sr0 2.537008 1_655
O5 Sr0 2.537006 1_555
