# generated using pymatgen
data_Y20Cd3Ag3Ru2
_symmetry_space_group_name_H-M   'P 1'
_cell_length_a   9.58522170
_cell_length_b   9.58522103
_cell_length_c   9.76894640
_cell_angle_alpha   90.00000000
_cell_angle_beta   90.00000000
_cell_angle_gamma   119.99999892
_symmetry_Int_Tables_number   1
_chemical_formula_structural   Y20Cd3Ag3Ru2
_chemical_formula_sum   'Y20 Cd3 Ag3 Ru2'
_cell_volume   777.28924255
_cell_formula_units_Z   1
loop_
 _symmetry_equiv_pos_site_id
 _symmetry_equiv_pos_as_xyz
  1  'x, y, z'
loop_
 _atom_site_type_symbol
 _atom_site_label
 _atom_site_symmetry_multiplicity
 _atom_site_fract_x
 _atom_site_fract_y
 _atom_site_fract_z
 _atom_site_occupancy
  Y  Y0  1  0.00000000  0.00000000  0.47616024  1
  Y  Y1  1  0.00000000  0.00000000  0.02383976  1
  Y  Y2  1  0.20965563  0.79034437  0.43931847  1
  Y  Y3  1  0.20965563  0.41931226  0.43931847  1
  Y  Y4  1  0.58068774  0.79034437  0.43931847  1
  Y  Y5  1  0.79109781  0.20890219  0.56085441  1
  Y  Y6  1  0.79109781  0.58219561  0.56085441  1
  Y  Y7  1  0.41780439  0.20890219  0.56085441  1
  Y  Y8  1  0.79109781  0.20890219  0.93914559  1
  Y  Y9  1  0.79109781  0.58219561  0.93914559  1
  Y  Y10  1  0.41780439  0.20890219  0.93914559  1
  Y  Y11  1  0.20965563  0.79034437  0.06068153  1
  Y  Y12  1  0.20965563  0.41931226  0.06068153  1
  Y  Y13  1  0.58068774  0.79034437  0.06068153  1
  Y  Y14  1  0.54108847  0.45891153  0.25000000  1
  Y  Y15  1  0.54108847  0.08217694  0.25000000  1
  Y  Y16  1  0.91782306  0.45891153  0.25000000  1
  Y  Y17  1  0.45859869  0.54140131  0.75000000  1
  Y  Y18  1  0.45859869  0.91719638  0.75000000  1
  Y  Y19  1  0.08280362  0.54140131  0.75000000  1
  Cd  Cd0  1  0.10958140  0.89041860  0.75000000  1
  Cd  Cd1  1  0.10958140  0.21916181  0.75000000  1
  Cd  Cd2  1  0.78083819  0.89041860  0.75000000  1
  Ag  Ag0  1  0.87772998  0.12227002  0.25000000  1
  Ag  Ag1  1  0.87772998  0.75546196  0.25000000  1
  Ag  Ag2  1  0.24453804  0.12227002  0.25000000  1
  Ru  Ru0  1  0.33333300  0.66666700  0.25000000  1
  Ru  Ru1  1  0.66666700  0.33333300  0.75000000  1
loop_
_geom_bond_atom_site_label_1
_geom_bond_atom_site_label_2
_geom_bond_distance
_geom_bond_site_symmetry_2
Cd0 Cd1 3.151076 1_565
Cd0 Cd2 3.151077 1_455
Cd0 Y19 3.224743 1_555
Cd0 Y18 3.224743 1_555
Cd0 Y1 3.235132 1_566
Cd0 Y0 3.235132 1_565
Cd0 Y11 3.460029 1_556
Cd0 Y2 3.460029 1_555
Cd0 Y10 3.527439 1_565
Cd0 Y7 3.527439 1_565
Cd0 Y9 3.527439 1_455
Cd0 Y6 3.527439 1_455
Cd1 Cd2 3.151076 1_445
Cd1 Y19 3.224743 1_555
Cd1 Y17 3.224743 1_555
Cd1 Y1 3.235127 1_556
Cd1 Y0 3.235127 1_555
Cd1 Y12 3.460037 1_556
Cd1 Y3 3.460037 1_555
Cd1 Y10 3.527434 1_555
Cd1 Y7 3.527434 1_555
Cd1 Y8 3.527443 1_455
Cd1 Y5 3.527443 1_455
Cd2 Y17 3.224743 1_555
Cd2 Y18 3.224743 1_555
Cd2 Y1 3.235127 1_666
Cd2 Y0 3.235127 1_665
Cd2 Y13 3.460037 1_556
Cd2 Y4 3.460037 1_555
Cd2 Y9 3.527434 1_555
Cd2 Y6 3.527434 1_555
Cd2 Y8 3.527442 1_565
Cd2 Y5 3.527442 1_565
Ag0 Y0 3.000311 1_655
Ag0 Y1 3.000311 1_655
Ag0 Y16 3.052828 1_555
Ag0 Y15 3.052829 1_555
Ag0 Y5 3.360105 1_555
Ag0 Y8 3.360105 1_554
Ag0 Y4 3.548363 1_545
Ag0 Y13 3.548363 1_545
Ag0 Y3 3.548363 1_655
Ag0 Y12 3.548363 1_655
Ag1 Y0 3.000299 1_665
Ag1 Y1 3.000299 1_665
Ag1 Y14 3.052836 1_555
Ag1 Y16 3.052847 1_555
Ag1 Y6 3.360112 1_555
Ag1 Y9 3.360112 1_554
Ag1 Y4 3.548359 1_555
Ag1 Y13 3.548359 1_555
Ag1 Y2 3.548367 1_655
Ag1 Y11 3.548367 1_655
Ag2 Y0 3.000299 1_555
Ag2 Y1 3.000299 1_555
Ag2 Y14 3.052836 1_555
Ag2 Y15 3.052848 1_555
Ag2 Y7 3.360112 1_555
Ag2 Y10 3.360112 1_554
Ag2 Y3 3.548359 1_555
Ag2 Y12 3.548359 1_555
Ag2 Y2 3.548367 1_545
Ag2 Y11 3.548367 1_545
Ru0 Y3 2.763420 1_555
Ru0 Y12 2.763420 1_555
Ru0 Y2 2.763420 1_555
Ru0 Y11 2.763420 1_555
Ru0 Y4 2.763420 1_555
Ru0 Y13 2.763420 1_555
Ru1 Y8 2.771600 1_555
Ru1 Y5 2.771600 1_555
Ru1 Y9 2.771607 1_555
Ru1 Y6 2.771607 1_555
Ru1 Y10 2.771607 1_555
Ru1 Y7 2.771607 1_555
Ru1 Y18 3.454369 1_545
Ru1 Y17 3.454369 1_555
Ru1 Y19 3.454369 1_655
