# generated using pymatgen
data_Cs2Mn(PS3)2
_symmetry_space_group_name_H-M   'P 1'
_cell_length_a   12.84097398
_cell_length_b   6.14907259
_cell_length_c   9.60523642
_cell_angle_alpha   54.44430865
_cell_angle_beta   90.00000000
_cell_angle_gamma   90.00000000
_symmetry_Int_Tables_number   1
_chemical_formula_structural   Cs2Mn(PS3)2
_chemical_formula_sum   'Cs4 Mn2 P4 S12'
_cell_volume   617.02145269
_cell_formula_units_Z   2
loop_
 _symmetry_equiv_pos_site_id
 _symmetry_equiv_pos_as_xyz
  1  'x, y, z'
loop_
 _atom_site_type_symbol
 _atom_site_label
 _atom_site_symmetry_multiplicity
 _atom_site_fract_x
 _atom_site_fract_y
 _atom_site_fract_z
 _atom_site_occupancy
  Cs  Cs0  1  0.32894666  0.21096151  0.52470013  1
  Cs  Cs1  1  0.67105334  0.78903849  0.47529987  1
  Cs  Cs2  1  0.82894666  0.78903849  0.97529987  1
  Cs  Cs3  1  0.17105334  0.21096151  0.02470013  1
  Mn  Mn0  1  0.50000000  0.50000000  0.00000000  1
  Mn  Mn1  1  0.00000000  0.50000000  0.50000000  1
  P  P0  1  0.46155003  0.83722747  0.12064320  1
  P  P1  1  0.03844997  0.83722747  0.62064320  1
  P  P2  1  0.96155003  0.16277253  0.37935680  1
  P  P3  1  0.53844997  0.16277253  0.87935680  1
  S  S0  1  0.07634999  0.00837230  0.73907400  1
  S  S1  1  0.65902985  0.28081963  0.95661510  1
  S  S2  1  0.06828704  0.46006954  0.26100893  1
  S  S3  1  0.92365001  0.99162770  0.26092600  1
  S  S4  1  0.42365001  0.00837230  0.23907400  1
  S  S5  1  0.34097015  0.71918037  0.04338490  1
  S  S6  1  0.43171296  0.46006954  0.76100893  1
  S  S7  1  0.56828704  0.53993046  0.23899107  1
  S  S8  1  0.57634999  0.99162770  0.76092600  1
  S  S9  1  0.15902985  0.71918037  0.54338490  1
  S  S10  1  0.93171296  0.53993046  0.73899107  1
  S  S11  1  0.84097015  0.28081963  0.45661510  1
loop_
_geom_bond_atom_site_label_1
_geom_bond_atom_site_label_2
_geom_bond_distance
_geom_bond_site_symmetry_2
Cs0 S6 3.644624 1_555
Cs0 S9 3.647776 1_545
Cs0 S0 3.650954 1_555
Cs0 S8 3.674382 1_545
Cs0 S5 3.789583 1_555
Cs0 S4 3.812121 1_555
Cs0 S7 3.822640 1_555
Cs0 S9 3.900161 1_555
Cs0 S2 3.930990 1_555
Cs0 S6 4.003031 1_545
Cs0 S5 4.058108 1_546
Cs1 S7 3.644624 1_555
Cs1 S11 3.647776 1_565
Cs1 S3 3.650954 1_555
Cs1 S4 3.674382 1_565
Cs1 S1 3.789583 1_555
Cs1 S8 3.812121 1_555
Cs1 S6 3.822640 1_555
Cs1 S11 3.900161 1_555
Cs1 S10 3.930990 1_555
Cs1 S7 4.003031 1_565
Cs1 S1 4.058108 1_564
Cs2 S10 3.644624 1_555
Cs2 S1 3.647776 1_565
Cs2 S8 3.650954 1_555
Cs2 S0 3.674382 1_665
Cs2 S11 3.789583 1_556
Cs2 S3 3.812121 1_556
Cs2 S2 3.822640 1_656
Cs2 S1 3.900161 1_555
Cs2 S7 3.930990 1_556
Cs2 S10 4.003031 1_565
Cs2 S11 4.058108 1_565
Cs3 S2 3.644624 1_555
Cs3 S5 3.647776 1_545
Cs3 S4 3.650954 1_555
Cs3 S3 3.674382 1_445
Cs3 S9 3.789583 1_554
Cs3 S0 3.812121 1_554
Cs3 S10 3.822640 1_454
Cs3 S5 3.900161 1_555
Cs3 S6 3.930990 1_554
Cs3 S2 4.003031 1_545
Cs3 S9 4.058108 1_545
Mn0 S7 2.598908 1_555
Mn0 S6 2.598908 1_554
Mn0 S1 2.610258 1_554
Mn0 S5 2.610258 1_555
Mn0 S8 2.701822 1_554
Mn0 S4 2.701822 1_555
Mn1 S10 2.598908 1_455
Mn1 S2 2.598908 1_555
Mn1 S9 2.610258 1_555
Mn1 S11 2.610258 1_455
Mn1 S0 2.701822 1_555
Mn1 S3 2.701822 1_455
P0 S4 2.007649 1_565
P0 S7 2.023838 1_555
P0 S5 2.025211 1_555
P1 S0 2.007649 1_565
P1 S10 2.023838 1_455
P1 S9 2.025211 1_555
P2 S3 2.007649 1_545
P2 S2 2.023838 1_655
P2 S11 2.025211 1_555
P3 S8 2.007649 1_545
P3 S6 2.023838 1_555
P3 S1 2.025211 1_555
