# generated using pymatgen
data_Tb(CoGe)2
_symmetry_space_group_name_H-M   'P 1'
_cell_length_a   3.92874913
_cell_length_b   3.92874856
_cell_length_c   5.75278149
_cell_angle_alpha   109.96616449
_cell_angle_beta   109.96615362
_cell_angle_gamma   90.00000305
_symmetry_Int_Tables_number   1
_chemical_formula_structural   Tb(CoGe)2
_chemical_formula_sum   'Tb1 Co2 Ge2'
_cell_volume   77.75500813
_cell_formula_units_Z   1
loop_
 _symmetry_equiv_pos_site_id
 _symmetry_equiv_pos_as_xyz
  1  'x, y, z'
loop_
 _atom_site_type_symbol
 _atom_site_label
 _atom_site_symmetry_multiplicity
 _atom_site_fract_x
 _atom_site_fract_y
 _atom_site_fract_z
 _atom_site_occupancy
  Tb  Tb0  1  0.00000000  0.00000000  0.00000000  1
  Co  Co0  1  0.25000000  0.75000000  0.50000000  1
  Co  Co1  1  0.75000000  0.25000000  0.50000000  1
  Ge  Ge0  1  0.62868182  0.62868182  0.25736464  1
  Ge  Ge1  1  0.37131818  0.37131818  0.74263536  1
loop_
_geom_bond_atom_site_label_1
_geom_bond_atom_site_label_2
_geom_bond_distance
_geom_bond_site_symmetry_2
Co0 Ge0 2.313601 1_555
Co0 Ge1 2.313601 1_555
Co0 Ge1 2.313604 1_565
Co0 Ge0 2.313605 1_455
Co0 Tb0 3.194215 1_566
Co0 Tb0 3.194215 1_555
Co0 Tb0 3.194215 1_565
Co0 Tb0 3.194215 1_666
Co1 Ge1 2.313601 1_555
Co1 Ge0 2.313601 1_555
Co1 Ge0 2.313604 1_545
Co1 Ge1 2.313605 1_655
Co1 Tb0 3.194215 1_655
Co1 Tb0 3.194215 1_666
Co1 Tb0 3.194215 1_656
Co1 Tb0 3.194215 1_555
Ge0 Ge1 2.592977 1_554
Ge0 Tb0 3.065681 1_555
Ge0 Tb0 3.065684 1_655
Ge0 Tb0 3.065684 1_565
Ge0 Tb0 3.065686 1_665
Ge1 Tb0 3.065681 1_666
Ge1 Tb0 3.065684 1_566
Ge1 Tb0 3.065684 1_656
Ge1 Tb0 3.065686 1_556
