# generated using pymatgen
data_TaAg3Te4
_symmetry_space_group_name_H-M   'P 1'
_cell_length_a   6.44915096
_cell_length_b   9.09811792
_cell_length_c   9.09811792
_cell_angle_alpha   90.00000000
_cell_angle_beta   90.00000000
_cell_angle_gamma   90.00000000
_symmetry_Int_Tables_number   1
_chemical_formula_structural   TaAg3Te4
_chemical_formula_sum   'Ta2 Ag6 Te8'
_cell_volume   533.83330586
_cell_formula_units_Z   2
loop_
 _symmetry_equiv_pos_site_id
 _symmetry_equiv_pos_as_xyz
  1  'x, y, z'
loop_
 _atom_site_type_symbol
 _atom_site_label
 _atom_site_symmetry_multiplicity
 _atom_site_fract_x
 _atom_site_fract_y
 _atom_site_fract_z
 _atom_site_occupancy
  Ta  Ta0  1  0.00000000  0.50000000  0.50000000  1
  Ta  Ta1  1  0.00000000  0.00000000  0.00000000  1
  Ag  Ag0  1  0.00000000  0.25000941  0.25000941  1
  Ag  Ag1  1  0.00000000  0.74999059  0.74999059  1
  Ag  Ag2  1  0.00000000  0.25000941  0.74999059  1
  Ag  Ag3  1  0.00000000  0.74999059  0.25000941  1
  Ag  Ag4  1  0.50000000  0.00000000  0.00000000  1
  Ag  Ag5  1  0.50000000  0.50000000  0.50000000  1
  Te  Te0  1  0.75898258  0.50000000  0.74126076  1
  Te  Te1  1  0.75898768  0.00000000  0.24129908  1
  Te  Te2  1  0.75898258  0.50000000  0.25873924  1
  Te  Te3  1  0.75898768  0.00000000  0.75870092  1
  Te  Te4  1  0.24101232  0.75870092  0.00000000  1
  Te  Te5  1  0.24101742  0.25873924  0.50000000  1
  Te  Te6  1  0.24101232  0.24129908  0.00000000  1
  Te  Te7  1  0.24101742  0.74126076  0.50000000  1
loop_
_geom_bond_atom_site_label_1
_geom_bond_atom_site_label_2
_geom_bond_distance
_geom_bond_site_symmetry_2
Ta0 Te0 2.689635 1_455
Ta0 Te7 2.689635 1_555
Ta0 Te5 2.689635 1_555
Ta0 Te2 2.689635 1_455
Ta1 Te6 2.689900 1_555
Ta1 Te1 2.689900 1_455
Ta1 Te4 2.689900 1_545
Ta1 Te3 2.689900 1_454
Ag0 Te5 2.755981 1_555
Ag0 Te2 2.755981 1_455
Ag0 Te6 2.756099 1_555
Ag0 Te1 2.756099 1_455
Ag0 Ta0 3.216549 1_555
Ag0 Ta1 3.216791 1_555
Ag1 Te0 2.755981 1_455
Ag1 Te7 2.755981 1_555
Ag1 Te4 2.756099 1_556
Ag1 Te3 2.756099 1_465
Ag1 Ta0 3.216549 1_555
Ag1 Ta1 3.216791 1_566
Ag2 Te5 2.755981 1_555
Ag2 Te0 2.755981 1_455
Ag2 Te3 2.756099 1_455
Ag2 Te6 2.756099 1_556
Ag2 Ta0 3.216549 1_555
Ag2 Ta1 3.216791 1_556
Ag3 Te2 2.755981 1_455
Ag3 Te7 2.755981 1_555
Ag3 Te4 2.756099 1_555
Ag3 Te1 2.756099 1_465
Ag3 Ta0 3.216549 1_555
Ag3 Ta1 3.216791 1_565
Ag4 Te1 2.758510 1_555
Ag4 Te6 2.758510 1_555
Ag4 Te3 2.758510 1_554
Ag4 Te4 2.758510 1_545
Ag4 Ta1 3.224575 1_655
Ag4 Ta1 3.224575 1_555
Ag5 Te7 2.758212 1_555
Ag5 Te0 2.758212 1_555
Ag5 Te5 2.758212 1_555
Ag5 Te2 2.758212 1_555
Ag5 Ta0 3.224575 1_555
Ag5 Ta0 3.224575 1_655
