# generated using pymatgen
data_Zr3TiIr2N
_symmetry_space_group_name_H-M   'P 1'
_cell_length_a   8.62286167
_cell_length_b   8.62286233
_cell_length_c   8.62286302
_cell_angle_alpha   60.00000493
_cell_angle_beta   60.00000241
_cell_angle_gamma   59.99999976
_symmetry_Int_Tables_number   1
_chemical_formula_structural   Zr3TiIr2N
_chemical_formula_sum   'Zr12 Ti4 Ir8 N4'
_cell_volume   453.35601707
_cell_formula_units_Z   4
loop_
 _symmetry_equiv_pos_site_id
 _symmetry_equiv_pos_as_xyz
  1  'x, y, z'
loop_
 _atom_site_type_symbol
 _atom_site_label
 _atom_site_symmetry_multiplicity
 _atom_site_fract_x
 _atom_site_fract_y
 _atom_site_fract_z
 _atom_site_occupancy
  Zr  Zr0  1  0.81154437  0.81154437  0.18845563  1
  Zr  Zr1  1  0.18845563  0.18845563  0.81154437  1
  Zr  Zr2  1  0.81154437  0.18845563  0.81154437  1
  Zr  Zr3  1  0.18845563  0.81154437  0.18845563  1
  Zr  Zr4  1  0.18845563  0.81154437  0.81154437  1
  Zr  Zr5  1  0.81154437  0.18845563  0.18845563  1
  Zr  Zr6  1  0.43845563  0.43845563  0.06154437  1
  Zr  Zr7  1  0.06154437  0.06154437  0.43845563  1
  Zr  Zr8  1  0.43845563  0.06154437  0.43845563  1
  Zr  Zr9  1  0.06154437  0.43845563  0.06154437  1
  Zr  Zr10  1  0.06154437  0.43845563  0.43845563  1
  Zr  Zr11  1  0.43845563  0.06154437  0.06154437  1
  Ti  Ti0  1  0.12500000  0.62500000  0.62500000  1
  Ti  Ti1  1  0.62500000  0.12500000  0.62500000  1
  Ti  Ti2  1  0.62500000  0.62500000  0.12500000  1
  Ti  Ti3  1  0.62500000  0.62500000  0.62500000  1
  Ir  Ir0  1  0.74947391  0.41684303  0.41684303  1
  Ir  Ir1  1  0.41684303  0.74947391  0.41684303  1
  Ir  Ir2  1  0.41684303  0.41684303  0.74947391  1
  Ir  Ir3  1  0.41684303  0.41684303  0.41684303  1
  Ir  Ir4  1  0.50052609  0.83315697  0.83315697  1
  Ir  Ir5  1  0.83315697  0.50052609  0.83315697  1
  Ir  Ir6  1  0.83315697  0.83315697  0.50052609  1
  Ir  Ir7  1  0.83315697  0.83315697  0.83315697  1
  N  N0  1  0.62500000  0.12500000  0.12500000  1
  N  N1  1  0.12500000  0.62500000  0.12500000  1
  N  N2  1  0.12500000  0.12500000  0.62500000  1
  N  N3  1  0.12500000  0.12500000  0.12500000  1
loop_
_geom_bond_atom_site_label_1
_geom_bond_atom_site_label_2
_geom_bond_distance
_geom_bond_site_symmetry_2
Ir0 Ti3 2.638955 1_555
Ir0 Ti1 2.638976 1_555
Ir0 Ti2 2.638977 1_555
Ir0 Ir3 2.868230 1_555
Ir0 Ir1 2.868230 1_555
Ir0 Ir2 2.868230 1_555
Ir0 Zr10 2.889348 1_655
Ir0 Zr7 2.889363 1_655
Ir0 Zr9 2.889363 1_655
Ir0 Zr0 3.132617 1_555
Ir0 Zr2 3.132617 1_555
Ir0 Zr5 3.132639 1_555
Ir1 Ti3 2.638955 1_555
Ir1 Ti0 2.638976 1_555
Ir1 Ti2 2.638976 1_555
Ir1 Ir3 2.868230 1_555
Ir1 Ir2 2.868231 1_555
Ir1 Zr8 2.889349 1_565
Ir1 Zr7 2.889363 1_565
Ir1 Zr11 2.889363 1_565
Ir1 Zr0 3.132617 1_555
Ir1 Zr4 3.132617 1_555
Ir1 Zr3 3.132639 1_555
Ir2 Ti3 2.638955 1_555
Ir2 Ti0 2.638976 1_555
Ir2 Ti1 2.638976 1_555
Ir2 Ir3 2.868231 1_555
Ir2 Zr6 2.889349 1_556
Ir2 Zr9 2.889363 1_556
Ir2 Zr11 2.889363 1_556
Ir2 Zr2 3.132617 1_555
Ir2 Zr4 3.132617 1_555
Ir2 Zr1 3.132639 1_555
Ir3 Ti0 2.638962 1_555
Ir3 Ti1 2.638962 1_555
Ir3 Ti2 2.638962 1_555
Ir3 Zr10 2.889374 1_555
Ir3 Zr8 2.889374 1_555
Ir3 Zr6 2.889375 1_555
Ir3 Zr5 3.132627 1_555
Ir3 Zr3 3.132627 1_555
Ir3 Zr1 3.132627 1_555
Ir4 Ti3 2.638955 1_555
Ir4 Ti1 2.638976 1_565
Ir4 Ti2 2.638977 1_556
Ir4 Ir7 2.868230 1_555
Ir4 Ir5 2.868230 1_555
Ir4 Ir6 2.868230 1_555
Ir4 Zr4 2.889348 1_555
Ir4 Zr1 2.889363 1_565
Ir4 Zr3 2.889363 1_556
Ir4 Zr6 3.132617 1_556
Ir4 Zr8 3.132617 1_565
Ir4 Zr11 3.132639 1_566
Ir5 Ti3 2.638955 1_555
Ir5 Ti0 2.638976 1_655
Ir5 Ti2 2.638976 1_556
Ir5 Ir7 2.868230 1_555
Ir5 Ir6 2.868231 1_555
Ir5 Zr2 2.889349 1_555
Ir5 Zr1 2.889363 1_655
Ir5 Zr5 2.889363 1_556
Ir5 Zr6 3.132617 1_556
Ir5 Zr10 3.132617 1_655
Ir5 Zr9 3.132639 1_656
Ir6 Ti3 2.638955 1_555
Ir6 Ti0 2.638976 1_655
Ir6 Ti1 2.638976 1_565
Ir6 Ir7 2.868231 1_555
Ir6 Zr0 2.889349 1_555
Ir6 Zr3 2.889363 1_655
Ir6 Zr5 2.889363 1_565
Ir6 Zr8 3.132617 1_565
Ir6 Zr10 3.132617 1_655
Ir6 Zr7 3.132639 1_665
Ir7 Ti0 2.638962 1_655
Ir7 Ti1 2.638962 1_565
Ir7 Ti2 2.638962 1_556
Ir7 Zr4 2.889374 1_655
Ir7 Zr2 2.889374 1_565
Ir7 Zr0 2.889375 1_556
Ir7 Zr11 3.132627 1_566
Ir7 Zr9 3.132627 1_656
Ir7 Zr7 3.132627 1_665
N0 Zr5 2.290392 1_555
N0 Zr11 2.290392 1_555
N0 Zr6 2.290393 1_555
N0 Zr0 2.290393 1_545
N0 Zr8 2.290393 1_555
N0 Zr2 2.290393 1_554
N1 Zr6 2.290392 1_555
N1 Zr0 2.290392 1_455
N1 Zr3 2.290392 1_555
N1 Zr9 2.290392 1_555
N1 Zr10 2.290393 1_555
N1 Zr4 2.290393 1_554
N2 Zr8 2.290392 1_555
N2 Zr2 2.290392 1_455
N2 Zr1 2.290393 1_555
N2 Zr7 2.290393 1_555
N2 Zr10 2.290393 1_555
N2 Zr4 2.290393 1_545
N3 Zr11 2.290392 1_555
N3 Zr5 2.290392 1_455
N3 Zr9 2.290393 1_555
N3 Zr3 2.290393 1_545
N3 Zr7 2.290393 1_555
N3 Zr1 2.290393 1_554
