# generated using pymatgen
data_Zr6Zn18Pd5C
_symmetry_space_group_name_H-M   'P 1'
_cell_length_a   8.65123837
_cell_length_b   8.65123814
_cell_length_c   8.65123777
_cell_angle_alpha   59.73979830
_cell_angle_beta   59.73979948
_cell_angle_gamma   59.73979540
_symmetry_Int_Tables_number   1
_chemical_formula_structural   Zr6Zn18Pd5C
_chemical_formula_sum   'Zr6 Zn18 Pd5 C1'
_cell_volume   455.14096994
_cell_formula_units_Z   1
loop_
 _symmetry_equiv_pos_site_id
 _symmetry_equiv_pos_as_xyz
  1  'x, y, z'
loop_
 _atom_site_type_symbol
 _atom_site_label
 _atom_site_symmetry_multiplicity
 _atom_site_fract_x
 _atom_site_fract_y
 _atom_site_fract_z
 _atom_site_occupancy
  Zr  Zr0  1  0.69501739  0.30835417  0.30835417  1
  Zr  Zr1  1  0.30498261  0.69164583  0.69164583  1
  Zr  Zr2  1  0.30835417  0.69501739  0.30835417  1
  Zr  Zr3  1  0.69164583  0.30498261  0.69164583  1
  Zr  Zr4  1  0.30835417  0.30835417  0.69501739  1
  Zr  Zr5  1  0.69164583  0.69164583  0.30498261  1
  Zn  Zn0  1  0.11909362  0.11909362  0.64159479  1
  Zn  Zn1  1  0.11909362  0.64159479  0.11909362  1
  Zn  Zn2  1  0.88090638  0.88090638  0.35840521  1
  Zn  Zn3  1  0.88090638  0.35840521  0.88090638  1
  Zn  Zn4  1  0.64159479  0.11909362  0.11909362  1
  Zn  Zn5  1  0.35840521  0.88090638  0.88090638  1
  Zn  Zn6  1  0.50000000  0.00000000  0.00000000  1
  Zn  Zn7  1  0.00000000  0.50000000  0.00000000  1
  Zn  Zn8  1  0.00000000  0.00000000  0.50000000  1
  Zn  Zn9  1  0.33234829  0.33234829  0.33234829  1
  Zn  Zn10  1  0.66765171  0.66765171  0.66765171  1
  Zn  Zn11  1  0.32837129  0.32837129  0.00910005  1
  Zn  Zn12  1  0.32837129  0.00910005  0.32837129  1
  Zn  Zn13  1  0.67162871  0.67162871  0.99089995  1
  Zn  Zn14  1  0.67162871  0.99089995  0.67162871  1
  Zn  Zn15  1  0.00910005  0.32837129  0.32837129  1
  Zn  Zn16  1  0.99089995  0.67162871  0.67162871  1
  Zn  Zn17  1  0.00000000  0.00000000  0.00000000  1
  Pd  Pd0  1  0.11778581  0.11778581  0.11778581  1
  Pd  Pd1  1  0.88221419  0.88221419  0.88221419  1
  Pd  Pd2  1  0.00000000  0.50000000  0.50000000  1
  Pd  Pd3  1  0.50000000  0.00000000  0.50000000  1
  Pd  Pd4  1  0.50000000  0.50000000  0.00000000  1
  C  C0  1  0.50000000  0.50000000  0.50000000  1
loop_
_geom_bond_atom_site_label_1
_geom_bond_atom_site_label_2
_geom_bond_distance
_geom_bond_site_symmetry_2
Zn0 Zn17 2.523396 1_556
Zn0 Zn8 2.690262 1_555
Zn0 Zn15 2.728396 1_555
Zn0 Zn12 2.728396 1_555
Zn0 Zn9 2.728786 1_555
Zn0 Zn5 2.922220 1_545
Zn0 Zn3 2.922220 1_455
Zn0 Zr1 3.089160 1_545
Zn0 Zr3 3.089160 1_455
Zn0 Zr4 3.130917 1_555
Zn1 Zn17 2.523396 1_565
Zn1 Zn7 2.690262 1_555
Zn1 Zn11 2.728396 1_555
Zn1 Zn15 2.728396 1_555
Zn1 Zn9 2.728786 1_555
Zn1 Zn2 2.922220 1_455
Zn1 Zn5 2.922220 1_554
Zn1 Zr1 3.089160 1_554
Zn1 Zr5 3.089161 1_455
Zn1 Zr2 3.130917 1_555
Zn2 Zn8 2.690262 1_665
Zn2 Zn4 2.922220 1_565
Zn2 Zr0 3.089160 1_565
Zn2 Zr2 3.089160 1_655
Zn2 Zr5 3.130917 1_555
Zn3 Zn7 2.690262 1_656
Zn3 Zn4 2.922220 1_556
Zn3 Zr0 3.089160 1_556
Zn3 Zr4 3.089161 1_655
Zn3 Zr3 3.130917 1_555
Zn4 Zn6 2.690262 1_555
Zn4 Zn9 2.728786 1_555
Zn4 Zr3 3.089160 1_554
Zn4 Zr5 3.089160 1_545
Zn4 Zr0 3.130917 1_555
Zn5 Zn6 2.690262 1_566
Zn5 Zr2 3.089160 1_556
Zn5 Zr4 3.089160 1_565
Zn5 Zr1 3.130917 1_555
Zn6 Zr5 3.111947 1_545
Zn6 Zr4 3.111947 1_554
Zn6 Zr3 3.111948 1_554
Zn6 Zr2 3.111948 1_545
Zn7 Zr5 3.111947 1_455
Zn7 Zr4 3.111947 1_554
Zn7 Zr1 3.111948 1_554
Zn7 Zr0 3.111948 1_455
Zn8 Zr1 3.111947 1_545
Zn8 Zr0 3.111947 1_455
Zn8 Zr3 3.111947 1_455
Zn8 Zr2 3.111947 1_545
Zn10 Zn3 2.728786 1_555
Zn10 Zn5 2.728786 1_555
Zn10 Zn2 2.728786 1_555
Zn10 Zn13 2.831590 1_555
Zn10 Zn14 2.831590 1_555
Zn10 Zn16 2.831590 1_555
Zn11 Zn6 2.477395 1_555
Zn11 Zn7 2.477395 1_555
Zn11 Zn4 2.728396 1_555
Zn11 Zn12 2.751221 1_555
Zn11 Zn15 2.751221 1_555
Zn11 Zn9 2.831590 1_555
Zn11 Zr4 2.902048 1_554
Zn11 Zr1 2.946296 1_554
Zn11 Zr3 2.946297 1_554
Zn12 Zn6 2.477395 1_555
Zn12 Zn8 2.477396 1_555
Zn12 Zn4 2.728396 1_555
Zn12 Zn15 2.751221 1_555
Zn12 Zn9 2.831590 1_555
Zn12 Zr2 2.902048 1_545
Zn12 Zr5 2.946296 1_545
Zn12 Zr1 2.946296 1_545
Zn13 Zn6 2.477395 1_566
Zn13 Zn7 2.477395 1_656
Zn13 Zn3 2.728396 1_555
Zn13 Zn5 2.728396 1_555
Zn13 Zn14 2.751221 1_555
Zn13 Zn16 2.751221 1_555
Zn13 Zr5 2.902048 1_556
Zn13 Zr0 2.946296 1_556
Zn13 Zr2 2.946297 1_556
Zn14 Zn6 2.477395 1_566
Zn14 Zn8 2.477396 1_665
Zn14 Zn2 2.728396 1_555
Zn14 Zn5 2.728396 1_555
Zn14 Zn16 2.751221 1_555
Zn14 Zr3 2.902048 1_565
Zn14 Zr4 2.946296 1_565
Zn14 Zr0 2.946296 1_565
Zn15 Zn7 2.477395 1_555
Zn15 Zn8 2.477396 1_555
Zn15 Zn9 2.831590 1_555
Zn15 Zr0 2.902048 1_455
Zn15 Zr5 2.946296 1_455
Zn15 Zr3 2.946297 1_455
Zn16 Zn7 2.477395 1_656
Zn16 Zn8 2.477396 1_665
Zn16 Zn2 2.728396 1_555
Zn16 Zn3 2.728396 1_555
Zn16 Zr1 2.902048 1_655
Zn16 Zr4 2.946296 1_655
Zn16 Zr2 2.946297 1_655
Zn17 Zn2 2.523396 1_445
Zn17 Zn3 2.523396 1_454
Zn17 Zn5 2.523396 1_544
Zn17 Zn4 2.523396 1_455
Pd0 Zn17 2.500910 1_555
Pd0 Zn8 2.695399 1_555
Pd0 Zn7 2.695399 1_555
Pd0 Zn6 2.695399 1_555
Pd0 Zn15 2.722939 1_555
Pd0 Zn12 2.722939 1_555
Pd0 Zn11 2.722940 1_555
Pd0 Zn3 2.892452 1_454
Pd0 Zn5 2.892452 1_544
Pd0 Zn2 2.892452 1_445
Pd0 Zr2 3.065628 1_545
Pd0 Zr4 3.065628 1_554
Pd0 Zr0 3.065628 1_455
Pd1 Zn17 2.500910 1_666
Pd1 Zn8 2.695399 1_665
Pd1 Zn7 2.695399 1_656
Pd1 Zn6 2.695399 1_566
Pd1 Zn16 2.722939 1_555
Pd1 Zn14 2.722939 1_555
Pd1 Zn13 2.722940 1_555
Pd1 Zn1 2.892452 1_656
Pd1 Zn4 2.892452 1_566
Pd1 Zn0 2.892452 1_665
Pd1 Zr3 3.065628 1_565
Pd1 Zr5 3.065628 1_556
Pd1 Zr1 3.065628 1_655
Pd2 Zn9 2.487657 1_555
Pd2 Zn10 2.487657 1_455
Pd2 Zn16 2.530177 1_455
Pd2 Zn15 2.530177 1_555
Pd2 Zn3 2.683831 1_455
Pd2 Zn1 2.683831 1_555
Pd2 Zn0 2.683831 1_555
Pd2 Zn2 2.683831 1_455
Pd2 Zr4 3.157668 1_555
Pd2 Zr5 3.157668 1_455
Pd2 Zr2 3.157668 1_555
Pd2 Zr3 3.157668 1_455
Pd3 Zn9 2.487657 1_555
Pd3 Zn10 2.487657 1_545
Pd3 Zn14 2.530177 1_545
Pd3 Zn12 2.530177 1_555
Pd3 Zn4 2.683831 1_555
Pd3 Zn5 2.683831 1_545
Pd3 Zn2 2.683831 1_545
Pd3 Zn0 2.683831 1_555
Pd3 Zr4 3.157668 1_555
Pd3 Zr5 3.157668 1_545
Pd3 Zr0 3.157668 1_555
Pd3 Zr1 3.157668 1_545
Pd4 Zn10 2.487657 1_554
Pd4 Zn9 2.487657 1_555
Pd4 Zn13 2.530177 1_554
Pd4 Zn11 2.530177 1_555
Pd4 Zn5 2.683831 1_554
Pd4 Zn4 2.683831 1_555
Pd4 Zn3 2.683831 1_554
Pd4 Zn1 2.683831 1_555
Pd4 Zr0 3.157668 1_555
Pd4 Zr1 3.157668 1_554
Pd4 Zr2 3.157668 1_555
Pd4 Zr3 3.157668 1_554
C0 Zr3 2.340139 1_555
C0 Zr2 2.340139 1_555
C0 Zr1 2.340139 1_555
C0 Zr0 2.340139 1_555
C0 Zr5 2.340139 1_555
C0 Zr4 2.340139 1_555
