# generated using pymatgen
data_Lu4Zn(GeIr)6
_symmetry_space_group_name_H-M   'P 1'
_cell_length_a   7.15991160
_cell_length_b   7.15991128
_cell_length_c   7.15991144
_cell_angle_alpha   109.54746025
_cell_angle_beta   109.54745547
_cell_angle_gamma   109.31885517
_symmetry_Int_Tables_number   1
_chemical_formula_structural   Lu4Zn(GeIr)6
_chemical_formula_sum   'Lu4 Zn1 Ge6 Ir6'
_cell_volume   282.55223700
_cell_formula_units_Z   1
loop_
 _symmetry_equiv_pos_site_id
 _symmetry_equiv_pos_as_xyz
  1  'x, y, z'
loop_
 _atom_site_type_symbol
 _atom_site_label
 _atom_site_symmetry_multiplicity
 _atom_site_fract_x
 _atom_site_fract_y
 _atom_site_fract_z
 _atom_site_occupancy
  Lu  Lu0  1  0.00384904  0.99615096  0.50000000  1
  Lu  Lu1  1  0.00384904  0.50384904  0.00769907  1
  Lu  Lu2  1  0.49615096  0.99615096  0.99230093  1
  Lu  Lu3  1  0.49615096  0.50384904  0.50000000  1
  Zn  Zn0  1  0.75000000  0.25000000  0.50000000  1
  Ge  Ge0  1  0.68084779  0.68084779  1.00000000  1
  Ge  Ge1  1  0.30603452  0.99361792  0.31241660  1
  Ge  Ge2  1  0.00638208  0.31879867  0.31241660  1
  Ge  Ge3  1  0.31915221  0.31915221  0.00000000  1
  Ge  Ge4  1  0.68120133  0.99361792  0.68758340  1
  Ge  Ge5  1  0.00638208  0.69396548  0.68758340  1
  Ir  Ir0  1  0.74611142  0.49092892  0.25518250  1
  Ir  Ir1  1  0.50907108  0.25388858  0.74481750  1
  Ir  Ir2  1  0.23574641  0.49092892  0.74481750  1
  Ir  Ir3  1  0.25000000  0.75000000  0.50000000  1
  Ir  Ir4  1  0.50907108  0.76425359  0.25518250  1
  Ir  Ir5  1  0.00000000  0.00000000  0.00000000  1
loop_
_geom_bond_atom_site_label_1
_geom_bond_atom_site_label_2
_geom_bond_distance
_geom_bond_site_symmetry_2
Lu0 Zn0 2.965232 1_465
Lu1 Zn0 2.965238 1_454
Lu2 Zn0 2.965238 1_566
Lu3 Zn0 2.965232 1_555
Ge0 Ir1 2.543047 1_555
Ge0 Ir4 2.543047 1_556
Ge0 Ir0 2.630076 1_556
Ge0 Ir2 2.630076 1_555
Ge0 Ir5 2.643567 1_666
Ge0 Lu1 2.976255 1_656
Ge0 Lu0 2.976255 1_656
Ge0 Lu3 2.976255 1_555
Ge0 Lu2 2.976256 1_555
Ge1 Ir3 2.544128 1_555
Ge1 Ir1 2.550696 1_565
Ge1 Ir4 2.550696 1_555
Ge1 Ir5 2.581032 1_565
Ge1 Zn0 2.628776 1_565
Ge1 Lu1 2.905112 1_555
Ge1 Lu0 2.905113 1_555
Ge1 Lu3 3.034091 1_565
Ge1 Lu2 3.034098 1_554
Ge2 Ir3 2.544128 1_555
Ge2 Ir2 2.550696 1_555
Ge2 Ir0 2.550696 1_455
Ge2 Ir5 2.581032 1_555
Ge2 Zn0 2.628776 1_455
Ge2 Lu1 2.905107 1_555
Ge2 Lu3 2.905113 1_555
Ge2 Lu0 3.034092 1_545
Ge2 Lu2 3.034092 1_444
Ge3 Ir2 2.543047 1_554
Ge3 Ir0 2.543047 1_555
Ge3 Ir4 2.630076 1_555
Ge3 Ir1 2.630076 1_554
Ge3 Ir5 2.643567 1_555
Ge3 Lu2 2.976255 1_544
Ge3 Lu0 2.976255 1_544
Ge3 Lu3 2.976255 1_555
Ge3 Lu1 2.976256 1_555
Ge4 Ir3 2.544128 1_555
Ge4 Ir4 2.550696 1_555
Ge4 Ir1 2.550696 1_565
Ge4 Ir5 2.581032 1_666
Ge4 Zn0 2.628776 1_565
Ge4 Lu2 2.905107 1_555
Ge4 Lu3 2.905113 1_555
Ge4 Lu0 3.034092 1_655
Ge4 Lu1 3.034092 1_666
Ge5 Ir3 2.544128 1_555
Ge5 Ir0 2.550696 1_455
Ge5 Ir2 2.550696 1_555
Ge5 Ir5 2.581032 1_566
Ge5 Zn0 2.628775 1_455
Ge5 Lu2 2.905112 1_555
Ge5 Lu0 2.905113 1_555
Ge5 Lu3 3.034092 1_455
Ge5 Lu1 3.034098 1_556
Ir0 Zn0 2.841057 1_555
Ir0 Lu3 2.895588 1_555
Ir0 Lu2 2.895588 1_544
Ir0 Lu1 2.956132 1_655
Ir0 Lu0 2.956138 1_655
Ir1 Zn0 2.841057 1_555
Ir1 Lu3 2.895588 1_555
Ir1 Lu1 2.895588 1_656
Ir1 Lu2 2.956132 1_545
Ir1 Lu0 2.956138 1_545
Ir2 Zn0 2.841057 1_455
Ir2 Lu0 2.895588 1_545
Ir2 Lu1 2.895594 1_556
Ir2 Lu2 2.956138 1_555
Ir2 Lu3 2.956138 1_555
Ir3 Lu2 2.875304 1_555
Ir3 Lu1 2.875304 1_555
Ir3 Lu3 2.875310 1_555
Ir3 Lu0 2.875310 1_555
Ir4 Zn0 2.841057 1_565
Ir4 Lu0 2.895588 1_655
Ir4 Lu2 2.895594 1_554
Ir4 Lu3 2.956138 1_555
Ir4 Lu1 2.956138 1_555
