# generated using pymatgen
data_Hf2MnZnCo8
_symmetry_space_group_name_H-M   'P 1'
_cell_length_a   4.77130074
_cell_length_b   4.77130107
_cell_length_c   8.25072564
_cell_angle_alpha   106.80673227
_cell_angle_beta   73.19325803
_cell_angle_gamma   120.00001180
_symmetry_Int_Tables_number   1
_chemical_formula_structural   Hf2MnZnCo8
_chemical_formula_sum   'Hf2 Mn1 Zn1 Co8'
_cell_volume   153.33162964
_cell_formula_units_Z   1
loop_
 _symmetry_equiv_pos_site_id
 _symmetry_equiv_pos_as_xyz
  1  'x, y, z'
loop_
 _atom_site_type_symbol
 _atom_site_label
 _atom_site_symmetry_multiplicity
 _atom_site_fract_x
 _atom_site_fract_y
 _atom_site_fract_z
 _atom_site_occupancy
  Hf  Hf0  1  0.00047303  0.99952697  0.99857790  1
  Hf  Hf1  1  0.49923685  0.50076315  0.50228646  1
  Mn  Mn0  1  0.87493220  0.12506780  0.37520339  1
  Zn  Zn0  1  0.37477269  0.62522731  0.87568194  1
  Co  Co0  1  0.43723515  0.56276485  0.18713787  1
  Co  Co1  1  0.93799149  0.06200851  0.68731672  1
  Co  Co2  1  0.43723515  0.06161016  0.18713787  1
  Co  Co3  1  0.93799149  0.56330070  0.68731672  1
  Co  Co4  1  0.18774007  0.81225993  0.43677978  1
  Co  Co5  1  0.68729775  0.31270225  0.93810676  1
  Co  Co6  1  0.93838984  0.56276485  0.18713787  1
  Co  Co7  1  0.43669930  0.06200851  0.68731672  1
loop_
_geom_bond_atom_site_label_1
_geom_bond_atom_site_label_2
_geom_bond_distance
_geom_bond_site_symmetry_2
Hf0 Zn0 2.915812 1_565
Hf0 Zn0 2.915812 1_455
Hf0 Zn0 2.915824 1_555
Hf0 Mn0 2.929121 1_466
Hf1 Zn0 2.904000 1_555
Hf1 Mn0 2.926648 1_565
Hf1 Mn0 2.926648 1_455
Hf1 Mn0 2.926660 1_555
Co0 Co5 2.378451 1_554
Co0 Co4 2.378634 1_555
Co0 Co6 2.380141 1_455
Co0 Co2 2.380141 1_565
Co0 Co6 2.391160 1_555
Co0 Co2 2.391160 1_555
Co0 Zn0 2.784920 1_554
Co0 Mn0 2.798329 1_455
Co0 Mn0 2.798329 1_565
Co0 Hf0 2.800341 1_654
Co0 Hf0 2.800341 1_544
Co0 Hf1 2.813053 1_555
Co1 Co7 2.379485 1_655
Co1 Co3 2.379485 1_545
Co1 Co4 2.384105 1_645
Co1 Co5 2.389818 1_555
Co1 Co7 2.391816 1_555
Co1 Co3 2.391816 1_555
Co1 Hf0 2.783415 1_645
Co1 Hf1 2.786063 1_655
Co1 Hf1 2.786064 1_545
Co1 Mn0 2.792696 1_555
Co1 Zn0 2.799548 1_545
Co1 Zn0 2.799549 1_655
Co2 Co5 2.378446 1_554
Co2 Co4 2.378638 1_545
Co2 Co6 2.380141 1_445
Co2 Co6 2.391159 1_555
Co2 Zn0 2.784924 1_544
Co2 Mn0 2.798325 1_455
Co2 Mn0 2.798333 1_555
Co2 Hf0 2.800339 1_644
Co2 Hf0 2.800343 1_544
Co2 Hf1 2.813055 1_555
Co3 Co7 2.379485 1_665
Co3 Co4 2.384102 1_655
Co3 Co5 2.389820 1_555
Co3 Co7 2.391815 1_555
Co3 Hf0 2.783420 1_655
Co3 Hf1 2.786060 1_655
Co3 Hf1 2.786068 1_555
Co3 Mn0 2.792698 1_555
Co3 Zn0 2.799547 1_555
Co3 Zn0 2.799551 1_655
Co4 Co6 2.378638 1_455
Co4 Co7 2.384103 1_565
Co4 Mn0 2.796029 1_565
Co4 Mn0 2.796029 1_455
Co4 Mn0 2.796029 1_465
Co4 Hf1 2.801419 1_555
Co4 Hf1 2.801430 1_455
Co4 Hf1 2.801430 1_565
Co5 Co6 2.378446 1_556
Co5 Co7 2.389820 1_555
Co5 Hf0 2.794562 1_645
Co5 Hf0 2.794573 1_545
Co5 Hf0 2.794574 1_655
Co5 Zn0 2.797166 1_655
Co5 Zn0 2.797167 1_545
Co5 Zn0 2.797167 1_555
Co6 Zn0 2.784923 1_654
Co6 Mn0 2.798325 1_565
Co6 Mn0 2.798333 1_555
Co6 Hf0 2.800339 1_644
Co6 Hf0 2.800343 1_654
Co6 Hf1 2.813054 1_555
Co7 Hf0 2.783419 1_545
Co7 Hf1 2.786060 1_545
Co7 Hf1 2.786068 1_555
Co7 Mn0 2.792698 1_555
Co7 Zn0 2.799547 1_555
Co7 Zn0 2.799551 1_545
