# generated using pymatgen
data_Y5Al2SiC4
_symmetry_space_group_name_H-M   'P 1'
_cell_length_a   10.75505019
_cell_length_b   10.75505019
_cell_length_c   3.51384248
_cell_angle_alpha   90.00000000
_cell_angle_beta   90.00000000
_cell_angle_gamma   90.00000000
_symmetry_Int_Tables_number   1
_chemical_formula_structural   Y5Al2SiC4
_chemical_formula_sum   'Y10 Al4 Si2 C8'
_cell_volume   406.45004069
_cell_formula_units_Z   2
loop_
 _symmetry_equiv_pos_site_id
 _symmetry_equiv_pos_as_xyz
  1  'x, y, z'
loop_
 _atom_site_type_symbol
 _atom_site_label
 _atom_site_symmetry_multiplicity
 _atom_site_fract_x
 _atom_site_fract_y
 _atom_site_fract_z
 _atom_site_occupancy
  Y  Y0  1  0.55083941  0.72420007  0.50000000  1
  Y  Y1  1  0.44916059  0.27579993  0.50000000  1
  Y  Y2  1  0.05083941  0.77579993  0.50000000  1
  Y  Y3  1  0.94916059  0.22420007  0.50000000  1
  Y  Y4  1  0.27579993  0.55083941  0.50000000  1
  Y  Y5  1  0.72420007  0.44916059  0.50000000  1
  Y  Y6  1  0.22420007  0.05083941  0.50000000  1
  Y  Y7  1  0.77579993  0.94916059  0.50000000  1
  Y  Y8  1  0.50000000  0.00000000  0.00000000  1
  Y  Y9  1  0.00000000  0.50000000  0.00000000  1
  Al  Al0  1  0.70404948  0.20404948  0.00000000  1
  Al  Al1  1  0.29595052  0.79595052  0.00000000  1
  Al  Al2  1  0.20404948  0.29595052  0.00000000  1
  Al  Al3  1  0.79595052  0.70404948  0.00000000  1
  Si  Si0  1  0.50000000  0.50000000  0.00000000  1
  Si  Si1  1  0.00000000  0.00000000  0.00000000  1
  C  C0  1  0.63411527  0.13411527  0.50000000  1
  C  C1  1  0.36588473  0.86588473  0.50000000  1
  C  C2  1  0.13411527  0.36588473  0.50000000  1
  C  C3  1  0.86588473  0.63411527  0.50000000  1
  C  C4  1  0.16333579  0.66333579  0.00000000  1
  C  C5  1  0.83666421  0.33666421  0.00000000  1
  C  C6  1  0.66333579  0.83666421  0.00000000  1
  C  C7  1  0.33666421  0.16333579  0.00000000  1
loop_
_geom_bond_atom_site_label_1
_geom_bond_atom_site_label_2
_geom_bond_distance
_geom_bond_site_symmetry_2
Al0 C5 2.017062 1_555
Al0 C0 2.053830 1_554
Al0 C0 2.053830 1_555
Al1 C4 2.017062 1_555
Al1 C1 2.053830 1_554
Al1 C1 2.053830 1_555
Al2 C7 2.017062 1_555
Al2 C2 2.053830 1_555
Al2 C2 2.053830 1_554
Al3 C6 2.017062 1_555
Al3 C3 2.053830 1_555
Al3 C3 2.053830 1_554
Si0 Y0 3.033155 1_554
Si0 Y0 3.033155 1_555
Si0 Y5 3.033155 1_555
Si0 Y5 3.033155 1_554
Si0 Y4 3.033155 1_555
Si0 Y4 3.033155 1_554
Si0 Y1 3.033155 1_555
Si0 Y1 3.033155 1_554
Si1 Y6 3.033155 1_555
Si1 Y6 3.033155 1_554
Si1 Y3 3.033155 1_455
Si1 Y3 3.033155 1_454
Si1 Y2 3.033155 1_544
Si1 Y2 3.033155 1_545
Si1 Y7 3.033155 1_444
Si1 Y7 3.033155 1_445
C0 Y1 2.505783 1_555
C0 Y7 2.505783 1_545
C0 Y8 2.692193 1_556
C0 Y8 2.692193 1_555
C1 Y6 2.505783 1_565
C1 Y0 2.505783 1_555
C1 Y8 2.692193 1_565
C1 Y8 2.692193 1_566
C2 Y3 2.505783 1_455
C2 Y4 2.505783 1_555
C2 Y9 2.692193 1_556
C2 Y9 2.692193 1_555
C3 Y2 2.505783 1_655
C3 Y5 2.505783 1_555
C3 Y9 2.692193 1_656
C3 Y9 2.692193 1_655
C4 Y2 2.452278 1_555
C4 Y4 2.452278 1_554
C4 Y2 2.452278 1_554
C4 Y4 2.452278 1_555
C4 Y9 2.484327 1_555
C5 Y3 2.452278 1_554
C5 Y3 2.452278 1_555
C5 Y5 2.452278 1_555
C5 Y5 2.452278 1_554
C5 Y9 2.484327 1_655
C6 Y0 2.452278 1_554
C6 Y7 2.452278 1_554
C6 Y0 2.452278 1_555
C6 Y7 2.452278 1_555
C6 Y8 2.484327 1_565
C7 Y1 2.452278 1_555
C7 Y1 2.452278 1_554
C7 Y6 2.452278 1_554
C7 Y6 2.452278 1_555
C7 Y8 2.484327 1_555
