# generated using pymatgen
data_SrRh4Pb3O14
_symmetry_space_group_name_H-M   'P 1'
_cell_length_a   7.22117298
_cell_length_b   7.21783669
_cell_length_c   7.22117285
_cell_angle_alpha   59.98470903
_cell_angle_beta   60.00000059
_cell_angle_gamma   59.98470883
_symmetry_Int_Tables_number   1
_chemical_formula_structural   SrRh4Pb3O14
_chemical_formula_sum   'Sr1 Rh4 Pb3 O14'
_cell_volume   266.07687429
_cell_formula_units_Z   1
loop_
 _symmetry_equiv_pos_site_id
 _symmetry_equiv_pos_as_xyz
  1  'x, y, z'
loop_
 _atom_site_type_symbol
 _atom_site_label
 _atom_site_symmetry_multiplicity
 _atom_site_fract_x
 _atom_site_fract_y
 _atom_site_fract_z
 _atom_site_occupancy
  Sr  Sr0  1  0.12500000  0.62500000  0.12500000  1
  Rh  Rh0  1  0.62500000  0.62500000  0.62500000  1
  Rh  Rh1  1  0.62500000  0.62500000  0.12500000  1
  Rh  Rh2  1  0.12500000  0.62500000  0.62500000  1
  Rh  Rh3  1  0.62500000  0.12500000  0.62500000  1
  Pb  Pb0  1  0.12500000  0.12500000  0.12500000  1
  Pb  Pb1  1  0.62500000  0.12500000  0.12500000  1
  Pb  Pb2  1  0.12500000  0.12500000  0.62500000  1
  O  O0  1  0.25737029  0.22789114  0.25737029  1
  O  O1  1  0.29743927  0.71432069  0.29743927  1
  O  O2  1  0.95548025  0.95873221  0.54289377  1
  O  O3  1  0.54289377  0.95873221  0.54289377  1
  O  O4  1  0.69080277  0.71432069  0.29743927  1
  O  O5  1  0.95256073  0.53567931  0.55919723  1
  O  O6  1  0.70710623  0.29126779  0.70710623  1
  O  O7  1  0.29451975  0.29126779  0.70710623  1
  O  O8  1  0.70710623  0.29126779  0.29451975  1
  O  O9  1  0.29743927  0.71432069  0.69080277  1
  O  O10  1  0.95256073  0.53567931  0.95256073  1
  O  O11  1  0.55919723  0.53567931  0.95256073  1
  O  O12  1  0.99262971  0.02210886  0.99262971  1
  O  O13  1  0.54289377  0.95873221  0.95548025  1
loop_
_geom_bond_atom_site_label_1
_geom_bond_atom_site_label_2
_geom_bond_distance
_geom_bond_site_symmetry_2
O0 Pb2 2.170932 1_555
O0 Pb1 2.170932 1_555
O0 Pb0 2.170944 1_555
O0 Sr0 2.339756 1_555
O1 Rh2 1.973142 1_555
O1 Rh1 1.973142 1_555
O1 Pb0 2.460218 1_565
O1 Sr0 2.583339 1_555
O2 Rh3 1.979537 1_565
O2 Rh2 1.999830 1_655
O2 Pb2 2.489512 1_665
O2 Pb0 2.489512 1_665
O3 Rh3 1.979537 1_565
O3 Rh0 1.999830 1_555
O3 Pb1 2.489512 1_565
O3 Pb2 2.489512 1_565
O4 Rh0 1.973139 1_555
O4 Rh1 1.973152 1_555
O4 Pb1 2.460216 1_565
O4 Sr0 2.583327 1_655
O5 Rh0 1.973139 1_555
O5 Rh2 1.973152 1_655
O5 Pb2 2.460216 1_655
O5 Sr0 2.583326 1_655
O6 Rh3 1.979537 1_555
O6 Rh0 1.999830 1_555
O6 Pb1 2.489512 1_556
O6 Pb2 2.489512 1_655
O7 Rh3 1.979537 1_555
O7 Rh2 1.999830 1_555
O7 Pb2 2.489512 1_555
O7 Pb0 2.489512 1_556
O8 Rh3 1.979537 1_555
O8 Rh1 1.999830 1_555
O8 Pb1 2.489512 1_555
O8 Pb0 2.489512 1_655
O9 Rh0 1.973139 1_555
O9 Rh2 1.973152 1_555
O9 Pb2 2.460216 1_565
O9 Sr0 2.583326 1_556
O10 Rh2 1.973142 1_655
O10 Rh1 1.973142 1_556
O10 Pb0 2.460218 1_656
O10 Sr0 2.583339 1_656
O11 Rh0 1.973139 1_555
O11 Rh1 1.973152 1_556
O11 Pb1 2.460216 1_556
O11 Sr0 2.583327 1_556
O12 Pb2 2.170932 1_655
O12 Pb1 2.170932 1_556
O12 Pb0 2.170944 1_656
O12 Sr0 2.339756 1_646
O13 Rh3 1.979537 1_565
O13 Rh1 1.999830 1_556
O13 Pb1 2.489512 1_566
O13 Pb0 2.489512 1_566
