# generated using pymatgen
data_KSn6Ir3Rh
_symmetry_space_group_name_H-M   'P 1'
_cell_length_a   6.92124208
_cell_length_b   6.92917248
_cell_length_c   6.95973127
_cell_angle_alpha   119.13468935
_cell_angle_beta   119.09652139
_cell_angle_gamma   91.26072612
_symmetry_Int_Tables_number   1
_chemical_formula_structural   KSn6Ir3Rh
_chemical_formula_sum   'K1 Sn6 Ir3 Rh1'
_cell_volume   239.66813919
_cell_formula_units_Z   1
loop_
 _symmetry_equiv_pos_site_id
 _symmetry_equiv_pos_as_xyz
  1  'x, y, z'
loop_
 _atom_site_type_symbol
 _atom_site_label
 _atom_site_symmetry_multiplicity
 _atom_site_fract_x
 _atom_site_fract_y
 _atom_site_fract_z
 _atom_site_occupancy
  K  K0  1  0.00090860  0.99884570  0.00000000  1
  Sn  Sn0  1  0.47060706  0.12320442  1.00000000  1
  Sn  Sn1  1  0.12449216  0.46753342  0.00000000  1
  Sn  Sn2  1  0.87520372  0.87760248  0.34510615  1
  Sn  Sn3  1  0.53009857  0.53249734  0.65489385  1
  Sn  Sn4  1  0.99931205  0.49873107  0.49885385  1
  Sn  Sn5  1  0.50045820  0.99987722  0.50114615  1
  Ir  Ir0  1  0.75248508  0.41285221  0.00000000  1
  Ir  Ir1  1  0.24422070  0.24506118  0.65348276  1
  Ir  Ir2  1  0.59073895  0.59157942  0.34651724  1
  Rh  Rh0  1  0.41147592  0.75221554  0.00000000  1
loop_
_geom_bond_atom_site_label_1
_geom_bond_atom_site_label_2
_geom_bond_distance
_geom_bond_site_symmetry_2
K0 Sn1 3.340122 1_565
K0 Sn0 3.344786 1_564
K0 Sn3 3.346127 1_454
K0 Sn2 3.346136 1_455
K0 Rh0 3.347995 1_555
K0 Sn5 3.516488 1_555
K0 Sn4 3.516489 1_454
K0 Sn5 3.518667 1_454
K0 Sn4 3.518668 1_465
K0 Sn0 3.788554 1_464
K0 Sn1 3.797899 1_555
K0 Sn2 3.823563 1_454
K0 Sn3 3.823568 1_565
Ir0 Sn1 2.594220 1_655
Ir0 Sn2 2.687910 1_555
Ir0 Sn3 2.687914 1_554
Ir0 Sn4 2.738910 1_555
Ir0 Sn5 2.738911 1_544
Ir0 Sn0 2.768035 1_554
Ir0 Ir2 2.895105 1_555
Ir0 Ir1 2.895110 1_554
Ir0 K0 3.376826 1_645
Ir1 Sn2 2.583422 1_445
Ir1 Sn1 2.694259 1_556
Ir1 Sn4 2.705530 1_455
Ir1 Sn0 2.711113 1_555
Ir1 Sn5 2.713487 1_545
Ir1 Sn3 2.769578 1_555
Ir1 Rh0 2.891193 1_556
Ir1 K0 3.361650 1_545
Ir2 Sn3 2.583423 1_555
Ir2 Sn1 2.694262 1_555
Ir2 Sn5 2.705528 1_555
Ir2 Sn0 2.711117 1_554
Ir2 Sn4 2.713484 1_555
Ir2 Sn2 2.769559 1_555
Ir2 Rh0 2.891187 1_555
Ir2 K0 3.361647 1_656
Rh0 Sn0 2.594113 1_564
Rh0 Sn2 2.678246 1_555
Rh0 Sn3 2.678251 1_554
Rh0 Sn4 2.743259 1_454
Rh0 Sn5 2.743260 1_555
Rh0 Sn1 2.768412 1_555
