# generated using pymatgen
data_Zr6Al13Zn3Pt7
_symmetry_space_group_name_H-M   'P 1'
_cell_length_a   8.73411115
_cell_length_b   8.73411155
_cell_length_c   8.73411213
_cell_angle_alpha   59.94219854
_cell_angle_beta   59.94219845
_cell_angle_gamma   59.94219834
_symmetry_Int_Tables_number   1
_chemical_formula_structural   Zr6Al13Zn3Pt7
_chemical_formula_sum   'Zr6 Al13 Zn3 Pt7'
_cell_volume   470.51285004
_cell_formula_units_Z   1
loop_
 _symmetry_equiv_pos_site_id
 _symmetry_equiv_pos_as_xyz
  1  'x, y, z'
loop_
 _atom_site_type_symbol
 _atom_site_label
 _atom_site_symmetry_multiplicity
 _atom_site_fract_x
 _atom_site_fract_y
 _atom_site_fract_z
 _atom_site_occupancy
  Zr  Zr0  1  0.68539211  0.68539211  0.31550142  1
  Zr  Zr1  1  0.31387613  0.68648621  0.31387613  1
  Zr  Zr2  1  0.68648621  0.31387613  0.31387613  1
  Zr  Zr3  1  0.31387613  0.31387613  0.68648621  1
  Zr  Zr4  1  0.68539211  0.31550142  0.68539211  1
  Zr  Zr5  1  0.31550142  0.68539211  0.68539211  1
  Al  Al0  1  0.87965770  0.87965770  0.87965770  1
  Al  Al1  1  0.12051594  0.12051594  0.64269890  1
  Al  Al2  1  0.12051594  0.64269890  0.12051594  1
  Al  Al3  1  0.64269890  0.12051594  0.12051594  1
  Al  Al4  1  0.11815760  0.11815760  0.11815760  1
  Al  Al5  1  0.66448660  0.66448660  0.00145519  1
  Al  Al6  1  0.66448660  0.00145519  0.66448660  1
  Al  Al7  1  0.00145519  0.66448660  0.66448660  1
  Al  Al8  1  0.66713403  0.66713403  0.66713403  1
  Al  Al9  1  0.33448118  0.33448118  0.99399563  1
  Al  Al10  1  0.33448118  0.99399563  0.33448118  1
  Al  Al11  1  0.99399563  0.33448118  0.33448118  1
  Al  Al12  1  0.33599355  0.33599355  0.33599355  1
  Zn  Zn0  1  0.88059657  0.88059657  0.36055956  1
  Zn  Zn1  1  0.88059657  0.36055956  0.88059657  1
  Zn  Zn2  1  0.36055956  0.88059657  0.88059657  1
  Pt  Pt0  1  0.99701234  0.99701234  0.99701234  1
  Pt  Pt1  1  0.00120673  0.00120673  0.50531236  1
  Pt  Pt2  1  0.49616135  0.00260029  0.49616135  1
  Pt  Pt3  1  0.00260029  0.49616135  0.49616135  1
  Pt  Pt4  1  0.49616135  0.49616135  0.00260029  1
  Pt  Pt5  1  0.00120673  0.50531236  0.00120673  1
  Pt  Pt6  1  0.50531236  0.00120673  0.00120673  1
loop_
_geom_bond_atom_site_label_1
_geom_bond_atom_site_label_2
_geom_bond_distance
_geom_bond_site_symmetry_2
Zr0 Zr5 3.227844 1_555
Zr0 Zr4 3.227844 1_555
Zr0 Zr1 3.247209 1_555
Zr0 Zr2 3.247209 1_555
Zr1 Zr5 3.247209 1_555
Zr1 Zr2 3.251574 1_555
Zr1 Zr3 3.251574 1_555
Zr2 Zr4 3.247209 1_555
Zr2 Zr3 3.251574 1_555
Zr3 Zr4 3.247209 1_555
Zr3 Zr5 3.247209 1_555
Zr4 Zr5 3.227844 1_555
Al0 Pt0 2.511795 1_555
Al0 Pt6 2.668141 1_566
Al0 Pt5 2.668141 1_656
Al0 Pt1 2.668141 1_665
Al0 Al5 2.779934 1_556
Al0 Al6 2.779934 1_565
Al0 Al7 2.779934 1_655
Al0 Al1 2.973994 1_665
Al0 Al2 2.973994 1_656
Al0 Al3 2.973994 1_566
Al0 Zr5 3.192534 1_655
Al0 Zr4 3.192534 1_565
Al0 Zr0 3.192534 1_556
Al1 Pt0 2.526156 1_445
Al1 Pt2 2.681840 1_555
Al1 Pt3 2.681841 1_555
Al1 Pt1 2.684148 1_555
Al1 Al12 2.776210 1_555
Al1 Al11 2.798588 1_455
Al1 Al10 2.798588 1_545
Al1 Zn2 2.950468 1_545
Al1 Zn1 2.950468 1_455
Al1 Zr3 3.162546 1_555
Al1 Zr4 3.196178 1_455
Al1 Zr5 3.196179 1_545
Al2 Pt0 2.526156 1_454
Al2 Pt4 2.681840 1_555
Al2 Pt3 2.681841 1_555
Al2 Pt5 2.684148 1_555
Al2 Al9 2.798588 1_554
Al2 Zn2 2.950468 1_554
Al2 Zn0 2.950468 1_455
Al2 Zr1 3.162546 1_555
Al2 Zr0 3.196178 1_455
Al2 Zr5 3.196179 1_554
Al3 Pt0 2.526155 1_544
Al3 Pt4 2.681841 1_555
Al3 Pt2 2.681841 1_555
Al3 Pt6 2.684148 1_555
Al3 Al9 2.798588 1_554
Al3 Zn1 2.950468 1_554
Al3 Zn0 2.950468 1_545
Al3 Zr2 3.162546 1_555
Al3 Zr0 3.196179 1_545
Al3 Zr4 3.196179 1_554
Al4 Pt0 2.592928 1_444
Al4 Pt6 2.765155 1_555
Al4 Pt5 2.765155 1_555
Al4 Pt1 2.765155 1_555
Al4 Al9 2.790456 1_554
Al4 Zn0 2.933301 1_445
Al4 Zn1 2.933301 1_454
Al4 Zn2 2.933301 1_544
Al4 Zr2 3.173945 1_455
Al4 Zr1 3.173945 1_545
Al4 Zr3 3.173945 1_554
Al5 Pt4 2.541383 1_555
Al5 Pt5 2.546139 1_655
Al5 Pt6 2.546139 1_565
Al5 Zn2 2.741420 1_554
Al5 Zn1 2.741420 1_554
Al5 Al8 2.897019 1_554
Al5 Zr1 2.902664 1_555
Al5 Zr2 2.902664 1_555
Al5 Zr0 2.937188 1_555
Al5 Al7 2.940550 1_654
Al5 Al6 2.940550 1_564
Al6 Pt2 2.541383 1_555
Al6 Pt1 2.546139 1_655
Al6 Pt6 2.546139 1_556
Al6 Zn2 2.741420 1_545
Al6 Zn0 2.741420 1_545
Al6 Al8 2.897019 1_545
Al6 Zr3 2.902663 1_555
Al6 Zr2 2.902664 1_555
Al6 Zr4 2.937188 1_555
Al6 Al7 2.940550 1_645
Al7 Pt3 2.541383 1_555
Al7 Pt1 2.546139 1_565
Al7 Pt5 2.546139 1_556
Al7 Zn1 2.741420 1_455
Al7 Zn0 2.741420 1_455
Al7 Al8 2.897019 1_455
Al7 Zr3 2.902663 1_555
Al7 Zr1 2.902664 1_555
Al7 Zr5 2.937188 1_555
Al8 Pt3 2.551977 1_655
Al8 Pt2 2.551977 1_565
Al8 Pt4 2.551977 1_556
Al8 Zn0 2.757177 1_555
Al8 Zn1 2.757177 1_555
Al8 Zn2 2.757177 1_555
Al8 Zr5 2.920165 1_555
Al8 Zr4 2.920166 1_555
Al8 Zr0 2.920166 1_555
Al9 Pt4 2.490806 1_556
Al9 Pt5 2.502602 1_556
Al9 Pt6 2.502602 1_556
Al9 Zr3 2.877371 1_555
Al9 Zr4 2.889512 1_555
Al9 Zr5 2.889512 1_555
Al10 Pt2 2.490806 1_565
Al10 Pt1 2.502602 1_565
Al10 Pt6 2.502603 1_565
Al10 Al4 2.790456 1_565
Al10 Al3 2.798588 1_565
Al10 Zr1 2.877371 1_555
Al10 Zr0 2.889512 1_555
Al10 Zr5 2.889512 1_555
Al10 Al11 2.971240 1_465
Al10 Al9 2.971240 1_564
Al10 Al12 3.000338 1_565
Al11 Pt3 2.490806 1_655
Al11 Pt1 2.502603 1_655
Al11 Pt5 2.502603 1_655
Al11 Al4 2.790456 1_655
Al11 Al2 2.798588 1_655
Al11 Zr2 2.877371 1_555
Al11 Zr0 2.889512 1_555
Al11 Zr4 2.889512 1_555
Al11 Al9 2.971240 1_654
Al11 Al12 3.000338 1_655
Al12 Pt3 2.488421 1_555
Al12 Pt2 2.488421 1_555
Al12 Pt4 2.488421 1_555
Al12 Al2 2.776210 1_555
Al12 Al3 2.776210 1_555
Al12 Zr2 2.880700 1_555
Al12 Zr1 2.880701 1_555
Al12 Zr3 2.880701 1_555
Al12 Al9 3.000339 1_554
Zn0 Zr1 3.175106 1_655
Zn0 Zr2 3.175106 1_565
Zn0 Zr0 3.197603 1_555
Zn1 Zr3 3.175106 1_655
Zn1 Zr2 3.175107 1_556
Zn1 Zr4 3.197603 1_555
Zn2 Zr3 3.175106 1_565
Zn2 Zr1 3.175107 1_556
Zn2 Zr5 3.197603 1_555
Pt0 Zn2 2.591766 1_655
Pt0 Zn1 2.591766 1_565
Pt0 Zn0 2.591766 1_556
Pt1 Zn0 2.756405 1_445
Pt1 Zr5 3.164140 1_545
Pt1 Zr4 3.164140 1_455
Pt1 Zr2 3.212408 1_455
Pt1 Zr1 3.212408 1_545
Pt2 Zn0 2.740207 1_545
Pt2 Zn2 2.740207 1_545
Pt2 Zr5 3.174434 1_545
Pt2 Zr0 3.174434 1_545
Pt2 Zr2 3.198367 1_555
Pt2 Zr3 3.198367 1_555
Pt3 Zn0 2.740207 1_455
Pt3 Zn1 2.740207 1_455
Pt3 Zr4 3.174434 1_455
Pt3 Zr0 3.174434 1_455
Pt3 Zr1 3.198367 1_555
Pt3 Zr3 3.198367 1_555
Pt4 Zn1 2.740207 1_554
Pt4 Zn2 2.740207 1_554
Pt4 Zr5 3.174435 1_554
Pt4 Zr4 3.174435 1_554
Pt4 Zr2 3.198367 1_555
Pt4 Zr1 3.198367 1_555
Pt5 Zn1 2.756405 1_454
Pt5 Zr5 3.164140 1_554
Pt5 Zr0 3.164140 1_455
Pt5 Zr2 3.212408 1_455
Pt5 Zr3 3.212408 1_554
Pt6 Zn2 2.756405 1_544
Pt6 Zr4 3.164140 1_554
Pt6 Zr0 3.164140 1_545
Pt6 Zr1 3.212408 1_545
Pt6 Zr3 3.212408 1_554
