# generated using pymatgen
data_Cu3AsS4
_symmetry_space_group_name_H-M   'P 1'
_cell_length_a   6.12100792
_cell_length_b   6.39787561
_cell_length_c   7.36478541
_cell_angle_alpha   90.00000000
_cell_angle_beta   90.00000000
_cell_angle_gamma   90.00000000
_symmetry_Int_Tables_number   1
_chemical_formula_structural   Cu3AsS4
_chemical_formula_sum   'Cu6 As2 S8'
_cell_volume   288.41565556
_cell_formula_units_Z   2
loop_
 _symmetry_equiv_pos_site_id
 _symmetry_equiv_pos_as_xyz
  1  'x, y, z'
loop_
 _atom_site_type_symbol
 _atom_site_label
 _atom_site_symmetry_multiplicity
 _atom_site_fract_x
 _atom_site_fract_y
 _atom_site_fract_z
 _atom_site_occupancy
  Cu  Cu0  1  0.99595289  0.83961159  0.50000000  1
  Cu  Cu1  1  0.49253929  0.67060778  0.74996110  1
  Cu  Cu2  1  0.49253929  0.67060778  0.25003890  1
  Cu  Cu3  1  0.99253929  0.32939222  0.24996110  1
  Cu  Cu4  1  0.49595289  0.16038841  0.00000000  1
  Cu  Cu5  1  0.99253929  0.32939222  0.75003890  1
  As  As0  1  0.49847158  0.16969132  0.50000000  1
  As  As1  1  0.99847158  0.83030868  0.00000000  1
  S  S0  1  0.62224757  0.33689004  0.74886877  1
  S  S1  1  0.12224757  0.66310996  0.75113123  1
  S  S2  1  0.12224757  0.66310996  0.24886877  1
  S  S3  1  0.62224757  0.33689004  0.25113123  1
  S  S4  1  0.62399264  0.84185560  0.50000000  1
  S  S5  1  0.12399264  0.15814440  0.00000000  1
  S  S6  1  0.63212616  0.82761881  0.00000000  1
  S  S7  1  0.13212616  0.17238119  0.50000000  1
loop_
_geom_bond_atom_site_label_1
_geom_bond_atom_site_label_2
_geom_bond_distance
_geom_bond_site_symmetry_2
Cu0 S4 2.276817 1_555
Cu0 S7 2.286366 1_665
Cu0 S2 2.300768 1_655
Cu0 S1 2.300768 1_655
Cu1 S6 2.264989 1_556
Cu1 S1 2.267083 1_555
Cu1 S0 2.277938 1_555
Cu1 S4 2.288397 1_555
Cu2 S6 2.264989 1_555
Cu2 S2 2.267083 1_555
Cu2 S3 2.277938 1_555
Cu2 S4 2.288397 1_555
Cu3 S7 2.264989 1_655
Cu3 S3 2.267083 1_555
Cu3 S2 2.277938 1_655
Cu3 S5 2.288397 1_655
Cu4 S5 2.276817 1_555
Cu4 S6 2.286366 1_545
Cu4 S3 2.300768 1_555
Cu4 S0 2.300768 1_554
Cu5 S7 2.264989 1_655
Cu5 S0 2.267083 1_555
Cu5 S1 2.277938 1_655
Cu5 S5 2.288397 1_656
As0 S4 2.233744 1_545
As0 S7 2.242469 1_555
As0 S0 2.253375 1_555
As0 S3 2.253375 1_555
As1 S5 2.233744 1_665
As1 S6 2.242469 1_555
As1 S1 2.253375 1_654
As1 S2 2.253375 1_655
