# generated using pymatgen
data_CsInSn3O8
_symmetry_space_group_name_H-M   'P 1'
_cell_length_a   3.25379674
_cell_length_b   7.67097567
_cell_length_c   7.83624991
_cell_angle_alpha   87.32263492
_cell_angle_beta   78.02664905
_cell_angle_gamma   77.76451190
_symmetry_Int_Tables_number   1
_chemical_formula_structural   CsInSn3O8
_chemical_formula_sum   'Cs1 In1 Sn3 O8'
_cell_volume   186.98895004
_cell_formula_units_Z   1
loop_
 _symmetry_equiv_pos_site_id
 _symmetry_equiv_pos_as_xyz
  1  'x, y, z'
loop_
 _atom_site_type_symbol
 _atom_site_label
 _atom_site_symmetry_multiplicity
 _atom_site_fract_x
 _atom_site_fract_y
 _atom_site_fract_z
 _atom_site_occupancy
  Cs  Cs0  1  0.02093336  0.99748705  0.00655856  1
  In  In0  1  0.17249154  0.51117173  0.18459817  1
  Sn  Sn0  1  0.86770387  0.48567763  0.81942972  1
  Sn  Sn1  1  0.68071785  0.19003014  0.48868458  1
  Sn  Sn2  1  0.35527511  0.81487998  0.51483607  1
  O  O0  1  0.35676266  0.62322970  0.70348971  1
  O  O1  1  0.68901608  0.36697091  0.29533746  1
  O  O2  1  0.97161113  0.71392697  0.38288742  1
  O  O3  1  0.06003746  0.29806353  0.62214446  1
  O  O4  1  0.37726225  0.35332627  0.93272610  1
  O  O5  1  0.68036845  0.64039883  0.03960160  1
  O  O6  1  0.72346568  0.95344119  0.63982852  1
  O  O7  1  0.30935457  0.05139508  0.36987862  1
loop_
_geom_bond_atom_site_label_1
_geom_bond_atom_site_label_2
_geom_bond_distance
_geom_bond_site_symmetry_2
Cs0 O5 3.138037 1_555
Cs0 O5 3.146358 1_455
Cs0 O4 3.169458 1_564
Cs0 O4 3.178698 1_464
Cs0 O7 3.246627 1_565
Cs0 O7 3.256786 1_465
Cs0 O6 3.261265 1_554
Cs0 O6 3.270026 1_454
In0 O1 2.128082 1_555
In0 O1 2.129052 1_455
In0 O2 2.152718 1_455
In0 O5 2.194218 1_555
In0 O5 2.194222 1_455
In0 O4 2.267452 1_554
O0 Sn2 2.035617 1_555
O0 Sn0 2.119739 1_455
O0 Sn0 2.120449 1_555
O1 Sn1 1.986210 1_555
O2 Sn2 2.060769 1_555
O2 Sn2 2.060917 1_655
O3 Sn0 2.068240 1_455
O3 Sn1 2.086606 1_455
O3 Sn1 2.086723 1_555
O4 Sn0 2.092898 1_555
O4 Sn0 2.093084 1_455
O5 Sn0 2.050668 1_554
O6 Sn1 2.115760 1_565
O6 Sn2 2.155975 1_555
O6 Sn2 2.156613 1_655
O7 Sn2 2.089813 1_545
O7 Sn1 2.135820 1_555
O7 Sn1 2.135875 1_455
