# generated using pymatgen
data_BaLiC12
_symmetry_space_group_name_H-M   'P 1'
_cell_length_a   4.30880545
_cell_length_b   4.30880474
_cell_length_c   9.02821412
_cell_angle_alpha   90.00000000
_cell_angle_beta   90.00000000
_cell_angle_gamma   119.99999027
_symmetry_Int_Tables_number   1
_chemical_formula_structural   BaLiC12
_chemical_formula_sum   'Ba1 Li1 C12'
_cell_volume   145.15975409
_cell_formula_units_Z   1
loop_
 _symmetry_equiv_pos_site_id
 _symmetry_equiv_pos_as_xyz
  1  'x, y, z'
loop_
 _atom_site_type_symbol
 _atom_site_label
 _atom_site_symmetry_multiplicity
 _atom_site_fract_x
 _atom_site_fract_y
 _atom_site_fract_z
 _atom_site_occupancy
  Ba  Ba0  1  0.66666700  0.33333300  0.75000000  1
  Li  Li0  1  0.33333300  0.66666700  0.25000000  1
  C  C0  1  0.33352187  0.33320343  0.45297706  1
  C  C1  1  0.66679657  0.00031844  0.45297706  1
  C  C2  1  0.99968156  0.66647813  0.45297706  1
  C  C3  1  0.66679657  0.66647813  0.45297706  1
  C  C4  1  0.99968156  0.33320343  0.45297706  1
  C  C5  1  0.33352187  0.00031844  0.45297706  1
  C  C6  1  0.66679657  0.66647813  0.04702294  1
  C  C7  1  0.33352187  0.00031844  0.04702294  1
  C  C8  1  0.99968156  0.33320343  0.04702294  1
  C  C9  1  0.33352187  0.33320343  0.04702294  1
  C  C10  1  0.99968156  0.66647813  0.04702294  1
  C  C11  1  0.66679657  0.00031844  0.04702294  1
loop_
_geom_bond_atom_site_label_1
_geom_bond_atom_site_label_2
_geom_bond_distance
_geom_bond_site_symmetry_2
Ba0 C11 3.041485 1_556
Ba0 C1 3.041485 1_555
Ba0 C8 3.041485 1_556
Ba0 C4 3.041485 1_555
Ba0 C10 3.041486 1_556
Ba0 C2 3.041486 1_555
Ba0 C7 3.041486 1_556
Ba0 C5 3.041486 1_555
Ba0 C6 3.041487 1_556
Ba0 C3 3.041487 1_555
Ba0 C9 3.041487 1_556
Ba0 C0 3.041487 1_555
C0 C5 1.434336 1_555
C0 C3 1.436016 1_555
C0 C4 1.438453 1_455
C0 Li0 2.328901 1_555
C1 C4 1.434337 1_555
C1 C5 1.436016 1_555
C1 C3 1.438453 1_545
C1 Li0 2.328900 1_545
C2 C3 1.434337 1_555
C2 C4 1.436016 1_555
C2 C5 1.438453 1_665
C2 Li0 2.328898 1_655
C3 Li0 2.328901 1_555
C4 Li0 2.328900 1_655
C5 Li0 2.328898 1_545
C6 C9 1.436016 1_555
C6 Li0 2.328901 1_555
C7 C9 1.434336 1_555
C7 Li0 2.328898 1_545
C8 C9 1.438453 1_655
C8 Li0 2.328900 1_655
C9 Li0 2.328901 1_555
C10 C6 1.434337 1_555
C10 C8 1.436016 1_555
C10 C7 1.438453 1_665
C10 Li0 2.328898 1_655
C11 C8 1.434337 1_555
C11 C7 1.436016 1_555
C11 C6 1.438453 1_545
C11 Li0 2.328900 1_545
