# generated using pymatgen
data_Hf16CoIr7N4
_symmetry_space_group_name_H-M   'P 1'
_cell_length_a   8.67991821
_cell_length_b   8.67991915
_cell_length_c   8.67992051
_cell_angle_alpha   59.39689754
_cell_angle_beta   59.39689365
_cell_angle_gamma   59.39690119
_symmetry_Int_Tables_number   1
_chemical_formula_structural   Hf16CoIr7N4
_chemical_formula_sum   'Hf16 Co1 Ir7 N4'
_cell_volume   456.06864133
_cell_formula_units_Z   1
loop_
 _symmetry_equiv_pos_site_id
 _symmetry_equiv_pos_as_xyz
  1  'x, y, z'
loop_
 _atom_site_type_symbol
 _atom_site_label
 _atom_site_symmetry_multiplicity
 _atom_site_fract_x
 _atom_site_fract_y
 _atom_site_fract_z
 _atom_site_occupancy
  Hf  Hf0  1  0.10070505  0.63877802  0.63877802  1
  Hf  Hf1  1  0.63877802  0.10070505  0.63877802  1
  Hf  Hf2  1  0.63877802  0.63877802  0.10070505  1
  Hf  Hf3  1  0.61849707  0.61849707  0.61849707  1
  Hf  Hf4  1  0.81785152  0.81785152  0.18063555  1
  Hf  Hf5  1  0.18746829  0.18746829  0.81516294  1
  Hf  Hf6  1  0.81785152  0.18063555  0.81785152  1
  Hf  Hf7  1  0.18746829  0.81516294  0.18746829  1
  Hf  Hf8  1  0.18063555  0.81785152  0.81785152  1
  Hf  Hf9  1  0.81516294  0.18746829  0.18746829  1
  Hf  Hf10  1  0.43691051  0.43691051  0.06731962  1
  Hf  Hf11  1  0.06925258  0.06925258  0.43440072  1
  Hf  Hf12  1  0.43691051  0.06731962  0.43691051  1
  Hf  Hf13  1  0.06925258  0.43440072  0.06925258  1
  Hf  Hf14  1  0.06731962  0.43691051  0.43691051  1
  Hf  Hf15  1  0.43440072  0.06925258  0.06925258  1
  Co  Co0  1  0.85219234  0.85219234  0.85219234  1
  Ir  Ir0  1  0.76100008  0.40541711  0.40541711  1
  Ir  Ir1  1  0.40541711  0.76100008  0.40541711  1
  Ir  Ir2  1  0.40541711  0.40541711  0.76100008  1
  Ir  Ir3  1  0.41532792  0.41532792  0.41532792  1
  Ir  Ir4  1  0.47882164  0.83098268  0.83098268  1
  Ir  Ir5  1  0.83098268  0.47882164  0.83098268  1
  Ir  Ir6  1  0.83098268  0.83098268  0.47882164  1
  N  N0  1  0.62306098  0.12739444  0.12739444  1
  N  N1  1  0.12739444  0.62306098  0.12739444  1
  N  N2  1  0.12739444  0.12739444  0.62306098  1
  N  N3  1  0.12477078  0.12477078  0.12477078  1
loop_
_geom_bond_atom_site_label_1
_geom_bond_atom_site_label_2
_geom_bond_distance
_geom_bond_site_symmetry_2
Hf0 Ir5 2.677012 1_455
Hf0 Ir6 2.677013 1_455
Hf0 Ir1 2.727260 1_555
Hf0 Ir2 2.727261 1_555
Hf0 Ir3 2.832957 1_555
Hf1 Ir4 2.677012 1_545
Hf1 Ir6 2.677013 1_545
Hf1 Ir0 2.727261 1_555
Hf1 Ir2 2.727261 1_555
Hf1 Ir3 2.832957 1_555
Hf2 Ir5 2.677013 1_554
Hf2 Ir4 2.677013 1_554
Hf2 Ir1 2.727261 1_555
Hf2 Ir0 2.727261 1_555
Hf2 Ir3 2.832956 1_555
Hf3 Ir6 2.680161 1_555
Hf3 Ir5 2.680161 1_555
Hf3 Ir4 2.680161 1_555
Hf3 Ir2 2.682484 1_555
Hf3 Ir1 2.682484 1_555
Hf3 Ir0 2.682484 1_555
Hf4 N1 2.279734 1_655
Hf4 N0 2.279735 1_565
Hf4 Ir6 2.709036 1_555
Hf4 Ir1 3.251559 1_555
Hf4 Ir0 3.251560 1_555
Hf5 N3 2.266647 1_556
Hf5 N2 2.317644 1_555
Hf5 Ir5 2.818219 1_455
Hf5 Ir4 2.818219 1_545
Hf5 Ir2 3.035037 1_555
Hf5 Ir3 3.142171 1_555
Hf6 N2 2.279734 1_655
Hf6 N0 2.279735 1_556
Hf6 Ir5 2.709035 1_555
Hf6 Ir2 3.251560 1_555
Hf6 Ir0 3.251560 1_555
Hf7 N3 2.266647 1_565
Hf7 N1 2.317644 1_555
Hf7 Ir6 2.818219 1_455
Hf7 Ir4 2.818219 1_554
Hf7 Ir1 3.035038 1_555
Hf7 Ir3 3.142171 1_555
Hf8 N2 2.279735 1_565
Hf8 N1 2.279735 1_556
Hf8 Ir4 2.709035 1_555
Hf8 Ir2 3.251560 1_555
Hf8 Ir1 3.251560 1_555
Hf9 N3 2.266647 1_655
Hf9 N0 2.317644 1_555
Hf9 Ir6 2.818219 1_545
Hf9 Ir5 2.818219 1_554
Hf9 Ir0 3.035038 1_555
Hf9 Ir3 3.142171 1_555
Hf10 N1 2.260973 1_555
Hf10 N0 2.260973 1_555
Hf10 Ir3 2.842204 1_555
Hf10 Ir2 2.962257 1_554
Hf10 Ir5 3.066469 1_554
Hf10 Ir4 3.066469 1_554
Hf11 N2 2.265649 1_555
Hf11 N3 2.299253 1_555
Hf11 Ir1 2.779412 1_545
Hf11 Ir0 2.779412 1_455
Hf12 N2 2.260973 1_555
Hf12 N0 2.260973 1_555
Hf12 Ir3 2.842204 1_555
Hf12 Ir1 2.962256 1_545
Hf12 Ir6 3.066469 1_545
Hf12 Ir4 3.066470 1_545
Hf13 N1 2.265649 1_555
Hf13 N3 2.299252 1_555
Hf13 Ir2 2.779411 1_554
Hf13 Ir0 2.779411 1_455
Hf14 N2 2.260973 1_555
Hf14 N1 2.260973 1_555
Hf14 Ir3 2.842203 1_555
Hf14 Ir0 2.962256 1_455
Hf14 Ir6 3.066469 1_455
Hf14 Ir5 3.066469 1_455
Hf15 N0 2.265649 1_555
Hf15 N3 2.299252 1_555
Hf15 Ir1 2.779412 1_545
Hf15 Ir2 2.779412 1_554
Co0 Hf8 2.581692 1_655
Co0 Hf6 2.581692 1_565
Co0 Hf4 2.581692 1_556
Co0 Hf2 2.621610 1_556
Co0 Hf0 2.621610 1_655
Co0 Hf1 2.621610 1_565
Ir0 Ir3 2.915333 1_555
Ir0 Ir2 3.058253 1_555
Ir0 Ir1 3.058253 1_555
Ir1 Ir3 2.915334 1_555
Ir1 Ir2 3.058253 1_555
Ir2 Ir3 2.915334 1_555
