# generated using pymatgen
data_CsYTa6Cl18
_symmetry_space_group_name_H-M   'P 1'
_cell_length_a   10.15504847
_cell_length_b   10.15504880
_cell_length_c   10.15504830
_cell_angle_alpha   55.72221181
_cell_angle_beta   55.72220850
_cell_angle_gamma   55.72221039
_symmetry_Int_Tables_number   1
_chemical_formula_structural   CsYTa6Cl18
_chemical_formula_sum   'Cs1 Y1 Ta6 Cl18'
_cell_volume   667.03182718
_cell_formula_units_Z   1
loop_
 _symmetry_equiv_pos_site_id
 _symmetry_equiv_pos_as_xyz
  1  'x, y, z'
loop_
 _atom_site_type_symbol
 _atom_site_label
 _atom_site_symmetry_multiplicity
 _atom_site_fract_x
 _atom_site_fract_y
 _atom_site_fract_z
 _atom_site_occupancy
  Cs  Cs0  1  0.22502240  0.22502240  0.22502240  1
  Y  Y0  1  0.49853382  0.49853382  0.49853382  1
  Ta  Ta0  1  0.80735853  0.14704683  0.90857015  1
  Ta  Ta1  1  0.90857015  0.80735853  0.14704683  1
  Ta  Ta2  1  0.14704683  0.90857015  0.80735853  1
  Ta  Ta3  1  0.19370120  0.85304983  0.08992774  1
  Ta  Ta4  1  0.08992774  0.19370120  0.85304983  1
  Ta  Ta5  1  0.85304983  0.08992774  0.19370120  1
  Cl  Cl0  1  0.87543995  0.40770737  0.71780955  1
  Cl  Cl1  1  0.71780955  0.87543995  0.40770737  1
  Cl  Cl2  1  0.40770737  0.71780955  0.87543995  1
  Cl  Cl3  1  0.12338212  0.59249894  0.28421720  1
  Cl  Cl4  1  0.28421720  0.12338212  0.59249894  1
  Cl  Cl5  1  0.59249894  0.28421720  0.12338212  1
  Cl  Cl6  1  0.54634004  0.33895442  0.79481403  1
  Cl  Cl7  1  0.79481403  0.54634004  0.33895442  1
  Cl  Cl8  1  0.33895442  0.79481403  0.54634004  1
  Cl  Cl9  1  0.45123451  0.66304956  0.20580729  1
  Cl  Cl10  1  0.20580729  0.45123451  0.66304956  1
  Cl  Cl11  1  0.66304956  0.20580729  0.45123451  1
  Cl  Cl12  1  0.66077593  0.94368991  0.06605766  1
  Cl  Cl13  1  0.06605766  0.66077593  0.94368991  1
  Cl  Cl14  1  0.94368991  0.06605766  0.66077593  1
  Cl  Cl15  1  0.34216752  0.05465300  0.92932851  1
  Cl  Cl16  1  0.92932851  0.34216752  0.05465300  1
  Cl  Cl17  1  0.05465300  0.92932851  0.34216752  1
loop_
_geom_bond_atom_site_label_1
_geom_bond_atom_site_label_2
_geom_bond_distance
_geom_bond_site_symmetry_2
Cl0 Ta0 2.452390 1_555
Cl0 Ta4 2.455396 1_655
Cl1 Ta1 2.452389 1_555
Cl1 Ta5 2.455396 1_565
Cl2 Ta2 2.452390 1_555
Cl2 Ta3 2.455396 1_556
Cl3 Ta3 2.462612 1_555
Cl3 Ta1 2.469334 1_455
Cl3 Cs0 3.583555 1_555
Cl4 Ta4 2.462612 1_555
Cl4 Ta2 2.469334 1_545
Cl4 Cs0 3.583555 1_555
Cl5 Ta5 2.462612 1_555
Cl5 Ta0 2.469333 1_554
Cl5 Cs0 3.583555 1_555
Cl6 Y0 2.679803 1_555
Cl6 Ta0 2.693131 1_555
Cl6 Cs0 3.684233 1_556
Cl7 Y0 2.679803 1_555
Cl7 Ta1 2.693131 1_555
Cl7 Cs0 3.684233 1_655
Cl8 Y0 2.679803 1_555
Cl8 Ta2 2.693131 1_555
Cl8 Cs0 3.684233 1_565
Cl9 Y0 2.639853 1_555
Cl9 Ta3 2.678116 1_555
Cl10 Y0 2.639853 1_555
Cl10 Ta4 2.678116 1_555
Cl11 Y0 2.639854 1_555
Cl11 Ta5 2.678116 1_555
Cl12 Ta1 2.459605 1_555
Cl12 Ta0 2.469614 1_564
Cl12 Cs0 3.641115 1_565
Cl13 Ta2 2.459605 1_555
Cl13 Ta1 2.469614 1_456
Cl13 Cs0 3.641115 1_556
Cl14 Ta0 2.459605 1_555
Cl14 Ta2 2.469614 1_645
Cl14 Cs0 3.641115 1_655
Cl15 Ta3 2.463835 1_546
Cl15 Ta4 2.466572 1_555
Cl15 Cs0 3.596526 1_556
Cl16 Ta4 2.463835 1_654
Cl16 Ta5 2.466572 1_555
Cl16 Cs0 3.596526 1_655
Cl17 Ta5 2.463835 1_465
Cl17 Ta3 2.466571 1_555
Cl17 Cs0 3.596526 1_565
