# generated using pymatgen
data_Nb12Ga9Fe3N4
_symmetry_space_group_name_H-M   'P 1'
_cell_length_a   8.21050935
_cell_length_b   8.22964188
_cell_length_c   8.22964177
_cell_angle_alpha   59.99999640
_cell_angle_beta   59.92288242
_cell_angle_gamma   59.92288395
_symmetry_Int_Tables_number   1
_chemical_formula_structural   Nb12Ga9Fe3N4
_chemical_formula_sum   'Nb12 Ga9 Fe3 N4'
_cell_volume   392.74417400
_cell_formula_units_Z   1
loop_
 _symmetry_equiv_pos_site_id
 _symmetry_equiv_pos_as_xyz
  1  'x, y, z'
loop_
 _atom_site_type_symbol
 _atom_site_label
 _atom_site_symmetry_multiplicity
 _atom_site_fract_x
 _atom_site_fract_y
 _atom_site_fract_z
 _atom_site_occupancy
  Nb  Nb0  1  0.80741991  0.80551147  0.19353481  1
  Nb  Nb1  1  0.19424028  0.19605037  0.80485468  1
  Nb  Nb2  1  0.80741991  0.19353481  0.80551147  1
  Nb  Nb3  1  0.19424028  0.80485468  0.19605037  1
  Nb  Nb4  1  0.19424028  0.80485468  0.80485468  1
  Nb  Nb5  1  0.80741991  0.19353481  0.19353481  1
  Nb  Nb6  1  0.44258009  0.44448853  0.05646519  1
  Nb  Nb7  1  0.05575972  0.05394963  0.44514532  1
  Nb  Nb8  1  0.44258009  0.05646519  0.44448853  1
  Nb  Nb9  1  0.05575972  0.44514532  0.05394963  1
  Nb  Nb10  1  0.05575972  0.44514532  0.44514532  1
  Nb  Nb11  1  0.44258009  0.05646519  0.05646519  1
  Ga  Ga0  1  0.12500000  0.62500000  0.62500000  1
  Ga  Ga1  1  0.75776418  0.41407894  0.41407894  1
  Ga  Ga2  1  0.42443190  0.75748359  0.40904275  1
  Ga  Ga3  1  0.42443190  0.40904275  0.75748359  1
  Ga  Ga4  1  0.42443190  0.40904275  0.40904275  1
  Ga  Ga5  1  0.49223582  0.83592106  0.83592106  1
  Ga  Ga6  1  0.82556810  0.49251641  0.84095725  1
  Ga  Ga7  1  0.82556810  0.84095725  0.49251641  1
  Ga  Ga8  1  0.82556810  0.84095725  0.84095725  1
  Fe  Fe0  1  0.62500000  0.12500000  0.62500000  1
  Fe  Fe1  1  0.62500000  0.62500000  0.12500000  1
  Fe  Fe2  1  0.62500000  0.62500000  0.62500000  1
  N  N0  1  0.62500000  0.12500000  0.12500000  1
  N  N1  1  0.12500000  0.62500000  0.12500000  1
  N  N2  1  0.12500000  0.12500000  0.62500000  1
  N  N3  1  0.12500000  0.12500000  0.12500000  1
loop_
_geom_bond_atom_site_label_1
_geom_bond_atom_site_label_2
_geom_bond_distance
_geom_bond_site_symmetry_2
Ga0 Ga8 2.600185 1_455
Ga0 Ga4 2.600185 1_555
Ga0 Ga2 2.600189 1_555
Ga0 Ga6 2.600189 1_455
Ga0 Ga3 2.600190 1_555
Ga0 Ga7 2.600190 1_455
Ga0 Nb9 2.929584 1_556
Ga0 Nb3 2.929584 1_555
Ga0 Nb7 2.929584 1_565
Ga0 Nb1 2.929584 1_555
Ga0 Nb4 2.929584 1_555
Ga0 Nb10 2.929584 1_555
Ga1 Nb10 2.726976 1_655
Ga1 Nb9 2.726980 1_655
Ga1 Nb7 2.726980 1_655
Ga1 Ga3 2.778987 1_555
Ga1 Ga2 2.778987 1_555
Ga1 Ga4 2.778987 1_555
Ga1 Nb2 2.926686 1_555
Ga1 Nb0 2.926686 1_555
Ga1 Nb5 2.926686 1_555
Ga2 Nb8 2.700039 1_565
Ga2 Nb11 2.700048 1_565
Ga2 Nb7 2.761260 1_565
Ga2 Nb0 2.853867 1_555
Ga2 Ga3 2.867543 1_555
Ga2 Ga4 2.867543 1_555
Ga2 Nb4 2.948765 1_555
Ga2 Nb3 2.948772 1_555
Ga3 Nb6 2.700039 1_556
Ga3 Nb11 2.700049 1_556
Ga3 Nb9 2.761260 1_556
Ga3 Nb2 2.853867 1_555
Ga3 Ga4 2.867543 1_555
Ga3 Nb4 2.948765 1_555
Ga3 Nb1 2.948772 1_555
Ga4 Nb6 2.700055 1_555
Ga4 Nb8 2.700055 1_555
Ga4 Nb10 2.761264 1_555
Ga4 Nb5 2.853867 1_555
Ga4 Nb1 2.948768 1_555
Ga4 Nb3 2.948768 1_555
Ga5 Nb4 2.726976 1_555
Ga5 Nb3 2.726980 1_556
Ga5 Nb1 2.726980 1_565
Ga5 Ga7 2.778987 1_555
Ga5 Ga6 2.778987 1_555
Ga5 Ga8 2.778987 1_555
Ga5 Nb8 2.926686 1_565
Ga5 Nb6 2.926686 1_556
Ga5 Nb11 2.926686 1_566
Ga6 Nb2 2.700039 1_555
Ga6 Nb5 2.700048 1_556
Ga6 Nb1 2.761260 1_655
Ga6 Nb6 2.853867 1_556
Ga6 Ga7 2.867543 1_555
Ga6 Ga8 2.867543 1_555
Ga6 Nb10 2.948765 1_655
Ga6 Nb9 2.948772 1_656
Ga7 Nb0 2.700039 1_555
Ga7 Nb5 2.700049 1_565
Ga7 Nb3 2.761260 1_655
Ga7 Nb8 2.853867 1_565
Ga7 Ga8 2.867543 1_555
Ga7 Nb10 2.948765 1_655
Ga7 Nb7 2.948772 1_665
Ga8 Nb0 2.700055 1_556
Ga8 Nb2 2.700055 1_565
Ga8 Nb4 2.761264 1_655
Ga8 Nb11 2.853867 1_566
Ga8 Nb7 2.948768 1_665
Ga8 Nb9 2.948768 1_656
Fe0 Ga8 2.501076 1_545
Fe0 Ga4 2.501076 1_555
Fe0 Ga3 2.501080 1_555
Fe0 Ga7 2.501080 1_545
Fe0 Ga1 2.536580 1_555
Fe0 Ga5 2.536580 1_545
Fe0 Nb7 2.930342 1_655
Fe0 Nb1 2.930342 1_555
Fe0 Nb11 2.946690 1_556
Fe0 Nb5 2.946690 1_555
Fe0 Nb2 2.946697 1_555
Fe0 Nb8 2.946697 1_555
Fe1 Ga8 2.501076 1_554
Fe1 Ga4 2.501076 1_555
Fe1 Ga2 2.501080 1_555
Fe1 Ga6 2.501080 1_554
Fe1 Ga1 2.536580 1_555
Fe1 Ga5 2.536580 1_554
Fe1 Nb9 2.930342 1_655
Fe1 Nb3 2.930342 1_555
Fe1 Nb11 2.946690 1_565
Fe1 Nb5 2.946690 1_555
Fe1 Nb0 2.946697 1_555
Fe1 Nb6 2.946697 1_555
Fe2 Ga7 2.501074 1_555
Fe2 Ga3 2.501074 1_555
Fe2 Ga6 2.501074 1_555
Fe2 Ga2 2.501074 1_555
Fe2 Ga5 2.536573 1_555
Fe2 Ga1 2.536573 1_555
Fe2 Nb10 2.930342 1_655
Fe2 Nb4 2.930342 1_555
Fe2 Nb6 2.946691 1_556
Fe2 Nb0 2.946691 1_555
Fe2 Nb8 2.946691 1_565
Fe2 Nb2 2.946691 1_555
N0 Nb8 2.211575 1_555
N0 Nb2 2.211575 1_554
N0 Nb6 2.211576 1_555
N0 Nb0 2.211576 1_545
N0 Nb5 2.211582 1_555
N0 Nb11 2.211582 1_555
N1 Nb6 2.192073 1_555
N1 Nb0 2.192073 1_455
N1 Nb10 2.213135 1_555
N1 Nb4 2.213135 1_554
N1 Nb3 2.213136 1_555
N1 Nb9 2.213136 1_555
N2 Nb8 2.192073 1_555
N2 Nb2 2.192073 1_455
N2 Nb10 2.213135 1_555
N2 Nb4 2.213135 1_545
N2 Nb1 2.213136 1_555
N2 Nb7 2.213136 1_555
N3 Nb11 2.192071 1_555
N3 Nb5 2.192071 1_455
N3 Nb7 2.213135 1_555
N3 Nb1 2.213135 1_554
N3 Nb9 2.213135 1_555
N3 Nb3 2.213135 1_545
