# generated using pymatgen
data_CsP4RhO12
_symmetry_space_group_name_H-M   'P 1'
_cell_length_a   13.33504048
_cell_length_b   5.12276614
_cell_length_c   7.60694164
_cell_angle_alpha   79.06967290
_cell_angle_beta   90.00000000
_cell_angle_gamma   90.00000000
_symmetry_Int_Tables_number   1
_chemical_formula_structural   CsP4RhO12
_chemical_formula_sum   'Cs2 P8 Rh2 O24'
_cell_volume   510.22043820
_cell_formula_units_Z   2
loop_
 _symmetry_equiv_pos_site_id
 _symmetry_equiv_pos_as_xyz
  1  'x, y, z'
loop_
 _atom_site_type_symbol
 _atom_site_label
 _atom_site_symmetry_multiplicity
 _atom_site_fract_x
 _atom_site_fract_y
 _atom_site_fract_z
 _atom_site_occupancy
  Cs  Cs0  1  0.99806268  0.40244187  0.83462995  1
  Cs  Cs1  1  0.49806268  0.59755813  0.16537005  1
  P  P0  1  0.87026911  0.02570036  0.44141629  1
  P  P1  1  0.81858763  0.78491689  0.14346639  1
  P  P2  1  0.37026911  0.97429964  0.55858371  1
  P  P3  1  0.18292742  0.87168438  0.10123196  1
  P  P4  1  0.09813087  0.03018717  0.42697031  1
  P  P5  1  0.59813087  0.96981283  0.57302969  1
  P  P6  1  0.68292742  0.12831562  0.89876804  1
  P  P7  1  0.31858763  0.21508311  0.85653361  1
  Rh  Rh0  1  0.23429602  0.50321011  0.48924333  1
  Rh  Rh1  1  0.73429602  0.49678989  0.51075667  1
  O  O0  1  0.15573529  0.81360836  0.54346726  1
  O  O1  1  0.10425965  0.30143640  0.47316699  1
  O  O2  1  0.62129090  0.95410434  0.77710729  1
  O  O3  1  0.98469659  0.94191862  0.44969448  1
  O  O4  1  0.86415333  0.29363019  0.49240355  1
  O  O5  1  0.84048206  0.03906121  0.24067643  1
  O  O6  1  0.12129090  0.04589566  0.22289271  1
  O  O7  1  0.62151937  0.15523476  0.05305904  1
  O  O8  1  0.12151937  0.84476524  0.94694096  1
  O  O9  1  0.23154204  0.36406316  0.75658794  1
  O  O10  1  0.36415333  0.70636981  0.50759645  1
  O  O11  1  0.60425965  0.69856360  0.52683301  1
  O  O12  1  0.65573529  0.18639164  0.45653274  1
  O  O13  1  0.48469659  0.05808138  0.55030552  1
  O  O14  1  0.27721603  0.06542250  0.04401867  1
  O  O15  1  0.91274700  0.65144236  0.11863579  1
  O  O16  1  0.72688191  0.36857636  0.77960568  1
  O  O17  1  0.77721603  0.93457750  0.95598133  1
  O  O18  1  0.41274700  0.34855764  0.88136421  1
  O  O19  1  0.81696710  0.80531738  0.56445203  1
  O  O20  1  0.31696710  0.19468262  0.43554797  1
  O  O21  1  0.34048206  0.96093879  0.75932357  1
  O  O22  1  0.73154204  0.63593684  0.24341206  1
  O  O23  1  0.22688191  0.63142364  0.22039432  1
loop_
_geom_bond_atom_site_label_1
_geom_bond_atom_site_label_2
_geom_bond_distance
_geom_bond_site_symmetry_2
Cs0 O15 2.938347 1_556
Cs0 O8 3.051022 1_655
Cs0 O9 3.182603 1_655
Cs0 O1 3.220742 1_655
Cs0 O8 3.267443 1_645
Cs0 O4 3.290418 1_555
Cs1 O18 2.938347 1_554
Cs1 O7 3.051022 1_555
Cs1 O22 3.182603 1_555
Cs1 O11 3.220742 1_555
Cs1 O7 3.267443 1_565
Cs1 O10 3.290418 1_555
O0 P4 1.494483 1_565
O0 Rh0 2.011161 1_555
O1 P4 1.498730 1_555
O1 Rh0 2.034256 1_555
O2 P5 1.569856 1_555
O2 P6 1.625337 1_565
O3 P4 1.578866 1_665
O3 P0 1.583123 1_565
O4 P0 1.497611 1_555
O4 Rh1 2.038713 1_555
O5 P0 1.566718 1_555
O5 P1 1.640780 1_545
O6 P4 1.569856 1_555
O6 P3 1.625337 1_545
O7 P6 1.458934 1_554
O8 P3 1.458934 1_556
O9 P7 1.512547 1_555
O9 Rh0 2.023745 1_555
O10 P2 1.497611 1_555
O10 Rh0 2.038713 1_555
O11 P5 1.498730 1_555
O11 Rh1 2.034256 1_555
O12 P5 1.494483 1_545
O12 Rh1 2.011161 1_555
O13 P5 1.578866 1_545
O13 P2 1.583123 1_545
O14 P7 1.584774 1_554
O14 P3 1.609822 1_545
O15 P1 1.459027 1_555
O16 P6 1.502330 1_555
O16 Rh1 2.028369 1_555
O17 P1 1.584774 1_556
O17 P6 1.609822 1_565
O18 P7 1.459027 1_555
O19 P0 1.501679 1_565
O19 Rh1 2.031014 1_555
O20 P2 1.501679 1_545
O20 Rh0 2.031014 1_555
O21 P2 1.566718 1_555
O21 P7 1.640780 1_565
O22 P1 1.512547 1_555
O22 Rh1 2.023745 1_555
O23 P3 1.502330 1_555
O23 Rh0 2.028369 1_555
