# generated using pymatgen
data_Hf23Se25
_symmetry_space_group_name_H-M   'P 1'
_cell_length_a   7.90327400
_cell_length_b   7.96473533
_cell_length_c   15.80334212
_cell_angle_alpha   98.29682897
_cell_angle_beta   90.18432001
_cell_angle_gamma   101.92517572
_symmetry_Int_Tables_number   1
_chemical_formula_structural   Hf23Se25
_chemical_formula_sum   'Hf23 Se25'
_cell_volume   962.56388504
_cell_formula_units_Z   1
loop_
 _symmetry_equiv_pos_site_id
 _symmetry_equiv_pos_as_xyz
  1  'x, y, z'
loop_
 _atom_site_type_symbol
 _atom_site_label
 _atom_site_symmetry_multiplicity
 _atom_site_fract_x
 _atom_site_fract_y
 _atom_site_fract_z
 _atom_site_occupancy
  Hf  Hf0  1  0.28307731  0.93221863  0.91986241  1
  Hf  Hf1  1  0.84955812  0.73407773  0.88115276  1
  Hf  Hf2  1  0.09331310  0.94057213  0.72120603  1
  Hf  Hf3  1  0.40538803  0.53420790  0.83686210  1
  Hf  Hf4  1  0.71931599  0.12910160  0.96420929  1
  Hf  Hf5  1  0.64155053  0.73091068  0.68034396  1
  Hf  Hf6  1  0.97188140  0.33659875  0.79521287  1
  Hf  Hf7  1  0.20730053  0.53359535  0.64020755  1
  Hf  Hf8  1  0.52273541  0.13232706  0.75854845  1
  Hf  Hf9  1  0.43918893  0.72918017  0.48414292  1
  Hf  Hf10  1  0.76578086  0.33289905  0.59871220  1
  Hf  Hf11  1  0.69155965  0.93750894  0.31714930  1
  Hf  Hf12  1  0.00350817  0.53254923  0.43964341  1
  Hf  Hf13  1  0.33092112  0.13006587  0.56279136  1
  Hf  Hf14  1  0.57019150  0.33458025  0.40175058  1
  Hf  Hf15  1  0.24702409  0.73456308  0.27882878  1
  Hf  Hf16  1  0.80647442  0.53489696  0.23856863  1
  Hf  Hf17  1  0.12508234  0.13349860  0.35660117  1
  Hf  Hf18  1  0.48822396  0.93378538  0.11983675  1
  Hf  Hf19  1  0.04629998  0.73205132  0.07763553  1
  Hf  Hf20  1  0.37068564  0.33704163  0.20126188  1
  Hf  Hf21  1  0.92257320  0.13051263  0.16095655  1
  Hf  Hf22  1  0.61061257  0.52953980  0.04401542  1
  Se  Se0  1  0.55798452  0.79331591  0.96000286  1
  Se  Se1  1  0.12015391  0.59759797  0.92036916  1
  Se  Se2  1  0.35927943  0.80087118  0.76032685  1
  Se  Se3  1  0.68134379  0.39834442  0.88072947  1
  Se  Se4  1  0.00102129  0.00162333  0.99968269  1
  Se  Se5  1  0.91921985  0.60503720  0.71942124  1
  Se  Se6  1  0.24081893  0.20146250  0.84265846  1
  Se  Se7  1  0.15360748  0.79864359  0.55949110  1
  Se  Se8  1  0.48068491  0.39950007  0.67941993  1
  Se  Se9  1  0.80121987  0.00298444  0.80094889  1
  Se  Se10  1  0.03758251  0.19865703  0.63724813  1
  Se  Se11  1  0.72200824  0.60299947  0.52016983  1
  Se  Se12  1  0.96065829  0.79905537  0.36089508  1
  Se  Se13  1  0.60507719  0.00077873  0.59989295  1
  Se  Se14  1  0.27797762  0.39397785  0.47957757  1
  Se  Se15  1  0.84107569  0.19796200  0.44125805  1
  Se  Se16  1  0.52131894  0.60477014  0.32249165  1
  Se  Se17  1  0.76113575  0.79917797  0.15930549  1
  Se  Se18  1  0.08082523  0.40087761  0.27888128  1
  Se  Se19  1  0.40113520  0.99917556  0.40046953  1
  Se  Se20  1  0.63953908  0.20246918  0.24072611  1
  Se  Se21  1  0.31791219  0.60018862  0.11906444  1
  Se  Se22  1  0.88588064  0.40034476  0.07942058  1
  Se  Se23  1  0.20024532  0.00215114  0.19848191  1
  Se  Se24  1  0.43336727  0.19840923  0.03956686  1
loop_
_geom_bond_atom_site_label_1
_geom_bond_atom_site_label_2
_geom_bond_distance
_geom_bond_site_symmetry_2
Hf0 Se4 2.681801 1_565
Hf0 Se6 2.692080 1_565
Hf0 Se24 2.696622 1_566
Hf0 Se2 2.706010 1_555
Hf0 Se1 2.710932 1_555
Hf0 Se0 2.744790 1_555
Hf1 Se4 2.694805 1_665
Hf1 Se1 2.699244 1_655
Hf1 Se5 2.716030 1_555
Hf1 Se0 2.717293 1_555
Hf1 Se3 2.728280 1_555
Hf1 Se9 2.730961 1_565
Hf2 Se6 2.682201 1_565
Hf2 Se2 2.682434 1_555
Hf2 Se10 2.708759 1_565
Hf2 Se7 2.726335 1_555
Hf2 Se9 2.734324 1_465
Hf2 Se5 2.737568 1_455
Hf3 Se2 2.676768 1_555
Hf3 Se8 2.683083 1_555
Hf3 Se0 2.701436 1_555
Hf3 Se6 2.714785 1_555
Hf3 Se1 2.715786 1_555
Hf3 Se3 2.755039 1_555
Hf4 Se24 2.678322 1_556
Hf4 Se0 2.705864 1_545
Hf4 Se22 2.718320 1_556
Hf4 Se4 2.718905 1_655
Hf4 Se3 2.740267 1_555
Hf4 Se9 2.759750 1_555
Hf5 Se8 2.680659 1_555
Hf5 Se2 2.685803 1_555
Hf5 Se5 2.698422 1_555
Hf5 Se13 2.713294 1_565
Hf5 Se11 2.717258 1_555
Hf5 Se9 2.753798 1_565
Hf6 Se10 2.676028 1_655
Hf6 Se5 2.698645 1_555
Hf6 Se1 2.719991 1_655
Hf6 Se6 2.721482 1_655
Hf6 Se9 2.734422 1_555
Hf6 Se3 2.763264 1_555
Hf7 Se8 2.707231 1_555
Hf7 Se2 2.709296 1_555
Hf7 Se10 2.720800 1_555
Hf7 Se7 2.721686 1_555
Hf7 Se5 2.724477 1_455
Hf7 Se14 2.728309 1_555
Hf8 Se2 2.692815 1_545
Hf8 Se8 2.694434 1_555
Hf8 Se13 2.709591 1_555
Hf8 Se6 2.710931 1_555
Hf8 Se9 2.735170 1_555
Hf8 Se3 2.737672 1_555
Hf9 Se7 2.676076 1_555
Hf9 Se14 2.700815 1_555
Hf9 Se13 2.723042 1_565
Hf9 Se11 2.723157 1_555
Hf9 Se16 2.734090 1_555
Hf9 Se19 2.747501 1_555
Hf10 Se15 2.683813 1_555
Hf10 Se13 2.690122 1_555
Hf10 Se10 2.693917 1_655
Hf10 Se8 2.702261 1_555
Hf10 Se11 2.713628 1_555
Hf10 Se5 2.741017 1_555
Hf11 Se20 2.678085 1_565
Hf11 Se17 2.684142 1_555
Hf11 Se15 2.710033 1_565
Hf11 Se12 2.719721 1_555
Hf11 Se16 2.726268 1_555
Hf11 Se19 2.746299 1_555
Hf12 Se11 2.685512 1_455
Hf12 Se12 2.688089 1_455
Hf12 Se7 2.697081 1_555
Hf12 Se15 2.712262 1_455
Hf12 Se18 2.726471 1_555
Hf12 Se14 2.739249 1_555
Hf13 Se13 2.680859 1_555
Hf13 Se8 2.682910 1_555
Hf13 Se7 2.713954 1_545
Hf13 Se10 2.722705 1_555
Hf13 Se19 2.729759 1_545
Hf13 Se14 2.735054 1_555
Hf14 Se11 2.698742 1_555
Hf14 Se15 2.703214 1_555
Hf14 Se20 2.712513 1_555
Hf14 Se14 2.715132 1_555
Hf14 Se19 2.726014 1_545
Hf14 Se16 2.732669 1_555
Hf15 Se21 2.703893 1_555
Hf15 Se18 2.710484 1_555
Hf15 Se16 2.714160 1_555
Hf15 Se12 2.715717 1_455
Hf15 Se19 2.715788 1_555
Hf15 Se23 2.719351 1_565
Hf16 Se17 2.682900 1_555
Hf16 Se20 2.708290 1_555
Hf16 Se22 2.716270 1_555
Hf16 Se18 2.718553 1_655
Hf16 Se12 2.720314 1_555
Hf16 Se16 2.733537 1_555
Hf17 Se23 2.683896 1_555
Hf17 Se18 2.688135 1_555
Hf17 Se14 2.706751 1_555
Hf17 Se15 2.718269 1_455
Hf17 Se12 2.722324 1_445
Hf17 Se19 2.748461 1_545
Hf18 Se17 2.707521 1_555
Hf18 Se23 2.712250 1_565
Hf18 Se21 2.717379 1_555
Hf18 Se0 2.717388 1_554
Hf18 Se24 2.717550 1_565
Hf18 Se20 2.721639 1_565
Hf19 Se1 2.676547 1_554
Hf19 Se22 2.688048 1_455
Hf19 Se21 2.694587 1_555
Hf19 Se4 2.708067 1_564
Hf19 Se17 2.710808 1_455
Hf19 Se23 2.733710 1_565
Hf20 Se20 2.679226 1_555
Hf20 Se18 2.707505 1_555
Hf20 Se16 2.718815 1_555
Hf20 Se21 2.719860 1_555
Hf20 Se23 2.722488 1_555
Hf20 Se24 2.722899 1_555
Hf21 Se17 2.679788 1_545
Hf21 Se20 2.694584 1_555
Hf21 Se23 2.703079 1_655
Hf21 Se18 2.718115 1_655
Hf21 Se22 2.723530 1_555
Hf21 Se4 2.729843 1_654
Hf22 Se17 2.673558 1_555
Hf22 Se22 2.681096 1_555
Hf22 Se24 2.709610 1_555
Hf22 Se21 2.727195 1_555
Hf22 Se0 2.740826 1_554
Hf22 Se3 2.745116 1_554
