# generated using pymatgen
data_Cs2Zr3VSe8
_symmetry_space_group_name_H-M   'P 1'
_cell_length_a   6.59700588
_cell_length_b   7.66848028
_cell_length_c   17.67928660
_cell_angle_alpha   90.25293508
_cell_angle_beta   90.00000000
_cell_angle_gamma   90.00000000
_symmetry_Int_Tables_number   1
_chemical_formula_structural   Cs2Zr3VSe8
_chemical_formula_sum   'Cs4 Zr6 V2 Se16'
_cell_volume   894.36888286
_cell_formula_units_Z   2
loop_
 _symmetry_equiv_pos_site_id
 _symmetry_equiv_pos_as_xyz
  1  'x, y, z'
loop_
 _atom_site_type_symbol
 _atom_site_label
 _atom_site_symmetry_multiplicity
 _atom_site_fract_x
 _atom_site_fract_y
 _atom_site_fract_z
 _atom_site_occupancy
  Cs  Cs0  1  0.35785490  0.00000000  0.00000000  1
  Cs  Cs1  1  0.64214510  0.50000000  0.50000000  1
  Cs  Cs2  1  0.03632444  0.00000000  0.50000000  1
  Cs  Cs3  1  0.96367556  0.50000000  0.00000000  1
  Zr  Zr0  1  0.00220702  0.99135045  0.24873111  1
  Zr  Zr1  1  0.00220702  0.00864955  0.75126889  1
  Zr  Zr2  1  0.99779298  0.50864955  0.25126889  1
  Zr  Zr3  1  0.99779298  0.49135045  0.74873111  1
  Zr  Zr4  1  0.50000000  0.25000000  0.25000000  1
  Zr  Zr5  1  0.50000000  0.75000000  0.75000000  1
  V  V0  1  0.50000000  0.75000000  0.25000000  1
  V  V1  1  0.50000000  0.25000000  0.75000000  1
  Se  Se0  1  0.83528625  0.24970285  0.33803952  1
  Se  Se1  1  0.83528625  0.75029715  0.66196048  1
  Se  Se2  1  0.17053002  0.74721078  0.16145578  1
  Se  Se3  1  0.17053002  0.25278922  0.83854422  1
  Se  Se4  1  0.16471375  0.25029715  0.16196048  1
  Se  Se5  1  0.16471375  0.74970285  0.83803952  1
  Se  Se6  1  0.82946998  0.75278922  0.33854422  1
  Se  Se7  1  0.82946998  0.24721078  0.66145578  1
  Se  Se8  1  0.66870069  0.99773038  0.16338250  1
  Se  Se9  1  0.66870069  0.00226962  0.83661750  1
  Se  Se10  1  0.33129931  0.50226962  0.33661750  1
  Se  Se11  1  0.33129931  0.49773038  0.66338250  1
  Se  Se12  1  0.33773383  0.99842241  0.33567785  1
  Se  Se13  1  0.33773383  0.00157759  0.66432215  1
  Se  Se14  1  0.66226617  0.50157759  0.16432215  1
  Se  Se15  1  0.66226617  0.49842241  0.83567785  1
loop_
_geom_bond_atom_site_label_1
_geom_bond_atom_site_label_2
_geom_bond_distance
_geom_bond_site_symmetry_2
Cs0 Se9 3.542495 1_554
Cs0 Se8 3.542495 1_545
Cs0 Se4 3.668485 1_555
Cs0 Se5 3.668485 1_544
Cs0 Se2 3.671725 1_545
Cs0 Se3 3.671725 1_554
Cs1 Se10 3.542495 1_555
Cs1 Se11 3.542495 1_555
Cs1 Se0 3.668485 1_555
Cs1 Se1 3.668485 1_555
Cs1 Se7 3.671725 1_555
Cs1 Se6 3.671725 1_555
Cs2 Se13 3.520393 1_555
Cs2 Se12 3.520393 1_545
Cs2 Se7 3.681839 1_455
Cs2 Se6 3.681839 1_445
Cs2 Se1 3.697663 1_445
Cs2 Se0 3.697663 1_455
Cs3 Se14 3.520393 1_555
Cs3 Se15 3.520393 1_554
Cs3 Se2 3.681839 1_655
Cs3 Se3 3.681839 1_654
Cs3 Se5 3.697663 1_654
Cs3 Se4 3.697663 1_655
Se0 Zr4 2.704642 1_555
Se0 Zr2 2.733607 1_555
Se0 Zr0 2.757347 1_645
Se1 Zr5 2.704642 1_555
Se1 Zr3 2.733607 1_555
Se1 Zr1 2.757347 1_665
Se2 Zr0 2.663334 1_555
Se2 V0 2.678582 1_555
Se2 Zr2 2.681816 1_455
Se3 Zr1 2.663334 1_555
Se3 V1 2.678582 1_555
Se3 Zr3 2.681816 1_455
Se4 Zr4 2.704642 1_555
Se4 Zr0 2.733607 1_545
Se4 Zr2 2.757347 1_455
Se5 Zr5 2.704642 1_555
Se5 Zr1 2.733607 1_565
Se5 Zr3 2.757347 1_455
Se6 Zr2 2.663334 1_555
Se6 V0 2.678582 1_555
Se6 Zr0 2.681816 1_655
Se7 Zr3 2.663334 1_555
Se7 V1 2.678582 1_555
Se7 Zr1 2.681816 1_655
Se8 Zr0 2.668419 1_655
Se8 V0 2.686668 1_555
Se8 Zr4 2.701816 1_565
Se9 Zr1 2.668419 1_655
Se9 V1 2.686668 1_555
Se9 Zr5 2.701816 1_545
Se10 Zr2 2.668419 1_455
Se10 V0 2.686668 1_555
Se10 Zr4 2.701816 1_555
Se11 Zr3 2.668419 1_455
Se11 V1 2.686668 1_555
Se11 Zr5 2.701816 1_555
Se12 V0 2.654040 1_555
Se12 Zr4 2.681040 1_565
Se12 Zr0 2.695276 1_555
Se13 V1 2.654040 1_555
Se13 Zr5 2.681040 1_545
Se13 Zr1 2.695276 1_555
Se14 V0 2.654040 1_555
Se14 Zr4 2.681040 1_555
Se14 Zr2 2.695276 1_555
Se15 V1 2.654040 1_555
Se15 Zr5 2.681040 1_555
Se15 Zr3 2.695276 1_555
