# generated using pymatgen
data_Lu12InNi4Ru
_symmetry_space_group_name_H-M   'P 1'
_cell_length_a   8.06467079
_cell_length_b   8.06467102
_cell_length_c   8.06467124
_cell_angle_alpha   111.40702883
_cell_angle_beta   110.43948303
_cell_angle_gamma   106.60615152
_symmetry_Int_Tables_number   1
_chemical_formula_structural   Lu12InNi4Ru
_chemical_formula_sum   'Lu12 In1 Ni4 Ru1'
_cell_volume   402.99095796
_cell_formula_units_Z   1
loop_
 _symmetry_equiv_pos_site_id
 _symmetry_equiv_pos_as_xyz
  1  'x, y, z'
loop_
 _atom_site_type_symbol
 _atom_site_label
 _atom_site_symmetry_multiplicity
 _atom_site_fract_x
 _atom_site_fract_y
 _atom_site_fract_z
 _atom_site_occupancy
  Lu  Lu0  1  0.41382270  0.22288223  0.19094047  1
  Lu  Lu1  1  0.58617730  0.77711777  0.80905953  1
  Lu  Lu2  1  0.03194077  0.22288223  0.80905953  1
  Lu  Lu3  1  0.96805923  0.77711777  0.19094047  1
  Lu  Lu4  1  0.18074432  0.28100861  0.46175193  1
  Lu  Lu5  1  0.81925568  0.71899139  0.53824807  1
  Lu  Lu6  1  0.18074432  0.71899139  0.89973671  1
  Lu  Lu7  1  0.81925568  0.28100861  0.10026329  1
  Lu  Lu8  1  0.32231112  0.62753758  0.30522446  1
  Lu  Lu9  1  0.67768888  0.37246242  0.69477554  1
  Lu  Lu10  1  0.32231112  0.01708666  0.69477554  1
  Lu  Lu11  1  0.67768888  0.98291334  0.30522446  1
  In  In0  1  0.50000000  0.50000000  0.00000000  1
  Ni  Ni0  1  0.35611364  1.00000000  0.35611364  1
  Ni  Ni1  1  0.64388636  0.00000000  0.64388636  1
  Ni  Ni2  1  0.11951621  0.61951621  0.50000000  1
  Ni  Ni3  1  0.88048379  0.38048379  0.50000000  1
  Ru  Ru0  1  0.00000000  0.00000000  0.00000000  1
loop_
_geom_bond_atom_site_label_1
_geom_bond_atom_site_label_2
_geom_bond_distance
_geom_bond_site_symmetry_2
Lu0 Ni0 2.631460 1_545
Lu0 Ru0 2.775132 1_555
Lu0 Ni3 3.223871 1_555
Lu0 Lu4 3.338632 1_555
Lu0 Lu6 3.338638 1_544
Lu0 Lu11 3.377753 1_545
Lu0 Lu9 3.377757 1_555
Lu0 Lu10 3.420520 1_554
Lu0 Lu8 3.420535 1_555
Lu0 Lu2 3.513565 1_554
Lu0 Lu5 3.534045 1_555
Lu0 Lu7 3.534050 1_555
Lu1 Ni1 2.631460 1_565
Lu1 Ru0 2.775132 1_666
Lu1 Ni2 3.223871 1_555
Lu1 Lu5 3.338632 1_555
Lu1 Lu7 3.338638 1_566
Lu1 Lu10 3.377753 1_565
Lu1 Lu8 3.377757 1_555
Lu1 Lu11 3.420520 1_556
Lu1 Lu9 3.420535 1_555
Lu1 Lu3 3.513565 1_556
Lu1 Lu4 3.534045 1_555
Lu1 Lu6 3.534050 1_555
Lu2 Ni1 2.631453 1_455
Lu2 Ru0 2.775131 1_556
Lu2 Ni3 3.223870 1_455
Lu2 Lu7 3.338626 1_456
Lu2 Lu5 3.338639 1_445
Lu2 Lu9 3.377735 1_455
Lu2 Lu8 3.420525 1_556
Lu2 Lu6 3.534042 1_555
Lu2 Lu4 3.534058 1_555
Lu3 Ni0 2.631453 1_655
Lu3 Ru0 2.775131 1_665
Lu3 Ni2 3.223870 1_655
Lu3 Lu6 3.338626 1_654
Lu3 Lu4 3.338639 1_665
Lu3 Lu8 3.377735 1_655
Lu3 Lu9 3.420525 1_554
Lu3 Lu7 3.534042 1_555
Lu3 Lu5 3.534058 1_555
Lu4 Ni2 2.837920 1_555
Lu4 Ni3 2.837923 1_455
Lu4 Ni0 3.020935 1_545
Lu4 Ru0 3.047631 1_555
Lu4 Lu7 3.325938 1_455
Lu4 Lu9 3.489361 1_555
Lu4 Lu8 3.530596 1_555
Lu5 Ni3 2.837920 1_555
Lu5 Ni2 2.837923 1_655
Lu5 Ni1 3.020935 1_565
Lu5 Ru0 3.047631 1_666
Lu5 Lu6 3.325938 1_655
Lu5 Lu8 3.489361 1_555
Lu5 Lu9 3.530596 1_555
Lu6 Ni3 2.837925 1_455
Lu6 Ni2 2.837929 1_555
Lu6 Ni0 3.020930 1_556
Lu6 Ru0 3.047636 1_566
Lu6 Lu8 3.489338 1_556
Lu6 Lu9 3.530591 1_455
Lu7 Ni2 2.837925 1_655
Lu7 Ni3 2.837929 1_555
Lu7 Ni1 3.020930 1_554
Lu7 Ru0 3.047636 1_655
Lu7 Lu9 3.489338 1_554
Lu7 Lu8 3.530591 1_655
Lu8 Ni2 2.637113 1_555
Lu8 Ni0 2.796319 1_555
Lu8 Ni1 2.796328 1_565
Lu9 Ni3 2.637113 1_555
Lu9 Ni1 2.796319 1_555
Lu9 Ni0 2.796328 1_545
Lu10 Ni2 2.637112 1_545
Lu10 Ni1 2.796335 1_555
Lu10 Ni0 2.796336 1_545
Lu10 Lu3 3.377750 1_445
Lu10 Lu2 3.420528 1_555
Lu10 Lu7 3.489352 1_556
Lu10 Lu4 3.489361 1_555
Lu10 Lu5 3.530590 1_445
Lu10 Lu6 3.530595 1_545
Lu11 Ni3 2.637112 1_565
Lu11 Ni0 2.796335 1_555
Lu11 Ni1 2.796336 1_565
Lu11 Lu2 3.377750 1_665
Lu11 Lu3 3.420528 1_555
Lu11 Lu6 3.489352 1_554
Lu11 Lu5 3.489361 1_555
Lu11 Lu4 3.530590 1_665
Lu11 Lu7 3.530595 1_565
In0 Lu1 3.196979 1_554
In0 Lu0 3.196979 1_555
In0 Lu3 3.196985 1_555
In0 Lu2 3.196985 1_554
In0 Lu11 3.260135 1_555
In0 Lu10 3.260135 1_554
In0 Lu8 3.260138 1_555
In0 Lu9 3.260138 1_554
In0 Lu7 3.548156 1_555
In0 Lu6 3.548156 1_554
In0 Lu4 3.548163 1_554
In0 Lu5 3.548163 1_555
Ni0 Ni1 2.647702 1_565
Ni2 Ni3 2.303939 1_455
