# generated using pymatgen
data_K2NaAs
_symmetry_space_group_name_H-M   'P 1'
_cell_length_a   5.33148283
_cell_length_b   5.33148317
_cell_length_c   10.51560148
_cell_angle_alpha   90.00000000
_cell_angle_beta   90.00000000
_cell_angle_gamma   119.99999165
_symmetry_Int_Tables_number   1
_chemical_formula_structural   K2NaAs
_chemical_formula_sum   'K4 Na2 As2'
_cell_volume   258.85755469
_cell_formula_units_Z   2
loop_
 _symmetry_equiv_pos_site_id
 _symmetry_equiv_pos_as_xyz
  1  'x, y, z'
loop_
 _atom_site_type_symbol
 _atom_site_label
 _atom_site_symmetry_multiplicity
 _atom_site_fract_x
 _atom_site_fract_y
 _atom_site_fract_z
 _atom_site_occupancy
  K  K0  1  0.33333300  0.66666700  0.08593532  1
  K  K1  1  0.33333300  0.66666700  0.41406468  1
  K  K2  1  0.66666700  0.33333300  0.58593532  1
  K  K3  1  0.66666700  0.33333300  0.91406468  1
  Na  Na0  1  0.00000000  0.00000000  0.25000000  1
  Na  Na1  1  0.00000000  0.00000000  0.75000000  1
  As  As0  1  0.33333300  0.66666700  0.75000000  1
  As  As1  1  0.66666700  0.33333300  0.25000000  1
loop_
_geom_bond_atom_site_label_1
_geom_bond_atom_site_label_2
_geom_bond_distance
_geom_bond_site_symmetry_2
K0 K1 3.450478 1_555
K0 Na0 3.528645 1_565
K0 Na0 3.528649 1_665
K0 Na0 3.528649 1_555
K0 K3 3.569496 1_454
K0 K3 3.569496 1_564
K0 K3 3.569504 1_554
K1 Na0 3.528645 1_565
K1 Na0 3.528649 1_665
K1 Na0 3.528649 1_555
K1 K2 3.569496 1_455
K1 K2 3.569496 1_565
K1 K2 3.569504 1_555
K2 K3 3.450478 1_555
K2 Na1 3.528645 1_655
K2 Na1 3.528649 1_555
K2 Na1 3.528649 1_665
K3 Na1 3.528645 1_655
K3 Na1 3.528649 1_555
K3 Na1 3.528649 1_665
As0 Na1 3.078130 1_565
As0 Na1 3.078135 1_665
As0 Na1 3.078135 1_555
As0 K2 3.528645 1_455
As0 K3 3.528645 1_455
As0 K3 3.528645 1_565
As0 K2 3.528645 1_565
As0 K3 3.528653 1_555
As0 K2 3.528653 1_555
As0 K0 3.532562 1_556
As0 K1 3.532562 1_555
As1 Na0 3.078130 1_655
As1 Na0 3.078135 1_555
As1 Na0 3.078135 1_665
As1 K0 3.528645 1_655
As1 K1 3.528645 1_655
As1 K0 3.528645 1_545
As1 K1 3.528645 1_545
As1 K1 3.528653 1_555
As1 K0 3.528653 1_555
As1 K3 3.532562 1_554
As1 K2 3.532562 1_555
