# generated using pymatgen
data_CrSb(SeO3)4
_symmetry_space_group_name_H-M   'P 1'
_cell_length_a   8.08683419
_cell_length_b   7.96805622
_cell_length_c   8.01621136
_cell_angle_alpha   89.53661982
_cell_angle_beta   90.00000000
_cell_angle_gamma   90.00000000
_symmetry_Int_Tables_number   1
_chemical_formula_structural   CrSb(SeO3)4
_chemical_formula_sum   'Cr2 Sb2 Se8 O24'
_cell_volume   516.51850351
_cell_formula_units_Z   2
loop_
 _symmetry_equiv_pos_site_id
 _symmetry_equiv_pos_as_xyz
  1  'x, y, z'
loop_
 _atom_site_type_symbol
 _atom_site_label
 _atom_site_symmetry_multiplicity
 _atom_site_fract_x
 _atom_site_fract_y
 _atom_site_fract_z
 _atom_site_occupancy
  Cr  Cr0  1  0.00000000  0.50000000  0.00000000  1
  Cr  Cr1  1  0.50000000  0.50000000  0.50000000  1
  Sb  Sb0  1  0.00000000  0.00000000  0.50000000  1
  Sb  Sb1  1  0.50000000  0.00000000  0.00000000  1
  Se  Se0  1  0.32933265  0.65715680  0.17436039  1
  Se  Se1  1  0.82933265  0.34284320  0.32563961  1
  Se  Se2  1  0.66738240  0.82115316  0.66105376  1
  Se  Se3  1  0.16738240  0.17884684  0.83894624  1
  Se  Se4  1  0.67066735  0.34284320  0.82563961  1
  Se  Se5  1  0.17066735  0.65715680  0.67436039  1
  Se  Se6  1  0.33261760  0.17884684  0.33894624  1
  Se  Se7  1  0.83261760  0.82115316  0.16105376  1
  O  O0  1  0.23945229  0.53751290  0.02785861  1
  O  O1  1  0.73945229  0.46248710  0.47214139  1
  O  O2  1  0.75804201  0.97804140  0.53605361  1
  O  O3  1  0.25804201  0.02195860  0.96394639  1
  O  O4  1  0.52823715  0.95730085  0.75676374  1
  O  O5  1  0.46323740  0.51649924  0.25799510  1
  O  O6  1  0.96323740  0.48350076  0.24200490  1
  O  O7  1  0.02823715  0.04269915  0.74323626  1
  O  O8  1  0.97747989  0.24241024  0.45784967  1
  O  O9  1  0.54057580  0.74441321  0.51585393  1
  O  O10  1  0.47747989  0.75758976  0.04215033  1
  O  O11  1  0.04057580  0.25558679  0.98414607  1
  O  O12  1  0.76054771  0.46248710  0.97214139  1
  O  O13  1  0.26054771  0.53751290  0.52785861  1
  O  O14  1  0.24195799  0.02195860  0.46394639  1
  O  O15  1  0.74195799  0.97804140  0.03605361  1
  O  O16  1  0.47176285  0.04269915  0.24323626  1
  O  O17  1  0.53676260  0.48350076  0.74200490  1
  O  O18  1  0.03676260  0.51649924  0.75799510  1
  O  O19  1  0.97176285  0.95730085  0.25676374  1
  O  O20  1  0.02252011  0.75758976  0.54215033  1
  O  O21  1  0.45942420  0.25558679  0.48414607  1
  O  O22  1  0.52252011  0.24241024  0.95784967  1
  O  O23  1  0.95942420  0.74441321  0.01585393  1
loop_
_geom_bond_atom_site_label_1
_geom_bond_atom_site_label_2
_geom_bond_distance
_geom_bond_site_symmetry_2
Cr0 O6 1.965959 1_455
Cr0 O18 1.965959 1_554
Cr0 O0 1.972304 1_555
Cr0 O12 1.972304 1_454
Cr0 O23 1.980044 1_455
Cr0 O11 1.980044 1_554
Cr1 O17 1.965959 1_555
Cr1 O5 1.965959 1_555
Cr1 O1 1.972304 1_555
Cr1 O13 1.972304 1_555
Cr1 O9 1.980044 1_555
Cr1 O21 1.980044 1_555
O0 Se0 1.683580 1_555
O1 Se1 1.683580 1_555
O2 Se2 1.756144 1_555
O2 Sb0 1.985421 1_665
O3 Se3 1.756144 1_555
O3 Sb1 1.985421 1_556
O4 Se2 1.745034 1_555
O4 Sb1 1.995114 1_566
O5 Se0 1.692940 1_555
O6 Se1 1.692940 1_555
O7 Se3 1.745034 1_555
O7 Sb0 1.995114 1_555
O8 Se1 1.784719 1_555
O8 Sb0 1.966626 1_655
O9 Se2 1.670858 1_555
O10 Se0 1.784719 1_555
O10 Sb1 1.966626 1_565
O11 Se3 1.670858 1_555
O12 Se4 1.683580 1_555
O13 Se5 1.683580 1_555
O14 Se6 1.756144 1_555
O14 Sb0 1.985421 1_555
O15 Se7 1.756144 1_555
O15 Sb1 1.985421 1_565
O16 Se6 1.745034 1_555
O16 Sb1 1.995114 1_555
O17 Se4 1.692940 1_555
O18 Se5 1.692940 1_555
O19 Se7 1.745034 1_555
O19 Sb0 1.995114 1_665
O20 Se5 1.784719 1_555
O20 Sb0 1.966626 1_565
O21 Se6 1.670858 1_555
O22 Se4 1.784719 1_555
O22 Sb1 1.966626 1_556
O23 Se7 1.670858 1_555
