# generated using pymatgen
data_Cs6Sc(InAs2)3
_symmetry_space_group_name_H-M   'P 1'
_cell_length_a   6.49977739
_cell_length_b   8.29847436
_cell_length_c   11.41133633
_cell_angle_alpha   70.34846550
_cell_angle_beta   90.03614341
_cell_angle_gamma   89.79522776
_symmetry_Int_Tables_number   1
_chemical_formula_structural   Cs6Sc(InAs2)3
_chemical_formula_sum   'Cs6 Sc1 In3 As6'
_cell_volume   579.65254250
_cell_formula_units_Z   1
loop_
 _symmetry_equiv_pos_site_id
 _symmetry_equiv_pos_as_xyz
  1  'x, y, z'
loop_
 _atom_site_type_symbol
 _atom_site_label
 _atom_site_symmetry_multiplicity
 _atom_site_fract_x
 _atom_site_fract_y
 _atom_site_fract_z
 _atom_site_occupancy
  Cs  Cs0  1  0.25472578  0.44878552  0.41416188  1
  Cs  Cs1  1  0.74607775  0.14665390  0.93334184  1
  Cs  Cs2  1  0.74773221  0.46985079  0.14798041  1
  Cs  Cs3  1  0.25767790  0.52434523  0.85527741  1
  Cs  Cs4  1  0.74567339  0.55370796  0.58318056  1
  Cs  Cs5  1  0.24721457  0.85946871  0.06541070  1
  Sc  Sc0  1  0.00009034  0.98393538  0.65045313  1
  In  In0  1  0.99989919  0.01527993  0.34424285  1
  In  In1  1  0.50104085  0.98291313  0.66238759  1
  In  In2  1  0.49948900  0.01633762  0.34146803  1
  As  As0  1  0.25075282  0.81796729  0.53649750  1
  As  As1  1  0.75019178  0.18138806  0.46790978  1
  As  As2  1  0.24638417  0.23246072  0.17862949  1
  As  As3  1  0.76095766  0.77026843  0.82039805  1
  As  As4  1  0.24041414  0.16784384  0.74124081  1
  As  As5  1  0.75167845  0.82879249  0.25741896  1
loop_
_geom_bond_atom_site_label_1
_geom_bond_atom_site_label_2
_geom_bond_distance
_geom_bond_site_symmetry_2
As0 Sc0 2.726467 1_555
As0 In0 2.777220 1_465
As0 In2 2.799315 1_565
As0 In1 2.814150 1_555
As0 Cs3 3.634464 1_555
As0 Cs0 3.769821 1_555
As0 Cs4 3.821356 1_555
As0 Cs4 3.890783 1_455
As1 Sc0 2.709854 1_645
As1 In0 2.796633 1_555
As1 In1 2.797406 1_545
As1 In2 2.820528 1_555
As1 Cs2 3.630514 1_555
As1 Cs4 3.743024 1_555
As1 Cs0 3.834349 1_555
As1 Cs0 3.897878 1_655
As2 In2 2.666361 1_555
As2 In0 2.668343 1_455
As2 Cs3 3.671216 1_554
As2 Cs0 3.700710 1_555
As2 Cs5 3.733566 1_545
As2 Cs2 3.741329 1_455
As2 Cs2 3.769063 1_555
As3 Sc0 2.651677 1_655
As3 In1 2.655929 1_555
As3 Cs4 3.720235 1_555
As3 Cs2 3.732305 1_556
As3 Cs1 3.759235 1_565
As3 Cs3 3.761895 1_655
As3 Cs3 3.811437 1_555
As4 Sc0 2.630767 1_545
As4 In1 2.635646 1_545
As4 Cs3 3.612451 1_555
As4 Cs0 3.677518 1_555
As4 Cs5 3.723802 1_546
As4 Cs1 3.861848 1_455
As4 Cs1 3.919983 1_555
As5 In2 2.648909 1_565
As5 In0 2.650791 1_565
As5 Cs2 3.596556 1_555
As5 Cs4 3.650299 1_555
As5 Cs1 3.751468 1_564
As5 Cs5 3.857361 1_655
As5 Cs5 3.902129 1_555
