# generated using pymatgen
data_RbAlTe3O8
_symmetry_space_group_name_H-M   'P 1'
_cell_length_a   5.42733380
_cell_length_b   7.50906423
_cell_length_c   10.74508070
_cell_angle_alpha   98.55773121
_cell_angle_beta   89.60042178
_cell_angle_gamma   108.40523086
_symmetry_Int_Tables_number   1
_chemical_formula_structural   RbAlTe3O8
_chemical_formula_sum   'Rb2 Al2 Te6 O16'
_cell_volume   410.50717544
_cell_formula_units_Z   2
loop_
 _symmetry_equiv_pos_site_id
 _symmetry_equiv_pos_as_xyz
  1  'x, y, z'
loop_
 _atom_site_type_symbol
 _atom_site_label
 _atom_site_symmetry_multiplicity
 _atom_site_fract_x
 _atom_site_fract_y
 _atom_site_fract_z
 _atom_site_occupancy
  Rb  Rb0  1  0.83148066  0.11623666  0.16305234  1
  Rb  Rb1  1  0.16851934  0.88376334  0.83694766  1
  Al  Al0  1  0.50000000  0.50000000  0.00000000  1
  Al  Al1  1  0.00000000  0.50000000  0.50000000  1
  Te  Te0  1  0.22461466  0.97495839  0.41393436  1
  Te  Te1  1  0.77538534  0.02504161  0.58606564  1
  Te  Te2  1  0.04837737  0.65295548  0.14518876  1
  Te  Te3  1  0.95162263  0.34704452  0.85481124  1
  Te  Te4  1  0.52158238  0.53140462  0.33591496  1
  Te  Te5  1  0.47841762  0.46859538  0.66408504  1
  O  O0  1  0.14700461  0.71567708  0.41716022  1
  O  O1  1  0.85299539  0.28432292  0.58283978  1
  O  O2  1  0.22953418  0.91134200  0.21944058  1
  O  O3  1  0.77046582  0.08865800  0.78055942  1
  O  O4  1  0.87938032  0.97870819  0.39516997  1
  O  O5  1  0.12061968  0.02129181  0.60483003  1
  O  O6  1  0.26934987  0.65126128  0.01005716  1
  O  O7  1  0.73065013  0.34873872  0.98994284  1
  O  O8  1  0.78988280  0.71610630  0.06497331  1
  O  O9  1  0.21011720  0.28389370  0.93502669  1
  O  O10  1  0.41307096  0.43100284  0.16654248  1
  O  O11  1  0.58692904  0.56899716  0.83345752  1
  O  O12  1  0.23083842  0.38106501  0.41125664  1
  O  O13  1  0.76916158  0.61893499  0.58874336  1
  O  O14  1  0.74182345  0.39131104  0.36332315  1
  O  O15  1  0.25817655  0.60868896  0.63667685  1
loop_
_geom_bond_atom_site_label_1
_geom_bond_atom_site_label_2
_geom_bond_distance
_geom_bond_site_symmetry_2
Al0 O8 1.913622 1_555
Al0 O9 1.913622 1_554
Al0 O6 1.930873 1_555
Al0 O7 1.930873 1_554
Al0 O10 1.950173 1_555
Al0 O11 1.950173 1_554
Al1 O0 1.911788 1_555
Al1 O1 1.911788 1_455
Al1 O13 1.926893 1_455
Al1 O12 1.926893 1_555
Al1 O15 1.932906 1_555
Al1 O14 1.932906 1_455
O0 Te0 1.863141 1_555
O1 Te1 1.863141 1_555
O2 Te2 1.927014 1_555
O2 Te0 2.075223 1_555
O2 Rb0 3.129875 1_465
O2 Rb0 3.237766 1_565
O3 Te3 1.927014 1_555
O3 Te1 2.075223 1_555
O3 Rb1 3.129875 1_645
O3 Rb1 3.237766 1_545
O4 Te0 1.895384 1_655
O4 Te1 2.131304 1_565
O4 Rb0 2.880947 1_565
O5 Te1 1.895384 1_455
O5 Te0 2.131304 1_545
O5 Rb1 2.880947 1_545
O6 Te2 1.877928 1_555
O6 Rb1 2.896795 1_554
O7 Te3 1.877928 1_555
O7 Rb0 2.896795 1_556
O8 Te2 1.869390 1_655
O8 Rb0 2.970160 1_565
O8 Rb1 3.320433 1_654
O9 Te3 1.869390 1_455
O9 Rb1 2.970160 1_545
O9 Rb0 3.320433 1_456
O10 Te4 1.885092 1_555
O10 Rb0 3.288690 1_455
O11 Te5 1.885092 1_555
O11 Rb1 3.288690 1_655
O12 Te4 1.883897 1_555
O12 Rb0 3.397883 1_455
O13 Te5 1.883897 1_555
O13 Rb1 3.397883 1_655
O14 Te4 1.874386 1_555
O14 Rb0 2.903669 1_555
O15 Te5 1.874386 1_555
O15 Rb1 2.903669 1_555
