# generated using pymatgen
data_HfTa2Nb2Si3
_symmetry_space_group_name_H-M   'P 1'
_cell_length_a   7.62837246
_cell_length_b   7.62837149
_cell_length_c   7.62967320
_cell_angle_alpha   128.76402401
_cell_angle_beta   128.76401973
_cell_angle_gamma   75.37786343
_symmetry_Int_Tables_number   1
_chemical_formula_structural   HfTa2Nb2Si3
_chemical_formula_sum   'Hf2 Ta4 Nb4 Si6'
_cell_volume   262.72566031
_cell_formula_units_Z   2
loop_
 _symmetry_equiv_pos_site_id
 _symmetry_equiv_pos_as_xyz
  1  'x, y, z'
loop_
 _atom_site_type_symbol
 _atom_site_label
 _atom_site_symmetry_multiplicity
 _atom_site_fract_x
 _atom_site_fract_y
 _atom_site_fract_z
 _atom_site_occupancy
  Hf  Hf0  1  0.01540242  0.18212247  0.50000000  1
  Hf  Hf1  1  0.68212247  0.51540242  0.50000000  1
  Ta  Ta0  1  0.48373596  0.98373596  0.16784135  1
  Ta  Ta1  1  0.81589461  0.31589461  0.83215665  1
  Ta  Ta2  1  0.00348102  0.00348102  0.00000000  1
  Ta  Ta3  1  0.50348102  0.50348102  0.00000000  1
  Nb  Nb0  1  0.51918724  0.01918724  0.83262362  1
  Nb  Nb1  1  0.18656562  0.68656562  0.16737738  1
  Nb  Nb2  1  0.98035960  0.81166938  0.50000000  1
  Nb  Nb3  1  0.31166938  0.48035960  0.50000000  1
  Si  Si0  1  0.74704331  0.74704331  1.00000000  1
  Si  Si1  1  0.24704331  0.24704331  1.00000000  1
  Si  Si2  1  0.37298520  0.12958748  0.50000000  1
  Si  Si3  1  0.62958748  0.87298520  0.50000000  1
  Si  Si4  1  0.87102598  0.37102598  0.24060960  1
  Si  Si5  1  0.13041538  0.63041538  0.75939040  1
loop_
_geom_bond_atom_site_label_1
_geom_bond_atom_site_label_2
_geom_bond_distance
_geom_bond_site_symmetry_2
Hf0 Si2 2.655077 1_555
Hf0 Si5 2.691967 1_555
Hf0 Si4 2.691974 1_455
Hf0 Si1 2.748723 1_555
Hf0 Si0 2.748725 1_444
Hf0 Nb2 2.904975 1_445
Hf1 Si3 2.655076 1_555
Hf1 Si5 2.691967 1_655
Hf1 Si4 2.691974 1_555
Hf1 Si0 2.748723 1_555
Hf1 Si1 2.748725 1_554
Hf1 Nb3 2.904976 1_555
Nb0 Si4 2.609596 1_556
Nb0 Si2 2.655457 1_555
Nb0 Si3 2.655457 1_545
Nb0 Si0 2.771329 1_545
Nb0 Si1 2.771329 1_555
Nb1 Si5 2.609577 1_554
Nb1 Si2 2.655444 1_565
Nb1 Si3 2.655444 1_555
Nb1 Si1 2.771339 1_554
Nb1 Si0 2.771340 1_454
Nb2 Si3 2.597477 1_555
Nb2 Si4 2.632384 1_555
Nb2 Si5 2.632391 1_655
Nb2 Si0 2.747627 1_554
Nb2 Si1 2.747628 1_665
Nb3 Si2 2.597476 1_555
Nb3 Si4 2.632385 1_455
Nb3 Si5 2.632391 1_555
Nb3 Si1 2.747626 1_554
Nb3 Si0 2.747629 1_555
Si0 Ta1 2.725615 1_555
Si0 Ta0 2.725617 1_556
Si0 Ta3 2.940600 1_556
Si0 Ta2 3.096049 1_666
Si1 Ta1 2.725615 1_455
Si1 Ta0 2.725617 1_546
Si1 Ta2 2.940600 1_556
Si1 Ta3 3.096049 1_556
Si2 Si3 2.393478 1_545
Si2 Ta3 2.594608 1_556
Si2 Ta2 2.594608 1_555
Si2 Ta0 2.655152 1_545
Si2 Ta1 2.655157 1_555
Si3 Ta3 2.594608 1_555
Si3 Ta2 2.594608 1_666
Si3 Ta0 2.655152 1_555
Si3 Ta1 2.655156 1_565
Si4 Si5 2.420592 1_655
Si4 Ta2 2.588286 1_655
Si4 Ta3 2.588286 1_555
Si4 Ta1 2.621518 1_554
Si5 Ta2 2.588286 1_566
Si5 Ta3 2.588286 1_556
Si5 Ta0 2.621514 1_556
