# generated using pymatgen
data_Hf5TiBBr12
_symmetry_space_group_name_H-M   'P 1'
_cell_length_a   8.44587953
_cell_length_b   8.44481872
_cell_length_c   8.48136208
_cell_angle_alpha   107.15624300
_cell_angle_beta   107.17900162
_cell_angle_gamma   107.03447071
_symmetry_Int_Tables_number   1
_chemical_formula_structural   Hf5TiBBr12
_chemical_formula_sum   'Hf5 Ti1 B1 Br12'
_cell_volume   502.08252702
_cell_formula_units_Z   1
loop_
 _symmetry_equiv_pos_site_id
 _symmetry_equiv_pos_as_xyz
  1  'x, y, z'
loop_
 _atom_site_type_symbol
 _atom_site_label
 _atom_site_symmetry_multiplicity
 _atom_site_fract_x
 _atom_site_fract_y
 _atom_site_fract_z
 _atom_site_occupancy
  Hf  Hf0  1  0.28899012  0.09621198  0.03113232  1
  Hf  Hf1  1  0.09598622  0.02916910  0.28764358  1
  Hf  Hf2  1  0.90308488  0.96846438  0.71109147  1
  Hf  Hf3  1  0.70766229  0.90117469  0.96798156  1
  Hf  Hf4  1  0.03070270  0.29223816  0.09705291  1
  Ti  Ti0  1  0.97138022  0.72000779  0.90697369  1
  B  B0  1  0.99839093  0.00025870  0.99983304  1
  Br  Br0  1  0.92055142  0.30820205  0.77319910  1
  Br  Br1  1  0.68678058  0.22536108  0.07832355  1
  Br  Br2  1  0.44744249  0.14367269  0.37094785  1
  Br  Br3  1  0.85859644  0.63044403  0.55818886  1
  Br  Br4  1  0.22569599  0.07840803  0.68934516  1
  Br  Br5  1  0.63225486  0.55396208  0.85568999  1
  Br  Br6  1  0.37228519  0.44800768  0.14529581  1
  Br  Br7  1  0.77420112  0.91885965  0.30982164  1
  Br  Br8  1  0.14381170  0.37046506  0.44750159  1
  Br  Br9  1  0.55125673  0.85313462  0.62766978  1
  Br  Br10  1  0.31399738  0.77597953  0.92194120  1
  Br  Br11  1  0.07692772  0.68597769  0.22036691  1
loop_
_geom_bond_atom_site_label_1
_geom_bond_atom_site_label_2
_geom_bond_distance
_geom_bond_site_symmetry_2
B0 Ti0 2.179756 1_545
B0 Hf2 2.244606 1_545
B0 Hf1 2.244901 1_656
B0 Hf3 2.252428 1_545
B0 Hf0 2.252550 1_656
B0 Hf4 2.259975 1_656
Br0 Hf4 2.685259 1_656
Br0 Hf2 2.710178 1_545
Br0 Ti0 3.174156 1_555
Br1 Hf3 2.696437 1_544
Br1 Hf4 2.737695 1_655
Br1 Hf0 3.072215 1_555
Br2 Hf1 2.630919 1_555
Br2 Hf0 2.642717 1_555
Br3 Ti0 2.612197 1_555
Br3 Hf2 2.621271 1_555
Br4 Hf2 2.689967 1_445
Br4 Hf0 2.737138 1_556
Br4 Hf1 3.110160 1_555
Br5 Hf3 2.609646 1_555
Br5 Ti0 2.628743 1_555
Br6 Hf0 2.633336 1_555
Br6 Hf4 2.642447 1_555
Br7 Hf1 2.685406 1_665
Br7 Hf3 2.734373 1_554
Br7 Hf2 3.105852 1_555
Br8 Hf4 2.641597 1_555
Br8 Hf1 2.645258 1_555
Br9 Hf2 2.633416 1_555
Br9 Hf3 2.642593 1_555
Br10 Hf0 2.681082 1_566
Br10 Ti0 2.749416 1_455
Br10 Hf3 3.042177 1_555
Br11 Ti0 2.672693 1_454
Br11 Hf1 2.729066 1_565
Br11 Hf4 3.041198 1_555
