# generated using pymatgen
data_Rb2Sn2Hg3Se8
_symmetry_space_group_name_H-M   'P 1'
_cell_length_a   7.00202998
_cell_length_b   10.60002952
_cell_length_c   14.07009258
_cell_angle_alpha   83.61675551
_cell_angle_beta   90.00000000
_cell_angle_gamma   90.00000000
_symmetry_Int_Tables_number   1
_chemical_formula_structural   Rb2Sn2Hg3Se8
_chemical_formula_sum   'Rb4 Sn4 Hg6 Se16'
_cell_volume   1037.83233067
_cell_formula_units_Z   2
loop_
 _symmetry_equiv_pos_site_id
 _symmetry_equiv_pos_as_xyz
  1  'x, y, z'
loop_
 _atom_site_type_symbol
 _atom_site_label
 _atom_site_symmetry_multiplicity
 _atom_site_fract_x
 _atom_site_fract_y
 _atom_site_fract_z
 _atom_site_occupancy
  Rb  Rb0  1  0.84995023  0.26972006  0.31720792  1
  Rb  Rb1  1  0.34995023  0.73027994  0.18279208  1
  Rb  Rb2  1  0.65004977  0.26972006  0.81720792  1
  Rb  Rb3  1  0.15004977  0.73027994  0.68279208  1
  Sn  Sn0  1  0.69438496  0.78188676  0.91908665  1
  Sn  Sn1  1  0.30561504  0.21811324  0.08091335  1
  Sn  Sn2  1  0.19438496  0.21811324  0.58091335  1
  Sn  Sn3  1  0.80561504  0.78188676  0.41908665  1
  Hg  Hg0  1  0.28342891  0.99878965  0.38301571  1
  Hg  Hg1  1  0.21657109  0.99878965  0.88301571  1
  Hg  Hg2  1  0.71657109  0.00121035  0.61698429  1
  Hg  Hg3  1  0.50000000  0.50000000  0.50000000  1
  Hg  Hg4  1  0.78342891  0.00121035  0.11698429  1
  Hg  Hg5  1  0.00000000  0.50000000  0.00000000  1
  Se  Se0  1  0.33125492  0.76849932  0.91900056  1
  Se  Se1  1  0.19015291  0.42506936  0.14400241  1
  Se  Se2  1  0.18543290  0.23461549  0.90946529  1
  Se  Se3  1  0.16874508  0.76849932  0.41900056  1
  Se  Se4  1  0.80984709  0.57493064  0.85599759  1
  Se  Se5  1  0.83125492  0.23150068  0.58099944  1
  Se  Se6  1  0.69015291  0.57493064  0.35599759  1
  Se  Se7  1  0.81456710  0.76538451  0.09053471  1
  Se  Se8  1  0.33381243  0.03131783  0.68004845  1
  Se  Se9  1  0.30984709  0.42506936  0.64400241  1
  Se  Se10  1  0.31456710  0.23461549  0.40946529  1
  Se  Se11  1  0.66618757  0.96868217  0.31995155  1
  Se  Se12  1  0.66874508  0.23150068  0.08099944  1
  Se  Se13  1  0.68543290  0.76538451  0.59053471  1
  Se  Se14  1  0.16618757  0.03131783  0.18004845  1
  Se  Se15  1  0.83381243  0.96868217  0.81995155  1
loop_
_geom_bond_atom_site_label_1
_geom_bond_atom_site_label_2
_geom_bond_distance
_geom_bond_site_symmetry_2
Rb0 Se11 3.436899 1_545
Rb0 Se10 3.507101 1_655
Rb0 Se6 3.522673 1_555
Rb0 Se12 3.621997 1_555
Rb0 Se1 3.665081 1_655
Rb0 Se5 3.690891 1_555
Rb0 Se10 3.971060 1_555
Rb0 Se14 4.012223 1_655
Rb1 Se14 3.436899 1_565
Rb1 Se7 3.507101 1_555
Rb1 Se1 3.522673 1_555
Rb1 Se3 3.621997 1_555
Rb1 Se6 3.665081 1_555
Rb1 Se0 3.690891 1_554
Rb1 Se7 3.971060 1_455
Rb1 Se11 4.012223 1_555
Rb2 Se15 3.436899 1_545
Rb2 Se2 3.507101 1_555
Rb2 Se4 3.522673 1_555
Rb2 Se5 3.621997 1_555
Rb2 Se9 3.665081 1_555
Rb2 Se12 3.690891 1_556
Rb2 Se2 3.971060 1_655
Rb2 Se8 4.012223 1_555
Rb3 Se8 3.436899 1_565
Rb3 Se13 3.507101 1_455
Rb3 Se9 3.522673 1_555
Rb3 Se0 3.621997 1_555
Rb3 Se4 3.665081 1_455
Rb3 Se3 3.690891 1_555
Rb3 Se13 3.971060 1_555
Rb3 Se15 4.012223 1_455
Hg0 Se3 2.566177 1_555
Hg0 Se10 2.577148 1_565
Hg0 Se11 2.852196 1_555
Hg0 Se14 2.954534 1_565
Hg1 Se0 2.566177 1_555
Hg1 Se2 2.577148 1_565
Hg1 Se15 2.852196 1_455
Hg1 Se8 2.954534 1_565
Hg2 Se5 2.566177 1_555
Hg2 Se13 2.577148 1_545
Hg2 Se8 2.852196 1_555
Hg2 Se15 2.954534 1_545
Hg3 Se9 2.480119 1_555
Hg3 Se6 2.480119 1_555
Hg4 Se12 2.566177 1_555
Hg4 Se7 2.577148 1_545
Hg4 Se14 2.852196 1_655
Hg4 Se11 2.954534 1_545
Hg5 Se1 2.480119 1_555
Hg5 Se4 2.480119 1_454
Se0 Sn0 2.546612 1_555
Se1 Sn1 2.585938 1_555
Se2 Sn1 2.542453 1_556
Se3 Sn3 2.546612 1_455
Se4 Sn0 2.585938 1_555
Se5 Sn2 2.546612 1_655
Se6 Sn3 2.585938 1_555
Se7 Sn0 2.542453 1_554
Se8 Sn2 2.491009 1_555
Se9 Sn2 2.585938 1_555
Se10 Sn2 2.542453 1_555
Se11 Sn3 2.491009 1_555
Se12 Sn1 2.546612 1_555
Se13 Sn3 2.542453 1_555
Se14 Sn1 2.491009 1_555
Se15 Sn0 2.491009 1_555
