# generated using pymatgen
data_Pr(PO3)3
_symmetry_space_group_name_H-M   'P 1'
_cell_length_a   7.07563995
_cell_length_b   7.07563995
_cell_length_c   7.33578699
_cell_angle_alpha   90.00000000
_cell_angle_beta   90.00000000
_cell_angle_gamma   105.30301962
_symmetry_Int_Tables_number   1
_chemical_formula_structural   Pr(PO3)3
_chemical_formula_sum   'Pr2 P6 O18'
_cell_volume   354.24194710
_cell_formula_units_Z   2
loop_
 _symmetry_equiv_pos_site_id
 _symmetry_equiv_pos_as_xyz
  1  'x, y, z'
loop_
 _atom_site_type_symbol
 _atom_site_label
 _atom_site_symmetry_multiplicity
 _atom_site_fract_x
 _atom_site_fract_y
 _atom_site_fract_z
 _atom_site_occupancy
  Pr  Pr0  1  0.62425283  0.62425283  0.50000000  1
  Pr  Pr1  1  0.37574717  0.37574717  -0.00000000  1
  P  P0  1  0.16556034  0.81663061  0.45345819  1
  P  P1  1  0.83443966  0.18336939  0.95345819  1
  P  P2  1  0.81663061  0.16556034  0.54654181  1
  P  P3  1  0.18336939  0.83443966  0.04654181  1
  P  P4  1  0.24823266  0.24823266  0.50000000  1
  P  P5  1  0.75176734  0.75176734  -0.00000000  1
  O  O0  1  0.24729561  0.03028688  0.54096449  1
  O  O1  1  0.75270439  0.96971312  0.04096449  1
  O  O2  1  0.03028688  0.24729561  0.45903551  1
  O  O3  1  0.96971312  0.75270439  0.95903551  1
  O  O4  1  0.32667945  0.36488230  0.66709750  1
  O  O5  1  0.67332055  0.63511770  0.16709750  1
  O  O6  1  0.36488230  0.32667945  0.33290250  1
  O  O7  1  0.63511770  0.67332055  0.83290250  1
  O  O8  1  0.28220736  0.67540000  0.03877733  1
  O  O9  1  0.71779264  0.32460000  0.53877733  1
  O  O10  1  0.67540000  0.28220736  0.96122267  1
  O  O11  1  0.32460000  0.71779264  0.46122267  1
  O  O12  1  0.27886552  0.02569219  0.96258736  1
  O  O13  1  0.72113448  0.97430781  0.46258736  1
  O  O14  1  0.02569219  0.27886552  0.03741264  1
  O  O15  1  0.97430781  0.72113448  0.53741264  1
  O  O16  1  0.12555876  0.87444124  0.25000000  1
  O  O17  1  0.87444124  0.12555876  0.75000000  1
loop_
_geom_bond_atom_site_label_1
_geom_bond_atom_site_label_2
_geom_bond_distance
_geom_bond_site_symmetry_2
O0 P4 1.569408 1_555
O0 P0 1.603261 1_545
O1 P5 1.569408 1_555
O1 P1 1.603261 1_564
O2 P4 1.569408 1_555
O2 P2 1.603261 1_455
O3 P5 1.569408 1_556
O3 P3 1.603261 1_656
O4 P4 1.500024 1_555
O4 Pr1 2.464999 1_556
O4 Pr0 2.695208 1_555
O5 P5 1.500024 1_555
O5 Pr0 2.464999 1_555
O5 Pr1 2.695208 1_555
O6 P4 1.500024 1_555
O6 Pr1 2.464999 1_555
O6 Pr0 2.695208 1_555
O7 P5 1.500024 1_556
O7 Pr0 2.464999 1_555
O7 Pr1 2.695208 1_556
O8 P3 1.474464 1_555
O8 Pr1 2.398977 1_555
O9 P2 1.474464 1_555
O9 Pr0 2.398977 1_555
O10 P1 1.474464 1_555
O10 Pr1 2.398977 1_556
O11 P0 1.474464 1_555
O11 Pr0 2.398977 1_555
O12 P3 1.477990 1_546
O12 Pr1 2.404965 1_556
O13 P2 1.477990 1_565
O13 Pr0 2.404965 1_555
O14 P1 1.477990 1_454
O14 Pr1 2.404965 1_555
O15 P0 1.477990 1_655
O15 Pr0 2.404965 1_555
O16 P3 1.592537 1_555
O16 P0 1.592537 1_555
O17 P2 1.592537 1_555
O17 P1 1.592537 1_555
