# generated using pymatgen
data_Hf10CoSn6P
_symmetry_space_group_name_H-M   'P 1'
_cell_length_a   5.77518975
_cell_length_b   8.52154692
_cell_length_c   8.52154653
_cell_angle_alpha   120.00000228
_cell_angle_beta   90.00000000
_cell_angle_gamma   90.00000000
_symmetry_Int_Tables_number   1
_chemical_formula_structural   Hf10CoSn6P
_chemical_formula_sum   'Hf10 Co1 Sn6 P1'
_cell_volume   363.18987985
_cell_formula_units_Z   1
loop_
 _symmetry_equiv_pos_site_id
 _symmetry_equiv_pos_as_xyz
  1  'x, y, z'
loop_
 _atom_site_type_symbol
 _atom_site_label
 _atom_site_symmetry_multiplicity
 _atom_site_fract_x
 _atom_site_fract_y
 _atom_site_fract_z
 _atom_site_occupancy
  Hf  Hf0  1  0.74727415  0.74869119  0.74869119  1
  Hf  Hf1  1  0.25272585  0.25130881  0.25130881  1
  Hf  Hf2  1  0.74727415  0.00000000  0.25130881  1
  Hf  Hf3  1  0.25272585  1.00000000  0.74869119  1
  Hf  Hf4  1  0.74727415  0.25130881  0.00000000  1
  Hf  Hf5  1  0.25272585  0.74869119  1.00000000  1
  Hf  Hf6  1  0.00000000  0.66666700  0.33333300  1
  Hf  Hf7  1  0.00000000  0.33333300  0.66666700  1
  Hf  Hf8  1  0.50000000  0.33333300  0.66666700  1
  Hf  Hf9  1  0.50000000  0.66666700  0.33333300  1
  Co  Co0  1  0.50000000  0.00000000  0.00000000  1
  Sn  Sn0  1  0.74918836  0.39554020  0.39554020  1
  Sn  Sn1  1  0.25081164  0.60445980  0.60445980  1
  Sn  Sn2  1  0.74918836  1.00000000  0.60445980  1
  Sn  Sn3  1  0.25081164  0.00000000  0.39554020  1
  Sn  Sn4  1  0.74918836  0.60445980  1.00000000  1
  Sn  Sn5  1  0.25081164  0.39554020  0.00000000  1
  P  P0  1  0.00000000  0.00000000  0.00000000  1
loop_
_geom_bond_atom_site_label_1
_geom_bond_atom_site_label_2
_geom_bond_distance
_geom_bond_site_symmetry_2
Hf0 P0 2.591611 1_666
Hf0 Sn4 2.954497 1_555
Hf0 Sn2 2.954497 1_555
Hf0 Sn0 3.009413 1_555
Hf0 Sn1 3.119497 1_555
Hf0 Sn1 3.157092 1_655
Hf1 P0 2.591611 1_555
Hf1 Sn5 2.954497 1_555
Hf1 Sn3 2.954497 1_555
Hf1 Sn1 3.009413 1_555
Hf1 Sn0 3.119497 1_555
Hf1 Sn0 3.157092 1_455
Hf2 P0 2.591611 1_655
Hf2 Sn4 2.954497 1_544
Hf2 Sn0 2.954497 1_555
Hf2 Sn2 3.009413 1_545
Hf2 Sn3 3.119497 1_555
Hf2 Sn3 3.157092 1_655
Hf3 P0 2.591611 1_566
Hf3 Sn5 2.954497 1_566
Hf3 Sn1 2.954497 1_555
Hf3 Sn3 3.009413 1_565
Hf3 Sn2 3.119497 1_555
Hf3 Sn2 3.157092 1_455
Hf4 P0 2.591611 1_655
Hf4 Sn2 2.954497 1_544
Hf4 Sn0 2.954497 1_555
Hf4 Sn4 3.009413 1_554
Hf4 Sn5 3.119497 1_555
Hf4 Sn5 3.157092 1_655
Hf5 P0 2.591611 1_566
Hf5 Sn3 2.954497 1_566
Hf5 Sn1 2.954497 1_555
Hf5 Sn5 3.009413 1_556
Hf5 Sn4 3.119497 1_555
Hf5 Sn4 3.157092 1_455
Hf6 Sn4 2.990296 1_454
Hf6 Sn3 2.990296 1_565
Hf6 Sn5 2.990298 1_555
Hf6 Sn2 2.990298 1_455
Hf6 Sn1 2.990303 1_555
Hf6 Sn0 2.990303 1_455
Hf7 Sn5 2.990296 1_556
Hf7 Sn2 2.990296 1_445
Hf7 Sn4 2.990298 1_455
Hf7 Sn3 2.990298 1_555
Hf7 Sn0 2.990303 1_455
Hf7 Sn1 2.990303 1_555
Hf8 Sn5 2.985766 1_556
Hf8 Sn2 2.985766 1_545
Hf8 Sn4 2.985768 1_555
Hf8 Sn3 2.985768 1_555
Hf8 Sn0 2.985773 1_555
Hf8 Sn1 2.985773 1_555
Hf9 Sn4 2.985766 1_554
Hf9 Sn3 2.985766 1_565
Hf9 Sn5 2.985768 1_555
Hf9 Sn2 2.985768 1_555
Hf9 Sn1 2.985773 1_555
Hf9 Sn0 2.985773 1_555
Co0 Hf1 2.574011 1_555
Co0 Hf0 2.574011 1_544
Co0 Hf2 2.574011 1_555
Co0 Hf3 2.574011 1_544
Co0 Hf4 2.574011 1_555
Co0 Hf5 2.574011 1_544
