# generated using pymatgen
data_Ta5Al3S20
_symmetry_space_group_name_H-M   'P 1'
_cell_length_a   9.64543687
_cell_length_b   9.64543680
_cell_length_c   10.38374413
_cell_angle_alpha   64.38489968
_cell_angle_beta   64.38489784
_cell_angle_gamma   41.45236208
_symmetry_Int_Tables_number   1
_chemical_formula_structural   Ta5Al3S20
_chemical_formula_sum   'Ta5 Al3 S20'
_cell_volume   567.09767197
_cell_formula_units_Z   1
loop_
 _symmetry_equiv_pos_site_id
 _symmetry_equiv_pos_as_xyz
  1  'x, y, z'
loop_
 _atom_site_type_symbol
 _atom_site_label
 _atom_site_symmetry_multiplicity
 _atom_site_fract_x
 _atom_site_fract_y
 _atom_site_fract_z
 _atom_site_occupancy
  Ta  Ta0  1  0.33381023  0.83284453  0.86678372  1
  Ta  Ta1  1  0.83284453  0.33381023  0.86678372  1
  Ta  Ta2  1  0.16445806  0.16445806  0.13439389  1
  Ta  Ta3  1  0.66538595  0.66538595  0.13561292  1
  Ta  Ta4  1  0.79557260  0.79557260  0.58620376  1
  Al  Al0  1  0.28862556  0.28862556  0.60363781  1
  Al  Al1  1  0.70369231  0.22909321  0.39727469  1
  Al  Al2  1  0.22909321  0.70369231  0.39727469  1
  S  S0  1  0.96735276  0.96735276  0.98439405  1
  S  S1  1  0.46699159  0.46699159  0.98674467  1
  S  S2  1  0.53087170  0.03204170  0.01684081  1
  S  S3  1  0.03204170  0.53087170  0.01684081  1
  S  S4  1  0.11825016  0.61778543  0.65041065  1
  S  S5  1  0.61778543  0.11825016  0.65041065  1
  S  S6  1  0.38453530  0.38453530  0.35669880  1
  S  S7  1  0.88016342  0.88016342  0.34340868  1
  S  S8  1  0.02138021  0.02138021  0.76295507  1
  S  S9  1  0.52084759  0.52084759  0.76466047  1
  S  S10  1  0.47478296  0.97725476  0.23882440  1
  S  S11  1  0.97725476  0.47478296  0.23882440  1
  S  S12  1  0.31507877  0.81456775  0.13040104  1
  S  S13  1  0.81456775  0.31507877  0.13040104  1
  S  S14  1  0.18464422  0.18464422  0.86708563  1
  S  S15  1  0.68392540  0.68392540  0.87011088  1
  S  S16  1  0.44332910  0.94636710  0.59821649  1
  S  S17  1  0.94636710  0.44332910  0.59821649  1
  S  S18  1  0.04946723  0.04946723  0.40080066  1
  S  S19  1  0.55687840  0.55687840  0.40579011  1
loop_
_geom_bond_atom_site_label_1
_geom_bond_atom_site_label_2
_geom_bond_distance
_geom_bond_site_symmetry_2
Al0 S6 2.338224 1_555
Al0 S16 2.414905 1_545
Al0 S17 2.414905 1_455
Al0 S4 2.416307 1_555
Al0 S5 2.416307 1_555
Al0 S14 2.501695 1_555
Al1 S19 2.330492 1_555
Al1 S18 2.348453 1_655
Al1 S6 2.357678 1_555
Al1 S5 2.398659 1_555
Al1 S13 2.508129 1_555
Al1 S7 2.598915 1_545
Al2 S19 2.330492 1_555
Al2 S18 2.348453 1_565
Al2 S6 2.357678 1_555
Al2 S4 2.398659 1_555
Al2 S12 2.508129 1_555
Al2 S7 2.598915 1_455
S0 S8 2.040877 1_665
S0 Ta0 2.536089 1_655
S0 Ta1 2.536089 1_565
S1 S9 2.047088 1_555
S1 Ta1 2.538119 1_555
S1 Ta0 2.538119 1_555
S2 Ta3 2.538836 1_545
S2 Ta2 2.542317 1_555
S3 Ta3 2.538836 1_455
S3 Ta2 2.542317 1_555
S4 Ta4 2.424271 1_455
S5 Ta4 2.424271 1_545
S7 Ta4 2.264556 1_555
S8 Ta1 2.539664 1_455
S8 Ta0 2.539664 1_545
S9 Ta0 2.530259 1_555
S9 Ta1 2.530259 1_555
S10 S2 2.045036 1_565
S10 Ta3 2.524116 1_555
S10 Ta2 2.531274 1_565
S11 S3 2.045036 1_655
S11 Ta3 2.524117 1_555
S11 Ta2 2.531274 1_655
S12 Ta2 2.494234 1_565
S12 Ta3 2.508555 1_555
S12 Ta0 2.599923 1_554
S13 Ta2 2.494234 1_655
S13 Ta3 2.508555 1_555
S13 Ta1 2.599923 1_554
S14 Ta0 2.504241 1_545
S14 Ta1 2.504241 1_455
S14 Ta2 2.627236 1_556
S15 Ta1 2.501065 1_555
S15 Ta0 2.501065 1_555
S15 Ta3 2.619138 1_556
S15 Ta4 2.694180 1_555
S16 Ta4 2.461137 1_555
S16 Ta0 2.576497 1_555
S17 Ta4 2.461137 1_555
S17 Ta1 2.576497 1_555
S18 Ta2 2.578957 1_555
S19 Ta3 2.574054 1_555
