# generated using pymatgen
data_Rb6GaSbAs2
_symmetry_space_group_name_H-M   'P 1'
_cell_length_a   6.04713019
_cell_length_b   10.35385029
_cell_length_c   12.11609461
_cell_angle_alpha   78.35895849
_cell_angle_beta   90.00000000
_cell_angle_gamma   90.00000000
_symmetry_Int_Tables_number   1
_chemical_formula_structural   Rb6GaSbAs2
_chemical_formula_sum   'Rb12 Ga2 Sb2 As4'
_cell_volume   742.99807011
_cell_formula_units_Z   2
loop_
 _symmetry_equiv_pos_site_id
 _symmetry_equiv_pos_as_xyz
  1  'x, y, z'
loop_
 _atom_site_type_symbol
 _atom_site_label
 _atom_site_symmetry_multiplicity
 _atom_site_fract_x
 _atom_site_fract_y
 _atom_site_fract_z
 _atom_site_occupancy
  Rb  Rb0  1  0.75000000  0.45836613  0.07761085  1
  Rb  Rb1  1  0.25000000  0.54163387  0.92238915  1
  Rb  Rb2  1  0.75000000  0.73679391  0.23148406  1
  Rb  Rb3  1  0.25000000  0.26320609  0.76851594  1
  Rb  Rb4  1  0.25000000  0.56216764  0.53391428  1
  Rb  Rb5  1  0.75000000  0.43783236  0.46608572  1
  Rb  Rb6  1  0.25000000  0.85820363  0.03367054  1
  Rb  Rb7  1  0.75000000  0.14179637  0.96632946  1
  Rb  Rb8  1  0.25000000  0.87511027  0.67558306  1
  Rb  Rb9  1  0.75000000  0.12488973  0.32441694  1
  Rb  Rb10  1  0.25000000  0.91618498  0.37705378  1
  Rb  Rb11  1  0.75000000  0.08381502  0.62294622  1
  Ga  Ga0  1  0.25000000  0.33129578  0.29195834  1
  Ga  Ga1  1  0.75000000  0.66870422  0.70804166  1
  Sb  Sb0  1  0.25000000  0.18607296  0.12680853  1
  Sb  Sb1  1  0.75000000  0.81392704  0.87319147  1
  As  As0  1  0.25000000  0.21567015  0.48671336  1
  As  As1  1  0.75000000  0.78432985  0.51328664  1
  As  As2  1  0.25000000  0.56577622  0.23235019  1
  As  As3  1  0.75000000  0.43422378  0.76764981  1
loop_
_geom_bond_atom_site_label_1
_geom_bond_atom_site_label_2
_geom_bond_distance
_geom_bond_site_symmetry_2
Rb0 Rb1 3.573214 1_554
Rb0 Rb1 3.573214 1_654
Rb0 Rb2 3.735672 1_555
Rb0 Rb7 3.787451 1_554
Rb0 Sb1 4.000948 1_554
Rb0 Rb9 4.086188 1_555
Rb0 Sb0 4.094805 1_555
Rb0 Sb0 4.094805 1_655
Rb1 Rb3 3.735672 1_555
Rb1 Rb6 3.787451 1_556
Rb1 Sb0 4.000948 1_556
Rb1 Rb8 4.086188 1_555
Rb1 Sb1 4.094805 1_455
Rb1 Sb1 4.094805 1_555
Rb2 Sb1 4.252518 1_554
Rb3 Sb0 4.252518 1_556
Rb6 Sb1 3.673206 1_554
Rb6 Sb1 3.673206 1_454
Rb6 Sb0 3.787276 1_565
Rb7 Sb0 3.673206 1_656
Rb7 Sb0 3.673206 1_556
Rb7 Sb1 3.787276 1_545
Rb8 Sb1 3.829303 1_455
Rb8 Sb1 3.829303 1_555
Rb9 Sb0 3.829303 1_555
Rb9 Sb0 3.829303 1_655
Rb10 Sb0 3.685428 1_565
Rb11 Sb1 3.685428 1_545
Ga0 Sb0 2.734763 1_555
Ga0 Rb9 3.677583 1_455
Ga0 Rb9 3.677583 1_555
Ga0 Rb0 4.029729 1_455
Ga0 Rb0 4.029729 1_555
Ga1 Sb1 2.734763 1_555
Ga1 Rb8 3.677583 1_555
Ga1 Rb8 3.677583 1_655
Ga1 Rb1 4.029729 1_655
Ga1 Rb1 4.029729 1_555
As0 Ga0 2.420999 1_555
As0 Rb3 3.546572 1_555
As0 Rb11 3.580623 1_455
As0 Rb11 3.580623 1_555
As0 Rb10 3.611514 1_545
As0 Rb4 3.745103 1_555
As0 Rb5 3.776703 1_555
As0 Rb5 3.776703 1_455
As0 Rb8 3.796539 1_545
As0 Rb9 3.825966 1_455
As0 Rb9 3.825966 1_555
As1 Ga1 2.420999 1_555
As1 Rb2 3.546572 1_555
As1 Rb10 3.580623 1_555
As1 Rb10 3.580623 1_655
As1 Rb11 3.611514 1_565
As1 Rb5 3.745103 1_555
As1 Rb4 3.776703 1_655
As1 Rb4 3.776703 1_555
As1 Rb9 3.796539 1_565
As1 Rb8 3.825966 1_555
As1 Rb8 3.825966 1_655
As2 Ga0 2.389163 1_555
As2 Rb6 3.467082 1_555
As2 Rb2 3.502843 1_555
As2 Rb2 3.502843 1_455
As2 Rb4 3.646424 1_555
As2 Rb1 3.813822 1_554
As2 Rb0 3.838642 1_455
As2 Rb0 3.838642 1_555
As3 Ga1 2.389163 1_555
As3 Rb7 3.467082 1_555
As3 Rb3 3.502843 1_555
As3 Rb3 3.502843 1_655
As3 Rb5 3.646424 1_555
As3 Rb0 3.813822 1_556
As3 Rb1 3.838642 1_555
As3 Rb1 3.838642 1_655
