# generated using pymatgen
data_SrLi3AgP2
_symmetry_space_group_name_H-M   'P 1'
_cell_length_a   8.23177359
_cell_length_b   8.23177401
_cell_length_c   8.23177295
_cell_angle_alpha   30.47054672
_cell_angle_beta   30.47053829
_cell_angle_gamma   30.47055163
_symmetry_Int_Tables_number   1
_chemical_formula_structural   SrLi3AgP2
_chemical_formula_sum   'Sr1 Li3 Ag1 P2'
_cell_volume   127.14271926
_cell_formula_units_Z   1
loop_
 _symmetry_equiv_pos_site_id
 _symmetry_equiv_pos_as_xyz
  1  'x, y, z'
loop_
 _atom_site_type_symbol
 _atom_site_label
 _atom_site_symmetry_multiplicity
 _atom_site_fract_x
 _atom_site_fract_y
 _atom_site_fract_z
 _atom_site_occupancy
  Sr  Sr0  1  0.99924389  0.99924389  0.99924389  1
  Li  Li0  1  0.14062939  0.14062939  0.14062939  1
  Li  Li1  1  0.56684969  0.56684969  0.56684969  1
  Li  Li2  1  0.86199103  0.86199103  0.86199103  1
  Ag  Ag0  1  0.43132049  0.43132049  0.43132049  1
  P  P0  1  0.75352473  0.75352473  0.75352473  1
  P  P1  1  0.24644077  0.24644077  0.24644077  1
loop_
_geom_bond_atom_site_label_1
_geom_bond_atom_site_label_2
_geom_bond_distance
_geom_bond_site_symmetry_2
Li0 P1 2.489846 1_555
Li0 P0 2.800008 1_445
Li0 P0 2.800008 1_544
Li0 P0 2.800009 1_454
Li0 Sr0 3.326940 1_444
Li1 P1 2.516262 1_556
Li1 P1 2.516262 1_655
Li1 P1 2.516263 1_565
Li1 Sr0 3.416525 1_554
Li1 Sr0 3.416525 1_455
Li1 Sr0 3.416525 1_545
Li2 P0 2.552319 1_555
Li2 P1 2.772338 1_665
Li2 P1 2.772338 1_566
Li2 P1 2.772338 1_656
Li2 Sr0 3.229694 1_555
Ag0 P0 2.511506 1_554
Ag0 P0 2.511506 1_455
Ag0 P0 2.511507 1_545
Ag0 Li0 2.691824 1_556
Ag0 Li0 2.691825 1_655
Ag0 Li0 2.691826 1_565
Ag0 Sr0 3.411430 1_445
Ag0 Sr0 3.411430 1_544
Ag0 Sr0 3.411431 1_454
P0 Sr0 3.238745 1_554
P0 Sr0 3.238746 1_455
P0 Sr0 3.238747 1_545
P1 Sr0 3.216722 1_445
P1 Sr0 3.216723 1_544
P1 Sr0 3.216724 1_454
