# generated using pymatgen
data_Ta3TcGe2C
_symmetry_space_group_name_H-M   'P 1'
_cell_length_a   8.26914659
_cell_length_b   8.26914633
_cell_length_c   8.26914470
_cell_angle_alpha   59.99999475
_cell_angle_beta   59.99999580
_cell_angle_gamma   59.99999389
_symmetry_Int_Tables_number   1
_chemical_formula_structural   Ta3TcGe2C
_chemical_formula_sum   'Ta12 Tc4 Ge8 C4'
_cell_volume   399.82220558
_cell_formula_units_Z   4
loop_
 _symmetry_equiv_pos_site_id
 _symmetry_equiv_pos_as_xyz
  1  'x, y, z'
loop_
 _atom_site_type_symbol
 _atom_site_label
 _atom_site_symmetry_multiplicity
 _atom_site_fract_x
 _atom_site_fract_y
 _atom_site_fract_z
 _atom_site_occupancy
  Ta  Ta0  1  0.56008852  0.93991148  0.56008852  1
  Ta  Ta1  1  0.31008852  0.68991148  0.68991148  1
  Ta  Ta2  1  0.68991148  0.31008852  0.31008852  1
  Ta  Ta3  1  0.31008852  0.68991148  0.31008852  1
  Ta  Ta4  1  0.68991148  0.68991148  0.31008852  1
  Ta  Ta5  1  0.31008852  0.31008852  0.68991148  1
  Ta  Ta6  1  0.56008852  0.56008852  0.93991148  1
  Ta  Ta7  1  0.93991148  0.56008852  0.56008852  1
  Ta  Ta8  1  0.56008852  0.93991148  0.93991148  1
  Ta  Ta9  1  0.93991148  0.93991148  0.56008852  1
  Ta  Ta10  1  0.68991148  0.31008852  0.68991148  1
  Ta  Ta11  1  0.93991148  0.56008852  0.93991148  1
  Tc  Tc0  1  0.12500000  0.12500000  0.12500000  1
  Tc  Tc1  1  0.62500000  0.12500000  0.12500000  1
  Tc  Tc2  1  0.12500000  0.62500000  0.12500000  1
  Tc  Tc3  1  0.12500000  0.12500000  0.62500000  1
  Ge  Ge0  1  0.91175416  0.91175416  0.91175416  1
  Ge  Ge1  1  0.98525947  0.33824584  0.33824584  1
  Ge  Ge2  1  0.33824584  0.98525947  0.33824584  1
  Ge  Ge3  1  0.33824584  0.33824584  0.98525947  1
  Ge  Ge4  1  0.91175416  0.26474053  0.91175416  1
  Ge  Ge5  1  0.91175416  0.91175416  0.26474053  1
  Ge  Ge6  1  0.26474053  0.91175416  0.91175416  1
  Ge  Ge7  1  0.33824584  0.33824584  0.33824584  1
  C  C0  1  0.62500000  0.62500000  0.62500000  1
  C  C1  1  0.12500000  0.62500000  0.62500000  1
  C  C2  1  0.62500000  0.12500000  0.62500000  1
  C  C3  1  0.62500000  0.62500000  0.12500000  1
loop_
_geom_bond_atom_site_label_1
_geom_bond_atom_site_label_2
_geom_bond_distance
_geom_bond_site_symmetry_2
Ta0 Tc1 2.993105 1_565
Ta0 Tc3 2.993106 1_565
Ta1 Tc2 2.993105 1_556
Ta1 Tc3 2.993105 1_565
Ta2 Tc0 2.993105 1_655
Ta2 Tc1 2.993106 1_555
Ta3 Tc0 2.993105 1_565
Ta3 Tc2 2.993106 1_555
Ta4 Tc1 2.993105 1_565
Ta4 Tc2 2.993106 1_655
Ta5 Tc0 2.993105 1_556
Ta5 Tc3 2.993106 1_555
Ta6 Tc1 2.993105 1_556
Ta6 Tc2 2.993106 1_556
Ta7 Tc2 2.993105 1_655
Ta7 Tc3 2.993105 1_655
Ta8 Tc0 2.993105 1_566
Ta8 Tc1 2.993106 1_566
Ta9 Tc0 2.993105 1_665
Ta9 Tc3 2.993106 1_665
Ta10 Tc1 2.993105 1_556
Ta10 Tc3 2.993106 1_655
Ta11 Tc0 2.993105 1_656
Ta11 Tc2 2.993106 1_656
Ge0 Tc2 2.566781 1_656
Ge0 Tc1 2.566781 1_566
Ge0 Tc3 2.566781 1_665
Ge0 Ta9 2.695326 1_555
Ge0 Ta11 2.695327 1_555
Ge0 Ta8 2.695327 1_555
Ge0 Ta4 2.976636 1_556
Ge0 Ta10 2.976636 1_565
Ge0 Ta1 2.976636 1_655
Ge1 Tc0 2.566775 1_655
Ge1 Tc3 2.566795 1_655
Ge1 Tc2 2.566796 1_655
Ge1 Ta2 2.695302 1_555
Ge1 Ta10 2.695316 1_555
Ge1 Ta4 2.695317 1_555
Ge1 Ta11 2.976626 1_554
Ge1 Ta9 2.976627 1_545
Ge1 Ta7 2.976648 1_555
Ge2 Tc0 2.566775 1_565
Ge2 Tc3 2.566795 1_565
Ge2 Tc1 2.566796 1_565
Ge2 Ta3 2.695302 1_555
Ge2 Ta1 2.695316 1_555
Ge2 Ta4 2.695317 1_555
Ge2 Ta8 2.976626 1_554
Ge2 Ta9 2.976627 1_455
Ge2 Ta0 2.976648 1_555
Ge3 Tc0 2.566776 1_556
Ge3 Tc2 2.566795 1_556
Ge3 Tc1 2.566795 1_556
Ge3 Ta5 2.695302 1_555
Ge3 Ta1 2.695316 1_555
Ge3 Ta10 2.695316 1_555
Ge3 Ta8 2.976627 1_545
Ge3 Ta11 2.976627 1_455
Ge3 Ta6 2.976648 1_555
Ge4 Tc0 2.566775 1_656
Ge4 Tc3 2.566795 1_655
Ge4 Tc1 2.566796 1_556
Ge4 Ta11 2.695302 1_555
Ge4 Ta7 2.695316 1_555
Ge4 Ta6 2.695317 1_555
Ge4 Ta2 2.976626 1_556
Ge4 Ta5 2.976627 1_655
Ge4 Ta10 2.976648 1_555
Ge5 Tc0 2.566776 1_665
Ge5 Tc2 2.566795 1_655
Ge5 Tc1 2.566795 1_565
Ge5 Ta9 2.695302 1_555
Ge5 Ta7 2.695316 1_555
Ge5 Ta0 2.695316 1_555
Ge5 Ta2 2.976627 1_565
Ge5 Ta3 2.976627 1_655
Ge5 Ta4 2.976648 1_555
Ge6 Tc0 2.566775 1_566
Ge6 Tc3 2.566795 1_565
Ge6 Tc2 2.566796 1_556
Ge6 Ta8 2.695302 1_555
Ge6 Ta0 2.695316 1_555
Ge6 Ta6 2.695317 1_555
Ge6 Ta3 2.976626 1_556
Ge6 Ta5 2.976627 1_565
Ge6 Ta1 2.976648 1_555
Ge7 Tc2 2.566781 1_555
Ge7 Tc1 2.566781 1_555
Ge7 Tc3 2.566781 1_555
Ge7 Ta5 2.695326 1_555
Ge7 Ta3 2.695327 1_555
Ge7 Ta2 2.695327 1_555
Ge7 Ta6 2.976636 1_554
Ge7 Ta0 2.976636 1_545
Ge7 Ta7 2.976636 1_455
C0 Ta6 2.202249 1_555
C0 Ta4 2.202249 1_555
C0 Ta0 2.202249 1_555
C0 Ta10 2.202249 1_555
C0 Ta7 2.202249 1_555
C0 Ta1 2.202249 1_555
C1 Ta11 2.202249 1_455
C1 Ta3 2.202249 1_555
C1 Ta5 2.202249 1_555
C1 Ta9 2.202249 1_455
C1 Ta1 2.202249 1_555
C1 Ta7 2.202249 1_455
C2 Ta2 2.202249 1_555
C2 Ta8 2.202249 1_545
C2 Ta9 2.202249 1_545
C2 Ta5 2.202249 1_555
C2 Ta10 2.202249 1_555
C2 Ta0 2.202249 1_545
C3 Ta2 2.202249 1_555
C3 Ta8 2.202249 1_554
C3 Ta4 2.202249 1_555
C3 Ta6 2.202249 1_554
C3 Ta11 2.202249 1_554
C3 Ta3 2.202249 1_555
