# generated using pymatgen
data_TaGaO4
_symmetry_space_group_name_H-M   'P 1'
_cell_length_a   5.00373000
_cell_length_b   5.64099300
_cell_length_c   9.37572800
_cell_angle_alpha   90.00000000
_cell_angle_beta   90.00000000
_cell_angle_gamma   90.00000000
_symmetry_Int_Tables_number   1
_chemical_formula_structural   TaGaO4
_chemical_formula_sum   'Ta4 Ga4 O16'
_cell_volume   264.63935388
_cell_formula_units_Z   4
loop_
 _symmetry_equiv_pos_site_id
 _symmetry_equiv_pos_as_xyz
  1  'x, y, z'
loop_
 _atom_site_type_symbol
 _atom_site_label
 _atom_site_symmetry_multiplicity
 _atom_site_fract_x
 _atom_site_fract_y
 _atom_site_fract_z
 _atom_site_occupancy
  Ta  Ta0  1  0.76269600  0.58036600  0.62725900  1
  Ta  Ta1  1  0.76269600  0.08036600  0.87274100  1
  Ta  Ta2  1  0.26269600  0.91963400  0.12725900  1
  Ta  Ta3  1  0.26269600  0.41963400  0.37274100  1
  Ga  Ga0  1  0.24532100  0.43485400  0.87976500  1
  Ga  Ga1  1  0.74532100  0.56514600  0.12023500  1
  Ga  Ga2  1  0.74532100  0.06514600  0.37976500  1
  Ga  Ga3  1  0.24532100  0.93485400  0.62023500  1
  O  O0  1  0.07537400  0.64521300  0.74045400  1
  O  O1  1  0.57570600  0.87621300  0.73723500  1
  O  O2  1  0.07537400  0.14521300  0.75954600  1
  O  O3  1  0.57570600  0.37621300  0.76276500  1
  O  O4  1  0.42332200  0.13749200  0.99164400  1
  O  O5  1  0.91758100  0.35845700  0.98676400  1
  O  O6  1  0.92332200  0.86250800  0.00835600  1
  O  O7  1  0.41758100  0.64154300  0.01323600  1
  O  O8  1  0.07570600  0.62378700  0.23723500  1
  O  O9  1  0.57537400  0.85478700  0.24045400  1
  O  O10  1  0.07570600  0.12378700  0.26276500  1
  O  O11  1  0.57537400  0.35478700  0.25954600  1
  O  O12  1  0.41758100  0.14154300  0.48676400  1
  O  O13  1  0.92332200  0.36250800  0.49164400  1
  O  O14  1  0.42332200  0.63749200  0.50835600  1
  O  O15  1  0.91758100  0.85845700  0.51323600  1
loop_
_geom_bond_atom_site_label_1
_geom_bond_atom_site_label_2
_geom_bond_distance
_geom_bond_site_symmetry_2
Ga0 O7 1.915284 1_556
Ga0 O0 1.958886 1_555
Ga0 O5 1.970143 1_455
Ga0 O3 2.011386 1_555
Ga0 O2 2.159417 1_555
Ga0 O4 2.169633 1_555
Ga1 O5 1.915284 1_554
Ga1 O11 1.958886 1_555
Ga1 O7 1.970143 1_555
Ga1 O8 2.011386 1_655
Ga1 O9 2.159417 1_555
Ga1 O6 2.169633 1_555
Ga2 O15 1.915284 1_545
Ga2 O9 1.958886 1_545
Ga2 O12 1.970143 1_555
Ga2 O10 2.011386 1_655
Ga2 O11 2.159417 1_555
Ga2 O13 2.169633 1_555
Ga3 O12 1.915284 1_565
Ga3 O2 1.958886 1_565
Ga3 O15 1.970143 1_455
Ga3 O1 2.011386 1_555
Ga3 O0 2.159417 1_555
Ga3 O14 2.169633 1_555
O0 Ta0 1.925610 1_455
O1 Ta1 1.953398 1_565
O1 Ta0 2.173418 1_555
O2 Ta1 1.925610 1_455
O3 Ta0 1.953398 1_555
O3 Ta1 2.173418 1_555
O4 Ta2 1.942408 1_546
O4 Ta1 2.056768 1_555
O5 Ta1 2.050450 1_555
O6 Ta1 1.942408 1_564
O6 Ta2 2.056768 1_655
O7 Ta2 2.050450 1_555
O8 Ta3 1.953398 1_555
O8 Ta2 2.173418 1_555
O9 Ta2 1.925610 1_555
O10 Ta2 1.953398 1_545
O10 Ta3 2.173418 1_555
O11 Ta3 1.925610 1_555
O12 Ta3 2.050450 1_555
O13 Ta0 1.942408 1_555
O13 Ta3 2.056768 1_655
O14 Ta3 1.942408 1_555
O14 Ta0 2.056768 1_555
O15 Ta0 2.050450 1_555
