# generated using pymatgen
data_Y4BeB14
_symmetry_space_group_name_H-M   'P 1'
_cell_length_a   7.21389694
_cell_length_b   7.21389694
_cell_length_c   7.41722638
_cell_angle_alpha   90.00000000
_cell_angle_beta   90.00000000
_cell_angle_gamma   90.00000000
_symmetry_Int_Tables_number   1
_chemical_formula_structural   Y4BeB14
_chemical_formula_sum   'Y8 Be2 B28'
_cell_volume   385.99475379
_cell_formula_units_Z   2
loop_
 _symmetry_equiv_pos_site_id
 _symmetry_equiv_pos_as_xyz
  1  'x, y, z'
loop_
 _atom_site_type_symbol
 _atom_site_label
 _atom_site_symmetry_multiplicity
 _atom_site_fract_x
 _atom_site_fract_y
 _atom_site_fract_z
 _atom_site_occupancy
  Y  Y0  1  0.19453476  0.32864567  0.00000000  1
  Y  Y1  1  0.67135433  0.19453476  0.00000000  1
  Y  Y2  1  0.32864567  0.80546524  0.00000000  1
  Y  Y3  1  0.69453476  0.17135433  0.50000000  1
  Y  Y4  1  0.30546524  0.82864567  0.50000000  1
  Y  Y5  1  0.80546524  0.67135433  0.00000000  1
  Y  Y6  1  0.82864567  0.69453476  0.50000000  1
  Y  Y7  1  0.17135433  0.30546524  0.50000000  1
  Be  Be0  1  0.00000000  0.00000000  0.00000000  1
  Be  Be1  1  0.50000000  0.50000000  0.50000000  1
  B  B0  1  0.17364745  0.03872814  0.22813874  1
  B  B1  1  0.96127186  0.17364745  0.22813874  1
  B  B2  1  0.03872814  0.82635255  0.22813874  1
  B  B3  1  0.67364745  0.46127186  0.27186126  1
  B  B4  1  0.32635255  0.53872814  0.27186126  1
  B  B5  1  0.82635255  0.96127186  0.22813874  1
  B  B6  1  0.53872814  0.67364745  0.27186126  1
  B  B7  1  0.46127186  0.32635255  0.27186126  1
  B  B8  1  0.82635255  0.96127186  0.77186126  1
  B  B9  1  0.03872814  0.82635255  0.77186126  1
  B  B10  1  0.96127186  0.17364745  0.77186126  1
  B  B11  1  0.32635255  0.53872814  0.72813874  1
  B  B12  1  0.67364745  0.46127186  0.72813874  1
  B  B13  1  0.17364745  0.03872814  0.77186126  1
  B  B14  1  0.46127186  0.32635255  0.72813874  1
  B  B15  1  0.53872814  0.67364745  0.72813874  1
  B  B16  1  0.08867035  0.58867035  0.25000000  1
  B  B17  1  0.41132965  0.08867035  0.25000000  1
  B  B18  1  0.58867035  0.91132965  0.25000000  1
  B  B19  1  0.91132965  0.41132965  0.25000000  1
  B  B20  1  0.91132965  0.41132965  0.75000000  1
  B  B21  1  0.58867035  0.91132965  0.75000000  1
  B  B22  1  0.41132965  0.08867035  0.75000000  1
  B  B23  1  0.08867035  0.58867035  0.75000000  1
  B  B24  1  0.00000000  0.00000000  0.38770760  1
  B  B25  1  0.50000000  0.50000000  0.11229240  1
  B  B26  1  0.00000000  0.00000000  0.61229240  1
  B  B27  1  0.50000000  0.50000000  0.88770760  1
loop_
_geom_bond_atom_site_label_1
_geom_bond_atom_site_label_2
_geom_bond_distance
_geom_bond_site_symmetry_2
Be0 Y0 2.755026 1_555
Be0 Y1 2.755026 1_455
Be0 Y2 2.755026 1_545
Be0 Y5 2.755026 1_445
Be1 Y3 2.755026 1_555
Be1 Y6 2.755026 1_555
Be1 Y7 2.755026 1_555
Be1 Y4 2.755026 1_555
B0 B24 1.745869 1_555
B0 B17 1.759545 1_555
B0 B2 1.815075 1_545
B0 B1 1.815075 1_455
B0 Be0 2.123827 1_555
B0 Y2 2.635380 1_545
B0 Y0 2.694476 1_555
B0 Y4 2.695761 1_545
B0 Y7 2.787287 1_555
B1 B24 1.745869 1_655
B1 B19 1.759545 1_555
B1 B5 1.815075 1_545
B1 Be0 2.123827 1_655
B1 Y0 2.635380 1_655
B1 Y1 2.694476 1_555
B1 Y7 2.695761 1_655
B1 Y3 2.787287 1_555
B2 B24 1.745869 1_565
B2 B5 1.815075 1_455
B2 Be0 2.123827 1_565
B2 Y5 2.635380 1_455
B2 Y2 2.694476 1_555
B2 Y6 2.695761 1_455
B2 Y4 2.787287 1_555
B3 B7 1.815075 1_555
B3 B6 1.815075 1_555
B3 Be1 2.123827 1_555
B3 Y6 2.635380 1_555
B3 Y3 2.694476 1_555
B3 Y5 2.695761 1_555
B3 Y1 2.787287 1_555
B4 B7 1.815075 1_555
B4 B6 1.815075 1_555
B4 Be1 2.123827 1_555
B4 Y7 2.635380 1_555
B4 Y4 2.694476 1_555
B4 Y0 2.695761 1_555
B4 Y2 2.787287 1_555
B5 Be0 2.123827 1_665
B5 Y1 2.635380 1_565
B5 Y5 2.694476 1_555
B5 Y3 2.695761 1_565
B5 Y6 2.787287 1_555
B6 Be1 2.123827 1_555
B6 Y4 2.635380 1_555
B6 Y6 2.694476 1_555
B6 Y2 2.695761 1_555
B6 Y5 2.787287 1_555
B7 Be1 2.123827 1_555
B7 Y3 2.635380 1_555
B7 Y7 2.694476 1_555
B7 Y1 2.695761 1_555
B7 Y0 2.787287 1_555
B8 B9 1.815075 1_655
B8 Be0 2.123827 1_666
B8 Y1 2.635380 1_566
B8 Y5 2.694476 1_556
B8 Y3 2.695761 1_565
B8 Y6 2.787287 1_555
B9 Be0 2.123827 1_566
B9 Y5 2.635380 1_456
B9 Y2 2.694476 1_556
B9 Y6 2.695761 1_455
B9 Y4 2.787287 1_555
B10 B26 1.745869 1_655
B10 B20 1.759545 1_555
B10 B8 1.815075 1_545
B10 B13 1.815075 1_655
B10 Be0 2.123827 1_656
B10 Y0 2.635380 1_656
B10 Y1 2.694476 1_556
B10 Y7 2.695761 1_655
B10 Y3 2.787287 1_555
B11 B27 1.745869 1_555
B11 B23 1.759545 1_555
B11 B14 1.815075 1_555
B11 B15 1.815075 1_555
B11 Be1 2.123827 1_555
B11 Y7 2.635380 1_555
B11 Y4 2.694476 1_555
B11 Y0 2.695761 1_556
B11 Y2 2.787287 1_556
B12 B27 1.745869 1_555
B12 B20 1.759545 1_555
B12 B14 1.815075 1_555
B12 B15 1.815075 1_555
B12 Be1 2.123827 1_555
B12 Y6 2.635380 1_555
B12 Y3 2.694476 1_555
B12 Y5 2.695761 1_556
B12 Y1 2.787287 1_556
B13 B26 1.745869 1_555
B13 B22 1.759545 1_555
B13 B9 1.815075 1_545
B13 Be0 2.123827 1_556
B13 Y2 2.635380 1_546
B13 Y0 2.694476 1_556
B13 Y4 2.695761 1_545
B13 Y7 2.787287 1_555
B14 B27 1.745869 1_555
B14 B22 1.759545 1_555
B14 Be1 2.123827 1_555
B14 Y3 2.635380 1_555
B14 Y7 2.694476 1_555
B14 Y1 2.695761 1_556
B14 Y0 2.787287 1_556
B15 B27 1.745869 1_555
B15 B21 1.759545 1_555
B15 Be1 2.123827 1_555
B15 Y4 2.635380 1_555
B15 Y6 2.694476 1_555
B15 Y2 2.695761 1_556
B15 Y5 2.787287 1_556
B16 B4 1.759545 1_555
B16 B2 1.759545 1_555
B16 B19 1.809228 1_455
B16 Y6 2.745956 1_455
B16 Y0 2.745956 1_555
B16 Y5 2.822788 1_455
B16 Y7 2.822788 1_555
B16 Y2 2.980143 1_555
B16 Y4 2.980143 1_555
B17 B7 1.759545 1_555
B17 B18 1.809228 1_545
B17 Y4 2.745956 1_545
B17 Y1 2.745956 1_555
B17 Y2 2.822788 1_545
B17 Y3 2.822788 1_555
B17 Y7 2.980143 1_555
B17 Y0 2.980143 1_555
B18 B6 1.759545 1_555
B18 B5 1.759545 1_555
B18 Y2 2.745956 1_555
B18 Y3 2.745956 1_565
B18 Y4 2.822788 1_555
B18 Y1 2.822788 1_565
B18 Y5 2.980143 1_555
B18 Y6 2.980143 1_555
B19 B3 1.759545 1_555
B19 Y7 2.745956 1_655
B19 Y5 2.745956 1_555
B19 Y0 2.822788 1_655
B19 Y6 2.822788 1_555
B19 Y1 2.980143 1_555
B19 Y3 2.980143 1_555
B20 B23 1.809228 1_655
B20 Y7 2.745956 1_655
B20 Y5 2.745956 1_556
B20 Y0 2.822788 1_656
B20 Y6 2.822788 1_555
B20 Y1 2.980143 1_556
B20 Y3 2.980143 1_555
B21 B8 1.759545 1_555
B21 B22 1.809228 1_565
B21 Y2 2.745956 1_556
B21 Y3 2.745956 1_565
B21 Y4 2.822788 1_555
B21 Y1 2.822788 1_566
B21 Y5 2.980143 1_556
B21 Y6 2.980143 1_555
B22 Y4 2.745956 1_545
B22 Y1 2.745956 1_556
B22 Y2 2.822788 1_546
B22 Y3 2.822788 1_555
B22 Y7 2.980143 1_555
B22 Y0 2.980143 1_556
B23 B9 1.759545 1_555
B23 Y6 2.745956 1_455
B23 Y0 2.745956 1_556
B23 Y5 2.822788 1_456
B23 Y7 2.822788 1_555
B23 Y4 2.980143 1_555
B23 Y2 2.980143 1_556
B24 B26 1.665796 1_555
B24 B5 1.745869 1_445
B24 Y4 2.660371 1_545
B24 Y7 2.660371 1_555
B24 Y6 2.660371 1_445
B24 Y3 2.660371 1_455
B25 B27 1.665796 1_554
B25 B4 1.745869 1_555
B25 B6 1.745869 1_555
B25 B7 1.745869 1_555
B25 B3 1.745869 1_555
B25 Y2 2.660371 1_555
B25 Y5 2.660371 1_555
B25 Y1 2.660371 1_555
B25 Y0 2.660371 1_555
B26 B9 1.745869 1_545
B26 B8 1.745869 1_445
B26 Y4 2.660371 1_545
B26 Y7 2.660371 1_555
B26 Y6 2.660371 1_445
B26 Y3 2.660371 1_455
B27 Y2 2.660371 1_556
B27 Y5 2.660371 1_556
B27 Y1 2.660371 1_556
B27 Y0 2.660371 1_556
