# generated using pymatgen
data_Rb16HfSnSb8
_symmetry_space_group_name_H-M   'P 1'
_cell_length_a   12.00928238
_cell_length_b   12.00928563
_cell_length_c   12.00928568
_cell_angle_alpha   59.99990003
_cell_angle_beta   59.99989795
_cell_angle_gamma   59.99989832
_symmetry_Int_Tables_number   1
_chemical_formula_structural   Rb16HfSnSb8
_chemical_formula_sum   'Rb16 Hf1 Sn1 Sb8'
_cell_volume   1224.71605862
_cell_formula_units_Z   1
loop_
 _symmetry_equiv_pos_site_id
 _symmetry_equiv_pos_as_xyz
  1  'x, y, z'
loop_
 _atom_site_type_symbol
 _atom_site_label
 _atom_site_symmetry_multiplicity
 _atom_site_fract_x
 _atom_site_fract_y
 _atom_site_fract_z
 _atom_site_occupancy
  Rb  Rb0  1  0.62270208  0.13187621  0.62270813  1
  Rb  Rb1  1  0.62270208  0.62270813  0.13187621  1
  Rb  Rb2  1  0.13187074  0.62270808  0.62270808  1
  Rb  Rb3  1  0.62270218  0.62270799  0.62270799  1
  Rb  Rb4  1  0.02180990  0.02181463  0.47818460  1
  Rb  Rb5  1  0.77765803  0.22233671  0.22233671  1
  Rb  Rb6  1  0.22233045  0.77766333  0.77766333  1
  Rb  Rb7  1  0.77765797  0.77766338  0.22233629  1
  Rb  Rb8  1  0.77765797  0.22233629  0.77766338  1
  Rb  Rb9  1  0.22233093  0.77766364  0.22233744  1
  Rb  Rb10  1  0.47817867  0.02181555  0.47818510  1
  Rb  Rb11  1  0.47817804  0.02181542  0.02181542  1
  Rb  Rb12  1  0.02181038  0.47818490  0.47818490  1
  Rb  Rb13  1  0.02180990  0.47818460  0.02181463  1
  Rb  Rb14  1  0.22233093  0.22233744  0.77766364  1
  Rb  Rb15  1  0.47817867  0.47818510  0.02181555  1
  Hf  Hf0  1  0.74999037  0.74999943  0.74999943  1
  Sn  Sn0  1  0.49999541  0.50000012  0.50000012  1
  Sb  Sb0  1  0.39982580  0.80066277  0.39977893  1
  Sb  Sb1  1  0.84749616  0.84750152  0.45749520  1
  Sb  Sb2  1  0.45749027  0.84750086  0.84750086  1
  Sb  Sb3  1  0.84749732  0.84750059  0.84750059  1
  Sb  Sb4  1  0.80065196  0.39980553  0.39980553  1
  Sb  Sb5  1  0.39982086  0.39975266  0.39975266  1
  Sb  Sb6  1  0.39982580  0.39977893  0.80066277  1
  Sb  Sb7  1  0.84749616  0.45749520  0.84750152  1
loop_
_geom_bond_atom_site_label_1
_geom_bond_atom_site_label_2
_geom_bond_distance
_geom_bond_site_symmetry_2
Rb0 Sn0 3.609649 1_555
Rb0 Sb5 3.824277 1_555
Rb0 Sb6 3.824480 1_555
Rb0 Sb4 3.824689 1_555
Rb0 Sb2 3.884296 1_545
Rb0 Sb1 3.884298 1_545
Rb0 Sb3 3.884299 1_545
Rb0 Rb11 3.920746 1_556
Rb0 Rb4 3.920750 1_655
Rb0 Rb10 3.920752 1_555
Rb0 Rb14 3.951235 1_555
Rb0 Rb5 3.951240 1_555
Rb0 Rb8 3.951246 1_555
Rb1 Sn0 3.609649 1_555
Rb1 Sb5 3.824277 1_555
Rb1 Sb0 3.824480 1_555
Rb1 Sb4 3.824689 1_555
Rb1 Sb2 3.884296 1_554
Rb1 Sb7 3.884298 1_554
Rb1 Sb3 3.884299 1_554
Rb1 Rb11 3.920746 1_565
Rb1 Rb13 3.920750 1_655
Rb1 Rb15 3.920752 1_555
Rb1 Rb9 3.951235 1_555
Rb1 Rb5 3.951240 1_555
Rb1 Rb7 3.951246 1_555
Rb2 Sn0 3.609656 1_555
Rb2 Sb5 3.824963 1_555
Rb2 Sb0 3.824964 1_555
Rb2 Sb6 3.824964 1_555
Rb2 Sb3 3.884275 1_455
Rb2 Sb7 3.884296 1_455
Rb2 Sb1 3.884296 1_455
Rb2 Rb4 3.920739 1_565
Rb2 Rb9 3.951232 1_555
Rb2 Rb6 3.951236 1_555
Rb3 Sn0 3.609643 1_555
Rb3 Sb6 3.823999 1_555
Rb3 Sb0 3.824000 1_555
Rb3 Sb4 3.824004 1_555
Rb3 Sb2 3.884284 1_555
Rb3 Sb1 3.884299 1_555
Rb3 Sb7 3.884299 1_555
Rb3 Rb6 3.951240 1_555
Rb3 Rb7 3.951242 1_555
Rb3 Rb8 3.951242 1_555
Rb4 Sb3 3.774738 1_445
Rb4 Sb1 3.774748 1_445
Rb4 Sb4 3.836263 1_455
Rb4 Sb0 3.836461 1_545
Rb5 Sb1 3.850050 1_545
Rb5 Sb7 3.850050 1_554
Rb5 Sb5 3.856480 1_555
Rb5 Sb4 3.857501 1_555
Rb6 Sb3 3.850035 1_455
Rb6 Sb2 3.850058 1_555
Rb6 Sb6 3.856989 1_555
Rb6 Sb0 3.856989 1_555
Rb7 Sb3 3.850059 1_554
Rb7 Sb1 3.850059 1_555
Rb7 Sb0 3.856446 1_555
Rb7 Sb4 3.856730 1_555
Rb8 Sb3 3.850059 1_545
Rb8 Sb7 3.850059 1_555
Rb8 Sb6 3.856446 1_555
Rb8 Sb4 3.856730 1_555
Rb9 Sb1 3.850043 1_455
Rb9 Sb2 3.850064 1_554
Rb9 Sb5 3.857245 1_555
Rb9 Sb0 3.857527 1_555
Rb10 Sb2 3.774741 1_545
Rb10 Sb1 3.774753 1_545
Rb10 Sb0 3.835579 1_545
Rb10 Sb5 3.835775 1_555
Rb10 Rb3 3.920748 1_545
Rb11 Sb2 3.774760 1_544
Rb11 Sb3 3.774771 1_544
Rb11 Sb6 3.836014 1_554
Rb11 Sb0 3.836014 1_545
Rb12 Sb1 3.774746 1_455
Rb12 Sb7 3.774746 1_455
Rb12 Sb4 3.835639 1_455
Rb12 Sb5 3.836401 1_555
Rb12 Rb2 3.920748 1_555
Rb12 Rb3 3.920753 1_455
Rb13 Sb3 3.774738 1_454
Rb13 Sb7 3.774748 1_454
Rb13 Sb4 3.836263 1_455
Rb13 Sb6 3.836461 1_554
Rb13 Rb2 3.920739 1_554
Rb14 Sb7 3.850043 1_455
Rb14 Sb2 3.850064 1_545
Rb14 Sb5 3.857245 1_555
Rb14 Sb6 3.857527 1_555
Rb14 Rb2 3.951232 1_555
Rb15 Sb2 3.774741 1_554
Rb15 Sb7 3.774753 1_554
Rb15 Sb6 3.835579 1_554
Rb15 Sb5 3.835775 1_555
Rb15 Rb3 3.920748 1_554
Hf0 Sb2 2.868117 1_555
Hf0 Sb7 2.868158 1_555
Hf0 Sb1 2.868158 1_555
Hf0 Sb3 2.868214 1_555
Hf0 Rb3 3.744455 1_555
Hf0 Rb0 3.744504 1_565
Hf0 Rb1 3.744504 1_556
Hf0 Rb2 3.744538 1_655
Sb0 Sn0 2.948156 1_555
Sb4 Sn0 2.948095 1_555
Sb5 Sn0 2.948229 1_555
Sb6 Sn0 2.948156 1_555
