# generated using pymatgen
data_K3Fe(IO3)6
_symmetry_space_group_name_H-M   'P 1'
_cell_length_a   6.83266230
_cell_length_b   7.00872905
_cell_length_c   10.48144336
_cell_angle_alpha   98.06032692
_cell_angle_beta   108.85845895
_cell_angle_gamma   102.42873801
_symmetry_Int_Tables_number   1
_chemical_formula_structural   K3Fe(IO3)6
_chemical_formula_sum   'K3 Fe1 I6 O18'
_cell_volume   451.75288512
_cell_formula_units_Z   1
loop_
 _symmetry_equiv_pos_site_id
 _symmetry_equiv_pos_as_xyz
  1  'x, y, z'
loop_
 _atom_site_type_symbol
 _atom_site_label
 _atom_site_symmetry_multiplicity
 _atom_site_fract_x
 _atom_site_fract_y
 _atom_site_fract_z
 _atom_site_occupancy
  K  K0  1  0.37728048  0.54329455  0.29466942  1
  K  K1  1  0.62271952  0.45670545  0.70533058  1
  K  K2  1  0.00000000  0.50000000  0.50000000  1
  Fe  Fe0  1  0.00000000  0.00000000  0.00000000  1
  I  I0  1  0.56035105  0.03758989  0.19265452  1
  I  I1  1  0.43964895  0.96241011  0.80734548  1
  I  I2  1  0.78661952  0.53754015  0.09902945  1
  I  I3  1  0.21338048  0.46245985  0.90097055  1
  I  I4  1  0.13951173  0.05166660  0.37551359  1
  I  I5  1  0.86048827  0.94833340  0.62448641  1
  O  O0  1  0.58536141  0.65573183  0.12148773  1
  O  O1  1  0.41463859  0.34426817  0.87851227  1
  O  O2  1  0.00164926  0.35308296  0.73378625  1
  O  O3  1  0.99835074  0.64691704  0.26621375  1
  O  O4  1  0.61570966  0.30831152  0.23564807  1
  O  O5  1  0.38429034  0.69168848  0.76435193  1
  O  O6  1  0.04876380  0.09262853  0.19797216  1
  O  O7  1  0.95123620  0.90737147  0.80202784  1
  O  O8  1  0.30071832  0.97205706  0.04174718  1
  O  O9  1  0.69928168  0.02794294  0.95825282  1
  O  O10  1  0.29487034  0.30485705  0.46177623  1
  O  O11  1  0.70512966  0.69514295  0.53822377  1
  O  O12  1  0.88602309  0.07460266  0.39497137  1
  O  O13  1  0.11397691  0.92539734  0.60502863  1
  O  O14  1  0.55522278  0.03156135  0.68169692  1
  O  O15  1  0.44477722  0.96843865  0.31830308  1
  O  O16  1  0.10724663  0.30613467  0.00458023  1
  O  O17  1  0.89275337  0.69386533  0.99541977  1
loop_
_geom_bond_atom_site_label_1
_geom_bond_atom_site_label_2
_geom_bond_distance
_geom_bond_site_symmetry_2
K0 O11 2.680025 1_555
K0 O10 2.689045 1_555
K0 O4 2.696254 1_555
K0 O0 2.743087 1_555
K0 O3 2.773227 1_455
K0 O15 2.877571 1_555
K0 O16 3.007990 1_555
K0 O6 3.259152 1_555
K1 O10 2.680025 1_555
K1 O11 2.689045 1_555
K1 O5 2.696254 1_555
K1 O1 2.743087 1_555
K1 O2 2.773227 1_655
K1 O14 2.877571 1_555
K1 O17 3.007990 1_555
K1 O7 3.259152 1_555
K2 O11 2.764894 1_455
K2 O10 2.764894 1_555
K2 O2 2.785621 1_555
K2 O3 2.785621 1_455
K2 O13 2.869418 1_555
K2 O12 2.869418 1_455
K2 O5 3.018453 1_555
K2 O4 3.018453 1_455
Fe0 O6 1.980004 1_555
Fe0 O7 1.980004 1_444
Fe0 O8 2.016846 1_545
Fe0 O9 2.016846 1_454
Fe0 O16 2.101077 1_555
Fe0 O17 2.101077 1_444
I0 O15 1.810934 1_545
I0 O4 1.813125 1_555
I0 O8 1.868536 1_545
I1 O14 1.810934 1_565
I1 O5 1.813125 1_555
I1 O9 1.868536 1_565
I2 O3 1.805081 1_555
I2 O0 1.810388 1_555
I2 O17 1.845652 1_554
I2 O4 2.629439 1_555
I3 O2 1.805081 1_555
I3 O1 1.810388 1_555
I3 O16 1.845652 1_556
I3 O5 2.629439 1_555
I4 O10 1.792226 1_555
I4 O12 1.845609 1_455
I4 O6 1.846706 1_555
I4 O15 2.506888 1_545
I5 O11 1.792226 1_555
I5 O13 1.845609 1_655
I5 O7 1.846706 1_555
I5 O14 2.506888 1_565
