# generated using pymatgen
data_Ag3Ru4PbO14
_symmetry_space_group_name_H-M   'P 1'
_cell_length_a   7.18184921
_cell_length_b   7.18184759
_cell_length_c   7.18184925
_cell_angle_alpha   59.64771873
_cell_angle_beta   59.64772264
_cell_angle_gamma   59.64771468
_symmetry_Int_Tables_number   1
_chemical_formula_structural   Ag3Ru4PbO14
_chemical_formula_sum   'Ag3 Ru4 Pb1 O14'
_cell_volume   259.83844631
_cell_formula_units_Z   1
loop_
 _symmetry_equiv_pos_site_id
 _symmetry_equiv_pos_as_xyz
  1  'x, y, z'
loop_
 _atom_site_type_symbol
 _atom_site_label
 _atom_site_symmetry_multiplicity
 _atom_site_fract_x
 _atom_site_fract_y
 _atom_site_fract_z
 _atom_site_occupancy
  Ag  Ag0  1  0.62500000  0.12500000  0.62500000  1
  Ag  Ag1  1  0.62500000  0.62500000  0.12500000  1
  Ag  Ag2  1  0.12500000  0.62500000  0.62500000  1
  Ru  Ru0  1  0.62500000  0.12500000  0.12500000  1
  Ru  Ru1  1  0.12500000  0.62500000  0.12500000  1
  Ru  Ru2  1  0.12500000  0.12500000  0.62500000  1
  Ru  Ru3  1  0.12500000  0.12500000  0.12500000  1
  Pb  Pb0  1  0.62500000  0.62500000  0.62500000  1
  O  O0  1  0.18797624  0.18797624  0.81009693  1
  O  O1  1  0.18797624  0.81009693  0.18797624  1
  O  O2  1  0.43990307  0.06202376  0.06202376  1
  O  O3  1  0.19975133  0.79747142  0.79747142  1
  O  O4  1  0.05024867  0.45252858  0.45252858  1
  O  O5  1  0.79747142  0.79747142  0.19975133  1
  O  O6  1  0.45252858  0.45252858  0.05024867  1
  O  O7  1  0.49020925  0.49020925  0.49020925  1
  O  O8  1  0.06202376  0.06202376  0.43990307  1
  O  O9  1  0.45252858  0.05024867  0.45252858  1
  O  O10  1  0.06202376  0.43990307  0.06202376  1
  O  O11  1  0.75979075  0.75979075  0.75979075  1
  O  O12  1  0.79747142  0.19975133  0.79747142  1
  O  O13  1  0.81009693  0.18797624  0.18797624  1
loop_
_geom_bond_atom_site_label_1
_geom_bond_atom_site_label_2
_geom_bond_distance
_geom_bond_site_symmetry_2
Ag0 O7 2.137445 1_555
Ag0 O11 2.137445 1_545
Ag0 O12 2.500297 1_555
Ag0 O9 2.500297 1_555
Ag0 O8 2.603665 1_655
Ag0 O0 2.603665 1_555
Ag0 O2 2.603665 1_556
Ag0 O13 2.603665 1_555
Ag1 O7 2.137446 1_555
Ag1 O11 2.137446 1_554
Ag1 O6 2.500296 1_555
Ag1 O5 2.500296 1_555
Ag1 O2 2.603664 1_565
Ag1 O13 2.603664 1_555
Ag1 O10 2.603665 1_655
Ag1 O1 2.603665 1_555
Ag2 O7 2.137446 1_555
Ag2 O11 2.137446 1_455
Ag2 O3 2.500296 1_555
Ag2 O4 2.500296 1_555
Ag2 O8 2.603664 1_565
Ag2 O0 2.603664 1_555
Ag2 O10 2.603665 1_556
Ag2 O1 2.603665 1_555
O0 Ru2 1.896910 1_555
O0 Ru3 1.913928 1_556
O1 Ru1 1.896910 1_555
O1 Ru3 1.913927 1_565
O2 Ru0 1.896910 1_555
O2 Ru3 1.913928 1_555
O3 Ru2 1.951103 1_565
O3 Ru1 1.951103 1_556
O3 Pb0 2.510012 1_555
O4 Ru2 1.951103 1_555
O4 Ru1 1.951103 1_555
O4 Pb0 2.510012 1_455
O5 Ru0 1.951103 1_565
O5 Ru1 1.951103 1_655
O5 Pb0 2.510013 1_555
O6 Ru0 1.951103 1_555
O6 Ru1 1.951103 1_555
O6 Pb0 2.510013 1_554
O7 Pb0 2.377514 1_555
O8 Ru2 1.896910 1_555
O8 Ru3 1.913928 1_555
O9 Ru2 1.951103 1_555
O9 Ru0 1.951103 1_555
O9 Pb0 2.510012 1_545
O10 Ru1 1.896910 1_555
O10 Ru3 1.913927 1_555
O11 Pb0 2.377514 1_555
O12 Ru2 1.951103 1_655
O12 Ru0 1.951103 1_556
O12 Pb0 2.510012 1_555
O13 Ru0 1.896910 1_555
O13 Ru3 1.913928 1_655
