# generated using pymatgen
data_TiAlRh3Se8
_symmetry_space_group_name_H-M   'P 1'
_cell_length_a   7.19021124
_cell_length_b   7.19021044
_cell_length_c   7.19021123
_cell_angle_alpha   62.14128855
_cell_angle_beta   62.14127817
_cell_angle_gamma   62.14128393
_symmetry_Int_Tables_number   1
_chemical_formula_structural   TiAlRh3Se8
_chemical_formula_sum   'Ti1 Al1 Rh3 Se8'
_cell_volume   275.42754868
_cell_formula_units_Z   1
loop_
 _symmetry_equiv_pos_site_id
 _symmetry_equiv_pos_as_xyz
  1  'x, y, z'
loop_
 _atom_site_type_symbol
 _atom_site_label
 _atom_site_symmetry_multiplicity
 _atom_site_fract_x
 _atom_site_fract_y
 _atom_site_fract_z
 _atom_site_occupancy
  Ti  Ti0  1  0.59512505  0.59512505  0.59512505  1
  Al  Al0  1  0.01033903  0.01033903  0.01033903  1
  Rh  Rh0  1  0.62468048  0.62468048  0.14080085  1
  Rh  Rh1  1  0.62468048  0.14080085  0.62468048  1
  Rh  Rh2  1  0.14080085  0.62468048  0.62468048  1
  Se  Se0  1  0.36665650  0.36665650  0.87581386  1
  Se  Se1  1  0.36665650  0.87581386  0.36665650  1
  Se  Se2  1  0.87581386  0.36665650  0.36665650  1
  Se  Se3  1  0.38772808  0.38772808  0.38772808  1
  Se  Se4  1  0.86259119  0.86259119  0.41138329  1
  Se  Se5  1  0.86259119  0.41138329  0.86259119  1
  Se  Se6  1  0.41138329  0.86259119  0.86259119  1
  Se  Se7  1  0.87095252  0.87095252  0.87095252  1
loop_
_geom_bond_atom_site_label_1
_geom_bond_atom_site_label_2
_geom_bond_distance
_geom_bond_site_symmetry_2
Al0 Se7 2.414443 1_444
Al0 Se6 2.429206 1_544
Al0 Se5 2.429206 1_454
Al0 Se4 2.429206 1_445
Rh0 Se3 2.452846 1_555
Rh0 Se1 2.476617 1_555
Rh0 Se2 2.476618 1_555
Rh0 Se5 2.548946 1_554
Rh0 Se6 2.548946 1_554
Rh0 Se7 2.558166 1_554
Rh1 Se3 2.452846 1_555
Rh1 Se0 2.476617 1_555
Rh1 Se2 2.476617 1_555
Rh1 Se4 2.548946 1_545
Rh1 Se6 2.548946 1_545
Rh1 Se7 2.558166 1_545
Rh2 Se3 2.452846 1_555
Rh2 Se1 2.476617 1_555
Rh2 Se0 2.476618 1_555
Rh2 Se5 2.548946 1_455
Rh2 Se4 2.548946 1_455
Rh2 Se7 2.558166 1_455
Se0 Ti0 2.407358 1_555
Se1 Ti0 2.407358 1_555
Se2 Ti0 2.407358 1_555
Se4 Ti0 2.801747 1_555
Se5 Ti0 2.801747 1_555
Se6 Ti0 2.801747 1_555
