# generated using pymatgen
data_LaSiIr
_symmetry_space_group_name_H-M   'P 1'
_cell_length_a   6.41213345
_cell_length_b   6.41213345
_cell_length_c   6.41213345
_cell_angle_alpha   90.00000000
_cell_angle_beta   90.00000000
_cell_angle_gamma   90.00000000
_symmetry_Int_Tables_number   1
_chemical_formula_structural   LaSiIr
_chemical_formula_sum   'La4 Si4 Ir4'
_cell_volume   263.63778676
_cell_formula_units_Z   4
loop_
 _symmetry_equiv_pos_site_id
 _symmetry_equiv_pos_as_xyz
  1  'x, y, z'
loop_
 _atom_site_type_symbol
 _atom_site_label
 _atom_site_symmetry_multiplicity
 _atom_site_fract_x
 _atom_site_fract_y
 _atom_site_fract_z
 _atom_site_occupancy
  La  La0  1  0.13783946  0.86216054  0.36216054  1
  La  La1  1  0.86216054  0.36216054  0.13783946  1
  La  La2  1  0.63783946  0.63783946  0.63783946  1
  La  La3  1  0.36216054  0.13783946  0.86216054  1
  Si  Si0  1  0.65762850  0.84237150  0.15762850  1
  Si  Si1  1  0.15762850  0.65762850  0.84237150  1
  Si  Si2  1  0.84237150  0.15762850  0.65762850  1
  Si  Si3  1  0.34237150  0.34237150  0.34237150  1
  Ir  Ir0  1  0.07314837  0.42685163  0.57314837  1
  Ir  Ir1  1  0.57314837  0.07314837  0.42685163  1
  Ir  Ir2  1  0.92685163  0.92685163  0.92685163  1
  Ir  Ir3  1  0.42685163  0.57314837  0.07314837  1
loop_
_geom_bond_atom_site_label_1
_geom_bond_atom_site_label_2
_geom_bond_distance
_geom_bond_site_symmetry_2
La0 Si2 3.281509 1_465
La0 Si1 3.349243 1_555
La0 Si3 3.349243 1_565
La0 Si0 3.349243 1_455
La1 Si1 3.281509 1_654
La1 Si0 3.349243 1_555
La1 Si3 3.349243 1_655
La1 Si2 3.349243 1_554
La2 Si3 3.281509 1_555
La2 Si0 3.349243 1_555
La2 Si1 3.349243 1_555
La2 Si2 3.349243 1_555
La3 Si0 3.281509 1_546
La3 Si2 3.349243 1_555
La3 Si1 3.349243 1_545
La3 Si3 3.349243 1_556
Ir0 Si1 2.337361 1_555
Ir0 Si3 2.337361 1_555
Ir0 Si2 2.337361 1_455
Ir0 La0 3.129454 1_555
Ir0 La2 3.129454 1_455
Ir0 La1 3.129454 1_455
Ir0 La3 3.209810 1_555
Ir1 Si2 2.337361 1_555
Ir1 Si3 2.337361 1_555
Ir1 Si0 2.337361 1_545
Ir1 La0 3.129454 1_545
Ir1 La3 3.129454 1_555
Ir1 La2 3.129454 1_545
Ir1 La1 3.209810 1_555
Ir2 Si0 2.337361 1_556
Ir2 Si1 2.337361 1_655
Ir2 Si2 2.337361 1_565
Ir2 La3 3.129454 1_665
Ir2 La1 3.129454 1_566
Ir2 La0 3.129454 1_656
Ir2 La2 3.209810 1_555
Ir3 Si0 2.337361 1_555
Ir3 Si3 2.337361 1_555
Ir3 Si1 2.337361 1_554
Ir3 La1 3.129454 1_555
Ir3 La2 3.129454 1_554
Ir3 La3 3.129454 1_554
Ir3 La0 3.209810 1_555
