# generated using pymatgen
data_Ba4W(IN2)2
_symmetry_space_group_name_H-M   'P 1'
_cell_length_a   6.35627155
_cell_length_b   8.58699082
_cell_length_c   11.78200962
_cell_angle_alpha   83.01710970
_cell_angle_beta   90.00000000
_cell_angle_gamma   90.00000000
_symmetry_Int_Tables_number   1
_chemical_formula_structural   Ba4W(IN2)2
_chemical_formula_sum   'Ba8 W2 I4 N8'
_cell_volume   638.30673749
_cell_formula_units_Z   2
loop_
 _symmetry_equiv_pos_site_id
 _symmetry_equiv_pos_as_xyz
  1  'x, y, z'
loop_
 _atom_site_type_symbol
 _atom_site_label
 _atom_site_symmetry_multiplicity
 _atom_site_fract_x
 _atom_site_fract_y
 _atom_site_fract_z
 _atom_site_occupancy
  Ba  Ba0  1  0.75000000  0.26476046  0.31049126  1
  Ba  Ba1  1  0.75000000  0.00536049  0.62255586  1
  Ba  Ba2  1  0.75000000  0.44448025  0.59569825  1
  Ba  Ba3  1  0.75000000  0.76301285  0.12802651  1
  Ba  Ba4  1  0.25000000  0.99463951  0.37744414  1
  Ba  Ba5  1  0.25000000  0.55551975  0.40430175  1
  Ba  Ba6  1  0.25000000  0.23698715  0.87197349  1
  Ba  Ba7  1  0.25000000  0.73523954  0.68950874  1
  W  W0  1  0.75000000  0.77132463  0.41092772  1
  W  W1  1  0.25000000  0.22867537  0.58907228  1
  I  I0  1  0.25000000  0.36349075  0.15569775  1
  I  I1  1  0.75000000  0.63650925  0.84430225  1
  I  I2  1  0.25000000  0.87639535  0.08580205  1
  I  I3  1  0.75000000  0.12360465  0.91419795  1
  N  N0  1  0.25000000  0.05649125  0.70063535  1
  N  N1  1  0.00737255  0.22926770  0.49618710  1
  N  N2  1  0.50737255  0.77073230  0.50381290  1
  N  N3  1  0.99262745  0.77073230  0.50381290  1
  N  N4  1  0.75000000  0.59057551  0.33546177  1
  N  N5  1  0.75000000  0.94350875  0.29936465  1
  N  N6  1  0.49262745  0.22926770  0.49618710  1
  N  N7  1  0.25000000  0.40942449  0.66453823  1
loop_
_geom_bond_atom_site_label_1
_geom_bond_atom_site_label_2
_geom_bond_distance
_geom_bond_site_symmetry_2
Ba0 N1 2.719154 1_655
Ba0 N6 2.719154 1_555
Ba0 N5 2.777573 1_545
Ba0 N4 2.848546 1_555
Ba0 I0 3.710731 1_555
Ba0 I0 3.710731 1_655
Ba1 N1 2.809576 1_655
Ba1 N6 2.809576 1_555
Ba1 N3 3.013347 1_545
Ba1 N2 3.013347 1_545
Ba1 N0 3.352284 1_655
Ba1 N0 3.352284 1_555
Ba1 I3 3.699495 1_555
Ba1 I1 3.853008 1_545
Ba2 N1 2.827175 1_655
Ba2 N6 2.827175 1_555
Ba2 N4 3.168530 1_555
Ba2 N3 3.265196 1_555
Ba2 N2 3.265196 1_555
Ba2 N7 3.284758 1_655
Ba2 N7 3.284758 1_555
Ba2 I1 3.531680 1_555
Ba3 N5 2.690387 1_555
Ba3 N4 2.699216 1_555
Ba3 I2 3.343381 1_555
Ba3 I2 3.343381 1_655
Ba3 I1 3.638343 1_554
Ba3 I3 3.746727 1_564
Ba4 N2 2.809576 1_555
Ba4 N3 2.809576 1_455
Ba4 N6 3.013347 1_565
Ba4 N1 3.013347 1_565
Ba4 N5 3.352284 1_555
Ba4 N5 3.352284 1_455
Ba4 I2 3.699495 1_555
Ba4 I0 3.853008 1_565
Ba5 N2 2.827175 1_555
Ba5 N3 2.827175 1_455
Ba5 N7 3.168530 1_555
Ba5 N6 3.265196 1_555
Ba5 N1 3.265196 1_555
Ba5 N4 3.284758 1_455
Ba5 N4 3.284758 1_555
Ba5 I0 3.531680 1_555
Ba6 N0 2.690387 1_555
Ba6 N7 2.699216 1_555
Ba6 I3 3.343381 1_455
Ba6 I3 3.343381 1_555
Ba6 I0 3.638343 1_556
Ba6 I2 3.746727 1_546
Ba7 N2 2.719154 1_555
Ba7 N3 2.719154 1_455
Ba7 N0 2.777573 1_565
Ba7 N7 2.848546 1_555
Ba7 I1 3.710731 1_555
Ba7 I1 3.710731 1_455
N0 W1 1.855072 1_555
N1 W1 1.890695 1_555
N2 W0 1.890695 1_555
N3 W0 1.890695 1_555
N4 W0 1.880188 1_555
N5 W0 1.855072 1_555
N6 W1 1.890695 1_555
N7 W1 1.880188 1_555
