# generated using pymatgen
data_Y5ZnGaBi
_symmetry_space_group_name_H-M   'P 1'
_cell_length_a   8.59993458
_cell_length_b   8.59993470
_cell_length_c   8.76222452
_cell_angle_alpha   123.82912050
_cell_angle_beta   123.82912237
_cell_angle_gamma   82.27333226
_symmetry_Int_Tables_number   1
_chemical_formula_structural   Y5ZnGaBi
_chemical_formula_sum   'Y10 Zn2 Ga2 Bi2'
_cell_volume   432.49084212
_cell_formula_units_Z   2
loop_
 _symmetry_equiv_pos_site_id
 _symmetry_equiv_pos_as_xyz
  1  'x, y, z'
loop_
 _atom_site_type_symbol
 _atom_site_label
 _atom_site_symmetry_multiplicity
 _atom_site_fract_x
 _atom_site_fract_y
 _atom_site_fract_z
 _atom_site_occupancy
  Y  Y0  1  0.00000000  0.00000000  0.00000000  1
  Y  Y1  1  0.50000000  0.50000000  0.00000000  1
  Y  Y2  1  0.79492957  0.29492957  0.80072655  1
  Y  Y3  1  0.20507043  0.70507043  0.19927345  1
  Y  Y4  1  0.49420302  0.99420302  0.19927345  1
  Y  Y5  1  0.29259365  0.48204203  0.50000000  1
  Y  Y6  1  0.01795797  0.20740635  0.50000000  1
  Y  Y7  1  0.50579698  0.00579698  0.80072655  1
  Y  Y8  1  0.70740635  0.51795797  0.50000000  1
  Y  Y9  1  0.98204203  0.79259365  0.50000000  1
  Zn  Zn0  1  0.63670041  0.86329959  0.50000000  1
  Zn  Zn1  1  0.36329959  0.13670041  0.50000000  1
  Ga  Ga0  1  0.15322554  0.65322554  0.80645207  1
  Ga  Ga1  1  0.84677446  0.34677446  0.19354793  1
  Bi  Bi0  1  0.25000000  0.25000000  0.00000000  1
  Bi  Bi1  1  0.75000000  0.75000000  0.00000000  1
loop_
_geom_bond_atom_site_label_1
_geom_bond_atom_site_label_2
_geom_bond_distance
_geom_bond_site_symmetry_2
Y0 Zn1 3.217116 1_555
Y0 Zn0 3.217116 1_444
Y0 Y7 3.590522 1_454
Y0 Y4 3.590522 1_545
Y0 Y2 3.590522 1_454
Y0 Y3 3.590522 1_545
Y0 Y5 3.608223 1_555
Y0 Y8 3.608223 1_444
Y0 Y6 3.608223 1_555
Y0 Y9 3.608223 1_444
Y1 Zn0 3.217117 1_555
Y1 Zn1 3.217117 1_554
Y1 Y4 3.590522 1_555
Y1 Y7 3.590522 1_554
Y1 Y2 3.590522 1_554
Y1 Y3 3.590522 1_555
Y1 Y6 3.608223 1_554
Y1 Y9 3.608223 1_555
Y1 Y5 3.608223 1_554
Y1 Y8 3.608223 1_555
Y2 Zn1 3.008158 1_555
Y2 Zn0 3.008158 1_545
Y2 Y4 3.549355 1_545
Y2 Y3 3.604594 1_656
Y2 Y8 3.770890 1_555
Y2 Y6 3.770890 1_655
Y3 Zn0 3.008158 1_555
Y3 Zn1 3.008158 1_565
Y3 Y7 3.549355 1_565
Y3 Y5 3.770890 1_555
Y3 Y9 3.770890 1_455
Y4 Zn0 3.008158 1_555
Y4 Zn1 3.008158 1_565
Y4 Y7 3.604595 1_564
Y4 Y6 3.770890 1_665
Y4 Y8 3.770890 1_565
Y5 Zn1 2.950346 1_555
Y5 Y9 3.513910 1_455
Y5 Y6 3.557618 1_555
Y5 Y8 3.621845 1_555
Y5 Y7 3.770890 1_565
Y6 Zn1 2.950346 1_555
Y6 Y8 3.513910 1_455
Y6 Y9 3.621845 1_445
Y7 Zn1 3.008158 1_555
Y7 Zn0 3.008158 1_545
Y7 Y9 3.770890 1_445
Y8 Zn0 2.950346 1_555
Y8 Y9 3.557618 1_555
Y9 Zn0 2.950346 1_555
Zn0 Zn1 3.093547 1_565
Ga0 Y3 2.980076 1_556
Ga0 Y4 2.980084 1_556
Ga0 Y1 3.050655 1_556
Ga0 Y0 3.050655 1_566
Ga0 Y8 3.085705 1_455
Ga0 Y6 3.085705 1_555
Ga0 Y9 3.085713 1_455
Ga0 Y5 3.085713 1_555
Ga1 Y2 2.980076 1_554
Ga1 Y7 2.980084 1_554
Ga1 Y1 3.050655 1_555
Ga1 Y0 3.050655 1_655
Ga1 Y5 3.085705 1_655
Ga1 Y9 3.085705 1_555
Ga1 Y6 3.085713 1_655
Ga1 Y8 3.085713 1_555
Bi0 Y1 3.238488 1_555
Bi0 Y0 3.238488 1_555
Bi0 Y2 3.354130 1_454
Bi0 Y3 3.354130 1_555
Bi0 Y4 3.354130 1_545
Bi0 Y7 3.354130 1_554
Bi0 Y8 3.462048 1_555
Bi0 Y9 3.462048 1_444
Bi0 Y6 3.462048 1_554
Bi0 Y5 3.462048 1_555
Bi1 Y0 3.238488 1_665
Bi1 Y1 3.238488 1_555
Bi1 Y3 3.354130 1_655
Bi1 Y2 3.354130 1_554
Bi1 Y7 3.354130 1_564
Bi1 Y4 3.354130 1_555
Bi1 Y5 3.462048 1_554
Bi1 Y6 3.462048 1_665
Bi1 Y9 3.462048 1_555
Bi1 Y8 3.462048 1_554
