# generated using pymatgen
data_Ba2TcPtCl12
_symmetry_space_group_name_H-M   'P 1'
_cell_length_a   6.58427368
_cell_length_b   6.58869832
_cell_length_c   10.50832148
_cell_angle_alpha   89.13254554
_cell_angle_beta   88.83194963
_cell_angle_gamma   84.35059508
_symmetry_Int_Tables_number   1
_chemical_formula_structural   Ba2TcPtCl12
_chemical_formula_sum   'Ba2 Tc1 Pt1 Cl12'
_cell_volume   453.52183559
_cell_formula_units_Z   1
loop_
 _symmetry_equiv_pos_site_id
 _symmetry_equiv_pos_as_xyz
  1  'x, y, z'
loop_
 _atom_site_type_symbol
 _atom_site_label
 _atom_site_symmetry_multiplicity
 _atom_site_fract_x
 _atom_site_fract_y
 _atom_site_fract_z
 _atom_site_occupancy
  Ba  Ba0  1  0.02613732  0.96893957  0.74664553  1
  Ba  Ba1  1  0.97386268  0.03106043  0.25335447  1
  Tc  Tc0  1  0.00000000  0.50000000  0.00000000  1
  Pt  Pt0  1  0.50000000  0.00000000  0.50000000  1
  Cl  Cl0  1  0.31970533  0.71922812  0.54609085  1
  Cl  Cl1  1  0.68029467  0.28077188  0.45390915  1
  Cl  Cl2  1  0.28503531  0.66350409  0.93279618  1
  Cl  Cl3  1  0.71496469  0.33649591  0.06720382  1
  Cl  Cl4  1  0.52357815  0.05747104  0.71799596  1
  Cl  Cl5  1  0.47642185  0.94252896  0.28200404  1
  Cl  Cl6  1  0.91357046  0.46563451  0.78387496  1
  Cl  Cl7  1  0.08642954  0.53436549  0.21612504  1
  Cl  Cl8  1  0.79908852  0.81950550  0.00374516  1
  Cl  Cl9  1  0.20091148  0.18049450  0.99625484  1
  Cl  Cl10  1  0.19214261  0.20807414  0.49872149  1
  Cl  Cl11  1  0.80785739  0.79192586  0.50127851  1
loop_
_geom_bond_atom_site_label_1
_geom_bond_atom_site_label_2
_geom_bond_distance
_geom_bond_site_symmetry_2
Ba0 Cl2 3.181744 1_555
Ba0 Cl0 3.193346 1_555
Ba0 Cl8 3.247762 1_456
Ba0 Cl10 3.250116 1_565
Ba0 Cl11 3.262835 1_455
Ba0 Cl9 3.270579 1_565
Ba0 Cl6 3.310819 1_465
Ba0 Cl4 3.321982 1_465
Ba0 Cl4 3.389544 1_565
Ba0 Cl6 3.483083 1_455
Ba1 Cl3 3.181744 1_555
Ba1 Cl1 3.193346 1_555
Ba1 Cl9 3.247762 1_654
Ba1 Cl11 3.250116 1_545
Ba1 Cl10 3.262835 1_655
Ba1 Cl8 3.270579 1_545
Ba1 Cl7 3.310819 1_645
Ba1 Cl5 3.321982 1_645
Ba1 Cl5 3.389544 1_545
Ba1 Cl7 3.483083 1_655
Cl0 Pt0 2.334055 1_565
Cl1 Pt0 2.334055 1_555
Cl2 Tc0 2.345724 1_556
Cl3 Tc0 2.345724 1_655
Cl4 Pt0 2.338259 1_555
Cl5 Pt0 2.338259 1_565
Cl6 Tc0 2.372065 1_656
Cl7 Tc0 2.372065 1_555
Cl8 Tc0 2.373850 1_655
Cl9 Tc0 2.373850 1_556
Cl10 Pt0 2.332785 1_555
Cl11 Pt0 2.332785 1_565
