# generated using pymatgen
data_Sc12Al2Ni3Ru
_symmetry_space_group_name_H-M   'P 1'
_cell_length_a   7.78043757
_cell_length_b   7.78043823
_cell_length_c   7.78043812
_cell_angle_alpha   111.86726164
_cell_angle_beta   110.58346387
_cell_angle_gamma   106.01988804
_symmetry_Int_Tables_number   1
_chemical_formula_structural   Sc12Al2Ni3Ru
_chemical_formula_sum   'Sc12 Al2 Ni3 Ru1'
_cell_volume   361.54113411
_cell_formula_units_Z   1
loop_
 _symmetry_equiv_pos_site_id
 _symmetry_equiv_pos_as_xyz
  1  'x, y, z'
loop_
 _atom_site_type_symbol
 _atom_site_label
 _atom_site_symmetry_multiplicity
 _atom_site_fract_x
 _atom_site_fract_y
 _atom_site_fract_z
 _atom_site_occupancy
  Sc  Sc0  1  0.04689136  0.74516187  0.30172849  1
  Sc  Sc1  1  0.96564849  0.26370994  0.70193855  1
  Sc  Sc2  1  0.55656562  0.25483813  0.30172849  1
  Sc  Sc3  1  0.43822960  0.73629006  0.70193855  1
  Sc  Sc4  1  0.67819072  0.87403929  0.19823423  1
  Sc  Sc5  1  0.32419594  0.52004350  0.19823423  1
  Sc  Sc6  1  0.32419594  0.12596071  0.80415243  1
  Sc  Sc7  1  0.67819072  0.47995650  0.80415243  1
  Sc  Sc8  1  0.18259245  0.21986363  0.40245708  1
  Sc  Sc9  1  0.81368079  0.22071936  0.03440015  1
  Sc  Sc10  1  0.18259245  0.78013637  0.96272882  1
  Sc  Sc11  1  0.81368079  0.77928064  0.59296143  1
  Al  Al0  1  0.99386557  0.50000000  0.49386557  1
  Al  Al1  1  0.50283238  0.00000000  0.50283238  1
  Ni  Ni0  1  0.33998448  0.50000000  0.83998448  1
  Ni  Ni1  1  0.87642647  0.87817199  0.99825447  1
  Ni  Ni2  1  0.12008248  0.12182801  0.99825447  1
  Ru  Ru0  1  0.66215174  0.50000000  0.16215174  1
loop_
_geom_bond_atom_site_label_1
_geom_bond_atom_site_label_2
_geom_bond_distance
_geom_bond_site_symmetry_2
Sc0 Sc7 3.232313 1_454
Sc0 Sc4 3.232323 1_455
Sc0 Sc10 3.237238 1_554
Sc0 Sc8 3.237241 1_565
Sc0 Sc5 3.260062 1_555
Sc0 Sc6 3.260067 1_565
Sc0 Sc9 3.347520 1_455
Sc0 Sc11 3.347526 1_455
Sc0 Sc3 3.546967 1_555
Sc1 Sc5 3.207557 1_656
Sc1 Sc6 3.207562 1_655
Sc1 Sc9 3.282932 1_556
Sc1 Sc11 3.282932 1_545
Sc1 Sc4 3.285762 1_545
Sc1 Sc7 3.285765 1_555
Sc1 Sc8 3.299388 1_655
Sc1 Sc10 3.299395 1_655
Sc1 Sc2 3.546972 1_555
Sc2 Sc5 3.232306 1_555
Sc2 Sc6 3.232308 1_554
Sc2 Sc8 3.237240 1_555
Sc2 Sc7 3.260067 1_555
Sc2 Sc4 3.260067 1_545
Sc2 Sc9 3.347526 1_555
Sc3 Sc7 3.207552 1_555
Sc3 Sc4 3.207554 1_556
Sc3 Sc9 3.282929 1_566
Sc3 Sc6 3.285763 1_565
Sc3 Sc5 3.285763 1_555
Sc3 Sc8 3.299395 1_555
Sc4 Sc5 3.314320 1_555
Sc4 Sc8 3.430494 1_665
Sc4 Sc9 3.456639 1_565
Sc5 Sc8 3.430505 1_555
Sc5 Sc9 3.456645 1_455
Sc6 Sc9 3.305443 1_556
Sc6 Sc7 3.314320 1_555
Sc6 Sc8 3.352550 1_555
Sc7 Sc9 3.305446 1_556
Sc7 Sc8 3.352549 1_555
Sc8 Sc9 3.268693 1_455
Sc10 Sc2 3.237240 1_566
Sc10 Sc11 3.268689 1_455
Sc10 Sc3 3.299401 1_555
Sc10 Sc4 3.352549 1_556
Sc10 Sc5 3.352552 1_556
Sc10 Sc6 3.430492 1_565
Sc10 Sc7 3.430498 1_455
Sc11 Sc3 3.282924 1_555
Sc11 Sc5 3.305446 1_555
Sc11 Sc4 3.305451 1_555
Sc11 Sc2 3.347520 1_555
Sc11 Sc6 3.456643 1_665
Sc11 Sc7 3.456646 1_555
Al0 Sc0 2.857766 1_655
Al0 Sc2 2.857771 1_555
Al0 Sc1 2.879771 1_555
Al0 Sc3 2.879778 1_655
Al0 Sc9 2.911154 1_555
Al0 Sc11 2.911154 1_555
Al0 Ru0 2.939095 1_555
Al0 Sc8 2.959489 1_655
Al0 Sc10 2.959490 1_655
Al0 Ni0 3.066729 1_655
Al1 Sc0 2.977869 1_545
Al1 Sc2 2.977874 1_555
Al1 Sc3 3.034508 1_545
Al1 Sc1 3.034509 1_555
Al1 Sc6 3.117667 1_555
Al1 Sc4 3.117667 1_545
Al1 Sc5 3.117669 1_545
Al1 Sc7 3.117669 1_555
Al1 Sc9 3.359628 1_556
Al1 Sc11 3.359628 1_545
Al1 Sc8 3.423994 1_555
Al1 Sc10 3.423996 1_544
Ni0 Sc1 2.527902 1_455
Ni0 Sc3 2.527905 1_555
Ni0 Sc7 2.781404 1_555
Ni0 Sc5 2.781404 1_556
Ni0 Sc4 2.781407 1_556
Ni0 Sc6 2.781411 1_555
Ni0 Sc8 2.811959 1_555
Ni0 Sc10 2.811965 1_555
Ni0 Ru0 2.854509 1_556
Ni1 Ni2 2.281257 1_665
Ni1 Sc4 2.549143 1_556
Ni1 Sc7 2.549144 1_555
Ni1 Sc10 2.764310 1_655
Ni1 Sc8 2.764314 1_666
Ni1 Sc11 2.770719 1_555
Ni1 Sc9 2.770719 1_566
Ni1 Sc3 2.942380 1_555
Ni1 Sc0 2.963262 1_656
Ni2 Sc6 2.549143 1_555
Ni2 Sc5 2.549144 1_556
Ni2 Sc10 2.764310 1_545
Ni2 Sc8 2.764318 1_556
Ni2 Sc9 2.770719 1_456
Ni2 Sc11 2.770719 1_445
Ni2 Sc1 2.942387 1_455
Ni2 Sc2 2.963254 1_556
Ru0 Sc2 2.607314 1_555
Ru0 Sc0 2.607318 1_655
Ru0 Sc11 2.780033 1_555
Ru0 Sc9 2.780033 1_555
Ru0 Sc5 2.780265 1_555
Ru0 Sc7 2.780265 1_554
Ru0 Sc6 2.780268 1_554
Ru0 Sc4 2.780273 1_555
