# generated using pymatgen
data_K4Hf6GeI18
_symmetry_space_group_name_H-M   'P 1'
_cell_length_a   11.10081630
_cell_length_b   11.25165020
_cell_length_c   11.37900628
_cell_angle_alpha   118.53008183
_cell_angle_beta   100.25010326
_cell_angle_gamma   104.06137032
_symmetry_Int_Tables_number   1
_chemical_formula_structural   K4Hf6GeI18
_chemical_formula_sum   'K4 Hf6 Ge1 I18'
_cell_volume   1136.91162364
_cell_formula_units_Z   1
loop_
 _symmetry_equiv_pos_site_id
 _symmetry_equiv_pos_as_xyz
  1  'x, y, z'
loop_
 _atom_site_type_symbol
 _atom_site_label
 _atom_site_symmetry_multiplicity
 _atom_site_fract_x
 _atom_site_fract_y
 _atom_site_fract_z
 _atom_site_occupancy
  K  K0  1  0.64873341  0.53649783  0.22642002  1
  K  K1  1  0.35126659  0.46350217  0.77357998  1
  K  K2  1  0.68756410  0.22720143  0.56632173  1
  K  K3  1  0.31243590  0.77279857  0.43367827  1
  Hf  Hf0  1  0.15228088  0.05717354  0.23136768  1
  Hf  Hf1  1  0.84771912  0.94282646  0.76863232  1
  Hf  Hf2  1  0.86268871  0.12767820  0.13409683  1
  Hf  Hf3  1  0.13731129  0.87232180  0.86590317  1
  Hf  Hf4  1  0.14628711  0.24094938  0.04564270  1
  Hf  Hf5  1  0.85371289  0.75905062  0.95435730  1
  Ge  Ge0  1  0.00000000  0.00000000  0.00000000  1
  I  I0  1  0.00975021  0.41571340  0.20111031  1
  I  I1  1  0.99024979  0.58428660  0.79888969  1
  I  I2  1  0.33500347  0.33860018  0.31446362  1
  I  I3  1  0.66499653  0.66139982  0.68553638  1
  I  I4  1  0.32397631  0.52930276  0.10028432  1
  I  I5  1  0.67602369  0.47069724  0.89971568  1
  I  I6  1  0.00559081  0.79335427  0.21068330  1
  I  I7  1  0.99440919  0.20664573  0.78931670  1
  I  I8  1  0.70204458  0.28002534  0.29282845  1
  I  I9  1  0.29795542  0.71997466  0.70717155  1
  I  I10  1  0.31947947  0.12908835  0.90184632  1
  I  I11  1  0.68052053  0.87091165  0.09815368  1
  I  I12  1  0.01711564  0.20777763  0.41371008  1
  I  I13  1  0.98288436  0.79222237  0.58628992  1
  I  I14  1  0.32445887  0.92208421  0.11063136  1
  I  I15  1  0.67554113  0.07791579  0.88936864  1
  I  I16  1  0.33678617  0.12246960  0.50677260  1
  I  I17  1  0.66321383  0.87753040  0.49322740  1
loop_
_geom_bond_atom_site_label_1
_geom_bond_atom_site_label_2
_geom_bond_distance
_geom_bond_site_symmetry_2
Hf0 I14 2.863982 1_545
Hf0 I6 2.892376 1_545
Hf0 I2 2.893354 1_555
Hf0 I12 2.900481 1_555
Hf0 I16 3.056271 1_555
Hf1 I15 2.863982 1_565
Hf1 I7 2.892376 1_565
Hf1 I3 2.893354 1_555
Hf1 I13 2.900481 1_555
Hf1 I17 3.056271 1_555
Hf2 I15 2.875897 1_554
Hf2 I11 2.888125 1_545
Hf2 I0 2.893989 1_655
Hf2 I12 2.905727 1_655
Hf2 I8 3.009147 1_555
Hf3 I14 2.875897 1_556
Hf3 I10 2.888125 1_565
Hf3 I1 2.893989 1_455
Hf3 I13 2.905727 1_455
Hf3 I9 3.009147 1_555
Hf4 I10 2.878529 1_554
Hf4 I2 2.888468 1_555
Hf4 I7 2.890867 1_454
Hf4 I0 2.893623 1_555
Hf4 I4 3.054600 1_555
Hf5 I11 2.878529 1_556
Hf5 I3 2.888468 1_555
Hf5 I6 2.890867 1_656
Hf5 I1 2.893623 1_555
Hf5 I5 3.054600 1_555
Ge0 Hf4 2.544069 1_555
Ge0 Hf5 2.544069 1_444
Ge0 Hf0 2.544128 1_555
Ge0 Hf1 2.544128 1_444
Ge0 Hf2 2.552128 1_455
Ge0 Hf3 2.552128 1_544
I0 K3 3.815072 1_555
I1 K2 3.815072 1_555
I4 K3 3.511363 1_555
I4 K1 3.512959 1_554
I4 K0 3.601228 1_555
I5 K2 3.511363 1_555
I5 K0 3.512959 1_556
I5 K1 3.601228 1_555
I6 K3 3.995249 1_555
I7 K2 3.995249 1_555
I8 K2 3.458707 1_555
I8 K0 3.464457 1_555
I9 K3 3.458707 1_555
I9 K1 3.464457 1_555
I16 K1 3.516454 1_555
I16 K3 3.538570 1_545
I16 K2 3.616478 1_555
I17 K0 3.516454 1_555
I17 K2 3.538570 1_565
I17 K3 3.616478 1_555
