# generated using pymatgen
data_AsRh(SeO3)4
_symmetry_space_group_name_H-M   'P 1'
_cell_length_a   7.93802409
_cell_length_b   7.74078418
_cell_length_c   7.82672041
_cell_angle_alpha   89.52159344
_cell_angle_beta   90.00000000
_cell_angle_gamma   90.00000000
_symmetry_Int_Tables_number   1
_chemical_formula_structural   AsRh(SeO3)4
_chemical_formula_sum   'As2 Rh2 Se8 O24'
_cell_volume   480.90805610
_cell_formula_units_Z   2
loop_
 _symmetry_equiv_pos_site_id
 _symmetry_equiv_pos_as_xyz
  1  'x, y, z'
loop_
 _atom_site_type_symbol
 _atom_site_label
 _atom_site_symmetry_multiplicity
 _atom_site_fract_x
 _atom_site_fract_y
 _atom_site_fract_z
 _atom_site_occupancy
  As  As0  1  0.00000000  0.00000000  0.50000000  1
  As  As1  1  0.50000000  0.00000000  0.00000000  1
  Rh  Rh0  1  0.00000000  0.50000000  0.00000000  1
  Rh  Rh1  1  0.50000000  0.50000000  0.50000000  1
  Se  Se0  1  0.33584091  0.66400349  0.16423642  1
  Se  Se1  1  0.83584091  0.33599651  0.33576358  1
  Se  Se2  1  0.67778857  0.82974690  0.66987405  1
  Se  Se3  1  0.17778857  0.17025310  0.83012595  1
  Se  Se4  1  0.66415909  0.33599651  0.83576358  1
  Se  Se5  1  0.16415909  0.66400349  0.66423642  1
  Se  Se6  1  0.32221143  0.17025310  0.33012595  1
  Se  Se7  1  0.82221143  0.82974690  0.16987405  1
  O  O0  1  0.25015027  0.54257143  0.00757480  1
  O  O1  1  0.75015027  0.45742857  0.49242520  1
  O  O2  1  0.77100769  0.99377867  0.54260588  1
  O  O3  1  0.27100769  0.00622133  0.95739412  1
  O  O4  1  0.53722316  0.97381625  0.76700131  1
  O  O5  1  0.47288806  0.51534711  0.24469915  1
  O  O6  1  0.97288806  0.48465289  0.25530085  1
  O  O7  1  0.03722316  0.02618375  0.73299869  1
  O  O8  1  0.99059736  0.23188833  0.47020908  1
  O  O9  1  0.54698646  0.75657172  0.51735978  1
  O  O10  1  0.49059736  0.76811167  0.02979092  1
  O  O11  1  0.04698646  0.24342828  0.98264022  1
  O  O12  1  0.74984973  0.45742857  0.99242520  1
  O  O13  1  0.24984973  0.54257143  0.50757480  1
  O  O14  1  0.22899231  0.00622133  0.45739412  1
  O  O15  1  0.72899231  0.99377867  0.04260588  1
  O  O16  1  0.46277684  0.02618375  0.23299869  1
  O  O17  1  0.52711194  0.48465289  0.75530085  1
  O  O18  1  0.02711194  0.51534711  0.74469915  1
  O  O19  1  0.96277684  0.97381625  0.26700131  1
  O  O20  1  0.00940264  0.76811167  0.52979092  1
  O  O21  1  0.45301354  0.24342828  0.48264022  1
  O  O22  1  0.50940264  0.23188833  0.97020908  1
  O  O23  1  0.95301354  0.75657172  0.01735978  1
loop_
_geom_bond_atom_site_label_1
_geom_bond_atom_site_label_2
_geom_bond_distance
_geom_bond_site_symmetry_2
As0 O8 1.809686 1_455
As0 O20 1.809686 1_545
As0 O14 1.848635 1_555
As0 O2 1.848635 1_445
As0 O7 1.860143 1_555
As0 O19 1.860143 1_445
As1 O22 1.809686 1_554
As1 O10 1.809686 1_545
As1 O15 1.848635 1_545
As1 O3 1.848635 1_554
As1 O16 1.860143 1_555
As1 O4 1.860143 1_544
O0 Se0 1.693793 1_555
O0 Rh0 2.013811 1_555
O1 Se1 1.693793 1_555
O1 Rh1 2.013811 1_555
O2 Se2 1.769426 1_555
O3 Se3 1.769426 1_555
O4 Se2 1.755213 1_555
O5 Se0 1.700628 1_555
O5 Rh1 2.012248 1_555
O6 Se1 1.700628 1_555
O6 Rh0 2.012248 1_655
O7 Se3 1.755213 1_555
O8 Se1 1.803236 1_555
O9 Se2 1.683780 1_555
O9 Rh1 2.026460 1_555
O10 Se0 1.803236 1_555
O11 Se3 1.683780 1_555
O11 Rh0 2.026460 1_556
O12 Se4 1.693793 1_555
O12 Rh0 2.013811 1_656
O13 Se5 1.693793 1_555
O13 Rh1 2.013811 1_555
O14 Se6 1.769426 1_555
O15 Se7 1.769426 1_555
O16 Se6 1.755213 1_555
O17 Se4 1.700628 1_555
O17 Rh1 2.012248 1_555
O18 Se5 1.700628 1_555
O18 Rh0 2.012248 1_556
O19 Se7 1.755213 1_555
O20 Se5 1.803236 1_555
O21 Se6 1.683780 1_555
O21 Rh1 2.026460 1_555
O22 Se4 1.803236 1_555
O23 Se7 1.683780 1_555
O23 Rh0 2.026460 1_655
