# generated using pymatgen
data_Cu4SnP10
_symmetry_space_group_name_H-M   'P 1'
_cell_length_a   7.24423993
_cell_length_b   7.25654974
_cell_length_c   7.25654992
_cell_angle_alpha   59.99999259
_cell_angle_beta   59.94377782
_cell_angle_gamma   59.94377336
_symmetry_Int_Tables_number   1
_chemical_formula_structural   Cu4SnP10
_chemical_formula_sum   'Cu4 Sn1 P10'
_cell_volume   269.50607980
_cell_formula_units_Z   1
loop_
 _symmetry_equiv_pos_site_id
 _symmetry_equiv_pos_as_xyz
  1  'x, y, z'
loop_
 _atom_site_type_symbol
 _atom_site_label
 _atom_site_symmetry_multiplicity
 _atom_site_fract_x
 _atom_site_fract_y
 _atom_site_fract_z
 _atom_site_occupancy
  Cu  Cu0  1  -0.00201904  0.00067301  0.00067301  1
  Cu  Cu1  1  0.38083661  0.37217090  0.37217090  1
  Cu  Cu2  1  0.38083661  0.87482159  0.37217090  1
  Cu  Cu3  1  0.38083661  0.37217090  0.87482159  1
  Sn  Sn0  1  0.71776929  0.42741124  0.42741124  1
  P  P0  1  0.50302611  0.50624712  0.99536388  1
  P  P1  1  0.50302611  0.99536388  0.50624712  1
  P  P2  1  0.37994668  0.87335177  0.87335177  1
  P  P3  1  0.87093826  0.38099167  0.87403604  1
  P  P4  1  0.00193504  0.50458930  0.50458930  1
  P  P5  1  0.50302611  0.99536388  0.99536388  1
  P  P6  1  0.87093826  0.87403604  0.38099167  1
  P  P7  1  0.87093826  0.87403604  0.87403604  1
  P  P8  1  0.00193504  0.50458930  0.98888737  1
  P  P9  1  0.00193504  0.98888737  0.50458930  1
loop_
_geom_bond_atom_site_label_1
_geom_bond_atom_site_label_2
_geom_bond_distance
_geom_bond_site_symmetry_2
Cu0 P7 2.252718 1_444
Cu0 P3 2.252729 1_454
Cu0 P6 2.252730 1_445
Cu0 P2 2.257366 1_544
Cu1 P1 2.232608 1_545
Cu1 P0 2.232608 1_554
Cu1 P4 2.240577 1_555
Cu1 Sn0 2.898243 1_555
Cu2 P5 2.232608 1_554
Cu2 P1 2.232614 1_555
Cu2 P9 2.240577 1_555
Cu2 Sn0 2.898229 1_555
Cu3 P5 2.232608 1_545
Cu3 P0 2.232614 1_555
Cu3 P8 2.240577 1_555
Cu3 Sn0 2.898230 1_555
P0 P3 2.174374 1_555
P0 P2 2.174459 1_555
P1 P6 2.174374 1_555
P1 P2 2.174459 1_555
P2 P5 2.174453 1_555
P3 P8 2.189033 1_655
P3 P4 2.189039 1_655
P4 P6 2.189038 1_455
P4 Sn0 2.736484 1_455
P5 P7 2.174374 1_555
P6 P9 2.189033 1_655
P7 P8 2.189039 1_655
P7 P9 2.189039 1_655
P8 Sn0 2.736495 1_456
P9 Sn0 2.736494 1_465
