# generated using pymatgen
data_Cs6LuTe4Br
_symmetry_space_group_name_H-M   'P 1'
_cell_length_a   12.26385684
_cell_length_b   12.26385792
_cell_length_c   9.09676446
_cell_angle_alpha   90.00000000
_cell_angle_beta   90.00000000
_cell_angle_gamma   120.00000498
_symmetry_Int_Tables_number   1
_chemical_formula_structural   Cs6LuTe4Br
_chemical_formula_sum   'Cs12 Lu2 Te8 Br2'
_cell_volume   1184.87283297
_cell_formula_units_Z   2
loop_
 _symmetry_equiv_pos_site_id
 _symmetry_equiv_pos_as_xyz
  1  'x, y, z'
loop_
 _atom_site_type_symbol
 _atom_site_label
 _atom_site_symmetry_multiplicity
 _atom_site_fract_x
 _atom_site_fract_y
 _atom_site_fract_z
 _atom_site_occupancy
  Cs  Cs0  1  0.13084302  0.86915698  0.51275786  1
  Cs  Cs1  1  0.73831197  0.86915698  0.51275786  1
  Cs  Cs2  1  0.94452650  0.47226375  0.31718432  1
  Cs  Cs3  1  0.52773625  0.47226375  0.31718432  1
  Cs  Cs4  1  0.86915698  0.73831197  0.01275786  1
  Cs  Cs5  1  0.26168803  0.13084302  0.01275786  1
  Cs  Cs6  1  0.52773625  0.05547350  0.31718432  1
  Cs  Cs7  1  0.13084302  0.26168803  0.51275786  1
  Cs  Cs8  1  0.86915698  0.13084302  0.01275786  1
  Cs  Cs9  1  0.05547350  0.52773625  0.81718432  1
  Cs  Cs10  1  0.47226375  0.94452650  0.81718432  1
  Cs  Cs11  1  0.47226375  0.52773625  0.81718432  1
  Lu  Lu0  1  0.66666700  0.33333300  0.71444290  1
  Lu  Lu1  1  0.33333300  0.66666700  0.21444290  1
  Te  Te0  1  0.41087783  0.20543842  0.61166528  1
  Te  Te1  1  0.58912217  0.79456158  0.11166528  1
  Te  Te2  1  0.66666700  0.33333300  0.03141039  1
  Te  Te3  1  0.79456158  0.58912217  0.61166528  1
  Te  Te4  1  0.20543842  0.41087783  0.11166528  1
  Te  Te5  1  0.33333300  0.66666700  0.53141039  1
  Te  Te6  1  0.20543842  0.79456158  0.11166528  1
  Te  Te7  1  0.79456158  0.20543842  0.61166528  1
  Br  Br0  1  0.00000000  0.00000000  0.26992633  1
  Br  Br1  1  0.00000000  0.00000000  0.76992633  1
loop_
_geom_bond_atom_site_label_1
_geom_bond_atom_site_label_2
_geom_bond_distance
_geom_bond_site_symmetry_2
Cs0 Te3 3.930496 1_455
Cs0 Te0 3.930496 1_565
Cs0 Te6 3.977856 1_555
Cs0 Te5 4.304562 1_555
Cs1 Te7 3.930484 1_565
Cs1 Te3 3.930519 1_555
Cs1 Te1 3.977851 1_555
Cs1 Te5 4.304551 1_555
Cs2 Te3 3.904893 1_555
Cs2 Te7 3.904908 1_555
Cs2 Te2 3.932806 1_555
Cs2 Te6 4.087728 1_655
Cs2 Te4 4.087728 1_655
Cs3 Te3 3.904909 1_555
Cs3 Te0 3.904909 1_555
Cs3 Te2 3.932823 1_555
Cs3 Te4 4.087728 1_555
Cs3 Te1 4.087728 1_555
Cs4 Te6 3.930484 1_655
Cs4 Te1 3.930519 1_555
Cs4 Te3 3.977851 1_554
Cs4 Te2 4.304551 1_555
Cs5 Te6 3.930484 1_545
Cs5 Te4 3.930519 1_555
Cs5 Te0 3.977851 1_554
Cs5 Te2 4.304551 1_555
Cs6 Te0 3.904893 1_555
Cs6 Te7 3.904907 1_555
Cs6 Te2 3.932807 1_555
Cs6 Te6 4.087728 1_545
Cs6 Te1 4.087728 1_545
Cs7 Te7 3.930484 1_455
Cs7 Te0 3.930519 1_555
Cs7 Te4 3.977851 1_555
Cs7 Te5 4.304551 1_555
Cs8 Te4 3.930496 1_655
Cs8 Te1 3.930496 1_545
Cs8 Te7 3.977856 1_554
Cs8 Te2 4.304562 1_555
Cs9 Te4 3.904893 1_556
Cs9 Te6 3.904908 1_556
Cs9 Te5 3.932806 1_555
Cs9 Te7 4.087728 1_455
Cs9 Te3 4.087728 1_455
Cs10 Te1 3.904893 1_556
Cs10 Te6 3.904907 1_556
Cs10 Te5 3.932807 1_555
Cs10 Te7 4.087728 1_565
Cs10 Te0 4.087728 1_565
Cs11 Te4 3.904909 1_556
Cs11 Te1 3.904909 1_556
Cs11 Te5 3.932823 1_555
Cs11 Te3 4.087728 1_555
Cs11 Te0 4.087728 1_555
Lu0 Te0 2.873067 1_555
Lu0 Te3 2.873068 1_555
Lu0 Te7 2.873068 1_555
Lu0 Te2 2.883379 1_556
Lu1 Te1 2.873067 1_555
Lu1 Te4 2.873068 1_555
Lu1 Te6 2.873068 1_555
Lu1 Te5 2.883379 1_555
Br0 Cs0 3.550241 1_545
Br0 Cs1 3.550257 1_445
Br0 Cs7 3.550257 1_555
Br0 Cs8 3.632824 1_455
Br0 Cs5 3.632840 1_555
Br0 Cs4 3.632840 1_445
Br1 Cs8 3.550241 1_456
Br1 Cs5 3.550257 1_556
Br1 Cs4 3.550257 1_446
Br1 Cs0 3.632824 1_545
Br1 Cs1 3.632840 1_445
Br1 Cs7 3.632840 1_555
