# generated using pymatgen
data_K2CdI4
_symmetry_space_group_name_H-M   'P 1'
_cell_length_a   7.45666229
_cell_length_b   7.45666136
_cell_length_c   11.84039681
_cell_angle_alpha   90.00000000
_cell_angle_beta   90.00000000
_cell_angle_gamma   109.07410603
_symmetry_Int_Tables_number   1
_chemical_formula_structural   K2CdI4
_chemical_formula_sum   'K4 Cd2 I8'
_cell_volume   622.20199246
_cell_formula_units_Z   2
loop_
 _symmetry_equiv_pos_site_id
 _symmetry_equiv_pos_as_xyz
  1  'x, y, z'
loop_
 _atom_site_type_symbol
 _atom_site_label
 _atom_site_symmetry_multiplicity
 _atom_site_fract_x
 _atom_site_fract_y
 _atom_site_fract_z
 _atom_site_occupancy
  K  K0  1  0.61799930  0.61799930  0.50000000  1
  K  K1  1  0.61799930  0.61799930  0.00000000  1
  K  K2  1  0.26417216  0.86800378  0.25000000  1
  K  K3  1  0.86800378  0.26417216  0.75000000  1
  Cd  Cd0  1  0.84633387  0.31231889  0.25000000  1
  Cd  Cd1  1  0.31231889  0.84633387  0.75000000  1
  I  I0  1  0.03724465  0.49444218  0.44417155  1
  I  I1  1  0.49444218  0.03724465  0.55582845  1
  I  I2  1  0.03724465  0.49444218  0.05582845  1
  I  I3  1  0.49444218  0.03724465  0.94417155  1
  I  I4  1  0.47995090  0.35209043  0.25000000  1
  I  I5  1  0.35209043  0.47995090  0.75000000  1
  I  I6  1  0.79406463  0.92169209  0.25000000  1
  I  I7  1  0.92169209  0.79406463  0.75000000  1
loop_
_geom_bond_atom_site_label_1
_geom_bond_atom_site_label_2
_geom_bond_distance
_geom_bond_site_symmetry_2
Cd0 I0 2.809440 1_655
Cd0 I2 2.809440 1_655
Cd0 I6 2.809655 1_545
Cd0 I4 2.842759 1_555
Cd1 I3 2.809440 1_565
Cd1 I1 2.809440 1_565
Cd1 I7 2.809655 1_455
Cd1 I5 2.842759 1_555
I0 K2 3.581551 1_555
I0 K0 3.597388 1_455
I0 K3 4.029538 1_455
I1 K3 3.581551 1_555
I1 K0 3.597388 1_545
I1 K2 4.029539 1_545
I2 K2 3.581551 1_555
I2 K1 3.597388 1_455
I2 K3 4.029538 1_454
I3 K3 3.581551 1_555
I3 K1 3.597388 1_546
I3 K2 4.029539 1_546
I4 K2 3.438403 1_545
I4 K0 3.524101 1_555
I4 K1 3.524101 1_555
I5 K3 3.438403 1_455
I5 K1 3.524101 1_556
I5 K0 3.524101 1_555
I6 K2 3.655890 1_655
I6 K1 3.697404 1_555
I6 K0 3.697404 1_555
I6 K2 3.839093 1_555
I7 K3 3.655890 1_565
I7 K0 3.697404 1_555
I7 K1 3.697404 1_556
I7 K3 3.839092 1_555
