# generated using pymatgen
data_Cs6GaTe4Br
_symmetry_space_group_name_H-M   'P 1'
_cell_length_a   11.96262461
_cell_length_b   11.96262295
_cell_length_c   9.03273468
_cell_angle_alpha   90.00000000
_cell_angle_beta   90.00000000
_cell_angle_gamma   119.99999923
_symmetry_Int_Tables_number   1
_chemical_formula_structural   Cs6GaTe4Br
_chemical_formula_sum   'Cs12 Ga2 Te8 Br2'
_cell_volume   1119.44504392
_cell_formula_units_Z   2
loop_
 _symmetry_equiv_pos_site_id
 _symmetry_equiv_pos_as_xyz
  1  'x, y, z'
loop_
 _atom_site_type_symbol
 _atom_site_label
 _atom_site_symmetry_multiplicity
 _atom_site_fract_x
 _atom_site_fract_y
 _atom_site_fract_z
 _atom_site_occupancy
  Cs  Cs0  1  0.13404405  0.86595595  0.51453603  1
  Cs  Cs1  1  0.73191190  0.86595595  0.51453603  1
  Cs  Cs2  1  0.95099556  0.47549878  0.31897465  1
  Cs  Cs3  1  0.52450122  0.47549878  0.31897465  1
  Cs  Cs4  1  0.86595595  0.73191190  0.01453603  1
  Cs  Cs5  1  0.26808810  0.13404405  0.01453603  1
  Cs  Cs6  1  0.52450122  0.04900444  0.31897465  1
  Cs  Cs7  1  0.13404405  0.26808810  0.51453603  1
  Cs  Cs8  1  0.86595595  0.13404405  0.01453603  1
  Cs  Cs9  1  0.04900444  0.52450122  0.81897465  1
  Cs  Cs10  1  0.47549878  0.95099556  0.81897465  1
  Cs  Cs11  1  0.47549878  0.52450122  0.81897465  1
  Ga  Ga0  1  0.66666700  0.33333300  0.70886245  1
  Ga  Ga1  1  0.33333300  0.66666700  0.20886245  1
  Te  Te0  1  0.42183834  0.21091967  0.61685533  1
  Te  Te1  1  0.57816166  0.78908033  0.11685533  1
  Te  Te2  1  0.66666700  0.33333300  0.00814221  1
  Te  Te3  1  0.78908033  0.57816166  0.61685533  1
  Te  Te4  1  0.21091967  0.42183834  0.11685533  1
  Te  Te5  1  0.33333300  0.66666700  0.50814221  1
  Te  Te6  1  0.21091967  0.78908033  0.11685533  1
  Te  Te7  1  0.78908033  0.21091967  0.61685533  1
  Br  Br0  1  0.00000000  0.00000000  0.27250029  1
  Br  Br1  1  0.00000000  0.00000000  0.77250029  1
loop_
_geom_bond_atom_site_label_1
_geom_bond_atom_site_label_2
_geom_bond_distance
_geom_bond_site_symmetry_2
Cs0 Te6 3.929463 1_555
Cs0 Te0 3.940698 1_565
Cs0 Te3 3.940698 1_455
Cs0 Te5 4.129645 1_555
Cs1 Te1 3.929459 1_555
Cs1 Te3 3.940691 1_555
Cs1 Te7 3.940702 1_565
Cs1 Te5 4.129656 1_555
Cs2 Te3 3.857265 1_555
Cs2 Te7 3.857272 1_555
Cs2 Te6 3.925459 1_655
Cs2 Te4 3.925479 1_655
Cs2 Te2 4.069362 1_555
Cs2 Te5 4.313828 1_655
Cs3 Te0 3.857273 1_555
Cs3 Te3 3.857273 1_555
Cs3 Te1 3.925447 1_555
Cs3 Te4 3.925448 1_555
Cs3 Te2 4.069384 1_555
Cs3 Te5 4.313818 1_555
Cs4 Te3 3.929459 1_554
Cs4 Te1 3.940691 1_555
Cs4 Te6 3.940703 1_655
Cs4 Te2 4.129656 1_555
Cs5 Te0 3.929459 1_554
Cs5 Te4 3.940691 1_555
Cs5 Te6 3.940702 1_545
Cs5 Te2 4.129656 1_555
Cs6 Te0 3.857265 1_555
Cs6 Te7 3.857272 1_555
Cs6 Te6 3.925459 1_545
Cs6 Te1 3.925478 1_545
Cs6 Te2 4.069362 1_555
Cs6 Te5 4.313828 1_545
Cs7 Te4 3.929459 1_555
Cs7 Te0 3.940691 1_555
Cs7 Te7 3.940703 1_455
Cs7 Te5 4.129656 1_555
Cs8 Te7 3.929463 1_554
Cs8 Te1 3.940698 1_545
Cs8 Te4 3.940698 1_655
Cs8 Te2 4.129645 1_555
Cs9 Te4 3.857265 1_556
Cs9 Te6 3.857272 1_556
Cs9 Te7 3.925459 1_455
Cs9 Te3 3.925479 1_455
Cs9 Te5 4.069362 1_555
Cs9 Te2 4.313828 1_456
Cs10 Te1 3.857265 1_556
Cs10 Te6 3.857272 1_556
Cs10 Te7 3.925459 1_565
Cs10 Te0 3.925478 1_565
Cs10 Te5 4.069362 1_555
Cs10 Te2 4.313828 1_566
Cs11 Te1 3.857273 1_556
Cs11 Te4 3.857273 1_556
Cs11 Te0 3.925447 1_555
Cs11 Te3 3.925448 1_555
Cs11 Te5 4.069384 1_555
Cs11 Te2 4.313818 1_556
Ga0 Te7 2.669074 1_555
Ga0 Te3 2.669093 1_555
Ga0 Te0 2.669093 1_555
Ga0 Te2 2.703315 1_556
Ga1 Te6 2.669074 1_555
Ga1 Te4 2.669093 1_555
Ga1 Te1 2.669093 1_555
Ga1 Te5 2.703315 1_555
Br0 Cs7 3.534612 1_555
Br0 Cs0 3.534612 1_545
Br0 Cs1 3.534612 1_445
Br0 Cs4 3.625367 1_445
Br0 Cs8 3.625367 1_455
Br0 Cs5 3.625367 1_555
Br1 Cs4 3.534612 1_446
Br1 Cs8 3.534612 1_456
Br1 Cs5 3.534612 1_556
Br1 Cs7 3.625367 1_555
Br1 Cs0 3.625367 1_545
Br1 Cs1 3.625367 1_445
