# generated using pymatgen
data_Ta6Zn5GaN
_symmetry_space_group_name_H-M   'P 1'
_cell_length_a   8.11314752
_cell_length_b   8.12083076
_cell_length_c   8.12082963
_cell_angle_alpha   60.08083129
_cell_angle_beta   60.03128497
_cell_angle_gamma   60.03129096
_symmetry_Int_Tables_number   1
_chemical_formula_structural   Ta6Zn5GaN
_chemical_formula_sum   'Ta12 Zn10 Ga2 N2'
_cell_volume   378.74360596
_cell_formula_units_Z   2
loop_
 _symmetry_equiv_pos_site_id
 _symmetry_equiv_pos_as_xyz
  1  'x, y, z'
loop_
 _atom_site_type_symbol
 _atom_site_label
 _atom_site_symmetry_multiplicity
 _atom_site_fract_x
 _atom_site_fract_y
 _atom_site_fract_z
 _atom_site_occupancy
  Ta  Ta0  1  0.19035604  0.80969309  0.18945488  1
  Ta  Ta1  1  0.43950501  0.06054512  0.44030691  1
  Ta  Ta2  1  0.43946613  0.05941357  0.06165416  1
  Ta  Ta3  1  0.43973676  0.44049011  0.06131402  1
  Ta  Ta4  1  0.19061539  0.80934751  0.80942171  1
  Ta  Ta5  1  0.05845911  0.44049011  0.06131402  1
  Ta  Ta6  1  0.81049499  0.80969309  0.18945488  1
  Ta  Ta7  1  0.05938461  0.44057829  0.44065249  1
  Ta  Ta8  1  0.19154089  0.18868598  0.80950989  1
  Ta  Ta9  1  0.81053387  0.18834584  0.19058643  1
  Ta  Ta10  1  0.81026324  0.18868598  0.80950989  1
  Ta  Ta11  1  0.05964396  0.06054512  0.44030691  1
  Zn  Zn0  1  0.75037620  0.41646087  0.41641036  1
  Zn  Zn1  1  0.41674957  0.41646087  0.41641036  1
  Zn  Zn2  1  0.83386390  0.83418627  0.49808693  1
  Zn  Zn3  1  0.41613610  0.75191307  0.41581373  1
  Zn  Zn4  1  0.83325043  0.83358964  0.83353913  1
  Zn  Zn5  1  0.49962380  0.83358964  0.83353913  1
  Zn  Zn6  1  0.62664327  0.12357150  0.62314297  1
  Zn  Zn7  1  0.62335673  0.62685703  0.12642850  1
  Zn  Zn8  1  0.12500000  0.62845232  0.62154768  1
  Zn  Zn9  1  0.62500000  0.62845232  0.62154768  1
  Ga  Ga0  1  0.83465555  0.49527911  0.83541280  1
  Ga  Ga1  1  0.41534445  0.41458720  0.75472089  1
  N  N0  1  0.00090324  0.99914045  0.99905308  1
  N  N1  1  0.24909676  0.25094692  0.25085955  1
loop_
_geom_bond_atom_site_label_1
_geom_bond_atom_site_label_2
_geom_bond_distance
_geom_bond_site_symmetry_2
Ta0 Zn2 2.714216 1_455
Ta0 Zn5 2.714590 1_554
Ta0 Zn8 2.920459 1_555
Ta0 Zn7 2.925465 1_555
Ta0 Zn3 2.932506 1_555
Ta0 Zn1 2.935842 1_555
Ta1 Zn3 2.714225 1_545
Ta1 Zn1 2.714576 1_555
Ta1 Zn9 2.920458 1_545
Ta1 Zn6 2.925466 1_555
Ta1 Zn2 2.932506 1_545
Ta1 Zn5 2.935848 1_545
Ta2 Zn3 2.703203 1_545
Ta2 Zn7 2.923486 1_545
Ta2 Zn5 2.936740 1_544
Ta2 Zn4 2.936751 1_544
Ta2 Zn6 2.965763 1_554
Ta3 Zn1 2.706692 1_555
Ta3 Zn5 2.934206 1_554
Ta3 Zn7 2.937230 1_555
Ta3 Zn9 2.972296 1_554
Ta4 Zn4 2.717403 1_455
Ta4 Zn5 2.717427 1_555
Ta4 Zn3 2.928161 1_555
Ta4 Zn9 2.932177 1_555
Ta4 Zn8 2.932177 1_555
Ta5 Zn0 2.706702 1_455
Ta5 Zn4 2.934197 1_454
Ta5 Zn7 2.937237 1_455
Ta5 Zn8 2.972296 1_554
Ta6 Zn2 2.714225 1_555
Ta6 Zn4 2.714576 1_554
Ta6 Zn9 2.920458 1_555
Ta6 Zn7 2.925466 1_555
Ta6 Zn3 2.932506 1_555
Ta6 Zn0 2.935848 1_555
Ta7 Zn1 2.717403 1_555
Ta7 Zn0 2.717427 1_455
Ta7 Zn2 2.928162 1_455
Ta7 Zn9 2.932177 1_455
Ta7 Zn8 2.932177 1_555
Ta8 Zn5 2.706703 1_545
Ta8 Zn1 2.934196 1_555
Ta8 Zn6 2.937237 1_555
Ta8 Zn8 2.972297 1_555
Ta9 Zn2 2.703203 1_545
Ta9 Zn6 2.923485 1_555
Ta9 Zn0 2.936740 1_555
Ta9 Zn1 2.936751 1_555
Ta9 Zn7 2.965763 1_555
Ta10 Zn4 2.706692 1_545
Ta10 Zn0 2.934206 1_555
Ta10 Zn6 2.937230 1_555
Ta10 Zn9 2.972297 1_555
Ta11 Zn3 2.714216 1_545
Ta11 Zn0 2.714590 1_455
Ta11 Zn8 2.920460 1_545
Ta11 Zn6 2.925465 1_455
Ta11 Zn2 2.932506 1_445
Ta11 Zn4 2.935841 1_445
Zn0 Zn7 2.485655 1_555
Zn0 Zn9 2.488383 1_555
Zn0 Zn6 2.490355 1_555
Zn0 Zn1 2.706762 1_555
Zn0 Zn3 2.719248 1_555
Zn1 Zn7 2.485664 1_555
Zn1 Zn8 2.488376 1_555
Zn1 Zn6 2.490373 1_555
Zn1 Zn3 2.719257 1_555
Zn2 Zn6 2.471516 1_565
Zn2 Zn8 2.475503 1_655
Zn2 Zn9 2.475509 1_555
Zn2 Zn5 2.719248 1_555
Zn2 Zn4 2.719256 1_555
Zn3 Zn7 2.471516 1_555
Zn3 Zn8 2.475502 1_555
Zn3 Zn9 2.475509 1_555
Zn4 Zn6 2.485664 1_565
Zn4 Zn8 2.488376 1_655
Zn4 Zn7 2.490372 1_556
Zn4 Zn5 2.706762 1_555
Zn5 Zn6 2.485655 1_565
Zn5 Zn9 2.488383 1_555
Zn5 Zn7 2.490355 1_556
Ga0 Zn7 2.511407 1_556
Ga0 Zn8 2.513764 1_655
Ga0 Zn9 2.513784 1_555
Ga0 Ta9 2.705925 1_556
Ga0 Ta8 2.709003 1_655
Ga0 Ta10 2.709017 1_555
Ga0 Zn5 2.734144 1_555
Ga0 Zn4 2.734144 1_555
Ga0 Zn2 2.749156 1_555
Ga0 Ta5 2.926914 1_656
Ga0 Ta3 2.926935 1_556
Ga0 Ta7 2.927562 1_655
Ga1 Zn6 2.511407 1_555
Ga1 Zn8 2.513764 1_555
Ga1 Zn9 2.513784 1_555
Ga1 Ta2 2.705925 1_556
Ga1 Ta5 2.709003 1_556
Ga1 Ta3 2.709017 1_556
Ga1 Zn0 2.734144 1_555
Ga1 Zn1 2.734144 1_555
Ga1 Zn3 2.749156 1_555
Ga1 Ta8 2.926914 1_555
Ga1 Ta10 2.926935 1_555
Ga1 Ta4 2.927562 1_555
N0 Ta4 2.178465 1_555
N0 Ta0 2.181545 1_556
N0 Ta6 2.181551 1_456
N0 Ta8 2.183421 1_565
N0 Ta10 2.183421 1_465
N0 Ta9 2.186032 1_466
N1 Ta7 2.178465 1_555
N1 Ta11 2.181545 1_555
N1 Ta1 2.181551 1_555
N1 Ta3 2.183421 1_555
N1 Ta5 2.183421 1_555
N1 Ta2 2.186032 1_555
