# generated using pymatgen
data_Hf6GaP5Ru6
_symmetry_space_group_name_H-M   'P 1'
_cell_length_a   7.45537922
_cell_length_b   7.47128970
_cell_length_c   7.45537876
_cell_angle_alpha   128.60117345
_cell_angle_beta   119.53689159
_cell_angle_gamma   83.22567013
_symmetry_Int_Tables_number   1
_chemical_formula_structural   Hf6GaP5Ru6
_chemical_formula_sum   'Hf6 Ga1 P5 Ru6'
_cell_volume   271.16115939
_cell_formula_units_Z   1
loop_
 _symmetry_equiv_pos_site_id
 _symmetry_equiv_pos_as_xyz
  1  'x, y, z'
loop_
 _atom_site_type_symbol
 _atom_site_label
 _atom_site_symmetry_multiplicity
 _atom_site_fract_x
 _atom_site_fract_y
 _atom_site_fract_z
 _atom_site_occupancy
  Hf  Hf0  1  0.46508076  0.69031687  0.72523511  1
  Hf  Hf1  1  0.52819047  0.25339965  0.22520917  1
  Hf  Hf2  1  0.74765811  0.83352725  0.58586915  1
  Hf  Hf3  1  0.24890546  0.82391029  0.07500384  1
  Hf  Hf4  1  0.05209245  0.25618354  0.70409209  1
  Hf  Hf5  1  0.95702875  0.66877018  0.21174043  1
  Ga  Ga0  1  0.26913594  0.26247629  0.49334135  1
  P  P0  1  0.73357692  0.24106431  0.00748739  1
  P  P1  1  0.33022693  0.58584883  0.25011380  1
  P  P2  1  0.67074943  0.91983308  0.25824771  1
  P  P3  1  0.16158537  0.91983308  0.74908265  1
  P  P4  1  0.83573403  0.58584883  0.75562190  1
  Ru  Ru0  1  0.51032524  0.50250055  0.01393657  1
  Ru  Ru1  1  0.98856398  0.50250055  0.49217531  1
  Ru  Ru2  1  0.09068283  0.25318349  0.09313887  1
  Ru  Ru3  1  0.87915347  0.00360986  0.13234261  1
  Ru  Ru4  1  0.37126725  0.00360986  0.62445639  1
  Ru  Ru5  1  0.66004462  0.25318349  0.66250266  1
loop_
_geom_bond_atom_site_label_1
_geom_bond_atom_site_label_2
_geom_bond_distance
_geom_bond_site_symmetry_2
Hf0 P3 2.681909 1_555
Hf0 P2 2.681915 1_556
Hf0 P4 2.718684 1_555
Hf0 P1 2.718685 1_555
Hf0 Ru4 2.796907 1_565
Hf0 Ru3 2.796912 1_566
Hf0 Ru1 3.107525 1_455
Hf0 Ru0 3.107530 1_556
Hf1 P4 2.685516 1_555
Hf1 P1 2.685518 1_555
Hf1 P0 2.686746 1_555
Hf1 P2 2.698919 1_545
Hf1 P3 2.698921 1_544
Hf1 Ru2 2.905411 1_555
Hf1 Ru5 2.905425 1_555
Hf1 Ru1 3.058589 1_555
Hf1 Ru0 3.058589 1_555
Hf1 Ru4 3.135364 1_554
Hf1 Ru3 3.135364 1_555
Hf2 P2 2.684723 1_555
Hf2 P3 2.684725 1_655
Hf2 P1 2.696905 1_555
Hf2 P4 2.696906 1_555
Hf2 P0 2.733124 1_566
Hf2 Ru0 2.804242 1_555
Hf2 Ru1 2.804243 1_555
Hf2 Ru5 2.869359 1_565
Hf2 Ru2 2.869364 1_666
Hf2 Ru3 3.011723 1_566
Hf2 Ru4 3.011724 1_565
Hf3 P1 2.664214 1_555
Hf3 P4 2.664214 1_454
Hf3 P2 2.710137 1_555
Hf3 P3 2.710139 1_554
Hf3 Ru1 2.859859 1_454
Hf3 Ru0 2.859865 1_555
Hf3 Ru3 3.026044 1_465
Hf3 Ru4 3.026049 1_565
Hf4 P1 2.703500 1_556
Hf4 P4 2.703509 1_455
Hf4 P3 2.718777 1_545
Hf4 P2 2.718786 1_445
Hf4 Ru2 2.784411 1_556
Hf4 Ru5 2.784422 1_455
Hf4 Ru4 2.917434 1_555
Hf4 Ru3 2.917438 1_455
Hf4 Ru0 2.965086 1_556
Hf4 Ru1 2.965091 1_455
Hf5 P3 2.677245 1_655
Hf5 P2 2.677246 1_555
Hf5 P4 2.690108 1_554
Hf5 P1 2.690115 1_655
Hf5 P0 2.826355 1_555
Hf5 Ru3 2.848189 1_565
Hf5 Ru4 2.848194 1_665
Hf5 Ru5 2.851058 1_554
Hf5 Ru2 2.851068 1_655
Hf5 Ru0 2.942262 1_555
Hf5 Ru1 2.942266 1_555
Ga0 Ru5 2.554705 1_555
Ga0 Ru2 2.554712 1_555
Ga0 Ru4 2.560014 1_555
Ga0 Ru3 2.560019 1_455
Ga0 Ru0 2.589980 1_556
Ga0 Ru1 2.589986 1_455
Ga0 Hf0 2.656417 1_555
Ga0 Hf3 2.718011 1_545
Ga0 Hf4 2.776015 1_555
P0 Ru1 2.404704 1_555
P0 Ru0 2.404705 1_555
P0 Ru4 2.408746 1_554
P0 Ru3 2.408747 1_555
P0 Ru5 2.410922 1_554
P0 Ru2 2.410937 1_655
P1 Ru0 2.461019 1_555
P1 Ru2 2.468484 1_555
P1 Ru4 2.477603 1_565
P2 Ru3 2.467283 1_565
P2 Ru0 2.472945 1_555
P2 Ru5 2.473205 1_565
P3 Ru4 2.467277 1_565
P3 Ru1 2.472947 1_455
P3 Ru2 2.473200 1_566
P4 Ru1 2.461026 1_555
P4 Ru5 2.468489 1_555
P4 Ru3 2.477601 1_566
Ru0 Ru4 2.799645 1_554
Ru0 Ru5 2.807784 1_554
Ru1 Ru3 2.799645 1_555
Ru1 Ru2 2.807795 1_655
Ru2 Ru3 2.806701 1_455
Ru4 Ru5 2.806690 1_555
