# generated using pymatgen
data_Zr6Zn20GePt3
_symmetry_space_group_name_H-M   'P 1'
_cell_length_a   8.70900829
_cell_length_b   8.70900722
_cell_length_c   8.74143155
_cell_angle_alpha   59.87677585
_cell_angle_beta   59.87677993
_cell_angle_gamma   60.24645486
_symmetry_Int_Tables_number   1
_chemical_formula_structural   Zr6Zn20GePt3
_chemical_formula_sum   'Zr6 Zn20 Ge1 Pt3'
_cell_volume   468.80568506
_cell_formula_units_Z   1
loop_
 _symmetry_equiv_pos_site_id
 _symmetry_equiv_pos_as_xyz
  1  'x, y, z'
loop_
 _atom_site_type_symbol
 _atom_site_label
 _atom_site_symmetry_multiplicity
 _atom_site_fract_x
 _atom_site_fract_y
 _atom_site_fract_z
 _atom_site_occupancy
  Zr  Zr0  1  0.71085983  0.28914017  0.28914017  1
  Zr  Zr1  1  0.28914017  0.71085983  0.71085983  1
  Zr  Zr2  1  0.28914017  0.71085983  0.28914017  1
  Zr  Zr3  1  0.71085983  0.28914017  0.71085983  1
  Zr  Zr4  1  0.28208441  0.28208441  0.71791559  1
  Zr  Zr5  1  0.71791559  0.71791559  0.28208441  1
  Zn  Zn0  1  0.12079229  0.12079229  0.12824171  1
  Zn  Zn1  1  0.87920771  0.87920771  0.87175829  1
  Zn  Zn2  1  0.12079229  0.12079229  0.63017370  1
  Zn  Zn3  1  0.12824171  0.63017370  0.12079229  1
  Zn  Zn4  1  0.87920771  0.87920771  0.36982630  1
  Zn  Zn5  1  0.87175829  0.36982630  0.87920771  1
  Zn  Zn6  1  0.63017370  0.12824171  0.12079229  1
  Zn  Zn7  1  0.36982630  0.87175829  0.87920771  1
  Zn  Zn8  1  0.50000000  0.00000000  0.00000000  1
  Zn  Zn9  1  0.00000000  0.50000000  0.50000000  1
  Zn  Zn10  1  0.00000000  0.50000000  0.00000000  1
  Zn  Zn11  1  0.50000000  0.00000000  0.50000000  1
  Zn  Zn12  1  0.33491285  0.33491285  0.34111033  1
  Zn  Zn13  1  0.66508715  0.66508715  0.65888967  1
  Zn  Zn14  1  0.33491285  0.33491285  0.98906597  1
  Zn  Zn15  1  0.34111033  0.98906597  0.33491285  1
  Zn  Zn16  1  0.66508715  0.66508715  0.01093403  1
  Zn  Zn17  1  0.65888967  0.01093403  0.66508715  1
  Zn  Zn18  1  0.98906597  0.34111033  0.33491285  1
  Zn  Zn19  1  0.01093403  0.65888967  0.66508715  1
  Ge  Ge0  1  0.50000000  0.50000000  0.50000000  1
  Pt  Pt0  1  0.00000000  0.00000000  0.50000000  1
  Pt  Pt1  1  0.50000000  0.50000000  0.00000000  1
  Pt  Pt2  1  0.00000000  0.00000000  0.00000000  1
loop_
_geom_bond_atom_site_label_1
_geom_bond_atom_site_label_2
_geom_bond_distance
_geom_bond_site_symmetry_2
Zn0 Zn10 2.699896 1_555
Zn0 Zn8 2.699896 1_555
Zn1 Zn10 2.699896 1_656
Zn1 Zn8 2.699896 1_566
Zn2 Zn9 2.699896 1_555
Zn3 Zn9 2.699896 1_555
Zn4 Zn9 2.699896 1_655
Zn5 Zn9 2.699896 1_655
Zn6 Zn8 2.699896 1_555
Zn7 Zn8 2.699896 1_566
Zn8 Zr3 3.105520 1_554
Zn8 Zr2 3.105520 1_545
Zn8 Zr5 3.115536 1_545
Zn8 Zr4 3.115536 1_554
Zn9 Zr2 3.105520 1_555
Zn9 Zr3 3.105520 1_455
Zn9 Zr4 3.115536 1_555
Zn9 Zr5 3.115536 1_455
Zn10 Zn14 2.505906 1_554
Zn10 Zn16 2.505906 1_455
Zn10 Zn18 2.505907 1_455
Zn10 Zn19 2.505907 1_554
Zn10 Zn3 2.699896 1_555
Zn10 Zn5 2.699896 1_454
Zn10 Zr1 3.105520 1_554
Zn10 Zr0 3.105520 1_455
Zn10 Zr5 3.115536 1_455
Zn10 Zr4 3.115536 1_554
Zn11 Zn17 2.505891 1_555
Zn11 Zn15 2.505891 1_545
Zn11 Zn12 2.505901 1_555
Zn11 Zn13 2.505901 1_545
Zn11 Zn4 2.699896 1_545
Zn11 Zn2 2.699896 1_555
Zn11 Zn7 2.699896 1_545
Zn11 Zn6 2.699896 1_555
Zn11 Zr0 3.105519 1_555
Zn11 Zr1 3.105519 1_545
Zn11 Zr4 3.115536 1_555
Zn11 Zr5 3.115536 1_545
Zn12 Zn9 2.505902 1_555
Zn13 Zn9 2.505902 1_655
Zn14 Zn8 2.505906 1_556
Zn15 Zn8 2.505907 1_565
Zn16 Zn8 2.505906 1_565
Zn17 Zn8 2.505907 1_556
Zn18 Zn9 2.505891 1_655
Zn19 Zn9 2.505891 1_555
Ge0 Zr1 2.606702 1_555
Ge0 Zr0 2.606702 1_555
Ge0 Zr3 2.606702 1_555
Ge0 Zr2 2.606702 1_555
Ge0 Zr5 2.673906 1_555
Ge0 Zr4 2.673906 1_555
Pt0 Zn18 2.543813 1_455
Pt0 Zn19 2.543813 1_545
Pt0 Zn15 2.543814 1_545
Pt0 Zn17 2.543814 1_455
Pt0 Zn2 2.647562 1_555
Pt0 Zn4 2.647562 1_445
Pt0 Zn0 2.647562 1_555
Pt0 Zn1 2.647562 1_445
Pt0 Zr3 3.128210 1_455
Pt0 Zr2 3.128210 1_545
Pt0 Zr1 3.128210 1_545
Pt0 Zr0 3.128210 1_455
Pt1 Zn16 2.543798 1_555
Pt1 Zn14 2.543798 1_554
Pt1 Zn12 2.543809 1_555
Pt1 Zn13 2.543809 1_554
Pt1 Zn6 2.647562 1_555
Pt1 Zn7 2.647562 1_554
Pt1 Zn5 2.647562 1_554
Pt1 Zn3 2.647562 1_555
Pt1 Zr2 3.128210 1_555
Pt1 Zr0 3.128210 1_555
Pt1 Zr3 3.128210 1_554
Pt1 Zr1 3.128210 1_554
Pt2 Zn5 2.633585 1_454
Pt2 Zn3 2.633585 1_545
Pt2 Zn0 2.633585 1_555
Pt2 Zn1 2.633585 1_444
Pt2 Zn7 2.633585 1_544
Pt2 Zn6 2.633585 1_455
Pt2 Zn4 2.633586 1_445
Pt2 Zn2 2.633586 1_554
