# generated using pymatgen
data_Sr2ScCrH10
_symmetry_space_group_name_H-M   'P 1'
_cell_length_a   4.57053034
_cell_length_b   5.16881256
_cell_length_c   12.67362492
_cell_angle_alpha   90.00291409
_cell_angle_beta   90.00000000
_cell_angle_gamma   90.00000000
_symmetry_Int_Tables_number   1
_chemical_formula_structural   Sr2ScCrH10
_chemical_formula_sum   'Sr4 Sc2 Cr2 H20'
_cell_volume   299.40443526
_cell_formula_units_Z   2
loop_
 _symmetry_equiv_pos_site_id
 _symmetry_equiv_pos_as_xyz
  1  'x, y, z'
loop_
 _atom_site_type_symbol
 _atom_site_label
 _atom_site_symmetry_multiplicity
 _atom_site_fract_x
 _atom_site_fract_y
 _atom_site_fract_z
 _atom_site_occupancy
  Sr  Sr0  1  0.25277084  0.25015616  0.64191799  1
  Sr  Sr1  1  0.75277084  0.24984384  0.35808201  1
  Sr  Sr2  1  0.22754880  0.74981581  0.15722163  1
  Sr  Sr3  1  0.72754880  0.75018419  0.84277837  1
  Sc  Sc0  1  0.23033124  0.25018181  0.93171164  1
  Sc  Sc1  1  0.73033124  0.24981819  0.06828836  1
  Cr  Cr0  1  0.20258359  0.74994764  0.42646329  1
  Cr  Cr1  1  0.70258359  0.75005236  0.57353671  1
  H  H0  1  0.49027281  0.54031354  0.49690047  1
  H  H1  1  0.99027281  0.95968646  0.50309953  1
  H  H2  1  0.97902035  0.51424154  0.99965266  1
  H  H3  1  0.47902035  0.98575846  0.00034734  1
  H  H4  1  0.23404301  0.00301470  0.81412782  1
  H  H5  1  0.73404301  0.49698530  0.18587218  1
  H  H6  1  0.27871222  0.99317933  0.33559147  1
  H  H7  1  0.77871222  0.50682067  0.66440853  1
  H  H8  1  0.23395325  0.49784429  0.81428445  1
  H  H9  1  0.73395325  0.00215571  0.18571555  1
  H  H10  1  0.27887102  0.50677291  0.33557726  1
  H  H11  1  0.77887102  0.99322709  0.66442274  1
  H  H12  1  0.72626731  0.25029253  0.89521651  1
  H  H13  1  0.22626731  0.24970747  0.10478349  1
  H  H14  1  0.89625580  0.74987703  0.35594910  1
  H  H15  1  0.39625580  0.75012297  0.64405090  1
  H  H16  1  0.97909802  0.98575750  0.99941245  1
  H  H17  1  0.47909802  0.51424250  0.00058755  1
  H  H18  1  0.49026977  0.95973137  0.49691478  1
  H  H19  1  0.99026977  0.54026863  0.50308522  1
loop_
_geom_bond_atom_site_label_1
_geom_bond_atom_site_label_2
_geom_bond_distance
_geom_bond_site_symmetry_2
Cr0 H14 1.660985 1_455
Cr0 H10 1.740131 1_555
Cr0 H6 1.740164 1_555
Cr0 H19 1.749101 1_455
Cr0 H1 1.749324 1_455
Cr0 H0 1.923550 1_555
Cr0 H18 1.924009 1_555
Cr1 H15 1.660985 1_555
Cr1 H11 1.740131 1_555
Cr1 H7 1.740164 1_555
Cr1 H18 1.749101 1_555
Cr1 H0 1.749324 1_555
Cr1 H1 1.923550 1_555
Cr1 H19 1.924009 1_555
H0 Sr1 2.605484 1_555
H0 Sr0 2.608790 1_555
H1 Sr0 2.605484 1_665
H1 Sr1 2.608790 1_565
H2 Sc1 1.979079 1_556
H2 Sc0 1.980789 1_655
H2 Sr2 2.600110 1_656
H2 Sr3 2.600262 1_555
H3 Sc0 1.979079 1_564
H3 Sc1 1.980789 1_565
H3 Sr3 2.600110 1_554
H3 Sr2 2.600262 1_555
H4 Sc0 1.962904 1_555
H4 Sr0 2.530383 1_555
H4 Sr3 2.631989 1_545
H4 Sr3 2.683037 1_445
H5 Sc1 1.962904 1_555
H5 Sr1 2.530383 1_555
H5 Sr2 2.631989 1_655
H5 Sr2 2.683037 1_555
H6 Sr1 2.556520 1_565
H6 Sr2 2.597496 1_555
H6 Sr1 2.760365 1_465
H7 Sr0 2.556520 1_655
H7 Sr3 2.597496 1_555
H7 Sr0 2.760365 1_555
H8 Sc0 1.963161 1_555
H8 Sr0 2.533424 1_555
H8 Sr3 2.630791 1_555
H8 Sr3 2.681163 1_455
H9 Sc1 1.963161 1_555
H9 Sr1 2.533424 1_555
H9 Sr2 2.630791 1_645
H9 Sr2 2.681163 1_545
H10 Sr1 2.556650 1_555
H10 Sr2 2.596714 1_555
H10 Sr1 2.761687 1_455
H11 Sr0 2.556650 1_665
H11 Sr3 2.596714 1_555
H11 Sr0 2.761687 1_565
H12 Sc1 2.193528 1_556
H12 Sc0 2.313400 1_555
H12 Sc0 2.349810 1_655
H12 Sr3 2.667984 1_555
H12 Sr3 2.669003 1_545
H13 Sc0 2.193528 1_554
H13 Sc1 2.313400 1_455
H13 Sc1 2.349810 1_555
H13 Sr2 2.667984 1_545
H13 Sr2 2.669003 1_555
H14 Sr1 2.666284 1_565
H14 Sr1 2.666619 1_555
H15 Sr0 2.666284 1_555
H15 Sr0 2.666619 1_565
H16 Sc1 1.979269 1_566
H16 Sc0 1.980622 1_665
H16 Sr3 2.597101 1_555
H16 Sr2 2.603278 1_656
H17 Sc0 1.979269 1_554
H17 Sc1 1.980622 1_555
H17 Sr2 2.597101 1_555
H17 Sr3 2.603278 1_554
H18 Sr1 2.604653 1_565
H18 Sr0 2.609344 1_565
H19 Sr0 2.604653 1_655
H19 Sr1 2.609344 1_555
