# generated using pymatgen
data_Cs2Ti(AgTe2)2
_symmetry_space_group_name_H-M   'P 1'
_cell_length_a   6.55899547
_cell_length_b   6.55899547
_cell_length_c   15.29590289
_cell_angle_alpha   90.00000000
_cell_angle_beta   90.00000000
_cell_angle_gamma   90.00000000
_symmetry_Int_Tables_number   1
_chemical_formula_structural   Cs2Ti(AgTe2)2
_chemical_formula_sum   'Cs4 Ti2 Ag4 Te8'
_cell_volume   658.03619138
_cell_formula_units_Z   2
loop_
 _symmetry_equiv_pos_site_id
 _symmetry_equiv_pos_as_xyz
  1  'x, y, z'
loop_
 _atom_site_type_symbol
 _atom_site_label
 _atom_site_symmetry_multiplicity
 _atom_site_fract_x
 _atom_site_fract_y
 _atom_site_fract_z
 _atom_site_occupancy
  Cs  Cs0  1  0.76215281  0.76215281  0.00000000  1
  Cs  Cs1  1  0.23784719  0.76215281  0.50000000  1
  Cs  Cs2  1  0.76215281  0.23784719  0.50000000  1
  Cs  Cs3  1  0.23784719  0.23784719  0.00000000  1
  Ti  Ti0  1  0.50000000  0.50000000  0.75000000  1
  Ti  Ti1  1  0.50000000  0.50000000  0.25000000  1
  Ag  Ag0  1  0.00000000  0.50000000  0.75000000  1
  Ag  Ag1  1  0.50000000  0.00000000  0.75000000  1
  Ag  Ag2  1  0.00000000  0.50000000  0.25000000  1
  Ag  Ag3  1  0.50000000  0.00000000  0.25000000  1
  Te  Te0  1  0.72924402  0.72924402  0.64738650  1
  Te  Te1  1  0.27075598  0.27075598  0.64738650  1
  Te  Te2  1  0.72924402  0.72924402  0.35261350  1
  Te  Te3  1  0.72924402  0.27075598  0.14738650  1
  Te  Te4  1  0.27075598  0.72924402  0.85261350  1
  Te  Te5  1  0.27075598  0.27075598  0.35261350  1
  Te  Te6  1  0.27075598  0.72924402  0.14738650  1
  Te  Te7  1  0.72924402  0.27075598  0.85261350  1
loop_
_geom_bond_atom_site_label_1
_geom_bond_atom_site_label_2
_geom_bond_distance
_geom_bond_site_symmetry_2
Cs0 Te6 3.939179 1_555
Cs0 Te3 3.939179 1_555
Cs0 Te4 3.939179 1_554
Cs0 Te7 3.939179 1_554
Cs0 Te6 4.032041 1_655
Cs0 Te3 4.032041 1_565
Cs0 Te7 4.032041 1_564
Cs0 Te4 4.032041 1_654
Cs1 Te0 3.939179 1_555
Cs1 Te1 3.939179 1_555
Cs1 Te5 3.939179 1_555
Cs1 Te2 3.939179 1_555
Cs1 Te0 4.032041 1_455
Cs1 Te1 4.032041 1_565
Cs1 Te2 4.032041 1_455
Cs1 Te5 4.032041 1_565
Cs2 Te0 3.939179 1_555
Cs2 Te1 3.939179 1_555
Cs2 Te5 3.939179 1_555
Cs2 Te2 3.939179 1_555
Cs2 Te1 4.032041 1_655
Cs2 Te0 4.032041 1_545
Cs2 Te2 4.032041 1_545
Cs2 Te5 4.032041 1_655
Cs3 Te6 3.939179 1_555
Cs3 Te3 3.939179 1_555
Cs3 Te4 3.939179 1_554
Cs3 Te7 3.939179 1_554
Cs3 Te3 4.032041 1_455
Cs3 Te6 4.032041 1_545
Cs3 Te7 4.032041 1_454
Cs3 Te4 4.032041 1_544
Ag0 Te4 2.806806 1_555
Ag0 Te7 2.806806 1_455
Ag0 Te1 2.806806 1_555
Ag0 Te0 2.806806 1_455
Ag1 Te7 2.806806 1_555
Ag1 Te4 2.806806 1_545
Ag1 Te1 2.806806 1_555
Ag1 Te0 2.806806 1_545
Ag2 Te5 2.806806 1_555
Ag2 Te2 2.806806 1_455
Ag2 Te6 2.806806 1_555
Ag2 Te3 2.806806 1_455
Ag3 Te5 2.806806 1_555
Ag3 Te2 2.806806 1_545
Ag3 Te3 2.806806 1_555
Ag3 Te6 2.806806 1_545
Te0 Ti0 2.642958 1_555
Te1 Ti0 2.642958 1_555
Te2 Ti1 2.642958 1_555
Te3 Ti1 2.642958 1_555
Te4 Ti0 2.642958 1_555
Te5 Ti1 2.642958 1_555
Te6 Ti1 2.642958 1_555
Te7 Ti0 2.642958 1_555
