# generated using pymatgen
data_Ta2Ti5P4
_symmetry_space_group_name_H-M   'P 1'
_cell_length_a   7.55140272
_cell_length_b   7.55140260
_cell_length_c   13.63887039
_cell_angle_alpha   75.88208791
_cell_angle_beta   75.88208810
_cell_angle_gamma   26.00294972
_symmetry_Int_Tables_number   1
_chemical_formula_structural   Ta2Ti5P4
_chemical_formula_sum   'Ta4 Ti10 P8'
_cell_volume   330.11722457
_cell_formula_units_Z   2
loop_
 _symmetry_equiv_pos_site_id
 _symmetry_equiv_pos_as_xyz
  1  'x, y, z'
loop_
 _atom_site_type_symbol
 _atom_site_label
 _atom_site_symmetry_multiplicity
 _atom_site_fract_x
 _atom_site_fract_y
 _atom_site_fract_z
 _atom_site_occupancy
  Ta  Ta0  1  0.00000000  0.00000000  0.00000000  1
  Ta  Ta1  1  0.50000000  0.50000000  0.50000000  1
  Ta  Ta2  1  0.42759091  0.42759091  0.17101645  1
  Ta  Ta3  1  0.57240909  0.57240909  0.82898355  1
  Ti  Ti0  1  0.19750268  0.19750268  0.69097498  1
  Ti  Ti1  1  0.80249732  0.80249732  0.30902502  1
  Ti  Ti2  1  0.20723437  0.20723437  0.20609313  1
  Ti  Ti3  1  0.79276563  0.79276563  0.79390687  1
  Ti  Ti4  1  0.33974811  0.33974811  0.96867001  1
  Ti  Ti5  1  0.66025189  0.66025189  0.03132999  1
  Ti  Ti6  1  0.00330026  0.00330026  0.33701402  1
  Ti  Ti7  1  0.99669974  0.99669974  0.66298598  1
  Ti  Ti8  1  0.17757533  0.17757533  0.45900559  1
  Ti  Ti9  1  0.82242467  0.82242467  0.54099441  1
  P  P0  1  0.18155647  0.18155647  0.89034750  1
  P  P1  1  0.81844353  0.81844353  0.10965250  1
  P  P2  1  0.37260993  0.37260993  0.39486210  1
  P  P3  1  0.62739007  0.62739007  0.60513790  1
  P  P4  1  0.36866379  0.36866379  0.65973240  1
  P  P5  1  0.63133621  0.63133621  0.34026760  1
  P  P6  1  0.06380365  0.06380365  0.15374231  1
  P  P7  1  0.93619635  0.93619635  0.84625769  1
loop_
_geom_bond_atom_site_label_1
_geom_bond_atom_site_label_2
_geom_bond_distance
_geom_bond_site_symmetry_2
P0 Ti3 2.493347 1_455
P0 Ti3 2.493347 1_545
P0 Ti5 2.525866 1_546
P0 Ti5 2.525866 1_456
P0 Ta3 2.615243 1_545
P0 Ta3 2.615243 1_455
P0 Ti0 2.670155 1_555
P0 Ta0 2.715548 1_556
P0 Ti4 2.793783 1_555
P1 Ti2 2.493347 1_655
P1 Ti2 2.493347 1_565
P1 Ti4 2.525866 1_564
P1 Ti4 2.525866 1_654
P1 Ta2 2.615243 1_565
P1 Ta2 2.615243 1_655
P1 Ti1 2.670155 1_555
P1 Ta0 2.715548 1_665
P1 Ti5 2.793783 1_555
P2 Ti1 2.434351 1_545
P2 Ti1 2.434352 1_455
P2 Ti6 2.539226 1_565
P2 Ti6 2.539226 1_655
P2 Ti9 2.582059 1_545
P2 Ti9 2.582059 1_455
P2 Ta1 2.629895 1_555
P2 Ti8 2.783069 1_555
P2 Ta2 2.956131 1_555
P3 Ti0 2.434351 1_565
P3 Ti0 2.434352 1_655
P3 Ti7 2.539226 1_545
P3 Ti7 2.539226 1_455
P3 Ti8 2.582059 1_565
P3 Ti8 2.582059 1_655
P3 Ta1 2.629895 1_555
P3 Ti9 2.783069 1_555
P3 Ta3 2.956131 1_555
P4 Ti0 2.447098 1_555
P4 Ta1 2.524558 1_555
P4 Ti3 2.541494 1_545
P4 Ti3 2.541494 1_455
P4 Ti7 2.545582 1_455
P4 Ti7 2.545582 1_545
P4 Ti9 2.554122 1_545
P4 Ti9 2.554122 1_455
P5 Ti1 2.447098 1_555
P5 Ta1 2.524558 1_555
P5 Ti2 2.541494 1_565
P5 Ti2 2.541494 1_655
P5 Ti6 2.545582 1_655
P5 Ti6 2.545582 1_565
P5 Ti8 2.554122 1_565
P5 Ti8 2.554122 1_655
P6 Ti2 2.391501 1_555
P6 Ti6 2.434452 1_555
P6 Ta0 2.502825 1_555
P6 Ti5 2.549837 1_455
P6 Ti5 2.549837 1_545
P6 Ta2 2.592899 1_545
P6 Ta2 2.592899 1_455
P7 Ti3 2.391501 1_555
P7 Ti7 2.434452 1_555
P7 Ta0 2.502825 1_666
P7 Ti4 2.549837 1_655
P7 Ti4 2.549837 1_565
P7 Ta3 2.592899 1_565
P7 Ta3 2.592899 1_655
