# generated using pymatgen
data_Rb2LiTiAs2
_symmetry_space_group_name_H-M   'P 1'
_cell_length_a   9.09973634
_cell_length_b   9.09973692
_cell_length_c   9.09973560
_cell_angle_alpha   137.89258168
_cell_angle_beta   60.50167317
_cell_angle_gamma   138.63449630
_symmetry_Int_Tables_number   1
_chemical_formula_structural   Rb2LiTiAs2
_chemical_formula_sum   'Rb4 Li2 Ti2 As4'
_cell_volume   330.35003604
_cell_formula_units_Z   2
loop_
 _symmetry_equiv_pos_site_id
 _symmetry_equiv_pos_as_xyz
  1  'x, y, z'
loop_
 _atom_site_type_symbol
 _atom_site_label
 _atom_site_symmetry_multiplicity
 _atom_site_fract_x
 _atom_site_fract_y
 _atom_site_fract_z
 _atom_site_occupancy
  Rb  Rb0  1  0.32316919  0.78000433  0.10317451  1
  Rb  Rb1  1  0.17683081  0.28000533  0.45683614  1
  Rb  Rb2  1  0.82316919  0.71999467  0.54316386  1
  Rb  Rb3  1  0.67683081  0.21999467  0.89682549  1
  Li  Li0  1  0.75000100  0.25000100  0.50000000  1
  Li  Li1  1  0.25000100  0.75000100  0.50000000  1
  Ti  Ti0  1  0.25000100  0.25000100  0.00000000  1
  Ti  Ti1  1  0.75000000  0.75000000  0.00000000  1
  As  As0  1  0.91456035  0.22566290  0.14022425  1
  As  As1  1  0.58543865  0.72566290  0.31110255  1
  As  As2  1  0.41456135  0.27433710  0.68889845  1
  As  As3  1  0.08543865  0.77433710  0.85977575  1
loop_
_geom_bond_atom_site_label_1
_geom_bond_atom_site_label_2
_geom_bond_distance
_geom_bond_site_symmetry_2
As0 Ti1 2.561909 1_545
As0 Ti0 2.561917 1_655
As0 Li0 2.757471 1_555
As0 Li1 2.757482 1_655
As0 Rb2 3.536932 1_555
As0 Rb0 3.538381 1_545
As0 Rb0 3.538381 1_655
As0 Rb2 3.604790 1_544
As0 Rb3 3.737589 1_554
As1 Ti0 2.561905 1_555
As1 Ti1 2.561913 1_555
As1 Li1 2.757471 1_555
As1 Li0 2.757483 1_565
As1 Rb3 3.536931 1_565
As1 Rb1 3.538381 1_555
As1 Rb1 3.538387 1_665
As1 Rb3 3.604791 1_554
As1 Rb2 3.737589 1_555
As2 Ti0 2.561901 1_556
As2 Ti1 2.561905 1_556
As2 Li1 2.757471 1_545
As2 Li0 2.757479 1_555
As2 Rb0 3.536937 1_545
As2 Rb2 3.538388 1_445
As2 Rb2 3.538388 1_555
As2 Rb0 3.604785 1_556
As2 Rb1 3.737597 1_555
As3 Ti1 2.561905 1_456
As3 Ti0 2.561909 1_566
As3 Li0 2.757471 1_455
As3 Li1 2.757478 1_555
As3 Rb1 3.536938 1_555
As3 Rb3 3.538388 1_565
As3 Rb3 3.538388 1_455
As3 Rb1 3.604790 1_566
As3 Rb0 3.737605 1_556
