# generated using pymatgen
data_HfHg3(SCl3)2
_symmetry_space_group_name_H-M   'P 1'
_cell_length_a   7.47299008
_cell_length_b   6.62971404
_cell_length_c   13.04194702
_cell_angle_alpha   88.52220822
_cell_angle_beta   90.00000000
_cell_angle_gamma   90.00000000
_symmetry_Int_Tables_number   1
_chemical_formula_structural   HfHg3(SCl3)2
_chemical_formula_sum   'Hf2 Hg6 S4 Cl12'
_cell_volume   645.93253761
_cell_formula_units_Z   2
loop_
 _symmetry_equiv_pos_site_id
 _symmetry_equiv_pos_as_xyz
  1  'x, y, z'
loop_
 _atom_site_type_symbol
 _atom_site_label
 _atom_site_symmetry_multiplicity
 _atom_site_fract_x
 _atom_site_fract_y
 _atom_site_fract_z
 _atom_site_occupancy
  Hf  Hf0  1  0.50000000  0.50000000  0.50000000  1
  Hf  Hf1  1  0.00000000  0.50000000  0.00000000  1
  Hg  Hg0  1  0.79241171  0.99211212  0.76030906  1
  Hg  Hg1  1  0.20758829  0.00788788  0.23969094  1
  Hg  Hg2  1  0.29241171  0.00788788  0.73969094  1
  Hg  Hg3  1  0.70758829  0.99211212  0.26030906  1
  Hg  Hg4  1  0.00000000  0.00000000  0.50000000  1
  Hg  Hg5  1  0.50000000  0.00000000  0.00000000  1
  S  S0  1  0.96396949  0.15768500  0.33137295  1
  S  S1  1  0.46396949  0.84231500  0.16862705  1
  S  S2  1  0.53603051  0.15768500  0.83137295  1
  S  S3  1  0.03603051  0.84231500  0.66862705  1
  Cl  Cl0  1  0.95077253  0.65081030  0.16680366  1
  Cl  Cl1  1  0.28289054  0.36383880  0.06575580  1
  Cl  Cl2  1  0.71710946  0.63616120  0.93424420  1
  Cl  Cl3  1  0.54922747  0.65081030  0.66680366  1
  Cl  Cl4  1  0.78289054  0.63616120  0.43424420  1
  Cl  Cl5  1  0.85048213  0.18865222  0.05890463  1
  Cl  Cl6  1  0.45077253  0.34918970  0.33319634  1
  Cl  Cl7  1  0.04922747  0.34918970  0.83319634  1
  Cl  Cl8  1  0.14951787  0.81134778  0.94109537  1
  Cl  Cl9  1  0.21710946  0.36383880  0.56575580  1
  Cl  Cl10  1  0.64951787  0.18865222  0.55890463  1
  Cl  Cl11  1  0.35048213  0.81134778  0.44109537  1
loop_
_geom_bond_atom_site_label_1
_geom_bond_atom_site_label_2
_geom_bond_distance
_geom_bond_site_symmetry_2
Hg0 S2 2.405661 1_565
Hg0 S3 2.406593 1_655
Hg1 S1 2.405661 1_545
Hg1 S0 2.406593 1_455
Hg2 S3 2.405661 1_545
Hg2 S2 2.406593 1_555
Hg3 S0 2.405661 1_565
Hg3 S1 2.406593 1_555
Hg4 S3 2.425568 1_545
Hg4 S0 2.425568 1_455
Hg5 S1 2.425568 1_545
Hg5 S2 2.425568 1_554
Cl0 Hf1 2.445350 1_655
Cl1 Hf1 2.445314 1_555
Cl1 Hg5 3.048437 1_555
Cl2 Hf1 2.445314 1_656
Cl2 Hg5 3.048437 1_566
Cl3 Hf0 2.445350 1_555
Cl4 Hf0 2.445314 1_555
Cl4 Hg4 3.048437 1_665
Cl5 Hf1 2.453070 1_655
Cl5 Hg5 3.010641 1_555
Cl6 Hf0 2.445350 1_555
Cl7 Hf1 2.445350 1_556
Cl8 Hf1 2.453070 1_556
Cl8 Hg5 3.010641 1_566
Cl9 Hf0 2.445314 1_555
Cl9 Hg4 3.048437 1_555
Cl10 Hf0 2.453070 1_555
Cl10 Hg4 3.010641 1_655
Cl11 Hf0 2.453070 1_555
Cl11 Hg4 3.010641 1_565
