# generated using pymatgen
data_Rb2CaH2F2
_symmetry_space_group_name_H-M   'P 1'
_cell_length_a   4.47214691
_cell_length_b   4.47214631
_cell_length_c   7.90862739
_cell_angle_alpha   106.42372263
_cell_angle_beta   106.42372125
_cell_angle_gamma   89.99999019
_symmetry_Int_Tables_number   1
_chemical_formula_structural   Rb2CaH2F2
_chemical_formula_sum   'Rb2 Ca1 H2 F2'
_cell_volume   144.97838841
_cell_formula_units_Z   1
loop_
 _symmetry_equiv_pos_site_id
 _symmetry_equiv_pos_as_xyz
  1  'x, y, z'
loop_
 _atom_site_type_symbol
 _atom_site_label
 _atom_site_symmetry_multiplicity
 _atom_site_fract_x
 _atom_site_fract_y
 _atom_site_fract_z
 _atom_site_occupancy
  Rb  Rb0  1  0.64353990  0.64353990  0.28707979  1
  Rb  Rb1  1  0.35646110  0.35646110  0.71292121  1
  Ca  Ca0  1  0.00000000  0.00000000  0.00000000  1
  H  H0  1  0.15811628  0.15811628  0.31623057  1
  H  H1  1  0.84188472  0.84188472  0.68377043  1
  F  F0  1  0.50000000  0.00000000  0.00000000  1
  F  F1  1  0.00000000  0.50000000  0.00000000  1
loop_
_geom_bond_atom_site_label_1
_geom_bond_atom_site_label_2
_geom_bond_distance
_geom_bond_site_symmetry_2
Ca0 F1 2.236073 1_545
Ca0 F1 2.236073 1_555
Ca0 F0 2.236073 1_455
Ca0 F0 2.236073 1_555
Ca0 H1 2.292312 1_444
Ca0 H0 2.292319 1_555
H0 Rb1 2.875565 1_555
H0 Rb0 3.169331 1_555
H0 Rb0 3.169337 1_545
H0 Rb0 3.169337 1_455
H0 Rb0 3.169344 1_445
H1 Rb0 2.875565 1_555
H1 Rb1 3.169331 1_555
H1 Rb1 3.169337 1_565
H1 Rb1 3.169337 1_655
H1 Rb1 3.169344 1_665
F0 Rb1 3.054599 1_544
F0 Rb1 3.054603 1_554
F0 Rb0 3.054606 1_555
F0 Rb0 3.054606 1_545
F1 Rb1 3.054600 1_454
F1 Rb1 3.054603 1_554
F1 Rb0 3.054606 1_555
F1 Rb0 3.054606 1_455
