# generated using pymatgen
data_Cs6Te4Pb
_symmetry_space_group_name_H-M   'P 1'
_cell_length_a   12.26775360
_cell_length_b   12.26775369
_cell_length_c   9.05571014
_cell_angle_alpha   90.00000000
_cell_angle_beta   90.00000000
_cell_angle_gamma   119.99455174
_symmetry_Int_Tables_number   1
_chemical_formula_structural   Cs6Te4Pb
_chemical_formula_sum   'Cs12 Te8 Pb2'
_cell_volume   1180.33986933
_cell_formula_units_Z   2
loop_
 _symmetry_equiv_pos_site_id
 _symmetry_equiv_pos_as_xyz
  1  'x, y, z'
loop_
 _atom_site_type_symbol
 _atom_site_label
 _atom_site_symmetry_multiplicity
 _atom_site_fract_x
 _atom_site_fract_y
 _atom_site_fract_z
 _atom_site_occupancy
  Cs  Cs0  1  0.47673413  0.95341022  0.97576479  1
  Cs  Cs1  1  0.52330237  0.47669763  0.47572955  1
  Cs  Cs2  1  0.95341022  0.47673413  0.47576479  1
  Cs  Cs3  1  0.04658978  0.52326587  0.97576479  1
  Cs  Cs4  1  0.47669763  0.52330237  0.97572955  1
  Cs  Cs5  1  0.52326587  0.04658978  0.47576479  1
  Cs  Cs6  1  0.70057040  0.85028529  0.29152329  1
  Cs  Cs7  1  0.85028529  0.70057040  0.79152329  1
  Cs  Cs8  1  0.85029927  0.14970073  0.79162921  1
  Cs  Cs9  1  0.14970073  0.85029927  0.29162921  1
  Cs  Cs10  1  0.14971471  0.29942960  0.29152329  1
  Cs  Cs11  1  0.29942960  0.14971471  0.79152329  1
  Te  Te0  1  0.61905088  0.80956234  0.70235950  1
  Te  Te1  1  0.80956234  0.61905088  0.20235950  1
  Te  Te2  1  0.80961272  0.19038728  0.20268823  1
  Te  Te3  1  0.19038728  0.80961272  0.70268823  1
  Te  Te4  1  0.19043766  0.38094912  0.70235950  1
  Te  Te5  1  0.38094912  0.19043766  0.20235950  1
  Te  Te6  1  0.33334467  0.66665533  0.25501584  1
  Te  Te7  1  0.66665533  0.33334467  0.75501584  1
  Pb  Pb0  1  0.33333167  0.66666833  0.60116001  1
  Pb  Pb1  1  0.66666833  0.33333167  0.10116001  1
loop_
_geom_bond_atom_site_label_1
_geom_bond_atom_site_label_2
_geom_bond_distance
_geom_bond_site_symmetry_2
Cs0 Te3 3.920627 1_555
Cs0 Te0 3.920813 1_555
Cs0 Te6 3.959460 1_556
Cs0 Te5 4.178869 1_566
Cs0 Te2 4.181015 1_566
Cs0 Pb1 4.193259 1_566
Cs1 Te1 3.921591 1_555
Cs1 Te5 3.921591 1_555
Cs1 Te7 3.959070 1_555
Cs1 Te4 4.179817 1_555
Cs1 Te0 4.179817 1_555
Cs1 Pb0 4.193229 1_555
Cs2 Te2 3.920627 1_555
Cs2 Te1 3.920813 1_555
Cs2 Te7 3.959460 1_555
Cs2 Te4 4.178869 1_655
Cs2 Te3 4.181015 1_655
Cs2 Pb0 4.193259 1_655
Cs3 Te3 3.920627 1_555
Cs3 Te4 3.920813 1_555
Cs3 Te6 3.959460 1_556
Cs3 Te1 4.178869 1_456
Cs3 Te2 4.181015 1_456
Cs3 Pb1 4.193259 1_456
Cs4 Te4 3.921591 1_555
Cs4 Te0 3.921591 1_555
Cs4 Te6 3.959070 1_556
Cs4 Te1 4.179817 1_556
Cs4 Te5 4.179817 1_556
Cs4 Pb1 4.193229 1_556
Cs5 Te2 3.920627 1_555
Cs5 Te5 3.920813 1_555
Cs5 Te7 3.959460 1_555
Cs5 Te0 4.178869 1_545
Cs5 Te3 4.181015 1_545
Cs5 Pb0 4.193259 1_545
Cs6 Te2 3.776802 1_565
Cs6 Te1 3.778770 1_555
Cs6 Te0 3.819902 1_555
Cs6 Te6 3.915670 1_555
Cs7 Te3 3.776802 1_655
Cs7 Te0 3.778770 1_555
Cs7 Te1 3.819902 1_556
Cs7 Te7 3.915670 1_555
Cs8 Te4 3.778563 1_655
Cs8 Te0 3.778563 1_545
Cs8 Te2 3.821499 1_556
Cs8 Te7 3.916089 1_555
Cs9 Te1 3.778563 1_455
Cs9 Te5 3.778563 1_565
Cs9 Te3 3.821499 1_555
Cs9 Te6 3.916089 1_555
Cs10 Te2 3.776802 1_455
Cs10 Te5 3.778770 1_555
Cs10 Te4 3.819902 1_555
Cs10 Te6 3.915670 1_555
Cs11 Te3 3.776802 1_545
Cs11 Te4 3.778770 1_555
Cs11 Te5 3.819902 1_556
Cs11 Te7 3.915670 1_555
Pb0 Te6 3.134581 1_555
Pb0 Te0 3.171014 1_555
Pb0 Te4 3.171014 1_555
Pb0 Te3 3.173361 1_555
Pb1 Te7 3.134581 1_554
Pb1 Te5 3.171014 1_555
Pb1 Te1 3.171014 1_555
Pb1 Te2 3.173361 1_555
