# generated using pymatgen
data_Ti6Nb6Si5B
_symmetry_space_group_name_H-M   'P 1'
_cell_length_a   7.61578648
_cell_length_b   7.61513919
_cell_length_c   7.61578598
_cell_angle_alpha   127.33749962
_cell_angle_beta   125.04928600
_cell_angle_gamma   79.58633930
_symmetry_Int_Tables_number   1
_chemical_formula_structural   Ti6Nb6Si5B
_chemical_formula_sum   'Ti6 Nb6 Si5 B1'
_cell_volume   277.79922188
_cell_formula_units_Z   1
loop_
 _symmetry_equiv_pos_site_id
 _symmetry_equiv_pos_as_xyz
  1  'x, y, z'
loop_
 _atom_site_type_symbol
 _atom_site_label
 _atom_site_symmetry_multiplicity
 _atom_site_fract_x
 _atom_site_fract_y
 _atom_site_fract_z
 _atom_site_occupancy
  Ti  Ti0  1  0.51515955  0.25269865  0.76792881  1
  Ti  Ti1  1  0.98477084  0.25269865  0.23753910  1
  Ti  Ti2  1  0.10607633  0.74053885  0.60283547  1
  Ti  Ti3  1  0.86207160  0.49664594  0.60233237  1
  Ti  Ti4  1  0.63770237  0.74053885  0.13446251  1
  Ti  Ti5  1  0.39431357  0.49664594  0.13457534  1
  Nb  Nb0  1  0.54331601  0.08379745  0.04048045  1
  Nb  Nb1  1  0.45417272  0.49664911  0.54247639  1
  Nb  Nb2  1  0.95654086  0.49727215  0.04073129  1
  Nb  Nb3  1  0.04576005  0.08831159  0.54255254  1
  Nb  Nb4  1  0.74998285  0.90766855  0.65768570  1
  Nb  Nb5  1  0.24993953  0.90809979  0.15816026  1
  Si  Si0  1  0.24989778  0.49835305  0.74845627  1
  Si  Si1  1  0.33240387  0.83001038  0.49586237  1
  Si  Si2  1  0.66590232  0.16364000  0.49606352  1
  Si  Si3  1  0.83414801  0.83001038  0.99760651  1
  Si  Si4  1  0.16757648  0.16364000  0.99773768  1
  B  B0  1  0.75026626  0.49497967  0.24471342  1
loop_
_geom_bond_atom_site_label_1
_geom_bond_atom_site_label_2
_geom_bond_distance
_geom_bond_site_symmetry_2
Nb0 Si4 2.684279 1_554
Nb0 Si2 2.684284 1_555
Nb0 Si1 2.695403 1_544
Nb0 Si3 2.695407 1_544
Nb0 Ti5 2.932022 1_555
Nb0 Ti3 2.932027 1_555
Nb0 Ti0 2.938770 1_554
Nb0 Ti1 2.938781 1_555
Nb0 Ti2 2.976753 1_544
Nb0 Ti4 2.976757 1_545
Nb1 Si2 2.691650 1_555
Nb1 Si4 2.691650 1_554
Nb1 Si1 2.700829 1_555
Nb1 Si3 2.700829 1_555
Nb1 Si0 2.766269 1_555
Nb1 Ti5 2.869049 1_555
Nb1 Ti3 2.869056 1_555
Nb1 Ti1 3.042393 1_455
Nb1 Ti0 3.042399 1_555
Nb1 Ti2 3.045124 1_555
Nb1 Ti4 3.045126 1_556
Nb2 Si3 2.683490 1_554
Nb2 Si1 2.683490 1_655
Nb2 Si4 2.695257 1_654
Nb2 Si2 2.695257 1_554
Nb2 Ti2 2.932253 1_655
Nb2 Ti4 2.932260 1_555
Nb2 Ti1 2.938171 1_555
Nb2 Ti0 2.938173 1_554
Nb2 Ti5 2.981253 1_655
Nb2 Ti3 2.981256 1_554
Nb3 Si1 2.692940 1_545
Nb3 Si3 2.692944 1_444
Nb3 Si4 2.700627 1_555
Nb3 Si2 2.700632 1_455
Nb3 Si0 2.764320 1_555
Nb3 Ti2 2.868506 1_545
Nb3 Ti4 2.868515 1_445
Nb3 Ti0 3.042469 1_555
Nb3 Ti1 3.042476 1_455
Nb3 Ti5 3.045508 1_556
Nb3 Ti3 3.045509 1_455
Nb4 Si3 2.697487 1_555
Nb4 Si1 2.697487 1_555
Nb4 Si2 2.697888 1_565
Nb4 Si4 2.697889 1_665
Nb4 Ti1 2.855986 1_566
Nb4 Ti0 2.855986 1_565
Nb4 Ti5 2.924062 1_555
Nb4 Ti3 2.924063 1_555
Nb4 Ti4 2.925296 1_555
Nb4 Ti2 2.925299 1_655
Nb5 Si1 2.688409 1_555
Nb5 Si3 2.688409 1_454
Nb5 Si4 2.689868 1_564
Nb5 Si2 2.689868 1_565
Nb5 Si0 2.767894 1_554
Si0 Ti3 2.486659 1_455
Si0 Ti5 2.486661 1_556
Si0 Ti4 2.487272 1_556
Si0 Ti2 2.487282 1_555
Si0 Ti0 2.495763 1_555
Si0 Ti1 2.495768 1_455
Si1 Ti0 2.609289 1_565
Si1 Ti2 2.609534 1_555
Si1 Ti5 2.611894 1_555
Si2 Ti3 2.609412 1_555
Si2 Ti0 2.609609 1_555
Si2 Ti4 2.611306 1_545
Si3 Ti1 2.609291 1_566
Si3 Ti4 2.609541 1_556
Si3 Ti3 2.611898 1_555
Si4 Ti5 2.609408 1_556
Si4 Ti1 2.609602 1_456
Si4 Ti2 2.611308 1_545
B0 Ti0 2.322753 1_554
B0 Ti1 2.322757 1_555
B0 Ti4 2.331311 1_555
B0 Ti2 2.331311 1_655
B0 Ti3 2.332661 1_555
B0 Ti5 2.332664 1_555
B0 Nb2 2.779799 1_555
B0 Nb0 2.787202 1_555
B0 Nb4 2.789973 1_555
