# generated using pymatgen
data_K2Ni2PdSe4
_symmetry_space_group_name_H-M   'P 1'
_cell_length_a   8.51119454
_cell_length_b   7.40191082
_cell_length_c   5.99713167
_cell_angle_alpha   78.09569259
_cell_angle_beta   58.31669688
_cell_angle_gamma   45.32668429
_symmetry_Int_Tables_number   1
_chemical_formula_structural   K2Ni2PdSe4
_chemical_formula_sum   'K2 Ni2 Pd1 Se4'
_cell_volume   220.18278415
_cell_formula_units_Z   1
loop_
 _symmetry_equiv_pos_site_id
 _symmetry_equiv_pos_as_xyz
  1  'x, y, z'
loop_
 _atom_site_type_symbol
 _atom_site_label
 _atom_site_symmetry_multiplicity
 _atom_site_fract_x
 _atom_site_fract_y
 _atom_site_fract_z
 _atom_site_occupancy
  K  K0  1  0.35056175  0.35056175  0.64943825  1
  K  K1  1  0.64943825  0.64943825  0.35056175  1
  Ni  Ni0  1  0.00000000  0.00000000  0.50000000  1
  Ni  Ni1  1  0.00000000  0.00000000  0.00000000  1
  Pd  Pd0  1  0.50000000  0.50000000  0.00000000  1
  Se  Se0  1  0.96467661  0.26959968  0.70895249  1
  Se  Se1  1  0.03532339  0.73040032  0.29104751  1
  Se  Se2  1  0.73040032  0.03532339  0.94322877  1
  Se  Se3  1  0.26959968  0.96467661  0.05677123  1
loop_
_geom_bond_atom_site_label_1
_geom_bond_atom_site_label_2
_geom_bond_distance
_geom_bond_site_symmetry_2
K0 Se2 3.560979 1_555
K0 Se1 3.560979 1_555
K0 Se0 3.566706 1_455
K0 Se3 3.566706 1_546
K0 Se1 3.594507 1_556
K0 Se2 3.594507 1_554
K0 Se2 3.598835 1_465
K0 Se1 3.598835 1_645
K0 Pd0 3.606622 1_556
K0 Pd0 3.606622 1_555
K0 Ni0 3.698286 1_565
K0 Ni0 3.698286 1_655
K0 Ni1 3.720570 1_566
K0 Ni1 3.720570 1_655
K1 Se3 3.560979 1_555
K1 Se0 3.560979 1_555
K1 Se1 3.566706 1_655
K1 Se2 3.566706 1_564
K1 Se0 3.594507 1_554
K1 Se3 3.594507 1_556
K1 Se3 3.598835 1_645
K1 Se0 3.598835 1_465
K1 Pd0 3.606622 1_555
K1 Pd0 3.606622 1_556
K1 Ni0 3.698286 1_655
K1 Ni0 3.698286 1_565
K1 Ni1 3.720570 1_655
K1 Ni1 3.720570 1_566
Ni0 Se0 2.331356 1_455
Ni0 Se1 2.331356 1_545
Ni0 Se3 2.331356 1_545
Ni0 Se2 2.331356 1_455
Ni1 Se3 2.321605 1_545
Ni1 Se2 2.321605 1_454
Ni1 Se1 2.321605 1_545
Ni1 Se0 2.321605 1_454
Pd0 Se3 2.467641 1_555
Pd0 Se2 2.467641 1_554
Pd0 Se0 2.467641 1_554
Pd0 Se1 2.467641 1_555
