# generated using pymatgen
data_Y20Cd3Hg3Ru2
_symmetry_space_group_name_H-M   'P 1'
_cell_length_a   9.68349031
_cell_length_b   9.68348980
_cell_length_c   9.70229663
_cell_angle_alpha   90.00000000
_cell_angle_beta   90.00000000
_cell_angle_gamma   120.00000175
_symmetry_Int_Tables_number   1
_chemical_formula_structural   Y20Cd3Hg3Ru2
_chemical_formula_sum   'Y20 Cd3 Hg3 Ru2'
_cell_volume   787.89617894
_cell_formula_units_Z   1
loop_
 _symmetry_equiv_pos_site_id
 _symmetry_equiv_pos_as_xyz
  1  'x, y, z'
loop_
 _atom_site_type_symbol
 _atom_site_label
 _atom_site_symmetry_multiplicity
 _atom_site_fract_x
 _atom_site_fract_y
 _atom_site_fract_z
 _atom_site_occupancy
  Y  Y0  1  0.00000000  0.00000000  0.48417610  1
  Y  Y1  1  0.00000000  0.00000000  0.01582390  1
  Y  Y2  1  0.20966966  0.79033034  0.43801200  1
  Y  Y3  1  0.20966966  0.41934033  0.43801200  1
  Y  Y4  1  0.58065967  0.79033034  0.43801200  1
  Y  Y5  1  0.79037979  0.20962021  0.56103109  1
  Y  Y6  1  0.79037979  0.58075957  0.56103109  1
  Y  Y7  1  0.41924043  0.20962021  0.56103109  1
  Y  Y8  1  0.79037979  0.20962021  0.93896891  1
  Y  Y9  1  0.79037979  0.58075957  0.93896891  1
  Y  Y10  1  0.41924043  0.20962021  0.93896891  1
  Y  Y11  1  0.20966966  0.79033034  0.06198800  1
  Y  Y12  1  0.20966966  0.41934033  0.06198800  1
  Y  Y13  1  0.58065967  0.79033034  0.06198800  1
  Y  Y14  1  0.54110560  0.45889440  0.25000000  1
  Y  Y15  1  0.54110560  0.08221220  0.25000000  1
  Y  Y16  1  0.91778780  0.45889440  0.25000000  1
  Y  Y17  1  0.45826669  0.54173331  0.75000000  1
  Y  Y18  1  0.45826669  0.91653337  0.75000000  1
  Y  Y19  1  0.08346663  0.54173331  0.75000000  1
  Cd  Cd0  1  0.11226001  0.88773999  0.75000000  1
  Cd  Cd1  1  0.11226001  0.22452003  0.75000000  1
  Cd  Cd2  1  0.77547997  0.88773999  0.75000000  1
  Hg  Hg0  1  0.87687385  0.12312615  0.25000000  1
  Hg  Hg1  1  0.87687385  0.75374870  0.25000000  1
  Hg  Hg2  1  0.24625130  0.12312615  0.25000000  1
  Ru  Ru0  1  0.33333300  0.66666700  0.25000000  1
  Ru  Ru1  1  0.66666700  0.33333300  0.75000000  1
loop_
_geom_bond_atom_site_label_1
_geom_bond_atom_site_label_2
_geom_bond_distance
_geom_bond_site_symmetry_2
Y0 Y2 3.545050 1_545
Y0 Y3 3.545059 1_555
Y0 Y4 3.545059 1_445
Y0 Y6 3.594017 1_445
Y0 Y5 3.594017 1_455
Y0 Y7 3.594017 1_555
Y1 Y11 3.545050 1_545
Y1 Y12 3.545059 1_555
Y1 Y13 3.545059 1_445
Y1 Y9 3.594017 1_444
Y1 Y8 3.594017 1_454
Y1 Y10 3.594017 1_554
Y10 Y17 3.554106 1_555
Y10 Y18 3.554106 1_545
Y10 Y15 3.671141 1_556
Y10 Y14 3.671146 1_556
Y11 Y16 3.541969 1_455
Y11 Y15 3.541969 1_565
Y11 Y19 3.675506 1_554
Y11 Y18 3.675506 1_554
Y12 Y16 3.541969 1_455
Y12 Y14 3.541969 1_555
Y12 Y19 3.675501 1_554
Y12 Y17 3.675506 1_554
Y13 Y14 3.541969 1_555
Y13 Y15 3.541969 1_565
Y13 Y18 3.675501 1_554
Y13 Y17 3.675506 1_554
Y14 Y4 3.541969 1_555
Y14 Y3 3.541969 1_555
Y14 Y15 3.647598 1_555
Y14 Y16 3.647598 1_555
Y14 Y7 3.671146 1_555
Y14 Y6 3.671146 1_555
Y14 Y9 3.671146 1_554
Y15 Y4 3.541969 1_545
Y15 Y2 3.541969 1_545
Y15 Y16 3.647598 1_555
Y15 Y7 3.671141 1_555
Y15 Y5 3.671146 1_555
Y15 Y8 3.671146 1_554
Y16 Y2 3.541969 1_655
Y16 Y3 3.541969 1_655
Y16 Y6 3.671141 1_555
Y16 Y9 3.671141 1_554
Y16 Y5 3.671146 1_555
Y16 Y8 3.671146 1_554
Y17 Y7 3.554106 1_555
Y17 Y9 3.554106 1_555
Y17 Y6 3.554106 1_555
Y17 Y18 3.629373 1_555
Y17 Y19 3.629373 1_555
Y17 Y4 3.675506 1_555
Y17 Y3 3.675506 1_555
Y18 Y7 3.554106 1_565
Y18 Y8 3.554106 1_565
Y18 Y5 3.554106 1_565
Y18 Y19 3.629373 1_555
Y18 Y4 3.675501 1_555
Y18 Y2 3.675506 1_555
Y19 Y8 3.554106 1_455
Y19 Y5 3.554106 1_455
Y19 Y9 3.554106 1_455
Y19 Y6 3.554106 1_455
Y19 Y3 3.675501 1_555
Y19 Y2 3.675506 1_555
Cd0 Y1 3.193262 1_566
Cd0 Y0 3.193262 1_565
Cd0 Y19 3.220208 1_555
Cd0 Y18 3.220208 1_555
Cd0 Cd1 3.261206 1_565
Cd0 Cd2 3.261206 1_455
Cd0 Y11 3.439764 1_556
Cd0 Y2 3.439764 1_555
Cd0 Y10 3.556373 1_565
Cd0 Y7 3.556373 1_565
Cd0 Y9 3.556373 1_455
Cd0 Y6 3.556373 1_455
Cd1 Y1 3.193262 1_556
Cd1 Y0 3.193262 1_555
Cd1 Y17 3.220208 1_555
Cd1 Y19 3.220208 1_555
Cd1 Cd2 3.261206 1_445
Cd1 Y12 3.439768 1_556
Cd1 Y3 3.439768 1_555
Cd1 Y8 3.556373 1_455
Cd1 Y5 3.556373 1_455
Cd1 Y10 3.556373 1_555
Cd1 Y7 3.556373 1_555
Cd2 Y1 3.193262 1_666
Cd2 Y0 3.193262 1_665
Cd2 Y17 3.220208 1_555
Cd2 Y18 3.220208 1_555
Cd2 Y13 3.439768 1_556
Cd2 Y4 3.439768 1_555
Cd2 Y8 3.556373 1_565
Cd2 Y5 3.556373 1_565
Cd2 Y9 3.556373 1_555
Cd2 Y6 3.556373 1_555
Hg0 Y0 3.070320 1_655
Hg0 Y1 3.070320 1_655
Hg0 Y16 3.072531 1_555
Hg0 Y15 3.072531 1_555
Hg0 Y5 3.348306 1_555
Hg0 Y8 3.348306 1_554
Hg0 Y4 3.563248 1_545
Hg0 Y13 3.563248 1_545
Hg0 Y3 3.563248 1_655
Hg0 Y12 3.563248 1_655
Hg1 Y0 3.070314 1_665
Hg1 Y1 3.070314 1_665
Hg1 Y16 3.072531 1_555
Hg1 Y14 3.072531 1_555
Hg1 Y6 3.348309 1_555
Hg1 Y9 3.348309 1_554
Hg1 Y2 3.563248 1_655
Hg1 Y11 3.563248 1_655
Hg1 Y4 3.563248 1_555
Hg1 Y13 3.563248 1_555
Hg2 Y0 3.070314 1_555
Hg2 Y1 3.070314 1_555
Hg2 Y14 3.072531 1_555
Hg2 Y15 3.072531 1_555
Hg2 Y7 3.348309 1_555
Hg2 Y10 3.348309 1_554
Hg2 Y2 3.563248 1_545
Hg2 Y11 3.563248 1_545
Hg2 Y3 3.563248 1_555
Hg2 Y12 3.563248 1_555
Ru0 Y3 2.762152 1_555
Ru0 Y12 2.762152 1_555
Ru0 Y4 2.762152 1_555
Ru0 Y13 2.762152 1_555
Ru0 Y2 2.762152 1_555
Ru0 Y11 2.762152 1_555
Ru0 Y15 3.484824 1_565
Ru0 Y14 3.484824 1_555
Ru0 Y16 3.484824 1_455
Ru1 Y8 2.768913 1_555
Ru1 Y5 2.768913 1_555
Ru1 Y9 2.768920 1_555
Ru1 Y6 2.768920 1_555
Ru1 Y10 2.768920 1_555
Ru1 Y7 2.768920 1_555
Ru1 Y18 3.495343 1_545
Ru1 Y19 3.495344 1_655
Ru1 Y17 3.495352 1_555
