# generated using pymatgen
data_HgBiPt2O7
_symmetry_space_group_name_H-M   'P 1'
_cell_length_a   7.27929264
_cell_length_b   7.27929288
_cell_length_c   7.16140991
_cell_angle_alpha   60.53426796
_cell_angle_beta   60.53426690
_cell_angle_gamma   61.40750959
_symmetry_Int_Tables_number   1
_chemical_formula_structural   HgBiPt2O7
_chemical_formula_sum   'Hg2 Bi2 Pt4 O14'
_cell_volume   273.27821060
_cell_formula_units_Z   2
loop_
 _symmetry_equiv_pos_site_id
 _symmetry_equiv_pos_as_xyz
  1  'x, y, z'
loop_
 _atom_site_type_symbol
 _atom_site_label
 _atom_site_symmetry_multiplicity
 _atom_site_fract_x
 _atom_site_fract_y
 _atom_site_fract_z
 _atom_site_occupancy
  Hg  Hg0  1  0.12500000  0.12500000  0.62500000  1
  Hg  Hg1  1  0.12500000  0.12500000  0.12500000  1
  Bi  Bi0  1  0.12500000  0.62500000  0.12500000  1
  Bi  Bi1  1  0.62500000  0.12500000  0.12500000  1
  Pt  Pt0  1  0.62500000  0.62500000  0.12500000  1
  Pt  Pt1  1  0.62500000  0.12500000  0.62500000  1
  Pt  Pt2  1  0.12500000  0.62500000  0.62500000  1
  Pt  Pt3  1  0.62500000  0.62500000  0.62500000  1
  O  O0  1  0.25199184  0.25199184  0.24800816  1
  O  O1  1  0.99800816  0.99800816  0.00199184  1
  O  O2  1  0.54952608  0.95399686  0.53777326  1
  O  O3  1  0.29600314  0.70047392  0.29129621  1
  O  O4  1  0.54081194  0.54081194  0.95918806  1
  O  O5  1  0.95399686  0.54952608  0.53777326  1
  O  O6  1  0.54952608  0.95399686  0.95870379  1
  O  O7  1  0.95307469  0.95307469  0.54692531  1
  O  O8  1  0.95399686  0.54952608  0.95870379  1
  O  O9  1  0.70047392  0.29600314  0.29129621  1
  O  O10  1  0.29600314  0.70047392  0.71222674  1
  O  O11  1  0.70047392  0.29600314  0.71222674  1
  O  O12  1  0.29692531  0.29692531  0.70307469  1
  O  O13  1  0.70918806  0.70918806  0.29081194  1
loop_
_geom_bond_atom_site_label_1
_geom_bond_atom_site_label_2
_geom_bond_distance
_geom_bond_site_symmetry_2
Hg0 O1 2.214785 1_446
Hg0 O0 2.214785 1_555
Hg0 O12 2.514170 1_555
Hg0 O7 2.514170 1_445
Hg0 O2 2.583279 1_545
Hg0 O11 2.583279 1_455
Hg0 O5 2.583279 1_455
Hg0 O10 2.583279 1_545
Hg1 O0 2.214785 1_555
Hg1 O1 2.214785 1_445
Hg1 O7 2.514170 1_445
Hg1 O12 2.514170 1_554
Hg1 O6 2.583279 1_544
Hg1 O9 2.583279 1_455
Hg1 O8 2.583279 1_454
Hg1 O3 2.583279 1_545
Bi0 O1 2.246906 1_455
Bi0 O0 2.246906 1_555
Bi0 O5 2.454850 1_455
Bi0 O10 2.454850 1_554
Bi0 O3 2.454850 1_555
Bi0 O8 2.454850 1_454
Bi0 O4 2.520258 1_554
Bi0 O13 2.520258 1_455
Bi1 O0 2.246906 1_555
Bi1 O1 2.246906 1_545
Bi1 O2 2.454850 1_545
Bi1 O11 2.454850 1_554
Bi1 O9 2.454850 1_555
Bi1 O6 2.454850 1_544
Bi1 O4 2.520259 1_554
Bi1 O13 2.520259 1_545
O2 Pt1 1.999679 1_565
O2 Pt3 2.008465 1_555
O3 Pt2 1.999679 1_555
O3 Pt0 2.008465 1_555
O4 Pt3 1.988078 1_555
O4 Pt0 1.988079 1_556
O5 Pt2 1.999679 1_655
O5 Pt3 2.008465 1_555
O6 Pt1 1.999679 1_565
O6 Pt0 2.008465 1_556
O7 Pt1 2.023903 1_565
O7 Pt2 2.023904 1_655
O8 Pt2 1.999679 1_655
O8 Pt0 2.008465 1_556
O9 Pt1 1.999679 1_555
O9 Pt0 2.008465 1_555
O10 Pt2 1.999679 1_555
O10 Pt3 2.008465 1_555
O11 Pt1 1.999679 1_555
O11 Pt3 2.008465 1_555
O12 Pt1 2.023903 1_555
O12 Pt2 2.023904 1_555
O13 Pt3 1.988078 1_555
O13 Pt0 1.988079 1_555
