# generated using pymatgen
data_Sc(Nb2B3)2
_symmetry_space_group_name_H-M   'P 1'
_cell_length_a   11.61281098
_cell_length_b   11.61281010
_cell_length_c   3.35583053
_cell_angle_alpha   90.00000000
_cell_angle_beta   90.00000000
_cell_angle_gamma   164.37175531
_symmetry_Int_Tables_number   1
_chemical_formula_structural   Sc(Nb2B3)2
_chemical_formula_sum   'Sc1 Nb4 B6'
_cell_volume   121.91680545
_cell_formula_units_Z   1
loop_
 _symmetry_equiv_pos_site_id
 _symmetry_equiv_pos_as_xyz
  1  'x, y, z'
loop_
 _atom_site_type_symbol
 _atom_site_label
 _atom_site_symmetry_multiplicity
 _atom_site_fract_x
 _atom_site_fract_y
 _atom_site_fract_z
 _atom_site_occupancy
  Sc  Sc0  1  0.00000000  0.00000000  0.00000000  1
  Nb  Nb0  1  0.61469176  0.38530824  0.00000000  1
  Nb  Nb1  1  0.38530824  0.61469176  0.00000000  1
  Nb  Nb2  1  0.80547446  0.19452554  0.50000000  1
  Nb  Nb3  1  0.19452554  0.80547446  0.50000000  1
  B  B0  1  0.91824647  0.08175353  0.50000000  1
  B  B1  1  0.08175353  0.91824647  0.50000000  1
  B  B2  1  0.72774017  0.27225983  0.00000000  1
  B  B3  1  0.27225983  0.72774017  0.00000000  1
  B  B4  1  0.53995048  0.46004952  0.50000000  1
  B  B5  1  0.46004952  0.53995048  0.50000000  1
loop_
_geom_bond_atom_site_label_1
_geom_bond_atom_site_label_2
_geom_bond_distance
_geom_bond_site_symmetry_2
B0 B5 1.848803 1_545
B0 B5 1.848803 1_655
B0 Nb1 2.425421 1_656
B0 Nb1 2.425421 1_655
B0 Nb1 2.425422 1_546
B0 Nb1 2.425422 1_545
B0 Sc0 2.520735 1_656
B0 Sc0 2.520735 1_655
B0 Nb2 2.594879 1_555
B1 B4 1.848803 1_565
B1 B4 1.848803 1_455
B1 Nb0 2.425421 1_455
B1 Nb0 2.425421 1_456
B1 Nb0 2.425422 1_565
B1 Nb0 2.425422 1_566
B1 Sc0 2.520735 1_565
B1 Sc0 2.520735 1_566
B1 Nb3 2.594879 1_555
B2 B3 1.882082 1_545
B2 B3 1.882082 1_655
B2 Nb3 2.427416 1_655
B2 Nb3 2.427416 1_654
B2 Nb3 2.427417 1_545
B2 Nb3 2.427417 1_544
B2 Nb2 2.452491 1_554
B2 Nb2 2.452491 1_555
B2 Nb0 2.601239 1_555
B3 Nb2 2.427416 1_455
B3 Nb2 2.427416 1_454
B3 Nb2 2.427417 1_565
B3 Nb2 2.427417 1_564
B3 Nb3 2.452491 1_554
B3 Nb3 2.452491 1_555
B3 Nb1 2.601239 1_555
B4 B5 1.838518 1_555
B4 Nb0 2.402725 1_556
B4 Nb0 2.402725 1_555
B4 Sc0 2.480581 1_665
B4 Sc0 2.480581 1_666
B4 Sc0 2.480581 1_556
B4 Sc0 2.480581 1_555
B5 Nb1 2.402725 1_555
B5 Nb1 2.402725 1_556
B5 Sc0 2.480581 1_555
B5 Sc0 2.480581 1_556
B5 Sc0 2.480581 1_665
B5 Sc0 2.480581 1_666
