# generated using pymatgen
data_BaRhIO6
_symmetry_space_group_name_H-M   'P 1'
_cell_length_a   5.24037097
_cell_length_b   5.24037072
_cell_length_c   5.81318888
_cell_angle_alpha   90.00000000
_cell_angle_beta   90.00000000
_cell_angle_gamma   120.00000159
_symmetry_Int_Tables_number   1
_chemical_formula_structural   BaRhIO6
_chemical_formula_sum   'Ba1 Rh1 I1 O6'
_cell_volume   138.25126147
_cell_formula_units_Z   1
loop_
 _symmetry_equiv_pos_site_id
 _symmetry_equiv_pos_as_xyz
  1  'x, y, z'
loop_
 _atom_site_type_symbol
 _atom_site_label
 _atom_site_symmetry_multiplicity
 _atom_site_fract_x
 _atom_site_fract_y
 _atom_site_fract_z
 _atom_site_occupancy
  Ba  Ba0  1  0.00000000  0.00000000  0.00000000  1
  Rh  Rh0  1  0.33333300  0.66666700  0.50000000  1
  I  I0  1  0.66666700  0.33333300  0.50000000  1
  O  O0  1  0.38318755  0.01843004  0.68516922  1
  O  O1  1  0.98156996  0.36475650  0.68516922  1
  O  O2  1  0.63524350  0.61681245  0.68516922  1
  O  O3  1  0.98156996  0.61681245  0.31483078  1
  O  O4  1  0.63524350  0.01843004  0.31483078  1
  O  O5  1  0.38318755  0.36475650  0.31483078  1
loop_
_geom_bond_atom_site_label_1
_geom_bond_atom_site_label_2
_geom_bond_distance
_geom_bond_site_symmetry_2
Ba0 O1 2.682748 1_454
Ba0 O4 2.682748 1_455
Ba0 O2 2.682750 1_444
Ba0 O5 2.682750 1_555
Ba0 O3 2.682752 1_445
Ba0 O0 2.682752 1_554
I0 O0 1.907158 1_555
I0 O4 1.907158 1_555
I0 O2 1.907158 1_555
I0 O3 1.907158 1_555
I0 O5 1.907158 1_555
I0 O1 1.907158 1_555
O0 Rh0 2.035524 1_545
O1 Rh0 2.035528 1_655
O2 Rh0 2.035533 1_555
O3 Rh0 2.035524 1_655
O4 Rh0 2.035528 1_545
O5 Rh0 2.035533 1_555
