# generated using pymatgen
data_Ti8Al15Pd4Ru3
_symmetry_space_group_name_H-M   'P 1'
_cell_length_a   8.62985516
_cell_length_b   8.63143196
_cell_length_c   8.64829272
_cell_angle_alpha   120.02964668
_cell_angle_beta   119.93679859
_cell_angle_gamma   90.13902326
_symmetry_Int_Tables_number   1
_chemical_formula_structural   Ti8Al15Pd4Ru3
_chemical_formula_sum   'Ti8 Al15 Pd4 Ru3'
_cell_volume   455.18983387
_cell_formula_units_Z   1
loop_
 _symmetry_equiv_pos_site_id
 _symmetry_equiv_pos_as_xyz
  1  'x, y, z'
loop_
 _atom_site_type_symbol
 _atom_site_label
 _atom_site_symmetry_multiplicity
 _atom_site_fract_x
 _atom_site_fract_y
 _atom_site_fract_z
 _atom_site_occupancy
  Ti  Ti0  1  0.79413369  0.28805582  0.07181251  1
  Ti  Ti1  1  0.21444914  0.28506191  0.49542751  1
  Ti  Ti2  1  0.20854559  0.70929371  0.49732206  1
  Ti  Ti3  1  0.20997486  0.71603437  0.92418232  1
  Ti  Ti4  1  0.79311931  0.72016704  0.50732746  1
  Ti  Ti5  1  0.78444961  0.28358347  0.50372536  1
  Ti  Ti6  1  0.38159324  0.11970378  0.73667315  1
  Ti  Ti7  1  0.37038227  0.64067230  0.25511155  1
  Al  Al0  1  0.99575487  0.49502608  0.49818986  1
  Al  Al1  1  0.15407200  0.34139087  0.18604746  1
  Al  Al2  1  0.15586240  0.97054363  0.81453694  1
  Al  Al3  1  0.15156919  0.34532975  0.80740045  1
  Al  Al4  1  0.54192886  0.34722408  0.19503496  1
  Al  Al5  1  0.84698639  0.65502220  0.81320366  1
  Al  Al6  1  0.84695482  0.03835706  0.19107808  1
  Al  Al7  1  0.84568348  0.65332326  0.18800337  1
  Al  Al8  1  0.46303198  0.65346905  0.80847593  1
  Al  Al9  1  0.37396826  0.11717058  0.25703216  1
  Al  Al10  1  0.86265317  0.12371862  0.74733285  1
  Al  Al11  1  0.61962398  0.87954571  0.26084334  1
  Al  Al12  1  0.62641391  0.36202337  0.74443906  1
  Al  Al13  1  0.62734220  0.88161684  0.74345952  1
  Al  Al14  1  0.13477662  0.87710782  0.25152474  1
  Pd  Pd0  1  0.99800372  0.99843385  0.49822399  1
  Pd  Pd1  1  0.50019421  0.99897000  0.00018051  1
  Pd  Pd2  1  0.49932857  0.50046796  0.00046505  1
  Pd  Pd3  1  0.49931350  0.49994483  0.49999465  1
  Ru  Ru0  1  0.00258076  0.50024179  0.00287181  1
  Ru  Ru1  1  0.99972942  0.99947316  0.99961255  1
  Ru  Ru2  1  0.49757796  0.99902307  0.50046711  1
loop_
_geom_bond_atom_site_label_1
_geom_bond_atom_site_label_2
_geom_bond_distance
_geom_bond_site_symmetry_2
Ti0 Ti6 2.940642 1_554
Ti1 Ti6 2.908166 1_555
Ti2 Ti7 2.893324 1_555
Ti2 Ti6 2.934865 1_565
Ti3 Ti7 2.905813 1_556
Ti4 Ti7 3.014171 1_555
Al0 Ti3 2.603895 1_655
Al0 Ti2 2.608415 1_655
Al0 Ti0 2.608431 1_555
Al0 Ti5 2.610903 1_555
Al0 Ti4 2.615595 1_555
Al0 Ti1 2.620141 1_655
Al1 Ru1 2.481603 1_444
Al1 Ru0 2.492844 1_555
Al1 Pd3 2.511713 1_555
Al1 Ti0 2.703977 1_455
Al1 Ti1 2.752924 1_555
Al1 Ti2 2.779444 1_555
Al2 Ru1 2.488746 1_455
Al2 Pd1 2.511642 1_556
Al2 Pd0 2.517602 1_455
Al2 Ti4 2.729083 1_455
Al2 Ti3 2.755185 1_555
Al2 Ti2 2.806376 1_555
Al3 Ru0 2.492814 1_556
Al3 Pd0 2.510339 1_445
Al3 Pd2 2.515744 1_556
Al3 Ti5 2.739526 1_455
Al3 Ti3 2.786007 1_555
Al3 Ti1 2.811108 1_555
Al4 Pd3 2.513842 1_555
Al4 Pd1 2.514769 1_545
Al4 Pd2 2.515720 1_555
Al4 Ti5 2.775921 1_555
Al4 Ti4 2.788641 1_555
Al4 Ti0 2.812333 1_555
Al5 Ru1 2.497706 1_555
Al5 Ru0 2.506430 1_656
Al5 Pd3 2.524078 1_555
Al5 Ti3 2.737994 1_655
Al5 Ti5 2.773953 1_555
Al5 Ti4 2.791523 1_555
Al6 Ru1 2.493505 1_544
Al6 Pd1 2.509683 1_545
Al6 Pd0 2.517183 1_545
Al6 Ti1 2.747018 1_655
Al6 Ti0 2.770797 1_555
Al6 Ti5 2.795541 1_555
Al7 Ru0 2.489497 1_655
Al7 Pd0 2.502232 1_555
Al7 Pd2 2.511146 1_555
Al7 Ti0 2.742949 1_555
Al7 Ti2 2.744758 1_655
Al7 Ti4 2.796779 1_555
Al8 Pd1 2.502183 1_556
Al8 Pd3 2.503734 1_555
Al8 Pd2 2.505316 1_556
Al8 Ti1 2.756220 1_555
Al8 Ti2 2.775068 1_555
Al8 Ti3 2.776348 1_555
Al9 Ru2 2.553977 1_545
Al9 Ru1 2.638734 1_444
Al9 Pd3 2.695660 1_555
Al9 Pd1 2.704433 1_545
Al9 Ti1 2.845672 1_555
Al9 Ti3 2.865600 1_544
Al9 Ti5 2.920339 1_555
Al10 Ru2 2.571500 1_545
Al10 Ru0 2.651967 1_656
Al10 Ru1 2.661141 1_545
Al10 Pd0 2.713115 1_545
Al10 Ti0 2.812936 1_556
Al10 Ti5 2.879779 1_555
Al10 Ti4 2.882975 1_545
Al11 Ru2 2.551886 1_555
Al11 Pd0 2.667318 1_555
Al11 Pd2 2.670219 1_555
Al11 Pd1 2.686751 1_555
Al11 Ti5 2.873925 1_565
Al11 Ti4 2.904782 1_555
Al11 Ti3 2.925127 1_554
Al12 Ru2 2.555367 1_545
Al12 Ru0 2.650970 1_656
Al12 Pd3 2.701907 1_555
Al12 Pd2 2.704666 1_556
Al12 Ti5 2.842472 1_555
Al12 Ti0 2.870889 1_556
Al12 Ti1 2.938281 1_555
Al13 Ru2 2.546637 1_555
Al13 Ru1 2.625432 1_555
Al13 Pd3 2.687885 1_555
Al13 Pd1 2.710217 1_556
Al13 Ti4 2.869893 1_555
Al13 Ti0 2.892698 1_566
Al13 Ti2 2.988638 1_555
Al14 Ru2 2.556130 1_555
Al14 Ru1 2.644806 1_454
Al14 Ru0 2.653145 1_555
Al14 Pd0 2.706467 1_455
Al14 Ti3 2.875235 1_554
Al14 Ti1 2.903050 1_565
Al14 Ti2 2.959340 1_555
Pd0 Ti6 2.704761 1_665
Pd0 Ti4 3.034615 1_555
Pd0 Ti5 3.073885 1_565
Pd0 Ti2 3.089742 1_655
Pd0 Ti1 3.113340 1_665
Pd1 Ti6 2.716805 1_564
Pd1 Ti3 3.064245 1_554
Pd1 Ti5 3.101243 1_565
Pd1 Ti2 3.108124 1_554
Pd1 Ti0 3.146143 1_565
Pd2 Ti6 2.684037 1_554
Pd2 Ti7 2.708828 1_555
Pd2 Ti1 3.116134 1_554
Pd2 Ti3 3.120829 1_554
Pd2 Ti0 3.130952 1_555
Pd2 Ti4 3.131027 1_555
Pd3 Ti7 2.725445 1_555
Pd3 Ti1 3.048395 1_555
Pd3 Ti5 3.089815 1_555
Pd3 Ti2 3.093242 1_555
Pd3 Ti4 3.121127 1_555
Ru0 Ti7 2.593575 1_555
Ru0 Ti0 3.015477 1_455
Ru0 Ti2 3.062052 1_555
Ru0 Ti5 3.076964 1_454
Ru0 Ti3 3.099015 1_554
Ru1 Ti4 3.040785 1_555
Ru1 Ti3 3.050957 1_655
Ru1 Ti0 3.051697 1_566
Ru1 Ti1 3.060158 1_666
Ru2 Ti6 2.485138 1_565
Ru2 Ti7 2.522742 1_555
