# generated using pymatgen
data_Zr3Nb2Ge3C
_symmetry_space_group_name_H-M   'P 1'
_cell_length_a   7.91169052
_cell_length_b   7.91169087
_cell_length_c   5.52391809
_cell_angle_alpha   90.00000000
_cell_angle_beta   90.00000000
_cell_angle_gamma   119.99999443
_symmetry_Int_Tables_number   1
_chemical_formula_structural   Zr3Nb2Ge3C
_chemical_formula_sum   'Zr6 Nb4 Ge6 C2'
_cell_volume   299.44460079
_cell_formula_units_Z   2
loop_
 _symmetry_equiv_pos_site_id
 _symmetry_equiv_pos_as_xyz
  1  'x, y, z'
loop_
 _atom_site_type_symbol
 _atom_site_label
 _atom_site_symmetry_multiplicity
 _atom_site_fract_x
 _atom_site_fract_y
 _atom_site_fract_z
 _atom_site_occupancy
  Zr  Zr0  1  0.23551658  1.00000000  0.75000000  1
  Zr  Zr1  1  0.76448342  0.00000000  0.25000000  1
  Zr  Zr2  1  1.00000000  0.23551658  0.75000000  1
  Zr  Zr3  1  0.00000000  0.76448342  0.25000000  1
  Zr  Zr4  1  0.76448342  0.76448342  0.75000000  1
  Zr  Zr5  1  0.23551658  0.23551658  0.25000000  1
  Nb  Nb0  1  0.33333300  0.66666700  0.50000000  1
  Nb  Nb1  1  0.66666700  0.33333300  0.50000000  1
  Nb  Nb2  1  0.66666700  0.33333300  0.00000000  1
  Nb  Nb3  1  0.33333300  0.66666700  0.00000000  1
  Ge  Ge0  1  0.59400755  1.00000000  0.75000000  1
  Ge  Ge1  1  0.40599245  0.00000000  0.25000000  1
  Ge  Ge2  1  1.00000000  0.59400755  0.75000000  1
  Ge  Ge3  1  0.00000000  0.40599245  0.25000000  1
  Ge  Ge4  1  0.40599245  0.40599245  0.75000000  1
  Ge  Ge5  1  0.59400755  0.59400755  0.25000000  1
  C  C0  1  0.00000000  0.00000000  0.50000000  1
  C  C1  1  0.00000000  0.00000000  0.00000000  1
loop_
_geom_bond_atom_site_label_1
_geom_bond_atom_site_label_2
_geom_bond_distance
_geom_bond_site_symmetry_2
Ge0 Nb1 2.770650 1_565
Ge0 Nb2 2.770650 1_566
Ge0 Nb3 2.770653 1_556
Ge0 Nb0 2.770653 1_555
Ge0 Zr4 2.793622 1_555
Ge0 Zr2 2.793622 1_565
Ge0 Zr0 2.836270 1_555
Ge0 Zr1 3.073687 1_565
Ge0 Zr1 3.073687 1_566
Ge1 Nb0 2.770650 1_545
Ge1 Nb3 2.770650 1_545
Ge1 Nb2 2.770653 1_555
Ge1 Nb1 2.770653 1_555
Ge1 Zr5 2.793622 1_555
Ge1 Zr3 2.793622 1_545
Ge1 Zr1 2.836270 1_555
Ge1 Zr0 3.073687 1_545
Ge1 Zr0 3.073687 1_544
Ge2 Nb0 2.770650 1_655
Ge2 Nb3 2.770650 1_656
Ge2 Nb1 2.770652 1_555
Ge2 Nb2 2.770652 1_556
Ge2 Zr4 2.793622 1_555
Ge2 Zr0 2.793622 1_655
Ge2 Zr2 2.836270 1_555
Ge2 Zr3 3.073687 1_656
Ge2 Zr3 3.073687 1_655
Ge3 Nb2 2.770650 1_455
Ge3 Nb1 2.770650 1_455
Ge3 Nb3 2.770652 1_555
Ge3 Nb0 2.770652 1_555
Ge3 Zr5 2.793622 1_555
Ge3 Zr1 2.793622 1_455
Ge3 Zr3 2.836270 1_555
Ge3 Zr2 3.073687 1_455
Ge3 Zr2 3.073687 1_454
Ge4 Nb1 2.770657 1_555
Ge4 Nb2 2.770657 1_556
Ge4 Nb3 2.770657 1_556
Ge4 Nb0 2.770657 1_555
Ge4 Zr2 2.793622 1_455
Ge4 Zr0 2.793622 1_545
Ge4 Zr4 2.836270 1_555
Ge4 Zr5 3.073687 1_556
Ge4 Zr5 3.073687 1_555
Ge5 Nb3 2.770657 1_555
Ge5 Nb0 2.770657 1_555
Ge5 Nb1 2.770657 1_555
Ge5 Nb2 2.770657 1_555
Ge5 Zr3 2.793622 1_655
Ge5 Zr1 2.793622 1_565
Ge5 Zr5 2.836270 1_555
Ge5 Zr4 3.073687 1_554
Ge5 Zr4 3.073687 1_555
C0 Zr0 2.319293 1_545
C0 Zr1 2.319293 1_455
C0 Zr2 2.319293 1_455
C0 Zr3 2.319293 1_545
C0 Zr5 2.319293 1_555
C0 Zr4 2.319293 1_445
C1 Zr0 2.319293 1_544
C1 Zr1 2.319293 1_455
C1 Zr2 2.319293 1_454
C1 Zr3 2.319293 1_545
C1 Zr5 2.319293 1_555
C1 Zr4 2.319293 1_444
