# generated using pymatgen
data_Hg2PF6
_symmetry_space_group_name_H-M   'P 1'
_cell_length_a   11.12653559
_cell_length_b   5.27005232
_cell_length_c   9.86353097
_cell_angle_alpha   89.93420024
_cell_angle_beta   90.00000000
_cell_angle_gamma   90.00000000
_symmetry_Int_Tables_number   1
_chemical_formula_structural   Hg2PF6
_chemical_formula_sum   'Hg8 P4 F24'
_cell_volume   578.37167354
_cell_formula_units_Z   4
loop_
 _symmetry_equiv_pos_site_id
 _symmetry_equiv_pos_as_xyz
  1  'x, y, z'
loop_
 _atom_site_type_symbol
 _atom_site_label
 _atom_site_symmetry_multiplicity
 _atom_site_fract_x
 _atom_site_fract_y
 _atom_site_fract_z
 _atom_site_occupancy
  Hg  Hg0  1  0.91274197  0.00470475  0.60610457  1
  Hg  Hg1  1  0.41274197  0.99529525  0.89389543  1
  Hg  Hg2  1  0.08725803  0.99529525  0.39389543  1
  Hg  Hg3  1  0.58725803  0.00470475  0.10610457  1
  Hg  Hg4  1  0.97348766  0.99896588  0.86969967  1
  Hg  Hg5  1  0.47348766  0.00103412  0.63030033  1
  Hg  Hg6  1  0.02651234  0.00103412  0.13030033  1
  Hg  Hg7  1  0.52651234  0.99896588  0.36969967  1
  P  P0  1  0.70849755  0.49988782  0.82992598  1
  P  P1  1  0.20849755  0.50011218  0.67007402  1
  P  P2  1  0.29150245  0.50011218  0.17007402  1
  P  P3  1  0.79150245  0.49988782  0.32992598  1
  F  F0  1  0.68879472  0.75240686  0.73920461  1
  F  F1  1  0.18879472  0.24759314  0.76079539  1
  F  F2  1  0.31120528  0.24759314  0.26079539  1
  F  F3  1  0.81120528  0.75240686  0.23920461  1
  F  F4  1  0.72956865  0.24548432  0.92167768  1
  F  F5  1  0.22956865  0.75451568  0.57832232  1
  F  F6  1  0.27043135  0.75451568  0.07832232  1
  F  F7  1  0.77043135  0.24548432  0.42167768  1
  F  F8  1  0.73652360  0.67562285  0.96119217  1
  F  F9  1  0.23652360  0.32437715  0.53880783  1
  F  F10  1  0.26347640  0.32437715  0.03880783  1
  F  F11  1  0.76347640  0.67562285  0.46119217  1
  F  F12  1  0.68232103  0.32344806  0.69952028  1
  F  F13  1  0.18232103  0.67655194  0.80047972  1
  F  F14  1  0.31767897  0.67655194  0.30047972  1
  F  F15  1  0.81767897  0.32344806  0.19952028  1
  F  F16  1  0.85069682  0.50135965  0.79302079  1
  F  F17  1  0.35069682  0.49864035  0.70697921  1
  F  F18  1  0.14930318  0.49864035  0.20697921  1
  F  F19  1  0.64930318  0.50135965  0.29302079  1
  F  F20  1  0.56784113  0.49636489  0.86907682  1
  F  F21  1  0.06784113  0.50363511  0.63092318  1
  F  F22  1  0.43215887  0.50363511  0.13092318  1
  F  F23  1  0.93215887  0.49636489  0.36907682  1
loop_
_geom_bond_atom_site_label_1
_geom_bond_atom_site_label_2
_geom_bond_distance
_geom_bond_site_symmetry_2
Hg0 Hg4 2.686531 1_545
Hg1 Hg5 2.686531 1_565
Hg2 Hg6 2.686531 1_565
Hg3 Hg7 2.686531 1_545
Hg4 Hg6 2.637316 1_666
Hg5 Hg7 2.637316 1_545
F0 P0 1.617729 1_555
F1 P1 1.617729 1_555
F2 P2 1.617729 1_555
F3 P3 1.617729 1_555
F4 P0 1.633624 1_555
F5 P1 1.633624 1_555
F6 P2 1.633624 1_555
F7 P3 1.633624 1_555
F8 P0 1.622987 1_555
F9 P1 1.622987 1_555
F10 P2 1.622987 1_555
F11 P3 1.622987 1_555
F12 P0 1.614515 1_555
F13 P1 1.614515 1_555
F14 P2 1.614515 1_555
F15 P3 1.614515 1_555
F16 P0 1.623537 1_555
F17 P1 1.623537 1_555
F18 P2 1.623537 1_555
F19 P3 1.623537 1_555
F20 P0 1.612059 1_555
F21 P1 1.612059 1_555
F22 P2 1.612059 1_555
F23 P3 1.612059 1_555
