# generated using pymatgen
data_Zr8Sc14TcOs7
_symmetry_space_group_name_H-M   'P 1'
_cell_length_a   9.48698923
_cell_length_b   9.48698962
_cell_length_c   9.48698936
_cell_angle_alpha   60.00000439
_cell_angle_beta   60.00000303
_cell_angle_gamma   60.00000338
_symmetry_Int_Tables_number   1
_chemical_formula_structural   Zr8Sc14TcOs7
_chemical_formula_sum   'Zr8 Sc14 Tc1 Os7'
_cell_volume   603.76826770
_cell_formula_units_Z   1
loop_
 _symmetry_equiv_pos_site_id
 _symmetry_equiv_pos_as_xyz
  1  'x, y, z'
loop_
 _atom_site_type_symbol
 _atom_site_label
 _atom_site_symmetry_multiplicity
 _atom_site_fract_x
 _atom_site_fract_y
 _atom_site_fract_z
 _atom_site_occupancy
  Zr  Zr0  1  0.84350737  0.84350737  0.84350737  1
  Zr  Zr1  1  0.53052010  0.15649263  0.15649263  1
  Zr  Zr2  1  0.15649263  0.15649263  0.53052010  1
  Zr  Zr3  1  0.15649263  0.53052010  0.15649263  1
  Zr  Zr4  1  0.84350737  0.84350737  0.46947990  1
  Zr  Zr5  1  0.84350737  0.46947990  0.84350737  1
  Zr  Zr6  1  0.46947990  0.84350737  0.84350737  1
  Zr  Zr7  1  0.15649263  0.15649263  0.15649263  1
  Sc  Sc0  1  0.19769263  0.80230737  0.19769263  1
  Sc  Sc1  1  0.19769263  0.80230737  0.80230737  1
  Sc  Sc2  1  0.80230737  0.19769263  0.19769263  1
  Sc  Sc3  1  0.80230737  0.80230737  0.19769263  1
  Sc  Sc4  1  0.19769263  0.19769263  0.80230737  1
  Sc  Sc5  1  0.80230737  0.19769263  0.80230737  1
  Sc  Sc6  1  0.38315942  0.38315942  0.38315942  1
  Sc  Sc7  1  0.14948127  0.61684058  0.61684058  1
  Sc  Sc8  1  0.61684058  0.14948127  0.61684058  1
  Sc  Sc9  1  0.61684058  0.61684058  0.14948127  1
  Sc  Sc10  1  0.38315942  0.85051873  0.38315942  1
  Sc  Sc11  1  0.38315942  0.38315942  0.85051873  1
  Sc  Sc12  1  0.85051873  0.38315942  0.38315942  1
  Sc  Sc13  1  0.61684058  0.61684058  0.61684058  1
  Tc  Tc0  1  0.00000000  0.00000000  0.00000000  1
  Os  Os0  1  0.50000000  0.50000000  0.00000000  1
  Os  Os1  1  0.00000000  0.00000000  0.50000000  1
  Os  Os2  1  0.50000000  0.00000000  0.50000000  1
  Os  Os3  1  0.00000000  0.50000000  0.50000000  1
  Os  Os4  1  0.50000000  0.00000000  0.00000000  1
  Os  Os5  1  0.00000000  0.50000000  0.00000000  1
  Os  Os6  1  0.50000000  0.50000000  0.50000000  1
loop_
_geom_bond_atom_site_label_1
_geom_bond_atom_site_label_2
_geom_bond_distance
_geom_bond_site_symmetry_2
Sc0 Tc0 2.652369 1_565
Sc1 Tc0 2.652369 1_566
Sc2 Tc0 2.652369 1_655
Sc3 Tc0 2.652369 1_665
Sc4 Tc0 2.652369 1_556
Sc5 Tc0 2.652369 1_656
Os0 Zr5 2.748848 1_554
Os0 Zr3 2.748848 1_555
Os0 Zr6 2.748849 1_554
Os0 Zr1 2.748849 1_555
Os0 Sc6 2.973368 1_555
Os0 Sc13 2.973368 1_554
Os0 Sc9 2.973392 1_555
Os0 Sc11 2.973392 1_554
Os1 Zr2 2.748832 1_555
Os1 Zr4 2.748832 1_445
Os1 Zr0 2.748844 1_445
Os1 Zr7 2.748844 1_555
Os1 Sc10 2.973369 1_545
Os1 Sc8 2.973369 1_455
Os1 Sc12 2.973370 1_455
Os1 Sc7 2.973370 1_545
Os2 Zr4 2.748848 1_545
Os2 Zr2 2.748848 1_555
Os2 Zr6 2.748849 1_545
Os2 Zr1 2.748849 1_555
Os2 Sc6 2.973368 1_555
Os2 Sc13 2.973368 1_545
Os2 Sc8 2.973392 1_555
Os2 Sc10 2.973392 1_545
Os3 Zr5 2.748849 1_455
Os3 Zr3 2.748849 1_555
Os3 Zr4 2.748849 1_455
Os3 Zr2 2.748849 1_555
Os3 Sc6 2.973368 1_555
Os3 Sc13 2.973368 1_455
Os3 Sc7 2.973392 1_555
Os3 Sc12 2.973392 1_455
Os4 Zr1 2.748832 1_555
Os4 Zr6 2.748832 1_544
Os4 Zr0 2.748844 1_544
Os4 Zr7 2.748844 1_555
Os4 Sc10 2.973370 1_545
Os4 Sc8 2.973370 1_554
Os4 Sc11 2.973370 1_554
Os4 Sc9 2.973370 1_545
Os5 Zr3 2.748832 1_555
Os5 Zr5 2.748832 1_454
Os5 Zr0 2.748845 1_454
Os5 Zr7 2.748845 1_555
Os5 Sc11 2.973369 1_554
Os5 Sc9 2.973369 1_455
Os5 Sc12 2.973370 1_455
Os5 Sc7 2.973370 1_554
Os6 Sc12 2.715151 1_555
Os6 Sc7 2.715151 1_555
Os6 Sc11 2.715151 1_555
Os6 Sc9 2.715151 1_555
Os6 Sc10 2.715151 1_555
Os6 Sc8 2.715151 1_555
Os6 Sc13 2.715174 1_555
Os6 Sc6 2.715174 1_555
