# generated using pymatgen
data_Hf8Nb2Sn7Ge
_symmetry_space_group_name_H-M   'P 1'
_cell_length_a   5.77847070
_cell_length_b   8.61392913
_cell_length_c   8.61392996
_cell_angle_alpha   120.00000452
_cell_angle_beta   90.00014935
_cell_angle_gamma   89.99968955
_symmetry_Int_Tables_number   1
_chemical_formula_structural   Hf8Nb2Sn7Ge
_chemical_formula_sum   'Hf8 Nb2 Sn7 Ge1'
_cell_volume   371.31813312
_cell_formula_units_Z   1
loop_
 _symmetry_equiv_pos_site_id
 _symmetry_equiv_pos_as_xyz
  1  'x, y, z'
loop_
 _atom_site_type_symbol
 _atom_site_label
 _atom_site_symmetry_multiplicity
 _atom_site_fract_x
 _atom_site_fract_y
 _atom_site_fract_z
 _atom_site_occupancy
  Hf  Hf0  1  0.99999956  0.66666773  0.33333703  1
  Hf  Hf1  1  0.99999956  0.33333071  0.66666297  1
  Hf  Hf2  1  0.73635734  0.27446124  1.00000000  1
  Hf  Hf3  1  0.73635942  0.72553397  0.72553997  1
  Hf  Hf4  1  0.73635942  0.99999399  0.27446003  1
  Hf  Hf5  1  0.26364407  0.72554015  0.00000000  1
  Hf  Hf6  1  0.26364031  0.27446536  0.27445952  1
  Hf  Hf7  1  0.26364031  0.00000584  0.72554048  1
  Nb  Nb0  1  0.49999979  0.33332811  0.66665537  1
  Nb  Nb1  1  0.49999979  0.66667274  0.33334463  1
  Sn  Sn0  1  0.75348061  0.60917263  1.00000000  1
  Sn  Sn1  1  0.75347136  0.39081710  0.39081767  1
  Sn  Sn2  1  0.75347136  0.99999943  0.60918233  1
  Sn  Sn3  1  0.24652060  0.39082885  0.00000000  1
  Sn  Sn4  1  0.24652782  0.60918178  0.60918264  1
  Sn  Sn5  1  0.24652782  0.99999914  0.39081736  1
  Sn  Sn6  1  0.99999893  0.99999993  0.00000000  1
  Ge  Ge0  1  0.50000193  0.00000129  0.00000000  1
loop_
_geom_bond_atom_site_label_1
_geom_bond_atom_site_label_2
_geom_bond_distance
_geom_bond_site_symmetry_2
Hf0 Nb1 2.889234 1_555
Hf0 Nb1 2.889237 1_655
Hf0 Sn3 3.016124 1_655
Hf0 Sn0 3.016127 1_554
Hf0 Sn2 3.016133 1_555
Hf0 Sn4 3.016134 1_655
Hf0 Sn1 3.016157 1_555
Hf0 Sn5 3.016159 1_655
Hf1 Nb0 2.889234 1_555
Hf1 Nb0 2.889237 1_655
Hf1 Sn3 3.016124 1_656
Hf1 Sn0 3.016126 1_555
Hf1 Sn5 3.016134 1_645
Hf1 Sn1 3.016134 1_555
Hf1 Sn2 3.016157 1_545
Hf1 Sn4 3.016159 1_655
Hf2 Sn6 2.812515 1_546
Hf2 Sn0 2.884878 1_555
Hf2 Sn2 2.995555 1_545
Hf2 Sn1 2.995555 1_556
Hf2 Sn3 3.002751 1_556
Hf2 Sn3 3.113726 1_656
Hf3 Sn6 2.812531 1_556
Hf3 Sn1 2.884945 1_555
Hf3 Sn0 2.995576 1_555
Hf3 Sn2 2.995597 1_555
Hf3 Sn4 3.002693 1_555
Hf3 Sn4 3.113711 1_655
Hf4 Sn6 2.812531 1_555
Hf4 Sn2 2.884946 1_555
Hf4 Sn0 2.995576 1_554
Hf4 Sn1 2.995597 1_565
Hf4 Sn5 3.002693 1_555
Hf4 Sn5 3.113711 1_655
Hf5 Sn6 2.812515 1_455
Hf5 Sn3 2.884877 1_555
Hf5 Sn5 2.995548 1_555
Hf5 Sn4 2.995548 1_554
Hf5 Sn0 3.002749 1_554
Hf5 Sn0 3.113727 1_454
Hf6 Sn6 2.812533 1_445
Hf6 Sn4 2.884947 1_555
Hf6 Sn3 2.995585 1_555
Hf6 Sn5 2.995604 1_545
Hf6 Sn1 3.002691 1_555
Hf6 Sn1 3.113714 1_455
Hf7 Sn6 2.812533 1_446
Hf7 Sn5 2.884948 1_545
Hf7 Sn3 2.995585 1_556
Hf7 Sn4 2.995604 1_545
Hf7 Sn2 3.002691 1_545
Hf7 Sn2 3.113715 1_445
Nb0 Sn1 3.035254 1_555
Nb0 Sn5 3.035267 1_545
Nb0 Sn4 3.035285 1_555
Nb0 Sn2 3.035300 1_545
Nb0 Sn3 3.035376 1_556
Nb0 Sn0 3.035382 1_555
Nb1 Sn2 3.035254 1_555
Nb1 Sn4 3.035267 1_555
Nb1 Sn5 3.035285 1_555
Nb1 Sn1 3.035300 1_555
Nb1 Sn3 3.035376 1_555
Nb1 Sn0 3.035382 1_554
Ge0 Hf2 2.730332 1_554
Ge0 Hf5 2.730348 1_545
Ge0 Hf6 2.730354 1_555
Ge0 Hf7 2.730354 1_554
Ge0 Hf3 2.730356 1_544
Ge0 Hf4 2.730356 1_545
Ge0 Sn6 2.889218 1_545
Ge0 Sn6 2.889253 1_445
