# generated using pymatgen
data_Li2FeIO6
_symmetry_space_group_name_H-M   'P 1'
_cell_length_a   5.04221229
_cell_length_b   5.04208401
_cell_length_c   5.32564360
_cell_angle_alpha   118.25501355
_cell_angle_beta   89.99718120
_cell_angle_gamma   119.99843799
_symmetry_Int_Tables_number   1
_chemical_formula_structural   Li2FeIO6
_chemical_formula_sum   'Li2 Fe1 I1 O6'
_cell_volume   98.19116268
_cell_formula_units_Z   1
loop_
 _symmetry_equiv_pos_site_id
 _symmetry_equiv_pos_as_xyz
  1  'x, y, z'
loop_
 _atom_site_type_symbol
 _atom_site_label
 _atom_site_symmetry_multiplicity
 _atom_site_fract_x
 _atom_site_fract_y
 _atom_site_fract_z
 _atom_site_occupancy
  Li  Li0  1  0.71616917  0.43219780  0.14819958  1
  Li  Li1  1  0.20566114  0.41131081  0.61709765  1
  Fe  Fe0  1  0.99457382  0.98912980  0.98369356  1
  I  I0  1  0.50131513  0.00265306  0.50398461  1
  O  O0  1  0.61220265  0.48470735  0.76509273  1
  O  O1  1  0.75773134  0.14520001  0.28173466  1
  O  O2  1  0.87242959  0.15280046  0.76507507  1
  O  O3  1  0.13660141  0.89435383  0.28173323  1
  O  O4  1  0.28021352  0.89241426  0.76494529  1
  O  O5  1  0.38750321  0.52402961  0.28164162  1
loop_
_geom_bond_atom_site_label_1
_geom_bond_atom_site_label_2
_geom_bond_distance
_geom_bond_site_symmetry_2
Li0 O3 1.980215 1_655
Li0 O1 1.980219 1_555
Li0 O5 1.980249 1_555
Li0 O2 2.270860 1_554
Li0 O0 2.271128 1_554
Li0 O4 2.272414 1_544
Li1 O4 1.981271 1_555
Li1 O0 1.981303 1_555
Li1 O2 1.981316 1_455
Li1 O3 2.188611 1_545
Li1 O1 2.189173 1_455
Li1 O5 2.189846 1_555
Fe0 O4 1.957951 1_655
Fe0 O2 1.958028 1_565
Fe0 O0 1.958213 1_555
Fe0 O3 2.078709 1_656
Fe0 O1 2.078871 1_566
Fe0 O5 2.079015 1_666
I0 O5 1.861447 1_545
I0 O3 1.861477 1_545
I0 O1 1.861514 1_555
I0 O4 1.896027 1_545
I0 O0 1.896062 1_555
I0 O2 1.896080 1_555
