# generated using pymatgen
data_KRbBeI4
_symmetry_space_group_name_H-M   'P 1'
_cell_length_a   7.68184432
_cell_length_b   8.07875426
_cell_length_c   9.90084503
_cell_angle_alpha   90.00000000
_cell_angle_beta   108.61706938
_cell_angle_gamma   90.00000000
_symmetry_Int_Tables_number   1
_chemical_formula_structural   KRbBeI4
_chemical_formula_sum   'K2 Rb2 Be2 I8'
_cell_volume   582.29200601
_cell_formula_units_Z   2
loop_
 _symmetry_equiv_pos_site_id
 _symmetry_equiv_pos_as_xyz
  1  'x, y, z'
loop_
 _atom_site_type_symbol
 _atom_site_label
 _atom_site_symmetry_multiplicity
 _atom_site_fract_x
 _atom_site_fract_y
 _atom_site_fract_z
 _atom_site_occupancy
  K  K0  1  0.28274325  0.72990012  0.95282714  1
  K  K1  1  0.71725675  0.22990012  0.04717286  1
  Rb  Rb0  1  0.21762784  0.73422127  0.42506454  1
  Rb  Rb1  1  0.78237216  0.23422127  0.57493546  1
  Be  Be0  1  0.70353277  0.76098466  0.79945624  1
  Be  Be1  1  0.29646723  0.26098466  0.20054376  1
  I  I0  1  0.52423704  0.50752602  0.75123465  1
  I  I1  1  0.47576296  0.00752602  0.24876535  1
  I  I2  1  0.51410741  0.49042882  0.26152292  1
  I  I3  1  0.48589259  0.99042882  0.73847708  1
  I  I4  1  0.87863729  0.78006745  0.05113093  1
  I  I5  1  0.12136271  0.28006745  0.94886907  1
  I  I6  1  0.89810571  0.77147167  0.64642591  1
  I  I7  1  0.10189429  0.27147167  0.35357409  1
loop_
_geom_bond_atom_site_label_1
_geom_bond_atom_site_label_2
_geom_bond_distance
_geom_bond_site_symmetry_2
Be0 I0 2.428558 1_555
Be0 I4 2.429425 1_556
Be0 I3 2.439493 1_555
Be0 I6 2.445974 1_555
Be1 I1 2.428558 1_555
Be1 I5 2.429425 1_554
Be1 I2 2.439493 1_555
Be1 I7 2.445974 1_555
I0 K0 3.607875 1_555
I0 K1 3.611127 1_556
I0 Rb1 3.750196 1_555
I0 Rb0 3.804468 1_555
I1 K1 3.607875 1_555
I1 K0 3.611127 1_544
I1 Rb0 3.750196 1_545
I1 Rb1 3.804468 1_555
I2 K0 3.574156 1_554
I2 K1 3.672034 1_555
I2 Rb0 3.747334 1_555
I2 Rb1 3.751936 1_555
I3 K1 3.574156 1_566
I3 K0 3.672034 1_555
I3 Rb1 3.747334 1_565
I3 Rb0 3.751936 1_555
I4 K0 3.560505 1_654
I4 Rb0 3.803881 1_655
I4 K1 3.835879 1_565
I5 K1 3.560505 1_456
I5 Rb1 3.803881 1_455
I5 K0 3.835879 1_555
I6 K0 3.510419 1_655
I6 Rb0 3.788579 1_655
I6 Rb1 3.855588 1_565
I7 K1 3.510419 1_455
I7 Rb1 3.788579 1_455
I7 Rb0 3.855588 1_555
