# generated using pymatgen
data_Hf16Ni4Mo3Au
_symmetry_space_group_name_H-M   'P 1'
_cell_length_a   8.66393320
_cell_length_b   8.66393346
_cell_length_c   8.66393413
_cell_angle_alpha   59.82849470
_cell_angle_beta   59.82848234
_cell_angle_gamma   59.82849024
_symmetry_Int_Tables_number   1
_chemical_formula_structural   Hf16Ni4Mo3Au
_chemical_formula_sum   'Hf16 Ni4 Mo3 Au1'
_cell_volume   458.07484820
_cell_formula_units_Z   1
loop_
 _symmetry_equiv_pos_site_id
 _symmetry_equiv_pos_as_xyz
  1  'x, y, z'
loop_
 _atom_site_type_symbol
 _atom_site_label
 _atom_site_symmetry_multiplicity
 _atom_site_fract_x
 _atom_site_fract_y
 _atom_site_fract_z
 _atom_site_occupancy
  Hf  Hf0  1  0.69569579  0.10039476  0.10039476  1
  Hf  Hf1  1  0.10039476  0.69569579  0.10039476  1
  Hf  Hf2  1  0.10039476  0.10039476  0.69569579  1
  Hf  Hf3  1  0.10268325  0.10268325  0.10268325  1
  Hf  Hf4  1  0.31542398  0.31542398  0.69344477  1
  Hf  Hf5  1  0.68555164  0.68555164  0.31485412  1
  Hf  Hf6  1  0.31542398  0.69344477  0.31542398  1
  Hf  Hf7  1  0.68555164  0.31485412  0.68555164  1
  Hf  Hf8  1  0.69344477  0.31542398  0.31542398  1
  Hf  Hf9  1  0.31485412  0.68555164  0.68555164  1
  Hf  Hf10  1  0.95256945  0.95256945  0.54604320  1
  Hf  Hf11  1  0.55170234  0.55170234  0.94535179  1
  Hf  Hf12  1  0.95256945  0.54604320  0.95256945  1
  Hf  Hf13  1  0.55170234  0.94535179  0.55170234  1
  Hf  Hf14  1  0.54604320  0.95256945  0.95256945  1
  Hf  Hf15  1  0.94535179  0.55170234  0.55170234  1
  Ni  Ni0  1  0.32456458  0.89045353  0.89045353  1
  Ni  Ni1  1  0.89045353  0.32456458  0.89045353  1
  Ni  Ni2  1  0.89045353  0.89045353  0.32456458  1
  Ni  Ni3  1  0.89101237  0.89101237  0.89101237  1
  Mo  Mo0  1  0.99734212  0.33217908  0.33217908  1
  Mo  Mo1  1  0.33217908  0.99734212  0.33217908  1
  Mo  Mo2  1  0.33217908  0.33217908  0.99734212  1
  Au  Au0  1  0.33245446  0.33245446  0.33245446  1
loop_
_geom_bond_atom_site_label_1
_geom_bond_atom_site_label_2
_geom_bond_distance
_geom_bond_site_symmetry_2
Hf0 Ni3 2.565508 1_544
Hf0 Ni1 2.566297 1_554
Hf0 Ni2 2.566298 1_545
Hf0 Mo1 3.068549 1_545
Hf0 Mo2 3.068549 1_554
Hf1 Ni3 2.565508 1_454
Hf1 Ni2 2.566297 1_455
Hf1 Ni0 2.566297 1_554
Hf1 Mo2 3.068549 1_554
Hf1 Mo0 3.068549 1_455
Hf2 Ni3 2.565508 1_445
Hf2 Ni1 2.566297 1_455
Hf2 Ni0 2.566298 1_545
Hf2 Mo1 3.068549 1_545
Hf2 Mo0 3.068549 1_455
Hf3 Ni0 2.598046 1_544
Hf3 Ni2 2.598046 1_445
Hf3 Ni1 2.598047 1_454
Hf3 Mo2 3.010931 1_554
Hf3 Mo0 3.010931 1_455
Hf3 Mo1 3.010931 1_545
Hf4 Mo2 2.786417 1_555
Hf5 Mo1 2.885396 1_555
Hf5 Mo0 2.885396 1_555
Hf6 Mo1 2.786417 1_555
Hf7 Mo2 2.885396 1_555
Hf7 Mo0 2.885396 1_555
Hf8 Mo0 2.786417 1_555
Hf9 Mo2 2.885396 1_555
Hf9 Mo1 2.885396 1_555
Hf10 Ni3 2.565762 1_555
Hf10 Ni2 2.574591 1_555
Hf10 Mo1 2.972370 1_655
Hf10 Mo0 2.972371 1_565
Hf11 Ni1 2.538648 1_555
Hf11 Ni0 2.538649 1_555
Hf11 Mo2 3.058008 1_555
Hf12 Ni3 2.565762 1_555
Hf12 Ni1 2.574590 1_555
Hf12 Mo2 2.972371 1_655
Hf12 Mo0 2.972371 1_556
Hf13 Ni2 2.538648 1_555
Hf13 Ni0 2.538648 1_555
Hf13 Mo1 3.058008 1_555
Hf14 Ni3 2.565762 1_555
Hf14 Ni0 2.574590 1_555
Hf14 Mo1 2.972371 1_556
Hf14 Mo2 2.972371 1_565
Hf15 Ni1 2.538649 1_555
Hf15 Ni2 2.538649 1_555
Hf15 Mo0 3.058008 1_555
Mo0 Mo2 2.893481 1_654
Mo0 Mo1 2.893481 1_645
Mo1 Mo2 2.893482 1_564
Au0 Mo0 2.905791 1_455
Au0 Mo1 2.905791 1_545
Au0 Mo2 2.905791 1_554
Au0 Hf8 2.986560 1_555
Au0 Hf6 2.986560 1_555
Au0 Hf4 2.986561 1_555
Au0 Hf15 3.046998 1_455
Au0 Hf11 3.046998 1_554
Au0 Hf13 3.046999 1_545
Au0 Hf0 3.054791 1_555
Au0 Hf2 3.054791 1_555
Au0 Hf1 3.054792 1_555
