# generated using pymatgen
data_Ti3Ga3Ir2Rh
_symmetry_space_group_name_H-M   'P 1'
_cell_length_a   7.22961628
_cell_length_b   7.22961586
_cell_length_c   2.96940978
_cell_angle_alpha   90.00000000
_cell_angle_beta   90.00000000
_cell_angle_gamma   119.99999301
_symmetry_Int_Tables_number   1
_chemical_formula_structural   Ti3Ga3Ir2Rh
_chemical_formula_sum   'Ti3 Ga3 Ir2 Rh1'
_cell_volume   134.40990242
_cell_formula_units_Z   1
loop_
 _symmetry_equiv_pos_site_id
 _symmetry_equiv_pos_as_xyz
  1  'x, y, z'
loop_
 _atom_site_type_symbol
 _atom_site_label
 _atom_site_symmetry_multiplicity
 _atom_site_fract_x
 _atom_site_fract_y
 _atom_site_fract_z
 _atom_site_occupancy
  Ti  Ti0  1  1.00000000  0.38024758  0.50000000  1
  Ti  Ti1  1  0.61975242  0.61975242  0.50000000  1
  Ti  Ti2  1  0.38024758  1.00000000  0.50000000  1
  Ga  Ga0  1  1.00000000  0.71282828  0.00000000  1
  Ga  Ga1  1  0.28717172  0.28717172  0.00000000  1
  Ga  Ga2  1  0.71282828  1.00000000  0.00000000  1
  Ir  Ir0  1  0.33333300  0.66666700  0.00000000  1
  Ir  Ir1  1  0.66666700  0.33333300  0.00000000  1
  Rh  Rh0  1  0.00000000  0.00000000  0.50000000  1
loop_
_geom_bond_atom_site_label_1
_geom_bond_atom_site_label_2
_geom_bond_distance
_geom_bond_site_symmetry_2
Ga0 Rh0 2.552393 1_664
Ga0 Rh0 2.552393 1_665
Ga0 Ir0 2.592892 1_655
Ga0 Ir1 2.592896 1_555
Ga0 Ti0 2.825887 1_554
Ga0 Ti0 2.825887 1_555
Ga0 Ti1 2.892153 1_555
Ga0 Ti1 2.892153 1_554
Ga0 Ti2 2.892153 1_655
Ga0 Ti2 2.892153 1_654
Ga1 Rh0 2.552393 1_555
Ga1 Rh0 2.552393 1_554
Ga1 Ir0 2.592899 1_555
Ga1 Ir1 2.592899 1_555
Ga1 Ti1 2.825887 1_555
Ga1 Ti1 2.825887 1_554
Ga1 Ti2 2.892153 1_544
Ga1 Ti2 2.892153 1_545
Ga1 Ti0 2.892153 1_455
Ga1 Ti0 2.892153 1_454
Ga2 Rh0 2.552393 1_664
Ga2 Rh0 2.552393 1_665
Ga2 Ir1 2.592892 1_565
Ga2 Ir0 2.592896 1_555
Ga2 Ti2 2.825887 1_554
Ga2 Ti2 2.825887 1_555
Ga2 Ti1 2.892153 1_555
Ga2 Ti1 2.892153 1_554
Ga2 Ti0 2.892153 1_565
Ga2 Ti0 2.892153 1_564
Ir0 Ti2 2.703607 1_554
Ir0 Ti2 2.703607 1_555
Ir0 Ti0 2.703610 1_455
Ir0 Ti0 2.703610 1_454
Ir0 Ti1 2.703613 1_555
Ir0 Ti1 2.703613 1_554
Ir1 Ti0 2.703608 1_555
Ir1 Ti0 2.703608 1_554
Ir1 Ti2 2.703610 1_545
Ir1 Ti2 2.703610 1_544
Ir1 Ti1 2.703613 1_555
Ir1 Ti1 2.703613 1_554
Rh0 Ti0 2.749044 1_455
Rh0 Ti2 2.749044 1_545
Rh0 Ti1 2.749044 1_445
