# generated using pymatgen
data_Ni3Te2
_symmetry_space_group_name_H-M   'P 1'
_cell_length_a   3.78637139
_cell_length_b   6.06989881
_cell_length_c   7.52566441
_cell_angle_alpha   91.18861630
_cell_angle_beta   90.00000000
_cell_angle_gamma   90.00000000
_symmetry_Int_Tables_number   1
_chemical_formula_structural   Ni3Te2
_chemical_formula_sum   'Ni6 Te4'
_cell_volume   172.92430917
_cell_formula_units_Z   2
loop_
 _symmetry_equiv_pos_site_id
 _symmetry_equiv_pos_as_xyz
  1  'x, y, z'
loop_
 _atom_site_type_symbol
 _atom_site_label
 _atom_site_symmetry_multiplicity
 _atom_site_fract_x
 _atom_site_fract_y
 _atom_site_fract_z
 _atom_site_occupancy
  Ni  Ni0  1  0.25000000  0.29036783  0.63267070  1
  Ni  Ni1  1  0.75000000  0.70963217  0.36732930  1
  Ni  Ni2  1  0.25000000  0.00808377  0.37233249  1
  Ni  Ni3  1  0.75000000  0.99191623  0.62766751  1
  Ni  Ni4  1  0.25000000  0.99351559  0.87510406  1
  Ni  Ni5  1  0.75000000  0.00648441  0.12489594  1
  Te  Te0  1  0.25000000  0.72528628  0.12146284  1
  Te  Te1  1  0.75000000  0.27471372  0.87853716  1
  Te  Te2  1  0.25000000  0.71466024  0.61796361  1
  Te  Te3  1  0.75000000  0.28533976  0.38203639  1
loop_
_geom_bond_atom_site_label_1
_geom_bond_atom_site_label_2
_geom_bond_distance
_geom_bond_site_symmetry_2
Ni0 Ni2 2.575873 1_555
Ni0 Te2 2.580082 1_555
Ni0 Ni4 2.590714 1_545
Ni0 Ni3 2.620025 1_445
Ni0 Ni3 2.620025 1_545
Ni0 Te1 2.650305 1_455
Ni0 Te1 2.650305 1_555
Ni0 Te3 2.672154 1_555
Ni0 Te3 2.672154 1_455
Ni1 Ni3 2.575873 1_555
Ni1 Te3 2.580082 1_555
Ni1 Ni5 2.590714 1_565
Ni1 Ni2 2.620025 1_665
Ni1 Ni2 2.620025 1_565
Ni1 Te0 2.650305 1_555
Ni1 Te0 2.650305 1_655
Ni1 Te2 2.672154 1_555
Ni1 Te2 2.672154 1_655
Ni2 Te0 2.525172 1_545
Ni2 Te3 2.533099 1_455
Ni2 Te3 2.533099 1_555
Ni2 Te2 2.593420 1_545
Ni2 Ni5 2.655373 1_555
Ni2 Ni5 2.655373 1_455
Ni2 Ni3 2.700744 1_545
Ni2 Ni3 2.700744 1_445
Ni3 Te1 2.525172 1_565
Ni3 Te2 2.533099 1_555
Ni3 Te2 2.533099 1_655
Ni3 Te3 2.593420 1_565
Ni3 Ni4 2.655373 1_655
Ni3 Ni4 2.655373 1_555
Ni4 Te0 2.492667 1_556
Ni4 Te2 2.544386 1_555
Ni4 Te1 2.548785 1_465
Ni4 Te1 2.548785 1_565
Ni4 Ni5 2.667966 1_566
Ni4 Ni5 2.667966 1_466
Ni5 Te1 2.492667 1_554
Ni5 Te3 2.544386 1_555
Ni5 Te0 2.548785 1_645
Ni5 Te0 2.548785 1_545
