# generated using pymatgen
data_YHg2
_symmetry_space_group_name_H-M   'P 1'
_cell_length_a   9.76317428
_cell_length_b   9.76317483
_cell_length_c   6.98382258
_cell_angle_alpha   90.00000000
_cell_angle_beta   90.00000000
_cell_angle_gamma   119.99999815
_symmetry_Int_Tables_number   1
_chemical_formula_structural   YHg2
_chemical_formula_sum   'Y8 Hg16'
_cell_volume   576.50880642
_cell_formula_units_Z   8
loop_
 _symmetry_equiv_pos_site_id
 _symmetry_equiv_pos_as_xyz
  1  'x, y, z'
loop_
 _atom_site_type_symbol
 _atom_site_label
 _atom_site_symmetry_multiplicity
 _atom_site_fract_x
 _atom_site_fract_y
 _atom_site_fract_z
 _atom_site_occupancy
  Y  Y0_0  1  0.00000000  0.00000000  0.00000000  1
  Y  Y0_1  1  0.00000000  0.00000000  0.50000000  1
  Y  Y0_2  1  0.00000000  0.50000000  0.00000000  1
  Y  Y0_3  1  0.00000000  0.50000000  0.50000000  1
  Y  Y0_4  1  0.50000000  0.00000000  0.00000000  1
  Y  Y0_5  1  0.50000000  0.00000000  0.50000000  1
  Y  Y0_6  1  0.50000000  0.50000000  0.00000000  1
  Y  Y0_7  1  0.50000000  0.50000000  0.50000000  1
  Hg  Hg0_0  1  0.16666650  0.33333350  0.25000000  1
  Hg  Hg0_1  1  0.16666650  0.33333350  0.75000000  1
  Hg  Hg0_2  1  0.16666650  0.83333350  0.25000000  1
  Hg  Hg0_3  1  0.16666650  0.83333350  0.75000000  1
  Hg  Hg0_4  1  0.66666650  0.33333350  0.25000000  1
  Hg  Hg0_5  1  0.66666650  0.33333350  0.75000000  1
  Hg  Hg0_6  1  0.66666650  0.83333350  0.25000000  1
  Hg  Hg0_7  1  0.66666650  0.83333350  0.75000000  1
  Hg  Hg1_0  1  0.33333350  0.16666650  0.25000000  1
  Hg  Hg1_1  1  0.33333350  0.16666650  0.75000000  1
  Hg  Hg1_2  1  0.33333350  0.66666650  0.25000000  1
  Hg  Hg1_3  1  0.33333350  0.66666650  0.75000000  1
  Hg  Hg1_4  1  0.83333350  0.16666650  0.25000000  1
  Hg  Hg1_5  1  0.83333350  0.16666650  0.75000000  1
  Hg  Hg1_6  1  0.83333350  0.66666650  0.25000000  1
  Hg  Hg1_7  1  0.83333350  0.66666650  0.75000000  1
loop_
_geom_bond_atom_site_label_1
_geom_bond_atom_site_label_2
_geom_bond_distance
_geom_bond_site_symmetry_2
Y0_0 Y0_1 3.491911 1_555
Y0_0 Y0_1 3.491911 1_554
Y0_2 Y0_3 3.491911 1_555
Y0_2 Y0_3 3.491911 1_554
Y0_4 Y0_5 3.491911 1_555
Y0_4 Y0_5 3.491911 1_554
Y0_6 Y0_7 3.491911 1_555
Y0_6 Y0_7 3.491911 1_554
Hg0_0 Hg1_4 2.818383 1_455
Hg0_0 Hg1_2 2.818383 1_555
Hg0_0 Hg1_0 2.818391 1_555
Hg0_0 Y0_3 3.315365 1_555
Hg0_0 Y0_2 3.315365 1_555
Hg0_0 Y0_6 3.315368 1_555
Hg0_0 Y0_7 3.315368 1_555
Hg0_0 Y0_1 3.315368 1_555
Hg0_0 Y0_0 3.315368 1_555
Hg0_1 Hg1_5 2.818383 1_455
Hg0_1 Hg1_3 2.818383 1_555
Hg0_1 Hg1_1 2.818391 1_555
Hg0_1 Y0_3 3.315365 1_555
Hg0_1 Y0_2 3.315365 1_556
Hg0_1 Y0_7 3.315368 1_555
Hg0_1 Y0_6 3.315368 1_556
Hg0_1 Y0_1 3.315368 1_555
Hg0_1 Y0_0 3.315368 1_556
Hg0_2 Hg1_6 2.818383 1_455
Hg0_2 Hg1_0 2.818383 1_565
Hg0_2 Hg1_2 2.818391 1_555
Hg0_2 Y0_1 3.315365 1_565
Hg0_2 Y0_0 3.315365 1_565
Hg0_2 Y0_4 3.315368 1_565
Hg0_2 Y0_5 3.315368 1_565
Hg0_2 Y0_3 3.315368 1_555
Hg0_2 Y0_2 3.315368 1_555
Hg0_3 Hg1_7 2.818383 1_455
Hg0_3 Hg1_1 2.818383 1_565
Hg0_3 Hg1_3 2.818391 1_555
Hg0_3 Y0_1 3.315365 1_565
Hg0_3 Y0_0 3.315365 1_566
Hg0_3 Y0_5 3.315368 1_565
Hg0_3 Y0_4 3.315368 1_566
Hg0_3 Y0_3 3.315368 1_555
Hg0_3 Y0_2 3.315368 1_556
Hg0_4 Hg1_0 2.818383 1_555
Hg0_4 Hg1_6 2.818383 1_555
Hg0_4 Hg1_4 2.818391 1_555
Hg0_4 Y0_7 3.315365 1_555
Hg0_4 Y0_6 3.315365 1_555
Hg0_4 Y0_3 3.315368 1_655
Hg0_4 Y0_2 3.315368 1_655
Hg0_4 Y0_5 3.315368 1_555
Hg0_4 Y0_4 3.315368 1_555
Hg0_5 Hg1_1 2.818383 1_555
Hg0_5 Hg1_7 2.818383 1_555
Hg0_5 Hg1_5 2.818391 1_555
Hg0_5 Y0_7 3.315365 1_555
Hg0_5 Y0_6 3.315365 1_556
Hg0_5 Y0_3 3.315368 1_655
Hg0_5 Y0_2 3.315368 1_656
Hg0_5 Y0_5 3.315368 1_555
Hg0_5 Y0_4 3.315368 1_556
Hg0_6 Hg1_2 2.818383 1_555
Hg0_6 Hg1_4 2.818383 1_565
Hg0_6 Hg1_6 2.818391 1_555
Hg0_6 Y0_4 3.315365 1_565
Hg0_6 Y0_5 3.315365 1_565
Hg0_6 Y0_0 3.315368 1_665
Hg0_6 Y0_1 3.315368 1_665
Hg0_6 Y0_6 3.315368 1_555
Hg0_6 Y0_7 3.315368 1_555
Hg0_7 Hg1_3 2.818383 1_555
Hg0_7 Hg1_5 2.818383 1_565
Hg0_7 Hg1_7 2.818391 1_555
Hg0_7 Y0_5 3.315365 1_565
Hg0_7 Y0_4 3.315365 1_566
Hg0_7 Y0_1 3.315368 1_665
Hg0_7 Y0_0 3.315368 1_666
Hg0_7 Y0_7 3.315368 1_555
Hg0_7 Y0_6 3.315368 1_556
Hg1_0 Y0_5 3.315365 1_555
Hg1_0 Y0_4 3.315365 1_555
Hg1_0 Y0_1 3.315368 1_555
Hg1_0 Y0_0 3.315368 1_555
Hg1_0 Y0_6 3.315368 1_555
Hg1_0 Y0_7 3.315368 1_555
Hg1_1 Y0_5 3.315365 1_555
Hg1_1 Y0_4 3.315365 1_556
Hg1_1 Y0_1 3.315368 1_555
Hg1_1 Y0_0 3.315368 1_556
Hg1_1 Y0_7 3.315368 1_555
Hg1_1 Y0_6 3.315368 1_556
Hg1_2 Y0_7 3.315365 1_555
Hg1_2 Y0_6 3.315365 1_555
Hg1_2 Y0_2 3.315368 1_555
Hg1_2 Y0_3 3.315368 1_555
Hg1_2 Y0_4 3.315368 1_565
Hg1_2 Y0_5 3.315368 1_565
Hg1_3 Y0_7 3.315365 1_555
Hg1_3 Y0_6 3.315365 1_556
Hg1_3 Y0_3 3.315368 1_555
Hg1_3 Y0_2 3.315368 1_556
Hg1_3 Y0_5 3.315368 1_565
Hg1_3 Y0_4 3.315368 1_566
Hg1_4 Y0_1 3.315365 1_655
Hg1_4 Y0_0 3.315365 1_655
Hg1_4 Y0_5 3.315368 1_555
Hg1_4 Y0_4 3.315368 1_555
Hg1_4 Y0_2 3.315368 1_655
Hg1_4 Y0_3 3.315368 1_655
Hg1_5 Y0_1 3.315365 1_655
Hg1_5 Y0_0 3.315365 1_656
Hg1_5 Y0_5 3.315368 1_555
Hg1_5 Y0_4 3.315368 1_556
Hg1_5 Y0_3 3.315368 1_655
Hg1_5 Y0_2 3.315368 1_656
Hg1_6 Y0_2 3.315365 1_655
Hg1_6 Y0_3 3.315365 1_655
Hg1_6 Y0_7 3.315368 1_555
Hg1_6 Y0_6 3.315368 1_555
Hg1_6 Y0_0 3.315368 1_665
Hg1_6 Y0_1 3.315368 1_665
Hg1_7 Y0_3 3.315365 1_655
Hg1_7 Y0_2 3.315365 1_656
Hg1_7 Y0_7 3.315368 1_555
Hg1_7 Y0_6 3.315368 1_556
Hg1_7 Y0_1 3.315368 1_665
Hg1_7 Y0_0 3.315368 1_666
