# generated using pymatgen
data_BiPd6Pb3S4
_symmetry_space_group_name_H-M   'P 1'
_cell_length_a   7.31996592
_cell_length_b   7.26016561
_cell_length_c   7.26016525
_cell_angle_alpha   109.30376526
_cell_angle_beta   109.63815965
_cell_angle_gamma   109.63816074
_symmetry_Int_Tables_number   1
_chemical_formula_structural   BiPd6Pb3S4
_chemical_formula_sum   'Bi1 Pd6 Pb3 S4'
_cell_volume   296.40211534
_cell_formula_units_Z   1
loop_
 _symmetry_equiv_pos_site_id
 _symmetry_equiv_pos_as_xyz
  1  'x, y, z'
loop_
 _atom_site_type_symbol
 _atom_site_label
 _atom_site_symmetry_multiplicity
 _atom_site_fract_x
 _atom_site_fract_y
 _atom_site_fract_z
 _atom_site_occupancy
  Bi  Bi0  1  0.48543578  0.50000000  1.00000000  1
  Pd  Pd0  1  0.98080625  0.22882315  0.75268386  1
  Pd  Pd1  1  0.75043143  0.96899112  0.22368606  1
  Pd  Pd2  1  0.22812239  0.74731614  0.97613830  1
  Pd  Pd3  1  0.52674536  0.27631394  0.24530406  1
  Pd  Pd4  1  0.25198410  0.52386170  0.27117685  1
  Pd  Pd5  1  0.28144031  0.25469594  0.53100888  1
  Pb  Pb0  1  0.50304215  0.00282642  0.51745567  1
  Pb  Pb1  1  0.98558548  0.98254433  0.98536975  1
  Pb  Pb2  1  0.00021574  0.51463025  0.49717358  1
  S  S0  1  0.50190436  0.99835954  0.94898381  1
  S  S1  1  0.55291955  0.55101619  0.54937573  1
  S  S2  1  0.00354382  0.95062427  0.50164046  1
  S  S3  1  0.94782228  0.50000000  1.00000000  1
loop_
_geom_bond_atom_site_label_1
_geom_bond_atom_site_label_2
_geom_bond_distance
_geom_bond_site_symmetry_2
Bi0 Pd3 2.789427 1_556
Bi0 Pd5 2.789433 1_555
Bi0 Pd1 2.789433 1_556
Bi0 Pd4 3.010186 1_556
Bi0 Pd0 3.010192 1_455
Bi0 Pd2 3.010192 1_555
Pd0 S2 2.329181 1_645
Pd0 S3 2.330692 1_555
Pd1 S2 2.313808 1_655
Pd1 S0 2.331459 1_554
Pd2 S0 2.329181 1_555
Pd2 S3 2.330697 1_455
Pd3 S0 2.313808 1_544
Pd3 S1 2.331468 1_555
Pd4 S1 2.329180 1_555
Pd4 S3 2.330693 1_454
Pd5 S1 2.313804 1_555
Pd5 S2 2.331468 1_545
Pb0 Pd5 2.822566 1_555
Pb0 Pd4 2.837518 1_545
Pb0 Pd0 2.848717 1_555
Pb0 S0 3.146606 1_545
Pb0 Pd2 3.207953 1_544
Pb0 Pd1 3.230666 1_545
Pb0 Pd3 3.235634 1_555
Pb1 Pd1 2.822560 1_556
Pb1 Pd0 2.837517 1_565
Pb1 Pd2 2.848723 1_655
Pb1 S1 3.146603 1_555
Pb1 Pd4 3.207953 1_666
Pb1 Pd3 3.230673 1_666
Pb1 Pd5 3.235634 1_666
Pb2 Pd3 2.822560 1_455
Pb2 Pd2 2.837517 1_555
Pb2 Pd4 2.848723 1_555
Pb2 S2 3.146601 1_555
Pb2 Pd0 3.207953 1_455
Pb2 Pd5 3.230667 1_555
Pb2 Pd1 3.235634 1_445
