# generated using pymatgen
data_Ba3NaNbS6
_symmetry_space_group_name_H-M   'P 1'
_cell_length_a   8.39902570
_cell_length_b   8.39902574
_cell_length_c   8.39902522
_cell_angle_alpha   91.29019462
_cell_angle_beta   91.29019739
_cell_angle_gamma   91.29018747
_symmetry_Int_Tables_number   1
_chemical_formula_structural   Ba3NaNbS6
_chemical_formula_sum   'Ba6 Na2 Nb2 S12'
_cell_volume   592.04023698
_cell_formula_units_Z   2
loop_
 _symmetry_equiv_pos_site_id
 _symmetry_equiv_pos_as_xyz
  1  'x, y, z'
loop_
 _atom_site_type_symbol
 _atom_site_label
 _atom_site_symmetry_multiplicity
 _atom_site_fract_x
 _atom_site_fract_y
 _atom_site_fract_z
 _atom_site_occupancy
  Ba  Ba0  1  0.25000000  0.88014671  0.61985329  1
  Ba  Ba1  1  0.61985329  0.25000000  0.88014671  1
  Ba  Ba2  1  0.88014671  0.61985329  0.25000000  1
  Ba  Ba3  1  0.75000000  0.11985329  0.38014671  1
  Ba  Ba4  1  0.38014671  0.75000000  0.11985329  1
  Ba  Ba5  1  0.11985329  0.38014671  0.75000000  1
  Na  Na0  1  0.75000000  0.75000000  0.75000000  1
  Na  Na1  1  0.25000000  0.25000000  0.25000000  1
  Nb  Nb0  1  0.50000000  0.50000000  0.50000000  1
  Nb  Nb1  1  0.00000000  0.00000000  0.00000000  1
  S  S0  1  0.05205643  0.71845321  0.92052129  1
  S  S1  1  0.92052129  0.05205643  0.71845321  1
  S  S2  1  0.71845321  0.92052129  0.05205643  1
  S  S3  1  0.44794357  0.57947871  0.78154679  1
  S  S4  1  0.78154679  0.44794357  0.57947871  1
  S  S5  1  0.57947871  0.78154679  0.44794357  1
  S  S6  1  0.94794357  0.28154679  0.07947871  1
  S  S7  1  0.07947871  0.94794357  0.28154679  1
  S  S8  1  0.28154679  0.07947871  0.94794357  1
  S  S9  1  0.55205643  0.42052129  0.21845321  1
  S  S10  1  0.42052129  0.21845321  0.55205643  1
  S  S11  1  0.21845321  0.55205643  0.42052129  1
loop_
_geom_bond_atom_site_label_1
_geom_bond_atom_site_label_2
_geom_bond_distance
_geom_bond_site_symmetry_2
Ba0 S8 3.194693 1_565
Ba0 S11 3.194693 1_555
Ba0 S7 3.221120 1_555
Ba0 S10 3.221121 1_565
Ba0 S1 3.264633 1_465
Ba0 S5 3.264633 1_555
Ba0 S3 3.350735 1_555
Ba0 S0 3.350735 1_555
Ba1 S10 3.194693 1_555
Ba1 S6 3.194693 1_556
Ba1 S9 3.221120 1_556
Ba1 S8 3.221121 1_555
Ba1 S3 3.264633 1_555
Ba1 S2 3.264633 1_546
Ba1 S1 3.350735 1_555
Ba1 S4 3.350735 1_555
Ba2 S9 3.194693 1_555
Ba2 S7 3.194693 1_655
Ba2 S11 3.221120 1_655
Ba2 S6 3.221120 1_555
Ba2 S4 3.264633 1_555
Ba2 S0 3.264634 1_654
Ba2 S2 3.350735 1_555
Ba2 S5 3.350735 1_555
Ba3 S2 3.194693 1_545
Ba3 S4 3.194693 1_555
Ba3 S1 3.221120 1_555
Ba3 S5 3.221121 1_545
Ba3 S7 3.264633 1_645
Ba3 S10 3.264633 1_555
Ba3 S9 3.350735 1_555
Ba3 S6 3.350735 1_555
Ba4 S5 3.194693 1_555
Ba4 S0 3.194693 1_554
Ba4 S3 3.221120 1_554
Ba4 S2 3.221121 1_555
Ba4 S9 3.264633 1_555
Ba4 S8 3.264633 1_564
Ba4 S7 3.350735 1_555
Ba4 S11 3.350735 1_555
Ba5 S3 3.194693 1_555
Ba5 S1 3.194693 1_455
Ba5 S4 3.221120 1_455
Ba5 S0 3.221120 1_555
Ba5 S11 3.264633 1_555
Ba5 S6 3.264634 1_456
Ba5 S8 3.350735 1_555
Ba5 S10 3.350735 1_555
Na0 S5 2.905415 1_555
Na0 S0 2.905415 1_655
Na0 S2 2.905415 1_556
Na0 S4 2.905415 1_555
Na0 S3 2.905416 1_555
Na0 S1 2.905416 1_565
Na1 S10 2.905415 1_555
Na1 S6 2.905415 1_455
Na1 S8 2.905415 1_554
Na1 S11 2.905415 1_555
Na1 S9 2.905416 1_555
Na1 S7 2.905416 1_545
Nb0 S9 2.493449 1_555
Nb0 S3 2.493449 1_555
Nb0 S11 2.493449 1_555
Nb0 S4 2.493449 1_555
Nb0 S5 2.493450 1_555
Nb0 S10 2.493450 1_555
Nb1 S7 2.493449 1_545
Nb1 S1 2.493449 1_454
Nb1 S6 2.493449 1_455
Nb1 S0 2.493449 1_544
Nb1 S2 2.493450 1_445
Nb1 S8 2.493450 1_554
