# generated using pymatgen
data_Mn2Fe5Si16Pt
_symmetry_space_group_name_H-M   'P 1'
_cell_length_a   6.29185963
_cell_length_b   6.29186005
_cell_length_c   7.84967388
_cell_angle_alpha   89.59643113
_cell_angle_beta   89.59643190
_cell_angle_gamma   103.43900721
_symmetry_Int_Tables_number   1
_chemical_formula_structural   Mn2Fe5Si16Pt
_chemical_formula_sum   'Mn2 Fe5 Si16 Pt1'
_cell_volume   302.22046507
_cell_formula_units_Z   1
loop_
 _symmetry_equiv_pos_site_id
 _symmetry_equiv_pos_as_xyz
  1  'x, y, z'
loop_
 _atom_site_type_symbol
 _atom_site_label
 _atom_site_symmetry_multiplicity
 _atom_site_fract_x
 _atom_site_fract_y
 _atom_site_fract_z
 _atom_site_occupancy
  Mn  Mn0  1  0.30707992  0.30707992  0.31098650  1
  Mn  Mn1  1  0.69441366  0.69441366  0.68716901  1
  Fe  Fe0  1  0.80824418  0.80824418  0.18706835  1
  Fe  Fe1  1  0.28169959  0.71426004  0.49985306  1
  Fe  Fe2  1  0.21842156  0.78347097  0.00035393  1
  Fe  Fe3  1  0.71426004  0.28169959  0.49985306  1
  Fe  Fe4  1  0.78347097  0.21842156  0.00035393  1
  Si  Si0  1  0.42086131  0.67255521  0.22771284  1
  Si  Si1  1  0.07354577  0.81147455  0.72325425  1
  Si  Si2  1  0.16923709  0.91652343  0.27171571  1
  Si  Si3  1  0.33793476  0.59788186  0.77359408  1
  Si  Si4  1  0.59788186  0.33793476  0.77359408  1
  Si  Si5  1  0.91652343  0.16923709  0.27171571  1
  Si  Si6  1  0.81147455  0.07354577  0.72325425  1
  Si  Si7  1  0.67255521  0.42086131  0.22771284  1
  Si  Si8  1  0.14249313  0.41163280  0.06302764  1
  Si  Si9  1  0.35661950  0.09174097  0.53769990  1
  Si  Si10  1  0.89911335  0.64579030  0.44780252  1
  Si  Si11  1  0.60095963  0.85565312  0.95279589  1
  Si  Si12  1  0.85565312  0.60095963  0.95279589  1
  Si  Si13  1  0.64579030  0.89911335  0.44780252  1
  Si  Si14  1  0.09174097  0.35661950  0.53769990  1
  Si  Si15  1  0.41163280  0.14249313  0.06302764  1
  Pt  Pt0  1  0.18839130  0.18839130  0.81915753  1
loop_
_geom_bond_atom_site_label_1
_geom_bond_atom_site_label_2
_geom_bond_distance
_geom_bond_site_symmetry_2
Mn0 Si14 2.295665 1_555
Mn0 Si9 2.295665 1_555
Mn0 Si7 2.331227 1_555
Mn0 Si0 2.331227 1_555
Mn0 Si8 2.370777 1_555
Mn0 Si15 2.370777 1_555
Mn0 Si5 2.430941 1_455
Mn0 Si2 2.430942 1_545
Mn1 Si3 2.280208 1_555
Mn1 Si4 2.280208 1_555
Mn1 Si10 2.332379 1_555
Mn1 Si13 2.332379 1_555
Mn1 Si1 2.347095 1_655
Mn1 Si6 2.347095 1_565
Mn1 Si12 2.452005 1_555
Mn1 Si11 2.452005 1_555
Fe0 Si2 2.317950 1_655
Fe0 Si5 2.317950 1_565
Fe0 Si11 2.319181 1_554
Fe0 Si12 2.319181 1_554
Fe0 Si0 2.406108 1_555
Fe0 Si7 2.406108 1_555
Fe0 Si13 2.412300 1_555
Fe0 Si10 2.412300 1_555
Fe1 Si14 2.305585 1_555
Fe1 Si3 2.321116 1_555
Fe1 Si9 2.332997 1_565
Fe1 Si0 2.342488 1_555
Fe1 Si13 2.347155 1_555
Fe1 Si1 2.349403 1_555
Fe1 Si10 2.383557 1_455
Fe1 Si2 2.394062 1_555
Fe2 Si8 2.324807 1_555
Fe2 Si12 2.338271 1_454
Fe2 Si2 2.338839 1_555
Fe2 Si3 2.348596 1_554
Fe2 Si15 2.360130 1_565
Fe2 Si11 2.369712 1_554
Fe2 Si1 2.385451 1_554
Fe2 Si0 2.392105 1_555
Fe2 Pt0 2.953982 1_564
Fe3 Si9 2.305585 1_555
Fe3 Si4 2.321116 1_555
Fe3 Si14 2.332997 1_655
Fe3 Si7 2.342488 1_555
Fe3 Si10 2.347155 1_555
Fe3 Si6 2.349403 1_555
Fe3 Si13 2.383558 1_545
Fe3 Si5 2.394062 1_555
Fe4 Si15 2.324807 1_555
Fe4 Si11 2.338271 1_544
Fe4 Si5 2.338839 1_555
Fe4 Si4 2.348596 1_554
Fe4 Si8 2.360130 1_655
Fe4 Si12 2.369712 1_554
Fe4 Si6 2.385451 1_554
Fe4 Si7 2.392105 1_555
Fe4 Pt0 2.953982 1_654
Si0 Si2 2.472129 1_555
Si0 Si13 2.480113 1_555
Si0 Si8 2.481762 1_555
Si0 Si7 2.486247 1_555
Si0 Si11 2.567478 1_554
Si1 Si3 2.402154 1_555
Si1 Si12 2.442948 1_455
Si1 Si10 2.549462 1_455
Si1 Si6 2.588755 1_465
Si1 Si9 2.621195 1_565
Si2 Si5 2.496321 1_465
Si2 Si9 2.535274 1_565
Si3 Si4 2.567773 1_555
Si3 Si8 2.701944 1_556
Si4 Si6 2.402154 1_555
Si4 Si9 2.668246 1_555
Si5 Si8 2.440286 1_655
Si5 Si7 2.472129 1_555
Si10 Si7 2.480113 1_555
Si10 Si13 2.502340 1_555
Si10 Si2 2.507744 1_655
Si10 Si14 2.509206 1_655
Si11 Si6 2.442948 1_565
Si11 Si3 2.482992 1_555
Si11 Si12 2.515878 1_555
Si11 Si15 2.536068 1_566
Si12 Si4 2.482992 1_555
Si12 Si8 2.536068 1_656
Si12 Si7 2.567478 1_556
Si13 Si5 2.507744 1_565
Si13 Si9 2.509206 1_565
Si13 Si6 2.549462 1_565
Si14 Si5 2.535274 1_455
Si14 Si9 2.616486 1_555
Si14 Si6 2.621195 1_455
Si14 Si3 2.668246 1_555
Si15 Si2 2.440286 1_545
Si15 Si7 2.481762 1_555
Si15 Si8 2.658578 1_555
Si15 Si4 2.701944 1_554
Pt0 Si15 2.437107 1_556
Pt0 Si8 2.437107 1_556
Pt0 Si6 2.439096 1_455
Pt0 Si1 2.439096 1_545
Pt0 Si4 2.550846 1_555
Pt0 Si3 2.550846 1_555
Pt0 Si14 2.580030 1_555
Pt0 Si9 2.580030 1_555
