# generated using pymatgen
data_Zr4Sc2Zn23C
_symmetry_space_group_name_H-M   'P 1'
_cell_length_a   8.59635360
_cell_length_b   8.61434485
_cell_length_c   8.61434424
_cell_angle_alpha   59.86187029
_cell_angle_beta   60.06906393
_cell_angle_gamma   60.06905757
_symmetry_Int_Tables_number   1
_chemical_formula_structural   Zr4Sc2Zn23C
_chemical_formula_sum   'Zr4 Sc2 Zn23 C1'
_cell_volume   451.06584379
_cell_formula_units_Z   1
loop_
 _symmetry_equiv_pos_site_id
 _symmetry_equiv_pos_as_xyz
  1  'x, y, z'
loop_
 _atom_site_type_symbol
 _atom_site_label
 _atom_site_symmetry_multiplicity
 _atom_site_fract_x
 _atom_site_fract_y
 _atom_site_fract_z
 _atom_site_occupancy
  Zr  Zr0  1  0.31137286  0.68862714  0.31137286  1
  Zr  Zr1  1  0.68862714  0.31137286  0.68862714  1
  Zr  Zr2  1  0.31137286  0.31137286  0.68862714  1
  Zr  Zr3  1  0.68862714  0.68862714  0.31137286  1
  Sc  Sc0  1  0.69318249  0.30681751  0.30681751  1
  Sc  Sc1  1  0.30681751  0.69318249  0.69318249  1
  Zn  Zn0  1  0.12106685  0.12102016  0.12102016  1
  Zn  Zn1  1  0.87893315  0.87897984  0.87897984  1
  Zn  Zn2  1  0.12102016  0.12106685  0.63689484  1
  Zn  Zn3  1  0.12102016  0.63689484  0.12106685  1
  Zn  Zn4  1  0.87897984  0.87893315  0.36310516  1
  Zn  Zn5  1  0.87897984  0.36310516  0.87893315  1
  Zn  Zn6  1  0.63689484  0.12102016  0.12102016  1
  Zn  Zn7  1  0.36310516  0.87897984  0.87897984  1
  Zn  Zn8  1  0.50000000  0.00000000  0.00000000  1
  Zn  Zn9  1  0.00000000  0.50000000  0.50000000  1
  Zn  Zn10  1  0.00000000  0.50000000  0.00000000  1
  Zn  Zn11  1  0.50000000  0.00000000  0.50000000  1
  Zn  Zn12  1  0.00000000  0.00000000  0.50000000  1
  Zn  Zn13  1  0.50000000  0.50000000  0.00000000  1
  Zn  Zn14  1  0.33087280  0.33068870  0.33068870  1
  Zn  Zn15  1  0.66912720  0.66931130  0.66931130  1
  Zn  Zn16  1  0.33068870  0.33087280  0.00774980  1
  Zn  Zn17  1  0.33068870  0.00774980  0.33087280  1
  Zn  Zn18  1  0.66931130  0.66912720  0.99225020  1
  Zn  Zn19  1  0.66931130  0.99225020  0.66912720  1
  Zn  Zn20  1  0.00774980  0.33068870  0.33068870  1
  Zn  Zn21  1  0.99225020  0.66931130  0.66931130  1
  Zn  Zn22  1  0.00000000  0.00000000  0.00000000  1
  C  C0  1  0.50000000  0.50000000  0.50000000  1
loop_
_geom_bond_atom_site_label_1
_geom_bond_atom_site_label_2
_geom_bond_distance
_geom_bond_site_symmetry_2
Sc0 Zn19 2.923895 1_545
Sc0 Zn18 2.923895 1_554
Sc0 Zn14 2.923896 1_555
Sc0 Zn20 2.923896 1_655
Sc0 Zn6 3.078227 1_555
Sc0 Zn0 3.078239 1_655
Sc0 Zn5 3.078242 1_554
Sc0 Zn4 3.078242 1_545
Sc0 Zn12 3.117414 1_655
Sc0 Zn13 3.117415 1_555
Sc0 Zn10 3.117415 1_655
Sc0 Zn11 3.117415 1_555
Sc1 Zn17 2.923895 1_565
Sc1 Zn16 2.923895 1_556
Sc1 Zn15 2.923896 1_555
Sc1 Zn21 2.923896 1_455
Sc1 Zn7 3.078227 1_555
Sc1 Zn1 3.078239 1_455
Sc1 Zn3 3.078242 1_556
Sc1 Zn2 3.078242 1_565
Sc1 Zn12 3.117414 1_565
Sc1 Zn13 3.117415 1_556
Sc1 Zn10 3.117415 1_556
Sc1 Zn11 3.117415 1_565
Zn0 Zn22 2.552167 1_555
Zn0 Zn8 2.664264 1_555
Zn0 Zn12 2.665050 1_555
Zn0 Zn10 2.665050 1_555
Zn0 Zn17 2.681792 1_555
Zn0 Zn16 2.681792 1_555
Zn0 Zn20 2.690291 1_555
Zn0 Zn5 2.943071 1_454
Zn0 Zn4 2.943071 1_445
Zn0 Zn7 2.954807 1_544
Zn0 Zr0 3.114809 1_545
Zn0 Zr2 3.114809 1_554
Zn1 Zn22 2.552167 1_666
Zn1 Zn8 2.664264 1_566
Zn1 Zn12 2.665050 1_665
Zn1 Zn10 2.665050 1_656
Zn1 Zn19 2.681792 1_555
Zn1 Zn18 2.681792 1_555
Zn1 Zn21 2.690291 1_555
Zn1 Zn3 2.943071 1_656
Zn1 Zn2 2.943071 1_665
Zn1 Zn6 2.954807 1_566
Zn1 Zr1 3.114809 1_565
Zn1 Zr3 3.114809 1_556
Zn2 Zn22 2.552152 1_556
Zn2 Zn9 2.664264 1_555
Zn2 Zn20 2.681806 1_555
Zn2 Zn7 2.943046 1_545
Zn2 Zn5 2.954783 1_455
Zn2 Zr2 3.114798 1_555
Zn2 Zr1 3.114812 1_455
Zn3 Zn9 2.664264 1_555
Zn3 Zn7 2.943047 1_554
Zn3 Zn4 2.954783 1_455
Zn3 Zr0 3.114798 1_555
Zn3 Zr3 3.114812 1_455
Zn4 Zn9 2.664264 1_655
Zn4 Zn6 2.943046 1_565
Zn4 Zr3 3.114798 1_555
Zn4 Zr0 3.114812 1_655
Zn5 Zn9 2.664264 1_655
Zn5 Zn6 2.943047 1_556
Zn5 Zr1 3.114798 1_555
Zn5 Zr2 3.114812 1_655
Zn6 Zn8 2.664279 1_555
Zn6 Zr1 3.114812 1_554
Zn6 Zr3 3.114812 1_545
Zn7 Zn8 2.664279 1_566
Zn7 Zr0 3.114812 1_556
Zn7 Zr2 3.114812 1_565
Zn8 Zr3 3.129512 1_545
Zn8 Zr2 3.129512 1_554
Zn8 Zr1 3.129513 1_554
Zn8 Zr0 3.129513 1_545
Zn9 Zr2 3.129512 1_555
Zn9 Zr3 3.129512 1_455
Zn9 Zr0 3.129513 1_555
Zn9 Zr1 3.129513 1_455
Zn10 Zn20 2.483317 1_555
Zn10 Zn21 2.483317 1_454
Zn10 Zn16 2.483317 1_555
Zn10 Zn18 2.483317 1_454
Zn10 Zn3 2.665065 1_555
Zn10 Zn5 2.665065 1_454
Zn10 Zr3 3.141856 1_455
Zn10 Zr2 3.141856 1_554
Zn11 Zn14 2.483317 1_555
Zn11 Zn15 2.483317 1_545
Zn11 Zn19 2.483317 1_545
Zn11 Zn17 2.483317 1_555
Zn11 Zn7 2.665051 1_545
Zn11 Zn6 2.665051 1_555
Zn11 Zn4 2.665051 1_545
Zn11 Zn2 2.665051 1_555
Zn11 Zr2 3.141856 1_555
Zn11 Zr3 3.141856 1_545
Zn12 Zn20 2.483317 1_555
Zn12 Zn21 2.483317 1_445
Zn12 Zn17 2.483317 1_555
Zn12 Zn19 2.483317 1_445
Zn12 Zn2 2.665065 1_555
Zn12 Zn4 2.665065 1_445
Zn12 Zr1 3.141856 1_455
Zn12 Zr0 3.141856 1_545
Zn13 Zn15 2.483317 1_554
Zn13 Zn14 2.483317 1_555
Zn13 Zn18 2.483317 1_554
Zn13 Zn16 2.483317 1_555
Zn13 Zn7 2.665051 1_554
Zn13 Zn6 2.665051 1_555
Zn13 Zn5 2.665051 1_554
Zn13 Zn3 2.665051 1_555
Zn13 Zr0 3.141856 1_555
Zn13 Zr1 3.141856 1_554
Zn14 Zn9 2.490202 1_555
Zn14 Zn3 2.681797 1_555
Zn14 Zn2 2.681797 1_555
Zn14 Zn6 2.690296 1_555
Zn14 Zn20 2.777680 1_555
Zn14 Zn16 2.781901 1_555
Zn14 Zn17 2.781901 1_555
Zn14 Zr2 2.925751 1_555
Zn14 Zr0 2.925752 1_555
Zn15 Zn9 2.490202 1_655
Zn15 Zn5 2.681797 1_555
Zn15 Zn4 2.681797 1_555
Zn15 Zn7 2.690296 1_555
Zn15 Zn21 2.777680 1_555
Zn15 Zn18 2.781901 1_555
Zn15 Zn19 2.781901 1_555
Zn15 Zr3 2.925751 1_555
Zn15 Zr1 2.925752 1_555
Zn16 Zn8 2.490202 1_555
Zn16 Zn6 2.681806 1_555
Zn16 Zn3 2.690305 1_555
Zn16 Zn17 2.777679 1_555
Zn16 Zn20 2.781901 1_555
Zn16 Zr2 2.925751 1_554
Zn16 Zr1 2.925751 1_554
Zn17 Zn8 2.490202 1_555
Zn17 Zn6 2.681806 1_555
Zn17 Zn2 2.690305 1_555
Zn17 Zn20 2.781901 1_555
Zn17 Zr3 2.925751 1_545
Zn17 Zr0 2.925752 1_545
Zn18 Zn8 2.490202 1_566
Zn18 Zn7 2.681806 1_555
Zn18 Zn5 2.690305 1_555
Zn18 Zn19 2.777679 1_555
Zn18 Zn21 2.781901 1_555
Zn18 Zr3 2.925751 1_556
Zn18 Zr0 2.925751 1_556
Zn19 Zn8 2.490202 1_566
Zn19 Zn7 2.681806 1_555
Zn19 Zn4 2.690305 1_555
Zn19 Zn21 2.781901 1_555
Zn19 Zr2 2.925751 1_565
Zn19 Zr1 2.925752 1_565
Zn20 Zn9 2.490202 1_555
Zn20 Zn3 2.681806 1_555
Zn20 Zr3 2.925751 1_455
Zn20 Zr1 2.925751 1_455
Zn21 Zn9 2.490202 1_655
Zn21 Zn4 2.681806 1_555
Zn21 Zn5 2.681806 1_555
Zn21 Zr2 2.925751 1_655
Zn21 Zr0 2.925751 1_655
Zn22 Zn4 2.552152 1_445
Zn22 Zn5 2.552152 1_454
Zn22 Zn3 2.552152 1_545
Zn22 Zn7 2.552153 1_544
Zn22 Zn6 2.552153 1_455
C0 Zr1 2.293155 1_555
C0 Zr0 2.293155 1_555
C0 Zr3 2.293155 1_555
C0 Zr2 2.293155 1_555
C0 Sc1 2.358355 1_555
C0 Sc0 2.358355 1_555
