# generated using pymatgen
data_ZnBi3(Ir2O7)2
_symmetry_space_group_name_H-M   'P 1'
_cell_length_a   7.30540141
_cell_length_b   7.11963728
_cell_length_c   7.30540094
_cell_angle_alpha   59.13306835
_cell_angle_beta   59.99999772
_cell_angle_gamma   59.13306911
_symmetry_Int_Tables_number   1
_chemical_formula_structural   ZnBi3(Ir2O7)2
_chemical_formula_sum   'Zn1 Bi3 Ir4 O14'
_cell_volume   265.10266553
_cell_formula_units_Z   1
loop_
 _symmetry_equiv_pos_site_id
 _symmetry_equiv_pos_as_xyz
  1  'x, y, z'
loop_
 _atom_site_type_symbol
 _atom_site_label
 _atom_site_symmetry_multiplicity
 _atom_site_fract_x
 _atom_site_fract_y
 _atom_site_fract_z
 _atom_site_occupancy
  Zn  Zn0  1  0.12500000  0.62500000  0.12500000  1
  Bi  Bi0  1  0.62500000  0.12500000  0.12500000  1
  Bi  Bi1  1  0.12500000  0.12500000  0.62500000  1
  Bi  Bi2  1  0.12500000  0.12500000  0.12500000  1
  Ir  Ir0  1  0.12500000  0.62500000  0.62500000  1
  Ir  Ir1  1  0.62500000  0.12500000  0.62500000  1
  Ir  Ir2  1  0.62500000  0.62500000  0.12500000  1
  Ir  Ir3  1  0.62500000  0.62500000  0.62500000  1
  O  O0  1  0.70613528  0.70521726  0.29432323  1
  O  O1  1  0.29066910  0.28725228  0.71103931  1
  O  O2  1  0.71103931  0.28725228  0.71103931  1
  O  O3  1  0.29432323  0.70521726  0.29432323  1
  O  O4  1  0.29432323  0.70521726  0.70613528  1
  O  O5  1  0.71103931  0.28725228  0.29066910  1
  O  O6  1  0.54386472  0.54478274  0.95567677  1
  O  O7  1  0.95933090  0.96274772  0.53896069  1
  O  O8  1  0.53896069  0.96274772  0.53896069  1
  O  O9  1  0.95567677  0.54478274  0.95567677  1
  O  O10  1  0.95567677  0.54478274  0.54386472  1
  O  O11  1  0.53896069  0.96274772  0.95933090  1
  O  O12  1  0.23799059  0.28602822  0.23799059  1
  O  O13  1  0.01200941  0.96397178  0.01200941  1
loop_
_geom_bond_atom_site_label_1
_geom_bond_atom_site_label_2
_geom_bond_distance
_geom_bond_site_symmetry_2
Bi0 O13 2.302281 1_645
Bi0 O12 2.302281 1_555
Bi0 O6 2.436358 1_554
Bi0 O0 2.436358 1_545
Bi0 O8 2.476814 1_545
Bi0 O2 2.476814 1_554
Bi0 O5 2.476815 1_555
Bi0 O11 2.476815 1_544
Bi1 O13 2.302281 1_546
Bi1 O12 2.302281 1_555
Bi1 O10 2.436358 1_455
Bi1 O4 2.436358 1_545
Bi1 O8 2.476815 1_545
Bi1 O2 2.476815 1_455
Bi1 O1 2.476815 1_555
Bi1 O7 2.476815 1_445
Bi2 O12 2.302281 1_555
Bi2 O13 2.302281 1_545
Bi2 O9 2.436357 1_454
Bi2 O3 2.436357 1_545
Bi2 O7 2.476814 1_445
Bi2 O1 2.476814 1_554
Bi2 O11 2.476815 1_544
Bi2 O5 2.476815 1_455
Ir0 O1 1.966158 1_555
Ir0 O7 1.966158 1_455
Ir0 O4 2.003255 1_555
Ir0 O10 2.003255 1_455
Ir0 O9 2.003260 1_455
Ir0 O3 2.003260 1_555
Ir1 O11 2.002432 1_545
Ir1 O5 2.002432 1_555
Ir1 O7 2.002432 1_545
Ir1 O1 2.002432 1_555
Ir1 O2 2.002432 1_555
Ir1 O8 2.002432 1_545
Ir2 O11 1.966158 1_554
Ir2 O5 1.966158 1_555
Ir2 O0 2.003255 1_555
Ir2 O6 2.003255 1_554
Ir2 O9 2.003260 1_554
Ir2 O3 2.003260 1_555
Ir3 O8 1.966158 1_555
Ir3 O2 1.966158 1_555
Ir3 O6 2.003261 1_555
Ir3 O0 2.003261 1_555
Ir3 O10 2.003262 1_555
Ir3 O4 2.003262 1_555
O0 Zn0 2.523153 1_655
O3 Zn0 2.523147 1_555
O4 Zn0 2.523153 1_556
O6 Zn0 2.523153 1_556
O9 Zn0 2.523147 1_656
O10 Zn0 2.523153 1_655
O12 Zn0 1.944280 1_555
O13 Zn0 1.944280 1_555
