# generated using pymatgen
data_K4Ca(SiSe3)2
_symmetry_space_group_name_H-M   'P 1'
_cell_length_a   7.30698659
_cell_length_b   7.30698696
_cell_length_c   8.57429005
_cell_angle_alpha   81.71887988
_cell_angle_beta   81.71888373
_cell_angle_gamma   119.84481151
_symmetry_Int_Tables_number   1
_chemical_formula_structural   K4Ca(SiSe3)2
_chemical_formula_sum   'K4 Ca1 Si2 Se6'
_cell_volume   380.33297939
_cell_formula_units_Z   1
loop_
 _symmetry_equiv_pos_site_id
 _symmetry_equiv_pos_as_xyz
  1  'x, y, z'
loop_
 _atom_site_type_symbol
 _atom_site_label
 _atom_site_symmetry_multiplicity
 _atom_site_fract_x
 _atom_site_fract_y
 _atom_site_fract_z
 _atom_site_occupancy
  K  K0  1  0.51094953  0.48905047  1.00000000  1
  K  K1  1  0.81742411  0.18257589  0.00000000  1
  K  K2  1  0.17371276  0.82628724  1.00000000  1
  K  K3  1  0.66602840  0.33397160  0.50000000  1
  Ca  Ca0  1  0.33461290  0.66538710  0.50000000  1
  Si  Si0  1  0.04611690  0.04783119  0.35784877  1
  Si  Si1  1  0.95216881  0.95388310  0.64215123  1
  Se  Se0  1  0.76362404  0.79343749  0.27281253  1
  Se  Se1  1  0.20656251  0.23637596  0.72718747  1
  Se  Se2  1  0.10462297  0.38955107  0.27401983  1
  Se  Se3  1  0.35981419  0.04608804  0.27800593  1
  Se  Se4  1  0.95391196  0.64018581  0.72199407  1
  Se  Se5  1  0.61044893  0.89537703  0.72598017  1
loop_
_geom_bond_atom_site_label_1
_geom_bond_atom_site_label_2
_geom_bond_distance
_geom_bond_site_symmetry_2
K0 Se2 3.195931 1_556
K0 Se5 3.195931 1_555
K0 Se4 3.292342 1_555
K0 Se3 3.292342 1_556
K0 Se1 3.533126 1_555
K0 Se0 3.533126 1_556
K1 Se0 3.227686 1_545
K1 Se1 3.227686 1_654
K1 Se2 3.390644 1_655
K1 Se5 3.390644 1_544
K1 Se3 3.399623 1_555
K1 Se4 3.399623 1_554
K2 Se4 3.158084 1_455
K2 Se3 3.158084 1_566
K2 Se1 3.407594 1_565
K2 Se0 3.407594 1_456
K2 Se5 3.442971 1_555
K2 Se2 3.442971 1_556
K3 Se3 3.278732 1_555
K3 Se4 3.278732 1_555
K3 Se2 3.298365 1_655
K3 Se5 3.298365 1_545
K3 Se1 3.302676 1_555
K3 Se0 3.302676 1_555
Ca0 Se4 3.042894 1_455
Ca0 Se3 3.042894 1_565
Ca0 Se0 3.048526 1_555
Ca0 Se1 3.048526 1_555
Ca0 Se5 3.054934 1_555
Ca0 Se2 3.054934 1_555
Si0 Si1 2.334890 1_445
Se0 Si0 2.291886 1_665
Se1 Si1 2.291886 1_445
Se2 Si0 2.294814 1_555
Se3 Si0 2.302710 1_555
Se4 Si1 2.302710 1_555
Se5 Si1 2.294814 1_555
