# generated using pymatgen
data_Zr3Ga3RuAu2
_symmetry_space_group_name_H-M   'P 1'
_cell_length_a   7.26785062
_cell_length_b   7.26785011
_cell_length_c   7.04947835
_cell_angle_alpha   90.00000000
_cell_angle_beta   90.00000000
_cell_angle_gamma   119.99998916
_symmetry_Int_Tables_number   1
_chemical_formula_structural   Zr3Ga3RuAu2
_chemical_formula_sum   'Zr6 Ga6 Ru2 Au4'
_cell_volume   322.47764583
_cell_formula_units_Z   2
loop_
 _symmetry_equiv_pos_site_id
 _symmetry_equiv_pos_as_xyz
  1  'x, y, z'
loop_
 _atom_site_type_symbol
 _atom_site_label
 _atom_site_symmetry_multiplicity
 _atom_site_fract_x
 _atom_site_fract_y
 _atom_site_fract_z
 _atom_site_occupancy
  Zr  Zr0  1  0.40010456  0.39278448  0.75000000  1
  Zr  Zr1  1  0.99267992  0.59989544  0.75000000  1
  Zr  Zr2  1  0.60721552  0.00732008  0.75000000  1
  Zr  Zr3  1  0.62290863  0.03379454  0.25000000  1
  Zr  Zr4  1  0.96620546  0.58911409  0.25000000  1
  Zr  Zr5  1  0.41088591  0.37709137  0.25000000  1
  Ga  Ga0  1  0.27399014  0.99870211  0.99759628  1
  Ga  Ga1  1  0.72471196  0.72600986  0.99759628  1
  Ga  Ga2  1  0.00129789  0.27528804  0.99759628  1
  Ga  Ga3  1  0.72471196  0.72600986  0.50240372  1
  Ga  Ga4  1  0.27399014  0.99870211  0.50240372  1
  Ga  Ga5  1  0.00129789  0.27528804  0.50240372  1
  Ru  Ru0  1  0.66666700  0.33333300  0.98481505  1
  Ru  Ru1  1  0.66666700  0.33333300  0.51518495  1
  Au  Au0  1  0.00000000  0.00000000  0.75000000  1
  Au  Au1  1  0.33333300  0.66666700  0.46827807  1
  Au  Au2  1  0.33333300  0.66666700  0.03172193  1
  Au  Au3  1  0.00000000  0.00000000  0.25000000  1
loop_
_geom_bond_atom_site_label_1
_geom_bond_atom_site_label_2
_geom_bond_distance
_geom_bond_site_symmetry_2
Ga0 Ru0 2.669636 1_565
Ga0 Zr2 2.960407 1_565
Ga0 Zr5 2.997103 1_566
Ga0 Zr3 3.002493 1_566
Ga0 Zr0 3.076470 1_565
Ga0 Zr1 3.114757 1_455
Ga0 Zr4 3.220615 1_456
Ga1 Ru0 2.669638 1_555
Ga1 Zr0 2.960408 1_555
Ga1 Zr4 2.997103 1_556
Ga1 Zr5 3.002493 1_556
Ga1 Zr1 3.076470 1_555
Ga1 Zr2 3.114756 1_565
Ga1 Zr3 3.220614 1_566
Ga2 Ru0 2.669631 1_455
Ga2 Zr1 2.960407 1_455
Ga2 Zr3 2.997103 1_456
Ga2 Zr4 3.002493 1_456
Ga2 Zr2 3.076471 1_455
Ga2 Zr0 3.114757 1_555
Ga2 Zr5 3.220614 1_556
Ga3 Ru1 2.669638 1_555
Ga3 Zr0 2.960408 1_555
Ga3 Zr4 2.997103 1_555
Ga3 Zr5 3.002493 1_555
Ga3 Zr1 3.076470 1_555
Ga3 Zr2 3.114756 1_565
Ga3 Zr3 3.220614 1_565
Ga4 Ru1 2.669636 1_565
Ga4 Zr2 2.960407 1_565
Ga4 Zr5 2.997103 1_565
Ga4 Zr3 3.002493 1_565
Ga4 Zr0 3.076470 1_565
Ga4 Zr1 3.114757 1_455
Ga4 Zr4 3.220615 1_455
Ga5 Ru1 2.669631 1_455
Ga5 Zr1 2.960407 1_455
Ga5 Zr3 2.997103 1_455
Ga5 Zr4 3.002493 1_455
Ga5 Zr2 3.076471 1_455
Ga5 Zr0 3.114757 1_555
Ga5 Zr5 3.220614 1_555
Ru0 Zr2 2.741738 1_555
Ru0 Zr1 2.741740 1_555
Ru0 Zr0 2.741743 1_555
Ru0 Zr3 2.764569 1_556
Ru0 Zr4 2.764571 1_556
Ru0 Zr5 2.764574 1_556
Ru1 Zr2 2.741738 1_555
Ru1 Zr1 2.741740 1_555
Ru1 Zr0 2.741743 1_555
Ru1 Zr3 2.764569 1_555
Ru1 Zr4 2.764571 1_555
Ru1 Zr5 2.764574 1_555
Au0 Ga2 2.651553 1_555
Au0 Ga5 2.651553 1_555
Au0 Ga0 2.651553 1_545
Au0 Ga4 2.651553 1_545
Au0 Ga1 2.651553 1_445
Au0 Ga3 2.651553 1_445
Au0 Zr1 2.881668 1_445
Au0 Zr2 2.881668 1_455
Au0 Zr0 2.881668 1_555
Au1 Ga4 2.666107 1_555
Au1 Ga5 2.666112 1_555
Au1 Ga3 2.666114 1_555
Au1 Zr4 2.881137 1_455
Au1 Zr3 2.881139 1_565
Au1 Zr5 2.881142 1_555
Au1 Zr1 3.017922 1_455
Au1 Zr2 3.017924 1_565
Au1 Zr0 3.017927 1_555
Au2 Ga0 2.666107 1_554
Au2 Ga2 2.666112 1_554
Au2 Ga1 2.666114 1_554
Au2 Zr4 2.881137 1_455
Au2 Zr3 2.881139 1_565
Au2 Zr5 2.881142 1_555
Au2 Zr1 3.017922 1_454
Au2 Zr2 3.017924 1_564
Au2 Zr0 3.017927 1_554
Au3 Ga5 2.673983 1_555
Au3 Ga2 2.673983 1_554
Au3 Ga4 2.673983 1_545
Au3 Ga0 2.673983 1_544
Au3 Ga3 2.673983 1_445
Au3 Ga1 2.673983 1_444
Au3 Zr4 2.871340 1_445
Au3 Zr3 2.871340 1_455
Au3 Zr5 2.871340 1_555
