# generated using pymatgen
data_Sr6MoIrO12
_symmetry_space_group_name_H-M   'P 1'
_cell_length_a   6.07793807
_cell_length_b   5.82112925
_cell_length_c   10.18913789
_cell_angle_alpha   55.01496349
_cell_angle_beta   89.85524787
_cell_angle_gamma   89.98313744
_symmetry_Int_Tables_number   1
_chemical_formula_structural   Sr6MoIrO12
_chemical_formula_sum   'Sr6 Mo1 Ir1 O12'
_cell_volume   295.35413250
_cell_formula_units_Z   1
loop_
 _symmetry_equiv_pos_site_id
 _symmetry_equiv_pos_as_xyz
  1  'x, y, z'
loop_
 _atom_site_type_symbol
 _atom_site_label
 _atom_site_symmetry_multiplicity
 _atom_site_fract_x
 _atom_site_fract_y
 _atom_site_fract_z
 _atom_site_occupancy
  Sr  Sr0  1  0.50000000  0.50000000  0.50000000  1
  Sr  Sr1  1  0.94670134  0.72950179  0.25391244  1
  Sr  Sr2  1  0.44617366  0.26672161  0.24655037  1
  Sr  Sr3  1  0.00000000  0.50000000  0.00000000  1
  Sr  Sr4  1  0.55382634  0.73327839  0.75344963  1
  Sr  Sr5  1  0.05329866  0.27049821  0.74608756  1
  Mo  Mo0  1  0.50000000  0.00000000  0.00000000  1
  Ir  Ir0  1  0.00000000  0.00000000  0.50000000  1
  O  O0  1  0.45476451  0.11719281  0.78278401  1
  O  O1  1  0.23694712  0.77050582  0.06350236  1
  O  O2  1  0.17725341  0.31492112  0.45468269  1
  O  O3  1  0.67245997  0.68630142  0.04402695  1
  O  O4  1  0.73613809  0.23217880  0.43757043  1
  O  O5  1  0.95626012  0.88233458  0.71939040  1
  O  O6  1  0.04373988  0.11766542  0.28060960  1
  O  O7  1  0.26386191  0.76782120  0.56242957  1
  O  O8  1  0.32754003  0.31369858  0.95597305  1
  O  O9  1  0.82274659  0.68507888  0.54531731  1
  O  O10  1  0.76305288  0.22949418  0.93649764  1
  O  O11  1  0.54523549  0.88280719  0.21721599  1
loop_
_geom_bond_atom_site_label_1
_geom_bond_atom_site_label_2
_geom_bond_distance
_geom_bond_site_symmetry_2
Mo0 O8 1.922606 1_554
Mo0 O3 1.922606 1_545
Mo0 O11 1.926394 1_545
Mo0 O0 1.926394 1_554
Mo0 O10 1.940197 1_554
Mo0 O1 1.940197 1_545
Ir0 O2 1.939704 1_555
Ir0 O9 1.939704 1_445
Ir0 O5 1.943748 1_445
Ir0 O6 1.943748 1_555
Ir0 O7 1.954810 1_545
Ir0 O4 1.954810 1_455
O0 Sr0 2.444767 1_555
O0 Sr4 2.492093 1_545
O0 Sr5 2.551648 1_555
O1 Sr3 2.479232 1_555
O1 Sr1 2.526851 1_455
O1 Sr2 2.726448 1_555
O1 Sr5 3.065780 1_564
O2 Sr0 2.407949 1_555
O2 Sr1 2.514711 1_455
O2 Sr2 2.812846 1_555
O2 Sr5 2.925535 1_555
O3 Sr3 2.427467 1_655
O3 Sr2 2.514625 1_555
O3 Sr1 2.837234 1_555
O3 Sr4 2.905661 1_554
O4 Sr0 2.454862 1_555
O4 Sr2 2.550093 1_555
O4 Sr1 2.701553 1_555
O4 Sr4 3.047333 1_545
O5 Sr3 2.430083 1_656
O5 Sr5 2.496767 1_665
O5 Sr4 2.551023 1_555
O6 Sr3 2.430083 1_555
O6 Sr1 2.496767 1_445
O6 Sr2 2.551023 1_555
O7 Sr0 2.454862 1_555
O7 Sr4 2.550093 1_555
O7 Sr5 2.701553 1_555
O7 Sr2 3.047333 1_565
O8 Sr3 2.427467 1_556
O8 Sr4 2.514625 1_555
O8 Sr5 2.837234 1_555
O8 Sr2 2.905661 1_556
O9 Sr0 2.407949 1_555
O9 Sr5 2.514711 1_655
O9 Sr4 2.812846 1_555
O9 Sr1 2.925535 1_555
O10 Sr3 2.479232 1_656
O10 Sr5 2.526851 1_655
O10 Sr4 2.726448 1_555
O10 Sr1 3.065780 1_546
O11 Sr0 2.444767 1_555
O11 Sr2 2.492093 1_565
O11 Sr1 2.551648 1_555
