# generated using pymatgen
data_HfScSi4Tc3
_symmetry_space_group_name_H-M   'P 1'
_cell_length_a   6.58485628
_cell_length_b   6.58324370
_cell_length_c   12.38308858
_cell_angle_alpha   90.15265150
_cell_angle_beta   89.89221151
_cell_angle_gamma   89.96890439
_symmetry_Int_Tables_number   1
_chemical_formula_structural   HfScSi4Tc3
_chemical_formula_sum   'Hf4 Sc4 Si16 Tc12'
_cell_volume   536.80040831
_cell_formula_units_Z   4
loop_
 _symmetry_equiv_pos_site_id
 _symmetry_equiv_pos_as_xyz
  1  'x, y, z'
loop_
 _atom_site_type_symbol
 _atom_site_label
 _atom_site_symmetry_multiplicity
 _atom_site_fract_x
 _atom_site_fract_y
 _atom_site_fract_z
 _atom_site_occupancy
  Hf  Hf0  1  0.01042017  0.65494806  0.03314437  1
  Hf  Hf1  1  0.84406024  0.51077796  0.28383497  1
  Hf  Hf2  1  0.15559554  0.49075662  0.78376913  1
  Hf  Hf3  1  0.50988049  0.84288139  0.71541697  1
  Sc  Sc0  1  0.49243583  0.15554450  0.21768792  1
  Sc  Sc1  1  0.99239331  0.34504066  0.53246002  1
  Sc  Sc2  1  0.65521910  0.00722504  0.96742853  1
  Sc  Sc3  1  0.34475223  0.99207369  0.46774980  1
  Si  Si0  1  0.27123343  0.97759820  0.05905092  1
  Si  Si1  1  0.52096339  0.77177070  0.30888771  1
  Si  Si2  1  0.47616680  0.22937653  0.81030762  1
  Si  Si3  1  0.77008952  0.52333592  0.69061931  1
  Si  Si4  1  0.23233467  0.47525755  0.19023033  1
  Si  Si5  1  0.73096336  0.02384590  0.55903644  1
  Si  Si6  1  0.97480617  0.26679299  0.94041023  1
  Si  Si7  1  0.02316626  0.73182496  0.44131470  1
  Si  Si8  1  0.69273329  0.38079323  0.06959378  1
  Si  Si9  1  0.11905777  0.19379053  0.31921798  1
  Si  Si10  1  0.88173025  0.80625866  0.81994782  1
  Si  Si11  1  0.19488339  0.11812108  0.68078023  1
  Si  Si12  1  0.80370671  0.88315675  0.17975402  1
  Si  Si13  1  0.30515462  0.61738964  0.56992340  1
  Si  Si14  1  0.38453377  0.69509959  0.92905320  1
  Si  Si15  1  0.61806832  0.30507228  0.43098075  1
  Tc  Tc0  1  0.32665198  0.33469291  0.99820125  1
  Tc  Tc1  1  0.16434713  0.82733044  0.24822450  1
  Tc  Tc2  1  0.83033405  0.17023364  0.75073627  1
  Tc  Tc3  1  0.66852534  0.66823638  0.50001421  1
  Tc  Tc4  1  0.97671193  0.19347166  0.13626137  1
  Tc  Tc5  1  0.30939798  0.47953718  0.38548497  1
  Tc  Tc6  1  0.69598854  0.52392380  0.88733564  1
  Tc  Tc7  1  0.47877660  0.30955034  0.61518961  1
  Tc  Tc8  1  0.52140895  0.68973824  0.11343689  1
  Tc  Tc9  1  0.02202723  0.80905199  0.63689276  1
  Tc  Tc10  1  0.19098741  0.97539021  0.86381809  1
  Tc  Tc11  1  0.81049525  0.02011279  0.36380831  1
loop_
_geom_bond_atom_site_label_1
_geom_bond_atom_site_label_2
_geom_bond_distance
_geom_bond_site_symmetry_2
Hf0 Si4 2.709171 1_555
Hf0 Si12 2.716577 1_455
Hf0 Si0 2.750741 1_555
Hf0 Si14 2.791172 1_554
Hf0 Si8 2.800384 1_455
Hf0 Si6 2.808800 1_454
Hf0 Tc6 2.880746 1_454
Hf0 Si10 2.949851 1_454
Hf0 Tc0 2.992551 1_554
Hf0 Tc1 3.066590 1_555
Hf1 Si7 2.703111 1_655
Hf1 Si15 2.715447 1_555
Hf1 Si1 2.750553 1_555
Hf1 Si12 2.785463 1_555
Hf1 Si9 2.798134 1_655
Hf1 Si4 2.814580 1_655
Hf1 Tc4 2.904761 1_555
Hf1 Si8 2.960104 1_555
Hf1 Tc1 2.998583 1_655
Hf1 Tc3 3.090142 1_555
Hf2 Si14 2.705263 1_555
Hf2 Si6 2.713300 1_455
Hf2 Si2 2.743456 1_555
Hf2 Si11 2.773575 1_555
Hf2 Si10 2.784745 1_455
Hf2 Si3 2.798617 1_455
Hf2 Tc9 2.914899 1_555
Hf2 Si13 2.946181 1_555
Hf2 Tc2 3.034909 1_455
Hf2 Tc0 3.065880 1_555
Hf3 Si13 2.695186 1_555
Hf3 Si5 2.700394 1_565
Hf3 Si3 2.728765 1_555
Hf3 Si10 2.782466 1_555
Hf3 Si11 2.788002 1_565
Hf3 Si2 2.808274 1_565
Hf3 Tc10 2.919309 1_555
Hf3 Si14 2.938143 1_555
Hf3 Tc2 3.048206 1_565
Hf3 Tc3 3.082177 1_555
Sc0 Si8 2.703523 1_555
Sc0 Si0 2.711689 1_545
Sc0 Si4 2.735161 1_555
Sc0 Si12 2.761388 1_545
Sc0 Si9 2.770381 1_555
Sc0 Si1 2.776555 1_545
Sc0 Tc11 2.911384 1_555
Sc0 Si15 2.936783 1_555
Sc0 Tc1 3.079840 1_545
Sc0 Tc0 3.161742 1_554
Sc1 Si3 2.707649 1_555
Sc1 Si11 2.721123 1_655
Sc1 Si5 2.747444 1_555
Sc1 Si13 2.770291 1_655
Sc1 Si15 2.781107 1_555
Sc1 Si7 2.795276 1_655
Sc1 Tc5 2.906898 1_655
Sc1 Si9 2.938820 1_655
Sc1 Tc3 3.039633 1_555
Sc1 Tc2 3.126663 1_555
Sc2 Si10 2.699082 1_545
Sc2 Si2 2.708580 1_555
Sc2 Si6 2.732193 1_555
Sc2 Si14 2.761704 1_545
Sc2 Si8 2.773972 1_556
Sc2 Si0 2.776593 1_546
Sc2 Tc8 2.903445 1_546
Sc2 Si12 2.925120 1_546
Sc2 Tc0 3.075901 1_555
Sc2 Tc2 3.112314 1_555
Sc3 Si1 2.700744 1_555
Sc3 Si9 2.715927 1_565
Sc3 Si7 2.744133 1_555
Sc3 Si15 2.774562 1_565
Sc3 Si13 2.787322 1_555
Sc3 Si5 2.792722 1_565
Sc3 Tc7 2.910018 1_565
Sc3 Si11 2.932411 1_565
Sc3 Tc3 3.041851 1_555
Sc3 Tc1 3.158320 1_555
Si0 Tc10 2.475636 1_554
Si0 Tc0 2.497345 1_564
Si0 Si14 2.566068 1_554
Si0 Tc4 2.584142 1_465
Si0 Tc8 2.601191 1_555
Si0 Tc1 2.639782 1_555
Si1 Tc8 2.478394 1_555
Si1 Tc1 2.493914 1_555
Si1 Tc5 2.559163 1_555
Si1 Si12 2.560792 1_555
Si1 Tc11 2.602418 1_565
Si1 Tc3 2.650790 1_555
Si2 Tc7 2.474544 1_555
Si2 Tc2 2.475006 1_555
Si2 Tc6 2.600666 1_555
Si2 Tc10 2.601124 1_545
Si2 Tc0 2.616409 1_555
Si3 Tc2 2.474764 1_555
Si3 Tc6 2.483437 1_555
Si3 Tc7 2.556482 1_555
Si3 Tc9 2.595891 1_655
Si3 Tc3 2.635411 1_555
Si4 Tc1 2.465171 1_555
Si4 Tc5 2.471557 1_555
Si4 Tc8 2.554328 1_555
Si4 Si9 2.560061 1_555
Si4 Tc4 2.592721 1_455
Si4 Tc0 2.622709 1_554
Si5 Tc11 2.472694 1_555
Si5 Tc3 2.485329 1_545
Si5 Tc9 2.571709 1_645
Si5 Tc7 2.600786 1_555
Si5 Tc2 2.643166 1_555
Si6 Tc0 2.466862 1_655
Si6 Tc4 2.474125 1_556
Si6 Si8 2.559908 1_556
Si6 Tc10 2.566787 1_645
Si6 Tc6 2.583653 1_555
Si6 Tc2 2.612822 1_555
Si7 Tc9 2.473319 1_555
Si7 Tc3 2.480591 1_455
Si7 Tc11 2.548741 1_465
Si7 Tc5 2.602784 1_555
Si7 Tc1 2.641398 1_555
Si8 Tc8 2.386080 1_555
Si8 Tc4 2.389090 1_555
Si8 Tc6 2.448096 1_554
Si8 Tc0 2.586892 1_554
Si9 Tc11 2.396290 1_455
Si9 Tc5 2.404408 1_555
Si9 Tc4 2.453437 1_455
Si9 Tc1 2.582413 1_545
Si10 Tc6 2.377783 1_555
Si10 Tc10 2.384374 1_655
Si10 Tc9 2.446323 1_655
Si10 Si3 2.562089 1_555
Si10 Tc2 2.569377 1_565
Si11 Tc9 2.393697 1_545
Si11 Tc7 2.396831 1_555
Si11 Tc10 2.456029 1_545
Si11 Si2 2.558548 1_555
Si11 Tc2 2.572984 1_455
Si12 Tc8 2.398739 1_555
Si12 Tc4 2.401521 1_565
Si12 Tc11 2.449277 1_565
Si12 Tc1 2.549855 1_655
Si13 Tc7 2.394632 1_555
Si13 Tc9 2.396168 1_555
Si13 Tc5 2.455470 1_555
Si13 Si7 2.562760 1_555
Si13 Tc3 2.565407 1_555
Si14 Tc10 2.385572 1_555
Si14 Tc6 2.394428 1_555
Si14 Tc8 2.456606 1_556
Si14 Tc0 2.553133 1_555
Si15 Tc5 2.402713 1_555
Si15 Tc11 2.408693 1_555
Si15 Tc7 2.457071 1_555
Si15 Si5 2.552129 1_555
Si15 Tc3 2.558928 1_555
Tc0 Tc4 3.015442 1_456
Tc0 Tc8 3.022663 1_556
Tc0 Tc10 3.024751 1_545
Tc0 Tc6 3.057980 1_555
Tc1 Tc11 3.010487 1_465
Tc1 Tc5 3.011324 1_555
Tc1 Tc8 3.018169 1_555
Tc1 Tc4 3.046286 1_465
