# generated using pymatgen
data_Cs2Zn(CO3)2
_symmetry_space_group_name_H-M   'P 1'
_cell_length_a   7.26575195
_cell_length_b   7.04772785
_cell_length_c   9.67699013
_cell_angle_alpha   101.15791139
_cell_angle_beta   67.95010747
_cell_angle_gamma   121.02872530
_symmetry_Int_Tables_number   1
_chemical_formula_structural   Cs2Zn(CO3)2
_chemical_formula_sum   'Cs4 Zn2 C4 O12'
_cell_volume   393.56598686
_cell_formula_units_Z   2
loop_
 _symmetry_equiv_pos_site_id
 _symmetry_equiv_pos_as_xyz
  1  'x, y, z'
loop_
 _atom_site_type_symbol
 _atom_site_label
 _atom_site_symmetry_multiplicity
 _atom_site_fract_x
 _atom_site_fract_y
 _atom_site_fract_z
 _atom_site_occupancy
  Cs  Cs0  1  0.65659163  0.33050897  0.09422100  1
  Cs  Cs1  1  0.00081363  0.83050797  0.40577900  1
  Cs  Cs2  1  0.57608466  0.16949203  0.59422100  1
  Cs  Cs3  1  0.42030566  0.66949303  0.90578000  1
  Zn  Zn0  1  0.98327652  0.00000000  1.00000000  1
  Zn  Zn1  1  0.23327752  0.50000100  0.50000000  1
  C  C0  1  0.07798115  0.29502712  0.24244664  1
  C  C1  1  0.57042878  0.79502812  0.25755436  1
  C  C2  1  0.03295403  0.20497188  0.74244664  1
  C  C3  1  0.02539966  0.70497188  0.75755336  1
  O  O0  1  0.13463994  0.15725602  0.14802273  1
  O  O1  1  0.49609736  0.93039325  0.29558691  1
  O  O2  1  0.68946252  0.77876684  0.11973020  1
  O  O3  1  0.05919172  0.27876584  0.38026980  1
  O  O4  1  0.04168227  0.43039225  0.20441309  1
  O  O5  1  0.53266267  0.65725702  0.35197727  1
  O  O6  1  0.22738292  0.34274398  0.64802273  1
  O  O7  1  0.81570311  0.56960775  0.79558691  1
  O  O8  1  0.16069569  0.72123416  0.61973020  1
  O  O9  1  0.03042589  0.22123316  0.88026980  1
  O  O10  1  0.86129002  0.06960675  0.70441409  1
  O  O11  1  0.12540565  0.84274298  0.85197727  1
loop_
_geom_bond_atom_site_label_1
_geom_bond_atom_site_label_2
_geom_bond_distance
_geom_bond_site_symmetry_2
Cs0 O2 3.010498 1_555
Cs0 O4 3.062729 1_655
Cs0 O9 3.094263 1_654
Cs0 O7 3.145696 1_554
Cs0 O0 3.183357 1_555
Cs0 O1 3.184229 1_545
Cs0 O5 3.250181 1_555
Cs1 O3 3.010505 1_565
Cs1 O1 3.062731 1_555
Cs1 O8 3.094250 1_555
Cs1 O10 3.145704 1_465
Cs1 O5 3.183367 1_455
Cs1 O4 3.184222 1_555
Cs1 O0 3.250183 1_565
Cs2 O8 3.010504 1_545
Cs2 O10 3.062731 1_555
Cs2 O3 3.094249 1_655
Cs2 O1 3.145696 1_545
Cs2 O6 3.183372 1_555
Cs2 O7 3.184222 1_555
Cs2 O11 3.250188 1_545
Cs3 O9 3.010514 1_555
Cs3 O7 3.062724 1_555
Cs3 O2 3.094247 1_556
Cs3 O4 3.145696 1_556
Cs3 O11 3.183366 1_555
Cs3 O10 3.184215 1_565
Cs3 O6 3.250196 1_555
C0 O4 1.258308 1_555
C0 O3 1.310298 1_555
C0 O0 1.316608 1_555
C1 O1 1.258303 1_555
C1 O2 1.310306 1_555
C1 O5 1.316598 1_555
C2 O10 1.258303 1_455
C2 O9 1.310298 1_555
C2 O6 1.316607 1_555
C3 O7 1.258301 1_455
C3 O8 1.310300 1_555
C3 O11 1.316608 1_555
O0 Zn0 1.949724 1_454
O2 Zn0 1.934256 1_564
O3 Zn1 1.934268 1_555
O5 Zn1 1.949720 1_555
O6 Zn1 1.949721 1_555
O8 Zn1 1.934259 1_555
O9 Zn0 1.934256 1_455
O11 Zn0 1.949725 1_465
