# generated using pymatgen
data_MnOs2F12
_symmetry_space_group_name_H-M   'P 1'
_cell_length_a   5.09816005
_cell_length_b   5.53150692
_cell_length_c   8.70840204
_cell_angle_alpha   74.18285123
_cell_angle_beta   89.43087555
_cell_angle_gamma   63.09484408
_symmetry_Int_Tables_number   1
_chemical_formula_structural   MnOs2F12
_chemical_formula_sum   'Mn1 Os2 F12'
_cell_volume   208.85801363
_cell_formula_units_Z   1
loop_
 _symmetry_equiv_pos_site_id
 _symmetry_equiv_pos_as_xyz
  1  'x, y, z'
loop_
 _atom_site_type_symbol
 _atom_site_label
 _atom_site_symmetry_multiplicity
 _atom_site_fract_x
 _atom_site_fract_y
 _atom_site_fract_z
 _atom_site_occupancy
  Mn  Mn0  1  0.50000000  0.50000000  0.50000000  1
  Os  Os0  1  0.76123656  0.00673824  0.23671709  1
  Os  Os1  1  0.23876344  0.99326176  0.76328291  1
  F  F0  1  0.94762607  0.23517198  0.20163203  1
  F  F1  1  0.05237393  0.76482802  0.79836797  1
  F  F2  1  0.02160176  0.76563257  0.12997055  1
  F  F3  1  0.49764758  0.76248480  0.63517780  1
  F  F4  1  0.50235242  0.23751520  0.36482220  1
  F  F5  1  0.95953577  0.23646744  0.56489951  1
  F  F6  1  0.04046423  0.76353256  0.43510049  1
  F  F7  1  0.42955776  0.23621382  0.70211845  1
  F  F8  1  0.57044224  0.76378618  0.29788155  1
  F  F9  1  0.51521910  0.76877694  0.94551814  1
  F  F10  1  0.48478090  0.23122306  0.05448186  1
  F  F11  1  0.97839824  0.23436743  0.87002945  1
loop_
_geom_bond_atom_site_label_1
_geom_bond_atom_site_label_2
_geom_bond_distance
_geom_bond_site_symmetry_2
F0 Os0 1.861023 1_555
F1 Os1 1.861023 1_555
F2 Os0 1.858478 1_465
F3 Os1 1.959165 1_555
F3 Mn0 2.099935 1_555
F4 Os0 1.959165 1_555
F4 Mn0 2.099935 1_555
F5 Os1 1.967126 1_645
F5 Mn0 2.102241 1_555
F6 Os0 1.967126 1_465
F6 Mn0 2.102241 1_555
F7 Os1 1.954084 1_545
F7 Mn0 2.101841 1_555
F8 Os0 1.954084 1_565
F8 Mn0 2.101841 1_555
F9 Os1 1.852871 1_555
F10 Os0 1.852871 1_555
F11 Os1 1.858478 1_645
