# generated using pymatgen
data_Li2(Ni7B2)3
_symmetry_space_group_name_H-M   'P 1'
_cell_length_a   7.31358985
_cell_length_b   7.31358958
_cell_length_c   7.31358930
_cell_angle_alpha   59.99999690
_cell_angle_beta   59.99999809
_cell_angle_gamma   59.99999753
_symmetry_Int_Tables_number   1
_chemical_formula_structural   Li2(Ni7B2)3
_chemical_formula_sum   'Li2 Ni21 B6'
_cell_volume   276.61564050
_cell_formula_units_Z   1
loop_
 _symmetry_equiv_pos_site_id
 _symmetry_equiv_pos_as_xyz
  1  'x, y, z'
loop_
 _atom_site_type_symbol
 _atom_site_label
 _atom_site_symmetry_multiplicity
 _atom_site_fract_x
 _atom_site_fract_y
 _atom_site_fract_z
 _atom_site_occupancy
  Li  Li0  1  0.75000000  0.75000000  0.75000000  1
  Li  Li1  1  0.25000000  0.25000000  0.25000000  1
  Ni  Ni0  1  0.00000000  0.00000000  0.00000000  1
  Ni  Ni1  1  0.61759458  0.61759458  0.14721425  1
  Ni  Ni2  1  0.61759458  0.14721425  0.61759458  1
  Ni  Ni3  1  0.14721425  0.61759458  0.61759458  1
  Ni  Ni4  1  0.61759458  0.61759458  0.61759458  1
  Ni  Ni5  1  0.38240542  0.38240542  0.85278575  1
  Ni  Ni6  1  0.38240542  0.85278575  0.38240542  1
  Ni  Ni7  1  0.85278575  0.38240542  0.38240542  1
  Ni  Ni8  1  0.38240542  0.38240542  0.38240542  1
  Ni  Ni9  1  0.00000000  0.00000000  0.33790374  1
  Ni  Ni10  1  0.66209626  0.00000000  0.33790374  1
  Ni  Ni11  1  1.00000000  0.66209626  0.33790374  1
  Ni  Ni12  1  0.66209626  0.33790374  0.00000000  1
  Ni  Ni13  1  0.00000000  0.33790374  0.00000000  1
  Ni  Ni14  1  0.00000000  0.33790374  0.66209626  1
  Ni  Ni15  1  0.33790374  0.66209626  1.00000000  1
  Ni  Ni16  1  0.33790374  1.00000000  0.66209626  1
  Ni  Ni17  1  0.33790374  0.00000000  1.00000000  1
  Ni  Ni18  1  1.00000000  1.00000000  0.66209626  1
  Ni  Ni19  1  1.00000000  0.66209626  1.00000000  1
  Ni  Ni20  1  0.66209626  1.00000000  0.00000000  1
  B  B0  1  0.72575374  0.72575374  0.27424626  1
  B  B1  1  0.27424626  0.72575374  0.27424626  1
  B  B2  1  0.72575374  0.27424626  0.27424626  1
  B  B3  1  0.27424626  0.27424626  0.72575374  1
  B  B4  1  0.72575374  0.27424626  0.72575374  1
  B  B5  1  0.27424626  0.72575374  0.72575374  1
loop_
_geom_bond_atom_site_label_1
_geom_bond_atom_site_label_2
_geom_bond_distance
_geom_bond_site_symmetry_2
Li0 Ni1 2.371973 1_556
Li0 Ni2 2.371973 1_565
Li0 Ni3 2.371973 1_655
Li0 Ni4 2.371985 1_555
Li1 Ni5 2.371973 1_554
Li1 Ni6 2.371973 1_545
Li1 Ni7 2.371973 1_455
Li1 Ni8 2.371985 1_555
Ni0 Ni11 2.471289 1_445
Ni0 Ni14 2.471289 1_554
Ni0 Ni9 2.471289 1_555
Ni0 Ni18 2.471289 1_444
Ni0 Ni16 2.471289 1_544
Ni0 Ni10 2.471289 1_455
Ni0 Ni12 2.471289 1_455
Ni0 Ni15 2.471289 1_544
Ni0 Ni13 2.471289 1_555
Ni0 Ni19 2.471289 1_444
Ni0 Ni17 2.471289 1_554
Ni0 Ni20 2.471289 1_445
B0 Ni4 2.051859 1_555
B0 Ni7 2.051860 1_555
B0 Ni6 2.051860 1_555
B0 Ni1 2.051872 1_555
B0 Ni20 2.059049 1_555
B0 Ni19 2.059049 1_554
B0 Ni10 2.059049 1_565
B0 Ni11 2.059049 1_555
B1 Ni8 2.051859 1_555
B1 Ni3 2.051860 1_555
B1 Ni1 2.051860 1_555
B1 Ni6 2.051872 1_555
B1 Ni17 2.059049 1_564
B1 Ni15 2.059049 1_554
B1 Ni9 2.059049 1_565
B1 Ni11 2.059049 1_455
B2 Ni8 2.051860 1_555
B2 Ni2 2.051860 1_555
B2 Ni1 2.051860 1_555
B2 Ni7 2.051872 1_555
B2 Ni12 2.059049 1_555
B2 Ni13 2.059049 1_655
B2 Ni9 2.059049 1_655
B2 Ni10 2.059049 1_555
B3 Ni8 2.051859 1_555
B3 Ni3 2.051860 1_555
B3 Ni2 2.051860 1_555
B3 Ni5 2.051872 1_555
B3 Ni17 2.059049 1_555
B3 Ni13 2.059049 1_556
B3 Ni16 2.059049 1_545
B3 Ni14 2.059049 1_555
B4 Ni4 2.051859 1_555
B4 Ni7 2.051860 1_555
B4 Ni5 2.051860 1_555
B4 Ni2 2.051872 1_555
B4 Ni20 2.059049 1_546
B4 Ni12 2.059049 1_556
B4 Ni18 2.059049 1_545
B4 Ni14 2.059049 1_655
B5 Ni4 2.051860 1_555
B5 Ni6 2.051860 1_555
B5 Ni5 2.051860 1_555
B5 Ni3 2.051872 1_555
B5 Ni15 2.059049 1_555
B5 Ni19 2.059049 1_455
B5 Ni18 2.059049 1_455
B5 Ni16 2.059049 1_555
