# generated using pymatgen
data_Rb4NaAs2Au
_symmetry_space_group_name_H-M   'P 1'
_cell_length_a   6.75259491
_cell_length_b   6.75259608
_cell_length_c   6.20278510
_cell_angle_alpha   92.35174983
_cell_angle_beta   92.35176010
_cell_angle_gamma   102.12814369
_symmetry_Int_Tables_number   1
_chemical_formula_structural   Rb4NaAs2Au
_chemical_formula_sum   'Rb4 Na1 As2 Au1'
_cell_volume   275.92893665
_cell_formula_units_Z   1
loop_
 _symmetry_equiv_pos_site_id
 _symmetry_equiv_pos_as_xyz
  1  'x, y, z'
loop_
 _atom_site_type_symbol
 _atom_site_label
 _atom_site_symmetry_multiplicity
 _atom_site_fract_x
 _atom_site_fract_y
 _atom_site_fract_z
 _atom_site_occupancy
  Rb  Rb0  1  0.03204995  0.69069987  0.25978167  1
  Rb  Rb1  1  0.96795005  0.30930013  0.74021833  1
  Rb  Rb2  1  0.69069987  0.03204995  0.25978167  1
  Rb  Rb3  1  0.30930013  0.96795005  0.74021833  1
  Na  Na0  1  0.50000000  0.50000000  0.00000000  1
  As  As0  1  0.75539726  0.75539726  0.73114714  1
  As  As1  1  0.24460274  0.24460274  0.26885286  1
  Au  Au0  1  0.50000000  0.50000000  0.50000000  1
loop_
_geom_bond_atom_site_label_1
_geom_bond_atom_site_label_2
_geom_bond_distance
_geom_bond_site_symmetry_2
As0 Au0 2.519621 1_555
As0 Na0 2.819886 1_556
As0 Rb2 3.593827 1_565
As0 Rb0 3.593828 1_655
As0 Rb3 3.600174 1_555
As0 Rb1 3.600174 1_555
As0 Rb3 3.711231 1_655
As0 Rb1 3.711232 1_565
As0 Rb0 3.793470 1_656
As0 Rb2 3.793470 1_566
As1 Au0 2.519621 1_555
As1 Na0 2.819886 1_555
As1 Rb3 3.593827 1_545
As1 Rb1 3.593828 1_455
As1 Rb2 3.600174 1_555
As1 Rb0 3.600174 1_555
As1 Rb2 3.711231 1_455
As1 Rb0 3.711232 1_545
As1 Rb1 3.793470 1_454
As1 Rb3 3.793470 1_544
Au0 Na0 3.101393 1_555
Au0 Na0 3.101393 1_556
Au0 Rb0 3.917151 1_555
Au0 Rb1 3.917151 1_555
Au0 Rb3 3.917152 1_555
Au0 Rb2 3.917152 1_555
Au0 Rb1 3.929224 1_455
Au0 Rb0 3.929224 1_655
Au0 Rb2 3.929225 1_565
Au0 Rb3 3.929225 1_545
