# generated using pymatgen
data_Ca10SnMoN10
_symmetry_space_group_name_H-M   'P 1'
_cell_length_a   6.93652651
_cell_length_b   6.93652572
_cell_length_c   8.75704158
_cell_angle_alpha   82.05501762
_cell_angle_beta   82.05501505
_cell_angle_gamma   60.22401542
_symmetry_Int_Tables_number   1
_chemical_formula_structural   Ca10SnMoN10
_chemical_formula_sum   'Ca10 Sn1 Mo1 N10'
_cell_volume   361.02054635
_cell_formula_units_Z   1
loop_
 _symmetry_equiv_pos_site_id
 _symmetry_equiv_pos_as_xyz
  1  'x, y, z'
loop_
 _atom_site_type_symbol
 _atom_site_label
 _atom_site_symmetry_multiplicity
 _atom_site_fract_x
 _atom_site_fract_y
 _atom_site_fract_z
 _atom_site_occupancy
  Ca  Ca0  1  0.89210226  0.36530488  0.84029556  1
  Ca  Ca1  1  0.88203841  0.88203841  0.81477933  1
  Ca  Ca2  1  0.73613444  0.73613444  0.53564458  1
  Ca  Ca3  1  0.74730858  0.26142418  0.51572031  1
  Ca  Ca4  1  0.61226373  0.12713169  0.14052931  1
  Ca  Ca5  1  0.36530488  0.89210226  0.84029556  1
  Ca  Ca6  1  0.26142418  0.74730858  0.51572031  1
  Ca  Ca7  1  0.24342900  0.24342900  0.49781518  1
  Ca  Ca8  1  0.13289904  0.13289904  0.17222192  1
  Ca  Ca9  1  0.12713169  0.61226373  0.14052931  1
  Sn  Sn0  1  0.37401090  0.37401090  0.77245444  1
  Mo  Mo0  1  0.63034624  0.63034624  0.22472395  1
  N  N0  1  0.90306735  0.46997592  0.32073704  1
  N  N1  1  0.98687595  0.98687595  0.03383819  1
  N  N2  1  0.68793062  0.68793062  0.01762760  1
  N  N3  1  0.55065086  0.55065086  0.69405688  1
  N  N4  1  0.46997592  0.90306735  0.32073704  1
  N  N5  1  0.55702377  0.07369891  0.66014457  1
  N  N6  1  0.47087419  0.47087419  0.28479108  1
  N  N7  1  0.29300269  0.29300269  0.99479978  1
  N  N8  1  0.06479338  0.06479338  0.64819549  1
  N  N9  1  0.07369891  0.55702377  0.66014457  1
loop_
_geom_bond_atom_site_label_1
_geom_bond_atom_site_label_2
_geom_bond_distance
_geom_bond_site_symmetry_2
Ca0 N3 2.502309 1_555
Ca0 N9 2.525573 1_655
Ca0 N8 2.557779 1_655
Ca0 N2 2.574930 1_556
Ca0 N1 2.749439 1_546
Ca0 N7 3.046739 1_655
Ca1 N8 2.432237 1_665
Ca1 N1 2.456440 1_556
Ca1 N9 2.460320 1_655
Ca1 N5 2.460321 1_565
Ca1 N2 2.694331 1_556
Ca2 N5 2.378408 1_565
Ca2 N9 2.378408 1_655
Ca2 N3 2.427441 1_555
Ca2 N0 2.554575 1_555
Ca2 N4 2.554575 1_555
Ca3 N8 2.311167 1_655
Ca3 N5 2.414059 1_555
Ca3 N3 2.425637 1_555
Ca3 N0 2.556378 1_555
Ca3 N6 2.714755 1_555
Ca4 N1 2.375054 1_545
Ca4 N7 2.387742 1_554
Ca4 N4 2.509005 1_545
Ca4 N6 2.531925 1_555
Ca5 N3 2.502309 1_555
Ca5 N5 2.525573 1_565
Ca5 N8 2.557779 1_565
Ca5 N2 2.574930 1_556
Ca5 N1 2.749439 1_456
Ca5 N7 3.046739 1_565
Ca6 N8 2.311167 1_565
Ca6 N9 2.414059 1_555
Ca6 N3 2.425637 1_555
Ca6 N4 2.556378 1_555
Ca6 N6 2.714755 1_555
Ca7 N8 2.329760 1_555
Ca7 N9 2.446857 1_555
Ca7 N5 2.446858 1_555
Ca7 N4 2.664873 1_545
Ca7 N0 2.664873 1_455
Ca7 N6 3.050095 1_555
Ca8 N7 2.269726 1_554
Ca8 N1 2.284313 1_445
Ca8 N0 2.503021 1_455
Ca8 N4 2.503021 1_545
Ca9 N1 2.375054 1_455
Ca9 N7 2.387742 1_554
Ca9 N0 2.509005 1_455
Ca9 N6 2.531925 1_555
Mo0 N2 1.834672 1_555
Mo0 N4 1.901072 1_555
Mo0 N0 1.901072 1_555
Mo0 N6 1.901999 1_555
N3 Sn0 2.121299 1_555
N5 Sn0 2.124362 1_555
N7 Sn0 2.032570 1_555
N9 Sn0 2.124362 1_555
