# generated using pymatgen
data_Hf6BiIrPb
_symmetry_space_group_name_H-M   'P 1'
_cell_length_a   7.93462147
_cell_length_b   7.93462053
_cell_length_c   3.58075867
_cell_angle_alpha   90.00000000
_cell_angle_beta   90.00000000
_cell_angle_gamma   119.99999174
_symmetry_Int_Tables_number   1
_chemical_formula_structural   Hf6BiIrPb
_chemical_formula_sum   'Hf6 Bi1 Ir1 Pb1'
_cell_volume   195.23518765
_cell_formula_units_Z   1
loop_
 _symmetry_equiv_pos_site_id
 _symmetry_equiv_pos_as_xyz
  1  'x, y, z'
loop_
 _atom_site_type_symbol
 _atom_site_label
 _atom_site_symmetry_multiplicity
 _atom_site_fract_x
 _atom_site_fract_y
 _atom_site_fract_z
 _atom_site_occupancy
  Hf  Hf0  1  0.60963058  0.00122664  0.50000000  1
  Hf  Hf1  1  0.39159606  0.39036942  0.50000000  1
  Hf  Hf2  1  0.99877336  0.60840394  0.50000000  1
  Hf  Hf3  1  0.24618135  0.99841448  0.00000000  1
  Hf  Hf4  1  0.75223413  0.75381865  0.00000000  1
  Hf  Hf5  1  0.00158552  0.24776587  0.00000000  1
  Bi  Bi0  1  0.66666700  0.33333300  0.00000000  1
  Ir  Ir0  1  0.00000000  0.00000000  0.50000000  1
  Pb  Pb0  1  0.33333300  0.66666700  0.00000000  1
loop_
_geom_bond_atom_site_label_1
_geom_bond_atom_site_label_2
_geom_bond_distance
_geom_bond_site_symmetry_2
Hf0 Pb0 3.039556 1_545
Hf0 Pb0 3.039556 1_546
Hf0 Ir0 3.102311 1_655
Hf1 Pb0 3.039560 1_556
Hf1 Pb0 3.039560 1_555
Hf1 Ir0 3.102312 1_555
Hf2 Pb0 3.039554 1_655
Hf2 Pb0 3.039554 1_656
Hf2 Ir0 3.102311 1_665
Hf3 Ir0 2.654391 1_565
Hf3 Ir0 2.654391 1_564
Hf3 Pb0 3.037666 1_555
Hf4 Ir0 2.654388 1_665
Hf4 Ir0 2.654388 1_664
Hf4 Pb0 3.037682 1_555
Hf5 Ir0 2.654385 1_555
Hf5 Ir0 2.654385 1_554
Hf5 Pb0 3.037677 1_555
Bi0 Hf0 3.026823 1_555
Bi0 Hf0 3.026823 1_554
Bi0 Hf2 3.026826 1_555
Bi0 Hf2 3.026826 1_554
Bi0 Hf1 3.026830 1_555
Bi0 Hf1 3.026830 1_554
Bi0 Hf4 3.054058 1_555
Bi0 Hf5 3.054058 1_655
Bi0 Hf3 3.054058 1_545
