# generated using pymatgen
data_YAgPt2O7
_symmetry_space_group_name_H-M   'P 1'
_cell_length_a   7.15515153
_cell_length_b   7.29668243
_cell_length_c   7.15515155
_cell_angle_alpha   59.34348751
_cell_angle_beta   59.36710295
_cell_angle_gamma   59.34348702
_symmetry_Int_Tables_number   1
_chemical_formula_structural   YAgPt2O7
_chemical_formula_sum   'Y2 Ag2 Pt4 O14'
_cell_volume   260.24828223
_cell_formula_units_Z   2
loop_
 _symmetry_equiv_pos_site_id
 _symmetry_equiv_pos_as_xyz
  1  'x, y, z'
loop_
 _atom_site_type_symbol
 _atom_site_label
 _atom_site_symmetry_multiplicity
 _atom_site_fract_x
 _atom_site_fract_y
 _atom_site_fract_z
 _atom_site_occupancy
  Y  Y0  1  0.12500000  0.62500000  0.12500000  1
  Y  Y1  1  0.12500000  0.12500000  0.12500000  1
  Ag  Ag0  1  0.12500000  0.12500000  0.62500000  1
  Ag  Ag1  1  0.62500000  0.12500000  0.12500000  1
  Pt  Pt0  1  0.62500000  0.62500000  0.62500000  1
  Pt  Pt1  1  0.12500000  0.62500000  0.62500000  1
  Pt  Pt2  1  0.62500000  0.62500000  0.12500000  1
  Pt  Pt3  1  0.62500000  0.12500000  0.62500000  1
  O  O0  1  0.28903024  0.69680584  0.72056944  1
  O  O1  1  0.52943056  0.95640553  0.96096976  1
  O  O2  1  0.72056944  0.69680584  0.28903024  1
  O  O3  1  0.28903024  0.29359447  0.72056944  1
  O  O4  1  0.98549903  0.01450097  0.98549903  1
  O  O5  1  0.28153540  0.71846460  0.28153540  1
  O  O6  1  0.70445932  0.29554068  0.70445932  1
  O  O7  1  0.96846460  0.53153540  0.96846460  1
  O  O8  1  0.52943056  0.55319416  0.96096976  1
  O  O9  1  0.96096976  0.95640553  0.52943056  1
  O  O10  1  0.26450097  0.23549903  0.26450097  1
  O  O11  1  0.54554068  0.95445932  0.54554068  1
  O  O12  1  0.72056944  0.29359447  0.28903024  1
  O  O13  1  0.96096976  0.55319416  0.52943056  1
loop_
_geom_bond_atom_site_label_1
_geom_bond_atom_site_label_2
_geom_bond_distance
_geom_bond_site_symmetry_2
Ag0 O4 2.091865 1_455
Ag0 O10 2.091865 1_555
Ag0 O11 2.466909 1_545
Ag0 O6 2.466909 1_455
Ag0 O13 2.550789 1_455
Ag0 O0 2.550789 1_545
Ag0 O3 2.550789 1_555
Ag0 O9 2.550789 1_445
Ag1 O4 2.091865 1_554
Ag1 O10 2.091865 1_555
Ag1 O11 2.466909 1_545
Ag1 O6 2.466909 1_554
Ag1 O8 2.550789 1_554
Ag1 O2 2.550789 1_545
Ag1 O12 2.550789 1_555
Ag1 O1 2.550789 1_544
O0 Pt0 1.981585 1_555
O0 Pt1 1.982407 1_555
O0 Y0 2.376074 1_556
O1 Pt3 1.981585 1_565
O1 Pt2 1.982406 1_556
O1 Y1 2.376074 1_566
O2 Pt0 1.981585 1_555
O2 Pt2 1.982407 1_555
O2 Y0 2.376074 1_655
O3 Pt3 1.981585 1_555
O3 Pt1 1.982406 1_555
O3 Y1 2.376074 1_556
O4 Y0 2.302043 1_646
O4 Y1 2.302043 1_656
O5 Pt2 2.005957 1_555
O5 Pt1 2.005957 1_555
O5 Y1 2.410469 1_565
O5 Y0 2.410469 1_555
O6 Pt0 1.991816 1_555
O6 Pt3 1.991816 1_555
O7 Pt2 2.005957 1_556
O7 Pt1 2.005957 1_655
O7 Y1 2.410469 1_656
O7 Y0 2.410469 1_656
O8 Pt0 1.981585 1_555
O8 Pt2 1.982407 1_556
O8 Y0 2.376074 1_556
O9 Pt3 1.981585 1_565
O9 Pt1 1.982406 1_655
O9 Y1 2.376074 1_665
O10 Y0 2.302043 1_555
O10 Y1 2.302043 1_555
O11 Pt0 1.991816 1_555
O11 Pt3 1.991816 1_565
O12 Pt3 1.981585 1_555
O12 Pt2 1.982406 1_555
O12 Y1 2.376074 1_655
O13 Pt0 1.981585 1_555
O13 Pt1 1.982407 1_655
O13 Y0 2.376074 1_655
