# generated using pymatgen
data_Hf12Ti4Os8O
_symmetry_space_group_name_H-M   'P 1'
_cell_length_a   8.53334073
_cell_length_b   8.53334070
_cell_length_c   8.53334047
_cell_angle_alpha   60.12128415
_cell_angle_beta   60.12129200
_cell_angle_gamma   60.12130084
_symmetry_Int_Tables_number   1
_chemical_formula_structural   Hf12Ti4Os8O
_chemical_formula_sum   'Hf12 Ti4 Os8 O1'
_cell_volume   440.58936081
_cell_formula_units_Z   1
loop_
 _symmetry_equiv_pos_site_id
 _symmetry_equiv_pos_as_xyz
  1  'x, y, z'
loop_
 _atom_site_type_symbol
 _atom_site_label
 _atom_site_symmetry_multiplicity
 _atom_site_fract_x
 _atom_site_fract_y
 _atom_site_fract_z
 _atom_site_occupancy
  Hf  Hf0  1  0.43200773  0.43200773  0.81661833  1
  Hf  Hf1  1  0.81661833  0.43200773  0.43200773  1
  Hf  Hf2  1  0.43200773  0.81661833  0.43200773  1
  Hf  Hf3  1  0.81857230  0.81857230  0.43141392  1
  Hf  Hf4  1  0.43141392  0.81857230  0.81857230  1
  Hf  Hf5  1  0.81857230  0.43141392  0.81857230  1
  Hf  Hf6  1  0.56799227  0.56799227  0.18338167  1
  Hf  Hf7  1  0.18338167  0.56799227  0.56799227  1
  Hf  Hf8  1  0.56799227  0.18338167  0.56799227  1
  Hf  Hf9  1  0.18142770  0.18142770  0.56858608  1
  Hf  Hf10  1  0.56858608  0.18142770  0.18142770  1
  Hf  Hf11  1  0.18142770  0.56858608  0.18142770  1
  Ti  Ti0  1  0.00000000  0.00000000  0.00000000  1
  Ti  Ti1  1  0.00000000  0.50000000  0.00000000  1
  Ti  Ti2  1  0.50000000  0.00000000  0.00000000  1
  Ti  Ti3  1  0.00000000  0.00000000  0.50000000  1
  Os  Os0  1  0.78884183  0.78884183  0.78884183  1
  Os  Os1  1  0.79043452  0.12979008  0.79043452  1
  Os  Os2  1  0.12979008  0.79043452  0.79043452  1
  Os  Os3  1  0.79043452  0.79043452  0.12979008  1
  Os  Os4  1  0.21115817  0.21115817  0.21115817  1
  Os  Os5  1  0.20956548  0.87020992  0.20956548  1
  Os  Os6  1  0.87020992  0.20956548  0.20956548  1
  Os  Os7  1  0.20956548  0.20956548  0.87020992  1
  O  O0  1  0.50000000  0.50000000  0.50000000  1
loop_
_geom_bond_atom_site_label_1
_geom_bond_atom_site_label_2
_geom_bond_distance
_geom_bond_site_symmetry_2
Hf0 O0 2.277008 1_555
Hf0 Os2 2.844292 1_555
Hf0 Os1 2.844292 1_555
Hf0 Os7 3.045549 1_555
Hf0 Os4 3.055100 1_556
Hf0 Hf10 3.181407 1_556
Hf0 Hf11 3.181407 1_556
Hf0 Hf4 3.304497 1_555
Hf0 Hf5 3.304497 1_555
Hf1 O0 2.277008 1_555
Hf1 Os1 2.844292 1_555
Hf1 Os3 2.844292 1_555
Hf1 Os6 3.045549 1_555
Hf1 Os4 3.055101 1_655
Hf1 Hf11 3.181407 1_655
Hf1 Hf9 3.181407 1_655
Hf1 Hf5 3.304497 1_555
Hf1 Hf3 3.304497 1_555
Hf2 O0 2.277008 1_555
Hf2 Os2 2.844292 1_555
Hf2 Os3 2.844292 1_555
Hf2 Os5 3.045549 1_555
Hf2 Os4 3.055100 1_565
Hf2 Hf9 3.181407 1_565
Hf2 Hf4 3.304497 1_555
Hf2 Hf3 3.304497 1_555
Hf3 Os0 2.820242 1_555
Hf3 Os3 2.833545 1_555
Hf3 Os6 3.041487 1_565
Hf3 Os5 3.041487 1_655
Hf3 Ti3 3.054493 1_665
Hf3 Ti0 3.062253 1_665
Hf3 Hf7 3.181407 1_655
Hf3 Hf8 3.181407 1_565
Hf3 Hf5 3.309809 1_555
Hf3 Hf4 3.309809 1_555
Hf4 Os0 2.820242 1_555
Hf4 Os2 2.833545 1_555
Hf4 Os5 3.041487 1_556
Hf4 Os7 3.041488 1_565
Hf4 Ti2 3.054493 1_566
Hf4 Ti0 3.062254 1_566
Hf4 Hf9 3.171855 1_565
Hf4 Hf8 3.181406 1_565
Hf4 Hf6 3.181407 1_556
Hf4 Hf5 3.309810 1_555
Hf5 Os0 2.820242 1_555
Hf5 Os1 2.833545 1_555
Hf5 Os6 3.041487 1_556
Hf5 Os7 3.041487 1_655
Hf5 Ti1 3.054493 1_656
Hf5 Ti0 3.062253 1_656
Hf5 Hf9 3.171856 1_655
Hf5 Hf7 3.181407 1_655
Hf5 Hf6 3.181407 1_556
Hf6 O0 2.277008 1_555
Hf6 Os6 2.844292 1_555
Hf6 Os5 2.844292 1_555
Hf6 Os3 3.045549 1_555
Hf6 Os0 3.055100 1_554
Hf7 O0 2.277008 1_555
Hf7 Os5 2.844292 1_555
Hf7 Os7 2.844292 1_555
Hf7 Os2 3.045549 1_555
Hf7 Os0 3.055101 1_455
Hf7 Hf9 3.304497 1_555
Hf8 O0 2.277008 1_555
Hf8 Os6 2.844292 1_555
Hf8 Os7 2.844292 1_555
Hf8 Os1 3.045549 1_555
Hf8 Os0 3.055100 1_545
Hf8 Hf9 3.304497 1_555
Hf9 Os4 2.820242 1_555
Hf9 Os7 2.833545 1_555
Hf9 Os2 3.041487 1_545
Hf9 Os1 3.041487 1_455
Hf9 Ti3 3.054493 1_555
Hf9 Ti0 3.062253 1_556
Hf10 Os4 2.820242 1_555
Hf10 Os6 2.833545 1_555
Hf10 Os1 3.041487 1_554
Hf10 Os3 3.041488 1_545
Hf10 Ti2 3.054493 1_555
Hf10 Ti0 3.062254 1_655
Hf10 Hf5 3.171855 1_554
Hf10 Hf3 3.171855 1_545
Hf10 Hf2 3.181406 1_545
Hf10 Hf8 3.304497 1_555
Hf10 Hf6 3.304497 1_555
Hf10 Hf9 3.309809 1_555
Hf10 Hf11 3.309810 1_555
Hf11 Os4 2.820242 1_555
Hf11 Os5 2.833545 1_555
Hf11 Os2 3.041487 1_554
Hf11 Os3 3.041487 1_455
Hf11 Ti1 3.054493 1_555
Hf11 Ti0 3.062253 1_565
Hf11 Hf4 3.171855 1_554
Hf11 Hf3 3.171856 1_455
Hf11 Hf7 3.304497 1_555
Hf11 Hf6 3.304497 1_555
Hf11 Hf9 3.309809 1_555
Os0 Ti3 2.636985 1_665
Os0 Ti1 2.636985 1_656
Os0 Ti2 2.636986 1_566
Os1 Ti0 2.619582 1_656
Os1 Ti2 2.629198 1_556
Os1 Ti3 2.629199 1_655
Os2 Ti0 2.619582 1_566
Os2 Ti1 2.629198 1_556
Os2 Ti3 2.629198 1_565
Os3 Ti0 2.619582 1_665
Os3 Ti2 2.629199 1_565
Os3 Ti1 2.629199 1_655
Os4 Ti3 2.636985 1_555
Os4 Ti1 2.636985 1_555
Os4 Ti2 2.636986 1_555
Os5 Ti0 2.619582 1_565
Os5 Ti2 2.629198 1_565
Os5 Ti3 2.629199 1_565
Os6 Ti0 2.619582 1_655
Os6 Ti1 2.629198 1_655
Os6 Ti3 2.629198 1_655
Os7 Ti0 2.619582 1_556
Os7 Ti2 2.629199 1_556
Os7 Ti1 2.629199 1_556
