# generated using pymatgen
data_RbMnGaF6
_symmetry_space_group_name_H-M   'P 1'
_cell_length_a   7.34457451
_cell_length_b   7.34457315
_cell_length_c   7.34457423
_cell_angle_alpha   119.28160854
_cell_angle_beta   120.17541183
_cell_angle_gamma   90.47260859
_symmetry_Int_Tables_number   1
_chemical_formula_structural   RbMnGaF6
_chemical_formula_sum   'Rb2 Mn2 Ga2 F12'
_cell_volume   281.26432253
_cell_formula_units_Z   2
loop_
 _symmetry_equiv_pos_site_id
 _symmetry_equiv_pos_as_xyz
  1  'x, y, z'
loop_
 _atom_site_type_symbol
 _atom_site_label
 _atom_site_symmetry_multiplicity
 _atom_site_fract_x
 _atom_site_fract_y
 _atom_site_fract_z
 _atom_site_occupancy
  Rb  Rb0  1  0.62371747  0.87371747  0.75000000  1
  Rb  Rb1  1  0.37628253  0.12628253  0.25000000  1
  Mn  Mn0  1  0.50000000  0.50000000  0.00000000  1
  Mn  Mn1  1  0.00000000  0.50000000  0.50000000  1
  Ga  Ga0  1  0.00000000  0.50000000  0.00000000  1
  Ga  Ga1  1  0.00000000  0.00000000  0.50000000  1
  F  F0  1  0.04415635  0.79415635  0.25000000  1
  F  F1  1  0.65855835  0.40855835  0.25000000  1
  F  F2  1  0.05765929  0.84255655  0.65094413  1
  F  F3  1  0.69161243  0.40671517  0.84905587  1
  F  F4  1  0.69161243  0.84255655  0.28489726  1
  F  F5  1  0.05765929  0.40671517  0.21510274  1
  F  F6  1  0.95584365  0.20584365  0.75000000  1
  F  F7  1  0.34144165  0.59144165  0.75000000  1
  F  F8  1  0.94234071  0.15744345  0.34905587  1
  F  F9  1  0.30838757  0.59328483  0.15094413  1
  F  F10  1  0.30838757  0.15744345  0.71510274  1
  F  F11  1  0.94234071  0.59328483  0.78489726  1
loop_
_geom_bond_atom_site_label_1
_geom_bond_atom_site_label_2
_geom_bond_distance
_geom_bond_site_symmetry_2
F0 Ga0 1.911419 1_555
F0 Ga1 1.911419 1_565
F1 Mn0 2.061119 1_555
F1 Mn1 2.061120 1_655
F1 Rb1 2.919824 1_555
F2 Ga1 1.880335 1_565
F2 Mn1 2.126105 1_555
F2 Rb1 3.126841 1_566
F3 Ga0 1.880336 1_656
F3 Mn0 2.126105 1_556
F3 Rb1 3.126841 1_555
F4 Ga1 1.880336 1_665
F4 Mn0 2.126105 1_555
F4 Rb1 3.126841 1_565
F5 Ga0 1.880335 1_555
F5 Mn1 2.126105 1_555
F5 Rb1 3.126841 1_555
F6 Ga0 1.911419 1_656
F6 Ga1 1.911419 1_655
F7 Mn0 2.061119 1_556
F7 Mn1 2.061120 1_555
F7 Rb0 2.919824 1_555
F8 Ga1 1.880335 1_655
F8 Mn1 2.126105 1_655
F8 Rb0 3.126841 1_544
F9 Ga0 1.880336 1_555
F9 Mn0 2.126105 1_555
F9 Rb0 3.126841 1_555
F10 Ga1 1.880336 1_555
F10 Mn0 2.126105 1_556
F10 Rb0 3.126841 1_545
F11 Ga0 1.880335 1_656
F11 Mn1 2.126105 1_655
F11 Rb0 3.126841 1_555
