# generated using pymatgen
data_K2Rb3AgAs2
_symmetry_space_group_name_H-M   'P 1'
_cell_length_a   5.86856288
_cell_length_b   5.86856218
_cell_length_c   20.01493498
_cell_angle_alpha   90.00000000
_cell_angle_beta   90.00000000
_cell_angle_gamma   120.00000933
_symmetry_Int_Tables_number   1
_chemical_formula_structural   K2Rb3AgAs2
_chemical_formula_sum   'K4 Rb6 Ag2 As4'
_cell_volume   596.96414560
_cell_formula_units_Z   2
loop_
 _symmetry_equiv_pos_site_id
 _symmetry_equiv_pos_as_xyz
  1  'x, y, z'
loop_
 _atom_site_type_symbol
 _atom_site_label
 _atom_site_symmetry_multiplicity
 _atom_site_fract_x
 _atom_site_fract_y
 _atom_site_fract_z
 _atom_site_occupancy
  K  K0  1  0.00000000  0.00000000  0.14452891  1
  K  K1  1  0.00000000  0.00000000  0.64452891  1
  K  K2  1  0.00000000  0.00000000  0.85547109  1
  K  K3  1  0.00000000  0.00000000  0.35547109  1
  Rb  Rb0  1  0.33333300  0.66666700  0.54998313  1
  Rb  Rb1  1  0.66666700  0.33333300  0.04998313  1
  Rb  Rb2  1  0.66666700  0.33333300  0.45001687  1
  Rb  Rb3  1  0.33333300  0.66666700  0.95001687  1
  Rb  Rb4  1  0.33333300  0.66666700  0.75000000  1
  Rb  Rb5  1  0.66666700  0.33333300  0.25000000  1
  Ag  Ag0  1  0.66666700  0.33333300  0.75000000  1
  Ag  Ag1  1  0.33333300  0.66666700  0.25000000  1
  As  As0  1  0.33333300  0.66666700  0.12447710  1
  As  As1  1  0.66666700  0.33333300  0.62447710  1
  As  As2  1  0.33333300  0.66666700  0.37552290  1
  As  As3  1  0.66666700  0.33333300  0.87552290  1
loop_
_geom_bond_atom_site_label_1
_geom_bond_atom_site_label_2
_geom_bond_distance
_geom_bond_site_symmetry_2
Ag0 As3 2.512333 1_555
Ag0 As1 2.512333 1_555
Ag0 Rb4 3.388212 1_545
Ag0 Rb4 3.388213 1_655
Ag0 Rb4 3.388223 1_555
Ag1 As2 2.512333 1_555
Ag1 As0 2.512333 1_555
Ag1 Rb5 3.388212 1_565
Ag1 Rb5 3.388213 1_455
Ag1 Rb5 3.388223 1_555
As0 K0 3.411899 1_565
As0 K0 3.411904 1_555
As0 K0 3.411904 1_665
As0 Rb3 3.491810 1_554
As0 Rb1 3.701762 1_565
As0 Rb1 3.701762 1_455
As0 Rb1 3.701772 1_555
As1 K1 3.411899 1_655
As1 K1 3.411904 1_665
As1 K1 3.411904 1_555
As1 Rb2 3.491810 1_555
As1 Rb0 3.701762 1_545
As1 Rb0 3.701762 1_655
As1 Rb0 3.701772 1_555
As2 K3 3.411899 1_565
As2 K3 3.411904 1_555
As2 K3 3.411904 1_665
As2 Rb0 3.491810 1_555
As2 Rb2 3.701762 1_565
As2 Rb2 3.701762 1_455
As2 Rb2 3.701772 1_555
As3 K2 3.411899 1_655
As3 K2 3.411904 1_665
As3 K2 3.411904 1_555
As3 Rb1 3.491810 1_556
As3 Rb3 3.701762 1_545
As3 Rb3 3.701762 1_655
As3 Rb3 3.701772 1_555
