# generated using pymatgen
data_LiHg2ClO2
_symmetry_space_group_name_H-M   'P 1'
_cell_length_a   6.35565986
_cell_length_b   6.35565913
_cell_length_c   8.95418239
_cell_angle_alpha   90.00000000
_cell_angle_beta   90.00000000
_cell_angle_gamma   120.00000879
_symmetry_Int_Tables_number   1
_chemical_formula_structural   LiHg2ClO2
_chemical_formula_sum   'Li3 Hg6 Cl3 O6'
_cell_volume   313.24040231
_cell_formula_units_Z   3
loop_
 _symmetry_equiv_pos_site_id
 _symmetry_equiv_pos_as_xyz
  1  'x, y, z'
loop_
 _atom_site_type_symbol
 _atom_site_label
 _atom_site_symmetry_multiplicity
 _atom_site_fract_x
 _atom_site_fract_y
 _atom_site_fract_z
 _atom_site_occupancy
  Li  Li0  1  0.00000000  0.00000000  0.16666700  1
  Li  Li1  1  0.00000000  0.00000000  0.83333300  1
  Li  Li2  1  0.00000000  0.00000000  0.50000000  1
  Hg  Hg0  1  0.50000000  0.50000000  0.00695953  1
  Hg  Hg1  1  0.00000000  0.50000000  0.34029253  1
  Hg  Hg2  1  0.50000000  0.00000000  0.67362553  1
  Hg  Hg3  1  0.00000000  0.50000000  0.99304047  1
  Hg  Hg4  1  0.50000000  0.50000000  0.65970747  1
  Hg  Hg5  1  0.50000000  0.00000000  0.32637447  1
  Cl  Cl0  1  0.50000000  0.00000000  0.00000000  1
  Cl  Cl1  1  0.50000000  0.50000000  0.33333300  1
  Cl  Cl2  1  0.00000000  0.50000000  0.66666700  1
  O  O0  1  0.86830816  0.73661631  0.00000000  1
  O  O1  1  0.13169184  0.86830816  0.33333300  1
  O  O2  1  0.73661631  0.86830816  0.66666700  1
  O  O3  1  0.26338369  0.13169184  0.66666700  1
  O  O4  1  0.13169184  0.26338369  0.00000000  1
  O  O5  1  0.86830816  0.13169184  0.33333300  1
loop_
_geom_bond_atom_site_label_1
_geom_bond_atom_site_label_2
_geom_bond_distance
_geom_bond_site_symmetry_2
Li0 O1 2.080572 1_545
Li0 O5 2.080572 1_455
Li0 O4 2.080579 1_555
Li0 O0 2.080579 1_445
Li1 O3 2.080572 1_555
Li1 O2 2.080572 1_445
Li1 O4 2.080579 1_556
Li1 O0 2.080579 1_446
Li2 O3 2.080579 1_555
Li2 O2 2.080579 1_445
Li2 O1 2.080579 1_545
Li2 O5 2.080579 1_455
Hg0 O0 2.055411 1_555
Hg0 O4 2.055411 1_555
Hg1 O1 2.055411 1_555
Hg1 O5 2.055411 1_455
Hg2 O2 2.055411 1_545
Hg2 O3 2.055411 1_555
Hg3 O0 2.055411 1_456
Hg3 O4 2.055411 1_556
Hg4 O2 2.055410 1_555
Hg4 O3 2.055410 1_555
Hg5 O5 2.055411 1_555
Hg5 O1 2.055411 1_545
Cl0 Hg5 2.922417 1_555
Cl0 Hg2 2.922417 1_554
Cl1 Hg0 2.922408 1_555
Cl1 Hg4 2.922417 1_555
Cl2 Hg3 2.922408 1_555
Cl2 Hg1 2.922417 1_555
