# generated using pymatgen
data_Ca3Si(GePd4)5
_symmetry_space_group_name_H-M   'P 1'
_cell_length_a   8.76126256
_cell_length_b   8.76126295
_cell_length_c   8.79146847
_cell_angle_alpha   59.88588057
_cell_angle_beta   59.88587908
_cell_angle_gamma   60.22823124
_symmetry_Int_Tables_number   1
_chemical_formula_structural   Ca3Si(GePd4)5
_chemical_formula_sum   'Ca3 Si1 Ge5 Pd20'
_cell_volume   477.16594928
_cell_formula_units_Z   1
loop_
 _symmetry_equiv_pos_site_id
 _symmetry_equiv_pos_as_xyz
  1  'x, y, z'
loop_
 _atom_site_type_symbol
 _atom_site_label
 _atom_site_symmetry_multiplicity
 _atom_site_fract_x
 _atom_site_fract_y
 _atom_site_fract_z
 _atom_site_occupancy
  Ca  Ca0  1  0.24900312  0.24900312  0.25099688  1
  Ca  Ca1  1  0.74900312  0.74900312  0.75099688  1
  Ca  Ca2  1  0.00110710  0.00110710  0.99889290  1
  Si  Si0  1  0.73077965  0.73078065  0.26922035  1
  Ge  Ge0  1  0.73193116  0.26738314  0.26806884  1
  Ge  Ge1  1  0.26738314  0.73193216  0.73261586  1
  Ge  Ge2  1  0.26738414  0.73193116  0.26806784  1
  Ge  Ge3  1  0.73193116  0.26738414  0.73261586  1
  Ge  Ge4  1  0.26808660  0.26808660  0.73191340  1
  Pd  Pd0  1  0.38339240  0.38339240  0.38239257  1
  Pd  Pd1  1  0.61855757  0.61855757  0.61059368  1
  Pd  Pd2  1  0.38339240  0.38339240  0.85082064  1
  Pd  Pd3  1  0.38940632  0.84770582  0.38144243  1
  Pd  Pd4  1  0.61855757  0.61855757  0.15229418  1
  Pd  Pd5  1  0.61760743  0.14917936  0.61660760  1
  Pd  Pd6  1  0.84770582  0.38940632  0.38144243  1
  Pd  Pd7  1  0.14917936  0.61760743  0.61660760  1
  Pd  Pd8  1  0.34912595  0.00054352  0.99945648  1
  Pd  Pd9  1  0.65542013  0.99360590  0.00639410  1
  Pd  Pd10  1  0.00054352  0.34912595  0.65087405  1
  Pd  Pd11  1  0.99360590  0.65542013  0.34457987  1
  Pd  Pd12  1  0.00054352  0.34912595  0.99945648  1
  Pd  Pd13  1  0.65542013  0.99360590  0.34457987  1
  Pd  Pd14  1  0.99360590  0.65542013  0.00639410  1
  Pd  Pd15  1  0.34912595  0.00054352  0.65087405  1
  Pd  Pd16  1  0.99954974  0.99954974  0.34780133  1
  Pd  Pd17  1  0.99954974  0.99954974  0.65309920  1
  Pd  Pd18  1  0.65219867  0.34690080  0.00045026  1
  Pd  Pd19  1  0.34690080  0.65219867  0.00045026  1
loop_
_geom_bond_atom_site_label_1
_geom_bond_atom_site_label_2
_geom_bond_distance
_geom_bond_site_symmetry_2
Ca0 Pd0 2.865898 1_555
Ca0 Pd2 2.865912 1_554
Ca0 Pd6 2.874767 1_455
Ca0 Pd3 2.874767 1_545
Ca0 Pd17 3.359769 1_445
Ca0 Pd16 3.359770 1_445
Ca0 Pd18 3.372149 1_555
Ca0 Pd19 3.372149 1_555
Ca1 Pd7 2.865912 1_655
Ca1 Pd5 2.865912 1_565
Ca1 Pd1 2.874746 1_555
Ca1 Pd4 2.874767 1_556
Ca1 Pd19 3.359770 1_556
Ca1 Pd18 3.359770 1_556
Ca1 Pd16 3.372149 1_555
Ca1 Pd17 3.372149 1_555
Ca2 Pd13 3.028913 1_446
Ca2 Pd11 3.028913 1_446
Ca2 Pd9 3.028913 1_446
Ca2 Pd14 3.028914 1_446
Ca2 Pd15 3.049122 1_555
Ca2 Pd10 3.049122 1_555
Ca2 Pd8 3.049123 1_555
Ca2 Pd12 3.049123 1_555
Ca2 Pd16 3.053786 1_446
Ca2 Pd17 3.053786 1_445
Ca2 Pd18 3.053787 1_456
Ca2 Pd19 3.053787 1_546
Ge0 Pd12 2.455204 1_654
Ge0 Pd18 2.455597 1_555
Ge0 Pd16 2.455597 1_545
Ge0 Pd13 2.486077 1_545
Ge0 Pd5 2.496205 1_555
Ge0 Pd0 2.496205 1_555
Ge0 Pd6 2.515133 1_555
Ge0 Pd4 2.515154 1_555
Ge1 Pd15 2.455199 1_565
Ge1 Pd17 2.455592 1_455
Ge1 Pd19 2.455603 1_556
Ge1 Pd14 2.486082 1_456
Ge1 Pd7 2.496191 1_555
Ge1 Pd2 2.496212 1_555
Ge1 Pd3 2.515147 1_555
Ge1 Pd1 2.515154 1_555
Ge2 Pd8 2.455199 1_564
Ge2 Pd19 2.455592 1_555
Ge2 Pd16 2.455603 1_455
Ge2 Pd11 2.486083 1_455
Ge2 Pd0 2.496205 1_555
Ge2 Pd7 2.496212 1_555
Ge2 Pd3 2.515133 1_555
Ge2 Pd4 2.515147 1_555
Ge3 Pd10 2.455202 1_655
Ge3 Pd18 2.455600 1_556
Ge3 Pd17 2.455600 1_545
Ge3 Pd9 2.486086 1_546
Ge3 Pd5 2.496191 1_555
Ge3 Pd2 2.496205 1_555
Ge3 Pd6 2.515146 1_555
Ge3 Pd1 2.515147 1_555
Ge4 Pd12 2.453876 1_555
Ge4 Pd8 2.453876 1_555
Ge4 Pd10 2.453876 1_555
Ge4 Pd15 2.453876 1_555
Ge4 Pd2 2.503359 1_555
Ge4 Pd0 2.503373 1_555
Ge4 Pd5 2.503373 1_555
Ge4 Pd7 2.503373 1_555
Pd1 Si0 2.445108 1_555
Pd3 Si0 2.445108 1_555
Pd4 Si0 2.445094 1_555
Pd6 Si0 2.445115 1_555
Pd9 Si0 2.399852 1_555
Pd11 Si0 2.399852 1_555
Pd13 Si0 2.399847 1_555
Pd14 Si0 2.399858 1_555
Pd16 Pd17 2.684017 1_555
Pd18 Pd19 2.684017 1_555
