# generated using pymatgen
data_Mn2GaCo4As
_symmetry_space_group_name_H-M   'P 1'
_cell_length_a   6.96687110
_cell_length_b   6.96687103
_cell_length_c   6.96687118
_cell_angle_alpha   33.61352504
_cell_angle_beta   33.61352549
_cell_angle_gamma   33.61353400
_symmetry_Int_Tables_number   1
_chemical_formula_structural   Mn2GaCo4As
_chemical_formula_sum   'Mn2 Ga1 Co4 As1'
_cell_volume   92.31453394
_cell_formula_units_Z   1
loop_
 _symmetry_equiv_pos_site_id
 _symmetry_equiv_pos_as_xyz
  1  'x, y, z'
loop_
 _atom_site_type_symbol
 _atom_site_label
 _atom_site_symmetry_multiplicity
 _atom_site_fract_x
 _atom_site_fract_y
 _atom_site_fract_z
 _atom_site_occupancy
  Mn  Mn0  1  0.25300844  0.25300844  0.25300844  1
  Mn  Mn1  1  0.74699156  0.74699156  0.74699156  1
  Ga  Ga0  1  0.00000000  0.00000000  0.00000000  1
  Co  Co0  1  0.37741654  0.37741654  0.37741654  1
  Co  Co1  1  0.87291084  0.87291084  0.87291084  1
  Co  Co2  1  0.62258346  0.62258346  0.62258346  1
  Co  Co3  1  0.12708916  0.12708916  0.12708916  1
  As  As0  1  0.50000000  0.50000000  0.50000000  1
loop_
_geom_bond_atom_site_label_1
_geom_bond_atom_site_label_2
_geom_bond_distance
_geom_bond_site_symmetry_2
Ga0 Mn1 2.813345 1_445
Ga0 Mn0 2.813345 1_554
Ga0 Mn1 2.813345 1_454
Ga0 Mn0 2.813345 1_545
Ga0 Mn1 2.813345 1_544
Ga0 Mn0 2.813345 1_455
Co0 Mn1 2.433187 1_554
Co0 Mn1 2.433188 1_545
Co0 Mn1 2.433188 1_455
Co0 Mn0 2.450998 1_555
Co0 Ga0 2.482917 1_556
Co0 Ga0 2.482918 1_565
Co0 Ga0 2.482918 1_655
Co1 Mn1 2.480770 1_555
Co1 Mn0 2.501883 1_665
Co1 Mn0 2.501883 1_656
Co1 Mn0 2.501883 1_566
Co1 Ga0 2.503819 1_666
Co2 Mn0 2.433187 1_556
Co2 Mn0 2.433188 1_565
Co2 Mn0 2.433188 1_655
Co2 Mn1 2.450998 1_555
Co2 Ga0 2.482917 1_665
Co2 Ga0 2.482918 1_656
Co2 Ga0 2.482918 1_566
Co3 Mn0 2.480770 1_555
Co3 Mn1 2.501883 1_445
Co3 Mn1 2.501883 1_454
Co3 Mn1 2.501883 1_544
Co3 Ga0 2.503819 1_555
As0 Co2 2.415050 1_555
As0 Co0 2.415050 1_555
As0 Co1 2.453277 1_554
As0 Co3 2.453277 1_556
As0 Co1 2.453278 1_545
As0 Co3 2.453278 1_565
As0 Co1 2.453278 1_455
As0 Co3 2.453278 1_655
