# generated using pymatgen
data_Rb4Nb2PtO10
_symmetry_space_group_name_H-M   'P 1'
_cell_length_a   7.84883348
_cell_length_b   7.84883331
_cell_length_c   13.53660274
_cell_angle_alpha   90.00000000
_cell_angle_beta   90.00000000
_cell_angle_gamma   134.78381095
_symmetry_Int_Tables_number   1
_chemical_formula_structural   Rb4Nb2PtO10
_chemical_formula_sum   'Rb8 Nb4 Pt2 O20'
_cell_volume   591.88512263
_cell_formula_units_Z   2
loop_
 _symmetry_equiv_pos_site_id
 _symmetry_equiv_pos_as_xyz
  1  'x, y, z'
loop_
 _atom_site_type_symbol
 _atom_site_label
 _atom_site_symmetry_multiplicity
 _atom_site_fract_x
 _atom_site_fract_y
 _atom_site_fract_z
 _atom_site_occupancy
  Rb  Rb0  1  0.45563470  0.54436530  0.13419691  1
  Rb  Rb1  1  0.23894145  0.76105855  0.90682104  1
  Rb  Rb2  1  0.73894145  0.26105855  0.59317896  1
  Rb  Rb3  1  0.04436530  0.95563470  0.63419691  1
  Rb  Rb4  1  0.95563470  0.04436530  0.36580309  1
  Rb  Rb5  1  0.26105855  0.73894145  0.40682104  1
  Rb  Rb6  1  0.54436530  0.45563470  0.86580309  1
  Rb  Rb7  1  0.76105855  0.23894145  0.09317896  1
  Nb  Nb0  1  0.13367140  0.86632860  0.15851455  1
  Nb  Nb1  1  0.36632860  0.63367140  0.65851455  1
  Nb  Nb2  1  0.86632860  0.13367140  0.84148545  1
  Nb  Nb3  1  0.63367140  0.36632860  0.34148545  1
  Pt  Pt0  1  0.00000000  0.00000000  0.00000000  1
  Pt  Pt1  1  0.50000000  0.50000000  0.50000000  1
  O  O0  1  0.54016252  0.45983748  0.63188873  1
  O  O1  1  0.74222449  0.25777551  0.84729819  1
  O  O2  1  0.39055535  0.19091405  0.45526418  1
  O  O3  1  0.89055535  0.69091405  0.04473582  1
  O  O4  1  0.64184550  0.85815450  0.75000000  1
  O  O5  1  0.14184550  0.35815450  0.75000000  1
  O  O6  1  0.25777551  0.74222449  0.15270181  1
  O  O7  1  0.04016252  0.95983748  0.86811127  1
  O  O8  1  0.35815450  0.14184550  0.25000000  1
  O  O9  1  0.80908595  0.60944465  0.45526418  1
  O  O10  1  0.75777551  0.24222449  0.34729819  1
  O  O11  1  0.45983748  0.54016252  0.36811127  1
  O  O12  1  0.85815450  0.64184550  0.25000000  1
  O  O13  1  0.10944465  0.30908595  0.95526418  1
  O  O14  1  0.60944465  0.80908595  0.54473582  1
  O  O15  1  0.24222449  0.75777551  0.65270181  1
  O  O16  1  0.69091405  0.89055535  0.95526418  1
  O  O17  1  0.19091405  0.39055535  0.54473582  1
  O  O18  1  0.95983748  0.04016252  0.13188873  1
  O  O19  1  0.30908595  0.10944465  0.04473582  1
loop_
_geom_bond_atom_site_label_1
_geom_bond_atom_site_label_2
_geom_bond_distance
_geom_bond_site_symmetry_2
Nb0 O6 1.800162 1_555
Nb0 O8 1.986552 1_565
Nb0 O12 1.986552 1_455
Nb0 O19 2.051224 1_565
Nb0 O3 2.051224 1_455
Nb0 O18 2.544749 1_465
Nb1 O15 1.800162 1_555
Nb1 O5 1.986552 1_555
Nb1 O4 1.986552 1_555
Nb1 O17 2.051224 1_555
Nb1 O14 2.051224 1_555
Nb1 O0 2.544749 1_555
Nb2 O1 1.800162 1_555
Nb2 O4 1.986552 1_545
Nb2 O5 1.986552 1_655
Nb2 O16 2.051224 1_545
Nb2 O13 2.051224 1_655
Nb2 O7 2.544749 1_645
Nb3 O10 1.800162 1_555
Nb3 O12 1.986552 1_555
Nb3 O8 1.986552 1_555
Nb3 O9 2.051224 1_555
Nb3 O2 2.051224 1_555
Nb3 O11 2.544749 1_555
O0 Pt1 1.877797 1_555
O0 Rb2 2.927855 1_555
O0 Rb3 3.018070 1_545
O0 Rb3 3.018070 1_655
O0 Rb6 3.166992 1_555
O1 Rb6 2.878177 1_555
O1 Rb1 3.123385 1_655
O1 Rb1 3.123385 1_545
O1 Rb7 3.339562 1_556
O1 Rb2 3.440240 1_555
O2 Pt1 2.013438 1_555
O2 Rb4 2.985044 1_455
O2 Rb5 2.994608 1_545
O2 Rb2 3.023991 1_555
O2 Rb3 3.096890 1_545
O3 Pt0 2.013438 1_665
O3 Rb0 2.985044 1_555
O3 Rb7 2.994608 1_555
O3 Rb1 3.023991 1_654
O3 Rb6 3.096890 1_554
O4 Rb6 3.101357 1_555
O4 Rb3 3.101357 1_655
O4 Rb2 3.419376 1_565
O4 Rb1 3.419376 1_555
O5 Rb3 3.101357 1_545
O5 Rb6 3.101357 1_555
O5 Rb1 3.419376 1_555
O5 Rb2 3.419376 1_455
O6 Rb0 2.878177 1_555
O6 Rb7 3.123385 1_455
O6 Rb7 3.123385 1_565
O6 Rb1 3.339562 1_554
O6 Rb5 3.440240 1_555
O7 Pt0 1.877797 1_566
O7 Rb1 2.927855 1_555
O7 Rb6 3.018070 1_455
O7 Rb6 3.018070 1_565
O7 Rb3 3.166992 1_555
O8 Rb0 3.101357 1_555
O8 Rb4 3.101357 1_455
O8 Rb5 3.419376 1_545
O8 Rb7 3.419376 1_555
O9 Pt1 2.013438 1_555
O9 Rb4 2.985044 1_565
O9 Rb5 2.994609 1_655
O9 Rb2 3.023991 1_555
O9 Rb3 3.096890 1_655
O10 Rb4 2.878177 1_555
O10 Rb5 3.123385 1_545
O10 Rb5 3.123385 1_655
O10 Rb2 3.339562 1_555
O10 Rb7 3.440240 1_555
O11 Pt1 1.877797 1_555
O11 Rb5 2.927855 1_555
O11 Rb4 3.018070 1_565
O11 Rb4 3.018070 1_455
O11 Rb0 3.166992 1_555
O12 Rb4 3.101357 1_565
O12 Rb0 3.101357 1_555
O12 Rb7 3.419376 1_555
O12 Rb5 3.419376 1_655
O13 Pt0 2.013438 1_556
O13 Rb6 2.985044 1_555
O13 Rb1 2.994608 1_555
O13 Rb7 3.023991 1_456
O13 Rb0 3.096890 1_556
O14 Pt1 2.013438 1_555
O14 Rb3 2.985044 1_655
O14 Rb2 2.994608 1_565
O14 Rb5 3.023991 1_555
O14 Rb4 3.096890 1_565
O15 Rb3 2.878177 1_555
O15 Rb2 3.123385 1_565
O15 Rb2 3.123385 1_455
O15 Rb5 3.339562 1_555
O15 Rb1 3.440240 1_555
O16 Pt0 2.013438 1_666
O16 Rb6 2.985044 1_555
O16 Rb1 2.994609 1_555
O16 Rb7 3.023991 1_566
O16 Rb0 3.096890 1_556
O17 Pt1 2.013438 1_555
O17 Rb3 2.985044 1_545
O17 Rb2 2.994609 1_455
O17 Rb5 3.023991 1_555
O17 Rb4 3.096890 1_455
O18 Pt0 1.877797 1_655
O18 Rb7 2.927855 1_555
O18 Rb0 3.018070 1_655
O18 Rb0 3.018070 1_545
O18 Rb4 3.166992 1_555
O19 Pt0 2.013438 1_555
O19 Rb0 2.985044 1_555
O19 Rb7 2.994609 1_555
O19 Rb1 3.023991 1_544
O19 Rb6 3.096890 1_554
