# generated using pymatgen
data_Y2ReTcC3
_symmetry_space_group_name_H-M   'P 1'
_cell_length_a   6.07179750
_cell_length_b   6.07179842
_cell_length_c   5.69075260
_cell_angle_alpha   66.69123704
_cell_angle_beta   66.69123217
_cell_angle_gamma   31.61851962
_symmetry_Int_Tables_number   1
_chemical_formula_structural   Y2ReTcC3
_chemical_formula_sum   'Y2 Re1 Tc1 C3'
_cell_volume   100.25851417
_cell_formula_units_Z   1
loop_
 _symmetry_equiv_pos_site_id
 _symmetry_equiv_pos_as_xyz
  1  'x, y, z'
loop_
 _atom_site_type_symbol
 _atom_site_label
 _atom_site_symmetry_multiplicity
 _atom_site_fract_x
 _atom_site_fract_y
 _atom_site_fract_z
 _atom_site_occupancy
  Y  Y0  1  0.60910260  0.60910260  0.18294523  1
  Y  Y1  1  0.39096334  0.39096334  0.82134780  1
  Re  Re0  1  0.15780886  0.15780886  0.67803238  1
  Tc  Tc0  1  0.84283879  0.84283879  0.31868480  1
  C  C0  1  0.75261439  0.75261439  0.72921257  1
  C  C1  1  0.24653588  0.24653588  0.27144206  1
  C  C2  1  0.00013614  0.00013614  0.99833617  1
loop_
_geom_bond_atom_site_label_1
_geom_bond_atom_site_label_2
_geom_bond_distance
_geom_bond_site_symmetry_2
C0 Re0 2.076909 1_565
C0 Re0 2.076909 1_655
C0 Tc0 2.131569 1_555
C0 Y0 2.432649 1_556
C0 Y1 2.514238 1_655
C0 Y1 2.514239 1_565
C1 Tc0 2.079308 1_545
C1 Tc0 2.079308 1_455
C1 Re0 2.110813 1_555
C1 Y1 2.419359 1_554
C1 Y0 2.496733 1_455
C1 Y0 2.496734 1_545
C2 Tc0 1.986338 1_446
C2 Re0 1.988608 1_555
C2 Y1 2.536654 1_455
C2 Y1 2.536654 1_545
C2 Y0 2.561469 1_546
C2 Y0 2.561470 1_456
