# generated using pymatgen
data_Ti16CuIr7O4
_symmetry_space_group_name_H-M   'P 1'
_cell_length_a   8.21656067
_cell_length_b   8.18734565
_cell_length_c   8.18734549
_cell_angle_alpha   59.99999669
_cell_angle_beta   60.11754631
_cell_angle_gamma   60.11754312
_symmetry_Int_Tables_number   1
_chemical_formula_structural   Ti16CuIr7O4
_chemical_formula_sum   'Ti16 Cu1 Ir7 O4'
_cell_volume   390.14911437
_cell_formula_units_Z   1
loop_
 _symmetry_equiv_pos_site_id
 _symmetry_equiv_pos_as_xyz
  1  'x, y, z'
loop_
 _atom_site_type_symbol
 _atom_site_label
 _atom_site_symmetry_multiplicity
 _atom_site_fract_x
 _atom_site_fract_y
 _atom_site_fract_z
 _atom_site_occupancy
  Ti  Ti0  1  0.81825846  0.18232407  0.81709340  1
  Ti  Ti1  1  0.18232434  0.81762170  0.18243227  1
  Ti  Ti2  1  0.43530696  0.06503573  0.43462159  1
  Ti  Ti3  1  0.43530696  0.06503573  0.06503573  1
  Ti  Ti4  1  0.06689811  0.43430997  0.43430997  1
  Ti  Ti5  1  0.06689811  0.43430997  0.06448095  1
  Ti  Ti6  1  0.18232434  0.18243227  0.81762170  1
  Ti  Ti7  1  0.43530696  0.43462159  0.06503573  1
  Ti  Ti8  1  0.13184371  0.62271843  0.62271843  1
  Ti  Ti9  1  0.62257364  0.62328474  0.13085789  1
  Ti  Ti10  1  0.62257364  0.62328474  0.62328474  1
  Ti  Ti11  1  0.62257364  0.13085789  0.62328474  1
  Ti  Ti12  1  0.18232434  0.81762170  0.81762170  1
  Ti  Ti13  1  0.81825846  0.18232407  0.18232407  1
  Ti  Ti14  1  0.06689811  0.06448095  0.43430997  1
  Ti  Ti15  1  0.81825846  0.81709340  0.18232407  1
  Cu  Cu0  1  0.76913104  0.41028965  0.41028965  1
  Ir  Ir0  1  0.40577823  0.78258439  0.40581819  1
  Ir  Ir1  1  0.84053256  0.83959150  0.48028444  1
  Ir  Ir2  1  0.84053256  0.83959150  0.83959150  1
  Ir  Ir3  1  0.48577737  0.83807388  0.83807388  1
  Ir  Ir4  1  0.40577823  0.40581819  0.40581819  1
  Ir  Ir5  1  0.40577823  0.40581819  0.78258439  1
  Ir  Ir6  1  0.84053256  0.48028444  0.83959150  1
  O  O0  1  0.12488787  0.12563918  0.62383377  1
  O  O1  1  0.62357039  0.12547620  0.12547620  1
  O  O2  1  0.12488787  0.12563918  0.12563918  1
  O  O3  1  0.12488787  0.62383377  0.12563918  1
loop_
_geom_bond_atom_site_label_1
_geom_bond_atom_site_label_2
_geom_bond_distance
_geom_bond_site_symmetry_2
Cu0 Ti9 2.527502 1_555
Cu0 Ti11 2.527502 1_555
Cu0 Ti10 2.527508 1_555
Cu0 Ti4 2.657232 1_655
Cu0 Ti14 2.657236 1_655
Cu0 Ti5 2.657236 1_655
Cu0 Ti0 3.018644 1_555
Cu0 Ti15 3.018644 1_555
Cu0 Ti13 3.018644 1_555
Cu0 Ir0 3.022430 1_555
Cu0 Ir5 3.022430 1_555
Cu0 Ir4 3.022435 1_555
Ir0 Ti8 2.561486 1_555
Ir0 Ti9 2.562670 1_555
Ir0 Ti10 2.562682 1_555
Ir0 Ti14 2.573296 1_565
Ir0 Ti3 2.573650 1_565
Ir0 Ti2 2.573655 1_565
Ir1 Ti10 2.590739 1_555
Ir1 Ti11 2.590746 1_565
Ir1 Ti8 2.591851 1_655
Ir1 Ti13 2.635609 1_565
Ir1 Ti15 2.635609 1_555
Ir1 Ti1 2.641439 1_655
Ir2 Ti11 2.590741 1_565
Ir2 Ti9 2.590741 1_556
Ir2 Ti8 2.591855 1_655
Ir2 Ti15 2.635609 1_556
Ir2 Ti0 2.635609 1_565
Ir2 Ti12 2.641439 1_655
Ir3 Ti10 2.569384 1_555
Ir3 Ti9 2.569398 1_556
Ir3 Ti11 2.569398 1_565
Ir3 Ti12 2.670751 1_555
Ir3 Ti6 2.670755 1_565
Ir3 Ti1 2.670755 1_556
Ir4 Ti8 2.561485 1_555
Ir4 Ti11 2.562679 1_555
Ir4 Ti9 2.562680 1_555
Ir4 Ti4 2.573296 1_555
Ir4 Ti7 2.573647 1_555
Ir4 Ti2 2.573647 1_555
Ir5 Ti8 2.561486 1_555
Ir5 Ti11 2.562670 1_555
Ir5 Ti10 2.562683 1_555
Ir5 Ti5 2.573296 1_556
Ir5 Ti3 2.573650 1_556
Ir5 Ti7 2.573655 1_556
Ir6 Ti10 2.590739 1_555
Ir6 Ti9 2.590746 1_556
Ir6 Ti8 2.591851 1_655
Ir6 Ti13 2.635609 1_556
Ir6 Ti0 2.635609 1_555
Ir6 Ti6 2.641439 1_655
O0 Ti4 2.153350 1_555
O0 Ti14 2.153356 1_555
O0 Ti12 2.158419 1_545
O0 Ti6 2.158419 1_555
O0 Ti0 2.159517 1_455
O0 Ti2 2.173001 1_555
O1 Ti3 2.157069 1_555
O1 Ti7 2.157074 1_555
O1 Ti2 2.157074 1_555
O1 Ti15 2.166234 1_545
O1 Ti0 2.166235 1_554
O1 Ti13 2.166240 1_555
O2 Ti14 2.153348 1_555
O2 Ti5 2.153348 1_555
O2 Ti6 2.158419 1_554
O2 Ti1 2.158419 1_545
O2 Ti13 2.159517 1_455
O2 Ti3 2.173001 1_555
O3 Ti4 2.153350 1_555
O3 Ti5 2.153356 1_555
O3 Ti12 2.158419 1_554
O3 Ti1 2.158419 1_555
O3 Ti15 2.159517 1_455
O3 Ti7 2.173001 1_555
