# generated using pymatgen
data_Ca4Ga2Ir3Pd
_symmetry_space_group_name_H-M   'P 1'
_cell_length_a   5.74028265
_cell_length_b   5.73912863
_cell_length_c   7.59828211
_cell_angle_alpha   79.20025641
_cell_angle_beta   79.33033978
_cell_angle_gamma   59.38167890
_symmetry_Int_Tables_number   1
_chemical_formula_structural   Ca4Ga2Ir3Pd
_chemical_formula_sum   'Ca4 Ga2 Ir3 Pd1'
_cell_volume   210.40925474
_cell_formula_units_Z   1
loop_
 _symmetry_equiv_pos_site_id
 _symmetry_equiv_pos_as_xyz
  1  'x, y, z'
loop_
 _atom_site_type_symbol
 _atom_site_label
 _atom_site_symmetry_multiplicity
 _atom_site_fract_x
 _atom_site_fract_y
 _atom_site_fract_z
 _atom_site_occupancy
  Ca  Ca0  1  0.78567581  0.51129143  0.35492729  1
  Ca  Ca1  1  0.49209053  0.21271763  0.14275372  1
  Ca  Ca2  1  0.21554360  0.49083979  0.64565379  1
  Ca  Ca3  1  0.50350477  0.78357122  0.85687524  1
  Ga  Ga0  1  0.10465892  0.90328293  0.24208899  1
  Ga  Ga1  1  0.91484565  0.09295572  0.75542234  1
  Ir  Ir0  1  0.00501372  0.71603067  0.01076412  1
  Ir  Ir1  1  0.26834253  0.99284309  0.48924796  1
  Ir  Ir2  1  0.98970728  0.28945052  0.99189534  1
  Pd  Pd0  1  0.72061721  0.00701798  0.51036920  1
loop_
_geom_bond_atom_site_label_1
_geom_bond_atom_site_label_2
_geom_bond_distance
_geom_bond_site_symmetry_2
Ca0 Ir0 2.990097 1_655
Ca0 Ir1 3.012147 1_555
Ca0 Ir1 3.013787 1_645
Ca0 Ir2 3.033555 1_554
Ca0 Pd0 3.093032 1_555
Ca0 Pd0 3.105211 1_565
Ca1 Ir0 2.982099 1_555
Ca1 Ir0 3.037939 1_645
Ca1 Ir1 3.054047 1_545
Ca1 Pd0 3.075760 1_555
Ca1 Ir2 3.089820 1_554
Ca1 Ir2 3.092817 1_454
Ca1 Ca3 3.546338 1_544
Ca1 Ca3 3.599333 1_554
Ca2 Pd0 2.989678 1_555
Ca2 Ir2 3.010248 1_455
Ca2 Pd0 3.044837 1_465
Ca2 Ir1 3.045928 1_555
Ca2 Ir0 3.055852 1_556
Ca2 Ir1 3.151170 1_545
Ca2 Ca3 3.598913 1_555
Ca2 Ca3 3.672983 1_545
Ca2 Ca3 3.700134 1_455
Ca3 Ir2 2.965069 1_555
Ca3 Pd0 3.045871 1_565
Ca3 Ir0 3.070275 1_556
Ca3 Ir2 3.074691 1_465
Ca3 Ga1 3.083023 1_465
Ca3 Ir1 3.091110 1_555
Ca3 Ir0 3.121686 1_656
Ca3 Ga0 3.309199 1_556
Ca3 Ga1 3.522222 1_565
Ca3 Ga1 3.580087 1_555
Ga0 Ir1 2.486147 1_555
Ga0 Ir0 2.505554 1_555
Ga0 Ir2 2.521333 1_464
Ga0 Pd0 2.612186 1_465
Ga1 Ir2 2.494742 1_555
Ga1 Ir1 2.503248 1_645
Ga1 Ir0 2.523911 1_646
Ga1 Pd0 2.574160 1_555
Ir0 Ir2 2.525325 1_454
Ir1 Pd0 2.673361 1_565
Ir1 Pd0 3.078187 1_465
