# generated using pymatgen
data_Ca2Zn2CuAs3
_symmetry_space_group_name_H-M   'P 1'
_cell_length_a   4.15637776
_cell_length_b   4.15637784
_cell_length_c   21.88366228
_cell_angle_alpha   90.00000000
_cell_angle_beta   90.00000000
_cell_angle_gamma   119.99999937
_symmetry_Int_Tables_number   1
_chemical_formula_structural   Ca2Zn2CuAs3
_chemical_formula_sum   'Ca4 Zn4 Cu2 As6'
_cell_volume   327.40150497
_cell_formula_units_Z   2
loop_
 _symmetry_equiv_pos_site_id
 _symmetry_equiv_pos_as_xyz
  1  'x, y, z'
loop_
 _atom_site_type_symbol
 _atom_site_label
 _atom_site_symmetry_multiplicity
 _atom_site_fract_x
 _atom_site_fract_y
 _atom_site_fract_z
 _atom_site_occupancy
  Ca  Ca0  1  0.00000000  0.00000000  0.65945472  1
  Ca  Ca1  1  0.00000000  0.00000000  0.34054528  1
  Ca  Ca2  1  0.00000000  0.00000000  0.15945472  1
  Ca  Ca3  1  0.00000000  0.00000000  0.84054528  1
  Zn  Zn0  1  0.33333300  0.66666700  0.95790652  1
  Zn  Zn1  1  0.66666700  0.33333300  0.45790652  1
  Zn  Zn2  1  0.66666700  0.33333300  0.04209348  1
  Zn  Zn3  1  0.33333300  0.66666700  0.54209348  1
  Cu  Cu0  1  0.66666700  0.33333300  0.75000000  1
  Cu  Cu1  1  0.33333300  0.66666700  0.25000000  1
  As  As0  1  0.66666700  0.33333300  0.57678330  1
  As  As1  1  0.33333300  0.66666700  0.42321670  1
  As  As2  1  0.33333300  0.66666700  0.75000000  1
  As  As3  1  0.66666700  0.33333300  0.92321670  1
  As  As4  1  0.33333300  0.66666700  0.07678330  1
  As  As5  1  0.66666700  0.33333300  0.25000000  1
loop_
_geom_bond_atom_site_label_1
_geom_bond_atom_site_label_2
_geom_bond_distance
_geom_bond_site_symmetry_2
Ca0 Cu0 3.112021 1_455
Ca0 Cu0 3.112024 1_555
Ca0 Cu0 3.112024 1_445
Ca1 Cu1 3.112021 1_545
Ca1 Cu1 3.112024 1_445
Ca1 Cu1 3.112024 1_555
Ca2 Cu1 3.112021 1_545
Ca2 Cu1 3.112024 1_445
Ca2 Cu1 3.112024 1_555
Ca3 Cu0 3.112021 1_455
Ca3 Cu0 3.112024 1_555
Ca3 Cu0 3.112024 1_445
As0 Zn3 2.516898 1_655
As0 Zn3 2.516898 1_545
As0 Zn3 2.516905 1_555
As0 Zn1 2.601459 1_555
As0 Ca0 3.005248 1_655
As0 Ca0 3.005251 1_555
As0 Ca0 3.005251 1_665
As1 Zn1 2.516898 1_455
As1 Zn1 2.516898 1_565
As1 Zn1 2.516905 1_555
As1 Zn3 2.601459 1_555
As1 Ca1 3.005248 1_565
As1 Ca1 3.005251 1_665
As1 Ca1 3.005251 1_555
As2 Cu0 2.399683 1_455
As2 Cu0 2.399683 1_565
As2 Cu0 2.399691 1_555
As2 Ca3 3.112021 1_565
As2 Ca0 3.112021 1_565
As2 Ca3 3.112024 1_665
As2 Ca0 3.112024 1_665
As2 Ca3 3.112024 1_555
As2 Ca0 3.112024 1_555
As3 Zn0 2.516898 1_655
As3 Zn0 2.516898 1_545
As3 Zn0 2.516905 1_555
As3 Zn2 2.601459 1_556
As3 Ca3 3.005248 1_655
As3 Ca3 3.005251 1_555
As3 Ca3 3.005251 1_665
As4 Zn2 2.516898 1_455
As4 Zn2 2.516898 1_565
As4 Zn2 2.516905 1_555
As4 Zn0 2.601459 1_554
As4 Ca2 3.005248 1_565
As4 Ca2 3.005251 1_665
As4 Ca2 3.005251 1_555
As5 Cu1 2.399683 1_655
As5 Cu1 2.399683 1_545
As5 Cu1 2.399691 1_555
As5 Ca1 3.112021 1_655
As5 Ca2 3.112021 1_655
As5 Ca1 3.112024 1_555
As5 Ca2 3.112024 1_555
As5 Ca1 3.112024 1_665
As5 Ca2 3.112024 1_665
