# generated using pymatgen
data_CrIn6IrBr12
_symmetry_space_group_name_H-M   'P 1'
_cell_length_a   9.01089796
_cell_length_b   9.01089735
_cell_length_c   9.01089632
_cell_angle_alpha   105.33605990
_cell_angle_beta   105.33606560
_cell_angle_gamma   105.33607199
_symmetry_Int_Tables_number   1
_chemical_formula_structural   CrIn6IrBr12
_chemical_formula_sum   'Cr1 In6 Ir1 Br12'
_cell_volume   634.95781872
_cell_formula_units_Z   1
loop_
 _symmetry_equiv_pos_site_id
 _symmetry_equiv_pos_as_xyz
  1  'x, y, z'
loop_
 _atom_site_type_symbol
 _atom_site_label
 _atom_site_symmetry_multiplicity
 _atom_site_fract_x
 _atom_site_fract_y
 _atom_site_fract_z
 _atom_site_occupancy
  Cr  Cr0  1  0.50000000  0.50000000  0.50000000  1
  In  In0  1  0.05475879  0.06419529  0.31310994  1
  In  In1  1  0.31310994  0.05475879  0.06419529  1
  In  In2  1  0.06419529  0.31310994  0.05475879  1
  In  In3  1  0.94524121  0.93580471  0.68689006  1
  In  In4  1  0.68689006  0.94524121  0.93580471  1
  In  In5  1  0.93580471  0.68689006  0.94524121  1
  Ir  Ir0  1  0.00000000  0.00000000  0.00000000  1
  Br  Br0  1  0.96992713  0.55776944  0.19167320  1
  Br  Br1  1  0.19167320  0.96992713  0.55776944  1
  Br  Br2  1  0.55776944  0.19167320  0.96992713  1
  Br  Br3  1  0.03007287  0.44223056  0.80832680  1
  Br  Br4  1  0.80832680  0.03007287  0.44223056  1
  Br  Br5  1  0.44223056  0.80832680  0.03007287  1
  Br  Br6  1  0.49816634  0.21035641  0.39713534  1
  Br  Br7  1  0.39713534  0.49816634  0.21035641  1
  Br  Br8  1  0.21035641  0.39713534  0.49816634  1
  Br  Br9  1  0.50183366  0.78964359  0.60286466  1
  Br  Br10  1  0.60286466  0.50183366  0.78964359  1
  Br  Br11  1  0.78964359  0.60286466  0.50183366  1
loop_
_geom_bond_atom_site_label_1
_geom_bond_atom_site_label_2
_geom_bond_distance
_geom_bond_site_symmetry_2
In0 Ir0 2.605325 1_555
In1 Ir0 2.605326 1_555
In2 Ir0 2.605326 1_555
In3 Ir0 2.605325 1_666
In4 Ir0 2.605326 1_666
In5 Ir0 2.605326 1_666
Br0 In2 2.685162 1_655
Br0 In5 2.752073 1_554
Br1 In0 2.685162 1_565
Br1 In3 2.752074 1_455
Br2 In1 2.685162 1_556
Br2 In4 2.752074 1_545
Br3 In5 2.685162 1_455
Br3 In2 2.752073 1_556
Br4 In3 2.685162 1_545
Br4 In0 2.752074 1_655
Br5 In4 2.685162 1_554
Br5 In1 2.752074 1_565
Br6 Cr0 2.522042 1_555
Br6 In1 2.763882 1_555
Br7 Cr0 2.522042 1_555
Br7 In2 2.763882 1_555
Br8 Cr0 2.522042 1_555
Br8 In0 2.763882 1_555
Br9 Cr0 2.522042 1_555
Br9 In4 2.763882 1_555
Br10 Cr0 2.522042 1_555
Br10 In5 2.763882 1_555
Br11 Cr0 2.522042 1_555
Br11 In3 2.763882 1_555
