# generated using pymatgen
data_CaY6NiBr12
_symmetry_space_group_name_H-M   'P 1'
_cell_length_a   9.08300812
_cell_length_b   9.08300779
_cell_length_c   9.08300719
_cell_angle_alpha   106.58620609
_cell_angle_beta   106.58620444
_cell_angle_gamma   106.58619716
_symmetry_Int_Tables_number   1
_chemical_formula_structural   CaY6NiBr12
_chemical_formula_sum   'Ca1 Y6 Ni1 Br12'
_cell_volume   630.98404613
_cell_formula_units_Z   1
loop_
 _symmetry_equiv_pos_site_id
 _symmetry_equiv_pos_as_xyz
  1  'x, y, z'
loop_
 _atom_site_type_symbol
 _atom_site_label
 _atom_site_symmetry_multiplicity
 _atom_site_fract_x
 _atom_site_fract_y
 _atom_site_fract_z
 _atom_site_occupancy
  Ca  Ca0  1  0.50000000  0.50000000  0.50000000  1
  Y  Y0  1  0.10311567  0.02374913  0.30898810  1
  Y  Y1  1  0.02374913  0.30898810  0.10311567  1
  Y  Y2  1  0.30898810  0.10311567  0.02374913  1
  Y  Y3  1  0.89688333  0.97625087  0.69101190  1
  Y  Y4  1  0.97625087  0.69101190  0.89688333  1
  Y  Y5  1  0.69101190  0.89688333  0.97625087  1
  Ni  Ni0  1  0.00000000  0.00000000  0.00000000  1
  Br  Br0  1  0.07329092  0.67618077  0.22257760  1
  Br  Br1  1  0.67618077  0.22257760  0.07329092  1
  Br  Br2  1  0.22257760  0.07329092  0.67618077  1
  Br  Br3  1  0.92670908  0.32381923  0.77742240  1
  Br  Br4  1  0.32381923  0.77742240  0.92670908  1
  Br  Br5  1  0.77742240  0.92670908  0.32381923  1
  Br  Br6  1  0.45846777  0.15329063  0.37735676  1
  Br  Br7  1  0.15329063  0.37735676  0.45846777  1
  Br  Br8  1  0.37735676  0.45846777  0.15329063  1
  Br  Br9  1  0.54153223  0.84670937  0.62264324  1
  Br  Br10  1  0.84670937  0.62264324  0.54153223  1
  Br  Br11  1  0.62264324  0.54153223  0.84670937  1
loop_
_geom_bond_atom_site_label_1
_geom_bond_atom_site_label_2
_geom_bond_distance
_geom_bond_site_symmetry_2
Ni0 Y0 2.615097 1_555
Ni0 Y1 2.615097 1_555
Ni0 Y3 2.615097 1_444
Ni0 Y2 2.615097 1_555
Ni0 Y4 2.615097 1_444
Ni0 Y5 2.615097 1_444
Br0 Y4 2.890180 1_454
Br0 Y0 2.937955 1_565
Br0 Y1 3.049888 1_555
Br1 Y5 2.890180 1_544
Br1 Y1 2.937955 1_655
Br1 Y2 3.049888 1_555
Br2 Y3 2.890180 1_445
Br2 Y2 2.937955 1_556
Br2 Y0 3.049888 1_555
Br3 Y1 2.890171 1_656
Br3 Y3 2.937952 1_545
Br3 Y4 3.049888 1_555
Br4 Y2 2.890171 1_566
Br4 Y4 2.937953 1_455
Br4 Y5 3.049888 1_555
Br5 Y0 2.890171 1_665
Br5 Y5 2.937952 1_554
Br5 Y3 3.049888 1_555
Br6 Ca0 2.894737 1_555
Br6 Y0 2.908305 1_555
Br6 Y2 2.947598 1_555
Br7 Ca0 2.894738 1_555
Br7 Y1 2.908305 1_555
Br7 Y0 2.947598 1_555
Br8 Ca0 2.894737 1_555
Br8 Y2 2.908305 1_555
Br8 Y1 2.947599 1_555
Br9 Ca0 2.894737 1_555
Br9 Y3 2.908297 1_555
Br9 Y5 2.947601 1_555
Br10 Ca0 2.894738 1_555
Br10 Y4 2.908296 1_555
Br10 Y3 2.947601 1_555
Br11 Ca0 2.894737 1_555
Br11 Y5 2.908297 1_555
Br11 Y4 2.947601 1_555
