# generated using pymatgen
data_Rb3Ba3AlBi4
_symmetry_space_group_name_H-M   'P 1'
_cell_length_a   11.48648782
_cell_length_b   11.48648842
_cell_length_c   8.55104093
_cell_angle_alpha   90.00000000
_cell_angle_beta   90.00000000
_cell_angle_gamma   119.99999827
_symmetry_Int_Tables_number   1
_chemical_formula_structural   Rb3Ba3AlBi4
_chemical_formula_sum   'Rb6 Ba6 Al2 Bi8'
_cell_volume   977.06658219
_cell_formula_units_Z   2
loop_
 _symmetry_equiv_pos_site_id
 _symmetry_equiv_pos_as_xyz
  1  'x, y, z'
loop_
 _atom_site_type_symbol
 _atom_site_label
 _atom_site_symmetry_multiplicity
 _atom_site_fract_x
 _atom_site_fract_y
 _atom_site_fract_z
 _atom_site_occupancy
  Rb  Rb0  1  0.86204896  0.13795104  0.54508513  1
  Rb  Rb1  1  0.27590107  0.13795104  0.54508513  1
  Rb  Rb2  1  0.86204896  0.72409893  0.54508513  1
  Rb  Rb3  1  0.13795104  0.86204896  0.04508513  1
  Rb  Rb4  1  0.72409893  0.86204896  0.04508513  1
  Rb  Rb5  1  0.13795104  0.27590107  0.04508513  1
  Ba  Ba0  1  0.47887569  0.52112431  0.73369023  1
  Ba  Ba1  1  0.04224962  0.52112431  0.73369023  1
  Ba  Ba2  1  0.47887569  0.95775038  0.73369023  1
  Ba  Ba3  1  0.52112431  0.47887569  0.23369023  1
  Ba  Ba4  1  0.95775038  0.47887569  0.23369023  1
  Ba  Ba5  1  0.52112431  0.04224962  0.23369023  1
  Al  Al0  1  0.66666700  0.33333300  0.85409532  1
  Al  Al1  1  0.33333300  0.66666700  0.35409532  1
  Bi  Bi0  1  0.80046535  0.19953465  0.95964226  1
  Bi  Bi1  1  0.39906930  0.19953465  0.95964226  1
  Bi  Bi2  1  0.80046535  0.60093070  0.95964226  1
  Bi  Bi3  1  0.19953465  0.80046535  0.45964226  1
  Bi  Bi4  1  0.60093070  0.80046535  0.45964226  1
  Bi  Bi5  1  0.19953465  0.39906930  0.45964226  1
  Bi  Bi6  1  0.66666700  0.33333300  0.51601285  1
  Bi  Bi7  1  0.33333300  0.66666700  0.01601285  1
loop_
_geom_bond_atom_site_label_1
_geom_bond_atom_site_label_2
_geom_bond_distance
_geom_bond_site_symmetry_2
Ba0 Bi5 3.640605 1_555
Ba0 Bi4 3.640606 1_555
Ba0 Bi7 3.769963 1_556
Ba0 Bi2 3.851284 1_555
Ba0 Bi1 3.851284 1_555
Ba0 Bi6 4.174140 1_555
Ba1 Bi5 3.640598 1_555
Ba1 Bi3 3.640605 1_555
Ba1 Bi7 3.769948 1_556
Ba1 Bi0 3.851287 1_455
Ba1 Bi2 3.851293 1_455
Ba1 Bi6 4.174140 1_455
Ba2 Bi4 3.640598 1_555
Ba2 Bi3 3.640605 1_555
Ba2 Bi7 3.769948 1_556
Ba2 Bi0 3.851286 1_565
Ba2 Bi1 3.851293 1_565
Ba2 Bi6 4.174141 1_565
Ba3 Bi2 3.640605 1_554
Ba3 Bi1 3.640606 1_554
Ba3 Bi6 3.769963 1_555
Ba3 Bi5 3.851284 1_555
Ba3 Bi4 3.851284 1_555
Ba3 Bi7 4.174140 1_555
Ba4 Bi2 3.640598 1_554
Ba4 Bi0 3.640605 1_554
Ba4 Bi6 3.769948 1_555
Ba4 Bi3 3.851287 1_655
Ba4 Bi5 3.851293 1_655
Ba4 Bi7 4.174140 1_655
Ba5 Bi1 3.640598 1_554
Ba5 Bi0 3.640605 1_554
Ba5 Bi6 3.769948 1_555
Ba5 Bi3 3.851286 1_545
Ba5 Bi4 3.851293 1_545
Ba5 Bi7 4.174141 1_545
Al0 Bi0 2.810784 1_555
Al0 Bi1 2.810794 1_555
Al0 Bi2 2.810794 1_555
Al0 Bi6 2.890957 1_555
Al1 Bi3 2.810784 1_555
Al1 Bi4 2.810794 1_555
Al1 Bi5 2.810794 1_555
Al1 Bi7 2.890957 1_555
Bi0 Rb5 3.595871 1_656
Bi0 Rb4 3.595872 1_546
Bi0 Rb0 3.750658 1_555
Bi1 Rb5 3.595861 1_556
Bi1 Rb3 3.595868 1_546
Bi1 Rb1 3.750662 1_555
Bi2 Rb4 3.595861 1_556
Bi2 Rb3 3.595868 1_656
Bi2 Rb2 3.750662 1_555
Bi3 Rb2 3.595871 1_455
Bi3 Rb1 3.595872 1_565
Bi3 Rb3 3.750658 1_555
Bi4 Rb2 3.595861 1_555
Bi4 Rb0 3.595868 1_565
Bi4 Rb4 3.750662 1_555
Bi5 Rb1 3.595861 1_555
Bi5 Rb0 3.595868 1_455
Bi5 Rb5 3.750662 1_555
Bi6 Rb0 3.895101 1_555
Bi6 Rb1 3.895121 1_555
Bi6 Rb2 3.895121 1_555
Bi7 Rb3 3.895101 1_555
Bi7 Rb4 3.895121 1_555
Bi7 Rb5 3.895121 1_555
