# generated using pymatgen
data_Na16TiSnSb8
_symmetry_space_group_name_H-M   'P 1'
_cell_length_a   10.38010920
_cell_length_b   10.38011189
_cell_length_c   10.38009784
_cell_angle_alpha   59.99253682
_cell_angle_beta   59.99250417
_cell_angle_gamma   59.99250126
_symmetry_Int_Tables_number   1
_chemical_formula_structural   Na16TiSnSb8
_chemical_formula_sum   'Na16 Ti1 Sn1 Sb8'
_cell_volume   790.70900776
_cell_formula_units_Z   1
loop_
 _symmetry_equiv_pos_site_id
 _symmetry_equiv_pos_as_xyz
  1  'x, y, z'
loop_
 _atom_site_type_symbol
 _atom_site_label
 _atom_site_symmetry_multiplicity
 _atom_site_fract_x
 _atom_site_fract_y
 _atom_site_fract_z
 _atom_site_occupancy
  Na  Na0  1  0.62512799  0.12463789  0.62512799  1
  Na  Na1  1  0.62512799  0.62512799  0.12463789  1
  Na  Na2  1  0.12463789  0.62512799  0.62512799  1
  Na  Na3  1  0.62511277  0.62511277  0.62511177  1
  Na  Na4  1  0.02802330  0.02802330  0.47204658  1
  Na  Na5  1  0.76903384  0.23092852  0.23092852  1
  Na  Na6  1  0.23097244  0.76901732  0.76901732  1
  Na  Na7  1  0.76901632  0.76901632  0.23097244  1
  Na  Na8  1  0.76901732  0.23097244  0.76901632  1
  Na  Na9  1  0.23092852  0.76903384  0.23092852  1
  Na  Na10  1  0.47198802  0.02797120  0.47198802  1
  Na  Na11  1  0.47204758  0.02802230  0.02802330  1
  Na  Na12  1  0.02796920  0.47199002  0.47199102  1
  Na  Na13  1  0.02802230  0.47204658  0.02802430  1
  Na  Na14  1  0.23092852  0.23092852  0.76903284  1
  Na  Na15  1  0.47199202  0.47199102  0.02796820  1
  Ti  Ti0  1  0.49999853  0.49999853  0.49999953  1
  Sn  Sn0  1  0.74999203  0.74999203  0.74999203  1
  Sb  Sb0  1  0.41295392  0.86235314  0.86235314  1
  Sb  Sb1  1  0.86231157  0.86231157  0.86231157  1
  Sb  Sb2  1  0.81889124  0.39371299  0.39371399  1
  Sb  Sb3  1  0.39377243  0.39377243  0.39377243  1
  Sb  Sb4  1  0.39371299  0.39371299  0.81889224  1
  Sb  Sb5  1  0.86235314  0.41295492  0.86235314  1
  Sb  Sb6  1  0.86235314  0.86235314  0.41295392  1
  Sb  Sb7  1  0.39371299  0.81889124  0.39371299  1
loop_
_geom_bond_atom_site_label_1
_geom_bond_atom_site_label_2
_geom_bond_distance
_geom_bond_site_symmetry_2
Na0 Sn0 3.174947 1_545
Na0 Ti0 3.181004 1_555
Na0 Na8 3.347988 1_555
Na0 Na5 3.348277 1_555
Na0 Na14 3.348280 1_555
Na0 Sb3 3.418539 1_555
Na0 Sb2 3.419380 1_555
Na0 Sb4 3.419383 1_555
Na0 Na11 3.431121 1_556
Na0 Na4 3.431125 1_655
Na0 Na10 3.432019 1_555
Na0 Sb1 3.491310 1_545
Na0 Sb6 3.491952 1_545
Na0 Sb0 3.491955 1_545
Na1 Sn0 3.174943 1_554
Na1 Ti0 3.181008 1_555
Na1 Na7 3.347980 1_555
Na1 Na9 3.348280 1_555
Na1 Na5 3.348282 1_555
Na1 Sb3 3.418541 1_555
Na1 Sb7 3.419376 1_555
Na1 Sb2 3.419385 1_555
Na1 Na13 3.431117 1_655
Na1 Na11 3.431118 1_565
Na1 Na15 3.431983 1_555
Na1 Sb1 3.491312 1_554
Na1 Sb5 3.491944 1_554
Na1 Sb0 3.491952 1_554
Na2 Sn0 3.174945 1_455
Na2 Ti0 3.181002 1_555
Na2 Na6 3.347997 1_555
Na2 Na9 3.348278 1_555
Na2 Sb3 3.418538 1_555
Na2 Sb7 3.419380 1_555
Na2 Sb4 3.419384 1_555
Na2 Na4 3.431127 1_565
Na2 Sb1 3.491309 1_455
Na2 Sb5 3.491948 1_455
Na2 Sb6 3.491953 1_455
Na3 Sn0 3.175364 1_555
Na3 Ti0 3.181313 1_555
Na3 Na7 3.347698 1_555
Na3 Na6 3.347710 1_555
Na3 Na8 3.347711 1_555
Na3 Sb2 3.419104 1_555
Na3 Sb7 3.419113 1_555
Na3 Sb4 3.419121 1_555
Na3 Sb6 3.492180 1_555
Na3 Sb0 3.492183 1_555
Na3 Sb5 3.492185 1_555
Na4 Sb7 3.196670 1_545
Na4 Sb2 3.196671 1_455
Na4 Sb1 3.368689 1_445
Na4 Sb6 3.370295 1_445
Na5 Sb5 3.168427 1_554
Na5 Sb6 3.168429 1_545
Na5 Sb3 3.251738 1_555
Na5 Sb2 3.253204 1_555
Na6 Sb1 3.169263 1_455
Na6 Sb0 3.169460 1_555
Na6 Sb7 3.251646 1_555
Na6 Sb4 3.251648 1_555
Na7 Sb1 3.169257 1_554
Na7 Sb6 3.169475 1_555
Na7 Sb7 3.251638 1_555
Na7 Sb2 3.251640 1_555
Na8 Sb1 3.169263 1_545
Na8 Sb5 3.169478 1_555
Na8 Sb2 3.251628 1_555
Na8 Sb4 3.251645 1_555
Na9 Sb0 3.168425 1_554
Na9 Sb6 3.168426 1_455
Na9 Sb3 3.251740 1_555
Na9 Sb7 3.253195 1_555
Na10 Sb7 3.196596 1_545
Na10 Sb3 3.198175 1_555
Na10 Sb0 3.369336 1_545
Na10 Sb6 3.369339 1_545
Na10 Na3 3.430759 1_545
Na11 Sb7 3.196666 1_545
Na11 Sb4 3.196677 1_554
Na11 Sb1 3.368681 1_544
Na11 Sb0 3.370292 1_544
Na12 Sb2 3.196606 1_455
Na12 Sb3 3.198182 1_555
Na12 Sb5 3.369307 1_455
Na12 Sb6 3.369317 1_455
Na12 Na3 3.430736 1_455
Na12 Na2 3.431992 1_555
Na13 Sb2 3.196665 1_455
Na13 Sb4 3.196677 1_554
Na13 Sb1 3.368692 1_454
Na13 Sb5 3.370286 1_454
Na13 Na2 3.431130 1_554
Na14 Sb5 3.168428 1_455
Na14 Sb0 3.168428 1_545
Na14 Sb3 3.251730 1_555
Na14 Sb4 3.253211 1_555
Na14 Na2 3.348282 1_555
Na15 Sb4 3.196607 1_554
Na15 Sb3 3.198184 1_555
Na15 Sb5 3.369300 1_554
Na15 Sb0 3.369307 1_554
Na15 Na3 3.430734 1_554
Sb0 Sn0 2.856237 1_555
Sb1 Sn0 2.855994 1_555
Sb2 Ti0 2.702463 1_555
Sb3 Ti0 2.701062 1_555
Sb4 Ti0 2.702461 1_555
Sb5 Sn0 2.856230 1_555
Sb6 Sn0 2.856235 1_555
Sb7 Ti0 2.702465 1_555
