# generated using pymatgen
data_Sr2AsIO4
_symmetry_space_group_name_H-M   'P 1'
_cell_length_a   6.63538590
_cell_length_b   7.55634705
_cell_length_c   11.78872981
_cell_angle_alpha   90.00000000
_cell_angle_beta   90.00000000
_cell_angle_gamma   90.00000000
_symmetry_Int_Tables_number   1
_chemical_formula_structural   Sr2AsIO4
_chemical_formula_sum   'Sr8 As4 I4 O16'
_cell_volume   591.07840972
_cell_formula_units_Z   4
loop_
 _symmetry_equiv_pos_site_id
 _symmetry_equiv_pos_as_xyz
  1  'x, y, z'
loop_
 _atom_site_type_symbol
 _atom_site_label
 _atom_site_symmetry_multiplicity
 _atom_site_fract_x
 _atom_site_fract_y
 _atom_site_fract_z
 _atom_site_occupancy
  Sr  Sr0  1  0.62122602  0.25000000  0.00000000  1
  Sr  Sr1  1  0.37877398  0.75000000  0.00000000  1
  Sr  Sr2  1  0.37877398  0.75000000  0.50000000  1
  Sr  Sr3  1  0.62122602  0.25000000  0.50000000  1
  Sr  Sr4  1  0.10202869  0.03244630  0.25000000  1
  Sr  Sr5  1  0.89797131  0.96755370  0.75000000  1
  Sr  Sr6  1  0.89797131  0.53244630  0.25000000  1
  Sr  Sr7  1  0.10202869  0.46755370  0.75000000  1
  As  As0  1  0.11882331  0.25000000  0.00000000  1
  As  As1  1  0.88117669  0.75000000  0.00000000  1
  As  As2  1  0.88117669  0.75000000  0.50000000  1
  As  As3  1  0.11882331  0.25000000  0.50000000  1
  I  I0  1  0.41005164  0.42274465  0.25000000  1
  I  I1  1  0.58994836  0.57725535  0.75000000  1
  I  I2  1  0.58994836  0.92274465  0.25000000  1
  I  I3  1  0.41005164  0.07725535  0.75000000  1
  O  O0  1  0.03884378  0.77086503  0.11456825  1
  O  O1  1  0.96115622  0.22913497  0.88543175  1
  O  O2  1  0.96115622  0.22913497  0.61456825  1
  O  O3  1  0.96115622  0.27086503  0.38543175  1
  O  O4  1  0.03884378  0.77086503  0.38543175  1
  O  O5  1  0.03884378  0.72913497  0.61456825  1
  O  O6  1  0.03884378  0.72913497  0.88543175  1
  O  O7  1  0.96115622  0.27086503  0.11456825  1
  O  O8  1  0.27243824  0.07781085  0.03358397  1
  O  O9  1  0.72756176  0.92218915  0.96641603  1
  O  O10  1  0.72756176  0.92218915  0.53358397  1
  O  O11  1  0.72756176  0.57781085  0.46641603  1
  O  O12  1  0.27243824  0.07781085  0.46641603  1
  O  O13  1  0.27243824  0.42218915  0.53358397  1
  O  O14  1  0.27243824  0.42218915  0.96641603  1
  O  O15  1  0.72756176  0.57781085  0.03358397  1
loop_
_geom_bond_atom_site_label_1
_geom_bond_atom_site_label_2
_geom_bond_distance
_geom_bond_site_symmetry_2
As0 O14 1.699595 1_554
As0 O8 1.699595 1_555
As0 O1 1.715667 1_454
As0 O7 1.715667 1_455
As1 O9 1.699595 1_554
As1 O15 1.699595 1_555
As1 O6 1.715667 1_654
As1 O0 1.715667 1_655
As2 O10 1.699595 1_555
As2 O11 1.699595 1_555
As2 O5 1.715667 1_655
As2 O4 1.715667 1_655
As3 O13 1.699595 1_555
As3 O12 1.699595 1_555
As3 O2 1.715667 1_455
As3 O3 1.715667 1_455
I0 Sr6 3.341973 1_555
I0 Sr6 3.497504 1_455
I0 Sr3 3.514707 1_555
I0 Sr0 3.514707 1_555
I0 Sr4 3.588215 1_555
I0 Sr2 3.852787 1_555
I0 Sr1 3.852787 1_555
I1 Sr7 3.341973 1_555
I1 Sr7 3.497504 1_655
I1 Sr2 3.514707 1_555
I1 Sr1 3.514707 1_556
I1 Sr5 3.588215 1_555
I1 Sr3 3.852787 1_555
I1 Sr0 3.852787 1_556
I2 Sr4 3.341973 1_565
I2 Sr4 3.497504 1_665
I2 Sr1 3.514707 1_555
I2 Sr2 3.514707 1_555
I2 Sr6 3.588215 1_555
I2 Sr3 3.852787 1_565
I2 Sr0 3.852787 1_565
I3 Sr5 3.341973 1_545
I3 Sr5 3.497504 1_445
I3 Sr3 3.514707 1_555
I3 Sr0 3.514707 1_556
I3 Sr7 3.588215 1_555
I3 Sr1 3.852787 1_546
I3 Sr2 3.852787 1_545
O0 Sr4 2.575218 1_565
O0 Sr6 2.582334 1_455
O0 Sr1 2.633743 1_555
O1 Sr5 2.575218 1_545
O1 Sr7 2.582334 1_655
O1 Sr0 2.633743 1_556
O2 Sr5 2.575218 1_545
O2 Sr7 2.582334 1_655
O2 Sr3 2.633743 1_555
O3 Sr6 2.575218 1_555
O3 Sr4 2.582334 1_655
O3 Sr3 2.633743 1_555
O4 Sr4 2.575218 1_565
O4 Sr6 2.582334 1_455
O4 Sr2 2.633743 1_555
O5 Sr7 2.575218 1_555
O5 Sr5 2.582334 1_455
O5 Sr2 2.633743 1_555
O6 Sr7 2.575218 1_555
O6 Sr5 2.582334 1_455
O6 Sr1 2.633743 1_556
O7 Sr6 2.575218 1_555
O7 Sr4 2.582334 1_655
O7 Sr0 2.633743 1_555
O8 Sr1 2.605835 1_545
O8 Sr0 2.684369 1_555
O8 Sr4 2.811591 1_555
O9 Sr0 2.605835 1_566
O9 Sr1 2.684369 1_556
O9 Sr5 2.811591 1_555
O10 Sr3 2.605835 1_565
O10 Sr2 2.684369 1_555
O10 Sr5 2.811591 1_555
O11 Sr3 2.605835 1_555
O11 Sr2 2.684369 1_555
O11 Sr6 2.811591 1_555
O12 Sr2 2.605835 1_545
O12 Sr3 2.684369 1_555
O12 Sr4 2.811591 1_555
O13 Sr2 2.605835 1_555
O13 Sr3 2.684369 1_555
O13 Sr7 2.811591 1_555
O14 Sr1 2.605835 1_556
O14 Sr0 2.684369 1_556
O14 Sr7 2.811591 1_555
O15 Sr0 2.605835 1_555
O15 Sr1 2.684369 1_555
O15 Sr6 2.811591 1_555
