# generated using pymatgen
data_Fe2PbCl8
_symmetry_space_group_name_H-M   'P 1'
_cell_length_a   7.09432766
_cell_length_b   7.09006651
_cell_length_c   12.84683678
_cell_angle_alpha   85.65458463
_cell_angle_beta   90.00000000
_cell_angle_gamma   90.00000000
_symmetry_Int_Tables_number   1
_chemical_formula_structural   Fe2PbCl8
_chemical_formula_sum   'Fe4 Pb2 Cl16'
_cell_volume   644.32878437
_cell_formula_units_Z   2
loop_
 _symmetry_equiv_pos_site_id
 _symmetry_equiv_pos_as_xyz
  1  'x, y, z'
loop_
 _atom_site_type_symbol
 _atom_site_label
 _atom_site_symmetry_multiplicity
 _atom_site_fract_x
 _atom_site_fract_y
 _atom_site_fract_z
 _atom_site_occupancy
  Fe  Fe0  1  0.26596141  0.32018133  0.92284245  1
  Fe  Fe1  1  0.73403859  0.67981867  0.07715755  1
  Fe  Fe2  1  0.26596141  0.67981867  0.57715755  1
  Fe  Fe3  1  0.73403859  0.32018133  0.42284245  1
  Pb  Pb0  1  0.85148518  0.50000000  0.75000000  1
  Pb  Pb1  1  0.14851482  0.50000000  0.25000000  1
  Cl  Cl0  1  0.30700512  0.25459864  0.09154505  1
  Cl  Cl1  1  0.17991790  0.61553051  0.88620887  1
  Cl  Cl2  1  0.02766516  0.15799936  0.86384780  1
  Cl  Cl3  1  0.82008210  0.61553051  0.38620887  1
  Cl  Cl4  1  0.53101533  0.74575251  0.65438218  1
  Cl  Cl5  1  0.46898467  0.74575251  0.15438218  1
  Cl  Cl6  1  0.69299488  0.25459864  0.59154505  1
  Cl  Cl7  1  0.30700512  0.74540136  0.40845495  1
  Cl  Cl8  1  0.53101533  0.25424749  0.84561782  1
  Cl  Cl9  1  0.46898467  0.25424749  0.34561782  1
  Cl  Cl10  1  0.17991790  0.38446949  0.61379113  1
  Cl  Cl11  1  0.82008210  0.38446949  0.11379113  1
  Cl  Cl12  1  0.69299488  0.74540136  0.90845495  1
  Cl  Cl13  1  0.97233484  0.84200064  0.13615220  1
  Cl  Cl14  1  0.97233484  0.15799936  0.36384780  1
  Cl  Cl15  1  0.02766516  0.84200064  0.63615220  1
loop_
_geom_bond_atom_site_label_1
_geom_bond_atom_site_label_2
_geom_bond_distance
_geom_bond_site_symmetry_2
Cl0 Fe0 2.201238 1_554
Cl0 Pb1 2.995347 1_555
Cl1 Fe0 2.197677 1_555
Cl1 Pb0 3.062530 1_455
Cl2 Fe0 2.210579 1_555
Cl2 Pb0 3.007260 1_455
Cl3 Fe3 2.197677 1_555
Cl3 Pb1 3.062530 1_655
Cl4 Fe2 2.192917 1_555
Cl4 Pb0 3.064219 1_555
Cl5 Fe1 2.192917 1_555
Cl5 Pb1 3.064219 1_555
Cl6 Fe3 2.201238 1_555
Cl6 Pb0 2.995347 1_555
Cl7 Fe2 2.201238 1_555
Cl7 Pb1 2.995347 1_555
Cl8 Fe0 2.192917 1_555
Cl8 Pb0 3.064219 1_555
Cl9 Fe3 2.192917 1_555
Cl9 Pb1 3.064219 1_555
Cl10 Fe2 2.197677 1_555
Cl10 Pb0 3.062530 1_455
Cl11 Fe1 2.197677 1_555
Cl11 Pb1 3.062530 1_655
Cl12 Fe1 2.201238 1_556
Cl12 Pb0 2.995347 1_555
Cl13 Fe1 2.210579 1_555
Cl13 Pb1 3.007260 1_655
Cl14 Fe3 2.210579 1_555
Cl14 Pb1 3.007260 1_655
Cl15 Fe2 2.210579 1_555
Cl15 Pb0 3.007260 1_455
