# generated using pymatgen
data_Sc12ZnCo4Sn
_symmetry_space_group_name_H-M   'P 1'
_cell_length_a   7.74305444
_cell_length_b   7.74305500
_cell_length_c   7.74305476
_cell_angle_alpha   111.68523770
_cell_angle_beta   109.75838387
_cell_angle_gamma   107.00398399
_symmetry_Int_Tables_number   1
_chemical_formula_structural   Sc12ZnCo4Sn
_chemical_formula_sum   'Sc12 Zn1 Co4 Sn1'
_cell_volume   356.76753399
_cell_formula_units_Z   1
loop_
 _symmetry_equiv_pos_site_id
 _symmetry_equiv_pos_as_xyz
  1  'x, y, z'
loop_
 _atom_site_type_symbol
 _atom_site_label
 _atom_site_symmetry_multiplicity
 _atom_site_fract_x
 _atom_site_fract_y
 _atom_site_fract_z
 _atom_site_occupancy
  Sc  Sc0  1  0.43520712  0.22990926  0.20529785  1
  Sc  Sc1  1  0.56479288  0.77009074  0.79470215  1
  Sc  Sc2  1  0.02461141  0.22990926  0.79470215  1
  Sc  Sc3  1  0.97538859  0.77009074  0.20529785  1
  Sc  Sc4  1  0.18451538  0.28173146  0.46624684  1
  Sc  Sc5  1  0.81548462  0.71826854  0.53375316  1
  Sc  Sc6  1  0.18451538  0.71826854  0.90278392  1
  Sc  Sc7  1  0.81548462  0.28173146  0.09721608  1
  Sc  Sc8  1  0.32393831  0.63269471  0.30875540  1
  Sc  Sc9  1  0.67606169  0.36730529  0.69124460  1
  Sc  Sc10  1  0.32393831  0.01518291  0.69124460  1
  Sc  Sc11  1  0.67606169  0.98481709  0.30875540  1
  Zn  Zn0  1  0.00000000  0.00000000  0.00000000  1
  Co  Co0  1  0.34472556  1.00000000  0.34472556  1
  Co  Co1  1  0.65527444  0.00000000  0.65527444  1
  Co  Co2  1  0.11890949  0.61890949  0.50000000  1
  Co  Co3  1  0.88109051  0.38109051  0.50000000  1
  Sn  Sn0  1  0.50000000  0.50000000  0.00000000  1
loop_
_geom_bond_atom_site_label_1
_geom_bond_atom_site_label_2
_geom_bond_distance
_geom_bond_site_symmetry_2
Sc0 Zn0 2.798226 1_555
Sc0 Sn0 3.087821 1_555
Sc0 Sc11 3.147171 1_545
Sc0 Sc9 3.147173 1_555
Sc0 Sc4 3.243411 1_555
Sc0 Sc6 3.243411 1_544
Sc0 Sc7 3.279439 1_555
Sc0 Sc5 3.279439 1_555
Sc0 Sc10 3.361946 1_554
Sc0 Sc8 3.361953 1_555
Sc1 Zn0 2.798226 1_666
Sc1 Sn0 3.087821 1_556
Sc1 Sc10 3.147171 1_565
Sc1 Sc8 3.147173 1_555
Sc1 Sc5 3.243411 1_555
Sc1 Sc7 3.243411 1_566
Sc1 Sc6 3.279439 1_555
Sc1 Sc4 3.279439 1_555
Sc1 Sc11 3.361946 1_556
Sc1 Sc9 3.361953 1_555
Sc2 Zn0 2.798226 1_556
Sc2 Sn0 3.087821 1_556
Sc2 Sc9 3.147165 1_455
Sc2 Sc7 3.243411 1_456
Sc2 Sc5 3.243411 1_445
Sc2 Sc4 3.279439 1_555
Sc2 Sc6 3.279439 1_555
Sc2 Sc8 3.361948 1_556
Sc3 Zn0 2.798226 1_665
Sc3 Sn0 3.087821 1_555
Sc3 Sc8 3.147165 1_655
Sc3 Sc6 3.243411 1_654
Sc3 Sc4 3.243411 1_665
Sc3 Sc5 3.279439 1_555
Sc3 Sc7 3.279439 1_555
Sc3 Sc9 3.361948 1_554
Sc4 Zn0 2.950102 1_555
Sc4 Sc7 3.287767 1_455
Sc4 Sc9 3.339028 1_555
Sc4 Sn0 3.391444 1_556
Sc4 Sc8 3.414785 1_555
Sc5 Zn0 2.950102 1_666
Sc5 Sc6 3.287767 1_655
Sc5 Sc8 3.339028 1_555
Sc5 Sn0 3.391444 1_555
Sc5 Sc9 3.414785 1_555
Sc6 Zn0 2.950102 1_566
Sc6 Sc8 3.339021 1_556
Sc6 Sn0 3.391444 1_556
Sc6 Sc9 3.414781 1_455
Sc7 Zn0 2.950102 1_655
Sc7 Sc9 3.339021 1_554
Sc7 Sn0 3.391444 1_555
Sc7 Sc8 3.414781 1_655
Sc8 Sn0 3.136418 1_555
Sc9 Sn0 3.136418 1_556
Sc10 Sn0 3.136417 1_556
Sc10 Sc3 3.147171 1_445
Sc10 Sc7 3.339026 1_556
Sc10 Sc4 3.339026 1_555
Sc10 Sc2 3.361945 1_555
Sc10 Sc5 3.414779 1_445
Sc10 Sc6 3.414779 1_545
Sc11 Sn0 3.136417 1_555
Sc11 Sc2 3.147171 1_665
Sc11 Sc6 3.339026 1_554
Sc11 Sc5 3.339026 1_555
Sc11 Sc3 3.361945 1_555
Sc11 Sc4 3.414779 1_665
Sc11 Sc7 3.414779 1_565
Co0 Sc3 2.455141 1_455
Co0 Sc0 2.455141 1_565
Co0 Sc8 2.703469 1_555
Co0 Sc9 2.703473 1_565
Co0 Sc11 2.703476 1_555
Co0 Sc10 2.703477 1_565
Co0 Co1 2.766741 1_565
Co0 Sc4 2.835147 1_565
Co0 Sc6 2.835147 1_554
Co0 Zn0 3.071227 1_565
Co1 Sc2 2.455141 1_655
Co1 Sc1 2.455141 1_545
Co1 Sc9 2.703469 1_555
Co1 Sc8 2.703473 1_545
Co1 Sc10 2.703476 1_555
Co1 Sc11 2.703477 1_545
Co1 Sc5 2.835147 1_545
Co1 Sc7 2.835147 1_556
Co1 Zn0 3.071227 1_656
Co2 Co3 2.190564 1_455
Co2 Sc10 2.516281 1_565
Co2 Sc8 2.516281 1_555
Co2 Sc5 2.739302 1_455
Co2 Sc6 2.739302 1_555
Co2 Sc7 2.739302 1_455
Co2 Sc4 2.739302 1_555
Co2 Sc1 2.971990 1_555
Co2 Sc3 2.971990 1_455
Co3 Sc11 2.516281 1_545
Co3 Sc9 2.516281 1_555
Co3 Sc4 2.739302 1_655
Co3 Sc7 2.739302 1_555
Co3 Sc6 2.739302 1_655
Co3 Sc5 2.739302 1_555
Co3 Sc0 2.971990 1_555
Co3 Sc2 2.971990 1_655
