# generated using pymatgen
data_Sc10GaSi4As
_symmetry_space_group_name_H-M   'P 1'
_cell_length_a   7.92260960
_cell_length_b   7.91447943
_cell_length_c   5.86973105
_cell_angle_alpha   90.00000000
_cell_angle_beta   90.00000000
_cell_angle_gamma   120.05029890
_symmetry_Int_Tables_number   1
_chemical_formula_structural   Sc10GaSi4As
_chemical_formula_sum   'Sc10 Ga1 Si4 As1'
_cell_volume   318.58043569
_cell_formula_units_Z   1
loop_
 _symmetry_equiv_pos_site_id
 _symmetry_equiv_pos_as_xyz
  1  'x, y, z'
loop_
 _atom_site_type_symbol
 _atom_site_label
 _atom_site_symmetry_multiplicity
 _atom_site_fract_x
 _atom_site_fract_y
 _atom_site_fract_z
 _atom_site_occupancy
  Sc  Sc0  1  0.99445445  0.75456481  0.75000000  1
  Sc  Sc1  1  0.00078002  0.24207996  0.25000000  1
  Sc  Sc2  1  0.76165761  0.76062289  0.25000000  1
  Sc  Sc3  1  0.75868477  0.99885473  0.75000000  1
  Sc  Sc4  1  0.23860923  0.24272695  0.75000000  1
  Sc  Sc5  1  0.24267546  0.99977299  0.25000000  1
  Sc  Sc6  1  0.33292997  0.66561584  0.49913654  1
  Sc  Sc7  1  0.66935863  0.33502962  0.00094278  1
  Sc  Sc8  1  0.66935863  0.33502962  0.49905722  1
  Sc  Sc9  1  0.33292997  0.66561584  0.00086346  1
  Ga  Ga0  1  0.39730018  0.39611629  0.25000000  1
  Si  Si0  1  0.00114762  0.60627056  0.25000000  1
  Si  Si1  1  0.99908157  0.39447346  0.75000000  1
  Si  Si2  1  0.60342705  0.60369594  0.75000000  1
  Si  Si3  1  0.60825357  0.99989154  0.25000000  1
  As  As0  1  0.38935027  0.99963895  0.75000000  1
loop_
_geom_bond_atom_site_label_1
_geom_bond_atom_site_label_2
_geom_bond_distance
_geom_bond_site_symmetry_2
Sc0 Si2 2.705246 1_555
Sc0 Si1 2.868468 1_555
Sc0 Si0 3.171133 1_656
Sc0 Si0 3.171133 1_655
Sc1 Si3 2.715731 1_445
Sc1 Si0 2.880922 1_555
Sc1 Si1 3.175624 1_455
Sc1 Si1 3.175624 1_454
Sc2 Si3 2.714436 1_555
Sc2 Si0 2.722835 1_655
Sc2 Si2 3.188756 1_554
Sc2 Si2 3.188756 1_555
Sc3 Si2 2.727881 1_555
Sc3 Si1 2.731077 1_565
Sc3 Si3 3.169180 1_556
Sc3 Si3 3.169180 1_555
Sc4 Si1 2.706689 1_455
Sc4 Si2 2.871556 1_555
Sc5 Si0 2.718894 1_555
Sc5 Si3 2.895863 1_555
Sc6 Si0 2.834091 1_555
Sc6 Si2 2.837759 1_555
Sc6 Si1 2.843337 1_455
Sc6 Si3 2.848892 1_555
Sc7 Si1 2.825606 1_554
Sc7 Si0 2.829094 1_655
Sc7 Si2 2.841875 1_554
Sc7 Si3 2.849726 1_545
Sc8 Si1 2.825606 1_555
Sc8 Si0 2.829094 1_655
Sc8 Si2 2.841875 1_555
Sc8 Si3 2.849726 1_545
Sc9 Si0 2.834091 1_555
Sc9 Si2 2.837759 1_554
Sc9 Si1 2.843337 1_454
Sc9 Si3 2.848892 1_555
Ga0 Sc5 2.737143 1_545
Ga0 Sc1 2.742163 1_555
Ga0 Sc6 2.835044 1_555
Ga0 Sc9 2.835044 1_555
Ga0 Sc8 2.839077 1_555
Ga0 Sc7 2.839077 1_555
Ga0 Sc2 2.883577 1_555
Ga0 Sc4 3.184223 1_555
Ga0 Sc4 3.184223 1_554
As0 Sc4 2.725594 1_565
As0 Sc0 2.733638 1_455
As0 Sc9 2.858899 1_556
As0 Sc6 2.858899 1_555
As0 Sc7 2.870439 1_566
As0 Sc8 2.870439 1_565
As0 Sc3 2.929206 1_555
As0 Sc5 3.156743 1_555
As0 Sc5 3.156743 1_556
