# generated using pymatgen
data_Sc4GaSiNi6
_symmetry_space_group_name_H-M   'P 1'
_cell_length_a   4.99199035
_cell_length_b   4.99199016
_cell_length_c   7.73409250
_cell_angle_alpha   90.00000000
_cell_angle_beta   90.00000000
_cell_angle_gamma   120.00000124
_symmetry_Int_Tables_number   1
_chemical_formula_structural   Sc4GaSiNi6
_chemical_formula_sum   'Sc4 Ga1 Si1 Ni6'
_cell_volume   166.91195558
_cell_formula_units_Z   1
loop_
 _symmetry_equiv_pos_site_id
 _symmetry_equiv_pos_as_xyz
  1  'x, y, z'
loop_
 _atom_site_type_symbol
 _atom_site_label
 _atom_site_symmetry_multiplicity
 _atom_site_fract_x
 _atom_site_fract_y
 _atom_site_fract_z
 _atom_site_occupancy
  Sc  Sc0  1  0.33333300  0.66666700  0.43854473  1
  Sc  Sc1  1  0.66666700  0.33333300  0.56145527  1
  Sc  Sc2  1  0.66666700  0.33333300  0.94058294  1
  Sc  Sc3  1  0.33333300  0.66666700  0.05941706  1
  Ga  Ga0  1  0.00000000  0.00000000  0.00000000  1
  Si  Si0  1  0.00000000  0.00000000  0.50000000  1
  Ni  Ni0  1  0.83055443  0.16944557  0.25492847  1
  Ni  Ni1  1  0.83055443  0.66110986  0.25492847  1
  Ni  Ni2  1  0.33889014  0.16944557  0.25492847  1
  Ni  Ni3  1  0.16944557  0.83055443  0.74507153  1
  Ni  Ni4  1  0.16944557  0.33889014  0.74507153  1
  Ni  Ni5  1  0.66110986  0.83055443  0.74507153  1
loop_
_geom_bond_atom_site_label_1
_geom_bond_atom_site_label_2
_geom_bond_distance
_geom_bond_site_symmetry_2
Sc0 Si0 2.921053 1_565
Sc0 Si0 2.921057 1_555
Sc0 Si0 2.921057 1_665
Sc0 Sc3 2.932208 1_555
Sc0 Sc1 3.034845 1_565
Sc0 Sc1 3.034845 1_455
Sc0 Sc1 3.034853 1_555
Sc1 Si0 2.921053 1_655
Sc1 Si0 2.921057 1_665
Sc1 Si0 2.921057 1_555
Sc1 Sc2 2.932208 1_555
Sc2 Sc3 3.025117 1_546
Sc2 Sc3 3.025118 1_656
Sc2 Sc3 3.025126 1_556
Ga0 Ni1 2.456388 1_445
Ga0 Ni4 2.456388 1_554
Ga0 Ni2 2.456388 1_555
Ga0 Ni5 2.456388 1_444
Ga0 Ni0 2.456391 1_455
Ga0 Ni3 2.456391 1_544
Ga0 Sc3 2.918529 1_545
Ga0 Sc2 2.918529 1_454
Ga0 Sc3 2.918533 1_555
Ga0 Sc2 2.918533 1_444
Ga0 Sc2 2.918534 1_554
Ga0 Sc3 2.918534 1_445
Ni0 Si0 2.395632 1_655
Ni0 Ni1 2.454383 1_555
Ni0 Ni2 2.454383 1_555
Ni0 Ni1 2.537607 1_545
Ni0 Ni2 2.537607 1_655
Ni0 Sc1 2.761926 1_555
Ni0 Sc2 2.814002 1_554
Ni0 Sc0 2.871806 1_545
Ni0 Sc0 2.871806 1_655
Ni0 Sc3 2.918394 1_545
Ni0 Sc3 2.918394 1_655
Ni1 Si0 2.395630 1_665
Ni1 Ni2 2.454383 1_555
Ni1 Ni2 2.537607 1_665
Ni1 Sc1 2.761930 1_555
Ni1 Sc2 2.814006 1_554
Ni1 Sc0 2.871806 1_555
Ni1 Sc0 2.871806 1_655
Ni1 Sc3 2.918394 1_555
Ni1 Sc3 2.918394 1_655
Ni2 Si0 2.395630 1_555
Ni2 Sc1 2.761930 1_555
Ni2 Sc2 2.814006 1_554
Ni2 Sc0 2.871806 1_545
Ni2 Sc0 2.871806 1_555
Ni2 Sc3 2.918394 1_545
Ni2 Sc3 2.918394 1_555
Ni3 Si0 2.395632 1_565
Ni3 Ni4 2.454383 1_555
Ni3 Ni5 2.454383 1_555
Ni3 Ni4 2.537607 1_565
Ni3 Ni5 2.537607 1_455
Ni3 Sc0 2.761926 1_555
Ni3 Sc3 2.814002 1_556
Ni3 Sc1 2.871806 1_565
Ni3 Sc1 2.871806 1_455
Ni3 Sc2 2.918394 1_565
Ni3 Sc2 2.918394 1_455
Ni4 Si0 2.395630 1_555
Ni4 Ni5 2.454383 1_555
Ni4 Ni5 2.537607 1_445
Ni4 Sc0 2.761930 1_555
Ni4 Sc3 2.814006 1_556
Ni4 Sc1 2.871806 1_555
Ni4 Sc1 2.871806 1_455
Ni4 Sc2 2.918394 1_555
Ni4 Sc2 2.918394 1_455
Ni5 Si0 2.395630 1_665
Ni5 Sc0 2.761930 1_555
Ni5 Sc3 2.814006 1_556
Ni5 Sc1 2.871806 1_565
Ni5 Sc1 2.871806 1_555
Ni5 Sc2 2.918394 1_565
Ni5 Sc2 2.918394 1_555
