# generated using pymatgen
data_Hf4Ta5WN12
_symmetry_space_group_name_H-M   'P 1'
_cell_length_a   5.24102652
_cell_length_b   5.24102752
_cell_length_c   10.54487084
_cell_angle_alpha   90.00000000
_cell_angle_beta   90.00000000
_cell_angle_gamma   119.86332947
_symmetry_Int_Tables_number   1
_chemical_formula_structural   Hf4Ta5WN12
_chemical_formula_sum   'Hf4 Ta5 W1 N12'
_cell_volume   251.18930870
_cell_formula_units_Z   1
loop_
 _symmetry_equiv_pos_site_id
 _symmetry_equiv_pos_as_xyz
  1  'x, y, z'
loop_
 _atom_site_type_symbol
 _atom_site_label
 _atom_site_symmetry_multiplicity
 _atom_site_fract_x
 _atom_site_fract_y
 _atom_site_fract_z
 _atom_site_occupancy
  Hf  Hf0  1  0.66671428  0.33283104  0.00136780  1
  Hf  Hf1  1  0.33283104  0.66671428  0.00136780  1
  Hf  Hf2  1  0.33283104  0.66671428  0.49863220  1
  Hf  Hf3  1  0.66671428  0.33283104  0.49863220  1
  Ta  Ta0  1  0.32288108  0.99919888  0.75000000  1
  Ta  Ta1  1  0.99919888  0.32288108  0.75000000  1
  Ta  Ta2  1  0.31955548  0.31955548  0.25000000  1
  Ta  Ta3  1  0.68043717  0.00008378  0.25000000  1
  Ta  Ta4  1  0.00008378  0.68043717  0.25000000  1
  W  W0  1  0.67680702  0.67680702  0.75000000  1
  N  N0  1  0.65539939  0.65539939  0.37491845  1
  N  N1  1  0.34434401  0.00027182  0.37447000  1
  N  N2  1  0.00027182  0.34434401  0.37447000  1
  N  N3  1  0.34604496  0.34604496  0.62662411  1
  N  N4  1  0.65570695  0.99920585  0.62654340  1
  N  N5  1  0.99920585  0.65570695  0.62654340  1
  N  N6  1  0.34604496  0.34604496  0.87337589  1
  N  N7  1  0.65570695  0.99920585  0.87345660  1
  N  N8  1  0.99920585  0.65570695  0.87345660  1
  N  N9  1  0.65539939  0.65539939  0.12508155  1
  N  N10  1  0.34434401  0.00027182  0.12553000  1
  N  N11  1  0.00027182  0.34434401  0.12553000  1
loop_
_geom_bond_atom_site_label_1
_geom_bond_atom_site_label_2
_geom_bond_distance
_geom_bond_site_symmetry_2
Hf0 N9 2.159465 1_555
Hf0 N11 2.160773 1_655
Hf0 N10 2.161951 1_555
Hf0 N6 2.183305 1_554
Hf0 N7 2.186216 1_544
Hf0 N8 2.186970 1_554
Hf1 N9 2.159465 1_555
Hf1 N10 2.160773 1_565
Hf1 N11 2.161951 1_555
Hf1 N6 2.183306 1_554
Hf1 N8 2.186216 1_454
Hf1 N7 2.186970 1_554
Hf2 N0 2.159465 1_555
Hf2 N1 2.160773 1_565
Hf2 N2 2.161951 1_555
Hf2 N3 2.183306 1_555
Hf2 N5 2.186216 1_455
Hf2 N4 2.186970 1_555
Hf3 N0 2.159465 1_555
Hf3 N2 2.160773 1_655
Hf3 N1 2.161951 1_555
Hf3 N3 2.183305 1_555
Hf3 N4 2.186216 1_545
Hf3 N5 2.186970 1_555
N0 Ta4 2.186260 1_655
N0 Ta3 2.186260 1_565
N0 Ta2 2.201395 1_555
N1 Ta2 2.180888 1_555
N1 Ta4 2.185416 1_545
N1 Ta3 2.197095 1_555
N2 Ta2 2.180887 1_555
N2 Ta3 2.185416 1_455
N2 Ta4 2.197095 1_555
N3 W0 2.170280 1_555
N3 Ta1 2.189069 1_455
N3 Ta0 2.189069 1_545
N4 Ta0 2.176571 1_555
N4 W0 2.179031 1_555
N4 Ta1 2.184517 1_565
N5 Ta1 2.176571 1_555
N5 W0 2.179031 1_555
N5 Ta0 2.184517 1_655
N6 W0 2.170280 1_555
N6 Ta1 2.189069 1_455
N6 Ta0 2.189069 1_545
N7 Ta0 2.176571 1_555
N7 W0 2.179031 1_555
N7 Ta1 2.184517 1_565
N8 Ta1 2.176571 1_555
N8 W0 2.179031 1_555
N8 Ta0 2.184517 1_655
N9 Ta4 2.186260 1_655
N9 Ta3 2.186260 1_565
N9 Ta2 2.201395 1_555
N10 Ta2 2.180888 1_555
N10 Ta4 2.185416 1_545
N10 Ta3 2.197095 1_555
N11 Ta2 2.180887 1_555
N11 Ta3 2.185416 1_455
N11 Ta4 2.197095 1_555
