# generated using pymatgen
data_YHf2TcF15
_symmetry_space_group_name_H-M   'P 1'
_cell_length_a   7.98023721
_cell_length_b   7.98023784
_cell_length_c   7.97391482
_cell_angle_alpha   79.84940913
_cell_angle_beta   79.84941006
_cell_angle_gamma   99.79512493
_symmetry_Int_Tables_number   1
_chemical_formula_structural   YHf2TcF15
_chemical_formula_sum   'Y2 Hf4 Tc2 F30'
_cell_volume   481.31691560
_cell_formula_units_Z   2
loop_
 _symmetry_equiv_pos_site_id
 _symmetry_equiv_pos_as_xyz
  1  'x, y, z'
loop_
 _atom_site_type_symbol
 _atom_site_label
 _atom_site_symmetry_multiplicity
 _atom_site_fract_x
 _atom_site_fract_y
 _atom_site_fract_z
 _atom_site_occupancy
  Y  Y0  1  0.17771858  0.82228142  0.25000000  1
  Y  Y1  1  0.82228142  0.17771858  0.75000000  1
  Hf  Hf0  1  0.74429888  0.67846065  0.67372805  1
  Hf  Hf1  1  0.32153935  0.25570112  0.82627195  1
  Hf  Hf2  1  0.25570112  0.32153935  0.32627195  1
  Hf  Hf3  1  0.67846065  0.74429888  0.17372805  1
  Tc  Tc0  1  0.75170393  0.24829607  0.25000000  1
  Tc  Tc1  1  0.24829607  0.75170393  0.75000000  1
  F  F0  1  0.31666458  0.35171546  0.05458724  1
  F  F1  1  0.93572748  0.81096226  0.14718231  1
  F  F2  1  0.84301614  0.46361719  0.68629824  1
  F  F3  1  0.46361719  0.84301614  0.18629824  1
  F  F4  1  0.81096226  0.93572748  0.64718231  1
  F  F5  1  0.35171546  0.31666458  0.55458624  1
  F  F6  1  0.68333542  0.64828454  0.94541276  1
  F  F7  1  0.06427252  0.18903774  0.85281769  1
  F  F8  1  0.15698386  0.53638281  0.31370176  1
  F  F9  1  0.53638281  0.15698386  0.81370176  1
  F  F10  1  0.18903774  0.06427252  0.35281769  1
  F  F11  1  0.64828454  0.68333542  0.44541276  1
  F  F12  1  0.77061501  0.28226637  0.00206542  1
  F  F13  1  0.00259618  0.27128792  0.21669677  1
  F  F14  1  0.78132689  0.50222753  0.22302829  1
  F  F15  1  0.50222753  0.78132689  0.72302829  1
  F  F16  1  0.27128792  0.00259618  0.71669677  1
  F  F17  1  0.28226637  0.77061501  0.50206542  1
  F  F18  1  0.22938499  0.71773363  0.99793458  1
  F  F19  1  0.99740382  0.72871208  0.78330323  1
  F  F20  1  0.21867311  0.49777247  0.77697171  1
  F  F21  1  0.49777247  0.21867311  0.27697171  1
  F  F22  1  0.72871208  0.99740382  0.28330323  1
  F  F23  1  0.71773363  0.22938499  0.49793458  1
  F  F24  1  0.47056919  0.52943081  0.25000000  1
  F  F25  1  0.74528232  0.95207807  0.97268716  1
  F  F26  1  0.04792193  0.25471768  0.52731284  1
  F  F27  1  0.25471768  0.04792193  0.02731284  1
  F  F28  1  0.95207807  0.74528232  0.47268716  1
  F  F29  1  0.52943081  0.47056919  0.75000000  1
loop_
_geom_bond_atom_site_label_1
_geom_bond_atom_site_label_2
_geom_bond_distance
_geom_bond_site_symmetry_2
F0 Hf1 2.092827 1_554
F0 Hf2 2.095875 1_555
F1 Hf3 1.994579 1_555
F1 Y0 2.221365 1_655
F2 Hf0 1.999249 1_555
F2 Y1 2.219066 1_555
F3 Hf3 1.999249 1_555
F3 Y0 2.219066 1_555
F4 Hf0 1.994579 1_555
F4 Y1 2.221365 1_565
F5 Hf2 2.092819 1_555
F5 Hf1 2.095882 1_555
F6 Hf3 2.092827 1_556
F6 Hf0 2.095875 1_555
F7 Hf1 1.994579 1_555
F7 Y1 2.221365 1_455
F8 Hf2 1.999249 1_555
F8 Y0 2.219066 1_555
F9 Hf1 1.999249 1_555
F9 Y1 2.219066 1_555
F10 Hf2 1.994579 1_555
F10 Y0 2.221365 1_545
F11 Hf0 2.092827 1_555
F11 Hf3 2.095875 1_555
F12 Tc0 1.922717 1_555
F12 Y1 2.306944 1_554
F13 Tc0 1.945079 1_455
F13 Hf2 2.339644 1_555
F14 Tc0 1.968258 1_555
F14 Hf3 2.223928 1_555
F15 Tc1 1.968258 1_555
F15 Hf0 2.223928 1_555
F16 Tc1 1.945079 1_545
F16 Hf1 2.339645 1_555
F17 Tc1 1.922717 1_555
F17 Y0 2.306944 1_555
F18 Tc1 1.922717 1_555
F18 Y0 2.306944 1_556
F19 Tc1 1.945079 1_655
F19 Hf0 2.339644 1_555
F20 Tc1 1.968258 1_555
F20 Hf1 2.223928 1_555
F21 Tc0 1.968258 1_555
F21 Hf2 2.223928 1_555
F22 Tc0 1.945079 1_565
F22 Hf3 2.339645 1_555
F23 Tc0 1.922717 1_555
F23 Y1 2.306944 1_555
F24 Hf2 2.090765 1_555
F24 Hf3 2.090765 1_555
F25 Hf3 2.016072 1_556
F25 Y1 2.210199 1_565
F26 Hf2 2.016072 1_555
F26 Y1 2.210199 1_455
F27 Hf1 2.016072 1_554
F27 Y0 2.210199 1_545
F28 Hf0 2.016072 1_555
F28 Y0 2.210199 1_655
F29 Hf0 2.090765 1_555
F29 Hf1 2.090765 1_555
