# generated using pymatgen
data_YInCuPt3
_symmetry_space_group_name_H-M   'P 1'
_cell_length_a   5.15243531
_cell_length_b   5.15243535
_cell_length_c   5.15243521
_cell_angle_alpha   63.76357965
_cell_angle_beta   63.76357906
_cell_angle_gamma   63.76358145
_symmetry_Int_Tables_number   1
_chemical_formula_structural   YInCuPt3
_chemical_formula_sum   'Y1 In1 Cu1 Pt3'
_cell_volume   104.75399459
_cell_formula_units_Z   1
loop_
 _symmetry_equiv_pos_site_id
 _symmetry_equiv_pos_as_xyz
  1  'x, y, z'
loop_
 _atom_site_type_symbol
 _atom_site_label
 _atom_site_symmetry_multiplicity
 _atom_site_fract_x
 _atom_site_fract_y
 _atom_site_fract_z
 _atom_site_occupancy
  Y  Y0  1  0.00245659  0.00245659  0.00245659  1
  In  In0  1  0.25398534  0.25398534  0.25398534  1
  Cu  Cu0  1  0.62333662  0.62333662  0.62333662  1
  Pt  Pt0  1  0.62303847  0.62303847  0.12414351  1
  Pt  Pt1  1  0.62303847  0.12414351  0.62303847  1
  Pt  Pt2  1  0.12414351  0.62303847  0.62303847  1
loop_
_geom_bond_atom_site_label_1
_geom_bond_atom_site_label_2
_geom_bond_distance
_geom_bond_site_symmetry_2
In0 Pt0 2.937098 1_555
In0 Pt2 2.937098 1_555
In0 Pt1 2.937098 1_555
In0 Y0 3.081192 1_555
In0 Pt1 3.156644 1_554
In0 Pt1 3.156644 1_455
In0 Pt2 3.156644 1_554
In0 Pt2 3.156644 1_545
In0 Pt0 3.156644 1_455
In0 Pt0 3.156644 1_545
In0 Y0 3.298265 1_556
In0 Y0 3.298265 1_655
In0 Y0 3.298265 1_565
Cu0 Pt0 2.573419 1_555
Cu0 Pt2 2.573419 1_555
Cu0 Pt1 2.573419 1_555
Cu0 Pt0 2.579018 1_556
Cu0 Pt2 2.579018 1_655
Cu0 Pt1 2.579018 1_565
Cu0 In0 3.173173 1_556
Cu0 In0 3.173173 1_655
Cu0 In0 3.173173 1_565
Cu0 Y0 3.192012 1_665
Cu0 Y0 3.192012 1_566
Cu0 Y0 3.192012 1_656
Pt0 Pt2 2.715339 1_555
Pt0 Pt1 2.715339 1_555
Pt0 Pt2 2.727368 1_654
Pt0 Pt1 2.727368 1_564
Pt0 Y0 3.041080 1_665
Pt0 Y0 3.098546 1_565
Pt0 Y0 3.098546 1_655
Pt1 Pt2 2.715340 1_555
Pt1 Pt2 2.727368 1_645
Pt1 Y0 3.041080 1_656
Pt1 Y0 3.098546 1_655
Pt1 Y0 3.098546 1_556
Pt2 Y0 3.041080 1_566
Pt2 Y0 3.098546 1_565
Pt2 Y0 3.098546 1_556
