# generated using pymatgen
data_NaHg2BrO2
_symmetry_space_group_name_H-M   'P 1'
_cell_length_a   6.61669600
_cell_length_b   6.61669543
_cell_length_c   9.80038580
_cell_angle_alpha   90.00000000
_cell_angle_beta   90.00000000
_cell_angle_gamma   120.00000764
_symmetry_Int_Tables_number   1
_chemical_formula_structural   NaHg2BrO2
_chemical_formula_sum   'Na3 Hg6 Br3 O6'
_cell_volume   371.58322227
_cell_formula_units_Z   3
loop_
 _symmetry_equiv_pos_site_id
 _symmetry_equiv_pos_as_xyz
  1  'x, y, z'
loop_
 _atom_site_type_symbol
 _atom_site_label
 _atom_site_symmetry_multiplicity
 _atom_site_fract_x
 _atom_site_fract_y
 _atom_site_fract_z
 _atom_site_occupancy
  Na  Na0  1  0.00000000  0.00000000  0.16666700  1
  Na  Na1  1  0.00000000  0.00000000  0.83333300  1
  Na  Na2  1  0.00000000  0.00000000  0.50000000  1
  Hg  Hg0  1  0.50000000  0.50000000  0.00405210  1
  Hg  Hg1  1  0.00000000  0.50000000  0.33738510  1
  Hg  Hg2  1  0.50000000  0.00000000  0.67071810  1
  Hg  Hg3  1  0.00000000  0.50000000  0.99594790  1
  Hg  Hg4  1  0.50000000  0.50000000  0.66261490  1
  Hg  Hg5  1  0.50000000  0.00000000  0.32928190  1
  Br  Br0  1  0.50000000  0.00000000  0.00000000  1
  Br  Br1  1  0.50000000  0.50000000  0.33333300  1
  Br  Br2  1  0.00000000  0.50000000  0.66666700  1
  O  O0  1  0.85370662  0.70741225  0.00000000  1
  O  O1  1  0.14629338  0.85370662  0.33333300  1
  O  O2  1  0.70741225  0.85370662  0.66666700  1
  O  O3  1  0.29258775  0.14629338  0.66666700  1
  O  O4  1  0.14629338  0.29258775  0.00000000  1
  O  O5  1  0.85370662  0.14629338  0.33333300  1
loop_
_geom_bond_atom_site_label_1
_geom_bond_atom_site_label_2
_geom_bond_distance
_geom_bond_site_symmetry_2
Na0 O1 2.340708 1_545
Na0 O5 2.340708 1_455
Na0 O4 2.340719 1_555
Na0 O0 2.340719 1_445
Na1 O3 2.340712 1_555
Na1 O2 2.340712 1_445
Na1 O4 2.340719 1_556
Na1 O0 2.340719 1_446
Na2 O1 2.340715 1_545
Na2 O5 2.340715 1_455
Na2 O3 2.340719 1_555
Na2 O2 2.340719 1_445
Hg0 O0 2.037267 1_555
Hg0 O4 2.037267 1_555
Hg1 O5 2.037268 1_455
Hg1 O1 2.037268 1_555
Hg2 O2 2.037262 1_545
Hg2 O3 2.037262 1_555
Hg3 O0 2.037262 1_456
Hg3 O4 2.037262 1_556
Hg4 O2 2.037267 1_555
Hg4 O3 2.037267 1_555
Hg5 O5 2.037268 1_555
Hg5 O1 2.037268 1_545
Br0 Hg2 3.227090 1_554
Br0 Hg5 3.227090 1_555
Br1 Hg0 3.227080 1_555
Br1 Hg4 3.227090 1_555
Br2 Hg3 3.227080 1_555
Br2 Hg1 3.227090 1_555
