# generated using pymatgen
data_Sc13Ti3(Ir2O)4
_symmetry_space_group_name_H-M   'P 1'
_cell_length_a   8.54917339
_cell_length_b   8.54987411
_cell_length_c   8.54917294
_cell_angle_alpha   60.00271663
_cell_angle_beta   60.00000558
_cell_angle_gamma   60.00271478
_symmetry_Int_Tables_number   1
_chemical_formula_structural   Sc13Ti3(Ir2O)4
_chemical_formula_sum   'Sc13 Ti3 Ir8 O4'
_cell_volume   441.88656162
_cell_formula_units_Z   1
loop_
 _symmetry_equiv_pos_site_id
 _symmetry_equiv_pos_as_xyz
  1  'x, y, z'
loop_
 _atom_site_type_symbol
 _atom_site_label
 _atom_site_symmetry_multiplicity
 _atom_site_fract_x
 _atom_site_fract_y
 _atom_site_fract_z
 _atom_site_occupancy
  Sc  Sc0  1  0.62500000  0.12500000  0.62500000  1
  Sc  Sc1  1  0.81321222  0.81150611  0.18764033  1
  Sc  Sc2  1  0.18538768  0.18679853  0.81390740  1
  Sc  Sc3  1  0.81390740  0.18679853  0.81390740  1
  Sc  Sc4  1  0.18764033  0.81150611  0.18764033  1
  Sc  Sc5  1  0.18764033  0.81150611  0.81321222  1
  Sc  Sc6  1  0.81390740  0.18679853  0.18538768  1
  Sc  Sc7  1  0.43678778  0.43849389  0.06235967  1
  Sc  Sc8  1  0.06461232  0.06320147  0.43609260  1
  Sc  Sc9  1  0.43609260  0.06320147  0.43609260  1
  Sc  Sc10  1  0.06235967  0.43849389  0.06235967  1
  Sc  Sc11  1  0.06235967  0.43849389  0.43678778  1
  Sc  Sc12  1  0.43609260  0.06320147  0.06461232  1
  Ti  Ti0  1  0.12500000  0.62500000  0.62500000  1
  Ti  Ti1  1  0.62500000  0.62500000  0.12500000  1
  Ti  Ti2  1  0.62500000  0.62500000  0.62500000  1
  Ir  Ir0  1  0.75623771  0.42338035  0.41019197  1
  Ir  Ir1  1  0.41452051  0.75643746  0.41452051  1
  Ir  Ir2  1  0.41019197  0.42338035  0.75623771  1
  Ir  Ir3  1  0.41019197  0.42338035  0.41019197  1
  Ir  Ir4  1  0.49376229  0.82661965  0.83980803  1
  Ir  Ir5  1  0.83547949  0.49356254  0.83547949  1
  Ir  Ir6  1  0.83980803  0.82661965  0.49376229  1
  Ir  Ir7  1  0.83980803  0.82661965  0.83980803  1
  O  O0  1  0.62500000  0.12500000  0.12500000  1
  O  O1  1  0.12500000  0.62500000  0.12500000  1
  O  O2  1  0.12500000  0.12500000  0.62500000  1
  O  O3  1  0.12500000  0.12500000  0.12500000  1
loop_
_geom_bond_atom_site_label_1
_geom_bond_atom_site_label_2
_geom_bond_distance
_geom_bond_site_symmetry_2
Ir0 Ti2 2.602679 1_555
Ir0 Ti1 2.602693 1_555
Ir0 Sc0 2.693798 1_555
Ir0 Sc11 2.807158 1_655
Ir0 Sc10 2.807163 1_655
Ir0 Sc8 2.875168 1_655
Ir0 Ir1 2.885087 1_555
Ir0 Ir3 2.958405 1_555
Ir0 Ir2 2.958405 1_555
Ir0 Sc1 3.040636 1_555
Ir0 Sc3 3.157631 1_555
Ir0 Sc6 3.157638 1_555
Ir1 Ti1 2.632996 1_555
Ir1 Ti0 2.632996 1_555
Ir1 Ti2 2.633002 1_555
Ir1 Sc9 2.819293 1_565
Ir1 Sc12 2.819293 1_565
Ir1 Sc8 2.819293 1_565
Ir1 Ir3 2.885074 1_555
Ir1 Ir2 2.885087 1_555
Ir2 Ti2 2.602679 1_555
Ir2 Ti0 2.602693 1_555
Ir2 Sc0 2.693798 1_555
Ir2 Sc7 2.807158 1_556
Ir2 Sc10 2.807163 1_556
Ir2 Sc12 2.875168 1_556
Ir2 Ir3 2.958405 1_555
Ir2 Sc5 3.040636 1_555
Ir2 Sc3 3.157631 1_555
Ir2 Sc2 3.157638 1_555
Ir3 Ti0 2.602683 1_555
Ir3 Ti1 2.602683 1_555
Ir3 Sc0 2.693789 1_555
Ir3 Sc7 2.807166 1_555
Ir3 Sc11 2.807166 1_555
Ir3 Sc9 2.875179 1_555
Ir3 Sc4 3.040646 1_555
Ir3 Sc6 3.157634 1_555
Ir3 Sc2 3.157634 1_555
Ir4 Ti2 2.602679 1_555
Ir4 Ti1 2.602693 1_556
Ir4 Sc0 2.693798 1_565
Ir4 Sc5 2.807158 1_555
Ir4 Sc4 2.807163 1_556
Ir4 Sc2 2.875168 1_565
Ir4 Ir5 2.885087 1_555
Ir4 Ir7 2.958405 1_555
Ir4 Ir6 2.958405 1_555
Ir4 Sc7 3.040636 1_556
Ir4 Sc9 3.157631 1_565
Ir4 Sc12 3.157638 1_566
Ir5 Ti1 2.632996 1_556
Ir5 Ti0 2.632996 1_655
Ir5 Ti2 2.633002 1_555
Ir5 Sc3 2.819293 1_555
Ir5 Sc6 2.819293 1_556
Ir5 Sc2 2.819293 1_655
Ir5 Ir7 2.885074 1_555
Ir5 Ir6 2.885087 1_555
Ir6 Ti2 2.602679 1_555
Ir6 Ti0 2.602693 1_655
Ir6 Sc0 2.693798 1_565
Ir6 Sc1 2.807158 1_555
Ir6 Sc4 2.807163 1_655
Ir6 Sc6 2.875168 1_565
Ir6 Ir7 2.958405 1_555
Ir6 Sc11 3.040636 1_655
Ir6 Sc9 3.157631 1_565
Ir6 Sc8 3.157638 1_665
Ir7 Ti0 2.602683 1_655
Ir7 Ti1 2.602683 1_556
Ir7 Sc0 2.693789 1_565
Ir7 Sc1 2.807166 1_556
Ir7 Sc5 2.807166 1_655
Ir7 Sc3 2.875179 1_565
Ir7 Sc10 3.040646 1_656
Ir7 Sc12 3.157634 1_566
Ir7 Sc8 3.157634 1_665
O0 Sc9 2.261345 1_555
O0 Sc3 2.261345 1_554
O0 Sc6 2.261351 1_555
O0 Sc12 2.261351 1_555
O0 Sc7 2.274644 1_555
O0 Sc1 2.274644 1_545
O1 Sc4 2.260723 1_555
O1 Sc10 2.260723 1_555
O1 Sc11 2.260730 1_555
O1 Sc5 2.260730 1_554
O1 Sc7 2.260730 1_555
O1 Sc1 2.260730 1_455
O2 Sc9 2.261345 1_555
O2 Sc3 2.261345 1_455
O2 Sc2 2.261351 1_555
O2 Sc8 2.261351 1_555
O2 Sc11 2.274644 1_555
O2 Sc5 2.274644 1_545
O3 Sc8 2.261343 1_555
O3 Sc2 2.261343 1_554
O3 Sc12 2.261343 1_555
O3 Sc6 2.261343 1_455
O3 Sc10 2.274646 1_555
O3 Sc4 2.274646 1_545
