# generated using pymatgen
data_Hf13Ti3(Ir2N)4
_symmetry_space_group_name_H-M   'P 1'
_cell_length_a   8.57658978
_cell_length_b   8.55666709
_cell_length_c   8.57658902
_cell_angle_alpha   59.92295648
_cell_angle_beta   60.00000671
_cell_angle_gamma   59.92295643
_symmetry_Int_Tables_number   1
_chemical_formula_structural   Hf13Ti3(Ir2N)4
_chemical_formula_sum   'Hf13 Ti3 Ir8 N4'
_cell_volume   444.54135941
_cell_formula_units_Z   1
loop_
 _symmetry_equiv_pos_site_id
 _symmetry_equiv_pos_as_xyz
  1  'x, y, z'
loop_
 _atom_site_type_symbol
 _atom_site_label
 _atom_site_symmetry_multiplicity
 _atom_site_fract_x
 _atom_site_fract_y
 _atom_site_fract_z
 _atom_site_occupancy
  Hf  Hf0  1  0.62500000  0.12500000  0.62500000  1
  Hf  Hf1  1  0.81253345  0.81153366  0.18796694  1
  Hf  Hf2  1  0.18445858  0.18700822  0.81426710  1
  Hf  Hf3  1  0.81426710  0.18700822  0.81426710  1
  Hf  Hf4  1  0.18796694  0.81153366  0.18796694  1
  Hf  Hf5  1  0.18796694  0.81153366  0.81253345  1
  Hf  Hf6  1  0.81426710  0.18700822  0.18445858  1
  Hf  Hf7  1  0.43746655  0.43846634  0.06203306  1
  Hf  Hf8  1  0.06554142  0.06299178  0.43573290  1
  Hf  Hf9  1  0.43573290  0.06299178  0.43573290  1
  Hf  Hf10  1  0.06203306  0.43846634  0.06203306  1
  Hf  Hf11  1  0.06203306  0.43846634  0.43746655  1
  Hf  Hf12  1  0.43573290  0.06299178  0.06554142  1
  Ti  Ti0  1  0.12500000  0.62500000  0.62500000  1
  Ti  Ti1  1  0.62500000  0.62500000  0.12500000  1
  Ti  Ti2  1  0.62500000  0.62500000  0.62500000  1
  Ir  Ir0  1  0.75623591  0.42176045  0.41100232  1
  Ir  Ir1  1  0.41546918  0.75359245  0.41546918  1
  Ir  Ir2  1  0.41100232  0.42176045  0.75623591  1
  Ir  Ir3  1  0.41100232  0.42176045  0.41100232  1
  Ir  Ir4  1  0.49376409  0.82823955  0.83899768  1
  Ir  Ir5  1  0.83453082  0.49640755  0.83453082  1
  Ir  Ir6  1  0.83899768  0.82823955  0.49376409  1
  Ir  Ir7  1  0.83899768  0.82823955  0.83899768  1
  N  N0  1  0.62500000  0.12500000  0.12500000  1
  N  N1  1  0.12500000  0.62500000  0.12500000  1
  N  N2  1  0.12500000  0.12500000  0.62500000  1
  N  N3  1  0.12500000  0.12500000  0.12500000  1
loop_
_geom_bond_atom_site_label_1
_geom_bond_atom_site_label_2
_geom_bond_distance
_geom_bond_site_symmetry_2
Hf0 Ir7 2.685322 1_545
Hf0 Ir3 2.685322 1_555
Hf0 Ir2 2.685327 1_555
Hf0 Ir6 2.685327 1_545
Hf0 Ir0 2.685327 1_555
Hf0 Ir4 2.685327 1_545
Hf1 N1 2.269451 1_655
Hf1 N0 2.272777 1_565
Hf1 Ir6 2.820296 1_555
Hf1 Ir7 2.820313 1_554
Hf1 Ir0 3.051460 1_555
Hf2 N3 2.266892 1_556
Hf2 N2 2.266900 1_555
Hf2 Ir5 2.832290 1_455
Hf2 Ir4 2.872925 1_545
Hf2 Ir2 3.162363 1_555
Hf2 Ir3 3.162363 1_555
Hf3 N0 2.266894 1_556
Hf3 N2 2.266894 1_655
Hf3 Ir5 2.832285 1_555
Hf3 Ir7 2.872932 1_545
Hf3 Ir0 3.162363 1_555
Hf3 Ir2 3.162363 1_555
Hf4 N1 2.269456 1_555
Hf4 N3 2.272775 1_565
Hf4 Ir4 2.820306 1_554
Hf4 Ir6 2.820306 1_455
Hf4 Ir3 3.051460 1_555
Hf5 N1 2.269450 1_556
Hf5 N2 2.272777 1_565
Hf5 Ir4 2.820296 1_555
Hf5 Ir7 2.820313 1_455
Hf5 Ir2 3.051460 1_555
Hf6 N3 2.266892 1_655
Hf6 N0 2.266900 1_555
Hf6 Ir5 2.832290 1_554
Hf6 Ir6 2.872925 1_545
Hf6 Ir0 3.162363 1_555
Hf6 Ir3 3.162363 1_555
Hf7 N1 2.269451 1_555
Hf7 N0 2.272777 1_555
Hf7 Ir2 2.820296 1_554
Hf7 Ir3 2.820313 1_555
Hf7 Ir4 3.051460 1_554
Hf8 N3 2.266892 1_555
Hf8 N2 2.266900 1_555
Hf8 Ir1 2.832290 1_545
Hf8 Ir0 2.872925 1_455
Hf8 Ir6 3.162363 1_445
Hf8 Ir7 3.162363 1_445
Hf9 N0 2.266894 1_555
Hf9 N2 2.266894 1_555
Hf9 Ir1 2.832285 1_545
Hf9 Ir3 2.872932 1_555
Hf9 Ir4 3.162363 1_545
Hf9 Ir6 3.162363 1_545
Hf10 N1 2.269456 1_555
Hf10 N3 2.272775 1_555
Hf10 Ir0 2.820306 1_455
Hf10 Ir2 2.820306 1_554
Hf10 Ir7 3.051460 1_454
Hf11 N1 2.269450 1_555
Hf11 N2 2.272777 1_555
Hf11 Ir0 2.820296 1_455
Hf11 Ir3 2.820313 1_555
Hf11 Ir6 3.051460 1_455
Hf12 N3 2.266892 1_555
Hf12 N0 2.266900 1_555
Hf12 Ir1 2.832290 1_545
Hf12 Ir2 2.872925 1_554
Hf12 Ir4 3.162363 1_544
Hf12 Ir7 3.162363 1_544
Ir0 Ti2 2.613663 1_555
Ir0 Ti1 2.613670 1_555
Ir1 Ti2 2.633454 1_555
Ir1 Ti1 2.633455 1_555
Ir1 Ti0 2.633455 1_555
Ir2 Ti2 2.613663 1_555
Ir2 Ti0 2.613670 1_555
Ir3 Ti0 2.613665 1_555
Ir3 Ti1 2.613665 1_555
Ir4 Ti2 2.613663 1_555
Ir4 Ti1 2.613670 1_556
Ir5 Ti2 2.633454 1_555
Ir5 Ti1 2.633455 1_556
Ir5 Ti0 2.633455 1_655
Ir6 Ti2 2.613663 1_555
Ir6 Ti0 2.613670 1_655
Ir7 Ti0 2.613665 1_655
Ir7 Ti1 2.613665 1_556
