# generated using pymatgen
data_Sc2SiB2Ru4Rh
_symmetry_space_group_name_H-M   'P 1'
_cell_length_a   9.27138584
_cell_length_b   9.27138584
_cell_length_c   2.98236515
_cell_angle_alpha   90.00000000
_cell_angle_beta   90.00000000
_cell_angle_gamma   90.00000000
_symmetry_Int_Tables_number   1
_chemical_formula_structural   Sc2SiB2Ru4Rh
_chemical_formula_sum   'Sc4 Si2 B4 Ru8 Rh2'
_cell_volume   256.35991919
_cell_formula_units_Z   2
loop_
 _symmetry_equiv_pos_site_id
 _symmetry_equiv_pos_as_xyz
  1  'x, y, z'
loop_
 _atom_site_type_symbol
 _atom_site_label
 _atom_site_symmetry_multiplicity
 _atom_site_fract_x
 _atom_site_fract_y
 _atom_site_fract_z
 _atom_site_occupancy
  Sc  Sc0  1  0.67642069  0.17642069  0.00000000  1
  Sc  Sc1  1  0.32357931  0.82357931  0.00000000  1
  Sc  Sc2  1  0.17642069  0.32357931  0.00000000  1
  Sc  Sc3  1  0.82357931  0.67642069  0.00000000  1
  Si  Si0  1  0.50000000  0.50000000  0.00000000  1
  Si  Si1  1  0.00000000  0.00000000  0.00000000  1
  B  B0  1  0.12809945  0.62809945  0.00000000  1
  B  B1  1  0.87190055  0.37190055  0.00000000  1
  B  B2  1  0.62809945  0.87190055  0.00000000  1
  B  B3  1  0.37190055  0.12809945  0.00000000  1
  Ru  Ru0  1  0.56889121  0.71144434  0.50000000  1
  Ru  Ru1  1  0.43110879  0.28855566  0.50000000  1
  Ru  Ru2  1  0.06889121  0.78855566  0.50000000  1
  Ru  Ru3  1  0.93110879  0.21144434  0.50000000  1
  Ru  Ru4  1  0.28855566  0.56889121  0.50000000  1
  Ru  Ru5  1  0.71144434  0.43110879  0.50000000  1
  Ru  Ru6  1  0.21144434  0.06889121  0.50000000  1
  Ru  Ru7  1  0.78855566  0.93110879  0.50000000  1
  Rh  Rh0  1  0.50000000  0.00000000  0.50000000  1
  Rh  Rh1  1  0.00000000  0.50000000  0.50000000  1
loop_
_geom_bond_atom_site_label_1
_geom_bond_atom_site_label_2
_geom_bond_distance
_geom_bond_site_symmetry_2
B0 Ru4 2.176711 1_554
B0 Ru2 2.176711 1_554
B0 Ru4 2.176711 1_555
B0 Ru2 2.176711 1_555
B0 Rh1 2.246040 1_555
B0 Rh1 2.246040 1_554
B0 Sc1 2.563077 1_555
B0 Sc3 2.858647 1_455
B0 Sc2 2.858647 1_555
B1 Ru5 2.176711 1_555
B1 Ru5 2.176711 1_554
B1 Ru3 2.176711 1_554
B1 Ru3 2.176711 1_555
B1 Rh1 2.246040 1_654
B1 Rh1 2.246040 1_655
B1 Sc0 2.563077 1_555
B1 Sc2 2.858647 1_655
B1 Sc3 2.858647 1_555
B2 Ru0 2.176711 1_554
B2 Ru0 2.176711 1_555
B2 Ru7 2.176711 1_555
B2 Ru7 2.176711 1_554
B2 Rh0 2.246040 1_565
B2 Rh0 2.246040 1_564
B2 Sc3 2.563077 1_555
B2 Sc0 2.858647 1_565
B2 Sc1 2.858647 1_555
B3 Ru1 2.176711 1_555
B3 Ru1 2.176711 1_554
B3 Ru6 2.176711 1_555
B3 Ru6 2.176711 1_554
B3 Rh0 2.246040 1_555
B3 Rh0 2.246040 1_554
B3 Sc2 2.563077 1_555
B3 Sc1 2.858647 1_545
B3 Sc0 2.858647 1_555
Ru0 Si0 2.544540 1_556
Ru0 Si0 2.544540 1_555
Ru0 Sc3 2.811558 1_556
Ru0 Sc3 2.811558 1_555
Ru0 Sc1 2.911580 1_556
Ru0 Sc1 2.911580 1_555
Ru1 Si0 2.544540 1_555
Ru1 Si0 2.544540 1_556
Ru1 Sc2 2.811558 1_556
Ru1 Sc2 2.811558 1_555
Ru1 Sc0 2.911580 1_556
Ru1 Sc0 2.911580 1_555
Ru2 Si1 2.544540 1_566
Ru2 Si1 2.544540 1_565
Ru2 Sc1 2.811558 1_555
Ru2 Sc1 2.811558 1_556
Ru2 Sc3 2.911580 1_456
Ru2 Sc3 2.911580 1_455
Ru3 Si1 2.544540 1_655
Ru3 Si1 2.544540 1_656
Ru3 Sc0 2.811558 1_555
Ru3 Sc0 2.811558 1_556
Ru3 Sc2 2.911580 1_656
Ru3 Sc2 2.911580 1_655
Ru4 Si0 2.544540 1_555
Ru4 Si0 2.544540 1_556
Ru4 Sc1 2.811558 1_555
Ru4 Sc1 2.811558 1_556
Ru4 Sc2 2.911580 1_555
Ru4 Sc2 2.911580 1_556
Ru5 Si0 2.544540 1_555
Ru5 Si0 2.544540 1_556
Ru5 Sc0 2.811558 1_555
Ru5 Sc0 2.811558 1_556
Ru5 Sc3 2.911580 1_556
Ru5 Sc3 2.911580 1_555
Ru6 Si1 2.544540 1_556
Ru6 Si1 2.544540 1_555
Ru6 Sc2 2.811558 1_555
Ru6 Sc2 2.811558 1_556
Ru6 Sc1 2.911580 1_545
Ru6 Sc1 2.911580 1_546
Ru7 Si1 2.544540 1_666
Ru7 Si1 2.544540 1_665
Ru7 Sc3 2.811558 1_556
Ru7 Sc3 2.811558 1_555
Ru7 Sc0 2.911580 1_565
Ru7 Sc0 2.911580 1_566
Rh0 Sc0 2.752167 1_555
Rh0 Sc0 2.752167 1_556
Rh0 Sc1 2.752167 1_545
Rh0 Sc1 2.752167 1_546
Rh1 Sc2 2.752167 1_556
Rh1 Sc3 2.752167 1_455
Rh1 Sc3 2.752167 1_456
Rh1 Sc2 2.752167 1_555
