# generated using pymatgen
data_Ba2IrOs2O9
_symmetry_space_group_name_H-M   'P 1'
_cell_length_a   8.13318728
_cell_length_b   8.13852258
_cell_length_c   8.13879228
_cell_angle_alpha   109.33132867
_cell_angle_beta   109.36899230
_cell_angle_gamma   109.75402653
_symmetry_Int_Tables_number   1
_chemical_formula_structural   Ba2IrOs2O9
_chemical_formula_sum   'Ba4 Ir2 Os4 O18'
_cell_volume   414.49636529
_cell_formula_units_Z   2
loop_
 _symmetry_equiv_pos_site_id
 _symmetry_equiv_pos_as_xyz
  1  'x, y, z'
loop_
 _atom_site_type_symbol
 _atom_site_label
 _atom_site_symmetry_multiplicity
 _atom_site_fract_x
 _atom_site_fract_y
 _atom_site_fract_z
 _atom_site_occupancy
  Ba  Ba0  1  0.99670396  0.99626622  0.37739409  1
  Ba  Ba1  1  0.00106646  0.38301112  0.00167497  1
  Ba  Ba2  1  0.61977579  0.61997042  0.61668196  1
  Ba  Ba3  1  0.38117447  0.00179673  0.00243261  1
  Ir  Ir0  1  0.50195999  0.86468777  0.36517306  1
  Ir  Ir1  1  0.63658384  0.50133716  0.13821913  1
  Os  Os0  1  0.36384528  0.50116873  0.86536683  1
  Os  Os1  1  0.86565605  0.36442920  0.49728774  1
  Os  Os2  1  0.50046302  0.13605541  0.63751047  1
  Os  Os3  1  0.13381071  0.63162422  0.49819694  1
  O  O0  1  0.33888244  0.00698952  0.34388911  1
  O  O1  1  0.33073122  0.33681336  0.99504784  1
  O  O2  1  0.99951881  0.66430177  0.66370272  1
  O  O3  1  0.65756013  0.66572347  0.99664949  1
  O  O4  1  0.99838887  0.33201014  0.33104350  1
  O  O5  1  0.66209613  0.00482157  0.66904779  1
  O  O6  1  0.37332953  0.30124468  0.65191393  1
  O  O7  1  0.06918709  0.34832429  0.69491873  1
  O  O8  1  0.72459356  0.35260371  0.65616817  1
  O  O9  1  0.34681942  0.64908693  0.71963384  1
  O  O10  1  0.27511955  0.92985848  0.62860534  1
  O  O11  1  0.64546121  0.37071061  0.30696890  1
  O  O12  1  0.30354057  0.63809778  0.37129633  1
  O  O13  1  0.69858268  0.06900932  0.33611990  1
  O  O14  1  0.93724343  0.62832347  0.27436772  1
  O  O15  1  0.67175245  0.73565559  0.36598298  1
  O  O16  1  0.62705223  0.27023858  0.92934021  1
  O  O17  1  0.33910211  0.69583976  0.06536369  1
loop_
_geom_bond_atom_site_label_1
_geom_bond_atom_site_label_2
_geom_bond_distance
_geom_bond_site_symmetry_2
Ba0 O13 2.627568 1_565
Ba0 O14 2.644579 1_555
Ba0 O6 2.680509 1_665
Ba0 O15 2.722078 1_555
Ba0 O10 2.843905 1_655
Ba0 O7 2.860241 1_665
Ba0 O0 2.860425 1_665
Ba0 O3 2.871107 1_554
Ba0 O4 2.875655 1_565
Ba1 O12 2.629778 1_555
Ba1 O16 2.647539 1_454
Ba1 O7 2.678879 1_554
Ba1 O14 2.777083 1_455
Ba1 O17 2.785462 1_555
Ba1 O8 2.827343 1_454
Ba1 O1 2.845553 1_554
Ba1 O4 2.850960 1_455
Ba1 O5 2.863541 1_454
Ba2 O15 2.608304 1_555
Ba2 O8 2.664595 1_555
Ba2 O9 2.672947 1_555
Ba2 O12 2.769466 1_555
Ba2 O11 2.786229 1_555
Ba2 O2 2.861284 1_555
Ba2 O6 2.861390 1_555
Ba2 O3 2.885553 1_555
Ba2 O5 2.898356 1_565
Ba3 O11 2.637222 1_555
Ba3 O17 2.639009 1_545
Ba3 O10 2.661237 1_544
Ba3 O13 2.784011 1_555
Ba3 O16 2.796829 1_554
Ba3 O9 2.876222 1_544
Ba3 O2 2.885683 1_444
Ba3 O0 2.899880 1_555
Ba3 O1 2.907615 1_554
Ir0 O15 1.997166 1_555
Ir0 O17 2.000670 1_555
Ir0 O13 2.022871 1_565
Ir0 O5 2.026211 1_565
Ir0 O12 2.027322 1_555
Ir0 O0 2.036957 1_565
Ir1 O11 1.993607 1_555
Ir1 O14 2.002937 1_555
Ir1 O15 2.023347 1_555
Ir1 O16 2.032399 1_554
Ir1 O1 2.032603 1_554
Ir1 O3 2.035490 1_554
O0 Os2 1.965469 1_555
O1 Os0 1.963521 1_555
O2 Os3 2.003293 1_655
O2 Os1 2.003322 1_555
O3 Os0 1.959282 1_555
O4 Os1 1.997684 1_555
O4 Os3 2.001043 1_655
O5 Os2 1.959985 1_555
O6 Os2 1.950904 1_555
O6 Os0 1.993415 1_555
O7 Os0 1.962729 1_555
O7 Os1 1.965888 1_455
O8 Os2 1.979793 1_555
O8 Os1 1.997354 1_555
O9 Os0 1.955576 1_555
O9 Os3 1.965342 1_555
O10 Os2 1.983119 1_565
O10 Os3 1.984515 1_555
O11 Os1 1.970655 1_555
O12 Os3 1.976785 1_555
O13 Os1 1.966970 1_555
O14 Os3 1.970277 1_655
O16 Os2 1.947976 1_555
O17 Os0 1.981301 1_554
