# generated using pymatgen
data_Ba6Na16Ir
_symmetry_space_group_name_H-M   'P 1'
_cell_length_a   10.93265433
_cell_length_b   10.93265506
_cell_length_c   10.93265459
_cell_angle_alpha   109.47121976
_cell_angle_beta   109.47122112
_cell_angle_gamma   109.47122145
_symmetry_Int_Tables_number   1
_chemical_formula_structural   Ba6Na16Ir
_chemical_formula_sum   'Ba6 Na16 Ir1'
_cell_volume   1005.90043759
_cell_formula_units_Z   1
loop_
 _symmetry_equiv_pos_site_id
 _symmetry_equiv_pos_as_xyz
  1  'x, y, z'
loop_
 _atom_site_type_symbol
 _atom_site_label
 _atom_site_symmetry_multiplicity
 _atom_site_fract_x
 _atom_site_fract_y
 _atom_site_fract_z
 _atom_site_occupancy
  Ba  Ba0  1  0.24470278  0.24470278  0.00000000  1
  Ba  Ba1  1  0.00000000  0.24470278  0.24470278  1
  Ba  Ba2  1  1.00000000  0.75529722  0.75529722  1
  Ba  Ba3  1  0.75529722  0.00000000  0.75529722  1
  Ba  Ba4  1  0.24470278  1.00000000  0.24470278  1
  Ba  Ba5  1  0.75529722  0.75529722  0.00000000  1
  Na  Na0  1  0.50000000  0.50000000  0.50000000  1
  Na  Na1  1  0.00000000  0.00000000  0.50000000  1
  Na  Na2  1  0.50000000  0.00000000  0.00000000  1
  Na  Na3  1  0.00000000  0.50000000  0.00000000  1
  Na  Na4  1  0.34685968  0.69371836  0.34685968  1
  Na  Na5  1  0.65314032  1.00000000  0.34685968  1
  Na  Na6  1  0.34685968  0.00000000  0.65314032  1
  Na  Na7  1  0.65314032  0.34685968  1.00000000  1
  Na  Na8  1  0.34685968  0.34685968  0.69371836  1
  Na  Na9  1  0.69371836  0.34685968  0.34685968  1
  Na  Na10  1  1.00000000  0.34685968  0.65314032  1
  Na  Na11  1  0.30628164  0.65314032  0.65314032  1
  Na  Na12  1  0.34685968  0.65314032  0.00000000  1
  Na  Na13  1  0.00000000  0.65314032  0.34685968  1
  Na  Na14  1  0.65314032  0.65314032  0.30628164  1
  Na  Na15  1  0.65314032  0.30628164  0.65314032  1
  Ir  Ir0  1  0.00000000  0.00000000  0.00000000  1
loop_
_geom_bond_atom_site_label_1
_geom_bond_atom_site_label_2
_geom_bond_distance
_geom_bond_site_symmetry_2
Ba0 Ir0 3.089114 1_555
Ba0 Na7 4.226299 1_554
Ba0 Na12 4.226299 1_555
Ba0 Na14 4.226300 1_555
Ba0 Na8 4.226309 1_554
Ba1 Ir0 3.089114 1_555
Ba1 Na10 4.226299 1_455
Ba1 Na13 4.226299 1_555
Ba1 Na11 4.226300 1_555
Ba1 Na9 4.226309 1_455
Ba2 Ir0 3.089114 1_666
Ba2 Na13 4.226299 1_655
Ba2 Na10 4.226299 1_555
Ba2 Na9 4.226300 1_555
Ba2 Na11 4.226309 1_655
Ba3 Ir0 3.089114 1_656
Ba3 Na6 4.226299 1_555
Ba3 Na5 4.226299 1_545
Ba3 Na4 4.226300 1_545
Ba3 Na15 4.226309 1_555
Ba4 Ir0 3.089114 1_565
Ba4 Na5 4.226299 1_555
Ba4 Na6 4.226299 1_565
Ba4 Na15 4.226300 1_565
Ba4 Na4 4.226309 1_555
Ba5 Ir0 3.089114 1_665
Ba5 Na12 4.226299 1_555
Ba5 Na7 4.226299 1_554
Ba5 Na8 4.226300 1_554
Ba5 Na14 4.226309 1_555
Na0 Na14 3.598668 1_555
Na0 Na8 3.598668 1_555
Na0 Na11 3.598668 1_555
Na0 Na9 3.598668 1_555
Na0 Na15 3.598668 1_555
Na0 Na4 3.598668 1_555
Na1 Na5 3.598678 1_445
Na1 Na6 3.598678 1_555
Na1 Na13 3.598678 1_545
Na1 Na10 3.598678 1_455
Na1 Na8 3.598679 1_555
Na1 Na14 3.598679 1_445
Na2 Na5 3.598678 1_545
Na2 Na6 3.598678 1_554
Na2 Na7 3.598678 1_554
Na2 Na9 3.598680 1_555
Na3 Na7 3.598678 1_454
Na3 Na4 3.598679 1_555
Na4 Na5 3.866475 1_555
Na4 Na6 3.866476 1_565
Na5 Na9 3.668145 1_565
Na6 Na7 3.668143 1_555
Na6 Na8 3.668145 1_555
Na7 Na9 3.668145 1_556
Na7 Na8 3.866475 1_555
Na10 Na3 3.598678 1_656
Na10 Na12 3.668143 1_656
Na10 Na5 3.668143 1_545
Na10 Na15 3.668145 1_555
Na10 Na8 3.668145 1_655
Na10 Na9 3.866475 1_555
Na10 Na11 3.866475 1_655
Na11 Na2 3.598680 1_566
Na11 Na4 3.668134 1_555
Na11 Na8 3.668135 1_555
Na11 Na12 3.668145 1_556
Na11 Na6 3.668145 1_565
Na11 Na13 3.866475 1_555
Na12 Na3 3.598678 1_555
Na12 Na2 3.598678 1_565
Na12 Na5 3.668143 1_555
Na12 Na4 3.668145 1_555
Na12 Na14 3.866475 1_555
Na12 Na8 3.866476 1_554
Na13 Na3 3.598678 1_555
Na13 Na7 3.668143 1_454
Na13 Na6 3.668143 1_565
Na13 Na4 3.668145 1_555
Na13 Na14 3.668145 1_455
Na13 Na9 3.866475 1_455
Na14 Na4 3.668134 1_555
Na14 Na9 3.668135 1_555
Na14 Na5 3.668145 1_555
Na14 Na7 3.866476 1_554
Na15 Na3 3.598679 1_656
Na15 Na8 3.668134 1_555
Na15 Na9 3.668134 1_555
Na15 Na7 3.668145 1_555
Na15 Na6 3.866475 1_555
Na15 Na5 3.866476 1_545
