# generated using pymatgen
data_HfZr2SnC2
_symmetry_space_group_name_H-M   'P 1'
_cell_length_a   3.34883497
_cell_length_b   3.34883497
_cell_length_c   19.95383033
_cell_angle_alpha   90.00000000
_cell_angle_beta   90.00000000
_cell_angle_gamma   120.00035795
_symmetry_Int_Tables_number   1
_chemical_formula_structural   HfZr2SnC2
_chemical_formula_sum   'Hf2 Zr4 Sn2 C4'
_cell_volume   193.79511809
_cell_formula_units_Z   2
loop_
 _symmetry_equiv_pos_site_id
 _symmetry_equiv_pos_as_xyz
  1  'x, y, z'
loop_
 _atom_site_type_symbol
 _atom_site_label
 _atom_site_symmetry_multiplicity
 _atom_site_fract_x
 _atom_site_fract_y
 _atom_site_fract_z
 _atom_site_occupancy
  Hf  Hf0  1  0.00000000  0.00000000  0.00000000  1
  Hf  Hf1  1  0.00000000  0.00000000  0.50000000  1
  Zr  Zr0  1  0.33331080  0.66668920  0.12774198  1
  Zr  Zr1  1  0.33331080  0.66668920  0.37225802  1
  Zr  Zr2  1  0.66668920  0.33331080  0.62774198  1
  Zr  Zr3  1  0.66668920  0.33331080  0.87225802  1
  Sn  Sn0  1  0.00001179  0.99998821  0.25000000  1
  Sn  Sn1  1  0.99998821  0.00001179  0.75000000  1
  C  C0  1  0.33334004  0.66665996  0.93224417  1
  C  C1  1  0.66665996  0.33334004  0.06775583  1
  C  C2  1  0.66665996  0.33334004  0.43224417  1
  C  C3  1  0.33334004  0.66665996  0.56775583  1
loop_
_geom_bond_atom_site_label_1
_geom_bond_atom_site_label_2
_geom_bond_distance
_geom_bond_site_symmetry_2
Sn0 Zr1 3.112670 1_555
Sn0 Zr0 3.112670 1_555
Sn0 Zr1 3.112849 1_455
Sn0 Zr0 3.112849 1_455
Sn0 Zr1 3.112849 1_565
Sn0 Zr0 3.112849 1_565
Sn1 Zr3 3.112670 1_555
Sn1 Zr2 3.112670 1_555
Sn1 Zr3 3.112849 1_655
Sn1 Zr2 3.112849 1_655
Sn1 Zr3 3.112849 1_545
Sn1 Zr2 3.112849 1_545
C0 Zr3 2.273923 1_455
C0 Zr3 2.273923 1_565
C0 Zr3 2.274049 1_555
C0 Hf0 2.359238 1_666
C0 Hf0 2.359238 1_556
C0 Hf0 2.359294 1_566
C1 Zr0 2.273923 1_655
C1 Zr0 2.273923 1_545
C1 Zr0 2.274049 1_555
C1 Hf0 2.359238 1_555
C1 Hf0 2.359238 1_665
C1 Hf0 2.359294 1_655
C2 Zr1 2.273923 1_655
C2 Zr1 2.273923 1_545
C2 Zr1 2.274049 1_555
C2 Hf1 2.359238 1_555
C2 Hf1 2.359238 1_665
C2 Hf1 2.359294 1_655
C3 Zr2 2.273923 1_455
C3 Zr2 2.273923 1_565
C3 Zr2 2.274049 1_555
C3 Hf1 2.359238 1_665
C3 Hf1 2.359238 1_555
C3 Hf1 2.359294 1_565
