# generated using pymatgen
data_Zr6ZnAsC2
_symmetry_space_group_name_H-M   'P 1'
_cell_length_a   5.93478669
_cell_length_b   5.93478572
_cell_length_c   8.89980773
_cell_angle_alpha   90.00000000
_cell_angle_beta   90.00000000
_cell_angle_gamma   145.93674071
_symmetry_Int_Tables_number   1
_chemical_formula_structural   Zr6ZnAsC2
_chemical_formula_sum   'Zr6 Zn1 As1 C2'
_cell_volume   175.57491659
_cell_formula_units_Z   1
loop_
 _symmetry_equiv_pos_site_id
 _symmetry_equiv_pos_as_xyz
  1  'x, y, z'
loop_
 _atom_site_type_symbol
 _atom_site_label
 _atom_site_symmetry_multiplicity
 _atom_site_fract_x
 _atom_site_fract_y
 _atom_site_fract_z
 _atom_site_occupancy
  Zr  Zr0  1  0.62940976  0.37059024  0.94603560  1
  Zr  Zr1  1  0.37115336  0.62884664  0.45184092  1
  Zr  Zr2  1  0.37115336  0.62884664  0.04815908  1
  Zr  Zr3  1  0.62940976  0.37059024  0.55396440  1
  Zr  Zr4  1  0.93974937  0.06025063  0.75000000  1
  Zr  Zr5  1  0.05345184  0.94654816  0.25000000  1
  Zn  Zn0  1  0.75152150  0.24847850  0.25000000  1
  As  As0  1  0.25276204  0.74723796  0.75000000  1
  C  C0  1  0.00069501  0.99930499  0.99755309  1
  C  C1  1  0.00069501  0.99930499  0.50244691  1
loop_
_geom_bond_atom_site_label_1
_geom_bond_atom_site_label_2
_geom_bond_distance
_geom_bond_site_symmetry_2
Zn0 Zr5 2.841602 1_655
Zn0 Zr5 2.841603 1_545
Zn0 Zr1 2.844624 1_545
Zn0 Zr2 2.844624 1_545
Zn0 Zr1 2.844625 1_655
Zn0 Zr2 2.844625 1_655
Zn0 Zr3 3.039542 1_555
Zn0 Zr0 3.039542 1_554
As0 Zr4 2.743186 1_455
As0 Zr4 2.743187 1_565
As0 Zr0 2.832909 1_565
As0 Zr3 2.832909 1_565
As0 Zr0 2.832909 1_455
As0 Zr3 2.832909 1_455
As0 Zr2 2.974340 1_556
As0 Zr1 2.974340 1_555
C0 Zr4 2.309197 1_465
C0 Zr0 2.316416 1_455
C0 Zr0 2.316417 1_565
C0 Zr2 2.320758 1_566
C0 Zr2 2.320759 1_456
C0 Zr5 2.325140 1_556
C1 Zr4 2.309197 1_465
C1 Zr3 2.316416 1_455
C1 Zr3 2.316417 1_565
C1 Zr1 2.320758 1_565
C1 Zr1 2.320759 1_455
C1 Zr5 2.325140 1_555
