# generated using pymatgen
data_Be3V2Ge
_symmetry_space_group_name_H-M   'P 1'
_cell_length_a   4.43778198
_cell_length_b   4.43778227
_cell_length_c   7.39583236
_cell_angle_alpha   90.00000000
_cell_angle_beta   90.00000000
_cell_angle_gamma   120.00000526
_symmetry_Int_Tables_number   1
_chemical_formula_structural   Be3V2Ge
_chemical_formula_sum   'Be6 V4 Ge2'
_cell_volume   126.13906861
_cell_formula_units_Z   2
loop_
 _symmetry_equiv_pos_site_id
 _symmetry_equiv_pos_as_xyz
  1  'x, y, z'
loop_
 _atom_site_type_symbol
 _atom_site_label
 _atom_site_symmetry_multiplicity
 _atom_site_fract_x
 _atom_site_fract_y
 _atom_site_fract_z
 _atom_site_occupancy
  Be  Be0  1  0.82269894  0.64539689  0.25000000  1
  Be  Be1  1  0.17730106  0.82269894  0.75000000  1
  Be  Be2  1  0.64539689  0.82269894  0.75000000  1
  Be  Be3  1  0.35460311  0.17730106  0.25000000  1
  Be  Be4  1  0.82269894  0.17730106  0.25000000  1
  Be  Be5  1  0.17730106  0.35460311  0.75000000  1
  V  V0  1  0.33333300  0.66666700  0.06545431  1
  V  V1  1  0.66666700  0.33333300  0.56545431  1
  V  V2  1  0.66666700  0.33333300  0.93454569  1
  V  V3  1  0.33333300  0.66666700  0.43454569  1
  Ge  Ge0  1  0.00000000  0.00000000  0.00000000  1
  Ge  Ge1  1  0.00000000  0.00000000  0.50000000  1
loop_
_geom_bond_atom_site_label_1
_geom_bond_atom_site_label_2
_geom_bond_distance
_geom_bond_site_symmetry_2
Be0 Be3 2.077307 1_555
Be0 Be4 2.077307 1_555
Be0 Ge0 2.296939 1_665
Be0 Ge1 2.296939 1_665
Be0 Be3 2.360475 1_665
Be0 Be4 2.360475 1_565
Be0 V3 2.606340 1_655
Be0 V0 2.606340 1_655
Be0 V3 2.606347 1_555
Be0 V0 2.606347 1_555
Be0 V1 2.623263 1_555
Be0 V2 2.623263 1_554
Be1 Be2 2.077307 1_555
Be1 Be5 2.077307 1_555
Be1 Ge1 2.296937 1_565
Be1 Ge0 2.296937 1_566
Be1 Be2 2.360475 1_455
Be1 Be5 2.360475 1_565
Be1 V2 2.606343 1_455
Be1 V1 2.606343 1_455
Be1 V2 2.606343 1_565
Be1 V1 2.606343 1_565
Be1 V0 2.623263 1_556
Be1 V3 2.623263 1_555
Be2 Be5 2.077307 1_555
Be2 Ge0 2.296939 1_666
Be2 Ge1 2.296939 1_665
Be2 Be5 2.360475 1_665
Be2 V2 2.606340 1_565
Be2 V1 2.606340 1_565
Be2 V2 2.606347 1_555
Be2 V1 2.606347 1_555
Be2 V0 2.623263 1_556
Be2 V3 2.623263 1_555
Be3 Be4 2.077307 1_555
Be3 Ge0 2.296939 1_555
Be3 Ge1 2.296939 1_555
Be3 Be4 2.360475 1_455
Be3 V3 2.606340 1_545
Be3 V0 2.606340 1_545
Be3 V3 2.606347 1_555
Be3 V0 2.606347 1_555
Be3 V1 2.623263 1_555
Be3 V2 2.623263 1_554
Be4 Ge0 2.296937 1_655
Be4 Ge1 2.296937 1_655
Be4 V3 2.606343 1_655
Be4 V0 2.606343 1_655
Be4 V3 2.606343 1_545
Be4 V0 2.606343 1_545
Be4 V1 2.623263 1_555
Be4 V2 2.623263 1_554
Be5 Ge0 2.296939 1_556
Be5 Ge1 2.296939 1_555
Be5 V2 2.606340 1_455
Be5 V1 2.606340 1_455
Be5 V2 2.606347 1_555
Be5 V1 2.606347 1_555
Be5 V0 2.623263 1_556
Be5 V3 2.623263 1_555
V0 V3 2.729738 1_555
V0 V2 2.738976 1_454
V0 V2 2.738977 1_564
V0 V2 2.738984 1_554
V1 V2 2.729738 1_555
V1 V3 2.738976 1_655
V1 V3 2.738977 1_545
V1 V3 2.738984 1_555
Ge0 V0 2.607483 1_545
Ge0 V2 2.607483 1_454
Ge0 V2 2.607486 1_554
Ge0 V0 2.607486 1_445
Ge0 V0 2.607486 1_555
Ge0 V2 2.607486 1_444
Ge1 V1 2.607483 1_455
Ge1 V3 2.607483 1_545
Ge1 V1 2.607486 1_555
Ge1 V3 2.607486 1_445
Ge1 V3 2.607486 1_555
Ge1 V1 2.607486 1_445
