# generated using pymatgen
data_Al2HgSe4
_symmetry_space_group_name_H-M   'P 1'
_cell_length_a   5.81371898
_cell_length_b   5.81371942
_cell_length_c   6.80293156
_cell_angle_alpha   115.29601585
_cell_angle_beta   115.29602807
_cell_angle_gamma   90.00001691
_symmetry_Int_Tables_number   1
_chemical_formula_structural   Al2HgSe4
_chemical_formula_sum   'Al2 Hg1 Se4'
_cell_volume   183.20425657
_cell_formula_units_Z   1
loop_
 _symmetry_equiv_pos_site_id
 _symmetry_equiv_pos_as_xyz
  1  'x, y, z'
loop_
 _atom_site_type_symbol
 _atom_site_label
 _atom_site_symmetry_multiplicity
 _atom_site_fract_x
 _atom_site_fract_y
 _atom_site_fract_z
 _atom_site_occupancy
  Al  Al0  1  0.25000000  0.75000000  0.50000000  1
  Al  Al1  1  0.50000000  0.50000000  -0.00000000  1
  Hg  Hg0  1  0.00000000  -0.00000000  -0.00000000  1
  Se  Se0  1  0.13281522  0.13441526  0.72504059  1
  Se  Se1  1  0.59222537  0.59062633  0.72504059  1
  Se  Se2  1  0.86558474  0.40777463  0.27495941  1
  Se  Se3  1  0.40937367  0.86718478  0.27495941  1
loop_
_geom_bond_atom_site_label_1
_geom_bond_atom_site_label_2
_geom_bond_distance
_geom_bond_site_symmetry_2
Al0 Se3 2.402077 1_555
Al0 Se1 2.402077 1_555
Al0 Se2 2.402080 1_455
Al0 Se0 2.402081 1_565
Al1 Se0 2.400680 1_554
Al1 Se2 2.400681 1_555
Al1 Se1 2.400684 1_554
Al1 Se3 2.400684 1_555
Hg0 Se1 2.681275 1_444
Hg0 Se3 2.681276 1_545
Hg0 Se0 2.681279 1_554
Hg0 Se2 2.681280 1_455
