# generated using pymatgen
data_Lu10HgBiRh4
_symmetry_space_group_name_H-M   'P 1'
_cell_length_a   8.54534469
_cell_length_b   8.54534350
_cell_length_c   8.54534482
_cell_angle_alpha   127.88228844
_cell_angle_beta   127.88229837
_cell_angle_gamma   76.81578611
_symmetry_Int_Tables_number   1
_chemical_formula_structural   Lu10HgBiRh4
_chemical_formula_sum   'Lu10 Hg1 Bi1 Rh4'
_cell_volume   377.44902922
_cell_formula_units_Z   1
loop_
 _symmetry_equiv_pos_site_id
 _symmetry_equiv_pos_as_xyz
  1  'x, y, z'
loop_
 _atom_site_type_symbol
 _atom_site_label
 _atom_site_symmetry_multiplicity
 _atom_site_fract_x
 _atom_site_fract_y
 _atom_site_fract_z
 _atom_site_occupancy
  Lu  Lu0  1  0.99723054  0.99723054  0.00000000  1
  Lu  Lu1  1  0.50276946  0.50276946  1.00000000  1
  Lu  Lu2  1  0.79664351  0.28652082  0.81558949  1
  Lu  Lu3  1  0.21347918  0.70335649  0.18441051  1
  Lu  Lu4  1  0.47093233  0.98105402  0.18441051  1
  Lu  Lu5  1  0.28652082  0.47093233  0.48987831  1
  Lu  Lu6  1  0.02906767  0.21347918  0.51012169  1
  Lu  Lu7  1  0.51894598  0.02906767  0.81558949  1
  Lu  Lu8  1  0.70335649  0.51894598  0.48987831  1
  Lu  Lu9  1  0.98105402  0.79664351  0.51012169  1
  Hg  Hg0  1  0.25000000  0.25000000  0.00000000  1
  Bi  Bi0  1  0.75000000  0.75000000  0.00000000  1
  Rh  Rh0  1  0.14095560  0.64095560  0.78191220  1
  Rh  Rh1  1  0.85904440  0.35904440  0.21808780  1
  Rh  Rh2  1  0.64095560  0.85904440  0.50000000  1
  Rh  Rh3  1  0.35904440  0.14095560  0.50000000  1
loop_
_geom_bond_atom_site_label_1
_geom_bond_atom_site_label_2
_geom_bond_distance
_geom_bond_site_symmetry_2
Lu0 Rh0 2.896173 1_654
Lu0 Rh1 2.896173 1_565
Lu0 Rh3 2.896175 1_665
Lu0 Rh2 2.896175 1_554
Lu1 Rh1 2.896173 1_556
Lu1 Rh0 2.896173 1_555
Lu1 Rh3 2.896176 1_555
Lu1 Rh2 2.896176 1_556
Lu2 Rh1 2.789103 1_556
Lu2 Rh2 2.845916 1_545
Lu2 Rh3 2.901888 1_555
Lu3 Rh0 2.789103 1_554
Lu3 Rh2 2.845916 1_555
Lu3 Rh3 2.901888 1_565
Lu4 Rh0 2.789115 1_554
Lu4 Rh3 2.845924 1_565
Lu4 Rh2 2.901889 1_555
Lu5 Rh3 2.789115 1_555
Lu5 Rh1 2.845914 1_455
Lu5 Rh0 2.901889 1_555
Lu6 Rh3 2.789115 1_555
Lu6 Rh0 2.845914 1_555
Lu6 Rh1 2.901889 1_455
Lu7 Rh1 2.789115 1_556
Lu7 Rh3 2.845923 1_555
Lu7 Rh2 2.901889 1_545
Lu8 Rh2 2.789115 1_555
Lu8 Rh1 2.845931 1_555
Lu8 Rh0 2.901888 1_655
Lu9 Rh2 2.789115 1_555
Lu9 Rh0 2.845930 1_655
Lu9 Rh1 2.901888 1_555
Hg0 Lu3 3.185008 1_555
Hg0 Lu2 3.185008 1_454
Hg0 Lu4 3.185009 1_545
Hg0 Lu8 3.185009 1_555
Hg0 Lu9 3.185009 1_444
Hg0 Lu7 3.185009 1_554
Hg0 Lu6 3.185014 1_554
Hg0 Lu5 3.185014 1_555
Hg0 Lu1 3.385189 1_554
Hg0 Lu0 3.385189 1_445
Bi0 Lu7 3.273349 1_564
Bi0 Lu9 3.273350 1_555
Bi0 Lu4 3.273350 1_555
Bi0 Lu8 3.273350 1_554
Bi0 Lu5 3.273354 1_554
Bi0 Lu6 3.273354 1_665
Bi0 Lu2 3.273357 1_554
Bi0 Lu3 3.273357 1_655
Bi0 Lu0 3.311010 1_555
Bi0 Lu1 3.311010 1_554
