# generated using pymatgen
data_K2Ca(Zr2Se5)2
_symmetry_space_group_name_H-M   'P 1'
_cell_length_a   6.75285160
_cell_length_b   11.40263219
_cell_length_c   9.03118061
_cell_angle_alpha   59.79106324
_cell_angle_beta   68.47926269
_cell_angle_gamma   90.32721378
_symmetry_Int_Tables_number   1
_chemical_formula_structural   K2Ca(Zr2Se5)2
_chemical_formula_sum   'K2 Ca1 Zr4 Se10'
_cell_volume   543.18284578
_cell_formula_units_Z   1
loop_
 _symmetry_equiv_pos_site_id
 _symmetry_equiv_pos_as_xyz
  1  'x, y, z'
loop_
 _atom_site_type_symbol
 _atom_site_label
 _atom_site_symmetry_multiplicity
 _atom_site_fract_x
 _atom_site_fract_y
 _atom_site_fract_z
 _atom_site_occupancy
  K  K0  1  0.78251053  0.07254121  0.42923819  1
  K  K1  1  0.00449845  0.52736570  0.98142516  1
  Ca  Ca0  1  0.79733663  0.60151829  0.40735134  1
  Zr  Zr0  1  0.40000000  0.79678298  0.19893323  1
  Zr  Zr1  1  0.20384529  0.40147657  0.59131565  1
  Zr  Zr2  1  0.60210723  0.20484841  0.80270931  1
  Zr  Zr3  1  0.99970354  0.99536431  0.99958712  1
  Se  Se0  1  0.01411116  0.85604011  0.33361821  1
  Se  Se1  1  0.59664842  0.03271396  0.15215963  1
  Se  Se2  1  0.19495507  0.23885613  0.94755335  1
  Se  Se3  1  0.79431294  0.41841755  0.77643947  1
  Se  Se4  1  0.36093421  0.63713453  0.55257385  1
  Se  Se5  1  0.40422594  0.96418475  0.85059330  1
  Se  Se6  1  0.00362590  0.16575525  0.64694101  1
  Se  Se7  1  0.59759935  0.34553935  0.46114611  1
  Se  Se8  1  0.23451544  0.56221038  0.24129231  1
  Se  Se9  1  0.80907192  0.77925052  0.02712277  1
loop_
_geom_bond_atom_site_label_1
_geom_bond_atom_site_label_2
_geom_bond_distance
_geom_bond_site_symmetry_2
K0 Se0 3.237999 1_645
K0 Se5 3.260884 1_545
K0 Se6 3.385784 1_655
K0 Se1 3.388889 1_555
K0 Se7 3.466332 1_555
K0 Se2 3.609198 1_654
K1 Se4 3.257036 1_555
K1 Se9 3.316274 1_456
K1 Se3 3.347689 1_455
K1 Se8 3.418234 1_556
K1 Se7 3.574984 1_456
K1 Se2 3.652759 1_555
Ca0 Se4 2.878126 1_555
Ca0 Se0 2.881089 1_655
Ca0 Se3 2.901147 1_555
Ca0 Se8 2.934069 1_655
Ca0 Se7 2.936347 1_555
Ca0 Se9 2.949676 1_555
Se0 Zr3 2.651059 1_454
Se0 Zr0 2.692252 1_555
Se1 Zr3 2.709295 1_544
Se1 Zr2 2.737551 1_554
Se1 Zr0 2.753775 1_545
Se2 Zr2 2.702749 1_555
Se2 Zr1 2.765204 1_555
Se2 Zr3 2.803318 1_445
Se3 Zr2 2.613033 1_555
Se3 Zr1 2.723864 1_655
Se4 Zr0 2.666358 1_555
Se4 Zr1 2.686513 1_555
Se5 Zr3 2.682314 1_455
Se5 Zr0 2.726143 1_556
Se5 Zr2 2.800567 1_565
Se6 Zr2 2.715835 1_455
Se6 Zr1 2.721450 1_555
Se6 Zr3 2.762118 1_445
Se7 Zr2 2.679478 1_555
Se7 Zr1 2.709149 1_555
Se8 Zr1 2.660791 1_555
Se8 Zr0 2.678045 1_555
Se9 Zr3 2.627513 1_554
Se9 Zr0 2.692986 1_555
