# generated using pymatgen
data_SrMn3HgO8
_symmetry_space_group_name_H-M   'P 1'
_cell_length_a   6.40873729
_cell_length_b   6.40873811
_cell_length_c   4.97921761
_cell_angle_alpha   73.73860082
_cell_angle_beta   73.73859704
_cell_angle_gamma   54.22317460
_symmetry_Int_Tables_number   1
_chemical_formula_structural   SrMn3HgO8
_chemical_formula_sum   'Sr1 Mn3 Hg1 O8'
_cell_volume   157.49205846
_cell_formula_units_Z   1
loop_
 _symmetry_equiv_pos_site_id
 _symmetry_equiv_pos_as_xyz
  1  'x, y, z'
loop_
 _atom_site_type_symbol
 _atom_site_label
 _atom_site_symmetry_multiplicity
 _atom_site_fract_x
 _atom_site_fract_y
 _atom_site_fract_z
 _atom_site_occupancy
  Sr  Sr0  1  0.27411050  0.27411050  0.66920387  1
  Mn  Mn0  1  0.99976796  0.99976796  0.49689362  1
  Mn  Mn1  1  0.74281316  0.25860600  0.00114268  1
  Mn  Mn2  1  0.25860600  0.74281316  0.00114268  1
  Hg  Hg0  1  0.72216323  0.72216323  0.33528332  1
  O  O0  1  0.40324748  0.40324748  0.96375015  1
  O  O1  1  0.60130303  0.60130303  0.04563447  1
  O  O2  1  0.90872521  0.90872521  0.89591125  1
  O  O3  1  0.09292386  0.09292386  0.10455278  1
  O  O4  1  0.31961077  0.86767930  0.61321910  1
  O  O5  1  0.86767930  0.31961077  0.61321910  1
  O  O6  1  0.12236802  0.68667947  0.38002299  1
  O  O7  1  0.68667947  0.12236802  0.38002299  1
loop_
_geom_bond_atom_site_label_1
_geom_bond_atom_site_label_2
_geom_bond_distance
_geom_bond_site_symmetry_2
Mn0 O7 1.880561 1_565
Mn0 O6 1.880562 1_655
Mn0 O4 1.901354 1_655
Mn0 O5 1.901354 1_565
Mn0 O3 1.907778 1_665
Mn0 O2 1.930765 1_555
Mn1 O0 1.844258 1_554
Mn1 O7 1.874951 1_555
Mn1 O1 1.877801 1_555
Mn1 O5 1.897729 1_554
Mn1 O3 1.995541 1_655
Mn1 O2 1.997806 1_544
Mn2 O0 1.844258 1_554
Mn2 O6 1.874950 1_555
Mn2 O1 1.877801 1_555
Mn2 O4 1.897729 1_554
Mn2 O3 1.995541 1_565
Mn2 O2 1.997806 1_454
Hg0 O1 2.287493 1_555
Hg0 O4 2.313155 1_555
Hg0 O5 2.313156 1_555
Hg0 O6 2.507831 1_655
Hg0 O7 2.507831 1_565
Hg0 O2 2.527229 1_554
O0 Sr0 2.383525 1_555
O3 Sr0 2.480483 1_554
O4 Sr0 2.533828 1_565
O5 Sr0 2.533828 1_655
O6 Sr0 2.378140 1_555
O7 Sr0 2.378140 1_555
