# generated using pymatgen
data_Y(NbS2)5
_symmetry_space_group_name_H-M   'P 1'
_cell_length_a   5.86892422
_cell_length_b   7.78612608
_cell_length_c   8.52862498
_cell_angle_alpha   113.74270441
_cell_angle_beta   96.79081379
_cell_angle_gamma   104.33756026
_symmetry_Int_Tables_number   1
_chemical_formula_structural   Y(NbS2)5
_chemical_formula_sum   'Y1 Nb5 S10'
_cell_volume   335.02924464
_cell_formula_units_Z   1
loop_
 _symmetry_equiv_pos_site_id
 _symmetry_equiv_pos_as_xyz
  1  'x, y, z'
loop_
 _atom_site_type_symbol
 _atom_site_label
 _atom_site_symmetry_multiplicity
 _atom_site_fract_x
 _atom_site_fract_y
 _atom_site_fract_z
 _atom_site_occupancy
  Y  Y0  1  0.66796517  0.50717278  0.99429693  1
  Nb  Nb0  1  0.00388752  0.99849438  0.00074970  1
  Nb  Nb1  1  0.59827714  0.20223333  0.20296516  1
  Nb  Nb2  1  0.19789340  0.39926831  0.39853785  1
  Nb  Nb3  1  0.79748077  0.59981018  0.60120419  1
  Nb  Nb4  1  0.39970609  0.79720040  0.79902201  1
  S  S0  1  0.23696857  0.06349860  0.29144755  1
  S  S1  1  0.04495068  0.65787184  0.89320275  1
  S  S2  1  0.83670568  0.26286278  0.48987367  1
  S  S3  1  0.63719515  0.86757062  0.09881873  1
  S  S4  1  0.42806139  0.45084801  0.68531817  1
  S  S5  1  0.89826242  0.54383901  0.31060634  1
  S  S6  1  0.69830540  0.13569968  0.90745696  1
  S  S7  1  0.49583873  0.73668416  0.51091679  1
  S  S8  1  0.29399830  0.33994424  0.10642988  1
  S  S9  1  0.09730558  0.93460067  0.71075232  1
loop_
_geom_bond_atom_site_label_1
_geom_bond_atom_site_label_2
_geom_bond_distance
_geom_bond_site_symmetry_2
Nb0 S0 2.473601 1_565
Nb0 S9 2.475915 1_554
Nb0 S8 2.498997 1_565
Nb0 S6 2.507321 1_464
Nb0 S1 2.518556 1_554
Nb0 S3 2.529017 1_455
Nb1 S2 2.470091 1_555
Nb1 S3 2.471824 1_545
Nb1 S0 2.476531 1_555
Nb1 S8 2.515567 1_555
Nb1 S5 2.519760 1_555
Nb1 S6 2.532583 1_554
Nb2 S4 2.475315 1_555
Nb2 S0 2.478965 1_555
Nb2 S2 2.483939 1_455
Nb2 S7 2.485774 1_555
Nb2 S5 2.504017 1_455
Nb2 S8 2.504528 1_555
Nb3 S7 2.477005 1_555
Nb3 S9 2.478417 1_655
Nb3 S2 2.486416 1_555
Nb3 S5 2.507355 1_555
Nb3 S4 2.520495 1_555
Nb3 S1 2.535444 1_655
Nb4 S7 2.470846 1_555
Nb4 S9 2.476683 1_555
Nb4 S1 2.476981 1_555
Nb4 S6 2.497837 1_565
Nb4 S4 2.528849 1_555
Nb4 S3 2.535995 1_556
S1 Y0 2.644872 1_455
S3 Y0 2.641251 1_554
S4 Y0 2.646689 1_555
S5 Y0 2.740849 1_554
S6 Y0 2.739914 1_555
S8 Y0 2.740580 1_554
