# generated using pymatgen
data_KBiAsRh2
_symmetry_space_group_name_H-M   'P 1'
_cell_length_a   7.73845943
_cell_length_b   7.73845929
_cell_length_c   7.73845940
_cell_angle_alpha   149.24822089
_cell_angle_beta   149.24822043
_cell_angle_gamma   44.04606662
_symmetry_Int_Tables_number   1
_chemical_formula_structural   KBiAsRh2
_chemical_formula_sum   'K1 Bi1 As1 Rh2'
_cell_volume   120.81013224
_cell_formula_units_Z   1
loop_
 _symmetry_equiv_pos_site_id
 _symmetry_equiv_pos_as_xyz
  1  'x, y, z'
loop_
 _atom_site_type_symbol
 _atom_site_label
 _atom_site_symmetry_multiplicity
 _atom_site_fract_x
 _atom_site_fract_y
 _atom_site_fract_z
 _atom_site_occupancy
  K  K0  1  0.97856420  0.97856420  0.00000000  1
  Bi  Bi0  1  0.64259893  0.64259893  0.00000000  1
  As  As0  1  0.35119719  0.35119719  1.00000000  1
  Rh  Rh0  1  0.76381984  0.26381984  0.50000000  1
  Rh  Rh1  1  0.26381984  0.76381984  0.50000000  1
loop_
_geom_bond_atom_site_label_1
_geom_bond_atom_site_label_2
_geom_bond_distance
_geom_bond_site_symmetry_2
Bi0 Rh0 2.689802 1_565
Bi0 Rh1 2.689802 1_655
Bi0 Rh1 2.689802 1_554
Bi0 Rh0 2.689802 1_554
Bi0 K0 3.736204 1_444
Bi0 K0 3.736204 1_545
Bi0 K0 3.736204 1_556
Bi0 K0 3.736204 1_455
As0 Rh1 2.404530 1_545
As0 Rh0 2.404530 1_455
As0 Rh1 2.404530 1_556
As0 Rh0 2.404530 1_556
As0 K0 3.429236 1_557
As0 K0 3.429236 1_445
As0 K0 3.429236 1_456
As0 K0 3.429236 1_546
