# generated using pymatgen
data_Sr5Si2SbH
_symmetry_space_group_name_H-M   'P 1'
_cell_length_a   9.69529010
_cell_length_b   9.69529007
_cell_length_c   9.69528829
_cell_angle_alpha   129.50079827
_cell_angle_beta   129.50079663
_cell_angle_gamma   74.20609404
_symmetry_Int_Tables_number   1
_chemical_formula_structural   Sr5Si2SbH
_chemical_formula_sum   'Sr10 Si4 Sb2 H2'
_cell_volume   529.01318476
_cell_formula_units_Z   2
loop_
 _symmetry_equiv_pos_site_id
 _symmetry_equiv_pos_as_xyz
  1  'x, y, z'
loop_
 _atom_site_type_symbol
 _atom_site_label
 _atom_site_symmetry_multiplicity
 _atom_site_fract_x
 _atom_site_fract_y
 _atom_site_fract_z
 _atom_site_occupancy
  Sr  Sr0  1  0.50000000  0.50000000  0.00000000  1
  Sr  Sr1  1  0.00000000  0.00000000  0.00000000  1
  Sr  Sr2  1  0.52304714  0.02304714  0.83045195  1
  Sr  Sr3  1  0.19259519  0.69259519  0.16954805  1
  Sr  Sr4  1  0.02304714  0.19259519  0.50000000  1
  Sr  Sr5  1  0.69259519  0.52304714  0.50000000  1
  Sr  Sr6  1  0.47695286  0.97695286  0.16954805  1
  Sr  Sr7  1  0.80740481  0.30740481  0.83045195  1
  Sr  Sr8  1  0.97695286  0.80740481  0.50000000  1
  Sr  Sr9  1  0.30740481  0.47695286  0.50000000  1
  Si  Si0  1  0.88997748  0.38997748  0.27995497  1
  Si  Si1  1  0.11002252  0.61002252  0.72004503  1
  Si  Si2  1  0.38997748  0.11002252  0.50000000  1
  Si  Si3  1  0.61002252  0.88997748  0.50000000  1
  Sb  Sb0  1  0.25000000  0.25000000  0.00000000  1
  Sb  Sb1  1  0.75000000  0.75000000  0.00000000  1
  H  H0  1  0.25000000  0.75000000  0.50000000  1
  H  H1  1  0.75000000  0.25000000  0.50000000  1
loop_
_geom_bond_atom_site_label_1
_geom_bond_atom_site_label_2
_geom_bond_distance
_geom_bond_site_symmetry_2
Si0 Si1 2.573949 1_655
Si0 Sr5 3.197869 1_555
Si0 Sr4 3.197869 1_655
Si0 Sr8 3.197870 1_555
Si0 Sr9 3.197870 1_655
Si0 Sr1 3.351531 1_655
Si0 Sr0 3.351532 1_555
Si0 Sr7 3.427295 1_554
Si0 Sr2 3.427295 1_554
Si1 Sr9 3.197869 1_555
Si1 Sr8 3.197869 1_455
Si1 Sr4 3.197870 1_555
Si1 Sr5 3.197870 1_455
Si1 Sr1 3.351531 1_566
Si1 Sr0 3.351532 1_556
Si1 Sr3 3.427295 1_556
Si1 Sr6 3.427295 1_556
Si2 Si3 2.573949 1_545
Si2 Sr6 3.197869 1_545
Si2 Sr2 3.197869 1_555
Si2 Sr3 3.197870 1_545
Si2 Sr7 3.197870 1_555
Si2 Sr0 3.351531 1_556
Si2 Sr1 3.351531 1_555
Si2 Sr9 3.427295 1_555
Si2 Sr4 3.427295 1_555
Si3 Sr2 3.197869 1_565
Si3 Sr6 3.197869 1_555
Si3 Sr7 3.197870 1_565
Si3 Sr3 3.197870 1_555
Si3 Sr0 3.351531 1_555
Si3 Sr1 3.351531 1_666
Si3 Sr5 3.427295 1_555
Si3 Sr8 3.427295 1_555
Sb0 Sr9 3.509347 1_555
Sb0 Sr4 3.509347 1_554
Sb0 Sr8 3.509348 1_444
Sb0 Sr2 3.509348 1_554
Sb0 Sr5 3.509348 1_555
Sb0 Sr6 3.509348 1_545
Sb0 Sr3 3.509348 1_555
Sb0 Sr7 3.509348 1_454
Sb0 Sr0 3.866248 1_555
Sb0 Sr1 3.866248 1_555
Sb1 Sr5 3.509347 1_554
Sb1 Sr8 3.509347 1_555
Sb1 Sr4 3.509348 1_665
Sb1 Sr6 3.509348 1_555
Sb1 Sr9 3.509348 1_554
Sb1 Sr2 3.509348 1_564
Sb1 Sr7 3.509348 1_554
Sb1 Sr3 3.509348 1_655
Sb1 Sr1 3.866248 1_665
Sb1 Sr0 3.866248 1_555
H0 Sr3 2.552600 1_555
H0 Sr2 2.552601 1_565
H0 Sr9 2.552601 1_555
H0 Sr8 2.552601 1_455
H1 Sr7 2.552600 1_555
H1 Sr6 2.552601 1_545
H1 Sr5 2.552601 1_555
H1 Sr4 2.552601 1_655
