# generated using pymatgen
data_Ti2HRh6
_symmetry_space_group_name_H-M   'P 1'
_cell_length_a   5.44537679
_cell_length_b   5.44537685
_cell_length_c   5.44537628
_cell_angle_alpha   59.99999756
_cell_angle_beta   59.99999718
_cell_angle_gamma   60.00000191
_symmetry_Int_Tables_number   1
_chemical_formula_structural   Ti2HRh6
_chemical_formula_sum   'Ti2 H1 Rh6'
_cell_volume   114.17440677
_cell_formula_units_Z   1
loop_
 _symmetry_equiv_pos_site_id
 _symmetry_equiv_pos_as_xyz
  1  'x, y, z'
loop_
 _atom_site_type_symbol
 _atom_site_label
 _atom_site_symmetry_multiplicity
 _atom_site_fract_x
 _atom_site_fract_y
 _atom_site_fract_z
 _atom_site_occupancy
  Ti  Ti0  1  0.75000000  0.75000000  0.75000000  1
  Ti  Ti1  1  0.25000000  0.25000000  0.25000000  1
  H  H0  1  0.50000000  0.50000000  0.50000000  1
  Rh  Rh0  1  0.75255632  0.75255632  0.24744368  1
  Rh  Rh1  1  0.75255632  0.24744368  0.24744368  1
  Rh  Rh2  1  0.24744368  0.75255632  0.24744368  1
  Rh  Rh3  1  0.24744368  0.24744368  0.75255632  1
  Rh  Rh4  1  0.75255632  0.24744368  0.75255632  1
  Rh  Rh5  1  0.24744368  0.75255632  0.75255632  1
loop_
_geom_bond_atom_site_label_1
_geom_bond_atom_site_label_2
_geom_bond_distance
_geom_bond_site_symmetry_2
H0 Rh0 1.944917 1_555
H0 Rh3 1.944917 1_555
H0 Rh5 1.944917 1_555
H0 Rh4 1.944917 1_555
H0 Rh2 1.944917 1_555
H0 Rh1 1.944917 1_555
Rh0 Ti0 2.722759 1_555
Rh0 Ti0 2.722759 1_554
Rh0 Ti1 2.722760 1_565
Rh0 Ti1 2.722760 1_655
Rh1 Ti0 2.722759 1_545
Rh1 Ti0 2.722759 1_554
Rh1 Ti1 2.722760 1_655
Rh1 Ti1 2.722760 1_555
Rh2 Ti0 2.722759 1_455
Rh2 Ti0 2.722759 1_554
Rh2 Ti1 2.722760 1_565
Rh2 Ti1 2.722760 1_555
Rh3 Ti1 2.722759 1_555
Rh3 Ti1 2.722759 1_556
Rh3 Ti0 2.722760 1_545
Rh3 Ti0 2.722760 1_455
Rh4 Ti1 2.722759 1_655
Rh4 Ti1 2.722759 1_556
Rh4 Ti0 2.722760 1_545
Rh4 Ti0 2.722760 1_555
Rh5 Ti1 2.722759 1_565
Rh5 Ti1 2.722759 1_556
Rh5 Ti0 2.722760 1_455
Rh5 Ti0 2.722760 1_555
