# generated using pymatgen
data_NaIn(PSe3)2
_symmetry_space_group_name_H-M   'P 1'
_cell_length_a   6.61141657
_cell_length_b   6.61141555
_cell_length_c   14.27528036
_cell_angle_alpha   90.00000000
_cell_angle_beta   90.00000000
_cell_angle_gamma   120.00000991
_symmetry_Int_Tables_number   1
_chemical_formula_structural   NaIn(PSe3)2
_chemical_formula_sum   'Na2 In2 P4 Se12'
_cell_volume   540.38615316
_cell_formula_units_Z   2
loop_
 _symmetry_equiv_pos_site_id
 _symmetry_equiv_pos_as_xyz
  1  'x, y, z'
loop_
 _atom_site_type_symbol
 _atom_site_label
 _atom_site_symmetry_multiplicity
 _atom_site_fract_x
 _atom_site_fract_y
 _atom_site_fract_z
 _atom_site_occupancy
  Na  Na0  1  0.66666700  0.33333300  0.25000000  1
  Na  Na1  1  0.33333300  0.66666700  0.75000000  1
  In  In0  1  0.00000000  0.00000000  0.25000000  1
  In  In1  1  0.00000000  0.00000000  0.75000000  1
  P  P0  1  0.66666700  0.33333300  0.67106442  1
  P  P1  1  0.66666700  0.33333300  0.82893558  1
  P  P2  1  0.33333300  0.66666700  0.32893558  1
  P  P3  1  0.33333300  0.66666700  0.17106442  1
  Se  Se0  1  0.96974720  0.30792667  0.87492250  1
  Se  Se1  1  0.33817947  0.30792667  0.62507750  1
  Se  Se2  1  0.96974720  0.66182053  0.62507750  1
  Se  Se3  1  0.69207333  0.03025280  0.62507750  1
  Se  Se4  1  0.30792667  0.33817947  0.12507750  1
  Se  Se5  1  0.66182053  0.96974720  0.12507750  1
  Se  Se6  1  0.03025280  0.69207333  0.12507750  1
  Se  Se7  1  0.66182053  0.69207333  0.37492250  1
  Se  Se8  1  0.03025280  0.33817947  0.37492250  1
  Se  Se9  1  0.30792667  0.96974720  0.37492250  1
  Se  Se10  1  0.69207333  0.66182053  0.87492250  1
  Se  Se11  1  0.33817947  0.03025280  0.87492250  1
loop_
_geom_bond_atom_site_label_1
_geom_bond_atom_site_label_2
_geom_bond_distance
_geom_bond_site_symmetry_2
Na0 Se5 2.980354 1_545
Na0 Se8 2.980354 1_655
Na0 Se9 2.980357 1_545
Na0 Se6 2.980357 1_655
Na0 Se7 2.980359 1_555
Na0 Se4 2.980360 1_555
Na1 Se11 2.980354 1_565
Na1 Se2 2.980354 1_455
Na1 Se3 2.980357 1_565
Na1 Se0 2.980357 1_455
Na1 Se1 2.980359 1_555
Na1 Se10 2.980360 1_555
In0 Se4 2.787827 1_555
In0 Se7 2.787827 1_445
In0 Se8 2.787827 1_555
In0 Se6 2.787827 1_545
In0 Se5 2.787827 1_445
In0 Se9 2.787827 1_545
In1 Se10 2.787827 1_445
In1 Se1 2.787827 1_555
In1 Se2 2.787827 1_445
In1 Se0 2.787827 1_455
In1 Se11 2.787827 1_555
In1 Se3 2.787827 1_455
P0 Se3 2.193382 1_555
P0 Se2 2.193386 1_555
P0 Se1 2.193389 1_555
P0 P1 2.253655 1_555
P1 Se0 2.193383 1_555
P1 Se11 2.193386 1_555
P1 Se10 2.193389 1_555
P2 Se9 2.193382 1_555
P2 Se8 2.193386 1_555
P2 Se7 2.193389 1_555
P2 P3 2.253655 1_555
P3 Se6 2.193383 1_555
P3 Se5 2.193386 1_555
P3 Se4 2.193389 1_555
