# generated using pymatgen
data_Li2Mn15O32
_symmetry_space_group_name_H-M   'P 1'
_cell_length_a   5.83149181
_cell_length_b   5.83149266
_cell_length_c   23.36485417
_cell_angle_alpha   60.05504126
_cell_angle_beta   60.05503687
_cell_angle_gamma   60.00000084
_symmetry_Int_Tables_number   1
_chemical_formula_structural   Li2Mn15O32
_chemical_formula_sum   'Li2 Mn15 O32'
_cell_volume   562.30025340
_cell_formula_units_Z   1
loop_
 _symmetry_equiv_pos_site_id
 _symmetry_equiv_pos_as_xyz
  1  'x, y, z'
loop_
 _atom_site_type_symbol
 _atom_site_label
 _atom_site_symmetry_multiplicity
 _atom_site_fract_x
 _atom_site_fract_y
 _atom_site_fract_z
 _atom_site_occupancy
  Li  Li0  1  0.12424200  0.12424200  0.03181800  1
  Li  Li1  1  0.87800900  0.87800900  0.96649300  1
  Mn  Mn0  1  0.00832600  0.49964400  0.12309600  1
  Mn  Mn1  1  0.49964400  0.49964400  0.12309600  1
  Mn  Mn2  1  0.00724400  0.49689000  0.37474400  1
  Mn  Mn3  1  0.49964400  0.00832600  0.12309600  1
  Mn  Mn4  1  0.49689000  0.49689000  0.37474400  1
  Mn  Mn5  1  0.99982400  0.50019000  0.62494900  1
  Mn  Mn6  1  0.50126800  0.50126800  0.49904900  1
  Mn  Mn7  1  0.88086500  0.88086500  0.21435100  1
  Mn  Mn8  1  0.49689000  0.00724400  0.37474400  1
  Mn  Mn9  1  0.50019000  0.50019000  0.62494900  1
  Mn  Mn10  1  0.99380400  0.50068300  0.87620800  1
  Mn  Mn11  1  0.50019000  0.99982400  0.62494900  1
  Mn  Mn12  1  0.49833200  0.49833200  0.75125100  1
  Mn  Mn13  1  0.50068300  0.50068300  0.87620800  1
  Mn  Mn14  1  0.50068300  0.99380400  0.87620800  1
  O  O0  1  0.24585300  0.24585300  0.07318900  1
  O  O1  1  0.26454400  0.26454400  0.17659200  1
  O  O2  1  0.24585300  0.71554000  0.07318900  1
  O  O3  1  0.71554000  0.24585300  0.07318900  1
  O  O4  1  0.24390700  0.24390700  0.32488200  1
  O  O5  1  0.28463500  0.74748700  0.18009800  1
  O  O6  1  0.26300900  0.26300900  0.42774300  1
  O  O7  1  0.24390700  0.71265600  0.32488200  1
  O  O8  1  0.73716700  0.73716700  0.07212500  1
  O  O9  1  0.74748700  0.28463500  0.18009800  1
  O  O10  1  0.71265600  0.24390700  0.32488200  1
  O  O11  1  0.74748700  0.74748700  0.18009800  1
  O  O12  1  0.26534100  0.26534100  0.56603200  1
  O  O13  1  0.29767400  0.73470100  0.43323100  1
  O  O14  1  0.26526800  0.26526800  0.67604900  1
  O  O15  1  0.26534100  0.70519000  0.56603200  1
  O  O16  1  0.74000500  0.74000500  0.31999600  1
  O  O17  1  0.73470100  0.29767400  0.43323100  1
  O  O18  1  0.70519000  0.26534100  0.56603200  1
  O  O19  1  0.73470100  0.73470100  0.43323100  1
  O  O20  1  0.26554900  0.26554900  0.81670100  1
  O  O21  1  0.29523400  0.73523600  0.68357300  1
  O  O22  1  0.26168100  0.26168100  0.92873900  1
  O  O23  1  0.73505900  0.73505900  0.57370600  1
  O  O24  1  0.26554900  0.70209800  0.81670100  1
  O  O25  1  0.73523600  0.29523400  0.68357300  1
  O  O26  1  0.70209800  0.26554900  0.81670100  1
  O  O27  1  0.73523600  0.73523600  0.68357300  1
  O  O28  1  0.28244500  0.75738000  0.92569900  1
  O  O29  1  0.73515800  0.73515800  0.82363100  1
  O  O30  1  0.75738000  0.28244500  0.92569900  1
  O  O31  1  0.75738000  0.75738000  0.92569900  1
loop_
_geom_bond_atom_site_label_1
_geom_bond_atom_site_label_2
_geom_bond_distance
_geom_bond_site_symmetry_2
Li0 O3 1.952385 1_455
Li0 O2 1.952386 1_545
Li0 O0 1.952404 1_555
Li0 O22 1.968106 1_554
Li1 O31 1.931772 1_555
Li1 O28 1.931781 1_655
Li1 O30 1.931782 1_565
Li1 O8 2.016851 1_556
Mn0 O0 1.878590 1_555
Mn0 O2 1.878607 1_555
Mn0 O1 1.944116 1_555
Mn0 O9 1.969047 1_455
Mn0 O11 1.969059 1_455
Mn0 O8 1.969829 1_455
Mn1 O2 1.878589 1_555
Mn1 O3 1.878589 1_555
Mn1 O1 1.944107 1_555
Mn1 O9 1.969060 1_555
Mn1 O5 1.969060 1_555
Mn1 O8 1.969842 1_555
Mn2 O7 1.874300 1_555
Mn2 O4 1.874308 1_555
Mn2 O6 1.934343 1_555
Mn2 O17 1.958625 1_455
Mn2 O19 1.958625 1_455
Mn2 O16 2.011250 1_455
Mn3 O0 1.878590 1_555
Mn3 O3 1.878607 1_555
Mn3 O1 1.944116 1_555
Mn3 O5 1.969047 1_545
Mn3 O11 1.969059 1_545
Mn3 O8 1.969829 1_545
Mn4 O7 1.874308 1_555
Mn4 O10 1.874309 1_555
Mn4 O6 1.934347 1_555
Mn4 O17 1.958625 1_555
Mn4 O13 1.958625 1_555
Mn4 O16 2.011246 1_555
Mn5 O27 1.945548 1_555
Mn5 O25 1.945555 1_555
Mn5 O23 1.946010 1_555
Mn5 O14 1.946773 1_655
Mn5 O15 1.949797 1_655
Mn5 O12 1.949797 1_655
Mn6 O17 1.934998 1_555
Mn6 O19 1.934998 1_555
Mn6 O13 1.934998 1_555
Mn6 O15 1.956698 1_555
Mn6 O12 1.956698 1_555
Mn6 O18 1.956698 1_555
Mn7 O11 1.923091 1_555
Mn7 O5 1.923101 1_655
Mn7 O9 1.923101 1_565
Mn7 O16 2.017099 1_555
Mn8 O10 1.874300 1_555
Mn8 O4 1.874308 1_555
Mn8 O6 1.934343 1_555
Mn8 O19 1.958625 1_545
Mn8 O13 1.958625 1_545
Mn8 O16 2.011250 1_545
Mn9 O25 1.945546 1_555
Mn9 O21 1.945547 1_555
Mn9 O23 1.946015 1_555
Mn9 O14 1.946773 1_555
Mn9 O15 1.949797 1_555
Mn9 O18 1.949797 1_555
Mn10 O31 1.884521 1_555
Mn10 O30 1.884525 1_555
Mn10 O29 1.940149 1_555
Mn10 O24 1.963472 1_655
Mn10 O20 1.963480 1_655
Mn10 O22 1.979477 1_655
Mn11 O27 1.945548 1_555
Mn11 O21 1.945555 1_555
Mn11 O23 1.946010 1_555
Mn11 O14 1.946773 1_565
Mn11 O12 1.949797 1_565
Mn11 O18 1.949797 1_565
Mn12 O24 1.929215 1_555
Mn12 O20 1.929215 1_555
Mn12 O26 1.929215 1_555
Mn12 O27 1.965780 1_555
Mn12 O25 1.965787 1_555
Mn12 O21 1.965787 1_555
Mn13 O30 1.884521 1_555
Mn13 O28 1.884521 1_555
Mn13 O29 1.940132 1_555
Mn13 O24 1.963481 1_555
Mn13 O26 1.963481 1_555
Mn13 O22 1.979490 1_555
Mn14 O31 1.884521 1_555
Mn14 O28 1.884525 1_555
Mn14 O29 1.940149 1_555
Mn14 O26 1.963472 1_565
Mn14 O20 1.963480 1_565
Mn14 O22 1.979477 1_565
