# generated using pymatgen
data_BaSr3(ScSe2)8
_symmetry_space_group_name_H-M   'P 1'
_cell_length_a   3.97577332
_cell_length_b   12.31362616
_cell_length_c   14.41494847
_cell_angle_alpha   90.06342504
_cell_angle_beta   90.00000000
_cell_angle_gamma   90.00000000
_symmetry_Int_Tables_number   1
_chemical_formula_structural   BaSr3(ScSe2)8
_chemical_formula_sum   'Ba1 Sr3 Sc8 Se16'
_cell_volume   705.70047137
_cell_formula_units_Z   1
loop_
 _symmetry_equiv_pos_site_id
 _symmetry_equiv_pos_as_xyz
  1  'x, y, z'
loop_
 _atom_site_type_symbol
 _atom_site_label
 _atom_site_symmetry_multiplicity
 _atom_site_fract_x
 _atom_site_fract_y
 _atom_site_fract_z
 _atom_site_occupancy
  Ba  Ba0  1  0.75000000  0.76168328  0.66909785  1
  Sr  Sr0  1  0.25000000  0.23844763  0.33064050  1
  Sr  Sr1  1  0.75000000  0.26231108  0.83162753  1
  Sr  Sr2  1  0.25000000  0.73847422  0.16837487  1
  Sc  Sc0  1  0.25000000  0.08209210  0.59649807  1
  Sc  Sc1  1  0.25000000  0.05863993  0.11010180  1
  Sc  Sc2  1  0.75000000  0.41788420  0.09712661  1
  Sc  Sc3  1  0.75000000  0.94489947  0.89280086  1
  Sc  Sc4  1  0.75000000  0.43833795  0.60856383  1
  Sc  Sc5  1  0.25000000  0.55651747  0.38767479  1
  Sc  Sc6  1  0.75000000  0.92103025  0.39991704  1
  Sc  Sc7  1  0.25000000  0.58044532  0.90412892  1
  Se  Se0  1  0.25000000  0.88035422  0.52297863  1
  Se  Se1  1  0.25000000  0.79851147  0.85136688  1
  Se  Se2  1  0.25000000  0.97234257  0.28309117  1
  Se  Se3  1  0.75000000  0.41006100  0.42352940  1
  Se  Se4  1  0.25000000  0.47043851  0.21466819  1
  Se  Se5  1  0.25000000  0.09087190  0.92639353  1
  Se  Se6  1  0.75000000  0.20345120  0.15921636  1
  Se  Se7  1  0.75000000  0.03116400  0.71604237  1
  Se  Se8  1  0.25000000  0.58226859  0.57189020  1
  Se  Se9  1  0.75000000  0.70327327  0.34041426  1
  Se  Se10  1  0.25000000  0.29558008  0.65951492  1
  Se  Se11  1  0.25000000  0.37604725  0.97211054  1
  Se  Se12  1  0.75000000  0.62211206  0.02939241  1
  Se  Se13  1  0.75000000  0.52580506  0.78571625  1
  Se  Se14  1  0.75000000  0.12461724  0.47136155  1
  Se  Se15  1  0.75000000  0.91233669  0.07576365  1
loop_
_geom_bond_atom_site_label_1
_geom_bond_atom_site_label_2
_geom_bond_distance
_geom_bond_site_symmetry_2
Ba0 Se0 3.245045 1_555
Ba0 Se0 3.245045 1_655
Ba0 Se8 3.284675 1_555
Ba0 Se8 3.284675 1_655
Ba0 Se1 3.325347 1_655
Ba0 Se1 3.325347 1_555
Ba0 Se13 3.357521 1_555
Ba0 Se7 3.385848 1_565
Sc0 Se0 2.699663 1_545
Sc0 Se7 2.704969 1_455
Sc0 Se7 2.704969 1_555
Sc0 Se14 2.735289 1_455
Sc0 Se14 2.735289 1_555
Sc0 Se10 2.780382 1_555
Sc1 Se5 2.678157 1_554
Sc1 Se2 2.711690 1_545
Sc1 Se15 2.727675 1_445
Sc1 Se15 2.727675 1_545
Sc1 Se6 2.762204 1_555
Sc1 Se6 2.762204 1_455
Sc2 Se4 2.690519 1_555
Sc2 Se4 2.690519 1_655
Sc2 Se12 2.698687 1_555
Sc2 Se11 2.731776 1_554
Sc2 Se11 2.731776 1_654
Sc2 Se6 2.788953 1_555
Sc3 Se15 2.668143 1_556
Sc3 Se5 2.723064 1_665
Sc3 Se5 2.723064 1_565
Sc3 Se1 2.748688 1_655
Sc3 Se1 2.748688 1_555
Sc3 Se7 2.761602 1_565
Sc4 Se3 2.689511 1_555
Sc4 Se8 2.715569 1_555
Sc4 Se8 2.715569 1_655
Sc4 Se10 2.753920 1_655
Sc4 Se10 2.753920 1_555
Sc4 Se13 2.770381 1_555
Sc5 Se8 2.673972 1_555
Sc5 Se4 2.708703 1_555
Sc5 Se3 2.733710 1_455
Sc5 Se3 2.733710 1_555
Sc5 Se9 2.772026 1_455
Sc5 Se9 2.772026 1_555
Sc6 Se2 2.681279 1_655
Sc6 Se2 2.681279 1_555
Sc6 Se14 2.709139 1_565
Sc6 Se0 2.711337 1_555
Sc6 Se0 2.711337 1_655
Sc6 Se9 2.814320 1_555
Sc7 Se11 2.701936 1_555
Sc7 Se13 2.704697 1_555
Sc7 Se13 2.704697 1_455
Sc7 Se12 2.733736 1_556
Sc7 Se12 2.733736 1_456
Sc7 Se1 2.791629 1_555
Se2 Sr2 3.319188 1_555
Se2 Sr0 3.346896 1_565
Se3 Sr0 3.194348 1_655
Se3 Sr0 3.194348 1_555
Se4 Sr0 3.311452 1_555
Se4 Sr2 3.368001 1_555
Se5 Sr1 3.206344 1_555
Se5 Sr1 3.206344 1_455
Se6 Sr0 3.200192 1_655
Se6 Sr0 3.200192 1_555
Se7 Sr1 3.296477 1_555
Se9 Sr2 3.208123 1_555
Se9 Sr2 3.208123 1_655
Se10 Sr1 3.205792 1_455
Se10 Sr1 3.205792 1_555
Se11 Sr1 3.163491 1_455
Se11 Sr1 3.163491 1_555
Se12 Sr2 3.164187 1_555
Se12 Sr2 3.164187 1_655
Se13 Sr1 3.312092 1_555
Se14 Sr0 3.168187 1_655
Se14 Sr0 3.168187 1_555
Se15 Sr2 3.213030 1_555
Se15 Sr2 3.213030 1_655
