# generated using pymatgen
data_Ta4Mo2OsW
_symmetry_space_group_name_H-M   'P 1'
_cell_length_a   6.41320268
_cell_length_b   4.54195716
_cell_length_c   9.08649855
_cell_angle_alpha   90.00000000
_cell_angle_beta   90.00012232
_cell_angle_gamma   90.00000000
_symmetry_Int_Tables_number   1
_chemical_formula_structural   Ta4Mo2OsW
_chemical_formula_sum   'Ta8 Mo4 Os2 W2'
_cell_volume   264.67599864
_cell_formula_units_Z   2
loop_
 _symmetry_equiv_pos_site_id
 _symmetry_equiv_pos_as_xyz
  1  'x, y, z'
loop_
 _atom_site_type_symbol
 _atom_site_label
 _atom_site_symmetry_multiplicity
 _atom_site_fract_x
 _atom_site_fract_y
 _atom_site_fract_z
 _atom_site_occupancy
  Ta  Ta0  1  0.99984489  0.75000000  0.12363632  1
  Ta  Ta1  1  0.50013967  0.75000000  0.12364172  1
  Ta  Ta2  1  0.00014118  0.25000000  0.37635303  1
  Ta  Ta3  1  0.49984261  0.25000000  0.37635753  1
  Ta  Ta4  1  0.50015431  0.75000000  0.62632433  1
  Ta  Ta5  1  0.99986250  0.75000000  0.62632495  1
  Ta  Ta6  1  0.49986401  0.25000000  0.87368224  1
  Ta  Ta7  1  0.00014800  0.25000000  0.87368503  1
  Mo  Mo0  1  0.74999166  0.25000000  0.12431083  1
  Mo  Mo1  1  0.24999113  0.75000000  0.37567492  1
  Mo  Mo2  1  0.75000574  0.25000000  0.62642452  1
  Mo  Mo3  1  0.25000619  0.75000000  0.87358876  1
  Os  Os0  1  0.25000649  0.25000000  0.62673760  1
  Os  Os1  1  0.75000685  0.75000000  0.87326538  1
  W  W0  1  0.24999574  0.25000000  0.12313327  1
  W  W1  1  0.74999503  0.75000000  0.37685656  1
loop_
_geom_bond_atom_site_label_1
_geom_bond_atom_site_label_2
_geom_bond_distance
_geom_bond_site_symmetry_2
Ta0 W0 2.780475 1_655
Ta0 W0 2.780475 1_665
Ta0 W1 2.803850 1_555
Ta1 W0 2.780449 1_555
Ta1 W0 2.780449 1_565
Ta1 W1 2.803824 1_555
Ta2 W1 2.780458 1_455
Ta2 W1 2.780458 1_445
Ta2 W0 2.803864 1_555
Ta3 W1 2.780481 1_545
Ta3 W1 2.780481 1_555
Ta3 W0 2.803864 1_555
Ta4 W1 2.775904 1_555
Ta5 W1 2.776002 1_555
Ta6 W0 2.775882 1_556
Ta7 W0 2.775780 1_556
Mo0 Ta1 2.779372 1_555
Mo0 Ta1 2.779372 1_545
Mo0 Ta0 2.779377 1_545
Mo0 Ta0 2.779377 1_555
Mo0 Ta6 2.785578 1_554
Mo0 Ta7 2.785669 1_654
Mo0 Ta2 2.796169 1_655
Mo0 Ta3 2.796207 1_555
Mo1 Ta2 2.779365 1_555
Mo1 Ta2 2.779365 1_565
Mo1 Ta3 2.779371 1_555
Mo1 Ta3 2.779371 1_565
Mo1 Ta5 2.785746 1_455
Mo1 Ta4 2.785864 1_555
Mo1 Ta1 2.796104 1_555
Mo1 Ta0 2.796130 1_455
Mo2 Ta6 2.760651 1_555
Mo2 Ta7 2.760668 1_655
Mo2 Ta4 2.779364 1_555
Mo2 Ta4 2.779364 1_545
Mo2 Ta5 2.779384 1_555
Mo2 Ta5 2.779384 1_545
Mo2 Ta2 2.781475 1_655
Mo2 Ta3 2.781539 1_555
Mo3 Ta5 2.760698 1_455
Mo3 Ta4 2.760725 1_555
Mo3 Ta6 2.779387 1_555
Mo3 Ta6 2.779387 1_565
Mo3 Ta7 2.779389 1_555
Mo3 Ta7 2.779389 1_565
Mo3 Ta1 2.781325 1_556
Mo3 Ta0 2.781393 1_456
Os0 Ta6 2.757271 1_555
Os0 Ta7 2.757301 1_555
Os0 Ta5 2.780448 1_445
Os0 Ta5 2.780448 1_455
Os0 Ta4 2.780462 1_555
Os0 Ta4 2.780462 1_545
Os0 Ta3 2.782661 1_555
Os0 Ta2 2.782796 1_555
Os1 Ta4 2.757226 1_555
Os1 Ta5 2.757239 1_555
Os1 Ta7 2.780438 1_655
Os1 Ta7 2.780438 1_665
Os1 Ta6 2.780444 1_565
Os1 Ta6 2.780444 1_555
Os1 Ta0 2.782594 1_556
Os1 Ta1 2.782748 1_556
