# generated using pymatgen
data_CaTcIO4
_symmetry_space_group_name_H-M   'P 1'
_cell_length_a   9.33950955
_cell_length_b   6.04402267
_cell_length_c   7.36787940
_cell_angle_alpha   51.35111451
_cell_angle_beta   90.00000000
_cell_angle_gamma   90.00000000
_symmetry_Int_Tables_number   1
_chemical_formula_structural   CaTcIO4
_chemical_formula_sum   'Ca2 Tc2 I2 O8'
_cell_volume   324.81566171
_cell_formula_units_Z   2
loop_
 _symmetry_equiv_pos_site_id
 _symmetry_equiv_pos_as_xyz
  1  'x, y, z'
loop_
 _atom_site_type_symbol
 _atom_site_label
 _atom_site_symmetry_multiplicity
 _atom_site_fract_x
 _atom_site_fract_y
 _atom_site_fract_z
 _atom_site_occupancy
  Ca  Ca0  1  0.48121346  0.08636397  0.47801609  1
  Ca  Ca1  1  0.98121346  0.91363603  0.02198391  1
  Tc  Tc0  1  0.86630875  0.72449306  0.61651526  1
  Tc  Tc1  1  0.36630875  0.27550694  0.88348474  1
  I  I0  1  0.18280453  0.39683995  0.32018529  1
  I  I1  1  0.68280453  0.60316005  0.17981471  1
  O  O0  1  0.37998714  0.63579260  0.71699621  1
  O  O1  1  0.87998714  0.36420740  0.78300379  1
  O  O2  1  0.69051892  0.82090113  0.57892810  1
  O  O3  1  0.19051892  0.17909887  0.92107190  1
  O  O4  1  0.95370162  0.83579055  0.74987479  1
  O  O5  1  0.45370162  0.16420945  0.75012521  1
  O  O6  1  0.94546657  0.88085969  0.35336708  1
  O  O7  1  0.44546657  0.11914031  0.14663292  1
loop_
_geom_bond_atom_site_label_1
_geom_bond_atom_site_label_2
_geom_bond_distance
_geom_bond_site_symmetry_2
Ca0 O0 2.328265 1_545
Ca0 O2 2.336302 1_545
Ca0 O5 2.342038 1_555
Ca0 O7 2.346894 1_555
Ca0 I1 3.091330 1_555
Ca0 I0 3.148845 1_555
Ca1 O1 2.328265 1_564
Ca1 O3 2.336302 1_664
Ca1 O4 2.342038 1_554
Ca1 O6 2.346894 1_555
Ca1 I0 3.091330 1_655
Ca1 I1 3.148845 1_555
O0 Tc1 1.710655 1_555
O1 Tc0 1.710655 1_555
O2 Tc0 1.705912 1_555
O3 Tc1 1.705912 1_555
O4 Tc0 1.705802 1_555
O5 Tc1 1.705802 1_555
O6 Tc0 1.705889 1_555
O7 Tc1 1.705889 1_554
