# generated using pymatgen
data_NaSr(BIr)4
_symmetry_space_group_name_H-M   'P 1'
_cell_length_a   7.03621882
_cell_length_b   6.09921781
_cell_length_c   5.53593231
_cell_angle_alpha   74.24267523
_cell_angle_beta   56.53849698
_cell_angle_gamma   49.21883671
_symmetry_Int_Tables_number   1
_chemical_formula_structural   NaSr(BIr)4
_chemical_formula_sum   'Na1 Sr1 B4 Ir4'
_cell_volume   148.59625897
_cell_formula_units_Z   1
loop_
 _symmetry_equiv_pos_site_id
 _symmetry_equiv_pos_as_xyz
  1  'x, y, z'
loop_
 _atom_site_type_symbol
 _atom_site_label
 _atom_site_symmetry_multiplicity
 _atom_site_fract_x
 _atom_site_fract_y
 _atom_site_fract_z
 _atom_site_occupancy
  Na  Na0  1  0.50000000  0.50000000  0.50000000  1
  Sr  Sr0  1  0.75000000  0.75000000  0.75000000  1
  B  B0  1  0.82150539  0.17849461  0.82150539  1
  B  B1  1  0.07408373  0.42591627  0.07408373  1
  B  B2  1  0.17849461  0.82150539  0.17849461  1
  B  B3  1  0.42591627  0.07408373  0.42591627  1
  Ir  Ir0  1  0.13005514  0.13005514  0.86994486  1
  Ir  Ir1  1  0.38264075  0.38264075  0.11735925  1
  Ir  Ir2  1  0.11735925  0.11735925  0.38264075  1
  Ir  Ir3  1  0.86994486  0.86994486  0.13005514  1
loop_
_geom_bond_atom_site_label_1
_geom_bond_atom_site_label_2
_geom_bond_distance
_geom_bond_site_symmetry_2
B0 Ir1 2.067823 1_556
B0 Ir2 2.067823 1_655
B0 Ir0 2.152580 1_655
B0 Ir3 2.152580 1_546
B0 Na0 2.979940 1_555
B0 Sr0 3.120796 1_545
B0 Sr0 3.120796 1_555
B1 Ir0 2.092114 1_554
B1 Ir3 2.092114 1_455
B1 Ir1 2.152035 1_555
B1 Ir2 2.152036 1_555
B1 Sr0 3.003838 1_454
B1 Na0 3.125958 1_455
B1 Na0 3.125958 1_554
B2 Ir2 2.067824 1_565
B2 Ir1 2.067824 1_555
B2 Ir3 2.152580 1_455
B2 Ir0 2.152580 1_564
B2 Na0 2.979940 1_555
B2 Sr0 3.120796 1_554
B2 Sr0 3.120796 1_455
B3 Ir3 2.092113 1_545
B3 Ir0 2.092114 1_555
B3 Ir2 2.152035 1_555
B3 Ir1 2.152036 1_555
B3 Sr0 3.003838 1_545
B3 Na0 3.125958 1_555
B3 Na0 3.125959 1_545
Ir0 Sr0 3.045446 1_545
Ir0 Sr0 3.045447 1_455
Ir0 Na0 3.326532 1_456
Ir0 Na0 3.326533 1_545
Ir1 Na0 3.034131 1_555
Ir1 Na0 3.034131 1_554
Ir2 Na0 3.034130 1_455
Ir2 Na0 3.034131 1_545
Ir3 Sr0 3.045447 1_554
Ir3 Sr0 3.045447 1_555
Ir3 Na0 3.326532 1_654
Ir3 Na0 3.326533 1_565
