# generated using pymatgen
data_Na3(WO3)4
_symmetry_space_group_name_H-M   'P 1'
_cell_length_a   6.82475996
_cell_length_b   6.82475996
_cell_length_c   6.82475996
_cell_angle_alpha   109.47122063
_cell_angle_beta   109.47122063
_cell_angle_gamma   109.47122063
_symmetry_Int_Tables_number   1
_chemical_formula_structural   Na3(WO3)4
_chemical_formula_sum   'Na3 W4 O12'
_cell_volume   244.70354007
_cell_formula_units_Z   1
loop_
 _symmetry_equiv_pos_site_id
 _symmetry_equiv_pos_as_xyz
  1  'x, y, z'
loop_
 _atom_site_type_symbol
 _atom_site_label
 _atom_site_symmetry_multiplicity
 _atom_site_fract_x
 _atom_site_fract_y
 _atom_site_fract_z
 _atom_site_occupancy
  Na  Na0  1  0.50000000  0.50000000  0.00000000  1
  Na  Na1  1  0.00000000  0.50000000  0.50000000  1
  Na  Na2  1  0.50000000  0.00000000  0.50000000  1
  W  W0  1  0.00000000  0.50000000  0.00000000  1
  W  W1  1  0.50000000  0.00000000  0.00000000  1
  W  W2  1  0.00000000  0.00000000  0.50000000  1
  W  W3  1  0.50000000  0.50000000  0.50000000  1
  O  O0  1  0.74744700  0.00000000  0.25255300  1
  O  O1  1  0.25255300  0.50510500  0.25255300  1
  O  O2  1  0.25255300  0.74744700  0.00000000  1
  O  O3  1  0.74744700  0.25255300  0.00000000  1
  O  O4  1  0.00000000  0.74744700  0.25255300  1
  O  O5  1  0.50510500  0.25255300  0.25255300  1
  O  O6  1  0.25255300  0.00000000  0.74744700  1
  O  O7  1  0.74744700  0.49489500  0.74744700  1
  O  O8  1  0.25255300  0.25255300  0.50510500  1
  O  O9  1  0.74744700  0.74744700  0.49489500  1
  O  O10  1  0.49489500  0.74744700  0.74744700  1
  O  O11  1  0.00000000  0.25255300  0.74744700  1
loop_
_geom_bond_atom_site_label_1
_geom_bond_atom_site_label_2
_geom_bond_distance
_geom_bond_site_symmetry_2
Na0 O2 2.757744 1_555
Na0 O3 2.757744 1_555
Na0 O8 2.757750 1_554
Na0 O9 2.757750 1_555
Na0 O10 2.786342 1_554
Na0 O7 2.786342 1_554
Na0 O1 2.786342 1_555
Na0 O5 2.786342 1_555
Na0 O4 2.786342 1_655
Na0 O0 2.786342 1_565
Na0 O6 2.786342 1_554
Na0 O11 2.786342 1_554
Na1 O11 2.757744 1_555
Na1 O4 2.757744 1_555
Na1 O10 2.757750 1_555
Na1 O5 2.757750 1_455
Na1 O1 2.786342 1_555
Na1 O8 2.786342 1_555
Na1 O9 2.786342 1_455
Na1 O7 2.786342 1_455
Na1 O2 2.786342 1_556
Na1 O3 2.786342 1_455
Na1 O6 2.786342 1_565
Na1 O0 2.786342 1_455
Na2 O0 2.757744 1_555
Na2 O6 2.757744 1_555
Na2 O7 2.757750 1_555
Na2 O1 2.757750 1_545
Na2 O9 2.786342 1_545
Na2 O8 2.786342 1_555
Na2 O5 2.786342 1_555
Na2 O10 2.786342 1_545
Na2 O11 2.786342 1_655
Na2 O4 2.786342 1_545
Na2 O3 2.786342 1_556
Na2 O2 2.786342 1_545
O0 W1 1.970344 1_555
O0 W2 1.970344 1_655
O1 W3 1.970340 1_555
O1 W0 1.970348 1_555
O2 W0 1.970344 1_555
O2 W1 1.970344 1_565
O3 W1 1.970344 1_555
O3 W0 1.970344 1_655
O4 W0 1.970344 1_555
O4 W2 1.970344 1_565
O5 W3 1.970340 1_555
O5 W1 1.970348 1_555
O6 W2 1.970344 1_555
O6 W1 1.970344 1_556
O7 W3 1.970340 1_555
O7 W0 1.970348 1_656
O8 W3 1.970340 1_555
O8 W2 1.970348 1_555
O9 W3 1.970340 1_555
O9 W2 1.970348 1_665
O10 W3 1.970340 1_555
O10 W1 1.970348 1_566
O11 W2 1.970344 1_555
O11 W0 1.970344 1_556
