# generated using pymatgen
data_Sc22Tc4Ag3Os
_symmetry_space_group_name_H-M   'P 1'
_cell_length_a   9.72138137
_cell_length_b   9.61188846
_cell_length_c   9.58933892
_cell_angle_alpha   60.83386006
_cell_angle_beta   59.83564490
_cell_angle_gamma   59.46846338
_symmetry_Int_Tables_number   1
_chemical_formula_structural   Sc22Tc4Ag3Os
_chemical_formula_sum   'Sc22 Tc4 Ag3 Os1'
_cell_volume   634.05967123
_cell_formula_units_Z   1
loop_
 _symmetry_equiv_pos_site_id
 _symmetry_equiv_pos_as_xyz
  1  'x, y, z'
loop_
 _atom_site_type_symbol
 _atom_site_label
 _atom_site_symmetry_multiplicity
 _atom_site_fract_x
 _atom_site_fract_y
 _atom_site_fract_z
 _atom_site_occupancy
  Sc  Sc0  1  0.83923312  0.83629528  0.86163349  1
  Sc  Sc1  1  0.51976299  0.15368738  0.14650877  1
  Sc  Sc2  1  0.14650877  0.18004086  0.51976299  1
  Sc  Sc3  1  0.13836651  0.53715989  0.16076688  1
  Sc  Sc4  1  0.85349123  0.81995914  0.48023701  1
  Sc  Sc5  1  0.86163349  0.46284011  0.83923312  1
  Sc  Sc6  1  0.48023701  0.84631262  0.85349123  1
  Sc  Sc7  1  0.16076688  0.16370472  0.13836651  1
  Sc  Sc8  1  0.19502686  0.80497314  0.19502686  1
  Sc  Sc9  1  0.19523913  0.81268622  0.80476087  1
  Sc  Sc10  1  0.80476087  0.18731378  0.19523913  1
  Sc  Sc11  1  0.79745094  0.80675016  0.20254906  1
  Sc  Sc12  1  0.20254906  0.19324984  0.79745094  1
  Sc  Sc13  1  0.80497314  0.19502686  0.80497314  1
  Sc  Sc14  1  0.37511025  0.39593233  0.38608473  1
  Sc  Sc15  1  0.15475966  0.60786565  0.62663339  1
  Sc  Sc16  1  0.61391527  0.15712831  0.62488975  1
  Sc  Sc17  1  0.62663339  0.61074029  0.15475966  1
  Sc  Sc18  1  0.38608473  0.84287169  0.37511025  1
  Sc  Sc19  1  0.37336661  0.38925971  0.84524034  1
  Sc  Sc20  1  0.84524034  0.39213435  0.37336661  1
  Sc  Sc21  1  0.62488975  0.60406767  0.61391527  1
  Tc  Tc0  1  0.00000000  0.50000000  0.50000000  1
  Tc  Tc1  1  0.50000000  0.00000000  0.00000000  1
  Tc  Tc2  1  0.00000000  0.50000000  0.00000000  1
  Tc  Tc3  1  0.00000000  0.00000000  0.00000000  1
  Ag  Ag0  1  0.50000000  0.50000000  0.00000000  1
  Ag  Ag1  1  0.00000000  0.00000000  0.50000000  1
  Ag  Ag2  1  0.50000000  0.00000000  0.50000000  1
  Os  Os0  1  0.50000000  0.50000000  0.50000000  1
loop_
_geom_bond_atom_site_label_1
_geom_bond_atom_site_label_2
_geom_bond_distance
_geom_bond_site_symmetry_2
Sc0 Tc2 2.724424 1_656
Sc0 Tc1 2.734461 1_566
Sc0 Sc11 2.968308 1_556
Sc0 Sc13 3.079685 1_565
Sc0 Sc17 3.106022 1_556
Sc0 Sc9 3.122882 1_655
Sc0 Sc15 3.215750 1_655
Sc0 Sc16 3.282112 1_565
Sc0 Sc6 3.481398 1_555
Sc0 Sc4 3.667176 1_555
Sc1 Tc1 2.602957 1_555
Sc1 Sc11 3.043246 1_545
Sc1 Sc13 3.049079 1_554
Sc1 Sc19 3.159189 1_554
Sc1 Sc18 3.180879 1_545
Sc1 Sc10 3.218236 1_555
Sc1 Sc14 3.364140 1_555
Sc1 Sc7 3.481398 1_555
Sc1 Sc2 3.597148 1_555
Sc1 Sc3 3.667166 1_555
Sc2 Tc0 2.602957 1_555
Sc2 Sc20 3.159189 1_455
Sc2 Sc9 3.218237 1_545
Sc2 Sc3 3.481389 1_555
Sc2 Sc7 3.667176 1_555
Sc3 Tc2 2.724411 1_555
Sc3 Tc0 2.734465 1_555
Sc3 Sc8 3.079703 1_555
Sc3 Sc9 3.122890 1_554
Sc4 Tc0 2.602957 1_655
Sc4 Sc8 3.049079 1_655
Sc4 Sc5 3.481389 1_555
Sc4 Sc6 3.597148 1_555
Sc5 Tc2 2.724411 1_656
Sc5 Tc0 2.734465 1_655
Sc5 Sc6 3.667166 1_555
Sc6 Tc1 2.602957 1_566
Sc6 Sc8 3.049079 1_556
Sc6 Sc9 3.218236 1_555
Sc7 Tc2 2.724424 1_555
Sc7 Tc1 2.734461 1_555
Sc7 Sc8 3.079685 1_545
Sc8 Tc3 2.672343 1_565
Sc9 Tc3 2.567403 1_566
Sc10 Tc3 2.567403 1_655
Sc10 Sc7 3.122882 1_655
Sc10 Sc5 3.122890 1_554
Sc10 Sc4 3.218237 1_545
Sc10 Sc17 3.418867 1_555
Sc10 Sc20 3.418875 1_555
Sc10 Sc14 3.493011 1_555
Sc10 Sc16 3.493013 1_555
Sc11 Tc3 2.730596 1_665
Sc11 Sc3 2.968315 1_655
Sc11 Sc4 3.043246 1_555
Sc11 Sc20 3.361854 1_555
Sc11 Sc17 3.361862 1_555
Sc11 Sc21 3.368993 1_555
Sc11 Sc18 3.368995 1_555
Sc12 Tc3 2.730596 1_556
Sc12 Sc7 2.968308 1_556
Sc12 Sc5 2.968315 1_455
Sc12 Sc2 3.043246 1_555
Sc12 Sc6 3.043246 1_545
Sc12 Sc15 3.361854 1_555
Sc12 Sc19 3.361862 1_555
Sc12 Sc14 3.368993 1_555
Sc12 Sc16 3.368995 1_555
Sc13 Tc3 2.672343 1_656
Sc13 Sc2 3.049079 1_655
Sc13 Sc5 3.079703 1_555
Sc13 Sc16 3.329934 1_555
Sc13 Sc21 3.329940 1_555
Sc13 Sc19 3.514967 1_555
Sc13 Sc20 3.514967 1_555
Sc14 Tc0 2.974424 1_555
Sc14 Sc15 3.039718 1_555
Sc14 Sc2 3.180871 1_555
Sc14 Sc17 3.221315 1_555
Sc14 Sc16 3.272210 1_555
Sc14 Sc3 3.282115 1_555
Sc14 Sc8 3.329940 1_555
Sc15 Tc2 2.951383 1_556
Sc15 Sc19 2.995447 1_555
Sc15 Tc0 3.075868 1_555
Sc15 Sc5 3.106005 1_455
Sc15 Sc4 3.159189 1_455
Sc15 Sc18 3.221315 1_555
Sc15 Sc9 3.418875 1_555
Sc15 Sc8 3.514967 1_555
Sc16 Tc1 2.974425 1_556
Sc16 Sc19 3.039718 1_555
Sc16 Sc6 3.180879 1_545
Sc16 Sc20 3.221315 1_555
Sc16 Sc4 3.364148 1_545
Sc17 Tc2 2.951383 1_655
Sc17 Sc20 2.995447 1_555
Sc17 Sc18 3.039718 1_555
Sc17 Tc1 3.075875 1_565
Sc17 Sc6 3.159189 1_554
Sc17 Sc5 3.215734 1_554
Sc17 Sc8 3.514967 1_555
Sc18 Tc1 2.974425 1_565
Sc18 Sc21 3.272210 1_555
Sc18 Sc7 3.282112 1_565
Sc18 Sc8 3.329934 1_555
Sc18 Sc2 3.364148 1_565
Sc18 Sc9 3.493013 1_555
Sc19 Tc2 2.951383 1_556
Sc19 Tc1 3.075875 1_556
Sc19 Sc7 3.106022 1_556
Sc19 Sc3 3.215734 1_556
Sc19 Sc21 3.221315 1_555
Sc19 Sc9 3.418867 1_555
Sc20 Tc2 2.951383 1_655
Sc20 Sc21 3.039718 1_555
Sc20 Tc0 3.075868 1_655
Sc20 Sc3 3.106005 1_655
Sc20 Sc7 3.215750 1_655
Sc21 Tc0 2.974424 1_655
Sc21 Sc4 3.180871 1_555
Sc21 Sc5 3.282115 1_555
Sc21 Sc6 3.364140 1_555
Sc21 Sc9 3.493011 1_555
Ag0 Sc1 2.855583 1_555
Ag0 Sc6 2.855583 1_554
Ag0 Sc5 2.945801 1_554
Ag0 Sc3 2.945801 1_555
Ag0 Sc14 3.047726 1_555
Ag0 Sc21 3.047726 1_554
Ag0 Sc17 3.091584 1_555
Ag0 Sc19 3.091584 1_554
Ag0 Sc8 3.438237 1_555
Ag0 Sc13 3.438237 1_554
Ag0 Sc10 3.515472 1_555
Ag0 Sc9 3.515472 1_554
Ag1 Sc2 2.855583 1_555
Ag1 Sc4 2.855583 1_445
Ag1 Sc7 2.945797 1_555
Ag1 Sc0 2.945797 1_445
Ag1 Sc18 3.047727 1_545
Ag1 Sc16 3.047727 1_455
Ag1 Sc20 3.091592 1_455
Ag1 Sc15 3.091592 1_545
Ag1 Sc13 3.438237 1_455
Ag1 Sc8 3.438237 1_545
Ag1 Sc9 3.515472 1_545
Ag1 Sc10 3.515472 1_455
Ag2 Sc4 2.909071 1_545
Ag2 Sc2 2.909071 1_555
Ag2 Sc6 2.909072 1_545
Ag2 Sc1 2.909072 1_555
Ag2 Sc14 3.120372 1_555
Ag2 Sc21 3.120372 1_545
Ag2 Sc16 3.120380 1_555
Ag2 Sc18 3.120380 1_545
Ag2 Sc12 3.371309 1_555
Ag2 Sc11 3.371309 1_545
Ag2 Sc10 3.485640 1_555
Ag2 Sc9 3.485640 1_545
Os0 Sc18 2.701781 1_555
Os0 Sc16 2.701781 1_555
Os0 Sc21 2.701789 1_555
Os0 Sc14 2.701789 1_555
Os0 Sc19 2.722058 1_555
Os0 Sc17 2.722058 1_555
Os0 Sc20 2.722058 1_555
Os0 Sc15 2.722058 1_555
