# generated using pymatgen
data_HfTi3Nb2Zn7
_symmetry_space_group_name_H-M   'P 1'
_cell_length_a   5.08648446
_cell_length_b   5.08648616
_cell_length_c   9.59132403
_cell_angle_alpha   74.62348850
_cell_angle_beta   74.62349253
_cell_angle_gamma   59.99999215
_symmetry_Int_Tables_number   1
_chemical_formula_structural   HfTi3Nb2Zn7
_chemical_formula_sum   'Hf1 Ti3 Nb2 Zn7'
_cell_volume   204.58296809
_cell_formula_units_Z   1
loop_
 _symmetry_equiv_pos_site_id
 _symmetry_equiv_pos_as_xyz
  1  'x, y, z'
loop_
 _atom_site_type_symbol
 _atom_site_label
 _atom_site_symmetry_multiplicity
 _atom_site_fract_x
 _atom_site_fract_y
 _atom_site_fract_z
 _atom_site_occupancy
  Hf  Hf0  1  0.83403634  0.83403634  0.49789098  1
  Ti  Ti0  1  0.16558751  0.16558751  0.50323746  1
  Ti  Ti1  1  0.64864971  0.64864971  0.05404787  1
  Ti  Ti2  1  0.35143723  0.35143723  0.94569130  1
  Nb  Nb0  1  0.54478624  0.54478624  0.36563929  1
  Nb  Nb1  1  0.45509239  0.45509239  0.63472383  1
  Zn  Zn0  1  0.00006213  0.00006213  0.99981461  1
  Zn  Zn1  1  0.90643825  0.90643825  0.77520458  1
  Zn  Zn2  1  0.41191993  0.90643825  0.77520458  1
  Zn  Zn3  1  0.90643825  0.41191993  0.77520458  1
  Zn  Zn4  1  0.09493513  0.09493513  0.22444697  1
  Zn  Zn5  1  0.58568177  0.09493513  0.22444697  1
  Zn  Zn6  1  0.09493513  0.58568177  0.22444697  1
loop_
_geom_bond_atom_site_label_1
_geom_bond_atom_site_label_2
_geom_bond_distance
_geom_bond_site_symmetry_2
Hf0 Zn4 2.910365 1_665
Hf0 Zn5 2.910367 1_565
Hf0 Zn6 2.910367 1_655
Hf0 Zn2 2.918964 1_555
Hf0 Zn3 2.918964 1_555
Hf0 Zn1 2.918966 1_555
Hf0 Ti0 2.937089 1_565
Hf0 Ti0 2.937090 1_665
Hf0 Ti0 2.937090 1_655
Hf0 Nb0 3.175258 1_655
Hf0 Nb0 3.175259 1_565
Hf0 Nb0 3.175267 1_555
Hf0 Nb1 3.191401 1_555
Hf0 Nb1 3.191404 1_655
Hf0 Nb1 3.191405 1_565
Ti0 Zn1 2.893106 1_445
Ti0 Zn2 2.893108 1_545
Ti0 Zn3 2.893108 1_455
Ti0 Zn5 2.925196 1_555
Ti0 Zn6 2.925196 1_555
Ti0 Zn4 2.925199 1_555
Ti1 Zn2 2.931085 1_554
Ti1 Zn3 2.931086 1_554
Ti1 Zn1 2.931094 1_554
Ti1 Zn0 2.978134 1_564
Ti1 Zn0 2.978135 1_654
Ti1 Zn0 2.978152 1_664
Ti1 Zn6 2.981525 1_555
Ti1 Zn5 2.981526 1_555
Ti1 Zn4 2.981530 1_655
Ti1 Zn4 2.981530 1_565
Ti1 Zn6 2.981534 1_655
Ti1 Zn5 2.981535 1_565
Ti1 Ti2 3.098848 1_554
Ti1 Ti2 3.098872 1_654
Ti1 Ti2 3.098873 1_564
Ti2 Zn5 2.924917 1_556
Ti2 Zn6 2.924918 1_556
Ti2 Zn4 2.924926 1_556
Ti2 Zn0 2.977970 1_655
Ti2 Zn0 2.977971 1_565
Ti2 Zn0 2.977980 1_555
Ti2 Zn3 2.981863 1_555
Ti2 Zn2 2.981863 1_555
Ti2 Zn1 2.981867 1_455
Ti2 Zn1 2.981867 1_545
Ti2 Zn3 2.981871 1_455
Ti2 Zn2 2.981872 1_545
Nb0 Nb1 2.456926 1_555
Nb0 Ti1 2.845043 1_555
Nb0 Zn6 2.851455 1_555
Nb0 Zn5 2.851456 1_555
Nb0 Zn4 2.851458 1_565
Nb0 Zn4 2.851458 1_655
Nb0 Zn6 2.851460 1_655
Nb0 Zn5 2.851461 1_565
Nb0 Ti0 3.194140 1_555
Nb0 Ti0 3.194147 1_655
Nb0 Ti0 3.194148 1_565
Nb1 Ti2 2.839346 1_555
Nb1 Zn3 2.848442 1_455
Nb1 Zn3 2.848442 1_555
Nb1 Zn1 2.848442 1_545
Nb1 Zn1 2.848442 1_455
Nb1 Zn2 2.848443 1_545
Nb1 Zn2 2.848443 1_555
Nb1 Ti0 3.172608 1_655
Nb1 Ti0 3.172609 1_565
Nb1 Ti0 3.172613 1_555
Zn0 Zn2 2.531703 1_545
Zn0 Zn3 2.531703 1_455
Zn0 Zn1 2.531703 1_445
Zn0 Zn4 2.538374 1_556
Zn0 Zn5 2.538379 1_456
Zn0 Zn6 2.538380 1_546
Zn1 Zn2 2.515360 1_555
Zn1 Zn3 2.515361 1_555
Zn1 Zn2 2.571125 1_655
Zn1 Zn3 2.571126 1_565
Zn2 Zn3 2.515360 1_555
Zn2 Zn3 2.571125 1_465
Zn4 Zn5 2.496175 1_555
Zn4 Zn6 2.496176 1_555
Zn4 Zn5 2.590309 1_455
Zn4 Zn6 2.590310 1_545
Zn5 Zn6 2.496175 1_555
Zn5 Zn6 2.590309 1_645
