# generated using pymatgen
data_Y8Sc2Ir5Pt
_symmetry_space_group_name_H-M   'P 1'
_cell_length_a   10.80513278
_cell_length_b   10.79521389
_cell_length_c   6.28018614
_cell_angle_alpha   90.00000000
_cell_angle_beta   90.07856571
_cell_angle_gamma   90.00000000
_symmetry_Int_Tables_number   1
_chemical_formula_structural   Y8Sc2Ir5Pt
_chemical_formula_sum   'Y16 Sc4 Ir10 Pt2'
_cell_volume   732.54358215
_cell_formula_units_Z   2
loop_
 _symmetry_equiv_pos_site_id
 _symmetry_equiv_pos_as_xyz
  1  'x, y, z'
loop_
 _atom_site_type_symbol
 _atom_site_label
 _atom_site_symmetry_multiplicity
 _atom_site_fract_x
 _atom_site_fract_y
 _atom_site_fract_z
 _atom_site_occupancy
  Y  Y0  1  0.28753358  0.08569397  0.38024242  1
  Y  Y1  1  0.28753358  0.91430603  0.88024242  1
  Y  Y2  1  0.70822684  0.08767244  0.87955461  1
  Y  Y3  1  0.70822684  0.91232756  0.37955461  1
  Y  Y4  1  0.58225619  0.78631902  0.88227325  1
  Y  Y5  1  0.58225619  0.21368098  0.38227325  1
  Y  Y6  1  0.41315441  0.78716225  0.38239603  1
  Y  Y7  1  0.41315441  0.21283775  0.88239603  1
  Y  Y8  1  0.21353255  0.41423467  0.61718075  1
  Y  Y9  1  0.21353255  0.58576533  0.11718075  1
  Y  Y10  1  0.78711107  0.41667352  0.11794855  1
  Y  Y11  1  0.78711107  0.58332648  0.61794855  1
  Y  Y12  1  0.91610003  0.71087261  0.12197140  1
  Y  Y13  1  0.91610003  0.28912739  0.62197140  1
  Y  Y14  1  0.08903060  0.71013633  0.61804899  1
  Y  Y15  1  0.08903060  0.28986367  0.11804899  1
  Sc  Sc0  1  0.00397282  0.99880582  0.49993951  1
  Sc  Sc1  1  0.00397282  0.00119418  0.99993951  1
  Sc  Sc2  1  0.50011589  0.49953302  0.00020817  1
  Sc  Sc3  1  0.50011589  0.50046698  0.50020817  1
  Ir  Ir0  1  0.14535806  0.14636424  0.74932689  1
  Ir  Ir1  1  0.14535806  0.85363576  0.24932689  1
  Ir  Ir2  1  0.64745359  0.35193059  0.75074426  1
  Ir  Ir3  1  0.64745359  0.64806941  0.25074426  1
  Ir  Ir4  1  0.35285787  0.35346563  0.24947032  1
  Ir  Ir5  1  0.35285787  0.64653437  0.74947032  1
  Ir  Ir6  1  0.50016931  0.99986917  0.12812263  1
  Ir  Ir7  1  0.50016931  0.00013083  0.62812263  1
  Ir  Ir8  1  0.00032845  0.50019098  0.87186383  1
  Ir  Ir9  1  0.00032845  0.49980902  0.37186383  1
  Pt  Pt0  1  0.85279973  0.14603972  0.25070639  1
  Pt  Pt1  1  0.85279973  0.85396028  0.75070639  1
loop_
_geom_bond_atom_site_label_1
_geom_bond_atom_site_label_2
_geom_bond_distance
_geom_bond_site_symmetry_2
Ir0 Sc1 2.696942 1_555
Ir0 Sc0 2.705116 1_545
Ir0 Y15 2.852407 1_556
Ir0 Y0 2.858577 1_555
Ir0 Y13 3.024199 1_455
Ir0 Y1 3.050920 1_545
Ir0 Y7 3.095074 1_555
Ir0 Y8 3.097593 1_555
Ir1 Sc0 2.696942 1_555
Ir1 Sc1 2.705116 1_564
Ir1 Y14 2.852407 1_555
Ir1 Y1 2.858577 1_554
Ir1 Y12 3.024199 1_455
Ir1 Y0 3.050920 1_565
Ir1 Y6 3.095074 1_555
Ir1 Y9 3.097593 1_555
Ir2 Sc2 2.744945 1_556
Ir2 Sc3 2.752161 1_555
Ir2 Y5 2.841490 1_555
Ir2 Y10 2.841517 1_556
Ir2 Y11 3.035779 1_555
Ir2 Y2 3.036805 1_555
Ir2 Y7 3.058287 1_555
Ir2 Y13 3.089681 1_555
Ir3 Sc3 2.744945 1_555
Ir3 Sc2 2.752161 1_555
Ir3 Y4 2.841490 1_554
Ir3 Y11 2.841517 1_555
Ir3 Y10 3.035779 1_555
Ir3 Y3 3.036805 1_555
Ir3 Y6 3.058287 1_555
Ir3 Y12 3.089681 1_555
Ir4 Sc2 2.734131 1_555
Ir4 Sc3 2.742766 1_555
Ir4 Y8 2.835317 1_555
Ir4 Y7 2.836833 1_554
Ir4 Y5 3.018423 1_555
Ir4 Y9 3.040034 1_555
Ir4 Y15 3.045093 1_555
Ir4 Y0 3.087095 1_555
Ir5 Sc3 2.734131 1_555
Ir5 Sc2 2.742766 1_556
Ir5 Y9 2.835317 1_556
Ir5 Y6 2.836833 1_555
Ir5 Y4 3.018423 1_555
Ir5 Y8 3.040034 1_555
Ir5 Y14 3.045093 1_555
Ir5 Y1 3.087095 1_555
Ir6 Y2 2.898076 1_564
Ir6 Y3 2.903553 1_555
Ir6 Y4 2.913559 1_554
Ir6 Y1 2.923278 1_554
Ir6 Y7 2.923542 1_564
Ir6 Y0 2.941797 1_565
Ir6 Y5 2.942435 1_565
Ir6 Y6 2.951399 1_555
Ir6 Ir7 3.140094 1_565
Ir6 Ir7 3.140094 1_564
Ir7 Y3 2.898076 1_545
Ir7 Y2 2.903553 1_555
Ir7 Y5 2.913559 1_555
Ir7 Y0 2.923278 1_555
Ir7 Y6 2.923542 1_545
Ir7 Y1 2.941797 1_545
Ir7 Y4 2.942435 1_545
Ir7 Y7 2.951399 1_555
Ir8 Y15 2.908647 1_556
Ir8 Y12 2.910679 1_456
Ir8 Y13 2.911828 1_455
Ir8 Y10 2.918691 1_456
Ir8 Y9 2.919631 1_556
Ir8 Y14 2.932616 1_555
Ir8 Y11 2.940394 1_455
Ir8 Y8 2.955744 1_555
Ir8 Ir9 3.140096 1_556
Ir8 Ir9 3.140096 1_555
Ir9 Y14 2.908647 1_555
Ir9 Y13 2.910679 1_455
Ir9 Y12 2.911828 1_455
Ir9 Y11 2.918691 1_455
Ir9 Y8 2.919631 1_555
Ir9 Y15 2.932616 1_555
Ir9 Y10 2.940394 1_455
Ir9 Y9 2.955744 1_555
Pt0 Sc1 2.756874 1_654
Pt0 Sc0 2.763574 1_645
Pt0 Y2 2.874087 1_554
Pt0 Y13 2.878514 1_555
Pt0 Y3 3.076344 1_545
Pt0 Y15 3.102547 1_655
Pt0 Y10 3.119734 1_555
Pt0 Y5 3.125376 1_555
Pt1 Sc0 2.756874 1_655
Pt1 Sc1 2.763574 1_665
Pt1 Y3 2.874087 1_555
Pt1 Y12 2.878514 1_556
Pt1 Y2 3.076344 1_565
Pt1 Y14 3.102547 1_655
Pt1 Y11 3.119734 1_555
Pt1 Y4 3.125376 1_555
