# generated using pymatgen
data_K3Y(AsO4)2
_symmetry_space_group_name_H-M   'P 1'
_cell_length_a   5.83967421
_cell_length_b   5.83967472
_cell_length_c   7.54415447
_cell_angle_alpha   90.00000000
_cell_angle_beta   90.00000000
_cell_angle_gamma   119.99999710
_symmetry_Int_Tables_number   1
_chemical_formula_structural   K3Y(AsO4)2
_chemical_formula_sum   'K3 Y1 As2 O8'
_cell_volume   222.80169589
_cell_formula_units_Z   1
loop_
 _symmetry_equiv_pos_site_id
 _symmetry_equiv_pos_as_xyz
  1  'x, y, z'
loop_
 _atom_site_type_symbol
 _atom_site_label
 _atom_site_symmetry_multiplicity
 _atom_site_fract_x
 _atom_site_fract_y
 _atom_site_fract_z
 _atom_site_occupancy
  K  K0  1  0.33333300  0.66666700  0.68479846  1
  K  K1  1  0.66666700  0.33333300  0.31520154  1
  K  K2  1  0.00000000  0.00000000  0.00000000  1
  Y  Y0  1  0.00000000  0.00000000  0.50000000  1
  As  As0  1  0.33333300  0.66666700  0.23594070  1
  As  As1  1  0.66666700  0.33333300  0.76405930  1
  O  O0  1  0.33333300  0.66666700  0.01686541  1
  O  O1  1  0.66666700  0.33333300  0.98313459  1
  O  O2  1  0.17730435  0.82269565  0.32412352  1
  O  O3  1  0.82269565  0.17730435  0.67587648  1
  O  O4  1  0.17730435  0.35460971  0.32412352  1
  O  O5  1  0.82269565  0.64539029  0.67587648  1
  O  O6  1  0.64539029  0.82269565  0.32412352  1
  O  O7  1  0.35460971  0.17730435  0.67587648  1
loop_
_geom_bond_atom_site_label_1
_geom_bond_atom_site_label_2
_geom_bond_distance
_geom_bond_site_symmetry_2
K0 O0 2.505164 1_556
K0 O5 2.922588 1_455
K0 O7 2.922589 1_565
K0 O3 2.922594 1_455
K0 O3 2.922594 1_565
K0 O5 2.922600 1_555
K0 O7 2.922600 1_555
K0 O6 3.145535 1_555
K0 O2 3.145535 1_555
K0 O4 3.145535 1_555
K1 O1 2.505164 1_554
K1 O4 2.922588 1_655
K1 O6 2.922589 1_545
K1 O2 2.922594 1_655
K1 O2 2.922594 1_545
K1 O4 2.922600 1_555
K1 O6 2.922600 1_555
K1 O7 3.145535 1_555
K1 O3 3.145535 1_555
K1 O5 3.145535 1_555
K2 O2 3.032383 1_545
K2 O3 3.032383 1_454
K2 O6 3.032386 1_445
K2 O7 3.032386 1_554
K2 O4 3.032386 1_555
K2 O5 3.032386 1_444
K2 O0 3.373934 1_545
K2 O1 3.373934 1_454
K2 O1 3.373939 1_554
K2 O0 3.373939 1_445
K2 O0 3.373940 1_555
K2 O1 3.373940 1_444
As0 O0 1.652738 1_555
As0 O6 1.712658 1_555
As0 O2 1.712658 1_555
As0 O4 1.712658 1_555
As1 O1 1.652738 1_555
As1 O7 1.712658 1_555
As1 O3 1.712658 1_555
As1 O5 1.712658 1_555
O2 Y0 2.230843 1_565
O3 Y0 2.230843 1_655
O4 Y0 2.230847 1_555
O5 Y0 2.230847 1_665
O6 Y0 2.230847 1_665
O7 Y0 2.230847 1_555
