# generated using pymatgen
data_MgZn3P7N12
_symmetry_space_group_name_H-M   'P 1'
_cell_length_a   7.13071328
_cell_length_b   7.10731382
_cell_length_c   7.13071453
_cell_angle_alpha   109.40476312
_cell_angle_beta   109.53759532
_cell_angle_gamma   109.40475804
_symmetry_Int_Tables_number   1
_chemical_formula_structural   MgZn3P7N12
_chemical_formula_sum   'Mg1 Zn3 P7 N12'
_cell_volume   278.42305768
_cell_formula_units_Z   1
loop_
 _symmetry_equiv_pos_site_id
 _symmetry_equiv_pos_as_xyz
  1  'x, y, z'
loop_
 _atom_site_type_symbol
 _atom_site_label
 _atom_site_symmetry_multiplicity
 _atom_site_fract_x
 _atom_site_fract_y
 _atom_site_fract_z
 _atom_site_occupancy
  Mg  Mg0  1  0.00000000  0.34703788  0.00000000  1
  Zn  Zn0  1  0.66177054  0.66657773  0.66177054  1
  Zn  Zn1  1  0.33822946  0.00480720  1.00000000  1
  Zn  Zn2  1  1.00000000  0.00480720  0.33822946  1
  P  P0  1  0.74852937  0.25051941  0.49865798  1
  P  P1  1  0.24987239  0.75186143  0.50134202  1
  P  P2  1  0.50134202  0.75186143  0.24987239  1
  P  P3  1  0.49865798  0.25051941  0.74852937  1
  P  P4  1  0.75012761  0.50198904  0.25147063  1
  P  P5  1  0.25147063  0.50198904  0.75012761  1
  P  P6  1  1.00000000  0.96123164  1.00000000  1
  N  N0  1  0.55810996  0.27377850  0.00000000  1
  N  N1  1  0.44428718  0.44543625  0.71537327  1
  N  N2  1  1.00000000  0.27377850  0.55810996  1
  N  N3  1  0.27108509  0.00114907  0.55571282  1
  N  N4  1  0.71537327  0.44543625  0.44428718  1
  N  N5  1  1.00000000  0.55546043  0.27610785  1
  N  N6  1  0.55571282  0.00114907  0.27108509  1
  N  N7  1  0.44189004  0.71566854  0.44189004  1
  N  N8  1  0.27610785  0.55546043  0.00000000  1
  N  N9  1  0.72389215  0.27935358  0.72389215  1
  N  N10  1  0.72891491  0.73006298  0.28462673  1
  N  N11  1  0.28462673  0.73006298  0.72891491  1
loop_
_geom_bond_atom_site_label_1
_geom_bond_atom_site_label_2
_geom_bond_distance
_geom_bond_site_symmetry_2
Mg0 N8 2.032910 1_555
Mg0 N5 2.032910 1_455
Mg0 N9 2.032913 1_454
Mg0 P6 2.742046 1_444
P6 Zn1 2.327326 1_665
P6 Zn0 2.327326 1_555
P6 Zn2 2.327326 1_566
N0 P4 1.634164 1_555
N0 P3 1.634167 1_554
N0 Zn1 2.030058 1_554
N1 P3 1.624371 1_555
N1 P5 1.625516 1_555
N1 Zn0 2.048767 1_555
N2 P5 1.634163 1_655
N2 P0 1.634167 1_555
N2 Zn2 2.030058 1_555
N3 P1 1.624376 1_545
N3 P3 1.625524 1_555
N3 Zn2 2.048763 1_455
N4 P0 1.624372 1_555
N4 P4 1.625516 1_555
N4 Zn0 2.048767 1_555
N5 P1 1.626748 1_655
N5 P4 1.626750 1_555
N6 P2 1.624376 1_545
N6 P0 1.625524 1_555
N6 Zn1 2.048763 1_554
N7 P1 1.634160 1_555
N7 P2 1.634160 1_555
N7 Zn0 2.030058 1_555
N8 P2 1.626748 1_555
N8 P5 1.626751 1_554
N9 P3 1.626743 1_555
N9 P0 1.626743 1_555
N10 P4 1.624372 1_555
N10 P2 1.625530 1_555
N10 Zn2 2.048763 1_565
N11 P5 1.624372 1_555
N11 P1 1.625530 1_555
N11 Zn1 2.048763 1_565
