# generated using pymatgen
data_Ta2CdHgO7
_symmetry_space_group_name_H-M   'P 1'
_cell_length_a   7.39390381
_cell_length_b   7.39390415
_cell_length_c   7.32574414
_cell_angle_alpha   60.30447675
_cell_angle_beta   60.30447526
_cell_angle_gamma   60.61798356
_symmetry_Int_Tables_number   1
_chemical_formula_structural   Ta2CdHgO7
_chemical_formula_sum   'Ta4 Cd2 Hg2 O14'
_cell_volume   285.80763634
_cell_formula_units_Z   2
loop_
 _symmetry_equiv_pos_site_id
 _symmetry_equiv_pos_as_xyz
  1  'x, y, z'
loop_
 _atom_site_type_symbol
 _atom_site_label
 _atom_site_symmetry_multiplicity
 _atom_site_fract_x
 _atom_site_fract_y
 _atom_site_fract_z
 _atom_site_occupancy
  Ta  Ta0  1  0.62500000  0.62500000  0.62500000  1
  Ta  Ta1  1  0.12500000  0.62500000  0.62500000  1
  Ta  Ta2  1  0.62500000  0.62500000  0.12500000  1
  Ta  Ta3  1  0.62500000  0.12500000  0.62500000  1
  Cd  Cd0  1  0.62500000  0.12500000  0.12500000  1
  Cd  Cd1  1  0.12500000  0.62500000  0.12500000  1
  Hg  Hg0  1  0.12500000  0.12500000  0.12500000  1
  Hg  Hg1  1  0.12500000  0.12500000  0.62500000  1
  O  O0  1  0.55617335  0.55617335  0.94382665  1
  O  O1  1  0.31191790  0.31191790  0.68808210  1
  O  O2  1  0.94012996  0.56339936  0.94247909  1
  O  O3  1  0.94012996  0.56339936  0.55399058  1
  O  O4  1  0.56339936  0.94012996  0.94247909  1
  O  O5  1  0.56339936  0.94012996  0.55399058  1
  O  O6  1  0.30987004  0.68660064  0.30752091  1
  O  O7  1  0.68660064  0.30987004  0.69600942  1
  O  O8  1  0.24754020  0.24754020  0.25245980  1
  O  O9  1  0.00245980  0.00245980  0.99754020  1
  O  O10  1  0.93808210  0.93808210  0.56191790  1
  O  O11  1  0.68660064  0.30987004  0.30752091  1
  O  O12  1  0.30987004  0.68660064  0.69600942  1
  O  O13  1  0.69382665  0.69382665  0.30617335  1
loop_
_geom_bond_atom_site_label_1
_geom_bond_atom_site_label_2
_geom_bond_distance
_geom_bond_site_symmetry_2
Cd0 O9 2.292789 1_654
Cd0 O8 2.292789 1_555
Cd0 O5 2.624666 1_545
Cd0 O7 2.624666 1_554
Cd0 O11 2.624672 1_555
Cd0 O4 2.624672 1_544
Cd0 O0 2.658785 1_554
Cd0 O13 2.658785 1_545
Cd1 O9 2.292789 1_564
Cd1 O8 2.292789 1_555
Cd1 O3 2.624666 1_455
Cd1 O12 2.624666 1_554
Cd1 O6 2.624672 1_555
Cd1 O2 2.624672 1_454
Cd1 O0 2.658785 1_554
Cd1 O13 2.658785 1_455
Hg0 O8 2.235105 1_555
Hg0 O9 2.235105 1_554
Hg1 O9 2.235105 1_555
Hg1 O8 2.235105 1_555
O0 Ta0 1.967743 1_555
O0 Ta2 1.967743 1_556
O1 Ta3 1.978866 1_555
O1 Ta1 1.978866 1_555
O2 Ta1 1.973996 1_655
O2 Ta2 1.974746 1_556
O3 Ta1 1.974001 1_655
O3 Ta0 1.974744 1_555
O4 Ta3 1.973996 1_565
O4 Ta2 1.974746 1_556
O5 Ta3 1.974001 1_565
O5 Ta0 1.974744 1_555
O6 Ta1 1.973996 1_555
O6 Ta2 1.974746 1_555
O7 Ta3 1.974001 1_555
O7 Ta0 1.974744 1_555
O10 Ta3 1.978866 1_565
O10 Ta1 1.978866 1_655
O11 Ta3 1.973996 1_555
O11 Ta2 1.974746 1_555
O12 Ta1 1.974001 1_555
O12 Ta0 1.974744 1_555
O13 Ta0 1.967743 1_555
O13 Ta2 1.967743 1_555
