# generated using pymatgen
data_Ti2Si2MoRu
_symmetry_space_group_name_H-M   'P 1'
_cell_length_a   7.52951645
_cell_length_b   7.51278307
_cell_length_c   7.52932733
_cell_angle_alpha   126.03366235
_cell_angle_beta   128.89793413
_cell_angle_gamma   77.55702178
_symmetry_Int_Tables_number   1
_chemical_formula_structural   Ti2Si2MoRu
_chemical_formula_sum   'Ti6 Si6 Mo3 Ru3'
_cell_volume   259.91493911
_cell_formula_units_Z   3
loop_
 _symmetry_equiv_pos_site_id
 _symmetry_equiv_pos_as_xyz
  1  'x, y, z'
loop_
 _atom_site_type_symbol
 _atom_site_label
 _atom_site_symmetry_multiplicity
 _atom_site_fract_x
 _atom_site_fract_y
 _atom_site_fract_z
 _atom_site_occupancy
  Ti  Ti0  1  0.24507765  0.90336865  0.15598853  1
  Ti  Ti1  1  0.94771064  0.48423962  0.03291210  1
  Ti  Ti2  1  0.05306158  0.09982234  0.54496739  1
  Ti  Ti3  1  0.45106558  0.48390257  0.53639403  1
  Ti  Ti4  1  0.74770547  0.90373577  0.65836924  1
  Ti  Ti5  1  0.55512018  0.10061310  0.04749054  1
  Si  Si0  1  0.75133304  0.50715491  0.25271576  1
  Si  Si1  1  0.16821986  0.15881454  0.99074025  1
  Si  Si2  1  0.66548899  0.15446612  0.48881875  1
  Si  Si3  1  0.33005992  0.82309548  0.49377623  1
  Si  Si4  1  0.25419075  0.50673424  0.75558030  1
  Si  Si5  1  0.82888737  0.82756579  0.99804108  1
  Mo  Mo0  1  0.49957765  0.23623439  0.73685903  1
  Mo  Mo1  1  0.00092309  0.23848361  0.23757800  1
  Mo  Mo2  1  0.86868717  0.49792643  0.62915652  1
  Ru  Ru0  1  0.63028845  0.75906522  0.12809981  1
  Ru  Ru1  1  0.37024284  0.49658447  0.12645781  1
  Ru  Ru2  1  0.13235975  0.76040375  0.62826465  1
loop_
_geom_bond_atom_site_label_1
_geom_bond_atom_site_label_2
_geom_bond_distance
_geom_bond_site_symmetry_2
Si0 Ti5 2.724671 1_555
Si0 Ti4 2.751319 1_555
Si0 Ti1 2.753768 1_555
Si1 Ti3 2.612911 1_556
Si1 Ti1 2.614244 1_456
Si1 Ti5 2.639689 1_556
Si1 Ti2 2.640845 1_555
Si1 Ti4 2.642294 1_445
Si1 Ti0 2.644304 1_546
Si2 Ti3 2.611852 1_555
Si2 Ti1 2.613634 1_556
Si2 Ti4 2.625907 1_545
Si2 Ti0 2.628311 1_545
Si2 Ti5 2.644085 1_555
Si2 Ti2 2.646108 1_655
Si3 Ti4 2.614419 1_555
Si3 Ti0 2.614583 1_555
Si3 Ti2 2.649338 1_565
Si3 Ti3 2.649751 1_555
Si3 Ti5 2.650135 1_566
Si3 Ti1 2.651258 1_455
Si4 Ti2 2.725651 1_555
Si4 Ti0 2.752349 1_556
Si4 Ti3 2.753208 1_555
Si5 Ti5 2.615110 1_566
Si5 Ti2 2.615195 1_666
Si5 Ti4 2.617202 1_555
Si5 Ti0 2.617387 1_656
Si5 Ti3 2.651265 1_555
Si5 Ti1 2.651349 1_556
Mo0 Si4 2.436289 1_555
Mo0 Si0 2.436618 1_556
Mo0 Si2 2.583660 1_555
Mo0 Si3 2.588925 1_545
Mo0 Ti4 2.778184 1_545
Mo0 Ti0 2.779534 1_545
Mo0 Ti5 2.841639 1_556
Mo0 Ti2 2.843142 1_555
Mo0 Ti3 2.862279 1_555
Mo0 Ti1 2.864033 1_556
Mo1 Si4 2.444900 1_555
Mo1 Si0 2.445939 1_455
Mo1 Si5 2.588391 1_444
Mo1 Si1 2.589513 1_554
Mo1 Ti4 2.774707 1_444
Mo1 Ti0 2.774824 1_545
Mo1 Ti5 2.847684 1_455
Mo1 Ti2 2.848726 1_555
Mo1 Ti3 2.860920 1_555
Mo1 Ti1 2.863088 1_455
Mo2 Si4 2.423752 1_655
Mo2 Si0 2.424582 1_555
Mo2 Si5 2.563212 1_555
Mo2 Si2 2.564897 1_555
Mo2 Ti1 2.770561 1_556
Mo2 Ti3 2.772135 1_555
Mo2 Ti5 2.887125 1_555
Mo2 Ti2 2.891314 1_655
Mo2 Ti0 2.903623 1_656
Mo2 Ti4 2.904992 1_555
Ru0 Si4 2.358518 1_554
Ru0 Si0 2.358955 1_555
Ru0 Si2 2.492811 1_565
Ru0 Si5 2.494678 1_554
Ru0 Ti5 2.836893 1_565
Ru0 Ti2 2.837053 1_665
Ru0 Ti3 2.959575 1_554
Ru0 Ti1 2.961863 1_555
Ru0 Ti0 2.962098 1_555
Ru0 Ti4 2.962976 1_555
Ru1 Si4 2.392605 1_554
Ru1 Si0 2.393168 1_555
Ru1 Si1 2.541247 1_554
Ru1 Si3 2.550877 1_555
Ru1 Ti1 2.804018 1_455
Ru1 Ti3 2.805036 1_555
Ru1 Ti5 2.883558 1_555
Ru1 Ti2 2.887812 1_554
Ru1 Ti0 2.915441 1_555
Ru1 Ti4 2.917559 1_555
Ru2 Si0 2.383477 1_455
Ru2 Si4 2.384109 1_555
Ru2 Si3 2.493869 1_555
Ru2 Si1 2.508460 1_565
Ru2 Ti2 2.829738 1_565
Ru2 Ti5 2.832743 1_566
Ru2 Ti4 2.965226 1_455
Ru2 Ti3 2.966164 1_555
Ru2 Ti0 2.966233 1_556
Ru2 Ti1 2.967406 1_455
