# generated using pymatgen
data_Rb4ZrSnAs4
_symmetry_space_group_name_H-M   'P 1'
_cell_length_a   8.69938685
_cell_length_b   8.69938724
_cell_length_c   8.69938665
_cell_angle_alpha   135.29569198
_cell_angle_beta   126.99561377
_cell_angle_gamma   71.79001592
_symmetry_Int_Tables_number   1
_chemical_formula_structural   Rb4ZrSnAs4
_chemical_formula_sum   'Rb4 Zr1 Sn1 As4'
_cell_volume   362.03094426
_cell_formula_units_Z   1
loop_
 _symmetry_equiv_pos_site_id
 _symmetry_equiv_pos_as_xyz
  1  'x, y, z'
loop_
 _atom_site_type_symbol
 _atom_site_label
 _atom_site_symmetry_multiplicity
 _atom_site_fract_x
 _atom_site_fract_y
 _atom_site_fract_z
 _atom_site_occupancy
  Rb  Rb0  1  0.00151798  0.84483466  0.14267846  1
  Rb  Rb1  1  0.29784379  0.65516534  0.65668331  1
  Rb  Rb2  1  0.99848202  0.14116048  0.84331669  1
  Rb  Rb3  1  0.70215621  0.35883952  0.35732154  1
  Zr  Zr0  1  0.50000000  0.25000000  0.75000000  1
  Sn  Sn0  1  0.50000000  0.75000000  0.25000000  1
  As  As0  1  0.20966319  0.39561445  0.81012287  1
  As  As1  1  0.41450842  0.10438555  0.31404873  1
  As  As2  1  0.79033681  0.60045968  0.18595127  1
  As  As3  1  0.58549158  0.89954032  0.68987713  1
loop_
_geom_bond_atom_site_label_1
_geom_bond_atom_site_label_2
_geom_bond_distance
_geom_bond_site_symmetry_2
As0 Zr0 2.627934 1_555
As0 Sn0 2.644235 1_556
As0 Rb2 3.528070 1_455
As0 Rb0 3.568082 1_556
As0 Rb0 3.629391 1_545
As0 Rb3 3.643094 1_455
As0 Rb1 3.750699 1_555
As1 Zr0 2.627934 1_555
As1 Sn0 2.644235 1_545
As1 Rb3 3.528070 1_555
As1 Rb1 3.568082 1_544
As1 Rb1 3.629391 1_555
As1 Rb2 3.643094 1_454
As1 Rb0 3.750699 1_545
As2 Zr0 2.627934 1_554
As2 Sn0 2.644235 1_555
As2 Rb0 3.528070 1_655
As2 Rb2 3.568082 1_565
As2 Rb2 3.629391 1_554
As2 Rb1 3.643094 1_655
As2 Rb3 3.750699 1_555
As3 Zr0 2.627934 1_565
As3 Sn0 2.644234 1_555
As3 Rb1 3.528070 1_555
As3 Rb3 3.568083 1_555
As3 Rb3 3.629391 1_566
As3 Rb0 3.643094 1_656
As3 Rb2 3.750699 1_565
