# generated using pymatgen
data_UAl4Co
_symmetry_space_group_name_H-M   'P 1'
_cell_length_a   9.10381470
_cell_length_b   9.10381470
_cell_length_c   4.09494900
_cell_angle_alpha   90.00000000
_cell_angle_beta   90.00000000
_cell_angle_gamma   120.00000506
_symmetry_Int_Tables_number   1
_chemical_formula_structural   UAl4Co
_chemical_formula_sum   'U3 Al12 Co3'
_cell_volume   293.91782517
_cell_formula_units_Z   3
loop_
 _symmetry_equiv_pos_site_id
 _symmetry_equiv_pos_as_xyz
  1  'x, y, z'
loop_
 _atom_site_type_symbol
 _atom_site_label
 _atom_site_symmetry_multiplicity
 _atom_site_fract_x
 _atom_site_fract_y
 _atom_site_fract_z
 _atom_site_occupancy
  U  U0  1  0.00000000  0.40927500  0.00000000  1
  U  U1  1  0.59072500  0.59072500  0.00000000  1
  U  U2  1  0.40927500  0.00000000  0.00000000  1
  Al  Al0  1  0.00000000  0.74155700  0.00000000  1
  Al  Al1  1  0.25844300  0.25844300  0.00000000  1
  Al  Al2  1  0.74155700  0.00000000  0.00000000  1
  Al  Al3  1  0.00000000  0.16942600  0.50000000  1
  Al  Al4  1  0.83057400  0.83057400  0.50000000  1
  Al  Al5  1  0.16942600  0.00000000  0.50000000  1
  Al  Al6  1  0.29700200  0.48009300  0.50000000  1
  Al  Al7  1  0.18309100  0.70299800  0.50000000  1
  Al  Al8  1  0.51990700  0.81690900  0.50000000  1
  Al  Al9  1  0.81690900  0.51990700  0.50000000  1
  Al  Al10  1  0.70299800  0.18309100  0.50000000  1
  Al  Al11  1  0.48009300  0.29700200  0.50000000  1
  Co  Co0  1  0.66666700  0.33333300  0.00000000  1
  Co  Co1  1  0.33333300  0.66666700  0.00000000  1
  Co  Co2  1  0.00000000  0.00000000  0.00000000  1
loop_
_geom_bond_atom_site_label_1
_geom_bond_atom_site_label_2
_geom_bond_distance
_geom_bond_site_symmetry_2
Al0 Co2 2.352817 1_565
Al0 Al9 2.771065 1_454
Al0 Al9 2.771065 1_455
Al0 Al7 2.771065 1_555
Al0 Al7 2.771065 1_554
Al0 Al5 2.911688 1_565
Al0 Al5 2.911688 1_564
Al0 Al4 2.911689 1_454
Al0 Al4 2.911689 1_455
Al0 U0 3.025034 1_555
Al0 U2 3.263747 1_565
Al0 U1 3.263747 1_455
Al1 Co2 2.352817 1_555
Al1 Al6 2.771065 1_554
Al1 Al11 2.771065 1_555
Al1 Al11 2.771065 1_554
Al1 Al6 2.771065 1_555
Al1 Al5 2.911688 1_554
Al1 Al3 2.911688 1_554
Al1 Al5 2.911688 1_555
Al1 Al3 2.911688 1_555
Al1 U1 3.025034 1_555
Al1 U2 3.263747 1_555
Al1 U0 3.263747 1_555
Al2 Co2 2.352817 1_655
Al2 Al8 2.771065 1_544
Al2 Al8 2.771065 1_545
Al2 Al3 2.911688 1_654
Al2 Al3 2.911688 1_655
Al2 Al4 2.911689 1_545
Al2 Al4 2.911689 1_544
Al2 U2 3.025034 1_555
Al2 U0 3.263747 1_655
Al2 U1 3.263747 1_545
Al3 Co2 2.563439 1_556
Al3 Co2 2.563439 1_555
Al3 Al4 2.671555 1_445
Al3 Al5 2.671555 1_555
Al3 Al6 2.768150 1_555
Al3 U0 2.993326 1_556
Al3 U0 2.993326 1_555
Al4 Co2 2.563439 1_666
Al4 Co2 2.563439 1_665
Al4 Al5 2.671555 1_665
Al4 Al8 2.768150 1_555
Al4 Al9 2.768150 1_555
Al4 U1 2.993326 1_556
Al4 U1 2.993326 1_555
Al5 Co2 2.563439 1_556
Al5 Co2 2.563439 1_555
Al5 Al7 2.768150 1_545
Al5 U2 2.993326 1_555
Al5 U2 2.993326 1_556
Al6 Co1 2.573864 1_555
Al6 Co1 2.573864 1_556
Al6 Al8 2.701451 1_555
Al6 Al7 2.701452 1_555
Al6 U1 3.108640 1_556
Al6 U1 3.108640 1_555
Al6 U0 3.189892 1_555
Al6 U0 3.189892 1_556
Al7 Co1 2.573859 1_555
Al7 Co1 2.573859 1_556
Al7 Al8 2.701451 1_555
Al7 Al9 2.887028 1_455
Al7 U0 3.108640 1_555
Al7 U0 3.108640 1_556
Al7 U2 3.189891 1_565
Al7 U2 3.189891 1_566
Al8 Co1 2.573862 1_555
Al8 Co1 2.573862 1_556
Al8 U2 3.108640 1_566
Al8 U2 3.108640 1_565
Al8 U1 3.189892 1_556
Al8 U1 3.189892 1_555
Al9 Co0 2.573862 1_555
Al9 Co0 2.573862 1_556
Al9 U0 3.108640 1_655
Al9 U0 3.108640 1_656
Al9 U1 3.189892 1_556
Al9 U1 3.189892 1_555
Al10 Co0 2.573859 1_555
Al10 Co0 2.573859 1_556
Al10 Al9 2.701451 1_555
Al10 Al11 2.701452 1_555
Al10 Al3 2.768150 1_655
Al10 Al2 2.771065 1_556
Al10 Al2 2.771065 1_555
Al10 Al8 2.887028 1_545
Al10 U2 3.108640 1_556
Al10 U2 3.108640 1_555
Al10 U0 3.189891 1_655
Al10 U0 3.189891 1_656
Al11 Co0 2.573864 1_555
Al11 Co0 2.573864 1_556
Al11 Al9 2.701451 1_555
Al11 Al5 2.768150 1_555
Al11 Al6 2.887028 1_555
Al11 U1 3.108640 1_556
Al11 U1 3.108640 1_555
Al11 U2 3.189892 1_555
Al11 U2 3.189892 1_556
Co0 U0 2.754774 1_655
Co0 U2 2.754777 1_555
Co0 U1 2.754783 1_555
Co1 U2 2.754774 1_565
Co1 U0 2.754777 1_555
Co1 U1 2.754783 1_555
