# generated using pymatgen
data_Ta6Re6Si5P
_symmetry_space_group_name_H-M   'P 1'
_cell_length_a   7.46764946
_cell_length_b   7.54308982
_cell_length_c   7.46765039
_cell_angle_alpha   127.57948169
_cell_angle_beta   123.95384109
_cell_angle_gamma   80.04925526
_symmetry_Int_Tables_number   1
_chemical_formula_structural   Ta6Re6Si5P
_chemical_formula_sum   'Ta6 Re6 Si5 P1'
_cell_volume   267.36007919
_cell_formula_units_Z   1
loop_
 _symmetry_equiv_pos_site_id
 _symmetry_equiv_pos_as_xyz
  1  'x, y, z'
loop_
 _atom_site_type_symbol
 _atom_site_label
 _atom_site_symmetry_multiplicity
 _atom_site_fract_x
 _atom_site_fract_y
 _atom_site_fract_z
 _atom_site_occupancy
  Ta  Ta0  1  0.54505005  0.09116424  0.04611419  1
  Ta  Ta1  1  0.44097385  0.47498353  0.53400868  1
  Ta  Ta2  1  0.96691818  0.50861919  0.04170001  1
  Ta  Ta3  1  0.04187121  0.07780217  0.53593096  1
  Ta  Ta4  1  0.75665543  0.90739351  0.65073808  1
  Ta  Ta5  1  0.24992382  0.91546606  0.16554224  1
  Re  Re0  1  0.52948864  0.24510896  0.77623209  1
  Re  Re1  1  0.96887686  0.24510896  0.21562031  1
  Re  Re2  1  0.15569569  0.74637193  0.65309870  1
  Re  Re3  1  0.83987097  0.49425311  0.58879620  1
  Re  Re4  1  0.59327323  0.74637193  0.09067623  1
  Re  Re5  1  0.40545691  0.49425311  0.15438215  1
  Si  Si0  1  0.22806627  0.46661259  0.73854631  1
  Si  Si1  1  0.34093684  0.82888392  0.50337734  1
  Si  Si2  1  0.67026936  0.16365978  0.49908847  1
  Si  Si3  1  0.82550659  0.82888392  0.98794708  1
  Si  Si4  1  0.16457031  0.16365978  0.99338942  1
  P  P0  1  0.77659477  0.54360231  0.26700753  1
loop_
_geom_bond_atom_site_label_1
_geom_bond_atom_site_label_2
_geom_bond_distance
_geom_bond_site_symmetry_2
Re0 Si2 2.534229 1_555
Re0 Si0 2.550219 1_555
Re0 Si1 2.551801 1_545
Re0 Ta4 2.759686 1_545
Re0 Ta0 2.823115 1_556
Re0 Ta5 2.943880 1_545
Re0 Ta1 2.968058 1_555
Re1 Si4 2.534228 1_654
Re1 Si0 2.550219 1_655
Re1 Si3 2.551801 1_544
Re1 Ta4 2.759686 1_544
Re1 Ta0 2.823115 1_555
Re1 Ta5 2.943880 1_645
Re1 Ta1 2.968053 1_655
Re2 Si0 2.452637 1_555
Re2 Si1 2.534762 1_555
Re2 Si4 2.548993 1_565
Re2 Ta0 2.757294 1_566
Re2 Ta1 2.812214 1_555
Re2 Ta5 2.848655 1_556
Re2 Ta4 3.011959 1_455
Re3 Si0 2.480310 1_655
Re3 Si3 2.520751 1_555
Re3 Si2 2.525380 1_555
Re3 Ta1 2.788839 1_555
Re3 Ta0 2.798719 1_555
Re3 Ta4 2.864502 1_555
Re3 Ta5 3.156048 1_656
Re4 Si0 2.452637 1_554
Re4 Si3 2.534762 1_554
Re4 Si2 2.548992 1_565
Re4 Ta0 2.757294 1_565
Re4 Ta1 2.812218 1_554
Re4 Ta5 2.848655 1_555
Re4 Ta4 3.011959 1_555
Re5 Si0 2.480311 1_554
Re5 Si1 2.520751 1_555
Re5 Si4 2.525380 1_554
Re5 Ta1 2.788835 1_555
Re5 Ta0 2.798719 1_555
Re5 Ta4 2.864502 1_555
Re5 Ta5 3.156048 1_555
Si0 Ta3 2.543790 1_555
Si0 Ta1 2.780266 1_555
Si0 Ta5 2.845863 1_556
Si1 Ta2 2.634377 1_455
Si1 Ta0 2.650490 1_566
Si1 Ta3 2.678198 1_565
Si1 Ta5 2.682178 1_555
Si1 Ta4 2.687678 1_555
Si1 Ta1 2.757054 1_555
Si2 Ta4 2.618843 1_545
Si2 Ta1 2.622373 1_555
Si2 Ta3 2.634215 1_655
Si2 Ta0 2.646310 1_555
Si2 Ta5 2.678016 1_545
Si2 Ta2 2.683640 1_556
Si3 Ta2 2.634373 1_556
Si3 Ta0 2.650490 1_566
Si3 Ta3 2.678198 1_666
Si3 Ta5 2.682178 1_656
Si3 Ta4 2.687678 1_555
Si3 Ta1 2.757058 1_555
Si4 Ta4 2.618838 1_445
Si4 Ta1 2.622373 1_556
Si4 Ta3 2.634211 1_555
Si4 Ta0 2.646314 1_556
Si4 Ta5 2.678021 1_546
Si4 Ta2 2.683639 1_456
P0 Re2 2.380479 1_655
P0 Re4 2.380479 1_555
P0 Re1 2.392257 1_555
P0 Re0 2.392257 1_554
P0 Re5 2.428612 1_555
P0 Re3 2.428612 1_555
P0 Ta4 2.551076 1_555
P0 Ta2 2.630696 1_555
P0 Ta0 3.056907 1_555
