# generated using pymatgen
data_Zr3SbN
_symmetry_space_group_name_H-M   'P 1'
_cell_length_a   6.07448771
_cell_length_b   6.07448765
_cell_length_c   8.81291474
_cell_angle_alpha   90.00000000
_cell_angle_beta   90.00000000
_cell_angle_gamma   145.87845448
_symmetry_Int_Tables_number   1
_chemical_formula_structural   Zr3SbN
_chemical_formula_sum   'Zr6 Sb2 N2'
_cell_volume   182.41615372
_cell_formula_units_Z   2
loop_
 _symmetry_equiv_pos_site_id
 _symmetry_equiv_pos_as_xyz
  1  'x, y, z'
loop_
 _atom_site_type_symbol
 _atom_site_label
 _atom_site_symmetry_multiplicity
 _atom_site_fract_x
 _atom_site_fract_y
 _atom_site_fract_z
 _atom_site_occupancy
  Zr  Zr0  1  0.95308835  0.04691165  0.75000000  1
  Zr  Zr1  1  0.04691165  0.95308835  0.25000000  1
  Zr  Zr2  1  0.62471331  0.37528669  0.54689838  1
  Zr  Zr3  1  0.37528669  0.62471331  0.45310162  1
  Zr  Zr4  1  0.37528669  0.62471331  0.04689838  1
  Zr  Zr5  1  0.62471331  0.37528669  0.95310162  1
  Sb  Sb0  1  0.74608184  0.25391816  0.25000000  1
  Sb  Sb1  1  0.25391816  0.74608184  0.75000000  1
  N  N0  1  0.00000000  0.00000000  0.50000000  1
  N  N1  1  0.00000000  0.00000000  0.00000000  1
loop_
_geom_bond_atom_site_label_1
_geom_bond_atom_site_label_2
_geom_bond_distance
_geom_bond_site_symmetry_2
Sb0 Zr1 2.920132 1_655
Sb0 Zr1 2.920132 1_545
Sb0 Zr3 2.937996 1_545
Sb0 Zr4 2.937996 1_545
Sb0 Zr3 2.937996 1_655
Sb0 Zr4 2.937996 1_655
Sb0 Zr5 2.972087 1_554
Sb0 Zr2 2.972087 1_555
Sb1 Zr0 2.920132 1_455
Sb1 Zr0 2.920132 1_565
Sb1 Zr2 2.937996 1_565
Sb1 Zr5 2.937996 1_565
Sb1 Zr2 2.937996 1_455
Sb1 Zr5 2.937996 1_455
Sb1 Zr4 2.972087 1_556
Sb1 Zr3 2.972087 1_555
N0 Zr1 2.269598 1_545
N0 Zr0 2.269598 1_455
N0 Zr3 2.333452 1_555
N0 Zr2 2.333452 1_445
N0 Zr3 2.333452 1_445
N0 Zr2 2.333452 1_555
N1 Zr1 2.269598 1_545
N1 Zr0 2.269598 1_454
N1 Zr4 2.333452 1_555
N1 Zr5 2.333452 1_444
N1 Zr4 2.333452 1_445
N1 Zr5 2.333452 1_554
