# generated using pymatgen
data_Ca8HfSnN8
_symmetry_space_group_name_H-M   'P 1'
_cell_length_a   6.10344542
_cell_length_b   6.10004917
_cell_length_c   9.22949899
_cell_angle_alpha   85.15163494
_cell_angle_beta   108.82634558
_cell_angle_gamma   111.45353619
_symmetry_Int_Tables_number   1
_chemical_formula_structural   Ca8HfSnN8
_chemical_formula_sum   'Ca8 Hf1 Sn1 N8'
_cell_volume   302.48905184
_cell_formula_units_Z   1
loop_
 _symmetry_equiv_pos_site_id
 _symmetry_equiv_pos_as_xyz
  1  'x, y, z'
loop_
 _atom_site_type_symbol
 _atom_site_label
 _atom_site_symmetry_multiplicity
 _atom_site_fract_x
 _atom_site_fract_y
 _atom_site_fract_z
 _atom_site_occupancy
  Ca  Ca0  1  0.81259278  0.26922497  0.19409018  1
  Ca  Ca1  1  0.18944578  0.73185218  0.80778662  1
  Ca  Ca2  1  0.23930448  0.24347197  0.99280390  1
  Ca  Ca3  1  0.76226065  0.75052118  0.00617778  1
  Ca  Ca4  1  0.05326852  0.26375528  0.57580908  1
  Ca  Ca5  1  0.95152523  0.73807879  0.42645760  1
  Ca  Ca6  1  0.54359250  0.75335266  0.59899513  1
  Ca  Ca7  1  0.46373534  0.24781405  0.40775367  1
  Hf  Hf0  1  0.39553925  0.71907334  0.23782726  1
  Sn  Sn0  1  0.60481369  0.28100097  0.76276908  1
  N  N0  1  0.30495221  0.01030636  0.61187184  1
  N  N1  1  0.68399833  0.98575826  0.38378364  1
  N  N2  1  0.80624403  0.14879293  0.94809765  1
  N  N3  1  0.19330534  0.84391934  0.05035314  1
  N  N4  1  0.41613048  0.49133656  0.80099226  1
  N  N5  1  0.57606394  0.51288787  0.19682192  1
  N  N6  1  0.19934873  0.51282156  0.37845015  1
  N  N7  1  0.80387971  0.49603374  0.61915910  1
loop_
_geom_bond_atom_site_label_1
_geom_bond_atom_site_label_2
_geom_bond_distance
_geom_bond_site_symmetry_2
Ca0 N5 2.427638 1_555
Ca0 N2 2.429033 1_554
Ca0 N6 2.438187 1_655
Ca0 N1 2.460407 1_545
Ca1 N4 2.372155 1_555
Ca1 N3 2.385970 1_556
Ca1 N7 2.437418 1_455
Ca1 N0 2.465637 1_565
Ca2 N3 2.382897 1_546
Ca2 N2 2.389530 1_455
Ca2 N5 2.454686 1_556
Ca2 N4 2.484336 1_555
Ca3 N2 2.378536 1_564
Ca3 N3 2.379663 1_655
Ca3 N4 2.455570 1_554
Ca3 N5 2.478541 1_555
Ca4 N6 2.451669 1_555
Ca4 N0 2.486174 1_555
Ca4 N1 2.496138 1_445
Ca4 N4 2.533694 1_555
Ca4 N7 2.559512 1_455
Ca5 N7 2.402605 1_555
Ca5 N0 2.411817 1_665
Ca5 N1 2.528418 1_555
Ca5 N6 2.535372 1_655
Ca5 N5 2.585577 1_555
Ca6 N4 2.481607 1_555
Ca6 N6 2.490028 1_555
Ca6 N0 2.530938 1_565
Ca6 N1 2.534457 1_555
Ca6 N7 2.570243 1_555
Ca7 N7 2.448538 1_555
Ca7 N1 2.497071 1_545
Ca7 N0 2.505444 1_555
Ca7 N5 2.528440 1_555
Ca7 N6 2.615899 1_555
Hf0 N3 2.045461 1_555
Hf0 N5 2.074237 1_555
Hf0 N1 2.074966 1_555
Hf0 N6 2.079966 1_555
N0 Sn0 2.132807 1_555
N2 Sn0 2.054877 1_555
N4 Sn0 2.125202 1_555
N7 Sn0 2.129148 1_555
