# generated using pymatgen
data_Ba4CrFe3N8
_symmetry_space_group_name_H-M   'P 1'
_cell_length_a   6.41211384
_cell_length_b   6.41211409
_cell_length_c   7.77279564
_cell_angle_alpha   90.58882710
_cell_angle_beta   89.41116896
_cell_angle_gamma   125.61870349
_symmetry_Int_Tables_number   1
_chemical_formula_structural   Ba4CrFe3N8
_chemical_formula_sum   'Ba4 Cr1 Fe3 N8'
_cell_volume   259.77273235
_cell_formula_units_Z   1
loop_
 _symmetry_equiv_pos_site_id
 _symmetry_equiv_pos_as_xyz
  1  'x, y, z'
loop_
 _atom_site_type_symbol
 _atom_site_label
 _atom_site_symmetry_multiplicity
 _atom_site_fract_x
 _atom_site_fract_y
 _atom_site_fract_z
 _atom_site_occupancy
  Ba  Ba0  1  0.83319947  0.16680053  0.56003064  1
  Ba  Ba1  1  0.15651570  0.84348430  0.43326141  1
  Ba  Ba2  1  0.66511706  0.33488294  0.05900020  1
  Ba  Ba3  1  0.34489105  0.65510895  0.93754754  1
  Cr  Cr0  1  0.05191571  0.94808429  0.86715694  1
  Fe  Fe0  1  0.54740167  0.45259833  0.63333284  1
  Fe  Fe1  1  0.44653226  0.55346774  0.36620840  1
  Fe  Fe2  1  0.94918432  0.05081568  0.14157426  1
  N  N0  1  0.89549577  0.10450423  0.90314245  1
  N  N1  1  0.11428845  0.88571155  0.07907243  1
  N  N2  1  0.60554443  0.39445557  0.40612951  1
  N  N3  1  0.38581585  0.61418415  0.58252505  1
  N  N4  1  0.34188897  0.14295216  0.75763994  1
  N  N5  1  0.16128294  0.35612149  0.25786972  1
  N  N6  1  0.64387851  0.83871706  0.25786972  1
  N  N7  1  0.85704784  0.65811103  0.75763994  1
loop_
_geom_bond_atom_site_label_1
_geom_bond_atom_site_label_2
_geom_bond_distance
_geom_bond_site_symmetry_2
Ba0 N0 2.767910 1_555
Ba0 N2 2.871673 1_555
Ba0 N5 2.897895 1_655
Ba0 N6 2.897895 1_545
Ba0 N3 2.996385 1_655
Ba0 N3 2.996385 1_545
Ba1 N1 2.800337 1_555
Ba1 N3 2.873625 1_555
Ba1 N7 2.959857 1_455
Ba1 N4 2.959857 1_565
Ba1 N2 2.995073 1_455
Ba1 N2 2.995073 1_565
Ba2 N2 2.774799 1_555
Ba2 N0 2.880990 1_554
Ba2 N7 2.892507 1_554
Ba2 N4 2.892507 1_554
Ba2 N1 2.990571 1_545
Ba2 N1 2.990571 1_655
Ba3 N3 2.793403 1_555
Ba3 N1 2.839493 1_556
Ba3 N5 2.944396 1_556
Ba3 N6 2.944396 1_556
Ba3 N0 2.997709 1_565
Ba3 N0 2.997709 1_455
Cr0 N4 1.739628 1_565
Cr0 N7 1.739628 1_455
Cr0 N1 1.801800 1_556
Cr0 N0 1.802883 1_465
Fe0 N2 1.879253 1_555
Fe0 N3 1.889503 1_555
Fe0 N4 1.891551 1_555
Fe0 N7 1.891551 1_555
Fe1 N6 1.723280 1_555
Fe1 N5 1.723280 1_555
Fe1 N3 1.811031 1_555
Fe1 N2 1.843738 1_555
Fe2 N6 1.840355 1_545
Fe2 N5 1.840355 1_655
Fe2 N1 1.939555 1_645
Fe2 N0 1.958557 1_554
