# generated using pymatgen
data_Ti13Ga3(Pt2N)4
_symmetry_space_group_name_H-M   'P 1'
_cell_length_a   8.19986168
_cell_length_b   8.20172297
_cell_length_c   8.19986164
_cell_angle_alpha   60.00750692
_cell_angle_beta   60.00000014
_cell_angle_gamma   60.00750459
_symmetry_Int_Tables_number   1
_chemical_formula_structural   Ti13Ga3(Pt2N)4
_chemical_formula_sum   'Ti13 Ga3 Pt8 N4'
_cell_volume   389.98904760
_cell_formula_units_Z   1
loop_
 _symmetry_equiv_pos_site_id
 _symmetry_equiv_pos_as_xyz
  1  'x, y, z'
loop_
 _atom_site_type_symbol
 _atom_site_label
 _atom_site_symmetry_multiplicity
 _atom_site_fract_x
 _atom_site_fract_y
 _atom_site_fract_z
 _atom_site_occupancy
  Ti  Ti0  1  0.62500000  0.12500000  0.62500000  1
  Ti  Ti1  1  0.81727871  0.81643804  0.18314213  1
  Ti  Ti2  1  0.18132662  0.18362265  0.81752537  1
  Ti  Ti3  1  0.81752537  0.18362265  0.81752537  1
  Ti  Ti4  1  0.18314213  0.81643804  0.18314213  1
  Ti  Ti5  1  0.18314213  0.81643804  0.81727871  1
  Ti  Ti6  1  0.81752537  0.18362265  0.18132662  1
  Ti  Ti7  1  0.43272129  0.43356196  0.06685787  1
  Ti  Ti8  1  0.06867338  0.06637735  0.43247463  1
  Ti  Ti9  1  0.43247463  0.06637735  0.43247463  1
  Ti  Ti10  1  0.06685787  0.43356196  0.06685787  1
  Ti  Ti11  1  0.06685787  0.43356196  0.43272129  1
  Ti  Ti12  1  0.43247463  0.06637735  0.06867338  1
  Ga  Ga0  1  0.12500000  0.62500000  0.62500000  1
  Ga  Ga1  1  0.62500000  0.62500000  0.12500000  1
  Ga  Ga2  1  0.62500000  0.62500000  0.62500000  1
  Pt  Pt0  1  0.77385951  0.40559672  0.41027239  1
  Pt  Pt1  1  0.40788200  0.77635200  0.40788200  1
  Pt  Pt2  1  0.41027239  0.40559672  0.77385951  1
  Pt  Pt3  1  0.41027239  0.40559672  0.41027239  1
  Pt  Pt4  1  0.47614049  0.84440328  0.83972761  1
  Pt  Pt5  1  0.84211800  0.47364800  0.84211800  1
  Pt  Pt6  1  0.83972761  0.84440328  0.47614049  1
  Pt  Pt7  1  0.83972761  0.84440328  0.83972761  1
  N  N0  1  0.62500000  0.12500000  0.12500000  1
  N  N1  1  0.12500000  0.62500000  0.12500000  1
  N  N2  1  0.12500000  0.12500000  0.62500000  1
  N  N3  1  0.12500000  0.12500000  0.12500000  1
loop_
_geom_bond_atom_site_label_1
_geom_bond_atom_site_label_2
_geom_bond_distance
_geom_bond_site_symmetry_2
Ga0 Pt1 2.575005 1_555
Ga0 Pt5 2.575005 1_455
Ga0 Pt7 2.578910 1_455
Ga0 Pt3 2.578910 1_555
Ga0 Pt2 2.578914 1_555
Ga0 Pt6 2.578914 1_455
Ga1 Pt1 2.575005 1_555
Ga1 Pt5 2.575005 1_554
Ga1 Pt7 2.578910 1_554
Ga1 Pt3 2.578910 1_555
Ga1 Pt0 2.578914 1_555
Ga1 Pt4 2.578914 1_554
Ga2 Pt5 2.575018 1_555
Ga2 Pt1 2.575018 1_555
Ga2 Pt4 2.578908 1_555
Ga2 Pt0 2.578908 1_555
Ga2 Pt6 2.578908 1_555
Ga2 Pt2 2.578908 1_555
Pt0 Ti0 2.548439 1_555
Pt0 Ti8 2.612884 1_655
Pt0 Ti11 2.625665 1_655
Pt0 Ti10 2.625674 1_655
Pt1 Ti8 2.596024 1_565
Pt1 Ti12 2.596024 1_565
Pt1 Ti9 2.596033 1_565
Pt1 Ti4 3.014091 1_555
Pt1 Ti5 3.014112 1_555
Pt1 Ti1 3.014112 1_555
Pt2 Ti0 2.548439 1_555
Pt2 Ti12 2.612884 1_556
Pt2 Ti7 2.625665 1_556
Pt2 Ti10 2.625674 1_556
Pt3 Ti0 2.548434 1_555
Pt3 Ti9 2.612888 1_555
Pt3 Ti7 2.625681 1_555
Pt3 Ti11 2.625681 1_555
Pt4 Ti0 2.548439 1_565
Pt4 Ti2 2.612884 1_565
Pt4 Ti5 2.625665 1_555
Pt4 Ti4 2.625674 1_556
Pt5 Ti2 2.596024 1_655
Pt5 Ti6 2.596024 1_556
Pt5 Ti3 2.596033 1_555
Pt5 Ti10 3.014091 1_656
Pt5 Ti11 3.014112 1_655
Pt5 Ti7 3.014112 1_556
Pt6 Ti0 2.548439 1_565
Pt6 Ti6 2.612884 1_565
Pt6 Ti1 2.625665 1_555
Pt6 Ti4 2.625674 1_655
Pt7 Ti0 2.548434 1_565
Pt7 Ti3 2.612888 1_565
Pt7 Ti1 2.625681 1_556
Pt7 Ti5 2.625681 1_655
N0 Ti6 2.155637 1_555
N0 Ti9 2.155637 1_555
N0 Ti3 2.155637 1_554
N0 Ti12 2.155637 1_555
N0 Ti7 2.161942 1_555
N0 Ti1 2.161942 1_545
N1 Ti7 2.154981 1_555
N1 Ti1 2.154981 1_455
N1 Ti5 2.154981 1_554
N1 Ti11 2.154981 1_555
N1 Ti4 2.154987 1_555
N1 Ti10 2.154987 1_555
N2 Ti9 2.155637 1_555
N2 Ti3 2.155637 1_455
N2 Ti2 2.155637 1_555
N2 Ti8 2.155637 1_555
N2 Ti11 2.161942 1_555
N2 Ti5 2.161942 1_545
N3 Ti12 2.155637 1_555
N3 Ti6 2.155637 1_455
N3 Ti8 2.155637 1_555
N3 Ti2 2.155637 1_554
N3 Ti10 2.161940 1_555
N3 Ti4 2.161940 1_545
