# generated using pymatgen
data_Y9ScCd3Ru
_symmetry_space_group_name_H-M   'P 1'
_cell_length_a   9.56969509
_cell_length_b   9.56969485
_cell_length_c   9.77860954
_cell_angle_alpha   90.00000000
_cell_angle_beta   90.00000000
_cell_angle_gamma   120.00000086
_symmetry_Int_Tables_number   1
_chemical_formula_structural   Y9ScCd3Ru
_chemical_formula_sum   'Y18 Sc2 Cd6 Ru2'
_cell_volume   775.53950170
_cell_formula_units_Z   2
loop_
 _symmetry_equiv_pos_site_id
 _symmetry_equiv_pos_as_xyz
  1  'x, y, z'
loop_
 _atom_site_type_symbol
 _atom_site_label
 _atom_site_symmetry_multiplicity
 _atom_site_fract_x
 _atom_site_fract_y
 _atom_site_fract_z
 _atom_site_occupancy
  Y  Y0  1  0.20890692  0.79109308  0.43980692  1
  Y  Y1  1  0.20890692  0.41781384  0.43980692  1
  Y  Y2  1  0.58218616  0.79109308  0.43980692  1
  Y  Y3  1  0.79109308  0.20890692  0.56019308  1
  Y  Y4  1  0.79109308  0.58218616  0.56019308  1
  Y  Y5  1  0.41781384  0.20890692  0.56019308  1
  Y  Y6  1  0.79109308  0.20890692  0.93980692  1
  Y  Y7  1  0.79109308  0.58218616  0.93980692  1
  Y  Y8  1  0.41781384  0.20890692  0.93980692  1
  Y  Y9  1  0.20890692  0.79109308  0.06019308  1
  Y  Y10  1  0.20890692  0.41781384  0.06019308  1
  Y  Y11  1  0.58218616  0.79109308  0.06019308  1
  Y  Y12  1  0.54138257  0.45861743  0.25000000  1
  Y  Y13  1  0.54138257  0.08276514  0.25000000  1
  Y  Y14  1  0.91723486  0.45861743  0.25000000  1
  Y  Y15  1  0.45861743  0.54138257  0.75000000  1
  Y  Y16  1  0.45861743  0.91723486  0.75000000  1
  Y  Y17  1  0.08276514  0.54138257  0.75000000  1
  Sc  Sc0  1  0.00000000  0.00000000  0.50000000  1
  Sc  Sc1  1  0.00000000  0.00000000  0.00000000  1
  Cd  Cd0  1  0.89050838  0.10949162  0.25000000  1
  Cd  Cd1  1  0.89050838  0.78101876  0.25000000  1
  Cd  Cd2  1  0.21898124  0.10949162  0.25000000  1
  Cd  Cd3  1  0.10949162  0.89050838  0.75000000  1
  Cd  Cd4  1  0.10949162  0.21898124  0.75000000  1
  Cd  Cd5  1  0.78101876  0.89050838  0.75000000  1
  Ru  Ru0  1  0.33333300  0.66666700  0.25000000  1
  Ru  Ru1  1  0.66666700  0.33333300  0.75000000  1
loop_
_geom_bond_atom_site_label_1
_geom_bond_atom_site_label_2
_geom_bond_distance
_geom_bond_site_symmetry_2
Sc0 Y1 3.512344 1_555
Sc0 Y4 3.512344 1_445
Sc0 Y3 3.512344 1_455
Sc0 Y0 3.512344 1_545
Sc0 Y5 3.512344 1_555
Sc0 Y2 3.512344 1_445
Sc1 Y10 3.512344 1_555
Sc1 Y7 3.512344 1_444
Sc1 Y9 3.512344 1_545
Sc1 Y6 3.512344 1_454
Sc1 Y8 3.512344 1_554
Sc1 Y11 3.512344 1_445
Cd0 Sc0 3.044666 1_655
Cd0 Sc1 3.044666 1_655
Cd0 Cd1 3.143385 1_545
Cd0 Cd2 3.143385 1_655
Cd0 Y14 3.220771 1_555
Cd0 Y13 3.220771 1_555
Cd0 Y3 3.451954 1_555
Cd0 Y6 3.451954 1_554
Cd0 Y2 3.527672 1_545
Cd0 Y11 3.527672 1_545
Cd0 Y1 3.527672 1_655
Cd0 Y10 3.527672 1_655
Cd1 Sc0 3.044656 1_665
Cd1 Sc1 3.044656 1_665
Cd1 Cd2 3.143385 1_665
Cd1 Y12 3.220779 1_555
Cd1 Y14 3.220790 1_555
Cd1 Y4 3.451962 1_555
Cd1 Y7 3.451962 1_554
Cd1 Y2 3.527663 1_555
Cd1 Y11 3.527663 1_555
Cd1 Y0 3.527680 1_655
Cd1 Y9 3.527680 1_655
Cd2 Sc0 3.044656 1_555
Cd2 Sc1 3.044656 1_555
Cd2 Y12 3.220779 1_555
Cd2 Y13 3.220790 1_555
Cd2 Y5 3.451962 1_555
Cd2 Y8 3.451962 1_554
Cd2 Y1 3.527663 1_555
Cd2 Y10 3.527663 1_555
Cd2 Y0 3.527679 1_545
Cd2 Y9 3.527679 1_545
Cd3 Sc1 3.044666 1_566
Cd3 Sc0 3.044666 1_565
Cd3 Cd4 3.143385 1_565
Cd3 Cd5 3.143385 1_455
Cd3 Y17 3.220771 1_555
Cd3 Y16 3.220771 1_555
Cd3 Y9 3.451954 1_556
Cd3 Y0 3.451954 1_555
Cd3 Y8 3.527672 1_565
Cd3 Y5 3.527672 1_565
Cd3 Y7 3.527672 1_455
Cd3 Y4 3.527672 1_455
Cd4 Sc0 3.044656 1_555
Cd4 Sc1 3.044656 1_556
Cd4 Cd5 3.143385 1_445
Cd4 Y15 3.220779 1_555
Cd4 Y17 3.220790 1_555
Cd4 Y10 3.451962 1_556
Cd4 Y1 3.451962 1_555
Cd4 Y8 3.527663 1_555
Cd4 Y5 3.527663 1_555
Cd4 Y6 3.527680 1_455
Cd4 Y3 3.527680 1_455
Cd5 Sc1 3.044656 1_666
Cd5 Sc0 3.044656 1_665
Cd5 Y15 3.220779 1_555
Cd5 Y16 3.220790 1_555
Cd5 Y11 3.451962 1_556
Cd5 Y2 3.451962 1_555
Cd5 Y7 3.527663 1_555
Cd5 Y4 3.527663 1_555
Cd5 Y6 3.527679 1_565
Cd5 Y3 3.527679 1_565
Ru0 Y0 2.774591 1_555
Ru0 Y9 2.774591 1_555
Ru0 Y1 2.774597 1_555
Ru0 Y10 2.774597 1_555
Ru0 Y2 2.774597 1_555
Ru0 Y11 2.774597 1_555
Ru0 Y13 3.448454 1_565
Ru0 Y14 3.448455 1_455
Ru0 Y12 3.448463 1_555
Ru1 Y6 2.774591 1_555
Ru1 Y3 2.774591 1_555
Ru1 Y7 2.774597 1_555
Ru1 Y4 2.774597 1_555
Ru1 Y8 2.774597 1_555
Ru1 Y5 2.774597 1_555
Ru1 Y16 3.448454 1_545
Ru1 Y17 3.448455 1_655
Ru1 Y15 3.448463 1_555
