# generated using pymatgen
data_Cd3Hg(Sb2O7)2
_symmetry_space_group_name_H-M   'P 1'
_cell_length_a   7.34417232
_cell_length_b   7.34417187
_cell_length_c   7.26954055
_cell_angle_alpha   59.65981041
_cell_angle_beta   59.65981250
_cell_angle_gamma   60.00000260
_symmetry_Int_Tables_number   1
_chemical_formula_structural   Cd3Hg(Sb2O7)2
_chemical_formula_sum   'Cd3 Hg1 Sb4 O14'
_cell_volume   275.81971209
_cell_formula_units_Z   1
loop_
 _symmetry_equiv_pos_site_id
 _symmetry_equiv_pos_as_xyz
  1  'x, y, z'
loop_
 _atom_site_type_symbol
 _atom_site_label
 _atom_site_symmetry_multiplicity
 _atom_site_fract_x
 _atom_site_fract_y
 _atom_site_fract_z
 _atom_site_occupancy
  Cd  Cd0  1  0.62500000  0.62500000  0.62500000  1
  Cd  Cd1  1  0.62500000  0.12500000  0.62500000  1
  Cd  Cd2  1  0.12500000  0.62500000  0.62500000  1
  Hg  Hg0  1  0.62500000  0.62500000  0.12500000  1
  Sb  Sb0  1  0.12500000  0.62500000  0.12500000  1
  Sb  Sb1  1  0.12500000  0.12500000  0.12500000  1
  Sb  Sb2  1  0.12500000  0.12500000  0.62500000  1
  Sb  Sb3  1  0.62500000  0.12500000  0.12500000  1
  O  O0  1  0.80408306  0.80408306  0.20257959  1
  O  O1  1  0.80306145  0.19826176  0.80041503  1
  O  O2  1  0.05173824  0.05173824  0.44958497  1
  O  O3  1  0.80408306  0.18925430  0.20257959  1
  O  O4  1  0.44591694  0.44591694  0.04742041  1
  O  O5  1  0.06074570  0.44591694  0.04742041  1
  O  O6  1  0.19826176  0.80306145  0.80041503  1
  O  O7  1  0.44693855  0.05173824  0.44958497  1
  O  O8  1  0.50093255  0.50093255  0.49720234  1
  O  O9  1  0.18925430  0.80408306  0.20257959  1
  O  O10  1  0.19826176  0.19826176  0.80041503  1
  O  O11  1  0.74906745  0.74906745  0.75279766  1
  O  O12  1  0.44591694  0.06074570  0.04742041  1
  O  O13  1  0.05173824  0.44693855  0.44958497  1
loop_
_geom_bond_atom_site_label_1
_geom_bond_atom_site_label_2
_geom_bond_distance
_geom_bond_site_symmetry_2
Cd0 O11 2.250378 1_555
Cd0 O8 2.250378 1_555
Cd0 O4 2.541406 1_556
Cd0 O0 2.541406 1_555
Cd0 O1 2.589822 1_555
Cd0 O7 2.589822 1_565
Cd0 O13 2.589822 1_655
Cd0 O6 2.589822 1_555
Cd1 O8 2.250378 1_555
Cd1 O11 2.250378 1_545
Cd1 O12 2.541406 1_556
Cd1 O3 2.541406 1_555
Cd1 O1 2.589822 1_555
Cd1 O7 2.589822 1_555
Cd1 O2 2.589822 1_655
Cd1 O10 2.589822 1_555
Cd2 O8 2.250378 1_555
Cd2 O11 2.250378 1_455
Cd2 O5 2.541406 1_556
Cd2 O9 2.541406 1_555
Cd2 O6 2.589822 1_555
Cd2 O13 2.589822 1_555
Cd2 O2 2.589822 1_565
Cd2 O10 2.589822 1_555
Hg0 O8 2.197800 1_555
Hg0 O11 2.197800 1_554
Hg0 O0 2.646914 1_555
Hg0 O4 2.646914 1_555
Hg0 O12 2.646914 1_565
Hg0 O3 2.646914 1_555
Hg0 O5 2.646915 1_655
Hg0 O9 2.646915 1_555
O0 Sb3 1.977221 1_565
O0 Sb0 1.977221 1_655
O1 Sb3 1.967465 1_556
O1 Sb2 1.969998 1_655
O2 Sb1 1.967465 1_555
O2 Sb2 1.969998 1_555
O3 Sb3 1.977221 1_555
O3 Sb1 1.977221 1_655
O4 Sb3 1.977221 1_555
O4 Sb0 1.977221 1_555
O5 Sb0 1.977221 1_555
O5 Sb1 1.977221 1_555
O6 Sb0 1.967465 1_556
O6 Sb2 1.969998 1_565
O7 Sb3 1.967465 1_555
O7 Sb2 1.969998 1_555
O9 Sb0 1.977221 1_555
O9 Sb1 1.977221 1_565
O10 Sb1 1.967465 1_556
O10 Sb2 1.969998 1_555
O12 Sb3 1.977221 1_555
O12 Sb1 1.977221 1_555
O13 Sb0 1.967465 1_555
O13 Sb2 1.969998 1_555
