# generated using pymatgen
data_Ca4LuSn3
_symmetry_space_group_name_H-M   'P 1'
_cell_length_a   9.25820433
_cell_length_b   9.25791613
_cell_length_c   9.25820443
_cell_angle_alpha   96.91183528
_cell_angle_beta   96.91365128
_cell_angle_gamma   139.40359074
_symmetry_Int_Tables_number   1
_chemical_formula_structural   Ca4LuSn3
_chemical_formula_sum   'Ca8 Lu2 Sn6'
_cell_volume   484.30063780
_cell_formula_units_Z   2
loop_
 _symmetry_equiv_pos_site_id
 _symmetry_equiv_pos_as_xyz
  1  'x, y, z'
loop_
 _atom_site_type_symbol
 _atom_site_label
 _atom_site_symmetry_multiplicity
 _atom_site_fract_x
 _atom_site_fract_y
 _atom_site_fract_z
 _atom_site_occupancy
  Ca  Ca0  1  0.08424238  0.21123161  0.29546709  1
  Ca  Ca1  1  0.91575762  0.78876839  0.70453291  1
  Ca  Ca2  1  0.78877080  0.08423995  0.87300832  1
  Ca  Ca3  1  0.41576351  0.71123161  0.12698923  1
  Ca  Ca4  1  0.21122920  0.91576005  0.12699168  1
  Ca  Ca5  1  0.58423649  0.28876839  0.87301077  1
  Ca  Ca6  1  0.71123164  0.58423995  0.29546915  1
  Ca  Ca7  1  0.28876836  0.41576005  0.70453085  1
  Lu  Lu0  1  0.25002117  0.75000000  0.50002117  1
  Lu  Lu1  1  0.74997883  0.25000000  0.49997883  1
  Sn  Sn0  1  0.14855624  0.64855709  0.79709762  1
  Sn  Sn1  1  0.85144376  0.35144291  0.20290238  1
  Sn  Sn2  1  0.35145747  0.14855709  0.49999985  1
  Sn  Sn3  1  0.64854253  0.85144291  0.50000015  1
  Sn  Sn4  1  0.25000443  0.25000000  0.00000443  1
  Sn  Sn5  1  0.74999557  0.75000000  0.99999557  1
loop_
_geom_bond_atom_site_label_1
_geom_bond_atom_site_label_2
_geom_bond_distance
_geom_bond_site_symmetry_2
Ca0 Sn5 3.221246 1_444
Ca0 Sn4 3.221364 1_555
Ca0 Sn1 3.337131 1_455
Ca0 Sn2 3.370359 1_555
Ca0 Sn3 3.728579 1_555
Ca0 Sn3 3.728899 1_445
Ca1 Sn4 3.221246 1_666
Ca1 Sn5 3.221364 1_555
Ca1 Sn0 3.337131 1_655
Ca1 Sn3 3.370359 1_555
Ca1 Sn2 3.728579 1_555
Ca1 Sn2 3.728899 1_665
Ca2 Sn5 3.221247 1_545
Ca2 Sn4 3.221397 1_656
Ca2 Sn3 3.337128 1_545
Ca2 Sn1 3.370386 1_556
Ca2 Sn0 3.728722 1_655
Ca2 Sn0 3.728741 1_545
Ca3 Sn4 3.221251 1_555
Ca3 Sn5 3.221372 1_554
Ca3 Sn3 3.337146 1_555
Ca3 Sn0 3.370374 1_554
Ca3 Sn1 3.728574 1_565
Ca3 Sn1 3.728894 1_455
Ca4 Sn4 3.221247 1_565
Ca4 Sn5 3.221397 1_454
Ca4 Sn2 3.337128 1_565
Ca4 Sn0 3.370386 1_554
Ca4 Sn1 3.728722 1_455
Ca4 Sn1 3.728741 1_565
Ca5 Sn5 3.221251 1_555
Ca5 Sn4 3.221372 1_556
Ca5 Sn2 3.337146 1_555
Ca5 Sn1 3.370374 1_556
Ca5 Sn0 3.728574 1_545
Ca5 Sn0 3.728894 1_655
Ca6 Sn4 3.221247 1_555
Ca6 Sn5 3.221397 1_554
Ca6 Sn1 3.337133 1_555
Ca6 Sn3 3.370376 1_555
Ca6 Sn2 3.728712 1_665
Ca6 Sn2 3.728736 1_555
Ca7 Sn5 3.221247 1_555
Ca7 Sn4 3.221397 1_556
Ca7 Sn0 3.337133 1_555
Ca7 Sn2 3.370376 1_555
Ca7 Sn3 3.728712 1_445
Ca7 Sn3 3.728736 1_555
Lu0 Sn0 3.038594 1_555
Lu0 Sn3 3.038611 1_555
Lu0 Sn1 3.038829 1_455
Lu0 Sn2 3.038842 1_565
Lu1 Sn1 3.038594 1_555
Lu1 Sn2 3.038611 1_555
Lu1 Sn0 3.038829 1_655
Lu1 Sn3 3.038842 1_545
