# generated using pymatgen
data_Ir3RuPb4O13
_symmetry_space_group_name_H-M   'P 1'
_cell_length_a   7.28555498
_cell_length_b   7.25917481
_cell_length_c   7.25917587
_cell_angle_alpha   59.99999959
_cell_angle_beta   60.11970545
_cell_angle_gamma   60.11969885
_symmetry_Int_Tables_number   1
_chemical_formula_structural   Ir3RuPb4O13
_chemical_formula_sum   'Ir3 Ru1 Pb4 O13'
_cell_volume   271.96036609
_cell_formula_units_Z   1
loop_
 _symmetry_equiv_pos_site_id
 _symmetry_equiv_pos_as_xyz
  1  'x, y, z'
loop_
 _atom_site_type_symbol
 _atom_site_label
 _atom_site_symmetry_multiplicity
 _atom_site_fract_x
 _atom_site_fract_y
 _atom_site_fract_z
 _atom_site_occupancy
  Ir  Ir0  1  0.87455587  0.37542869  0.87500772  1
  Ir  Ir1  1  0.87455587  0.87500772  0.37542869  1
  Ir  Ir2  1  0.87455587  0.87500772  0.87500772  1
  Ru  Ru0  1  0.37438496  0.87520435  0.87520435  1
  Pb  Pb0  1  0.88055953  0.37314682  0.37314682  1
  Pb  Pb1  1  0.37313844  0.37291334  0.37291334  1
  Pb  Pb2  1  0.37313844  0.37291334  0.88103388  1
  Pb  Pb3  1  0.37313844  0.88103388  0.37291334  1
  O  O0  1  0.20236784  0.79864857  0.79864857  1
  O  O1  1  0.20236784  0.79864857  0.20033402  1
  O  O2  1  0.55091362  0.94719126  0.94719126  1
  O  O3  1  0.55091362  0.94719126  0.55470385  1
  O  O4  1  0.95389317  0.94986291  0.54812196  1
  O  O5  1  0.79339656  0.79643697  0.20508323  1
  O  O6  1  0.55091362  0.55470385  0.94719126  1
  O  O7  1  0.79339656  0.20508323  0.79643697  1
  O  O8  1  0.79339656  0.20508323  0.20508323  1
  O  O9  1  0.95389317  0.54812196  0.94986291  1
  O  O10  1  0.95389317  0.54812196  0.54812196  1
  O  O11  1  0.20236784  0.20033402  0.79864857  1
  O  O12  1  0.50025699  0.49991434  0.49991434  1
loop_
_geom_bond_atom_site_label_1
_geom_bond_atom_site_label_2
_geom_bond_distance
_geom_bond_site_symmetry_2
Ir0 O9 1.979151 1_555
Ir0 O10 1.979152 1_555
Ir0 O6 1.980239 1_555
Ir0 O7 1.993457 1_555
Ir0 O8 1.993457 1_556
Ir0 O11 1.996900 1_655
Ir1 O10 1.979151 1_555
Ir1 O4 1.979152 1_555
Ir1 O3 1.980240 1_555
Ir1 O8 1.993457 1_565
Ir1 O5 1.993457 1_555
Ir1 O1 1.996900 1_655
Ir2 O9 1.979151 1_555
Ir2 O4 1.979152 1_555
Ir2 O2 1.980239 1_555
Ir2 O7 1.993457 1_565
Ir2 O5 1.993457 1_556
Ir2 O0 1.996899 1_655
O0 Ru0 1.971043 1_555
O0 Pb2 2.553170 1_555
O0 Pb3 2.553171 1_555
O1 Ru0 1.971049 1_554
O1 Pb1 2.553170 1_555
O1 Pb3 2.553170 1_555
O2 Ru0 1.952585 1_555
O2 Pb2 2.570239 1_565
O2 Pb3 2.570239 1_556
O3 Ru0 1.952575 1_555
O3 Pb1 2.570240 1_565
O3 Pb3 2.570245 1_555
O4 Pb3 2.537907 1_655
O4 Pb0 2.545156 1_565
O5 Pb3 2.528652 1_555
O5 Pb0 2.532262 1_555
O6 Ru0 1.952574 1_555
O6 Pb1 2.570240 1_556
O6 Pb2 2.570245 1_555
O7 Pb2 2.528652 1_555
O7 Pb0 2.532263 1_555
O8 Pb1 2.528651 1_555
O8 Pb0 2.532263 1_555
O9 Pb2 2.537906 1_655
O9 Pb0 2.545157 1_556
O10 Pb1 2.537908 1_655
O10 Pb0 2.545156 1_555
O11 Ru0 1.971048 1_545
O11 Pb2 2.553170 1_555
O11 Pb1 2.553171 1_555
O12 Pb3 2.260302 1_555
O12 Pb2 2.260303 1_555
O12 Pb1 2.260308 1_555
O12 Pb0 2.266364 1_555
