# generated using pymatgen
data_Cs3ScSb2
_symmetry_space_group_name_H-M   'P 1'
_cell_length_a   10.28529748
_cell_length_b   10.28529707
_cell_length_c   10.28529775
_cell_angle_alpha   127.02466169
_cell_angle_beta   70.65969688
_cell_angle_gamma   136.80425466
_symmetry_Int_Tables_number   1
_chemical_formula_structural   Cs3ScSb2
_chemical_formula_sum   'Cs6 Sc2 Sb4'
_cell_volume   582.91822839
_cell_formula_units_Z   2
loop_
 _symmetry_equiv_pos_site_id
 _symmetry_equiv_pos_as_xyz
  1  'x, y, z'
loop_
 _atom_site_type_symbol
 _atom_site_label
 _atom_site_symmetry_multiplicity
 _atom_site_fract_x
 _atom_site_fract_y
 _atom_site_fract_z
 _atom_site_occupancy
  Cs  Cs0  1  0.31823229  0.71343336  0.03166565  1
  Cs  Cs1  1  0.18176771  0.21343336  0.39520108  1
  Cs  Cs2  1  0.75000000  0.25000000  0.50000000  1
  Cs  Cs3  1  0.25000000  0.74999900  0.49999900  1
  Cs  Cs4  1  0.81823229  0.78656764  0.60479992  1
  Cs  Cs5  1  0.68176771  0.28656764  0.96833535  1
  Sc  Sc0  1  0.25000000  0.25000000  0.00000000  1
  Sc  Sc1  1  0.75000000  0.75000000  0.00000000  1
  Sb  Sb0  1  0.90979343  0.17615431  0.08594674  1
  Sb  Sb1  1  0.59020757  0.67615531  0.26636188  1
  Sb  Sb2  1  0.40979243  0.32384469  0.73363712  1
  Sb  Sb3  1  0.09020757  0.82384469  0.91405226  1
loop_
_geom_bond_atom_site_label_1
_geom_bond_atom_site_label_2
_geom_bond_distance
_geom_bond_site_symmetry_2
Cs0 Sb2 3.890608 1_554
Cs0 Sb3 3.958568 1_554
Cs0 Sb0 4.100149 1_455
Cs0 Sb0 4.100156 1_565
Cs1 Sb3 3.890609 1_544
Cs1 Sb2 3.958568 1_555
Cs1 Sb1 4.100149 1_445
Cs1 Sb1 4.100156 1_555
Cs2 Sb1 3.834425 1_545
Cs2 Sb2 3.834427 1_555
Cs2 Sb3 3.834427 1_655
Cs2 Sb0 3.834436 1_555
Cs3 Sb1 3.834422 1_555
Cs3 Sb0 3.834425 1_455
Cs3 Sb2 3.834434 1_565
Cs3 Sb3 3.834434 1_555
Cs4 Sb0 3.890591 1_566
Cs4 Sb1 3.958580 1_555
Cs4 Sb2 4.100148 1_555
Cs4 Sb2 4.100148 1_665
Cs5 Sb1 3.890599 1_556
Cs5 Sb0 3.958582 1_556
Cs5 Sb3 4.100148 1_655
Cs5 Sb3 4.100148 1_545
Sb0 Sc0 2.913246 1_655
Sb0 Sc1 2.913251 1_545
Sb1 Sc1 2.913251 1_555
Sb1 Sc0 2.913256 1_555
Sb2 Sc0 2.913261 1_556
Sb2 Sc1 2.913261 1_556
Sb3 Sc0 2.913261 1_566
Sb3 Sc1 2.913261 1_456
