# generated using pymatgen
data_Lu16Cd4Co3Os
_symmetry_space_group_name_H-M   'P 1'
_cell_length_a   9.30200562
_cell_length_b   9.30200610
_cell_length_c   9.30200483
_cell_angle_alpha   59.50594065
_cell_angle_beta   59.50593719
_cell_angle_gamma   59.50594259
_symmetry_Int_Tables_number   1
_chemical_formula_structural   Lu16Cd4Co3Os
_chemical_formula_sum   'Lu16 Cd4 Co3 Os1'
_cell_volume   562.73962315
_cell_formula_units_Z   1
loop_
 _symmetry_equiv_pos_site_id
 _symmetry_equiv_pos_as_xyz
  1  'x, y, z'
loop_
 _atom_site_type_symbol
 _atom_site_label
 _atom_site_symmetry_multiplicity
 _atom_site_fract_x
 _atom_site_fract_y
 _atom_site_fract_z
 _atom_site_occupancy
  Lu  Lu0  1  0.43811821  0.43811821  0.05700908  1
  Lu  Lu1  1  0.59531597  0.59531597  0.59531597  1
  Lu  Lu2  1  0.18771954  0.81238250  0.81238250  1
  Lu  Lu3  1  0.06109687  0.06109687  0.43794771  1
  Lu  Lu4  1  0.43794771  0.06109687  0.06109687  1
  Lu  Lu5  1  0.81238250  0.18771954  0.81238250  1
  Lu  Lu6  1  0.43811821  0.05700908  0.43811821  1
  Lu  Lu7  1  0.60097972  0.20931422  0.60097972  1
  Lu  Lu8  1  0.81238250  0.81238250  0.18771954  1
  Lu  Lu9  1  0.20931422  0.60097972  0.60097972  1
  Lu  Lu10  1  0.80504923  0.19116688  0.19116688  1
  Lu  Lu11  1  0.05700908  0.43811821  0.43811821  1
  Lu  Lu12  1  0.19116688  0.80504923  0.19116688  1
  Lu  Lu13  1  0.60097972  0.60097972  0.20931422  1
  Lu  Lu14  1  0.19116688  0.19116688  0.80504923  1
  Lu  Lu15  1  0.06109687  0.43794771  0.06109687  1
  Cd  Cd0  1  0.82990890  0.82990890  0.50816744  1
  Cd  Cd1  1  0.83048056  0.83048056  0.83048056  1
  Cd  Cd2  1  0.50816744  0.82990890  0.82990890  1
  Cd  Cd3  1  0.82990890  0.50816744  0.82990890  1
  Co  Co0  1  0.83027241  0.38999047  0.38999047  1
  Co  Co1  1  0.38999047  0.83027241  0.38999047  1
  Co  Co2  1  0.38999047  0.38999047  0.83027241  1
  Os  Os0  1  0.39143973  0.39143973  0.39143973  1
loop_
_geom_bond_atom_site_label_1
_geom_bond_atom_site_label_2
_geom_bond_distance
_geom_bond_site_symmetry_2
Lu0 Os0 2.739380 1_555
Lu0 Lu5 3.439878 1_554
Lu0 Lu2 3.439878 1_554
Lu0 Lu10 3.455461 1_555
Lu0 Lu12 3.455462 1_555
Lu1 Lu8 3.335818 1_555
Lu1 Lu2 3.335818 1_555
Lu1 Lu5 3.335818 1_555
Lu2 Lu9 3.301087 1_555
Lu2 Lu6 3.439877 1_565
Lu2 Lu8 3.465282 1_456
Lu2 Lu5 3.465282 1_465
Lu2 Lu3 3.477196 1_565
Lu3 Lu5 3.477196 1_455
Lu4 Lu5 3.477197 1_554
Lu4 Lu8 3.477197 1_545
Lu5 Lu7 3.301087 1_555
Lu5 Lu8 3.465282 1_546
Lu6 Os0 2.739380 1_555
Lu6 Lu8 3.439878 1_545
Lu7 Os0 2.760716 1_555
Lu9 Os0 2.760715 1_555
Lu10 Os0 3.273729 1_555
Lu10 Lu7 3.338802 1_555
Lu10 Lu13 3.338803 1_555
Lu10 Lu6 3.455461 1_555
Lu10 Lu3 3.494524 1_655
Lu10 Lu15 3.494524 1_655
Lu10 Lu5 3.505557 1_554
Lu10 Lu8 3.505558 1_545
Lu10 Lu14 3.564813 1_654
Lu10 Lu12 3.564814 1_645
Lu11 Os0 2.739380 1_555
Lu11 Lu5 3.439877 1_455
Lu11 Lu8 3.439878 1_455
Lu11 Lu14 3.455461 1_555
Lu11 Lu12 3.455461 1_555
Lu12 Os0 3.273729 1_555
Lu12 Lu9 3.338802 1_555
Lu12 Lu13 3.338803 1_555
Lu12 Lu3 3.494524 1_565
Lu12 Lu4 3.494524 1_565
Lu12 Lu2 3.505557 1_554
Lu12 Lu8 3.505557 1_455
Lu12 Lu14 3.564814 1_564
Lu13 Os0 2.760716 1_555
Lu13 Lu8 3.301087 1_555
Lu14 Os0 3.273729 1_555
Lu14 Lu7 3.338802 1_555
Lu14 Lu9 3.338803 1_555
Lu14 Lu6 3.455461 1_555
Lu14 Lu15 3.494524 1_556
Lu14 Lu4 3.494524 1_556
Lu14 Lu5 3.505557 1_455
Lu14 Lu2 3.505558 1_545
Lu15 Lu2 3.477197 1_554
Lu15 Lu8 3.477197 1_455
Cd0 Cd2 2.970463 1_555
Cd0 Cd3 2.970463 1_555
Cd0 Cd1 3.003564 1_555
Cd0 Lu12 3.144476 1_655
Cd0 Lu10 3.144477 1_565
Cd0 Lu8 3.154640 1_555
Cd0 Lu9 3.366687 1_655
Cd0 Lu7 3.366687 1_565
Cd0 Lu6 3.371747 1_565
Cd0 Lu11 3.371747 1_655
Cd0 Lu1 3.379820 1_555
Cd0 Lu3 3.393882 1_665
Cd1 Cd2 3.003565 1_555
Cd1 Cd3 3.003565 1_555
Cd1 Lu8 3.161093 1_556
Cd1 Lu2 3.161093 1_655
Cd1 Lu5 3.161093 1_565
Cd1 Lu13 3.299731 1_556
Cd1 Lu9 3.299731 1_655
Cd1 Lu7 3.299731 1_565
Cd1 Lu3 3.362643 1_665
Cd1 Lu4 3.362643 1_566
Cd1 Lu15 3.362644 1_656
Cd2 Cd3 2.970464 1_555
Cd2 Lu12 3.144476 1_556
Cd2 Lu14 3.144477 1_565
Cd2 Lu2 3.154640 1_555
Cd2 Lu13 3.366686 1_556
Cd2 Lu7 3.366687 1_565
Cd2 Lu6 3.371747 1_565
Cd2 Lu0 3.371747 1_556
Cd2 Lu1 3.379820 1_555
Cd2 Lu4 3.393882 1_566
Cd3 Lu10 3.144477 1_556
Cd3 Lu14 3.144477 1_655
Cd3 Lu5 3.154641 1_555
Cd3 Lu13 3.366686 1_556
Cd3 Lu9 3.366687 1_655
Cd3 Lu11 3.371747 1_655
Cd3 Lu0 3.371747 1_556
Cd3 Lu1 3.379820 1_555
Cd3 Lu15 3.393882 1_656
Co0 Lu11 2.639913 1_655
Co0 Lu15 2.662551 1_655
Co0 Lu3 2.662551 1_655
Co0 Lu7 2.695861 1_555
Co0 Lu13 2.695861 1_555
Co0 Lu1 2.702161 1_555
Co0 Lu5 3.340204 1_555
Co0 Lu8 3.340204 1_555
Co0 Lu10 3.353846 1_555
Co1 Lu6 2.639913 1_565
Co1 Lu4 2.662551 1_565
Co1 Lu3 2.662551 1_565
Co1 Lu13 2.695861 1_555
Co1 Lu9 2.695861 1_555
Co1 Lu1 2.702161 1_555
Co1 Lu2 3.340203 1_555
Co1 Lu8 3.340204 1_555
Co1 Lu12 3.353846 1_555
Co2 Lu0 2.639913 1_556
Co2 Lu15 2.662551 1_556
Co2 Lu4 2.662551 1_556
Co2 Lu7 2.695861 1_555
Co2 Lu9 2.695861 1_555
Co2 Lu1 2.702161 1_555
Co2 Lu5 3.340204 1_555
Co2 Lu2 3.340204 1_555
Co2 Lu14 3.353847 1_555
