# generated using pymatgen
data_Ca5Cd(BiN)2
_symmetry_space_group_name_H-M   'P 1'
_cell_length_a   6.99883474
_cell_length_b   6.99819930
_cell_length_c   9.33006590
_cell_angle_alpha   90.00000000
_cell_angle_beta   90.00000000
_cell_angle_gamma   90.00000000
_symmetry_Int_Tables_number   1
_chemical_formula_structural   Ca5Cd(BiN)2
_chemical_formula_sum   'Ca10 Cd2 Bi4 N4'
_cell_volume   456.97953988
_cell_formula_units_Z   2
loop_
 _symmetry_equiv_pos_site_id
 _symmetry_equiv_pos_as_xyz
  1  'x, y, z'
loop_
 _atom_site_type_symbol
 _atom_site_label
 _atom_site_symmetry_multiplicity
 _atom_site_fract_x
 _atom_site_fract_y
 _atom_site_fract_z
 _atom_site_occupancy
  Ca  Ca0  1  0.74954454  0.74955458  0.98665633  1
  Ca  Ca1  1  0.75045546  0.24955458  0.51334367  1
  Ca  Ca2  1  0.25040754  0.25040076  0.51477207  1
  Ca  Ca3  1  0.24959246  0.75040076  0.98522793  1
  Ca  Ca4  1  0.25040754  0.25040076  0.98522793  1
  Ca  Ca5  1  0.24959246  0.75040076  0.51477207  1
  Ca  Ca6  1  0.74954454  0.74955458  0.51334367  1
  Ca  Ca7  1  0.75045546  0.24955458  0.98665633  1
  Ca  Ca8  1  0.49883205  0.00004965  0.25000000  1
  Ca  Ca9  1  0.00116795  0.50004965  0.25000000  1
  Cd  Cd0  1  0.50221020  0.00007916  0.75000000  1
  Cd  Cd1  1  0.99778980  0.50007916  0.75000000  1
  Bi  Bi0  1  0.49993098  0.50009521  0.25000000  1
  Bi  Bi1  1  0.00006902  0.00009521  0.25000000  1
  Bi  Bi2  1  0.50073992  0.49988585  0.75000000  1
  Bi  Bi3  1  0.99926008  0.99988585  0.75000000  1
  N  N0  1  0.00010458  0.49998922  0.99337084  1
  N  N1  1  0.49989542  0.99998922  0.50662916  1
  N  N2  1  0.00010458  0.49998922  0.50662916  1
  N  N3  1  0.49989542  0.99998922  0.99337084  1
loop_
_geom_bond_atom_site_label_1
_geom_bond_atom_site_label_2
_geom_bond_distance
_geom_bond_site_symmetry_2
Ca0 N3 2.475559 1_555
Ca0 N0 2.475768 1_655
Ca1 N2 2.475559 1_655
Ca1 N1 2.475768 1_545
Ca2 N2 2.474981 1_555
Ca2 N1 2.475022 1_545
Ca3 N3 2.474981 1_555
Ca3 N0 2.475022 1_555
Ca4 N0 2.474981 1_555
Ca4 N3 2.475022 1_545
Ca5 N1 2.474981 1_555
Ca5 N2 2.475022 1_555
Ca6 N1 2.475559 1_555
Ca6 N2 2.475768 1_655
Ca7 N0 2.475559 1_655
Ca7 N3 2.475768 1_545
Ca8 N1 2.394379 1_545
Ca8 N3 2.394379 1_544
Ca9 N2 2.394379 1_555
Ca9 N0 2.394379 1_554
Cd0 N3 2.270724 1_545
Cd0 N1 2.270724 1_545
Cd1 N0 2.270724 1_655
Cd1 N2 2.270724 1_655
Bi0 Ca6 3.483768 1_555
Bi0 Ca0 3.483768 1_554
Bi0 Ca9 3.490760 1_555
Bi0 Ca1 3.490764 1_555
Bi0 Ca7 3.490764 1_554
Bi0 Ca2 3.493687 1_555
Bi0 Ca4 3.493687 1_554
Bi0 Ca5 3.498681 1_555
Bi0 Ca3 3.498681 1_554
Bi0 Ca8 3.498789 1_565
Bi0 Ca8 3.499427 1_555
Bi0 Ca9 3.508075 1_655
Bi1 Ca1 3.483768 1_455
Bi1 Ca7 3.483768 1_454
Bi1 Ca8 3.490760 1_555
Bi1 Ca6 3.490764 1_445
Bi1 Ca0 3.490764 1_444
Bi1 Ca5 3.493687 1_545
Bi1 Ca3 3.493687 1_544
Bi1 Ca2 3.498681 1_555
Bi1 Ca4 3.498681 1_554
Bi1 Ca9 3.498789 1_555
Bi1 Ca9 3.499427 1_545
Bi1 Ca8 3.508075 1_455
Bi2 Ca4 3.306755 1_555
Bi2 Ca2 3.306755 1_555
Bi2 Ca0 3.310656 1_555
Bi2 Ca6 3.310656 1_555
Bi2 Ca3 3.313588 1_555
Bi2 Ca5 3.313588 1_555
Bi2 Ca7 3.316460 1_555
Bi2 Ca1 3.316460 1_555
Bi2 Cd1 3.478770 1_555
Bi2 Cd0 3.497762 1_555
Bi2 Cd0 3.500468 1_565
Bi2 Cd1 3.520065 1_455
Bi3 Ca3 3.306755 1_655
Bi3 Ca5 3.306755 1_655
Bi3 Ca7 3.310656 1_565
Bi3 Ca1 3.310656 1_565
Bi3 Ca4 3.313588 1_665
Bi3 Ca2 3.313588 1_665
Bi3 Ca0 3.316460 1_555
Bi3 Ca6 3.316460 1_555
Bi3 Cd0 3.478770 1_565
Bi3 Cd1 3.497762 1_555
Bi3 Cd1 3.500468 1_565
Bi3 Cd0 3.520065 1_665
