# generated using pymatgen
data_BaYTc4N7
_symmetry_space_group_name_H-M   'P 1'
_cell_length_a   6.39766308
_cell_length_b   6.40107218
_cell_length_c   10.43980703
_cell_angle_alpha   90.00016667
_cell_angle_beta   89.99963324
_cell_angle_gamma   119.97641950
_symmetry_Int_Tables_number   1
_chemical_formula_structural   BaYTc4N7
_chemical_formula_sum   'Ba2 Y2 Tc8 N14'
_cell_volume   370.33975711
_cell_formula_units_Z   2
loop_
 _symmetry_equiv_pos_site_id
 _symmetry_equiv_pos_as_xyz
  1  'x, y, z'
loop_
 _atom_site_type_symbol
 _atom_site_label
 _atom_site_symmetry_multiplicity
 _atom_site_fract_x
 _atom_site_fract_y
 _atom_site_fract_z
 _atom_site_occupancy
  Ba  Ba0  1  0.33347470  0.66678704  0.34991380  1
  Ba  Ba1  1  0.66651945  0.33320500  0.84986688  1
  Y  Y0  1  0.33323177  0.66629109  0.72593693  1
  Y  Y1  1  0.66677339  0.33370423  0.22594886  1
  Tc  Tc0  1  0.16173726  0.32345788  0.04765444  1
  Tc  Tc1  1  0.83827170  0.67656221  0.54767231  1
  Tc  Tc2  1  0.67580356  0.83778520  0.04746500  1
  Tc  Tc3  1  0.16198690  0.83778824  0.04757247  1
  Tc  Tc4  1  0.83801536  0.16220074  0.54759000  1
  Tc  Tc5  1  0.32418014  0.16220387  0.54747766  1
  Tc  Tc6  1  0.99998807  0.00014083  0.35662751  1
  Tc  Tc7  1  0.00001010  0.99985866  0.85662980  1
  N  N0  1  0.02393948  0.51176480  0.10088883  1
  N  N1  1  0.97605049  0.48822303  0.60090035  1
  N  N2  1  0.48795282  0.51170355  0.10064955  1
  N  N3  1  0.48807502  0.97608332  0.10133477  1
  N  N4  1  0.51193137  0.02392973  0.60134994  1
  N  N5  1  0.51204722  0.48828444  0.60065387  1
  N  N6  1  0.83115410  0.66277696  0.36116283  1
  N  N7  1  0.16884595  0.33722240  0.86114351  1
  N  N8  1  0.33751152  0.16883227  0.36107131  1
  N  N9  1  0.83097985  0.16870383  0.36118109  1
  N  N10  1  0.16901889  0.83130190  0.86115518  1
  N  N11  1  0.66249566  0.83117427  0.86105247  1
  N  N12  1  0.99975963  0.99969762  0.13243811  1
  N  N13  1  0.00024659  0.00031588  0.63246155  1
loop_
_geom_bond_atom_site_label_1
_geom_bond_atom_site_label_2
_geom_bond_distance
_geom_bond_site_symmetry_2
Ba0 N3 3.110597 1_555
Ba0 N0 3.114719 1_555
Ba0 N2 3.116784 1_555
Ba0 N6 3.199045 1_555
Ba0 N9 3.201245 1_565
Ba0 N8 3.202546 1_555
Ba0 N8 3.202920 1_565
Ba0 N6 3.203083 1_455
Ba0 N9 3.204912 1_455
Ba0 N5 3.281382 1_555
Ba0 N1 3.284692 1_455
Ba0 N4 3.288142 1_565
Ba1 N4 3.109993 1_555
Ba1 N1 3.114180 1_555
Ba1 N5 3.116322 1_555
Ba1 N7 3.199040 1_555
Ba1 N10 3.201193 1_545
Ba1 N11 3.202606 1_555
Ba1 N11 3.202880 1_545
Ba1 N7 3.203109 1_655
Ba1 N10 3.204979 1_655
Ba1 N2 3.281687 1_556
Ba1 N0 3.284990 1_656
Ba1 N3 3.288335 1_546
N0 Tc0 1.897584 1_555
N0 Tc3 1.898205 1_555
N0 Y1 2.371170 1_455
N1 Tc1 1.897654 1_555
N1 Tc4 1.898186 1_555
N1 Y0 2.371118 1_655
N2 Tc0 1.897551 1_555
N2 Tc2 1.898057 1_555
N2 Y1 2.370809 1_555
N3 Tc2 1.898648 1_555
N3 Tc3 1.898802 1_555
N3 Y1 2.371606 1_565
N4 Tc5 1.898667 1_555
N4 Tc4 1.898779 1_555
N4 Y0 2.371532 1_545
N5 Tc1 1.897567 1_555
N5 Tc5 1.898036 1_555
N5 Y0 2.370714 1_555
N6 Tc6 1.871217 1_565
N6 Tc1 1.948623 1_555
N6 Y1 2.306939 1_555
N7 Tc7 1.871211 1_545
N7 Tc0 1.948634 1_556
N7 Y0 2.306874 1_555
N8 Tc6 1.871082 1_455
N8 Tc5 1.947448 1_555
N8 Y1 2.306410 1_555
N9 Tc6 1.871206 1_555
N9 Tc4 1.947520 1_555
N9 Y1 2.306754 1_555
N10 Tc7 1.871167 1_555
N10 Tc3 1.947602 1_556
N10 Y0 2.306726 1_555
N11 Tc7 1.871026 1_655
N11 Tc2 1.947508 1_556
N11 Y0 2.306388 1_555
N12 Tc0 2.001536 1_665
N12 Tc2 2.002532 1_555
N12 Tc3 2.002779 1_655
N12 Tc6 2.340495 1_565
N13 Tc1 2.001530 1_445
N13 Tc5 2.002461 1_555
N13 Tc4 2.002712 1_455
N13 Tc7 2.340275 1_545
