# generated using pymatgen
data_La2CdSe4
_symmetry_space_group_name_H-M   'P 1'
_cell_length_a   7.87427868
_cell_length_b   7.87427868
_cell_length_c   7.87427868
_cell_angle_alpha   110.88918497
_cell_angle_beta   110.88918497
_cell_angle_gamma   106.67106014
_symmetry_Int_Tables_number   1
_chemical_formula_structural   La2CdSe4
_chemical_formula_sum   'La4 Cd2 Se8'
_cell_volume   375.17733592
_cell_formula_units_Z   2
loop_
 _symmetry_equiv_pos_site_id
 _symmetry_equiv_pos_as_xyz
  1  'x, y, z'
loop_
 _atom_site_type_symbol
 _atom_site_label
 _atom_site_symmetry_multiplicity
 _atom_site_fract_x
 _atom_site_fract_y
 _atom_site_fract_z
 _atom_site_occupancy
  La  La0  1  0.37500000  0.98695700  0.11195700  1
  La  La1  1  0.73695700  0.62500000  0.61195700  1
  La  La2  1  0.87500000  0.26304300  0.88804300  1
  La  La3  1  0.01304300  0.12500000  0.38804300  1
  Cd  Cd0  1  0.25000000  0.75000000  0.50000000  1
  Cd  Cd1  1  0.50000000  0.50000000  0.00000000  1
  Se  Se0  1  0.00543300  0.74116900  0.12547600  1
  Se  Se1  1  0.62995700  0.86569400  0.37452400  1
  Se  Se2  1  0.25883100  0.38430600  0.26426300  1
  Se  Se3  1  0.61569400  0.87995700  0.87452400  1
  Se  Se4  1  0.49116900  0.25543300  0.62547600  1
  Se  Se5  1  0.13430600  0.50883100  0.76426300  1
  Se  Se6  1  0.74456700  0.37004300  0.23573700  1
  Se  Se7  1  0.12004300  0.99456700  0.73573700  1
loop_
_geom_bond_atom_site_label_1
_geom_bond_atom_site_label_2
_geom_bond_distance
_geom_bond_site_symmetry_2
La0 Se7 2.960505 1_554
La0 Se1 2.960505 1_555
La0 Se6 3.059737 1_565
La0 Se0 3.059740 1_555
La0 Se5 3.180760 1_554
La0 Se3 3.180766 1_554
La0 Se2 3.437040 1_565
La0 Se4 3.437047 1_565
La1 Se6 2.960505 1_555
La1 Se3 2.960505 1_555
La1 Se7 3.059737 1_655
La1 Se4 3.059740 1_555
La1 Se2 3.180760 1_555
La1 Se1 3.180766 1_555
La1 Se5 3.437040 1_655
La1 Se0 3.437047 1_656
La2 Se2 2.960510 1_656
La2 Se4 2.960511 1_555
La2 Se3 3.059737 1_545
La2 Se5 3.059742 1_655
La2 Se0 3.180759 1_656
La2 Se6 3.180766 1_556
La2 Se7 3.437045 1_645
La2 Se1 3.437045 1_545
La3 Se5 2.960510 1_555
La3 Se0 2.960511 1_545
La3 Se1 3.059737 1_445
La3 Se2 3.059742 1_555
La3 Se4 3.180759 1_555
La3 Se7 3.180766 1_545
La3 Se6 3.437045 1_455
La3 Se3 3.437045 1_444
Cd0 Se0 2.852642 1_555
Cd0 Se3 2.852646 1_555
Cd0 Se7 2.852646 1_555
Cd0 Se2 2.852651 1_555
Cd1 Se4 2.852642 1_554
Cd1 Se1 2.852646 1_555
Cd1 Se6 2.852646 1_555
Cd1 Se5 2.852651 1_554
