# generated using pymatgen
data_Al6Cu2NiRh
_symmetry_space_group_name_H-M   'P 1'
_cell_length_a   4.10628036
_cell_length_b   4.10628037
_cell_length_c   9.92897684
_cell_angle_alpha   90.00000000
_cell_angle_beta   90.00000000
_cell_angle_gamma   120.00001548
_symmetry_Int_Tables_number   1
_chemical_formula_structural   Al6Cu2NiRh
_chemical_formula_sum   'Al6 Cu2 Ni1 Rh1'
_cell_volume   144.98806644
_cell_formula_units_Z   1
loop_
 _symmetry_equiv_pos_site_id
 _symmetry_equiv_pos_as_xyz
  1  'x, y, z'
loop_
 _atom_site_type_symbol
 _atom_site_label
 _atom_site_symmetry_multiplicity
 _atom_site_fract_x
 _atom_site_fract_y
 _atom_site_fract_z
 _atom_site_occupancy
  Al  Al0  1  0.66666700  0.33333300  0.17640840  1
  Al  Al1  1  0.66666700  0.33333300  0.68556993  1
  Al  Al2  1  0.00000000  0.00000000  0.32336509  1
  Al  Al3  1  0.00000000  0.00000000  0.82831443  1
  Al  Al4  1  0.33333300  0.66666700  0.98452489  1
  Al  Al5  1  0.33333300  0.66666700  0.48598584  1
  Cu  Cu0  1  0.00000000  0.00000000  0.07336009  1
  Cu  Cu1  1  0.00000000  0.00000000  0.58226681  1
  Ni  Ni0  1  0.66666700  0.33333300  0.93002997  1
  Rh  Rh0  1  0.66666700  0.33333300  0.43017153  1
loop_
_geom_bond_atom_site_label_1
_geom_bond_atom_site_label_2
_geom_bond_distance
_geom_bond_site_symmetry_2
Al0 Ni0 2.446286 1_554
Al0 Rh0 2.519608 1_555
Al0 Cu0 2.582125 1_655
Al0 Cu0 2.582127 1_555
Al0 Cu0 2.582127 1_665
Al0 Al2 2.783803 1_655
Al0 Al2 2.783806 1_555
Al0 Al2 2.783806 1_665
Al1 Ni0 2.427238 1_555
Al1 Rh0 2.535845 1_555
Al1 Cu1 2.583128 1_655
Al1 Cu1 2.583131 1_555
Al1 Cu1 2.583131 1_665
Al1 Al3 2.762112 1_655
Al1 Al3 2.762114 1_555
Al1 Al3 2.762114 1_665
Al2 Cu0 2.482294 1_555
Al2 Cu1 2.570629 1_555
Al2 Rh0 2.597136 1_455
Al2 Rh0 2.597139 1_555
Al2 Rh0 2.597139 1_445
Al2 Al5 2.868383 1_545
Al2 Al5 2.868386 1_445
Al2 Al5 2.868386 1_555
Al3 Cu0 2.433053 1_556
Al3 Cu1 2.443001 1_555
Al3 Ni0 2.576910 1_455
Al3 Ni0 2.576912 1_555
Al3 Ni0 2.576912 1_445
Al3 Al4 2.833043 1_545
Al3 Al4 2.833046 1_445
Al3 Al4 2.833046 1_555
Al4 Ni0 2.431721 1_455
Al4 Ni0 2.431721 1_565
Al4 Ni0 2.431728 1_555
Al4 Cu0 2.529526 1_566
Al4 Cu0 2.529529 1_666
Al4 Cu0 2.529529 1_556
Al5 Rh0 2.434669 1_455
Al5 Rh0 2.434669 1_565
Al5 Rh0 2.434677 1_555
Al5 Cu1 2.556244 1_565
Al5 Cu1 2.556247 1_665
Al5 Cu1 2.556247 1_555
Cu0 Ni0 2.765100 1_454
Cu0 Ni0 2.765102 1_554
Cu0 Ni0 2.765102 1_444
Cu1 Rh0 2.810882 1_455
Cu1 Rh0 2.810884 1_555
Cu1 Rh0 2.810884 1_445
