# generated using pymatgen
data_CdInGaTe4
_symmetry_space_group_name_H-M   'P 1'
_cell_length_a   7.58640513
_cell_length_b   7.58640384
_cell_length_c   7.58640403
_cell_angle_alpha   131.49104482
_cell_angle_beta   131.49104985
_cell_angle_gamma   71.03406386
_symmetry_Int_Tables_number   1
_chemical_formula_structural   CdInGaTe4
_chemical_formula_sum   'Cd1 In1 Ga1 Te4'
_cell_volume   239.88426998
_cell_formula_units_Z   1
loop_
 _symmetry_equiv_pos_site_id
 _symmetry_equiv_pos_as_xyz
  1  'x, y, z'
loop_
 _atom_site_type_symbol
 _atom_site_label
 _atom_site_symmetry_multiplicity
 _atom_site_fract_x
 _atom_site_fract_y
 _atom_site_fract_z
 _atom_site_occupancy
  Cd  Cd0  1  0.00000000  0.00000000  0.00000000  1
  In  In0  1  0.25000000  0.75000000  0.50000000  1
  Ga  Ga0  1  0.50000000  0.50000000  0.00000000  1
  Te  Te0  1  0.62659599  0.15719293  0.04750602  1
  Te  Te1  1  0.42090903  0.37340401  0.53059594  1
  Te  Te2  1  0.84280707  0.89031310  0.46940406  1
  Te  Te3  1  0.10968690  0.57909097  0.95249398  1
loop_
_geom_bond_atom_site_label_1
_geom_bond_atom_site_label_2
_geom_bond_distance
_geom_bond_site_symmetry_2
Cd0 Te2 2.857290 1_444
Cd0 Te3 2.857290 1_544
Cd0 Te1 2.857294 1_555
Cd0 Te0 2.857298 1_455
In0 Te1 2.823039 1_555
In0 Te0 2.823042 1_566
In0 Te3 2.823045 1_554
In0 Te2 2.823046 1_455
Ga0 Te2 2.641119 1_555
Ga0 Te0 2.641119 1_555
Ga0 Te3 2.641119 1_554
Ga0 Te1 2.641122 1_554
