# generated using pymatgen
data_Zr2V2OsW
_symmetry_space_group_name_H-M   'P 1'
_cell_length_a   5.26095435
_cell_length_b   5.24000886
_cell_length_c   5.26095459
_cell_angle_alpha   119.87781558
_cell_angle_beta   120.23670097
_cell_angle_gamma   90.01483260
_symmetry_Int_Tables_number   1
_chemical_formula_structural   Zr2V2OsW
_chemical_formula_sum   'Zr2 V2 Os1 W1'
_cell_volume   102.36034531
_cell_formula_units_Z   1
loop_
 _symmetry_equiv_pos_site_id
 _symmetry_equiv_pos_as_xyz
  1  'x, y, z'
loop_
 _atom_site_type_symbol
 _atom_site_label
 _atom_site_symmetry_multiplicity
 _atom_site_fract_x
 _atom_site_fract_y
 _atom_site_fract_z
 _atom_site_occupancy
  Zr  Zr0  1  0.37448273  0.12339078  0.24890705  1
  Zr  Zr1  1  0.62551727  0.87660922  0.75109295  1
  V  V0  1  0.50000000  0.50000000  0.00000000  1
  V  V1  1  0.00000000  0.50000000  0.50000000  1
  Os  Os0  1  0.00000000  0.00000000  0.50000000  1
  W  W0  1  0.00000000  0.50000000  0.00000000  1
loop_
_geom_bond_atom_site_label_1
_geom_bond_atom_site_label_2
_geom_bond_distance
_geom_bond_site_symmetry_2
Zr0 Zr1 3.207326 1_444
Zr0 Zr1 3.207335 1_545
Zr0 Zr1 3.222686 1_544
Zr0 Zr1 3.224312 1_555
V0 V1 2.621060 1_554
V0 V1 2.621060 1_655
V0 W0 2.630477 1_655
V0 W0 2.630477 1_555
V0 Zr0 3.071089 1_565
V0 Zr1 3.071089 1_544
V0 Zr1 3.080603 1_554
V0 Zr0 3.080603 1_555
V0 Zr1 3.089790 1_555
V0 Zr0 3.089790 1_554
V1 W0 2.630477 1_556
V1 W0 2.630477 1_555
V1 Zr0 3.071086 1_566
V1 Zr1 3.071086 1_444
V1 Zr1 3.080605 1_555
V1 Zr0 3.080605 1_455
V1 Zr0 3.089788 1_555
V1 Zr1 3.089788 1_455
Os0 V0 2.620004 1_556
Os0 V0 2.620004 1_445
Os0 V1 2.620004 1_545
Os0 V1 2.620004 1_555
Os0 W0 2.630103 1_556
Os0 W0 2.630103 1_545
Os0 Zr0 3.076747 1_556
Os0 Zr1 3.076747 1_444
Os0 Zr1 3.076751 1_545
Os0 Zr0 3.076751 1_455
Os0 Zr0 3.084789 1_555
Os0 Zr1 3.084789 1_445
W0 Zr0 3.066484 1_565
W0 Zr1 3.066484 1_444
W0 Zr1 3.077173 1_454
W0 Zr0 3.077173 1_555
W0 Zr1 3.077177 1_555
W0 Zr0 3.077177 1_454
