# generated using pymatgen
data_Ti3Be2PdO
_symmetry_space_group_name_H-M   'P 1'
_cell_length_a   7.79741125
_cell_length_b   7.79778088
_cell_length_c   7.79762469
_cell_angle_alpha   60.00446954
_cell_angle_beta   60.00160811
_cell_angle_gamma   60.00203645
_symmetry_Int_Tables_number   1
_chemical_formula_structural   Ti3Be2PdO
_chemical_formula_sum   'Ti12 Be8 Pd4 O4'
_cell_volume   335.27056625
_cell_formula_units_Z   4
loop_
 _symmetry_equiv_pos_site_id
 _symmetry_equiv_pos_as_xyz
  1  'x, y, z'
loop_
 _atom_site_type_symbol
 _atom_site_label
 _atom_site_symmetry_multiplicity
 _atom_site_fract_x
 _atom_site_fract_y
 _atom_site_fract_z
 _atom_site_occupancy
  Ti  Ti0  1  0.68893482  0.31108632  0.68893023  1
  Ti  Ti1  1  0.93892732  0.56106621  0.56106448  1
  Ti  Ti2  1  0.56106722  0.93892897  0.93893639  1
  Ti  Ti3  1  0.93894140  0.56106895  0.93892671  1
  Ti  Ti4  1  0.56106292  0.56106905  0.93891889  1
  Ti  Ti5  1  0.93894421  0.93892190  0.56106910  1
  Ti  Ti6  1  0.68893708  0.68893095  0.31108111  1
  Ti  Ti7  1  0.31107268  0.68893379  0.68893552  1
  Ti  Ti8  1  0.68893278  0.31107103  0.31106361  1
  Ti  Ti9  1  0.31105579  0.31107810  0.68893090  1
  Ti  Ti10  1  0.56106518  0.93891368  0.56106977  1
  Ti  Ti11  1  0.31105860  0.68893105  0.31107329  1
  Be  Be0  1  0.33015348  0.33021060  0.33019396  1
  Be  Be1  1  0.24055404  0.91978931  0.91980691  1
  Be  Be2  1  0.91981336  0.24058996  0.91977928  1
  Be  Be3  1  0.91982298  0.91977199  0.24057863  1
  Be  Be4  1  0.33018664  0.00941004  0.33022072  1
  Be  Be5  1  0.33017702  0.33022801  0.00942137  1
  Be  Be6  1  0.00944596  0.33021069  0.33019309  1
  Be  Be7  1  0.91984652  0.91978940  0.91980604  1
  Pd  Pd0  1  0.12500000  0.12500000  0.12500000  1
  Pd  Pd1  1  0.62500000  0.12500000  0.12500000  1
  Pd  Pd2  1  0.12500000  0.62500000  0.12500000  1
  Pd  Pd3  1  0.12500000  0.12500000  0.62500000  1
  O  O0  1  0.62500000  0.62500000  0.62500000  1
  O  O1  1  0.12500000  0.62500000  0.62500000  1
  O  O2  1  0.62500000  0.12500000  0.62500000  1
  O  O3  1  0.62500000  0.62500000  0.12500000  1
loop_
_geom_bond_atom_site_label_1
_geom_bond_atom_site_label_2
_geom_bond_distance
_geom_bond_site_symmetry_2
Be0 Pd2 2.368124 1_555
Be0 Pd3 2.368218 1_555
Be0 Pd1 2.368385 1_555
Be1 Pd2 2.368108 1_556
Be1 Pd3 2.368193 1_565
Be1 Pd0 2.368373 1_566
Be2 Pd3 2.368081 1_655
Be2 Pd1 2.368303 1_556
Be2 Pd0 2.368311 1_656
Be3 Pd2 2.368022 1_655
Be3 Pd1 2.368324 1_565
Be3 Pd0 2.368343 1_665
Be4 Pd3 2.368081 1_555
Be4 Pd1 2.368303 1_555
Be4 Pd0 2.368311 1_555
Be5 Pd2 2.368022 1_555
Be5 Pd1 2.368324 1_555
Be5 Pd0 2.368343 1_555
Be6 Pd2 2.368108 1_555
Be6 Pd3 2.368193 1_555
Be6 Pd0 2.368373 1_555
Be7 Pd2 2.368124 1_656
Be7 Pd3 2.368218 1_665
Be7 Pd1 2.368385 1_566
Pd0 Ti2 2.830235 1_544
Pd0 Ti8 2.830235 1_455
Pd0 Ti5 2.830393 1_445
Pd0 Ti9 2.830393 1_554
Pd0 Ti3 2.830447 1_454
Pd0 Ti11 2.830447 1_545
Pd1 Ti8 2.830200 1_555
Pd1 Ti2 2.830200 1_544
Pd1 Ti10 2.830389 1_545
Pd1 Ti0 2.830389 1_554
Pd1 Ti4 2.830445 1_554
Pd1 Ti6 2.830445 1_545
Pd2 Ti11 2.830151 1_555
Pd2 Ti3 2.830151 1_454
Pd2 Ti4 2.830184 1_554
Pd2 Ti6 2.830184 1_455
Pd2 Ti1 2.830302 1_455
Pd2 Ti7 2.830302 1_554
Pd3 Ti9 2.830179 1_555
Pd3 Ti5 2.830179 1_445
Pd3 Ti10 2.830209 1_545
Pd3 Ti0 2.830209 1_455
Pd3 Ti1 2.830384 1_455
Pd3 Ti7 2.830384 1_545
O0 Ti1 2.072890 1_555
O0 Ti7 2.072890 1_555
O0 Ti4 2.072923 1_555
O0 Ti6 2.072923 1_555
O0 Ti10 2.072943 1_555
O0 Ti0 2.072943 1_555
O1 Ti7 2.072981 1_555
O1 Ti1 2.072981 1_455
O1 Ti3 2.072990 1_455
O1 Ti11 2.072990 1_555
O1 Ti5 2.073007 1_455
O1 Ti9 2.073007 1_555
O2 Ti9 2.073063 1_555
O2 Ti5 2.073063 1_545
O2 Ti0 2.073095 1_555
O2 Ti10 2.073095 1_545
O2 Ti2 2.073130 1_545
O2 Ti8 2.073130 1_555
O3 Ti3 2.073025 1_554
O3 Ti11 2.073025 1_555
O3 Ti6 2.073055 1_555
O3 Ti4 2.073055 1_554
O3 Ti2 2.073110 1_554
O3 Ti8 2.073110 1_555
