# generated using pymatgen
data_KHfScSe4
_symmetry_space_group_name_H-M   'P 1'
_cell_length_a   3.87808389
_cell_length_b   8.29020896
_cell_length_c   6.64027589
_cell_angle_alpha   74.10616506
_cell_angle_beta   90.00000000
_cell_angle_gamma   90.00000000
_symmetry_Int_Tables_number   1
_chemical_formula_structural   KHfScSe4
_chemical_formula_sum   'K1 Hf1 Sc1 Se4'
_cell_volume   205.32431361
_cell_formula_units_Z   1
loop_
 _symmetry_equiv_pos_site_id
 _symmetry_equiv_pos_as_xyz
  1  'x, y, z'
loop_
 _atom_site_type_symbol
 _atom_site_label
 _atom_site_symmetry_multiplicity
 _atom_site_fract_x
 _atom_site_fract_y
 _atom_site_fract_z
 _atom_site_occupancy
  K  K0  1  0.50000000  0.49777894  0.65495612  1
  Hf  Hf0  1  0.00000000  0.99702958  0.00242169  1
  Sc  Sc0  1  0.50000000  0.00421561  0.50116642  1
  Se  Se0  1  0.00000000  0.81121255  0.39769279  1
  Se  Se1  1  0.50000000  0.80774100  0.90476929  1
  Se  Se2  1  0.00000000  0.19218001  0.60796751  1
  Se  Se3  1  0.50000000  0.18896232  0.09798318  1
loop_
_geom_bond_atom_site_label_1
_geom_bond_atom_site_label_2
_geom_bond_distance
_geom_bond_site_symmetry_2
K0 Se2 3.272417 1_555
K0 Se2 3.272417 1_655
K0 Se0 3.316440 1_555
K0 Se0 3.316440 1_655
K0 Se3 3.329205 1_556
K0 Se1 3.418990 1_555
Hf0 Se0 2.654728 1_555
Hf0 Se2 2.675272 1_564
Hf0 Se1 2.683320 1_554
Hf0 Se1 2.683320 1_454
Hf0 Se3 2.692091 1_565
Hf0 Se3 2.692091 1_465
Sc0 Se3 2.695841 1_555
Sc0 Se2 2.701166 1_555
Sc0 Se2 2.701166 1_655
Sc0 Se0 2.719234 1_645
Sc0 Se0 2.719234 1_545
Sc0 Se1 2.728500 1_545
