# generated using pymatgen
data_Si12P12Ir3Rh
_symmetry_space_group_name_H-M   'P 1'
_cell_length_a   5.87986744
_cell_length_b   6.07256620
_cell_length_c   13.03641232
_cell_angle_alpha   89.87711362
_cell_angle_beta   90.02767982
_cell_angle_gamma   90.09662808
_symmetry_Int_Tables_number   1
_chemical_formula_structural   Si12P12Ir3Rh
_chemical_formula_sum   'Si12 P12 Ir3 Rh1'
_cell_volume   465.47484393
_cell_formula_units_Z   1
loop_
 _symmetry_equiv_pos_site_id
 _symmetry_equiv_pos_as_xyz
  1  'x, y, z'
loop_
 _atom_site_type_symbol
 _atom_site_label
 _atom_site_symmetry_multiplicity
 _atom_site_fract_x
 _atom_site_fract_y
 _atom_site_fract_z
 _atom_site_occupancy
  Si  Si0  1  0.96851724  0.16135320  0.31773779  1
  Si  Si1  1  0.46663028  0.84086423  0.68162492  1
  Si  Si2  1  0.93086235  0.62785283  0.21497682  1
  Si  Si3  1  0.43060446  0.36978110  0.78550322  1
  Si  Si4  1  0.34006200  0.91540912  0.95103758  1
  Si  Si5  1  0.84012088  0.08310820  0.04893007  1
  Si  Si6  1  0.91738570  0.52945742  0.67265421  1
  Si  Si7  1  0.41507668  0.47040267  0.32732774  1
  Si  Si8  1  0.99911224  0.06279599  0.57036583  1
  Si  Si9  1  0.49738753  0.93870485  0.42936418  1
  Si  Si10  1  0.90626545  0.62332489  0.92767727  1
  Si  Si11  1  0.40600966  0.37555611  0.07232108  1
  P  P0  1  0.57784053  0.02825597  0.82543001  1
  P  P1  1  0.07797698  0.97041071  0.17471478  1
  P  P2  1  0.51637021  0.55933473  0.92957329  1
  P  P3  1  0.01621084  0.43966726  0.07058741  1
  P  P4  1  0.61233634  0.11341471  0.57266394  1
  P  P5  1  0.11078296  0.88770499  0.42692823  1
  P  P6  1  0.54464839  0.64339721  0.18125520  1
  P  P7  1  0.04494127  0.35594754  0.81903549  1
  P  P8  1  0.58051473  0.13322849  0.28861694  1
  P  P9  1  0.08002643  0.86798506  0.71121231  1
  P  P10  1  0.15536636  0.40424234  0.55257203  1
  P  P11  1  0.65331041  0.59793116  0.44760349  1
  Ir  Ir0  1  0.96514479  0.98589068  0.87938155  1
  Ir  Ir1  1  0.46537963  0.01321493  0.12080561  1
  Ir  Ir2  1  0.53765039  0.48480933  0.62018917  1
  Rh  Rh0  1  0.03726923  0.51595628  0.37990685  1
loop_
_geom_bond_atom_site_label_1
_geom_bond_atom_site_label_2
_geom_bond_distance
_geom_bond_site_symmetry_2
P0 Si4 2.258269 1_545
P0 Si1 2.289646 1_545
P0 Si3 2.307076 1_555
P1 Si5 2.260401 1_465
P1 Si0 2.290859 1_465
P1 Si2 2.310991 1_455
P2 Si3 2.261230 1_555
P2 Si11 2.262606 1_556
P2 Si10 2.324720 1_555
P2 Si4 2.416380 1_555
P3 Si2 2.261187 1_455
P3 Si10 2.263848 1_454
P3 Si11 2.325534 1_555
P3 Si5 2.415518 1_455
P4 Si9 2.253247 1_545
P4 Si8 2.295603 1_555
P4 Si1 2.340363 1_545
P5 Si8 2.251728 1_465
P5 Si9 2.293880 1_555
P5 Si0 2.341099 1_465
P5 Rh0 2.379317 1_555
P6 Si7 2.302252 1_555
P6 Si11 2.308894 1_555
P6 Si2 2.314881 1_555
P7 Si6 2.303673 1_455
P7 Si10 2.307057 1_455
P7 Si3 2.310960 1_555
P8 Si9 2.233949 1_545
P8 Si0 2.318667 1_555
P8 Si7 2.324834 1_555
P9 Si8 2.233600 1_465
P9 Si1 2.312061 1_555
P9 Si6 2.321757 1_455
P10 Si6 2.235535 1_455
P10 Si8 2.277905 1_455
P10 Rh0 2.450027 1_555
P11 Si7 2.240506 1_555
P11 Si9 2.276718 1_555
P11 Rh0 2.476111 1_655
Ir0 Si10 2.314185 1_555
Ir0 P0 2.397207 1_565
Ir0 Si5 2.404789 1_566
Ir0 P9 2.405204 1_655
Ir0 P7 2.424486 1_665
Ir0 Si4 2.432064 1_655
Ir1 Si11 2.315012 1_555
Ir1 P1 2.397698 1_545
Ir1 P8 2.403961 1_555
Ir1 Si4 2.407570 1_544
Ir1 P6 2.424294 1_545
Ir1 Si5 2.431120 1_555
Ir2 Si1 2.345546 1_555
Ir2 Si3 2.349878 1_555
Ir2 Si6 2.350309 1_555
Ir2 P4 2.381755 1_555
Ir2 P11 2.447384 1_555
Ir2 P10 2.462746 1_555
Rh0 Si0 2.336968 1_455
Rh0 Si2 2.338792 1_455
Rh0 Si7 2.342133 1_555
