# generated using pymatgen
data_K3Rb6InSb4
_symmetry_space_group_name_H-M   'P 1'
_cell_length_a   10.85975953
_cell_length_b   10.85975994
_cell_length_c   11.40981944
_cell_angle_alpha   90.00000000
_cell_angle_beta   90.00000000
_cell_angle_gamma   119.99999578
_symmetry_Int_Tables_number   1
_chemical_formula_structural   K3Rb6InSb4
_chemical_formula_sum   'K6 Rb12 In2 Sb8'
_cell_volume   1165.33249235
_cell_formula_units_Z   2
loop_
 _symmetry_equiv_pos_site_id
 _symmetry_equiv_pos_as_xyz
  1  'x, y, z'
loop_
 _atom_site_type_symbol
 _atom_site_label
 _atom_site_symmetry_multiplicity
 _atom_site_fract_x
 _atom_site_fract_y
 _atom_site_fract_z
 _atom_site_occupancy
  K  K0  1  0.11890436  0.23780773  0.25000000  1
  K  K1  1  0.88109564  0.11890436  0.75000000  1
  K  K2  1  0.23780773  0.11890436  0.75000000  1
  K  K3  1  0.76219227  0.88109564  0.25000000  1
  K  K4  1  0.11890436  0.88109564  0.25000000  1
  K  K5  1  0.88109564  0.76219227  0.75000000  1
  Rb  Rb0  1  0.20767003  0.41534006  0.54246588  1
  Rb  Rb1  1  0.79232997  0.20767003  0.04246588  1
  Rb  Rb2  1  0.41534006  0.20767003  0.04246588  1
  Rb  Rb3  1  0.58465994  0.79232997  0.54246588  1
  Rb  Rb4  1  0.20767003  0.79232997  0.54246588  1
  Rb  Rb5  1  0.79232997  0.58465994  0.45753412  1
  Rb  Rb6  1  0.79232997  0.20767003  0.45753412  1
  Rb  Rb7  1  0.79232997  0.58465994  0.04246588  1
  Rb  Rb8  1  0.41534006  0.20767003  0.45753412  1
  Rb  Rb9  1  0.58465994  0.79232997  0.95753412  1
  Rb  Rb10  1  0.20767003  0.41534006  0.95753412  1
  Rb  Rb11  1  0.20767003  0.79232997  0.95753412  1
  In  In0  1  0.33333300  0.66666700  0.25000000  1
  In  In1  1  0.66666700  0.33333300  0.75000000  1
  Sb  Sb0  1  0.48314027  0.51685973  0.25000000  1
  Sb  Sb1  1  0.96627854  0.48314027  0.75000000  1
  Sb  Sb2  1  0.51685973  0.03372146  0.75000000  1
  Sb  Sb3  1  0.48314027  0.96627854  0.25000000  1
  Sb  Sb4  1  0.03372146  0.51685973  0.25000000  1
  Sb  Sb5  1  0.51685973  0.48314027  0.75000000  1
  Sb  Sb6  1  0.00000000  0.00000000  0.00000000  1
  Sb  Sb7  1  0.00000000  0.00000000  0.50000000  1
loop_
_geom_bond_atom_site_label_1
_geom_bond_atom_site_label_2
_geom_bond_distance
_geom_bond_site_symmetry_2
K0 Sb4 3.583665 1_555
K0 Sb0 3.583672 1_555
K0 Sb6 3.624723 1_555
K0 Sb7 3.624723 1_555
K1 Sb2 3.583675 1_555
K1 Sb1 3.583676 1_555
K1 Sb6 3.624728 1_656
K1 Sb7 3.624728 1_655
K2 Sb2 3.583665 1_555
K2 Sb5 3.583673 1_555
K2 Sb6 3.624723 1_556
K2 Sb7 3.624723 1_555
K3 Sb3 3.583665 1_555
K3 Sb0 3.583673 1_555
K3 Sb7 3.624723 1_665
K3 Sb6 3.624723 1_665
K4 Sb3 3.583675 1_555
K4 Sb4 3.583676 1_555
K4 Sb7 3.624728 1_565
K4 Sb6 3.624728 1_565
K5 Sb1 3.583665 1_555
K5 Sb5 3.583672 1_555
K5 Sb7 3.624723 1_665
K5 Sb6 3.624723 1_666
Rb0 Sb5 3.866685 1_555
Rb0 Sb1 3.866702 1_455
Rb0 Sb7 3.936138 1_555
Rb1 Sb3 3.866691 1_545
Rb1 Sb4 3.866691 1_655
Rb1 Sb6 3.936138 1_655
Rb2 Sb0 3.866685 1_555
Rb2 Sb3 3.866702 1_545
Rb2 Sb6 3.936138 1_555
Rb3 Sb5 3.866685 1_555
Rb3 Sb2 3.866702 1_565
Rb3 Sb7 3.936138 1_665
Rb4 Sb2 3.866691 1_565
Rb4 Sb1 3.866691 1_455
Rb4 Sb7 3.936138 1_565
Rb5 Sb0 3.866685 1_555
Rb5 Sb4 3.866702 1_655
Rb5 Sb7 3.936138 1_665
Rb6 Sb3 3.866691 1_545
Rb6 Sb4 3.866691 1_655
Rb6 Sb7 3.936138 1_655
Rb7 Sb0 3.866685 1_555
Rb7 Sb4 3.866702 1_655
Rb7 Sb6 3.936138 1_665
Rb8 Sb0 3.866685 1_555
Rb8 Sb3 3.866702 1_545
Rb8 Sb7 3.936138 1_555
Rb9 Sb5 3.866685 1_555
Rb9 Sb2 3.866702 1_565
Rb9 Sb6 3.936138 1_666
Rb10 Sb5 3.866685 1_555
Rb10 Sb1 3.866702 1_455
Rb10 Sb6 3.936138 1_556
Rb11 Sb2 3.866691 1_565
Rb11 Sb1 3.866691 1_455
Rb11 Sb6 3.936138 1_566
In0 Sb4 2.817795 1_555
In0 Sb3 2.817795 1_555
In0 Sb0 2.817823 1_555
In0 Rb4 4.089306 1_555
In0 Rb11 4.089306 1_554
In0 Rb3 4.089312 1_555
In0 Rb9 4.089312 1_554
In0 Rb0 4.089312 1_555
In0 Rb10 4.089312 1_554
In1 Sb1 2.817795 1_555
In1 Sb2 2.817795 1_555
In1 Sb5 2.817823 1_555
In1 Rb1 4.089306 1_556
In1 Rb6 4.089306 1_555
In1 Rb2 4.089312 1_556
In1 Rb8 4.089312 1_555
In1 Rb7 4.089312 1_556
In1 Rb5 4.089312 1_555
