# generated using pymatgen
data_IrW
_symmetry_space_group_name_H-M   'P 1'
_cell_length_a   5.54592280
_cell_length_b   8.93893532
_cell_length_c   9.65024478
_cell_angle_alpha   90.00000000
_cell_angle_beta   90.00000000
_cell_angle_gamma   90.00000000
_symmetry_Int_Tables_number   1
_chemical_formula_structural   IrW
_chemical_formula_sum   'Ir16 W16'
_cell_volume   478.40746105
_cell_formula_units_Z   16
loop_
 _symmetry_equiv_pos_site_id
 _symmetry_equiv_pos_as_xyz
  1  'x, y, z'
loop_
 _atom_site_type_symbol
 _atom_site_label
 _atom_site_symmetry_multiplicity
 _atom_site_fract_x
 _atom_site_fract_y
 _atom_site_fract_z
 _atom_site_occupancy
  Ir  Ir0_0  1  0.25000000  0.12500000  0.33878369  1
  Ir  Ir0_1  1  0.25000000  0.12500000  0.83878369  1
  Ir  Ir0_2  1  0.25000000  0.62500000  0.33878369  1
  Ir  Ir0_3  1  0.25000000  0.62500000  0.83878369  1
  Ir  Ir0_4  1  0.75000000  0.12500000  0.33878369  1
  Ir  Ir0_5  1  0.75000000  0.12500000  0.83878369  1
  Ir  Ir0_6  1  0.75000000  0.62500000  0.33878369  1
  Ir  Ir0_7  1  0.75000000  0.62500000  0.83878369  1
  Ir  Ir1_0  1  0.25000000  0.37500000  0.16121631  1
  Ir  Ir1_1  1  0.25000000  0.37500000  0.66121631  1
  Ir  Ir1_2  1  0.25000000  0.87500000  0.16121631  1
  Ir  Ir1_3  1  0.25000000  0.87500000  0.66121631  1
  Ir  Ir1_4  1  0.75000000  0.37500000  0.16121631  1
  Ir  Ir1_5  1  0.75000000  0.37500000  0.66121631  1
  Ir  Ir1_6  1  0.75000000  0.87500000  0.16121631  1
  Ir  Ir1_7  1  0.75000000  0.87500000  0.66121631  1
  W  W0_0  1  0.00000000  0.12500000  0.08631113  1
  W  W0_1  1  0.00000000  0.12500000  0.58631113  1
  W  W0_2  1  0.00000000  0.62500000  0.08631113  1
  W  W0_3  1  0.00000000  0.62500000  0.58631113  1
  W  W0_4  1  0.50000000  0.12500000  0.08631113  1
  W  W0_5  1  0.50000000  0.12500000  0.58631113  1
  W  W0_6  1  0.50000000  0.62500000  0.08631113  1
  W  W0_7  1  0.50000000  0.62500000  0.58631113  1
  W  W1_0  1  0.00000000  0.37500000  0.41368888  1
  W  W1_1  1  0.00000000  0.37500000  0.91368888  1
  W  W1_2  1  0.00000000  0.87500000  0.41368888  1
  W  W1_3  1  0.00000000  0.87500000  0.91368888  1
  W  W1_4  1  0.50000000  0.37500000  0.41368888  1
  W  W1_5  1  0.50000000  0.37500000  0.91368888  1
  W  W1_6  1  0.50000000  0.87500000  0.41368888  1
  W  W1_7  1  0.50000000  0.87500000  0.91368888  1
loop_
_geom_bond_atom_site_label_1
_geom_bond_atom_site_label_2
_geom_bond_distance
_geom_bond_site_symmetry_2
Ir0_0 W1_2 2.727431 1_545
Ir0_0 W1_6 2.727431 1_545
Ir0_0 W1_0 2.727431 1_555
Ir0_0 W1_4 2.727431 1_555
Ir0_0 W0_1 2.761923 1_555
Ir0_0 W0_5 2.761923 1_555
Ir0_0 Ir0_4 2.772961 1_555
Ir0_0 Ir0_4 2.772961 1_455
Ir0_0 W0_4 2.803298 1_555
Ir0_0 W0_0 2.803298 1_555
Ir0_0 Ir1_2 2.816088 1_545
Ir0_0 Ir1_0 2.816088 1_555
Ir0_1 W1_3 2.727431 1_545
Ir0_1 W1_7 2.727431 1_545
Ir0_1 W1_5 2.727431 1_555
Ir0_1 W1_1 2.727431 1_555
Ir0_1 W0_0 2.761923 1_556
Ir0_1 W0_4 2.761923 1_556
Ir0_1 Ir0_5 2.772961 1_555
Ir0_1 Ir0_5 2.772961 1_455
Ir0_1 W0_5 2.803298 1_555
Ir0_1 W0_1 2.803298 1_555
Ir0_1 Ir1_3 2.816088 1_545
Ir0_1 Ir1_1 2.816088 1_555
Ir0_2 W1_0 2.727431 1_555
Ir0_2 W1_4 2.727431 1_555
Ir0_2 W1_6 2.727431 1_555
Ir0_2 W1_2 2.727431 1_555
Ir0_2 W0_3 2.761923 1_555
Ir0_2 W0_7 2.761923 1_555
Ir0_2 Ir0_6 2.772961 1_455
Ir0_2 Ir0_6 2.772961 1_555
Ir0_2 W0_2 2.803298 1_555
Ir0_2 W0_6 2.803298 1_555
Ir0_2 Ir1_0 2.816088 1_555
Ir0_2 Ir1_2 2.816088 1_555
Ir0_3 W1_5 2.727431 1_555
Ir0_3 W1_1 2.727431 1_555
Ir0_3 W1_3 2.727431 1_555
Ir0_3 W1_7 2.727431 1_555
Ir0_3 W0_2 2.761923 1_556
Ir0_3 W0_6 2.761923 1_556
Ir0_3 Ir0_7 2.772961 1_455
Ir0_3 Ir0_7 2.772961 1_555
Ir0_3 W0_7 2.803298 1_555
Ir0_3 W0_3 2.803298 1_555
Ir0_3 Ir1_1 2.816088 1_555
Ir0_3 Ir1_3 2.816088 1_555
Ir0_4 W1_2 2.727431 1_645
Ir0_4 W1_6 2.727431 1_545
Ir0_4 W1_4 2.727431 1_555
Ir0_4 W1_0 2.727431 1_655
Ir0_4 W0_1 2.761923 1_655
Ir0_4 W0_5 2.761923 1_555
Ir0_4 W0_4 2.803298 1_555
Ir0_4 W0_0 2.803298 1_655
Ir0_4 Ir1_6 2.816088 1_545
Ir0_4 Ir1_4 2.816088 1_555
Ir0_5 W1_7 2.727431 1_545
Ir0_5 W1_3 2.727431 1_645
Ir0_5 W1_5 2.727431 1_555
Ir0_5 W1_1 2.727431 1_655
Ir0_5 W0_4 2.761923 1_556
Ir0_5 W0_0 2.761923 1_656
Ir0_5 W0_5 2.803298 1_555
Ir0_5 W0_1 2.803298 1_655
Ir0_5 Ir1_7 2.816088 1_545
Ir0_5 Ir1_5 2.816088 1_555
Ir0_6 W1_4 2.727431 1_555
Ir0_6 W1_0 2.727431 1_655
Ir0_6 W1_6 2.727431 1_555
Ir0_6 W1_2 2.727431 1_655
Ir0_6 W0_7 2.761923 1_555
Ir0_6 W0_3 2.761923 1_655
Ir0_6 W0_2 2.803298 1_655
Ir0_6 W0_6 2.803298 1_555
Ir0_6 Ir1_4 2.816088 1_555
Ir0_6 Ir1_6 2.816088 1_555
Ir0_7 W1_5 2.727431 1_555
Ir0_7 W1_1 2.727431 1_655
Ir0_7 W1_7 2.727431 1_555
Ir0_7 W1_3 2.727431 1_655
Ir0_7 W0_2 2.761923 1_656
Ir0_7 W0_6 2.761923 1_556
Ir0_7 W0_7 2.803298 1_555
Ir0_7 W0_3 2.803298 1_655
Ir0_7 Ir1_5 2.816088 1_555
Ir0_7 Ir1_7 2.816088 1_555
Ir1_0 W0_2 2.727431 1_555
Ir1_0 W0_6 2.727431 1_555
Ir1_0 W0_0 2.727431 1_555
Ir1_0 W0_4 2.727431 1_555
Ir1_0 W1_5 2.761923 1_554
Ir1_0 W1_1 2.761923 1_554
Ir1_0 Ir1_4 2.772961 1_555
Ir1_0 Ir1_4 2.772961 1_455
Ir1_0 W1_0 2.803298 1_555
Ir1_0 W1_4 2.803298 1_555
Ir1_1 W0_7 2.727431 1_555
Ir1_1 W0_3 2.727431 1_555
Ir1_1 W0_1 2.727431 1_555
Ir1_1 W0_5 2.727431 1_555
Ir1_1 W1_4 2.761923 1_555
Ir1_1 W1_0 2.761923 1_555
Ir1_1 Ir1_5 2.772961 1_455
Ir1_1 Ir1_5 2.772961 1_555
Ir1_1 W1_5 2.803298 1_555
Ir1_1 W1_1 2.803298 1_555
Ir1_2 W0_0 2.727431 1_565
Ir1_2 W0_4 2.727431 1_565
Ir1_2 W0_2 2.727431 1_555
Ir1_2 W0_6 2.727431 1_555
Ir1_2 W1_3 2.761923 1_554
Ir1_2 W1_7 2.761923 1_554
Ir1_2 Ir1_6 2.772961 1_555
Ir1_2 Ir1_6 2.772961 1_455
Ir1_2 W1_6 2.803298 1_555
Ir1_2 W1_2 2.803298 1_555
Ir1_3 W0_1 2.727431 1_565
Ir1_3 W0_5 2.727431 1_565
Ir1_3 W0_3 2.727431 1_555
Ir1_3 W0_7 2.727431 1_555
Ir1_3 W1_2 2.761923 1_555
Ir1_3 W1_6 2.761923 1_555
Ir1_3 Ir1_7 2.772961 1_555
Ir1_3 Ir1_7 2.772961 1_455
Ir1_3 W1_3 2.803298 1_555
Ir1_3 W1_7 2.803298 1_555
Ir1_4 W0_6 2.727431 1_555
Ir1_4 W0_2 2.727431 1_655
Ir1_4 W0_0 2.727431 1_655
Ir1_4 W0_4 2.727431 1_555
Ir1_4 W1_5 2.761923 1_554
Ir1_4 W1_1 2.761923 1_654
Ir1_4 W1_4 2.803298 1_555
Ir1_4 W1_0 2.803298 1_655
Ir1_5 W0_7 2.727431 1_555
Ir1_5 W0_3 2.727431 1_655
Ir1_5 W0_5 2.727431 1_555
Ir1_5 W0_1 2.727431 1_655
Ir1_5 W1_4 2.761923 1_555
Ir1_5 W1_0 2.761923 1_655
Ir1_5 W1_5 2.803298 1_555
Ir1_5 W1_1 2.803298 1_655
Ir1_6 W0_4 2.727431 1_565
Ir1_6 W0_0 2.727431 1_665
Ir1_6 W0_2 2.727431 1_655
Ir1_6 W0_6 2.727431 1_555
Ir1_6 W1_3 2.761923 1_654
Ir1_6 W1_7 2.761923 1_554
Ir1_6 W1_6 2.803298 1_555
Ir1_6 W1_2 2.803298 1_655
Ir1_7 W0_1 2.727431 1_665
Ir1_7 W0_5 2.727431 1_565
Ir1_7 W0_3 2.727431 1_655
Ir1_7 W0_7 2.727431 1_555
Ir1_7 W1_6 2.761923 1_555
Ir1_7 W1_2 2.761923 1_655
Ir1_7 W1_7 2.803298 1_555
Ir1_7 W1_3 2.803298 1_655
W0_0 W0_4 2.772961 1_455
W0_0 W0_4 2.772961 1_555
W0_0 W1_3 2.787307 1_544
W0_0 W1_1 2.787307 1_554
W0_1 W0_5 2.772961 1_555
W0_1 W0_5 2.772961 1_455
W0_1 W1_2 2.787307 1_545
W0_1 W1_0 2.787307 1_555
W0_2 W0_6 2.772961 1_555
W0_2 W0_6 2.772961 1_455
W0_2 W1_1 2.787307 1_554
W0_2 W1_3 2.787307 1_554
W0_3 W0_7 2.772961 1_455
W0_3 W0_7 2.772961 1_555
W0_3 W1_0 2.787307 1_555
W0_3 W1_2 2.787307 1_555
W0_4 W1_7 2.787307 1_544
W0_4 W1_5 2.787307 1_554
W0_5 W1_6 2.787307 1_545
W0_5 W1_4 2.787307 1_555
W0_6 W1_5 2.787307 1_554
W0_6 W1_7 2.787307 1_554
W0_7 W1_4 2.787307 1_555
W0_7 W1_6 2.787307 1_555
W1_0 W1_4 2.772961 1_555
W1_0 W1_4 2.772961 1_455
W1_1 W1_5 2.772961 1_455
W1_1 W1_5 2.772961 1_555
W1_2 W1_6 2.772961 1_455
W1_2 W1_6 2.772961 1_555
W1_3 W1_7 2.772961 1_555
W1_3 W1_7 2.772961 1_455
