# generated using pymatgen
data_Ti8Al14GaRu7
_symmetry_space_group_name_H-M   'P 1'
_cell_length_a   8.60075036
_cell_length_b   8.60075057
_cell_length_c   8.60075011
_cell_angle_alpha   120.11029900
_cell_angle_beta   119.93023525
_cell_angle_gamma   89.96497317
_symmetry_Int_Tables_number   1
_chemical_formula_structural   Ti8Al14GaRu7
_chemical_formula_sum   'Ti8 Al14 Ga1 Ru7'
_cell_volume   449.73794032
_cell_formula_units_Z   1
loop_
 _symmetry_equiv_pos_site_id
 _symmetry_equiv_pos_as_xyz
  1  'x, y, z'
loop_
 _atom_site_type_symbol
 _atom_site_label
 _atom_site_symmetry_multiplicity
 _atom_site_fract_x
 _atom_site_fract_y
 _atom_site_fract_z
 _atom_site_occupancy
  Ti  Ti0  1  0.79223132  0.28395358  0.06812206  1
  Ti  Ti1  1  0.21583252  0.28395358  0.49172227  1
  Ti  Ti2  1  0.21219693  0.71219693  0.50000000  1
  Ti  Ti3  1  0.21583252  0.72411026  0.93187794  1
  Ti  Ti4  1  0.79223132  0.72411026  0.50827773  1
  Ti  Ti5  1  0.77865143  0.27865143  0.50000000  1
  Ti  Ti6  1  0.37917559  0.12070701  0.74153142  1
  Ti  Ti7  1  0.37917559  0.63764517  0.25846858  1
  Al  Al0  1  0.15872228  0.34124060  0.18251732  1
  Al  Al1  1  0.15872228  0.97620495  0.81748268  1
  Al  Al2  1  0.15379498  0.34520386  0.80859012  1
  Al  Al3  1  0.53661375  0.34520386  0.19140988  1
  Al  Al4  1  0.84386134  0.65461200  0.81075166  1
  Al  Al5  1  0.84386134  0.03310968  0.18924834  1
  Al  Al6  1  0.84121819  0.65589993  0.18531726  1
  Al  Al7  1  0.47058367  0.65589993  0.81468274  1
  Al  Al8  1  0.38009225  0.12147769  0.25861356  1
  Al  Al9  1  0.86286513  0.12147769  0.74138644  1
  Al  Al10  1  0.61979066  0.87627625  0.25648559  1
  Al  Al11  1  0.61979066  0.36330507  0.74351441  1
  Al  Al12  1  0.62012410  0.87768143  0.74244267  1
  Al  Al13  1  0.13523777  0.87768143  0.25755733  1
  Ga  Ga0  1  0.99513440  0.49513440  0.50000000  1
  Ru  Ru0  1  0.99964151  0.99911283  0.50046130  1
  Ru  Ru1  1  0.49865153  0.99911283  0.99947133  1
  Ru  Ru2  1  0.49833798  0.49833798  0.00000000  1
  Ru  Ru3  1  0.49865153  0.49918021  0.49953870  1
  Ru  Ru4  1  0.99964151  0.49918021  0.00052867  1
  Ru  Ru5  1  0.00014844  0.00014844  0.00000000  1
  Ru  Ru6  1  0.49918847  0.99918847  0.50000000  1
loop_
_geom_bond_atom_site_label_1
_geom_bond_atom_site_label_2
_geom_bond_distance
_geom_bond_site_symmetry_2
Ti0 Ti6 2.928052 1_554
Ti1 Ti6 2.928051 1_555
Ti2 Ti6 2.903194 1_565
Ti2 Ti7 2.903195 1_555
Ti3 Ti7 2.928052 1_556
Ti4 Ti7 2.928052 1_555
Al0 Ru4 2.482176 1_455
Al0 Ru3 2.482184 1_555
Al0 Ru5 2.485663 1_555
Al0 Ti0 2.750866 1_455
Al0 Ti1 2.750869 1_555
Al0 Al9 2.760285 1_454
Al0 Al8 2.760299 1_555
Al0 Ti7 2.760400 1_555
Al0 Ti2 2.802598 1_555
Al1 Ru0 2.482184 1_455
Al1 Ru1 2.482184 1_555
Al1 Ru5 2.485656 1_566
Al1 Ti3 2.750858 1_555
Al1 Ti4 2.750864 1_455
Al1 Al9 2.760280 1_465
Al1 Al8 2.760287 1_566
Al1 Ti6 2.760400 1_565
Al1 Ti2 2.802603 1_555
Al2 Ru2 2.487436 1_556
Al2 Ru0 2.495048 1_445
Al2 Ru4 2.495055 1_456
Al2 Ti5 2.777564 1_455
Al2 Al9 2.782896 1_455
Al2 Ti6 2.795012 1_555
Al2 Ti7 2.795020 1_556
Al2 Ti1 2.828381 1_555
Al2 Ti3 2.828389 1_555
Al3 Ru2 2.487444 1_555
Al3 Ru3 2.495048 1_555
Al3 Ru1 2.495048 1_544
Al3 Ti5 2.777558 1_555
Al3 Al8 2.782891 1_555
Al3 Ti6 2.795019 1_554
Al3 Ti7 2.795026 1_555
Al3 Ti0 2.828381 1_555
Al3 Ti4 2.828386 1_555
Al4 Ru4 2.500242 1_556
Al4 Ru3 2.500250 1_555
Al4 Ru5 2.501285 1_666
Al4 Ti3 2.780174 1_655
Al4 Ti4 2.780177 1_555
Al4 Ti5 2.783698 1_555
Al5 Ru0 2.500250 1_545
Al5 Ru1 2.500250 1_544
Al5 Ru5 2.501278 1_655
Al5 Ti0 2.780166 1_555
Al5 Ti1 2.780172 1_655
Al5 Ti5 2.783704 1_555
Al6 Ru4 2.491725 1_555
Al6 Ru0 2.491733 1_555
Al6 Ru2 2.494178 1_555
Al6 Ti0 2.787443 1_555
Al6 Ti4 2.787446 1_555
Al6 Ti2 2.794599 1_655
Al7 Ru3 2.491727 1_555
Al7 Ru1 2.491735 1_555
Al7 Ru2 2.494173 1_556
Al7 Ti1 2.787443 1_555
Al7 Ti3 2.787444 1_555
Al7 Ti2 2.794608 1_555
Al8 Ru6 2.556000 1_545
Al8 Ru1 2.651065 1_544
Al8 Ru3 2.651072 1_555
Al8 Ru5 2.671528 1_555
Al8 Ti5 2.824232 1_555
Al8 Ti3 2.825122 1_544
Al8 Ti1 2.825128 1_555
Al9 Ru6 2.556007 1_545
Al9 Ru0 2.651065 1_545
Al9 Ru4 2.651072 1_556
Al9 Ru5 2.671521 1_656
Al9 Ti5 2.824239 1_555
Al9 Ti4 2.825119 1_545
Al9 Ti0 2.825134 1_556
Al10 Ru6 2.554426 1_555
Al10 Ru2 2.652117 1_555
Al10 Ru0 2.670513 1_555
Al10 Ru1 2.670513 1_554
Al10 Al7 2.754793 1_554
Al10 Al6 2.754798 1_555
Al10 Al5 2.786729 1_565
Al10 Ti5 2.847433 1_565
Al10 Ti4 2.870277 1_555
Al10 Ti3 2.870279 1_554
Al10 Ti7 2.927611 1_555
Al10 Al8 2.948154 1_565
Al10 Al9 2.948160 1_565
Al11 Ru6 2.554426 1_545
Al11 Ru2 2.652117 1_556
Al11 Ru4 2.670513 1_556
Al11 Ru3 2.670513 1_555
Al11 Al7 2.754786 1_555
Al11 Al6 2.754791 1_556
Al11 Al4 2.786723 1_555
Al11 Ti5 2.847433 1_555
Al11 Ti1 2.870277 1_555
Al11 Ti0 2.870285 1_556
Al11 Ti6 2.927617 1_555
Al11 Al8 2.948160 1_555
Al11 Al9 2.948166 1_555
Al12 Ru6 2.557887 1_555
Al12 Ru1 2.656331 1_555
Al12 Ru3 2.656331 1_555
Al12 Ru5 2.671643 1_666
Al12 Al7 2.769168 1_555
Al12 Al5 2.779790 1_566
Al12 Al4 2.779797 1_555
Al12 Ti4 2.880180 1_555
Al12 Ti0 2.880180 1_566
Al12 Ti2 2.900203 1_555
Al12 Ti7 2.942537 1_555
Al12 Ti6 2.942537 1_565
Al12 Al9 2.966293 1_565
Al13 Ru6 2.557894 1_555
Al13 Ru0 2.656324 1_455
Al13 Ru4 2.656331 1_455
Al13 Ru5 2.671643 1_565
Al13 Al6 2.769159 1_455
Al13 Al5 2.779783 1_465
Al13 Al4 2.779788 1_454
Al13 Ti1 2.880179 1_565
Al13 Ti3 2.880193 1_554
Al13 Ti2 2.900202 1_555
Al13 Ti6 2.942537 1_565
Al13 Ti7 2.942537 1_555
Al13 Al8 2.966299 1_565
Ga0 Ti0 2.628302 1_555
Ga0 Ti3 2.628303 1_655
Ga0 Ti1 2.628309 1_655
Ga0 Ti4 2.628309 1_555
Ga0 Ti5 2.633952 1_555
Ga0 Ti2 2.641003 1_655
Ru0 Ti6 2.668878 1_665
Ru0 Ti4 3.010886 1_555
Ru0 Ti2 3.069772 1_655
Ru0 Ti1 3.129625 1_665
Ru1 Ti6 2.668878 1_565
Ru1 Ti3 3.010881 1_555
Ru1 Ti2 3.069772 1_555
Ru1 Ti0 3.129620 1_566
Ru2 Ti6 2.650931 1_554
Ru2 Ti7 2.650931 1_555
Ru2 Ti4 3.119738 1_555
Ru2 Ti1 3.119738 1_554
Ru2 Ti0 3.119739 1_555
Ru2 Ti3 3.119740 1_554
Ru3 Ti7 2.668885 1_555
Ru3 Ti1 3.010886 1_555
Ru3 Ti2 3.069772 1_555
Ru3 Ti4 3.129625 1_555
Ru4 Ti7 2.668878 1_655
Ru4 Ti0 3.010893 1_555
Ru4 Ti2 3.069772 1_655
Ru4 Ti3 3.129632 1_654
Ru5 Ti4 3.017372 1_444
Ru5 Ti1 3.017372 1_555
Ru5 Ti0 3.017373 1_455
Ru5 Ti3 3.017373 1_544
Ru6 Ti7 2.536366 1_555
Ru6 Ti6 2.536373 1_565
