# generated using pymatgen
data_Ta2Ti4P4Ir
_symmetry_space_group_name_H-M   'P 1'
_cell_length_a   7.28285324
_cell_length_b   7.28285421
_cell_length_c   13.76785802
_cell_angle_alpha   76.17806812
_cell_angle_beta   76.17806510
_cell_angle_gamma   27.54130945
_symmetry_Int_Tables_number   1
_chemical_formula_structural   Ta2Ti4P4Ir
_chemical_formula_sum   'Ta4 Ti8 P8 Ir2'
_cell_volume   327.28312188
_cell_formula_units_Z   2
loop_
 _symmetry_equiv_pos_site_id
 _symmetry_equiv_pos_as_xyz
  1  'x, y, z'
loop_
 _atom_site_type_symbol
 _atom_site_label
 _atom_site_symmetry_multiplicity
 _atom_site_fract_x
 _atom_site_fract_y
 _atom_site_fract_z
 _atom_site_occupancy
  Ta  Ta0  1  0.00000000  0.00000000  0.00000000  1
  Ta  Ta1  1  0.50000000  0.50000000  0.50000000  1
  Ta  Ta2  1  0.42478672  0.42478672  0.17426730  1
  Ta  Ta3  1  0.57521328  0.57521328  0.82573270  1
  Ti  Ti0  1  0.21302455  0.21302455  0.20979577  1
  Ti  Ti1  1  0.78697545  0.78697545  0.79020423  1
  Ti  Ti2  1  0.34049125  0.34049125  0.96622876  1
  Ti  Ti3  1  0.65950875  0.65950875  0.03377124  1
  Ti  Ti4  1  0.00422506  0.00422506  0.33548384  1
  Ti  Ti5  1  0.99577494  0.99577494  0.66451616  1
  Ti  Ti6  1  0.17549993  0.17549993  0.46606480  1
  Ti  Ti7  1  0.82450007  0.82450007  0.53393520  1
  P  P0  1  0.18349293  0.18349293  0.89845912  1
  P  P1  1  0.81650707  0.81650707  0.10154088  1
  P  P2  1  0.37233116  0.37233116  0.39533417  1
  P  P3  1  0.62766884  0.62766884  0.60466583  1
  P  P4  1  0.36365084  0.36365084  0.65861187  1
  P  P5  1  0.63634916  0.63634916  0.34138813  1
  P  P6  1  0.06310118  0.06310118  0.15502768  1
  P  P7  1  0.93689882  0.93689882  0.84497232  1
  Ir  Ir0  1  0.19337300  0.19337300  0.67538199  1
  Ir  Ir1  1  0.80662700  0.80662700  0.32461801  1
loop_
_geom_bond_atom_site_label_1
_geom_bond_atom_site_label_2
_geom_bond_distance
_geom_bond_site_symmetry_2
P0 Ti3 2.506008 1_456
P0 Ti3 2.506009 1_546
P0 Ti1 2.509284 1_545
P0 Ti1 2.509284 1_455
P0 Ti2 2.612120 1_555
P0 Ta0 2.628249 1_556
P0 Ta3 2.666263 1_455
P0 Ta3 2.666264 1_545
P1 Ti2 2.506008 1_654
P1 Ti2 2.506009 1_564
P1 Ti0 2.509284 1_565
P1 Ti0 2.509284 1_655
P1 Ti3 2.612120 1_555
P1 Ta0 2.628249 1_665
P1 Ta2 2.666263 1_655
P1 Ta2 2.666264 1_565
P2 Ti4 2.531703 1_655
P2 Ti4 2.531704 1_565
P2 Ti7 2.543488 1_455
P2 Ti7 2.543489 1_545
P2 Ta1 2.572755 1_555
P2 Ti6 2.714440 1_555
P2 Ta2 2.950113 1_555
P3 Ti5 2.531703 1_455
P3 Ti5 2.531704 1_545
P3 Ti6 2.543488 1_655
P3 Ti6 2.543489 1_565
P3 Ta1 2.572755 1_555
P3 Ti7 2.714440 1_555
P3 Ta3 2.950113 1_555
P4 Ta1 2.533238 1_555
P4 Ti1 2.549030 1_455
P4 Ti1 2.549030 1_545
P4 Ti5 2.565236 1_545
P4 Ti5 2.565237 1_455
P4 Ti7 2.593504 1_455
P4 Ti7 2.593504 1_545
P5 Ta1 2.533238 1_555
P5 Ti0 2.549030 1_655
P5 Ti0 2.549030 1_565
P5 Ti4 2.565236 1_565
P5 Ti4 2.565237 1_655
P5 Ti6 2.593504 1_655
P5 Ti6 2.593504 1_565
P6 Ti4 2.418354 1_555
P6 Ti0 2.419477 1_555
P6 Ta0 2.507969 1_555
P6 Ti3 2.555852 1_545
P6 Ti3 2.555852 1_455
P6 Ta2 2.578626 1_455
P6 Ta2 2.578627 1_545
P7 Ti5 2.418354 1_555
P7 Ti1 2.419477 1_555
P7 Ta0 2.507969 1_666
P7 Ti2 2.555852 1_565
P7 Ti2 2.555852 1_655
P7 Ta3 2.578626 1_655
P7 Ta3 2.578627 1_565
Ir0 P3 2.294000 1_455
Ir0 P3 2.294001 1_545
Ir0 P4 2.362756 1_555
Ir0 Ti5 2.835934 1_445
Ir0 Ti1 2.878844 1_545
Ir0 Ti1 2.878844 1_455
Ir0 Ta3 2.895210 1_455
Ir0 Ta3 2.895211 1_545
Ir0 Ti7 2.908914 1_545
Ir0 Ti7 2.908914 1_455
Ir0 Ti6 2.954228 1_555
Ir0 P0 3.039934 1_555
Ir1 P2 2.294000 1_655
Ir1 P2 2.294001 1_565
Ir1 P5 2.362756 1_555
Ir1 Ti4 2.835934 1_665
Ir1 Ti0 2.878844 1_565
Ir1 Ti0 2.878844 1_655
Ir1 Ta2 2.895210 1_655
Ir1 Ta2 2.895211 1_565
Ir1 Ti6 2.908914 1_565
Ir1 Ti6 2.908914 1_655
Ir1 Ti7 2.954228 1_555
Ir1 P1 3.039934 1_555
