# generated using pymatgen
data_Hf13In3(Rh2N)4
_symmetry_space_group_name_H-M   'P 1'
_cell_length_a   8.60307043
_cell_length_b   8.60306953
_cell_length_c   8.60307193
_cell_angle_alpha   60.09313687
_cell_angle_beta   60.09313763
_cell_angle_gamma   60.09313832
_symmetry_Int_Tables_number   1
_chemical_formula_structural   Hf13In3(Rh2N)4
_chemical_formula_sum   'Hf13 In3 Rh8 N4'
_cell_volume   451.19164046
_cell_formula_units_Z   1
loop_
 _symmetry_equiv_pos_site_id
 _symmetry_equiv_pos_as_xyz
  1  'x, y, z'
loop_
 _atom_site_type_symbol
 _atom_site_label
 _atom_site_symmetry_multiplicity
 _atom_site_fract_x
 _atom_site_fract_y
 _atom_site_fract_z
 _atom_site_occupancy
  Hf  Hf0  1  0.62500000  0.62500000  0.62500000  1
  Hf  Hf1  1  0.81304626  0.81304626  0.18386004  1
  Hf  Hf2  1  0.18405029  0.18405029  0.81313062  1
  Hf  Hf3  1  0.81304626  0.18386004  0.81304626  1
  Hf  Hf4  1  0.18405029  0.81313062  0.18405029  1
  Hf  Hf5  1  0.18386004  0.81304626  0.81304626  1
  Hf  Hf6  1  0.81313062  0.18405029  0.18405029  1
  Hf  Hf7  1  0.43695374  0.43695374  0.06613996  1
  Hf  Hf8  1  0.06594971  0.06594971  0.43686938  1
  Hf  Hf9  1  0.43695374  0.06613996  0.43695374  1
  Hf  Hf10  1  0.06594971  0.43686938  0.06594971  1
  Hf  Hf11  1  0.06613996  0.43695374  0.43695374  1
  Hf  Hf12  1  0.43686938  0.06594971  0.06594971  1
  In  In0  1  0.12500000  0.62500000  0.62500000  1
  In  In1  1  0.62500000  0.12500000  0.62500000  1
  In  In2  1  0.62500000  0.62500000  0.12500000  1
  Rh  Rh0  1  0.77295323  0.41360336  0.41360336  1
  Rh  Rh1  1  0.41360336  0.77295323  0.41360336  1
  Rh  Rh2  1  0.41360336  0.41360336  0.77295323  1
  Rh  Rh3  1  0.40924915  0.40924915  0.40924915  1
  Rh  Rh4  1  0.47704677  0.83639664  0.83639664  1
  Rh  Rh5  1  0.83639664  0.47704677  0.83639664  1
  Rh  Rh6  1  0.83639664  0.83639664  0.47704677  1
  Rh  Rh7  1  0.84075085  0.84075085  0.84075085  1
  N  N0  1  0.62500000  0.12500000  0.12500000  1
  N  N1  1  0.12500000  0.62500000  0.12500000  1
  N  N2  1  0.12500000  0.12500000  0.62500000  1
  N  N3  1  0.12500000  0.12500000  0.12500000  1
loop_
_geom_bond_atom_site_label_1
_geom_bond_atom_site_label_2
_geom_bond_distance
_geom_bond_site_symmetry_2
Hf0 Rh6 2.629958 1_555
Hf0 Rh2 2.629958 1_555
Hf0 Rh4 2.629958 1_555
Hf0 Rh0 2.629958 1_555
Hf0 Rh5 2.629959 1_555
Hf0 Rh1 2.629959 1_555
Hf1 N0 2.282197 1_565
Hf1 N1 2.282197 1_655
Hf1 Rh7 2.735000 1_554
Hf1 Rh6 2.737428 1_555
Hf1 Rh0 3.092535 1_555
Hf1 Rh1 3.092536 1_555
Hf1 In2 3.120004 1_555
Hf2 N2 2.243404 1_555
Hf2 N3 2.292122 1_556
Hf2 Rh4 2.779855 1_545
Hf2 Rh5 2.779855 1_455
Hf2 Rh3 3.146021 1_555
Hf2 In0 3.169239 1_555
Hf2 In1 3.169239 1_555
Hf2 Rh2 3.232235 1_555
Hf3 N2 2.282197 1_655
Hf3 N0 2.282197 1_556
Hf3 Rh7 2.734999 1_545
Hf3 Rh5 2.737428 1_555
Hf3 Rh2 3.092536 1_555
Hf3 Rh0 3.092536 1_555
Hf3 In1 3.120005 1_555
Hf4 N1 2.243404 1_555
Hf4 N3 2.292121 1_565
Hf4 Rh6 2.779855 1_455
Hf4 Rh4 2.779855 1_554
Hf4 Rh3 3.146020 1_555
Hf4 In2 3.169239 1_555
Hf4 In0 3.169240 1_555
Hf4 Rh1 3.232236 1_555
Hf5 N2 2.282197 1_565
Hf5 N1 2.282197 1_556
Hf5 Rh7 2.734999 1_455
Hf5 Rh4 2.737428 1_555
Hf5 Rh2 3.092535 1_555
Hf5 Rh1 3.092536 1_555
Hf5 In0 3.120005 1_555
Hf6 N0 2.243404 1_555
Hf6 N3 2.292122 1_655
Hf6 Rh6 2.779855 1_545
Hf6 Rh5 2.779855 1_554
Hf6 Rh3 3.146021 1_555
Hf6 In2 3.169239 1_555
Hf6 In1 3.169240 1_555
Hf6 Rh0 3.232236 1_555
Hf7 N0 2.282197 1_555
Hf7 N1 2.282197 1_555
Hf7 Rh3 2.735000 1_555
Hf7 Rh2 2.737428 1_554
Hf7 Rh4 3.092535 1_554
Hf7 Rh5 3.092536 1_554
Hf7 In2 3.120004 1_555
Hf8 N2 2.243404 1_555
Hf8 N3 2.292122 1_555
Hf8 Rh0 2.779855 1_455
Hf8 Rh1 2.779855 1_545
Hf8 Rh7 3.146021 1_445
Hf8 In0 3.169239 1_545
Hf8 In1 3.169239 1_455
Hf8 Rh6 3.232235 1_445
Hf9 N2 2.282197 1_555
Hf9 N0 2.282197 1_555
Hf9 Rh3 2.734999 1_555
Hf9 Rh1 2.737428 1_545
Hf9 Rh6 3.092536 1_545
Hf9 Rh4 3.092536 1_545
Hf9 In1 3.120005 1_555
Hf10 N1 2.243404 1_555
Hf10 N3 2.292121 1_555
Hf10 Rh2 2.779855 1_554
Hf10 Rh0 2.779855 1_455
Hf10 Rh7 3.146020 1_454
Hf10 In2 3.169239 1_455
Hf10 In0 3.169240 1_554
Hf10 Rh5 3.232236 1_454
Hf11 N2 2.282197 1_555
Hf11 N1 2.282197 1_555
Hf11 Rh3 2.734999 1_555
Hf11 Rh0 2.737428 1_455
Hf11 Rh6 3.092535 1_455
Hf11 Rh5 3.092536 1_455
Hf11 In0 3.120005 1_555
Hf12 N0 2.243404 1_555
Hf12 N3 2.292122 1_555
Hf12 Rh2 2.779855 1_554
Hf12 Rh1 2.779855 1_545
Hf12 Rh7 3.146021 1_544
Hf12 In2 3.169239 1_545
Hf12 In1 3.169240 1_554
Hf12 Rh4 3.232236 1_544
In0 Rh7 2.693232 1_455
In0 Rh3 2.693232 1_555
In0 Rh1 2.726284 1_555
In0 Rh5 2.726284 1_455
In0 Rh2 2.726284 1_555
In0 Rh6 2.726284 1_455
In1 Rh7 2.693232 1_545
In1 Rh3 2.693232 1_555
In1 Rh0 2.726284 1_555
In1 Rh4 2.726284 1_545
In1 Rh2 2.726284 1_555
In1 Rh6 2.726284 1_545
In2 Rh7 2.693232 1_554
In2 Rh3 2.693232 1_555
In2 Rh1 2.726284 1_555
In2 Rh5 2.726284 1_554
In2 Rh0 2.726284 1_555
In2 Rh4 2.726284 1_554
