# generated using pymatgen
data_NaTa(WS3)2
_symmetry_space_group_name_H-M   'P 1'
_cell_length_a   5.61530325
_cell_length_b   5.61530322
_cell_length_c   14.77744232
_cell_angle_alpha   90.00000000
_cell_angle_beta   90.00000000
_cell_angle_gamma   120.00000604
_symmetry_Int_Tables_number   1
_chemical_formula_structural   NaTa(WS3)2
_chemical_formula_sum   'Na2 Ta2 W4 S12'
_cell_volume   403.53044503
_cell_formula_units_Z   2
loop_
 _symmetry_equiv_pos_site_id
 _symmetry_equiv_pos_as_xyz
  1  'x, y, z'
loop_
 _atom_site_type_symbol
 _atom_site_label
 _atom_site_symmetry_multiplicity
 _atom_site_fract_x
 _atom_site_fract_y
 _atom_site_fract_z
 _atom_site_occupancy
  Na  Na0  1  0.00000000  0.00000000  0.50000000  1
  Na  Na1  1  0.00000000  0.00000000  0.00000000  1
  Ta  Ta0  1  0.00000000  0.00000000  0.25000000  1
  Ta  Ta1  1  0.00000000  0.00000000  0.75000000  1
  W  W0  1  0.33333300  0.66666700  0.25000000  1
  W  W1  1  0.66666700  0.33333300  0.75000000  1
  W  W2  1  0.66666700  0.33333300  0.25000000  1
  W  W3  1  0.33333300  0.66666700  0.75000000  1
  S  S0  1  0.34033199  1.00000000  0.14478291  1
  S  S1  1  1.00000000  0.34033199  0.14478291  1
  S  S2  1  0.65966801  0.65966801  0.14478291  1
  S  S3  1  0.34033199  0.34033199  0.64478291  1
  S  S4  1  0.65966801  0.65966801  0.35521709  1
  S  S5  1  0.65966801  0.00000000  0.64478291  1
  S  S6  1  0.00000000  0.65966801  0.64478291  1
  S  S7  1  0.00000000  0.65966801  0.85521709  1
  S  S8  1  0.34033199  0.34033199  0.85521709  1
  S  S9  1  1.00000000  0.34033199  0.35521709  1
  S  S10  1  0.34033199  1.00000000  0.35521709  1
  S  S11  1  0.65966801  0.00000000  0.85521709  1
loop_
_geom_bond_atom_site_label_1
_geom_bond_atom_site_label_2
_geom_bond_distance
_geom_bond_site_symmetry_2
Na0 S3 2.868750 1_555
Na0 S4 2.868750 1_445
Na0 S6 2.868750 1_545
Na0 S9 2.868750 1_455
Na0 S5 2.868750 1_455
Na0 S10 2.868750 1_545
Na1 S2 2.868750 1_445
Na1 S8 2.868750 1_554
Na1 S1 2.868750 1_455
Na1 S7 2.868750 1_544
Na1 S11 2.868750 1_454
Na1 S0 2.868750 1_545
S0 W0 2.418474 1_555
S0 W2 2.418476 1_565
S0 Ta0 2.463677 1_565
S1 W2 2.418474 1_555
S1 W0 2.418476 1_655
S1 Ta0 2.463677 1_655
S2 W2 2.418478 1_555
S2 W0 2.418478 1_555
S2 Ta0 2.463677 1_665
S3 W3 2.418478 1_555
S3 W1 2.418478 1_555
S3 Ta1 2.463677 1_555
S4 W2 2.418478 1_555
S4 W0 2.418478 1_555
S4 Ta0 2.463677 1_665
S5 W1 2.418474 1_555
S5 W3 2.418476 1_545
S5 Ta1 2.463677 1_655
S6 W3 2.418474 1_555
S6 W1 2.418476 1_455
S6 Ta1 2.463677 1_565
S7 W3 2.418474 1_555
S7 W1 2.418476 1_455
S7 Ta1 2.463677 1_565
S8 W3 2.418478 1_555
S8 W1 2.418478 1_555
S8 Ta1 2.463677 1_555
S9 W2 2.418474 1_555
S9 W0 2.418476 1_655
S9 Ta0 2.463677 1_655
S10 W0 2.418474 1_555
S10 W2 2.418476 1_565
S10 Ta0 2.463677 1_565
S11 W1 2.418474 1_555
S11 W3 2.418476 1_545
S11 Ta1 2.463677 1_655
