# generated using pymatgen
data_Na2Ag(SeO4)2
_symmetry_space_group_name_H-M   'P 1'
_cell_length_a   5.03237712
_cell_length_b   5.94075705
_cell_length_c   7.14297210
_cell_angle_alpha   105.30755622
_cell_angle_beta   84.33530862
_cell_angle_gamma   110.11252743
_symmetry_Int_Tables_number   1
_chemical_formula_structural   Na2Ag(SeO4)2
_chemical_formula_sum   'Na2 Ag1 Se2 O8'
_cell_volume   193.40341083
_cell_formula_units_Z   1
loop_
 _symmetry_equiv_pos_site_id
 _symmetry_equiv_pos_as_xyz
  1  'x, y, z'
loop_
 _atom_site_type_symbol
 _atom_site_label
 _atom_site_symmetry_multiplicity
 _atom_site_fract_x
 _atom_site_fract_y
 _atom_site_fract_z
 _atom_site_occupancy
  Na  Na0  1  0.19997707  0.25930030  0.17831512  1
  Na  Na1  1  0.80002293  0.74069970  0.82168488  1
  Ag  Ag0  1  0.50000000  0.00000000  0.50000000  1
  Se  Se0  1  0.87724892  0.66945669  0.28582052  1
  Se  Se1  1  0.12275108  0.33054331  0.71417948  1
  O  O0  1  0.74355573  0.76908964  0.50484624  1
  O  O1  1  0.20395704  0.67622521  0.32597481  1
  O  O2  1  0.70533380  0.38008972  0.18500794  1
  O  O3  1  0.79604296  0.32377479  0.67402519  1
  O  O4  1  0.88159464  0.85764479  0.15323884  1
  O  O5  1  0.11840536  0.14235521  0.84676116  1
  O  O6  1  0.25644427  0.23091036  0.49515376  1
  O  O7  1  0.29466620  0.61991028  0.81499206  1
loop_
_geom_bond_atom_site_label_1
_geom_bond_atom_site_label_2
_geom_bond_distance
_geom_bond_site_symmetry_2
Na0 O5 2.320985 1_554
Na0 O4 2.344048 1_445
Na0 O6 2.364866 1_555
Na0 O2 2.394919 1_555
Na0 O1 2.416266 1_555
Na0 O2 2.810750 1_455
Na1 O4 2.320985 1_556
Na1 O5 2.344048 1_665
Na1 O0 2.364866 1_555
Na1 O7 2.394919 1_555
Na1 O3 2.416266 1_555
Na1 O7 2.810750 1_655
Ag0 O0 2.138924 1_545
Ag0 O6 2.138924 1_555
Ag0 O1 2.144021 1_545
Ag0 O3 2.144021 1_555
O0 Se0 1.681599 1_555
O1 Se0 1.681828 1_455
O2 Se0 1.633629 1_555
O3 Se1 1.681828 1_655
O4 Se0 1.638700 1_555
O5 Se1 1.638700 1_555
O6 Se1 1.681599 1_555
O7 Se1 1.633629 1_555
