# generated using pymatgen
data_Ba5Al3Ga2Sb
_symmetry_space_group_name_H-M   'P 1'
_cell_length_a   5.99789487
_cell_length_b   5.99789504
_cell_length_c   11.15356217
_cell_angle_alpha   90.00000000
_cell_angle_beta   90.00000000
_cell_angle_gamma   119.99998271
_symmetry_Int_Tables_number   1
_chemical_formula_structural   Ba5Al3Ga2Sb
_chemical_formula_sum   'Ba5 Al3 Ga2 Sb1'
_cell_volume   347.48975986
_cell_formula_units_Z   1
loop_
 _symmetry_equiv_pos_site_id
 _symmetry_equiv_pos_as_xyz
  1  'x, y, z'
loop_
 _atom_site_type_symbol
 _atom_site_label
 _atom_site_symmetry_multiplicity
 _atom_site_fract_x
 _atom_site_fract_y
 _atom_site_fract_z
 _atom_site_occupancy
  Ba  Ba0  1  0.00000000  0.00000000  0.67691068  1
  Ba  Ba1  1  0.66666700  0.33333300  0.78532570  1
  Ba  Ba2  1  0.66666700  0.33333300  0.21467430  1
  Ba  Ba3  1  0.33333300  0.66666700  0.00000000  1
  Ba  Ba4  1  0.00000000  0.00000000  0.32308932  1
  Al  Al0  1  0.50746031  0.49253969  0.50000000  1
  Al  Al1  1  0.98507838  0.49253969  0.50000000  1
  Al  Al2  1  0.50746031  0.01492162  0.50000000  1
  Ga  Ga0  1  0.33333300  0.66666700  0.67999650  1
  Ga  Ga1  1  0.33333300  0.66666700  0.32000350  1
  Sb  Sb0  1  0.00000000  0.00000000  0.00000000  1
loop_
_geom_bond_atom_site_label_1
_geom_bond_atom_site_label_2
_geom_bond_distance
_geom_bond_site_symmetry_2
Ba0 Ga0 3.463054 1_545
Ba0 Ga0 3.463060 1_445
Ba0 Ga0 3.463060 1_555
Ba0 Sb0 3.603597 1_556
Ba1 Ga0 3.656734 1_655
Ba1 Ga0 3.656734 1_545
Ba1 Ga0 3.656743 1_555
Ba2 Ga1 3.656734 1_655
Ba2 Ga1 3.656734 1_545
Ba2 Ga1 3.656743 1_555
Ba3 Sb0 3.462883 1_565
Ba3 Sb0 3.462889 1_665
Ba3 Sb0 3.462889 1_555
Ba3 Ga1 3.569179 1_555
Ba3 Ga0 3.569179 1_554
Ba4 Ga1 3.463054 1_545
Ba4 Ga1 3.463060 1_445
Ba4 Ga1 3.463060 1_555
Ba4 Sb0 3.603597 1_555
Al0 Ga0 2.702362 1_555
Al0 Ga1 2.702362 1_555
Al0 Ba1 3.586529 1_555
Al0 Ba2 3.586529 1_555
Al0 Ba4 3.590704 1_555
Al0 Ba0 3.590704 1_555
Al0 Ba4 3.590704 1_665
Al0 Ba0 3.590704 1_665
Al1 Ga0 2.702363 1_655
Al1 Ga1 2.702363 1_655
Al1 Ba1 3.586524 1_555
Al1 Ba2 3.586524 1_555
Al1 Ba4 3.590701 1_665
Al1 Ba0 3.590701 1_665
Al1 Ba4 3.590706 1_655
Al1 Ba0 3.590706 1_655
Al2 Ga0 2.702363 1_545
Al2 Ga1 2.702363 1_545
Al2 Ba1 3.586524 1_555
Al2 Ba2 3.586524 1_555
Al2 Ba4 3.590701 1_555
Al2 Ba0 3.590701 1_555
Al2 Ba4 3.590706 1_655
Al2 Ba0 3.590706 1_655
