# generated using pymatgen
data_RbSc3Se5
_symmetry_space_group_name_H-M   'P 1'
_cell_length_a   3.91274489
_cell_length_b   11.75556214
_cell_length_c   21.00075153
_cell_angle_alpha   90.00000000
_cell_angle_beta   90.00000000
_cell_angle_gamma   90.00000000
_symmetry_Int_Tables_number   1
_chemical_formula_structural   RbSc3Se5
_chemical_formula_sum   'Rb4 Sc12 Se20'
_cell_volume   965.96139848
_cell_formula_units_Z   4
loop_
 _symmetry_equiv_pos_site_id
 _symmetry_equiv_pos_as_xyz
  1  'x, y, z'
loop_
 _atom_site_type_symbol
 _atom_site_label
 _atom_site_symmetry_multiplicity
 _atom_site_fract_x
 _atom_site_fract_y
 _atom_site_fract_z
 _atom_site_occupancy
  Rb  Rb0  1  0.25000000  0.85234020  0.09089424  1
  Rb  Rb1  1  0.75000000  0.14765980  0.90910576  1
  Rb  Rb2  1  0.75000000  0.35234020  0.40910576  1
  Rb  Rb3  1  0.25000000  0.64765980  0.59089424  1
  Sc  Sc0  1  0.75000000  0.79801761  0.82559558  1
  Sc  Sc1  1  0.25000000  0.20198239  0.17440442  1
  Sc  Sc2  1  0.25000000  0.29801761  0.67440442  1
  Sc  Sc3  1  0.75000000  0.70198239  0.32559558  1
  Sc  Sc4  1  0.25000000  0.95604718  0.69816649  1
  Sc  Sc5  1  0.75000000  0.04395282  0.30183351  1
  Sc  Sc6  1  0.75000000  0.45604718  0.80183351  1
  Sc  Sc7  1  0.25000000  0.54395282  0.19816649  1
  Sc  Sc8  1  0.75000000  0.39213596  0.05482037  1
  Sc  Sc9  1  0.25000000  0.60786404  0.94517963  1
  Sc  Sc10  1  0.25000000  0.89213596  0.44517963  1
  Sc  Sc11  1  0.75000000  0.10786404  0.55482037  1
  Se  Se0  1  0.25000000  0.94731548  0.56894891  1
  Se  Se1  1  0.75000000  0.05268452  0.43105109  1
  Se  Se2  1  0.75000000  0.44731548  0.93105109  1
  Se  Se3  1  0.25000000  0.55268452  0.06894891  1
  Se  Se4  1  0.75000000  0.76620339  0.95314954  1
  Se  Se5  1  0.25000000  0.23379661  0.04685046  1
  Se  Se6  1  0.25000000  0.26620339  0.54685046  1
  Se  Se7  1  0.75000000  0.73379661  0.45314954  1
  Se  Se8  1  0.25000000  0.95186299  0.82596651  1
  Se  Se9  1  0.75000000  0.04813701  0.17403349  1
  Se  Se10  1  0.75000000  0.45186299  0.67403349  1
  Se  Se11  1  0.25000000  0.54813701  0.32596651  1
  Se  Se12  1  0.75000000  0.12622193  0.68512872  1
  Se  Se13  1  0.25000000  0.87377807  0.31487128  1
  Se  Se14  1  0.25000000  0.62622193  0.81487128  1
  Se  Se15  1  0.75000000  0.37377807  0.18512872  1
  Se  Se16  1  0.75000000  0.69558621  0.19803758  1
  Se  Se17  1  0.25000000  0.30441379  0.80196242  1
  Se  Se18  1  0.25000000  0.19558621  0.30196242  1
  Se  Se19  1  0.75000000  0.80441379  0.69803758  1
loop_
_geom_bond_atom_site_label_1
_geom_bond_atom_site_label_2
_geom_bond_distance
_geom_bond_site_symmetry_2
Rb0 Se9 3.489082 1_565
Rb0 Se9 3.489082 1_465
Rb0 Se16 3.505133 1_455
Rb0 Se16 3.505133 1_555
Rb0 Se3 3.552641 1_555
Rb0 Se4 3.636026 1_454
Rb0 Se4 3.636026 1_554
Rb1 Se8 3.489082 1_645
Rb1 Se8 3.489082 1_545
Rb1 Se17 3.505133 1_555
Rb1 Se17 3.505133 1_655
Rb1 Se2 3.552641 1_555
Rb1 Se5 3.636026 1_656
Rb1 Se5 3.636026 1_556
Rb2 Se11 3.489082 1_555
Rb2 Se11 3.489082 1_655
Rb2 Se18 3.505133 1_655
Rb2 Se18 3.505133 1_555
Rb2 Se1 3.552641 1_555
Rb2 Se6 3.636026 1_555
Rb2 Se6 3.636026 1_655
Rb3 Se10 3.489082 1_555
Rb3 Se10 3.489082 1_455
Rb3 Se19 3.505133 1_455
Rb3 Se19 3.505133 1_555
Rb3 Se0 3.552641 1_555
Rb3 Se7 3.636026 1_555
Rb3 Se7 3.636026 1_455
Sc0 Se8 2.664257 1_555
Sc0 Se8 2.664257 1_655
Sc0 Se19 2.679869 1_555
Sc0 Se4 2.704711 1_555
Sc0 Se14 2.820765 1_555
Sc0 Se14 2.820765 1_655
Sc1 Se9 2.664257 1_555
Sc1 Se9 2.664257 1_455
Sc1 Se18 2.679869 1_555
Sc1 Se5 2.704711 1_555
Sc1 Se15 2.820765 1_455
Sc1 Se15 2.820765 1_555
Sc2 Se10 2.664257 1_455
Sc2 Se10 2.664257 1_555
Sc2 Se17 2.679869 1_555
Sc2 Se6 2.704711 1_555
Sc2 Se12 2.820765 1_555
Sc2 Se12 2.820765 1_455
Sc3 Se11 2.664257 1_655
Sc3 Se11 2.664257 1_555
Sc3 Se16 2.679869 1_555
Sc3 Se7 2.704711 1_555
Sc3 Se13 2.820765 1_555
Sc3 Se13 2.820765 1_655
Sc4 Se19 2.646665 1_455
Sc4 Se19 2.646665 1_555
Sc4 Se8 2.684347 1_555
Sc4 Se0 2.715607 1_555
Sc4 Se12 2.811469 1_565
Sc4 Se12 2.811469 1_465
Sc5 Se18 2.646665 1_555
Sc5 Se18 2.646665 1_655
Sc5 Se9 2.684347 1_555
Sc5 Se1 2.715607 1_555
Sc5 Se13 2.811469 1_645
Sc5 Se13 2.811469 1_545
Sc6 Se17 2.646665 1_655
Sc6 Se17 2.646665 1_555
Sc6 Se10 2.684347 1_555
Sc6 Se2 2.715607 1_555
Sc6 Se14 2.811469 1_555
Sc6 Se14 2.811469 1_655
Sc7 Se16 2.646665 1_455
Sc7 Se16 2.646665 1_555
Sc7 Se11 2.684347 1_555
Sc7 Se3 2.715607 1_555
Sc7 Se15 2.811469 1_555
Sc7 Se15 2.811469 1_455
Sc8 Se2 2.678966 1_554
Sc8 Se5 2.705568 1_555
Sc8 Se5 2.705568 1_655
Sc8 Se3 2.734498 1_555
Sc8 Se3 2.734498 1_655
Sc8 Se15 2.745069 1_555
Sc9 Se3 2.678966 1_556
Sc9 Se4 2.705568 1_555
Sc9 Se4 2.705568 1_455
Sc9 Se2 2.734498 1_455
Sc9 Se2 2.734498 1_555
Sc9 Se14 2.745069 1_555
Sc10 Se0 2.678966 1_555
Sc10 Se7 2.705568 1_555
Sc10 Se7 2.705568 1_455
Sc10 Se1 2.734498 1_565
Sc10 Se1 2.734498 1_465
Sc10 Se13 2.745069 1_555
Sc11 Se1 2.678966 1_555
Sc11 Se6 2.705568 1_555
Sc11 Se6 2.705568 1_655
Sc11 Se0 2.734498 1_545
Sc11 Se0 2.734498 1_645
Sc11 Se12 2.745069 1_555
