# generated using pymatgen
data_Sc12Co4AgPb
_symmetry_space_group_name_H-M   'P 1'
_cell_length_a   7.79423351
_cell_length_b   7.79423445
_cell_length_c   7.79423419
_cell_angle_alpha   110.75961674
_cell_angle_beta   110.53829309
_cell_angle_gamma   107.14067397
_symmetry_Int_Tables_number   1
_chemical_formula_structural   Sc12Co4AgPb
_chemical_formula_sum   'Sc12 Co4 Ag1 Pb1'
_cell_volume   364.04931754
_cell_formula_units_Z   1
loop_
 _symmetry_equiv_pos_site_id
 _symmetry_equiv_pos_as_xyz
  1  'x, y, z'
loop_
 _atom_site_type_symbol
 _atom_site_label
 _atom_site_symmetry_multiplicity
 _atom_site_fract_x
 _atom_site_fract_y
 _atom_site_fract_z
 _atom_site_occupancy
  Sc  Sc0  1  0.43724461  0.22386885  0.21337476  1
  Sc  Sc1  1  0.56275539  0.77613115  0.78662524  1
  Sc  Sc2  1  0.01049310  0.22386885  0.78662524  1
  Sc  Sc3  1  0.98950690  0.77613115  0.21337476  1
  Sc  Sc4  1  0.31063969  0.60979812  0.29915943  1
  Sc  Sc5  1  0.68936031  0.39020188  0.70084057  1
  Sc  Sc6  1  0.31063969  0.01147926  0.70084057  1
  Sc  Sc7  1  0.68936031  0.98852074  0.29915943  1
  Sc  Sc8  1  0.18839866  0.28542863  0.47382829  1
  Sc  Sc9  1  0.81160134  0.71457037  0.52617171  1
  Sc  Sc10  1  0.18839866  0.71457037  0.90297003  1
  Sc  Sc11  1  0.81160134  0.28542863  0.09702997  1
  Co  Co0  1  0.37563964  1.00000000  0.37563964  1
  Co  Co1  1  0.62436036  0.00000000  0.62436036  1
  Co  Co2  1  0.11578950  0.61578950  0.50000000  1
  Co  Co3  1  0.88421050  0.38421050  0.50000000  1
  Ag  Ag0  1  0.00000000  0.00000000  0.00000000  1
  Pb  Pb0  1  0.50000000  0.50000000  0.00000000  1
loop_
_geom_bond_atom_site_label_1
_geom_bond_atom_site_label_2
_geom_bond_distance
_geom_bond_site_symmetry_2
Co0 Co1 2.208912 1_565
Co0 Sc3 2.524152 1_455
Co0 Sc0 2.524160 1_565
Co0 Sc7 2.730624 1_555
Co0 Sc6 2.730628 1_565
Co0 Sc5 2.730630 1_565
Co0 Sc4 2.730634 1_555
Co0 Sc10 3.025772 1_554
Co0 Sc8 3.025772 1_565
Co1 Sc2 2.524152 1_655
Co1 Sc1 2.524160 1_545
Co1 Sc6 2.730624 1_555
Co1 Sc7 2.730628 1_545
Co1 Sc4 2.730630 1_545
Co1 Sc5 2.730634 1_555
Co1 Sc11 3.025771 1_556
Co1 Sc9 3.025778 1_545
Co2 Co3 2.143723 1_455
Co2 Sc6 2.533221 1_565
Co2 Sc4 2.533227 1_555
Co2 Sc9 2.749474 1_455
Co2 Sc11 2.749480 1_455
Co2 Sc10 2.749482 1_555
Co2 Sc8 2.749482 1_555
Co2 Sc1 2.946669 1_555
Co2 Sc3 2.946674 1_455
Co3 Sc7 2.533221 1_545
Co3 Sc5 2.533227 1_555
Co3 Sc9 2.749474 1_555
Co3 Sc10 2.749478 1_655
Co3 Sc8 2.749478 1_655
Co3 Sc11 2.749480 1_555
Co3 Sc0 2.946669 1_555
Co3 Sc2 2.946674 1_655
Ag0 Sc2 2.808143 1_554
Ag0 Sc3 2.808143 1_445
Ag0 Sc0 2.808150 1_555
Ag0 Sc1 2.808150 1_444
Ag0 Sc11 3.031433 1_455
Ag0 Sc8 3.031439 1_555
Ag0 Sc10 3.031439 1_544
Ag0 Sc9 3.031441 1_444
Pb0 Sc4 3.176836 1_555
Pb0 Sc5 3.176836 1_554
Pb0 Sc7 3.176844 1_555
Pb0 Sc6 3.176844 1_554
Pb0 Sc0 3.181963 1_555
Pb0 Sc1 3.181963 1_554
Pb0 Sc3 3.181970 1_555
Pb0 Sc2 3.181970 1_554
Pb0 Sc8 3.357000 1_554
Pb0 Sc10 3.357000 1_554
Pb0 Sc9 3.357001 1_555
Pb0 Sc11 3.357006 1_555
