# generated using pymatgen
data_Tm2Ti2O7
_symmetry_space_group_name_H-M   'P 1'
_cell_length_a   7.13087490
_cell_length_b   7.13087490
_cell_length_c   7.13087490
_cell_angle_alpha   60.00000000
_cell_angle_beta   60.00000000
_cell_angle_gamma   60.00000000
_symmetry_Int_Tables_number   1
_chemical_formula_structural   Tm2Ti2O7
_chemical_formula_sum   'Tm4 Ti4 O14'
_cell_volume   256.39730459
_cell_formula_units_Z   2
loop_
 _symmetry_equiv_pos_site_id
 _symmetry_equiv_pos_as_xyz
  1  'x, y, z'
loop_
 _atom_site_type_symbol
 _atom_site_label
 _atom_site_symmetry_multiplicity
 _atom_site_fract_x
 _atom_site_fract_y
 _atom_site_fract_z
 _atom_site_occupancy
  Tm  Tm0  1  0.12500000  0.62500000  0.12500000  1
  Tm  Tm1  1  0.12500000  0.12500000  0.62500000  1
  Tm  Tm2  1  0.62500000  0.12500000  0.12500000  1
  Tm  Tm3  1  0.12500000  0.12500000  0.12500000  1
  Ti  Ti0  1  0.62500000  0.62500000  0.62500000  1
  Ti  Ti1  1  0.12500000  0.62500000  0.62500000  1
  Ti  Ti2  1  0.62500000  0.62500000  0.12500000  1
  Ti  Ti3  1  0.62500000  0.12500000  0.62500000  1
  O  O0  1  0.70749400  0.29250600  0.29250600  1
  O  O1  1  0.29250600  0.29250600  0.70749400  1
  O  O2  1  0.54250600  0.54250600  0.95749400  1
  O  O3  1  0.95749400  0.54250600  0.54250600  1
  O  O4  1  0.25000000  0.25000000  0.25000000  1
  O  O5  1  0.70749400  0.29250600  0.70749400  1
  O  O6  1  0.54250600  0.95749400  0.54250600  1
  O  O7  1  0.95749400  0.54250600  0.95749400  1
  O  O8  1  0.54250600  0.95749400  0.95749400  1
  O  O9  1  0.95749400  0.95749400  0.54250600  1
  O  O10  1  0.29250600  0.70749400  0.29250600  1
  O  O11  1  0.00000000  0.00000000  0.00000000  1
  O  O12  1  0.70749400  0.70749400  0.29250600  1
  O  O13  1  0.29250600  0.70749400  0.70749400  1
loop_
_geom_bond_atom_site_label_1
_geom_bond_atom_site_label_2
_geom_bond_distance
_geom_bond_site_symmetry_2
O0 Ti3 1.967275 1_555
O0 Ti2 1.967275 1_555
O0 Tm2 2.455927 1_555
O0 Tm3 2.455927 1_655
O1 Ti3 1.967275 1_555
O1 Ti1 1.967275 1_555
O1 Tm1 2.455927 1_555
O1 Tm3 2.455927 1_556
O2 Ti0 1.967275 1_555
O2 Ti2 1.967275 1_556
O2 Tm0 2.455927 1_556
O2 Tm2 2.455927 1_556
O3 Ti0 1.967275 1_555
O3 Ti1 1.967275 1_655
O3 Tm0 2.455927 1_655
O3 Tm1 2.455927 1_655
O4 Tm1 2.183376 1_555
O4 Tm3 2.183376 1_555
O4 Tm2 2.183376 1_555
O4 Tm0 2.183376 1_555
O5 Ti3 1.967275 1_555
O5 Ti0 1.967275 1_555
O5 Tm2 2.455927 1_556
O5 Tm1 2.455927 1_655
O6 Ti0 1.967275 1_555
O6 Ti3 1.967275 1_565
O6 Tm2 2.455927 1_565
O6 Tm1 2.455927 1_565
O7 Ti1 1.967275 1_655
O7 Ti2 1.967275 1_556
O7 Tm3 2.455927 1_656
O7 Tm0 2.455927 1_656
O8 Ti2 1.967275 1_556
O8 Ti3 1.967275 1_565
O8 Tm3 2.455927 1_566
O8 Tm2 2.455927 1_566
O9 Ti3 1.967275 1_565
O9 Ti1 1.967275 1_655
O9 Tm3 2.455927 1_665
O9 Tm1 2.455927 1_665
O10 Ti1 1.967275 1_555
O10 Ti2 1.967275 1_555
O10 Tm0 2.455927 1_555
O10 Tm3 2.455927 1_565
O11 Tm0 2.183376 1_545
O11 Tm3 2.183376 1_555
O11 Tm1 2.183376 1_554
O11 Tm2 2.183376 1_455
O12 Ti2 1.967275 1_555
O12 Ti0 1.967275 1_555
O12 Tm2 2.455927 1_565
O12 Tm0 2.455927 1_655
O13 Ti1 1.967275 1_555
O13 Ti0 1.967275 1_555
O13 Tm1 2.455927 1_565
O13 Tm0 2.455927 1_556
