# generated using pymatgen
data_YZr2Al7Ni2
_symmetry_space_group_name_H-M   'P 1'
_cell_length_a   8.74346621
_cell_length_b   8.74346705
_cell_length_c   8.74346638
_cell_angle_alpha   35.25431627
_cell_angle_beta   35.25430593
_cell_angle_gamma   35.25430701
_symmetry_Int_Tables_number   1
_chemical_formula_structural   YZr2Al7Ni2
_chemical_formula_sum   'Y1 Zr2 Al7 Ni2'
_cell_volume   198.92818003
_cell_formula_units_Z   1
loop_
 _symmetry_equiv_pos_site_id
 _symmetry_equiv_pos_as_xyz
  1  'x, y, z'
loop_
 _atom_site_type_symbol
 _atom_site_label
 _atom_site_symmetry_multiplicity
 _atom_site_fract_x
 _atom_site_fract_y
 _atom_site_fract_z
 _atom_site_occupancy
  Y  Y0  1  0.00000000  0.00000000  0.00000000  1
  Zr  Zr0  1  0.85479057  0.85479057  0.85479057  1
  Zr  Zr1  1  0.14520943  0.14520943  0.14520943  1
  Al  Al0  1  0.41843687  0.41843687  0.92762997  1
  Al  Al1  1  0.92762997  0.41843687  0.41843687  1
  Al  Al2  1  0.41843687  0.92762997  0.41843687  1
  Al  Al3  1  0.50000000  0.50000000  0.50000000  1
  Al  Al4  1  0.58156313  0.07237003  0.58156313  1
  Al  Al5  1  0.07237003  0.58156313  0.58156313  1
  Al  Al6  1  0.58156313  0.58156313  0.07237003  1
  Ni  Ni0  1  0.66511530  0.66511530  0.66511530  1
  Ni  Ni1  1  0.33488470  0.33488470  0.33488470  1
loop_
_geom_bond_atom_site_label_1
_geom_bond_atom_site_label_2
_geom_bond_distance
_geom_bond_site_symmetry_2
Y0 Zr0 3.568459 1_444
Y0 Zr1 3.568459 1_555
Zr0 Zr1 3.234092 1_566
Zr0 Zr1 3.234092 1_665
Zr0 Zr1 3.234093 1_656
Al0 Ni0 2.449326 1_555
Al0 Ni1 2.474170 1_556
Al0 Al1 2.599029 1_456
Al0 Al2 2.599030 1_546
Al0 Al3 2.667967 1_555
Al0 Al1 2.696392 1_555
Al0 Al2 2.696393 1_555
Al0 Zr1 3.083705 1_556
Al0 Zr0 3.114281 1_455
Al0 Zr0 3.114281 1_545
Al0 Y0 3.276047 1_656
Al0 Y0 3.276047 1_566
Al1 Ni0 2.449326 1_555
Al1 Ni1 2.474170 1_655
Al1 Al2 2.599029 1_645
Al1 Al3 2.667967 1_555
Al1 Al2 2.696392 1_555
Al1 Zr1 3.083705 1_655
Al1 Zr0 3.114282 1_554
Al1 Zr0 3.114282 1_545
Al1 Y0 3.276047 1_656
Al1 Y0 3.276048 1_665
Al2 Ni0 2.449326 1_555
Al2 Ni1 2.474170 1_565
Al2 Al3 2.667967 1_555
Al2 Zr1 3.083705 1_565
Al2 Zr0 3.114281 1_554
Al2 Zr0 3.114281 1_455
Al2 Y0 3.276047 1_566
Al2 Y0 3.276047 1_665
Al3 Al5 2.667967 1_555
Al3 Al6 2.667967 1_555
Al3 Al4 2.667967 1_555
Al3 Zr1 3.102452 1_655
Al3 Zr0 3.102452 1_455
Al3 Zr1 3.102452 1_556
Al3 Zr0 3.102452 1_554
Al3 Zr0 3.102453 1_545
Al3 Zr1 3.102453 1_565
Al4 Ni1 2.449326 1_555
Al4 Ni0 2.474170 1_545
Al4 Al5 2.599029 1_645
Al4 Al6 2.599030 1_546
Al4 Al5 2.696392 1_555
Al4 Al6 2.696393 1_555
Al4 Zr0 3.083705 1_545
Al4 Zr1 3.114281 1_556
Al4 Zr1 3.114281 1_655
Al4 Y0 3.276047 1_655
Al4 Y0 3.276047 1_556
Al5 Ni1 2.449326 1_555
Al5 Ni0 2.474170 1_455
Al5 Al6 2.599029 1_456
Al5 Al6 2.696392 1_555
Al5 Zr0 3.083705 1_455
Al5 Zr1 3.114282 1_556
Al5 Zr1 3.114282 1_565
Al5 Y0 3.276047 1_565
Al5 Y0 3.276048 1_556
Al6 Ni1 2.449326 1_555
Al6 Ni0 2.474170 1_554
Al6 Zr0 3.083705 1_554
Al6 Zr1 3.114281 1_655
Al6 Zr1 3.114281 1_565
Al6 Y0 3.276047 1_565
Al6 Y0 3.276047 1_655
Ni0 Y0 3.057550 1_566
Ni0 Y0 3.057551 1_665
Ni0 Y0 3.057551 1_656
Ni1 Y0 3.057550 1_655
Ni1 Y0 3.057551 1_556
Ni1 Y0 3.057551 1_565
