# generated using pymatgen
data_NaVBr18
_symmetry_space_group_name_H-M   'P 1'
_cell_length_a   9.12075323
_cell_length_b   9.12075415
_cell_length_c   9.12075404
_cell_angle_alpha   96.57140401
_cell_angle_beta   96.57139192
_cell_angle_gamma   96.57139945
_symmetry_Int_Tables_number   1
_chemical_formula_structural   NaVBr18
_chemical_formula_sum   'Na1 V1 Br18'
_cell_volume   742.52256603
_cell_formula_units_Z   1
loop_
 _symmetry_equiv_pos_site_id
 _symmetry_equiv_pos_as_xyz
  1  'x, y, z'
loop_
 _atom_site_type_symbol
 _atom_site_label
 _atom_site_symmetry_multiplicity
 _atom_site_fract_x
 _atom_site_fract_y
 _atom_site_fract_z
 _atom_site_occupancy
  Na  Na0  1  0.00000000  0.00000000  0.00000000  1
  V  V0  1  0.50000000  0.50000000  0.50000000  1
  Br  Br0  1  0.69966613  0.00041335  0.08394485  1
  Br  Br1  1  0.77612729  0.15429002  0.58117794  1
  Br  Br2  1  0.08394485  0.69966613  0.00041335  1
  Br  Br3  1  0.22387271  0.84570998  0.41882206  1
  Br  Br4  1  0.15429002  0.58117794  0.77612729  1
  Br  Br5  1  0.99958665  0.91605515  0.30033387  1
  Br  Br6  1  0.58117794  0.77612729  0.15429002  1
  Br  Br7  1  0.91605515  0.30033387  0.99958665  1
  Br  Br8  1  0.84570998  0.41882206  0.22387271  1
  Br  Br9  1  0.41882206  0.22387271  0.84570998  1
  Br  Br10  1  0.00041335  0.08394485  0.69966613  1
  Br  Br11  1  0.30033387  0.99958665  0.91605515  1
  Br  Br12  1  0.76307978  0.56616007  0.48143314  1
  Br  Br13  1  0.51856686  0.23692022  0.43383993  1
  Br  Br14  1  0.43383993  0.51856686  0.23692022  1
  Br  Br15  1  0.48143314  0.76307978  0.56616007  1
  Br  Br16  1  0.56616007  0.48143314  0.76307978  1
  Br  Br17  1  0.23692022  0.43383993  0.51856686  1
loop_
_geom_bond_atom_site_label_1
_geom_bond_atom_site_label_2
_geom_bond_distance
_geom_bond_site_symmetry_2
Br0 Br6 2.391107 1_545
Br0 Na0 2.927723 1_655
Br1 Br10 2.391107 1_655
Br1 Br13 2.794072 1_555
Br2 Br4 2.391107 1_554
Br2 Na0 2.927723 1_565
Br3 Br5 2.391107 1_455
Br5 Na0 2.927723 1_665
Br7 Br8 2.391107 1_556
Br7 Na0 2.927723 1_656
Br10 Na0 2.927723 1_556
Br11 Br9 2.391107 1_565
Br11 Na0 2.927723 1_566
Br12 V0 2.436252 1_555
Br12 Br8 2.794072 1_555
Br13 V0 2.436252 1_555
Br14 V0 2.436253 1_555
Br14 Br6 2.794072 1_555
Br15 V0 2.436252 1_555
Br15 Br3 2.794072 1_555
Br16 V0 2.436253 1_555
Br16 Br9 2.794072 1_555
Br17 V0 2.436252 1_555
Br17 Br4 2.794072 1_555
