# generated using pymatgen
data_Cs8HfBi4
_symmetry_space_group_name_H-M   'P 1'
_cell_length_a   12.68460687
_cell_length_b   12.68494686
_cell_length_c   12.68460687
_cell_angle_alpha   59.99200524
_cell_angle_beta   59.98968050
_cell_angle_gamma   59.99200525
_symmetry_Int_Tables_number   1
_chemical_formula_structural   Cs8HfBi4
_chemical_formula_sum   'Cs16 Hf2 Bi8'
_cell_volume   1442.91687750
_cell_formula_units_Z   2
loop_
 _symmetry_equiv_pos_site_id
 _symmetry_equiv_pos_as_xyz
  1  'x, y, z'
loop_
 _atom_site_type_symbol
 _atom_site_label
 _atom_site_symmetry_multiplicity
 _atom_site_fract_x
 _atom_site_fract_y
 _atom_site_fract_z
 _atom_site_occupancy
  Cs  Cs0  1  0.62500000  0.12500000  0.62500000  1
  Cs  Cs1  1  0.62500000  0.62500000  0.12500000  1
  Cs  Cs2  1  0.12500000  0.62500000  0.62500000  1
  Cs  Cs3  1  0.62500000  0.62500000  0.62500000  1
  Cs  Cs4  1  0.02510905  0.02516551  0.47484333  1
  Cs  Cs5  1  0.77515667  0.22483449  0.22489095  1
  Cs  Cs6  1  0.22501936  0.77503594  0.77505346  1
  Cs  Cs7  1  0.77505346  0.77503594  0.22501936  1
  Cs  Cs8  1  0.77500636  0.22502971  0.77500636  1
  Cs  Cs9  1  0.22481747  0.77519573  0.22481747  1
  Cs  Cs10  1  0.47499364  0.02497029  0.47499364  1
  Cs  Cs11  1  0.47484333  0.02516551  0.02510905  1
  Cs  Cs12  1  0.02498064  0.47496406  0.47494654  1
  Cs  Cs13  1  0.02518253  0.47480427  0.02518253  1
  Cs  Cs14  1  0.22489095  0.22483449  0.77515667  1
  Cs  Cs15  1  0.47494654  0.47496406  0.02498064  1
  Hf  Hf0  1  0.74996091  0.74999969  0.74996091  1
  Hf  Hf1  1  0.50003909  0.50000031  0.50003909  1
  Bi  Bi0  1  0.40485073  0.78556047  0.40485073  1
  Bi  Bi1  1  0.84517816  0.84520498  0.46434387  1
  Bi  Bi2  1  0.46434387  0.84520498  0.84517816  1
  Bi  Bi3  1  0.84510422  0.84516384  0.84510422  1
  Bi  Bi4  1  0.78565613  0.40479502  0.40482184  1
  Bi  Bi5  1  0.40489578  0.40483616  0.40489578  1
  Bi  Bi6  1  0.40482184  0.40479502  0.78565613  1
  Bi  Bi7  1  0.84514927  0.46443953  0.84514927  1
loop_
_geom_bond_atom_site_label_1
_geom_bond_atom_site_label_2
_geom_bond_distance
_geom_bond_site_symmetry_2
Cs0 Hf1 3.883591 1_555
Cs0 Hf0 3.883591 1_545
Cs0 Cs8 4.159651 1_555
Cs0 Cs10 4.159651 1_555
Cs0 Cs4 4.159766 1_655
Cs0 Cs14 4.159766 1_555
Cs0 Cs11 4.159766 1_556
Cs0 Cs5 4.159766 1_555
Cs1 Hf1 3.883797 1_555
Cs1 Hf0 3.883797 1_554
Cs1 Cs7 4.160374 1_555
Cs1 Cs15 4.160374 1_555
Cs1 Cs11 4.160530 1_565
Cs1 Cs5 4.160530 1_555
Cs1 Cs13 4.160594 1_655
Cs1 Cs9 4.160594 1_555
Cs2 Hf1 3.883797 1_555
Cs2 Hf0 3.883797 1_455
Cs2 Cs6 4.160374 1_555
Cs2 Cs4 4.160530 1_565
Cs2 Cs9 4.160594 1_555
Cs3 Hf0 3.883331 1_555
Cs3 Hf1 3.883331 1_555
Cs3 Cs6 4.158292 1_555
Cs3 Cs7 4.158292 1_555
Cs3 Cs8 4.158330 1_555
Cs4 Cs5 4.528878 1_455
Cs4 Cs8 4.529488 1_455
Cs4 Cs9 4.529630 1_545
Cs4 Cs6 4.530443 1_545
Cs10 Cs3 4.158330 1_545
Cs10 Cs6 4.528271 1_545
Cs10 Cs7 4.528271 1_545
Cs10 Cs5 4.529488 1_555
Cs10 Cs14 4.529488 1_555
Cs11 Cs14 4.528878 1_554
Cs11 Cs8 4.529488 1_554
Cs11 Cs9 4.529630 1_545
Cs11 Cs7 4.530443 1_545
Cs12 Cs3 4.158292 1_455
Cs12 Cs2 4.160374 1_555
Cs12 Cs7 4.527991 1_455
Cs12 Cs8 4.528271 1_455
Cs12 Cs9 4.530007 1_555
Cs12 Cs14 4.530443 1_555
Cs13 Cs2 4.160594 1_554
Cs13 Cs5 4.529630 1_455
Cs13 Cs14 4.529630 1_554
Cs13 Cs6 4.530007 1_554
Cs13 Cs7 4.530007 1_455
Cs14 Cs2 4.160530 1_555
Cs15 Cs3 4.158292 1_554
Cs15 Cs6 4.527991 1_554
Cs15 Cs8 4.528271 1_554
Cs15 Cs9 4.530007 1_555
Cs15 Cs5 4.530443 1_555
Bi0 Hf1 2.957328 1_555
Bi0 Cs3 4.020835 1_555
Bi0 Cs2 4.021707 1_555
Bi0 Cs1 4.021707 1_555
Bi0 Cs7 4.029259 1_555
Bi0 Cs6 4.029259 1_555
Bi0 Cs9 4.032956 1_555
Bi0 Cs10 4.123503 1_565
Bi0 Cs4 4.123797 1_565
Bi0 Cs11 4.123797 1_565
Bi1 Hf0 2.957768 1_555
Bi1 Cs3 4.021405 1_555
Bi1 Cs0 4.021957 1_565
Bi1 Cs2 4.022263 1_655
Bi1 Cs10 4.028725 1_565
Bi1 Cs12 4.029621 1_655
Bi1 Cs4 4.032065 1_665
Bi1 Cs5 4.122437 1_565
Bi1 Cs7 4.122498 1_555
Bi1 Cs9 4.122529 1_655
Bi2 Hf0 2.957768 1_555
Bi2 Cs3 4.021405 1_555
Bi2 Cs0 4.021957 1_565
Bi2 Cs1 4.022263 1_556
Bi2 Cs10 4.028725 1_565
Bi2 Cs15 4.029621 1_556
Bi2 Cs11 4.032065 1_566
Bi2 Cs14 4.122437 1_565
Bi2 Cs6 4.122498 1_555
Bi2 Cs9 4.122529 1_556
Bi3 Hf0 2.956618 1_555
Bi3 Cs0 4.020158 1_565
Bi3 Cs1 4.020626 1_556
Bi3 Cs2 4.020626 1_655
Bi3 Cs11 4.030674 1_566
Bi3 Cs4 4.030674 1_665
Bi3 Cs13 4.032129 1_656
Bi3 Cs8 4.125494 1_565
Bi3 Cs6 4.125973 1_655
Bi3 Cs7 4.125973 1_556
Bi4 Hf1 2.957768 1_555
Bi4 Cs3 4.021405 1_555
Bi4 Cs0 4.021957 1_555
Bi4 Cs1 4.022263 1_555
Bi4 Cs8 4.028725 1_555
Bi4 Cs7 4.029621 1_555
Bi4 Cs5 4.032065 1_555
Bi4 Cs4 4.122437 1_655
Bi4 Cs12 4.122498 1_655
Bi4 Cs13 4.122529 1_655
Bi5 Hf1 2.956618 1_555
Bi5 Cs0 4.020158 1_555
Bi5 Cs1 4.020626 1_555
Bi5 Cs2 4.020626 1_555
Bi5 Cs5 4.030674 1_555
Bi5 Cs14 4.030674 1_555
Bi5 Cs9 4.032129 1_555
Bi5 Cs10 4.125494 1_555
Bi5 Cs12 4.125973 1_555
Bi5 Cs15 4.125973 1_555
Bi6 Hf1 2.957768 1_555
Bi6 Cs3 4.021405 1_555
Bi6 Cs0 4.021957 1_555
Bi6 Cs2 4.022263 1_555
Bi6 Cs8 4.028725 1_555
Bi6 Cs6 4.029621 1_555
Bi6 Cs14 4.032065 1_555
Bi6 Cs11 4.122437 1_556
Bi6 Cs15 4.122498 1_556
Bi6 Cs13 4.122529 1_556
Bi7 Hf0 2.957328 1_555
Bi7 Cs3 4.020835 1_555
Bi7 Cs2 4.021707 1_655
Bi7 Cs1 4.021707 1_556
Bi7 Cs15 4.029259 1_556
Bi7 Cs12 4.029259 1_655
Bi7 Cs13 4.032956 1_656
Bi7 Cs8 4.123503 1_555
Bi7 Cs14 4.123797 1_655
Bi7 Cs5 4.123797 1_556
