# generated using pymatgen
data_Cs12V3WS16
_symmetry_space_group_name_H-M   'P 1'
_cell_length_a   9.85227001
_cell_length_b   11.58021546
_cell_length_c   9.87339074
_cell_angle_alpha   90.00047745
_cell_angle_beta   89.95459529
_cell_angle_gamma   89.99913197
_symmetry_Int_Tables_number   1
_chemical_formula_structural   Cs12V3WS16
_chemical_formula_sum   'Cs12 V3 W1 S16'
_cell_volume   1126.46871129
_cell_formula_units_Z   1
loop_
 _symmetry_equiv_pos_site_id
 _symmetry_equiv_pos_as_xyz
  1  'x, y, z'
loop_
 _atom_site_type_symbol
 _atom_site_label
 _atom_site_symmetry_multiplicity
 _atom_site_fract_x
 _atom_site_fract_y
 _atom_site_fract_z
 _atom_site_occupancy
  Cs  Cs0  1  0.04295677  0.54312960  0.28864285  1
  Cs  Cs1  1  0.46009790  0.46242031  0.79557676  1
  Cs  Cs2  1  0.54608792  0.95821689  0.20735423  1
  Cs  Cs3  1  0.95194277  0.03870528  0.71051812  1
  Cs  Cs4  1  0.95194588  0.46129765  0.71051562  1
  Cs  Cs5  1  0.54608271  0.54178062  0.20735815  1
  Cs  Cs6  1  0.46009527  0.03758168  0.79557416  1
  Cs  Cs7  1  0.04296147  0.95687054  0.28864075  1
  Cs  Cs8  1  0.14703906  0.25000086  0.08276350  1
  Cs  Cs9  1  0.34792711  0.74999591  0.58743944  1
  Cs  Cs10  1  0.65416015  0.25000471  0.41039609  1
  Cs  Cs11  1  0.85032482  0.74999586  0.91498858  1
  V  V0  1  0.27799999  0.74999866  0.01682154  1
  V  V1  1  0.72121361  0.25000133  0.98275624  1
  V  V2  1  0.77617405  0.74999790  0.48293797  1
  W  W0  1  0.22525884  0.25000271  0.51686588  1
  S  S0  1  0.21276953  0.24998643  0.74195467  1
  S  S1  1  0.28955847  0.74999908  0.23490936  1
  S  S2  1  0.70946493  0.25000014  0.76405083  1
  S  S3  1  0.78932415  0.75000253  0.26465613  1
  S  S4  1  0.01661846  0.24999445  0.42764348  1
  S  S5  1  0.48163012  0.75000174  0.93461225  1
  S  S6  1  0.51773970  0.24999518  0.06646561  1
  S  S7  1  0.97920048  0.75000297  0.56660442  1
  S  S8  1  0.33011794  0.08822476  0.45457715  1
  S  S9  1  0.17305887  0.90372604  0.95215608  1
  S  S10  1  0.82670826  0.40397288  0.04704172  1
  S  S11  1  0.67083289  0.59597381  0.54617855  1
  S  S12  1  0.67083145  0.90402529  0.54618330  1
  S  S13  1  0.82670476  0.09602657  0.04704632  1
  S  S14  1  0.17305856  0.59627476  0.95215564  1
  S  S15  1  0.33011111  0.41178786  0.45460760  1
loop_
_geom_bond_atom_site_label_1
_geom_bond_atom_site_label_2
_geom_bond_distance
_geom_bond_site_symmetry_2
Cs0 S1 3.452735 1_555
Cs0 S3 3.469899 1_455
Cs0 S10 3.582506 1_455
Cs0 S15 3.606889 1_555
Cs0 S14 3.612831 1_554
Cs0 S4 3.670623 1_555
Cs0 S7 3.696298 1_455
Cs1 S2 3.490339 1_555
Cs1 S0 3.503139 1_555
Cs1 S11 3.571846 1_555
Cs1 S14 3.575349 1_555
Cs1 S5 3.608387 1_555
Cs1 S15 3.650230 1_555
Cs1 S6 3.678271 1_556
Cs2 S3 3.446547 1_555
Cs2 S1 3.503538 1_555
Cs2 S13 3.562144 1_565
Cs2 S8 3.569851 1_565
Cs2 S12 3.619731 1_555
Cs2 S6 3.664744 1_565
Cs2 S5 3.670335 1_554
Cs3 S2 3.459958 1_555
Cs3 S0 3.561962 1_655
Cs3 S12 3.569717 1_545
Cs3 S9 3.590162 1_645
Cs3 S13 3.605091 1_556
Cs3 S7 3.642476 1_545
Cs3 S4 3.767033 1_655
Cs4 S2 3.460062 1_555
Cs4 S0 3.562131 1_655
Cs4 S11 3.569695 1_555
Cs4 S14 3.590155 1_655
Cs4 S10 3.605095 1_556
Cs4 S7 3.642525 1_555
Cs4 S4 3.767072 1_655
Cs5 S3 3.446681 1_555
Cs5 S1 3.503448 1_555
Cs5 S10 3.562188 1_555
Cs5 S15 3.570011 1_555
Cs5 S11 3.619674 1_555
Cs5 S6 3.664818 1_555
Cs5 S5 3.670417 1_554
Cs6 S2 3.490397 1_555
Cs6 S0 3.502834 1_555
Cs6 S12 3.571773 1_545
Cs6 S9 3.575394 1_545
Cs6 S5 3.608397 1_545
Cs6 S8 3.650474 1_555
Cs6 S6 3.678185 1_556
Cs7 S1 3.452658 1_555
Cs7 S3 3.469941 1_455
Cs7 S13 3.582495 1_465
Cs7 S8 3.606864 1_565
Cs7 S9 3.612775 1_554
Cs7 S4 3.670485 1_565
Cs7 S7 3.696320 1_455
Cs8 S0 3.426184 1_554
Cs8 S4 3.638554 1_555
Cs8 S10 3.642175 1_455
Cs8 S13 3.642257 1_455
Cs8 S6 3.655659 1_555
Cs9 S1 3.528302 1_555
Cs9 S7 3.638777 1_455
Cs9 S11 3.669606 1_555
Cs9 S12 3.669679 1_555
Cs9 S5 3.673146 1_555
Cs9 S15 4.134040 1_555
Cs9 S8 4.134377 1_565
Cs10 S2 3.534455 1_555
Cs10 S4 3.575230 1_655
Cs10 S6 3.653066 1_555
Cs10 S8 3.726991 1_555
Cs10 S15 3.727050 1_555
Cs11 S3 3.503855 1_556
Cs11 S5 3.637490 1_555
Cs11 S14 3.662708 1_655
Cs11 S9 3.662806 1_655
Cs11 S7 3.665655 1_555
S0 W0 2.225696 1_555
S1 V0 2.156365 1_555
S2 V1 2.162556 1_555
S3 V2 2.158970 1_555
S4 W0 2.237033 1_555
S5 V0 2.163600 1_556
S6 V1 2.167766 1_554
S7 V2 2.164740 1_555
S8 W0 2.225793 1_555
S9 V0 2.155624 1_556
S10 V1 2.159489 1_554
S11 V2 2.155782 1_555
S12 V2 2.155800 1_555
S13 V1 2.159499 1_554
S14 V0 2.155611 1_556
S15 W0 2.225784 1_555
