# generated using pymatgen
data_Zr3Pt(SeO3)8
_symmetry_space_group_name_H-M   'P 1'
_cell_length_a   8.41606950
_cell_length_b   8.41606847
_cell_length_c   8.41606878
_cell_angle_alpha   88.86490933
_cell_angle_beta   91.13508445
_cell_angle_gamma   91.13508819
_symmetry_Int_Tables_number   1
_chemical_formula_structural   Zr3Pt(SeO3)8
_chemical_formula_sum   'Zr3 Pt1 Se8 O24'
_cell_volume   595.76561926
_cell_formula_units_Z   1
loop_
 _symmetry_equiv_pos_site_id
 _symmetry_equiv_pos_as_xyz
  1  'x, y, z'
loop_
 _atom_site_type_symbol
 _atom_site_label
 _atom_site_symmetry_multiplicity
 _atom_site_fract_x
 _atom_site_fract_y
 _atom_site_fract_z
 _atom_site_occupancy
  Zr  Zr0  1  0.50000000  0.00000000  0.50000000  1
  Zr  Zr1  1  0.00000000  0.00000000  0.00000000  1
  Zr  Zr2  1  0.00000000  0.50000000  0.50000000  1
  Pt  Pt0  1  0.50000000  0.50000000  0.00000000  1
  Se  Se0  1  0.81076459  0.18923541  0.68923541  1
  Se  Se1  1  0.18923541  0.81076459  0.31076459  1
  Se  Se2  1  0.69081433  0.66636581  0.71788705  1
  Se  Se3  1  0.21788705  0.69081433  0.83363419  1
  Se  Se4  1  0.33363419  0.21788705  0.80918567  1
  Se  Se5  1  0.78211295  0.30918567  0.16636581  1
  Se  Se6  1  0.66636581  0.78211295  0.19081433  1
  Se  Se7  1  0.30918567  0.33363419  0.28211295  1
  O  O0  1  0.22613454  0.44739089  0.42175255  1
  O  O1  1  0.92175255  0.22613454  0.05260911  1
  O  O2  1  0.02252401  0.72448173  0.38938447  1
  O  O3  1  0.46378319  0.26654604  0.96557547  1
  O  O4  1  0.27551827  0.88938447  0.47747599  1
  O  O5  1  0.53442453  0.53621681  0.76654604  1
  O  O6  1  0.88938447  0.02252401  0.77551827  1
  O  O7  1  0.53621681  0.73345396  0.03442453  1
  O  O8  1  0.55260911  0.92175255  0.27386546  1
  O  O9  1  0.44739089  0.07824745  0.72613454  1
  O  O10  1  0.79230905  0.90291652  0.08914969  1
  O  O11  1  0.26654604  0.53442453  0.96378319  1
  O  O12  1  0.09708348  0.58914969  0.70769095  1
  O  O13  1  0.11061553  0.97747599  0.22448173  1
  O  O14  1  0.20769095  0.09708348  0.91085031  1
  O  O15  1  0.46557547  0.46378319  0.23345396  1
  O  O16  1  0.77386546  0.55260911  0.57824745  1
  O  O17  1  0.90291652  0.41085031  0.29230905  1
  O  O18  1  0.07824745  0.77386546  0.94739089  1
  O  O19  1  0.41085031  0.20769095  0.40291652  1
  O  O20  1  0.58914969  0.79230905  0.59708348  1
  O  O21  1  0.97747599  0.27551827  0.61061553  1
  O  O22  1  0.72448173  0.11061553  0.52252401  1
  O  O23  1  0.73345396  0.46557547  0.03621681  1
loop_
_geom_bond_atom_site_label_1
_geom_bond_atom_site_label_2
_geom_bond_distance
_geom_bond_site_symmetry_2
O0 Se7 1.699972 1_555
O0 Zr2 2.084786 1_555
O1 Se5 1.699972 1_555
O1 Zr1 2.084786 1_655
O2 Se1 1.706183 1_555
O2 Zr2 2.096425 1_555
O3 Se4 1.745364 1_555
O3 Pt0 2.008101 1_556
O4 Se1 1.706183 1_555
O4 Zr0 2.096425 1_565
O5 Se2 1.745364 1_555
O5 Pt0 2.008101 1_556
O6 Se0 1.706183 1_555
O6 Zr1 2.096425 1_656
O7 Se6 1.745364 1_555
O7 Pt0 2.008101 1_555
O8 Se6 1.699972 1_555
O8 Zr0 2.084786 1_565
O9 Se4 1.699972 1_555
O9 Zr0 2.084786 1_555
O10 Se6 1.687601 1_555
O10 Zr1 2.063228 1_665
O11 Se3 1.745364 1_555
O11 Pt0 2.008101 1_556
O12 Se3 1.687602 1_555
O12 Zr2 2.063228 1_555
O13 Se1 1.706183 1_555
O13 Zr1 2.096425 1_565
O14 Se4 1.687601 1_555
O14 Zr1 2.063228 1_556
O15 Se7 1.745364 1_555
O15 Pt0 2.008101 1_555
O16 Se2 1.699972 1_555
O16 Zr2 2.084786 1_655
O17 Se5 1.687602 1_555
O17 Zr2 2.063228 1_655
O18 Se3 1.699972 1_555
O18 Zr1 2.084786 1_566
O19 Se7 1.687602 1_555
O19 Zr0 2.063228 1_555
O20 Se2 1.687602 1_555
O20 Zr0 2.063228 1_565
O21 Se0 1.706183 1_555
O21 Zr2 2.096425 1_655
O22 Se0 1.706183 1_555
O22 Zr0 2.096425 1_555
O23 Se5 1.745364 1_555
O23 Pt0 2.008101 1_555
