# generated using pymatgen
data_Y20ZnIn5Ru2
_symmetry_space_group_name_H-M   'P 1'
_cell_length_a   9.75320433
_cell_length_b   9.81969841
_cell_length_c   9.65613542
_cell_angle_alpha   90.00000000
_cell_angle_beta   90.00000000
_cell_angle_gamma   120.22579115
_symmetry_Int_Tables_number   1
_chemical_formula_structural   Y20ZnIn5Ru2
_chemical_formula_sum   'Y20 Zn1 In5 Ru2'
_cell_volume   799.07369219
_cell_formula_units_Z   1
loop_
 _symmetry_equiv_pos_site_id
 _symmetry_equiv_pos_as_xyz
  1  'x, y, z'
loop_
 _atom_site_type_symbol
 _atom_site_label
 _atom_site_symmetry_multiplicity
 _atom_site_fract_x
 _atom_site_fract_y
 _atom_site_fract_z
 _atom_site_occupancy
  Y  Y0  1  0.98668225  0.99334162  0.51189045  1
  Y  Y1  1  0.98668225  0.99334162  0.98810955  1
  Y  Y2  1  0.21098003  0.79146977  0.43900946  1
  Y  Y3  1  0.21098003  0.41951026  0.43900946  1
  Y  Y4  1  0.57822031  0.78911165  0.43771861  1
  Y  Y5  1  0.79097720  0.21220102  0.56186202  1
  Y  Y6  1  0.79097720  0.57877517  0.56186202  1
  Y  Y7  1  0.41841991  0.20920896  0.56297806  1
  Y  Y8  1  0.79097720  0.21220102  0.93813798  1
  Y  Y9  1  0.79097720  0.57877517  0.93813798  1
  Y  Y10  1  0.41841991  0.20920896  0.93702194  1
  Y  Y11  1  0.21098003  0.79146977  0.06099054  1
  Y  Y12  1  0.21098003  0.41951026  0.06099054  1
  Y  Y13  1  0.57822031  0.78911165  0.06228139  1
  Y  Y14  1  0.54148981  0.45865266  0.25000000  1
  Y  Y15  1  0.54148981  0.08283814  0.25000000  1
  Y  Y16  1  0.92295587  0.46147793  0.25000000  1
  Y  Y17  1  0.47022961  0.54971835  0.75000000  1
  Y  Y18  1  0.47022961  0.92051026  0.75000000  1
  Y  Y19  1  0.08591433  0.54295717  0.75000000  1
  Zn  Zn0  1  0.75820737  0.87910318  0.75000000  1
  In  In0  1  0.88621964  0.11805152  0.25000000  1
  In  In1  1  0.88621964  0.76816712  0.25000000  1
  In  In2  1  0.22601457  0.11300779  0.25000000  1
  In  In3  1  0.12066423  0.88107229  0.75000000  1
  In  In4  1  0.12066423  0.23959094  0.75000000  1
  Ru  Ru0  1  0.32857657  0.66428829  0.25000000  1
  Ru  Ru1  1  0.66665483  0.33332741  0.75000000  1
loop_
_geom_bond_atom_site_label_1
_geom_bond_atom_site_label_2
_geom_bond_distance
_geom_bond_site_symmetry_2
Y0 Zn0 2.998936 1_555
Y0 Y4 3.515928 1_555
Y0 Y5 3.553178 1_565
Y0 Y6 3.553195 1_555
Y0 Y7 3.671647 1_665
Y0 Y3 3.684646 1_665
Y0 Y2 3.684655 1_655
Y1 Zn0 2.998936 1_555
Y1 Y13 3.515928 1_556
Y1 Y8 3.553178 1_565
Y1 Y9 3.553195 1_555
Y1 Y10 3.671647 1_665
Y1 Y12 3.684646 1_666
Y1 Y11 3.684655 1_656
Y4 Zn0 3.375425 1_555
Y5 Zn0 3.612322 1_545
Y6 Zn0 3.612322 1_555
Y8 Zn0 3.612322 1_545
Y9 Zn0 3.612322 1_555
Y10 Y18 3.604967 1_545
Y10 Y17 3.604975 1_555
Y10 Y15 3.689686 1_556
Y10 Y14 3.689701 1_556
Y11 Y16 3.543695 1_455
Y11 Y15 3.552806 1_565
Y11 Y19 3.669316 1_554
Y11 Y18 3.713625 1_554
Y12 Y16 3.543695 1_455
Y12 Y14 3.552803 1_555
Y12 Y19 3.669316 1_554
Y12 Y17 3.713625 1_554
Y13 Zn0 3.375425 1_554
Y13 Y15 3.574007 1_565
Y13 Y14 3.574023 1_555
Y13 Y18 3.638036 1_554
Y13 Y17 3.638056 1_554
Y14 Y3 3.552803 1_555
Y14 Y4 3.574023 1_555
Y14 Y9 3.673002 1_554
Y14 Y6 3.673002 1_555
Y14 Y7 3.689701 1_555
Y14 Y15 3.690385 1_555
Y14 Y16 3.706628 1_555
Y15 Y2 3.552806 1_545
Y15 Y4 3.574007 1_545
Y15 Y8 3.673002 1_554
Y15 Y5 3.673002 1_555
Y15 Y7 3.689686 1_555
Y15 Y16 3.706622 1_555
Y16 Y2 3.543695 1_655
Y16 Y3 3.543695 1_655
Y16 Y9 3.680325 1_554
Y16 Y6 3.680325 1_555
Y16 Y8 3.680330 1_554
Y16 Y5 3.680330 1_555
Y17 Zn0 3.033805 1_555
Y17 Y6 3.502776 1_555
Y17 Y9 3.502776 1_555
Y17 Y7 3.604975 1_555
Y17 Y4 3.638056 1_555
Y17 Y18 3.641065 1_555
Y17 Y3 3.713625 1_555
Y17 Y19 3.715326 1_555
Y18 Zn0 3.033806 1_555
Y18 Y5 3.502776 1_565
Y18 Y8 3.502776 1_565
Y18 Y7 3.604967 1_565
Y18 Y4 3.638036 1_555
Y18 Y2 3.713625 1_555
Y18 Y19 3.715320 1_555
Y19 Y6 3.566151 1_455
Y19 Y9 3.566151 1_455
Y19 Y5 3.566156 1_455
Y19 Y8 3.566156 1_455
Y19 Y2 3.669316 1_555
Y19 Y3 3.669316 1_555
In0 Y0 3.172212 1_545
In0 Y1 3.172212 1_544
In0 Y15 3.202118 1_555
In0 Y16 3.206952 1_555
In0 In2 3.339296 1_655
In0 Y8 3.413313 1_554
In0 Y5 3.413313 1_555
In0 In1 3.435759 1_545
In0 Y3 3.561799 1_655
In0 Y12 3.561799 1_655
In0 Y4 3.601909 1_545
In0 Y13 3.601909 1_545
In1 Y0 3.172222 1_555
In1 Y1 3.172222 1_554
In1 Y14 3.202110 1_555
In1 Y16 3.206943 1_555
In1 In2 3.339306 1_665
In1 Y9 3.413313 1_554
In1 Y6 3.413313 1_555
In1 Y2 3.561796 1_655
In1 Y11 3.561796 1_655
In1 Y4 3.601928 1_555
In1 Y13 3.601928 1_555
In2 Y0 3.234658 1_445
In2 Y1 3.234658 1_444
In2 Y14 3.236172 1_555
In2 Y15 3.236173 1_555
In2 Y7 3.429654 1_555
In2 Y10 3.429654 1_554
In2 Y3 3.585458 1_555
In2 Y12 3.585458 1_555
In2 Y2 3.585466 1_545
In2 Y11 3.585466 1_545
In3 Y1 3.108032 1_455
In3 Y0 3.108032 1_455
In3 Y19 3.163157 1_555
In3 Y18 3.231798 1_555
In3 Y11 3.368715 1_556
In3 Y2 3.368715 1_555
In3 In4 3.520545 1_565
In3 Y10 3.557559 1_565
In3 Y7 3.557559 1_565
In3 Y6 3.583492 1_455
In3 Y9 3.583492 1_455
In4 Y1 3.108020 1_445
In4 Y0 3.108020 1_445
In4 Y19 3.163167 1_555
In4 Y17 3.231797 1_555
In4 Y12 3.368719 1_556
In4 Y3 3.368719 1_555
In4 Y10 3.557564 1_555
In4 Y7 3.557564 1_555
In4 Y5 3.583493 1_455
In4 Y8 3.583493 1_455
Ru0 Y3 2.765564 1_555
Ru0 Y12 2.765564 1_555
Ru0 Y2 2.765565 1_555
Ru0 Y11 2.765565 1_555
Ru0 Y4 2.776987 1_555
Ru0 Y13 2.776987 1_555
Ru0 Y16 3.418263 1_455
Ru0 Y14 3.551267 1_555
Ru0 Y15 3.551275 1_565
Ru1 Y6 2.763577 1_555
Ru1 Y9 2.763577 1_555
Ru1 Y5 2.763584 1_555
Ru1 Y8 2.763584 1_555
Ru1 Y10 2.763603 1_555
Ru1 Y7 2.763603 1_555
Ru1 Y17 3.504845 1_555
Ru1 Y18 3.504854 1_545
Ru1 Y19 3.533200 1_655
