# generated using pymatgen
data_Rb2TiZn3As4
_symmetry_space_group_name_H-M   'P 1'
_cell_length_a   7.86316649
_cell_length_b   7.86316654
_cell_length_c   5.85552828
_cell_angle_alpha   90.00000000
_cell_angle_beta   90.00000000
_cell_angle_gamma   136.27128421
_symmetry_Int_Tables_number   1
_chemical_formula_structural   Rb2TiZn3As4
_chemical_formula_sum   'Rb2 Ti1 Zn3 As4'
_cell_volume   250.26079515
_cell_formula_units_Z   1
loop_
 _symmetry_equiv_pos_site_id
 _symmetry_equiv_pos_as_xyz
  1  'x, y, z'
loop_
 _atom_site_type_symbol
 _atom_site_label
 _atom_site_symmetry_multiplicity
 _atom_site_fract_x
 _atom_site_fract_y
 _atom_site_fract_z
 _atom_site_occupancy
  Rb  Rb0  1  0.50000000  0.00000000  0.25628479  1
  Rb  Rb1  1  0.00000000  0.50000000  0.74371521  1
  Ti  Ti0  1  0.00000000  0.00000000  0.00000000  1
  Zn  Zn0  1  0.50000000  0.50000000  0.50000000  1
  Zn  Zn1  1  0.50000000  0.50000000  0.00000000  1
  Zn  Zn2  1  0.00000000  0.00000000  0.50000000  1
  As  As0  1  0.65703963  0.85691079  0.75767275  1
  As  As1  1  0.14308921  0.34296037  0.24232725  1
  As  As2  1  0.85691079  0.65703963  0.24232725  1
  As  As3  1  0.34296037  0.14308921  0.75767275  1
loop_
_geom_bond_atom_site_label_1
_geom_bond_atom_site_label_2
_geom_bond_distance
_geom_bond_site_symmetry_2
As0 Ti0 2.483279 1_666
As0 Zn1 2.530993 1_556
As0 Zn2 2.535696 1_665
As0 Zn0 2.582442 1_555
As0 Rb1 3.625078 1_665
As0 Rb0 3.650062 1_566
As0 Rb0 3.663077 1_565
As0 Rb1 3.690487 1_555
As1 Ti0 2.483279 1_555
As1 Zn1 2.530993 1_555
As1 Zn2 2.535696 1_555
As1 Zn0 2.582442 1_555
As1 Rb0 3.625078 1_455
As1 Rb1 3.650062 1_554
As1 Rb1 3.663077 1_555
As1 Rb0 3.690488 1_565
As2 Ti0 2.483279 1_665
As2 Zn1 2.530993 1_555
As2 Zn2 2.535696 1_665
As2 Zn0 2.582442 1_555
As2 Rb0 3.625078 1_665
As2 Rb1 3.650062 1_654
As2 Rb1 3.663077 1_655
As2 Rb0 3.690488 1_555
As3 Ti0 2.483279 1_556
As3 Zn1 2.530993 1_556
As3 Zn2 2.535696 1_555
As3 Zn0 2.582442 1_555
As3 Rb1 3.625078 1_545
As3 Rb0 3.650062 1_556
As3 Rb0 3.663077 1_555
As3 Rb1 3.690487 1_655
