# generated using pymatgen
data_ScIn(BO3)2
_symmetry_space_group_name_H-M   'P 1'
_cell_length_a   5.83558000
_cell_length_b   5.83558013
_cell_length_c   5.83558094
_cell_angle_alpha   48.68543178
_cell_angle_beta   48.68543006
_cell_angle_gamma   48.68543101
_symmetry_Int_Tables_number   1
_chemical_formula_structural   ScIn(BO3)2
_chemical_formula_sum   'Sc1 In1 B2 O6'
_cell_volume   102.86436595
_cell_formula_units_Z   1
loop_
 _symmetry_equiv_pos_site_id
 _symmetry_equiv_pos_as_xyz
  1  'x, y, z'
loop_
 _atom_site_type_symbol
 _atom_site_label
 _atom_site_symmetry_multiplicity
 _atom_site_fract_x
 _atom_site_fract_y
 _atom_site_fract_z
 _atom_site_occupancy
  Sc  Sc0  1  0.00000000  0.00000000  0.00000000  1
  In  In0  1  0.50000000  0.50000000  0.50000000  1
  B  B0  1  0.74973599  0.74973599  0.74973599  1
  B  B1  1  0.25026401  0.25026401  0.25026401  1
  O  O0  1  0.03188700  0.45890526  0.75728709  1
  O  O1  1  0.45890526  0.75728709  0.03188700  1
  O  O2  1  0.75728709  0.03188700  0.45890526  1
  O  O3  1  0.54109474  0.24271291  0.96811300  1
  O  O4  1  0.24271291  0.96811300  0.54109474  1
  O  O5  1  0.96811300  0.54109474  0.24271291  1
loop_
_geom_bond_atom_site_label_1
_geom_bond_atom_site_label_2
_geom_bond_distance
_geom_bond_site_symmetry_2
In0 O5 2.179012 1_555
In0 O0 2.179012 1_555
In0 O4 2.179012 1_555
In0 O2 2.179012 1_555
In0 O3 2.179012 1_555
In0 O1 2.179012 1_555
B0 O0 1.378652 1_655
B0 O1 1.378652 1_556
B0 O2 1.378652 1_565
B1 O5 1.378652 1_455
B1 O3 1.378652 1_554
B1 O4 1.378652 1_545
O0 Sc0 2.124626 1_556
O1 Sc0 2.124626 1_565
O2 Sc0 2.124627 1_655
O3 Sc0 2.124626 1_656
O4 Sc0 2.124627 1_566
O5 Sc0 2.124626 1_665
