# generated using pymatgen
data_Dy2Pd2Pb
_symmetry_space_group_name_H-M   'P 1'
_cell_length_a   7.82057613
_cell_length_b   7.82057613
_cell_length_c   3.63843675
_cell_angle_alpha   90.00000000
_cell_angle_beta   90.00000000
_cell_angle_gamma   89.99997055
_symmetry_Int_Tables_number   1
_chemical_formula_structural   Dy2Pd2Pb
_chemical_formula_sum   'Dy4 Pd4 Pb2'
_cell_volume   222.53192548
_cell_formula_units_Z   2
loop_
 _symmetry_equiv_pos_site_id
 _symmetry_equiv_pos_as_xyz
  1  'x, y, z'
loop_
 _atom_site_type_symbol
 _atom_site_label
 _atom_site_symmetry_multiplicity
 _atom_site_fract_x
 _atom_site_fract_y
 _atom_site_fract_z
 _atom_site_occupancy
  Dy  Dy0  1  0.67193377  0.17193377  0.50000000  1
  Dy  Dy1  1  0.17190366  0.32809634  0.50000000  1
  Dy  Dy2  1  0.82809634  0.67190366  0.50000000  1
  Dy  Dy3  1  0.32806623  0.82806623  0.50000000  1
  Pd  Pd0  1  0.37514575  0.12485425  0.00000000  1
  Pd  Pd1  1  0.12483280  0.62483280  -0.00000000  1
  Pd  Pd2  1  0.62485425  0.87514575  0.00000000  1
  Pd  Pd3  1  0.87516720  0.37516720  -0.00000000  1
  Pb  Pb0  1  0.00000000  -0.00000000  0.00000000  1
  Pb  Pb1  1  0.50000000  0.50000000  0.00000000  1
loop_
_geom_bond_atom_site_label_1
_geom_bond_atom_site_label_2
_geom_bond_distance
_geom_bond_site_symmetry_2
Dy0 Pd3 2.891705 1_555
Dy0 Pd3 2.891705 1_556
Dy0 Pd0 2.971937 1_555
Dy0 Pd0 2.971937 1_556
Dy0 Pd2 2.971937 1_545
Dy0 Pd2 2.971937 1_546
Dy0 Pb0 3.420556 1_656
Dy0 Pb1 3.420556 1_556
Dy0 Pb1 3.420556 1_555
Dy0 Pb0 3.420556 1_655
Dy1 Pd0 2.891779 1_556
Dy1 Pd0 2.891779 1_555
Dy1 Pd3 2.971613 1_456
Dy1 Pd3 2.971613 1_455
Dy1 Pd1 2.971613 1_555
Dy1 Pd1 2.971613 1_556
Dy1 Pb0 3.420641 1_555
Dy1 Pb1 3.420641 1_556
Dy1 Pb1 3.420641 1_555
Dy1 Pb0 3.420641 1_556
Dy2 Pd2 2.891779 1_555
Dy2 Pd2 2.891779 1_556
Dy2 Pd3 2.971613 1_555
Dy2 Pd3 2.971613 1_556
Dy2 Pd1 2.971613 1_655
Dy2 Pd1 2.971613 1_656
Dy2 Pb1 3.420641 1_556
Dy2 Pb1 3.420641 1_555
Dy2 Pb0 3.420641 1_665
Dy2 Pb0 3.420641 1_666
Dy3 Pd1 2.891705 1_556
Dy3 Pd1 2.891705 1_555
Dy3 Pd2 2.971937 1_555
Dy3 Pd2 2.971937 1_556
Dy3 Pd0 2.971937 1_565
Dy3 Pd0 2.971937 1_566
Dy3 Pb0 3.420556 1_565
Dy3 Pb1 3.420556 1_556
Dy3 Pb0 3.420556 1_566
Dy3 Pb1 3.420556 1_555
Pd0 Pd2 2.761767 1_545
Pd1 Pd3 2.761293 1_455
Pb0 Pd2 3.092076 1_445
Pb0 Pd0 3.092076 1_555
Pb0 Pd3 3.092181 1_455
Pb0 Pd1 3.092181 1_545
Pb1 Pd2 3.092076 1_555
Pb1 Pd0 3.092076 1_555
Pb1 Pd1 3.092181 1_555
Pb1 Pd3 3.092181 1_555
