# generated using pymatgen
data_NaAs2Pd3
_symmetry_space_group_name_H-M   'P 1'
_cell_length_a   3.97802011
_cell_length_b   8.64912276
_cell_length_c   9.89778345
_cell_angle_alpha   106.73706704
_cell_angle_beta   90.00000003
_cell_angle_gamma   103.29510348
_symmetry_Int_Tables_number   1
_chemical_formula_structural   NaAs2Pd3
_chemical_formula_sum   'Na3 As6 Pd9'
_cell_volume   316.57732112
_cell_formula_units_Z   3
loop_
 _symmetry_equiv_pos_site_id
 _symmetry_equiv_pos_as_xyz
  1  'x, y, z'
loop_
 _atom_site_type_symbol
 _atom_site_label
 _atom_site_symmetry_multiplicity
 _atom_site_fract_x
 _atom_site_fract_y
 _atom_site_fract_z
 _atom_site_occupancy
  Na  Na0  1  0.00000000  0.00000000  0.00000000  1
  Na  Na1  1  0.84303913  0.68607526  0.29822237  1
  Na  Na2  1  0.15696187  0.31392474  0.70177863  1
  As  As0  1  0.19630718  0.39261536  0.13169287  1
  As  As1  1  0.45648047  0.91296094  0.22032234  1
  As  As2  1  0.63664858  0.27329416  0.45767861  1
  As  As3  1  0.36335342  0.72670584  0.54232139  1
  As  As4  1  0.54351953  0.08703906  0.77967866  1
  As  As5  1  0.80369382  0.60738564  0.86830813  1
  Pd  Pd0  1  0.31773950  0.63548000  0.03930113  1
  Pd  Pd1  1  0.62251617  0.24503035  0.20010660  1
  Pd  Pd2  1  0.04090309  0.08180718  0.32052383  1
  Pd  Pd3  1  0.21915873  0.43831646  0.39438872  1
  Pd  Pd4  1  0.49999900  0.99999900  0.50000100  1
  Pd  Pd5  1  0.78084327  0.56168354  0.60561228  1
  Pd  Pd6  1  0.95909891  0.91819382  0.67947717  1
  Pd  Pd7  1  0.37748483  0.75496965  0.79989340  1
  Pd  Pd8  1  0.68226050  0.36452100  0.96069887  1
loop_
_geom_bond_atom_site_label_1
_geom_bond_atom_site_label_2
_geom_bond_distance
_geom_bond_site_symmetry_2
Na0 Pd6 3.040698 1_444
Na0 Pd2 3.040707 1_555
Na0 Pd1 3.116932 1_455
Na0 Pd7 3.116935 1_544
Na0 Pd7 3.116935 1_444
Na0 Pd1 3.116937 1_555
Na1 Pd0 3.171632 1_655
Na1 Pd0 3.171642 1_555
Na1 Pd3 3.222742 1_655
Na1 Pd3 3.222747 1_555
Na1 Pd2 3.272481 1_665
Na1 Pd4 3.435668 1_655
Na1 Pd4 3.435677 1_555
Na1 Pd5 3.498327 1_555
Na1 Pd1 3.548443 1_555
Na2 Pd8 3.171627 1_455
Na2 Pd8 3.171629 1_555
Na2 Pd5 3.222739 1_455
Na2 Pd5 3.222749 1_555
Na2 Pd6 3.272473 1_445
Na2 Pd4 3.435679 1_545
Na2 Pd4 3.435680 1_445
Na2 Pd3 3.498327 1_555
Na2 Pd7 3.548444 1_555
As0 Pd0 2.474199 1_555
As0 Pd3 2.513282 1_555
As0 Pd1 2.540813 1_455
As0 Pd1 2.540823 1_555
As0 Pd8 2.576749 1_454
As0 Pd8 2.576752 1_554
As0 Na0 3.173507 1_555
As0 Na1 3.219465 1_455
As0 Na1 3.219476 1_555
As1 Pd2 2.474969 1_665
As1 Pd2 2.474972 1_565
As1 Pd0 2.487730 1_555
As1 Pd4 2.645641 1_555
As1 Pd1 2.860733 1_565
As1 Na1 3.011530 1_455
As1 Na1 3.011537 1_555
As1 Na0 3.192790 1_565
As1 Na0 3.192790 1_665
As2 Pd5 2.435770 1_555
As2 Pd4 2.457167 1_545
As2 Pd1 2.489388 1_555
As2 Pd3 2.606333 1_655
As2 Pd3 2.606339 1_555
As2 Pd2 2.664954 1_655
As2 Pd2 2.664966 1_555
As2 Na2 3.069425 1_655
As2 Na2 3.069435 1_555
As3 Pd3 2.435767 1_555
As3 Pd4 2.457141 1_555
As3 Pd7 2.489388 1_555
As3 Pd5 2.606337 1_455
As3 Pd5 2.606343 1_555
As3 Pd6 2.664963 1_455
As3 Pd6 2.664972 1_555
As3 Na1 3.069420 1_455
As3 Na1 3.069425 1_555
As4 Pd6 2.474960 1_445
As4 Pd6 2.474973 1_545
As4 Pd8 2.487732 1_555
As4 Pd4 2.645631 1_545
As4 Pd7 2.860730 1_545
As4 Na2 3.011532 1_655
As4 Na2 3.011535 1_555
As4 Na0 3.192783 1_656
As4 Na0 3.192783 1_556
As5 Pd8 2.474193 1_555
As5 Pd5 2.513281 1_555
As5 Pd7 2.540814 1_655
As5 Pd7 2.540820 1_555
As5 Pd0 2.576740 1_656
As5 Pd0 2.576749 1_556
As5 Na0 3.173498 1_666
As5 Na2 3.219472 1_655
As5 Na2 3.219479 1_555
Pd0 Pd7 2.834982 1_554
Pd1 Pd8 2.834987 1_554
Pd1 Pd2 2.869388 1_655
Pd1 Pd2 2.869397 1_555
Pd1 Pd3 2.906777 1_655
Pd1 Pd3 2.906779 1_555
Pd2 Pd3 2.870749 1_555
Pd2 Pd4 2.882703 1_545
Pd2 Pd4 2.882703 1_445
Pd3 Pd5 2.849637 1_455
Pd3 Pd5 2.849643 1_555
Pd4 Pd6 2.882679 1_455
Pd4 Pd6 2.882693 1_555
Pd5 Pd6 2.870757 1_555
Pd5 Pd7 2.906769 1_655
Pd5 Pd7 2.906777 1_555
Pd6 Pd7 2.869386 1_655
Pd6 Pd7 2.869398 1_555
