# generated using pymatgen
data_Mg29Ir4
_symmetry_space_group_name_H-M   'P 1'
_cell_length_a   14.06002715
_cell_length_b   14.06002699
_cell_length_c   14.06002771
_cell_angle_alpha   59.99999828
_cell_angle_beta   59.99999865
_cell_angle_gamma   60.00000009
_symmetry_Int_Tables_number   1
_chemical_formula_structural   Mg29Ir4
_chemical_formula_sum   'Mg87 Ir12'
_cell_volume   1965.36619799
_cell_formula_units_Z   3
loop_
 _symmetry_equiv_pos_site_id
 _symmetry_equiv_pos_as_xyz
  1  'x, y, z'
loop_
 _atom_site_type_symbol
 _atom_site_label
 _atom_site_symmetry_multiplicity
 _atom_site_fract_x
 _atom_site_fract_y
 _atom_site_fract_z
 _atom_site_occupancy
  Mg  Mg0  1  0.15965856  0.15965856  0.94379577  1
  Mg  Mg1  1  0.15965856  0.94379577  0.73688810  1
  Mg  Mg2  1  0.73688810  0.15965856  0.15965856  1
  Mg  Mg3  1  0.15965856  0.73688810  0.15965856  1
  Mg  Mg4  1  0.94379577  0.15965856  0.73688810  1
  Mg  Mg5  1  0.94379577  0.73688810  0.15965856  1
  Mg  Mg6  1  0.73688810  0.94379577  0.15965856  1
  Mg  Mg7  1  0.94379577  0.15965856  0.15965856  1
  Mg  Mg8  1  0.15965856  0.94379577  0.15965856  1
  Mg  Mg9  1  0.73688810  0.15965856  0.94379577  1
  Mg  Mg10  1  0.15965856  0.73688810  0.94379577  1
  Mg  Mg11  1  0.15965856  0.15965856  0.73688810  1
  Mg  Mg12  1  0.76878341  0.76878341  0.43204889  1
  Mg  Mg13  1  0.76878341  0.43204889  0.03038429  1
  Mg  Mg14  1  0.03038429  0.76878341  0.76878341  1
  Mg  Mg15  1  0.76878341  0.03038429  0.76878341  1
  Mg  Mg16  1  0.43204889  0.76878341  0.03038429  1
  Mg  Mg17  1  0.43204889  0.03038429  0.76878341  1
  Mg  Mg18  1  0.03038429  0.43204889  0.76878341  1
  Mg  Mg19  1  0.43204889  0.76878341  0.76878341  1
  Mg  Mg20  1  0.76878341  0.43204889  0.76878341  1
  Mg  Mg21  1  0.03038429  0.76878341  0.43204889  1
  Mg  Mg22  1  0.76878341  0.03038429  0.43204889  1
  Mg  Mg23  1  0.76878341  0.76878341  0.03038429  1
  Mg  Mg24  1  0.28409249  0.28409249  0.93073141  1
  Mg  Mg25  1  0.28409249  0.93073141  0.50108360  1
  Mg  Mg26  1  0.50108360  0.28409249  0.28409249  1
  Mg  Mg27  1  0.28409249  0.50108360  0.28409249  1
  Mg  Mg28  1  0.93073141  0.28409249  0.50108360  1
  Mg  Mg29  1  0.93073141  0.50108360  0.28409249  1
  Mg  Mg30  1  0.50108360  0.93073141  0.28409249  1
  Mg  Mg31  1  0.93073141  0.28409249  0.28409249  1
  Mg  Mg32  1  0.28409249  0.93073141  0.28409249  1
  Mg  Mg33  1  0.50108360  0.28409249  0.93073141  1
  Mg  Mg34  1  0.28409249  0.50108360  0.93073141  1
  Mg  Mg35  1  0.28409249  0.28409249  0.50108360  1
  Mg  Mg36  1  0.52148220  0.52148220  0.78425424  1
  Mg  Mg37  1  0.52148220  0.78425424  0.17278136  1
  Mg  Mg38  1  0.17278136  0.52148220  0.52148220  1
  Mg  Mg39  1  0.52148220  0.17278136  0.52148220  1
  Mg  Mg40  1  0.78425424  0.52148220  0.17278136  1
  Mg  Mg41  1  0.78425424  0.17278136  0.52148220  1
  Mg  Mg42  1  0.17278136  0.78425424  0.52148220  1
  Mg  Mg43  1  0.78425424  0.52148220  0.52148220  1
  Mg  Mg44  1  0.52148220  0.78425424  0.52148220  1
  Mg  Mg45  1  0.17278136  0.52148220  0.78425424  1
  Mg  Mg46  1  0.52148220  0.17278136  0.78425424  1
  Mg  Mg47  1  0.52148220  0.52148220  0.17278136  1
  Mg  Mg48  1  0.01976682  0.01976682  0.36684954  1
  Mg  Mg49  1  0.01976682  0.36684954  0.59361682  1
  Mg  Mg50  1  0.59361682  0.01976682  0.01976682  1
  Mg  Mg51  1  0.01976682  0.59361682  0.01976682  1
  Mg  Mg52  1  0.36684954  0.01976682  0.59361682  1
  Mg  Mg53  1  0.36684954  0.59361682  0.01976682  1
  Mg  Mg54  1  0.59361682  0.36684954  0.01976682  1
  Mg  Mg55  1  0.36684954  0.01976682  0.01976682  1
  Mg  Mg56  1  0.01976682  0.36684954  0.01976682  1
  Mg  Mg57  1  0.59361682  0.01976682  0.36684954  1
  Mg  Mg58  1  0.01976682  0.59361682  0.36684954  1
  Mg  Mg59  1  0.01976682  0.01976682  0.59361682  1
  Mg  Mg60  1  0.35650628  0.14349372  0.14349372  1
  Mg  Mg61  1  0.14349372  0.14349372  0.35650628  1
  Mg  Mg62  1  0.35650628  0.35650628  0.14349372  1
  Mg  Mg63  1  0.14349372  0.35650628  0.35650628  1
  Mg  Mg64  1  0.14349372  0.35650628  0.14349372  1
  Mg  Mg65  1  0.35650628  0.14349372  0.35650628  1
  Mg  Mg66  1  0.86629461  0.63370539  0.63370539  1
  Mg  Mg67  1  0.63370539  0.63370539  0.86629461  1
  Mg  Mg68  1  0.86629461  0.86629461  0.63370539  1
  Mg  Mg69  1  0.63370539  0.86629461  0.86629461  1
  Mg  Mg70  1  0.63370539  0.86629461  0.63370539  1
  Mg  Mg71  1  0.86629461  0.63370539  0.86629461  1
  Mg  Mg72  1  0.67943450  0.32056550  0.32056550  1
  Mg  Mg73  1  0.32056550  0.32056550  0.67943450  1
  Mg  Mg74  1  0.67943450  0.67943450  0.32056550  1
  Mg  Mg75  1  0.32056550  0.67943450  0.67943450  1
  Mg  Mg76  1  0.32056550  0.67943450  0.32056550  1
  Mg  Mg77  1  0.67943450  0.32056550  0.67943450  1
  Mg  Mg78  1  0.55118968  0.55118968  0.55118968  1
  Mg  Mg79  1  0.55118968  0.55118968  0.34642896  1
  Mg  Mg80  1  0.34642896  0.55118968  0.55118968  1
  Mg  Mg81  1  0.55118968  0.34642896  0.55118968  1
  Mg  Mg82  1  0.91491523  0.91491523  0.91491523  1
  Mg  Mg83  1  0.91491523  0.91491523  0.25525231  1
  Mg  Mg84  1  0.25525231  0.91491523  0.91491523  1
  Mg  Mg85  1  0.91491523  0.25525231  0.91491523  1
  Mg  Mg86  1  0.00000000  -0.00000000  -0.00000000  1
  Ir  Ir0  1  0.15072122  0.15072122  0.15072122  1
  Ir  Ir1  1  0.15072122  0.15072122  0.54783534  1
  Ir  Ir2  1  0.54783534  0.15072122  0.15072122  1
  Ir  Ir3  1  0.15072122  0.54783534  0.15072122  1
  Ir  Ir4  1  0.41756169  0.41756169  0.41756169  1
  Ir  Ir5  1  0.41756169  0.41756169  0.74731293  1
  Ir  Ir6  1  0.74731293  0.41756169  0.41756169  1
  Ir  Ir7  1  0.41756169  0.74731293  0.41756169  1
  Ir  Ir8  1  0.65483630  0.65483630  0.65483630  1
  Ir  Ir9  1  0.65483630  0.65483630  0.03549009  1
  Ir  Ir10  1  0.03549009  0.65483630  0.65483630  1
  Ir  Ir11  1  0.65483630  0.03549009  0.65483630  1
loop_
_geom_bond_atom_site_label_1
_geom_bond_atom_site_label_2
_geom_bond_distance
_geom_bond_site_symmetry_2
Mg0 Mg84 3.168443 1_545
Mg0 Mg85 3.168443 1_455
Mg1 Mg84 3.168404 1_555
Mg1 Mg82 3.168435 1_455
Mg2 Mg85 3.168424 1_554
Mg2 Mg83 3.168424 1_545
Mg3 Mg84 3.168424 1_554
Mg3 Mg83 3.168424 1_455
Mg4 Mg85 3.168404 1_555
Mg4 Mg82 3.168435 1_545
Mg5 Mg83 3.168404 1_555
Mg5 Mg82 3.168435 1_554
Mg6 Mg83 3.168404 1_555
Mg6 Mg82 3.168436 1_554
Mg7 Mg83 3.168443 1_545
Mg7 Mg85 3.168443 1_554
Mg8 Mg83 3.168443 1_455
Mg8 Mg84 3.168443 1_554
Mg10 Mg84 3.168404 1_555
Mg10 Mg82 3.168435 1_455
Mg11 Mg84 3.168424 1_545
Mg11 Mg85 3.168424 1_455
Mg12 Mg83 2.937481 1_555
Mg13 Mg85 2.937498 1_554
Mg14 Mg82 2.937477 1_455
Mg15 Mg82 2.937477 1_545
Mg16 Mg84 2.937498 1_554
Mg17 Mg84 2.937498 1_545
Mg18 Mg85 2.937498 1_455
Mg19 Mg84 2.937481 1_555
Mg20 Mg85 2.937481 1_555
Mg21 Mg83 2.937498 1_455
Mg22 Mg83 2.937498 1_545
Mg23 Mg82 2.937477 1_554
Mg82 Mg86 2.930310 1_666
Mg82 Mg9 3.168435 1_565
Mg83 Mg86 2.930287 1_665
Mg84 Mg86 2.930287 1_566
Mg85 Mg86 2.930287 1_656
Mg85 Mg9 3.168404 1_555
Ir0 Mg8 2.789385 1_545
Ir0 Mg7 2.789385 1_455
Ir0 Mg0 2.789385 1_554
Ir0 Mg64 2.795421 1_555
Ir0 Mg60 2.795421 1_555
Ir0 Mg61 2.795421 1_555
Ir0 Mg48 2.866064 1_555
Ir0 Mg56 2.866064 1_555
Ir0 Mg55 2.866064 1_555
Ir0 Mg24 2.918211 1_554
Ir0 Mg32 2.918211 1_545
Ir0 Mg31 2.918211 1_455
Ir1 Mg1 2.789397 1_545
Ir1 Mg4 2.789397 1_455
Ir1 Mg11 2.789413 1_555
Ir1 Mg61 2.795407 1_555
Ir1 Mg63 2.795415 1_555
Ir1 Mg65 2.795415 1_555
Ir1 Mg59 2.866058 1_555
Ir1 Mg49 2.866070 1_555
Ir1 Mg52 2.866070 1_555
Ir1 Mg25 2.918205 1_545
Ir1 Mg28 2.918205 1_455
Ir1 Mg35 2.918217 1_555
Ir2 Mg6 2.789397 1_545
Ir2 Mg9 2.789397 1_554
Ir2 Mg2 2.789413 1_555
Ir2 Mg60 2.795407 1_555
Ir2 Mg62 2.795415 1_555
Ir2 Mg65 2.795415 1_555
Ir2 Mg50 2.866058 1_555
Ir2 Mg54 2.866070 1_555
Ir2 Mg57 2.866070 1_555
Ir2 Mg30 2.918205 1_545
Ir2 Mg33 2.918206 1_554
Ir2 Mg26 2.918217 1_555
Ir3 Mg10 2.789397 1_554
Ir3 Mg5 2.789397 1_455
Ir3 Mg3 2.789413 1_555
Ir3 Mg64 2.795407 1_555
Ir3 Mg63 2.795415 1_555
Ir3 Mg62 2.795415 1_555
Ir3 Mg51 2.866058 1_555
Ir3 Mg53 2.866070 1_555
Ir3 Mg58 2.866070 1_555
Ir3 Mg29 2.918205 1_455
Ir3 Mg34 2.918206 1_554
Ir3 Mg27 2.918217 1_555
Ir4 Mg35 2.745228 1_555
Ir4 Mg26 2.745228 1_555
Ir4 Mg27 2.745228 1_555
Ir4 Mg79 2.798565 1_555
Ir4 Mg80 2.798565 1_555
Ir4 Mg81 2.798565 1_555
Ir4 Mg39 2.862189 1_555
Ir4 Mg38 2.862189 1_555
Ir4 Mg47 2.862189 1_555
Ir4 Mg76 3.015567 1_555
Ir4 Mg72 3.015567 1_555
Ir4 Mg73 3.015567 1_555
Ir5 Mg24 2.745235 1_555
Ir5 Mg33 2.745251 1_555
Ir5 Mg34 2.745251 1_555
Ir5 Mg78 2.798565 1_555
Ir5 Mg80 2.798565 1_555
Ir5 Mg81 2.798565 1_555
Ir5 Mg46 2.862184 1_555
Ir5 Mg45 2.862184 1_555
Ir5 Mg36 2.862208 1_555
Ir5 Mg73 3.015545 1_555
Ir5 Mg75 3.015569 1_555
Ir5 Mg77 3.015569 1_555
Ir6 Mg31 2.745236 1_555
Ir6 Mg29 2.745251 1_555
Ir6 Mg28 2.745251 1_555
Ir6 Mg81 2.798565 1_555
Ir6 Mg78 2.798565 1_555
Ir6 Mg79 2.798565 1_555
Ir6 Mg41 2.862184 1_555
Ir6 Mg40 2.862184 1_555
Ir6 Mg43 2.862208 1_555
Ir6 Mg72 3.015545 1_555
Ir6 Mg74 3.015569 1_555
Ir6 Mg77 3.015569 1_555
Ir7 Mg32 2.745236 1_555
Ir7 Mg30 2.745251 1_555
Ir7 Mg25 2.745251 1_555
Ir7 Mg80 2.798565 1_555
Ir7 Mg78 2.798565 1_555
Ir7 Mg79 2.798565 1_555
Ir7 Mg42 2.862184 1_555
Ir7 Mg37 2.862184 1_555
Ir7 Mg44 2.862209 1_555
Ir7 Mg76 3.015545 1_555
Ir7 Mg74 3.015569 1_555
Ir7 Mg75 3.015569 1_555
Ir8 Mg36 2.652174 1_555
Ir8 Mg43 2.652175 1_555
Ir8 Mg44 2.652175 1_555
Ir8 Mg70 2.708793 1_555
Ir8 Mg66 2.708793 1_555
Ir8 Mg67 2.708793 1_555
Ir8 Mg20 2.734091 1_555
Ir8 Mg12 2.734091 1_555
Ir8 Mg19 2.734091 1_555
Ir9 Mg47 2.652175 1_555
Ir9 Mg40 2.652185 1_555
Ir9 Mg37 2.652185 1_555
Ir9 Mg67 2.708779 1_554
Ir9 Mg69 2.708787 1_554
Ir9 Mg71 2.708787 1_554
Ir9 Mg13 2.734087 1_555
Ir9 Mg16 2.734087 1_555
Ir9 Mg23 2.734099 1_555
Ir10 Mg38 2.652175 1_555
Ir10 Mg42 2.652185 1_555
Ir10 Mg45 2.652185 1_555
Ir10 Mg66 2.708779 1_455
Ir10 Mg68 2.708787 1_455
Ir10 Mg71 2.708787 1_455
Ir10 Mg18 2.734087 1_555
Ir10 Mg21 2.734087 1_555
Ir10 Mg14 2.734099 1_555
Ir11 Mg39 2.652175 1_555
Ir11 Mg41 2.652185 1_555
Ir11 Mg46 2.652185 1_555
Ir11 Mg70 2.708779 1_545
Ir11 Mg69 2.708787 1_545
Ir11 Mg68 2.708787 1_545
Ir11 Mg17 2.734087 1_555
Ir11 Mg22 2.734087 1_555
Ir11 Mg15 2.734099 1_555
