# generated using pymatgen
data_Hf5NbAl16Co7
_symmetry_space_group_name_H-M   'P 1'
_cell_length_a   8.37100972
_cell_length_b   8.37100979
_cell_length_c   8.41780662
_cell_angle_alpha   59.81490379
_cell_angle_beta   59.81490350
_cell_angle_gamma   60.37019509
_symmetry_Int_Tables_number   1
_chemical_formula_structural   Hf5NbAl16Co7
_chemical_formula_sum   'Hf5 Nb1 Al16 Co7'
_cell_volume   417.07326597
_cell_formula_units_Z   1
loop_
 _symmetry_equiv_pos_site_id
 _symmetry_equiv_pos_as_xyz
  1  'x, y, z'
loop_
 _atom_site_type_symbol
 _atom_site_label
 _atom_site_symmetry_multiplicity
 _atom_site_fract_x
 _atom_site_fract_y
 _atom_site_fract_z
 _atom_site_occupancy
  Hf  Hf0  1  0.30513768  0.69632288  0.30367712  1
  Hf  Hf1  1  0.69632288  0.30513768  0.30367712  1
  Hf  Hf2  1  0.31761739  0.31761739  0.68238261  1
  Hf  Hf3  1  0.69632288  0.30513768  0.69486232  1
  Hf  Hf4  1  0.30513768  0.69632288  0.69486232  1
  Nb  Nb0  1  0.67406197  0.67406197  0.32593803  1
  Al  Al0  1  0.87955498  0.87955498  0.35461348  1
  Al  Al1  1  0.88226301  0.35665360  0.88054120  1
  Al  Al2  1  0.35665360  0.88226301  0.88054120  1
  Al  Al3  1  0.87955498  0.87955498  0.88627455  1
  Al  Al4  1  0.11945880  0.11945880  0.64334640  1
  Al  Al5  1  0.11372545  0.64538652  0.12044502  1
  Al  Al6  1  0.64538652  0.11372545  0.12044502  1
  Al  Al7  1  0.11945880  0.11945880  0.11773699  1
  Al  Al8  1  0.66537743  0.66537743  0.00562139  1
  Al  Al9  1  0.66784478  0.00484370  0.66365576  1
  Al  Al10  1  0.00484370  0.66784478  0.66365576  1
  Al  Al11  1  0.66537743  0.66537743  0.66362374  1
  Al  Al12  1  0.33634424  0.33634424  0.99515630  1
  Al  Al13  1  0.33637626  0.99437861  0.33462257  1
  Al  Al14  1  0.99437861  0.33637626  0.33462257  1
  Al  Al15  1  0.33634424  0.33634424  0.33215522  1
  Co  Co0  1  0.00060281  0.00060281  0.99939719  1
  Co  Co1  1  0.00168131  0.00168131  0.49831869  1
  Co  Co2  1  0.49957936  0.99966377  0.50042064  1
  Co  Co3  1  0.99966377  0.49957936  0.50042064  1
  Co  Co4  1  0.50168131  0.50168131  0.99831869  1
  Co  Co5  1  0.99966377  0.49957936  0.00033623  1
  Co  Co6  1  0.49957936  0.99966377  0.00033623  1
loop_
_geom_bond_atom_site_label_1
_geom_bond_atom_site_label_2
_geom_bond_distance
_geom_bond_site_symmetry_2
Hf0 Nb0 3.095970 1_555
Hf0 Hf2 3.173039 1_555
Hf0 Hf1 3.292921 1_555
Hf0 Hf4 3.292921 1_555
Hf1 Nb0 3.095971 1_555
Hf1 Hf2 3.173039 1_555
Hf1 Hf3 3.292921 1_555
Hf2 Hf3 3.173039 1_555
Hf2 Hf4 3.173039 1_555
Hf3 Nb0 3.095971 1_555
Hf3 Hf4 3.292921 1_555
Hf4 Nb0 3.095971 1_555
Al0 Co0 2.432297 1_664
Al0 Co2 2.605304 1_555
Al0 Co3 2.605304 1_555
Al0 Al11 2.644623 1_555
Al0 Co1 2.659742 1_665
Al0 Al9 2.697772 1_565
Al0 Al10 2.697772 1_655
Al0 Al5 2.787676 1_655
Al0 Al6 2.787676 1_565
Al0 Al7 2.824225 1_665
Al0 Hf0 2.991735 1_655
Al0 Hf1 2.991735 1_565
Al0 Nb0 3.120462 1_555
Al1 Co0 2.438090 1_655
Al1 Co3 2.605105 1_555
Al1 Co5 2.605112 1_556
Al1 Co4 2.610795 1_555
Al1 Al10 2.673714 1_655
Al1 Al11 2.694097 1_555
Al1 Al8 2.694102 1_556
Al1 Al4 2.823703 1_655
Al1 Al7 2.823715 1_656
Al1 Al6 2.824208 1_556
Al1 Hf3 2.973149 1_555
Al1 Hf1 2.973156 1_556
Al1 Hf2 3.070529 1_655
Al2 Co0 2.438090 1_565
Al2 Co2 2.605105 1_555
Al2 Co6 2.605112 1_556
Al2 Co4 2.610795 1_555
Al2 Al9 2.673714 1_565
Al2 Al8 2.694102 1_556
Al2 Al4 2.823703 1_565
Al2 Al7 2.823715 1_566
Al2 Al5 2.824208 1_556
Al2 Hf4 2.973149 1_555
Al2 Hf0 2.973156 1_556
Al2 Hf2 3.070529 1_565
Al3 Co0 2.432311 1_665
Al3 Co6 2.605303 1_556
Al3 Co5 2.605303 1_556
Al3 Al8 2.644618 1_556
Al3 Co1 2.659728 1_665
Al3 Al9 2.697758 1_565
Al3 Al5 2.787700 1_656
Al3 Al6 2.787700 1_566
Al3 Al4 2.824225 1_665
Al3 Hf4 2.991731 1_655
Al3 Hf3 2.991731 1_565
Al3 Nb0 3.120473 1_556
Al4 Co0 2.438090 1_555
Al4 Co2 2.605105 1_545
Al4 Co3 2.605105 1_455
Al4 Co1 2.610802 1_555
Al4 Hf3 2.973156 1_455
Al4 Hf4 2.973156 1_545
Al4 Hf2 3.070521 1_555
Al5 Co0 2.432297 1_564
Al5 Co3 2.605304 1_455
Al5 Co5 2.605317 1_455
Al5 Co4 2.659728 1_554
Al5 Hf0 2.991720 1_555
Al5 Hf4 2.991735 1_554
Al5 Nb0 3.120476 1_455
Al6 Co0 2.432297 1_654
Al6 Co2 2.605304 1_545
Al6 Co6 2.605317 1_545
Al6 Co4 2.659728 1_554
Al6 Hf1 2.991720 1_555
Al6 Hf3 2.991735 1_554
Al6 Nb0 3.120477 1_545
Al7 Co0 2.438097 1_554
Al7 Co6 2.605104 1_545
Al7 Co5 2.605104 1_455
Al7 Co1 2.610795 1_555
Al7 Hf1 2.973154 1_455
Al7 Hf0 2.973155 1_545
Al7 Hf2 3.070527 1_554
Al8 Co4 2.405270 1_554
Al8 Co5 2.419808 1_555
Al8 Co6 2.419808 1_555
Al8 Nb0 2.771355 1_555
Al8 Hf0 2.780036 1_555
Al8 Hf1 2.780036 1_555
Al8 Al9 2.852079 1_564
Al9 Co1 2.408322 1_655
Al9 Co2 2.437332 1_545
Al9 Co6 2.437332 1_546
Al9 Hf3 2.786466 1_555
Al9 Hf1 2.786466 1_555
Al9 Hf2 2.799201 1_555
Al10 Co1 2.408322 1_565
Al10 Co3 2.437332 1_455
Al10 Co5 2.437332 1_456
Al10 Al3 2.697758 1_455
Al10 Hf4 2.786466 1_555
Al10 Hf0 2.786466 1_555
Al10 Hf2 2.799201 1_555
Al10 Al9 2.836792 1_465
Al10 Al11 2.852079 1_455
Al10 Al8 2.852079 1_456
Al11 Co4 2.405270 1_555
Al11 Co3 2.419808 1_555
Al11 Co2 2.419808 1_555
Al11 Al2 2.694097 1_555
Al11 Nb0 2.771355 1_555
Al11 Hf4 2.780036 1_555
Al11 Hf3 2.780036 1_555
Al11 Al9 2.852079 1_565
Al11 Al8 2.878870 1_556
Al12 Co4 2.408322 1_555
Al12 Co5 2.437332 1_456
Al12 Co6 2.437332 1_546
Al12 Al7 2.673707 1_556
Al12 Al6 2.697772 1_556
Al12 Al5 2.697772 1_556
Al12 Hf3 2.786466 1_555
Al12 Hf4 2.786466 1_555
Al12 Hf2 2.799202 1_555
Al12 Al15 2.836792 1_556
Al12 Al14 2.852079 1_456
Al12 Al13 2.852079 1_546
Al13 Co1 2.405270 1_565
Al13 Co2 2.419808 1_555
Al13 Co6 2.419809 1_555
Al13 Al6 2.644632 1_565
Al13 Al7 2.694095 1_565
Al13 Al4 2.694102 1_565
Al13 Nb0 2.771354 1_555
Al13 Hf0 2.780036 1_555
Al13 Hf4 2.780036 1_555
Al13 Al15 2.852079 1_565
Al13 Al14 2.878870 1_465
Al14 Co1 2.405270 1_655
Al14 Co3 2.419808 1_555
Al14 Co5 2.419809 1_555
Al14 Al5 2.644632 1_655
Al14 Al7 2.694095 1_655
Al14 Al4 2.694102 1_655
Al14 Nb0 2.771354 1_555
Al14 Hf1 2.780036 1_555
Al14 Hf3 2.780036 1_555
Al14 Al15 2.852079 1_655
Al15 Co4 2.408322 1_554
Al15 Co3 2.437332 1_455
Al15 Co2 2.437332 1_545
Al15 Al4 2.673710 1_555
Al15 Al6 2.697763 1_555
Al15 Al5 2.697763 1_555
Al15 Hf1 2.786466 1_555
Al15 Hf0 2.786466 1_555
Al15 Hf2 2.799202 1_555
Co1 Hf1 3.045828 1_455
Co1 Hf0 3.045828 1_545
Co1 Hf3 3.045828 1_455
Co1 Hf4 3.045828 1_545
Co2 Hf4 3.000755 1_555
Co2 Hf1 3.026032 1_565
Co2 Hf2 3.081419 1_565
Co2 Nb0 3.106701 1_555
Co3 Hf3 3.000755 1_555
Co3 Hf0 3.026032 1_655
Co3 Hf2 3.081419 1_655
Co3 Nb0 3.106701 1_555
Co4 Hf4 3.045828 1_555
Co4 Hf3 3.045828 1_555
Co4 Hf0 3.045828 1_556
Co4 Hf1 3.045828 1_556
Co5 Hf1 3.000755 1_555
Co5 Hf4 3.026032 1_654
Co5 Hf2 3.081419 1_654
Co5 Nb0 3.106701 1_555
Co6 Hf0 3.000755 1_555
Co6 Hf3 3.026032 1_564
Co6 Hf2 3.081419 1_564
Co6 Nb0 3.106701 1_555
