# generated using pymatgen
data_Rb2CuAs2O7
_symmetry_space_group_name_H-M   'P 1'
_cell_length_a   8.44300221
_cell_length_b   8.44300221
_cell_length_c   5.95113397
_cell_angle_alpha   90.00000000
_cell_angle_beta   90.00000000
_cell_angle_gamma   90.00000000
_symmetry_Int_Tables_number   1
_chemical_formula_structural   Rb2CuAs2O7
_chemical_formula_sum   'Rb4 Cu2 As4 O14'
_cell_volume   424.22233761
_cell_formula_units_Z   2
loop_
 _symmetry_equiv_pos_site_id
 _symmetry_equiv_pos_as_xyz
  1  'x, y, z'
loop_
 _atom_site_type_symbol
 _atom_site_label
 _atom_site_symmetry_multiplicity
 _atom_site_fract_x
 _atom_site_fract_y
 _atom_site_fract_z
 _atom_site_occupancy
  Rb  Rb0  1  0.33446823  0.83446823  0.49276263  1
  Rb  Rb1  1  0.16553177  0.33446823  0.50723737  1
  Rb  Rb2  1  0.66553177  0.16553177  0.49276263  1
  Rb  Rb3  1  0.83446823  0.66553177  0.50723737  1
  Cu  Cu0  1  0.50000000  0.50000000  0.00000000  1
  Cu  Cu1  1  0.00000000  0.00000000  0.00000000  1
  As  As0  1  0.36231853  0.13768147  0.98852682  1
  As  As1  1  0.13768147  0.63768147  0.01147318  1
  As  As2  1  0.63768147  0.86231853  0.98852682  1
  As  As3  1  0.86231853  0.36231853  0.01147318  1
  O  O0  1  0.50000000  0.00000000  0.87087179  1
  O  O1  1  0.00000000  0.50000000  0.12912821  1
  O  O2  1  0.57975226  0.69162157  0.86301286  1
  O  O3  1  0.92024774  0.19162157  0.13698714  1
  O  O4  1  0.42024774  0.30837843  0.86301286  1
  O  O5  1  0.07975226  0.80837843  0.13698714  1
  O  O6  1  0.69162157  0.42024774  0.13698714  1
  O  O7  1  0.80837843  0.92024774  0.86301286  1
  O  O8  1  0.30837843  0.57975226  0.13698714  1
  O  O9  1  0.19162157  0.07975226  0.86301286  1
  O  O10  1  0.36584323  0.13415677  0.26631580  1
  O  O11  1  0.13415677  0.63415677  0.73368420  1
  O  O12  1  0.63415677  0.86584323  0.26631580  1
  O  O13  1  0.86584323  0.36584323  0.73368420  1
loop_
_geom_bond_atom_site_label_1
_geom_bond_atom_site_label_2
_geom_bond_distance
_geom_bond_site_symmetry_2
Cu0 O2 1.932737 1_554
Cu0 O6 1.932737 1_555
Cu0 O8 1.932737 1_555
Cu0 O4 1.932737 1_554
Cu1 O9 1.932737 1_554
Cu1 O3 1.932737 1_455
Cu1 O5 1.932737 1_545
Cu1 O7 1.932737 1_444
As0 O10 1.653695 1_556
As0 O4 1.695344 1_555
As0 O9 1.695344 1_555
As0 O0 1.786844 1_555
As1 O11 1.653695 1_554
As1 O8 1.695344 1_555
As1 O5 1.695344 1_555
As1 O1 1.786844 1_555
As2 O12 1.653695 1_556
As2 O7 1.695344 1_555
As2 O2 1.695344 1_555
As2 O0 1.786844 1_565
As3 O13 1.653695 1_554
As3 O3 1.695344 1_555
As3 O6 1.695344 1_555
As3 O1 1.786844 1_655
O0 Rb2 2.994961 1_555
O0 Rb0 2.994961 1_545
O1 Rb3 2.994961 1_455
O1 Rb1 2.994961 1_555
O2 Rb3 3.025935 1_555
O2 Rb0 3.255510 1_555
O3 Rb2 3.025935 1_555
O3 Rb1 3.255510 1_655
O4 Rb1 3.025935 1_555
O4 Rb2 3.255510 1_555
O5 Rb0 3.025935 1_555
O5 Rb3 3.255510 1_455
O6 Rb2 3.025935 1_555
O6 Rb3 3.255510 1_555
O7 Rb3 3.025935 1_555
O7 Rb2 3.255510 1_565
O8 Rb0 3.025935 1_555
O8 Rb1 3.255510 1_555
O9 Rb1 3.025935 1_555
O9 Rb0 3.255510 1_545
O10 Rb1 2.788580 1_555
O10 Rb0 2.878977 1_545
O10 Rb2 2.878977 1_555
O11 Rb0 2.788580 1_555
O11 Rb3 2.878977 1_455
O11 Rb1 2.878977 1_555
O12 Rb3 2.788580 1_555
O12 Rb2 2.878977 1_565
O12 Rb0 2.878977 1_555
O13 Rb2 2.788580 1_555
O13 Rb3 2.878977 1_555
O13 Rb1 2.878977 1_655
