# generated using pymatgen
data_Ba2Ga3PIr4
_symmetry_space_group_name_H-M   'P 1'
_cell_length_a   8.30617371
_cell_length_b   7.23230789
_cell_length_c   6.12085048
_cell_angle_alpha   76.42656607
_cell_angle_beta   56.98977762
_cell_angle_gamma   45.75164986
_symmetry_Int_Tables_number   1
_chemical_formula_structural   Ba2Ga3PIr4
_chemical_formula_sum   'Ba2 Ga3 P1 Ir4'
_cell_volume   214.29882060
_cell_formula_units_Z   1
loop_
 _symmetry_equiv_pos_site_id
 _symmetry_equiv_pos_as_xyz
  1  'x, y, z'
loop_
 _atom_site_type_symbol
 _atom_site_label
 _atom_site_symmetry_multiplicity
 _atom_site_fract_x
 _atom_site_fract_y
 _atom_site_fract_z
 _atom_site_occupancy
  Ba  Ba0  1  0.50121137  0.49878863  0.50121137  1
  Ba  Ba1  1  0.75102605  0.74897395  0.75102605  1
  Ga  Ga0  1  0.17938125  0.82061875  0.17938125  1
  Ga  Ga1  1  0.43003001  0.06996999  0.43003001  1
  Ga  Ga2  1  0.07320060  0.42679940  0.07320060  1
  P  P0  1  0.82533846  0.17466154  0.82533846  1
  Ir  Ir0  1  0.09910070  0.13343313  0.88452948  1
  Ir  Ir1  1  0.88452948  0.88293669  0.09910070  1
  Ir  Ir2  1  0.10815873  0.13354774  0.39802334  1
  Ir  Ir3  1  0.39802334  0.36027018  0.10815873  1
loop_
_geom_bond_atom_site_label_1
_geom_bond_atom_site_label_2
_geom_bond_distance
_geom_bond_site_symmetry_2
Ba0 Ga0 3.368411 1_555
Ba0 P0 3.392452 1_555
Ba0 Ir3 3.394361 1_556
Ba0 Ir2 3.394362 1_655
Ba0 Ir0 3.440470 1_654
Ba0 Ir1 3.440470 1_456
Ba0 Ir2 3.478863 1_565
Ba0 Ir3 3.478863 1_555
Ba0 Ir1 3.584722 1_545
Ba0 Ir0 3.584722 1_565
Ba0 Ga2 3.651478 1_556
Ba0 Ga2 3.651478 1_655
Ba0 P0 3.669699 1_554
Ba0 P0 3.669700 1_465
Ba0 Ga0 3.681817 1_556
Ba0 Ga0 3.681818 1_645
Ba0 Ga1 3.692102 1_565
Ba0 Ga1 3.692102 1_555
Ba1 Ga1 3.359681 1_565
Ba1 Ga2 3.372016 1_656
Ba1 Ir0 3.427800 1_655
Ba1 Ir1 3.427800 1_556
Ba1 Ir3 3.519061 1_566
Ba1 Ir2 3.519061 1_655
Ba1 Ir1 3.599241 1_555
Ba1 Ir0 3.599242 1_565
Ba1 Ga0 3.650736 1_655
Ba1 Ga0 3.650736 1_556
Ba1 Ir2 3.651741 1_566
Ba1 Ir3 3.651741 1_655
Ba1 Ga2 3.679993 1_655
Ba1 Ga2 3.679993 1_566
Ba1 Ga1 3.686247 1_566
Ba1 Ga1 3.686247 1_655
Ba1 P0 3.698854 1_555
Ba1 P0 3.698854 1_565
Ga0 Ir3 2.440000 1_555
Ga0 Ir2 2.440000 1_565
Ga0 Ir0 2.471743 1_564
Ga0 Ir1 2.471744 1_455
Ga1 Ir0 2.451996 1_555
Ga1 Ir1 2.451996 1_545
Ga1 Ir3 2.492056 1_555
Ga1 Ir2 2.492056 1_555
Ga2 Ir1 2.474670 1_455
Ga2 Ir0 2.474670 1_554
Ga2 Ir2 2.515097 1_555
Ga2 Ir3 2.515097 1_555
Ir0 P0 2.300343 1_455
Ir1 P0 2.300343 1_564
Ir2 P0 2.267932 1_455
Ir3 P0 2.267932 1_554
