# generated using pymatgen
data_Ta2AlB6Mo
_symmetry_space_group_name_H-M   'P 1'
_cell_length_a   9.62753582
_cell_length_b   9.62753705
_cell_length_c   3.07271406
_cell_angle_alpha   90.00000000
_cell_angle_beta   90.00000000
_cell_angle_gamma   160.58577458
_symmetry_Int_Tables_number   1
_chemical_formula_structural   Ta2AlB6Mo
_chemical_formula_sum   'Ta2 Al1 B6 Mo1'
_cell_volume   94.66890874
_cell_formula_units_Z   1
loop_
 _symmetry_equiv_pos_site_id
 _symmetry_equiv_pos_as_xyz
  1  'x, y, z'
loop_
 _atom_site_type_symbol
 _atom_site_label
 _atom_site_symmetry_multiplicity
 _atom_site_fract_x
 _atom_site_fract_y
 _atom_site_fract_z
 _atom_site_occupancy
  Ta  Ta0  1  0.92932893  0.07066807  0.25000100  1
  Ta  Ta1  1  0.07159223  0.92840477  0.74999900  1
  Al  Al0  1  0.20851975  0.79147725  0.25000100  1
  B  B0  1  0.61870081  0.38129619  0.25000100  1
  B  B1  1  0.52312524  0.47687176  0.25000100  1
  B  B2  1  0.33132224  0.66867476  0.25000100  1
  B  B3  1  0.66673328  0.33326372  0.74999900  1
  B  B4  1  0.47564674  0.52435026  0.74999900  1
  B  B5  1  0.38082880  0.61916820  0.74999900  1
  Mo  Mo0  1  0.79418899  0.20580801  0.74999900  1
loop_
_geom_bond_atom_site_label_1
_geom_bond_atom_site_label_2
_geom_bond_distance
_geom_bond_site_symmetry_2
Al0 B2 2.330716 1_555
Al0 B0 2.353972 1_455
Al0 B0 2.353973 1_565
Al0 B3 2.371604 1_455
Al0 B3 2.371604 1_565
Al0 B3 2.371612 1_454
Al0 B3 2.371612 1_564
Al0 Mo0 2.763917 1_565
Al0 Mo0 2.763918 1_455
Al0 Mo0 2.763924 1_564
Al0 Mo0 2.763925 1_454
B0 B3 1.786460 1_555
B0 B3 1.786470 1_554
B0 B1 1.813966 1_555
B0 Ta1 2.407266 1_545
B0 Ta1 2.407266 1_655
B0 Ta1 2.407273 1_544
B0 Ta1 2.407274 1_654
B1 B4 1.781117 1_555
B1 B4 1.781128 1_554
B1 Ta0 2.409202 1_455
B1 Ta0 2.409203 1_565
B1 Ta1 2.416960 1_655
B1 Ta1 2.416960 1_545
B1 Ta1 2.416968 1_654
B1 Ta1 2.416968 1_544
B2 B5 1.800897 1_555
B2 B5 1.800908 1_554
B2 Mo0 2.343549 1_455
B2 Mo0 2.343550 1_565
B2 Mo0 2.343557 1_454
B2 Mo0 2.343558 1_564
B2 Ta0 2.468836 1_565
B2 Ta0 2.468837 1_455
B3 Mo0 2.419031 1_555
B3 Ta1 2.428121 1_545
B3 Ta1 2.428122 1_655
B4 B5 1.799587 1_555
B4 Ta0 2.401732 1_455
B4 Ta0 2.401732 1_565
B4 Ta0 2.401740 1_456
B4 Ta0 2.401740 1_566
B4 Ta1 2.439497 1_655
B4 Ta1 2.439498 1_545
B5 Mo0 2.310651 1_455
B5 Mo0 2.310652 1_565
B5 Ta0 2.417199 1_565
B5 Ta0 2.417200 1_455
B5 Ta0 2.417207 1_566
B5 Ta0 2.417208 1_456
