# generated using pymatgen
data_KLi2AsS4
_symmetry_space_group_name_H-M   'P 1'
_cell_length_a   6.22129692
_cell_length_b   6.58111226
_cell_length_c   6.22054706
_cell_angle_alpha   58.04410570
_cell_angle_beta   63.88287272
_cell_angle_gamma   58.03605121
_symmetry_Int_Tables_number   1
_chemical_formula_structural   KLi2AsS4
_chemical_formula_sum   'K1 Li2 As1 S4'
_cell_volume   178.74055479
_cell_formula_units_Z   1
loop_
 _symmetry_equiv_pos_site_id
 _symmetry_equiv_pos_as_xyz
  1  'x, y, z'
loop_
 _atom_site_type_symbol
 _atom_site_label
 _atom_site_symmetry_multiplicity
 _atom_site_fract_x
 _atom_site_fract_y
 _atom_site_fract_z
 _atom_site_occupancy
  K  K0  1  0.06322570  0.43876296  0.31385275  1
  Li  Li0  1  0.81311503  0.18899083  0.06326865  1
  Li  Li1  1  0.31365756  0.68719580  0.56431129  1
  As  As0  1  0.56330394  0.93851320  0.81435539  1
  S  S0  1  0.60323840  0.28047737  0.47199818  1
  S  S1  1  0.22145111  0.89863513  0.85372699  1
  S  S2  1  0.90550656  0.59618343  0.77459651  1
  S  S3  1  0.52359170  0.97833028  0.15638924  1
loop_
_geom_bond_atom_site_label_1
_geom_bond_atom_site_label_2
_geom_bond_distance
_geom_bond_site_symmetry_2
K0 S1 3.134497 1_554
K0 S3 3.134878 1_545
K0 S0 3.136120 1_455
K0 S2 3.137088 1_455
K0 S3 3.380989 1_455
K0 S2 3.381045 1_454
K0 S1 3.384104 1_545
K0 S0 3.385165 1_555
Li0 S2 2.522801 1_554
Li0 S3 2.525311 1_545
Li0 S1 2.526965 1_644
Li0 S0 2.529242 1_555
Li1 S0 2.520021 1_555
Li1 S2 2.524705 1_455
Li1 S3 2.530015 1_555
Li1 S1 2.530599 1_555
As0 S0 2.171345 1_565
As0 S3 2.171489 1_556
As0 S1 2.171712 1_555
As0 S2 2.171914 1_555
