# generated using pymatgen
data_K2Na2RhO4
_symmetry_space_group_name_H-M   'P 1'
_cell_length_a   11.06874432
_cell_length_b   5.97664365
_cell_length_c   9.26820278
_cell_angle_alpha   67.23951597
_cell_angle_beta   90.00000000
_cell_angle_gamma   90.00000000
_symmetry_Int_Tables_number   1
_chemical_formula_structural   K2Na2RhO4
_chemical_formula_sum   'K8 Na8 Rh4 O16'
_cell_volume   565.38396701
_cell_formula_units_Z   4
loop_
 _symmetry_equiv_pos_site_id
 _symmetry_equiv_pos_as_xyz
  1  'x, y, z'
loop_
 _atom_site_type_symbol
 _atom_site_label
 _atom_site_symmetry_multiplicity
 _atom_site_fract_x
 _atom_site_fract_y
 _atom_site_fract_z
 _atom_site_occupancy
  K  K0  1  0.36205994  0.33711210  0.50284948  1
  K  K1  1  0.63430360  0.34350660  0.27705604  1
  K  K2  1  0.36569640  0.65649340  0.72294396  1
  K  K3  1  0.13430360  0.65649340  0.22294396  1
  K  K4  1  0.86569640  0.34350660  0.77705604  1
  K  K5  1  0.63794006  0.66288790  0.49715052  1
  K  K6  1  0.13794006  0.33711210  0.00284948  1
  K  K7  1  0.86205994  0.66288790  0.99715052  1
  Na  Na0  1  0.11246999  0.06801293  0.40564148  1
  Na  Na1  1  0.60701570  0.43452214  0.90598781  1
  Na  Na2  1  0.39298430  0.56547786  0.09401219  1
  Na  Na3  1  0.61246999  0.93198707  0.09435852  1
  Na  Na4  1  0.89298430  0.43452214  0.40598781  1
  Na  Na5  1  0.38753001  0.06801293  0.90564148  1
  Na  Na6  1  0.10701570  0.56547786  0.59401219  1
  Na  Na7  1  0.88753001  0.93198707  0.59435852  1
  Rh  Rh0  1  0.36999724  0.98673310  0.27101227  1
  Rh  Rh1  1  0.63000276  0.01326690  0.72898773  1
  Rh  Rh2  1  0.13000276  0.98673310  0.77101227  1
  Rh  Rh3  1  0.86999724  0.01326690  0.22898773  1
  O  O0  1  0.53468613  0.28246482  0.72405169  1
  O  O1  1  0.03468613  0.71753518  0.77594831  1
  O  O2  1  0.73187499  0.21925948  0.56576992  1
  O  O3  1  0.76812501  0.21925948  0.06576992  1
  O  O4  1  0.46487291  0.20193655  0.09901725  1
  O  O5  1  0.96487291  0.79806345  0.40098275  1
  O  O6  1  0.46531387  0.71753518  0.27594831  1
  O  O7  1  0.03512709  0.20193655  0.59901725  1
  O  O8  1  0.77526937  0.74073600  0.23911736  1
  O  O9  1  0.22473063  0.25926400  0.76088264  1
  O  O10  1  0.27526937  0.25926400  0.26088264  1
  O  O11  1  0.53512709  0.79806345  0.90098275  1
  O  O12  1  0.72473063  0.74073600  0.73911736  1
  O  O13  1  0.26812501  0.78074052  0.43423008  1
  O  O14  1  0.23187499  0.78074052  0.93423008  1
  O  O15  1  0.96531387  0.28246482  0.22405169  1
loop_
_geom_bond_atom_site_label_1
_geom_bond_atom_site_label_2
_geom_bond_distance
_geom_bond_site_symmetry_2
K0 O10 2.641202 1_555
K0 O6 2.683002 1_555
K0 O13 2.685285 1_555
K0 O9 2.717609 1_555
K0 O0 2.728123 1_555
K1 O2 2.709343 1_555
K1 O8 2.747478 1_555
K1 O3 2.775853 1_555
K1 O4 2.834803 1_555
K1 O6 2.911753 1_555
K2 O13 2.709343 1_555
K2 O9 2.747478 1_555
K2 O14 2.775853 1_555
K2 O11 2.834803 1_555
K2 O0 2.911753 1_555
K3 O14 2.709343 1_554
K3 O10 2.747478 1_555
K3 O13 2.775853 1_555
K3 O5 2.834803 1_455
K3 O15 2.911753 1_455
K4 O3 2.709343 1_556
K4 O12 2.747478 1_555
K4 O2 2.775853 1_555
K4 O7 2.834803 1_655
K4 O1 2.911753 1_655
K5 O12 2.641202 1_555
K5 O0 2.683002 1_555
K5 O2 2.685285 1_555
K5 O8 2.717609 1_555
K5 O6 2.728123 1_555
K6 O9 2.641202 1_554
K6 O1 2.683002 1_554
K6 O14 2.685285 1_554
K6 O10 2.717609 1_555
K6 O15 2.728123 1_455
K7 O8 2.641202 1_556
K7 O15 2.683002 1_556
K7 O3 2.685285 1_556
K7 O12 2.717609 1_555
K7 O1 2.728123 1_655
Na0 O10 2.273129 1_555
Na0 O5 2.308208 1_445
Na0 O15 2.336513 1_455
Na0 O13 2.373697 1_545
Na0 O7 2.386563 1_555
Na1 O12 2.291052 1_555
Na1 O11 2.297434 1_555
Na1 O0 2.344340 1_555
Na1 O3 2.356721 1_556
Na1 O4 2.384138 1_556
Na2 O10 2.291052 1_555
Na2 O4 2.297434 1_555
Na2 O6 2.344340 1_555
Na2 O14 2.356721 1_554
Na2 O11 2.384138 1_554
Na3 O8 2.273129 1_555
Na3 O4 2.308208 1_565
Na3 O6 2.336513 1_555
Na3 O3 2.373697 1_565
Na3 O11 2.386563 1_554
Na4 O8 2.291052 1_555
Na4 O5 2.297434 1_555
Na4 O15 2.344340 1_555
Na4 O2 2.356721 1_555
Na4 O7 2.384138 1_655
Na5 O9 2.273129 1_555
Na5 O11 2.308208 1_545
Na5 O0 2.336513 1_555
Na5 O14 2.373697 1_545
Na5 O4 2.386563 1_556
Na6 O9 2.291052 1_555
Na6 O7 2.297434 1_555
Na6 O1 2.344340 1_555
Na6 O13 2.356721 1_555
Na6 O5 2.384138 1_455
Na7 O12 2.273129 1_555
Na7 O7 2.308208 1_665
Na7 O1 2.336513 1_655
Na7 O2 2.373697 1_565
Na7 O5 2.386563 1_555
O0 Rh1 1.909660 1_555
O1 Rh2 1.909660 1_555
O2 Rh1 1.906441 1_555
O3 Rh3 1.906441 1_555
O4 Rh0 1.926599 1_545
O5 Rh3 1.926599 1_565
O6 Rh0 1.909660 1_555
O7 Rh2 1.926599 1_545
O8 Rh3 1.908648 1_565
O9 Rh2 1.908648 1_545
O10 Rh0 1.908648 1_545
O11 Rh1 1.926599 1_565
O12 Rh1 1.908648 1_565
O13 Rh0 1.906441 1_555
O14 Rh2 1.906441 1_555
O15 Rh3 1.909660 1_555
