# generated using pymatgen
data_La5Bi3Br
_symmetry_space_group_name_H-M   'P 1'
_cell_length_a   9.83205970
_cell_length_b   9.83206911
_cell_length_c   6.85907408
_cell_angle_alpha   90.00000000
_cell_angle_beta   90.00000000
_cell_angle_gamma   120.00003665
_symmetry_Int_Tables_number   1
_chemical_formula_structural   La5Bi3Br
_chemical_formula_sum   'La10 Bi6 Br2'
_cell_volume   574.22936021
_cell_formula_units_Z   2
loop_
 _symmetry_equiv_pos_site_id
 _symmetry_equiv_pos_as_xyz
  1  'x, y, z'
loop_
 _atom_site_type_symbol
 _atom_site_label
 _atom_site_symmetry_multiplicity
 _atom_site_fract_x
 _atom_site_fract_y
 _atom_site_fract_z
 _atom_site_occupancy
  La  La0  1  0.72675320  0.00000000  0.75000000  1
  La  La1  1  -0.00000000  0.27324580  0.25000000  1
  La  La2  1  0.72675320  0.72675320  0.25000000  1
  La  La3  1  0.33333300  0.66666700  0.50000000  1
  La  La4  1  0.33333300  0.66666700  -0.00000000  1
  La  La5  1  0.66666700  0.33333300  0.50000000  1
  La  La6  1  0.66666700  0.33333300  0.00000000  1
  La  La7  1  0.27324680  -0.00000000  0.25000000  1
  La  La8  1  0.27324680  0.27324680  0.75000000  1
  La  La9  1  0.00000000  0.72675420  0.75000000  1
  Bi  Bi0  1  0.38282314  0.00000000  0.75000000  1
  Bi  Bi1  1  0.61717686  -0.00000000  0.25000000  1
  Bi  Bi2  1  -0.00000000  0.61717686  0.25000000  1
  Bi  Bi3  1  0.61717686  0.61717686  0.75000000  1
  Bi  Bi4  1  0.00000000  0.38282314  0.75000000  1
  Bi  Bi5  1  0.38282314  0.38282314  0.25000000  1
  Br  Br0  1  0.00000000  0.00000000  0.50000000  1
  Br  Br1  1  0.00000000  0.00000000  0.00000000  1
loop_
_geom_bond_atom_site_label_1
_geom_bond_atom_site_label_2
_geom_bond_distance
_geom_bond_site_symmetry_2
Bi0 La9 3.357500 1_545
Bi0 La8 3.357506 1_555
Bi0 La0 3.381541 1_555
Bi0 La4 3.510486 1_546
Bi0 La3 3.510486 1_545
Bi0 La5 3.510487 1_555
Bi0 La6 3.510487 1_556
Bi0 La7 3.594778 1_555
Bi0 La7 3.594778 1_556
Bi1 La1 3.357500 1_655
Bi1 La2 3.357506 1_545
Bi1 La7 3.381541 1_555
Bi1 La5 3.510486 1_555
Bi1 La6 3.510486 1_555
Bi1 La3 3.510487 1_545
Bi1 La4 3.510487 1_545
Bi1 La0 3.594778 1_554
Bi1 La0 3.594778 1_555
Bi2 La7 3.357504 1_565
Bi2 La2 3.357505 1_455
Bi2 La1 3.381554 1_555
Bi2 La3 3.510484 1_555
Bi2 La4 3.510484 1_555
Bi2 La5 3.510487 1_455
Bi2 La6 3.510487 1_455
Bi2 La9 3.594782 1_555
Bi2 La9 3.594782 1_554
Bi3 La9 3.357500 1_655
Bi3 La0 3.357506 1_565
Bi3 La8 3.381541 1_555
Bi3 La4 3.510493 1_556
Bi3 La3 3.510493 1_555
Bi3 La6 3.510495 1_556
Bi3 La5 3.510495 1_555
Bi3 La2 3.594778 1_556
Bi3 La2 3.594778 1_555
Bi4 La0 3.357504 1_455
Bi4 La8 3.357505 1_555
Bi4 La9 3.381554 1_555
Bi4 La6 3.510484 1_456
Bi4 La5 3.510484 1_455
Bi4 La3 3.510487 1_555
Bi4 La4 3.510487 1_556
Bi4 La1 3.594782 1_555
Bi4 La1 3.594782 1_556
Bi5 La1 3.357500 1_555
Bi5 La7 3.357506 1_555
Bi5 La2 3.381541 1_555
Bi5 La5 3.510493 1_555
Bi5 La6 3.510493 1_555
Bi5 La3 3.510495 1_555
Bi5 La4 3.510495 1_555
Bi5 La8 3.594778 1_555
Bi5 La8 3.594778 1_554
Br0 La1 3.187177 1_555
Br0 La9 3.187177 1_545
Br0 La8 3.187183 1_555
Br0 La2 3.187183 1_445
Br0 La7 3.187183 1_555
Br0 La0 3.187183 1_455
Br1 La1 3.187177 1_555
Br1 La9 3.187177 1_544
Br1 La8 3.187183 1_554
Br1 La2 3.187183 1_445
Br1 La0 3.187183 1_454
Br1 La7 3.187183 1_555
