# generated using pymatgen
data_Ba3Na3AsP2
_symmetry_space_group_name_H-M   'P 1'
_cell_length_a   8.02953257
_cell_length_b   8.02953318
_cell_length_c   4.72406791
_cell_angle_alpha   90.00000000
_cell_angle_beta   90.00000000
_cell_angle_gamma   120.00000153
_symmetry_Int_Tables_number   1
_chemical_formula_structural   Ba3Na3AsP2
_chemical_formula_sum   'Ba3 Na3 As1 P2'
_cell_volume   263.77116555
_cell_formula_units_Z   1
loop_
 _symmetry_equiv_pos_site_id
 _symmetry_equiv_pos_as_xyz
  1  'x, y, z'
loop_
 _atom_site_type_symbol
 _atom_site_label
 _atom_site_symmetry_multiplicity
 _atom_site_fract_x
 _atom_site_fract_y
 _atom_site_fract_z
 _atom_site_occupancy
  Ba  Ba0  1  1.00000000  0.58331735  0.50000000  1
  Ba  Ba1  1  0.58331735  0.00000000  0.50000000  1
  Ba  Ba2  1  0.41668265  0.41668265  0.50000000  1
  Na  Na0  1  0.24526835  1.00000000  0.00000000  1
  Na  Na1  1  0.75473165  0.75473165  0.00000000  1
  Na  Na2  1  0.00000000  0.24526835  0.00000000  1
  As  As0  1  0.00000000  0.00000000  0.50000000  1
  P  P0  1  0.66666700  0.33333300  0.00000000  1
  P  P1  1  0.33333300  0.66666700  0.00000000  1
loop_
_geom_bond_atom_site_label_1
_geom_bond_atom_site_label_2
_geom_bond_distance
_geom_bond_site_symmetry_2
Ba0 P1 3.376319 1_655
Ba0 P1 3.376319 1_656
Ba0 P0 3.376321 1_555
Ba0 P0 3.376321 1_556
Ba1 P0 3.376319 1_555
Ba1 P0 3.376319 1_556
Ba1 P1 3.376321 1_545
Ba1 P1 3.376321 1_546
Ba2 P0 3.376325 1_555
Ba2 P0 3.376325 1_556
Ba2 P1 3.376325 1_556
Ba2 P1 3.376325 1_555
Na0 P1 3.091330 1_555
Na0 P0 3.091335 1_565
Na1 P1 3.091337 1_555
Na1 P0 3.091338 1_555
Na2 P0 3.091330 1_455
Na2 P1 3.091335 1_555
As0 Na0 3.075338 1_546
As0 Na0 3.075338 1_545
As0 Na1 3.075338 1_445
As0 Na1 3.075338 1_446
As0 Na2 3.075338 1_556
As0 Na2 3.075338 1_555
As0 Ba1 3.345767 1_455
As0 Ba2 3.345767 1_555
As0 Ba0 3.345767 1_445
