# generated using pymatgen
data_Li2MnBr4
_symmetry_space_group_name_H-M   'P 1'
_cell_length_a   6.73511077
_cell_length_b   6.73511077
_cell_length_c   6.73511077
_cell_angle_alpha   131.61376649
_cell_angle_beta   131.61376649
_cell_angle_gamma   70.83972904
_symmetry_Int_Tables_number   1
_chemical_formula_structural   Li2MnBr4
_chemical_formula_sum   'Li2 Mn1 Br4'
_cell_volume   167.25738393
_cell_formula_units_Z   1
loop_
 _symmetry_equiv_pos_site_id
 _symmetry_equiv_pos_as_xyz
  1  'x, y, z'
loop_
 _atom_site_type_symbol
 _atom_site_label
 _atom_site_symmetry_multiplicity
 _atom_site_fract_x
 _atom_site_fract_y
 _atom_site_fract_z
 _atom_site_occupancy
  Li  Li0  1  0.75000000  0.25000000  0.50000000  1
  Li  Li1  1  0.25000000  0.75000000  0.50000000  1
  Mn  Mn0  1  0.50000000  0.50000000  0.00000000  1
  Br  Br0  1  0.26257400  0.26257400  0.00000000  1
  Br  Br1  1  0.73742600  0.73742600  0.00000000  1
  Br  Br2  1  0.00000000  0.50000000  0.50000000  1
  Br  Br3  1  0.50000000  0.00000000  0.50000000  1
loop_
_geom_bond_atom_site_label_1
_geom_bond_atom_site_label_2
_geom_bond_distance
_geom_bond_site_symmetry_2
Br0 Mn0 2.606284 1_555
Br0 Li0 2.763588 1_454
Br0 Li1 2.763588 1_555
Br0 Li0 2.763588 1_555
Br0 Li1 2.763588 1_544
Br1 Mn0 2.606284 1_555
Br1 Li0 2.763588 1_565
Br1 Li0 2.763588 1_554
Br1 Li1 2.763588 1_655
Br1 Li1 2.763588 1_554
Br2 Li0 2.744311 1_455
Br2 Li1 2.744311 1_555
Br2 Mn0 2.760139 1_455
Br2 Mn0 2.760139 1_556
Br3 Li1 2.744311 1_545
Br3 Li0 2.744311 1_555
Br3 Mn0 2.760139 1_545
Br3 Mn0 2.760139 1_556
