# generated using pymatgen
data_Sc4Zn(SiRh)6
_symmetry_space_group_name_H-M   'P 1'
_cell_length_a   6.93109581
_cell_length_b   6.93109536
_cell_length_c   6.93109623
_cell_angle_alpha   109.49677088
_cell_angle_beta   109.49677390
_cell_angle_gamma   109.42013150
_symmetry_Int_Tables_number   1
_chemical_formula_structural   Sc4Zn(SiRh)6
_chemical_formula_sum   'Sc4 Zn1 Si6 Rh6'
_cell_volume   256.32061900
_cell_formula_units_Z   1
loop_
 _symmetry_equiv_pos_site_id
 _symmetry_equiv_pos_as_xyz
  1  'x, y, z'
loop_
 _atom_site_type_symbol
 _atom_site_label
 _atom_site_symmetry_multiplicity
 _atom_site_fract_x
 _atom_site_fract_y
 _atom_site_fract_z
 _atom_site_occupancy
  Sc  Sc0  1  0.00274658  0.99725342  0.50000000  1
  Sc  Sc1  1  0.00274658  0.50274658  0.00549316  1
  Sc  Sc2  1  0.49725342  0.99725342  0.99450684  1
  Sc  Sc3  1  0.49725342  0.50274658  0.50000000  1
  Zn  Zn0  1  0.75000000  0.25000000  0.50000000  1
  Si  Si0  1  0.67613425  0.67613425  1.00000000  1
  Si  Si1  1  0.30726609  0.99235235  0.31491374  1
  Si  Si2  1  0.00764765  0.32256239  0.31491374  1
  Si  Si3  1  0.32386575  0.32386575  0.00000000  1
  Si  Si4  1  0.67743761  0.99235235  0.68508626  1
  Si  Si5  1  0.00764765  0.69273391  0.68508626  1
  Rh  Rh0  1  0.74753086  0.49288148  0.25464938  1
  Rh  Rh1  1  0.50711852  0.25246914  0.74535062  1
  Rh  Rh2  1  0.23823209  0.49288148  0.74535062  1
  Rh  Rh3  1  0.25000000  0.75000000  0.50000000  1
  Rh  Rh4  1  0.50711852  0.76176791  0.25464938  1
  Rh  Rh5  1  0.00000000  0.00000000  0.00000000  1
loop_
_geom_bond_atom_site_label_1
_geom_bond_atom_site_label_2
_geom_bond_distance
_geom_bond_site_symmetry_2
Sc0 Si5 2.815615 1_555
Sc0 Si1 2.815615 1_555
Sc0 Zn0 2.859793 1_465
Sc0 Si3 2.890073 1_566
Sc0 Si0 2.890073 1_454
Sc0 Si2 2.939332 1_565
Sc0 Si4 2.939332 1_455
Sc1 Si2 2.815610 1_555
Sc1 Si1 2.815615 1_555
Sc1 Zn0 2.859793 1_454
Sc1 Si0 2.890073 1_454
Sc1 Si3 2.890073 1_555
Sc1 Si5 2.939325 1_554
Sc1 Si4 2.939326 1_444
Sc2 Si4 2.815610 1_555
Sc2 Si5 2.815615 1_555
Sc2 Zn0 2.859793 1_566
Sc2 Si3 2.890073 1_566
Sc2 Si0 2.890073 1_555
Sc2 Si1 2.939325 1_556
Sc2 Si2 2.939326 1_666
Sc3 Si4 2.815616 1_555
Sc3 Si2 2.815616 1_555
Sc3 Zn0 2.859793 1_555
Sc3 Si0 2.890074 1_555
Sc3 Si3 2.890074 1_555
Sc3 Si1 2.939325 1_545
Sc3 Si5 2.939325 1_655
Si1 Zn0 2.539738 1_565
Si2 Zn0 2.539739 1_455
Si4 Zn0 2.539739 1_565
Si5 Zn0 2.539738 1_455
Rh0 Si3 2.446035 1_555
Rh0 Si2 2.461755 1_655
Rh0 Si5 2.461760 1_655
Rh0 Si0 2.510924 1_554
Rh0 Zn0 2.763469 1_555
Rh0 Sc2 2.806435 1_544
Rh0 Sc3 2.806435 1_555
Rh0 Sc0 2.855439 1_655
Rh0 Sc1 2.855439 1_655
Rh1 Si0 2.446035 1_555
Rh1 Si4 2.461755 1_545
Rh1 Si1 2.461760 1_545
Rh1 Si3 2.510924 1_556
Rh1 Zn0 2.763469 1_555
Rh1 Sc1 2.806435 1_656
Rh1 Sc3 2.806435 1_555
Rh1 Sc0 2.855439 1_545
Rh1 Sc2 2.855439 1_545
Rh2 Si3 2.446035 1_556
Rh2 Si5 2.461760 1_555
Rh2 Si2 2.461761 1_555
Rh2 Si0 2.510924 1_555
Rh2 Zn0 2.763468 1_455
Rh2 Sc0 2.806435 1_545
Rh2 Sc1 2.806435 1_556
Rh2 Sc2 2.855439 1_555
Rh2 Sc3 2.855439 1_555
Rh3 Si2 2.441263 1_555
Rh3 Si4 2.441263 1_555
Rh3 Si1 2.441269 1_555
Rh3 Si5 2.441269 1_555
Rh3 Sc3 2.797638 1_555
Rh3 Sc0 2.797638 1_555
Rh3 Sc2 2.797639 1_555
Rh3 Sc1 2.797639 1_555
Rh4 Si0 2.446036 1_554
Rh4 Si1 2.461760 1_555
Rh4 Si4 2.461761 1_555
Rh4 Si3 2.510924 1_555
Rh4 Zn0 2.763468 1_565
Rh4 Sc0 2.806435 1_655
Rh4 Sc2 2.806435 1_554
Rh4 Sc1 2.855439 1_555
Rh4 Sc3 2.855439 1_555
Rh5 Si1 2.520311 1_545
Rh5 Si5 2.520311 1_544
Rh5 Si4 2.520315 1_444
Rh5 Si2 2.520315 1_555
Rh5 Si3 2.593642 1_555
Rh5 Si0 2.593642 1_444
