# generated using pymatgen
data_Zr6Ti5Al11Os7
_symmetry_space_group_name_H-M   'P 1'
_cell_length_a   8.80812168
_cell_length_b   8.80812205
_cell_length_c   8.76923133
_cell_angle_alpha   59.85318241
_cell_angle_beta   59.85318321
_cell_angle_gamma   60.00000247
_symmetry_Int_Tables_number   1
_chemical_formula_structural   Zr6Ti5Al11Os7
_chemical_formula_sum   'Zr6 Ti5 Al11 Os7'
_cell_volume   480.00507910
_cell_formula_units_Z   1
loop_
 _symmetry_equiv_pos_site_id
 _symmetry_equiv_pos_as_xyz
  1  'x, y, z'
loop_
 _atom_site_type_symbol
 _atom_site_label
 _atom_site_symmetry_multiplicity
 _atom_site_fract_x
 _atom_site_fract_y
 _atom_site_fract_z
 _atom_site_occupancy
  Zr  Zr0  1  0.70575116  0.70575116  0.29700023  1
  Zr  Zr1  1  0.29149645  0.70575116  0.29700023  1
  Zr  Zr2  1  0.70575116  0.29149645  0.29700023  1
  Zr  Zr3  1  0.29988628  0.29988628  0.70592043  1
  Zr  Zr4  1  0.69430600  0.29988628  0.70592043  1
  Zr  Zr5  1  0.29988628  0.69430600  0.70592043  1
  Ti  Ti0  1  0.88024290  0.88024290  0.35927431  1
  Ti  Ti1  1  0.87801211  0.36238667  0.88159111  1
  Ti  Ti2  1  0.36238667  0.87801211  0.88159111  1
  Ti  Ti3  1  0.87801211  0.87801211  0.88159111  1
  Ti  Ti4  1  0.12241643  0.12241643  0.63275072  1
  Al  Al0  1  0.11952343  0.64234242  0.11860971  1
  Al  Al1  1  0.64234242  0.11952343  0.11860971  1
  Al  Al2  1  0.11952343  0.11952343  0.11860971  1
  Al  Al3  1  0.66496612  0.66496612  0.00509865  1
  Al  Al4  1  0.66502764  0.00566247  0.66428025  1
  Al  Al5  1  0.00566247  0.66502764  0.66428025  1
  Al  Al6  1  0.66502764  0.66502764  0.66428025  1
  Al  Al7  1  0.33186207  0.33186207  0.00441480  1
  Al  Al8  1  0.33420112  0.99874661  0.33285115  1
  Al  Al9  1  0.99874661  0.33420112  0.33285115  1
  Al  Al10  1  0.33420112  0.33420112  0.33285115  1
  Os  Os0  1  0.00338628  0.00338628  0.98984215  1
  Os  Os1  1  0.99940286  0.99940286  0.50178756  1
  Os  Os2  1  0.49940672  0.99940286  0.50178756  1
  Os  Os3  1  0.99940286  0.49940672  0.50178756  1
  Os  Os4  1  0.50081845  0.50081845  0.00083435  1
  Os  Os5  1  0.99752875  0.50081845  0.00083435  1
  Os  Os6  1  0.50081845  0.99752875  0.00083435  1
loop_
_geom_bond_atom_site_label_1
_geom_bond_atom_site_label_2
_geom_bond_distance
_geom_bond_site_symmetry_2
Zr0 Zr5 3.573518 1_555
Zr0 Zr4 3.573518 1_555
Zr0 Zr1 3.648806 1_555
Zr0 Zr2 3.648806 1_555
Zr1 Zr3 3.573518 1_555
Zr1 Zr5 3.573519 1_555
Zr1 Zr2 3.648806 1_555
Zr2 Zr3 3.573518 1_555
Zr2 Zr4 3.573519 1_555
Zr3 Zr4 3.474097 1_555
Zr3 Zr5 3.474097 1_555
Zr4 Zr5 3.474097 1_555
Ti0 Zr1 3.011763 1_655
Ti0 Zr2 3.011763 1_565
Ti0 Zr0 3.011793 1_555
Ti1 Zr2 3.012170 1_556
Ti1 Ti4 3.037742 1_655
Ti1 Zr3 3.088797 1_655
Ti1 Zr4 3.088820 1_555
Ti2 Zr1 3.012170 1_556
Ti2 Ti4 3.037742 1_565
Ti2 Zr3 3.088797 1_565
Ti2 Zr5 3.088820 1_555
Ti3 Zr0 3.012174 1_556
Ti3 Ti4 3.037730 1_665
Ti3 Zr5 3.088801 1_655
Ti3 Zr4 3.088802 1_565
Ti4 Zr3 3.123645 1_555
Ti4 Zr4 3.123653 1_455
Ti4 Zr5 3.123653 1_545
Al0 Os0 2.595167 1_564
Al0 Os3 2.739925 1_455
Al0 Os5 2.742733 1_455
Al0 Os4 2.742740 1_555
Al0 Al7 2.781075 1_555
Al0 Al9 2.790345 1_455
Al0 Al10 2.790350 1_555
Al0 Ti0 2.974014 1_455
Al0 Ti3 2.974205 1_454
Al0 Ti2 2.974223 1_554
Al0 Zr5 3.019740 1_554
Al0 Zr0 3.026107 1_455
Al0 Zr1 3.026108 1_555
Al1 Os0 2.595167 1_654
Al1 Os2 2.739925 1_545
Al1 Os6 2.742733 1_545
Al1 Os4 2.742740 1_555
Al1 Al7 2.781075 1_555
Al1 Al8 2.790345 1_545
Al1 Al10 2.790350 1_555
Al1 Ti0 2.974014 1_545
Al1 Ti3 2.974205 1_544
Al1 Ti1 2.974223 1_554
Al1 Zr4 3.019740 1_554
Al1 Zr0 3.026108 1_545
Al1 Zr2 3.026108 1_555
Al2 Os0 2.595153 1_554
Al2 Os1 2.739925 1_445
Al2 Os6 2.742740 1_545
Al2 Os5 2.742740 1_455
Al2 Al7 2.781089 1_555
Al2 Al8 2.790353 1_545
Al2 Al9 2.790353 1_455
Al2 Ti0 2.973989 1_445
Al2 Ti1 2.974205 1_454
Al2 Ti2 2.974205 1_544
Al2 Zr3 3.019740 1_554
Al2 Zr2 3.026107 1_455
Al2 Zr1 3.026108 1_545
Al3 Os4 2.526125 1_555
Al3 Os5 2.526148 1_555
Al3 Os6 2.526148 1_555
Al3 Ti2 2.766611 1_554
Al3 Ti1 2.766611 1_554
Al3 Ti3 2.766647 1_554
Al3 Zr1 2.964239 1_555
Al3 Zr2 2.964239 1_555
Al3 Zr0 2.964250 1_555
Al3 Al6 2.988171 1_554
Al3 Al5 2.988175 1_654
Al3 Al4 2.988175 1_564
Al4 Os2 2.531577 1_545
Al4 Os1 2.531592 1_545
Al4 Os6 2.532000 1_546
Al4 Ti2 2.782855 1_545
Al4 Ti3 2.782884 1_545
Al4 Ti0 2.783648 1_545
Al4 Zr2 2.904913 1_555
Al4 Zr3 2.937587 1_555
Al4 Zr4 2.937592 1_555
Al4 Al6 3.000353 1_545
Al4 Al5 3.000353 1_645
Al5 Os3 2.531577 1_455
Al5 Os1 2.531592 1_455
Al5 Os5 2.532000 1_456
Al5 Ti1 2.782855 1_455
Al5 Ti3 2.782884 1_455
Al5 Ti0 2.783648 1_455
Al5 Zr1 2.904913 1_555
Al5 Zr3 2.937587 1_555
Al5 Zr5 2.937592 1_555
Al5 Al6 3.000353 1_455
Al6 Os3 2.531587 1_555
Al6 Os2 2.531587 1_555
Al6 Os4 2.531995 1_556
Al6 Ti1 2.782874 1_555
Al6 Ti2 2.782875 1_555
Al6 Ti0 2.783671 1_555
Al6 Zr0 2.904910 1_555
Al6 Zr5 2.937583 1_555
Al6 Zr4 2.937584 1_555
Al7 Os4 2.559538 1_555
Al7 Os5 2.559545 1_455
Al7 Os6 2.559546 1_545
Al7 Al9 2.900978 1_455
Al7 Al8 2.900978 1_545
Al7 Zr4 2.927552 1_554
Al7 Zr5 2.927552 1_554
Al7 Zr3 2.927563 1_554
Al8 Os6 2.520852 1_555
Al8 Os1 2.548424 1_455
Al8 Os2 2.548424 1_555
Al8 Ti4 2.738707 1_565
Al8 Al9 2.954724 1_465
Al8 Zr0 2.967318 1_555
Al8 Zr1 2.967323 1_555
Al8 Zr5 2.998431 1_555
Al9 Os5 2.520852 1_555
Al9 Os1 2.548424 1_545
Al9 Os3 2.548424 1_555
Al9 Ti4 2.738707 1_655
Al9 Zr0 2.967318 1_555
Al9 Zr2 2.967323 1_555
Al9 Zr4 2.998431 1_555
Al10 Os4 2.520852 1_555
Al10 Os3 2.548424 1_455
Al10 Os2 2.548424 1_545
Al10 Ti4 2.738706 1_555
Al10 Al7 2.900974 1_555
Al10 Al9 2.954724 1_455
Al10 Al8 2.954724 1_545
Al10 Zr2 2.967314 1_555
Al10 Zr1 2.967314 1_555
Al10 Zr3 2.998428 1_555
Os0 Ti4 2.551103 1_555
Os0 Ti3 2.581769 1_445
Os0 Ti2 2.581777 1_545
Os0 Ti1 2.581777 1_455
Os0 Ti0 2.639267 1_446
Os1 Ti4 2.709378 1_665
Os1 Ti3 2.714525 1_555
Os1 Ti0 2.738917 1_555
Os1 Zr2 3.147146 1_565
Os1 Zr1 3.147146 1_655
Os1 Zr5 3.200866 1_655
Os1 Zr4 3.200867 1_565
Os2 Ti4 2.709378 1_565
Os2 Ti2 2.714525 1_555
Os2 Ti0 2.738938 1_555
Os2 Zr2 3.147140 1_565
Os2 Zr0 3.147147 1_555
Os2 Zr3 3.200865 1_565
Os2 Zr5 3.200872 1_555
Os3 Ti4 2.709378 1_655
Os3 Ti1 2.714525 1_555
Os3 Ti0 2.738938 1_555
Os3 Zr1 3.147140 1_655
Os3 Zr0 3.147147 1_555
Os3 Zr3 3.200865 1_655
Os3 Zr4 3.200872 1_555
Os4 Ti1 2.712641 1_554
Os4 Ti2 2.712641 1_554
Os4 Zr5 3.143114 1_554
Os4 Zr4 3.143114 1_554
Os4 Zr2 3.158146 1_555
Os4 Zr1 3.158146 1_555
Os5 Ti1 2.712626 1_554
Os5 Ti3 2.712641 1_554
Os5 Zr5 3.143107 1_654
Os5 Zr3 3.143112 1_654
Os5 Zr0 3.158147 1_555
Os5 Zr2 3.158152 1_555
Os6 Ti2 2.712626 1_554
Os6 Ti3 2.712641 1_554
Os6 Zr4 3.143107 1_564
Os6 Zr3 3.143112 1_564
Os6 Zr0 3.158147 1_555
Os6 Zr1 3.158152 1_555
