# generated using pymatgen
data_Ti8AlBi4P
_symmetry_space_group_name_H-M   'P 1'
_cell_length_a   7.84257951
_cell_length_b   7.84257969
_cell_length_c   7.84258017
_cell_angle_alpha   95.70184445
_cell_angle_beta   95.70184356
_cell_angle_gamma   143.25406989
_symmetry_Int_Tables_number   1
_chemical_formula_structural   Ti8AlBi4P
_chemical_formula_sum   'Ti8 Al1 Bi4 P1'
_cell_volume   273.87349090
_cell_formula_units_Z   1
loop_
 _symmetry_equiv_pos_site_id
 _symmetry_equiv_pos_as_xyz
  1  'x, y, z'
loop_
 _atom_site_type_symbol
 _atom_site_label
 _atom_site_symmetry_multiplicity
 _atom_site_fract_x
 _atom_site_fract_y
 _atom_site_fract_z
 _atom_site_occupancy
  Ti  Ti0  1  0.69434535  0.57655583  0.28223496  1
  Ti  Ti1  1  0.57655583  0.29432087  0.88221148  1
  Ti  Ti2  1  0.08788861  0.20567913  0.28223496  1
  Ti  Ti3  1  0.92344417  0.80565465  0.71776504  1
  Ti  Ti4  1  0.20567913  0.92344417  0.11778852  1
  Ti  Ti5  1  0.80565465  0.08788861  0.88221148  1
  Ti  Ti6  1  0.29432087  0.41211139  0.71776504  1
  Ti  Ti7  1  0.41211139  0.69434535  0.11778852  1
  Al  Al0  1  0.75000000  0.75000000  0.00000000  1
  Bi  Bi0  1  0.14116539  0.64116539  0.78233177  1
  Bi  Bi1  1  0.35883461  0.14116539  0.50000000  1
  Bi  Bi2  1  0.64116539  0.85883461  0.50000000  1
  Bi  Bi3  1  0.85883461  0.35883461  0.21766823  1
  P  P0  1  0.25000000  0.25000000  0.00000000  1
loop_
_geom_bond_atom_site_label_1
_geom_bond_atom_site_label_2
_geom_bond_distance
_geom_bond_site_symmetry_2
Al0 P0 2.471991 1_555
Al0 P0 2.471991 1_665
Al0 Ti7 2.603622 1_555
Al0 Ti5 2.603622 1_564
Al0 Ti4 2.603632 1_655
Al0 Ti1 2.603632 1_554
Al0 Ti3 2.603633 1_554
Al0 Ti0 2.603633 1_555
Al0 Ti6 2.603635 1_554
Al0 Ti2 2.603635 1_665
Bi0 Ti6 2.885151 1_555
Bi0 Ti3 2.885158 1_455
Bi0 Ti4 2.976815 1_556
Bi0 Ti7 2.976819 1_556
Bi0 Ti1 3.025321 1_565
Bi0 Ti5 3.025327 1_455
Bi0 Ti1 3.070765 1_455
Bi0 Ti5 3.070767 1_565
Bi1 Ti1 2.885165 1_555
Bi1 Ti4 2.885165 1_545
Bi1 Ti2 2.976833 1_555
Bi1 Ti6 2.976833 1_555
Bi1 Ti3 3.025321 1_445
Bi1 Ti0 3.025321 1_555
Bi1 Ti0 3.070765 1_445
Bi1 Ti3 3.070765 1_555
Bi2 Ti7 2.885163 1_555
Bi2 Ti5 2.885163 1_565
Bi2 Ti3 2.976827 1_555
Bi2 Ti0 2.976827 1_555
Bi2 Ti6 3.025321 1_665
Bi2 Ti2 3.025321 1_555
Bi2 Ti2 3.070761 1_665
Bi2 Ti6 3.070761 1_555
Bi3 Ti2 2.885151 1_655
Bi3 Ti0 2.885158 1_555
Bi3 Ti1 2.976815 1_554
Bi3 Ti5 2.976819 1_554
Bi3 Ti4 3.025321 1_545
Bi3 Ti7 3.025327 1_655
Bi3 Ti4 3.070765 1_655
Bi3 Ti7 3.070767 1_545
P0 Ti5 2.576889 1_454
P0 Ti7 2.576889 1_555
P0 Ti1 2.576891 1_554
P0 Ti4 2.576891 1_545
P0 Ti0 2.576896 1_555
P0 Ti3 2.576896 1_444
P0 Ti2 2.576899 1_555
P0 Ti6 2.576899 1_554
