# generated using pymatgen
data_Hg(Sb3Pd10)2
_symmetry_space_group_name_H-M   'P 1'
_cell_length_a   7.77292267
_cell_length_b   7.77292288
_cell_length_c   7.77292266
_cell_angle_alpha   99.34736778
_cell_angle_beta   99.34737302
_cell_angle_gamma   99.34737038
_symmetry_Int_Tables_number   1
_chemical_formula_structural   Hg(Sb3Pd10)2
_chemical_formula_sum   'Hg1 Sb6 Pd20'
_cell_volume   448.55899272
_cell_formula_units_Z   1
loop_
 _symmetry_equiv_pos_site_id
 _symmetry_equiv_pos_as_xyz
  1  'x, y, z'
loop_
 _atom_site_type_symbol
 _atom_site_label
 _atom_site_symmetry_multiplicity
 _atom_site_fract_x
 _atom_site_fract_y
 _atom_site_fract_z
 _atom_site_occupancy
  Hg  Hg0  1  0.00000000  0.00000000  0.00000000  1
  Sb  Sb0  1  0.45678741  0.87875815  0.72749599  1
  Sb  Sb1  1  0.87875815  0.72749599  0.45678741  1
  Sb  Sb2  1  0.72749599  0.45678741  0.87875815  1
  Sb  Sb3  1  0.54321259  0.12124185  0.27250401  1
  Sb  Sb4  1  0.12124185  0.27250401  0.54321259  1
  Sb  Sb5  1  0.27250401  0.54321259  0.12124185  1
  Pd  Pd0  1  0.37544901  0.37544901  0.37544901  1
  Pd  Pd1  1  0.62455099  0.62455099  0.62455099  1
  Pd  Pd2  1  0.99355118  0.34491605  0.22868199  1
  Pd  Pd3  1  0.34491605  0.22868199  0.99355118  1
  Pd  Pd4  1  0.22868199  0.99355018  0.34491605  1
  Pd  Pd5  1  0.00644882  0.65508395  0.77131801  1
  Pd  Pd6  1  0.65508395  0.77131801  0.00644982  1
  Pd  Pd7  1  0.77131801  0.00644982  0.65508395  1
  Pd  Pd8  1  0.68506135  0.14369112  0.98637423  1
  Pd  Pd9  1  0.14369112  0.98637423  0.68506135  1
  Pd  Pd10  1  0.98637423  0.68506135  0.14369112  1
  Pd  Pd11  1  0.31493865  0.85630888  0.01362577  1
  Pd  Pd12  1  0.85630888  0.01362577  0.31493865  1
  Pd  Pd13  1  0.01362577  0.31493865  0.85630888  1
  Pd  Pd14  1  0.20903264  0.66277376  0.47702580  1
  Pd  Pd15  1  0.66277376  0.47702580  0.20903264  1
  Pd  Pd16  1  0.47702580  0.20903264  0.66277376  1
  Pd  Pd17  1  0.79096736  0.33722624  0.52297420  1
  Pd  Pd18  1  0.33722624  0.52297420  0.79096736  1
  Pd  Pd19  1  0.52297420  0.79096736  0.33722624  1
loop_
_geom_bond_atom_site_label_1
_geom_bond_atom_site_label_2
_geom_bond_distance
_geom_bond_site_symmetry_2
Hg0 Pd11 2.844947 1_545
Hg0 Pd8 2.844947 1_454
Hg0 Pd13 2.844947 1_554
Hg0 Pd10 2.844947 1_445
Hg0 Pd12 2.844947 1_455
Hg0 Pd9 2.844947 1_544
Hg0 Pd3 2.979004 1_554
Hg0 Pd2 2.979004 1_455
Hg0 Pd5 2.979004 1_544
Hg0 Pd4 2.979006 1_545
Hg0 Pd7 2.979006 1_454
Hg0 Pd6 2.979006 1_445
Pd0 Sb5 2.628192 1_555
Pd0 Sb4 2.628193 1_555
Pd0 Sb3 2.628193 1_555
Pd0 Pd2 2.958494 1_455
Pd0 Pd3 2.958494 1_554
Pd0 Pd4 2.958501 1_545
Pd1 Sb2 2.628192 1_555
Pd1 Sb1 2.628193 1_555
Pd1 Sb0 2.628193 1_555
Pd1 Pd5 2.958494 1_655
Pd1 Pd6 2.958501 1_556
Pd1 Pd7 2.958501 1_565
Pd2 Sb4 2.668203 1_655
Pd2 Sb5 2.774044 1_655
Pd2 Pd8 2.846266 1_554
Pd3 Sb5 2.668203 1_556
Pd3 Sb3 2.774044 1_556
Pd3 Pd8 2.834288 1_555
Pd3 Pd9 2.846266 1_545
Pd4 Sb3 2.668205 1_565
Pd4 Sb4 2.774050 1_565
Pd4 Pd9 2.834287 1_555
Pd5 Sb1 2.668203 1_455
Pd5 Sb2 2.774044 1_455
Pd5 Pd9 2.849468 1_555
Pd6 Sb2 2.668205 1_554
Pd6 Sb0 2.774050 1_554
Pd6 Pd8 2.897551 1_564
Pd7 Sb0 2.668205 1_545
Pd7 Sb1 2.774050 1_545
Pd7 Pd8 2.849466 1_555
Pd7 Pd9 2.897551 1_645
Pd8 Sb3 2.655699 1_556
Pd8 Sb2 2.687274 1_555
Pd8 Sb0 2.783047 1_545
Pd9 Sb4 2.655699 1_565
Pd9 Sb0 2.687274 1_555
Pd9 Sb1 2.783047 1_455
Pd10 Sb5 2.655699 1_655
Pd10 Sb1 2.687274 1_555
Pd10 Sb2 2.783047 1_554
Pd10 Pd2 2.834288 1_555
Pd10 Pd4 2.846261 1_655
Pd10 Pd6 2.849466 1_555
Pd10 Pd5 2.897549 1_654
Pd11 Sb0 2.655699 1_554
Pd11 Sb5 2.687274 1_555
Pd11 Sb3 2.783047 1_565
Pd11 Pd6 2.834287 1_555
Pd11 Pd5 2.846266 1_554
Pd11 Pd4 2.849466 1_555
Pd11 Pd3 2.897549 1_564
Pd12 Sb1 2.655699 1_545
Pd12 Sb3 2.687274 1_555
Pd12 Sb4 2.783047 1_655
Pd12 Pd7 2.834287 1_555
Pd12 Pd6 2.846261 1_545
Pd12 Pd2 2.849468 1_555
Pd12 Pd4 2.897551 1_645
Pd13 Sb2 2.655699 1_455
Pd13 Sb4 2.687274 1_555
Pd13 Sb5 2.783047 1_556
Pd13 Pd5 2.834288 1_555
Pd13 Pd7 2.846261 1_455
Pd13 Pd3 2.849468 1_555
Pd13 Pd2 2.897549 1_456
Pd14 Sb0 2.643405 1_555
Pd14 Sb1 2.680000 1_455
Pd14 Pd4 2.910222 1_555
Pd14 Sb5 2.917574 1_555
Pd14 Pd2 2.948243 1_455
Pd14 Pd5 2.983252 1_555
Pd14 Sb4 3.143444 1_555
Pd15 Sb1 2.643405 1_555
Pd15 Sb2 2.680000 1_554
Pd15 Pd2 2.910229 1_555
Pd15 Sb3 2.917574 1_555
Pd15 Pd3 2.948243 1_554
Pd15 Pd6 2.983247 1_555
Pd15 Sb5 3.143444 1_555
Pd16 Sb2 2.643405 1_555
Pd16 Sb0 2.680000 1_545
Pd16 Pd3 2.910229 1_555
Pd16 Sb4 2.917574 1_555
Pd16 Pd4 2.948246 1_545
Pd16 Pd7 2.983247 1_555
Pd16 Sb3 3.143444 1_555
Pd17 Sb3 2.643405 1_555
Pd17 Sb4 2.680000 1_655
Pd17 Pd7 2.910222 1_555
Pd17 Sb2 2.917574 1_555
Pd17 Pd5 2.948243 1_655
Pd17 Pd2 2.983252 1_555
Pd17 Sb1 3.143444 1_555
Pd18 Sb4 2.643405 1_555
Pd18 Sb5 2.680000 1_556
Pd18 Pd5 2.910229 1_555
Pd18 Sb0 2.917574 1_555
Pd18 Pd6 2.948246 1_556
Pd18 Pd3 2.983252 1_555
Pd18 Sb2 3.143444 1_555
Pd19 Sb5 2.643405 1_555
Pd19 Sb3 2.680000 1_565
Pd19 Pd6 2.910222 1_555
Pd19 Sb1 2.917574 1_555
Pd19 Pd7 2.948246 1_565
Pd19 Pd4 2.983247 1_555
Pd19 Sb0 3.143444 1_555
