# generated using pymatgen
data_Hf2(ZrSn)3
_symmetry_space_group_name_H-M   'P 1'
_cell_length_a   8.47018080
_cell_length_b   8.47018157
_cell_length_c   5.75708844
_cell_angle_alpha   90.00000000
_cell_angle_beta   90.00000000
_cell_angle_gamma   119.99999312
_symmetry_Int_Tables_number   1
_chemical_formula_structural   Hf2(ZrSn)3
_chemical_formula_sum   'Hf4 Zr6 Sn6'
_cell_volume   357.70001901
_cell_formula_units_Z   2
loop_
 _symmetry_equiv_pos_site_id
 _symmetry_equiv_pos_as_xyz
  1  'x, y, z'
loop_
 _atom_site_type_symbol
 _atom_site_label
 _atom_site_symmetry_multiplicity
 _atom_site_fract_x
 _atom_site_fract_y
 _atom_site_fract_z
 _atom_site_occupancy
  Hf  Hf0  1  0.66666700  0.33333300  0.00000000  1
  Hf  Hf1  1  0.33333300  0.66666700  0.00000000  1
  Hf  Hf2  1  0.33333300  0.66666700  0.50000000  1
  Hf  Hf3  1  0.66666700  0.33333300  0.50000000  1
  Zr  Zr0  1  0.75245254  0.75245254  0.75000000  1
  Zr  Zr1  1  0.24754746  1.00000000  0.75000000  1
  Zr  Zr2  1  1.00000000  0.24754746  0.75000000  1
  Zr  Zr3  1  0.24754746  0.24754746  0.25000000  1
  Zr  Zr4  1  0.75245254  0.00000000  0.25000000  1
  Zr  Zr5  1  0.00000000  0.75245254  0.25000000  1
  Sn  Sn0  1  0.39312380  0.39312380  0.75000000  1
  Sn  Sn1  1  0.60687620  0.00000000  0.75000000  1
  Sn  Sn2  1  0.00000000  0.60687620  0.75000000  1
  Sn  Sn3  1  0.60687620  0.60687620  0.25000000  1
  Sn  Sn4  1  0.39312380  1.00000000  0.25000000  1
  Sn  Sn5  1  1.00000000  0.39312380  0.25000000  1
loop_
_geom_bond_atom_site_label_1
_geom_bond_atom_site_label_2
_geom_bond_distance
_geom_bond_site_symmetry_2
Hf0 Hf3 2.878544 1_554
Hf0 Hf3 2.878544 1_555
Hf0 Sn5 2.978195 1_555
Hf0 Sn1 2.978195 1_554
Hf0 Sn2 2.978198 1_654
Hf0 Sn4 2.978198 1_545
Hf0 Sn0 2.978202 1_554
Hf0 Sn3 2.978202 1_555
Hf1 Hf2 2.878544 1_554
Hf1 Hf2 2.878544 1_555
Hf1 Sn2 2.978195 1_554
Hf1 Sn4 2.978195 1_555
Hf1 Sn5 2.978198 1_455
Hf1 Sn1 2.978198 1_564
Hf1 Sn3 2.978202 1_555
Hf1 Sn0 2.978202 1_554
Hf2 Sn2 2.978195 1_555
Hf2 Sn4 2.978195 1_555
Hf2 Sn5 2.978198 1_455
Hf2 Sn1 2.978198 1_565
Hf2 Sn3 2.978202 1_555
Hf2 Sn0 2.978202 1_555
Hf3 Sn5 2.978195 1_555
Hf3 Sn1 2.978195 1_555
Hf3 Sn2 2.978198 1_655
Hf3 Sn4 2.978198 1_545
Hf3 Sn0 2.978202 1_555
Hf3 Sn3 2.978202 1_555
Sn0 Zr2 2.915875 1_455
Sn0 Zr1 2.915875 1_545
Sn0 Zr0 3.043580 1_555
Sn0 Zr3 3.131525 1_555
Sn0 Zr3 3.131525 1_556
Sn1 Zr0 2.915875 1_545
Sn1 Zr2 2.915875 1_555
Sn1 Zr1 3.043579 1_545
Sn1 Zr4 3.131525 1_556
Sn1 Zr4 3.131525 1_555
Sn2 Zr0 2.915875 1_455
Sn2 Zr1 2.915875 1_555
Sn2 Zr2 3.043580 1_455
Sn2 Zr5 3.131525 1_556
Sn2 Zr5 3.131525 1_555
Sn3 Zr5 2.915875 1_655
Sn3 Zr4 2.915875 1_565
Sn3 Zr3 3.043580 1_555
Sn3 Zr0 3.131525 1_555
Sn3 Zr0 3.131525 1_554
Sn4 Zr3 2.915875 1_565
Sn4 Zr5 2.915875 1_555
Sn4 Zr4 3.043579 1_565
Sn4 Zr1 3.131525 1_555
Sn4 Zr1 3.131525 1_554
Sn5 Zr3 2.915875 1_655
Sn5 Zr4 2.915875 1_555
Sn5 Zr5 3.043580 1_655
Sn5 Zr2 3.131525 1_554
Sn5 Zr2 3.131525 1_555
