# generated using pymatgen
data_Rb2Hf(WO4)3
_symmetry_space_group_name_H-M   'P 1'
_cell_length_a   7.40482152
_cell_length_b   7.44283450
_cell_length_c   7.34606046
_cell_angle_alpha   90.00000015
_cell_angle_beta   59.74868124
_cell_angle_gamma   120.16995837
_symmetry_Int_Tables_number   1
_chemical_formula_structural   Rb2Hf(WO4)3
_chemical_formula_sum   'Rb2 Hf1 W3 O12'
_cell_volume   284.44817054
_cell_formula_units_Z   1
loop_
 _symmetry_equiv_pos_site_id
 _symmetry_equiv_pos_as_xyz
  1  'x, y, z'
loop_
 _atom_site_type_symbol
 _atom_site_label
 _atom_site_symmetry_multiplicity
 _atom_site_fract_x
 _atom_site_fract_y
 _atom_site_fract_z
 _atom_site_occupancy
  Rb  Rb0  1  0.26988564  0.17604718  0.10714865  1
  Rb  Rb1  1  0.73011436  0.90616154  0.89285135  1
  Hf  Hf0  1  0.00000000  0.48578339  0.00000000  1
  W  W0  1  0.50475466  0.02569807  0.51416872  1
  W  W1  1  0.49524534  0.52094340  0.48583128  1
  W  W2  1  1.00000000  0.52816957  0.50000000  1
  O  O0  1  0.62350943  0.81031240  0.43782709  1
  O  O1  1  0.87156894  0.42201317  0.80038555  1
  O  O2  1  0.26275664  0.81254791  0.79974442  1
  O  O3  1  0.25239657  0.44320332  0.43603161  1
  O  O4  1  0.26552300  0.42503763  0.79958696  1
  O  O5  1  0.24641739  0.81057048  0.44408420  1
  O  O6  1  0.37649057  0.18680297  0.56217291  1
  O  O7  1  0.12843106  0.55044323  0.19961445  1
  O  O8  1  0.73447700  0.15951464  0.20041304  1
  O  O9  1  0.75358261  0.56415309  0.55591580  1
  O  O10  1  0.73724336  0.54979127  0.20025558  1
  O  O11  1  0.74760343  0.19080574  0.56396839  1
loop_
_geom_bond_atom_site_label_1
_geom_bond_atom_site_label_2
_geom_bond_distance
_geom_bond_site_symmetry_2
Hf0 O4 2.052937 1_554
Hf0 O8 2.052937 1_455
Hf0 O10 2.055331 1_455
Hf0 O2 2.055331 1_554
Hf0 O7 2.057034 1_555
Hf0 O1 2.057034 1_454
O0 W1 1.808711 1_555
O0 W0 2.139548 1_565
O0 Rb0 3.377683 1_665
O1 W2 1.878368 1_555
O1 Rb0 3.156790 1_556
O2 W0 1.866464 1_565
O3 W1 1.821910 1_555
O3 W2 2.101613 1_455
O3 Rb0 3.122675 1_555
O4 W1 1.882713 1_555
O4 Rb0 2.945136 1_556
O5 W2 1.818213 1_455
O5 W0 2.098050 1_565
O6 W0 1.808711 1_555
O6 W1 2.139548 1_555
O6 Rb1 3.377683 1_445
O7 W2 1.878370 1_455
O7 Rb1 3.156791 1_554
O8 W0 1.882713 1_555
O8 Rb1 2.945136 1_544
O9 W2 1.818213 1_555
O9 W1 2.098050 1_555
O10 W1 1.866464 1_555
O11 W0 1.821908 1_555
O11 W2 2.101619 1_555
O11 Rb1 3.122671 1_545
