# generated using pymatgen
data_Sr4Ta3CuH20
_symmetry_space_group_name_H-M   'P 1'
_cell_length_a   3.86112007
_cell_length_b   5.57579614
_cell_length_c   13.47042197
_cell_angle_alpha   93.08509566
_cell_angle_beta   90.88480646
_cell_angle_gamma   89.89437969
_symmetry_Int_Tables_number   1
_chemical_formula_structural   Sr4Ta3CuH20
_chemical_formula_sum   'Sr4 Ta3 Cu1 H20'
_cell_volume   289.54729087
_cell_formula_units_Z   1
loop_
 _symmetry_equiv_pos_site_id
 _symmetry_equiv_pos_as_xyz
  1  'x, y, z'
loop_
 _atom_site_type_symbol
 _atom_site_label
 _atom_site_symmetry_multiplicity
 _atom_site_fract_x
 _atom_site_fract_y
 _atom_site_fract_z
 _atom_site_occupancy
  Sr  Sr0  1  0.24414857  0.20799217  0.65351639  1
  Sr  Sr1  1  0.72533393  0.29196166  0.34993326  1
  Sr  Sr2  1  0.24577176  0.76898316  0.14655887  1
  Sr  Sr3  1  0.75593805  0.72998499  0.86025966  1
  Ta  Ta0  1  0.71774945  0.25923736  0.06213525  1
  Ta  Ta1  1  0.23886906  0.81781945  0.42034621  1
  Ta  Ta2  1  0.74752173  0.68058799  0.57379530  1
  Cu  Cu0  1  0.25756542  0.23438947  0.89188365  1
  H  H0  1  0.71460570  0.35512570  0.55013010  1
  H  H1  1  0.20792873  0.14182679  0.44677129  1
  H  H2  1  0.86793275  0.55212614  0.03061498  1
  H  H3  1  0.42099065  0.05963832  0.98986550  1
  H  H4  1  0.25625766  0.99163654  0.81804351  1
  H  H5  1  0.72468621  0.47437694  0.17523275  1
  H  H6  1  0.23134411  0.98888050  0.30479099  1
  H  H7  1  0.75405476  0.51811207  0.69106988  1
  H  H8  1  0.25715042  0.46049226  0.81993182  1
  H  H9  1  0.72333293  0.07058025  0.17341950  1
  H  H10  1  0.22876706  0.57613557  0.31601924  1
  H  H11  1  0.74978839  0.92116775  0.67717720  1
  H  H12  1  0.84210424  0.24301654  0.92678002  1
  H  H13  1  0.24750201  0.26660275  0.11674133  1
  H  H14  1  0.73157858  0.83600204  0.37039509  1
  H  H15  1  0.24593289  0.65566817  0.62082790  1
  H  H16  1  0.87296756  0.96019961  0.02958062  1
  H  H17  1  0.41876930  0.43863236  0.99026143  1
  H  H18  1  0.53570058  0.94205174  0.51997957  1
  H  H19  1  0.03570749  0.55677271  0.47393967  1
loop_
_geom_bond_atom_site_label_1
_geom_bond_atom_site_label_2
_geom_bond_distance
_geom_bond_site_symmetry_2
Cu0 H8 1.631022 1_555
Cu0 H4 1.635970 1_545
Cu0 H12 1.678431 1_455
Cu0 H3 1.788865 1_555
Cu0 H17 1.804202 1_555
H0 Ta2 1.829831 1_555
H0 Sr0 2.473615 1_555
H0 Sr0 2.611874 1_655
H0 Sr1 2.701722 1_555
H1 Ta1 1.826493 1_545
H1 Sr1 2.431291 1_455
H1 Sr1 2.568581 1_555
H1 Sr0 2.790904 1_555
H2 Ta0 1.808104 1_555
H2 Sr2 2.400522 1_655
H2 Sr3 2.578587 1_554
H3 Ta0 1.831078 1_556
H3 Sr3 2.795465 1_545
H3 Sr2 2.820580 1_546
H4 Sr3 2.493824 1_555
H4 Sr3 2.513418 1_455
H4 Sr0 2.579460 1_565
H5 Ta0 1.887540 1_555
H5 Sr2 2.510361 1_555
H5 Sr1 2.613415 1_555
H5 Sr2 2.645761 1_655
H6 Ta1 1.868642 1_555
H6 Sr2 2.402424 1_555
H6 Sr1 2.594040 1_565
H6 Sr1 2.637556 1_465
H7 Ta2 1.862700 1_555
H7 Sr3 2.509877 1_555
H7 Sr0 2.598095 1_655
H7 Sr0 2.647595 1_555
H8 Sr3 2.480428 1_555
H8 Sr3 2.496410 1_455
H8 Sr0 2.582034 1_555
H9 Ta0 1.876906 1_555
H9 Sr2 2.506835 1_545
H9 Sr1 2.619318 1_555
H9 Sr2 2.640545 1_645
H10 Ta1 1.893963 1_555
H10 Sr1 2.536739 1_555
H10 Sr1 2.571856 1_455
H10 Sr2 2.576889 1_555
H11 Ta2 1.880802 1_555
H11 Sr0 2.527376 1_665
H11 Sr0 2.548532 1_565
H11 Sr3 2.738634 1_555
H12 Ta0 1.890038 1_556
H12 Sr3 2.921552 1_555
H12 Sr3 2.968974 1_545
H13 Ta0 1.969052 1_555
H13 Ta0 2.162673 1_455
H13 Sr2 2.808352 1_555
H13 Sr2 2.824894 1_545
H14 Ta1 2.032185 1_555
H14 Ta1 2.065302 1_655
H14 Sr1 2.571970 1_565
H15 Ta2 2.023595 1_455
H15 Ta2 2.054225 1_555
H15 Sr0 2.557961 1_555
H16 Ta0 1.804812 1_565
H16 Sr2 2.407664 1_655
H16 Sr3 2.590216 1_554
H17 Ta0 1.826471 1_556
H17 Sr3 2.790149 1_555
H17 Sr2 2.809479 1_556
H18 Ta2 1.846848 1_555
H18 Ta1 1.857410 1_555
H18 Sr0 2.543811 1_565
H19 Ta1 1.841174 1_555
H19 Ta2 1.862117 1_455
H19 Sr1 2.466942 1_455
