# generated using pymatgen
data_BaPtCl6
_symmetry_space_group_name_H-M   'P 1'
_cell_length_a   6.54978210
_cell_length_b   6.54978260
_cell_length_c   11.34980837
_cell_angle_alpha   82.77069634
_cell_angle_beta   82.77069707
_cell_angle_gamma   59.84287090
_symmetry_Int_Tables_number   1
_chemical_formula_structural   BaPtCl6
_chemical_formula_sum   'Ba2 Pt2 Cl12'
_cell_volume   416.53973193
_cell_formula_units_Z   2
loop_
 _symmetry_equiv_pos_site_id
 _symmetry_equiv_pos_as_xyz
  1  'x, y, z'
loop_
 _atom_site_type_symbol
 _atom_site_label
 _atom_site_symmetry_multiplicity
 _atom_site_fract_x
 _atom_site_fract_y
 _atom_site_fract_z
 _atom_site_occupancy
  Ba  Ba0  1  0.96632649  0.03367351  0.75000000  1
  Ba  Ba1  1  0.03367351  0.96632649  0.25000000  1
  Pt  Pt0  1  0.50000000  0.00000000  0.50000000  1
  Pt  Pt1  1  0.00000000  0.50000000  0.00000000  1
  Cl  Cl0  1  0.45416294  0.69504280  0.60632486  1
  Cl  Cl1  1  0.54583706  0.30495720  0.39367514  1
  Cl  Cl2  1  0.30495720  0.54583706  0.89367514  1
  Cl  Cl3  1  0.69504280  0.45416294  0.10632486  1
  Cl  Cl4  1  0.43163925  0.17354912  0.67872743  1
  Cl  Cl5  1  0.56836075  0.82645088  0.32127257  1
  Cl  Cl6  1  0.82645088  0.56836075  0.82127257  1
  Cl  Cl7  1  0.17354912  0.43163925  0.17872743  1
  Cl  Cl8  1  0.79177678  0.90621219  0.02244284  1
  Cl  Cl9  1  0.20822322  0.09378781  0.97755716  1
  Cl  Cl10  1  0.09378781  0.20822322  0.47755716  1
  Cl  Cl11  1  0.90621219  0.79177678  0.52244284  1
loop_
_geom_bond_atom_site_label_1
_geom_bond_atom_site_label_2
_geom_bond_distance
_geom_bond_site_symmetry_2
Ba0 Cl0 3.204112 1_645
Ba0 Cl2 3.204112 1_645
Ba0 Cl8 3.314375 1_546
Ba0 Cl10 3.314375 1_655
Ba0 Cl4 3.325824 1_555
Ba0 Cl6 3.325824 1_555
Ba0 Cl9 3.353857 1_655
Ba0 Cl11 3.353857 1_545
Ba0 Cl4 3.574992 1_655
Ba0 Cl6 3.574992 1_545
Ba1 Cl1 3.204112 1_465
Ba1 Cl3 3.204112 1_465
Ba1 Cl9 3.314375 1_564
Ba1 Cl11 3.314375 1_455
Ba1 Cl5 3.325824 1_555
Ba1 Cl7 3.325824 1_555
Ba1 Cl8 3.353857 1_455
Ba1 Cl10 3.353857 1_565
Ba1 Cl5 3.574992 1_455
Ba1 Cl7 3.574992 1_565
Cl0 Pt0 2.332534 1_565
Cl1 Pt0 2.332534 1_555
Cl2 Pt1 2.332534 1_556
Cl3 Pt1 2.332534 1_655
Cl4 Pt0 2.334064 1_555
Cl5 Pt0 2.334064 1_565
Cl6 Pt1 2.334064 1_656
Cl7 Pt1 2.334064 1_555
Cl8 Pt1 2.332599 1_655
Cl9 Pt1 2.332599 1_556
Cl10 Pt0 2.332599 1_555
Cl11 Pt0 2.332599 1_565
