# generated using pymatgen
data_Ca6NbReO12
_symmetry_space_group_name_H-M   'P 1'
_cell_length_a   5.86922403
_cell_length_b   5.57073943
_cell_length_c   9.76295642
_cell_angle_alpha   55.39432114
_cell_angle_beta   89.79029876
_cell_angle_gamma   89.98349887
_symmetry_Int_Tables_number   1
_chemical_formula_structural   Ca6NbReO12
_chemical_formula_sum   'Ca6 Nb1 Re1 O12'
_cell_volume   262.73204087
_cell_formula_units_Z   1
loop_
 _symmetry_equiv_pos_site_id
 _symmetry_equiv_pos_as_xyz
  1  'x, y, z'
loop_
 _atom_site_type_symbol
 _atom_site_label
 _atom_site_symmetry_multiplicity
 _atom_site_fract_x
 _atom_site_fract_y
 _atom_site_fract_z
 _atom_site_occupancy
  Ca  Ca0  1  0.56286994  0.23514584  0.24351969  1
  Ca  Ca1  1  0.05723439  0.78077955  0.23038907  1
  Ca  Ca2  1  0.50000000  0.00000000  0.00000000  1
  Ca  Ca3  1  0.00000000  0.00000000  0.50000000  1
  Ca  Ca4  1  0.94276561  0.21922045  0.76961093  1
  Ca  Ca5  1  0.43713006  0.76485416  0.75648031  1
  Nb  Nb0  1  0.00000000  0.50000000  0.00000000  1
  Re  Re0  1  0.50000000  0.50000000  0.50000000  1
  O  O0  1  0.55158170  0.39811613  0.71826475  1
  O  O1  1  0.06022118  0.61527114  0.76566338  1
  O  O2  1  0.44841830  0.60188387  0.28173525  1
  O  O3  1  0.93977882  0.38472886  0.23433662  1
  O  O4  1  0.76958437  0.73145725  0.42836984  1
  O  O5  1  0.28380544  0.25069832  0.07412925  1
  O  O6  1  0.23041563  0.26854275  0.57163016  1
  O  O7  1  0.71619456  0.74930168  0.92587075  1
  O  O8  1  0.18158647  0.84527137  0.94826223  1
  O  O9  1  0.66965539  0.17100274  0.55154582  1
  O  O10  1  0.81841353  0.15472863  0.05173777  1
  O  O11  1  0.33034461  0.82899726  0.44845418  1
loop_
_geom_bond_atom_site_label_1
_geom_bond_atom_site_label_2
_geom_bond_distance
_geom_bond_site_symmetry_2
Ca0 O5 2.298280 1_555
Ca0 O3 2.347514 1_555
Ca0 O2 2.372227 1_555
Ca0 O11 2.413442 1_545
Ca0 O4 2.619999 1_545
Ca0 O10 2.624450 1_555
Ca0 O9 2.890873 1_555
Ca0 O7 2.919392 1_554
Ca1 O10 2.288161 1_465
Ca1 O3 2.290973 1_455
Ca1 O2 2.440389 1_555
Ca1 O4 2.456615 1_455
Ca1 O5 2.529735 1_565
Ca1 O8 2.666434 1_554
Ca1 O11 2.801576 1_555
Ca2 O10 2.234510 1_555
Ca2 O8 2.234510 1_544
Ca2 O5 2.285734 1_555
Ca2 O7 2.285734 1_544
Ca2 O2 2.375139 1_545
Ca2 O0 2.375139 1_554
Ca3 O1 2.266655 1_545
Ca3 O3 2.266655 1_455
Ca3 O9 2.335858 1_455
Ca3 O11 2.335858 1_545
Ca3 O6 2.398391 1_555
Ca3 O4 2.398391 1_445
Ca4 O8 2.288161 1_645
Ca4 O1 2.290973 1_655
Ca4 O0 2.440389 1_555
Ca4 O6 2.456615 1_655
Ca4 O7 2.529735 1_545
Ca4 O10 2.666434 1_556
Ca4 O9 2.801576 1_555
Ca5 O7 2.298280 1_555
Ca5 O1 2.347514 1_555
Ca5 O0 2.372227 1_555
Ca5 O9 2.413442 1_565
Ca5 O6 2.619999 1_565
Ca5 O8 2.624450 1_555
Ca5 O11 2.890873 1_555
Ca5 O5 2.919392 1_556
Nb0 O8 1.996059 1_554
Nb0 O10 1.996059 1_455
Nb0 O5 2.023113 1_555
Nb0 O7 2.023113 1_454
Nb0 O3 2.024083 1_455
Nb0 O1 2.024083 1_554
O0 Re0 1.893527 1_555
O2 Re0 1.893527 1_555
O4 Re0 1.903674 1_555
O6 Re0 1.903674 1_555
O9 Re0 1.886469 1_555
O11 Re0 1.886469 1_555
