# generated using pymatgen
data_LiErS2
_symmetry_space_group_name_H-M   'P 1'
_cell_length_a   7.58659712
_cell_length_b   10.12200989
_cell_length_c   6.70015262
_cell_angle_alpha   29.05893812
_cell_angle_beta   55.51934789
_cell_angle_gamma   41.45382201
_symmetry_Int_Tables_number   1
_chemical_formula_structural   LiErS2
_chemical_formula_sum   'Li2 Er2 S4'
_cell_volume   158.97509213
_cell_formula_units_Z   2
loop_
 _symmetry_equiv_pos_site_id
 _symmetry_equiv_pos_as_xyz
  1  'x, y, z'
loop_
 _atom_site_type_symbol
 _atom_site_label
 _atom_site_symmetry_multiplicity
 _atom_site_fract_x
 _atom_site_fract_y
 _atom_site_fract_z
 _atom_site_occupancy
  Li  Li0  1  0.99992700  0.00016948  0.99973205  1
  Li  Li1  1  0.75009474  0.49977164  0.00031830  1
  Er  Er0  1  0.25006484  0.49989442  0.00010055  1
  Er  Er1  1  0.49992690  0.00012937  0.99988110  1
  S  S0  1  0.25614449  0.00000624  0.48768631  1
  S  S1  1  0.74383447  0.00008576  0.51223922  1
  S  S2  1  0.49385196  0.50000678  0.51230341  1
  S  S3  1  0.00615662  0.49993730  0.48773905  1
loop_
_geom_bond_atom_site_label_1
_geom_bond_atom_site_label_2
_geom_bond_distance
_geom_bond_site_symmetry_2
Li0 S3 2.682726 1_655
Li0 S2 2.682756 1_555
Li0 S3 2.683967 1_646
Li0 S2 2.684132 1_646
Li0 S0 2.828957 1_655
Li0 S1 2.830142 1_556
Li1 S1 2.682426 1_555
Li1 S0 2.682649 1_655
Li1 S0 2.684235 1_564
Li1 S1 2.684270 1_564
Li1 S2 2.829020 1_555
Li1 S3 2.830087 1_654
Er0 S1 2.683076 1_555
Er0 S0 2.683144 1_555
Er0 S0 2.683570 1_564
Er0 S1 2.683789 1_464
Er0 S3 2.693490 1_555
Er0 S2 2.693509 1_554
Er1 S3 2.683091 1_555
Er1 S2 2.683104 1_555
Er1 S2 2.683609 1_546
Er1 S3 2.683775 1_646
Er1 S0 2.693494 1_556
Er1 S1 2.693513 1_555
