# generated using pymatgen
data_Zn22FePd3
_symmetry_space_group_name_H-M   'P 1'
_cell_length_a   7.81019835
_cell_length_b   7.76459070
_cell_length_c   7.81020757
_cell_angle_alpha   109.35323069
_cell_angle_beta   109.58911922
_cell_angle_gamma   109.35282453
_symmetry_Int_Tables_number   1
_chemical_formula_structural   Zn22FePd3
_chemical_formula_sum   'Zn22 Fe1 Pd3'
_cell_volume   365.13453908
_cell_formula_units_Z   1
loop_
 _symmetry_equiv_pos_site_id
 _symmetry_equiv_pos_as_xyz
  1  'x, y, z'
loop_
 _atom_site_type_symbol
 _atom_site_label
 _atom_site_symmetry_multiplicity
 _atom_site_fract_x
 _atom_site_fract_y
 _atom_site_fract_z
 _atom_site_occupancy
  Zn  Zn0  1  0.00000000  0.78832420  1.00000000  1
  Zn  Zn1  1  0.78441437  0.00646580  1.00000000  1
  Zn  Zn2  1  0.00000000  0.00646580  0.78441437  1
  Zn  Zn3  1  0.21558563  0.22205143  0.21558663  1
  Zn  Zn4  1  0.34801788  0.62467379  0.34801788  1
  Zn  Zn5  1  0.27018983  0.99207409  0.64586330  1
  Zn  Zn6  1  0.64586330  0.99207509  0.27018983  1
  Zn  Zn7  1  0.25878470  0.64260498  0.00000000  1
  Zn  Zn8  1  0.72981017  0.72188426  0.37567347  1
  Zn  Zn9  1  0.37567347  0.72188426  0.72981017  1
  Zn  Zn10  1  1.00000000  0.64260498  0.25878470  1
  Zn  Zn11  1  1.00000000  0.27665491  0.65198112  1
  Zn  Zn12  1  0.65198212  0.27665591  0.00000000  1
  Zn  Zn13  1  0.35413670  0.34621179  0.62432653  1
  Zn  Zn14  1  0.62432653  0.34621179  0.35413770  1
  Zn  Zn15  1  0.74121530  0.38382028  0.74121530  1
  Zn  Zn16  1  0.35536907  0.35859056  1.00000000  1
  Zn  Zn17  1  1.00000000  0.64560543  0.64241838  1
  Zn  Zn18  1  0.00000000  0.35859056  0.35536907  1
  Zn  Zn19  1  0.35758162  0.00318705  0.35758162  1
  Zn  Zn20  1  0.64463093  0.00322149  0.64463093  1
  Zn  Zn21  1  0.64241838  0.64560543  1.00000000  1
  Fe  Fe0  1  1.00000000  0.34177847  0.00000100  1
  Pd  Pd0  1  0.34727928  0.00001199  0.00000000  1
  Pd  Pd1  1  0.00000000  0.00001099  0.34727928  1
  Pd  Pd2  1  0.65272072  0.65273270  0.65272072  1
loop_
_geom_bond_atom_site_label_1
_geom_bond_atom_site_label_2
_geom_bond_distance
_geom_bond_site_symmetry_2
Zn0 Zn7 2.623150 1_556
Zn0 Zn15 2.623150 1_455
Zn0 Zn10 2.623158 1_456
Zn0 Zn17 2.641299 1_455
Zn0 Zn19 2.641304 1_566
Zn0 Zn21 2.641304 1_455
Zn0 Zn1 2.755745 1_465
Zn0 Zn3 2.755746 1_566
Zn0 Zn2 2.755754 1_565
Zn1 Zn18 2.607588 1_656
Zn1 Zn20 2.607596 1_555
Zn1 Zn12 2.628541 1_556
Zn1 Zn21 2.649767 1_545
Zn1 Zn6 2.691449 1_546
Zn1 Zn9 2.691452 1_545
Zn1 Zn2 2.751580 1_655
Zn1 Zn3 2.751583 1_656
Zn2 Zn20 2.607593 1_455
Zn2 Zn5 2.691448 1_545
Zn2 Zn8 2.691448 1_445
Zn2 Zn3 2.751586 1_556
Zn3 Zn4 2.628542 1_555
Zn4 Zn7 2.634013 1_555
Zn4 Zn9 2.734282 1_555
Zn4 Zn8 2.734283 1_555
Zn5 Zn9 2.684174 1_555
Zn6 Zn8 2.684182 1_555
Zn6 Zn7 2.728694 1_555
Zn7 Zn9 2.728693 1_554
Zn10 Zn18 2.556314 1_655
Zn10 Zn4 2.634009 1_655
Zn10 Zn12 2.634009 1_555
Zn10 Zn8 2.728686 1_555
Zn10 Zn5 2.728686 1_655
Zn10 Zn21 2.859126 1_554
Zn10 Zn19 2.859127 1_665
Zn10 Zn17 2.988619 1_555
Zn11 Zn18 2.597731 1_655
Zn11 Zn2 2.628545 1_655
Zn11 Zn15 2.634012 1_555
Zn11 Zn7 2.634012 1_656
Zn11 Zn13 2.734277 1_655
Zn11 Zn6 2.734277 1_545
Zn11 Zn16 2.849766 1_655
Zn11 Zn20 2.849766 1_555
Zn11 Zn17 2.890360 1_555
Zn12 Zn16 2.597728 1_554
Zn12 Zn15 2.634013 1_554
Zn12 Zn5 2.734284 1_544
Zn12 Zn14 2.734289 1_555
Zn12 Zn20 2.849754 1_554
Zn12 Zn18 2.849764 1_655
Zn12 Zn21 2.890354 1_554
Zn13 Zn21 2.581267 1_555
Zn13 Zn9 2.684161 1_555
Zn13 Zn5 2.684182 1_545
Zn13 Zn3 2.691442 1_555
Zn13 Zn15 2.728693 1_555
Zn13 Zn19 2.800420 1_555
Zn13 Zn16 2.900300 1_555
Zn13 Zn18 2.913076 1_555
Zn14 Zn17 2.581268 1_555
Zn14 Zn6 2.684168 1_545
Zn14 Zn8 2.684169 1_555
Zn14 Zn3 2.691451 1_555
Zn14 Zn15 2.728688 1_555
Zn14 Zn19 2.800428 1_555
Zn14 Zn18 2.900300 1_655
Zn14 Zn16 2.913083 1_554
Zn15 Zn20 2.556309 1_555
Zn15 Zn21 2.859116 1_555
Zn15 Zn17 2.859128 1_555
Zn15 Zn19 2.988616 1_555
Zn16 Zn7 2.556309 1_556
Zn16 Zn21 2.584817 1_555
Zn16 Zn2 2.607593 1_555
Zn16 Zn3 2.607603 1_556
Zn16 Zn4 2.849754 1_556
Zn16 Zn8 2.900295 1_556
Zn16 Zn5 2.913069 1_545
Zn17 Zn9 2.581271 1_655
Zn17 Zn18 2.584806 1_655
Zn17 Zn2 2.649759 1_665
Zn17 Zn8 2.800427 1_555
Zn17 Zn5 2.800427 1_655
Zn17 Zn7 2.859128 1_656
Zn18 Zn3 2.607584 1_555
Zn18 Zn4 2.849765 1_555
Zn18 Zn9 2.900295 1_555
Zn18 Zn6 2.913076 1_445
Zn19 Zn6 2.581267 1_545
Zn19 Zn5 2.581271 1_545
Zn19 Zn20 2.584817 1_555
Zn19 Zn3 2.649763 1_555
Zn19 Zn7 2.859116 1_545
Zn19 Zn4 2.890354 1_545
Zn20 Zn4 2.597729 1_545
Zn20 Zn5 2.900295 1_545
Zn20 Zn6 2.900300 1_545
Zn20 Zn8 2.913069 1_545
Zn20 Zn9 2.913082 1_545
Zn21 Zn8 2.581271 1_556
Zn21 Zn6 2.800420 1_556
Zn21 Zn9 2.800427 1_555
Zn21 Zn7 2.988616 1_556
Fe0 Zn10 2.532194 1_555
Fe0 Zn15 2.532213 1_554
Fe0 Zn7 2.532214 1_655
Fe0 Zn2 2.590007 1_654
Fe0 Zn1 2.590011 1_554
Fe0 Zn3 2.590015 1_655
Fe0 Zn12 2.594756 1_555
Fe0 Zn4 2.594756 1_655
Fe0 Zn11 2.594773 1_554
Fe0 Zn18 2.735013 1_655
Fe0 Zn16 2.735022 1_654
Fe0 Zn20 2.735022 1_554
Pd0 Zn5 2.600417 1_544
Pd0 Zn14 2.600417 1_555
Pd0 Zn9 2.603216 1_544
Pd0 Zn6 2.603223 1_545
Pd0 Zn12 2.624775 1_555
Pd0 Zn7 2.628262 1_545
Pd0 Zn0 2.665258 1_544
Pd0 Zn3 2.697762 1_555
Pd0 Zn2 2.697767 1_554
Pd0 Zn17 2.758458 1_444
Pd0 Zn19 2.758461 1_555
Pd0 Zn16 2.763921 1_554
Pd1 Zn6 2.600420 1_445
Pd1 Zn13 2.600420 1_555
Pd1 Zn5 2.603223 1_545
Pd1 Zn8 2.603223 1_445
Pd1 Zn11 2.624758 1_455
Pd1 Zn10 2.628250 1_445
Pd1 Zn0 2.665247 1_544
Pd1 Zn3 2.697767 1_555
Pd1 Zn1 2.697773 1_454
Pd1 Zn19 2.758456 1_555
Pd1 Zn21 2.758456 1_444
Pd1 Zn18 2.763928 1_555
Pd2 Zn9 2.600411 1_555
Pd2 Zn8 2.600417 1_555
Pd2 Zn14 2.603207 1_555
Pd2 Zn13 2.603223 1_555
Pd2 Zn4 2.624774 1_555
Pd2 Zn15 2.628262 1_555
Pd2 Zn0 2.665258 1_655
Pd2 Zn1 2.697758 1_565
Pd2 Zn2 2.697767 1_665
Pd2 Zn17 2.758458 1_555
Pd2 Zn21 2.758461 1_555
Pd2 Zn20 2.763921 1_565
