# generated using pymatgen
data_Na8TiSb4
_symmetry_space_group_name_H-M   'P 1'
_cell_length_a   10.31107486
_cell_length_b   10.31107478
_cell_length_c   10.31107533
_cell_angle_alpha   60.00000134
_cell_angle_beta   60.00000163
_cell_angle_gamma   60.00000080
_symmetry_Int_Tables_number   1
_chemical_formula_structural   Na8TiSb4
_chemical_formula_sum   'Na16 Ti2 Sb8'
_cell_volume   775.16981114
_cell_formula_units_Z   2
loop_
 _symmetry_equiv_pos_site_id
 _symmetry_equiv_pos_as_xyz
  1  'x, y, z'
loop_
 _atom_site_type_symbol
 _atom_site_label
 _atom_site_symmetry_multiplicity
 _atom_site_fract_x
 _atom_site_fract_y
 _atom_site_fract_z
 _atom_site_occupancy
  Na  Na0  1  0.62500000  0.62500000  0.12500000  1
  Na  Na1  1  0.62500000  0.12500000  0.62500000  1
  Na  Na2  1  0.12500000  0.62500000  0.62500000  1
  Na  Na3  1  0.62500000  0.62500000  0.62500000  1
  Na  Na4  1  0.02614064  0.47385936  0.47385936  1
  Na  Na5  1  0.77614064  0.22385936  0.22385936  1
  Na  Na6  1  0.47385936  0.02614064  0.47385936  1
  Na  Na7  1  0.47385936  0.47385936  0.02614064  1
  Na  Na8  1  0.02614064  0.02614064  0.47385936  1
  Na  Na9  1  0.02614064  0.47385936  0.02614064  1
  Na  Na10  1  0.47385936  0.02614064  0.02614064  1
  Na  Na11  1  0.77614064  0.22385936  0.77614064  1
  Na  Na12  1  0.22385936  0.77614064  0.22385936  1
  Na  Na13  1  0.22385936  0.22385936  0.77614064  1
  Na  Na14  1  0.77614064  0.77614064  0.22385936  1
  Na  Na15  1  0.22385936  0.77614064  0.77614064  1
  Ti  Ti0  1  0.75000000  0.75000000  0.75000000  1
  Ti  Ti1  1  0.50000000  0.50000000  0.50000000  1
  Sb  Sb0  1  0.85690720  0.85690720  0.42927941  1
  Sb  Sb1  1  0.85690720  0.42927941  0.85690720  1
  Sb  Sb2  1  0.39309280  0.39309280  0.82072059  1
  Sb  Sb3  1  0.39309280  0.82072059  0.39309280  1
  Sb  Sb4  1  0.82072059  0.39309280  0.39309280  1
  Sb  Sb5  1  0.85690720  0.85690720  0.85690720  1
  Sb  Sb6  1  0.42927941  0.85690720  0.85690720  1
  Sb  Sb7  1  0.39309280  0.39309280  0.39309280  1
loop_
_geom_bond_atom_site_label_1
_geom_bond_atom_site_label_2
_geom_bond_distance
_geom_bond_site_symmetry_2
Na0 Ti1 3.157109 1_555
Na0 Ti0 3.157109 1_554
Na0 Sb4 3.402200 1_555
Na0 Sb6 3.402200 1_554
Na0 Sb3 3.402200 1_555
Na0 Sb1 3.402200 1_554
Na0 Sb5 3.402206 1_554
Na0 Sb7 3.402206 1_555
Na1 Ti0 3.157109 1_545
Na1 Ti1 3.157109 1_555
Na1 Sb4 3.402200 1_555
Na1 Sb6 3.402200 1_545
Na1 Sb2 3.402200 1_555
Na1 Sb0 3.402200 1_545
Na1 Sb5 3.402206 1_545
Na1 Sb7 3.402206 1_555
Na2 Ti0 3.157109 1_455
Na2 Ti1 3.157109 1_555
Na2 Sb3 3.402200 1_555
Na2 Sb1 3.402200 1_455
Na2 Sb2 3.402200 1_555
Na2 Sb0 3.402200 1_455
Na2 Sb5 3.402206 1_455
Na2 Sb7 3.402206 1_555
Na3 Ti0 3.157109 1_555
Na3 Ti1 3.157109 1_555
Na3 Sb0 3.402207 1_555
Na3 Sb2 3.402207 1_555
Na3 Sb6 3.402207 1_555
Na3 Sb4 3.402207 1_555
Na3 Sb1 3.402207 1_555
Na3 Sb3 3.402207 1_555
Na4 Sb7 3.177228 1_555
Na4 Sb4 3.177238 1_455
Na4 Sb0 3.309142 1_455
Na4 Sb1 3.309143 1_455
Na5 Sb0 3.177230 1_545
Na5 Sb1 3.177230 1_554
Na5 Sb4 3.309134 1_555
Na5 Sb7 3.309140 1_555
Na6 Sb7 3.177228 1_555
Na6 Sb3 3.177238 1_545
Na6 Sb0 3.309142 1_545
Na6 Sb6 3.309143 1_545
Na7 Sb7 3.177228 1_555
Na7 Sb2 3.177238 1_554
Na7 Sb6 3.309142 1_554
Na7 Sb1 3.309142 1_554
Na8 Sb4 3.177230 1_455
Na8 Sb3 3.177230 1_545
Na8 Sb0 3.309133 1_445
Na8 Sb5 3.309141 1_445
Na9 Sb2 3.177230 1_554
Na9 Sb4 3.177230 1_455
Na9 Sb1 3.309134 1_454
Na9 Sb5 3.309140 1_454
Na10 Sb2 3.177230 1_554
Na10 Sb3 3.177230 1_545
Na10 Sb6 3.309134 1_544
Na10 Sb5 3.309140 1_544
Na11 Sb5 3.177228 1_545
Na11 Sb1 3.177238 1_555
Na11 Sb2 3.309142 1_555
Na11 Sb4 3.309143 1_555
Na12 Sb0 3.177230 1_455
Na12 Sb6 3.177230 1_554
Na12 Sb3 3.309134 1_555
Na12 Sb7 3.309140 1_555
Na13 Sb6 3.177230 1_545
Na13 Sb1 3.177230 1_455
Na13 Sb2 3.309133 1_555
Na13 Sb7 3.309141 1_555
Na14 Sb5 3.177228 1_554
Na14 Sb0 3.177238 1_555
Na14 Sb4 3.309142 1_555
Na14 Sb3 3.309142 1_555
Na15 Sb5 3.177228 1_455
Na15 Sb6 3.177238 1_555
Na15 Sb2 3.309142 1_555
Na15 Sb3 3.309143 1_555
Sb0 Ti0 2.700133 1_555
Sb1 Ti0 2.700133 1_555
Sb2 Ti1 2.700133 1_555
Sb3 Ti1 2.700133 1_555
Sb4 Ti1 2.700133 1_555
Sb5 Ti0 2.700141 1_555
Sb6 Ti0 2.700133 1_555
Sb7 Ti1 2.700141 1_555
