# generated using pymatgen
data_Ti4BeBi2
_symmetry_space_group_name_H-M   'P 1'
_cell_length_a   7.85574542
_cell_length_b   7.85574576
_cell_length_c   7.85574512
_cell_angle_alpha   95.49901954
_cell_angle_beta   95.49901774
_cell_angle_gamma   143.93430414
_symmetry_Int_Tables_number   1
_chemical_formula_structural   Ti4BeBi2
_chemical_formula_sum   'Ti8 Be2 Bi4'
_cell_volume   271.38811528
_cell_formula_units_Z   2
loop_
 _symmetry_equiv_pos_site_id
 _symmetry_equiv_pos_as_xyz
  1  'x, y, z'
loop_
 _atom_site_type_symbol
 _atom_site_label
 _atom_site_symmetry_multiplicity
 _atom_site_fract_x
 _atom_site_fract_y
 _atom_site_fract_z
 _atom_site_occupancy
  Ti  Ti0  1  0.80509501  0.92308614  0.72818015  1
  Ti  Ti1  1  0.92308614  0.19490499  0.11799113  1
  Ti  Ti2  1  0.57691386  0.69490499  0.27181985  1
  Ti  Ti3  1  0.69490499  0.42308614  0.11799113  1
  Ti  Ti4  1  0.07691386  0.80509501  0.88200887  1
  Ti  Ti5  1  0.19490499  0.07691386  0.27181985  1
  Ti  Ti6  1  0.30509501  0.57691386  0.88200887  1
  Ti  Ti7  1  0.42308614  0.30509501  0.72818015  1
  Be  Be0  1  0.25000000  0.25000000  0.00000000  1
  Be  Be1  1  0.75000000  0.75000000  0.00000000  1
  Bi  Bi0  1  0.85751364  0.64248636  0.50000000  1
  Bi  Bi1  1  0.14248636  0.35751364  0.50000000  1
  Bi  Bi2  1  0.35751364  0.85751364  0.21502628  1
  Bi  Bi3  1  0.64248636  0.14248636  0.78497372  1
loop_
_geom_bond_atom_site_label_1
_geom_bond_atom_site_label_2
_geom_bond_distance
_geom_bond_site_symmetry_2
Ti0 Ti6 2.924824 1_665
Ti0 Ti6 2.924828 1_555
Ti0 Ti7 3.003525 1_665
Ti0 Ti7 3.003525 1_555
Ti0 Ti4 3.130356 1_655
Ti0 Ti1 3.130360 1_566
Ti0 Ti2 3.408950 1_555
Ti1 Ti2 2.924824 1_655
Ti1 Ti2 2.924828 1_545
Ti1 Ti6 3.003525 1_654
Ti1 Ti6 3.003525 1_544
Ti1 Ti5 3.130356 1_655
Ti1 Ti3 3.408965 1_555
Ti2 Ti5 3.003525 1_665
Ti2 Ti5 3.003525 1_555
Ti2 Ti3 3.130356 1_555
Ti2 Ti6 3.130360 1_554
Ti3 Ti5 2.924824 1_665
Ti3 Ti5 2.924828 1_555
Ti3 Ti4 3.003525 1_654
Ti3 Ti4 3.003525 1_544
Ti3 Ti7 3.130360 1_554
Ti4 Ti7 2.924824 1_455
Ti4 Ti7 2.924828 1_565
Ti4 Ti5 3.130360 1_566
Ti4 Ti6 3.408965 1_555
Ti5 Ti7 3.408950 1_555
Ti6 Ti7 3.130356 1_555
Be0 Be1 2.431842 1_555
Be0 Be1 2.431842 1_445
Be0 Ti1 2.525474 1_455
Be0 Ti6 2.525474 1_554
Be0 Ti3 2.525474 1_555
Be0 Ti4 2.525474 1_544
Be0 Ti0 2.525479 1_444
Be0 Ti2 2.525479 1_555
Be0 Ti7 2.525481 1_554
Be0 Ti5 2.525481 1_555
Be1 Ti4 2.525474 1_654
Be1 Ti3 2.525474 1_555
Be1 Ti6 2.525474 1_554
Be1 Ti1 2.525474 1_565
Be1 Ti5 2.525479 1_665
Be1 Ti7 2.525479 1_554
Be1 Ti2 2.525481 1_555
Be1 Ti0 2.525481 1_554
Bi0 Ti4 2.884916 1_655
Bi0 Ti3 2.884916 1_555
Bi0 Ti2 3.015527 1_555
Bi0 Ti0 3.015527 1_555
Bi0 Ti7 3.056874 1_555
Bi0 Ti5 3.056874 1_665
Bi0 Ti5 3.056878 1_555
Bi0 Ti7 3.056878 1_665
Bi1 Ti1 2.884916 1_455
Bi1 Ti6 2.884916 1_555
Bi1 Ti7 3.015527 1_555
Bi1 Ti5 3.015527 1_555
Bi1 Ti2 3.056874 1_555
Bi1 Ti0 3.056874 1_445
Bi1 Ti0 3.056878 1_555
Bi1 Ti2 3.056878 1_445
Bi2 Ti2 2.884918 1_555
Bi2 Ti5 2.884918 1_565
Bi2 Ti4 3.015525 1_554
Bi2 Ti6 3.015525 1_554
Bi2 Ti1 3.056877 1_565
Bi2 Ti3 3.056877 1_565
Bi2 Ti3 3.056881 1_455
Bi2 Ti1 3.056881 1_455
Bi3 Ti7 2.884918 1_555
Bi3 Ti0 2.884918 1_545
Bi3 Ti1 3.015525 1_556
Bi3 Ti3 3.015525 1_556
Bi3 Ti4 3.056877 1_545
Bi3 Ti6 3.056877 1_545
Bi3 Ti6 3.056881 1_655
Bi3 Ti4 3.056881 1_655
