# generated using pymatgen
data_Na20Sn4As5P7
_symmetry_space_group_name_H-M   'P 1'
_cell_length_a   7.48930613
_cell_length_b   8.36829917
_cell_length_c   15.79269876
_cell_angle_alpha   58.27770362
_cell_angle_beta   89.82877673
_cell_angle_gamma   89.88365826
_symmetry_Int_Tables_number   1
_chemical_formula_structural   Na20Sn4As5P7
_chemical_formula_sum   'Na20 Sn4 As5 P7'
_cell_volume   841.90261324
_cell_formula_units_Z   1
loop_
 _symmetry_equiv_pos_site_id
 _symmetry_equiv_pos_as_xyz
  1  'x, y, z'
loop_
 _atom_site_type_symbol
 _atom_site_label
 _atom_site_symmetry_multiplicity
 _atom_site_fract_x
 _atom_site_fract_y
 _atom_site_fract_z
 _atom_site_occupancy
  Na  Na0  1  0.15863960  0.00225109  0.58101728  1
  Na  Na1  1  0.49699838  0.91260718  0.76027921  1
  Na  Na2  1  0.99851317  0.08797209  0.74017369  1
  Na  Na3  1  0.50237193  0.09448332  0.23814567  1
  Na  Na4  1  0.00021543  0.90753449  0.26178806  1
  Na  Na5  1  0.04270717  0.58731007  0.58902146  1
  Na  Na6  1  0.54317465  0.41331691  0.91112549  1
  Na  Na7  1  0.95902942  0.40835066  0.41242455  1
  Na  Na8  1  0.45918456  0.58795362  0.08969384  1
  Na  Na9  1  0.52495301  0.74540551  0.58883031  1
  Na  Na10  1  0.02484435  0.25434593  0.91299980  1
  Na  Na11  1  0.47896382  0.25409240  0.41210473  1
  Na  Na12  1  0.85635185  0.69086160  0.74301751  1
  Na  Na13  1  0.35619834  0.31008926  0.75738347  1
  Na  Na14  1  0.13621265  0.31467451  0.25592469  1
  Na  Na15  1  0.64545690  0.67847191  0.24402760  1
  Na  Na16  1  0.83223455  0.00334247  0.41798376  1
  Na  Na17  1  0.33353006  0.00109196  0.07911451  1
  Na  Na18  1  0.65820568  0.99854108  0.91897318  1
  Na  Na19  1  0.97846540  0.74610933  0.08605931  1
  Sn  Sn0  1  0.85430789  0.34242241  0.08957922  1
  Sn  Sn1  1  0.35742185  0.65804424  0.41213548  1
  Sn  Sn2  1  0.14693661  0.66337547  0.91282662  1
  Sn  Sn3  1  0.64768514  0.33664173  0.58778747  1
  As  As0  1  0.23257559  0.94303138  0.41768407  1
  As  As1  1  0.73152774  0.05801074  0.08261864  1
  As  As2  1  0.74835559  0.36012211  0.73847569  1
  As  As3  1  0.24782204  0.64090949  0.76156113  1
  As  As4  1  0.25325027  0.63747583  0.26125321  1
  P  P0  1  0.75353609  0.35921514  0.23595026  1
  P  P1  1  0.70267534  0.66098188  0.42939065  1
  P  P2  1  0.20094726  0.33952409  0.07075409  1
  P  P3  1  0.30071631  0.33558307  0.57058323  1
  P  P4  1  0.79964195  0.66470274  0.93027959  1
  P  P5  1  0.76844926  0.06308892  0.58137567  1
  P  P6  1  0.26790216  0.93806438  0.91765787  1
loop_
_geom_bond_atom_site_label_1
_geom_bond_atom_site_label_2
_geom_bond_distance
_geom_bond_site_symmetry_2
Na0 P3 2.909962 1_555
Na0 P5 2.965752 1_455
Na1 P6 3.113915 1_555
Na1 P5 3.152147 1_565
Na1 P4 3.287751 1_555
Na1 Sn3 3.334449 1_565
Na2 P6 3.134732 1_645
Na2 P5 3.142913 1_555
Na2 P3 3.276590 1_655
Na2 Sn2 3.333025 1_645
Na3 P0 2.895357 1_555
Na3 P2 3.256643 1_555
Na4 P1 3.235590 1_455
Na5 P3 2.980139 1_555
Na5 P1 3.408561 1_455
Na6 P4 2.982505 1_555
Na6 P2 3.411236 1_556
Na7 P1 2.967049 1_555
Na7 P5 3.064528 1_555
Na7 P0 3.396808 1_555
Na7 P3 3.404474 1_655
Na8 P2 2.970784 1_555
Na8 P0 3.036891 1_555
Na8 P6 3.106948 1_554
Na8 P4 3.394118 1_554
Na9 P5 3.177449 1_565
Na9 P1 3.233855 1_555
Na10 P6 3.178166 1_545
Na10 P2 3.216425 1_556
Na11 P5 3.150980 1_555
Na11 P0 3.184544 1_555
Na11 P3 3.206606 1_555
Na12 P4 2.878618 1_555
Na12 P5 2.879652 1_565
Na13 P6 2.871905 1_545
Na13 P3 2.875111 1_555
Na14 P2 2.860510 1_555
Na14 P0 2.886123 1_455
Na15 P0 2.856237 1_555
Na15 P1 2.886400 1_555
Na16 P0 2.912136 1_555
Na16 P5 2.912906 1_555
Na16 P1 2.941009 1_545
Na17 P6 2.905898 1_544
Na17 P2 2.936038 1_555
Na18 P4 2.902238 1_555
Na18 P6 2.969598 1_555
Na19 P6 3.136768 1_654
Na19 P4 3.177428 1_554
Na19 P0 3.295811 1_555
As0 Sn1 2.603784 1_555
As0 Na14 2.892426 1_565
As0 Na0 2.922414 1_565
As0 Na16 3.039850 1_465
As0 Na5 3.119096 1_555
As0 Na3 3.150504 1_565
As0 Na11 3.156901 1_565
As0 Na4 3.158309 1_555
As0 Na9 3.186740 1_555
As1 Sn0 2.608995 1_555
As1 Na15 2.912986 1_545
As1 Na18 2.930950 1_544
As1 Na17 3.024754 1_555
As1 Na6 3.114974 1_554
As1 Na3 3.135676 1_555
As1 Na4 3.149317 1_645
As1 Na10 3.170480 1_654
As1 Na19 3.172947 1_545
As2 Sn3 2.602582 1_555
As2 Na12 2.921960 1_555
As2 Na2 2.935336 1_555
As2 Na18 2.943378 1_545
As2 Na13 2.959498 1_555
As2 Na5 3.051594 1_655
As2 Na10 3.182624 1_655
As2 Na9 3.281561 1_555
As2 Na6 3.352974 1_555
As3 Sn2 2.602680 1_555
As3 Na13 2.917162 1_555
As3 Na1 2.936159 1_555
As3 Na0 2.942084 1_565
As3 Na12 2.954252 1_455
As3 Na6 3.063127 1_555
As3 Na9 3.158929 1_555
As3 Na10 3.291693 1_555
As3 Na5 3.361397 1_555
As4 Sn1 2.599841 1_555
As4 Na14 2.884702 1_555
As4 Na17 2.947409 1_565
As4 Na4 2.949777 1_555
As4 Na15 2.953122 1_555
As4 Na7 3.066503 1_455
As4 Na19 3.177748 1_455
As4 Na11 3.284898 1_555
As4 Na8 3.323312 1_555
P0 Sn0 2.502708 1_555
P1 Sn3 2.579222 1_555
P1 Sn1 2.602358 1_555
P2 Sn2 2.573376 1_554
P2 Sn0 2.613688 1_455
P3 Sn1 2.573140 1_555
P3 Sn3 2.614046 1_555
P4 Sn0 2.576209 1_556
P4 Sn2 2.615357 1_655
P5 Sn3 2.510653 1_555
P6 Sn2 2.510736 1_555
