# generated using pymatgen
data_K3Ba3ScSb4
_symmetry_space_group_name_H-M   'P 1'
_cell_length_a   11.18526582
_cell_length_b   11.18526672
_cell_length_c   8.56288383
_cell_angle_alpha   90.00000000
_cell_angle_beta   90.00000000
_cell_angle_gamma   120.00000603
_symmetry_Int_Tables_number   1
_chemical_formula_structural   K3Ba3ScSb4
_chemical_formula_sum   'K6 Ba6 Sc2 Sb8'
_cell_volume   927.77637941
_cell_formula_units_Z   2
loop_
 _symmetry_equiv_pos_site_id
 _symmetry_equiv_pos_as_xyz
  1  'x, y, z'
loop_
 _atom_site_type_symbol
 _atom_site_label
 _atom_site_symmetry_multiplicity
 _atom_site_fract_x
 _atom_site_fract_y
 _atom_site_fract_z
 _atom_site_occupancy
  K  K0  1  0.86457881  0.13542119  0.55859661  1
  K  K1  1  0.27084239  0.13542119  0.55859661  1
  K  K2  1  0.86457881  0.72915761  0.55859661  1
  K  K3  1  0.13542119  0.86457881  0.05859661  1
  K  K4  1  0.72915761  0.86457881  0.05859661  1
  K  K5  1  0.13542119  0.27084239  0.05859661  1
  Ba  Ba0  1  0.47397927  0.52602073  0.73140618  1
  Ba  Ba1  1  0.05204147  0.52602073  0.73140618  1
  Ba  Ba2  1  0.47397927  0.94795853  0.73140618  1
  Ba  Ba3  1  0.52602073  0.47397927  0.23140618  1
  Ba  Ba4  1  0.94795853  0.47397927  0.23140618  1
  Ba  Ba5  1  0.52602073  0.05204147  0.23140618  1
  Sc  Sc0  1  0.66666700  0.33333300  0.84500204  1
  Sc  Sc1  1  0.33333300  0.66666700  0.34500204  1
  Sb  Sb0  1  0.80531138  0.19468862  0.95438826  1
  Sb  Sb1  1  0.38937823  0.19468862  0.95438826  1
  Sb  Sb2  1  0.80531138  0.61062177  0.95438826  1
  Sb  Sb3  1  0.19468862  0.80531138  0.45438826  1
  Sb  Sb4  1  0.61062177  0.80531138  0.45438826  1
  Sb  Sb5  1  0.19468862  0.38937823  0.45438826  1
  Sb  Sb6  1  0.66666700  0.33333300  0.50718883  1
  Sb  Sb7  1  0.33333300  0.66666700  0.00718883  1
loop_
_geom_bond_atom_site_label_1
_geom_bond_atom_site_label_2
_geom_bond_distance
_geom_bond_site_symmetry_2
K0 Sb5 3.465579 1_655
K0 Sb4 3.465579 1_545
K0 Sb0 3.578340 1_555
K0 Sb6 3.859421 1_555
K1 Sb3 3.465576 1_545
K1 Sb5 3.465586 1_555
K1 Sb1 3.578343 1_555
K1 Sb6 3.859430 1_555
K2 Sb3 3.465575 1_655
K2 Sb4 3.465586 1_555
K2 Sb2 3.578343 1_555
K2 Sb6 3.859430 1_555
K3 Sb2 3.465579 1_454
K3 Sb1 3.465579 1_564
K3 Sb3 3.578340 1_555
K3 Sb7 3.859421 1_555
K4 Sb0 3.465576 1_564
K4 Sb2 3.465586 1_554
K4 Sb4 3.578343 1_555
K4 Sb7 3.859430 1_555
K5 Sb0 3.465575 1_454
K5 Sb1 3.465586 1_554
K5 Sb5 3.578343 1_555
K5 Sb7 3.859430 1_555
Ba0 Sb5 3.598209 1_555
Ba0 Sb4 3.598209 1_555
Ba0 Sb7 3.605719 1_556
Ba0 Sb2 3.843032 1_555
Ba0 Sb1 3.843032 1_555
Ba1 Sb5 3.598202 1_555
Ba1 Sb3 3.598209 1_555
Ba1 Sb7 3.605712 1_556
Ba1 Sb2 3.843023 1_455
Ba1 Sb0 3.843029 1_455
Ba2 Sb4 3.598202 1_555
Ba2 Sb3 3.598209 1_555
Ba2 Sb7 3.605712 1_556
Ba2 Sb1 3.843023 1_565
Ba2 Sb0 3.843029 1_565
Ba3 Sb2 3.598209 1_554
Ba3 Sb1 3.598209 1_554
Ba3 Sb6 3.605719 1_555
Ba3 Sb5 3.843032 1_555
Ba3 Sb4 3.843032 1_555
Ba4 Sb2 3.598202 1_554
Ba4 Sb0 3.598209 1_554
Ba4 Sb6 3.605712 1_555
Ba4 Sb5 3.843023 1_655
Ba4 Sb3 3.843029 1_655
Ba5 Sb1 3.598202 1_554
Ba5 Sb0 3.598209 1_554
Ba5 Sb6 3.605712 1_555
Ba5 Sb4 3.843023 1_545
Ba5 Sb3 3.843029 1_545
Sb0 Sc0 2.844651 1_555
Sb1 Sc0 2.844651 1_555
Sb2 Sc0 2.844651 1_555
Sb3 Sc1 2.844651 1_555
Sb4 Sc1 2.844651 1_555
Sb5 Sc1 2.844651 1_555
Sb6 Sc0 2.892655 1_555
Sb7 Sc1 2.892655 1_555
