# generated using pymatgen
data_KRb2VO4
_symmetry_space_group_name_H-M   'P 1'
_cell_length_a   6.22125230
_cell_length_b   6.58644525
_cell_length_c   7.84536332
_cell_angle_alpha   89.40770612
_cell_angle_beta   90.00000000
_cell_angle_gamma   90.00000000
_symmetry_Int_Tables_number   1
_chemical_formula_structural   KRb2VO4
_chemical_formula_sum   'K2 Rb4 V2 O8'
_cell_volume   321.45394170
_cell_formula_units_Z   2
loop_
 _symmetry_equiv_pos_site_id
 _symmetry_equiv_pos_as_xyz
  1  'x, y, z'
loop_
 _atom_site_type_symbol
 _atom_site_label
 _atom_site_symmetry_multiplicity
 _atom_site_fract_x
 _atom_site_fract_y
 _atom_site_fract_z
 _atom_site_occupancy
  K  K0  1  0.25000000  0.89715006  0.95791730  1
  K  K1  1  0.75000000  0.10284994  0.04208270  1
  Rb  Rb0  1  0.75000000  0.17672185  0.51133274  1
  Rb  Rb1  1  0.25000000  0.82327815  0.48866726  1
  Rb  Rb2  1  0.25000000  0.42686694  0.16722809  1
  Rb  Rb3  1  0.75000000  0.57313306  0.83277191  1
  V  V0  1  0.75000000  0.68039695  0.27866615  1
  V  V1  1  0.25000000  0.31960305  0.72133385  1
  O  O0  1  0.97374969  0.79893408  0.19237376  1
  O  O1  1  0.47374969  0.20106592  0.80762624  1
  O  O2  1  0.02625031  0.20106592  0.80762624  1
  O  O3  1  0.52625031  0.79893408  0.19237376  1
  O  O4  1  0.25000000  0.57101067  0.78202095  1
  O  O5  1  0.25000000  0.29159005  0.50428039  1
  O  O6  1  0.75000000  0.42898933  0.21797905  1
  O  O7  1  0.75000000  0.70840995  0.49571961  1
loop_
_geom_bond_atom_site_label_1
_geom_bond_atom_site_label_2
_geom_bond_distance
_geom_bond_site_symmetry_2
K0 O4 2.565139 1_555
K0 O3 2.594401 1_556
K0 O0 2.594401 1_456
K0 O1 2.699264 1_565
K0 O2 2.699264 1_565
K1 O6 2.565139 1_555
K1 O2 2.594401 1_654
K1 O1 2.594401 1_554
K1 O0 2.699264 1_545
K1 O3 2.699264 1_545
O0 V0 1.730497 1_555
O0 Rb1 2.896639 1_655
O0 Rb2 3.001336 1_655
O1 V1 1.730497 1_555
O1 Rb0 2.896639 1_555
O1 Rb3 3.001336 1_555
O2 V1 1.730497 1_555
O2 Rb0 2.896639 1_455
O2 Rb3 3.001336 1_455
O3 V0 1.730497 1_555
O3 Rb1 2.896639 1_555
O3 Rb2 3.001336 1_555
O4 V1 1.727695 1_555
O4 Rb1 2.824610 1_555
O4 Rb3 3.136054 1_555
O4 Rb3 3.136054 1_455
O4 Rb2 3.158332 1_556
O5 V1 1.714725 1_555
O5 Rb2 2.781631 1_555
O5 Rb1 3.088207 1_545
O5 Rb0 3.201655 1_455
O5 Rb0 3.201655 1_555
O6 V0 1.727695 1_555
O6 Rb0 2.824610 1_555
O6 Rb2 3.136054 1_655
O6 Rb2 3.136054 1_555
O6 Rb3 3.158332 1_554
O7 V0 1.714725 1_555
O7 Rb3 2.781631 1_555
O7 Rb0 3.088207 1_565
O7 Rb1 3.201655 1_655
O7 Rb1 3.201655 1_555
