# generated using pymatgen
data_RbYZnTe3
_symmetry_space_group_name_H-M   'P 1'
_cell_length_a   8.46359575
_cell_length_b   8.46359617
_cell_length_c   11.71538610
_cell_angle_alpha   90.00000000
_cell_angle_beta   90.00000000
_cell_angle_gamma   149.78507886
_symmetry_Int_Tables_number   1
_chemical_formula_structural   RbYZnTe3
_chemical_formula_sum   'Rb2 Y2 Zn2 Te6'
_cell_volume   422.32415895
_cell_formula_units_Z   2
loop_
 _symmetry_equiv_pos_site_id
 _symmetry_equiv_pos_as_xyz
  1  'x, y, z'
loop_
 _atom_site_type_symbol
 _atom_site_label
 _atom_site_symmetry_multiplicity
 _atom_site_fract_x
 _atom_site_fract_y
 _atom_site_fract_z
 _atom_site_occupancy
  Rb  Rb0  1  0.25139966  0.74860034  0.25000000  1
  Rb  Rb1  1  0.74860034  0.25139966  0.75000000  1
  Y  Y0  1  0.00000000  0.00000000  0.50000000  1
  Y  Y1  1  0.00000000  0.00000000  0.00000000  1
  Zn  Zn0  1  0.53675672  0.46324328  0.25000000  1
  Zn  Zn1  1  0.46324328  0.53675672  0.75000000  1
  Te  Te0  1  0.62487538  0.37512462  0.43884010  1
  Te  Te1  1  0.37512462  0.62487538  0.56115990  1
  Te  Te2  1  0.62487538  0.37512462  0.06115990  1
  Te  Te3  1  0.37512462  0.62487538  0.93884010  1
  Te  Te4  1  0.93638544  0.06361456  0.25000000  1
  Te  Te5  1  0.06361456  0.93638544  0.75000000  1
loop_
_geom_bond_atom_site_label_1
_geom_bond_atom_site_label_2
_geom_bond_distance
_geom_bond_site_symmetry_2
Rb0 Te4 3.742299 1_565
Rb0 Te4 3.742299 1_455
Rb0 Te0 3.746410 1_455
Rb0 Te2 3.746410 1_455
Rb0 Te0 3.746410 1_565
Rb0 Te2 3.746410 1_565
Rb0 Te1 4.168555 1_555
Rb0 Te3 4.168555 1_554
Rb1 Te5 3.742299 1_545
Rb1 Te5 3.742299 1_655
Rb1 Te3 3.746410 1_655
Rb1 Te1 3.746410 1_655
Rb1 Te3 3.746410 1_545
Rb1 Te1 3.746410 1_545
Rb1 Te2 4.168555 1_556
Rb1 Te0 4.168555 1_555
Te0 Zn0 2.639729 1_555
Te0 Y0 3.089311 1_555
Te0 Y0 3.089311 1_665
Te1 Zn1 2.639729 1_555
Te1 Y0 3.089311 1_665
Te1 Y0 3.089311 1_555
Te2 Zn0 2.639729 1_555
Te2 Y1 3.089311 1_555
Te2 Y1 3.089311 1_665
Te3 Zn1 2.639729 1_555
Te3 Y1 3.089311 1_666
Te3 Y1 3.089311 1_556
Te4 Zn0 2.748889 1_655
Te4 Zn0 2.748889 1_545
Te4 Y0 3.107879 1_655
Te4 Y1 3.107879 1_655
Te5 Zn1 2.748889 1_455
Te5 Zn1 2.748889 1_565
Te5 Y0 3.107879 1_565
Te5 Y1 3.107879 1_566
