# generated using pymatgen
data_Ba2SrIn2F12
_symmetry_space_group_name_H-M   'P 1'
_cell_length_a   9.35070724
_cell_length_b   9.35070724
_cell_length_c   5.65023856
_cell_angle_alpha   90.00000000
_cell_angle_beta   90.00000000
_cell_angle_gamma   90.00000000
_symmetry_Int_Tables_number   1
_chemical_formula_structural   Ba2SrIn2F12
_chemical_formula_sum   'Ba4 Sr2 In4 F24'
_cell_volume   494.03271010
_cell_formula_units_Z   2
loop_
 _symmetry_equiv_pos_site_id
 _symmetry_equiv_pos_as_xyz
  1  'x, y, z'
loop_
 _atom_site_type_symbol
 _atom_site_label
 _atom_site_symmetry_multiplicity
 _atom_site_fract_x
 _atom_site_fract_y
 _atom_site_fract_z
 _atom_site_occupancy
  Ba  Ba0  1  0.31937806  0.81937806  0.50000000  1
  Ba  Ba1  1  0.81937806  0.68062194  0.50000000  1
  Ba  Ba2  1  0.18062194  0.31937806  0.50000000  1
  Ba  Ba3  1  0.68062194  0.18062194  0.50000000  1
  Sr  Sr0  1  0.50000000  0.50000000  0.00000000  1
  Sr  Sr1  1  0.00000000  0.00000000  0.00000000  1
  In  In0  1  0.13528548  0.63528548  0.00000000  1
  In  In1  1  0.63528548  0.86471452  0.00000000  1
  In  In2  1  0.36471452  0.13528548  0.00000000  1
  In  In3  1  0.86471452  0.36471452  0.00000000  1
  F  F0  1  0.29917493  0.79917493  0.00000000  1
  F  F1  1  0.79917493  0.70082507  0.00000000  1
  F  F2  1  0.20082507  0.29917493  0.00000000  1
  F  F3  1  0.70082507  0.20082507  0.00000000  1
  F  F4  1  0.55618996  0.71725954  0.25250434  1
  F  F5  1  0.44381004  0.28274046  0.25250434  1
  F  F6  1  0.28274046  0.55618996  0.25250434  1
  F  F7  1  0.71725954  0.44381004  0.25250434  1
  F  F8  1  0.21725954  0.05618996  0.74749566  1
  F  F9  1  0.05618996  0.78274046  0.74749566  1
  F  F10  1  0.50000000  0.00000000  0.77554405  1
  F  F11  1  0.00000000  0.50000000  0.77554405  1
  F  F12  1  0.00000000  0.50000000  0.22445595  1
  F  F13  1  0.50000000  0.00000000  0.22445595  1
  F  F14  1  0.21725954  0.05618996  0.25250434  1
  F  F15  1  0.05618996  0.78274046  0.25250434  1
  F  F16  1  0.94381004  0.21725954  0.25250434  1
  F  F17  1  0.78274046  0.94381004  0.25250434  1
  F  F18  1  0.28274046  0.55618996  0.74749566  1
  F  F19  1  0.71725954  0.44381004  0.74749566  1
  F  F20  1  0.55618996  0.71725954  0.74749566  1
  F  F21  1  0.44381004  0.28274046  0.74749566  1
  F  F22  1  0.78274046  0.94381004  0.74749566  1
  F  F23  1  0.94381004  0.21725954  0.74749566  1
loop_
_geom_bond_atom_site_label_1
_geom_bond_atom_site_label_2
_geom_bond_distance
_geom_bond_site_symmetry_2
Ba0 F8 2.787603 1_565
Ba0 F20 2.787603 1_555
Ba0 F4 2.787603 1_555
Ba0 F14 2.787603 1_565
Ba0 F0 2.837724 1_555
Ba0 F0 2.837724 1_556
Ba0 F10 2.851133 1_565
Ba0 F13 2.851133 1_565
Ba0 F18 2.851212 1_555
Ba0 F9 2.851212 1_555
Ba0 F15 2.851212 1_555
Ba0 F6 2.851212 1_555
Ba1 F9 2.787603 1_655
Ba1 F19 2.787603 1_555
Ba1 F15 2.787603 1_655
Ba1 F7 2.787603 1_555
Ba1 F1 2.837724 1_556
Ba1 F1 2.837724 1_555
Ba1 F11 2.851133 1_655
Ba1 F12 2.851133 1_655
Ba1 F22 2.851212 1_555
Ba1 F20 2.851212 1_555
Ba1 F17 2.851212 1_555
Ba1 F4 2.851212 1_555
Ba2 F23 2.787603 1_455
Ba2 F18 2.787603 1_555
Ba2 F16 2.787603 1_455
Ba2 F6 2.787603 1_555
Ba2 F2 2.837724 1_556
Ba2 F2 2.837724 1_555
Ba2 F11 2.851133 1_555
Ba2 F12 2.851133 1_555
Ba2 F8 2.851212 1_555
Ba2 F21 2.851212 1_555
Ba2 F14 2.851212 1_555
Ba2 F5 2.851212 1_555
Ba3 F22 2.787603 1_545
Ba3 F21 2.787603 1_555
Ba3 F17 2.787603 1_545
Ba3 F5 2.787603 1_555
Ba3 F3 2.837724 1_555
Ba3 F3 2.837724 1_556
Ba3 F10 2.851133 1_555
Ba3 F13 2.851133 1_555
Ba3 F19 2.851212 1_555
Ba3 F23 2.851212 1_555
Ba3 F16 2.851212 1_555
Ba3 F7 2.851212 1_555
F0 In0 2.167257 1_555
F1 In1 2.167257 1_555
F2 In2 2.167257 1_555
F3 In3 2.167257 1_555
F4 In1 2.117456 1_555
F4 Sr0 2.537455 1_555
F5 In2 2.117456 1_555
F5 Sr0 2.537455 1_555
F6 In0 2.117456 1_555
F6 Sr0 2.537455 1_555
F7 In3 2.117456 1_555
F7 Sr0 2.537455 1_555
F8 In2 2.117456 1_556
F8 Sr1 2.537455 1_556
F9 In0 2.117456 1_556
F9 Sr1 2.537455 1_566
F10 In2 2.192928 1_556
F10 In1 2.192928 1_546
F11 In0 2.192928 1_556
F11 In3 2.192928 1_456
F12 In0 2.192928 1_555
F12 In3 2.192928 1_455
F13 In2 2.192928 1_555
F13 In1 2.192928 1_545
F14 In2 2.117456 1_555
F14 Sr1 2.537455 1_555
F15 In0 2.117456 1_555
F15 Sr1 2.537455 1_565
F16 In3 2.117456 1_555
F16 Sr1 2.537455 1_655
F17 In1 2.117456 1_555
F17 Sr1 2.537455 1_665
F18 In0 2.117456 1_556
F18 Sr0 2.537455 1_556
F19 In3 2.117456 1_556
F19 Sr0 2.537455 1_556
F20 In1 2.117456 1_556
F20 Sr0 2.537455 1_556
F21 In2 2.117456 1_556
F21 Sr0 2.537455 1_556
F22 In1 2.117456 1_556
F22 Sr1 2.537455 1_666
F23 In3 2.117456 1_556
F23 Sr1 2.537455 1_656
