# generated using pymatgen
data_TaNbNiF12
_symmetry_space_group_name_H-M   'P 1'
_cell_length_a   5.01648497
_cell_length_b   5.44231977
_cell_length_c   8.80949551
_cell_angle_alpha   104.92852635
_cell_angle_beta   90.60230320
_cell_angle_gamma   118.35365339
_symmetry_Int_Tables_number   1
_chemical_formula_structural   TaNbNiF12
_chemical_formula_sum   'Ta1 Nb1 Ni1 F12'
_cell_volume   202.00195856
_cell_formula_units_Z   1
loop_
 _symmetry_equiv_pos_site_id
 _symmetry_equiv_pos_as_xyz
  1  'x, y, z'
loop_
 _atom_site_type_symbol
 _atom_site_label
 _atom_site_symmetry_multiplicity
 _atom_site_fract_x
 _atom_site_fract_y
 _atom_site_fract_z
 _atom_site_occupancy
  Ta  Ta0  1  0.21988425  0.48909202  0.73461951  1
  Nb  Nb0  1  0.78147110  0.51244297  0.26743037  1
  Ni  Ni0  1  0.99942551  0.00042944  0.00002411  1
  F  F0  1  0.79730120  0.25076992  0.70848031  1
  F  F1  1  0.20637665  0.75210001  0.29066821  1
  F  F2  1  0.18897500  0.74913013  0.93118961  1
  F  F3  1  0.70427770  0.73105171  0.44391796  1
  F  F4  1  0.29333734  0.26907673  0.55902518  1
  F  F5  1  0.80220147  0.25812722  0.36932991  1
  F  F6  1  0.20008829  0.73817497  0.63013308  1
  F  F7  1  0.33355300  0.25712438  0.18629208  1
  F  F8  1  0.66368693  0.74161279  0.81303824  1
  F  F9  1  0.75570442  0.73978394  0.12665410  1
  F  F10  1  0.24378670  0.26165447  0.87235062  1
  F  F11  1  0.80993044  0.24943031  0.06684571  1
loop_
_geom_bond_atom_site_label_1
_geom_bond_atom_site_label_2
_geom_bond_distance
_geom_bond_site_symmetry_2
F0 Ta0 1.858351 1_655
F1 Nb0 1.870595 1_455
F2 Ni0 1.990573 1_466
F2 Ta0 1.994240 1_555
F3 Nb0 1.865459 1_555
F4 Ta0 1.854494 1_555
F5 Nb0 1.872749 1_555
F6 Ta0 1.861072 1_555
F7 Nb0 1.994875 1_555
F7 Ni0 1.997677 1_455
F8 Ta0 1.973541 1_555
F8 Ni0 2.006742 1_566
F9 Ni0 1.986990 1_565
F9 Nb0 2.006152 1_555
F10 Ta0 1.982525 1_555
F10 Ni0 1.996598 1_456
F11 Ni0 1.977598 1_555
F11 Nb0 2.021871 1_555
