# generated using pymatgen
data_Te12OsPtBr6
_symmetry_space_group_name_H-M   'P 1'
_cell_length_a   9.31878200
_cell_length_b   9.31878161
_cell_length_c   9.31878183
_cell_angle_alpha   108.09017754
_cell_angle_beta   108.09017970
_cell_angle_gamma   108.09018525
_symmetry_Int_Tables_number   1
_chemical_formula_structural   Te12OsPtBr6
_chemical_formula_sum   'Te12 Os1 Pt1 Br6'
_cell_volume   652.86448032
_cell_formula_units_Z   1
loop_
 _symmetry_equiv_pos_site_id
 _symmetry_equiv_pos_as_xyz
  1  'x, y, z'
loop_
 _atom_site_type_symbol
 _atom_site_label
 _atom_site_symmetry_multiplicity
 _atom_site_fract_x
 _atom_site_fract_y
 _atom_site_fract_z
 _atom_site_occupancy
  Te  Te0  1  0.92968406  0.17071474  0.18857642  1
  Te  Te1  1  0.18857642  0.92968406  0.17071474  1
  Te  Te2  1  0.17071474  0.18857642  0.92968406  1
  Te  Te3  1  0.69056624  0.66829492  0.42349889  1
  Te  Te4  1  0.42349889  0.69056624  0.66829492  1
  Te  Te5  1  0.66829492  0.42349889  0.69056624  1
  Te  Te6  1  0.07650111  0.83170508  0.80943376  1
  Te  Te7  1  0.80943376  0.07650111  0.83170508  1
  Te  Te8  1  0.83170508  0.80943376  0.07650111  1
  Te  Te9  1  0.31142358  0.32928526  0.57031594  1
  Te  Te10  1  0.57031594  0.31142358  0.32928526  1
  Te  Te11  1  0.32928526  0.57031594  0.31142358  1
  Os  Os0  1  0.25000000  0.25000000  0.25000000  1
  Pt  Pt0  1  0.75000000  0.75000000  0.75000000  1
  Br  Br0  1  0.98254837  0.51745163  0.25000000  1
  Br  Br1  1  0.25000000  0.98254837  0.51745163  1
  Br  Br2  1  0.51745163  0.25000000  0.98254837  1
  Br  Br3  1  0.75000000  0.01479521  0.48520479  1
  Br  Br4  1  0.48520479  0.75000000  0.01479521  1
  Br  Br5  1  0.01479521  0.48520479  0.75000000  1
loop_
_geom_bond_atom_site_label_1
_geom_bond_atom_site_label_2
_geom_bond_distance
_geom_bond_site_symmetry_2
Te0 Te7 2.889225 1_554
Te0 Te8 2.928179 1_545
Te1 Te8 2.889225 1_455
Te1 Te6 2.928179 1_554
Te2 Te6 2.889225 1_545
Te2 Te7 2.928179 1_455
Te4 Te9 2.928179 1_555
Te5 Te9 2.889225 1_555
Te10 Te3 2.889225 1_555
Te10 Te5 2.928179 1_555
Te11 Te4 2.889225 1_555
Te11 Te3 2.928179 1_555
Os0 Te11 2.662734 1_555
Os0 Te1 2.662734 1_545
Os0 Te0 2.662734 1_455
Os0 Te10 2.662734 1_555
Os0 Te2 2.662734 1_554
Os0 Te9 2.662734 1_555
Pt0 Te5 2.719698 1_555
Pt0 Te7 2.719698 1_565
Pt0 Te6 2.719698 1_655
Pt0 Te4 2.719698 1_555
Pt0 Te8 2.719698 1_556
Pt0 Te3 2.719698 1_555
Br0 Te0 2.949324 1_555
Br0 Te11 2.949324 1_655
Br1 Te9 2.949324 1_565
Br1 Te1 2.949324 1_555
Br2 Te2 2.949324 1_555
Br2 Te10 2.949324 1_556
Br3 Te3 2.932935 1_545
Br3 Te7 2.932935 1_555
Br4 Te8 2.932935 1_555
Br4 Te4 2.932935 1_554
Br5 Te6 2.932935 1_555
Br5 Te5 2.932935 1_455
