# generated using pymatgen
data_AlSnBO4
_symmetry_space_group_name_H-M   'P 1'
_cell_length_a   5.68681168
_cell_length_b   7.21831414
_cell_length_c   7.73805145
_cell_angle_alpha   90.00000000
_cell_angle_beta   90.00000000
_cell_angle_gamma   90.00000000
_symmetry_Int_Tables_number   1
_chemical_formula_structural   AlSnBO4
_chemical_formula_sum   'Al4 Sn4 B4 O16'
_cell_volume   317.64076883
_cell_formula_units_Z   4
loop_
 _symmetry_equiv_pos_site_id
 _symmetry_equiv_pos_as_xyz
  1  'x, y, z'
loop_
 _atom_site_type_symbol
 _atom_site_label
 _atom_site_symmetry_multiplicity
 _atom_site_fract_x
 _atom_site_fract_y
 _atom_site_fract_z
 _atom_site_occupancy
  Al  Al0  1  0.00000000  0.50000000  0.50000000  1
  Al  Al1  1  0.00000000  0.00000000  0.00000000  1
  Al  Al2  1  0.50000000  0.00000000  0.00000000  1
  Al  Al3  1  0.50000000  0.50000000  0.50000000  1
  Sn  Sn0  1  0.25000000  0.09243638  0.63760554  1
  Sn  Sn1  1  0.25000000  0.59243638  0.86239446  1
  Sn  Sn2  1  0.75000000  0.90756362  0.36239446  1
  Sn  Sn3  1  0.75000000  0.40756362  0.13760554  1
  B  B0  1  0.75000000  0.72652180  0.76381787  1
  B  B1  1  0.75000000  0.22652180  0.73618213  1
  B  B2  1  0.25000000  0.77347820  0.26381787  1
  B  B3  1  0.25000000  0.27347820  0.23618213  1
  O  O0  1  0.95842475  0.16427206  0.80803826  1
  O  O1  1  0.95842475  0.66427206  0.69196174  1
  O  O2  1  0.45842475  0.33572794  0.30803826  1
  O  O3  1  0.75000000  0.09915842  0.11947072  1
  O  O4  1  0.04157525  0.33572794  0.30803826  1
  O  O5  1  0.25000000  0.90084158  0.88052928  1
  O  O6  1  0.75000000  0.34365909  0.59704676  1
  O  O7  1  0.25000000  0.15634091  0.09704676  1
  O  O8  1  0.54157525  0.16427206  0.80803826  1
  O  O9  1  0.04157525  0.83572794  0.19196174  1
  O  O10  1  0.25000000  0.65634091  0.40295324  1
  O  O11  1  0.75000000  0.59915842  0.38052928  1
  O  O12  1  0.54157525  0.66427206  0.69196174  1
  O  O13  1  0.75000000  0.84365909  0.90295324  1
  O  O14  1  0.25000000  0.40084158  0.61947072  1
  O  O15  1  0.45842475  0.83572794  0.19196174  1
loop_
_geom_bond_atom_site_label_1
_geom_bond_atom_site_label_2
_geom_bond_distance
_geom_bond_site_symmetry_2
Al0 O14 1.840704 1_555
Al0 O11 1.840704 1_455
Al0 O1 1.915303 1_455
Al0 O4 1.915303 1_555
Al0 O10 1.964363 1_555
Al0 O6 1.964363 1_455
Al1 O5 1.840704 1_544
Al1 O3 1.840704 1_455
Al1 O0 1.915303 1_454
Al1 O9 1.915303 1_545
Al1 O7 1.964363 1_555
Al1 O13 1.964363 1_444
Al2 O5 1.840704 1_544
Al2 O3 1.840704 1_555
Al2 O15 1.915303 1_545
Al2 O8 1.915303 1_554
Al2 O7 1.964363 1_555
Al2 O13 1.964363 1_544
Al3 O14 1.840704 1_555
Al3 O11 1.840704 1_555
Al3 O12 1.915303 1_555
Al3 O2 1.915303 1_555
Al3 O10 1.964363 1_555
Al3 O6 1.964363 1_555
B0 O13 1.368968 1_555
B0 O1 1.384175 1_555
B0 O12 1.384175 1_555
B1 O6 1.368968 1_555
B1 O0 1.384175 1_555
B1 O8 1.384175 1_555
B2 O10 1.368968 1_555
B2 O9 1.384175 1_555
B2 O15 1.384175 1_555
B3 O7 1.368968 1_555
B3 O4 1.384175 1_555
B3 O2 1.384175 1_555
O0 Sn0 2.181184 1_655
O1 Sn1 2.181184 1_655
O2 Sn3 2.181184 1_555
O3 Sn3 2.230584 1_555
O3 Sn2 2.333699 1_545
O4 Sn3 2.181184 1_455
O5 Sn1 2.230584 1_555
O5 Sn0 2.333699 1_565
O8 Sn0 2.181184 1_555
O9 Sn2 2.181184 1_455
O11 Sn2 2.230584 1_555
O11 Sn3 2.333699 1_555
O12 Sn1 2.181184 1_555
O14 Sn0 2.230584 1_555
O14 Sn1 2.333699 1_555
O15 Sn2 2.181184 1_555
