# generated using pymatgen
data_Te(HO)6
_symmetry_space_group_name_H-M   'P 1'
_cell_length_a   9.24972815
_cell_length_b   6.41436801
_cell_length_c   8.24616287
_cell_angle_alpha   80.07115651
_cell_angle_beta   90.00000000
_cell_angle_gamma   90.00000000
_symmetry_Int_Tables_number   1
_chemical_formula_structural   Te(HO)6
_chemical_formula_sum   'Te4 H24 O24'
_cell_volume   481.92667682
_cell_formula_units_Z   4
loop_
 _symmetry_equiv_pos_site_id
 _symmetry_equiv_pos_as_xyz
  1  'x, y, z'
loop_
 _atom_site_type_symbol
 _atom_site_label
 _atom_site_symmetry_multiplicity
 _atom_site_fract_x
 _atom_site_fract_y
 _atom_site_fract_z
 _atom_site_occupancy
  Te  Te0  1  0.50000000  0.50000000  0.00000000  1
  Te  Te1  1  -0.00000000  0.50000000  0.50000000  1
  Te  Te2  1  0.50000000  -0.00000000  0.50000000  1
  Te  Te3  1  -0.00000000  -0.00000000  0.00000000  1
  H  H0  1  0.83298341  0.71132435  0.30109590  1
  H  H1  1  0.33298341  0.28867565  0.19890410  1
  H  H2  1  0.16701659  0.28867565  0.69890410  1
  H  H3  1  0.66701659  0.71132435  0.80109590  1
  H  H4  1  0.46261720  0.31119633  0.76147158  1
  H  H5  1  0.96261720  0.68880367  0.73852842  1
  H  H6  1  0.70364746  0.24421217  0.01219663  1
  H  H7  1  0.20364746  0.75578783  0.48780337  1
  H  H8  1  0.29635254  0.75578783  0.98780337  1
  H  H9  1  0.79635254  0.24421217  0.51219663  1
  H  H10  1  0.59409769  0.35473173  0.37045062  1
  H  H11  1  0.09409769  0.64526827  0.12954938  1
  H  H12  1  0.40590231  0.64526827  0.62954938  1
  H  H13  1  0.90590231  0.35473173  0.87045062  1
  H  H14  1  0.56969213  0.04257323  0.20290595  1
  H  H15  1  0.06969213  0.95742677  0.29709405  1
  H  H16  1  0.43030787  0.95742677  0.79709405  1
  H  H17  1  0.93030787  0.04257323  0.70290595  1
  H  H18  1  0.78309842  0.76635347  0.02903762  1
  H  H19  1  0.28309842  0.23364653  0.47096238  1
  H  H20  1  0.21690158  0.23364653  0.97096238  1
  H  H21  1  0.71690158  0.76635347  0.52903762  1
  H  H22  1  0.53738280  0.68880367  0.23852842  1
  H  H23  1  0.03738280  0.31119633  0.26147158  1
  O  O0  1  0.67433244  0.64473713  0.91921002  1
  O  O1  1  0.17433244  0.35526287  0.58078998  1
  O  O2  1  0.32566756  0.35526287  0.08078998  1
  O  O3  1  0.82566756  0.64473713  0.41921002  1
  O  O4  1  0.05000541  0.45874142  0.28254654  1
  O  O5  1  0.55000541  0.54125858  0.21745346  1
  O  O6  1  0.59953824  0.23416863  0.04578586  1
  O  O7  1  0.09953824  0.76583137  0.45421414  1
  O  O8  1  0.40046176  0.76583137  0.95421414  1
  O  O9  1  0.90046176  0.23416863  0.54578586  1
  O  O10  1  0.87335812  0.24058495  0.96092429  1
  O  O11  1  0.37335812  0.75941505  0.53907571  1
  O  O12  1  0.12664188  0.75941505  0.03907571  1
  O  O13  1  0.62664188  0.24058495  0.46092429  1
  O  O14  1  0.54679749  0.92129676  0.29221304  1
  O  O15  1  0.04679749  0.07870324  0.20778696  1
  O  O16  1  0.45320251  0.07870324  0.70778696  1
  O  O17  1  0.95320251  0.92129676  0.79221304  1
  O  O18  1  0.65690480  0.83473879  0.60590638  1
  O  O19  1  0.15690480  0.16526121  0.89409362  1
  O  O20  1  0.34309520  0.16526121  0.39409362  1
  O  O21  1  0.84309520  0.83473879  0.10590638  1
  O  O22  1  0.94999459  0.54125858  0.71745346  1
  O  O23  1  0.44999459  0.45874142  0.78254654  1
loop_
_geom_bond_atom_site_label_1
_geom_bond_atom_site_label_2
_geom_bond_distance
_geom_bond_site_symmetry_2
H0 O3 0.996092 1_555
H0 O21 1.669347 1_555
H1 O2 0.996092 1_555
H1 O20 1.669347 1_555
H2 O1 0.996092 1_555
H2 O19 1.669347 1_555
H3 O0 0.996092 1_555
H3 O18 1.669347 1_555
H4 O23 0.998119 1_555
H4 O16 1.629475 1_555
H5 O22 0.998119 1_555
H5 O17 1.629475 1_555
H6 O6 1.001025 1_555
H6 O10 1.626928 1_554
H7 O7 1.001025 1_555
H7 O11 1.626928 1_555
H8 O8 1.001025 1_555
H8 O12 1.626928 1_556
H9 O9 1.001025 1_555
H9 O13 1.626928 1_555
H10 O13 0.997464 1_555
H10 O5 1.633713 1_555
H11 O12 0.997464 1_555
H11 O4 1.633713 1_555
H12 O11 0.997464 1_555
H12 O23 1.633713 1_555
H13 O10 0.997464 1_555
H13 O22 1.633713 1_555
H14 O14 0.997386 1_545
H14 O6 1.648072 1_555
H15 O15 0.997386 1_565
H15 O7 1.648072 1_555
H16 O16 0.997386 1_565
H16 O8 1.648072 1_555
H17 O17 0.997386 1_545
H17 O9 1.648072 1_555
H18 O21 0.999032 1_555
H18 O0 1.638457 1_554
H19 O20 0.999032 1_555
H19 O1 1.638457 1_555
H20 O19 0.999032 1_555
H20 O2 1.638457 1_556
H21 O18 0.999032 1_555
H21 O3 1.638457 1_555
H22 O5 0.998119 1_555
H22 O14 1.629475 1_555
H23 O4 0.998119 1_555
H23 O15 1.629475 1_555
O0 Te0 1.921642 1_556
O1 Te1 1.921642 1_555
O2 Te0 1.921642 1_555
O3 Te1 1.921642 1_655
O4 Te1 1.913907 1_555
O5 Te0 1.913907 1_555
O6 Te0 1.917220 1_555
O7 Te1 1.917220 1_555
O8 Te0 1.917220 1_556
O9 Te1 1.917220 1_655
O10 Te3 1.919896 1_656
O11 Te2 1.919896 1_565
O12 Te3 1.919896 1_565
O13 Te2 1.919896 1_555
O14 Te2 1.917398 1_565
O15 Te3 1.917398 1_555
O16 Te2 1.917398 1_555
O17 Te3 1.917398 1_666
O18 Te2 1.916635 1_565
O19 Te3 1.916635 1_556
O20 Te2 1.916635 1_555
O21 Te3 1.916635 1_665
O22 Te1 1.913907 1_655
O23 Te0 1.913907 1_556
