# generated using pymatgen
data_Sr8V3PN12
_symmetry_space_group_name_H-M   'P 1'
_cell_length_a   6.16655584
_cell_length_b   6.16336477
_cell_length_c   12.25269907
_cell_angle_alpha   90.07756892
_cell_angle_beta   89.54764514
_cell_angle_gamma   125.64089457
_symmetry_Int_Tables_number   1
_chemical_formula_structural   Sr8V3PN12
_chemical_formula_sum   'Sr8 V3 P1 N12'
_cell_volume   378.44048047
_cell_formula_units_Z   1
loop_
 _symmetry_equiv_pos_site_id
 _symmetry_equiv_pos_as_xyz
  1  'x, y, z'
loop_
 _atom_site_type_symbol
 _atom_site_label
 _atom_site_symmetry_multiplicity
 _atom_site_fract_x
 _atom_site_fract_y
 _atom_site_fract_z
 _atom_site_occupancy
  Sr  Sr0  1  0.55880343  0.94010376  0.85374259  1
  Sr  Sr1  1  0.95034441  0.56114745  0.35957295  1
  Sr  Sr2  1  0.44302194  0.04397840  0.14644012  1
  Sr  Sr3  1  0.05151147  0.44846219  0.64623283  1
  Sr  Sr4  1  0.64731995  0.86533397  0.42781589  1
  Sr  Sr5  1  0.13579157  0.35104234  0.07526202  1
  Sr  Sr6  1  0.36622159  0.13974814  0.57926636  1
  Sr  Sr7  1  0.85821873  0.63615250  0.92043039  1
  V  V0  1  0.25887711  0.25360192  0.33778631  1
  V  V1  1  0.24571743  0.25309222  0.82867790  1
  V  V2  1  0.74855387  0.73904830  0.16418789  1
  P  P0  1  0.74415487  0.75752421  0.66236016  1
  N  N0  1  0.66826173  0.84268277  0.04603110  1
  N  N1  1  0.15394342  0.33586415  0.45570647  1
  N  N2  1  0.33644974  0.15427883  0.94594428  1
  N  N3  1  0.83880170  0.66884935  0.55720678  1
  N  N4  1  0.97628964  0.02377358  0.25091154  1
  N  N5  1  0.01034307  0.95895566  0.74256672  1
  N  N6  1  0.45029910  0.55038266  0.25094230  1
  N  N7  1  0.09243072  0.41260625  0.86556910  1
  N  N8  1  0.43499310  0.11159443  0.36867501  1
  N  N9  1  0.88978370  0.56231652  0.13330426  1
  N  N10  1  0.59416285  0.90197019  0.63845371  1
  N  N11  1  0.54570686  0.48749021  0.74291231  1
loop_
_geom_bond_atom_site_label_1
_geom_bond_atom_site_label_2
_geom_bond_distance
_geom_bond_site_symmetry_2
N0 V2 1.769597 1_555
N0 Sr0 2.620759 1_554
N0 Sr2 2.638020 1_565
N0 Sr7 2.657962 1_554
N0 Sr5 2.782653 1_665
N0 Sr5 2.912158 1_555
N1 V0 1.768879 1_555
N1 Sr3 2.610269 1_555
N1 Sr1 2.636488 1_455
N1 Sr6 2.710505 1_555
N1 Sr4 2.782566 1_445
N1 Sr4 2.904888 1_555
N2 V1 1.777811 1_555
N2 Sr0 2.641913 1_545
N2 Sr5 2.687943 1_556
N2 Sr2 2.734901 1_556
N2 Sr7 2.833558 1_445
N2 Sr7 2.849727 1_555
N3 P0 1.630127 1_555
N3 Sr3 2.618863 1_655
N3 Sr4 2.659972 1_555
N3 Sr1 2.697982 1_555
N3 Sr6 2.843486 1_665
N3 Sr6 2.848633 1_555
N4 V0 1.823377 1_655
N4 V2 1.824088 1_545
N4 Sr5 2.708159 1_655
N4 Sr4 2.719339 1_545
N4 Sr1 3.066526 1_545
N5 P0 1.687818 1_455
N5 V1 1.859814 1_565
N5 Sr6 2.673577 1_565
N5 Sr7 2.718842 1_455
N5 Sr0 3.030797 1_455
N6 V0 1.827732 1_555
N6 V2 1.828881 1_555
N6 Sr5 2.680708 1_555
N6 Sr4 2.687479 1_555
N7 V1 1.771855 1_555
N7 Sr7 2.595643 1_455
N7 Sr5 2.636005 1_556
N7 Sr3 2.722547 1_555
N7 Sr0 2.821347 1_555
N7 Sr0 2.858064 1_445
N8 V0 1.789945 1_555
N8 Sr4 2.622418 1_545
N8 Sr6 2.633484 1_555
N8 Sr1 2.742688 1_555
N8 Sr2 2.758546 1_555
N8 Sr1 2.939725 1_445
N9 V2 1.785325 1_555
N9 Sr5 2.604870 1_655
N9 Sr7 2.676297 1_554
N9 Sr2 2.749402 1_555
N9 Sr1 2.800941 1_555
N9 Sr2 2.946532 1_665
N10 P0 1.642718 1_555
N10 Sr4 2.625016 1_555
N10 Sr6 2.658766 1_565
N10 Sr0 2.666478 1_555
N10 Sr3 2.848644 1_555
N10 Sr3 2.870676 1_665
N11 P0 1.689209 1_555
N11 V1 1.863435 1_555
N11 Sr6 2.664187 1_555
N11 Sr7 2.699493 1_555
N11 Sr0 3.059659 1_555
