# generated using pymatgen
data_Ti2Be8NbSi
_symmetry_space_group_name_H-M   'P 1'
_cell_length_a   7.52947830
_cell_length_b   7.52947663
_cell_length_c   7.52947819
_cell_angle_alpha   35.02741756
_cell_angle_beta   35.02742053
_cell_angle_gamma   35.02741107
_symmetry_Int_Tables_number   1
_chemical_formula_structural   Ti2Be8NbSi
_chemical_formula_sum   'Ti2 Be8 Nb1 Si1'
_cell_volume   125.56951219
_cell_formula_units_Z   1
loop_
 _symmetry_equiv_pos_site_id
 _symmetry_equiv_pos_as_xyz
  1  'x, y, z'
loop_
 _atom_site_type_symbol
 _atom_site_label
 _atom_site_symmetry_multiplicity
 _atom_site_fract_x
 _atom_site_fract_y
 _atom_site_fract_z
 _atom_site_occupancy
  Ti  Ti0  1  0.85981512  0.85981512  0.85981512  1
  Ti  Ti1  1  0.14018488  0.14018488  0.14018488  1
  Be  Be0  1  0.41646789  0.93008432  0.41646789  1
  Be  Be1  1  0.41646789  0.41646789  0.93008432  1
  Be  Be2  1  0.93008432  0.41646789  0.41646789  1
  Be  Be3  1  0.58353211  0.06991568  0.58353211  1
  Be  Be4  1  0.58353211  0.58353211  0.06991568  1
  Be  Be5  1  0.06991568  0.58353211  0.58353211  1
  Be  Be6  1  0.66544517  0.66544517  0.66544517  1
  Be  Be7  1  0.33455483  0.33455483  0.33455483  1
  Nb  Nb0  1  0.00000000  0.00000000  0.00000000  1
  Si  Si0  1  0.50000000  0.50000000  0.50000000  1
loop_
_geom_bond_atom_site_label_1
_geom_bond_atom_site_label_2
_geom_bond_distance
_geom_bond_site_symmetry_2
Ti0 Ti1 2.846761 1_656
Ti0 Ti1 2.846762 1_566
Ti0 Ti1 2.846762 1_665
Be0 Be7 2.122759 1_565
Be0 Be6 2.125883 1_555
Be0 Be2 2.204169 1_465
Be0 Be1 2.204169 1_564
Be0 Si0 2.292226 1_555
Be0 Be2 2.327581 1_555
Be0 Be1 2.327582 1_555
Be0 Ti0 2.610614 1_554
Be0 Ti0 2.610614 1_455
Be0 Ti1 2.732342 1_565
Be0 Nb0 2.816890 1_566
Be0 Nb0 2.816890 1_665
Be1 Be7 2.122759 1_556
Be1 Be6 2.125883 1_555
Be1 Be2 2.204170 1_456
Be1 Si0 2.292227 1_555
Be1 Be2 2.327582 1_555
Be1 Ti0 2.610613 1_545
Be1 Ti0 2.610614 1_455
Be1 Ti1 2.732342 1_556
Be1 Nb0 2.816889 1_566
Be1 Nb0 2.816890 1_656
Be2 Be7 2.122759 1_655
Be2 Be6 2.125883 1_555
Be2 Si0 2.292227 1_555
Be2 Ti0 2.610614 1_545
Be2 Ti0 2.610614 1_554
Be2 Ti1 2.732341 1_655
Be2 Nb0 2.816889 1_665
Be2 Nb0 2.816890 1_656
Be3 Be6 2.122759 1_545
Be3 Be7 2.125883 1_555
Be3 Be5 2.204169 1_645
Be3 Be4 2.204169 1_546
Be3 Si0 2.292226 1_555
Be3 Be5 2.327581 1_555
Be3 Be4 2.327582 1_555
Be3 Ti1 2.610614 1_556
Be3 Ti1 2.610614 1_655
Be3 Ti0 2.732342 1_545
Be3 Nb0 2.816890 1_655
Be3 Nb0 2.816890 1_556
Be4 Be6 2.122759 1_554
Be4 Be7 2.125883 1_555
Be4 Be5 2.204170 1_654
Be4 Si0 2.292227 1_555
Be4 Be5 2.327582 1_555
Be4 Ti1 2.610613 1_565
Be4 Ti1 2.610614 1_655
Be4 Ti0 2.732342 1_554
Be4 Nb0 2.816889 1_655
Be4 Nb0 2.816890 1_565
Be5 Be6 2.122759 1_455
Be5 Be7 2.125883 1_555
Be5 Si0 2.292227 1_555
Be5 Ti1 2.610614 1_565
Be5 Ti1 2.610614 1_556
Be5 Ti0 2.732341 1_455
Be5 Nb0 2.816889 1_556
Be5 Nb0 2.816890 1_565
Be6 Nb0 2.616535 1_656
Be6 Nb0 2.616536 1_566
Be6 Nb0 2.616536 1_665
Be7 Nb0 2.616535 1_565
Be7 Nb0 2.616536 1_655
Be7 Nb0 2.616536 1_556
Nb0 Ti1 2.969230 1_555
Nb0 Ti0 2.969230 1_444
Si0 Ti1 2.675856 1_565
Si0 Ti0 2.675856 1_545
Si0 Ti0 2.675856 1_455
Si0 Ti1 2.675856 1_655
Si0 Ti0 2.675856 1_554
Si0 Ti1 2.675856 1_556
