# generated using pymatgen
data_DySnPd
_symmetry_space_group_name_H-M   'P 1'
_cell_length_a   4.60840222
_cell_length_b   7.19045621
_cell_length_c   7.93662327
_cell_angle_alpha   90.00019859
_cell_angle_beta   90.00000000
_cell_angle_gamma   90.00000000
_symmetry_Int_Tables_number   1
_chemical_formula_structural   DySnPd
_chemical_formula_sum   'Dy4 Sn4 Pd4'
_cell_volume   262.99203096
_cell_formula_units_Z   4
loop_
 _symmetry_equiv_pos_site_id
 _symmetry_equiv_pos_as_xyz
  1  'x, y, z'
loop_
 _atom_site_type_symbol
 _atom_site_label
 _atom_site_symmetry_multiplicity
 _atom_site_fract_x
 _atom_site_fract_y
 _atom_site_fract_z
 _atom_site_occupancy
  Dy  Dy0  1  0.25000000  0.49105938  0.20639471  1
  Dy  Dy1  1  0.75000000  0.50894162  0.79360629  1
  Dy  Dy2  1  0.25000000  0.99105910  0.29360427  1
  Dy  Dy3  1  0.75000000  0.00893990  0.70639373  1
  Sn  Sn0  1  0.25000000  0.30531022  0.58750604  1
  Sn  Sn1  1  0.75000000  0.19468292  0.08750803  1
  Sn  Sn2  1  0.25000000  0.80531608  0.91249297  1
  Sn  Sn3  1  0.75000000  0.69469078  0.41249196  1
  Pd  Pd0  1  0.75000000  0.29534690  0.41615645  1
  Pd  Pd1  1  0.25000000  0.20465933  0.91616179  1
  Pd  Pd2  1  0.75000000  0.79534067  0.08384221  1
  Pd  Pd3  1  0.25000000  0.70465310  0.58383955  1
loop_
_geom_bond_atom_site_label_1
_geom_bond_atom_site_label_2
_geom_bond_distance
_geom_bond_site_symmetry_2
Dy0 Pd1 3.089797 1_554
Dy0 Pd0 3.171956 1_555
Dy0 Pd0 3.171956 1_455
Dy0 Sn3 3.182575 1_455
Dy0 Sn3 3.182575 1_555
Dy0 Sn2 3.247617 1_554
Dy0 Sn1 3.277368 1_555
Dy0 Sn1 3.277368 1_455
Dy0 Sn0 3.306501 1_555
Dy0 Pd2 3.323012 1_455
Dy0 Pd2 3.323012 1_555
Dy0 Pd3 3.366394 1_555
Dy1 Pd2 3.089810 1_556
Dy1 Pd3 3.171974 1_655
Dy1 Pd3 3.171974 1_555
Dy1 Sn0 3.182587 1_655
Dy1 Sn0 3.182587 1_555
Dy1 Sn1 3.247627 1_556
Dy1 Sn2 3.277359 1_655
Dy1 Sn2 3.277359 1_555
Dy1 Sn3 3.306522 1_555
Dy1 Pd1 3.323024 1_655
Dy1 Pd1 3.323024 1_555
Dy1 Pd0 3.366432 1_555
Dy2 Pd3 3.089851 1_555
Dy2 Pd2 3.171971 1_455
Dy2 Pd2 3.171971 1_555
Dy2 Sn1 3.182551 1_465
Dy2 Sn1 3.182551 1_565
Dy2 Sn0 3.247578 1_565
Dy2 Sn3 3.277337 1_555
Dy2 Sn3 3.277337 1_455
Dy2 Sn2 3.306474 1_554
Dy2 Pd0 3.323038 1_565
Dy2 Pd0 3.323038 1_465
Dy2 Pd1 3.366408 1_564
Dy3 Pd0 3.089867 1_555
Dy3 Pd1 3.171999 1_655
Dy3 Pd1 3.171999 1_555
Dy3 Sn2 3.182563 1_645
Dy3 Sn2 3.182563 1_545
Dy3 Sn3 3.247568 1_545
Dy3 Sn0 3.277346 1_555
Dy3 Sn0 3.277346 1_655
Dy3 Sn1 3.306496 1_556
Dy3 Pd3 3.323038 1_545
Dy3 Pd3 3.323038 1_645
Dy3 Pd2 3.366447 1_546
Pd0 Sn0 2.676547 1_555
Pd0 Sn0 2.676547 1_655
Pd0 Sn1 2.706924 1_555
Pd0 Sn3 2.871612 1_555
Pd1 Sn1 2.676536 1_556
Pd1 Sn1 2.676536 1_456
Pd1 Sn0 2.706960 1_555
Pd1 Sn2 2.871608 1_545
Pd2 Sn2 2.676548 1_554
Pd2 Sn2 2.676548 1_654
Pd2 Sn3 2.706912 1_555
Pd2 Sn1 2.871600 1_565
Pd3 Sn3 2.676539 1_455
Pd3 Sn3 2.676539 1_555
Pd3 Sn2 2.706960 1_555
Pd3 Sn0 2.871605 1_555
