# generated using pymatgen
data_V10GeB4As
_symmetry_space_group_name_H-M   'P 1'
_cell_length_a   6.77169420
_cell_length_b   6.77164942
_cell_length_c   6.77335887
_cell_angle_alpha   129.42743622
_cell_angle_beta   129.42763256
_cell_angle_gamma   74.32452220
_symmetry_Int_Tables_number   1
_chemical_formula_structural   V10GeB4As
_chemical_formula_sum   'V10 Ge1 B4 As1'
_cell_volume   180.64115091
_cell_formula_units_Z   1
loop_
 _symmetry_equiv_pos_site_id
 _symmetry_equiv_pos_as_xyz
  1  'x, y, z'
loop_
 _atom_site_type_symbol
 _atom_site_label
 _atom_site_symmetry_multiplicity
 _atom_site_fract_x
 _atom_site_fract_y
 _atom_site_fract_z
 _atom_site_occupancy
  V  V0  1  0.53158144  0.69598370  0.49914203  1
  V  V1  1  0.03240914  0.53142571  0.83540972  1
  V  V2  1  0.69599355  0.19689753  0.16430846  1
  V  V3  1  0.96857325  0.46760679  0.16461517  1
  V  V4  1  0.19694063  0.03242386  0.50098447  1
  V  V5  1  0.46757556  0.30305720  0.49903582  1
  V  V6  1  0.80400954  0.96840601  0.50085113  1
  V  V7  1  0.30309820  0.80399565  0.83567089  1
  V  V8  1  0.99938052  0.99948737  0.00002384  1
  V  V9  1  0.50054458  0.50062205  0.99998138  1
  Ge  Ge0  1  0.74994671  0.75004509  0.99999990  1
  B  B0  1  0.61602504  0.11606466  0.73194335  1
  B  B1  1  0.11589993  0.38409518  0.49998728  1
  B  B2  1  0.88403476  0.61596510  0.49999130  1
  B  B3  1  0.38395382  0.88399733  0.26806854  1
  As  As0  1  0.25003434  0.24992776  0.99998771  1
loop_
_geom_bond_atom_site_label_1
_geom_bond_atom_site_label_2
_geom_bond_distance
_geom_bond_site_symmetry_2
V0 V8 2.603692 1_556
V0 V9 2.606094 1_554
V1 V8 2.604620 1_456
V1 V9 2.604789 1_555
V2 V8 2.603128 1_545
V2 V9 2.605048 1_554
V3 V9 2.604389 1_554
V3 V8 2.604635 1_545
V4 V9 2.605185 1_555
V4 V8 2.605208 1_445
V5 V9 2.604978 1_555
V5 V8 2.605111 1_445
V6 V9 2.603547 1_554
V6 V8 2.605962 1_556
V7 V9 2.603141 1_555
V7 V8 2.605134 1_456
Ge0 V7 2.483872 1_555
Ge0 V2 2.483916 1_566
Ge0 V5 2.484382 1_555
Ge0 V4 2.484435 1_666
Ge0 V6 2.484440 1_556
Ge0 V0 2.484474 1_555
Ge0 V3 2.484922 1_556
Ge0 V1 2.484982 1_655
Ge0 V9 2.691827 1_555
Ge0 V8 2.692073 1_556
B0 B3 1.897957 1_545
B0 V6 2.219338 1_545
B0 V4 2.219411 1_555
B0 V5 2.222109 1_555
B0 V0 2.222954 1_545
B0 V3 2.297293 1_556
B0 V2 2.297603 1_556
B0 V8 2.320617 1_546
B0 V9 2.320909 1_555
B1 B2 1.896952 1_455
B1 V3 2.218893 1_455
B1 V1 2.219091 1_555
B1 V7 2.221808 1_555
B1 V2 2.221851 1_455
B1 V5 2.298097 1_555
B1 V4 2.298210 1_555
B1 V8 2.321032 1_445
B1 V9 2.321199 1_555
B2 V7 2.218886 1_655
B2 V2 2.218916 1_555
B2 V3 2.222506 1_555
B2 V1 2.222730 1_655
B2 V6 2.297185 1_555
B2 V0 2.297321 1_555
B2 V9 2.321317 1_554
B2 V8 2.321455 1_556
B3 V5 2.219215 1_565
B3 V0 2.219435 1_555
B3 V4 2.222315 1_565
B3 V6 2.222810 1_555
B3 V1 2.297386 1_554
B3 V7 2.297625 1_554
B3 V9 2.320751 1_554
B3 V8 2.321013 1_455
As0 V7 2.477718 1_545
As0 V2 2.477867 1_556
As0 V6 2.478136 1_445
As0 V4 2.478271 1_555
As0 V0 2.478302 1_556
As0 V5 2.478344 1_556
As0 V1 2.478397 1_555
As0 V3 2.478412 1_456
As0 V8 2.704367 1_446
As0 V9 2.704802 1_555
