# generated using pymatgen
data_CsBaTaSe4
_symmetry_space_group_name_H-M   'P 1'
_cell_length_a   7.43385047
_cell_length_b   9.99656718
_cell_length_c   13.08942267
_cell_angle_alpha   90.00000000
_cell_angle_beta   90.00000000
_cell_angle_gamma   90.00000000
_symmetry_Int_Tables_number   1
_chemical_formula_structural   CsBaTaSe4
_chemical_formula_sum   'Cs4 Ba4 Ta4 Se16'
_cell_volume   972.71407885
_cell_formula_units_Z   4
loop_
 _symmetry_equiv_pos_site_id
 _symmetry_equiv_pos_as_xyz
  1  'x, y, z'
loop_
 _atom_site_type_symbol
 _atom_site_label
 _atom_site_symmetry_multiplicity
 _atom_site_fract_x
 _atom_site_fract_y
 _atom_site_fract_z
 _atom_site_occupancy
  Cs  Cs0  1  0.75000000  0.36870781  0.09247374  1
  Cs  Cs1  1  0.25000000  0.13129219  0.59247374  1
  Cs  Cs2  1  0.75000000  0.86870781  0.40752626  1
  Cs  Cs3  1  0.25000000  0.63129219  0.90752626  1
  Ba  Ba0  1  0.75000000  0.01847022  0.82735453  1
  Ba  Ba1  1  0.25000000  0.48152978  0.32735453  1
  Ba  Ba2  1  0.75000000  0.51847022  0.67264547  1
  Ba  Ba3  1  0.25000000  0.98152978  0.17264547  1
  Ta  Ta0  1  0.75000000  0.27327864  0.41983892  1
  Ta  Ta1  1  0.25000000  0.22672136  0.91983892  1
  Ta  Ta2  1  0.75000000  0.77327864  0.08016108  1
  Ta  Ta3  1  0.25000000  0.72672136  0.58016108  1
  Se  Se0  1  0.75000000  0.19715972  0.59334079  1
  Se  Se1  1  0.25000000  0.30284028  0.09334079  1
  Se  Se2  1  0.75000000  0.69715972  0.90665921  1
  Se  Se3  1  0.25000000  0.80284028  0.40665921  1
  Se  Se4  1  0.75000000  0.01269647  0.08634258  1
  Se  Se5  1  0.25000000  0.48730353  0.58634258  1
  Se  Se6  1  0.75000000  0.51269647  0.41365742  1
  Se  Se7  1  0.25000000  0.98730353  0.91365742  1
  Se  Se8  1  0.01054413  0.18989917  0.33514794  1
  Se  Se9  1  0.98945587  0.31010083  0.83514794  1
  Se  Se10  1  0.48945587  0.68989917  0.16485206  1
  Se  Se11  1  0.51054413  0.81010083  0.66485206  1
  Se  Se12  1  0.98945587  0.81010083  0.66485206  1
  Se  Se13  1  0.01054413  0.68989917  0.16485206  1
  Se  Se14  1  0.51054413  0.31010083  0.83514794  1
  Se  Se15  1  0.48945587  0.18989917  0.33514794  1
loop_
_geom_bond_atom_site_label_1
_geom_bond_atom_site_label_2
_geom_bond_distance
_geom_bond_site_symmetry_2
Cs0 Se4 3.559796 1_555
Cs0 Se1 3.774814 1_655
Cs0 Se1 3.774814 1_555
Cs0 Se9 3.854479 1_554
Cs0 Se14 3.854479 1_554
Cs0 Se13 3.867587 1_655
Cs0 Se10 3.867587 1_555
Cs0 Se2 4.086108 1_554
Cs0 Se8 4.127513 1_655
Cs0 Se15 4.127513 1_555
Cs1 Se5 3.559796 1_555
Cs1 Se0 3.774814 1_455
Cs1 Se0 3.774814 1_555
Cs1 Se15 3.854479 1_555
Cs1 Se8 3.854479 1_555
Cs1 Se11 3.867587 1_545
Cs1 Se12 3.867587 1_445
Cs1 Se3 4.086108 1_545
Cs1 Se14 4.127513 1_555
Cs1 Se9 4.127513 1_455
Cs2 Se6 3.559796 1_555
Cs2 Se3 3.774814 1_655
Cs2 Se3 3.774814 1_555
Cs2 Se12 3.854479 1_555
Cs2 Se11 3.854479 1_555
Cs2 Se8 3.867587 1_665
Cs2 Se15 3.867587 1_565
Cs2 Se0 4.086108 1_565
Cs2 Se13 4.127513 1_655
Cs2 Se10 4.127513 1_555
Cs3 Se7 3.559796 1_555
Cs3 Se2 3.774814 1_555
Cs3 Se2 3.774814 1_455
Cs3 Se10 3.854479 1_556
Cs3 Se13 3.854479 1_556
Cs3 Se14 3.867587 1_555
Cs3 Se9 3.867587 1_455
Cs3 Se1 4.086108 1_556
Cs3 Se11 4.127513 1_555
Cs3 Se12 4.127513 1_455
Ba0 Se2 3.375575 1_545
Ba0 Se4 3.390495 1_556
Ba0 Se9 3.417322 1_555
Ba0 Se14 3.417322 1_555
Ba0 Se12 3.468700 1_545
Ba0 Se11 3.468700 1_545
Ba0 Se0 3.545901 1_555
Ba0 Se7 3.897271 1_645
Ba0 Se7 3.897271 1_545
Ba1 Se3 3.375575 1_555
Ba1 Se5 3.390495 1_555
Ba1 Se15 3.417322 1_555
Ba1 Se8 3.417322 1_555
Ba1 Se10 3.468700 1_555
Ba1 Se13 3.468700 1_555
Ba1 Se1 3.545901 1_555
Ba1 Se6 3.897271 1_555
Ba1 Se6 3.897271 1_455
Ba2 Se0 3.375575 1_555
Ba2 Se6 3.390495 1_555
Ba2 Se12 3.417322 1_555
Ba2 Se11 3.417322 1_555
Ba2 Se9 3.468700 1_555
Ba2 Se14 3.468700 1_555
Ba2 Se2 3.545901 1_555
Ba2 Se5 3.897271 1_655
Ba2 Se5 3.897271 1_555
Ba3 Se1 3.375575 1_565
Ba3 Se7 3.390495 1_554
Ba3 Se10 3.417322 1_555
Ba3 Se13 3.417322 1_555
Ba3 Se15 3.468700 1_565
Ba3 Se8 3.468700 1_565
Ba3 Se3 3.545901 1_555
Ba3 Se4 3.897271 1_565
Ba3 Se4 3.897271 1_465
Se0 Ta0 2.395126 1_555
Se1 Ta1 2.395126 1_554
Se2 Ta2 2.395126 1_556
Se3 Ta3 2.395126 1_555
Se4 Ta2 2.394724 1_545
Se5 Ta3 2.394724 1_555
Se6 Ta0 2.394724 1_555
Se7 Ta1 2.394724 1_565
Se8 Ta0 2.382227 1_455
Se9 Ta1 2.382227 1_655
Se10 Ta2 2.382227 1_555
Se11 Ta3 2.382227 1_555
Se12 Ta3 2.382227 1_655
Se13 Ta2 2.382227 1_455
Se14 Ta1 2.382227 1_555
Se15 Ta0 2.382227 1_555
