# generated using pymatgen
data_Cs5SiHS5
_symmetry_space_group_name_H-M   'P 1'
_cell_length_a   7.95533118
_cell_length_b   7.95533060
_cell_length_c   14.49933972
_cell_angle_alpha   81.96293040
_cell_angle_beta   81.96292917
_cell_angle_gamma   110.04332336
_symmetry_Int_Tables_number   1
_chemical_formula_structural   Cs5SiHS5
_chemical_formula_sum   'Cs10 Si2 H2 S10'
_cell_volume   836.01564048
_cell_formula_units_Z   2
loop_
 _symmetry_equiv_pos_site_id
 _symmetry_equiv_pos_as_xyz
  1  'x, y, z'
loop_
 _atom_site_type_symbol
 _atom_site_label
 _atom_site_symmetry_multiplicity
 _atom_site_fract_x
 _atom_site_fract_y
 _atom_site_fract_z
 _atom_site_occupancy
  Cs  Cs0  1  0.26212908  0.26212908  0.96389381  1
  Cs  Cs1  1  0.58632860  0.07196128  0.80007468  1
  Cs  Cs2  1  0.07196128  0.58632860  0.80007468  1
  Cs  Cs3  1  0.80295032  0.80295032  0.60488778  1
  Cs  Cs4  1  0.67243155  0.32756845  0.50000000  1
  Cs  Cs5  1  0.32756845  0.67243155  0.50000000  1
  Cs  Cs6  1  0.19704968  0.19704968  0.39511222  1
  Cs  Cs7  1  0.92803872  0.41367140  0.19992532  1
  Cs  Cs8  1  0.41367140  0.92803872  0.19992532  1
  Cs  Cs9  1  0.73787092  0.73787092  0.03610619  1
  Si  Si0  1  0.16745177  0.16745177  0.69452309  1
  Si  Si1  1  0.83254823  0.83254823  0.30547691  1
  H  H0  1  0.80060974  0.19939026  0.00000000  1
  H  H1  1  0.19939026  0.80060974  1.00000000  1
  S  S0  1  0.69767350  0.30232650  0.00000000  1
  S  S1  1  0.30232650  0.69767350  1.00000000  1
  S  S2  1  0.00629547  0.00629547  0.82850129  1
  S  S3  1  0.39658875  0.39658875  0.70849712  1
  S  S4  1  0.26337494  0.99341540  0.61926071  1
  S  S5  1  0.99341540  0.26337494  0.61926071  1
  S  S6  1  0.00658460  0.73662506  0.38073929  1
  S  S7  1  0.73662506  0.00658460  0.38073929  1
  S  S8  1  0.60341125  0.60341125  0.29150288  1
  S  S9  1  0.99370453  0.99370453  0.17149871  1
loop_
_geom_bond_atom_site_label_1
_geom_bond_atom_site_label_2
_geom_bond_distance
_geom_bond_site_symmetry_2
Cs0 S9 3.385312 1_446
Cs0 S2 3.396071 1_555
Cs0 H1 3.483781 1_545
Cs0 H0 3.483782 1_456
Cs0 S1 3.489469 1_555
Cs0 S0 3.489469 1_556
Cs0 S3 3.605782 1_555
Cs1 S5 3.578991 1_555
Cs1 S3 3.603405 1_555
Cs1 S2 3.622994 1_655
Cs1 S1 3.676583 1_545
Cs1 S0 3.692815 1_556
Cs1 S4 3.886592 1_545
Cs2 S4 3.578990 1_555
Cs2 S3 3.603405 1_555
Cs2 S2 3.622993 1_565
Cs2 S0 3.676583 1_456
Cs2 S1 3.692815 1_555
Cs2 S5 3.886592 1_455
Cs3 S5 3.500440 1_565
Cs3 S4 3.500440 1_655
Cs3 S6 3.613650 1_655
Cs3 S7 3.613650 1_565
Cs3 S3 3.643975 1_555
Cs4 S7 3.413666 1_555
Cs4 S5 3.413666 1_555
Cs4 S6 3.443525 1_655
Cs4 S4 3.443525 1_545
Cs4 S8 3.700133 1_555
Cs4 S3 3.700133 1_555
Cs5 S4 3.413666 1_555
Cs5 S6 3.413666 1_555
Cs5 S5 3.443525 1_455
Cs5 S7 3.443525 1_565
Cs5 S3 3.700133 1_555
Cs5 S8 3.700133 1_555
Cs6 S6 3.500440 1_545
Cs6 S7 3.500440 1_455
Cs6 S5 3.613650 1_455
Cs6 S4 3.613650 1_545
Cs6 S8 3.643975 1_555
Cs7 S7 3.578990 1_555
Cs7 S8 3.603405 1_555
Cs7 S9 3.622993 1_545
Cs7 S1 3.676583 1_654
Cs7 S0 3.692815 1_555
Cs7 S6 3.886592 1_655
Cs8 S6 3.578991 1_555
Cs8 S8 3.603405 1_555
Cs8 S9 3.622994 1_455
Cs8 S0 3.676583 1_565
Cs8 S1 3.692815 1_554
Cs8 S7 3.886592 1_565
Cs9 S2 3.385312 1_664
Cs9 S9 3.396071 1_555
Cs9 H0 3.483781 1_565
Cs9 H1 3.483782 1_654
Cs9 S0 3.489469 1_555
Cs9 S1 3.489469 1_554
Cs9 S8 3.605782 1_555
H0 S0 1.341949 1_555
H1 S1 1.341949 1_555
S2 Si0 2.131079 1_555
S3 Si0 2.148391 1_555
S4 Si0 2.145664 1_565
S5 Si0 2.145664 1_655
S6 Si1 2.145664 1_455
S7 Si1 2.145664 1_545
S8 Si1 2.148391 1_555
S9 Si1 2.131079 1_555
