# generated using pymatgen
data_KBeBiF6
_symmetry_space_group_name_H-M   'P 1'
_cell_length_a   6.01975502
_cell_length_b   6.35401658
_cell_length_c   7.00356383
_cell_angle_alpha   67.44860587
_cell_angle_beta   90.00000000
_cell_angle_gamma   90.00000000
_symmetry_Int_Tables_number   1
_chemical_formula_structural   KBeBiF6
_chemical_formula_sum   'K2 Be2 Bi2 F12'
_cell_volume   247.40019149
_cell_formula_units_Z   2
loop_
 _symmetry_equiv_pos_site_id
 _symmetry_equiv_pos_as_xyz
  1  'x, y, z'
loop_
 _atom_site_type_symbol
 _atom_site_label
 _atom_site_symmetry_multiplicity
 _atom_site_fract_x
 _atom_site_fract_y
 _atom_site_fract_z
 _atom_site_occupancy
  K  K0  1  0.25000000  0.06653082  0.79136902  1
  K  K1  1  0.75000000  0.93346918  0.20863098  1
  Be  Be0  1  0.25000000  0.76201456  0.46570789  1
  Be  Be1  1  0.75000000  0.23798544  0.53429211  1
  Bi  Bi0  1  0.25000000  0.38454203  0.18281775  1
  Bi  Bi1  1  0.75000000  0.61545797  0.81718225  1
  F  F0  1  0.45641087  0.77864001  0.59339539  1
  F  F1  1  0.54358913  0.22135999  0.40660461  1
  F  F2  1  0.95641087  0.22135999  0.40660461  1
  F  F3  1  0.04358913  0.77864001  0.59339539  1
  F  F4  1  0.25000000  0.53182179  0.43960043  1
  F  F5  1  0.75000000  0.46817821  0.56039957  1
  F  F6  1  0.49446185  0.68573601  0.04435294  1
  F  F7  1  0.50553815  0.31426399  0.95564706  1
  F  F8  1  0.99446185  0.31426399  0.95564706  1
  F  F9  1  0.00553815  0.68573601  0.04435294  1
  F  F10  1  0.25000000  0.96830399  0.25480598  1
  F  F11  1  0.75000000  0.03169601  0.74519402  1
loop_
_geom_bond_atom_site_label_1
_geom_bond_atom_site_label_2
_geom_bond_distance
_geom_bond_site_symmetry_2
Be0 F4 1.542046 1_555
Be0 F10 1.553964 1_555
Be0 F0 1.557962 1_555
Be0 F3 1.557962 1_555
Be1 F5 1.542046 1_555
Be1 F11 1.553964 1_555
Be1 F2 1.557962 1_555
Be1 F1 1.557962 1_555
Bi0 F6 2.311947 1_555
Bi0 F9 2.311947 1_555
Bi0 F4 2.323974 1_555
Bi0 F1 2.325624 1_555
Bi0 F2 2.325624 1_455
Bi0 F7 2.375276 1_554
Bi0 F8 2.375276 1_454
Bi0 F10 2.495255 1_545
Bi1 F8 2.311947 1_555
Bi1 F7 2.311947 1_555
Bi1 F5 2.323974 1_555
Bi1 F3 2.325624 1_655
Bi1 F0 2.325624 1_555
Bi1 F9 2.375276 1_656
Bi1 F6 2.375276 1_556
Bi1 F11 2.495255 1_565
F0 K0 2.959386 1_565
F0 K1 3.052774 1_555
F1 K1 2.959386 1_545
F1 K0 3.052774 1_555
F2 K1 2.959386 1_545
F2 K0 3.052774 1_655
F3 K0 2.959386 1_565
F3 K1 3.052774 1_455
F4 K0 3.037014 1_555
F5 K1 3.037014 1_555
F6 K1 2.748988 1_555
F6 K0 2.805527 1_564
F7 K0 2.748988 1_555
F7 K1 2.805527 1_546
F8 K0 2.748988 1_655
F8 K1 2.805527 1_546
F9 K1 2.748988 1_455
F9 K0 2.805527 1_564
F10 K1 3.044312 1_455
F10 K1 3.044312 1_555
F10 K0 3.061106 1_564
F11 K0 3.044312 1_555
F11 K0 3.044312 1_655
F11 K1 3.061106 1_546
