# generated using pymatgen
data_Rb2VCoS4
_symmetry_space_group_name_H-M   'P 1'
_cell_length_a   13.61568330
_cell_length_b   12.16925989
_cell_length_c   7.21745353
_cell_angle_alpha   85.16836727
_cell_angle_beta   62.94770538
_cell_angle_gamma   31.88392987
_symmetry_Int_Tables_number   1
_chemical_formula_structural   Rb2VCoS4
_chemical_formula_sum   'Rb4 V2 Co2 S8'
_cell_volume   431.36241997
_cell_formula_units_Z   2
loop_
 _symmetry_equiv_pos_site_id
 _symmetry_equiv_pos_as_xyz
  1  'x, y, z'
loop_
 _atom_site_type_symbol
 _atom_site_label
 _atom_site_symmetry_multiplicity
 _atom_site_fract_x
 _atom_site_fract_y
 _atom_site_fract_z
 _atom_site_occupancy
  Rb  Rb0  1  0.57289926  0.57289926  0.92710074  1
  Rb  Rb1  1  0.92710074  0.92710074  0.57289926  1
  Rb  Rb2  1  0.32289926  0.32289926  0.67710074  1
  Rb  Rb3  1  0.67710074  0.67710074  0.32289926  1
  V  V0  1  0.75000000  0.75000000  0.75000000  1
  V  V1  1  0.50000000  0.50000000  0.50000000  1
  Co  Co0  1  0.00000000  0.00000000  0.00000000  1
  Co  Co1  1  0.25000000  0.25000000  0.25000000  1
  S  S0  1  0.21606487  0.88726872  0.59851571  1
  S  S1  1  0.29815170  0.59851571  0.88726872  1
  S  S2  1  0.59851571  0.29815170  0.21606487  1
  S  S3  1  0.88726872  0.21606487  0.29815170  1
  S  S4  1  0.36273128  0.03393513  0.95184830  1
  S  S5  1  0.95184830  0.65148429  0.36273128  1
  S  S6  1  0.65148429  0.95184830  0.03393513  1
  S  S7  1  0.03393513  0.36273128  0.65148429  1
loop_
_geom_bond_atom_site_label_1
_geom_bond_atom_site_label_2
_geom_bond_distance
_geom_bond_site_symmetry_2
Rb0 S3 3.444649 1_555
Rb0 S0 3.444655 1_556
Rb0 S7 3.483798 1_655
Rb0 S4 3.483800 1_565
Rb0 S3 3.505181 1_466
Rb0 S0 3.505183 1_645
Rb0 S1 3.627217 1_555
Rb0 S2 3.627221 1_556
Rb1 S1 3.444653 1_565
Rb1 S2 3.444655 1_655
Rb1 S6 3.483807 1_556
Rb1 S5 3.483811 1_555
Rb1 S1 3.505181 1_654
Rb1 S2 3.505187 1_566
Rb1 S3 3.627227 1_565
Rb1 S0 3.627231 1_655
Rb2 S5 3.444653 1_545
Rb2 S6 3.444655 1_456
Rb2 S2 3.483807 1_555
Rb2 S1 3.483811 1_555
Rb2 S5 3.505181 1_456
Rb2 S6 3.505187 1_545
Rb2 S4 3.627227 1_555
Rb2 S7 3.627231 1_555
Rb3 S4 3.444649 1_565
Rb3 S7 3.444655 1_654
Rb3 S0 3.483798 1_555
Rb3 S3 3.483800 1_555
Rb3 S4 3.505181 1_654
Rb3 S7 3.505183 1_565
Rb3 S5 3.627217 1_555
Rb3 S6 3.627221 1_555
Co0 S2 2.234946 1_455
Co0 S1 2.234948 1_544
Co0 S0 2.234950 1_544
Co0 S3 2.234956 1_455
Co1 S6 2.234946 1_545
Co1 S5 2.234948 1_455
Co1 S7 2.234950 1_555
Co1 S4 2.234956 1_554
S0 V1 2.187390 1_555
S1 V1 2.187387 1_555
S2 V1 2.187382 1_555
S3 V1 2.187392 1_555
S4 V0 2.187392 1_545
S5 V0 2.187387 1_555
S6 V0 2.187382 1_554
S7 V0 2.187390 1_455
