# generated using pymatgen
data_K3CaIr2O9
_symmetry_space_group_name_H-M   'P 1'
_cell_length_a   5.99820476
_cell_length_b   5.99820510
_cell_length_c   14.47723116
_cell_angle_alpha   89.67040046
_cell_angle_beta   89.67040086
_cell_angle_gamma   119.93717404
_symmetry_Int_Tables_number   1
_chemical_formula_structural   K3CaIr2O9
_chemical_formula_sum   'K6 Ca2 Ir4 O18'
_cell_volume   451.34084991
_cell_formula_units_Z   2
loop_
 _symmetry_equiv_pos_site_id
 _symmetry_equiv_pos_as_xyz
  1  'x, y, z'
loop_
 _atom_site_type_symbol
 _atom_site_label
 _atom_site_symmetry_multiplicity
 _atom_site_fract_x
 _atom_site_fract_y
 _atom_site_fract_z
 _atom_site_occupancy
  K  K0  1  0.32978186  0.66403279  0.59872336  1
  K  K1  1  0.99860694  0.00139306  0.75000000  1
  K  K2  1  0.33596721  0.67021814  0.90127664  1
  K  K3  1  0.67021814  0.33596721  0.40127664  1
  K  K4  1  0.00139306  0.99860694  0.25000000  1
  K  K5  1  0.66403279  0.32978186  0.09872336  1
  Ca  Ca0  1  0.00000000  0.00000000  0.00000000  1
  Ca  Ca1  1  0.00000000  0.00000000  0.50000000  1
  Ir  Ir0  1  0.67110158  0.33884143  0.84814882  1
  Ir  Ir1  1  0.33884143  0.67110158  0.34814882  1
  Ir  Ir2  1  0.32889842  0.66115857  0.15185118  1
  Ir  Ir3  1  0.66115857  0.32889842  0.65185118  1
  O  O0  1  0.17303417  0.35225478  0.08974500  1
  O  O1  1  0.64774522  0.82696583  0.41025500  1
  O  O2  1  0.82696583  0.64774522  0.91025500  1
  O  O3  1  0.35225478  0.17303417  0.58974500  1
  O  O4  1  0.81103342  0.17309224  0.58640800  1
  O  O5  1  0.82690776  0.18896658  0.91359200  1
  O  O6  1  0.18896658  0.82690776  0.41359200  1
  O  O7  1  0.17309224  0.81103342  0.08640800  1
  O  O8  1  0.81058587  0.63093316  0.58342073  1
  O  O9  1  0.36906684  0.18941413  0.91657927  1
  O  O10  1  0.18941413  0.36906684  0.41657927  1
  O  O11  1  0.63093316  0.81058587  0.08342073  1
  O  O12  1  0.06358808  0.53115867  0.25267421  1
  O  O13  1  0.46884133  0.93641192  0.24732579  1
  O  O14  1  0.93641192  0.46884133  0.74732579  1
  O  O15  1  0.53115867  0.06358808  0.75267421  1
  O  O16  1  0.46914564  0.53085436  0.25000000  1
  O  O17  1  0.53085436  0.46914564  0.75000000  1
loop_
_geom_bond_atom_site_label_1
_geom_bond_atom_site_label_2
_geom_bond_distance
_geom_bond_site_symmetry_2
K0 O14 2.953259 1_455
K0 O4 2.979661 1_565
K0 O3 2.990137 1_565
K0 O8 2.995058 1_555
K0 O17 3.004269 1_555
K0 O3 3.018142 1_555
K0 O8 3.029576 1_455
K0 O4 3.041750 1_455
K0 O15 3.061586 1_565
K0 O10 3.063505 1_555
K0 O6 3.109792 1_555
K0 O1 3.175902 1_555
K1 O3 2.945916 1_655
K1 O2 2.945916 1_545
K1 O15 3.007520 1_555
K1 O14 3.007521 1_555
K1 O4 3.015755 1_555
K1 O5 3.015755 1_555
K1 O17 3.020575 1_655
K1 O17 3.020575 1_545
K1 O15 3.026011 1_655
K1 O14 3.026011 1_545
K1 O9 3.101147 1_655
K1 O8 3.101147 1_545
K2 O15 2.953259 1_565
K2 O5 2.979661 1_455
K2 O2 2.990137 1_455
K2 O9 2.995058 1_555
K2 O17 3.004269 1_555
K2 O2 3.018142 1_555
K2 O9 3.029577 1_565
K2 O5 3.041750 1_565
K2 O14 3.061586 1_455
K2 O11 3.063505 1_556
K2 O7 3.109792 1_556
K2 O0 3.175902 1_556
K3 O12 2.953259 1_655
K3 O6 2.979661 1_545
K3 O1 2.990137 1_545
K3 O10 2.995058 1_555
K3 O16 3.004269 1_555
K3 O1 3.018142 1_555
K3 O10 3.029576 1_655
K3 O6 3.041750 1_655
K3 O13 3.061586 1_545
K3 O8 3.063505 1_555
K3 O4 3.109792 1_555
K3 O3 3.175902 1_555
K4 O1 2.945916 1_455
K4 O0 2.945916 1_565
K4 O13 3.007520 1_555
K4 O12 3.007521 1_555
K4 O6 3.015755 1_555
K4 O7 3.015755 1_555
K4 O16 3.020575 1_455
K4 O16 3.020575 1_565
K4 O13 3.026011 1_455
K4 O12 3.026011 1_565
K4 O11 3.101147 1_455
K4 O10 3.101147 1_565
K5 O13 2.953259 1_545
K5 O7 2.979661 1_655
K5 O0 2.990137 1_655
K5 O11 2.995058 1_555
K5 O16 3.004269 1_555
K5 O0 3.018142 1_555
K5 O11 3.029577 1_545
K5 O7 3.041750 1_545
K5 O12 3.061586 1_655
K5 O9 3.063505 1_554
K5 O5 3.109792 1_554
K5 O2 3.175902 1_554
Ca0 O0 2.255644 1_555
Ca0 O2 2.255644 1_444
Ca0 O11 2.256792 1_445
Ca0 O9 2.256792 1_554
Ca0 O7 2.258485 1_545
Ca0 O5 2.258485 1_454
Ca1 O3 2.255644 1_555
Ca1 O1 2.255644 1_445
Ca1 O8 2.256792 1_445
Ca1 O10 2.256792 1_555
Ca1 O4 2.258485 1_455
Ca1 O6 2.258485 1_545
Ir0 O9 1.848071 1_555
Ir0 O2 1.848099 1_555
Ir0 O5 1.848821 1_555
Ir0 O14 1.998179 1_555
Ir0 O17 1.998700 1_555
Ir0 O15 1.999336 1_555
Ir1 O10 1.848071 1_555
Ir1 O1 1.848098 1_555
Ir1 O6 1.848821 1_555
Ir1 O13 1.998179 1_555
Ir1 O16 1.998700 1_555
Ir1 O12 1.999336 1_555
Ir2 O11 1.848071 1_555
Ir2 O0 1.848099 1_555
Ir2 O7 1.848821 1_555
Ir2 O12 1.998179 1_555
Ir2 O16 1.998700 1_555
Ir2 O13 1.999336 1_555
Ir3 O8 1.848071 1_555
Ir3 O3 1.848098 1_555
Ir3 O4 1.848821 1_555
Ir3 O15 1.998179 1_555
Ir3 O17 1.998700 1_555
Ir3 O14 1.999336 1_555
