# generated using pymatgen
data_Ti3V7Si6N
_symmetry_space_group_name_H-M   'P 1'
_cell_length_a   7.20183670
_cell_length_b   7.20183620
_cell_length_c   4.84681768
_cell_angle_alpha   90.00000000
_cell_angle_beta   90.00000000
_cell_angle_gamma   120.00001136
_symmetry_Int_Tables_number   1
_chemical_formula_structural   Ti3V7Si6N
_chemical_formula_sum   'Ti3 V7 Si6 N1'
_cell_volume   217.70769253
_cell_formula_units_Z   1
loop_
 _symmetry_equiv_pos_site_id
 _symmetry_equiv_pos_as_xyz
  1  'x, y, z'
loop_
 _atom_site_type_symbol
 _atom_site_label
 _atom_site_symmetry_multiplicity
 _atom_site_fract_x
 _atom_site_fract_y
 _atom_site_fract_z
 _atom_site_occupancy
  Ti  Ti0  1  1.00000000  0.76453494  0.25644741  1
  Ti  Ti1  1  0.23546506  0.23546506  0.25644741  1
  Ti  Ti2  1  0.76453494  1.00000000  0.25644741  1
  V  V0  1  1.00000000  0.23434122  0.74436221  1
  V  V1  1  0.76565878  0.76565878  0.74436221  1
  V  V2  1  0.23434122  1.00000000  0.74436221  1
  V  V3  1  0.33333300  0.66666700  0.49826648  1
  V  V4  1  0.66666700  0.33333300  0.49826648  1
  V  V5  1  0.66666700  0.33333300  0.99927309  1
  V  V6  1  0.33333300  0.66666700  0.99927309  1
  Si  Si0  1  0.00000000  0.40617465  0.23936520  1
  Si  Si1  1  0.59382535  0.59382535  0.23936520  1
  Si  Si2  1  0.40617465  0.00000000  0.23936520  1
  Si  Si3  1  1.00000000  0.59500522  0.75804739  1
  Si  Si4  1  0.40499478  0.40499478  0.75804739  1
  Si  Si5  1  0.59500522  1.00000000  0.75804739  1
  N  N0  1  0.00000000  0.00000000  0.51025223  1
loop_
_geom_bond_atom_site_label_1
_geom_bond_atom_site_label_2
_geom_bond_distance
_geom_bond_site_symmetry_2
V3 V6 2.418530 1_554
V3 V6 2.428288 1_555
V4 V5 2.418530 1_554
V4 V5 2.428288 1_555
Si0 V5 2.476477 1_454
Si0 V6 2.476479 1_554
Si0 V4 2.520600 1_455
Si0 V3 2.520601 1_555
Si0 Ti2 2.545356 1_445
Si0 Ti1 2.545356 1_555
Si0 Ti0 2.582180 1_455
Si0 V0 2.699547 1_454
Si0 V0 2.742687 1_455
Si1 V5 2.476483 1_554
Si1 V6 2.476483 1_554
Si1 V4 2.520606 1_555
Si1 V3 2.520606 1_555
Si1 Ti2 2.545356 1_555
Si1 Ti0 2.545356 1_555
Si1 Ti1 2.582179 1_555
Si1 V1 2.699547 1_554
Si1 V1 2.742687 1_555
Si2 V6 2.476477 1_544
Si2 V5 2.476479 1_554
Si2 V3 2.520600 1_545
Si2 V4 2.520601 1_555
Si2 Ti0 2.545356 1_445
Si2 Ti1 2.545356 1_555
Si2 Ti2 2.582180 1_545
Si2 V2 2.699547 1_544
Si2 V2 2.742687 1_545
Si3 V6 2.481393 1_655
Si3 V5 2.481395 1_555
Si3 V3 2.525014 1_655
Si3 V4 2.525016 1_555
Si3 V2 2.537198 1_655
Si3 V1 2.537198 1_555
Si3 V0 2.598290 1_555
Si3 Ti0 2.706666 1_556
Si3 Ti0 2.720517 1_555
Si4 V6 2.481399 1_555
Si4 V5 2.481399 1_555
Si4 V3 2.525020 1_555
Si4 V4 2.525020 1_555
Si4 V2 2.537198 1_545
Si4 V0 2.537198 1_455
Si4 V1 2.598289 1_555
Si4 Ti1 2.706666 1_556
Si4 Ti1 2.720517 1_555
Si5 V5 2.481393 1_565
Si5 V6 2.481395 1_555
Si5 V4 2.525014 1_565
Si5 V3 2.525016 1_555
Si5 V0 2.537198 1_565
Si5 V1 2.537198 1_555
Si5 V2 2.598290 1_555
Si5 Ti2 2.706666 1_556
Si5 Ti2 2.720517 1_555
N0 V1 2.033668 1_445
N0 V0 2.033668 1_455
N0 V2 2.033668 1_545
N0 Ti1 2.094977 1_555
N0 Ti0 2.094978 1_445
N0 Ti2 2.094978 1_445
