# generated using pymatgen
data_Be(InCl2)2
_symmetry_space_group_name_H-M   'P 1'
_cell_length_a   6.80217958
_cell_length_b   8.96829572
_cell_length_c   12.56998237
_cell_angle_alpha   90.00000000
_cell_angle_beta   90.00000000
_cell_angle_gamma   90.00000000
_symmetry_Int_Tables_number   1
_chemical_formula_structural   Be(InCl2)2
_chemical_formula_sum   'Be4 In8 Cl16'
_cell_volume   766.81867719
_cell_formula_units_Z   4
loop_
 _symmetry_equiv_pos_site_id
 _symmetry_equiv_pos_as_xyz
  1  'x, y, z'
loop_
 _atom_site_type_symbol
 _atom_site_label
 _atom_site_symmetry_multiplicity
 _atom_site_fract_x
 _atom_site_fract_y
 _atom_site_fract_z
 _atom_site_occupancy
  Be  Be0  1  0.75000000  0.77163257  0.92834875  1
  Be  Be1  1  0.25000000  0.22836743  0.07165125  1
  Be  Be2  1  0.25000000  0.72836743  0.42834875  1
  Be  Be3  1  0.75000000  0.27163257  0.57165125  1
  In  In0  1  0.75000000  0.51464595  0.32836358  1
  In  In1  1  0.25000000  0.48535405  0.67163642  1
  In  In2  1  0.25000000  0.98535405  0.82836358  1
  In  In3  1  0.75000000  0.01464595  0.17163642  1
  In  In4  1  0.75000000  0.87026632  0.55664652  1
  In  In5  1  0.25000000  0.12973368  0.44335348  1
  In  In6  1  0.25000000  0.62973368  0.05664652  1
  In  In7  1  0.75000000  0.37026632  0.94335348  1
  Cl  Cl0  1  0.99322716  0.69118037  0.85542280  1
  Cl  Cl1  1  0.00677284  0.30881963  0.14457720  1
  Cl  Cl2  1  0.00677284  0.80881963  0.35542280  1
  Cl  Cl3  1  0.49322716  0.30881963  0.14457720  1
  Cl  Cl4  1  0.99322716  0.19118037  0.64457720  1
  Cl  Cl5  1  0.50677284  0.69118037  0.85542280  1
  Cl  Cl6  1  0.50677284  0.19118037  0.64457720  1
  Cl  Cl7  1  0.49322716  0.80881963  0.35542280  1
  Cl  Cl8  1  0.75000000  0.99718876  0.92708914  1
  Cl  Cl9  1  0.25000000  0.00281124  0.07291086  1
  Cl  Cl10  1  0.25000000  0.50281124  0.42708914  1
  Cl  Cl11  1  0.75000000  0.49718876  0.57291086  1
  Cl  Cl12  1  0.75000000  0.18545558  0.42076463  1
  Cl  Cl13  1  0.25000000  0.81454442  0.57923537  1
  Cl  Cl14  1  0.25000000  0.31454442  0.92076463  1
  Cl  Cl15  1  0.75000000  0.68545558  0.07923537  1
loop_
_geom_bond_atom_site_label_1
_geom_bond_atom_site_label_2
_geom_bond_distance
_geom_bond_site_symmetry_2
Be0 Cl8 2.022917 1_555
Be0 Cl0 2.024395 1_555
Be0 Cl5 2.024395 1_555
Be0 Cl15 2.048064 1_556
Be1 Cl9 2.022917 1_555
Be1 Cl3 2.024395 1_555
Be1 Cl1 2.024395 1_555
Be1 Cl14 2.048064 1_554
Be2 Cl10 2.022917 1_555
Be2 Cl7 2.024395 1_555
Be2 Cl2 2.024395 1_555
Be2 Cl13 2.048064 1_555
Be3 Cl11 2.022917 1_555
Be3 Cl4 2.024395 1_555
Be3 Cl6 2.024395 1_555
Be3 Cl12 2.048064 1_555
Cl0 In6 3.122835 1_656
Cl0 In2 3.182239 1_655
Cl1 In7 3.122835 1_454
Cl1 In3 3.182239 1_455
Cl2 In4 3.122835 1_455
Cl2 In0 3.182239 1_455
Cl3 In7 3.122835 1_554
Cl3 In3 3.182239 1_555
Cl4 In5 3.122835 1_655
Cl4 In1 3.182239 1_655
Cl5 In6 3.122835 1_556
Cl5 In2 3.182239 1_555
Cl6 In5 3.122835 1_555
Cl6 In1 3.182239 1_555
Cl7 In4 3.122835 1_555
Cl7 In0 3.182239 1_555
Cl8 In3 3.077939 1_566
Cl9 In2 3.077939 1_544
Cl10 In1 3.077939 1_555
Cl11 In0 3.077939 1_555
Cl12 In0 3.172534 1_555
Cl13 In1 3.172534 1_555
Cl14 In2 3.172534 1_545
Cl15 In3 3.172534 1_565
