# generated using pymatgen
data_BiPd3
_symmetry_space_group_name_H-M   'P 1'
_cell_length_a   5.04773216
_cell_length_b   5.80359109
_cell_length_c   9.46706484
_cell_angle_alpha   90.00000000
_cell_angle_beta   89.99911212
_cell_angle_gamma   90.00000000
_symmetry_Int_Tables_number   1
_chemical_formula_structural   BiPd3
_chemical_formula_sum   'Bi4 Pd12'
_cell_volume   277.33741254
_cell_formula_units_Z   4
loop_
 _symmetry_equiv_pos_site_id
 _symmetry_equiv_pos_as_xyz
  1  'x, y, z'
loop_
 _atom_site_type_symbol
 _atom_site_label
 _atom_site_symmetry_multiplicity
 _atom_site_fract_x
 _atom_site_fract_y
 _atom_site_fract_z
 _atom_site_occupancy
  Bi  Bi0  1  0.15107024  0.50000000  0.25000431  1
  Bi  Bi1  1  0.84892976  0.50000000  0.74999569  1
  Bi  Bi2  1  0.50000000  -0.00000000  0.50000100  1
  Bi  Bi3  1  0.50000000  -0.00000000  0.99999900  1
  Pd  Pd0  1  0.66281481  0.25052334  0.25002646  1
  Pd  Pd1  1  0.66281481  0.74947666  0.25002646  1
  Pd  Pd2  1  0.33718419  0.25052434  0.74997354  1
  Pd  Pd3  1  0.33718419  0.74947566  0.74997354  1
  Pd  Pd4  1  0.50000000  0.50000000  0.00000100  1
  Pd  Pd5  1  0.50000000  0.50000000  0.49999900  1
  Pd  Pd6  1  0.85047278  -0.00000000  0.74997938  1
  Pd  Pd7  1  0.14952822  -0.00000000  0.25002062  1
  Pd  Pd8  1  -0.00000000  0.74925778  0.00000000  1
  Pd  Pd9  1  -0.00000000  0.25072392  0.50000000  1
  Pd  Pd10  1  -0.00000000  0.25074222  0.00000000  1
  Pd  Pd11  1  -0.00000000  0.74927608  0.50000000  1
loop_
_geom_bond_atom_site_label_1
_geom_bond_atom_site_label_2
_geom_bond_distance
_geom_bond_site_symmetry_2
Bi0 Pd1 2.858403 1_455
Bi0 Pd0 2.858403 1_455
Bi0 Pd9 2.876763 1_555
Bi0 Pd11 2.876763 1_555
Bi0 Pd8 2.876796 1_555
Bi0 Pd10 2.876796 1_555
Bi0 Pd7 2.901806 1_555
Bi0 Pd7 2.901806 1_565
Bi0 Pd5 2.950197 1_555
Bi0 Pd4 2.950219 1_555
Bi0 Pd1 2.961243 1_555
Bi0 Pd0 2.961243 1_555
Bi1 Pd3 2.858396 1_655
Bi1 Pd2 2.858396 1_655
Bi1 Pd11 2.876763 1_655
Bi1 Pd9 2.876763 1_655
Bi1 Pd8 2.876796 1_656
Bi1 Pd10 2.876796 1_656
Bi1 Pd6 2.901806 1_555
Bi1 Pd6 2.901806 1_565
Bi1 Pd5 2.950213 1_555
Bi1 Pd4 2.950234 1_556
Bi1 Pd2 2.961245 1_555
Bi1 Pd3 2.961245 1_555
Bi2 Pd3 2.896493 1_545
Bi2 Pd2 2.896493 1_555
Bi2 Pd0 2.896504 1_555
Bi2 Pd1 2.896504 1_545
Bi2 Pd5 2.901796 1_555
Bi2 Pd5 2.901796 1_545
Bi2 Pd11 2.913282 1_645
Bi2 Pd9 2.913282 1_655
Bi2 Pd9 2.913282 1_555
Bi2 Pd11 2.913282 1_545
Bi2 Pd6 2.954730 1_555
Bi2 Pd7 2.954743 1_555
Bi3 Pd2 2.896924 1_555
Bi3 Pd3 2.896924 1_545
Bi3 Pd1 2.896935 1_546
Bi3 Pd0 2.896935 1_556
Bi3 Pd4 2.901796 1_546
Bi3 Pd4 2.901796 1_556
Bi3 Pd8 2.913335 1_546
Bi3 Pd10 2.913335 1_556
Bi3 Pd8 2.913335 1_646
Bi3 Pd10 2.913335 1_656
Bi3 Pd6 2.954999 1_555
Bi3 Pd7 2.955011 1_556
Pd0 Pd7 2.854783 1_655
Pd0 Pd5 2.893445 1_555
Pd0 Pd4 2.893875 1_555
Pd0 Pd1 2.895721 1_555
Pd0 Pd1 2.907870 1_545
Pd0 Pd9 2.915029 1_655
Pd0 Pd10 2.915393 1_655
Pd0 Pd7 2.971004 1_555
Pd1 Pd7 2.854783 1_665
Pd1 Pd5 2.893445 1_555
Pd1 Pd4 2.893875 1_555
Pd1 Pd11 2.915029 1_655
Pd1 Pd8 2.915393 1_655
Pd1 Pd7 2.971004 1_565
Pd2 Pd6 2.854778 1_455
Pd2 Pd5 2.893459 1_555
Pd2 Pd4 2.893889 1_556
Pd2 Pd3 2.895709 1_555
Pd2 Pd3 2.907882 1_545
Pd2 Pd9 2.915026 1_555
Pd2 Pd6 2.971015 1_555
Pd3 Pd6 2.854778 1_465
Pd3 Pd5 2.893459 1_555
Pd3 Pd4 2.893889 1_556
Pd3 Pd8 2.915390 1_556
Pd3 Pd6 2.971015 1_565
Pd4 Pd8 2.909042 1_655
Pd4 Pd8 2.909042 1_555
Pd5 Pd9 2.909094 1_555
Pd5 Pd9 2.909094 1_655
Pd6 Pd9 2.878819 1_655
Pd6 Pd8 2.879213 1_646
Pd7 Pd9 2.878820 1_555
Pd7 Pd8 2.879214 1_545
Pd10 Pd6 2.879213 1_454
Pd10 Pd7 2.879214 1_555
Pd10 Pd8 2.893180 1_555
Pd10 Pd4 2.909042 1_455
Pd10 Pd4 2.909042 1_555
Pd10 Pd8 2.910411 1_545
Pd10 Pd2 2.915390 1_554
Pd11 Pd6 2.878819 1_465
Pd11 Pd7 2.878820 1_565
Pd11 Pd9 2.893393 1_555
Pd11 Pd5 2.909094 1_555
Pd11 Pd5 2.909094 1_455
Pd11 Pd9 2.910198 1_565
Pd11 Pd3 2.915026 1_555
