# generated using pymatgen
data_CaY2(B3Ir4)2
_symmetry_space_group_name_H-M   'P 1'
_cell_length_a   9.93125896
_cell_length_b   9.09273366
_cell_length_c   5.58435486
_cell_angle_alpha   81.37319043
_cell_angle_beta   64.85138666
_cell_angle_gamma   33.77541525
_symmetry_Int_Tables_number   1
_chemical_formula_structural   CaY2(B3Ir4)2
_chemical_formula_sum   'Ca1 Y2 B6 Ir8'
_cell_volume   232.15661663
_cell_formula_units_Z   1
loop_
 _symmetry_equiv_pos_site_id
 _symmetry_equiv_pos_as_xyz
  1  'x, y, z'
loop_
 _atom_site_type_symbol
 _atom_site_label
 _atom_site_symmetry_multiplicity
 _atom_site_fract_x
 _atom_site_fract_y
 _atom_site_fract_z
 _atom_site_occupancy
  Ca  Ca0  1  0.68069877  0.68069877  0.31930123  1
  Y  Y0  1  0.32167023  0.32167023  0.67832977  1
  Y  Y1  1  0.50296135  0.50296135  0.49703865  1
  B  B0  1  0.67057126  0.98184230  0.01815770  1
  B  B1  1  0.98184230  0.67057126  0.32942874  1
  B  B2  1  0.32711744  0.01813780  0.98186220  1
  B  B3  1  0.01813780  0.32711744  0.67288256  1
  B  B4  1  0.16790714  0.83188865  0.16811135  1
  B  B5  1  0.83188865  0.16790714  0.83209286  1
  Ir  Ir0  1  0.58572727  0.58572727  0.91427273  1
  Ir  Ir1  1  0.91238991  0.91238991  0.08761009  1
  Ir  Ir2  1  0.41449975  0.41449975  0.08550025  1
  Ir  Ir3  1  0.08572727  0.08572727  0.41427273  1
  Ir  Ir4  1  0.91449975  0.91449975  0.58550025  1
  Ir  Ir5  1  0.24947140  0.24947140  0.25052860  1
  Ir  Ir6  1  0.08541731  0.08541731  0.91458269  1
  Ir  Ir7  1  0.74947140  0.74947140  0.75052860  1
loop_
_geom_bond_atom_site_label_1
_geom_bond_atom_site_label_2
_geom_bond_distance
_geom_bond_site_symmetry_2
Ca0 Ir5 3.035838 1_655
Ca0 Ir5 3.035839 1_565
Ca0 Ir7 3.035839 1_554
Ca0 Ir7 3.035839 1_555
Ca0 Y1 3.079761 1_555
Ca0 Ir6 3.215936 1_565
Ca0 Ir6 3.215937 1_654
Ca0 Ir3 3.241040 1_565
Ca0 Ir3 3.241040 1_655
Ca0 Ir0 3.241041 1_555
Ca0 Ir0 3.241041 1_554
Y0 Y1 3.141338 1_555
B0 Ir5 2.124037 1_565
B0 Ir7 2.124037 1_554
B0 Ir1 2.124531 1_555
B0 Ir4 2.254817 1_554
B0 Ir2 2.254817 1_565
B0 Ca0 2.939476 1_555
B0 Y0 3.147408 1_654
B0 Y0 3.147409 1_565
B1 Ir5 2.124037 1_655
B1 Ir7 2.124037 1_555
B1 Ir1 2.124531 1_555
B1 Ir2 2.254817 1_655
B1 Ir4 2.254817 1_555
B1 Ca0 2.939476 1_555
B1 Y0 3.147408 1_565
B1 Y0 3.147409 1_654
B2 Ir6 2.129228 1_555
B2 Ir7 2.130033 1_545
B2 Ir5 2.130033 1_556
B2 Ir3 2.243091 1_556
B2 Ir0 2.243091 1_545
B2 Y0 2.986572 1_555
B2 Ca0 3.144211 1_456
B2 Ca0 3.144211 1_545
B3 Ir6 2.129228 1_555
B3 Ir7 2.130033 1_455
B3 Ir5 2.130033 1_555
B3 Ir0 2.243090 1_455
B3 Ir3 2.243091 1_555
B3 Y0 2.986572 1_555
B3 Ca0 3.144211 1_545
B3 Ca0 3.144212 1_456
B4 Ir4 2.174284 1_455
B4 Ir2 2.174285 1_555
B4 Ir0 2.179376 1_554
B4 Ir3 2.179377 1_565
B4 Ir6 2.203850 1_564
B4 Ir1 2.227165 1_455
B4 Y1 3.206300 1_465
B4 Y1 3.206300 1_554
B4 Y1 3.223899 1_555
B5 Ir2 2.174284 1_556
B5 Ir4 2.174285 1_545
B5 Ir3 2.179377 1_655
B5 Ir0 2.179377 1_555
B5 Ir6 2.203850 1_655
B5 Ir1 2.227165 1_546
B5 Y1 3.206300 1_645
B5 Y1 3.206300 1_556
B5 Y1 3.223899 1_555
Ir0 Y1 3.138948 1_556
Ir0 Y1 3.138948 1_555
Ir1 Y1 3.174810 1_654
Ir1 Y1 3.174810 1_565
Ir1 Y0 3.176081 1_565
Ir1 Y0 3.176081 1_654
Ir2 Y1 3.185249 1_554
Ir2 Y1 3.185249 1_555
Ir2 Y0 3.222354 1_555
Ir2 Y0 3.222354 1_554
Ir3 Y1 3.138947 1_455
Ir3 Y1 3.138948 1_545
Ir4 Y1 3.185249 1_655
Ir4 Y1 3.185249 1_565
Ir4 Y0 3.222353 1_565
Ir4 Y0 3.222354 1_655
Ir5 Y0 3.059630 1_554
Ir5 Y0 3.059630 1_555
Ir6 Y1 3.107703 1_456
Ir6 Y1 3.107703 1_545
Ir7 Y0 3.059629 1_655
Ir7 Y0 3.059630 1_565
