# generated using pymatgen
data_RbCdP
_symmetry_space_group_name_H-M   'P 1'
_cell_length_a   4.42101159
_cell_length_b   4.42101189
_cell_length_c   10.68941811
_cell_angle_alpha   90.00000000
_cell_angle_beta   90.00000000
_cell_angle_gamma   119.99998308
_symmetry_Int_Tables_number   1
_chemical_formula_structural   RbCdP
_chemical_formula_sum   'Rb2 Cd2 P2'
_cell_volume   180.93730034
_cell_formula_units_Z   2
loop_
 _symmetry_equiv_pos_site_id
 _symmetry_equiv_pos_as_xyz
  1  'x, y, z'
loop_
 _atom_site_type_symbol
 _atom_site_label
 _atom_site_symmetry_multiplicity
 _atom_site_fract_x
 _atom_site_fract_y
 _atom_site_fract_z
 _atom_site_occupancy
  Rb  Rb0  1  0.00000000  0.00000000  0.50000000  1
  Rb  Rb1  1  0.00000000  0.00000000  0.00000000  1
  Cd  Cd0  1  0.33333300  0.66666700  0.75000000  1
  Cd  Cd1  1  0.66666700  0.33333300  0.25000000  1
  P  P0  1  0.66666700  0.33333300  0.75000000  1
  P  P1  1  0.33333300  0.66666700  0.25000000  1
loop_
_geom_bond_atom_site_label_1
_geom_bond_atom_site_label_2
_geom_bond_distance
_geom_bond_site_symmetry_2
Cd0 P0 2.552470 1_455
Cd0 P0 2.552470 1_565
Cd0 P0 2.552477 1_555
Cd0 Rb0 3.695481 1_565
Cd0 Rb1 3.695481 1_566
Cd0 Rb1 3.695484 1_666
Cd0 Rb0 3.695484 1_665
Cd0 Rb1 3.695484 1_556
Cd0 Rb0 3.695484 1_555
Cd1 P1 2.552470 1_655
Cd1 P1 2.552470 1_545
Cd1 P1 2.552477 1_555
Cd1 Rb1 3.695481 1_655
Cd1 Rb0 3.695481 1_655
Cd1 Rb0 3.695484 1_555
Cd1 Rb1 3.695484 1_555
Cd1 Rb1 3.695484 1_665
Cd1 Rb0 3.695484 1_665
P0 Rb1 3.695481 1_656
P0 Rb0 3.695481 1_655
P0 Rb0 3.695484 1_555
P0 Rb1 3.695484 1_556
P0 Rb1 3.695484 1_666
P0 Rb0 3.695484 1_665
P1 Rb1 3.695481 1_565
P1 Rb0 3.695481 1_565
P1 Rb1 3.695484 1_665
P1 Rb0 3.695484 1_665
P1 Rb0 3.695484 1_555
P1 Rb1 3.695484 1_555
