# generated using pymatgen
data_Nb12Co12CN
_symmetry_space_group_name_H-M   'P 1'
_cell_length_a   7.93236785
_cell_length_b   7.93236763
_cell_length_c   7.93236820
_cell_angle_alpha   60.00000609
_cell_angle_beta   60.00000700
_cell_angle_gamma   60.00000375
_symmetry_Int_Tables_number   1
_chemical_formula_structural   Nb12Co12CN
_chemical_formula_sum   'Nb12 Co12 C1 N1'
_cell_volume   352.93408393
_cell_formula_units_Z   1
loop_
 _symmetry_equiv_pos_site_id
 _symmetry_equiv_pos_as_xyz
  1  'x, y, z'
loop_
 _atom_site_type_symbol
 _atom_site_label
 _atom_site_symmetry_multiplicity
 _atom_site_fract_x
 _atom_site_fract_y
 _atom_site_fract_z
 _atom_site_occupancy
  Nb  Nb0  1  0.05393956  0.05393956  0.44606044  1
  Nb  Nb1  1  0.44606044  0.05393956  0.44606044  1
  Nb  Nb2  1  0.05393956  0.44606044  0.44606044  1
  Nb  Nb3  1  0.44606044  0.44606044  0.05393956  1
  Nb  Nb4  1  0.05393956  0.44606044  0.05393956  1
  Nb  Nb5  1  0.44606044  0.05393956  0.05393956  1
  Nb  Nb6  1  0.19678640  0.19678640  0.80321360  1
  Nb  Nb7  1  0.80321360  0.19678640  0.80321360  1
  Nb  Nb8  1  0.19678640  0.80321360  0.80321360  1
  Nb  Nb9  1  0.80321360  0.80321360  0.19678640  1
  Nb  Nb10  1  0.19678640  0.80321360  0.19678640  1
  Nb  Nb11  1  0.80321360  0.19678640  0.19678640  1
  Co  Co0  1  0.42331318  0.42331318  0.73006146  1
  Co  Co1  1  0.42331318  0.73006146  0.42331318  1
  Co  Co2  1  0.73006146  0.42331318  0.42331318  1
  Co  Co3  1  0.42331318  0.42331318  0.42331318  1
  Co  Co4  1  0.82672819  0.82672819  0.51981342  1
  Co  Co5  1  0.82672819  0.51981342  0.82672819  1
  Co  Co6  1  0.51981342  0.82672819  0.82672819  1
  Co  Co7  1  0.82672819  0.82672819  0.82672819  1
  Co  Co8  1  0.62505590  0.62505590  0.12483331  1
  Co  Co9  1  0.62505590  0.12483331  0.62505590  1
  Co  Co10  1  0.12483331  0.62505590  0.62505590  1
  Co  Co11  1  0.62505590  0.62505590  0.62505590  1
  C  C0  1  0.00000000  0.00000000  0.00000000  1
  N  N0  1  0.25000000  0.25000000  0.25000000  1
loop_
_geom_bond_atom_site_label_1
_geom_bond_atom_site_label_2
_geom_bond_distance
_geom_bond_site_symmetry_2
Co0 Co11 2.389715 1_555
Co0 Co9 2.389715 1_555
Co0 Co10 2.389715 1_555
Co0 Co3 2.433240 1_555
Co0 Co1 2.433240 1_555
Co0 Co2 2.433240 1_555
Co0 Nb3 2.761376 1_556
Co0 Nb5 2.761381 1_556
Co0 Nb4 2.761381 1_556
Co0 Nb8 2.817409 1_555
Co0 Nb7 2.817409 1_555
Co0 Nb6 2.817415 1_555
Co1 Co11 2.389715 1_555
Co1 Co10 2.389715 1_555
Co1 Co8 2.389715 1_555
Co1 Co3 2.433240 1_555
Co1 Co2 2.433240 1_555
Co1 Nb1 2.761376 1_565
Co1 Nb0 2.761380 1_565
Co1 Nb5 2.761381 1_565
Co1 Nb9 2.817409 1_555
Co1 Nb8 2.817409 1_555
Co1 Nb10 2.817415 1_555
Co2 Co9 2.389715 1_555
Co2 Co8 2.389715 1_555
Co2 Co3 2.433240 1_555
Co2 Nb2 2.761376 1_655
Co2 Nb0 2.761380 1_655
Co2 Nb4 2.761381 1_655
Co2 Nb9 2.817409 1_555
Co2 Nb7 2.817409 1_555
Co2 Nb11 2.817415 1_555
Co3 Co9 2.389715 1_555
Co3 Co8 2.389715 1_555
Co3 Nb1 2.761384 1_555
Co3 Nb2 2.761384 1_555
Co3 Nb3 2.761384 1_555
Co3 Nb10 2.817412 1_555
Co3 Nb11 2.817412 1_555
Co3 Nb6 2.817412 1_555
Co4 Co9 2.388205 1_565
Co4 Co7 2.434561 1_555
Co4 Co5 2.434561 1_555
Co4 Co6 2.434561 1_555
Co4 Nb9 2.761523 1_555
Co4 Nb11 2.761532 1_565
Co4 Nb10 2.761533 1_655
Co4 Nb2 2.824617 1_655
Co4 Nb1 2.824617 1_565
Co4 Nb0 2.824630 1_665
Co5 Co8 2.388205 1_556
Co5 Co7 2.434561 1_555
Co5 Co6 2.434561 1_555
Co5 Nb7 2.761523 1_555
Co5 Nb6 2.761532 1_655
Co5 Nb11 2.761533 1_556
Co5 Nb3 2.824617 1_556
Co5 Nb2 2.824617 1_655
Co5 Nb4 2.824630 1_656
Co6 Co9 2.388205 1_565
Co6 Co8 2.388205 1_556
Co6 Co7 2.434561 1_555
Co6 Nb8 2.761523 1_555
Co6 Nb6 2.761532 1_565
Co6 Nb10 2.761533 1_556
Co6 Nb3 2.824617 1_556
Co6 Nb1 2.824617 1_565
Co6 Nb5 2.824630 1_566
Co7 Co9 2.388193 1_565
Co7 Co8 2.388193 1_556
Co7 Nb7 2.761539 1_565
Co7 Nb8 2.761539 1_655
Co7 Nb9 2.761539 1_556
Co7 Nb4 2.824623 1_656
Co7 Nb5 2.824624 1_566
Co7 Nb0 2.824624 1_665
Co8 Nb9 2.816111 1_555
Co8 Nb11 2.816117 1_555
Co8 Nb10 2.816118 1_555
Co8 Nb5 2.821546 1_565
Co8 Nb4 2.821546 1_655
Co8 Nb3 2.821553 1_555
Co9 Nb7 2.816111 1_555
Co9 Nb6 2.816118 1_555
Co9 Nb11 2.816118 1_555
Co9 Nb0 2.821546 1_655
Co9 Nb5 2.821547 1_556
Co9 Nb1 2.821553 1_555
Co10 Co7 2.388193 1_455
Co10 Co4 2.388205 1_455
Co10 Co5 2.388205 1_455
Co10 Co3 2.389715 1_555
Co10 Nb8 2.816111 1_555
Co10 Nb6 2.816118 1_555
Co10 Nb10 2.816118 1_555
Co10 Nb0 2.821546 1_565
Co10 Nb4 2.821547 1_556
Co10 Nb2 2.821553 1_555
Co11 Co4 2.388185 1_555
Co11 Co6 2.388185 1_555
Co11 Co5 2.388185 1_555
Co11 Co2 2.389715 1_555
Co11 Nb7 2.816116 1_555
Co11 Nb8 2.816116 1_555
Co11 Nb9 2.816117 1_555
Co11 Nb1 2.821547 1_565
Co11 Nb2 2.821548 1_655
Co11 Nb3 2.821548 1_556
C0 Nb10 2.207562 1_545
C0 Nb7 2.207562 1_454
C0 Nb11 2.207562 1_455
C0 Nb8 2.207562 1_544
C0 Nb6 2.207562 1_554
C0 Nb9 2.207562 1_445
N0 Nb1 2.199418 1_555
N0 Nb2 2.199418 1_555
N0 Nb5 2.199418 1_555
N0 Nb4 2.199418 1_555
N0 Nb3 2.199418 1_555
N0 Nb0 2.199418 1_555
