# generated using pymatgen
data_TiTcGeIr
_symmetry_space_group_name_H-M   'P 1'
_cell_length_a   4.31379601
_cell_length_b   4.31379660
_cell_length_c   4.31379596
_cell_angle_alpha   59.99999740
_cell_angle_beta   59.99999285
_cell_angle_gamma   59.99999978
_symmetry_Int_Tables_number   1
_chemical_formula_structural   TiTcGeIr
_chemical_formula_sum   'Ti1 Tc1 Ge1 Ir1'
_cell_volume   56.76280341
_cell_formula_units_Z   1
loop_
 _symmetry_equiv_pos_site_id
 _symmetry_equiv_pos_as_xyz
  1  'x, y, z'
loop_
 _atom_site_type_symbol
 _atom_site_label
 _atom_site_symmetry_multiplicity
 _atom_site_fract_x
 _atom_site_fract_y
 _atom_site_fract_z
 _atom_site_occupancy
  Ti  Ti0  1  0.75000000  0.75000000  0.75000000  1
  Tc  Tc0  1  0.00000000  0.00000000  0.00000000  1
  Ge  Ge0  1  0.25000000  0.25000000  0.25000000  1
  Ir  Ir0  1  0.50000000  0.50000000  0.50000000  1
loop_
_geom_bond_atom_site_label_1
_geom_bond_atom_site_label_2
_geom_bond_distance
_geom_bond_site_symmetry_2
Tc0 Ti0 2.641650 1_445
Tc0 Ti0 2.641650 1_544
Tc0 Ti0 2.641650 1_444
Tc0 Ti0 2.641650 1_454
Ge0 Tc0 2.641650 1_556
Ge0 Ir0 2.641650 1_554
Ge0 Ir0 2.641650 1_455
Ge0 Tc0 2.641650 1_655
Ge0 Tc0 2.641650 1_555
Ge0 Ir0 2.641650 1_555
Ge0 Tc0 2.641650 1_565
Ge0 Ir0 2.641650 1_545
Ge0 Ti0 3.050314 1_554
Ge0 Ti0 3.050314 1_445
Ge0 Ti0 3.050314 1_455
Ge0 Ti0 3.050314 1_544
Ge0 Ti0 3.050314 1_545
Ge0 Ti0 3.050314 1_454
Ir0 Ti0 2.641650 1_554
Ir0 Ti0 2.641650 1_455
Ir0 Ti0 2.641650 1_555
Ir0 Ti0 2.641650 1_545
