# generated using pymatgen
data_CaSc(Si7Ir3)2
_symmetry_space_group_name_H-M   'P 1'
_cell_length_a   7.95279883
_cell_length_b   7.95279942
_cell_length_c   7.95279937
_cell_angle_alpha   56.86652149
_cell_angle_beta   56.86652018
_cell_angle_gamma   56.86651819
_symmetry_Int_Tables_number   1
_chemical_formula_structural   CaSc(Si7Ir3)2
_chemical_formula_sum   'Ca1 Sc1 Si14 Ir6'
_cell_volume   329.95400266
_cell_formula_units_Z   1
loop_
 _symmetry_equiv_pos_site_id
 _symmetry_equiv_pos_as_xyz
  1  'x, y, z'
loop_
 _atom_site_type_symbol
 _atom_site_label
 _atom_site_symmetry_multiplicity
 _atom_site_fract_x
 _atom_site_fract_y
 _atom_site_fract_z
 _atom_site_occupancy
  Ca  Ca0  1  0.50000000  0.50000000  0.50000000  1
  Sc  Sc0  1  0.00000000  0.00000000  0.00000000  1
  Si  Si0  1  0.74923626  0.74923626  0.74923626  1
  Si  Si1  1  0.25076374  0.25076374  0.25076374  1
  Si  Si2  1  0.85009076  0.06266012  0.67446820  1
  Si  Si3  1  0.67446820  0.85009076  0.06266012  1
  Si  Si4  1  0.06266012  0.67446820  0.85009076  1
  Si  Si5  1  0.64907973  0.82627649  0.43510439  1
  Si  Si6  1  0.43510439  0.64907973  0.82627649  1
  Si  Si7  1  0.82627649  0.43510439  0.64907973  1
  Si  Si8  1  0.17372351  0.56489561  0.35092027  1
  Si  Si9  1  0.56489561  0.35092027  0.17372351  1
  Si  Si10  1  0.35092027  0.17372351  0.56489561  1
  Si  Si11  1  0.93733988  0.32553180  0.14990924  1
  Si  Si12  1  0.32553180  0.14990924  0.93733988  1
  Si  Si13  1  0.14990924  0.93733988  0.32553180  1
  Ir  Ir0  1  0.06866915  0.42428054  0.75400436  1
  Ir  Ir1  1  0.24599564  0.93133085  0.57571946  1
  Ir  Ir2  1  0.57571946  0.24599564  0.93133085  1
  Ir  Ir3  1  0.93133085  0.57571946  0.24599564  1
  Ir  Ir4  1  0.42428054  0.75400436  0.06866915  1
  Ir  Ir5  1  0.75400436  0.06866915  0.42428054  1
loop_
_geom_bond_atom_site_label_1
_geom_bond_atom_site_label_2
_geom_bond_distance
_geom_bond_site_symmetry_2
Ca0 Ir3 3.092475 1_555
Ca0 Ir0 3.092475 1_555
Ca0 Ir1 3.092475 1_555
Ca0 Ir5 3.092475 1_555
Ca0 Ir2 3.092475 1_555
Ca0 Ir4 3.092475 1_555
Ca0 Si8 3.104070 1_555
Ca0 Si7 3.104070 1_555
Ca0 Si5 3.104070 1_555
Ca0 Si10 3.104070 1_555
Ca0 Si6 3.104070 1_555
Ca0 Si9 3.104070 1_555
Ca0 Si4 3.183629 1_555
Ca0 Si11 3.183629 1_555
Ca0 Si2 3.183629 1_555
Ca0 Si13 3.183629 1_555
Ca0 Si12 3.183629 1_555
Ca0 Si3 3.183629 1_555
Sc0 Si12 3.112283 1_554
Sc0 Si3 3.112283 1_445
Sc0 Si13 3.112283 1_545
Sc0 Si2 3.112283 1_454
Sc0 Si11 3.112283 1_455
Sc0 Si4 3.112283 1_544
Sc0 Si9 3.178518 1_455
Sc0 Si6 3.178518 1_544
Sc0 Si10 3.178519 1_554
Sc0 Si5 3.178519 1_445
Sc0 Si7 3.178519 1_454
Sc0 Si8 3.178519 1_545
Ir0 Si7 2.432748 1_455
Ir0 Si0 2.440272 1_455
Ir0 Si12 2.442403 1_555
Ir0 Si10 2.442747 1_555
Ir0 Si4 2.462385 1_555
Ir0 Si11 2.493929 1_456
Ir0 Si8 2.529711 1_555
Ir0 Sc0 3.023424 1_556
Ir1 Si10 2.432748 1_565
Ir1 Si1 2.440272 1_565
Ir1 Si4 2.442403 1_555
Ir1 Si6 2.442747 1_555
Ir1 Si13 2.462385 1_555
Ir1 Si2 2.493928 1_465
Ir1 Si5 2.529711 1_555
Ir1 Sc0 3.023424 1_566
Ir2 Si9 2.432748 1_556
Ir2 Si1 2.440272 1_556
Ir2 Si2 2.442403 1_555
Ir2 Si7 2.442748 1_555
Ir2 Si12 2.462385 1_555
Ir2 Si3 2.493928 1_546
Ir2 Si6 2.529711 1_555
Ir2 Sc0 3.023424 1_656
Ir3 Si8 2.432748 1_655
Ir3 Si1 2.440272 1_655
Ir3 Si3 2.442403 1_555
Ir3 Si5 2.442747 1_555
Ir3 Si11 2.462385 1_555
Ir3 Si4 2.493929 1_654
Ir3 Si7 2.529711 1_555
Ir3 Sc0 3.023424 1_665
Ir4 Si6 2.432748 1_554
Ir4 Si0 2.440272 1_554
Ir4 Si13 2.442403 1_555
Ir4 Si8 2.442748 1_555
Ir4 Si3 2.462385 1_555
Ir4 Si12 2.493928 1_564
Ir4 Si9 2.529711 1_555
Ir4 Sc0 3.023424 1_565
Ir5 Si5 2.432748 1_545
Ir5 Si0 2.440272 1_545
Ir5 Si11 2.442403 1_555
Ir5 Si9 2.442747 1_555
Ir5 Si2 2.462385 1_555
Ir5 Si13 2.493928 1_645
Ir5 Si10 2.529711 1_555
Ir5 Sc0 3.023424 1_655
