# generated using pymatgen
data_RbCo2Pt4O11
_symmetry_space_group_name_H-M   'P 1'
_cell_length_a   5.91377517
_cell_length_b   5.91377379
_cell_length_c   13.55495050
_cell_angle_alpha   89.75637889
_cell_angle_beta   89.75638020
_cell_angle_gamma   120.22417697
_symmetry_Int_Tables_number   1
_chemical_formula_structural   RbCo2Pt4O11
_chemical_formula_sum   'Rb2 Co4 Pt8 O22'
_cell_volume   409.59701500
_cell_formula_units_Z   2
loop_
 _symmetry_equiv_pos_site_id
 _symmetry_equiv_pos_as_xyz
  1  'x, y, z'
loop_
 _atom_site_type_symbol
 _atom_site_label
 _atom_site_symmetry_multiplicity
 _atom_site_fract_x
 _atom_site_fract_y
 _atom_site_fract_z
 _atom_site_occupancy
  Rb  Rb0  1  0.66739131  0.33260869  0.25000000  1
  Rb  Rb1  1  0.33260869  0.66739131  0.75000000  1
  Co  Co0  1  0.33150476  0.66849524  0.25000000  1
  Co  Co1  1  0.66849524  0.33150476  0.75000000  1
  Co  Co2  1  0.50000000  0.00000000  0.00000000  1
  Co  Co3  1  0.00000000  0.50000000  0.50000000  1
  Pt  Pt0  1  0.99992005  0.00179763  0.14713700  1
  Pt  Pt1  1  0.00007995  0.99820237  0.85286300  1
  Pt  Pt2  1  0.00179763  0.99992005  0.64713700  1
  Pt  Pt3  1  0.99820237  0.00007995  0.35286300  1
  Pt  Pt4  1  0.00000000  0.50000000  0.00000000  1
  Pt  Pt5  1  0.50000000  0.50000000  0.00000000  1
  Pt  Pt6  1  0.50000000  0.00000000  0.50000000  1
  Pt  Pt7  1  0.50000000  0.50000000  0.50000000  1
  O  O0  1  0.82389176  0.64871878  0.08167344  1
  O  O1  1  0.35293932  0.16455986  0.07784900  1
  O  O2  1  0.81088905  0.16423747  0.07793082  1
  O  O3  1  0.17610824  0.35128122  0.91832656  1
  O  O4  1  0.64706068  0.83544014  0.92215100  1
  O  O5  1  0.18911095  0.83576253  0.92206918  1
  O  O6  1  0.16455986  0.35293932  0.57784900  1
  O  O7  1  0.64871878  0.82389176  0.58167344  1
  O  O8  1  0.16423747  0.81088905  0.57793082  1
  O  O9  1  0.83544014  0.64706068  0.42215100  1
  O  O10  1  0.35128122  0.17610824  0.41832656  1
  O  O11  1  0.83576253  0.18911095  0.42206918  1
  O  O12  1  0.14686736  0.85313264  0.25000000  1
  O  O13  1  0.14701209  0.29757819  0.24860659  1
  O  O14  1  0.70242181  0.85298791  0.25139341  1
  O  O15  1  0.85313264  0.14686736  0.75000000  1
  O  O16  1  0.85298791  0.70242181  0.75139341  1
  O  O17  1  0.29757819  0.14701209  0.74860659  1
  O  O18  1  0.33967725  0.67991833  0.07664462  1
  O  O19  1  0.66032275  0.32008167  0.92335538  1
  O  O20  1  0.67991833  0.33967725  0.57664462  1
  O  O21  1  0.32008167  0.66032275  0.42335538  1
loop_
_geom_bond_atom_site_label_1
_geom_bond_atom_site_label_2
_geom_bond_distance
_geom_bond_site_symmetry_2
Co0 O12 1.893366 1_555
Co0 O13 1.895617 1_555
Co0 O14 1.895617 1_555
Co0 O18 2.350100 1_555
Co0 O21 2.350100 1_555
Co1 O15 1.893366 1_555
Co1 O16 1.895617 1_555
Co1 O17 1.895617 1_555
Co1 O19 2.350100 1_555
Co1 O20 2.350100 1_555
Co2 O2 1.914907 1_555
Co2 O5 1.914907 1_544
Co2 O1 1.915711 1_555
Co2 O4 1.915711 1_544
Co2 O18 1.931158 1_545
Co2 O19 1.931158 1_554
Co3 O8 1.914906 1_555
Co3 O11 1.914906 1_455
Co3 O9 1.915711 1_455
Co3 O6 1.915711 1_555
Co3 O20 1.931159 1_455
Co3 O21 1.931159 1_555
O0 Pt5 1.999572 1_555
O0 Pt4 2.001101 1_655
O0 Pt0 2.016483 1_565
O0 Rb0 2.785877 1_555
O1 Pt5 2.010603 1_555
O1 Pt0 2.029662 1_455
O1 Rb0 2.843766 1_555
O2 Pt4 2.011404 1_655
O2 Pt0 2.033444 1_555
O2 Rb0 2.829352 1_555
O3 Pt5 1.999572 1_556
O3 Pt4 2.001101 1_556
O3 Pt1 2.016483 1_545
O3 Rb1 2.785877 1_555
O4 Pt5 2.010603 1_556
O4 Pt1 2.029662 1_655
O4 Rb1 2.843766 1_555
O5 Pt4 2.011404 1_556
O5 Pt1 2.033444 1_555
O5 Rb1 2.829352 1_555
O6 Pt7 2.010603 1_555
O6 Pt2 2.029662 1_545
O6 Rb1 2.843765 1_555
O7 Pt7 1.999571 1_555
O7 Pt6 2.001101 1_565
O7 Pt2 2.016483 1_655
O7 Rb1 2.785877 1_555
O8 Pt6 2.011404 1_565
O8 Pt2 2.033444 1_555
O8 Rb1 2.829352 1_555
O9 Pt7 2.010603 1_555
O9 Pt3 2.029662 1_565
O9 Rb0 2.843765 1_555
O10 Pt7 1.999571 1_555
O10 Pt6 2.001101 1_555
O10 Pt3 2.016483 1_455
O10 Rb0 2.785877 1_555
O11 Pt6 2.011404 1_555
O11 Pt3 2.033444 1_555
O11 Rb0 2.829352 1_555
O12 Pt0 2.059434 1_465
O12 Pt3 2.059434 1_465
O12 Rb0 2.954368 1_455
O12 Rb0 2.954368 1_565
O13 Pt0 2.051059 1_455
O13 Pt3 2.067936 1_455
O13 Rb0 2.946084 1_455
O13 Rb0 2.978655 1_555
O14 Pt3 2.051060 1_565
O14 Pt0 2.067936 1_565
O14 Rb0 2.946083 1_565
O14 Rb0 2.978655 1_555
O15 Pt1 2.059434 1_645
O15 Pt2 2.059434 1_645
O15 Rb1 2.954368 1_655
O15 Rb1 2.954368 1_545
O16 Pt1 2.051059 1_655
O16 Pt2 2.067936 1_655
O16 Rb1 2.946084 1_655
O16 Rb1 2.978655 1_555
O17 Pt2 2.051060 1_545
O17 Pt1 2.067936 1_545
O17 Rb1 2.946083 1_545
O17 Rb1 2.978655 1_555
O18 Pt4 2.030260 1_555
O18 Pt5 2.031499 1_555
O19 Pt4 2.030260 1_656
O19 Pt5 2.031499 1_556
O20 Pt6 2.030260 1_555
O20 Pt7 2.031499 1_555
O21 Pt6 2.030260 1_565
O21 Pt7 2.031499 1_555
