# generated using pymatgen
data_Ba2P(Pt3Au)2
_symmetry_space_group_name_H-M   'P 1'
_cell_length_a   9.51288136
_cell_length_b   9.51287922
_cell_length_c   4.35721718
_cell_angle_alpha   90.00000000
_cell_angle_beta   90.00000000
_cell_angle_gamma   145.87016952
_symmetry_Int_Tables_number   1
_chemical_formula_structural   Ba2P(Pt3Au)2
_chemical_formula_sum   'Ba2 P1 Pt6 Au2'
_cell_volume   221.23322478
_cell_formula_units_Z   1
loop_
 _symmetry_equiv_pos_site_id
 _symmetry_equiv_pos_as_xyz
  1  'x, y, z'
loop_
 _atom_site_type_symbol
 _atom_site_label
 _atom_site_symmetry_multiplicity
 _atom_site_fract_x
 _atom_site_fract_y
 _atom_site_fract_z
 _atom_site_occupancy
  Ba  Ba0  1  0.61676863  0.37860116  0.50000000  1
  Ba  Ba1  1  0.37860116  0.61676863  0.50000000  1
  P  P0  1  0.20618576  0.20618576  0.00000000  1
  Pt  Pt0  1  0.10882313  0.89093460  0.00000000  1
  Pt  Pt1  1  0.89093460  0.10882313  0.00000000  1
  Pt  Pt2  1  0.49603817  0.99276410  0.00000000  1
  Pt  Pt3  1  0.99276410  0.49603817  0.00000000  1
  Pt  Pt4  1  0.01193034  0.01193034  0.50000000  1
  Pt  Pt5  1  0.61868076  0.61868076  0.00000000  1
  Au  Au0  1  0.19751930  0.79535705  0.50000000  1
  Au  Au1  1  0.79535705  0.19751930  0.50000000  1
loop_
_geom_bond_atom_site_label_1
_geom_bond_atom_site_label_2
_geom_bond_distance
_geom_bond_site_symmetry_2
Ba0 Pt5 3.145450 1_556
Ba0 Pt5 3.145450 1_555
Ba0 Pt4 3.470803 1_555
Ba0 P0 3.476529 1_556
Ba0 P0 3.476529 1_555
Ba0 Pt3 3.488922 1_555
Ba0 Pt3 3.488922 1_556
Ba0 Pt0 3.536262 1_546
Ba0 Pt0 3.536262 1_545
Ba0 Pt2 3.543800 1_546
Ba0 Pt2 3.543800 1_545
Ba0 Pt0 3.555549 1_656
Ba0 Pt0 3.555549 1_655
Ba0 Pt4 3.596468 1_665
Ba1 Pt5 3.145450 1_555
Ba1 Pt5 3.145450 1_556
Ba1 Pt4 3.470801 1_555
Ba1 P0 3.476528 1_555
Ba1 P0 3.476528 1_556
Ba1 Pt2 3.488921 1_555
Ba1 Pt2 3.488921 1_556
Ba1 Pt1 3.536262 1_455
Ba1 Pt1 3.536262 1_456
Ba1 Pt3 3.543801 1_456
Ba1 Pt3 3.543801 1_455
Ba1 Pt1 3.555549 1_565
Ba1 Pt1 3.555549 1_566
Ba1 Pt4 3.596470 1_665
P0 Pt0 2.291957 1_545
P0 Pt1 2.291958 1_455
P0 Pt5 2.303044 1_555
P0 Pt4 2.433644 1_555
P0 Pt4 2.433644 1_554
Pt0 Pt3 2.909409 1_455
Pt0 Pt2 2.932485 1_555
Pt0 Pt4 2.945703 1_565
Pt0 Pt4 2.945703 1_564
Pt1 Pt2 2.909410 1_545
Pt1 Pt3 2.932484 1_555
Pt1 Pt4 2.945703 1_655
Pt1 Pt4 2.945703 1_654
Pt2 Pt3 2.792237 1_565
Pt2 Pt3 2.792237 1_455
Pt4 Pt5 3.093051 1_445
Pt4 Pt5 3.093051 1_446
Au0 Pt3 2.732402 1_455
Au0 Pt3 2.732402 1_456
Au0 Pt2 2.740162 1_555
Au0 Pt2 2.740162 1_556
Au0 Pt0 2.748635 1_555
Au0 Pt0 2.748635 1_556
Au0 Ba0 3.158867 1_455
Au0 Ba0 3.171145 1_565
Au0 Ba1 3.270869 1_555
Au1 Pt2 2.732402 1_546
Au1 Pt2 2.732402 1_545
Au1 Pt3 2.740162 1_556
Au1 Pt3 2.740162 1_555
Au1 Pt1 2.748635 1_556
Au1 Pt1 2.748635 1_555
Au1 Ba1 3.158866 1_545
Au1 Ba1 3.171146 1_655
Au1 Ba0 3.270869 1_555
