# generated using pymatgen
data_CsTiAs2Pd
_symmetry_space_group_name_H-M   'P 1'
_cell_length_a   8.26091544
_cell_length_b   8.26091439
_cell_length_c   8.26091468
_cell_angle_alpha   151.11983168
_cell_angle_beta   151.11982464
_cell_angle_gamma   41.30006052
_symmetry_Int_Tables_number   1
_chemical_formula_structural   CsTiAs2Pd
_chemical_formula_sum   'Cs1 Ti1 As2 Pd1'
_cell_volume   131.21539507
_cell_formula_units_Z   1
loop_
 _symmetry_equiv_pos_site_id
 _symmetry_equiv_pos_as_xyz
  1  'x, y, z'
loop_
 _atom_site_type_symbol
 _atom_site_label
 _atom_site_symmetry_multiplicity
 _atom_site_fract_x
 _atom_site_fract_y
 _atom_site_fract_z
 _atom_site_occupancy
  Cs  Cs0  1  0.00000000  0.00000000  0.00000000  1
  Ti  Ti0  1  0.25000000  0.75000000  0.50000000  1
  As  As0  1  0.34501208  0.34501208  0.00000000  1
  As  As1  1  0.65498792  0.65498792  1.00000000  1
  Pd  Pd0  1  0.75000000  0.25000000  0.50000000  1
loop_
_geom_bond_atom_site_label_1
_geom_bond_atom_site_label_2
_geom_bond_distance
_geom_bond_site_symmetry_2
As0 Ti0 2.530086 1_544
As0 Ti0 2.530086 1_555
As0 Pd0 2.530086 1_555
As0 Pd0 2.530087 1_454
As0 Cs0 3.772113 1_565
As0 Cs0 3.772113 1_554
As0 Cs0 3.772113 1_666
As0 Cs0 3.772113 1_655
As1 Pd0 2.530086 1_566
As1 Pd0 2.530086 1_555
As1 Ti0 2.530086 1_555
As1 Ti0 2.530087 1_656
As1 Cs0 3.772113 1_656
As1 Cs0 3.772113 1_667
As1 Cs0 3.772113 1_555
As1 Cs0 3.772113 1_566
Pd0 Ti0 2.913285 1_656
Pd0 Ti0 2.913285 1_544
Pd0 Ti0 2.913285 1_645
Pd0 Ti0 2.913285 1_555
