# generated using pymatgen
data_Y9Sc(Zn2Bi)2
_symmetry_space_group_name_H-M   'P 1'
_cell_length_a   8.61090753
_cell_length_b   8.61090805
_cell_length_c   8.61090845
_cell_angle_alpha   124.04016254
_cell_angle_beta   124.04016485
_cell_angle_gamma   83.13398951
_symmetry_Int_Tables_number   1
_chemical_formula_structural   Y9Sc(Zn2Bi)2
_chemical_formula_sum   'Y9 Sc1 Zn4 Bi2'
_cell_volume   420.59001606
_cell_formula_units_Z   1
loop_
 _symmetry_equiv_pos_site_id
 _symmetry_equiv_pos_as_xyz
  1  'x, y, z'
loop_
 _atom_site_type_symbol
 _atom_site_label
 _atom_site_symmetry_multiplicity
 _atom_site_fract_x
 _atom_site_fract_y
 _atom_site_fract_z
 _atom_site_occupancy
  Y  Y0  1  0.00000000  0.00000000  0.00000000  1
  Y  Y1  1  0.79278009  0.29748258  0.80804282  1
  Y  Y2  1  0.20721991  0.70251742  0.19195718  1
  Y  Y3  1  0.48943776  0.98473527  0.19195718  1
  Y  Y4  1  0.29748258  0.48943776  0.50470249  1
  Y  Y5  1  0.01526473  0.20721991  0.50470249  1
  Y  Y6  1  0.51056224  0.01526473  0.80804282  1
  Y  Y7  1  0.70251742  0.51056224  0.49529751  1
  Y  Y8  1  0.98473527  0.79278009  0.49529751  1
  Sc  Sc0  1  0.50000000  0.50000000  0.00000000  1
  Zn  Zn0  1  0.14370085  0.63814597  0.78184582  1
  Zn  Zn1  1  0.85629915  0.36185403  0.21815418  1
  Zn  Zn2  1  0.63814597  0.85629915  0.49444512  1
  Zn  Zn3  1  0.36185403  0.14370085  0.50555488  1
  Bi  Bi0  1  0.25348767  0.25348767  0.00000000  1
  Bi  Bi1  1  0.74651233  0.74651233  1.00000000  1
loop_
_geom_bond_atom_site_label_1
_geom_bond_atom_site_label_2
_geom_bond_distance
_geom_bond_site_symmetry_2
Y0 Zn2 3.145826 1_444
Y0 Zn3 3.145826 1_555
Y0 Zn0 3.145828 1_544
Y0 Zn1 3.145828 1_455
Y0 Y3 3.580950 1_545
Y0 Y6 3.580950 1_454
Y0 Y4 3.580954 1_555
Y0 Y7 3.580954 1_444
Y0 Y5 3.580954 1_555
Y0 Y8 3.580954 1_444
Y0 Y1 3.580964 1_454
Y0 Y2 3.580964 1_545
Y1 Zn1 2.965802 1_556
Y1 Zn3 2.966435 1_555
Y1 Zn2 3.032525 1_545
Y1 Y3 3.520291 1_545
Y1 Y2 3.562047 1_656
Y1 Y6 3.636384 1_555
Y1 Y7 3.751073 1_555
Y1 Y5 3.751073 1_655
Y2 Zn0 2.965802 1_554
Y2 Zn2 2.966435 1_555
Y2 Zn3 3.032525 1_565
Y2 Y6 3.520291 1_565
Y2 Y3 3.636384 1_555
Y2 Y4 3.751073 1_555
Y2 Y8 3.751073 1_455
Y3 Zn0 2.965778 1_554
Y3 Zn2 2.966419 1_555
Y3 Zn3 3.032510 1_565
Y3 Y6 3.562088 1_564
Y3 Y5 3.751092 1_665
Y3 Y7 3.751092 1_565
Y4 Zn3 2.965776 1_555
Y4 Zn0 2.966427 1_555
Y4 Zn1 3.032525 1_455
Y4 Y8 3.520313 1_455
Y4 Y7 3.562053 1_555
Y4 Y5 3.636384 1_555
Y4 Y6 3.751092 1_565
Y5 Zn3 2.965776 1_555
Y5 Zn0 2.966435 1_555
Y5 Zn1 3.032517 1_455
Y5 Y7 3.520313 1_455
Y5 Y8 3.562053 1_445
Y6 Zn1 2.965778 1_556
Y6 Zn3 2.966419 1_555
Y6 Zn2 3.032510 1_545
Y6 Y8 3.751092 1_445
Y7 Zn2 2.965776 1_555
Y7 Zn1 2.966427 1_555
Y7 Zn0 3.032525 1_655
Y7 Y8 3.636384 1_555
Y8 Zn2 2.965776 1_555
Y8 Zn1 2.966435 1_555
Y8 Zn0 3.032517 1_655
Sc0 Zn3 3.087649 1_554
Sc0 Zn2 3.087649 1_555
Sc0 Zn1 3.087651 1_555
Sc0 Zn0 3.087651 1_554
Sc0 Y3 3.537826 1_555
Sc0 Y6 3.537826 1_554
Sc0 Y8 3.537829 1_555
Sc0 Y5 3.537829 1_554
Sc0 Y7 3.537829 1_555
Sc0 Y4 3.537829 1_554
Sc0 Y1 3.537839 1_554
Sc0 Y2 3.537839 1_555
Bi0 Sc0 3.176318 1_555
Bi0 Y0 3.266195 1_555
Bi0 Y2 3.324892 1_555
Bi0 Y7 3.324893 1_555
Bi0 Y5 3.324893 1_554
Bi0 Y6 3.324902 1_554
Bi0 Y1 3.407947 1_454
Bi0 Y8 3.407950 1_444
Bi0 Y4 3.407950 1_555
Bi0 Y3 3.407958 1_545
Bi1 Sc0 3.176318 1_556
Bi1 Y0 3.266195 1_666
Bi1 Y1 3.324892 1_555
Bi1 Y4 3.324893 1_555
Bi1 Y8 3.324893 1_556
Bi1 Y3 3.324902 1_556
Bi1 Y2 3.407947 1_656
Bi1 Y5 3.407950 1_666
Bi1 Y7 3.407950 1_555
Bi1 Y6 3.407958 1_565
