# generated using pymatgen
data_Li3MnAs2
_symmetry_space_group_name_H-M   'P 1'
_cell_length_a   4.10912400
_cell_length_b   4.10912400
_cell_length_c   11.68790200
_cell_angle_alpha   90.00000000
_cell_angle_beta   90.00000000
_cell_angle_gamma   90.00000000
_symmetry_Int_Tables_number   1
_chemical_formula_structural   Li3MnAs2
_chemical_formula_sum   'Li6 Mn2 As4'
_cell_volume   197.34905703
_cell_formula_units_Z   2
loop_
 _symmetry_equiv_pos_site_id
 _symmetry_equiv_pos_as_xyz
  1  'x, y, z'
loop_
 _atom_site_type_symbol
 _atom_site_label
 _atom_site_symmetry_multiplicity
 _atom_site_fract_x
 _atom_site_fract_y
 _atom_site_fract_z
 _atom_site_occupancy
  Li  Li0  1  0.50000000  0.50000000  0.74849800  1
  Li  Li1  1  0.00000000  0.00000000  0.75150200  1
  Li  Li2  1  0.00000000  0.00000000  0.50000000  1
  Li  Li3  1  0.00000000  0.00000000  0.24849800  1
  Li  Li4  1  0.50000000  0.50000000  0.00000000  1
  Li  Li5  1  0.50000000  0.50000000  0.25150200  1
  Mn  Mn0  1  0.00000000  0.00000000  0.00000000  1
  Mn  Mn1  1  0.50000000  0.50000000  0.50000000  1
  As  As0  1  0.00000000  0.50000000  0.10755100  1
  As  As1  1  0.00000000  0.50000000  0.60755100  1
  As  As2  1  0.50000000  0.00000000  0.89244900  1
  As  As3  1  0.50000000  0.00000000  0.39244900  1
loop_
_geom_bond_atom_site_label_1
_geom_bond_atom_site_label_2
_geom_bond_distance
_geom_bond_site_symmetry_2
As0 Li4 2.408607 1_455
As0 Mn0 2.408607 1_555
As0 Li4 2.408607 1_555
As0 Mn0 2.408607 1_565
As0 Li3 2.633452 1_555
As0 Li3 2.633452 1_565
As0 Li5 2.655557 1_455
As0 Li5 2.655557 1_555
As1 Li2 2.408607 1_555
As1 Mn1 2.408607 1_455
As1 Li2 2.408607 1_565
As1 Mn1 2.408607 1_555
As1 Li0 2.633452 1_555
As1 Li0 2.633452 1_455
As1 Li1 2.655557 1_555
As1 Li1 2.655557 1_565
As2 Mn0 2.408607 1_656
As2 Mn0 2.408607 1_556
As2 Li4 2.408607 1_556
As2 Li4 2.408607 1_546
As2 Li1 2.633452 1_655
As2 Li1 2.633452 1_555
As2 Li0 2.655557 1_555
As2 Li0 2.655557 1_545
As3 Li2 2.408607 1_555
As3 Li2 2.408607 1_655
As3 Mn1 2.408607 1_545
As3 Mn1 2.408607 1_555
As3 Li5 2.633452 1_555
As3 Li5 2.633452 1_545
As3 Li3 2.655557 1_555
As3 Li3 2.655557 1_655
