# generated using pymatgen
data_BeFe4B2P
_symmetry_space_group_name_H-M   'P 1'
_cell_length_a   5.30776635
_cell_length_b   5.30776590
_cell_length_c   6.31567357
_cell_angle_alpha   114.84758500
_cell_angle_beta   114.84758104
_cell_angle_gamma   89.99999466
_symmetry_Int_Tables_number   1
_chemical_formula_structural   BeFe4B2P
_chemical_formula_sum   'Be2 Fe8 B4 P2'
_cell_volume   143.10223548
_cell_formula_units_Z   2
loop_
 _symmetry_equiv_pos_site_id
 _symmetry_equiv_pos_as_xyz
  1  'x, y, z'
loop_
 _atom_site_type_symbol
 _atom_site_label
 _atom_site_symmetry_multiplicity
 _atom_site_fract_x
 _atom_site_fract_y
 _atom_site_fract_z
 _atom_site_occupancy
  Be  Be0  1  0.50000000  0.50000000  0.00000000  1
  Be  Be1  1  0.00000000  0.00000000  0.00000000  1
  Fe  Fe0  1  0.03526646  0.53526646  0.72668019  1
  Fe  Fe1  1  0.69141273  0.19141273  0.72668019  1
  Fe  Fe2  1  0.19141273  0.03526646  0.72668019  1
  Fe  Fe3  1  0.53526646  0.69141273  0.72668019  1
  Fe  Fe4  1  0.96473354  0.46473354  0.27331981  1
  Fe  Fe5  1  0.30858727  0.80858727  0.27331981  1
  Fe  Fe6  1  0.80858727  0.96473354  0.27331981  1
  Fe  Fe7  1  0.46473354  0.30858727  0.27331981  1
  B  B0  1  0.38034664  0.88034664  0.00000000  1
  B  B1  1  0.61965336  0.11965336  1.00000000  1
  B  B2  1  0.11965336  0.38034664  1.00000000  1
  B  B3  1  0.88034664  0.61965336  0.00000000  1
  P  P0  1  0.25000000  0.25000000  0.50000000  1
  P  P1  1  0.75000000  0.75000000  0.50000000  1
loop_
_geom_bond_atom_site_label_1
_geom_bond_atom_site_label_2
_geom_bond_distance
_geom_bond_site_symmetry_2
Be0 Fe7 2.406751 1_555
Be0 Fe3 2.406751 1_554
Be0 Fe5 2.406753 1_555
Be0 Fe1 2.406753 1_554
Be0 Fe4 2.406755 1_555
Be0 Fe0 2.406755 1_554
Be0 Fe6 2.406757 1_555
Be0 Fe2 2.406757 1_554
Be0 P0 2.539761 1_554
Be0 P1 2.539761 1_555
Be1 Fe2 2.406751 1_554
Be1 Fe6 2.406751 1_445
Be1 Fe5 2.406753 1_545
Be1 Fe1 2.406753 1_454
Be1 Fe4 2.406755 1_455
Be1 Fe0 2.406755 1_544
Be1 Fe7 2.406757 1_555
Be1 Fe3 2.406757 1_444
Be1 P0 2.539761 1_555
Be1 P1 2.539761 1_444
Fe0 P0 2.278328 1_555
Fe0 P1 2.278328 1_455
Fe1 P1 2.278326 1_545
Fe1 P0 2.278327 1_555
Fe2 P1 2.278325 1_445
Fe2 P0 2.278331 1_555
Fe3 P0 2.278325 1_555
Fe3 P1 2.278331 1_555
Fe4 P1 2.278328 1_555
Fe4 P0 2.278328 1_655
Fe5 P0 2.278326 1_565
Fe5 P1 2.278327 1_555
Fe6 P0 2.278325 1_665
Fe6 P1 2.278331 1_555
Fe7 P1 2.278325 1_555
Fe7 P0 2.278331 1_555
B0 B1 1.796312 1_564
B0 Fe5 2.091652 1_555
B0 Fe0 2.091658 1_554
B0 Fe3 2.097531 1_554
B0 Fe2 2.097531 1_564
B0 Fe7 2.097534 1_565
B0 Fe6 2.097534 1_555
B0 Be0 2.116331 1_555
B0 Be1 2.116332 1_565
B1 Fe1 2.091652 1_555
B1 Fe4 2.091658 1_556
B1 Fe7 2.097531 1_556
B1 Fe6 2.097531 1_546
B1 Fe3 2.097534 1_545
B1 Fe2 2.097534 1_555
B1 Be0 2.116331 1_556
B1 Be1 2.116332 1_656
B2 B3 1.796311 1_456
B2 Fe2 2.091655 1_555
B2 Fe7 2.091655 1_556
B2 Fe4 2.097530 1_456
B2 Fe0 2.097530 1_555
B2 Fe5 2.097535 1_556
B2 Fe1 2.097535 1_455
B2 Be1 2.116331 1_556
B2 Be0 2.116332 1_556
B3 Fe6 2.091655 1_555
B3 Fe3 2.091655 1_554
B3 Fe0 2.097530 1_654
B3 Fe4 2.097530 1_555
B3 Fe1 2.097535 1_554
B3 Fe5 2.097535 1_655
B3 Be1 2.116331 1_665
B3 Be0 2.116332 1_555
