# generated using pymatgen
data_Hf8FeCo2Pt
_symmetry_space_group_name_H-M   'P 1'
_cell_length_a   8.52319187
_cell_length_b   8.52319089
_cell_length_c   8.51652603
_cell_angle_alpha   60.02585625
_cell_angle_beta   60.02586004
_cell_angle_gamma   60.10882518
_symmetry_Int_Tables_number   1
_chemical_formula_structural   Hf8FeCo2Pt
_chemical_formula_sum   'Hf16 Fe2 Co4 Pt2'
_cell_volume   438.00370445
_cell_formula_units_Z   2
loop_
 _symmetry_equiv_pos_site_id
 _symmetry_equiv_pos_as_xyz
  1  'x, y, z'
loop_
 _atom_site_type_symbol
 _atom_site_label
 _atom_site_symmetry_multiplicity
 _atom_site_fract_x
 _atom_site_fract_y
 _atom_site_fract_z
 _atom_site_occupancy
  Hf  Hf0  1  0.07278442  0.64338060  0.64191749  1
  Hf  Hf1  1  0.64338060  0.07278442  0.64191749  1
  Hf  Hf2  1  0.64546026  0.64546026  0.06488193  1
  Hf  Hf3  1  0.64546026  0.64546026  0.64419955  1
  Hf  Hf4  1  0.79864621  0.79864621  0.20135379  1
  Hf  Hf5  1  0.19537304  0.19537304  0.80462696  1
  Hf  Hf6  1  0.80672860  0.19395368  0.80483203  1
  Hf  Hf7  1  0.19395368  0.80672860  0.19448469  1
  Hf  Hf8  1  0.19395368  0.80672860  0.80483203  1
  Hf  Hf9  1  0.80672860  0.19395368  0.19448469  1
  Hf  Hf10  1  0.43645717  0.43645717  0.06354283  1
  Hf  Hf11  1  0.06112917  0.06112917  0.43887083  1
  Hf  Hf12  1  0.43561658  0.05530297  0.43774291  1
  Hf  Hf13  1  0.05530297  0.43561658  0.07133754  1
  Hf  Hf14  1  0.05530297  0.43561658  0.43774291  1
  Hf  Hf15  1  0.43561658  0.05530297  0.07133754  1
  Fe  Fe0  1  0.75125706  0.42200080  0.41337107  1
  Fe  Fe1  1  0.42200080  0.75125706  0.41337107  1
  Co  Co0  1  0.42886264  0.86031960  0.85540938  1
  Co  Co1  1  0.86031960  0.42886264  0.85540938  1
  Co  Co2  1  0.85817571  0.85817571  0.43075038  1
  Co  Co3  1  0.85817571  0.85817571  0.85289919  1
  Pt  Pt0  1  0.41965784  0.41965784  0.75043076  1
  Pt  Pt1  1  0.41965784  0.41965784  0.41025356  1
loop_
_geom_bond_atom_site_label_1
_geom_bond_atom_site_label_2
_geom_bond_distance
_geom_bond_site_symmetry_2
Hf0 Pt1 2.929354 1_555
Hf0 Pt0 2.929354 1_555
Hf0 Hf11 3.056883 1_565
Hf0 Hf8 3.118502 1_555
Hf0 Hf7 3.118509 1_555
Hf0 Hf5 3.126581 1_555
Hf0 Hf13 3.127339 1_556
Hf0 Hf14 3.127339 1_555
Hf1 Pt1 2.929354 1_555
Hf1 Pt0 2.929354 1_555
Hf1 Hf11 3.056884 1_655
Hf1 Hf6 3.118502 1_555
Hf1 Hf9 3.118509 1_555
Hf1 Hf5 3.126582 1_555
Hf1 Hf15 3.127339 1_556
Hf1 Hf12 3.127339 1_555
Hf2 Pt1 2.904893 1_555
Hf2 Hf4 3.080893 1_555
Hf2 Hf9 3.149032 1_555
Hf2 Hf7 3.149032 1_555
Hf3 Pt0 2.904899 1_555
Hf3 Hf4 3.080906 1_555
Hf3 Hf6 3.149031 1_555
Hf3 Hf8 3.149031 1_555
Hf4 Hf9 3.374994 1_565
Hf4 Hf7 3.374994 1_655
Hf4 Hf6 3.374997 1_564
Hf4 Hf8 3.374998 1_654
Hf5 Pt1 3.066043 1_555
Hf5 Pt0 3.066043 1_555
Hf6 Pt0 3.018340 1_555
Hf7 Pt1 3.018343 1_555
Hf8 Pt0 3.018340 1_555
Hf9 Pt1 3.018343 1_555
Hf10 Pt1 2.816980 1_555
Hf10 Pt0 2.816980 1_554
Hf10 Hf3 3.090323 1_554
Hf10 Hf2 3.090333 1_555
Hf10 Hf7 3.191765 1_555
Hf10 Hf9 3.191765 1_555
Hf10 Hf8 3.191769 1_554
Hf10 Hf6 3.191769 1_554
Hf10 Hf12 3.219537 1_555
Hf10 Hf15 3.219537 1_555
Hf10 Hf14 3.219537 1_555
Hf10 Hf13 3.219537 1_555
Hf11 Hf13 3.162623 1_555
Hf11 Hf14 3.162623 1_555
Hf11 Hf15 3.162623 1_555
Hf11 Hf12 3.162623 1_555
Hf11 Hf8 3.165975 1_545
Hf11 Hf6 3.165975 1_455
Hf11 Hf7 3.165983 1_545
Hf11 Hf9 3.165983 1_455
Hf12 Pt1 2.932844 1_555
Hf12 Hf3 3.044781 1_545
Hf12 Hf15 3.120501 1_555
Hf12 Hf8 3.130785 1_545
Hf12 Hf4 3.137209 1_545
Hf12 Hf5 3.206072 1_555
Hf12 Hf9 3.228767 1_555
Hf12 Hf14 3.246816 1_555
Hf13 Pt0 2.932844 1_554
Hf13 Hf2 3.044776 1_455
Hf13 Hf14 3.120501 1_555
Hf13 Hf9 3.130788 1_455
Hf13 Hf4 3.137209 1_455
Hf13 Hf5 3.206072 1_554
Hf13 Hf8 3.228767 1_554
Hf13 Hf15 3.246816 1_555
Hf14 Pt1 2.932844 1_555
Hf14 Hf3 3.044781 1_455
Hf14 Hf6 3.130785 1_455
Hf14 Hf4 3.137209 1_455
Hf14 Hf5 3.206072 1_555
Hf14 Hf7 3.228767 1_555
Hf15 Pt0 2.932843 1_554
Hf15 Hf2 3.044776 1_545
Hf15 Hf7 3.130788 1_545
Hf15 Hf4 3.137209 1_545
Hf15 Hf5 3.206072 1_554
Hf15 Hf6 3.228768 1_554
Fe0 Hf13 2.762861 1_655
Fe0 Hf14 2.762861 1_655
Fe0 Fe1 2.810929 1_555
Fe0 Pt0 2.849692 1_555
Fe0 Pt1 2.849693 1_555
Fe0 Hf11 2.879576 1_655
Fe0 Hf4 2.915586 1_555
Fe0 Hf2 2.926303 1_555
Fe0 Hf3 2.926317 1_555
Fe0 Hf1 2.940017 1_555
Fe0 Hf6 3.049650 1_555
Fe0 Hf9 3.049657 1_555
Fe1 Hf15 2.762861 1_565
Fe1 Hf12 2.762861 1_565
Fe1 Pt0 2.849692 1_555
Fe1 Pt1 2.849692 1_555
Fe1 Hf11 2.879576 1_565
Fe1 Hf4 2.915587 1_555
Fe1 Hf2 2.926303 1_555
Fe1 Hf3 2.926318 1_555
Fe1 Hf0 2.940017 1_555
Fe1 Hf8 3.049650 1_555
Fe1 Hf7 3.049657 1_555
Co0 Hf5 2.502822 1_565
Co0 Hf7 2.524416 1_556
Co0 Hf8 2.524428 1_555
Co0 Hf3 2.569251 1_555
Co0 Hf2 2.569257 1_556
Co0 Hf1 2.572245 1_565
Co0 Hf15 3.066234 1_566
Co0 Hf12 3.066242 1_565
Co0 Hf10 3.111333 1_556
Co1 Hf5 2.502822 1_655
Co1 Hf9 2.524416 1_556
Co1 Hf6 2.524428 1_555
Co1 Hf3 2.569251 1_555
Co1 Hf2 2.569257 1_556
Co1 Hf0 2.572245 1_655
Co1 Hf13 3.066235 1_656
Co1 Hf14 3.066242 1_655
Co1 Hf10 3.111334 1_556
Co2 Hf9 2.511628 1_565
Co2 Hf7 2.511629 1_655
Co2 Hf3 2.562889 1_555
Co2 Hf4 2.563047 1_555
Co2 Hf0 2.567323 1_655
Co2 Hf1 2.567323 1_565
Co2 Hf11 3.034921 1_665
Co2 Hf14 3.106777 1_655
Co2 Hf12 3.106777 1_565
Co3 Hf6 2.511623 1_565
Co3 Hf8 2.511623 1_655
Co3 Hf2 2.562889 1_556
Co3 Hf4 2.563038 1_556
Co3 Hf0 2.567329 1_655
Co3 Hf1 2.567329 1_565
Co3 Hf11 3.034926 1_665
Co3 Hf13 3.106774 1_656
Co3 Hf15 3.106775 1_566
Pt0 Pt1 2.897128 1_555
