# generated using pymatgen
data_Cs3HgBi
_symmetry_space_group_name_H-M   'P 1'
_cell_length_a   7.04111424
_cell_length_b   7.56417257
_cell_length_c   10.67814834
_cell_angle_alpha   73.71671850
_cell_angle_beta   78.45973968
_cell_angle_gamma   88.64135527
_symmetry_Int_Tables_number   1
_chemical_formula_structural   Cs3HgBi
_chemical_formula_sum   'Cs6 Hg2 Bi2'
_cell_volume   534.55434129
_cell_formula_units_Z   2
loop_
 _symmetry_equiv_pos_site_id
 _symmetry_equiv_pos_as_xyz
  1  'x, y, z'
loop_
 _atom_site_type_symbol
 _atom_site_label
 _atom_site_symmetry_multiplicity
 _atom_site_fract_x
 _atom_site_fract_y
 _atom_site_fract_z
 _atom_site_occupancy
  Cs  Cs0  1  0.82063024  0.18448478  0.77278530  1
  Cs  Cs1  1  0.74925034  0.67849289  0.01869933  1
  Cs  Cs2  1  0.17936976  0.81551522  0.22721470  1
  Cs  Cs3  1  0.67764160  0.74861715  0.52088474  1
  Cs  Cs4  1  0.32235840  0.25138285  0.47911526  1
  Cs  Cs5  1  0.25074966  0.32150711  0.98130067  1
  Hg  Hg0  1  0.14549812  0.68668653  0.66674775  1
  Hg  Hg1  1  0.85450188  0.31331347  0.33325225  1
  Bi  Bi0  1  0.68607717  0.11688287  0.17360468  1
  Bi  Bi1  1  0.31392283  0.88311713  0.82639532  1
loop_
_geom_bond_atom_site_label_1
_geom_bond_atom_site_label_2
_geom_bond_distance
_geom_bond_site_symmetry_2
Cs0 Hg0 4.231852 1_655
Cs0 Hg1 4.475810 1_555
Cs1 Hg1 3.893228 1_555
Cs1 Hg0 4.194557 1_654
Cs2 Hg1 4.231852 1_455
Cs2 Hg0 4.475810 1_555
Cs3 Hg0 3.744806 1_555
Cs3 Hg0 3.881748 1_655
Cs3 Hg1 4.273778 1_565
Cs3 Hg1 4.348996 1_555
Cs4 Hg1 3.744806 1_555
Cs4 Hg1 3.881748 1_455
Cs4 Hg0 4.273778 1_545
Cs4 Hg0 4.348996 1_555
Cs5 Hg0 3.893228 1_555
Cs5 Hg1 4.194557 1_456
Bi0 Hg1 2.972047 1_555
Bi0 Cs3 3.954964 1_545
Bi0 Cs5 4.064340 1_554
Bi0 Cs4 4.078120 1_555
Bi0 Cs1 4.079425 1_545
Bi0 Cs0 4.080537 1_554
Bi0 Cs1 4.103067 1_555
Bi0 Cs2 4.134012 1_545
Bi0 Cs2 4.156510 1_645
Bi0 Cs5 4.202758 1_654
Bi1 Hg0 2.972047 1_555
Bi1 Cs4 3.954964 1_565
Bi1 Cs1 4.064340 1_556
Bi1 Cs3 4.078120 1_555
Bi1 Cs5 4.079425 1_565
Bi1 Cs2 4.080537 1_556
Bi1 Cs5 4.103067 1_555
Bi1 Cs0 4.134012 1_565
Bi1 Cs0 4.156510 1_465
Bi1 Cs1 4.202758 1_456
