# generated using pymatgen
data_Na16TiSiP8
_symmetry_space_group_name_H-M   'P 1'
_cell_length_a   9.41433511
_cell_length_b   9.41433447
_cell_length_c   9.41433577
_cell_angle_alpha   60.00000234
_cell_angle_beta   60.00000460
_cell_angle_gamma   60.00000280
_symmetry_Int_Tables_number   1
_chemical_formula_structural   Na16TiSiP8
_chemical_formula_sum   'Na16 Ti1 Si1 P8'
_cell_volume   590.00269435
_cell_formula_units_Z   1
loop_
 _symmetry_equiv_pos_site_id
 _symmetry_equiv_pos_as_xyz
  1  'x, y, z'
loop_
 _atom_site_type_symbol
 _atom_site_label
 _atom_site_symmetry_multiplicity
 _atom_site_fract_x
 _atom_site_fract_y
 _atom_site_fract_z
 _atom_site_occupancy
  Na  Na0  1  0.62690232  0.62690232  0.11929504  1
  Na  Na1  1  0.62690232  0.11929504  0.62690232  1
  Na  Na2  1  0.11929504  0.62690232  0.62690232  1
  Na  Na3  1  0.62690232  0.62690232  0.62690232  1
  Na  Na4  1  0.03016561  0.46983439  0.46983439  1
  Na  Na5  1  0.77396795  0.22603205  0.22603205  1
  Na  Na6  1  0.46983439  0.03016561  0.46983439  1
  Na  Na7  1  0.46983439  0.46983439  0.03016561  1
  Na  Na8  1  0.03016561  0.03016561  0.46983439  1
  Na  Na9  1  0.03016561  0.46983439  0.03016561  1
  Na  Na10  1  0.46983439  0.03016561  0.03016561  1
  Na  Na11  1  0.77396795  0.22603205  0.77396795  1
  Na  Na12  1  0.22603205  0.77396795  0.22603205  1
  Na  Na13  1  0.22603205  0.22603205  0.77396795  1
  Na  Na14  1  0.77396795  0.77396795  0.22603205  1
  Na  Na15  1  0.22603205  0.77396795  0.77396795  1
  Ti  Ti0  1  0.50000000  0.50000000  0.50000000  1
  Si  Si0  1  0.75000000  0.75000000  0.75000000  1
  P  P0  1  0.85092825  0.85092825  0.44721624  1
  P  P1  1  0.85092825  0.44721624  0.85092825  1
  P  P2  1  0.39558263  0.39558263  0.81325111  1
  P  P3  1  0.39558263  0.81325111  0.39558263  1
  P  P4  1  0.81325111  0.39558263  0.39558263  1
  P  P5  1  0.85092825  0.85092825  0.85092825  1
  P  P6  1  0.44721624  0.85092825  0.85092825  1
  P  P7  1  0.39558263  0.39558263  0.39558263  1
loop_
_geom_bond_atom_site_label_1
_geom_bond_atom_site_label_2
_geom_bond_distance
_geom_bond_site_symmetry_2
Na0 Si0 2.838687 1_554
Na0 Ti0 2.926393 1_555
Na0 P5 3.011724 1_554
Na0 P6 3.011730 1_554
Na0 P1 3.011730 1_554
Na0 P4 3.108705 1_555
Na0 P3 3.108705 1_555
Na0 P7 3.108723 1_555
Na1 Si0 2.838687 1_545
Na1 Ti0 2.926392 1_555
Na1 P5 3.011724 1_545
Na1 P6 3.011730 1_545
Na1 P0 3.011730 1_545
Na1 P4 3.108705 1_555
Na1 P2 3.108705 1_555
Na1 P7 3.108723 1_555
Na2 Si0 2.838687 1_455
Na2 Ti0 2.926393 1_555
Na2 P5 3.011725 1_455
Na2 P1 3.011730 1_455
Na2 P0 3.011730 1_455
Na2 P3 3.108705 1_555
Na2 P2 3.108705 1_555
Na2 P7 3.108723 1_555
Na3 Si0 2.838672 1_555
Na3 Ti0 2.926408 1_555
Na3 P0 3.011723 1_555
Na3 P6 3.011723 1_555
Na3 P1 3.011723 1_555
Na3 P2 3.108727 1_555
Na3 P4 3.108727 1_555
Na3 P3 3.108727 1_555
Na4 P7 2.913944 1_555
Na4 P4 2.913952 1_455
Na4 P0 3.050568 1_455
Na4 P1 3.050568 1_455
Na5 P0 2.988002 1_545
Na5 P1 2.988002 1_554
Na5 P4 2.993497 1_555
Na5 P7 2.993503 1_555
Na6 P7 2.913943 1_555
Na6 P3 2.913952 1_545
Na6 P0 3.050568 1_545
Na6 P6 3.050568 1_545
Na7 P7 2.913944 1_555
Na7 P2 2.913953 1_554
Na7 P6 3.050568 1_554
Na7 P1 3.050568 1_554
Na8 P4 2.913946 1_455
Na8 P3 2.913946 1_545
Na8 P0 3.050560 1_445
Na8 P5 3.050566 1_445
Na9 P2 2.913946 1_554
Na9 P4 2.913946 1_455
Na9 P1 3.050560 1_454
Na9 P5 3.050566 1_454
Na10 P2 2.913946 1_554
Na10 P3 2.913946 1_545
Na10 P6 3.050560 1_544
Na10 P5 3.050566 1_544
Na11 P5 2.987999 1_545
Na11 P1 2.988008 1_555
Na11 P2 2.993505 1_555
Na11 P4 2.993505 1_555
Na12 P0 2.988002 1_455
Na12 P6 2.988002 1_554
Na12 P3 2.993497 1_555
Na12 P7 2.993503 1_555
Na13 P6 2.988002 1_545
Na13 P1 2.988002 1_455
Na13 P2 2.993497 1_555
Na13 P7 2.993504 1_555
Na14 P5 2.988000 1_554
Na14 P0 2.988008 1_555
Na14 P4 2.993505 1_555
Na14 P3 2.993505 1_555
Na15 P5 2.988000 1_455
Na15 P6 2.988008 1_555
Na15 P2 2.993505 1_555
Na15 P3 2.993505 1_555
P0 Si0 2.327430 1_555
P1 Si0 2.327430 1_555
P2 Ti0 2.407890 1_555
P3 Ti0 2.407890 1_555
P4 Ti0 2.407890 1_555
P5 Si0 2.327437 1_555
P6 Si0 2.327430 1_555
P7 Ti0 2.407898 1_555
