# generated using pymatgen
data_Nb12Ga9Ru3N4
_symmetry_space_group_name_H-M   'P 1'
_cell_length_a   8.26714279
_cell_length_b   8.28572771
_cell_length_c   8.28572741
_cell_angle_alpha   59.99999723
_cell_angle_beta   59.92560457
_cell_angle_gamma   59.92560758
_symmetry_Int_Tables_number   1
_chemical_formula_structural   Nb12Ga9Ru3N4
_chemical_formula_sum   'Nb12 Ga9 Ru3 N4'
_cell_volume   400.87822428
_cell_formula_units_Z   1
loop_
 _symmetry_equiv_pos_site_id
 _symmetry_equiv_pos_as_xyz
  1  'x, y, z'
loop_
 _atom_site_type_symbol
 _atom_site_label
 _atom_site_symmetry_multiplicity
 _atom_site_fract_x
 _atom_site_fract_y
 _atom_site_fract_z
 _atom_site_occupancy
  Nb  Nb0  1  0.81515238  0.81238142  0.18623360  1
  Nb  Nb1  1  0.18993527  0.19632130  0.80687172  1
  Nb  Nb2  1  0.81515238  0.18623360  0.81238142  1
  Nb  Nb3  1  0.18993527  0.80687172  0.19632130  1
  Nb  Nb4  1  0.18993527  0.80687172  0.80687172  1
  Nb  Nb5  1  0.81515238  0.18623360  0.18623360  1
  Nb  Nb6  1  0.43484762  0.43761858  0.06376640  1
  Nb  Nb7  1  0.06006473  0.05367870  0.44312828  1
  Nb  Nb8  1  0.43484762  0.06376640  0.43761858  1
  Nb  Nb9  1  0.06006473  0.44312828  0.05367870  1
  Nb  Nb10  1  0.06006473  0.44312828  0.44312828  1
  Nb  Nb11  1  0.43484762  0.06376640  0.06376640  1
  Ga  Ga0  1  0.12500000  0.62500000  0.62500000  1
  Ga  Ga1  1  0.76007303  0.41330966  0.41330966  1
  Ga  Ga2  1  0.42348521  0.75705033  0.40973273  1
  Ga  Ga3  1  0.42348521  0.40973273  0.75705033  1
  Ga  Ga4  1  0.42348521  0.40973273  0.40973273  1
  Ga  Ga5  1  0.48992697  0.83669034  0.83669034  1
  Ga  Ga6  1  0.82651479  0.49294967  0.84026727  1
  Ga  Ga7  1  0.82651479  0.84026727  0.49294967  1
  Ga  Ga8  1  0.82651479  0.84026727  0.84026727  1
  Ru  Ru0  1  0.62500000  0.12500000  0.62500000  1
  Ru  Ru1  1  0.62500000  0.62500000  0.12500000  1
  Ru  Ru2  1  0.62500000  0.62500000  0.62500000  1
  N  N0  1  0.62500000  0.12500000  0.12500000  1
  N  N1  1  0.12500000  0.62500000  0.12500000  1
  N  N2  1  0.12500000  0.12500000  0.62500000  1
  N  N3  1  0.12500000  0.12500000  0.12500000  1
loop_
_geom_bond_atom_site_label_1
_geom_bond_atom_site_label_2
_geom_bond_distance
_geom_bond_site_symmetry_2
Nb0 Ru2 3.028606 1_555
Nb0 Ru1 3.028612 1_555
Nb1 Ru0 2.980711 1_555
Nb2 Ru2 3.028607 1_555
Nb2 Ru0 3.028612 1_555
Nb3 Ru1 2.980711 1_555
Nb4 Ru2 2.980711 1_555
Nb5 Ru0 3.028605 1_555
Nb5 Ru1 3.028605 1_555
Nb6 Ru2 3.028606 1_554
Nb6 Ru1 3.028612 1_555
Nb7 Ru0 2.980711 1_455
Nb8 Ru2 3.028607 1_545
Nb8 Ru0 3.028612 1_555
Nb9 Ru1 2.980711 1_455
Nb10 Ru2 2.980711 1_455
Nb11 Ru0 3.028605 1_554
Nb11 Ru1 3.028605 1_545
Ga0 Ga8 2.609754 1_455
Ga0 Ga4 2.609754 1_555
Ga0 Ga2 2.609759 1_555
Ga0 Ga6 2.609759 1_455
Ga0 Ga3 2.609759 1_555
Ga0 Ga7 2.609759 1_455
Ga0 Nb9 2.953364 1_556
Ga0 Nb3 2.953364 1_555
Ga0 Nb7 2.953364 1_565
Ga0 Nb1 2.953364 1_555
Ga0 Nb4 2.953364 1_555
Ga0 Nb10 2.953364 1_555
Ga1 Ru2 2.559392 1_555
Ga1 Ru0 2.559406 1_555
Ga1 Ru1 2.559406 1_555
Ga1 Nb10 2.749937 1_655
Ga1 Nb9 2.749946 1_655
Ga1 Nb7 2.749946 1_655
Ga1 Ga3 2.812631 1_555
Ga1 Ga2 2.812631 1_555
Ga1 Ga4 2.812635 1_555
Ga1 Nb2 3.018277 1_555
Ga1 Nb0 3.018277 1_555
Ga1 Nb5 3.018284 1_555
Ga2 Ru2 2.520644 1_555
Ga2 Ru1 2.520651 1_555
Ga2 Nb8 2.714582 1_565
Ga2 Nb11 2.714591 1_565
Ga2 Nb7 2.754988 1_565
Ga2 Ga3 2.877779 1_555
Ga2 Ga4 2.877779 1_555
Ga2 Nb0 2.958560 1_555
Ga2 Nb4 2.986325 1_555
Ga2 Nb3 2.986333 1_555
Ga3 Ru2 2.520644 1_555
Ga3 Ru0 2.520651 1_555
Ga3 Nb6 2.714582 1_556
Ga3 Nb11 2.714591 1_556
Ga3 Nb9 2.754987 1_556
Ga3 Ga4 2.877779 1_555
Ga3 Nb2 2.958560 1_555
Ga3 Nb4 2.986326 1_555
Ga3 Nb1 2.986333 1_555
Ga4 Ru1 2.520646 1_555
Ga4 Ru0 2.520646 1_555
Ga4 Nb6 2.714599 1_555
Ga4 Nb8 2.714599 1_555
Ga4 Nb10 2.754991 1_555
Ga4 Nb5 2.958560 1_555
Ga4 Nb1 2.986328 1_555
Ga4 Nb3 2.986329 1_555
Ga5 Ru2 2.559392 1_555
Ga5 Ru0 2.559406 1_565
Ga5 Ru1 2.559406 1_556
Ga5 Nb4 2.749937 1_555
Ga5 Nb3 2.749946 1_556
Ga5 Nb1 2.749946 1_565
Ga5 Ga7 2.812631 1_555
Ga5 Ga6 2.812631 1_555
Ga5 Ga8 2.812635 1_555
Ga5 Nb8 3.018277 1_565
Ga5 Nb6 3.018277 1_556
Ga5 Nb11 3.018284 1_566
Ga6 Ru2 2.520644 1_555
Ga6 Ru1 2.520651 1_556
Ga6 Nb2 2.714582 1_555
Ga6 Nb5 2.714591 1_556
Ga6 Nb1 2.754988 1_655
Ga6 Ga7 2.877779 1_555
Ga6 Ga8 2.877779 1_555
Ga6 Nb6 2.958560 1_556
Ga6 Nb10 2.986325 1_655
Ga6 Nb9 2.986333 1_656
Ga7 Ru2 2.520644 1_555
Ga7 Ru0 2.520651 1_565
Ga7 Nb0 2.714582 1_555
Ga7 Nb5 2.714591 1_565
Ga7 Nb3 2.754987 1_655
Ga7 Ga8 2.877779 1_555
Ga7 Nb8 2.958560 1_565
Ga7 Nb10 2.986326 1_655
Ga7 Nb7 2.986333 1_665
Ga8 Ru1 2.520646 1_556
Ga8 Ru0 2.520646 1_565
Ga8 Nb0 2.714599 1_556
Ga8 Nb2 2.714599 1_565
Ga8 Nb4 2.754991 1_655
Ga8 Nb11 2.958560 1_566
Ga8 Nb7 2.986328 1_665
Ga8 Nb9 2.986329 1_656
N0 Nb8 2.200506 1_555
N0 Nb2 2.200506 1_554
N0 Nb6 2.200506 1_555
N0 Nb0 2.200506 1_545
N0 Nb5 2.200512 1_555
N0 Nb11 2.200512 1_555
N1 Nb6 2.174557 1_555
N1 Nb0 2.174557 1_455
N1 Nb10 2.219805 1_555
N1 Nb4 2.219805 1_554
N1 Nb3 2.219805 1_555
N1 Nb9 2.219805 1_555
N2 Nb8 2.174557 1_555
N2 Nb2 2.174557 1_455
N2 Nb10 2.219805 1_555
N2 Nb4 2.219805 1_545
N2 Nb1 2.219805 1_555
N2 Nb7 2.219805 1_555
N3 Nb11 2.174555 1_555
N3 Nb5 2.174555 1_455
N3 Nb7 2.219805 1_555
N3 Nb1 2.219805 1_554
N3 Nb9 2.219805 1_555
N3 Nb3 2.219805 1_545
