# generated using pymatgen
data_Zr4Re21Tc3Sn
_symmetry_space_group_name_H-M   'P 1'
_cell_length_a   8.44516977
_cell_length_b   8.43130938
_cell_length_c   8.43130910
_cell_angle_alpha   109.43790251
_cell_angle_beta   109.50453057
_cell_angle_gamma   109.50452252
_symmetry_Int_Tables_number   1
_chemical_formula_structural   Zr4Re21Tc3Sn
_chemical_formula_sum   'Zr4 Re21 Tc3 Sn1'
_cell_volume   461.95301798
_cell_formula_units_Z   1
loop_
 _symmetry_equiv_pos_site_id
 _symmetry_equiv_pos_as_xyz
  1  'x, y, z'
loop_
 _atom_site_type_symbol
 _atom_site_label
 _atom_site_symmetry_multiplicity
 _atom_site_fract_x
 _atom_site_fract_y
 _atom_site_fract_z
 _atom_site_occupancy
  Zr  Zr0  1  0.62839355  0.00000000  1.00000000  1
  Zr  Zr1  1  0.99986077  0.63014213  1.00000000  1
  Zr  Zr2  1  0.99986077  1.00000000  0.63014213  1
  Zr  Zr3  1  0.36971864  0.36985787  0.36985787  1
  Re  Re0  1  0.67493940  0.39334099  1.00000000  1
  Re  Re1  1  0.00095095  0.39492698  0.67560465  1
  Re  Re2  1  0.32534630  0.71932233  0.32439535  1
  Re  Re3  1  0.32534630  0.32439535  0.71932233  1
  Re  Re4  1  0.00095095  0.67560465  0.39492698  1
  Re  Re5  1  0.67493940  1.00000000  0.39334099  1
  Re  Re6  1  0.60602397  0.60507302  0.28067767  1
  Re  Re7  1  0.28159841  0.60665901  0.60665901  1
  Re  Re8  1  0.60602397  0.28067767  0.60507302  1
  Re  Re9  1  0.37598262  0.19543740  0.00000000  1
  Re  Re10  1  0.18054322  0.80456260  0.80456260  1
  Re  Re11  1  0.37598262  0.00000000  0.19543740  1
  Re  Re12  1  0.19508958  0.37834208  0.00000000  1
  Re  Re13  1  0.00068185  0.37715140  0.19474489  1
  Re  Re14  1  0.80593696  0.18240551  0.80525511  1
  Re  Re15  1  0.80593696  0.80525511  0.18240551  1
  Re  Re16  1  0.00068185  0.19474489  0.37715140  1
  Re  Re17  1  0.19508958  0.00000000  0.37834208  1
  Re  Re18  1  0.62353045  0.62284860  0.81759449  1
  Re  Re19  1  0.81674750  0.62165792  0.62165792  1
  Re  Re20  1  0.62353045  0.81759449  0.62284860  1
  Tc  Tc0  1  0.39464813  0.67660617  1.00000000  1
  Tc  Tc1  1  0.71804196  0.32339383  0.32339383  1
  Tc  Tc2  1  0.39464813  1.00000000  0.67660617  1
  Sn  Sn0  1  0.99897374  1.00000000  0.00000000  1
loop_
_geom_bond_atom_site_label_1
_geom_bond_atom_site_label_2
_geom_bond_distance
_geom_bond_site_symmetry_2
Re0 Re9 2.519004 1_556
Re0 Re13 2.768764 1_656
Re0 Re14 2.768768 1_555
Re0 Zr1 2.803113 1_555
Re0 Re3 2.815591 1_555
Re0 Re6 2.815591 1_556
Re0 Re18 2.897229 1_555
Re0 Re15 2.897234 1_556
Re0 Tc2 2.909582 1_545
Re0 Tc1 2.909582 1_556
Re0 Re4 2.925728 1_656
Re0 Re8 2.925729 1_555
Re0 Zr0 3.206615 1_555
Re1 Re16 2.519439 1_555
Re1 Re12 2.757081 1_556
Re1 Re14 2.766440 1_455
Re1 Zr1 2.798674 1_455
Re1 Re7 2.815592 1_555
Re1 Tc1 2.828171 1_455
Re1 Re10 2.883147 1_555
Re1 Re19 2.893656 1_455
Re1 Tc0 2.916667 1_555
Re1 Re3 2.924763 1_555
Re1 Re8 2.924763 1_455
Re1 Re5 2.925729 1_445
Re1 Zr2 3.218998 1_445
Re2 Re20 2.519436 1_555
Re2 Zr1 2.798674 1_454
Re2 Re5 2.815592 1_555
Re2 Tc2 2.828171 1_555
Re2 Tc0 2.916668 1_554
Re2 Re6 2.924763 1_555
Re2 Re4 2.924763 1_555
Re2 Re7 2.925729 1_555
Re2 Zr3 3.218998 1_555
Re3 Zr2 2.798674 1_445
Re3 Tc0 2.828171 1_555
Re3 Re9 2.883147 1_556
Re3 Tc2 2.916668 1_545
Re3 Re8 2.924763 1_555
Re3 Re7 2.925729 1_555
Re3 Zr3 3.218998 1_555
Re4 Zr2 2.798674 1_455
Re4 Re7 2.815592 1_555
Re4 Tc1 2.828171 1_455
Re4 Tc2 2.916668 1_555
Re4 Re6 2.924763 1_455
Re4 Zr1 3.218998 1_454
Re5 Zr2 2.803113 1_555
Re5 Re8 2.815592 1_565
Re5 Tc0 2.909581 1_554
Re5 Tc1 2.909582 1_565
Re5 Re6 2.925729 1_555
Re5 Zr0 3.206615 1_564
Re6 Zr3 2.798674 1_555
Re6 Tc0 2.828171 1_554
Re6 Re9 2.883147 1_555
Re6 Tc1 2.916668 1_555
Re6 Zr2 3.218997 1_555
Re7 Zr3 2.803113 1_555
Re7 Tc0 2.909582 1_555
Re7 Tc2 2.909582 1_555
Re7 Zr0 3.206614 1_565
Re8 Zr3 2.798674 1_555
Re8 Tc2 2.828171 1_545
Re8 Tc1 2.916668 1_555
Re8 Zr1 3.218997 1_555
Re9 Tc1 2.764905 1_555
Re9 Tc2 2.764905 1_544
Re9 Zr2 2.999943 1_444
Re9 Zr3 2.999943 1_555
Re9 Sn0 3.057631 1_445
Re9 Zr0 3.099145 1_554
Re10 Re19 2.506995 1_455
Re10 Re7 2.519017 1_555
Re10 Re11 2.690281 1_566
Re10 Re9 2.690281 1_566
Re10 Tc0 2.764915 1_555
Re10 Tc2 2.764916 1_555
Re10 Re4 2.883147 1_555
Re10 Zr2 2.999934 1_455
Re10 Zr1 2.999934 1_455
Re10 Sn0 3.057616 1_456
Re10 Zr0 3.099159 1_565
Re11 Re17 2.507009 1_555
Re11 Re5 2.519004 1_545
Re11 Re9 2.690282 1_555
Re11 Tc0 2.764905 1_544
Re11 Tc1 2.764905 1_555
Re11 Re8 2.883147 1_555
Re11 Re2 2.883147 1_545
Re11 Zr1 2.999943 1_444
Re11 Zr3 2.999943 1_555
Re11 Sn0 3.057631 1_445
Re11 Zr0 3.099145 1_554
Re12 Re9 2.507009 1_555
Re12 Tc0 2.516782 1_554
Re12 Re14 2.681742 1_454
Re12 Re13 2.681743 1_555
Re12 Re2 2.757081 1_555
Re12 Re6 2.893655 1_555
Re12 Re3 2.893656 1_554
Re12 Zr2 3.008709 1_444
Re12 Zr3 3.008710 1_555
Re12 Sn0 3.064430 1_445
Re12 Zr1 3.092386 1_454
Re13 Re16 2.510906 1_555
Re13 Re4 2.519439 1_555
Re13 Re14 2.680748 1_454
Re13 Re2 2.766435 1_555
Re13 Re7 2.897234 1_555
Re13 Tc1 2.900536 1_455
Re13 Zr3 3.002073 1_555
Re13 Zr0 3.015665 1_454
Re13 Sn0 3.047347 1_445
Re13 Zr1 3.095040 1_454
Re14 Re20 2.510892 1_545
Re14 Re8 2.519446 1_555
Re14 Re5 2.897234 1_545
Re14 Tc2 2.900536 1_545
Re14 Zr2 3.002069 1_545
Re14 Zr0 3.015661 1_555
Re14 Sn0 3.047340 1_546
Re14 Zr1 3.095047 1_555
Re15 Re18 2.510891 1_554
Re15 Re6 2.519446 1_555
Re15 Re16 2.680749 1_665
Re15 Re17 2.681742 1_665
Re15 Re4 2.766440 1_655
Re15 Re5 2.768768 1_555
Re15 Tc0 2.900536 1_554
Re15 Zr1 3.002069 1_554
Re15 Zr0 3.015661 1_564
Re15 Sn0 3.047341 1_555
Re15 Zr2 3.095047 1_555
Re16 Re17 2.681742 1_555
Re16 Re3 2.766435 1_555
Re16 Re5 2.768764 1_445
Re16 Re7 2.897234 1_555
Re16 Tc1 2.900536 1_455
Re16 Zr3 3.002074 1_555
Re16 Zr0 3.015665 1_454
Re16 Sn0 3.047347 1_445
Re16 Zr2 3.095040 1_445
Re17 Tc2 2.516781 1_545
Re17 Re3 2.757081 1_555
Re17 Re4 2.757081 1_545
Re17 Re8 2.893655 1_555
Re17 Re2 2.893655 1_545
Re17 Zr1 3.008709 1_444
Re17 Zr3 3.008710 1_555
Re17 Sn0 3.064430 1_445
Re17 Zr2 3.092386 1_445
Re18 Re3 2.519436 1_555
Re18 Re20 2.680763 1_555
Re18 Re19 2.681749 1_555
Re18 Re8 2.766437 1_555
Re18 Re7 2.768766 1_555
Re18 Tc0 2.900531 1_555
Re18 Zr1 3.002072 1_555
Re18 Zr0 3.015664 1_565
Re18 Sn0 3.047349 1_556
Re18 Zr3 3.095046 1_555
Re19 Tc1 2.516781 1_555
Re19 Re20 2.681749 1_555
Re19 Re6 2.757081 1_555
Re19 Re8 2.757081 1_555
Re19 Re4 2.893656 1_655
Re19 Zr1 3.008710 1_555
Re19 Zr2 3.008710 1_555
Re19 Sn0 3.064430 1_556
Re19 Zr3 3.092385 1_555
Re20 Re6 2.766437 1_555
Re20 Re7 2.768766 1_555
Re20 Re5 2.897229 1_555
Re20 Tc2 2.900530 1_555
Re20 Zr2 3.002072 1_555
Re20 Zr0 3.015664 1_565
Re20 Sn0 3.047349 1_556
Re20 Zr3 3.095046 1_555
Tc0 Zr0 2.781564 1_565
Tc0 Zr1 3.224462 1_455
Tc1 Zr0 2.781564 1_554
Tc1 Zr3 3.224462 1_555
Tc2 Zr0 2.781564 1_565
Tc2 Zr2 3.224462 1_455
Sn0 Zr3 3.120895 1_665
Sn0 Zr2 3.120895 1_554
Sn0 Zr1 3.120895 1_554
Sn0 Zr0 3.129613 1_564
