# generated using pymatgen
data_Er2Fe14B
_symmetry_space_group_name_H-M   'P 1'
_cell_length_a   8.71696400
_cell_length_b   8.71696400
_cell_length_c   11.84635200
_cell_angle_alpha   90.00000000
_cell_angle_beta   90.00000000
_cell_angle_gamma   90.00000000
_symmetry_Int_Tables_number   1
_chemical_formula_structural   Er2Fe14B
_chemical_formula_sum   'Er8 Fe56 B4'
_cell_volume   900.15052236
_cell_formula_units_Z   4
loop_
 _symmetry_equiv_pos_site_id
 _symmetry_equiv_pos_as_xyz
  1  'x, y, z'
loop_
 _atom_site_type_symbol
 _atom_site_label
 _atom_site_symmetry_multiplicity
 _atom_site_fract_x
 _atom_site_fract_y
 _atom_site_fract_z
 _atom_site_occupancy
  Er  Er0  1  0.26669800  0.73330200  0.00000000  1
  Er  Er1  1  0.76669800  0.76669800  0.50000000  1
  Er  Er2  1  0.23330200  0.23330200  0.50000000  1
  Er  Er3  1  0.73330200  0.26669800  0.00000000  1
  Er  Er4  1  0.85643600  0.85643600  0.00000000  1
  Er  Er5  1  0.64356400  0.35643600  0.50000000  1
  Er  Er6  1  0.35643600  0.64356400  0.50000000  1
  Er  Er7  1  0.14356400  0.14356400  0.00000000  1
  Fe  Fe0  1  0.14149800  0.46283200  0.32568600  1
  Fe  Fe1  1  0.85850200  0.53716800  0.32568600  1
  Fe  Fe2  1  0.46283200  0.14149800  0.67431400  1
  Fe  Fe3  1  0.96283200  0.35850200  0.82568600  1
  Fe  Fe4  1  0.03716800  0.64149800  0.82568600  1
  Fe  Fe5  1  0.35850200  0.96283200  0.17431400  1
  Fe  Fe6  1  0.64149800  0.03716800  0.17431400  1
  Fe  Fe7  1  0.53716800  0.85850200  0.67431400  1
  Fe  Fe8  1  0.85850200  0.53716800  0.67431400  1
  Fe  Fe9  1  0.14149800  0.46283200  0.67431400  1
  Fe  Fe10  1  0.53716800  0.85850200  0.32568600  1
  Fe  Fe11  1  0.03716800  0.64149800  0.17431400  1
  Fe  Fe12  1  0.96283200  0.35850200  0.17431400  1
  Fe  Fe13  1  0.64149800  0.03716800  0.82568600  1
  Fe  Fe14  1  0.35850200  0.96283200  0.82568600  1
  Fe  Fe15  1  0.46283200  0.14149800  0.32568600  1
  Fe  Fe16  1  0.06601400  0.72436600  0.37406200  1
  Fe  Fe17  1  0.93398600  0.27563400  0.37406200  1
  Fe  Fe18  1  0.72436600  0.06601400  0.62593800  1
  Fe  Fe19  1  0.22436600  0.43398600  0.87406200  1
  Fe  Fe20  1  0.77563400  0.56601400  0.87406200  1
  Fe  Fe21  1  0.43398600  0.22436600  0.12593800  1
  Fe  Fe22  1  0.56601400  0.77563400  0.12593800  1
  Fe  Fe23  1  0.27563400  0.93398600  0.62593800  1
  Fe  Fe24  1  0.93398600  0.27563400  0.62593800  1
  Fe  Fe25  1  0.06601400  0.72436600  0.62593800  1
  Fe  Fe26  1  0.27563400  0.93398600  0.37406200  1
  Fe  Fe27  1  0.77563400  0.56601400  0.12593800  1
  Fe  Fe28  1  0.22436600  0.43398600  0.12593800  1
  Fe  Fe29  1  0.56601400  0.77563400  0.87406200  1
  Fe  Fe30  1  0.43398600  0.22436600  0.87406200  1
  Fe  Fe31  1  0.72436600  0.06601400  0.37406200  1
  Fe  Fe32  1  0.81702100  0.81702100  0.74590500  1
  Fe  Fe33  1  0.18297900  0.18297900  0.74590500  1
  Fe  Fe34  1  0.81702100  0.81702100  0.25409500  1
  Fe  Fe35  1  0.31702100  0.68297900  0.24590500  1
  Fe  Fe36  1  0.68297900  0.31702100  0.24590500  1
  Fe  Fe37  1  0.68297900  0.31702100  0.75409500  1
  Fe  Fe38  1  0.31702100  0.68297900  0.75409500  1
  Fe  Fe39  1  0.18297900  0.18297900  0.25409500  1
  Fe  Fe40  1  0.59714900  0.59714900  0.69944800  1
  Fe  Fe41  1  0.40285100  0.40285100  0.69944800  1
  Fe  Fe42  1  0.59714900  0.59714900  0.30055200  1
  Fe  Fe43  1  0.09714900  0.90285100  0.19944800  1
  Fe  Fe44  1  0.90285100  0.09714900  0.19944800  1
  Fe  Fe45  1  0.90285100  0.09714900  0.80055200  1
  Fe  Fe46  1  0.09714900  0.90285100  0.80055200  1
  Fe  Fe47  1  0.40285100  0.40285100  0.30055200  1
  Fe  Fe48  1  0.00000000  0.00000000  0.61600100  1
  Fe  Fe49  1  0.50000000  0.50000000  0.11600100  1
  Fe  Fe50  1  0.50000000  0.50000000  0.88399900  1
  Fe  Fe51  1  0.00000000  0.00000000  0.38399900  1
  Fe  Fe52  1  0.50000000  0.00000000  0.00000000  1
  Fe  Fe53  1  0.50000000  0.00000000  0.50000000  1
  Fe  Fe54  1  0.00000000  0.50000000  0.50000000  1
  Fe  Fe55  1  0.00000000  0.50000000  0.00000000  1
  B  B0  1  0.62491000  0.62491000  0.00000000  1
  B  B1  1  0.87509000  0.12491000  0.50000000  1
  B  B2  1  0.12491000  0.87509000  0.50000000  1
  B  B3  1  0.37509000  0.37509000  0.00000000  1
loop_
_geom_bond_atom_site_label_1
_geom_bond_atom_site_label_2
_geom_bond_distance
_geom_bond_site_symmetry_2
Er0 Fe35 2.978401 1_555
Er0 Fe38 2.978401 1_554
Er0 Fe5 2.984591 1_555
Er0 Fe11 2.984591 1_555
Er0 Fe14 2.984591 1_554
Er0 Fe4 2.984591 1_554
Er0 Fe29 3.028117 1_554
Er0 Fe22 3.028117 1_555
Er0 Fe19 3.028117 1_554
Er0 Fe28 3.028117 1_555
Er0 Fe52 3.088779 1_565
Er0 Fe55 3.088779 1_555
Er0 Fe43 3.154550 1_555
Er0 Fe46 3.154550 1_554
Er0 Fe49 3.187498 1_555
Er0 Fe50 3.187498 1_554
Er1 Fe32 2.978401 1_555
Er1 Fe34 2.978401 1_555
Er1 Fe7 2.984591 1_555
Er1 Fe1 2.984591 1_555
Er1 Fe8 2.984591 1_555
Er1 Fe10 2.984591 1_555
Er1 Fe16 3.028117 1_655
Er1 Fe18 3.028117 1_565
Er1 Fe31 3.028117 1_565
Er1 Fe25 3.028117 1_655
Er1 Fe54 3.088779 1_655
Er1 Fe53 3.088779 1_565
Er1 Fe40 3.154550 1_555
Er1 Fe42 3.154550 1_555
Er1 Fe51 3.187498 1_665
Er1 Fe48 3.187498 1_665
Er2 Fe33 2.978401 1_555
Er2 Fe39 2.978401 1_555
Er2 Fe2 2.984591 1_555
Er2 Fe15 2.984591 1_555
Er2 Fe0 2.984591 1_555
Er2 Fe9 2.984591 1_555
Er2 Fe17 3.028117 1_455
Er2 Fe24 3.028117 1_455
Er2 Fe26 3.028117 1_545
Er2 Fe23 3.028117 1_545
Er2 Fe53 3.088779 1_555
Er2 Fe54 3.088779 1_555
Er2 Fe41 3.154550 1_555
Er2 Fe47 3.154550 1_555
Er2 Fe51 3.187498 1_555
Er2 Fe48 3.187498 1_555
Er3 Fe36 2.978401 1_555
Er3 Fe37 2.978401 1_554
Er3 Fe12 2.984591 1_555
Er3 Fe6 2.984591 1_555
Er3 Fe3 2.984591 1_554
Er3 Fe13 2.984591 1_554
Er3 Fe20 3.028117 1_554
Er3 Fe27 3.028117 1_555
Er3 Fe30 3.028117 1_554
Er3 Fe21 3.028117 1_555
Er3 Fe52 3.088779 1_555
Er3 Fe55 3.088779 1_655
Er3 Fe44 3.154550 1_555
Er3 Fe45 3.154550 1_554
Er3 Fe49 3.187498 1_555
Er3 Fe50 3.187498 1_554
Er4 Fe22 3.021734 1_555
Er4 Fe29 3.021734 1_554
Er4 Fe20 3.021734 1_554
Er4 Fe27 3.021734 1_555
Er4 Fe34 3.049063 1_555
Er4 Fe32 3.049063 1_554
Er4 Fe44 3.185750 1_565
Er4 Fe43 3.185750 1_655
Er4 Fe45 3.185750 1_564
Er4 Fe46 3.185750 1_654
Er4 Fe6 3.202586 1_565
Er4 Fe11 3.202586 1_655
Er4 Fe13 3.202586 1_564
Er4 Fe4 3.202586 1_654
Er4 Fe52 3.349598 1_565
Er4 Fe55 3.349598 1_655
Er5 Fe31 3.021734 1_555
Er5 Fe18 3.021734 1_555
Er5 Fe17 3.021734 1_555
Er5 Fe24 3.021734 1_555
Er5 Fe37 3.049063 1_555
Er5 Fe36 3.049063 1_555
Er5 Fe40 3.185750 1_555
Er5 Fe42 3.185750 1_555
Er5 Fe41 3.185750 1_555
Er5 Fe47 3.185750 1_555
Er5 Fe8 3.202586 1_555
Er5 Fe1 3.202586 1_555
Er5 Fe2 3.202586 1_555
Er5 Fe15 3.202586 1_555
Er5 Fe54 3.349598 1_655
Er5 Fe53 3.349598 1_555
Er6 Fe16 3.021734 1_555
Er6 Fe25 3.021734 1_555
Er6 Fe26 3.021734 1_555
Er6 Fe23 3.021734 1_555
Er6 Fe38 3.049063 1_555
Er6 Fe35 3.049063 1_555
Er6 Fe40 3.185750 1_555
Er6 Fe42 3.185750 1_555
Er6 Fe41 3.185750 1_555
Er6 Fe47 3.185750 1_555
Er6 Fe7 3.202586 1_555
Er6 Fe10 3.202586 1_555
Er6 Fe9 3.202586 1_555
Er6 Fe0 3.202586 1_555
Er6 Fe53 3.349598 1_565
Er6 Fe54 3.349598 1_555
Er7 Fe21 3.021734 1_555
Er7 Fe28 3.021734 1_555
Er7 Fe19 3.021734 1_554
Er7 Fe30 3.021734 1_554
Er7 Fe39 3.049063 1_555
Er7 Fe33 3.049063 1_554
Er7 Fe44 3.185750 1_455
Er7 Fe43 3.185750 1_545
Er7 Fe46 3.185750 1_544
Er7 Fe45 3.185750 1_454
Er7 Fe5 3.202586 1_545
Er7 Fe12 3.202586 1_455
Er7 Fe14 3.202586 1_544
Er7 Fe3 3.202586 1_454
Er7 Fe55 3.349598 1_555
Er7 Fe52 3.349598 1_555
Fe0 Fe47 2.356320 1_555
Fe0 Fe54 2.427033 1_555
Fe0 Fe16 2.441061 1_555
Fe0 Fe28 2.486832 1_555
Fe0 Fe17 2.502641 1_455
Fe0 Fe12 2.543274 1_455
Fe0 Fe11 2.543274 1_555
Fe0 Fe1 2.550551 1_455
Fe0 Fe39 2.607875 1_555
Fe0 Fe35 2.629988 1_555
Fe1 Fe42 2.356320 1_555
Fe1 Fe54 2.427033 1_655
Fe1 Fe17 2.441061 1_555
Fe1 Fe27 2.486832 1_555
Fe1 Fe16 2.502641 1_655
Fe1 Fe12 2.543274 1_555
Fe1 Fe11 2.543274 1_655
Fe1 Fe34 2.607875 1_555
Fe1 Fe36 2.629988 1_555
Fe2 Fe41 2.356320 1_555
Fe2 Fe53 2.427033 1_555
Fe2 Fe30 2.486832 1_555
Fe2 Fe23 2.502641 1_545
Fe2 Fe7 2.550551 1_545
Fe2 Fe33 2.607875 1_555
Fe2 Fe37 2.629988 1_555
Fe3 Fe45 2.356320 1_555
Fe3 Fe55 2.427033 1_656
Fe3 Fe9 2.543274 1_655
Fe3 Fe8 2.543274 1_555
Fe3 Fe4 2.550551 1_655
Fe3 Fe37 2.607875 1_555
Fe3 Fe33 2.629988 1_655
Fe4 Fe46 2.356320 1_555
Fe4 Fe55 2.427033 1_556
Fe4 Fe8 2.543274 1_455
Fe4 Fe9 2.543274 1_555
Fe5 Fe52 2.427033 1_565
Fe5 Fe6 2.550551 1_565
Fe8 Fe9 2.550551 1_655
Fe10 Fe42 2.356320 1_555
Fe10 Fe53 2.427033 1_565
Fe10 Fe26 2.441061 1_555
Fe10 Fe22 2.486832 1_555
Fe10 Fe31 2.502641 1_565
Fe10 Fe5 2.543274 1_555
Fe10 Fe6 2.543274 1_565
Fe10 Fe15 2.550551 1_565
Fe10 Fe34 2.607875 1_555
Fe10 Fe35 2.629988 1_555
Fe11 Fe43 2.356320 1_555
Fe11 Fe55 2.427033 1_555
Fe11 Fe27 2.441061 1_455
Fe11 Fe16 2.486832 1_555
Fe11 Fe28 2.502641 1_555
Fe11 Fe12 2.550551 1_455
Fe11 Fe35 2.607875 1_555
Fe11 Fe34 2.629988 1_455
Fe12 Fe44 2.356320 1_555
Fe12 Fe55 2.427033 1_655
Fe12 Fe28 2.441061 1_655
Fe12 Fe17 2.486832 1_555
Fe12 Fe27 2.502641 1_555
Fe12 Fe36 2.607875 1_555
Fe12 Fe39 2.629988 1_655
Fe13 Fe45 2.356320 1_555
Fe13 Fe52 2.427033 1_556
Fe13 Fe29 2.441061 1_545
Fe13 Fe18 2.486832 1_555
Fe13 Fe30 2.502641 1_555
Fe13 Fe7 2.543274 1_545
Fe13 Fe2 2.543274 1_555
Fe13 Fe14 2.550551 1_545
Fe13 Fe37 2.607875 1_555
Fe13 Fe32 2.629988 1_545
Fe14 Fe46 2.356320 1_555
Fe14 Fe52 2.427033 1_566
Fe14 Fe30 2.441061 1_565
Fe14 Fe23 2.486832 1_555
Fe14 Fe29 2.502641 1_555
Fe14 Fe7 2.543274 1_555
Fe14 Fe2 2.543274 1_565
Fe14 Fe38 2.607875 1_555
Fe14 Fe33 2.629988 1_565
Fe15 Fe47 2.356320 1_555
Fe15 Fe53 2.427033 1_555
Fe15 Fe31 2.441061 1_555
Fe15 Fe21 2.486832 1_555
Fe15 Fe26 2.502641 1_545
Fe15 Fe5 2.543274 1_545
Fe15 Fe6 2.543274 1_555
Fe15 Fe39 2.607875 1_555
Fe15 Fe36 2.629988 1_555
Fe16 Fe54 2.526268 1_555
Fe16 Fe43 2.602532 1_555
Fe16 Fe35 2.687469 1_555
Fe16 Fe34 2.717162 1_455
Fe17 Fe54 2.526268 1_655
Fe17 Fe44 2.602532 1_555
Fe17 Fe36 2.687469 1_555
Fe17 Fe39 2.717162 1_655
Fe18 Fe2 2.441061 1_555
Fe18 Fe7 2.502641 1_545
Fe18 Fe53 2.526268 1_555
Fe18 Fe45 2.602532 1_555
Fe18 Fe37 2.687469 1_555
Fe18 Fe32 2.717162 1_545
Fe19 Fe3 2.441061 1_455
Fe19 Fe9 2.486832 1_555
Fe19 Fe4 2.502641 1_555
Fe19 Fe55 2.526268 1_556
Fe19 Fe41 2.602532 1_555
Fe19 Fe33 2.687469 1_555
Fe19 Fe38 2.717162 1_555
Fe20 Fe4 2.441061 1_655
Fe20 Fe8 2.486832 1_555
Fe20 Fe3 2.502641 1_555
Fe20 Fe55 2.526268 1_656
Fe20 Fe40 2.602532 1_555
Fe20 Fe32 2.687469 1_555
Fe20 Fe37 2.717162 1_555
Fe21 Fe5 2.441061 1_545
Fe21 Fe6 2.502641 1_555
Fe21 Fe52 2.526268 1_555
Fe21 Fe47 2.602532 1_555
Fe21 Fe39 2.687469 1_555
Fe21 Fe36 2.717162 1_555
Fe22 Fe6 2.441061 1_565
Fe22 Fe5 2.502641 1_555
Fe22 Fe52 2.526268 1_565
Fe22 Fe42 2.602532 1_555
Fe22 Fe34 2.687469 1_555
Fe22 Fe35 2.717162 1_555
Fe23 Fe7 2.441061 1_555
Fe23 Fe53 2.526268 1_565
Fe23 Fe46 2.602532 1_555
Fe23 Fe38 2.687469 1_555
Fe23 Fe33 2.717162 1_565
Fe24 Fe8 2.441061 1_555
Fe24 Fe3 2.486832 1_555
Fe24 Fe9 2.502641 1_655
Fe24 Fe54 2.526268 1_655
Fe24 Fe45 2.602532 1_555
Fe24 Fe37 2.687469 1_555
Fe24 Fe33 2.717162 1_655
Fe25 Fe9 2.441061 1_555
Fe25 Fe4 2.486832 1_555
Fe25 Fe8 2.502641 1_455
Fe25 Fe54 2.526268 1_555
Fe25 Fe46 2.602532 1_555
Fe25 Fe38 2.687469 1_555
Fe25 Fe32 2.717162 1_455
Fe26 Fe5 2.486832 1_555
Fe26 Fe53 2.526268 1_565
Fe26 Fe43 2.602532 1_555
Fe26 Fe35 2.687469 1_555
Fe26 Fe39 2.717162 1_565
Fe27 Fe55 2.526268 1_655
Fe27 Fe42 2.602532 1_555
Fe27 Fe34 2.687469 1_555
Fe27 Fe36 2.717162 1_555
Fe28 Fe55 2.526268 1_555
Fe28 Fe47 2.602532 1_555
Fe28 Fe39 2.687469 1_555
Fe28 Fe35 2.717162 1_555
Fe29 Fe7 2.486832 1_555
Fe29 Fe52 2.526268 1_566
Fe29 Fe40 2.602532 1_555
Fe29 Fe32 2.687469 1_555
Fe29 Fe38 2.717162 1_555
Fe30 Fe52 2.526268 1_556
Fe30 Fe41 2.602532 1_555
Fe30 Fe33 2.687469 1_555
Fe30 Fe37 2.717162 1_555
Fe31 Fe6 2.486832 1_555
Fe31 Fe53 2.526268 1_555
Fe31 Fe44 2.602532 1_555
Fe31 Fe36 2.687469 1_555
Fe31 Fe34 2.717162 1_545
Fe32 Fe8 2.607875 1_555
Fe32 Fe7 2.607875 1_555
Fe32 Fe4 2.629988 1_655
Fe32 Fe46 2.634684 1_655
Fe32 Fe45 2.634684 1_565
Fe32 Fe48 2.730634 1_665
Fe32 Fe40 2.765812 1_555
Fe33 Fe9 2.607875 1_555
Fe33 Fe45 2.634684 1_455
Fe33 Fe46 2.634684 1_545
Fe33 Fe48 2.730634 1_555
Fe33 Fe41 2.765812 1_555
Fe34 Fe6 2.629988 1_565
Fe34 Fe44 2.634684 1_565
Fe34 Fe43 2.634684 1_655
Fe34 Fe51 2.730634 1_665
Fe34 Fe42 2.765812 1_555
Fe35 Fe5 2.607875 1_555
Fe35 Fe42 2.634684 1_555
Fe35 Fe47 2.634684 1_555
Fe35 Fe49 2.730634 1_555
Fe35 Fe43 2.765812 1_555
Fe36 Fe6 2.607875 1_555
Fe36 Fe42 2.634684 1_555
Fe36 Fe47 2.634684 1_555
Fe36 Fe49 2.730634 1_555
Fe36 Fe44 2.765812 1_555
Fe37 Fe8 2.629988 1_555
Fe37 Fe40 2.634684 1_555
Fe37 Fe41 2.634684 1_555
Fe37 Fe50 2.730634 1_555
Fe37 Fe45 2.765812 1_555
Fe38 Fe4 2.607875 1_555
Fe38 Fe7 2.629988 1_555
Fe38 Fe9 2.629988 1_555
Fe38 Fe40 2.634684 1_555
Fe38 Fe41 2.634684 1_555
Fe38 Fe50 2.730634 1_555
Fe38 Fe46 2.765812 1_555
Fe39 Fe5 2.629988 1_545
Fe39 Fe43 2.634684 1_545
Fe39 Fe44 2.634684 1_455
Fe39 Fe51 2.730634 1_555
Fe39 Fe47 2.765812 1_555
Fe40 Fe8 2.356320 1_555
Fe40 Fe7 2.356320 1_555
Fe40 Fe41 2.395237 1_555
Fe40 Fe50 2.492791 1_555
Fe41 Fe9 2.356320 1_555
Fe41 Fe50 2.492791 1_555
Fe42 Fe47 2.395237 1_555
Fe42 Fe49 2.492791 1_555
Fe43 Fe5 2.356320 1_555
Fe43 Fe44 2.395237 1_465
Fe43 Fe51 2.492791 1_565
Fe44 Fe6 2.356320 1_555
Fe44 Fe51 2.492791 1_655
Fe45 Fe46 2.395237 1_645
Fe45 Fe48 2.492791 1_655
Fe46 Fe48 2.492791 1_565
Fe47 Fe49 2.492791 1_555
Fe52 Fe6 2.427033 1_555
Fe53 Fe7 2.427033 1_545
Fe54 Fe9 2.427033 1_555
Fe54 Fe8 2.427033 1_455
B0 Fe22 2.053186 1_555
B0 Fe29 2.053186 1_554
B0 Fe20 2.053186 1_554
B0 Fe27 2.053186 1_555
B0 Fe49 2.063861 1_555
B0 Fe50 2.063861 1_554
B0 Er4 2.854171 1_555
B1 Fe17 2.053186 1_555
B1 Fe24 2.053186 1_555
B1 Fe31 2.053186 1_555
B1 Fe18 2.053186 1_555
B1 Fe51 2.063861 1_655
B1 Fe48 2.063861 1_655
B1 Er5 2.854171 1_555
B2 Fe26 2.053186 1_555
B2 Fe23 2.053186 1_555
B2 Fe16 2.053186 1_555
B2 Fe25 2.053186 1_555
B2 Fe51 2.063861 1_565
B2 Fe48 2.063861 1_565
B2 Er6 2.854171 1_555
B3 Fe30 2.053186 1_554
B3 Fe21 2.053186 1_555
B3 Fe19 2.053186 1_554
B3 Fe28 2.053186 1_555
B3 Fe49 2.063861 1_555
B3 Fe50 2.063861 1_554
B3 Er7 2.854171 1_555
