# generated using pymatgen
data_CsRb2LiSi4
_symmetry_space_group_name_H-M   'P 1'
_cell_length_a   7.98497179
_cell_length_b   9.92766125
_cell_length_c   12.96980869
_cell_angle_alpha   90.00000000
_cell_angle_beta   90.00000000
_cell_angle_gamma   90.00000000
_symmetry_Int_Tables_number   1
_chemical_formula_structural   CsRb2LiSi4
_chemical_formula_sum   'Cs4 Rb8 Li4 Si16'
_cell_volume   1028.14390738
_cell_formula_units_Z   4
loop_
 _symmetry_equiv_pos_site_id
 _symmetry_equiv_pos_as_xyz
  1  'x, y, z'
loop_
 _atom_site_type_symbol
 _atom_site_label
 _atom_site_symmetry_multiplicity
 _atom_site_fract_x
 _atom_site_fract_y
 _atom_site_fract_z
 _atom_site_occupancy
  Cs  Cs0  1  0.64393511  0.25000000  0.39610540  1
  Cs  Cs1  1  0.14393511  0.25000000  0.10389460  1
  Cs  Cs2  1  0.35606489  0.75000000  0.60389460  1
  Cs  Cs3  1  0.85606489  0.75000000  0.89610540  1
  Rb  Rb0  1  0.65718921  0.44444250  0.69046286  1
  Rb  Rb1  1  0.15718921  0.05555750  0.80953714  1
  Rb  Rb2  1  0.34281079  0.94444250  0.30953714  1
  Rb  Rb3  1  0.84281079  0.55555750  0.19046286  1
  Rb  Rb4  1  0.34281079  0.55555750  0.30953714  1
  Rb  Rb5  1  0.84281079  0.94444250  0.19046286  1
  Rb  Rb6  1  0.65718921  0.05555750  0.69046286  1
  Rb  Rb7  1  0.15718921  0.44444250  0.80953714  1
  Li  Li0  1  0.50000000  0.50000000  0.00000000  1
  Li  Li1  1  0.00000000  0.00000000  0.50000000  1
  Li  Li2  1  0.50000000  0.00000000  0.00000000  1
  Li  Li3  1  0.00000000  0.50000000  0.50000000  1
  Si  Si0  1  0.36502243  0.75000000  0.91225240  1
  Si  Si1  1  0.86502243  0.75000000  0.58774760  1
  Si  Si2  1  0.63497757  0.25000000  0.08774760  1
  Si  Si3  1  0.13497757  0.25000000  0.41225240  1
  Si  Si4  1  0.72846360  0.63120493  0.44753972  1
  Si  Si5  1  0.22846360  0.86879507  0.05246028  1
  Si  Si6  1  0.27153640  0.13120493  0.55246028  1
  Si  Si7  1  0.77153640  0.36879507  0.94753972  1
  Si  Si8  1  0.01169340  0.25000000  0.58377300  1
  Si  Si9  1  0.51169340  0.25000000  0.91622700  1
  Si  Si10  1  0.98830660  0.75000000  0.41622700  1
  Si  Si11  1  0.48830660  0.75000000  0.08377300  1
  Si  Si12  1  0.22846360  0.63120493  0.05246028  1
  Si  Si13  1  0.72846360  0.86879507  0.44753972  1
  Si  Si14  1  0.77153640  0.13120493  0.94753972  1
  Si  Si15  1  0.27153640  0.36879507  0.55246028  1
loop_
_geom_bond_atom_site_label_1
_geom_bond_atom_site_label_2
_geom_bond_distance
_geom_bond_site_symmetry_2
Cs0 Si15 3.787544 1_555
Cs0 Si6 3.787544 1_555
Cs0 Si8 3.814143 1_655
Cs0 Si4 3.901643 1_555
Cs0 Si13 3.901643 1_545
Cs0 Si3 3.926549 1_655
Cs0 Si2 3.999981 1_555
Cs0 Li3 4.007399 1_655
Cs0 Li1 4.007399 1_655
Cs0 Rb4 4.030390 1_555
Cs0 Rb2 4.030390 1_545
Cs0 Si3 4.069404 1_555
Cs0 Rb0 4.279343 1_555
Cs0 Rb6 4.279343 1_555
Cs0 Rb3 4.340208 1_555
Cs0 Rb5 4.340208 1_545
Cs1 Si7 3.787544 1_454
Cs1 Si14 3.787544 1_454
Cs1 Si9 3.814143 1_554
Cs1 Si12 3.901643 1_555
Cs1 Si5 3.901643 1_545
Cs1 Si2 3.926549 1_555
Cs1 Si3 3.999981 1_555
Cs1 Li2 4.007399 1_555
Cs1 Li0 4.007399 1_555
Cs1 Rb3 4.030390 1_455
Cs1 Rb5 4.030390 1_445
Cs1 Si2 4.069404 1_455
Cs1 Rb7 4.279343 1_554
Cs1 Rb1 4.279343 1_554
Cs1 Rb4 4.340208 1_555
Cs1 Rb2 4.340208 1_545
Cs2 Si13 3.787544 1_555
Cs2 Si4 3.787544 1_555
Cs2 Si10 3.814143 1_455
Cs2 Si6 3.901643 1_565
Cs2 Si15 3.901643 1_555
Cs2 Si1 3.926549 1_455
Cs2 Si0 3.999981 1_555
Cs2 Li3 4.007399 1_555
Cs2 Li1 4.007399 1_565
Cs2 Rb6 4.030390 1_565
Cs2 Rb0 4.030390 1_555
Cs2 Si1 4.069404 1_555
Cs2 Rb2 4.279343 1_555
Cs2 Rb4 4.279343 1_555
Cs2 Rb1 4.340208 1_565
Cs2 Rb7 4.340208 1_555
Cs3 Si5 3.787544 1_656
Cs3 Si12 3.787544 1_656
Cs3 Si11 3.814143 1_556
Cs3 Si14 3.901643 1_565
Cs3 Si7 3.901643 1_555
Cs3 Si0 3.926549 1_555
Cs3 Si1 3.999981 1_555
Cs3 Li2 4.007399 1_566
Cs3 Li0 4.007399 1_556
Cs3 Rb1 4.030390 1_665
Cs3 Rb7 4.030390 1_655
Cs3 Si0 4.069404 1_655
Cs3 Rb5 4.279343 1_556
Cs3 Rb3 4.279343 1_556
Cs3 Rb6 4.340208 1_565
Cs3 Rb0 4.340208 1_555
Rb0 Si7 3.537629 1_555
Rb0 Si15 3.640123 1_555
Rb0 Si9 3.694576 1_555
Rb0 Si8 3.695124 1_655
Rb0 Si4 3.699776 1_555
Rb0 Si1 3.705507 1_555
Rb1 Si6 3.537629 1_555
Rb1 Si14 3.640123 1_455
Rb1 Si8 3.694576 1_555
Rb1 Si9 3.695124 1_555
Rb1 Si5 3.699776 1_546
Rb1 Si0 3.705507 1_545
Rb2 Si5 3.537629 1_555
Rb2 Si13 3.640123 1_555
Rb2 Si11 3.694576 1_555
Rb2 Si10 3.695124 1_455
Rb2 Si6 3.699776 1_565
Rb2 Si3 3.705507 1_565
Rb3 Si4 3.537629 1_555
Rb3 Si12 3.640123 1_655
Rb3 Si10 3.694576 1_555
Rb3 Si11 3.695124 1_555
Rb3 Si7 3.699776 1_554
Rb3 Si2 3.705507 1_555
Rb4 Si12 3.537629 1_555
Rb4 Si4 3.640123 1_555
Rb4 Si11 3.694576 1_555
Rb4 Si10 3.695124 1_455
Rb4 Si15 3.699776 1_555
Rb4 Si3 3.705507 1_555
Rb5 Si13 3.537629 1_555
Rb5 Si5 3.640123 1_655
Rb5 Si10 3.694576 1_555
Rb5 Si11 3.695124 1_555
Rb5 Si14 3.699776 1_564
Rb5 Si2 3.705507 1_565
Rb6 Si14 3.537629 1_555
Rb6 Si6 3.640123 1_555
Rb6 Si9 3.694576 1_555
Rb6 Si8 3.695124 1_655
Rb6 Si13 3.699776 1_545
Rb6 Si1 3.705507 1_545
Rb7 Si15 3.537629 1_555
Rb7 Si7 3.640123 1_455
Rb7 Si8 3.694576 1_555
Rb7 Si9 3.695124 1_555
Rb7 Si12 3.699776 1_556
Rb7 Si0 3.705507 1_555
Li0 Si12 2.619301 1_555
Li0 Si7 2.619301 1_554
Li0 Si11 2.710931 1_555
Li0 Si9 2.710931 1_554
Li0 Si2 2.935429 1_555
Li0 Si0 2.935429 1_554
Li1 Si6 2.619301 1_555
Li1 Si13 2.619301 1_445
Li1 Si8 2.710931 1_555
Li1 Si10 2.710931 1_445
Li1 Si1 2.935429 1_445
Li1 Si3 2.935429 1_555
Li2 Si14 2.619301 1_554
Li2 Si5 2.619301 1_545
Li2 Si11 2.710931 1_545
Li2 Si9 2.710931 1_554
Li2 Si2 2.935429 1_555
Li2 Si0 2.935429 1_544
Li3 Si15 2.619301 1_555
Li3 Si4 2.619301 1_455
Li3 Si8 2.710931 1_555
Li3 Si10 2.710931 1_455
Li3 Si1 2.935429 1_455
Li3 Si3 2.935429 1_555
Si0 Si5 2.426258 1_556
Si0 Si12 2.426258 1_556
Si0 Si11 2.432670 1_556
Si1 Si13 2.426258 1_555
Si1 Si4 2.426258 1_555
Si1 Si10 2.432670 1_555
Si2 Si7 2.426258 1_554
Si2 Si9 2.432670 1_554
Si3 Si6 2.426258 1_555
Si3 Si8 2.432670 1_555
Si6 Si8 2.420904 1_555
Si7 Si9 2.420904 1_555
Si10 Si13 2.420904 1_555
Si10 Si4 2.420904 1_555
Si11 Si5 2.420904 1_555
Si11 Si12 2.420904 1_555
Si12 Si5 2.358714 1_555
Si13 Si4 2.358714 1_555
Si14 Si7 2.358714 1_555
Si14 Si9 2.420904 1_555
Si14 Si2 2.426258 1_556
Si15 Si6 2.358714 1_555
Si15 Si8 2.420904 1_555
Si15 Si3 2.426258 1_555
