# generated using pymatgen
data_Li12NbOsN8
_symmetry_space_group_name_H-M   'P 1'
_cell_length_a   6.69806946
_cell_length_b   6.69806946
_cell_length_c   4.86712240
_cell_angle_alpha   90.00000000
_cell_angle_beta   90.00000000
_cell_angle_gamma   90.00000000
_symmetry_Int_Tables_number   1
_chemical_formula_structural   Li12NbOsN8
_chemical_formula_sum   'Li12 Nb1 Os1 N8'
_cell_volume   218.35923399
_cell_formula_units_Z   1
loop_
 _symmetry_equiv_pos_site_id
 _symmetry_equiv_pos_as_xyz
  1  'x, y, z'
loop_
 _atom_site_type_symbol
 _atom_site_label
 _atom_site_symmetry_multiplicity
 _atom_site_fract_x
 _atom_site_fract_y
 _atom_site_fract_z
 _atom_site_occupancy
  Li  Li0  1  0.50000000  0.00000000  0.56901624  1
  Li  Li1  1  0.00000000  0.50000000  0.91355239  1
  Li  Li2  1  0.00000000  0.50000000  0.43098376  1
  Li  Li3  1  0.50000000  0.00000000  0.08644761  1
  Li  Li4  1  0.21625760  0.21625760  0.50000000  1
  Li  Li5  1  0.78374240  0.78374240  0.50000000  1
  Li  Li6  1  0.71015351  0.71015351  0.00000000  1
  Li  Li7  1  0.28984649  0.28984649  0.00000000  1
  Li  Li8  1  0.21625760  0.78374240  0.50000000  1
  Li  Li9  1  0.78374240  0.21625760  0.50000000  1
  Li  Li10  1  0.71015351  0.28984649  0.00000000  1
  Li  Li11  1  0.28984649  0.71015351  0.00000000  1
  Nb  Nb0  1  0.50000000  0.50000000  0.50000000  1
  Os  Os0  1  0.00000000  0.00000000  0.00000000  1
  N  N0  1  0.50000000  0.24583139  0.29811523  1
  N  N1  1  0.50000000  0.75416861  0.29811523  1
  N  N2  1  0.00000000  0.76208026  0.19184673  1
  N  N3  1  0.00000000  0.23791974  0.19184673  1
  N  N4  1  0.24583139  0.50000000  0.70188477  1
  N  N5  1  0.75416861  0.50000000  0.70188477  1
  N  N6  1  0.76208026  0.00000000  0.80815327  1
  N  N7  1  0.23791974  0.00000000  0.80815327  1
loop_
_geom_bond_atom_site_label_1
_geom_bond_atom_site_label_2
_geom_bond_distance
_geom_bond_site_symmetry_2
Li0 N6 2.106235 1_555
Li0 N7 2.106235 1_555
Li0 N1 2.109441 1_545
Li0 N0 2.109441 1_555
Li1 N5 1.942322 1_455
Li1 N4 1.942322 1_555
Li1 N2 2.217249 1_556
Li1 N3 2.217249 1_556
Li2 N2 2.106235 1_555
Li2 N3 2.106235 1_555
Li2 N5 2.109441 1_455
Li2 N4 2.109441 1_555
Li3 N1 1.942322 1_545
Li3 N0 1.942322 1_555
Li3 N6 2.217249 1_554
Li3 N7 2.217249 1_554
Li4 N7 2.090141 1_555
Li4 N3 2.090141 1_555
Li4 N4 2.148659 1_555
Li4 N0 2.148659 1_555
Li5 N2 2.090141 1_655
Li5 N6 2.090141 1_565
Li5 N5 2.148659 1_555
Li5 N1 2.148659 1_555
Li6 N1 2.042942 1_555
Li6 N5 2.042942 1_554
Li6 N6 2.182183 1_564
Li6 N2 2.182183 1_655
Li7 N0 2.042942 1_555
Li7 N4 2.042942 1_554
Li7 N7 2.182183 1_554
Li7 N3 2.182183 1_555
Li8 N2 2.090141 1_555
Li8 N7 2.090141 1_565
Li8 N4 2.148659 1_555
Li8 N1 2.148659 1_555
Li9 N6 2.090141 1_555
Li9 N3 2.090141 1_655
Li9 N0 2.148659 1_555
Li9 N5 2.148659 1_555
Li10 N0 2.042942 1_555
Li10 N5 2.042942 1_554
Li10 N6 2.182183 1_554
Li10 N3 2.182183 1_655
Li11 N4 2.042942 1_554
Li11 N1 2.042942 1_555
Li11 N2 2.182183 1_555
Li11 N7 2.182183 1_564
N0 Nb0 1.965654 1_555
N1 Nb0 1.965654 1_555
N2 Os0 1.847009 1_565
N3 Os0 1.847009 1_555
N4 Nb0 1.965654 1_555
N5 Nb0 1.965654 1_555
N6 Os0 1.847009 1_656
N7 Os0 1.847009 1_556
