# generated using pymatgen
data_Y6ScRhO12
_symmetry_space_group_name_H-M   'P 1'
_cell_length_a   6.52854017
_cell_length_b   6.52853942
_cell_length_c   6.52853945
_cell_angle_alpha   94.06593580
_cell_angle_beta   94.06593178
_cell_angle_gamma   94.06592981
_symmetry_Int_Tables_number   1
_chemical_formula_structural   Y6ScRhO12
_chemical_formula_sum   'Y6 Sc1 Rh1 O12'
_cell_volume   276.05198819
_cell_formula_units_Z   1
loop_
 _symmetry_equiv_pos_site_id
 _symmetry_equiv_pos_as_xyz
  1  'x, y, z'
loop_
 _atom_site_type_symbol
 _atom_site_label
 _atom_site_symmetry_multiplicity
 _atom_site_fract_x
 _atom_site_fract_y
 _atom_site_fract_z
 _atom_site_occupancy
  Y  Y0  1  0.73900332  0.91780907  0.42826742  1
  Y  Y1  1  0.91780907  0.42826742  0.73900332  1
  Y  Y2  1  0.42826742  0.73900332  0.91780907  1
  Y  Y3  1  0.26099668  0.08219093  0.57173258  1
  Y  Y4  1  0.08219093  0.57173258  0.26099668  1
  Y  Y5  1  0.57173258  0.26099668  0.08219093  1
  Sc  Sc0  1  0.00000000  0.00000000  0.00000000  1
  Rh  Rh0  1  0.50000000  0.50000000  0.50000000  1
  O  O0  1  0.58556940  0.45458249  0.80338046  1
  O  O1  1  0.45458249  0.80338046  0.58556940  1
  O  O2  1  0.80338046  0.58556940  0.45458249  1
  O  O3  1  0.41443060  0.54541751  0.19661954  1
  O  O4  1  0.54541751  0.19661954  0.41443060  1
  O  O5  1  0.19661954  0.41443060  0.54541751  1
  O  O6  1  0.06763717  0.92025861  0.30898892  1
  O  O7  1  0.92025861  0.30898892  0.06763717  1
  O  O8  1  0.69101108  0.93236283  0.07974139  1
  O  O9  1  0.07974139  0.69101108  0.93236283  1
  O  O10  1  0.93236283  0.07974139  0.69101108  1
  O  O11  1  0.30898892  0.06763717  0.92025861  1
loop_
_geom_bond_atom_site_label_1
_geom_bond_atom_site_label_2
_geom_bond_distance
_geom_bond_site_symmetry_2
O0 Rh0 2.067067 1_555
O0 Y1 2.254500 1_555
O0 Y2 2.289785 1_555
O0 Y5 2.291725 1_556
O1 Rh0 2.067067 1_555
O1 Y2 2.254500 1_555
O1 Y0 2.289785 1_555
O1 Y3 2.291725 1_565
O2 Rh0 2.067067 1_555
O2 Y0 2.254500 1_555
O2 Y1 2.289785 1_555
O2 Y4 2.291726 1_655
O3 Rh0 2.067067 1_555
O3 Y4 2.254500 1_555
O3 Y5 2.289785 1_555
O3 Y2 2.291725 1_554
O4 Rh0 2.067067 1_555
O4 Y5 2.254500 1_555
O4 Y3 2.289785 1_555
O4 Y0 2.291725 1_545
O5 Rh0 2.067067 1_555
O5 Y3 2.254500 1_555
O5 Y4 2.289785 1_555
O5 Y1 2.291726 1_455
O6 Sc0 2.142543 1_565
O6 Y3 2.213609 1_565
O6 Y4 2.284353 1_555
O6 Y0 2.333162 1_455
O7 Sc0 2.142543 1_655
O7 Y4 2.213609 1_655
O7 Y5 2.284353 1_555
O7 Y1 2.333162 1_554
O8 Sc0 2.142544 1_665
O8 Y2 2.213609 1_554
O8 Y0 2.284353 1_555
O8 Y5 2.333162 1_565
O9 Sc0 2.142543 1_566
O9 Y1 2.213609 1_455
O9 Y2 2.284353 1_555
O9 Y4 2.333162 1_556
O10 Sc0 2.142543 1_656
O10 Y0 2.213609 1_545
O10 Y1 2.284353 1_555
O10 Y3 2.333162 1_655
O11 Sc0 2.142544 1_556
O11 Y5 2.213609 1_556
O11 Y3 2.284353 1_555
O11 Y2 2.333162 1_545
