# generated using pymatgen
data_K2AlCoF7
_symmetry_space_group_name_H-M   'P 1'
_cell_length_a   7.44616916
_cell_length_b   7.44616949
_cell_length_c   7.44616931
_cell_angle_alpha   120.43828316
_cell_angle_beta   116.85994005
_cell_angle_gamma   92.38299503
_symmetry_Int_Tables_number   1
_chemical_formula_structural   K2AlCoF7
_chemical_formula_sum   'K4 Al2 Co2 F14'
_cell_volume   297.27074664
_cell_formula_units_Z   2
loop_
 _symmetry_equiv_pos_site_id
 _symmetry_equiv_pos_as_xyz
  1  'x, y, z'
loop_
 _atom_site_type_symbol
 _atom_site_label
 _atom_site_symmetry_multiplicity
 _atom_site_fract_x
 _atom_site_fract_y
 _atom_site_fract_z
 _atom_site_occupancy
  K  K0  1  0.00000000  0.00000000  0.00000000  1
  K  K1  1  0.50000000  0.50000000  0.00000000  1
  K  K2  1  0.50000000  0.00000000  0.00000000  1
  K  K3  1  0.50000000  0.50000000  0.50000000  1
  Al  Al0  1  0.50000000  0.00000000  0.50000000  1
  Al  Al1  1  0.00000000  0.50000000  0.50000000  1
  Co  Co0  1  0.00000000  0.00000000  0.50000000  1
  Co  Co1  1  0.00000000  0.50000000  0.00000000  1
  F  F0  1  0.38156610  0.08209085  0.29947525  1
  F  F1  1  0.71738440  0.41790915  0.29947525  1
  F  F2  1  0.68450576  0.28867905  0.75111839  1
  F  F3  1  0.96243835  0.21132095  0.39582671  1
  F  F4  1  0.96243835  0.56661263  0.75111839  1
  F  F5  1  0.68450576  0.93338737  0.39582671  1
  F  F6  1  0.31549424  0.06661263  0.60417329  1
  F  F7  1  0.03756165  0.43338737  0.24888161  1
  F  F8  1  0.03756165  0.78867905  0.60417329  1
  F  F9  1  0.31549424  0.71132095  0.24888161  1
  F  F10  1  0.88554430  0.75000000  0.13554430  1
  F  F11  1  0.61843390  0.91790915  0.70052475  1
  F  F12  1  0.28261560  0.58209085  0.70052475  1
  F  F13  1  0.11445570  0.25000000  0.86445570  1
loop_
_geom_bond_atom_site_label_1
_geom_bond_atom_site_label_2
_geom_bond_distance
_geom_bond_site_symmetry_2
Al0 F11 1.777795 1_545
Al0 F0 1.777795 1_555
Al0 F2 1.834402 1_555
Al0 F9 1.834402 1_545
Al0 F5 1.834402 1_545
Al0 F6 1.834402 1_555
Al1 F1 1.777795 1_455
Al1 F12 1.777795 1_555
Al1 F8 1.834402 1_555
Al1 F3 1.834402 1_455
Al1 F4 1.834407 1_455
Al1 F7 1.834407 1_555
Co0 F13 2.053259 1_555
Co0 F10 2.053259 1_445
Co0 F6 2.057472 1_555
Co0 F5 2.057472 1_445
Co0 F3 2.057472 1_455
Co0 F8 2.057472 1_545
Co1 F10 2.053259 1_455
Co1 F13 2.053259 1_554
Co1 F4 2.057470 1_454
Co1 F7 2.057470 1_555
Co1 F9 2.057472 1_555
Co1 F2 2.057472 1_454
F0 K0 2.483568 1_555
F0 K3 2.562174 1_555
F0 K2 2.562174 1_555
F1 K1 2.483569 1_555
F1 K2 2.562174 1_555
F1 K3 2.562174 1_555
F2 K1 2.706235 1_556
F2 K3 2.949496 1_555
F3 K0 2.706239 1_655
F3 K2 2.949490 1_555
F4 K0 2.706233 1_666
F4 K3 2.949489 1_555
F5 K1 2.706234 1_555
F5 K2 2.949496 1_565
F6 K1 2.706234 1_556
F6 K2 2.949496 1_556
F7 K0 2.706233 1_555
F7 K3 2.949489 1_555
F8 K0 2.706239 1_566
F8 K2 2.949490 1_566
F9 K1 2.706235 1_555
F9 K3 2.949496 1_555
F10 K1 2.785559 1_555
F10 K0 2.785560 1_665
F11 K0 2.483568 1_666
F11 K3 2.562174 1_555
F11 K2 2.562174 1_566
F12 K1 2.483569 1_556
F12 K2 2.562174 1_566
F12 K3 2.562174 1_555
F13 K1 2.785559 1_556
F13 K0 2.785560 1_556
