# generated using pymatgen
data_HfZnNi3Au
_symmetry_space_group_name_H-M   'P 1'
_cell_length_a   4.79925867
_cell_length_b   4.79925856
_cell_length_c   4.79925816
_cell_angle_alpha   60.87068992
_cell_angle_beta   60.87068999
_cell_angle_gamma   60.87068682
_symmetry_Int_Tables_number   1
_chemical_formula_structural   HfZnNi3Au
_chemical_formula_sum   'Hf1 Zn1 Ni3 Au1'
_cell_volume   79.69841914
_cell_formula_units_Z   1
loop_
 _symmetry_equiv_pos_site_id
 _symmetry_equiv_pos_as_xyz
  1  'x, y, z'
loop_
 _atom_site_type_symbol
 _atom_site_label
 _atom_site_symmetry_multiplicity
 _atom_site_fract_x
 _atom_site_fract_y
 _atom_site_fract_z
 _atom_site_occupancy
  Hf  Hf0  1  0.24328705  0.24328705  0.24328705  1
  Zn  Zn0  1  0.62796293  0.62796293  0.62796293  1
  Ni  Ni0  1  0.12739983  0.62639844  0.62639844  1
  Ni  Ni1  1  0.62639844  0.12739983  0.62639844  1
  Ni  Ni2  1  0.62639844  0.62639844  0.12739983  1
  Au  Au0  1  0.99855432  0.99855432  0.99855432  1
loop_
_geom_bond_atom_site_label_1
_geom_bond_atom_site_label_2
_geom_bond_distance
_geom_bond_site_symmetry_2
Hf0 Ni1 2.786224 1_554
Hf0 Ni0 2.786224 1_554
Hf0 Ni2 2.786225 1_545
Hf0 Ni2 2.786225 1_455
Hf0 Ni0 2.786225 1_545
Hf0 Ni1 2.786225 1_455
Hf0 Zn0 2.870552 1_545
Hf0 Zn0 2.870552 1_455
Hf0 Zn0 2.870552 1_554
Hf0 Ni0 2.893219 1_555
Hf0 Ni1 2.893219 1_555
Hf0 Ni2 2.893220 1_555
Ni0 Zn0 2.389641 1_455
Ni0 Zn0 2.409665 1_555
Ni0 Ni1 2.426271 1_555
Ni0 Ni2 2.426271 1_555
Ni0 Ni1 2.436009 1_465
Ni0 Ni2 2.436009 1_456
Ni1 Zn0 2.389641 1_545
Ni1 Zn0 2.409665 1_555
Ni1 Ni2 2.426271 1_555
Ni1 Ni2 2.436009 1_546
Ni2 Zn0 2.389641 1_554
Ni2 Zn0 2.409665 1_555
Au0 Ni0 2.778078 1_655
Au0 Ni1 2.778078 1_565
Au0 Ni2 2.778078 1_556
Au0 Zn0 2.840756 1_565
Au0 Zn0 2.840756 1_655
Au0 Zn0 2.840756 1_556
Au0 Ni1 2.854989 1_566
Au0 Ni0 2.854989 1_656
Au0 Ni2 2.854989 1_566
Au0 Ni2 2.854989 1_656
Au0 Ni0 2.854989 1_665
Au0 Ni1 2.854989 1_665
Au0 Hf0 2.857936 1_666
Au0 Hf0 2.991840 1_665
Au0 Hf0 2.991840 1_656
Au0 Hf0 2.991840 1_566
