# generated using pymatgen
data_Y16In4Ni3Rh
_symmetry_space_group_name_H-M   'P 1'
_cell_length_a   9.64161188
_cell_length_b   9.62212020
_cell_length_c   9.62212046
_cell_angle_alpha   60.00000251
_cell_angle_beta   60.06685469
_cell_angle_gamma   60.06685956
_symmetry_Int_Tables_number   1
_chemical_formula_structural   Y16In4Ni3Rh
_chemical_formula_sum   'Y16 In4 Ni3 Rh1'
_cell_volume   631.85053651
_cell_formula_units_Z   1
loop_
 _symmetry_equiv_pos_site_id
 _symmetry_equiv_pos_as_xyz
  1  'x, y, z'
loop_
 _atom_site_type_symbol
 _atom_site_label
 _atom_site_symmetry_multiplicity
 _atom_site_fract_x
 _atom_site_fract_y
 _atom_site_fract_z
 _atom_site_occupancy
  Y  Y0  1  0.59667804  0.59982716  0.59982716  1
  Y  Y1  1  0.59667804  0.59982716  0.20366765  1
  Y  Y2  1  0.59667804  0.20366765  0.59982716  1
  Y  Y3  1  0.20429241  0.59856920  0.59856920  1
  Y  Y4  1  0.06264983  0.43917428  0.43917428  1
  Y  Y5  1  0.43964064  0.06058272  0.06058272  1
  Y  Y6  1  0.43964064  0.06058272  0.43919592  1
  Y  Y7  1  0.06264983  0.43917428  0.05900261  1
  Y  Y8  1  0.43964064  0.43919592  0.06058272  1
  Y  Y9  1  0.06264983  0.05900261  0.43917428  1
  Y  Y10  1  0.18748269  0.81178800  0.81178800  1
  Y  Y11  1  0.81133257  0.18907239  0.18907239  1
  Y  Y12  1  0.81133257  0.18907239  0.81052265  1
  Y  Y13  1  0.18748269  0.81178800  0.18894032  1
  Y  Y14  1  0.81133257  0.81052265  0.18907239  1
  Y  Y15  1  0.18748269  0.18894032  0.81178800  1
  In  In0  1  0.83360925  0.83249443  0.83249443  1
  In  In1  1  0.83360925  0.83249443  0.50140289  1
  In  In2  1  0.83360925  0.50140289  0.83249443  1
  In  In3  1  0.49959417  0.83346928  0.83346928  1
  Ni  Ni0  1  0.39270898  0.39209181  0.39209181  1
  Ni  Ni1  1  0.39270898  0.39209181  0.82310641  1
  Ni  Ni2  1  0.39270898  0.82310641  0.39209181  1
  Rh  Rh0  1  0.82380947  0.39206351  0.39206351  1
loop_
_geom_bond_atom_site_label_1
_geom_bond_atom_site_label_2
_geom_bond_distance
_geom_bond_site_symmetry_2
Y0 Y10 3.461762 1_555
Y0 Y14 3.467806 1_555
Y0 Y12 3.467806 1_555
Y1 Y13 3.461765 1_555
Y1 Y14 3.467806 1_555
Y1 Y11 3.467806 1_555
Y10 Y3 3.462656 1_555
Y10 Y7 3.589204 1_556
Y10 Y9 3.589204 1_565
Y10 Y6 3.608612 1_565
Y10 Y8 3.608613 1_556
Y10 Y15 3.629005 1_565
Y10 Y13 3.629005 1_556
Y10 Y14 3.632154 1_456
Y10 Y12 3.632154 1_465
Y11 Y2 3.467806 1_555
Y11 Y6 3.605894 1_555
Y11 Y8 3.605895 1_555
Y11 Y7 3.606961 1_655
Y11 Y9 3.606961 1_655
Y11 Y15 3.632154 1_654
Y11 Y13 3.632154 1_645
Y11 Y14 3.642451 1_545
Y11 Y12 3.642451 1_554
Y12 Y2 3.467806 1_555
Y12 Y5 3.605894 1_556
Y12 Y8 3.605904 1_556
Y12 Y9 3.606954 1_655
Y12 Y4 3.606958 1_655
Y12 Y15 3.632149 1_655
Y12 Y14 3.642451 1_546
Y13 Y3 3.462664 1_555
Y13 Y4 3.589204 1_555
Y13 Y9 3.589220 1_565
Y13 Y8 3.608598 1_555
Y13 Y5 3.608622 1_565
Y13 Y15 3.629005 1_564
Y13 Y14 3.632149 1_455
Y14 Y5 3.605895 1_565
Y14 Y6 3.605904 1_565
Y14 Y7 3.606954 1_655
Y14 Y4 3.606959 1_655
Y15 Y2 3.461765 1_555
Y15 Y3 3.462664 1_555
Y15 Y4 3.589204 1_555
Y15 Y7 3.589220 1_556
Y15 Y6 3.608598 1_555
Y15 Y5 3.608622 1_556
In0 In2 3.185803 1_555
In0 In1 3.185803 1_555
In0 In3 3.211110 1_555
In0 Y10 3.225429 1_655
In0 Y12 3.232235 1_565
In0 Y14 3.232235 1_556
In0 Y3 3.451942 1_655
In0 Y1 3.457160 1_556
In0 Y2 3.457160 1_565
In0 Y9 3.487698 1_665
In0 Y7 3.487698 1_656
In0 Y5 3.498462 1_566
In1 In2 3.185803 1_555
In1 In3 3.211115 1_555
In1 Y13 3.225438 1_655
In1 Y11 3.232239 1_565
In1 Y14 3.232244 1_555
In1 Y3 3.451938 1_655
In1 Y2 3.457156 1_565
In1 Y0 3.457164 1_555
In1 Y9 3.487698 1_665
In1 Y4 3.487698 1_655
In1 Y6 3.498458 1_565
In2 In3 3.211115 1_555
In2 Y15 3.225438 1_655
In2 Y11 3.232239 1_556
In2 Y12 3.232244 1_555
In2 Y3 3.451937 1_655
In2 Y1 3.457156 1_556
In2 Y0 3.457164 1_555
In2 Y7 3.487698 1_656
In2 Y4 3.487698 1_655
In2 Y8 3.498458 1_556
In3 Y13 3.230966 1_556
In3 Y15 3.230966 1_565
In3 Y10 3.230982 1_555
In3 Y2 3.440664 1_565
In3 Y1 3.440664 1_556
In3 Y0 3.440681 1_555
In3 Y8 3.484191 1_556
In3 Y5 3.484192 1_566
In3 Y6 3.484192 1_565
Ni0 Y4 2.804499 1_555
Ni0 Y1 2.809037 1_555
Ni0 Y2 2.809038 1_555
Ni0 Y6 2.811332 1_555
Ni0 Y8 2.811332 1_555
Ni0 Y3 2.817425 1_555
Ni0 Y11 3.464360 1_555
Ni0 Y15 3.469325 1_555
Ni0 Y13 3.469325 1_555
Ni1 Y7 2.804506 1_556
Ni1 Y2 2.809030 1_555
Ni1 Y0 2.809037 1_555
Ni1 Y5 2.811341 1_556
Ni1 Y8 2.811360 1_556
Ni1 Y3 2.817418 1_555
Ni1 Y12 3.464362 1_555
Ni1 Y15 3.469324 1_555
Ni1 Y10 3.469325 1_555
Ni2 Y9 2.804506 1_565
Ni2 Y1 2.809030 1_555
Ni2 Y0 2.809037 1_555
Ni2 Y5 2.811341 1_565
Ni2 Y6 2.811360 1_565
Ni2 Y3 2.817418 1_555
Ni2 Y14 3.464362 1_555
Ni2 Y13 3.469325 1_555
Ni2 Y10 3.469325 1_555
Rh0 Y7 2.828934 1_655
Rh0 Y9 2.828934 1_655
Rh0 Y4 2.828940 1_655
Rh0 Y2 2.836744 1_555
Rh0 Y1 2.836744 1_555
Rh0 Y0 2.836744 1_555
Rh0 Y11 3.453763 1_555
Rh0 Y14 3.453763 1_555
Rh0 Y12 3.453764 1_555
