# generated using pymatgen
data_Zr4Bi2Os
_symmetry_space_group_name_H-M   'P 1'
_cell_length_a   8.37597969
_cell_length_b   8.37597978
_cell_length_c   8.37597953
_cell_angle_alpha   95.94562982
_cell_angle_beta   95.94562476
_cell_angle_gamma   142.45083275
_symmetry_Int_Tables_number   1
_chemical_formula_structural   Zr4Bi2Os
_chemical_formula_sum   'Zr8 Bi4 Os2'
_cell_volume   339.07352738
_cell_formula_units_Z   2
loop_
 _symmetry_equiv_pos_site_id
 _symmetry_equiv_pos_as_xyz
  1  'x, y, z'
loop_
 _atom_site_type_symbol
 _atom_site_label
 _atom_site_symmetry_multiplicity
 _atom_site_fract_x
 _atom_site_fract_y
 _atom_site_fract_z
 _atom_site_occupancy
  Zr  Zr0  1  0.08438657  0.20167893  0.28606350  1
  Zr  Zr1  1  0.91561343  0.79832107  0.71393650  1
  Zr  Zr2  1  0.79832107  0.08438657  0.88270664  1
  Zr  Zr3  1  0.41561343  0.70167893  0.11729336  1
  Zr  Zr4  1  0.20167893  0.91561343  0.11729336  1
  Zr  Zr5  1  0.58438657  0.29832107  0.88270664  1
  Zr  Zr6  1  0.70167893  0.58438657  0.28606350  1
  Zr  Zr7  1  0.29832107  0.41561343  0.71393650  1
  Bi  Bi0  1  0.14103688  0.64103688  0.78207177  1
  Bi  Bi1  1  0.85896312  0.35896312  0.21792823  1
  Bi  Bi2  1  0.35896312  0.14103688  0.50000000  1
  Bi  Bi3  1  0.64103688  0.85896312  0.50000000  1
  Os  Os0  1  0.25000000  0.25000000  0.00000000  1
  Os  Os1  1  0.75000000  0.75000000  0.00000000  1
loop_
_geom_bond_atom_site_label_1
_geom_bond_atom_site_label_2
_geom_bond_distance
_geom_bond_site_symmetry_2
Zr0 Zr6 3.275366 1_555
Zr0 Zr6 3.275366 1_445
Zr0 Zr3 3.293910 1_555
Zr0 Zr3 3.293923 1_445
Zr0 Zr7 3.393166 1_555
Zr0 Zr4 3.467469 1_545
Zr0 Zr2 3.467471 1_454
Zr1 Zr7 3.275366 1_555
Zr1 Zr7 3.275366 1_665
Zr1 Zr5 3.293910 1_555
Zr1 Zr5 3.293923 1_665
Zr1 Zr6 3.393166 1_555
Zr1 Zr2 3.467469 1_565
Zr1 Zr4 3.467471 1_656
Zr2 Zr3 3.275371 1_656
Zr2 Zr3 3.275379 1_546
Zr2 Zr7 3.293910 1_655
Zr2 Zr7 3.293923 1_545
Zr2 Zr5 3.393134 1_555
Zr3 Zr4 3.393134 1_555
Zr3 Zr6 3.467469 1_555
Zr3 Zr7 3.467470 1_554
Zr4 Zr5 3.275371 1_454
Zr4 Zr5 3.275379 1_564
Zr4 Zr6 3.293910 1_455
Zr4 Zr6 3.293923 1_565
Zr5 Zr7 3.467469 1_555
Zr5 Zr6 3.467470 1_556
Bi0 Zr7 3.082715 1_555
Bi0 Zr1 3.082715 1_455
Bi0 Zr4 3.153648 1_556
Bi0 Zr3 3.153648 1_556
Bi0 Zr2 3.283661 1_565
Bi0 Zr5 3.283661 1_565
Bi0 Zr5 3.283665 1_455
Bi0 Zr2 3.283665 1_455
Bi1 Zr6 3.082715 1_555
Bi1 Zr0 3.082715 1_655
Bi1 Zr2 3.153648 1_554
Bi1 Zr5 3.153648 1_554
Bi1 Zr4 3.283661 1_545
Bi1 Zr3 3.283661 1_545
Bi1 Zr3 3.283665 1_655
Bi1 Zr4 3.283665 1_655
Bi2 Zr4 3.082713 1_545
Bi2 Zr5 3.082713 1_555
Bi2 Zr7 3.153636 1_555
Bi2 Zr0 3.153636 1_555
Bi2 Zr1 3.283665 1_555
Bi2 Zr6 3.283665 1_445
Bi2 Zr1 3.283674 1_445
Bi2 Zr6 3.283674 1_555
Bi3 Zr2 3.082713 1_565
Bi3 Zr3 3.082713 1_555
Bi3 Zr6 3.153636 1_555
Bi3 Zr1 3.153636 1_555
Bi3 Zr0 3.283665 1_555
Bi3 Zr7 3.283665 1_665
Bi3 Zr0 3.283674 1_665
Bi3 Zr7 3.283674 1_555
Os0 Os1 2.695773 1_555
Os0 Os1 2.695773 1_445
Os0 Zr0 2.797930 1_555
Os0 Zr7 2.797930 1_554
Os0 Zr1 2.797935 1_444
Os0 Zr6 2.797936 1_555
Os0 Zr3 2.797947 1_555
Os0 Zr2 2.797947 1_454
Os0 Zr5 2.797949 1_554
Os0 Zr4 2.797950 1_545
Os1 Zr1 2.797930 1_554
Os1 Zr6 2.797930 1_555
Os1 Zr0 2.797935 1_665
Os1 Zr7 2.797936 1_554
Os1 Zr5 2.797947 1_554
Os1 Zr4 2.797947 1_655
Os1 Zr3 2.797949 1_555
Os1 Zr2 2.797950 1_564
