# generated using pymatgen
data_K2TaTe4Au
_symmetry_space_group_name_H-M   'P 1'
_cell_length_a   14.92597294
_cell_length_b   13.37245864
_cell_length_c   7.94890983
_cell_angle_alpha   84.81210168
_cell_angle_beta   63.15717134
_cell_angle_gamma   32.03072757
_symmetry_Int_Tables_number   1
_chemical_formula_structural   K2TaTe4Au
_chemical_formula_sum   'K4 Ta2 Te8 Au2'
_cell_volume   590.35993461
_cell_formula_units_Z   2
loop_
 _symmetry_equiv_pos_site_id
 _symmetry_equiv_pos_as_xyz
  1  'x, y, z'
loop_
 _atom_site_type_symbol
 _atom_site_label
 _atom_site_symmetry_multiplicity
 _atom_site_fract_x
 _atom_site_fract_y
 _atom_site_fract_z
 _atom_site_occupancy
  K  K0  1  0.43344849  0.43344849  0.06655151  1
  K  K1  1  0.81655151  0.81655151  0.18344849  1
  K  K2  1  0.06655151  0.06655151  0.43344849  1
  K  K3  1  0.18344849  0.18344849  0.81655151  1
  Ta  Ta0  1  0.00000000  0.00000000  0.00000000  1
  Ta  Ta1  1  0.25000000  0.25000000  0.25000000  1
  Te  Te0  1  0.72141142  0.39818266  0.06522222  1
  Te  Te1  1  0.81518470  0.06522222  0.39818266  1
  Te  Te2  1  0.06522222  0.81518470  0.72141142  1
  Te  Te3  1  0.39818266  0.72141142  0.81518470  1
  Te  Te4  1  0.52858858  0.85181734  0.18477778  1
  Te  Te5  1  0.85181734  0.52858858  0.43481530  1
  Te  Te6  1  0.18477778  0.43481530  0.52858858  1
  Te  Te7  1  0.43481530  0.18477778  0.85181734  1
  Au  Au0  1  0.50000000  0.50000000  0.50000000  1
  Au  Au1  1  0.75000000  0.75000000  0.75000000  1
loop_
_geom_bond_atom_site_label_1
_geom_bond_atom_site_label_2
_geom_bond_distance
_geom_bond_site_symmetry_2
K0 Te1 3.654226 1_465
K0 Te2 3.654227 1_644
K0 Te1 3.841914 1_554
K0 Te2 3.841921 1_555
K0 Te6 3.853801 1_555
K0 Te7 3.853805 1_554
K0 Te3 3.901218 1_554
K0 Te0 3.901222 1_555
K1 Te7 3.654226 1_654
K1 Te6 3.654227 1_565
K1 Te7 3.841914 1_565
K1 Te6 3.841921 1_654
K1 Te2 3.853801 1_654
K1 Te1 3.853805 1_565
K1 Te5 3.901218 1_555
K1 Te4 3.901222 1_555
K2 Te3 3.654222 1_544
K2 Te0 3.654229 1_456
K2 Te3 3.841917 1_455
K2 Te0 3.841918 1_545
K2 Te4 3.853791 1_545
K2 Te5 3.853794 1_455
K2 Te1 3.901207 1_455
K2 Te2 3.901211 1_545
K3 Te5 3.654222 1_456
K3 Te4 3.654229 1_545
K3 Te5 3.841917 1_545
K3 Te4 3.841918 1_456
K3 Te0 3.853791 1_456
K3 Te3 3.853794 1_545
K3 Te7 3.901207 1_555
K3 Te6 3.901211 1_555
Ta0 Te2 2.631180 1_544
Ta0 Te1 2.631186 1_455
Ta0 Te0 2.631190 1_455
Ta0 Te3 2.631192 1_544
Ta1 Te6 2.631180 1_555
Ta1 Te7 2.631186 1_554
Ta1 Te4 2.631190 1_545
Ta1 Te5 2.631192 1_455
Au0 Te2 2.761630 1_555
Au0 Te1 2.761633 1_555
Au0 Te0 2.761635 1_555
Au0 Te3 2.761642 1_555
Au0 Ta0 3.100252 1_566
Au0 Ta0 3.100252 1_655
Au1 Te6 2.761630 1_655
Au1 Te7 2.761633 1_565
Au1 Te4 2.761635 1_556
Au1 Te5 2.761642 1_555
Au1 Ta1 3.100252 1_655
Au1 Ta1 3.100252 1_566
