# generated using pymatgen
data_Zr10In6CuAs
_symmetry_space_group_name_H-M   'P 1'
_cell_length_a   8.74076795
_cell_length_b   8.74076843
_cell_length_c   5.86892927
_cell_angle_alpha   90.00000000
_cell_angle_beta   90.00000000
_cell_angle_gamma   119.99999817
_symmetry_Int_Tables_number   1
_chemical_formula_structural   Zr10In6CuAs
_chemical_formula_sum   'Zr10 In6 Cu1 As1'
_cell_volume   388.31907144
_cell_formula_units_Z   1
loop_
 _symmetry_equiv_pos_site_id
 _symmetry_equiv_pos_as_xyz
  1  'x, y, z'
loop_
 _atom_site_type_symbol
 _atom_site_label
 _atom_site_symmetry_multiplicity
 _atom_site_fract_x
 _atom_site_fract_y
 _atom_site_fract_z
 _atom_site_occupancy
  Zr  Zr0  1  0.74418846  0.74418846  0.24812796  1
  Zr  Zr1  1  0.25581154  0.00000000  0.24812796  1
  Zr  Zr2  1  0.00000000  0.25581154  0.24812796  1
  Zr  Zr3  1  0.25581154  0.25581154  0.75187204  1
  Zr  Zr4  1  0.74418846  0.00000000  0.75187204  1
  Zr  Zr5  1  1.00000000  0.74418846  0.75187204  1
  Zr  Zr6  1  0.66666700  0.33333300  0.50000000  1
  Zr  Zr7  1  0.33333300  0.66666700  0.50000000  1
  Zr  Zr8  1  0.33333300  0.66666700  0.00000000  1
  Zr  Zr9  1  0.66666700  0.33333300  0.00000000  1
  In  In0  1  0.38990274  0.38990274  0.24899556  1
  In  In1  1  0.61009726  0.00000000  0.24899556  1
  In  In2  1  0.00000000  0.61009726  0.24899556  1
  In  In3  1  0.61009726  0.61009726  0.75100444  1
  In  In4  1  0.38990274  0.00000000  0.75100444  1
  In  In5  1  1.00000000  0.38990274  0.75100444  1
  Cu  Cu0  1  0.00000000  0.00000000  0.00000000  1
  As  As0  1  0.00000000  0.00000000  0.50000000  1
loop_
_geom_bond_atom_site_label_1
_geom_bond_atom_site_label_2
_geom_bond_distance
_geom_bond_site_symmetry_2
Zr6 Zr9 2.934465 1_556
Zr6 Zr9 2.934465 1_555
Zr7 Zr8 2.934465 1_556
Zr7 Zr8 2.934465 1_555
In0 Zr2 2.999019 1_555
In0 Zr1 2.999019 1_555
In0 Zr9 3.070565 1_555
In0 Zr8 3.070566 1_555
In0 Zr6 3.076194 1_555
In0 Zr7 3.076194 1_555
In0 Zr0 3.096734 1_555
In0 Zr3 3.144203 1_554
In0 Zr3 3.175558 1_555
In1 Zr0 2.999019 1_545
In1 Zr2 2.999019 1_655
In1 Zr9 3.070558 1_555
In1 Zr8 3.070561 1_545
In1 Zr6 3.076187 1_555
In1 Zr7 3.076189 1_545
In1 Zr1 3.096734 1_555
In1 Zr4 3.144203 1_554
In1 Zr4 3.175558 1_555
In2 Zr0 2.999019 1_455
In2 Zr1 2.999019 1_565
In2 Zr8 3.070558 1_555
In2 Zr9 3.070561 1_455
In2 Zr7 3.076186 1_555
In2 Zr6 3.076189 1_455
In2 Zr2 3.096734 1_555
In2 Zr5 3.144203 1_454
In2 Zr5 3.175558 1_455
In3 Zr5 2.999019 1_555
In3 Zr4 2.999019 1_565
In3 Zr8 3.070565 1_556
In3 Zr9 3.070566 1_556
In3 Zr7 3.076194 1_555
In3 Zr6 3.076194 1_555
In3 Zr3 3.096734 1_555
In3 Zr0 3.144203 1_556
In3 Zr0 3.175558 1_555
In4 Zr3 2.999019 1_555
In4 Zr5 2.999019 1_445
In4 Zr8 3.070558 1_546
In4 Zr9 3.070561 1_556
In4 Zr7 3.076187 1_545
In4 Zr6 3.076189 1_555
In4 Zr4 3.096734 1_555
In4 Zr1 3.144203 1_556
In4 Zr1 3.175558 1_555
In5 Zr3 2.999019 1_655
In5 Zr4 2.999019 1_555
In5 Zr9 3.070558 1_556
In5 Zr8 3.070561 1_656
In5 Zr6 3.076186 1_555
In5 Zr7 3.076189 1_655
In5 Zr5 3.096734 1_555
In5 Zr2 3.144203 1_656
In5 Zr2 3.175558 1_655
Cu0 Zr1 2.668389 1_555
Cu0 Zr4 2.668389 1_454
Cu0 Zr2 2.668389 1_555
Cu0 Zr3 2.668389 1_554
Cu0 Zr5 2.668389 1_444
Cu0 Zr0 2.668389 1_445
As0 Zr1 2.680444 1_555
As0 Zr4 2.680444 1_455
As0 Zr3 2.680444 1_555
As0 Zr2 2.680444 1_555
As0 Zr5 2.680444 1_445
As0 Zr0 2.680444 1_445
As0 Cu0 2.934465 1_556
As0 Cu0 2.934465 1_555
