# generated using pymatgen
data_DyBiRh
_symmetry_space_group_name_H-M   'P 1'
_cell_length_a   7.61055405
_cell_length_b   7.61055397
_cell_length_c   3.97414389
_cell_angle_alpha   90.00000000
_cell_angle_beta   90.00000000
_cell_angle_gamma   120.00000480
_symmetry_Int_Tables_number   1
_chemical_formula_structural   DyBiRh
_chemical_formula_sum   'Dy3 Bi3 Rh3'
_cell_volume   199.34564076
_cell_formula_units_Z   3
loop_
 _symmetry_equiv_pos_site_id
 _symmetry_equiv_pos_as_xyz
  1  'x, y, z'
loop_
 _atom_site_type_symbol
 _atom_site_label
 _atom_site_symmetry_multiplicity
 _atom_site_fract_x
 _atom_site_fract_y
 _atom_site_fract_z
 _atom_site_occupancy
  Dy  Dy0  1  0.60039026  0.00000000  0.00000000  1
  Dy  Dy1  1  0.39960974  0.39960974  0.00000000  1
  Dy  Dy2  1  0.00000000  0.60039026  -0.00000000  1
  Bi  Bi0  1  0.26628563  -0.00000000  0.50000000  1
  Bi  Bi1  1  0.73371437  0.73371437  0.50000000  1
  Bi  Bi2  1  -0.00000000  0.26628563  0.50000000  1
  Rh  Rh0  1  0.66666700  0.33333300  0.50000000  1
  Rh  Rh1  1  -0.00000000  0.00000000  -0.00000000  1
  Rh  Rh2  1  0.33333300  0.66666700  0.50000000  1
loop_
_geom_bond_atom_site_label_1
_geom_bond_atom_site_label_2
_geom_bond_distance
_geom_bond_site_symmetry_2
Dy0 Rh1 3.041252 1_655
Dy0 Rh0 3.059230 1_555
Dy0 Rh0 3.059230 1_554
Dy0 Rh2 3.059231 1_545
Dy0 Rh2 3.059231 1_544
Dy1 Rh1 3.041251 1_555
Dy1 Rh2 3.059235 1_554
Dy1 Rh2 3.059235 1_555
Dy1 Rh0 3.059235 1_555
Dy1 Rh0 3.059235 1_554
Dy2 Rh1 3.041251 1_565
Dy2 Rh2 3.059230 1_554
Dy2 Rh2 3.059230 1_555
Dy2 Rh0 3.059231 1_454
Dy2 Rh0 3.059231 1_455
Bi0 Rh2 2.826738 1_545
Bi0 Rh0 2.826742 1_555
Bi0 Rh1 2.838219 1_555
Bi0 Rh1 2.838219 1_556
Bi0 Dy0 3.227055 1_555
Bi0 Dy0 3.227055 1_556
Bi0 Dy2 3.337867 1_546
Bi0 Dy2 3.337867 1_545
Bi0 Dy1 3.337867 1_555
Bi0 Dy1 3.337867 1_556
Bi1 Rh0 2.826745 1_555
Bi1 Rh2 2.826745 1_555
Bi1 Rh1 2.838219 1_666
Bi1 Rh1 2.838219 1_665
Bi1 Dy1 3.227055 1_555
Bi1 Dy1 3.227055 1_556
Bi1 Dy0 3.337867 1_565
Bi1 Dy0 3.337867 1_566
Bi1 Dy2 3.337867 1_656
Bi1 Dy2 3.337867 1_655
Bi2 Rh0 2.826738 1_455
Bi2 Rh2 2.826742 1_555
Bi2 Rh1 2.838219 1_555
Bi2 Rh1 2.838219 1_556
Bi2 Dy2 3.227055 1_556
Bi2 Dy2 3.227055 1_555
Bi2 Dy0 3.337867 1_456
Bi2 Dy0 3.337867 1_455
Bi2 Dy1 3.337867 1_556
Bi2 Dy1 3.337867 1_555
