# generated using pymatgen
data_TbAl3
_symmetry_space_group_name_H-M   'P 1'
_cell_length_a   7.85510702
_cell_length_b   7.85510677
_cell_length_c   7.85510621
_cell_angle_alpha   46.50884078
_cell_angle_beta   46.50884151
_cell_angle_gamma   46.50884149
_symmetry_Int_Tables_number   1
_chemical_formula_structural   TbAl3
_chemical_formula_sum   'Tb3 Al9'
_cell_volume   232.93810854
_cell_formula_units_Z   3
loop_
 _symmetry_equiv_pos_site_id
 _symmetry_equiv_pos_as_xyz
  1  'x, y, z'
loop_
 _atom_site_type_symbol
 _atom_site_label
 _atom_site_symmetry_multiplicity
 _atom_site_fract_x
 _atom_site_fract_y
 _atom_site_fract_z
 _atom_site_occupancy
  Tb  Tb0  1  0.78272857  0.78272857  0.78272857  1
  Tb  Tb1  1  0.21727143  0.21727143  0.21727143  1
  Tb  Tb2  1  0.00000000  -0.00000000  0.00000000  1
  Al  Al0  1  0.70108131  0.70108131  0.26689685  1
  Al  Al1  1  0.70108131  0.26689685  0.70108131  1
  Al  Al2  1  0.26689685  0.70108131  0.70108131  1
  Al  Al3  1  0.50000000  0.50000000  0.00000000  1
  Al  Al4  1  0.00000000  0.50000000  0.50000000  1
  Al  Al5  1  0.50000000  -0.00000000  0.50000000  1
  Al  Al6  1  0.29891869  0.73310315  0.29891869  1
  Al  Al7  1  0.29891869  0.29891869  0.73310315  1
  Al  Al8  1  0.73310315  0.29891869  0.29891869  1
loop_
_geom_bond_atom_site_label_1
_geom_bond_atom_site_label_2
_geom_bond_distance
_geom_bond_site_symmetry_2
Al0 Al1 2.693083 1_555
Al0 Al2 2.693083 1_555
Al0 Al8 2.829412 1_555
Al0 Al6 2.829412 1_555
Al0 Al5 2.862313 1_565
Al0 Al4 2.862313 1_655
Al0 Tb0 3.022938 1_554
Al0 Tb2 3.075530 1_665
Al0 Tb1 3.112591 1_565
Al0 Tb1 3.112591 1_655
Al1 Al2 2.693083 1_555
Al1 Al8 2.829412 1_555
Al1 Al7 2.829412 1_555
Al1 Al3 2.862313 1_556
Al1 Al4 2.862313 1_655
Al1 Tb0 3.022938 1_545
Al1 Tb2 3.075529 1_656
Al1 Tb1 3.112591 1_556
Al1 Tb1 3.112591 1_655
Al2 Al6 2.829412 1_555
Al2 Al7 2.829412 1_555
Al2 Al3 2.862313 1_556
Al2 Al5 2.862313 1_565
Al2 Tb0 3.022939 1_455
Al2 Tb2 3.075529 1_566
Al2 Tb1 3.112591 1_565
Al2 Tb1 3.112591 1_556
Al3 Al6 2.862313 1_555
Al3 Al8 2.862313 1_555
Al3 Tb1 3.021879 1_555
Al3 Tb0 3.021879 1_554
Al3 Al5 3.101312 1_555
Al3 Al5 3.101312 1_564
Al3 Al4 3.101312 1_555
Al3 Al4 3.101312 1_654
Al3 Tb2 3.101312 1_565
Al3 Tb2 3.101312 1_655
Al4 Al7 2.862313 1_555
Al4 Al6 2.862313 1_555
Al4 Tb1 3.021878 1_555
Al4 Tb0 3.021878 1_455
Al4 Tb2 3.101312 1_556
Al4 Tb2 3.101312 1_565
Al4 Al5 3.101312 1_555
Al4 Al5 3.101312 1_465
Al5 Al7 2.862313 1_555
Al5 Al8 2.862313 1_555
Al5 Tb1 3.021878 1_555
Al5 Tb0 3.021878 1_545
Al5 Tb2 3.101312 1_556
Al5 Tb2 3.101312 1_655
Al6 Al7 2.693083 1_555
Al6 Al8 2.693083 1_555
Al6 Tb1 3.022938 1_565
Al6 Tb2 3.075529 1_565
Al6 Tb0 3.112591 1_554
Al6 Tb0 3.112591 1_455
Al7 Al8 2.693083 1_555
Al7 Tb1 3.022938 1_556
Al7 Tb2 3.075530 1_556
Al7 Tb0 3.112591 1_545
Al7 Tb0 3.112591 1_455
Al8 Tb1 3.022939 1_655
Al8 Tb2 3.075529 1_655
Al8 Tb0 3.112591 1_545
Al8 Tb0 3.112591 1_554
