# generated using pymatgen
data_Zn8SnPd3O16
_symmetry_space_group_name_H-M   'P 1'
_cell_length_a   6.05593896
_cell_length_b   6.06476164
_cell_length_c   8.49676535
_cell_angle_alpha   89.93323929
_cell_angle_beta   90.00000000
_cell_angle_gamma   90.00000000
_symmetry_Int_Tables_number   1
_chemical_formula_structural   Zn8SnPd3O16
_chemical_formula_sum   'Zn8 Sn1 Pd3 O16'
_cell_volume   312.06750973
_cell_formula_units_Z   1
loop_
 _symmetry_equiv_pos_site_id
 _symmetry_equiv_pos_as_xyz
  1  'x, y, z'
loop_
 _atom_site_type_symbol
 _atom_site_label
 _atom_site_symmetry_multiplicity
 _atom_site_fract_x
 _atom_site_fract_y
 _atom_site_fract_z
 _atom_site_occupancy
  Zn  Zn0  1  0.99968060  0.23082032  0.99786781  1
  Zn  Zn1  1  0.99968060  0.76917968  0.50213219  1
  Zn  Zn2  1  0.23360751  0.00000000  0.75000000  1
  Zn  Zn3  1  0.25807524  0.24561197  0.37556945  1
  Zn  Zn4  1  0.25807524  0.75438803  0.12443055  1
  Zn  Zn5  1  0.74686578  0.25207484  0.62885065  1
  Zn  Zn6  1  0.74686578  0.74792516  0.87114935  1
  Zn  Zn7  1  0.76283298  0.00000000  0.25000000  1
  Sn  Sn0  1  0.76286812  0.50000000  0.25000000  1
  Pd  Pd0  1  0.24636396  0.50000000  0.75000000  1
  Pd  Pd1  1  0.49765711  0.24739232  0.99741946  1
  Pd  Pd2  1  0.49765711  0.75260768  0.50258054  1
  O  O0  1  0.01850444  0.26145067  0.75440181  1
  O  O1  1  0.01850444  0.73854933  0.74559819  1
  O  O2  1  0.25480428  0.47995902  0.98702301  1
  O  O3  1  0.25480428  0.52004098  0.51297699  1
  O  O4  1  0.26197739  0.01847691  0.99213254  1
  O  O5  1  0.26197739  0.98152309  0.50786746  1
  O  O6  1  0.47693028  0.25660295  0.76225957  1
  O  O7  1  0.47693028  0.74339705  0.73774043  1
  O  O8  1  0.51926162  0.25400855  0.23409862  1
  O  O9  1  0.51926162  0.74599145  0.26590138  1
  O  O10  1  0.73628257  0.98144924  0.49775870  1
  O  O11  1  0.73628257  0.01855076  0.00224130  1
  O  O12  1  0.73825743  0.48074681  0.00756633  1
  O  O13  1  0.73825743  0.51925319  0.49243367  1
  O  O14  1  0.98886848  0.25315953  0.24735030  1
  O  O15  1  0.98886848  0.74684047  0.25264970  1
loop_
_geom_bond_atom_site_label_1
_geom_bond_atom_site_label_2
_geom_bond_distance
_geom_bond_site_symmetry_2
O0 Zn5 1.961506 1_455
O0 Pd0 1.999619 1_555
O0 Zn2 2.052481 1_555
O0 Zn0 2.079908 1_455
O1 Zn6 1.961506 1_455
O1 Pd0 1.999619 1_555
O1 Zn2 2.052481 1_565
O1 Zn1 2.079908 1_455
O2 Pd0 2.018099 1_555
O2 Zn4 2.034225 1_556
O2 Pd1 2.039578 1_555
O2 Zn0 2.162927 1_455
O3 Pd0 2.018099 1_555
O3 Zn3 2.034225 1_555
O3 Pd2 2.039578 1_555
O3 Zn1 2.162927 1_455
O4 Zn4 1.955815 1_546
O4 Pd1 1.991649 1_555
O4 Zn0 2.045523 1_455
O4 Zn2 2.067673 1_555
O5 Zn3 1.955815 1_565
O5 Pd2 1.991649 1_555
O5 Zn1 2.045523 1_455
O5 Zn2 2.067673 1_565
O6 Zn5 1.989481 1_555
O6 Pd1 2.002751 1_555
O6 Pd0 2.034487 1_555
O6 Zn2 2.145796 1_555
O7 Zn6 1.989481 1_555
O7 Pd2 2.002751 1_555
O7 Pd0 2.034487 1_555
O7 Zn2 2.145796 1_565
O8 Zn3 1.987266 1_555
O8 Pd1 2.015705 1_554
O8 Sn0 2.102579 1_555
O8 Zn7 2.136983 1_555
O9 Zn4 1.987266 1_555
O9 Pd2 2.015705 1_555
O9 Sn0 2.102579 1_555
O9 Zn7 2.136983 1_565
O10 Zn5 1.985660 1_565
O10 Pd2 2.004007 1_555
O10 Zn1 2.050120 1_555
O10 Zn7 2.114144 1_565
O11 Zn6 1.985660 1_544
O11 Pd1 2.004007 1_554
O11 Zn0 2.050120 1_554
O11 Zn7 2.114144 1_555
O12 Zn6 1.991851 1_554
O12 Pd1 2.033137 1_554
O12 Sn0 2.068720 1_555
O12 Zn0 2.193392 1_554
O13 Zn5 1.991851 1_555
O13 Pd2 2.033137 1_555
O13 Sn0 2.068720 1_555
O13 Zn1 2.193392 1_555
O14 Zn3 1.961314 1_655
O14 Sn0 2.028514 1_555
O14 Zn7 2.057062 1_555
O14 Zn0 2.125286 1_554
O15 Zn4 1.961314 1_655
O15 Sn0 2.028514 1_555
O15 Zn7 2.057062 1_565
O15 Zn1 2.125286 1_555
