# generated using pymatgen
data_KScSnS4
_symmetry_space_group_name_H-M   'P 1'
_cell_length_a   3.74891338
_cell_length_b   8.04528629
_cell_length_c   6.43572265
_cell_angle_alpha   72.98745003
_cell_angle_beta   90.00000000
_cell_angle_gamma   90.00000000
_symmetry_Int_Tables_number   1
_chemical_formula_structural   KScSnS4
_chemical_formula_sum   'K1 Sc1 Sn1 S4'
_cell_volume   185.61430762
_cell_formula_units_Z   1
loop_
 _symmetry_equiv_pos_site_id
 _symmetry_equiv_pos_as_xyz
  1  'x, y, z'
loop_
 _atom_site_type_symbol
 _atom_site_label
 _atom_site_symmetry_multiplicity
 _atom_site_fract_x
 _atom_site_fract_y
 _atom_site_fract_z
 _atom_site_occupancy
  K  K0  1  0.50000000  0.49810574  0.64552053  1
  Sc  Sc0  1  0.50000000  0.00791309  0.50201582  1
  Sn  Sn0  1  0.00000000  0.99337644  0.00480988  1
  S  S0  1  0.00000000  0.81750438  0.40707135  1
  S  S1  1  0.50000000  0.80916174  0.90733534  1
  S  S2  1  0.00000000  0.18922029  0.60593748  1
  S  S3  1  0.50000000  0.18383833  0.09427060  1
loop_
_geom_bond_atom_site_label_1
_geom_bond_atom_site_label_2
_geom_bond_distance
_geom_bond_site_symmetry_2
K0 S2 3.181903 1_555
K0 S2 3.181903 1_655
K0 S0 3.188129 1_655
K0 S0 3.188129 1_555
K0 S3 3.234273 1_556
K0 S1 3.401359 1_555
S0 Sn0 2.561383 1_555
S0 Sc0 2.604109 1_565
S0 Sc0 2.604109 1_465
S1 Sn0 2.578305 1_556
S1 Sn0 2.578305 1_656
S1 Sc0 2.630682 1_565
S2 Sc0 2.580596 1_455
S2 Sc0 2.580596 1_555
S2 Sn0 2.589487 1_546
S3 Sn0 2.590236 1_645
S3 Sn0 2.590236 1_545
S3 Sc0 2.591523 1_555
