# generated using pymatgen
data_CdBiPO5
_symmetry_space_group_name_H-M   'P 1'
_cell_length_a   5.41341838
_cell_length_b   6.83883450
_cell_length_c   6.86763194
_cell_angle_alpha   109.37285399
_cell_angle_beta   107.19723205
_cell_angle_gamma   98.96554203
_symmetry_Int_Tables_number   1
_chemical_formula_structural   CdBiPO5
_chemical_formula_sum   'Cd2 Bi2 P2 O10'
_cell_volume   219.84825611
_cell_formula_units_Z   2
loop_
 _symmetry_equiv_pos_site_id
 _symmetry_equiv_pos_as_xyz
  1  'x, y, z'
loop_
 _atom_site_type_symbol
 _atom_site_label
 _atom_site_symmetry_multiplicity
 _atom_site_fract_x
 _atom_site_fract_y
 _atom_site_fract_z
 _atom_site_occupancy
  Cd  Cd0  1  0.82899310  0.87911326  0.19537989  1
  Cd  Cd1  1  0.17100690  0.12088674  0.80461911  1
  Bi  Bi0  1  0.39290572  0.72916026  0.44903012  1
  Bi  Bi1  1  0.60709528  0.27084074  0.55097088  1
  P  P0  1  0.83096980  0.33067319  0.12806251  1
  P  P1  1  0.16903020  0.66932681  0.87193849  1
  O  O0  1  0.37782564  0.70750323  0.09998342  1
  O  O1  1  0.08503024  0.26731103  0.11118089  1
  O  O2  1  0.69003641  0.18714219  0.21987441  1
  O  O3  1  0.91025541  0.57150589  0.28581899  1
  O  O4  1  0.24515332  0.99983049  0.45813322  1
  O  O5  1  0.75484568  0.00016951  0.54186578  1
  O  O6  1  0.08974559  0.42849511  0.71418201  1
  O  O7  1  0.30996059  0.81285681  0.78012559  1
  O  O8  1  0.91497176  0.73268697  0.88881911  1
  O  O9  1  0.62217236  0.29249677  0.90001558  1
loop_
_geom_bond_atom_site_label_1
_geom_bond_atom_site_label_2
_geom_bond_distance
_geom_bond_site_symmetry_2
Cd0 O8 2.231125 1_554
Cd0 O4 2.245259 1_655
Cd0 O2 2.316326 1_565
Cd0 O0 2.328523 1_555
Cd0 O5 2.422834 1_565
Cd0 O3 2.449172 1_555
Cd1 O1 2.231123 1_556
Cd1 O5 2.245263 1_455
Cd1 O7 2.316325 1_545
Cd1 O9 2.328513 1_555
Cd1 O4 2.422831 1_545
Cd1 O6 2.449171 1_555
Bi0 O4 2.117635 1_555
Bi0 O5 2.241887 1_565
Bi0 O0 2.328042 1_555
Bi0 O7 2.349464 1_555
Bi0 O3 2.415358 1_455
Bi1 O5 2.117633 1_555
Bi1 O4 2.241895 1_545
Bi1 O9 2.328035 1_555
Bi1 O2 2.349458 1_555
Bi1 O6 2.415358 1_655
O0 P1 1.545475 1_554
O1 P0 1.529532 1_455
O2 P0 1.550740 1_555
O3 P0 1.546461 1_555
O6 P1 1.546456 1_555
O7 P1 1.550732 1_555
O8 P1 1.529514 1_655
O9 P0 1.545490 1_556
