# generated using pymatgen
data_CaCr2(Sb6Os)2
_symmetry_space_group_name_H-M   'P 1'
_cell_length_a   8.19694469
_cell_length_b   8.17331363
_cell_length_c   8.17331383
_cell_angle_alpha   109.66813021
_cell_angle_beta   109.35990803
_cell_angle_gamma   109.26967367
_symmetry_Int_Tables_number   1
_chemical_formula_structural   CaCr2(Sb6Os)2
_chemical_formula_sum   'Ca1 Cr2 Sb12 Os2'
_cell_volume   422.12592888
_cell_formula_units_Z   1
loop_
 _symmetry_equiv_pos_site_id
 _symmetry_equiv_pos_as_xyz
  1  'x, y, z'
loop_
 _atom_site_type_symbol
 _atom_site_label
 _atom_site_symmetry_multiplicity
 _atom_site_fract_x
 _atom_site_fract_y
 _atom_site_fract_z
 _atom_site_occupancy
  Ca  Ca0  1  0.00000000  0.00000000  0.00000000  1
  Cr  Cr0  1  0.00000000  0.50000000  0.00000000  1
  Cr  Cr1  1  0.00000000  0.00000000  0.50000000  1
  Sb  Sb0  1  0.84102445  0.65385196  0.50482333  1
  Sb  Sb1  1  0.15897555  0.34614804  0.49517667  1
  Sb  Sb2  1  0.15897555  0.66379888  0.81282851  1
  Sb  Sb3  1  0.84102445  0.33620112  0.18717149  1
  Sb  Sb4  1  0.65321299  0.50362956  0.84104992  1
  Sb  Sb5  1  0.34678701  0.49637044  0.15895008  1
  Sb  Sb6  1  0.65321299  0.81216407  0.14958342  1
  Sb  Sb7  1  0.34678701  0.18783593  0.85041658  1
  Sb  Sb8  1  0.50653697  0.84335627  0.66318070  1
  Sb  Sb9  1  0.49346303  0.15664373  0.33681930  1
  Sb  Sb10  1  0.19513754  0.84924902  0.34588852  1
  Sb  Sb11  1  0.80486246  0.15075098  0.65411148  1
  Os  Os0  1  0.50000000  0.50000000  0.50000000  1
  Os  Os1  1  0.50000000  0.00000000  0.00000000  1
loop_
_geom_bond_atom_site_label_1
_geom_bond_atom_site_label_2
_geom_bond_distance
_geom_bond_site_symmetry_2
Ca0 Sb8 3.522155 1_444
Ca0 Sb9 3.522155 1_555
Ca0 Sb3 3.527702 1_455
Ca0 Sb2 3.527702 1_544
Ca0 Sb1 3.527705 1_555
Ca0 Sb0 3.527705 1_444
Ca0 Sb7 3.552359 1_554
Ca0 Sb6 3.552359 1_445
Ca0 Sb4 3.552361 1_444
Ca0 Sb5 3.552361 1_555
Ca0 Sb10 3.566007 1_545
Ca0 Sb11 3.566007 1_454
Cr0 Sb10 2.693538 1_555
Cr0 Sb11 2.693538 1_454
Cr0 Sb2 2.716549 1_554
Cr0 Sb3 2.716549 1_455
Cr0 Sb4 2.720694 1_454
Cr0 Sb5 2.720694 1_555
Cr1 Sb11 2.693538 1_455
Cr1 Sb10 2.693538 1_545
Cr1 Sb1 2.716557 1_555
Cr1 Sb0 2.716557 1_445
Cr1 Sb7 2.720695 1_555
Cr1 Sb6 2.720695 1_445
Sb0 Sb2 2.917000 1_655
Sb0 Sb3 2.990618 1_555
Sb1 Sb3 2.917000 1_455
Sb1 Sb2 2.990618 1_555
Sb4 Sb6 2.904780 1_556
Sb4 Sb7 2.993035 1_555
Sb5 Sb7 2.904780 1_554
Sb5 Sb6 2.993035 1_555
Sb10 Sb9 2.913424 1_565
Sb10 Sb8 3.003249 1_555
Sb11 Sb8 2.913424 1_545
Sb11 Sb9 3.003249 1_555
Os0 Sb5 2.635724 1_555
Os0 Sb4 2.635724 1_555
Os0 Sb1 2.640139 1_555
Os0 Sb0 2.640139 1_555
Os0 Sb8 2.644087 1_555
Os0 Sb9 2.644087 1_555
Os1 Sb6 2.635716 1_545
Os1 Sb7 2.635716 1_554
Os1 Sb3 2.640140 1_555
Os1 Sb2 2.640140 1_544
Os1 Sb9 2.644087 1_555
Os1 Sb8 2.644087 1_544
