# generated using pymatgen
data_Sc7SiI12
_symmetry_space_group_name_H-M   'P 1'
_cell_length_a   9.34051147
_cell_length_b   9.33398637
_cell_length_c   9.33719706
_cell_angle_alpha   107.59171888
_cell_angle_beta   107.68794793
_cell_angle_gamma   107.79563249
_symmetry_Int_Tables_number   1
_chemical_formula_structural   Sc7SiI12
_chemical_formula_sum   'Sc7 Si1 I12'
_cell_volume   664.74387435
_cell_formula_units_Z   1
loop_
 _symmetry_equiv_pos_site_id
 _symmetry_equiv_pos_as_xyz
  1  'x, y, z'
loop_
 _atom_site_type_symbol
 _atom_site_label
 _atom_site_symmetry_multiplicity
 _atom_site_fract_x
 _atom_site_fract_y
 _atom_site_fract_z
 _atom_site_occupancy
  Sc  Sc0  1  0.30049337  0.09717002  0.02936360  1
  Sc  Sc1  1  0.09787181  0.03015777  0.30060790  1
  Sc  Sc2  1  0.02878640  0.30030248  0.09855537  1
  Sc  Sc3  1  0.69950663  0.90282998  0.97063640  1
  Sc  Sc4  1  0.90212819  0.96984223  0.69939210  1
  Sc  Sc5  1  0.97121360  0.69969752  0.90144463  1
  Sc  Sc6  1  0.50000000  0.50000000  0.50000000  1
  Si  Si0  1  0.00000000  0.00000000  0.00000000  1
  I  I0  1  0.22432133  0.07563504  0.68664551  1
  I  I1  1  0.07539680  0.68670560  0.22418318  1
  I  I2  1  0.68655679  0.22509459  0.07588694  1
  I  I3  1  0.77567867  0.92436496  0.31335449  1
  I  I4  1  0.92460320  0.31329440  0.77581682  1
  I  I5  1  0.31344321  0.77490541  0.92411306  1
  I  I6  1  0.38356832  0.45917751  0.15284039  1
  I  I7  1  0.45933293  0.15275824  0.38403421  1
  I  I8  1  0.15367211  0.38423784  0.46032490  1
  I  I9  1  0.61643168  0.54082249  0.84715961  1
  I  I10  1  0.54066707  0.84724176  0.61596579  1
  I  I11  1  0.84632789  0.61576216  0.53967510  1
loop_
_geom_bond_atom_site_label_1
_geom_bond_atom_site_label_2
_geom_bond_distance
_geom_bond_site_symmetry_2
Sc0 Si0 2.569383 1_555
Sc1 Si0 2.568884 1_555
Sc2 Si0 2.570181 1_555
Sc3 Si0 2.569383 1_666
Sc4 Si0 2.568884 1_666
Sc5 Si0 2.570181 1_666
I0 Sc4 2.918608 1_445
I0 Sc0 2.987816 1_556
I0 Sc1 3.278620 1_555
I1 Sc5 2.924680 1_454
I1 Sc1 2.990840 1_565
I1 Sc2 3.278145 1_555
I2 Sc3 2.921700 1_544
I2 Sc2 2.980480 1_655
I2 Sc0 3.274234 1_555
I3 Sc1 2.918608 1_665
I3 Sc3 2.987816 1_554
I3 Sc4 3.278620 1_555
I4 Sc2 2.924680 1_656
I4 Sc4 2.990840 1_545
I4 Sc5 3.278145 1_555
I5 Sc0 2.921700 1_566
I5 Sc5 2.980480 1_455
I5 Sc3 3.274234 1_555
I6 Sc6 2.948419 1_555
I6 Sc0 2.974509 1_555
I6 Sc2 2.993117 1_555
I7 Sc6 2.949228 1_555
I7 Sc1 2.969292 1_555
I7 Sc0 2.990402 1_555
I8 Sc6 2.943216 1_555
I8 Sc2 2.971889 1_555
I8 Sc1 2.985642 1_555
I9 Sc6 2.948419 1_555
I9 Sc3 2.974509 1_555
I9 Sc5 2.993117 1_555
I10 Sc6 2.949228 1_555
I10 Sc4 2.969292 1_555
I10 Sc3 2.990402 1_555
I11 Sc6 2.943216 1_555
I11 Sc5 2.971889 1_555
I11 Sc4 2.985642 1_555
