# generated using pymatgen
data_RbNb(WSe3)2
_symmetry_space_group_name_H-M   'P 1'
_cell_length_a   5.87315309
_cell_length_b   5.87315549
_cell_length_c   18.17103866
_cell_angle_alpha   90.00000000
_cell_angle_beta   90.00000000
_cell_angle_gamma   120.00000321
_symmetry_Int_Tables_number   1
_chemical_formula_structural   RbNb(WSe3)2
_chemical_formula_sum   'Rb2 Nb2 W4 Se12'
_cell_volume   542.81668779
_cell_formula_units_Z   2
loop_
 _symmetry_equiv_pos_site_id
 _symmetry_equiv_pos_as_xyz
  1  'x, y, z'
loop_
 _atom_site_type_symbol
 _atom_site_label
 _atom_site_symmetry_multiplicity
 _atom_site_fract_x
 _atom_site_fract_y
 _atom_site_fract_z
 _atom_site_occupancy
  Rb  Rb0  1  0.00000000  0.00000000  0.00000000  1
  Rb  Rb1  1  0.00000000  0.00000000  0.50000000  1
  Nb  Nb0  1  0.66666700  0.33333300  0.25000000  1
  Nb  Nb1  1  0.33333300  0.66666700  0.75000000  1
  W  W0  1  0.00000000  0.00000000  0.75000000  1
  W  W1  1  0.00000000  0.00000000  0.25000000  1
  W  W2  1  0.33333300  0.66666700  0.25000000  1
  W  W3  1  0.66666700  0.33333300  0.75000000  1
  Se  Se0  1  0.32779866  0.99291421  0.15903997  1
  Se  Se1  1  0.00708579  0.33488445  0.15903997  1
  Se  Se2  1  0.66511555  0.67220134  0.15903997  1
  Se  Se3  1  0.33488445  0.32779866  0.65903997  1
  Se  Se4  1  0.66511555  0.67220134  0.34096003  1
  Se  Se5  1  0.67220134  0.00708579  0.65903997  1
  Se  Se6  1  0.99291421  0.66511555  0.65903997  1
  Se  Se7  1  0.99291421  0.66511555  0.84096003  1
  Se  Se8  1  0.33488445  0.32779866  0.84096003  1
  Se  Se9  1  0.00708579  0.33488445  0.34096003  1
  Se  Se10  1  0.32779866  0.99291421  0.34096003  1
  Se  Se11  1  0.67220134  0.00708579  0.84096003  1
loop_
_geom_bond_atom_site_label_1
_geom_bond_atom_site_label_2
_geom_bond_distance
_geom_bond_site_symmetry_2
Rb0 Se0 3.484241 1_545
Rb0 Se11 3.484241 1_454
Rb0 Se2 3.484241 1_445
Rb0 Se8 3.484241 1_554
Rb0 Se1 3.484242 1_555
Rb0 Se7 3.484242 1_444
Rb1 Se5 3.484241 1_455
Rb1 Se10 3.484241 1_545
Rb1 Se3 3.484241 1_555
Rb1 Se4 3.484241 1_445
Rb1 Se6 3.484242 1_445
Rb1 Se9 3.484242 1_555
Nb0 Se9 2.590573 1_655
Nb0 Se1 2.590573 1_655
Nb0 Se10 2.590575 1_545
Nb0 Se0 2.590575 1_545
Nb0 Se4 2.590578 1_555
Nb0 Se2 2.590578 1_555
Nb1 Se7 2.590573 1_455
Nb1 Se6 2.590573 1_455
Nb1 Se11 2.590575 1_565
Nb1 Se5 2.590575 1_565
Nb1 Se8 2.590578 1_555
Nb1 Se3 2.590578 1_555
Se0 W2 2.542962 1_555
Se0 W1 2.553462 1_565
Se1 W2 2.542963 1_555
Se1 W1 2.553462 1_555
Se2 W2 2.542965 1_555
Se2 W1 2.553462 1_665
Se3 W3 2.542965 1_555
Se3 W0 2.553462 1_555
Se4 W2 2.542965 1_555
Se4 W1 2.553462 1_665
Se5 W3 2.542962 1_555
Se5 W0 2.553462 1_655
Se6 W3 2.542963 1_555
Se6 W0 2.553462 1_665
Se7 W3 2.542963 1_555
Se7 W0 2.553462 1_665
Se8 W3 2.542965 1_555
Se8 W0 2.553462 1_555
Se9 W2 2.542963 1_555
Se9 W1 2.553462 1_555
Se10 W2 2.542962 1_555
Se10 W1 2.553462 1_565
Se11 W3 2.542962 1_555
Se11 W0 2.553462 1_655
