# generated using pymatgen
data_Ta3NbTe8H3
_symmetry_space_group_name_H-M   'P 1'
_cell_length_a   3.63446849
_cell_length_b   3.63447008
_cell_length_c   30.23862721
_cell_angle_alpha   90.00000000
_cell_angle_beta   90.00000000
_cell_angle_gamma   119.99999464
_symmetry_Int_Tables_number   1
_chemical_formula_structural   Ta3NbTe8H3
_chemical_formula_sum   'Ta3 Nb1 Te8 H3'
_cell_volume   345.91925066
_cell_formula_units_Z   1
loop_
 _symmetry_equiv_pos_site_id
 _symmetry_equiv_pos_as_xyz
  1  'x, y, z'
loop_
 _atom_site_type_symbol
 _atom_site_label
 _atom_site_symmetry_multiplicity
 _atom_site_fract_x
 _atom_site_fract_y
 _atom_site_fract_z
 _atom_site_occupancy
  Ta  Ta0  1  0.66666700  0.33333300  0.50000000  1
  Ta  Ta1  1  0.33333300  0.66666700  0.24948387  1
  Ta  Ta2  1  0.33333300  0.66666700  0.75051613  1
  Nb  Nb0  1  0.66666700  0.33333300  0.00000000  1
  Te  Te0  1  0.66666700  0.33333300  0.31282171  1
  Te  Te1  1  0.66666700  0.33333300  0.81381978  1
  Te  Te2  1  0.33333300  0.66666700  0.93846687  1
  Te  Te3  1  0.33333300  0.66666700  0.43669328  1
  Te  Te4  1  0.33333300  0.66666700  0.06153313  1
  Te  Te5  1  0.33333300  0.66666700  0.56330672  1
  Te  Te6  1  0.66666700  0.33333300  0.18618022  1
  Te  Te7  1  0.66666700  0.33333300  0.68717829  1
  H  H0  1  0.00000000  0.00000000  0.50000000  1
  H  H1  1  0.00000000  0.00000000  0.24950194  1
  H  H2  1  0.00000000  0.00000000  0.75049806  1
loop_
_geom_bond_atom_site_label_1
_geom_bond_atom_site_label_2
_geom_bond_distance
_geom_bond_site_symmetry_2
Ta0 Te5 2.840368 1_655
Ta0 Te3 2.840368 1_655
Ta0 Te5 2.840368 1_545
Ta0 Te3 2.840368 1_545
Ta0 Te5 2.840373 1_555
Ta0 Te3 2.840373 1_555
Ta1 Te6 2.840305 1_455
Ta1 Te6 2.840306 1_565
Ta1 Te6 2.840310 1_555
Ta1 Te0 2.841002 1_455
Ta1 Te0 2.841003 1_565
Ta1 Te0 2.841007 1_555
Ta2 Te1 2.840305 1_455
Ta2 Te1 2.840306 1_565
Ta2 Te1 2.840310 1_555
Ta2 Te7 2.841002 1_455
Ta2 Te7 2.841003 1_565
Ta2 Te7 2.841007 1_555
Nb0 Te2 2.804502 1_654
Nb0 Te4 2.804502 1_655
Nb0 Te2 2.804503 1_544
Nb0 Te4 2.804503 1_545
Nb0 Te2 2.804507 1_554
Nb0 Te4 2.804507 1_555
H0 Ta0 2.098360 1_455
H0 Ta0 2.098363 1_555
H0 Ta0 2.098363 1_445
H1 Ta1 2.098360 1_545
H1 Ta1 2.098363 1_445
H1 Ta1 2.098364 1_555
H2 Ta2 2.098360 1_545
H2 Ta2 2.098363 1_445
H2 Ta2 2.098364 1_555
