# generated using pymatgen
data_SiO2
_symmetry_space_group_name_H-M   'P 1'
_cell_length_a   4.12739300
_cell_length_b   5.07527600
_cell_length_c   6.95668571
_cell_angle_alpha   78.26433983
_cell_angle_beta   90.00000000
_cell_angle_gamma   90.00000000
_symmetry_Int_Tables_number   1
_chemical_formula_structural   SiO2
_chemical_formula_sum   'Si6 O12'
_cell_volume   142.68007504
_cell_formula_units_Z   6
loop_
 _symmetry_equiv_pos_site_id
 _symmetry_equiv_pos_as_xyz
  1  'x, y, z'
loop_
 _atom_site_type_symbol
 _atom_site_label
 _atom_site_symmetry_multiplicity
 _atom_site_fract_x
 _atom_site_fract_y
 _atom_site_fract_z
 _atom_site_occupancy
  Si  Si0  1  0.99704900  0.19961700  0.33458100  1
  Si  Si1  1  0.00000000  0.00000000  0.00000000  1
  Si  Si2  1  0.50295100  0.69961700  0.33458100  1
  Si  Si3  1  0.50000000  0.50000000  0.00000000  1
  Si  Si4  1  0.49704900  0.30038300  0.66541900  1
  Si  Si5  1  0.00295100  0.80038300  0.66541900  1
  O  O0  1  0.78661100  0.76579400  0.88926700  1
  O  O1  1  0.77177100  0.95974500  0.22223000  1
  O  O2  1  0.76791200  0.10141200  0.55405000  1
  O  O3  1  0.73208800  0.60141200  0.55405000  1
  O  O4  1  0.72822900  0.45974500  0.22223000  1
  O  O5  1  0.71338900  0.26579400  0.88926700  1
  O  O6  1  0.28661100  0.73420600  0.11073300  1
  O  O7  1  0.27177100  0.54025500  0.77777000  1
  O  O8  1  0.26791200  0.39858800  0.44595000  1
  O  O9  1  0.23208800  0.89858800  0.44595000  1
  O  O10  1  0.22822900  0.04025500  0.77777000  1
  O  O11  1  0.21338900  0.23420600  0.11073300  1
loop_
_geom_bond_atom_site_label_1
_geom_bond_atom_site_label_2
_geom_bond_distance
_geom_bond_site_symmetry_2
O0 Si5 1.772545 1_655
O0 Si1 1.776096 1_666
O0 Si3 1.841146 1_556
O1 Si2 1.779089 1_555
O1 Si1 1.786244 1_665
O1 Si0 1.828827 1_565
O2 Si0 1.778856 1_555
O2 Si4 1.785528 1_555
O2 Si5 1.842286 1_645
O3 Si2 1.778856 1_555
O3 Si5 1.785528 1_655
O3 Si4 1.842286 1_555
O4 Si0 1.779089 1_555
O4 Si3 1.786244 1_555
O4 Si2 1.828827 1_555
O5 Si4 1.772545 1_555
O5 Si3 1.776096 1_556
O5 Si1 1.841146 1_656
O6 Si2 1.772545 1_555
O6 Si3 1.776096 1_555
O6 Si1 1.841146 1_565
O7 Si5 1.779089 1_555
O7 Si3 1.786244 1_556
O7 Si4 1.828827 1_555
O8 Si4 1.778856 1_555
O8 Si0 1.785528 1_455
O8 Si2 1.842286 1_555
O9 Si5 1.778856 1_555
O9 Si2 1.785528 1_555
O9 Si0 1.842286 1_465
O10 Si4 1.779089 1_555
O10 Si1 1.786244 1_556
O10 Si5 1.828827 1_545
O11 Si0 1.772545 1_455
O11 Si1 1.776096 1_555
O11 Si3 1.841146 1_555
