# generated using pymatgen
data_CsRb2AuO2
_symmetry_space_group_name_H-M   'P 1'
_cell_length_a   6.41801225
_cell_length_b   7.63654839
_cell_length_c   12.83166056
_cell_angle_alpha   90.00000000
_cell_angle_beta   90.00000000
_cell_angle_gamma   90.00000000
_symmetry_Int_Tables_number   1
_chemical_formula_structural   CsRb2AuO2
_chemical_formula_sum   'Cs4 Rb8 Au4 O8'
_cell_volume   628.89843220
_cell_formula_units_Z   4
loop_
 _symmetry_equiv_pos_site_id
 _symmetry_equiv_pos_as_xyz
  1  'x, y, z'
loop_
 _atom_site_type_symbol
 _atom_site_label
 _atom_site_symmetry_multiplicity
 _atom_site_fract_x
 _atom_site_fract_y
 _atom_site_fract_z
 _atom_site_occupancy
  Cs  Cs0  1  0.20293401  0.75000000  0.90168217  1
  Cs  Cs1  1  0.79706599  0.25000000  0.09831783  1
  Cs  Cs2  1  0.70293401  0.25000000  0.59831783  1
  Cs  Cs3  1  0.29706599  0.75000000  0.40168217  1
  Rb  Rb0  1  0.16651437  0.99990783  0.63856297  1
  Rb  Rb1  1  0.66651437  0.49990783  0.86143703  1
  Rb  Rb2  1  0.33348563  0.99990783  0.13856297  1
  Rb  Rb3  1  0.66651437  0.00009217  0.86143703  1
  Rb  Rb4  1  0.16651437  0.50009217  0.63856297  1
  Rb  Rb5  1  0.33348563  0.50009217  0.13856297  1
  Rb  Rb6  1  0.83348563  0.00009217  0.36143703  1
  Rb  Rb7  1  0.83348563  0.49990783  0.36143703  1
  Au  Au0  1  0.68800026  0.75000000  0.62150859  1
  Au  Au1  1  0.18800026  0.25000000  0.87849141  1
  Au  Au2  1  0.31199974  0.25000000  0.37849141  1
  Au  Au3  1  0.81199974  0.75000000  0.12150859  1
  O  O0  1  0.57248677  0.75000000  0.02067512  1
  O  O1  1  0.07248677  0.25000000  0.47932488  1
  O  O2  1  0.54567471  0.25000000  0.27412282  1
  O  O3  1  0.42751323  0.25000000  0.97932488  1
  O  O4  1  0.92751323  0.75000000  0.52067512  1
  O  O5  1  0.45432529  0.75000000  0.72587718  1
  O  O6  1  0.95432529  0.25000000  0.77412282  1
  O  O7  1  0.04567471  0.75000000  0.22587718  1
loop_
_geom_bond_atom_site_label_1
_geom_bond_atom_site_label_2
_geom_bond_distance
_geom_bond_site_symmetry_2
Cs0 O5 2.773466 1_555
Cs0 O0 2.820773 1_556
Cs1 O2 2.773466 1_555
Cs1 O3 2.820773 1_554
Cs2 O6 2.773466 1_555
Cs2 O1 2.820773 1_655
Cs3 O7 2.773466 1_555
Cs3 O4 2.820773 1_455
Au0 O4 2.009241 1_555
Au0 O5 2.010647 1_555
Au1 O3 2.009241 1_555
Au1 O6 2.010647 1_455
Au2 O1 2.009241 1_555
Au2 O2 2.010647 1_555
Au3 O0 2.009241 1_555
Au3 O7 2.010647 1_655
O0 Rb3 2.861241 1_564
O0 Rb1 2.861241 1_554
O0 Rb2 2.878065 1_555
O0 Rb5 2.878065 1_555
O1 Rb4 2.861241 1_555
O1 Rb0 2.861241 1_545
O1 Rb7 2.878065 1_455
O1 Rb6 2.878065 1_455
O2 Rb7 2.882609 1_555
O2 Rb6 2.882609 1_555
O2 Rb5 2.920239 1_555
O2 Rb2 2.920239 1_545
O3 Rb5 2.861241 1_556
O3 Rb2 2.861241 1_546
O3 Rb1 2.878065 1_555
O3 Rb3 2.878065 1_555
O4 Rb6 2.861241 1_565
O4 Rb7 2.861241 1_555
O4 Rb0 2.878065 1_655
O4 Rb4 2.878065 1_655
O5 Rb0 2.882609 1_555
O5 Rb4 2.882609 1_555
O5 Rb3 2.920239 1_565
O5 Rb1 2.920239 1_555
O6 Rb1 2.882609 1_555
O6 Rb3 2.882609 1_555
O6 Rb4 2.920239 1_655
O6 Rb0 2.920239 1_645
O7 Rb2 2.882609 1_555
O7 Rb5 2.882609 1_555
O7 Rb6 2.920239 1_465
O7 Rb7 2.920239 1_455
