# generated using pymatgen
data_Sc22Ga2(TcRu)3
_symmetry_space_group_name_H-M   'P 1'
_cell_length_a   9.65511353
_cell_length_b   9.57393805
_cell_length_c   9.45436710
_cell_angle_alpha   60.97880911
_cell_angle_beta   60.12205598
_cell_angle_gamma   58.89913955
_symmetry_Int_Tables_number   1
_chemical_formula_structural   Sc22Ga2(TcRu)3
_chemical_formula_sum   'Sc22 Ga2 Tc3 Ru3'
_cell_volume   617.55739450
_cell_formula_units_Z   1
loop_
 _symmetry_equiv_pos_site_id
 _symmetry_equiv_pos_as_xyz
  1  'x, y, z'
loop_
 _atom_site_type_symbol
 _atom_site_label
 _atom_site_symmetry_multiplicity
 _atom_site_fract_x
 _atom_site_fract_y
 _atom_site_fract_z
 _atom_site_occupancy
  Sc  Sc0  1  0.80290629  0.80290629  0.19709371  1
  Sc  Sc1  1  0.19782442  0.80217558  0.19782442  1
  Sc  Sc2  1  0.80755401  0.19244599  0.19244599  1
  Sc  Sc3  1  0.19709371  0.19709371  0.80290629  1
  Sc  Sc4  1  0.80217558  0.19782442  0.80217558  1
  Sc  Sc5  1  0.19244599  0.80755401  0.80755401  1
  Sc  Sc6  1  0.62146729  0.61617766  0.15261019  1
  Sc  Sc7  1  0.60974586  0.15261019  0.61617766  1
  Sc  Sc8  1  0.15261019  0.60974586  0.62146729  1
  Sc  Sc9  1  0.61617766  0.62146729  0.60974586  1
  Sc  Sc10  1  0.37853271  0.38382234  0.84738981  1
  Sc  Sc11  1  0.39025414  0.84738981  0.38382234  1
  Sc  Sc12  1  0.84738981  0.39025414  0.37853271  1
  Sc  Sc13  1  0.38382234  0.37853271  0.39025414  1
  Sc  Sc14  1  0.84023193  0.83283519  0.47153259  1
  Sc  Sc15  1  0.85539829  0.47153259  0.83283519  1
  Sc  Sc16  1  0.47153259  0.85539829  0.84023193  1
  Sc  Sc17  1  0.83283519  0.84023193  0.85539829  1
  Sc  Sc18  1  0.15976807  0.16716481  0.52846741  1
  Sc  Sc19  1  0.14460171  0.52846741  0.16716481  1
  Sc  Sc20  1  0.52846741  0.14460171  0.15976807  1
  Sc  Sc21  1  0.16716481  0.15976807  0.14460171  1
  Ga  Ga0  1  0.00000000  0.00000000  0.50000000  1
  Ga  Ga1  1  0.50000000  0.50000000  0.00000000  1
  Tc  Tc0  1  0.00000000  0.00000000  0.00000000  1
  Tc  Tc1  1  0.50000000  0.00000000  0.50000000  1
  Tc  Tc2  1  0.00000000  0.50000000  0.00000000  1
  Ru  Ru0  1  0.50000000  0.50000000  0.50000000  1
  Ru  Ru1  1  0.00000000  0.50000000  0.50000000  1
  Ru  Ru2  1  0.50000000  0.00000000  0.00000000  1
loop_
_geom_bond_atom_site_label_1
_geom_bond_atom_site_label_2
_geom_bond_distance
_geom_bond_site_symmetry_2
Sc0 Tc0 2.723838 1_665
Sc0 Sc14 2.950224 1_555
Sc0 Sc20 2.950235 1_565
Sc0 Sc19 2.950236 1_655
Sc0 Sc17 2.950242 1_554
Sc0 Sc6 3.337758 1_555
Sc0 Sc9 3.337765 1_555
Sc0 Sc12 3.337767 1_555
Sc0 Sc11 3.337767 1_555
Sc1 Tc0 2.668005 1_565
Sc1 Sc19 3.080823 1_555
Sc1 Sc16 3.080835 1_554
Sc1 Sc14 3.080836 1_455
Sc1 Sc21 3.080842 1_565
Sc1 Sc11 3.399431 1_555
Sc1 Sc13 3.399438 1_555
Sc1 Sc8 3.399439 1_555
Sc1 Sc6 3.399440 1_555
Sc2 Tc0 2.550532 1_655
Sc2 Sc20 3.131784 1_555
Sc2 Sc21 3.131804 1_655
Sc2 Sc7 3.389566 1_555
Sc2 Sc6 3.389566 1_555
Sc3 Tc0 2.723838 1_556
Sc3 Sc8 3.337767 1_555
Sc3 Sc7 3.337767 1_555
Sc4 Tc0 2.668005 1_656
Sc4 Sc7 3.399431 1_555
Sc4 Sc9 3.399438 1_555
Sc5 Tc0 2.550532 1_566
Sc5 Sc8 3.389558 1_555
Sc5 Sc9 3.389565 1_555
Sc6 Tc2 2.963109 1_655
Sc7 Tc1 2.963117 1_555
Sc8 Tc2 2.963109 1_556
Sc9 Tc1 2.963109 1_565
Sc10 Tc2 2.963109 1_556
Sc10 Sc8 3.046957 1_555
Sc10 Sc7 3.064310 1_555
Sc10 Sc21 3.102067 1_556
Sc10 Sc19 3.191703 1_556
Sc10 Sc20 3.214772 1_556
Sc10 Sc9 3.284257 1_555
Sc10 Sc3 3.337758 1_555
Sc10 Sc5 3.389566 1_555
Sc10 Sc4 3.399440 1_555
Sc11 Tc1 2.963117 1_565
Sc11 Sc9 3.046970 1_555
Sc11 Sc6 3.064310 1_555
Sc11 Sc20 3.102083 1_565
Sc11 Sc18 3.191703 1_565
Sc11 Sc21 3.214756 1_565
Sc11 Sc8 3.284243 1_555
Sc11 Sc5 3.389566 1_555
Sc12 Tc2 2.963109 1_655
Sc12 Sc6 3.046957 1_555
Sc12 Sc9 3.064323 1_555
Sc12 Sc19 3.102084 1_655
Sc12 Sc21 3.191688 1_655
Sc12 Sc18 3.214773 1_655
Sc12 Sc7 3.284243 1_555
Sc12 Sc2 3.389558 1_555
Sc12 Sc4 3.399439 1_555
Sc13 Tc1 2.963109 1_555
Sc13 Sc7 3.046970 1_555
Sc13 Sc8 3.064323 1_555
Sc13 Sc18 3.102060 1_555
Sc13 Sc20 3.191680 1_555
Sc13 Sc19 3.214749 1_555
Sc13 Sc6 3.284257 1_555
Sc13 Sc3 3.337765 1_555
Sc13 Sc2 3.389565 1_555
Sc14 Tc1 2.744196 1_565
Sc14 Sc9 3.102060 1_555
Sc14 Sc2 3.131796 1_565
Sc14 Sc7 3.191703 1_565
Sc14 Sc8 3.214773 1_655
Sc15 Tc2 2.744212 1_656
Sc15 Sc3 2.950236 1_655
Sc15 Sc4 3.080823 1_555
Sc15 Sc8 3.102084 1_655
Sc15 Sc2 3.131795 1_556
Sc15 Sc6 3.191703 1_556
Sc15 Sc9 3.214749 1_555
Sc16 Tc1 2.744195 1_565
Sc16 Sc3 2.950235 1_565
Sc16 Sc7 3.102083 1_565
Sc16 Sc5 3.131784 1_555
Sc16 Sc9 3.191680 1_555
Sc16 Sc6 3.214772 1_556
Sc17 Tc2 2.744200 1_656
Sc17 Sc4 3.080842 1_565
Sc17 Sc6 3.102067 1_556
Sc17 Sc5 3.131804 1_655
Sc17 Sc8 3.191688 1_655
Sc17 Sc7 3.214756 1_565
Sc18 Tc1 2.744196 1_555
Sc18 Sc3 2.950224 1_555
Sc18 Sc4 3.080836 1_455
Sc18 Sc5 3.131796 1_545
Sc19 Tc2 2.744212 1_555
Sc19 Sc5 3.131795 1_554
Sc20 Tc1 2.744195 1_555
Sc20 Sc4 3.080835 1_554
Sc21 Tc2 2.744200 1_555
Sc21 Sc3 2.950242 1_554
Ga0 Sc17 2.897470 1_445
Ga0 Sc21 2.897470 1_555
Ga0 Sc18 2.897482 1_555
Ga0 Sc14 2.897482 1_445
Ga0 Sc8 3.047115 1_545
Ga0 Sc12 3.047115 1_455
Ga0 Sc11 3.047116 1_545
Ga0 Sc7 3.047116 1_455
Ga0 Sc4 3.387209 1_455
Ga0 Sc1 3.387209 1_545
Ga0 Sc5 3.456888 1_545
Ga0 Sc2 3.456888 1_455
Ga1 Sc16 2.897465 1_554
Ga1 Sc20 2.897465 1_555
Ga1 Sc15 2.897465 1_554
Ga1 Sc19 2.897465 1_555
Ga1 Sc13 3.047115 1_555
Ga1 Sc9 3.047115 1_554
Ga1 Sc6 3.047123 1_555
Ga1 Sc10 3.047123 1_554
Ga1 Sc1 3.387209 1_555
Ga1 Sc4 3.387209 1_554
Ga1 Sc2 3.456888 1_555
Ga1 Sc5 3.456888 1_554
Ru0 Sc11 2.713866 1_555
Ru0 Sc7 2.713866 1_555
Ru0 Sc12 2.713866 1_555
Ru0 Sc8 2.713866 1_555
Ru0 Sc10 2.713866 1_555
Ru0 Sc6 2.713866 1_555
Ru0 Sc9 2.713874 1_555
Ru0 Sc13 2.713874 1_555
Ru1 Sc15 2.666345 1_455
Ru1 Sc19 2.666345 1_555
Ru1 Sc14 2.666345 1_455
Ru1 Sc18 2.666345 1_555
Ru1 Sc13 3.008301 1_555
Ru1 Sc9 3.008301 1_455
Ru1 Sc8 3.008309 1_555
Ru1 Sc12 3.008309 1_455
Ru2 Sc17 2.666349 1_544
Ru2 Sc21 2.666349 1_555
Ru2 Sc20 2.666361 1_555
Ru2 Sc16 2.666361 1_544
Ru2 Sc10 3.008301 1_554
Ru2 Sc6 3.008301 1_545
Ru2 Sc11 3.008301 1_545
Ru2 Sc7 3.008301 1_554
