# generated using pymatgen
data_Lu2Pd2Pb
_symmetry_space_group_name_H-M   'P 1'
_cell_length_a   3.56464954
_cell_length_b   7.71244037
_cell_length_c   7.71244037
_cell_angle_alpha   90.00000000
_cell_angle_beta   90.00000000
_cell_angle_gamma   90.00000000
_symmetry_Int_Tables_number   1
_chemical_formula_structural   Lu2Pd2Pb
_chemical_formula_sum   'Lu4 Pd4 Pb2'
_cell_volume   212.03154451
_cell_formula_units_Z   2
loop_
 _symmetry_equiv_pos_site_id
 _symmetry_equiv_pos_as_xyz
  1  'x, y, z'
loop_
 _atom_site_type_symbol
 _atom_site_label
 _atom_site_symmetry_multiplicity
 _atom_site_fract_x
 _atom_site_fract_y
 _atom_site_fract_z
 _atom_site_occupancy
  Lu  Lu0  1  0.50000000  0.16928283  0.66928283  1
  Lu  Lu1  1  0.50000000  0.33071717  0.16928283  1
  Lu  Lu2  1  0.50000000  0.66928283  0.83071717  1
  Lu  Lu3  1  0.50000000  0.83071717  0.33071717  1
  Pd  Pd0  1  -0.00000000  0.37361069  0.87361069  1
  Pd  Pd1  1  0.00000000  0.12638931  0.37361069  1
  Pd  Pd2  1  -0.00000000  0.87361069  0.62638931  1
  Pd  Pd3  1  0.00000000  0.62638931  0.12638931  1
  Pb  Pb0  1  0.00000000  -0.00000000  -0.00000000  1
  Pb  Pb1  1  0.00000000  0.50000000  0.50000000  1
loop_
_geom_bond_atom_site_label_1
_geom_bond_atom_site_label_2
_geom_bond_distance
_geom_bond_site_symmetry_2
Lu0 Pd0 2.853663 1_555
Lu0 Pd0 2.853663 1_655
Lu0 Pd1 2.913097 1_655
Lu0 Pd1 2.913097 1_555
Lu0 Pd2 2.913097 1_545
Lu0 Pd2 2.913097 1_645
Lu0 Pb0 3.374459 1_656
Lu0 Pb1 3.374459 1_655
Lu0 Pb0 3.374459 1_556
Lu0 Pb1 3.374459 1_555
Lu1 Pd1 2.853663 1_655
Lu1 Pd1 2.853663 1_555
Lu1 Pd0 2.913097 1_654
Lu1 Pd3 2.913097 1_555
Lu1 Pd0 2.913097 1_554
Lu1 Pd3 2.913097 1_655
Lu1 Pb0 3.374459 1_555
Lu1 Pb1 3.374459 1_655
Lu1 Pb1 3.374459 1_555
Lu1 Pb0 3.374459 1_655
Lu2 Pd2 2.853663 1_555
Lu2 Pd2 2.853663 1_655
Lu2 Pd0 2.913097 1_555
Lu2 Pd3 2.913097 1_556
Lu2 Pd0 2.913097 1_655
Lu2 Pd3 2.913097 1_656
Lu2 Pb0 3.374459 1_666
Lu2 Pb0 3.374459 1_566
Lu2 Pb1 3.374459 1_655
Lu2 Pb1 3.374459 1_555
Lu3 Pd3 2.853663 1_555
Lu3 Pd3 2.853663 1_655
Lu3 Pd1 2.913097 1_665
Lu3 Pd2 2.913097 1_655
Lu3 Pd2 2.913097 1_555
Lu3 Pd1 2.913097 1_565
Lu3 Pb1 3.374459 1_655
Lu3 Pb1 3.374459 1_555
Lu3 Pb0 3.374459 1_565
Lu3 Pb0 3.374459 1_665
Pd0 Pd3 2.757066 1_556
Pd1 Pd2 2.757066 1_545
Pb0 Pd1 3.041863 1_555
Pb0 Pd0 3.041863 1_554
Pb0 Pd2 3.041863 1_544
Pb0 Pd3 3.041863 1_545
Pb1 Pd1 3.041863 1_555
Pb1 Pd3 3.041863 1_555
Pb1 Pd0 3.041863 1_555
Pb1 Pd2 3.041863 1_555
