# generated using pymatgen
data_CsAs2IrRu
_symmetry_space_group_name_H-M   'P 1'
_cell_length_a   7.92757386
_cell_length_b   7.92757403
_cell_length_c   7.92757378
_cell_angle_alpha   150.24505365
_cell_angle_beta   150.24505677
_cell_angle_gamma   42.58180997
_symmetry_Int_Tables_number   1
_chemical_formula_structural   CsAs2IrRu
_chemical_formula_sum   'Cs1 As2 Ir1 Ru1'
_cell_volume   122.40810801
_cell_formula_units_Z   1
loop_
 _symmetry_equiv_pos_site_id
 _symmetry_equiv_pos_as_xyz
  1  'x, y, z'
loop_
 _atom_site_type_symbol
 _atom_site_label
 _atom_site_symmetry_multiplicity
 _atom_site_fract_x
 _atom_site_fract_y
 _atom_site_fract_z
 _atom_site_occupancy
  Cs  Cs0  1  0.00000000  0.00000000  0.00000000  1
  As  As0  1  0.33969193  0.33969193  0.00000000  1
  As  As1  1  0.66030807  0.66030807  1.00000000  1
  Ir  Ir0  1  0.75000000  0.25000000  0.50000000  1
  Ru  Ru0  1  0.25000000  0.75000000  0.50000000  1
loop_
_geom_bond_atom_site_label_1
_geom_bond_atom_site_label_2
_geom_bond_distance
_geom_bond_site_symmetry_2
As0 Ir0 2.428712 1_454
As0 Ir0 2.428712 1_555
As0 Ru0 2.428712 1_555
As0 Ru0 2.428712 1_544
As0 Cs0 3.727527 1_554
As0 Cs0 3.727527 1_666
As0 Cs0 3.727527 1_655
As0 Cs0 3.727527 1_565
As1 Ru0 2.428712 1_656
As1 Ru0 2.428712 1_555
As1 Ir0 2.428712 1_555
As1 Ir0 2.428712 1_566
As1 Cs0 3.727527 1_667
As1 Cs0 3.727527 1_555
As1 Cs0 3.727527 1_566
As1 Cs0 3.727527 1_656
