# generated using pymatgen
data_BaGa2(SeO3)4
_symmetry_space_group_name_H-M   'P 1'
_cell_length_a   5.19282810
_cell_length_b   10.08323613
_cell_length_c   13.81752786
_cell_angle_alpha   49.43094759
_cell_angle_beta   90.00000000
_cell_angle_gamma   90.00000000
_symmetry_Int_Tables_number   1
_chemical_formula_structural   BaGa2(SeO3)4
_chemical_formula_sum   'Ba2 Ga4 Se8 O24'
_cell_volume   549.58158155
_cell_formula_units_Z   2
loop_
 _symmetry_equiv_pos_site_id
 _symmetry_equiv_pos_as_xyz
  1  'x, y, z'
loop_
 _atom_site_type_symbol
 _atom_site_label
 _atom_site_symmetry_multiplicity
 _atom_site_fract_x
 _atom_site_fract_y
 _atom_site_fract_z
 _atom_site_occupancy
  Ba  Ba0  1  0.07284153  0.00000000  0.75000000  1
  Ba  Ba1  1  0.92715847  0.00000000  0.25000000  1
  Ga  Ga0  1  0.00000000  0.50000000  0.50000000  1
  Ga  Ga1  1  0.50000000  0.00000000  0.00000000  1
  Ga  Ga2  1  0.50000000  0.00000000  0.50000000  1
  Ga  Ga3  1  0.00000000  0.50000000  0.00000000  1
  Se  Se0  1  0.49137740  0.34876671  0.18039354  1
  Se  Se1  1  0.00286177  0.74898571  0.59394771  1
  Se  Se2  1  0.00286177  0.25101429  0.90605229  1
  Se  Se3  1  0.99713823  0.25101429  0.40605229  1
  Se  Se4  1  0.50862260  0.34876671  0.68039354  1
  Se  Se5  1  0.50862260  0.65123329  0.81960646  1
  Se  Se6  1  0.49137740  0.65123329  0.31960646  1
  Se  Se7  1  0.99713823  0.74898571  0.09394771  1
  O  O0  1  0.20858761  0.69981392  0.35415869  1
  O  O1  1  0.29319716  0.81919068  0.02185191  1
  O  O2  1  0.79141239  0.69981392  0.85415869  1
  O  O3  1  0.80882690  0.91348516  0.96758860  1
  O  O4  1  0.70680284  0.81919068  0.52185191  1
  O  O5  1  0.30394161  0.35218662  0.58147510  1
  O  O6  1  0.19117310  0.08651484  0.03241140  1
  O  O7  1  0.69605839  0.35218662  0.08147510  1
  O  O8  1  0.79141239  0.30018608  0.64584131  1
  O  O9  1  0.57670116  0.14267280  0.31534126  1
  O  O10  1  0.69605839  0.64781338  0.41852490  1
  O  O11  1  0.29319716  0.18080932  0.47814809  1
  O  O12  1  0.57670116  0.85732720  0.18465874  1
  O  O13  1  0.80882690  0.08651484  0.53241140  1
  O  O14  1  0.42329884  0.14267280  0.81534126  1
  O  O15  1  0.05186116  0.42167993  0.90110943  1
  O  O16  1  0.70680284  0.18080932  0.97814809  1
  O  O17  1  0.94813884  0.42167993  0.40110943  1
  O  O18  1  0.05186116  0.57832007  0.59889057  1
  O  O19  1  0.42329884  0.85732720  0.68465874  1
  O  O20  1  0.30394161  0.64781338  0.91852490  1
  O  O21  1  0.19117310  0.91348516  0.46758860  1
  O  O22  1  0.94813884  0.57832007  0.09889057  1
  O  O23  1  0.20858761  0.30018608  0.14584131  1
loop_
_geom_bond_atom_site_label_1
_geom_bond_atom_site_label_2
_geom_bond_distance
_geom_bond_site_symmetry_2
Ba0 O8 2.775343 1_455
Ba0 O2 2.775343 1_445
Ba0 O14 2.808217 1_555
Ba0 O19 2.808217 1_545
Ba0 O3 2.875476 1_445
Ba0 O13 2.875476 1_455
Ba0 O20 2.952513 1_545
Ba0 O5 2.952513 1_555
Ba0 O1 3.136138 1_546
Ba0 O11 3.136138 1_555
Ba1 O23 2.775343 1_655
Ba1 O0 2.775343 1_645
Ba1 O9 2.808217 1_555
Ba1 O12 2.808217 1_545
Ba1 O21 2.875476 1_645
Ba1 O6 2.875476 1_655
Ba1 O10 2.952513 1_545
Ba1 O7 2.952513 1_555
Ba1 O4 3.136138 1_545
Ba1 O16 3.136138 1_554
Ga0 O5 1.948684 1_555
Ga0 O10 1.948684 1_455
Ga0 O18 1.991708 1_555
Ga0 O17 1.991708 1_455
Ga0 O8 2.003085 1_455
Ga0 O0 2.003085 1_555
Ga1 O16 1.962712 1_554
Ga1 O1 1.962712 1_545
Ga1 O12 1.990983 1_545
Ga1 O14 1.990983 1_554
Ga1 O6 2.010356 1_555
Ga1 O3 2.010356 1_544
Ga2 O11 1.962712 1_555
Ga2 O4 1.962712 1_545
Ga2 O19 1.990983 1_545
Ga2 O9 1.990983 1_555
Ga2 O13 2.010356 1_555
Ga2 O21 2.010356 1_545
Ga3 O20 1.948684 1_554
Ga3 O7 1.948684 1_455
Ga3 O22 1.991708 1_455
Ga3 O15 1.991708 1_554
Ga3 O23 2.003085 1_555
Ga3 O2 2.003085 1_454
O0 Se6 1.711291 1_555
O1 Se7 1.714579 1_455
O2 Se5 1.711291 1_555
O3 Se7 1.728858 1_556
O4 Se1 1.714579 1_655
O5 Se4 1.713986 1_555
O6 Se2 1.728858 1_554
O7 Se0 1.713986 1_555
O8 Se4 1.711291 1_555
O9 Se0 1.717989 1_555
O10 Se6 1.713986 1_555
O11 Se3 1.714579 1_455
O12 Se6 1.717989 1_555
O13 Se3 1.728858 1_555
O14 Se4 1.717989 1_555
O15 Se2 1.696436 1_555
O16 Se2 1.714579 1_655
O17 Se3 1.696436 1_555
O18 Se1 1.696436 1_555
O19 Se5 1.717989 1_555
O20 Se5 1.713986 1_555
O21 Se1 1.728858 1_555
O22 Se7 1.696436 1_555
O23 Se0 1.711291 1_555
