# generated using pymatgen
data_Sc3AlPt2O
_symmetry_space_group_name_H-M   'P 1'
_cell_length_a   8.49159208
_cell_length_b   8.49159145
_cell_length_c   8.49159287
_cell_angle_alpha   59.99999831
_cell_angle_beta   60.00000079
_cell_angle_gamma   59.99999362
_symmetry_Int_Tables_number   1
_chemical_formula_structural   Sc3AlPt2O
_chemical_formula_sum   'Sc12 Al4 Pt8 O4'
_cell_volume   432.96456751
_cell_formula_units_Z   4
loop_
 _symmetry_equiv_pos_site_id
 _symmetry_equiv_pos_as_xyz
  1  'x, y, z'
loop_
 _atom_site_type_symbol
 _atom_site_label
 _atom_site_symmetry_multiplicity
 _atom_site_fract_x
 _atom_site_fract_y
 _atom_site_fract_z
 _atom_site_occupancy
  Sc  Sc0  1  0.81027046  0.81027046  0.18972954  1
  Sc  Sc1  1  0.18972954  0.18972954  0.81027046  1
  Sc  Sc2  1  0.81027046  0.18972954  0.81027046  1
  Sc  Sc3  1  0.18972954  0.81027046  0.18972954  1
  Sc  Sc4  1  0.18972954  0.81027046  0.81027046  1
  Sc  Sc5  1  0.81027046  0.18972954  0.18972954  1
  Sc  Sc6  1  0.43972954  0.43972954  0.06027046  1
  Sc  Sc7  1  0.06027046  0.06027046  0.43972954  1
  Sc  Sc8  1  0.43972954  0.06027046  0.43972954  1
  Sc  Sc9  1  0.06027046  0.43972954  0.06027046  1
  Sc  Sc10  1  0.06027046  0.43972954  0.43972954  1
  Sc  Sc11  1  0.43972954  0.06027046  0.06027046  1
  Al  Al0  1  0.12500000  0.62500000  0.62500000  1
  Al  Al1  1  0.62500000  0.12500000  0.62500000  1
  Al  Al2  1  0.62500000  0.62500000  0.12500000  1
  Al  Al3  1  0.62500000  0.62500000  0.62500000  1
  Pt  Pt0  1  0.75976884  0.41340972  0.41340972  1
  Pt  Pt1  1  0.41340972  0.75976884  0.41340972  1
  Pt  Pt2  1  0.41340972  0.41340972  0.75976884  1
  Pt  Pt3  1  0.41340972  0.41340972  0.41340972  1
  Pt  Pt4  1  0.49023116  0.83659028  0.83659028  1
  Pt  Pt5  1  0.83659028  0.49023116  0.83659028  1
  Pt  Pt6  1  0.83659028  0.83659028  0.49023116  1
  Pt  Pt7  1  0.83659028  0.83659028  0.83659028  1
  O  O0  1  0.62500000  0.12500000  0.12500000  1
  O  O1  1  0.12500000  0.62500000  0.12500000  1
  O  O2  1  0.12500000  0.12500000  0.62500000  1
  O  O3  1  0.12500000  0.12500000  0.12500000  1
loop_
_geom_bond_atom_site_label_1
_geom_bond_atom_site_label_2
_geom_bond_distance
_geom_bond_site_symmetry_2
Al0 Pt2 2.623358 1_555
Al0 Pt6 2.623358 1_455
Al0 Pt1 2.623358 1_555
Al0 Pt5 2.623358 1_455
Al0 Pt7 2.623368 1_455
Al0 Pt3 2.623368 1_555
Al1 Pt2 2.623358 1_555
Al1 Pt6 2.623358 1_545
Al1 Pt0 2.623358 1_555
Al1 Pt4 2.623358 1_545
Al1 Pt7 2.623367 1_545
Al1 Pt3 2.623367 1_555
Al2 Pt0 2.623358 1_555
Al2 Pt4 2.623358 1_554
Al2 Pt1 2.623358 1_555
Al2 Pt5 2.623358 1_554
Al2 Pt7 2.623368 1_554
Al2 Pt3 2.623368 1_555
Al3 Pt6 2.623372 1_555
Al3 Pt2 2.623372 1_555
Al3 Pt4 2.623372 1_555
Al3 Pt0 2.623372 1_555
Al3 Pt5 2.623372 1_555
Al3 Pt1 2.623372 1_555
Pt0 Sc7 2.793165 1_655
Pt0 Sc9 2.793166 1_655
Pt0 Sc10 2.793175 1_655
Pt0 Sc5 3.062352 1_555
Pt0 Sc0 3.062366 1_555
Pt0 Sc2 3.062367 1_555
Pt1 Sc7 2.793165 1_565
Pt1 Sc11 2.793165 1_565
Pt1 Sc8 2.793175 1_565
Pt1 Sc3 3.062352 1_555
Pt1 Sc0 3.062367 1_555
Pt1 Sc4 3.062367 1_555
Pt2 Sc11 2.793165 1_556
Pt2 Sc9 2.793165 1_556
Pt2 Sc6 2.793175 1_556
Pt2 Sc1 3.062352 1_555
Pt2 Sc4 3.062366 1_555
Pt2 Sc2 3.062366 1_555
Pt3 Sc8 2.793158 1_555
Pt3 Sc10 2.793158 1_555
Pt3 Sc6 2.793159 1_555
Pt3 Sc3 3.062360 1_555
Pt3 Sc5 3.062360 1_555
Pt3 Sc1 3.062360 1_555
Pt4 Sc1 2.793165 1_565
Pt4 Sc3 2.793166 1_556
Pt4 Sc4 2.793175 1_555
Pt4 Sc11 3.062352 1_566
Pt4 Sc6 3.062366 1_556
Pt4 Sc8 3.062367 1_565
Pt5 Sc1 2.793165 1_655
Pt5 Sc5 2.793165 1_556
Pt5 Sc2 2.793175 1_555
Pt5 Sc9 3.062352 1_656
Pt5 Sc6 3.062367 1_556
Pt5 Sc10 3.062367 1_655
Pt6 Sc5 2.793165 1_565
Pt6 Sc3 2.793165 1_655
Pt6 Sc0 2.793175 1_555
Pt6 Sc7 3.062352 1_665
Pt6 Sc10 3.062366 1_655
Pt6 Sc8 3.062366 1_565
Pt7 Sc2 2.793158 1_565
Pt7 Sc4 2.793158 1_655
Pt7 Sc0 2.793159 1_556
Pt7 Sc9 3.062360 1_656
Pt7 Sc11 3.062360 1_566
Pt7 Sc7 3.062360 1_665
O0 Sc6 2.260739 1_555
O0 Sc0 2.260739 1_545
O0 Sc5 2.260739 1_555
O0 Sc11 2.260739 1_555
O0 Sc8 2.260739 1_555
O0 Sc2 2.260739 1_554
O1 Sc0 2.260739 1_455
O1 Sc6 2.260739 1_555
O1 Sc3 2.260739 1_555
O1 Sc9 2.260739 1_555
O1 Sc10 2.260739 1_555
O1 Sc4 2.260739 1_554
O2 Sc10 2.260739 1_555
O2 Sc4 2.260739 1_545
O2 Sc8 2.260739 1_555
O2 Sc2 2.260739 1_455
O2 Sc1 2.260739 1_555
O2 Sc7 2.260739 1_555
O3 Sc9 2.260739 1_555
O3 Sc3 2.260739 1_545
O3 Sc11 2.260739 1_555
O3 Sc5 2.260739 1_455
O3 Sc7 2.260739 1_555
O3 Sc1 2.260739 1_554
