# generated using pymatgen
data_Hf10GaCuPb6
_symmetry_space_group_name_H-M   'P 1'
_cell_length_a   8.67532572
_cell_length_b   8.67532466
_cell_length_c   5.84198803
_cell_angle_alpha   90.00000000
_cell_angle_beta   90.00000000
_cell_angle_gamma   119.99999287
_symmetry_Int_Tables_number   1
_chemical_formula_structural   Hf10GaCuPb6
_chemical_formula_sum   'Hf10 Ga1 Cu1 Pb6'
_cell_volume   380.77011247
_cell_formula_units_Z   1
loop_
 _symmetry_equiv_pos_site_id
 _symmetry_equiv_pos_as_xyz
  1  'x, y, z'
loop_
 _atom_site_type_symbol
 _atom_site_label
 _atom_site_symmetry_multiplicity
 _atom_site_fract_x
 _atom_site_fract_y
 _atom_site_fract_z
 _atom_site_occupancy
  Hf  Hf0  1  0.66666700  0.33333300  0.00000000  1
  Hf  Hf1  1  0.00000000  0.26044817  0.25231478  1
  Hf  Hf2  1  0.73955183  1.00000000  0.74768522  1
  Hf  Hf3  1  0.26044817  0.26044817  0.74768522  1
  Hf  Hf4  1  0.33333300  0.66666700  0.50000000  1
  Hf  Hf5  1  0.33333300  0.66666700  0.00000000  1
  Hf  Hf6  1  1.00000000  0.73955183  0.74768522  1
  Hf  Hf7  1  0.66666700  0.33333300  0.50000000  1
  Hf  Hf8  1  0.73955183  0.73955183  0.25231478  1
  Hf  Hf9  1  0.26044817  0.00000000  0.25231478  1
  Ga  Ga0  1  0.00000000  0.00000000  0.00000000  1
  Cu  Cu0  1  0.00000000  0.00000000  0.50000000  1
  Pb  Pb0  1  0.61189938  0.61189938  0.75099474  1
  Pb  Pb1  1  0.38810062  1.00000000  0.75099474  1
  Pb  Pb2  1  0.00000000  0.61189938  0.24900526  1
  Pb  Pb3  1  0.38810062  0.38810062  0.24900526  1
  Pb  Pb4  1  1.00000000  0.38810062  0.75099474  1
  Pb  Pb5  1  0.61189938  0.00000000  0.24900526  1
loop_
_geom_bond_atom_site_label_1
_geom_bond_atom_site_label_2
_geom_bond_distance
_geom_bond_site_symmetry_2
Hf0 Pb5 3.054545 1_555
Hf0 Pb4 3.054545 1_554
Hf0 Pb1 3.054548 1_544
Hf0 Pb2 3.054548 1_655
Hf0 Pb0 3.054552 1_554
Hf0 Pb3 3.054552 1_555
Hf1 Pb3 2.972236 1_555
Hf1 Pb5 2.972236 1_455
Hf1 Pb2 3.049015 1_555
Hf1 Pb4 3.116666 1_455
Hf1 Pb4 3.131088 1_454
Hf2 Pb0 2.972235 1_555
Hf2 Pb4 2.972236 1_565
Hf2 Pb1 3.049015 1_555
Hf2 Pb5 3.116666 1_565
Hf2 Pb5 3.131088 1_566
Hf3 Pb1 2.972235 1_545
Hf3 Pb4 2.972235 1_455
Hf3 Pb0 3.049015 1_555
Hf3 Pb3 3.116666 1_555
Hf3 Pb3 3.131088 1_556
Hf4 Pb1 3.060097 1_555
Hf4 Pb2 3.060097 1_555
Hf4 Pb5 3.060100 1_565
Hf4 Pb4 3.060100 1_455
Hf4 Pb3 3.060104 1_555
Hf4 Pb0 3.060104 1_555
Hf5 Pb1 3.054545 1_554
Hf5 Pb2 3.054545 1_555
Hf5 Pb5 3.054548 1_565
Hf5 Pb4 3.054548 1_454
Hf5 Pb3 3.054552 1_555
Hf5 Pb0 3.054552 1_554
Hf6 Pb0 2.972236 1_555
Hf6 Pb1 2.972236 1_655
Hf6 Pb4 3.049015 1_555
Hf6 Pb2 3.116666 1_655
Hf6 Pb2 3.131088 1_656
Hf7 Pb5 3.060097 1_555
Hf7 Pb4 3.060097 1_555
Hf7 Pb1 3.060100 1_545
Hf7 Pb2 3.060100 1_655
Hf7 Pb0 3.060104 1_555
Hf7 Pb3 3.060104 1_555
Hf8 Pb5 2.972235 1_565
Hf8 Pb2 2.972235 1_655
Hf8 Pb3 3.049015 1_555
Hf8 Pb0 3.116666 1_555
Hf8 Pb0 3.131088 1_554
Hf9 Pb3 2.972235 1_555
Hf9 Pb2 2.972236 1_545
Hf9 Pb5 3.049015 1_555
Hf9 Pb1 3.116666 1_545
Hf9 Pb1 3.131088 1_544
Ga0 Hf1 2.697768 1_555
Ga0 Hf6 2.697768 1_444
Ga0 Hf9 2.697768 1_555
Ga0 Hf2 2.697768 1_444
Ga0 Hf3 2.697768 1_554
Ga0 Hf8 2.697768 1_445
Cu0 Hf1 2.683086 1_555
Cu0 Hf6 2.683086 1_445
Cu0 Hf9 2.683086 1_555
Cu0 Hf2 2.683086 1_445
Cu0 Hf3 2.683086 1_555
Cu0 Hf8 2.683086 1_445
