# generated using pymatgen
data_Ag3P10Au4Br
_symmetry_space_group_name_H-M   'P 1'
_cell_length_a   6.20266641
_cell_length_b   6.20266633
_cell_length_c   11.44317801
_cell_angle_alpha   90.00000000
_cell_angle_beta   90.00000000
_cell_angle_gamma   119.99999525
_symmetry_Int_Tables_number   1
_chemical_formula_structural   Ag3P10Au4Br
_chemical_formula_sum   'Ag3 P10 Au4 Br1'
_cell_volume   381.27133020
_cell_formula_units_Z   1
loop_
 _symmetry_equiv_pos_site_id
 _symmetry_equiv_pos_as_xyz
  1  'x, y, z'
loop_
 _atom_site_type_symbol
 _atom_site_label
 _atom_site_symmetry_multiplicity
 _atom_site_fract_x
 _atom_site_fract_y
 _atom_site_fract_z
 _atom_site_occupancy
  Ag  Ag0  1  0.33333300  0.66666700  0.49777470  1
  Ag  Ag1  1  0.00000000  0.00000000  0.25388094  1
  Ag  Ag2  1  0.66666700  0.33333300  0.49777470  1
  P  P0  1  0.66666700  0.33333300  0.70782223  1
  P  P1  1  0.37603721  1.00000000  0.79732222  1
  P  P2  1  0.62302284  0.62302284  0.20007643  1
  P  P3  1  1.00000000  0.37697716  0.20007643  1
  P  P4  1  1.00000000  0.37603721  0.79732222  1
  P  P5  1  0.62396279  0.62396279  0.79732222  1
  P  P6  1  0.37697716  1.00000000  0.20007643  1
  P  P7  1  0.33333300  0.66666700  0.28745322  1
  P  P8  1  0.33333300  0.66666700  0.70782223  1
  P  P9  1  0.66666700  0.33333300  0.28745322  1
  Au  Au0  1  0.00000000  0.00000000  0.77507902  1
  Au  Au1  1  0.00000000  0.44452485  0.99866170  1
  Au  Au2  1  0.55547515  0.55547515  0.99866170  1
  Au  Au3  1  0.44452485  0.00000000  0.99866170  1
  Br  Br0  1  0.00000000  0.00000000  0.49675668  1
loop_
_geom_bond_atom_site_label_1
_geom_bond_atom_site_label_2
_geom_bond_distance
_geom_bond_site_symmetry_2
Ag0 P8 2.403611 1_555
Ag0 P7 2.406746 1_555
Ag1 P3 2.417965 1_455
Ag1 P6 2.417965 1_545
Ag1 P2 2.417965 1_445
Ag1 Br0 2.779270 1_555
Ag2 P0 2.403611 1_555
Ag2 P9 2.406746 1_555
P0 P4 2.201408 1_555
P0 P1 2.201410 1_545
P0 P5 2.201414 1_555
P1 P8 2.201408 1_555
P2 P9 2.188176 1_555
P2 P7 2.188176 1_555
P3 P9 2.188170 1_555
P3 P7 2.188173 1_655
P4 P8 2.201410 1_655
P5 P8 2.201414 1_555
P6 P7 2.188170 1_555
P6 P9 2.188173 1_565
Au0 P4 2.346281 1_455
Au0 P1 2.346281 1_545
Au0 P5 2.346281 1_445
Au0 Br0 3.184892 1_555
Au1 P3 2.342596 1_456
Au1 P4 2.342799 1_455
Au2 P2 2.342596 1_556
Au2 P5 2.342799 1_555
Au3 P6 2.342596 1_546
Au3 P1 2.342799 1_545
