# generated using pymatgen
data_Zr6Al16Cu4Os3
_symmetry_space_group_name_H-M   'P 1'
_cell_length_a   8.66948989
_cell_length_b   8.66945774
_cell_length_c   8.58641785
_cell_angle_alpha   60.31634967
_cell_angle_beta   60.31647078
_cell_angle_gamma   59.36792346
_symmetry_Int_Tables_number   1
_chemical_formula_structural   Zr6Al16Cu4Os3
_chemical_formula_sum   'Zr6 Al16 Cu4 Os3'
_cell_volume   456.25337731
_cell_formula_units_Z   1
loop_
 _symmetry_equiv_pos_site_id
 _symmetry_equiv_pos_as_xyz
  1  'x, y, z'
loop_
 _atom_site_type_symbol
 _atom_site_label
 _atom_site_symmetry_multiplicity
 _atom_site_fract_x
 _atom_site_fract_y
 _atom_site_fract_z
 _atom_site_occupancy
  Zr  Zr0  1  0.19237593  0.80761905  0.80762495  1
  Zr  Zr1  1  0.80762407  0.19238095  0.19237505  1
  Zr  Zr2  1  0.80762407  0.19238095  0.80761993  1
  Zr  Zr3  1  0.79432135  0.79430699  0.20568583  1
  Zr  Zr4  1  0.19237593  0.80761905  0.19238007  1
  Zr  Zr5  1  0.20567865  0.20569301  0.79431417  1
  Al  Al0  1  0.83247627  0.83248226  0.83700151  1
  Al  Al1  1  0.83247627  0.83248226  0.49803996  1
  Al  Al2  1  0.49803564  0.83700523  0.83247957  1
  Al  Al3  1  0.83700378  0.49803835  0.83247894  1
  Al  Al4  1  0.16752373  0.16751774  0.16299849  1
  Al  Al5  1  0.16752373  0.16751774  0.50196004  1
  Al  Al6  1  0.16299622  0.50196165  0.16752106  1
  Al  Al7  1  0.50196436  0.16299477  0.16752043  1
  Al  Al8  1  0.61476182  0.61476027  0.62739397  1
  Al  Al9  1  0.61476182  0.61476027  0.14308394  1
  Al  Al10  1  0.14308653  0.62739968  0.61475690  1
  Al  Al11  1  0.62739370  0.14308467  0.61476081  1
  Al  Al12  1  0.38523818  0.38523973  0.37260603  1
  Al  Al13  1  0.38523818  0.38523973  0.85691606  1
  Al  Al14  1  0.37260630  0.85691533  0.38523919  1
  Al  Al15  1  0.85691347  0.37260032  0.38524310  1
  Cu  Cu0  1  0.00000000  0.50000000  0.50000000  1
  Cu  Cu1  1  0.50000000  0.00000000  0.00000000  1
  Cu  Cu2  1  0.50000000  0.00000000  0.50000000  1
  Cu  Cu3  1  0.00000000  0.50000000  0.00000000  1
  Os  Os0  1  0.50000000  0.50000000  0.50000000  1
  Os  Os1  1  0.50000000  0.50000000  0.00000000  1
  Os  Os2  1  0.00000000  0.00000000  0.50000000  1
loop_
_geom_bond_atom_site_label_1
_geom_bond_atom_site_label_2
_geom_bond_distance
_geom_bond_site_symmetry_2
Al0 Cu1 2.475482 1_566
Al0 Cu3 2.475517 1_656
Al0 Os2 2.533090 1_665
Al0 Al11 2.728690 1_565
Al0 Al10 2.728735 1_655
Al0 Al9 2.799428 1_556
Al0 Zr3 2.877018 1_556
Al0 Zr0 2.904205 1_655
Al0 Zr2 2.904208 1_565
Al1 Cu2 2.475482 1_565
Al1 Cu0 2.475517 1_655
Al1 Os2 2.533090 1_665
Al1 Al11 2.728690 1_565
Al1 Al10 2.728735 1_655
Al1 Al8 2.799428 1_555
Al1 Zr3 2.877018 1_555
Al1 Zr4 2.904205 1_655
Al1 Zr1 2.904208 1_565
Al2 Cu1 2.475471 1_566
Al2 Cu2 2.475471 1_565
Al2 Os1 2.533110 1_556
Al2 Al8 2.728717 1_555
Al2 Al9 2.728717 1_556
Al2 Zr5 2.877075 1_565
Al2 Zr4 2.904204 1_556
Al2 Zr0 2.904204 1_555
Al3 Cu0 2.475476 1_655
Al3 Cu3 2.475476 1_656
Al3 Os1 2.533118 1_556
Al3 Al8 2.728706 1_555
Al3 Al9 2.728706 1_556
Al3 Zr5 2.876975 1_655
Al3 Zr1 2.904164 1_556
Al3 Zr2 2.904164 1_555
Al4 Cu1 2.475482 1_555
Al4 Cu3 2.475517 1_555
Al4 Os2 2.533090 1_555
Al4 Zr5 2.877018 1_554
Al4 Zr1 2.904205 1_455
Al4 Zr4 2.904208 1_545
Al5 Cu2 2.475482 1_555
Al5 Cu0 2.475517 1_555
Al5 Os2 2.533090 1_555
Al5 Zr5 2.877018 1_555
Al5 Zr2 2.904205 1_455
Al5 Zr0 2.904208 1_545
Al6 Cu3 2.475476 1_555
Al6 Cu0 2.475476 1_555
Al6 Os1 2.533118 1_555
Al6 Zr3 2.876975 1_455
Al6 Zr0 2.904164 1_554
Al6 Zr4 2.904164 1_555
Al7 Cu1 2.475471 1_555
Al7 Cu2 2.475471 1_555
Al7 Os1 2.533110 1_555
Al7 Zr3 2.877075 1_545
Al7 Zr2 2.904204 1_554
Al7 Zr1 2.904204 1_555
Al8 Os0 2.518076 1_555
Al8 Os1 2.630417 1_556
Al8 Cu2 2.722906 1_565
Al8 Cu0 2.722910 1_655
Al8 Zr3 3.043323 1_555
Al8 Zr2 3.051272 1_555
Al8 Zr0 3.051325 1_555
Al9 Os0 2.518076 1_555
Al9 Os1 2.630417 1_555
Al9 Cu1 2.722906 1_565
Al9 Cu3 2.722910 1_655
Al9 Zr3 3.043323 1_555
Al9 Zr1 3.051272 1_555
Al9 Zr4 3.051325 1_555
Al10 Os0 2.518084 1_555
Al10 Os2 2.630393 1_565
Al10 Cu3 2.722920 1_556
Al10 Cu0 2.722920 1_555
Al10 Al3 2.799471 1_455
Al10 Al14 2.840686 1_555
Al10 Al13 2.940517 1_555
Al10 Al12 2.940517 1_555
Al10 Zr5 3.043336 1_555
Al10 Zr0 3.051237 1_555
Al10 Zr4 3.051237 1_555
Al11 Os0 2.518085 1_555
Al11 Os2 2.630446 1_655
Al11 Cu1 2.722890 1_556
Al11 Cu2 2.722890 1_555
Al11 Al2 2.799425 1_545
Al11 Al15 2.840686 1_555
Al11 Al13 2.940514 1_555
Al11 Al12 2.940514 1_555
Al11 Zr5 3.043388 1_555
Al11 Zr2 3.051294 1_555
Al11 Zr1 3.051294 1_555
Al12 Os0 2.518076 1_555
Al12 Os1 2.630417 1_555
Al12 Cu2 2.722906 1_555
Al12 Cu0 2.722910 1_555
Al12 Al6 2.728706 1_555
Al12 Al7 2.728717 1_555
Al12 Al5 2.799428 1_555
Al12 Al9 2.840741 1_555
Al12 Zr5 3.043323 1_555
Al12 Zr4 3.051272 1_555
Al12 Zr1 3.051325 1_555
Al13 Os0 2.518076 1_555
Al13 Os1 2.630417 1_556
Al13 Cu1 2.722906 1_556
Al13 Cu3 2.722910 1_556
Al13 Al6 2.728706 1_556
Al13 Al7 2.728717 1_556
Al13 Al4 2.799428 1_556
Al13 Al8 2.840741 1_555
Al13 Zr5 3.043323 1_555
Al13 Zr0 3.051272 1_555
Al13 Zr2 3.051325 1_555
Al14 Os0 2.518085 1_555
Al14 Os2 2.630446 1_565
Al14 Cu1 2.722890 1_565
Al14 Cu2 2.722890 1_565
Al14 Al4 2.728690 1_565
Al14 Al5 2.728690 1_565
Al14 Al7 2.799425 1_565
Al14 Al9 2.940514 1_555
Al14 Al8 2.940514 1_555
Al14 Zr3 3.043388 1_555
Al14 Zr4 3.051294 1_555
Al14 Zr0 3.051294 1_555
Al15 Os0 2.518084 1_555
Al15 Os2 2.630393 1_655
Al15 Cu3 2.722920 1_655
Al15 Cu0 2.722920 1_655
Al15 Al4 2.728735 1_655
Al15 Al5 2.728735 1_655
Al15 Al6 2.799471 1_655
Al15 Al9 2.940517 1_555
Al15 Al8 2.940517 1_555
Al15 Zr3 3.043336 1_555
Al15 Zr1 3.051237 1_555
Al15 Zr2 3.051237 1_555
Cu0 Zr5 3.084877 1_555
Cu0 Zr3 3.084877 1_455
Cu0 Zr4 3.172287 1_555
Cu0 Zr2 3.172287 1_455
Cu1 Zr3 3.084967 1_545
Cu1 Zr5 3.084967 1_554
Cu1 Zr2 3.172352 1_554
Cu1 Zr4 3.172352 1_545
Cu2 Zr5 3.084967 1_555
Cu2 Zr3 3.084967 1_545
Cu2 Zr1 3.172352 1_555
Cu2 Zr0 3.172352 1_545
Cu3 Zr3 3.084877 1_455
Cu3 Zr5 3.084877 1_554
Cu3 Zr0 3.172287 1_554
Cu3 Zr1 3.172287 1_455
Os1 Zr4 3.115371 1_555
Os1 Zr1 3.115371 1_555
Os1 Zr0 3.115371 1_554
Os1 Zr2 3.115371 1_554
Os2 Zr2 3.115366 1_455
Os2 Zr0 3.115366 1_545
Os2 Zr1 3.115366 1_455
Os2 Zr4 3.115366 1_545
