# generated using pymatgen
data_RbZrRhSe4
_symmetry_space_group_name_H-M   'P 1'
_cell_length_a   3.82290977
_cell_length_b   8.71553291
_cell_length_c   6.18291617
_cell_angle_alpha   70.57113903
_cell_angle_beta   90.00000000
_cell_angle_gamma   90.00000000
_symmetry_Int_Tables_number   1
_chemical_formula_structural   RbZrRhSe4
_chemical_formula_sum   'Rb1 Zr1 Rh1 Se4'
_cell_volume   194.27569802
_cell_formula_units_Z   1
loop_
 _symmetry_equiv_pos_site_id
 _symmetry_equiv_pos_as_xyz
  1  'x, y, z'
loop_
 _atom_site_type_symbol
 _atom_site_label
 _atom_site_symmetry_multiplicity
 _atom_site_fract_x
 _atom_site_fract_y
 _atom_site_fract_z
 _atom_site_occupancy
  Rb  Rb0  1  0.50000000  0.50612370  0.64397081  1
  Zr  Zr0  1  0.00000000  0.99144863  0.96385480  1
  Rh  Rh0  1  0.50000000  0.00488644  0.52805781  1
  Se  Se0  1  0.00000000  0.84801740  0.43762366  1
  Se  Se1  1  0.50000000  0.78765689  0.93578780  1
  Se  Se2  1  0.00000000  0.19689361  0.55371218  1
  Se  Se3  1  0.50000000  0.16409433  0.10395194  1
loop_
_geom_bond_atom_site_label_1
_geom_bond_atom_site_label_2
_geom_bond_distance
_geom_bond_site_symmetry_2
Rb0 Se3 3.366675 1_556
Rb0 Se0 3.410478 1_555
Rb0 Se0 3.410478 1_655
Rb0 Se1 3.495913 1_555
Rb0 Se2 3.497038 1_555
Rb0 Se2 3.497038 1_655
Rh0 Se0 2.518752 1_545
Rh0 Se0 2.518752 1_645
Rh0 Se3 2.526016 1_555
Rh0 Se2 2.579889 1_555
Rh0 Se2 2.579889 1_655
Rh0 Se1 2.600858 1_545
Se0 Zr0 2.776190 1_554
Se1 Zr0 2.653969 1_555
Se1 Zr0 2.653969 1_655
Se2 Zr0 2.572163 1_545
Se3 Zr0 2.745032 1_544
Se3 Zr0 2.745032 1_644
