# generated using pymatgen
data_Al2HgPd7
_symmetry_space_group_name_H-M   'P 1'
_cell_length_a   7.42011099
_cell_length_b   7.42011166
_cell_length_c   5.55555343
_cell_angle_alpha   72.00894702
_cell_angle_beta   72.00895394
_cell_angle_gamma   31.61174573
_symmetry_Int_Tables_number   1
_chemical_formula_structural   Al2HgPd7
_chemical_formula_sum   'Al2 Hg1 Pd7'
_cell_volume   151.84408671
_cell_formula_units_Z   1
loop_
 _symmetry_equiv_pos_site_id
 _symmetry_equiv_pos_as_xyz
  1  'x, y, z'
loop_
 _atom_site_type_symbol
 _atom_site_label
 _atom_site_symmetry_multiplicity
 _atom_site_fract_x
 _atom_site_fract_y
 _atom_site_fract_z
 _atom_site_occupancy
  Al  Al0  1  0.18980791  0.18980791  0.34922491  1
  Al  Al1  1  0.81019209  0.81019209  0.65077509  1
  Hg  Hg0  1  0.00000000  0.00000000  0.00000000  1
  Pd  Pd0  1  0.00000000  0.00000000  0.50000000  1
  Pd  Pd1  1  0.20986643  0.20986643  0.85742582  1
  Pd  Pd2  1  0.79013357  0.79013357  0.14257418  1
  Pd  Pd3  1  0.37609869  0.37609869  0.36003543  1
  Pd  Pd4  1  0.62390131  0.62390131  0.63996457  1
  Pd  Pd5  1  0.40281553  0.40281553  0.82744528  1
  Pd  Pd6  1  0.59718447  0.59718447  0.17255472  1
loop_
_geom_bond_atom_site_label_1
_geom_bond_atom_site_label_2
_geom_bond_distance
_geom_bond_site_symmetry_2
Al0 Pd2 2.529654 1_455
Al0 Pd2 2.529654 1_545
Al0 Pd0 2.567057 1_555
Al0 Pd4 2.569718 1_545
Al0 Pd4 2.569719 1_455
Al0 Pd1 2.654172 1_554
Al0 Pd3 2.679950 1_555
Al0 Pd6 2.762379 1_455
Al0 Pd6 2.762379 1_545
Al0 Pd1 2.927872 1_555
Al1 Pd1 2.529654 1_655
Al1 Pd1 2.529654 1_565
Al1 Pd0 2.567057 1_665
Al1 Pd3 2.569718 1_565
Al1 Pd3 2.569719 1_655
Al1 Pd2 2.654172 1_556
Al1 Pd4 2.679950 1_555
Al1 Pd5 2.762379 1_655
Al1 Pd5 2.762379 1_565
Al1 Pd2 2.927872 1_555
Hg0 Pd0 2.777777 1_555
Hg0 Pd0 2.777777 1_554
Hg0 Pd6 2.789903 1_545
Hg0 Pd5 2.789903 1_454
Hg0 Pd6 2.789904 1_455
Hg0 Pd5 2.789904 1_544
Hg0 Pd1 2.843193 1_554
Hg0 Pd2 2.843193 1_445
Hg0 Pd4 2.990604 1_454
Hg0 Pd3 2.990604 1_545
Hg0 Pd4 2.990604 1_544
Hg0 Pd3 2.990604 1_455
Pd0 Pd6 2.774718 1_455
Pd0 Pd5 2.774718 1_545
Pd0 Pd6 2.774718 1_545
Pd0 Pd5 2.774718 1_455
Pd1 Pd5 2.706277 1_555
Pd1 Pd6 2.816056 1_546
Pd1 Pd6 2.816056 1_456
Pd2 Pd6 2.706277 1_555
Pd2 Pd5 2.816056 1_564
Pd2 Pd5 2.816056 1_654
Pd3 Pd5 2.743080 1_555
Pd3 Pd5 2.859291 1_554
Pd3 Pd6 2.989970 1_555
Pd4 Pd6 2.743080 1_555
Pd4 Pd6 2.859291 1_556
Pd4 Pd5 2.989970 1_555
