# generated using pymatgen
data_Hf3BeTc3As2
_symmetry_space_group_name_H-M   'P 1'
_cell_length_a   7.65843634
_cell_length_b   7.65843742
_cell_length_c   7.65843814
_cell_angle_alpha   126.89709530
_cell_angle_beta   126.77311030
_cell_angle_gamma   78.51990798
_symmetry_Int_Tables_number   1
_chemical_formula_structural   Hf3BeTc3As2
_chemical_formula_sum   'Hf6 Be2 Tc6 As4'
_cell_volume   278.57149731
_cell_formula_units_Z   2
loop_
 _symmetry_equiv_pos_site_id
 _symmetry_equiv_pos_as_xyz
  1  'x, y, z'
loop_
 _atom_site_type_symbol
 _atom_site_label
 _atom_site_symmetry_multiplicity
 _atom_site_fract_x
 _atom_site_fract_y
 _atom_site_fract_z
 _atom_site_occupancy
  Hf  Hf0  1  0.44275139  0.63877072  0.69601933  1
  Hf  Hf1  1  0.55724861  0.25326794  0.19601933  1
  Hf  Hf2  1  0.74996158  0.86788451  0.61792192  1
  Hf  Hf3  1  0.25003842  0.86796034  0.11792192  1
  Hf  Hf4  1  0.05735375  0.25325919  0.69590544  1
  Hf  Hf5  1  0.94264625  0.63855070  0.19590544  1
  Be  Be0  1  0.25008088  0.25345661  0.50337673  1
  Be  Be1  1  0.74991912  0.25329585  0.00337673  1
  Tc  Tc0  1  0.50000000  0.49920938  0.99920938  1
  Tc  Tc1  1  1.00000000  0.49920938  0.49920938  1
  Tc  Tc2  1  0.12283793  0.25337308  0.13034500  1
  Tc  Tc3  1  0.87716207  0.00750708  0.13053516  1
  Tc  Tc4  1  0.37697192  0.00750708  0.63034500  1
  Tc  Tc5  1  0.62302808  0.25337308  0.63053516  1
  As  As0  1  0.33332240  0.58659579  0.25321464  1
  As  As1  1  0.66667760  0.91989224  0.25327239  1
  As  As2  1  0.16661985  0.91989224  0.75321464  1
  As  As3  1  0.83338015  0.58659579  0.75327239  1
loop_
_geom_bond_atom_site_label_1
_geom_bond_atom_site_label_2
_geom_bond_distance
_geom_bond_site_symmetry_2
Hf0 Tc5 2.880767 1_555
Hf0 Tc2 2.880768 1_555
Hf0 Tc1 2.881093 1_455
Hf0 Tc0 2.881094 1_555
Hf0 Tc3 3.052418 1_566
Hf0 Tc4 3.052418 1_565
Hf1 Tc3 2.880767 1_555
Hf1 Tc4 2.880768 1_554
Hf1 Tc1 2.881093 1_555
Hf1 Tc0 2.881094 1_554
Hf1 Tc2 3.052418 1_555
Hf1 Tc5 3.052418 1_555
Hf2 Tc5 2.880568 1_565
Hf2 Tc2 2.880572 1_666
Hf2 Tc4 2.880889 1_565
Hf2 Tc3 2.880894 1_566
Hf2 Tc0 3.052107 1_554
Hf2 Tc1 3.052110 1_555
Hf3 Tc3 2.880575 1_465
Hf3 Tc4 2.880576 1_565
Hf3 Tc5 2.880891 1_565
Hf3 Tc2 2.880891 1_565
Hf3 Tc0 3.052105 1_554
Hf3 Tc1 3.052106 1_454
Hf4 Tc4 2.879047 1_555
Hf4 Tc3 2.879048 1_455
Hf4 Tc0 2.880203 1_555
Hf4 Tc1 2.880203 1_455
Hf4 Tc5 3.052900 1_455
Hf4 Tc2 3.052901 1_556
Hf5 Tc2 2.879041 1_655
Hf5 Tc5 2.879045 1_554
Hf5 Tc1 2.880197 1_555
Hf5 Tc0 2.880200 1_554
Hf5 Tc4 3.052904 1_665
Hf5 Tc3 3.052908 1_565
Be0 Tc0 2.403214 1_555
Be0 Tc1 2.403218 1_455
Be0 Tc5 2.403327 1_555
Be0 Tc2 2.403333 1_555
Be0 Tc4 2.403553 1_555
Be0 Tc3 2.403558 1_455
Be0 Hf0 2.638349 1_555
Be0 Hf4 2.638530 1_555
Be0 Hf3 2.639076 1_545
Be1 Tc0 2.403213 1_554
Be1 Tc1 2.403214 1_555
Be1 Tc4 2.403327 1_554
Be1 Tc3 2.403328 1_555
Be1 Tc2 2.403560 1_655
Be1 Tc5 2.403560 1_554
Be1 Hf1 2.638342 1_555
Be1 Hf5 2.638527 1_555
Be1 Hf2 2.639076 1_544
As0 Tc0 2.632718 1_554
As0 Tc2 2.633318 1_555
As0 Tc4 2.634059 1_565
As0 Hf1 2.731956 1_555
As0 Hf2 2.732025 1_555
As0 Hf4 2.732163 1_554
As0 Hf0 2.732339 1_555
As0 Hf3 2.732428 1_555
As0 Hf5 2.732469 1_455
As1 Tc0 2.632720 1_554
As1 Tc3 2.633311 1_565
As1 Tc5 2.634064 1_565
As1 Hf0 2.731951 1_554
As1 Hf3 2.732024 1_555
As1 Hf5 2.732165 1_555
As1 Hf1 2.732334 1_565
As1 Hf2 2.732430 1_555
As1 Hf4 2.732470 1_665
As2 Tc1 2.632720 1_455
As2 Tc4 2.633311 1_565
As2 Tc2 2.634064 1_566
As2 Hf0 2.731950 1_555
As2 Hf3 2.732025 1_556
As2 Hf5 2.732161 1_455
As2 Hf1 2.732334 1_566
As2 Hf2 2.732434 1_455
As2 Hf4 2.732470 1_565
As3 Tc1 2.632718 1_555
As3 Tc5 2.633318 1_555
As3 Tc3 2.634059 1_566
As3 Hf1 2.731952 1_555
As3 Hf2 2.732025 1_555
As3 Hf4 2.732167 1_655
As3 Hf0 2.732334 1_555
As3 Hf3 2.732432 1_656
As3 Hf5 2.732479 1_556
