# generated using pymatgen
data_MnCd6IO12
_symmetry_space_group_name_H-M   'P 1'
_cell_length_a   5.62213193
_cell_length_b   5.45031502
_cell_length_c   9.62054091
_cell_angle_alpha   56.13599287
_cell_angle_beta   90.77992491
_cell_angle_gamma   90.44238201
_symmetry_Int_Tables_number   1
_chemical_formula_structural   MnCd6IO12
_chemical_formula_sum   'Mn1 Cd6 I1 O12'
_cell_volume   244.76516483
_cell_formula_units_Z   1
loop_
 _symmetry_equiv_pos_site_id
 _symmetry_equiv_pos_as_xyz
  1  'x, y, z'
loop_
 _atom_site_type_symbol
 _atom_site_label
 _atom_site_symmetry_multiplicity
 _atom_site_fract_x
 _atom_site_fract_y
 _atom_site_fract_z
 _atom_site_occupancy
  Mn  Mn0  1  0.00000000  0.00000000  0.00000000  1
  Cd  Cd0  1  0.95511028  0.27187051  0.22439758  1
  Cd  Cd1  1  0.44040617  0.78919359  0.22963585  1
  Cd  Cd2  1  0.04488972  0.72812949  0.77560242  1
  Cd  Cd3  1  0.55959383  0.21080641  0.77036415  1
  Cd  Cd4  1  0.00000000  0.50000000  0.50000000  1
  Cd  Cd5  1  0.50000000  0.50000000  0.00000000  1
  I  I0  1  0.50000000  0.00000000  0.50000000  1
  O  O0  1  0.27322635  0.89337554  0.92952264  1
  O  O1  1  0.78116328  0.07043024  0.58098912  1
  O  O2  1  0.72677365  0.10662446  0.07047736  1
  O  O3  1  0.21883672  0.92956976  0.41901088  1
  O  O4  1  0.18654734  0.22962391  0.04979958  1
  O  O5  1  0.66701061  0.78108598  0.43668757  1
  O  O6  1  0.81345266  0.77037609  0.95020042  1
  O  O7  1  0.33298939  0.21891402  0.56331243  1
  O  O8  1  0.43432573  0.65599685  0.71417936  1
  O  O9  1  0.94063700  0.33494176  0.77334845  1
  O  O10  1  0.56567427  0.34400315  0.28582064  1
  O  O11  1  0.05936300  0.66505824  0.22665155  1
loop_
_geom_bond_atom_site_label_1
_geom_bond_atom_site_label_2
_geom_bond_distance
_geom_bond_site_symmetry_2
Mn0 O4 1.878854 1_555
Mn0 O6 1.878854 1_444
Mn0 O2 1.907448 1_455
Mn0 O0 1.907448 1_544
Mn0 O11 1.937014 1_545
Mn0 O9 1.937014 1_454
Cd0 O11 2.229011 1_655
Cd0 O4 2.250046 1_655
Cd0 O3 2.293219 1_645
Cd0 O10 2.367470 1_555
Cd0 O2 2.463452 1_555
Cd0 O6 2.638893 1_554
Cd1 O2 2.236443 1_565
Cd1 O11 2.246222 1_555
Cd1 O10 2.286940 1_555
Cd1 O5 2.329502 1_555
Cd1 O4 2.479892 1_565
Cd1 O3 2.662021 1_555
Cd1 O0 2.765746 1_554
Cd2 O9 2.229011 1_455
Cd2 O6 2.250046 1_455
Cd2 O1 2.293219 1_465
Cd2 O8 2.367470 1_555
Cd2 O0 2.463452 1_555
Cd2 O4 2.638893 1_556
Cd3 O0 2.236443 1_545
Cd3 O9 2.246222 1_555
Cd3 O8 2.286940 1_555
Cd3 O7 2.329502 1_555
Cd3 O6 2.479892 1_545
Cd3 O1 2.662021 1_555
Cd3 O2 2.765746 1_556
Cd4 O7 2.279506 1_555
Cd4 O5 2.279506 1_455
Cd4 O9 2.284525 1_455
Cd4 O11 2.284525 1_555
Cd4 O1 2.356064 1_455
Cd4 O3 2.356064 1_555
Cd5 O6 2.168595 1_554
Cd5 O4 2.168595 1_555
Cd5 O0 2.254028 1_554
Cd5 O2 2.254028 1_555
Cd5 O10 2.406670 1_555
Cd5 O8 2.406670 1_554
I0 O7 1.875910 1_555
I0 O5 1.875910 1_545
I0 O3 1.882444 1_545
I0 O1 1.882444 1_555
I0 O8 1.897887 1_545
I0 O10 1.897887 1_555
