# generated using pymatgen
data_TaNb3Si3Ru2
_symmetry_space_group_name_H-M   'P 1'
_cell_length_a   7.54101535
_cell_length_b   7.54101481
_cell_length_c   7.54101497
_cell_angle_alpha   126.46235800
_cell_angle_beta   124.50936183
_cell_angle_gamma   80.74460244
_symmetry_Int_Tables_number   1
_chemical_formula_structural   TaNb3Si3Ru2
_chemical_formula_sum   'Ta2 Nb6 Si6 Ru4'
_cell_volume   274.01179754
_cell_formula_units_Z   2
loop_
 _symmetry_equiv_pos_site_id
 _symmetry_equiv_pos_as_xyz
  1  'x, y, z'
loop_
 _atom_site_type_symbol
 _atom_site_label
 _atom_site_symmetry_multiplicity
 _atom_site_fract_x
 _atom_site_fract_y
 _atom_site_fract_z
 _atom_site_occupancy
  Ta  Ta0  1  0.50000000  0.25246624  0.75246624  1
  Ta  Ta1  1  1.00000000  0.25246624  0.25246624  1
  Nb  Nb0  1  0.55699090  0.09051295  0.03352205  1
  Nb  Nb1  1  0.44300910  0.47653216  0.53352205  1
  Nb  Nb2  1  0.96002697  0.48337025  0.02334329  1
  Nb  Nb3  1  0.03997303  0.06331632  0.52334329  1
  Nb  Nb4  1  0.75285155  0.91676438  0.66391383  1
  Nb  Nb5  1  0.24714845  0.91106328  0.16391383  1
  Si  Si0  1  0.78245641  0.56132894  0.27887453  1
  Si  Si1  1  0.21754359  0.49641813  0.77887453  1
  Si  Si2  1  0.33543702  0.81652235  0.49379774  1
  Si  Si3  1  0.66456298  0.15835872  0.48108433  1
  Si  Si4  1  0.82272561  0.81652235  0.98108433  1
  Si  Si5  1  0.17727439  0.15835872  0.99379774  1
  Ru  Ru0  1  0.16380709  0.74799934  0.65990474  1
  Ru  Ru1  1  0.83619291  0.49609965  0.58419225  1
  Ru  Ru2  1  0.58809360  0.74799934  0.08419225  1
  Ru  Ru3  1  0.41190640  0.49609965  0.15990474  1
loop_
_geom_bond_atom_site_label_1
_geom_bond_atom_site_label_2
_geom_bond_distance
_geom_bond_site_symmetry_2
Nb0 Si2 2.652534 1_544
Nb0 Si4 2.652540 1_544
Nb0 Si3 2.699960 1_555
Nb0 Si5 2.699965 1_554
Nb0 Ru0 2.783708 1_544
Nb0 Ru2 2.783709 1_545
Nb0 Ta0 2.836194 1_554
Nb0 Ta1 2.836194 1_555
Nb0 Ru1 2.846112 1_555
Nb0 Ru3 2.846116 1_555
Nb0 Si0 3.080439 1_555
Nb1 Si5 2.652537 1_554
Nb1 Si3 2.652550 1_555
Nb1 Si2 2.699952 1_555
Nb1 Si4 2.699960 1_555
Nb1 Ru1 2.783709 1_555
Nb1 Ru3 2.783716 1_555
Nb1 Ta1 2.836197 1_455
Nb1 Ta0 2.836201 1_555
Nb1 Ru0 2.846104 1_555
Nb1 Ru2 2.846110 1_556
Nb1 Si1 3.080456 1_555
Nb2 Si0 2.678789 1_555
Nb2 Si3 2.685793 1_554
Nb2 Si5 2.685794 1_654
Nb2 Si2 2.688169 1_655
Nb2 Si4 2.688170 1_554
Nb2 Ru3 2.948417 1_655
Nb2 Ru1 2.948419 1_554
Nb2 Ta1 2.987499 1_555
Nb2 Ta0 2.987499 1_554
Nb3 Si1 2.678784 1_555
Nb3 Si2 2.685787 1_545
Nb3 Si4 2.685794 1_444
Nb3 Si3 2.688163 1_455
Nb3 Si5 2.688178 1_555
Nb3 Ru0 2.948409 1_545
Nb3 Ru2 2.948414 1_445
Nb3 Ta1 2.987499 1_455
Nb3 Ta0 2.987499 1_555
Nb4 Si0 2.637534 1_555
Nb4 Si4 2.676299 1_555
Nb4 Si2 2.676313 1_555
Nb4 Si5 2.686742 1_665
Nb4 Si3 2.686748 1_565
Nb4 Ru1 2.887829 1_555
Nb4 Ru3 2.887838 1_555
Nb4 Ta1 2.893269 1_566
Nb4 Ta0 2.893272 1_565
Nb4 Ru0 3.164849 1_655
Nb4 Ru2 3.164851 1_555
Nb5 Si1 2.637535 1_554
Nb5 Si5 2.676292 1_564
Nb5 Si3 2.676308 1_565
Nb5 Si4 2.686742 1_454
Nb5 Si2 2.686756 1_555
Nb5 Ru2 2.887845 1_555
Nb5 Ru0 2.887848 1_554
Nb5 Ta1 2.893263 1_465
Nb5 Ta0 2.893267 1_565
Nb5 Ru3 3.164846 1_555
Nb5 Ru1 3.164849 1_454
Si0 Ta1 2.597221 1_555
Si0 Ta0 2.597231 1_554
Si1 Ta0 2.597232 1_555
Si1 Ta1 2.597233 1_455
Si2 Ta0 2.664560 1_565
Si3 Ta0 2.664562 1_555
Si4 Ta1 2.664556 1_566
Si5 Ta1 2.664550 1_456
Ru0 Si0 2.374790 1_455
Ru0 Si1 2.435610 1_555
Ru0 Si2 2.516468 1_555
Ru0 Si5 2.544883 1_565
Ru0 Ta1 2.909932 1_455
Ru1 Si1 2.374791 1_655
Ru1 Si0 2.435587 1_555
Ru1 Si3 2.516491 1_555
Ru1 Si4 2.544877 1_555
Ru1 Ta1 2.909933 1_555
Ru2 Si0 2.374803 1_555
Ru2 Si1 2.435604 1_554
Ru2 Si4 2.516488 1_554
Ru2 Si3 2.544877 1_565
Ru2 Ta0 2.909933 1_554
Ru3 Si1 2.374779 1_554
Ru3 Si0 2.435597 1_555
Ru3 Si5 2.516502 1_554
Ru3 Si2 2.544890 1_555
Ru3 Ta0 2.909926 1_554
