# generated using pymatgen
data_Cs2Pd2PtSe4
_symmetry_space_group_name_H-M   'P 1'
_cell_length_a   9.14341082
_cell_length_b   7.94898531
_cell_length_c   6.44213835
_cell_angle_alpha   78.11901012
_cell_angle_beta   58.29262241
_cell_angle_gamma   44.53094764
_symmetry_Int_Tables_number   1
_chemical_formula_structural   Cs2Pd2PtSe4
_chemical_formula_sum   'Cs2 Pd2 Pt1 Se4'
_cell_volume   267.93743100
_cell_formula_units_Z   1
loop_
 _symmetry_equiv_pos_site_id
 _symmetry_equiv_pos_as_xyz
  1  'x, y, z'
loop_
 _atom_site_type_symbol
 _atom_site_label
 _atom_site_symmetry_multiplicity
 _atom_site_fract_x
 _atom_site_fract_y
 _atom_site_fract_z
 _atom_site_occupancy
  Cs  Cs0  1  0.65228528  0.65228528  0.34771472  1
  Cs  Cs1  1  0.34771472  0.34771472  0.65228528  1
  Pd  Pd0  1  0.00000000  0.00000000  0.00000000  1
  Pd  Pd1  1  0.00000000  0.00000000  0.50000000  1
  Pt  Pt0  1  0.50000000  0.50000000  0.00000000  1
  Se  Se0  1  0.06191552  0.71649468  0.27509700  1
  Se  Se1  1  0.71649468  0.06191552  0.94649280  1
  Se  Se2  1  0.93808448  0.28350532  0.72490300  1
  Se  Se3  1  0.28350532  0.93808448  0.05350720  1
loop_
_geom_bond_atom_site_label_1
_geom_bond_atom_site_label_2
_geom_bond_distance
_geom_bond_site_symmetry_2
Cs0 Se3 3.761161 1_555
Cs0 Se2 3.761161 1_555
Cs0 Se3 3.797389 1_556
Cs0 Se2 3.797389 1_554
Cs0 Pt0 3.901296 1_555
Cs0 Pt0 3.901296 1_556
Cs0 Se0 3.910617 1_655
Cs0 Se1 3.910618 1_564
Cs0 Se2 3.917801 1_465
Cs0 Se3 3.917801 1_645
Cs0 Pd1 3.954219 1_565
Cs0 Pd1 3.954219 1_655
Cs0 Pd0 3.975341 1_566
Cs0 Pd0 3.975341 1_655
Cs1 Se1 3.761161 1_555
Cs1 Se0 3.761161 1_555
Cs1 Se1 3.797389 1_554
Cs1 Se0 3.797389 1_556
Cs1 Pt0 3.901296 1_556
Cs1 Pt0 3.901296 1_555
Cs1 Se2 3.910617 1_455
Cs1 Se3 3.910618 1_546
Cs1 Se0 3.917801 1_645
Cs1 Se1 3.917801 1_465
Cs1 Pd1 3.954219 1_655
Cs1 Pd1 3.954219 1_565
Cs1 Pd0 3.975341 1_655
Cs1 Pd0 3.975341 1_566
Pd0 Se3 2.476089 1_545
Pd0 Se1 2.476089 1_454
Pd0 Se2 2.476089 1_454
Pd0 Se0 2.476089 1_545
Pd1 Se3 2.482255 1_545
Pd1 Se1 2.482255 1_455
Pd1 Se2 2.482255 1_455
Pd1 Se0 2.482255 1_545
Pt0 Se2 2.472413 1_554
Pt0 Se0 2.472413 1_555
Pt0 Se3 2.472413 1_555
Pt0 Se1 2.472413 1_554
