# generated using pymatgen
data_NaSr21(In3Ga4)2
_symmetry_space_group_name_H-M   'P 1'
_cell_length_a   12.24139219
_cell_length_b   12.24139290
_cell_length_c   12.24139144
_cell_angle_alpha   60.00000659
_cell_angle_beta   60.00000469
_cell_angle_gamma   60.00000044
_symmetry_Int_Tables_number   1
_chemical_formula_structural   NaSr21(In3Ga4)2
_chemical_formula_sum   'Na1 Sr21 In6 Ga8'
_cell_volume   1297.11199441
_cell_formula_units_Z   1
loop_
 _symmetry_equiv_pos_site_id
 _symmetry_equiv_pos_as_xyz
  1  'x, y, z'
loop_
 _atom_site_type_symbol
 _atom_site_label
 _atom_site_symmetry_multiplicity
 _atom_site_fract_x
 _atom_site_fract_y
 _atom_site_fract_z
 _atom_site_occupancy
  Na  Na0  1  0.50000000  0.50000000  0.50000000  1
  Sr  Sr0  1  0.86685910  0.86685910  0.39942270  1
  Sr  Sr1  1  0.60057730  0.13314090  0.13314090  1
  Sr  Sr2  1  0.86685910  0.39942270  0.86685910  1
  Sr  Sr3  1  0.13314090  0.13314090  0.13314090  1
  Sr  Sr4  1  0.39942270  0.86685910  0.86685910  1
  Sr  Sr5  1  0.86685910  0.86685910  0.86685910  1
  Sr  Sr6  1  0.16572201  0.83427799  0.50000000  1
  Sr  Sr7  1  0.83427799  0.50000000  0.50000000  1
  Sr  Sr8  1  0.13314090  0.13314090  0.60057730  1
  Sr  Sr9  1  0.83427799  0.16572201  0.50000000  1
  Sr  Sr10  1  0.16572201  0.50000000  0.50000000  1
  Sr  Sr11  1  0.13314090  0.60057730  0.13314090  1
  Sr  Sr12  1  0.50000000  0.50000000  0.16572201  1
  Sr  Sr13  1  0.50000000  0.16572201  0.83427799  1
  Sr  Sr14  1  0.50000000  0.83427799  0.16572201  1
  Sr  Sr15  1  0.50000000  0.50000000  0.83427799  1
  Sr  Sr16  1  0.50000000  0.16572201  0.50000000  1
  Sr  Sr17  1  0.16572201  0.50000000  0.83427799  1
  Sr  Sr18  1  0.00000000  0.00000000  0.00000000  1
  Sr  Sr19  1  0.50000000  0.83427799  0.50000000  1
  Sr  Sr20  1  0.83427799  0.50000000  0.16572201  1
  In  In0  1  0.78282727  0.21717273  0.78282727  1
  In  In1  1  0.78282727  0.21717273  0.21717273  1
  In  In2  1  0.21717273  0.78282727  0.21717273  1
  In  In3  1  0.21717273  0.78282727  0.78282727  1
  In  In4  1  0.78282727  0.78282727  0.21717273  1
  In  In5  1  0.21717273  0.21717273  0.78282727  1
  Ga  Ga0  1  0.69454881  0.91635456  0.69454881  1
  Ga  Ga1  1  0.69454881  0.69454881  0.91635456  1
  Ga  Ga2  1  0.69454881  0.69454881  0.69454881  1
  Ga  Ga3  1  0.30545119  0.08364544  0.30545119  1
  Ga  Ga4  1  0.91635456  0.69454881  0.69454881  1
  Ga  Ga5  1  0.30545119  0.30545119  0.08364544  1
  Ga  Ga6  1  0.08364544  0.30545119  0.30545119  1
  Ga  Ga7  1  0.30545119  0.30545119  0.30545119  1
loop_
_geom_bond_atom_site_label_1
_geom_bond_atom_site_label_2
_geom_bond_distance
_geom_bond_site_symmetry_2
Na0 Sr15 4.092028 1_555
Na0 Sr12 4.092028 1_555
Na0 Sr7 4.092028 1_555
Na0 Sr10 4.092028 1_555
Na0 Sr9 4.092028 1_555
Na0 Sr6 4.092028 1_555
Na0 Sr17 4.092028 1_555
Na0 Sr20 4.092028 1_555
Na0 Sr19 4.092028 1_555
Na0 Sr16 4.092028 1_555
Na0 Sr14 4.092028 1_555
Na0 Sr13 4.092028 1_555
In0 Sr9 3.519021 1_555
In0 Sr13 3.519021 1_555
In0 Sr15 3.519021 1_555
In0 Sr7 3.519021 1_555
In0 Sr2 3.569551 1_555
In0 Sr8 3.569551 1_655
In0 Sr1 3.569551 1_556
In0 Sr5 3.569551 1_545
In0 Sr18 3.759682 1_656
In1 Sr9 3.519021 1_555
In1 Sr12 3.519021 1_555
In1 Sr16 3.519021 1_555
In1 Sr20 3.519021 1_555
In1 Sr1 3.569551 1_555
In1 Sr3 3.569551 1_655
In1 Sr2 3.569551 1_554
In1 Sr0 3.569551 1_545
In1 Sr18 3.759682 1_655
In2 Sr6 3.519021 1_555
In2 Sr14 3.519021 1_555
In2 Sr12 3.519021 1_555
In2 Sr10 3.519021 1_555
In2 Sr11 3.569551 1_555
In2 Sr0 3.569551 1_455
In2 Sr4 3.569551 1_554
In2 Sr3 3.569551 1_565
In2 Sr18 3.759682 1_565
In3 Sr6 3.519021 1_555
In3 Sr15 3.519021 1_555
In3 Sr19 3.519021 1_555
In3 Sr17 3.519021 1_555
In3 Sr4 3.569551 1_555
In3 Sr5 3.569551 1_455
In3 Sr11 3.569551 1_556
In3 Sr8 3.569551 1_565
In3 Sr18 3.759682 1_566
In4 Sr14 3.519021 1_555
In4 Sr19 3.519021 1_555
In4 Sr20 3.519021 1_555
In4 Sr7 3.519021 1_555
In4 Sr0 3.569551 1_555
In4 Sr5 3.569551 1_554
In4 Sr11 3.569551 1_655
In4 Sr1 3.569551 1_565
In4 Sr18 3.759682 1_665
In5 Sr13 3.519021 1_555
In5 Sr16 3.519021 1_555
In5 Sr17 3.519021 1_555
In5 Sr10 3.519021 1_555
In5 Sr8 3.569551 1_555
In5 Sr3 3.569551 1_556
In5 Sr2 3.569551 1_455
In5 Sr4 3.569551 1_545
In5 Sr18 3.759682 1_556
Ga0 Ga4 2.715211 1_555
Ga0 Ga2 2.715211 1_555
Ga0 Ga1 2.715211 1_555
Ga0 Sr5 3.340468 1_555
Ga0 Sr0 3.340479 1_555
Ga0 Sr4 3.340479 1_555
Ga0 Sr13 3.434212 1_565
Ga0 Sr9 3.434212 1_565
Ga0 Sr16 3.434219 1_565
Ga1 Ga2 2.715211 1_555
Ga1 Ga4 2.715211 1_555
Ga1 Sr5 3.340468 1_555
Ga1 Sr4 3.340479 1_555
Ga1 Sr2 3.340479 1_555
Ga1 Sr14 3.434212 1_556
Ga1 Sr20 3.434212 1_556
Ga1 Sr12 3.434220 1_556
Ga2 Ga4 2.715211 1_555
Ga2 Sr4 3.340474 1_555
Ga2 Sr2 3.340474 1_555
Ga2 Sr0 3.340474 1_555
Ga2 Sr19 3.434222 1_555
Ga2 Sr7 3.434222 1_555
Ga2 Sr15 3.434222 1_555
Ga3 Ga6 2.715211 1_555
Ga3 Ga7 2.715211 1_555
Ga3 Ga5 2.715211 1_555
Ga3 Sr3 3.340468 1_555
Ga3 Sr8 3.340479 1_555
Ga3 Sr1 3.340479 1_555
Ga3 Sr14 3.434212 1_545
Ga3 Sr6 3.434212 1_545
Ga3 Sr19 3.434219 1_545
Ga4 Sr5 3.340468 1_555
Ga4 Sr0 3.340479 1_555
Ga4 Sr2 3.340479 1_555
Ga4 Sr17 3.434212 1_655
Ga4 Sr6 3.434212 1_655
Ga4 Sr10 3.434219 1_655
Ga5 Ga7 2.715211 1_555
Ga5 Ga6 2.715211 1_555
Ga5 Sr3 3.340468 1_555
Ga5 Sr1 3.340479 1_555
Ga5 Sr11 3.340479 1_555
Ga5 Sr13 3.434212 1_554
Ga5 Sr17 3.434212 1_554
Ga5 Sr15 3.434220 1_554
Ga6 Ga7 2.715211 1_555
Ga6 Sr3 3.340468 1_555
Ga6 Sr8 3.340479 1_555
Ga6 Sr11 3.340479 1_555
Ga6 Sr20 3.434212 1_455
Ga6 Sr9 3.434212 1_455
Ga6 Sr7 3.434219 1_455
Ga7 Sr1 3.340474 1_555
Ga7 Sr11 3.340474 1_555
Ga7 Sr8 3.340474 1_555
Ga7 Sr16 3.434222 1_555
Ga7 Sr10 3.434222 1_555
Ga7 Sr12 3.434222 1_555
