# generated using pymatgen
data_Cs2SrOsO6
_symmetry_space_group_name_H-M   'P 1'
_cell_length_a   6.21698416
_cell_length_b   6.21698393
_cell_length_c   6.21698382
_cell_angle_alpha   119.99999938
_cell_angle_beta   119.99999817
_cell_angle_gamma   60.00001195
_symmetry_Int_Tables_number   1
_chemical_formula_structural   Cs2SrOsO6
_chemical_formula_sum   'Cs2 Sr1 Os1 O6'
_cell_volume   169.91209393
_cell_formula_units_Z   1
loop_
 _symmetry_equiv_pos_site_id
 _symmetry_equiv_pos_as_xyz
  1  'x, y, z'
loop_
 _atom_site_type_symbol
 _atom_site_label
 _atom_site_symmetry_multiplicity
 _atom_site_fract_x
 _atom_site_fract_y
 _atom_site_fract_z
 _atom_site_occupancy
  Cs  Cs0  1  0.74999800  0.74999800  0.24999800  1
  Cs  Cs1  1  0.25000000  0.25000000  0.74999900  1
  Sr  Sr0  1  0.50000000  0.50000000  0.49999900  1
  Os  Os0  1  0.00000000  0.00000000  0.00000000  1
  O  O0  1  0.21252405  0.21252405  0.21252305  1
  O  O1  1  0.78747595  0.21252305  0.21252305  1
  O  O2  1  0.21252305  0.78747595  0.21252305  1
  O  O3  1  0.78747695  0.78747695  0.78747595  1
  O  O4  1  0.78747595  0.21252405  0.78747595  1
  O  O5  1  0.21252405  0.78747595  0.78747595  1
loop_
_geom_bond_atom_site_label_1
_geom_bond_atom_site_label_2
_geom_bond_distance
_geom_bond_site_symmetry_2
Cs0 O4 3.125894 1_554
Cs0 O5 3.125894 1_554
Cs0 O1 3.125897 1_555
Cs0 O2 3.125897 1_555
Cs0 O3 3.125903 1_555
Cs0 O0 3.125905 1_655
Cs0 O0 3.125905 1_565
Cs0 O3 3.125915 1_554
Cs0 O1 3.125916 1_565
Cs0 O2 3.125916 1_655
Cs0 O4 3.125918 1_565
Cs0 O5 3.125918 1_655
Cs1 O5 3.125903 1_555
Cs1 O4 3.125904 1_555
Cs1 O0 3.125906 1_556
Cs1 O0 3.125906 1_555
Cs1 O2 3.125906 1_545
Cs1 O2 3.125906 1_556
Cs1 O1 3.125906 1_455
Cs1 O1 3.125906 1_556
Cs1 O3 3.125908 1_455
Cs1 O3 3.125908 1_545
Cs1 O5 3.125910 1_545
Cs1 O4 3.125910 1_455
O0 Os0 1.868542 1_555
O0 Sr0 2.527530 1_555
O1 Os0 1.868538 1_655
O1 Sr0 2.527530 1_555
O2 Os0 1.868538 1_565
O2 Sr0 2.527530 1_555
O3 Os0 1.868533 1_666
O3 Sr0 2.527538 1_555
O4 Os0 1.868542 1_656
O4 Sr0 2.527534 1_555
O5 Os0 1.868542 1_566
O5 Sr0 2.527534 1_555
