# generated using pymatgen
data_SrSi3NiPt4
_symmetry_space_group_name_H-M   'P 1'
_cell_length_a   6.46952402
_cell_length_b   6.46952281
_cell_length_c   12.62000676
_cell_angle_alpha   90.00000000
_cell_angle_beta   90.00000000
_cell_angle_gamma   145.37442179
_symmetry_Int_Tables_number   1
_chemical_formula_structural   SrSi3NiPt4
_chemical_formula_sum   'Sr2 Si6 Ni2 Pt8'
_cell_volume   300.13311944
_cell_formula_units_Z   2
loop_
 _symmetry_equiv_pos_site_id
 _symmetry_equiv_pos_as_xyz
  1  'x, y, z'
loop_
 _atom_site_type_symbol
 _atom_site_label
 _atom_site_symmetry_multiplicity
 _atom_site_fract_x
 _atom_site_fract_y
 _atom_site_fract_z
 _atom_site_occupancy
  Sr  Sr0  1  0.15963730  0.84036270  0.25000000  1
  Sr  Sr1  1  0.84036270  0.15963730  0.75000000  1
  Si  Si0  1  0.89004500  0.10995500  0.25000000  1
  Si  Si1  1  0.10995500  0.89004500  0.75000000  1
  Si  Si2  1  0.38572887  0.61427113  0.96401234  1
  Si  Si3  1  0.61427113  0.38572887  0.03598766  1
  Si  Si4  1  0.61427113  0.38572887  0.46401234  1
  Si  Si5  1  0.38572887  0.61427113  0.53598766  1
  Ni  Ni0  1  0.00000000  0.00000000  0.50000000  1
  Ni  Ni1  1  0.00000000  0.00000000  0.00000000  1
  Pt  Pt0  1  0.45472738  0.54527262  0.35767464  1
  Pt  Pt1  1  0.45472738  0.54527262  0.14232536  1
  Pt  Pt2  1  0.79937762  0.20062238  0.07170253  1
  Pt  Pt3  1  0.20062238  0.79937762  0.92829747  1
  Pt  Pt4  1  0.20062238  0.79937762  0.57170253  1
  Pt  Pt5  1  0.79937762  0.20062238  0.42829747  1
  Pt  Pt6  1  0.54527262  0.45472738  0.85767464  1
  Pt  Pt7  1  0.54527262  0.45472738  0.64232536  1
loop_
_geom_bond_atom_site_label_1
_geom_bond_atom_site_label_2
_geom_bond_distance
_geom_bond_site_symmetry_2
Si0 Sr0 3.330229 1_645
Si0 Sr0 3.436187 1_655
Si0 Sr0 3.436188 1_545
Si1 Sr1 3.330229 1_465
Si1 Sr1 3.436187 1_455
Si1 Sr1 3.436188 1_565
Si2 Sr1 3.363802 1_565
Si2 Sr1 3.363803 1_455
Si3 Sr0 3.363802 1_545
Si3 Sr0 3.363803 1_655
Si4 Sr0 3.363802 1_545
Si4 Sr0 3.363803 1_655
Si5 Sr1 3.363802 1_565
Si5 Sr1 3.363803 1_455
Ni0 Si5 2.430102 1_555
Ni0 Si4 2.430102 1_445
Ni0 Si4 2.430103 1_555
Ni0 Si5 2.430103 1_445
Ni0 Pt4 2.638289 1_545
Ni0 Pt5 2.638289 1_455
Ni0 Pt7 2.691746 1_445
Ni0 Pt0 2.691746 1_555
Ni0 Pt7 2.691746 1_555
Ni0 Pt0 2.691746 1_445
Ni1 Si2 2.430102 1_554
Ni1 Si3 2.430102 1_445
Ni1 Si3 2.430103 1_555
Ni1 Si2 2.430103 1_444
Ni1 Pt2 2.638289 1_455
Ni1 Pt3 2.638289 1_544
Ni1 Pt1 2.691746 1_555
Ni1 Pt6 2.691746 1_444
Ni1 Pt1 2.691746 1_445
Ni1 Pt6 2.691746 1_554
Pt0 Si4 2.384332 1_555
Pt0 Si5 2.406317 1_555
Pt0 Si0 2.488273 1_565
Pt0 Si0 2.488273 1_455
Pt0 Sr0 3.458345 1_545
Pt0 Sr0 3.458345 1_655
Pt1 Si3 2.384332 1_555
Pt1 Si2 2.406317 1_554
Pt1 Si0 2.488273 1_565
Pt1 Si0 2.488273 1_455
Pt1 Sr0 3.458345 1_545
Pt1 Sr0 3.458345 1_655
Pt2 Si3 2.330589 1_555
Pt2 Si0 2.513447 1_555
Pt2 Si2 2.586779 1_544
Pt2 Si2 2.586780 1_654
Pt2 Sr0 3.427731 1_655
Pt2 Sr0 3.427732 1_545
Pt3 Si2 2.330589 1_555
Pt3 Si1 2.513447 1_555
Pt3 Si3 2.586779 1_566
Pt3 Si3 2.586780 1_456
Pt3 Sr1 3.427731 1_455
Pt3 Sr1 3.427732 1_565
Pt4 Si5 2.330589 1_555
Pt4 Si1 2.513447 1_555
Pt4 Si4 2.586779 1_565
Pt4 Si4 2.586780 1_455
Pt4 Sr1 3.427731 1_455
Pt4 Sr1 3.427732 1_565
Pt5 Si4 2.330589 1_555
Pt5 Si0 2.513447 1_555
Pt5 Si5 2.586779 1_545
Pt5 Si5 2.586780 1_655
Pt5 Sr0 3.427731 1_655
Pt5 Sr0 3.427732 1_545
Pt6 Si2 2.384332 1_555
Pt6 Si3 2.406317 1_556
Pt6 Si1 2.488273 1_545
Pt6 Si1 2.488273 1_655
Pt6 Sr1 3.458345 1_565
Pt6 Sr1 3.458345 1_455
Pt7 Si5 2.384332 1_555
Pt7 Si4 2.406317 1_555
Pt7 Si1 2.488273 1_545
Pt7 Si1 2.488273 1_655
Pt7 Sr1 3.458345 1_565
Pt7 Sr1 3.458345 1_455
