# generated using pymatgen
data_Ca19In6Hg2N7
_symmetry_space_group_name_H-M   'P 1'
_cell_length_a   10.36372590
_cell_length_b   10.37378939
_cell_length_c   10.37379026
_cell_angle_alpha   60.24757234
_cell_angle_beta   60.03208491
_cell_angle_gamma   60.03208662
_symmetry_Int_Tables_number   1
_chemical_formula_structural   Ca19In6Hg2N7
_chemical_formula_sum   'Ca19 In6 Hg2 N7'
_cell_volume   790.48393273
_cell_formula_units_Z   1
loop_
 _symmetry_equiv_pos_site_id
 _symmetry_equiv_pos_as_xyz
  1  'x, y, z'
loop_
 _atom_site_type_symbol
 _atom_site_label
 _atom_site_symmetry_multiplicity
 _atom_site_fract_x
 _atom_site_fract_y
 _atom_site_fract_z
 _atom_site_occupancy
  Ca  Ca0  1  0.17174025  0.50159296  0.82565477  1
  Ca  Ca1  1  0.50000000  0.82775515  0.17224485  1
  Ca  Ca2  1  0.82825975  0.17434523  0.49840704  1
  Ca  Ca3  1  0.16614234  0.83562950  0.16437050  1
  Ca  Ca4  1  0.82743584  0.50067980  0.17107536  1
  Ca  Ca5  1  0.17256416  0.82892464  0.49932020  1
  Ca  Ca6  1  0.16478526  0.16882596  0.83117404  1
  Ca  Ca7  1  0.17238967  0.50040526  0.49959474  1
  Ca  Ca8  1  0.83385766  0.83562950  0.16437050  1
  Ca  Ca9  1  0.83521474  0.16882596  0.83117404  1
  Ca  Ca10  1  0.49919000  0.82892464  0.49932020  1
  Ca  Ca11  1  0.50000000  0.50105820  0.49894180  1
  Ca  Ca12  1  0.50081000  0.50067980  0.17107536  1
  Ca  Ca13  1  0.16579437  0.83690099  0.83151027  1
  Ca  Ca14  1  0.50000000  0.17419816  0.82580184  1
  Ca  Ca15  1  0.49898799  0.17434523  0.49840704  1
  Ca  Ca16  1  0.82761033  0.50040526  0.49959474  1
  Ca  Ca17  1  0.83420563  0.16848973  0.16309901  1
  Ca  Ca18  1  0.50101201  0.50159296  0.82565477  1
  In  In0  1  0.47074537  0.17534007  0.17903971  1
  In  In1  1  0.17649099  0.46827121  0.17874581  1
  In  In2  1  0.52925463  0.82096029  0.82465993  1
  In  In3  1  0.17487386  0.17534007  0.17903971  1
  In  In4  1  0.82512614  0.82096029  0.82465993  1
  In  In5  1  0.82350901  0.82125419  0.53172879  1
  Hg  Hg0  1  0.17018111  0.16940795  0.49022883  1
  Hg  Hg1  1  0.82981889  0.50977117  0.83059205  1
  N  N0  1  0.67445969  0.32805036  0.67194964  1
  N  N1  1  0.67413689  0.32744197  0.32428424  1
  N  N2  1  0.32586311  0.67571576  0.67255803  1
  N  N3  1  0.32539583  0.67521050  0.32478950  1
  N  N4  1  0.32554031  0.32805036  0.67194964  1
  N  N5  1  0.67460417  0.67521050  0.32478950  1
  N  N6  1  1.00000000  0.99980539  0.00019461  1
loop_
_geom_bond_atom_site_label_1
_geom_bond_atom_site_label_2
_geom_bond_distance
_geom_bond_site_symmetry_2
Ca0 N4 2.401533 1_555
Ca0 N2 2.416037 1_555
Ca0 In4 3.463216 1_455
Ca0 Hg1 3.476985 1_455
Ca0 In1 3.527773 1_556
Ca0 In3 3.548194 1_556
Ca1 N3 2.407786 1_555
Ca1 N5 2.407786 1_555
Ca1 In0 3.498176 1_565
Ca1 In2 3.498176 1_554
Ca1 In3 3.498181 1_565
Ca1 In4 3.498181 1_554
Ca2 N0 2.401533 1_555
Ca2 N1 2.416037 1_555
Ca2 In3 3.463216 1_655
Ca2 Hg0 3.476985 1_655
Ca2 In5 3.527773 1_545
Ca2 In4 3.548194 1_545
Ca3 N3 2.348228 1_555
Ca3 N6 2.426346 1_455
Ca3 In3 3.648991 1_565
Ca3 In2 3.648996 1_554
Ca3 In5 3.687852 1_455
Ca3 In1 3.687857 1_555
Ca4 N1 2.403074 1_555
Ca4 N5 2.409738 1_555
Ca4 Hg1 3.474163 1_554
Ca4 In4 3.479940 1_554
Ca4 In3 3.498941 1_655
Ca4 In1 3.500250 1_655
Ca5 N2 2.403074 1_555
Ca5 N3 2.409738 1_555
Ca5 Hg0 3.474163 1_565
Ca5 In3 3.479940 1_565
Ca5 In4 3.498941 1_455
Ca5 In5 3.500250 1_455
Ca6 N4 2.350401 1_555
Ca6 N6 2.452333 1_446
Ca6 Hg1 3.506322 1_455
Ca6 Hg0 3.506327 1_555
Ca6 In3 3.696504 1_556
Ca6 In2 3.696509 1_545
Ca7 N4 2.395839 1_555
Ca7 N3 2.414026 1_555
Ca7 In5 3.483819 1_455
Ca7 In1 3.483825 1_555
Ca7 Hg1 3.494575 1_455
Ca7 Hg0 3.494580 1_555
Ca8 N5 2.348228 1_555
Ca8 N6 2.426346 1_555
Ca8 In4 3.648991 1_554
Ca8 In0 3.648996 1_565
Ca8 In1 3.687852 1_655
Ca8 In5 3.687857 1_555
Ca9 N0 2.350401 1_555
Ca9 N6 2.452333 1_546
Ca9 Hg0 3.506322 1_655
Ca9 Hg1 3.506327 1_555
Ca9 In4 3.696504 1_545
Ca9 In0 3.696509 1_556
Ca10 N2 2.403067 1_555
Ca10 N5 2.409739 1_555
Ca10 Hg0 3.474163 1_565
Ca10 In0 3.479940 1_565
Ca10 In2 3.498953 1_555
Ca10 In5 3.500270 1_555
Ca11 N2 2.551176 1_555
Ca11 N1 2.551176 1_555
Ca11 N4 2.552314 1_555
Ca11 N0 2.552314 1_555
Ca11 N5 2.561796 1_555
Ca11 N3 2.561797 1_555
Ca12 N1 2.403067 1_555
Ca12 N3 2.409738 1_555
Ca12 Hg1 3.474163 1_554
Ca12 In2 3.479940 1_554
Ca12 In0 3.498953 1_555
Ca12 In1 3.500270 1_555
Ca13 N2 2.345095 1_555
Ca13 N6 2.429135 1_456
Ca13 Hg0 3.508528 1_565
Ca13 In4 3.652816 1_455
Ca13 In2 3.652827 1_555
Ca13 In1 3.730298 1_556
Ca14 N0 2.415668 1_555
Ca14 N4 2.415669 1_555
Ca14 In2 3.528395 1_545
Ca14 In0 3.528395 1_556
Ca14 In4 3.528400 1_545
Ca14 In3 3.528400 1_556
Ca15 N4 2.401533 1_555
Ca15 N1 2.416037 1_555
Ca15 In0 3.463222 1_555
Ca15 Hg0 3.476996 1_555
Ca15 In5 3.527778 1_545
Ca15 In2 3.548195 1_545
Ca16 N0 2.395839 1_555
Ca16 N5 2.414026 1_555
Ca16 In1 3.483819 1_655
Ca16 In5 3.483824 1_555
Ca16 Hg0 3.494575 1_655
Ca16 Hg1 3.494581 1_555
Ca17 N1 2.345095 1_555
Ca17 N6 2.429135 1_545
Ca17 Hg1 3.508528 1_554
Ca17 In3 3.652816 1_655
Ca17 In0 3.652827 1_555
Ca17 In5 3.730298 1_545
Ca18 N0 2.401533 1_555
Ca18 N2 2.416037 1_555
Ca18 In2 3.463222 1_555
Ca18 Hg1 3.476996 1_555
Ca18 In1 3.527778 1_556
Ca18 In0 3.548195 1_556
In0 In1 3.045696 1_555
In0 In3 3.066331 1_555
In1 In3 3.045696 1_555
In2 In5 3.045696 1_555
In2 In4 3.066331 1_555
In4 In5 3.045696 1_555
Hg0 In0 3.174345 1_555
Hg0 In3 3.174345 1_555
Hg0 In1 3.178986 1_555
Hg1 In4 3.174345 1_555
Hg1 In2 3.174345 1_555
Hg1 In5 3.178986 1_555
