# generated using pymatgen
data_Sr3Ca(BeSi3)2
_symmetry_space_group_name_H-M   'P 1'
_cell_length_a   8.33569135
_cell_length_b   7.99362169
_cell_length_c   6.12136656
_cell_angle_alpha   70.98511297
_cell_angle_beta   65.04459369
_cell_angle_gamma   43.97029137
_symmetry_Int_Tables_number   1
_chemical_formula_structural   Sr3Ca(BeSi3)2
_chemical_formula_sum   'Sr3 Ca1 Be2 Si6'
_cell_volume   256.58742412
_cell_formula_units_Z   1
loop_
 _symmetry_equiv_pos_site_id
 _symmetry_equiv_pos_as_xyz
  1  'x, y, z'
loop_
 _atom_site_type_symbol
 _atom_site_label
 _atom_site_symmetry_multiplicity
 _atom_site_fract_x
 _atom_site_fract_y
 _atom_site_fract_z
 _atom_site_occupancy
  Sr  Sr0  1  0.75050048  0.74949952  0.75050048  1
  Sr  Sr1  1  0.75726886  0.24273114  0.75726886  1
  Sr  Sr2  1  0.25050048  0.24949952  0.25050048  1
  Ca  Ca0  1  0.24215215  0.75784785  0.24215215  1
  Be  Be0  1  0.66527179  0.66827398  0.33172602  1
  Be  Be1  1  0.33172602  0.33472821  0.66527179  1
  Si  Si0  1  0.82366392  0.34714838  0.17400262  1
  Si  Si1  1  0.65285162  0.17633608  0.34481493  1
  Si  Si2  1  0.17400262  0.65518507  0.82366392  1
  Si  Si3  1  0.34481493  0.82599738  0.65285162  1
  Si  Si4  1  0.17409711  0.16684898  0.83315102  1
  Si  Si5  1  0.83315102  0.82590289  0.17409711  1
loop_
_geom_bond_atom_site_label_1
_geom_bond_atom_site_label_2
_geom_bond_distance
_geom_bond_site_symmetry_2
Ca0 Si4 3.236360 1_564
Ca0 Si5 3.236360 1_455
Ca0 Si1 3.275425 1_555
Ca0 Si2 3.275425 1_555
Ca0 Si3 3.275425 1_555
Ca0 Si0 3.275425 1_555
Ca0 Si0 3.290513 1_465
Ca0 Si3 3.290513 1_554
Ca0 Si2 3.290513 1_554
Ca0 Si1 3.290513 1_465
Be0 Si0 2.219363 1_555
Be0 Si3 2.219363 1_555
Be0 Si5 2.254638 1_555
Be0 Sr2 3.257398 1_565
Be0 Sr0 3.257398 1_554
Be0 Sr0 3.283749 1_555
Be0 Sr2 3.283749 1_655
Be0 Ca0 3.315722 1_555
Be0 Sr1 3.331892 1_555
Be1 Si2 2.219363 1_555
Be1 Si1 2.219363 1_555
Be1 Si4 2.254638 1_555
Be1 Sr2 3.257398 1_555
Be1 Sr0 3.257398 1_455
Be1 Sr0 3.283749 1_545
Be1 Sr2 3.283749 1_556
Be1 Ca0 3.315722 1_555
Be1 Sr1 3.331892 1_555
Si0 Si4 2.391668 1_654
Si0 Sr0 3.242584 1_554
Si0 Sr2 3.264647 1_655
Si0 Sr1 3.279363 1_554
Si0 Sr1 3.287283 1_555
Si1 Si5 2.391668 1_545
Si1 Sr2 3.242584 1_555
Si1 Sr0 3.264647 1_545
Si1 Sr1 3.279363 1_554
Si1 Sr1 3.287284 1_555
Si2 Si5 2.391668 1_456
Si2 Sr0 3.242584 1_455
Si2 Sr2 3.264647 1_556
Si2 Sr1 3.279363 1_465
Si2 Sr1 3.287284 1_555
Si3 Si4 2.391668 1_565
Si3 Sr2 3.242584 1_565
Si3 Sr0 3.264647 1_555
Si3 Sr1 3.279363 1_465
Si3 Sr1 3.287283 1_555
Si4 Sr2 3.232230 1_556
Si4 Sr0 3.232230 1_545
Si4 Sr0 3.273575 1_455
Si4 Sr2 3.273575 1_555
Si4 Sr1 3.286465 1_455
Si5 Sr2 3.232230 1_655
Si5 Sr0 3.232230 1_555
Si5 Sr0 3.273575 1_554
Si5 Sr2 3.273575 1_565
Si5 Sr1 3.286464 1_564
