# generated using pymatgen
data_RbNa(NbBr3)3
_symmetry_space_group_name_H-M   'P 1'
_cell_length_a   10.00138626
_cell_length_b   10.08836575
_cell_length_c   10.17795669
_cell_angle_alpha   119.05963969
_cell_angle_beta   97.52055548
_cell_angle_gamma   105.26799725
_symmetry_Int_Tables_number   1
_chemical_formula_structural   RbNa(NbBr3)3
_chemical_formula_sum   'Rb2 Na2 Nb6 Br18'
_cell_volume   824.18557623
_cell_formula_units_Z   2
loop_
 _symmetry_equiv_pos_site_id
 _symmetry_equiv_pos_as_xyz
  1  'x, y, z'
loop_
 _atom_site_type_symbol
 _atom_site_label
 _atom_site_symmetry_multiplicity
 _atom_site_fract_x
 _atom_site_fract_y
 _atom_site_fract_z
 _atom_site_occupancy
  Rb  Rb0  1  0.33144546  0.46570961  0.26448870  1
  Rb  Rb1  1  0.66855454  0.53429039  0.73551130  1
  Na  Na0  1  0.64263319  0.20475971  0.05480379  1
  Na  Na1  1  0.35736681  0.79524029  0.94519621  1
  Nb  Nb0  1  0.12463322  0.89116467  0.36096875  1
  Nb  Nb1  1  0.86453559  0.76933219  0.44192237  1
  Nb  Nb2  1  0.86454401  0.96891246  0.30336166  1
  Nb  Nb3  1  0.87536678  0.10883533  0.63903125  1
  Nb  Nb4  1  0.13546441  0.23066781  0.55807763  1
  Nb  Nb5  1  0.13545599  0.03108754  0.69663834  1
  Br  Br0  1  0.67511763  0.45530057  0.36519976  1
  Br  Br1  1  0.67559692  0.92091095  0.02869628  1
  Br  Br2  1  0.33211925  0.32360802  0.81563098  1
  Br  Br3  1  0.66788075  0.67639198  0.18436902  1
  Br  Br4  1  0.29184165  0.74128083  0.17700442  1
  Br  Br5  1  0.68125946  0.09127679  0.42735094  1
  Br  Br6  1  0.32488237  0.54469943  0.63480024  1
  Br  Br7  1  0.98506789  0.58371851  0.25800920  1
  Br  Br8  1  0.68060540  0.84908324  0.59847584  1
  Br  Br9  1  0.70815835  0.25871917  0.82299558  1
  Br  Br10  1  0.00163457  0.75367604  0.66881041  1
  Br  Br11  1  0.01155644  0.16713354  0.91158048  1
  Br  Br12  1  0.99836543  0.24632396  0.33118959  1
  Br  Br13  1  0.31939460  0.15091676  0.40152416  1
  Br  Br14  1  0.32440308  0.07908905  0.97130372  1
  Br  Br15  1  0.01493211  0.41628149  0.74199080  1
  Br  Br16  1  0.98844356  0.83286646  0.08841952  1
  Br  Br17  1  0.31874054  0.90872321  0.57264906  1
loop_
_geom_bond_atom_site_label_1
_geom_bond_atom_site_label_2
_geom_bond_distance
_geom_bond_site_symmetry_2
Br0 Na0 2.831334 1_555
Br0 Nb1 2.878186 1_555
Br0 Rb1 3.466906 1_555
Br0 Rb0 3.499779 1_555
Br1 Na0 2.856623 1_565
Br1 Nb2 2.905287 1_555
Br1 Na1 2.929088 1_554
Br1 Rb1 3.551923 1_554
Br2 Nb5 2.625201 1_555
Br2 Nb4 2.628803 1_555
Br2 Rb1 3.890993 1_555
Br2 Rb0 4.071478 1_556
Br3 Nb2 2.625201 1_555
Br3 Nb1 2.628803 1_555
Br3 Rb0 3.890993 1_555
Br3 Rb1 4.071478 1_554
Br4 Na1 2.785096 1_554
Br4 Nb0 2.826646 1_555
Br4 Rb0 3.401588 1_555
Br5 Nb2 2.600127 1_545
Br5 Nb3 2.606769 1_555
Br5 Rb1 4.076031 1_555
Br6 Na1 2.831334 1_555
Br6 Nb4 2.878186 1_555
Br6 Rb0 3.466906 1_555
Br6 Rb1 3.499779 1_555
Br7 Nb1 2.614953 1_555
Br7 Nb0 2.616515 1_655
Br7 Rb0 3.951118 1_655
Br8 Nb1 2.621369 1_555
Br8 Nb3 2.623351 1_565
Br8 Rb0 3.964359 1_555
Br8 Rb1 4.023735 1_555
Br9 Na0 2.785096 1_556
Br9 Nb3 2.826646 1_555
Br9 Rb1 3.401588 1_555
Br10 Nb5 2.619518 1_565
Br10 Nb1 2.622456 1_455
Br10 Rb1 3.824285 1_455
Br11 Nb5 2.625586 1_555
Br11 Nb3 2.626857 1_455
Br11 Rb0 3.690067 1_556
Br12 Nb2 2.619518 1_545
Br12 Nb4 2.622456 1_655
Br12 Rb0 3.824285 1_655
Br13 Nb4 2.621369 1_555
Br13 Nb0 2.623351 1_545
Br13 Rb1 3.964359 1_555
Br13 Rb0 4.023735 1_555
Br14 Na1 2.856623 1_545
Br14 Nb5 2.905287 1_555
Br14 Na0 2.929088 1_556
Br14 Rb0 3.551923 1_556
Br15 Nb4 2.614953 1_555
Br15 Nb3 2.616515 1_455
Br15 Rb1 3.951118 1_455
Br16 Nb2 2.625586 1_555
Br16 Nb0 2.626857 1_655
Br16 Rb1 3.690067 1_554
Br17 Nb5 2.600127 1_565
Br17 Nb0 2.606769 1_555
Br17 Rb0 4.076031 1_555
