# generated using pymatgen
data_Ba2Be4AsP3
_symmetry_space_group_name_H-M   'P 1'
_cell_length_a   7.04792786
_cell_length_b   7.04792854
_cell_length_c   5.36711296
_cell_angle_alpha   90.00000000
_cell_angle_beta   90.00000000
_cell_angle_gamma   135.26586006
_symmetry_Int_Tables_number   1
_chemical_formula_structural   Ba2Be4AsP3
_chemical_formula_sum   'Ba2 Be4 As1 P3'
_cell_volume   187.63943487
_cell_formula_units_Z   1
loop_
 _symmetry_equiv_pos_site_id
 _symmetry_equiv_pos_as_xyz
  1  'x, y, z'
loop_
 _atom_site_type_symbol
 _atom_site_label
 _atom_site_symmetry_multiplicity
 _atom_site_fract_x
 _atom_site_fract_y
 _atom_site_fract_z
 _atom_site_occupancy
  Ba  Ba0  1  0.49558353  0.50441647  0.50000000  1
  Ba  Ba1  1  0.99732455  0.00267545  0.00000000  1
  Be  Be0  1  0.50503923  0.00494017  0.24463909  1
  Be  Be1  1  0.99505983  0.49496077  0.75536091  1
  Be  Be2  1  0.99505983  0.49496077  0.24463909  1
  Be  Be3  1  0.50503923  0.00494017  0.75536091  1
  As  As0  1  0.14978142  0.85021858  0.50000000  1
  P  P0  1  0.65470885  0.34529115  0.00000000  1
  P  P1  1  0.34457019  0.65542981  0.00000000  1
  P  P2  1  0.84373434  0.15626566  0.50000000  1
loop_
_geom_bond_atom_site_label_1
_geom_bond_atom_site_label_2
_geom_bond_distance
_geom_bond_site_symmetry_2
Ba0 P1 3.328140 1_556
Ba0 P1 3.328140 1_555
Ba0 P2 3.333352 1_455
Ba0 P2 3.333353 1_565
Ba0 P0 3.391756 1_556
Ba0 P0 3.391756 1_555
Ba1 P1 3.340372 1_545
Ba1 P1 3.340373 1_655
Ba1 P2 3.348117 1_555
Ba1 P2 3.348117 1_554
Ba1 P0 3.376697 1_655
Ba1 P0 3.376697 1_545
Be0 P0 2.235120 1_555
Be0 P2 2.257654 1_555
Be0 P1 2.261167 1_545
Be1 P0 2.235120 1_556
Be1 P2 2.257655 1_555
Be1 P1 2.261167 1_656
Be2 P0 2.235120 1_555
Be2 P2 2.257655 1_555
Be2 P1 2.261167 1_655
Be3 P0 2.235120 1_556
Be3 P2 2.257654 1_555
Be3 P1 2.261167 1_546
As0 Be3 2.336136 1_565
As0 Be0 2.336136 1_565
As0 Be1 2.336137 1_455
As0 Be2 2.336137 1_455
As0 Ba1 3.339304 1_465
As0 Ba1 3.339304 1_466
As0 Ba0 3.351623 1_455
As0 Ba0 3.351624 1_565
