# generated using pymatgen
data_LiFe2AgBr8
_symmetry_space_group_name_H-M   'P 1'
_cell_length_a   6.01699548
_cell_length_b   6.01699548
_cell_length_c   10.87389255
_cell_angle_alpha   90.00000000
_cell_angle_beta   90.00000000
_cell_angle_gamma   90.00000000
_symmetry_Int_Tables_number   1
_chemical_formula_structural   LiFe2AgBr8
_chemical_formula_sum   'Li1 Fe2 Ag1 Br8'
_cell_volume   393.68095649
_cell_formula_units_Z   1
loop_
 _symmetry_equiv_pos_site_id
 _symmetry_equiv_pos_as_xyz
  1  'x, y, z'
loop_
 _atom_site_type_symbol
 _atom_site_label
 _atom_site_symmetry_multiplicity
 _atom_site_fract_x
 _atom_site_fract_y
 _atom_site_fract_z
 _atom_site_occupancy
  Li  Li0  1  0.00000000  0.00000000  0.00000000  1
  Fe  Fe0  1  0.00000000  0.50000000  0.24586062  1
  Fe  Fe1  1  0.50000000  0.00000000  0.75413938  1
  Ag  Ag0  1  0.00000000  0.00000000  0.50000000  1
  Br  Br0  1  0.22959302  0.27145562  0.12513630  1
  Br  Br1  1  0.77040698  0.72854538  0.12513630  1
  Br  Br2  1  0.27145562  0.77040698  0.87486370  1
  Br  Br3  1  0.75699866  0.28665944  0.36742492  1
  Br  Br4  1  0.72854538  0.22959302  0.87486370  1
  Br  Br5  1  0.24300134  0.71334156  0.36742492  1
  Br  Br6  1  0.71334156  0.75699866  0.63257508  1
  Br  Br7  1  0.28665944  0.24300134  0.63257508  1
loop_
_geom_bond_atom_site_label_1
_geom_bond_atom_site_label_2
_geom_bond_distance
_geom_bond_site_symmetry_2
Ag0 Br6 2.681621 1_445
Ag0 Br5 2.681621 1_545
Ag0 Br7 2.681625 1_555
Ag0 Br3 2.681625 1_455
Br0 Fe0 2.350057 1_555
Br0 Li0 2.535313 1_555
Br1 Fe0 2.350060 1_655
Br1 Li0 2.535309 1_665
Br2 Fe1 2.350057 1_565
Br2 Li0 2.535313 1_566
Br3 Fe0 2.352236 1_655
Br4 Fe1 2.350060 1_555
Br4 Li0 2.535309 1_656
Br5 Fe0 2.352239 1_555
Br6 Fe1 2.352239 1_565
Br7 Fe1 2.352236 1_555
