# generated using pymatgen
data_NaSr4Sb2As
_symmetry_space_group_name_H-M   'P 1'
_cell_length_a   8.48503832
_cell_length_b   9.81654435
_cell_length_c   13.09935124
_cell_angle_alpha   90.00000000
_cell_angle_beta   90.00000000
_cell_angle_gamma   90.00000000
_symmetry_Int_Tables_number   1
_chemical_formula_structural   NaSr4Sb2As
_chemical_formula_sum   'Na4 Sr16 Sb8 As4'
_cell_volume   1091.09415258
_cell_formula_units_Z   4
loop_
 _symmetry_equiv_pos_site_id
 _symmetry_equiv_pos_as_xyz
  1  'x, y, z'
loop_
 _atom_site_type_symbol
 _atom_site_label
 _atom_site_symmetry_multiplicity
 _atom_site_fract_x
 _atom_site_fract_y
 _atom_site_fract_z
 _atom_site_occupancy
  Na  Na0  1  0.00662078  0.75000000  0.49973907  1
  Na  Na1  1  0.99337922  0.25000000  0.50026093  1
  Na  Na2  1  0.50662078  0.25000000  0.00026093  1
  Na  Na3  1  0.49337922  0.75000000  0.99973907  1
  Sr  Sr0  1  0.84516729  0.75000000  0.79277287  1
  Sr  Sr1  1  0.15483271  0.25000000  0.20722713  1
  Sr  Sr2  1  0.34516729  0.25000000  0.70722713  1
  Sr  Sr3  1  0.65483271  0.75000000  0.29277287  1
  Sr  Sr4  1  0.70318397  0.50287384  0.56232689  1
  Sr  Sr5  1  0.29681603  0.49712616  0.43767311  1
  Sr  Sr6  1  0.20318397  0.49712616  0.93767311  1
  Sr  Sr7  1  0.29681603  0.00287384  0.43767311  1
  Sr  Sr8  1  0.79681603  0.50287384  0.06232689  1
  Sr  Sr9  1  0.70318397  0.99712616  0.56232689  1
  Sr  Sr10  1  0.79681603  0.99712616  0.06232689  1
  Sr  Sr11  1  0.20318397  0.00287384  0.93767311  1
  Sr  Sr12  1  0.34189291  0.75000000  0.70834485  1
  Sr  Sr13  1  0.65810709  0.25000000  0.29165515  1
  Sr  Sr14  1  0.84189291  0.25000000  0.79165515  1
  Sr  Sr15  1  0.15810709  0.75000000  0.20834485  1
  Sb  Sb0  1  0.56574849  0.50081360  0.82961055  1
  Sb  Sb1  1  0.43425151  0.49918640  0.17038945  1
  Sb  Sb2  1  0.06574849  0.49918640  0.67038945  1
  Sb  Sb3  1  0.43425151  0.00081360  0.17038945  1
  Sb  Sb4  1  0.93425151  0.50081360  0.32961055  1
  Sb  Sb5  1  0.56574849  0.99918640  0.82961055  1
  Sb  Sb6  1  0.93425151  0.99918640  0.32961055  1
  Sb  Sb7  1  0.06574849  0.00081360  0.67038945  1
  As  As0  1  0.00598573  0.75000000  0.99880937  1
  As  As1  1  0.99401427  0.25000000  0.00119063  1
  As  As2  1  0.50598573  0.25000000  0.50119063  1
  As  As3  1  0.49401427  0.75000000  0.49880937  1
loop_
_geom_bond_atom_site_label_1
_geom_bond_atom_site_label_2
_geom_bond_distance
_geom_bond_site_symmetry_2
Na0 Sb7 3.363154 1_565
Na0 Sb2 3.363154 1_555
Na0 Sb6 3.365598 1_455
Na0 Sb4 3.365598 1_455
Na1 Sb4 3.363154 1_555
Na1 Sb6 3.363154 1_545
Na1 Sb2 3.365598 1_655
Na1 Sb7 3.365598 1_655
Na2 Sb0 3.363154 1_554
Na2 Sb5 3.363154 1_544
Na2 Sb1 3.365598 1_555
Na2 Sb3 3.365598 1_555
Na3 Sb3 3.363154 1_566
Na3 Sb1 3.363154 1_556
Na3 Sb5 3.365598 1_555
Na3 Sb0 3.365598 1_555
Sb0 Sr6 3.386616 1_555
Sb0 Sr14 3.435018 1_555
Sb0 Sr0 3.440577 1_555
Sb0 Sr12 3.480631 1_555
Sb0 Sr2 3.483555 1_555
Sb0 Sr8 3.624551 1_556
Sb0 Sr4 3.690393 1_555
Sb1 Sr8 3.386616 1_555
Sb1 Sr15 3.435018 1_555
Sb1 Sr1 3.440577 1_555
Sb1 Sr13 3.480631 1_555
Sb1 Sr3 3.483555 1_555
Sb1 Sr6 3.624551 1_554
Sb1 Sr5 3.690393 1_555
Sb2 Sr4 3.386616 1_455
Sb2 Sr12 3.435018 1_555
Sb2 Sr2 3.440577 1_555
Sb2 Sr14 3.480631 1_455
Sb2 Sr0 3.483555 1_455
Sb2 Sr5 3.624551 1_555
Sb2 Sr6 3.690393 1_555
Sb3 Sr10 3.386616 1_545
Sb3 Sr15 3.435018 1_545
Sb3 Sr1 3.440577 1_555
Sb3 Sr13 3.480631 1_555
Sb3 Sr3 3.483555 1_545
Sb3 Sr11 3.624551 1_554
Sb3 Sr7 3.690393 1_555
Sb4 Sr5 3.386616 1_655
Sb4 Sr13 3.435018 1_555
Sb4 Sr3 3.440577 1_555
Sb4 Sr15 3.480631 1_655
Sb4 Sr1 3.483555 1_655
Sb4 Sr4 3.624551 1_555
Sb4 Sr8 3.690393 1_555
Sb5 Sr11 3.386616 1_565
Sb5 Sr14 3.435018 1_565
Sb5 Sr0 3.440577 1_555
Sb5 Sr12 3.480631 1_555
Sb5 Sr2 3.483555 1_565
Sb5 Sr10 3.624551 1_556
Sb5 Sr9 3.690393 1_555
Sb6 Sr7 3.386616 1_665
Sb6 Sr13 3.435018 1_565
Sb6 Sr3 3.440577 1_555
Sb6 Sr15 3.480631 1_655
Sb6 Sr1 3.483555 1_665
Sb6 Sr9 3.624551 1_555
Sb6 Sr10 3.690393 1_555
Sb7 Sr9 3.386616 1_445
Sb7 Sr12 3.435018 1_545
Sb7 Sr2 3.440577 1_555
Sb7 Sr14 3.480631 1_455
Sb7 Sr0 3.483555 1_445
Sb7 Sr7 3.624551 1_555
Sb7 Sr11 3.690393 1_555
As0 Sr0 3.024285 1_455
As0 Sr15 3.033127 1_556
As0 Sr11 3.098889 1_565
As0 Sr6 3.098889 1_555
As0 Sr10 3.118872 1_456
As0 Sr8 3.118872 1_456
As1 Sr1 3.024285 1_655
As1 Sr14 3.033127 1_554
As1 Sr8 3.098889 1_555
As1 Sr10 3.098889 1_545
As1 Sr6 3.118872 1_654
As1 Sr11 3.118872 1_654
As2 Sr2 3.024285 1_555
As2 Sr13 3.033127 1_555
As2 Sr4 3.098889 1_555
As2 Sr9 3.098889 1_545
As2 Sr5 3.118872 1_555
As2 Sr7 3.118872 1_555
As3 Sr3 3.024285 1_555
As3 Sr12 3.033127 1_555
As3 Sr7 3.098889 1_565
As3 Sr5 3.098889 1_555
As3 Sr9 3.118872 1_555
As3 Sr4 3.118872 1_555
