# generated using pymatgen
data_ZrSc(Al3Ni)6
_symmetry_space_group_name_H-M   'P 1'
_cell_length_a   9.88488025
_cell_length_b   9.88488074
_cell_length_c   9.88488081
_cell_angle_alpha   42.52856944
_cell_angle_beta   42.52857223
_cell_angle_gamma   42.52857058
_symmetry_Int_Tables_number   1
_chemical_formula_structural   ZrSc(Al3Ni)6
_chemical_formula_sum   'Zr1 Sc1 Al18 Ni6'
_cell_volume   399.62981645
_cell_formula_units_Z   1
loop_
 _symmetry_equiv_pos_site_id
 _symmetry_equiv_pos_as_xyz
  1  'x, y, z'
loop_
 _atom_site_type_symbol
 _atom_site_label
 _atom_site_symmetry_multiplicity
 _atom_site_fract_x
 _atom_site_fract_y
 _atom_site_fract_z
 _atom_site_occupancy
  Zr  Zr0  1  0.16705582  0.16705582  0.16705582  1
  Sc  Sc0  1  0.83284227  0.83284227  0.83284227  1
  Al  Al0  1  0.10182392  0.43583242  0.76811089  1
  Al  Al1  1  0.43583242  0.76811089  0.10182392  1
  Al  Al2  1  0.56552221  0.89715190  0.23148181  1
  Al  Al3  1  0.94668261  0.94668261  0.94668261  1
  Al  Al4  1  0.05298960  0.05298960  0.05298960  1
  Al  Al5  1  0.28672890  0.71512941  0.49815147  1
  Al  Al6  1  0.89715190  0.23148181  0.56552221  1
  Al  Al7  1  0.38887766  0.38887766  0.38887766  1
  Al  Al8  1  0.49815147  0.28672890  0.71512941  1
  Al  Al9  1  0.23148181  0.56552221  0.89715190  1
  Al  Al10  1  0.71929879  0.71929879  0.71929879  1
  Al  Al11  1  0.61155756  0.61155756  0.61155756  1
  Al  Al12  1  0.33367453  0.00074405  0.66560924  1
  Al  Al13  1  0.71512941  0.49815147  0.28672890  1
  Al  Al14  1  0.66560924  0.33367453  0.00074405  1
  Al  Al15  1  0.28070387  0.28070387  0.28070387  1
  Al  Al16  1  0.00074405  0.66560924  0.33367453  1
  Al  Al17  1  0.76811089  0.10182392  0.43583242  1
  Ni  Ni0  1  0.41823256  0.07913762  0.75926711  1
  Ni  Ni1  1  0.58078817  0.24104170  0.92156192  1
  Ni  Ni2  1  0.07913762  0.75926711  0.41823256  1
  Ni  Ni3  1  0.75926711  0.41823256  0.07913762  1
  Ni  Ni4  1  0.92156192  0.58078817  0.24104170  1
  Ni  Ni5  1  0.24104170  0.92156192  0.58078817  1
loop_
_geom_bond_atom_site_label_1
_geom_bond_atom_site_label_2
_geom_bond_distance
_geom_bond_site_symmetry_2
Al0 Ni3 2.384220 1_456
Al0 Ni0 2.453459 1_555
Al0 Ni2 2.454065 1_555
Al0 Al7 2.695415 1_555
Al0 Al8 2.719902 1_555
Al0 Al10 2.731709 1_455
Al0 Al4 2.732474 1_556
Al0 Al5 2.733855 1_555
Al0 Sc0 2.948604 1_455
Al0 Zr0 2.967574 1_556
Al1 Ni0 2.384220 1_564
Al1 Ni2 2.453459 1_555
Al1 Ni3 2.454065 1_555
Al1 Al7 2.695414 1_555
Al1 Al5 2.719903 1_555
Al1 Al10 2.731709 1_554
Al1 Al4 2.732474 1_565
Al1 Al13 2.733854 1_555
Al1 Sc0 2.948604 1_554
Al1 Zr0 2.967574 1_565
Al2 Ni1 2.385192 1_564
Al2 Ni4 2.451085 1_555
Al2 Ni5 2.456096 1_555
Al2 Al5 2.718727 1_555
Al2 Al3 2.723025 1_554
Al2 Zr0 2.956715 1_565
Al2 Sc0 2.963704 1_554
Al3 Ni1 2.521367 1_565
Al3 Ni4 2.521367 1_556
Al3 Ni5 2.521367 1_655
Al3 Al6 2.723025 1_565
Al3 Al9 2.723026 1_655
Al3 Al4 2.862749 1_666
Al3 Sc0 3.065615 1_555
Al4 Ni2 2.520108 1_545
Al4 Ni0 2.520108 1_554
Al4 Ni3 2.520108 1_455
Al4 Zr0 3.071698 1_555
Al5 Ni2 2.363666 1_555
Al5 Ni5 2.364287 1_555
Al5 Al8 2.660151 1_555
Al5 Al9 2.731297 1_555
Al5 Zr0 2.904420 1_565
Al5 Sc0 2.920774 1_455
Al6 Ni5 2.385192 1_645
Al6 Ni1 2.451085 1_555
Al6 Ni4 2.456096 1_555
Al6 Al8 2.731297 1_555
Al6 Zr0 2.956715 1_655
Al6 Sc0 2.963704 1_545
Al7 Ni0 2.568602 1_555
Al7 Ni3 2.568602 1_555
Al7 Ni2 2.568602 1_555
Al8 Ni0 2.363667 1_555
Al8 Ni1 2.364287 1_555
Al8 Al9 2.718727 1_555
Al8 Zr0 2.904420 1_556
Al8 Sc0 2.920774 1_545
Al9 Ni4 2.385192 1_456
Al9 Ni5 2.451085 1_555
Al9 Ni1 2.456096 1_555
Al9 Zr0 2.956715 1_556
Al9 Sc0 2.963704 1_455
Al10 Ni3 2.530050 1_556
Al10 Ni2 2.530050 1_655
Al10 Ni0 2.530050 1_565
Al10 Al17 2.731709 1_565
Al10 Al12 2.779754 1_565
Al10 Al14 2.779754 1_556
Al10 Al16 2.779754 1_655
Al10 Al11 2.901372 1_555
Al10 Sc0 3.057621 1_555
Al11 Ni5 2.573554 1_555
Al11 Ni1 2.573554 1_555
Al11 Ni4 2.573555 1_555
Al11 Al9 2.699234 1_555
Al11 Al2 2.699234 1_555
Al11 Al6 2.699234 1_555
Al11 Al16 2.814606 1_655
Al11 Al14 2.814606 1_556
Al11 Al12 2.814606 1_565
Al12 Ni0 2.304076 1_555
Al12 Ni5 2.304166 1_545
Al12 Al15 2.773170 1_555
Al12 Al4 2.787736 1_556
Al12 Al3 2.792520 1_445
Al12 Al7 2.813836 1_555
Al13 Ni3 2.363667 1_555
Al13 Ni4 2.364287 1_555
Al13 Al5 2.660151 1_555
Al13 Al8 2.660151 1_555
Al13 Al6 2.718727 1_555
Al13 Al17 2.719902 1_555
Al13 Al2 2.731297 1_555
Al13 Zr0 2.904420 1_655
Al13 Sc0 2.920774 1_554
Al14 Ni3 2.304076 1_555
Al14 Ni1 2.304166 1_554
Al14 Al15 2.773170 1_555
Al14 Al4 2.787735 1_655
Al14 Al3 2.792520 1_544
Al14 Al7 2.813836 1_555
Al15 Ni4 2.524317 1_455
Al15 Ni5 2.524317 1_545
Al15 Ni1 2.524317 1_554
Al15 Al6 2.739533 1_455
Al15 Al9 2.739533 1_554
Al15 Al2 2.739533 1_545
Al15 Al16 2.773170 1_555
Al15 Al7 2.913020 1_555
Al15 Zr0 3.060437 1_555
Al16 Ni2 2.304076 1_555
Al16 Ni4 2.304166 1_455
Al16 Al4 2.787736 1_565
Al16 Al3 2.792520 1_454
Al16 Al7 2.813836 1_555
Al17 Ni2 2.384220 1_645
Al17 Ni3 2.453459 1_555
Al17 Ni0 2.454065 1_555
Al17 Al7 2.695414 1_555
Al17 Al4 2.732475 1_655
Al17 Al8 2.733855 1_555
Al17 Sc0 2.948604 1_545
Al17 Zr0 2.967574 1_655
Ni0 Sc0 3.214040 1_545
Ni0 Zr0 3.224952 1_556
Ni1 Zr0 3.211615 1_556
Ni1 Sc0 3.230436 1_545
Ni2 Sc0 3.214041 1_455
Ni2 Zr0 3.224952 1_565
Ni3 Sc0 3.214040 1_554
Ni3 Zr0 3.224952 1_655
Ni4 Zr0 3.211615 1_655
Ni4 Sc0 3.230436 1_554
Ni5 Zr0 3.211615 1_565
Ni5 Sc0 3.230435 1_455
