# generated using pymatgen
data_Hf4HgPd
_symmetry_space_group_name_H-M   'P 1'
_cell_length_a   6.49913032
_cell_length_b   6.49913032
_cell_length_c   23.09563837
_cell_angle_alpha   90.00000000
_cell_angle_beta   90.00000000
_cell_angle_gamma   90.00000000
_symmetry_Int_Tables_number   1
_chemical_formula_structural   Hf4HgPd
_chemical_formula_sum   'Hf32 Hg8 Pd8'
_cell_volume   975.52962217
_cell_formula_units_Z   8
loop_
 _symmetry_equiv_pos_site_id
 _symmetry_equiv_pos_as_xyz
  1  'x, y, z'
loop_
 _atom_site_type_symbol
 _atom_site_label
 _atom_site_symmetry_multiplicity
 _atom_site_fract_x
 _atom_site_fract_y
 _atom_site_fract_z
 _atom_site_occupancy
  Hf  Hf0_0  1  0.25000000  0.25000000  0.08726316  1
  Hf  Hf0_1  1  0.25000000  0.25000000  0.58726316  1
  Hf  Hf0_2  1  0.25000000  0.75000000  0.08726316  1
  Hf  Hf0_3  1  0.25000000  0.75000000  0.58726316  1
  Hf  Hf0_4  1  0.75000000  0.25000000  0.08726316  1
  Hf  Hf0_5  1  0.75000000  0.25000000  0.58726316  1
  Hf  Hf0_6  1  0.75000000  0.75000000  0.08726316  1
  Hf  Hf0_7  1  0.75000000  0.75000000  0.58726316  1
  Hf  Hf1_0  1  0.00000000  0.00000000  0.32496522  1
  Hf  Hf1_1  1  0.00000000  0.00000000  0.82496522  1
  Hf  Hf1_2  1  0.00000000  0.50000000  0.32496522  1
  Hf  Hf1_3  1  0.00000000  0.50000000  0.82496522  1
  Hf  Hf1_4  1  0.50000000  0.00000000  0.32496522  1
  Hf  Hf1_5  1  0.50000000  0.00000000  0.82496522  1
  Hf  Hf1_6  1  0.50000000  0.50000000  0.32496522  1
  Hf  Hf1_7  1  0.50000000  0.50000000  0.82496522  1
  Hf  Hf2_0  1  0.00000000  0.00000000  0.17503478  1
  Hf  Hf2_1  1  0.00000000  0.00000000  0.67503478  1
  Hf  Hf2_2  1  0.00000000  0.50000000  0.17503478  1
  Hf  Hf2_3  1  0.00000000  0.50000000  0.67503478  1
  Hf  Hf2_4  1  0.50000000  0.00000000  0.17503478  1
  Hf  Hf2_5  1  0.50000000  0.00000000  0.67503478  1
  Hf  Hf2_6  1  0.50000000  0.50000000  0.17503478  1
  Hf  Hf2_7  1  0.50000000  0.50000000  0.67503478  1
  Hf  Hf3_0  1  0.25000000  0.25000000  0.41273684  1
  Hf  Hf3_1  1  0.25000000  0.25000000  0.91273684  1
  Hf  Hf3_2  1  0.25000000  0.75000000  0.41273684  1
  Hf  Hf3_3  1  0.25000000  0.75000000  0.91273684  1
  Hf  Hf3_4  1  0.75000000  0.25000000  0.41273684  1
  Hf  Hf3_5  1  0.75000000  0.25000000  0.91273684  1
  Hf  Hf3_6  1  0.75000000  0.75000000  0.41273684  1
  Hf  Hf3_7  1  0.75000000  0.75000000  0.91273684  1
  Hg  Hg0_0  1  0.00000000  0.00000000  0.00000000  1
  Hg  Hg0_1  1  0.00000000  0.00000000  0.50000000  1
  Hg  Hg0_2  1  0.00000000  0.50000000  0.00000000  1
  Hg  Hg0_3  1  0.00000000  0.50000000  0.50000000  1
  Hg  Hg0_4  1  0.50000000  0.00000000  0.00000000  1
  Hg  Hg0_5  1  0.50000000  0.00000000  0.50000000  1
  Hg  Hg0_6  1  0.50000000  0.50000000  0.00000000  1
  Hg  Hg0_7  1  0.50000000  0.50000000  0.50000000  1
  Pd  Pd0_0  1  0.25000000  0.25000000  0.25000000  1
  Pd  Pd0_1  1  0.25000000  0.25000000  0.75000000  1
  Pd  Pd0_2  1  0.25000000  0.75000000  0.25000000  1
  Pd  Pd0_3  1  0.25000000  0.75000000  0.75000000  1
  Pd  Pd0_4  1  0.75000000  0.25000000  0.25000000  1
  Pd  Pd0_5  1  0.75000000  0.25000000  0.75000000  1
  Pd  Pd0_6  1  0.75000000  0.75000000  0.25000000  1
  Pd  Pd0_7  1  0.75000000  0.75000000  0.75000000  1
loop_
_geom_bond_atom_site_label_1
_geom_bond_atom_site_label_2
_geom_bond_distance
_geom_bond_site_symmetry_2
Hf0_0 Hg0_4 3.056414 1_555
Hf0_0 Hg0_2 3.056414 1_555
Hf0_0 Hg0_6 3.056414 1_555
Hf0_0 Hg0_0 3.056414 1_555
Hf0_0 Hf2_0 3.064170 1_555
Hf0_0 Hf2_4 3.064170 1_555
Hf0_0 Hf2_2 3.064170 1_555
Hf0_0 Hf2_6 3.064170 1_555
Hf0_0 Hf0_4 3.249565 1_555
Hf0_0 Hf0_2 3.249565 1_555
Hf0_0 Hf0_2 3.249565 1_545
Hf0_0 Hf0_4 3.249565 1_455
Hf0_1 Hg0_3 3.056414 1_555
Hf0_1 Hg0_7 3.056414 1_555
Hf0_1 Hg0_1 3.056414 1_555
Hf0_1 Hg0_5 3.056414 1_555
Hf0_1 Hf2_3 3.064170 1_555
Hf0_1 Hf2_7 3.064170 1_555
Hf0_1 Hf2_1 3.064170 1_555
Hf0_1 Hf2_5 3.064170 1_555
Hf0_1 Hf0_5 3.249565 1_555
Hf0_1 Hf0_3 3.249565 1_555
Hf0_1 Hf0_3 3.249565 1_545
Hf0_1 Hf0_5 3.249565 1_455
Hf0_2 Hg0_2 3.056414 1_555
Hf0_2 Hg0_6 3.056414 1_555
Hf0_2 Hg0_4 3.056414 1_565
Hf0_2 Hg0_0 3.056414 1_565
Hf0_2 Hf2_2 3.064170 1_555
Hf0_2 Hf2_6 3.064170 1_555
Hf0_2 Hf2_0 3.064170 1_565
Hf0_2 Hf2_4 3.064170 1_565
Hf0_2 Hf0_6 3.249565 1_555
Hf0_2 Hf0_6 3.249565 1_455
Hf0_3 Hg0_7 3.056414 1_555
Hf0_3 Hg0_3 3.056414 1_555
Hf0_3 Hg0_1 3.056414 1_565
Hf0_3 Hg0_5 3.056414 1_565
Hf0_3 Hf2_3 3.064170 1_555
Hf0_3 Hf2_7 3.064170 1_555
Hf0_3 Hf2_1 3.064170 1_565
Hf0_3 Hf2_5 3.064170 1_565
Hf0_3 Hf0_7 3.249565 1_555
Hf0_3 Hf0_7 3.249565 1_455
Hf0_4 Hg0_4 3.056414 1_555
Hf0_4 Hg0_6 3.056414 1_555
Hf0_4 Hg0_2 3.056414 1_655
Hf0_4 Hg0_0 3.056414 1_655
Hf0_4 Hf2_6 3.064170 1_555
Hf0_4 Hf2_4 3.064170 1_555
Hf0_4 Hf2_2 3.064170 1_655
Hf0_4 Hf2_0 3.064170 1_655
Hf0_4 Hf0_6 3.249565 1_555
Hf0_4 Hf0_6 3.249565 1_545
Hf0_5 Hg0_7 3.056414 1_555
Hf0_5 Hg0_5 3.056414 1_555
Hf0_5 Hg0_3 3.056414 1_655
Hf0_5 Hg0_1 3.056414 1_655
Hf0_5 Hf2_7 3.064170 1_555
Hf0_5 Hf2_5 3.064170 1_555
Hf0_5 Hf2_3 3.064170 1_655
Hf0_5 Hf2_1 3.064170 1_655
Hf0_5 Hf0_7 3.249565 1_555
Hf0_5 Hf0_7 3.249565 1_545
Hf0_6 Hg0_6 3.056414 1_555
Hf0_6 Hg0_2 3.056414 1_655
Hf0_6 Hg0_4 3.056414 1_565
Hf0_6 Hg0_0 3.056414 1_665
Hf0_6 Hf2_6 3.064170 1_555
Hf0_6 Hf2_2 3.064170 1_655
Hf0_6 Hf2_4 3.064170 1_565
Hf0_6 Hf2_0 3.064170 1_665
Hf0_7 Hg0_7 3.056414 1_555
Hf0_7 Hg0_3 3.056414 1_655
Hf0_7 Hg0_5 3.056414 1_565
Hf0_7 Hg0_1 3.056414 1_665
Hf0_7 Hf2_7 3.064170 1_555
Hf0_7 Hf2_3 3.064170 1_655
Hf0_7 Hf2_5 3.064170 1_565
Hf0_7 Hf2_1 3.064170 1_665
Hf1_0 Pd0_0 2.877061 1_555
Hf1_0 Pd0_2 2.877061 1_545
Hf1_0 Pd0_4 2.877061 1_455
Hf1_0 Pd0_6 2.877061 1_445
Hf1_0 Hf3_0 3.064170 1_555
Hf1_0 Hf3_6 3.064170 1_445
Hf1_0 Hf3_4 3.064170 1_455
Hf1_0 Hf3_2 3.064170 1_545
Hf1_1 Pd0_5 2.877061 1_455
Hf1_1 Pd0_1 2.877061 1_555
Hf1_1 Pd0_3 2.877061 1_545
Hf1_1 Pd0_7 2.877061 1_445
Hf1_1 Hf3_1 3.064170 1_555
Hf1_1 Hf3_3 3.064170 1_545
Hf1_1 Hf3_5 3.064170 1_455
Hf1_1 Hf3_7 3.064170 1_445
Hf1_2 Pd0_2 2.877061 1_555
Hf1_2 Pd0_0 2.877061 1_555
Hf1_2 Pd0_6 2.877061 1_455
Hf1_2 Pd0_4 2.877061 1_455
Hf1_2 Hf3_2 3.064170 1_555
Hf1_2 Hf3_0 3.064170 1_555
Hf1_2 Hf3_6 3.064170 1_455
Hf1_2 Hf3_4 3.064170 1_455
Hf1_3 Pd0_3 2.877061 1_555
Hf1_3 Pd0_7 2.877061 1_455
Hf1_3 Pd0_5 2.877061 1_455
Hf1_3 Pd0_1 2.877061 1_555
Hf1_3 Hf3_3 3.064170 1_555
Hf1_3 Hf3_1 3.064170 1_555
Hf1_3 Hf3_7 3.064170 1_455
Hf1_3 Hf3_5 3.064170 1_455
Hf1_4 Pd0_4 2.877061 1_555
Hf1_4 Pd0_0 2.877061 1_555
Hf1_4 Pd0_6 2.877061 1_545
Hf1_4 Pd0_2 2.877061 1_545
Hf1_4 Hf3_4 3.064170 1_555
Hf1_4 Hf3_0 3.064170 1_555
Hf1_4 Hf3_6 3.064170 1_545
Hf1_4 Hf3_2 3.064170 1_545
Hf1_5 Pd0_5 2.877061 1_555
Hf1_5 Pd0_7 2.877061 1_545
Hf1_5 Pd0_1 2.877061 1_555
Hf1_5 Pd0_3 2.877061 1_545
Hf1_5 Hf3_5 3.064170 1_555
Hf1_5 Hf3_1 3.064170 1_555
Hf1_5 Hf3_3 3.064170 1_545
Hf1_5 Hf3_7 3.064170 1_545
Hf1_6 Pd0_4 2.877061 1_555
Hf1_6 Pd0_2 2.877061 1_555
Hf1_6 Pd0_6 2.877061 1_555
Hf1_6 Pd0_0 2.877061 1_555
Hf1_6 Hf3_4 3.064170 1_555
Hf1_6 Hf3_2 3.064170 1_555
Hf1_6 Hf3_6 3.064170 1_555
Hf1_6 Hf3_0 3.064170 1_555
Hf1_7 Pd0_5 2.877061 1_555
Hf1_7 Pd0_3 2.877061 1_555
Hf1_7 Pd0_7 2.877061 1_555
Hf1_7 Pd0_1 2.877061 1_555
Hf1_7 Hf3_7 3.064170 1_555
Hf1_7 Hf3_5 3.064170 1_555
Hf1_7 Hf3_3 3.064170 1_555
Hf1_7 Hf3_1 3.064170 1_555
Hf2_0 Pd0_0 2.877061 1_555
Hf2_0 Pd0_2 2.877061 1_545
Hf2_0 Pd0_4 2.877061 1_455
Hf2_0 Pd0_6 2.877061 1_445
Hf2_1 Pd0_1 2.877061 1_555
Hf2_1 Pd0_5 2.877061 1_455
Hf2_1 Pd0_3 2.877061 1_545
Hf2_1 Pd0_7 2.877061 1_445
Hf2_2 Pd0_2 2.877061 1_555
Hf2_2 Pd0_0 2.877061 1_555
Hf2_2 Pd0_6 2.877061 1_455
Hf2_2 Pd0_4 2.877061 1_455
Hf2_3 Pd0_1 2.877061 1_555
Hf2_3 Pd0_3 2.877061 1_555
Hf2_3 Pd0_5 2.877061 1_455
Hf2_3 Pd0_7 2.877061 1_455
Hf2_4 Pd0_4 2.877061 1_555
Hf2_4 Pd0_0 2.877061 1_555
Hf2_4 Pd0_6 2.877061 1_545
Hf2_4 Pd0_2 2.877061 1_545
Hf2_5 Pd0_5 2.877061 1_555
Hf2_5 Pd0_1 2.877061 1_555
Hf2_5 Pd0_7 2.877061 1_545
Hf2_5 Pd0_3 2.877061 1_545
Hf2_6 Pd0_4 2.877061 1_555
Hf2_6 Pd0_2 2.877061 1_555
Hf2_6 Pd0_0 2.877061 1_555
Hf2_6 Pd0_6 2.877061 1_555
Hf2_7 Pd0_1 2.877061 1_555
Hf2_7 Pd0_5 2.877061 1_555
Hf2_7 Pd0_3 2.877061 1_555
Hf2_7 Pd0_7 2.877061 1_555
Hf3_0 Hg0_3 3.056414 1_555
Hf3_0 Hg0_1 3.056414 1_555
Hf3_0 Hg0_7 3.056414 1_555
Hf3_0 Hg0_5 3.056414 1_555
Hf3_0 Hf3_2 3.249565 1_555
Hf3_0 Hf3_4 3.249565 1_555
Hf3_0 Hf3_2 3.249565 1_545
Hf3_0 Hf3_4 3.249565 1_455
Hf3_1 Hg0_2 3.056414 1_556
Hf3_1 Hg0_6 3.056414 1_556
Hf3_1 Hg0_0 3.056414 1_556
Hf3_1 Hg0_4 3.056414 1_556
Hf3_1 Hf3_5 3.249565 1_555
Hf3_1 Hf3_3 3.249565 1_555
Hf3_1 Hf3_5 3.249565 1_455
Hf3_1 Hf3_3 3.249565 1_545
Hf3_2 Hg0_3 3.056414 1_555
Hf3_2 Hg0_7 3.056414 1_555
Hf3_2 Hg0_5 3.056414 1_565
Hf3_2 Hg0_1 3.056414 1_565
Hf3_2 Hf3_6 3.249565 1_555
Hf3_2 Hf3_6 3.249565 1_455
Hf3_3 Hg0_2 3.056414 1_556
Hf3_3 Hg0_6 3.056414 1_556
Hf3_3 Hg0_0 3.056414 1_566
Hf3_3 Hg0_4 3.056414 1_566
Hf3_3 Hf3_7 3.249565 1_555
Hf3_3 Hf3_7 3.249565 1_455
Hf3_4 Hg0_7 3.056414 1_555
Hf3_4 Hg0_5 3.056414 1_555
Hf3_4 Hg0_3 3.056414 1_655
Hf3_4 Hg0_1 3.056414 1_655
Hf3_4 Hf3_6 3.249565 1_555
Hf3_4 Hf3_6 3.249565 1_545
Hf3_5 Hg0_6 3.056414 1_556
Hf3_5 Hg0_4 3.056414 1_556
Hf3_5 Hg0_0 3.056414 1_656
Hf3_5 Hg0_2 3.056414 1_656
Hf3_5 Hf3_7 3.249565 1_555
Hf3_5 Hf3_7 3.249565 1_545
Hf3_6 Hg0_7 3.056414 1_555
Hf3_6 Hg0_3 3.056414 1_655
Hf3_6 Hg0_5 3.056414 1_565
Hf3_6 Hg0_1 3.056414 1_665
Hf3_7 Hg0_6 3.056414 1_556
Hf3_7 Hg0_2 3.056414 1_656
Hf3_7 Hg0_4 3.056414 1_566
Hf3_7 Hg0_0 3.056414 1_666
Hg0_0 Hg0_4 3.249565 1_555
Hg0_0 Hg0_2 3.249565 1_555
Hg0_0 Hg0_4 3.249565 1_455
Hg0_0 Hg0_2 3.249565 1_545
Hg0_1 Hg0_5 3.249565 1_555
Hg0_1 Hg0_3 3.249565 1_555
Hg0_1 Hg0_3 3.249565 1_545
Hg0_1 Hg0_5 3.249565 1_455
Hg0_2 Hg0_6 3.249565 1_555
Hg0_2 Hg0_6 3.249565 1_455
Hg0_3 Hg0_7 3.249565 1_555
Hg0_3 Hg0_7 3.249565 1_455
Hg0_4 Hg0_6 3.249565 1_555
Hg0_4 Hg0_6 3.249565 1_545
Hg0_5 Hg0_7 3.249565 1_555
Hg0_5 Hg0_7 3.249565 1_545
