# generated using pymatgen
data_Rb4TiVSe6
_symmetry_space_group_name_H-M   'P 1'
_cell_length_a   7.86618864
_cell_length_b   7.86618867
_cell_length_c   10.05284245
_cell_angle_alpha   59.93923872
_cell_angle_beta   59.93923993
_cell_angle_gamma   54.80107569
_symmetry_Int_Tables_number   1
_chemical_formula_structural   Rb4TiVSe6
_chemical_formula_sum   'Rb4 Ti1 V1 Se6'
_cell_volume   419.66818980
_cell_formula_units_Z   1
loop_
 _symmetry_equiv_pos_site_id
 _symmetry_equiv_pos_as_xyz
  1  'x, y, z'
loop_
 _atom_site_type_symbol
 _atom_site_label
 _atom_site_symmetry_multiplicity
 _atom_site_fract_x
 _atom_site_fract_y
 _atom_site_fract_z
 _atom_site_occupancy
  Rb  Rb0  1  0.58681204  0.58681204  0.13524676  1
  Rb  Rb1  1  0.41601554  0.41601554  0.86192815  1
  Rb  Rb2  1  0.80272341  0.80272341  0.31866385  1
  Rb  Rb3  1  0.18862684  0.18862684  0.68677031  1
  Ti  Ti0  1  0.88710989  0.88710989  0.67404742  1
  V  V0  1  0.11534989  0.11534989  0.32364778  1
  Se  Se0  1  0.11342340  0.11342340  0.09995506  1
  Se  Se1  1  0.88636591  0.88636591  0.90814188  1
  Se  Se2  1  0.29607453  0.29607453  0.27329214  1
  Se  Se3  1  0.69960924  0.69960924  0.72796639  1
  Se  Se4  1  0.25802124  0.74986606  0.49517163  1
  Se  Se5  1  0.74986606  0.25802124  0.49517163  1
loop_
_geom_bond_atom_site_label_1
_geom_bond_atom_site_label_2
_geom_bond_distance
_geom_bond_site_symmetry_2
Rb0 Se1 3.455279 1_554
Rb0 Se3 3.459283 1_554
Rb0 Se2 3.472329 1_555
Rb0 Se5 3.588308 1_555
Rb0 Se4 3.588308 1_555
Rb0 Se0 3.635963 1_565
Rb0 Se0 3.635963 1_655
Rb1 Se3 3.388825 1_555
Rb1 Se2 3.477102 1_556
Rb1 Se0 3.489453 1_556
Rb1 Se4 3.628019 1_555
Rb1 Se5 3.628019 1_555
Rb1 Se1 3.643520 1_545
Rb1 Se1 3.643520 1_455
Rb2 Se3 3.509626 1_555
Rb2 Se0 3.591644 1_665
Rb2 Se1 3.599402 1_554
Rb2 Se2 3.656429 1_565
Rb2 Se2 3.656429 1_655
Rb2 Se5 3.921502 1_555
Rb2 Se4 3.921502 1_555
Rb3 Se1 3.489140 1_445
Rb3 Se2 3.534200 1_555
Rb3 Se3 3.656738 1_545
Rb3 Se3 3.656738 1_455
Rb3 Se0 3.665110 1_556
Se0 V0 2.264039 1_555
Se1 Ti0 2.347467 1_555
Se2 V0 2.277314 1_555
Se3 Ti0 2.355960 1_555
Se4 V0 2.398084 1_565
Se4 Ti0 2.443198 1_455
Se5 V0 2.398084 1_655
Se5 Ti0 2.443198 1_545
