# generated using pymatgen
data_Ni19Ge12
_symmetry_space_group_name_H-M   'P 1'
_cell_length_a   6.72279887
_cell_length_b   6.72279887
_cell_length_c   10.06317666
_cell_angle_alpha   89.94289440
_cell_angle_beta   89.94289440
_cell_angle_gamma   59.89043158
_symmetry_Int_Tables_number   1
_chemical_formula_structural   Ni19Ge12
_chemical_formula_sum   'Ni19 Ge12'
_cell_volume   393.44598812
_cell_formula_units_Z   1
loop_
 _symmetry_equiv_pos_site_id
 _symmetry_equiv_pos_as_xyz
  1  'x, y, z'
loop_
 _atom_site_type_symbol
 _atom_site_label
 _atom_site_symmetry_multiplicity
 _atom_site_fract_x
 _atom_site_fract_y
 _atom_site_fract_z
 _atom_site_occupancy
  Ni  Ni0  1  0.67139300  0.32860700  0.50000000  1
  Ni  Ni1  1  0.00545800  0.99854100  0.25440500  1
  Ni  Ni2  1  0.00145900  0.99454200  0.74559500  1
  Ni  Ni3  1  0.66331800  0.66787800  0.25226900  1
  Ni  Ni4  1  0.33212200  0.33668200  0.74773100  1
  Ni  Ni5  1  0.33852800  0.99760400  0.00362800  1
  Ni  Ni6  1  0.00239600  0.66147200  0.99637200  1
  Ni  Ni7  1  0.66655200  0.01469400  0.12575500  1
  Ni  Ni8  1  0.98530600  0.33344800  0.87424500  1
  Ni  Ni9  1  0.66048900  0.00156400  0.37704400  1
  Ni  Ni10  1  0.99843600  0.33951100  0.62295600  1
  Ni  Ni11  1  0.66495400  0.98105200  0.62382100  1
  Ni  Ni12  1  0.01894800  0.33504600  0.37617900  1
  Ni  Ni13  1  0.66933200  0.00239200  0.87422600  1
  Ni  Ni14  1  0.99760800  0.33066800  0.12577400  1
  Ni  Ni15  1  0.33987400  0.64868100  0.12584700  1
  Ni  Ni16  1  0.35131900  0.66012600  0.87415300  1
  Ni  Ni17  1  0.32327100  0.65351700  0.37725500  1
  Ni  Ni18  1  0.34648300  0.67672900  0.62274500  1
  Ge  Ge0  1  0.97427700  0.02572300  0.00000000  1
  Ge  Ge1  1  0.02276100  0.97723900  0.50000000  1
  Ge  Ge2  1  0.63739900  0.33180900  0.25249400  1
  Ge  Ge3  1  0.66819100  0.36260100  0.74750600  1
  Ge  Ge4  1  0.66857900  0.63139500  0.00228200  1
  Ge  Ge5  1  0.36860500  0.33142100  0.99771800  1
  Ge  Ge6  1  0.67128000  0.68026000  0.49796800  1
  Ge  Ge7  1  0.31974000  0.32872000  0.50203200  1
  Ge  Ge8  1  0.33570700  0.03589600  0.25225900  1
  Ge  Ge9  1  0.96410400  0.66429300  0.74774100  1
  Ge  Ge10  1  0.36362800  0.97151600  0.75201500  1
  Ge  Ge11  1  0.02848400  0.63637200  0.24798500  1
loop_
_geom_bond_atom_site_label_1
_geom_bond_atom_site_label_2
_geom_bond_distance
_geom_bond_site_symmetry_2
Ni0 Ni10 2.556893 1_555
Ni0 Ni9 2.556893 1_555
Ni0 Ni18 2.577904 1_555
Ni0 Ni17 2.577904 1_555
Ni0 Ni11 2.666359 1_545
Ni0 Ni12 2.666359 1_655
Ni1 Ni17 2.549673 1_555
Ni1 Ni14 2.557342 1_465
Ni1 Ni7 2.576103 1_465
Ni1 Ni12 2.615206 1_565
Ni1 Ni9 2.617070 1_465
Ni1 Ni15 2.637250 1_555
Ni2 Ni8 2.576103 1_465
Ni3 Ni9 2.563620 1_565
Ni3 Ni7 2.665045 1_565
Ni4 Ni8 2.665045 1_455
Ni5 Ni7 2.578095 1_565
Ni5 Ni8 2.655731 1_464
Ni6 Ni8 2.578095 1_455
Ni6 Ni7 2.655731 1_466
Ni7 Ni9 2.531219 1_555
Ni10 Ni12 2.486425 1_655
Ni10 Ni8 2.531219 1_555
Ni10 Ni4 2.563620 1_655
Ni10 Ni2 2.617070 1_645
Ni11 Ni9 2.486425 1_565
Ni11 Ni13 2.525133 1_565
Ni11 Ni2 2.615206 1_655
Ni11 Ni4 2.628806 1_565
Ni12 Ni14 2.525133 1_455
Ni12 Ni3 2.628806 1_455
Ni13 Ni7 2.532358 1_556
Ni13 Ni2 2.557342 1_645
Ni13 Ni6 2.574582 1_645
Ni13 Ni4 2.588187 1_555
Ni13 Ni5 2.590091 1_546
Ni14 Ni8 2.532358 1_554
Ni14 Ni5 2.574582 1_645
Ni14 Ni3 2.588187 1_555
Ni14 Ni6 2.590091 1_654
Ni15 Ni17 2.531835 1_555
Ni15 Ni16 2.536195 1_554
Ni15 Ni3 2.578913 1_555
Ni15 Ni6 2.581160 1_554
Ni15 Ni5 2.643526 1_555
Ni16 Ni18 2.531835 1_555
Ni16 Ni4 2.578913 1_555
Ni16 Ni5 2.581160 1_556
Ni16 Ni2 2.637250 1_555
Ni16 Ni6 2.643526 1_555
Ni17 Ni18 2.485477 1_555
Ni17 Ni3 2.651951 1_555
Ni18 Ni2 2.549673 1_555
Ni18 Ni4 2.651951 1_555
Ge0 Ni5 2.359945 1_645
Ge0 Ni6 2.359945 1_644
Ge0 Ni7 2.456683 1_555
Ge0 Ni8 2.456683 1_554
Ge0 Ni13 2.481450 1_554
Ge0 Ni14 2.481450 1_555
Ge0 Ni1 2.567736 1_645
Ge0 Ni2 2.567736 1_644
Ge0 Ni16 2.796245 1_644
Ge0 Ni15 2.796245 1_645
Ge1 Ni0 2.358263 1_465
Ge1 Ni17 2.435705 1_555
Ge1 Ni18 2.435705 1_555
Ge1 Ni2 2.474942 1_555
Ge1 Ni1 2.474942 1_555
Ge1 Ni10 2.663701 1_465
Ge1 Ni9 2.663701 1_465
Ge1 Ni11 2.696616 1_455
Ge1 Ni12 2.696616 1_565
Ge2 Ni3 2.351572 1_555
Ge2 Ni1 2.362325 1_645
Ge2 Ni7 2.407438 1_555
Ge2 Ni15 2.426462 1_555
Ge2 Ni17 2.476138 1_555
Ge2 Ni9 2.484603 1_555
Ge2 Ni0 2.500471 1_555
Ge2 Ni14 2.732333 1_555
Ge2 Ni12 2.862116 1_655
Ge3 Ni4 2.351572 1_555
Ge3 Ni2 2.362325 1_645
Ge3 Ni8 2.407438 1_555
Ge3 Ni16 2.426462 1_555
Ge3 Ni18 2.476138 1_555
Ge3 Ni10 2.484603 1_555
Ge3 Ni0 2.500471 1_555
Ge3 Ni13 2.732333 1_555
Ge3 Ni11 2.862116 1_545
Ge4 Ni5 2.346046 1_555
Ge4 Ni6 2.352823 1_654
Ge4 Ni16 2.416739 1_554
Ge4 Ni8 2.434476 1_554
Ge4 Ni14 2.457291 1_555
Ge4 Ni15 2.485989 1_555
Ge4 Ni3 2.526325 1_555
Ge4 Ni13 2.808490 1_564
Ge4 Ni7 2.855749 1_565
Ge5 Ni6 2.346046 1_555
Ge5 Ni5 2.352823 1_546
Ge5 Ni15 2.416739 1_556
Ge5 Ni7 2.434476 1_556
Ge5 Ni13 2.457291 1_555
Ge5 Ni16 2.485989 1_555
Ge5 Ni4 2.526325 1_555
Ge5 Ni14 2.808490 1_456
Ge5 Ni8 2.855749 1_455
Ge6 Ni0 2.363779 1_555
Ge6 Ni11 2.369313 1_555
Ge6 Ni9 2.447374 1_565
Ge6 Ni3 2.475532 1_555
Ge6 Ni18 2.528157 1_555
Ge6 Ni10 2.571344 1_555
Ge6 Ni12 2.628451 1_655
Ge6 Ni17 2.722092 1_555
Ge7 Ni0 2.363779 1_555
Ge7 Ni12 2.369313 1_555
Ge7 Ni10 2.447374 1_455
Ge7 Ni4 2.475532 1_555
Ge7 Ni17 2.528157 1_555
Ge7 Ni9 2.571344 1_555
Ge7 Ni11 2.628451 1_545
Ge7 Ni18 2.722092 1_555
Ge8 Ni3 2.346250 1_545
Ge8 Ni1 2.356291 1_545
Ge8 Ni12 2.416056 1_555
Ge8 Ni9 2.428339 1_555
Ge8 Ni14 2.489001 1_455
Ge8 Ni7 2.502928 1_555
Ge8 Ni5 2.514560 1_545
Ge8 Ni15 2.885982 1_545
Ge8 Ni17 2.899387 1_545
Ge9 Ni4 2.346250 1_655
Ge9 Ni2 2.356291 1_655
Ge9 Ni11 2.416056 1_555
Ge9 Ni10 2.428339 1_555
Ge9 Ni13 2.489001 1_565
Ge9 Ni8 2.502928 1_555
Ge9 Ni6 2.514560 1_655
Ge9 Ni16 2.885982 1_655
Ge9 Ni18 2.899387 1_655
Ge10 Ni4 2.356173 1_565
Ge10 Ni2 2.361880 1_555
Ge10 Ni18 2.422327 1_555
Ge10 Ni11 2.428356 1_555
Ge10 Ni16 2.463407 1_555
Ge10 Ni13 2.492574 1_565
Ge10 Ni5 2.537859 1_556
Ge10 Ni8 2.773605 1_465
Ge10 Ni10 2.782225 1_465
Ge11 Ni3 2.356173 1_455
Ge11 Ni1 2.361880 1_555
Ge11 Ni17 2.422327 1_555
Ge11 Ni12 2.428356 1_555
Ge11 Ni15 2.463407 1_555
Ge11 Ni14 2.492574 1_455
Ge11 Ni6 2.537859 1_554
Ge11 Ni7 2.773605 1_465
Ge11 Ni9 2.782225 1_465
