# generated using pymatgen
data_Sc6Nb5Ga11Os7
_symmetry_space_group_name_H-M   'P 1'
_cell_length_a   8.89572728
_cell_length_b   8.89572597
_cell_length_c   8.83593814
_cell_angle_alpha   59.77590754
_cell_angle_beta   59.77591079
_cell_angle_gamma   59.99999790
_symmetry_Int_Tables_number   1
_chemical_formula_structural   Sc6Nb5Ga11Os7
_chemical_formula_sum   'Sc6 Nb5 Ga11 Os7'
_cell_volume   492.74380332
_cell_formula_units_Z   1
loop_
 _symmetry_equiv_pos_site_id
 _symmetry_equiv_pos_as_xyz
  1  'x, y, z'
loop_
 _atom_site_type_symbol
 _atom_site_label
 _atom_site_symmetry_multiplicity
 _atom_site_fract_x
 _atom_site_fract_y
 _atom_site_fract_z
 _atom_site_occupancy
  Sc  Sc0  1  0.71336281  0.71336281  0.29143492  1
  Sc  Sc1  1  0.28183945  0.71336281  0.29143492  1
  Sc  Sc2  1  0.71336281  0.28183945  0.29143492  1
  Sc  Sc3  1  0.29681660  0.29681660  0.71467213  1
  Sc  Sc4  1  0.69169467  0.29681660  0.71467213  1
  Sc  Sc5  1  0.29681660  0.69169467  0.71467213  1
  Nb  Nb0  1  0.87803586  0.87803586  0.36589342  1
  Nb  Nb1  1  0.87481285  0.37019219  0.88018311  1
  Nb  Nb2  1  0.37019219  0.87481285  0.88018311  1
  Nb  Nb3  1  0.87481285  0.87481285  0.88018311  1
  Nb  Nb4  1  0.12793424  0.12793424  0.61619928  1
  Ga  Ga0  1  0.11892651  0.64310808  0.11903789  1
  Ga  Ga1  1  0.64310808  0.11892651  0.11903789  1
  Ga  Ga2  1  0.11892651  0.11892651  0.11903789  1
  Ga  Ga3  1  0.65681415  0.65681415  0.02955956  1
  Ga  Ga4  1  0.65696878  0.03020200  0.65586244  1
  Ga  Ga5  1  0.03020200  0.65696878  0.65586244  1
  Ga  Ga6  1  0.65696878  0.65696878  0.65586244  1
  Ga  Ga7  1  0.33649333  0.33649333  0.99052101  1
  Ga  Ga8  1  0.34154249  0.98041852  0.33649449  1
  Ga  Ga9  1  0.98041852  0.34154249  0.33649449  1
  Ga  Ga10  1  0.34154249  0.34154249  0.33649449  1
  Os  Os0  1  0.00617941  0.00617941  0.98146176  1
  Os  Os1  1  0.99821343  0.99821343  0.50576340  1
  Os  Os2  1  0.49781074  0.99821343  0.50576340  1
  Os  Os3  1  0.99821343  0.49781074  0.50576340  1
  Os  Os4  1  0.50243273  0.50243273  0.00200761  1
  Os  Os5  1  0.99312893  0.50243273  0.00200761  1
  Os  Os6  1  0.50243273  0.99312893  0.00200761  1
loop_
_geom_bond_atom_site_label_1
_geom_bond_atom_site_label_2
_geom_bond_distance
_geom_bond_site_symmetry_2
Sc0 Sc4 3.713551 1_555
Sc0 Sc5 3.713552 1_555
Sc1 Sc3 3.713551 1_555
Sc1 Sc5 3.713552 1_555
Sc2 Sc4 3.713552 1_555
Sc2 Sc3 3.713552 1_555
Sc3 Sc5 3.512727 1_555
Sc3 Sc4 3.512728 1_555
Sc4 Sc5 3.512727 1_555
Nb0 Os3 2.759797 1_555
Nb0 Os1 2.759797 1_555
Nb0 Os2 2.759797 1_555
Nb0 Os0 2.764056 1_664
Nb0 Sc2 2.968341 1_565
Nb0 Sc1 2.968341 1_655
Nb0 Sc0 2.968349 1_555
Nb1 Os0 2.646403 1_655
Nb1 Os3 2.692157 1_555
Nb1 Os4 2.702578 1_556
Nb1 Os5 2.702585 1_556
Nb1 Sc2 2.980630 1_556
Nb1 Sc3 3.104997 1_655
Nb1 Sc4 3.105005 1_555
Nb1 Nb4 3.174226 1_655
Nb2 Os0 2.646404 1_565
Nb2 Os2 2.692157 1_555
Nb2 Os4 2.702577 1_556
Nb2 Os6 2.702585 1_556
Nb2 Sc1 2.980630 1_556
Nb2 Sc3 3.104997 1_565
Nb2 Sc5 3.105005 1_555
Nb2 Nb4 3.174226 1_565
Nb3 Os0 2.646396 1_665
Nb3 Os1 2.692157 1_555
Nb3 Os5 2.702577 1_556
Nb3 Os6 2.702578 1_556
Nb3 Sc0 2.980631 1_556
Nb3 Sc4 3.104998 1_565
Nb3 Sc5 3.104998 1_655
Nb3 Nb4 3.174232 1_665
Nb4 Os0 2.626230 1_555
Nb4 Os3 2.685954 1_455
Nb4 Os2 2.685955 1_545
Nb4 Os1 2.685962 1_445
Nb4 Sc3 3.187494 1_555
Nb4 Sc5 3.187509 1_545
Nb4 Sc4 3.187509 1_455
Ga0 Os0 2.636385 1_564
Ga0 Os3 2.783414 1_455
Ga0 Os5 2.784934 1_455
Ga0 Os4 2.784956 1_555
Ga0 Ga7 2.846329 1_554
Ga0 Ga10 2.852910 1_555
Ga0 Ga9 2.852915 1_455
Ga0 Sc5 2.982263 1_554
Ga0 Sc0 2.982937 1_455
Ga0 Sc1 2.982945 1_555
Ga0 Nb0 3.020316 1_455
Ga0 Nb3 3.029351 1_454
Ga0 Nb2 3.029364 1_554
Ga1 Os0 2.636386 1_654
Ga1 Os2 2.783414 1_545
Ga1 Os6 2.784934 1_545
Ga1 Os4 2.784955 1_555
Ga1 Ga7 2.846330 1_554
Ga1 Ga10 2.852910 1_555
Ga1 Ga8 2.852915 1_545
Ga1 Sc4 2.982262 1_554
Ga1 Sc0 2.982937 1_545
Ga1 Sc2 2.982945 1_555
Ga1 Nb0 3.020316 1_545
Ga1 Nb3 3.029351 1_544
Ga1 Nb1 3.029364 1_554
Ga2 Os0 2.636378 1_554
Ga2 Os1 2.783414 1_445
Ga2 Os5 2.784956 1_455
Ga2 Os6 2.784956 1_545
Ga2 Ga7 2.846344 1_554
Ga2 Ga9 2.852907 1_455
Ga2 Ga8 2.852908 1_545
Ga2 Sc3 2.982264 1_554
Ga2 Sc1 2.982938 1_545
Ga2 Sc2 2.982939 1_455
Ga2 Nb0 3.020303 1_445
Ga2 Nb2 3.029351 1_544
Ga2 Nb1 3.029351 1_454
Ga3 Os6 2.527965 1_555
Ga3 Os4 2.527965 1_555
Ga3 Os5 2.527965 1_555
Ga3 Nb3 2.805427 1_554
Ga3 Nb1 2.805434 1_554
Ga3 Nb2 2.805434 1_554
Ga3 Sc0 2.908108 1_555
Ga3 Sc2 2.908120 1_555
Ga3 Sc1 2.908120 1_555
Ga4 Os1 2.552998 1_545
Ga4 Os2 2.553006 1_545
Ga4 Os6 2.560852 1_546
Ga4 Sc2 2.805549 1_555
Ga4 Nb0 2.832178 1_545
Ga4 Nb3 2.832794 1_545
Ga4 Nb2 2.832801 1_545
Ga4 Sc4 2.850545 1_555
Ga4 Sc3 2.850556 1_555
Ga5 Os1 2.552997 1_455
Ga5 Os3 2.553005 1_455
Ga5 Os5 2.560852 1_456
Ga5 Sc1 2.805549 1_555
Ga5 Nb0 2.832178 1_455
Ga5 Nb3 2.832794 1_455
Ga5 Nb1 2.832801 1_455
Ga5 Sc5 2.850545 1_555
Ga5 Sc3 2.850555 1_555
Ga6 Os2 2.552999 1_555
Ga6 Os3 2.553000 1_555
Ga6 Os4 2.560852 1_556
Ga6 Sc0 2.805555 1_555
Ga6 Nb0 2.832173 1_555
Ga6 Nb1 2.832795 1_555
Ga6 Nb2 2.832795 1_555
Ga6 Sc4 2.850562 1_555
Ga6 Sc5 2.850562 1_555
Ga7 Os6 2.617060 1_546
Ga7 Os5 2.617060 1_456
Ga7 Os4 2.617068 1_556
Ga7 Sc5 2.836678 1_555
Ga7 Sc4 2.836678 1_555
Ga7 Sc3 2.836684 1_555
Ga7 Ga8 3.102880 1_546
Ga7 Ga9 3.102880 1_456
Ga8 Os6 2.522494 1_555
Ga8 Os1 2.597298 1_455
Ga8 Os2 2.597321 1_555
Ga8 Nb4 2.735766 1_565
Ga8 Sc1 2.917392 1_555
Ga8 Sc0 2.917403 1_555
Ga8 Sc5 2.993969 1_555
Ga9 Os5 2.522494 1_555
Ga9 Os1 2.597297 1_545
Ga9 Os3 2.597321 1_555
Ga9 Nb4 2.735766 1_655
Ga9 Sc2 2.917392 1_555
Ga9 Sc0 2.917403 1_555
Ga9 Sc4 2.993969 1_555
Ga10 Os4 2.522503 1_555
Ga10 Os2 2.597304 1_545
Ga10 Os3 2.597304 1_455
Ga10 Nb4 2.735745 1_555
Ga10 Sc1 2.917409 1_555
Ga10 Sc2 2.917409 1_555
Ga10 Sc3 2.993975 1_555
Ga10 Ga7 3.102866 1_554
Os1 Sc4 3.244132 1_565
Os1 Sc5 3.244132 1_655
Os2 Sc3 3.244131 1_565
Os2 Sc5 3.244138 1_555
Os3 Sc3 3.244131 1_655
Os3 Sc4 3.244138 1_555
Os4 Sc4 3.149357 1_554
Os4 Sc5 3.149358 1_554
Os5 Sc5 3.149345 1_654
Os5 Sc3 3.149355 1_654
Os6 Sc4 3.149345 1_564
Os6 Sc3 3.149355 1_564
