# generated using pymatgen
data_K4ZrSnI12
_symmetry_space_group_name_H-M   'P 1'
_cell_length_a   8.41873583
_cell_length_b   8.04788398
_cell_length_c   13.88144343
_cell_angle_alpha   54.96963989
_cell_angle_beta   89.89242176
_cell_angle_gamma   89.68853600
_symmetry_Int_Tables_number   1
_chemical_formula_structural   K4ZrSnI12
_chemical_formula_sum   'K4 Zr1 Sn1 I12'
_cell_volume   770.12211101
_cell_formula_units_Z   1
loop_
 _symmetry_equiv_pos_site_id
 _symmetry_equiv_pos_as_xyz
  1  'x, y, z'
loop_
 _atom_site_type_symbol
 _atom_site_label
 _atom_site_symmetry_multiplicity
 _atom_site_fract_x
 _atom_site_fract_y
 _atom_site_fract_z
 _atom_site_occupancy
  K  K0  1  0.58103166  0.72177571  0.25188457  1
  K  K1  1  0.07917845  0.27201774  0.24864419  1
  K  K2  1  0.41896834  0.27822429  0.74811543  1
  K  K3  1  0.92082155  0.72798226  0.75135581  1
  Zr  Zr0  1  0.00000000  0.00000000  0.00000000  1
  Sn  Sn0  1  0.50000000  0.00000000  0.50000000  1
  I  I0  1  0.99044175  0.83481093  0.24625453  1
  I  I1  1  0.49208321  0.15561991  0.25443490  1
  I  I2  1  0.00955825  0.16518907  0.75374547  1
  I  I3  1  0.50791679  0.84438009  0.74556510  1
  I  I4  1  0.69289192  0.65997629  0.54879988  1
  I  I5  1  0.18693502  0.33500171  0.95816404  1
  I  I6  1  0.30710808  0.34002371  0.45120012  1
  I  I7  1  0.81306498  0.66499829  0.04183596  1
  I  I8  1  0.71102704  0.22326937  0.96230316  1
  I  I9  1  0.21328372  0.76971819  0.54092856  1
  I  I10  1  0.28897296  0.77673063  0.03769684  1
  I  I11  1  0.78671628  0.23028181  0.45907144  1
loop_
_geom_bond_atom_site_label_1
_geom_bond_atom_site_label_2
_geom_bond_distance
_geom_bond_site_symmetry_2
I0 Zr0 2.870903 1_665
I0 K0 3.558786 1_555
I0 K1 3.619713 1_665
I1 Sn0 2.879527 1_555
I1 K1 3.584229 1_555
I1 K0 3.586942 1_545
I2 Zr0 2.870903 1_556
I2 K2 3.558786 1_555
I2 K3 3.619713 1_445
I3 Sn0 2.879527 1_565
I3 K3 3.584229 1_555
I3 K2 3.586942 1_565
I4 Sn0 2.900335 1_565
I4 K2 3.564633 1_555
I4 K3 3.699465 1_555
I4 K0 3.972159 1_555
I5 Zr0 2.885811 1_556
I5 K3 3.575870 1_455
I5 K2 3.744981 1_555
I5 K1 3.870920 1_556
I6 Sn0 2.900335 1_555
I6 K0 3.564633 1_555
I6 K1 3.699465 1_555
I6 K2 3.972159 1_555
I7 Zr0 2.885811 1_665
I7 K1 3.575870 1_655
I7 K0 3.744981 1_555
I7 K3 3.870920 1_554
I8 Zr0 2.880755 1_656
I8 K2 3.686091 1_555
I8 K3 3.820568 1_555
I8 K0 3.879665 1_546
I9 Sn0 2.901467 1_565
I9 K3 3.682814 1_455
I9 K2 3.714854 1_555
I9 K1 3.900796 1_565
I10 Zr0 2.880755 1_565
I10 K0 3.686091 1_555
I10 K1 3.820568 1_555
I10 K2 3.879665 1_564
I11 Sn0 2.901467 1_555
I11 K1 3.682814 1_655
I11 K0 3.714854 1_555
I11 K3 3.900796 1_545
