# generated using pymatgen
data_Be(Nb2Sb)2
_symmetry_space_group_name_H-M   'P 1'
_cell_length_a   7.74845216
_cell_length_b   7.74845346
_cell_length_c   7.74845264
_cell_angle_alpha   95.65699182
_cell_angle_beta   95.65155435
_cell_angle_gamma   143.41262831
_symmetry_Int_Tables_number   1
_chemical_formula_structural   Be(Nb2Sb)2
_chemical_formula_sum   'Be2 Nb8 Sb4'
_cell_volume   263.27088999
_cell_formula_units_Z   2
loop_
 _symmetry_equiv_pos_site_id
 _symmetry_equiv_pos_as_xyz
  1  'x, y, z'
loop_
 _atom_site_type_symbol
 _atom_site_label
 _atom_site_symmetry_multiplicity
 _atom_site_fract_x
 _atom_site_fract_y
 _atom_site_fract_z
 _atom_site_occupancy
  Be  Be0  1  0.25000000  0.25000000  0.00000000  1
  Be  Be1  1  0.75000000  0.75000000  0.00000000  1
  Nb  Nb0  1  0.91791469  0.80070296  0.71861365  1
  Nb  Nb1  1  0.80071759  0.08209584  0.88281543  1
  Nb  Nb2  1  0.41791069  0.69929704  0.11721173  1
  Nb  Nb3  1  0.58208931  0.30070296  0.88278827  1
  Nb  Nb4  1  0.69928141  0.58209584  0.28137825  1
  Nb  Nb5  1  0.30071859  0.41790416  0.71862175  1
  Nb  Nb6  1  0.19928241  0.91790416  0.11718457  1
  Nb  Nb7  1  0.08208531  0.19929704  0.28138635  1
  Sb  Sb0  1  0.64253025  0.85749028  0.50002353  1
  Sb  Sb1  1  0.14253325  0.64250972  0.78503897  1
  Sb  Sb2  1  0.85746675  0.35749028  0.21496003  1
  Sb  Sb3  1  0.35746975  0.14250972  0.49997647  1
loop_
_geom_bond_atom_site_label_1
_geom_bond_atom_site_label_2
_geom_bond_distance
_geom_bond_site_symmetry_2
Be0 Be1 2.432145 1_555
Be0 Be1 2.432145 1_445
Be0 Nb6 2.550956 1_545
Be0 Nb4 2.550959 1_555
Be0 Nb1 2.550960 1_454
Be0 Nb5 2.550961 1_554
Be0 Nb0 2.550996 1_444
Be0 Nb2 2.550996 1_555
Be0 Nb3 2.551005 1_554
Be0 Nb7 2.551005 1_555
Be1 Nb1 2.550956 1_564
Be1 Nb5 2.550959 1_554
Be1 Nb6 2.550960 1_655
Be1 Nb4 2.550961 1_555
Be1 Nb7 2.550996 1_665
Be1 Nb3 2.550996 1_554
Be1 Nb2 2.551005 1_555
Be1 Nb0 2.551005 1_554
Nb0 Sb1 2.858396 1_655
Nb0 Sb0 2.925467 1_555
Nb0 Sb3 3.003254 1_665
Nb0 Sb3 3.003259 1_555
Nb1 Sb0 2.858193 1_545
Nb1 Sb2 2.925382 1_556
Nb1 Sb1 3.003181 1_545
Nb1 Sb1 3.003205 1_655
Nb2 Sb0 2.858397 1_555
Nb2 Sb1 2.925473 1_554
Nb2 Sb2 3.003254 1_455
Nb2 Sb2 3.003259 1_565
Nb3 Sb3 2.858397 1_555
Nb3 Sb2 2.925467 1_556
Nb3 Sb1 3.003258 1_655
Nb3 Sb1 3.003259 1_545
Nb4 Sb2 2.858185 1_555
Nb4 Sb0 2.925388 1_555
Nb4 Sb3 3.003182 1_555
Nb4 Sb3 3.003197 1_665
Nb5 Sb1 2.858184 1_555
Nb5 Sb3 2.925388 1_555
Nb5 Sb0 3.003182 1_555
Nb5 Sb0 3.003197 1_445
Nb6 Sb3 2.858193 1_565
Nb6 Sb1 2.925388 1_554
Nb6 Sb2 3.003181 1_565
Nb6 Sb2 3.003201 1_455
Nb7 Sb2 2.858398 1_455
Nb7 Sb3 2.925467 1_555
Nb7 Sb0 3.003254 1_445
Nb7 Sb0 3.003259 1_555
