# generated using pymatgen
data_Lu12Fe(TcPb)2
_symmetry_space_group_name_H-M   'P 1'
_cell_length_a   8.25590004
_cell_length_b   8.25590120
_cell_length_c   8.25590091
_cell_angle_alpha   108.81201889
_cell_angle_beta   108.81201792
_cell_angle_gamma   110.79781818
_symmetry_Int_Tables_number   1
_chemical_formula_structural   Lu12Fe(TcPb)2
_chemical_formula_sum   'Lu12 Fe1 Tc2 Pb2'
_cell_volume   433.00850163
_cell_formula_units_Z   1
loop_
 _symmetry_equiv_pos_site_id
 _symmetry_equiv_pos_as_xyz
  1  'x, y, z'
loop_
 _atom_site_type_symbol
 _atom_site_label
 _atom_site_symmetry_multiplicity
 _atom_site_fract_x
 _atom_site_fract_y
 _atom_site_fract_z
 _atom_site_occupancy
  Lu  Lu0  1  0.30704691  0.30704691  0.61674178  1
  Lu  Lu1  1  0.69030412  0.69030412  0.38325822  1
  Lu  Lu2  1  0.69030412  0.30704691  1.00000000  1
  Lu  Lu3  1  0.30704691  0.69030412  0.00000000  1
  Lu  Lu4  1  0.18964433  0.42706311  0.23741879  1
  Lu  Lu5  1  0.80952503  0.57324898  0.76372395  1
  Lu  Lu6  1  0.18964433  0.95222554  0.76258121  1
  Lu  Lu7  1  0.95222554  0.18964433  0.76258121  1
  Lu  Lu8  1  0.80952503  0.04580208  0.23627605  1
  Lu  Lu9  1  0.04580208  0.80952503  0.23627605  1
  Lu  Lu10  1  0.42706311  0.18964433  0.23741879  1
  Lu  Lu11  1  0.57324898  0.80952503  0.76372395  1
  Fe  Fe0  1  0.63104228  0.63104228  1.00000000  1
  Tc  Tc0  1  0.38016026  0.38016026  0.00000000  1
  Tc  Tc1  1  0.99951620  0.99951620  1.00000000  1
  Pb  Pb0  1  0.99894988  0.49894988  0.50000000  1
  Pb  Pb1  1  0.49894988  0.99894988  0.50000000  1
loop_
_geom_bond_atom_site_label_1
_geom_bond_atom_site_label_2
_geom_bond_distance
_geom_bond_site_symmetry_2
Lu0 Tc0 2.831647 1_556
Lu0 Lu7 3.461417 1_455
Lu0 Lu6 3.461417 1_545
Lu0 Lu5 3.474320 1_555
Lu0 Lu11 3.474321 1_555
Lu0 Pb0 3.489209 1_455
Lu0 Pb1 3.489209 1_545
Lu0 Lu8 3.522564 1_455
Lu0 Lu9 3.522564 1_545
Lu0 Lu10 3.529034 1_555
Lu0 Lu4 3.529034 1_555
Lu1 Tc0 2.831643 1_555
Lu1 Lu4 3.461409 1_555
Lu1 Lu10 3.461410 1_555
Lu1 Lu9 3.474335 1_655
Lu1 Lu8 3.474336 1_565
Lu1 Pb0 3.489209 1_555
Lu1 Pb1 3.489209 1_555
Lu1 Lu11 3.522558 1_555
Lu1 Lu5 3.522558 1_555
Lu1 Lu6 3.529039 1_655
Lu1 Lu7 3.529040 1_565
Lu2 Tc0 2.831638 1_556
Lu2 Lu6 3.461411 1_545
Lu2 Lu5 3.474323 1_555
Lu2 Lu9 3.474325 1_656
Lu2 Pb0 3.489211 1_556
Lu2 Pb1 3.489211 1_545
Lu2 Lu8 3.522558 1_556
Lu2 Lu7 3.529042 1_555
Lu2 Lu4 3.529042 1_656
Lu3 Tc0 2.831638 1_555
Lu3 Lu4 3.461411 1_555
Lu3 Lu7 3.461412 1_454
Lu3 Lu8 3.474325 1_565
Lu3 Pb0 3.489211 1_454
Lu3 Pb1 3.489211 1_555
Lu3 Lu9 3.522558 1_555
Lu3 Lu5 3.522565 1_454
Lu3 Lu6 3.529042 1_554
Lu4 Tc1 2.895561 1_444
Lu4 Tc0 2.897801 1_555
Lu4 Pb0 3.092774 1_455
Lu4 Lu7 3.226827 1_454
Lu4 Lu8 3.564156 1_455
Lu4 Lu9 3.749059 1_555
Lu4 Pb1 3.844372 1_555
Lu5 Tc1 2.886122 1_555
Lu5 Pb0 3.094895 1_555
Lu5 Lu9 3.211296 1_656
Lu5 Lu6 3.564161 1_655
Lu5 Lu7 3.749064 1_555
Lu5 Pb1 3.860562 1_545
Lu6 Tc1 2.895561 1_455
Lu6 Tc0 2.897802 1_566
Lu6 Pb0 3.092775 1_455
Lu6 Lu7 3.226827 1_465
Lu6 Lu9 3.749066 1_555
Lu6 Pb1 3.844371 1_555
Lu7 Tc1 2.895561 1_545
Lu7 Tc0 2.897801 1_656
Lu7 Pb1 3.092775 1_545
Lu7 Lu8 3.749066 1_555
Lu7 Pb0 3.844372 1_555
Lu8 Tc1 2.886123 1_544
Lu8 Pb0 3.094889 1_555
Lu8 Lu9 3.211309 1_645
Lu8 Pb1 3.860561 1_545
Lu9 Tc1 2.886123 1_454
Lu9 Pb1 3.094888 1_555
Lu9 Pb0 3.860562 1_455
Lu10 Tc1 2.895561 1_444
Lu10 Tc0 2.897801 1_555
Lu10 Pb1 3.092775 1_545
Lu10 Lu4 3.226827 1_555
Lu10 Lu6 3.226827 1_544
Lu10 Lu2 3.461411 1_554
Lu10 Lu3 3.529042 1_545
Lu10 Lu9 3.564156 1_545
Lu10 Lu8 3.749059 1_555
Lu10 Lu5 3.749064 1_555
Lu10 Pb0 3.844372 1_555
Lu11 Tc1 2.886122 1_555
Lu11 Pb1 3.094895 1_555
Lu11 Lu5 3.211295 1_555
Lu11 Lu8 3.211296 1_566
Lu11 Lu3 3.474322 1_556
Lu11 Lu2 3.522566 1_565
Lu11 Lu7 3.564161 1_565
Lu11 Lu6 3.749064 1_555
Lu11 Lu4 3.749064 1_555
Lu11 Pb0 3.860561 1_455
Fe0 Tc0 2.352366 1_556
Fe0 Lu5 2.820795 1_555
Fe0 Lu11 2.820795 1_555
Fe0 Lu9 2.820802 1_656
Fe0 Lu8 2.820802 1_566
Fe0 Lu3 2.885081 1_556
Fe0 Lu2 2.885081 1_555
Fe0 Lu0 2.885086 1_555
Fe0 Lu1 2.885090 1_556
