# generated using pymatgen
data_Ta3Ga2IrC
_symmetry_space_group_name_H-M   'P 1'
_cell_length_a   8.26783071
_cell_length_b   8.26777050
_cell_length_c   8.26778145
_cell_angle_alpha   59.99995621
_cell_angle_beta   60.00019710
_cell_angle_gamma   60.00005036
_symmetry_Int_Tables_number   1
_chemical_formula_structural   Ta3Ga2IrC
_chemical_formula_sum   'Ta12 Ga8 Ir4 C4'
_cell_volume   399.62683848
_cell_formula_units_Z   4
loop_
 _symmetry_equiv_pos_site_id
 _symmetry_equiv_pos_as_xyz
  1  'x, y, z'
loop_
 _atom_site_type_symbol
 _atom_site_label
 _atom_site_symmetry_multiplicity
 _atom_site_fract_x
 _atom_site_fract_y
 _atom_site_fract_z
 _atom_site_occupancy
  Ta  Ta0  1  0.56275828  0.93723891  0.56276314  1
  Ta  Ta1  1  0.31276021  0.68723612  0.68724113  1
  Ta  Ta2  1  0.68724172  0.31276109  0.31276033  1
  Ta  Ta3  1  0.31276021  0.68723612  0.31276253  1
  Ta  Ta4  1  0.68724307  0.68723344  0.31276175  1
  Ta  Ta5  1  0.31275912  0.31276118  0.68723985  1
  Ta  Ta6  1  0.56275693  0.56276656  0.93723825  1
  Ta  Ta7  1  0.93723979  0.56276388  0.56275887  1
  Ta  Ta8  1  0.56275828  0.93723891  0.93723967  1
  Ta  Ta9  1  0.93724088  0.93723882  0.56276015  1
  Ta  Ta10  1  0.68724172  0.31276109  0.68723686  1
  Ta  Ta11  1  0.93723979  0.56276388  0.93723747  1
  Ga  Ga0  1  0.91446470  0.91442623  0.91444371  1
  Ga  Ga1  1  0.99333897  0.33556532  0.33554786  1
  Ga  Ga2  1  0.33554198  0.99333089  0.33556357  1
  Ga  Ga3  1  0.33553530  0.33557377  0.99333463  1
  Ga  Ga4  1  0.91445802  0.25666911  0.91443643  1
  Ga  Ga5  1  0.91446470  0.91442623  0.25666537  1
  Ga  Ga6  1  0.25666103  0.91443468  0.91445214  1
  Ga  Ga7  1  0.33553530  0.33557377  0.33555629  1
  Ir  Ir0  1  0.12500000  0.12500000  0.12500000  1
  Ir  Ir1  1  0.62500000  0.12500000  0.12500000  1
  Ir  Ir2  1  0.12500000  0.62500000  0.12500000  1
  Ir  Ir3  1  0.12500000  0.12500000  0.62500000  1
  C  C0  1  0.62500000  0.62500000  0.62500000  1
  C  C1  1  0.12500000  0.62500000  0.62500000  1
  C  C2  1  0.62500000  0.12500000  0.62500000  1
  C  C3  1  0.62500000  0.62500000  0.12500000  1
loop_
_geom_bond_atom_site_label_1
_geom_bond_atom_site_label_2
_geom_bond_distance
_geom_bond_site_symmetry_2
Ga0 Ir2 2.546709 1_656
Ga0 Ir3 2.546832 1_665
Ga0 Ir1 2.546975 1_566
Ga0 Ta11 2.732106 1_555
Ga0 Ta9 2.732214 1_555
Ga0 Ta8 2.732350 1_555
Ga0 Ga6 2.829291 1_655
Ga0 Ga5 2.829414 1_556
Ga0 Ga4 2.829528 1_565
Ga0 Ta1 3.009663 1_655
Ga0 Ta4 3.009811 1_556
Ga0 Ta10 3.009917 1_565
Ga1 Ir2 2.546746 1_655
Ga1 Ir0 2.546861 1_655
Ga1 Ir3 2.546861 1_655
Ga1 Ta4 2.732151 1_555
Ga1 Ta2 2.732263 1_555
Ga1 Ta10 2.732263 1_555
Ga1 Ga3 2.829291 1_654
Ga1 Ga7 2.829291 1_655
Ga1 Ga2 2.829398 1_645
Ga1 Ta11 3.009757 1_554
Ga1 Ta7 3.009757 1_555
Ga1 Ta9 3.009865 1_545
Ga2 Ir0 2.546798 1_565
Ga2 Ir3 2.546798 1_565
Ga2 Ir1 2.546952 1_565
Ga2 Ta3 2.732183 1_555
Ga2 Ta1 2.732183 1_555
Ga2 Ta4 2.732317 1_555
Ga2 Ga3 2.829528 1_564
Ga2 Ga7 2.829528 1_565
Ga2 Ta9 3.009691 1_455
Ga2 Ta8 3.009837 1_554
Ga2 Ta0 3.009837 1_555
Ga3 Ir2 2.546709 1_556
Ga3 Ir0 2.546832 1_556
Ga3 Ir1 2.546975 1_556
Ga3 Ta1 2.732106 1_555
Ga3 Ta5 2.732214 1_555
Ga3 Ta10 2.732350 1_555
Ga3 Ga7 2.829414 1_556
Ga3 Ta11 3.009663 1_455
Ga3 Ta6 3.009811 1_555
Ga3 Ta8 3.009917 1_545
Ga4 Ir0 2.546798 1_656
Ga4 Ir3 2.546798 1_655
Ga4 Ir1 2.546952 1_556
Ga4 Ta11 2.732183 1_555
Ga4 Ta7 2.732183 1_555
Ga4 Ta6 2.732317 1_555
Ga4 Ga6 2.829398 1_645
Ga4 Ga5 2.829528 1_546
Ga4 Ta5 3.009691 1_655
Ga4 Ta2 3.009837 1_556
Ga4 Ta10 3.009837 1_555
Ga5 Ir2 2.546709 1_655
Ga5 Ir0 2.546832 1_665
Ga5 Ir1 2.546975 1_565
Ga5 Ta7 2.732106 1_555
Ga5 Ta9 2.732214 1_555
Ga5 Ta0 2.732350 1_555
Ga5 Ga6 2.829291 1_654
Ga5 Ta3 3.009663 1_655
Ga5 Ta4 3.009811 1_555
Ga5 Ta2 3.009917 1_565
Ga6 Ir2 2.546746 1_556
Ga6 Ir0 2.546861 1_566
Ga6 Ir3 2.546861 1_565
Ga6 Ta6 2.732151 1_555
Ga6 Ta8 2.732263 1_555
Ga6 Ta0 2.732263 1_555
Ga6 Ta3 3.009757 1_556
Ga6 Ta1 3.009757 1_555
Ga6 Ta5 3.009865 1_565
Ga7 Ir2 2.546709 1_555
Ga7 Ir3 2.546832 1_555
Ga7 Ir1 2.546975 1_555
Ga7 Ta3 2.732106 1_555
Ga7 Ta5 2.732214 1_555
Ga7 Ta2 2.732350 1_555
Ga7 Ta7 3.009663 1_455
Ga7 Ta6 3.009811 1_554
Ga7 Ta0 3.009917 1_545
Ir0 Ta9 3.015284 1_445
Ir0 Ta5 3.015284 1_554
Ir0 Ta8 3.015292 1_544
Ir0 Ta2 3.015292 1_455
Ir0 Ta11 3.015299 1_454
Ir0 Ta3 3.015299 1_545
Ir1 Ta0 3.015297 1_545
Ir1 Ta10 3.015297 1_554
Ir1 Ta2 3.015297 1_555
Ir1 Ta8 3.015297 1_544
Ir1 Ta6 3.015313 1_554
Ir1 Ta4 3.015313 1_545
Ir2 Ta3 3.015280 1_555
Ir2 Ta7 3.015280 1_455
Ir2 Ta1 3.015280 1_554
Ir2 Ta11 3.015280 1_454
Ir2 Ta6 3.015290 1_554
Ir2 Ta4 3.015290 1_455
Ir3 Ta5 3.015284 1_555
Ir3 Ta9 3.015284 1_445
Ir3 Ta0 3.015292 1_545
Ir3 Ta10 3.015292 1_455
Ir3 Ta7 3.015299 1_455
Ir3 Ta1 3.015299 1_545
C0 Ta0 2.191305 1_555
C0 Ta10 2.191305 1_555
C0 Ta6 2.191309 1_555
C0 Ta4 2.191309 1_555
C0 Ta7 2.191336 1_555
C0 Ta1 2.191336 1_555
C1 Ta9 2.191306 1_455
C1 Ta5 2.191306 1_555
C1 Ta1 2.191308 1_555
C1 Ta11 2.191308 1_455
C1 Ta3 2.191308 1_555
C1 Ta7 2.191308 1_455
C2 Ta8 2.191315 1_545
C2 Ta2 2.191315 1_555
C2 Ta10 2.191315 1_555
C2 Ta0 2.191315 1_545
C2 Ta9 2.191336 1_545
C2 Ta5 2.191336 1_555
C3 Ta8 2.191305 1_554
C3 Ta2 2.191305 1_555
C3 Ta4 2.191309 1_555
C3 Ta6 2.191309 1_554
C3 Ta11 2.191336 1_554
C3 Ta3 2.191336 1_555
