# generated using pymatgen
data_Ca3Ge5AsPd20
_symmetry_space_group_name_H-M   'P 1'
_cell_length_a   8.77952807
_cell_length_b   8.81044923
_cell_length_c   8.81044888
_cell_angle_alpha   59.76795154
_cell_angle_beta   60.11602279
_cell_angle_gamma   60.11602638
_symmetry_Int_Tables_number   1
_chemical_formula_structural   Ca3Ge5AsPd20
_chemical_formula_sum   'Ca3 Ge5 As1 Pd20'
_cell_volume   481.88299873
_cell_formula_units_Z   1
loop_
 _symmetry_equiv_pos_site_id
 _symmetry_equiv_pos_as_xyz
  1  'x, y, z'
loop_
 _atom_site_type_symbol
 _atom_site_label
 _atom_site_symmetry_multiplicity
 _atom_site_fract_x
 _atom_site_fract_y
 _atom_site_fract_z
 _atom_site_occupancy
  Ca  Ca0  1  0.24969354  0.25030646  0.25030646  1
  Ca  Ca1  1  0.74969354  0.75030646  0.75030646  1
  Ca  Ca2  1  0.00041248  0.99958752  0.99958752  1
  Ge  Ge0  1  0.26724372  0.73275628  0.73275628  1
  Ge  Ge1  1  0.26708807  0.73291193  0.26815180  1
  Ge  Ge2  1  0.73184820  0.26815180  0.73291193  1
  Ge  Ge3  1  0.26708807  0.26815180  0.73291193  1
  Ge  Ge4  1  0.73184820  0.73291193  0.26815180  1
  As  As0  1  0.73465935  0.26534065  0.26534065  1
  Pd  Pd0  1  0.38361582  0.38390440  0.38390440  1
  Pd  Pd1  1  0.61642535  0.61672579  0.61672579  1
  Pd  Pd2  1  0.38327421  0.38357465  0.84987793  1
  Pd  Pd3  1  0.38327421  0.84987793  0.38357465  1
  Pd  Pd4  1  0.61609560  0.61638418  0.15142263  1
  Pd  Pd5  1  0.61609560  0.15142263  0.61638418  1
  Pd  Pd6  1  0.84857737  0.38390440  0.38390440  1
  Pd  Pd7  1  0.15012207  0.61672579  0.61672579  1
  Pd  Pd8  1  0.34944675  0.99865925  0.99865925  1
  Pd  Pd9  1  0.65323475  0.99865925  0.99865925  1
  Pd  Pd10  1  0.00134075  0.34676525  0.65055325  1
  Pd  Pd11  1  0.00134075  0.65055325  0.34676525  1
  Pd  Pd12  1  0.00129869  0.34860117  0.99870131  1
  Pd  Pd13  1  0.65139883  0.99870131  0.34860117  1
  Pd  Pd14  1  0.99912300  0.65303021  0.00087700  1
  Pd  Pd15  1  0.34696979  0.00087700  0.65303021  1
  Pd  Pd16  1  0.00129869  0.99870131  0.34860117  1
  Pd  Pd17  1  0.99912300  0.00087700  0.65303021  1
  Pd  Pd18  1  0.65139883  0.34860117  0.99870131  1
  Pd  Pd19  1  0.34696979  0.65303021  0.00087700  1
loop_
_geom_bond_atom_site_label_1
_geom_bond_atom_site_label_2
_geom_bond_distance
_geom_bond_site_symmetry_2
Ca0 Pd2 2.877208 1_554
Ca0 Pd3 2.877209 1_545
Ca0 Pd6 2.882128 1_455
Ca0 Pd0 2.882142 1_555
Ca0 Pd10 3.379501 1_555
Ca0 Pd11 3.379501 1_555
Ca0 Pd18 3.379638 1_554
Ca0 Pd13 3.379639 1_545
Ca0 Pd16 3.379639 1_545
Ca0 Pd12 3.379639 1_554
Ca0 Pd9 3.417389 1_544
Ca0 Pd8 3.417389 1_544
Ca1 Pd7 2.877208 1_655
Ca1 Pd1 2.877216 1_555
Ca1 Pd4 2.882128 1_556
Ca1 Pd5 2.882128 1_565
Ca1 Pd8 3.379501 1_555
Ca1 Pd9 3.379501 1_555
Ca1 Pd16 3.379639 1_655
Ca1 Pd13 3.379639 1_555
Ca1 Pd18 3.379639 1_555
Ca1 Pd12 3.379639 1_655
Ca1 Pd11 3.417389 1_655
Ca1 Pd10 3.417389 1_655
Ca2 Pd15 3.053267 1_565
Ca2 Pd17 3.053267 1_465
Ca2 Pd19 3.053267 1_556
Ca2 Pd14 3.053267 1_456
Ca2 Pd8 3.056228 1_555
Ca2 Pd9 3.056228 1_455
Ca2 Pd10 3.056229 1_565
Ca2 Pd11 3.056229 1_556
Ca2 Pd13 3.074922 1_456
Ca2 Pd16 3.074922 1_556
Ca2 Pd18 3.074922 1_465
Ca2 Pd12 3.074922 1_565
Ge0 Pd14 2.459763 1_456
Ge0 Pd19 2.459763 1_556
Ge0 Pd17 2.459763 1_465
Ge0 Pd15 2.459763 1_565
Ge0 Pd1 2.508943 1_555
Ge0 Pd3 2.508943 1_555
Ge0 Pd2 2.508943 1_555
Ge0 Pd7 2.508950 1_555
Ge1 Pd16 2.451391 1_555
Ge1 Pd11 2.453647 1_555
Ge1 Pd8 2.453647 1_554
Ge1 Pd19 2.462455 1_555
Ge1 Pd7 2.504617 1_555
Ge1 Pd3 2.504624 1_555
Ge1 Pd4 2.507756 1_555
Ge1 Pd0 2.507756 1_555
Ge2 Pd18 2.451391 1_555
Ge2 Pd10 2.453647 1_655
Ge2 Pd9 2.453647 1_545
Ge2 Pd17 2.462455 1_555
Ge2 Pd2 2.504616 1_555
Ge2 Pd1 2.504617 1_555
Ge2 Pd6 2.507756 1_555
Ge2 Pd5 2.507770 1_555
Ge3 Pd12 2.451391 1_555
Ge3 Pd10 2.453647 1_555
Ge3 Pd8 2.453648 1_545
Ge3 Pd15 2.462455 1_555
Ge3 Pd7 2.504617 1_555
Ge3 Pd2 2.504624 1_555
Ge3 Pd5 2.507756 1_555
Ge3 Pd0 2.507756 1_555
Ge4 Pd13 2.451392 1_555
Ge4 Pd11 2.453647 1_655
Ge4 Pd9 2.453648 1_554
Ge4 Pd14 2.462455 1_555
Ge4 Pd3 2.504616 1_555
Ge4 Pd1 2.504617 1_555
Ge4 Pd6 2.507756 1_555
Ge4 Pd4 2.507770 1_555
As0 Pd12 2.456168 1_654
As0 Pd18 2.456168 1_554
As0 Pd16 2.456168 1_645
As0 Pd13 2.456168 1_545
As0 Pd5 2.522619 1_555
As0 Pd0 2.522619 1_555
As0 Pd4 2.522619 1_555
As0 Pd6 2.522633 1_555
As0 Ca2 3.322826 1_644
Pd0 Pd10 3.058351 1_555
Pd0 Pd11 3.058351 1_555
Pd1 Pd11 3.073499 1_655
Pd1 Pd10 3.073499 1_655
Pd2 Pd9 3.073497 1_545
Pd2 Pd8 3.073501 1_545
Pd3 Pd9 3.073497 1_554
Pd3 Pd8 3.073501 1_554
Pd4 Pd8 3.058346 1_554
Pd4 Pd9 3.058354 1_554
Pd5 Pd8 3.058346 1_545
Pd5 Pd9 3.058354 1_545
Pd8 Pd9 2.667115 1_555
Pd10 Pd11 2.667116 1_555
Pd10 Pd15 3.046215 1_555
Pd10 Pd17 3.046215 1_455
Pd10 Pd6 3.058337 1_455
Pd10 Pd7 3.073492 1_555
Pd10 Pd18 3.075332 1_455
Pd10 Pd12 3.075332 1_555
Pd11 Pd19 3.046214 1_555
Pd11 Pd14 3.046215 1_455
Pd11 Pd6 3.058337 1_455
Pd11 Pd7 3.073492 1_555
Pd11 Pd13 3.075332 1_455
Pd11 Pd16 3.075332 1_555
Pd12 Pd14 2.682359 1_456
Pd12 Pd8 3.075332 1_545
Pd13 Pd15 2.682359 1_565
Pd13 Pd9 3.075332 1_554
Pd14 Pd9 3.046215 1_554
Pd15 Pd8 3.046215 1_545
Pd16 Pd17 2.682359 1_465
Pd16 Pd8 3.075332 1_554
Pd17 Pd9 3.046214 1_545
Pd18 Pd19 2.682359 1_556
Pd18 Pd9 3.075332 1_545
Pd19 Pd8 3.046215 1_554
