# generated using pymatgen
data_CuBiPdSe3
_symmetry_space_group_name_H-M   'P 1'
_cell_length_a   5.11724387
_cell_length_b   8.06706148
_cell_length_c   13.40521292
_cell_angle_alpha   90.00000000
_cell_angle_beta   90.00000000
_cell_angle_gamma   90.00000000
_symmetry_Int_Tables_number   1
_chemical_formula_structural   CuBiPdSe3
_chemical_formula_sum   'Cu4 Bi4 Pd4 Se12'
_cell_volume   553.38221498
_cell_formula_units_Z   4
loop_
 _symmetry_equiv_pos_site_id
 _symmetry_equiv_pos_as_xyz
  1  'x, y, z'
loop_
 _atom_site_type_symbol
 _atom_site_label
 _atom_site_symmetry_multiplicity
 _atom_site_fract_x
 _atom_site_fract_y
 _atom_site_fract_z
 _atom_site_occupancy
  Cu  Cu0  1  0.47194701  0.88915878  0.44133143  1
  Cu  Cu1  1  0.97194701  0.61084122  0.55866857  1
  Cu  Cu2  1  0.52805299  0.38915878  0.05866857  1
  Cu  Cu3  1  0.02805299  0.11084122  0.94133143  1
  Bi  Bi0  1  0.40782412  0.88079138  0.13402117  1
  Bi  Bi1  1  0.90782412  0.61920862  0.86597883  1
  Bi  Bi2  1  0.59217588  0.38079138  0.36597883  1
  Bi  Bi3  1  0.09217588  0.11920862  0.63402117  1
  Pd  Pd0  1  0.00661954  0.63574980  0.24997121  1
  Pd  Pd1  1  0.50661954  0.86425020  0.75002879  1
  Pd  Pd2  1  0.99338046  0.13574980  0.25002879  1
  Pd  Pd3  1  0.49338046  0.36425020  0.74997121  1
  Se  Se0  1  0.76893377  0.63600221  0.08724313  1
  Se  Se1  1  0.26893377  0.86399779  0.91275687  1
  Se  Se2  1  0.23106623  0.13600221  0.41275687  1
  Se  Se3  1  0.73106623  0.36399779  0.58724313  1
  Se  Se4  1  0.75504353  0.88387897  0.29819662  1
  Se  Se5  1  0.25504353  0.61612103  0.70180338  1
  Se  Se6  1  0.24495647  0.38387897  0.20180338  1
  Se  Se7  1  0.74495647  0.11612103  0.79819662  1
  Se  Se8  1  0.23695331  0.63582421  0.41340035  1
  Se  Se9  1  0.73695331  0.86417579  0.58659965  1
  Se  Se10  1  0.76304669  0.13582421  0.08659965  1
  Se  Se11  1  0.26304669  0.36417579  0.91340035  1
loop_
_geom_bond_atom_site_label_1
_geom_bond_atom_site_label_2
_geom_bond_distance
_geom_bond_site_symmetry_2
Cu0 Se2 2.373062 1_565
Cu0 Se9 2.381556 1_555
Cu0 Se8 2.400586 1_555
Cu0 Se4 2.404596 1_555
Cu1 Se3 2.373062 1_555
Cu1 Se8 2.381556 1_655
Cu1 Se9 2.400586 1_555
Cu1 Se5 2.404596 1_655
Cu2 Se0 2.373062 1_555
Cu2 Se11 2.381556 1_554
Cu2 Se10 2.400586 1_555
Cu2 Se6 2.404596 1_555
Cu3 Se1 2.373062 1_545
Cu3 Se10 2.381556 1_456
Cu3 Se11 2.400586 1_555
Cu3 Se7 2.404596 1_455
Bi0 Se0 2.776230 1_555
Bi0 Se10 2.817998 1_565
Bi0 Se4 2.828641 1_555
Bi0 Se1 3.053067 1_554
Bi0 Pd0 3.246324 1_555
Bi0 Pd2 3.338633 1_465
Bi1 Se1 2.776230 1_655
Bi1 Se11 2.817998 1_655
Bi1 Se5 2.828641 1_655
Bi1 Se0 3.053067 1_556
Bi1 Pd1 3.246324 1_555
Bi1 Pd3 3.338633 1_555
Bi2 Se2 2.776230 1_555
Bi2 Se8 2.817998 1_555
Bi2 Se6 2.828641 1_555
Bi2 Se3 3.053067 1_555
Bi2 Pd2 3.246324 1_555
Bi2 Pd0 3.338633 1_655
Bi3 Se3 2.776230 1_455
Bi3 Se9 2.817998 1_445
Bi3 Se7 2.828641 1_455
Bi3 Se2 3.053067 1_555
Bi3 Pd3 3.246324 1_555
Bi3 Pd1 3.338633 1_545
Pd0 Se6 2.456189 1_555
Pd0 Se4 2.466163 1_455
Pd0 Se8 2.487748 1_555
Pd0 Se0 2.497580 1_455
Pd1 Se7 2.456189 1_565
Pd1 Se5 2.466163 1_555
Pd1 Se9 2.487748 1_555
Pd1 Se1 2.497580 1_555
Pd2 Se4 2.456189 1_545
Pd2 Se6 2.466163 1_655
Pd2 Se10 2.487748 1_555
Pd2 Se2 2.497580 1_655
Pd3 Se5 2.456189 1_555
Pd3 Se7 2.466163 1_555
Pd3 Se11 2.487748 1_555
Pd3 Se3 2.497580 1_555
