# generated using pymatgen
data_LiSc(CoH3)2
_symmetry_space_group_name_H-M   'P 1'
_cell_length_a   4.60874592
_cell_length_b   4.60874610
_cell_length_c   4.60874575
_cell_angle_alpha   59.94689698
_cell_angle_beta   59.94689385
_cell_angle_gamma   59.94689539
_symmetry_Int_Tables_number   1
_chemical_formula_structural   LiSc(CoH3)2
_chemical_formula_sum   'Li1 Sc1 Co2 H6'
_cell_volume   69.13690196
_cell_formula_units_Z   1
loop_
 _symmetry_equiv_pos_site_id
 _symmetry_equiv_pos_as_xyz
  1  'x, y, z'
loop_
 _atom_site_type_symbol
 _atom_site_label
 _atom_site_symmetry_multiplicity
 _atom_site_fract_x
 _atom_site_fract_y
 _atom_site_fract_z
 _atom_site_occupancy
  Li  Li0  1  0.75000000  0.75000000  0.75000000  1
  Sc  Sc0  1  0.25000000  0.25000000  0.25000000  1
  Co  Co0  1  0.00007035  0.00007035  0.00007035  1
  Co  Co1  1  0.49992965  0.49992965  0.49992965  1
  H  H0  1  0.74999900  0.25558112  0.24441988  1
  H  H1  1  0.74720898  0.75278902  0.25000100  1
  H  H2  1  0.24441788  0.75000100  0.25558112  1
  H  H3  1  0.75279102  0.24999900  0.74720898  1
  H  H4  1  0.25558012  0.24442088  0.74999900  1
  H  H5  1  0.25000100  0.74720898  0.75279002  1
loop_
_geom_bond_atom_site_label_1
_geom_bond_atom_site_label_2
_geom_bond_distance
_geom_bond_site_symmetry_2
Co0 H2 1.628524 1_545
Co0 H4 1.628531 1_554
Co0 H0 1.628531 1_455
Co0 H3 1.629294 1_454
Co0 H5 1.629297 1_544
Co0 H1 1.629300 1_445
Co1 H4 1.628524 1_555
Co1 H0 1.628524 1_555
Co1 H2 1.628531 1_555
Co1 H1 1.629287 1_555
Co1 H5 1.629290 1_555
Co1 H3 1.629294 1_555
H0 Li0 2.276824 1_554
H0 Sc0 2.304514 1_555
H0 Sc0 2.304519 1_655
H0 Li0 2.328222 1_545
H1 Sc0 2.289675 1_565
H1 Li0 2.304409 1_554
H1 Li0 2.304409 1_555
H1 Sc0 2.315371 1_655
H2 Li0 2.276819 1_455
H2 Sc0 2.304514 1_565
H2 Sc0 2.304519 1_555
H2 Li0 2.328227 1_554
H3 Sc0 2.289670 1_655
H3 Li0 2.304404 1_545
H3 Li0 2.304413 1_555
H3 Sc0 2.315376 1_556
H4 Li0 2.276829 1_545
H4 Sc0 2.304514 1_555
H4 Sc0 2.304518 1_556
H4 Li0 2.328218 1_455
H5 Sc0 2.289673 1_556
H5 Li0 2.304406 1_555
H5 Li0 2.304411 1_455
H5 Sc0 2.315374 1_565
