# generated using pymatgen
data_Hf2Ta2NbN6
_symmetry_space_group_name_H-M   'P 1'
_cell_length_a   5.28483649
_cell_length_b   5.29551362
_cell_length_c   10.53499423
_cell_angle_alpha   90.00000000
_cell_angle_beta   90.00000000
_cell_angle_gamma   120.06683646
_symmetry_Int_Tables_number   1
_chemical_formula_structural   Hf2Ta2NbN6
_chemical_formula_sum   'Hf4 Ta4 Nb2 N12'
_cell_volume   255.15947005
_cell_formula_units_Z   2
loop_
 _symmetry_equiv_pos_site_id
 _symmetry_equiv_pos_as_xyz
  1  'x, y, z'
loop_
 _atom_site_type_symbol
 _atom_site_label
 _atom_site_symmetry_multiplicity
 _atom_site_fract_x
 _atom_site_fract_y
 _atom_site_fract_z
 _atom_site_occupancy
  Hf  Hf0  1  0.66555265  0.33352804  0.99962881  1
  Hf  Hf1  1  0.33444735  0.66797638  0.99962881  1
  Hf  Hf2  1  0.33444735  0.66797638  0.50037119  1
  Hf  Hf3  1  0.66555265  0.33352804  0.50037119  1
  Ta  Ta0  1  0.00000000  0.31817111  0.75000000  1
  Ta  Ta1  1  0.31719228  0.31788540  0.25000000  1
  Ta  Ta2  1  0.68280772  0.00069312  0.25000000  1
  Ta  Ta3  1  1.00000000  0.68302915  0.25000000  1
  Nb  Nb0  1  0.68055593  0.67981883  0.75000000  1
  Nb  Nb1  1  0.31944407  0.99926290  0.75000000  1
  N  N0  1  0.65292715  0.65328814  0.37332124  1
  N  N1  1  0.34707285  0.00036099  0.37332124  1
  N  N2  1  1.00000000  0.34846191  0.37324468  1
  N  N3  1  0.34235295  0.34619562  0.62446544  1
  N  N4  1  0.65764705  0.00384268  0.62446544  1
  N  N5  1  0.00000000  0.64691447  0.62529409  1
  N  N6  1  0.34235295  0.34619562  0.87553456  1
  N  N7  1  0.65764705  0.00384268  0.87553456  1
  N  N8  1  0.00000000  0.64691447  0.87470591  1
  N  N9  1  0.65292715  0.65328814  0.12667876  1
  N  N10  1  0.34707285  0.00036099  0.12667876  1
  N  N11  1  1.00000000  0.34846191  0.12675532  1
loop_
_geom_bond_atom_site_label_1
_geom_bond_atom_site_label_2
_geom_bond_distance
_geom_bond_site_symmetry_2
Hf0 N8 2.161247 1_655
Hf0 N7 2.164666 1_555
Hf0 N6 2.178506 1_555
Hf0 N10 2.182108 1_556
Hf0 N9 2.185500 1_556
Hf0 N11 2.187215 1_556
Hf1 N8 2.161245 1_555
Hf1 N6 2.164670 1_555
Hf1 N7 2.178504 1_565
Hf1 N9 2.182110 1_556
Hf1 N10 2.185496 1_566
Hf1 N11 2.187218 1_456
Hf2 N5 2.161245 1_555
Hf2 N3 2.164670 1_555
Hf2 N4 2.178504 1_565
Hf2 N0 2.182110 1_555
Hf2 N1 2.185496 1_565
Hf2 N2 2.187218 1_455
Hf3 N5 2.161247 1_655
Hf3 N4 2.164666 1_555
Hf3 N3 2.178506 1_555
Hf3 N1 2.182108 1_555
Hf3 N0 2.185500 1_555
Hf3 N2 2.187215 1_555
N0 Ta3 2.188060 1_555
N0 Ta2 2.192300 1_565
N0 Ta1 2.198391 1_555
N1 Ta3 2.188061 1_445
N1 Ta1 2.192300 1_555
N1 Ta2 2.198391 1_555
N2 Ta1 2.189520 1_655
N2 Ta2 2.189521 1_555
N2 Ta3 2.196528 1_555
N3 Ta0 2.185290 1_555
N3 Nb0 2.213772 1_555
N3 Nb1 2.217219 1_545
N4 Ta0 2.185290 1_655
N4 Nb1 2.213772 1_545
N4 Nb0 2.217219 1_545
N5 Ta0 2.180967 1_555
N5 Nb0 2.213860 1_455
N5 Nb1 2.213861 1_555
N6 Ta0 2.185290 1_555
N6 Nb0 2.213772 1_555
N6 Nb1 2.217219 1_545
N7 Ta0 2.185290 1_655
N7 Nb1 2.213772 1_545
N7 Nb0 2.217219 1_545
N8 Ta0 2.180967 1_555
N8 Nb0 2.213860 1_455
N8 Nb1 2.213861 1_555
N9 Ta3 2.188060 1_555
N9 Ta2 2.192300 1_565
N9 Ta1 2.198391 1_555
N10 Ta3 2.188061 1_445
N10 Ta1 2.192300 1_555
N10 Ta2 2.198391 1_555
N11 Ta1 2.189520 1_655
N11 Ta2 2.189521 1_555
N11 Ta3 2.196528 1_555
