# generated using pymatgen
data_Rb3NaFeO4
_symmetry_space_group_name_H-M   'P 1'
_cell_length_a   6.37056866
_cell_length_b   10.43023567
_cell_length_c   10.76680989
_cell_angle_alpha   69.25273413
_cell_angle_beta   90.00000000
_cell_angle_gamma   90.00000000
_symmetry_Int_Tables_number   1
_chemical_formula_structural   Rb3NaFeO4
_chemical_formula_sum   'Rb12 Na4 Fe4 O16'
_cell_volume   669.02389260
_cell_formula_units_Z   4
loop_
 _symmetry_equiv_pos_site_id
 _symmetry_equiv_pos_as_xyz
  1  'x, y, z'
loop_
 _atom_site_type_symbol
 _atom_site_label
 _atom_site_symmetry_multiplicity
 _atom_site_fract_x
 _atom_site_fract_y
 _atom_site_fract_z
 _atom_site_occupancy
  Rb  Rb0  1  0.64381171  0.04685184  0.32916433  1
  Rb  Rb1  1  0.12480386  0.31912115  0.59771264  1
  Rb  Rb2  1  0.39092201  0.54229669  0.31275912  1
  Rb  Rb3  1  0.10907799  0.54229669  0.81275912  1
  Rb  Rb4  1  0.85618829  0.04685184  0.82916433  1
  Rb  Rb5  1  0.60907799  0.45770331  0.68724088  1
  Rb  Rb6  1  0.87519614  0.68087885  0.40228736  1
  Rb  Rb7  1  0.14381171  0.95314816  0.17083567  1
  Rb  Rb8  1  0.62480386  0.68087885  0.90228736  1
  Rb  Rb9  1  0.37519614  0.31912115  0.09771264  1
  Rb  Rb10  1  0.35618829  0.95314816  0.67083567  1
  Rb  Rb11  1  0.89092201  0.45770331  0.18724088  1
  Na  Na0  1  0.60916652  0.87324861  0.10609481  1
  Na  Na1  1  0.39083348  0.12675139  0.89390519  1
  Na  Na2  1  0.89083348  0.87324861  0.60609481  1
  Na  Na3  1  0.10916652  0.12675139  0.39390519  1
  Fe  Fe0  1  0.36799356  0.76040288  0.48148881  1
  Fe  Fe1  1  0.63200644  0.23959712  0.51851119  1
  Fe  Fe2  1  0.86799356  0.23959712  0.01851119  1
  Fe  Fe3  1  0.13200644  0.76040288  0.98148881  1
  O  O0  1  0.98368326  0.19516248  0.18110285  1
  O  O1  1  0.48368326  0.80483752  0.31889715  1
  O  O2  1  0.25487646  0.59617634  0.05427118  1
  O  O3  1  0.15558035  0.88346557  0.45387823  1
  O  O4  1  0.74512354  0.40382366  0.94572882  1
  O  O5  1  0.40741722  0.24647963  0.41412000  1
  O  O6  1  0.65558035  0.11653443  0.04612177  1
  O  O7  1  0.01631674  0.80483752  0.81889715  1
  O  O8  1  0.75487646  0.40382366  0.44572882  1
  O  O9  1  0.09258278  0.24647963  0.91412000  1
  O  O10  1  0.34441965  0.88346557  0.95387823  1
  O  O11  1  0.84441965  0.11653443  0.54612177  1
  O  O12  1  0.59258278  0.75352037  0.58588000  1
  O  O13  1  0.24512354  0.59617634  0.55427118  1
  O  O14  1  0.51631674  0.19516248  0.68110285  1
  O  O15  1  0.90741722  0.75352037  0.08588000  1
loop_
_geom_bond_atom_site_label_1
_geom_bond_atom_site_label_2
_geom_bond_distance
_geom_bond_site_symmetry_2
Na0 O1 2.288995 1_555
Na0 O15 2.325839 1_555
Na0 O10 2.327692 1_554
Na0 O6 2.404692 1_565
Na1 O14 2.288995 1_555
Na1 O9 2.325839 1_555
Na1 O6 2.327692 1_556
Na1 O10 2.404692 1_545
Na2 O7 2.288995 1_655
Na2 O12 2.325839 1_555
Na2 O3 2.327692 1_655
Na2 O11 2.404692 1_565
Na3 O0 2.288995 1_455
Na3 O5 2.325839 1_555
Na3 O11 2.327692 1_455
Na3 O3 2.404692 1_545
Fe0 O13 1.791611 1_555
Fe0 O1 1.802147 1_555
Fe0 O12 1.805091 1_555
Fe0 O3 1.815687 1_555
Fe1 O8 1.791611 1_555
Fe1 O14 1.802147 1_555
Fe1 O5 1.805091 1_555
Fe1 O11 1.815687 1_555
Fe2 O4 1.791611 1_554
Fe2 O0 1.802147 1_555
Fe2 O9 1.805091 1_654
Fe2 O6 1.815687 1_555
Fe3 O2 1.791611 1_556
Fe3 O7 1.802147 1_555
Fe3 O15 1.805091 1_456
Fe3 O10 1.815687 1_555
O0 Rb7 2.760881 1_645
O0 Rb0 2.806259 1_555
O0 Rb9 2.806448 1_655
O0 Rb11 2.824965 1_555
O1 Rb0 2.760881 1_565
O1 Rb7 2.806259 1_555
O1 Rb6 2.806448 1_555
O1 Rb2 2.824965 1_555
O2 Rb2 2.775689 1_555
O2 Rb8 2.826267 1_554
O2 Rb11 2.836648 1_455
O2 Rb9 2.863451 1_555
O2 Rb3 2.995913 1_554
O3 Rb7 2.872571 1_555
O3 Rb6 2.965727 1_455
O3 Rb10 2.970012 1_555
O4 Rb5 2.775689 1_555
O4 Rb9 2.826267 1_556
O4 Rb3 2.836648 1_655
O4 Rb8 2.863451 1_555
O4 Rb11 2.995913 1_556
O5 Rb2 2.887271 1_555
O5 Rb1 2.963782 1_555
O5 Rb0 2.964691 1_555
O5 Rb9 3.223827 1_555
O6 Rb0 2.872571 1_555
O6 Rb9 2.965727 1_555
O6 Rb4 2.970012 1_554
O7 Rb4 2.760881 1_465
O7 Rb10 2.806259 1_555
O7 Rb8 2.806448 1_455
O7 Rb3 2.824965 1_555
O8 Rb11 2.775689 1_555
O8 Rb1 2.826267 1_655
O8 Rb2 2.836648 1_555
O8 Rb6 2.863451 1_555
O8 Rb5 2.995913 1_555
O9 Rb3 2.887271 1_555
O9 Rb9 2.963782 1_556
O9 Rb4 2.964691 1_455
O9 Rb1 3.223827 1_555
O10 Rb10 2.872571 1_555
O10 Rb8 2.965727 1_555
O10 Rb7 2.970012 1_556
O11 Rb4 2.872571 1_555
O11 Rb1 2.965727 1_655
O11 Rb0 2.970012 1_555
O12 Rb5 2.887271 1_555
O12 Rb6 2.963782 1_555
O12 Rb10 2.964691 1_555
O12 Rb8 3.223827 1_555
O13 Rb3 2.775689 1_555
O13 Rb6 2.826267 1_455
O13 Rb5 2.836648 1_555
O13 Rb1 2.863451 1_555
O13 Rb2 2.995913 1_555
O14 Rb10 2.760881 1_545
O14 Rb4 2.806259 1_555
O14 Rb1 2.806448 1_555
O14 Rb5 2.824965 1_555
O15 Rb11 2.887271 1_555
O15 Rb8 2.963782 1_554
O15 Rb7 2.964691 1_655
O15 Rb6 3.223827 1_555
