# generated using pymatgen
data_Ho2Co12P7
_symmetry_space_group_name_H-M   'P 1'
_cell_length_a   8.91582568
_cell_length_b   8.91592151
_cell_length_c   3.57663698
_cell_angle_alpha   90.00000046
_cell_angle_beta   90.00000146
_cell_angle_gamma   119.99781411
_symmetry_Int_Tables_number   1
_chemical_formula_structural   Ho2Co12P7
_chemical_formula_sum   'Ho2 Co12 P7'
_cell_volume   246.23107713
_cell_formula_units_Z   1
loop_
 _symmetry_equiv_pos_site_id
 _symmetry_equiv_pos_as_xyz
  1  'x, y, z'
loop_
 _atom_site_type_symbol
 _atom_site_label
 _atom_site_symmetry_multiplicity
 _atom_site_fract_x
 _atom_site_fract_y
 _atom_site_fract_z
 _atom_site_occupancy
  Ho  Ho0  1  0.66667297  0.33334276  0.50000002  1
  Ho  Ho1  1  0.33333629  0.66666902  0.00000004  1
  Co  Co0  1  0.11940928  0.84665170  -0.00000020  1
  Co  Co1  1  0.38176672  0.43308229  0.50000007  1
  Co  Co2  1  0.72724803  0.88056526  0.00000007  1
  Co  Co3  1  0.56689818  0.94864779  0.50000010  1
  Co  Co4  1  0.22769695  0.09965321  0.49999999  1
  Co  Co5  1  0.87192189  0.77229128  0.49999997  1
  Co  Co6  1  0.90034046  0.12806084  0.50000010  1
  Co  Co7  1  0.94031749  0.37291851  -0.00000005  1
  Co  Co8  1  0.62709199  0.56741550  0.00000005  1
  Co  Co9  1  0.43260488  0.05969963  -0.00000002  1
  Co  Co10  1  0.05131496  0.61823345  0.49999993  1
  Co  Co11  1  0.15336504  0.27279435  -0.00000000  1
  P  P0  1  -0.00001865  -0.00002925  0.00000003  1
  P  P1  1  0.59628801  0.70771674  0.50000004  1
  P  P2  1  0.70357638  0.11209040  -0.00000005  1
  P  P3  1  0.88789579  0.59148335  -0.00000006  1
  P  P4  1  0.40853853  0.29643344  -0.00000003  1
  P  P5  1  0.29228114  0.88854495  0.50000000  1
  P  P6  1  0.11145267  0.40373679  0.49999999  1
loop_
_geom_bond_atom_site_label_1
_geom_bond_atom_site_label_2
_geom_bond_distance
_geom_bond_site_symmetry_2
Ho0 P4 2.801048 1_556
Ho0 P4 2.801048 1_555
Ho0 P3 2.801125 1_556
Ho0 P3 2.801126 1_555
Ho0 P2 2.801209 1_556
Ho0 P2 2.801210 1_555
Ho1 P5 2.823034 1_555
Ho1 P5 2.823034 1_554
Ho1 P6 2.823117 1_555
Ho1 P6 2.823117 1_554
Ho1 P1 2.823195 1_555
Ho1 P1 2.823195 1_554
Co0 P0 2.111373 1_565
Co0 P3 2.177345 1_455
Co0 P5 2.266611 1_554
Co0 P5 2.266612 1_555
Co0 Ho1 3.045251 1_555
Co1 P1 2.229552 1_555
Co1 P4 2.242817 1_556
Co1 P4 2.242817 1_555
Co1 P6 2.290496 1_555
Co1 Ho1 2.936178 1_556
Co1 Ho1 2.936179 1_555
Co2 P0 2.111327 1_665
Co2 P2 2.177464 1_565
Co2 P1 2.266520 1_555
Co2 P1 2.266520 1_554
Co2 Ho1 3.045345 1_555
Co3 P5 2.229359 1_555
Co3 P2 2.242976 1_566
Co3 P2 2.242977 1_565
Co3 P1 2.290401 1_555
Co3 Ho1 2.936010 1_556
Co3 Ho1 2.936010 1_555
Co4 P5 2.226678 1_545
Co4 P4 2.459127 1_556
Co4 P4 2.459127 1_555
Co4 P0 2.511111 1_555
Co4 P0 2.511111 1_556
Co5 P1 2.226210 1_555
Co5 P3 2.459006 1_556
Co5 P3 2.459006 1_555
Co5 P0 2.510955 1_665
Co5 P0 2.510956 1_666
Co6 P6 2.226671 1_655
Co6 P2 2.458901 1_556
Co6 P2 2.458901 1_555
Co6 P0 2.511187 1_656
Co6 P0 2.511188 1_655
Co7 P3 2.219603 1_555
Co7 P2 2.225991 1_555
Co7 P6 2.276501 1_654
Co7 P6 2.276502 1_655
Co7 Ho0 2.900728 1_554
Co7 Ho0 2.900729 1_555
Co7 Ho1 3.156151 1_655
Co8 P4 2.219623 1_555
Co8 P3 2.225767 1_555
Co8 P1 2.276364 1_555
Co8 P1 2.276364 1_554
Co8 Ho0 2.900779 1_555
Co8 Ho0 2.900779 1_554
Co8 Ho1 3.155983 1_555
Co9 P2 2.219571 1_555
Co9 P4 2.225750 1_555
Co9 P5 2.276612 1_544
Co9 P5 2.276612 1_545
Co9 Ho0 2.900783 1_554
Co9 Ho0 2.900783 1_555
Co9 Ho1 3.156217 1_545
Co10 P6 2.229402 1_555
Co10 P3 2.242852 1_455
Co10 P3 2.242852 1_456
Co10 P5 2.290556 1_555
Co10 Ho1 2.936198 1_555
Co10 Ho1 2.936198 1_556
Co11 P0 2.112063 1_555
Co11 P4 2.177372 1_555
Co11 P6 2.266484 1_555
Co11 P6 2.266484 1_554
Co11 Ho1 3.045091 1_555
