# generated using pymatgen
data_K3Ag(AsAu)2
_symmetry_space_group_name_H-M   'P 1'
_cell_length_a   7.85366833
_cell_length_b   7.85366808
_cell_length_c   7.53849618
_cell_angle_alpha   45.81451821
_cell_angle_beta   45.81451777
_cell_angle_gamma   46.92749493
_symmetry_Int_Tables_number   1
_chemical_formula_structural   K3Ag(AsAu)2
_chemical_formula_sum   'K3 Ag1 As2 Au2'
_cell_volume   220.82798494
_cell_formula_units_Z   1
loop_
 _symmetry_equiv_pos_site_id
 _symmetry_equiv_pos_as_xyz
  1  'x, y, z'
loop_
 _atom_site_type_symbol
 _atom_site_label
 _atom_site_symmetry_multiplicity
 _atom_site_fract_x
 _atom_site_fract_y
 _atom_site_fract_z
 _atom_site_occupancy
  K  K0  1  0.08698888  0.08698888  0.08673816  1
  K  K1  1  0.91301112  0.91301112  0.91326184  1
  K  K2  1  0.50000000  0.50000000  0.50000000  1
  Ag  Ag0  1  0.50000000  0.50000000  0.00000000  1
  As  As0  1  0.75421110  0.75421110  0.75514437  1
  As  As1  1  0.24578890  0.24578890  0.24485563  1
  Au  Au0  1  0.00000000  0.50000000  0.50000000  1
  Au  Au1  1  0.50000000  0.00000000  0.50000000  1
loop_
_geom_bond_atom_site_label_1
_geom_bond_atom_site_label_2
_geom_bond_distance
_geom_bond_site_symmetry_2
K0 K2 3.870187 1_554
K0 K2 3.888629 1_455
K0 K2 3.888629 1_545
K1 K2 3.870187 1_556
K1 K2 3.888629 1_655
K1 K2 3.888629 1_565
Ag0 As0 2.559139 1_554
Ag0 As1 2.559139 1_555
Ag0 Au1 2.999143 1_564
Ag0 Au1 2.999143 1_555
Ag0 Au0 2.999143 1_654
Ag0 Au0 2.999143 1_555
Ag0 K0 3.608683 1_565
Ag0 K1 3.608683 1_544
Ag0 K0 3.608683 1_655
Ag0 K1 3.608683 1_454
Ag0 K2 3.769248 1_555
Ag0 K2 3.769248 1_554
As0 Au0 2.514991 1_655
As0 Au1 2.514991 1_565
As0 K1 3.286420 1_555
As0 K0 3.415483 1_665
As0 K0 3.560910 1_656
As0 K0 3.560910 1_566
As0 K2 3.700185 1_556
As0 K2 3.958400 1_565
As0 K2 3.958400 1_655
As1 Au0 2.514991 1_555
As1 Au1 2.514991 1_555
As1 K0 3.286420 1_555
As1 K1 3.415483 1_445
As1 K1 3.560910 1_454
As1 K1 3.560910 1_544
As1 K2 3.700185 1_554
As1 K2 3.958400 1_545
As1 K2 3.958400 1_455
Au0 K0 3.426114 1_556
Au0 K1 3.426114 1_454
Au0 K0 3.569219 1_565
Au0 K1 3.569219 1_445
Au0 K2 3.926834 1_555
Au0 K2 3.926834 1_455
Au1 K0 3.426114 1_556
Au1 K1 3.426114 1_544
Au1 K0 3.569219 1_655
Au1 K1 3.569219 1_445
Au1 K2 3.926834 1_555
Au1 K2 3.926834 1_545
