# generated using pymatgen
data_Ca5Ga2Pb
_symmetry_space_group_name_H-M   'P 1'
_cell_length_a   9.38464631
_cell_length_b   9.38464597
_cell_length_c   9.38464571
_cell_angle_alpha   129.05145690
_cell_angle_beta   129.05145997
_cell_angle_gamma   74.92778834
_symmetry_Int_Tables_number   1
_chemical_formula_structural   Ca5Ga2Pb
_chemical_formula_sum   'Ca10 Ga4 Pb2'
_cell_volume   485.44571161
_cell_formula_units_Z   2
loop_
 _symmetry_equiv_pos_site_id
 _symmetry_equiv_pos_as_xyz
  1  'x, y, z'
loop_
 _atom_site_type_symbol
 _atom_site_label
 _atom_site_symmetry_multiplicity
 _atom_site_fract_x
 _atom_site_fract_y
 _atom_site_fract_z
 _atom_site_occupancy
  Ca  Ca0  1  0.50000000  0.50000000  0.00000000  1
  Ca  Ca1  1  0.00000000  0.00000000  0.00000000  1
  Ca  Ca2  1  0.54346083  0.04346083  0.86004248  1
  Ca  Ca3  1  0.18341835  0.68341835  0.13995752  1
  Ca  Ca4  1  0.04346083  0.18341835  0.50000000  1
  Ca  Ca5  1  0.68341835  0.54346083  0.50000000  1
  Ca  Ca6  1  0.45653917  0.95653917  0.13995752  1
  Ca  Ca7  1  0.81658165  0.31658165  0.86004248  1
  Ca  Ca8  1  0.95653917  0.81658165  0.50000000  1
  Ca  Ca9  1  0.31658165  0.45653917  0.50000000  1
  Ga  Ga0  1  0.89008144  0.39008144  0.28016489  1
  Ga  Ga1  1  0.10991856  0.60991856  0.71983511  1
  Ga  Ga2  1  0.39008144  0.10991856  0.50000000  1
  Ga  Ga3  1  0.60991856  0.89008144  0.50000000  1
  Pb  Pb0  1  0.25000000  0.25000000  0.00000000  1
  Pb  Pb1  1  0.75000000  0.75000000  0.00000000  1
loop_
_geom_bond_atom_site_label_1
_geom_bond_atom_site_label_2
_geom_bond_distance
_geom_bond_site_symmetry_2
Ca0 Ga2 3.271674 1_554
Ca0 Ga3 3.271674 1_555
Ca0 Ga0 3.271680 1_555
Ca0 Ga1 3.271680 1_554
Ca0 Ca9 3.594931 1_554
Ca0 Ca5 3.594931 1_555
Ca0 Ca6 3.594931 1_555
Ca0 Ca2 3.594931 1_554
Ca0 Ca8 3.594931 1_555
Ca0 Ca4 3.594931 1_554
Ca0 Ca7 3.594931 1_554
Ca0 Ca3 3.594931 1_555
Ca0 Pb0 3.724470 1_555
Ca0 Pb1 3.724470 1_555
Ca1 Ga2 3.271674 1_555
Ca1 Ga3 3.271674 1_444
Ca1 Ga0 3.271680 1_455
Ca1 Ga1 3.271680 1_544
Ca1 Ca4 3.594931 1_555
Ca1 Ca8 3.594931 1_444
Ca1 Ca7 3.594931 1_454
Ca1 Ca3 3.594931 1_545
Ca1 Ca9 3.594931 1_555
Ca1 Ca5 3.594931 1_444
Ca1 Ca6 3.594931 1_545
Ca1 Ca2 3.594931 1_454
Ca1 Pb0 3.724470 1_555
Ca1 Pb1 3.724470 1_445
Ca2 Ga0 3.144884 1_556
Ca2 Ga2 3.152428 1_555
Ca2 Ga3 3.152428 1_545
Ca2 Pb1 3.411837 1_546
Ca2 Pb0 3.411837 1_556
Ca2 Ca6 3.738667 1_546
Ca3 Ga1 3.144903 1_554
Ca3 Ga2 3.152428 1_565
Ca3 Ga3 3.152428 1_555
Ca3 Pb0 3.411837 1_555
Ca3 Pb1 3.411837 1_455
Ca3 Ca7 3.738667 1_454
Ca4 Ga2 3.144885 1_555
Ca4 Ga0 3.152414 1_455
Ca4 Ga1 3.152433 1_555
Ca4 Pb0 3.411837 1_556
Ca4 Pb1 3.411837 1_445
Ca4 Ca8 3.738667 1_445
Ca5 Ga3 3.144885 1_555
Ca5 Ga0 3.152414 1_555
Ca5 Ga1 3.152433 1_655
Ca5 Pb1 3.411837 1_556
Ca5 Pb0 3.411837 1_555
Ca5 Ca9 3.738667 1_555
Ca6 Ga1 3.144884 1_554
Ca6 Ga3 3.152428 1_555
Ca6 Ga2 3.152428 1_565
Ca6 Pb0 3.411837 1_565
Ca6 Pb1 3.411837 1_555
Ca7 Ga0 3.144903 1_556
Ca7 Ga3 3.152428 1_545
Ca7 Ga2 3.152428 1_555
Ca7 Pb1 3.411837 1_556
Ca7 Pb0 3.411837 1_656
Ca8 Ga3 3.144885 1_555
Ca8 Ga1 3.152414 1_655
Ca8 Ga0 3.152433 1_555
Ca8 Pb1 3.411837 1_555
Ca8 Pb0 3.411837 1_666
Ca9 Ga2 3.144885 1_555
Ca9 Ga1 3.152414 1_555
Ca9 Ga0 3.152433 1_455
Ca9 Pb0 3.411837 1_555
Ca9 Pb1 3.411837 1_556
Ga0 Ga1 2.509777 1_655
Ga2 Ga3 2.509800 1_545
