# generated using pymatgen
data_InHgBPt6
_symmetry_space_group_name_H-M   'P 1'
_cell_length_a   5.82868771
_cell_length_b   5.82868742
_cell_length_c   5.82868744
_cell_angle_alpha   60.00000542
_cell_angle_beta   60.00000708
_cell_angle_gamma   59.99999667
_symmetry_Int_Tables_number   1
_chemical_formula_structural   InHgBPt6
_chemical_formula_sum   'In1 Hg1 B1 Pt6'
_cell_volume   140.02234692
_cell_formula_units_Z   1
loop_
 _symmetry_equiv_pos_site_id
 _symmetry_equiv_pos_as_xyz
  1  'x, y, z'
loop_
 _atom_site_type_symbol
 _atom_site_label
 _atom_site_symmetry_multiplicity
 _atom_site_fract_x
 _atom_site_fract_y
 _atom_site_fract_z
 _atom_site_occupancy
  In  In0  1  0.75000000  0.75000000  0.75000000  1
  Hg  Hg0  1  0.25000000  0.25000000  0.25000000  1
  B  B0  1  0.49999900  0.49999900  0.49999900  1
  Pt  Pt0  1  0.24382865  0.75617035  0.24382865  1
  Pt  Pt1  1  0.75617035  0.75617035  0.24382865  1
  Pt  Pt2  1  0.75617035  0.24382865  0.24382865  1
  Pt  Pt3  1  0.24382865  0.24382865  0.75617035  1
  Pt  Pt4  1  0.75617035  0.24382865  0.75617035  1
  Pt  Pt5  1  0.24382865  0.75617035  0.75617035  1
loop_
_geom_bond_atom_site_label_1
_geom_bond_atom_site_label_2
_geom_bond_distance
_geom_bond_site_symmetry_2
In0 Pt4 2.914782 1_565
In0 Pt1 2.914782 1_556
In0 Pt5 2.914782 1_655
In0 Pt3 2.914788 1_655
In0 Pt3 2.914788 1_565
In0 Pt2 2.914788 1_556
In0 Pt2 2.914788 1_565
In0 Pt0 2.914788 1_556
In0 Pt0 2.914788 1_655
In0 Pt4 2.914793 1_555
In0 Pt1 2.914793 1_555
In0 Pt5 2.914793 1_555
Hg0 Pt0 2.914782 1_555
Hg0 Pt3 2.914782 1_555
Hg0 Pt2 2.914782 1_555
Hg0 Pt1 2.914787 1_455
Hg0 Pt1 2.914787 1_545
Hg0 Pt5 2.914788 1_554
Hg0 Pt5 2.914788 1_545
Hg0 Pt4 2.914788 1_554
Hg0 Pt4 2.914788 1_455
Hg0 Pt0 2.914793 1_545
Hg0 Pt3 2.914793 1_554
Hg0 Pt2 2.914794 1_455
B0 Pt0 2.111614 1_555
B0 Pt2 2.111614 1_555
B0 Pt3 2.111615 1_555
B0 Pt5 2.111623 1_555
B0 Pt4 2.111623 1_555
B0 Pt1 2.111623 1_555
