# generated using pymatgen
data_Zr6Zn19Pt4C
_symmetry_space_group_name_H-M   'P 1'
_cell_length_a   8.66483265
_cell_length_b   8.66483178
_cell_length_c   8.66483119
_cell_angle_alpha   59.94077064
_cell_angle_beta   59.94077048
_cell_angle_gamma   59.94077194
_symmetry_Int_Tables_number   1
_chemical_formula_structural   Zr6Zn19Pt4C
_chemical_formula_sum   'Zr6 Zn19 Pt4 C1'
_cell_volume   459.39008086
_cell_formula_units_Z   1
loop_
 _symmetry_equiv_pos_site_id
 _symmetry_equiv_pos_as_xyz
  1  'x, y, z'
loop_
 _atom_site_type_symbol
 _atom_site_label
 _atom_site_symmetry_multiplicity
 _atom_site_fract_x
 _atom_site_fract_y
 _atom_site_fract_z
 _atom_site_occupancy
  Zr  Zr0  1  0.68626771  0.31063345  0.31063345  1
  Zr  Zr1  1  0.31373229  0.68936655  0.68936655  1
  Zr  Zr2  1  0.31063345  0.68626771  0.31063345  1
  Zr  Zr3  1  0.68936655  0.31373229  0.68936655  1
  Zr  Zr4  1  0.31063345  0.31063345  0.68626771  1
  Zr  Zr5  1  0.68936655  0.68936655  0.31373229  1
  Zn  Zn0  1  0.12027528  0.12027528  0.12027528  1
  Zn  Zn1  1  0.87972472  0.87972472  0.87972472  1
  Zn  Zn2  1  0.12170011  0.12170011  0.63713826  1
  Zn  Zn3  1  0.12170011  0.63713826  0.12170011  1
  Zn  Zn4  1  0.87829989  0.87829989  0.36286174  1
  Zn  Zn5  1  0.87829989  0.36286174  0.87829989  1
  Zn  Zn6  1  0.63713826  0.12170011  0.12170011  1
  Zn  Zn7  1  0.36286174  0.87829989  0.87829989  1
  Zn  Zn8  1  0.50000000  0.00000000  0.00000000  1
  Zn  Zn9  1  0.00000000  0.50000000  0.00000000  1
  Zn  Zn10  1  0.00000000  0.00000000  0.50000000  1
  Zn  Zn11  1  0.33119286  0.33119286  0.33119286  1
  Zn  Zn12  1  0.66880714  0.66880714  0.66880714  1
  Zn  Zn13  1  0.33007648  0.33007648  0.00262883  1
  Zn  Zn14  1  0.33007648  0.00262883  0.33007648  1
  Zn  Zn15  1  0.66992352  0.66992352  0.99737117  1
  Zn  Zn16  1  0.66992352  0.99737117  0.66992352  1
  Zn  Zn17  1  0.00262883  0.33007648  0.33007648  1
  Zn  Zn18  1  0.99737117  0.66992352  0.66992352  1
  Pt  Pt0  1  0.00000000  0.50000000  0.50000000  1
  Pt  Pt1  1  0.50000000  0.00000000  0.50000000  1
  Pt  Pt2  1  0.50000000  0.50000000  0.00000000  1
  Pt  Pt3  1  0.00000000  0.00000000  0.00000000  1
  C  C0  1  0.50000000  0.50000000  0.50000000  1
loop_
_geom_bond_atom_site_label_1
_geom_bond_atom_site_label_2
_geom_bond_distance
_geom_bond_site_symmetry_2
Zn0 Zn10 2.686219 1_555
Zn0 Zn9 2.686219 1_555
Zn0 Zn8 2.686220 1_555
Zn1 Zn10 2.686219 1_665
Zn1 Zn9 2.686219 1_656
Zn1 Zn8 2.686220 1_566
Zn3 Zn9 2.694545 1_555
Zn5 Zn9 2.694545 1_656
Zn6 Zn8 2.694545 1_555
Zn7 Zn8 2.694545 1_566
Zn8 Zr5 3.168752 1_545
Zn8 Zr4 3.168752 1_554
Zn8 Zr3 3.168752 1_554
Zn8 Zr2 3.168752 1_545
Zn9 Zr5 3.168752 1_455
Zn9 Zr4 3.168752 1_554
Zn9 Zr1 3.168752 1_554
Zn9 Zr0 3.168752 1_455
Zn10 Zn17 2.482214 1_555
Zn10 Zn18 2.482214 1_445
Zn10 Zn14 2.482214 1_555
Zn10 Zn16 2.482214 1_445
Zn10 Zn2 2.694545 1_555
Zn10 Zn4 2.694545 1_445
Zn10 Zr3 3.168752 1_455
Zn10 Zr2 3.168752 1_545
Zn10 Zr1 3.168753 1_545
Zn10 Zr0 3.168753 1_455
Zn13 Zn8 2.482214 1_555
Zn13 Zn9 2.482214 1_555
Zn14 Zn8 2.482213 1_555
Zn15 Zn8 2.482214 1_566
Zn15 Zn9 2.482214 1_656
Zn16 Zn8 2.482213 1_566
Zn17 Zn9 2.482213 1_555
Zn18 Zn9 2.482213 1_656
Pt0 Zn12 2.499495 1_455
Pt0 Zn11 2.499495 1_555
Pt0 Zn18 2.537858 1_455
Pt0 Zn17 2.537858 1_555
Pt0 Zn3 2.675658 1_555
Pt0 Zn5 2.675658 1_455
Pt0 Zn4 2.675658 1_455
Pt0 Zn2 2.675658 1_555
Pt0 Zr4 3.133127 1_555
Pt0 Zr5 3.133127 1_455
Pt0 Zr2 3.133127 1_555
Pt0 Zr3 3.133127 1_455
Pt1 Zn12 2.499495 1_545
Pt1 Zn11 2.499495 1_555
Pt1 Zn16 2.537858 1_545
Pt1 Zn14 2.537858 1_555
Pt1 Zn7 2.675658 1_545
Pt1 Zn6 2.675658 1_555
Pt1 Zn4 2.675658 1_545
Pt1 Zn2 2.675658 1_555
Pt1 Zr4 3.133126 1_555
Pt1 Zr5 3.133126 1_545
Pt1 Zr0 3.133127 1_555
Pt1 Zr1 3.133127 1_545
Pt2 Zn12 2.499495 1_554
Pt2 Zn11 2.499495 1_555
Pt2 Zn15 2.537858 1_554
Pt2 Zn13 2.537858 1_555
Pt2 Zn7 2.675658 1_554
Pt2 Zn6 2.675658 1_555
Pt2 Zn5 2.675658 1_554
Pt2 Zn3 2.675658 1_555
Pt2 Zr2 3.133126 1_555
Pt2 Zr3 3.133126 1_554
Pt2 Zr0 3.133126 1_555
Pt2 Zr1 3.133126 1_554
Pt3 Zn0 2.553915 1_555
Pt3 Zn1 2.553915 1_444
Pt3 Zn4 2.565276 1_445
Pt3 Zn2 2.565276 1_554
Pt3 Zn5 2.565276 1_454
Pt3 Zn3 2.565276 1_545
Pt3 Zn7 2.565276 1_544
Pt3 Zn6 2.565276 1_455
C0 Zr1 2.319634 1_555
C0 Zr0 2.319634 1_555
C0 Zr3 2.319634 1_555
C0 Zr2 2.319634 1_555
C0 Zr5 2.319634 1_555
C0 Zr4 2.319634 1_555
