# generated using pymatgen
data_SrInSn2Pt
_symmetry_space_group_name_H-M   'P 1'
_cell_length_a   6.66573682
_cell_length_b   6.66573733
_cell_length_c   6.66573816
_cell_angle_alpha   139.07091952
_cell_angle_beta   137.03122500
_cell_angle_gamma   60.84023928
_symmetry_Int_Tables_number   1
_chemical_formula_structural   SrInSn2Pt
_chemical_formula_sum   'Sr1 In1 Sn2 Pt1'
_cell_volume   130.81624969
_cell_formula_units_Z   1
loop_
 _symmetry_equiv_pos_site_id
 _symmetry_equiv_pos_as_xyz
  1  'x, y, z'
loop_
 _atom_site_type_symbol
 _atom_site_label
 _atom_site_symmetry_multiplicity
 _atom_site_fract_x
 _atom_site_fract_y
 _atom_site_fract_z
 _atom_site_occupancy
  Sr  Sr0  1  0.00675479  0.00675479  0.00000000  1
  In  In0  1  0.24798819  0.74798819  0.50000000  1
  Sn  Sn0  1  0.75755522  0.25755522  0.50000000  1
  Sn  Sn1  1  0.42041696  0.42041696  0.00000000  1
  Pt  Pt0  1  0.64638585  0.64638585  0.00000000  1
loop_
_geom_bond_atom_site_label_1
_geom_bond_atom_site_label_2
_geom_bond_distance
_geom_bond_site_symmetry_2
In0 Pt0 2.706348 1_455
In0 Pt0 2.706348 1_556
In0 Sn1 3.059538 1_566
In0 Sn1 3.059538 1_555
In0 Sr0 3.622482 1_555
In0 Sr0 3.622482 1_566
In0 Sr0 3.848330 1_666
In0 Sr0 3.848330 1_565
Sn0 Sn1 3.076602 1_656
Sn0 Sn1 3.076602 1_555
Sn0 Sr0 3.693064 1_666
Sn0 Sr0 3.693064 1_655
Sn0 Sr0 3.777982 1_555
Sn0 Sr0 3.777983 1_656
Sn1 Sr0 3.518027 1_655
Sn1 Sr0 3.518027 1_565
Sn1 Sr0 3.518029 1_666
Sn1 Sr0 3.518029 1_554
Pt0 Sn1 2.597786 1_555
Pt0 Sn0 2.657951 1_565
Pt0 Sn0 2.657951 1_554
Pt0 Sr0 3.737392 1_565
Pt0 Sr0 3.737392 1_655
Pt0 Sr0 3.737394 1_554
Pt0 Sr0 3.737394 1_666
