# generated using pymatgen
data_Hf6Ti4Al12Rh7
_symmetry_space_group_name_H-M   'P 1'
_cell_length_a   8.69205808
_cell_length_b   8.69205791
_cell_length_c   8.69205751
_cell_angle_alpha   60.00000152
_cell_angle_beta   60.00000217
_cell_angle_gamma   59.99999865
_symmetry_Int_Tables_number   1
_chemical_formula_structural   Hf6Ti4Al12Rh7
_chemical_formula_sum   'Hf6 Ti4 Al12 Rh7'
_cell_volume   464.35789270
_cell_formula_units_Z   1
loop_
 _symmetry_equiv_pos_site_id
 _symmetry_equiv_pos_as_xyz
  1  'x, y, z'
loop_
 _atom_site_type_symbol
 _atom_site_label
 _atom_site_symmetry_multiplicity
 _atom_site_fract_x
 _atom_site_fract_y
 _atom_site_fract_z
 _atom_site_occupancy
  Hf  Hf0  1  0.68815987  0.68815987  0.31184013  1
  Hf  Hf1  1  0.31184013  0.68815987  0.31184013  1
  Hf  Hf2  1  0.68815987  0.31184013  0.31184013  1
  Hf  Hf3  1  0.31184013  0.31184013  0.68815987  1
  Hf  Hf4  1  0.68815987  0.31184013  0.68815987  1
  Hf  Hf5  1  0.31184013  0.68815987  0.68815987  1
  Ti  Ti0  1  0.88040487  0.88040487  0.35878738  1
  Ti  Ti1  1  0.88040487  0.35878738  0.88040487  1
  Ti  Ti2  1  0.35878738  0.88040487  0.88040487  1
  Ti  Ti3  1  0.88040487  0.88040487  0.88040487  1
  Al  Al0  1  0.12019238  0.12019238  0.63942287  1
  Al  Al1  1  0.12019238  0.63942287  0.12019238  1
  Al  Al2  1  0.63942287  0.12019238  0.12019238  1
  Al  Al3  1  0.12019238  0.12019238  0.12019238  1
  Al  Al4  1  0.66331688  0.66331688  0.01004936  1
  Al  Al5  1  0.66331688  0.01004936  0.66331688  1
  Al  Al6  1  0.01004936  0.66331688  0.66331688  1
  Al  Al7  1  0.66331688  0.66331688  0.66331688  1
  Al  Al8  1  0.33535337  0.33535337  0.99394088  1
  Al  Al9  1  0.33535337  0.99394088  0.33535337  1
  Al  Al10  1  0.99394088  0.33535337  0.33535337  1
  Al  Al11  1  0.33535337  0.33535337  0.33535337  1
  Rh  Rh0  1  0.00000000  0.00000000  0.00000000  1
  Rh  Rh1  1  0.99808073  0.99808073  0.50191927  1
  Rh  Rh2  1  0.50191927  0.99808073  0.50191927  1
  Rh  Rh3  1  0.99808073  0.50191927  0.50191927  1
  Rh  Rh4  1  0.50191927  0.50191927  0.99808073  1
  Rh  Rh5  1  0.99808073  0.50191927  0.99808073  1
  Rh  Rh6  1  0.50191927  0.99808073  0.99808073  1
loop_
_geom_bond_atom_site_label_1
_geom_bond_atom_site_label_2
_geom_bond_distance
_geom_bond_site_symmetry_2
Hf0 Ti3 3.147536 1_554
Hf0 Ti0 3.147548 1_555
Hf0 Rh2 3.165816 1_555
Hf0 Rh6 3.165816 1_554
Hf0 Rh3 3.165816 1_555
Hf0 Rh5 3.165816 1_554
Hf1 Ti2 3.147533 1_554
Hf1 Ti0 3.147533 1_455
Hf1 Rh4 3.165816 1_554
Hf1 Rh1 3.165816 1_455
Hf1 Rh6 3.165816 1_554
Hf1 Rh3 3.165816 1_455
Hf2 Ti1 3.147533 1_554
Hf2 Ti0 3.147533 1_545
Hf2 Rh4 3.165816 1_554
Hf2 Rh1 3.165816 1_545
Hf2 Rh2 3.165816 1_545
Hf2 Rh5 3.165816 1_554
Hf3 Ti2 3.147533 1_545
Hf3 Ti1 3.147533 1_455
Hf3 Rh2 3.165816 1_545
Hf3 Rh6 3.165816 1_545
Hf3 Rh3 3.165816 1_455
Hf3 Rh5 3.165816 1_455
Hf4 Ti3 3.147536 1_545
Hf4 Ti1 3.147548 1_555
Hf4 Rh4 3.165816 1_555
Hf4 Rh1 3.165816 1_545
Hf4 Rh6 3.165816 1_545
Hf4 Rh3 3.165816 1_555
Hf5 Ti3 3.147536 1_455
Hf5 Ti2 3.147548 1_555
Hf5 Rh4 3.165816 1_555
Hf5 Rh1 3.165816 1_455
Hf5 Rh2 3.165816 1_555
Hf5 Rh5 3.165816 1_455
Al0 Rh0 2.559029 1_556
Al0 Rh1 2.710230 1_445
Al0 Rh3 2.710230 1_455
Al0 Rh2 2.710230 1_545
Al0 Hf5 3.148908 1_545
Al0 Hf3 3.148908 1_555
Al0 Hf4 3.148908 1_455
Al1 Rh0 2.559029 1_565
Al1 Rh5 2.710230 1_454
Al1 Rh3 2.710230 1_455
Al1 Rh4 2.710230 1_554
Al1 Hf5 3.148908 1_554
Al1 Hf1 3.148908 1_555
Al1 Hf0 3.148908 1_455
Al2 Rh0 2.559029 1_655
Al2 Rh6 2.710230 1_544
Al2 Rh2 2.710230 1_545
Al2 Rh4 2.710230 1_554
Al2 Hf4 3.148908 1_554
Al2 Hf2 3.148908 1_555
Al2 Hf0 3.148908 1_545
Al3 Rh0 2.559029 1_555
Al3 Rh1 2.710230 1_445
Al3 Rh5 2.710230 1_454
Al3 Rh6 2.710230 1_544
Al3 Hf1 3.148908 1_545
Al3 Hf3 3.148908 1_554
Al3 Hf2 3.148908 1_455
Al4 Rh6 2.491366 1_554
Al4 Rh5 2.491366 1_554
Al4 Rh4 2.491366 1_554
Al4 Hf0 2.855496 1_555
Al4 Hf2 2.855496 1_555
Al4 Hf1 2.855496 1_555
Al5 Rh6 2.491366 1_545
Al5 Rh2 2.491366 1_545
Al5 Rh1 2.491366 1_545
Al5 Hf3 2.855496 1_555
Al5 Hf4 2.855496 1_555
Al5 Hf2 2.855496 1_555
Al6 Rh5 2.491366 1_455
Al6 Rh3 2.491366 1_455
Al6 Rh1 2.491366 1_455
Al6 Hf3 2.855496 1_555
Al6 Hf5 2.855496 1_555
Al6 Hf1 2.855496 1_555
Al7 Rh2 2.491366 1_555
Al7 Rh3 2.491366 1_555
Al7 Rh4 2.491366 1_555
Al7 Hf0 2.855496 1_555
Al7 Hf4 2.855496 1_555
Al7 Hf5 2.855496 1_555
Al8 Rh4 2.528610 1_555
Al8 Rh6 2.528617 1_545
Al8 Rh5 2.528617 1_455
Al8 Hf5 2.876796 1_555
Al8 Hf4 2.876796 1_555
Al8 Hf3 2.876801 1_555
Al9 Rh2 2.528610 1_555
Al9 Rh6 2.528617 1_554
Al9 Rh1 2.528617 1_455
Al9 Hf0 2.876796 1_555
Al9 Hf5 2.876796 1_555
Al9 Hf1 2.876801 1_555
Al10 Rh3 2.528610 1_555
Al10 Rh5 2.528617 1_554
Al10 Rh1 2.528617 1_545
Al10 Hf0 2.876796 1_555
Al10 Hf4 2.876796 1_555
Al10 Hf2 2.876801 1_555
Al11 Rh2 2.528615 1_545
Al11 Rh3 2.528615 1_455
Al11 Rh4 2.528615 1_554
Al11 Hf3 2.876793 1_555
Al11 Hf1 2.876793 1_555
Al11 Hf2 2.876793 1_555
Rh0 Ti3 2.546313 1_444
Rh0 Ti0 2.546327 1_445
Rh0 Ti1 2.546327 1_454
Rh0 Ti2 2.546327 1_544
Rh1 Ti0 2.689148 1_555
Rh1 Ti3 2.689162 1_555
Rh2 Ti2 2.689162 1_555
Rh2 Ti0 2.689162 1_555
Rh3 Ti1 2.689162 1_555
Rh3 Ti0 2.689162 1_555
Rh4 Ti2 2.689162 1_555
Rh4 Ti1 2.689162 1_555
Rh5 Ti1 2.689148 1_555
Rh5 Ti3 2.689162 1_555
Rh6 Ti2 2.689148 1_555
Rh6 Ti3 2.689162 1_555
