# generated using pymatgen
data_Sr6BiPPb8
_symmetry_space_group_name_H-M   'P 1'
_cell_length_a   9.06167159
_cell_length_b   9.06167112
_cell_length_c   9.06167110
_cell_angle_alpha   119.44780170
_cell_angle_beta   119.44778594
_cell_angle_gamma   90.95913724
_symmetry_Int_Tables_number   1
_chemical_formula_structural   Sr6BiPPb8
_chemical_formula_sum   'Sr6 Bi1 P1 Pb8'
_cell_volume   530.46152449
_cell_formula_units_Z   1
loop_
 _symmetry_equiv_pos_site_id
 _symmetry_equiv_pos_as_xyz
  1  'x, y, z'
loop_
 _atom_site_type_symbol
 _atom_site_label
 _atom_site_symmetry_multiplicity
 _atom_site_fract_x
 _atom_site_fract_y
 _atom_site_fract_z
 _atom_site_occupancy
  Sr  Sr0  1  0.26626737  0.26626737  0.00000000  1
  Sr  Sr1  1  0.73373263  0.73373263  1.00000000  1
  Sr  Sr2  1  0.19027407  0.64552468  0.83579875  1
  Sr  Sr3  1  0.80972593  0.35447532  0.16420125  1
  Sr  Sr4  1  0.64552468  0.80972593  0.45525062  1
  Sr  Sr5  1  0.35447532  0.19027407  0.54474938  1
  Bi  Bi0  1  0.00000000  0.00000000  0.00000000  1
  P  P0  1  0.50000000  0.50000000  0.00000000  1
  Pb  Pb0  1  0.83619519  0.32076817  0.78686048  1
  Pb  Pb1  1  0.16380481  0.67923183  0.21313952  1
  Pb  Pb2  1  0.53390869  0.04933371  0.21313952  1
  Pb  Pb3  1  0.32076817  0.53390869  0.48457398  1
  Pb  Pb4  1  0.95066629  0.16380481  0.48457398  1
  Pb  Pb5  1  0.46609131  0.95066629  0.78686048  1
  Pb  Pb6  1  0.67923183  0.46609131  0.51542602  1
  Pb  Pb7  1  0.04933371  0.83619519  0.51542602  1
loop_
_geom_bond_atom_site_label_1
_geom_bond_atom_site_label_2
_geom_bond_distance
_geom_bond_site_symmetry_2
Bi0 Sr0 3.383573 1_555
Bi0 Sr1 3.383573 1_444
Bi0 Sr2 3.676028 1_544
Bi0 Sr3 3.676028 1_455
Bi0 Sr5 3.676028 1_555
Bi0 Sr4 3.676028 1_444
P0 Sr1 2.970140 1_554
P0 Sr0 2.970140 1_555
P0 Sr4 3.126840 1_555
P0 Sr5 3.126840 1_554
P0 Sr3 3.126840 1_555
P0 Sr2 3.126840 1_554
Pb0 Pb4 3.100760 1_555
Pb0 Pb6 3.100760 1_555
Pb0 Pb1 3.217128 1_656
Pb0 Sr3 3.409492 1_556
Pb0 Sr0 3.572603 1_656
Pb0 Sr5 3.623008 1_555
Pb0 Sr1 3.656368 1_555
Pb0 Sr4 3.795343 1_545
Pb0 Sr2 4.019124 1_655
Pb1 Pb7 3.100760 1_555
Pb1 Pb3 3.100760 1_555
Pb1 Sr2 3.409492 1_554
Pb1 Sr1 3.572603 1_454
Pb1 Sr4 3.623008 1_555
Pb1 Sr0 3.656368 1_555
Pb1 Sr5 3.795343 1_565
Pb1 Sr3 4.019124 1_455
Pb2 Pb6 3.100760 1_555
Pb2 Pb4 3.100760 1_555
Pb2 Pb5 3.217126 1_544
Pb2 Sr2 3.409491 1_544
Pb2 Sr0 3.572614 1_555
Pb2 Sr4 3.622999 1_545
Pb2 Sr1 3.656357 1_544
Pb2 Sr5 3.795350 1_555
Pb2 Sr3 4.019125 1_555
Pb3 Pb5 3.100760 1_555
Pb3 Pb6 3.217138 1_555
Pb3 Sr5 3.409497 1_555
Pb3 Sr0 3.572611 1_555
Pb3 Sr2 3.623000 1_555
Pb3 Sr1 3.656366 1_555
Pb3 Sr3 3.795344 1_455
Pb3 Sr4 4.019125 1_555
Pb4 Pb7 3.217116 1_645
Pb4 Sr5 3.409487 1_655
Pb4 Sr1 3.572606 1_544
Pb4 Sr2 3.623006 1_655
Pb4 Sr0 3.656361 1_656
Pb4 Sr3 3.795351 1_555
Pb4 Sr4 4.019124 1_545
Pb5 Pb7 3.100760 1_555
Pb5 Sr3 3.409491 1_566
Pb5 Sr1 3.572614 1_555
Pb5 Sr5 3.622999 1_565
Pb5 Sr0 3.656357 1_566
Pb5 Sr4 3.795350 1_555
Pb5 Sr2 4.019125 1_555
Pb6 Sr4 3.409497 1_555
Pb6 Sr1 3.572611 1_555
Pb6 Sr3 3.623000 1_555
Pb6 Sr0 3.656366 1_555
Pb6 Sr2 3.795344 1_655
Pb6 Sr5 4.019125 1_555
Pb7 Sr4 3.409487 1_455
Pb7 Sr0 3.572606 1_566
Pb7 Sr3 3.623006 1_455
Pb7 Sr1 3.656361 1_454
Pb7 Sr2 3.795351 1_555
Pb7 Sr5 4.019124 1_565
