# generated using pymatgen
data_MgNbIrRu
_symmetry_space_group_name_H-M   'P 1'
_cell_length_a   4.42930688
_cell_length_b   4.42930731
_cell_length_c   4.42930639
_cell_angle_alpha   60.00000687
_cell_angle_beta   60.00000367
_cell_angle_gamma   60.00000564
_symmetry_Int_Tables_number   1
_chemical_formula_structural   MgNbIrRu
_chemical_formula_sum   'Mg1 Nb1 Ir1 Ru1'
_cell_volume   61.44582260
_cell_formula_units_Z   1
loop_
 _symmetry_equiv_pos_site_id
 _symmetry_equiv_pos_as_xyz
  1  'x, y, z'
loop_
 _atom_site_type_symbol
 _atom_site_label
 _atom_site_symmetry_multiplicity
 _atom_site_fract_x
 _atom_site_fract_y
 _atom_site_fract_z
 _atom_site_occupancy
  Mg  Mg0  1  0.50000000  0.50000000  0.50000000  1
  Nb  Nb0  1  0.00000000  0.00000000  0.00000000  1
  Ir  Ir0  1  0.25000000  0.25000000  0.25000000  1
  Ru  Ru0  1  0.75000000  0.75000000  0.75000000  1
loop_
_geom_bond_atom_site_label_1
_geom_bond_atom_site_label_2
_geom_bond_distance
_geom_bond_site_symmetry_2
Mg0 Ru0 2.712385 1_555
Mg0 Ru0 2.712385 1_554
Mg0 Ru0 2.712386 1_455
Mg0 Ru0 2.712386 1_545
Nb0 Ru0 2.712385 1_444
Nb0 Ru0 2.712385 1_445
Nb0 Ru0 2.712386 1_544
Nb0 Ru0 2.712386 1_454
Ir0 Mg0 2.712385 1_554
Ir0 Mg0 2.712385 1_555
Ir0 Nb0 2.712385 1_556
Ir0 Nb0 2.712385 1_555
Ir0 Mg0 2.712386 1_455
Ir0 Nb0 2.712386 1_655
Ir0 Mg0 2.712386 1_545
Ir0 Nb0 2.712386 1_565
