# generated using pymatgen
data_RbBaGaO3
_symmetry_space_group_name_H-M   'P 1'
_cell_length_a   6.57629561
_cell_length_b   6.57629507
_cell_length_c   12.88364390
_cell_angle_alpha   90.00000000
_cell_angle_beta   90.00000000
_cell_angle_gamma   127.62214037
_symmetry_Int_Tables_number   1
_chemical_formula_structural   RbBaGaO3
_chemical_formula_sum   'Rb4 Ba4 Ga4 O12'
_cell_volume   441.32244795
_cell_formula_units_Z   4
loop_
 _symmetry_equiv_pos_site_id
 _symmetry_equiv_pos_as_xyz
  1  'x, y, z'
loop_
 _atom_site_type_symbol
 _atom_site_label
 _atom_site_symmetry_multiplicity
 _atom_site_fract_x
 _atom_site_fract_y
 _atom_site_fract_z
 _atom_site_occupancy
  Rb  Rb0  1  0.45713766  0.54286234  0.64321819  1
  Rb  Rb1  1  0.54286234  0.45713766  0.35678181  1
  Rb  Rb2  1  0.04286234  0.95713766  0.14321819  1
  Rb  Rb3  1  0.95713766  0.04286234  0.85678181  1
  Ba  Ba0  1  0.64488499  0.35511501  0.91915686  1
  Ba  Ba1  1  0.85511501  0.14488499  0.41915686  1
  Ba  Ba2  1  0.14488499  0.85511501  0.58084314  1
  Ba  Ba3  1  0.35511501  0.64488499  0.08084314  1
  Ga  Ga0  1  0.22478254  0.77521746  0.33514475  1
  Ga  Ga1  1  0.72478254  0.27521746  0.16485525  1
  Ga  Ga2  1  0.77521746  0.22478254  0.66485525  1
  Ga  Ga3  1  0.27521746  0.72478254  0.83514475  1
  O  O0  1  0.98462918  0.51537082  0.75000000  1
  O  O1  1  0.51537082  0.98462918  0.25000000  1
  O  O2  1  0.01537082  0.48462918  0.25000000  1
  O  O3  1  0.48462918  0.01537082  0.75000000  1
  O  O4  1  0.42497092  0.57502908  0.87502364  1
  O  O5  1  0.57502908  0.42497092  0.12497636  1
  O  O6  1  0.07502908  0.92497092  0.37502364  1
  O  O7  1  0.67751196  0.32248804  0.55307954  1
  O  O8  1  0.17751196  0.82248804  0.94692046  1
  O  O9  1  0.82248804  0.17751196  0.05307954  1
  O  O10  1  0.32248804  0.67751196  0.44692046  1
  O  O11  1  0.92497092  0.07502908  0.62497636  1
loop_
_geom_bond_atom_site_label_1
_geom_bond_atom_site_label_2
_geom_bond_distance
_geom_bond_site_symmetry_2
Ba0 O4 2.657064 1_555
Ba0 O9 2.714932 1_556
Ba0 O5 2.776920 1_556
Ba0 O3 2.824425 1_555
Ba0 O0 2.824425 1_555
Ba0 O8 2.949537 1_545
Ba0 O8 2.949537 1_655
Ba1 O6 2.657064 1_645
Ba1 O7 2.714932 1_555
Ba1 O11 2.776920 1_555
Ba1 O2 2.824425 1_655
Ba1 O1 2.824425 1_545
Ba1 O10 2.949537 1_655
Ba1 O10 2.949537 1_545
Ba2 O11 2.657064 1_465
Ba2 O10 2.714932 1_555
Ba2 O6 2.776920 1_555
Ba2 O0 2.824425 1_455
Ba2 O3 2.824425 1_565
Ba2 O7 2.949537 1_455
Ba2 O7 2.949537 1_565
Ba3 O5 2.657064 1_555
Ba3 O8 2.714932 1_554
Ba3 O4 2.776920 1_554
Ba3 O1 2.824425 1_555
Ba3 O2 2.824425 1_555
Ba3 O9 2.949537 1_565
Ba3 O9 2.949537 1_455
Ga0 O6 1.840612 1_555
Ga0 O10 1.844885 1_555
Ga0 O2 1.881147 1_555
Ga0 O1 1.881147 1_555
Ga1 O5 1.840612 1_555
Ga1 O9 1.844885 1_555
Ga1 O1 1.881147 1_545
Ga1 O2 1.881147 1_655
Ga2 O11 1.840612 1_555
Ga2 O7 1.844885 1_555
Ga2 O0 1.881147 1_555
Ga2 O3 1.881147 1_555
Ga3 O4 1.840612 1_555
Ga3 O8 1.844885 1_555
Ga3 O3 1.881147 1_565
Ga3 O0 1.881147 1_455
O4 Rb3 2.936478 1_455
O4 Rb3 2.936478 1_565
O4 Rb0 3.010532 1_555
O5 Rb2 2.936478 1_655
O5 Rb2 2.936478 1_545
O5 Rb1 3.010532 1_555
O6 Rb1 2.936478 1_565
O6 Rb1 2.936478 1_455
O6 Rb2 3.010532 1_555
O7 Rb0 2.848431 1_555
O7 Rb1 2.986890 1_555
O8 Rb3 2.848431 1_465
O8 Rb2 2.986890 1_556
O9 Rb2 2.848431 1_645
O9 Rb3 2.986890 1_554
O10 Rb1 2.848431 1_555
O10 Rb0 2.986890 1_555
O11 Rb0 2.936478 1_545
O11 Rb0 2.936478 1_655
O11 Rb3 3.010532 1_555
