# generated using pymatgen
data_Ca3Y2Si12Ir19
_symmetry_space_group_name_H-M   'P 1'
_cell_length_a   12.74701596
_cell_length_b   12.74701721
_cell_length_c   3.99425466
_cell_angle_alpha   90.00000000
_cell_angle_beta   90.00000000
_cell_angle_gamma   120.00000694
_symmetry_Int_Tables_number   1
_chemical_formula_structural   Ca3Y2Si12Ir19
_chemical_formula_sum   'Ca3 Y2 Si12 Ir19'
_cell_volume   562.06100310
_cell_formula_units_Z   1
loop_
 _symmetry_equiv_pos_site_id
 _symmetry_equiv_pos_as_xyz
  1  'x, y, z'
loop_
 _atom_site_type_symbol
 _atom_site_label
 _atom_site_symmetry_multiplicity
 _atom_site_fract_x
 _atom_site_fract_y
 _atom_site_fract_z
 _atom_site_occupancy
  Ca  Ca0  1  1.00000000  0.18260619  0.50000000  1
  Ca  Ca1  1  0.81739381  0.81739381  0.50000000  1
  Ca  Ca2  1  0.18260619  1.00000000  0.50000000  1
  Y  Y0  1  0.66666700  0.33333300  0.00000000  1
  Y  Y1  1  0.33333300  0.66666700  0.00000000  1
  Si  Si0  1  0.47888450  0.31051491  0.50000000  1
  Si  Si1  1  0.81697834  1.00000000  0.00000000  1
  Si  Si2  1  0.18302166  0.18302166  0.00000000  1
  Si  Si3  1  1.00000000  0.81697834  0.00000000  1
  Si  Si4  1  0.36860363  0.00000000  0.00000000  1
  Si  Si5  1  0.68948509  0.16837060  0.50000000  1
  Si  Si6  1  0.83162940  0.52111550  0.50000000  1
  Si  Si7  1  0.52111550  0.83162940  0.50000000  1
  Si  Si8  1  0.16837060  0.68948509  0.50000000  1
  Si  Si9  1  0.31051491  0.47888450  0.50000000  1
  Si  Si10  1  0.00000000  0.36860363  0.00000000  1
  Si  Si11  1  0.63139637  0.63139637  0.00000000  1
  Ir  Ir0  1  0.80489566  0.18415475  0.00000000  1
  Ir  Ir1  1  0.37925809  0.19510434  0.00000000  1
  Ir  Ir2  1  0.63711624  0.51083058  0.50000000  1
  Ir  Ir3  1  0.87371334  0.36288376  0.50000000  1
  Ir  Ir4  1  0.36288376  0.87371334  0.50000000  1
  Ir  Ir5  1  0.51083058  0.63711624  0.50000000  1
  Ir  Ir6  1  0.12628666  0.48916942  0.50000000  1
  Ir  Ir7  1  0.81584525  0.62074191  0.00000000  1
  Ir  Ir8  1  0.62074191  0.81584525  0.00000000  1
  Ir  Ir9  1  0.18415475  0.80489566  0.00000000  1
  Ir  Ir10  1  0.19510434  0.37925809  0.00000000  1
  Ir  Ir11  1  1.00000000  0.71677357  0.50000000  1
  Ir  Ir12  1  0.28322643  0.28322643  0.50000000  1
  Ir  Ir13  1  0.71677357  1.00000000  0.50000000  1
  Ir  Ir14  1  1.00000000  0.55243003  0.00000000  1
  Ir  Ir15  1  0.44756997  0.44756997  0.00000000  1
  Ir  Ir16  1  0.55243003  1.00000000  0.00000000  1
  Ir  Ir17  1  0.00000000  0.00000000  0.00000000  1
  Ir  Ir18  1  0.48916942  0.12628666  0.50000000  1
loop_
_geom_bond_atom_site_label_1
_geom_bond_atom_site_label_2
_geom_bond_distance
_geom_bond_site_symmetry_2
Ca0 Ir17 3.067023 1_655
Ca0 Ir17 3.067023 1_656
Ca0 Si1 3.069037 1_545
Ca0 Si1 3.069037 1_546
Ca0 Si2 3.069037 1_656
Ca0 Si2 3.069037 1_655
Ca0 Si10 3.099959 1_656
Ca0 Si10 3.099959 1_655
Ca0 Ir13 3.169968 1_545
Ca0 Ir12 3.169968 1_655
Ca0 Ir10 3.197362 1_656
Ca0 Ir10 3.197362 1_655
Ca0 Ir0 3.197367 1_555
Ca0 Ir0 3.197367 1_556
Ca0 Ir6 3.401674 1_655
Ca0 Ir3 3.401686 1_555
Ca1 Ir17 3.067023 1_665
Ca1 Ir17 3.067023 1_666
Ca1 Si3 3.069037 1_556
Ca1 Si3 3.069037 1_555
Ca1 Si1 3.069037 1_556
Ca1 Si1 3.069037 1_555
Ca1 Si11 3.099958 1_555
Ca1 Si11 3.099958 1_556
Ca1 Ir11 3.169969 1_555
Ca1 Ir13 3.169969 1_555
Ca1 Ir8 3.197358 1_555
Ca1 Ir8 3.197358 1_556
Ca1 Ir7 3.197358 1_556
Ca1 Ir7 3.197358 1_555
Ca1 Ir5 3.401675 1_555
Ca1 Ir2 3.401675 1_555
Ca2 Ir17 3.067023 1_565
Ca2 Ir17 3.067023 1_566
Ca2 Si3 3.069037 1_456
Ca2 Si3 3.069037 1_455
Ca2 Si2 3.069037 1_565
Ca2 Si2 3.069037 1_566
Ca2 Si4 3.099958 1_565
Ca2 Si4 3.099958 1_566
Ca2 Ir11 3.169969 1_455
Ca2 Ir12 3.169969 1_565
Ca2 Ir1 3.197362 1_565
Ca2 Ir1 3.197362 1_566
Ca2 Ir9 3.197368 1_556
Ca2 Ir9 3.197368 1_555
Ca2 Ir18 3.401674 1_565
Ca2 Ir4 3.401686 1_555
Si0 Y0 3.017703 1_555
Si0 Y0 3.017703 1_556
Si5 Y0 3.017684 1_555
Si5 Y0 3.017684 1_556
Si6 Y0 3.017695 1_555
Si6 Y0 3.017695 1_556
Si7 Y1 3.017695 1_556
Si7 Y1 3.017695 1_555
Si8 Y1 3.017684 1_555
Si8 Y1 3.017684 1_556
Si9 Y1 3.017703 1_556
Si9 Y1 3.017703 1_555
Ir0 Si10 2.421943 1_655
Ir0 Si1 2.428099 1_545
Ir0 Si5 2.428427 1_554
Ir0 Si5 2.428427 1_555
Ir0 Y0 3.173522 1_555
Ir1 Si4 2.421950 1_555
Ir1 Si2 2.428086 1_555
Ir1 Si0 2.428427 1_555
Ir1 Si0 2.428427 1_554
Ir1 Y0 3.173543 1_555
Ir2 Si0 2.331950 1_555
Ir2 Si6 2.416580 1_555
Ir2 Si11 2.543189 1_555
Ir2 Si11 2.543189 1_556
Ir2 Y0 3.178345 1_556
Ir2 Y0 3.178345 1_555
Ir3 Si6 2.331950 1_555
Ir3 Si5 2.416580 1_555
Ir3 Si10 2.543196 1_655
Ir3 Si10 2.543196 1_656
Ir3 Y0 3.178326 1_555
Ir3 Y0 3.178326 1_556
Ir4 Si7 2.331950 1_555
Ir4 Si8 2.416580 1_555
Ir4 Si4 2.543197 1_565
Ir4 Si4 2.543197 1_566
Ir4 Y1 3.178326 1_555
Ir4 Y1 3.178326 1_556
Ir5 Si9 2.331950 1_555
Ir5 Si7 2.416580 1_555
Ir5 Si11 2.543189 1_555
Ir5 Si11 2.543189 1_556
Ir5 Y1 3.178345 1_555
Ir5 Y1 3.178345 1_556
Ir6 Si8 2.331950 1_555
Ir6 Si9 2.416580 1_555
Ir6 Si10 2.543193 1_555
Ir6 Si10 2.543193 1_556
Ir6 Y1 3.178333 1_556
Ir6 Y1 3.178333 1_555
Ir7 Si11 2.421937 1_555
Ir7 Si3 2.428092 1_555
Ir7 Si6 2.428427 1_555
Ir7 Si6 2.428427 1_554
Ir7 Y0 3.173543 1_555
Ir8 Si11 2.421937 1_555
Ir8 Si1 2.428092 1_555
Ir8 Si7 2.428427 1_555
Ir8 Si7 2.428427 1_554
Ir8 Y1 3.173543 1_555
Ir9 Si4 2.421943 1_565
Ir9 Si3 2.428099 1_455
Ir9 Si8 2.428427 1_554
Ir9 Si8 2.428427 1_555
Ir9 Y1 3.173521 1_555
Ir10 Si10 2.421949 1_555
Ir10 Si2 2.428086 1_555
Ir10 Si9 2.428427 1_555
Ir10 Si9 2.428427 1_554
Ir10 Y1 3.173544 1_555
Ir11 Si6 2.339613 1_555
Ir11 Si8 2.339621 1_655
Ir11 Si3 2.370663 1_556
Ir11 Si3 2.370663 1_555
Ir12 Si0 2.339608 1_555
Ir12 Si9 2.339608 1_555
Ir12 Si2 2.370663 1_556
Ir12 Si2 2.370663 1_555
Ir13 Si7 2.339613 1_555
Ir13 Si5 2.339621 1_565
Ir13 Si1 2.370663 1_555
Ir13 Si1 2.370663 1_556
Ir14 Si10 2.343238 1_655
Ir14 Si8 2.810232 1_654
Ir14 Si8 2.810232 1_655
Ir14 Si6 2.810235 1_554
Ir14 Si6 2.810235 1_555
Ir15 Si11 2.343238 1_555
Ir15 Si9 2.810227 1_554
Ir15 Si9 2.810227 1_555
Ir15 Si0 2.810227 1_555
Ir15 Si0 2.810227 1_554
Ir16 Si4 2.343238 1_565
Ir16 Si5 2.810232 1_565
Ir16 Si5 2.810232 1_564
Ir16 Si7 2.810235 1_554
Ir16 Si7 2.810235 1_555
Ir17 Si2 2.332980 1_555
Ir17 Si1 2.332980 1_445
Ir17 Si3 2.332980 1_445
Ir18 Si5 2.331950 1_555
Ir18 Si0 2.416580 1_555
Ir18 Si4 2.543193 1_555
Ir18 Si4 2.543193 1_556
Ir18 Y0 3.178333 1_555
Ir18 Y0 3.178333 1_556
