# generated using pymatgen
data_Y10B2I15
_symmetry_space_group_name_H-M   'P 1'
_cell_length_a   9.57479284
_cell_length_b   10.36791832
_cell_length_c   11.25984830
_cell_angle_alpha   91.62404407
_cell_angle_beta   114.43150174
_cell_angle_gamma   110.54699806
_symmetry_Int_Tables_number   1
_chemical_formula_structural   Y10B2I15
_chemical_formula_sum   'Y10 B2 I15'
_cell_volume   932.99908959
_cell_formula_units_Z   1
loop_
 _symmetry_equiv_pos_site_id
 _symmetry_equiv_pos_as_xyz
  1  'x, y, z'
loop_
 _atom_site_type_symbol
 _atom_site_label
 _atom_site_symmetry_multiplicity
 _atom_site_fract_x
 _atom_site_fract_y
 _atom_site_fract_z
 _atom_site_occupancy
  Y  Y0  1  0.78596248  0.39482077  0.26861948  1
  Y  Y1  1  0.21403752  0.60517923  0.73138052  1
  Y  Y2  1  0.66384226  0.75159441  0.82487816  1
  Y  Y3  1  0.33615774  0.24840559  0.17512184  1
  Y  Y4  1  0.52334375  0.71481445  0.08789419  1
  Y  Y5  1  0.47665625  0.28518555  0.91210581  1
  Y  Y6  1  0.58051582  0.04228254  0.30998612  1
  Y  Y7  1  0.41948418  0.95771746  0.69001388  1
  Y  Y8  1  0.70793134  0.06985012  0.04561874  1
  Y  Y9  1  0.29206866  0.93014988  0.95438126  1
  B  B0  1  0.46795876  0.82064984  0.87824743  1
  B  B1  1  0.53204124  0.17935016  0.12175257  1
  I  I0  1  0.00000000  0.00000000  0.00000000  1
  I  I1  1  0.63761830  0.88166960  0.58070810  1
  I  I2  1  0.36238170  0.11833040  0.41929190  1
  I  I3  1  0.88570289  0.29920112  0.53208439  1
  I  I4  1  0.11429711  0.70079888  0.46791561  1
  I  I5  1  0.28133323  0.75872288  0.17799121  1
  I  I6  1  0.71866677  0.24127712  0.82200879  1
  I  I7  1  0.05703660  0.34015441  0.22662548  1
  I  I8  1  0.15707959  0.05550829  0.69999186  1
  I  I9  1  0.84292041  0.94449171  0.30000814  1
  I  I10  1  0.23002194  0.41052171  0.94227117  1
  I  I11  1  0.76997806  0.58947829  0.05772883  1
  I  I12  1  0.40974587  0.45860172  0.66006845  1
  I  I13  1  0.59025413  0.54139828  0.33993155  1
  I  I14  1  0.94296340  0.65984559  0.77337452  1
loop_
_geom_bond_atom_site_label_1
_geom_bond_atom_site_label_2
_geom_bond_distance
_geom_bond_site_symmetry_2
B0 Y2 2.498382 1_555
B0 Y1 2.507699 1_555
B0 Y7 2.558738 1_555
B0 Y4 2.564648 1_556
B0 Y9 2.709461 1_555
B0 Y8 2.735205 1_566
B1 Y3 2.498382 1_555
B1 Y0 2.507699 1_555
B1 Y6 2.558738 1_555
B1 Y5 2.564648 1_554
B1 Y8 2.709461 1_555
B1 Y9 2.735205 1_544
I0 Y3 3.086113 1_555
I0 Y2 3.086113 1_444
I0 Y8 3.346263 1_455
I0 Y9 3.346263 1_544
I1 Y2 3.052435 1_555
I1 Y7 3.118653 1_555
I1 Y6 3.451393 1_565
I2 Y3 3.052435 1_555
I2 Y6 3.118653 1_555
I2 Y7 3.451393 1_545
I3 Y0 3.030371 1_555
I3 Y6 3.162561 1_555
I3 Y1 3.426783 1_655
I4 Y1 3.030371 1_555
I4 Y7 3.162561 1_555
I4 Y0 3.426783 1_455
I5 Y4 3.043795 1_555
I5 Y6 3.062171 1_565
I5 Y9 3.138215 1_554
I6 Y5 3.043795 1_555
I6 Y7 3.062171 1_545
I6 Y8 3.138215 1_556
I7 Y0 3.051876 1_455
I7 Y8 3.262830 1_455
I7 Y3 3.379185 1_555
I8 Y5 3.042238 1_555
I8 Y7 3.060762 1_545
I8 Y9 3.145184 1_545
I9 Y4 3.042238 1_555
I9 Y6 3.060762 1_565
I9 Y8 3.145184 1_565
I10 Y1 3.150090 1_555
I10 Y3 3.158599 1_556
I10 Y5 3.189529 1_555
I10 Y4 3.194890 1_556
I11 Y0 3.150090 1_555
I11 Y2 3.158599 1_554
I11 Y4 3.189529 1_555
I11 Y5 3.194890 1_554
I12 Y2 3.057541 1_555
I12 Y1 3.104848 1_555
I12 Y5 3.360152 1_555
I13 Y3 3.057541 1_555
I13 Y0 3.104848 1_555
I13 Y4 3.360152 1_555
I14 Y1 3.051876 1_655
I14 Y9 3.262830 1_655
I14 Y2 3.379185 1_555
