# generated using pymatgen
data_ScTaNb5Sn6
_symmetry_space_group_name_H-M   'P 1'
_cell_length_a   5.76603068
_cell_length_b   5.76196117
_cell_length_c   9.61507119
_cell_angle_alpha   90.00000000
_cell_angle_beta   90.00000000
_cell_angle_gamma   120.02336034
_symmetry_Int_Tables_number   1
_chemical_formula_structural   ScTaNb5Sn6
_chemical_formula_sum   'Sc1 Ta1 Nb5 Sn6'
_cell_volume   276.58468798
_cell_formula_units_Z   1
loop_
 _symmetry_equiv_pos_site_id
 _symmetry_equiv_pos_as_xyz
  1  'x, y, z'
loop_
 _atom_site_type_symbol
 _atom_site_label
 _atom_site_symmetry_multiplicity
 _atom_site_fract_x
 _atom_site_fract_y
 _atom_site_fract_z
 _atom_site_occupancy
  Sc  Sc0  1  0.00000000  0.00000000  0.00027557  1
  Ta  Ta0  1  0.50000000  0.00000000  0.24856631  1
  Nb  Nb0  1  0.50000000  0.00000000  0.75129189  1
  Nb  Nb1  1  0.50000000  0.50000000  0.75125089  1
  Nb  Nb2  1  0.00000000  0.50000000  0.75125089  1
  Nb  Nb3  1  0.50000000  0.50000000  0.24842508  1
  Nb  Nb4  1  0.00000000  0.50000000  0.24842508  1
  Sn  Sn0  1  0.00000000  0.00000000  0.68583911  1
  Sn  Sn1  1  0.00000000  0.00000000  0.31504578  1
  Sn  Sn2  1  0.33388062  0.66776324  0.49975516  1
  Sn  Sn3  1  0.66611938  0.33223676  0.49975516  1
  Sn  Sn4  1  0.33363709  0.66727618  0.00006004  1
  Sn  Sn5  1  0.66636291  0.33272382  0.00006004  1
loop_
_geom_bond_atom_site_label_1
_geom_bond_atom_site_label_2
_geom_bond_distance
_geom_bond_site_symmetry_2
Sc0 Sn0 3.023329 1_554
Sc0 Sn1 3.026538 1_555
Sc0 Sn4 3.326714 1_545
Sc0 Sn5 3.326714 1_455
Sc0 Sn5 3.326724 1_555
Sc0 Sn4 3.326724 1_445
Sc0 Sn4 3.328928 1_555
Sc0 Sn5 3.328928 1_445
Nb0 Sn5 2.911456 1_556
Nb0 Sn4 2.911456 1_546
Nb0 Sn3 2.931991 1_555
Nb0 Sn2 2.931991 1_545
Nb0 Sn0 2.950905 1_555
Nb0 Sn0 2.950905 1_655
Nb1 Sn4 2.915057 1_556
Nb1 Sn5 2.915057 1_556
Nb1 Sn2 2.936985 1_555
Nb1 Sn3 2.936985 1_555
Nb1 Sn0 2.948833 1_555
Nb1 Sn0 2.948833 1_665
Nb2 Sn4 2.915051 1_556
Nb2 Sn5 2.915051 1_456
Nb2 Sn2 2.936979 1_555
Nb2 Sn3 2.936979 1_455
Nb2 Sn0 2.948833 1_555
Nb2 Sn0 2.948833 1_565
Nb3 Ta0 2.880981 1_565
Nb3 Ta0 2.880981 1_555
Nb3 Nb4 2.883015 1_655
Nb3 Nb4 2.883015 1_555
Nb3 Sn5 2.911553 1_555
Nb3 Sn4 2.911553 1_555
Nb3 Sn3 2.935673 1_555
Nb3 Sn2 2.935673 1_555
Nb3 Sn1 2.951334 1_665
Nb3 Sn1 2.951334 1_555
Nb4 Ta0 2.880981 1_455
Nb4 Ta0 2.880981 1_565
Nb4 Sn4 2.911548 1_555
Nb4 Sn5 2.911548 1_455
Nb4 Sn2 2.935668 1_555
Nb4 Sn3 2.935668 1_455
Nb4 Sn1 2.951334 1_555
Nb4 Sn1 2.951334 1_565
Sn1 Ta0 2.953026 1_555
Sn1 Ta0 2.953026 1_455
Sn2 Ta0 2.929232 1_565
Sn3 Ta0 2.929232 1_555
Sn4 Ta0 2.909387 1_565
Sn5 Ta0 2.909387 1_555
