# generated using pymatgen
data_LuSc3Sb2
_symmetry_space_group_name_H-M   'P 1'
_cell_length_a   4.26092755
_cell_length_b   4.26092755
_cell_length_c   7.94173576
_cell_angle_alpha   90.00000000
_cell_angle_beta   90.00000000
_cell_angle_gamma   90.00000000
_symmetry_Int_Tables_number   1
_chemical_formula_structural   LuSc3Sb2
_chemical_formula_sum   'Lu1 Sc3 Sb2'
_cell_volume   144.18621169
_cell_formula_units_Z   1
loop_
 _symmetry_equiv_pos_site_id
 _symmetry_equiv_pos_as_xyz
  1  'x, y, z'
loop_
 _atom_site_type_symbol
 _atom_site_label
 _atom_site_symmetry_multiplicity
 _atom_site_fract_x
 _atom_site_fract_y
 _atom_site_fract_z
 _atom_site_occupancy
  Lu  Lu0  1  0.50000000  0.00000000  0.34647143  1
  Sc  Sc0  1  0.00000000  0.00000000  0.99759110  1
  Sc  Sc1  1  0.50000000  0.50000000  0.99759110  1
  Sc  Sc2  1  0.00000000  0.50000000  0.65720864  1
  Sb  Sb0  1  0.50000000  0.00000000  0.72341114  1
  Sb  Sb1  1  0.00000000  0.50000000  0.27772758  1
loop_
_geom_bond_atom_site_label_1
_geom_bond_atom_site_label_2
_geom_bond_distance
_geom_bond_site_symmetry_2
Lu0 Sb0 2.993556 1_555
Lu0 Sb1 3.061994 1_645
Lu0 Sb1 3.061994 1_655
Lu0 Sb1 3.061994 1_555
Lu0 Sb1 3.061994 1_545
Sb0 Sc1 3.046347 1_545
Sb0 Sc1 3.046347 1_555
Sb0 Sc0 3.046347 1_555
Sb0 Sc0 3.046347 1_655
Sb0 Sc2 3.058460 1_645
Sb0 Sc2 3.058460 1_655
Sb0 Sc2 3.058460 1_545
Sb0 Sc2 3.058460 1_555
Sb1 Sc2 3.013738 1_555
Sb1 Sc1 3.080337 1_554
Sb1 Sc0 3.080337 1_564
Sb1 Sc1 3.080337 1_454
Sb1 Sc0 3.080337 1_554
