# generated using pymatgen
data_TaCu(AgSe2)2
_symmetry_space_group_name_H-M   'P 1'
_cell_length_a   6.17851502
_cell_length_b   5.75657074
_cell_length_c   6.17851502
_cell_angle_alpha   90.00000000
_cell_angle_beta   90.00000000
_cell_angle_gamma   90.00000000
_symmetry_Int_Tables_number   1
_chemical_formula_structural   TaCu(AgSe2)2
_chemical_formula_sum   'Ta1 Cu1 Ag2 Se4'
_cell_volume   219.75160665
_cell_formula_units_Z   1
loop_
 _symmetry_equiv_pos_site_id
 _symmetry_equiv_pos_as_xyz
  1  'x, y, z'
loop_
 _atom_site_type_symbol
 _atom_site_label
 _atom_site_symmetry_multiplicity
 _atom_site_fract_x
 _atom_site_fract_y
 _atom_site_fract_z
 _atom_site_occupancy
  Ta  Ta0  1  0.00000000  0.00000000  0.00000000  1
  Cu  Cu0  1  0.00000000  0.50000000  0.00000000  1
  Ag  Ag0  1  0.50000000  0.00000000  0.00000000  1
  Ag  Ag1  1  0.00000000  0.00000000  0.50000000  1
  Se  Se0  1  0.22511702  0.25695718  0.22511702  1
  Se  Se1  1  0.77488298  0.74304282  0.22511702  1
  Se  Se2  1  0.77488298  0.25695718  0.77488298  1
  Se  Se3  1  0.22511702  0.74304282  0.77488298  1
loop_
_geom_bond_atom_site_label_1
_geom_bond_atom_site_label_2
_geom_bond_distance
_geom_bond_site_symmetry_2
Cu0 Se0 2.413836 1_555
Cu0 Se1 2.413836 1_455
Cu0 Se3 2.413836 1_554
Cu0 Se2 2.413836 1_454
Ag0 Se1 2.647081 1_545
Ag0 Se2 2.647081 1_554
Ag0 Se0 2.647081 1_555
Ag0 Se3 2.647081 1_544
Ag1 Se3 2.647081 1_545
Ag1 Se2 2.647081 1_455
Ag1 Se0 2.647081 1_555
Ag1 Se1 2.647081 1_445
Se0 Ta0 2.461128 1_555
Se1 Ta0 2.461128 1_665
Se2 Ta0 2.461128 1_656
Se3 Ta0 2.461128 1_566
