# generated using pymatgen
data_Ta6Al3IrN2
_symmetry_space_group_name_H-M   'P 1'
_cell_length_a   6.99413568
_cell_length_b   6.97883778
_cell_length_c   7.01338615
_cell_angle_alpha   90.00000000
_cell_angle_beta   90.00000000
_cell_angle_gamma   90.47165008
_symmetry_Int_Tables_number   1
_chemical_formula_structural   Ta6Al3IrN2
_chemical_formula_sum   'Ta12 Al6 Ir2 N4'
_cell_volume   342.31836029
_cell_formula_units_Z   2
loop_
 _symmetry_equiv_pos_site_id
 _symmetry_equiv_pos_as_xyz
  1  'x, y, z'
loop_
 _atom_site_type_symbol
 _atom_site_label
 _atom_site_symmetry_multiplicity
 _atom_site_fract_x
 _atom_site_fract_y
 _atom_site_fract_z
 _atom_site_occupancy
  Ta  Ta0  1  0.79254174  0.95583043  0.37513796  1
  Ta  Ta1  1  0.70745826  0.04416957  0.87513796  1
  Ta  Ta2  1  0.20610480  0.45488516  0.12635324  1
  Ta  Ta3  1  0.29389520  0.54511484  0.62635324  1
  Ta  Ta4  1  0.95589782  0.38194825  0.79062259  1
  Ta  Ta5  1  0.04564005  0.87281295  0.70617144  1
  Ta  Ta6  1  0.45435995  0.12718705  0.20617144  1
  Ta  Ta7  1  0.54410218  0.61805175  0.29062259  1
  Ta  Ta8  1  0.37833122  0.79305269  0.95627024  1
  Ta  Ta9  1  0.87391751  0.70704255  0.04549702  1
  Ta  Ta10  1  0.12166878  0.20694731  0.45627024  1
  Ta  Ta11  1  0.62608249  0.29295745  0.54549702  1
  Al  Al0  1  0.82216690  0.32172032  0.17637568  1
  Al  Al1  1  0.67783310  0.67827968  0.67637568  1
  Al  Al2  1  0.56236785  0.42305069  0.92705324  1
  Al  Al3  1  0.42193452  0.93125301  0.56991231  1
  Al  Al4  1  0.93763215  0.57694931  0.42705324  1
  Al  Al5  1  0.07806548  0.06874699  0.06991231  1
  Ir  Ir0  1  0.18183730  0.82525846  0.31846723  1
  Ir  Ir1  1  0.31816270  0.17474154  0.81846723  1
  N  N0  1  0.87755357  0.12159783  0.62839298  1
  N  N1  1  0.62244643  0.87840217  0.12839298  1
  N  N2  1  0.12915626  0.62741020  0.87974607  1
  N  N3  1  0.37084374  0.37258980  0.37974607  1
loop_
_geom_bond_atom_site_label_1
_geom_bond_atom_site_label_2
_geom_bond_distance
_geom_bond_site_symmetry_2
Al0 Al2 2.623084 1_554
Al0 Al4 2.625280 1_555
Al0 Al5 2.632438 1_655
Al0 Ta2 2.855971 1_655
Al0 Ta9 2.861607 1_555
Al0 Ta4 2.892131 1_554
Al0 Ta6 2.906373 1_555
Al0 Ta0 2.915088 1_545
Al0 Ta11 2.935719 1_555
Al0 Ta7 2.960978 1_555
Al0 Ta1 2.972115 1_554
Al0 Ta10 2.985064 1_655
Al1 Al4 2.623084 1_555
Al1 Al2 2.625280 1_555
Al1 Al3 2.632438 1_555
Al1 Ta3 2.855971 1_555
Al1 Ta11 2.861607 1_555
Al1 Ta7 2.892131 1_555
Al1 Ta5 2.906373 1_655
Al1 Ta1 2.915088 1_565
Al1 Ta9 2.935719 1_556
Al1 Ta4 2.960978 1_555
Al1 Ta0 2.972115 1_555
Al1 Ta8 2.985064 1_555
Al2 Ir1 2.539978 1_555
Al3 Ir0 2.540975 1_555
Al3 Ir1 2.544283 1_565
Al4 Ir0 2.539978 1_655
Al5 Ir1 2.540975 1_554
Al5 Ir0 2.544283 1_545
Ir0 Ta10 2.867951 1_565
Ir0 Ta8 2.897770 1_554
Ir0 Ta5 2.901098 1_555
Ir0 Ta0 2.905639 1_455
Ir0 Ta2 2.921044 1_555
Ir0 Ta7 2.934168 1_555
Ir0 Ta6 2.937198 1_565
Ir0 Ta9 2.992428 1_455
Ir0 Ta3 3.020677 1_555
Ir1 Ta8 2.867951 1_545
Ir1 Ta10 2.897770 1_555
Ir1 Ta6 2.901098 1_556
Ir1 Ta1 2.905639 1_555
Ir1 Ta3 2.921044 1_555
Ir1 Ta4 2.934168 1_455
Ir1 Ta5 2.937198 1_545
Ir1 Ta11 2.992428 1_555
Ir1 Ta2 3.020677 1_556
N0 Ta1 2.165966 1_555
N0 Ta10 2.170349 1_655
N0 Ta5 2.174336 1_645
N0 Ta0 2.198940 1_545
N0 Ta4 2.209000 1_555
N0 Ta11 2.212746 1_555
N1 Ta0 2.165966 1_555
N1 Ta8 2.170349 1_554
N1 Ta6 2.174336 1_565
N1 Ta1 2.198940 1_564
N1 Ta7 2.209000 1_555
N1 Ta9 2.212746 1_555
N2 Ta8 2.151375 1_555
N2 Ta2 2.177461 1_556
N2 Ta4 2.181620 1_455
N2 Ta5 2.184649 1_555
N2 Ta3 2.196943 1_555
N2 Ta9 2.205307 1_456
N3 Ta10 2.151375 1_555
N3 Ta3 2.177461 1_555
N3 Ta7 2.181620 1_555
N3 Ta6 2.184649 1_555
N3 Ta2 2.196943 1_555
N3 Ta11 2.205307 1_555
