# generated using pymatgen
data_La5SmS8
_symmetry_space_group_name_H-M   'P 1'
_cell_length_a   7.53539634
_cell_length_b   7.53539634
_cell_length_c   7.53539634
_cell_angle_alpha   109.48381248
_cell_angle_beta   109.48381248
_cell_angle_gamma   109.44603987
_symmetry_Int_Tables_number   1
_chemical_formula_structural   La5SmS8
_chemical_formula_sum   'La5 Sm1 S8'
_cell_volume   329.37933310
_cell_formula_units_Z   1
loop_
 _symmetry_equiv_pos_site_id
 _symmetry_equiv_pos_as_xyz
  1  'x, y, z'
loop_
 _atom_site_type_symbol
 _atom_site_label
 _atom_site_symmetry_multiplicity
 _atom_site_fract_x
 _atom_site_fract_y
 _atom_site_fract_z
 _atom_site_occupancy
  La  La0  1  0.50227000  0.12602300  0.87756700  1
  La  La1  1  0.75000000  0.25000000  0.50000000  1
  La  La2  1  0.24845600  0.62470300  0.12243300  1
  La  La3  1  0.37529700  0.49773000  0.62375300  1
  La  La4  1  0.87397700  0.75154400  0.37624700  1
  Sm  Sm0  1  0.00000000  0.00000000  0.00000000  1
  S  S0  1  0.62769700  0.87623600  0.09804600  1
  S  S1  1  0.62924700  0.87744200  0.60517700  1
  S  S2  1  0.97593100  0.37075300  0.24819600  1
  S  S3  1  0.27226500  0.02406900  0.39482300  1
  S  S4  1  0.47034900  0.37230300  0.24853900  1
  S  S5  1  0.12376400  0.22181000  0.75146100  1
  S  S6  1  0.77819000  0.52965100  0.90195400  1
  S  S7  1  0.12255800  0.72773500  0.75180400  1
loop_
_geom_bond_atom_site_label_1
_geom_bond_atom_site_label_2
_geom_bond_distance
_geom_bond_site_symmetry_2
La0 S1 2.928472 1_545
La0 S4 2.932813 1_556
La0 S7 2.944243 1_545
La0 S6 2.961262 1_555
La0 S0 3.069116 1_546
La0 S2 3.077685 1_556
La0 S5 3.095041 1_555
La0 S3 3.141676 1_555
La1 S6 2.945310 1_555
La1 S5 2.945310 1_655
La1 S0 2.945310 1_545
La1 S4 2.945310 1_555
La1 S2 3.098687 1_555
La1 S1 3.098689 1_545
La1 S3 3.098689 1_555
La1 S7 3.098689 1_655
La2 S3 2.928466 1_565
La2 S5 2.932813 1_554
La2 S2 2.944247 1_455
La2 S0 2.961262 1_555
La2 S6 3.069116 1_454
La2 S7 3.077684 1_554
La2 S4 3.095041 1_555
La2 S1 3.141678 1_555
La3 S2 2.928464 1_455
La3 S6 2.932813 1_555
La3 S1 2.944245 1_555
La3 S5 2.961262 1_555
La3 S4 3.069116 1_555
La3 S3 3.077684 1_555
La3 S0 3.095041 1_556
La3 S7 3.141676 1_555
La4 S7 2.928466 1_655
La4 S0 2.932813 1_555
La4 S3 2.944243 1_665
La4 S4 2.961262 1_555
La4 S5 3.069116 1_665
La4 S1 3.077677 1_555
La4 S6 3.095041 1_554
La4 S2 3.141682 1_555
S0 Sm0 3.063719 1_665
S1 Sm0 2.900696 1_666
S2 Sm0 2.900694 1_655
S3 Sm0 2.900700 1_555
S4 Sm0 3.063719 1_555
S5 Sm0 3.063719 1_556
S6 Sm0 3.063719 1_666
S7 Sm0 2.900700 1_566
