# generated using pymatgen
data_Rb2Be3SiAs4
_symmetry_space_group_name_H-M   'P 1'
_cell_length_a   7.87539304
_cell_length_b   7.87539294
_cell_length_c   5.39101949
_cell_angle_alpha   90.00000000
_cell_angle_beta   90.00000000
_cell_angle_gamma   140.03998455
_symmetry_Int_Tables_number   1
_chemical_formula_structural   Rb2Be3SiAs4
_chemical_formula_sum   'Rb2 Be3 Si1 As4'
_cell_volume   214.74418765
_cell_formula_units_Z   1
loop_
 _symmetry_equiv_pos_site_id
 _symmetry_equiv_pos_as_xyz
  1  'x, y, z'
loop_
 _atom_site_type_symbol
 _atom_site_label
 _atom_site_symmetry_multiplicity
 _atom_site_fract_x
 _atom_site_fract_y
 _atom_site_fract_z
 _atom_site_occupancy
  Rb  Rb0  1  0.50000000  0.00000000  0.24768121  1
  Rb  Rb1  1  0.00000000  0.50000000  0.75231879  1
  Be  Be0  1  0.50000000  0.50000000  0.50000000  1
  Be  Be1  1  0.50000000  0.50000000  0.00000000  1
  Be  Be2  1  0.00000000  0.00000000  0.50000000  1
  Si  Si0  1  0.00000000  0.00000000  0.00000000  1
  As  As0  1  0.65537717  0.84224306  0.74851355  1
  As  As1  1  0.15775694  0.34462283  0.25148645  1
  As  As2  1  0.84224306  0.65537717  0.25148645  1
  As  As3  1  0.34462283  0.15775694  0.74851355  1
loop_
_geom_bond_atom_site_label_1
_geom_bond_atom_site_label_2
_geom_bond_distance
_geom_bond_site_symmetry_2
Be1 Si0 2.690961 1_555
Be1 Si0 2.690961 1_665
Be2 Si0 2.695510 1_556
Be2 Si0 2.695510 1_555
As0 Be0 2.345401 1_555
As0 Be2 2.352737 1_665
As0 Be1 2.354593 1_556
As0 Si0 2.361900 1_666
As0 Rb1 3.546641 1_555
As0 Rb0 3.551484 1_566
As0 Rb1 3.556345 1_665
As0 Rb0 3.558289 1_565
As1 Be0 2.345401 1_555
As1 Be2 2.352737 1_555
As1 Be1 2.354593 1_555
As1 Si0 2.361900 1_555
As1 Rb0 3.546641 1_565
As1 Rb1 3.551484 1_554
As1 Rb0 3.556345 1_455
As1 Rb1 3.558289 1_555
As2 Be0 2.345401 1_555
As2 Be2 2.352737 1_665
As2 Be1 2.354593 1_555
As2 Si0 2.361900 1_665
As2 Rb0 3.546641 1_555
As2 Rb1 3.551484 1_654
As2 Rb0 3.556345 1_665
As2 Rb1 3.558289 1_655
As3 Be0 2.345401 1_555
As3 Be2 2.352737 1_555
As3 Be1 2.354593 1_556
As3 Si0 2.361900 1_556
As3 Rb1 3.546641 1_655
As3 Rb0 3.551484 1_556
As3 Rb1 3.556345 1_545
As3 Rb0 3.558289 1_555
