# generated using pymatgen
data_NaIn(SO4)2
_symmetry_space_group_name_H-M   'P 1'
_cell_length_a   4.86859886
_cell_length_b   4.86860021
_cell_length_c   7.18399842
_cell_angle_alpha   90.33452457
_cell_angle_beta   90.33452364
_cell_angle_gamma   65.96152021
_symmetry_Int_Tables_number   1
_chemical_formula_structural   NaIn(SO4)2
_chemical_formula_sum   'Na1 In1 S2 O8'
_cell_volume   155.51203322
_cell_formula_units_Z   1
loop_
 _symmetry_equiv_pos_site_id
 _symmetry_equiv_pos_as_xyz
  1  'x, y, z'
loop_
 _atom_site_type_symbol
 _atom_site_label
 _atom_site_symmetry_multiplicity
 _atom_site_fract_x
 _atom_site_fract_y
 _atom_site_fract_z
 _atom_site_occupancy
  Na  Na0  1  0.00000000  0.00000000  0.50000000  1
  In  In0  1  0.00000000  0.00000000  0.00000000  1
  S  S0  1  0.35820969  0.35820969  0.23001825  1
  S  S1  1  0.64178931  0.64178931  0.76998175  1
  O  O0  1  0.25515004  0.25515004  0.05966769  1
  O  O1  1  0.69394528  0.23820157  0.22086158  1
  O  O2  1  0.23820157  0.69394528  0.22086158  1
  O  O3  1  0.26819916  0.26819916  0.40017296  1
  O  O4  1  0.73179884  0.73179884  0.59982604  1
  O  O5  1  0.76179943  0.30605472  0.77913942  1
  O  O6  1  0.30605472  0.76179943  0.77913942  1
  O  O7  1  0.74484896  0.74484896  0.94033231  1
loop_
_geom_bond_atom_site_label_1
_geom_bond_atom_site_label_2
_geom_bond_distance
_geom_bond_site_symmetry_2
Na0 O3 2.309812 1_555
Na0 O4 2.309825 1_445
Na0 O1 2.484146 1_455
Na0 O2 2.484146 1_545
Na0 O6 2.484150 1_545
Na0 O5 2.484150 1_455
In0 O0 2.124788 1_555
In0 O7 2.124796 1_444
In0 O6 2.163557 1_544
In0 O5 2.163557 1_454
In0 O1 2.163563 1_455
In0 O2 2.163564 1_545
O0 S0 1.480530 1_555
O1 S0 1.496743 1_555
O2 S0 1.496743 1_555
O3 S0 1.430835 1_555
O4 S1 1.430837 1_555
O5 S1 1.496738 1_555
O6 S1 1.496738 1_555
O7 S1 1.480530 1_555
