# generated using pymatgen
data_Fe3CoSe3S
_symmetry_space_group_name_H-M   'P 1'
_cell_length_a   6.79048848
_cell_length_b   6.79048928
_cell_length_c   6.81419306
_cell_angle_alpha   132.25246731
_cell_angle_beta   132.25245800
_cell_angle_gamma   69.40513325
_symmetry_Int_Tables_number   1
_chemical_formula_structural   Fe3CoSe3S
_chemical_formula_sum   'Fe3 Co1 Se3 S1'
_cell_volume   169.23508854
_cell_formula_units_Z   1
loop_
 _symmetry_equiv_pos_site_id
 _symmetry_equiv_pos_as_xyz
  1  'x, y, z'
loop_
 _atom_site_type_symbol
 _atom_site_label
 _atom_site_symmetry_multiplicity
 _atom_site_fract_x
 _atom_site_fract_y
 _atom_site_fract_z
 _atom_site_occupancy
  Fe  Fe0  1  0.74909431  0.74909431  0.49520310  1
  Fe  Fe1  1  0.25225888  0.74949961  0.00092766  1
  Fe  Fe2  1  0.74949961  0.25225888  0.00092766  1
  Co  Co0  1  0.23789783  0.23789783  0.50438340  1
  Se  Se0  1  0.86261565  0.86261565  0.98352056  1
  Se  Se1  1  0.62036467  0.13132955  0.49948086  1
  Se  Se2  1  0.13132955  0.62036467  0.49948086  1
  S  S0  1  0.39693749  0.39693749  0.01607491  1
loop_
_geom_bond_atom_site_label_1
_geom_bond_atom_site_label_2
_geom_bond_distance
_geom_bond_site_symmetry_2
Fe0 S0 2.262869 1_555
Fe0 Se0 2.404115 1_555
Fe0 Se2 2.416246 1_655
Fe0 Se1 2.416247 1_565
Fe1 S0 2.290996 1_555
Fe1 Se1 2.409615 1_565
Fe1 Se2 2.413017 1_554
Fe1 Se0 2.423919 1_454
Fe2 S0 2.290995 1_555
Fe2 Se2 2.409615 1_655
Fe2 Se1 2.413017 1_554
Fe2 Se0 2.423919 1_544
Co0 S0 2.276585 1_556
Co0 Se0 2.413997 1_444
Co0 Se1 2.455987 1_555
Co0 Se2 2.455987 1_555
