# generated using pymatgen
data_Ba8Cd(CoO4)3
_symmetry_space_group_name_H-M   'P 1'
_cell_length_a   6.53258832
_cell_length_b   6.49638520
_cell_length_c   12.74524840
_cell_angle_alpha   88.15865586
_cell_angle_beta   88.37468043
_cell_angle_gamma   127.04060507
_symmetry_Int_Tables_number   1
_chemical_formula_structural   Ba8Cd(CoO4)3
_chemical_formula_sum   'Ba8 Cd1 Co3 O12'
_cell_volume   430.74405559
_cell_formula_units_Z   1
loop_
 _symmetry_equiv_pos_site_id
 _symmetry_equiv_pos_as_xyz
  1  'x, y, z'
loop_
 _atom_site_type_symbol
 _atom_site_label
 _atom_site_symmetry_multiplicity
 _atom_site_fract_x
 _atom_site_fract_y
 _atom_site_fract_z
 _atom_site_occupancy
  Ba  Ba0  1  0.43077916  0.01892168  0.15038866  1
  Ba  Ba1  1  0.03174445  0.43884758  0.65101375  1
  Ba  Ba2  1  0.55866242  0.97238739  0.84547793  1
  Ba  Ba3  1  0.97847766  0.56613281  0.35246969  1
  Ba  Ba4  1  0.86231459  0.65440337  0.92045035  1
  Ba  Ba5  1  0.34661988  0.14015783  0.57546896  1
  Ba  Ba6  1  0.13356635  0.33913399  0.06983457  1
  Ba  Ba7  1  0.66306740  0.86943203  0.42922645  1
  Cd  Cd0  1  0.71596208  0.70351698  0.16686857  1
  Co  Co0  1  0.72745308  0.73405030  0.66550907  1
  Co  Co1  1  0.28218607  0.27458728  0.33978457  1
  Co  Co2  1  0.26551053  0.27423549  0.83349338  1
  O  O0  1  0.32668092  0.13511421  0.96006403  1
  O  O1  1  0.86338036  0.66963225  0.54011718  1
  O  O2  1  0.65697984  0.86315340  0.02644243  1
  O  O3  1  0.14701006  0.33854820  0.46677104  1
  O  O4  1  0.99383287  0.00700973  0.74950858  1
  O  O5  1  0.03316935  0.00609288  0.25394496  1
  O  O6  1  0.58931044  0.40896063  0.75009906  1
  O  O7  1  0.48637109  0.15100136  0.36938043  1
  O  O8  1  0.13317022  0.47368700  0.86341972  1
  O  O9  1  0.52961373  0.86685535  0.63259130  1
  O  O10  1  0.86732805  0.49655144  0.12831419  1
  O  O11  1  0.37680937  0.59758582  0.25936411  1
loop_
_geom_bond_atom_site_label_1
_geom_bond_atom_site_label_2
_geom_bond_distance
_geom_bond_site_symmetry_2
Ba0 O10 2.660344 1_555
Ba0 O2 2.734019 1_545
Ba0 O0 2.740570 1_554
Ba0 O5 2.834292 1_555
Ba0 O11 2.847935 1_545
Ba0 O7 2.914511 1_555
Ba0 O10 3.196088 1_445
Ba1 O3 2.663606 1_555
Ba1 O9 2.717361 1_555
Ba1 O1 2.719156 1_455
Ba1 O8 2.789165 1_555
Ba1 O4 2.902826 1_455
Ba1 O6 3.014488 1_455
Ba1 O9 3.168243 1_445
Ba2 O2 2.600707 1_556
Ba2 O8 2.709537 1_555
Ba2 O0 2.729592 1_565
Ba2 O9 2.803569 1_555
Ba2 O6 2.939746 1_565
Ba2 O4 2.939879 1_565
Ba2 O8 3.180380 1_665
Ba3 O7 2.670662 1_555
Ba3 O1 2.710650 1_555
Ba3 O11 2.718401 1_655
Ba3 O3 2.726510 1_655
Ba3 O5 2.896060 1_665
Ba3 O10 2.949367 1_555
Ba3 O7 3.224387 1_665
Ba4 O6 2.730052 1_555
Ba4 O8 2.742600 1_655
Ba4 O2 2.769425 1_556
Ba4 O4 2.816753 1_565
Ba4 O10 2.818176 1_556
Ba4 O0 2.825711 1_665
Ba4 O0 3.073777 1_555
Ba5 O3 2.700576 1_555
Ba5 O7 2.740859 1_555
Ba5 O6 2.762459 1_555
Ba5 O9 2.763104 1_545
Ba5 O1 2.838281 1_445
Ba5 O4 2.857416 1_455
Ba5 O1 3.042234 1_555
Ba6 O10 2.597014 1_455
Ba6 O0 2.709046 1_554
Ba6 O8 2.746007 1_554
Ba6 O2 2.858248 1_445
Ba6 O11 2.905729 1_555
Ba6 O5 2.914494 1_555
Ba6 O2 3.055212 1_555
Ba7 O9 2.707377 1_555
Ba7 O1 2.725411 1_555
Ba7 O7 2.786411 1_565
Ba7 O11 2.792735 1_555
Ba7 O3 2.843102 1_665
Ba7 O5 2.933350 1_665
Ba7 O3 3.046866 1_555
Cd0 O10 2.154894 1_555
Cd0 O11 2.175962 1_555
Cd0 O5 2.180099 1_665
Cd0 O2 2.197376 1_555
Co0 O4 1.956740 1_565
Co0 O1 1.981880 1_555
Co0 O6 1.984760 1_555
Co0 O9 1.985322 1_555
Co1 O5 1.921133 1_555
Co1 O7 1.966039 1_555
Co1 O3 1.994012 1_555
Co1 O11 2.024560 1_555
Co2 O4 1.955651 1_455
Co2 O8 1.983522 1_555
Co2 O6 1.988040 1_555
Co2 O0 1.989175 1_555
