# generated using pymatgen
data_Rb4HfPtBr12
_symmetry_space_group_name_H-M   'P 1'
_cell_length_a   7.47628951
_cell_length_b   7.47628951
_cell_length_c   10.74983199
_cell_angle_alpha   90.00000000
_cell_angle_beta   90.00000000
_cell_angle_gamma   90.00000000
_symmetry_Int_Tables_number   1
_chemical_formula_structural   Rb4HfPtBr12
_chemical_formula_sum   'Rb4 Hf1 Pt1 Br12'
_cell_volume   600.86083605
_cell_formula_units_Z   1
loop_
 _symmetry_equiv_pos_site_id
 _symmetry_equiv_pos_as_xyz
  1  'x, y, z'
loop_
 _atom_site_type_symbol
 _atom_site_label
 _atom_site_symmetry_multiplicity
 _atom_site_fract_x
 _atom_site_fract_y
 _atom_site_fract_z
 _atom_site_occupancy
  Rb  Rb0  1  0.50000000  0.00000000  0.75958761  1
  Rb  Rb1  1  0.00000000  0.50000000  0.75958761  1
  Rb  Rb2  1  0.50000000  0.00000000  0.24041239  1
  Rb  Rb3  1  0.00000000  0.50000000  0.24041239  1
  Hf  Hf0  1  0.50000000  0.50000000  0.50000000  1
  Pt  Pt0  1  0.00000000  0.00000000  0.00000000  1
  Br  Br0  1  0.76206139  0.23288871  0.00000000  1
  Br  Br1  1  0.70975896  0.22215715  0.50000000  1
  Br  Br2  1  0.29024104  0.77784285  0.50000000  1
  Br  Br3  1  0.23793861  0.76711129  0.00000000  1
  Br  Br4  1  0.77784285  0.70975896  0.50000000  1
  Br  Br5  1  0.22215715  0.29024104  0.50000000  1
  Br  Br6  1  0.00000000  0.00000000  0.23156416  1
  Br  Br7  1  0.50000000  0.50000000  0.25627508  1
  Br  Br8  1  0.00000000  0.00000000  0.76843584  1
  Br  Br9  1  0.50000000  0.50000000  0.74372492  1
  Br  Br10  1  0.76711129  0.76206139  0.00000000  1
  Br  Br11  1  0.23288871  0.23793861  0.00000000  1
loop_
_geom_bond_atom_site_label_1
_geom_bond_atom_site_label_2
_geom_bond_distance
_geom_bond_site_symmetry_2
Br0 Pt0 2.489188 1_655
Br0 Rb2 3.680939 1_555
Br0 Rb0 3.680939 1_554
Br0 Rb3 3.719083 1_655
Br0 Rb1 3.719083 1_654
Br1 Hf0 2.602731 1_555
Br1 Rb0 3.606238 1_555
Br1 Rb2 3.606238 1_555
Br2 Hf0 2.602731 1_555
Br2 Rb0 3.606238 1_565
Br2 Rb2 3.606238 1_565
Br3 Pt0 2.489188 1_565
Br3 Rb2 3.680939 1_565
Br3 Rb0 3.680939 1_564
Br3 Rb3 3.719083 1_555
Br3 Rb1 3.719083 1_554
Br4 Hf0 2.602731 1_555
Br4 Rb1 3.606238 1_655
Br4 Rb3 3.606238 1_655
Br5 Hf0 2.602731 1_555
Br5 Rb1 3.606238 1_555
Br5 Rb3 3.606238 1_555
Br6 Pt0 2.489276 1_555
Br6 Rb2 3.739355 1_555
Br6 Rb3 3.739355 1_545
Br6 Rb3 3.739355 1_555
Br6 Rb2 3.739355 1_455
Br7 Hf0 2.620002 1_555
Br7 Rb3 3.742032 1_655
Br7 Rb3 3.742032 1_555
Br7 Rb2 3.742032 1_565
Br7 Rb2 3.742032 1_555
Br8 Pt0 2.489276 1_556
Br8 Rb0 3.739355 1_555
Br8 Rb1 3.739355 1_555
Br8 Rb1 3.739355 1_545
Br8 Rb0 3.739355 1_455
Br9 Hf0 2.620002 1_555
Br9 Rb1 3.742032 1_555
Br9 Rb1 3.742032 1_655
Br9 Rb0 3.742032 1_565
Br9 Rb0 3.742032 1_555
Br10 Pt0 2.489188 1_665
Br10 Rb3 3.680939 1_655
Br10 Rb1 3.680939 1_654
Br10 Rb2 3.719083 1_565
Br10 Rb0 3.719083 1_564
Br11 Pt0 2.489188 1_555
Br11 Rb3 3.680939 1_555
Br11 Rb1 3.680939 1_554
Br11 Rb2 3.719083 1_555
Br11 Rb0 3.719083 1_554
