# generated using pymatgen
data_Sc12Co4TcPb
_symmetry_space_group_name_H-M   'P 1'
_cell_length_a   7.73160265
_cell_length_b   7.73160265
_cell_length_c   7.73160303
_cell_angle_alpha   111.49374788
_cell_angle_beta   110.72285726
_cell_angle_gamma   106.24542053
_symmetry_Int_Tables_number   1
_chemical_formula_structural   Sc12Co4TcPb
_chemical_formula_sum   'Sc12 Co4 Tc1 Pb1'
_cell_volume   354.92744268
_cell_formula_units_Z   1
loop_
 _symmetry_equiv_pos_site_id
 _symmetry_equiv_pos_as_xyz
  1  'x, y, z'
loop_
 _atom_site_type_symbol
 _atom_site_label
 _atom_site_symmetry_multiplicity
 _atom_site_fract_x
 _atom_site_fract_y
 _atom_site_fract_z
 _atom_site_occupancy
  Sc  Sc0  1  0.42297400  0.22236395  0.20060905  1
  Sc  Sc1  1  0.57702600  0.77763605  0.79939095  1
  Sc  Sc2  1  0.02175390  0.22236395  0.79939095  1
  Sc  Sc3  1  0.97824610  0.77763605  0.20060905  1
  Sc  Sc4  1  0.30779720  0.61039607  0.30259887  1
  Sc  Sc5  1  0.69220280  0.38960393  0.69740113  1
  Sc  Sc6  1  0.30779720  0.00519633  0.69740113  1
  Sc  Sc7  1  0.69220280  0.99480367  0.30259887  1
  Sc  Sc8  1  0.18517230  0.27586406  0.46103636  1
  Sc  Sc9  1  0.81482770  0.72413494  0.53896364  1
  Sc  Sc10  1  0.18517230  0.72413494  0.90930824  1
  Sc  Sc11  1  0.81482770  0.27586406  0.09069176  1
  Co  Co0  1  0.37408353  1.00000000  0.37408353  1
  Co  Co1  1  0.62591647  0.00000000  0.62591647  1
  Co  Co2  1  0.11522387  0.61522387  0.50000000  1
  Co  Co3  1  0.88477613  0.38477613  0.50000000  1
  Tc  Tc0  1  0.00000000  0.00000000  0.00000000  1
  Pb  Pb0  1  0.50000000  0.50000000  0.00000000  1
loop_
_geom_bond_atom_site_label_1
_geom_bond_atom_site_label_2
_geom_bond_distance
_geom_bond_site_symmetry_2
Sc0 Tc0 2.714160 1_555
Sc0 Sc10 3.168732 1_544
Sc0 Sc8 3.168733 1_555
Sc0 Sc11 3.383887 1_555
Sc0 Sc9 3.383887 1_555
Sc1 Tc0 2.714160 1_666
Sc1 Sc11 3.168726 1_566
Sc1 Sc9 3.168733 1_555
Sc1 Sc10 3.383887 1_555
Sc1 Sc8 3.383892 1_555
Sc2 Tc0 2.714153 1_556
Sc2 Sc9 3.168733 1_445
Sc2 Sc8 3.383899 1_555
Sc3 Tc0 2.714153 1_665
Sc3 Sc8 3.168727 1_665
Sc3 Sc9 3.383902 1_555
Sc4 Sc8 3.295591 1_555
Sc4 Sc9 3.362180 1_555
Sc5 Sc9 3.295584 1_555
Sc5 Sc8 3.362178 1_555
Sc6 Sc9 3.295589 1_445
Sc6 Sc8 3.362192 1_555
Sc7 Sc8 3.295588 1_665
Sc7 Sc9 3.362199 1_555
Sc8 Tc0 2.900606 1_555
Sc9 Tc0 2.900607 1_666
Sc10 Tc0 2.900612 1_566
Sc10 Sc3 3.168720 1_456
Sc10 Sc9 3.255052 1_455
Sc10 Sc6 3.295585 1_565
Sc10 Sc5 3.295589 1_455
Sc10 Sc4 3.362173 1_556
Sc10 Sc7 3.362177 1_556
Sc10 Sc2 3.383887 1_555
Sc11 Tc0 2.900606 1_655
Sc11 Sc2 3.168720 1_654
Sc11 Sc8 3.255052 1_655
Sc11 Sc7 3.295579 1_545
Sc11 Sc4 3.295591 1_655
Sc11 Sc6 3.362178 1_554
Sc11 Sc5 3.362178 1_554
Sc11 Sc3 3.383894 1_555
Co0 Co1 2.213423 1_565
Co0 Sc3 2.565630 1_455
Co0 Sc0 2.565637 1_565
Co0 Sc7 2.712493 1_555
Co0 Sc4 2.712496 1_555
Co0 Sc5 2.712497 1_565
Co0 Sc6 2.712501 1_565
Co0 Sc8 2.919171 1_565
Co0 Sc10 2.919173 1_554
Co1 Sc2 2.565630 1_655
Co1 Sc1 2.565637 1_545
Co1 Sc6 2.712493 1_555
Co1 Sc5 2.712496 1_555
Co1 Sc4 2.712497 1_545
Co1 Sc7 2.712501 1_545
Co1 Sc11 2.919172 1_556
Co1 Sc9 2.919178 1_545
Co2 Co3 2.138444 1_455
Co2 Sc6 2.478919 1_565
Co2 Sc4 2.478932 1_555
Co2 Sc9 2.756359 1_455
Co2 Sc8 2.756363 1_555
Co2 Sc11 2.756363 1_455
Co2 Sc10 2.756365 1_555
Co2 Sc1 3.032444 1_555
Co2 Sc3 3.032449 1_455
Co3 Sc7 2.478919 1_545
Co3 Sc5 2.478932 1_555
Co3 Sc9 2.756356 1_555
Co3 Sc10 2.756361 1_655
Co3 Sc8 2.756363 1_655
Co3 Sc11 2.756363 1_555
Co3 Sc0 3.032444 1_555
Co3 Sc2 3.032449 1_655
Pb0 Sc1 3.121914 1_554
Pb0 Sc0 3.121914 1_555
Pb0 Sc3 3.121922 1_555
Pb0 Sc2 3.121922 1_554
Pb0 Sc5 3.180756 1_554
Pb0 Sc4 3.180756 1_555
Pb0 Sc6 3.180768 1_554
Pb0 Sc7 3.180768 1_555
Pb0 Sc10 3.385596 1_554
Pb0 Sc11 3.385602 1_555
Pb0 Sc8 3.385602 1_554
Pb0 Sc9 3.385604 1_555
