# generated using pymatgen
data_Cs4MnZn3F12
_symmetry_space_group_name_H-M   'P 1'
_cell_length_a   10.56493154
_cell_length_b   10.56493146
_cell_length_c   10.56493266
_cell_angle_alpha   33.97118724
_cell_angle_beta   33.97119015
_cell_angle_gamma   33.97118877
_symmetry_Int_Tables_number   1
_chemical_formula_structural   Cs4MnZn3F12
_chemical_formula_sum   'Cs4 Mn1 Zn3 F12'
_cell_volume   328.18271194
_cell_formula_units_Z   1
loop_
 _symmetry_equiv_pos_site_id
 _symmetry_equiv_pos_as_xyz
  1  'x, y, z'
loop_
 _atom_site_type_symbol
 _atom_site_label
 _atom_site_symmetry_multiplicity
 _atom_site_fract_x
 _atom_site_fract_y
 _atom_site_fract_z
 _atom_site_occupancy
  Cs  Cs0  1  0.71483257  0.71483257  0.71483257  1
  Cs  Cs1  1  0.87025135  0.87025135  0.87025135  1
  Cs  Cs2  1  0.28516743  0.28516743  0.28516743  1
  Cs  Cs3  1  0.12974865  0.12974865  0.12974865  1
  Mn  Mn0  1  0.00000000  0.00000000  0.00000000  1
  Zn  Zn0  1  0.40685007  0.40685007  0.40685007  1
  Zn  Zn1  1  0.59314993  0.59314993  0.59314993  1
  Zn  Zn2  1  0.50000000  0.50000000  0.50000000  1
  F  F0  1  0.16849607  0.59849401  0.59849401  1
  F  F1  1  0.59849401  0.59849401  0.16849607  1
  F  F2  1  0.70320649  0.20787920  0.20787920  1
  F  F3  1  0.29679351  0.79212080  0.79212080  1
  F  F4  1  0.20787920  0.20787920  0.70320649  1
  F  F5  1  0.83150393  0.40150599  0.40150599  1
  F  F6  1  0.79212080  0.79212080  0.29679351  1
  F  F7  1  0.40150599  0.40150599  0.83150393  1
  F  F8  1  0.40150599  0.83150393  0.40150599  1
  F  F9  1  0.20787920  0.70320649  0.20787920  1
  F  F10  1  0.79212080  0.29679351  0.79212080  1
  F  F11  1  0.59849401  0.16849607  0.59849401  1
loop_
_geom_bond_atom_site_label_1
_geom_bond_atom_site_label_2
_geom_bond_distance
_geom_bond_site_symmetry_2
Cs0 F11 2.992842 1_565
Cs0 F0 2.992842 1_655
Cs0 F1 2.992843 1_556
Cs0 F2 3.096821 1_556
Cs0 F4 3.096821 1_565
Cs0 F4 3.096821 1_655
Cs0 F2 3.096821 1_565
Cs0 F9 3.096821 1_556
Cs0 F9 3.096821 1_655
Cs0 F10 3.159461 1_555
Cs0 F3 3.159461 1_555
Cs0 F6 3.159462 1_555
Cs1 F5 3.105419 1_565
Cs1 F7 3.105419 1_565
Cs1 F7 3.105419 1_655
Cs1 F5 3.105419 1_556
Cs1 F8 3.105419 1_655
Cs1 F8 3.105419 1_556
Cs1 F1 3.174442 1_556
Cs1 F11 3.174442 1_565
Cs1 F0 3.174442 1_655
Cs1 F10 3.234328 1_565
Cs1 F3 3.234328 1_655
Cs1 F6 3.234329 1_556
Cs2 F8 2.992842 1_545
Cs2 F5 2.992842 1_455
Cs2 F7 2.992843 1_554
Cs2 F3 3.096821 1_554
Cs2 F6 3.096821 1_545
Cs2 F6 3.096821 1_455
Cs2 F3 3.096821 1_545
Cs2 F10 3.096821 1_554
Cs2 F10 3.096821 1_455
Cs2 F9 3.159461 1_555
Cs2 F2 3.159461 1_555
Cs2 F4 3.159462 1_555
Cs3 F0 3.105419 1_545
Cs3 F1 3.105419 1_545
Cs3 F1 3.105419 1_455
Cs3 F0 3.105419 1_554
Cs3 F11 3.105419 1_455
Cs3 F11 3.105419 1_554
Cs3 F7 3.174442 1_554
Cs3 F8 3.174442 1_545
Cs3 F5 3.174442 1_455
Cs3 F9 3.234328 1_545
Cs3 F2 3.234328 1_455
Cs3 F4 3.234329 1_554
F0 Zn2 2.034256 1_555
F0 Zn0 2.103848 1_555
F1 Zn2 2.034256 1_555
F1 Zn0 2.103847 1_555
F2 Zn0 2.033935 1_555
F2 Mn0 2.152845 1_655
F3 Zn1 2.033935 1_555
F3 Mn0 2.152845 1_566
F4 Zn0 2.033935 1_555
F4 Mn0 2.152845 1_556
F5 Zn2 2.034256 1_555
F5 Zn1 2.103848 1_555
F6 Zn1 2.033935 1_555
F6 Mn0 2.152845 1_665
F7 Zn2 2.034256 1_555
F7 Zn1 2.103847 1_555
F8 Zn2 2.034256 1_555
F8 Zn1 2.103848 1_555
F9 Zn0 2.033935 1_555
F9 Mn0 2.152845 1_565
F10 Zn1 2.033935 1_555
F10 Mn0 2.152845 1_656
F11 Zn2 2.034256 1_555
F11 Zn0 2.103848 1_555
