# generated using pymatgen
data_Cs3K2Sb2Pt
_symmetry_space_group_name_H-M   'P 1'
_cell_length_a   10.30982585
_cell_length_b   10.30982539
_cell_length_c   10.30982415
_cell_angle_alpha   35.10497192
_cell_angle_beta   35.10497734
_cell_angle_gamma   35.10497314
_symmetry_Int_Tables_number   1
_chemical_formula_structural   Cs3K2Sb2Pt
_chemical_formula_sum   'Cs3 K2 Sb2 Pt1'
_cell_volume   323.65046046
_cell_formula_units_Z   1
loop_
 _symmetry_equiv_pos_site_id
 _symmetry_equiv_pos_as_xyz
  1  'x, y, z'
loop_
 _atom_site_type_symbol
 _atom_site_label
 _atom_site_symmetry_multiplicity
 _atom_site_fract_x
 _atom_site_fract_y
 _atom_site_fract_z
 _atom_site_occupancy
  Cs  Cs0  1  0.50000000  0.50000000  0.50000000  1
  Cs  Cs1  1  0.35798393  0.35798393  0.35798393  1
  Cs  Cs2  1  0.64201607  0.64201607  0.64201607  1
  K  K0  1  0.21637929  0.21637929  0.21637929  1
  K  K1  1  0.78362071  0.78362071  0.78362071  1
  Sb  Sb0  1  0.08976048  0.08976048  0.08976048  1
  Sb  Sb1  1  0.91023952  0.91023952  0.91023952  1
  Pt  Pt0  1  0.00000000  0.00000000  0.00000000  1
loop_
_geom_bond_atom_site_label_1
_geom_bond_atom_site_label_2
_geom_bond_distance
_geom_bond_site_symmetry_2
Cs0 K0 3.868749 1_556
Cs0 K1 3.868749 1_554
Cs0 K0 3.868750 1_565
Cs0 K1 3.868750 1_545
Cs0 K0 3.868750 1_655
Cs0 K1 3.868750 1_455
Cs0 Cs2 4.117547 1_555
Cs0 Cs1 4.117547 1_555
Cs0 Sb1 4.226307 1_545
Cs0 Sb0 4.226307 1_565
Cs0 Sb1 4.226308 1_455
Cs0 Sb0 4.226308 1_655
Cs0 Sb1 4.226308 1_554
Cs0 Sb0 4.226308 1_556
Cs1 Pt0 3.660677 1_565
Cs1 Pt0 3.660677 1_556
Cs1 Pt0 3.660678 1_655
Cs2 Pt0 3.660677 1_656
Cs2 Pt0 3.660677 1_665
Cs2 Pt0 3.660678 1_566
K0 Sb0 3.671126 1_555
K0 Sb1 3.675783 1_445
K0 Sb1 3.675783 1_454
K0 Sb1 3.675784 1_544
K1 Sb1 3.671126 1_555
K1 Sb0 3.675783 1_665
K1 Sb0 3.675783 1_656
K1 Sb0 3.675784 1_566
Pt0 Sb0 2.602473 1_555
Pt0 Sb1 2.602473 1_444
