# generated using pymatgen
data_Sr2Li(Si3Pd10)2
_symmetry_space_group_name_H-M   'P 1'
_cell_length_a   8.66811864
_cell_length_b   8.66811881
_cell_length_c   8.66811836
_cell_angle_alpha   60.00000170
_cell_angle_beta   60.00000106
_cell_angle_gamma   60.00000349
_symmetry_Int_Tables_number   1
_chemical_formula_structural   Sr2Li(Si3Pd10)2
_chemical_formula_sum   'Sr2 Li1 Si6 Pd20'
_cell_volume   460.53172964
_cell_formula_units_Z   1
loop_
 _symmetry_equiv_pos_site_id
 _symmetry_equiv_pos_as_xyz
  1  'x, y, z'
loop_
 _atom_site_type_symbol
 _atom_site_label
 _atom_site_symmetry_multiplicity
 _atom_site_fract_x
 _atom_site_fract_y
 _atom_site_fract_z
 _atom_site_occupancy
  Sr  Sr0  1  0.25000000  0.25000000  0.25000000  1
  Sr  Sr1  1  0.75000000  0.75000000  0.75000000  1
  Li  Li0  1  0.00000000  0.00000000  0.00000000  1
  Si  Si0  1  0.73423160  0.26576840  0.26576840  1
  Si  Si1  1  0.26576840  0.73423160  0.73423160  1
  Si  Si2  1  0.26576840  0.73423160  0.26576840  1
  Si  Si3  1  0.73423160  0.26576840  0.73423160  1
  Si  Si4  1  0.26576840  0.26576840  0.73423160  1
  Si  Si5  1  0.73423160  0.73423160  0.26576840  1
  Pd  Pd0  1  0.38667436  0.38667436  0.38667436  1
  Pd  Pd1  1  0.61332564  0.61332564  0.61332564  1
  Pd  Pd2  1  0.38667436  0.38667436  0.83997893  1
  Pd  Pd3  1  0.38667436  0.83997893  0.38667436  1
  Pd  Pd4  1  0.61332564  0.61332564  0.16002107  1
  Pd  Pd5  1  0.61332564  0.16002107  0.61332564  1
  Pd  Pd6  1  0.83997893  0.38667436  0.38667436  1
  Pd  Pd7  1  0.16002107  0.61332564  0.61332564  1
  Pd  Pd8  1  0.34302863  0.00000000  0.00000000  1
  Pd  Pd9  1  0.65697137  1.00000000  1.00000000  1
  Pd  Pd10  1  0.00000000  0.34302863  0.65697137  1
  Pd  Pd11  1  1.00000000  0.65697137  0.34302863  1
  Pd  Pd12  1  0.00000000  0.34302863  0.00000000  1
  Pd  Pd13  1  0.65697137  1.00000000  0.34302863  1
  Pd  Pd14  1  1.00000000  0.65697137  1.00000000  1
  Pd  Pd15  1  0.34302863  0.00000000  0.65697137  1
  Pd  Pd16  1  0.00000000  0.00000000  0.34302863  1
  Pd  Pd17  1  0.00000000  0.00000000  0.65697137  1
  Pd  Pd18  1  0.65697137  0.34302863  0.00000000  1
  Pd  Pd19  1  0.34302863  0.65697137  1.00000000  1
loop_
_geom_bond_atom_site_label_1
_geom_bond_atom_site_label_2
_geom_bond_distance
_geom_bond_site_symmetry_2
Li0 Pd16 2.973413 1_555
Li0 Pd17 2.973413 1_554
Li0 Pd8 2.973413 1_555
Li0 Pd15 2.973413 1_554
Li0 Pd13 2.973413 1_445
Li0 Pd9 2.973413 1_444
Li0 Pd10 2.973413 1_554
Li0 Pd12 2.973413 1_555
Li0 Pd11 2.973413 1_445
Li0 Pd14 2.973413 1_444
Li0 Pd18 2.973413 1_455
Li0 Pd19 2.973413 1_544
Pd0 Si4 2.461002 1_555
Pd0 Si0 2.461003 1_555
Pd0 Si2 2.461003 1_555
Pd0 Sr0 2.901934 1_555
Pd1 Si5 2.461002 1_555
Pd1 Si1 2.461003 1_555
Pd1 Si3 2.461003 1_555
Pd1 Sr1 2.901934 1_555
Pd2 Si3 2.461002 1_555
Pd2 Si1 2.461002 1_555
Pd2 Si4 2.461016 1_555
Pd2 Sr0 2.901920 1_556
Pd3 Si1 2.461002 1_555
Pd3 Si5 2.461002 1_555
Pd3 Si2 2.461016 1_555
Pd3 Sr0 2.901920 1_565
Pd4 Si2 2.461002 1_555
Pd4 Si0 2.461002 1_555
Pd4 Si5 2.461016 1_555
Pd4 Sr1 2.901920 1_554
Pd5 Si0 2.461002 1_555
Pd5 Si4 2.461002 1_555
Pd5 Si3 2.461016 1_555
Pd5 Sr1 2.901920 1_545
Pd6 Si3 2.461002 1_555
Pd6 Si5 2.461002 1_555
Pd6 Si0 2.461016 1_555
Pd6 Sr0 2.901920 1_655
Pd7 Si2 2.461002 1_555
Pd7 Si4 2.461002 1_555
Pd7 Si1 2.461016 1_555
Pd7 Sr1 2.901920 1_455
Pd8 Si2 2.399081 1_545
Pd8 Si4 2.399081 1_554
Pd8 Sr0 3.353117 1_555
Pd8 Sr1 3.353117 1_544
Pd9 Si3 2.399081 1_565
Pd9 Si5 2.399081 1_556
Pd9 Sr1 3.353117 1_555
Pd9 Sr0 3.353117 1_566
Pd10 Si3 2.399081 1_455
Pd10 Si4 2.399081 1_555
Pd10 Sr0 3.353117 1_555
Pd10 Sr1 3.353117 1_455
Pd11 Si2 2.399081 1_655
Pd11 Si5 2.399081 1_555
Pd11 Sr1 3.353117 1_555
Pd11 Sr0 3.353117 1_655
Pd12 Si0 2.399081 1_455
Pd12 Si4 2.399081 1_554
Pd12 Sr0 3.353117 1_555
Pd12 Sr1 3.353117 1_454
Pd13 Si0 2.399081 1_565
Pd13 Si5 2.399081 1_555
Pd13 Sr1 3.353117 1_555
Pd13 Sr0 3.353117 1_565
Pd14 Si1 2.399081 1_655
Pd14 Si5 2.399081 1_556
Pd14 Sr1 3.353117 1_555
Pd14 Sr0 3.353117 1_656
Pd15 Si1 2.399081 1_545
Pd15 Si4 2.399081 1_555
Pd15 Sr0 3.353117 1_555
Pd15 Sr1 3.353117 1_545
Pd16 Si0 2.399081 1_455
Pd16 Si2 2.399081 1_545
Pd16 Sr0 3.353117 1_555
Pd16 Sr1 3.353117 1_445
Pd17 Si3 2.399081 1_455
Pd17 Si1 2.399081 1_545
Pd17 Sr1 3.353117 1_445
Pd17 Sr0 3.353117 1_555
Pd18 Si0 2.399081 1_555
Pd18 Si3 2.399081 1_554
Pd18 Sr0 3.353117 1_555
Pd18 Sr1 3.353117 1_554
Pd19 Si1 2.399081 1_555
Pd19 Si2 2.399081 1_556
Pd19 Sr1 3.353117 1_555
Pd19 Sr0 3.353117 1_556
