# generated using pymatgen
data_CaReH9
_symmetry_space_group_name_H-M   'P 1'
_cell_length_a   4.86607338
_cell_length_b   4.86609147
_cell_length_c   8.85400026
_cell_angle_alpha   90.00000000
_cell_angle_beta   90.00000000
_cell_angle_gamma   119.99992620
_symmetry_Int_Tables_number   1
_chemical_formula_structural   CaReH9
_chemical_formula_sum   'Ca2 Re2 H18'
_cell_volume   181.56385983
_cell_formula_units_Z   2
loop_
 _symmetry_equiv_pos_site_id
 _symmetry_equiv_pos_as_xyz
  1  'x, y, z'
loop_
 _atom_site_type_symbol
 _atom_site_label
 _atom_site_symmetry_multiplicity
 _atom_site_fract_x
 _atom_site_fract_y
 _atom_site_fract_z
 _atom_site_occupancy
  Ca  Ca0  1  0.00000000  0.00000000  0.00000000  1
  Ca  Ca1  1  0.00000000  0.00000000  0.50000000  1
  Re  Re0  1  0.33334069  0.66671290  0.25000000  1
  Re  Re1  1  0.66665931  0.33328710  0.75000000  1
  H  H0  1  0.47618571  0.52382112  0.38523517  1
  H  H1  1  0.47619647  0.95239814  0.38524478  1
  H  H2  1  0.04762110  0.52381683  0.38523917  1
  H  H3  1  0.95237890  0.47618317  0.88523917  1
  H  H4  1  0.13703633  0.27407680  0.25000000  1
  H  H5  1  0.86298661  0.13700779  0.75000000  1
  H  H6  1  0.27404604  0.13701844  0.75000000  1
  H  H7  1  0.72595396  0.86298156  0.25000000  1
  H  H8  1  0.13701339  0.86299221  0.25000000  1
  H  H9  1  0.86296367  0.72592320  0.75000000  1
  H  H10  1  0.47619647  0.95239814  0.11475522  1
  H  H11  1  0.52381429  0.47617888  0.61476483  1
  H  H12  1  0.95237890  0.47618317  0.61476083  1
  H  H13  1  0.04762110  0.52381683  0.11476083  1
  H  H14  1  0.47618571  0.52382112  0.11476483  1
  H  H15  1  0.52380353  0.04760186  0.88524478  1
  H  H16  1  0.52381429  0.47617888  0.88523517  1
  H  H17  1  0.52380353  0.04760186  0.61475522  1
loop_
_geom_bond_atom_site_label_1
_geom_bond_atom_site_label_2
_geom_bond_distance
_geom_bond_site_symmetry_2
Ca0 H8 2.496611 1_545
Ca0 H5 2.496611 1_454
Ca0 H6 2.496659 1_554
Ca0 H7 2.496659 1_445
Ca0 H4 2.496721 1_555
Ca0 H9 2.496721 1_444
Ca0 H10 2.644275 1_545
Ca0 H15 2.644275 1_454
Ca0 H13 2.644291 1_545
Ca0 H3 2.644291 1_454
Ca0 H10 2.644298 1_445
Ca0 H15 2.644298 1_554
Ca0 H16 2.644321 1_554
Ca0 H14 2.644321 1_445
Ca0 H13 2.644349 1_555
Ca0 H3 2.644349 1_444
Ca0 H14 2.644353 1_555
Ca0 H16 2.644353 1_444
Ca1 H5 2.496611 1_455
Ca1 H8 2.496611 1_545
Ca1 H6 2.496659 1_555
Ca1 H7 2.496659 1_445
Ca1 H4 2.496721 1_555
Ca1 H9 2.496721 1_445
Ca1 H17 2.644275 1_455
Ca1 H1 2.644275 1_545
Ca1 H12 2.644291 1_455
Ca1 H2 2.644291 1_545
Ca1 H17 2.644298 1_555
Ca1 H1 2.644298 1_445
Ca1 H11 2.644321 1_555
Ca1 H0 2.644321 1_445
Ca1 H12 2.644349 1_445
Ca1 H2 2.644349 1_555
Ca1 H0 2.644353 1_555
Ca1 H11 2.644353 1_445
H0 Re0 1.698131 1_555
H1 Re0 1.698039 1_555
H2 Re0 1.698104 1_555
H3 Re1 1.698104 1_555
H4 Re0 1.654632 1_555
H5 Re1 1.654503 1_555
H6 Re1 1.654530 1_555
H7 Re0 1.654530 1_555
H8 Re0 1.654503 1_555
H9 Re1 1.654632 1_555
H10 Re0 1.698039 1_555
H11 Re1 1.698131 1_555
H12 Re1 1.698104 1_555
H13 Re0 1.698104 1_555
H14 Re0 1.698131 1_555
H15 Re1 1.698039 1_555
H16 Re1 1.698131 1_555
H17 Re1 1.698039 1_555
