# generated using pymatgen
data_Y5MoRuO12
_symmetry_space_group_name_H-M   'P 1'
_cell_length_a   6.77685487
_cell_length_b   6.77685571
_cell_length_c   7.46071338
_cell_angle_alpha   73.76687258
_cell_angle_beta   73.76686669
_cell_angle_gamma   49.61491630
_symmetry_Int_Tables_number   1
_chemical_formula_structural   Y5MoRuO12
_chemical_formula_sum   'Y5 Mo1 Ru1 O12'
_cell_volume   248.30582798
_cell_formula_units_Z   1
loop_
 _symmetry_equiv_pos_site_id
 _symmetry_equiv_pos_as_xyz
  1  'x, y, z'
loop_
 _atom_site_type_symbol
 _atom_site_label
 _atom_site_symmetry_multiplicity
 _atom_site_fract_x
 _atom_site_fract_y
 _atom_site_fract_z
 _atom_site_occupancy
  Y  Y0  1  0.49130604  0.50869396  0.50000000  1
  Y  Y1  1  0.18010159  0.19159347  0.17440064  1
  Y  Y2  1  0.80840653  0.81989841  0.82559936  1
  Y  Y3  1  0.79241283  0.81746471  0.35890272  1
  Y  Y4  1  0.18253529  0.20758717  0.64109728  1
  Mo  Mo0  1  0.30258545  0.69741455  1.00000000  1
  Ru  Ru0  1  0.73917217  0.26082783  0.00000000  1
  O  O0  1  0.00875528  0.98938245  0.17944851  1
  O  O1  1  0.01061755  0.99124472  0.82055149  1
  O  O2  1  0.50340730  0.49541185  0.79803856  1
  O  O3  1  0.50458815  0.49659270  0.20196144  1
  O  O4  1  0.58729956  0.10090002  0.57755143  1
  O  O5  1  0.89909998  0.41270044  0.42244857  1
  O  O6  1  0.39196060  0.91178135  0.42890730  1
  O  O7  1  0.40476743  0.91017562  0.91867701  1
  O  O8  1  0.08982438  0.59523257  0.08132299  1
  O  O9  1  0.58733758  0.07239536  0.08357301  1
  O  O10  1  0.92760464  0.41266242  0.91642699  1
  O  O11  1  0.08821865  0.60803940  0.57109270  1
loop_
_geom_bond_atom_site_label_1
_geom_bond_atom_site_label_2
_geom_bond_distance
_geom_bond_site_symmetry_2
Mo0 O8 1.869865 1_556
Mo0 O7 1.869865 1_555
Mo0 O2 1.894481 1_555
Mo0 O3 1.894482 1_556
Mo0 O0 2.134821 1_556
Mo0 O1 2.134821 1_555
O0 Ru0 2.037058 1_465
O0 Y1 2.288306 1_565
O0 Y3 2.354425 1_455
O1 Ru0 2.037058 1_466
O1 Y2 2.288306 1_455
O1 Y4 2.354425 1_565
O2 Ru0 2.016368 1_556
O2 Y0 2.222526 1_555
O3 Ru0 2.016368 1_555
O3 Y0 2.222526 1_555
O4 Y4 2.272956 1_555
O4 Y2 2.275703 1_545
O4 Y3 2.303679 1_545
O4 Y0 2.319923 1_555
O5 Y3 2.272957 1_555
O5 Y1 2.275703 1_655
O5 Y4 2.303679 1_655
O5 Y0 2.319922 1_555
O6 Y3 2.278708 1_555
O6 Y0 2.281008 1_555
O6 Y1 2.290352 1_565
O6 Y4 2.317400 1_565
O7 Y2 2.312112 1_555
O7 Y4 2.468987 1_565
O7 Y1 2.498560 1_566
O8 Y1 2.312113 1_555
O8 Y3 2.468987 1_455
O8 Y2 2.498560 1_454
O9 Ru0 1.994252 1_555
O9 Y1 2.258255 1_555
O9 Y3 2.374103 1_545
O9 Y2 2.405000 1_544
O10 Ru0 1.994252 1_556
O10 Y2 2.258255 1_555
O10 Y4 2.374103 1_655
O10 Y1 2.405000 1_656
O11 Y4 2.278709 1_555
O11 Y0 2.281008 1_555
O11 Y2 2.290352 1_455
O11 Y3 2.317400 1_455
