# generated using pymatgen
data_Ca10VReN10
_symmetry_space_group_name_H-M   'P 1'
_cell_length_a   6.84680686
_cell_length_b   6.84680674
_cell_length_c   8.88844392
_cell_angle_alpha   79.91327615
_cell_angle_beta   79.91327404
_cell_angle_gamma   59.61582603
_symmetry_Int_Tables_number   1
_chemical_formula_structural   Ca10VReN10
_chemical_formula_sum   'Ca10 V1 Re1 N10'
_cell_volume   352.05154180
_cell_formula_units_Z   1
loop_
 _symmetry_equiv_pos_site_id
 _symmetry_equiv_pos_as_xyz
  1  'x, y, z'
loop_
 _atom_site_type_symbol
 _atom_site_label
 _atom_site_symmetry_multiplicity
 _atom_site_fract_x
 _atom_site_fract_y
 _atom_site_fract_z
 _atom_site_occupancy
  Ca  Ca0  1  0.87593628  0.34853811  0.83137099  1
  Ca  Ca1  1  0.87321311  0.87321311  0.82567973  1
  Ca  Ca2  1  0.74030166  0.74030166  0.52746534  1
  Ca  Ca3  1  0.75102451  0.24536611  0.51080176  1
  Ca  Ca4  1  0.63420919  0.13723276  0.14897776  1
  Ca  Ca5  1  0.34853811  0.87593628  0.83137099  1
  Ca  Ca6  1  0.24536611  0.75102451  0.51080176  1
  Ca  Ca7  1  0.24637800  0.24637800  0.49889185  1
  Ca  Ca8  1  0.14194300  0.14194300  0.15609523  1
  Ca  Ca9  1  0.13723276  0.63420919  0.14897776  1
  V  V0  1  0.36875365  0.36875365  0.77371731  1
  Re  Re0  1  0.63054375  0.63054375  0.22511544  1
  N  N0  1  0.90659643  0.47514623  0.31612931  1
  N  N1  1  0.99802054  0.99802054  0.01441087  1
  N  N2  1  0.67508305  0.67508305  0.01782478  1
  N  N3  1  0.52721249  0.52721249  0.69574700  1
  N  N4  1  0.47514623  0.90659643  0.31612931  1
  N  N5  1  0.52941040  0.09530539  0.68485689  1
  N  N6  1  0.47282390  0.47282390  0.29749375  1
  N  N7  1  0.32648375  0.32648375  0.98170080  1
  N  N8  1  0.06276368  0.06276368  0.64739247  1
  N  N9  1  0.09530539  0.52941040  0.68485689  1
loop_
_geom_bond_atom_site_label_1
_geom_bond_atom_site_label_2
_geom_bond_distance
_geom_bond_site_symmetry_2
Ca0 N8 2.448478 1_655
Ca0 N9 2.473270 1_655
Ca0 N1 2.486896 1_546
Ca0 N3 2.487464 1_555
Ca0 N2 2.650624 1_556
Ca1 N1 2.453055 1_556
Ca1 N8 2.478502 1_665
Ca1 N9 2.482846 1_655
Ca1 N5 2.482846 1_565
Ca1 N2 2.614544 1_556
Ca2 N0 2.544645 1_555
Ca2 N4 2.544645 1_555
Ca2 N5 2.623588 1_565
Ca2 N9 2.623589 1_655
Ca2 N3 2.668152 1_555
Ca3 N8 2.295511 1_655
Ca3 N5 2.439148 1_555
Ca3 N3 2.451913 1_555
Ca3 N0 2.588410 1_555
Ca3 N6 2.622635 1_555
Ca4 N1 2.344758 1_545
Ca4 N7 2.447362 1_554
Ca4 N6 2.495252 1_555
Ca4 N4 2.497642 1_545
Ca5 N8 2.448478 1_565
Ca5 N5 2.473270 1_565
Ca5 N1 2.486896 1_456
Ca5 N3 2.487464 1_555
Ca5 N2 2.650624 1_556
Ca6 N8 2.295511 1_565
Ca6 N9 2.439148 1_555
Ca6 N3 2.451913 1_555
Ca6 N4 2.588410 1_555
Ca6 N6 2.622635 1_555
Ca7 N8 2.310738 1_555
Ca7 N9 2.460259 1_555
Ca7 N5 2.460259 1_555
Ca7 N4 2.692742 1_545
Ca7 N0 2.692742 1_455
Ca7 N6 2.915396 1_555
Ca8 N1 2.319417 1_445
Ca8 N7 2.416325 1_554
Ca8 N0 2.537647 1_455
Ca8 N4 2.537648 1_545
Ca9 N1 2.344758 1_455
Ca9 N7 2.447362 1_554
Ca9 N6 2.495252 1_555
Ca9 N0 2.497642 1_455
N0 Re0 1.886441 1_555
N2 Re0 1.811413 1_555
N3 V0 1.870417 1_555
N4 Re0 1.886441 1_555
N5 V0 1.862646 1_555
N6 Re0 1.854483 1_555
N7 V0 1.815198 1_555
N9 V0 1.862646 1_555
