# generated using pymatgen
data_Cs3RbCaI6
_symmetry_space_group_name_H-M   'P 1'
_cell_length_a   10.35677443
_cell_length_b   10.35677586
_cell_length_c   10.35677599
_cell_angle_alpha   90.42731956
_cell_angle_beta   90.42732236
_cell_angle_gamma   90.42731932
_symmetry_Int_Tables_number   1
_chemical_formula_structural   Cs3RbCaI6
_chemical_formula_sum   'Cs6 Rb2 Ca2 I12'
_cell_volume   1110.80355048
_cell_formula_units_Z   2
loop_
 _symmetry_equiv_pos_site_id
 _symmetry_equiv_pos_as_xyz
  1  'x, y, z'
loop_
 _atom_site_type_symbol
 _atom_site_label
 _atom_site_symmetry_multiplicity
 _atom_site_fract_x
 _atom_site_fract_y
 _atom_site_fract_z
 _atom_site_occupancy
  Cs  Cs0  1  0.87126382  0.62873618  0.25000000  1
  Cs  Cs1  1  0.62873618  0.25000000  0.87126382  1
  Cs  Cs2  1  0.25000000  0.87126382  0.62873618  1
  Cs  Cs3  1  0.12873618  0.37126382  0.75000000  1
  Cs  Cs4  1  0.37126382  0.75000000  0.12873618  1
  Cs  Cs5  1  0.75000000  0.12873618  0.37126382  1
  Rb  Rb0  1  0.25000000  0.25000000  0.25000000  1
  Rb  Rb1  1  0.75000000  0.75000000  0.75000000  1
  Ca  Ca0  1  0.00000000  0.00000000  0.00000000  1
  Ca  Ca1  1  0.50000000  0.50000000  0.50000000  1
  I  I0  1  0.20873797  0.55393560  0.42548177  1
  I  I1  1  0.05393560  0.70873797  0.92548177  1
  I  I2  1  0.92548177  0.05393560  0.70873797  1
  I  I3  1  0.79126203  0.44606440  0.57451823  1
  I  I4  1  0.70873797  0.92548177  0.05393560  1
  I  I5  1  0.44606440  0.57451823  0.79126203  1
  I  I6  1  0.57451823  0.79126203  0.44606440  1
  I  I7  1  0.55393560  0.42548177  0.20873797  1
  I  I8  1  0.07451823  0.94606440  0.29126203  1
  I  I9  1  0.94606440  0.29126203  0.07451823  1
  I  I10  1  0.29126203  0.07451823  0.94606440  1
  I  I11  1  0.42548177  0.20873797  0.55393560  1
loop_
_geom_bond_atom_site_label_1
_geom_bond_atom_site_label_2
_geom_bond_distance
_geom_bond_site_symmetry_2
Cs0 I7 3.908631 1_555
Cs0 I8 3.908632 1_655
Cs0 I1 3.959146 1_654
Cs0 I3 3.959146 1_555
Cs0 I0 4.010717 1_655
Cs0 I9 4.010718 1_555
Cs0 I6 4.064632 1_555
Cs0 I4 4.064632 1_555
Cs1 I9 3.908631 1_556
Cs1 I11 3.908632 1_555
Cs1 I5 3.959145 1_555
Cs1 I4 3.959146 1_546
Cs1 I10 4.010717 1_555
Cs1 I7 4.010718 1_556
Cs1 I2 4.064632 1_555
Cs1 I3 4.064632 1_555
Cs2 I0 3.908632 1_555
Cs2 I10 3.908632 1_565
Cs2 I2 3.959145 1_465
Cs2 I6 3.959145 1_555
Cs2 I8 4.010717 1_555
Cs2 I11 4.010718 1_565
Cs2 I5 4.064632 1_555
Cs2 I1 4.064632 1_555
Cs3 I5 3.908631 1_555
Cs3 I2 3.908632 1_455
Cs3 I9 3.959146 1_456
Cs3 I0 3.959146 1_555
Cs3 I3 4.010717 1_455
Cs3 I1 4.010718 1_555
Cs3 I11 4.064632 1_555
Cs3 I10 4.064632 1_555
Cs4 I1 3.908631 1_554
Cs4 I6 3.908632 1_555
Cs4 I7 3.959145 1_555
Cs4 I10 3.959146 1_564
Cs4 I4 4.010717 1_555
Cs4 I5 4.010718 1_554
Cs4 I8 4.064632 1_555
Cs4 I0 4.064632 1_555
Cs5 I3 3.908632 1_555
Cs5 I4 3.908632 1_545
Cs5 I8 3.959145 1_645
Cs5 I11 3.959145 1_555
Cs5 I2 4.010717 1_555
Cs5 I6 4.010718 1_545
Cs5 I7 4.064632 1_555
Cs5 I9 4.064632 1_555
Ca0 I10 3.162907 1_554
Ca0 I4 3.162907 1_445
Ca0 I8 3.162908 1_545
Ca0 I2 3.162908 1_454
Ca0 I9 3.162908 1_455
Ca0 I1 3.162908 1_544
Ca1 I3 3.162907 1_555
Ca1 I0 3.162907 1_555
Ca1 I6 3.162908 1_555
Ca1 I11 3.162908 1_555
Ca1 I5 3.162908 1_555
Ca1 I7 3.162908 1_555
I0 Rb0 3.652475 1_555
I1 Rb1 3.652474 1_455
I2 Rb1 3.652475 1_545
I3 Rb1 3.652475 1_555
I4 Rb1 3.652475 1_554
I5 Rb1 3.652475 1_555
I6 Rb1 3.652475 1_555
I7 Rb0 3.652475 1_555
I8 Rb0 3.652475 1_565
I9 Rb0 3.652474 1_655
I10 Rb0 3.652475 1_556
I11 Rb0 3.652475 1_555
