# generated using pymatgen
data_Zr6Zn16Cu7B
_symmetry_space_group_name_H-M   'P 1'
_cell_length_a   8.51188530
_cell_length_b   8.51188492
_cell_length_c   8.51188452
_cell_angle_alpha   59.99999405
_cell_angle_beta   59.99999552
_cell_angle_gamma   59.99999989
_symmetry_Int_Tables_number   1
_chemical_formula_structural   Zr6Zn16Cu7B
_chemical_formula_sum   'Zr6 Zn16 Cu7 B1'
_cell_volume   436.07601128
_cell_formula_units_Z   1
loop_
 _symmetry_equiv_pos_site_id
 _symmetry_equiv_pos_as_xyz
  1  'x, y, z'
loop_
 _atom_site_type_symbol
 _atom_site_label
 _atom_site_symmetry_multiplicity
 _atom_site_fract_x
 _atom_site_fract_y
 _atom_site_fract_z
 _atom_site_occupancy
  Zr  Zr0  1  0.69656611  0.30343389  0.30343389  1
  Zr  Zr1  1  0.30343389  0.69656611  0.69656611  1
  Zr  Zr2  1  0.30343389  0.69656611  0.30343389  1
  Zr  Zr3  1  0.69656611  0.30343389  0.69656611  1
  Zr  Zr4  1  0.30343389  0.30343389  0.69656611  1
  Zr  Zr5  1  0.69656611  0.69656611  0.30343389  1
  Zn  Zn0  1  0.12012459  0.12012459  0.12012459  1
  Zn  Zn1  1  0.87987541  0.87987541  0.87987541  1
  Zn  Zn2  1  0.12012459  0.12012459  0.63962622  1
  Zn  Zn3  1  0.12012459  0.63962622  0.12012459  1
  Zn  Zn4  1  0.87987541  0.87987541  0.36037378  1
  Zn  Zn5  1  0.87987541  0.36037378  0.87987541  1
  Zn  Zn6  1  0.63962622  0.12012459  0.12012459  1
  Zn  Zn7  1  0.36037378  0.87987541  0.87987541  1
  Zn  Zn8  1  0.33169940  0.33169940  0.33169940  1
  Zn  Zn9  1  0.66830060  0.66830060  0.66830060  1
  Zn  Zn10  1  0.33169940  0.33169940  0.00490279  1
  Zn  Zn11  1  0.33169940  0.00490279  0.33169940  1
  Zn  Zn12  1  0.66830060  0.66830060  0.99509721  1
  Zn  Zn13  1  0.66830060  0.99509721  0.66830060  1
  Zn  Zn14  1  0.00490279  0.33169940  0.33169940  1
  Zn  Zn15  1  0.99509721  0.66830060  0.66830060  1
  Cu  Cu0  1  0.50000000  0.00000000  0.00000000  1
  Cu  Cu1  1  0.00000000  0.50000000  0.50000000  1
  Cu  Cu2  1  0.00000000  0.50000000  0.00000000  1
  Cu  Cu3  1  0.50000000  0.00000000  0.50000000  1
  Cu  Cu4  1  0.00000000  0.00000000  0.50000000  1
  Cu  Cu5  1  0.50000000  0.50000000  0.00000000  1
  Cu  Cu6  1  0.00000000  0.00000000  0.00000000  1
  B  B0  1  0.50000000  0.50000000  0.50000000  1
loop_
_geom_bond_atom_site_label_1
_geom_bond_atom_site_label_2
_geom_bond_distance
_geom_bond_site_symmetry_2
Zn0 Zn10 2.675654 1_555
Zn0 Zn14 2.675654 1_555
Zn0 Zn11 2.675654 1_555
Zn0 Zn4 2.892029 1_445
Zn0 Zn7 2.892029 1_544
Zn0 Zn5 2.892029 1_454
Zn0 Zr4 3.008494 1_554
Zn0 Zr2 3.008494 1_545
Zn0 Zr0 3.008494 1_455
Zn1 Zn12 2.675654 1_555
Zn1 Zn15 2.675654 1_555
Zn1 Zn13 2.675654 1_555
Zn1 Zn2 2.892029 1_665
Zn1 Zn6 2.892029 1_566
Zn1 Zn3 2.892029 1_656
Zn1 Zr5 3.008494 1_556
Zn1 Zr3 3.008494 1_565
Zn1 Zr1 3.008494 1_655
Zn2 Zn8 2.675651 1_555
Zn2 Zn5 2.892029 1_455
Zn2 Zn7 2.892029 1_545
Zn2 Zr1 3.008494 1_545
Zn2 Zr4 3.008494 1_555
Zn2 Zr3 3.008494 1_455
Zn3 Zn8 2.675651 1_555
Zn3 Zn7 2.892029 1_554
Zn3 Zn4 2.892029 1_455
Zn3 Zr1 3.008494 1_554
Zn3 Zr5 3.008494 1_455
Zn3 Zr2 3.008494 1_555
Zn4 Zn9 2.675651 1_555
Zn4 Zn6 2.892029 1_565
Zn4 Zr0 3.008494 1_565
Zn4 Zr5 3.008494 1_555
Zn4 Zr2 3.008494 1_655
Zn5 Zn9 2.675651 1_555
Zn5 Zn6 2.892029 1_556
Zn5 Zr0 3.008494 1_556
Zn5 Zr4 3.008494 1_655
Zn5 Zr3 3.008494 1_555
Zn6 Zn8 2.675651 1_555
Zn6 Zr3 3.008494 1_554
Zn6 Zr5 3.008494 1_545
Zn6 Zr0 3.008494 1_555
Zn7 Zn9 2.675651 1_555
Zn7 Zr2 3.008494 1_556
Zn7 Zr4 3.008494 1_565
Zn7 Zr1 3.008494 1_555
Zn8 Zr4 2.885243 1_555
Zn8 Zr2 2.885243 1_555
Zn8 Zr0 2.885243 1_555
Zn9 Zr5 2.885243 1_555
Zn9 Zr3 2.885243 1_555
Zn9 Zr1 2.885243 1_555
Zn10 Zn3 2.675647 1_555
Zn10 Zn6 2.675647 1_555
Zn10 Zn11 2.781655 1_555
Zn10 Zn14 2.781655 1_555
Zn10 Zn8 2.781655 1_555
Zn10 Zr1 2.885246 1_554
Zn10 Zr3 2.885247 1_554
Zn10 Zr4 2.885252 1_554
Zn11 Zn2 2.675647 1_555
Zn11 Zn6 2.675647 1_555
Zn11 Zn8 2.781655 1_555
Zn11 Zn14 2.781655 1_555
Zn11 Zr1 2.885246 1_545
Zn11 Zr5 2.885247 1_545
Zn11 Zr2 2.885252 1_545
Zn12 Zn5 2.675647 1_555
Zn12 Zn7 2.675647 1_555
Zn12 Zn13 2.781655 1_555
Zn12 Zn15 2.781655 1_555
Zn12 Zn9 2.781655 1_555
Zn12 Zr0 2.885246 1_556
Zn12 Zr2 2.885247 1_556
Zn12 Zr5 2.885252 1_556
Zn13 Zn4 2.675647 1_555
Zn13 Zn7 2.675647 1_555
Zn13 Zn9 2.781655 1_555
Zn13 Zn15 2.781655 1_555
Zn13 Zr0 2.885246 1_565
Zn13 Zr4 2.885247 1_565
Zn13 Zr3 2.885252 1_565
Zn14 Zn3 2.675647 1_555
Zn14 Zn2 2.675647 1_555
Zn14 Zn8 2.781655 1_555
Zn14 Zr3 2.885247 1_455
Zn14 Zr5 2.885247 1_455
Zn14 Zr0 2.885252 1_455
Zn15 Zn5 2.675647 1_555
Zn15 Zn4 2.675647 1_555
Zn15 Zn9 2.781655 1_555
Zn15 Zr2 2.885247 1_655
Zn15 Zr4 2.885247 1_655
Zn15 Zr1 2.885252 1_655
Cu0 Zn11 2.457408 1_555
Cu0 Zn13 2.457408 1_544
Cu0 Zn10 2.457408 1_555
Cu0 Zn12 2.457408 1_544
Cu0 Zn1 2.641845 1_544
Cu0 Zn0 2.641845 1_555
Cu0 Zn6 2.641845 1_555
Cu0 Zn7 2.641845 1_544
Cu0 Zr3 3.077377 1_554
Cu0 Zr2 3.077377 1_545
Cu0 Zr5 3.077377 1_545
Cu0 Zr4 3.077377 1_554
Cu1 Zn15 2.457401 1_455
Cu1 Zn14 2.457401 1_555
Cu1 Zn8 2.457406 1_555
Cu1 Zn9 2.457406 1_455
Cu1 Zn5 2.641844 1_455
Cu1 Zn3 2.641844 1_555
Cu1 Zn4 2.641844 1_455
Cu1 Zn2 2.641844 1_555
Cu1 Zr2 3.077377 1_555
Cu1 Zr3 3.077377 1_455
Cu1 Zr4 3.077377 1_555
Cu1 Zr5 3.077377 1_455
Cu2 Zn14 2.457408 1_555
Cu2 Zn15 2.457408 1_454
Cu2 Zn10 2.457408 1_555
Cu2 Zn12 2.457408 1_454
Cu2 Zn1 2.641844 1_454
Cu2 Zn0 2.641844 1_555
Cu2 Zn3 2.641845 1_555
Cu2 Zn5 2.641845 1_454
Cu2 Zr1 3.077377 1_554
Cu2 Zr0 3.077377 1_455
Cu2 Zr5 3.077377 1_455
Cu2 Zr4 3.077377 1_554
Cu3 Zn13 2.457401 1_545
Cu3 Zn11 2.457401 1_555
Cu3 Zn9 2.457406 1_545
Cu3 Zn8 2.457406 1_555
Cu3 Zn7 2.641844 1_545
Cu3 Zn6 2.641844 1_555
Cu3 Zn4 2.641845 1_545
Cu3 Zn2 2.641845 1_555
Cu3 Zr0 3.077377 1_555
Cu3 Zr1 3.077377 1_545
Cu3 Zr4 3.077377 1_555
Cu3 Zr5 3.077377 1_545
Cu4 Zn14 2.457408 1_555
Cu4 Zn15 2.457408 1_445
Cu4 Zn11 2.457408 1_555
Cu4 Zn13 2.457408 1_445
Cu4 Zn1 2.641844 1_445
Cu4 Zn0 2.641844 1_555
Cu4 Zn2 2.641845 1_555
Cu4 Zn4 2.641845 1_445
Cu4 Zr1 3.077377 1_545
Cu4 Zr0 3.077377 1_455
Cu4 Zr3 3.077377 1_455
Cu4 Zr2 3.077377 1_545
Cu5 Zn12 2.457401 1_554
Cu5 Zn10 2.457401 1_555
Cu5 Zn8 2.457405 1_555
Cu5 Zn9 2.457405 1_554
Cu5 Zn7 2.641844 1_554
Cu5 Zn6 2.641844 1_555
Cu5 Zn5 2.641845 1_554
Cu5 Zn3 2.641845 1_555
Cu5 Zr2 3.077377 1_555
Cu5 Zr3 3.077377 1_554
Cu5 Zr0 3.077377 1_555
Cu5 Zr1 3.077377 1_554
Cu6 Zn4 2.504570 1_445
Cu6 Zn2 2.504570 1_554
Cu6 Zn5 2.504571 1_454
Cu6 Zn3 2.504571 1_545
Cu6 Zn7 2.504571 1_544
Cu6 Zn6 2.504571 1_455
Cu6 Zn0 2.504571 1_555
Cu6 Zn1 2.504571 1_444
B0 Zr5 2.366189 1_555
B0 Zr4 2.366189 1_555
B0 Zr1 2.366189 1_555
B0 Zr0 2.366189 1_555
B0 Zr3 2.366189 1_555
B0 Zr2 2.366189 1_555
