# generated using pymatgen
data_CaHg(CO3)2
_symmetry_space_group_name_H-M   'P 1'
_cell_length_a   6.30184830
_cell_length_b   6.30184782
_cell_length_c   6.30184875
_cell_angle_alpha   47.22689764
_cell_angle_beta   47.22689870
_cell_angle_gamma   47.22689616
_symmetry_Int_Tables_number   1
_chemical_formula_structural   CaHg(CO3)2
_chemical_formula_sum   'Ca1 Hg1 C2 O6'
_cell_volume   123.32968747
_cell_formula_units_Z   1
loop_
 _symmetry_equiv_pos_site_id
 _symmetry_equiv_pos_as_xyz
  1  'x, y, z'
loop_
 _atom_site_type_symbol
 _atom_site_label
 _atom_site_symmetry_multiplicity
 _atom_site_fract_x
 _atom_site_fract_y
 _atom_site_fract_z
 _atom_site_occupancy
  Ca  Ca0  1  0.00000000  0.00000000  0.00000000  1
  Hg  Hg0  1  0.50000000  0.50000000  0.50000000  1
  C  C0  1  0.24861482  0.24861482  0.24861482  1
  C  C1  1  0.75138518  0.75138518  0.75138518  1
  O  O0  1  0.99932503  0.23843438  0.51031575  1
  O  O1  1  0.51031575  0.99932503  0.23843438  1
  O  O2  1  0.23843438  0.51031575  0.99932503  1
  O  O3  1  0.00067497  0.76156562  0.48968425  1
  O  O4  1  0.48968425  0.00067497  0.76156562  1
  O  O5  1  0.76156562  0.48968425  0.00067497  1
loop_
_geom_bond_atom_site_label_1
_geom_bond_atom_site_label_2
_geom_bond_distance
_geom_bond_site_symmetry_2
Ca0 O5 2.343517 1_455
Ca0 O2 2.343517 1_544
Ca0 O4 2.343517 1_554
Ca0 O1 2.343517 1_445
Ca0 O3 2.343517 1_545
Ca0 O0 2.343517 1_454
Hg0 O1 2.389648 1_555
Hg0 O4 2.389648 1_555
Hg0 O0 2.389648 1_555
Hg0 O3 2.389648 1_555
Hg0 O2 2.389648 1_555
Hg0 O5 2.389648 1_555
C0 O1 1.290835 1_545
C0 O2 1.290835 1_554
C0 O0 1.290835 1_455
C1 O4 1.290835 1_565
C1 O5 1.290835 1_556
C1 O3 1.290835 1_655
