# generated using pymatgen
data_CuPdRhSe4
_symmetry_space_group_name_H-M   'P 1'
_cell_length_a   7.34187801
_cell_length_b   7.37689440
_cell_length_c   7.34187840
_cell_angle_alpha   59.84210776
_cell_angle_beta   59.98594989
_cell_angle_gamma   59.84210552
_symmetry_Int_Tables_number   1
_chemical_formula_structural   CuPdRhSe4
_chemical_formula_sum   'Cu2 Pd2 Rh2 Se8'
_cell_volume   280.46999282
_cell_formula_units_Z   2
loop_
 _symmetry_equiv_pos_site_id
 _symmetry_equiv_pos_as_xyz
  1  'x, y, z'
loop_
 _atom_site_type_symbol
 _atom_site_label
 _atom_site_symmetry_multiplicity
 _atom_site_fract_x
 _atom_site_fract_y
 _atom_site_fract_z
 _atom_site_occupancy
  Cu  Cu0  1  0.49740847  0.50259153  0.49740847  1
  Cu  Cu1  1  0.75259153  0.74740847  0.75259153  1
  Pd  Pd0  1  0.12500000  0.12500000  0.12500000  1
  Pd  Pd1  1  0.12500000  0.62500000  0.12500000  1
  Rh  Rh0  1  0.12500000  0.12500000  0.62500000  1
  Rh  Rh1  1  0.62500000  0.12500000  0.12500000  1
  Se  Se0  1  0.34815163  0.88539955  0.88105026  1
  Se  Se1  1  0.36841528  0.35936044  0.36841528  1
  Se  Se2  1  0.90184837  0.36460045  0.36894974  1
  Se  Se3  1  0.88105026  0.88539955  0.34815163  1
  Se  Se4  1  0.88158472  0.89063956  0.88158472  1
  Se  Se5  1  0.36841528  0.90380899  0.36841528  1
  Se  Se6  1  0.36894974  0.36460045  0.90184837  1
  Se  Se7  1  0.88158472  0.34619101  0.88158472  1
loop_
_geom_bond_atom_site_label_1
_geom_bond_atom_site_label_2
_geom_bond_distance
_geom_bond_site_symmetry_2
Cu0 Se1 2.412129 1_555
Cu0 Se5 2.412129 1_555
Cu0 Se2 2.422529 1_555
Cu0 Se6 2.422530 1_555
Cu1 Se4 2.412129 1_555
Cu1 Se7 2.412129 1_555
Cu1 Se0 2.422529 1_555
Cu1 Se3 2.422530 1_555
Pd0 Se2 2.520258 1_455
Pd0 Se0 2.520258 1_544
Pd0 Se6 2.520258 1_554
Pd0 Se3 2.520258 1_445
Pd0 Se5 2.526921 1_545
Pd0 Se7 2.526921 1_454
Pd1 Se3 2.520264 1_455
Pd1 Se6 2.520264 1_554
Pd1 Se0 2.520264 1_554
Pd1 Se2 2.520264 1_455
Pd1 Se1 2.526921 1_555
Pd1 Se4 2.526921 1_454
Rh0 Se0 2.485019 1_545
Rh0 Se2 2.485019 1_455
Rh0 Se7 2.489077 1_455
Rh0 Se5 2.489077 1_545
Rh0 Se1 2.489077 1_555
Rh0 Se4 2.489077 1_445
Rh1 Se3 2.485019 1_545
Rh1 Se6 2.485019 1_554
Rh1 Se1 2.489077 1_555
Rh1 Se4 2.489077 1_544
Rh1 Se7 2.489077 1_554
Rh1 Se5 2.489077 1_545
