# generated using pymatgen
data_RbCr3O8
_symmetry_space_group_name_H-M   'P 1'
_cell_length_a   5.08964928
_cell_length_b   15.97238385
_cell_length_c   5.08965507
_cell_angle_alpha   85.18741072
_cell_angle_beta   64.69385078
_cell_angle_gamma   85.18709069
_symmetry_Int_Tables_number   1
_chemical_formula_structural   RbCr3O8
_chemical_formula_sum   'Rb2 Cr6 O16'
_cell_volume   372.20289889
_cell_formula_units_Z   2
loop_
 _symmetry_equiv_pos_site_id
 _symmetry_equiv_pos_as_xyz
  1  'x, y, z'
loop_
 _atom_site_type_symbol
 _atom_site_label
 _atom_site_symmetry_multiplicity
 _atom_site_fract_x
 _atom_site_fract_y
 _atom_site_fract_z
 _atom_site_occupancy
  Rb  Rb0  1  0.00000839  0.00000808  0.00000500  1
  Rb  Rb1  1  -0.00000400  0.49999283  -0.00000563  1
  Cr  Cr0  1  0.00001400  0.25001079  0.00001277  1
  Cr  Cr1  1  -0.00001746  0.74999289  -0.00002450  1
  Cr  Cr2  1  0.62507326  0.84795492  0.62507191  1
  Cr  Cr3  1  0.37494795  0.15206250  0.37494322  1
  Cr  Cr4  1  0.37496501  0.65202608  0.37496698  1
  Cr  Cr5  1  0.62503540  0.34795340  0.62505090  1
  O  O0  1  0.22353643  0.22357727  0.22353450  1
  O  O1  1  0.22350678  0.72354388  0.22350380  1
  O  O2  1  0.77644841  0.27643919  0.77645407  1
  O  O3  1  0.77648535  0.77644603  0.77647737  1
  O  O4  1  0.67753873  0.44186608  0.67756070  1
  O  O5  1  0.67756245  0.94187369  0.67756311  1
  O  O6  1  0.32244988  0.05814882  0.32244410  1
  O  O7  1  0.32244800  0.55810223  0.32244397  1
  O  O8  1  0.26577195  0.33633557  0.76891103  1
  O  O9  1  0.26572823  0.83633083  0.76896383  1
  O  O10  1  0.23108785  0.16367255  0.73423369  1
  O  O11  1  0.23103789  0.66366051  0.73426555  1
  O  O12  1  0.73423209  0.16367330  0.23109293  1
  O  O13  1  0.73426919  0.66366046  0.23103116  1
  O  O14  1  0.76890940  0.33633605  0.26577525  1
  O  O15  1  0.76896582  0.83633206  0.26572427  1
loop_
_geom_bond_atom_site_label_1
_geom_bond_atom_site_label_2
_geom_bond_distance
_geom_bond_site_symmetry_2
Cr0 O0 1.926660 1_555
Cr0 O2 1.926987 1_454
Cr0 O8 1.948046 1_554
Cr0 O14 1.948057 1_455
Cr0 O10 1.948209 1_554
Cr0 O12 1.948225 1_455
Cr1 O3 1.926493 1_454
Cr1 O1 1.926725 1_555
Cr1 O11 1.947944 1_554
Cr1 O13 1.947963 1_455
Cr1 O9 1.948052 1_554
Cr1 O15 1.948071 1_455
Cr2 O5 1.608906 1_555
Cr2 O3 1.644553 1_555
Cr2 O9 1.674786 1_555
Cr2 O15 1.674795 1_555
Cr3 O6 1.608855 1_555
Cr3 O0 1.644619 1_555
Cr3 O12 1.674476 1_555
Cr3 O10 1.674501 1_555
Cr4 O7 1.609080 1_555
Cr4 O1 1.644964 1_555
Cr4 O11 1.674590 1_555
Cr4 O13 1.674614 1_555
Cr5 O4 1.608865 1_555
Cr5 O2 1.644601 1_555
Cr5 O8 1.674396 1_555
Cr5 O14 1.674449 1_555
O4 Rb1 3.010400 1_656
O4 Rb1 3.213605 1_556
O4 Rb1 3.213726 1_655
O5 Rb0 3.010436 1_666
O5 Rb0 3.213686 1_566
O5 Rb0 3.213716 1_665
O6 Rb0 3.010447 1_555
O6 Rb0 3.213728 1_655
O6 Rb0 3.213751 1_556
O7 Rb1 3.010333 1_555
O7 Rb1 3.213567 1_655
O7 Rb1 3.213589 1_556
O8 Rb1 2.934019 1_556
O9 Rb0 2.934181 1_566
O10 Rb0 2.934123 1_556
O11 Rb1 2.934069 1_556
O12 Rb0 2.934139 1_655
O13 Rb1 2.934046 1_655
O14 Rb1 2.934035 1_655
O15 Rb0 2.934177 1_665
