# generated using pymatgen
data_Sc12AlNi4Os
_symmetry_space_group_name_H-M   'P 1'
_cell_length_a   7.70824215
_cell_length_b   7.70808920
_cell_length_c   7.70824202
_cell_angle_alpha   111.13009430
_cell_angle_beta   110.56640780
_cell_angle_gamma   106.75221847
_symmetry_Int_Tables_number   1
_chemical_formula_structural   Sc12AlNi4Os
_chemical_formula_sum   'Sc12 Al1 Ni4 Os1'
_cell_volume   351.95761511
_cell_formula_units_Z   1
loop_
 _symmetry_equiv_pos_site_id
 _symmetry_equiv_pos_as_xyz
  1  'x, y, z'
loop_
 _atom_site_type_symbol
 _atom_site_label
 _atom_site_symmetry_multiplicity
 _atom_site_fract_x
 _atom_site_fract_y
 _atom_site_fract_z
 _atom_site_occupancy
  Sc  Sc0  1  0.42497151  0.23060249  0.19437006  1
  Sc  Sc1  1  0.57502849  0.76939751  0.80562994  1
  Sc  Sc2  1  0.03623143  0.23060249  0.80562998  1
  Sc  Sc3  1  0.96376857  0.76939751  0.19437002  1
  Sc  Sc4  1  0.32317371  0.62126962  0.29809591  1
  Sc  Sc5  1  0.67682629  0.37873038  0.70190409  1
  Sc  Sc6  1  0.32317899  0.02508155  0.70190255  1
  Sc  Sc7  1  0.67682101  0.97491845  0.29809745  1
  Sc  Sc8  1  0.18065434  0.27484557  0.45550570  1
  Sc  Sc9  1  0.81934566  0.72515343  0.54449430  1
  Sc  Sc10  1  0.18065914  0.72515343  0.90580977  1
  Sc  Sc11  1  0.81934086  0.27484557  0.09419023  1
  Al  Al0  1  0.50000000  0.50000000  0.00000000  1
  Ni  Ni0  1  0.35407511  1.00000000  0.35407511  1
  Ni  Ni1  1  0.64592489  0.00000000  0.64592489  1
  Ni  Ni2  1  0.12347328  0.62345609  0.49998281  1
  Ni  Ni3  1  0.87652672  0.37654391  0.50001719  1
  Os  Os0  1  0.00000000  0.00000000  0.00000000  1
loop_
_geom_bond_atom_site_label_1
_geom_bond_atom_site_label_2
_geom_bond_distance
_geom_bond_site_symmetry_2
Sc0 Sc10 3.201974 1_544
Sc0 Sc8 3.202091 1_555
Sc0 Sc4 3.223349 1_555
Sc0 Sc6 3.223420 1_554
Sc0 Sc7 3.247048 1_545
Sc0 Sc5 3.247059 1_555
Sc0 Sc9 3.345839 1_555
Sc0 Sc11 3.345907 1_555
Sc0 Sc2 3.413139 1_554
Sc1 Sc11 3.201968 1_566
Sc1 Sc9 3.202091 1_555
Sc1 Sc5 3.223349 1_555
Sc1 Sc7 3.223420 1_556
Sc1 Sc6 3.247048 1_565
Sc1 Sc4 3.247059 1_555
Sc1 Sc8 3.345843 1_555
Sc1 Sc10 3.345906 1_555
Sc1 Sc3 3.413139 1_556
Sc2 Sc9 3.201975 1_445
Sc2 Sc4 3.223353 1_556
Sc2 Sc6 3.223425 1_555
Sc2 Sc7 3.247041 1_445
Sc2 Sc5 3.247052 1_455
Sc2 Sc8 3.345892 1_555
Sc3 Sc8 3.201969 1_665
Sc3 Sc5 3.223353 1_554
Sc3 Sc7 3.223425 1_555
Sc3 Sc6 3.247041 1_665
Sc3 Sc4 3.247052 1_655
Sc3 Sc9 3.345894 1_555
Sc4 Sc7 3.252409 1_555
Sc4 Sc9 3.303121 1_555
Sc4 Sc8 3.375028 1_555
Sc5 Sc6 3.252409 1_555
Sc5 Sc8 3.303119 1_555
Sc5 Sc9 3.375022 1_555
Sc6 Sc8 3.303053 1_555
Sc6 Sc9 3.375037 1_445
Sc7 Sc9 3.303059 1_555
Sc7 Sc8 3.375035 1_665
Sc10 Sc9 3.172343 1_455
Sc10 Sc3 3.202078 1_456
Sc10 Sc7 3.303055 1_556
Sc10 Sc4 3.303107 1_556
Sc10 Sc2 3.345831 1_555
Sc10 Sc5 3.375018 1_455
Sc10 Sc6 3.375050 1_565
Sc11 Sc8 3.172343 1_655
Sc11 Sc2 3.202078 1_654
Sc11 Sc6 3.303055 1_554
Sc11 Sc5 3.303112 1_554
Sc11 Sc3 3.345839 1_555
Sc11 Sc4 3.375021 1_655
Sc11 Sc7 3.375044 1_545
Al0 Sc0 3.008457 1_555
Al0 Sc1 3.008457 1_554
Al0 Sc3 3.008462 1_555
Al0 Sc2 3.008462 1_554
Al0 Sc7 3.065491 1_555
Al0 Sc6 3.065491 1_554
Al0 Sc5 3.065587 1_554
Al0 Sc4 3.065587 1_555
Al0 Sc10 3.422552 1_554
Al0 Sc8 3.422553 1_554
Al0 Sc9 3.422554 1_555
Al0 Sc11 3.422558 1_555
Ni0 Sc3 2.542428 1_455
Ni0 Sc0 2.542432 1_565
Ni0 Ni1 2.562442 1_565
Ni0 Sc5 2.717335 1_565
Ni0 Sc4 2.717335 1_555
Ni0 Sc6 2.717360 1_565
Ni0 Sc7 2.717360 1_555
Ni0 Sc10 2.838847 1_554
Ni0 Sc8 2.838853 1_565
Ni1 Sc2 2.542428 1_655
Ni1 Sc1 2.542432 1_545
Ni1 Sc4 2.717335 1_545
Ni1 Sc5 2.717335 1_555
Ni1 Sc7 2.717360 1_545
Ni1 Sc6 2.717360 1_555
Ni1 Sc11 2.838845 1_556
Ni1 Sc9 2.838859 1_545
Ni2 Ni3 2.271108 1_455
Ni2 Sc4 2.543754 1_555
Ni2 Sc6 2.543912 1_565
Ni2 Sc8 2.767158 1_555
Ni2 Sc11 2.767160 1_455
Ni2 Sc9 2.767392 1_455
Ni2 Sc10 2.767407 1_555
Ni2 Sc3 3.000307 1_455
Ni2 Sc1 3.000315 1_555
Ni3 Sc5 2.543754 1_555
Ni3 Sc7 2.543912 1_545
Ni3 Sc9 2.767151 1_555
Ni3 Sc10 2.767158 1_655
Ni3 Sc8 2.767396 1_655
Ni3 Sc11 2.767406 1_555
Ni3 Sc2 3.000307 1_655
Ni3 Sc0 3.000315 1_555
Os0 Sc0 2.722153 1_555
Os0 Sc1 2.722153 1_444
Os0 Sc2 2.722159 1_554
Os0 Sc3 2.722159 1_445
Os0 Sc11 2.873437 1_455
Os0 Sc10 2.873443 1_544
Os0 Sc8 2.873445 1_555
Os0 Sc9 2.873446 1_444
