# generated using pymatgen
data_SrV2GeO8
_symmetry_space_group_name_H-M   'P 1'
_cell_length_a   5.01718487
_cell_length_b   5.01718431
_cell_length_c   7.16958586
_cell_angle_alpha   87.66680392
_cell_angle_beta   87.66680699
_cell_angle_gamma   66.80252007
_symmetry_Int_Tables_number   1
_chemical_formula_structural   SrV2GeO8
_chemical_formula_sum   'Sr1 V2 Ge1 O8'
_cell_volume   165.68564625
_cell_formula_units_Z   1
loop_
 _symmetry_equiv_pos_site_id
 _symmetry_equiv_pos_as_xyz
  1  'x, y, z'
loop_
 _atom_site_type_symbol
 _atom_site_label
 _atom_site_symmetry_multiplicity
 _atom_site_fract_x
 _atom_site_fract_y
 _atom_site_fract_z
 _atom_site_occupancy
  Sr  Sr0  1  0.00000000  0.00000000  0.50000000  1
  V  V0  1  0.36989353  0.36989353  0.78909385  1
  V  V1  1  0.63010647  0.63010647  0.21090615  1
  Ge  Ge0  1  0.00000000  0.00000000  0.00000000  1
  O  O0  1  0.30290401  0.30290401  0.57474179  1
  O  O1  1  0.69709599  0.69709599  0.42525821  1
  O  O2  1  0.74976729  0.21887054  0.80984172  1
  O  O3  1  0.25023271  0.78112946  0.19015828  1
  O  O4  1  0.78112946  0.25023271  0.19015828  1
  O  O5  1  0.21887054  0.74976729  0.80984172  1
  O  O6  1  0.22135817  0.22135817  0.95818485  1
  O  O7  1  0.77864183  0.77864183  0.04181515  1
loop_
_geom_bond_atom_site_label_1
_geom_bond_atom_site_label_2
_geom_bond_distance
_geom_bond_site_symmetry_2
Ge0 O6 1.863919 1_554
Ge0 O7 1.863919 1_445
Ge0 O2 1.890014 1_454
Ge0 O3 1.890014 1_545
Ge0 O5 1.890014 1_544
Ge0 O4 1.890014 1_455
O0 V0 1.661575 1_555
O0 Sr0 2.618851 1_555
O1 V1 1.661575 1_555
O1 Sr0 2.618851 1_665
O2 V0 1.762079 1_555
O2 Sr0 2.569488 1_655
O3 V1 1.762079 1_555
O3 Sr0 2.569488 1_565
O4 V1 1.762079 1_555
O4 Sr0 2.569487 1_655
O5 V0 1.762079 1_555
O5 Sr0 2.569487 1_565
O6 V0 1.694354 1_555
O7 V1 1.694354 1_555
