# generated using pymatgen
data_BeAl2BW2
_symmetry_space_group_name_H-M   'P 1'
_cell_length_a   7.17937824
_cell_length_b   7.17937797
_cell_length_c   3.21354818
_cell_angle_alpha   90.00000000
_cell_angle_beta   90.00000000
_cell_angle_gamma   154.25488606
_symmetry_Int_Tables_number   1
_chemical_formula_structural   BeAl2BW2
_chemical_formula_sum   'Be1 Al2 B1 W2'
_cell_volume   71.94767050
_cell_formula_units_Z   1
loop_
 _symmetry_equiv_pos_site_id
 _symmetry_equiv_pos_as_xyz
  1  'x, y, z'
loop_
 _atom_site_type_symbol
 _atom_site_label
 _atom_site_symmetry_multiplicity
 _atom_site_fract_x
 _atom_site_fract_y
 _atom_site_fract_z
 _atom_site_occupancy
  Be  Be0  1  0.53672558  0.46327442  0.25000000  1
  Al  Al0  1  0.70051402  0.29948598  0.25000000  1
  Al  Al1  1  0.29995963  0.70004037  0.75000000  1
  B  B0  1  0.46364818  0.53635182  0.75000000  1
  W  W0  1  0.08931969  0.91068031  0.75000000  1
  W  W1  1  0.90983189  0.09016811  0.25000000  1
loop_
_geom_bond_atom_site_label_1
_geom_bond_atom_site_label_2
_geom_bond_distance
_geom_bond_site_symmetry_2
Be0 W0 2.383684 1_544
Be0 W0 2.383684 1_545
Be0 W0 2.383684 1_655
Be0 W0 2.383684 1_654
Be0 W1 2.390244 1_565
Be0 W1 2.390244 1_455
Al0 Be0 2.292693 1_555
Al0 Al1 2.660393 1_545
Al0 Al1 2.660393 1_544
Al0 Al1 2.660393 1_655
Al0 Al1 2.660393 1_654
Al0 W0 2.750017 1_654
Al0 W0 2.750017 1_655
Al0 W0 2.750018 1_544
Al0 W0 2.750018 1_545
Al0 W1 2.930009 1_555
Al1 B0 2.291295 1_555
Al1 W1 2.739586 1_455
Al1 W1 2.739586 1_456
Al1 W1 2.739586 1_566
Al1 W1 2.739586 1_565
Al1 W0 2.948515 1_555
B0 Be0 1.904759 1_556
B0 Be0 1.904759 1_555
B0 W0 2.377558 1_545
B0 W0 2.377559 1_655
B0 W1 2.389023 1_566
B0 W1 2.389023 1_565
B0 W1 2.389023 1_455
B0 W1 2.389023 1_456
