# generated using pymatgen
data_K3Hg(BPt3)2
_symmetry_space_group_name_H-M   'P 1'
_cell_length_a   8.48781957
_cell_length_b   8.48781942
_cell_length_c   8.48781883
_cell_angle_alpha   38.91110905
_cell_angle_beta   38.91110610
_cell_angle_gamma   38.91110809
_symmetry_Int_Tables_number   1
_chemical_formula_structural   K3Hg(BPt3)2
_chemical_formula_sum   'K3 Hg1 B2 Pt6'
_cell_volume   216.92262549
_cell_formula_units_Z   1
loop_
 _symmetry_equiv_pos_site_id
 _symmetry_equiv_pos_as_xyz
  1  'x, y, z'
loop_
 _atom_site_type_symbol
 _atom_site_label
 _atom_site_symmetry_multiplicity
 _atom_site_fract_x
 _atom_site_fract_y
 _atom_site_fract_z
 _atom_site_occupancy
  K  K0  1  0.86088391  0.86088391  0.86088391  1
  K  K1  1  0.13911609  0.13911609  0.13911609  1
  K  K2  1  0.00000000  0.00000000  0.00000000  1
  Hg  Hg0  1  0.50000000  0.50000000  0.50000000  1
  B  B0  1  0.66834682  0.66834682  0.66834682  1
  B  B1  1  0.33165318  0.33165318  0.33165318  1
  Pt  Pt0  1  0.43844262  0.93760544  0.43844262  1
  Pt  Pt1  1  0.43844262  0.43844262  0.93760544  1
  Pt  Pt2  1  0.93760544  0.43844262  0.43844262  1
  Pt  Pt3  1  0.56155738  0.06239456  0.56155738  1
  Pt  Pt4  1  0.56155738  0.56155738  0.06239456  1
  Pt  Pt5  1  0.06239456  0.56155738  0.56155738  1
loop_
_geom_bond_atom_site_label_1
_geom_bond_atom_site_label_2
_geom_bond_distance
_geom_bond_site_symmetry_2
K0 K2 3.269905 1_666
K0 Pt0 3.360342 1_556
K0 Pt2 3.360342 1_556
K0 Pt1 3.360342 1_565
K0 Pt0 3.360342 1_655
K0 Pt1 3.360342 1_655
K0 Pt2 3.360342 1_565
K0 Pt5 3.514979 1_655
K0 Pt3 3.514979 1_565
K0 Pt4 3.514979 1_556
K1 K2 3.269905 1_555
K1 Pt3 3.360342 1_554
K1 Pt5 3.360342 1_554
K1 Pt4 3.360342 1_545
K1 Pt3 3.360342 1_455
K1 Pt4 3.360342 1_455
K1 Pt5 3.360342 1_545
K1 Pt2 3.514979 1_455
K1 Pt0 3.514979 1_545
K1 Pt1 3.514979 1_554
K2 Pt0 3.178829 1_544
K2 Pt3 3.178829 1_455
K2 Pt5 3.178829 1_545
K2 Pt2 3.178829 1_454
K2 Pt4 3.178829 1_455
K2 Pt1 3.178829 1_544
K2 Pt0 3.178829 1_445
K2 Pt3 3.178829 1_554
K2 Pt4 3.178829 1_545
K2 Pt1 3.178829 1_454
K2 Pt5 3.178829 1_554
K2 Pt2 3.178829 1_445
Hg0 Pt1 2.954085 1_555
Hg0 Pt4 2.954085 1_555
Hg0 Pt3 2.954085 1_555
Hg0 Pt0 2.954085 1_555
Hg0 Pt2 2.954085 1_555
Hg0 Pt5 2.954085 1_555
Hg0 K0 3.328047 1_455
Hg0 K1 3.328047 1_655
Hg0 K0 3.328047 1_554
Hg0 K1 3.328047 1_556
Hg0 K0 3.328047 1_545
Hg0 K1 3.328047 1_565
B0 Pt4 2.161565 1_556
B0 Pt3 2.161565 1_565
B0 Pt5 2.161565 1_655
B0 Pt2 2.210004 1_555
B0 Pt0 2.210004 1_555
B0 Pt1 2.210005 1_555
B0 K2 3.264675 1_665
B0 K2 3.264675 1_566
B0 K2 3.264675 1_656
B1 Pt1 2.161565 1_554
B1 Pt0 2.161565 1_545
B1 Pt2 2.161565 1_455
B1 Pt5 2.210004 1_555
B1 Pt3 2.210004 1_555
B1 Pt4 2.210005 1_555
B1 K2 3.264675 1_556
B1 K2 3.264675 1_655
B1 K2 3.264675 1_565
