# generated using pymatgen
data_MgFeAg2F7
_symmetry_space_group_name_H-M   'P 1'
_cell_length_a   7.37752143
_cell_length_b   7.37752274
_cell_length_c   7.37752190
_cell_angle_alpha   120.67412133
_cell_angle_beta   117.42972048
_cell_angle_gamma   91.67243087
_symmetry_Int_Tables_number   1
_chemical_formula_structural   MgFeAg2F7
_chemical_formula_sum   'Mg2 Fe2 Ag4 F14'
_cell_volume   287.59113458
_cell_formula_units_Z   2
loop_
 _symmetry_equiv_pos_site_id
 _symmetry_equiv_pos_as_xyz
  1  'x, y, z'
loop_
 _atom_site_type_symbol
 _atom_site_label
 _atom_site_symmetry_multiplicity
 _atom_site_fract_x
 _atom_site_fract_y
 _atom_site_fract_z
 _atom_site_occupancy
  Mg  Mg0  1  0.00000000  0.00000000  0.50000000  1
  Mg  Mg1  1  0.00000000  0.50000000  0.00000000  1
  Fe  Fe0  1  0.50000000  0.00000000  0.50000000  1
  Fe  Fe1  1  0.00000000  0.50000000  0.50000000  1
  Ag  Ag0  1  0.00000000  0.00000000  0.00000000  1
  Ag  Ag1  1  0.50000000  0.50000000  0.00000000  1
  Ag  Ag2  1  0.50000000  0.00000000  0.00000000  1
  Ag  Ag3  1  0.50000000  0.50000000  0.50000000  1
  F  F0  1  0.37163105  0.09427776  0.27735329  1
  F  F1  1  0.68307452  0.40572224  0.27735329  1
  F  F2  1  0.68820818  0.30862053  0.76593562  1
  F  F3  1  0.95731409  0.19137947  0.37958765  1
  F  F4  1  0.95731409  0.57772644  0.76593562  1
  F  F5  1  0.68820818  0.92227356  0.37958765  1
  F  F6  1  0.31179182  0.07772644  0.62041235  1
  F  F7  1  0.04268591  0.42227356  0.23406438  1
  F  F8  1  0.04268591  0.80862053  0.62041235  1
  F  F9  1  0.31179182  0.69137947  0.23406438  1
  F  F10  1  0.91093100  0.75000000  0.16093100  1
  F  F11  1  0.62836895  0.90572224  0.72264671  1
  F  F12  1  0.31692548  0.59427776  0.72264671  1
  F  F13  1  0.08906900  0.25000000  0.83906900  1
loop_
_geom_bond_atom_site_label_1
_geom_bond_atom_site_label_2
_geom_bond_distance
_geom_bond_site_symmetry_2
Ag0 F0 2.335717 1_555
Ag0 F11 2.335717 1_444
Ag0 F3 2.596001 1_455
Ag0 F8 2.596001 1_544
Ag0 F7 2.596001 1_555
Ag0 F4 2.596001 1_444
Ag1 F1 2.335716 1_555
Ag1 F12 2.335716 1_554
Ag1 F2 2.595996 1_554
Ag1 F9 2.595996 1_555
Ag1 F5 2.596001 1_555
Ag1 F6 2.596001 1_554
Ag2 F1 2.437052 1_555
Ag2 F12 2.437052 1_544
Ag2 F11 2.437053 1_544
Ag2 F0 2.437053 1_555
Ag3 F1 2.437046 1_555
Ag3 F12 2.437046 1_555
Ag3 F11 2.437053 1_555
Ag3 F0 2.437053 1_555
F0 Fe0 1.962055 1_555
F1 Fe1 1.962060 1_655
F2 Fe0 1.925901 1_555
F2 Mg1 1.982360 1_656
F3 Fe1 1.925900 1_655
F3 Mg0 1.982360 1_655
F4 Fe1 1.925907 1_655
F4 Mg1 1.982353 1_656
F5 Fe0 1.925900 1_565
F5 Mg0 1.982360 1_665
F6 Fe0 1.925900 1_555
F6 Mg0 1.982360 1_555
F7 Fe1 1.925907 1_555
F7 Mg1 1.982353 1_555
F8 Fe1 1.925900 1_555
F8 Mg0 1.982360 1_565
F9 Fe0 1.925901 1_565
F9 Mg1 1.982360 1_555
F10 Mg0 1.948953 1_665
F10 Mg1 1.948953 1_655
F11 Fe0 1.962055 1_565
F12 Fe1 1.962060 1_555
F13 Mg0 1.948953 1_555
F13 Mg1 1.948953 1_556
