# generated using pymatgen
data_Cs8TiSb4
_symmetry_space_group_name_H-M   'P 1'
_cell_length_a   12.41470369
_cell_length_b   12.41469133
_cell_length_c   12.41470746
_cell_angle_alpha   59.99995174
_cell_angle_beta   59.99998469
_cell_angle_gamma   59.99994012
_symmetry_Int_Tables_number   1
_chemical_formula_structural   Cs8TiSb4
_chemical_formula_sum   'Cs16 Ti2 Sb8'
_cell_volume   1352.98621565
_cell_formula_units_Z   2
loop_
 _symmetry_equiv_pos_site_id
 _symmetry_equiv_pos_as_xyz
  1  'x, y, z'
loop_
 _atom_site_type_symbol
 _atom_site_label
 _atom_site_symmetry_multiplicity
 _atom_site_fract_x
 _atom_site_fract_y
 _atom_site_fract_z
 _atom_site_occupancy
  Cs  Cs0  1  0.62500000  0.12500000  0.62500000  1
  Cs  Cs1  1  0.62500000  0.62500000  0.12500000  1
  Cs  Cs2  1  0.12500000  0.62500000  0.62500000  1
  Cs  Cs3  1  0.62500000  0.62500000  0.62500000  1
  Cs  Cs4  1  0.02500217  0.02500217  0.47499783  1
  Cs  Cs5  1  0.77500317  0.22499783  0.22499683  1
  Cs  Cs6  1  0.22499783  0.77500217  0.77500217  1
  Cs  Cs7  1  0.77500317  0.77500217  0.22499783  1
  Cs  Cs8  1  0.77500317  0.22499783  0.77500217  1
  Cs  Cs9  1  0.22499783  0.77500217  0.22499783  1
  Cs  Cs10  1  0.47499683  0.02500217  0.47499783  1
  Cs  Cs11  1  0.47499683  0.02500217  0.02500317  1
  Cs  Cs12  1  0.02500217  0.47499783  0.47499783  1
  Cs  Cs13  1  0.02500217  0.47499783  0.02500217  1
  Cs  Cs14  1  0.22499783  0.22499783  0.77500217  1
  Cs  Cs15  1  0.47499683  0.47499783  0.02500217  1
  Ti  Ti0  1  0.75000000  0.75000000  0.75000000  1
  Ti  Ti1  1  0.50000000  0.50000000  0.50000000  1
  Sb  Sb0  1  0.40769039  0.77692982  0.40769039  1
  Sb  Sb1  1  0.84230961  0.84230961  0.47307118  1
  Sb  Sb2  1  0.47307118  0.84230961  0.84230961  1
  Sb  Sb3  1  0.84230961  0.84230961  0.84230961  1
  Sb  Sb4  1  0.77692882  0.40769039  0.40769039  1
  Sb  Sb5  1  0.40769039  0.40769039  0.40769039  1
  Sb  Sb6  1  0.40769039  0.40769039  0.77692882  1
  Sb  Sb7  1  0.84230961  0.47307018  0.84230961  1
loop_
_geom_bond_atom_site_label_1
_geom_bond_atom_site_label_2
_geom_bond_distance
_geom_bond_site_symmetry_2
Cs0 Ti0 3.801204 1_545
Cs0 Ti1 3.801204 1_555
Cs0 Sb3 3.900695 1_545
Cs0 Sb5 3.900695 1_555
Cs0 Sb6 3.900695 1_555
Cs0 Sb1 3.900695 1_545
Cs0 Sb2 3.900695 1_545
Cs0 Sb4 3.900695 1_555
Cs1 Ti0 3.801211 1_554
Cs1 Ti1 3.801211 1_555
Cs1 Sb3 3.900697 1_554
Cs1 Sb5 3.900697 1_555
Cs1 Sb4 3.900697 1_555
Cs1 Sb2 3.900697 1_554
Cs1 Sb0 3.900705 1_555
Cs1 Sb7 3.900705 1_554
Cs2 Ti0 3.801209 1_455
Cs2 Ti1 3.801209 1_555
Cs2 Sb3 3.900696 1_455
Cs2 Sb5 3.900696 1_555
Cs2 Sb6 3.900696 1_555
Cs2 Sb1 3.900696 1_455
Cs2 Sb7 3.900705 1_455
Cs2 Sb0 3.900705 1_555
Cs3 Ti0 3.801211 1_555
Cs3 Ti1 3.801211 1_555
Cs3 Sb0 3.900695 1_555
Cs3 Sb7 3.900695 1_555
Cs3 Sb1 3.900697 1_555
Cs3 Sb6 3.900697 1_555
Cs3 Sb4 3.900697 1_555
Cs3 Sb2 3.900697 1_555
Cs4 Sb3 3.942276 1_445
Cs4 Sb1 3.942277 1_445
Cs4 Sb0 4.089797 1_545
Cs4 Sb4 4.089797 1_455
Cs5 Sb4 3.942280 1_555
Cs5 Sb5 3.942286 1_555
Cs5 Sb7 4.089790 1_554
Cs5 Sb1 4.089801 1_545
Cs6 Sb6 3.942271 1_555
Cs6 Sb0 3.942274 1_555
Cs6 Sb3 4.089803 1_455
Cs6 Sb2 4.089805 1_555
Cs7 Sb4 3.942275 1_555
Cs7 Sb0 3.942284 1_555
Cs7 Sb1 4.089797 1_555
Cs7 Sb3 4.089808 1_554
Cs8 Sb4 3.942280 1_555
Cs8 Sb6 3.942286 1_555
Cs8 Sb7 4.089782 1_555
Cs8 Sb3 4.089801 1_545
Cs9 Sb5 3.942271 1_555
Cs9 Sb0 3.942285 1_555
Cs9 Sb1 4.089803 1_455
Cs9 Sb2 4.089804 1_554
Cs10 Sb2 3.942280 1_545
Cs10 Sb1 3.942286 1_545
Cs10 Sb0 4.089782 1_545
Cs10 Sb5 4.089801 1_555
Cs11 Sb2 3.942280 1_544
Cs11 Sb3 3.942286 1_544
Cs11 Sb0 4.089790 1_545
Cs11 Sb6 4.089801 1_554
Cs12 Sb1 3.942271 1_455
Cs12 Sb7 3.942274 1_455
Cs12 Sb5 4.089803 1_555
Cs12 Sb4 4.089805 1_455
Cs13 Sb3 3.942271 1_454
Cs13 Sb7 3.942285 1_454
Cs13 Sb6 4.089803 1_554
Cs13 Sb4 4.089804 1_455
Cs14 Sb5 3.942276 1_555
Cs14 Sb6 3.942277 1_555
Cs14 Sb7 4.089797 1_455
Cs14 Sb2 4.089797 1_545
Cs15 Sb2 3.942275 1_554
Cs15 Sb7 3.942284 1_554
Cs15 Sb6 4.089797 1_554
Cs15 Sb5 4.089808 1_555
Sb0 Ti1 2.807112 1_555
Sb1 Ti0 2.807106 1_555
Sb2 Ti0 2.807105 1_555
Sb3 Ti0 2.807107 1_555
Sb4 Ti1 2.807105 1_555
Sb5 Ti1 2.807107 1_555
Sb6 Ti1 2.807106 1_555
Sb7 Ti0 2.807112 1_555
