# generated using pymatgen
data_Hf3Ti3(Zn3N)2
_symmetry_space_group_name_H-M   'P 1'
_cell_length_a   8.26251619
_cell_length_b   8.26251581
_cell_length_c   8.26251590
_cell_angle_alpha   59.99999574
_cell_angle_beta   59.99999728
_cell_angle_gamma   59.99999214
_symmetry_Int_Tables_number   1
_chemical_formula_structural   Hf3Ti3(Zn3N)2
_chemical_formula_sum   'Hf6 Ti6 Zn12 N4'
_cell_volume   398.86128934
_cell_formula_units_Z   2
loop_
 _symmetry_equiv_pos_site_id
 _symmetry_equiv_pos_as_xyz
  1  'x, y, z'
loop_
 _atom_site_type_symbol
 _atom_site_label
 _atom_site_symmetry_multiplicity
 _atom_site_fract_x
 _atom_site_fract_y
 _atom_site_fract_z
 _atom_site_occupancy
  Hf  Hf0  1  0.43969271  0.06030729  0.06030729  1
  Hf  Hf1  1  0.06030729  0.43969271  0.06030729  1
  Hf  Hf2  1  0.43969271  0.43969271  0.06030729  1
  Hf  Hf3  1  0.06030729  0.43969271  0.43969271  1
  Hf  Hf4  1  0.43969271  0.06030729  0.43969271  1
  Hf  Hf5  1  0.06030729  0.06030729  0.43969271  1
  Ti  Ti0  1  0.82296563  0.17703437  0.17703437  1
  Ti  Ti1  1  0.17703437  0.82296563  0.17703437  1
  Ti  Ti2  1  0.82296563  0.82296563  0.17703437  1
  Ti  Ti3  1  0.17703437  0.82296563  0.82296563  1
  Ti  Ti4  1  0.82296563  0.17703437  0.82296563  1
  Ti  Ti5  1  0.17703437  0.17703437  0.82296563  1
  Zn  Zn0  1  0.41869268  0.41869268  0.74391997  1
  Zn  Zn1  1  0.41869268  0.41869268  0.41869268  1
  Zn  Zn2  1  0.74391997  0.41869268  0.41869268  1
  Zn  Zn3  1  0.41869268  0.74391997  0.41869268  1
  Zn  Zn4  1  0.83454397  0.83454397  0.49637009  1
  Zn  Zn5  1  0.83454397  0.83454397  0.83454397  1
  Zn  Zn6  1  0.49637009  0.83454397  0.83454397  1
  Zn  Zn7  1  0.83454397  0.49637009  0.83454397  1
  Zn  Zn8  1  0.62606176  0.62606176  0.12181371  1
  Zn  Zn9  1  0.62606176  0.62606176  0.62606176  1
  Zn  Zn10  1  0.12181371  0.62606176  0.62606176  1
  Zn  Zn11  1  0.62606176  0.12181371  0.62606176  1
  N  N0  1  0.12263317  0.12263317  0.63210050  1
  N  N1  1  0.12263317  0.12263317  0.12263317  1
  N  N2  1  0.63210050  0.12263317  0.12263317  1
  N  N3  1  0.12263317  0.63210050  0.12263317  1
loop_
_geom_bond_atom_site_label_1
_geom_bond_atom_site_label_2
_geom_bond_distance
_geom_bond_site_symmetry_2
Hf0 N1 2.227178 1_555
Hf0 N2 2.227178 1_555
Hf0 Zn0 2.798438 1_554
Hf0 Zn3 2.798438 1_545
Hf0 Zn6 2.985139 1_544
Hf0 Zn5 2.985146 1_544
Hf0 Zn8 2.989498 1_545
Hf0 Zn11 2.989498 1_554
Hf1 N1 2.227177 1_555
Hf1 N3 2.227178 1_555
Hf1 Zn0 2.798438 1_554
Hf1 Zn2 2.798438 1_455
Hf1 Zn7 2.985139 1_454
Hf1 Zn5 2.985146 1_454
Hf1 Zn8 2.989498 1_455
Hf1 Zn10 2.989498 1_554
Hf2 N2 2.227177 1_555
Hf2 N3 2.227177 1_555
Hf2 Zn1 2.798431 1_555
Hf2 Zn0 2.798448 1_554
Hf2 Zn6 2.985153 1_554
Hf2 Zn7 2.985153 1_554
Hf2 Zn8 2.989491 1_555
Hf2 Zn9 2.989496 1_554
Hf3 N0 2.227177 1_555
Hf3 N3 2.227177 1_555
Hf3 Zn1 2.798431 1_555
Hf3 Zn2 2.798448 1_455
Hf3 Zn4 2.985153 1_455
Hf3 Zn7 2.985153 1_455
Hf3 Zn10 2.989491 1_555
Hf3 Zn9 2.989496 1_455
Hf4 N0 2.227177 1_555
Hf4 N2 2.227177 1_555
Hf4 Zn1 2.798431 1_555
Hf4 Zn3 2.798448 1_545
Hf4 Zn4 2.985153 1_545
Hf4 Zn6 2.985153 1_545
Hf4 Zn11 2.989491 1_555
Hf4 Zn9 2.989496 1_545
Hf5 N1 2.227177 1_555
Hf5 N0 2.227178 1_555
Hf5 Zn2 2.798438 1_455
Hf5 Zn3 2.798438 1_545
Hf5 Zn4 2.985139 1_445
Hf5 Zn5 2.985146 1_445
Hf5 Zn10 2.989498 1_545
Hf5 Zn11 2.989498 1_455
Ti0 Zn4 2.737519 1_545
Ti0 Zn7 2.737519 1_554
Ti0 Zn8 3.103764 1_555
Ti0 Zn11 3.103764 1_555
Ti0 Zn2 3.127123 1_555
Ti0 Zn1 3.127130 1_555
Ti1 Zn4 2.737519 1_455
Ti1 Zn6 2.737519 1_554
Ti1 Zn8 3.103764 1_555
Ti1 Zn10 3.103764 1_555
Ti1 Zn3 3.127123 1_555
Ti1 Zn1 3.127130 1_555
Ti2 Zn5 2.737511 1_554
Ti2 Zn4 2.737528 1_555
Ti2 Zn9 3.103766 1_555
Ti2 Zn8 3.103772 1_555
Ti2 Zn2 3.127137 1_555
Ti2 Zn3 3.127137 1_555
Ti3 Zn5 2.737511 1_455
Ti3 Zn6 2.737528 1_555
Ti3 Zn9 3.103766 1_555
Ti3 Zn10 3.103771 1_555
Ti3 Zn0 3.127137 1_555
Ti3 Zn3 3.127137 1_555
Ti4 Zn5 2.737511 1_545
Ti4 Zn7 2.737528 1_555
Ti4 Zn9 3.103766 1_555
Ti4 Zn11 3.103772 1_555
Ti4 Zn0 3.127137 1_555
Ti4 Zn2 3.127137 1_555
Ti5 Zn6 2.737519 1_545
Ti5 Zn7 2.737519 1_455
Ti5 Zn10 3.103764 1_555
Ti5 Zn11 3.103764 1_555
Ti5 Zn0 3.127123 1_555
Ti5 Zn1 3.127130 1_555
Zn0 Zn11 2.533449 1_555
Zn0 Zn10 2.533449 1_555
Zn0 Zn9 2.533456 1_555
Zn0 Zn3 2.687196 1_555
Zn0 Zn2 2.687196 1_555
Zn0 Zn1 2.687196 1_555
Zn1 Zn11 2.533453 1_555
Zn1 Zn10 2.533453 1_555
Zn1 Zn8 2.533454 1_555
Zn1 Zn3 2.687196 1_555
Zn1 Zn2 2.687196 1_555
Zn2 Zn8 2.533449 1_555
Zn2 Zn9 2.533456 1_555
Zn2 Zn3 2.687195 1_555
Zn3 Zn8 2.533449 1_555
Zn3 Zn9 2.533456 1_555
Zn4 Zn9 2.521592 1_555
Zn4 Zn7 2.794167 1_555
Zn4 Zn6 2.794167 1_555
Zn4 Zn5 2.794167 1_555
Zn5 Zn8 2.521586 1_556
Zn5 Zn7 2.794167 1_555
Zn5 Zn6 2.794167 1_555
Zn6 Zn8 2.521572 1_556
Zn6 Zn9 2.521592 1_555
Zn6 Zn7 2.794167 1_555
Zn7 Zn8 2.521572 1_556
Zn7 Zn9 2.521592 1_555
Zn10 Zn4 2.521572 1_455
Zn10 Zn7 2.521572 1_455
Zn10 Zn5 2.521586 1_455
Zn10 Zn3 2.533449 1_555
Zn11 Zn4 2.521572 1_545
Zn11 Zn6 2.521572 1_545
Zn11 Zn5 2.521586 1_545
Zn11 Zn2 2.533449 1_555
N0 Ti3 2.123877 1_545
N0 Ti4 2.123877 1_455
N0 Ti5 2.123877 1_555
N1 Ti1 2.123877 1_545
N1 Ti5 2.123877 1_554
N1 Ti0 2.123877 1_455
N2 Ti2 2.123877 1_545
N2 Ti4 2.123877 1_554
N2 Ti0 2.123877 1_555
N3 Ti2 2.123877 1_455
N3 Ti3 2.123877 1_554
N3 Ti1 2.123877 1_555
