# generated using pymatgen
data_Li4SiO4
_symmetry_space_group_name_H-M   'P 1'
_cell_length_a   5.23239500
_cell_length_b   5.38900197
_cell_length_c   6.14309879
_cell_angle_alpha   88.55392019
_cell_angle_beta   89.85539632
_cell_angle_gamma   89.65984896
_symmetry_Int_Tables_number   1
_chemical_formula_structural   Li4SiO4
_chemical_formula_sum   'Li8 Si2 O8'
_cell_volume   173.16062636
_cell_formula_units_Z   2
loop_
 _symmetry_equiv_pos_site_id
 _symmetry_equiv_pos_as_xyz
  1  'x, y, z'
loop_
 _atom_site_type_symbol
 _atom_site_label
 _atom_site_symmetry_multiplicity
 _atom_site_fract_x
 _atom_site_fract_y
 _atom_site_fract_z
 _atom_site_occupancy
  Li  Li0  1  0.83084700  0.19878700  0.99040300  1
  Li  Li1  1  0.80037100  0.17588300  0.53572800  1
  Li  Li2  1  0.81693500  0.65580000  0.76117700  1
  Li  Li3  1  0.38719300  0.84651900  0.55426100  1
  Li  Li4  1  0.40660500  0.29497200  0.22909300  1
  Li  Li5  1  0.19264000  0.80245900  0.97243800  1
  Li  Li6  1  0.08369800  0.52667500  0.42488900  1
  Li  Li7  1  0.06228700  0.99847800  0.27677300  1
  Si  Si0  1  0.67068100  0.68693600  0.24633500  1
  Si  Si1  1  0.32246800  0.31977900  0.75318600  1
  O  O0  1  0.80998000  0.83282700  0.04204600  1
  O  O1  1  0.76682800  0.82845300  0.46887300  1
  O  O2  1  0.76637000  0.39179700  0.26475300  1
  O  O3  1  0.63447600  0.33621300  0.76128100  1
  O  O4  1  0.35257100  0.69243200  0.24853300  1
  O  O5  1  0.19711800  0.60126400  0.72563600  1
  O  O6  1  0.22840000  0.18103300  0.52228600  1
  O  O7  1  0.21633100  0.17259400  0.97481000  1
loop_
_geom_bond_atom_site_label_1
_geom_bond_atom_site_label_2
_geom_bond_distance
_geom_bond_site_symmetry_2
Li0 O3 1.879088 1_555
Li0 O0 1.993184 1_546
Li0 O7 2.023298 1_655
Li0 O2 2.029179 1_556
Li1 O3 1.861537 1_555
Li1 O1 1.935991 1_545
Li1 O2 2.014394 1_555
Li1 O6 2.241241 1_655
Li2 O3 1.974101 1_555
Li2 O0 1.992690 1_556
Li2 O1 2.018404 1_555
Li2 O5 2.021221 1_655
Li3 O5 1.945350 1_555
Li3 O6 1.985902 1_565
Li3 O1 2.055587 1_555
Li3 O4 2.081317 1_555
Li4 O2 1.970614 1_555
Li4 O7 1.983402 1_554
Li4 O6 2.105463 1_555
Li4 O4 2.165072 1_555
Li5 O5 1.886070 1_555
Li5 O4 1.969528 1_556
Li5 O7 1.999663 1_565
Li5 O0 2.052771 1_456
Li6 O4 1.977177 1_555
Li6 O5 1.993223 1_555
Li6 O2 2.076438 1_455
Li6 O6 2.080879 1_555
Li6 O1 2.335515 1_455
Li7 O6 2.022289 1_565
Li7 O1 2.138966 1_455
Li7 O0 2.169688 1_455
Li7 O7 2.210127 1_564
Li7 O4 2.245127 1_555
O0 Si0 1.636062 1_555
O1 Si0 1.662600 1_555
O2 Si0 1.665814 1_555
O3 Si1 1.636423 1_555
O4 Si0 1.664592 1_555
O5 Si1 1.653986 1_555
O6 Si1 1.695500 1_555
O7 Si1 1.654698 1_555
