# generated using pymatgen
data_Cs5Rb(Ru2Br9)2
_symmetry_space_group_name_H-M   'P 1'
_cell_length_a   7.61368206
_cell_length_b   7.61418794
_cell_length_c   18.56828404
_cell_angle_alpha   90.00000000
_cell_angle_beta   90.00000000
_cell_angle_gamma   120.00215520
_symmetry_Int_Tables_number   1
_chemical_formula_structural   Cs5Rb(Ru2Br9)2
_chemical_formula_sum   'Cs5 Rb1 Ru4 Br18'
_cell_volume   932.20472541
_cell_formula_units_Z   1
loop_
 _symmetry_equiv_pos_site_id
 _symmetry_equiv_pos_as_xyz
  1  'x, y, z'
loop_
 _atom_site_type_symbol
 _atom_site_label
 _atom_site_symmetry_multiplicity
 _atom_site_fract_x
 _atom_site_fract_y
 _atom_site_fract_z
 _atom_site_occupancy
  Cs  Cs0  1  0.99991752  0.99995876  0.75000000  1
  Cs  Cs1  1  0.33327500  0.66663700  0.07067705  1
  Cs  Cs2  1  0.66654547  0.33327323  0.56880788  1
  Cs  Cs3  1  0.66654547  0.33327323  0.93119212  1
  Cs  Cs4  1  0.33327500  0.66663700  0.42932295  1
  Rb  Rb0  1  0.00004636  0.00002218  0.25000000  1
  Ru  Ru0  1  0.33322047  0.66661074  0.82361535  1
  Ru  Ru1  1  0.66684436  0.33342118  0.32322319  1
  Ru  Ru2  1  0.66684436  0.33342118  0.17677681  1
  Ru  Ru3  1  0.33322047  0.66661074  0.67638465  1
  Br  Br0  1  0.50571626  0.01094475  0.25000000  1
  Br  Br1  1  0.49426865  0.50553738  0.75000000  1
  Br  Br2  1  0.01116729  0.50558515  0.75000000  1
  Br  Br3  1  0.98923404  0.49461702  0.25000000  1
  Br  Br4  1  0.50571526  0.49477051  0.25000000  1
  Br  Br5  1  0.49426865  0.98873127  0.75000000  1
  Br  Br6  1  0.82221890  0.64443703  0.09854572  1
  Br  Br7  1  0.17900929  0.82091909  0.59680755  1
  Br  Br8  1  0.64188540  0.82094320  0.59684535  1
  Br  Br9  1  0.35560590  0.17780295  0.09858424  1
  Br  Br10  1  0.82221890  0.17778086  0.09854572  1
  Br  Br11  1  0.17900929  0.35809121  0.90319245  1
  Br  Br12  1  0.17900929  0.82091909  0.90319245  1
  Br  Br13  1  0.17900929  0.35809121  0.59680755  1
  Br  Br14  1  0.64188540  0.82094320  0.90315465  1
  Br  Br15  1  0.35560590  0.17780295  0.40141576  1
  Br  Br16  1  0.82221890  0.64443703  0.40145428  1
  Br  Br17  1  0.82221890  0.17778086  0.40145428  1
loop_
_geom_bond_atom_site_label_1
_geom_bond_atom_site_label_2
_geom_bond_distance
_geom_bond_site_symmetry_2
Br0 Ru1 2.523910 1_555
Br0 Ru2 2.523910 1_555
Br0 Rb0 3.805940 1_655
Br0 Rb0 3.809105 1_555
Br0 Cs4 4.030074 1_545
Br0 Cs1 4.030074 1_545
Br1 Ru0 2.525871 1_555
Br1 Ru3 2.525871 1_555
Br1 Cs0 3.807302 1_445
Br1 Cs0 3.807825 1_555
Br1 Cs3 4.059656 1_555
Br1 Cs2 4.059656 1_555
Br2 Ru0 2.525374 1_555
Br2 Ru3 2.525374 1_555
Br2 Cs0 3.807805 1_455
Br2 Cs0 3.807828 1_445
Br2 Cs3 4.059871 1_455
Br2 Cs2 4.059871 1_455
Br3 Ru1 2.523309 1_555
Br3 Ru2 2.523309 1_555
Br3 Rb0 3.807754 1_665
Br3 Rb0 3.807769 1_655
Br3 Cs4 4.028998 1_655
Br3 Cs1 4.028998 1_655
Br4 Ru1 2.523920 1_555
Br4 Ru2 2.523920 1_555
Br4 Rb0 3.805942 1_665
Br4 Rb0 3.809107 1_555
Br4 Cs4 4.030069 1_555
Br4 Cs1 4.030069 1_555
Br5 Ru0 2.525866 1_555
Br5 Ru3 2.525866 1_555
Br5 Cs0 3.807299 1_455
Br5 Cs0 3.807823 1_555
Br5 Cs3 4.059660 1_565
Br5 Cs2 4.059660 1_565
Br6 Ru2 2.513157 1_555
Br6 Rb0 3.661472 1_665
Br6 Cs3 3.723738 1_554
Br6 Cs1 3.844297 1_655
Br6 Cs1 3.844980 1_555
Br7 Ru3 2.514347 1_555
Br7 Cs0 3.697020 1_455
Br7 Cs4 3.716296 1_555
Br7 Cs2 3.845264 1_565
Br7 Cs2 3.846066 1_455
Br8 Ru3 2.514602 1_555
Br8 Cs0 3.695962 1_555
Br8 Cs4 3.717036 1_555
Br8 Cs2 3.845963 1_555
Br8 Cs2 3.845964 1_565
Br9 Ru2 2.513830 1_555
Br9 Rb0 3.660714 1_555
Br9 Cs3 3.723446 1_554
Br9 Cs1 3.845014 1_555
Br9 Cs1 3.845022 1_545
Br10 Ru2 2.513150 1_555
Br10 Rb0 3.661475 1_655
Br10 Cs3 3.723745 1_554
Br10 Cs1 3.844299 1_655
Br10 Cs1 3.844983 1_545
Br11 Ru0 2.514348 1_555
Br11 Cs0 3.697025 1_445
Br11 Cs1 3.716289 1_556
Br11 Cs3 3.845262 1_555
Br11 Cs3 3.846064 1_455
Br12 Ru0 2.514347 1_555
Br12 Cs0 3.697020 1_455
Br12 Cs1 3.716296 1_556
Br12 Cs3 3.845264 1_565
Br12 Cs3 3.846066 1_455
Br13 Ru3 2.514348 1_555
Br13 Cs0 3.697025 1_445
Br13 Cs4 3.716289 1_555
Br13 Cs2 3.845262 1_555
Br13 Cs2 3.846064 1_455
Br14 Ru0 2.514602 1_555
Br14 Cs0 3.695962 1_555
Br14 Cs1 3.717036 1_556
Br14 Cs3 3.845963 1_555
Br14 Cs3 3.845964 1_565
Br15 Ru1 2.513830 1_555
Br15 Rb0 3.660714 1_555
Br15 Cs2 3.723446 1_555
Br15 Cs4 3.845014 1_555
Br15 Cs4 3.845022 1_545
Br16 Ru1 2.513157 1_555
Br16 Rb0 3.661472 1_665
Br16 Cs2 3.723738 1_555
Br16 Cs4 3.844297 1_655
Br16 Cs4 3.844980 1_555
Br17 Ru1 2.513150 1_555
Br17 Rb0 3.661475 1_655
Br17 Cs2 3.723745 1_555
Br17 Cs4 3.844299 1_655
Br17 Cs4 3.844983 1_545
