# generated using pymatgen
data_S(IO3)2
_symmetry_space_group_name_H-M   'P 1'
_cell_length_a   4.70070153
_cell_length_b   7.94971381
_cell_length_c   8.82586543
_cell_angle_alpha   73.00651317
_cell_angle_beta   74.55562733
_cell_angle_gamma   72.80334603
_symmetry_Int_Tables_number   1
_chemical_formula_structural   S(IO3)2
_chemical_formula_sum   'S2 I4 O12'
_cell_volume   295.41564538
_cell_formula_units_Z   2
loop_
 _symmetry_equiv_pos_site_id
 _symmetry_equiv_pos_as_xyz
  1  'x, y, z'
loop_
 _atom_site_type_symbol
 _atom_site_label
 _atom_site_symmetry_multiplicity
 _atom_site_fract_x
 _atom_site_fract_y
 _atom_site_fract_z
 _atom_site_occupancy
  S  S0  1  0.18284422  0.25000000  0.75000000  1
  S  S1  1  0.81715578  0.75000000  0.25000000  1
  I  I0  1  0.53948554  0.57439286  0.75144989  1
  I  I1  1  0.86532729  0.92560714  0.74855011  1
  I  I2  1  0.46051446  0.42560714  0.24855011  1
  I  I3  1  0.13467271  0.07439286  0.25144989  1
  O  O0  1  0.33775970  0.39331154  0.64832868  1
  O  O1  1  0.37939992  0.10668846  0.85167132  1
  O  O2  1  0.66224030  0.60668846  0.35167132  1
  O  O3  1  0.62060008  0.89331154  0.14832868  1
  O  O4  1  0.90785180  0.32487781  0.86227882  1
  O  O5  1  0.09500843  0.17512219  0.63772118  1
  O  O6  1  0.74104051  0.21257160  0.35389104  1
  O  O7  1  0.30750315  0.28742840  0.14610896  1
  O  O8  1  0.25895949  0.78742840  0.64610896  1
  O  O9  1  0.69249685  0.71257160  0.85389104  1
  O  O10  1  0.90499157  0.82487781  0.36227882  1
  O  O11  1  0.09214820  0.67512219  0.13772118  1
loop_
_geom_bond_atom_site_label_1
_geom_bond_atom_site_label_2
_geom_bond_distance
_geom_bond_site_symmetry_2
I0 O8 1.970667 1_555
I0 O9 1.983817 1_555
I0 O4 2.372077 1_555
I0 O0 2.415051 1_555
I1 O9 1.970665 1_555
I1 O8 1.983820 1_655
I1 O5 2.372079 1_665
I1 O1 2.415047 1_565
I2 O6 1.970667 1_555
I2 O7 1.983817 1_555
I2 O11 2.372077 1_555
I2 O2 2.415051 1_555
I3 O7 1.970665 1_555
I3 O6 1.983820 1_455
I3 O10 2.372079 1_445
I3 O3 2.415047 1_545
O0 S0 1.475955 1_555
O1 S0 1.475955 1_555
O2 S1 1.475955 1_555
O3 S1 1.475955 1_555
O4 S0 1.488237 1_655
O5 S0 1.488237 1_555
O10 S1 1.488237 1_555
O11 S1 1.488237 1_455
