# generated using pymatgen
data_Ru3RhPb4O13
_symmetry_space_group_name_H-M   'P 1'
_cell_length_a   7.27394800
_cell_length_b   7.21674910
_cell_length_c   7.27394777
_cell_angle_alpha   59.73746771
_cell_angle_beta   60.00000103
_cell_angle_gamma   59.73746480
_symmetry_Int_Tables_number   1
_chemical_formula_structural   Ru3RhPb4O13
_chemical_formula_sum   'Ru3 Rh1 Pb4 O13'
_cell_volume   268.92561512
_cell_formula_units_Z   1
loop_
 _symmetry_equiv_pos_site_id
 _symmetry_equiv_pos_as_xyz
  1  'x, y, z'
loop_
 _atom_site_type_symbol
 _atom_site_label
 _atom_site_symmetry_multiplicity
 _atom_site_fract_x
 _atom_site_fract_y
 _atom_site_fract_z
 _atom_site_occupancy
  Ru  Ru0  1  0.87510504  0.87499322  0.37479570  1
  Ru  Ru1  1  0.87510504  0.87499322  0.87510504  1
  Ru  Ru2  1  0.37479570  0.87499322  0.87510504  1
  Rh  Rh0  1  0.87489652  0.37530843  0.87489652  1
  Pb  Pb0  1  0.88084539  0.37188659  0.37363451  1
  Pb  Pb1  1  0.37363451  0.37188659  0.37363451  1
  Pb  Pb2  1  0.37363451  0.37188659  0.88084539  1
  Pb  Pb3  1  0.37276213  0.88171362  0.37276213  1
  O  O0  1  0.19836165  0.80539052  0.79788517  1
  O  O1  1  0.19836165  0.80539052  0.19836165  1
  O  O2  1  0.55508144  0.94131612  0.94852001  1
  O  O3  1  0.55508144  0.94131612  0.55508144  1
  O  O4  1  0.94852001  0.94131612  0.55508144  1
  O  O5  1  0.79788517  0.80539052  0.19836165  1
  O  O6  1  0.54721203  0.55449844  0.94914476  1
  O  O7  1  0.79710561  0.19959920  0.79710561  1
  O  O8  1  0.79710561  0.19959920  0.20618958  1
  O  O9  1  0.94914476  0.55449844  0.94914476  1
  O  O10  1  0.94914476  0.55449844  0.54721203  1
  O  O11  1  0.20618958  0.19959920  0.79710561  1
  O  O12  1  0.50002545  0.49992265  0.50002545  1
loop_
_geom_bond_atom_site_label_1
_geom_bond_atom_site_label_2
_geom_bond_distance
_geom_bond_site_symmetry_2
O0 Ru2 1.967193 1_555
O0 Ru1 1.967193 1_455
O0 Pb3 2.557302 1_555
O0 Pb2 2.573584 1_555
O1 Ru2 1.967193 1_554
O1 Ru0 1.967193 1_455
O1 Pb3 2.557308 1_555
O1 Pb1 2.573585 1_555
O2 Ru2 1.955656 1_555
O2 Ru1 1.955656 1_555
O2 Pb3 2.571233 1_556
O2 Pb2 2.571776 1_565
O3 Ru2 1.955656 1_555
O3 Ru0 1.955656 1_555
O3 Pb3 2.571227 1_555
O3 Pb1 2.571773 1_565
O4 Ru1 1.955656 1_555
O4 Ru0 1.955656 1_555
O4 Pb3 2.571233 1_655
O4 Pb0 2.571776 1_565
O5 Ru1 1.967193 1_554
O5 Ru0 1.967193 1_555
O5 Pb3 2.557302 1_555
O5 Pb0 2.573584 1_555
O6 Ru2 1.925809 1_555
O6 Rh0 1.988766 1_555
O6 Pb2 2.557737 1_555
O6 Pb1 2.557742 1_556
O7 Ru1 1.942729 1_545
O7 Rh0 2.003726 1_555
O7 Pb0 2.536150 1_555
O7 Pb2 2.536150 1_555
O8 Ru0 1.942728 1_545
O8 Rh0 2.003736 1_554
O8 Pb1 2.536151 1_555
O8 Pb0 2.536156 1_555
O9 Ru1 1.925808 1_555
O9 Rh0 1.988777 1_555
O9 Pb0 2.557743 1_556
O9 Pb2 2.557743 1_655
O10 Ru0 1.925809 1_555
O10 Rh0 1.988766 1_555
O10 Pb0 2.557736 1_555
O10 Pb1 2.557742 1_655
O11 Ru2 1.942728 1_545
O11 Rh0 2.003736 1_455
O11 Pb1 2.536151 1_555
O11 Pb2 2.536156 1_555
O12 Pb3 2.240716 1_555
O12 Pb1 2.258741 1_555
O12 Pb2 2.258753 1_555
O12 Pb0 2.258753 1_555
