# generated using pymatgen
data_CsTc6Se3S4
_symmetry_space_group_name_H-M   'P 1'
_cell_length_a   9.51981552
_cell_length_b   9.51981554
_cell_length_c   9.51981405
_cell_angle_alpha   60.65714379
_cell_angle_beta   60.65714731
_cell_angle_gamma   60.65713514
_symmetry_Int_Tables_number   1
_chemical_formula_structural   CsTc6Se3S4
_chemical_formula_sum   'Cs2 Tc12 Se6 S8'
_cell_volume   619.10798506
_cell_formula_units_Z   2
loop_
 _symmetry_equiv_pos_site_id
 _symmetry_equiv_pos_as_xyz
  1  'x, y, z'
loop_
 _atom_site_type_symbol
 _atom_site_label
 _atom_site_symmetry_multiplicity
 _atom_site_fract_x
 _atom_site_fract_y
 _atom_site_fract_z
 _atom_site_occupancy
  Cs  Cs0  1  0.38705654  0.38705654  0.38705654  1
  Cs  Cs1  1  0.61294346  0.61294346  0.61294346  1
  Tc  Tc0  1  0.30893568  0.12942704  0.99458835  1
  Tc  Tc1  1  0.19800881  0.88404152  0.06267748  1
  Tc  Tc2  1  0.88404152  0.06267748  0.19800881  1
  Tc  Tc3  1  0.93732252  0.80199119  0.11595848  1
  Tc  Tc4  1  0.80199119  0.11595848  0.93732252  1
  Tc  Tc5  1  0.11595848  0.93732252  0.80199119  1
  Tc  Tc6  1  0.99458835  0.30893568  0.12942704  1
  Tc  Tc7  1  0.87057296  0.00541165  0.69106432  1
  Tc  Tc8  1  0.12942704  0.99458835  0.30893568  1
  Tc  Tc9  1  0.00541165  0.69106432  0.87057296  1
  Tc  Tc10  1  0.69106432  0.87057296  0.00541165  1
  Tc  Tc11  1  0.06267748  0.19800881  0.88404152  1
  Se  Se0  1  0.98736781  0.24362559  0.63713831  1
  Se  Se1  1  0.24362559  0.63713831  0.98736781  1
  Se  Se2  1  0.63713831  0.98736781  0.24362559  1
  Se  Se3  1  0.01263219  0.75637441  0.36286169  1
  Se  Se4  1  0.75637441  0.36286169  0.01263219  1
  Se  Se5  1  0.36286169  0.01263219  0.75637441  1
  S  S0  1  0.16421667  0.40981757  0.83020663  1
  S  S1  1  0.40981757  0.83020663  0.16421667  1
  S  S2  1  0.83020663  0.16421667  0.40981757  1
  S  S3  1  0.83578333  0.59018243  0.16979337  1
  S  S4  1  0.59018243  0.16979337  0.83578333  1
  S  S5  1  0.16979337  0.83578333  0.59018243  1
  S  S6  1  0.78035078  0.78035078  0.78035078  1
  S  S7  1  0.21964922  0.21964922  0.21964922  1
loop_
_geom_bond_atom_site_label_1
_geom_bond_atom_site_label_2
_geom_bond_distance
_geom_bond_site_symmetry_2
Cs0 Se3 3.584437 1_555
Cs0 Se5 3.584438 1_555
Cs0 Se4 3.584438 1_555
Cs0 S0 3.744192 1_555
Cs0 S2 3.744192 1_555
Cs0 S1 3.744192 1_555
Cs0 Se1 3.877876 1_554
Cs0 Se2 3.877876 1_545
Cs0 Se0 3.877877 1_455
Cs0 S7 3.884220 1_555
Cs1 Se0 3.584437 1_555
Cs1 Se2 3.584438 1_555
Cs1 Se1 3.584438 1_555
Cs1 S3 3.744192 1_555
Cs1 S5 3.744192 1_555
Cs1 S4 3.744192 1_555
Cs1 Se4 3.877876 1_556
Cs1 Se5 3.877876 1_565
Cs1 Se3 3.877877 1_655
Cs1 S6 3.884220 1_555
Se0 Tc5 2.522633 1_645
Se0 Tc4 2.552143 1_555
Se0 Tc11 2.563852 1_655
Se0 Tc7 2.722733 1_555
Se1 Tc3 2.522633 1_456
Se1 Tc5 2.552143 1_555
Se1 Tc1 2.563852 1_556
Se1 Tc9 2.722732 1_555
Se2 Tc4 2.522633 1_564
Se2 Tc3 2.552143 1_555
Se2 Tc2 2.563852 1_565
Se2 Tc10 2.722732 1_555
Se3 Tc2 2.522633 1_465
Se3 Tc1 2.552143 1_555
Se3 Tc3 2.563852 1_455
Se3 Tc8 2.722733 1_555
Se4 Tc11 2.522633 1_654
Se4 Tc2 2.552143 1_555
Se4 Tc4 2.563852 1_554
Se4 Tc6 2.722732 1_555
Se5 Tc1 2.522633 1_546
Se5 Tc11 2.552143 1_555
Se5 Tc5 2.563852 1_545
Se5 Tc0 2.722732 1_555
S0 Tc11 2.382176 1_555
S0 Tc0 2.426288 1_555
S0 Tc6 2.444317 1_456
S0 Tc9 2.464492 1_555
S1 Tc1 2.382176 1_555
S1 Tc8 2.426288 1_555
S1 Tc0 2.444317 1_564
S1 Tc10 2.464493 1_555
S2 Tc2 2.382176 1_555
S2 Tc6 2.426288 1_555
S2 Tc8 2.444317 1_645
S2 Tc7 2.464492 1_555
S3 Tc3 2.382176 1_555
S3 Tc10 2.426288 1_555
S3 Tc9 2.444317 1_654
S3 Tc6 2.464492 1_555
S4 Tc4 2.382176 1_555
S4 Tc7 2.426288 1_555
S4 Tc10 2.444317 1_546
S4 Tc0 2.464493 1_555
S5 Tc5 2.382176 1_555
S5 Tc9 2.426288 1_555
S5 Tc7 2.444317 1_465
S5 Tc8 2.464492 1_555
S6 Tc10 2.313841 1_556
S6 Tc9 2.313841 1_655
S6 Tc7 2.313841 1_565
S7 Tc0 2.313841 1_554
S7 Tc6 2.313841 1_455
S7 Tc8 2.313841 1_545
