# generated using pymatgen
data_CsK2NaPb4
_symmetry_space_group_name_H-M   'P 1'
_cell_length_a   9.06513316
_cell_length_b   9.06513279
_cell_length_c   10.95044524
_cell_angle_alpha   90.00000000
_cell_angle_beta   90.00000000
_cell_angle_gamma   133.43086635
_symmetry_Int_Tables_number   1
_chemical_formula_structural   CsK2NaPb4
_chemical_formula_sum   'Cs2 K4 Na2 Pb8'
_cell_volume   653.49011522
_cell_formula_units_Z   2
loop_
 _symmetry_equiv_pos_site_id
 _symmetry_equiv_pos_as_xyz
  1  'x, y, z'
loop_
 _atom_site_type_symbol
 _atom_site_label
 _atom_site_symmetry_multiplicity
 _atom_site_fract_x
 _atom_site_fract_y
 _atom_site_fract_z
 _atom_site_occupancy
  Cs  Cs0  1  0.77786722  0.22213278  0.25000000  1
  Cs  Cs1  1  0.22213278  0.77786722  0.75000000  1
  K  K0  1  0.61199741  0.38800259  0.54102365  1
  K  K1  1  0.61199741  0.38800259  0.95897635  1
  K  K2  1  0.38800259  0.61199741  0.45897635  1
  K  K3  1  0.38800259  0.61199741  0.04102365  1
  Na  Na0  1  0.00000000  0.00000000  0.50000000  1
  Na  Na1  1  0.00000000  0.00000000  0.00000000  1
  Pb  Pb0  1  0.27604085  0.18213282  0.25000000  1
  Pb  Pb1  1  0.82242913  0.17757087  0.88859316  1
  Pb  Pb2  1  0.82242913  0.17757087  0.61140684  1
  Pb  Pb3  1  0.18213282  0.27604085  0.75000000  1
  Pb  Pb4  1  0.72395915  0.81786718  0.75000000  1
  Pb  Pb5  1  0.17757087  0.82242913  0.38859316  1
  Pb  Pb6  1  0.81786718  0.72395915  0.25000000  1
  Pb  Pb7  1  0.17757087  0.82242913  0.11140684  1
loop_
_geom_bond_atom_site_label_1
_geom_bond_atom_site_label_2
_geom_bond_distance
_geom_bond_site_symmetry_2
Cs0 Pb2 4.026545 1_555
Cs0 Pb1 4.026545 1_554
Cs0 Pb5 4.234872 1_655
Cs0 Pb7 4.234872 1_655
Cs0 Pb5 4.234872 1_545
Cs0 Pb7 4.234872 1_545
Cs0 Pb6 4.307895 1_555
Cs0 Pb0 4.307895 1_555
Cs1 Pb7 4.026545 1_556
Cs1 Pb5 4.026545 1_555
Cs1 Pb1 4.234872 1_455
Cs1 Pb2 4.234872 1_455
Cs1 Pb1 4.234872 1_565
Cs1 Pb2 4.234872 1_565
Cs1 Pb3 4.307895 1_555
Cs1 Pb4 4.307895 1_555
K0 Pb2 3.588199 1_555
K0 Pb6 3.885753 1_555
K0 Pb0 3.885753 1_555
K0 Pb4 4.001714 1_555
K0 Pb3 4.001714 1_555
K0 Pb5 4.101180 1_545
K0 Pb5 4.101180 1_655
K1 Pb1 3.588199 1_555
K1 Pb6 3.885753 1_556
K1 Pb0 3.885753 1_556
K1 Pb4 4.001714 1_555
K1 Pb3 4.001714 1_555
K1 Pb7 4.101180 1_546
K1 Pb7 4.101180 1_656
K2 Pb5 3.588199 1_555
K2 Pb3 3.885753 1_555
K2 Pb4 3.885753 1_555
K2 Pb0 4.001714 1_555
K2 Pb6 4.001714 1_555
K2 Pb2 4.101180 1_565
K2 Pb2 4.101180 1_455
K3 Pb7 3.588199 1_555
K3 Pb3 3.885753 1_554
K3 Pb4 3.885753 1_554
K3 Pb0 4.001714 1_555
K3 Pb6 4.001714 1_555
K3 Pb1 4.101180 1_564
K3 Pb1 4.101180 1_454
Na0 Pb2 3.198952 1_455
Na0 Pb5 3.198952 1_545
Na0 Pb3 3.286576 1_555
Na0 Pb6 3.286576 1_445
Na0 Pb4 3.286576 1_445
Na0 Pb0 3.286576 1_555
Na1 Pb7 3.198952 1_545
Na1 Pb1 3.198952 1_454
Na1 Pb3 3.286576 1_554
Na1 Pb6 3.286576 1_445
Na1 Pb4 3.286576 1_444
Na1 Pb0 3.286576 1_555
Pb0 Pb5 3.119387 1_545
Pb0 Pb7 3.119387 1_545
Pb0 Pb6 3.283666 1_445
Pb1 Pb2 3.035314 1_555
Pb1 Pb4 3.119387 1_545
Pb1 Pb3 3.119387 1_655
Pb2 Pb4 3.119387 1_545
Pb2 Pb3 3.119387 1_655
Pb3 Pb4 3.283666 1_445
Pb5 Pb7 3.035314 1_555
Pb5 Pb6 3.119387 1_455
Pb6 Pb7 3.119387 1_655
