# generated using pymatgen
data_ScTiSn2Rh3
_symmetry_space_group_name_H-M   'P 1'
_cell_length_a   7.59010205
_cell_length_b   7.59010084
_cell_length_c   7.59010198
_cell_angle_alpha   34.21871486
_cell_angle_beta   34.21873126
_cell_angle_gamma   34.21872029
_symmetry_Int_Tables_number   1
_chemical_formula_structural   ScTiSn2Rh3
_chemical_formula_sum   'Sc1 Ti1 Sn2 Rh3'
_cell_volume   123.30517217
_cell_formula_units_Z   1
loop_
 _symmetry_equiv_pos_site_id
 _symmetry_equiv_pos_as_xyz
  1  'x, y, z'
loop_
 _atom_site_type_symbol
 _atom_site_label
 _atom_site_symmetry_multiplicity
 _atom_site_fract_x
 _atom_site_fract_y
 _atom_site_fract_z
 _atom_site_occupancy
  Sc  Sc0  1  0.75565179  0.75565179  0.75565179  1
  Ti  Ti0  1  0.24689580  0.24689580  0.24689580  1
  Sn  Sn0  1  0.99410939  0.99410939  0.99410939  1
  Sn  Sn1  1  0.50367763  0.50367763  0.50367763  1
  Rh  Rh0  1  0.12548512  0.12548512  0.12548512  1
  Rh  Rh1  1  0.62605019  0.62605019  0.62605019  1
  Rh  Rh2  1  0.37312908  0.37312908  0.37312908  1
loop_
_geom_bond_atom_site_label_1
_geom_bond_atom_site_label_2
_geom_bond_distance
_geom_bond_site_symmetry_2
Sc0 Sn1 3.111950 1_565
Sc0 Sn1 3.111951 1_556
Sc0 Sn1 3.111951 1_655
Sn0 Ti0 3.102244 1_656
Sn0 Ti0 3.102245 1_665
Sn0 Ti0 3.102245 1_566
Sn1 Ti0 3.055492 1_565
Sn1 Ti0 3.055493 1_556
Sn1 Ti0 3.055493 1_655
Rh0 Ti0 2.600152 1_555
Rh0 Sc0 2.694311 1_454
Rh0 Sc0 2.694311 1_445
Rh0 Sc0 2.694312 1_544
Rh0 Sn1 2.751588 1_545
Rh0 Sn1 2.751589 1_554
Rh0 Sn1 2.751589 1_455
Rh0 Sn0 2.813565 1_444
Rh1 Sn1 2.620752 1_555
Rh1 Sn0 2.683534 1_545
Rh1 Sn0 2.683534 1_554
Rh1 Sn0 2.683535 1_455
Rh1 Ti0 2.758848 1_565
Rh1 Ti0 2.758849 1_556
Rh1 Ti0 2.758849 1_655
Rh1 Sc0 2.775570 1_555
Rh2 Ti0 2.703433 1_555
Rh2 Sn0 2.757823 1_454
Rh2 Sn0 2.757824 1_445
Rh2 Sn0 2.757824 1_544
Rh2 Sc0 2.785323 1_545
Rh2 Sc0 2.785323 1_554
Rh2 Sc0 2.785324 1_455
Rh2 Sn1 2.795850 1_555
