# generated using pymatgen
data_CsGeAsRh2
_symmetry_space_group_name_H-M   'P 1'
_cell_length_a   8.02839620
_cell_length_b   8.02839641
_cell_length_c   8.02839482
_cell_angle_alpha   150.73026996
_cell_angle_beta   150.73027684
_cell_angle_gamma   41.87048657
_symmetry_Int_Tables_number   1
_chemical_formula_structural   CsGeAsRh2
_chemical_formula_sum   'Cs1 Ge1 As1 Rh2'
_cell_volume   123.41068273
_cell_formula_units_Z   1
loop_
 _symmetry_equiv_pos_site_id
 _symmetry_equiv_pos_as_xyz
  1  'x, y, z'
loop_
 _atom_site_type_symbol
 _atom_site_label
 _atom_site_symmetry_multiplicity
 _atom_site_fract_x
 _atom_site_fract_y
 _atom_site_fract_z
 _atom_site_occupancy
  Cs  Cs0  1  0.00301978  0.00301978  1.00000000  1
  Ge  Ge0  1  0.33849050  0.33849050  0.00000000  1
  As  As0  1  0.66159938  0.66159938  1.00000000  1
  Rh  Rh0  1  0.74844467  0.24844467  0.50000000  1
  Rh  Rh1  1  0.24844467  0.74844467  0.50000000  1
loop_
_geom_bond_atom_site_label_1
_geom_bond_atom_site_label_2
_geom_bond_distance
_geom_bond_site_symmetry_2
Cs0 Ge0 3.783814 1_557
Cs0 Ge0 3.783816 1_456
Cs0 Ge0 3.783816 1_546
Cs0 Ge0 3.783816 1_445
Ge0 Rh0 2.436831 1_555
Ge0 Rh1 2.436831 1_555
Ge0 Rh0 2.436831 1_454
Ge0 Rh1 2.436832 1_544
As0 Rh1 2.410563 1_555
As0 Rh0 2.410563 1_555
As0 Rh1 2.410564 1_656
As0 Rh0 2.410564 1_566
As0 Cs0 3.726245 1_666
As0 Cs0 3.726246 1_565
As0 Cs0 3.726246 1_655
As0 Cs0 3.726246 1_554
