# generated using pymatgen
data_In7IrBr12
_symmetry_space_group_name_H-M   'P 1'
_cell_length_a   9.07148512
_cell_length_b   9.07148567
_cell_length_c   9.07148514
_cell_angle_alpha   105.24532562
_cell_angle_beta   105.24532825
_cell_angle_gamma   105.24533321
_symmetry_Int_Tables_number   1
_chemical_formula_structural   In7IrBr12
_chemical_formula_sum   'In7 Ir1 Br12'
_cell_volume   649.16466827
_cell_formula_units_Z   1
loop_
 _symmetry_equiv_pos_site_id
 _symmetry_equiv_pos_as_xyz
  1  'x, y, z'
loop_
 _atom_site_type_symbol
 _atom_site_label
 _atom_site_symmetry_multiplicity
 _atom_site_fract_x
 _atom_site_fract_y
 _atom_site_fract_z
 _atom_site_occupancy
  In  In0  1  0.04885442  0.06341472  0.31068945  1
  In  In1  1  0.31068945  0.04885442  0.06341472  1
  In  In2  1  0.06341472  0.31068945  0.04885442  1
  In  In3  1  0.95114558  0.93658528  0.68931055  1
  In  In4  1  0.68931055  0.95114558  0.93658528  1
  In  In5  1  0.93658528  0.68931055  0.95114558  1
  In  In6  1  0.50000000  0.50000000  0.50000000  1
  Ir  Ir0  1  0.00000000  0.00000000  0.00000000  1
  Br  Br0  1  0.97859725  0.55954642  0.19356372  1
  Br  Br1  1  0.19356372  0.97859725  0.55954642  1
  Br  Br2  1  0.55954642  0.19356372  0.97859725  1
  Br  Br3  1  0.02140275  0.44045358  0.80643628  1
  Br  Br4  1  0.80643628  0.02140275  0.44045358  1
  Br  Br5  1  0.44045358  0.80643628  0.02140275  1
  Br  Br6  1  0.49571661  0.19162915  0.39252726  1
  Br  Br7  1  0.39252726  0.49571661  0.19162915  1
  Br  Br8  1  0.19162915  0.39252726  0.49571661  1
  Br  Br9  1  0.50428339  0.80837085  0.60747274  1
  Br  Br10  1  0.60747274  0.50428339  0.80837085  1
  Br  Br11  1  0.80837085  0.60747274  0.50428339  1
loop_
_geom_bond_atom_site_label_1
_geom_bond_atom_site_label_2
_geom_bond_distance
_geom_bond_site_symmetry_2
In0 Ir0 2.612884 1_555
In1 Ir0 2.612884 1_555
In2 Ir0 2.612884 1_555
In3 Ir0 2.612884 1_666
In4 Ir0 2.612884 1_666
In5 Ir0 2.612884 1_666
Br0 In2 2.701432 1_655
Br0 In5 2.742902 1_554
Br1 In0 2.701432 1_565
Br1 In3 2.742902 1_455
Br2 In1 2.701432 1_556
Br2 In4 2.742902 1_545
Br3 In5 2.701432 1_455
Br3 In2 2.742902 1_556
Br4 In3 2.701432 1_545
Br4 In0 2.742902 1_655
Br5 In4 2.701432 1_554
Br5 In1 2.742902 1_565
Br6 In6 2.695549 1_555
Br6 In1 2.756078 1_555
Br7 In6 2.695549 1_555
Br7 In2 2.756078 1_555
Br8 In6 2.695549 1_555
Br8 In0 2.756078 1_555
Br9 In6 2.695549 1_555
Br9 In4 2.756078 1_555
Br10 In6 2.695549 1_555
Br10 In5 2.756078 1_555
Br11 In6 2.695549 1_555
Br11 In3 2.756078 1_555
