# generated using pymatgen
data_Y6MnVB14
_symmetry_space_group_name_H-M   'P 1'
_cell_length_a   8.11446956
_cell_length_b   8.11447005
_cell_length_c   9.37435930
_cell_angle_alpha   90.00000000
_cell_angle_beta   90.00000000
_cell_angle_gamma   155.56660865
_symmetry_Int_Tables_number   1
_chemical_formula_structural   Y6MnVB14
_chemical_formula_sum   'Y6 Mn1 V1 B14'
_cell_volume   255.31672960
_cell_formula_units_Z   1
loop_
 _symmetry_equiv_pos_site_id
 _symmetry_equiv_pos_as_xyz
  1  'x, y, z'
loop_
 _atom_site_type_symbol
 _atom_site_label
 _atom_site_symmetry_multiplicity
 _atom_site_fract_x
 _atom_site_fract_y
 _atom_site_fract_z
 _atom_site_occupancy
  Y  Y0  1  0.75742081  0.24257919  0.25000000  1
  Y  Y1  1  0.24197531  0.75802469  0.75000000  1
  Y  Y2  1  0.89459133  0.10540867  0.56109248  1
  Y  Y3  1  0.10574686  0.89425314  0.44049020  1
  Y  Y4  1  0.10574686  0.89425314  0.05950980  1
  Y  Y5  1  0.89459133  0.10540867  0.93890752  1
  Mn  Mn0  1  0.05454023  0.94545977  0.75000000  1
  V  V0  1  0.94689264  0.05310736  0.25000000  1
  B  B0  1  0.54171295  0.45828705  0.25000000  1
  B  B1  1  0.46092664  0.53907336  0.75000000  1
  B  B2  1  0.52140942  0.47859058  0.90307586  1
  B  B3  1  0.47941155  0.52058845  0.09452409  1
  B  B4  1  0.47941155  0.52058845  0.40547591  1
  B  B5  1  0.52140942  0.47859058  0.59692414  1
  B  B6  1  0.63003747  0.36996253  0.84808334  1
  B  B7  1  0.36782213  0.63217787  0.14904699  1
  B  B8  1  0.72646138  0.27353862  0.96591238  1
  B  B9  1  0.27278757  0.72721243  0.03138414  1
  B  B10  1  0.27278757  0.72721243  0.46861586  1
  B  B11  1  0.72646138  0.27353862  0.53408762  1
  B  B12  1  0.63003747  0.36996253  0.65191666  1
  B  B13  1  0.36782213  0.63217787  0.35095301  1
loop_
_geom_bond_atom_site_label_1
_geom_bond_atom_site_label_2
_geom_bond_distance
_geom_bond_site_symmetry_2
B0 B4 1.760905 1_555
B0 B3 1.760905 1_555
B0 V0 2.282631 1_455
B0 V0 2.282631 1_565
B0 Y3 2.677466 1_655
B0 Y4 2.677466 1_655
B0 Y3 2.677466 1_545
B0 Y4 2.677466 1_545
B1 B2 1.726131 1_555
B1 B5 1.726131 1_555
B1 Mn0 2.270065 1_655
B1 Mn0 2.270065 1_545
B1 Y5 2.681704 1_455
B1 Y2 2.681704 1_455
B1 Y5 2.681705 1_565
B1 Y2 2.681705 1_565
B2 B6 1.798464 1_555
B2 B3 1.914344 1_556
B2 Mn0 2.298646 1_655
B2 Mn0 2.298646 1_545
B2 Y4 2.624582 1_656
B2 Y4 2.624583 1_546
B2 Y5 2.665981 1_455
B2 Y5 2.665981 1_565
B3 B7 1.842288 1_555
B3 V0 2.310573 1_455
B3 V0 2.310573 1_565
B3 Y5 2.624226 1_454
B3 Y5 2.624227 1_564
B3 Y4 2.659251 1_655
B3 Y4 2.659251 1_545
B4 B5 1.914344 1_555
B4 V0 2.310573 1_455
B4 V0 2.310573 1_565
B4 Y2 2.624226 1_455
B4 Y2 2.624227 1_565
B4 Y3 2.659251 1_655
B4 Y3 2.659251 1_545
B5 Mn0 2.298646 1_655
B5 Mn0 2.298646 1_545
B5 Y3 2.624582 1_655
B5 Y3 2.624583 1_545
B5 Y2 2.665981 1_455
B5 Y2 2.665981 1_565
B6 B8 1.886586 1_555
B6 Mn0 2.286448 1_545
B6 Mn0 2.286448 1_655
B6 Y1 2.635570 1_655
B6 Y1 2.635570 1_545
B6 Y4 2.650500 1_546
B6 Y4 2.650500 1_656
B7 B9 1.867845 1_555
B7 V0 2.327443 1_565
B7 V0 2.327443 1_455
B7 Y0 2.628778 1_455
B7 Y0 2.628779 1_565
B7 Y5 2.647510 1_564
B7 Y5 2.647510 1_454
B8 B9 1.965975 1_656
B8 B9 1.965975 1_546
B8 Y1 2.665656 1_655
B8 Y1 2.665656 1_545
B8 Y5 2.678769 1_555
B8 Y0 2.708035 1_556
B8 Y4 2.717422 1_546
B8 Y4 2.717422 1_656
B9 Y4 2.662590 1_555
B9 Y1 2.682689 1_554
B9 Y0 2.684737 1_455
B9 Y0 2.684737 1_565
B9 Y5 2.726263 1_564
B9 Y5 2.726264 1_454
B10 B13 1.867845 1_555
B10 B11 1.965975 1_455
B10 B11 1.965975 1_565
B10 Y3 2.662590 1_555
B10 Y1 2.682689 1_555
B10 Y0 2.684737 1_455
B10 Y0 2.684737 1_565
B10 Y2 2.726263 1_565
B10 Y2 2.726264 1_455
B11 B12 1.886586 1_555
B11 Y1 2.665656 1_655
B11 Y1 2.665656 1_545
B11 Y2 2.678769 1_555
B11 Y0 2.708035 1_555
B11 Y3 2.717422 1_545
B11 Y3 2.717422 1_655
B12 B5 1.798464 1_555
B12 B6 1.838937 1_555
B12 Mn0 2.286448 1_545
B12 Mn0 2.286448 1_655
B12 Y1 2.635570 1_655
B12 Y1 2.635570 1_545
B12 Y3 2.650500 1_545
B12 Y3 2.650500 1_655
B13 B4 1.842288 1_555
B13 B7 1.892740 1_555
B13 V0 2.327443 1_565
B13 V0 2.327443 1_455
B13 Y0 2.628778 1_455
B13 Y0 2.628779 1_565
B13 Y2 2.647510 1_565
B13 Y2 2.647510 1_455
