# generated using pymatgen
data_KTaS5
_symmetry_space_group_name_H-M   'P 1'
_cell_length_a   6.46616086
_cell_length_b   15.31189848
_cell_length_c   15.66288973
_cell_angle_alpha   59.53350470
_cell_angle_beta   90.00000000
_cell_angle_gamma   90.00000000
_symmetry_Int_Tables_number   1
_chemical_formula_structural   KTaS5
_chemical_formula_sum   'K8 Ta8 S40'
_cell_volume   1336.64881971
_cell_formula_units_Z   8
loop_
 _symmetry_equiv_pos_site_id
 _symmetry_equiv_pos_as_xyz
  1  'x, y, z'
loop_
 _atom_site_type_symbol
 _atom_site_label
 _atom_site_symmetry_multiplicity
 _atom_site_fract_x
 _atom_site_fract_y
 _atom_site_fract_z
 _atom_site_occupancy
  K  K0  1  0.63926755  0.15178901  0.43183923  1
  K  K1  1  0.13926755  0.84821099  0.06816077  1
  K  K2  1  0.36073245  0.84821099  0.56816077  1
  K  K3  1  0.86073245  0.15178901  0.93183923  1
  K  K4  1  0.14286785  0.35077413  0.58534875  1
  K  K5  1  0.64286785  0.64922587  0.91465125  1
  K  K6  1  0.85713215  0.64922587  0.41465125  1
  K  K7  1  0.35713215  0.35077413  0.08534875  1
  Ta  Ta0  1  0.05606674  0.46403195  0.24399783  1
  Ta  Ta1  1  0.55606674  0.53596805  0.25600217  1
  Ta  Ta2  1  0.94393326  0.53596805  0.75600217  1
  Ta  Ta3  1  0.44393326  0.46403195  0.74399783  1
  Ta  Ta4  1  0.91904772  0.03497068  0.70859856  1
  Ta  Ta5  1  0.41904772  0.96502932  0.79140144  1
  Ta  Ta6  1  0.08095228  0.96502932  0.29140144  1
  Ta  Ta7  1  0.58095228  0.03497068  0.20859856  1
  S  S0  1  0.20621469  0.29490755  0.31075165  1
  S  S1  1  0.70621469  0.70509245  0.18924835  1
  S  S2  1  0.79378531  0.70509245  0.68924835  1
  S  S3  1  0.29378531  0.29490755  0.81075165  1
  S  S4  1  0.08409035  0.05420511  0.55468173  1
  S  S5  1  0.58409035  0.94579489  0.94531827  1
  S  S6  1  0.91590965  0.94579489  0.44531827  1
  S  S7  1  0.41590965  0.05420511  0.05468173  1
  S  S8  1  0.89466933  0.44477861  0.10827057  1
  S  S9  1  0.39466933  0.55522139  0.39172943  1
  S  S10  1  0.10533067  0.55522139  0.89172943  1
  S  S11  1  0.60533067  0.44477861  0.60827057  1
  S  S12  1  0.76174024  0.20363232  0.60557368  1
  S  S13  1  0.26174024  0.79636768  0.89442632  1
  S  S14  1  0.23825976  0.79636768  0.39442632  1
  S  S15  1  0.73825976  0.20363232  0.10557368  1
  S  S16  1  0.24682623  0.11167107  0.12617145  1
  S  S17  1  0.74682623  0.88832893  0.37382855  1
  S  S18  1  0.75317377  0.88832893  0.87382855  1
  S  S19  1  0.25317377  0.11167107  0.62617145  1
  S  S20  1  0.86543598  0.95879275  0.16325535  1
  S  S21  1  0.36543598  0.04120725  0.33674465  1
  S  S22  1  0.13456402  0.04120725  0.83674465  1
  S  S23  1  0.63456402  0.95879275  0.66325535  1
  S  S24  1  0.66052738  0.45794396  0.87749447  1
  S  S25  1  0.16052738  0.54205604  0.62250553  1
  S  S26  1  0.33947262  0.54205604  0.12250553  1
  S  S27  1  0.83947262  0.45794396  0.37749447  1
  S  S28  1  0.27889754  0.61063531  0.76458206  1
  S  S29  1  0.77889754  0.38936469  0.73541794  1
  S  S30  1  0.72110246  0.38936469  0.23541794  1
  S  S31  1  0.22110246  0.61063531  0.26458206  1
  S  S32  1  0.35317110  0.87414496  0.25138334  1
  S  S33  1  0.85317110  0.12585504  0.24861666  1
  S  S34  1  0.64682890  0.12585504  0.74861666  1
  S  S35  1  0.14682890  0.87414496  0.75138334  1
  S  S36  1  0.17188241  0.37442122  0.87393750  1
  S  S37  1  0.67188241  0.62557878  0.62606250  1
  S  S38  1  0.82811759  0.62557878  0.12606250  1
  S  S39  1  0.32811759  0.37442122  0.37393750  1
loop_
_geom_bond_atom_site_label_1
_geom_bond_atom_site_label_2
_geom_bond_distance
_geom_bond_site_symmetry_2
K0 S21 3.282998 1_555
K0 S12 3.294337 1_555
K0 S23 3.318102 1_545
K0 S4 3.360410 1_655
K0 S33 3.385572 1_555
K0 S30 3.410146 1_555
K0 S0 3.467811 1_555
K0 S6 3.538061 1_545
K0 S39 3.654597 1_555
K0 S19 3.738818 1_555
K1 S20 3.282998 1_455
K1 S13 3.294337 1_554
K1 S22 3.318102 1_564
K1 S5 3.360410 1_554
K1 S32 3.385572 1_555
K1 S31 3.410146 1_555
K1 S1 3.467811 1_455
K1 S7 3.538061 1_565
K1 S38 3.654597 1_455
K1 S18 3.738818 1_454
K2 S23 3.282998 1_555
K2 S14 3.294337 1_555
K2 S21 3.318102 1_565
K2 S6 3.360410 1_455
K2 S35 3.385572 1_555
K2 S28 3.410146 1_555
K2 S2 3.467811 1_555
K2 S4 3.538061 1_565
K2 S37 3.654597 1_555
K2 S17 3.738818 1_555
K3 S22 3.282998 1_655
K3 S15 3.294337 1_556
K3 S20 3.318102 1_546
K3 S7 3.360410 1_556
K3 S34 3.385572 1_555
K3 S29 3.410146 1_555
K3 S3 3.467811 1_655
K3 S5 3.538061 1_545
K3 S36 3.654597 1_655
K3 S16 3.738818 1_656
K4 S12 3.244399 1_455
K4 S25 3.264763 1_555
K4 S3 3.329515 1_555
K4 S39 3.363764 1_555
K4 S11 3.415702 1_555
K4 S27 3.423868 1_455
K4 S19 3.456518 1_555
K4 S9 3.467075 1_555
K4 S29 3.580706 1_455
K5 S13 3.244399 1_555
K5 S24 3.264763 1_555
K5 S2 3.329515 1_555
K5 S38 3.363764 1_556
K5 S10 3.415702 1_655
K5 S26 3.423868 1_556
K5 S18 3.456518 1_555
K5 S8 3.467075 1_556
K5 S28 3.580706 1_555
K6 S14 3.244399 1_655
K6 S27 3.264763 1_555
K6 S1 3.329515 1_555
K6 S37 3.363764 1_555
K6 S9 3.415702 1_555
K6 S25 3.423868 1_655
K6 S17 3.456518 1_555
K6 S11 3.467075 1_555
K6 S31 3.580706 1_655
K7 S15 3.244399 1_555
K7 S26 3.264763 1_555
K7 S0 3.329515 1_555
K7 S36 3.363764 1_554
K7 S8 3.415702 1_455
K7 S24 3.423868 1_554
K7 S16 3.456518 1_555
K7 S10 3.467075 1_554
K7 S30 3.580706 1_555
S0 S39 2.074846 1_555
S0 Ta0 2.448719 1_555
S1 S38 2.074846 1_555
S1 Ta1 2.448719 1_555
S2 S37 2.074846 1_555
S2 Ta2 2.448719 1_555
S3 S36 2.074846 1_555
S3 Ta3 2.448719 1_555
S4 Ta4 2.513465 1_455
S5 Ta5 2.513465 1_555
S6 Ta6 2.513465 1_655
S7 Ta7 2.513465 1_555
S8 Ta0 2.516141 1_655
S9 Ta1 2.516141 1_555
S10 S28 2.057191 1_555
S10 Ta2 2.516141 1_455
S11 S29 2.057191 1_555
S11 Ta3 2.516141 1_555
S12 S34 2.069861 1_555
S12 Ta4 2.466182 1_555
S13 S35 2.069861 1_555
S13 Ta5 2.466182 1_555
S14 S32 2.069861 1_555
S14 Ta6 2.466182 1_555
S15 S33 2.069861 1_555
S15 Ta7 2.466182 1_555
S16 S7 2.054881 1_555
S16 Ta7 2.485221 1_555
S16 Ta6 2.645182 1_545
S17 S6 2.054881 1_555
S17 Ta6 2.485221 1_655
S17 Ta7 2.645182 1_565
S18 S5 2.054881 1_555
S18 Ta5 2.485221 1_555
S18 Ta4 2.645182 1_565
S19 S4 2.054881 1_555
S19 Ta4 2.485221 1_455
S19 Ta5 2.645182 1_545
S20 Ta7 2.467556 1_565
S20 Ta6 2.484775 1_655
S21 Ta6 2.467556 1_545
S21 Ta7 2.484775 1_555
S22 Ta5 2.467556 1_545
S22 Ta4 2.484775 1_455
S23 Ta4 2.467556 1_565
S23 Ta5 2.484775 1_555
S24 Ta2 2.470069 1_555
S24 Ta3 2.478824 1_555
S25 Ta3 2.470069 1_555
S25 Ta2 2.478824 1_455
S26 Ta0 2.470069 1_555
S26 Ta1 2.478824 1_555
S27 Ta1 2.470069 1_555
S27 Ta0 2.478824 1_655
S28 Ta2 2.484403 1_455
S28 Ta3 2.648714 1_555
S29 Ta3 2.484403 1_555
S29 Ta2 2.648714 1_555
S30 S8 2.057191 1_555
S30 Ta0 2.484403 1_655
S30 Ta1 2.648714 1_555
S31 S9 2.057191 1_555
S31 Ta1 2.484403 1_555
S31 Ta0 2.648714 1_555
S32 Ta6 2.512436 1_555
S32 Ta7 2.647472 1_565
S33 Ta7 2.512436 1_555
S33 Ta6 2.647472 1_645
S34 Ta4 2.512436 1_555
S34 Ta5 2.647472 1_545
S35 Ta5 2.512436 1_555
S35 Ta4 2.647472 1_465
S36 Ta3 2.507493 1_555
S36 Ta2 2.658919 1_455
S37 Ta2 2.507493 1_555
S37 Ta3 2.658919 1_555
S38 Ta1 2.507493 1_555
S38 Ta0 2.658919 1_655
S39 Ta0 2.507493 1_555
S39 Ta1 2.658919 1_555
