# generated using pymatgen
data_Y8Al2RuPt
_symmetry_space_group_name_H-M   'P 1'
_cell_length_a   9.58263699
_cell_length_b   9.61969512
_cell_length_c   9.58263702
_cell_angle_alpha   59.87199123
_cell_angle_beta   59.81903897
_cell_angle_gamma   59.87199805
_symmetry_Int_Tables_number   1
_chemical_formula_structural   Y8Al2RuPt
_chemical_formula_sum   'Y16 Al4 Ru2 Pt2'
_cell_volume   622.55572290
_cell_formula_units_Z   2
loop_
 _symmetry_equiv_pos_site_id
 _symmetry_equiv_pos_as_xyz
  1  'x, y, z'
loop_
 _atom_site_type_symbol
 _atom_site_label
 _atom_site_symmetry_multiplicity
 _atom_site_fract_x
 _atom_site_fract_y
 _atom_site_fract_z
 _atom_site_occupancy
  Y  Y0  1  0.80510420  0.19489580  0.80510420  1
  Y  Y1  1  0.93714472  0.56470617  0.55910292  1
  Y  Y2  1  0.56087065  0.93912935  0.56087065  1
  Y  Y3  1  0.81095138  0.19488475  0.19257551  1
  Y  Y4  1  0.19174191  0.80825809  0.19174191  1
  Y  Y5  1  0.35089041  0.94048042  0.35089041  1
  Y  Y6  1  0.93714472  0.93904420  0.55910292  1
  Y  Y7  1  0.55910292  0.93904420  0.93714472  1
  Y  Y8  1  0.19257551  0.80158736  0.81095138  1
  Y  Y9  1  0.34881945  0.35162741  0.94792774  1
  Y  Y10  1  0.55910292  0.56470617  0.93714472  1
  Y  Y11  1  0.35089041  0.35773876  0.35089041  1
  Y  Y12  1  0.19257551  0.19488475  0.81095138  1
  Y  Y13  1  0.81095138  0.80158736  0.19257551  1
  Y  Y14  1  0.93848601  0.56151399  0.93848601  1
  Y  Y15  1  0.94792774  0.35162741  0.34881945  1
  Al  Al0  1  0.57798321  0.57664202  0.57798321  1
  Al  Al1  1  0.57798321  0.26739356  0.57798321  1
  Al  Al2  1  0.57847961  0.57728257  0.26695724  1
  Al  Al3  1  0.26695724  0.57728257  0.57847961  1
  Ru  Ru0  1  0.14229826  0.57648128  0.14229826  1
  Ru  Ru1  1  0.14229826  0.13892219  0.14229826  1
  Pt  Pt0  1  0.14549194  0.14014131  0.57422644  1
  Pt  Pt1  1  0.57422644  0.14014131  0.14549194  1
loop_
_geom_bond_atom_site_label_1
_geom_bond_atom_site_label_2
_geom_bond_distance
_geom_bond_site_symmetry_2
Al0 Al1 2.974876 1_555
Al0 Al3 2.974975 1_555
Al0 Al2 2.974975 1_555
Al0 Y1 3.299905 1_555
Al0 Y10 3.299905 1_555
Al0 Y2 3.330475 1_555
Al0 Y5 3.345271 1_555
Al0 Y9 3.363962 1_555
Al0 Y15 3.363963 1_555
Al0 Y0 3.416910 1_555
Al0 Y13 3.441368 1_555
Al0 Y8 3.441368 1_555
Al1 Al2 2.974975 1_555
Al1 Al3 2.974975 1_555
Al1 Y7 3.299923 1_545
Al1 Y6 3.299924 1_545
Al1 Y2 3.330494 1_545
Al1 Y11 3.345278 1_555
Al1 Y15 3.363962 1_555
Al1 Y9 3.363963 1_555
Al1 Y0 3.416901 1_555
Al1 Y12 3.441380 1_555
Al1 Y3 3.441380 1_555
Al2 Al3 2.977037 1_555
Al2 Y14 3.296613 1_554
Al2 Y5 3.319384 1_555
Al2 Y11 3.319400 1_555
Al2 Y7 3.321747 1_554
Al2 Y10 3.321767 1_554
Al2 Y15 3.351015 1_555
Al2 Y13 3.436779 1_555
Al2 Y3 3.436804 1_555
Al2 Y4 3.464457 1_555
Al3 Y14 3.296613 1_455
Al3 Y5 3.319384 1_555
Al3 Y11 3.319400 1_555
Al3 Y6 3.321747 1_455
Al3 Y1 3.321767 1_455
Al3 Y9 3.351014 1_555
Al3 Y8 3.436779 1_555
Al3 Y12 3.436803 1_555
Al3 Y4 3.464457 1_555
Ru0 Y8 2.758617 1_554
Ru0 Y13 2.758617 1_455
Ru0 Y4 2.786910 1_555
Ru0 Y11 2.826891 1_555
Ru0 Y15 2.846989 1_455
Ru0 Y9 2.846989 1_554
Ru0 Y1 3.421230 1_455
Ru0 Y10 3.421230 1_554
Ru0 Y14 3.471235 1_454
Ru1 Y12 2.758620 1_554
Ru1 Y3 2.758620 1_455
Ru1 Y4 2.786910 1_545
Ru1 Y5 2.826891 1_545
Ru1 Y9 2.847003 1_554
Ru1 Y15 2.847004 1_455
Ru1 Y6 3.421234 1_445
Ru1 Y7 3.421235 1_544
Ru1 Y14 3.471236 1_454
Pt0 Y0 2.828575 1_455
Pt0 Y12 2.844921 1_555
Pt0 Y8 2.844934 1_545
Pt0 Y15 2.867482 1_455
Pt0 Y11 2.870413 1_555
Pt0 Y5 2.870420 1_545
Pt0 Y2 3.407178 1_545
Pt0 Y1 3.492665 1_455
Pt0 Y6 3.492690 1_445
Pt1 Y0 2.828575 1_554
Pt1 Y3 2.844921 1_555
Pt1 Y13 2.844934 1_545
Pt1 Y9 2.867482 1_554
Pt1 Y11 2.870413 1_555
Pt1 Y5 2.870419 1_545
Pt1 Y2 3.407178 1_545
Pt1 Y10 3.492665 1_554
Pt1 Y7 3.492690 1_544
