# generated using pymatgen
data_Sc2MnSnRh4
_symmetry_space_group_name_H-M   'P 1'
_cell_length_a   7.77726081
_cell_length_b   7.77726027
_cell_length_c   7.77725971
_cell_angle_alpha   33.44468833
_cell_angle_beta   33.44469465
_cell_angle_gamma   33.44469325
_symmetry_Int_Tables_number   1
_chemical_formula_structural   Sc2MnSnRh4
_chemical_formula_sum   'Sc2 Mn1 Sn1 Rh4'
_cell_volume   127.24871970
_cell_formula_units_Z   1
loop_
 _symmetry_equiv_pos_site_id
 _symmetry_equiv_pos_as_xyz
  1  'x, y, z'
loop_
 _atom_site_type_symbol
 _atom_site_label
 _atom_site_symmetry_multiplicity
 _atom_site_fract_x
 _atom_site_fract_y
 _atom_site_fract_z
 _atom_site_occupancy
  Sc  Sc0  1  0.24787720  0.24787720  0.24787720  1
  Sc  Sc1  1  0.75212280  0.75212280  0.75212280  1
  Mn  Mn0  1  0.50000000  0.50000000  0.50000000  1
  Sn  Sn0  1  0.00000000  0.00000000  0.00000000  1
  Rh  Rh0  1  0.62414073  0.62414073  0.62414073  1
  Rh  Rh1  1  0.12584337  0.12584337  0.12584337  1
  Rh  Rh2  1  0.87415663  0.87415663  0.87415663  1
  Rh  Rh3  1  0.37585927  0.37585927  0.37585927  1
loop_
_geom_bond_atom_site_label_1
_geom_bond_atom_site_label_2
_geom_bond_distance
_geom_bond_site_symmetry_2
Mn0 Rh0 2.731886 1_555
Mn0 Rh3 2.731886 1_555
Mn0 Rh2 2.735684 1_545
Mn0 Rh1 2.735684 1_565
Mn0 Rh2 2.735684 1_554
Mn0 Rh1 2.735684 1_556
Mn0 Rh2 2.735684 1_455
Mn0 Rh1 2.735684 1_655
Rh0 Sn0 2.748216 1_656
Rh0 Sn0 2.748216 1_665
Rh0 Sn0 2.748217 1_566
Rh0 Sc0 2.751258 1_565
Rh0 Sc0 2.751259 1_556
Rh0 Sc0 2.751259 1_655
Rh0 Sc1 2.816420 1_555
Rh1 Sc0 2.685521 1_555
Rh1 Sc1 2.732548 1_454
Rh1 Sc1 2.732548 1_445
Rh1 Sc1 2.732548 1_544
Rh1 Sn0 2.769355 1_555
Rh2 Sc1 2.685521 1_555
Rh2 Sc0 2.732548 1_656
Rh2 Sc0 2.732548 1_665
Rh2 Sc0 2.732548 1_566
Rh2 Sn0 2.769355 1_666
Rh3 Sn0 2.748216 1_565
Rh3 Sn0 2.748216 1_556
Rh3 Sn0 2.748217 1_655
Rh3 Sc1 2.751258 1_545
Rh3 Sc1 2.751259 1_554
Rh3 Sc1 2.751259 1_455
Rh3 Sc0 2.816420 1_555
