# generated using pymatgen
data_Zr15Ta(Ir2N)4
_symmetry_space_group_name_H-M   'P 1'
_cell_length_a   8.79877161
_cell_length_b   8.79877283
_cell_length_c   8.79877162
_cell_angle_alpha   59.51232789
_cell_angle_beta   59.51233123
_cell_angle_gamma   59.51232318
_symmetry_Int_Tables_number   1
_chemical_formula_structural   Zr15Ta(Ir2N)4
_chemical_formula_sum   'Zr15 Ta1 Ir8 N4'
_cell_volume   476.32996037
_cell_formula_units_Z   1
loop_
 _symmetry_equiv_pos_site_id
 _symmetry_equiv_pos_as_xyz
  1  'x, y, z'
loop_
 _atom_site_type_symbol
 _atom_site_label
 _atom_site_symmetry_multiplicity
 _atom_site_fract_x
 _atom_site_fract_y
 _atom_site_fract_z
 _atom_site_occupancy
  Zr  Zr0  1  0.12500000  0.62500000  0.62500000  1
  Zr  Zr1  1  0.62500000  0.12500000  0.62500000  1
  Zr  Zr2  1  0.62500000  0.62500000  0.12500000  1
  Zr  Zr3  1  0.81453619  0.81453619  0.18636019  1
  Zr  Zr4  1  0.18328438  0.18328438  0.81636408  1
  Zr  Zr5  1  0.81453619  0.18636019  0.81453619  1
  Zr  Zr6  1  0.18328438  0.81636408  0.18328438  1
  Zr  Zr7  1  0.18636019  0.81453619  0.81453619  1
  Zr  Zr8  1  0.81636408  0.18328438  0.18328438  1
  Zr  Zr9  1  0.43546381  0.43546381  0.06363981  1
  Zr  Zr10  1  0.06671562  0.06671562  0.43363592  1
  Zr  Zr11  1  0.43546381  0.06363981  0.43546381  1
  Zr  Zr12  1  0.06671562  0.43363592  0.06671562  1
  Zr  Zr13  1  0.06363981  0.43546381  0.43546381  1
  Zr  Zr14  1  0.43363592  0.06671562  0.06671562  1
  Ta  Ta0  1  0.62500000  0.62500000  0.62500000  1
  Ir  Ir0  1  0.76525032  0.41652356  0.41652356  1
  Ir  Ir1  1  0.41652356  0.76525032  0.41652356  1
  Ir  Ir2  1  0.41652356  0.41652356  0.76525032  1
  Ir  Ir3  1  0.40791631  0.40791631  0.40791631  1
  Ir  Ir4  1  0.48474968  0.83347644  0.83347644  1
  Ir  Ir5  1  0.83347644  0.48474968  0.83347644  1
  Ir  Ir6  1  0.83347644  0.83347644  0.48474968  1
  Ir  Ir7  1  0.84208369  0.84208369  0.84208369  1
  N  N0  1  0.62500000  0.12500000  0.12500000  1
  N  N1  1  0.12500000  0.62500000  0.12500000  1
  N  N2  1  0.12500000  0.12500000  0.62500000  1
  N  N3  1  0.12500000  0.12500000  0.12500000  1
loop_
_geom_bond_atom_site_label_1
_geom_bond_atom_site_label_2
_geom_bond_distance
_geom_bond_site_symmetry_2
Ir0 Ta0 2.659484 1_555
Ir0 Zr2 2.758210 1_555
Ir0 Zr1 2.758211 1_555
Ir0 Zr13 2.804409 1_655
Ir0 Zr10 2.860542 1_655
Ir0 Zr12 2.860542 1_655
Ir1 Ta0 2.659484 1_555
Ir1 Zr2 2.758211 1_555
Ir1 Zr0 2.758211 1_555
Ir1 Zr11 2.804410 1_565
Ir1 Zr10 2.860542 1_565
Ir1 Zr14 2.860542 1_565
Ir2 Ta0 2.659484 1_555
Ir2 Zr0 2.758210 1_555
Ir2 Zr1 2.758211 1_555
Ir2 Zr9 2.804409 1_556
Ir2 Zr12 2.860542 1_556
Ir2 Zr14 2.860542 1_556
Ir3 Zr1 2.747010 1_555
Ir3 Zr0 2.747010 1_555
Ir3 Zr2 2.747011 1_555
Ir3 Zr13 2.804134 1_555
Ir3 Zr9 2.804134 1_555
Ir3 Zr11 2.804135 1_555
Ir3 Zr6 3.205831 1_555
Ir3 Zr8 3.205831 1_555
Ir3 Zr4 3.205831 1_555
Ir4 Ta0 2.659484 1_555
Ir4 Zr2 2.758210 1_556
Ir4 Zr1 2.758211 1_565
Ir4 Zr7 2.804409 1_555
Ir4 Zr4 2.860542 1_565
Ir4 Zr6 2.860542 1_556
Ir5 Ta0 2.659484 1_555
Ir5 Zr2 2.758211 1_556
Ir5 Zr0 2.758211 1_655
Ir5 Zr5 2.804410 1_555
Ir5 Zr4 2.860542 1_655
Ir5 Zr8 2.860542 1_556
Ir6 Ta0 2.659484 1_555
Ir6 Zr0 2.758210 1_655
Ir6 Zr1 2.758211 1_565
Ir6 Zr3 2.804409 1_555
Ir6 Zr6 2.860542 1_655
Ir6 Zr8 2.860542 1_565
Ir7 Zr1 2.747010 1_565
Ir7 Zr0 2.747010 1_655
Ir7 Zr2 2.747011 1_556
Ir7 Zr7 2.804134 1_655
Ir7 Zr3 2.804134 1_556
Ir7 Zr5 2.804135 1_565
Ir7 Zr12 3.205831 1_656
Ir7 Zr14 3.205831 1_566
Ir7 Zr10 3.205831 1_665
N0 Zr9 2.308535 1_555
N0 Zr3 2.308535 1_545
N0 Zr11 2.308535 1_555
N0 Zr5 2.308535 1_554
N0 Zr8 2.319549 1_555
N0 Zr14 2.319549 1_555
N1 Zr9 2.308535 1_555
N1 Zr3 2.308535 1_455
N1 Zr13 2.308535 1_555
N1 Zr7 2.308535 1_554
N1 Zr6 2.319549 1_555
N1 Zr12 2.319549 1_555
N2 Zr11 2.308535 1_555
N2 Zr5 2.308535 1_455
N2 Zr13 2.308535 1_555
N2 Zr7 2.308535 1_545
N2 Zr4 2.319549 1_555
N2 Zr10 2.319549 1_555
N3 Zr14 2.311096 1_555
N3 Zr8 2.311096 1_455
N3 Zr10 2.311096 1_555
N3 Zr4 2.311096 1_554
N3 Zr12 2.311096 1_555
N3 Zr6 2.311096 1_545
