# generated using pymatgen
data_CsTc2Te7Mo4
_symmetry_space_group_name_H-M   'P 1'
_cell_length_a   10.40992375
_cell_length_b   10.40260408
_cell_length_c   10.38680116
_cell_angle_alpha   60.83121313
_cell_angle_beta   60.73850698
_cell_angle_gamma   60.70401852
_symmetry_Int_Tables_number   1
_chemical_formula_structural   CsTc2Te7Mo4
_chemical_formula_sum   'Cs2 Tc4 Te14 Mo8'
_cell_volume   808.94468037
_cell_formula_units_Z   2
loop_
 _symmetry_equiv_pos_site_id
 _symmetry_equiv_pos_as_xyz
  1  'x, y, z'
loop_
 _atom_site_type_symbol
 _atom_site_label
 _atom_site_symmetry_multiplicity
 _atom_site_fract_x
 _atom_site_fract_y
 _atom_site_fract_z
 _atom_site_occupancy
  Cs  Cs0  1  0.62046913  0.62019766  0.62114979  1
  Cs  Cs1  1  0.38169130  0.38052326  0.37762535  1
  Tc  Tc0  1  0.71650454  0.87658092  0.00581480  1
  Tc  Tc1  1  0.00656938  0.71462699  0.87855769  1
  Tc  Tc2  1  0.87745069  0.00439876  0.71623449  1
  Tc  Tc3  1  0.28352142  0.12399192  0.99526752  1
  Te  Te0  1  0.42752562  0.81809863  0.15659130  1
  Te  Te1  1  0.16556450  0.42462687  0.81053077  1
  Te  Te2  1  0.80853091  0.16238492  0.42896807  1
  Te  Te3  1  0.57701564  0.17932334  0.84157577  1
  Te  Te4  1  0.83911007  0.57886858  0.18189371  1
  Te  Te5  1  0.18097334  0.83867796  0.58005949  1
  Te  Te6  1  0.63480851  0.97336793  0.24924857  1
  Te  Te7  1  0.24810969  0.63566989  0.97562608  1
  Te  Te8  1  0.97287049  0.24790438  0.63622905  1
  Te  Te9  1  0.36387674  0.02488173  0.74947214  1
  Te  Te10  1  0.74901170  0.36343074  0.02093587  1
  Te  Te11  1  0.02473026  0.74843805  0.36191652  1
  Te  Te12  1  0.78311304  0.77822791  0.78060369  1
  Te  Te13  1  0.22415917  0.22288239  0.22083417  1
  Mo  Mo0  1  0.99521252  0.28306903  0.12370812  1
  Mo  Mo1  1  0.12152365  0.99780213  0.28333456  1
  Mo  Mo2  1  0.94435151  0.81132673  0.10697734  1
  Mo  Mo3  1  0.10465595  0.94504624  0.81265244  1
  Mo  Mo4  1  0.80986786  0.10532432  0.94635520  1
  Mo  Mo5  1  0.05533234  0.18843974  0.89557700  1
  Mo  Mo6  1  0.89484477  0.05484159  0.18861916  1
  Mo  Mo7  1  0.18860428  0.89705038  0.05364236  1
loop_
_geom_bond_atom_site_label_1
_geom_bond_atom_site_label_2
_geom_bond_distance
_geom_bond_site_symmetry_2
Cs0 Te8 3.814115 1_555
Cs0 Te6 3.818484 1_555
Cs0 Te7 3.823921 1_555
Cs0 Te12 4.053565 1_555
Cs0 Te4 4.121169 1_555
Cs0 Te5 4.131173 1_555
Cs0 Te3 4.154828 1_555
Cs0 Te10 4.158224 1_556
Cs0 Te9 4.197369 1_565
Cs0 Te11 4.201796 1_655
Cs1 Te10 3.808742 1_555
Cs1 Te11 3.814272 1_555
Cs1 Te9 3.831655 1_555
Cs1 Te13 3.984536 1_555
Cs1 Te2 4.055431 1_555
Cs1 Te1 4.074532 1_555
Cs1 Te0 4.133564 1_555
Cs1 Te7 4.204094 1_554
Cs1 Te6 4.220040 1_545
Cs1 Te8 4.264792 1_455
Tc0 Tc2 2.641446 1_564
Tc0 Tc1 2.644537 1_654
Tc0 Te12 2.655665 1_554
Tc0 Te4 2.730868 1_555
Tc0 Te3 2.765170 1_564
Tc0 Te6 2.769781 1_555
Tc0 Te0 2.851141 1_555
Tc1 Tc2 2.651794 1_465
Tc1 Te12 2.652412 1_455
Tc1 Te5 2.732058 1_555
Tc1 Te4 2.768186 1_456
Tc1 Te7 2.768284 1_555
Tc1 Te1 2.896131 1_555
Tc2 Te12 2.651961 1_545
Tc2 Te3 2.747133 1_555
Tc2 Te5 2.762811 1_645
Tc2 Te8 2.774413 1_555
Tc2 Te2 2.877058 1_555
Tc3 Te13 2.690961 1_556
Tc3 Te1 2.768742 1_555
Tc3 Te0 2.787559 1_546
Tc3 Te9 2.813301 1_555
Tc3 Te3 2.876037 1_555
Mo0 Mo1 2.607813 1_645
Mo0 Tc3 2.627373 1_654
Mo0 Mo5 2.682637 1_654
Mo0 Mo6 2.713205 1_555
Mo0 Te13 2.713745 1_655
Mo0 Te2 2.808865 1_555
Mo0 Te10 2.848665 1_555
Mo0 Te1 2.853368 1_654
Mo0 Te4 2.904053 1_555
Mo1 Tc3 2.631496 1_564
Mo1 Mo6 2.686694 1_465
Mo1 Te13 2.708085 1_565
Mo1 Mo7 2.714860 1_555
Mo1 Te0 2.801151 1_555
Mo1 Te2 2.842979 1_465
Mo1 Te11 2.846155 1_555
Mo1 Te5 2.917365 1_555
Mo2 Mo3 2.684178 1_654
Mo2 Mo4 2.686312 1_564
Mo2 Tc1 2.692014 1_654
Mo2 Tc0 2.712215 1_555
Mo2 Te4 2.752881 1_555
Mo2 Te7 2.785178 1_654
Mo2 Mo6 2.791204 1_565
Mo2 Te6 2.804609 1_555
Mo2 Mo7 2.815602 1_655
Mo2 Te11 2.842838 1_655
Mo3 Mo4 2.684998 1_465
Mo3 Tc2 2.694814 1_465
Mo3 Tc1 2.714605 1_555
Mo3 Te5 2.749766 1_555
Mo3 Te8 2.786749 1_465
Mo3 Mo7 2.787790 1_556
Mo3 Mo5 2.799523 1_565
Mo3 Te7 2.812570 1_555
Mo3 Te9 2.886676 1_565
Mo4 Tc0 2.689267 1_546
Mo4 Tc2 2.718408 1_555
Mo4 Te3 2.754796 1_555
Mo4 Te6 2.781508 1_546
Mo4 Mo6 2.797079 1_556
Mo4 Te8 2.813865 1_555
Mo4 Mo5 2.820504 1_655
Mo4 Te10 2.844926 1_556
Mo5 Mo7 2.658679 1_546
Mo5 Mo6 2.676712 1_456
Mo5 Tc3 2.708075 1_555
Mo5 Te10 2.783542 1_456
Mo5 Te1 2.790405 1_555
Mo5 Te9 2.813888 1_555
Mo5 Te8 2.914224 1_455
Mo6 Mo7 2.674130 1_645
Mo6 Te11 2.792263 1_645
Mo6 Te2 2.799464 1_555
Mo6 Te10 2.829963 1_555
Mo6 Te6 2.915649 1_545
Mo7 Tc3 2.686836 1_564
Mo7 Te9 2.778996 1_564
Mo7 Te0 2.783647 1_555
Mo7 Te11 2.822876 1_555
Mo7 Te7 2.905553 1_554
