# generated using pymatgen
data_K9Rb7(TiSe4)4
_symmetry_space_group_name_H-M   'P 1'
_cell_length_a   8.39820445
_cell_length_b   10.14489130
_cell_length_c   15.18970368
_cell_angle_alpha   90.00000000
_cell_angle_beta   89.92713977
_cell_angle_gamma   90.00000000
_symmetry_Int_Tables_number   1
_chemical_formula_structural   K9Rb7(TiSe4)4
_chemical_formula_sum   'K9 Rb7 Ti4 Se16'
_cell_volume   1294.14456137
_cell_formula_units_Z   1
loop_
 _symmetry_equiv_pos_site_id
 _symmetry_equiv_pos_as_xyz
  1  'x, y, z'
loop_
 _atom_site_type_symbol
 _atom_site_label
 _atom_site_symmetry_multiplicity
 _atom_site_fract_x
 _atom_site_fract_y
 _atom_site_fract_z
 _atom_site_occupancy
  K  K0  1  0.98022179  0.75000000  0.42955302  1
  K  K1  1  0.83589868  0.05279883  0.27488687  1
  K  K2  1  0.33831079  0.94650731  0.22788591  1
  K  K3  1  0.16302955  0.55287700  0.72511858  1
  K  K4  1  0.66377517  0.44778346  0.77213958  1
  K  K5  1  0.16302955  0.94712300  0.72511858  1
  K  K6  1  0.66377517  0.05221654  0.77213958  1
  K  K7  1  0.83589868  0.44720117  0.27488687  1
  K  K8  1  0.33831079  0.55349269  0.22788591  1
  Rb  Rb0  1  0.00088414  0.00024132  0.00029647  1
  Rb  Rb1  1  0.49855529  0.99903844  0.49969600  1
  Rb  Rb2  1  0.00088414  0.49975868  0.00029647  1
  Rb  Rb3  1  0.49855529  0.50096156  0.49969600  1
  Rb  Rb4  1  0.48821345  0.25000000  0.07248309  1
  Rb  Rb5  1  0.01043728  0.25000000  0.57213376  1
  Rb  Rb6  1  0.51339599  0.75000000  0.92803314  1
  Ti  Ti0  1  0.76534780  0.75000000  0.67120320  1
  Ti  Ti1  1  0.23281557  0.25000000  0.32811284  1
  Ti  Ti2  1  0.73770430  0.75000000  0.17460781  1
  Ti  Ti3  1  0.26527019  0.25000000  0.82620648  1
  Se  Se0  1  0.97892817  0.25000000  0.81749165  1
  Se  Se1  1  0.51912108  0.25000000  0.31951228  1
  Se  Se2  1  0.47918304  0.75000000  0.68117023  1
  Se  Se3  1  0.02367465  0.75000000  0.18262465  1
  Se  Se4  1  0.64851380  0.55843319  0.09904312  1
  Se  Se5  1  0.14518443  0.44419816  0.40242739  1
  Se  Se6  1  0.35347910  0.05786002  0.90156465  1
  Se  Se7  1  0.85366745  0.94121764  0.59495346  1
  Se  Se8  1  0.35347910  0.44213998  0.90156465  1
  Se  Se9  1  0.85366745  0.55878236  0.59495346  1
  Se  Se10  1  0.64851380  0.94156681  0.09904312  1
  Se  Se11  1  0.14518443  0.05580184  0.40242739  1
  Se  Se12  1  0.62500321  0.75000000  0.32166015  1
  Se  Se13  1  0.11941818  0.25000000  0.18175507  1
  Se  Se14  1  0.37922502  0.25000000  0.67980949  1
  Se  Se15  1  0.87944350  0.75000000  0.81761807  1
loop_
_geom_bond_atom_site_label_1
_geom_bond_atom_site_label_2
_geom_bond_distance
_geom_bond_site_symmetry_2
K0 Se9 3.346346 1_555
K0 Se7 3.346346 1_555
K0 Se12 3.405550 1_555
K0 Se11 3.422287 1_665
K0 Se5 3.422287 1_655
K0 Se3 3.768018 1_655
K1 Se11 3.242466 1_655
K1 Se10 3.300742 1_545
K1 Se1 3.396286 1_555
K1 Se13 3.415320 1_655
K1 Ti2 3.527003 1_545
K1 Se12 3.615916 1_545
K1 Se3 3.725802 1_645
K2 Se10 3.256765 1_555
K2 Se11 3.298197 1_565
K2 Se3 3.381371 1_555
K2 Se12 3.436407 1_555
K2 Se13 3.654212 1_565
K2 Se1 3.705109 1_565
K3 Se9 3.267400 1_455
K3 Se8 3.318800 1_555
K3 Se2 3.389686 1_555
K3 Se15 3.411287 1_455
K3 Se14 3.634321 1_555
K3 Se0 3.714151 1_455
K4 Se8 3.262820 1_555
K4 Se9 3.323255 1_555
K4 Se0 3.392688 1_555
K4 Se14 3.422304 1_555
K4 Se15 3.627810 1_555
K4 Se2 3.703800 1_555
K5 Se7 3.267400 1_455
K5 Se6 3.318800 1_565
K5 Se2 3.389686 1_555
K5 Se15 3.411287 1_455
K5 Se14 3.634321 1_565
K5 Se0 3.714151 1_465
K6 Se6 3.262820 1_555
K6 Se7 3.323255 1_545
K6 Se0 3.392688 1_555
K6 Se14 3.422304 1_555
K6 Se15 3.627810 1_545
K6 Se2 3.703800 1_545
K7 Se5 3.242466 1_655
K7 Se4 3.300742 1_555
K7 Se1 3.396286 1_555
K7 Se13 3.415320 1_655
K7 Ti2 3.527003 1_555
K7 Se12 3.615916 1_555
K7 Se3 3.725802 1_655
K8 Se4 3.256765 1_555
K8 Se5 3.298197 1_555
K8 Se3 3.381371 1_555
K8 Se12 3.436407 1_555
K8 Se13 3.654212 1_555
K8 Se1 3.705109 1_555
Rb0 Se6 3.368680 1_554
Rb0 Se10 3.368999 1_445
Rb0 Se3 3.762050 1_545
Rb0 Se0 3.763730 1_454
Rb0 Se13 3.874940 1_555
Rb0 Se15 3.897678 1_444
Rb1 Se11 3.366429 1_565
Rb1 Se7 3.367909 1_555
Rb1 Se1 3.741852 1_565
Rb1 Se2 3.742577 1_555
Rb1 Se12 3.849253 1_555
Rb1 Se14 3.868377 1_565
Rb2 Se8 3.368680 1_554
Rb2 Se4 3.368999 1_455
Rb2 Se3 3.762050 1_555
Rb2 Se0 3.763730 1_454
Rb2 Se13 3.874940 1_555
Rb2 Se15 3.897678 1_454
Rb3 Se5 3.366429 1_555
Rb3 Se9 3.367909 1_555
Rb3 Se1 3.741852 1_555
Rb3 Se2 3.742577 1_555
Rb3 Se12 3.849253 1_555
Rb3 Se14 3.868377 1_555
Rb4 Se4 3.430345 1_555
Rb4 Se10 3.430345 1_545
Rb4 Se8 3.439130 1_554
Rb4 Se6 3.439130 1_554
Rb4 Se13 3.512072 1_555
Rb4 Se1 3.761597 1_555
Rb5 Se9 3.415456 1_455
Rb5 Se7 3.415456 1_445
Rb5 Se5 3.435047 1_555
Rb5 Se11 3.435047 1_555
Rb5 Se14 3.504328 1_555
Rb5 Se0 3.735961 1_455
Rb6 Se6 3.423613 1_565
Rb6 Se8 3.423613 1_555
Rb6 Se10 3.437954 1_556
Rb6 Se4 3.437954 1_556
Rb6 Se15 3.500020 1_555
Rb6 Se2 3.761131 1_555
Se0 Ti3 2.408568 1_655
Se1 Ti1 2.407833 1_555
Se2 Ti0 2.407842 1_555
Se3 Ti2 2.404877 1_455
Se4 Ti2 2.378572 1_555
Se5 Ti1 2.386440 1_555
Se6 Ti3 2.379230 1_555
Se7 Ti0 2.377513 1_555
Se8 Ti3 2.379230 1_555
Se9 Ti0 2.377513 1_555
Se10 Ti2 2.378572 1_555
Se11 Ti1 2.386440 1_555
Se12 Ti2 2.424828 1_555
Se13 Ti1 2.419636 1_555
Se14 Ti3 2.419799 1_555
Se15 Ti0 2.422753 1_555
