# generated using pymatgen
data_BaCrAs2Rh
_symmetry_space_group_name_H-M   'P 1'
_cell_length_a   7.17404461
_cell_length_b   7.17404424
_cell_length_c   7.17404497
_cell_angle_alpha   146.88791325
_cell_angle_beta   146.88790610
_cell_angle_gamma   47.52978133
_symmetry_Int_Tables_number   1
_chemical_formula_structural   BaCrAs2Rh
_chemical_formula_sum   'Ba1 Cr1 As2 Rh1'
_cell_volume   109.75345707
_cell_formula_units_Z   1
loop_
 _symmetry_equiv_pos_site_id
 _symmetry_equiv_pos_as_xyz
  1  'x, y, z'
loop_
 _atom_site_type_symbol
 _atom_site_label
 _atom_site_symmetry_multiplicity
 _atom_site_fract_x
 _atom_site_fract_y
 _atom_site_fract_z
 _atom_site_occupancy
  Ba  Ba0  1  0.00000000  0.00000000  0.00000000  1
  Cr  Cr0  1  0.25000000  0.75000000  0.50000000  1
  As  As0  1  0.35553746  0.35553746  1.00000000  1
  As  As1  1  0.64446254  0.64446254  0.00000000  1
  Rh  Rh0  1  0.75000000  0.25000000  0.50000000  1
loop_
_geom_bond_atom_site_label_1
_geom_bond_atom_site_label_2
_geom_bond_distance
_geom_bond_site_symmetry_2
Cr0 Rh0 2.891029 1_454
Cr0 Rh0 2.891029 1_566
Cr0 Rh0 2.891029 1_555
Cr0 Rh0 2.891029 1_465
As0 Cr0 2.469744 1_545
As0 Cr0 2.469744 1_556
As0 Rh0 2.469744 1_455
As0 Rh0 2.469745 1_556
As0 Ba0 3.457843 1_667
As0 Ba0 3.457843 1_566
As0 Ba0 3.457843 1_656
As0 Ba0 3.457843 1_555
As1 Rh0 2.469744 1_565
As1 Rh0 2.469744 1_554
As1 Cr0 2.469744 1_655
As1 Cr0 2.469745 1_554
As1 Ba0 3.457843 1_554
As1 Ba0 3.457843 1_655
As1 Ba0 3.457843 1_565
As1 Ba0 3.457843 1_666
