# generated using pymatgen
data_VPt3
_symmetry_space_group_name_H-M   'P 1'
_cell_length_a   3.90117495
_cell_length_b   3.90117905
_cell_length_c   3.90118213
_cell_angle_alpha   90.00000000
_cell_angle_beta   90.00000000
_cell_angle_gamma   90.00000000
_symmetry_Int_Tables_number   1
_chemical_formula_structural   VPt3
_chemical_formula_sum   'V1 Pt3'
_cell_volume   59.37280079
_cell_formula_units_Z   1
loop_
 _symmetry_equiv_pos_site_id
 _symmetry_equiv_pos_as_xyz
  1  'x, y, z'
loop_
 _atom_site_type_symbol
 _atom_site_label
 _atom_site_symmetry_multiplicity
 _atom_site_fract_x
 _atom_site_fract_y
 _atom_site_fract_z
 _atom_site_occupancy
  V  V0  1  -0.00000000  -0.00000000  0.00000000  1
  Pt  Pt0  1  0.50000000  0.50000000  -0.00000000  1
  Pt  Pt1  1  0.50000000  0.00000000  0.50000000  1
  Pt  Pt2  1  0.00000000  0.50000000  0.50000000  1
loop_
_geom_bond_atom_site_label_1
_geom_bond_atom_site_label_2
_geom_bond_distance
_geom_bond_site_symmetry_2
Pt0 V0 2.758549 1_555
Pt0 V0 2.758549 1_655
Pt0 V0 2.758549 1_565
Pt0 V0 2.758549 1_665
Pt0 Pt2 2.758550 1_554
Pt0 Pt2 2.758550 1_655
Pt0 Pt2 2.758550 1_654
Pt0 Pt2 2.758550 1_555
Pt0 Pt1 2.758551 1_564
Pt0 Pt1 2.758551 1_555
Pt0 Pt1 2.758551 1_554
Pt0 Pt1 2.758551 1_565
Pt1 Pt2 2.758549 1_545
Pt1 Pt2 2.758549 1_645
Pt1 Pt2 2.758549 1_655
Pt1 Pt2 2.758549 1_555
Pt1 V0 2.758550 1_556
Pt1 V0 2.758550 1_655
Pt1 V0 2.758550 1_656
Pt1 V0 2.758550 1_555
Pt2 V0 2.758551 1_556
Pt2 V0 2.758551 1_555
Pt2 V0 2.758551 1_565
Pt2 V0 2.758551 1_566
