# generated using pymatgen
data_Ca10Si5Sn
_symmetry_space_group_name_H-M   'P 1'
_cell_length_a   9.26568442
_cell_length_b   9.26568476
_cell_length_c   9.26568404
_cell_angle_alpha   130.81065262
_cell_angle_beta   130.81065671
_cell_angle_gamma   72.11408418
_symmetry_Int_Tables_number   1
_chemical_formula_structural   Ca10Si5Sn
_chemical_formula_sum   'Ca10 Si5 Sn1'
_cell_volume   445.58648278
_cell_formula_units_Z   1
loop_
 _symmetry_equiv_pos_site_id
 _symmetry_equiv_pos_as_xyz
  1  'x, y, z'
loop_
 _atom_site_type_symbol
 _atom_site_label
 _atom_site_symmetry_multiplicity
 _atom_site_fract_x
 _atom_site_fract_y
 _atom_site_fract_z
 _atom_site_occupancy
  Ca  Ca0  1  0.82524615  0.30843446  0.86007890  1
  Ca  Ca1  1  0.19156554  0.67475385  0.13992110  1
  Ca  Ca2  1  0.44835656  0.96516725  0.13992110  1
  Ca  Ca3  1  0.30843446  0.44835656  0.48318832  1
  Ca  Ca4  1  0.05164344  0.19156554  0.51681168  1
  Ca  Ca5  1  0.53483275  0.05164344  0.86007890  1
  Ca  Ca6  1  0.67475385  0.53483275  0.48318832  1
  Ca  Ca7  1  0.96516725  0.82524615  0.51681168  1
  Ca  Ca8  1  0.98973145  0.98973145  0.00000000  1
  Ca  Ca9  1  0.51026855  0.51026855  1.00000000  1
  Si  Si0  1  0.11196475  0.61196475  0.72393051  1
  Si  Si1  1  0.88803525  0.38803525  0.27606949  1
  Si  Si2  1  0.61196475  0.88803525  0.50000000  1
  Si  Si3  1  0.38803525  0.11196475  0.50000000  1
  Si  Si4  1  0.25000000  0.25000000  0.00000000  1
  Sn  Sn0  1  0.75000000  0.75000000  0.00000000  1
loop_
_geom_bond_atom_site_label_1
_geom_bond_atom_site_label_2
_geom_bond_distance
_geom_bond_site_symmetry_2
Ca0 Si2 3.054920 1_545
Ca0 Si1 3.058691 1_556
Ca0 Si3 3.127366 1_555
Ca0 Si4 3.225270 1_656
Ca0 Sn0 3.376747 1_556
Ca1 Si2 3.054920 1_555
Ca1 Si0 3.058691 1_554
Ca1 Si3 3.127367 1_565
Ca1 Si4 3.225270 1_555
Ca1 Sn0 3.376746 1_455
Ca2 Si3 3.054927 1_565
Ca2 Si0 3.058706 1_554
Ca2 Si2 3.127369 1_555
Ca2 Si4 3.225270 1_565
Ca2 Sn0 3.376738 1_555
Ca3 Si1 3.054919 1_455
Ca3 Si3 3.058710 1_555
Ca3 Si0 3.127375 1_555
Ca3 Si4 3.225267 1_555
Ca3 Sn0 3.376744 1_556
Ca4 Si0 3.054919 1_555
Ca4 Si3 3.058710 1_555
Ca4 Si1 3.127375 1_455
Ca4 Si4 3.225267 1_556
Ca4 Sn0 3.376744 1_445
Ca5 Si3 3.054927 1_555
Ca5 Si1 3.058706 1_556
Ca5 Si2 3.127369 1_545
Ca5 Si4 3.225270 1_556
Ca5 Sn0 3.376738 1_546
Ca6 Si1 3.054927 1_555
Ca6 Si2 3.058701 1_555
Ca6 Si0 3.127364 1_655
Ca6 Si4 3.225270 1_555
Ca6 Sn0 3.376746 1_556
Ca7 Si0 3.054927 1_655
Ca7 Si2 3.058701 1_555
Ca7 Si1 3.127364 1_555
Ca7 Si4 3.225270 1_666
Ca7 Sn0 3.376746 1_555
Ca8 Si0 3.118683 1_654
Ca8 Si1 3.118683 1_565
Ca8 Si2 3.118685 1_554
Ca8 Si3 3.118685 1_665
Ca8 Sn0 3.591499 1_555
Ca9 Si1 3.118682 1_556
Ca9 Si0 3.118683 1_555
Ca9 Si2 3.118685 1_556
Ca9 Si3 3.118685 1_555
Ca9 Sn0 3.591499 1_556
Si0 Si1 2.442496 1_455
Si2 Si3 2.442486 1_565
