# generated using pymatgen
data_V4TcAs4
_symmetry_space_group_name_H-M   'P 1'
_cell_length_a   6.81007706
_cell_length_b   6.81007747
_cell_length_c   6.77309515
_cell_angle_alpha   92.86003784
_cell_angle_beta   93.58859396
_cell_angle_gamma   152.63828443
_symmetry_Int_Tables_number   1
_chemical_formula_structural   V4TcAs4
_chemical_formula_sum   'V4 Tc1 As4'
_cell_volume   140.22540984
_cell_formula_units_Z   1
loop_
 _symmetry_equiv_pos_site_id
 _symmetry_equiv_pos_as_xyz
  1  'x, y, z'
loop_
 _atom_site_type_symbol
 _atom_site_label
 _atom_site_symmetry_multiplicity
 _atom_site_fract_x
 _atom_site_fract_y
 _atom_site_fract_z
 _atom_site_occupancy
  V  V0  1  0.99943599  0.99935260  0.99878759  1
  V  V1  1  0.69310807  0.61924696  0.31235803  1
  V  V2  1  0.30847336  0.37985066  0.68832402  1
  V  V3  1  0.62409541  0.30265687  0.92675328  1
  Tc  Tc0  1  0.37938970  0.69497282  0.07436552  1
  As  As0  1  0.27906336  0.94166404  0.22073139  1
  As  As1  1  0.06537031  0.28205385  0.34742416  1
  As  As2  1  0.93884422  0.72119815  0.66004538  1
  As  As3  1  0.71221658  0.05899905  0.77121562  1
loop_
_geom_bond_atom_site_label_1
_geom_bond_atom_site_label_2
_geom_bond_distance
_geom_bond_site_symmetry_2
V0 V2 2.641320 1_665
V0 V2 2.641322 1_555
V0 V1 2.659820 1_666
V0 V1 2.659828 1_556
V0 V3 2.711793 1_665
V0 V3 2.711797 1_555
Tc0 V0 2.686672 1_444
Tc0 V0 2.686679 1_554
As0 V1 2.452059 1_455
As0 V1 2.452062 1_565
As0 Tc0 2.495862 1_555
As0 V3 2.518552 1_454
As0 V3 2.518559 1_564
As0 V0 2.658914 1_454
As1 V2 2.434167 1_555
As1 Tc0 2.496745 1_555
As1 Tc0 2.496751 1_445
As1 V1 2.519807 1_555
As1 V1 2.519814 1_445
As1 V0 2.713330 1_444
As2 V1 2.471423 1_555
As2 V3 2.475561 1_555
As2 V3 2.475565 1_665
As2 V2 2.508194 1_555
As2 V2 2.508200 1_665
As2 V0 2.661172 1_555
As3 V3 2.428325 1_555
As3 V2 2.495169 1_655
As3 V2 2.495169 1_545
As3 Tc0 2.570762 1_656
As3 Tc0 2.570768 1_546
As3 V0 2.731851 1_545
