# generated using pymatgen
data_Rb2Ge(WO4)3
_symmetry_space_group_name_H-M   'P 1'
_cell_length_a   7.09335999
_cell_length_b   7.09335991
_cell_length_c   7.09335987
_cell_angle_alpha   61.51349271
_cell_angle_beta   61.51349000
_cell_angle_gamma   61.51349390
_symmetry_Int_Tables_number   1
_chemical_formula_structural   Rb2Ge(WO4)3
_chemical_formula_sum   'Rb2 Ge1 W3 O12'
_cell_volume   260.94517369
_cell_formula_units_Z   1
loop_
 _symmetry_equiv_pos_site_id
 _symmetry_equiv_pos_as_xyz
  1  'x, y, z'
loop_
 _atom_site_type_symbol
 _atom_site_label
 _atom_site_symmetry_multiplicity
 _atom_site_fract_x
 _atom_site_fract_y
 _atom_site_fract_z
 _atom_site_occupancy
  Rb  Rb0  1  0.36788757  0.36788757  0.36788757  1
  Rb  Rb1  1  0.63211243  0.63211243  0.63211243  1
  Ge  Ge0  1  0.00000000  0.00000000  0.00000000  1
  W  W0  1  0.50000000  0.00000000  0.00000000  1
  W  W1  1  0.00000000  0.00000000  0.50000000  1
  W  W2  1  0.00000000  0.50000000  0.00000000  1
  O  O0  1  0.94287386  0.31515801  0.31515801  1
  O  O1  1  0.30680048  0.94052165  0.94052165  1
  O  O2  1  0.31515801  0.31515801  0.94287386  1
  O  O3  1  0.94052165  0.94052165  0.30680048  1
  O  O4  1  0.94052165  0.30680048  0.94052165  1
  O  O5  1  0.31515801  0.94287386  0.31515801  1
  O  O6  1  0.05712614  0.68484199  0.68484199  1
  O  O7  1  0.69319952  0.05947835  0.05947835  1
  O  O8  1  0.68484199  0.68484199  0.05712614  1
  O  O9  1  0.05947835  0.05947835  0.69319952  1
  O  O10  1  0.05947835  0.69319952  0.05947835  1
  O  O11  1  0.68484199  0.05712614  0.68484199  1
loop_
_geom_bond_atom_site_label_1
_geom_bond_atom_site_label_2
_geom_bond_distance
_geom_bond_site_symmetry_2
Ge0 O3 1.873545 1_445
Ge0 O9 1.873545 1_554
Ge0 O1 1.873545 1_544
Ge0 O7 1.873545 1_455
Ge0 O4 1.873545 1_454
Ge0 O10 1.873545 1_545
O0 W2 1.930699 1_655
O0 W1 1.930699 1_655
O0 Rb1 3.214853 1_555
O0 Rb0 3.413706 1_655
O1 W0 1.872687 1_566
O1 Rb1 3.135420 1_555
O2 W2 1.930699 1_556
O2 W0 1.930699 1_556
O2 Rb1 3.214853 1_555
O2 Rb0 3.413706 1_556
O3 W1 1.872687 1_665
O3 Rb1 3.135420 1_555
O4 W2 1.872687 1_656
O4 Rb1 3.135420 1_555
O5 W0 1.930699 1_565
O5 W1 1.930699 1_565
O5 Rb1 3.214853 1_555
O5 Rb0 3.413706 1_565
O6 W2 1.930699 1_556
O6 W1 1.930699 1_565
O6 Rb0 3.214853 1_555
O6 Rb1 3.413706 1_455
O7 W0 1.872687 1_555
O7 Rb0 3.135420 1_555
O8 W2 1.930699 1_655
O8 W0 1.930699 1_565
O8 Rb0 3.214853 1_555
O8 Rb1 3.413706 1_554
O9 W1 1.872687 1_555
O9 Rb0 3.135420 1_555
O10 W2 1.872687 1_555
O10 Rb0 3.135420 1_555
O11 W0 1.930699 1_556
O11 W1 1.930699 1_655
O11 Rb0 3.214853 1_555
O11 Rb1 3.413706 1_545
