# generated using pymatgen
data_CdHg2
_symmetry_space_group_name_H-M   'P 1'
_cell_length_a   4.10573000
_cell_length_b   4.10573000
_cell_length_c   5.34870366
_cell_angle_alpha   112.56964042
_cell_angle_beta   112.56964042
_cell_angle_gamma   90.00000000
_symmetry_Int_Tables_number   1
_chemical_formula_structural   CdHg2
_chemical_formula_sum   'Cd1 Hg2'
_cell_volume   75.72558885
_cell_formula_units_Z   1
loop_
 _symmetry_equiv_pos_site_id
 _symmetry_equiv_pos_as_xyz
  1  'x, y, z'
loop_
 _atom_site_type_symbol
 _atom_site_label
 _atom_site_symmetry_multiplicity
 _atom_site_fract_x
 _atom_site_fract_y
 _atom_site_fract_z
 _atom_site_occupancy
  Cd  Cd0  1  0.00000000  0.00000000  0.00000000  1
  Hg  Hg0  1  0.33328100  0.33328100  0.66656200  1
  Hg  Hg1  1  0.66671900  0.66671900  0.33343800  1
loop_
_geom_bond_atom_site_label_1
_geom_bond_atom_site_label_2
_geom_bond_distance
_geom_bond_site_symmetry_2
Cd0 Hg1 2.994349 1_444
Cd0 Hg0 2.994349 1_555
Cd0 Hg1 3.266826 1_545
Cd0 Hg0 3.266826 1_544
Cd0 Hg1 3.266826 1_455
Cd0 Hg0 3.266826 1_454
Cd0 Hg0 3.266826 1_554
Cd0 Hg1 3.266826 1_555
Cd0 Hg0 3.266826 1_444
Cd0 Hg1 3.266826 1_445
Hg0 Hg1 2.995760 1_556
Hg0 Hg1 3.266180 1_555
Hg0 Hg1 3.266180 1_545
Hg0 Hg1 3.266180 1_455
Hg0 Hg1 3.266180 1_445
