# generated using pymatgen
data_Lu12Fe2Ag2Ru
_symmetry_space_group_name_H-M   'P 1'
_cell_length_a   8.05640536
_cell_length_b   8.05640506
_cell_length_c   8.05640470
_cell_angle_alpha   108.48383648
_cell_angle_beta   108.48384608
_cell_angle_gamma   111.46456228
_symmetry_Int_Tables_number   1
_chemical_formula_structural   Lu12Fe2Ag2Ru
_chemical_formula_sum   'Lu12 Fe2 Ag2 Ru1'
_cell_volume   402.16660721
_cell_formula_units_Z   1
loop_
 _symmetry_equiv_pos_site_id
 _symmetry_equiv_pos_as_xyz
  1  'x, y, z'
loop_
 _atom_site_type_symbol
 _atom_site_label
 _atom_site_symmetry_multiplicity
 _atom_site_fract_x
 _atom_site_fract_y
 _atom_site_fract_z
 _atom_site_occupancy
  Lu  Lu0  1  0.31198344  0.31198344  0.62396787  1
  Lu  Lu1  1  0.68801656  0.68801656  0.37603213  1
  Lu  Lu2  1  0.68801656  0.31198344  1.00000000  1
  Lu  Lu3  1  0.31198344  0.68801656  0.00000000  1
  Lu  Lu4  1  0.18874507  0.43367206  0.24492698  1
  Lu  Lu5  1  0.81125493  0.56632794  0.75507302  1
  Lu  Lu6  1  0.18874507  0.94381709  0.75507302  1
  Lu  Lu7  1  0.94381709  0.18874507  0.75507302  1
  Lu  Lu8  1  0.81125493  0.05618291  0.24492698  1
  Lu  Lu9  1  0.05618291  0.81125493  0.24492698  1
  Lu  Lu10  1  0.43367206  0.18874507  0.24492698  1
  Lu  Lu11  1  0.56632794  0.81125493  0.75507302  1
  Fe  Fe0  1  0.37410919  0.37410919  0.00000000  1
  Fe  Fe1  1  0.62589081  0.62589081  1.00000000  1
  Ag  Ag0  1  0.00000000  0.50000000  0.50000000  1
  Ag  Ag1  1  0.50000000  0.00000000  0.50000000  1
  Ru  Ru0  1  0.00000000  0.00000000  0.00000000  1
loop_
_geom_bond_atom_site_label_1
_geom_bond_atom_site_label_2
_geom_bond_distance
_geom_bond_site_symmetry_2
Lu4 Ru0 2.872402 1_555
Lu5 Ru0 2.872402 1_666
Lu6 Ru0 2.872403 1_566
Lu7 Ru0 2.872403 1_656
Lu8 Ru0 2.872403 1_655
Lu9 Ru0 2.872403 1_565
Lu10 Ru0 2.872402 1_555
Lu11 Ru0 2.872402 1_666
Fe0 Fe1 2.284286 1_554
Fe0 Lu0 2.751815 1_554
Fe0 Lu1 2.751819 1_555
Fe0 Lu3 2.751823 1_555
Fe0 Lu2 2.751823 1_554
Fe0 Lu10 2.854222 1_555
Fe0 Lu4 2.854222 1_555
Fe0 Lu7 2.854228 1_454
Fe0 Lu6 2.854229 1_544
Fe1 Lu1 2.751815 1_556
Fe1 Lu0 2.751819 1_555
Fe1 Lu2 2.751823 1_555
Fe1 Lu3 2.751823 1_556
Fe1 Lu11 2.854222 1_555
Fe1 Lu5 2.854222 1_555
Fe1 Lu9 2.854228 1_656
Fe1 Lu8 2.854229 1_566
Ag0 Lu6 2.949646 1_555
Ag0 Lu8 2.949646 1_455
Ag0 Lu5 2.949652 1_455
Ag0 Lu4 2.949652 1_555
Ag0 Lu3 3.429761 1_556
Ag0 Lu2 3.429761 1_454
Ag0 Lu0 3.429763 1_555
Ag0 Lu1 3.429763 1_455
Ag0 Lu10 3.707067 1_455
Ag0 Lu11 3.707067 1_555
Ag0 Lu9 3.707067 1_555
Ag0 Lu7 3.707067 1_455
Ag1 Lu7 2.949646 1_555
Ag1 Lu9 2.949646 1_545
Ag1 Lu11 2.949652 1_545
Ag1 Lu10 2.949652 1_555
Ag1 Lu2 3.429761 1_555
Ag1 Lu3 3.429761 1_545
Ag1 Lu0 3.429763 1_555
Ag1 Lu1 3.429763 1_545
Ag1 Lu5 3.707067 1_555
Ag1 Lu4 3.707067 1_545
Ag1 Lu6 3.707067 1_545
Ag1 Lu8 3.707067 1_555
