# generated using pymatgen
data_Ru(IF)2
_symmetry_space_group_name_H-M   'P 1'
_cell_length_a   6.89223763
_cell_length_b   6.89223779
_cell_length_c   6.89223780
_cell_angle_alpha   110.06142918
_cell_angle_beta   107.39530304
_cell_angle_gamma   110.97803906
_symmetry_Int_Tables_number   1
_chemical_formula_structural   Ru(IF)2
_chemical_formula_sum   'Ru2 I4 F4'
_cell_volume   251.77005306
_cell_formula_units_Z   2
loop_
 _symmetry_equiv_pos_site_id
 _symmetry_equiv_pos_as_xyz
  1  'x, y, z'
loop_
 _atom_site_type_symbol
 _atom_site_label
 _atom_site_symmetry_multiplicity
 _atom_site_fract_x
 _atom_site_fract_y
 _atom_site_fract_z
 _atom_site_occupancy
  Ru  Ru0  1  0.00000000  0.24985999  0.24985999  1
  Ru  Ru1  1  1.00000000  0.75014001  0.75014001  1
  I  I0  1  0.76392644  0.76392644  0.00000000  1
  I  I1  1  0.23607356  0.23607356  1.00000000  1
  I  I2  1  0.76402807  0.26402807  0.50000000  1
  I  I3  1  0.23597193  0.73597193  0.50000000  1
  F  F0  1  0.76884904  0.24986786  0.01871690  1
  F  F1  1  0.23115096  0.24986786  0.48101982  1
  F  F2  1  0.76884904  0.75013214  0.51898018  1
  F  F3  1  0.23115096  0.75013214  0.98128310  1
loop_
_geom_bond_atom_site_label_1
_geom_bond_atom_site_label_2
_geom_bond_distance
_geom_bond_site_symmetry_2
I0 Ru0 2.701078 1_665
I0 Ru1 2.701078 1_554
I1 Ru1 2.701078 1_445
I1 Ru0 2.701078 1_556
I2 Ru1 2.702154 1_555
I2 Ru0 2.702154 1_655
I3 Ru0 2.702154 1_555
I3 Ru1 2.702154 1_455
F0 Ru0 1.886434 1_655
F1 Ru0 1.886438 1_555
F2 Ru1 1.886438 1_555
F3 Ru1 1.886434 1_455
