# generated using pymatgen
data_Hf8NiRh3N2
_symmetry_space_group_name_H-M   'P 1'
_cell_length_a   8.59985973
_cell_length_b   8.59985939
_cell_length_c   8.56549400
_cell_angle_alpha   60.13210772
_cell_angle_beta   60.13210902
_cell_angle_gamma   60.39932227
_symmetry_Int_Tables_number   1
_chemical_formula_structural   Hf8NiRh3N2
_chemical_formula_sum   'Hf16 Ni2 Rh6 N4'
_cell_volume   450.17693383
_cell_formula_units_Z   2
loop_
 _symmetry_equiv_pos_site_id
 _symmetry_equiv_pos_as_xyz
  1  'x, y, z'
loop_
 _atom_site_type_symbol
 _atom_site_label
 _atom_site_symmetry_multiplicity
 _atom_site_fract_x
 _atom_site_fract_y
 _atom_site_fract_z
 _atom_site_occupancy
  Hf  Hf0  1  0.13093977  0.63153497  0.61876313  1
  Hf  Hf1  1  0.63153497  0.13093977  0.61876313  1
  Hf  Hf2  1  0.61696361  0.61696361  0.15420261  1
  Hf  Hf3  1  0.61696361  0.61696361  0.61186916  1
  Hf  Hf4  1  0.81759253  0.81759253  0.18240747  1
  Hf  Hf5  1  0.18612922  0.18612922  0.81387078  1
  Hf  Hf6  1  0.81868070  0.18429129  0.81589612  1
  Hf  Hf7  1  0.18429129  0.81868070  0.18113189  1
  Hf  Hf8  1  0.18429129  0.81868070  0.81589612  1
  Hf  Hf9  1  0.81868070  0.18429129  0.18113189  1
  Hf  Hf10  1  0.43505044  0.43505044  0.06494956  1
  Hf  Hf11  1  0.06934454  0.06934454  0.43065546  1
  Hf  Hf12  1  0.43621193  0.06392884  0.43418894  1
  Hf  Hf13  1  0.06392884  0.43621193  0.06567029  1
  Hf  Hf14  1  0.06392884  0.43621193  0.43418894  1
  Hf  Hf15  1  0.43621193  0.06392884  0.06567029  1
  Ni  Ni0  1  0.79553484  0.39437669  0.40504424  1
  Ni  Ni1  1  0.39437669  0.79553484  0.40504424  1
  Rh  Rh0  1  0.40299988  0.40299988  0.77682178  1
  Rh  Rh1  1  0.40299988  0.40299988  0.41717845  1
  Rh  Rh2  1  0.49380142  0.82998199  0.83810830  1
  Rh  Rh3  1  0.82998199  0.49380142  0.83810830  1
  Rh  Rh4  1  0.83329775  0.83329775  0.48851567  1
  Rh  Rh5  1  0.83329775  0.83329775  0.84488983  1
  N  N0  1  0.62565772  0.12576564  0.12428782  1
  N  N1  1  0.12576564  0.62565772  0.12428782  1
  N  N2  1  0.12577061  0.12577061  0.62667222  1
  N  N3  1  0.12577061  0.12577061  0.12178556  1
loop_
_geom_bond_atom_site_label_1
_geom_bond_atom_site_label_2
_geom_bond_distance
_geom_bond_site_symmetry_2
Hf0 Ni1 2.631962 1_555
Hf0 Rh0 2.670525 1_555
Hf0 Rh1 2.670530 1_555
Hf0 Rh4 2.708475 1_455
Hf0 Rh5 2.708475 1_455
Hf0 Rh3 2.756895 1_455
Hf1 Ni0 2.631962 1_555
Hf1 Rh0 2.670525 1_555
Hf1 Rh1 2.670530 1_555
Hf1 Rh4 2.708475 1_545
Hf1 Rh5 2.708475 1_545
Hf1 Rh2 2.756895 1_545
Hf2 Ni0 2.631508 1_555
Hf2 Ni1 2.631508 1_555
Hf2 Rh1 2.633235 1_555
Hf2 Rh5 2.746362 1_554
Hf2 Rh2 2.794220 1_554
Hf2 Rh3 2.794220 1_554
Hf3 Ni0 2.631502 1_555
Hf3 Ni1 2.631502 1_555
Hf3 Rh0 2.633233 1_555
Hf3 Rh4 2.746367 1_555
Hf3 Rh2 2.794227 1_555
Hf3 Rh3 2.794227 1_555
Hf4 N0 2.275716 1_565
Hf4 N1 2.275716 1_655
Hf4 Rh5 2.763079 1_554
Hf4 Rh4 2.763087 1_555
Hf5 N3 2.243666 1_556
Hf5 N2 2.243674 1_555
Hf5 Rh2 2.886647 1_545
Hf5 Rh3 2.886647 1_455
Hf6 N2 2.256299 1_655
Hf6 N0 2.262816 1_556
Hf6 Rh3 2.812277 1_555
Hf6 Rh5 2.845769 1_545
Hf7 N3 2.256296 1_565
Hf7 N1 2.262821 1_555
Hf7 Rh2 2.812277 1_554
Hf7 Rh4 2.845773 1_455
Hf8 N2 2.256298 1_565
Hf8 N1 2.262816 1_556
Hf8 Rh2 2.812277 1_555
Hf8 Rh5 2.845769 1_455
Hf9 N3 2.256296 1_655
Hf9 N0 2.262821 1_555
Hf9 Rh3 2.812277 1_554
Hf9 Rh4 2.845773 1_545
Hf10 N0 2.279471 1_555
Hf10 N1 2.279471 1_555
Hf10 Rh0 2.769992 1_554
Hf10 Rh1 2.769993 1_555
Hf10 Rh2 3.116165 1_554
Hf10 Rh3 3.116166 1_554
Hf11 N2 2.268371 1_555
Hf11 N3 2.268379 1_555
Hf11 Ni0 2.609125 1_455
Hf11 Ni1 2.609125 1_545
Hf12 N0 2.264028 1_555
Hf12 N2 2.283695 1_555
Hf12 Ni1 2.646328 1_545
Hf12 Rh1 2.720506 1_555
Hf12 Rh2 3.170554 1_545
Hf13 N1 2.264022 1_555
Hf13 N3 2.283697 1_555
Hf13 Ni0 2.646328 1_455
Hf13 Rh0 2.720506 1_554
Hf13 Rh3 3.170554 1_454
Hf14 N1 2.264028 1_555
Hf14 N2 2.283694 1_555
Hf14 Ni0 2.646328 1_455
Hf14 Rh1 2.720506 1_555
Hf14 Rh3 3.170554 1_455
Hf15 N0 2.264022 1_555
Hf15 N3 2.283697 1_555
Hf15 Ni1 2.646328 1_545
Hf15 Rh0 2.720506 1_554
Hf15 Rh2 3.170554 1_544
Rh2 Rh3 2.908538 1_555
Rh2 Rh4 2.963302 1_555
Rh2 Rh5 2.963306 1_555
Rh3 Rh4 2.963302 1_555
Rh3 Rh5 2.963306 1_555
