# generated using pymatgen
data_Lu12Co4OsPb
_symmetry_space_group_name_H-M   'P 1'
_cell_length_a   8.05867567
_cell_length_b   8.05867582
_cell_length_c   8.05867514
_cell_angle_alpha   111.53241056
_cell_angle_beta   110.55059548
_cell_angle_gamma   106.37591935
_symmetry_Int_Tables_number   1
_chemical_formula_structural   Lu12Co4OsPb
_chemical_formula_sum   'Lu12 Co4 Os1 Pb1'
_cell_volume   401.96679672
_cell_formula_units_Z   1
loop_
 _symmetry_equiv_pos_site_id
 _symmetry_equiv_pos_as_xyz
  1  'x, y, z'
loop_
 _atom_site_type_symbol
 _atom_site_label
 _atom_site_symmetry_multiplicity
 _atom_site_fract_x
 _atom_site_fract_y
 _atom_site_fract_z
 _atom_site_occupancy
  Lu  Lu0  1  0.41832329  0.22057430  0.19774798  1
  Lu  Lu1  1  0.58167671  0.77942570  0.80225202  1
  Lu  Lu2  1  0.02282732  0.22057430  0.80225202  1
  Lu  Lu3  1  0.97717268  0.77942570  0.19774798  1
  Lu  Lu4  1  0.18144128  0.27768558  0.45912886  1
  Lu  Lu5  1  0.81855872  0.72231442  0.54087114  1
  Lu  Lu6  1  0.18144128  0.72231442  0.90375571  1
  Lu  Lu7  1  0.81855872  0.27768558  0.09624429  1
  Lu  Lu8  1  0.31137767  0.61755262  0.30617495  1
  Lu  Lu9  1  0.68862233  0.38244738  0.69382505  1
  Lu  Lu10  1  0.31137767  0.00520273  0.69382505  1
  Lu  Lu11  1  0.68862233  0.99479727  0.30617495  1
  Co  Co0  1  0.37826201  0.00000000  0.37826201  1
  Co  Co1  1  0.62173799  1.00000000  0.62173799  1
  Co  Co2  1  0.11108736  0.61108736  0.50000000  1
  Co  Co3  1  0.88891264  0.38891264  0.50000000  1
  Os  Os0  1  0.00000000  0.00000000  0.00000000  1
  Pb  Pb0  1  0.50000000  0.50000000  0.00000000  1
loop_
_geom_bond_atom_site_label_1
_geom_bond_atom_site_label_2
_geom_bond_distance
_geom_bond_site_symmetry_2
Lu0 Os0 2.798890 1_555
Lu0 Pb0 3.252404 1_555
Lu1 Os0 2.798890 1_666
Lu1 Pb0 3.252404 1_556
Lu2 Os0 2.798884 1_556
Lu2 Pb0 3.252399 1_556
Lu3 Os0 2.798884 1_665
Lu3 Pb0 3.252399 1_555
Lu4 Os0 3.019008 1_555
Lu4 Pb0 3.552038 1_556
Lu5 Os0 3.019008 1_666
Lu5 Pb0 3.552038 1_555
Lu6 Os0 3.018996 1_566
Lu6 Pb0 3.552051 1_556
Lu7 Os0 3.018996 1_655
Lu7 Pb0 3.552051 1_555
Lu8 Pb0 3.320415 1_555
Lu9 Pb0 3.320415 1_556
Lu10 Pb0 3.320414 1_556
Lu11 Pb0 3.320414 1_555
Co0 Co1 2.235350 1_545
Co0 Lu0 2.698939 1_555
Co0 Lu3 2.698944 1_445
Co0 Lu9 2.766952 1_555
Co0 Lu10 2.766952 1_555
Co0 Lu11 2.766952 1_545
Co0 Lu8 2.766952 1_545
Co0 Lu6 3.099143 1_544
Co0 Lu4 3.099146 1_555
Co1 Lu1 2.698939 1_555
Co1 Lu2 2.698944 1_665
Co1 Lu8 2.766952 1_555
Co1 Lu11 2.766952 1_555
Co1 Lu10 2.766952 1_565
Co1 Lu9 2.766952 1_565
Co1 Lu7 3.099143 1_566
Co1 Lu5 3.099146 1_555
Co2 Co3 2.145627 1_455
Co2 Lu10 2.613435 1_565
Co2 Lu8 2.613435 1_555
Co2 Lu5 2.826502 1_455
Co2 Lu7 2.826507 1_455
Co2 Lu6 2.826507 1_555
Co2 Lu4 2.826510 1_555
Co2 Lu1 3.216109 1_555
Co2 Lu3 3.216117 1_455
Co3 Lu11 2.613435 1_545
Co3 Lu9 2.613435 1_555
Co3 Lu4 2.826502 1_655
Co3 Lu6 2.826507 1_655
Co3 Lu7 2.826507 1_555
Co3 Lu5 2.826510 1_555
Co3 Lu0 3.216109 1_555
Co3 Lu2 3.216117 1_655
