# generated using pymatgen
data_CsRb5(AlAs2)2
_symmetry_space_group_name_H-M   'P 1'
_cell_length_a   9.32657261
_cell_length_b   9.32657244
_cell_length_c   9.21925056
_cell_angle_alpha   127.64082735
_cell_angle_beta   69.90272673
_cell_angle_gamma   137.38999195
_symmetry_Int_Tables_number   1
_chemical_formula_structural   CsRb5(AlAs2)2
_chemical_formula_sum   'Cs1 Rb5 Al2 As4'
_cell_volume   421.44507411
_cell_formula_units_Z   1
loop_
 _symmetry_equiv_pos_site_id
 _symmetry_equiv_pos_as_xyz
  1  'x, y, z'
loop_
 _atom_site_type_symbol
 _atom_site_label
 _atom_site_symmetry_multiplicity
 _atom_site_fract_x
 _atom_site_fract_y
 _atom_site_fract_z
 _atom_site_occupancy
  Cs  Cs0  1  0.82078981  0.21984919  0.04063800  1
  Rb  Rb0  1  0.67907306  0.70674570  0.38581776  1
  Rb  Rb1  1  0.75152309  0.24905743  0.49969421  1
  Rb  Rb2  1  0.25063878  0.74817212  0.49969421  1
  Rb  Rb3  1  0.32170943  0.28968281  0.61139324  1
  Rb  Rb4  1  0.17821208  0.79533794  0.97355001  1
  Al  Al0  1  0.24945501  0.24846230  0.99836016  1
  Al  Al1  1  0.74989986  0.74890715  0.99836016  1
  As  As0  1  0.41429620  0.66801914  0.08231735  1
  As  As1  1  0.08767062  0.16942093  0.25709155  1
  As  As2  1  0.91357550  0.82662562  0.74020112  1
  As  As3  1  0.58315857  0.32972366  0.91288123  1
loop_
_geom_bond_atom_site_label_1
_geom_bond_atom_site_label_2
_geom_bond_distance
_geom_bond_site_symmetry_2
Al0 As3 2.540437 1_555
Al0 As2 2.549879 1_445
Al0 As0 2.556901 1_556
Al0 As1 2.558690 1_556
Al0 Rb3 3.601525 1_555
Al0 Rb0 3.614183 1_556
Al1 As3 2.540441 1_555
Al1 As2 2.549870 1_555
Al1 As0 2.556919 1_556
Al1 As1 2.558681 1_666
Al1 Rb3 3.601535 1_555
Al1 Rb0 3.614186 1_556
As0 Rb3 3.380167 1_554
As0 Rb2 3.438720 1_555
As0 Rb1 3.438733 1_565
As0 Cs0 3.701680 1_455
As0 Cs0 3.701698 1_565
As0 Rb4 3.752865 1_554
As1 Rb4 3.376229 1_544
As1 Rb2 3.458699 1_555
As1 Rb1 3.458700 1_455
As1 Rb0 3.673288 1_445
As1 Rb0 3.673294 1_555
As1 Rb3 3.676017 1_555
As2 Rb1 3.456608 1_555
As2 Rb2 3.456619 1_655
As2 Cs0 3.533805 1_566
As2 Rb3 3.675710 1_665
As2 Rb3 3.675717 1_555
As2 Rb0 3.682022 1_555
As3 Rb0 3.391084 1_556
As3 Rb2 3.416153 1_545
As3 Rb1 3.416154 1_555
As3 Rb4 3.696332 1_655
As3 Rb4 3.696338 1_545
As3 Cs0 3.736374 1_556
