# generated using pymatgen
data_BaSn2Rh3
_symmetry_space_group_name_H-M   'P 1'
_cell_length_a   6.06420450
_cell_length_b   6.06420389
_cell_length_c   3.99808885
_cell_angle_alpha   90.00000000
_cell_angle_beta   90.00000000
_cell_angle_gamma   119.99999799
_symmetry_Int_Tables_number   1
_chemical_formula_structural   BaSn2Rh3
_chemical_formula_sum   'Ba1 Sn2 Rh3'
_cell_volume   127.32999272
_cell_formula_units_Z   1
loop_
 _symmetry_equiv_pos_site_id
 _symmetry_equiv_pos_as_xyz
  1  'x, y, z'
loop_
 _atom_site_type_symbol
 _atom_site_label
 _atom_site_symmetry_multiplicity
 _atom_site_fract_x
 _atom_site_fract_y
 _atom_site_fract_z
 _atom_site_occupancy
  Ba  Ba0  1  0.00000000  0.00000000  0.00000000  1
  Sn  Sn0  1  0.66666600  0.33333300  0.00000000  1
  Sn  Sn1  1  0.33333300  0.66666600  0.00000000  1
  Rh  Rh0  1  0.49999900  0.00000000  0.50000100  1
  Rh  Rh1  1  0.00000000  0.50000100  0.50000100  1
  Rh  Rh2  1  0.50000100  0.50000100  0.50000100  1
loop_
_geom_bond_atom_site_label_1
_geom_bond_atom_site_label_2
_geom_bond_distance
_geom_bond_site_symmetry_2
Ba0 Sn1 3.501166 1_555
Ba0 Sn0 3.501167 1_555
Ba0 Sn0 3.501172 1_445
Ba0 Sn1 3.501172 1_545
Ba0 Sn0 3.501172 1_455
Ba0 Sn1 3.501172 1_445
Ba0 Rh1 3.631772 1_544
Ba0 Rh2 3.631772 1_444
Ba0 Rh0 3.631772 1_554
Ba0 Rh1 3.631776 1_545
Ba0 Rh2 3.631777 1_445
Ba0 Rh0 3.631777 1_555
Ba0 Rh1 3.631782 1_554
Ba0 Rh2 3.631782 1_554
Ba0 Rh0 3.631782 1_454
Ba0 Rh1 3.631787 1_555
Ba0 Rh2 3.631787 1_555
Ba0 Rh0 3.631787 1_455
Rh0 Sn0 2.657199 1_556
Rh0 Sn1 2.657202 1_546
Rh0 Sn0 2.657205 1_555
Rh0 Sn1 2.657208 1_545
Rh1 Sn1 2.657199 1_556
Rh1 Sn0 2.657202 1_456
Rh1 Sn1 2.657205 1_555
Rh1 Sn0 2.657208 1_455
Rh2 Sn0 2.657199 1_556
Rh2 Sn1 2.657199 1_556
Rh2 Sn0 2.657205 1_555
Rh2 Sn1 2.657205 1_555
