# generated using pymatgen
data_Lu2MnFeCl2
_symmetry_space_group_name_H-M   'P 1'
_cell_length_a   3.66702769
_cell_length_b   3.66702752
_cell_length_c   11.16093196
_cell_angle_alpha   90.00000000
_cell_angle_beta   90.00000000
_cell_angle_gamma   120.00001025
_symmetry_Int_Tables_number   1
_chemical_formula_structural   Lu2MnFeCl2
_chemical_formula_sum   'Lu2 Mn1 Fe1 Cl2'
_cell_volume   129.97487441
_cell_formula_units_Z   1
loop_
 _symmetry_equiv_pos_site_id
 _symmetry_equiv_pos_as_xyz
  1  'x, y, z'
loop_
 _atom_site_type_symbol
 _atom_site_label
 _atom_site_symmetry_multiplicity
 _atom_site_fract_x
 _atom_site_fract_y
 _atom_site_fract_z
 _atom_site_occupancy
  Lu  Lu0  1  0.00000000  0.00000000  0.18216314  1
  Lu  Lu1  1  0.00000000  0.00000000  0.81879151  1
  Mn  Mn0  1  0.66666600  0.33333400  0.01211122  1
  Fe  Fe0  1  0.33333400  0.66666700  0.98626879  1
  Cl  Cl0  1  0.33333400  0.66666700  0.33534330  1
  Cl  Cl1  1  0.66666600  0.33333400  0.66532305  1
loop_
_geom_bond_atom_site_label_1
_geom_bond_atom_site_label_2
_geom_bond_distance
_geom_bond_site_symmetry_2
Fe0 Mn0 2.136710 1_556
Fe0 Mn0 2.136716 1_566
Fe0 Mn0 2.136720 1_456
Cl0 Lu0 2.721250 1_665
Cl0 Lu0 2.721252 1_555
Cl0 Lu0 2.721252 1_565
Cl1 Lu1 2.723272 1_665
Cl1 Lu1 2.723272 1_555
Cl1 Lu1 2.723278 1_655
