# generated using pymatgen
data_Rb3H6Ir
_symmetry_space_group_name_H-M   'P 1'
_cell_length_a   6.14938026
_cell_length_b   6.14937942
_cell_length_c   6.14938129
_cell_angle_alpha   60.00000044
_cell_angle_beta   60.00000496
_cell_angle_gamma   59.99999576
_symmetry_Int_Tables_number   1
_chemical_formula_structural   Rb3H6Ir
_chemical_formula_sum   'Rb3 H6 Ir1'
_cell_volume   164.42924687
_cell_formula_units_Z   1
loop_
 _symmetry_equiv_pos_site_id
 _symmetry_equiv_pos_as_xyz
  1  'x, y, z'
loop_
 _atom_site_type_symbol
 _atom_site_label
 _atom_site_symmetry_multiplicity
 _atom_site_fract_x
 _atom_site_fract_y
 _atom_site_fract_z
 _atom_site_occupancy
  Rb  Rb0  1  0.25000000  0.25000000  0.25000000  1
  Rb  Rb1  1  0.75000000  0.75000000  0.75000000  1
  Rb  Rb2  1  0.00000000  0.00000000  0.00000000  1
  H  H0  1  0.30703972  0.69296028  0.69296028  1
  H  H1  1  0.30703972  0.69296028  0.30703972  1
  H  H2  1  0.69296028  0.30703972  0.69296028  1
  H  H3  1  0.69296028  0.69296028  0.30703972  1
  H  H4  1  0.30703972  0.30703972  0.69296028  1
  H  H5  1  0.69296028  0.30703972  0.30703972  1
  Ir  Ir0  1  0.50000000  0.50000000  0.50000000  1
loop_
_geom_bond_atom_site_label_1
_geom_bond_atom_site_label_2
_geom_bond_distance
_geom_bond_site_symmetry_2
H0 Ir0 1.678086 1_555
H0 Rb2 2.670182 1_566
H0 Rb0 3.114447 1_565
H0 Rb1 3.114447 1_455
H0 Rb1 3.114447 1_555
H0 Rb0 3.114448 1_556
H1 Ir0 1.678086 1_555
H1 Rb2 2.670182 1_565
H1 Rb0 3.114447 1_565
H1 Rb0 3.114447 1_555
H1 Rb1 3.114448 1_455
H1 Rb1 3.114448 1_554
H2 Ir0 1.678086 1_555
H2 Rb2 2.670182 1_656
H2 Rb1 3.114447 1_545
H2 Rb1 3.114447 1_555
H2 Rb0 3.114448 1_655
H2 Rb0 3.114448 1_556
H3 Ir0 1.678086 1_555
H3 Rb2 2.670182 1_665
H3 Rb0 3.114447 1_565
H3 Rb0 3.114447 1_655
H3 Rb1 3.114448 1_555
H3 Rb1 3.114448 1_554
H4 Ir0 1.678086 1_555
H4 Rb2 2.670182 1_556
H4 Rb1 3.114447 1_545
H4 Rb1 3.114447 1_455
H4 Rb0 3.114448 1_555
H4 Rb0 3.114448 1_556
H5 Ir0 1.678086 1_555
H5 Rb2 2.670182 1_655
H5 Rb1 3.114447 1_545
H5 Rb0 3.114447 1_655
H5 Rb0 3.114447 1_555
H5 Rb1 3.114448 1_554
