# generated using pymatgen
data_Zr6Zn5PtN2
_symmetry_space_group_name_H-M   'P 1'
_cell_length_a   8.54298395
_cell_length_b   8.54300318
_cell_length_c   8.49178818
_cell_angle_alpha   60.19809584
_cell_angle_beta   60.19784024
_cell_angle_gamma   60.35207112
_symmetry_Int_Tables_number   1
_chemical_formula_structural   Zr6Zn5PtN2
_chemical_formula_sum   'Zr12 Zn10 Pt2 N4'
_cell_volume   440.70354768
_cell_formula_units_Z   2
loop_
 _symmetry_equiv_pos_site_id
 _symmetry_equiv_pos_as_xyz
  1  'x, y, z'
loop_
 _atom_site_type_symbol
 _atom_site_label
 _atom_site_symmetry_multiplicity
 _atom_site_fract_x
 _atom_site_fract_y
 _atom_site_fract_z
 _atom_site_occupancy
  Zr  Zr0  1  0.81120546  0.18430053  0.19335368  1
  Zr  Zr1  1  0.18430053  0.81120446  0.19335368  1
  Zr  Zr2  1  0.81077755  0.81077755  0.18922345  1
  Zr  Zr3  1  0.18430153  0.81120446  0.81114133  1
  Zr  Zr4  1  0.81120246  0.18430053  0.81114333  1
  Zr  Zr5  1  0.19111502  0.19111402  0.80888798  1
  Zr  Zr6  1  0.43879454  0.06569947  0.05664632  1
  Zr  Zr7  1  0.06569947  0.43879554  0.05664632  1
  Zr  Zr8  1  0.43922245  0.43922245  0.06077655  1
  Zr  Zr9  1  0.06569847  0.43879554  0.43885867  1
  Zr  Zr10  1  0.43879754  0.06569947  0.43885667  1
  Zr  Zr11  1  0.05888498  0.05888598  0.44111202  1
  Zn  Zn0  1  0.42113901  0.42114101  0.74024496  1
  Zn  Zn1  1  0.42114201  0.42114201  0.41747402  1
  Zn  Zn2  1  0.74480025  0.41999576  0.41760099  1
  Zn  Zn3  1  0.41999576  0.74480125  0.41760099  1
  Zn  Zn4  1  0.82886099  0.82885899  0.50975504  1
  Zn  Zn5  1  0.82885799  0.82885799  0.83252598  1
  Zn  Zn6  1  0.50519975  0.83000424  0.83239901  1
  Zn  Zn7  1  0.83000424  0.50519875  0.83239901  1
  Zn  Zn8  1  0.62500000  0.62500000  0.12500000  1
  Zn  Zn9  1  0.62500000  0.62500000  0.62500000  1
  Pt  Pt0  1  0.12500000  0.62500000  0.62500000  1
  Pt  Pt1  1  0.62500000  0.12500000  0.62500000  1
  N  N0  1  0.12500000  0.12500000  0.62500000  1
  N  N1  1  0.12500000  0.12500000  0.12500000  1
  N  N2  1  0.62500000  0.12500000  0.12500000  1
  N  N3  1  0.12500000  0.62500000  0.12500000  1
loop_
_geom_bond_atom_site_label_1
_geom_bond_atom_site_label_2
_geom_bond_distance
_geom_bond_site_symmetry_2
Zn0 Zn9 2.576106 1_555
Zn0 Zn1 2.740885 1_555
Zn0 Zn2 2.760737 1_555
Zn0 Zn3 2.760747 1_555
Zn0 Zr7 2.881343 1_556
Zn0 Zr6 2.881368 1_556
Zn0 Zr8 2.883732 1_556
Zn0 Zr5 3.099407 1_555
Zn0 Zr3 3.110219 1_555
Zn0 Zr4 3.110224 1_555
Zn1 Zn8 2.576082 1_555
Zn1 Zn2 2.760711 1_555
Zn1 Zn3 2.760726 1_555
Zn1 Zr10 2.881384 1_555
Zn1 Zr9 2.881385 1_555
Zn1 Zr8 2.883754 1_555
Zn1 Zr5 3.099438 1_555
Zn1 Zr0 3.110216 1_555
Zn1 Zr1 3.110227 1_555
Zn2 Zn8 2.591791 1_555
Zn2 Zn9 2.591800 1_555
Zn2 Zn3 2.789560 1_555
Zn2 Zr11 2.913318 1_655
Zn2 Zr7 2.920629 1_655
Zn2 Zr9 2.920639 1_655
Zn2 Zr2 3.092488 1_555
Zn2 Zr0 3.099970 1_555
Zn2 Zr4 3.099997 1_555
Zn3 Zn8 2.591786 1_555
Zn3 Zn9 2.591801 1_555
Zn3 Zr11 2.913320 1_565
Zn3 Zr6 2.920638 1_565
Zn3 Zr10 2.920644 1_565
Zn3 Zr2 3.092472 1_555
Zn3 Zr3 3.099976 1_555
Zn3 Zr1 3.099979 1_555
Zn4 Zn9 2.576106 1_555
Zn4 Zn5 2.740885 1_555
Zn4 Zn6 2.760737 1_555
Zn4 Zn7 2.760747 1_555
Zn4 Zr1 2.881343 1_655
Zn4 Zr0 2.881368 1_565
Zn4 Zr2 2.883732 1_555
Zn4 Zr11 3.099407 1_665
Zn4 Zr9 3.110219 1_655
Zn4 Zr10 3.110224 1_565
Zn5 Zn8 2.576082 1_556
Zn5 Zn6 2.760711 1_555
Zn5 Zn7 2.760726 1_555
Zn5 Zr4 2.881384 1_565
Zn5 Zr3 2.881385 1_655
Zn5 Zr2 2.883754 1_556
Zn5 Zr11 3.099438 1_665
Zn5 Zr6 3.110216 1_566
Zn5 Zr7 3.110227 1_656
Zn6 Zn8 2.591791 1_556
Zn6 Zn9 2.591800 1_555
Zn6 Zn7 2.789560 1_555
Zn6 Zr5 2.913318 1_565
Zn6 Zr1 2.920629 1_556
Zn6 Zr3 2.920639 1_555
Zn6 Zr8 3.092488 1_556
Zn6 Zr6 3.099970 1_566
Zn6 Zr10 3.099997 1_565
Zn7 Zn8 2.591786 1_556
Zn7 Zn9 2.591801 1_555
Zn7 Zr5 2.913320 1_655
Zn7 Zr0 2.920638 1_556
Zn7 Zr4 2.920644 1_555
Zn7 Zr8 3.092472 1_556
Zn7 Zr9 3.099976 1_655
Zn7 Zr7 3.099979 1_656
Zn8 Zr2 3.089975 1_555
Zn8 Zr8 3.089975 1_555
Zn8 Zr7 3.140418 1_655
Zn8 Zr1 3.140418 1_555
Zn8 Zr6 3.140429 1_565
Zn8 Zr0 3.140429 1_555
Zn9 Zr8 3.089956 1_556
Zn9 Zr2 3.089956 1_555
Zn9 Zr9 3.140409 1_655
Zn9 Zr3 3.140409 1_555
Zn9 Zr10 3.140430 1_565
Zn9 Zr4 3.140430 1_555
Pt0 Zn0 2.607508 1_555
Pt0 Zn4 2.607508 1_455
Pt0 Zn1 2.607508 1_555
Pt0 Zn5 2.607508 1_455
Pt0 Zn3 2.616979 1_555
Pt0 Zn7 2.616979 1_455
Pt0 Zr7 3.062395 1_556
Pt0 Zr1 3.062395 1_555
Pt0 Zr3 3.062404 1_555
Pt0 Zr9 3.062404 1_555
Pt0 Zr11 3.090137 1_565
Pt0 Zr5 3.090137 1_555
Pt1 Zn5 2.607519 1_545
Pt1 Zn1 2.607519 1_555
Pt1 Zn0 2.607520 1_555
Pt1 Zn4 2.607520 1_545
Pt1 Zn2 2.616981 1_555
Pt1 Zn6 2.616981 1_545
Pt1 Zr6 3.062390 1_556
Pt1 Zr0 3.062390 1_555
Pt1 Zr4 3.062398 1_555
Pt1 Zr10 3.062398 1_555
Pt1 Zr11 3.090115 1_655
Pt1 Zr5 3.090115 1_555
N0 Zr5 2.268357 1_555
N0 Zr11 2.268357 1_555
N0 Zr9 2.276403 1_555
N0 Zr3 2.276403 1_545
N0 Zr10 2.276406 1_555
N0 Zr4 2.276406 1_455
N1 Zr11 2.268314 1_555
N1 Zr5 2.268314 1_554
N1 Zr6 2.276385 1_555
N1 Zr0 2.276385 1_455
N1 Zr7 2.276402 1_555
N1 Zr1 2.276402 1_545
N2 Zr10 2.265239 1_555
N2 Zr4 2.265239 1_554
N2 Zr0 2.265270 1_555
N2 Zr6 2.265270 1_555
N2 Zr8 2.283089 1_555
N2 Zr2 2.283089 1_545
N3 Zr3 2.265261 1_554
N3 Zr9 2.265261 1_555
N3 Zr1 2.265264 1_555
N3 Zr7 2.265264 1_555
N3 Zr8 2.283082 1_555
N3 Zr2 2.283082 1_455
