# generated using pymatgen
data_Hf2CoP2Ir
_symmetry_space_group_name_H-M   'P 1'
_cell_length_a   3.71593730
_cell_length_b   6.36601688
_cell_length_c   7.22085238
_cell_angle_alpha   90.00000000
_cell_angle_beta   90.00000000
_cell_angle_gamma   90.00000000
_symmetry_Int_Tables_number   1
_chemical_formula_structural   Hf2CoP2Ir
_chemical_formula_sum   'Hf4 Co2 P4 Ir2'
_cell_volume   170.81445899
_cell_formula_units_Z   2
loop_
 _symmetry_equiv_pos_site_id
 _symmetry_equiv_pos_as_xyz
  1  'x, y, z'
loop_
 _atom_site_type_symbol
 _atom_site_label
 _atom_site_symmetry_multiplicity
 _atom_site_fract_x
 _atom_site_fract_y
 _atom_site_fract_z
 _atom_site_occupancy
  Hf  Hf0  1  0.25000000  0.02394955  0.81522718  1
  Hf  Hf1  1  0.25000000  0.52394955  0.68477282  1
  Hf  Hf2  1  0.75000000  0.97441998  0.17455018  1
  Hf  Hf3  1  0.75000000  0.47441998  0.32544982  1
  Co  Co0  1  0.75000000  0.85491408  0.55860149  1
  Co  Co1  1  0.75000000  0.35491408  0.94139851  1
  P  P0  1  0.25000000  0.76586200  0.39155231  1
  P  P1  1  0.25000000  0.26586200  0.10844769  1
  P  P2  1  0.75000000  0.23804163  0.63520524  1
  P  P3  1  0.75000000  0.73804163  0.86479476  1
  Ir  Ir0  1  0.25000000  0.14281175  0.43220754  1
  Ir  Ir1  1  0.25000000  0.64281175  0.06779246  1
loop_
_geom_bond_atom_site_label_1
_geom_bond_atom_site_label_2
_geom_bond_distance
_geom_bond_site_symmetry_2
Hf0 P1 2.618134 1_556
Hf0 P3 2.625433 1_445
Hf0 P3 2.625433 1_545
Hf0 P2 2.645629 1_555
Hf0 P2 2.645629 1_455
Hf0 Ir0 2.867371 1_555
Hf0 Ir1 3.035307 1_546
Hf1 P0 2.618134 1_555
Hf1 P2 2.625433 1_555
Hf1 P2 2.625433 1_455
Hf1 P3 2.645629 1_555
Hf1 P3 2.645629 1_455
Hf1 Ir1 2.867371 1_556
Hf1 Ir0 3.035307 1_555
Hf2 P1 2.668728 1_565
Hf2 P1 2.668728 1_665
Hf2 P3 2.695776 1_554
Hf2 P0 2.769493 1_555
Hf2 P0 2.769493 1_655
Hf2 Ir0 2.839486 1_665
Hf2 Ir0 2.839486 1_565
Hf2 Ir1 2.915944 1_655
Hf2 Ir1 2.915944 1_555
Hf3 P0 2.668728 1_555
Hf3 P0 2.668728 1_655
Hf3 P2 2.695776 1_555
Hf3 P1 2.769493 1_655
Hf3 P1 2.769493 1_555
Hf3 Ir1 2.839486 1_655
Hf3 Ir1 2.839486 1_555
Hf3 Ir0 2.915944 1_655
Hf3 Ir0 2.915944 1_555
Co0 P0 2.286578 1_555
Co0 P0 2.286578 1_655
Co0 P3 2.332803 1_555
Co0 P2 2.500934 1_565
Co0 Ir0 2.764784 1_565
Co0 Ir0 2.764784 1_665
Co0 Hf0 2.836163 1_565
Co0 Hf0 2.836163 1_665
Co0 Hf2 2.875638 1_555
Co0 Hf3 2.949841 1_555
Co0 Hf1 2.953172 1_655
Co0 Hf1 2.953172 1_555
Co1 P1 2.286578 1_556
Co1 P1 2.286578 1_656
Co1 P2 2.332803 1_555
Co1 P3 2.500934 1_555
Co1 Ir1 2.764784 1_556
Co1 Ir1 2.764784 1_656
Co1 Hf1 2.836163 1_655
Co1 Hf1 2.836163 1_555
Co1 Hf3 2.875638 1_556
Co1 Hf2 2.949841 1_546
Co1 Hf0 2.953172 1_655
Co1 Hf0 2.953172 1_555
Ir0 P0 2.417559 1_545
Ir0 P2 2.442987 1_555
Ir0 P2 2.442987 1_455
Ir0 P1 2.465570 1_555
Ir1 P1 2.417559 1_555
Ir1 P3 2.442987 1_554
Ir1 P3 2.442987 1_454
Ir1 P0 2.465570 1_555
