# generated using pymatgen
data_Zr10Ga3Ge3S
_symmetry_space_group_name_H-M   'P 1'
_cell_length_a   8.15825189
_cell_length_b   8.15825384
_cell_length_c   5.72912269
_cell_angle_alpha   90.00000000
_cell_angle_beta   90.00000000
_cell_angle_gamma   120.00000810
_symmetry_Int_Tables_number   1
_chemical_formula_structural   Zr10Ga3Ge3S
_chemical_formula_sum   'Zr10 Ga3 Ge3 S1'
_cell_volume   330.22735291
_cell_formula_units_Z   1
loop_
 _symmetry_equiv_pos_site_id
 _symmetry_equiv_pos_as_xyz
  1  'x, y, z'
loop_
 _atom_site_type_symbol
 _atom_site_label
 _atom_site_symmetry_multiplicity
 _atom_site_fract_x
 _atom_site_fract_y
 _atom_site_fract_z
 _atom_site_occupancy
  Zr  Zr0  1  0.00000000  0.74694128  0.23982097  1
  Zr  Zr1  1  0.25305872  0.25305872  0.23982097  1
  Zr  Zr2  1  0.74694128  0.00000000  0.23982097  1
  Zr  Zr3  1  0.00000000  0.25431603  0.76005543  1
  Zr  Zr4  1  0.74568397  0.74568397  0.76005543  1
  Zr  Zr5  1  0.25431603  0.00000000  0.76005543  1
  Zr  Zr6  1  0.33333300  0.66666700  0.49978115  1
  Zr  Zr7  1  0.66666700  0.33333300  0.49978115  1
  Zr  Zr8  1  0.66666700  0.33333300  0.99920474  1
  Zr  Zr9  1  0.33333300  0.66666700  0.99920474  1
  Ga  Ga0  1  0.00000000  0.60878378  0.75155602  1
  Ga  Ga1  1  0.39121622  0.39121622  0.75155602  1
  Ga  Ga2  1  0.60878378  0.00000000  0.75155602  1
  Ge  Ge0  1  0.00000000  0.39166879  0.24855802  1
  Ge  Ge1  1  0.60833121  0.60833121  0.24855802  1
  Ge  Ge2  1  0.39166879  1.00000000  0.24855802  1
  S  S0  1  0.00000000  0.00000000  0.50205689  1
loop_
_geom_bond_atom_site_label_1
_geom_bond_atom_site_label_2
_geom_bond_distance
_geom_bond_site_symmetry_2
Ga0 Zr5 2.805654 1_565
Ga0 Zr4 2.805654 1_455
Ga0 Zr9 2.889127 1_555
Ga0 Zr8 2.889130 1_455
Ga0 Zr3 2.892248 1_555
Ga0 Zr6 2.900809 1_555
Ga0 Zr7 2.900812 1_455
Ga0 Zr0 3.015868 1_556
Ga0 Zr0 3.140990 1_555
Ga1 Zr3 2.805654 1_555
Ga1 Zr5 2.805655 1_555
Ga1 Zr8 2.889134 1_555
Ga1 Zr9 2.889135 1_555
Ga1 Zr4 2.892247 1_555
Ga1 Zr7 2.900816 1_555
Ga1 Zr6 2.900817 1_555
Ga1 Zr1 3.015868 1_556
Ga1 Zr1 3.140990 1_555
Ga2 Zr3 2.805654 1_655
Ga2 Zr4 2.805655 1_545
Ga2 Zr8 2.889128 1_555
Ga2 Zr9 2.889130 1_545
Ga2 Zr5 2.892247 1_555
Ga2 Zr7 2.900810 1_555
Ga2 Zr6 2.900812 1_545
Ga2 Zr2 3.015868 1_556
Ga2 Zr2 3.140990 1_555
Ge0 Zr2 2.806790 1_455
Ge0 Zr1 2.806790 1_555
Ge0 Zr8 2.892805 1_454
Ge0 Zr9 2.892808 1_554
Ge0 Zr7 2.898111 1_455
Ge0 Zr6 2.898113 1_555
Ge0 Zr0 2.898835 1_555
Ge0 Zr3 3.014685 1_554
Ge0 Zr3 3.137368 1_555
Ge1 Zr0 2.806789 1_655
Ge1 Zr2 2.806790 1_565
Ge1 Zr9 2.892813 1_554
Ge1 Zr8 2.892813 1_554
Ge1 Zr6 2.898118 1_555
Ge1 Zr7 2.898118 1_555
Ge1 Zr1 2.898835 1_555
Ge1 Zr4 3.014685 1_554
Ge1 Zr4 3.137368 1_555
Ge2 Zr0 2.806789 1_555
Ge2 Zr1 2.806790 1_565
Ge2 Zr9 2.892806 1_554
Ge2 Zr8 2.892808 1_564
Ge2 Zr6 2.898111 1_555
Ge2 Zr7 2.898113 1_565
Ge2 Zr2 2.898835 1_565
Ge2 Zr5 3.014685 1_564
Ge2 Zr5 3.137368 1_565
S0 Zr4 2.547446 1_445
S0 Zr5 2.547446 1_555
S0 Zr3 2.547447 1_555
S0 Zr1 2.553308 1_555
S0 Zr2 2.553308 1_455
S0 Zr0 2.553308 1_545
