# generated using pymatgen
data_Sr3TaAl3(SiO7)2
_symmetry_space_group_name_H-M   'P 1'
_cell_length_a   8.24214407
_cell_length_b   8.24214503
_cell_length_c   5.00496125
_cell_angle_alpha   90.00000000
_cell_angle_beta   90.00000000
_cell_angle_gamma   120.00000394
_symmetry_Int_Tables_number   1
_chemical_formula_structural   Sr3TaAl3(SiO7)2
_chemical_formula_sum   'Sr3 Ta1 Al3 Si2 O14'
_cell_volume   294.45015534
_cell_formula_units_Z   1
loop_
 _symmetry_equiv_pos_site_id
 _symmetry_equiv_pos_as_xyz
  1  'x, y, z'
loop_
 _atom_site_type_symbol
 _atom_site_label
 _atom_site_symmetry_multiplicity
 _atom_site_fract_x
 _atom_site_fract_y
 _atom_site_fract_z
 _atom_site_occupancy
  Sr  Sr0  1  0.42618035  0.00000000  0.00000000  1
  Sr  Sr1  1  0.57381965  0.57381965  0.00000000  1
  Sr  Sr2  1  0.00000000  0.42618035  0.00000000  1
  Ta  Ta0  1  0.00000000  0.00000000  0.00000000  1
  Al  Al0  1  0.74139054  1.00000000  0.50000000  1
  Al  Al1  1  0.25860946  0.25860946  0.50000000  1
  Al  Al2  1  1.00000000  0.74139054  0.50000000  1
  Si  Si0  1  0.66666700  0.33333300  0.52870095  1
  Si  Si1  1  0.33333300  0.66666700  0.47129905  1
  O  O0  1  0.66666700  0.33333300  0.20929245  1
  O  O1  1  0.33333300  0.66666700  0.79070755  1
  O  O2  1  0.16483427  0.69340651  0.34190157  1
  O  O3  1  0.52857224  0.83516573  0.34190157  1
  O  O4  1  0.30659349  0.47142776  0.34190157  1
  O  O5  1  0.83516573  0.52857224  0.65809843  1
  O  O6  1  0.69340651  0.16483427  0.65809843  1
  O  O7  1  0.47142776  0.30659349  0.65809843  1
  O  O8  1  0.11954317  0.89629114  0.76356565  1
  O  O9  1  0.77674697  0.88045683  0.76356565  1
  O  O10  1  0.10370886  0.22325303  0.76356565  1
  O  O11  1  0.88045683  0.77674697  0.23643435  1
  O  O12  1  0.89629114  0.11954317  0.23643435  1
  O  O13  1  0.22325303  0.10370886  0.23643435  1
loop_
_geom_bond_atom_site_label_1
_geom_bond_atom_site_label_2
_geom_bond_distance
_geom_bond_site_symmetry_2
Al0 O9 1.755838 1_555
Al0 O12 1.755842 1_565
Al0 O3 1.779214 1_555
Al0 O6 1.779214 1_565
Al1 O10 1.755843 1_555
Al1 O13 1.755844 1_555
Al1 O7 1.779214 1_555
Al1 O4 1.779214 1_555
Al2 O11 1.755838 1_555
Al2 O8 1.755842 1_655
Al2 O5 1.779214 1_555
Al2 O2 1.779214 1_655
O0 Si0 1.598627 1_555
O0 Sr2 2.669927 1_655
O0 Sr0 2.669929 1_555
O0 Sr1 2.669934 1_555
O1 Si1 1.598627 1_555
O1 Sr0 2.669927 1_566
O1 Sr2 2.669929 1_556
O1 Sr1 2.669934 1_556
O2 Si1 1.644023 1_555
O2 Sr2 2.575412 1_555
O2 Sr0 2.917287 1_565
O3 Si1 1.644028 1_555
O3 Sr0 2.575412 1_565
O3 Sr1 2.917287 1_555
O4 Si1 1.644031 1_555
O4 Sr1 2.575412 1_555
O4 Sr2 2.917287 1_555
O5 Si0 1.644028 1_555
O5 Sr2 2.575412 1_656
O5 Sr1 2.917287 1_556
O6 Si0 1.644023 1_555
O6 Sr0 2.575412 1_556
O6 Sr2 2.917287 1_656
O7 Si0 1.644031 1_555
O7 Sr1 2.575412 1_556
O7 Sr0 2.917287 1_556
O8 Ta0 1.985943 1_566
O8 Sr0 2.521530 1_566
O9 Ta0 1.985949 1_666
O9 Sr1 2.521528 1_556
O10 Ta0 1.985949 1_556
O10 Sr2 2.521523 1_556
O11 Ta0 1.985949 1_665
O11 Sr1 2.521528 1_555
O12 Ta0 1.985943 1_655
O12 Sr2 2.521530 1_655
O13 Ta0 1.985949 1_555
O13 Sr0 2.521523 1_555
