# generated using pymatgen
data_Rb3Ta2SbSe11
_symmetry_space_group_name_H-M   'P 1'
_cell_length_a   10.30255799
_cell_length_b   10.30255772
_cell_length_c   10.15946780
_cell_angle_alpha   82.84350553
_cell_angle_beta   82.84350307
_cell_angle_gamma   82.39763946
_symmetry_Int_Tables_number   1
_chemical_formula_structural   Rb3Ta2SbSe11
_chemical_formula_sum   'Rb6 Ta4 Sb2 Se22'
_cell_volume   1054.12205951
_cell_formula_units_Z   2
loop_
 _symmetry_equiv_pos_site_id
 _symmetry_equiv_pos_as_xyz
  1  'x, y, z'
loop_
 _atom_site_type_symbol
 _atom_site_label
 _atom_site_symmetry_multiplicity
 _atom_site_fract_x
 _atom_site_fract_y
 _atom_site_fract_z
 _atom_site_occupancy
  Rb  Rb0  1  0.52737125  0.35553795  0.92581052  1
  Rb  Rb1  1  0.98422329  0.13900764  0.02409155  1
  Rb  Rb2  1  0.75465543  0.88746805  0.68789423  1
  Rb  Rb3  1  0.35553795  0.52737125  0.42581052  1
  Rb  Rb4  1  0.88746805  0.75465543  0.18789423  1
  Rb  Rb5  1  0.13900764  0.98422329  0.52409155  1
  Ta  Ta0  1  0.79325813  0.25263118  0.41188934  1
  Ta  Ta1  1  0.25263118  0.79325813  0.91188934  1
  Ta  Ta2  1  0.49835853  0.90644245  0.09859731  1
  Ta  Ta3  1  0.90644245  0.49835853  0.59859731  1
  Sb  Sb0  1  0.12738588  0.44533530  0.87540112  1
  Sb  Sb1  1  0.44533530  0.12738588  0.37540112  1
  Se  Se0  1  0.57978934  0.65945626  0.15493261  1
  Se  Se1  1  0.40107675  0.89917311  0.70932208  1
  Se  Se2  1  0.35069784  0.02248068  0.89586226  1
  Se  Se3  1  0.28743355  0.60277331  0.75472072  1
  Se  Se4  1  0.82186902  0.23402701  0.66771255  1
  Se  Se5  1  0.88830657  0.54013167  0.85228367  1
  Se  Se6  1  0.65945626  0.57978934  0.65493261  1
  Se  Se7  1  0.54013167  0.88830657  0.35228367  1
  Se  Se8  1  0.23402701  0.82186902  0.16771255  1
  Se  Se9  1  0.03785143  0.87190545  0.85827263  1
  Se  Se10  1  0.22200755  0.60655431  0.10584277  1
  Se  Se11  1  0.68155035  0.01650503  0.01109640  1
  Se  Se12  1  0.10638969  0.31702929  0.67217466  1
  Se  Se13  1  0.72575304  0.52792664  0.43523759  1
  Se  Se14  1  0.87190545  0.03785143  0.35827263  1
  Se  Se15  1  0.52792664  0.72575304  0.93523759  1
  Se  Se16  1  0.89917311  0.40107675  0.20932208  1
  Se  Se17  1  0.60655431  0.22200755  0.60584277  1
  Se  Se18  1  0.31702929  0.10638969  0.17217466  1
  Se  Se19  1  0.02248068  0.35069784  0.39586226  1
  Se  Se20  1  0.60277331  0.28743355  0.25472072  1
  Se  Se21  1  0.01650503  0.68155035  0.51109640  1
loop_
_geom_bond_atom_site_label_1
_geom_bond_atom_site_label_2
_geom_bond_distance
_geom_bond_site_symmetry_2
Rb0 Se20 3.490005 1_556
Rb0 Se6 3.616293 1_555
Rb0 Se17 3.644405 1_555
Rb0 Se11 3.687153 1_556
Rb0 Se3 3.731132 1_555
Rb0 Se15 3.828050 1_555
Rb0 Se4 3.934344 1_555
Rb0 Se18 4.008641 1_556
Rb1 Se9 3.352120 1_644
Rb1 Se16 3.439209 1_555
Rb1 Se14 3.522851 1_555
Rb1 Se11 3.538299 1_555
Rb2 Se6 3.505876 1_555
Rb2 Se9 3.549642 1_655
Rb2 Se1 3.608932 1_555
Rb2 Se15 3.615358 1_555
Rb2 Se17 3.621012 1_565
Rb2 Se21 3.637637 1_655
Rb2 Se14 3.642598 1_565
Rb2 Se11 3.650053 1_566
Rb2 Se4 3.702167 1_565
Rb2 Se5 3.907778 1_555
Rb3 Se3 3.490005 1_555
Rb3 Se0 3.616293 1_555
Rb3 Se10 3.644405 1_555
Rb3 Se21 3.687153 1_555
Rb3 Se20 3.731132 1_555
Rb3 Se13 3.828050 1_555
Rb3 Se8 3.934344 1_555
Rb3 Se12 4.008641 1_555
Rb4 Se0 3.505876 1_555
Rb4 Se14 3.549642 1_565
Rb4 Se16 3.608932 1_555
Rb4 Se13 3.615358 1_555
Rb4 Se10 3.621012 1_655
Rb4 Se11 3.637637 1_565
Rb4 Se9 3.642598 1_654
Rb4 Se21 3.650053 1_655
Rb4 Se8 3.702167 1_655
Rb4 Se7 3.907778 1_555
Rb5 Se14 3.352120 1_465
Rb5 Se1 3.439210 1_555
Rb5 Se9 3.522851 1_555
Rb5 Se21 3.538299 1_555
Sb0 Se5 2.554696 1_455
Sb0 Se3 2.561535 1_555
Sb0 Se12 2.631347 1_555
Sb1 Se7 2.554696 1_545
Sb1 Se20 2.561535 1_555
Sb1 Se18 2.631347 1_555
Se0 Se15 2.356801 1_554
Se0 Ta2 2.588099 1_555
Se1 Se2 2.378061 1_565
Se1 Ta1 2.619689 1_555
Se2 Ta1 2.668121 1_545
Se2 Ta2 2.769795 1_546
Se3 Ta1 2.642240 1_555
Se4 Ta0 2.632562 1_555
Se4 Ta3 2.944065 1_555
Se5 Ta3 2.645337 1_555
Se6 Ta3 2.588099 1_555
Se7 Ta2 2.645337 1_555
Se8 Ta1 2.632562 1_554
Se8 Ta2 2.944065 1_555
Se9 Ta1 2.359152 1_555
Se10 Ta1 2.596830 1_554
Se11 Ta2 2.352696 1_545
Se12 Ta3 2.703648 1_455
Se13 Se6 2.356801 1_555
Se13 Ta3 2.608912 1_555
Se13 Ta0 2.861617 1_555
Se14 Ta0 2.359152 1_555
Se15 Ta2 2.608911 1_556
Se15 Ta1 2.861617 1_555
Se16 Se19 2.378061 1_655
Se16 Ta0 2.619689 1_555
Se17 Ta0 2.596830 1_555
Se18 Ta2 2.703648 1_545
Se19 Ta0 2.668121 1_455
Se19 Ta3 2.769795 1_455
Se20 Ta0 2.642240 1_555
Se21 Ta3 2.352696 1_455
