# generated using pymatgen
data_Ba3CaPtO6
_symmetry_space_group_name_H-M   'P 1'
_cell_length_a   7.13622355
_cell_length_b   7.13622331
_cell_length_c   7.13622265
_cell_angle_alpha   92.38949120
_cell_angle_beta   92.38949109
_cell_angle_gamma   92.38947873
_symmetry_Int_Tables_number   1
_chemical_formula_structural   Ba3CaPtO6
_chemical_formula_sum   'Ba6 Ca2 Pt2 O12'
_cell_volume   362.44181542
_cell_formula_units_Z   2
loop_
 _symmetry_equiv_pos_site_id
 _symmetry_equiv_pos_as_xyz
  1  'x, y, z'
loop_
 _atom_site_type_symbol
 _atom_site_label
 _atom_site_symmetry_multiplicity
 _atom_site_fract_x
 _atom_site_fract_y
 _atom_site_fract_z
 _atom_site_occupancy
  Ba  Ba0  1  0.88740787  0.25000000  0.61259213  1
  Ba  Ba1  1  0.38740787  0.11259213  0.75000000  1
  Ba  Ba2  1  0.75000000  0.38740787  0.11259213  1
  Ba  Ba3  1  0.25000000  0.61259213  0.88740787  1
  Ba  Ba4  1  0.61259213  0.88740787  0.25000000  1
  Ba  Ba5  1  0.11259213  0.75000000  0.38740787  1
  Ca  Ca0  1  0.75000000  0.75000000  0.75000000  1
  Ca  Ca1  1  0.25000000  0.25000000  0.25000000  1
  Pt  Pt0  1  0.50000000  0.50000000  0.50000000  1
  Pt  Pt1  1  0.00000000  0.00000000  0.00000000  1
  O  O0  1  0.91119240  0.72506420  0.04314515  1
  O  O1  1  0.45685485  0.77493580  0.58880760  1
  O  O2  1  0.04314515  0.91119240  0.72506420  1
  O  O3  1  0.27493580  0.95685485  0.08880760  1
  O  O4  1  0.95685485  0.08880760  0.27493580  1
  O  O5  1  0.72506420  0.04314515  0.91119240  1
  O  O6  1  0.58880760  0.45685485  0.77493580  1
  O  O7  1  0.77493580  0.58880760  0.45685485  1
  O  O8  1  0.41119240  0.54314515  0.22506420  1
  O  O9  1  0.22506420  0.41119240  0.54314515  1
  O  O10  1  0.54314515  0.22506420  0.41119240  1
  O  O11  1  0.08880760  0.27493580  0.95685485  1
loop_
_geom_bond_atom_site_label_1
_geom_bond_atom_site_label_2
_geom_bond_distance
_geom_bond_site_symmetry_2
Ba0 O4 2.700171 1_555
Ba0 O9 2.700172 1_655
Ba0 O11 2.789382 1_655
Ba0 O10 2.789382 1_555
Ba0 O2 2.834899 1_645
Ba0 O7 2.834899 1_555
Ba0 O6 2.896101 1_555
Ba0 O5 2.896101 1_555
Ba1 O1 2.700172 1_545
Ba1 O5 2.700172 1_555
Ba1 O6 2.789382 1_555
Ba1 O2 2.789382 1_545
Ba1 O3 2.834899 1_546
Ba1 O10 2.834899 1_555
Ba1 O9 2.896101 1_555
Ba1 O11 2.896101 1_555
Ba2 O6 2.700171 1_554
Ba2 O0 2.700172 1_555
Ba2 O7 2.789382 1_555
Ba2 O5 2.789382 1_554
Ba2 O8 2.834899 1_555
Ba2 O11 2.834899 1_654
Ba2 O4 2.896101 1_555
Ba2 O10 2.896101 1_555
Ba3 O8 2.700171 1_556
Ba3 O11 2.700172 1_555
Ba3 O9 2.789382 1_555
Ba3 O3 2.789382 1_556
Ba3 O6 2.834899 1_555
Ba3 O0 2.834899 1_456
Ba3 O2 2.896101 1_555
Ba3 O1 2.896101 1_555
Ba4 O10 2.700172 1_565
Ba4 O3 2.700172 1_555
Ba4 O8 2.789382 1_555
Ba4 O4 2.789382 1_565
Ba4 O5 2.834899 1_564
Ba4 O1 2.834899 1_555
Ba4 O7 2.896101 1_555
Ba4 O0 2.896101 1_555
Ba5 O2 2.700171 1_555
Ba5 O7 2.700172 1_455
Ba5 O0 2.789382 1_455
Ba5 O1 2.789382 1_555
Ba5 O4 2.834899 1_465
Ba5 O9 2.834899 1_555
Ba5 O8 2.896101 1_555
Ba5 O3 2.896101 1_555
Ca0 O7 2.361900 1_555
Ca0 O0 2.361900 1_556
Ca0 O5 2.361900 1_565
Ca0 O1 2.361900 1_555
Ca0 O6 2.361900 1_555
Ca0 O2 2.361900 1_655
Ca1 O9 2.361900 1_555
Ca1 O11 2.361900 1_554
Ca1 O3 2.361900 1_545
Ca1 O10 2.361900 1_555
Ca1 O8 2.361900 1_555
Ca1 O4 2.361900 1_455
O0 Pt1 2.075778 1_665
O1 Pt0 2.075778 1_555
O2 Pt1 2.075778 1_566
O3 Pt1 2.075778 1_565
O4 Pt1 2.075778 1_655
O5 Pt1 2.075778 1_656
O6 Pt0 2.075778 1_555
O7 Pt0 2.075778 1_555
O8 Pt0 2.075778 1_555
O9 Pt0 2.075778 1_555
O10 Pt0 2.075778 1_555
O11 Pt1 2.075778 1_556
