# generated using pymatgen
data_Zr3Ga2PtC
_symmetry_space_group_name_H-M   'P 1'
_cell_length_a   8.62406945
_cell_length_b   8.62405292
_cell_length_c   8.62404765
_cell_angle_alpha   60.00002021
_cell_angle_beta   60.00008362
_cell_angle_gamma   60.00005359
_symmetry_Int_Tables_number   1
_chemical_formula_structural   Zr3Ga2PtC
_chemical_formula_sum   'Zr12 Ga8 Pt4 C4'
_cell_volume   453.54493800
_cell_formula_units_Z   4
loop_
 _symmetry_equiv_pos_site_id
 _symmetry_equiv_pos_as_xyz
  1  'x, y, z'
loop_
 _atom_site_type_symbol
 _atom_site_label
 _atom_site_symmetry_multiplicity
 _atom_site_fract_x
 _atom_site_fract_y
 _atom_site_fract_z
 _atom_site_occupancy
  Zr  Zr0  1  0.44338415  0.44338315  0.05661685  1
  Zr  Zr1  1  0.05661685  0.44338315  0.05661585  1
  Zr  Zr2  1  0.44338415  0.05661585  0.05661685  1
  Zr  Zr3  1  0.05661585  0.05661585  0.44338415  1
  Zr  Zr4  1  0.44338415  0.05661585  0.44338415  1
  Zr  Zr5  1  0.05661685  0.44338315  0.44338415  1
  Zr  Zr6  1  0.80661585  0.80661685  0.19338315  1
  Zr  Zr7  1  0.19338315  0.80661685  0.19338415  1
  Zr  Zr8  1  0.80661585  0.19338415  0.19338315  1
  Zr  Zr9  1  0.19338415  0.19338415  0.80661585  1
  Zr  Zr10  1  0.80661585  0.19338415  0.80661585  1
  Zr  Zr11  1  0.19338315  0.80661685  0.80661585  1
  Ga  Ga0  1  0.83328370  0.83328770  0.50014091  1
  Ga  Ga1  1  0.83328370  0.50014191  0.83328770  1
  Ga  Ga2  1  0.50013691  0.83328770  0.83328770  1
  Ga  Ga3  1  0.83328370  0.83328770  0.83328770  1
  Ga  Ga4  1  0.41671630  0.41671230  0.74985909  1
  Ga  Ga5  1  0.41671630  0.74985809  0.41671230  1
  Ga  Ga6  1  0.74986309  0.41671230  0.41671230  1
  Ga  Ga7  1  0.41671630  0.41671230  0.41671230  1
  Pt  Pt0  1  0.62500000  0.62500000  0.12500000  1
  Pt  Pt1  1  0.62500000  0.12500000  0.62500000  1
  Pt  Pt2  1  0.12500000  0.62500000  0.62500000  1
  Pt  Pt3  1  0.62500000  0.62500000  0.62500000  1
  C  C0  1  0.12500000  0.12500000  0.62500000  1
  C  C1  1  0.12500000  0.62500000  0.12500000  1
  C  C2  1  0.62500000  0.12500000  0.12500000  1
  C  C3  1  0.12500000  0.12500000  0.12500000  1
loop_
_geom_bond_atom_site_label_1
_geom_bond_atom_site_label_2
_geom_bond_distance
_geom_bond_site_symmetry_2
Ga0 Pt1 2.640228 1_565
Ga0 Pt3 2.640229 1_555
Ga0 Pt2 2.640258 1_655
Ga0 Ga1 2.873071 1_555
Ga0 Ga3 2.873074 1_555
Ga0 Ga2 2.873081 1_555
Ga0 Zr6 2.893829 1_555
Ga0 Zr8 2.893831 1_565
Ga0 Zr7 2.893849 1_655
Ga0 Zr4 3.079373 1_565
Ga0 Zr3 3.079399 1_665
Ga0 Zr5 3.079405 1_655
Ga1 Pt0 2.640223 1_556
Ga1 Pt3 2.640230 1_555
Ga1 Pt2 2.640255 1_655
Ga1 Ga3 2.873067 1_555
Ga1 Ga2 2.873076 1_555
Ga1 Zr8 2.893826 1_556
Ga1 Zr10 2.893836 1_555
Ga1 Zr9 2.893857 1_655
Ga1 Zr0 3.079381 1_556
Ga1 Zr1 3.079396 1_656
Ga1 Zr5 3.079403 1_655
Ga2 Pt3 2.640245 1_555
Ga2 Pt0 2.640245 1_556
Ga2 Pt1 2.640247 1_565
Ga2 Ga3 2.873081 1_555
Ga2 Zr9 2.893817 1_565
Ga2 Zr11 2.893821 1_555
Ga2 Zr7 2.893821 1_556
Ga2 Zr4 3.079381 1_565
Ga2 Zr2 3.079388 1_566
Ga2 Zr0 3.079391 1_556
Ga3 Pt1 2.640228 1_565
Ga3 Pt0 2.640229 1_556
Ga3 Pt2 2.640258 1_655
Ga3 Zr6 2.893821 1_556
Ga3 Zr10 2.893828 1_565
Ga3 Zr11 2.893849 1_655
Ga3 Zr2 3.079376 1_566
Ga3 Zr3 3.079399 1_665
Ga3 Zr1 3.079405 1_656
Ga4 Pt1 2.640228 1_555
Ga4 Pt3 2.640229 1_555
Ga4 Pt2 2.640258 1_555
Ga4 Ga5 2.873071 1_555
Ga4 Ga7 2.873074 1_555
Ga4 Ga6 2.873081 1_555
Ga4 Zr0 2.893829 1_556
Ga4 Zr2 2.893831 1_556
Ga4 Zr1 2.893849 1_556
Ga4 Zr10 3.079373 1_555
Ga4 Zr9 3.079399 1_555
Ga4 Zr11 3.079405 1_555
Ga5 Pt0 2.640223 1_555
Ga5 Pt3 2.640230 1_555
Ga5 Pt2 2.640255 1_555
Ga5 Ga7 2.873067 1_555
Ga5 Ga6 2.873076 1_555
Ga5 Zr2 2.893826 1_565
Ga5 Zr4 2.893836 1_565
Ga5 Zr3 2.893857 1_565
Ga5 Zr6 3.079381 1_555
Ga5 Zr7 3.079396 1_555
Ga5 Zr11 3.079403 1_555
Ga6 Pt0 2.640245 1_555
Ga6 Pt3 2.640245 1_555
Ga6 Pt1 2.640247 1_555
Ga6 Ga7 2.873081 1_555
Ga6 Zr3 2.893817 1_655
Ga6 Zr5 2.893821 1_655
Ga6 Zr1 2.893821 1_655
Ga6 Zr10 3.079381 1_555
Ga6 Zr8 3.079388 1_555
Ga6 Zr6 3.079391 1_555
Ga7 Pt1 2.640228 1_555
Ga7 Pt0 2.640229 1_555
Ga7 Pt2 2.640258 1_555
Ga7 Zr0 2.893821 1_555
Ga7 Zr4 2.893828 1_555
Ga7 Zr5 2.893849 1_555
Ga7 Zr8 3.079376 1_555
Ga7 Zr9 3.079399 1_555
Ga7 Zr7 3.079405 1_555
Pt0 Zr6 3.091081 1_555
Pt0 Zr0 3.091081 1_555
Pt0 Zr2 3.091081 1_565
Pt0 Zr8 3.091081 1_555
Pt0 Zr1 3.091094 1_655
Pt0 Zr7 3.091094 1_555
Pt1 Zr10 3.091078 1_555
Pt1 Zr4 3.091078 1_555
Pt1 Zr2 3.091086 1_556
Pt1 Zr8 3.091086 1_555
Pt1 Zr3 3.091087 1_655
Pt1 Zr9 3.091087 1_555
Pt2 Zr1 3.091078 1_556
Pt2 Zr7 3.091078 1_555
Pt2 Zr11 3.091078 1_555
Pt2 Zr5 3.091078 1_555
Pt2 Zr3 3.091079 1_565
Pt2 Zr9 3.091079 1_555
Pt3 Zr4 3.091079 1_565
Pt3 Zr10 3.091079 1_555
Pt3 Zr0 3.091087 1_556
Pt3 Zr6 3.091087 1_555
Pt3 Zr5 3.091094 1_655
Pt3 Zr11 3.091094 1_555
C0 Zr5 2.311703 1_555
C0 Zr11 2.311703 1_545
C0 Zr9 2.311708 1_555
C0 Zr3 2.311708 1_555
C0 Zr4 2.311716 1_555
C0 Zr10 2.311716 1_455
C1 Zr5 2.311711 1_555
C1 Zr11 2.311711 1_554
C1 Zr7 2.311711 1_555
C1 Zr1 2.311711 1_555
C1 Zr6 2.311717 1_455
C1 Zr0 2.311717 1_555
C2 Zr8 2.311705 1_555
C2 Zr2 2.311705 1_555
C2 Zr0 2.311705 1_555
C2 Zr6 2.311705 1_545
C2 Zr4 2.311711 1_555
C2 Zr10 2.311711 1_554
C3 Zr1 2.311703 1_555
C3 Zr7 2.311703 1_545
C3 Zr3 2.311708 1_555
C3 Zr9 2.311708 1_554
C3 Zr2 2.311717 1_555
C3 Zr8 2.311717 1_455
