# generated using pymatgen
data_ZrP2S7
_symmetry_space_group_name_H-M   'P 1'
_cell_length_a   16.75890105
_cell_length_b   15.63959071
_cell_length_c   8.74112256
_cell_angle_alpha   81.53753150
_cell_angle_beta   67.36104280
_cell_angle_gamma   31.06156433
_symmetry_Int_Tables_number   1
_chemical_formula_structural   ZrP2S7
_chemical_formula_sum   'Zr4 P8 S28'
_cell_volume   1007.64966380
_cell_formula_units_Z   4
loop_
 _symmetry_equiv_pos_site_id
 _symmetry_equiv_pos_as_xyz
  1  'x, y, z'
loop_
 _atom_site_type_symbol
 _atom_site_label
 _atom_site_symmetry_multiplicity
 _atom_site_fract_x
 _atom_site_fract_y
 _atom_site_fract_z
 _atom_site_occupancy
  Zr  Zr0  1  0.88900682  0.88889673  0.11099737  1
  Zr  Zr1  1  0.36099375  0.36110273  0.13900246  1
  Zr  Zr2  1  0.11098766  0.11108559  0.88902884  1
  Zr  Zr3  1  0.13901093  0.13891662  0.36096984  1
  P  P0  1  0.74993525  0.13541978  0.86665148  1
  P  P1  1  0.13517095  0.75008779  0.24824635  1
  P  P2  1  0.50006594  0.11457865  0.38334517  1
  P  P3  1  0.11482726  0.49991342  0.00175804  1
  P  P4  1  0.38355537  0.00167818  0.49985143  1
  P  P5  1  0.00204183  0.38331247  0.11452278  1
  P  P6  1  0.86644627  0.24832125  0.75014960  1
  P  P7  1  0.24795591  0.86668905  0.13547575  1
  S  S0  1  0.72654955  0.27354674  0.72677118  1
  S  S1  1  0.10962175  0.24564865  0.64692201  1
  S  S2  1  0.00404917  0.14060663  0.25263501  1
  S  S3  1  0.14037771  0.00435547  0.60308153  1
  S  S4  1  0.95620540  0.44085850  0.35677490  1
  S  S5  1  0.44117991  0.95581564  0.24580835  1
  S  S6  1  0.29379304  0.80914441  0.89322360  1
  S  S7  1  0.80882670  0.29417600  0.00419208  1
  S  S8  1  0.83714013  0.45122815  0.09768523  1
  S  S9  1  0.24595133  0.10939370  0.99736380  1
  S  S10  1  0.41285858  0.79877250  0.15231715  1
  S  S11  1  0.79882789  0.41299839  0.63605750  1
  S  S12  1  0.09797791  0.61380859  0.83689984  1
  S  S13  1  0.61401290  0.09755616  0.45128281  1
  S  S14  1  0.15202502  0.63618808  0.41310018  1
  S  S15  1  0.63598469  0.15244637  0.79871304  1
  S  S16  1  0.35707167  0.24596357  0.95598005  1
  S  S17  1  0.24606181  0.35686272  0.44107247  1
  S  S18  1  0.89292756  0.00403557  0.29401808  1
  S  S19  1  0.00393769  0.89313385  0.80892871  1
  S  S20  1  0.99760708  0.64702399  0.24574550  1
  S  S21  1  0.64715494  0.99757045  0.10936278  1
  S  S22  1  0.25239058  0.60297884  0.00425791  1
  S  S23  1  0.60284634  0.25242946  0.14063433  1
  S  S24  1  0.52345616  0.97644797  0.52322242  1
  S  S25  1  0.97683464  0.52324298  0.97644757  1
  S  S26  1  0.45116875  0.83700565  0.61394685  1
  S  S27  1  0.27316318  0.72675872  0.27355507  1
loop_
_geom_bond_atom_site_label_1
_geom_bond_atom_site_label_2
_geom_bond_distance
_geom_bond_site_symmetry_2
P0 S19 2.002023 1_645
P0 S15 2.006435 1_555
P0 S23 2.043927 1_556
P0 S0 2.110997 1_555
P1 S18 2.002237 1_465
P1 S14 2.006314 1_555
P1 S22 2.043653 1_555
P1 S27 2.110618 1_555
P2 S17 2.002020 1_555
P2 S13 2.006419 1_555
P2 S21 2.043922 1_545
P2 S24 2.110994 1_545
P3 S16 2.002234 1_554
P3 S12 2.006319 1_554
P3 S20 2.043654 1_455
P3 S25 2.110626 1_454
P4 S5 2.002345 1_545
P4 S26 2.006425 1_545
P4 S1 2.043825 1_555
P4 S24 2.110575 1_545
P5 S4 2.002083 1_455
P5 S8 2.006321 1_455
P5 S9 2.043939 1_554
P5 S25 2.110857 1_454
P6 S7 2.002348 1_556
P6 S11 2.006433 1_555
P6 S3 2.043807 1_655
P6 S0 2.110597 1_555
P7 S6 2.002073 1_554
P7 S10 2.006345 1_555
P7 S2 2.043930 1_565
P7 S27 2.110872 1_555
S1 Zr2 2.748104 1_555
S1 Zr3 2.854541 1_555
S2 Zr3 2.748154 1_555
S2 Zr2 2.855868 1_554
S3 Zr3 2.748108 1_555
S3 Zr2 2.854477 1_555
S4 Zr3 2.633763 1_655
S5 Zr3 2.633955 1_565
S6 Zr2 2.633755 1_565
S7 Zr2 2.633922 1_654
S8 Zr2 2.696830 1_654
S9 Zr2 2.748163 1_555
S9 Zr3 2.855862 1_556
S10 Zr3 2.696835 1_565
S11 Zr3 2.696514 1_655
S12 Zr0 2.697352 1_456
S13 Zr0 2.697010 1_545
S14 Zr1 2.697342 1_555
S15 Zr1 2.697024 1_556
S16 Zr1 2.634010 1_556
S17 Zr1 2.634056 1_555
S18 Zr0 2.633976 1_545
S19 Zr0 2.634018 1_456
S20 Zr0 2.748293 1_555
S20 Zr1 2.855252 1_655
S21 Zr0 2.748165 1_555
S21 Zr1 2.855697 1_565
S22 Zr1 2.748300 1_555
S22 Zr0 2.855239 1_455
S23 Zr1 2.748169 1_555
S23 Zr0 2.855708 1_545
S26 Zr2 2.696488 1_565
