# generated using pymatgen
data_LiCa(Nb2N3)2
_symmetry_space_group_name_H-M   'P 1'
_cell_length_a   5.35076513
_cell_length_b   5.35076525
_cell_length_c   10.60897515
_cell_angle_alpha   90.00000000
_cell_angle_beta   90.00000000
_cell_angle_gamma   119.99999923
_symmetry_Int_Tables_number   1
_chemical_formula_structural   LiCa(Nb2N3)2
_chemical_formula_sum   'Li2 Ca2 Nb8 N12'
_cell_volume   263.04851455
_cell_formula_units_Z   2
loop_
 _symmetry_equiv_pos_site_id
 _symmetry_equiv_pos_as_xyz
  1  'x, y, z'
loop_
 _atom_site_type_symbol
 _atom_site_label
 _atom_site_symmetry_multiplicity
 _atom_site_fract_x
 _atom_site_fract_y
 _atom_site_fract_z
 _atom_site_occupancy
  Li  Li0  1  0.33333300  0.66666700  0.00000000  1
  Li  Li1  1  0.33333300  0.66666700  0.50000000  1
  Ca  Ca0  1  0.66666700  0.33333300  0.50000000  1
  Ca  Ca1  1  0.66666700  0.33333300  0.00000000  1
  Nb  Nb0  1  0.00207340  0.34661863  0.25000000  1
  Nb  Nb1  1  0.65338137  0.99792660  0.75000000  1
  Nb  Nb2  1  0.34454523  0.34661863  0.75000000  1
  Nb  Nb3  1  0.00000000  0.00000000  0.50000000  1
  Nb  Nb4  1  0.00000000  0.00000000  0.00000000  1
  Nb  Nb5  1  0.65338137  0.65545477  0.25000000  1
  Nb  Nb6  1  0.34454523  0.99792660  0.25000000  1
  Nb  Nb7  1  0.00207340  0.65545477  0.75000000  1
  N  N0  1  0.67819154  0.68780446  0.62660934  1
  N  N1  1  0.67819154  0.68780446  0.87339066  1
  N  N2  1  0.31219554  0.32180846  0.12660934  1
  N  N3  1  0.31219554  0.32180846  0.37339066  1
  N  N4  1  0.31219554  0.99038708  0.87339066  1
  N  N5  1  0.31219554  0.99038708  0.62660934  1
  N  N6  1  0.00961292  0.68780446  0.37339066  1
  N  N7  1  0.00961292  0.68780446  0.12660934  1
  N  N8  1  0.67819154  0.99038708  0.12660934  1
  N  N9  1  0.67819154  0.99038708  0.37339066  1
  N  N10  1  0.00961292  0.32180846  0.87339066  1
  N  N11  1  0.00961292  0.32180846  0.62660934  1
loop_
_geom_bond_atom_site_label_1
_geom_bond_atom_site_label_2
_geom_bond_distance
_geom_bond_site_symmetry_2
Li0 N7 2.239022 1_555
Li0 N4 2.239022 1_554
Li0 N8 2.239024 1_555
Li0 N10 2.239024 1_554
Li0 N1 2.239026 1_554
Li0 N2 2.239026 1_555
Li1 N6 2.239022 1_555
Li1 N5 2.239022 1_555
Li1 N9 2.239024 1_555
Li1 N11 2.239024 1_555
Li1 N0 2.239026 1_555
Li1 N3 2.239026 1_555
Ca0 N11 2.299661 1_655
Ca0 N9 2.299662 1_545
Ca0 N5 2.299664 1_545
Ca0 N6 2.299664 1_655
Ca0 N3 2.299666 1_555
Ca0 N0 2.299666 1_555
Ca1 N10 2.299661 1_654
Ca1 N8 2.299662 1_545
Ca1 N4 2.299664 1_544
Ca1 N7 2.299664 1_655
Ca1 N2 2.299666 1_555
Ca1 N1 2.299666 1_554
N0 Nb3 2.164085 1_665
N0 Nb1 2.169124 1_555
N0 Nb2 2.230341 1_555
N0 Nb7 2.246529 1_655
N1 Nb4 2.164085 1_666
N1 Nb1 2.169124 1_555
N1 Nb2 2.230341 1_555
N1 Nb7 2.246529 1_655
N2 Nb4 2.164085 1_555
N2 Nb0 2.169124 1_555
N2 Nb5 2.230341 1_555
N2 Nb6 2.246529 1_545
N3 Nb3 2.164085 1_555
N3 Nb0 2.169124 1_555
N3 Nb5 2.230341 1_555
N3 Nb6 2.246529 1_545
N4 Nb4 2.164085 1_566
N4 Nb7 2.169124 1_555
N4 Nb1 2.230341 1_555
N4 Nb2 2.246529 1_565
N5 Nb3 2.164085 1_565
N5 Nb7 2.169124 1_555
N5 Nb1 2.230341 1_555
N5 Nb2 2.246529 1_565
N6 Nb3 2.164085 1_565
N6 Nb6 2.169124 1_555
N6 Nb0 2.230341 1_555
N6 Nb5 2.246529 1_455
N7 Nb4 2.164085 1_565
N7 Nb6 2.169124 1_555
N7 Nb0 2.230341 1_555
N7 Nb5 2.246529 1_455
N8 Nb4 2.164085 1_665
N8 Nb5 2.169124 1_555
N8 Nb6 2.230341 1_555
N8 Nb0 2.246529 1_665
N9 Nb3 2.164085 1_665
N9 Nb5 2.169124 1_555
N9 Nb6 2.230341 1_555
N9 Nb0 2.246529 1_665
N10 Nb4 2.164085 1_556
N10 Nb2 2.169124 1_555
N10 Nb7 2.230341 1_555
N10 Nb1 2.246529 1_445
N11 Nb3 2.164085 1_555
N11 Nb2 2.169124 1_555
N11 Nb7 2.230341 1_555
N11 Nb1 2.246529 1_445
