# generated using pymatgen
data_Ge(SO4)2
_symmetry_space_group_name_H-M   'P 1'
_cell_length_a   8.55333788
_cell_length_b   8.55333712
_cell_length_c   8.55333804
_cell_angle_alpha   54.85380559
_cell_angle_beta   54.85381205
_cell_angle_gamma   54.85380365
_symmetry_Int_Tables_number   1
_chemical_formula_structural   Ge(SO4)2
_chemical_formula_sum   'Ge3 S6 O24'
_cell_volume   389.46595047
_cell_formula_units_Z   3
loop_
 _symmetry_equiv_pos_site_id
 _symmetry_equiv_pos_as_xyz
  1  'x, y, z'
loop_
 _atom_site_type_symbol
 _atom_site_label
 _atom_site_symmetry_multiplicity
 _atom_site_fract_x
 _atom_site_fract_y
 _atom_site_fract_z
 _atom_site_occupancy
  Ge  Ge0  1  0.15234134  0.15234134  0.15234134  1
  Ge  Ge1  1  0.64527986  0.64527986  0.64527986  1
  Ge  Ge2  1  0.84506721  0.84506721  0.84506721  1
  S  S0  1  0.05067514  0.44939455  0.75325598  1
  S  S1  1  0.44939455  0.75325598  0.05067514  1
  S  S2  1  0.75325598  0.05067514  0.44939455  1
  S  S3  1  0.25194153  0.96209591  0.53999348  1
  S  S4  1  0.53999348  0.25194153  0.96209591  1
  S  S5  1  0.96209591  0.53999348  0.25194153  1
  O  O0  1  0.11486370  0.52177571  0.28556184  1
  O  O1  1  0.28556184  0.11486370  0.52177571  1
  O  O2  1  0.99595802  0.33054926  0.98241534  1
  O  O3  1  0.52177571  0.28556184  0.11486370  1
  O  O4  1  0.02239465  0.65982769  0.71031246  1
  O  O5  1  0.25013339  0.35324084  0.63763810  1
  O  O6  1  0.35324084  0.63763810  0.25013339  1
  O  O7  1  0.33054926  0.98241534  0.99595802  1
  O  O8  1  0.63763810  0.25013339  0.35324084  1
  O  O9  1  0.03445945  0.97570671  0.67577342  1
  O  O10  1  0.29392019  0.97181865  0.33737641  1
  O  O11  1  0.33737641  0.29392019  0.97181865  1
  O  O12  1  0.65982769  0.71031246  0.02239465  1
  O  O13  1  0.71031246  0.02239465  0.65982769  1
  O  O14  1  0.98241534  0.99595802  0.33054926  1
  O  O15  1  0.38747010  0.74802621  0.62970548  1
  O  O16  1  0.67577342  0.03445945  0.97570671  1
  O  O17  1  0.62970548  0.38747010  0.74802621  1
  O  O18  1  0.74802621  0.62970548  0.38747010  1
  O  O19  1  0.97181865  0.33737641  0.29392019  1
  O  O20  1  0.47783124  0.71480585  0.88335331  1
  O  O21  1  0.97570671  0.67577342  0.03445945  1
  O  O22  1  0.71480585  0.88335331  0.47783124  1
  O  O23  1  0.88335331  0.47783124  0.71480585  1
loop_
_geom_bond_atom_site_label_1
_geom_bond_atom_site_label_2
_geom_bond_distance
_geom_bond_site_symmetry_2
Ge0 O2 1.888192 1_454
Ge0 O7 1.888192 1_544
Ge0 O14 1.888192 1_445
Ge0 O10 1.896231 1_545
Ge0 O19 1.896232 1_455
Ge0 O11 1.896232 1_554
Ge1 O23 1.899291 1_555
Ge1 O22 1.899291 1_555
Ge1 O20 1.899291 1_555
Ge1 O17 1.903923 1_555
Ge1 O15 1.903923 1_555
Ge1 O18 1.903923 1_555
Ge2 O13 1.860742 1_565
Ge2 O4 1.860742 1_655
Ge2 O12 1.860742 1_556
Ge2 O21 1.868165 1_556
Ge2 O16 1.868165 1_565
Ge2 O9 1.868165 1_655
O0 S5 1.400350 1_455
O1 S3 1.400349 1_545
O2 S0 1.513887 1_655
O3 S4 1.400350 1_554
O4 S0 1.507628 1_555
O5 S0 1.394073 1_555
O6 S1 1.394073 1_555
O7 S1 1.513887 1_556
O8 S2 1.394072 1_555
O9 S3 1.497229 1_555
O10 S3 1.513711 1_555
O11 S4 1.513711 1_555
O12 S1 1.507628 1_555
O13 S2 1.507628 1_555
O14 S2 1.513887 1_565
O15 S3 1.499317 1_555
O16 S4 1.497229 1_555
O17 S4 1.499317 1_555
O18 S5 1.499317 1_555
O19 S5 1.513711 1_555
O20 S1 1.504848 1_556
O21 S5 1.497229 1_555
O22 S2 1.504848 1_565
O23 S0 1.504848 1_655
