# generated using pymatgen
data_RbScMnSe3
_symmetry_space_group_name_H-M   'P 1'
_cell_length_a   7.93094330
_cell_length_b   7.93094331
_cell_length_c   10.62992710
_cell_angle_alpha   90.00000000
_cell_angle_beta   90.00000000
_cell_angle_gamma   150.39161692
_symmetry_Int_Tables_number   1
_chemical_formula_structural   RbScMnSe3
_chemical_formula_sum   'Rb2 Sc2 Mn2 Se6'
_cell_volume   330.34493444
_cell_formula_units_Z   2
loop_
 _symmetry_equiv_pos_site_id
 _symmetry_equiv_pos_as_xyz
  1  'x, y, z'
loop_
 _atom_site_type_symbol
 _atom_site_label
 _atom_site_symmetry_multiplicity
 _atom_site_fract_x
 _atom_site_fract_y
 _atom_site_fract_z
 _atom_site_occupancy
  Rb  Rb0  1  0.25604463  0.74395537  0.25000000  1
  Rb  Rb1  1  0.74395537  0.25604463  0.75000000  1
  Sc  Sc0  1  0.00000000  0.00000000  0.00000000  1
  Sc  Sc1  1  0.00000000  0.00000000  0.50000000  1
  Mn  Mn0  1  0.53759327  0.46240673  0.25000000  1
  Mn  Mn1  1  0.46240673  0.53759327  0.75000000  1
  Se  Se0  1  0.61747781  0.38252219  0.04878437  1
  Se  Se1  1  0.38252219  0.61747781  0.95121563  1
  Se  Se2  1  0.38252219  0.61747781  0.54878437  1
  Se  Se3  1  0.61747781  0.38252219  0.45121563  1
  Se  Se4  1  0.93974206  0.06025794  0.25000000  1
  Se  Se5  1  0.06025794  0.93974206  0.75000000  1
loop_
_geom_bond_atom_site_label_1
_geom_bond_atom_site_label_2
_geom_bond_distance
_geom_bond_site_symmetry_2
Rb0 Se4 3.470230 1_565
Rb0 Se4 3.470230 1_455
Rb0 Se3 3.632777 1_455
Rb0 Se0 3.632777 1_455
Rb0 Se3 3.632777 1_565
Rb0 Se0 3.632777 1_565
Rb0 Se2 3.721464 1_555
Rb0 Se1 3.721464 1_554
Rb1 Se5 3.470230 1_545
Rb1 Se5 3.470230 1_655
Rb1 Se1 3.632777 1_655
Rb1 Se2 3.632777 1_655
Rb1 Se1 3.632777 1_545
Rb1 Se2 3.632777 1_545
Rb1 Se0 3.721464 1_556
Rb1 Se3 3.721464 1_555
Sc0 Se0 2.760652 1_555
Sc0 Se1 2.760652 1_444
Sc0 Se0 2.760652 1_445
Sc0 Se1 2.760652 1_554
Sc0 Se5 2.813561 1_544
Sc0 Se4 2.813561 1_455
Sc1 Se3 2.760652 1_555
Sc1 Se2 2.760652 1_445
Sc1 Se3 2.760652 1_445
Sc1 Se2 2.760652 1_555
Sc1 Se5 2.813561 1_545
Sc1 Se4 2.813561 1_455
Mn0 Se3 2.464892 1_555
Mn0 Se0 2.464892 1_555
Mn0 Se4 2.521586 1_455
Mn0 Se4 2.521586 1_565
Mn1 Se1 2.464892 1_555
Mn1 Se2 2.464892 1_555
Mn1 Se5 2.521586 1_655
Mn1 Se5 2.521586 1_545
