# generated using pymatgen
data_MnCu2Rh3Se8
_symmetry_space_group_name_H-M   'P 1'
_cell_length_a   7.22440263
_cell_length_b   7.22440184
_cell_length_c   7.22440300
_cell_angle_alpha   61.30914667
_cell_angle_beta   61.30915336
_cell_angle_gamma   61.30914889
_symmetry_Int_Tables_number   1
_chemical_formula_structural   MnCu2Rh3Se8
_chemical_formula_sum   'Mn1 Cu2 Rh3 Se8'
_cell_volume   274.46437852
_cell_formula_units_Z   1
loop_
 _symmetry_equiv_pos_site_id
 _symmetry_equiv_pos_as_xyz
  1  'x, y, z'
loop_
 _atom_site_type_symbol
 _atom_site_label
 _atom_site_symmetry_multiplicity
 _atom_site_fract_x
 _atom_site_fract_y
 _atom_site_fract_z
 _atom_site_occupancy
  Mn  Mn0  1  0.50000000  0.50000000  0.50000000  1
  Cu  Cu0  1  0.12321145  0.12321145  0.12321145  1
  Cu  Cu1  1  0.87678855  0.87678855  0.87678855  1
  Rh  Rh0  1  0.00000000  0.50000000  0.50000000  1
  Rh  Rh1  1  0.50000000  0.50000000  0.00000000  1
  Rh  Rh2  1  0.50000000  0.00000000  0.50000000  1
  Se  Se0  1  0.74043024  0.74043024  0.74043024  1
  Se  Se1  1  0.27482551  0.74255550  0.74255550  1
  Se  Se2  1  0.74255550  0.74255550  0.27482551  1
  Se  Se3  1  0.74255550  0.27482551  0.74255550  1
  Se  Se4  1  0.25956976  0.25956976  0.25956976  1
  Se  Se5  1  0.72517449  0.25744450  0.25744450  1
  Se  Se6  1  0.25744450  0.25744450  0.72517449  1
  Se  Se7  1  0.25744450  0.72517449  0.25744450  1
loop_
_geom_bond_atom_site_label_1
_geom_bond_atom_site_label_2
_geom_bond_distance
_geom_bond_site_symmetry_2
Mn0 Se2 2.502357 1_555
Mn0 Se6 2.502357 1_555
Mn0 Se3 2.502357 1_555
Mn0 Se7 2.502357 1_555
Mn0 Se1 2.502357 1_555
Mn0 Se5 2.502357 1_555
Cu0 Se7 2.386988 1_545
Cu0 Se5 2.386988 1_455
Cu0 Se6 2.386989 1_554
Cu0 Se4 2.388860 1_555
Cu1 Se3 2.386988 1_565
Cu1 Se1 2.386988 1_655
Cu1 Se2 2.386989 1_556
Cu1 Se0 2.388860 1_555
Rh0 Se0 2.488479 1_455
Rh0 Se4 2.488479 1_555
Rh0 Se6 2.492955 1_555
Rh0 Se2 2.492955 1_455
Rh0 Se7 2.492955 1_555
Rh0 Se3 2.492955 1_455
Rh1 Se0 2.488478 1_554
Rh1 Se4 2.488478 1_555
Rh1 Se5 2.492955 1_555
Rh1 Se1 2.492955 1_554
Rh1 Se7 2.492956 1_555
Rh1 Se3 2.492956 1_554
Rh2 Se0 2.488478 1_545
Rh2 Se4 2.488478 1_555
Rh2 Se5 2.492955 1_555
Rh2 Se1 2.492955 1_545
Rh2 Se6 2.492955 1_555
Rh2 Se2 2.492955 1_545
