# generated using pymatgen
data_TiAg4Te3O14
_symmetry_space_group_name_H-M   'P 1'
_cell_length_a   7.25298233
_cell_length_b   7.25298204
_cell_length_c   7.23177881
_cell_angle_alpha   120.65472022
_cell_angle_beta   118.59389065
_cell_angle_gamma   90.82670226
_symmetry_Int_Tables_number   1
_chemical_formula_structural   TiAg4Te3O14
_chemical_formula_sum   'Ti1 Ag4 Te3 O14'
_cell_volume   270.00933672
_cell_formula_units_Z   1
loop_
 _symmetry_equiv_pos_site_id
 _symmetry_equiv_pos_as_xyz
  1  'x, y, z'
loop_
 _atom_site_type_symbol
 _atom_site_label
 _atom_site_symmetry_multiplicity
 _atom_site_fract_x
 _atom_site_fract_y
 _atom_site_fract_z
 _atom_site_occupancy
  Ti  Ti0  1  0.50000000  0.00000000  0.00000000  1
  Ag  Ag0  1  0.00000000  0.50000000  0.50000000  1
  Ag  Ag1  1  0.50000000  0.00000000  0.50000000  1
  Ag  Ag2  1  0.00000000  0.50000000  0.00000000  1
  Ag  Ag3  1  0.00000000  0.00000000  0.50000000  1
  Te  Te0  1  0.50000000  0.50000000  0.00000000  1
  Te  Te1  1  0.00000000  0.00000000  0.00000000  1
  Te  Te2  1  0.50000000  0.50000000  0.50000000  1
  O  O0  1  0.54856398  0.41453860  0.72682678  1
  O  O1  1  0.45830030  0.19126624  0.87854811  1
  O  O2  1  0.81271913  0.07975219  0.12145189  1
  O  O3  1  0.18771182  0.32173721  0.27317322  1
  O  O4  1  0.45143602  0.58546140  0.27317322  1
  O  O5  1  0.54169970  0.80873376  0.12145189  1
  O  O6  1  0.18728087  0.92024781  0.87854811  1
  O  O7  1  0.81228818  0.67826279  0.72682678  1
  O  O8  1  0.58661387  0.25496323  0.34157810  1
  O  O9  1  0.41338613  0.74503677  0.65842190  1
  O  O10  1  0.17873569  0.40420156  0.76464418  1
  O  O11  1  0.82126431  0.59579844  0.23535582  1
  O  O12  1  0.86044262  0.08590849  0.76464418  1
  O  O13  1  0.13955738  0.91409151  0.23535582  1
loop_
_geom_bond_atom_site_label_1
_geom_bond_atom_site_label_2
_geom_bond_distance
_geom_bond_site_symmetry_2
Ag0 O10 2.198482 1_555
Ag0 O11 2.198482 1_455
Ag0 O7 2.498371 1_455
Ag0 O3 2.498371 1_555
Ag0 O6 2.538165 1_555
Ag0 O2 2.538165 1_455
Ag1 O12 2.198482 1_555
Ag1 O13 2.198482 1_545
Ag1 O0 2.498371 1_555
Ag1 O4 2.498371 1_545
Ag1 O1 2.538165 1_555
Ag1 O5 2.538165 1_545
Ag2 O12 2.447930 1_454
Ag2 O13 2.447930 1_555
Ag2 O10 2.447930 1_554
Ag2 O11 2.447930 1_455
Ag2 O3 2.740240 1_555
Ag2 O7 2.740240 1_454
Ag2 O4 2.740240 1_555
Ag2 O0 2.740240 1_454
Ag3 O10 2.394177 1_555
Ag3 O11 2.394177 1_445
Ag3 O12 2.394177 1_455
Ag3 O13 2.394177 1_545
O0 Te2 1.920714 1_555
O0 Te0 1.958232 1_556
O1 Te0 1.896771 1_556
O1 Ti0 1.946197 1_556
O2 Te1 1.896764 1_655
O2 Ti0 1.946204 1_555
O3 Te2 1.920714 1_555
O3 Te1 1.958232 1_555
O4 Te2 1.920714 1_555
O4 Te0 1.958232 1_555
O5 Te0 1.896771 1_555
O5 Ti0 1.946197 1_565
O6 Te1 1.896764 1_566
O6 Ti0 1.946204 1_566
O7 Te2 1.920714 1_555
O7 Te1 1.958232 1_666
O8 Te2 1.873671 1_555
O8 Ti0 1.933718 1_555
O9 Te2 1.873671 1_555
O9 Ti0 1.933718 1_566
O10 Te0 1.939156 1_556
O11 Te0 1.939156 1_555
O12 Te1 1.939156 1_656
O13 Te1 1.939156 1_565
