# generated using pymatgen
data_Sr5Si2BiH
_symmetry_space_group_name_H-M   'P 1'
_cell_length_a   9.76212080
_cell_length_b   9.76212035
_cell_length_c   9.76212041
_cell_angle_alpha   129.56043001
_cell_angle_beta   129.56042805
_cell_angle_gamma   74.11047319
_symmetry_Int_Tables_number   1
_chemical_formula_structural   Sr5Si2BiH
_chemical_formula_sum   'Sr10 Si4 Bi2 H2'
_cell_volume   539.17715055
_cell_formula_units_Z   2
loop_
 _symmetry_equiv_pos_site_id
 _symmetry_equiv_pos_as_xyz
  1  'x, y, z'
loop_
 _atom_site_type_symbol
 _atom_site_label
 _atom_site_symmetry_multiplicity
 _atom_site_fract_x
 _atom_site_fract_y
 _atom_site_fract_z
 _atom_site_occupancy
  Sr  Sr0  1  0.50000000  0.50000000  0.00000000  1
  Sr  Sr1  1  0.00000000  0.00000000  0.00000000  1
  Sr  Sr2  1  0.52250715  0.02250715  0.82717458  1
  Sr  Sr3  1  0.19533357  0.69533357  0.17282542  1
  Sr  Sr4  1  0.02250715  0.19533357  0.50000000  1
  Sr  Sr5  1  0.69533357  0.52250715  0.50000000  1
  Sr  Sr6  1  0.47749285  0.97749285  0.17282542  1
  Sr  Sr7  1  0.80466643  0.30466643  0.82717458  1
  Sr  Sr8  1  0.97749285  0.80466643  0.50000000  1
  Sr  Sr9  1  0.30466643  0.47749285  0.50000000  1
  Si  Si0  1  0.88953693  0.38953693  0.27907387  1
  Si  Si1  1  0.11046307  0.61046307  0.72092613  1
  Si  Si2  1  0.38953693  0.11046307  0.50000000  1
  Si  Si3  1  0.61046307  0.88953693  0.50000000  1
  Bi  Bi0  1  0.25000000  0.25000000  0.00000000  1
  Bi  Bi1  1  0.75000000  0.75000000  0.00000000  1
  H  H0  1  0.25000000  0.75000000  0.50000000  1
  H  H1  1  0.75000000  0.25000000  0.50000000  1
loop_
_geom_bond_atom_site_label_1
_geom_bond_atom_site_label_2
_geom_bond_distance
_geom_bond_site_symmetry_2
Si0 Si1 2.599198 1_655
Si0 Sr4 3.197689 1_655
Si0 Sr8 3.197689 1_555
Si0 Sr5 3.197689 1_555
Si0 Sr9 3.197690 1_655
Si0 Sr1 3.368381 1_655
Si0 Sr0 3.368381 1_555
Si0 Sr7 3.449449 1_554
Si0 Sr2 3.449459 1_554
Si1 Sr8 3.197689 1_455
Si1 Sr4 3.197689 1_555
Si1 Sr9 3.197689 1_555
Si1 Sr5 3.197690 1_455
Si1 Sr1 3.368381 1_566
Si1 Sr0 3.368381 1_556
Si1 Sr3 3.449449 1_556
Si1 Sr6 3.449459 1_556
Si2 Si3 2.599198 1_545
Si2 Sr3 3.197688 1_545
Si2 Sr7 3.197688 1_555
Si2 Sr6 3.197698 1_545
Si2 Sr2 3.197698 1_555
Si2 Sr0 3.368381 1_556
Si2 Sr1 3.368381 1_555
Si2 Sr9 3.449458 1_555
Si2 Sr4 3.449458 1_555
Si3 Sr7 3.197688 1_565
Si3 Sr3 3.197688 1_555
Si3 Sr2 3.197698 1_565
Si3 Sr6 3.197698 1_555
Si3 Sr0 3.368381 1_555
Si3 Sr1 3.368381 1_666
Si3 Sr5 3.449458 1_555
Si3 Sr8 3.449458 1_555
Bi0 Sr6 3.544682 1_545
Bi0 Sr2 3.544682 1_554
Bi0 Sr9 3.544687 1_555
Bi0 Sr4 3.544687 1_554
Bi0 Sr8 3.544687 1_444
Bi0 Sr5 3.544688 1_555
Bi0 Sr3 3.544689 1_555
Bi0 Sr7 3.544689 1_454
Bi0 Sr1 3.895354 1_555
Bi0 Sr0 3.895354 1_555
Bi1 Sr2 3.544682 1_564
Bi1 Sr6 3.544682 1_555
Bi1 Sr5 3.544687 1_554
Bi1 Sr8 3.544687 1_555
Bi1 Sr4 3.544687 1_665
Bi1 Sr9 3.544688 1_554
Bi1 Sr7 3.544689 1_554
Bi1 Sr3 3.544689 1_655
Bi1 Sr1 3.895354 1_665
Bi1 Sr0 3.895354 1_555
H0 Sr2 2.565998 1_565
H0 Sr9 2.565998 1_555
H0 Sr8 2.565998 1_455
H0 Sr3 2.566008 1_555
H1 Sr6 2.565998 1_545
H1 Sr5 2.565998 1_555
H1 Sr4 2.565998 1_655
H1 Sr7 2.566008 1_555
