# generated using pymatgen
data_Cs12Nb3IrS16
_symmetry_space_group_name_H-M   'P 1'
_cell_length_a   10.00083638
_cell_length_b   10.02500307
_cell_length_c   11.67356766
_cell_angle_alpha   90.00000000
_cell_angle_beta   90.00000000
_cell_angle_gamma   89.82223167
_symmetry_Int_Tables_number   1
_chemical_formula_structural   Cs12Nb3IrS16
_chemical_formula_sum   'Cs12 Nb3 Ir1 S16'
_cell_volume   1170.36776285
_cell_formula_units_Z   1
loop_
 _symmetry_equiv_pos_site_id
 _symmetry_equiv_pos_as_xyz
  1  'x, y, z'
loop_
 _atom_site_type_symbol
 _atom_site_label
 _atom_site_symmetry_multiplicity
 _atom_site_fract_x
 _atom_site_fract_y
 _atom_site_fract_z
 _atom_site_occupancy
  Cs  Cs0  1  0.54765324  0.20992928  0.04282774  1
  Cs  Cs1  1  0.04539107  0.29428266  0.45880486  1
  Cs  Cs2  1  0.45343496  0.79068946  0.53910117  1
  Cs  Cs3  1  0.95216597  0.70823490  0.95965503  1
  Cs  Cs4  1  0.45343496  0.79068946  0.96089883  1
  Cs  Cs5  1  0.95216597  0.70823490  0.54034497  1
  Cs  Cs6  1  0.54765324  0.20992928  0.45717226  1
  Cs  Cs7  1  0.04539107  0.29428266  0.04119514  1
  Cs  Cs8  1  0.65208598  0.41064641  0.75000000  1
  Cs  Cs9  1  0.14675604  0.08495172  0.75000000  1
  Cs  Cs10  1  0.35304907  0.58092150  0.25000000  1
  Cs  Cs11  1  0.84982375  0.91872519  0.25000000  1
  Nb  Nb0  1  0.72067748  0.98271739  0.75000000  1
  Nb  Nb1  1  0.22503155  0.51701706  0.75000000  1
  Nb  Nb2  1  0.27630395  0.01494391  0.25000000  1
  Ir  Ir0  1  0.77773481  0.48519263  0.25000000  1
  S  S0  1  0.83068394  0.04826014  0.58782216  1
  S  S1  1  0.33567899  0.45293612  0.91263259  1
  S  S2  1  0.16610530  0.95033101  0.08776873  1
  S  S3  1  0.67178608  0.54549555  0.40749685  1
  S  S4  1  0.16610530  0.95033101  0.41223127  1
  S  S5  1  0.67178608  0.54549555  0.09250315  1
  S  S6  1  0.83068394  0.04826014  0.91217784  1
  S  S7  1  0.33567899  0.45293612  0.58736741  1
  S  S8  1  0.50893398  0.07136815  0.75000000  1
  S  S9  1  0.01350835  0.42853499  0.75000000  1
  S  S10  1  0.48835015  0.92626573  0.25000000  1
  S  S11  1  0.98145847  0.57160038  0.25000000  1
  S  S12  1  0.70529682  0.75475920  0.75000000  1
  S  S13  1  0.20787234  0.74435901  0.75000000  1
  S  S14  1  0.29153440  0.24252908  0.25000000  1
  S  S15  1  0.79578676  0.26514842  0.25000000  1
loop_
_geom_bond_atom_site_label_1
_geom_bond_atom_site_label_2
_geom_bond_distance
_geom_bond_site_symmetry_2
Cs0 S15 3.510252 1_555
Cs0 S14 3.537124 1_555
Cs0 S1 3.564650 1_554
Cs0 S6 3.596717 1_554
Cs0 S5 3.635958 1_555
Cs0 S8 3.710511 1_554
Cs0 S10 3.781249 1_545
Cs1 S14 3.501760 1_555
Cs1 S15 3.501785 1_455
Cs1 S0 3.604841 1_455
Cs1 S7 3.638518 1_555
Cs1 S9 3.669543 1_555
Cs1 S4 3.690081 1_545
Cs1 S11 3.750758 1_455
Cs2 S13 3.509283 1_555
Cs2 S12 3.539742 1_555
Cs2 S4 3.603250 1_555
Cs2 S3 3.624570 1_555
Cs2 S7 3.632346 1_555
Cs2 S10 3.655370 1_555
Cs2 S8 3.781060 1_565
Cs3 S12 3.506526 1_555
Cs3 S13 3.558994 1_655
Cs3 S2 3.568899 1_656
Cs3 S5 3.599677 1_556
Cs3 S6 3.657473 1_565
Cs3 S11 3.667063 1_556
Cs3 S9 3.770667 1_655
Cs4 S13 3.509283 1_555
Cs4 S12 3.539742 1_555
Cs4 S2 3.603250 1_556
Cs4 S5 3.624570 1_556
Cs4 S1 3.632346 1_555
Cs4 S10 3.655370 1_556
Cs4 S8 3.781060 1_565
Cs5 S12 3.506526 1_555
Cs5 S13 3.558994 1_655
Cs5 S4 3.568899 1_655
Cs5 S3 3.599677 1_555
Cs5 S0 3.657473 1_565
Cs5 S11 3.667063 1_555
Cs5 S9 3.770667 1_655
Cs6 S15 3.510252 1_555
Cs6 S14 3.537124 1_555
Cs6 S7 3.564650 1_555
Cs6 S0 3.596717 1_555
Cs6 S3 3.635958 1_555
Cs6 S8 3.710511 1_555
Cs6 S10 3.781249 1_545
Cs7 S14 3.501760 1_555
Cs7 S15 3.501785 1_455
Cs7 S6 3.604841 1_454
Cs7 S1 3.638518 1_554
Cs7 S9 3.669543 1_554
Cs7 S2 3.690081 1_545
Cs7 S11 3.750758 1_455
Cs8 S12 3.492167 1_555
Cs8 S9 3.619528 1_655
Cs8 S8 3.694376 1_555
Cs8 S1 3.713319 1_555
Cs8 S7 3.713319 1_555
Cs9 S13 3.466851 1_545
Cs9 S8 3.624219 1_555
Cs9 S9 3.689358 1_555
Cs9 S6 3.703853 1_455
Cs9 S0 3.703853 1_455
Cs10 S14 3.449594 1_555
Cs10 S3 3.695998 1_555
Cs10 S5 3.695998 1_555
Cs10 S11 3.717681 1_455
Cs10 S10 3.721020 1_555
Cs11 S15 3.513032 1_565
Cs11 S10 3.615594 1_555
Cs11 S4 3.701112 1_655
Cs11 S2 3.701112 1_655
Cs11 S11 3.716790 1_555
Nb0 S6 2.287083 1_565
Nb0 S0 2.287083 1_565
Nb0 S12 2.290929 1_555
Nb0 S8 2.293999 1_565
Nb1 S13 2.285024 1_555
Nb1 S1 2.288468 1_555
Nb1 S7 2.288468 1_555
Nb1 S9 2.296394 1_555
Nb2 S4 2.285853 1_545
Nb2 S2 2.285853 1_545
Nb2 S14 2.287092 1_555
Nb2 S10 2.296896 1_545
Ir0 S3 2.205552 1_555
Ir0 S5 2.205552 1_555
Ir0 S15 2.212761 1_555
Ir0 S11 2.216381 1_555
