# generated using pymatgen
data_Ta3Nb(SiTe4)2
_symmetry_space_group_name_H-M   'P 1'
_cell_length_a   7.91855439
_cell_length_b   6.37719310
_cell_length_c   7.84194376
_cell_angle_alpha   97.51427725
_cell_angle_beta   104.50341266
_cell_angle_gamma   89.90298968
_symmetry_Int_Tables_number   1
_chemical_formula_structural   Ta3Nb(SiTe4)2
_chemical_formula_sum   'Ta3 Nb1 Si2 Te8'
_cell_volume   379.89268042
_cell_formula_units_Z   1
loop_
 _symmetry_equiv_pos_site_id
 _symmetry_equiv_pos_as_xyz
  1  'x, y, z'
loop_
 _atom_site_type_symbol
 _atom_site_label
 _atom_site_symmetry_multiplicity
 _atom_site_fract_x
 _atom_site_fract_y
 _atom_site_fract_z
 _atom_site_occupancy
  Ta  Ta0  1  0.08850118  0.10329644  0.99996676  1
  Ta  Ta1  1  0.41151622  0.89697555  0.99994698  1
  Ta  Ta2  1  0.58868265  0.39641328  0.00016957  1
  Nb  Nb0  1  0.91158331  0.60406933  0.99989580  1
  Si  Si0  1  0.25075713  0.50088042  0.99994207  1
  Si  Si1  1  0.74923585  0.00038506  0.00007001  1
  Te  Te0  1  0.07955927  0.73706719  0.74909420  1
  Te  Te1  1  0.20374396  0.81739727  0.25093346  1
  Te  Te2  1  0.29816082  0.18400132  0.74926341  1
  Te  Te3  1  0.42185338  0.26410100  0.25055335  1
  Te  Te4  1  0.57645857  0.68235091  0.74867396  1
  Te  Te5  1  0.70153130  0.76334215  0.25147440  1
  Te  Te6  1  0.79683238  0.23456162  0.74915208  1
  Te  Te7  1  0.92158500  0.31515946  0.25086196  1
loop_
_geom_bond_atom_site_label_1
_geom_bond_atom_site_label_2
_geom_bond_distance
_geom_bond_site_symmetry_2
Ta0 Te7 2.836325 1_456
Ta0 Te6 2.837663 1_455
Ta0 Te0 2.838851 1_545
Ta0 Te1 2.839636 1_546
Ta0 Te3 2.960575 1_556
Ta0 Te2 2.964572 1_555
Ta1 Te4 2.835425 1_555
Ta1 Te5 2.838125 1_556
Ta1 Te3 2.840230 1_566
Ta1 Te2 2.841202 1_565
Ta1 Te0 2.951903 1_555
Ta1 Te1 2.953697 1_556
Ta2 Te2 2.836363 1_554
Ta2 Te3 2.837031 1_555
Ta2 Te4 2.840503 1_554
Ta2 Te5 2.841946 1_555
Ta2 Te6 2.957170 1_554
Ta2 Te7 2.957781 1_555
Nb0 Si0 2.764049 1_655
Nb0 Si1 2.833601 1_566
Nb0 Te0 2.847319 1_655
Nb0 Te1 2.847367 1_656
Nb0 Te7 2.853754 1_556
Nb0 Te6 2.853990 1_555
Nb0 Ta2 2.882084 1_556
Nb0 Te5 2.967196 1_556
Nb0 Te4 2.967609 1_555
Si0 Te0 2.721832 1_555
Si0 Te1 2.722554 1_556
Si0 Te3 2.722782 1_556
Si0 Te2 2.723411 1_555
Si0 Ta2 2.756095 1_556
Si0 Ta1 2.830524 1_555
Si0 Ta0 2.844413 1_555
Si1 Te6 2.717713 1_554
Si1 Te7 2.718888 1_555
Si1 Te5 2.732961 1_545
Si1 Te4 2.735780 1_544
Si1 Ta1 2.755181 1_544
Si1 Ta0 2.766793 1_654
Si1 Ta2 2.825568 1_555
