# generated using pymatgen
data_Sr3BiRhO6
_symmetry_space_group_name_H-M   'P 1'
_cell_length_a   6.86027850
_cell_length_b   6.86029355
_cell_length_c   6.86030277
_cell_angle_alpha   90.54217620
_cell_angle_beta   90.54257302
_cell_angle_gamma   90.54209127
_symmetry_Int_Tables_number   1
_chemical_formula_structural   Sr3BiRhO6
_chemical_formula_sum   'Sr6 Bi2 Rh2 O12'
_cell_volume   322.82636788
_cell_formula_units_Z   2
loop_
 _symmetry_equiv_pos_site_id
 _symmetry_equiv_pos_as_xyz
  1  'x, y, z'
loop_
 _atom_site_type_symbol
 _atom_site_label
 _atom_site_symmetry_multiplicity
 _atom_site_fract_x
 _atom_site_fract_y
 _atom_site_fract_z
 _atom_site_occupancy
  Sr  Sr0  1  0.24999209  0.88173422  0.61826696  1
  Sr  Sr1  1  0.88174299  0.61826857  0.25000284  1
  Sr  Sr2  1  0.75000791  0.11826578  0.38173304  1
  Sr  Sr3  1  0.38172424  0.75000116  0.11826675  1
  Sr  Sr4  1  0.11825701  0.38173143  0.74999716  1
  Sr  Sr5  1  0.61827576  0.24999884  0.88173325  1
  Bi  Bi0  1  0.75000785  0.75000065  0.75000158  1
  Bi  Bi1  1  0.24999215  0.24999935  0.24999842  1
  Rh  Rh0  1  0.50000000  0.50000000  0.50000000  1
  Rh  Rh1  1  0.00000000  0.00000000  0.00000000  1
  O  O0  1  0.58206396  0.78754710  0.44705514  1
  O  O1  1  0.44705427  0.58206248  0.78754650  1
  O  O2  1  0.78755148  0.44705486  0.58206312  1
  O  O3  1  0.91794399  0.05294264  0.71247197  1
  O  O4  1  0.71247643  0.91794301  0.05294211  1
  O  O5  1  0.05294006  0.71247278  0.91794151  1
  O  O6  1  0.41793604  0.21245290  0.55294486  1
  O  O7  1  0.55294573  0.41793752  0.21245350  1
  O  O8  1  0.21244852  0.55294514  0.41793688  1
  O  O9  1  0.08205601  0.94705736  0.28752803  1
  O  O10  1  0.94705994  0.28752722  0.08205849  1
  O  O11  1  0.28752357  0.08205699  0.94705789  1
loop_
_geom_bond_atom_site_label_1
_geom_bond_atom_site_label_2
_geom_bond_distance
_geom_bond_site_symmetry_2
Bi0 O5 2.383897 1_655
Bi0 O3 2.383956 1_565
Bi0 O4 2.383971 1_556
Bi0 O2 2.383997 1_555
Bi0 O0 2.384014 1_555
Bi0 O1 2.384042 1_555
Bi1 O10 2.383897 1_455
Bi1 O9 2.383956 1_545
Bi1 O11 2.383971 1_554
Bi1 O8 2.383997 1_555
Bi1 O6 2.384014 1_555
Bi1 O7 2.384042 1_555
O0 Rh0 2.082468 1_555
O0 Sr2 2.579803 1_565
O0 Sr3 2.639423 1_555
O0 Sr0 2.655381 1_555
O0 Sr1 2.733283 1_555
O1 Rh0 2.082466 1_555
O1 Sr3 2.579810 1_556
O1 Sr4 2.639449 1_555
O1 Sr5 2.655354 1_555
O1 Sr0 2.733272 1_555
O2 Rh0 2.082486 1_555
O2 Sr4 2.579683 1_655
O2 Sr2 2.639399 1_555
O2 Sr1 2.655329 1_555
O2 Sr5 2.733246 1_555
O3 Rh1 2.082324 1_656
O3 Sr2 2.579895 1_555
O3 Sr4 2.639326 1_655
O3 Sr0 2.655255 1_645
O3 Sr5 2.733188 1_555
O4 Rh1 2.082297 1_665
O4 Sr3 2.580000 1_555
O4 Sr2 2.639378 1_565
O4 Sr5 2.655294 1_564
O4 Sr1 2.733244 1_555
O5 Rh1 2.082322 1_566
O5 Sr4 2.579934 1_555
O5 Sr3 2.639333 1_556
O5 Sr1 2.655308 1_456
O5 Sr0 2.733214 1_555
O6 Rh0 2.082468 1_555
O6 Sr0 2.579803 1_545
O6 Sr5 2.639423 1_555
O6 Sr2 2.655381 1_555
O6 Sr4 2.733283 1_555
O7 Rh0 2.082466 1_555
O7 Sr5 2.579810 1_554
O7 Sr1 2.639449 1_555
O7 Sr3 2.655354 1_555
O7 Sr2 2.733272 1_555
O8 Rh0 2.082486 1_555
O8 Sr1 2.579683 1_455
O8 Sr0 2.639399 1_555
O8 Sr4 2.655329 1_555
O8 Sr3 2.733246 1_555
O9 Rh1 2.082324 1_565
O9 Sr0 2.579895 1_555
O9 Sr1 2.639326 1_455
O9 Sr2 2.655255 1_465
O9 Sr3 2.733188 1_555
O10 Rh1 2.082322 1_655
O10 Sr1 2.579934 1_555
O10 Sr5 2.639333 1_554
O10 Sr4 2.655308 1_654
O10 Sr2 2.733214 1_555
O11 Rh1 2.082297 1_556
O11 Sr5 2.580000 1_555
O11 Sr0 2.639378 1_545
O11 Sr3 2.655294 1_546
O11 Sr4 2.733244 1_555
