# generated using pymatgen
data_Ti7B4Mo3P2
_symmetry_space_group_name_H-M   'P 1'
_cell_length_a   7.05673014
_cell_length_b   7.03616828
_cell_length_c   7.05229009
_cell_angle_alpha   129.53475532
_cell_angle_beta   129.61330253
_cell_angle_gamma   74.02574900
_symmetry_Int_Tables_number   1
_chemical_formula_structural   Ti7B4Mo3P2
_chemical_formula_sum   'Ti7 B4 Mo3 P2'
_cell_volume   202.95101954
_cell_formula_units_Z   1
loop_
 _symmetry_equiv_pos_site_id
 _symmetry_equiv_pos_as_xyz
  1  'x, y, z'
loop_
 _atom_site_type_symbol
 _atom_site_label
 _atom_site_symmetry_multiplicity
 _atom_site_fract_x
 _atom_site_fract_y
 _atom_site_fract_z
 _atom_site_occupancy
  Ti  Ti0  1  0.80871295  0.96320930  0.50000000  1
  Ti  Ti1  1  0.31097145  0.81003746  0.84941155  1
  Ti  Ti2  1  0.19069743  0.03778696  0.50000000  1
  Ti  Ti3  1  0.53544167  0.68812889  0.50000000  1
  Ti  Ti4  1  0.03826845  0.53928139  0.84778437  1
  Ti  Ti5  1  0.69048409  0.19149703  0.15221563  1
  Ti  Ti6  1  0.96155990  0.46062591  0.15058845  1
  B  B0  1  0.39001894  0.88926147  0.28025362  1
  B  B1  1  0.89051035  0.61134869  0.50000000  1
  B  B2  1  0.60976633  0.10900885  0.71974638  1
  B  B3  1  0.11061495  0.38939900  0.50000000  1
  Mo  Mo0  1  0.00088822  0.00043639  0.00034511  1
  Mo  Mo1  1  0.50054311  0.50009028  0.99965489  1
  Mo  Mo2  1  0.46174088  0.30828340  0.50000000  1
  P  P0  1  0.75006605  0.75097739  0.00034981  1
  P  P1  1  0.24971624  0.25062758  0.99965019  1
loop_
_geom_bond_atom_site_label_1
_geom_bond_atom_site_label_2
_geom_bond_distance
_geom_bond_site_symmetry_2
B0 B2 1.868554 1_565
B0 Mo2 2.314005 1_565
B0 Ti2 2.319683 1_565
B0 Ti0 2.320078 1_555
B0 Ti3 2.328575 1_555
B0 Ti4 2.382481 1_554
B0 Ti1 2.389031 1_554
B0 Mo1 2.432390 1_554
B0 Mo0 2.433151 1_565
B1 B3 1.875161 1_655
B1 Ti4 2.321872 1_655
B1 Ti5 2.321873 1_555
B1 Ti6 2.324651 1_555
B1 Ti1 2.324651 1_655
B1 Ti0 2.382427 1_555
B1 Ti3 2.413494 1_555
B1 Mo1 2.433743 1_554
B1 Mo0 2.433745 1_666
B2 Mo2 2.313997 1_555
B2 Ti2 2.319690 1_555
B2 Ti0 2.320071 1_545
B2 Ti3 2.328582 1_545
B2 Ti5 2.382488 1_556
B2 Ti6 2.389024 1_556
B2 Mo0 2.432386 1_656
B2 Mo1 2.433148 1_555
B3 Ti4 2.322907 1_555
B3 Ti5 2.322907 1_455
B3 Ti6 2.325173 1_455
B3 Ti1 2.325174 1_555
B3 Ti2 2.381283 1_555
B3 Mo2 2.384714 1_555
B3 Mo0 2.432268 1_555
B3 Mo1 2.432270 1_555
Mo0 Ti6 2.682678 1_455
Mo0 Ti4 2.683658 1_544
Mo0 Mo2 2.689172 1_555
Mo0 Ti1 2.693896 1_544
Mo0 Ti0 2.697274 1_444
Mo0 Ti2 2.697371 1_555
Mo0 Ti5 2.700042 1_455
Mo0 Ti3 2.718409 1_444
Mo0 P1 2.811679 1_554
Mo0 P0 2.814929 1_445
Mo1 Ti1 2.682684 1_555
Mo1 Ti5 2.683651 1_556
Mo1 Mo2 2.689174 1_555
Mo1 Ti6 2.693896 1_556
Mo1 Ti0 2.697278 1_556
Mo1 Ti2 2.697367 1_555
Mo1 Ti4 2.700043 1_555
Mo1 Ti3 2.718407 1_556
Mo1 P0 2.811685 1_556
Mo1 P1 2.814924 1_555
Mo2 P1 2.575561 1_554
Mo2 P0 2.575562 1_556
Mo2 Ti3 2.859836 1_555
Mo2 Ti0 2.935664 1_545
P0 Ti3 2.551000 1_554
P0 Ti1 2.560334 1_554
P0 Ti5 2.561615 1_565
P0 Ti6 2.566070 1_555
P0 Ti2 2.566377 1_665
P0 Ti4 2.568123 1_654
P0 Ti0 2.568885 1_555
P1 Ti3 2.551000 1_556
P1 Ti6 2.560334 1_456
P1 Ti4 2.561615 1_555
P1 Ti1 2.566070 1_545
P1 Ti2 2.566377 1_555
P1 Ti5 2.568123 1_556
P1 Ti0 2.568885 1_445
