# generated using pymatgen
data_Y4Ta2(IrOs)3
_symmetry_space_group_name_H-M   'P 1'
_cell_length_a   5.61502145
_cell_length_b   5.61502202
_cell_length_c   8.27377784
_cell_angle_alpha   90.00000000
_cell_angle_beta   90.00000000
_cell_angle_gamma   120.00000249
_symmetry_Int_Tables_number   1
_chemical_formula_structural   Y4Ta2(IrOs)3
_chemical_formula_sum   'Y4 Ta2 Ir3 Os3'
_cell_volume   225.91099038
_cell_formula_units_Z   1
loop_
 _symmetry_equiv_pos_site_id
 _symmetry_equiv_pos_as_xyz
  1  'x, y, z'
loop_
 _atom_site_type_symbol
 _atom_site_label
 _atom_site_symmetry_multiplicity
 _atom_site_fract_x
 _atom_site_fract_y
 _atom_site_fract_z
 _atom_site_occupancy
  Y  Y0  1  0.33333300  0.66666700  0.43338377  1
  Y  Y1  1  0.66666700  0.33333300  0.55884599  1
  Y  Y2  1  0.66666700  0.33333300  0.94115401  1
  Y  Y3  1  0.33333300  0.66666700  0.06661623  1
  Ta  Ta0  1  0.00000000  0.00000000  0.50435469  1
  Ta  Ta1  1  0.00000000  0.00000000  0.99564531  1
  Ir  Ir0  1  0.82900294  0.17099706  0.25000000  1
  Ir  Ir1  1  0.82900294  0.65800588  0.25000000  1
  Ir  Ir2  1  0.34199412  0.17099706  0.25000000  1
  Os  Os0  1  0.17413990  0.82586010  0.75000000  1
  Os  Os1  1  0.17413990  0.34827881  0.75000000  1
  Os  Os2  1  0.65172119  0.82586010  0.75000000  1
loop_
_geom_bond_atom_site_label_1
_geom_bond_atom_site_label_2
_geom_bond_distance
_geom_bond_site_symmetry_2
Y0 Y3 3.034553 1_555
Y0 Y1 3.403969 1_455
Y0 Y1 3.403970 1_565
Y0 Y1 3.403979 1_555
Y1 Y2 3.163132 1_555
Y2 Y3 3.403969 1_656
Y2 Y3 3.403970 1_546
Y2 Y3 3.403979 1_556
Ta0 Y1 3.273031 1_455
Ta0 Y1 3.273036 1_555
Ta0 Y1 3.273036 1_445
Ta0 Y0 3.294582 1_545
Ta0 Y0 3.294586 1_445
Ta0 Y0 3.294587 1_555
Ta1 Y2 3.273031 1_455
Ta1 Y2 3.273036 1_555
Ta1 Y2 3.273036 1_445
Ta1 Y3 3.294582 1_546
Ta1 Y3 3.294586 1_446
Ta1 Y3 3.294587 1_556
Ir0 Ta0 2.682254 1_655
Ir0 Ta1 2.682254 1_654
Ir0 Ir2 2.734565 1_555
Ir0 Ir1 2.734565 1_555
Ir0 Ir2 2.880456 1_655
Ir0 Ir1 2.880457 1_545
Ir0 Y1 3.003711 1_555
Ir0 Y2 3.003711 1_554
Ir0 Y0 3.191554 1_655
Ir0 Y3 3.191554 1_655
Ir0 Y0 3.191554 1_545
Ir0 Y3 3.191554 1_545
Ir1 Ta0 2.682254 1_665
Ir1 Ta1 2.682254 1_664
Ir1 Ir2 2.734565 1_555
Ir1 Ir2 2.880456 1_665
Ir1 Y1 3.003714 1_555
Ir1 Y2 3.003714 1_554
Ir1 Y0 3.191552 1_655
Ir1 Y3 3.191552 1_655
Ir1 Y0 3.191557 1_555
Ir1 Y3 3.191557 1_555
Ir2 Ta0 2.682254 1_555
Ir2 Ta1 2.682254 1_554
Ir2 Y1 3.003714 1_555
Ir2 Y2 3.003714 1_554
Ir2 Y0 3.191552 1_545
Ir2 Y3 3.191552 1_545
Ir2 Y0 3.191557 1_555
Ir2 Y3 3.191557 1_555
Os0 Ta1 2.645559 1_565
Os0 Ta0 2.645559 1_565
Os0 Os2 2.681629 1_555
Os0 Os1 2.681629 1_555
Os0 Os2 2.933392 1_455
Os0 Os1 2.933393 1_565
Os0 Y3 3.042925 1_556
Os0 Y0 3.042925 1_555
Os0 Y2 3.223158 1_455
Os0 Y1 3.223158 1_455
Os0 Y2 3.223158 1_565
Os0 Y1 3.223158 1_565
Os1 Ta1 2.645556 1_555
Os1 Ta0 2.645556 1_555
Os1 Os2 2.681629 1_555
Os1 Os2 2.933392 1_445
Os1 Y3 3.042930 1_556
Os1 Y0 3.042930 1_555
Os1 Y2 3.223158 1_455
Os1 Y1 3.223158 1_455
Os1 Y2 3.223158 1_555
Os1 Y1 3.223158 1_555
Os2 Ta1 2.645556 1_665
Os2 Ta0 2.645556 1_665
Os2 Y3 3.042930 1_556
Os2 Y0 3.042930 1_555
Os2 Y2 3.223158 1_555
Os2 Y1 3.223158 1_555
Os2 Y2 3.223158 1_565
Os2 Y1 3.223158 1_565
