# generated using pymatgen
data_Lu4ReSi4Tc
_symmetry_space_group_name_H-M   'P 1'
_cell_length_a   5.66587780
_cell_length_b   5.66587866
_cell_length_c   9.84078408
_cell_angle_alpha   116.07091963
_cell_angle_beta   116.07092236
_cell_angle_gamma   42.65212214
_symmetry_Int_Tables_number   1
_chemical_formula_structural   Lu4ReSi4Tc
_chemical_formula_sum   'Lu4 Re1 Si4 Tc1'
_cell_volume   188.72486201
_cell_formula_units_Z   1
loop_
 _symmetry_equiv_pos_site_id
 _symmetry_equiv_pos_as_xyz
  1  'x, y, z'
loop_
 _atom_site_type_symbol
 _atom_site_label
 _atom_site_symmetry_multiplicity
 _atom_site_fract_x
 _atom_site_fract_y
 _atom_site_fract_z
 _atom_site_occupancy
  Lu  Lu0  1  0.00635354  0.00635354  0.17739288  1
  Lu  Lu1  1  0.81351830  0.81351830  0.38962921  1
  Lu  Lu2  1  0.18619688  0.18619688  0.61134076  1
  Lu  Lu3  1  0.99432320  0.99432320  0.82315647  1
  Re  Re0  1  0.72799359  0.72799359  0.86752225  1
  Si  Si0  1  0.63889719  0.63889719  0.05919095  1
  Si  Si1  1  0.50423756  0.50423756  0.37796087  1
  Si  Si2  1  0.49531962  0.49531962  0.62165278  1
  Si  Si3  1  0.36190815  0.36190815  0.94168241  1
  Tc  Tc0  1  0.27125099  0.27125099  0.13047142  1
loop_
_geom_bond_atom_site_label_1
_geom_bond_atom_site_label_2
_geom_bond_distance
_geom_bond_site_symmetry_2
Lu0 Si1 2.860697 1_455
Lu0 Si1 2.860697 1_545
Lu0 Si3 2.934942 1_454
Lu0 Si3 2.934942 1_544
Lu0 Si0 3.015289 1_545
Lu0 Si0 3.015290 1_455
Lu0 Tc0 3.041429 1_555
Lu0 Re0 3.078620 1_444
Lu0 Tc0 3.088140 1_455
Lu0 Tc0 3.088141 1_545
Lu1 Si0 2.883741 1_555
Lu1 Si1 2.920633 1_655
Lu1 Si1 2.920633 1_565
Lu1 Si2 3.001249 1_655
Lu1 Si2 3.001250 1_565
Lu1 Tc0 3.142504 1_565
Lu1 Tc0 3.142504 1_655
Lu1 Si1 3.212136 1_555
Lu2 Si3 2.884214 1_555
Lu2 Si2 2.916973 1_455
Lu2 Si2 2.916973 1_545
Lu2 Si1 3.007864 1_455
Lu2 Si1 3.007865 1_545
Lu2 Re0 3.121944 1_545
Lu2 Re0 3.121944 1_455
Lu2 Si2 3.216414 1_555
Lu3 Si2 2.863165 1_655
Lu3 Si2 2.863165 1_565
Lu3 Si0 2.936880 1_656
Lu3 Si0 2.936880 1_566
Lu3 Si3 3.016341 1_565
Lu3 Si3 3.016342 1_655
Lu3 Re0 3.041766 1_555
Lu3 Tc0 3.057680 1_666
Lu3 Re0 3.082909 1_655
Lu3 Re0 3.082910 1_565
Re0 Si3 2.408984 1_655
Re0 Si3 2.408985 1_565
Re0 Si0 2.473051 1_556
Re0 Si2 2.505833 1_555
Si0 Tc0 2.401050 1_655
Si0 Tc0 2.401051 1_565
Si0 Si3 2.587623 1_554
Si1 Si2 2.443942 1_555
Si1 Tc0 2.515609 1_555
Si3 Tc0 2.458633 1_556
