# generated using pymatgen
data_Ca3Ni6B2Pd
_symmetry_space_group_name_H-M   'P 1'
_cell_length_a   7.80337035
_cell_length_b   7.80337037
_cell_length_c   7.80336973
_cell_angle_alpha   38.32799645
_cell_angle_beta   38.32799621
_cell_angle_gamma   38.32799704
_symmetry_Int_Tables_number   1
_chemical_formula_structural   Ca3Ni6B2Pd
_chemical_formula_sum   'Ca3 Ni6 B2 Pd1'
_cell_volume   164.14399405
_cell_formula_units_Z   1
loop_
 _symmetry_equiv_pos_site_id
 _symmetry_equiv_pos_as_xyz
  1  'x, y, z'
loop_
 _atom_site_type_symbol
 _atom_site_label
 _atom_site_symmetry_multiplicity
 _atom_site_fract_x
 _atom_site_fract_y
 _atom_site_fract_z
 _atom_site_occupancy
  Ca  Ca0  1  0.64352827  0.64352827  0.64352827  1
  Ca  Ca1  1  0.35647173  0.35647173  0.35647173  1
  Ca  Ca2  1  0.50000000  0.50000000  0.50000000  1
  Ni  Ni0  1  0.56734801  0.06008633  0.06008633  1
  Ni  Ni1  1  0.06008633  0.06008633  0.56734801  1
  Ni  Ni2  1  0.06008633  0.56734801  0.06008633  1
  Ni  Ni3  1  0.93991367  0.43265199  0.93991367  1
  Ni  Ni4  1  0.93991367  0.93991367  0.43265199  1
  Ni  Ni5  1  0.43265199  0.93991367  0.93991367  1
  B  B0  1  0.83142821  0.83142821  0.83142821  1
  B  B1  1  0.16857179  0.16857179  0.16857179  1
  Pd  Pd0  1  0.00000000  0.00000000  0.00000000  1
loop_
_geom_bond_atom_site_label_1
_geom_bond_atom_site_label_2
_geom_bond_distance
_geom_bond_site_symmetry_2
Ca0 Pd0 3.000094 1_665
Ca0 Pd0 3.000094 1_566
Ca0 Pd0 3.000094 1_656
Ca0 Ni2 3.105331 1_655
Ca0 Ni0 3.105331 1_565
Ca0 Ni1 3.105331 1_565
Ca0 Ni1 3.105331 1_655
Ca0 Ni2 3.105331 1_556
Ca0 Ni0 3.105331 1_556
Ca0 Ca2 3.109266 1_555
Ca0 Ni3 3.139439 1_555
Ca0 Ni5 3.139439 1_555
Ca0 Ni4 3.139439 1_555
Ca1 Pd0 3.000094 1_556
Ca1 Pd0 3.000094 1_655
Ca1 Pd0 3.000094 1_565
Ca1 Ni3 3.105331 1_455
Ca1 Ni5 3.105331 1_545
Ca1 Ni4 3.105331 1_545
Ca1 Ni4 3.105331 1_455
Ca1 Ni3 3.105331 1_554
Ca1 Ni5 3.105331 1_554
Ca1 Ca2 3.109266 1_555
Ca1 Ni2 3.139439 1_555
Ca1 Ni0 3.139439 1_555
Ca1 Ni1 3.139439 1_555
Ca2 Ni2 2.897587 1_556
Ca2 Ni3 2.897587 1_554
Ca2 Ni0 2.897587 1_556
Ca2 Ni5 2.897587 1_554
Ca2 Ni1 2.897587 1_655
Ca2 Ni4 2.897587 1_455
Ca2 Ni2 2.897587 1_655
Ca2 Ni3 2.897587 1_455
Ca2 Ni1 2.897587 1_565
Ca2 Ni4 2.897587 1_545
Ca2 Ni0 2.897587 1_565
Ca2 Ni5 2.897587 1_545
Ni0 Pd0 2.686205 1_655
Ni1 Pd0 2.686205 1_556
Ni2 Pd0 2.686205 1_565
Ni3 Pd0 2.686205 1_656
Ni4 Pd0 2.686205 1_665
Ni5 Pd0 2.686205 1_566
B0 Ni4 1.993696 1_555
B0 Ni5 1.993696 1_555
B0 Ni3 1.993696 1_555
B0 Ni0 2.017745 1_566
B0 Ni2 2.017745 1_656
B0 Ni1 2.017745 1_665
B0 Ca2 2.958212 1_556
B0 Ca2 2.958212 1_655
B0 Ca2 2.958212 1_565
B1 Ni1 1.993696 1_555
B1 Ni0 1.993696 1_555
B1 Ni2 1.993696 1_555
B1 Ni5 2.017745 1_544
B1 Ni3 2.017745 1_454
B1 Ni4 2.017745 1_445
B1 Ca2 2.958212 1_554
B1 Ca2 2.958212 1_455
B1 Ca2 2.958212 1_545
