# generated using pymatgen
data_Hf3Al3OsAu2
_symmetry_space_group_name_H-M   'P 1'
_cell_length_a   7.23297883
_cell_length_b   7.23297630
_cell_length_c   7.03719293
_cell_angle_alpha   90.00002157
_cell_angle_beta   89.99998187
_cell_angle_gamma   119.99995500
_symmetry_Int_Tables_number   1
_chemical_formula_structural   Hf3Al3OsAu2
_chemical_formula_sum   'Hf6 Al6 Os2 Au4'
_cell_volume   318.83392290
_cell_formula_units_Z   2
loop_
 _symmetry_equiv_pos_site_id
 _symmetry_equiv_pos_as_xyz
  1  'x, y, z'
loop_
 _atom_site_type_symbol
 _atom_site_label
 _atom_site_symmetry_multiplicity
 _atom_site_fract_x
 _atom_site_fract_y
 _atom_site_fract_z
 _atom_site_occupancy
  Hf  Hf0  1  0.60486796  0.00679311  0.75000092  1
  Hf  Hf1  1  0.99320552  0.59807459  0.75000063  1
  Hf  Hf2  1  0.40192501  0.39513166  0.75000085  1
  Hf  Hf3  1  0.96785478  0.58695088  0.24999933  1
  Hf  Hf4  1  0.61909640  0.03214715  0.24999925  1
  Hf  Hf5  1  0.41304965  0.38090419  0.24999948  1
  Al  Al0  1  0.73078730  0.73328791  0.99794940  1
  Al  Al1  1  0.26671192  0.99749900  0.99794898  1
  Al  Al2  1  0.00250122  0.26921252  0.99794902  1
  Al  Al3  1  0.73078898  0.73329042  0.50205086  1
  Al  Al4  1  0.26670952  0.99749832  0.50205139  1
  Al  Al5  1  0.00250153  0.26921055  0.50205107  1
  Os  Os0  1  0.66666633  0.33333350  0.98668391  1
  Os  Os1  1  0.66666626  0.33333358  0.51331613  1
  Au  Au0  1  0.99999982  0.99999973  0.75000184  1
  Au  Au1  1  0.99999969  0.99999970  0.24999835  1
  Au  Au2  1  0.33333359  0.66666707  0.47206838  1
  Au  Au3  1  0.33333352  0.66666713  0.02793121  1
loop_
_geom_bond_atom_site_label_1
_geom_bond_atom_site_label_2
_geom_bond_distance
_geom_bond_site_symmetry_2
Hf0 Os0 2.737996 1_555
Hf0 Os1 2.738006 1_555
Hf1 Os0 2.737993 1_555
Hf1 Os1 2.737999 1_555
Hf2 Os0 2.737993 1_555
Hf2 Os1 2.737998 1_555
Hf3 Os0 2.747408 1_554
Hf3 Os1 2.747415 1_555
Hf4 Os0 2.747398 1_554
Hf4 Os1 2.747405 1_555
Hf5 Os0 2.747402 1_554
Hf5 Os1 2.747408 1_555
Al0 Au0 2.607921 1_555
Al0 Au1 2.627318 1_556
Al0 Au3 2.675030 1_556
Al0 Os0 2.692278 1_555
Al0 Hf2 2.977744 1_555
Al0 Hf3 3.003591 1_556
Al0 Hf5 3.011062 1_556
Al0 Hf1 3.075706 1_555
Al0 Hf0 3.096657 1_565
Al0 Hf4 3.196516 1_566
Al1 Au0 2.607920 1_455
Al1 Au1 2.627322 1_456
Al1 Au3 2.675024 1_556
Al1 Os0 2.692283 1_565
Al1 Hf0 2.977739 1_565
Al1 Hf5 3.003597 1_566
Al1 Hf4 3.011061 1_566
Al1 Hf2 3.075711 1_565
Al1 Hf1 3.096659 1_455
Al1 Hf3 3.196509 1_456
Al2 Au0 2.607917 1_445
Al2 Au1 2.627319 1_446
Al2 Au3 2.675033 1_556
Al2 Os0 2.692289 1_455
Al2 Hf1 2.977747 1_455
Al2 Hf4 3.003593 1_456
Al2 Hf3 3.011066 1_456
Al2 Hf0 3.075715 1_455
Al2 Hf2 3.096653 1_555
Al2 Hf5 3.196510 1_556
Al3 Au0 2.607925 1_555
Al3 Au1 2.627324 1_555
Al3 Au2 2.675035 1_555
Al3 Os1 2.692291 1_555
Al3 Hf2 2.977763 1_555
Al3 Hf3 3.003600 1_555
Al3 Hf5 3.011080 1_555
Al3 Hf1 3.075713 1_555
Al3 Hf0 3.096656 1_565
Al3 Hf4 3.196517 1_565
Al4 Au0 2.607924 1_455
Al4 Au1 2.627329 1_455
Al4 Au2 2.675032 1_555
Al4 Os1 2.692295 1_565
Al4 Hf0 2.977759 1_565
Al4 Hf5 3.003605 1_565
Al4 Hf4 3.011081 1_565
Al4 Hf2 3.075717 1_565
Al4 Hf1 3.096657 1_455
Al4 Hf3 3.196509 1_455
Al5 Au0 2.607923 1_445
Al5 Au1 2.627323 1_445
Al5 Au2 2.675041 1_555
Al5 Os1 2.692300 1_455
Al5 Hf1 2.977763 1_455
Al5 Hf4 3.003600 1_455
Al5 Hf3 3.011085 1_455
Al5 Hf0 3.075721 1_455
Al5 Hf2 3.096656 1_555
Al5 Hf5 3.196509 1_555
Au0 Hf1 2.882858 1_555
Au0 Hf0 2.882863 1_565
Au0 Hf2 2.882864 1_665
Au1 Hf3 2.878372 1_555
Au1 Hf4 2.878379 1_565
Au1 Hf5 2.878381 1_665
Au2 Hf5 2.870279 1_555
Au2 Hf3 2.870281 1_455
Au2 Hf4 2.870287 1_565
Au2 Hf0 2.983829 1_565
Au2 Hf2 2.983833 1_555
Au2 Hf1 2.983837 1_455
Au2 Au3 3.125479 1_555
Au3 Hf3 2.870276 1_455
Au3 Hf5 2.870278 1_555
Au3 Hf4 2.870282 1_565
Au3 Hf0 2.983819 1_564
Au3 Hf2 2.983823 1_554
Au3 Hf1 2.983829 1_454
