# generated using pymatgen
data_K3Y(TaS4)2
_symmetry_space_group_name_H-M   'P 1'
_cell_length_a   8.87335223
_cell_length_b   10.31704269
_cell_length_c   11.03355810
_cell_angle_alpha   107.72029662
_cell_angle_beta   102.25103068
_cell_angle_gamma   113.97679463
_symmetry_Int_Tables_number   1
_chemical_formula_structural   K3Y(TaS4)2
_chemical_formula_sum   'K6 Y2 Ta4 S16'
_cell_volume   811.03509959
_cell_formula_units_Z   2
loop_
 _symmetry_equiv_pos_site_id
 _symmetry_equiv_pos_as_xyz
  1  'x, y, z'
loop_
 _atom_site_type_symbol
 _atom_site_label
 _atom_site_symmetry_multiplicity
 _atom_site_fract_x
 _atom_site_fract_y
 _atom_site_fract_z
 _atom_site_occupancy
  K  K0  1  0.50003590  0.50002044  0.00003910  1
  K  K1  1  0.99998555  0.49999184  0.99999831  1
  K  K2  1  0.75416139  0.00415827  0.00848605  1
  K  K3  1  0.98851569  0.73835336  0.47669893  1
  K  K4  1  0.01147188  0.26164337  0.52330407  1
  K  K5  1  0.24586871  0.99584796  0.99152192  1
  Y  Y0  1  0.49312558  0.24313549  0.48636473  1
  Y  Y1  1  0.50686748  0.75686700  0.51363208  1
  Ta  Ta0  1  0.24735911  0.34937899  0.25399942  1
  Ta  Ta1  1  0.50635222  0.90438823  0.25392735  1
  Ta  Ta2  1  0.49364280  0.09559802  0.74606303  1
  Ta  Ta3  1  0.75263517  0.65062845  0.74600337  1
  S  S0  1  0.14266679  0.26892748  0.02412694  1
  S  S1  1  0.38108096  0.75487437  0.02402114  1
  S  S2  1  0.16026835  0.13069176  0.29484426  1
  S  S3  1  0.63406006  0.16390458  0.29471515  1
  S  S4  1  0.30321184  0.86098796  0.35248866  1
  S  S5  1  0.54911120  0.49146997  0.35242961  1
  S  S6  1  0.71102930  0.85431160  0.35951804  1
  S  S7  1  0.14829154  0.50505140  0.35966238  1
  S  S8  1  0.85169915  0.49494378  0.64034935  1
  S  S9  1  0.28897712  0.14569809  0.64048682  1
  S  S10  1  0.45088671  0.50854254  0.64756420  1
  S  S11  1  0.69676671  0.13898830  0.64748305  1
  S  S12  1  0.36592599  0.83608769  0.70527910  1
  S  S13  1  0.83972971  0.86931195  0.70514628  1
  S  S14  1  0.61893777  0.24510558  0.97597177  1
  S  S15  1  0.85733733  0.73109151  0.97587585  1
loop_
_geom_bond_atom_site_label_1
_geom_bond_atom_site_label_2
_geom_bond_distance
_geom_bond_site_symmetry_2
K0 S1 3.169890 1_555
K0 S14 3.170064 1_554
K0 S15 3.226295 1_554
K0 S0 3.226368 1_555
K1 S0 3.170651 1_656
K1 S15 3.170776 1_555
K1 S14 3.222839 1_555
K1 S1 3.223137 1_656
K2 S15 3.243986 1_544
K2 S14 3.245354 1_554
K2 S0 3.344090 1_655
K2 S1 3.345536 1_545
K2 S12 3.576201 1_544
K2 S13 3.579993 1_544
K2 S2 3.675099 1_655
K2 S3 3.676017 1_555
K3 S13 3.272726 1_555
K3 S12 3.273475 1_655
K3 S4 3.329387 1_655
K3 S5 3.332226 1_555
K3 S7 3.336082 1_655
K3 S6 3.339176 1_555
K3 S8 3.500497 1_555
K3 S9 3.501632 1_665
K4 S2 3.272870 1_555
K4 S3 3.273514 1_455
K4 S11 3.329240 1_455
K4 S10 3.332330 1_555
K4 S8 3.336072 1_455
K4 S9 3.339213 1_555
K4 S7 3.500412 1_555
K4 S6 3.501506 1_445
K5 S0 3.244269 1_566
K5 S1 3.245501 1_556
K5 S15 3.344174 1_455
K5 S14 3.345446 1_565
K5 S3 3.575919 1_566
K5 S2 3.579984 1_566
K5 S13 3.675381 1_455
K5 S12 3.675923 1_555
S0 Ta0 2.253148 1_555
S1 Ta1 2.253357 1_555
S2 Ta0 2.289207 1_555
S2 Y0 2.758431 1_555
S3 Ta1 2.289005 1_545
S3 Y0 2.757605 1_555
S4 Ta1 2.259336 1_555
S4 Y1 2.992928 1_555
S4 Y0 3.250336 1_565
S5 Ta0 2.259294 1_555
S5 Y1 2.992288 1_555
S5 Y0 3.252199 1_555
S6 Ta1 2.270187 1_555
S6 Y1 2.837573 1_555
S7 Ta0 2.270238 1_555
S7 Y1 2.839078 1_555
S8 Ta3 2.270265 1_555
S8 Y0 2.839058 1_555
S9 Ta2 2.270214 1_555
S9 Y0 2.837553 1_555
S10 Ta3 2.259270 1_555
S10 Y0 2.992331 1_555
S10 Y1 3.252088 1_555
S11 Ta2 2.259361 1_555
S11 Y0 2.992901 1_555
S11 Y1 3.250118 1_545
S12 Ta2 2.288958 1_565
S12 Y1 2.757603 1_555
S13 Ta3 2.289248 1_555
S13 Y1 2.758432 1_555
S14 Ta2 2.253365 1_555
S15 Ta3 2.253134 1_555
