# generated using pymatgen
data_Y5HgIO12
_symmetry_space_group_name_H-M   'P 1'
_cell_length_a   6.52315611
_cell_length_b   6.38667906
_cell_length_c   6.53040963
_cell_angle_alpha   98.50891817
_cell_angle_beta   99.55373907
_cell_angle_gamma   96.50697812
_symmetry_Int_Tables_number   1
_chemical_formula_structural   Y5HgIO12
_chemical_formula_sum   'Y5 Hg1 I1 O12'
_cell_volume   262.67367821
_cell_formula_units_Z   1
loop_
 _symmetry_equiv_pos_site_id
 _symmetry_equiv_pos_as_xyz
  1  'x, y, z'
loop_
 _atom_site_type_symbol
 _atom_site_label
 _atom_site_symmetry_multiplicity
 _atom_site_fract_x
 _atom_site_fract_y
 _atom_site_fract_z
 _atom_site_occupancy
  Y  Y0  1  0.39499022  0.69575526  0.85677614  1
  Y  Y1  1  0.85904855  0.38471850  0.67879065  1
  Y  Y2  1  0.67982491  0.85073016  0.38864441  1
  Y  Y3  1  0.60672558  0.31542939  0.13597488  1
  Y  Y4  1  0.14382361  0.60560811  0.31570005  1
  Hg  Hg0  1  0.32218880  0.15167298  0.59146843  1
  I  I0  1  0.99138230  0.99156237  0.00222071  1
  O  O0  1  0.18842403  0.43759442  0.60194116  1
  O  O1  1  0.63405070  0.18045117  0.42241018  1
  O  O2  1  0.42792611  0.59725154  0.17660593  1
  O  O3  1  0.82836326  0.56389046  0.39890643  1
  O  O4  1  0.39719517  0.83290627  0.56187081  1
  O  O5  1  0.60235167  0.44678865  0.83825721  1
  O  O6  1  0.91116486  0.01996362  0.72015779  1
  O  O7  1  0.96742303  0.28494064  0.07509597  1
  O  O8  1  0.28085223  0.05808157  0.00552150  1
  O  O9  1  0.03432035  0.94404011  0.28237045  1
  O  O10  1  0.03116359  0.70247888  0.92567642  1
  O  O11  1  0.69878003  0.93613592  0.02161090  1
loop_
_geom_bond_atom_site_label_1
_geom_bond_atom_site_label_2
_geom_bond_distance
_geom_bond_site_symmetry_2
Hg0 O0 2.108232 1_555
Hg0 O4 2.135929 1_545
Hg0 O1 2.472235 1_555
Hg0 O9 2.597006 1_545
Hg0 O5 2.613901 1_555
I0 O6 1.870847 1_564
I0 O9 1.879122 1_655
I0 O8 1.883727 1_665
I0 O7 1.894438 1_565
I0 O10 1.898554 1_654
I0 O11 1.929974 1_555
O0 Y4 2.283432 1_555
O0 Y1 2.286018 1_455
O0 Y0 2.289927 1_555
O1 Y2 2.144580 1_545
O1 Y3 2.162217 1_555
O1 Y1 2.182481 1_555
O2 Y4 2.197569 1_555
O2 Y0 2.252730 1_554
O2 Y3 2.260003 1_555
O2 Y2 2.283999 1_555
O3 Y2 2.171745 1_555
O3 Y4 2.211450 1_655
O3 Y1 2.289024 1_555
O3 Y3 2.325138 1_555
O4 Y0 2.232024 1_555
O4 Y4 2.303701 1_555
O4 Y2 2.318298 1_555
O5 Y1 2.156990 1_555
O5 Y0 2.203970 1_555
O5 Y3 2.225833 1_556
O6 Y1 2.439407 1_555
O6 Y2 2.446585 1_545
O7 Y4 2.429125 1_655
O7 Y3 2.474568 1_555
O7 Y1 2.754381 1_554
O8 Y3 2.477601 1_555
O8 Y0 2.611160 1_544
O9 Y4 2.380556 1_555
O9 Y2 2.554781 1_455
O10 Y1 2.427544 1_455
O10 Y0 2.491724 1_555
O10 Y4 2.712593 1_556
O11 Y0 2.357118 1_554
O11 Y2 2.554962 1_555
O11 Y3 2.594162 1_565
