# generated using pymatgen
data_Be6Co2ReMo3
_symmetry_space_group_name_H-M   'P 1'
_cell_length_a   4.50321178
_cell_length_b   4.50321159
_cell_length_c   7.21561559
_cell_angle_alpha   90.00000000
_cell_angle_beta   90.00000000
_cell_angle_gamma   120.00000859
_symmetry_Int_Tables_number   1
_chemical_formula_structural   Be6Co2ReMo3
_chemical_formula_sum   'Be6 Co2 Re1 Mo3'
_cell_volume   126.72103379
_cell_formula_units_Z   1
loop_
 _symmetry_equiv_pos_site_id
 _symmetry_equiv_pos_as_xyz
  1  'x, y, z'
loop_
 _atom_site_type_symbol
 _atom_site_label
 _atom_site_symmetry_multiplicity
 _atom_site_fract_x
 _atom_site_fract_y
 _atom_site_fract_z
 _atom_site_occupancy
  Be  Be0  1  0.83272350  0.66544799  0.25298239  1
  Be  Be1  1  0.16890329  0.83109671  0.74733356  1
  Be  Be2  1  0.66219442  0.83109671  0.74733356  1
  Be  Be3  1  0.33455201  0.16727650  0.25298239  1
  Be  Be4  1  0.83272350  0.16727650  0.25298239  1
  Be  Be5  1  0.16890329  0.33780558  0.74733356  1
  Co  Co0  1  0.00000000  0.00000000  0.00013178  1
  Co  Co1  1  0.00000000  0.00000000  0.49990946  1
  Re  Re0  1  0.33333300  0.66666700  0.43006395  1
  Mo  Mo0  1  0.33333300  0.66666700  0.07179508  1
  Mo  Mo1  1  0.66666700  0.33333300  0.56676371  1
  Mo  Mo2  1  0.66666700  0.33333300  0.93038616  1
loop_
_geom_bond_atom_site_label_1
_geom_bond_atom_site_label_2
_geom_bond_distance
_geom_bond_site_symmetry_2
Be0 Co1 2.208360 1_665
Be0 Co0 2.242987 1_665
Be0 Be3 2.243371 1_555
Be0 Be4 2.243372 1_555
Be0 Be3 2.259840 1_665
Be0 Be4 2.259840 1_565
Be0 Re0 2.588900 1_655
Be0 Re0 2.588900 1_555
Be0 Mo0 2.603649 1_655
Be0 Mo0 2.603649 1_555
Be0 Mo1 2.608418 1_555
Be0 Mo2 2.663814 1_554
Be1 Co1 2.218767 1_565
Be1 Be5 2.221394 1_555
Be1 Be2 2.221394 1_555
Be1 Co0 2.250087 1_566
Be1 Be5 2.281817 1_565
Be1 Be2 2.281817 1_455
Be1 Mo1 2.601469 1_565
Be1 Mo1 2.601469 1_455
Be1 Mo2 2.610487 1_565
Be1 Mo2 2.610487 1_455
Be1 Re0 2.624067 1_555
Be1 Mo0 2.669461 1_556
Be2 Co1 2.218765 1_665
Be2 Be5 2.221394 1_555
Be2 Co0 2.250085 1_666
Be2 Be5 2.281817 1_665
Be2 Mo1 2.601469 1_565
Be2 Mo1 2.601469 1_555
Be2 Mo2 2.610487 1_565
Be2 Mo2 2.610487 1_555
Be2 Re0 2.624070 1_555
Be2 Mo0 2.669464 1_556
Be3 Co1 2.208360 1_555
Be3 Co0 2.242987 1_555
Be3 Be4 2.243372 1_555
Be3 Be4 2.259840 1_455
Be3 Re0 2.588900 1_545
Be3 Re0 2.588900 1_555
Be3 Mo0 2.603649 1_545
Be3 Mo0 2.603649 1_555
Be3 Mo1 2.608418 1_555
Be3 Mo2 2.663814 1_554
Be4 Co1 2.208362 1_655
Be4 Co0 2.242989 1_655
Be4 Re0 2.588900 1_545
Be4 Re0 2.588900 1_655
Be4 Mo0 2.603649 1_545
Be4 Mo0 2.603649 1_655
Be4 Mo1 2.608414 1_555
Be4 Mo2 2.663811 1_554
Be5 Co1 2.218765 1_555
Be5 Co0 2.250085 1_556
Be5 Mo1 2.601469 1_455
Be5 Mo1 2.601469 1_555
Be5 Mo2 2.610487 1_455
Be5 Mo2 2.610487 1_555
Be5 Re0 2.624070 1_555
Be5 Mo0 2.669464 1_556
Co0 Mo2 2.648187 1_454
Co0 Mo2 2.648190 1_444
Co0 Mo2 2.648190 1_554
Co0 Mo0 2.650851 1_545
Co0 Mo0 2.650855 1_555
Co0 Mo0 2.650855 1_445
Co1 Mo1 2.644301 1_455
Co1 Mo1 2.644305 1_445
Co1 Mo1 2.644305 1_555
Co1 Re0 2.648324 1_545
Co1 Re0 2.648327 1_555
Co1 Re0 2.648328 1_445
Mo0 Re0 2.585130 1_555
Mo0 Mo2 2.792981 1_564
Mo0 Mo2 2.792981 1_454
Mo0 Mo2 2.792989 1_554
Mo1 Mo2 2.623760 1_555
Mo1 Re0 2.780747 1_545
Mo1 Re0 2.780747 1_655
Mo1 Re0 2.780755 1_555
