# generated using pymatgen
data_Na16HfTiSb8
_symmetry_space_group_name_H-M   'P 1'
_cell_length_a   10.36349252
_cell_length_b   10.36350510
_cell_length_c   10.36349621
_cell_angle_alpha   59.99993049
_cell_angle_beta   59.99998019
_cell_angle_gamma   59.99993695
_symmetry_Int_Tables_number   1
_chemical_formula_structural   Na16HfTiSb8
_chemical_formula_sum   'Na16 Hf1 Ti1 Sb8'
_cell_volume   787.05231147
_cell_formula_units_Z   1
loop_
 _symmetry_equiv_pos_site_id
 _symmetry_equiv_pos_as_xyz
  1  'x, y, z'
loop_
 _atom_site_type_symbol
 _atom_site_label
 _atom_site_symmetry_multiplicity
 _atom_site_fract_x
 _atom_site_fract_y
 _atom_site_fract_z
 _atom_site_occupancy
  Na  Na0  1  0.62280680  0.13144792  0.62280680  1
  Na  Na1  1  0.62280680  0.62280680  0.13144892  1
  Na  Na2  1  0.13144792  0.62280680  0.62280680  1
  Na  Na3  1  0.62287214  0.62287214  0.62287214  1
  Na  Na4  1  0.02561447  0.02561447  0.47446225  1
  Na  Na5  1  0.77587946  0.22391721  0.22391721  1
  Na  Na6  1  0.22406179  0.77597013  0.77597013  1
  Na  Na7  1  0.77596913  0.77596913  0.22406179  1
  Na  Na8  1  0.77597013  0.22406279  0.77596913  1
  Na  Na9  1  0.22391721  0.77587946  0.22391721  1
  Na  Na10  1  0.47440212  0.02554006  0.47440212  1
  Na  Na11  1  0.47446325  0.02561447  0.02561447  1
  Na  Na12  1  0.02553806  0.47440412  0.47440412  1
  Na  Na13  1  0.02561447  0.47446225  0.02561547  1
  Na  Na14  1  0.22391721  0.22391721  0.77587846  1
  Na  Na15  1  0.47440612  0.47440512  0.02553706  1
  Hf  Hf0  1  0.75005179  0.75005179  0.75005179  1
  Ti  Ti0  1  0.50002219  0.50002219  0.50002319  1
  Sb  Sb0  1  0.42104506  0.85971924  0.85971824  1
  Sb  Sb1  1  0.85974342  0.85974342  0.85974442  1
  Sb  Sb2  1  0.81979851  0.39337277  0.39337377  1
  Sb  Sb3  1  0.39346693  0.39346593  0.39346693  1
  Sb  Sb4  1  0.39337277  0.39337277  0.81979951  1
  Sb  Sb5  1  0.85971924  0.42104606  0.85971924  1
  Sb  Sb6  1  0.85971824  0.85971924  0.42104506  1
  Sb  Sb7  1  0.39337277  0.81979851  0.39337277  1
loop_
_geom_bond_atom_site_label_1
_geom_bond_atom_site_label_2
_geom_bond_distance
_geom_bond_site_symmetry_2
Na0 Ti0 3.118787 1_555
Na0 Sb3 3.378264 1_555
Na0 Sb2 3.379776 1_555
Na0 Sb4 3.379784 1_555
Na0 Na14 3.394815 1_555
Na0 Na5 3.394817 1_555
Na0 Na8 3.395124 1_555
Na0 Na10 3.417171 1_555
Na0 Na4 3.418000 1_655
Na0 Na11 3.418002 1_556
Na0 Sb0 3.488675 1_545
Na0 Sb6 3.488676 1_545
Na0 Sb1 3.491236 1_545
Na1 Ti0 3.118785 1_555
Na1 Sb3 3.378274 1_555
Na1 Sb7 3.379769 1_555
Na1 Sb2 3.379772 1_555
Na1 Na9 3.394816 1_555
Na1 Na5 3.394819 1_555
Na1 Na7 3.395101 1_555
Na1 Na15 3.417143 1_555
Na1 Na13 3.418000 1_655
Na1 Na11 3.418002 1_565
Na1 Sb5 3.488677 1_554
Na1 Sb0 3.488687 1_554
Na1 Sb1 3.491233 1_554
Na2 Ti0 3.118785 1_555
Na2 Sb3 3.378276 1_555
Na2 Sb7 3.379775 1_555
Na2 Sb4 3.379779 1_555
Na2 Na9 3.394816 1_555
Na2 Na6 3.395126 1_555
Na2 Na4 3.418003 1_565
Na2 Sb5 3.488668 1_455
Na2 Sb6 3.488679 1_455
Na2 Sb1 3.491240 1_455
Na3 Ti0 3.118573 1_555
Na3 Sb2 3.380479 1_555
Na3 Sb7 3.380482 1_555
Na3 Sb4 3.380484 1_555
Na3 Na8 3.393977 1_555
Na3 Na7 3.393983 1_555
Na3 Na6 3.393984 1_555
Na3 Sb6 3.490192 1_555
Na3 Sb0 3.490193 1_555
Na3 Sb5 3.490197 1_555
Na4 Sb7 3.200280 1_545
Na4 Sb2 3.200282 1_455
Na4 Sb6 3.328297 1_445
Na4 Sb1 3.328724 1_445
Na5 Sb6 3.155815 1_545
Na5 Sb5 3.155816 1_554
Na5 Sb3 3.322863 1_555
Na5 Sb2 3.325371 1_555
Na6 Sb1 3.156041 1_455
Na6 Sb0 3.157689 1_555
Na6 Sb4 3.323466 1_555
Na6 Sb7 3.323466 1_555
Na7 Sb1 3.156031 1_554
Na7 Sb6 3.157705 1_555
Na7 Sb7 3.323454 1_555
Na7 Sb2 3.323457 1_555
Na8 Sb1 3.156052 1_545
Na8 Sb5 3.157706 1_555
Na8 Sb2 3.323448 1_555
Na8 Sb4 3.323460 1_555
Na9 Sb6 3.155822 1_455
Na9 Sb0 3.155822 1_554
Na9 Sb3 3.322872 1_555
Na9 Sb7 3.325360 1_555
Na10 Sb7 3.200445 1_545
Na10 Sb3 3.202047 1_555
Na10 Sb6 3.329357 1_545
Na10 Sb0 3.329358 1_545
Na10 Na3 3.416862 1_545
Na11 Sb4 3.200280 1_554
Na11 Sb7 3.200281 1_545
Na11 Sb0 3.328305 1_544
Na11 Sb1 3.328708 1_544
Na12 Sb2 3.200447 1_455
Na12 Sb3 3.202062 1_555
Na12 Sb6 3.329348 1_455
Na12 Sb5 3.329349 1_455
Na12 Na3 3.416842 1_455
Na12 Na2 3.417153 1_555
Na13 Sb4 3.200281 1_554
Na13 Sb2 3.200281 1_455
Na13 Sb5 3.328289 1_454
Na13 Sb1 3.328717 1_454
Na13 Na2 3.418010 1_554
Na14 Sb0 3.155815 1_545
Na14 Sb5 3.155815 1_455
Na14 Sb3 3.322856 1_555
Na14 Sb4 3.325376 1_555
Na14 Na2 3.394818 1_555
Na15 Sb4 3.200458 1_554
Na15 Sb3 3.202067 1_555
Na15 Sb5 3.329328 1_554
Na15 Sb0 3.329336 1_554
Na15 Na3 3.416833 1_554
Hf0 Sb5 2.783967 1_555
Hf0 Sb0 2.783973 1_555
Hf0 Sb6 2.783974 1_555
Hf0 Sb1 2.784563 1_555
Hf0 Na2 3.227280 1_655
Hf0 Na0 3.227283 1_565
Hf0 Na1 3.227290 1_556
Hf0 Na3 3.228492 1_555
Sb2 Ti0 2.705868 1_555
Sb3 Ti0 2.704953 1_555
Sb4 Ti0 2.705869 1_555
Sb7 Ti0 2.705870 1_555
