# generated using pymatgen
data_Zr10Ga4BiSb3
_symmetry_space_group_name_H-M   'P 1'
_cell_length_a   8.60304710
_cell_length_b   8.61198892
_cell_length_c   5.83244917
_cell_angle_alpha   90.00000000
_cell_angle_beta   90.00000000
_cell_angle_gamma   120.03438961
_symmetry_Int_Tables_number   1
_chemical_formula_structural   Zr10Ga4BiSb3
_chemical_formula_sum   'Zr10 Ga4 Bi1 Sb3'
_cell_volume   374.09917935
_cell_formula_units_Z   1
loop_
 _symmetry_equiv_pos_site_id
 _symmetry_equiv_pos_as_xyz
  1  'x, y, z'
loop_
 _atom_site_type_symbol
 _atom_site_label
 _atom_site_symmetry_multiplicity
 _atom_site_fract_x
 _atom_site_fract_y
 _atom_site_fract_z
 _atom_site_occupancy
  Zr  Zr0  1  0.28543776  0.26920819  0.75000000  1
  Zr  Zr1  1  0.73619169  0.73864417  0.25000000  1
  Zr  Zr2  1  0.71456224  0.98377043  0.75000000  1
  Zr  Zr3  1  1.00000000  0.26230033  0.25000000  1
  Zr  Zr4  1  0.33955093  0.67173162  0.50411420  1
  Zr  Zr5  1  0.66044907  0.33218169  0.50411420  1
  Zr  Zr6  1  0.00000000  0.73298040  0.75000000  1
  Zr  Zr7  1  0.33955093  0.67173162  0.99588580  1
  Zr  Zr8  1  0.26380831  0.00245248  0.25000000  1
  Zr  Zr9  1  0.66044907  0.33218169  0.99588580  1
  Ga  Ga0  1  1.00000000  0.00143572  0.51394617  1
  Ga  Ga1  1  0.61573229  0.61347169  0.75000000  1
  Ga  Ga2  1  0.38426771  0.99774041  0.75000000  1
  Ga  Ga3  1  1.00000000  0.00143572  0.98605383  1
  Bi  Bi0  1  1.00000000  0.38082528  0.75000000  1
  Sb  Sb0  1  0.60649916  0.00158850  0.25000000  1
  Sb  Sb1  1  0.39350084  0.39508934  0.25000000  1
  Sb  Sb2  1  0.00000000  0.61123073  0.25000000  1
loop_
_geom_bond_atom_site_label_1
_geom_bond_atom_site_label_2
_geom_bond_distance
_geom_bond_site_symmetry_2
Ga0 Zr6 2.690825 1_645
Ga0 Zr3 2.723410 1_555
Ga0 Zr1 2.738791 1_545
Ga0 Zr8 2.738791 1_655
Ga0 Zr0 2.752238 1_655
Ga0 Zr2 2.752238 1_545
Ga1 Zr2 2.859798 1_555
Ga1 Zr0 2.903621 1_555
Ga1 Zr6 2.929522 1_655
Ga1 Zr9 3.000987 1_555
Ga1 Zr5 3.000987 1_555
Ga1 Zr7 3.024428 1_555
Ga1 Zr4 3.024428 1_555
Ga1 Zr1 3.101947 1_555
Ga1 Zr1 3.101947 1_556
Ga2 Zr0 2.859790 1_565
Ga2 Zr2 2.903625 1_555
Ga2 Zr6 2.929524 1_555
Ga2 Zr7 3.001002 1_555
Ga2 Zr4 3.001002 1_555
Ga2 Zr9 3.024428 1_565
Ga2 Zr5 3.024428 1_565
Ga2 Zr8 3.101945 1_565
Ga2 Zr8 3.101945 1_566
Ga3 Zr6 2.690825 1_645
Ga3 Zr3 2.723410 1_556
Ga3 Zr1 2.738791 1_546
Ga3 Zr8 2.738791 1_656
Ga3 Zr0 2.752238 1_655
Ga3 Zr2 2.752238 1_545
Bi0 Zr6 3.032756 1_655
Bi0 Zr2 3.052385 1_545
Bi0 Zr0 3.052385 1_655
Bi0 Zr7 3.088755 1_655
Bi0 Zr4 3.088755 1_655
Bi0 Zr9 3.088758 1_555
Bi0 Zr5 3.088758 1_555
Bi0 Zr3 3.089703 1_555
Bi0 Zr3 3.089703 1_556
Sb0 Zr8 2.951917 1_555
Sb0 Zr3 2.982060 1_555
Sb0 Zr1 2.983615 1_545
Sb0 Zr4 3.001647 1_545
Sb0 Zr7 3.001647 1_544
Sb0 Zr5 3.032334 1_555
Sb0 Zr9 3.032334 1_554
Sb0 Zr2 3.087881 1_544
Sb0 Zr2 3.087881 1_545
Sb1 Zr1 2.951917 1_555
Sb1 Zr3 2.982060 1_455
Sb1 Zr8 2.983615 1_555
Sb1 Zr5 3.001642 1_555
Sb1 Zr9 3.001642 1_554
Sb1 Zr4 3.032327 1_555
Sb1 Zr7 3.032327 1_554
Sb1 Zr0 3.087881 1_555
Sb1 Zr0 3.087881 1_554
Sb2 Zr8 2.974533 1_565
Sb2 Zr1 2.974533 1_455
Sb2 Zr3 3.004985 1_455
Sb2 Zr5 3.078594 1_455
Sb2 Zr9 3.078594 1_454
Sb2 Zr4 3.078597 1_555
Sb2 Zr7 3.078597 1_554
Sb2 Zr6 3.098989 1_554
Sb2 Zr6 3.098989 1_555
