# generated using pymatgen
data_Ba10CrTcN10
_symmetry_space_group_name_H-M   'P 1'
_cell_length_a   8.00441541
_cell_length_b   8.00441547
_cell_length_c   9.57494032
_cell_angle_alpha   76.17351426
_cell_angle_beta   76.17351377
_cell_angle_gamma   96.46237647
_symmetry_Int_Tables_number   1
_chemical_formula_structural   Ba10CrTcN10
_chemical_formula_sum   'Ba10 Cr1 Tc1 N10'
_cell_volume   568.99431686
_cell_formula_units_Z   1
loop_
 _symmetry_equiv_pos_site_id
 _symmetry_equiv_pos_as_xyz
  1  'x, y, z'
loop_
 _atom_site_type_symbol
 _atom_site_label
 _atom_site_symmetry_multiplicity
 _atom_site_fract_x
 _atom_site_fract_y
 _atom_site_fract_z
 _atom_site_occupancy
  Ba  Ba0  1  0.38360265  0.38741183  0.38830654  1
  Ba  Ba1  1  0.61258817  0.61639735  0.61169346  1
  Ba  Ba2  1  0.66217830  0.66675949  0.00920917  1
  Ba  Ba3  1  0.33324051  0.33782170  0.99079083  1
  Ba  Ba4  1  0.92865100  0.91718533  0.20541123  1
  Ba  Ba5  1  0.08281467  0.07134900  0.79458877  1
  Ba  Ba6  1  0.55838823  0.09081124  0.75163313  1
  Ba  Ba7  1  0.90918876  0.44161177  0.24836687  1
  Ba  Ba8  1  0.42820645  0.89759609  0.24793060  1
  Ba  Ba9  1  0.10240391  0.57179355  0.75206940  1
  Cr  Cr0  1  0.24309526  0.75690474  1.00000000  1
  Tc  Tc0  1  0.75661959  0.24338041  0.00000000  1
  N  N0  1  0.65185795  0.65137793  0.30736773  1
  N  N1  1  0.34862207  0.34814205  0.69263227  1
  N  N2  1  0.71567403  0.02005615  0.98929239  1
  N  N3  1  0.97994385  0.28432597  0.01070761  1
  N  N4  1  0.28432743  0.97417633  0.00737910  1
  N  N5  1  0.02582367  0.71567257  0.99262090  1
  N  N6  1  0.38581500  0.72961212  0.84131187  1
  N  N7  1  0.27038788  0.61418500  0.15868713  1
  N  N8  1  0.60619166  0.26962106  0.16349993  1
  N  N9  1  0.73037894  0.39380834  0.83649907  1
loop_
_geom_bond_atom_site_label_1
_geom_bond_atom_site_label_2
_geom_bond_distance
_geom_bond_site_symmetry_2
Ba0 N0 2.660120 1_555
Ba0 N1 2.796509 1_555
Ba0 N8 2.865625 1_555
Ba0 N7 2.892237 1_555
Ba1 N1 2.660120 1_555
Ba1 N0 2.796509 1_555
Ba1 N9 2.865619 1_555
Ba1 N6 2.892230 1_555
Ba2 N2 2.765422 1_564
Ba2 N0 2.808762 1_555
Ba2 N5 2.853745 1_654
Ba2 N6 3.048723 1_554
Ba2 N7 3.054522 1_555
Ba2 N9 3.061045 1_554
Ba2 N8 3.099475 1_555
Ba3 N3 2.765421 1_456
Ba3 N1 2.808762 1_555
Ba3 N4 2.853745 1_546
Ba3 N7 3.048717 1_556
Ba3 N6 3.054524 1_555
Ba3 N8 3.061038 1_556
Ba3 N9 3.099476 1_555
Ba4 N0 2.702022 1_555
Ba4 N5 2.907523 1_654
Ba4 N4 2.936461 1_655
Ba4 N3 3.004045 1_565
Ba4 N2 3.008987 1_564
Ba5 N1 2.702022 1_555
Ba5 N4 2.907523 1_546
Ba5 N5 2.936461 1_545
Ba5 N2 3.004045 1_455
Ba5 N3 3.008987 1_456
Ba6 N4 2.749371 1_546
Ba6 N2 2.828048 1_555
Ba6 N1 2.838448 1_555
Ba6 N6 2.889965 1_545
Ba6 N9 3.027007 1_555
Ba7 N5 2.749371 1_654
Ba7 N3 2.828048 1_555
Ba7 N0 2.838448 1_555
Ba7 N7 2.889965 1_655
Ba7 N8 3.027012 1_555
Ba8 N4 2.785509 1_555
Ba8 N2 2.827845 1_564
Ba8 N0 2.856211 1_555
Ba8 N7 2.875693 1_555
Ba8 N8 2.982394 1_565
Ba9 N5 2.785509 1_555
Ba9 N3 2.827845 1_456
Ba9 N1 2.856211 1_555
Ba9 N6 2.875688 1_555
Ba9 N9 2.982395 1_455
Cr0 N7 1.745454 1_556
Cr0 N6 1.745461 1_555
Cr0 N5 1.754757 1_555
Cr0 N4 1.754757 1_556
N2 Tc0 1.812498 1_556
N3 Tc0 1.812498 1_555
N8 Tc0 1.804957 1_555
N9 Tc0 1.804964 1_556
