# generated using pymatgen
data_RbNaV2O6
_symmetry_space_group_name_H-M   'P 1'
_cell_length_a   7.40812621
_cell_length_b   7.40812626
_cell_length_c   5.82643975
_cell_angle_alpha   80.52725543
_cell_angle_beta   80.52726017
_cell_angle_gamma   88.29878857
_symmetry_Int_Tables_number   1
_chemical_formula_structural   RbNaV2O6
_chemical_formula_sum   'Rb2 Na2 V4 O12'
_cell_volume   311.09489887
_cell_formula_units_Z   2
loop_
 _symmetry_equiv_pos_site_id
 _symmetry_equiv_pos_as_xyz
  1  'x, y, z'
loop_
 _atom_site_type_symbol
 _atom_site_label
 _atom_site_symmetry_multiplicity
 _atom_site_fract_x
 _atom_site_fract_y
 _atom_site_fract_z
 _atom_site_occupancy
  Rb  Rb0  1  0.19761145  0.80238855  0.25000000  1
  Rb  Rb1  1  0.80238855  0.19761145  0.75000000  1
  Na  Na0  1  0.59523825  0.40476175  0.25000000  1
  Na  Na1  1  0.40476175  0.59523825  0.75000000  1
  V  V0  1  0.86737898  0.70112624  0.79235164  1
  V  V1  1  0.29887376  0.13262102  0.70764836  1
  V  V2  1  0.13262102  0.29887376  0.20764836  1
  V  V3  1  0.70112624  0.86737898  0.29235164  1
  O  O0  1  0.60715097  0.07187020  0.23676460  1
  O  O1  1  0.92812980  0.39284903  0.26323540  1
  O  O2  1  0.39284903  0.92812980  0.76323540  1
  O  O3  1  0.07187020  0.60715097  0.73676460  1
  O  O4  1  0.16661826  0.14341467  0.47107292  1
  O  O5  1  0.85658533  0.83338174  0.02892708  1
  O  O6  1  0.83338174  0.85658533  0.52892708  1
  O  O7  1  0.14341467  0.16661826  0.97107292  1
  O  O8  1  0.70316965  0.54510434  0.85797708  1
  O  O9  1  0.45489566  0.29683035  0.64202292  1
  O  O10  1  0.29683035  0.45489566  0.14202292  1
  O  O11  1  0.54510434  0.70316965  0.35797708  1
loop_
_geom_bond_atom_site_label_1
_geom_bond_atom_site_label_2
_geom_bond_distance
_geom_bond_site_symmetry_2
Na0 O8 2.367257 1_554
Na0 O9 2.367257 1_555
Na0 O10 2.398499 1_555
Na0 O11 2.398499 1_555
Na0 O1 2.478474 1_555
Na0 O0 2.478474 1_555
Na1 O10 2.367257 1_556
Na1 O11 2.367257 1_555
Na1 O8 2.398499 1_555
Na1 O9 2.398499 1_555
Na1 O3 2.478474 1_555
Na1 O2 2.478474 1_555
O0 V3 1.653655 1_545
O0 Rb1 2.977133 1_554
O1 V2 1.653655 1_655
O1 Rb1 2.977133 1_555
O2 V1 1.653655 1_565
O2 Rb0 2.977133 1_556
O3 V0 1.653655 1_455
O3 Rb0 2.977133 1_555
O4 V1 1.808285 1_555
O4 V2 1.809322 1_555
O4 Rb1 2.964792 1_455
O4 Rb0 3.005609 1_545
O5 V0 1.808285 1_554
O5 V3 1.809322 1_555
O5 Rb1 2.964792 1_564
O5 Rb0 3.005609 1_655
O6 V3 1.808285 1_555
O6 V0 1.809322 1_555
O6 Rb0 2.964792 1_655
O6 Rb1 3.005609 1_565
O7 V2 1.808285 1_556
O7 V1 1.809322 1_555
O7 Rb0 2.964792 1_546
O7 Rb1 3.005609 1_455
O8 V0 1.657374 1_555
O8 Rb1 2.798474 1_555
O9 V1 1.657374 1_555
O9 Rb1 2.798474 1_555
O10 V2 1.657374 1_555
O10 Rb0 2.798474 1_555
O11 V3 1.657374 1_555
O11 Rb0 2.798474 1_555
