# generated using pymatgen
data_Hf3AlAs2Ru3
_symmetry_space_group_name_H-M   'P 1'
_cell_length_a   7.63448670
_cell_length_b   7.63448723
_cell_length_c   7.63448736
_cell_angle_alpha   128.32808506
_cell_angle_beta   120.35723479
_cell_angle_gamma   82.78727398
_symmetry_Int_Tables_number   1
_chemical_formula_structural   Hf3AlAs2Ru3
_chemical_formula_sum   'Hf6 Al2 As4 Ru6'
_cell_volume   289.37930246
_cell_formula_units_Z   2
loop_
 _symmetry_equiv_pos_site_id
 _symmetry_equiv_pos_as_xyz
  1  'x, y, z'
loop_
 _atom_site_type_symbol
 _atom_site_label
 _atom_site_symmetry_multiplicity
 _atom_site_fract_x
 _atom_site_fract_y
 _atom_site_fract_z
 _atom_site_occupancy
  Hf  Hf0  1  0.47916516  0.71762056  0.73845540  1
  Hf  Hf1  1  0.52083484  0.25928924  0.23845540  1
  Hf  Hf2  1  0.74883749  0.82923848  0.58040099  1
  Hf  Hf3  1  0.25116251  0.83156549  0.08040099  1
  Hf  Hf4  1  0.05360096  0.25457998  0.70097802  1
  Hf  Hf5  1  0.94639904  0.64737705  0.20097802  1
  Al  Al0  1  0.27796847  0.27686506  0.49889659  1
  Al  Al1  1  0.72203153  0.22092812  0.99889659  1
  As  As0  1  0.32720434  0.58655974  0.24749489  1
  As  As1  1  0.67279566  0.92029056  0.25935541  1
  As  As2  1  0.16093515  0.92029056  0.74749489  1
  As  As3  1  0.83906485  0.58655974  0.75935541  1
  Ru  Ru0  1  0.50000000  0.49853008  0.99853008  1
  Ru  Ru1  1  1.00000000  0.49853008  0.49853008  1
  Ru  Ru2  1  0.09484664  0.25148751  0.09904676  1
  Ru  Ru3  1  0.90515336  0.00420012  0.15664087  1
  Ru  Ru4  1  0.34755924  0.00420012  0.59904676  1
  Ru  Ru5  1  0.65244076  0.25148751  0.65664087  1
loop_
_geom_bond_atom_site_label_1
_geom_bond_atom_site_label_2
_geom_bond_distance
_geom_bond_site_symmetry_2
Hf0 Ru4 2.860850 1_565
Hf0 Ru3 2.860850 1_566
Hf0 Ru1 3.240154 1_455
Hf0 Ru0 3.240154 1_555
Hf1 Ru5 2.860845 1_555
Hf1 Ru2 2.860850 1_555
Hf1 Ru1 3.240157 1_555
Hf1 Ru0 3.240161 1_554
Hf2 Ru1 2.912118 1_555
Hf2 Ru0 2.912118 1_554
Hf2 Ru5 2.963497 1_565
Hf2 Ru2 2.963497 1_666
Hf3 Ru1 2.912118 1_454
Hf3 Ru0 2.912128 1_554
Hf3 Ru3 2.963494 1_465
Hf3 Ru4 2.963503 1_565
Hf4 Ru3 2.852897 1_455
Hf4 Ru4 2.852901 1_555
Hf4 Ru5 2.907810 1_455
Hf4 Ru2 2.907815 1_556
Hf4 Ru1 2.960511 1_455
Hf4 Ru0 2.960516 1_555
Hf5 Ru2 2.852898 1_655
Hf5 Ru5 2.852898 1_554
Hf5 Ru3 2.907810 1_565
Hf5 Ru4 2.907810 1_665
Hf5 Ru0 2.960518 1_554
Hf5 Ru1 2.960518 1_555
Al0 Ru5 2.516233 1_555
Al0 Ru2 2.516233 1_555
Al0 Ru1 2.542726 1_455
Al0 Ru0 2.542727 1_555
Al0 Ru4 2.546761 1_555
Al0 Ru3 2.546761 1_455
Al0 Hf3 2.801605 1_545
Al0 Hf0 2.802195 1_555
Al0 Hf4 2.900551 1_555
Al0 Hf1 3.277565 1_555
Al1 Ru3 2.516233 1_556
Al1 Ru4 2.516233 1_555
Al1 Ru0 2.542726 1_555
Al1 Ru1 2.542727 1_556
Al1 Ru2 2.546761 1_656
Al1 Ru5 2.546761 1_555
Al1 Hf2 2.801613 1_545
Al1 Hf1 2.802197 1_556
Al1 Hf5 2.900554 1_556
Al1 Hf0 3.277568 1_545
As0 Ru4 2.546083 1_565
As0 Ru2 2.546887 1_555
As0 Ru0 2.555807 1_554
As0 Hf1 2.719290 1_555
As0 Hf3 2.720566 1_555
As0 Hf4 2.756693 1_554
As0 Hf5 2.759672 1_455
As0 Hf0 2.764187 1_555
As0 Hf2 2.764329 1_555
As1 Ru5 2.546083 1_565
As1 Ru3 2.546887 1_565
As1 Ru0 2.555807 1_554
As1 Hf0 2.719284 1_554
As1 Hf2 2.720552 1_555
As1 Hf5 2.756693 1_555
As1 Hf4 2.759675 1_665
As1 Hf1 2.764179 1_565
As1 Hf3 2.764328 1_555
As2 Ru2 2.546083 1_566
As2 Ru4 2.546887 1_565
As2 Ru1 2.555807 1_455
As2 Hf0 2.719284 1_555
As2 Hf2 2.720552 1_455
As2 Hf5 2.756694 1_455
As2 Hf4 2.759680 1_565
As2 Hf1 2.764185 1_566
As2 Hf3 2.764317 1_556
As3 Ru3 2.546083 1_566
As3 Ru5 2.546887 1_555
As3 Ru1 2.555807 1_555
As3 Hf1 2.719285 1_555
As3 Hf3 2.720556 1_656
As3 Hf4 2.756688 1_655
As3 Hf5 2.759673 1_556
As3 Hf0 2.764186 1_555
As3 Hf2 2.764329 1_555
Ru0 Ru5 2.852685 1_555
Ru0 Ru4 2.852685 1_555
Ru1 Ru2 2.852685 1_655
Ru1 Ru3 2.852685 1_555
