# generated using pymatgen
data_Ca10In2Cu3Ir
_symmetry_space_group_name_H-M   'P 1'
_cell_length_a   9.17400628
_cell_length_b   9.17400609
_cell_length_c   9.18955335
_cell_angle_alpha   129.07559250
_cell_angle_beta   129.07559280
_cell_angle_gamma   74.76214893
_symmetry_Int_Tables_number   1
_chemical_formula_structural   Ca10In2Cu3Ir
_chemical_formula_sum   'Ca10 In2 Cu3 Ir1'
_cell_volume   454.35242129
_cell_formula_units_Z   1
loop_
 _symmetry_equiv_pos_site_id
 _symmetry_equiv_pos_as_xyz
  1  'x, y, z'
loop_
 _atom_site_type_symbol
 _atom_site_label
 _atom_site_symmetry_multiplicity
 _atom_site_fract_x
 _atom_site_fract_y
 _atom_site_fract_z
 _atom_site_occupancy
  Ca  Ca0  1  0.53477380  0.02450705  0.83480272  1
  Ca  Ca1  1  0.19997208  0.68970433  0.16519728  1
  Ca  Ca2  1  0.03221519  0.18981696  0.50000000  1
  Ca  Ca3  1  0.68226286  0.54749612  0.50000000  1
  Ca  Ca4  1  0.47549295  0.96522620  0.16519728  1
  Ca  Ca5  1  0.81029567  0.30002792  0.83480272  1
  Ca  Ca6  1  0.95250388  0.81773714  0.50000000  1
  Ca  Ca7  1  0.31018304  0.46778481  0.50000000  1
  Ca  Ca8  1  0.50276913  0.50675492  0.00952505  1
  Ca  Ca9  1  0.99324508  0.99723087  0.99047495  1
  In  In0  1  0.25451737  0.24548263  0.00000000  1
  In  In1  1  0.75451737  0.74548263  0.00000000  1
  Cu  Cu0  1  0.38658334  0.11341666  0.50000000  1
  Cu  Cu1  1  0.10791816  0.60865053  0.71656870  1
  Cu  Cu2  1  0.89134947  0.39208184  0.28343130  1
  Ir  Ir0  1  0.61140161  0.88859839  0.50000000  1
loop_
_geom_bond_atom_site_label_1
_geom_bond_atom_site_label_2
_geom_bond_distance
_geom_bond_site_symmetry_2
Ca0 Ir0 2.990753 1_545
Ca0 Cu0 3.047495 1_555
Ca0 Cu2 3.215406 1_556
Ca0 In1 3.353995 1_546
Ca0 In0 3.365371 1_556
Ca0 Ca9 3.480264 1_545
Ca0 Ca8 3.632284 1_556
Ca1 Ir0 2.990746 1_555
Ca1 Cu0 3.047492 1_565
Ca1 Cu1 3.215402 1_554
Ca1 In0 3.353994 1_555
Ca1 In1 3.365379 1_455
Ca1 Ca8 3.480247 1_555
Ca1 Ca9 3.632292 1_454
Ca2 Cu1 3.037556 1_555
Ca2 Cu2 3.037556 1_455
Ca2 Cu0 3.140437 1_555
Ca2 In1 3.362709 1_445
Ca2 In0 3.362710 1_556
Ca2 Ca8 3.600793 1_556
Ca2 Ca9 3.600802 1_444
Ca3 Ir0 3.024175 1_555
Ca3 Cu1 3.077459 1_655
Ca3 Cu2 3.077459 1_555
Ca3 In0 3.335017 1_555
Ca3 In1 3.335017 1_556
Ca3 Ca8 3.465460 1_555
Ca3 Ca9 3.465468 1_555
Ca4 Ir0 2.990753 1_555
Ca4 Cu0 3.047495 1_565
Ca4 Cu1 3.215406 1_554
Ca4 In1 3.353996 1_555
Ca4 In0 3.365371 1_565
Ca4 Ca8 3.480264 1_555
Ca4 Ca9 3.632284 1_454
Ca5 Ir0 2.990746 1_545
Ca5 Cu0 3.047492 1_555
Ca5 Cu2 3.215402 1_556
Ca5 In0 3.353994 1_656
Ca5 In1 3.365379 1_556
Ca5 Ca9 3.480247 1_545
Ca5 Ca8 3.632292 1_556
Ca6 Ir0 3.024175 1_555
Ca6 Cu2 3.077459 1_555
Ca6 Cu1 3.077459 1_655
Ca6 In0 3.335017 1_666
Ca6 In1 3.335017 1_555
Ca6 Ca9 3.465460 1_555
Ca6 Ca8 3.465468 1_555
Ca7 Cu2 3.037556 1_455
Ca7 Cu1 3.037556 1_555
Ca7 Cu0 3.140437 1_555
Ca7 In1 3.362709 1_556
Ca7 In0 3.362710 1_555
Ca7 Ca9 3.600793 1_444
Ca7 Ca8 3.600802 1_556
Ca8 Ir0 3.137969 1_555
Ca8 Cu2 3.194574 1_555
Ca8 Cu1 3.215825 1_554
Ca8 Cu0 3.241995 1_554
Ca8 In0 3.646006 1_555
Ca8 In1 3.646021 1_555
Ca9 Ir0 3.137969 1_555
Ca9 Cu1 3.194574 1_655
Ca9 Cu2 3.215825 1_566
Ca9 Cu0 3.241995 1_666
Ca9 In0 3.646006 1_666
Ca9 In1 3.646021 1_556
Cu0 Ir0 2.504324 1_545
Cu1 Cu2 2.423504 1_455
