# generated using pymatgen
data_Nd(SiAg)2
_symmetry_space_group_name_H-M   'P 1'
_cell_length_a   4.22862617
_cell_length_b   4.22862687
_cell_length_c   6.12250038
_cell_angle_alpha   110.20223742
_cell_angle_beta   110.20222878
_cell_angle_gamma   89.99999933
_symmetry_Int_Tables_number   1
_chemical_formula_structural   Nd(SiAg)2
_chemical_formula_sum   'Nd1 Si2 Ag2'
_cell_volume   95.53421752
_cell_formula_units_Z   1
loop_
 _symmetry_equiv_pos_site_id
 _symmetry_equiv_pos_as_xyz
  1  'x, y, z'
loop_
 _atom_site_type_symbol
 _atom_site_label
 _atom_site_symmetry_multiplicity
 _atom_site_fract_x
 _atom_site_fract_y
 _atom_site_fract_z
 _atom_site_occupancy
  Nd  Nd0  1  -0.00000000  0.00000000  -0.00000000  1
  Si  Si0  1  0.60836461  0.60836461  0.21672922  1
  Si  Si1  1  0.39163539  0.39163539  0.78326978  1
  Ag  Ag0  1  0.25000000  0.75000000  0.50000000  1
  Ag  Ag1  1  0.75000000  0.25000000  0.50000000  1
loop_
_geom_bond_atom_site_label_1
_geom_bond_atom_site_label_2
_geom_bond_distance
_geom_bond_site_symmetry_2
Nd0 Si1 3.206464 1_444
Nd0 Si0 3.206464 1_445
Nd0 Si0 3.206464 1_455
Nd0 Si0 3.206465 1_545
Nd0 Si0 3.206465 1_555
Nd0 Si1 3.206466 1_544
Nd0 Si1 3.206467 1_454
Nd0 Si1 3.206469 1_554
Si0 Si1 2.315841 1_554
Ag0 Si1 2.600147 1_555
Ag0 Si1 2.600150 1_565
Ag0 Si0 2.600151 1_555
Ag0 Si0 2.600152 1_455
Ag0 Ag1 2.990090 1_555
Ag0 Ag1 2.990090 1_465
Ag0 Ag1 2.990091 1_455
Ag0 Ag1 2.990091 1_565
Ag0 Nd0 3.406818 1_566
Ag0 Nd0 3.406819 1_565
Ag0 Nd0 3.406819 1_666
Ag0 Nd0 3.406819 1_555
Ag1 Si1 2.600146 1_555
Ag1 Si1 2.600150 1_655
Ag1 Si0 2.600152 1_555
Ag1 Si0 2.600152 1_545
Ag1 Nd0 3.406818 1_655
Ag1 Nd0 3.406819 1_656
Ag1 Nd0 3.406819 1_555
Ag1 Nd0 3.406819 1_666
