# generated using pymatgen
data_Nb10GaB4Se
_symmetry_space_group_name_H-M   'P 1'
_cell_length_a   7.37162146
_cell_length_b   7.37162250
_cell_length_c   7.37162258
_cell_angle_alpha   129.47412954
_cell_angle_beta   129.47413471
_cell_angle_gamma   74.24886249
_symmetry_Int_Tables_number   1
_chemical_formula_structural   Nb10GaB4Se
_chemical_formula_sum   'Nb10 Ga1 B4 Se1'
_cell_volume   232.69076199
_cell_formula_units_Z   1
loop_
 _symmetry_equiv_pos_site_id
 _symmetry_equiv_pos_as_xyz
  1  'x, y, z'
loop_
 _atom_site_type_symbol
 _atom_site_label
 _atom_site_symmetry_multiplicity
 _atom_site_fract_x
 _atom_site_fract_y
 _atom_site_fract_z
 _atom_site_occupancy
  Nb  Nb0  1  0.99806472  0.99806472  1.00000000  1
  Nb  Nb1  1  0.50193528  0.50193528  0.00000000  1
  Nb  Nb2  1  0.80407422  0.30316949  0.83383101  1
  Nb  Nb3  1  0.19683051  0.69592578  0.16616899  1
  Nb  Nb4  1  0.46933848  0.97024321  0.16616899  1
  Nb  Nb5  1  0.30316949  0.46933848  0.49909526  1
  Nb  Nb6  1  0.03066152  0.19683051  0.50090474  1
  Nb  Nb7  1  0.52975679  0.03066152  0.83383101  1
  Nb  Nb8  1  0.69592578  0.52975679  0.49909526  1
  Nb  Nb9  1  0.97024321  0.80407422  0.50090474  1
  Ga  Ga0  1  0.75000000  0.75000000  0.00000000  1
  B  B0  1  0.11427807  0.61427807  0.72855514  1
  B  B1  1  0.88572193  0.38572193  0.27144486  1
  B  B2  1  0.61427807  0.88572193  0.50000000  1
  B  B3  1  0.38572193  0.11427807  0.50000000  1
  Se  Se0  1  0.25000000  0.25000000  0.00000000  1
loop_
_geom_bond_atom_site_label_1
_geom_bond_atom_site_label_2
_geom_bond_distance
_geom_bond_site_symmetry_2
Nb0 Nb7 2.832500 1_565
Nb0 Nb8 2.832501 1_555
Nb0 Nb3 2.832501 1_656
Nb0 Nb6 2.832501 1_666
Nb0 Nb4 2.851925 1_656
Nb0 Nb5 2.851925 1_666
Nb0 Nb2 2.851925 1_565
Nb0 Nb9 2.851925 1_555
Nb0 Se0 2.961545 1_666
Nb1 Nb9 2.832500 1_555
Nb1 Nb2 2.832501 1_554
Nb1 Nb5 2.832501 1_554
Nb1 Nb4 2.832501 1_555
Nb1 Nb6 2.851925 1_554
Nb1 Nb3 2.851925 1_555
Nb1 Nb8 2.851925 1_555
Nb1 Nb7 2.851925 1_554
Nb1 Se0 2.961545 1_555
Nb2 Se0 2.692772 1_656
Nb3 Se0 2.692773 1_555
Nb4 Se0 2.692773 1_565
Nb5 Se0 2.692773 1_555
Nb6 Se0 2.692773 1_556
Nb7 Se0 2.692773 1_556
Nb8 Se0 2.692772 1_555
Nb9 Se0 2.692773 1_666
Ga0 Nb3 2.699415 1_655
Ga0 Nb5 2.699415 1_554
Ga0 Nb4 2.699415 1_555
Ga0 Nb7 2.699415 1_564
Ga0 Nb6 2.699415 1_665
Ga0 Nb9 2.699415 1_555
Ga0 Nb2 2.699415 1_554
Ga0 Nb8 2.699416 1_554
Ga0 Nb0 2.916046 1_554
Ga0 Nb1 2.916046 1_555
B0 B1 2.033742 1_455
B0 Nb9 2.411286 1_455
B0 Nb6 2.411294 1_555
B0 Nb5 2.414679 1_555
B0 Nb8 2.414686 1_455
B0 Nb4 2.524536 1_556
B0 Nb3 2.524543 1_556
B0 Nb1 2.531348 1_556
B0 Nb0 2.531349 1_455
B1 Nb8 2.411286 1_555
B1 Nb5 2.411294 1_655
B1 Nb6 2.414679 1_655
B1 Nb9 2.414687 1_555
B1 Nb7 2.524536 1_554
B1 Nb2 2.524543 1_554
B1 Nb1 2.531348 1_555
B1 Nb0 2.531349 1_544
B2 B3 2.033751 1_565
B2 Nb3 2.411292 1_555
B2 Nb2 2.411292 1_565
B2 Nb4 2.414685 1_555
B2 Nb7 2.414685 1_565
B2 Nb9 2.524536 1_555
B2 Nb8 2.524536 1_555
B2 Nb0 2.531346 1_555
B2 Nb1 2.531347 1_555
B3 Nb7 2.411292 1_555
B3 Nb4 2.411292 1_545
B3 Nb2 2.414684 1_555
B3 Nb3 2.414685 1_545
B3 Nb6 2.524536 1_555
B3 Nb5 2.524536 1_555
B3 Nb0 2.531346 1_444
B3 Nb1 2.531347 1_556
