# generated using pymatgen
data_Zr8Co2TcPt
_symmetry_space_group_name_H-M   'P 1'
_cell_length_a   8.68225892
_cell_length_b   8.68223672
_cell_length_c   8.69144661
_cell_angle_alpha   59.96513298
_cell_angle_beta   59.96522214
_cell_angle_gamma   59.88157122
_symmetry_Int_Tables_number   1
_chemical_formula_structural   Zr8Co2TcPt
_chemical_formula_sum   'Zr16 Co4 Tc2 Pt2'
_cell_volume   462.61832668
_cell_formula_units_Z   2
loop_
 _symmetry_equiv_pos_site_id
 _symmetry_equiv_pos_as_xyz
  1  'x, y, z'
loop_
 _atom_site_type_symbol
 _atom_site_label
 _atom_site_symmetry_multiplicity
 _atom_site_fract_x
 _atom_site_fract_y
 _atom_site_fract_z
 _atom_site_occupancy
  Zr  Zr0  1  0.05106420  0.64875176  0.65009002  1
  Zr  Zr1  1  0.64874976  0.05106220  0.65009102  1
  Zr  Zr2  1  0.64692784  0.64693084  0.05718965  1
  Zr  Zr3  1  0.64692984  0.64693284  0.64895166  1
  Zr  Zr4  1  0.80016845  0.80016845  0.19983455  1
  Zr  Zr5  1  0.20076832  0.20076632  0.79923268  1
  Zr  Zr6  1  0.80088396  0.19675694  0.80498906  1
  Zr  Zr7  1  0.19675494  0.80088496  0.19737103  1
  Zr  Zr8  1  0.19675794  0.80088396  0.80498906  1
  Zr  Zr9  1  0.80088496  0.19675294  0.19737303  1
  Zr  Zr10  1  0.43761163  0.43761163  0.06238837  1
  Zr  Zr11  1  0.06423034  0.06423034  0.43576866  1
  Zr  Zr12  1  0.43741619  0.07147892  0.43532442  1
  Zr  Zr13  1  0.07147992  0.43741519  0.05578047  1
  Zr  Zr14  1  0.07147992  0.43741619  0.43532442  1
  Zr  Zr15  1  0.43741519  0.07147992  0.05578047  1
  Co  Co0  1  0.42330153  0.85696932  0.85986407  1
  Co  Co1  1  0.85696932  0.42330153  0.85986407  1
  Co  Co2  1  0.85771300  0.85771300  0.42151966  1
  Co  Co3  1  0.85771300  0.85771400  0.86305334  1
  Tc  Tc0  1  0.41582169  0.41582169  0.74878943  1
  Tc  Tc1  1  0.41582169  0.41582169  0.41956719  1
  Pt  Pt0  1  0.75037415  0.41276119  0.41843183  1
  Pt  Pt1  1  0.41276119  0.75037415  0.41843183  1
loop_
_geom_bond_atom_site_label_1
_geom_bond_atom_site_label_2
_geom_bond_distance
_geom_bond_site_symmetry_2
Zr0 Zr14 3.106997 1_555
Zr0 Zr13 3.107045 1_556
Zr0 Zr11 3.157455 1_565
Zr1 Zr12 3.106988 1_555
Zr1 Zr15 3.107046 1_556
Zr1 Zr11 3.157486 1_655
Zr10 Zr2 3.123735 1_555
Zr10 Zr3 3.123760 1_554
Zr10 Zr15 3.208838 1_555
Zr10 Zr13 3.208846 1_555
Zr10 Zr12 3.208853 1_555
Zr10 Zr14 3.208857 1_555
Zr10 Zr8 3.213445 1_554
Zr10 Zr6 3.213454 1_554
Zr10 Zr7 3.213457 1_555
Zr10 Zr9 3.213470 1_555
Zr11 Zr9 3.249708 1_455
Zr11 Zr7 3.249713 1_545
Zr11 Zr6 3.249746 1_455
Zr11 Zr8 3.249747 1_545
Zr11 Zr13 3.270170 1_555
Zr11 Zr14 3.270176 1_555
Zr11 Zr15 3.270178 1_555
Zr11 Zr12 3.270179 1_555
Zr12 Zr14 3.171465 1_555
Zr12 Zr9 3.174637 1_555
Zr12 Zr3 3.184954 1_545
Zr12 Zr5 3.196796 1_555
Zr12 Zr4 3.253493 1_545
Zr12 Zr8 3.295161 1_545
Zr12 Zr15 3.298786 1_555
Zr13 Zr15 3.171452 1_555
Zr13 Zr8 3.174648 1_554
Zr13 Zr2 3.184993 1_455
Zr13 Zr5 3.196792 1_554
Zr13 Zr4 3.253520 1_455
Zr13 Zr9 3.295170 1_455
Zr13 Zr14 3.298790 1_555
Zr14 Zr7 3.174634 1_555
Zr14 Zr3 3.184990 1_455
Zr14 Zr5 3.196797 1_555
Zr14 Zr4 3.253494 1_455
Zr14 Zr6 3.295171 1_455
Zr15 Zr6 3.174651 1_554
Zr15 Zr2 3.184963 1_545
Zr15 Zr5 3.196786 1_554
Zr15 Zr4 3.253523 1_545
Zr15 Zr7 3.295161 1_545
Co0 Zr8 2.542856 1_555
Co0 Zr7 2.542892 1_556
Co0 Zr5 2.564620 1_565
Co0 Zr1 2.580207 1_565
Co0 Zr3 2.585684 1_555
Co0 Zr2 2.585700 1_556
Co0 Zr10 3.117645 1_556
Co0 Zr15 3.161611 1_566
Co0 Zr12 3.161613 1_565
Co1 Zr6 2.542860 1_555
Co1 Zr9 2.542905 1_556
Co1 Zr5 2.564642 1_655
Co1 Zr0 2.580230 1_655
Co1 Zr3 2.585702 1_555
Co1 Zr2 2.585719 1_556
Co1 Zr10 3.117656 1_556
Co1 Zr13 3.161614 1_656
Co1 Zr14 3.161616 1_655
Co2 Zr4 2.527741 1_555
Co2 Zr9 2.543158 1_565
Co2 Zr7 2.543183 1_655
Co2 Zr3 2.593088 1_555
Co2 Zr1 2.594254 1_565
Co2 Zr0 2.594259 1_655
Co2 Zr14 3.124550 1_655
Co2 Zr12 3.124558 1_565
Co2 Zr11 3.180620 1_665
Co3 Zr4 2.527803 1_556
Co3 Zr6 2.543178 1_565
Co3 Zr8 2.543201 1_655
Co3 Zr2 2.593116 1_556
Co3 Zr0 2.594284 1_655
Co3 Zr1 2.594285 1_565
Co3 Zr13 3.124568 1_656
Co3 Zr15 3.124569 1_566
Co3 Zr11 3.180638 1_665
Tc0 Zr15 2.836428 1_556
Tc0 Zr13 2.836436 1_556
Tc0 Tc1 2.861417 1_555
Tc0 Zr10 2.927275 1_556
Tc0 Zr5 3.004090 1_555
Tc0 Zr8 3.058820 1_555
Tc0 Zr6 3.058826 1_555
Tc0 Zr3 3.059435 1_555
Tc0 Zr0 3.067657 1_555
Tc0 Zr1 3.067662 1_555
Tc1 Zr14 2.836423 1_555
Tc1 Zr12 2.836424 1_555
Tc1 Zr10 2.927277 1_555
Tc1 Zr5 3.004103 1_555
Tc1 Zr7 3.058831 1_555
Tc1 Zr9 3.058838 1_555
Tc1 Zr2 3.059416 1_555
Tc1 Zr1 3.067642 1_555
Tc1 Zr0 3.067644 1_555
Pt0 Zr11 2.878244 1_655
Pt0 Tc1 2.886525 1_555
Pt0 Tc0 2.886540 1_555
Pt0 Pt1 2.925991 1_555
Pt0 Zr14 2.979938 1_655
Pt0 Zr13 2.979940 1_655
Pt0 Zr9 3.056023 1_555
Pt0 Zr6 3.056036 1_555
Pt0 Zr4 3.057782 1_555
Pt0 Zr1 3.060565 1_555
Pt0 Zr2 3.065655 1_555
Pt0 Zr3 3.065677 1_555
Pt1 Zr11 2.878245 1_565
Pt1 Tc1 2.886518 1_555
Pt1 Tc0 2.886532 1_555
Pt1 Zr12 2.979923 1_565
Pt1 Zr15 2.979934 1_565
Pt1 Zr7 3.056025 1_555
Pt1 Zr8 3.056039 1_555
Pt1 Zr4 3.057791 1_555
Pt1 Zr0 3.060550 1_555
Pt1 Zr2 3.065645 1_555
Pt1 Zr3 3.065667 1_555
