# generated using pymatgen
data_Sr2B4Ir3Ru
_symmetry_space_group_name_H-M   'P 1'
_cell_length_a   7.06118185
_cell_length_b   6.11421317
_cell_length_c   5.63833906
_cell_angle_alpha   73.73222624
_cell_angle_beta   56.22460312
_cell_angle_gamma   49.76985057
_symmetry_Int_Tables_number   1
_chemical_formula_structural   Sr2B4Ir3Ru
_chemical_formula_sum   'Sr2 B4 Ir3 Ru1'
_cell_volume   153.27998485
_cell_formula_units_Z   1
loop_
 _symmetry_equiv_pos_site_id
 _symmetry_equiv_pos_as_xyz
  1  'x, y, z'
loop_
 _atom_site_type_symbol
 _atom_site_label
 _atom_site_symmetry_multiplicity
 _atom_site_fract_x
 _atom_site_fract_y
 _atom_site_fract_z
 _atom_site_occupancy
  Sr  Sr0  1  0.49958628  0.49958628  0.50041372  1
  Sr  Sr1  1  0.74957455  0.74957455  0.75042545  1
  B  B0  1  0.82686533  0.17774672  0.82623466  1
  B  B1  1  0.07080406  0.42573738  0.07630428  1
  B  B2  1  0.17774672  0.82686533  0.16915329  1
  B  B3  1  0.42573738  0.07080406  0.42715428  1
  Ir  Ir0  1  0.38207857  0.38207857  0.11792143  1
  Ir  Ir1  1  0.11769780  0.11769780  0.38230220  1
  Ir  Ir2  1  0.86754574  0.86754574  0.13245426  1
  Ru  Ru0  1  0.13236357  0.13236357  0.86763643  1
loop_
_geom_bond_atom_site_label_1
_geom_bond_atom_site_label_2
_geom_bond_distance
_geom_bond_site_symmetry_2
B0 Ir1 2.107824 1_655
B0 Ir0 2.114061 1_556
B0 Ru0 2.129631 1_655
B0 Ir2 2.161906 1_546
B0 Sr0 3.067363 1_555
B0 Sr1 3.108351 1_555
B0 Sr1 3.172701 1_545
B1 Ru0 2.096973 1_554
B1 Ir2 2.103117 1_455
B1 Ir1 2.154700 1_555
B1 Ir0 2.176661 1_555
B1 Sr1 3.039071 1_454
B1 Sr0 3.117558 1_455
B1 Sr0 3.150837 1_554
B2 Ir1 2.107824 1_565
B2 Ir0 2.114061 1_555
B2 Ru0 2.129630 1_564
B2 Ir2 2.161906 1_455
B2 Sr0 3.067363 1_555
B2 Sr1 3.108351 1_554
B2 Sr1 3.172701 1_455
B3 Ru0 2.096973 1_555
B3 Ir2 2.103117 1_545
B3 Ir1 2.154700 1_555
B3 Ir0 2.176661 1_555
B3 Sr1 3.039071 1_545
B3 Sr0 3.117558 1_545
B3 Sr0 3.150837 1_555
Ir0 Sr0 3.079523 1_554
Ir0 Sr0 3.079524 1_555
Ir0 Sr1 3.395742 1_544
Ir0 Sr1 3.395742 1_455
Ir1 Sr0 3.069286 1_545
Ir1 Sr0 3.069286 1_455
Ir1 Sr1 3.393025 1_455
Ir1 Sr1 3.393025 1_544
Ir2 Sr1 3.081494 1_555
Ir2 Sr1 3.081494 1_554
Ru0 Sr1 3.065444 1_455
Ru0 Sr1 3.065444 1_545
