# generated using pymatgen
data_Rb6V(RhBr6)3
_symmetry_space_group_name_H-M   'P 1'
_cell_length_a   7.39962540
_cell_length_b   7.39962569
_cell_length_c   18.75384753
_cell_angle_alpha   90.00000000
_cell_angle_beta   90.00000000
_cell_angle_gamma   119.99999448
_symmetry_Int_Tables_number   1
_chemical_formula_structural   Rb6V(RhBr6)3
_chemical_formula_sum   'Rb6 V1 Rh3 Br18'
_cell_volume   889.28409042
_cell_formula_units_Z   1
loop_
 _symmetry_equiv_pos_site_id
 _symmetry_equiv_pos_as_xyz
  1  'x, y, z'
loop_
 _atom_site_type_symbol
 _atom_site_label
 _atom_site_symmetry_multiplicity
 _atom_site_fract_x
 _atom_site_fract_y
 _atom_site_fract_z
 _atom_site_occupancy
  Rb  Rb0  1  0.66666700  0.33333300  0.56472796  1
  Rb  Rb1  1  0.33333300  0.66666700  0.06599251  1
  Rb  Rb2  1  0.33333300  0.66666700  0.43112025  1
  Rb  Rb3  1  0.66666700  0.33333300  0.93481546  1
  Rb  Rb4  1  0.00000000  0.00000000  0.25313839  1
  Rb  Rb5  1  0.00000000  0.00000000  0.74918828  1
  V  V0  1  0.66666700  0.33333300  0.16219998  1
  Rh  Rh0  1  0.33333300  0.66666700  0.66387027  1
  Rh  Rh1  1  0.66666700  0.33333300  0.33317346  1
  Rh  Rh2  1  0.33333300  0.66666700  0.83569218  1
  Br  Br0  1  0.82501746  0.65003391  0.40819831  1
  Br  Br1  1  0.17468785  0.82531215  0.58994245  1
  Br  Br2  1  0.65062429  0.82531215  0.58994245  1
  Br  Br3  1  0.82501746  0.17498254  0.40819831  1
  Br  Br4  1  0.34996609  0.17498254  0.40819831  1
  Br  Br5  1  0.17474273  0.34948546  0.90970263  1
  Br  Br6  1  0.02514753  0.51257427  0.74985108  1
  Br  Br7  1  0.65051454  0.82525727  0.90970263  1
  Br  Br8  1  0.83002228  0.66004556  0.09201431  1
  Br  Br9  1  0.17468785  0.34937571  0.58994245  1
  Br  Br10  1  0.48742573  0.97485247  0.74985108  1
  Br  Br11  1  0.50819905  0.49180095  0.25231830  1
  Br  Br12  1  0.48742573  0.51257427  0.74985108  1
  Br  Br13  1  0.17474273  0.82525727  0.90970263  1
  Br  Br14  1  0.33995444  0.16997772  0.09201431  1
  Br  Br15  1  0.98360090  0.49180095  0.25231830  1
  Br  Br16  1  0.50819905  0.01639910  0.25231830  1
  Br  Br17  1  0.83002228  0.16997772  0.09201431  1
loop_
_geom_bond_atom_site_label_1
_geom_bond_atom_site_label_2
_geom_bond_distance
_geom_bond_site_symmetry_2
Br0 Rh1 2.469523 1_555
Br0 Rb0 3.568787 1_555
Br0 Rb4 3.672313 1_665
Br0 Rb2 3.726220 1_655
Br0 Rb2 3.726234 1_555
Br1 Rh0 2.460979 1_555
Br1 Rb2 3.606363 1_555
Br1 Rb0 3.731325 1_455
Br1 Rb0 3.731325 1_565
Br1 Rb5 3.732513 1_565
Br2 Rh0 2.460984 1_555
Br2 Rb2 3.606366 1_555
Br2 Rb0 3.731322 1_565
Br2 Rb0 3.731329 1_555
Br2 Rb5 3.732513 1_665
Br3 Rh1 2.469523 1_555
Br3 Rb0 3.568786 1_555
Br3 Rb4 3.672309 1_655
Br3 Rb2 3.726227 1_655
Br3 Rb2 3.726227 1_545
Br4 Rh1 2.469523 1_555
Br4 Rb0 3.568787 1_555
Br4 Rb4 3.672313 1_555
Br4 Rb2 3.726220 1_545
Br4 Rb2 3.726234 1_555
Br5 Rh2 2.461277 1_555
Br5 Rb1 3.566843 1_556
Br5 Rb3 3.731100 1_455
Br5 Rb3 3.731107 1_555
Br5 Rb5 3.751994 1_555
Br6 Rh2 2.547937 1_555
Br6 Rh0 2.549593 1_555
Br6 Rb5 3.703338 1_565
Br6 Rb5 3.703345 1_555
Br7 Rh2 2.461277 1_555
Br7 Rb1 3.566843 1_556
Br7 Rb3 3.731100 1_565
Br7 Rb3 3.731107 1_555
Br7 Rb5 3.751994 1_665
Br8 V0 2.473041 1_555
Br8 Rb3 3.615883 1_554
Br8 Rb4 3.725129 1_665
Br8 Rb1 3.732100 1_555
Br8 Rb1 3.732100 1_655
Br9 Rh0 2.460984 1_555
Br9 Rb2 3.606366 1_555
Br9 Rb0 3.731322 1_455
Br9 Rb0 3.731329 1_555
Br9 Rb5 3.732513 1_555
Br10 Rh2 2.547937 1_555
Br10 Rh0 2.549593 1_555
Br10 Rb5 3.703338 1_565
Br10 Rb5 3.703345 1_665
Br11 Rh1 2.534620 1_555
Br11 V0 2.642218 1_555
Br11 Rb4 3.701337 1_555
Br11 Rb4 3.701337 1_665
Br11 Rb2 4.033235 1_555
Br12 Rh2 2.547937 1_555
Br12 Rh0 2.549593 1_555
Br12 Rb5 3.703342 1_665
Br12 Rb5 3.703342 1_555
Br13 Rh2 2.461272 1_555
Br13 Rb1 3.566839 1_556
Br13 Rb3 3.731104 1_455
Br13 Rb3 3.731104 1_565
Br13 Rb5 3.751994 1_565
Br14 V0 2.473041 1_555
Br14 Rb3 3.615883 1_554
Br14 Rb4 3.725129 1_555
Br14 Rb1 3.732100 1_555
Br14 Rb1 3.732100 1_545
Br15 Rh1 2.534610 1_555
Br15 V0 2.642209 1_555
Br15 Rb4 3.701333 1_665
Br15 Rb4 3.701341 1_655
Br15 Rb2 4.033235 1_655
Br16 Rh1 2.534610 1_555
Br16 V0 2.642209 1_555
Br16 Rb4 3.701333 1_555
Br16 Rb4 3.701341 1_655
Br16 Rb2 4.033235 1_545
Br17 V0 2.473030 1_555
Br17 Rb3 3.615875 1_554
Br17 Rb4 3.725133 1_655
Br17 Rb1 3.732100 1_655
Br17 Rb1 3.732100 1_545
