# generated using pymatgen
data_Rb2Ca2TeO6
_symmetry_space_group_name_H-M   'P 1'
_cell_length_a   5.77400111
_cell_length_b   5.77400146
_cell_length_c   6.84145006
_cell_angle_alpha   98.67098252
_cell_angle_beta   98.67098363
_cell_angle_gamma   118.70380113
_symmetry_Int_Tables_number   1
_chemical_formula_structural   Rb2Ca2TeO6
_chemical_formula_sum   'Rb2 Ca2 Te1 O6'
_cell_volume   191.10974055
_cell_formula_units_Z   1
loop_
 _symmetry_equiv_pos_site_id
 _symmetry_equiv_pos_as_xyz
  1  'x, y, z'
loop_
 _atom_site_type_symbol
 _atom_site_label
 _atom_site_symmetry_multiplicity
 _atom_site_fract_x
 _atom_site_fract_y
 _atom_site_fract_z
 _atom_site_occupancy
  Rb  Rb0  1  0.82723288  0.17276512  0.49999900  1
  Rb  Rb1  1  0.17276512  0.82723288  0.49999900  1
  Ca  Ca0  1  0.66384985  0.33615015  1.00000000  1
  Ca  Ca1  1  0.33615015  0.66384985  0.00000000  1
  Te  Te0  1  0.00000000  0.00000000  0.00000000  1
  O  O0  1  0.78234324  0.78234324  0.16672613  1
  O  O1  1  0.33762813  0.05297892  0.16528901  1
  O  O2  1  0.05297892  0.33762813  0.16528901  1
  O  O3  1  0.94702108  0.66237287  0.83471199  1
  O  O4  1  0.66237287  0.94702108  0.83471199  1
  O  O5  1  0.21765676  0.21765676  0.83327487  1
loop_
_geom_bond_atom_site_label_1
_geom_bond_atom_site_label_2
_geom_bond_distance
_geom_bond_site_symmetry_2
Ca0 O2 2.353647 1_656
Ca0 O4 2.353648 1_545
Ca0 O5 2.364754 1_555
Ca0 O0 2.364756 1_556
Ca0 O3 2.396135 1_555
Ca0 O1 2.396137 1_556
Ca1 O1 2.353647 1_565
Ca1 O3 2.353648 1_454
Ca1 O5 2.364754 1_554
Ca1 O0 2.364756 1_555
Ca1 O4 2.396135 1_554
Ca1 O2 2.396137 1_555
O0 Te0 1.951218 1_665
O0 Rb1 2.838750 1_655
O0 Rb0 2.838750 1_565
O1 Te0 1.957272 1_555
O1 Rb1 2.866039 1_545
O1 Rb0 3.066958 1_555
O2 Te0 1.957272 1_555
O2 Rb0 2.866039 1_455
O2 Rb1 3.066958 1_555
O3 Te0 1.957264 1_666
O3 Rb1 2.866049 1_655
O3 Rb0 3.066978 1_555
O4 Te0 1.957264 1_666
O4 Rb0 2.866049 1_565
O4 Rb1 3.066978 1_555
O5 Te0 1.951213 1_556
O5 Rb0 2.838767 1_455
O5 Rb1 2.838767 1_545
