# generated using pymatgen
data_Ho2Ti2O7
_symmetry_space_group_name_H-M   'P 1'
_cell_length_a   7.11764165
_cell_length_b   7.11764165
_cell_length_c   7.11764165
_cell_angle_alpha   60.00000000
_cell_angle_beta   60.00000000
_cell_angle_gamma   60.00000000
_symmetry_Int_Tables_number   1
_chemical_formula_structural   Ho2Ti2O7
_chemical_formula_sum   'Ho4 Ti4 O14'
_cell_volume   254.97251028
_cell_formula_units_Z   2
loop_
 _symmetry_equiv_pos_site_id
 _symmetry_equiv_pos_as_xyz
  1  'x, y, z'
loop_
 _atom_site_type_symbol
 _atom_site_label
 _atom_site_symmetry_multiplicity
 _atom_site_fract_x
 _atom_site_fract_y
 _atom_site_fract_z
 _atom_site_occupancy
  Ho  Ho0  1  0.62500000  0.12500000  0.12500000  1
  Ho  Ho1  1  0.12500000  0.12500000  0.12500000  1
  Ho  Ho2  1  0.12500000  0.62500000  0.12500000  1
  Ho  Ho3  1  0.12500000  0.12500000  0.62500000  1
  Ti  Ti0  1  0.62500000  0.62500000  0.12500000  1
  Ti  Ti1  1  0.62500000  0.12500000  0.62500000  1
  Ti  Ti2  1  0.62500000  0.62500000  0.62500000  1
  Ti  Ti3  1  0.12500000  0.62500000  0.62500000  1
  O  O0  1  0.95588591  0.54411409  0.54411409  1
  O  O1  1  0.70588591  0.29411409  0.29411409  1
  O  O2  1  0.70588591  0.70588591  0.29411409  1
  O  O3  1  0.95588591  0.95588591  0.54411409  1
  O  O4  1  0.95588591  0.54411409  0.95588591  1
  O  O5  1  0.70588591  0.29411409  0.70588591  1
  O  O6  1  0.29411409  0.70588591  0.29411409  1
  O  O7  1  -0.00000000  -0.00000000  0.00000000  1
  O  O8  1  0.29411409  0.29411409  0.70588591  1
  O  O9  1  0.29411409  0.70588591  0.70588591  1
  O  O10  1  0.25000000  0.25000000  0.25000000  1
  O  O11  1  0.54411409  0.95588591  0.54411409  1
  O  O12  1  0.54411409  0.54411409  0.95588591  1
  O  O13  1  0.54411409  0.95588591  0.95588591  1
loop_
_geom_bond_atom_site_label_1
_geom_bond_atom_site_label_2
_geom_bond_distance
_geom_bond_site_symmetry_2
Ho0 O7 2.179324 1_655
Ho0 O10 2.179324 1_555
Ho0 O1 2.462531 1_555
Ho0 O13 2.462531 1_544
Ho0 O5 2.462531 1_554
Ho0 O12 2.462531 1_554
Ho0 O2 2.462531 1_545
Ho0 O11 2.462531 1_545
Ho1 O7 2.179324 1_555
Ho1 O10 2.179324 1_555
Ho1 O6 2.462531 1_545
Ho1 O8 2.462531 1_554
Ho1 O13 2.462531 1_544
Ho1 O4 2.462531 1_454
Ho1 O1 2.462531 1_455
Ho1 O3 2.462531 1_445
Ho2 O10 2.179324 1_555
Ho2 O7 2.179324 1_565
Ho2 O4 2.462531 1_454
Ho2 O9 2.462531 1_554
Ho2 O12 2.462531 1_554
Ho2 O0 2.462531 1_455
Ho2 O6 2.462531 1_555
Ho2 O2 2.462531 1_455
Ho3 O7 2.179324 1_556
Ho3 O10 2.179324 1_555
Ho3 O9 2.462531 1_545
Ho3 O8 2.462531 1_555
Ho3 O0 2.462531 1_455
Ho3 O11 2.462531 1_545
Ho3 O5 2.462531 1_455
Ho3 O3 2.462531 1_445
O0 Ti3 1.956835 1_655
O0 Ti2 1.956835 1_555
O1 Ti0 1.956835 1_555
O1 Ti1 1.956835 1_555
O2 Ti0 1.956835 1_555
O2 Ti2 1.956835 1_555
O3 Ti1 1.956835 1_565
O3 Ti3 1.956835 1_655
O4 Ti0 1.956835 1_556
O4 Ti3 1.956835 1_655
O5 Ti1 1.956835 1_555
O5 Ti2 1.956835 1_555
O6 Ti0 1.956835 1_555
O6 Ti3 1.956835 1_555
O8 Ti1 1.956835 1_555
O8 Ti3 1.956835 1_555
O9 Ti3 1.956835 1_555
O9 Ti2 1.956835 1_555
O11 Ti1 1.956835 1_565
O11 Ti2 1.956835 1_555
O12 Ti0 1.956835 1_556
O12 Ti2 1.956835 1_555
O13 Ti0 1.956835 1_556
O13 Ti1 1.956835 1_565
