# generated using pymatgen
data_Ta3AlIr2N
_symmetry_space_group_name_H-M   'P 1'
_cell_length_a   8.27003123
_cell_length_b   8.27003107
_cell_length_c   8.27003182
_cell_angle_alpha   60.00000881
_cell_angle_beta   60.00000946
_cell_angle_gamma   60.00000339
_symmetry_Int_Tables_number   1
_chemical_formula_structural   Ta3AlIr2N
_chemical_formula_sum   'Ta12 Al4 Ir8 N4'
_cell_volume   399.95077702
_cell_formula_units_Z   4
loop_
 _symmetry_equiv_pos_site_id
 _symmetry_equiv_pos_as_xyz
  1  'x, y, z'
loop_
 _atom_site_type_symbol
 _atom_site_label
 _atom_site_symmetry_multiplicity
 _atom_site_fract_x
 _atom_site_fract_y
 _atom_site_fract_z
 _atom_site_occupancy
  Ta  Ta0  1  0.81172657  0.81172657  0.18827343  1
  Ta  Ta1  1  0.18827343  0.18827343  0.81172657  1
  Ta  Ta2  1  0.81172657  0.18827343  0.81172657  1
  Ta  Ta3  1  0.18827343  0.81172657  0.18827343  1
  Ta  Ta4  1  0.18827343  0.81172657  0.81172657  1
  Ta  Ta5  1  0.81172657  0.18827343  0.18827343  1
  Ta  Ta6  1  0.43827343  0.43827343  0.06172657  1
  Ta  Ta7  1  0.06172657  0.06172657  0.43827343  1
  Ta  Ta8  1  0.43827343  0.06172657  0.43827343  1
  Ta  Ta9  1  0.06172657  0.43827343  0.06172657  1
  Ta  Ta10  1  0.06172657  0.43827343  0.43827343  1
  Ta  Ta11  1  0.43827343  0.06172657  0.06172657  1
  Al  Al0  1  0.12500000  0.62500000  0.62500000  1
  Al  Al1  1  0.62500000  0.12500000  0.62500000  1
  Al  Al2  1  0.62500000  0.62500000  0.12500000  1
  Al  Al3  1  0.62500000  0.62500000  0.62500000  1
  Ir  Ir0  1  0.77205114  0.40931662  0.40931662  1
  Ir  Ir1  1  0.40931662  0.77205114  0.40931662  1
  Ir  Ir2  1  0.40931662  0.40931662  0.77205114  1
  Ir  Ir3  1  0.40931662  0.40931662  0.40931662  1
  Ir  Ir4  1  0.47794886  0.84068338  0.84068338  1
  Ir  Ir5  1  0.84068338  0.47794886  0.84068338  1
  Ir  Ir6  1  0.84068338  0.84068338  0.47794886  1
  Ir  Ir7  1  0.84068338  0.84068338  0.84068338  1
  N  N0  1  0.62500000  0.12500000  0.12500000  1
  N  N1  1  0.12500000  0.62500000  0.12500000  1
  N  N2  1  0.12500000  0.12500000  0.62500000  1
  N  N3  1  0.12500000  0.12500000  0.12500000  1
loop_
_geom_bond_atom_site_label_1
_geom_bond_atom_site_label_2
_geom_bond_distance
_geom_bond_site_symmetry_2
Al0 Ir7 2.585614 1_455
Al0 Ir3 2.585614 1_555
Al0 Ir2 2.585619 1_555
Al0 Ir6 2.585619 1_455
Al0 Ir1 2.585619 1_555
Al0 Ir5 2.585619 1_455
Al1 Ir7 2.585614 1_545
Al1 Ir3 2.585614 1_555
Al1 Ir2 2.585619 1_555
Al1 Ir6 2.585619 1_545
Al1 Ir0 2.585619 1_555
Al1 Ir4 2.585619 1_545
Al2 Ir7 2.585614 1_554
Al2 Ir3 2.585614 1_555
Al2 Ir0 2.585619 1_555
Al2 Ir4 2.585619 1_554
Al2 Ir1 2.585619 1_555
Al2 Ir5 2.585619 1_554
Al3 Ir4 2.585612 1_555
Al3 Ir0 2.585612 1_555
Al3 Ir5 2.585612 1_555
Al3 Ir1 2.585612 1_555
Al3 Ir6 2.585612 1_555
Al3 Ir2 2.585612 1_555
Ir0 Ta10 2.656772 1_655
Ir0 Ta7 2.656777 1_655
Ir0 Ta9 2.656778 1_655
Ir0 Ta0 2.988834 1_555
Ir0 Ta2 2.988834 1_555
Ir0 Ta5 2.988841 1_555
Ir1 Ta8 2.656772 1_565
Ir1 Ta7 2.656777 1_565
Ir1 Ta11 2.656778 1_565
Ir1 Ta0 2.988834 1_555
Ir1 Ta4 2.988834 1_555
Ir1 Ta3 2.988841 1_555
Ir2 Ta6 2.656773 1_556
Ir2 Ta11 2.656778 1_556
Ir2 Ta9 2.656778 1_556
Ir2 Ta4 2.988834 1_555
Ir2 Ta2 2.988834 1_555
Ir2 Ta1 2.988841 1_555
Ir3 Ta8 2.656781 1_555
Ir3 Ta10 2.656781 1_555
Ir3 Ta6 2.656781 1_555
Ir3 Ta3 2.988837 1_555
Ir3 Ta5 2.988837 1_555
Ir3 Ta1 2.988837 1_555
Ir4 Ta4 2.656772 1_555
Ir4 Ta1 2.656777 1_565
Ir4 Ta3 2.656778 1_556
Ir4 Ta6 2.988834 1_556
Ir4 Ta8 2.988834 1_565
Ir4 Ta11 2.988841 1_566
Ir5 Ta2 2.656772 1_555
Ir5 Ta1 2.656777 1_655
Ir5 Ta5 2.656778 1_556
Ir5 Ta6 2.988834 1_556
Ir5 Ta10 2.988834 1_655
Ir5 Ta9 2.988841 1_656
Ir6 Ta0 2.656773 1_555
Ir6 Ta5 2.656778 1_565
Ir6 Ta3 2.656778 1_655
Ir6 Ta10 2.988834 1_655
Ir6 Ta8 2.988834 1_565
Ir6 Ta7 2.988841 1_665
Ir7 Ta2 2.656781 1_565
Ir7 Ta4 2.656781 1_655
Ir7 Ta0 2.656781 1_556
Ir7 Ta9 2.988837 1_656
Ir7 Ta11 2.988837 1_566
Ir7 Ta7 2.988837 1_665
N0 Ta5 2.195955 1_555
N0 Ta11 2.195955 1_555
N0 Ta6 2.195955 1_555
N0 Ta0 2.195955 1_545
N0 Ta8 2.195955 1_555
N0 Ta2 2.195955 1_554
N1 Ta3 2.195955 1_555
N1 Ta9 2.195955 1_555
N1 Ta6 2.195955 1_555
N1 Ta0 2.195955 1_455
N1 Ta4 2.195955 1_554
N1 Ta10 2.195955 1_555
N2 Ta1 2.195955 1_555
N2 Ta7 2.195955 1_555
N2 Ta10 2.195955 1_555
N2 Ta4 2.195955 1_545
N2 Ta8 2.195955 1_555
N2 Ta2 2.195955 1_455
N3 Ta9 2.195955 1_555
N3 Ta3 2.195955 1_545
N3 Ta11 2.195955 1_555
N3 Ta5 2.195955 1_455
N3 Ta7 2.195955 1_555
N3 Ta1 2.195955 1_554
