# generated using pymatgen
data_Ti2V3AgO12
_symmetry_space_group_name_H-M   'P 1'
_cell_length_a   9.12347158
_cell_length_b   9.12347218
_cell_length_c   9.12347234
_cell_angle_alpha   59.59541088
_cell_angle_beta   59.59540770
_cell_angle_gamma   59.59541440
_symmetry_Int_Tables_number   1
_chemical_formula_structural   Ti2V3AgO12
_chemical_formula_sum   'Ti4 V6 Ag2 O24'
_cell_volume   532.05085684
_cell_formula_units_Z   2
loop_
 _symmetry_equiv_pos_site_id
 _symmetry_equiv_pos_as_xyz
  1  'x, y, z'
loop_
 _atom_site_type_symbol
 _atom_site_label
 _atom_site_symmetry_multiplicity
 _atom_site_fract_x
 _atom_site_fract_y
 _atom_site_fract_z
 _atom_site_occupancy
  Ti  Ti0  1  0.35948207  0.35948207  0.35948207  1
  Ti  Ti1  1  0.85948207  0.85948207  0.85948207  1
  Ti  Ti2  1  0.64051793  0.64051793  0.64051793  1
  Ti  Ti3  1  0.14051793  0.14051793  0.14051793  1
  V  V0  1  0.96501979  0.53498021  0.25000000  1
  V  V1  1  0.25000000  0.96501979  0.53498021  1
  V  V2  1  0.53498021  0.25000000  0.96501979  1
  V  V3  1  0.75000000  0.03498021  0.46501979  1
  V  V4  1  0.46501979  0.75000000  0.03498021  1
  V  V5  1  0.03498021  0.46501979  0.75000000  1
  Ag  Ag0  1  0.50000000  0.50000000  0.50000000  1
  Ag  Ag1  1  0.00000000  0.00000000  0.00000000  1
  O  O0  1  0.14324169  0.49597992  0.29723087  1
  O  O1  1  0.29723087  0.14324169  0.49597992  1
  O  O2  1  0.49597992  0.29723087  0.14324169  1
  O  O3  1  0.79723087  0.99597992  0.64324169  1
  O  O4  1  0.64324169  0.79723087  0.99597992  1
  O  O5  1  0.99597992  0.64324169  0.79723087  1
  O  O6  1  0.85675831  0.50402008  0.70276913  1
  O  O7  1  0.70276913  0.85675831  0.50402008  1
  O  O8  1  0.50402008  0.70276913  0.85675831  1
  O  O9  1  0.20276913  0.00402008  0.35675831  1
  O  O10  1  0.35675831  0.20276913  0.00402008  1
  O  O11  1  0.00402008  0.35675831  0.20276913  1
  O  O12  1  0.23217114  0.44097564  0.56975166  1
  O  O13  1  0.56975166  0.23217114  0.44097564  1
  O  O14  1  0.44097564  0.56975166  0.23217114  1
  O  O15  1  0.06975166  0.94097564  0.73217114  1
  O  O16  1  0.73217114  0.06975166  0.94097564  1
  O  O17  1  0.94097564  0.73217114  0.06975166  1
  O  O18  1  0.76782886  0.55902436  0.43024834  1
  O  O19  1  0.43024834  0.76782886  0.55902436  1
  O  O20  1  0.55902436  0.43024834  0.76782886  1
  O  O21  1  0.93024834  0.05902436  0.26782886  1
  O  O22  1  0.26782886  0.93024834  0.05902436  1
  O  O23  1  0.05902436  0.26782886  0.93024834  1
loop_
_geom_bond_atom_site_label_1
_geom_bond_atom_site_label_2
_geom_bond_distance
_geom_bond_site_symmetry_2
Ag0 O18 2.465128 1_555
Ag0 O12 2.465128 1_555
Ag0 O19 2.465128 1_555
Ag0 O13 2.465128 1_555
Ag0 O20 2.465128 1_555
Ag0 O14 2.465128 1_555
Ag1 O22 2.465128 1_545
Ag1 O16 2.465128 1_454
Ag1 O23 2.465128 1_554
Ag1 O17 2.465128 1_445
Ag1 O21 2.465128 1_455
Ag1 O15 2.465128 1_544
O0 V0 1.710136 1_455
O0 Ti0 1.922756 1_555
O1 V1 1.710136 1_545
O1 Ti0 1.922756 1_555
O2 V2 1.710136 1_554
O2 Ti0 1.922756 1_555
O3 V3 1.710136 1_565
O3 Ti1 1.922756 1_555
O4 V4 1.710136 1_556
O4 Ti1 1.922755 1_555
O5 V5 1.710136 1_655
O5 Ti1 1.922756 1_555
O6 V5 1.710136 1_655
O6 Ti2 1.922756 1_555
O7 V3 1.710136 1_565
O7 Ti2 1.922756 1_555
O8 V4 1.710136 1_556
O8 Ti2 1.922756 1_555
O9 V1 1.710136 1_545
O9 Ti3 1.922756 1_555
O10 V2 1.710136 1_554
O10 Ti3 1.922755 1_555
O11 V0 1.710136 1_455
O11 Ti3 1.922756 1_555
O12 V5 1.720502 1_555
O12 Ti0 1.973906 1_555
O13 V3 1.720503 1_555
O13 Ti0 1.973906 1_555
O14 V4 1.720502 1_555
O14 Ti0 1.973906 1_555
O15 V1 1.720502 1_555
O15 Ti1 1.973905 1_455
O16 V2 1.720502 1_555
O16 Ti1 1.973906 1_545
O17 V0 1.720502 1_555
O17 Ti1 1.973906 1_554
O18 V0 1.720502 1_555
O18 Ti2 1.973906 1_555
O19 V1 1.720503 1_555
O19 Ti2 1.973906 1_555
O20 V2 1.720502 1_555
O20 Ti2 1.973906 1_555
O21 V3 1.720502 1_555
O21 Ti3 1.973905 1_655
O22 V4 1.720502 1_555
O22 Ti3 1.973906 1_565
O23 V5 1.720502 1_555
O23 Ti3 1.973906 1_556
