# generated using pymatgen
data_Cd2AgIO6
_symmetry_space_group_name_H-M   'P 1'
_cell_length_a   5.49047203
_cell_length_b   5.71126245
_cell_length_c   8.42296720
_cell_angle_alpha   90.00000000
_cell_angle_beta   89.78283768
_cell_angle_gamma   90.00000000
_symmetry_Int_Tables_number   1
_chemical_formula_structural   Cd2AgIO6
_chemical_formula_sum   'Cd4 Ag2 I2 O12'
_cell_volume   264.12152223
_cell_formula_units_Z   2
loop_
 _symmetry_equiv_pos_site_id
 _symmetry_equiv_pos_as_xyz
  1  'x, y, z'
loop_
 _atom_site_type_symbol
 _atom_site_label
 _atom_site_symmetry_multiplicity
 _atom_site_fract_x
 _atom_site_fract_y
 _atom_site_fract_z
 _atom_site_occupancy
  Cd  Cd0  1  0.49030819  0.97182427  0.77139356  1
  Cd  Cd1  1  0.00969181  0.47182427  0.72860644  1
  Cd  Cd2  1  0.50969181  0.02817573  0.22860644  1
  Cd  Cd3  1  0.99030819  0.52817573  0.27139356  1
  Ag  Ag0  1  0.50000000  0.50000000  0.00000000  1
  Ag  Ag1  1  0.00000000  0.00000000  0.50000000  1
  I  I0  1  0.50000000  0.50000000  0.50000000  1
  I  I1  1  0.00000000  0.00000000  0.00000000  1
  O  O0  1  0.34404932  0.25722925  0.61589306  1
  O  O1  1  0.15595068  0.75722925  0.88410694  1
  O  O2  1  0.65595068  0.74277075  0.38410694  1
  O  O3  1  0.84404932  0.24277075  0.11589306  1
  O  O4  1  0.62891081  0.62336674  0.69118533  1
  O  O5  1  0.87108919  0.12336674  0.80881467  1
  O  O6  1  0.37108919  0.37663326  0.30881467  1
  O  O7  1  0.12891081  0.87663326  0.19118533  1
  O  O8  1  0.21355731  0.67530511  0.52734286  1
  O  O9  1  0.28644269  0.17530511  0.97265714  1
  O  O10  1  0.78644269  0.32469489  0.47265714  1
  O  O11  1  0.71355731  0.82469489  0.02734286  1
loop_
_geom_bond_atom_site_label_1
_geom_bond_atom_site_label_2
_geom_bond_distance
_geom_bond_site_symmetry_2
Cd0 O4 2.234338 1_555
Cd0 O0 2.241722 1_565
Cd0 O5 2.285678 1_565
Cd0 O9 2.337278 1_565
Cd0 O1 2.400067 1_555
Cd0 O11 2.622265 1_556
Cd1 O5 2.234338 1_455
Cd1 O1 2.241722 1_555
Cd1 O4 2.285678 1_455
Cd1 O8 2.337278 1_555
Cd1 O0 2.400067 1_555
Cd1 O10 2.622265 1_455
Cd2 O6 2.234338 1_555
Cd2 O2 2.241722 1_545
Cd2 O7 2.285678 1_545
Cd2 O11 2.337278 1_545
Cd2 O3 2.400067 1_555
Cd2 O9 2.622265 1_554
Cd3 O7 2.234338 1_655
Cd3 O3 2.241722 1_555
Cd3 O6 2.285678 1_655
Cd3 O10 2.337278 1_555
Cd3 O2 2.400067 1_555
Cd3 O8 2.622265 1_655
Ag0 O11 2.206532 1_555
Ag0 O9 2.206532 1_554
Ag0 O3 2.587167 1_555
Ag0 O1 2.587167 1_554
Ag0 O6 2.783763 1_555
Ag0 O4 2.783763 1_554
Ag1 O10 2.206532 1_455
Ag1 O8 2.206532 1_545
Ag1 O0 2.587167 1_555
Ag1 O2 2.587167 1_445
Ag1 O5 2.783763 1_455
Ag1 O7 2.783763 1_545
I0 O10 1.877799 1_555
I0 O8 1.877799 1_555
I0 O4 1.897168 1_555
I0 O6 1.897168 1_555
I0 O2 1.897938 1_555
I0 O0 1.897938 1_555
I1 O9 1.877799 1_554
I1 O11 1.877799 1_445
I1 O7 1.897168 1_545
I1 O5 1.897168 1_454
I1 O3 1.897938 1_455
I1 O1 1.897938 1_544
