# generated using pymatgen
data_CaNi6(BIr)6
_symmetry_space_group_name_H-M   'P 1'
_cell_length_a   6.26896737
_cell_length_b   6.26896809
_cell_length_c   6.26896731
_cell_angle_alpha   103.36389763
_cell_angle_beta   103.36389733
_cell_angle_gamma   103.36390695
_symmetry_Int_Tables_number   1
_chemical_formula_structural   CaNi6(BIr)6
_chemical_formula_sum   'Ca1 Ni6 B6 Ir6'
_cell_volume   222.42105908
_cell_formula_units_Z   1
loop_
 _symmetry_equiv_pos_site_id
 _symmetry_equiv_pos_as_xyz
  1  'x, y, z'
loop_
 _atom_site_type_symbol
 _atom_site_label
 _atom_site_symmetry_multiplicity
 _atom_site_fract_x
 _atom_site_fract_y
 _atom_site_fract_z
 _atom_site_occupancy
  Ca  Ca0  1  0.00000000  0.00000000  0.00000000  1
  Ni  Ni0  1  0.79868761  0.54324250  0.54324250  1
  Ni  Ni1  1  0.54324250  0.54324250  0.79868761  1
  Ni  Ni2  1  0.54324250  0.79868761  0.54324250  1
  Ni  Ni3  1  0.20131239  0.45675750  0.45675750  1
  Ni  Ni4  1  0.45675750  0.45675750  0.20131239  1
  Ni  Ni5  1  0.45675750  0.20131239  0.45675750  1
  B  B0  1  0.34662896  0.76892609  0.76892609  1
  B  B1  1  0.76892609  0.76892609  0.34662896  1
  B  B2  1  0.76892609  0.34662896  0.76892609  1
  B  B3  1  0.65337104  0.23107391  0.23107391  1
  B  B4  1  0.23107391  0.23107391  0.65337104  1
  B  B5  1  0.23107391  0.65337104  0.23107391  1
  Ir  Ir0  1  0.86142976  0.13857024  0.50000000  1
  Ir  Ir1  1  0.13857024  0.50000000  0.86142976  1
  Ir  Ir2  1  0.50000000  0.86142976  0.13857024  1
  Ir  Ir3  1  0.86142976  0.50000000  0.13857024  1
  Ir  Ir4  1  0.50000000  0.13857024  0.86142976  1
  Ir  Ir5  1  0.13857024  0.86142976  0.50000000  1
loop_
_geom_bond_atom_site_label_1
_geom_bond_atom_site_label_2
_geom_bond_distance
_geom_bond_site_symmetry_2
Ca0 Ni4 3.295397 1_555
Ca0 Ni1 3.295397 1_444
Ca0 Ni5 3.295397 1_555
Ca0 Ni2 3.295397 1_444
Ca0 Ni3 3.295397 1_555
Ca0 Ni0 3.295397 1_444
Ca0 Ir4 3.418052 1_554
Ca0 Ir2 3.418052 1_445
Ca0 Ir0 3.418052 1_455
Ca0 Ir5 3.418052 1_544
Ca0 Ir5 3.418052 1_545
Ca0 Ir0 3.418052 1_454
Ca0 Ir2 3.418052 1_545
Ca0 Ir4 3.418052 1_454
Ca0 Ir1 3.418052 1_554
Ca0 Ir3 3.418052 1_445
Ca0 Ir3 3.418053 1_455
Ca0 Ir1 3.418053 1_544
B0 Ni2 2.092255 1_555
B0 Ni1 2.092255 1_555
B0 Ir1 2.159822 1_555
B0 Ir5 2.159822 1_555
B0 Ir2 2.172937 1_556
B0 Ir4 2.172937 1_565
B0 Ni3 2.251837 1_555
B0 Ca0 3.295306 1_566
B1 Ni2 2.092255 1_555
B1 Ni0 2.092255 1_555
B1 Ir2 2.159822 1_555
B1 Ir3 2.159822 1_555
B1 Ir5 2.172937 1_655
B1 Ir0 2.172937 1_565
B1 Ni4 2.251837 1_555
B1 Ca0 3.295305 1_665
B2 Ni0 2.092255 1_555
B2 Ni1 2.092255 1_555
B2 Ir4 2.159822 1_555
B2 Ir0 2.159822 1_555
B2 Ir1 2.172937 1_655
B2 Ir3 2.172937 1_556
B2 Ni5 2.251837 1_555
B2 Ca0 3.295306 1_656
B3 Ni5 2.092255 1_555
B3 Ni4 2.092255 1_555
B3 Ir3 2.159822 1_555
B3 Ir0 2.159822 1_555
B3 Ir4 2.172937 1_554
B3 Ir2 2.172937 1_545
B3 Ni0 2.251837 1_555
B3 Ca0 3.295306 1_655
B4 Ni5 2.092255 1_555
B4 Ni3 2.092255 1_555
B4 Ir4 2.159822 1_555
B4 Ir1 2.159822 1_555
B4 Ir0 2.172937 1_455
B4 Ir5 2.172937 1_545
B4 Ni1 2.251837 1_555
B4 Ca0 3.295305 1_556
B5 Ni3 2.092255 1_555
B5 Ni4 2.092255 1_555
B5 Ir2 2.159822 1_555
B5 Ir5 2.159822 1_555
B5 Ir3 2.172937 1_455
B5 Ir1 2.172937 1_554
B5 Ni2 2.251837 1_555
B5 Ca0 3.295306 1_565
