# generated using pymatgen
data_Ca6Sb7AsPd16
_symmetry_space_group_name_H-M   'P 1'
_cell_length_a   9.31915419
_cell_length_b   9.31915361
_cell_length_c   9.31915364
_cell_angle_alpha   59.99999992
_cell_angle_beta   60.00000197
_cell_angle_gamma   59.99999528
_symmetry_Int_Tables_number   1
_chemical_formula_structural   Ca6Sb7AsPd16
_chemical_formula_sum   'Ca6 Sb7 As1 Pd16'
_cell_volume   572.28772714
_cell_formula_units_Z   1
loop_
 _symmetry_equiv_pos_site_id
 _symmetry_equiv_pos_as_xyz
  1  'x, y, z'
loop_
 _atom_site_type_symbol
 _atom_site_label
 _atom_site_symmetry_multiplicity
 _atom_site_fract_x
 _atom_site_fract_y
 _atom_site_fract_z
 _atom_site_occupancy
  Ca  Ca0  1  0.71333032  0.28666968  0.28666968  1
  Ca  Ca1  1  0.28666968  0.71333032  0.71333032  1
  Ca  Ca2  1  0.28666968  0.71333032  0.28666968  1
  Ca  Ca3  1  0.71333032  0.28666968  0.71333032  1
  Ca  Ca4  1  0.28666968  0.28666968  0.71333032  1
  Ca  Ca5  1  0.71333032  0.71333032  0.28666968  1
  Sb  Sb0  1  0.00000000  0.00000000  0.00000000  1
  Sb  Sb1  1  0.50000000  0.00000000  0.00000000  1
  Sb  Sb2  1  0.00000000  0.50000000  0.50000000  1
  Sb  Sb3  1  0.00000000  0.50000000  0.00000000  1
  Sb  Sb4  1  0.50000000  0.00000000  0.50000000  1
  Sb  Sb5  1  0.00000000  0.00000000  0.50000000  1
  Sb  Sb6  1  0.50000000  0.50000000  0.00000000  1
  As  As0  1  0.50000000  0.50000000  0.50000000  1
  Pd  Pd0  1  0.11929807  0.11929807  0.11929807  1
  Pd  Pd1  1  0.88070193  0.88070193  0.88070193  1
  Pd  Pd2  1  0.11929807  0.11929807  0.64210379  1
  Pd  Pd3  1  0.11929807  0.64210379  0.11929807  1
  Pd  Pd4  1  0.88070193  0.88070193  0.35789621  1
  Pd  Pd5  1  0.88070193  0.35789621  0.88070193  1
  Pd  Pd6  1  0.64210379  0.11929807  0.11929807  1
  Pd  Pd7  1  0.35789621  0.88070193  0.88070193  1
  Pd  Pd8  1  0.32953183  0.32953183  0.32953183  1
  Pd  Pd9  1  0.67046817  0.67046817  0.67046817  1
  Pd  Pd10  1  0.32953183  0.32953183  0.01140551  1
  Pd  Pd11  1  0.32953183  0.01140551  0.32953183  1
  Pd  Pd12  1  0.67046817  0.67046817  0.98859449  1
  Pd  Pd13  1  0.67046817  0.98859449  0.67046817  1
  Pd  Pd14  1  0.01140551  0.32953183  0.32953183  1
  Pd  Pd15  1  0.98859449  0.67046817  0.67046817  1
loop_
_geom_bond_atom_site_label_1
_geom_bond_atom_site_label_2
_geom_bond_distance
_geom_bond_site_symmetry_2
Ca0 Pd4 3.132046 1_545
Ca0 Pd5 3.132046 1_554
Ca0 Pd0 3.132049 1_655
Ca0 Pd6 3.132062 1_555
Ca0 Pd8 3.227065 1_555
Ca0 Pd12 3.227068 1_554
Ca0 Pd13 3.227068 1_545
Ca0 Pd14 3.227074 1_655
Ca0 Sb5 3.330073 1_655
Ca0 Sb6 3.330073 1_555
Ca0 Sb4 3.330073 1_555
Ca0 Sb3 3.330073 1_655
Ca1 Pd2 3.132046 1_565
Ca1 Pd3 3.132046 1_556
Ca1 Pd1 3.132049 1_455
Ca1 Pd7 3.132062 1_555
Ca1 Pd9 3.227065 1_555
Ca1 Pd10 3.227068 1_556
Ca1 Pd11 3.227068 1_565
Ca1 Pd15 3.227074 1_455
Ca1 Sb5 3.330073 1_565
Ca1 Sb6 3.330073 1_556
Ca1 Sb4 3.330073 1_565
Ca1 Sb3 3.330073 1_556
Ca2 Pd7 3.132046 1_554
Ca2 Pd4 3.132046 1_455
Ca2 Pd0 3.132048 1_565
Ca2 Pd3 3.132062 1_555
Ca2 Pd8 3.227064 1_555
Ca2 Pd15 3.227068 1_455
Ca2 Pd12 3.227068 1_554
Ca2 Pd11 3.227074 1_565
Ca2 Sb5 3.330073 1_565
Ca2 Sb6 3.330073 1_555
Ca2 Sb1 3.330073 1_565
Ca2 Sb2 3.330073 1_555
Ca3 Pd6 3.132046 1_556
Ca3 Pd2 3.132046 1_655
Ca3 Pd1 3.132048 1_545
Ca3 Pd5 3.132062 1_555
Ca3 Pd9 3.227064 1_555
Ca3 Pd14 3.227068 1_655
Ca3 Pd10 3.227068 1_556
Ca3 Pd13 3.227074 1_545
Ca3 Sb5 3.330073 1_655
Ca3 Sb6 3.330073 1_556
Ca3 Sb1 3.330073 1_556
Ca3 Sb2 3.330073 1_655
Ca4 Pd7 3.132046 1_545
Ca4 Pd5 3.132046 1_455
Ca4 Pd0 3.132049 1_556
Ca4 Pd2 3.132062 1_555
Ca4 Pd8 3.227064 1_555
Ca4 Pd15 3.227068 1_455
Ca4 Pd13 3.227068 1_545
Ca4 Pd10 3.227074 1_556
Ca4 Sb1 3.330073 1_556
Ca4 Sb4 3.330073 1_555
Ca4 Sb3 3.330073 1_556
Ca4 Sb2 3.330073 1_555
Ca5 Pd6 3.132046 1_565
Ca5 Pd3 3.132046 1_655
Ca5 Pd1 3.132049 1_554
Ca5 Pd4 3.132062 1_555
Ca5 Pd9 3.227064 1_555
Ca5 Pd14 3.227068 1_655
Ca5 Pd11 3.227068 1_565
Ca5 Pd12 3.227074 1_554
Ca5 Sb1 3.330073 1_565
Ca5 Sb4 3.330073 1_565
Ca5 Sb3 3.330073 1_655
Ca5 Sb2 3.330073 1_655
As0 Ca3 2.811539 1_555
As0 Ca2 2.811539 1_555
As0 Ca1 2.811539 1_555
As0 Ca0 2.811539 1_555
As0 Ca5 2.811539 1_555
As0 Ca4 2.811539 1_555
Pd0 Sb0 2.723238 1_555
Pd0 Sb3 2.899381 1_555
Pd0 Sb5 2.899381 1_555
Pd0 Sb1 2.899381 1_555
Pd0 Pd14 2.930280 1_555
Pd0 Pd11 2.930280 1_555
Pd0 Pd10 2.930280 1_555
Pd0 Pd5 3.144524 1_454
Pd0 Pd7 3.144524 1_544
Pd0 Pd4 3.144524 1_445
Pd1 Sb0 2.723238 1_666
Pd1 Sb3 2.899381 1_656
Pd1 Sb5 2.899381 1_665
Pd1 Sb1 2.899381 1_566
Pd1 Pd15 2.930280 1_555
Pd1 Pd13 2.930280 1_555
Pd1 Pd12 2.930280 1_555
Pd1 Pd3 3.144524 1_656
Pd1 Pd6 3.144524 1_566
Pd1 Pd2 3.144524 1_665
Pd2 Sb0 2.723253 1_556
Pd2 Sb5 2.899365 1_555
Pd2 Sb2 2.899380 1_555
Pd2 Sb4 2.899380 1_555
Pd2 Pd8 2.930271 1_555
Pd2 Pd5 3.144550 1_455
Pd2 Pd7 3.144550 1_545
Pd3 Sb0 2.723253 1_565
Pd3 Sb3 2.899365 1_555
Pd3 Sb2 2.899380 1_555
Pd3 Sb6 2.899380 1_555
Pd3 Pd8 2.930271 1_555
Pd3 Pd4 3.144550 1_455
Pd3 Pd7 3.144550 1_554
Pd4 Sb0 2.723253 1_665
Pd4 Sb5 2.899365 1_665
Pd4 Sb2 2.899380 1_655
Pd4 Sb4 2.899380 1_565
Pd4 Pd9 2.930271 1_555
Pd4 Pd6 3.144550 1_565
Pd5 Sb0 2.723253 1_656
Pd5 Sb3 2.899365 1_656
Pd5 Sb2 2.899380 1_655
Pd5 Sb6 2.899380 1_556
Pd5 Pd9 2.930271 1_555
Pd5 Pd6 3.144550 1_556
Pd6 Sb0 2.723253 1_655
Pd6 Sb1 2.899365 1_555
Pd6 Sb6 2.899380 1_555
Pd6 Sb4 2.899380 1_555
Pd6 Pd8 2.930271 1_555
Pd7 Sb0 2.723253 1_566
Pd7 Sb1 2.899365 1_566
Pd7 Sb6 2.899380 1_556
Pd7 Sb4 2.899380 1_565
Pd7 Pd9 2.930271 1_555
Pd8 Sb4 2.691607 1_555
Pd8 Sb2 2.691607 1_555
Pd8 Sb6 2.691607 1_555
Pd9 Sb4 2.691607 1_565
Pd9 Sb2 2.691607 1_655
Pd9 Sb6 2.691607 1_556
Pd10 Sb6 2.691602 1_555
Pd10 Sb1 2.691610 1_555
Pd10 Sb3 2.691610 1_555
Pd10 Pd3 2.930257 1_555
Pd10 Pd6 2.930257 1_555
Pd11 Sb4 2.691602 1_555
Pd11 Sb1 2.691610 1_555
Pd11 Sb5 2.691610 1_555
Pd11 Pd2 2.930257 1_555
Pd11 Pd6 2.930257 1_555
Pd12 Sb6 2.691602 1_556
Pd12 Sb1 2.691610 1_566
Pd12 Sb3 2.691610 1_656
Pd12 Pd5 2.930257 1_555
Pd12 Pd7 2.930257 1_555
Pd13 Sb4 2.691602 1_565
Pd13 Sb1 2.691610 1_566
Pd13 Sb5 2.691610 1_665
Pd13 Pd4 2.930257 1_555
Pd13 Pd7 2.930257 1_555
Pd14 Sb2 2.691602 1_555
Pd14 Sb3 2.691610 1_555
Pd14 Sb5 2.691610 1_555
Pd14 Pd2 2.930257 1_555
Pd14 Pd3 2.930257 1_555
Pd15 Sb2 2.691602 1_655
Pd15 Sb3 2.691610 1_656
Pd15 Sb5 2.691610 1_665
Pd15 Pd4 2.930257 1_555
Pd15 Pd5 2.930257 1_555
