# generated using pymatgen
data_Y2VPtF14
_symmetry_space_group_name_H-M   'P 1'
_cell_length_a   5.42521635
_cell_length_b   8.76323445
_cell_length_c   11.73958240
_cell_angle_alpha   62.47869607
_cell_angle_beta   90.27880568
_cell_angle_gamma   90.33423037
_symmetry_Int_Tables_number   1
_chemical_formula_structural   Y2VPtF14
_chemical_formula_sum   'Y4 V2 Pt2 F28'
_cell_volume   494.96019608
_cell_formula_units_Z   2
loop_
 _symmetry_equiv_pos_site_id
 _symmetry_equiv_pos_as_xyz
  1  'x, y, z'
loop_
 _atom_site_type_symbol
 _atom_site_label
 _atom_site_symmetry_multiplicity
 _atom_site_fract_x
 _atom_site_fract_y
 _atom_site_fract_z
 _atom_site_occupancy
  Y  Y0  1  0.25647858  0.81189380  0.26491120  1
  Y  Y1  1  0.74352142  0.18810620  0.73508880  1
  Y  Y2  1  0.76366653  0.18713212  0.23350260  1
  Y  Y3  1  0.23633347  0.81286788  0.76649740  1
  V  V0  1  0.75023199  0.72507296  0.04352851  1
  V  V1  1  0.24976801  0.27492704  0.95647149  1
  Pt  Pt0  1  0.26002259  0.27243864  0.45553323  1
  Pt  Pt1  1  0.73997741  0.72756136  0.54446677  1
  F  F0  1  0.92452038  0.70259036  0.41224925  1
  F  F1  1  0.07547962  0.29740964  0.58775075  1
  F  F2  1  0.46013999  0.28946980  0.07688845  1
  F  F3  1  0.53986001  0.71053020  0.92311155  1
  F  F4  1  0.47838129  0.73877133  0.13425253  1
  F  F5  1  0.52161871  0.26122867  0.86574747  1
  F  F6  1  0.95689066  0.28065966  0.36359775  1
  F  F7  1  0.04310934  0.71934034  0.63640225  1
  F  F8  1  0.95698110  0.74779325  0.16390430  1
  F  F9  1  0.04301890  0.25220675  0.83609570  1
  F  F10  1  0.43913157  0.25723240  0.31788488  1
  F  F11  1  0.56086843  0.74276760  0.68211512  1
  F  F12  1  0.75877790  0.49401108  0.13706136  1
  F  F13  1  0.24122210  0.50598892  0.86293864  1
  F  F14  1  0.27739953  0.52182642  0.35716787  1
  F  F15  1  0.72260047  0.47817358  0.64283213  1
  F  F16  1  0.97157074  0.28739265  0.04818100  1
  F  F17  1  0.02842926  0.71260735  0.95181900  1
  F  F18  1  0.42927730  0.72410033  0.46195530  1
  F  F19  1  0.57072270  0.27589967  0.53804470  1
  F  F20  1  0.74457083  0.97736337  0.45168549  1
  F  F21  1  0.25542917  0.02263663  0.54831451  1
  F  F22  1  0.23821792  0.04305363  0.05083999  1
  F  F23  1  0.76178208  0.95694637  0.94916001  1
  F  F24  1  0.59405352  0.96452448  0.23301364  1
  F  F25  1  0.40594648  0.03547552  0.76698636  1
  F  F26  1  0.09364923  0.03004825  0.27414851  1
  F  F27  1  0.90635077  0.96995175  0.72585149  1
loop_
_geom_bond_atom_site_label_1
_geom_bond_atom_site_label_2
_geom_bond_distance
_geom_bond_site_symmetry_2
F0 Pt1 1.947073 1_555
F0 Y0 2.373134 1_655
F1 Pt0 1.947073 1_555
F1 Y1 2.373134 1_455
F2 V1 1.861807 1_554
F2 Y2 2.315217 1_555
F3 V0 1.861807 1_556
F3 Y3 2.315217 1_555
F4 V0 1.859961 1_555
F4 Y0 2.268924 1_555
F5 V1 1.859961 1_555
F5 Y1 2.268924 1_555
F6 Pt0 1.945986 1_655
F6 Y2 2.287878 1_555
F7 Pt1 1.945986 1_455
F7 Y3 2.287878 1_555
F8 V0 1.880633 1_555
F8 Y0 2.224383 1_655
F9 V1 1.880633 1_555
F9 Y1 2.224383 1_455
F10 Pt0 1.946536 1_555
F10 Y2 2.247361 1_555
F11 Pt1 1.946536 1_555
F11 Y3 2.247361 1_555
F12 V0 1.803806 1_555
F12 Y2 2.387751 1_555
F13 V1 1.803806 1_555
F13 Y3 2.387751 1_555
F14 Pt0 1.945487 1_555
F14 Y0 2.259472 1_555
F15 Pt1 1.945487 1_555
F15 Y1 2.259472 1_555
F16 V1 1.890879 1_654
F16 Y2 2.241248 1_555
F17 V0 1.890879 1_456
F17 Y3 2.241248 1_555
F18 Pt1 1.947092 1_555
F18 Y0 2.272516 1_555
F19 Pt0 1.947092 1_555
F19 Y1 2.272516 1_555
F20 Pt1 1.942974 1_555
F20 Y2 2.366339 1_565
F21 Pt0 1.942974 1_555
F21 Y3 2.366339 1_545
F22 V1 1.810783 1_554
F22 Y0 2.392533 1_545
F23 V0 1.810783 1_556
F23 Y1 2.392533 1_565
F24 Y2 2.154439 1_565
F24 Y0 2.190558 1_555
F25 Y3 2.154439 1_545
F25 Y1 2.190558 1_555
F26 Y0 2.158494 1_545
F26 Y2 2.177368 1_455
F27 Y1 2.158494 1_565
F27 Y3 2.177368 1_655
