# generated using pymatgen
data_Rb3LuI6
_symmetry_space_group_name_H-M   'P 1'
_cell_length_a   10.28184979
_cell_length_b   10.28184979
_cell_length_c   8.50212982
_cell_angle_alpha   90.00000000
_cell_angle_beta   90.00000000
_cell_angle_gamma   90.00000000
_symmetry_Int_Tables_number   1
_chemical_formula_structural   Rb3LuI6
_chemical_formula_sum   'Rb6 Lu2 I12'
_cell_volume   898.81485537
_cell_formula_units_Z   2
loop_
 _symmetry_equiv_pos_site_id
 _symmetry_equiv_pos_as_xyz
  1  'x, y, z'
loop_
 _atom_site_type_symbol
 _atom_site_label
 _atom_site_symmetry_multiplicity
 _atom_site_fract_x
 _atom_site_fract_y
 _atom_site_fract_z
 _atom_site_occupancy
  Rb  Rb0  1  0.00000000  0.00000000  0.50000000  1
  Rb  Rb1  1  0.00000000  0.00000000  0.00000000  1
  Rb  Rb2  1  0.23113077  0.57530869  0.50000000  1
  Rb  Rb3  1  0.76886923  0.42469131  0.50000000  1
  Rb  Rb4  1  0.42469131  0.23113077  0.00000000  1
  Rb  Rb5  1  0.57530869  0.76886923  0.00000000  1
  Lu  Lu0  1  0.50000000  0.00000000  0.50000000  1
  Lu  Lu1  1  0.00000000  0.50000000  0.00000000  1
  I  I0  1  0.69873654  0.05006477  0.74752592  1
  I  I1  1  0.30126346  0.94993523  0.74752592  1
  I  I2  1  0.94993523  0.69873654  0.24752592  1
  I  I3  1  0.05006477  0.30126346  0.24752592  1
  I  I4  1  0.30126346  0.94993523  0.25247408  1
  I  I5  1  0.69873654  0.05006477  0.25247408  1
  I  I6  1  0.05006477  0.30126346  0.75247408  1
  I  I7  1  0.94993523  0.69873654  0.75247408  1
  I  I8  1  0.56098339  0.71778880  0.50000000  1
  I  I9  1  0.43901661  0.28221120  0.50000000  1
  I  I10  1  0.28221120  0.56098339  0.00000000  1
  I  I11  1  0.71778880  0.43901661  0.00000000  1
loop_
_geom_bond_atom_site_label_1
_geom_bond_atom_site_label_2
_geom_bond_distance
_geom_bond_site_symmetry_2
I0 Lu0 2.978134 1_555
I0 Rb0 3.780036 1_655
I0 Rb1 3.803619 1_656
I0 Rb5 3.818033 1_546
I0 Rb4 4.001630 1_556
I1 Lu0 2.978134 1_565
I1 Rb0 3.780036 1_565
I1 Rb1 3.803619 1_566
I1 Rb4 3.818033 1_566
I1 Rb5 4.001630 1_556
I2 Lu1 2.978134 1_655
I2 Rb1 3.780036 1_665
I2 Rb0 3.803619 1_665
I2 Rb2 3.818033 1_655
I2 Rb3 4.001630 1_555
I3 Lu1 2.978134 1_555
I3 Rb1 3.780036 1_555
I3 Rb0 3.803619 1_555
I3 Rb3 3.818033 1_455
I3 Rb2 4.001630 1_555
I4 Lu0 2.978134 1_565
I4 Rb0 3.780036 1_565
I4 Rb1 3.803619 1_565
I4 Rb4 3.818033 1_565
I4 Rb5 4.001630 1_555
I5 Lu0 2.978134 1_555
I5 Rb0 3.780036 1_655
I5 Rb1 3.803619 1_655
I5 Rb5 3.818033 1_545
I5 Rb4 4.001630 1_555
I6 Lu1 2.978134 1_556
I6 Rb1 3.780036 1_556
I6 Rb0 3.803619 1_555
I6 Rb3 3.818033 1_455
I6 Rb2 4.001630 1_555
I7 Lu1 2.978134 1_656
I7 Rb1 3.780036 1_666
I7 Rb0 3.803619 1_665
I7 Rb2 3.818033 1_655
I7 Rb3 4.001630 1_555
I8 Lu0 2.968627 1_565
I8 Rb2 3.694366 1_555
I8 Rb3 3.694643 1_555
I8 Rb5 4.285917 1_555
I8 Rb5 4.285917 1_556
I9 Lu0 2.968627 1_555
I9 Rb3 3.694366 1_555
I9 Rb2 3.694643 1_555
I9 Rb4 4.285917 1_555
I9 Rb4 4.285917 1_556
I10 Lu1 2.968627 1_555
I10 Rb4 3.694366 1_555
I10 Rb5 3.694643 1_555
I10 Rb2 4.285917 1_555
I10 Rb2 4.285917 1_554
I11 Lu1 2.968627 1_655
I11 Rb5 3.694366 1_555
I11 Rb4 3.694643 1_555
I11 Rb3 4.285917 1_554
I11 Rb3 4.285917 1_555
