# generated using pymatgen
data_Zr2Ti3Ru
_symmetry_space_group_name_H-M   'P 1'
_cell_length_a   5.12422946
_cell_length_b   5.12422943
_cell_length_c   5.12422860
_cell_angle_alpha   67.02773827
_cell_angle_beta   67.02774148
_cell_angle_gamma   67.02774450
_symmetry_Int_Tables_number   1
_chemical_formula_structural   Zr2Ti3Ru
_chemical_formula_sum   'Zr2 Ti3 Ru1'
_cell_volume   109.46917698
_cell_formula_units_Z   1
loop_
 _symmetry_equiv_pos_site_id
 _symmetry_equiv_pos_as_xyz
  1  'x, y, z'
loop_
 _atom_site_type_symbol
 _atom_site_label
 _atom_site_symmetry_multiplicity
 _atom_site_fract_x
 _atom_site_fract_y
 _atom_site_fract_z
 _atom_site_occupancy
  Zr  Zr0  1  0.24913511  0.24913511  0.24913511  1
  Zr  Zr1  1  0.00086489  0.00086489  0.00086489  1
  Ti  Ti0  1  0.62500000  0.62500000  0.12500000  1
  Ti  Ti1  1  0.62500000  0.12500000  0.62500000  1
  Ti  Ti2  1  0.12500000  0.62500000  0.62500000  1
  Ru  Ru0  1  0.62500000  0.62500000  0.62500000  1
loop_
_geom_bond_atom_site_label_1
_geom_bond_atom_site_label_2
_geom_bond_distance
_geom_bond_site_symmetry_2
Zr0 Zr1 2.940312 1_555
Zr0 Zr1 3.418777 1_556
Zr0 Zr1 3.418777 1_565
Zr0 Zr1 3.418778 1_655
Ti0 Ti1 2.829286 1_564
Ti0 Ti1 2.829286 1_555
Ti0 Ti2 2.829286 1_654
Ti0 Ti2 2.829286 1_555
Ti0 Zr1 2.967602 1_665
Ti0 Zr0 2.967602 1_555
Ti0 Zr0 3.188451 1_655
Ti0 Zr1 3.188451 1_565
Ti0 Zr0 3.188451 1_565
Ti0 Zr1 3.188451 1_655
Ti1 Ti2 2.829286 1_645
Ti1 Ti2 2.829286 1_555
Ti1 Zr1 2.967602 1_656
Ti1 Zr0 2.967602 1_555
Ti1 Zr0 3.188450 1_556
Ti1 Zr1 3.188450 1_655
Ti1 Zr0 3.188451 1_655
Ti1 Zr1 3.188451 1_556
Ti2 Zr1 2.967602 1_566
Ti2 Zr0 2.967602 1_555
Ti2 Zr0 3.188450 1_556
Ti2 Zr1 3.188450 1_565
Ti2 Zr0 3.188451 1_565
Ti2 Zr1 3.188451 1_556
Ru0 Ti0 2.562114 1_555
Ru0 Ti0 2.562114 1_556
Ru0 Ti1 2.562115 1_555
Ru0 Ti1 2.562115 1_565
Ru0 Ti2 2.562115 1_555
Ru0 Ti2 2.562115 1_655
Ru0 Zr1 3.305581 1_665
Ru0 Zr0 3.305581 1_556
Ru0 Zr1 3.305581 1_656
Ru0 Zr0 3.305581 1_565
Ru0 Zr1 3.305582 1_566
Ru0 Zr0 3.305582 1_655
