# generated using pymatgen
data_Ta2SnF12
_symmetry_space_group_name_H-M   'P 1'
_cell_length_a   5.17132013
_cell_length_b   5.89162346
_cell_length_c   9.20313556
_cell_angle_alpha   105.22624892
_cell_angle_beta   89.72660513
_cell_angle_gamma   117.83614543
_symmetry_Int_Tables_number   1
_chemical_formula_structural   Ta2SnF12
_chemical_formula_sum   'Ta2 Sn1 F12'
_cell_volume   236.95311673
_cell_formula_units_Z   1
loop_
 _symmetry_equiv_pos_site_id
 _symmetry_equiv_pos_as_xyz
  1  'x, y, z'
loop_
 _atom_site_type_symbol
 _atom_site_label
 _atom_site_symmetry_multiplicity
 _atom_site_fract_x
 _atom_site_fract_y
 _atom_site_fract_z
 _atom_site_occupancy
  Ta  Ta0  1  0.77605441  0.52416513  0.28497620  1
  Ta  Ta1  1  0.22394559  0.47583487  0.71502380  1
  Sn  Sn0  1  0.00000000  0.00000000  0.00000000  1
  F  F0  1  0.81789796  0.26002887  0.70600931  1
  F  F1  1  0.18210204  0.73997113  0.29399069  1
  F  F2  1  0.21614813  0.71406255  0.91303959  1
  F  F3  1  0.72126388  0.73488115  0.45801205  1
  F  F4  1  0.27873612  0.26511885  0.54198795  1
  F  F5  1  0.80501154  0.28600191  0.37482030  1
  F  F6  1  0.19498846  0.71399809  0.62517970  1
  F  F7  1  0.34780441  0.29323624  0.22699709  1
  F  F8  1  0.65219559  0.70676376  0.77300291  1
  F  F9  1  0.72469472  0.72221988  0.15466118  1
  F  F10  1  0.27530528  0.27778012  0.84533882  1
  F  F11  1  0.78385187  0.28593745  0.08696041  1
loop_
_geom_bond_atom_site_label_1
_geom_bond_atom_site_label_2
_geom_bond_distance
_geom_bond_site_symmetry_2
F0 Ta1 1.866977 1_655
F1 Ta0 1.866977 1_455
F2 Ta1 2.000310 1_555
F2 Sn0 2.402029 1_566
F3 Ta0 1.855593 1_555
F4 Ta1 1.855593 1_555
F5 Ta0 1.865959 1_555
F6 Ta1 1.865959 1_555
F7 Ta0 1.963771 1_555
F7 Sn0 2.412918 1_555
F8 Ta1 1.963771 1_555
F8 Sn0 2.412918 1_666
F9 Ta0 1.974331 1_555
F9 Sn0 2.399905 1_665
F10 Ta1 1.974331 1_555
F10 Sn0 2.399905 1_556
F11 Ta0 2.000310 1_555
F11 Sn0 2.402029 1_655
