# generated using pymatgen
data_HfZr3Rh2N
_symmetry_space_group_name_H-M   'P 1'
_cell_length_a   8.73564832
_cell_length_b   8.73564902
_cell_length_c   8.73564879
_cell_angle_alpha   60.00000086
_cell_angle_beta   59.99999821
_cell_angle_gamma   59.99999931
_symmetry_Int_Tables_number   1
_chemical_formula_structural   HfZr3Rh2N
_chemical_formula_sum   'Hf4 Zr12 Rh8 N4'
_cell_volume   471.37927164
_cell_formula_units_Z   4
loop_
 _symmetry_equiv_pos_site_id
 _symmetry_equiv_pos_as_xyz
  1  'x, y, z'
loop_
 _atom_site_type_symbol
 _atom_site_label
 _atom_site_symmetry_multiplicity
 _atom_site_fract_x
 _atom_site_fract_y
 _atom_site_fract_z
 _atom_site_occupancy
  Hf  Hf0  1  0.12500000  0.62500000  0.62500000  1
  Hf  Hf1  1  0.62500000  0.12500000  0.62500000  1
  Hf  Hf2  1  0.62500000  0.62500000  0.12500000  1
  Hf  Hf3  1  0.62500000  0.62500000  0.62500000  1
  Zr  Zr0  1  0.81628033  0.81628033  0.18371967  1
  Zr  Zr1  1  0.18371967  0.18371967  0.81628033  1
  Zr  Zr2  1  0.81628033  0.18371967  0.81628033  1
  Zr  Zr3  1  0.18371967  0.81628033  0.18371967  1
  Zr  Zr4  1  0.18371967  0.81628033  0.81628033  1
  Zr  Zr5  1  0.81628033  0.18371967  0.18371967  1
  Zr  Zr6  1  0.43371967  0.43371967  0.06628033  1
  Zr  Zr7  1  0.06628033  0.06628033  0.43371967  1
  Zr  Zr8  1  0.43371967  0.06628033  0.43371967  1
  Zr  Zr9  1  0.06628033  0.43371967  0.06628033  1
  Zr  Zr10  1  0.06628033  0.43371967  0.43371967  1
  Zr  Zr11  1  0.43371967  0.06628033  0.06628033  1
  Rh  Rh0  1  0.76695649  0.41101417  0.41101417  1
  Rh  Rh1  1  0.41101417  0.76695649  0.41101417  1
  Rh  Rh2  1  0.41101417  0.41101417  0.76695649  1
  Rh  Rh3  1  0.41101417  0.41101417  0.41101417  1
  Rh  Rh4  1  0.48304351  0.83898583  0.83898583  1
  Rh  Rh5  1  0.83898583  0.48304351  0.83898583  1
  Rh  Rh6  1  0.83898583  0.83898583  0.48304351  1
  Rh  Rh7  1  0.83898583  0.83898583  0.83898583  1
  N  N0  1  0.62500000  0.12500000  0.12500000  1
  N  N1  1  0.12500000  0.62500000  0.12500000  1
  N  N2  1  0.12500000  0.12500000  0.62500000  1
  N  N3  1  0.12500000  0.12500000  0.12500000  1
loop_
_geom_bond_atom_site_label_1
_geom_bond_atom_site_label_2
_geom_bond_distance
_geom_bond_site_symmetry_2
Hf0 Rh1 2.717441 1_555
Hf0 Rh5 2.717441 1_455
Hf0 Rh2 2.717441 1_555
Hf0 Rh6 2.717441 1_455
Hf0 Rh7 2.717446 1_455
Hf0 Rh3 2.717446 1_555
Hf1 Rh2 2.717441 1_555
Hf1 Rh6 2.717441 1_545
Hf1 Rh0 2.717441 1_555
Hf1 Rh4 2.717441 1_545
Hf1 Rh7 2.717446 1_545
Hf1 Rh3 2.717446 1_555
Hf2 Rh1 2.717441 1_555
Hf2 Rh5 2.717441 1_554
Hf2 Rh0 2.717441 1_555
Hf2 Rh4 2.717441 1_554
Hf2 Rh7 2.717446 1_554
Hf2 Rh3 2.717446 1_555
Hf3 Rh5 2.717448 1_555
Hf3 Rh1 2.717448 1_555
Hf3 Rh6 2.717448 1_555
Hf3 Rh2 2.717448 1_555
Hf3 Rh4 2.717448 1_555
Hf3 Rh0 2.717448 1_555
Rh0 Zr9 2.827080 1_655
Rh0 Zr7 2.827081 1_655
Rh0 Zr10 2.827085 1_655
Rh1 Zr7 2.827081 1_565
Rh1 Zr11 2.827081 1_565
Rh1 Zr8 2.827086 1_565
Rh2 Zr9 2.827080 1_556
Rh2 Zr11 2.827081 1_556
Rh2 Zr6 2.827086 1_556
Rh3 Zr10 2.827077 1_555
Rh3 Zr6 2.827077 1_555
Rh3 Zr8 2.827077 1_555
Rh4 Zr3 2.827080 1_556
Rh4 Zr1 2.827081 1_565
Rh4 Zr4 2.827085 1_555
Rh5 Zr1 2.827081 1_655
Rh5 Zr5 2.827081 1_556
Rh5 Zr2 2.827086 1_555
Rh6 Zr3 2.827080 1_655
Rh6 Zr5 2.827081 1_565
Rh6 Zr0 2.827086 1_555
Rh7 Zr4 2.827077 1_655
Rh7 Zr0 2.827077 1_556
Rh7 Zr2 2.827077 1_565
N0 Zr11 2.301242 1_555
N0 Zr8 2.301242 1_555
N0 Zr5 2.301242 1_555
N0 Zr2 2.301242 1_554
N0 Zr6 2.301242 1_555
N0 Zr0 2.301242 1_545
N1 Zr6 2.301242 1_555
N1 Zr0 2.301242 1_455
N1 Zr10 2.301242 1_555
N1 Zr4 2.301242 1_554
N1 Zr3 2.301242 1_555
N1 Zr9 2.301242 1_555
N2 Zr2 2.301242 1_455
N2 Zr8 2.301242 1_555
N2 Zr1 2.301242 1_555
N2 Zr7 2.301242 1_555
N2 Zr10 2.301243 1_555
N2 Zr4 2.301243 1_545
N3 Zr5 2.301242 1_455
N3 Zr11 2.301242 1_555
N3 Zr7 2.301242 1_555
N3 Zr1 2.301242 1_554
N3 Zr9 2.301243 1_555
N3 Zr3 2.301243 1_545
