# generated using pymatgen
data_BaLuSi4N7
_symmetry_space_group_name_H-M   'P 1'
_cell_length_a   6.01221354
_cell_length_b   6.01221256
_cell_length_c   9.78988231
_cell_angle_alpha   90.00000000
_cell_angle_beta   90.00000000
_cell_angle_gamma   120.00000538
_symmetry_Int_Tables_number   1
_chemical_formula_structural   BaLuSi4N7
_chemical_formula_sum   'Ba2 Lu2 Si8 N14'
_cell_volume   306.46212105
_cell_formula_units_Z   2
loop_
 _symmetry_equiv_pos_site_id
 _symmetry_equiv_pos_as_xyz
  1  'x, y, z'
loop_
 _atom_site_type_symbol
 _atom_site_label
 _atom_site_symmetry_multiplicity
 _atom_site_fract_x
 _atom_site_fract_y
 _atom_site_fract_z
 _atom_site_occupancy
  Ba  Ba0  1  0.33333300  0.66666700  0.36265116  1
  Ba  Ba1  1  0.66666700  0.33333300  0.86265116  1
  Lu  Lu0  1  0.33333300  0.66666700  0.73640806  1
  Lu  Lu1  1  0.66666700  0.33333300  0.23640806  1
  Si  Si0  1  0.82587254  0.65174608  0.54652857  1
  Si  Si1  1  0.17412746  0.82587254  0.04652857  1
  Si  Si2  1  0.65174608  0.82587254  0.04652857  1
  Si  Si3  1  0.34825392  0.17412746  0.54652857  1
  Si  Si4  1  0.82587254  0.17412746  0.54652857  1
  Si  Si5  1  0.17412746  0.34825392  0.04652857  1
  Si  Si6  1  0.00000000  0.00000000  0.81351081  1
  Si  Si7  1  0.00000000  0.00000000  0.31351081  1
  N  N0  1  0.00000000  0.00000000  0.62194879  1
  N  N1  1  0.00000000  0.00000000  0.12194879  1
  N  N2  1  0.15431794  0.30863788  0.87244505  1
  N  N3  1  0.84568206  0.15431794  0.37244505  1
  N  N4  1  0.30863788  0.15431794  0.37244505  1
  N  N5  1  0.69136212  0.84568206  0.87244505  1
  N  N6  1  0.15431794  0.84568206  0.87244505  1
  N  N7  1  0.84568206  0.69136212  0.37244505  1
  N  N8  1  0.97835162  0.48917681  0.60081944  1
  N  N9  1  0.48917681  0.97835162  0.10081944  1
  N  N10  1  0.48917681  0.51082319  0.10081944  1
  N  N11  1  0.51082319  0.48917681  0.60081944  1
  N  N12  1  0.02164838  0.51082319  0.10081944  1
  N  N13  1  0.51082319  0.02164838  0.60081944  1
loop_
_geom_bond_atom_site_label_1
_geom_bond_atom_site_label_2
_geom_bond_distance
_geom_bond_site_symmetry_2
Ba0 N11 2.975350 1_555
Ba0 N13 2.975353 1_565
Ba0 N8 2.975353 1_455
Ba0 N4 3.010373 1_565
Ba0 N7 3.010374 1_455
Ba0 N3 3.010383 1_455
Ba0 N3 3.010383 1_565
Ba0 N4 3.010391 1_555
Ba0 N7 3.010392 1_555
Ba0 N9 3.033839 1_555
Ba0 N12 3.033839 1_555
Ba0 N10 3.033848 1_555
Ba1 N10 2.975350 1_556
Ba1 N9 2.975353 1_546
Ba1 N12 2.975353 1_656
Ba1 N5 3.010373 1_545
Ba1 N2 3.010374 1_655
Ba1 N6 3.010383 1_655
Ba1 N6 3.010383 1_545
Ba1 N5 3.010391 1_555
Ba1 N2 3.010392 1_555
Ba1 N13 3.033839 1_555
Ba1 N8 3.033839 1_555
Ba1 N11 3.033848 1_555
Lu0 N11 2.275554 1_555
Lu0 N13 2.275558 1_565
Lu0 N8 2.275558 1_455
Lu0 N2 2.291015 1_555
Lu0 N5 2.291015 1_555
Lu0 N6 2.291019 1_555
Lu1 N10 2.275554 1_555
Lu1 N9 2.275558 1_545
Lu1 N12 2.275558 1_655
Lu1 N7 2.291015 1_555
Lu1 N4 2.291015 1_555
Lu1 N3 2.291019 1_555
N0 Si6 1.875370 1_555
N0 Si0 1.957829 1_445
N0 Si3 1.957829 1_555
N0 Si4 1.957834 1_455
N1 Si7 1.875370 1_555
N1 Si5 1.957829 1_555
N1 Si2 1.957829 1_445
N1 Si1 1.957834 1_545
N2 Si6 1.707428 1_555
N2 Si5 1.716694 1_556
N3 Si7 1.707419 1_655
N3 Si4 1.716696 1_555
N4 Si7 1.707428 1_555
N4 Si3 1.716694 1_555
N5 Si6 1.707428 1_665
N5 Si2 1.716694 1_556
N6 Si6 1.707419 1_565
N6 Si1 1.716696 1_556
N7 Si7 1.707428 1_665
N7 Si0 1.716694 1_555
N8 Si0 1.724596 1_555
N8 Si4 1.724601 1_555
N9 Si2 1.724596 1_555
N9 Si1 1.724601 1_555
N10 Si2 1.724601 1_555
N10 Si5 1.724601 1_555
N11 Si3 1.724601 1_555
N11 Si0 1.724601 1_555
N12 Si5 1.724596 1_555
N12 Si1 1.724601 1_555
N13 Si3 1.724596 1_555
N13 Si4 1.724601 1_555
