# generated using pymatgen
data_ZrSc(ZnPt)2
_symmetry_space_group_name_H-M   'P 1'
_cell_length_a   5.08736926
_cell_length_b   5.08737045
_cell_length_c   5.22128417
_cell_angle_alpha   90.00000000
_cell_angle_beta   90.00000000
_cell_angle_gamma   129.98903455
_symmetry_Int_Tables_number   1
_chemical_formula_structural   ZrSc(ZnPt)2
_chemical_formula_sum   'Zr1 Sc1 Zn2 Pt2'
_cell_volume   103.53511037
_cell_formula_units_Z   1
loop_
 _symmetry_equiv_pos_site_id
 _symmetry_equiv_pos_as_xyz
  1  'x, y, z'
loop_
 _atom_site_type_symbol
 _atom_site_label
 _atom_site_symmetry_multiplicity
 _atom_site_fract_x
 _atom_site_fract_y
 _atom_site_fract_z
 _atom_site_occupancy
  Zr  Zr0  1  0.70791809  0.29208191  0.25000000  1
  Sc  Sc0  1  0.29192394  0.70807606  0.75000000  1
  Zn  Zn0  1  0.00402386  0.99597614  0.49870141  1
  Zn  Zn1  1  0.00402386  0.99597614  0.00129859  1
  Pt  Pt0  1  0.39379807  0.60620193  0.25000000  1
  Pt  Pt1  1  0.59831218  0.40168782  0.75000000  1
loop_
_geom_bond_atom_site_label_1
_geom_bond_atom_site_label_2
_geom_bond_distance
_geom_bond_site_symmetry_2
Sc0 Zn1 2.961290 1_556
Sc0 Zn0 2.961290 1_555
Sc0 Zn1 3.189224 1_656
Sc0 Zn0 3.189224 1_655
Sc0 Zn1 3.189225 1_546
Sc0 Zn0 3.189225 1_545
Zn0 Zn1 2.597081 1_555
Zn0 Zn1 2.624203 1_556
Zn0 Zr0 3.023458 1_465
Zn0 Zr0 3.137755 1_565
Zn0 Zr0 3.137755 1_455
Zn1 Zr0 3.023458 1_465
Zn1 Zr0 3.137755 1_565
Zn1 Zr0 3.137755 1_455
Pt0 Zn0 2.709932 1_655
Pt0 Zn1 2.709932 1_655
Pt0 Zn0 2.709932 1_545
Pt0 Zn1 2.709932 1_545
Pt0 Zr0 2.749959 1_455
Pt0 Zr0 2.749960 1_565
Pt0 Sc0 2.774508 1_554
Pt0 Sc0 2.774508 1_555
Pt0 Zr0 2.896511 1_555
Pt1 Zn1 2.664956 1_546
Pt1 Zn0 2.664956 1_545
Pt1 Zn1 2.664957 1_656
Pt1 Zn0 2.664957 1_655
Pt1 Sc0 2.794953 1_655
Pt1 Sc0 2.794953 1_545
Pt1 Zr0 2.799451 1_555
Pt1 Zr0 2.799451 1_556
Pt1 Sc0 2.825216 1_555
