# generated using pymatgen
data_K5HfAs3
_symmetry_space_group_name_H-M   'P 1'
_cell_length_a   8.36368181
_cell_length_b   9.06980814
_cell_length_c   17.72268891
_cell_angle_alpha   59.91491802
_cell_angle_beta   90.00000000
_cell_angle_gamma   90.00000000
_symmetry_Int_Tables_number   1
_chemical_formula_structural   K5HfAs3
_chemical_formula_sum   'K20 Hf4 As12'
_cell_volume   1163.27627490
_cell_formula_units_Z   4
loop_
 _symmetry_equiv_pos_site_id
 _symmetry_equiv_pos_as_xyz
  1  'x, y, z'
loop_
 _atom_site_type_symbol
 _atom_site_label
 _atom_site_symmetry_multiplicity
 _atom_site_fract_x
 _atom_site_fract_y
 _atom_site_fract_z
 _atom_site_occupancy
  K  K0  1  0.17235914  0.84210661  0.74210919  1
  K  K1  1  0.67235914  0.15789339  0.75789081  1
  K  K2  1  0.82764086  0.15789339  0.25789081  1
  K  K3  1  0.32764086  0.84210661  0.24210919  1
  K  K4  1  0.16667961  0.16325671  0.41898173  1
  K  K5  1  0.66667961  0.83674329  0.08101827  1
  K  K6  1  0.83332039  0.83674329  0.58101827  1
  K  K7  1  0.33332039  0.16325671  0.91898173  1
  K  K8  1  0.00613041  0.07920185  0.09300371  1
  K  K9  1  0.50613041  0.92079815  0.40699629  1
  K  K10  1  0.99386959  0.92079815  0.90699629  1
  K  K11  1  0.49386959  0.07920185  0.59300371  1
  K  K12  1  0.51512027  0.25695682  0.07828584  1
  K  K13  1  0.01512027  0.74304318  0.42171416  1
  K  K14  1  0.48487973  0.74304318  0.92171416  1
  K  K15  1  0.98487973  0.25695682  0.57828584  1
  K  K16  1  0.98563168  0.54230813  0.25900540  1
  K  K17  1  0.48563168  0.45769187  0.24099460  1
  K  K18  1  0.01436832  0.45769187  0.74099460  1
  K  K19  1  0.51436832  0.54230813  0.75900540  1
  Hf  Hf0  1  0.36880878  0.49491632  0.58093286  1
  Hf  Hf1  1  0.86880878  0.50508368  0.91906714  1
  Hf  Hf2  1  0.63119122  0.50508368  0.41906714  1
  Hf  Hf3  1  0.13119122  0.49491632  0.08093286  1
  As  As0  1  0.31634094  0.48636764  0.43605036  1
  As  As1  1  0.81634094  0.51363236  0.06394964  1
  As  As2  1  0.68365906  0.51363236  0.56394964  1
  As  As3  1  0.18365906  0.48636764  0.93605036  1
  As  As4  1  0.21509661  0.21542779  0.21945709  1
  As  As5  1  0.71509661  0.78457221  0.28054291  1
  As  As6  1  0.78490339  0.78457221  0.78054291  1
  As  As7  1  0.28490339  0.21542779  0.71945709  1
  As  As8  1  0.25098442  0.76147657  0.07765966  1
  As  As9  1  0.75098442  0.23852343  0.42234034  1
  As  As10  1  0.74901558  0.23852343  0.92234034  1
  As  As11  1  0.24901558  0.76147657  0.57765966  1
loop_
_geom_bond_atom_site_label_1
_geom_bond_atom_site_label_2
_geom_bond_distance
_geom_bond_site_symmetry_2
As0 Hf0 2.644107 1_555
As0 Hf2 2.646223 1_555
As0 K3 3.333878 1_555
As0 K4 3.336950 1_555
As0 K13 3.352322 1_555
As0 K15 3.620847 1_455
As0 K11 3.644308 1_555
As1 Hf1 2.644107 1_554
As1 Hf3 2.646223 1_655
As1 K2 3.333878 1_555
As1 K5 3.336950 1_555
As1 K12 3.352322 1_555
As1 K14 3.620847 1_554
As1 K10 3.644308 1_554
As2 Hf2 2.644107 1_555
As2 Hf0 2.646223 1_555
As2 K1 3.333878 1_555
As2 K6 3.336950 1_555
As2 K15 3.352322 1_555
As2 K13 3.620847 1_655
As2 K9 3.644308 1_555
As3 Hf3 2.644107 1_556
As3 Hf1 2.646223 1_455
As3 K0 3.333878 1_555
As3 K7 3.336950 1_555
As3 K14 3.352322 1_555
As3 K12 3.620847 1_556
As3 K8 3.644308 1_556
As4 Hf3 2.589614 1_555
As4 K2 3.298654 1_455
As4 K17 3.306707 1_555
As4 K3 3.339019 1_545
As4 K4 3.348799 1_555
As4 K12 3.428315 1_555
As4 K8 3.518480 1_555
As5 Hf2 2.589614 1_555
As5 K3 3.298654 1_555
As5 K16 3.306707 1_555
As5 K2 3.339019 1_565
As5 K5 3.348799 1_555
As5 K13 3.428315 1_655
As5 K9 3.518480 1_555
As6 Hf1 2.589614 1_555
As6 K0 3.298654 1_655
As6 K19 3.306707 1_555
As6 K1 3.339019 1_565
As6 K6 3.348799 1_555
As6 K14 3.428315 1_555
As6 K10 3.518480 1_555
As7 Hf0 2.589614 1_555
As7 K1 3.298654 1_555
As7 K18 3.306707 1_555
As7 K0 3.339019 1_545
As7 K7 3.348799 1_555
As7 K15 3.428315 1_455
As7 K11 3.518480 1_555
As8 Hf3 2.590679 1_555
As8 K7 3.374570 1_564
As8 K10 3.388044 1_454
As8 K3 3.402488 1_555
As8 K17 3.438922 1_555
As8 K14 3.457813 1_554
As8 K5 3.549371 1_555
As8 K16 3.577857 1_455
As8 K8 3.654814 1_565
As9 Hf2 2.590679 1_555
As9 K6 3.374570 1_545
As9 K11 3.388044 1_555
As9 K2 3.402488 1_555
As9 K16 3.438922 1_555
As9 K15 3.457813 1_555
As9 K4 3.549371 1_655
As9 K17 3.577857 1_555
As9 K9 3.654814 1_545
As10 Hf1 2.590679 1_555
As10 K5 3.374570 1_546
As10 K8 3.388044 1_656
As10 K1 3.402488 1_555
As10 K19 3.438922 1_555
As10 K12 3.457813 1_556
As10 K7 3.549371 1_555
As10 K18 3.577857 1_655
As10 K10 3.654814 1_545
As11 Hf0 2.590679 1_555
As11 K4 3.374570 1_565
As11 K9 3.388044 1_555
As11 K0 3.402488 1_555
As11 K18 3.438922 1_555
As11 K13 3.457813 1_555
As11 K6 3.549371 1_455
As11 K19 3.577857 1_555
As11 K11 3.654814 1_565
