# generated using pymatgen
data_Hf6Zn23Si
_symmetry_space_group_name_H-M   'P 1'
_cell_length_a   8.62814928
_cell_length_b   8.62814974
_cell_length_c   8.62815020
_cell_angle_alpha   60.00000563
_cell_angle_beta   60.00000387
_cell_angle_gamma   60.00000434
_symmetry_Int_Tables_number   1
_chemical_formula_structural   Hf6Zn23Si
_chemical_formula_sum   'Hf6 Zn23 Si1'
_cell_volume   454.19052350
_cell_formula_units_Z   1
loop_
 _symmetry_equiv_pos_site_id
 _symmetry_equiv_pos_as_xyz
  1  'x, y, z'
loop_
 _atom_site_type_symbol
 _atom_site_label
 _atom_site_symmetry_multiplicity
 _atom_site_fract_x
 _atom_site_fract_y
 _atom_site_fract_z
 _atom_site_occupancy
  Hf  Hf0  1  0.70955962  0.29044038  0.29044038  1
  Hf  Hf1  1  0.29044038  0.70955962  0.70955962  1
  Hf  Hf2  1  0.29044038  0.70955962  0.29044038  1
  Hf  Hf3  1  0.70955962  0.29044038  0.70955962  1
  Hf  Hf4  1  0.29044038  0.29044038  0.70955962  1
  Hf  Hf5  1  0.70955962  0.70955962  0.29044038  1
  Zn  Zn0  1  0.12272559  0.12272559  0.12272559  1
  Zn  Zn1  1  0.87727441  0.87727441  0.87727441  1
  Zn  Zn2  1  0.12272559  0.12272559  0.63182223  1
  Zn  Zn3  1  0.12272559  0.63182223  0.12272559  1
  Zn  Zn4  1  0.87727441  0.87727441  0.36817777  1
  Zn  Zn5  1  0.87727441  0.36817777  0.87727441  1
  Zn  Zn6  1  0.63182223  0.12272559  0.12272559  1
  Zn  Zn7  1  0.36817777  0.87727441  0.87727441  1
  Zn  Zn8  1  0.50000000  0.00000000  0.00000000  1
  Zn  Zn9  1  0.00000000  0.50000000  0.50000000  1
  Zn  Zn10  1  0.00000000  0.50000000  0.00000000  1
  Zn  Zn11  1  0.50000000  0.00000000  0.50000000  1
  Zn  Zn12  1  0.00000000  0.00000000  0.50000000  1
  Zn  Zn13  1  0.50000000  0.50000000  0.00000000  1
  Zn  Zn14  1  0.33496875  0.33496875  0.33496875  1
  Zn  Zn15  1  0.66503125  0.66503125  0.66503125  1
  Zn  Zn16  1  0.33496875  0.33496875  0.99509376  1
  Zn  Zn17  1  0.33496875  0.99509376  0.33496875  1
  Zn  Zn18  1  0.66503125  0.66503125  0.00490624  1
  Zn  Zn19  1  0.66503125  0.00490624  0.66503125  1
  Zn  Zn20  1  0.99509376  0.33496875  0.33496875  1
  Zn  Zn21  1  0.00490624  0.66503125  0.66503125  1
  Zn  Zn22  1  0.00000000  0.00000000  0.00000000  1
  Si  Si0  1  0.50000000  0.50000000  0.50000000  1
loop_
_geom_bond_atom_site_label_1
_geom_bond_atom_site_label_2
_geom_bond_distance
_geom_bond_site_symmetry_2
Hf0 Si0 2.557056 1_555
Hf0 Zn20 2.899197 1_555
Hf0 Zn14 2.899197 1_555
Hf0 Zn18 2.899197 1_555
Hf0 Zn19 2.899197 1_555
Hf0 Zn4 2.945003 1_545
Hf0 Zn5 2.945003 1_554
Hf0 Zn0 2.945004 1_655
Hf0 Zn6 2.945010 1_555
Hf0 Zn11 3.090165 1_555
Hf0 Zn10 3.090165 1_655
Hf0 Zn12 3.090165 1_655
Hf0 Zn13 3.090165 1_555
Hf1 Si0 2.557056 1_555
Hf1 Zn21 2.899197 1_555
Hf1 Zn15 2.899197 1_555
Hf1 Zn16 2.899197 1_555
Hf1 Zn17 2.899197 1_555
Hf1 Zn2 2.945003 1_565
Hf1 Zn3 2.945003 1_556
Hf1 Zn1 2.945004 1_455
Hf1 Zn7 2.945010 1_555
Hf1 Zn11 3.090165 1_565
Hf1 Zn10 3.090165 1_556
Hf1 Zn12 3.090165 1_565
Hf1 Zn13 3.090165 1_556
Hf2 Si0 2.557056 1_555
Hf2 Zn17 2.899197 1_555
Hf2 Zn14 2.899197 1_555
Hf2 Zn18 2.899197 1_555
Hf2 Zn21 2.899197 1_555
Hf2 Zn4 2.945002 1_455
Hf2 Zn7 2.945003 1_554
Hf2 Zn0 2.945004 1_565
Hf2 Zn3 2.945010 1_555
Hf2 Zn9 3.090165 1_555
Hf2 Zn8 3.090165 1_565
Hf2 Zn12 3.090165 1_565
Hf2 Zn13 3.090165 1_555
Hf3 Si0 2.557056 1_555
Hf3 Zn19 2.899197 1_555
Hf3 Zn15 2.899197 1_555
Hf3 Zn16 2.899197 1_555
Hf3 Zn20 2.899197 1_555
Hf3 Zn2 2.945002 1_655
Hf3 Zn6 2.945003 1_556
Hf3 Zn1 2.945004 1_545
Hf3 Zn5 2.945010 1_555
Hf3 Zn9 3.090165 1_655
Hf3 Zn8 3.090165 1_556
Hf3 Zn12 3.090165 1_655
Hf3 Zn13 3.090165 1_556
Hf4 Si0 2.557056 1_555
Hf4 Zn16 2.899197 1_555
Hf4 Zn19 2.899197 1_555
Hf4 Zn21 2.899197 1_555
Hf4 Zn14 2.899197 1_555
Hf4 Zn5 2.945002 1_455
Hf4 Zn7 2.945003 1_545
Hf4 Zn0 2.945004 1_556
Hf4 Zn2 2.945010 1_555
Hf4 Zn9 3.090165 1_555
Hf4 Zn11 3.090165 1_555
Hf4 Zn10 3.090165 1_556
Hf4 Zn8 3.090165 1_556
Hf5 Si0 2.557056 1_555
Hf5 Zn18 2.899197 1_555
Hf5 Zn17 2.899197 1_555
Hf5 Zn20 2.899197 1_555
Hf5 Zn15 2.899197 1_555
Hf5 Zn3 2.945002 1_655
Hf5 Zn6 2.945003 1_565
Hf5 Zn1 2.945004 1_554
Hf5 Zn4 2.945010 1_555
Hf5 Zn9 3.090165 1_655
Hf5 Zn11 3.090165 1_565
Hf5 Zn10 3.090165 1_655
Hf5 Zn8 3.090165 1_565
Zn0 Zn22 2.593752 1_555
Zn0 Zn8 2.658230 1_555
Zn0 Zn10 2.658230 1_555
Zn0 Zn12 2.658230 1_555
Zn0 Zn16 2.690730 1_554
Zn0 Zn17 2.690730 1_545
Zn0 Zn20 2.690730 1_455
Zn0 Zn4 2.995007 1_445
Zn0 Zn7 2.995007 1_544
Zn0 Zn5 2.995007 1_454
Zn1 Zn22 2.593752 1_666
Zn1 Zn8 2.658230 1_566
Zn1 Zn10 2.658230 1_656
Zn1 Zn12 2.658230 1_665
Zn1 Zn18 2.690730 1_556
Zn1 Zn19 2.690730 1_565
Zn1 Zn21 2.690730 1_655
Zn1 Zn2 2.995007 1_665
Zn1 Zn6 2.995007 1_566
Zn1 Zn3 2.995007 1_656
Zn2 Zn22 2.593759 1_556
Zn2 Zn9 2.658230 1_555
Zn2 Zn20 2.690723 1_455
Zn2 Zn7 2.995019 1_545
Zn2 Zn5 2.995019 1_455
Zn3 Zn9 2.658230 1_555
Zn3 Zn7 2.995019 1_554
Zn3 Zn4 2.995019 1_455
Zn4 Zn9 2.658230 1_655
Zn4 Zn6 2.995019 1_565
Zn5 Zn9 2.658230 1_655
Zn5 Zn6 2.995019 1_556
Zn6 Zn8 2.658223 1_555
Zn7 Zn8 2.658223 1_566
Zn10 Zn16 2.490972 1_554
Zn10 Zn18 2.490972 1_455
Zn10 Zn20 2.490972 1_455
Zn10 Zn21 2.490972 1_554
Zn10 Zn3 2.658223 1_555
Zn10 Zn5 2.658223 1_454
Zn11 Zn19 2.490972 1_555
Zn11 Zn17 2.490972 1_545
Zn11 Zn14 2.490972 1_555
Zn11 Zn15 2.490972 1_545
Zn11 Zn4 2.658230 1_545
Zn11 Zn2 2.658230 1_555
Zn11 Zn7 2.658230 1_545
Zn11 Zn6 2.658230 1_555
Zn12 Zn17 2.490972 1_545
Zn12 Zn19 2.490972 1_455
Zn12 Zn20 2.490972 1_455
Zn12 Zn21 2.490972 1_545
Zn12 Zn2 2.658223 1_555
Zn12 Zn4 2.658223 1_445
Zn13 Zn18 2.490972 1_555
Zn13 Zn16 2.490972 1_554
Zn13 Zn14 2.490972 1_555
Zn13 Zn15 2.490972 1_554
Zn13 Zn3 2.658230 1_555
Zn13 Zn5 2.658230 1_554
Zn13 Zn6 2.658230 1_555
Zn13 Zn7 2.658230 1_554
Zn14 Zn9 2.490972 1_555
Zn14 Zn6 2.690727 1_555
Zn14 Zn2 2.690727 1_555
Zn14 Zn3 2.690727 1_555
Zn14 Zn20 2.932492 1_455
Zn14 Zn17 2.932492 1_545
Zn14 Zn16 2.932492 1_554
Zn15 Zn9 2.490972 1_655
Zn15 Zn7 2.690727 1_555
Zn15 Zn4 2.690727 1_555
Zn15 Zn5 2.690727 1_555
Zn15 Zn21 2.932492 1_655
Zn15 Zn19 2.932492 1_565
Zn15 Zn18 2.932492 1_556
Zn16 Zn8 2.490972 1_556
Zn16 Zn6 2.690723 1_556
Zn16 Zn3 2.690723 1_556
Zn16 Zn20 2.932492 1_456
Zn16 Zn17 2.932493 1_546
Zn17 Zn8 2.490972 1_565
Zn17 Zn6 2.690723 1_565
Zn17 Zn2 2.690723 1_565
Zn17 Zn20 2.932492 1_465
Zn18 Zn8 2.490972 1_565
Zn18 Zn7 2.690723 1_554
Zn18 Zn5 2.690723 1_554
Zn18 Zn21 2.932492 1_654
Zn18 Zn19 2.932493 1_564
Zn19 Zn8 2.490972 1_556
Zn19 Zn7 2.690723 1_545
Zn19 Zn4 2.690723 1_545
Zn19 Zn21 2.932492 1_645
Zn20 Zn9 2.490972 1_655
Zn20 Zn3 2.690723 1_655
Zn21 Zn9 2.490972 1_555
Zn21 Zn5 2.690723 1_455
Zn21 Zn4 2.690723 1_455
Zn22 Zn6 2.593759 1_455
Zn22 Zn7 2.593759 1_544
Zn22 Zn5 2.593759 1_454
Zn22 Zn3 2.593759 1_545
Zn22 Zn4 2.593759 1_445
