# generated using pymatgen
data_Y12Co4RhPb
_symmetry_space_group_name_H-M   'P 1'
_cell_length_a   8.36948888
_cell_length_b   8.36948821
_cell_length_c   8.36948840
_cell_angle_alpha   110.66884607
_cell_angle_beta   110.16926446
_cell_angle_gamma   107.59215224
_symmetry_Int_Tables_number   1
_chemical_formula_structural   Y12Co4RhPb
_chemical_formula_sum   'Y12 Co4 Rh1 Pb1'
_cell_volume   450.93836792
_cell_formula_units_Z   1
loop_
 _symmetry_equiv_pos_site_id
 _symmetry_equiv_pos_as_xyz
  1  'x, y, z'
loop_
 _atom_site_type_symbol
 _atom_site_label
 _atom_site_symmetry_multiplicity
 _atom_site_fract_x
 _atom_site_fract_y
 _atom_site_fract_z
 _atom_site_occupancy
  Y  Y0  1  0.40388416  0.20752135  0.19636281  1
  Y  Y1  1  0.59611584  0.79247865  0.80363719  1
  Y  Y2  1  0.01115954  0.20752135  0.80363719  1
  Y  Y3  1  0.98884046  0.79247865  0.19636281  1
  Y  Y4  1  0.18435528  0.29279362  0.47714889  1
  Y  Y5  1  0.81564472  0.70720638  0.52285111  1
  Y  Y6  1  0.18435528  0.70720638  0.89156166  1
  Y  Y7  1  0.81564472  0.29279362  0.10843834  1
  Y  Y8  1  0.31388561  0.61782116  0.30393554  1
  Y  Y9  1  0.68611439  0.38217884  0.69606446  1
  Y  Y10  1  0.31388561  0.00995007  0.69606446  1
  Y  Y11  1  0.68611439  0.99004993  0.30393554  1
  Co  Co0  1  0.38414702  0.00000000  0.38414702  1
  Co  Co1  1  0.61585298  1.00000000  0.61585298  1
  Co  Co2  1  0.10905602  0.60905602  0.50000000  1
  Co  Co3  1  0.89094398  0.39094398  0.50000000  1
  Rh  Rh0  1  0.00000000  0.00000000  0.00000000  1
  Pb  Pb0  1  0.50000000  0.50000000  0.00000000  1
loop_
_geom_bond_atom_site_label_1
_geom_bond_atom_site_label_2
_geom_bond_distance
_geom_bond_site_symmetry_2
Co0 Co1 2.219933 1_545
Co0 Y0 2.728853 1_555
Co0 Y3 2.728860 1_445
Co0 Y9 2.846520 1_555
Co0 Y8 2.846520 1_545
Co0 Y10 2.846521 1_555
Co0 Y11 2.846521 1_545
Co0 Y6 3.381576 1_544
Co0 Y4 3.381577 1_555
Co1 Y1 2.728853 1_555
Co1 Y2 2.728860 1_665
Co1 Y8 2.846520 1_555
Co1 Y9 2.846520 1_565
Co1 Y11 2.846521 1_555
Co1 Y10 2.846521 1_565
Co1 Y7 3.381576 1_566
Co1 Y5 3.381577 1_555
Co2 Co3 2.156487 1_455
Co2 Y10 2.754247 1_565
Co2 Y8 2.754248 1_555
Co2 Y7 2.859060 1_455
Co2 Y6 2.859061 1_555
Co2 Y4 2.859061 1_555
Co2 Y5 2.859061 1_455
Co2 Y1 3.428067 1_555
Co2 Y3 3.428068 1_455
Co3 Y11 2.754247 1_545
Co3 Y9 2.754248 1_555
Co3 Y6 2.859060 1_655
Co3 Y7 2.859061 1_555
Co3 Y5 2.859061 1_555
Co3 Y4 2.859061 1_655
Co3 Y0 3.428067 1_555
Co3 Y2 3.428068 1_655
Rh0 Y0 2.783727 1_555
Rh0 Y1 2.783727 1_444
Rh0 Y2 2.783728 1_554
Rh0 Y3 2.783728 1_445
Rh0 Y4 3.300113 1_555
Rh0 Y5 3.300113 1_444
Rh0 Y7 3.300113 1_455
Rh0 Y6 3.300113 1_544
Pb0 Y10 3.429251 1_554
Pb0 Y11 3.429251 1_555
Pb0 Y9 3.429252 1_554
Pb0 Y8 3.429252 1_555
Pb0 Y3 3.449862 1_555
Pb0 Y2 3.449862 1_554
Pb0 Y1 3.449869 1_554
Pb0 Y0 3.449869 1_555
Pb0 Y4 3.610718 1_554
Pb0 Y5 3.610718 1_555
Pb0 Y6 3.610719 1_554
Pb0 Y7 3.610719 1_555
