# generated using pymatgen
data_Lu2Se2ICl
_symmetry_space_group_name_H-M   'P 1'
_cell_length_a   4.02706929
_cell_length_b   5.51668859
_cell_length_c   8.54491838
_cell_angle_alpha   90.00000000
_cell_angle_beta   90.00000000
_cell_angle_gamma   90.00000000
_symmetry_Int_Tables_number   1
_chemical_formula_structural   Lu2Se2ICl
_chemical_formula_sum   'Lu2 Se2 I1 Cl1'
_cell_volume   189.83465205
_cell_formula_units_Z   1
loop_
 _symmetry_equiv_pos_site_id
 _symmetry_equiv_pos_as_xyz
  1  'x, y, z'
loop_
 _atom_site_type_symbol
 _atom_site_label
 _atom_site_symmetry_multiplicity
 _atom_site_fract_x
 _atom_site_fract_y
 _atom_site_fract_z
 _atom_site_occupancy
  Lu  Lu0  1  0.00000000  0.50000000  0.12046662  1
  Lu  Lu1  1  0.50000000  0.00000000  0.85837349  1
  Se  Se0  1  0.50000000  0.50000000  0.89374733  1
  Se  Se1  1  0.00000000  0.00000000  0.08853141  1
  I  I0  1  0.50000000  0.50000000  0.37447838  1
  Cl  Cl0  1  0.00000000  0.00000000  0.66440478  1
loop_
_geom_bond_atom_site_label_1
_geom_bond_atom_site_label_2
_geom_bond_distance
_geom_bond_site_symmetry_2
Lu0 Se1 2.771810 1_565
Lu0 Se1 2.771810 1_555
Lu0 Se0 2.794180 1_454
Lu0 Se0 2.794180 1_554
Lu1 Se0 2.774856 1_545
Lu1 Se0 2.774856 1_555
Lu1 Se1 2.814632 1_656
Lu1 Se1 2.814632 1_556
I0 Lu0 2.960648 1_655
I0 Lu0 2.960648 1_555
Cl0 Lu1 2.607959 1_455
Cl0 Lu1 2.607959 1_555
