# generated using pymatgen
data_SrBAsO5
_symmetry_space_group_name_H-M   'P 1'
_cell_length_a   7.10323476
_cell_length_b   7.10323593
_cell_length_c   6.89291347
_cell_angle_alpha   90.00000000
_cell_angle_beta   90.00000000
_cell_angle_gamma   120.00000350
_symmetry_Int_Tables_number   1
_chemical_formula_structural   SrBAsO5
_chemical_formula_sum   'Sr3 B3 As3 O15'
_cell_volume   301.19367765
_cell_formula_units_Z   3
loop_
 _symmetry_equiv_pos_site_id
 _symmetry_equiv_pos_as_xyz
  1  'x, y, z'
loop_
 _atom_site_type_symbol
 _atom_site_label
 _atom_site_symmetry_multiplicity
 _atom_site_fract_x
 _atom_site_fract_y
 _atom_site_fract_z
 _atom_site_occupancy
  Sr  Sr0  1  0.07374910  0.33171281  0.87866707  1
  Sr  Sr1  1  0.25796371  0.92625090  0.54533307  1
  Sr  Sr2  1  0.66828719  0.74203629  0.21200007  1
  B  B0  1  0.77427721  0.42696919  0.56826352  1
  B  B1  1  0.65269198  0.22572279  0.23493052  1
  B  B2  1  0.57303081  0.34730802  0.90159752  1
  As  As0  1  0.66968456  0.74280460  0.70995922  1
  As  As1  1  0.07312104  0.33031544  0.37662622  1
  As  As2  1  0.25719540  0.92687896  0.04329222  1
  O  O0  1  0.65597915  0.37804468  0.09637619  1
  O  O1  1  0.62195532  0.27793547  0.42970919  1
  O  O2  1  0.72206453  0.34402085  0.76304319  1
  O  O3  1  0.82694361  0.92801111  0.87270783  1
  O  O4  1  0.10106750  0.17305639  0.53937483  1
  O  O5  1  0.07198889  0.89893250  0.20604183  1
  O  O6  1  0.48105345  0.99110368  0.18854657  1
  O  O7  1  0.00889632  0.48994978  0.52187957  1
  O  O8  1  0.51005022  0.51894655  0.85521357  1
  O  O9  1  0.20128244  0.72754404  0.88742487  1
  O  O10  1  0.27245596  0.47373940  0.22075887  1
  O  O11  1  0.52626060  0.79871756  0.55409187  1
  O  O12  1  0.34401522  0.14792328  0.88841973  1
  O  O13  1  0.85207672  0.19609194  0.22175273  1
  O  O14  1  0.80390806  0.65598478  0.55508573  1
loop_
_geom_bond_atom_site_label_1
_geom_bond_atom_site_label_2
_geom_bond_distance
_geom_bond_site_symmetry_2
B0 O1 1.434593 1_555
B0 O2 1.438319 1_555
B0 O7 1.527810 1_655
B0 O14 1.535083 1_555
B1 O0 1.434596 1_555
B1 O1 1.438314 1_555
B1 O6 1.527810 1_545
B1 O13 1.535083 1_555
B2 O2 1.434591 1_555
B2 O0 1.438312 1_556
B2 O8 1.527810 1_555
B2 O12 1.535083 1_555
As0 O11 1.659684 1_555
As0 O3 1.663557 1_555
As0 O8 1.735982 1_555
As0 O14 1.736931 1_555
As1 O10 1.659676 1_555
As1 O4 1.663554 1_555
As1 O7 1.735982 1_555
As1 O13 1.736935 1_455
As2 O9 1.659674 1_554
As2 O5 1.663563 1_555
As2 O6 1.735980 1_555
As2 O12 1.736932 1_564
O0 Sr2 2.664900 1_555
O1 Sr1 2.664903 1_545
O2 Sr0 2.664906 1_655
O3 Sr0 2.504187 1_665
O3 Sr2 2.644993 1_556
O4 Sr1 2.504187 1_545
O4 Sr0 2.644993 1_555
O5 Sr2 2.504186 1_455
O5 Sr1 2.644987 1_555
O6 Sr2 2.697760 1_555
O6 Sr1 2.835755 1_555
O7 Sr1 2.697760 1_555
O7 Sr0 2.835761 1_555
O8 Sr0 2.697760 1_555
O8 Sr2 2.835755 1_556
O9 Sr0 2.486515 1_555
O9 Sr1 2.673247 1_555
O10 Sr2 2.486513 1_555
O10 Sr0 2.673248 1_554
O11 Sr1 2.486508 1_555
O11 Sr2 2.673250 1_555
O12 Sr1 2.735524 1_545
O12 Sr0 2.810800 1_555
O13 Sr0 2.735518 1_654
O13 Sr2 2.810800 1_545
O14 Sr2 2.735518 1_555
O14 Sr1 2.810799 1_655
