# generated using pymatgen
data_NaScH6Ru
_symmetry_space_group_name_H-M   'P 1'
_cell_length_a   6.85394016
_cell_length_b   6.85394016
_cell_length_c   6.85394016
_cell_angle_alpha   90.00000000
_cell_angle_beta   90.00000000
_cell_angle_gamma   90.00000000
_symmetry_Int_Tables_number   1
_chemical_formula_structural   NaScH6Ru
_chemical_formula_sum   'Na4 Sc4 H24 Ru4'
_cell_volume   321.97409009
_cell_formula_units_Z   4
loop_
 _symmetry_equiv_pos_site_id
 _symmetry_equiv_pos_as_xyz
  1  'x, y, z'
loop_
 _atom_site_type_symbol
 _atom_site_label
 _atom_site_symmetry_multiplicity
 _atom_site_fract_x
 _atom_site_fract_y
 _atom_site_fract_z
 _atom_site_occupancy
  Na  Na0  1  0.00000000  0.00000000  0.50000000  1
  Na  Na1  1  0.00000000  0.50000000  0.00000000  1
  Na  Na2  1  0.50000000  0.00000000  0.00000000  1
  Na  Na3  1  0.00000000  0.00000000  0.00000000  1
  Sc  Sc0  1  0.50000000  0.50000000  0.50000000  1
  Sc  Sc1  1  0.00000000  0.50000000  0.50000000  1
  Sc  Sc2  1  0.50000000  0.00000000  0.50000000  1
  Sc  Sc3  1  0.50000000  0.50000000  0.00000000  1
  H  H0  1  0.73981847  0.73981847  0.51617239  1
  H  H1  1  0.26018153  0.26018153  0.51617239  1
  H  H2  1  0.02370759  0.72943164  0.72943164  1
  H  H3  1  0.27056836  0.97629241  0.72943164  1
  H  H4  1  0.72943164  0.02370759  0.72943164  1
  H  H5  1  0.97629241  0.27056836  0.72943164  1
  H  H6  1  0.73981847  0.51617239  0.73981847  1
  H  H7  1  0.51617239  0.73981847  0.73981847  1
  H  H8  1  0.48382761  0.26018153  0.73981847  1
  H  H9  1  0.26018153  0.48382761  0.73981847  1
  H  H10  1  0.27056836  0.72943164  0.97629241  1
  H  H11  1  0.72943164  0.27056836  0.97629241  1
  H  H12  1  0.72943164  0.72943164  0.02370759  1
  H  H13  1  0.27056836  0.27056836  0.02370759  1
  H  H14  1  0.26018153  0.51617239  0.26018153  1
  H  H15  1  0.48382761  0.73981847  0.26018153  1
  H  H16  1  0.51617239  0.26018153  0.26018153  1
  H  H17  1  0.73981847  0.48382761  0.26018153  1
  H  H18  1  0.97629241  0.72943164  0.27056836  1
  H  H19  1  0.72943164  0.97629241  0.27056836  1
  H  H20  1  0.27056836  0.02370759  0.27056836  1
  H  H21  1  0.02370759  0.27056836  0.27056836  1
  H  H22  1  0.26018153  0.73981847  0.48382761  1
  H  H23  1  0.73981847  0.26018153  0.48382761  1
  Ru  Ru0  1  0.27161126  0.72838874  0.72838874  1
  Ru  Ru1  1  0.72838874  0.27161126  0.72838874  1
  Ru  Ru2  1  0.72838874  0.72838874  0.27161126  1
  Ru  Ru3  1  0.27161126  0.27161126  0.27161126  1
loop_
_geom_bond_atom_site_label_1
_geom_bond_atom_site_label_2
_geom_bond_distance
_geom_bond_site_symmetry_2
H0 Ru2 1.679865 1_555
H0 Sc0 2.327186 1_555
H0 Sc2 2.427774 1_565
H0 Sc1 2.427774 1_655
H0 Na0 2.524357 1_665
H1 Ru3 1.679865 1_555
H1 Sc0 2.327186 1_555
H1 Sc1 2.427774 1_555
H1 Sc2 2.427774 1_555
H1 Na0 2.524357 1_555
H2 Ru0 1.699147 1_555
H2 Sc1 2.229794 1_555
H2 Na0 2.436845 1_565
H2 Na1 2.436845 1_556
H2 Na3 2.627630 1_566
H3 Ru0 1.699147 1_555
H3 Sc2 2.229794 1_565
H3 Na0 2.436845 1_565
H3 Na2 2.436845 1_566
H3 Na3 2.627630 1_566
H4 Ru1 1.699147 1_555
H4 Sc2 2.229794 1_555
H4 Na2 2.436845 1_556
H4 Na0 2.436845 1_655
H4 Na3 2.627630 1_656
H5 Ru1 1.699147 1_555
H5 Sc1 2.229794 1_655
H5 Na0 2.436845 1_655
H5 Na1 2.436845 1_656
H5 Na3 2.627630 1_656
H6 Ru1 1.679865 1_555
H6 Sc0 2.327186 1_555
H6 Sc3 2.427774 1_556
H6 Sc1 2.427774 1_655
H6 Na1 2.524357 1_656
H7 Ru0 1.679865 1_555
H7 Sc0 2.327186 1_555
H7 Sc3 2.427774 1_556
H7 Sc2 2.427774 1_565
H7 Na2 2.524357 1_566
H8 Ru1 1.679865 1_555
H8 Sc0 2.327186 1_555
H8 Sc2 2.427774 1_555
H8 Sc3 2.427774 1_556
H8 Na2 2.524357 1_556
H9 Ru0 1.679865 1_555
H9 Sc0 2.327186 1_555
H9 Sc1 2.427774 1_555
H9 Sc3 2.427774 1_556
H9 Na1 2.524357 1_556
H10 Ru0 1.699147 1_555
H10 Sc3 2.229794 1_556
H10 Na1 2.436845 1_556
H10 Na2 2.436845 1_566
H10 Na3 2.627630 1_566
H11 Ru1 1.699147 1_555
H11 Sc3 2.229794 1_556
H11 Na2 2.436845 1_556
H11 Na1 2.436845 1_656
H11 Na3 2.627630 1_656
H12 Ru2 1.699147 1_555
H12 Sc3 2.229794 1_555
H12 Na1 2.436845 1_655
H12 Na2 2.436845 1_565
H12 Na3 2.627630 1_665
H13 Ru3 1.699147 1_555
H13 Sc3 2.229794 1_555
H13 Na1 2.436845 1_555
H13 Na2 2.436845 1_555
H13 Na3 2.627630 1_555
H14 Ru3 1.679865 1_555
H14 Sc0 2.327186 1_555
H14 Sc1 2.427774 1_555
H14 Sc3 2.427774 1_555
H14 Na1 2.524357 1_555
H15 Ru2 1.679865 1_555
H15 Sc0 2.327186 1_555
H15 Sc3 2.427774 1_555
H15 Sc2 2.427774 1_565
H15 Na2 2.524357 1_565
H16 Ru3 1.679865 1_555
H16 Sc0 2.327186 1_555
H16 Sc3 2.427774 1_555
H16 Sc2 2.427774 1_555
H16 Na2 2.524357 1_555
H17 Ru2 1.679865 1_555
H17 Sc0 2.327186 1_555
H17 Sc3 2.427774 1_555
H17 Sc1 2.427774 1_655
H17 Na1 2.524357 1_655
H18 Ru2 1.699147 1_555
H18 Sc1 2.229794 1_655
H18 Na1 2.436845 1_655
H18 Na0 2.436845 1_665
H18 Na3 2.627630 1_665
H19 Ru2 1.699147 1_555
H19 Sc2 2.229794 1_565
H19 Na2 2.436845 1_565
H19 Na0 2.436845 1_665
H19 Na3 2.627630 1_665
H20 Ru3 1.699147 1_555
H20 Sc2 2.229794 1_555
H20 Na2 2.436845 1_555
H20 Na0 2.436845 1_555
H20 Na3 2.627630 1_555
H21 Ru3 1.699147 1_555
H21 Sc1 2.229794 1_555
H21 Na1 2.436845 1_555
H21 Na0 2.436845 1_555
H21 Na3 2.627630 1_555
H22 Ru0 1.679865 1_555
H22 Sc0 2.327186 1_555
H22 Sc1 2.427774 1_555
H22 Sc2 2.427774 1_565
H22 Na0 2.524357 1_565
H23 Ru1 1.679865 1_555
H23 Sc0 2.327186 1_555
H23 Sc2 2.427774 1_555
H23 Sc1 2.427774 1_655
H23 Na0 2.524357 1_655
