# generated using pymatgen
data_Na4Al3Si3HO13
_symmetry_space_group_name_H-M   'P 1'
_cell_length_a   8.83353767
_cell_length_b   8.83353767
_cell_length_c   8.83353751
_cell_angle_alpha   90.35149938
_cell_angle_beta   90.35149938
_cell_angle_gamma   90.35150309
_symmetry_Int_Tables_number   1
_chemical_formula_structural   Na4Al3Si3HO13
_chemical_formula_sum   'Na8 Al6 Si6 H2 O26'
_cell_volume   689.25411716
_cell_formula_units_Z   2
loop_
 _symmetry_equiv_pos_site_id
 _symmetry_equiv_pos_as_xyz
  1  'x, y, z'
loop_
 _atom_site_type_symbol
 _atom_site_label
 _atom_site_symmetry_multiplicity
 _atom_site_fract_x
 _atom_site_fract_y
 _atom_site_fract_z
 _atom_site_occupancy
  Na  Na0  1  0.84169500  0.84199800  0.16890200  1
  Na  Na1  1  0.14971200  0.14971200  0.14971200  1
  Na  Na2  1  0.34169500  0.66890200  0.34199800  1
  Na  Na3  1  0.66890200  0.34199800  0.34169500  1
  Na  Na4  1  0.64971200  0.64971200  0.64971200  1
  Na  Na5  1  0.34199800  0.34169500  0.66890200  1
  Na  Na6  1  0.16890200  0.84169500  0.84199800  1
  Na  Na7  1  0.84199800  0.16890200  0.84169500  1
  Al  Al0  1  0.50148400  0.74991200  0.00033300  1
  Al  Al1  1  0.00148400  0.50033300  0.24991200  1
  Al  Al2  1  0.24991200  0.00148400  0.50033300  1
  Al  Al3  1  0.74991200  0.00033300  0.50148400  1
  Al  Al4  1  0.00033300  0.50148400  0.74991200  1
  Al  Al5  1  0.50033300  0.24991200  0.00148400  1
  Si  Si0  1  0.75048400  0.50156000  0.99974500  1
  Si  Si1  1  0.25048400  0.49974500  0.00156000  1
  Si  Si2  1  0.49974500  0.00156000  0.25048400  1
  Si  Si3  1  0.00156000  0.25048400  0.49974500  1
  Si  Si4  1  0.99974500  0.75048400  0.50156000  1
  Si  Si5  1  0.50156000  0.99974500  0.75048400  1
  H  H0  1  0.42538000  0.42538000  0.42538000  1
  H  H1  1  0.92538000  0.92538000  0.92538000  1
  O  O0  1  0.98950100  0.98950100  0.98950100  1
  O  O1  1  0.35454100  0.63686600  0.07399900  1
  O  O2  1  0.64824900  0.36474500  0.07267200  1
  O  O3  1  0.85454100  0.57399900  0.13686600  1
  O  O4  1  0.14736100  0.42633100  0.13690400  1
  O  O5  1  0.57267200  0.86474500  0.14824900  1
  O  O6  1  0.42633100  0.13690400  0.14736100  1
  O  O7  1  0.36285700  0.92980300  0.35296400  1
  O  O8  1  0.63686600  0.07399900  0.35454100  1
  O  O9  1  0.07267200  0.64824900  0.36474500  1
  O  O10  1  0.92980300  0.35296400  0.36285700  1
  O  O11  1  0.86285700  0.85296400  0.42980300  1
  O  O12  1  0.13690400  0.14736100  0.42633100  1
  O  O13  1  0.48950100  0.48950100  0.48950100  1
  O  O14  1  0.13686600  0.85454100  0.57399900  1
  O  O15  1  0.86474500  0.14824900  0.57267200  1
  O  O16  1  0.92633100  0.64736100  0.63690400  1
  O  O17  1  0.07399900  0.35454100  0.63686600  1
  O  O18  1  0.63690400  0.92633100  0.64736100  1
  O  O19  1  0.36474500  0.07267200  0.64824900  1
  O  O20  1  0.42980300  0.86285700  0.85296400  1
  O  O21  1  0.57399900  0.13686600  0.85454100  1
  O  O22  1  0.85296400  0.42980300  0.86285700  1
  O  O23  1  0.14824900  0.57267200  0.86474500  1
  O  O24  1  0.64736100  0.63690400  0.92633100  1
  O  O25  1  0.35296400  0.36285700  0.92980300  1
loop_
_geom_bond_atom_site_label_1
_geom_bond_atom_site_label_2
_geom_bond_distance
_geom_bond_site_symmetry_2
Na0 O11 2.312493 1_555
Na0 O3 2.385983 1_555
Na0 O5 2.392079 1_555
Na0 O0 2.437976 1_554
Na1 O0 2.436166 1_444
Na1 O12 2.447045 1_555
Na1 O4 2.447045 1_555
Na1 O6 2.447045 1_555
Na2 O7 2.312493 1_555
Na2 O1 2.385983 1_555
Na2 O9 2.392079 1_555
Na2 O13 2.437976 1_555
Na3 O10 2.312493 1_555
Na3 O8 2.385983 1_555
Na3 O2 2.392079 1_555
Na3 O13 2.437976 1_555
Na4 O13 2.436166 1_555
Na4 O24 2.447045 1_555
Na4 O16 2.447045 1_555
Na4 O18 2.447045 1_555
Na5 O25 2.312493 1_555
Na5 O17 2.385983 1_555
Na5 O19 2.392079 1_555
Na5 O13 2.437976 1_555
Na6 O20 2.312493 1_555
Na6 O14 2.385983 1_555
Na6 O23 2.392079 1_555
Na6 O0 2.437976 1_455
Na7 O22 2.312493 1_555
Na7 O21 2.385983 1_555
Na7 O15 2.392079 1_555
Na7 O0 2.437976 1_545
Al0 O5 1.759972 1_555
Al0 O24 1.761384 1_554
Al0 O20 1.761982 1_554
Al0 O1 1.762938 1_555
Al1 O9 1.759972 1_555
Al1 O4 1.761384 1_555
Al1 O10 1.761982 1_455
Al1 O3 1.762938 1_455
Al2 O19 1.759972 1_555
Al2 O12 1.761384 1_555
Al2 O7 1.761982 1_545
Al2 O14 1.762938 1_545
Al3 O15 1.759972 1_555
Al3 O18 1.761384 1_545
Al3 O11 1.761982 1_545
Al3 O8 1.762938 1_555
Al4 O23 1.759972 1_555
Al4 O16 1.761384 1_455
Al4 O22 1.761982 1_455
Al4 O17 1.762938 1_555
Al5 O2 1.759972 1_555
Al5 O6 1.761384 1_555
Al5 O25 1.761982 1_554
Al5 O21 1.762938 1_554
H0 O13 0.975023 1_555
H0 Na5 2.397655 1_555
H0 Na3 2.397655 1_555
H0 Na2 2.397655 1_555
H1 O0 0.975023 1_555
H1 Na0 2.397655 1_556
H1 Na7 2.397655 1_565
H1 Na6 2.397655 1_655
O1 Si1 1.640472 1_555
O2 Si0 1.641493 1_554
O3 Si0 1.640472 1_554
O4 Si1 1.641761 1_555
O5 Si2 1.641493 1_565
O6 Si2 1.641761 1_555
O7 Si2 1.641503 1_565
O8 Si2 1.640472 1_555
O9 Si4 1.641493 1_455
O10 Si3 1.641503 1_655
O11 Si4 1.641503 1_555
O12 Si3 1.641761 1_555
O14 Si4 1.640472 1_455
O15 Si3 1.641493 1_655
O16 Si4 1.641761 1_555
O17 Si3 1.640472 1_555
O18 Si5 1.641761 1_555
O19 Si5 1.641493 1_545
O20 Si5 1.641503 1_555
O21 Si5 1.640472 1_545
O22 Si0 1.641503 1_555
O23 Si1 1.641493 1_556
O24 Si0 1.641761 1_555
O25 Si1 1.641503 1_556
