# generated using pymatgen
data_Cs2NaYBi2
_symmetry_space_group_name_H-M   'P 1'
_cell_length_a   10.44309607
_cell_length_b   10.44309636
_cell_length_c   10.44309699
_cell_angle_alpha   136.42998149
_cell_angle_beta   63.20516324
_cell_angle_gamma   136.57414056
_symmetry_Int_Tables_number   1
_chemical_formula_structural   Cs2NaYBi2
_chemical_formula_sum   'Cs4 Na2 Y2 Bi4'
_cell_volume   532.72964167
_cell_formula_units_Z   2
loop_
 _symmetry_equiv_pos_site_id
 _symmetry_equiv_pos_as_xyz
  1  'x, y, z'
loop_
 _atom_site_type_symbol
 _atom_site_label
 _atom_site_symmetry_multiplicity
 _atom_site_fract_x
 _atom_site_fract_y
 _atom_site_fract_z
 _atom_site_occupancy
  Cs  Cs0  1  0.32194592  0.78175848  0.10370540  1
  Cs  Cs1  1  0.17805508  0.28175848  0.45981456  1
  Cs  Cs2  1  0.82194492  0.71824152  0.54018544  1
  Cs  Cs3  1  0.67805508  0.21824152  0.89629560  1
  Na  Na0  1  0.74999900  0.24999900  0.50000000  1
  Na  Na1  1  0.24999900  0.74999900  0.50000000  1
  Y  Y0  1  0.24999900  0.24999900  0.00000000  1
  Y  Y1  1  0.75000000  0.75000000  0.00000000  1
  Bi  Bi0  1  0.90539692  0.22702674  0.13242367  1
  Bi  Bi1  1  0.59460308  0.72702674  0.32162982  1
  Bi  Bi2  1  0.40539692  0.27297326  0.67837018  1
  Bi  Bi3  1  0.09460308  0.77297326  0.86757533  1
loop_
_geom_bond_atom_site_label_1
_geom_bond_atom_site_label_2
_geom_bond_distance
_geom_bond_site_symmetry_2
Bi0 Y0 3.108133 1_655
Bi0 Y1 3.108137 1_545
Bi0 Na1 3.322772 1_655
Bi0 Na0 3.322781 1_555
Bi0 Cs3 4.044730 1_554
Bi0 Cs2 4.086754 1_555
Bi0 Cs0 4.160555 1_655
Bi0 Cs0 4.160562 1_545
Bi0 Cs2 4.213944 1_544
Bi1 Y1 3.108138 1_555
Bi1 Y0 3.108142 1_555
Bi1 Na0 3.322772 1_565
Bi1 Na1 3.322781 1_555
Bi1 Cs2 4.044712 1_555
Bi1 Cs3 4.086748 1_565
Bi1 Cs1 4.160568 1_665
Bi1 Cs1 4.160575 1_555
Bi1 Cs3 4.213938 1_554
Bi2 Y1 3.108137 1_556
Bi2 Y0 3.108143 1_556
Bi2 Na0 3.322772 1_555
Bi2 Na1 3.322781 1_545
Bi2 Cs1 4.044712 1_555
Bi2 Cs0 4.086742 1_545
Bi2 Cs2 4.160568 1_445
Bi2 Cs2 4.160575 1_555
Bi2 Cs0 4.213932 1_556
Bi3 Y0 3.108128 1_566
Bi3 Y1 3.108137 1_456
Bi3 Na1 3.322763 1_555
Bi3 Na0 3.322776 1_455
Bi3 Cs0 4.044757 1_556
Bi3 Cs1 4.086754 1_555
Bi3 Cs3 4.160568 1_565
Bi3 Cs3 4.160568 1_455
Bi3 Cs1 4.213951 1_566
