# generated using pymatgen
data_Zr10AlSiSn6
_symmetry_space_group_name_H-M   'P 1'
_cell_length_a   8.69858832
_cell_length_b   8.69858902
_cell_length_c   5.88882446
_cell_angle_alpha   90.00000000
_cell_angle_beta   90.00000000
_cell_angle_gamma   119.99999732
_symmetry_Int_Tables_number   1
_chemical_formula_structural   Zr10AlSiSn6
_chemical_formula_sum   'Zr10 Al1 Si1 Sn6'
_cell_volume   385.88406248
_cell_formula_units_Z   1
loop_
 _symmetry_equiv_pos_site_id
 _symmetry_equiv_pos_as_xyz
  1  'x, y, z'
loop_
 _atom_site_type_symbol
 _atom_site_label
 _atom_site_symmetry_multiplicity
 _atom_site_fract_x
 _atom_site_fract_y
 _atom_site_fract_z
 _atom_site_occupancy
  Zr  Zr0  1  0.66666700  0.33333300  0.00000000  1
  Zr  Zr1  1  0.33333300  0.66666700  0.00000000  1
  Zr  Zr2  1  0.33333300  0.66666700  0.50000000  1
  Zr  Zr3  1  0.66666700  0.33333300  0.50000000  1
  Zr  Zr4  1  0.73685485  0.73685485  0.74269555  1
  Zr  Zr5  1  0.26314515  0.00000000  0.74269555  1
  Zr  Zr6  1  0.00000000  0.26314515  0.74269555  1
  Zr  Zr7  1  0.26314515  0.26314515  0.25730445  1
  Zr  Zr8  1  0.73685485  0.00000000  0.25730445  1
  Zr  Zr9  1  1.00000000  0.73685485  0.25730445  1
  Al  Al0  1  0.00000000  0.00000000  0.00000000  1
  Si  Si0  1  0.00000000  0.00000000  0.50000000  1
  Sn  Sn0  1  0.38988590  0.38988590  0.75447427  1
  Sn  Sn1  1  0.61011410  0.00000000  0.75447427  1
  Sn  Sn2  1  0.00000000  0.61011410  0.75447427  1
  Sn  Sn3  1  0.61011410  0.61011410  0.24552573  1
  Sn  Sn4  1  0.38988590  0.00000000  0.24552573  1
  Sn  Sn5  1  1.00000000  0.38988590  0.24552573  1
loop_
_geom_bond_atom_site_label_1
_geom_bond_atom_site_label_2
_geom_bond_distance
_geom_bond_site_symmetry_2
Al0 Zr5 2.745064 1_554
Al0 Zr8 2.745064 1_455
Al0 Zr7 2.745064 1_555
Al0 Zr4 2.745064 1_444
Al0 Zr6 2.745064 1_554
Al0 Zr9 2.745064 1_445
Al0 Si0 2.944412 1_554
Al0 Si0 2.944412 1_555
Si0 Zr5 2.698531 1_555
Si0 Zr8 2.698531 1_455
Si0 Zr7 2.698531 1_555
Si0 Zr4 2.698531 1_445
Si0 Zr6 2.698531 1_555
Si0 Zr9 2.698531 1_445
Sn0 Zr6 2.997208 1_555
Sn0 Zr5 2.997209 1_555
Sn0 Zr4 3.018937 1_555
Sn0 Zr0 3.051792 1_556
Sn0 Zr1 3.051792 1_556
Sn0 Zr3 3.077108 1_555
Sn0 Zr2 3.077108 1_555
Sn0 Zr7 3.128438 1_555
Sn0 Zr7 3.159655 1_556
Sn1 Zr6 2.997208 1_655
Sn1 Zr4 2.997208 1_545
Sn1 Zr5 3.018937 1_555
Sn1 Zr0 3.051785 1_556
Sn1 Zr1 3.051788 1_546
Sn1 Zr3 3.077101 1_555
Sn1 Zr2 3.077104 1_545
Sn1 Zr8 3.128438 1_555
Sn1 Zr8 3.159655 1_556
Sn2 Zr4 2.997208 1_455
Sn2 Zr5 2.997209 1_565
Sn2 Zr6 3.018937 1_555
Sn2 Zr1 3.051785 1_556
Sn2 Zr0 3.051788 1_456
Sn2 Zr2 3.077101 1_555
Sn2 Zr3 3.077104 1_455
Sn2 Zr9 3.128438 1_455
Sn2 Zr9 3.159655 1_456
Sn3 Zr9 2.997208 1_555
Sn3 Zr8 2.997209 1_565
Sn3 Zr7 3.018937 1_555
Sn3 Zr1 3.051792 1_555
Sn3 Zr0 3.051792 1_555
Sn3 Zr2 3.077108 1_555
Sn3 Zr3 3.077108 1_555
Sn3 Zr4 3.128438 1_555
Sn3 Zr4 3.159655 1_554
Sn4 Zr9 2.997208 1_445
Sn4 Zr7 2.997208 1_555
Sn4 Zr8 3.018937 1_555
Sn4 Zr1 3.051785 1_545
Sn4 Zr0 3.051788 1_555
Sn4 Zr2 3.077101 1_545
Sn4 Zr3 3.077104 1_555
Sn4 Zr5 3.128438 1_555
Sn4 Zr5 3.159655 1_554
Sn5 Zr7 2.997208 1_655
Sn5 Zr8 2.997209 1_555
Sn5 Zr9 3.018937 1_555
Sn5 Zr0 3.051785 1_555
Sn5 Zr1 3.051788 1_655
Sn5 Zr3 3.077101 1_555
Sn5 Zr2 3.077104 1_655
Sn5 Zr6 3.128438 1_655
Sn5 Zr6 3.159655 1_654
