# generated using pymatgen
data_ZrScBRh6
_symmetry_space_group_name_H-M   'P 1'
_cell_length_a   5.65660795
_cell_length_b   5.65660776
_cell_length_c   5.65660813
_cell_angle_alpha   60.00000352
_cell_angle_beta   60.00000462
_cell_angle_gamma   59.99999871
_symmetry_Int_Tables_number   1
_chemical_formula_structural   ZrScBRh6
_chemical_formula_sum   'Zr1 Sc1 B1 Rh6'
_cell_volume   127.98328799
_cell_formula_units_Z   1
loop_
 _symmetry_equiv_pos_site_id
 _symmetry_equiv_pos_as_xyz
  1  'x, y, z'
loop_
 _atom_site_type_symbol
 _atom_site_label
 _atom_site_symmetry_multiplicity
 _atom_site_fract_x
 _atom_site_fract_y
 _atom_site_fract_z
 _atom_site_occupancy
  Zr  Zr0  1  0.25000000  0.25000000  0.25000000  1
  Sc  Sc0  1  0.75000000  0.75000000  0.75000000  1
  B  B0  1  0.50000000  0.50000000  0.50000000  1
  Rh  Rh0  1  0.75779621  0.75779621  0.24220379  1
  Rh  Rh1  1  0.75779621  0.24220379  0.24220379  1
  Rh  Rh2  1  0.24220379  0.75779621  0.24220379  1
  Rh  Rh3  1  0.24220379  0.24220379  0.75779621  1
  Rh  Rh4  1  0.75779621  0.24220379  0.75779621  1
  Rh  Rh5  1  0.24220379  0.75779621  0.75779621  1
loop_
_geom_bond_atom_site_label_1
_geom_bond_atom_site_label_2
_geom_bond_distance
_geom_bond_site_symmetry_2
B0 Rh1 2.062280 1_555
B0 Rh5 2.062280 1_555
B0 Rh4 2.062280 1_555
B0 Rh2 2.062280 1_555
B0 Rh0 2.062280 1_555
B0 Rh3 2.062280 1_555
Rh0 Zr0 2.828991 1_655
Rh0 Zr0 2.828991 1_565
Rh0 Sc0 2.828992 1_554
Rh0 Sc0 2.828992 1_555
Rh1 Zr0 2.828992 1_655
Rh1 Zr0 2.828992 1_555
Rh1 Sc0 2.828992 1_554
Rh1 Sc0 2.828992 1_545
Rh2 Zr0 2.828991 1_555
Rh2 Zr0 2.828991 1_565
Rh2 Sc0 2.828992 1_554
Rh2 Sc0 2.828992 1_455
Rh3 Sc0 2.828991 1_455
Rh3 Sc0 2.828991 1_545
Rh3 Zr0 2.828992 1_556
Rh3 Zr0 2.828992 1_555
Rh4 Sc0 2.828991 1_555
Rh4 Sc0 2.828991 1_545
Rh4 Zr0 2.828992 1_556
Rh4 Zr0 2.828992 1_655
Rh5 Sc0 2.828992 1_455
Rh5 Sc0 2.828992 1_555
Rh5 Zr0 2.828992 1_556
Rh5 Zr0 2.828992 1_565
