# generated using pymatgen
data_CaRu2PbO7
_symmetry_space_group_name_H-M   'P 1'
_cell_length_a   7.24926966
_cell_length_b   7.23664335
_cell_length_c   7.23664394
_cell_angle_alpha   60.10565748
_cell_angle_beta   59.94227081
_cell_angle_gamma   59.94227000
_symmetry_Int_Tables_number   1
_chemical_formula_structural   CaRu2PbO7
_chemical_formula_sum   'Ca2 Ru4 Pb2 O14'
_cell_volume   268.42261406
_cell_formula_units_Z   2
loop_
 _symmetry_equiv_pos_site_id
 _symmetry_equiv_pos_as_xyz
  1  'x, y, z'
loop_
 _atom_site_type_symbol
 _atom_site_label
 _atom_site_symmetry_multiplicity
 _atom_site_fract_x
 _atom_site_fract_y
 _atom_site_fract_z
 _atom_site_occupancy
  Ca  Ca0  1  0.62500000  0.12500000  0.62500000  1
  Ca  Ca1  1  0.62500000  0.62500000  0.12500000  1
  Ru  Ru0  1  0.62500000  0.12500000  0.12500000  1
  Ru  Ru1  1  0.12500000  0.62500000  0.12500000  1
  Ru  Ru2  1  0.12500000  0.12500000  0.62500000  1
  Ru  Ru3  1  0.12500000  0.12500000  0.12500000  1
  Pb  Pb0  1  0.12500000  0.62500000  0.62500000  1
  Pb  Pb1  1  0.62500000  0.62500000  0.62500000  1
  O  O0  1  0.19264893  0.20243799  0.80204343  1
  O  O1  1  0.19264893  0.80204343  0.20243799  1
  O  O2  1  0.45143718  0.04856282  0.04856282  1
  O  O3  1  0.19989449  0.80010551  0.80010551  1
  O  O4  1  0.05010551  0.44989449  0.44989449  1
  O  O5  1  0.80286864  0.80204343  0.20243799  1
  O  O6  1  0.44713136  0.44795657  0.04756201  1
  O  O7  1  0.49782590  0.50217410  0.50217410  1
  O  O8  1  0.05735107  0.04756201  0.44795657  1
  O  O9  1  0.44713136  0.04756201  0.44795657  1
  O  O10  1  0.05735107  0.44795657  0.04756201  1
  O  O11  1  0.75217410  0.74782590  0.74782590  1
  O  O12  1  0.80286864  0.20243799  0.80204343  1
  O  O13  1  0.79856282  0.20143718  0.20143718  1
loop_
_geom_bond_atom_site_label_1
_geom_bond_atom_site_label_2
_geom_bond_distance
_geom_bond_site_symmetry_2
Ca0 O7 2.229756 1_555
Ca0 O11 2.229756 1_545
Ca0 O2 2.535371 1_556
Ca0 O13 2.535371 1_555
Ca0 O12 2.590852 1_555
Ca0 O9 2.590852 1_555
Ca0 O8 2.590858 1_655
Ca0 O0 2.590858 1_555
Ca1 O7 2.229756 1_555
Ca1 O11 2.229756 1_554
Ca1 O2 2.535371 1_565
Ca1 O13 2.535371 1_555
Ca1 O5 2.590852 1_555
Ca1 O6 2.590852 1_555
Ca1 O10 2.590858 1_655
Ca1 O1 2.590858 1_555
O0 Ru2 1.953558 1_555
O0 Ru3 1.959163 1_556
O0 Pb0 2.540624 1_555
O1 Ru1 1.953558 1_555
O1 Ru3 1.959162 1_565
O1 Pb0 2.540624 1_555
O2 Ru0 1.973422 1_555
O2 Ru3 1.973422 1_555
O3 Ru2 1.966991 1_565
O3 Ru1 1.966991 1_556
O3 Pb0 2.546611 1_555
O3 Pb1 2.546611 1_555
O4 Ru2 1.966991 1_555
O4 Ru1 1.966991 1_555
O4 Pb0 2.546611 1_555
O4 Pb1 2.546611 1_455
O5 Ru1 1.953564 1_655
O5 Ru0 1.959161 1_565
O5 Pb1 2.540623 1_555
O6 Ru1 1.953564 1_555
O6 Ru0 1.959161 1_555
O6 Pb1 2.540623 1_554
O7 Pb1 2.204384 1_555
O7 Pb0 2.204384 1_555
O8 Ru2 1.953558 1_555
O8 Ru3 1.959163 1_555
O8 Pb0 2.540624 1_545
O9 Ru2 1.953564 1_555
O9 Ru0 1.959161 1_555
O9 Pb1 2.540623 1_545
O10 Ru1 1.953558 1_555
O10 Ru3 1.959162 1_555
O10 Pb0 2.540624 1_554
O11 Pb1 2.204384 1_555
O11 Pb0 2.204384 1_655
O12 Ru2 1.953564 1_655
O12 Ru0 1.959161 1_556
O12 Pb1 2.540623 1_555
O13 Ru0 1.973422 1_555
O13 Ru3 1.973422 1_655
