# generated using pymatgen
data_Y4Ga18(OsPd)3
_symmetry_space_group_name_H-M   'P 1'
_cell_length_a   7.52776440
_cell_length_b   7.52774778
_cell_length_c   9.53819428
_cell_angle_alpha   89.92814574
_cell_angle_beta   89.92842642
_cell_angle_gamma   119.71137739
_symmetry_Int_Tables_number   1
_chemical_formula_structural   Y4Ga18(OsPd)3
_chemical_formula_sum   'Y4 Ga18 Os3 Pd3'
_cell_volume   469.44235809
_cell_formula_units_Z   1
loop_
 _symmetry_equiv_pos_site_id
 _symmetry_equiv_pos_as_xyz
  1  'x, y, z'
loop_
 _atom_site_type_symbol
 _atom_site_label
 _atom_site_symmetry_multiplicity
 _atom_site_fract_x
 _atom_site_fract_y
 _atom_site_fract_z
 _atom_site_occupancy
  Y  Y0  1  0.99723261  0.66851702  0.25110254  1
  Y  Y1  1  0.00170612  0.33080734  0.74823944  1
  Y  Y2  1  0.66919266  0.99829588  0.25176056  1
  Y  Y3  1  0.33148398  0.00276639  0.74889846  1
  Ga  Ga0  1  0.13294419  0.12997355  0.24997597  1
  Ga  Ga1  1  0.87002745  0.86705681  0.75002403  1
  Ga  Ga2  1  0.00648501  0.33691470  0.07964238  1
  Ga  Ga3  1  0.99974890  0.66555494  0.92097226  1
  Ga  Ga4  1  0.99767561  0.66118288  0.57629024  1
  Ga  Ga5  1  0.33881412  0.00231839  0.42370976  1
  Ga  Ga6  1  0.00313865  0.33860565  0.42191083  1
  Ga  Ga7  1  0.66139535  0.99686435  0.57808817  1
  Ga  Ga8  1  0.66308930  0.99351799  0.92035562  1
  Ga  Ga9  1  0.33444506  0.00024710  0.07902874  1
  Ga  Ga10  1  0.34101921  0.34059874  0.56544853  1
  Ga  Ga11  1  0.65940026  0.65898079  0.43455147  1
  Ga  Ga12  1  0.65858998  0.66326930  0.07152120  1
  Ga  Ga13  1  0.33673370  0.34141002  0.92847880  1
  Ga  Ga14  1  0.33547182  0.54772158  0.25042651  1
  Ga  Ga15  1  0.66734427  0.45786526  0.74712586  1
  Ga  Ga16  1  0.54213174  0.33265573  0.25287214  1
  Ga  Ga17  1  0.45228142  0.66452718  0.74957449  1
  Os  Os0  1  0.32734614  0.67265386  0.00000100  1
  Os  Os1  1  0.32750711  0.67249189  0.49999900  1
  Os  Os2  1  0.67304765  0.32695835  0.50000300  1
  Pd  Pd0  1  0.67157563  0.32841837  0.00000100  1
  Pd  Pd1  1  0.00035600  0.99964300  0.99999900  1
  Pd  Pd2  1  0.99982105  0.00017995  0.49999900  1
loop_
_geom_bond_atom_site_label_1
_geom_bond_atom_site_label_2
_geom_bond_distance
_geom_bond_site_symmetry_2
Ga0 Pd2 2.581397 1_455
Ga0 Pd1 2.585519 1_544
Ga0 Ga16 2.675517 1_555
Ga0 Ga9 2.716478 1_555
Ga0 Ga2 2.727644 1_555
Ga0 Ga14 2.731502 1_555
Ga0 Ga5 2.747685 1_555
Ga0 Ga6 2.763058 1_555
Ga0 Y0 3.097207 1_445
Ga0 Y2 3.120838 1_445
Ga1 Pd2 2.581415 1_565
Ga1 Pd1 2.585495 1_655
Ga1 Ga15 2.675537 1_555
Ga1 Ga3 2.716457 1_555
Ga1 Ga8 2.727634 1_555
Ga1 Ga17 2.731495 1_555
Ga1 Ga4 2.747681 1_555
Ga1 Ga7 2.763067 1_555
Ga1 Y3 3.097218 1_665
Ga1 Y1 3.120821 1_665
Ga2 Os0 2.595771 1_555
Ga2 Pd0 2.604275 1_455
Ga2 Pd1 2.629450 1_544
Ga2 Ga3 2.920354 1_454
Ga2 Ga8 3.011410 1_444
Ga2 Y0 3.015436 1_455
Ga2 Y2 3.033655 1_445
Ga2 Y1 3.161368 1_554
Ga3 Os0 2.554740 1_656
Ga3 Pd1 2.624203 1_655
Ga3 Pd0 2.624441 1_556
Ga3 Ga9 2.948749 1_666
Ga3 Y3 3.011517 1_665
Ga3 Y1 3.018559 1_655
Ga3 Y0 3.149053 1_556
Ga4 Os1 2.547024 1_655
Ga4 Os2 2.597257 1_555
Ga4 Pd2 2.645062 1_565
Ga4 Ga6 2.859073 1_655
Ga4 Ga5 2.958300 1_665
Ga4 Y1 2.990080 1_655
Ga4 Y3 3.041834 1_665
Ga4 Y0 3.102161 1_555
Ga5 Os1 2.546981 1_545
Ga5 Os2 2.597349 1_555
Ga5 Pd2 2.645062 1_455
Ga5 Ga7 2.859063 1_545
Ga5 Y2 2.990085 1_545
Ga5 Y0 3.041801 1_445
Ga5 Y3 3.102171 1_555
Ga6 Os2 2.552688 1_455
Ga6 Os1 2.599985 1_555
Ga6 Pd2 2.641531 1_455
Ga6 Ga7 2.979215 1_445
Ga6 Y0 2.987220 1_455
Ga6 Y2 3.025395 1_445
Ga6 Y1 3.112970 1_555
Ga7 Os2 2.552665 1_565
Ga7 Os1 2.600010 1_555
Ga7 Pd2 2.641550 1_565
Ga7 Y3 2.987228 1_565
Ga7 Y1 3.025394 1_665
Ga7 Y2 3.112961 1_555
Ga8 Os0 2.595809 1_556
Ga8 Pd0 2.604253 1_566
Ga8 Pd1 2.629430 1_655
Ga8 Ga9 2.920383 1_566
Ga8 Y3 3.015424 1_565
Ga8 Y1 3.033628 1_665
Ga8 Y2 3.161387 1_556
Ga9 Os0 2.554706 1_545
Ga9 Pd1 2.624231 1_544
Ga9 Pd0 2.624409 1_555
Ga9 Y0 3.011505 1_445
Ga9 Y2 3.018532 1_545
Ga9 Y3 3.149053 1_554
Ga10 Os1 2.624930 1_555
Ga10 Os2 2.626411 1_555
Ga10 Pd2 2.652768 1_455
Ga10 Ga11 2.708908 1_555
Ga10 Ga15 2.771539 1_555
Ga10 Ga17 2.778814 1_555
Ga10 Ga5 2.877393 1_555
Ga10 Ga6 2.883553 1_555
Ga10 Y3 3.056453 1_555
Ga10 Y1 3.061279 1_555
Ga11 Os1 2.624930 1_555
Ga11 Os2 2.626399 1_555
Ga11 Pd2 2.652774 1_565
Ga11 Ga16 2.771549 1_555
Ga11 Ga14 2.778810 1_555
Ga11 Ga4 2.877369 1_555
Ga11 Ga7 2.883562 1_555
Ga11 Y0 3.056456 1_555
Ga11 Y2 3.061276 1_555
Ga12 Os0 2.620451 1_555
Ga12 Pd1 2.651368 1_654
Ga12 Pd0 2.660283 1_555
Ga12 Ga14 2.733779 1_555
Ga12 Ga16 2.788775 1_555
Ga12 Ga13 2.792780 1_554
Ga12 Ga8 2.857942 1_554
Ga12 Ga3 2.933374 1_554
Ga12 Y2 3.022254 1_555
Ga12 Y0 3.057010 1_555
Ga13 Os0 2.620466 1_556
Ga13 Pd1 2.651381 1_545
Ga13 Pd0 2.660248 1_556
Ga13 Ga17 2.733759 1_555
Ga13 Ga15 2.788783 1_555
Ga13 Ga2 2.857956 1_556
Ga13 Ga9 2.933384 1_556
Ga13 Y1 3.022258 1_555
Ga13 Y3 3.057007 1_555
Ga14 Os1 2.571669 1_555
Ga14 Os0 2.577868 1_555
Ga14 Ga2 2.725054 1_555
Ga14 Ga6 2.737076 1_555
Ga14 Ga16 2.745602 1_555
Ga14 Y2 3.060943 1_555
Ga14 Y0 3.099192 1_455
Ga15 Os2 2.564446 1_555
Ga15 Pd0 2.606382 1_556
Ga15 Ga4 2.718842 1_555
Ga15 Ga17 2.745596 1_555
Ga15 Ga3 2.755747 1_555
Ga15 Y3 3.089164 1_555
Ga15 Y1 3.104290 1_655
Ga16 Os2 2.564530 1_555
Ga16 Pd0 2.606353 1_555
Ga16 Ga5 2.718877 1_555
Ga16 Ga9 2.755746 1_555
Ga16 Y0 3.089181 1_555
Ga16 Y2 3.104288 1_545
Ga17 Os1 2.571703 1_555
Ga17 Os0 2.577892 1_556
Ga17 Ga8 2.725056 1_555
Ga17 Ga7 2.737099 1_555
Ga17 Y1 3.060950 1_555
Ga17 Y3 3.099199 1_565
