# generated using pymatgen
data_Be6V3Ga2Mo
_symmetry_space_group_name_H-M   'P 1'
_cell_length_a   4.50651647
_cell_length_b   4.50651608
_cell_length_c   7.35955349
_cell_angle_alpha   90.00000000
_cell_angle_beta   90.00000000
_cell_angle_gamma   120.00001015
_symmetry_Int_Tables_number   1
_chemical_formula_structural   Be6V3Ga2Mo
_chemical_formula_sum   'Be6 V3 Ga2 Mo1'
_cell_volume   129.43863990
_cell_formula_units_Z   1
loop_
 _symmetry_equiv_pos_site_id
 _symmetry_equiv_pos_as_xyz
  1  'x, y, z'
loop_
 _atom_site_type_symbol
 _atom_site_label
 _atom_site_symmetry_multiplicity
 _atom_site_fract_x
 _atom_site_fract_y
 _atom_site_fract_z
 _atom_site_occupancy
  Be  Be0  1  0.82211223  0.17788777  0.25249743  1
  Be  Be1  1  0.82211223  0.64422446  0.25249743  1
  Be  Be2  1  0.35577554  0.17788777  0.25249743  1
  Be  Be3  1  0.17806308  0.82193692  0.74752640  1
  Be  Be4  1  0.17806308  0.35612815  0.74752640  1
  Be  Be5  1  0.64387185  0.82193692  0.74752640  1
  V  V0  1  0.33333300  0.66666700  0.43285283  1
  V  V1  1  0.66666700  0.33333300  0.56708955  1
  V  V2  1  0.66666700  0.33333300  0.93453215  1
  Ga  Ga0  1  0.00000000  0.00000000  0.50160206  1
  Ga  Ga1  1  0.00000000  0.00000000  0.99823475  1
  Mo  Mo0  1  0.33333300  0.66666700  0.06561818  1
loop_
_geom_bond_atom_site_label_1
_geom_bond_atom_site_label_2
_geom_bond_distance
_geom_bond_site_symmetry_2
Be0 Be1 2.101554 1_555
Be0 Be2 2.101554 1_555
Be0 Ga0 2.299768 1_655
Be0 Ga1 2.330142 1_654
Be0 Be1 2.404962 1_545
Be0 Be2 2.404962 1_655
Be0 V1 2.613922 1_555
Be0 V0 2.616612 1_545
Be0 V0 2.616612 1_655
Be0 V2 2.635936 1_554
Be0 Mo0 2.641292 1_545
Be0 Mo0 2.641292 1_655
Be1 Be2 2.101554 1_555
Be1 Ga0 2.299768 1_665
Be1 Ga1 2.330142 1_664
Be1 Be2 2.404962 1_665
Be1 V1 2.613924 1_555
Be1 V0 2.616611 1_655
Be1 V0 2.616615 1_555
Be1 V2 2.635937 1_554
Be1 Mo0 2.641291 1_655
Be1 Mo0 2.641294 1_555
Be2 Ga0 2.299768 1_555
Be2 Ga1 2.330142 1_554
Be2 V1 2.613924 1_555
Be2 V0 2.616611 1_545
Be2 V0 2.616615 1_555
Be2 V2 2.635937 1_554
Be2 Mo0 2.641290 1_545
Be2 Mo0 2.641294 1_555
Be3 Be4 2.099175 1_555
Be3 Be5 2.099175 1_555
Be3 Ga0 2.281987 1_565
Be3 Ga1 2.310011 1_565
Be3 Be4 2.407341 1_565
Be3 Be5 2.407342 1_455
Be3 V0 2.613818 1_555
Be3 V1 2.616963 1_565
Be3 V1 2.616963 1_455
Be3 Mo0 2.636133 1_556
Be3 V2 2.641823 1_565
Be3 V2 2.641823 1_455
Be4 Be5 2.099174 1_555
Be4 Ga0 2.281991 1_555
Be4 Ga1 2.310015 1_555
Be4 Be5 2.407341 1_445
Be4 V0 2.613816 1_555
Be4 V1 2.616958 1_455
Be4 V1 2.616969 1_555
Be4 Mo0 2.636131 1_556
Be4 V2 2.641818 1_455
Be4 V2 2.641829 1_555
Be5 Ga0 2.281991 1_665
Be5 Ga1 2.310015 1_665
Be5 V0 2.613816 1_555
Be5 V1 2.616957 1_565
Be5 V1 2.616969 1_555
Be5 Mo0 2.636131 1_556
Be5 V2 2.641817 1_565
Be5 V2 2.641829 1_555
V0 V1 2.783081 1_565
V0 V1 2.783081 1_455
V0 V1 2.783088 1_555
V1 V2 2.704213 1_555
Ga0 V1 2.646098 1_455
Ga0 V1 2.646101 1_445
Ga0 V1 2.646101 1_555
Ga0 V0 2.650575 1_545
Ga0 V0 2.650579 1_555
Ga0 V0 2.650579 1_445
Ga1 V2 2.643737 1_455
Ga1 V2 2.643740 1_445
Ga1 V2 2.643740 1_555
Ga1 Mo0 2.648675 1_546
Ga1 Mo0 2.648678 1_556
Ga1 Mo0 2.648678 1_446
Mo0 V0 2.702683 1_555
Mo0 V2 2.774934 1_564
Mo0 V2 2.774935 1_454
Mo0 V2 2.774942 1_554
