# generated using pymatgen
data_Co2NiO4
_symmetry_space_group_name_H-M   'P 1'
_cell_length_a   5.79206259
_cell_length_b   5.79206259
_cell_length_c   5.79206259
_cell_angle_alpha   119.73983846
_cell_angle_beta   119.65165883
_cell_angle_gamma   90.52780841
_symmetry_Int_Tables_number   1
_chemical_formula_structural   Co2NiO4
_chemical_formula_sum   'Co4 Ni2 O8'
_cell_volume   138.02479321
_cell_formula_units_Z   2
loop_
 _symmetry_equiv_pos_site_id
 _symmetry_equiv_pos_as_xyz
  1  'x, y, z'
loop_
 _atom_site_type_symbol
 _atom_site_label
 _atom_site_symmetry_multiplicity
 _atom_site_fract_x
 _atom_site_fract_y
 _atom_site_fract_z
 _atom_site_occupancy
  Co  Co0  1  0.38298800  0.13298800  0.25000000  1
  Co  Co1  1  0.00000000  0.50000000  0.50000000  1
  Co  Co2  1  0.50000000  0.50000000  0.00000000  1
  Co  Co3  1  0.61701200  0.86701200  0.75000000  1
  Ni  Ni0  1  0.00000000  0.00000000  0.50000000  1
  Ni  Ni1  1  0.00000000  0.50000000  0.00000000  1
  O  O0  1  0.77547700  0.26469700  0.51077900  1
  O  O1  1  0.24983700  0.27568300  0.52584600  1
  O  O2  1  0.25391800  0.26469700  0.98922100  1
  O  O3  1  0.24983700  0.72399100  0.97415400  1
  O  O4  1  0.75016300  0.27600900  0.02584600  1
  O  O5  1  0.74608200  0.73530300  0.01077900  1
  O  O6  1  0.75016300  0.72431700  0.47415400  1
  O  O7  1  0.22452300  0.73530300  0.48922100  1
loop_
_geom_bond_atom_site_label_1
_geom_bond_atom_site_label_2
_geom_bond_distance
_geom_bond_site_symmetry_2
Co0 O2 1.859766 1_554
Co0 O0 1.859771 1_555
Co0 O1 1.936854 1_555
Co0 O3 1.936854 1_544
Co1 O0 1.919541 1_455
Co1 O7 1.919541 1_555
Co1 O1 1.953910 1_555
Co1 O3 1.953910 1_555
Co1 O6 1.953910 1_455
Co1 O4 1.953910 1_455
Co2 O5 1.919545 1_555
Co2 O2 1.919545 1_554
Co2 O4 1.953910 1_555
Co2 O6 1.953910 1_555
Co2 O3 1.953910 1_554
Co2 O1 1.953910 1_554
Co3 O5 1.859766 1_556
Co3 O7 1.859771 1_555
Co3 O4 1.936854 1_566
Co3 O6 1.936854 1_555
Ni0 O0 2.016853 1_455
Ni0 O7 2.016853 1_545
Ni0 O2 2.016857 1_555
Ni0 O5 2.016857 1_445
Ni0 O1 2.042557 1_555
Ni0 O6 2.042557 1_445
Ni1 O5 2.016857 1_455
Ni1 O2 2.016857 1_554
Ni1 O7 2.016857 1_555
Ni1 O0 2.016857 1_454
Ni1 O3 2.042557 1_554
Ni1 O4 2.042557 1_455
