# generated using pymatgen
data_SmZn12
_symmetry_space_group_name_H-M   'P 1'
_cell_length_a   5.07886935
_cell_length_b   6.74804105
_cell_length_c   6.74803941
_cell_angle_alpha   81.77158967
_cell_angle_beta   67.87687845
_cell_angle_gamma   67.87688142
_symmetry_Int_Tables_number   1
_chemical_formula_structural   SmZn12
_chemical_formula_sum   'Sm1 Zn12'
_cell_volume   198.47104603
_cell_formula_units_Z   1
loop_
 _symmetry_equiv_pos_site_id
 _symmetry_equiv_pos_as_xyz
  1  'x, y, z'
loop_
 _atom_site_type_symbol
 _atom_site_label
 _atom_site_symmetry_multiplicity
 _atom_site_fract_x
 _atom_site_fract_y
 _atom_site_fract_z
 _atom_site_occupancy
  Sm  Sm0  1  0.00000000  -0.00000000  -0.00000000  1
  Zn  Zn0  1  0.71969682  0.78080727  0.78080727  1
  Zn  Zn1  1  0.50000000  -0.00000000  0.50000000  1
  Zn  Zn2  1  0.00000000  0.50000000  -0.00000000  1
  Zn  Zn3  1  0.50000000  0.50000000  -0.00000000  1
  Zn  Zn4  1  0.00000000  -0.00000000  0.50000000  1
  Zn  Zn5  1  0.35695133  0.64461831  0.64461831  1
  Zn  Zn6  1  -0.00000000  0.35554230  0.64445770  1
  Zn  Zn7  1  0.00000000  0.64445770  0.35554230  1
  Zn  Zn8  1  0.64304867  0.35538169  0.35538169  1
  Zn  Zn9  1  0.28030318  0.21919273  0.21919273  1
  Zn  Zn10  1  0.50000000  0.78116036  0.21883964  1
  Zn  Zn11  1  0.50000000  0.21883964  0.78116036  1
loop_
_geom_bond_atom_site_label_1
_geom_bond_atom_site_label_2
_geom_bond_distance
_geom_bond_site_symmetry_2
Sm0 Zn6 3.140827 1_554
Sm0 Zn7 3.140827 1_545
Sm0 Zn5 3.144151 1_544
Sm0 Zn8 3.144151 1_455
Sm0 Zn11 3.191555 1_454
Sm0 Zn10 3.191555 1_545
Sm0 Zn10 3.191555 1_445
Sm0 Zn11 3.191555 1_554
Sm0 Zn0 3.193832 1_444
Sm0 Zn9 3.193832 1_555
Sm0 Zn0 3.196603 1_544
Sm0 Zn9 3.196603 1_455
Sm0 Zn1 3.373318 1_554
Sm0 Zn1 3.373318 1_455
Sm0 Zn3 3.373319 1_455
Sm0 Zn3 3.373319 1_545
Sm0 Zn4 3.374020 1_554
Sm0 Zn4 3.374020 1_555
Sm0 Zn2 3.374021 1_545
Sm0 Zn2 3.374021 1_555
Zn0 Zn4 2.560674 1_665
Zn0 Zn2 2.560674 1_656
Zn0 Zn1 2.563326 1_565
Zn0 Zn3 2.563326 1_556
Zn0 Zn10 2.738244 1_556
Zn0 Zn11 2.738245 1_565
Zn0 Zn7 2.792953 1_655
Zn0 Zn6 2.792954 1_655
Zn0 Zn5 2.806353 1_555
Zn0 Zn5 2.815214 1_655
Zn1 Zn4 2.539435 1_555
Zn1 Zn4 2.539435 1_655
Zn1 Zn9 2.563326 1_555
Zn1 Zn11 2.565622 1_555
Zn1 Zn10 2.565622 1_545
Zn1 Zn5 2.709172 1_545
Zn1 Zn8 2.709172 1_555
Zn1 Zn7 2.714993 1_645
Zn1 Zn6 2.714993 1_555
Zn2 Zn3 2.539435 1_555
Zn2 Zn3 2.539435 1_455
Zn2 Zn9 2.560674 1_555
Zn2 Zn7 2.715865 1_555
Zn2 Zn6 2.715865 1_554
Zn2 Zn8 2.716266 1_455
Zn2 Zn5 2.716266 1_554
Zn3 Zn9 2.563326 1_555
Zn3 Zn5 2.709172 1_554
Zn3 Zn8 2.709172 1_555
Zn3 Zn6 2.714993 1_654
Zn3 Zn7 2.714993 1_555
Zn4 Zn9 2.560674 1_555
Zn4 Zn6 2.715865 1_555
Zn4 Zn7 2.715865 1_545
Zn4 Zn8 2.716267 1_455
Zn4 Zn5 2.716267 1_545
Zn5 Zn8 2.559000 1_555
Zn6 Zn7 2.552251 1_555
Zn6 Zn9 2.792953 1_555
Zn7 Zn9 2.792954 1_555
Zn8 Zn9 2.806353 1_555
Zn8 Zn9 2.815214 1_655
Zn10 Zn4 2.564699 1_565
Zn10 Zn2 2.564699 1_655
Zn10 Zn3 2.565622 1_555
Zn10 Zn9 2.738245 1_565
Zn10 Zn5 2.793940 1_555
Zn10 Zn8 2.793941 1_555
Zn10 Zn7 2.811951 1_655
Zn10 Zn7 2.811951 1_555
Zn11 Zn4 2.564699 1_655
Zn11 Zn2 2.564699 1_556
Zn11 Zn3 2.565622 1_556
Zn11 Zn9 2.738244 1_556
Zn11 Zn8 2.793940 1_555
Zn11 Zn5 2.793941 1_555
Zn11 Zn6 2.811951 1_555
Zn11 Zn6 2.811951 1_655
