# generated using pymatgen
data_Co4Si2Mo6C
_symmetry_space_group_name_H-M   'P 1'
_cell_length_a   7.68111165
_cell_length_b   7.68111132
_cell_length_c   7.68111163
_cell_angle_alpha   59.99999441
_cell_angle_beta   59.99999584
_cell_angle_gamma   59.99999580
_symmetry_Int_Tables_number   1
_chemical_formula_structural   Co4Si2Mo6C
_chemical_formula_sum   'Co8 Si4 Mo12 C2'
_cell_volume   320.44770909
_cell_formula_units_Z   2
loop_
 _symmetry_equiv_pos_site_id
 _symmetry_equiv_pos_as_xyz
  1  'x, y, z'
loop_
 _atom_site_type_symbol
 _atom_site_label
 _atom_site_symmetry_multiplicity
 _atom_site_fract_x
 _atom_site_fract_y
 _atom_site_fract_z
 _atom_site_occupancy
  Co  Co0  1  0.41863808  0.41863808  0.74408775  1
  Co  Co1  1  0.41863808  0.74408775  0.41863808  1
  Co  Co2  1  0.74408775  0.41863808  0.41863808  1
  Co  Co3  1  0.41863808  0.41863808  0.41863808  1
  Co  Co4  1  0.83136192  0.83136192  0.50591225  1
  Co  Co5  1  0.83136192  0.50591225  0.83136192  1
  Co  Co6  1  0.50591225  0.83136192  0.83136192  1
  Co  Co7  1  0.83136192  0.83136192  0.83136192  1
  Si  Si0  1  0.62500000  0.62500000  0.12500000  1
  Si  Si1  1  0.62500000  0.12500000  0.62500000  1
  Si  Si2  1  0.12500000  0.62500000  0.62500000  1
  Si  Si3  1  0.62500000  0.62500000  0.62500000  1
  Mo  Mo0  1  0.05289530  0.05289530  0.44710470  1
  Mo  Mo1  1  0.44710470  0.05289530  0.44710470  1
  Mo  Mo2  1  0.05289530  0.44710470  0.44710470  1
  Mo  Mo3  1  0.44710470  0.44710470  0.05289530  1
  Mo  Mo4  1  0.05289530  0.44710470  0.05289530  1
  Mo  Mo5  1  0.44710470  0.05289530  0.05289530  1
  Mo  Mo6  1  0.19710470  0.19710470  0.80289530  1
  Mo  Mo7  1  0.80289530  0.19710470  0.80289530  1
  Mo  Mo8  1  0.19710470  0.80289530  0.80289530  1
  Mo  Mo9  1  0.80289530  0.80289530  0.19710470  1
  Mo  Mo10  1  0.19710470  0.80289530  0.19710470  1
  Mo  Mo11  1  0.80289530  0.19710470  0.19710470  1
  C  C0  1  0.25000000  0.25000000  0.25000000  1
  C  C1  1  0.00000000  0.00000000  0.00000000  1
loop_
_geom_bond_atom_site_label_1
_geom_bond_atom_site_label_2
_geom_bond_distance
_geom_bond_site_symmetry_2
Co0 Si3 2.339743 1_555
Co0 Si1 2.339756 1_555
Co0 Si2 2.339756 1_555
Co0 Co1 2.499815 1_555
Co0 Co2 2.499815 1_555
Co0 Co3 2.499815 1_555
Co0 Mo3 2.609030 1_556
Co0 Mo5 2.609039 1_556
Co0 Mo4 2.609039 1_556
Co0 Mo8 2.711689 1_555
Co0 Mo7 2.711689 1_555
Co0 Mo6 2.711702 1_555
Co1 Si3 2.339744 1_555
Co1 Si2 2.339756 1_555
Co1 Si0 2.339756 1_555
Co1 Co2 2.499815 1_555
Co1 Co3 2.499815 1_555
Co1 Mo1 2.609030 1_565
Co1 Mo5 2.609039 1_565
Co1 Mo0 2.609039 1_565
Co1 Mo9 2.711689 1_555
Co1 Mo8 2.711689 1_555
Co1 Mo10 2.711702 1_555
Co2 Si3 2.339743 1_555
Co2 Si1 2.339756 1_555
Co2 Si0 2.339756 1_555
Co2 Co3 2.499815 1_555
Co2 Mo2 2.609030 1_655
Co2 Mo0 2.609039 1_655
Co2 Mo4 2.609039 1_655
Co2 Mo9 2.711689 1_555
Co2 Mo7 2.711689 1_555
Co2 Mo11 2.711702 1_555
Co3 Si0 2.339748 1_555
Co3 Si1 2.339748 1_555
Co3 Si2 2.339748 1_555
Co3 Mo1 2.609045 1_555
Co3 Mo3 2.609045 1_555
Co3 Mo2 2.609045 1_555
Co3 Mo10 2.711695 1_555
Co3 Mo6 2.711695 1_555
Co3 Mo11 2.711695 1_555
Co4 Si3 2.339743 1_555
Co4 Si1 2.339756 1_565
Co4 Si2 2.339756 1_655
Co4 Co5 2.499815 1_555
Co4 Co6 2.499815 1_555
Co4 Co7 2.499815 1_555
Co4 Mo9 2.609030 1_555
Co4 Mo11 2.609039 1_565
Co4 Mo10 2.609039 1_655
Co4 Mo2 2.711689 1_655
Co4 Mo1 2.711689 1_565
Co4 Mo0 2.711702 1_665
Co5 Si3 2.339744 1_555
Co5 Si2 2.339756 1_655
Co5 Si0 2.339756 1_556
Co5 Co6 2.499815 1_555
Co5 Co7 2.499815 1_555
Co5 Mo7 2.609030 1_555
Co5 Mo11 2.609039 1_556
Co5 Mo6 2.609039 1_655
Co5 Mo3 2.711689 1_556
Co5 Mo2 2.711689 1_655
Co5 Mo4 2.711702 1_656
Co6 Si3 2.339743 1_555
Co6 Si1 2.339756 1_565
Co6 Si0 2.339756 1_556
Co6 Co7 2.499815 1_555
Co6 Mo8 2.609030 1_555
Co6 Mo6 2.609039 1_565
Co6 Mo10 2.609039 1_556
Co6 Mo3 2.711689 1_556
Co6 Mo1 2.711689 1_565
Co6 Mo5 2.711702 1_566
Co7 Si0 2.339748 1_556
Co7 Si1 2.339748 1_565
Co7 Si2 2.339748 1_655
Co7 Mo7 2.609045 1_565
Co7 Mo9 2.609045 1_556
Co7 Mo8 2.609045 1_655
Co7 Mo4 2.711695 1_656
Co7 Mo0 2.711695 1_665
Co7 Mo5 2.711695 1_566
Mo0 Si2 2.724288 1_545
Mo0 Si1 2.724289 1_455
Mo1 Si3 2.724288 1_545
Mo1 Si1 2.724289 1_555
Mo2 Si3 2.724289 1_455
Mo2 Si2 2.724289 1_555
Mo3 Si3 2.724289 1_554
Mo3 Si0 2.724289 1_555
Mo4 Si2 2.724289 1_554
Mo4 Si0 2.724289 1_455
Mo5 Si0 2.724288 1_545
Mo5 Si1 2.724289 1_554
Mo6 Si2 2.724288 1_555
Mo6 Si1 2.724289 1_555
Mo7 Si3 2.724288 1_555
Mo7 Si1 2.724289 1_555
Mo8 Si3 2.724289 1_555
Mo8 Si2 2.724289 1_555
Mo9 Si3 2.724289 1_555
Mo9 Si0 2.724289 1_555
Mo10 Si2 2.724289 1_555
Mo10 Si0 2.724289 1_555
Mo11 Si0 2.724288 1_555
Mo11 Si1 2.724289 1_555
C0 Mo3 2.141095 1_555
C0 Mo0 2.141095 1_555
C0 Mo2 2.141095 1_555
C0 Mo1 2.141095 1_555
C0 Mo5 2.141095 1_555
C0 Mo4 2.141095 1_555
C1 Mo6 2.141095 1_554
C1 Mo9 2.141095 1_445
C1 Mo11 2.141095 1_455
C1 Mo10 2.141095 1_545
C1 Mo8 2.141095 1_544
C1 Mo7 2.141095 1_454
