# generated using pymatgen
data_Ca3Ag3Sn2Pb
_symmetry_space_group_name_H-M   'P 1'
_cell_length_a   4.83894207
_cell_length_b   4.83894236
_cell_length_c   11.10790751
_cell_angle_alpha   90.00000000
_cell_angle_beta   90.00000000
_cell_angle_gamma   119.99999800
_symmetry_Int_Tables_number   1
_chemical_formula_structural   Ca3Ag3Sn2Pb
_chemical_formula_sum   'Ca3 Ag3 Sn2 Pb1'
_cell_volume   225.24946440
_cell_formula_units_Z   1
loop_
 _symmetry_equiv_pos_site_id
 _symmetry_equiv_pos_as_xyz
  1  'x, y, z'
loop_
 _atom_site_type_symbol
 _atom_site_label
 _atom_site_symmetry_multiplicity
 _atom_site_fract_x
 _atom_site_fract_y
 _atom_site_fract_z
 _atom_site_occupancy
  Ca  Ca0  1  0.66666700  0.33333300  0.83067234  1
  Ca  Ca1  1  0.66666700  0.33333300  0.50081575  1
  Ca  Ca2  1  0.66666700  0.33333300  0.16501150  1
  Ag  Ag0  1  0.33333300  0.66666700  0.99286817  1
  Ag  Ag1  1  0.00000000  0.00000000  0.68346232  1
  Ag  Ag2  1  0.00000000  0.00000000  0.29582907  1
  Sn  Sn0  1  0.33333300  0.66666700  0.64867310  1
  Sn  Sn1  1  0.00000000  0.00000000  0.00643588  1
  Pb  Pb0  1  0.33333300  0.66666700  0.35413286  1
loop_
_geom_bond_atom_site_label_1
_geom_bond_atom_site_label_2
_geom_bond_distance
_geom_bond_site_symmetry_2
Ca0 Sn1 3.408348 1_656
Ca0 Sn1 3.408351 1_556
Ca0 Sn1 3.408351 1_666
Ca0 Sn0 3.448492 1_655
Ca0 Sn0 3.448492 1_545
Ca0 Sn0 3.448499 1_555
Ca1 Pb0 3.234170 1_655
Ca1 Pb0 3.234170 1_545
Ca1 Pb0 3.234177 1_555
Ca1 Sn0 3.240762 1_655
Ca1 Sn0 3.240762 1_545
Ca1 Sn0 3.240769 1_555
Ca2 Sn1 3.302694 1_655
Ca2 Sn1 3.302697 1_555
Ca2 Sn1 3.302698 1_665
Ca2 Pb0 3.495458 1_655
Ca2 Pb0 3.495458 1_545
Ca2 Pb0 3.495464 1_555
Ag0 Sn1 2.797824 1_566
Ag0 Sn1 2.797828 1_666
Ag0 Sn1 2.797828 1_556
Ag0 Ca0 3.324315 1_455
Ag0 Ca0 3.324315 1_565
Ag0 Ca0 3.324322 1_555
Ag0 Ca2 3.385473 1_456
Ag0 Ca2 3.385474 1_566
Ag0 Ca2 3.385480 1_556
Ag1 Sn0 2.820361 1_545
Ag1 Sn0 2.820365 1_445
Ag1 Sn0 2.820365 1_555
Ag1 Ca0 3.237123 1_455
Ag1 Ca0 3.237127 1_555
Ag1 Ca0 3.237127 1_445
Ag1 Ca1 3.452712 1_455
Ag1 Ca1 3.452715 1_555
Ag1 Ca1 3.452716 1_445
Ag2 Pb0 2.867845 1_545
Ag2 Pb0 2.867849 1_445
Ag2 Pb0 2.867849 1_555
Ag2 Ca2 3.149068 1_455
Ag2 Ca2 3.149072 1_555
Ag2 Ca2 3.149072 1_445
Ag2 Sn1 3.214553 1_555
Ag2 Ca1 3.604124 1_455
Ag2 Ca1 3.604127 1_555
Ag2 Ca1 3.604128 1_445
Pb0 Sn0 3.271726 1_555
