# generated using pymatgen
data_Cs12CdHgSe8
_symmetry_space_group_name_H-M   'P 1'
_cell_length_a   11.20667339
_cell_length_b   11.20667309
_cell_length_c   8.70566671
_cell_angle_alpha   90.00000000
_cell_angle_beta   90.00000000
_cell_angle_gamma   120.00000089
_symmetry_Int_Tables_number   1
_chemical_formula_structural   Cs12CdHgSe8
_chemical_formula_sum   'Cs12 Cd1 Hg1 Se8'
_cell_volume   946.86068084
_cell_formula_units_Z   1
loop_
 _symmetry_equiv_pos_site_id
 _symmetry_equiv_pos_as_xyz
  1  'x, y, z'
loop_
 _atom_site_type_symbol
 _atom_site_label
 _atom_site_symmetry_multiplicity
 _atom_site_fract_x
 _atom_site_fract_y
 _atom_site_fract_z
 _atom_site_occupancy
  Cs  Cs0  1  0.14794333  0.85205667  0.54594460  1
  Cs  Cs1  1  0.29626657  0.14813279  0.04456286  1
  Cs  Cs2  1  0.85186721  0.70373343  0.04456286  1
  Cs  Cs3  1  0.14794333  0.29588766  0.54594460  1
  Cs  Cs4  1  0.70411234  0.85205667  0.54594460  1
  Cs  Cs5  1  0.85186721  0.14813279  0.04456286  1
  Cs  Cs6  1  0.52734277  0.47265723  0.36485221  1
  Cs  Cs7  1  0.05702576  0.52851238  0.86698178  1
  Cs  Cs8  1  0.47148762  0.94297424  0.86698178  1
  Cs  Cs9  1  0.52734277  0.05468653  0.36485221  1
  Cs  Cs10  1  0.94531347  0.47265723  0.36485221  1
  Cs  Cs11  1  0.47148762  0.52851238  0.86698178  1
  Cd  Cd0  1  0.66666700  0.33333300  0.74867483  1
  Hg  Hg0  1  0.33333300  0.66666700  0.24872920  1
  Se  Se0  1  0.33333300  0.66666700  0.56948793  1
  Se  Se1  1  0.66666700  0.33333300  0.06466309  1
  Se  Se2  1  0.19731978  0.80268022  0.15342747  1
  Se  Se3  1  0.39768812  0.19884456  0.65351407  1
  Se  Se4  1  0.80115544  0.60231188  0.65351407  1
  Se  Se5  1  0.19731978  0.39464056  0.15342747  1
  Se  Se6  1  0.60535944  0.80268022  0.15342747  1
  Se  Se7  1  0.80115544  0.19884456  0.65351407  1
loop_
_geom_bond_atom_site_label_1
_geom_bond_atom_site_label_2
_geom_bond_distance
_geom_bond_site_symmetry_2
Cs0 Se2 3.548987 1_555
Cs0 Se3 3.596777 1_565
Cs0 Se4 3.596777 1_455
Cs0 Se0 3.604343 1_555
Cs1 Se3 3.543787 1_554
Cs1 Se2 3.580851 1_545
Cs1 Se5 3.580872 1_555
Cs1 Se1 3.599090 1_555
Cs2 Se4 3.543787 1_554
Cs2 Se2 3.580852 1_655
Cs2 Se6 3.580872 1_555
Cs2 Se1 3.599090 1_555
Cs3 Se5 3.548987 1_555
Cs3 Se3 3.596777 1_555
Cs3 Se7 3.596777 1_455
Cs3 Se0 3.604343 1_555
Cs4 Se6 3.548987 1_555
Cs4 Se7 3.596777 1_565
Cs4 Se4 3.596777 1_555
Cs4 Se0 3.604343 1_555
Cs5 Se7 3.543792 1_554
Cs5 Se6 3.580857 1_545
Cs5 Se5 3.580857 1_655
Cs5 Se1 3.599090 1_555
Cs6 Se3 3.658367 1_555
Cs6 Se4 3.658367 1_555
Cs6 Se1 3.760735 1_555
Cs6 Se6 3.820630 1_555
Cs6 Se5 3.820630 1_555
Cs7 Se5 3.646912 1_556
Cs7 Se2 3.646926 1_556
Cs7 Se0 3.728090 1_555
Cs7 Se7 3.838137 1_455
Cs7 Se4 3.838150 1_455
Cs8 Se6 3.646912 1_556
Cs8 Se2 3.646927 1_556
Cs8 Se0 3.728090 1_555
Cs8 Se7 3.838137 1_565
Cs8 Se3 3.838150 1_565
Cs9 Se3 3.658367 1_555
Cs9 Se7 3.658367 1_555
Cs9 Se1 3.760721 1_555
Cs9 Se2 3.820630 1_545
Cs9 Se6 3.820630 1_545
Cs10 Se7 3.658367 1_555
Cs10 Se4 3.658367 1_555
Cs10 Se1 3.760721 1_555
Cs10 Se2 3.820630 1_655
Cs10 Se5 3.820630 1_655
Cs11 Se6 3.646927 1_556
Cs11 Se5 3.646927 1_556
Cs11 Se0 3.728104 1_555
Cs11 Se3 3.838131 1_555
Cs11 Se4 3.838131 1_555
Cd0 Se7 2.738791 1_555
Cd0 Se4 2.738809 1_555
Cd0 Se3 2.738809 1_555
Cd0 Se1 2.750888 1_556
Hg0 Se5 2.767383 1_555
Hg0 Se6 2.767383 1_555
Hg0 Se2 2.767383 1_555
Hg0 Se0 2.792419 1_555
