# generated using pymatgen
data_Na16ZrSiP8
_symmetry_space_group_name_H-M   'P 1'
_cell_length_a   9.49905461
_cell_length_b   9.49905405
_cell_length_c   9.49905489
_cell_angle_alpha   60.00000046
_cell_angle_beta   60.00000243
_cell_angle_gamma   59.99999769
_symmetry_Int_Tables_number   1
_chemical_formula_structural   Na16ZrSiP8
_chemical_formula_sum   'Na16 Zr1 Si1 P8'
_cell_volume   606.07468516
_cell_formula_units_Z   1
loop_
 _symmetry_equiv_pos_site_id
 _symmetry_equiv_pos_as_xyz
  1  'x, y, z'
loop_
 _atom_site_type_symbol
 _atom_site_label
 _atom_site_symmetry_multiplicity
 _atom_site_fract_x
 _atom_site_fract_y
 _atom_site_fract_z
 _atom_site_occupancy
  Na  Na0  1  0.62964159  0.62964159  0.11107523  1
  Na  Na1  1  0.62964159  0.11107523  0.62964159  1
  Na  Na2  1  0.11107523  0.62964159  0.62964159  1
  Na  Na3  1  0.62964159  0.62964159  0.62964159  1
  Na  Na4  1  0.03068508  0.46931492  0.46931492  1
  Na  Na5  1  0.77460738  0.22539262  0.22539262  1
  Na  Na6  1  0.46931492  0.03068508  0.46931492  1
  Na  Na7  1  0.46931492  0.46931492  0.03068508  1
  Na  Na8  1  0.03068508  0.03068508  0.46931492  1
  Na  Na9  1  0.03068508  0.46931492  0.03068508  1
  Na  Na10  1  0.46931492  0.03068508  0.03068508  1
  Na  Na11  1  0.77460738  0.22539262  0.77460738  1
  Na  Na12  1  0.22539262  0.77460738  0.22539262  1
  Na  Na13  1  0.22539262  0.22539262  0.77460738  1
  Na  Na14  1  0.77460738  0.77460738  0.22539262  1
  Na  Na15  1  0.22539262  0.77460738  0.77460738  1
  Zr  Zr0  1  0.50000000  0.50000000  0.50000000  1
  Si  Si0  1  0.75000000  0.75000000  0.75000000  1
  P  P0  1  0.85032135  0.85032135  0.44903696  1
  P  P1  1  0.85032135  0.44903696  0.85032135  1
  P  P2  1  0.39181788  0.39181788  0.82454437  1
  P  P3  1  0.39181788  0.82454437  0.39181788  1
  P  P4  1  0.82454437  0.39181788  0.39181788  1
  P  P5  1  0.85032135  0.85032135  0.85032135  1
  P  P6  1  0.44903696  0.85032135  0.85032135  1
  P  P7  1  0.39181788  0.39181788  0.39181788  1
loop_
_geom_bond_atom_site_label_1
_geom_bond_atom_site_label_2
_geom_bond_distance
_geom_bond_site_symmetry_2
Na0 Si0 2.800480 1_554
Na0 P6 2.988878 1_554
Na0 P1 2.988878 1_554
Na0 P5 2.988884 1_554
Na0 Zr0 3.016480 1_555
Na0 P4 3.220746 1_555
Na0 P3 3.220746 1_555
Na0 P7 3.220758 1_555
Na1 Si0 2.800480 1_545
Na1 P0 2.988878 1_545
Na1 P6 2.988878 1_545
Na1 P5 2.988884 1_545
Na1 Zr0 3.016479 1_555
Na1 P2 3.220745 1_555
Na1 P4 3.220746 1_555
Na1 P7 3.220758 1_555
Na2 Si0 2.800480 1_455
Na2 P0 2.988878 1_455
Na2 P1 2.988878 1_455
Na2 P5 2.988884 1_455
Na2 Zr0 3.016479 1_555
Na2 P2 3.220746 1_555
Na2 P3 3.220746 1_555
Na2 P7 3.220758 1_555
Na3 Si0 2.800480 1_555
Na3 P6 2.988885 1_555
Na3 P1 2.988885 1_555
Na3 P0 2.988885 1_555
Na3 Zr0 3.016479 1_555
Na3 P4 3.220760 1_555
Na3 P3 3.220760 1_555
Na3 P2 3.220760 1_555
Na4 P7 2.888413 1_555
Na4 P4 2.888431 1_455
Na4 P0 3.082729 1_455
Na4 P1 3.082730 1_455
Na5 P0 3.020044 1_545
Na5 P1 3.020045 1_554
Na5 P4 3.036837 1_555
Na5 P7 3.036850 1_555
Na6 P7 2.888413 1_555
Na6 P3 2.888430 1_545
Na6 P0 3.082729 1_545
Na6 P6 3.082729 1_545
Na7 P7 2.888413 1_555
Na7 P2 2.888431 1_554
Na7 P6 3.082729 1_554
Na7 P1 3.082729 1_554
Na8 P4 2.888417 1_455
Na8 P3 2.888417 1_545
Na8 P0 3.082721 1_445
Na8 P5 3.082727 1_445
Na9 P2 2.888417 1_554
Na9 P4 2.888417 1_455
Na9 P1 3.082721 1_454
Na9 P5 3.082727 1_454
Na10 P2 2.888417 1_554
Na10 P3 2.888417 1_545
Na10 P6 3.082721 1_544
Na10 P5 3.082727 1_544
Na11 P5 3.020042 1_545
Na11 P1 3.020051 1_555
Na11 P2 3.036853 1_555
Na11 P4 3.036853 1_555
Na12 P0 3.020044 1_455
Na12 P6 3.020045 1_554
Na12 P3 3.036837 1_555
Na12 P7 3.036849 1_555
Na13 P6 3.020044 1_545
Na13 P1 3.020044 1_455
Na13 P2 3.036837 1_555
Na13 P7 3.036850 1_555
Na14 P5 3.020042 1_554
Na14 P0 3.020051 1_555
Na14 P4 3.036853 1_555
Na14 P3 3.036853 1_555
Na15 P5 3.020042 1_455
Na15 P6 3.020051 1_555
Na15 P2 3.036853 1_555
Na15 P3 3.036853 1_555
P0 Si0 2.334253 1_555
P1 Si0 2.334253 1_555
P2 Zr0 2.517149 1_555
P3 Zr0 2.517148 1_555
P4 Zr0 2.517149 1_555
P5 Si0 2.334261 1_555
P6 Si0 2.334253 1_555
P7 Zr0 2.517164 1_555
