# generated using pymatgen
data_Zr2B(Ir2Ru)2
_symmetry_space_group_name_H-M   'P 1'
_cell_length_a   5.70200304
_cell_length_b   5.69570734
_cell_length_c   5.69570559
_cell_angle_alpha   60.15792669
_cell_angle_beta   59.96342129
_cell_angle_gamma   59.96341761
_symmetry_Int_Tables_number   1
_chemical_formula_structural   Zr2B(Ir2Ru)2
_chemical_formula_sum   'Zr2 B1 Ir4 Ru2'
_cell_volume   130.88274160
_cell_formula_units_Z   1
loop_
 _symmetry_equiv_pos_site_id
 _symmetry_equiv_pos_as_xyz
  1  'x, y, z'
loop_
 _atom_site_type_symbol
 _atom_site_label
 _atom_site_symmetry_multiplicity
 _atom_site_fract_x
 _atom_site_fract_y
 _atom_site_fract_z
 _atom_site_occupancy
  Zr  Zr0  1  0.75014885  0.75010737  0.74959594  1
  Zr  Zr1  1  0.24985115  0.25040406  0.24989263  1
  B  B0  1  0.00000000  0.99540487  0.00459513  1
  Ir  Ir0  1  0.74147667  0.25915816  0.25788850  1
  Ir  Ir1  1  0.25777658  0.25846613  0.74153387  1
  Ir  Ir2  1  0.74222342  0.25846613  0.74153387  1
  Ir  Ir3  1  0.25852333  0.74211150  0.74084184  1
  Ru  Ru0  1  0.74169772  0.74293989  0.25706011  1
  Ru  Ru1  1  0.25830228  0.74293989  0.25706011  1
loop_
_geom_bond_atom_site_label_1
_geom_bond_atom_site_label_2
_geom_bond_distance
_geom_bond_site_symmetry_2
B0 Ru1 2.060797 1_555
B0 Ru0 2.060798 1_455
B0 Ir3 2.078963 1_554
B0 Ir0 2.078963 1_465
B0 Ir2 2.101458 1_464
B0 Ir1 2.101458 1_564
Ir0 Zr1 2.851795 1_655
Ir0 Zr1 2.851800 1_555
Ir0 Zr0 2.853336 1_554
Ir0 Zr0 2.857664 1_545
Ir1 Zr0 2.846442 1_455
Ir1 Zr1 2.846445 1_555
Ir1 Zr1 2.850721 1_556
Ir1 Zr0 2.850725 1_545
Ir2 Zr1 2.846442 1_655
Ir2 Zr0 2.846446 1_555
Ir2 Zr0 2.850722 1_545
Ir2 Zr1 2.850724 1_556
Ir3 Zr0 2.851795 1_455
Ir3 Zr0 2.851800 1_555
Ir3 Zr1 2.853336 1_565
Ir3 Zr1 2.857664 1_556
Ru0 Zr0 2.846631 1_554
Ru0 Zr1 2.846634 1_565
Ru0 Zr1 2.850471 1_655
Ru0 Zr0 2.850473 1_555
Ru1 Zr1 2.846632 1_565
Ru1 Zr0 2.846634 1_554
Ru1 Zr0 2.850470 1_455
Ru1 Zr1 2.850474 1_555
