# generated using pymatgen
data_Y4MgBiRu2
_symmetry_space_group_name_H-M   'P 1'
_cell_length_a   9.27776538
_cell_length_b   9.27776600
_cell_length_c   9.27776670
_cell_angle_alpha   134.03731532
_cell_angle_beta   134.03732265
_cell_angle_gamma   67.02972536
_symmetry_Int_Tables_number   1
_chemical_formula_structural   Y4MgBiRu2
_chemical_formula_sum   'Y8 Mg2 Bi2 Ru4'
_cell_volume   405.98646640
_cell_formula_units_Z   2
loop_
 _symmetry_equiv_pos_site_id
 _symmetry_equiv_pos_as_xyz
  1  'x, y, z'
loop_
 _atom_site_type_symbol
 _atom_site_label
 _atom_site_symmetry_multiplicity
 _atom_site_fract_x
 _atom_site_fract_y
 _atom_site_fract_z
 _atom_site_occupancy
  Y  Y0  1  0.80183049  0.30183049  0.85270961  1
  Y  Y1  1  0.19816951  0.69816951  0.14729039  1
  Y  Y2  1  0.44912187  0.94912187  0.14729039  1
  Y  Y3  1  0.30183049  0.44912187  0.50000000  1
  Y  Y4  1  0.05087813  0.19816951  0.50000000  1
  Y  Y5  1  0.55087813  0.05087813  0.85270961  1
  Y  Y6  1  0.69816951  0.55087813  0.50000000  1
  Y  Y7  1  0.94912187  0.80183049  0.50000000  1
  Mg  Mg0  1  0.00000000  0.00000000  0.00000000  1
  Mg  Mg1  1  0.50000000  0.50000000  0.00000000  1
  Bi  Bi0  1  0.25000000  0.25000000  0.00000000  1
  Bi  Bi1  1  0.75000000  0.75000000  0.00000000  1
  Ru  Ru0  1  0.12694702  0.62694702  0.75389404  1
  Ru  Ru1  1  0.87305298  0.37305298  0.24610596  1
  Ru  Ru2  1  0.62694702  0.87305298  0.50000000  1
  Ru  Ru3  1  0.37305298  0.12694702  0.50000000  1
loop_
_geom_bond_atom_site_label_1
_geom_bond_atom_site_label_2
_geom_bond_distance
_geom_bond_site_symmetry_2
Mg0 Ru2 2.854838 1_444
Mg0 Ru3 2.854838 1_555
Mg0 Ru1 2.854839 1_455
Mg0 Ru0 2.854839 1_544
Mg1 Ru1 2.854838 1_555
Mg1 Ru0 2.854838 1_554
Mg1 Ru2 2.854839 1_555
Mg1 Ru3 2.854839 1_554
Bi0 Y2 3.292588 1_545
Bi0 Y5 3.292588 1_554
Bi0 Y6 3.292594 1_555
Bi0 Y7 3.292594 1_444
Bi0 Y4 3.292594 1_554
Bi0 Y3 3.292595 1_555
Bi0 Y0 3.292597 1_454
Bi0 Y1 3.292598 1_555
Bi1 Y5 3.292588 1_564
Bi1 Y2 3.292588 1_555
Bi1 Y3 3.292594 1_554
Bi1 Y4 3.292594 1_665
Bi1 Y7 3.292594 1_555
Bi1 Y6 3.292595 1_554
Bi1 Y1 3.292597 1_655
Bi1 Y0 3.292598 1_554
Ru0 Ru1 2.601271 1_455
Ru0 Y1 2.798121 1_556
Ru0 Y2 2.798132 1_556
Ru0 Y6 2.953728 1_455
Ru0 Y7 2.953728 1_455
Ru0 Y4 2.953728 1_555
Ru0 Y3 2.953728 1_555
Ru1 Y0 2.798121 1_554
Ru1 Y5 2.798132 1_554
Ru1 Y3 2.953728 1_655
Ru1 Y4 2.953728 1_655
Ru1 Y7 2.953728 1_555
Ru1 Y6 2.953728 1_555
Ru2 Ru3 2.601271 1_565
Ru2 Y7 2.798130 1_555
Ru2 Y6 2.798130 1_555
Ru2 Y1 2.953726 1_555
Ru2 Y0 2.953726 1_565
Ru2 Y2 2.953737 1_555
Ru2 Y5 2.953737 1_565
Ru3 Y4 2.798130 1_555
Ru3 Y3 2.798130 1_555
Ru3 Y0 2.953726 1_555
Ru3 Y1 2.953726 1_545
Ru3 Y5 2.953737 1_555
Ru3 Y2 2.953737 1_545
