# generated using pymatgen
data_Ca2CdIn2Ag
_symmetry_space_group_name_H-M   'P 1'
_cell_length_a   6.10884401
_cell_length_b   6.10884404
_cell_length_c   7.53640697
_cell_angle_alpha   52.80181081
_cell_angle_beta   52.80180761
_cell_angle_gamma   46.83799341
_symmetry_Int_Tables_number   1
_chemical_formula_structural   Ca2CdIn2Ag
_chemical_formula_sum   'Ca2 Cd1 In2 Ag1'
_cell_volume   154.32589146
_cell_formula_units_Z   1
loop_
 _symmetry_equiv_pos_site_id
 _symmetry_equiv_pos_as_xyz
  1  'x, y, z'
loop_
 _atom_site_type_symbol
 _atom_site_label
 _atom_site_symmetry_multiplicity
 _atom_site_fract_x
 _atom_site_fract_y
 _atom_site_fract_z
 _atom_site_occupancy
  Ca  Ca0  1  0.53938412  0.53938412  0.70937553  1
  Ca  Ca1  1  0.46016817  0.46016817  0.28981271  1
  Cd  Cd0  1  0.16316926  0.16316926  0.88424283  1
  In  In0  1  0.84242656  0.84242656  0.70245976  1
  In  In1  1  0.82979881  0.82979881  0.11813883  1
  Ag  Ag0  1  0.16505509  0.16505509  0.29597233  1
loop_
_geom_bond_atom_site_label_1
_geom_bond_atom_site_label_2
_geom_bond_distance
_geom_bond_site_symmetry_2
Ca0 In0 3.305342 1_455
Ca0 In0 3.305342 1_545
Ca0 In0 3.363368 1_555
Ca0 In1 3.367252 1_555
Ca0 In1 3.371668 1_456
Ca0 In1 3.371668 1_546
Ca0 Cd0 3.459443 1_565
Ca0 Cd0 3.459443 1_655
Ca0 Cd0 3.493193 1_555
Ca1 Cd0 3.354223 1_654
Ca1 Cd0 3.354223 1_564
Ca1 Cd0 3.391249 1_555
Ca1 In1 3.432477 1_555
Ca1 In0 3.449573 1_455
Ca1 In0 3.449573 1_545
Ca1 In1 3.492428 1_545
Ca1 In1 3.492429 1_455
Ca1 In0 3.600468 1_554
Cd0 In0 2.860566 1_545
Cd0 In0 2.860566 1_455
Cd0 In1 2.897383 1_446
In0 In1 3.041317 1_556
Ag0 In1 2.800144 1_545
Ag0 In1 2.800144 1_455
Ag0 In0 2.804799 1_445
Ag0 Cd0 3.116931 1_554
Ag0 Ca1 3.278182 1_555
Ag0 Ca1 3.363642 1_455
Ag0 Ca1 3.363642 1_545
Ag0 Ca0 3.435514 1_455
Ag0 Ca0 3.435514 1_545
Ag0 Ca0 3.564959 1_554
