# generated using pymatgen
data_Zr10Be2(InBi)3
_symmetry_space_group_name_H-M   'P 1'
_cell_length_a   8.68759177
_cell_length_b   8.68759220
_cell_length_c   5.88118301
_cell_angle_alpha   90.00000000
_cell_angle_beta   90.00000000
_cell_angle_gamma   120.00000211
_symmetry_Int_Tables_number   1
_chemical_formula_structural   Zr10Be2(InBi)3
_chemical_formula_sum   'Zr10 Be2 In3 Bi3'
_cell_volume   384.40953225
_cell_formula_units_Z   1
loop_
 _symmetry_equiv_pos_site_id
 _symmetry_equiv_pos_as_xyz
  1  'x, y, z'
loop_
 _atom_site_type_symbol
 _atom_site_label
 _atom_site_symmetry_multiplicity
 _atom_site_fract_x
 _atom_site_fract_y
 _atom_site_fract_z
 _atom_site_occupancy
  Zr  Zr0  1  0.73858049  0.00000000  0.25000000  1
  Zr  Zr1  1  0.00000000  0.73858049  0.25000000  1
  Zr  Zr2  1  0.26141951  0.26141951  0.25000000  1
  Zr  Zr3  1  0.23261995  0.00000000  0.75000000  1
  Zr  Zr4  1  0.00000000  0.23261995  0.75000000  1
  Zr  Zr5  1  0.76738005  0.76738005  0.75000000  1
  Zr  Zr6  1  0.33333300  0.66666700  0.49241455  1
  Zr  Zr7  1  0.66666700  0.33333300  0.49241455  1
  Zr  Zr8  1  0.66666700  0.33333300  0.00758545  1
  Zr  Zr9  1  0.33333300  0.66666700  0.00758545  1
  Be  Be0  1  0.00000000  0.00000000  0.45711274  1
  Be  Be1  1  0.00000000  0.00000000  0.04288726  1
  In  In0  1  0.38174533  0.00000000  0.25000000  1
  In  In1  1  0.00000000  0.38174533  0.25000000  1
  In  In2  1  0.61825467  0.61825467  0.25000000  1
  Bi  Bi0  1  0.60166683  0.00000000  0.75000000  1
  Bi  Bi1  1  0.00000000  0.60166683  0.75000000  1
  Bi  Bi2  1  0.39833317  0.39833317  0.75000000  1
loop_
_geom_bond_atom_site_label_1
_geom_bond_atom_site_label_2
_geom_bond_distance
_geom_bond_site_symmetry_2
Zr6 Zr9 2.851369 1_555
Zr6 Zr9 3.029814 1_556
Zr7 Zr8 2.851369 1_555
Zr7 Zr8 3.029814 1_556
Be0 Be1 2.436136 1_555
Be0 Zr2 2.577132 1_555
Be0 Zr0 2.577133 1_455
Be0 Zr1 2.577133 1_545
Be0 Zr5 2.655401 1_445
Be0 Zr3 2.655401 1_555
Be0 Zr4 2.655401 1_555
Be1 Zr2 2.577132 1_555
Be1 Zr0 2.577133 1_455
Be1 Zr1 2.577133 1_545
Be1 Zr5 2.655401 1_444
Be1 Zr3 2.655401 1_554
Be1 Zr4 2.655401 1_554
In0 Zr1 2.936791 1_545
In0 Zr2 2.936791 1_555
In0 Zr6 3.062274 1_545
In0 Zr9 3.062274 1_545
In0 Zr7 3.062277 1_555
In0 Zr8 3.062277 1_555
In0 Zr0 3.100038 1_555
In0 Zr3 3.213332 1_554
In0 Zr3 3.213332 1_555
In1 Zr0 2.936791 1_455
In1 Zr2 2.936791 1_555
In1 Zr7 3.062274 1_455
In1 Zr8 3.062274 1_455
In1 Zr6 3.062277 1_555
In1 Zr9 3.062277 1_555
In1 Zr1 3.100038 1_555
In1 Zr4 3.213332 1_555
In1 Zr4 3.213332 1_554
In2 Zr1 2.936791 1_655
In2 Zr0 2.936791 1_565
In2 Zr6 3.062281 1_555
In2 Zr9 3.062281 1_555
In2 Zr8 3.062281 1_555
In2 Zr7 3.062281 1_555
In2 Zr2 3.100038 1_555
In2 Zr5 3.213332 1_555
In2 Zr5 3.213332 1_554
Bi0 Zr4 3.010988 1_655
Bi0 Zr5 3.010988 1_545
Bi0 Zr7 3.060156 1_555
Bi0 Zr8 3.060156 1_556
Bi0 Zr6 3.060159 1_545
Bi0 Zr9 3.060159 1_546
Bi0 Zr0 3.172045 1_555
Bi0 Zr0 3.172045 1_556
Bi0 Zr3 3.206129 1_555
Bi1 Zr3 3.010988 1_565
Bi1 Zr5 3.010988 1_455
Bi1 Zr6 3.060156 1_555
Bi1 Zr9 3.060156 1_556
Bi1 Zr8 3.060159 1_456
Bi1 Zr7 3.060159 1_455
Bi1 Zr1 3.172045 1_555
Bi1 Zr1 3.172045 1_556
Bi1 Zr4 3.206129 1_555
Bi2 Zr4 3.010988 1_555
Bi2 Zr3 3.010988 1_555
Bi2 Zr7 3.060164 1_555
Bi2 Zr8 3.060164 1_556
Bi2 Zr9 3.060164 1_556
Bi2 Zr6 3.060164 1_555
Bi2 Zr2 3.172045 1_555
Bi2 Zr2 3.172045 1_556
Bi2 Zr5 3.206129 1_555
