# generated using pymatgen
data_Zr10Ga5SbS
_symmetry_space_group_name_H-M   'P 1'
_cell_length_a   8.24601828
_cell_length_b   8.22711506
_cell_length_c   5.78228965
_cell_angle_alpha   90.09365817
_cell_angle_beta   89.95327983
_cell_angle_gamma   119.92419971
_symmetry_Int_Tables_number   1
_chemical_formula_structural   Zr10Ga5SbS
_chemical_formula_sum   'Zr10 Ga5 Sb1 S1'
_cell_volume   339.97968920
_cell_formula_units_Z   1
loop_
 _symmetry_equiv_pos_site_id
 _symmetry_equiv_pos_as_xyz
  1  'x, y, z'
loop_
 _atom_site_type_symbol
 _atom_site_label
 _atom_site_symmetry_multiplicity
 _atom_site_fract_x
 _atom_site_fract_y
 _atom_site_fract_z
 _atom_site_occupancy
  Zr  Zr0  1  0.00000000  0.75538920  0.23579279  1
  Zr  Zr1  1  0.25757474  0.24909932  0.24236772  1
  Zr  Zr2  1  0.74242526  0.99152457  0.24236772  1
  Zr  Zr3  1  1.00000000  0.25266827  0.75534717  1
  Zr  Zr4  1  0.74765603  0.74717303  0.76016390  1
  Zr  Zr5  1  0.25234397  0.99951700  0.76016390  1
  Zr  Zr6  1  0.34391463  0.67169105  0.50318922  1
  Zr  Zr7  1  0.65608537  0.32777542  0.50318922  1
  Zr  Zr8  1  0.65702038  0.33029607  0.99629642  1
  Zr  Zr9  1  0.34297962  0.67327668  0.99629642  1
  Ga  Ga0  1  0.60847765  0.60543264  0.24865832  1
  Ga  Ga1  1  0.39152235  0.99695499  0.24865832  1
  Ga  Ga2  1  0.00000000  0.60863388  0.74993450  1
  Ga  Ga3  1  0.39000191  0.39220507  0.75289753  1
  Ga  Ga4  1  0.60999809  0.00220316  0.75289753  1
  Sb  Sb0  1  0.00000000  0.39538856  0.24976778  1
  S  S0  1  1.00000000  0.00077109  0.50201153  1
loop_
_geom_bond_atom_site_label_1
_geom_bond_atom_site_label_2
_geom_bond_distance
_geom_bond_site_symmetry_2
Ga0 Zr2 2.794793 1_555
Ga0 Zr0 2.824322 1_655
Ga0 Zr8 2.881947 1_554
Ga0 Zr6 2.898489 1_555
Ga0 Zr7 2.906024 1_555
Ga0 Zr9 2.908778 1_554
Ga0 Zr1 2.916292 1_555
Ga0 Zr4 3.053794 1_554
Ga0 Zr4 3.175502 1_555
Ga1 Zr1 2.794793 1_565
Ga1 Zr0 2.824322 1_555
Ga1 Zr9 2.881940 1_554
Ga1 Zr7 2.898484 1_565
Ga1 Zr6 2.906017 1_555
Ga1 Zr8 2.908773 1_564
Ga1 Zr2 2.916292 1_555
Ga1 Zr5 3.053794 1_554
Ga1 Zr5 3.175502 1_555
Ga2 Zr5 2.828124 1_555
Ga2 Zr4 2.828124 1_455
Ga2 Zr3 2.928788 1_455
Ga2 Zr9 2.968901 1_555
Ga2 Zr8 2.968904 1_455
Ga2 Zr6 2.979129 1_555
Ga2 Zr7 2.979131 1_455
Ga2 Zr0 3.056017 1_556
Ga2 Zr0 3.210563 1_555
Ga3 Zr3 2.824368 1_455
Ga3 Zr5 2.840627 1_545
Ga3 Zr8 2.866111 1_555
Ga3 Zr7 2.886640 1_555
Ga3 Zr9 2.891610 1_555
Ga3 Zr6 2.898257 1_555
Ga3 Zr4 2.938527 1_555
Ga3 Zr1 3.051575 1_556
Ga3 Zr1 3.162954 1_555
Ga4 Zr3 2.824367 1_555
Ga4 Zr4 2.840627 1_545
Ga4 Zr9 2.866106 1_545
Ga4 Zr6 2.886635 1_545
Ga4 Zr8 2.891603 1_555
Ga4 Zr7 2.898250 1_555
Ga4 Zr5 2.938527 1_545
Ga4 Zr2 3.051575 1_546
Ga4 Zr2 3.162954 1_545
Sb0 Zr2 2.917476 1_445
Sb0 Zr1 2.917476 1_555
Sb0 Zr0 2.963001 1_555
Sb0 Zr7 2.986831 1_455
Sb0 Zr6 2.986834 1_555
Sb0 Zr8 2.987775 1_454
Sb0 Zr9 2.987777 1_554
Sb0 Zr3 3.088839 1_454
Sb0 Zr3 3.152177 1_455
S0 Zr3 2.535878 1_555
S0 Zr0 2.536719 1_645
S0 Zr4 2.566066 1_545
S0 Zr5 2.566066 1_645
S0 Zr1 2.571896 1_655
S0 Zr2 2.571896 1_545
