# generated using pymatgen
data_Na2B3PIr4
_symmetry_space_group_name_H-M   'P 1'
_cell_length_a   7.25789074
_cell_length_b   6.16614301
_cell_length_c   5.51093824
_cell_angle_alpha   76.63067022
_cell_angle_beta   57.97647641
_cell_angle_gamma   47.62297947
_symmetry_Int_Tables_number   1
_chemical_formula_structural   Na2B3PIr4
_chemical_formula_sum   'Na2 B3 P1 Ir4'
_cell_volume   151.30208983
_cell_formula_units_Z   1
loop_
 _symmetry_equiv_pos_site_id
 _symmetry_equiv_pos_as_xyz
  1  'x, y, z'
loop_
 _atom_site_type_symbol
 _atom_site_label
 _atom_site_symmetry_multiplicity
 _atom_site_fract_x
 _atom_site_fract_y
 _atom_site_fract_z
 _atom_site_occupancy
  Na  Na0  1  0.99738096  0.00261904  0.99738096  1
  Na  Na1  1  0.25182501  0.24817499  0.25182501  1
  B  B0  1  0.57205427  0.92794573  0.57205427  1
  B  B1  1  0.67422913  0.32577087  0.67422913  1
  B  B2  1  0.93130358  0.56869642  0.93130358  1
  P  P0  1  0.31786274  0.68213726  0.31786274  1
  Ir  Ir0  1  0.64085175  0.62186607  0.36663881  1
  Ir  Ir1  1  0.86502829  0.88127433  0.63282546  1
  Ir  Ir2  1  0.63282546  0.62087193  0.86502829  1
  Ir  Ir3  1  0.36663881  0.37064337  0.64085175  1
loop_
_geom_bond_atom_site_label_1
_geom_bond_atom_site_label_2
_geom_bond_distance
_geom_bond_site_symmetry_2
Na0 P0 2.996893 1_646
Na0 P0 3.365595 1_645
Na0 P0 3.365595 1_556
Na1 P0 3.144309 1_555
Na1 P0 3.144309 1_545
B0 Ir0 2.052086 1_555
B0 Ir3 2.052087 1_565
B0 Ir1 2.145280 1_555
B0 Ir2 2.145280 1_555
B0 Na1 2.994532 1_565
B0 Na0 3.262621 1_465
B0 Na0 3.262621 1_564
B1 Ir2 2.078367 1_555
B1 Ir1 2.078367 1_545
B1 Ir3 2.161840 1_555
B1 Ir0 2.161840 1_555
B1 Na0 3.021861 1_555
B2 Ir3 2.091794 1_655
B2 Ir0 2.091794 1_556
B2 Ir2 2.185208 1_555
B2 Ir1 2.185208 1_555
B2 Na1 2.997264 1_656
B2 Na0 3.144381 1_565
B2 Na0 3.144382 1_555
Ir0 P0 2.270113 1_555
Ir0 Na1 3.049326 1_655
Ir0 Na1 3.058208 1_565
Ir0 Na0 3.179086 1_554
Ir0 Na0 3.344064 1_465
Ir1 P0 2.194970 1_655
Ir1 Na0 3.038030 1_565
Ir1 Na0 3.152057 1_564
Ir1 Na1 3.208641 1_655
Ir1 Na1 3.233820 1_566
Ir2 P0 2.194970 1_556
Ir2 Na0 3.038030 1_555
Ir2 Na0 3.152057 1_465
Ir2 Na1 3.208641 1_566
Ir2 Na1 3.233820 1_655
Ir3 P0 2.270113 1_555
Ir3 Na1 3.049327 1_556
Ir3 Na1 3.058207 1_555
Ir3 Na0 3.179086 1_465
Ir3 Na0 3.344064 1_554
