# generated using pymatgen
data_LiY6IrBr12
_symmetry_space_group_name_H-M   'P 1'
_cell_length_a   9.10219932
_cell_length_b   9.21414291
_cell_length_c   9.15321317
_cell_angle_alpha   108.21262935
_cell_angle_beta   107.47487904
_cell_angle_gamma   107.60305610
_symmetry_Int_Tables_number   1
_chemical_formula_structural   LiY6IrBr12
_chemical_formula_sum   'Li1 Y6 Ir1 Br12'
_cell_volume   625.50724855
_cell_formula_units_Z   1
loop_
 _symmetry_equiv_pos_site_id
 _symmetry_equiv_pos_as_xyz
  1  'x, y, z'
loop_
 _atom_site_type_symbol
 _atom_site_label
 _atom_site_symmetry_multiplicity
 _atom_site_fract_x
 _atom_site_fract_y
 _atom_site_fract_z
 _atom_site_occupancy
  Li  Li0  1  0.50000000  0.50000000  0.50000000  1
  Y  Y0  1  0.11750779  0.32857558  0.03611226  1
  Y  Y1  1  0.32146014  0.03545055  0.11436834  1
  Y  Y2  1  0.03692544  0.11276914  0.32318937  1
  Y  Y3  1  0.96307556  0.88723086  0.67681163  1
  Y  Y4  1  0.67853986  0.96455045  0.88563166  1
  Y  Y5  1  0.88249221  0.67142442  0.96388774  1
  Ir  Ir0  1  0.00000000  0.00000000  0.00000000  1
  Br  Br0  1  0.22205878  0.68320983  0.07328234  1
  Br  Br1  1  0.46570845  0.38357344  0.16822313  1
  Br  Br2  1  0.68372651  0.07459743  0.22173676  1
  Br  Br3  1  0.92507204  0.77857974  0.31784446  1
  Br  Br4  1  0.16716405  0.46243613  0.38438695  1
  Br  Br5  1  0.38726601  0.16974592  0.46553478  1
  Br  Br6  1  0.61273399  0.83025408  0.53446622  1
  Br  Br7  1  0.83283695  0.53756387  0.61561305  1
  Br  Br8  1  0.07492896  0.22142026  0.68215654  1
  Br  Br9  1  0.31627449  0.92540357  0.77826324  1
  Br  Br10  1  0.53429155  0.61642656  0.83177787  1
  Br  Br11  1  0.77794122  0.31679017  0.92671766  1
loop_
_geom_bond_atom_site_label_1
_geom_bond_atom_site_label_2
_geom_bond_distance
_geom_bond_site_symmetry_2
Ir0 Y1 2.670691 1_555
Ir0 Y4 2.670694 1_444
Ir0 Y3 2.685873 1_444
Ir0 Y2 2.685879 1_555
Ir0 Y0 2.760942 1_555
Ir0 Y5 2.760942 1_444
Br0 Y5 2.904790 1_454
Br0 Y1 2.958123 1_565
Br0 Y0 2.988092 1_555
Br1 Li0 2.768093 1_555
Br1 Y0 2.847433 1_555
Br1 Y1 2.886437 1_555
Br2 Y4 2.903233 1_544
Br2 Y2 2.939472 1_655
Br2 Y1 3.013589 1_555
Br3 Y2 2.915572 1_665
Br3 Y5 2.938792 1_554
Br3 Y3 2.994917 1_555
Br4 Li0 2.762094 1_555
Br4 Y0 2.868372 1_555
Br4 Y2 2.874462 1_555
Br5 Li0 2.780153 1_555
Br5 Y1 2.851469 1_555
Br5 Y2 2.864726 1_555
Br6 Li0 2.780150 1_555
Br6 Y4 2.851461 1_555
Br6 Y3 2.864734 1_555
Br7 Li0 2.762103 1_555
Br7 Y5 2.868374 1_555
Br7 Y3 2.874460 1_555
Br8 Y3 2.915572 1_445
Br8 Y0 2.938786 1_556
Br8 Y2 2.994917 1_555
Br9 Y1 2.903237 1_566
Br9 Y3 2.939470 1_455
Br9 Y4 3.013580 1_555
Br10 Li0 2.768102 1_555
Br10 Y5 2.847433 1_555
Br10 Y4 2.886448 1_555
Br11 Y0 2.904790 1_656
Br11 Y4 2.958114 1_545
Br11 Y5 2.988092 1_555
