# generated using pymatgen
data_K2Pd3RhO6
_symmetry_space_group_name_H-M   'P 1'
_cell_length_a   7.07871187
_cell_length_b   7.07871147
_cell_length_c   7.07871025
_cell_angle_alpha   51.06477178
_cell_angle_beta   51.06477419
_cell_angle_gamma   51.06477650
_symmetry_Int_Tables_number   1
_chemical_formula_structural   K2Pd3RhO6
_chemical_formula_sum   'K2 Pd3 Rh1 O6'
_cell_volume   197.99051944
_cell_formula_units_Z   1
loop_
 _symmetry_equiv_pos_site_id
 _symmetry_equiv_pos_as_xyz
  1  'x, y, z'
loop_
 _atom_site_type_symbol
 _atom_site_label
 _atom_site_symmetry_multiplicity
 _atom_site_fract_x
 _atom_site_fract_y
 _atom_site_fract_z
 _atom_site_occupancy
  K  K0  1  0.83089641  0.83089641  0.83089641  1
  K  K1  1  0.16910359  0.16910359  0.16910359  1
  Pd  Pd0  1  0.00000000  0.50000000  0.50000000  1
  Pd  Pd1  1  0.50000000  0.00000000  0.50000000  1
  Pd  Pd2  1  0.50000000  0.50000000  0.00000000  1
  Rh  Rh0  1  0.00000000  0.00000000  0.00000000  1
  O  O0  1  0.88705568  0.39029018  0.88705568  1
  O  O1  1  0.88705568  0.88705568  0.39029018  1
  O  O2  1  0.39029018  0.88705568  0.88705568  1
  O  O3  1  0.11294432  0.60970982  0.11294432  1
  O  O4  1  0.11294432  0.11294432  0.60970982  1
  O  O5  1  0.60970982  0.11294432  0.11294432  1
loop_
_geom_bond_atom_site_label_1
_geom_bond_atom_site_label_2
_geom_bond_distance
_geom_bond_site_symmetry_2
K0 O1 2.669384 1_555
K0 O0 2.669385 1_555
K0 O2 2.669385 1_555
K0 O5 2.752427 1_566
K0 O3 2.752427 1_656
K0 O4 2.752427 1_665
K1 O4 2.669384 1_555
K1 O3 2.669385 1_555
K1 O5 2.669385 1_555
K1 O2 2.752427 1_544
K1 O0 2.752427 1_454
K1 O1 2.752427 1_445
O0 Pd0 2.025319 1_655
O0 Pd2 2.025320 1_556
O0 Rh0 2.040132 1_656
O1 Pd0 2.025320 1_655
O1 Pd1 2.025320 1_565
O1 Rh0 2.040132 1_665
O2 Pd1 2.025319 1_565
O2 Pd2 2.025320 1_556
O2 Rh0 2.040133 1_566
O3 Pd0 2.025319 1_555
O3 Pd2 2.025320 1_555
O3 Rh0 2.040132 1_565
O4 Pd0 2.025320 1_555
O4 Pd1 2.025320 1_555
O4 Rh0 2.040132 1_556
O5 Pd1 2.025319 1_555
O5 Pd2 2.025320 1_555
O5 Rh0 2.040133 1_655
