# generated using pymatgen
data_Ca2Si2As4Pd21
_symmetry_space_group_name_H-M   'P 1'
_cell_length_a   8.73517751
_cell_length_b   8.73517756
_cell_length_c   8.68969432
_cell_angle_alpha   60.17208669
_cell_angle_beta   60.17208651
_cell_angle_gamma   59.52486742
_symmetry_Int_Tables_number   1
_chemical_formula_structural   Ca2Si2As4Pd21
_chemical_formula_sum   'Ca2 Si2 As4 Pd21'
_cell_volume   468.34509398
_cell_formula_units_Z   1
loop_
 _symmetry_equiv_pos_site_id
 _symmetry_equiv_pos_as_xyz
  1  'x, y, z'
loop_
 _atom_site_type_symbol
 _atom_site_label
 _atom_site_symmetry_multiplicity
 _atom_site_fract_x
 _atom_site_fract_y
 _atom_site_fract_z
 _atom_site_occupancy
  Ca  Ca0  1  0.75007954  0.75007954  0.74877409  1
  Ca  Ca1  1  0.24992046  0.24992046  0.24893416  1
  Si  Si0  1  0.73622803  0.26377197  0.73704535  1
  Si  Si1  1  0.26377197  0.73622803  0.73704535  1
  As  As0  1  0.73699192  0.73699192  0.26331930  1
  As  As1  1  0.26266931  0.73733069  0.26325990  1
  As  As2  1  0.73733069  0.26266931  0.26325990  1
  As  As3  1  0.26300808  0.26300808  0.73730214  1
  Pd  Pd0  1  0.00000000  0.00000000  0.99813783  1
  Pd  Pd1  1  0.61572961  0.61572961  0.15414988  1
  Pd  Pd2  1  0.61823429  0.15499675  0.61895565  1
  Pd  Pd3  1  0.15499675  0.61823429  0.61895565  1
  Pd  Pd4  1  0.61222203  0.61222203  0.62084342  1
  Pd  Pd5  1  0.38777797  0.38777797  0.84528747  1
  Pd  Pd6  1  0.38176571  0.84500325  0.39218569  1
  Pd  Pd7  1  0.84500325  0.38176571  0.39218569  1
  Pd  Pd8  1  0.38427039  0.38427039  0.38560909  1
  Pd  Pd9  1  1.00000000  1.00000000  0.35010398  1
  Pd  Pd10  1  0.64953089  0.00321875  0.34542821  1
  Pd  Pd11  1  0.00321875  0.64953089  0.34542821  1
  Pd  Pd12  1  0.65403984  0.34596016  0.99490050  1
  Pd  Pd13  1  0.99678125  0.35046911  0.99817785  1
  Pd  Pd14  1  0.99545515  0.34302749  0.65343727  1
  Pd  Pd15  1  0.34596016  0.65403984  0.99490050  1
  Pd  Pd16  1  0.34302749  0.99545515  0.65343727  1
  Pd  Pd17  1  0.35046911  0.99678125  0.99817785  1
  Pd  Pd18  1  0.00000000  0.00000000  0.65691702  1
  Pd  Pd19  1  0.00454485  0.65697251  0.99191990  1
  Pd  Pd20  1  0.65697251  0.00454485  0.99191990  1
loop_
_geom_bond_atom_site_label_1
_geom_bond_atom_site_label_2
_geom_bond_distance
_geom_bond_site_symmetry_2
Ca0 Pd4 2.875834 1_555
Ca0 Pd3 2.881099 1_655
Ca0 Pd2 2.881099 1_565
Ca0 Pd1 2.887078 1_556
Ca0 Pd17 3.319015 1_555
Ca0 Pd13 3.319015 1_555
Ca0 Pd9 3.364584 1_555
Ca0 Pd11 3.365737 1_655
Ca0 Pd10 3.365737 1_565
Ca1 Pd5 2.875840 1_554
Ca1 Pd7 2.881098 1_455
Ca1 Pd6 2.881098 1_545
Ca1 Pd8 2.887071 1_555
Ca1 Pd10 3.319011 1_555
Ca1 Pd11 3.319011 1_555
Ca1 Pd9 3.364587 1_445
Ca1 Pd13 3.365745 1_454
Ca1 Pd17 3.365745 1_544
As0 Pd11 2.409796 1_655
As0 Pd10 2.409796 1_565
As0 Pd19 2.452022 1_654
As0 Pd20 2.452022 1_564
As0 Pd1 2.506247 1_555
As0 Pd6 2.529300 1_555
As0 Pd7 2.529300 1_555
As0 Pd4 2.548691 1_555
As1 Pd9 2.399713 1_455
As1 Pd17 2.417205 1_554
As1 Pd11 2.417205 1_555
As1 Pd15 2.441271 1_554
As1 Pd1 2.511722 1_555
As1 Pd8 2.511722 1_555
As1 Pd6 2.534201 1_555
As1 Pd3 2.534208 1_555
As2 Pd9 2.399713 1_545
As2 Pd13 2.417205 1_554
As2 Pd10 2.417205 1_555
As2 Pd12 2.441271 1_554
As2 Pd8 2.511722 1_555
As2 Pd1 2.511722 1_555
As2 Pd7 2.534201 1_555
As2 Pd2 2.534208 1_555
As3 Pd13 2.409802 1_455
As3 Pd17 2.409802 1_545
As3 Pd14 2.452017 1_455
As3 Pd16 2.452017 1_545
As3 Pd8 2.506240 1_555
As3 Pd2 2.529300 1_555
As3 Pd3 2.529300 1_555
As3 Pd5 2.548698 1_555
Pd0 Pd18 2.965105 1_555
Pd0 Pd15 3.000426 1_545
Pd0 Pd12 3.000426 1_455
Pd0 Pd16 3.003532 1_545
Pd0 Pd14 3.003532 1_455
Pd0 Pd20 3.003532 1_455
Pd0 Pd19 3.003532 1_545
Pd0 Pd10 3.047418 1_456
Pd0 Pd11 3.047418 1_546
Pd0 Pd17 3.047419 1_545
Pd0 Pd13 3.047419 1_455
Pd0 Pd9 3.058478 1_446
Pd1 Pd13 3.016347 1_554
Pd1 Pd17 3.016347 1_554
Pd2 Si0 2.456349 1_555
Pd2 Pd9 3.037848 1_545
Pd3 Si1 2.456349 1_555
Pd3 Pd9 3.037848 1_455
Pd4 Si1 2.478676 1_555
Pd4 Si0 2.478676 1_555
Pd5 Si0 2.478676 1_555
Pd5 Si1 2.478676 1_555
Pd6 Si1 2.456356 1_555
Pd6 Pd9 3.037845 1_455
Pd7 Si0 2.456356 1_555
Pd7 Pd9 3.037845 1_545
Pd10 Pd16 2.685421 1_545
Pd10 Pd8 3.016347 1_555
Pd10 Pd12 3.028429 1_554
Pd10 Pd20 3.034390 1_554
Pd10 Pd6 3.052999 1_545
Pd10 Pd11 3.067312 1_645
Pd10 Pd9 3.067567 1_545
Pd10 Pd2 3.098843 1_555
Pd10 Pd4 3.117811 1_545
Pd11 Pd14 2.685421 1_455
Pd11 Pd8 3.016347 1_555
Pd11 Pd15 3.028429 1_554
Pd11 Pd19 3.034390 1_554
Pd11 Pd7 3.052999 1_455
Pd11 Pd9 3.067567 1_455
Pd11 Pd3 3.098843 1_555
Pd11 Pd4 3.117811 1_455
Pd12 Si0 2.351317 1_555
Pd12 Pd13 3.028430 1_555
Pd13 Pd19 2.685421 1_655
Pd13 Pd14 3.034390 1_555
Pd13 Pd3 3.052995 1_655
Pd13 Pd17 3.067312 1_645
Pd13 Pd9 3.067567 1_546
Pd13 Pd7 3.098834 1_556
Pd13 Pd5 3.117811 1_655
Pd14 Si0 2.363854 1_555
Pd15 Si1 2.351317 1_555
Pd15 Pd17 3.028430 1_555
Pd16 Si1 2.363854 1_555
Pd16 Pd17 3.034390 1_555
Pd17 Pd20 2.685421 1_565
Pd17 Pd2 3.052995 1_565
Pd17 Pd9 3.067567 1_456
Pd17 Pd6 3.098834 1_556
Pd17 Pd5 3.117811 1_565
Pd18 Si0 2.391152 1_455
Pd18 Si1 2.391152 1_545
Pd18 Pd9 2.666111 1_445
Pd19 Si1 2.363853 1_555
Pd20 Si0 2.363853 1_555
