# generated using pymatgen
data_Cs6Rb3InBi4
_symmetry_space_group_name_H-M   'P 1'
_cell_length_a   11.48486037
_cell_length_b   11.48486075
_cell_length_c   12.07292189
_cell_angle_alpha   90.00000000
_cell_angle_beta   90.00000000
_cell_angle_gamma   119.99999341
_symmetry_Int_Tables_number   1
_chemical_formula_structural   Cs6Rb3InBi4
_chemical_formula_sum   'Cs12 Rb6 In2 Bi8'
_cell_volume   1379.09601806
_cell_formula_units_Z   2
loop_
 _symmetry_equiv_pos_site_id
 _symmetry_equiv_pos_as_xyz
  1  'x, y, z'
loop_
 _atom_site_type_symbol
 _atom_site_label
 _atom_site_symmetry_multiplicity
 _atom_site_fract_x
 _atom_site_fract_y
 _atom_site_fract_z
 _atom_site_occupancy
  Cs  Cs0  1  0.20856387  0.41712474  0.54122836  1
  Cs  Cs1  1  0.79143613  0.20856387  0.04122836  1
  Cs  Cs2  1  0.41712474  0.20856387  0.04122836  1
  Cs  Cs3  1  0.58287526  0.79143613  0.54122836  1
  Cs  Cs4  1  0.20856387  0.79143613  0.54122836  1
  Cs  Cs5  1  0.79143613  0.58287526  0.45877164  1
  Cs  Cs6  1  0.79143613  0.20856387  0.45877164  1
  Cs  Cs7  1  0.79143613  0.58287526  0.04122836  1
  Cs  Cs8  1  0.41712474  0.20856387  0.45877164  1
  Cs  Cs9  1  0.58287526  0.79143613  0.95877164  1
  Cs  Cs10  1  0.20856387  0.41712474  0.95877164  1
  Cs  Cs11  1  0.20856387  0.79143613  0.95877164  1
  Rb  Rb0  1  0.11933839  0.23867579  0.25000000  1
  Rb  Rb1  1  0.88066161  0.11933839  0.75000000  1
  Rb  Rb2  1  0.23867579  0.11933839  0.75000000  1
  Rb  Rb3  1  0.76132421  0.88066161  0.25000000  1
  Rb  Rb4  1  0.11933839  0.88066161  0.25000000  1
  Rb  Rb5  1  0.88066161  0.76132421  0.75000000  1
  In  In0  1  0.33333300  0.66666700  0.25000000  1
  In  In1  1  0.66666700  0.33333300  0.75000000  1
  Bi  Bi0  1  0.48011004  0.51988996  0.25000000  1
  Bi  Bi1  1  0.96021708  0.48011004  0.75000000  1
  Bi  Bi2  1  0.51988996  0.03978292  0.75000000  1
  Bi  Bi3  1  0.48011004  0.96021708  0.25000000  1
  Bi  Bi4  1  0.03978292  0.51988996  0.25000000  1
  Bi  Bi5  1  0.51988996  0.48011004  0.75000000  1
  Bi  Bi6  1  0.00000000  0.00000000  0.00000000  1
  Bi  Bi7  1  0.00000000  0.00000000  0.50000000  1
loop_
_geom_bond_atom_site_label_1
_geom_bond_atom_site_label_2
_geom_bond_distance
_geom_bond_site_symmetry_2
Cs0 Rb0 3.938568 1_555
Cs0 In0 4.303764 1_555
Cs1 Rb1 3.938577 1_554
Cs1 In1 4.303741 1_554
Cs2 Rb2 3.938568 1_554
Cs2 In1 4.303764 1_554
Cs3 Rb3 3.938568 1_555
Cs3 In0 4.303764 1_555
Cs4 Rb4 3.938577 1_555
Cs4 In0 4.303741 1_555
Cs5 Rb5 3.938568 1_555
Cs5 In1 4.303764 1_555
Cs6 Rb1 3.938577 1_555
Cs6 In1 4.303741 1_555
Cs7 Rb5 3.938568 1_554
Cs7 In1 4.303764 1_554
Cs8 Rb2 3.938568 1_555
Cs8 In1 4.303764 1_555
Cs9 Rb3 3.938568 1_556
Cs9 In0 4.303764 1_556
Cs10 Rb0 3.938568 1_556
Cs10 In0 4.303764 1_556
Cs11 Rb4 3.938577 1_556
Cs11 In0 4.303741 1_556
Bi0 In0 2.919742 1_555
Bi0 Rb0 3.770526 1_555
Bi0 Rb3 3.770526 1_555
Bi0 Cs5 4.132083 1_555
Bi0 Cs7 4.132083 1_555
Bi0 Cs8 4.132084 1_555
Bi0 Cs2 4.132084 1_555
Bi0 Cs0 4.449762 1_555
Bi0 Cs10 4.449762 1_554
Bi0 Cs3 4.449762 1_555
Bi0 Cs9 4.449762 1_554
Bi1 In1 2.919702 1_555
Bi1 Rb5 3.770510 1_555
Bi1 Rb1 3.770532 1_555
Bi1 Cs11 4.132101 1_655
Bi1 Cs4 4.132101 1_655
Bi1 Cs10 4.132137 1_655
Bi1 Cs0 4.132137 1_655
Bi1 Cs7 4.449762 1_556
Bi1 Cs5 4.449762 1_555
Bi1 Cs1 4.449762 1_556
Bi1 Cs6 4.449762 1_555
Bi2 In1 2.919702 1_555
Bi2 Rb2 3.770510 1_555
Bi2 Rb1 3.770532 1_555
Bi2 Cs11 4.132101 1_545
Bi2 Cs4 4.132101 1_545
Bi2 Cs9 4.132137 1_545
Bi2 Cs3 4.132137 1_545
Bi2 Cs2 4.449762 1_556
Bi2 Cs8 4.449762 1_555
Bi2 Cs1 4.449762 1_556
Bi2 Cs6 4.449762 1_555
Bi3 In0 2.919702 1_555
Bi3 Rb3 3.770510 1_555
Bi3 Rb4 3.770532 1_555
Bi3 Cs6 4.132101 1_565
Bi3 Cs1 4.132101 1_565
Bi3 Cs8 4.132137 1_565
Bi3 Cs2 4.132137 1_565
Bi3 Cs3 4.449762 1_555
Bi3 Cs9 4.449762 1_554
Bi3 Cs4 4.449762 1_555
Bi3 Cs11 4.449762 1_554
Bi4 In0 2.919702 1_555
Bi4 Rb0 3.770510 1_555
Bi4 Rb4 3.770532 1_555
Bi4 Cs6 4.132101 1_455
Bi4 Cs1 4.132101 1_455
Bi4 Cs5 4.132137 1_455
Bi4 Cs7 4.132137 1_455
Bi4 Cs0 4.449762 1_555
Bi4 Cs10 4.449762 1_554
Bi4 Cs4 4.449762 1_555
Bi4 Cs11 4.449762 1_554
Bi5 In1 2.919742 1_555
Bi5 Rb5 3.770526 1_555
Bi5 Rb2 3.770526 1_555
Bi5 Cs10 4.132083 1_555
Bi5 Cs0 4.132083 1_555
Bi5 Cs9 4.132084 1_555
Bi5 Cs3 4.132084 1_555
Bi5 Cs7 4.449762 1_556
Bi5 Cs5 4.449762 1_555
Bi5 Cs2 4.449762 1_556
Bi5 Cs8 4.449762 1_555
Bi6 Rb2 3.839945 1_554
Bi6 Rb3 3.839945 1_445
Bi6 Rb5 3.839945 1_444
Bi6 Rb0 3.839945 1_555
Bi6 Rb4 3.839951 1_545
Bi6 Rb1 3.839951 1_454
Bi6 Cs2 4.178550 1_555
Bi6 Cs9 4.178550 1_444
Bi6 Cs10 4.178550 1_554
Bi6 Cs7 4.178550 1_445
Bi6 Cs1 4.178579 1_455
Bi6 Cs11 4.178579 1_544
Bi7 Rb2 3.839945 1_555
Bi7 Rb3 3.839945 1_445
Bi7 Rb5 3.839945 1_445
Bi7 Rb0 3.839945 1_555
Bi7 Rb4 3.839951 1_545
Bi7 Rb1 3.839951 1_455
Bi7 Cs8 4.178550 1_555
Bi7 Cs3 4.178550 1_445
Bi7 Cs0 4.178550 1_555
Bi7 Cs5 4.178550 1_445
Bi7 Cs6 4.178579 1_455
Bi7 Cs4 4.178579 1_545
