# generated using pymatgen
data_Lu10Zn3Bi2Pd
_symmetry_space_group_name_H-M   'P 1'
_cell_length_a   8.41346115
_cell_length_b   8.41346081
_cell_length_c   8.43631919
_cell_angle_alpha   124.24873304
_cell_angle_beta   124.24872903
_cell_angle_gamma   82.60949617
_symmetry_Int_Tables_number   1
_chemical_formula_structural   Lu10Zn3Bi2Pd
_chemical_formula_sum   'Lu10 Zn3 Bi2 Pd1'
_cell_volume   392.26733139
_cell_formula_units_Z   1
loop_
 _symmetry_equiv_pos_site_id
 _symmetry_equiv_pos_as_xyz
  1  'x, y, z'
loop_
 _atom_site_type_symbol
 _atom_site_label
 _atom_site_symmetry_multiplicity
 _atom_site_fract_x
 _atom_site_fract_y
 _atom_site_fract_z
 _atom_site_occupancy
  Lu  Lu0  1  0.00246055  0.00056377  0.00302432  1
  Lu  Lu1  1  0.49943623  0.49753945  0.99697568  1
  Lu  Lu2  1  0.78910117  0.29460533  0.80131490  1
  Lu  Lu3  1  0.20539467  0.71089883  0.19868510  1
  Lu  Lu4  1  0.48778726  0.99329142  0.19868510  1
  Lu  Lu5  1  0.29651820  0.48087133  0.50000000  1
  Lu  Lu6  1  0.01912867  0.20348180  0.50000000  1
  Lu  Lu7  1  0.50670858  0.01221274  0.80131490  1
  Lu  Lu8  1  0.70732194  0.51295483  0.50000000  1
  Lu  Lu9  1  0.98704517  0.79267806  0.50000000  1
  Zn  Zn0  1  0.13820261  0.64018714  0.77838975  1
  Zn  Zn1  1  0.85981286  0.36179739  0.22161025  1
  Zn  Zn2  1  0.63769041  0.86230959  0.50000000  1
  Bi  Bi0  1  0.24713274  0.25286726  1.00000000  1
  Bi  Bi1  1  0.74713274  0.75286726  1.00000000  1
  Pd  Pd0  1  0.36912521  0.13087479  0.50000000  1
loop_
_geom_bond_atom_site_label_1
_geom_bond_atom_site_label_2
_geom_bond_distance
_geom_bond_site_symmetry_2
Lu0 Zn0 3.027632 1_544
Lu0 Zn1 3.053235 1_455
Lu0 Pd0 3.071662 1_555
Lu0 Zn2 3.079536 1_444
Lu1 Zn1 3.027632 1_556
Lu1 Zn0 3.053235 1_555
Lu1 Pd0 3.071662 1_555
Lu1 Zn2 3.079536 1_556
Lu2 Pd0 2.836462 1_555
Lu2 Zn2 2.907521 1_545
Lu2 Zn1 2.949884 1_556
Lu3 Pd0 2.836462 1_565
Lu3 Zn2 2.907522 1_555
Lu3 Zn0 2.949884 1_554
Lu4 Pd0 2.836470 1_565
Lu4 Zn2 2.907529 1_555
Lu4 Zn0 2.949892 1_554
Lu5 Pd0 2.929428 1_555
Lu5 Zn0 2.933451 1_555
Lu5 Zn1 2.933451 1_455
Lu6 Pd0 2.929428 1_555
Lu6 Zn0 2.933450 1_555
Lu6 Zn1 2.933451 1_455
Lu7 Pd0 2.836470 1_555
Lu7 Zn2 2.907529 1_545
Lu7 Zn1 2.949892 1_556
Lu8 Zn1 2.896402 1_555
Lu8 Zn0 2.896402 1_655
Lu8 Zn2 2.922259 1_555
Lu9 Zn1 2.896402 1_555
Lu9 Zn0 2.896402 1_655
Lu9 Zn2 2.922259 1_555
Bi0 Lu0 3.160465 1_556
Bi0 Lu1 3.160465 1_555
Bi0 Lu5 3.281752 1_556
Bi0 Lu6 3.281753 1_555
Bi0 Lu3 3.290478 1_556
Bi0 Lu2 3.290479 1_455
Bi0 Lu7 3.292632 1_555
Bi0 Lu4 3.292632 1_546
Bi0 Lu9 3.313538 1_445
Bi0 Lu8 3.313538 1_556
Bi1 Lu1 3.160465 1_555
Bi1 Lu0 3.160465 1_666
Bi1 Lu6 3.281752 1_666
Bi1 Lu5 3.281752 1_555
Bi1 Lu4 3.290473 1_556
Bi1 Lu7 3.290473 1_565
Bi1 Lu2 3.292637 1_555
Bi1 Lu3 3.292637 1_656
Bi1 Lu8 3.313538 1_555
Bi1 Lu9 3.313538 1_556
Pd0 Zn2 2.982912 1_545
