# generated using pymatgen
data_Li12NbReN8
_symmetry_space_group_name_H-M   'P 1'
_cell_length_a   6.69441851
_cell_length_b   6.69441851
_cell_length_c   4.86769858
_cell_angle_alpha   90.00000000
_cell_angle_beta   90.00000000
_cell_angle_gamma   90.00000000
_symmetry_Int_Tables_number   1
_chemical_formula_structural   Li12NbReN8
_chemical_formula_sum   'Li12 Nb1 Re1 N8'
_cell_volume   218.14707615
_cell_formula_units_Z   1
loop_
 _symmetry_equiv_pos_site_id
 _symmetry_equiv_pos_as_xyz
  1  'x, y, z'
loop_
 _atom_site_type_symbol
 _atom_site_label
 _atom_site_symmetry_multiplicity
 _atom_site_fract_x
 _atom_site_fract_y
 _atom_site_fract_z
 _atom_site_occupancy
  Li  Li0  1  0.00000000  0.50000000  0.55799919  1
  Li  Li1  1  0.50000000  0.00000000  0.92349095  1
  Li  Li2  1  0.50000000  0.00000000  0.44200081  1
  Li  Li3  1  0.00000000  0.50000000  0.07650905  1
  Li  Li4  1  0.21719147  0.21719147  0.50000000  1
  Li  Li5  1  0.78280853  0.78280853  0.50000000  1
  Li  Li6  1  0.70954071  0.70954071  0.00000000  1
  Li  Li7  1  0.29045929  0.29045929  0.00000000  1
  Li  Li8  1  0.78280853  0.21719147  0.50000000  1
  Li  Li9  1  0.21719147  0.78280853  0.50000000  1
  Li  Li10  1  0.29045929  0.70954071  0.00000000  1
  Li  Li11  1  0.70954071  0.29045929  0.00000000  1
  Nb  Nb0  1  0.50000000  0.50000000  0.50000000  1
  Re  Re0  1  0.00000000  0.00000000  0.00000000  1
  N  N0  1  0.24615602  0.50000000  0.29560056  1
  N  N1  1  0.75384398  0.50000000  0.29560056  1
  N  N2  1  0.76799864  0.00000000  0.20114376  1
  N  N3  1  0.23200136  0.00000000  0.20114376  1
  N  N4  1  0.50000000  0.24615602  0.70439944  1
  N  N5  1  0.50000000  0.75384398  0.70439944  1
  N  N6  1  0.00000000  0.76799864  0.79885624  1
  N  N7  1  0.00000000  0.23200136  0.79885624  1
loop_
_geom_bond_atom_site_label_1
_geom_bond_atom_site_label_2
_geom_bond_distance
_geom_bond_site_symmetry_2
Li0 N0 2.084926 1_555
Li0 N1 2.084926 1_455
Li0 N6 2.143209 1_555
Li0 N7 2.143209 1_555
Li1 N4 1.962866 1_555
Li1 N5 1.962866 1_545
Li1 N2 2.246199 1_556
Li1 N3 2.246199 1_556
Li2 N4 2.084926 1_555
Li2 N5 2.084926 1_545
Li2 N2 2.143209 1_555
Li2 N3 2.143209 1_555
Li3 N0 1.962866 1_555
Li3 N1 1.962866 1_455
Li3 N6 2.246199 1_554
Li3 N7 2.246199 1_554
Li4 N7 2.059159 1_555
Li4 N3 2.059159 1_555
Li4 N4 2.147530 1_555
Li4 N0 2.147530 1_555
Li5 N6 2.059159 1_655
Li5 N2 2.059159 1_565
Li5 N5 2.147530 1_555
Li5 N1 2.147530 1_555
Li6 N1 2.031279 1_555
Li6 N5 2.031279 1_554
Li6 N2 2.211947 1_565
Li6 N6 2.211947 1_654
Li7 N0 2.031279 1_555
Li7 N4 2.031279 1_554
Li7 N3 2.211947 1_555
Li7 N7 2.211947 1_554
Li8 N2 2.059159 1_555
Li8 N7 2.059159 1_655
Li8 N4 2.147530 1_555
Li8 N1 2.147530 1_555
Li9 N6 2.059159 1_555
Li9 N3 2.059159 1_565
Li9 N0 2.147530 1_555
Li9 N5 2.147530 1_555
Li10 N0 2.031279 1_555
Li10 N5 2.031279 1_554
Li10 N3 2.211947 1_565
Li10 N6 2.211947 1_554
Li11 N1 2.031279 1_555
Li11 N4 2.031279 1_554
Li11 N2 2.211947 1_555
Li11 N7 2.211947 1_654
N0 Nb0 1.969184 1_555
N1 Nb0 1.969184 1_555
N2 Re0 1.835978 1_655
N3 Re0 1.835978 1_555
N4 Nb0 1.969184 1_555
N5 Nb0 1.969184 1_555
N6 Re0 1.835978 1_566
N7 Re0 1.835978 1_556
