# generated using pymatgen
data_Re2P4Ru
_symmetry_space_group_name_H-M   'P 1'
_cell_length_a   6.23106147
_cell_length_b   6.23106111
_cell_length_c   6.02484323
_cell_angle_alpha   66.53222828
_cell_angle_beta   66.53223191
_cell_angle_gamma   28.08553699
_symmetry_Int_Tables_number   1
_chemical_formula_structural   Re2P4Ru
_chemical_formula_sum   'Re2 P4 Ru1'
_cell_volume   100.42099371
_cell_formula_units_Z   1
loop_
 _symmetry_equiv_pos_site_id
 _symmetry_equiv_pos_as_xyz
  1  'x, y, z'
loop_
 _atom_site_type_symbol
 _atom_site_label
 _atom_site_symmetry_multiplicity
 _atom_site_fract_x
 _atom_site_fract_y
 _atom_site_fract_z
 _atom_site_occupancy
  Re  Re0  1  0.73497669  0.73497669  0.31827276  1
  Re  Re1  1  0.26502331  0.26502331  0.68172724  1
  P  P0  1  0.91753928  0.91753928  0.43863880  1
  P  P1  1  0.08246072  0.08246072  0.56136120  1
  P  P2  1  0.65095541  0.65095541  0.01974502  1
  P  P3  1  0.34904459  0.34904459  0.98025498  1
  Ru  Ru0  1  0.00000000  0.00000000  0.00000000  1
loop_
_geom_bond_atom_site_label_1
_geom_bond_atom_site_label_2
_geom_bond_distance
_geom_bond_site_symmetry_2
P0 Re1 2.369324 1_655
P0 Re1 2.369325 1_565
P0 P1 2.394255 1_665
P0 Ru0 2.411403 1_665
P0 Re0 2.590632 1_555
P1 Re0 2.369324 1_455
P1 Re0 2.369325 1_545
P1 Ru0 2.411403 1_556
P1 Re1 2.590632 1_555
P2 Re0 2.401393 1_555
P2 Ru0 2.410188 1_655
P2 Ru0 2.410188 1_565
P2 Re1 2.455475 1_564
P2 Re1 2.455475 1_654
P3 Re1 2.401393 1_555
P3 Ru0 2.410188 1_566
P3 Ru0 2.410188 1_656
P3 Re0 2.455475 1_546
P3 Re0 2.455475 1_456
