# generated using pymatgen
data_Hf4GaSiH2
_symmetry_space_group_name_H-M   'P 1'
_cell_length_a   5.37701243
_cell_length_b   5.37701163
_cell_length_c   5.37701174
_cell_angle_alpha   104.54832165
_cell_angle_beta   104.54832827
_cell_angle_gamma   119.84181403
_symmetry_Int_Tables_number   1
_chemical_formula_structural   Hf4GaSiH2
_chemical_formula_sum   'Hf4 Ga1 Si1 H2'
_cell_volume   116.68838142
_cell_formula_units_Z   1
loop_
 _symmetry_equiv_pos_site_id
 _symmetry_equiv_pos_as_xyz
  1  'x, y, z'
loop_
 _atom_site_type_symbol
 _atom_site_label
 _atom_site_symmetry_multiplicity
 _atom_site_fract_x
 _atom_site_fract_y
 _atom_site_fract_z
 _atom_site_occupancy
  Hf  Hf0  1  0.16238659  0.66238659  0.82477517  1
  Hf  Hf1  1  0.83761341  0.33761341  0.17522483  1
  Hf  Hf2  1  0.33761341  0.16238659  0.50000000  1
  Hf  Hf3  1  0.66238659  0.83761341  0.50000000  1
  Ga  Ga0  1  0.25000000  0.25000000  0.00000000  1
  Si  Si0  1  0.75000000  0.75000000  0.00000000  1
  H  H0  1  0.75000000  0.25000000  0.50000000  1
  H  H1  1  0.25000000  0.75000000  0.50000000  1
loop_
_geom_bond_atom_site_label_1
_geom_bond_atom_site_label_2
_geom_bond_distance
_geom_bond_site_symmetry_2
Hf0 Si0 2.809408 1_456
Hf0 Si0 2.809413 1_556
Hf1 Si0 2.809408 1_555
Hf1 Si0 2.809413 1_545
Hf2 Si0 2.809413 1_556
Hf2 Si0 2.809413 1_445
Hf3 Si0 2.809413 1_556
Hf3 Si0 2.809413 1_555
Ga0 Si0 2.694932 1_555
Ga0 Si0 2.694932 1_445
Ga0 Hf0 2.809408 1_554
Ga0 Hf1 2.809408 1_455
Ga0 Hf0 2.809413 1_544
Ga0 Hf3 2.809413 1_555
Ga0 Hf2 2.809413 1_555
Ga0 Hf3 2.809413 1_444
Ga0 Hf2 2.809413 1_554
Ga0 Hf1 2.809413 1_555
H0 Hf3 2.024651 1_545
H0 Hf2 2.024651 1_555
H0 Hf0 2.024654 1_655
H0 Hf1 2.024662 1_555
H1 Hf2 2.024651 1_565
H1 Hf3 2.024651 1_555
H1 Hf1 2.024654 1_455
H1 Hf0 2.024662 1_555
