# generated using pymatgen
data_Ba3Ga10SnO20
_symmetry_space_group_name_H-M   'P 1'
_cell_length_a   9.93358348
_cell_length_b   9.93358301
_cell_length_c   5.20533962
_cell_angle_alpha   75.70343878
_cell_angle_beta   75.70344388
_cell_angle_gamma   72.84761345
_symmetry_Int_Tables_number   1
_chemical_formula_structural   Ba3Ga10SnO20
_chemical_formula_sum   'Ba3 Ga10 Sn1 O20'
_cell_volume   467.11364332
_cell_formula_units_Z   1
loop_
 _symmetry_equiv_pos_site_id
 _symmetry_equiv_pos_as_xyz
  1  'x, y, z'
loop_
 _atom_site_type_symbol
 _atom_site_label
 _atom_site_symmetry_multiplicity
 _atom_site_fract_x
 _atom_site_fract_y
 _atom_site_fract_z
 _atom_site_occupancy
  Ba  Ba0  1  0.50000000  0.50000000  0.50000000  1
  Ba  Ba1  1  0.22095261  0.22095261  0.75787041  1
  Ba  Ba2  1  0.77904739  0.77904739  0.24212959  1
  Ga  Ga0  1  0.07761550  0.64455587  0.66491221  1
  Ga  Ga1  1  0.64455587  0.07761550  0.66491221  1
  Ga  Ga2  1  0.92238450  0.35544413  0.33508779  1
  Ga  Ga3  1  0.35544413  0.92238450  0.33508779  1
  Ga  Ga4  1  0.21623629  0.49267765  0.15651455  1
  Ga  Ga5  1  0.49267765  0.21623629  0.15651455  1
  Ga  Ga6  1  0.78376371  0.50732235  0.84348545  1
  Ga  Ga7  1  0.50732235  0.78376371  0.84348545  1
  Ga  Ga8  1  0.86310319  0.13689681  0.00000000  1
  Ga  Ga9  1  0.13689681  0.86310319  1.00000000  1
  Sn  Sn0  1  0.00000000  0.00000000  0.50000000  1
  O  O0  1  0.10065458  0.37708683  0.16721105  1
  O  O1  1  0.37708683  0.10065458  0.16721105  1
  O  O2  1  0.89934542  0.62291317  0.83278895  1
  O  O3  1  0.62291317  0.89934542  0.83278895  1
  O  O4  1  0.16513877  0.67030611  0.92583975  1
  O  O5  1  0.67030611  0.16513877  0.92583975  1
  O  O6  1  0.83486123  0.32969389  0.07416025  1
  O  O7  1  0.32969389  0.83486123  0.07416025  1
  O  O8  1  0.06432353  0.06432353  0.10155778  1
  O  O9  1  0.93567647  0.93567647  0.89844222  1
  O  O10  1  0.21409297  0.50303469  0.50739319  1
  O  O11  1  0.50303469  0.21409297  0.50739319  1
  O  O12  1  0.78590703  0.49696531  0.49260681  1
  O  O13  1  0.49696531  0.78590703  0.49260681  1
  O  O14  1  0.39987449  0.39987449  0.01872783  1
  O  O15  1  0.60012551  0.60012551  0.98127217  1
  O  O16  1  0.95117433  0.19737547  0.61399119  1
  O  O17  1  0.19737547  0.95117433  0.61399119  1
  O  O18  1  0.04882567  0.80262453  0.38600881  1
  O  O19  1  0.80262453  0.04882567  0.38600881  1
loop_
_geom_bond_atom_site_label_1
_geom_bond_atom_site_label_2
_geom_bond_distance
_geom_bond_site_symmetry_2
Ba0 O14 2.683295 1_556
Ba0 O15 2.683295 1_554
Ba0 O13 2.822153 1_555
Ba0 O11 2.822153 1_555
Ba0 O12 2.822153 1_555
Ba0 O10 2.822153 1_555
Ba1 O8 2.592401 1_556
Ba1 O1 2.766780 1_556
Ba1 O0 2.766780 1_556
Ba1 O10 2.771854 1_555
Ba1 O11 2.771855 1_555
Ba1 O17 3.040644 1_545
Ba1 O16 3.040644 1_455
Ba2 O9 2.592401 1_554
Ba2 O3 2.766780 1_554
Ba2 O2 2.766780 1_554
Ba2 O12 2.771854 1_555
Ba2 O13 2.771855 1_555
Ba2 O19 3.040644 1_565
Ba2 O18 3.040644 1_655
Ga0 O2 1.820245 1_455
Ga0 O10 1.839215 1_555
Ga0 O18 1.862609 1_555
Ga0 O4 1.884684 1_555
Ga1 O3 1.820245 1_545
Ga1 O11 1.839215 1_555
Ga1 O19 1.862610 1_555
Ga1 O5 1.884684 1_555
Ga2 O0 1.820245 1_655
Ga2 O12 1.839215 1_555
Ga2 O16 1.862609 1_555
Ga2 O6 1.884684 1_555
Ga3 O1 1.820245 1_565
Ga3 O13 1.839215 1_555
Ga3 O17 1.862610 1_555
Ga3 O7 1.884684 1_555
Ga4 O0 1.831448 1_555
Ga4 O14 1.838585 1_555
Ga4 O10 1.849118 1_555
Ga4 O4 1.881275 1_554
Ga5 O1 1.831448 1_555
Ga5 O14 1.838585 1_555
Ga5 O11 1.849118 1_555
Ga5 O5 1.881275 1_554
Ga6 O2 1.831448 1_555
Ga6 O15 1.838585 1_555
Ga6 O12 1.849118 1_555
Ga6 O6 1.881275 1_556
Ga7 O3 1.831448 1_555
Ga7 O15 1.838585 1_555
Ga7 O13 1.849118 1_555
Ga7 O7 1.881275 1_556
Ga8 O6 1.972390 1_555
Ga8 O5 1.972390 1_554
Ga8 O19 2.002317 1_555
Ga8 O16 2.002317 1_554
Ga8 O9 2.068393 1_544
Ga8 O8 2.068393 1_655
Ga9 O4 1.972390 1_555
Ga9 O7 1.972390 1_556
Ga9 O17 2.002317 1_555
Ga9 O18 2.002317 1_556
Ga9 O8 2.068393 1_566
Ga9 O9 2.068393 1_455
O8 Sn0 2.012446 1_555
O9 Sn0 2.012446 1_665
O16 Sn0 2.074366 1_655
O17 Sn0 2.074366 1_565
O18 Sn0 2.074366 1_565
O19 Sn0 2.074366 1_655
