# generated using pymatgen
data_SrHfO3
_symmetry_space_group_name_H-M   'P 1'
_cell_length_a   5.78671125
_cell_length_b   5.78671243
_cell_length_c   5.78671330
_cell_angle_alpha   120.67039233
_cell_angle_beta   120.67038770
_cell_angle_gamma   88.84277160
_symmetry_Int_Tables_number   1
_chemical_formula_structural   SrHfO3
_chemical_formula_sum   'Sr2 Hf2 O6'
_cell_volume   135.60049749
_cell_formula_units_Z   2
loop_
 _symmetry_equiv_pos_site_id
 _symmetry_equiv_pos_as_xyz
  1  'x, y, z'
loop_
 _atom_site_type_symbol
 _atom_site_label
 _atom_site_symmetry_multiplicity
 _atom_site_fract_x
 _atom_site_fract_y
 _atom_site_fract_z
 _atom_site_occupancy
  Sr  Sr0  1  0.24999968  0.74999911  0.49999876  1
  Sr  Sr1  1  0.74999847  0.24999883  0.49999750  1
  Hf  Hf0  1  0.50000015  0.50000458  0.00000459  1
  Hf  Hf1  1  0.00000175  -0.00000351  -0.00000175  1
  O  O0  1  0.69841160  0.19841159  0.89682385  1
  O  O1  1  0.19841146  0.30158876  0.49999996  1
  O  O2  1  0.80158798  0.69841174  0.49999970  1
  O  O3  1  0.30158859  0.80158839  0.10317645  1
  O  O4  1  0.74999976  0.75000062  0.00000038  1
  O  O5  1  0.25000056  0.24999991  0.00000056  1
loop_
_geom_bond_atom_site_label_1
_geom_bond_atom_site_label_2
_geom_bond_distance
_geom_bond_site_symmetry_2
Hf0 O4 2.066467 1_555
Hf0 O5 2.066469 1_555
Hf0 O3 2.067792 1_555
Hf0 O2 2.067797 1_555
Hf0 O1 2.067828 1_554
Hf0 O0 2.067835 1_554
Hf1 O5 2.066468 1_555
Hf1 O4 2.066468 1_445
Hf1 O3 2.067795 1_545
Hf1 O2 2.067802 1_444
Hf1 O1 2.067824 1_555
Hf1 O0 2.067833 1_454
O0 Sr0 2.617928 1_545
O0 Sr1 2.617937 1_555
O1 Sr0 2.617924 1_555
O1 Sr1 2.617928 1_455
O2 Sr1 2.617929 1_555
O2 Sr0 2.617930 1_655
O3 Sr1 2.617917 1_565
O3 Sr0 2.617928 1_555
O4 Sr1 2.863979 1_565
O4 Sr0 2.863988 1_655
O4 Sr0 2.863989 1_554
O4 Sr1 2.863998 1_554
O5 Sr1 2.863977 1_555
O5 Sr0 2.863984 1_555
O5 Sr0 2.863994 1_544
O5 Sr1 2.864000 1_454
