# generated using pymatgen
data_Hf6Ti4Al12Ru7
_symmetry_space_group_name_H-M   'P 1'
_cell_length_a   8.70515423
_cell_length_b   8.70515463
_cell_length_c   8.70515543
_cell_angle_alpha   60.00000440
_cell_angle_beta   60.00000290
_cell_angle_gamma   60.00000343
_symmetry_Int_Tables_number   1
_chemical_formula_structural   Hf6Ti4Al12Ru7
_chemical_formula_sum   'Hf6 Ti4 Al12 Ru7'
_cell_volume   466.46012790
_cell_formula_units_Z   1
loop_
 _symmetry_equiv_pos_site_id
 _symmetry_equiv_pos_as_xyz
  1  'x, y, z'
loop_
 _atom_site_type_symbol
 _atom_site_label
 _atom_site_symmetry_multiplicity
 _atom_site_fract_x
 _atom_site_fract_y
 _atom_site_fract_z
 _atom_site_occupancy
  Hf  Hf0  1  0.70123665  0.70123665  0.29876335  1
  Hf  Hf1  1  0.29876335  0.70123665  0.29876335  1
  Hf  Hf2  1  0.70123665  0.29876335  0.29876335  1
  Hf  Hf3  1  0.29876335  0.29876335  0.70123665  1
  Hf  Hf4  1  0.70123665  0.29876335  0.70123665  1
  Hf  Hf5  1  0.29876335  0.70123665  0.70123665  1
  Ti  Ti0  1  0.88038190  0.88038190  0.35885329  1
  Ti  Ti1  1  0.88038190  0.35885329  0.88038190  1
  Ti  Ti2  1  0.35885329  0.88038190  0.88038190  1
  Ti  Ti3  1  0.88038190  0.88038190  0.88038190  1
  Al  Al0  1  0.11944856  0.11944856  0.64165331  1
  Al  Al1  1  0.11944856  0.64165331  0.11944856  1
  Al  Al2  1  0.64165331  0.11944856  0.11944856  1
  Al  Al3  1  0.11944856  0.11944856  0.11944856  1
  Al  Al4  1  0.66491801  0.66491801  0.00524796  1
  Al  Al5  1  0.66491801  0.00524796  0.66491801  1
  Al  Al6  1  0.00524796  0.66491801  0.66491801  1
  Al  Al7  1  0.66491801  0.66491801  0.66491801  1
  Al  Al8  1  0.33370353  0.33370353  0.99888741  1
  Al  Al9  1  0.33370353  0.99888741  0.33370353  1
  Al  Al10  1  0.99888741  0.33370353  0.33370353  1
  Al  Al11  1  0.33370353  0.33370353  0.33370353  1
  Ru  Ru0  1  0.00000000  0.00000000  0.00000000  1
  Ru  Ru1  1  0.99913628  0.99913628  0.50086372  1
  Ru  Ru2  1  0.50086372  0.99913628  0.50086372  1
  Ru  Ru3  1  0.99913628  0.50086372  0.50086372  1
  Ru  Ru4  1  0.50086372  0.50086372  0.99913628  1
  Ru  Ru5  1  0.99913628  0.50086372  0.99913628  1
  Ru  Ru6  1  0.50086372  0.99913628  0.99913628  1
loop_
_geom_bond_atom_site_label_1
_geom_bond_atom_site_label_2
_geom_bond_distance
_geom_bond_site_symmetry_2
Hf0 Ti0 3.033337 1_555
Hf0 Ti3 3.033344 1_554
Hf0 Ru3 3.135756 1_555
Hf0 Ru2 3.135756 1_555
Hf0 Ru5 3.135756 1_554
Hf0 Ru6 3.135756 1_554
Hf1 Ti0 3.033345 1_455
Hf1 Ti2 3.033345 1_554
Hf1 Ru3 3.135756 1_455
Hf1 Ru6 3.135756 1_554
Hf1 Ru1 3.135756 1_455
Hf1 Ru4 3.135756 1_554
Hf2 Ti0 3.033345 1_545
Hf2 Ti1 3.033345 1_554
Hf2 Ru2 3.135756 1_545
Hf2 Ru5 3.135756 1_554
Hf2 Ru1 3.135756 1_545
Hf2 Ru4 3.135756 1_554
Hf3 Ti1 3.033345 1_455
Hf3 Ti2 3.033345 1_545
Hf3 Ru3 3.135756 1_455
Hf3 Ru2 3.135756 1_545
Hf3 Ru5 3.135756 1_455
Hf3 Ru6 3.135756 1_545
Hf4 Ti1 3.033338 1_555
Hf4 Ti3 3.033344 1_545
Hf4 Ru3 3.135756 1_555
Hf4 Ru6 3.135756 1_545
Hf4 Ru1 3.135756 1_545
Hf4 Ru4 3.135756 1_555
Hf5 Ti2 3.033338 1_555
Hf5 Ti3 3.033344 1_455
Hf5 Ru2 3.135756 1_555
Hf5 Ru5 3.135756 1_455
Hf5 Ru1 3.135756 1_455
Hf5 Ru4 3.135756 1_555
Al0 Ru0 2.547032 1_556
Al0 Ru1 2.712941 1_445
Al0 Ru2 2.712948 1_545
Al0 Ru3 2.712948 1_455
Al0 Al11 2.760908 1_555
Al0 Al9 2.760913 1_545
Al0 Al10 2.760913 1_455
Al0 Ti3 2.943139 1_445
Al0 Ti2 2.943139 1_545
Al0 Ti1 2.943139 1_455
Al0 Hf4 3.032835 1_455
Al0 Hf5 3.032835 1_545
Al0 Hf3 3.032843 1_555
Al1 Ru0 2.547031 1_565
Al1 Ru5 2.712941 1_454
Al1 Ru4 2.712948 1_554
Al1 Ru3 2.712949 1_455
Al1 Al11 2.760908 1_555
Al1 Al10 2.760913 1_455
Al1 Al8 2.760913 1_554
Al1 Ti2 2.943139 1_554
Al1 Ti3 2.943139 1_454
Al1 Ti0 2.943139 1_455
Al1 Hf0 3.032835 1_455
Al1 Hf5 3.032836 1_554
Al1 Hf1 3.032843 1_555
Al2 Ru0 2.547031 1_655
Al2 Ru6 2.712941 1_544
Al2 Ru4 2.712948 1_554
Al2 Ru2 2.712949 1_545
Al2 Al9 2.760913 1_545
Al2 Al8 2.760913 1_554
Al2 Ti1 2.943139 1_554
Al2 Ti3 2.943139 1_544
Al2 Ti0 2.943139 1_545
Al2 Hf0 3.032835 1_545
Al2 Hf4 3.032836 1_554
Al2 Hf2 3.032843 1_555
Al3 Ru0 2.547024 1_555
Al3 Ru6 2.712949 1_544
Al3 Ru5 2.712949 1_454
Al3 Ru1 2.712949 1_445
Al3 Al8 2.760905 1_554
Al3 Al9 2.760906 1_545
Al3 Ti0 2.943139 1_445
Al3 Ti2 2.943139 1_544
Al3 Ti1 2.943139 1_454
Al3 Hf2 3.032837 1_455
Al3 Hf1 3.032837 1_545
Al3 Hf3 3.032837 1_554
Al4 Ru5 2.504651 1_554
Al4 Ru6 2.504652 1_554
Al4 Ru4 2.504666 1_554
Al4 Ti3 2.767327 1_554
Al4 Ti2 2.767348 1_554
Al4 Ti1 2.767348 1_554
Al4 Hf0 2.905861 1_555
Al4 Hf1 2.905871 1_555
Al4 Hf2 2.905871 1_555
Al5 Ru1 2.504651 1_545
Al5 Ru6 2.504652 1_545
Al5 Ru2 2.504667 1_545
Al5 Ti3 2.767327 1_545
Al5 Ti2 2.767348 1_545
Al5 Ti0 2.767348 1_545
Al5 Hf4 2.905861 1_555
Al5 Hf3 2.905871 1_555
Al5 Hf2 2.905871 1_555
Al6 Ru1 2.504652 1_455
Al6 Ru5 2.504652 1_455
Al6 Ru3 2.504667 1_455
Al6 Ti3 2.767327 1_455
Al6 Ti1 2.767348 1_455
Al6 Ti0 2.767348 1_455
Al6 Hf5 2.905860 1_555
Al6 Hf3 2.905871 1_555
Al6 Hf1 2.905871 1_555
Al7 Ru3 2.504656 1_555
Al7 Ru2 2.504656 1_555
Al7 Ru4 2.504656 1_555
Al7 Ti2 2.767334 1_555
Al7 Ti0 2.767334 1_555
Al7 Ti1 2.767334 1_555
Al7 Hf5 2.905878 1_555
Al7 Hf4 2.905878 1_555
Al7 Hf0 2.905878 1_555
Al8 Ru5 2.521639 1_455
Al8 Ru6 2.521639 1_545
Al8 Ru4 2.521654 1_555
Al8 Hf3 2.927035 1_555
Al8 Hf4 2.927045 1_555
Al8 Hf5 2.927045 1_555
Al9 Ru1 2.521639 1_455
Al9 Ru6 2.521640 1_554
Al9 Ru2 2.521654 1_555
Al9 Hf1 2.927034 1_555
Al9 Hf0 2.927045 1_555
Al9 Hf5 2.927045 1_555
Al10 Ru1 2.521639 1_545
Al10 Ru5 2.521640 1_554
Al10 Ru3 2.521654 1_555
Al10 Al3 2.760906 1_655
Al10 Hf2 2.927034 1_555
Al10 Hf0 2.927045 1_555
Al10 Hf4 2.927045 1_555
Al11 Ru3 2.521644 1_455
Al11 Ru2 2.521644 1_545
Al11 Ru4 2.521645 1_554
Al11 Al2 2.760908 1_555
Al11 Hf2 2.927052 1_555
Al11 Hf1 2.927052 1_555
Al11 Hf3 2.927052 1_555
Ru0 Ti2 2.550632 1_544
Ru0 Ti1 2.550632 1_454
Ru0 Ti0 2.550632 1_445
Ru0 Ti3 2.550639 1_444
Ru1 Ti3 2.700044 1_555
Ru1 Ti0 2.700051 1_555
Ru2 Ti0 2.700044 1_555
Ru2 Ti2 2.700044 1_555
Ru3 Ti0 2.700044 1_555
Ru3 Ti1 2.700044 1_555
Ru4 Ti1 2.700044 1_555
Ru4 Ti2 2.700044 1_555
Ru5 Ti3 2.700043 1_555
Ru5 Ti1 2.700051 1_555
Ru6 Ti3 2.700043 1_555
Ru6 Ti2 2.700051 1_555
