# generated using pymatgen
data_DyBr2
_symmetry_space_group_name_H-M   'P 1'
_cell_length_a   6.68903700
_cell_length_b   7.74860700
_cell_length_c   13.13765300
_cell_angle_alpha   90.00000000
_cell_angle_beta   90.00000000
_cell_angle_gamma   90.00000000
_symmetry_Int_Tables_number   1
_chemical_formula_structural   DyBr2
_chemical_formula_sum   'Dy8 Br16'
_cell_volume   680.93399993
_cell_formula_units_Z   8
loop_
 _symmetry_equiv_pos_site_id
 _symmetry_equiv_pos_as_xyz
  1  'x, y, z'
loop_
 _atom_site_type_symbol
 _atom_site_label
 _atom_site_symmetry_multiplicity
 _atom_site_fract_x
 _atom_site_fract_y
 _atom_site_fract_z
 _atom_site_occupancy
  Dy  Dy0  1  0.65562800  0.04752600  0.09778200  1
  Dy  Dy1  1  0.15562800  0.95247400  0.40221800  1
  Dy  Dy2  1  0.84437200  0.54752600  0.90221800  1
  Dy  Dy3  1  0.34437200  0.45247400  0.59778200  1
  Dy  Dy4  1  0.34437200  0.95247400  0.90221800  1
  Dy  Dy5  1  0.84437200  0.04752600  0.59778200  1
  Dy  Dy6  1  0.15562800  0.45247400  0.09778200  1
  Dy  Dy7  1  0.65562800  0.54752600  0.40221800  1
  Br  Br0  1  0.02293800  0.79750100  0.03846600  1
  Br  Br1  1  0.52293800  0.20249900  0.46153400  1
  Br  Br2  1  0.47706200  0.29750100  0.96153400  1
  Br  Br3  1  0.97706200  0.70249900  0.53846600  1
  Br  Br4  1  0.97706200  0.20249900  0.96153400  1
  Br  Br5  1  0.47706200  0.79750100  0.53846600  1
  Br  Br6  1  0.52293800  0.70249900  0.03846600  1
  Br  Br7  1  0.02293800  0.29750100  0.46153400  1
  Br  Br8  1  0.78706100  0.37213000  0.20987100  1
  Br  Br9  1  0.28706100  0.62787000  0.29012900  1
  Br  Br10  1  0.71293900  0.87213000  0.79012900  1
  Br  Br11  1  0.21293900  0.12787000  0.70987100  1
  Br  Br12  1  0.21293900  0.62787000  0.79012900  1
  Br  Br13  1  0.71293900  0.37213000  0.70987100  1
  Br  Br14  1  0.28706100  0.12787000  0.20987100  1
  Br  Br15  1  0.78706100  0.87213000  0.29012900  1
loop_
_geom_bond_atom_site_label_1
_geom_bond_atom_site_label_2
_geom_bond_distance
_geom_bond_site_symmetry_2
Br0 Dy2 2.895256 1_454
Br0 Dy6 2.922761 1_555
Br0 Dy4 3.044481 1_554
Br0 Dy0 3.224466 1_465
Br1 Dy3 2.895256 1_555
Br1 Dy7 2.922761 1_555
Br1 Dy5 3.044481 1_555
Br1 Dy1 3.224466 1_545
Br2 Dy0 2.895256 1_556
Br2 Dy4 2.922761 1_545
Br2 Dy6 3.044481 1_556
Br2 Dy2 3.224466 1_555
Br3 Dy1 2.895256 1_655
Br3 Dy5 2.922761 1_565
Br3 Dy7 3.044481 1_555
Br3 Dy3 3.224466 1_655
Br4 Dy6 2.895256 1_656
Br4 Dy2 2.922761 1_555
Br4 Dy0 3.044481 1_556
Br4 Dy4 3.224466 1_645
Br5 Dy7 2.895256 1_555
Br5 Dy3 2.922761 1_555
Br5 Dy1 3.044481 1_555
Br5 Dy5 3.224466 1_565
Br6 Dy4 2.895256 1_554
Br6 Dy0 2.922761 1_565
Br6 Dy2 3.044481 1_554
Br6 Dy6 3.224466 1_555
Br7 Dy5 2.895256 1_455
Br7 Dy1 2.922761 1_545
Br7 Dy3 3.044481 1_555
Br7 Dy7 3.224466 1_455
Br8 Dy6 2.938380 1_655
Br8 Dy7 3.000946 1_555
Br8 Dy0 3.044308 1_555
Br9 Dy7 2.938380 1_555
Br9 Dy6 3.000946 1_555
Br9 Dy1 3.044308 1_555
Br10 Dy4 2.938380 1_555
Br10 Dy5 3.000946 1_565
Br10 Dy2 3.044308 1_555
Br11 Dy5 2.938380 1_455
Br11 Dy4 3.000946 1_545
Br11 Dy3 3.044308 1_555
Br12 Dy2 2.938380 1_455
Br12 Dy3 3.000946 1_555
Br12 Dy4 3.044308 1_555
Br13 Dy3 2.938380 1_555
Br13 Dy2 3.000946 1_555
Br13 Dy5 3.044308 1_555
Br14 Dy0 2.938380 1_555
Br14 Dy1 3.000946 1_545
Br14 Dy6 3.044308 1_555
Br15 Dy1 2.938380 1_655
Br15 Dy0 3.000946 1_565
Br15 Dy7 3.044308 1_555
