# generated using pymatgen
data_Na2PdAu3
_symmetry_space_group_name_H-M   'P 1'
_cell_length_a   5.46103564
_cell_length_b   5.54061321
_cell_length_c   5.54061344
_cell_angle_alpha   60.00000445
_cell_angle_beta   59.51678825
_cell_angle_gamma   59.51678845
_symmetry_Int_Tables_number   1
_chemical_formula_structural   Na2PdAu3
_chemical_formula_sum   'Na2 Pd1 Au3'
_cell_volume   117.66974728
_cell_formula_units_Z   1
loop_
 _symmetry_equiv_pos_site_id
 _symmetry_equiv_pos_as_xyz
  1  'x, y, z'
loop_
 _atom_site_type_symbol
 _atom_site_label
 _atom_site_symmetry_multiplicity
 _atom_site_fract_x
 _atom_site_fract_y
 _atom_site_fract_z
 _atom_site_occupancy
  Na  Na0  1  0.74747478  0.75084207  0.75084207  1
  Na  Na1  1  0.50252522  0.49915793  0.49915793  1
  Pd  Pd0  1  0.62500000  0.12500000  0.12500000  1
  Au  Au0  1  0.12500000  0.62500000  0.12500000  1
  Au  Au1  1  0.12500000  0.12500000  0.62500000  1
  Au  Au2  1  0.12500000  0.12500000  0.12500000  1
loop_
_geom_bond_atom_site_label_1
_geom_bond_atom_site_label_2
_geom_bond_distance
_geom_bond_site_symmetry_2
Na0 Pd0 3.244477 1_566
Na0 Pd0 3.244482 1_556
Na0 Pd0 3.244482 1_565
Na1 Pd0 3.244477 1_555
Na1 Pd0 3.244482 1_565
Na1 Pd0 3.244482 1_556
Au0 Pd0 2.730518 1_465
Au0 Pd0 2.730518 1_555
Au0 Au2 2.770307 1_565
Au0 Au2 2.770307 1_555
Au0 Au1 2.770307 1_555
Au0 Au1 2.770307 1_564
Au0 Na0 3.185731 1_554
Au0 Na1 3.185731 1_455
Au0 Na1 3.235223 1_555
Au0 Na0 3.235223 1_454
Au0 Na0 3.235228 1_455
Au0 Na1 3.235228 1_554
Au1 Pd0 2.730518 1_555
Au1 Pd0 2.730518 1_456
Au1 Au2 2.770307 1_555
Au1 Au2 2.770307 1_556
Au1 Na0 3.185731 1_545
Au1 Na1 3.185731 1_455
Au1 Na1 3.235223 1_555
Au1 Na0 3.235223 1_445
Au1 Na0 3.235228 1_455
Au1 Na1 3.235228 1_545
Au2 Pd0 2.730518 1_555
Au2 Pd0 2.730518 1_455
Au2 Na1 3.185729 1_455
Au2 Na0 3.185729 1_544
Au2 Na0 3.235226 1_454
Au2 Na1 3.235226 1_545
Au2 Na1 3.235226 1_554
Au2 Na0 3.235226 1_445
