# generated using pymatgen
data_Zr6AlAsC2
_symmetry_space_group_name_H-M   'P 1'
_cell_length_a   5.96219303
_cell_length_b   5.96219442
_cell_length_c   8.92168662
_cell_angle_alpha   90.00000000
_cell_angle_beta   90.00000000
_cell_angle_gamma   146.03019459
_symmetry_Int_Tables_number   1
_chemical_formula_structural   Zr6AlAsC2
_chemical_formula_sum   'Zr6 Al1 As1 C2'
_cell_volume   177.20716340
_cell_formula_units_Z   1
loop_
 _symmetry_equiv_pos_site_id
 _symmetry_equiv_pos_as_xyz
  1  'x, y, z'
loop_
 _atom_site_type_symbol
 _atom_site_label
 _atom_site_symmetry_multiplicity
 _atom_site_fract_x
 _atom_site_fract_y
 _atom_site_fract_z
 _atom_site_occupancy
  Zr  Zr0  1  0.95127639  0.04872361  0.75000000  1
  Zr  Zr1  1  0.05941487  0.94058513  0.25000000  1
  Zr  Zr2  1  0.62783528  0.37216472  0.54354104  1
  Zr  Zr3  1  0.36990469  0.63009531  0.44742429  1
  Zr  Zr4  1  0.36990469  0.63009531  0.05257571  1
  Zr  Zr5  1  0.62783528  0.37216472  0.95645896  1
  Al  Al0  1  0.24867398  0.75132602  0.75000000  1
  As  As0  1  0.74752712  0.25247288  0.25000000  1
  C  C0  1  0.99881385  0.00118615  0.49605929  1
  C  C1  1  0.99881385  0.00118615  0.00394071  1
loop_
_geom_bond_atom_site_label_1
_geom_bond_atom_site_label_2
_geom_bond_distance
_geom_bond_site_symmetry_2
Al0 Zr5 2.885368 1_455
Al0 Zr2 2.885368 1_455
Al0 Zr5 2.885369 1_565
Al0 Zr2 2.885369 1_565
Al0 Zr0 2.893438 1_565
Al0 Zr0 2.893439 1_455
Al0 Zr4 3.032929 1_556
Al0 Zr3 3.032929 1_555
Al0 Zr0 3.391601 1_465
As0 Zr1 2.763270 1_545
As0 Zr1 2.763271 1_655
As0 Zr3 2.843164 1_655
As0 Zr4 2.843164 1_655
As0 Zr3 2.843165 1_545
As0 Zr4 2.843165 1_545
As0 Zr2 2.953262 1_555
As0 Zr5 2.953262 1_554
C0 Zr1 2.301481 1_645
C0 Zr2 2.319026 1_655
C0 Zr2 2.319027 1_545
C0 Zr3 2.320116 1_545
C0 Zr3 2.320117 1_655
C0 Zr0 2.329540 1_555
C1 Zr1 2.301481 1_645
C1 Zr5 2.319026 1_654
C1 Zr5 2.319027 1_544
C1 Zr4 2.320116 1_545
C1 Zr4 2.320117 1_655
C1 Zr0 2.329540 1_554
