# generated using pymatgen
data_Zr16Co4Ir3Ru
_symmetry_space_group_name_H-M   'P 1'
_cell_length_a   8.65627370
_cell_length_b   8.65598491
_cell_length_c   8.65619911
_cell_angle_alpha   59.91469129
_cell_angle_beta   59.91475303
_cell_angle_gamma   59.91484322
_symmetry_Int_Tables_number   1
_chemical_formula_structural   Zr16Co4Ir3Ru
_chemical_formula_sum   'Zr16 Co4 Ir3 Ru1'
_cell_volume   457.74030410
_cell_formula_units_Z   1
loop_
 _symmetry_equiv_pos_site_id
 _symmetry_equiv_pos_as_xyz
  1  'x, y, z'
loop_
 _atom_site_type_symbol
 _atom_site_label
 _atom_site_symmetry_multiplicity
 _atom_site_fract_x
 _atom_site_fract_y
 _atom_site_fract_z
 _atom_site_occupancy
  Zr  Zr0  1  0.05958821  0.64670173  0.64669076  1
  Zr  Zr1  1  0.64668934  0.05958636  0.64669585  1
  Zr  Zr2  1  0.64668812  0.64670470  0.05958541  1
  Zr  Zr3  1  0.64591363  0.64594631  0.64593189  1
  Zr  Zr4  1  0.80221022  0.80219989  0.19772123  1
  Zr  Zr5  1  0.19733723  0.19731568  0.80220087  1
  Zr  Zr6  1  0.80219499  0.19772054  0.80219690  1
  Zr  Zr7  1  0.19731250  0.80221130  0.19731090  1
  Zr  Zr8  1  0.19772436  0.80219039  0.80220295  1
  Zr  Zr9  1  0.80222056  0.19729584  0.19732088  1
  Zr  Zr10  1  0.43668087  0.43669094  0.06571105  1
  Zr  Zr11  1  0.06354487  0.06349372  0.43667588  1
  Zr  Zr12  1  0.43668479  0.06569477  0.43669260  1
  Zr  Zr13  1  0.06353667  0.43668261  0.06349845  1
  Zr  Zr14  1  0.06572651  0.43668190  0.43667942  1
  Zr  Zr15  1  0.43668193  0.06350416  0.06351813  1
  Co  Co0  1  0.42425029  0.85824127  0.85824799  1
  Co  Co1  1  0.85824081  0.42424998  0.85824766  1
  Co  Co2  1  0.85823020  0.85823859  0.42426922  1
  Co  Co3  1  0.85885159  0.85885668  0.85885389  1
  Ir  Ir0  1  0.75092032  0.41593381  0.41591831  1
  Ir  Ir1  1  0.41590925  0.75093232  0.41592793  1
  Ir  Ir2  1  0.41590806  0.41593900  0.75091697  1
  Ru  Ru0  1  0.41695368  0.41698851  0.41698586  1
loop_
_geom_bond_atom_site_label_1
_geom_bond_atom_site_label_2
_geom_bond_distance
_geom_bond_site_symmetry_2
Zr0 Zr14 3.119630 1_555
Zr0 Zr11 3.131739 1_565
Zr0 Zr13 3.131913 1_556
Zr1 Zr12 3.119654 1_555
Zr1 Zr15 3.131946 1_556
Zr1 Zr11 3.132195 1_655
Zr3 Zr8 3.165868 1_555
Zr3 Zr4 3.165992 1_555
Zr3 Zr6 3.166023 1_555
Zr10 Zr2 3.119627 1_555
Zr10 Zr3 3.139594 1_554
Zr10 Zr7 3.205606 1_555
Zr10 Zr9 3.205874 1_555
Zr10 Zr14 3.206991 1_555
Zr10 Zr12 3.207172 1_555
Zr10 Zr8 3.228785 1_554
Zr10 Zr6 3.228913 1_554
Zr10 Zr13 3.239718 1_555
Zr10 Zr15 3.239852 1_555
Zr11 Zr8 3.217441 1_545
Zr11 Zr6 3.217602 1_455
Zr11 Zr15 3.225889 1_555
Zr11 Zr13 3.226142 1_555
Zr11 Zr7 3.227425 1_545
Zr11 Zr9 3.227640 1_455
Zr11 Zr12 3.239667 1_555
Zr11 Zr14 3.239835 1_555
Zr12 Zr3 3.139355 1_545
Zr12 Zr5 3.205667 1_555
Zr12 Zr9 3.205791 1_555
Zr12 Zr14 3.207054 1_555
Zr12 Zr8 3.228802 1_545
Zr12 Zr4 3.228853 1_545
Zr12 Zr15 3.239832 1_555
Zr13 Zr2 3.132160 1_455
Zr13 Zr8 3.217275 1_554
Zr13 Zr4 3.217505 1_455
Zr13 Zr15 3.225979 1_555
Zr13 Zr5 3.227465 1_554
Zr13 Zr9 3.227695 1_455
Zr13 Zr14 3.239870 1_555
Zr14 Zr3 3.139855 1_455
Zr14 Zr7 3.205607 1_555
Zr14 Zr5 3.205732 1_555
Zr14 Zr4 3.228881 1_455
Zr14 Zr6 3.228957 1_455
Zr15 Zr2 3.131739 1_545
Zr15 Zr6 3.217510 1_554
Zr15 Zr4 3.217573 1_545
Zr15 Zr7 3.227477 1_545
Zr15 Zr5 3.227489 1_554
Co0 Zr5 2.540832 1_565
Co0 Zr7 2.540872 1_556
Co0 Zr8 2.541516 1_555
Co0 Zr2 2.593821 1_556
Co0 Zr1 2.593841 1_565
Co0 Zr3 2.598397 1_555
Co0 Zr10 3.127560 1_556
Co0 Zr12 3.127666 1_565
Co0 Zr15 3.142329 1_566
Co1 Zr9 2.540953 1_556
Co1 Zr5 2.541061 1_655
Co1 Zr6 2.541498 1_555
Co1 Zr2 2.593884 1_556
Co1 Zr0 2.593928 1_655
Co1 Zr3 2.598634 1_555
Co1 Zr10 3.127716 1_556
Co1 Zr14 3.127772 1_655
Co1 Zr13 3.142484 1_656
Co2 Zr9 2.540812 1_565
Co2 Zr7 2.541051 1_655
Co2 Zr4 2.541470 1_555
Co2 Zr1 2.593773 1_565
Co2 Zr0 2.593840 1_655
Co2 Zr3 2.598388 1_555
Co2 Zr12 3.127649 1_565
Co2 Zr14 3.127661 1_655
Co2 Zr11 3.142485 1_665
Co3 Zr6 2.537985 1_565
Co3 Zr4 2.538125 1_556
Co3 Zr8 2.538149 1_655
Co3 Zr2 2.597541 1_556
Co3 Zr0 2.597549 1_655
Co3 Zr1 2.597610 1_565
Co3 Zr15 3.129955 1_566
Co3 Zr13 3.129959 1_656
Co3 Zr11 3.130019 1_665
Ir0 Ru0 2.881727 1_555
Ir0 Zr13 2.884944 1_655
Ir0 Zr11 2.885035 1_655
Ir0 Ir1 2.896111 1_555
Ir0 Ir2 2.896149 1_555
Ir0 Zr14 2.916239 1_655
Ir0 Zr3 3.016621 1_555
Ir0 Zr2 3.020643 1_555
Ir0 Zr1 3.020678 1_555
Ir0 Zr4 3.042989 1_555
Ir0 Zr6 3.043103 1_555
Ir0 Zr9 3.043790 1_555
Ir1 Ru0 2.881519 1_555
Ir1 Zr11 2.884447 1_565
Ir1 Zr15 2.884685 1_565
Ir1 Ir2 2.895975 1_555
Ir1 Zr12 2.915925 1_565
Ir1 Zr3 3.016621 1_555
Ir1 Zr0 3.020557 1_555
Ir1 Zr2 3.020682 1_555
Ir1 Zr8 3.043018 1_555
Ir1 Zr4 3.043266 1_555
Ir1 Zr7 3.043777 1_555
Ir2 Ru0 2.881512 1_555
Ir2 Zr13 2.884583 1_556
Ir2 Zr15 2.884904 1_556
Ir2 Zr10 2.916188 1_556
Ir2 Zr3 3.016605 1_555
Ir2 Zr0 3.020545 1_555
Ir2 Zr1 3.020678 1_555
Ir2 Zr8 3.042871 1_555
Ir2 Zr6 3.043210 1_555
Ir2 Zr5 3.043563 1_555
Ru0 Zr14 2.879508 1_555
Ru0 Zr10 2.879729 1_555
Ru0 Zr12 2.879784 1_555
Ru0 Zr0 3.017786 1_555
Ru0 Zr1 3.018006 1_555
Ru0 Zr2 3.018021 1_555
Ru0 Zr5 3.043097 1_555
Ru0 Zr7 3.043203 1_555
Ru0 Zr9 3.043552 1_555
