# generated using pymatgen
data_Sr2Ga4IrRh3
_symmetry_space_group_name_H-M   'P 1'
_cell_length_a   8.52360049
_cell_length_b   7.30794187
_cell_length_c   6.00041492
_cell_angle_alpha   78.98084836
_cell_angle_beta   57.30753628
_cell_angle_gamma   43.72489950
_symmetry_Int_Tables_number   1
_chemical_formula_structural   Sr2Ga4IrRh3
_chemical_formula_sum   'Sr2 Ga4 Ir1 Rh3'
_cell_volume   204.27373639
_cell_formula_units_Z   1
loop_
 _symmetry_equiv_pos_site_id
 _symmetry_equiv_pos_as_xyz
  1  'x, y, z'
loop_
 _atom_site_type_symbol
 _atom_site_label
 _atom_site_symmetry_multiplicity
 _atom_site_fract_x
 _atom_site_fract_y
 _atom_site_fract_z
 _atom_site_occupancy
  Sr  Sr0  1  0.50011808  0.50014088  0.49988359  1
  Sr  Sr1  1  0.74909464  0.74906114  0.75093620  1
  Ga  Ga0  1  0.81705006  0.18314018  0.82112700  1
  Ga  Ga1  1  0.18304878  0.81712515  0.17871507  1
  Ga  Ga2  1  0.43258998  0.06819261  0.42922252  1
  Ga  Ga3  1  0.06831104  0.43255438  0.06989861  1
  Ir  Ir0  1  0.11681164  0.11680700  0.88318786  1
  Rh  Rh0  1  0.88370587  0.88373106  0.11629252  1
  Rh  Rh1  1  0.13300039  0.13298872  0.36699095  1
  Rh  Rh2  1  0.36626852  0.36625889  0.13374468  1
loop_
_geom_bond_atom_site_label_1
_geom_bond_atom_site_label_2
_geom_bond_distance
_geom_bond_site_symmetry_2
Ga0 Rh2 2.411376 1_556
Ga0 Rh1 2.416635 1_655
Ga0 Rh0 2.460913 1_546
Ga0 Ir0 2.463860 1_655
Ga0 Sr0 3.354538 1_555
Ga0 Sr0 3.453776 1_556
Ga0 Sr0 3.475516 1_645
Ga0 Sr1 3.708423 1_555
Ga0 Sr1 3.742442 1_545
Ga1 Rh2 2.411554 1_555
Ga1 Rh1 2.416531 1_565
Ga1 Rh0 2.460680 1_455
Ga1 Ir0 2.463627 1_564
Ga1 Sr0 3.354866 1_555
Ga1 Sr0 3.453736 1_554
Ga1 Sr0 3.475195 1_465
Ga1 Sr1 3.708832 1_554
Ga1 Sr1 3.742329 1_455
Ga2 Rh0 2.409239 1_545
Ga2 Ir0 2.420428 1_555
Ga2 Rh2 2.456515 1_555
Ga2 Rh1 2.469666 1_555
Ga2 Sr1 3.354798 1_545
Ga2 Sr1 3.457711 1_544
Ga2 Sr1 3.471414 1_455
Ga2 Sr0 3.725163 1_555
Ga2 Sr0 3.725796 1_545
Ga3 Rh0 2.409128 1_455
Ga3 Ir0 2.420673 1_554
Ga3 Rh2 2.456243 1_555
Ga3 Rh1 2.469795 1_555
Ga3 Sr1 3.354593 1_454
Ga3 Sr1 3.458134 1_455
Ga3 Sr1 3.471223 1_544
Ga3 Sr0 3.724468 1_554
Ga3 Sr0 3.726577 1_455
Ir0 Sr0 3.292042 1_545
Ir0 Sr0 3.292218 1_456
Ir0 Sr1 3.486594 1_455
Ir0 Sr1 3.486922 1_545
Rh0 Sr0 3.290405 1_565
Rh0 Sr0 3.290426 1_654
Rh0 Sr1 3.502181 1_554
Rh0 Sr1 3.502316 1_555
Rh1 Sr1 3.288298 1_544
Rh1 Sr1 3.288363 1_455
Rh1 Sr0 3.490784 1_545
Rh1 Sr0 3.490895 1_455
Rh2 Sr1 3.295362 1_455
Rh2 Sr1 3.295368 1_544
Rh2 Sr0 3.496887 1_554
Rh2 Sr0 3.496904 1_555
