# generated using pymatgen
data_K4Al2S5
_symmetry_space_group_name_H-M   'P 1'
_cell_length_a   7.21067367
_cell_length_b   8.90036873
_cell_length_c   10.15031118
_cell_angle_alpha   72.89804565
_cell_angle_beta   71.19206157
_cell_angle_gamma   84.65324036
_symmetry_Int_Tables_number   1
_chemical_formula_structural   K4Al2S5
_chemical_formula_sum   'K8 Al4 S10'
_cell_volume   589.37322530
_cell_formula_units_Z   2
loop_
 _symmetry_equiv_pos_site_id
 _symmetry_equiv_pos_as_xyz
  1  'x, y, z'
loop_
 _atom_site_type_symbol
 _atom_site_label
 _atom_site_symmetry_multiplicity
 _atom_site_fract_x
 _atom_site_fract_y
 _atom_site_fract_z
 _atom_site_occupancy
  K  K0  1  0.49800348  0.78909325  0.91920677  1
  K  K1  1  0.50199652  0.21090675  0.08079323  1
  K  K2  1  0.54771036  0.19365408  0.54005711  1
  K  K3  1  0.45228964  0.80634592  0.45994289  1
  K  K4  1  0.11499631  0.17408155  0.90650988  1
  K  K5  1  0.88500369  0.82591845  0.09349012  1
  K  K6  1  0.77769899  0.47015042  0.65620254  1
  K  K7  1  0.22230101  0.52984958  0.34379746  1
  Al  Al0  1  0.03182867  0.00940830  0.34399894  1
  Al  Al1  1  0.96817133  0.99059170  0.65600106  1
  Al  Al2  1  0.88251382  0.41621366  0.16052059  1
  Al  Al3  1  0.11748618  0.58378634  0.83947941  1
  S  S0  1  0.83737351  0.84834151  0.55465685  1
  S  S1  1  0.16262649  0.15165849  0.44534315  1
  S  S2  1  0.82263905  0.15084288  0.22701969  1
  S  S3  1  0.17736095  0.84915712  0.77298031  1
  S  S4  1  0.20594797  0.48028532  0.04631332  1
  S  S5  1  0.79405203  0.51971468  0.95368668  1
  S  S6  1  0.73412601  0.52250753  0.33598099  1
  S  S7  1  0.26587399  0.47749247  0.66401901  1
  S  S8  1  0.25211028  0.89922305  0.19298517  1
  S  S9  1  0.74788972  0.10077695  0.80701483  1
loop_
_geom_bond_atom_site_label_1
_geom_bond_atom_site_label_2
_geom_bond_distance
_geom_bond_site_symmetry_2
K0 S3 3.057780 1_555
K0 S5 3.076065 1_555
K0 S8 3.150892 1_556
K0 S9 3.160632 1_565
K0 S4 3.300746 1_556
K0 S0 3.634939 1_555
K1 S2 3.057780 1_555
K1 S4 3.076065 1_555
K1 S9 3.150892 1_554
K1 S8 3.160632 1_545
K1 S5 3.300746 1_554
K1 S1 3.634939 1_555
K2 S6 3.168044 1_555
K2 S2 3.268175 1_555
K2 S1 3.301533 1_555
K2 S9 3.330388 1_555
K2 S7 3.370332 1_555
K2 S0 3.544812 1_545
K3 S7 3.168044 1_555
K3 S3 3.268175 1_555
K3 S0 3.301533 1_555
K3 S8 3.330388 1_555
K3 S6 3.370332 1_555
K3 S1 3.544812 1_565
K4 S7 3.073437 1_555
K4 S2 3.214655 1_456
K4 S9 3.299360 1_455
K4 S3 3.474559 1_545
K4 S8 3.554807 1_546
K5 S6 3.073437 1_555
K5 S3 3.214655 1_654
K5 S8 3.299360 1_655
K5 S2 3.474559 1_565
K5 S9 3.554807 1_564
K6 S9 3.187040 1_555
K6 S5 3.216978 1_555
K6 S0 3.243637 1_555
K6 S6 3.258986 1_555
K6 S7 3.553514 1_655
K6 S7 3.660658 1_555
K7 S8 3.187040 1_555
K7 S4 3.216978 1_555
K7 S1 3.243637 1_555
K7 S7 3.258986 1_555
K7 S6 3.553514 1_455
K7 S6 3.660658 1_555
Al0 S8 2.204135 1_545
Al0 S1 2.272607 1_555
Al0 S2 2.278515 1_455
Al0 S0 2.287309 1_445
Al1 S9 2.204135 1_565
Al1 S0 2.272607 1_555
Al1 S3 2.278515 1_655
Al1 S1 2.287309 1_665
Al2 S6 2.187543 1_555
Al2 S4 2.285587 1_655
Al2 S5 2.297735 1_554
Al2 S2 2.298924 1_555
Al3 S7 2.187543 1_555
Al3 S5 2.285587 1_455
Al3 S4 2.297735 1_556
Al3 S3 2.298924 1_555
