# generated using pymatgen
data_U16N25
_symmetry_space_group_name_H-M   'P 1'
_cell_length_a   9.23648116
_cell_length_b   9.23648116
_cell_length_c   9.23648115
_cell_angle_alpha   109.53989644
_cell_angle_beta   109.53989644
_cell_angle_gamma   109.53989947
_symmetry_Int_Tables_number   1
_chemical_formula_structural   U16N25
_chemical_formula_sum   'U16 N25'
_cell_volume   605.04620821
_cell_formula_units_Z   1
loop_
 _symmetry_equiv_pos_site_id
 _symmetry_equiv_pos_as_xyz
  1  'x, y, z'
loop_
 _atom_site_type_symbol
 _atom_site_label
 _atom_site_symmetry_multiplicity
 _atom_site_fract_x
 _atom_site_fract_y
 _atom_site_fract_z
 _atom_site_occupancy
  U  U0  1  0.22733400  0.74906800  0.97863200  1
  U  U1  1  0.24975500  0.02194300  0.76910200  1
  U  U2  1  0.02083400  0.02083400  0.02083400  1
  U  U3  1  0.47820700  0.73122700  0.75175700  1
  U  U4  1  0.75175700  0.47820700  0.73122700  1
  U  U5  1  0.97863200  0.22733400  0.74906800  1
  U  U6  1  0.27358200  0.25092700  0.50625400  1
  U  U7  1  0.49909800  0.99553600  0.50038500  1
  U  U8  1  0.73122700  0.75175700  0.47820700  1
  U  U9  1  0.02194300  0.76910200  0.24975500  1
  U  U10  1  0.25092700  0.50625400  0.27358200  1
  U  U11  1  0.50625400  0.27358200  0.25092700  1
  U  U12  1  0.99553600  0.50038500  0.49909800  1
  U  U13  1  0.74906800  0.97863200  0.22733400  1
  U  U14  1  0.76910200  0.24975500  0.02194300  1
  U  U15  1  0.50038500  0.49909800  0.99553600  1
  N  N0  1  0.97548200  0.73973200  0.97720000  1
  N  N1  1  0.23646200  0.26574200  0.75954100  1
  N  N2  1  0.99944800  0.47232100  0.73517600  1
  N  N3  1  0.53161200  0.50504900  0.76125800  1
  N  N4  1  0.52286600  0.26453600  0.99410900  1
  N  N5  1  0.73149400  0.23269700  0.76276000  1
  N  N6  1  0.97720000  0.97548200  0.73973200  1
  N  N7  1  0.73973200  0.97720000  0.97548200  1
  N  N8  1  0.75954100  0.23646200  0.26574200  1
  N  N9  1  0.73517600  0.99944800  0.47232100  1
  N  N10  1  0.51287600  0.23070200  0.48013700  1
  N  N11  1  0.23070200  0.48013700  0.51287600  1
  N  N12  1  0.76125800  0.53161200  0.50504900  1
  N  N13  1  0.50504900  0.76125800  0.53161200  1
  N  N14  1  0.26453600  0.99410900  0.52286600  1
  N  N15  1  0.23269700  0.76276000  0.73149400  1
  N  N16  1  0.01506700  0.01971800  0.26898500  1
  N  N17  1  0.26898500  0.01506700  0.01971800  1
  N  N18  1  0.26574200  0.75954100  0.23646200  1
  N  N19  1  0.47232100  0.73517600  0.99944800  1
  N  N20  1  0.48013700  0.51287600  0.23070200  1
  N  N21  1  0.26738800  0.26738800  0.26738800  1
  N  N22  1  0.99410900  0.52286600  0.26453600  1
  N  N23  1  0.76276000  0.73149400  0.23269700  1
  N  N24  1  0.01971800  0.26898500  0.01506700  1
loop_
_geom_bond_atom_site_label_1
_geom_bond_atom_site_label_2
_geom_bond_distance
_geom_bond_site_symmetry_2
N0 U4 2.261906 1_555
N0 U0 2.294213 1_655
N0 U9 2.310398 1_656
N0 U2 2.353449 1_666
N1 U5 2.250398 1_455
N1 U15 2.264428 1_555
N1 U1 2.324736 1_555
N1 U6 2.441974 1_555
N2 U5 2.256873 1_555
N2 U12 2.270432 1_555
N2 U4 2.294992 1_555
N2 U0 2.326111 1_655
N3 U4 2.222945 1_555
N3 U15 2.292411 1_555
N3 U3 2.323427 1_555
N3 U6 2.354124 1_555
N4 U15 2.240712 1_555
N4 U14 2.257759 1_556
N4 U1 2.302263 1_555
N4 U11 2.403502 1_556
N5 U14 2.243046 1_556
N5 U7 2.258959 1_545
N5 U4 2.335905 1_555
N5 U5 2.343855 1_555
N6 U8 2.261906 1_555
N6 U5 2.294213 1_565
N6 U1 2.310398 1_665
N6 U2 2.353449 1_666
N7 U3 2.261906 1_555
N7 U13 2.294213 1_556
N7 U14 2.310398 1_566
N7 U2 2.353449 1_666
N8 U13 2.250399 1_545
N8 U12 2.264428 1_555
N8 U14 2.324736 1_555
N8 U11 2.441974 1_555
N9 U13 2.256873 1_555
N9 U7 2.270432 1_555
N9 U8 2.294992 1_555
N9 U5 2.326111 1_565
N10 U7 2.207254 1_545
N10 U4 2.264832 1_555
N10 U11 2.265650 1_555
N10 U6 2.362399 1_555
N11 U12 2.207254 1_455
N11 U3 2.264832 1_555
N11 U6 2.265650 1_555
N11 U10 2.362399 1_555
N12 U8 2.222945 1_555
N12 U12 2.292411 1_555
N12 U4 2.323427 1_555
N12 U11 2.354124 1_555
N13 U3 2.222945 1_555
N13 U7 2.292411 1_555
N13 U8 2.323427 1_555
N13 U10 2.354124 1_555
N14 U7 2.240712 1_555
N14 U1 2.257759 1_565
N14 U9 2.302263 1_555
N14 U6 2.403502 1_565
N15 U1 2.243046 1_565
N15 U12 2.258959 1_455
N15 U3 2.335905 1_555
N15 U0 2.343855 1_555
N16 U13 2.230413 1_445
N16 U6 2.241156 1_555
N16 U9 2.285779 1_545
N16 U2 2.313765 1_555
N17 U0 2.230413 1_544
N17 U11 2.241156 1_555
N17 U1 2.285779 1_554
N17 U2 2.313765 1_555
N18 U0 2.250399 1_554
N18 U7 2.264428 1_555
N18 U9 2.324736 1_555
N18 U10 2.441974 1_555
N19 U0 2.256873 1_555
N19 U15 2.270432 1_555
N19 U3 2.294992 1_555
N19 U13 2.326111 1_556
N20 U15 2.207254 1_554
N20 U8 2.264832 1_555
N20 U10 2.265650 1_555
N20 U11 2.362399 1_555
N21 U11 2.244959 1_555
N21 U6 2.244959 1_555
N21 U10 2.244959 1_555
N21 U2 2.269559 1_555
N22 U12 2.240712 1_555
N22 U9 2.257759 1_655
N22 U14 2.302263 1_555
N22 U10 2.403502 1_655
N23 U9 2.243046 1_655
N23 U15 2.258959 1_554
N23 U8 2.335905 1_555
N23 U13 2.343855 1_555
N24 U5 2.230413 1_454
N24 U10 2.241156 1_555
N24 U14 2.285779 1_455
N24 U2 2.313765 1_555
