# generated using pymatgen
data_MgV2(Ni10B3)2
_symmetry_space_group_name_H-M   'P 1'
_cell_length_a   7.35566553
_cell_length_b   7.35566544
_cell_length_c   7.35557369
_cell_angle_alpha   60.00649894
_cell_angle_beta   60.00649903
_cell_angle_gamma   60.00711196
_symmetry_Int_Tables_number   1
_chemical_formula_structural   MgV2(Ni10B3)2
_chemical_formula_sum   'Mg1 V2 Ni20 B6'
_cell_volume   281.45663463
_cell_formula_units_Z   1
loop_
 _symmetry_equiv_pos_site_id
 _symmetry_equiv_pos_as_xyz
  1  'x, y, z'
loop_
 _atom_site_type_symbol
 _atom_site_label
 _atom_site_symmetry_multiplicity
 _atom_site_fract_x
 _atom_site_fract_y
 _atom_site_fract_z
 _atom_site_occupancy
  Mg  Mg0  1  0.75013213  0.75013213  0.74967547  1
  V  V0  1  0.99999587  0.99999587  0.00002059  1
  V  V1  1  0.24998383  0.24998383  0.25001038  1
  Ni  Ni0  1  0.61238161  0.61238161  0.16284256  1
  Ni  Ni1  1  0.61237341  0.16284937  0.61238919  1
  Ni  Ni2  1  0.16284937  0.61237341  0.61238919  1
  Ni  Ni3  1  0.61237592  0.61237592  0.61238615  1
  Ni  Ni4  1  0.37862988  0.37862988  0.86411486  1
  Ni  Ni5  1  0.37861843  0.86411859  0.37864394  1
  Ni  Ni6  1  0.86411859  0.37861843  0.37864394  1
  Ni  Ni7  1  0.37861325  0.37861325  0.37863674  1
  Ni  Ni8  1  0.00138683  0.00138683  0.33767876  1
  Ni  Ni9  1  0.65956203  0.00138088  0.33766885  1
  Ni  Ni10  1  0.00138088  0.65956203  0.33766885  1
  Ni  Ni11  1  0.65956755  0.33765797  0.00139393  1
  Ni  Ni12  1  0.00138214  0.33766449  0.00140243  1
  Ni  Ni13  1  0.00137867  0.33765209  0.65958353  1
  Ni  Ni14  1  0.33765797  0.65956755  0.00139393  1
  Ni  Ni15  1  0.33765209  0.00137867  0.65958353  1
  Ni  Ni16  1  0.33766449  0.00138214  0.00140243  1
  Ni  Ni17  1  0.00138334  0.00138334  0.65958541  1
  Ni  Ni18  1  0.00138180  0.65956658  0.00140102  1
  Ni  Ni19  1  0.65956658  0.00138180  0.00140102  1
  B  B0  1  0.72952513  0.72952513  0.27048397  1
  B  B1  1  0.27046046  0.72952749  0.27048188  1
  B  B2  1  0.72952749  0.27046046  0.27048188  1
  B  B3  1  0.27045847  0.27045847  0.72954843  1
  B  B4  1  0.72952875  0.27046402  0.72954359  1
  B  B5  1  0.27046402  0.72952875  0.72954359  1
loop_
_geom_bond_atom_site_label_1
_geom_bond_atom_site_label_2
_geom_bond_distance
_geom_bond_site_symmetry_2
Mg0 Ni1 2.478943 1_565
Mg0 Ni2 2.478943 1_655
Mg0 Ni3 2.479101 1_555
Mg0 Ni0 2.481599 1_556
Mg0 Ni8 2.868910 1_665
Mg0 Ni10 2.869054 1_655
Mg0 Ni9 2.869054 1_565
Mg0 Ni17 2.869869 1_665
Mg0 Ni13 2.870518 1_655
Mg0 Ni15 2.870518 1_565
Mg0 Ni19 2.871376 1_566
Mg0 Ni18 2.871376 1_656
Mg0 Ni12 2.871881 1_656
Mg0 Ni16 2.871881 1_566
Mg0 Ni11 2.871983 1_556
Mg0 Ni14 2.871983 1_556
Ni4 V1 2.317798 1_556
Ni5 V1 2.317659 1_565
Ni6 V1 2.317659 1_655
Ni7 V1 2.317451 1_555
Ni8 V0 2.493941 1_445
Ni9 V0 2.494144 1_545
Ni10 V0 2.494144 1_455
Ni11 V0 2.494213 1_545
Ni12 V0 2.493997 1_445
Ni13 V0 2.494185 1_446
Ni14 V0 2.494213 1_455
Ni15 V0 2.494185 1_446
Ni16 V0 2.493997 1_445
Ni17 V0 2.493934 1_446
Ni18 V0 2.493953 1_455
Ni19 V0 2.493953 1_545
B0 Ni9 2.052476 1_565
B0 Ni10 2.052476 1_655
B0 Ni19 2.052659 1_565
B0 Ni18 2.052659 1_655
B0 Ni0 2.053864 1_555
B0 Ni3 2.053965 1_555
B0 Ni6 2.110679 1_555
B0 Ni5 2.110679 1_555
B1 Ni14 2.052474 1_555
B1 Ni10 2.052488 1_555
B1 Ni16 2.052671 1_565
B1 Ni8 2.052694 1_565
B1 Ni2 2.053990 1_555
B1 Ni0 2.054109 1_555
B1 Ni5 2.110401 1_555
B1 Ni7 2.110710 1_555
B2 Ni11 2.052474 1_555
B2 Ni9 2.052488 1_555
B2 Ni12 2.052671 1_655
B2 Ni8 2.052694 1_655
B2 Ni1 2.053990 1_555
B2 Ni0 2.054108 1_555
B2 Ni6 2.110401 1_555
B2 Ni7 2.110710 1_555
B3 Ni15 2.052472 1_555
B3 Ni13 2.052472 1_555
B3 Ni16 2.052666 1_556
B3 Ni12 2.052666 1_556
B3 Ni2 2.054074 1_555
B3 Ni1 2.054074 1_555
B3 Ni4 2.110380 1_555
B3 Ni7 2.110654 1_555
B4 Ni13 2.052453 1_655
B4 Ni11 2.052458 1_556
B4 Ni19 2.052661 1_556
B4 Ni17 2.052669 1_655
B4 Ni1 2.053842 1_555
B4 Ni3 2.054063 1_555
B4 Ni6 2.110596 1_555
B4 Ni4 2.110623 1_555
B5 Ni15 2.052453 1_565
B5 Ni14 2.052458 1_556
B5 Ni18 2.052661 1_556
B5 Ni17 2.052669 1_565
B5 Ni2 2.053842 1_555
B5 Ni3 2.054063 1_555
B5 Ni5 2.110596 1_555
B5 Ni4 2.110623 1_555
