# generated using pymatgen
data_LuCdCu3Pt
_symmetry_space_group_name_H-M   'P 1'
_cell_length_a   5.14320592
_cell_length_b   5.14320642
_cell_length_c   5.14320670
_cell_angle_alpha   58.57434625
_cell_angle_beta   58.57434141
_cell_angle_gamma   58.57435102
_symmetry_Int_Tables_number   1
_chemical_formula_structural   LuCdCu3Pt
_chemical_formula_sum   'Lu1 Cd1 Cu3 Pt1'
_cell_volume   93.06646034
_cell_formula_units_Z   1
loop_
 _symmetry_equiv_pos_site_id
 _symmetry_equiv_pos_as_xyz
  1  'x, y, z'
loop_
 _atom_site_type_symbol
 _atom_site_label
 _atom_site_symmetry_multiplicity
 _atom_site_fract_x
 _atom_site_fract_y
 _atom_site_fract_z
 _atom_site_occupancy
  Lu  Lu0  1  0.99756582  0.99756582  0.99756582  1
  Cd  Cd0  1  0.24672834  0.24672834  0.24672834  1
  Cu  Cu0  1  0.62600664  0.62600664  0.12739040  1
  Cu  Cu1  1  0.62600664  0.12739040  0.62600664  1
  Cu  Cu2  1  0.12739040  0.62600664  0.62600664  1
  Pt  Pt0  1  0.62630216  0.62630216  0.62630216  1
loop_
_geom_bond_atom_site_label_1
_geom_bond_atom_site_label_2
_geom_bond_distance
_geom_bond_site_symmetry_2
Lu0 Pt0 2.945082 1_556
Lu0 Pt0 2.945082 1_655
Lu0 Pt0 2.945083 1_565
Cd0 Cu1 2.945295 1_455
Cd0 Cu2 2.945295 1_545
Cd0 Cu0 2.945295 1_455
Cd0 Cu1 2.945295 1_554
Cd0 Cu0 2.945295 1_545
Cd0 Cu2 2.945295 1_554
Cd0 Pt0 2.964271 1_554
Cd0 Pt0 2.964271 1_455
Cd0 Pt0 2.964271 1_545
Cd0 Cu0 3.075425 1_555
Cd0 Cu1 3.075425 1_555
Cd0 Cu2 3.075425 1_555
Cd0 Lu0 3.096577 1_544
Cd0 Lu0 3.096577 1_445
Cd0 Lu0 3.096577 1_454
Cd0 Lu0 3.172404 1_444
Cu0 Cu2 2.509028 1_555
Cu0 Cu1 2.509028 1_555
Cu0 Cu2 2.522954 1_654
Cu0 Cu1 2.522954 1_564
Cu0 Pt0 2.567592 1_555
Cu0 Pt0 2.575616 1_554
Cu0 Lu0 2.982736 1_554
Cu0 Lu0 3.003966 1_454
Cu0 Lu0 3.003967 1_544
Cu1 Cu2 2.509028 1_555
Cu1 Cu2 2.522954 1_645
Cu1 Pt0 2.567592 1_555
Cu1 Pt0 2.575616 1_545
Cu1 Lu0 2.982736 1_545
Cu1 Lu0 3.003966 1_445
Cu1 Lu0 3.003967 1_544
Cu2 Pt0 2.567592 1_555
Cu2 Pt0 2.575616 1_455
Cu2 Lu0 2.982736 1_455
Cu2 Lu0 3.003966 1_445
Cu2 Lu0 3.003967 1_454
