# generated using pymatgen
data_Tm2MgS4
_symmetry_space_group_name_H-M   'P 1'
_cell_length_a   7.11790543
_cell_length_b   7.11790543
_cell_length_c   7.11790543
_cell_angle_alpha   110.43438841
_cell_angle_beta   110.43438841
_cell_angle_gamma   107.56159677
_symmetry_Int_Tables_number   1
_chemical_formula_structural   Tm2MgS4
_chemical_formula_sum   'Tm4 Mg2 S8'
_cell_volume   277.37944119
_cell_formula_units_Z   2
loop_
 _symmetry_equiv_pos_site_id
 _symmetry_equiv_pos_as_xyz
  1  'x, y, z'
loop_
 _atom_site_type_symbol
 _atom_site_label
 _atom_site_symmetry_multiplicity
 _atom_site_fract_x
 _atom_site_fract_y
 _atom_site_fract_z
 _atom_site_occupancy
  Tm  Tm0  1  0.24219400  0.62500000  0.11719400  1
  Tm  Tm1  1  0.37500000  0.49219400  0.61719400  1
  Tm  Tm2  1  0.50780600  0.12500000  0.88280600  1
  Tm  Tm3  1  0.87500000  0.75780600  0.38280600  1
  Mg  Mg0  1  0.75000000  0.25000000  0.50000000  1
  Mg  Mg1  1  0.00000000  0.00000000  0.00000000  1
  S  S0  1  0.13000800  0.75987700  0.76132000  1
  S  S1  1  0.61999200  0.88131100  0.12986900  1
  S  S2  1  0.24012300  0.00144200  0.37013100  1
  S  S3  1  0.50987700  0.38000800  0.26132000  1
  S  S4  1  0.75144200  0.49012300  0.87013100  1
  S  S5  1  0.63131100  0.86999200  0.62986900  1
  S  S6  1  0.99855800  0.36868900  0.23868000  1
  S  S7  1  0.11868900  0.24855800  0.73868000  1
loop_
_geom_bond_atom_site_label_1
_geom_bond_atom_site_label_2
_geom_bond_distance
_geom_bond_site_symmetry_2
Mg0 S3 2.586220 1_555
Mg0 S7 2.586222 1_655
Mg0 S4 2.586224 1_555
Mg0 S1 2.586224 1_545
Mg0 S0 3.129975 1_655
Mg0 S5 3.129976 1_545
Mg0 S2 3.129976 1_555
Mg0 S6 3.129983 1_555
Mg1 S0 2.586220 1_544
Mg1 S6 2.586222 1_455
Mg1 S2 2.586224 1_555
Mg1 S5 2.586224 1_444
Mg1 S3 3.129975 1_555
Mg1 S4 3.129976 1_444
Mg1 S1 3.129976 1_445
Mg1 S7 3.129983 1_554
S0 Tm3 2.663660 1_455
S0 Tm2 2.706114 1_565
S0 Tm0 2.953661 1_556
S0 Tm1 3.100492 1_555
S1 Tm3 2.663655 1_555
S1 Tm0 2.706111 1_555
S1 Tm2 2.953668 1_564
S1 Tm1 3.100490 1_554
S2 Tm0 2.663655 1_545
S2 Tm3 2.706111 1_445
S2 Tm1 2.953668 1_555
S2 Tm2 3.100490 1_555
S3 Tm2 2.663660 1_554
S3 Tm3 2.706114 1_555
S3 Tm1 2.953661 1_555
S3 Tm0 3.100492 1_555
S4 Tm1 2.663655 1_555
S4 Tm2 2.706111 1_555
S4 Tm0 2.953668 1_656
S4 Tm3 3.100490 1_556
S5 Tm2 2.663655 1_565
S5 Tm1 2.706111 1_555
S5 Tm3 2.953668 1_555
S5 Tm0 3.100490 1_555
S6 Tm1 2.663658 1_655
S6 Tm0 2.706106 1_655
S6 Tm2 2.953666 1_554
S6 Tm3 3.100491 1_555
S7 Tm0 2.663658 1_556
S7 Tm1 2.706106 1_555
S7 Tm3 2.953666 1_445
S7 Tm2 3.100491 1_555
