# generated using pymatgen
data_Zr6BeBr12
_symmetry_space_group_name_H-M   'P 1'
_cell_length_a   8.60298955
_cell_length_b   8.60299009
_cell_length_c   8.60298902
_cell_angle_alpha   107.22241163
_cell_angle_beta   107.22241302
_cell_angle_gamma   107.22241261
_symmetry_Int_Tables_number   1
_chemical_formula_structural   Zr6BeBr12
_chemical_formula_sum   'Zr6 Be1 Br12'
_cell_volume   527.01583130
_cell_formula_units_Z   1
loop_
 _symmetry_equiv_pos_site_id
 _symmetry_equiv_pos_as_xyz
  1  'x, y, z'
loop_
 _atom_site_type_symbol
 _atom_site_label
 _atom_site_symmetry_multiplicity
 _atom_site_fract_x
 _atom_site_fract_y
 _atom_site_fract_z
 _atom_site_occupancy
  Zr  Zr0  1  0.96710922  0.70052790  0.89905088  1
  Zr  Zr1  1  0.29947210  0.10094912  0.03289078  1
  Zr  Zr2  1  0.10094912  0.03289078  0.29947210  1
  Zr  Zr3  1  0.89905088  0.96710922  0.70052790  1
  Zr  Zr4  1  0.70052790  0.89905088  0.96710922  1
  Zr  Zr5  1  0.03289078  0.29947210  0.10094912  1
  Be  Be0  1  0.00000000  0.00000000  0.00000000  1
  Br  Br0  1  0.92055525  0.31185542  0.77338265  1
  Br  Br1  1  0.68814458  0.22661735  0.07944475  1
  Br  Br2  1  0.45029004  0.14624977  0.37313309  1
  Br  Br3  1  0.85375023  0.62686691  0.54970996  1
  Br  Br4  1  0.22661735  0.07944475  0.68814458  1
  Br  Br5  1  0.62686691  0.54970996  0.85375023  1
  Br  Br6  1  0.37313309  0.45029004  0.14624977  1
  Br  Br7  1  0.77338265  0.92055525  0.31185542  1
  Br  Br8  1  0.14624977  0.37313309  0.45029004  1
  Br  Br9  1  0.54970996  0.85375023  0.62686691  1
  Br  Br10  1  0.31185542  0.77338265  0.92055525  1
  Br  Br11  1  0.07944475  0.68814458  0.22661735  1
loop_
_geom_bond_atom_site_label_1
_geom_bond_atom_site_label_2
_geom_bond_distance
_geom_bond_site_symmetry_2
Be0 Zr2 2.360031 1_555
Be0 Zr3 2.360031 1_444
Be0 Zr1 2.360031 1_555
Be0 Zr4 2.360031 1_444
Be0 Zr5 2.360031 1_555
Be0 Zr0 2.360031 1_444
Br0 Zr5 2.740942 1_656
Br0 Zr3 2.780103 1_545
Br0 Zr0 3.052831 1_555
Br1 Zr4 2.740942 1_544
Br1 Zr5 2.780103 1_655
Br1 Zr1 3.052831 1_555
Br2 Zr2 2.674996 1_555
Br2 Zr1 2.679434 1_555
Br3 Zr0 2.674995 1_555
Br3 Zr3 2.679434 1_555
Br4 Zr3 2.740942 1_445
Br4 Zr1 2.780102 1_556
Br4 Zr2 3.052830 1_555
Br5 Zr4 2.674996 1_555
Br5 Zr0 2.679434 1_555
Br6 Zr1 2.674996 1_555
Br6 Zr5 2.679434 1_555
Br7 Zr2 2.740942 1_665
Br7 Zr4 2.780102 1_554
Br7 Zr3 3.052830 1_555
Br8 Zr5 2.674995 1_555
Br8 Zr2 2.679434 1_555
Br9 Zr3 2.674996 1_555
Br9 Zr4 2.679434 1_555
Br10 Zr1 2.740942 1_566
Br10 Zr0 2.780103 1_455
Br10 Zr4 3.052831 1_555
Br11 Zr0 2.740942 1_454
Br11 Zr2 2.780103 1_565
Br11 Zr5 3.052831 1_555
