# generated using pymatgen
data_Na2AlCuAs2
_symmetry_space_group_name_H-M   'P 1'
_cell_length_a   9.12658816
_cell_length_b   9.12658725
_cell_length_c   5.70156713
_cell_angle_alpha   90.00000000
_cell_angle_beta   90.00000000
_cell_angle_gamma   101.16362721
_symmetry_Int_Tables_number   1
_chemical_formula_structural   Na2AlCuAs2
_chemical_formula_sum   'Na8 Al4 Cu4 As8'
_cell_volume   465.92365323
_cell_formula_units_Z   4
loop_
 _symmetry_equiv_pos_site_id
 _symmetry_equiv_pos_as_xyz
  1  'x, y, z'
loop_
 _atom_site_type_symbol
 _atom_site_label
 _atom_site_symmetry_multiplicity
 _atom_site_fract_x
 _atom_site_fract_y
 _atom_site_fract_z
 _atom_site_occupancy
  Na  Na0  1  0.57254509  0.92745491  0.25000000  1
  Na  Na1  1  0.67509734  0.32490266  0.21872600  1
  Na  Na2  1  0.32490266  0.67509734  0.78127400  1
  Na  Na3  1  0.07254509  0.42745491  0.25000000  1
  Na  Na4  1  0.92745491  0.57254509  0.75000000  1
  Na  Na5  1  0.42745491  0.07254509  0.75000000  1
  Na  Na6  1  0.82490266  0.17509734  0.71872600  1
  Na  Na7  1  0.17509734  0.82490266  0.28127400  1
  Al  Al0  1  0.86847375  0.86847375  0.00000000  1
  Al  Al1  1  0.13152625  0.13152625  0.00000000  1
  Al  Al2  1  0.36847375  0.36847375  0.50000000  1
  Al  Al3  1  0.63152625  0.63152625  0.50000000  1
  Cu  Cu0  1  0.88265234  0.88265234  0.50000000  1
  Cu  Cu1  1  0.11734766  0.11734766  0.50000000  1
  Cu  Cu2  1  0.61734766  0.61734766  0.00000000  1
  Cu  Cu3  1  0.38265234  0.38265234  0.00000000  1
  As  As0  1  0.10692012  0.89307988  0.77482956  1
  As  As1  1  0.60692012  0.39307988  0.72517044  1
  As  As2  1  0.89307988  0.10692012  0.22517044  1
  As  As3  1  0.39307988  0.60692012  0.27482956  1
  As  As4  1  0.35735257  0.14264743  0.25000000  1
  As  As5  1  0.14264743  0.35735257  0.75000000  1
  As  As6  1  0.64264743  0.85735257  0.75000000  1
  As  As7  1  0.85735257  0.64264743  0.25000000  1
loop_
_geom_bond_atom_site_label_1
_geom_bond_atom_site_label_2
_geom_bond_distance
_geom_bond_site_symmetry_2
Al0 As7 2.491758 1_555
Al0 As6 2.491758 1_554
Al0 As2 2.499050 1_565
Al0 As0 2.499050 1_654
Al0 Cu0 2.855516 1_555
Al0 Cu0 2.855516 1_554
Al0 Cu2 2.910633 1_555
Al1 As5 2.491758 1_554
Al1 As4 2.491758 1_555
Al1 As0 2.499050 1_544
Al1 As2 2.499050 1_455
Al1 Cu1 2.855516 1_555
Al1 Cu1 2.855516 1_554
Al1 Cu3 2.910633 1_555
Al2 As4 2.491758 1_555
Al2 As5 2.491758 1_555
Al2 As3 2.499050 1_555
Al2 As1 2.499050 1_555
Al2 Cu3 2.855516 1_555
Al2 Cu3 2.855516 1_556
Al2 Cu1 2.910633 1_555
Al3 As6 2.491758 1_555
Al3 As7 2.491758 1_555
Al3 As1 2.499050 1_555
Al3 As3 2.499050 1_555
Al3 Cu2 2.855516 1_556
Al3 Cu2 2.855516 1_555
Al3 Cu0 2.910633 1_555
Cu0 Cu1 2.720195 1_665
Cu0 Na6 3.082436 1_565
Cu0 Na7 3.082436 1_655
Cu0 Na4 3.264538 1_555
Cu0 Na0 3.264538 1_555
Cu1 Na7 3.082436 1_545
Cu1 Na6 3.082436 1_455
Cu1 Na3 3.264538 1_555
Cu1 Na5 3.264538 1_555
Cu2 Cu3 2.720195 1_555
Cu2 Na1 3.082436 1_555
Cu2 Na2 3.082436 1_554
Cu2 Na0 3.264538 1_555
Cu2 Na4 3.264538 1_554
Cu3 Na2 3.082436 1_554
Cu3 Na1 3.082436 1_555
Cu3 Na5 3.264538 1_554
Cu3 Na3 3.264538 1_555
As0 Cu1 2.564835 1_565
As0 Cu0 2.564835 1_455
As0 Na7 2.973730 1_555
As0 Na7 3.043363 1_556
As0 Na4 3.066805 1_455
As0 Na5 3.066805 1_565
As0 Na2 3.074027 1_555
As1 Cu2 2.564835 1_556
As1 Cu3 2.564835 1_556
As1 Na1 2.973730 1_556
As1 Na1 3.043363 1_555
As1 Na5 3.066805 1_555
As1 Na4 3.066805 1_555
As1 Na6 3.074027 1_555
As2 Cu0 2.564835 1_545
As2 Cu1 2.564835 1_655
As2 Na6 2.973730 1_555
As2 Na6 3.043363 1_554
As2 Na3 3.066805 1_655
As2 Na0 3.066805 1_545
As2 Na1 3.074027 1_555
As3 Cu3 2.564835 1_555
As3 Cu2 2.564835 1_555
As3 Na2 2.973730 1_554
As3 Na2 3.043363 1_555
As3 Na0 3.066805 1_555
As3 Na3 3.066805 1_555
As3 Na7 3.074027 1_555
As4 Cu3 2.585957 1_555
As4 Cu1 2.585958 1_555
As4 Na5 3.017308 1_554
As4 Na5 3.017308 1_555
As4 Na0 3.034465 1_545
As4 Na7 3.056195 1_545
As4 Na1 3.056195 1_555
As5 Cu1 2.585957 1_555
As5 Cu3 2.585958 1_556
As5 Na3 3.017308 1_556
As5 Na3 3.017308 1_555
As5 Na4 3.034465 1_455
As5 Na2 3.056195 1_555
As5 Na6 3.056195 1_455
As6 Cu2 2.585957 1_556
As6 Cu0 2.585958 1_555
As6 Na0 3.017308 1_555
As6 Na0 3.017308 1_556
As6 Na5 3.034465 1_565
As6 Na6 3.056195 1_565
As6 Na2 3.056195 1_555
As7 Cu0 2.585957 1_555
As7 Cu2 2.585958 1_555
As7 Na4 3.017308 1_555
As7 Na4 3.017308 1_554
As7 Na3 3.034465 1_655
As7 Na1 3.056195 1_555
As7 Na7 3.056195 1_655
