# generated using pymatgen
data_Ca5Hg2Ir
_symmetry_space_group_name_H-M   'P 1'
_cell_length_a   7.91524486
_cell_length_b   7.98793169
_cell_length_c   9.17758495
_cell_angle_alpha   115.79790777
_cell_angle_beta   115.54498415
_cell_angle_gamma   90.00049153
_symmetry_Int_Tables_number   1
_chemical_formula_structural   Ca5Hg2Ir
_chemical_formula_sum   'Ca10 Hg4 Ir2'
_cell_volume   458.61168304
_cell_formula_units_Z   2
loop_
 _symmetry_equiv_pos_site_id
 _symmetry_equiv_pos_as_xyz
  1  'x, y, z'
loop_
 _atom_site_type_symbol
 _atom_site_label
 _atom_site_symmetry_multiplicity
 _atom_site_fract_x
 _atom_site_fract_y
 _atom_site_fract_z
 _atom_site_occupancy
  Ca  Ca0  1  0.99428778  0.01657765  0.00000478  1
  Ca  Ca1  1  0.49428800  0.48338895  0.99998435  1
  Ca  Ca2  1  0.46636552  0.31931077  0.27156725  1
  Ca  Ca3  1  0.96628074  0.45221977  0.27151280  1
  Ca  Ca4  1  0.31032283  0.78972018  0.28046335  1
  Ca  Ca5  1  0.81027425  0.99073882  0.28043011  1
  Ca  Ca6  1  0.19478225  0.04774487  0.72844067  1
  Ca  Ca7  1  0.69477025  0.18065938  0.72846014  1
  Ca  Ca8  1  0.02985896  0.50927173  0.71956135  1
  Ca  Ca9  1  0.52982972  0.71030360  0.71955364  1
  Hg  Hg0  1  0.87159653  0.62685424  0.99999314  1
  Hg  Hg1  1  0.37165197  0.87320184  0.00000875  1
  Hg  Hg2  1  0.25903177  0.25004828  0.50001449  1
  Hg  Hg3  1  0.75902937  0.75005118  0.50000903  1
  Ir  Ir0  1  0.62381900  0.12403867  0.99995837  1
  Ir  Ir1  1  0.12381406  0.37587305  0.00004178  1
loop_
_geom_bond_atom_site_label_1
_geom_bond_atom_site_label_2
_geom_bond_distance
_geom_bond_site_symmetry_2
Ca0 Ir1 3.047451 1_655
Ca0 Ir0 3.055291 1_554
Ca0 Hg1 3.198970 1_645
Ca0 Hg0 3.260975 1_544
Ca0 Ca7 3.361046 1_554
Ca0 Ca3 3.361073 1_555
Ca0 Ca5 3.533101 1_545
Ca0 Ca9 3.533220 1_544
Ca0 Ca6 3.569759 1_654
Ca0 Ca2 3.569864 1_655
Ca0 Hg3 3.630983 1_544
Ca0 Hg2 3.631092 1_655
Ca0 Ca8 3.830394 1_644
Ca0 Ca4 3.830571 1_645
Ca1 Ir0 3.048018 1_555
Ca1 Ir1 3.055846 1_556
Ca1 Hg0 3.198760 1_555
Ca1 Hg1 3.261537 1_556
Ca1 Ca6 3.361042 1_555
Ca1 Ca2 3.361179 1_556
Ca1 Ca8 3.533200 1_555
Ca1 Ca4 3.533309 1_556
Ca1 Ca3 3.569317 1_556
Ca1 Ca7 3.569453 1_555
Ca1 Hg2 3.630832 1_555
Ca1 Hg3 3.631227 1_556
Ca1 Ca9 3.830563 1_555
Ca1 Ca5 3.830568 1_556
Ca2 Ir1 2.986360 1_555
Ca2 Ir0 3.081384 1_554
Ca2 Hg1 3.182810 1_545
Ca2 Hg3 3.336594 1_555
Ca2 Hg2 3.372244 1_555
Ca3 Ir0 2.986319 1_554
Ca3 Ir1 3.080718 1_655
Ca3 Hg0 3.183099 1_554
Ca3 Hg2 3.336479 1_655
Ca3 Hg3 3.372403 1_555
Ca4 Ir1 3.008168 1_555
Ca4 Hg0 3.123051 1_454
Ca4 Hg1 3.142736 1_555
Ca4 Hg3 3.340394 1_555
Ca4 Hg2 3.464440 1_565
Ca5 Ir0 3.007815 1_564
Ca5 Hg1 3.122371 1_555
Ca5 Hg0 3.142367 1_554
Ca5 Hg2 3.340907 1_665
Ca5 Hg3 3.463983 1_555
Ca6 Ir1 2.986598 1_556
Ca6 Ir0 3.081102 1_555
Ca6 Hg1 3.182912 1_546
Ca6 Hg2 3.336626 1_555
Ca6 Hg3 3.372023 1_445
Ca7 Ir0 2.986007 1_555
Ca7 Ir1 3.081181 1_656
Ca7 Hg0 3.183302 1_555
Ca7 Hg3 3.335951 1_545
Ca7 Hg2 3.372457 1_555
Ca8 Ir1 3.008513 1_556
Ca8 Hg0 3.122784 1_455
Ca8 Hg1 3.142708 1_556
Ca8 Hg2 3.340468 1_555
Ca8 Hg3 3.464480 1_455
Ca9 Ir0 3.007405 1_565
Ca9 Hg1 3.122472 1_556
Ca9 Hg0 3.142472 1_555
Ca9 Hg3 3.340828 1_555
Ca9 Hg2 3.463846 1_555
Hg0 Ir1 2.829285 1_656
Hg1 Ir0 2.828443 1_564
