# generated using pymatgen
data_Sr10HgBi6As
_symmetry_space_group_name_H-M   'P 1'
_cell_length_a   9.84486506
_cell_length_b   9.84486577
_cell_length_c   7.76069250
_cell_angle_alpha   90.00000000
_cell_angle_beta   90.00000000
_cell_angle_gamma   120.00000092
_symmetry_Int_Tables_number   1
_chemical_formula_structural   Sr10HgBi6As
_chemical_formula_sum   'Sr10 Hg1 Bi6 As1'
_cell_volume   651.40437401
_cell_formula_units_Z   1
loop_
 _symmetry_equiv_pos_site_id
 _symmetry_equiv_pos_as_xyz
  1  'x, y, z'
loop_
 _atom_site_type_symbol
 _atom_site_label
 _atom_site_symmetry_multiplicity
 _atom_site_fract_x
 _atom_site_fract_y
 _atom_site_fract_z
 _atom_site_occupancy
  Sr  Sr0  1  0.66666700  0.33333300  0.00000000  1
  Sr  Sr1  1  0.33333300  0.66666700  0.00000000  1
  Sr  Sr2  1  0.33333300  0.66666700  0.50000000  1
  Sr  Sr3  1  0.66666700  0.33333300  0.50000000  1
  Sr  Sr4  1  0.74483446  0.74483446  0.78150950  1
  Sr  Sr5  1  0.25516554  1.00000000  0.78150950  1
  Sr  Sr6  1  0.00000000  0.25516554  0.78150950  1
  Sr  Sr7  1  0.25516554  0.25516554  0.21849050  1
  Sr  Sr8  1  0.74483446  0.00000000  0.21849050  1
  Sr  Sr9  1  1.00000000  0.74483446  0.21849050  1
  Hg  Hg0  1  0.00000000  0.00000000  0.50000000  1
  Bi  Bi0  1  0.39664810  0.39664810  0.74844007  1
  Bi  Bi1  1  0.60335190  1.00000000  0.74844007  1
  Bi  Bi2  1  0.00000000  0.60335190  0.74844007  1
  Bi  Bi3  1  0.60335190  0.60335190  0.25155993  1
  Bi  Bi4  1  0.39664810  0.00000000  0.25155993  1
  Bi  Bi5  1  1.00000000  0.39664810  0.25155993  1
  As  As0  1  0.00000000  0.00000000  0.00000000  1
loop_
_geom_bond_atom_site_label_1
_geom_bond_atom_site_label_2
_geom_bond_distance
_geom_bond_site_symmetry_2
Hg0 Sr5 3.329181 1_545
Hg0 Sr8 3.329181 1_455
Hg0 Sr7 3.329182 1_555
Hg0 Sr4 3.329182 1_445
Hg0 Sr6 3.329182 1_555
Hg0 Sr9 3.329182 1_445
Bi0 Sr6 3.437364 1_555
Bi0 Sr5 3.437364 1_545
Bi0 Sr4 3.437442 1_555
Bi0 Sr3 3.581834 1_555
Bi0 Sr2 3.581834 1_555
Bi0 Sr0 3.594925 1_556
Bi0 Sr1 3.594925 1_556
Bi0 Sr7 3.904792 1_556
Bi1 Sr6 3.437364 1_665
Bi1 Sr4 3.437364 1_555
Bi1 Sr5 3.437442 1_555
Bi1 Sr3 3.581826 1_565
Bi1 Sr2 3.581828 1_555
Bi1 Sr0 3.594917 1_566
Bi1 Sr1 3.594920 1_556
Bi1 Sr8 3.904792 1_566
Bi2 Sr4 3.437364 1_455
Bi2 Sr5 3.437364 1_555
Bi2 Sr6 3.437442 1_555
Bi2 Sr2 3.581825 1_555
Bi2 Sr3 3.581828 1_455
Bi2 Sr1 3.594917 1_556
Bi2 Sr0 3.594919 1_456
Bi2 Sr9 3.904792 1_456
Bi3 Sr9 3.437364 1_555
Bi3 Sr8 3.437364 1_565
Bi3 Sr7 3.437442 1_555
Bi3 Sr2 3.581834 1_555
Bi3 Sr3 3.581834 1_555
Bi3 Sr1 3.594925 1_555
Bi3 Sr0 3.594925 1_555
Bi3 Sr4 3.904792 1_554
Bi4 Sr9 3.437364 1_445
Bi4 Sr7 3.437364 1_555
Bi4 Sr8 3.437442 1_555
Bi4 Sr2 3.581826 1_545
Bi4 Sr3 3.581828 1_555
Bi4 Sr1 3.594917 1_545
Bi4 Sr0 3.594920 1_555
Bi4 Sr5 3.904792 1_544
Bi5 Sr7 3.437364 1_655
Bi5 Sr8 3.437364 1_555
Bi5 Sr9 3.437442 1_555
Bi5 Sr3 3.581825 1_555
Bi5 Sr2 3.581828 1_655
Bi5 Sr0 3.594917 1_555
Bi5 Sr1 3.594919 1_655
Bi5 Sr6 3.904792 1_654
As0 Sr5 3.030789 1_544
As0 Sr8 3.030789 1_455
As0 Sr7 3.030789 1_555
As0 Sr4 3.030789 1_444
As0 Sr6 3.030790 1_554
As0 Sr9 3.030790 1_445
