# generated using pymatgen
data_Rb4Ba2ZrP4
_symmetry_space_group_name_H-M   'P 1'
_cell_length_a   10.65073535
_cell_length_b   10.65073549
_cell_length_c   8.03515601
_cell_angle_alpha   88.37270771
_cell_angle_beta   88.37270972
_cell_angle_gamma   119.72616244
_symmetry_Int_Tables_number   1
_chemical_formula_structural   Rb4Ba2ZrP4
_chemical_formula_sum   'Rb8 Ba4 Zr2 P8'
_cell_volume   790.27838033
_cell_formula_units_Z   2
loop_
 _symmetry_equiv_pos_site_id
 _symmetry_equiv_pos_as_xyz
  1  'x, y, z'
loop_
 _atom_site_type_symbol
 _atom_site_label
 _atom_site_symmetry_multiplicity
 _atom_site_fract_x
 _atom_site_fract_y
 _atom_site_fract_z
 _atom_site_occupancy
  Rb  Rb0  1  0.05817887  0.52640847  0.61282501  1
  Rb  Rb1  1  0.52640847  0.05817887  0.11282501  1
  Rb  Rb2  1  0.27825821  0.13358104  0.82732085  1
  Rb  Rb3  1  0.87329597  0.73365388  0.76359641  1
  Rb  Rb4  1  0.86013046  0.14367117  0.79997177  1
  Rb  Rb5  1  0.73365388  0.87329597  0.26359641  1
  Rb  Rb6  1  0.13358104  0.27825821  0.32732085  1
  Rb  Rb7  1  0.14367117  0.86013046  0.29997177  1
  Ba  Ba0  1  0.46502018  0.93079258  0.60202635  1
  Ba  Ba1  1  0.46551700  0.52449039  0.61909676  1
  Ba  Ba2  1  0.93079258  0.46502018  0.10202635  1
  Ba  Ba3  1  0.52449039  0.46551700  0.11909676  1
  Zr  Zr0  1  0.66635600  0.33582556  0.51096775  1
  Zr  Zr1  1  0.33582556  0.66635600  0.01096775  1
  P  P0  1  0.67089683  0.35672307  0.82941976  1
  P  P1  1  0.35672307  0.67089683  0.32941976  1
  P  P2  1  0.58964884  0.78719716  0.87383745  1
  P  P3  1  0.20702035  0.40395994  0.92469630  1
  P  P4  1  0.20047613  0.78889789  0.90498859  1
  P  P5  1  0.40395994  0.20702035  0.42469630  1
  P  P6  1  0.78719716  0.58964884  0.37383745  1
  P  P7  1  0.78889789  0.20047613  0.40498859  1
loop_
_geom_bond_atom_site_label_1
_geom_bond_atom_site_label_2
_geom_bond_distance
_geom_bond_site_symmetry_2
Ba0 P2 3.295342 1_555
Ba0 P1 3.333500 1_555
Ba0 P4 3.365628 1_555
Ba0 P7 3.501664 1_565
Ba0 P5 3.580605 1_565
Ba1 P2 3.252225 1_555
Ba1 P1 3.306182 1_555
Ba1 P3 3.345084 1_555
Ba1 P5 3.530238 1_555
Ba1 P6 3.644791 1_555
Ba2 P6 3.295342 1_555
Ba2 P0 3.333500 1_554
Ba2 P7 3.365628 1_555
Ba2 P4 3.501664 1_654
Ba2 P3 3.580605 1_654
Ba3 P6 3.252225 1_555
Ba3 P0 3.306182 1_554
Ba3 P5 3.345084 1_555
Ba3 P3 3.530238 1_554
Ba3 P2 3.644791 1_554
P0 Zr0 2.574509 1_555
P0 Rb1 3.493062 1_556
P0 Rb3 3.503691 1_555
P0 Rb2 3.645096 1_555
P0 Rb4 3.715664 1_555
P1 Zr1 2.574509 1_555
P1 Rb0 3.493062 1_555
P1 Rb5 3.503691 1_555
P1 Rb6 3.645096 1_555
P1 Rb7 3.715664 1_555
P2 Zr1 2.545328 1_556
P2 Rb3 3.438293 1_555
P2 Rb4 3.463286 1_565
P2 Rb5 3.470222 1_556
P2 Rb1 3.826267 1_566
P3 Zr1 2.556328 1_556
P3 Rb6 3.382633 1_556
P3 Rb2 3.426637 1_555
P3 Rb4 3.542687 1_455
P3 Rb0 3.547390 1_555
P4 Zr1 2.525710 1_556
P4 Rb2 3.373039 1_565
P4 Rb7 3.390758 1_556
P4 Rb0 3.463657 1_555
P4 Rb3 3.465486 1_455
P4 Rb1 3.713886 1_566
P5 Zr0 2.556328 1_555
P5 Rb2 3.382633 1_555
P5 Rb6 3.426637 1_555
P5 Rb7 3.542687 1_545
P5 Rb1 3.547390 1_555
P6 Zr0 2.545328 1_555
P6 Rb5 3.438293 1_555
P6 Rb7 3.463286 1_655
P6 Rb3 3.470222 1_555
P6 Rb0 3.826267 1_655
P7 Zr0 2.525710 1_555
P7 Rb6 3.373039 1_655
P7 Rb4 3.390758 1_555
P7 Rb1 3.463657 1_555
P7 Rb5 3.465486 1_545
P7 Rb0 3.713886 1_655
