# generated using pymatgen
data_HfNbInC
_symmetry_space_group_name_H-M   'P 1'
_cell_length_a   6.45499097
_cell_length_b   6.45499044
_cell_length_c   29.50029832
_cell_angle_alpha   90.00000000
_cell_angle_beta   90.00000000
_cell_angle_gamma   120.00003322
_symmetry_Int_Tables_number   1
_chemical_formula_structural   HfNbInC
_chemical_formula_sum   'Hf16 Nb16 In16 C16'
_cell_volume   1064.50605667
_cell_formula_units_Z   16
loop_
 _symmetry_equiv_pos_site_id
 _symmetry_equiv_pos_as_xyz
  1  'x, y, z'
loop_
 _atom_site_type_symbol
 _atom_site_label
 _atom_site_symmetry_multiplicity
 _atom_site_fract_x
 _atom_site_fract_y
 _atom_site_fract_z
 _atom_site_occupancy
  Hf  Hf0_0  1  0.33333350  0.16666650  0.45862407  1
  Hf  Hf0_1  1  0.33333350  0.16666650  0.95862407  1
  Hf  Hf0_2  1  0.33333350  0.66666650  0.45862407  1
  Hf  Hf0_3  1  0.33333350  0.66666650  0.95862407  1
  Hf  Hf0_4  1  0.83333350  0.16666650  0.45862407  1
  Hf  Hf0_5  1  0.83333350  0.16666650  0.95862407  1
  Hf  Hf0_6  1  0.83333350  0.66666650  0.45862407  1
  Hf  Hf0_7  1  0.83333350  0.66666650  0.95862407  1
  Hf  Hf1_0  1  0.16666650  0.33333350  0.20862407  1
  Hf  Hf1_1  1  0.16666650  0.33333350  0.70862407  1
  Hf  Hf1_2  1  0.16666650  0.83333350  0.20862407  1
  Hf  Hf1_3  1  0.16666650  0.83333350  0.70862407  1
  Hf  Hf1_4  1  0.66666650  0.33333350  0.20862407  1
  Hf  Hf1_5  1  0.66666650  0.33333350  0.70862407  1
  Hf  Hf1_6  1  0.66666650  0.83333350  0.20862407  1
  Hf  Hf1_7  1  0.66666650  0.83333350  0.70862407  1
  Nb  Nb0_0  1  0.16666650  0.33333350  0.04223792  1
  Nb  Nb0_1  1  0.16666650  0.33333350  0.54223792  1
  Nb  Nb0_2  1  0.16666650  0.83333350  0.04223792  1
  Nb  Nb0_3  1  0.16666650  0.83333350  0.54223792  1
  Nb  Nb0_4  1  0.66666650  0.33333350  0.04223792  1
  Nb  Nb0_5  1  0.66666650  0.33333350  0.54223792  1
  Nb  Nb0_6  1  0.66666650  0.83333350  0.04223792  1
  Nb  Nb0_7  1  0.66666650  0.83333350  0.54223792  1
  Nb  Nb1_0  1  0.33333350  0.16666650  0.29223792  1
  Nb  Nb1_1  1  0.33333350  0.16666650  0.79223792  1
  Nb  Nb1_2  1  0.33333350  0.66666650  0.29223792  1
  Nb  Nb1_3  1  0.33333350  0.66666650  0.79223792  1
  Nb  Nb1_4  1  0.83333350  0.16666650  0.29223792  1
  Nb  Nb1_5  1  0.83333350  0.16666650  0.79223792  1
  Nb  Nb1_6  1  0.83333350  0.66666650  0.29223792  1
  Nb  Nb1_7  1  0.83333350  0.66666650  0.79223792  1
  In  In0_0  1  0.16666650  0.33333350  0.37351662  1
  In  In0_1  1  0.16666650  0.33333350  0.87351662  1
  In  In0_2  1  0.16666650  0.83333350  0.37351662  1
  In  In0_3  1  0.16666650  0.83333350  0.87351662  1
  In  In0_4  1  0.66666650  0.33333350  0.37351662  1
  In  In0_5  1  0.66666650  0.33333350  0.87351662  1
  In  In0_6  1  0.66666650  0.83333350  0.37351662  1
  In  In0_7  1  0.66666650  0.83333350  0.87351662  1
  In  In1_0  1  0.33333350  0.16666650  0.12351662  1
  In  In1_1  1  0.33333350  0.16666650  0.62351662  1
  In  In1_2  1  0.33333350  0.66666650  0.12351662  1
  In  In1_3  1  0.33333350  0.66666650  0.62351662  1
  In  In1_4  1  0.83333350  0.16666650  0.12351662  1
  In  In1_5  1  0.83333350  0.16666650  0.62351662  1
  In  In1_6  1  0.83333350  0.66666650  0.12351662  1
  In  In1_7  1  0.83333350  0.66666650  0.62351662  1
  C  C0_0  1  0.00000000  0.00000000  0.00062139  1
  C  C0_1  1  0.00000000  0.00000000  0.50062139  1
  C  C0_2  1  0.00000000  0.50000000  0.00062139  1
  C  C0_3  1  0.00000000  0.50000000  0.50062139  1
  C  C0_4  1  0.50000000  0.00000000  0.00062139  1
  C  C0_5  1  0.50000000  0.00000000  0.50062139  1
  C  C0_6  1  0.50000000  0.50000000  0.00062139  1
  C  C0_7  1  0.50000000  0.50000000  0.50062139  1
  C  C1_0  1  0.00000000  0.00000000  0.25062139  1
  C  C1_1  1  0.00000000  0.00000000  0.75062139  1
  C  C1_2  1  0.00000000  0.50000000  0.25062139  1
  C  C1_3  1  0.00000000  0.50000000  0.75062139  1
  C  C1_4  1  0.50000000  0.00000000  0.25062139  1
  C  C1_5  1  0.50000000  0.00000000  0.75062139  1
  C  C1_6  1  0.50000000  0.50000000  0.25062139  1
  C  C1_7  1  0.50000000  0.50000000  0.75062139  1
loop_
_geom_bond_atom_site_label_1
_geom_bond_atom_site_label_2
_geom_bond_distance
_geom_bond_site_symmetry_2
Hf0_0 In0_2 3.126631 1_545
Hf0_0 In0_4 3.126631 1_555
Hf0_0 In0_0 3.126635 1_555
Hf0_1 In0_3 3.126631 1_545
Hf0_1 In0_5 3.126631 1_555
Hf0_1 In0_1 3.126635 1_555
Hf0_2 In0_0 3.126631 1_555
Hf0_2 In0_6 3.126631 1_555
Hf0_2 In0_2 3.126635 1_555
Hf0_3 In0_1 3.126631 1_555
Hf0_3 In0_7 3.126631 1_555
Hf0_3 In0_3 3.126635 1_555
Hf0_4 In0_6 3.126631 1_545
Hf0_4 In0_0 3.126631 1_655
Hf0_4 In0_4 3.126635 1_555
Hf0_5 In0_7 3.126631 1_545
Hf0_5 In0_1 3.126631 1_655
Hf0_5 In0_5 3.126635 1_555
Hf0_6 In0_4 3.126631 1_555
Hf0_6 In0_2 3.126631 1_655
Hf0_6 In0_6 3.126635 1_555
Hf0_7 In0_5 3.126631 1_555
Hf0_7 In0_3 3.126631 1_655
Hf0_7 In0_7 3.126635 1_555
Hf1_0 In1_2 3.126631 1_555
Hf1_0 In1_4 3.126631 1_455
Hf1_0 In1_0 3.126635 1_555
Hf1_1 In1_3 3.126631 1_555
Hf1_1 In1_5 3.126631 1_455
Hf1_1 In1_1 3.126635 1_555
Hf1_2 In1_0 3.126631 1_565
Hf1_2 In1_6 3.126631 1_455
Hf1_2 In1_2 3.126635 1_555
Hf1_3 In1_1 3.126631 1_565
Hf1_3 In1_7 3.126631 1_455
Hf1_3 In1_3 3.126635 1_555
Hf1_4 In1_6 3.126631 1_555
Hf1_4 In1_0 3.126631 1_555
Hf1_4 In1_4 3.126635 1_555
Hf1_5 In1_7 3.126631 1_555
Hf1_5 In1_1 3.126631 1_555
Hf1_5 In1_5 3.126635 1_555
Hf1_6 In1_4 3.126631 1_565
Hf1_6 In1_2 3.126631 1_555
Hf1_6 In1_6 3.126635 1_555
Hf1_7 In1_5 3.126631 1_565
Hf1_7 In1_3 3.126631 1_555
Hf1_7 In1_7 3.126635 1_555
In0_0 Nb1_2 3.036679 1_555
In0_0 Nb1_4 3.036679 1_455
In0_0 Nb1_0 3.036683 1_555
In0_0 In0_6 3.227494 1_445
In0_0 In0_6 3.227494 1_555
In0_0 In0_2 3.227495 1_555
In0_0 In0_2 3.227495 1_545
In0_0 In0_4 3.227495 1_455
In0_0 In0_4 3.227495 1_555
In0_1 Nb1_3 3.036679 1_555
In0_1 Nb1_5 3.036679 1_455
In0_1 Nb1_1 3.036683 1_555
In0_1 In0_7 3.227494 1_445
In0_1 In0_7 3.227494 1_555
In0_1 In0_3 3.227495 1_555
In0_1 In0_3 3.227495 1_545
In0_1 In0_5 3.227495 1_455
In0_1 In0_5 3.227495 1_555
In0_2 Nb1_0 3.036679 1_565
In0_2 Nb1_6 3.036679 1_455
In0_2 Nb1_2 3.036683 1_555
In0_2 In0_4 3.227494 1_455
In0_2 In0_4 3.227494 1_565
In0_2 In0_6 3.227495 1_555
In0_2 In0_6 3.227495 1_455
In0_3 Nb1_1 3.036679 1_565
In0_3 Nb1_7 3.036679 1_455
In0_3 Nb1_3 3.036683 1_555
In0_3 In0_5 3.227494 1_455
In0_3 In0_5 3.227494 1_565
In0_3 In0_7 3.227495 1_555
In0_3 In0_7 3.227495 1_455
In0_4 Nb1_6 3.036679 1_555
In0_4 Nb1_0 3.036679 1_555
In0_4 Nb1_4 3.036683 1_555
In0_4 In0_6 3.227495 1_545
In0_4 In0_6 3.227495 1_555
In0_5 Nb1_7 3.036679 1_555
In0_5 Nb1_1 3.036679 1_555
In0_5 Nb1_5 3.036683 1_555
In0_5 In0_7 3.227495 1_545
In0_5 In0_7 3.227495 1_555
In0_6 Nb1_4 3.036679 1_565
In0_6 Nb1_2 3.036679 1_555
In0_6 Nb1_6 3.036683 1_555
In0_7 Nb1_5 3.036679 1_565
In0_7 Nb1_3 3.036679 1_555
In0_7 Nb1_7 3.036683 1_555
In1_0 Nb0_2 3.036679 1_545
In1_0 Nb0_4 3.036679 1_555
In1_0 Nb0_0 3.036683 1_555
In1_0 In1_6 3.227494 1_445
In1_0 In1_6 3.227494 1_555
In1_0 In1_2 3.227495 1_545
In1_0 In1_2 3.227495 1_555
In1_0 In1_4 3.227495 1_555
In1_0 In1_4 3.227495 1_455
In1_1 Nb0_3 3.036679 1_545
In1_1 Nb0_5 3.036679 1_555
In1_1 Nb0_1 3.036683 1_555
In1_1 In1_7 3.227494 1_555
In1_1 In1_7 3.227494 1_445
In1_1 In1_3 3.227495 1_555
In1_1 In1_3 3.227495 1_545
In1_1 In1_5 3.227495 1_555
In1_1 In1_5 3.227495 1_455
In1_2 Nb0_0 3.036679 1_555
In1_2 Nb0_6 3.036679 1_555
In1_2 Nb0_2 3.036683 1_555
In1_2 In1_4 3.227494 1_565
In1_2 In1_4 3.227494 1_455
In1_2 In1_6 3.227495 1_555
In1_2 In1_6 3.227495 1_455
In1_3 Nb0_1 3.036679 1_555
In1_3 Nb0_7 3.036679 1_555
In1_3 Nb0_3 3.036683 1_555
In1_3 In1_5 3.227494 1_565
In1_3 In1_5 3.227494 1_455
In1_3 In1_7 3.227495 1_555
In1_3 In1_7 3.227495 1_455
In1_4 Nb0_6 3.036679 1_545
In1_4 Nb0_0 3.036679 1_655
In1_4 Nb0_4 3.036683 1_555
In1_4 In1_6 3.227495 1_555
In1_4 In1_6 3.227495 1_545
In1_5 Nb0_7 3.036679 1_545
In1_5 Nb0_1 3.036679 1_655
In1_5 Nb0_5 3.036683 1_555
In1_5 In1_7 3.227495 1_555
In1_5 In1_7 3.227495 1_545
In1_6 Nb0_4 3.036679 1_555
In1_6 Nb0_2 3.036679 1_655
In1_6 Nb0_6 3.036683 1_555
In1_7 Nb0_5 3.036679 1_555
In1_7 Nb0_3 3.036679 1_655
In1_7 Nb0_7 3.036683 1_555
C0_0 Nb0_2 2.231476 1_545
C0_0 Nb0_0 2.231477 1_555
C0_0 Nb0_6 2.231477 1_445
C0_0 Hf0_5 2.237676 1_454
C0_0 Hf0_7 2.237677 1_444
C0_0 Hf0_1 2.237677 1_554
C0_1 Nb0_3 2.231476 1_545
C0_1 Nb0_1 2.231477 1_555
C0_1 Nb0_7 2.231477 1_445
C0_1 Hf0_4 2.237676 1_455
C0_1 Hf0_6 2.237677 1_445
C0_1 Hf0_0 2.237677 1_555
C0_2 Nb0_0 2.231476 1_555
C0_2 Nb0_2 2.231477 1_555
C0_2 Nb0_4 2.231477 1_455
C0_2 Hf0_7 2.237676 1_454
C0_2 Hf0_5 2.237677 1_454
C0_2 Hf0_3 2.237677 1_554
C0_3 Nb0_1 2.231476 1_555
C0_3 Nb0_3 2.231477 1_555
C0_3 Nb0_5 2.231477 1_455
C0_3 Hf0_6 2.237676 1_455
C0_3 Hf0_4 2.237677 1_455
C0_3 Hf0_2 2.237677 1_555
C0_4 Nb0_6 2.231476 1_545
C0_4 Nb0_4 2.231477 1_555
C0_4 Nb0_2 2.231477 1_545
C0_4 Hf0_1 2.237676 1_554
C0_4 Hf0_3 2.237677 1_544
C0_4 Hf0_5 2.237677 1_554
C0_5 Nb0_7 2.231476 1_545
C0_5 Nb0_5 2.231477 1_555
C0_5 Nb0_3 2.231477 1_545
C0_5 Hf0_0 2.237676 1_555
C0_5 Hf0_2 2.237677 1_545
C0_5 Hf0_4 2.237677 1_555
C0_6 Nb0_4 2.231476 1_555
C0_6 Nb0_6 2.231477 1_555
C0_6 Nb0_0 2.231477 1_555
C0_6 Hf0_3 2.237676 1_554
C0_6 Hf0_1 2.237677 1_554
C0_6 Hf0_7 2.237677 1_554
C0_7 Nb0_5 2.231476 1_555
C0_7 Nb0_7 2.231477 1_555
C0_7 Nb0_1 2.231477 1_555
C0_7 Hf0_2 2.237676 1_555
C0_7 Hf0_0 2.237677 1_555
C0_7 Hf0_6 2.237677 1_555
C1_0 Nb1_4 2.231476 1_455
C1_0 Nb1_6 2.231477 1_445
C1_0 Nb1_0 2.231477 1_555
C1_0 Hf1_2 2.237676 1_545
C1_0 Hf1_0 2.237677 1_555
C1_0 Hf1_6 2.237677 1_445
C1_1 Nb1_5 2.231476 1_455
C1_1 Nb1_7 2.231477 1_445
C1_1 Nb1_1 2.231477 1_555
C1_1 Hf1_3 2.237676 1_545
C1_1 Hf1_1 2.237677 1_555
C1_1 Hf1_7 2.237677 1_445
C1_2 Nb1_6 2.231476 1_455
C1_2 Nb1_4 2.231477 1_455
C1_2 Nb1_2 2.231477 1_555
C1_2 Hf1_0 2.237676 1_555
C1_2 Hf1_2 2.237677 1_555
C1_2 Hf1_4 2.237677 1_455
C1_3 Nb1_7 2.231476 1_455
C1_3 Nb1_5 2.231477 1_455
C1_3 Nb1_3 2.231477 1_555
C1_3 Hf1_1 2.237676 1_555
C1_3 Hf1_3 2.237677 1_555
C1_3 Hf1_5 2.237677 1_455
C1_4 Nb1_0 2.231476 1_555
C1_4 Nb1_2 2.231477 1_545
C1_4 Nb1_4 2.231477 1_555
C1_4 Hf1_6 2.237676 1_545
C1_4 Hf1_4 2.237677 1_555
C1_4 Hf1_2 2.237677 1_545
C1_5 Nb1_1 2.231476 1_555
C1_5 Nb1_3 2.231477 1_545
C1_5 Nb1_5 2.231477 1_555
C1_5 Hf1_7 2.237676 1_545
C1_5 Hf1_5 2.237677 1_555
C1_5 Hf1_3 2.237677 1_545
C1_6 Nb1_2 2.231476 1_555
C1_6 Nb1_0 2.231477 1_555
C1_6 Nb1_6 2.231477 1_555
C1_6 Hf1_4 2.237676 1_555
C1_6 Hf1_6 2.237677 1_555
C1_6 Hf1_0 2.237677 1_555
C1_7 Nb1_3 2.231476 1_555
C1_7 Nb1_1 2.231477 1_555
C1_7 Nb1_7 2.231477 1_555
C1_7 Hf1_5 2.237676 1_555
C1_7 Hf1_7 2.237677 1_555
C1_7 Hf1_1 2.237677 1_555
