# generated using pymatgen
data_Rb4CdHgI8
_symmetry_space_group_name_H-M   'P 1'
_cell_length_a   8.19755183
_cell_length_b   8.35951090
_cell_length_c   10.20299042
_cell_angle_alpha   90.00000000
_cell_angle_beta   108.52010694
_cell_angle_gamma   90.00000000
_symmetry_Int_Tables_number   1
_chemical_formula_structural   Rb4CdHgI8
_chemical_formula_sum   'Rb4 Cd1 Hg1 I8'
_cell_volume   662.97641306
_cell_formula_units_Z   1
loop_
 _symmetry_equiv_pos_site_id
 _symmetry_equiv_pos_as_xyz
  1  'x, y, z'
loop_
 _atom_site_type_symbol
 _atom_site_label
 _atom_site_symmetry_multiplicity
 _atom_site_fract_x
 _atom_site_fract_y
 _atom_site_fract_z
 _atom_site_occupancy
  Rb  Rb0  1  0.21694920  0.25000000  0.55393145  1
  Rb  Rb1  1  0.78367915  0.75000000  0.44631060  1
  Rb  Rb2  1  0.25213663  0.25000000  0.06368315  1
  Rb  Rb3  1  0.74292015  0.75000000  0.93354040  1
  Cd  Cd0  1  0.22576438  0.75000000  0.30121077  1
  Hg  Hg0  1  0.77401461  0.25000000  0.69988265  1
  I  I0  1  0.58842375  0.25000000  0.41573246  1
  I  I1  1  0.41019155  0.75000000  0.58336755  1
  I  I2  1  0.99349414  0.00853949  0.23796661  1
  I  I3  1  0.00914852  0.98896354  0.76135284  1
  I  I4  1  0.00914852  0.51103646  0.76135284  1
  I  I5  1  0.99349414  0.49146051  0.23796661  1
  I  I6  1  0.57777115  0.25000000  0.88112915  1
  I  I7  1  0.42286413  0.75000000  0.12257392  1
loop_
_geom_bond_atom_site_label_1
_geom_bond_atom_site_label_2
_geom_bond_distance
_geom_bond_site_symmetry_2
Cd0 I7 2.793456 1_555
Cd0 I1 2.794364 1_555
Cd0 I2 2.816437 1_465
Cd0 I5 2.816437 1_455
Hg0 I6 2.810269 1_555
Hg0 I0 2.813862 1_555
Hg0 I4 2.846477 1_655
Hg0 I3 2.846477 1_645
I0 Rb0 3.740203 1_555
I0 Rb2 3.769773 1_555
I1 Rb3 3.743497 1_555
I1 Rb1 3.748238 1_555
I2 Rb0 3.751142 1_655
I2 Rb2 3.758574 1_655
I2 Rb1 3.804048 1_545
I2 Rb3 3.805892 1_544
I3 Rb1 3.736928 1_455
I3 Rb3 3.778309 1_455
I3 Rb2 3.786985 1_566
I3 Rb0 3.799012 1_565
I4 Rb1 3.736928 1_455
I4 Rb3 3.778309 1_455
I4 Rb2 3.786985 1_556
I4 Rb0 3.799012 1_555
I5 Rb0 3.751142 1_655
I5 Rb2 3.758574 1_655
I5 Rb1 3.804048 1_555
I5 Rb3 3.805892 1_554
I6 Rb0 3.690634 1_555
I6 Rb2 3.708584 1_556
I7 Rb1 3.667750 1_555
I7 Rb3 3.717293 1_554
