# generated using pymatgen
data_SrCa2(H6Ir)2
_symmetry_space_group_name_H-M   'P 1'
_cell_length_a   4.99869202
_cell_length_b   4.99869305
_cell_length_c   8.30802135
_cell_angle_alpha   90.00000000
_cell_angle_beta   90.00000000
_cell_angle_gamma   119.99999967
_symmetry_Int_Tables_number   1
_chemical_formula_structural   SrCa2(H6Ir)2
_chemical_formula_sum   'Sr1 Ca2 H12 Ir2'
_cell_volume   179.77988022
_cell_formula_units_Z   1
loop_
 _symmetry_equiv_pos_site_id
 _symmetry_equiv_pos_as_xyz
  1  'x, y, z'
loop_
 _atom_site_type_symbol
 _atom_site_label
 _atom_site_symmetry_multiplicity
 _atom_site_fract_x
 _atom_site_fract_y
 _atom_site_fract_z
 _atom_site_occupancy
  Sr  Sr0  1  0.00000000  0.00000000  0.00000000  1
  Ca  Ca0  1  0.66666700  0.33333300  0.36529072  1
  Ca  Ca1  1  0.33333300  0.66666700  0.63470928  1
  H  H0  1  0.17401702  0.82598298  0.37160457  1
  H  H1  1  0.65196496  0.82598298  0.37160457  1
  H  H2  1  0.17401702  0.34803504  0.37160457  1
  H  H3  1  0.82598298  0.17401702  0.62839543  1
  H  H4  1  0.34803504  0.17401702  0.62839543  1
  H  H5  1  0.82598298  0.65196496  0.62839543  1
  H  H6  1  0.51183818  0.02367736  0.86111877  1
  H  H7  1  0.51183818  0.48816182  0.86111877  1
  H  H8  1  0.97632264  0.48816182  0.86111877  1
  H  H9  1  0.48816182  0.97632264  0.13888123  1
  H  H10  1  0.48816182  0.51183818  0.13888123  1
  H  H11  1  0.02367736  0.51183818  0.13888123  1
  Ir  Ir0  1  0.66666700  0.33333300  0.74195418  1
  Ir  Ir1  1  0.33333300  0.66666700  0.25804582  1
loop_
_geom_bond_atom_site_label_1
_geom_bond_atom_site_label_2
_geom_bond_distance
_geom_bond_site_symmetry_2
Ca0 H11 2.434497 1_655
Ca0 H10 2.434497 1_555
Ca0 H9 2.434497 1_545
Ca0 H2 2.500701 1_655
Ca0 H1 2.500702 1_545
Ca0 H0 2.500706 1_655
Ca0 H0 2.500707 1_545
Ca0 H2 2.500711 1_555
Ca0 H1 2.500712 1_555
Ca0 H4 2.584703 1_555
Ca0 H3 2.584704 1_555
Ca0 H5 2.584704 1_555
Ca1 H8 2.434497 1_455
Ca1 H7 2.434497 1_555
Ca1 H6 2.434497 1_565
Ca1 H5 2.500701 1_455
Ca1 H4 2.500702 1_565
Ca1 H3 2.500706 1_455
Ca1 H3 2.500707 1_565
Ca1 H5 2.500711 1_555
Ca1 H4 2.500712 1_555
Ca1 H1 2.584703 1_555
Ca1 H0 2.584704 1_555
Ca1 H2 2.584704 1_555
H0 Ir1 1.671143 1_555
H1 Ir1 1.671143 1_555
H2 Ir1 1.671143 1_555
H3 Ir0 1.671143 1_555
H4 Ir0 1.671143 1_555
H5 Ir0 1.671143 1_555
H6 Ir0 1.666457 1_555
H6 Sr0 2.754731 1_556
H6 Sr0 2.754736 1_656
H7 Ir0 1.666463 1_555
H7 Sr0 2.754733 1_556
H7 Sr0 2.754734 1_666
H8 Ir0 1.666456 1_555
H8 Sr0 2.754732 1_666
H8 Sr0 2.754736 1_656
H9 Ir1 1.666457 1_555
H9 Sr0 2.754731 1_665
H9 Sr0 2.754736 1_565
H10 Ir1 1.666463 1_555
H10 Sr0 2.754733 1_665
H10 Sr0 2.754734 1_555
H11 Ir1 1.666456 1_555
H11 Sr0 2.754732 1_555
H11 Sr0 2.754736 1_565
