# generated using pymatgen
data_Na16HfTiP8
_symmetry_space_group_name_H-M   'P 1'
_cell_length_a   9.51383601
_cell_length_b   9.51383605
_cell_length_c   9.51383636
_cell_angle_alpha   59.99999892
_cell_angle_beta   59.99999877
_cell_angle_gamma   59.99999933
_symmetry_Int_Tables_number   1
_chemical_formula_structural   Na16HfTiP8
_chemical_formula_sum   'Na16 Hf1 Ti1 P8'
_cell_volume   608.90843987
_cell_formula_units_Z   1
loop_
 _symmetry_equiv_pos_site_id
 _symmetry_equiv_pos_as_xyz
  1  'x, y, z'
loop_
 _atom_site_type_symbol
 _atom_site_label
 _atom_site_symmetry_multiplicity
 _atom_site_fract_x
 _atom_site_fract_y
 _atom_site_fract_z
 _atom_site_occupancy
  Na  Na0  1  0.46973555  0.03026445  0.03026445  1
  Na  Na1  1  0.03026445  0.46973555  0.03026445  1
  Na  Na2  1  0.46973555  0.46973555  0.03026545  1
  Na  Na3  1  0.62741459  0.62741459  0.11775624  1
  Na  Na4  1  0.77997406  0.22002594  0.22002594  1
  Na  Na5  1  0.22002594  0.77997406  0.22002594  1
  Na  Na6  1  0.77997406  0.77997406  0.22002494  1
  Na  Na7  1  0.03026445  0.03026445  0.46973555  1
  Na  Na8  1  0.46973555  0.03026545  0.46973555  1
  Na  Na9  1  0.03026545  0.46973555  0.46973555  1
  Na  Na10  1  0.62741459  0.11775624  0.62741459  1
  Na  Na11  1  0.11775624  0.62741459  0.62741459  1
  Na  Na12  1  0.62741459  0.62741459  0.62741459  1
  Na  Na13  1  0.22002594  0.22002594  0.77997406  1
  Na  Na14  1  0.77997406  0.22002494  0.77997406  1
  Na  Na15  1  0.22002494  0.77997406  0.77997406  1
  Hf  Hf0  1  0.50000000  0.50000000  0.50000000  1
  Ti  Ti0  1  0.75000000  0.75000000  0.75000000  1
  P  P0  1  0.82167866  0.39277311  0.39277311  1
  P  P1  1  0.39277311  0.82167866  0.39277311  1
  P  P2  1  0.39277311  0.39277311  0.39277311  1
  P  P3  1  0.85369049  0.85369049  0.43892952  1
  P  P4  1  0.39277311  0.39277311  0.82167866  1
  P  P5  1  0.85369049  0.43892952  0.85369049  1
  P  P6  1  0.85369049  0.85369049  0.85369049  1
  P  P7  1  0.43892952  0.85369049  0.85369049  1
loop_
_geom_bond_atom_site_label_1
_geom_bond_atom_site_label_2
_geom_bond_distance
_geom_bond_site_symmetry_2
Na0 P4 2.907304 1_554
Na0 P1 2.907304 1_545
Na0 P7 3.088162 1_544
Na0 P6 3.088168 1_544
Na1 P4 2.907303 1_554
Na1 P0 2.907304 1_455
Na1 P5 3.088162 1_454
Na1 P6 3.088168 1_454
Na2 P2 2.907291 1_555
Na2 P4 2.907326 1_554
Na2 P5 3.088170 1_554
Na2 P7 3.088170 1_554
Na3 Ti0 2.856736 1_554
Na3 P5 3.065600 1_554
Na3 P7 3.065600 1_554
Na3 P6 3.065606 1_554
Na3 P1 3.180277 1_555
Na3 P0 3.180277 1_555
Na3 P2 3.180289 1_555
Na4 P3 2.955333 1_545
Na4 P5 2.955333 1_554
Na4 P0 3.092695 1_555
Na4 P2 3.092708 1_555
Na5 P3 2.955333 1_455
Na5 P7 2.955333 1_554
Na5 P1 3.092695 1_555
Na5 P2 3.092708 1_555
Na6 P6 2.955322 1_554
Na6 P3 2.955349 1_555
Na6 P1 3.092712 1_555
Na6 P0 3.092712 1_555
Na7 P1 2.907303 1_545
Na7 P0 2.907304 1_455
Na7 P3 3.088162 1_445
Na7 P6 3.088168 1_445
Na8 P2 2.907291 1_555
Na8 P1 2.907326 1_545
Na8 P3 3.088170 1_545
Na8 P7 3.088170 1_545
Na9 P2 2.907291 1_555
Na9 P0 2.907326 1_455
Na9 P3 3.088170 1_455
Na9 P5 3.088170 1_455
Na10 Ti0 2.856736 1_545
Na10 P7 3.065600 1_545
Na10 P3 3.065600 1_545
Na10 P6 3.065606 1_545
Na10 P0 3.180277 1_555
Na10 P4 3.180277 1_555
Na10 P2 3.180289 1_555
Na11 Ti0 2.856736 1_455
Na11 P5 3.065600 1_455
Na11 P3 3.065600 1_455
Na11 P6 3.065606 1_455
Na11 P1 3.180277 1_555
Na11 P4 3.180277 1_555
Na11 P2 3.180289 1_555
Na12 Ti0 2.856736 1_555
Na12 P3 3.065607 1_555
Na12 P5 3.065607 1_555
Na12 P7 3.065607 1_555
Na12 P4 3.180292 1_555
Na12 P1 3.180292 1_555
Na12 P0 3.180292 1_555
Na13 P5 2.955333 1_455
Na13 P7 2.955333 1_545
Na13 P4 3.092695 1_555
Na13 P2 3.092708 1_555
Na14 P6 2.955322 1_545
Na14 P5 2.955349 1_555
Na14 P4 3.092712 1_555
Na14 P0 3.092712 1_555
Na15 P6 2.955322 1_455
Na15 P7 2.955349 1_555
Na15 P4 3.092712 1_555
Na15 P1 3.092712 1_555
Hf0 P0 2.498804 1_555
Hf0 P1 2.498805 1_555
Hf0 P4 2.498805 1_555
Hf0 P2 2.498820 1_555
Hf0 Na11 2.969275 1_555
Hf0 Na10 2.969275 1_555
Hf0 Na12 2.969275 1_555
Hf0 Na3 2.969275 1_555
P3 Ti0 2.416400 1_555
P5 Ti0 2.416400 1_555
P6 Ti0 2.416408 1_555
P7 Ti0 2.416400 1_555
