# generated using pymatgen
data_Nb4GeB2W
_symmetry_space_group_name_H-M   'P 1'
_cell_length_a   7.32843995
_cell_length_b   7.32844037
_cell_length_c   7.32844028
_cell_angle_alpha   129.72254731
_cell_angle_beta   129.72254637
_cell_angle_gamma   73.85070683
_symmetry_Int_Tables_number   1
_chemical_formula_structural   Nb4GeB2W
_chemical_formula_sum   'Nb8 Ge2 B4 W2'
_cell_volume   227.12313878
_cell_formula_units_Z   2
loop_
 _symmetry_equiv_pos_site_id
 _symmetry_equiv_pos_as_xyz
  1  'x, y, z'
loop_
 _atom_site_type_symbol
 _atom_site_label
 _atom_site_symmetry_multiplicity
 _atom_site_fract_x
 _atom_site_fract_y
 _atom_site_fract_z
 _atom_site_occupancy
  Nb  Nb0  1  0.53040799  0.69578386  0.50000000  1
  Nb  Nb1  1  0.19578386  0.03040799  0.50000000  1
  Nb  Nb2  1  0.03040799  0.53040799  0.83462413  1
  Nb  Nb3  1  0.69578386  0.19578386  0.16537587  1
  Nb  Nb4  1  0.46959201  0.30421614  0.50000000  1
  Nb  Nb5  1  0.80421614  0.96959201  0.50000000  1
  Nb  Nb6  1  0.96959201  0.46959201  0.16537587  1
  Nb  Nb7  1  0.30421614  0.80421614  0.83462413  1
  Ge  Ge0  1  0.25000000  0.25000000  0.00000000  1
  Ge  Ge1  1  0.75000000  0.75000000  0.00000000  1
  B  B0  1  0.88054160  0.61945840  0.50000000  1
  B  B1  1  0.11945840  0.38054160  0.50000000  1
  B  B2  1  0.38054160  0.88054160  0.26108419  1
  B  B3  1  0.61945840  0.11945840  0.73891581  1
  W  W0  1  0.50000000  0.50000000  0.00000000  1
  W  W1  1  0.00000000  0.00000000  0.00000000  1
loop_
_geom_bond_atom_site_label_1
_geom_bond_atom_site_label_2
_geom_bond_distance
_geom_bond_site_symmetry_2
Nb0 W0 2.819452 1_555
Nb0 W1 2.819452 1_666
Nb1 W1 2.819452 1_555
Nb1 W0 2.819452 1_556
Nb2 W0 2.819452 1_556
Nb2 W1 2.819452 1_566
Nb3 W1 2.819452 1_655
Nb3 W0 2.819452 1_555
Nb4 W0 2.819452 1_556
Nb4 W1 2.819452 1_555
Nb5 W1 2.819452 1_666
Nb5 W0 2.819452 1_555
Nb6 W0 2.819452 1_555
Nb6 W1 2.819452 1_655
Nb7 W1 2.819452 1_566
Nb7 W0 2.819452 1_556
Ge0 Nb6 2.670612 1_455
Ge0 Nb3 2.670612 1_555
Ge0 Nb2 2.670612 1_554
Ge0 Nb7 2.670612 1_544
Ge0 Nb1 2.670612 1_554
Ge0 Nb4 2.670612 1_555
Ge0 Nb5 2.670612 1_444
Ge0 Nb0 2.670612 1_555
Ge0 W1 2.929247 1_555
Ge0 W0 2.929247 1_555
Ge1 Nb2 2.670612 1_654
Ge1 Nb7 2.670612 1_554
Ge1 Nb6 2.670612 1_555
Ge1 Nb3 2.670612 1_565
Ge1 Nb5 2.670612 1_555
Ge1 Nb0 2.670612 1_554
Ge1 Nb1 2.670612 1_665
Ge1 Nb4 2.670612 1_554
Ge1 W1 2.929247 1_665
Ge1 W0 2.929247 1_555
B0 B1 2.103775 1_655
B0 Nb6 2.418701 1_555
B0 Nb7 2.418701 1_655
B0 Nb2 2.418701 1_655
B0 Nb3 2.418701 1_555
B0 Nb0 2.469510 1_555
B0 Nb5 2.469510 1_555
B0 W0 2.483411 1_555
B0 W1 2.483411 1_666
B1 Nb2 2.418701 1_555
B1 Nb3 2.418701 1_455
B1 Nb6 2.418701 1_455
B1 Nb7 2.418701 1_555
B1 Nb4 2.469510 1_555
B1 Nb1 2.469510 1_555
B1 W0 2.483411 1_556
B1 W1 2.483411 1_555
B2 B3 2.103767 1_565
B2 Nb1 2.418695 1_565
B2 Nb0 2.418696 1_555
B2 Nb5 2.418703 1_555
B2 Nb4 2.418703 1_565
B2 Nb2 2.469510 1_554
B2 Nb7 2.469517 1_554
B2 W1 2.483413 1_565
B2 W0 2.483413 1_555
B3 Nb5 2.418695 1_545
B3 Nb4 2.418696 1_555
B3 Nb1 2.418703 1_555
B3 Nb0 2.418703 1_545
B3 Nb6 2.469510 1_556
B3 Nb3 2.469517 1_556
B3 W1 2.483413 1_656
B3 W0 2.483413 1_556
