# generated using pymatgen
data_Ba(CeS2)2
_symmetry_space_group_name_H-M   'P 1'
_cell_length_a   7.67219657
_cell_length_b   7.67219657
_cell_length_c   7.67219657
_cell_angle_alpha   109.33211338
_cell_angle_beta   109.33211338
_cell_angle_gamma   109.74979480
_symmetry_Int_Tables_number   1
_chemical_formula_structural   Ba(CeS2)2
_chemical_formula_sum   'Ba2 Ce4 S8'
_cell_volume   347.63986240
_cell_formula_units_Z   2
loop_
 _symmetry_equiv_pos_site_id
 _symmetry_equiv_pos_as_xyz
  1  'x, y, z'
loop_
 _atom_site_type_symbol
 _atom_site_label
 _atom_site_symmetry_multiplicity
 _atom_site_fract_x
 _atom_site_fract_y
 _atom_site_fract_z
 _atom_site_occupancy
  Ba  Ba0  1  0.25000000  0.75000000  0.50000000  1
  Ba  Ba1  1  0.00000000  0.00000000  0.00000000  1
  Ce  Ce0  1  0.62500000  0.25204800  0.12704800  1
  Ce  Ce1  1  0.50204800  0.37500000  0.62704800  1
  Ce  Ce2  1  0.12500000  0.49795200  0.87295200  1
  Ce  Ce3  1  0.74795200  0.87500000  0.37295200  1
  S  S0  1  0.73230600  0.14303400  0.74548100  1
  S  S1  1  0.23682500  0.14755300  0.75451900  1
  S  S2  1  0.01317500  0.26769400  0.41072800  1
  S  S3  1  0.39303400  0.48230600  0.24548100  1
  S  S4  1  0.85244700  0.60696600  0.08927200  1
  S  S5  1  0.51769400  0.76317500  0.91072800  1
  S  S6  1  0.85696600  0.60244700  0.58927200  1
  S  S7  1  0.39755300  0.98682500  0.25451900  1
loop_
_geom_bond_atom_site_label_1
_geom_bond_atom_site_label_2
_geom_bond_distance
_geom_bond_site_symmetry_2
Ba0 S4 3.085795 1_455
Ba0 S3 3.085795 1_555
Ba0 S5 3.085795 1_555
Ba0 S1 3.085795 1_565
Ba0 S7 3.227574 1_555
Ba0 S2 3.227574 1_555
Ba0 S6 3.227574 1_455
Ba0 S0 3.227574 1_565
Ba1 S2 3.085795 1_555
Ba1 S0 3.085795 1_454
Ba1 S7 3.085795 1_545
Ba1 S6 3.085795 1_444
Ba1 S4 3.227574 1_445
Ba1 S3 3.227574 1_555
Ba1 S5 3.227574 1_444
Ba1 S1 3.227574 1_554
Ce0 S7 2.861795 1_545
Ce0 S4 2.861795 1_555
Ce0 S2 2.985741 1_655
Ce0 S1 2.985741 1_554
Ce0 S6 3.040790 1_555
Ce0 S3 3.040790 1_555
Ce0 S5 3.222927 1_544
Ce0 S0 3.222927 1_554
Ce1 S6 2.861795 1_555
Ce1 S1 2.861795 1_555
Ce1 S7 2.985741 1_545
Ce1 S5 2.985741 1_555
Ce1 S0 3.040790 1_555
Ce1 S4 3.040790 1_556
Ce1 S2 3.222927 1_555
Ce1 S3 3.222927 1_555
Ce2 S5 2.861795 1_555
Ce2 S0 2.861795 1_455
Ce2 S6 2.985741 1_455
Ce2 S3 2.985741 1_556
Ce2 S1 3.040790 1_555
Ce2 S2 3.040790 1_555
Ce2 S7 3.222927 1_556
Ce2 S4 3.222927 1_456
Ce3 S3 2.861795 1_555
Ce3 S2 2.861795 1_665
Ce3 S0 2.985741 1_565
Ce3 S4 2.985741 1_555
Ce3 S7 3.040790 1_555
Ce3 S5 3.040790 1_554
Ce3 S6 3.222927 1_555
Ce3 S1 3.222927 1_665
