# generated using pymatgen
data_NaCaCoH6
_symmetry_space_group_name_H-M   'P 1'
_cell_length_a   4.91071584
_cell_length_b   4.91071563
_cell_length_c   4.91071569
_cell_angle_alpha   59.99999958
_cell_angle_beta   60.00000097
_cell_angle_gamma   59.99999926
_symmetry_Int_Tables_number   1
_chemical_formula_structural   NaCaCoH6
_chemical_formula_sum   'Na1 Ca1 Co1 H6'
_cell_volume   83.73738265
_cell_formula_units_Z   1
loop_
 _symmetry_equiv_pos_site_id
 _symmetry_equiv_pos_as_xyz
  1  'x, y, z'
loop_
 _atom_site_type_symbol
 _atom_site_label
 _atom_site_symmetry_multiplicity
 _atom_site_fract_x
 _atom_site_fract_y
 _atom_site_fract_z
 _atom_site_occupancy
  Na  Na0  1  0.25000000  0.25000000  0.25000000  1
  Ca  Ca0  1  0.75000000  0.75000000  0.75000000  1
  Co  Co0  1  0.00000000  0.00000000  0.00000000  1
  H  H0  1  0.77940971  0.22059029  0.22059029  1
  H  H1  1  0.22059029  0.77940971  0.22059029  1
  H  H2  1  0.77940971  0.77940971  0.22059029  1
  H  H3  1  0.22059029  0.77940971  0.77940971  1
  H  H4  1  0.77940971  0.22059029  0.77940971  1
  H  H5  1  0.22059029  0.22059029  0.77940971  1
loop_
_geom_bond_atom_site_label_1
_geom_bond_atom_site_label_2
_geom_bond_distance
_geom_bond_site_symmetry_2
Ca0 H4 2.463838 1_555
Ca0 H0 2.463838 1_556
Ca0 H0 2.463838 1_565
Ca0 H4 2.463838 1_565
Ca0 H5 2.463838 1_655
Ca0 H2 2.463838 1_556
Ca0 H2 2.463838 1_555
Ca0 H5 2.463838 1_565
Ca0 H3 2.463838 1_655
Ca0 H1 2.463838 1_655
Ca0 H1 2.463838 1_556
Ca0 H3 2.463838 1_555
Co0 H1 1.531956 1_545
Co0 H4 1.531956 1_454
Co0 H0 1.531956 1_455
Co0 H3 1.531956 1_544
Co0 H5 1.531956 1_554
Co0 H2 1.531956 1_445
H0 Na0 2.463838 1_655
H0 Na0 2.463838 1_555
H1 Na0 2.463838 1_555
H1 Na0 2.463838 1_565
H2 Na0 2.463838 1_655
H2 Na0 2.463838 1_565
H3 Na0 2.463838 1_556
H3 Na0 2.463838 1_565
H4 Na0 2.463838 1_655
H4 Na0 2.463838 1_556
H5 Na0 2.463838 1_556
H5 Na0 2.463838 1_555
