# generated using pymatgen
data_SrLu(NiP)2
_symmetry_space_group_name_H-M   'P 1'
_cell_length_a   3.87475204
_cell_length_b   3.87475251
_cell_length_c   16.42792805
_cell_angle_alpha   90.00000000
_cell_angle_beta   90.00000000
_cell_angle_gamma   119.99999598
_symmetry_Int_Tables_number   1
_chemical_formula_structural   SrLu(NiP)2
_chemical_formula_sum   'Sr2 Lu2 Ni4 P4'
_cell_volume   213.60003730
_cell_formula_units_Z   2
loop_
 _symmetry_equiv_pos_site_id
 _symmetry_equiv_pos_as_xyz
  1  'x, y, z'
loop_
 _atom_site_type_symbol
 _atom_site_label
 _atom_site_symmetry_multiplicity
 _atom_site_fract_x
 _atom_site_fract_y
 _atom_site_fract_z
 _atom_site_occupancy
  Sr  Sr0  1  0.00000000  0.00000000  0.50000000  1
  Sr  Sr1  1  0.00000000  0.00000000  0.00000000  1
  Lu  Lu0  1  0.00000000  0.00000000  0.25000000  1
  Lu  Lu1  1  0.00000000  0.00000000  0.75000000  1
  Ni  Ni0  1  0.33333300  0.66666700  0.35752648  1
  Ni  Ni1  1  0.66666700  0.33333300  0.64247352  1
  Ni  Ni2  1  0.66666700  0.33333300  0.85752648  1
  Ni  Ni3  1  0.33333300  0.66666700  0.14247352  1
  P  P0  1  0.33333300  0.66666700  0.86528651  1
  P  P1  1  0.66666700  0.33333300  0.13471349  1
  P  P2  1  0.66666700  0.33333300  0.36528651  1
  P  P3  1  0.33333300  0.66666700  0.63471349  1
loop_
_geom_bond_atom_site_label_1
_geom_bond_atom_site_label_2
_geom_bond_distance
_geom_bond_site_symmetry_2
Lu0 Ni0 2.850414 1_545
Lu0 Ni3 2.850414 1_545
Lu0 Ni0 2.850416 1_445
Lu0 Ni3 2.850416 1_445
Lu0 Ni0 2.850417 1_555
Lu0 Ni3 2.850417 1_555
Lu0 P2 2.931124 1_455
Lu0 P1 2.931124 1_455
Lu0 P2 2.931126 1_555
Lu0 P1 2.931126 1_555
Lu0 P2 2.931126 1_445
Lu0 P1 2.931126 1_445
Lu1 Ni2 2.850414 1_455
Lu1 Ni1 2.850414 1_455
Lu1 Ni2 2.850416 1_555
Lu1 Ni1 2.850416 1_555
Lu1 Ni2 2.850417 1_445
Lu1 Ni1 2.850417 1_445
Lu1 P0 2.931124 1_545
Lu1 P3 2.931124 1_545
Lu1 P0 2.931126 1_445
Lu1 P3 2.931126 1_445
Lu1 P0 2.931126 1_555
Lu1 P3 2.931126 1_555
Ni0 P2 2.240716 1_455
Ni0 P2 2.240717 1_565
Ni0 P2 2.240723 1_555
Ni0 Sr0 3.237701 1_565
Ni0 Sr0 3.237703 1_665
Ni0 Sr0 3.237703 1_555
Ni1 P3 2.240716 1_655
Ni1 P3 2.240717 1_545
Ni1 P3 2.240723 1_555
Ni1 Sr0 3.237701 1_655
Ni1 Sr0 3.237703 1_555
Ni1 Sr0 3.237703 1_665
Ni2 P0 2.240716 1_655
Ni2 P0 2.240717 1_545
Ni2 P0 2.240723 1_555
Ni2 Sr1 3.237701 1_656
Ni2 Sr1 3.237703 1_556
Ni2 Sr1 3.237703 1_666
Ni3 P1 2.240716 1_455
Ni3 P1 2.240717 1_565
Ni3 P1 2.240723 1_555
Ni3 Sr1 3.237701 1_565
Ni3 Sr1 3.237703 1_665
Ni3 Sr1 3.237703 1_555
P0 Sr1 3.146777 1_566
P0 Sr1 3.146780 1_666
P0 Sr1 3.146780 1_556
P1 Sr1 3.146777 1_655
P1 Sr1 3.146780 1_555
P1 Sr1 3.146780 1_665
P2 Sr0 3.146777 1_655
P2 Sr0 3.146780 1_555
P2 Sr0 3.146780 1_665
P3 Sr0 3.146777 1_565
P3 Sr0 3.146780 1_665
P3 Sr0 3.146780 1_555
