# generated using pymatgen
data_LiBIr
_symmetry_space_group_name_H-M   'P 1'
_cell_length_a   5.52656440
_cell_length_b   5.52656302
_cell_length_c   6.06672534
_cell_angle_alpha   106.33950332
_cell_angle_beta   106.33950529
_cell_angle_gamma   112.47932064
_symmetry_Int_Tables_number   1
_chemical_formula_structural   LiBIr
_chemical_formula_sum   'Li4 B4 Ir4'
_cell_volume   147.65551310
_cell_formula_units_Z   4
loop_
 _symmetry_equiv_pos_site_id
 _symmetry_equiv_pos_as_xyz
  1  'x, y, z'
loop_
 _atom_site_type_symbol
 _atom_site_label
 _atom_site_symmetry_multiplicity
 _atom_site_fract_x
 _atom_site_fract_y
 _atom_site_fract_z
 _atom_site_occupancy
  Li  Li0  1  0.50000000  0.50000000  -0.00000000  1
  Li  Li1  1  0.50000000  -0.00000000  0.50000000  1
  Li  Li2  1  0.50000000  0.50000000  0.50000000  1
  Li  Li3  1  -0.00000000  0.50000000  -0.00000000  1
  B  B0  1  0.94829286  0.05170714  0.75000000  1
  B  B1  1  0.69829286  0.30170714  0.25000000  1
  B  B2  1  0.30170714  0.69829286  0.75000000  1
  B  B3  1  0.05170714  0.94829286  0.25000000  1
  Ir  Ir0  1  0.25808062  0.00808062  0.01616024  1
  Ir  Ir1  1  0.74191938  0.99191938  0.98383976  1
  Ir  Ir2  1  0.00808062  0.25808062  0.51616024  1
  Ir  Ir3  1  0.99191938  0.74191938  0.48383976  1
loop_
_geom_bond_atom_site_label_1
_geom_bond_atom_site_label_2
_geom_bond_distance
_geom_bond_site_symmetry_2
B0 Ir2 2.075691 1_655
B0 Ir1 2.075691 1_545
B0 Ir3 2.139125 1_545
B0 Ir0 2.139125 1_656
B0 Li3 2.370777 1_656
B0 Li1 2.370777 1_555
B0 Li2 2.691151 1_545
B0 Li0 2.691151 1_656
B1 Ir3 2.075685 1_555
B1 Ir0 2.075686 1_555
B1 Ir1 2.139125 1_544
B1 Ir2 2.139125 1_655
B1 Li0 2.370777 1_555
B1 Li2 2.370777 1_555
B1 Li1 2.691152 1_555
B1 Li3 2.691152 1_655
B2 Ir2 2.075685 1_555
B2 Ir1 2.075686 1_555
B2 Ir0 2.139125 1_566
B2 Ir3 2.139125 1_455
B2 Li0 2.370777 1_556
B2 Li2 2.370777 1_555
B2 Li1 2.691152 1_565
B2 Li3 2.691152 1_556
B3 Ir3 2.075691 1_455
B3 Ir0 2.075691 1_565
B3 Ir2 2.139125 1_565
B3 Ir1 2.139125 1_454
B3 Li3 2.370777 1_555
B3 Li1 2.370777 1_565
B3 Li2 2.691151 1_565
B3 Li0 2.691151 1_455
Ir0 Li0 2.575320 1_555
Ir0 Li3 2.575325 1_545
Ir1 Li0 2.575320 1_556
Ir1 Li3 2.575325 1_666
Ir2 Li2 2.575320 1_555
Ir2 Li1 2.575326 1_455
Ir3 Li2 2.575320 1_555
Ir3 Li1 2.575326 1_665
