# generated using pymatgen
data_Sc5GaSe4
_symmetry_space_group_name_H-M   'P 1'
_cell_length_a   6.73176518
_cell_length_b   6.73176554
_cell_length_c   6.73176455
_cell_angle_alpha   99.50350013
_cell_angle_beta   99.50348521
_cell_angle_gamma   132.05043495
_symmetry_Int_Tables_number   1
_chemical_formula_structural   Sc5GaSe4
_chemical_formula_sum   'Sc5 Ga1 Se4'
_cell_volume   206.98125732
_cell_formula_units_Z   1
loop_
 _symmetry_equiv_pos_site_id
 _symmetry_equiv_pos_as_xyz
  1  'x, y, z'
loop_
 _atom_site_type_symbol
 _atom_site_label
 _atom_site_symmetry_multiplicity
 _atom_site_fract_x
 _atom_site_fract_y
 _atom_site_fract_z
 _atom_site_occupancy
  Sc  Sc0  1  0.40383264  0.78982167  0.19365431  1
  Sc  Sc1  1  0.00000000  0.00000000  0.00000000  1
  Sc  Sc2  1  0.59616736  0.21017833  0.80634569  1
  Sc  Sc3  1  0.21017833  0.40383264  0.61400996  1
  Sc  Sc4  1  0.78982167  0.59616736  0.38599004  1
  Ga  Ga0  1  0.50000000  0.50000000  0.00000000  1
  Se  Se0  1  0.09732021  0.69793220  0.79525141  1
  Se  Se1  1  0.69793220  0.90267979  0.60061199  1
  Se  Se2  1  0.30206780  0.09732021  0.39938801  1
  Se  Se3  1  0.90267979  0.30206780  0.20474859  1
loop_
_geom_bond_atom_site_label_1
_geom_bond_atom_site_label_2
_geom_bond_distance
_geom_bond_site_symmetry_2
Sc0 Se3 2.737438 1_565
Sc0 Se3 2.737443 1_455
Sc0 Se1 2.740211 1_555
Sc0 Se0 2.783533 1_554
Sc0 Se2 2.817543 1_565
Sc1 Se1 2.760634 1_444
Sc1 Se2 2.760634 1_555
Sc1 Se3 2.760636 1_455
Sc1 Se0 2.760636 1_544
Sc2 Se0 2.737438 1_545
Sc2 Se0 2.737443 1_655
Sc2 Se2 2.740211 1_555
Sc2 Se3 2.783533 1_556
Sc2 Se1 2.817543 1_545
Sc3 Se1 2.737438 1_555
Sc3 Se1 2.737443 1_445
Sc3 Se0 2.740211 1_555
Sc3 Se2 2.783524 1_555
Sc3 Se3 2.817532 1_455
Sc4 Se2 2.737438 1_555
Sc4 Se2 2.737443 1_665
Sc4 Se3 2.740211 1_555
Sc4 Se1 2.783524 1_555
Sc4 Se0 2.817532 1_655
Ga0 Sc0 2.656265 1_555
Ga0 Sc2 2.656265 1_554
Ga0 Sc4 2.656270 1_555
Ga0 Sc3 2.656270 1_554
Ga0 Sc1 2.735349 1_665
Ga0 Sc1 2.735349 1_555
