# generated using pymatgen
data_Ba5GeBi2
_symmetry_space_group_name_H-M   'P 1'
_cell_length_a   14.37940032
_cell_length_b   10.59432467
_cell_length_c   9.12147493
_cell_angle_alpha   90.00000000
_cell_angle_beta   90.00000000
_cell_angle_gamma   90.00000000
_symmetry_Int_Tables_number   1
_chemical_formula_structural   Ba5GeBi2
_chemical_formula_sum   'Ba20 Ge4 Bi8'
_cell_volume   1389.56581577
_cell_formula_units_Z   4
loop_
 _symmetry_equiv_pos_site_id
 _symmetry_equiv_pos_as_xyz
  1  'x, y, z'
loop_
 _atom_site_type_symbol
 _atom_site_label
 _atom_site_symmetry_multiplicity
 _atom_site_fract_x
 _atom_site_fract_y
 _atom_site_fract_z
 _atom_site_occupancy
  Ba  Ba0  1  0.07546932  0.52593650  0.82075437  1
  Ba  Ba1  1  0.57546932  0.97406350  0.67924563  1
  Ba  Ba2  1  0.92453068  0.02593650  0.17924563  1
  Ba  Ba3  1  0.42453068  0.47406350  0.32075437  1
  Ba  Ba4  1  0.92453068  0.47406350  0.17924563  1
  Ba  Ba5  1  0.42453068  0.02593650  0.32075437  1
  Ba  Ba6  1  0.07546932  0.97406350  0.82075437  1
  Ba  Ba7  1  0.57546932  0.52593650  0.67924563  1
  Ba  Ba8  1  0.00009505  0.75000000  0.44190931  1
  Ba  Ba9  1  0.50009505  0.75000000  0.05809069  1
  Ba  Ba10  1  0.99990495  0.25000000  0.55809069  1
  Ba  Ba11  1  0.49990495  0.25000000  0.94190931  1
  Ba  Ba12  1  0.21413860  0.75000000  0.16946204  1
  Ba  Ba13  1  0.71413860  0.75000000  0.33053796  1
  Ba  Ba14  1  0.78586140  0.25000000  0.83053796  1
  Ba  Ba15  1  0.28586140  0.25000000  0.66946204  1
  Ba  Ba16  1  0.30136797  0.75000000  0.64621193  1
  Ba  Ba17  1  0.80136797  0.75000000  0.85378807  1
  Ba  Ba18  1  0.69863203  0.25000000  0.35378807  1
  Ba  Ba19  1  0.19863203  0.25000000  0.14621193  1
  Ge  Ge0  1  0.48939306  0.75000000  0.44075020  1
  Ge  Ge1  1  0.98939306  0.75000000  0.05924980  1
  Ge  Ge2  1  0.51060694  0.25000000  0.55924980  1
  Ge  Ge3  1  0.01060694  0.25000000  0.94075020  1
  Bi  Bi0  1  0.33135890  0.50603890  0.93849898  1
  Bi  Bi1  1  0.83135890  0.99396110  0.56150102  1
  Bi  Bi2  1  0.66864110  0.00603890  0.06150102  1
  Bi  Bi3  1  0.16864110  0.49396110  0.43849898  1
  Bi  Bi4  1  0.66864110  0.49396110  0.06150102  1
  Bi  Bi5  1  0.16864110  0.00603890  0.43849898  1
  Bi  Bi6  1  0.33135890  0.99396110  0.93849898  1
  Bi  Bi7  1  0.83135890  0.50603890  0.56150102  1
loop_
_geom_bond_atom_site_label_1
_geom_bond_atom_site_label_2
_geom_bond_distance
_geom_bond_site_symmetry_2
Ba0 Ge3 3.257906 1_555
Ba0 Ge1 3.449550 1_456
Ba0 Bi3 3.750601 1_555
Ba0 Bi0 3.838871 1_555
Ba0 Bi7 4.237667 1_455
Ba1 Ge2 3.257906 1_565
Ba1 Ge0 3.449550 1_555
Ba1 Bi2 3.750601 1_566
Ba1 Bi1 3.838871 1_555
Ba1 Bi6 4.237667 1_555
Ba2 Ge1 3.257906 1_545
Ba2 Ge3 3.449550 1_654
Ba2 Bi1 3.750601 1_545
Ba2 Bi2 3.838871 1_555
Ba2 Bi5 4.237667 1_655
Ba3 Ge0 3.257906 1_555
Ba3 Ge2 3.449550 1_555
Ba3 Bi0 3.750601 1_554
Ba3 Bi3 3.838871 1_555
Ba3 Bi4 4.237667 1_555
Ba4 Ge1 3.257906 1_555
Ba4 Ge3 3.449550 1_654
Ba4 Bi7 3.750601 1_555
Ba4 Bi4 3.838871 1_555
Ba4 Bi3 4.237667 1_655
Ba5 Ge0 3.257906 1_545
Ba5 Ge2 3.449550 1_555
Ba5 Bi6 3.750601 1_544
Ba5 Bi5 3.838871 1_555
Ba5 Bi2 4.237667 1_555
Ba6 Ge3 3.257906 1_565
Ba6 Ge1 3.449550 1_456
Ba6 Bi5 3.750601 1_565
Ba6 Bi6 3.838871 1_555
Ba6 Bi1 4.237667 1_455
Ba7 Ge2 3.257906 1_555
Ba7 Ge0 3.449550 1_555
Ba7 Bi4 3.750601 1_556
Ba7 Bi7 3.838871 1_555
Ba7 Bi0 4.237667 1_555
Ba8 Ge1 3.493810 1_455
Ba8 Bi5 3.637683 1_565
Ba8 Bi3 3.637683 1_555
Ba8 Bi1 3.709068 1_455
Ba8 Bi7 3.709068 1_455
Ba9 Ge0 3.493810 1_555
Ba9 Bi2 3.637683 1_565
Ba9 Bi4 3.637683 1_555
Ba9 Bi6 3.709068 1_554
Ba9 Bi0 3.709068 1_554
Ba10 Ge3 3.493810 1_655
Ba10 Bi7 3.637683 1_555
Ba10 Bi1 3.637683 1_545
Ba10 Bi3 3.709068 1_655
Ba10 Bi5 3.709068 1_655
Ba11 Ge2 3.493810 1_555
Ba11 Bi0 3.637683 1_555
Ba11 Bi6 3.637683 1_545
Ba11 Bi4 3.709068 1_556
Ba11 Bi2 3.709068 1_556
Ba12 Ge1 3.384457 1_455
Ba12 Bi5 3.715935 1_565
Ba12 Bi3 3.715935 1_555
Ba12 Bi6 3.736250 1_554
Ba12 Bi0 3.736250 1_554
Ba13 Ge0 3.384457 1_555
Ba13 Bi2 3.715935 1_565
Ba13 Bi4 3.715935 1_555
Ba13 Bi1 3.736250 1_555
Ba13 Bi7 3.736250 1_555
Ba14 Ge3 3.384457 1_655
Ba14 Bi7 3.715935 1_555
Ba14 Bi1 3.715935 1_545
Ba14 Bi4 3.736250 1_556
Ba14 Bi2 3.736250 1_556
Ba15 Ge2 3.384457 1_555
Ba15 Bi0 3.715935 1_555
Ba15 Bi6 3.715935 1_545
Ba15 Bi3 3.736250 1_555
Ba15 Bi5 3.736250 1_555
Ba16 Ge0 3.289716 1_555
Ba16 Bi6 3.738206 1_555
Ba16 Bi0 3.738206 1_555
Ba16 Bi5 3.819708 1_565
Ba16 Bi3 3.819708 1_555
Ba17 Ge1 3.289716 1_556
Ba17 Bi1 3.738206 1_555
Ba17 Bi7 3.738206 1_555
Ba17 Bi2 3.819708 1_566
Ba17 Bi4 3.819708 1_556
Ba18 Ge2 3.289716 1_555
Ba18 Bi4 3.738206 1_555
Ba18 Bi2 3.738206 1_555
Ba18 Bi7 3.819708 1_555
Ba18 Bi1 3.819708 1_545
Ba19 Ge3 3.289716 1_554
Ba19 Bi3 3.738206 1_555
Ba19 Bi5 3.738206 1_555
Ba19 Bi0 3.819708 1_554
Ba19 Bi6 3.819708 1_544
