# generated using pymatgen
data_Rb4Sc9Sb3Te20
_symmetry_space_group_name_H-M   'P 1'
_cell_length_a   4.24402201
_cell_length_b   12.78697336
_cell_length_c   22.96139570
_cell_angle_alpha   90.45045335
_cell_angle_beta   90.00000000
_cell_angle_gamma   90.00000000
_symmetry_Int_Tables_number   1
_chemical_formula_structural   Rb4Sc9Sb3Te20
_chemical_formula_sum   'Rb4 Sc9 Sb3 Te20'
_cell_volume   1246.03502256
_cell_formula_units_Z   1
loop_
 _symmetry_equiv_pos_site_id
 _symmetry_equiv_pos_as_xyz
  1  'x, y, z'
loop_
 _atom_site_type_symbol
 _atom_site_label
 _atom_site_symmetry_multiplicity
 _atom_site_fract_x
 _atom_site_fract_y
 _atom_site_fract_z
 _atom_site_occupancy
  Rb  Rb0  1  0.25000000  0.34502747  0.09559128  1
  Rb  Rb1  1  0.75000000  0.65902150  0.91290972  1
  Rb  Rb2  1  0.75000000  0.84897364  0.41223061  1
  Rb  Rb3  1  0.25000000  0.15476948  0.58639395  1
  Sc  Sc0  1  0.25000000  0.04425434  0.19948105  1
  Sc  Sc1  1  0.25000000  0.79802357  0.66284033  1
  Sc  Sc2  1  0.75000000  0.19226178  0.32893639  1
  Sc  Sc3  1  0.75000000  0.30228719  0.83865646  1
  Sc  Sc4  1  0.25000000  0.70855315  0.16737484  1
  Sc  Sc5  1  0.25000000  0.38112615  0.44444681  1
  Sc  Sc6  1  0.75000000  0.60634324  0.55274040  1
  Sc  Sc7  1  0.75000000  0.89660515  0.05485975  1
  Sc  Sc8  1  0.25000000  0.11339420  0.94869357  1
  Sb  Sb0  1  0.25000000  0.45114918  0.70364779  1
  Sb  Sb1  1  0.75000000  0.54383922  0.29677978  1
  Sb  Sb2  1  0.75000000  0.95470241  0.79565148  1
  Te  Te0  1  0.25000000  0.44798318  0.56857194  1
  Te  Te1  1  0.75000000  0.54099317  0.43059911  1
  Te  Te2  1  0.75000000  0.95429333  0.93251127  1
  Te  Te3  1  0.25000000  0.05378517  0.07137482  1
  Te  Te4  1  0.25000000  0.76684507  0.53859661  1
  Te  Te5  1  0.75000000  0.22081375  0.45595270  1
  Te  Te6  1  0.75000000  0.27361974  0.96321794  1
  Te  Te7  1  0.25000000  0.73669119  0.04292594  1
  Te  Te8  1  0.25000000  0.79765735  0.79314251  1
  Te  Te9  1  0.75000000  0.19500867  0.20106050  1
  Te  Te10  1  0.75000000  0.29417135  0.70806102  1
  Te  Te11  1  0.25000000  0.70251957  0.29659770  1
  Te  Te12  1  0.25000000  0.45959950  0.83509757  1
  Te  Te13  1  0.75000000  0.55316434  0.16538942  1
  Te  Te14  1  0.75000000  0.95656061  0.66555236  1
  Te  Te15  1  0.25000000  0.03468653  0.32566394  1
  Te  Te16  1  0.25000000  0.35642517  0.31854190  1
  Te  Te17  1  0.75000000  0.63889944  0.67910254  1
  Te  Te18  1  0.75000000  0.87417734  0.18386301  1
  Te  Te19  1  0.25000000  0.14177489  0.82294499  1
loop_
_geom_bond_atom_site_label_1
_geom_bond_atom_site_label_2
_geom_bond_distance
_geom_bond_site_symmetry_2
Rb0 Te13 3.753353 1_555
Rb0 Te13 3.753353 1_455
Rb0 Te9 3.757729 1_455
Rb0 Te9 3.757729 1_555
Rb0 Te3 3.761064 1_555
Rb0 Te6 3.812013 1_554
Rb0 Te6 3.812013 1_454
Rb1 Te12 3.758460 1_655
Rb1 Te12 3.758460 1_555
Rb1 Te7 3.788802 1_556
Rb1 Te7 3.788802 1_656
Rb1 Te2 3.798849 1_555
Rb1 Te8 3.909577 1_555
Rb1 Te8 3.909577 1_655
Rb2 Te4 3.751352 1_655
Rb2 Te4 3.751352 1_555
Rb2 Te15 3.763947 1_665
Rb2 Te15 3.763947 1_565
Rb2 Te11 3.870567 1_655
Rb2 Te11 3.870567 1_555
Rb2 Te1 3.963954 1_555
Rb3 Te5 3.771816 1_455
Rb3 Te5 3.771816 1_555
Rb3 Te0 3.774778 1_555
Rb3 Te14 3.781883 1_445
Rb3 Te14 3.781883 1_545
Rb3 Te10 3.925111 1_455
Rb3 Te10 3.925111 1_555
Sc0 Te9 2.866905 1_555
Sc0 Te9 2.866905 1_455
Sc0 Te15 2.900878 1_555
Sc0 Te3 2.944979 1_555
Sc0 Te18 3.057596 1_545
Sc0 Te18 3.057596 1_445
Sc1 Te4 2.877426 1_555
Sc1 Te14 2.935030 1_555
Sc1 Te14 2.935030 1_455
Sc1 Te17 2.965531 1_455
Sc1 Te17 2.965531 1_555
Sc1 Te8 2.991960 1_555
Sc2 Te15 2.926783 1_655
Sc2 Te15 2.926783 1_555
Sc2 Te5 2.936385 1_555
Sc2 Te9 2.936695 1_555
Sc2 Te16 2.995699 1_555
Sc2 Te16 2.995699 1_655
Sc3 Te6 2.886358 1_555
Sc3 Te12 2.925495 1_655
Sc3 Te12 2.925495 1_555
Sc3 Te19 2.972213 1_655
Sc3 Te19 2.972213 1_555
Sc3 Te10 2.999633 1_555
Sc4 Te7 2.882888 1_555
Sc4 Te13 2.907158 1_555
Sc4 Te13 2.907158 1_455
Sc4 Te11 2.968747 1_555
Sc4 Te18 3.019746 1_555
Sc4 Te18 3.019746 1_455
Sc5 Te16 2.905686 1_555
Sc5 Te5 2.963676 1_455
Sc5 Te5 2.963676 1_555
Sc5 Te1 2.965311 1_455
Sc5 Te1 2.965311 1_555
Sc5 Te0 2.969096 1_555
Sc6 Te1 2.920076 1_555
Sc6 Te17 2.927922 1_555
Sc6 Te0 2.957542 1_555
Sc6 Te0 2.957542 1_655
Sc6 Te4 2.971691 1_655
Sc6 Te4 2.971691 1_555
Sc7 Te2 2.910128 1_554
Sc7 Te3 2.945211 1_665
Sc7 Te3 2.945211 1_565
Sc7 Te7 2.958121 1_555
Sc7 Te7 2.958121 1_655
Sc7 Te18 2.978189 1_555
Sc8 Te19 2.912909 1_555
Sc8 Te3 2.924012 1_556
Sc8 Te2 2.961075 1_445
Sc8 Te2 2.961075 1_545
Sc8 Te6 2.966646 1_555
Sc8 Te6 2.966646 1_455
Sb0 Te10 2.923275 1_455
Sb0 Te10 2.923275 1_555
Sb0 Te12 3.019355 1_555
Sb0 Te0 3.101476 1_555
Sb0 Te17 3.256606 1_555
Sb0 Te17 3.256606 1_455
Sb1 Te11 2.935999 1_655
Sb1 Te11 2.935999 1_555
Sb1 Te13 3.020198 1_555
Sb1 Te1 3.073180 1_555
Sb1 Te16 3.242601 1_555
Sb1 Te16 3.242601 1_655
Sb2 Te8 2.921818 1_655
Sb2 Te8 2.921818 1_555
Sb2 Te14 2.987539 1_555
Sb2 Te2 3.142537 1_555
Sb2 Te19 3.254874 1_665
Sb2 Te19 3.254874 1_565
