# generated using pymatgen
data_NaCa9(Bi2As)2
_symmetry_space_group_name_H-M   'P 1'
_cell_length_a   8.18892186
_cell_length_b   9.45576864
_cell_length_c   12.63588704
_cell_angle_alpha   90.00000000
_cell_angle_beta   89.71276896
_cell_angle_gamma   90.00000000
_symmetry_Int_Tables_number   1
_chemical_formula_structural   NaCa9(Bi2As)2
_chemical_formula_sum   'Na2 Ca18 Bi8 As4'
_cell_volume   978.41666758
_cell_formula_units_Z   2
loop_
 _symmetry_equiv_pos_site_id
 _symmetry_equiv_pos_as_xyz
  1  'x, y, z'
loop_
 _atom_site_type_symbol
 _atom_site_label
 _atom_site_symmetry_multiplicity
 _atom_site_fract_x
 _atom_site_fract_y
 _atom_site_fract_z
 _atom_site_occupancy
  Na  Na0  1  0.03610921  0.75000000  0.50057204  1
  Na  Na1  1  0.96389079  0.25000000  0.49942796  1
  Ca  Ca0  1  0.54425075  0.25000000  0.99718516  1
  Ca  Ca1  1  0.45574925  0.75000000  0.00281484  1
  Ca  Ca2  1  0.86559436  0.75000000  0.80009184  1
  Ca  Ca3  1  0.13440564  0.25000000  0.19990816  1
  Ca  Ca4  1  0.35574507  0.25000000  0.70621980  1
  Ca  Ca5  1  0.64425493  0.75000000  0.29378020  1
  Ca  Ca6  1  0.69501746  0.51590674  0.56419323  1
  Ca  Ca7  1  0.30498254  0.48409326  0.43580677  1
  Ca  Ca8  1  0.18532104  0.46324617  0.92747543  1
  Ca  Ca9  1  0.30498254  0.01590674  0.43580677  1
  Ca  Ca10  1  0.81467896  0.53675383  0.07252457  1
  Ca  Ca11  1  0.69501746  0.98409326  0.56419323  1
  Ca  Ca12  1  0.81467896  0.96324617  0.07252457  1
  Ca  Ca13  1  0.18532104  0.03675383  0.92747543  1
  Ca  Ca14  1  0.33450924  0.75000000  0.70992158  1
  Ca  Ca15  1  0.66549076  0.25000000  0.29007842  1
  Ca  Ca16  1  0.84284632  0.25000000  0.78677068  1
  Ca  Ca17  1  0.15715368  0.75000000  0.21322932  1
  Bi  Bi0  1  0.57061407  0.51106249  0.82679978  1
  Bi  Bi1  1  0.42938593  0.48893751  0.17320022  1
  Bi  Bi2  1  0.06506327  0.49334419  0.67017487  1
  Bi  Bi3  1  0.42938593  0.01106249  0.17320022  1
  Bi  Bi4  1  0.93493673  0.50665581  0.32982513  1
  Bi  Bi5  1  0.57061407  0.98893751  0.82679978  1
  Bi  Bi6  1  0.93493673  0.99334419  0.32982513  1
  Bi  Bi7  1  0.06506327  0.00665581  0.67017487  1
  As  As0  1  0.07263826  0.75000000  0.98635161  1
  As  As1  1  0.92736174  0.25000000  0.01364839  1
  As  As2  1  0.52883221  0.25000000  0.50492407  1
  As  As3  1  0.47116779  0.75000000  0.49507593  1
loop_
_geom_bond_atom_site_label_1
_geom_bond_atom_site_label_2
_geom_bond_distance
_geom_bond_site_symmetry_2
Bi0 Ca0 3.281913 1_555
Bi0 Ca1 3.303793 1_556
Bi0 Ca2 3.323448 1_555
Bi0 Ca14 3.324539 1_555
Bi0 Ca16 3.362734 1_555
Bi0 Ca4 3.396773 1_555
Bi0 Ca8 3.425984 1_555
Bi0 Ca6 3.466541 1_555
Bi0 Ca10 3.708971 1_556
Bi1 Ca1 3.281913 1_555
Bi1 Ca0 3.303793 1_554
Bi1 Ca3 3.323448 1_555
Bi1 Ca15 3.324539 1_555
Bi1 Ca17 3.362734 1_555
Bi1 Ca5 3.396773 1_555
Bi1 Ca10 3.425984 1_555
Bi1 Ca7 3.466541 1_555
Bi1 Ca8 3.708971 1_554
Bi2 Na0 3.247130 1_555
Bi2 Na1 3.264035 1_455
Bi2 Ca16 3.278675 1_455
Bi2 Ca14 3.319880 1_555
Bi2 Ca6 3.325982 1_455
Bi2 Ca4 3.343517 1_555
Bi2 Ca2 3.350502 1_455
Bi2 Ca8 3.413697 1_555
Bi2 Ca7 3.546754 1_555
Bi3 Ca1 3.281913 1_545
Bi3 Ca0 3.303793 1_554
Bi3 Ca3 3.323448 1_555
Bi3 Ca15 3.324539 1_555
Bi3 Ca17 3.362734 1_545
Bi3 Ca5 3.396773 1_545
Bi3 Ca12 3.425984 1_545
Bi3 Ca9 3.466541 1_555
Bi3 Ca13 3.708971 1_554
Bi4 Na1 3.247130 1_555
Bi4 Na0 3.264035 1_655
Bi4 Ca17 3.278675 1_655
Bi4 Ca15 3.319880 1_555
Bi4 Ca7 3.325982 1_655
Bi4 Ca5 3.343517 1_555
Bi4 Ca3 3.350502 1_655
Bi4 Ca10 3.413697 1_555
Bi4 Ca6 3.546754 1_555
Bi5 Ca0 3.281913 1_565
Bi5 Ca1 3.303793 1_556
Bi5 Ca2 3.323448 1_555
Bi5 Ca14 3.324539 1_555
Bi5 Ca16 3.362734 1_565
Bi5 Ca4 3.396773 1_565
Bi5 Ca13 3.425984 1_565
Bi5 Ca11 3.466541 1_555
Bi5 Ca12 3.708971 1_556
Bi6 Na1 3.247130 1_565
Bi6 Na0 3.264035 1_655
Bi6 Ca17 3.278675 1_655
Bi6 Ca15 3.319880 1_565
Bi6 Ca9 3.325982 1_665
Bi6 Ca5 3.343517 1_555
Bi6 Ca3 3.350502 1_665
Bi6 Ca12 3.413697 1_555
Bi6 Ca11 3.546754 1_555
Bi7 Na0 3.247130 1_545
Bi7 Na1 3.264035 1_455
Bi7 Ca16 3.278675 1_455
Bi7 Ca14 3.319880 1_545
Bi7 Ca11 3.325982 1_445
Bi7 Ca4 3.343517 1_555
Bi7 Ca2 3.350502 1_445
Bi7 Ca13 3.413697 1_555
Bi7 Ca9 3.546754 1_555
As0 Ca2 2.907550 1_455
As0 Ca17 2.952529 1_556
As0 Ca8 2.958068 1_555
As0 Ca13 2.958068 1_565
As0 Ca10 3.112996 1_456
As0 Ca12 3.112996 1_456
As0 Ca1 3.145196 1_556
As1 Ca3 2.907550 1_655
As1 Ca16 2.952529 1_554
As1 Ca12 2.958068 1_545
As1 Ca10 2.958068 1_555
As1 Ca13 3.112996 1_654
As1 Ca8 3.112996 1_654
As1 Ca0 3.145196 1_554
As2 Ca4 2.905601 1_555
As2 Ca15 2.931185 1_555
As2 Ca6 2.957204 1_555
As2 Ca11 2.957204 1_545
As2 Ca7 3.006450 1_555
As2 Ca9 3.006450 1_555
As3 Ca5 2.905601 1_555
As3 Ca14 2.931185 1_555
As3 Ca9 2.957204 1_565
As3 Ca7 2.957204 1_555
As3 Ca11 3.006450 1_555
As3 Ca6 3.006450 1_555
