# generated using pymatgen
data_Ta6Si5Mo6P
_symmetry_space_group_name_H-M   'P 1'
_cell_length_a   7.65131557
_cell_length_b   7.65283113
_cell_length_c   7.65131795
_cell_angle_alpha   126.40833689
_cell_angle_beta   128.77034700
_cell_angle_gamma   77.30210848
_symmetry_Int_Tables_number   1
_chemical_formula_structural   Ta6Si5Mo6P
_chemical_formula_sum   'Ta6 Si5 Mo6 P1'
_cell_volume   272.76340643
_cell_formula_units_Z   1
loop_
 _symmetry_equiv_pos_site_id
 _symmetry_equiv_pos_as_xyz
  1  'x, y, z'
loop_
 _atom_site_type_symbol
 _atom_site_label
 _atom_site_symmetry_multiplicity
 _atom_site_fract_x
 _atom_site_fract_y
 _atom_site_fract_z
 _atom_site_occupancy
  Ta  Ta0  1  0.54853130  0.09357989  0.04504859  1
  Ta  Ta1  1  0.44965235  0.49709879  0.54744544  1
  Ta  Ta2  1  0.95152801  0.49686979  0.04533978  1
  Ta  Ta3  1  0.05030502  0.09742224  0.54711722  1
  Ta  Ta4  1  0.75010317  0.89893417  0.64883100  1
  Ta  Ta5  1  0.25000655  0.89691067  0.14690511  1
  Si  Si0  1  0.24992672  0.49687034  0.74694361  1
  Si  Si1  1  0.33311665  0.83005154  0.49641543  1
  Si  Si2  1  0.66632337  0.16356101  0.49649373  1
  Si  Si3  1  0.83363611  0.83005154  0.99693588  1
  Si  Si4  1  0.16706628  0.16356101  0.99723564  1
  Mo  Mo0  1  0.50423964  0.24092288  0.74521663  1
  Mo  Mo1  1  0.99570625  0.24092288  0.23668323  1
  Mo  Mo2  1  0.12390729  0.75263640  0.62072223  1
  Mo  Mo3  1  0.86794012  0.49670651  0.62060878  1
  Mo  Mo4  1  0.63191416  0.75263640  0.12872910  1
  Mo  Mo5  1  0.37609773  0.49670651  0.12876739  1
  P  P0  1  0.74999725  0.49675645  0.24675920  1
loop_
_geom_bond_atom_site_label_1
_geom_bond_atom_site_label_2
_geom_bond_distance
_geom_bond_site_symmetry_2
Si0 Ta1 2.755174 1_555
Si0 Ta3 2.755897 1_555
Si0 Ta5 2.759453 1_556
Si1 Ta2 2.672779 1_455
Si1 Ta0 2.674278 1_566
Si1 Ta4 2.677117 1_555
Si1 Ta5 2.677510 1_555
Si1 Ta3 2.679956 1_565
Si1 Ta1 2.680695 1_555
Si2 Ta0 2.673508 1_555
Si2 Ta2 2.675432 1_556
Si2 Ta4 2.676994 1_545
Si2 Ta5 2.678208 1_545
Si2 Ta1 2.680210 1_555
Si2 Ta3 2.681722 1_655
Si3 Ta2 2.672767 1_556
Si3 Ta0 2.674275 1_566
Si3 Ta4 2.677125 1_555
Si3 Ta5 2.677517 1_656
Si3 Ta3 2.679951 1_666
Si3 Ta1 2.680699 1_555
Si4 Ta0 2.673508 1_556
Si4 Ta2 2.675435 1_456
Si4 Ta4 2.676990 1_445
Si4 Ta5 2.678222 1_546
Si4 Ta1 2.680214 1_556
Si4 Ta3 2.681712 1_555
Mo0 P0 2.399526 1_556
Mo0 Si0 2.439047 1_555
Mo0 Si2 2.608766 1_555
Mo0 Si1 2.609181 1_545
Mo0 Ta4 2.866048 1_545
Mo0 Ta5 2.909275 1_545
Mo0 Ta0 2.928876 1_556
Mo0 Ta2 2.930426 1_556
Mo0 Ta3 2.945209 1_555
Mo0 Ta1 2.945804 1_555
Mo1 P0 2.399525 1_555
Mo1 Si0 2.439048 1_655
Mo1 Si4 2.608773 1_654
Mo1 Si3 2.609184 1_544
Mo1 Ta4 2.866049 1_544
Mo1 Ta5 2.909278 1_645
Mo1 Ta0 2.928875 1_555
Mo1 Ta2 2.930434 1_555
Mo1 Ta3 2.945211 1_655
Mo1 Ta1 2.945800 1_655
Mo2 P0 2.401254 1_455
Mo2 Si0 2.437534 1_555
Mo2 Si4 2.609304 1_565
Mo2 Si1 2.609688 1_555
Mo2 Ta3 2.882703 1_565
Mo2 Ta0 2.892145 1_566
Mo2 Ta4 2.925182 1_455
Mo2 Ta2 2.930183 1_455
Mo2 Ta1 2.942180 1_555
Mo2 Ta5 2.947098 1_556
Mo3 P0 2.400998 1_555
Mo3 Si0 2.436900 1_655
Mo3 Si3 2.607716 1_555
Mo3 Si2 2.608022 1_555
Mo3 Ta1 2.882749 1_555
Mo3 Ta2 2.891792 1_556
Mo3 Ta4 2.927358 1_555
Mo3 Ta0 2.931176 1_555
Mo3 Ta3 2.944278 1_655
Mo3 Ta5 2.948608 1_656
Mo4 P0 2.401255 1_555
Mo4 Si0 2.437534 1_554
Mo4 Si2 2.609306 1_565
Mo4 Si3 2.609682 1_554
Mo4 Ta3 2.882703 1_665
Mo4 Ta0 2.892146 1_565
Mo4 Ta4 2.925183 1_555
Mo4 Ta2 2.930174 1_555
Mo4 Ta1 2.942185 1_554
Mo4 Ta5 2.947093 1_555
Mo5 P0 2.401000 1_555
Mo5 Si0 2.436908 1_554
Mo5 Si1 2.607707 1_555
Mo5 Si4 2.608013 1_554
Mo5 Ta1 2.882739 1_555
Mo5 Ta2 2.891795 1_455
Mo5 Ta4 2.927357 1_555
Mo5 Ta0 2.931175 1_555
Mo5 Ta3 2.944281 1_554
Mo5 Ta5 2.948607 1_555
P0 Ta4 2.774016 1_555
P0 Ta2 2.780486 1_555
P0 Ta0 2.781489 1_555
