# generated using pymatgen
data_ZnAg3(TeO4)4
_symmetry_space_group_name_H-M   'P 1'
_cell_length_a   4.84239155
_cell_length_b   5.42430848
_cell_length_c   10.90916937
_cell_angle_alpha   93.30526299
_cell_angle_beta   89.37433080
_cell_angle_gamma   90.08358672
_symmetry_Int_Tables_number   1
_chemical_formula_structural   ZnAg3(TeO4)4
_chemical_formula_sum   'Zn1 Ag3 Te4 O16'
_cell_volume   286.05324798
_cell_formula_units_Z   1
loop_
 _symmetry_equiv_pos_site_id
 _symmetry_equiv_pos_as_xyz
  1  'x, y, z'
loop_
 _atom_site_type_symbol
 _atom_site_label
 _atom_site_symmetry_multiplicity
 _atom_site_fract_x
 _atom_site_fract_y
 _atom_site_fract_z
 _atom_site_occupancy
  Zn  Zn0  1  0.00000000  0.00000000  0.00000000  1
  Ag  Ag0  1  0.00000000  0.00000000  0.50000000  1
  Ag  Ag1  1  0.50000000  0.50000000  0.50000000  1
  Ag  Ag2  1  0.50000000  0.50000000  0.00000000  1
  Te  Te0  1  0.49121628  0.16525578  0.74975693  1
  Te  Te1  1  0.00475999  0.33174529  0.24849971  1
  Te  Te2  1  0.99524001  0.66825471  0.75150029  1
  Te  Te3  1  0.50878372  0.83474422  0.25024307  1
  O  O0  1  0.34019017  0.17668694  0.91033841  1
  O  O1  1  0.65980983  0.82331306  0.08966159  1
  O  O2  1  0.64199159  0.18579352  0.58921399  1
  O  O3  1  0.85124110  0.69032364  0.59121027  1
  O  O4  1  0.70199893  0.12896058  0.30851427  1
  O  O5  1  0.80811282  0.62745672  0.30741002  1
  O  O6  1  0.31546198  0.52796549  0.19679839  1
  O  O7  1  0.79698798  0.97501424  0.81073334  1
  O  O8  1  0.68453802  0.47203451  0.80320161  1
  O  O9  1  0.12493076  0.68871621  0.91273632  1
  O  O10  1  0.29800107  0.87103942  0.69148573  1
  O  O11  1  0.35800841  0.81420648  0.41078601  1
  O  O12  1  0.19188718  0.37254328  0.69258998  1
  O  O13  1  0.14875890  0.30967636  0.40878973  1
  O  O14  1  0.87506924  0.31128379  0.08726368  1
  O  O15  1  0.20301202  0.02498576  0.18926666  1
loop_
_geom_bond_atom_site_label_1
_geom_bond_atom_site_label_2
_geom_bond_distance
_geom_bond_site_symmetry_2
Ag0 O3 2.122309 1_445
Ag0 O13 2.122309 1_555
Ag0 O11 2.196236 1_545
Ag0 O2 2.196236 1_455
Ag0 O10 2.678186 1_545
Ag0 O4 2.678186 1_455
Ag1 O2 2.129345 1_555
Ag1 O11 2.129345 1_555
Ag1 O13 2.205027 1_555
Ag1 O3 2.205027 1_555
Ag1 O12 2.685939 1_555
Ag1 O5 2.685939 1_555
Ag2 O1 2.108557 1_555
Ag2 O0 2.108557 1_554
Ag2 O6 2.313373 1_555
Ag2 O8 2.313373 1_554
Ag2 O14 2.325592 1_555
Ag2 O9 2.325592 1_554
O0 Te0 1.888691 1_555
O0 Zn0 2.158077 1_556
O1 Te3 1.888691 1_555
O1 Zn0 2.158077 1_665
O2 Te0 1.899257 1_555
O3 Te2 1.899810 1_555
O4 Te3 1.928238 1_545
O4 Te1 1.960958 1_655
O5 Te1 1.940339 1_655
O5 Te3 1.964562 1_555
O6 Te1 1.939236 1_555
O6 Te3 1.969998 1_555
O7 Te0 1.950607 1_565
O7 Te2 1.993756 1_555
O7 Zn0 2.293385 1_666
O8 Te2 1.939236 1_555
O8 Te0 1.969998 1_555
O9 Te2 1.871373 1_455
O9 Zn0 1.981998 1_566
O10 Te0 1.928238 1_565
O10 Te2 1.960958 1_455
O11 Te3 1.899257 1_555
O12 Te2 1.940339 1_455
O12 Te0 1.964562 1_555
O13 Te1 1.899810 1_555
O14 Te1 1.871373 1_655
O14 Zn0 1.981998 1_655
O15 Te3 1.950607 1_545
O15 Te1 1.993756 1_555
O15 Zn0 2.293385 1_555
