# generated using pymatgen
data_Ta10GaB4As
_symmetry_space_group_name_H-M   'P 1'
_cell_length_a   7.30481894
_cell_length_b   7.30481878
_cell_length_c   7.30481882
_cell_angle_alpha   129.35964467
_cell_angle_beta   129.35964568
_cell_angle_gamma   74.43257589
_symmetry_Int_Tables_number   1
_chemical_formula_structural   Ta10GaB4As
_chemical_formula_sum   'Ta10 Ga1 B4 As1'
_cell_volume   227.10510831
_cell_formula_units_Z   1
loop_
 _symmetry_equiv_pos_site_id
 _symmetry_equiv_pos_as_xyz
  1  'x, y, z'
loop_
 _atom_site_type_symbol
 _atom_site_label
 _atom_site_symmetry_multiplicity
 _atom_site_fract_x
 _atom_site_fract_y
 _atom_site_fract_z
 _atom_site_occupancy
  Ta  Ta0  1  0.52895088  0.69721876  0.50051892  1
  Ta  Ta1  1  0.19669884  0.02843195  0.49948108  1
  Ta  Ta2  1  0.02843195  0.52895088  0.83173312  1
  Ta  Ta3  1  0.69721876  0.19669884  0.16826688  1
  Ta  Ta4  1  0.47156805  0.30330116  0.50051892  1
  Ta  Ta5  1  0.80278124  0.97104912  0.49948108  1
  Ta  Ta6  1  0.97104912  0.47156805  0.16826688  1
  Ta  Ta7  1  0.30330116  0.80278124  0.83173312  1
  Ta  Ta8  1  0.49925754  0.49925754  0.00000000  1
  Ta  Ta9  1  0.00074246  0.00074246  1.00000000  1
  Ga  Ga0  1  0.25000000  0.25000000  0.00000000  1
  B  B0  1  0.88078321  0.61921679  0.50000000  1
  B  B1  1  0.11921679  0.38078321  0.50000000  1
  B  B2  1  0.38078321  0.88078321  0.26156541  1
  B  B3  1  0.61921679  0.11921679  0.73843459  1
  As  As0  1  0.75000000  0.75000000  0.00000000  1
loop_
_geom_bond_atom_site_label_1
_geom_bond_atom_site_label_2
_geom_bond_distance
_geom_bond_site_symmetry_2
Ga0 Ta4 2.676918 1_555
Ga0 Ta1 2.676918 1_554
Ga0 Ta2 2.676918 1_554
Ga0 Ta6 2.676918 1_455
Ga0 Ta0 2.676922 1_555
Ga0 Ta5 2.676922 1_444
Ga0 Ta7 2.676924 1_544
Ga0 Ta3 2.676924 1_555
Ga0 Ta8 2.899987 1_555
Ga0 Ta9 2.899987 1_554
B0 B1 2.106866 1_655
B0 Ta2 2.408342 1_655
B0 Ta6 2.408342 1_555
B0 Ta3 2.410345 1_555
B0 Ta7 2.410345 1_655
B0 Ta5 2.480635 1_555
B0 Ta0 2.480635 1_555
B0 Ta8 2.493103 1_555
B0 Ta9 2.493103 1_665
B1 Ta7 2.408336 1_555
B1 Ta3 2.408336 1_455
B1 Ta6 2.410347 1_455
B1 Ta2 2.410347 1_555
B1 Ta1 2.480635 1_555
B1 Ta4 2.480635 1_555
B1 Ta8 2.493103 1_556
B1 Ta9 2.493103 1_554
B2 B3 2.106875 1_565
B2 Ta5 2.408333 1_555
B2 Ta1 2.408348 1_565
B2 Ta4 2.410345 1_565
B2 Ta0 2.410346 1_555
B2 Ta7 2.480625 1_554
B2 Ta2 2.480636 1_554
B2 Ta9 2.493101 1_564
B2 Ta8 2.493101 1_555
B3 Ta0 2.408333 1_545
B3 Ta4 2.408348 1_555
B3 Ta1 2.410345 1_555
B3 Ta5 2.410346 1_545
B3 Ta3 2.480625 1_556
B3 Ta6 2.480636 1_556
B3 Ta8 2.493101 1_556
B3 Ta9 2.493101 1_655
As0 Ta3 2.673130 1_565
As0 Ta7 2.673130 1_554
As0 Ta4 2.673131 1_554
As0 Ta1 2.673131 1_665
As0 Ta6 2.673131 1_555
As0 Ta2 2.673131 1_654
As0 Ta0 2.673135 1_554
As0 Ta5 2.673135 1_555
As0 Ta9 2.917264 1_664
As0 Ta8 2.917264 1_555
