# generated using pymatgen
data_Y3Be2Ir6Os
_symmetry_space_group_name_H-M   'P 1'
_cell_length_a   5.38271058
_cell_length_b   5.38270974
_cell_length_c   15.51347740
_cell_angle_alpha   90.00000000
_cell_angle_beta   90.00000000
_cell_angle_gamma   119.99999911
_symmetry_Int_Tables_number   1
_chemical_formula_structural   Y3Be2Ir6Os
_chemical_formula_sum   'Y6 Be4 Ir12 Os2'
_cell_volume   389.26179708
_cell_formula_units_Z   2
loop_
 _symmetry_equiv_pos_site_id
 _symmetry_equiv_pos_as_xyz
  1  'x, y, z'
loop_
 _atom_site_type_symbol
 _atom_site_label
 _atom_site_symmetry_multiplicity
 _atom_site_fract_x
 _atom_site_fract_y
 _atom_site_fract_z
 _atom_site_occupancy
  Y  Y0  1  0.33333300  0.66666700  0.53660573  1
  Y  Y1  1  0.66666700  0.33333300  0.46339427  1
  Y  Y2  1  0.66666700  0.33333300  0.03660573  1
  Y  Y3  1  0.33333300  0.66666700  0.96339427  1
  Y  Y4  1  0.33333300  0.66666700  0.75000000  1
  Y  Y5  1  0.66666700  0.33333300  0.25000000  1
  Be  Be0  1  0.00000000  0.00000000  0.25000000  1
  Be  Be1  1  0.00000000  0.00000000  0.75000000  1
  Be  Be2  1  0.33333300  0.66666700  0.25000000  1
  Be  Be3  1  0.66666700  0.33333300  0.75000000  1
  Ir  Ir0  1  0.16763947  0.33527894  0.13535216  1
  Ir  Ir1  1  0.83236053  0.66472106  0.86464784  1
  Ir  Ir2  1  0.66472106  0.83236053  0.13535216  1
  Ir  Ir3  1  0.83236053  0.66472106  0.63535216  1
  Ir  Ir4  1  0.33527894  0.16763947  0.86464784  1
  Ir  Ir5  1  0.16763947  0.33527894  0.36464784  1
  Ir  Ir6  1  0.16763947  0.83236053  0.13535216  1
  Ir  Ir7  1  0.33527894  0.16763947  0.63535216  1
  Ir  Ir8  1  0.83236053  0.16763947  0.86464784  1
  Ir  Ir9  1  0.66472106  0.83236053  0.36464784  1
  Ir  Ir10  1  0.83236053  0.16763947  0.63535216  1
  Ir  Ir11  1  0.16763947  0.83236053  0.36464784  1
  Os  Os0  1  0.00000000  0.00000000  0.00000000  1
  Os  Os1  1  0.00000000  0.00000000  0.50000000  1
loop_
_geom_bond_atom_site_label_1
_geom_bond_atom_site_label_2
_geom_bond_distance
_geom_bond_site_symmetry_2
Y0 Y1 3.308745 1_565
Y0 Y1 3.308746 1_455
Y0 Y1 3.308754 1_555
Y0 Y4 3.310487 1_555
Y1 Y5 3.310487 1_555
Y2 Y3 3.308745 1_544
Y2 Y3 3.308746 1_654
Y2 Y3 3.308754 1_554
Y2 Y5 3.310487 1_555
Y3 Y4 3.310487 1_555
Be0 Ir5 2.367721 1_555
Be0 Ir0 2.367721 1_555
Be0 Ir11 2.367721 1_545
Be0 Ir6 2.367721 1_545
Be0 Ir9 2.367721 1_445
Be0 Ir2 2.367721 1_445
Be0 Y5 3.107706 1_455
Be0 Y5 3.107710 1_445
Be0 Y5 3.107711 1_555
Be1 Ir1 2.367721 1_445
Be1 Ir3 2.367721 1_445
Be1 Ir8 2.367721 1_455
Be1 Ir10 2.367721 1_455
Be1 Ir4 2.367721 1_555
Be1 Ir7 2.367721 1_555
Be1 Y4 3.107706 1_545
Be1 Y4 3.107710 1_555
Be1 Y4 3.107711 1_445
Be2 Ir11 2.355785 1_555
Be2 Ir6 2.355785 1_555
Be2 Ir5 2.355788 1_555
Be2 Ir0 2.355788 1_555
Be2 Ir9 2.355788 1_555
Be2 Ir2 2.355788 1_555
Be2 Y5 3.107706 1_565
Be2 Y5 3.107706 1_455
Be2 Y5 3.107715 1_555
Be3 Ir8 2.355785 1_555
Be3 Ir10 2.355785 1_555
Be3 Ir1 2.355788 1_555
Be3 Ir3 2.355788 1_555
Be3 Ir4 2.355788 1_555
Be3 Ir7 2.355788 1_555
Be3 Y4 3.107706 1_545
Be3 Y4 3.107706 1_655
Be3 Y4 3.107715 1_555
Ir0 Os0 2.617598 1_555
Ir0 Ir6 2.675646 1_555
Ir0 Ir2 2.675646 1_555
Ir0 Ir6 2.707064 1_545
Ir0 Ir2 2.707064 1_445
Ir0 Y3 3.082661 1_554
Ir0 Y2 3.096802 1_455
Ir0 Y2 3.096806 1_555
Ir0 Y5 3.225962 1_455
Ir0 Y5 3.225967 1_555
Ir1 Os0 2.617598 1_666
Ir1 Ir8 2.675646 1_555
Ir1 Ir4 2.675646 1_555
Ir1 Ir8 2.707064 1_565
Ir1 Ir4 2.707064 1_665
Ir1 Y2 3.082661 1_556
Ir1 Y3 3.096802 1_655
Ir1 Y3 3.096806 1_555
Ir1 Y4 3.225962 1_655
Ir1 Y4 3.225967 1_555
Ir2 Os0 2.617598 1_665
Ir2 Ir6 2.675646 1_555
Ir2 Ir6 2.707064 1_655
Ir2 Y3 3.082662 1_554
Ir2 Y2 3.096801 1_565
Ir2 Y2 3.096806 1_555
Ir2 Y5 3.225962 1_565
Ir2 Y5 3.225966 1_555
Ir3 Os1 2.617598 1_665
Ir3 Ir7 2.675646 1_555
Ir3 Ir7 2.707064 1_665
Ir3 Y1 3.082661 1_555
Ir3 Y0 3.096802 1_655
Ir3 Y0 3.096806 1_555
Ir3 Y4 3.225962 1_655
Ir3 Y4 3.225967 1_555
Ir4 Os0 2.617598 1_556
Ir4 Ir8 2.675646 1_555
Ir4 Ir8 2.707064 1_455
Ir4 Y2 3.082662 1_556
Ir4 Y3 3.096801 1_545
Ir4 Y3 3.096806 1_555
Ir4 Y4 3.225962 1_545
Ir4 Y4 3.225966 1_555
Ir5 Os1 2.617598 1_555
Ir5 Ir9 2.675646 1_555
Ir5 Ir9 2.707064 1_445
Ir5 Y0 3.082661 1_555
Ir5 Y1 3.096802 1_455
Ir5 Y1 3.096806 1_555
Ir5 Y5 3.225962 1_455
Ir5 Y5 3.225967 1_555
Ir6 Os0 2.617598 1_565
Ir6 Y3 3.082659 1_554
Ir6 Y2 3.096804 1_565
Ir6 Y2 3.096804 1_455
Ir6 Y5 3.225964 1_565
Ir6 Y5 3.225964 1_455
Ir7 Os1 2.617598 1_555
Ir7 Y1 3.082662 1_555
Ir7 Y0 3.096801 1_545
Ir7 Y0 3.096806 1_555
Ir7 Y4 3.225962 1_545
Ir7 Y4 3.225966 1_555
Ir8 Os0 2.617598 1_656
Ir8 Y2 3.082659 1_556
Ir8 Y3 3.096804 1_545
Ir8 Y3 3.096804 1_655
Ir8 Y4 3.225964 1_545
Ir8 Y4 3.225964 1_655
Ir9 Os1 2.617598 1_665
Ir9 Y0 3.082662 1_555
Ir9 Y1 3.096801 1_565
Ir9 Y1 3.096806 1_555
Ir9 Y5 3.225962 1_565
Ir9 Y5 3.225966 1_555
Ir10 Os1 2.617598 1_655
Ir10 Ir3 2.675646 1_555
Ir10 Ir7 2.675646 1_555
Ir10 Ir3 2.707064 1_545
Ir10 Ir7 2.707064 1_655
Ir10 Y1 3.082659 1_555
Ir10 Y0 3.096804 1_545
Ir10 Y0 3.096804 1_655
Ir10 Y4 3.225964 1_545
Ir10 Y4 3.225964 1_655
Ir11 Os1 2.617598 1_565
Ir11 Ir5 2.675646 1_555
Ir11 Ir9 2.675646 1_555
Ir11 Ir5 2.707064 1_565
Ir11 Ir9 2.707064 1_455
Ir11 Y0 3.082659 1_555
Ir11 Y1 3.096804 1_565
Ir11 Y1 3.096804 1_455
Ir11 Y5 3.225964 1_565
Ir11 Y5 3.225964 1_455
Os0 Y2 3.159166 1_455
Os0 Y3 3.159166 1_544
Os0 Y3 3.159170 1_554
Os0 Y2 3.159170 1_445
Os0 Y2 3.159170 1_555
Os0 Y3 3.159170 1_444
Os1 Y0 3.159166 1_545
Os1 Y1 3.159166 1_455
Os1 Y0 3.159170 1_555
Os1 Y1 3.159170 1_445
Os1 Y1 3.159170 1_555
Os1 Y0 3.159170 1_445
