# generated using pymatgen
data_NaSiBiO4
_symmetry_space_group_name_H-M   'P 1'
_cell_length_a   5.08895724
_cell_length_b   6.90491237
_cell_length_c   10.96441955
_cell_angle_alpha   90.00000000
_cell_angle_beta   90.00000000
_cell_angle_gamma   90.00000000
_symmetry_Int_Tables_number   1
_chemical_formula_structural   NaSiBiO4
_chemical_formula_sum   'Na4 Si4 Bi4 O16'
_cell_volume   385.27658754
_cell_formula_units_Z   4
loop_
 _symmetry_equiv_pos_site_id
 _symmetry_equiv_pos_as_xyz
  1  'x, y, z'
loop_
 _atom_site_type_symbol
 _atom_site_label
 _atom_site_symmetry_multiplicity
 _atom_site_fract_x
 _atom_site_fract_y
 _atom_site_fract_z
 _atom_site_occupancy
  Na  Na0  1  0.50000000  0.50000000  0.00000000  1
  Na  Na1  1  0.50000000  0.00000000  0.00000000  1
  Na  Na2  1  0.00000000  0.00000000  0.50000000  1
  Na  Na3  1  0.00000000  0.50000000  0.50000000  1
  Si  Si0  1  0.57813066  0.75000000  0.40488041  1
  Si  Si1  1  0.92186934  0.75000000  0.90488041  1
  Si  Si2  1  0.42186934  0.25000000  0.59511959  1
  Si  Si3  1  0.07813066  0.25000000  0.09511959  1
  Bi  Bi0  1  0.52264630  0.25000000  0.28053493  1
  Bi  Bi1  1  0.47735370  0.75000000  0.71946507  1
  Bi  Bi2  1  0.97735370  0.25000000  0.78053493  1
  Bi  Bi3  1  0.02264630  0.75000000  0.21946507  1
  O  O0  1  0.76187518  0.25000000  0.09247539  1
  O  O1  1  0.23812482  0.75000000  0.90752461  1
  O  O2  1  0.73812482  0.25000000  0.59247539  1
  O  O3  1  0.26187518  0.75000000  0.40752461  1
  O  O4  1  0.79315616  0.75000000  0.04114259  1
  O  O5  1  0.20684384  0.25000000  0.95885741  1
  O  O6  1  0.70684384  0.75000000  0.54114259  1
  O  O7  1  0.29315616  0.25000000  0.45885741  1
  O  O8  1  0.71236045  0.56764750  0.32726224  1
  O  O9  1  0.28763955  0.06764750  0.67273776  1
  O  O10  1  0.78763955  0.56764750  0.82726224  1
  O  O11  1  0.21236045  0.06764750  0.17273776  1
  O  O12  1  0.21236045  0.43235250  0.17273776  1
  O  O13  1  0.78763955  0.93235250  0.82726224  1
  O  O14  1  0.28763955  0.43235250  0.67273776  1
  O  O15  1  0.71236045  0.93235250  0.32726224  1
loop_
_geom_bond_atom_site_label_1
_geom_bond_atom_site_label_2
_geom_bond_distance
_geom_bond_site_symmetry_2
Na0 O4 2.325726 1_555
Na0 O5 2.325726 1_554
Na0 O0 2.404984 1_555
Na0 O1 2.404984 1_554
Na0 O12 2.438846 1_555
Na0 O10 2.438846 1_554
Na1 O4 2.325726 1_545
Na1 O5 2.325726 1_554
Na1 O0 2.404984 1_555
Na1 O1 2.404984 1_544
Na1 O11 2.438846 1_555
Na1 O13 2.438846 1_544
Na2 O7 2.325726 1_555
Na2 O6 2.325726 1_445
Na2 O2 2.404984 1_455
Na2 O3 2.404984 1_545
Na2 O9 2.438846 1_555
Na2 O15 2.438846 1_445
Na3 O7 2.325726 1_555
Na3 O6 2.325726 1_455
Na3 O2 2.404984 1_455
Na3 O3 2.404984 1_555
Na3 O14 2.438846 1_555
Na3 O8 2.438846 1_455
Bi0 O7 2.277439 1_555
Bi0 O12 2.340024 1_555
Bi0 O11 2.340024 1_555
Bi0 O0 2.394539 1_555
Bi0 O8 2.450565 1_555
Bi0 O15 2.450565 1_545
Bi1 O6 2.277439 1_555
Bi1 O13 2.340024 1_555
Bi1 O10 2.340024 1_555
Bi1 O1 2.394539 1_555
Bi1 O9 2.450565 1_565
Bi1 O14 2.450565 1_555
Bi2 O5 2.277439 1_655
Bi2 O14 2.340024 1_655
Bi2 O9 2.340024 1_655
Bi2 O2 2.394539 1_555
Bi2 O10 2.450565 1_555
Bi2 O13 2.450565 1_545
Bi3 O4 2.277439 1_455
Bi3 O15 2.340024 1_455
Bi3 O8 2.340024 1_455
Bi3 O3 2.394539 1_555
Bi3 O11 2.450565 1_565
Bi3 O12 2.450565 1_555
O0 Si3 1.609672 1_655
O1 Si1 1.609672 1_455
O2 Si2 1.609672 1_555
O3 Si0 1.609672 1_555
O4 Si1 1.631315 1_554
O5 Si3 1.631315 1_556
O6 Si0 1.631315 1_555
O7 Si2 1.631315 1_555
O8 Si0 1.666218 1_555
O9 Si2 1.666218 1_555
O10 Si1 1.666218 1_555
O11 Si3 1.666218 1_555
O12 Si3 1.666218 1_555
O13 Si1 1.666218 1_555
O14 Si2 1.666218 1_555
O15 Si0 1.666218 1_555
