# generated using pymatgen
data_Ti6Ga6PtRh5
_symmetry_space_group_name_H-M   'P 1'
_cell_length_a   7.27195130
_cell_length_b   7.27195159
_cell_length_c   5.84225871
_cell_angle_alpha   90.00000000
_cell_angle_beta   90.00000000
_cell_angle_gamma   119.99999425
_symmetry_Int_Tables_number   1
_chemical_formula_structural   Ti6Ga6PtRh5
_chemical_formula_sum   'Ti6 Ga6 Pt1 Rh5'
_cell_volume   267.55519147
_cell_formula_units_Z   1
loop_
 _symmetry_equiv_pos_site_id
 _symmetry_equiv_pos_as_xyz
  1  'x, y, z'
loop_
 _atom_site_type_symbol
 _atom_site_label
 _atom_site_symmetry_multiplicity
 _atom_site_fract_x
 _atom_site_fract_y
 _atom_site_fract_z
 _atom_site_occupancy
  Ti  Ti0  1  0.37477989  0.37077115  0.74796581  1
  Ti  Ti1  1  0.99599126  0.62522011  0.74796581  1
  Ti  Ti2  1  0.62922885  0.00400874  0.74796581  1
  Ti  Ti3  1  0.62923064  0.00398495  0.25213857  1
  Ti  Ti4  1  0.99601505  0.62524569  0.25213857  1
  Ti  Ti5  1  0.37475431  0.37076936  0.25213857  1
  Ga  Ga0  1  0.29249208  0.00160700  0.99993002  1
  Ga  Ga1  1  0.70911491  0.70750792  0.99993002  1
  Ga  Ga2  1  0.99839300  0.29088509  0.99993002  1
  Ga  Ga3  1  0.70642387  0.70790117  0.49997627  1
  Ga  Ga4  1  0.29209883  0.99852270  0.49997627  1
  Ga  Ga5  1  0.00147730  0.29357613  0.49997627  1
  Pt  Pt0  1  0.33333300  0.66666700  0.00027664  1
  Rh  Rh0  1  0.66666700  0.33333300  0.99988246  1
  Rh  Rh1  1  0.00000000  0.00000000  0.74981420  1
  Rh  Rh2  1  0.66666700  0.33333300  0.49988546  1
  Rh  Rh3  1  0.33333300  0.66666700  0.50013112  1
  Rh  Rh4  1  0.00000000  0.00000000  0.24997207  1
loop_
_geom_bond_atom_site_label_1
_geom_bond_atom_site_label_2
_geom_bond_distance
_geom_bond_site_symmetry_2
Ti0 Ti5 2.896751 1_555
Ti0 Ti5 2.945508 1_556
Ti1 Ti4 2.896751 1_555
Ti1 Ti4 2.945508 1_556
Ti2 Ti3 2.896751 1_555
Ti2 Ti3 2.945508 1_556
Ga0 Rh4 2.575524 1_556
Ga0 Rh1 2.575769 1_555
Ga0 Rh0 2.580523 1_555
Ga0 Pt0 2.596933 1_546
Ga0 Ti2 2.849690 1_555
Ga0 Ti0 2.850498 1_555
Ga0 Ti3 2.850512 1_556
Ga0 Ti5 2.851273 1_556
Ga0 Ti1 2.899289 1_445
Ga0 Ti4 2.899861 1_446
Ga0 Ga4 2.920936 1_545
Ga0 Ga4 2.921476 1_546
Ga1 Rh4 2.575525 1_666
Ga1 Rh1 2.575769 1_665
Ga1 Rh0 2.580526 1_555
Ga1 Pt0 2.596940 1_556
Ga1 Ti0 2.849690 1_555
Ga1 Ti1 2.850498 1_555
Ga1 Ti5 2.850512 1_556
Ga1 Ti4 2.851273 1_556
Ga1 Ti2 2.899289 1_565
Ga1 Ti3 2.899861 1_566
Ga1 Ga3 2.920936 1_555
Ga1 Ga3 2.921476 1_556
Ga2 Rh4 2.575525 1_656
Ga2 Rh1 2.575769 1_655
Ga2 Rh0 2.580519 1_555
Ga2 Pt0 2.596938 1_656
Ga2 Ti1 2.849690 1_555
Ga2 Ti2 2.850498 1_555
Ga2 Ti4 2.850512 1_556
Ga2 Ti3 2.851273 1_556
Ga2 Ti0 2.899289 1_655
Ga2 Ti5 2.899861 1_656
Ga2 Ga5 2.920936 1_655
Ga2 Ga5 2.921476 1_656
Ga3 Rh3 2.576293 1_555
Ga3 Rh1 2.581732 1_665
Ga3 Rh4 2.582282 1_665
Ga3 Rh2 2.591410 1_555
Ga3 Ti5 2.830385 1_555
Ga3 Ti0 2.830755 1_555
Ga3 Ti4 2.856283 1_555
Ga3 Ti1 2.856695 1_555
Ga3 Ti3 2.873347 1_565
Ga3 Ti2 2.873948 1_565
Ga4 Rh3 2.576286 1_555
Ga4 Rh1 2.581732 1_565
Ga4 Rh4 2.582281 1_565
Ga4 Rh2 2.591408 1_565
Ga4 Ti3 2.830385 1_565
Ga4 Ti2 2.830755 1_565
Ga4 Ti5 2.856284 1_565
Ga4 Ti0 2.856695 1_565
Ga4 Ti4 2.873347 1_455
Ga4 Ti1 2.873948 1_455
Ga5 Rh3 2.576290 1_555
Ga5 Rh1 2.581732 1_555
Ga5 Rh4 2.582281 1_555
Ga5 Rh2 2.591403 1_455
Ga5 Ti4 2.830385 1_455
Ga5 Ti1 2.830755 1_455
Ga5 Ti3 2.856284 1_455
Ga5 Ti2 2.856695 1_455
Ga5 Ti5 2.873347 1_555
Ga5 Ti0 2.873948 1_555
Pt0 Ti4 2.744817 1_455
Pt0 Ti3 2.744819 1_565
Pt0 Ti5 2.744823 1_555
Pt0 Ti1 2.746306 1_454
Pt0 Ti2 2.746309 1_564
Pt0 Ti0 2.746312 1_554
Pt0 Rh3 2.920279 1_555
Pt0 Rh3 2.921980 1_554
Rh0 Ti2 2.706183 1_555
Rh0 Ti1 2.706185 1_555
Rh0 Ti0 2.706189 1_555
Rh0 Ti3 2.707411 1_556
Rh0 Ti4 2.707413 1_556
Rh0 Ti5 2.707417 1_556
Rh0 Rh2 2.921112 1_555
Rh0 Rh2 2.921147 1_556
Rh1 Ti2 2.710944 1_455
Rh1 Ti1 2.710945 1_445
Rh1 Ti0 2.710945 1_555
Rh1 Rh4 2.920207 1_555
Rh1 Rh4 2.922052 1_556
Rh2 Ti3 2.693161 1_555
Rh2 Ti4 2.693164 1_555
Rh2 Ti5 2.693167 1_555
Rh2 Ti2 2.694059 1_555
Rh2 Ti1 2.694062 1_555
Rh2 Ti0 2.694065 1_555
Rh3 Ti1 2.732359 1_455
Rh3 Ti2 2.732361 1_565
Rh3 Ti0 2.732365 1_555
Rh3 Ti4 2.732765 1_455
Rh3 Ti3 2.732767 1_565
Rh3 Ti5 2.732771 1_555
Rh4 Ti3 2.710852 1_455
Rh4 Ti4 2.710852 1_445
Rh4 Ti5 2.710852 1_555
