# generated using pymatgen
data_Lu2TaNbN4
_symmetry_space_group_name_H-M   'P 1'
_cell_length_a   3.14158384
_cell_length_b   3.14158430
_cell_length_c   10.85340641
_cell_angle_alpha   90.00000000
_cell_angle_beta   90.00000000
_cell_angle_gamma   119.99999510
_symmetry_Int_Tables_number   1
_chemical_formula_structural   Lu2TaNbN4
_chemical_formula_sum   'Lu2 Ta1 Nb1 N4'
_cell_volume   92.76712350
_cell_formula_units_Z   1
loop_
 _symmetry_equiv_pos_site_id
 _symmetry_equiv_pos_as_xyz
  1  'x, y, z'
loop_
 _atom_site_type_symbol
 _atom_site_label
 _atom_site_symmetry_multiplicity
 _atom_site_fract_x
 _atom_site_fract_y
 _atom_site_fract_z
 _atom_site_occupancy
  Lu  Lu0  1  0.00000000  0.00000000  0.49937104  1
  Lu  Lu1  1  0.00000000  0.00000000  0.00062896  1
  Ta  Ta0  1  0.66666700  0.33333300  0.25000000  1
  Nb  Nb0  1  0.33333300  0.66666700  0.75000000  1
  N  N0  1  0.66666700  0.33333300  0.62621200  1
  N  N1  1  0.33333300  0.66666700  0.37178082  1
  N  N2  1  0.33333300  0.66666700  0.12821918  1
  N  N3  1  0.66666700  0.33333300  0.87378800  1
loop_
_geom_bond_atom_site_label_1
_geom_bond_atom_site_label_2
_geom_bond_distance
_geom_bond_site_symmetry_2
Lu0 N0 2.277065 1_455
Lu0 N0 2.277067 1_555
Lu0 N0 2.277068 1_445
Lu0 N1 2.281991 1_545
Lu0 N1 2.281993 1_445
Lu0 N1 2.281993 1_555
Lu1 N3 2.277065 1_454
Lu1 N3 2.277067 1_554
Lu1 N3 2.277068 1_444
Lu1 N2 2.281991 1_545
Lu1 N2 2.281993 1_445
Lu1 N2 2.281993 1_555
N0 Nb0 2.257187 1_655
N0 Nb0 2.257187 1_545
N0 Nb0 2.257191 1_555
N1 Ta0 2.244289 1_455
N1 Ta0 2.244289 1_565
N1 Ta0 2.244293 1_555
N2 Ta0 2.244289 1_455
N2 Ta0 2.244289 1_565
N2 Ta0 2.244293 1_555
N3 Nb0 2.257187 1_655
N3 Nb0 2.257187 1_545
N3 Nb0 2.257191 1_555
