# generated using pymatgen
data_Ba12GaAs3I8
_symmetry_space_group_name_H-M   'P 1'
_cell_length_a   16.32797112
_cell_length_b   15.57143601
_cell_length_c   8.64385233
_cell_angle_alpha   79.16941419
_cell_angle_beta   69.50107486
_cell_angle_gamma   31.29851424
_symmetry_Int_Tables_number   1
_chemical_formula_structural   Ba12GaAs3I8
_chemical_formula_sum   'Ba12 Ga1 As3 I8'
_cell_volume   1041.04317771
_cell_formula_units_Z   1
loop_
 _symmetry_equiv_pos_site_id
 _symmetry_equiv_pos_as_xyz
  1  'x, y, z'
loop_
 _atom_site_type_symbol
 _atom_site_label
 _atom_site_symmetry_multiplicity
 _atom_site_fract_x
 _atom_site_fract_y
 _atom_site_fract_z
 _atom_site_occupancy
  Ba  Ba0  1  0.37964085  0.94067125  0.58960239  1
  Ba  Ba1  1  0.58767073  0.09101396  0.37979868  1
  Ba  Ba2  1  0.30899793  0.87187140  0.15928854  1
  Ba  Ba3  1  0.94067125  0.37964085  0.09008751  1
  Ba  Ba4  1  0.46373849  0.03699761  0.03488978  1
  Ba  Ba5  1  0.87187140  0.30899793  0.65984012  1
  Ba  Ba6  1  0.09101396  0.58767073  0.94151762  1
  Ba  Ba7  1  0.66211020  0.15796566  0.87271122  1
  Ba  Ba8  1  0.78579283  0.21348958  0.21384725  1
  Ba  Ba9  1  0.21348958  0.78579283  0.78687134  1
  Ba  Ba10  1  0.15796566  0.66211020  0.30721092  1
  Ba  Ba11  1  0.03699761  0.46373849  0.46437411  1
  Ga  Ga0  1  0.08381869  0.08381869  0.91618131  1
  As  As0  1  0.91362363  0.91362363  0.08637637  1
  As  As1  1  0.16865167  0.16865167  0.33134833  1
  As  As2  1  0.33413698  0.33413698  0.16586302  1
  I  I0  1  0.67323668  0.67323668  0.82676332  1
  I  I1  1  0.74738929  0.74738929  0.25261071  1
  I  I2  1  0.25527192  0.25527192  0.74472808  1
  I  I3  1  0.57819091  0.57819091  0.42180909  1
  I  I4  1  0.99464369  0.99464369  0.50535631  1
  I  I5  1  0.82961887  0.82961887  0.67038113  1
  I  I6  1  0.42020653  0.42020653  0.57979347  1
  I  I7  1  0.50125062  0.50125062  0.99874938  1
loop_
_geom_bond_atom_site_label_1
_geom_bond_atom_site_label_2
_geom_bond_distance
_geom_bond_site_symmetry_2
Ba0 Ga0 3.268552 1_565
Ba0 I3 3.603396 1_555
Ba0 I2 3.671625 1_565
Ba0 I1 3.709302 1_555
Ba0 I0 3.752817 1_555
Ba1 I6 3.578768 1_555
Ba1 I1 3.604994 1_545
Ba1 I2 3.642396 1_555
Ba1 I5 3.756448 1_545
Ba2 Ga0 3.300634 1_564
Ba2 I0 3.623664 1_554
Ba2 I4 3.684398 1_455
Ba2 I7 3.752947 1_554
Ba2 I3 3.757228 1_555
Ba3 Ga0 3.268560 1_654
Ba3 I3 3.603389 1_555
Ba3 I2 3.671633 1_654
Ba3 I1 3.709295 1_555
Ba3 I0 3.752830 1_554
Ba4 I2 3.526121 1_554
Ba4 I1 3.542697 1_545
Ba4 I0 3.664577 1_544
Ba4 I5 3.703660 1_544
Ba5 Ga0 3.300649 1_655
Ba5 I0 3.623670 1_555
Ba5 I4 3.684390 1_545
Ba5 I7 3.752954 1_555
Ba5 I3 3.757215 1_555
Ba6 I6 3.578772 1_555
Ba6 I1 3.604991 1_456
Ba6 I2 3.642400 1_555
Ba6 I5 3.756455 1_455
Ba7 I5 3.576700 1_545
Ba7 I7 3.584736 1_555
Ba7 I4 3.659656 1_545
Ba7 I6 3.773813 1_555
Ba8 Ga0 3.281571 1_654
Ba8 I7 3.530219 1_554
Ba8 I4 3.538735 1_545
Ba8 I3 3.693695 1_555
Ba8 I6 3.710102 1_555
Ba9 Ga0 3.281568 1_565
Ba9 I7 3.530212 1_555
Ba9 I4 3.538742 1_455
Ba9 I3 3.693699 1_555
Ba9 I6 3.710106 1_555
Ba10 I5 3.576709 1_455
Ba10 I7 3.584731 1_554
Ba10 I4 3.659664 1_455
Ba10 I6 3.773828 1_555
Ba11 I2 3.526121 1_555
Ba11 I1 3.542697 1_455
Ba11 I0 3.664577 1_455
Ba11 I5 3.703660 1_455
As0 Ba6 3.231650 1_654
As0 Ba1 3.231653 1_565
As0 Ba10 3.274315 1_655
As0 Ba7 3.274328 1_564
As0 Ba9 3.322769 1_654
As0 Ba8 3.322772 1_565
As1 Ba11 3.229686 1_555
As1 Ba4 3.229686 1_555
As1 Ba5 3.304204 1_455
As1 Ba2 3.304211 1_545
As1 Ba3 3.310841 1_455
As1 Ba0 3.310855 1_545
As2 Ba10 3.259918 1_555
As2 Ba7 3.259925 1_554
As2 Ba4 3.275056 1_555
As2 Ba11 3.275056 1_555
As2 Ba6 3.291940 1_554
As2 Ba1 3.291946 1_555
