# generated using pymatgen
data_Te(PSe3)2
_symmetry_space_group_name_H-M   'P 1'
_cell_length_a   7.93533160
_cell_length_b   7.93533200
_cell_length_c   7.93533177
_cell_angle_alpha   48.62191070
_cell_angle_beta   48.62190505
_cell_angle_gamma   48.62190374
_symmetry_Int_Tables_number   1
_chemical_formula_structural   Te(PSe3)2
_chemical_formula_sum   'Te1 P2 Se6'
_cell_volume   258.10635783
_cell_formula_units_Z   1
loop_
 _symmetry_equiv_pos_site_id
 _symmetry_equiv_pos_as_xyz
  1  'x, y, z'
loop_
 _atom_site_type_symbol
 _atom_site_label
 _atom_site_symmetry_multiplicity
 _atom_site_fract_x
 _atom_site_fract_y
 _atom_site_fract_z
 _atom_site_occupancy
  Te  Te0  1  0.33396887  0.33396887  0.33396887  1
  P  P0  1  0.71990903  0.71990903  0.71990903  1
  P  P1  1  0.61309885  0.61309885  0.61309885  1
  Se  Se0  1  0.75639337  0.42740887  0.06710900  1
  Se  Se1  1  0.06710900  0.75639337  0.42740887  1
  Se  Se2  1  0.42740887  0.06710900  0.75639337  1
  Se  Se3  1  0.26377373  0.57990538  0.90440090  1
  Se  Se4  1  0.90440090  0.26377373  0.57990538  1
  Se  Se5  1  0.57990538  0.90440090  0.26377373  1
loop_
_geom_bond_atom_site_label_1
_geom_bond_atom_site_label_2
_geom_bond_distance
_geom_bond_site_symmetry_2
P0 Se2 2.184905 1_565
P0 Se1 2.184905 1_655
P0 Se0 2.184905 1_556
P0 P1 2.237042 1_555
P1 Se4 2.187653 1_555
P1 Se3 2.187653 1_555
P1 Se5 2.187654 1_555
Se0 Te0 2.845375 1_555
Se1 Te0 2.845375 1_555
Se2 Te0 2.845375 1_555
Se3 Te0 2.831392 1_556
Se4 Te0 2.831392 1_655
Se5 Te0 2.831392 1_565
