# generated using pymatgen
data_Ca4CdSi6Pd
_symmetry_space_group_name_H-M   'P 1'
_cell_length_a   8.39707467
_cell_length_b   8.27877452
_cell_length_c   6.01764184
_cell_angle_alpha   69.90127265
_cell_angle_beta   67.80017708
_cell_angle_gamma   42.29855935
_symmetry_Int_Tables_number   1
_chemical_formula_structural   Ca4CdSi6Pd
_chemical_formula_sum   'Ca4 Cd1 Si6 Pd1'
_cell_volume   259.27876419
_cell_formula_units_Z   1
loop_
 _symmetry_equiv_pos_site_id
 _symmetry_equiv_pos_as_xyz
  1  'x, y, z'
loop_
 _atom_site_type_symbol
 _atom_site_label
 _atom_site_symmetry_multiplicity
 _atom_site_fract_x
 _atom_site_fract_y
 _atom_site_fract_z
 _atom_site_occupancy
  Ca  Ca0  1  0.74496309  0.74496309  0.75503691  1
  Ca  Ca1  1  0.75646784  0.25252118  0.74747882  1
  Ca  Ca2  1  0.24496309  0.24496309  0.25503691  1
  Ca  Ca3  1  0.25252118  0.75646784  0.24353216  1
  Cd  Cd0  1  0.33445692  0.33445692  0.66554308  1
  Si  Si0  1  0.83055384  0.33715281  0.16944616  1
  Si  Si1  1  0.68673426  0.15675974  0.31326574  1
  Si  Si2  1  0.15675974  0.68673426  0.84324026  1
  Si  Si3  1  0.33715281  0.83055384  0.66284719  1
  Si  Si4  1  0.15712544  0.15712544  0.84287456  1
  Si  Si5  1  0.83172303  0.83172303  0.16827697  1
  Pd  Pd0  1  0.66658178  0.66658178  0.33341822  1
loop_
_geom_bond_atom_site_label_1
_geom_bond_atom_site_label_2
_geom_bond_distance
_geom_bond_site_symmetry_2
Ca0 Si0 3.179997 1_556
Ca0 Si3 3.179998 1_555
Ca0 Pd0 3.211945 1_555
Ca0 Pd0 3.211945 1_556
Ca0 Si5 3.255944 1_556
Ca0 Si5 3.255944 1_555
Ca0 Si4 3.261882 1_655
Ca0 Si4 3.261882 1_565
Ca0 Cd0 3.271128 1_565
Ca0 Cd0 3.271128 1_655
Ca0 Si1 3.349076 1_565
Ca0 Si2 3.349076 1_655
Ca1 Si4 3.080497 1_655
Ca1 Si1 3.144592 1_556
Ca1 Si2 3.144592 1_645
Ca1 Pd0 3.201916 1_555
Ca1 Si0 3.211187 1_555
Ca1 Si3 3.211187 1_555
Ca1 Si0 3.222881 1_556
Ca1 Si3 3.222882 1_645
Ca1 Cd0 3.285628 1_555
Ca1 Si5 3.292021 1_546
Ca1 Si1 3.326480 1_555
Ca1 Si2 3.326480 1_555
Ca2 Si3 3.179997 1_545
Ca2 Si0 3.179998 1_455
Ca2 Pd0 3.211945 1_545
Ca2 Pd0 3.211945 1_455
Ca2 Si5 3.255944 1_455
Ca2 Si5 3.255945 1_545
Ca2 Si4 3.261881 1_554
Ca2 Si4 3.261881 1_555
Ca2 Cd0 3.271128 1_555
Ca2 Cd0 3.271128 1_554
Ca2 Si2 3.349076 1_554
Ca2 Si1 3.349076 1_555
Ca3 Si4 3.080497 1_564
Ca3 Si2 3.144592 1_554
Ca3 Si1 3.144593 1_465
Ca3 Pd0 3.201916 1_555
Ca3 Si3 3.211187 1_555
Ca3 Si0 3.211188 1_555
Ca3 Si3 3.222881 1_554
Ca3 Si0 3.222882 1_465
Ca3 Cd0 3.285627 1_555
Ca3 Si5 3.292021 1_455
Ca3 Si2 3.326480 1_555
Ca3 Si1 3.326480 1_555
Cd0 Si2 2.524993 1_555
Cd0 Si1 2.524993 1_555
Cd0 Si4 2.543170 1_555
Si0 Si1 2.329741 1_555
Si0 Si4 2.344750 1_654
Si1 Si5 2.334306 1_545
Si2 Si3 2.329741 1_555
Si2 Si5 2.334306 1_456
Si3 Si4 2.344749 1_565
Pd0 Si0 2.361211 1_555
Pd0 Si3 2.361211 1_555
Pd0 Si5 2.368346 1_555
