# generated using pymatgen
data_Hf9Ta4Se
_symmetry_space_group_name_H-M   'P 1'
_cell_length_a   8.78127452
_cell_length_b   8.78127417
_cell_length_c   8.82162530
_cell_angle_alpha   90.00000000
_cell_angle_beta   90.00000000
_cell_angle_gamma   119.99999755
_symmetry_Int_Tables_number   1
_chemical_formula_structural   Hf9Ta4Se
_chemical_formula_sum   'Hf18 Ta8 Se2'
_cell_volume   589.10721357
_cell_formula_units_Z   2
loop_
 _symmetry_equiv_pos_site_id
 _symmetry_equiv_pos_as_xyz
  1  'x, y, z'
loop_
 _atom_site_type_symbol
 _atom_site_label
 _atom_site_symmetry_multiplicity
 _atom_site_fract_x
 _atom_site_fract_y
 _atom_site_fract_z
 _atom_site_occupancy
  Hf  Hf0  1  0.54318574  0.08637248  0.25000000  1
  Hf  Hf1  1  0.45681426  0.91362752  0.75000000  1
  Hf  Hf2  1  0.91362752  0.45681426  0.25000000  1
  Hf  Hf3  1  0.08637248  0.54318574  0.75000000  1
  Hf  Hf4  1  0.54318574  0.45681426  0.25000000  1
  Hf  Hf5  1  0.45681426  0.54318574  0.75000000  1
  Hf  Hf6  1  0.19665156  0.39330211  0.04740705  1
  Hf  Hf7  1  0.80334844  0.60669789  0.95259295  1
  Hf  Hf8  1  0.60669789  0.80334844  0.04740705  1
  Hf  Hf9  1  0.80334844  0.60669789  0.54740705  1
  Hf  Hf10  1  0.39330211  0.19665156  0.95259295  1
  Hf  Hf11  1  0.19665156  0.39330211  0.45259295  1
  Hf  Hf12  1  0.19665156  0.80334844  0.04740705  1
  Hf  Hf13  1  0.39330211  0.19665156  0.54740705  1
  Hf  Hf14  1  0.80334844  0.19665156  0.95259295  1
  Hf  Hf15  1  0.60669789  0.80334844  0.45259295  1
  Hf  Hf16  1  0.80334844  0.19665156  0.54740705  1
  Hf  Hf17  1  0.19665156  0.80334844  0.45259295  1
  Ta  Ta0  1  0.00000000  0.00000000  0.00000000  1
  Ta  Ta1  1  0.00000000  0.00000000  0.50000000  1
  Ta  Ta2  1  0.88712935  0.77425869  0.25000000  1
  Ta  Ta3  1  0.11287065  0.22574131  0.75000000  1
  Ta  Ta4  1  0.22574131  0.11287065  0.25000000  1
  Ta  Ta5  1  0.77425869  0.88712935  0.75000000  1
  Ta  Ta6  1  0.88712935  0.11287065  0.25000000  1
  Ta  Ta7  1  0.11287065  0.88712935  0.75000000  1
  Se  Se0  1  0.33333300  0.66666700  0.25000000  1
  Se  Se1  1  0.66666700  0.33333300  0.75000000  1
loop_
_geom_bond_atom_site_label_1
_geom_bond_atom_site_label_2
_geom_bond_distance
_geom_bond_site_symmetry_2
Hf0 Ta4 2.910894 1_555
Hf0 Ta6 2.910903 1_555
Hf0 Se0 3.191779 1_545
Hf1 Ta5 2.910894 1_555
Hf1 Ta7 2.910903 1_555
Hf1 Se1 3.191779 1_565
Hf2 Ta2 2.910894 1_555
Hf2 Ta6 2.910903 1_555
Hf2 Se0 3.191779 1_655
Hf3 Ta3 2.910894 1_555
Hf3 Ta7 2.910903 1_555
Hf3 Se1 3.191779 1_455
Hf4 Ta4 2.910899 1_555
Hf4 Ta2 2.910899 1_555
Hf4 Se0 3.191779 1_555
Hf5 Ta5 2.910899 1_555
Hf5 Ta3 2.910899 1_555
Hf5 Se1 3.191779 1_555
Hf6 Se0 2.741505 1_555
Hf6 Ta3 2.916694 1_554
Hf6 Ta0 3.020082 1_555
Hf6 Ta4 3.154760 1_555
Hf6 Ta6 3.154764 1_455
Hf7 Se1 2.741505 1_555
Hf7 Ta2 2.916694 1_556
Hf7 Ta0 3.020082 1_666
Hf7 Ta5 3.154760 1_555
Hf7 Ta7 3.154764 1_655
Hf8 Se0 2.741506 1_555
Hf8 Ta5 2.916694 1_554
Hf8 Ta0 3.020083 1_665
Hf8 Ta2 3.154760 1_555
Hf8 Ta6 3.154764 1_565
Hf9 Se1 2.741505 1_555
Hf9 Ta2 2.916694 1_555
Hf9 Ta1 3.020082 1_665
Hf9 Ta5 3.154760 1_555
Hf9 Ta7 3.154764 1_655
Hf10 Se1 2.741506 1_555
Hf10 Ta4 2.916694 1_556
Hf10 Ta0 3.020083 1_556
Hf10 Ta3 3.154760 1_555
Hf10 Ta7 3.154764 1_545
Hf11 Se0 2.741505 1_555
Hf11 Ta3 2.916694 1_555
Hf11 Ta1 3.020082 1_555
Hf11 Ta4 3.154760 1_555
Hf11 Ta6 3.154764 1_455
Hf12 Se0 2.741494 1_555
Hf12 Ta7 2.916698 1_554
Hf12 Ta0 3.020090 1_565
Hf12 Ta4 3.154767 1_565
Hf12 Ta2 3.154767 1_455
Hf13 Se1 2.741506 1_555
Hf13 Ta4 2.916694 1_555
Hf13 Ta1 3.020083 1_555
Hf13 Ta3 3.154760 1_555
Hf13 Ta7 3.154764 1_545
Hf14 Se1 2.741494 1_555
Hf14 Ta6 2.916698 1_556
Hf14 Ta0 3.020090 1_656
Hf14 Ta5 3.154767 1_545
Hf14 Ta3 3.154767 1_655
Hf15 Se0 2.741506 1_555
Hf15 Ta5 2.916694 1_555
Hf15 Ta1 3.020083 1_665
Hf15 Ta2 3.154760 1_555
Hf15 Ta6 3.154764 1_565
Hf16 Se1 2.741494 1_555
Hf16 Ta6 2.916698 1_555
Hf16 Ta1 3.020090 1_655
Hf16 Ta5 3.154767 1_545
Hf16 Ta3 3.154767 1_655
Hf17 Se0 2.741494 1_555
Hf17 Ta7 2.916698 1_555
Hf17 Ta1 3.020090 1_565
Hf17 Ta4 3.154767 1_565
Hf17 Ta2 3.154767 1_455
Ta0 Ta6 2.794806 1_455
Ta0 Ta7 2.794806 1_544
Ta0 Ta3 2.794806 1_554
Ta0 Ta2 2.794806 1_445
Ta0 Ta4 2.794806 1_555
Ta0 Ta5 2.794806 1_444
Ta1 Ta6 2.794806 1_455
Ta1 Ta7 2.794806 1_545
Ta1 Ta3 2.794806 1_555
Ta1 Ta2 2.794806 1_445
Ta1 Ta4 2.794806 1_555
Ta1 Ta5 2.794806 1_445
Ta2 Ta6 2.973444 1_565
Ta2 Ta4 2.973445 1_665
Ta3 Ta7 2.973444 1_545
Ta3 Ta5 2.973445 1_445
Ta4 Ta6 2.973445 1_455
Ta5 Ta7 2.973445 1_655
