# generated using pymatgen
data_RbTcP2Pd
_symmetry_space_group_name_H-M   'P 1'
_cell_length_a   7.47035176
_cell_length_b   7.47035220
_cell_length_c   7.47035160
_cell_angle_alpha   149.00592742
_cell_angle_beta   149.00591899
_cell_angle_gamma   44.40258681
_symmetry_Int_Tables_number   1
_chemical_formula_structural   RbTcP2Pd
_chemical_formula_sum   'Rb1 Tc1 P2 Pd1'
_cell_volume   110.22121344
_cell_formula_units_Z   1
loop_
 _symmetry_equiv_pos_site_id
 _symmetry_equiv_pos_as_xyz
  1  'x, y, z'
loop_
 _atom_site_type_symbol
 _atom_site_label
 _atom_site_symmetry_multiplicity
 _atom_site_fract_x
 _atom_site_fract_y
 _atom_site_fract_z
 _atom_site_occupancy
  Rb  Rb0  1  0.00000000  0.00000000  0.00000000  1
  Tc  Tc0  1  0.75000000  0.25000000  0.50000000  1
  P  P0  1  0.34056681  0.34056681  0.00000000  1
  P  P1  1  0.65943319  0.65943319  1.00000000  1
  Pd  Pd0  1  0.25000000  0.75000000  0.50000000  1
loop_
_geom_bond_atom_site_label_1
_geom_bond_atom_site_label_2
_geom_bond_distance
_geom_bond_site_symmetry_2
P0 Pd0 2.356592 1_555
P0 Pd0 2.356592 1_544
P0 Tc0 2.356593 1_555
P0 Tc0 2.356593 1_454
P0 Rb0 3.582172 1_554
P0 Rb0 3.582172 1_655
P0 Rb0 3.582172 1_565
P0 Rb0 3.582172 1_666
P1 Tc0 2.356592 1_555
P1 Tc0 2.356592 1_566
P1 Pd0 2.356593 1_555
P1 Pd0 2.356593 1_656
P1 Rb0 3.582172 1_667
P1 Rb0 3.582172 1_566
P1 Rb0 3.582172 1_656
P1 Rb0 3.582172 1_555
Pd0 Tc0 2.822760 1_566
Pd0 Tc0 2.822760 1_454
Pd0 Tc0 2.822760 1_465
Pd0 Tc0 2.822760 1_555
