# generated using pymatgen
data_HfPbBr6
_symmetry_space_group_name_H-M   'P 1'
_cell_length_a   7.60103362
_cell_length_b   7.60103323
_cell_length_c   7.60103495
_cell_angle_alpha   57.25274621
_cell_angle_beta   57.25274077
_cell_angle_gamma   57.25274043
_symmetry_Int_Tables_number   1
_chemical_formula_structural   HfPbBr6
_chemical_formula_sum   'Hf1 Pb1 Br6'
_cell_volume   290.88382992
_cell_formula_units_Z   1
loop_
 _symmetry_equiv_pos_site_id
 _symmetry_equiv_pos_as_xyz
  1  'x, y, z'
loop_
 _atom_site_type_symbol
 _atom_site_label
 _atom_site_symmetry_multiplicity
 _atom_site_fract_x
 _atom_site_fract_y
 _atom_site_fract_z
 _atom_site_occupancy
  Hf  Hf0  1  0.66631084  0.66631084  0.66631084  1
  Pb  Pb0  1  0.33862231  0.33862231  0.33862231  1
  Br  Br0  1  0.02863913  0.44703156  0.76370949  1
  Br  Br1  1  0.30189577  0.88341260  0.57037728  1
  Br  Br2  1  0.44703156  0.76370949  0.02863913  1
  Br  Br3  1  0.57037728  0.30189577  0.88341260  1
  Br  Br4  1  0.76370949  0.02863913  0.44703156  1
  Br  Br5  1  0.88341260  0.57037728  0.30189577  1
loop_
_geom_bond_atom_site_label_1
_geom_bond_atom_site_label_2
_geom_bond_distance
_geom_bond_site_symmetry_2
Br0 Hf0 2.610703 1_455
Br0 Pb0 3.035502 1_555
Br1 Hf0 2.620228 1_555
Br1 Pb0 3.011963 1_565
Br2 Hf0 2.610704 1_554
Br2 Pb0 3.035502 1_555
Br3 Hf0 2.620228 1_555
Br3 Pb0 3.011964 1_556
Br4 Hf0 2.610703 1_545
Br4 Pb0 3.035502 1_555
Br5 Hf0 2.620228 1_555
Br5 Pb0 3.011963 1_655
