# generated using pymatgen
data_Cs2Hf(IO3)6
_symmetry_space_group_name_H-M   'P 1'
_cell_length_a   7.84446020
_cell_length_b   7.84446073
_cell_length_c   7.84445966
_cell_angle_alpha   97.26161970
_cell_angle_beta   97.26161476
_cell_angle_gamma   97.26161311
_symmetry_Int_Tables_number   1
_chemical_formula_structural   Cs2Hf(IO3)6
_chemical_formula_sum   'Cs2 Hf1 I6 O18'
_cell_volume   470.00258751
_cell_formula_units_Z   1
loop_
 _symmetry_equiv_pos_site_id
 _symmetry_equiv_pos_as_xyz
  1  'x, y, z'
loop_
 _atom_site_type_symbol
 _atom_site_label
 _atom_site_symmetry_multiplicity
 _atom_site_fract_x
 _atom_site_fract_y
 _atom_site_fract_z
 _atom_site_occupancy
  Cs  Cs0  1  0.16170352  0.16170352  0.16170352  1
  Cs  Cs1  1  0.83829648  0.83829648  0.83829648  1
  Hf  Hf0  1  0.50000000  0.50000000  0.50000000  1
  I  I0  1  0.70214669  0.34362462  0.11933336  1
  I  I1  1  0.65637538  0.88066664  0.29785331  1
  I  I2  1  0.11933336  0.70214669  0.34362462  1
  I  I3  1  0.88066664  0.29785331  0.65637538  1
  I  I4  1  0.29785331  0.65637538  0.88066664  1
  I  I5  1  0.34362462  0.11933336  0.70214669  1
  O  O0  1  0.89406531  0.40208176  0.28020071  1
  O  O1  1  0.59791824  0.71979929  0.10593469  1
  O  O2  1  0.71979929  0.10593469  0.59791824  1
  O  O3  1  0.64455171  0.72259990  0.45406904  1
  O  O4  1  0.68987376  0.11153316  0.08934030  1
  O  O5  1  0.45406904  0.64455171  0.72259990  1
  O  O6  1  0.27740010  0.54593096  0.35544829  1
  O  O7  1  0.35544829  0.27740010  0.54593096  1
  O  O8  1  0.11153316  0.08934030  0.68987376  1
  O  O9  1  0.91065970  0.31012624  0.88846684  1
  O  O10  1  0.72259990  0.45406904  0.64455171  1
  O  O11  1  0.10593469  0.59791824  0.71979929  1
  O  O12  1  0.54593096  0.35544829  0.27740010  1
  O  O13  1  0.31012624  0.88846684  0.91065970  1
  O  O14  1  0.88846684  0.91065970  0.31012624  1
  O  O15  1  0.40208176  0.28020071  0.89406531  1
  O  O16  1  0.28020071  0.89406531  0.40208176  1
  O  O17  1  0.08934030  0.68987376  0.11153316  1
loop_
_geom_bond_atom_site_label_1
_geom_bond_atom_site_label_2
_geom_bond_distance
_geom_bond_site_symmetry_2
Cs0 O15 3.143014 1_554
Cs0 O0 3.143014 1_455
Cs0 O16 3.143014 1_545
Cs0 O13 3.157740 1_544
Cs0 O9 3.157740 1_454
Cs0 O14 3.157740 1_445
Cs0 O7 3.165411 1_555
Cs0 O12 3.165411 1_555
Cs0 O6 3.165411 1_555
Cs1 O1 3.143014 1_556
Cs1 O11 3.143014 1_655
Cs1 O2 3.143014 1_565
Cs1 O4 3.157740 1_566
Cs1 O17 3.157740 1_656
Cs1 O8 3.157740 1_665
Cs1 O3 3.165411 1_555
Cs1 O5 3.165411 1_555
Cs1 O10 3.165411 1_555
Hf0 O5 2.055852 1_555
Hf0 O12 2.055852 1_555
Hf0 O6 2.055852 1_555
Hf0 O10 2.055852 1_555
Hf0 O3 2.055852 1_555
Hf0 O7 2.055852 1_555
I0 O4 1.794715 1_555
I0 O0 1.807804 1_555
I0 O12 1.852439 1_555
I1 O14 1.794715 1_555
I1 O1 1.807804 1_555
I1 O3 1.852439 1_555
I2 O17 1.794715 1_555
I2 O16 1.807804 1_555
I2 O6 1.852439 1_555
I3 O9 1.794715 1_555
I3 O2 1.807804 1_555
I3 O10 1.852439 1_555
I4 O13 1.794715 1_555
I4 O11 1.807804 1_555
I4 O5 1.852439 1_555
I5 O8 1.794715 1_555
I5 O15 1.807804 1_555
I5 O7 1.852439 1_555
