# generated using pymatgen
data_Sr6BiPb8Au
_symmetry_space_group_name_H-M   'P 1'
_cell_length_a   9.10195904
_cell_length_b   9.10195782
_cell_length_c   9.10195860
_cell_angle_alpha   119.71100109
_cell_angle_beta   119.71099915
_cell_angle_gamma   90.50129883
_symmetry_Int_Tables_number   1
_chemical_formula_structural   Sr6BiPb8Au
_chemical_formula_sum   'Sr6 Bi1 Pb8 Au1'
_cell_volume   535.50620616
_cell_formula_units_Z   1
loop_
 _symmetry_equiv_pos_site_id
 _symmetry_equiv_pos_as_xyz
  1  'x, y, z'
loop_
 _atom_site_type_symbol
 _atom_site_label
 _atom_site_symmetry_multiplicity
 _atom_site_fract_x
 _atom_site_fract_y
 _atom_site_fract_z
 _atom_site_occupancy
  Sr  Sr0  1  0.25434890  0.25434890  0.00000000  1
  Sr  Sr1  1  0.74565110  0.74565110  1.00000000  1
  Sr  Sr2  1  0.16553557  0.66281723  0.82835380  1
  Sr  Sr3  1  0.83446443  0.33718277  0.17164620  1
  Sr  Sr4  1  0.66281723  0.83446443  0.49728065  1
  Sr  Sr5  1  0.33718277  0.16553557  0.50271935  1
  Bi  Bi0  1  0.00000000  0.00000000  0.00000000  1
  Pb  Pb0  1  0.82781487  0.32900455  0.78628501  1
  Pb  Pb1  1  0.17218513  0.67099545  0.21371499  1
  Pb  Pb2  1  0.54271954  0.04152986  0.21371499  1
  Pb  Pb3  1  0.32900455  0.54271954  0.50118968  1
  Pb  Pb4  1  0.95847014  0.17218513  0.50118968  1
  Pb  Pb5  1  0.45728046  0.95847014  0.78628501  1
  Pb  Pb6  1  0.67099545  0.45728046  0.49881032  1
  Pb  Pb7  1  0.04152986  0.82781487  0.49881032  1
  Au  Au0  1  0.50000000  0.50000000  0.00000000  1
loop_
_geom_bond_atom_site_label_1
_geom_bond_atom_site_label_2
_geom_bond_distance
_geom_bond_site_symmetry_2
Bi0 Sr0 3.259654 1_555
Bi0 Sr1 3.259654 1_444
Bi0 Sr3 3.433846 1_455
Bi0 Sr2 3.433846 1_544
Bi0 Sr5 3.433854 1_555
Bi0 Sr4 3.433854 1_444
Pb0 Sr3 3.441327 1_556
Pb0 Sr1 3.592217 1_555
Pb0 Sr0 3.631583 1_656
Pb0 Sr5 3.670135 1_555
Pb0 Sr4 3.696653 1_545
Pb1 Sr2 3.441327 1_554
Pb1 Sr0 3.592217 1_555
Pb1 Sr1 3.631583 1_454
Pb1 Sr4 3.670135 1_555
Pb1 Sr5 3.696653 1_565
Pb2 Sr2 3.441335 1_544
Pb2 Sr1 3.592217 1_544
Pb2 Sr0 3.631582 1_555
Pb2 Sr4 3.670127 1_545
Pb2 Sr5 3.696661 1_555
Pb3 Sr5 3.441340 1_555
Pb3 Sr1 3.592217 1_555
Pb3 Sr0 3.631582 1_555
Pb3 Sr2 3.670142 1_555
Pb3 Sr3 3.696654 1_455
Pb4 Sr5 3.441332 1_655
Pb4 Sr0 3.592217 1_656
Pb4 Sr1 3.631582 1_544
Pb4 Sr2 3.670133 1_655
Pb4 Sr3 3.696662 1_555
Pb5 Sr3 3.441335 1_566
Pb5 Sr0 3.592217 1_566
Pb5 Sr1 3.631582 1_555
Pb5 Sr5 3.670127 1_565
Pb5 Sr4 3.696661 1_555
Pb6 Sr4 3.441340 1_555
Pb6 Sr0 3.592217 1_555
Pb6 Sr1 3.631582 1_555
Pb6 Sr3 3.670142 1_555
Pb6 Sr2 3.696654 1_655
Pb7 Sr4 3.441332 1_455
Pb7 Sr1 3.592217 1_454
Pb7 Sr0 3.631582 1_566
Pb7 Sr3 3.670133 1_455
Pb7 Sr2 3.696662 1_555
Au0 Sr1 3.148186 1_554
Au0 Sr0 3.148186 1_555
Au0 Sr4 3.400603 1_555
Au0 Sr5 3.400603 1_554
Au0 Sr3 3.400607 1_555
Au0 Sr2 3.400607 1_554
