# generated using pymatgen
data_HfP4OsO14
_symmetry_space_group_name_H-M   'P 1'
_cell_length_a   4.91718923
_cell_length_b   7.14501524
_cell_length_c   8.04432212
_cell_angle_alpha   91.28393971
_cell_angle_beta   92.45936597
_cell_angle_gamma   106.74559169
_symmetry_Int_Tables_number   1
_chemical_formula_structural   HfP4OsO14
_chemical_formula_sum   'Hf1 P4 Os1 O14'
_cell_volume   270.21130273
_cell_formula_units_Z   1
loop_
 _symmetry_equiv_pos_site_id
 _symmetry_equiv_pos_as_xyz
  1  'x, y, z'
loop_
 _atom_site_type_symbol
 _atom_site_label
 _atom_site_symmetry_multiplicity
 _atom_site_fract_x
 _atom_site_fract_y
 _atom_site_fract_z
 _atom_site_occupancy
  Hf  Hf0  1  0.50000000  0.50000000  0.50000000  1
  P  P0  1  0.52876612  0.13152420  0.76912517  1
  P  P1  1  0.12246675  0.74891518  0.70071584  1
  P  P2  1  0.87753325  0.25108482  0.29928416  1
  P  P3  1  0.47123388  0.86847580  0.23087483  1
  Os  Os0  1  0.00000000  0.00000000  0.00000000  1
  O  O0  1  0.38207149  0.15622829  0.92766647  1
  O  O1  1  0.03751374  0.76011026  0.87992191  1
  O  O2  1  0.80151172  0.07512680  0.80198828  1
  O  O3  1  0.29721157  0.60850961  0.68092112  1
  O  O4  1  0.58694507  0.30841419  0.66374650  1
  O  O5  1  0.31627665  0.96103840  0.65618104  1
  O  O6  1  0.87243688  0.70423417  0.57598521  1
  O  O7  1  0.12756312  0.29576583  0.42401479  1
  O  O8  1  0.68372335  0.03896160  0.34381896  1
  O  O9  1  0.41305493  0.69158581  0.33625350  1
  O  O10  1  0.70278843  0.39149039  0.31907888  1
  O  O11  1  0.19848828  0.92487320  0.19801172  1
  O  O12  1  0.96248626  0.23988974  0.12007809  1
  O  O13  1  0.61792851  0.84377171  0.07233353  1
loop_
_geom_bond_atom_site_label_1
_geom_bond_atom_site_label_2
_geom_bond_distance
_geom_bond_site_symmetry_2
Hf0 O4 2.039958 1_555
Hf0 O9 2.039958 1_555
Hf0 O7 2.044718 1_555
Hf0 O6 2.044718 1_555
Hf0 O3 2.057432 1_555
Hf0 O10 2.057432 1_555
O0 P0 1.523232 1_555
O0 Os0 2.007149 1_556
O1 P1 1.524746 1_555
O1 Os0 2.007042 1_566
O2 P0 1.522068 1_555
O2 Os0 1.996183 1_656
O3 P1 1.507113 1_555
O4 P0 1.502766 1_555
O5 P0 1.592648 1_565
O5 P1 1.598431 1_555
O6 P1 1.507916 1_655
O7 P2 1.507916 1_455
O8 P3 1.592648 1_545
O8 P2 1.598431 1_555
O9 P3 1.502766 1_555
O10 P2 1.507113 1_555
O11 P3 1.522068 1_555
O11 Os0 1.996183 1_565
O12 P2 1.524746 1_555
O12 Os0 2.007042 1_655
O13 P3 1.523232 1_555
O13 Os0 2.007149 1_665
