# generated using pymatgen
data_BaLuTi4N7
_symmetry_space_group_name_H-M   'P 1'
_cell_length_a   6.40712678
_cell_length_b   6.40712660
_cell_length_c   10.34811928
_cell_angle_alpha   90.00000000
_cell_angle_beta   90.00000000
_cell_angle_gamma   119.99998561
_symmetry_Int_Tables_number   1
_chemical_formula_structural   BaLuTi4N7
_chemical_formula_sum   'Ba2 Lu2 Ti8 N14'
_cell_volume   367.89064412
_cell_formula_units_Z   2
loop_
 _symmetry_equiv_pos_site_id
 _symmetry_equiv_pos_as_xyz
  1  'x, y, z'
loop_
 _atom_site_type_symbol
 _atom_site_label
 _atom_site_symmetry_multiplicity
 _atom_site_fract_x
 _atom_site_fract_y
 _atom_site_fract_z
 _atom_site_occupancy
  Ba  Ba0  1  0.66666700  0.33333300  0.57956275  1
  Ba  Ba1  1  0.33333300  0.66666700  0.07956275  1
  Lu  Lu0  1  0.66666700  0.33333300  0.94890381  1
  Lu  Lu1  1  0.33333300  0.66666700  0.44890381  1
  Ti  Ti0  1  0.17003692  0.34007284  0.76376524  1
  Ti  Ti1  1  0.82996308  0.17003692  0.26376524  1
  Ti  Ti2  1  0.34007284  0.17003692  0.26376524  1
  Ti  Ti3  1  0.65992716  0.82996308  0.76376524  1
  Ti  Ti4  1  0.17003692  0.82996308  0.76376524  1
  Ti  Ti5  1  0.82996308  0.65992716  0.26376524  1
  Ti  Ti6  1  0.00000000  0.00000000  0.02265662  1
  Ti  Ti7  1  0.00000000  0.00000000  0.52265662  1
  N  N0  1  0.00000000  0.00000000  0.82840549  1
  N  N1  1  0.00000000  0.00000000  0.32840549  1
  N  N2  1  0.83842967  0.67686034  0.08127302  1
  N  N3  1  0.16157033  0.83842967  0.58127302  1
  N  N4  1  0.67686034  0.83842967  0.58127302  1
  N  N5  1  0.32313966  0.16157033  0.08127302  1
  N  N6  1  0.83842967  0.16157033  0.08127302  1
  N  N7  1  0.16157033  0.32313966  0.58127302  1
  N  N8  1  0.49543123  0.50456877  0.81939218  1
  N  N9  1  0.99086345  0.49543123  0.31939218  1
  N  N10  1  0.50456877  0.00913655  0.31939218  1
  N  N11  1  0.49543123  0.99086345  0.81939218  1
  N  N12  1  0.50456877  0.49543123  0.31939218  1
  N  N13  1  0.00913655  0.50456877  0.81939218  1
loop_
_geom_bond_atom_site_label_1
_geom_bond_atom_site_label_2
_geom_bond_distance
_geom_bond_site_symmetry_2
Ba0 N11 3.125746 1_545
Ba0 N13 3.125746 1_655
Ba0 N8 3.125752 1_555
Ba0 N4 3.204111 1_545
Ba0 N4 3.204111 1_555
Ba0 N7 3.204112 1_655
Ba0 N7 3.204112 1_555
Ba0 N3 3.204112 1_655
Ba0 N3 3.204112 1_545
Ba0 N12 3.237950 1_555
Ba0 N10 3.237950 1_555
Ba0 N9 3.237950 1_555
Ba1 N10 3.125746 1_565
Ba1 N9 3.125746 1_455
Ba1 N12 3.125752 1_555
Ba1 N5 3.204111 1_565
Ba1 N5 3.204111 1_555
Ba1 N2 3.204112 1_455
Ba1 N2 3.204112 1_555
Ba1 N6 3.204112 1_455
Ba1 N6 3.204112 1_565
Ba1 N8 3.237950 1_554
Ba1 N11 3.237950 1_554
Ba1 N13 3.237950 1_554
Lu0 N11 2.325334 1_545
Lu0 N13 2.325334 1_655
Lu0 N8 2.325343 1_555
Lu0 N6 2.347256 1_556
Lu0 N2 2.347265 1_556
Lu0 N5 2.347265 1_556
Lu1 N10 2.325334 1_565
Lu1 N9 2.325334 1_455
Lu1 N12 2.325343 1_555
Lu1 N3 2.347256 1_555
Lu1 N7 2.347265 1_555
Lu1 N4 2.347265 1_555
N0 Ti0 2.002025 1_555
N0 Ti3 2.002025 1_445
N0 Ti4 2.002030 1_545
N0 Ti6 2.010134 1_556
N1 Ti5 2.002025 1_445
N1 Ti2 2.002025 1_555
N1 Ti1 2.002030 1_455
N1 Ti7 2.010134 1_555
N2 Ti5 1.890787 1_555
N2 Ti6 1.892838 1_665
N3 Ti4 1.890787 1_555
N3 Ti7 1.892843 1_565
N4 Ti3 1.890787 1_555
N4 Ti7 1.892838 1_665
N5 Ti2 1.890787 1_555
N5 Ti6 1.892838 1_555
N6 Ti1 1.890787 1_555
N6 Ti6 1.892843 1_655
N7 Ti0 1.890787 1_555
N7 Ti7 1.892838 1_555
N8 Ti3 1.895103 1_555
N8 Ti0 1.895103 1_555
N9 Ti1 1.895103 1_555
N9 Ti5 1.895113 1_555
N10 Ti1 1.895103 1_555
N10 Ti2 1.895113 1_555
N11 Ti4 1.895103 1_555
N11 Ti3 1.895113 1_555
N12 Ti2 1.895103 1_555
N12 Ti5 1.895103 1_555
N13 Ti4 1.895103 1_555
N13 Ti0 1.895113 1_555
