# generated using pymatgen
data_HfZn(ReO4)6
_symmetry_space_group_name_H-M   'P 1'
_cell_length_a   10.07850374
_cell_length_b   10.07857724
_cell_length_c   5.68889088
_cell_angle_alpha   90.00000000
_cell_angle_beta   90.00000000
_cell_angle_gamma   120.01178486
_symmetry_Int_Tables_number   1
_chemical_formula_structural   HfZn(ReO4)6
_chemical_formula_sum   'Hf1 Zn1 Re6 O24'
_cell_volume   500.38230101
_cell_formula_units_Z   1
loop_
 _symmetry_equiv_pos_site_id
 _symmetry_equiv_pos_as_xyz
  1  'x, y, z'
loop_
 _atom_site_type_symbol
 _atom_site_label
 _atom_site_symmetry_multiplicity
 _atom_site_fract_x
 _atom_site_fract_y
 _atom_site_fract_z
 _atom_site_occupancy
  Hf  Hf0  1  0.66662968  0.33328132  0.75000000  1
  Zn  Zn0  1  0.33363916  0.66668995  0.25000000  1
  Re  Re0  1  0.09685451  0.41705591  0.75000000  1
  Re  Re1  1  0.39475108  0.27637833  0.25000000  1
  Re  Re2  1  0.58309158  0.67991122  0.75000000  1
  Re  Re3  1  0.88158264  0.60522148  0.25000000  1
  Re  Re4  1  0.32016312  0.90313950  0.75000000  1
  Re  Re5  1  0.72350536  0.11828339  0.25000000  1
  O  O0  1  0.46710614  0.62693428  0.49880660  1
  O  O1  1  0.37314512  0.84014724  0.49880158  1
  O  O2  1  0.78131829  0.70084123  0.25000000  1
  O  O3  1  0.12586600  0.83083204  0.75000000  1
  O  O4  1  0.29896685  0.08045910  0.25000000  1
  O  O5  1  0.16905731  0.29500437  0.75000000  1
  O  O6  1  0.51565567  0.34610570  0.00021423  1
  O  O7  1  0.91941452  0.21855241  0.25000000  1
  O  O8  1  0.07295250  0.73597897  0.25000000  1
  O  O9  1  0.15991948  0.53302557  0.00118627  1
  O  O10  1  0.15991948  0.53302557  0.49881373  1
  O  O11  1  0.89612499  0.31228015  0.75000000  1
  O  O12  1  0.26412411  0.33711612  0.25000000  1
  O  O13  1  0.68782016  0.58398812  0.75000000  1
  O  O14  1  0.83040530  0.48430293  0.49976163  1
  O  O15  1  0.41606028  0.10382513  0.75000000  1
  O  O16  1  0.65382701  0.16950763  0.00025143  1
  O  O17  1  0.46710614  0.62693428  0.00119340  1
  O  O18  1  0.37314512  0.84014724  0.00119842  1
  O  O19  1  0.65382701  0.16950763  0.49974857  1
  O  O20  1  0.51565567  0.34610570  0.49978577  1
  O  O21  1  0.83040530  0.48430293  0.00023837  1
  O  O22  1  0.70513767  0.87420710  0.75000000  1
  O  O23  1  0.66282175  0.92690448  0.25000000  1
loop_
_geom_bond_atom_site_label_1
_geom_bond_atom_site_label_2
_geom_bond_distance
_geom_bond_site_symmetry_2
Hf0 O21 2.134144 1_556
Hf0 O14 2.134144 1_555
Hf0 O6 2.134215 1_556
Hf0 O20 2.134215 1_555
Hf0 O16 2.134217 1_556
Hf0 O19 2.134217 1_555
Hf0 O15 2.425558 1_555
Hf0 O11 2.425772 1_555
Hf0 O13 2.427002 1_555
O0 Re2 1.751930 1_555
O0 Zn0 2.124285 1_555
O1 Re4 1.751994 1_555
O1 Zn0 2.126453 1_555
O2 Re3 1.709991 1_555
O3 Re4 1.714104 1_555
O4 Re1 1.709985 1_555
O5 Re0 1.714108 1_555
O6 Re1 1.772375 1_555
O7 Re5 1.709894 1_555
O8 Re3 1.707051 1_455
O9 Re0 1.751828 1_554
O9 Zn0 2.127045 1_555
O10 Re0 1.751828 1_555
O10 Zn0 2.127045 1_555
O11 Re0 1.752362 1_655
O12 Re1 1.707092 1_555
O13 Re2 1.752008 1_555
O14 Re3 1.772368 1_555
O15 Re4 1.752020 1_545
O16 Re5 1.772293 1_555
O17 Re2 1.751930 1_554
O17 Zn0 2.124285 1_555
O18 Re4 1.751994 1_554
O18 Zn0 2.126453 1_555
O19 Re5 1.772293 1_555
O20 Re1 1.772375 1_555
O21 Re3 1.772368 1_555
O22 Re2 1.714087 1_555
O23 Re5 1.707143 1_565
