# generated using pymatgen
data_HfMg(Si7Ir3)2
_symmetry_space_group_name_H-M   'P 1'
_cell_length_a   7.93557532
_cell_length_b   7.93557585
_cell_length_c   7.93557548
_cell_angle_alpha   56.55955700
_cell_angle_beta   56.55955666
_cell_angle_gamma   56.55955297
_symmetry_Int_Tables_number   1
_chemical_formula_structural   HfMg(Si7Ir3)2
_chemical_formula_sum   'Hf1 Mg1 Si14 Ir6'
_cell_volume   325.27059537
_cell_formula_units_Z   1
loop_
 _symmetry_equiv_pos_site_id
 _symmetry_equiv_pos_as_xyz
  1  'x, y, z'
loop_
 _atom_site_type_symbol
 _atom_site_label
 _atom_site_symmetry_multiplicity
 _atom_site_fract_x
 _atom_site_fract_y
 _atom_site_fract_z
 _atom_site_occupancy
  Hf  Hf0  1  0.50000000  0.50000000  0.50000000  1
  Mg  Mg0  1  0.00000000  0.00000000  0.00000000  1
  Si  Si0  1  0.74994313  0.74994313  0.74994313  1
  Si  Si1  1  0.25005687  0.25005687  0.25005687  1
  Si  Si2  1  0.85265778  0.06263217  0.67416302  1
  Si  Si3  1  0.67416302  0.85265778  0.06263217  1
  Si  Si4  1  0.06263217  0.67416302  0.85265778  1
  Si  Si5  1  0.65193335  0.82716984  0.43701797  1
  Si  Si6  1  0.43701797  0.65193335  0.82716984  1
  Si  Si7  1  0.82716984  0.43701797  0.65193335  1
  Si  Si8  1  0.17283016  0.56298203  0.34806665  1
  Si  Si9  1  0.56298203  0.34806665  0.17283016  1
  Si  Si10  1  0.34806665  0.17283016  0.56298203  1
  Si  Si11  1  0.93736783  0.32583698  0.14734222  1
  Si  Si12  1  0.32583698  0.14734222  0.93736783  1
  Si  Si13  1  0.14734222  0.93736783  0.32583698  1
  Ir  Ir0  1  0.07813659  0.42887300  0.74615348  1
  Ir  Ir1  1  0.25384652  0.92186341  0.57112700  1
  Ir  Ir2  1  0.57112700  0.25384652  0.92186341  1
  Ir  Ir3  1  0.92186341  0.57112700  0.25384652  1
  Ir  Ir4  1  0.42887300  0.74615348  0.07813659  1
  Ir  Ir5  1  0.74615348  0.07813659  0.42887300  1
loop_
_geom_bond_atom_site_label_1
_geom_bond_atom_site_label_2
_geom_bond_distance
_geom_bond_site_symmetry_2
Hf0 Ir2 3.000276 1_555
Hf0 Ir4 3.000276 1_555
Hf0 Ir3 3.000276 1_555
Hf0 Ir0 3.000276 1_555
Hf0 Ir1 3.000276 1_555
Hf0 Ir5 3.000276 1_555
Hf0 Si7 3.130469 1_555
Hf0 Si8 3.130469 1_555
Hf0 Si6 3.130469 1_555
Hf0 Si9 3.130469 1_555
Hf0 Si5 3.130470 1_555
Hf0 Si10 3.130470 1_555
Hf0 Si2 3.171603 1_555
Hf0 Si13 3.171603 1_555
Hf0 Si4 3.171603 1_555
Hf0 Si11 3.171603 1_555
Hf0 Si3 3.171604 1_555
Hf0 Si12 3.171604 1_555
Mg0 Si13 3.094388 1_545
Mg0 Si2 3.094388 1_454
Mg0 Si12 3.094388 1_554
Mg0 Si3 3.094388 1_445
Mg0 Si11 3.094388 1_455
Mg0 Si4 3.094388 1_544
Mg0 Si9 3.148470 1_455
Mg0 Si6 3.148470 1_544
Mg0 Si8 3.148470 1_545
Mg0 Si7 3.148470 1_454
Mg0 Si10 3.148470 1_554
Mg0 Si5 3.148470 1_445
Ir0 Si10 2.419966 1_555
Ir0 Si12 2.422501 1_555
Ir0 Si4 2.439877 1_555
Ir0 Si0 2.441343 1_455
Ir0 Si7 2.444501 1_455
Ir0 Si8 2.497313 1_555
Ir0 Si11 2.504025 1_456
Ir0 Mg0 3.068930 1_556
Ir1 Si6 2.419966 1_555
Ir1 Si4 2.422501 1_555
Ir1 Si13 2.439877 1_555
Ir1 Si1 2.441343 1_565
Ir1 Si10 2.444501 1_565
Ir1 Si5 2.497312 1_555
Ir1 Si2 2.504025 1_465
Ir1 Mg0 3.068930 1_566
Ir2 Si7 2.419967 1_555
Ir2 Si2 2.422501 1_555
Ir2 Si12 2.439877 1_555
Ir2 Si1 2.441343 1_556
Ir2 Si9 2.444501 1_556
Ir2 Si6 2.497313 1_555
Ir2 Si3 2.504025 1_546
Ir2 Mg0 3.068930 1_656
Ir3 Si5 2.419966 1_555
Ir3 Si3 2.422501 1_555
Ir3 Si11 2.439877 1_555
Ir3 Si1 2.441343 1_655
Ir3 Si8 2.444501 1_655
Ir3 Si7 2.497313 1_555
Ir3 Si4 2.504025 1_654
Ir3 Mg0 3.068930 1_665
Ir4 Si8 2.419967 1_555
Ir4 Si13 2.422501 1_555
Ir4 Si3 2.439877 1_555
Ir4 Si0 2.441343 1_554
Ir4 Si6 2.444501 1_554
Ir4 Si9 2.497313 1_555
Ir4 Si12 2.504025 1_564
Ir4 Mg0 3.068930 1_565
Ir5 Si9 2.419966 1_555
Ir5 Si11 2.422501 1_555
Ir5 Si2 2.439877 1_555
Ir5 Si0 2.441343 1_545
Ir5 Si5 2.444501 1_545
Ir5 Si10 2.497312 1_555
Ir5 Si13 2.504025 1_645
Ir5 Mg0 3.068930 1_655
