# generated using pymatgen
data_YBeAlSi
_symmetry_space_group_name_H-M   'P 1'
_cell_length_a   8.69470304
_cell_length_b   8.69470348
_cell_length_c   3.94906126
_cell_angle_alpha   90.00000000
_cell_angle_beta   90.00000000
_cell_angle_gamma   153.43178977
_symmetry_Int_Tables_number   1
_chemical_formula_structural   YBeAlSi
_chemical_formula_sum   'Y2 Be2 Al2 Si2'
_cell_volume   133.52613714
_cell_formula_units_Z   2
loop_
 _symmetry_equiv_pos_site_id
 _symmetry_equiv_pos_as_xyz
  1  'x, y, z'
loop_
 _atom_site_type_symbol
 _atom_site_label
 _atom_site_symmetry_multiplicity
 _atom_site_fract_x
 _atom_site_fract_y
 _atom_site_fract_z
 _atom_site_occupancy
  Y  Y0  1  0.90000005  0.09999995  0.75000000  1
  Y  Y1  1  0.09999995  0.90000005  0.25000000  1
  Be  Be0  1  0.66663782  0.33336218  0.75000000  1
  Be  Be1  1  0.33336218  0.66663782  0.25000000  1
  Al  Al0  1  0.24975910  0.75024090  0.75000000  1
  Al  Al1  1  0.75024090  0.24975910  0.25000000  1
  Si  Si0  1  0.53750412  0.46249588  0.75000000  1
  Si  Si1  1  0.46249588  0.53750412  0.25000000  1
loop_
_geom_bond_atom_site_label_1
_geom_bond_atom_site_label_2
_geom_bond_distance
_geom_bond_site_symmetry_2
Be0 Si0 2.185473 1_555
Be0 Y1 3.026904 1_545
Be0 Y1 3.026904 1_546
Be0 Y1 3.026904 1_655
Be0 Y1 3.026904 1_656
Be1 Si1 2.185473 1_555
Be1 Y0 3.026904 1_564
Be1 Y0 3.026904 1_565
Be1 Y0 3.026904 1_455
Be1 Y0 3.026904 1_454
Al0 Be1 2.429143 1_555
Al0 Be1 2.429143 1_556
Al0 Be0 2.443446 1_455
Al0 Be0 2.443446 1_565
Al0 Y1 3.212891 1_556
Al0 Y1 3.212891 1_555
Al0 Y0 3.233692 1_565
Al0 Y0 3.233693 1_455
Al1 Be0 2.429143 1_554
Al1 Be0 2.429143 1_555
Al1 Be1 2.443446 1_655
Al1 Be1 2.443446 1_545
Al1 Y0 3.212891 1_555
Al1 Y0 3.212891 1_554
Al1 Y1 3.233692 1_545
Al1 Y1 3.233693 1_655
Si0 Si1 2.347396 1_555
Si0 Si1 2.347396 1_556
Si0 Y1 3.001490 1_656
Si0 Y1 3.001490 1_655
Si0 Y1 3.001490 1_545
Si0 Y1 3.001490 1_546
Si0 Y0 3.067087 1_455
Si0 Y0 3.067088 1_565
Si1 Y0 3.001490 1_455
Si1 Y0 3.001490 1_454
Si1 Y0 3.001490 1_564
Si1 Y0 3.001490 1_565
Si1 Y1 3.067087 1_655
Si1 Y1 3.067088 1_545
