# generated using pymatgen
data_CsMoH5
_symmetry_space_group_name_H-M   'P 1'
_cell_length_a   11.52760929
_cell_length_b   7.66314545
_cell_length_c   4.78639705
_cell_angle_alpha   90.00000000
_cell_angle_beta   90.00000000
_cell_angle_gamma   90.00000000
_symmetry_Int_Tables_number   1
_chemical_formula_structural   CsMoH5
_chemical_formula_sum   'Cs4 Mo4 H20'
_cell_volume   422.81952988
_cell_formula_units_Z   4
loop_
 _symmetry_equiv_pos_site_id
 _symmetry_equiv_pos_as_xyz
  1  'x, y, z'
loop_
 _atom_site_type_symbol
 _atom_site_label
 _atom_site_symmetry_multiplicity
 _atom_site_fract_x
 _atom_site_fract_y
 _atom_site_fract_z
 _atom_site_occupancy
  Cs  Cs0  1  0.67217940  0.07496198  0.33698587  1
  Cs  Cs1  1  0.17217940  0.42503702  0.33698587  1
  Cs  Cs2  1  0.82782060  0.57496198  0.83698587  1
  Cs  Cs3  1  0.32782060  0.92503802  0.83698587  1
  Mo  Mo0  1  0.51968143  0.56381265  0.31335923  1
  Mo  Mo1  1  0.01968143  0.93618735  0.31335923  1
  Mo  Mo2  1  0.98031857  0.06381165  0.81335823  1
  Mo  Mo3  1  0.48031857  0.43618835  0.81335823  1
  H  H0  1  0.34839590  0.32660711  0.82992110  1
  H  H1  1  0.84839590  0.17339289  0.82992110  1
  H  H2  1  0.98992105  0.71383252  0.33020764  1
  H  H3  1  0.48992105  0.78616648  0.33020764  1
  H  H4  1  0.59781922  0.40639259  0.05944818  1
  H  H5  1  0.09781822  0.09360741  0.05944818  1
  H  H6  1  0.38922479  0.55190427  0.05915668  1
  H  H7  1  0.88922479  0.94809673  0.05915668  1
  H  H8  1  0.95528211  0.14504281  0.43792030  1
  H  H9  1  0.45528211  0.35495819  0.43792030  1
  H  H10  1  0.15160410  0.82660711  0.32992010  1
  H  H11  1  0.65160410  0.67339189  0.32992010  1
  H  H12  1  0.51007995  0.21383252  0.83020964  1
  H  H13  1  0.01007995  0.28616648  0.83020964  1
  H  H14  1  0.90218178  0.90639159  0.55944818  1
  H  H15  1  0.40218178  0.59360841  0.55944818  1
  H  H16  1  0.11077521  0.05190327  0.55915668  1
  H  H17  1  0.61077521  0.44809673  0.55915668  1
  H  H18  1  0.54471789  0.64504281  0.93792230  1
  H  H19  1  0.04471789  0.85495819  0.93792230  1
loop_
_geom_bond_atom_site_label_1
_geom_bond_atom_site_label_2
_geom_bond_distance
_geom_bond_site_symmetry_2
Cs0 H4 2.991661 1_555
Cs0 H7 2.995596 1_545
Cs0 H3 3.051721 1_545
Cs0 H11 3.086602 1_545
Cs0 H17 3.131764 1_555
Cs0 H14 3.135647 1_545
Cs0 H12 3.193343 1_555
Cs0 H1 3.203443 1_555
Cs0 H12 3.241592 1_554
Cs0 H1 3.253575 1_554
Cs0 H9 3.329978 1_555
Cs0 H8 3.342488 1_555
Cs1 H5 2.991658 1_555
Cs1 H6 2.995601 1_555
Cs1 H2 3.051721 1_455
Cs1 H10 3.086602 1_555
Cs1 H16 3.131757 1_555
Cs1 H15 3.135650 1_555
Cs1 H13 3.193343 1_555
Cs1 H0 3.203441 1_555
Cs1 H13 3.241592 1_554
Cs1 H0 3.253573 1_554
Cs1 H8 3.329968 1_455
Cs1 H9 3.342485 1_555
Cs2 H14 2.991658 1_555
Cs2 H17 2.995596 1_555
Cs2 H13 3.051728 1_655
Cs2 H1 3.086595 1_555
Cs2 H7 3.131764 1_556
Cs2 H4 3.135634 1_556
Cs2 H2 3.193342 1_556
Cs2 H11 3.203438 1_556
Cs2 H2 3.241606 1_555
Cs2 H11 3.253577 1_555
Cs2 H19 3.329980 1_655
Cs2 H18 3.342489 1_555
Cs3 H15 2.991658 1_555
Cs3 H16 2.995596 1_565
Cs3 H12 3.051723 1_565
Cs3 H0 3.086595 1_565
Cs3 H6 3.131757 1_556
Cs3 H5 3.135644 1_566
Cs3 H3 3.193345 1_556
Cs3 H10 3.203440 1_556
Cs3 H3 3.241608 1_555
Cs3 H10 3.253579 1_555
Cs3 H18 3.329975 1_555
Cs3 H19 3.342488 1_555
H0 Mo3 1.739003 1_555
H1 Mo2 1.739003 1_555
H2 Mo1 1.740000 1_655
H3 Mo0 1.739993 1_555
H4 Mo3 1.809481 1_554
H4 Mo0 1.934832 1_555
H5 Mo2 1.809472 1_454
H5 Mo1 1.934827 1_545
H6 Mo3 1.809183 1_554
H6 Mo0 1.936568 1_555
H7 Mo2 1.809180 1_564
H7 Mo1 1.936568 1_655
H8 Mo1 1.862293 1_645
H8 Mo2 1.923532 1_555
H9 Mo0 1.862286 1_555
H9 Mo3 1.923530 1_555
H10 Mo1 1.738999 1_555
H11 Mo0 1.738995 1_555
H12 Mo3 1.740011 1_555
H13 Mo2 1.740003 1_455
H14 Mo1 1.809469 1_655
H14 Mo2 1.934824 1_565
H15 Mo0 1.809469 1_555
H15 Mo3 1.934824 1_555
H16 Mo1 1.809180 1_545
H16 Mo2 1.936565 1_455
H17 Mo0 1.809180 1_555
H17 Mo3 1.936565 1_555
H18 Mo3 1.862291 1_555
H18 Mo0 1.923525 1_556
H19 Mo2 1.862284 1_465
H19 Mo1 1.923523 1_556
