# generated using pymatgen
data_SrGaAsIr2
_symmetry_space_group_name_H-M   'P 1'
_cell_length_a   6.17081467
_cell_length_b   6.17081565
_cell_length_c   6.17081569
_cell_angle_alpha   140.14838987
_cell_angle_beta   140.14838093
_cell_angle_gamma   57.62806605
_symmetry_Int_Tables_number   1
_chemical_formula_structural   SrGaAsIr2
_chemical_formula_sum   'Sr1 Ga1 As1 Ir2'
_cell_volume   95.65159092
_cell_formula_units_Z   1
loop_
 _symmetry_equiv_pos_site_id
 _symmetry_equiv_pos_as_xyz
  1  'x, y, z'
loop_
 _atom_site_type_symbol
 _atom_site_label
 _atom_site_symmetry_multiplicity
 _atom_site_fract_x
 _atom_site_fract_y
 _atom_site_fract_z
 _atom_site_occupancy
  Sr  Sr0  1  0.99752420  0.99752420  1.00000000  1
  Ga  Ga0  1  0.63017146  0.63017146  0.00000000  1
  As  As0  1  0.36836413  0.36836413  1.00000000  1
  Ir  Ir0  1  0.25196910  0.75196910  0.50000000  1
  Ir  Ir1  1  0.75196910  0.25196910  0.50000000  1
loop_
_geom_bond_atom_site_label_1
_geom_bond_atom_site_label_2
_geom_bond_distance
_geom_bond_site_symmetry_2
Ga0 Ir0 2.481415 1_655
Ga0 Ir1 2.481415 1_554
Ga0 Ir1 2.481415 1_565
Ga0 Ir0 2.481416 1_554
Ga0 Sr0 3.301966 1_454
Ga0 Sr0 3.301966 1_443
Ga0 Sr0 3.301966 1_544
Ga0 Sr0 3.301966 1_555
As0 Ir0 2.450907 1_556
As0 Ir1 2.450907 1_455
As0 Ir0 2.450907 1_545
As0 Ir1 2.450907 1_556
As0 Ga0 2.831079 1_556
As0 Sr0 3.285760 1_545
As0 Sr0 3.285760 1_556
As0 Sr0 3.285761 1_455
As0 Sr0 3.285761 1_444
Ir0 Sr0 3.387262 1_555
Ir0 Sr0 3.387263 1_454
Ir0 Sr0 3.463135 1_455
Ir0 Sr0 3.463135 1_444
Ir1 Sr0 3.387262 1_544
Ir1 Sr0 3.387262 1_555
Ir1 Sr0 3.463135 1_444
Ir1 Sr0 3.463135 1_545
