# generated using pymatgen
data_ReBiF7
_symmetry_space_group_name_H-M   'P 1'
_cell_length_a   5.56349675
_cell_length_b   9.11271961
_cell_length_c   12.25708139
_cell_angle_alpha   61.88023669
_cell_angle_beta   90.00000000
_cell_angle_gamma   90.00000000
_symmetry_Int_Tables_number   1
_chemical_formula_structural   ReBiF7
_chemical_formula_sum   'Re4 Bi4 F28'
_cell_volume   548.06736697
_cell_formula_units_Z   4
loop_
 _symmetry_equiv_pos_site_id
 _symmetry_equiv_pos_as_xyz
  1  'x, y, z'
loop_
 _atom_site_type_symbol
 _atom_site_label
 _atom_site_symmetry_multiplicity
 _atom_site_fract_x
 _atom_site_fract_y
 _atom_site_fract_z
 _atom_site_occupancy
  Re  Re0  1  0.75641505  0.27120162  0.95914739  1
  Re  Re1  1  0.25641505  0.72879838  0.54085261  1
  Re  Re2  1  0.24358495  0.72879838  0.04085261  1
  Re  Re3  1  0.74358495  0.27120162  0.45914739  1
  Bi  Bi0  1  0.76031663  0.81408578  0.76283191  1
  Bi  Bi1  1  0.26031663  0.18591422  0.73716809  1
  Bi  Bi2  1  0.23968337  0.18591422  0.23716809  1
  Bi  Bi3  1  0.73968337  0.81408578  0.26283191  1
  F  F0  1  0.43439980  0.71004935  0.91290006  1
  F  F1  1  0.93439980  0.28995065  0.58709994  1
  F  F2  1  0.56560020  0.28995065  0.08709994  1
  F  F3  1  0.06560020  0.71004935  0.41290006  1
  F  F4  1  0.44120642  0.27541207  0.54268933  1
  F  F5  1  0.94120642  0.72458793  0.95731067  1
  F  F6  1  0.55879358  0.72458793  0.45731067  1
  F  F7  1  0.05879358  0.27541207  0.04268933  1
  F  F8  1  0.77039466  0.51375393  0.86168404  1
  F  F9  1  0.27039466  0.48624607  0.63831596  1
  F  F10  1  0.22960534  0.48624607  0.13831596  1
  F  F11  1  0.72960534  0.51375393  0.36168404  1
  F  F12  1  0.75889561  0.02556644  0.05486237  1
  F  F13  1  0.25889561  0.97443356  0.44513763  1
  F  F14  1  0.24110439  0.97443356  0.94513763  1
  F  F15  1  0.74110439  0.02556644  0.55486237  1
  F  F16  1  0.96299729  0.72914670  0.63002469  1
  F  F17  1  0.46299729  0.27085330  0.86997531  1
  F  F18  1  0.03700271  0.27085330  0.36997531  1
  F  F19  1  0.53700271  0.72914670  0.13002469  1
  F  F20  1  0.06070242  0.74608080  0.17215252  1
  F  F21  1  0.56070242  0.25391920  0.32784748  1
  F  F22  1  0.93929758  0.25391920  0.82784748  1
  F  F23  1  0.43929758  0.74608080  0.67215252  1
  F  F24  1  0.39877017  0.96613363  0.22968413  1
  F  F25  1  0.89877017  0.03386637  0.27031587  1
  F  F26  1  0.60122983  0.03386637  0.77031587  1
  F  F27  1  0.10122983  0.96613363  0.72968413  1
loop_
_geom_bond_atom_site_label_1
_geom_bond_atom_site_label_2
_geom_bond_distance
_geom_bond_site_symmetry_2
Bi0 F26 2.230731 1_565
Bi0 F27 2.269709 1_655
Bi0 F23 2.336326 1_555
Bi0 F5 2.351085 1_555
Bi0 F15 2.364864 1_565
Bi0 F16 2.389174 1_555
Bi0 F8 2.415715 1_555
Bi0 F0 2.434381 1_555
Bi1 F27 2.230731 1_545
Bi1 F26 2.269709 1_555
Bi1 F22 2.336326 1_455
Bi1 F4 2.351085 1_555
Bi1 F14 2.364864 1_545
Bi1 F17 2.389174 1_555
Bi1 F9 2.415715 1_555
Bi1 F1 2.434381 1_455
Bi2 F24 2.230731 1_545
Bi2 F25 2.269709 1_455
Bi2 F21 2.336326 1_555
Bi2 F7 2.351085 1_555
Bi2 F13 2.364864 1_545
Bi2 F18 2.389174 1_555
Bi2 F10 2.415715 1_555
Bi2 F2 2.434381 1_555
Bi3 F25 2.230731 1_565
Bi3 F24 2.269709 1_555
Bi3 F20 2.336326 1_655
Bi3 F6 2.351085 1_555
Bi3 F12 2.364864 1_565
Bi3 F19 2.389174 1_555
Bi3 F11 2.415715 1_555
Bi3 F3 2.434381 1_655
F0 Re2 1.966827 1_556
F1 Re3 1.966827 1_555
F2 Re0 1.966827 1_554
F3 Re1 1.966827 1_555
F4 Re3 1.979170 1_555
F5 Re2 1.979170 1_656
F6 Re1 1.979170 1_555
F7 Re0 1.979170 1_454
F8 Re0 1.956946 1_555
F9 Re1 1.956946 1_555
F10 Re2 1.956946 1_555
F11 Re3 1.956946 1_555
F12 Re0 1.977776 1_554
F13 Re1 1.977776 1_555
F14 Re2 1.977776 1_556
F15 Re3 1.977776 1_555
F16 Re1 1.965383 1_655
F17 Re0 1.965383 1_555
F18 Re3 1.965383 1_455
F19 Re2 1.965383 1_555
F20 Re2 1.972049 1_555
F21 Re3 1.972049 1_555
F22 Re0 1.972049 1_555
F23 Re1 1.972049 1_555
