# generated using pymatgen
data_Cs2Mo(SeS)2
_symmetry_space_group_name_H-M   'P 1'
_cell_length_a   7.41418458
_cell_length_b   10.41401970
_cell_length_c   13.09892480
_cell_angle_alpha   90.00000000
_cell_angle_beta   90.00000000
_cell_angle_gamma   90.00000000
_symmetry_Int_Tables_number   1
_chemical_formula_structural   Cs2Mo(SeS)2
_chemical_formula_sum   'Cs8 Mo4 Se8 S8'
_cell_volume   1011.38716402
_cell_formula_units_Z   4
loop_
 _symmetry_equiv_pos_site_id
 _symmetry_equiv_pos_as_xyz
  1  'x, y, z'
loop_
 _atom_site_type_symbol
 _atom_site_label
 _atom_site_symmetry_multiplicity
 _atom_site_fract_x
 _atom_site_fract_y
 _atom_site_fract_z
 _atom_site_occupancy
  Cs  Cs0  1  0.74574033  0.45873368  0.67146393  1
  Cs  Cs1  1  0.25425967  0.04126632  0.17146393  1
  Cs  Cs2  1  0.75425967  0.95873368  0.82853607  1
  Cs  Cs3  1  0.24574033  0.54126632  0.32853607  1
  Cs  Cs4  1  0.74611255  0.15993356  0.39106031  1
  Cs  Cs5  1  0.25388745  0.34006644  0.89106031  1
  Cs  Cs6  1  0.75388745  0.65993356  0.10893969  1
  Cs  Cs7  1  0.24611255  0.84006644  0.60893969  1
  Mo  Mo0  1  0.75727959  0.24999845  0.07137270  1
  Mo  Mo1  1  0.24272041  0.25000155  0.57137270  1
  Mo  Mo2  1  0.74272041  0.74999845  0.42862730  1
  Mo  Mo3  1  0.25727959  0.75000155  0.92862730  1
  Se  Se0  1  0.74460687  0.53122004  0.39165335  1
  Se  Se1  1  0.25539313  0.96877996  0.89165335  1
  Se  Se2  1  0.75539313  0.03122004  0.10834665  1
  Se  Se3  1  0.24460687  0.46877996  0.60834665  1
  Se  Se4  1  0.99585395  0.84507613  0.35759937  1
  Se  Se5  1  0.00414605  0.65492387  0.85759937  1
  Se  Se6  1  0.50414605  0.34507613  0.14240063  1
  Se  Se7  1  0.49585395  0.15492387  0.64240063  1
  S  S0  1  0.75506443  0.28044199  0.90671233  1
  S  S1  1  0.24493557  0.21955801  0.40671233  1
  S  S2  1  0.74493557  0.78044199  0.59328767  1
  S  S3  1  0.25506443  0.71955801  0.09328767  1
  S  S4  1  0.00320478  0.16111727  0.63662981  1
  S  S5  1  0.99679522  0.33888273  0.13662981  1
  S  S6  1  0.49679522  0.66111727  0.86337019  1
  S  S7  1  0.50320478  0.83888273  0.36337019  1
loop_
_geom_bond_atom_site_label_1
_geom_bond_atom_site_label_2
_geom_bond_distance
_geom_bond_site_symmetry_2
Cs0 S2 3.503287 1_555
Cs0 S0 3.598317 1_555
Cs0 S4 3.668546 1_655
Cs0 Se7 3.686135 1_555
Cs0 Se5 3.713437 1_655
Cs0 Se0 3.742155 1_555
Cs0 S6 3.764015 1_555
Cs0 Se3 3.791410 1_655
Cs0 Se3 3.807808 1_555
Cs1 S3 3.503287 1_545
Cs1 S1 3.598317 1_555
Cs1 S5 3.668546 1_455
Cs1 Se6 3.686135 1_555
Cs1 Se4 3.713437 1_445
Cs1 Se1 3.742155 1_544
Cs1 S7 3.764015 1_545
Cs1 Se2 3.791410 1_455
Cs1 Se2 3.807808 1_555
Cs2 S0 3.503287 1_565
Cs2 S2 3.598317 1_555
Cs2 S6 3.668546 1_555
Cs2 Se5 3.686135 1_655
Cs2 Se7 3.713437 1_565
Cs2 Se2 3.742155 1_566
Cs2 S4 3.764015 1_665
Cs2 Se1 3.791410 1_555
Cs2 Se1 3.807808 1_655
Cs3 S1 3.503287 1_555
Cs3 S3 3.598317 1_555
Cs3 S7 3.668546 1_555
Cs3 Se4 3.686135 1_455
Cs3 Se6 3.713437 1_555
Cs3 Se3 3.742155 1_555
Cs3 S5 3.764015 1_455
Cs3 Se0 3.791410 1_555
Cs3 Se0 3.807808 1_455
Cs4 S4 3.739066 1_655
Cs4 S1 3.755729 1_655
Cs4 S1 3.772916 1_555
Cs4 Se7 3.779501 1_555
Cs4 Se4 3.791046 1_545
Cs4 S7 3.814911 1_545
Cs4 Se0 3.866609 1_555
Cs4 Se2 3.938972 1_555
Cs4 Se6 4.188681 1_555
Cs5 S5 3.739066 1_456
Cs5 S0 3.755729 1_455
Cs5 S0 3.772916 1_555
Cs5 Se6 3.779501 1_556
Cs5 Se5 3.791046 1_555
Cs5 S6 3.814911 1_555
Cs5 Se1 3.866609 1_545
Cs5 Se3 3.938972 1_555
Cs5 Se7 4.188681 1_555
Cs6 S6 3.739066 1_554
Cs6 S3 3.755729 1_555
Cs6 S3 3.772916 1_655
Cs6 Se5 3.779501 1_654
Cs6 Se6 3.791046 1_555
Cs6 S5 3.814911 1_555
Cs6 Se2 3.866609 1_565
Cs6 Se0 3.938972 1_555
Cs6 Se4 4.188681 1_555
Cs7 S7 3.739066 1_555
Cs7 S2 3.755729 1_555
Cs7 S2 3.772916 1_455
Cs7 Se4 3.779501 1_455
Cs7 Se7 3.791046 1_565
Cs7 S4 3.814911 1_565
Cs7 Se3 3.866609 1_555
Cs7 Se1 3.938972 1_555
Cs7 Se5 4.188681 1_555
Mo0 S5 2.177385 1_555
Mo0 S0 2.180112 1_554
Mo0 Se6 2.316960 1_555
Mo0 Se2 2.329312 1_555
Mo1 S4 2.177385 1_555
Mo1 S1 2.180112 1_555
Mo1 Se7 2.316960 1_555
Mo1 Se3 2.329312 1_555
Mo2 S7 2.177385 1_555
Mo2 S2 2.180112 1_555
Mo2 Se4 2.316960 1_555
Mo2 Se0 2.329312 1_555
Mo3 S6 2.177385 1_555
Mo3 S3 2.180112 1_556
Mo3 Se5 2.316960 1_555
Mo3 Se1 2.329312 1_555
