# generated using pymatgen
data_Ni3SnSb11Os
_symmetry_space_group_name_H-M   'P 1'
_cell_length_a   7.97021001
_cell_length_b   7.94848179
_cell_length_c   7.98105597
_cell_angle_alpha   109.48546052
_cell_angle_beta   109.39652392
_cell_angle_gamma   109.50570421
_symmetry_Int_Tables_number   1
_chemical_formula_structural   Ni3SnSb11Os
_chemical_formula_sum   'Ni3 Sn1 Sb11 Os1'
_cell_volume   389.34196102
_cell_formula_units_Z   1
loop_
 _symmetry_equiv_pos_site_id
 _symmetry_equiv_pos_as_xyz
  1  'x, y, z'
loop_
 _atom_site_type_symbol
 _atom_site_label
 _atom_site_symmetry_multiplicity
 _atom_site_fract_x
 _atom_site_fract_y
 _atom_site_fract_z
 _atom_site_occupancy
  Ni  Ni0  1  0.99841230  0.00232311  0.49778287  1
  Ni  Ni1  1  0.50453413  0.00211194  0.00403998  1
  Ni  Ni2  1  0.49870587  0.49671889  0.49896054  1
  Sn  Sn0  1  0.16113769  0.82574918  0.66580996  1
  Sb  Sb0  1  0.84311841  0.18204155  0.33819422  1
  Sb  Sb1  1  0.84287428  0.50962463  0.66015007  1
  Sb  Sb2  1  0.16017768  0.49697393  0.34337699  1
  Sb  Sb3  1  0.81864458  0.66634872  0.15891754  1
  Sb  Sb4  1  0.18074486  0.33142546  0.84119235  1
  Sb  Sb5  1  0.50303872  0.66249529  0.84019888  1
  Sb  Sb6  1  0.49516746  0.33566843  0.15884542  1
  Sb  Sb7  1  0.65824970  0.14915643  0.81744379  1
  Sb  Sb8  1  0.33819512  0.84645655  0.17880616  1
  Sb  Sb9  1  0.66248877  0.83936724  0.50152908  1
  Sb  Sb10  1  0.33635091  0.15628824  0.49681755  1
  Os  Os0  1  0.99815852  0.49724939  0.99793460  1
loop_
_geom_bond_atom_site_label_1
_geom_bond_atom_site_label_2
_geom_bond_distance
_geom_bond_site_symmetry_2
Ni0 Sb4 2.549372 1_655
Ni0 Sb0 2.557783 1_555
Ni0 Sb3 2.559586 1_545
Ni0 Sb10 2.563437 1_655
Ni0 Sb9 2.571009 1_545
Ni0 Sn0 2.601201 1_645
Ni1 Sb7 2.549839 1_554
Ni1 Sb8 2.553044 1_545
Ni1 Sb0 2.556960 1_555
Ni1 Sb6 2.563085 1_555
Ni1 Sb5 2.571042 1_544
Ni1 Sn0 2.597869 1_544
Ni2 Sb1 2.563242 1_555
Ni2 Sb2 2.569407 1_555
Ni2 Sb10 2.571540 1_555
Ni2 Sb6 2.571911 1_555
Ni2 Sb5 2.582179 1_555
Ni2 Sb9 2.587056 1_555
Sb0 Sb2 2.879396 1_655
Sb0 Sb1 2.987556 1_555
Sb1 Sn0 2.888245 1_655
Sb2 Sn0 2.989740 1_555
Os0 Sb4 2.609600 1_655
Os0 Sb7 2.610190 1_555
Os0 Sb8 2.614951 1_656
Os0 Sb1 2.617489 1_555
Os0 Sb3 2.618689 1_556
Os0 Sb2 2.628643 1_656
