# generated using pymatgen
data_Li2ZnPd3O8
_symmetry_space_group_name_H-M   'P 1'
_cell_length_a   5.85850838
_cell_length_b   5.85850775
_cell_length_c   5.85850753
_cell_angle_alpha   61.99759925
_cell_angle_beta   61.99760188
_cell_angle_gamma   61.99760392
_symmetry_Int_Tables_number   1
_chemical_formula_structural   Li2ZnPd3O8
_chemical_formula_sum   'Li2 Zn1 Pd3 O8'
_cell_volume   148.53550679
_cell_formula_units_Z   1
loop_
 _symmetry_equiv_pos_site_id
 _symmetry_equiv_pos_as_xyz
  1  'x, y, z'
loop_
 _atom_site_type_symbol
 _atom_site_label
 _atom_site_symmetry_multiplicity
 _atom_site_fract_x
 _atom_site_fract_y
 _atom_site_fract_z
 _atom_site_occupancy
  Li  Li0  1  0.62277811  0.62277811  0.62277811  1
  Li  Li1  1  0.23928298  0.23928298  0.23928298  1
  Zn  Zn0  1  0.01827299  0.01827299  0.01827299  1
  Pd  Pd0  1  0.62435707  0.12755251  0.62435707  1
  Pd  Pd1  1  0.12755251  0.62435707  0.62435707  1
  Pd  Pd2  1  0.62435707  0.62435707  0.12755251  1
  O  O0  1  0.86566953  0.86566953  0.86566953  1
  O  O1  1  0.86582996  0.40682356  0.86582996  1
  O  O2  1  0.40682356  0.86582996  0.86582996  1
  O  O3  1  0.86582996  0.86582996  0.40682356  1
  O  O4  1  0.38609085  0.38609085  0.38609085  1
  O  O5  1  0.38003405  0.84309030  0.38003405  1
  O  O6  1  0.84309030  0.38003405  0.38003405  1
  O  O7  1  0.38003405  0.38003405  0.84309030  1
loop_
_geom_bond_atom_site_label_1
_geom_bond_atom_site_label_2
_geom_bond_distance
_geom_bond_site_symmetry_2
Li0 O6 2.040257 1_555
Li0 O7 2.040257 1_555
Li0 O5 2.040257 1_555
Li0 O2 2.043619 1_555
Li0 O3 2.043619 1_555
Li0 O1 2.043619 1_555
Li1 O7 1.947153 1_554
Li1 O5 1.947153 1_545
Li1 O6 1.947153 1_455
Li1 O4 2.074377 1_555
O0 Pd2 2.038248 1_556
O0 Pd1 2.038248 1_655
O0 Pd0 2.038248 1_565
O0 Zn0 2.156268 1_666
O1 Zn0 1.925584 1_656
O1 Pd2 2.020295 1_556
O1 Pd1 2.020295 1_655
O2 Zn0 1.925584 1_566
O2 Pd0 2.020295 1_565
O2 Pd2 2.020295 1_556
O3 Zn0 1.925584 1_665
O3 Pd0 2.020295 1_565
O3 Pd1 2.020295 1_655
O4 Pd2 2.012495 1_555
O4 Pd1 2.012495 1_555
O4 Pd0 2.012495 1_555
O5 Pd2 1.987023 1_555
O5 Pd1 1.987023 1_555
O6 Pd0 1.987022 1_555
O6 Pd2 1.987023 1_555
O7 Pd0 1.987023 1_555
O7 Pd1 1.987023 1_555
