# generated using pymatgen
data_Lu3Si3Tc2
_symmetry_space_group_name_H-M   'P 1'
_cell_length_a   5.63373267
_cell_length_b   5.63373213
_cell_length_c   13.68313010
_cell_angle_alpha   90.00000000
_cell_angle_beta   90.00000000
_cell_angle_gamma   137.21481698
_symmetry_Int_Tables_number   1
_chemical_formula_structural   Lu3Si3Tc2
_chemical_formula_sum   'Lu6 Si6 Tc4'
_cell_volume   294.99082857
_cell_formula_units_Z   2
loop_
 _symmetry_equiv_pos_site_id
 _symmetry_equiv_pos_as_xyz
  1  'x, y, z'
loop_
 _atom_site_type_symbol
 _atom_site_label
 _atom_site_symmetry_multiplicity
 _atom_site_fract_x
 _atom_site_fract_y
 _atom_site_fract_z
 _atom_site_occupancy
  Lu  Lu0  1  0.63720677  0.36279323  0.25000000  1
  Lu  Lu1  1  0.36279323  0.63720677  0.75000000  1
  Lu  Lu2  1  0.92303001  0.07696999  0.11404757  1
  Lu  Lu3  1  0.07696999  0.92303001  0.88595243  1
  Lu  Lu4  1  0.07696999  0.92303001  0.61404757  1
  Lu  Lu5  1  0.92303001  0.07696999  0.38595243  1
  Si  Si0  1  0.32576980  0.67423020  0.25000000  1
  Si  Si1  1  0.67423020  0.32576980  0.75000000  1
  Si  Si2  1  0.61420790  0.38579210  0.03884216  1
  Si  Si3  1  0.38579210  0.61420790  0.96115784  1
  Si  Si4  1  0.38579210  0.61420790  0.53884216  1
  Si  Si5  1  0.61420790  0.38579210  0.46115784  1
  Tc  Tc0  1  0.78443416  0.21556584  0.58349022  1
  Tc  Tc1  1  0.21556584  0.78443416  0.41650978  1
  Tc  Tc2  1  0.21556584  0.78443416  0.08349022  1
  Tc  Tc3  1  0.78443416  0.21556584  0.91650978  1
loop_
_geom_bond_atom_site_label_1
_geom_bond_atom_site_label_2
_geom_bond_distance
_geom_bond_site_symmetry_2
Lu0 Si0 2.852409 1_545
Lu0 Si0 2.852409 1_655
Lu0 Si5 2.899358 1_555
Lu0 Si2 2.899358 1_555
Lu0 Tc1 3.176410 1_545
Lu0 Tc2 3.176410 1_545
Lu0 Tc1 3.176411 1_655
Lu0 Tc2 3.176411 1_655
Lu0 Si0 3.267338 1_555
Lu1 Si1 2.852409 1_565
Lu1 Si1 2.852409 1_455
Lu1 Si3 2.899358 1_555
Lu1 Si4 2.899358 1_555
Lu1 Tc3 3.176410 1_565
Lu1 Tc0 3.176410 1_565
Lu1 Tc3 3.176411 1_455
Lu1 Tc0 3.176411 1_455
Lu1 Si1 3.267338 1_555
Lu2 Si0 2.953724 1_655
Lu2 Si0 2.953725 1_545
Lu2 Si3 2.958362 1_654
Lu2 Si3 2.958362 1_544
Lu2 Tc2 3.022406 1_655
Lu2 Tc2 3.022406 1_545
Lu2 Si2 3.050322 1_545
Lu2 Si2 3.050322 1_655
Lu2 Tc3 3.069213 1_554
Lu2 Tc2 3.097394 1_645
Lu3 Si1 2.953724 1_455
Lu3 Si1 2.953725 1_565
Lu3 Si2 2.958362 1_456
Lu3 Si2 2.958362 1_566
Lu3 Tc3 3.022406 1_455
Lu3 Tc3 3.022406 1_565
Lu3 Si3 3.050322 1_565
Lu3 Si3 3.050322 1_455
Lu3 Tc2 3.069213 1_556
Lu3 Tc3 3.097394 1_465
Lu4 Si1 2.953724 1_455
Lu4 Si1 2.953725 1_565
Lu4 Si5 2.958362 1_455
Lu4 Si5 2.958362 1_565
Lu4 Tc0 3.022406 1_455
Lu4 Tc0 3.022406 1_565
Lu4 Si4 3.050322 1_565
Lu4 Si4 3.050322 1_455
Lu4 Tc1 3.069213 1_555
Lu4 Tc0 3.097394 1_465
Lu5 Si0 2.953724 1_655
Lu5 Si0 2.953725 1_545
Lu5 Si4 2.958362 1_655
Lu5 Si4 2.958362 1_545
Lu5 Tc1 3.022406 1_655
Lu5 Tc1 3.022406 1_545
Lu5 Si5 3.050322 1_545
Lu5 Si5 3.050322 1_655
Lu5 Tc0 3.069213 1_555
Lu5 Tc1 3.097394 1_645
Si0 Tc1 2.554940 1_555
Si0 Tc2 2.554940 1_555
Si1 Tc3 2.554940 1_555
Si1 Tc0 2.554940 1_555
Si2 Tc2 2.393063 1_545
Si2 Tc2 2.393063 1_655
Si2 Tc3 2.447703 1_554
Si2 Si3 2.621523 1_554
Si3 Tc3 2.393063 1_565
Si3 Tc3 2.393063 1_455
Si3 Tc2 2.447703 1_556
Si4 Tc0 2.393063 1_565
Si4 Tc0 2.393063 1_455
Si4 Tc1 2.447703 1_555
Si4 Si5 2.621523 1_555
Si5 Tc1 2.393063 1_545
Si5 Tc1 2.393063 1_655
Si5 Tc0 2.447703 1_555
