# generated using pymatgen
data_Zr3AlPt2N
_symmetry_space_group_name_H-M   'P 1'
_cell_length_a   8.59509449
_cell_length_b   8.59509498
_cell_length_c   8.59509475
_cell_angle_alpha   60.00000467
_cell_angle_beta   60.00000278
_cell_angle_gamma   60.00000156
_symmetry_Int_Tables_number   1
_chemical_formula_structural   Zr3AlPt2N
_chemical_formula_sum   'Zr12 Al4 Pt8 N4'
_cell_volume   448.99037933
_cell_formula_units_Z   4
loop_
 _symmetry_equiv_pos_site_id
 _symmetry_equiv_pos_as_xyz
  1  'x, y, z'
loop_
 _atom_site_type_symbol
 _atom_site_label
 _atom_site_symmetry_multiplicity
 _atom_site_fract_x
 _atom_site_fract_y
 _atom_site_fract_z
 _atom_site_occupancy
  Zr  Zr0  1  0.81056738  0.81056738  0.18943262  1
  Zr  Zr1  1  0.18943262  0.18943262  0.81056738  1
  Zr  Zr2  1  0.81056738  0.18943262  0.81056738  1
  Zr  Zr3  1  0.18943262  0.81056738  0.18943262  1
  Zr  Zr4  1  0.18943262  0.81056738  0.81056738  1
  Zr  Zr5  1  0.81056738  0.18943262  0.18943262  1
  Zr  Zr6  1  0.43943262  0.43943262  0.06056738  1
  Zr  Zr7  1  0.06056738  0.06056738  0.43943262  1
  Zr  Zr8  1  0.43943262  0.06056738  0.43943262  1
  Zr  Zr9  1  0.06056738  0.43943262  0.06056738  1
  Zr  Zr10  1  0.06056738  0.43943262  0.43943262  1
  Zr  Zr11  1  0.43943262  0.06056738  0.06056738  1
  Al  Al0  1  0.12500000  0.62500000  0.62500000  1
  Al  Al1  1  0.62500000  0.12500000  0.62500000  1
  Al  Al2  1  0.62500000  0.62500000  0.12500000  1
  Al  Al3  1  0.62500000  0.62500000  0.62500000  1
  Pt  Pt0  1  0.76391338  0.41202921  0.41202921  1
  Pt  Pt1  1  0.41202921  0.76391338  0.41202921  1
  Pt  Pt2  1  0.41202921  0.41202921  0.76391338  1
  Pt  Pt3  1  0.41202921  0.41202921  0.41202921  1
  Pt  Pt4  1  0.48608662  0.83797079  0.83797079  1
  Pt  Pt5  1  0.83797079  0.48608662  0.83797079  1
  Pt  Pt6  1  0.83797079  0.83797079  0.48608662  1
  Pt  Pt7  1  0.83797079  0.83797079  0.83797079  1
  N  N0  1  0.62500000  0.12500000  0.12500000  1
  N  N1  1  0.12500000  0.62500000  0.12500000  1
  N  N2  1  0.12500000  0.12500000  0.62500000  1
  N  N3  1  0.12500000  0.12500000  0.12500000  1
loop_
_geom_bond_atom_site_label_1
_geom_bond_atom_site_label_2
_geom_bond_distance
_geom_bond_site_symmetry_2
Al0 Pt7 2.665834 1_455
Al0 Pt3 2.665834 1_555
Al0 Pt2 2.665839 1_555
Al0 Pt6 2.665839 1_455
Al0 Pt1 2.665839 1_555
Al0 Pt5 2.665839 1_455
Al1 Pt7 2.665834 1_545
Al1 Pt3 2.665834 1_555
Al1 Pt2 2.665839 1_555
Al1 Pt6 2.665839 1_545
Al1 Pt0 2.665839 1_555
Al1 Pt4 2.665839 1_545
Al2 Pt7 2.665835 1_554
Al2 Pt3 2.665835 1_555
Al2 Pt1 2.665839 1_555
Al2 Pt5 2.665839 1_554
Al2 Pt0 2.665839 1_555
Al2 Pt4 2.665839 1_554
Al3 Pt5 2.665832 1_555
Al3 Pt1 2.665832 1_555
Al3 Pt4 2.665832 1_555
Al3 Pt0 2.665832 1_555
Al3 Pt6 2.665832 1_555
Al3 Pt2 2.665832 1_555
Pt0 Zr10 2.805151 1_655
Pt0 Zr7 2.805156 1_655
Pt0 Zr9 2.805156 1_655
Pt0 Zr2 3.099645 1_555
Pt0 Zr0 3.099645 1_555
Pt0 Zr5 3.099652 1_555
Pt1 Zr8 2.805151 1_565
Pt1 Zr7 2.805156 1_565
Pt1 Zr11 2.805156 1_565
Pt1 Zr0 3.099645 1_555
Pt1 Zr4 3.099645 1_555
Pt1 Zr3 3.099652 1_555
Pt2 Zr6 2.805151 1_556
Pt2 Zr9 2.805156 1_556
Pt2 Zr11 2.805156 1_556
Pt2 Zr2 3.099645 1_555
Pt2 Zr4 3.099645 1_555
Pt2 Zr1 3.099652 1_555
Pt3 Zr10 2.805160 1_555
Pt3 Zr6 2.805160 1_555
Pt3 Zr8 2.805160 1_555
Pt3 Zr5 3.099648 1_555
Pt3 Zr3 3.099648 1_555
Pt3 Zr1 3.099648 1_555
Pt4 Zr4 2.805151 1_555
Pt4 Zr1 2.805156 1_565
Pt4 Zr3 2.805156 1_556
Pt4 Zr8 3.099645 1_565
Pt4 Zr6 3.099645 1_556
Pt4 Zr11 3.099652 1_566
Pt5 Zr2 2.805151 1_555
Pt5 Zr1 2.805156 1_655
Pt5 Zr5 2.805156 1_556
Pt5 Zr6 3.099645 1_556
Pt5 Zr10 3.099645 1_655
Pt5 Zr9 3.099652 1_656
Pt6 Zr0 2.805151 1_555
Pt6 Zr3 2.805156 1_655
Pt6 Zr5 2.805156 1_565
Pt6 Zr8 3.099645 1_565
Pt6 Zr10 3.099645 1_655
Pt6 Zr7 3.099652 1_665
Pt7 Zr4 2.805160 1_655
Pt7 Zr0 2.805160 1_556
Pt7 Zr2 2.805160 1_565
Pt7 Zr11 3.099648 1_566
Pt7 Zr9 3.099648 1_656
Pt7 Zr7 3.099648 1_665
N0 Zr5 2.287056 1_555
N0 Zr11 2.287056 1_555
N0 Zr8 2.287057 1_555
N0 Zr2 2.287057 1_554
N0 Zr6 2.287057 1_555
N0 Zr0 2.287057 1_545
N1 Zr3 2.287056 1_555
N1 Zr9 2.287056 1_555
N1 Zr6 2.287056 1_555
N1 Zr0 2.287056 1_455
N1 Zr10 2.287057 1_555
N1 Zr4 2.287057 1_554
N2 Zr1 2.287056 1_555
N2 Zr7 2.287056 1_555
N2 Zr8 2.287056 1_555
N2 Zr2 2.287056 1_455
N2 Zr10 2.287057 1_555
N2 Zr4 2.287057 1_545
N3 Zr11 2.287056 1_555
N3 Zr5 2.287056 1_455
N3 Zr7 2.287057 1_555
N3 Zr1 2.287057 1_554
N3 Zr9 2.287057 1_555
N3 Zr3 2.287057 1_545
