# generated using pymatgen
data_Cs4NaGaSe4
_symmetry_space_group_name_H-M   'P 1'
_cell_length_a   8.85512187
_cell_length_b   8.85512193
_cell_length_c   8.85512207
_cell_angle_alpha   133.06208716
_cell_angle_beta   129.89094143
_cell_angle_gamma   71.08780055
_symmetry_Int_Tables_number   1
_chemical_formula_structural   Cs4NaGaSe4
_chemical_formula_sum   'Cs4 Na1 Ga1 Se4'
_cell_volume   381.13933278
_cell_formula_units_Z   1
loop_
 _symmetry_equiv_pos_site_id
 _symmetry_equiv_pos_as_xyz
  1  'x, y, z'
loop_
 _atom_site_type_symbol
 _atom_site_label
 _atom_site_symmetry_multiplicity
 _atom_site_fract_x
 _atom_site_fract_y
 _atom_site_fract_z
 _atom_site_occupancy
  Cs  Cs0  1  0.52041079  0.86617913  0.67933707  1
  Cs  Cs1  1  0.47958921  0.15892627  0.34576833  1
  Cs  Cs2  1  0.81315794  0.63382087  0.15423167  1
  Cs  Cs3  1  0.18684206  0.34107373  0.82066293  1
  Na  Na0  1  0.00000000  0.25000000  0.25000000  1
  Ga  Ga0  1  0.00000000  0.75000000  0.75000000  1
  Se  Se0  1  0.08203780  0.86018846  0.13989011  1
  Se  Se1  1  0.72029935  0.44214770  0.36010989  1
  Se  Se2  1  0.91796220  0.05785230  0.77815166  1
  Se  Se3  1  0.27970165  0.63981154  0.72184834  1
loop_
_geom_bond_atom_site_label_1
_geom_bond_atom_site_label_2
_geom_bond_distance
_geom_bond_site_symmetry_2
Cs0 Se1 3.582966 1_555
Cs0 Se3 3.678645 1_555
Cs0 Se0 3.727341 1_555
Cs0 Se2 3.732765 1_565
Cs0 Se0 3.934165 1_656
Cs0 Se1 3.958017 1_566
Cs1 Se3 3.582964 1_544
Cs1 Se1 3.678660 1_555
Cs1 Se2 3.727346 1_555
Cs1 Se0 3.732771 1_545
Cs1 Se2 3.934162 1_454
Cs1 Se3 3.958014 1_555
Cs2 Se2 3.582966 1_565
Cs2 Se0 3.678653 1_655
Cs2 Se3 3.727343 1_554
Cs2 Se1 3.732765 1_555
Cs2 Se3 3.934159 1_655
Cs2 Se2 3.958017 1_554
Cs3 Se0 3.582960 1_556
Cs3 Se2 3.678660 1_455
Cs3 Se1 3.727346 1_556
Cs3 Se3 3.732778 1_555
Cs3 Se1 3.934162 1_455
Cs3 Se0 3.958018 1_545
Na0 Se1 2.842612 1_455
Na0 Se2 2.842612 1_454
Na0 Se3 2.842619 1_555
Na0 Se0 2.842620 1_545
Ga0 Se2 2.458020 1_465
Ga0 Se1 2.458020 1_455
Ga0 Se0 2.458024 1_556
Ga0 Se3 2.458028 1_555
