# generated using pymatgen
data_Ba4SiGe3N8
_symmetry_space_group_name_H-M   'P 1'
_cell_length_a   6.56869163
_cell_length_b   6.56869214
_cell_length_c   7.71750887
_cell_angle_alpha   89.80989777
_cell_angle_beta   90.19010182
_cell_angle_gamma   127.84426829
_symmetry_Int_Tables_number   1
_chemical_formula_structural   Ba4SiGe3N8
_chemical_formula_sum   'Ba4 Si1 Ge3 N8'
_cell_volume   262.95641530
_cell_formula_units_Z   1
loop_
 _symmetry_equiv_pos_site_id
 _symmetry_equiv_pos_as_xyz
  1  'x, y, z'
loop_
 _atom_site_type_symbol
 _atom_site_label
 _atom_site_symmetry_multiplicity
 _atom_site_fract_x
 _atom_site_fract_y
 _atom_site_fract_z
 _atom_site_occupancy
  Ba  Ba0  1  0.16937096  0.83062904  0.57136752  1
  Ba  Ba1  1  0.82823534  0.17176466  0.42912187  1
  Ba  Ba2  1  0.33097796  0.66902204  0.06713262  1
  Ba  Ba3  1  0.66820335  0.33179665  0.93224344  1
  Si  Si0  1  0.44502405  0.55497595  0.63983386  1
  Ge  Ge0  1  0.94718131  0.05281869  0.84970890  1
  Ge  Ge1  1  0.55181306  0.44818694  0.35976078  1
  Ge  Ge2  1  0.05377893  0.94622107  0.14536968  1
  N  N0  1  0.14759896  0.37031305  0.74286368  1
  N  N1  1  0.36980494  0.13207195  0.25304036  1
  N  N2  1  0.86792805  0.63019506  0.25304036  1
  N  N3  1  0.62968695  0.85240104  0.74286368  1
  N  N4  1  0.10345136  0.89654864  0.91067841  1
  N  N5  1  0.59282355  0.40717645  0.59820567  1
  N  N6  1  0.39659138  0.60340862  0.41822611  1
  N  N7  1  0.89753085  0.10246915  0.08654405  1
loop_
_geom_bond_atom_site_label_1
_geom_bond_atom_site_label_2
_geom_bond_distance
_geom_bond_site_symmetry_2
Ba0 N4 2.734474 1_555
Ba0 N2 2.912016 1_455
Ba0 N1 2.912016 1_565
Ba0 N6 2.934114 1_555
Ba0 N5 3.032833 1_455
Ba0 N5 3.032833 1_565
Ba0 N3 3.218519 1_555
Ba0 N0 3.218520 1_555
Ba1 N7 2.770290 1_555
Ba1 N0 2.931649 1_655
Ba1 N3 2.931649 1_545
Ba1 N6 2.999349 1_655
Ba1 N6 2.999349 1_545
Ba1 N5 3.073437 1_555
Ba1 N1 3.161374 1_555
Ba1 N2 3.161374 1_555
Ba2 N6 2.815261 1_555
Ba2 N4 2.939751 1_554
Ba2 N3 2.945529 1_554
Ba2 N0 2.945529 1_554
Ba2 N7 2.996035 1_565
Ba2 N7 2.996035 1_455
Ba2 N2 3.232604 1_455
Ba2 N1 3.232604 1_565
Ba3 N5 2.723968 1_555
Ba3 N1 2.923660 1_556
Ba3 N2 2.923660 1_556
Ba3 N7 2.952453 1_556
Ba3 N4 2.991402 1_545
Ba3 N4 2.991402 1_655
Ba3 N0 3.341680 1_655
Ba3 N3 3.341680 1_545
Ge0 N3 1.841022 1_545
Ge0 N0 1.841022 1_655
Ge0 N4 1.901383 1_645
Ge0 N7 1.921439 1_556
Ge1 N2 1.837950 1_555
Ge1 N1 1.837950 1_555
Ge1 N6 1.887986 1_555
Ge1 N5 1.901037 1_555
Ge2 N1 1.837333 1_565
Ge2 N2 1.837333 1_455
Ge2 N7 1.897164 1_465
Ge2 N4 1.905769 1_554
N0 Si0 1.736827 1_555
N3 Si0 1.736827 1_555
N5 Si0 1.774539 1_555
N6 Si0 1.801217 1_555
