# generated using pymatgen
data_K4AgSb2Au
_symmetry_space_group_name_H-M   'P 1'
_cell_length_a   6.62975552
_cell_length_b   6.62975632
_cell_length_c   6.38848872
_cell_angle_alpha   90.38991038
_cell_angle_beta   90.38991249
_cell_angle_gamma   104.53827468
_symmetry_Int_Tables_number   1
_chemical_formula_structural   K4AgSb2Au
_chemical_formula_sum   'K4 Ag1 Sb2 Au1'
_cell_volume   271.78958793
_cell_formula_units_Z   1
loop_
 _symmetry_equiv_pos_site_id
 _symmetry_equiv_pos_as_xyz
  1  'x, y, z'
loop_
 _atom_site_type_symbol
 _atom_site_label
 _atom_site_symmetry_multiplicity
 _atom_site_fract_x
 _atom_site_fract_y
 _atom_site_fract_z
 _atom_site_occupancy
  K  K0  1  0.82932215  0.48762805  0.74562747  1
  K  K1  1  0.51237195  0.17067785  0.25437253  1
  K  K2  1  0.48762805  0.82932215  0.74562747  1
  K  K3  1  0.17067785  0.51237195  0.25437253  1
  Ag  Ag0  1  0.00000000  0.00000000  0.00000000  1
  Sb  Sb0  1  0.73461667  0.73461667  0.24909018  1
  Sb  Sb1  1  0.26538333  0.26538333  0.75090982  1
  Au  Au0  1  0.00000000  0.00000000  0.50000000  1
loop_
_geom_bond_atom_site_label_1
_geom_bond_atom_site_label_2
_geom_bond_distance
_geom_bond_site_symmetry_2
K0 Sb1 3.559187 1_655
K0 Sb1 3.658859 1_555
K0 Sb0 3.701037 1_555
K0 Sb0 3.727269 1_556
K1 Sb0 3.559187 1_545
K1 Sb0 3.658860 1_555
K1 Sb1 3.701037 1_555
K1 Sb1 3.727269 1_554
K2 Sb1 3.559187 1_565
K2 Sb1 3.658860 1_555
K2 Sb0 3.701037 1_555
K2 Sb0 3.727269 1_556
K3 Sb0 3.559187 1_455
K3 Sb0 3.658859 1_555
K3 Sb1 3.701037 1_555
K3 Sb1 3.727269 1_554
Ag0 Sb1 2.691746 1_554
Ag0 Sb0 2.691746 1_445
Ag0 Au0 3.194244 1_554
Ag0 Au0 3.194244 1_555
Ag0 K1 3.664726 1_555
Ag0 K2 3.664726 1_444
Ag0 K3 3.664726 1_555
Ag0 K0 3.664726 1_444
Ag0 K2 4.031827 1_544
Ag0 K1 4.031827 1_455
Ag0 K0 4.031827 1_454
Ag0 K3 4.031827 1_545
Au0 Sb1 2.670140 1_555
Au0 Sb0 2.670140 1_445
Au0 K1 3.667238 1_555
Au0 K2 3.667238 1_445
Au0 K3 3.667238 1_555
Au0 K0 3.667238 1_445
