# generated using pymatgen
data_Ti4InTc24
_symmetry_space_group_name_H-M   'P 1'
_cell_length_a   8.25453632
_cell_length_b   8.25453734
_cell_length_c   8.25453605
_cell_angle_alpha   109.47121986
_cell_angle_beta   109.47122238
_cell_angle_gamma   109.47122656
_symmetry_Int_Tables_number   1
_chemical_formula_structural   Ti4InTc24
_chemical_formula_sum   'Ti4 In1 Tc24'
_cell_volume   432.96835903
_cell_formula_units_Z   1
loop_
 _symmetry_equiv_pos_site_id
 _symmetry_equiv_pos_as_xyz
  1  'x, y, z'
loop_
 _atom_site_type_symbol
 _atom_site_label
 _atom_site_symmetry_multiplicity
 _atom_site_fract_x
 _atom_site_fract_y
 _atom_site_fract_z
 _atom_site_occupancy
  Ti  Ti0  1  0.62952786  1.00000000  1.00000000  1
  Ti  Ti1  1  1.00000000  0.62952786  0.00000000  1
  Ti  Ti2  1  1.00000000  1.00000000  0.62952786  1
  Ti  Ti3  1  0.37047214  0.37047214  0.37047214  1
  In  In0  1  0.00000000  0.00000000  0.00000000  1
  Tc  Tc0  1  0.39587726  0.67792015  1.00000000  1
  Tc  Tc1  1  0.71795711  0.32207985  0.32207985  1
  Tc  Tc2  1  0.39587726  1.00000000  0.67792015  1
  Tc  Tc3  1  0.67792015  0.39587726  1.00000000  1
  Tc  Tc4  1  1.00000000  0.39587726  0.67792015  1
  Tc  Tc5  1  0.32207985  0.71795711  0.32207985  1
  Tc  Tc6  1  0.32207985  0.32207985  0.71795711  1
  Tc  Tc7  1  1.00000000  0.67792015  0.39587726  1
  Tc  Tc8  1  0.67792015  1.00000000  0.39587726  1
  Tc  Tc9  1  0.60412274  0.60412274  0.28204289  1
  Tc  Tc10  1  0.28204289  0.60412274  0.60412274  1
  Tc  Tc11  1  0.60412274  0.28204289  0.60412274  1
  Tc  Tc12  1  0.37496811  0.19445209  1.00000000  1
  Tc  Tc13  1  0.18051602  0.80554791  0.80554791  1
  Tc  Tc14  1  0.37496811  0.00000000  0.19445209  1
  Tc  Tc15  1  0.19445209  0.37496811  0.00000000  1
  Tc  Tc16  1  0.00000000  0.37496811  0.19445209  1
  Tc  Tc17  1  0.80554791  0.18051602  0.80554791  1
  Tc  Tc18  1  0.80554791  0.80554791  0.18051602  1
  Tc  Tc19  1  0.00000000  0.19445209  0.37496811  1
  Tc  Tc20  1  0.19445209  0.00000000  0.37496811  1
  Tc  Tc21  1  0.62503189  0.62503189  0.81948398  1
  Tc  Tc22  1  0.81948398  0.62503189  0.62503189  1
  Tc  Tc23  1  0.62503189  0.81948398  0.62503189  1
loop_
_geom_bond_atom_site_label_1
_geom_bond_atom_site_label_2
_geom_bond_distance
_geom_bond_site_symmetry_2
In0 Tc23 2.973968 1_444
In0 Tc20 2.973969 1_555
In0 Tc21 2.973969 1_444
In0 Tc12 2.973969 1_554
In0 Tc14 2.973969 1_555
In0 Tc19 2.973969 1_555
In0 Tc18 2.973969 1_445
In0 Tc22 2.973969 1_444
In0 Tc15 2.973969 1_555
In0 Tc17 2.973969 1_454
In0 Tc13 2.973969 1_544
In0 Tc16 2.973969 1_555
In0 Ti3 3.058076 1_555
In0 Ti2 3.058076 1_444
In0 Ti0 3.058076 1_444
In0 Ti1 3.058076 1_445
Tc0 Tc15 2.499239 1_556
Tc0 Tc13 2.705571 1_555
Tc0 Tc14 2.705571 1_566
Tc0 Ti0 2.714709 1_555
Tc0 Tc9 2.778797 1_556
Tc0 Tc6 2.778797 1_555
Tc0 Tc18 2.825746 1_556
Tc0 Tc21 2.825746 1_555
Tc0 Tc4 2.859493 1_455
Tc0 Tc8 2.859494 1_556
Tc0 Tc10 2.859494 1_555
Tc0 Tc5 2.859494 1_556
Tc0 Ti1 3.157174 1_456
Tc1 Tc22 2.499239 1_555
Tc1 Tc12 2.705570 1_554
Tc1 Tc14 2.705570 1_555
Tc1 Ti0 2.714709 1_544
Tc1 Tc4 2.778797 1_555
Tc1 Tc7 2.778797 1_555
Tc1 Tc16 2.825746 1_655
Tc1 Tc19 2.825746 1_655
Tc1 Tc11 2.859494 1_555
Tc1 Tc3 2.859494 1_554
Tc1 Tc8 2.859494 1_545
Tc1 Tc9 2.859494 1_555
Tc1 Ti3 3.157174 1_555
Tc2 Tc20 2.499238 1_565
Tc2 Ti0 2.714708 1_555
Tc2 Tc5 2.778797 1_555
Tc2 Tc23 2.825746 1_555
Tc2 Tc7 2.859494 1_455
Tc2 Tc3 2.859494 1_565
Tc2 Tc6 2.859494 1_565
Tc2 Ti2 3.157174 1_455
Tc3 Ti1 2.714708 1_556
Tc3 Tc6 2.778797 1_555
Tc3 Tc9 2.778797 1_556
Tc3 Tc7 2.859494 1_556
Tc3 Ti0 3.157175 1_545
Tc4 Ti1 2.714709 1_556
Tc4 Tc8 2.859494 1_545
Tc4 Tc6 2.859494 1_655
Tc4 Ti2 3.157175 1_545
Tc5 Ti1 2.714708 1_455
Tc5 Tc8 2.778797 1_555
Tc5 Tc7 2.859494 1_455
Tc5 Tc9 2.859494 1_555
Tc5 Ti3 3.157175 1_555
Tc6 Ti2 2.714708 1_445
Tc6 Ti3 3.157174 1_555
Tc7 Ti2 2.714709 1_555
Tc7 Tc9 2.859494 1_555
Tc7 Ti1 3.157174 1_555
Tc8 Ti2 2.714708 1_555
Tc8 Tc9 2.859494 1_555
Tc8 Ti0 3.157174 1_554
Tc9 Ti3 2.714709 1_555
Tc9 Ti2 3.157174 1_555
Tc10 Tc13 2.499239 1_555
Tc10 Tc23 2.705570 1_555
Tc10 Tc21 2.705570 1_555
Tc10 Ti3 2.714709 1_555
Tc10 Tc4 2.778797 1_455
Tc10 Tc7 2.778797 1_455
Tc10 Tc16 2.825746 1_555
Tc10 Tc19 2.825746 1_555
Tc10 Tc5 2.859494 1_555
Tc10 Tc6 2.859494 1_555
Tc10 Tc2 2.859494 1_555
Tc10 Ti0 3.157174 1_555
Tc11 Tc17 2.499239 1_555
Tc11 Tc22 2.705571 1_555
Tc11 Tc21 2.705571 1_555
Tc11 Ti3 2.714709 1_555
Tc11 Tc2 2.778797 1_545
Tc11 Tc8 2.778797 1_545
Tc11 Tc20 2.825746 1_555
Tc11 Tc14 2.825746 1_555
Tc11 Tc3 2.859494 1_555
Tc11 Tc4 2.859494 1_555
Tc11 Tc6 2.859494 1_555
Tc11 Ti1 3.157174 1_556
Tc12 Tc15 2.433284 1_556
Tc12 Tc3 2.499238 1_555
Tc12 Tc14 2.621137 1_556
Tc12 Tc13 2.621137 1_545
Tc12 Tc2 2.705570 1_545
Tc12 Tc6 2.825746 1_555
Tc12 Tc9 2.825746 1_556
Tc12 Ti2 2.934916 1_445
Tc12 Ti3 2.934917 1_556
Tc12 Ti0 3.039778 1_545
Tc13 Tc22 2.433284 1_455
Tc13 Tc14 2.621137 1_566
Tc13 Tc2 2.705570 1_555
Tc13 Tc7 2.825746 1_455
Tc13 Tc4 2.825746 1_455
Tc13 Ti1 2.934917 1_456
Tc13 Ti2 2.934917 1_455
Tc13 Ti0 3.039778 1_555
Tc14 Tc20 2.433284 1_555
Tc14 Tc8 2.499238 1_545
Tc14 Tc5 2.825746 1_545
Tc14 Ti1 2.934917 1_445
Tc14 Ti3 2.934917 1_555
Tc14 Ti0 3.039778 1_544
Tc15 Tc17 2.621136 1_454
Tc15 Tc16 2.621137 1_555
Tc15 Tc4 2.705570 1_454
Tc15 Tc5 2.705570 1_555
Tc15 Tc9 2.825746 1_555
Tc15 Tc6 2.825746 1_554
Tc15 Ti3 2.934917 1_555
Tc15 Ti2 2.934917 1_444
Tc15 Ti1 3.039778 1_455
Tc16 Tc19 2.433284 1_555
Tc16 Tc7 2.499239 1_455
Tc16 Tc17 2.621137 1_454
Tc16 Tc5 2.705570 1_555
Tc16 Tc3 2.705570 1_454
Tc16 Ti0 2.934917 1_444
Tc16 Ti3 2.934917 1_555
Tc16 Ti1 3.039778 1_455
Tc17 Tc23 2.433284 1_545
Tc17 Tc4 2.705570 1_555
Tc17 Tc3 2.705571 1_555
Tc17 Tc2 2.825746 1_545
Tc17 Tc8 2.825746 1_545
Tc17 Ti0 2.934917 1_545
Tc17 Ti2 2.934917 1_545
Tc17 Ti1 3.039778 1_556
Tc18 Tc21 2.433284 1_554
Tc18 Tc9 2.499238 1_555
Tc18 Tc20 2.621136 1_665
Tc18 Tc19 2.621137 1_665
Tc18 Tc7 2.705571 1_555
Tc18 Tc8 2.705571 1_555
Tc18 Tc3 2.825746 1_554
Tc18 Ti1 2.934917 1_555
Tc18 Ti0 2.934917 1_554
Tc18 Ti2 3.039778 1_555
Tc19 Tc4 2.499238 1_455
Tc19 Tc20 2.621137 1_555
Tc19 Tc6 2.705570 1_555
Tc19 Tc8 2.705570 1_445
Tc19 Ti0 2.934916 1_444
Tc19 Ti3 2.934917 1_555
Tc19 Ti2 3.039778 1_445
Tc20 Tc6 2.705570 1_555
Tc20 Tc7 2.705571 1_445
Tc20 Tc5 2.825746 1_545
Tc20 Ti1 2.934917 1_445
Tc20 Ti3 2.934917 1_555
Tc20 Ti2 3.039778 1_445
Tc21 Tc6 2.499238 1_555
Tc21 Tc22 2.621137 1_555
Tc21 Tc23 2.621137 1_555
Tc21 Tc3 2.825746 1_555
Tc21 Ti1 2.934917 1_556
Tc21 Ti0 2.934917 1_555
Tc21 Ti3 3.039778 1_555
Tc22 Tc23 2.621137 1_555
Tc22 Tc9 2.705570 1_555
Tc22 Tc7 2.825746 1_555
Tc22 Tc4 2.825746 1_555
Tc22 Ti1 2.934917 1_556
Tc22 Ti2 2.934917 1_555
Tc22 Ti3 3.039778 1_555
Tc23 Tc5 2.499238 1_555
Tc23 Tc9 2.705570 1_555
Tc23 Tc8 2.825746 1_555
Tc23 Ti2 2.934917 1_555
Tc23 Ti0 2.934917 1_555
Tc23 Ti3 3.039778 1_555
