# generated using pymatgen
data_Ti2AlSiOs4
_symmetry_space_group_name_H-M   'P 1'
_cell_length_a   4.27849877
_cell_length_b   4.27919811
_cell_length_c   7.41294877
_cell_angle_alpha   73.18282166
_cell_angle_beta   90.00001100
_cell_angle_gamma   119.99457900
_symmetry_Int_Tables_number   1
_chemical_formula_structural   Ti2AlSiOs4
_chemical_formula_sum   'Ti2 Al1 Si1 Os4'
_cell_volume   110.79104986
_cell_formula_units_Z   1
loop_
 _symmetry_equiv_pos_site_id
 _symmetry_equiv_pos_as_xyz
  1  'x, y, z'
loop_
 _atom_site_type_symbol
 _atom_site_label
 _atom_site_symmetry_multiplicity
 _atom_site_fract_x
 _atom_site_fract_y
 _atom_site_fract_z
 _atom_site_occupancy
  Ti  Ti0  1  0.37567786  0.75135742  0.87300193  1
  Ti  Ti1  1  0.87432568  0.74864580  0.37699547  1
  Al  Al0  1  0.12499444  0.24998433  0.62501708  1
  Si  Si0  1  0.62500541  0.25001016  0.12498636  1
  Os  Os0  1  0.99826487  0.99653137  0.00480517  1
  Os  Os1  1  0.74849528  0.49699039  0.75480126  1
  Os  Os2  1  0.50150124  0.00299794  0.49521822  1
  Os  Os3  1  0.25174221  0.50348160  0.24517551  1
loop_
_geom_bond_atom_site_label_1
_geom_bond_atom_site_label_2
_geom_bond_distance
_geom_bond_site_symmetry_2
Al0 Os1 2.630520 1_445
Al0 Os2 2.630590 1_565
Al0 Os1 2.632182 1_555
Al0 Os1 2.632198 1_455
Al0 Os2 2.632208 1_555
Al0 Os2 2.632208 1_455
Al0 Os0 2.653615 1_446
Al0 Os3 2.653989 1_555
Os0 Ti1 2.600530 1_555
Os0 Si0 2.607954 1_555
Os0 Si0 2.609929 1_565
Os0 Si0 2.609937 1_665
Os0 Ti0 2.636244 1_654
Os0 Ti0 2.636244 1_554
Os0 Ti0 2.637094 1_664
Os1 Si0 2.586518 1_556
Os1 Ti0 2.604746 1_655
Os1 Ti0 2.604752 1_555
Os1 Ti0 2.605061 1_545
Os1 Ti1 2.639766 1_555
Os2 Si0 2.586845 1_555
Os2 Ti1 2.604796 1_445
Os2 Ti1 2.604799 1_545
Os2 Ti1 2.605110 1_555
Os2 Ti0 2.639612 1_545
Os3 Ti0 2.600413 1_554
Os3 Si0 2.607979 1_565
Os3 Si0 2.609944 1_555
Os3 Si0 2.609952 1_455
Os3 Ti1 2.636283 1_455
Os3 Ti1 2.636292 1_555
Os3 Ti1 2.637130 1_445
