# generated using pymatgen
data_CaAg3(NO3)8
_symmetry_space_group_name_H-M   'P 1'
_cell_length_a   7.77685995
_cell_length_b   7.77685995
_cell_length_c   7.77685995
_cell_angle_alpha   88.11138814
_cell_angle_beta   88.11138814
_cell_angle_gamma   88.11138814
_symmetry_Int_Tables_number   1
_chemical_formula_structural   CaAg3(NO3)8
_chemical_formula_sum   'Ca1 Ag3 N8 O24'
_cell_volume   469.59095504
_cell_formula_units_Z   1
loop_
 _symmetry_equiv_pos_site_id
 _symmetry_equiv_pos_as_xyz
  1  'x, y, z'
loop_
 _atom_site_type_symbol
 _atom_site_label
 _atom_site_symmetry_multiplicity
 _atom_site_fract_x
 _atom_site_fract_y
 _atom_site_fract_z
 _atom_site_occupancy
  Ca  Ca0  1  0.00000000  0.00000000  0.00000000  1
  Ag  Ag0  1  0.00000000  0.50000000  0.50000000  1
  Ag  Ag1  1  0.50000000  0.50000000  0.00000000  1
  Ag  Ag2  1  0.50000000  0.00000000  0.50000000  1
  N  N0  1  0.32865012  0.32865012  0.32865012  1
  N  N1  1  0.34465382  0.15369486  0.81048376  1
  N  N2  1  0.15369486  0.81048376  0.34465382  1
  N  N3  1  0.81048376  0.34465382  0.15369486  1
  N  N4  1  0.67134988  0.67134988  0.67134988  1
  N  N5  1  0.18951624  0.65534618  0.84630514  1
  N  N6  1  0.84630514  0.18951624  0.65534618  1
  N  N7  1  0.65534618  0.84630514  0.18951624  1
  O  O0  1  0.70425556  0.30533639  0.03850155  1
  O  O1  1  0.16958543  0.94247647  0.24904592  1
  O  O2  1  0.24225772  0.78074445  0.47124820  1
  O  O3  1  0.24904592  0.16958543  0.94247647  1
  O  O4  1  0.22178464  0.31219196  0.45233655  1
  O  O5  1  0.45233655  0.22178464  0.31219196  1
  O  O6  1  0.31219196  0.45233655  0.22178464  1
  O  O7  1  0.21925555  0.52875180  0.75774228  1
  O  O8  1  0.96149845  0.29574444  0.69466361  1
  O  O9  1  0.69466361  0.96149845  0.29574444  1
  O  O10  1  0.05752353  0.75095408  0.83041457  1
  O  O11  1  0.52875180  0.75774228  0.21925555  1
  O  O12  1  0.83041457  0.05752353  0.75095408  1
  O  O13  1  0.75774228  0.21925555  0.52875180  1
  O  O14  1  0.75095408  0.83041457  0.05752353  1
  O  O15  1  0.29574444  0.69466361  0.96149845  1
  O  O16  1  0.77821536  0.68780804  0.54766345  1
  O  O17  1  0.54766345  0.77821536  0.68780804  1
  O  O18  1  0.68780804  0.54766345  0.77821536  1
  O  O19  1  0.78074445  0.47124820  0.24225772  1
  O  O20  1  0.03850155  0.70425556  0.30533639  1
  O  O21  1  0.30533639  0.03850155  0.70425556  1
  O  O22  1  0.94247647  0.24904592  0.16958543  1
  O  O23  1  0.47124820  0.24225772  0.78074445  1
loop_
_geom_bond_atom_site_label_1
_geom_bond_atom_site_label_2
_geom_bond_distance
_geom_bond_site_symmetry_2
Ca0 O1 2.400627 1_545
Ca0 O22 2.400627 1_455
Ca0 O3 2.400627 1_554
Ca0 O10 2.400627 1_544
Ca0 O12 2.400627 1_454
Ca0 O14 2.400627 1_445
Ag0 O20 2.178912 1_555
Ag0 O8 2.178912 1_455
Ag0 O16 2.252336 1_455
Ag0 O4 2.252336 1_555
Ag0 O7 2.693529 1_555
Ag0 O19 2.693529 1_455
Ag1 O0 2.178912 1_555
Ag1 O15 2.178912 1_554
Ag1 O18 2.252336 1_554
Ag1 O6 2.252336 1_555
Ag1 O11 2.693529 1_555
Ag1 O23 2.693529 1_554
Ag2 O21 2.178912 1_555
Ag2 O9 2.178912 1_545
Ag2 O17 2.252336 1_545
Ag2 O5 2.252336 1_555
Ag2 O13 2.693529 1_555
Ag2 O2 2.693529 1_545
N0 O6 1.256389 1_555
N0 O4 1.256389 1_555
N0 O5 1.256389 1_555
N1 O23 1.231379 1_555
N1 O3 1.254506 1_555
N1 O21 1.289181 1_555
N2 O2 1.231379 1_555
N2 O1 1.254506 1_555
N2 O20 1.289181 1_555
N3 O19 1.231379 1_555
N3 O22 1.254506 1_555
N3 O0 1.289181 1_555
N4 O18 1.256389 1_555
N4 O16 1.256389 1_555
N4 O17 1.256389 1_555
N5 O7 1.231379 1_555
N5 O10 1.254506 1_555
N5 O15 1.289181 1_555
N6 O13 1.231379 1_555
N6 O12 1.254506 1_555
N6 O8 1.289181 1_555
N7 O11 1.231379 1_555
N7 O14 1.254506 1_555
N7 O9 1.289181 1_555
