# generated using pymatgen
data_NbFeO4
_symmetry_space_group_name_H-M   'P 1'
_cell_length_a   5.69343500
_cell_length_b   4.71376600
_cell_length_c   10.16067205
_cell_angle_alpha   89.73698599
_cell_angle_beta   90.00000000
_cell_angle_gamma   90.00000000
_symmetry_Int_Tables_number   1
_chemical_formula_structural   NbFeO4
_chemical_formula_sum   'Nb4 Fe4 O16'
_cell_volume   272.68436971
_cell_formula_units_Z   4
loop_
 _symmetry_equiv_pos_site_id
 _symmetry_equiv_pos_as_xyz
  1  'x, y, z'
loop_
 _atom_site_type_symbol
 _atom_site_label
 _atom_site_symmetry_multiplicity
 _atom_site_fract_x
 _atom_site_fract_y
 _atom_site_fract_z
 _atom_site_occupancy
  Nb  Nb0  1  0.83131500  0.99488100  0.75520100  1
  Nb  Nb1  1  0.65910200  0.50000000  0.50000000  1
  Nb  Nb2  1  0.18875900  0.00000000  0.00000000  1
  Nb  Nb3  1  0.83131500  0.00511900  0.24479900  1
  Fe  Fe0  1  0.65933000  0.50000000  0.00000000  1
  Fe  Fe1  1  0.32562700  0.49772000  0.25458500  1
  Fe  Fe2  1  0.32562700  0.50228000  0.74541500  1
  Fe  Fe3  1  0.17317100  0.00000000  0.50000000  1
  O  O0  1  0.88573400  0.77275100  0.91527500  1
  O  O1  1  0.11582200  0.77360300  0.16168400  1
  O  O2  1  0.87938900  0.76666400  0.41430100  1
  O  O3  1  0.11054200  0.78275100  0.66775000  1
  O  O4  1  0.38483200  0.72955800  0.91557700  1
  O  O5  1  0.62193600  0.72923600  0.16616600  1
  O  O6  1  0.38902800  0.72176500  0.41645400  1
  O  O7  1  0.61559400  0.73338600  0.66586700  1
  O  O8  1  0.38483200  0.27044200  0.08442300  1
  O  O9  1  0.61559400  0.26661400  0.33413300  1
  O  O10  1  0.38902800  0.27823500  0.58354600  1
  O  O11  1  0.62193600  0.27076400  0.83383400  1
  O  O12  1  0.88573400  0.22724900  0.08472500  1
  O  O13  1  0.11054200  0.21724900  0.33225000  1
  O  O14  1  0.87938900  0.23333600  0.58569900  1
  O  O15  1  0.11582200  0.22639700  0.83831600  1
loop_
_geom_bond_atom_site_label_1
_geom_bond_atom_site_label_2
_geom_bond_distance
_geom_bond_site_symmetry_2
Nb0 O11 1.939102 1_565
Nb0 O0 1.955015 1_555
Nb0 O7 1.965199 1_555
Nb0 O14 2.070441 1_565
Nb0 O3 2.079639 1_655
Nb0 O15 2.129891 1_665
Nb1 O14 1.975144 1_555
Nb1 O2 1.975144 1_555
Nb1 O7 2.031986 1_555
Nb1 O9 2.031986 1_555
Nb1 O6 2.041953 1_555
Nb1 O10 2.041953 1_555
Nb2 O8 1.901882 1_555
Nb2 O4 1.901882 1_544
Nb2 O15 1.998519 1_554
Nb2 O1 1.998519 1_545
Nb2 O12 2.207604 1_455
Nb2 O0 2.207604 1_444
Nb3 O5 1.939102 1_545
Nb3 O12 1.955015 1_555
Nb3 O9 1.965199 1_555
Nb3 O2 2.070441 1_545
Nb3 O13 2.079639 1_655
Nb3 O1 2.129891 1_645
Fe0 O0 2.011336 1_554
Fe0 O12 2.011336 1_555
Fe0 O5 2.019963 1_555
Fe0 O11 2.019963 1_554
Fe0 O4 2.083423 1_554
Fe0 O8 2.083423 1_555
Fe1 O13 1.964842 1_555
Fe1 O6 1.991636 1_555
Fe1 O1 1.999442 1_555
Fe1 O8 2.065839 1_555
Fe1 O9 2.134818 1_555
Fe1 O5 2.198886 1_555
Fe2 O3 1.964842 1_555
Fe2 O10 1.991636 1_555
Fe2 O15 1.999442 1_555
Fe2 O4 2.065839 1_555
Fe2 O7 2.134818 1_555
Fe2 O11 2.198886 1_555
Fe3 O6 1.990304 1_545
Fe3 O10 1.990304 1_555
Fe3 O13 2.016180 1_555
Fe3 O3 2.016180 1_545
Fe3 O14 2.185054 1_455
Fe3 O2 2.185054 1_445
