# generated using pymatgen
data_Tb5AgS8
_symmetry_space_group_name_H-M   'P 1'
_cell_length_a   7.24185540
_cell_length_b   7.24185540
_cell_length_c   7.24185540
_cell_angle_alpha   109.63077641
_cell_angle_beta   109.63077641
_cell_angle_gamma   109.15257820
_symmetry_Int_Tables_number   1
_chemical_formula_structural   Tb5AgS8
_chemical_formula_sum   'Tb5 Ag1 S8'
_cell_volume   292.35975435
_cell_formula_units_Z   1
loop_
 _symmetry_equiv_pos_site_id
 _symmetry_equiv_pos_as_xyz
  1  'x, y, z'
loop_
 _atom_site_type_symbol
 _atom_site_label
 _atom_site_symmetry_multiplicity
 _atom_site_fract_x
 _atom_site_fract_y
 _atom_site_fract_z
 _atom_site_occupancy
  Tb  Tb0  1  0.37867200  0.76465800  0.88111800  1
  Tb  Tb1  1  0.50244700  0.62132800  0.38598600  1
  Tb  Tb2  1  0.88354000  0.49755300  0.11888200  1
  Tb  Tb3  1  0.75000000  0.25000000  0.50000000  1
  Tb  Tb4  1  0.23534200  0.11646000  0.61401400  1
  Ag  Ag0  1  0.00000000  0.00000000  0.00000000  1
  S  S0  1  0.27158900  0.87974100  0.25216600  1
  S  S1  1  0.75735400  0.86829800  0.25929900  1
  S  S2  1  0.13170200  0.39100100  0.88905600  1
  S  S3  1  0.98057700  0.72841100  0.60815200  1
  S  S4  1  0.12025900  0.37242500  0.39184800  1
  S  S5  1  0.60899900  0.49805400  0.74070100  1
  S  S6  1  0.50194600  0.24264600  0.11094400  1
  S  S7  1  0.62757500  0.01942300  0.74783400  1
loop_
_geom_bond_atom_site_label_1
_geom_bond_atom_site_label_2
_geom_bond_distance
_geom_bond_site_symmetry_2
Ag0 S0 2.782241 1_545
Ag0 S3 2.782241 1_444
Ag0 S7 2.782241 1_454
Ag0 S4 2.782241 1_555
Ag0 S2 3.137577 1_554
Ag0 S1 3.137577 1_445
Ag0 S5 3.137582 1_444
Ag0 S6 3.137584 1_555
S0 Tb4 2.759260 1_565
S0 Tb2 2.787130 1_455
S0 Tb0 2.972508 1_554
S0 Tb3 2.984451 1_565
S0 Tb1 3.069069 1_555
S1 Tb1 2.742683 1_555
S1 Tb3 2.757482 1_565
S1 Tb0 2.793977 1_554
S1 Tb4 2.941445 1_665
S1 Tb2 3.078559 1_555
S2 Tb0 2.742687 1_555
S2 Tb3 2.757482 1_455
S2 Tb4 2.793977 1_555
S2 Tb2 2.941443 1_456
S2 Tb1 3.078555 1_556
S3 Tb0 2.759260 1_655
S3 Tb4 2.787126 1_665
S3 Tb1 2.972502 1_555
S3 Tb3 2.984451 1_555
S3 Tb2 3.069065 1_555
S4 Tb2 2.759254 1_455
S4 Tb1 2.787131 1_555
S4 Tb4 2.972508 1_555
S4 Tb3 2.984451 1_455
S4 Tb0 3.069065 1_555
S5 Tb4 2.742683 1_555
S5 Tb3 2.757478 1_555
S5 Tb2 2.793977 1_556
S5 Tb1 2.941449 1_555
S5 Tb0 3.078558 1_555
S6 Tb2 2.742679 1_555
S6 Tb3 2.757479 1_555
S6 Tb1 2.793977 1_555
S6 Tb0 2.941443 1_544
S6 Tb4 3.078554 1_554
S7 Tb1 2.759262 1_545
S7 Tb0 2.787126 1_545
S7 Tb2 2.972503 1_556
S7 Tb3 2.984451 1_555
S7 Tb4 3.069065 1_555
