# generated using pymatgen
data_USO
_symmetry_space_group_name_H-M   'P 1'
_cell_length_a   3.83489513
_cell_length_b   3.83489513
_cell_length_c   6.75387456
_cell_angle_alpha   90.00000000
_cell_angle_beta   90.00000000
_cell_angle_gamma   90.00000000
_symmetry_Int_Tables_number   1
_chemical_formula_structural   USO
_chemical_formula_sum   'U2 S2 O2'
_cell_volume   99.32532035
_cell_formula_units_Z   2
loop_
 _symmetry_equiv_pos_site_id
 _symmetry_equiv_pos_as_xyz
  1  'x, y, z'
loop_
 _atom_site_type_symbol
 _atom_site_label
 _atom_site_symmetry_multiplicity
 _atom_site_fract_x
 _atom_site_fract_y
 _atom_site_fract_z
 _atom_site_occupancy
  U  U0  1  -0.00000000  0.50000000  0.79983375  1
  U  U1  1  0.50000000  0.00000000  0.20016625  1
  S  S0  1  0.50000000  -0.00000000  0.63781925  1
  S  S1  1  0.00000000  0.50000000  0.36218075  1
  O  O0  1  0.00000000  -0.00000000  -0.00000000  1
  O  O1  1  0.50000000  0.50000000  -0.00000000  1
loop_
_geom_bond_atom_site_label_1
_geom_bond_atom_site_label_2
_geom_bond_distance
_geom_bond_site_symmetry_2
S0 U0 2.924131 1_645
S0 U0 2.924131 1_545
S0 U0 2.924131 1_655
S0 U0 2.924131 1_555
S0 U1 2.955853 1_555
S1 U1 2.924131 1_465
S1 U1 2.924131 1_455
S1 U1 2.924131 1_555
S1 U1 2.924131 1_565
S1 U0 2.955853 1_555
O0 U0 2.346110 1_544
O0 U1 2.346110 1_455
O0 U0 2.346110 1_554
O0 U1 2.346110 1_555
O1 U0 2.346110 1_554
O1 U1 2.346110 1_555
O1 U1 2.346110 1_565
O1 U0 2.346110 1_654
