# generated using pymatgen
data_Hf(Ti5Bi6)3
_symmetry_space_group_name_H-M   'P 1'
_cell_length_a   10.29458699
_cell_length_b   10.29458699
_cell_length_c   7.43917086
_cell_angle_alpha   90.00000000
_cell_angle_beta   90.00000000
_cell_angle_gamma   90.00000000
_symmetry_Int_Tables_number   1
_chemical_formula_structural   Hf(Ti5Bi6)3
_chemical_formula_sum   'Hf1 Ti15 Bi18'
_cell_volume   788.39232632
_cell_formula_units_Z   1
loop_
 _symmetry_equiv_pos_site_id
 _symmetry_equiv_pos_as_xyz
  1  'x, y, z'
loop_
 _atom_site_type_symbol
 _atom_site_label
 _atom_site_symmetry_multiplicity
 _atom_site_fract_x
 _atom_site_fract_y
 _atom_site_fract_z
 _atom_site_occupancy
  Hf  Hf0  1  0.25000000  0.25000000  0.08148369  1
  Ti  Ti0  1  0.00062227  0.00062227  0.00021013  1
  Ti  Ti1  1  0.49937773  0.00062227  0.00021013  1
  Ti  Ti2  1  0.00062227  0.49937773  0.00021013  1
  Ti  Ti3  1  0.49937773  0.49937773  0.00021013  1
  Ti  Ti4  1  0.60685337  0.25000000  0.15033606  1
  Ti  Ti5  1  0.89314663  0.25000000  0.15033606  1
  Ti  Ti6  1  0.25000000  0.60685337  0.15033606  1
  Ti  Ti7  1  0.25000000  0.89314663  0.15033606  1
  Ti  Ti8  1  0.75000000  0.75000000  0.42376645  1
  Ti  Ti9  1  0.25000000  0.25000000  0.57187666  1
  Ti  Ti10  1  0.75000000  0.10841451  0.84956882  1
  Ti  Ti11  1  0.75000000  0.39158549  0.84956882  1
  Ti  Ti12  1  0.10841451  0.75000000  0.84956882  1
  Ti  Ti13  1  0.39158549  0.75000000  0.84956882  1
  Ti  Ti14  1  0.75000000  0.75000000  0.92164866  1
  Bi  Bi0  1  0.75000000  0.51328457  0.18992064  1
  Bi  Bi1  1  0.51328457  0.75000000  0.18992064  1
  Bi  Bi2  1  0.98671543  0.75000000  0.18992064  1
  Bi  Bi3  1  0.75000000  0.98671543  0.18992064  1
  Bi  Bi4  1  0.08281323  0.08281323  0.34956301  1
  Bi  Bi5  1  0.41718677  0.08281323  0.34956301  1
  Bi  Bi6  1  0.08281323  0.41718677  0.34956301  1
  Bi  Bi7  1  0.41718677  0.41718677  0.34956301  1
  Bi  Bi8  1  0.75000000  0.25000000  0.49794904  1
  Bi  Bi9  1  0.25000000  0.75000000  0.49794904  1
  Bi  Bi10  1  0.58601663  0.58601663  0.65510954  1
  Bi  Bi11  1  0.91398337  0.58601663  0.65510954  1
  Bi  Bi12  1  0.58601663  0.91398337  0.65510954  1
  Bi  Bi13  1  0.91398337  0.91398337  0.65510954  1
  Bi  Bi14  1  0.25000000  0.01158410  0.80662266  1
  Bi  Bi15  1  0.01158410  0.25000000  0.80662266  1
  Bi  Bi16  1  0.48841690  0.25000000  0.80662266  1
  Bi  Bi17  1  0.25000000  0.48841690  0.80662266  1
loop_
_geom_bond_atom_site_label_1
_geom_bond_atom_site_label_2
_geom_bond_distance
_geom_bond_site_symmetry_2
Bi0 Ti11 2.824944 1_554
Bi0 Ti2 2.944300 1_655
Bi0 Ti3 2.944300 1_555
Bi0 Ti8 2.994110 1_555
Bi0 Ti5 3.099132 1_555
Bi0 Ti4 3.099132 1_555
Bi0 Ti14 3.149813 1_554
Bi1 Ti13 2.824944 1_554
Bi1 Ti1 2.944300 1_565
Bi1 Ti3 2.944300 1_555
Bi1 Ti8 2.994110 1_555
Bi1 Ti7 3.099132 1_555
Bi1 Ti6 3.099132 1_555
Bi1 Ti14 3.149813 1_554
Bi2 Ti12 2.824944 1_654
Bi2 Ti0 2.944300 1_665
Bi2 Ti2 2.944300 1_655
Bi2 Ti8 2.994110 1_555
Bi2 Ti7 3.099132 1_655
Bi2 Ti6 3.099132 1_655
Bi2 Ti14 3.149813 1_554
Bi3 Ti10 2.824944 1_564
Bi3 Ti0 2.944300 1_665
Bi3 Ti1 2.944300 1_565
Bi3 Ti8 2.994110 1_555
Bi3 Ti5 3.099132 1_565
Bi3 Ti4 3.099132 1_565
Bi3 Ti14 3.149813 1_554
Bi4 Ti0 2.861137 1_555
Bi4 Ti9 2.942728 1_555
Bi4 Ti5 2.995201 1_455
Bi4 Ti7 2.995201 1_545
Bi4 Hf0 3.146694 1_555
Bi5 Ti1 2.861137 1_555
Bi5 Ti9 2.942728 1_555
Bi5 Ti7 2.995201 1_545
Bi5 Ti4 2.995201 1_555
Bi5 Hf0 3.146694 1_555
Bi6 Ti2 2.861137 1_555
Bi6 Ti9 2.942728 1_555
Bi6 Ti5 2.995201 1_455
Bi6 Ti6 2.995201 1_555
Bi6 Hf0 3.146694 1_555
Bi7 Ti3 2.861137 1_555
Bi7 Ti9 2.942728 1_555
Bi7 Ti4 2.995201 1_555
Bi7 Ti6 2.995201 1_555
Bi7 Hf0 3.146694 1_555
Bi8 Ti5 2.976365 1_555
Bi8 Ti4 2.976365 1_555
Bi8 Ti11 2.994443 1_555
Bi8 Ti10 2.994443 1_555
Bi9 Ti7 2.976365 1_555
Bi9 Ti6 2.976365 1_555
Bi9 Ti13 2.994443 1_555
Bi9 Ti12 2.994443 1_555
Bi10 Ti3 2.860393 1_556
Bi10 Ti8 2.943040 1_555
Bi10 Ti11 2.991467 1_555
Bi10 Ti13 2.991467 1_555
Bi10 Ti14 3.103426 1_555
Bi11 Ti2 2.860393 1_656
Bi11 Ti8 2.943040 1_555
Bi11 Ti11 2.991467 1_555
Bi11 Ti12 2.991467 1_655
Bi11 Ti14 3.103426 1_555
Bi12 Ti1 2.860393 1_566
Bi12 Ti8 2.943040 1_555
Bi12 Ti13 2.991467 1_555
Bi12 Ti10 2.991467 1_565
Bi12 Ti14 3.103426 1_555
Bi13 Ti0 2.860393 1_666
Bi13 Ti8 2.943040 1_555
Bi13 Ti12 2.991467 1_655
Bi13 Ti10 2.991467 1_565
Bi13 Ti14 3.103426 1_555
Bi14 Ti7 2.832766 1_546
Bi14 Ti1 2.945749 1_556
Bi14 Ti0 2.945749 1_556
Bi14 Ti9 3.012252 1_555
Bi14 Ti13 3.078681 1_545
Bi14 Ti12 3.078681 1_545
Bi14 Hf0 3.194527 1_556
Bi15 Ti5 2.832766 1_456
Bi15 Ti2 2.945749 1_556
Bi15 Ti0 2.945749 1_556
Bi15 Ti9 3.012252 1_555
Bi15 Ti11 3.078681 1_455
Bi15 Ti10 3.078681 1_455
Bi15 Hf0 3.194527 1_556
Bi16 Ti4 2.832761 1_556
Bi16 Ti3 2.945748 1_556
Bi16 Ti1 2.945748 1_556
Bi16 Ti9 3.012261 1_555
Bi16 Ti11 3.078672 1_555
Bi16 Ti10 3.078672 1_555
Bi16 Hf0 3.194535 1_556
Bi17 Ti6 2.832761 1_556
Bi17 Ti3 2.945748 1_556
Bi17 Ti2 2.945748 1_556
Bi17 Ti9 3.012261 1_555
Bi17 Ti13 3.078672 1_555
Bi17 Ti12 3.078672 1_555
Bi17 Hf0 3.194535 1_556
