# generated using pymatgen
data_HfTa7(VSi3)2
_symmetry_space_group_name_H-M   'P 1'
_cell_length_a   7.52421204
_cell_length_b   7.52421159
_cell_length_c   7.54755233
_cell_angle_alpha   129.66872441
_cell_angle_beta   129.66872176
_cell_angle_gamma   74.03383282
_symmetry_Int_Tables_number   1
_chemical_formula_structural   HfTa7(VSi3)2
_chemical_formula_sum   'Hf1 Ta7 V2 Si6'
_cell_volume   246.77411663
_cell_formula_units_Z   1
loop_
 _symmetry_equiv_pos_site_id
 _symmetry_equiv_pos_as_xyz
  1  'x, y, z'
loop_
 _atom_site_type_symbol
 _atom_site_label
 _atom_site_symmetry_multiplicity
 _atom_site_fract_x
 _atom_site_fract_y
 _atom_site_fract_z
 _atom_site_occupancy
  Hf  Hf0  1  0.01271866  0.51271866  0.82787359  1
  Ta  Ta0  1  0.68305129  0.18305129  0.16207299  1
  Ta  Ta1  1  0.51584264  0.68580687  0.50045106  1
  Ta  Ta2  1  0.18580687  0.01584264  0.50045106  1
  Ta  Ta3  1  0.98443920  0.48443920  0.17324815  1
  Ta  Ta4  1  0.31508936  0.81508936  0.83316158  1
  Ta  Ta5  1  0.48385345  0.31525182  0.50042172  1
  Ta  Ta6  1  0.81525182  0.98385345  0.50042172  1
  V  V0  1  0.00262188  0.00351612  0.00022252  1
  V  V1  1  0.50351612  0.50262188  0.00022252  1
  Si  Si0  1  0.74701162  0.75018715  0.00175272  1
  Si  Si1  1  0.25018715  0.24701162  0.00175272  1
  Si  Si2  1  0.63319099  0.13319099  0.76455994  1
  Si  Si3  1  0.36829917  0.86829917  0.23583578  1
  Si  Si4  1  0.13308909  0.36603070  0.49877697  1
  Si  Si5  1  0.86603070  0.63308909  0.49877697  1
loop_
_geom_bond_atom_site_label_1
_geom_bond_atom_site_label_2
_geom_bond_distance
_geom_bond_site_symmetry_2
Hf0 Si3 2.588460 1_556
Hf0 Si4 2.651454 1_555
Hf0 Si5 2.651454 1_455
Hf0 Si1 2.702327 1_556
Hf0 Si0 2.702327 1_456
Si0 Ta4 2.657065 1_554
Si0 Ta6 2.664891 1_555
Si0 Ta5 2.671720 1_554
Si0 Ta0 2.674556 1_565
Si0 Ta2 2.687557 1_665
Si0 Ta3 2.692949 1_555
Si0 Ta1 2.701342 1_554
Si0 V1 2.941011 1_555
Si0 V0 3.066846 1_665
Si1 Ta4 2.657065 1_544
Si1 Ta5 2.664891 1_555
Si1 Ta6 2.671720 1_444
Si1 Ta0 2.674557 1_555
Si1 Ta1 2.687557 1_555
Si1 Ta3 2.692949 1_455
Si1 Ta2 2.701341 1_554
Si1 V0 2.941011 1_555
Si1 V1 3.066846 1_555
Si2 Si3 2.397142 1_545
Si2 V1 2.500742 1_556
Si2 V0 2.500743 1_656
Si2 Ta0 2.546840 1_556
Si2 Ta3 2.551687 1_556
Si2 Ta5 2.625532 1_555
Si2 Ta6 2.625532 1_545
Si2 Ta1 2.627894 1_545
Si2 Ta2 2.627894 1_555
Si3 V1 2.508182 1_555
Si3 V0 2.508182 1_565
Si3 Ta4 2.557070 1_554
Si3 Ta5 2.621316 1_565
Si3 Ta6 2.621317 1_555
Si3 Ta1 2.634114 1_555
Si3 Ta2 2.634114 1_565
Si4 Si5 2.419526 1_455
Si4 V0 2.493248 1_555
Si4 V1 2.508197 1_556
Si4 Ta5 2.553649 1_555
Si4 Ta2 2.561496 1_555
Si4 Ta3 2.611392 1_455
Si4 Ta4 2.628185 1_555
Si4 Ta0 2.632764 1_455
Si5 V1 2.493248 1_555
Si5 V0 2.508197 1_666
Si5 Ta6 2.553649 1_555
Si5 Ta1 2.561497 1_555
Si5 Ta3 2.611392 1_555
Si5 Ta4 2.628186 1_655
Si5 Ta0 2.632764 1_555
