# generated using pymatgen
data_SrNi2(Sb6Os)2
_symmetry_space_group_name_H-M   'P 1'
_cell_length_a   8.07769051
_cell_length_b   8.07926327
_cell_length_c   8.07926515
_cell_angle_alpha   109.34100038
_cell_angle_beta   109.55548305
_cell_angle_gamma   109.52518174
_symmetry_Int_Tables_number   1
_chemical_formula_structural   SrNi2(Sb6Os)2
_chemical_formula_sum   'Sr1 Ni2 Sb12 Os2'
_cell_volume   405.84920679
_cell_formula_units_Z   1
loop_
 _symmetry_equiv_pos_site_id
 _symmetry_equiv_pos_as_xyz
  1  'x, y, z'
loop_
 _atom_site_type_symbol
 _atom_site_label
 _atom_site_symmetry_multiplicity
 _atom_site_fract_x
 _atom_site_fract_y
 _atom_site_fract_z
 _atom_site_occupancy
  Sr  Sr0  1  0.00000000  0.00000000  0.00000000  1
  Ni  Ni0  1  0.50000000  0.50000000  0.50000000  1
  Ni  Ni1  1  0.50000000  0.00000000  0.00000000  1
  Sb  Sb0  1  0.83830032  0.65698738  0.50046184  1
  Sb  Sb1  1  0.16169968  0.34301262  0.49953816  1
  Sb  Sb2  1  0.16169968  0.66216152  0.81868706  1
  Sb  Sb3  1  0.83830032  0.33783848  0.18131294  1
  Sb  Sb4  1  0.65705629  0.50176174  0.83867457  1
  Sb  Sb5  1  0.34294371  0.49823826  0.16132543  1
  Sb  Sb6  1  0.65705629  0.81838273  0.15529456  1
  Sb  Sb7  1  0.34294371  0.18161727  0.84470544  1
  Sb  Sb8  1  0.50164851  0.84061901  0.66102950  1
  Sb  Sb9  1  0.49835149  0.15938099  0.33897050  1
  Sb  Sb10  1  0.18588203  0.84425793  0.34162510  1
  Sb  Sb11  1  0.81411797  0.15574207  0.65837490  1
  Os  Os0  1  0.00000000  0.50000000  0.00000000  1
  Os  Os1  1  0.00000000  0.00000000  0.50000000  1
loop_
_geom_bond_atom_site_label_1
_geom_bond_atom_site_label_2
_geom_bond_distance
_geom_bond_site_symmetry_2
Ni0 Sb4 2.595184 1_555
Ni0 Sb5 2.595184 1_555
Ni0 Sb0 2.597981 1_555
Ni0 Sb1 2.597981 1_555
Ni0 Sb8 2.618856 1_555
Ni0 Sb9 2.618856 1_555
Ni1 Sb6 2.595177 1_545
Ni1 Sb7 2.595177 1_554
Ni1 Sb3 2.597981 1_555
Ni1 Sb2 2.597981 1_544
Ni1 Sb9 2.618857 1_555
Ni1 Sb8 2.618857 1_544
Sb0 Sb2 2.965766 1_655
Sb0 Sb3 2.982165 1_555
Sb0 Sr0 3.509637 1_666
Sb1 Sb3 2.965766 1_455
Sb1 Sb2 2.982165 1_555
Sb1 Sr0 3.509637 1_555
Sb2 Sr0 3.509637 1_566
Sb3 Sr0 3.509637 1_655
Sb4 Sb6 2.958539 1_556
Sb4 Sb7 2.984930 1_555
Sb4 Sr0 3.497192 1_666
Sb5 Sb7 2.958539 1_554
Sb5 Sb6 2.984930 1_555
Sb5 Sr0 3.497192 1_555
Sb6 Sr0 3.497190 1_665
Sb7 Sr0 3.497190 1_556
Sb8 Sr0 3.490289 1_666
Sb9 Sr0 3.490289 1_555
Sb10 Sb9 2.937696 1_565
Sb10 Sb8 2.976584 1_555
Sb10 Sr0 3.499255 1_565
Sb11 Sb8 2.937696 1_545
Sb11 Sb9 2.976584 1_555
Sb11 Sr0 3.499255 1_656
Os0 Sb10 2.637737 1_555
Os0 Sb11 2.637737 1_454
Os0 Sb3 2.641332 1_455
Os0 Sb2 2.641332 1_554
Os0 Sb4 2.644719 1_454
Os0 Sb5 2.644719 1_555
Os1 Sb11 2.637729 1_455
Os1 Sb10 2.637729 1_545
Os1 Sb1 2.641331 1_555
Os1 Sb0 2.641331 1_445
Os1 Sb7 2.644720 1_555
Os1 Sb6 2.644720 1_445
