# generated using pymatgen
data_Cs2Li2GeS4
_symmetry_space_group_name_H-M   'P 1'
_cell_length_a   12.57346903
_cell_length_b   12.57346895
_cell_length_c   5.90662030
_cell_angle_alpha   83.27111826
_cell_angle_beta   83.27112101
_cell_angle_gamma   144.56864230
_symmetry_Int_Tables_number   1
_chemical_formula_structural   Cs2Li2GeS4
_chemical_formula_sum   'Cs4 Li4 Ge2 S8'
_cell_volume   499.60138578
_cell_formula_units_Z   2
loop_
 _symmetry_equiv_pos_site_id
 _symmetry_equiv_pos_as_xyz
  1  'x, y, z'
loop_
 _atom_site_type_symbol
 _atom_site_label
 _atom_site_symmetry_multiplicity
 _atom_site_fract_x
 _atom_site_fract_y
 _atom_site_fract_z
 _atom_site_occupancy
  Cs  Cs0  1  0.80057315  0.19942685  0.75000000  1
  Cs  Cs1  1  0.06062643  0.93937357  0.75000000  1
  Cs  Cs2  1  0.19942685  0.80057315  0.25000000  1
  Cs  Cs3  1  0.93937357  0.06062643  0.25000000  1
  Li  Li0  1  0.62650098  0.37349902  0.25000000  1
  Li  Li1  1  0.50566773  0.49433227  0.25000000  1
  Li  Li2  1  0.49433227  0.50566773  0.75000000  1
  Li  Li3  1  0.37349902  0.62650098  0.75000000  1
  Ge  Ge0  1  0.37874127  0.62125873  0.25000000  1
  Ge  Ge1  1  0.62125873  0.37874127  0.75000000  1
  S  S0  1  0.51187143  0.85533538  0.37433003  1
  S  S1  1  0.73917862  0.61118930  0.43717451  1
  S  S2  1  0.26082138  0.38881070  0.56282549  1
  S  S3  1  0.48812857  0.14466462  0.62566997  1
  S  S4  1  0.38881070  0.26082138  0.06282549  1
  S  S5  1  0.14466462  0.48812857  0.12566997  1
  S  S6  1  0.85533538  0.51187143  0.87433003  1
  S  S7  1  0.61118930  0.73917862  0.93717451  1
loop_
_geom_bond_atom_site_label_1
_geom_bond_atom_site_label_2
_geom_bond_distance
_geom_bond_site_symmetry_2
Cs0 S3 3.582329 1_555
Cs0 S6 3.582329 1_555
Cs0 S0 3.609014 1_546
Cs0 S5 3.609014 1_655
Cs0 S5 3.919532 1_656
Cs0 S0 3.919532 1_545
Cs0 S7 3.976011 1_545
Cs0 S2 3.976011 1_655
Cs1 S6 3.480678 1_455
Cs1 S3 3.480678 1_565
Cs1 S4 3.624260 1_566
Cs1 S1 3.624260 1_455
Cs1 S2 3.767679 1_565
Cs1 S7 3.767680 1_455
Cs1 S1 3.858692 1_456
Cs1 S4 3.858692 1_565
Cs2 S0 3.582329 1_555
Cs2 S5 3.582329 1_555
Cs2 S3 3.609014 1_564
Cs2 S6 3.609014 1_455
Cs2 S6 3.919532 1_454
Cs2 S3 3.919532 1_565
Cs2 S4 3.976011 1_565
Cs2 S1 3.976011 1_455
Cs3 S5 3.480678 1_655
Cs3 S0 3.480678 1_545
Cs3 S7 3.624260 1_544
Cs3 S2 3.624260 1_655
Cs3 S1 3.767679 1_545
Cs3 S4 3.767680 1_655
Cs3 S2 3.858692 1_654
Cs3 S7 3.858692 1_545
Li0 S3 2.381314 1_555
Li0 S6 2.381314 1_554
Li0 S4 2.530322 1_555
Li0 S1 2.530322 1_555
Li1 S7 2.467435 1_554
Li1 S2 2.467435 1_555
Li1 S1 2.472397 1_555
Li1 S4 2.472397 1_555
Li2 S4 2.467435 1_556
Li2 S1 2.467435 1_555
Li2 S2 2.472397 1_555
Li2 S7 2.472397 1_555
Li3 S0 2.381314 1_555
Li3 S5 2.381314 1_556
Li3 S7 2.530322 1_555
Li3 S2 2.530322 1_555
Ge0 S5 2.183931 1_555
Ge0 S0 2.183931 1_555
Ge0 S2 2.277112 1_555
Ge0 S7 2.277112 1_554
Ge1 S6 2.183931 1_555
Ge1 S3 2.183931 1_555
Ge1 S1 2.277112 1_555
Ge1 S4 2.277112 1_556
