# generated using pymatgen
data_K8Hf6BCl20
_symmetry_space_group_name_H-M   'P 1'
_cell_length_a   10.92943372
_cell_length_b   10.92943402
_cell_length_c   10.92943327
_cell_angle_alpha   59.99999940
_cell_angle_beta   59.99999848
_cell_angle_gamma   59.99999990
_symmetry_Int_Tables_number   1
_chemical_formula_structural   K8Hf6BCl20
_chemical_formula_sum   'K8 Hf6 B1 Cl20'
_cell_volume   923.16211014
_cell_formula_units_Z   1
loop_
 _symmetry_equiv_pos_site_id
 _symmetry_equiv_pos_as_xyz
  1  'x, y, z'
loop_
 _atom_site_type_symbol
 _atom_site_label
 _atom_site_symmetry_multiplicity
 _atom_site_fract_x
 _atom_site_fract_y
 _atom_site_fract_z
 _atom_site_occupancy
  K  K0  1  0.07961760  0.64012747  0.64012747  1
  K  K1  1  0.64012747  0.07961760  0.64012747  1
  K  K2  1  0.64012747  0.64012747  0.07961760  1
  K  K3  1  0.64012747  0.64012747  0.64012747  1
  K  K4  1  0.35987253  0.92038240  0.35987253  1
  K  K5  1  0.92038240  0.35987253  0.35987253  1
  K  K6  1  0.35987253  0.35987253  0.92038240  1
  K  K7  1  0.35987253  0.35987253  0.35987253  1
  Hf  Hf0  1  0.85526579  0.85526579  0.14473421  1
  Hf  Hf1  1  0.85526579  0.14473421  0.85526579  1
  Hf  Hf2  1  0.14473421  0.14473421  0.85526579  1
  Hf  Hf3  1  0.14473421  0.85526579  0.14473421  1
  Hf  Hf4  1  0.14473421  0.85526579  0.85526579  1
  Hf  Hf5  1  0.85526579  0.14473421  0.14473421  1
  B  B0  1  0.00000000  0.00000000  0.00000000  1
  Cl  Cl0  1  0.67047590  0.32952410  1.00000000  1
  Cl  Cl1  1  0.00000000  0.67047590  0.00000000  1
  Cl  Cl2  1  1.00000000  1.00000000  0.67047590  1
  Cl  Cl3  1  0.67047590  0.00000000  0.32952410  1
  Cl  Cl4  1  0.32952410  0.67047590  0.00000000  1
  Cl  Cl5  1  0.32952410  1.00000000  0.67047590  1
  Cl  Cl6  1  0.00000000  0.00000000  0.32952410  1
  Cl  Cl7  1  1.00000000  0.32952410  1.00000000  1
  Cl  Cl8  1  0.00000000  0.67047590  0.32952410  1
  Cl  Cl9  1  0.67047590  1.00000000  0.00000000  1
  Cl  Cl10  1  1.00000000  0.32952410  0.67047590  1
  Cl  Cl11  1  0.32952410  0.00000000  1.00000000  1
  Cl  Cl12  1  0.68303463  0.68303463  0.31696537  1
  Cl  Cl13  1  0.68303463  0.31696537  0.68303463  1
  Cl  Cl14  1  0.31696537  0.31696537  0.68303463  1
  Cl  Cl15  1  0.31696537  0.68303463  0.31696537  1
  Cl  Cl16  1  0.31696537  0.68303463  0.68303463  1
  Cl  Cl17  1  0.68303463  0.31696537  0.31696537  1
  Cl  Cl18  1  0.75000000  0.75000000  0.75000000  1
  Cl  Cl19  1  0.25000000  0.25000000  0.25000000  1
loop_
_geom_bond_atom_site_label_1
_geom_bond_atom_site_label_2
_geom_bond_distance
_geom_bond_site_symmetry_2
B0 Hf3 2.237092 1_545
B0 Hf5 2.237092 1_455
B0 Hf1 2.237092 1_454
B0 Hf4 2.237092 1_544
B0 Hf2 2.237092 1_554
B0 Hf0 2.237092 1_445
Cl0 Hf5 2.565399 1_556
Cl0 Hf1 2.565399 1_555
Cl1 Hf0 2.565399 1_455
Cl1 Hf4 2.565399 1_554
Cl2 Hf4 2.565399 1_655
Cl2 Hf1 2.565399 1_565
Cl3 Hf0 2.565399 1_545
Cl3 Hf5 2.565399 1_555
Cl4 Hf4 2.565399 1_554
Cl4 Hf3 2.565399 1_555
Cl5 Hf2 2.565399 1_565
Cl5 Hf4 2.565399 1_555
Cl6 Hf5 2.565399 1_455
Cl6 Hf3 2.565399 1_545
Cl7 Hf2 2.565399 1_655
Cl7 Hf5 2.565399 1_556
Cl8 Hf0 2.565399 1_455
Cl8 Hf3 2.565399 1_555
Cl9 Hf0 2.565399 1_555
Cl9 Hf1 2.565399 1_564
Cl10 Hf2 2.565399 1_655
Cl10 Hf1 2.565399 1_555
Cl11 Hf2 2.565399 1_555
Cl11 Hf3 2.565399 1_546
Cl12 Hf0 2.662100 1_555
Cl12 K3 3.134002 1_555
Cl12 K2 3.134002 1_555
Cl12 K4 3.134002 1_555
Cl12 K5 3.134002 1_555
Cl13 Hf1 2.662100 1_555
Cl13 K5 3.134002 1_555
Cl13 K6 3.134002 1_555
Cl13 K1 3.134002 1_555
Cl13 K3 3.134002 1_555
Cl14 Hf2 2.662100 1_555
Cl14 K7 3.134002 1_555
Cl14 K6 3.134002 1_555
Cl14 K1 3.134002 1_555
Cl14 K0 3.134002 1_555
Cl15 Hf3 2.662100 1_555
Cl15 K0 3.134002 1_555
Cl15 K2 3.134002 1_555
Cl15 K4 3.134002 1_555
Cl15 K7 3.134002 1_555
Cl16 Hf4 2.662100 1_555
Cl16 K4 3.134002 1_555
Cl16 K3 3.134002 1_555
Cl16 K0 3.134002 1_555
Cl16 K6 3.134002 1_555
Cl17 Hf5 2.662100 1_555
Cl17 K1 3.134002 1_555
Cl17 K7 3.134002 1_555
Cl17 K5 3.134002 1_555
Cl17 K2 3.134002 1_555
Cl18 K2 2.941456 1_556
Cl18 K0 2.941456 1_655
Cl18 K3 2.941456 1_555
Cl18 K1 2.941457 1_565
Cl19 K6 2.941456 1_554
Cl19 K5 2.941456 1_455
Cl19 K7 2.941456 1_555
Cl19 K4 2.941457 1_545
