# generated using pymatgen
data_Zr6GaPbC4
_symmetry_space_group_name_H-M   'P 1'
_cell_length_a   3.36886094
_cell_length_b   3.36886164
_cell_length_c   19.84267272
_cell_angle_alpha   90.00000000
_cell_angle_beta   90.00000000
_cell_angle_gamma   120.00001258
_symmetry_Int_Tables_number   1
_chemical_formula_structural   Zr6GaPbC4
_chemical_formula_sum   'Zr6 Ga1 Pb1 C4'
_cell_volume   195.02801723
_cell_formula_units_Z   1
loop_
 _symmetry_equiv_pos_site_id
 _symmetry_equiv_pos_as_xyz
  1  'x, y, z'
loop_
 _atom_site_type_symbol
 _atom_site_label
 _atom_site_symmetry_multiplicity
 _atom_site_fract_x
 _atom_site_fract_y
 _atom_site_fract_z
 _atom_site_occupancy
  Zr  Zr0  1  0.00000000  0.00000000  0.99400274  1
  Zr  Zr1  1  0.33333300  0.66666700  0.12335726  1
  Zr  Zr2  1  0.33333300  0.66666700  0.37664274  1
  Zr  Zr3  1  0.00000000  0.00000000  0.50599726  1
  Zr  Zr4  1  0.66666700  0.33333500  0.63602012  1
  Zr  Zr5  1  0.66666700  0.33333500  0.86397988  1
  Ga  Ga0  1  0.00000000  0.00000000  0.75000000  1
  Pb  Pb0  1  0.00000000  0.00000000  0.25000000  1
  C  C0  1  0.66666700  0.33333500  0.06510983  1
  C  C1  1  0.66666700  0.33333500  0.43489017  1
  C  C2  1  0.33333300  0.66666700  0.57693414  1
  C  C3  1  0.33333300  0.66666700  0.92306586  1
loop_
_geom_bond_atom_site_label_1
_geom_bond_atom_site_label_2
_geom_bond_distance
_geom_bond_site_symmetry_2
Ga0 Zr5 2.982983 1_445
Ga0 Zr4 2.982983 1_445
Ga0 Zr5 2.982986 1_555
Ga0 Zr4 2.982986 1_555
Ga0 Zr5 2.982989 1_455
Ga0 Zr4 2.982989 1_455
Pb0 Zr2 3.177717 1_545
Pb0 Zr1 3.177717 1_545
Pb0 Zr2 3.177719 1_445
Pb0 Zr1 3.177719 1_445
Pb0 Zr2 3.177719 1_555
Pb0 Zr1 3.177719 1_555
C0 Zr1 2.262500 1_655
C0 Zr1 2.262500 1_555
C0 Zr1 2.262505 1_545
C0 Zr0 2.402884 1_664
C0 Zr0 2.402888 1_554
C0 Zr0 2.402891 1_654
C1 Zr2 2.262500 1_655
C1 Zr2 2.262500 1_555
C1 Zr2 2.262505 1_545
C1 Zr3 2.402884 1_665
C1 Zr3 2.402888 1_555
C1 Zr3 2.402891 1_655
C2 Zr4 2.271045 1_455
C2 Zr4 2.271045 1_555
C2 Zr4 2.271050 1_565
C2 Zr3 2.400904 1_565
C2 Zr3 2.400906 1_665
C2 Zr3 2.400907 1_555
C3 Zr5 2.271045 1_455
C3 Zr5 2.271045 1_555
C3 Zr5 2.271050 1_565
C3 Zr0 2.400904 1_565
C3 Zr0 2.400906 1_665
C3 Zr0 2.400907 1_555
