# generated using pymatgen
data_Hf16TaTc3Ni4
_symmetry_space_group_name_H-M   'P 1'
_cell_length_a   8.61542255
_cell_length_b   8.61542270
_cell_length_c   8.61542339
_cell_angle_alpha   60.24372378
_cell_angle_beta   60.24372377
_cell_angle_gamma   60.24372068
_symmetry_Int_Tables_number   1
_chemical_formula_structural   Hf16TaTc3Ni4
_chemical_formula_sum   'Hf16 Ta1 Tc3 Ni4'
_cell_volume   454.67840270
_cell_formula_units_Z   1
loop_
 _symmetry_equiv_pos_site_id
 _symmetry_equiv_pos_as_xyz
  1  'x, y, z'
loop_
 _atom_site_type_symbol
 _atom_site_label
 _atom_site_symmetry_multiplicity
 _atom_site_fract_x
 _atom_site_fract_y
 _atom_site_fract_z
 _atom_site_occupancy
  Hf  Hf0  1  0.69552792  0.10155692  0.10155692  1
  Hf  Hf1  1  0.10155692  0.69552792  0.10155692  1
  Hf  Hf2  1  0.10155692  0.10155692  0.69552792  1
  Hf  Hf3  1  0.10246437  0.10246437  0.10246437  1
  Hf  Hf4  1  0.31491906  0.31491906  0.68943618  1
  Hf  Hf5  1  0.68527918  0.68527918  0.31478292  1
  Hf  Hf6  1  0.31491906  0.68943618  0.31491906  1
  Hf  Hf7  1  0.68527918  0.31478292  0.68527918  1
  Hf  Hf8  1  0.68943618  0.31491906  0.31491906  1
  Hf  Hf9  1  0.31478292  0.68527918  0.68527918  1
  Hf  Hf10  1  0.95370262  0.95370262  0.54602478  1
  Hf  Hf11  1  0.54938118  0.54938118  0.95115389  1
  Hf  Hf12  1  0.95370262  0.54602478  0.95370262  1
  Hf  Hf13  1  0.54938118  0.95115389  0.54938118  1
  Hf  Hf14  1  0.54602478  0.95370262  0.95370262  1
  Hf  Hf15  1  0.95115389  0.54938118  0.54938118  1
  Ta  Ta0  1  0.32653135  0.32653135  0.32653135  1
  Tc  Tc0  1  0.99565738  0.33433007  0.33433007  1
  Tc  Tc1  1  0.33433007  0.99565738  0.33433007  1
  Tc  Tc2  1  0.33433007  0.33433007  0.99565738  1
  Ni  Ni0  1  0.32581498  0.89154555  0.89154555  1
  Ni  Ni1  1  0.89154555  0.32581498  0.89154555  1
  Ni  Ni2  1  0.89154555  0.89154555  0.32581498  1
  Ni  Ni3  1  0.89117405  0.89117405  0.89117405  1
loop_
_geom_bond_atom_site_label_1
_geom_bond_atom_site_label_2
_geom_bond_distance
_geom_bond_site_symmetry_2
Hf0 Ni2 2.567946 1_545
Hf0 Ni1 2.567946 1_554
Hf0 Ni3 2.570514 1_544
Hf0 Ta0 3.019343 1_555
Hf0 Tc2 3.057016 1_554
Hf0 Tc1 3.057016 1_545
Hf0 Hf5 3.139807 1_545
Hf0 Hf7 3.139807 1_554
Hf0 Hf8 3.150126 1_555
Hf1 Ni0 2.567946 1_554
Hf1 Ni2 2.567946 1_455
Hf1 Ni3 2.570514 1_454
Hf1 Ta0 3.019343 1_555
Hf1 Tc2 3.057016 1_554
Hf1 Tc0 3.057016 1_455
Hf1 Hf5 3.139807 1_455
Hf1 Hf9 3.139807 1_554
Hf1 Hf6 3.150126 1_555
Hf2 Ni0 2.567946 1_545
Hf2 Ni1 2.567946 1_455
Hf2 Ni3 2.570514 1_445
Hf2 Ta0 3.019343 1_555
Hf2 Tc0 3.057016 1_455
Hf2 Tc1 3.057016 1_545
Hf2 Hf7 3.139807 1_455
Hf2 Hf9 3.139807 1_545
Hf2 Hf4 3.150126 1_555
Hf3 Ni1 2.577364 1_454
Hf3 Ni0 2.577364 1_544
Hf3 Ni2 2.577364 1_445
Hf3 Tc2 3.023165 1_554
Hf3 Tc1 3.023165 1_545
Hf3 Tc0 3.023165 1_455
Hf3 Hf8 3.123793 1_455
Hf3 Hf6 3.123793 1_545
Hf3 Hf4 3.123793 1_554
Hf4 Tc2 2.814218 1_555
Hf4 Ta0 3.030588 1_555
Hf4 Ni1 3.140583 1_455
Hf4 Ni0 3.140584 1_545
Hf4 Hf7 3.172608 1_555
Hf4 Hf9 3.172608 1_555
Hf4 Hf8 3.238503 1_555
Hf4 Hf6 3.238503 1_555
Hf5 Tc1 2.870001 1_555
Hf5 Tc0 2.870001 1_555
Hf5 Ni2 3.129698 1_555
Hf5 Ni3 3.143849 1_554
Hf5 Hf6 3.172608 1_555
Hf5 Hf8 3.172608 1_555
Hf5 Hf9 3.203734 1_555
Hf5 Hf7 3.203734 1_555
Hf6 Tc1 2.814218 1_555
Hf6 Ta0 3.030588 1_555
Hf6 Ni2 3.140583 1_455
Hf6 Ni0 3.140584 1_554
Hf6 Hf9 3.172608 1_555
Hf6 Hf8 3.238502 1_555
Hf7 Tc2 2.870001 1_555
Hf7 Tc0 2.870001 1_555
Hf7 Ni1 3.129698 1_555
Hf7 Ni3 3.143848 1_545
Hf7 Hf8 3.172608 1_555
Hf7 Hf9 3.203733 1_555
Hf8 Tc0 2.814217 1_555
Hf8 Ta0 3.030588 1_555
Hf8 Ni2 3.140583 1_545
Hf8 Ni1 3.140584 1_554
Hf9 Tc2 2.870001 1_555
Hf9 Tc1 2.870001 1_555
Hf9 Ni0 3.129698 1_555
Hf9 Ni3 3.143848 1_455
Hf10 Ni2 2.544507 1_555
Hf10 Ni3 2.555511 1_555
Hf10 Tc1 2.965820 1_655
Hf10 Tc0 2.965820 1_565
Hf10 Hf8 3.185730 1_565
Hf10 Hf6 3.185730 1_655
Hf10 Hf9 3.205379 1_655
Hf10 Hf7 3.205379 1_565
Hf11 Ni1 2.550835 1_555
Hf11 Ni0 2.550835 1_555
Hf11 Tc2 3.001588 1_555
Hf11 Ta0 3.027149 1_556
Hf11 Hf9 3.207392 1_555
Hf11 Hf7 3.207392 1_555
Hf11 Hf8 3.226231 1_556
Hf11 Hf6 3.226231 1_556
Hf12 Ni1 2.544507 1_555
Hf12 Ni3 2.555510 1_555
Hf12 Tc2 2.965820 1_655
Hf12 Tc0 2.965820 1_556
Hf12 Hf4 3.185730 1_655
Hf12 Hf8 3.185730 1_556
Hf12 Hf9 3.205379 1_655
Hf12 Hf5 3.205379 1_556
Hf13 Ni2 2.550836 1_555
Hf13 Ni0 2.550836 1_555
Hf13 Tc1 3.001588 1_555
Hf13 Ta0 3.027149 1_565
Hf13 Hf9 3.207392 1_555
Hf13 Hf5 3.207392 1_555
Hf13 Hf4 3.226231 1_565
Hf13 Hf8 3.226231 1_565
Hf14 Ni0 2.544507 1_555
Hf14 Ni3 2.555510 1_555
Hf14 Tc2 2.965820 1_565
Hf14 Tc1 2.965820 1_556
Hf14 Hf4 3.185730 1_565
Hf14 Hf6 3.185730 1_556
Hf14 Hf7 3.205379 1_565
Hf14 Hf5 3.205379 1_556
Hf15 Ni2 2.550836 1_555
Hf15 Ni1 2.550836 1_555
Hf15 Tc0 3.001588 1_555
Hf15 Ta0 3.027149 1_655
Hf15 Hf7 3.207392 1_555
Hf15 Hf5 3.207392 1_555
Hf15 Hf4 3.226231 1_655
Hf15 Hf6 3.226231 1_655
Ta0 Tc0 2.785553 1_455
Ta0 Tc1 2.785553 1_545
Ta0 Tc2 2.785553 1_554
Tc0 Tc1 2.928551 1_645
Tc0 Tc2 2.928551 1_654
Tc1 Tc2 2.928551 1_564
