# generated using pymatgen
data_Mg2Zn2CuIr
_symmetry_space_group_name_H-M   'P 1'
_cell_length_a   4.96128540
_cell_length_b   5.10282362
_cell_length_c   5.10282408
_cell_angle_alpha   121.32987299
_cell_angle_beta   117.32366131
_cell_angle_gamma   91.98933599
_symmetry_Int_Tables_number   1
_chemical_formula_structural   Mg2Zn2CuIr
_chemical_formula_sum   'Mg2 Zn2 Cu1 Ir1'
_cell_volume   91.45467546
_cell_formula_units_Z   1
loop_
 _symmetry_equiv_pos_site_id
 _symmetry_equiv_pos_as_xyz
  1  'x, y, z'
loop_
 _atom_site_type_symbol
 _atom_site_label
 _atom_site_symmetry_multiplicity
 _atom_site_fract_x
 _atom_site_fract_y
 _atom_site_fract_z
 _atom_site_occupancy
  Mg  Mg0  1  0.13056285  0.86468726  0.26587560  1
  Mg  Mg1  1  0.86943715  0.13531274  0.73412440  1
  Zn  Zn0  1  0.50000000  0.50000000  0.50000000  1
  Zn  Zn1  1  0.50000000  0.00000000  0.00000000  1
  Cu  Cu0  1  0.00000000  0.50000000  0.50000000  1
  Ir  Ir0  1  0.50000000  0.50000000  0.00000000  1
loop_
_geom_bond_atom_site_label_1
_geom_bond_atom_site_label_2
_geom_bond_distance
_geom_bond_site_symmetry_2
Mg0 Zn0 2.964526 1_555
Mg0 Zn1 2.964527 1_566
Mg0 Mg1 2.971394 1_465
Mg0 Mg1 2.971395 1_454
Mg0 Zn1 2.974239 1_565
Mg0 Zn0 2.974239 1_565
Mg0 Mg1 3.038127 1_565
Mg0 Zn1 3.054838 1_465
Mg0 Zn0 3.054839 1_454
Mg1 Zn0 2.964526 1_555
Mg1 Zn1 2.964527 1_555
Mg1 Zn1 2.974239 1_556
Mg1 Zn0 2.974239 1_545
Mg1 Zn1 3.054838 1_656
Mg1 Zn0 3.054839 1_656
Zn0 Zn1 2.499955 1_555
Zn0 Zn1 2.499955 1_566
Cu0 Zn0 2.480643 1_455
Cu0 Zn0 2.480643 1_555
Cu0 Zn1 2.480643 1_566
Cu0 Zn1 2.480643 1_455
Cu0 Ir0 2.617810 1_455
Cu0 Ir0 2.617810 1_556
Cu0 Mg0 2.872063 1_555
Cu0 Mg1 2.872063 1_455
Cu0 Mg1 3.030718 1_465
Cu0 Mg0 3.030718 1_545
Cu0 Mg0 3.030719 1_556
Cu0 Mg1 3.030719 1_454
Ir0 Zn1 2.551412 1_555
Ir0 Zn1 2.551412 1_565
Ir0 Zn0 2.551412 1_555
Ir0 Zn0 2.551412 1_554
Ir0 Mg0 2.857349 1_655
Ir0 Mg1 2.857349 1_454
Ir0 Mg0 2.925291 1_555
Ir0 Mg1 2.925291 1_554
Ir0 Mg1 2.925292 1_565
Ir0 Mg0 2.925292 1_544
