# generated using pymatgen
data_HfTcSbRu
_symmetry_space_group_name_H-M   'P 1'
_cell_length_a   4.53437761
_cell_length_b   4.53437743
_cell_length_c   4.53437683
_cell_angle_alpha   59.99999011
_cell_angle_beta   59.99999141
_cell_angle_gamma   59.99998474
_symmetry_Int_Tables_number   1
_chemical_formula_structural   HfTcSbRu
_chemical_formula_sum   'Hf1 Tc1 Sb1 Ru1'
_cell_volume   65.92313484
_cell_formula_units_Z   1
loop_
 _symmetry_equiv_pos_site_id
 _symmetry_equiv_pos_as_xyz
  1  'x, y, z'
loop_
 _atom_site_type_symbol
 _atom_site_label
 _atom_site_symmetry_multiplicity
 _atom_site_fract_x
 _atom_site_fract_y
 _atom_site_fract_z
 _atom_site_occupancy
  Hf  Hf0  1  0.75000000  0.75000000  0.75000000  1
  Tc  Tc0  1  0.00000000  0.00000000  0.00000000  1
  Sb  Sb0  1  0.25000000  0.25000000  0.25000000  1
  Ru  Ru0  1  0.50000000  0.50000000  0.50000000  1
loop_
_geom_bond_atom_site_label_1
_geom_bond_atom_site_label_2
_geom_bond_distance
_geom_bond_site_symmetry_2
Hf0 Ru0 2.776727 1_556
Hf0 Tc0 2.776727 1_665
Hf0 Ru0 2.776727 1_565
Hf0 Tc0 2.776727 1_656
Hf0 Tc0 2.776727 1_566
Hf0 Ru0 2.776727 1_655
Hf0 Ru0 2.776728 1_555
Hf0 Tc0 2.776728 1_666
Hf0 Sb0 3.206288 1_656
Hf0 Sb0 3.206288 1_565
Hf0 Sb0 3.206288 1_566
Hf0 Sb0 3.206288 1_655
Hf0 Sb0 3.206289 1_556
Hf0 Sb0 3.206289 1_665
Sb0 Tc0 2.776727 1_556
Sb0 Tc0 2.776727 1_565
Sb0 Tc0 2.776727 1_655
Sb0 Tc0 2.776728 1_555
Ru0 Sb0 2.776727 1_556
Ru0 Sb0 2.776727 1_565
Ru0 Sb0 2.776727 1_655
Ru0 Sb0 2.776728 1_555
