# generated using pymatgen
data_Sc2FeCo3
_symmetry_space_group_name_H-M   'P 1'
_cell_length_a   4.84287211
_cell_length_b   4.84287285
_cell_length_c   4.84287217
_cell_angle_alpha   61.78360160
_cell_angle_beta   61.78359015
_cell_angle_gamma   61.78359842
_symmetry_Int_Tables_number   1
_chemical_formula_structural   Sc2FeCo3
_chemical_formula_sum   'Sc2 Fe1 Co3'
_cell_volume   83.52364117
_cell_formula_units_Z   1
loop_
 _symmetry_equiv_pos_site_id
 _symmetry_equiv_pos_as_xyz
  1  'x, y, z'
loop_
 _atom_site_type_symbol
 _atom_site_label
 _atom_site_symmetry_multiplicity
 _atom_site_fract_x
 _atom_site_fract_y
 _atom_site_fract_z
 _atom_site_occupancy
  Sc  Sc0  1  0.62625118  0.62625118  0.62625118  1
  Sc  Sc1  1  0.37374882  0.37374882  0.37374882  1
  Fe  Fe0  1  0.00000000  0.00000000  0.00000000  1
  Co  Co0  1  0.00000000  0.50000000  0.00000000  1
  Co  Co1  1  0.50000000  0.00000000  0.00000000  1
  Co  Co2  1  0.00000000  0.00000000  0.50000000  1
loop_
_geom_bond_atom_site_label_1
_geom_bond_atom_site_label_2
_geom_bond_distance
_geom_bond_site_symmetry_2
Sc0 Sc1 2.954313 1_555
Sc0 Sc1 3.022822 1_655
Sc0 Sc1 3.022823 1_556
Sc0 Sc1 3.022823 1_565
Fe0 Sc1 2.909750 1_455
Fe0 Sc0 2.909750 1_544
Fe0 Sc1 2.909750 1_554
Fe0 Sc0 2.909750 1_445
Fe0 Sc1 2.909751 1_545
Fe0 Sc0 2.909751 1_454
Co0 Fe0 2.421436 1_565
Co0 Fe0 2.421436 1_555
Co0 Co1 2.486420 1_555
Co0 Co1 2.486420 1_465
Co0 Co2 2.486420 1_564
Co0 Co2 2.486420 1_555
Co0 Sc1 2.816231 1_555
Co0 Sc0 2.816231 1_454
Co0 Sc0 2.892105 1_455
Co0 Sc1 2.892105 1_554
Co0 Sc0 2.892105 1_554
Co0 Sc1 2.892105 1_455
Co1 Fe0 2.421436 1_555
Co1 Fe0 2.421436 1_655
Co1 Co2 2.486420 1_654
Co1 Co2 2.486420 1_555
Co1 Sc1 2.816231 1_555
Co1 Sc0 2.816231 1_544
Co1 Sc0 2.892106 1_545
Co1 Sc1 2.892106 1_554
Co1 Sc0 2.892106 1_554
Co1 Sc1 2.892106 1_545
Co2 Fe0 2.421436 1_555
Co2 Fe0 2.421436 1_556
Co2 Sc1 2.816232 1_555
Co2 Sc0 2.816232 1_445
Co2 Sc0 2.892106 1_545
Co2 Sc1 2.892106 1_455
Co2 Sc0 2.892106 1_455
Co2 Sc1 2.892106 1_545
