# generated using pymatgen
data_CsTa(Te2Au)2
_symmetry_space_group_name_H-M   'P 1'
_cell_length_a   6.23290168
_cell_length_b   8.64025108
_cell_length_c   21.28101059
_cell_angle_alpha   90.00000000
_cell_angle_beta   90.00000000
_cell_angle_gamma   90.00000000
_symmetry_Int_Tables_number   1
_chemical_formula_structural   CsTa(Te2Au)2
_chemical_formula_sum   'Cs4 Ta4 Te16 Au8'
_cell_volume   1146.06404367
_cell_formula_units_Z   4
loop_
 _symmetry_equiv_pos_site_id
 _symmetry_equiv_pos_as_xyz
  1  'x, y, z'
loop_
 _atom_site_type_symbol
 _atom_site_label
 _atom_site_symmetry_multiplicity
 _atom_site_fract_x
 _atom_site_fract_y
 _atom_site_fract_z
 _atom_site_occupancy
  Cs  Cs0  1  0.02388880  0.71495190  0.43781453  1
  Cs  Cs1  1  0.52388880  0.28504810  0.56218547  1
  Cs  Cs2  1  0.52388880  0.78504810  0.93781453  1
  Cs  Cs3  1  0.02388880  0.21495190  0.06218547  1
  Ta  Ta0  1  0.25828202  0.70833931  0.14698717  1
  Ta  Ta1  1  0.75828202  0.29166069  0.85301283  1
  Ta  Ta2  1  0.75828202  0.79166069  0.64698717  1
  Ta  Ta3  1  0.25828202  0.20833931  0.35301283  1
  Te  Te0  1  0.49567377  0.96454091  0.13560396  1
  Te  Te1  1  0.99567377  0.03545909  0.86439604  1
  Te  Te2  1  0.99567377  0.53545909  0.63560396  1
  Te  Te3  1  0.49567377  0.46454091  0.36439604  1
  Te  Te4  1  0.49813526  0.95385820  0.35499288  1
  Te  Te5  1  0.99813526  0.04614180  0.64500712  1
  Te  Te6  1  0.99813526  0.54614180  0.85499288  1
  Te  Te7  1  0.49813526  0.45385820  0.14500712  1
  Te  Te8  1  0.99889887  0.71745953  0.24870531  1
  Te  Te9  1  0.49889887  0.28254047  0.75129469  1
  Te  Te10  1  0.49889887  0.78254047  0.74870531  1
  Te  Te11  1  0.99889887  0.21745953  0.25129469  1
  Te  Te12  1  0.03522773  0.69344716  0.04206841  1
  Te  Te13  1  0.53522773  0.30655284  0.95793159  1
  Te  Te14  1  0.53522773  0.80655284  0.54206841  1
  Te  Te15  1  0.03522773  0.19344716  0.45793159  1
  Au  Au0  1  0.26842470  0.96790143  0.24558790  1
  Au  Au1  1  0.76842470  0.03209857  0.75441210  1
  Au  Au2  1  0.76842470  0.53209857  0.74558790  1
  Au  Au3  1  0.26842470  0.46790143  0.25441210  1
  Au  Au4  1  0.25687085  0.79063872  0.64073944  1
  Au  Au5  1  0.75687085  0.20936128  0.35926056  1
  Au  Au6  1  0.75687085  0.70936128  0.14073944  1
  Au  Au7  1  0.25687085  0.29063872  0.85926056  1
loop_
_geom_bond_atom_site_label_1
_geom_bond_atom_site_label_2
_geom_bond_distance
_geom_bond_site_symmetry_2
Cs0 Te14 3.850385 1_455
Cs0 Te14 3.963140 1_555
Cs0 Te3 3.971076 1_555
Cs0 Te4 4.013104 1_555
Cs0 Te8 4.027507 1_455
Cs0 Te15 4.157026 1_565
Cs0 Te3 4.238125 1_455
Cs0 Te4 4.255115 1_455
Cs0 Te2 4.489223 1_455
Cs0 Te15 4.526776 1_555
Cs1 Te15 3.850385 1_555
Cs1 Te15 3.963140 1_655
Cs1 Te2 3.971076 1_555
Cs1 Te5 4.013104 1_555
Cs1 Te9 4.027507 1_555
Cs1 Te14 4.157026 1_545
Cs1 Te2 4.238125 1_455
Cs1 Te5 4.255115 1_455
Cs1 Te3 4.489223 1_555
Cs1 Te14 4.526776 1_555
Cs2 Te12 3.850385 1_556
Cs2 Te12 3.963140 1_656
Cs2 Te1 3.971076 1_565
Cs2 Te6 4.013104 1_555
Cs2 Te10 4.027507 1_555
Cs2 Te13 4.157026 1_555
Cs2 Te1 4.238125 1_465
Cs2 Te6 4.255115 1_455
Cs2 Te0 4.489223 1_556
Cs2 Te13 4.526776 1_565
Cs3 Te13 3.850385 1_454
Cs3 Te13 3.963140 1_554
Cs3 Te0 3.971076 1_545
Cs3 Te7 4.013104 1_555
Cs3 Te11 4.027507 1_455
Cs3 Te12 4.157026 1_555
Cs3 Te0 4.238125 1_445
Cs3 Te7 4.255115 1_455
Cs3 Te1 4.489223 1_454
Cs3 Te12 4.526776 1_545
Ta0 Te12 2.633385 1_555
Ta0 Te7 2.659207 1_555
Ta0 Te0 2.673620 1_555
Ta0 Te8 2.702912 1_455
Ta1 Te13 2.633385 1_555
Ta1 Te6 2.659207 1_555
Ta1 Te1 2.673620 1_555
Ta1 Te9 2.702912 1_555
Ta2 Te14 2.633385 1_555
Ta2 Te5 2.659207 1_565
Ta2 Te2 2.673620 1_555
Ta2 Te10 2.702912 1_555
Ta3 Te15 2.633385 1_555
Ta3 Te4 2.659207 1_545
Ta3 Te3 2.673620 1_555
Ta3 Te11 2.702912 1_455
Au0 Te0 2.735938 1_555
Au0 Te4 2.735948 1_555
Au0 Te11 2.736110 1_465
Au0 Te8 2.740244 1_455
Au0 Ta0 3.071901 1_555
Au0 Ta3 3.089672 1_565
Au1 Te1 2.735938 1_555
Au1 Te5 2.735948 1_555
Au1 Te10 2.736110 1_545
Au1 Te9 2.740244 1_555
Au1 Ta1 3.071901 1_555
Au1 Ta2 3.089672 1_545
Au2 Te2 2.735938 1_555
Au2 Te6 2.735948 1_555
Au2 Te9 2.736110 1_555
Au2 Te10 2.740244 1_555
Au2 Ta2 3.071901 1_555
Au2 Ta1 3.089672 1_555
Au3 Te3 2.735938 1_555
Au3 Te7 2.735948 1_555
Au3 Te8 2.736110 1_455
Au3 Te11 2.740244 1_455
Au3 Ta3 3.071901 1_555
Au3 Ta0 3.089672 1_555
Au4 Te14 2.727320 1_555
Au4 Te5 2.735418 1_465
Au4 Te2 2.742917 1_455
Au4 Te10 2.749482 1_555
Au4 Ta2 3.110511 1_455
Au4 Ta2 3.128086 1_555
Au5 Te15 2.727320 1_655
Au5 Te4 2.735418 1_545
Au5 Te3 2.742917 1_555
Au5 Te11 2.749482 1_555
Au5 Ta3 3.110511 1_555
Au5 Ta3 3.128086 1_655
Au6 Te12 2.727320 1_655
Au6 Te7 2.735418 1_555
Au6 Te0 2.742917 1_555
Au6 Te8 2.749482 1_555
Au6 Ta0 3.110511 1_555
Au6 Ta0 3.128086 1_655
Au7 Te13 2.727320 1_555
Au7 Te6 2.735418 1_455
Au7 Te1 2.742917 1_455
Au7 Te9 2.749482 1_555
Au7 Ta1 3.110511 1_455
Au7 Ta1 3.128086 1_555
