# generated using pymatgen
data_CsRb3(SnSb)12
_symmetry_space_group_name_H-M   'P 1'
_cell_length_a   4.43600330
_cell_length_b   11.07315985
_cell_length_c   21.13586700
_cell_angle_alpha   89.58432410
_cell_angle_beta   90.00000000
_cell_angle_gamma   90.00000000
_symmetry_Int_Tables_number   1
_chemical_formula_structural   CsRb3(SnSb)12
_chemical_formula_sum   'Cs1 Rb3 Sn12 Sb12'
_cell_volume   1038.17858838
_cell_formula_units_Z   1
loop_
 _symmetry_equiv_pos_site_id
 _symmetry_equiv_pos_as_xyz
  1  'x, y, z'
loop_
 _atom_site_type_symbol
 _atom_site_label
 _atom_site_symmetry_multiplicity
 _atom_site_fract_x
 _atom_site_fract_y
 _atom_site_fract_z
 _atom_site_occupancy
  Cs  Cs0  1  0.25000000  0.22842859  0.46103761  1
  Rb  Rb0  1  0.75000000  0.26683671  0.95914083  1
  Rb  Rb1  1  0.75000000  0.76560582  0.54016016  1
  Rb  Rb2  1  0.25000000  0.73313361  0.04036725  1
  Sn  Sn0  1  0.75000000  0.17584225  0.65192487  1
  Sn  Sn1  1  0.75000000  0.67296926  0.84923341  1
  Sn  Sn2  1  0.25000000  0.82363051  0.34645185  1
  Sn  Sn3  1  0.25000000  0.32694922  0.14971564  1
  Sn  Sn4  1  0.75000000  0.10613267  0.25596230  1
  Sn  Sn5  1  0.75000000  0.60535222  0.24144604  1
  Sn  Sn6  1  0.25000000  0.89517139  0.74430647  1
  Sn  Sn7  1  0.25000000  0.39353312  0.75900007  1
  Sn  Sn8  1  0.75000000  0.98017455  0.13283151  1
  Sn  Sn9  1  0.75000000  0.47915168  0.36521557  1
  Sn  Sn10  1  0.25000000  0.02026818  0.86732293  1
  Sn  Sn11  1  0.25000000  0.52460320  0.63706089  1
  Sb  Sb0  1  0.75000000  0.48232946  0.12201820  1
  Sb  Sb1  1  0.75000000  0.97702532  0.37465011  1
  Sb  Sb2  1  0.25000000  0.51807652  0.87790686  1
  Sb  Sb3  1  0.25000000  0.02004940  0.62466092  1
  Sb  Sb4  1  0.75000000  0.39137495  0.57981387  1
  Sb  Sb5  1  0.75000000  0.88309946  0.92369837  1
  Sb  Sb6  1  0.25000000  0.61384769  0.42237817  1
  Sb  Sb7  1  0.25000000  0.11637071  0.07572875  1
  Sb  Sb8  1  0.75000000  0.23146427  0.78221396  1
  Sb  Sb9  1  0.75000000  0.73458499  0.71932673  1
  Sb  Sb10  1  0.25000000  0.76661085  0.21672900  1
  Sb  Sb11  1  0.25000000  0.26738338  0.27970367  1
loop_
_geom_bond_atom_site_label_1
_geom_bond_atom_site_label_2
_geom_bond_distance
_geom_bond_site_symmetry_2
Cs0 Sb4 3.813551 1_455
Cs0 Sb4 3.813551 1_555
Cs0 Sb11 3.853736 1_555
Cs0 Sb1 4.009589 1_545
Cs0 Sb1 4.009589 1_445
Cs0 Sn9 4.080139 1_555
Cs0 Sn9 4.080139 1_455
Cs0 Sb3 4.143473 1_555
Rb0 Sb7 3.702456 1_656
Rb0 Sb7 3.702456 1_556
Rb0 Sb8 3.762785 1_555
Rb0 Sb2 3.941798 1_655
Rb0 Sb2 3.941798 1_555
Rb0 Sn10 4.027038 1_555
Rb0 Sn10 4.027038 1_655
Rb0 Sb0 4.202886 1_556
Rb1 Sb6 3.741838 1_555
Rb1 Sb6 3.741838 1_655
Rb1 Sb9 3.799905 1_555
Rb1 Sb3 4.015047 1_565
Rb1 Sb3 4.015047 1_665
Rb1 Sn11 4.019529 1_655
Rb1 Sn11 4.019529 1_555
Rb1 Sb1 4.195143 1_555
Rb2 Sb5 3.701128 1_554
Rb2 Sb5 3.701128 1_454
Rb2 Sb10 3.748621 1_555
Rb2 Sb0 3.942215 1_555
Rb2 Sb0 3.942215 1_455
Rb2 Sn8 4.037268 1_455
Rb2 Sn8 4.037268 1_555
Rb2 Sb2 4.192864 1_554
Sn4 Sn8 2.961569 1_545
Sn5 Sn9 2.956877 1_555
Sn10 Sn6 2.954893 1_545
Sn11 Sn7 2.948660 1_555
Sb0 Sn3 2.864946 1_655
Sb0 Sn3 2.864946 1_555
Sb0 Sn5 2.877023 1_555
Sb1 Sn2 2.859118 1_655
Sb1 Sn2 2.859118 1_555
Sb1 Sn4 2.878319 1_565
Sb2 Sn1 2.865917 1_555
Sb2 Sn1 2.865917 1_455
Sb2 Sn7 2.875472 1_555
Sb3 Sn0 2.870897 1_455
Sb3 Sn0 2.870897 1_555
Sb3 Sn6 2.873373 1_545
Sb4 Sn0 2.822443 1_555
Sb4 Sn11 2.930159 1_655
Sb4 Sn11 2.930159 1_555
Sb5 Sn1 2.818557 1_555
Sb5 Sn10 2.935997 1_565
Sb5 Sn10 2.935997 1_665
Sb6 Sn2 2.813775 1_555
Sb6 Sn9 2.937683 1_555
Sb6 Sn9 2.937683 1_455
Sb7 Sn3 2.816994 1_555
Sb7 Sn8 2.936699 1_445
Sb7 Sn8 2.936699 1_545
Sb8 Sn0 2.826167 1_555
Sb8 Sn7 2.892772 1_555
Sb8 Sn7 2.892772 1_655
Sb9 Sn1 2.824383 1_555
Sb9 Sn6 2.893768 1_555
Sb9 Sn6 2.893768 1_655
Sb10 Sn2 2.818025 1_555
Sb10 Sn5 2.892652 1_555
Sb10 Sn5 2.892652 1_455
Sb11 Sn3 2.820818 1_555
Sb11 Sn4 2.893533 1_455
Sb11 Sn4 2.893533 1_555
