# generated using pymatgen
data_Nb5Te4
_symmetry_space_group_name_H-M   'P 1'
_cell_length_a   3.70252187
_cell_length_b   7.59273270
_cell_length_c   7.59273190
_cell_angle_alpha   86.59185255
_cell_angle_beta   75.88788316
_cell_angle_gamma   75.88788331
_symmetry_Int_Tables_number   1
_chemical_formula_structural   Nb5Te4
_chemical_formula_sum   'Nb5 Te4'
_cell_volume   200.75968476
_cell_formula_units_Z   1
loop_
 _symmetry_equiv_pos_site_id
 _symmetry_equiv_pos_as_xyz
  1  'x, y, z'
loop_
 _atom_site_type_symbol
 _atom_site_label
 _atom_site_symmetry_multiplicity
 _atom_site_fract_x
 _atom_site_fract_y
 _atom_site_fract_z
 _atom_site_occupancy
  Nb  Nb0  1  0.00000000  0.00000000  -0.00000000  1
  Nb  Nb1  1  0.31165260  0.06983147  0.30686232  1
  Nb  Nb2  1  0.61851492  0.69313768  0.06983147  1
  Nb  Nb3  1  0.38148508  0.30686232  0.93016853  1
  Nb  Nb4  1  0.68834740  0.93016853  0.69313768  1
  Te  Te0  1  0.06181651  0.22264209  0.65372689  1
  Te  Te1  1  0.71554340  0.34627311  0.22264209  1
  Te  Te2  1  0.28445660  0.65372689  0.77735791  1
  Te  Te3  1  0.93818349  0.77735791  0.34627311  1
loop_
_geom_bond_atom_site_label_1
_geom_bond_atom_site_label_2
_geom_bond_distance
_geom_bond_site_symmetry_2
Nb0 Nb1 2.966041 1_555
Nb0 Nb4 2.966041 1_444
Nb0 Nb2 2.966041 1_545
Nb0 Nb3 2.966041 1_454
Nb0 Nb4 2.966043 1_544
Nb0 Nb1 2.966043 1_455
Nb0 Nb3 2.966043 1_554
Nb0 Nb2 2.966043 1_445
Nb0 Te0 3.031389 1_554
Nb0 Te3 3.031389 1_445
Nb0 Te1 3.031389 1_455
Nb0 Te2 3.031389 1_544
Nb1 Te0 2.791044 1_555
Nb1 Te1 2.820536 1_455
Nb1 Te1 2.820544 1_555
Nb1 Te3 2.854752 1_545
Nb1 Te3 2.854754 1_445
Nb2 Te1 2.791044 1_555
Nb2 Te3 2.820539 1_555
Nb2 Te3 2.820541 1_455
Nb2 Te2 2.854752 1_654
Nb2 Te2 2.854754 1_554
Nb3 Te2 2.791044 1_555
Nb3 Te0 2.820539 1_555
Nb3 Te0 2.820541 1_655
Nb3 Te1 2.854752 1_456
Nb3 Te1 2.854754 1_556
Nb4 Te3 2.791044 1_555
Nb4 Te2 2.820536 1_655
Nb4 Te2 2.820544 1_555
Nb4 Te0 2.854752 1_565
Nb4 Te0 2.854754 1_665
