# generated using pymatgen
data_Y4AsPS2
_symmetry_space_group_name_H-M   'P 1'
_cell_length_a   6.91915906
_cell_length_b   6.91915923
_cell_length_c   6.91915772
_cell_angle_alpha   131.90479534
_cell_angle_beta   131.90478283
_cell_angle_gamma   70.37943924
_symmetry_Int_Tables_number   1
_chemical_formula_structural   Y4AsPS2
_chemical_formula_sum   'Y4 As1 P1 S2'
_cell_volume   179.81239142
_cell_formula_units_Z   1
loop_
 _symmetry_equiv_pos_site_id
 _symmetry_equiv_pos_as_xyz
  1  'x, y, z'
loop_
 _atom_site_type_symbol
 _atom_site_label
 _atom_site_symmetry_multiplicity
 _atom_site_fract_x
 _atom_site_fract_y
 _atom_site_fract_z
 _atom_site_occupancy
  Y  Y0  1  0.25041797  0.25041797  1.00000000  1
  Y  Y1  1  0.74958203  0.74958203  0.00000000  1
  Y  Y2  1  0.50567805  0.00567805  0.50000000  1
  Y  Y3  1  0.99432195  0.49432195  0.50000000  1
  As  As0  1  0.00000000  0.00000000  0.00000000  1
  P  P0  1  0.75000000  0.25000000  0.50000000  1
  S  S0  1  0.25000000  0.75000000  0.50000000  1
  S  S1  1  0.50000000  0.50000000  0.00000000  1
loop_
_geom_bond_atom_site_label_1
_geom_bond_atom_site_label_2
_geom_bond_distance
_geom_bond_site_symmetry_2
As0 Y3 2.820257 1_455
As0 Y3 2.820257 1_444
As0 Y2 2.820258 1_454
As0 Y2 2.820258 1_555
As0 Y0 2.832063 1_554
As0 Y1 2.832063 1_445
P0 Y3 2.763121 1_555
P0 Y2 2.763121 1_555
P0 Y1 2.819530 1_556
P0 Y1 2.819530 1_545
P0 Y0 2.819531 1_554
P0 Y0 2.819531 1_655
S0 Y0 2.819530 1_554
S0 Y0 2.819530 1_565
S0 Y1 2.819531 1_556
S0 Y1 2.819531 1_455
S0 Y2 2.891551 1_565
S0 Y3 2.891551 1_455
S1 Y2 2.820257 1_554
S1 Y2 2.820257 1_565
S1 Y3 2.820258 1_555
S1 Y3 2.820258 1_454
S1 Y1 2.822609 1_555
S1 Y0 2.822609 1_554
