# generated using pymatgen
data_Rb2AlSn11
_symmetry_space_group_name_H-M   'P 1'
_cell_length_a   6.90094669
_cell_length_b   6.90094737
_cell_length_c   15.06668042
_cell_angle_alpha   89.96793706
_cell_angle_beta   90.03206400
_cell_angle_gamma   139.25359042
_symmetry_Int_Tables_number   1
_chemical_formula_structural   Rb2AlSn11
_chemical_formula_sum   'Rb2 Al1 Sn11'
_cell_volume   468.33505885
_cell_formula_units_Z   1
loop_
 _symmetry_equiv_pos_site_id
 _symmetry_equiv_pos_as_xyz
  1  'x, y, z'
loop_
 _atom_site_type_symbol
 _atom_site_label
 _atom_site_symmetry_multiplicity
 _atom_site_fract_x
 _atom_site_fract_y
 _atom_site_fract_z
 _atom_site_occupancy
  Rb  Rb0  1  0.70979330  0.29020670  0.24174557  1
  Rb  Rb1  1  0.29007711  0.70992289  0.75844302  1
  Al  Al0  1  0.75681200  0.24318800  0.95295526  1
  Sn  Sn0  1  0.24671077  0.75328923  0.03912489  1
  Sn  Sn1  1  0.75467039  0.24532961  0.55504101  1
  Sn  Sn2  1  0.24460997  0.75539003  0.44847602  1
  Sn  Sn3  1  0.57558048  0.42441952  0.85513703  1
  Sn  Sn4  1  0.43001088  0.56998912  0.15051193  1
  Sn  Sn5  1  0.56840275  0.43159725  0.66258460  1
  Sn  Sn6  1  0.43125849  0.56874151  0.34247875  1
  Sn  Sn7  1  0.96252675  0.03747325  0.90369303  1
  Sn  Sn8  1  0.02935929  0.97064071  0.08658440  1
  Sn  Sn9  1  0.97342805  0.02657195  0.59463298  1
  Sn  Sn10  1  0.02675977  0.97324023  0.40859052  1
loop_
_geom_bond_atom_site_label_1
_geom_bond_atom_site_label_2
_geom_bond_distance
_geom_bond_site_symmetry_2
Rb0 Sn4 3.871399 1_555
Rb0 Sn6 3.911209 1_555
Rb0 Sn0 3.914255 1_545
Rb0 Sn0 3.914255 1_655
Rb0 Sn2 3.959122 1_655
Rb0 Sn2 3.959122 1_545
Rb0 Sn4 3.972957 1_655
Rb0 Sn4 3.972957 1_545
Rb0 Sn6 4.034939 1_655
Rb0 Sn6 4.034940 1_545
Rb0 Sn8 4.084178 1_545
Rb0 Sn8 4.084179 1_655
Rb0 Sn10 4.207892 1_545
Rb0 Sn10 4.207893 1_655
Rb1 Sn5 3.880746 1_555
Rb1 Sn1 3.920675 1_455
Rb1 Sn1 3.920675 1_565
Rb1 Sn7 3.941274 1_565
Rb1 Sn7 3.941274 1_455
Rb1 Sn3 3.949829 1_455
Rb1 Sn3 3.949829 1_565
Rb1 Sn3 3.970084 1_555
Rb1 Sn5 4.009856 1_455
Rb1 Sn5 4.009857 1_565
Rb1 Sn9 4.183050 1_565
Rb1 Sn9 4.183050 1_455
Al0 Sn0 2.733975 1_656
Al0 Sn0 2.733975 1_546
Al0 Sn7 2.763619 1_555
Al0 Sn3 2.768817 1_555
Al0 Rb1 3.814087 1_545
Al0 Rb1 3.814087 1_655
Sn0 Sn8 2.902104 1_555
Sn0 Sn4 2.904539 1_555
Sn1 Sn9 2.892228 1_555
Sn1 Sn2 2.892466 1_545
Sn1 Sn2 2.892466 1_655
Sn1 Sn5 2.904883 1_555
Sn2 Sn6 2.896050 1_555
Sn3 Sn5 2.902557 1_555
Sn3 Sn7 2.906525 1_455
Sn3 Sn7 2.906525 1_565
Sn4 Sn8 2.890202 1_655
Sn4 Sn8 2.890202 1_545
Sn4 Sn6 2.892338 1_555
Sn5 Sn9 2.885910 1_455
Sn5 Sn9 2.885911 1_565
Sn7 Sn8 2.887564 1_646
Sn10 Sn6 2.879116 1_455
Sn10 Sn6 2.879116 1_565
Sn10 Sn2 2.881656 1_555
Sn10 Sn9 2.887127 1_465
