# generated using pymatgen
data_Hf6Al16Ir6Pt
_symmetry_space_group_name_H-M   'P 1'
_cell_length_a   8.68058185
_cell_length_b   8.64527329
_cell_length_c   8.64527329
_cell_angle_alpha   60.14316129
_cell_angle_beta   59.86481118
_cell_angle_gamma   59.86481214
_symmetry_Int_Tables_number   1
_chemical_formula_structural   Hf6Al16Ir6Pt
_chemical_formula_sum   'Hf6 Al16 Ir6 Pt1'
_cell_volume   458.31764827
_cell_formula_units_Z   1
loop_
 _symmetry_equiv_pos_site_id
 _symmetry_equiv_pos_as_xyz
  1  'x, y, z'
loop_
 _atom_site_type_symbol
 _atom_site_label
 _atom_site_symmetry_multiplicity
 _atom_site_fract_x
 _atom_site_fract_y
 _atom_site_fract_z
 _atom_site_occupancy
  Hf  Hf0  1  0.67363021  0.32636979  0.32636979  1
  Hf  Hf1  1  0.32636979  0.67363021  0.67363021  1
  Hf  Hf2  1  0.30953119  0.68940887  0.31059113  1
  Hf  Hf3  1  0.69046881  0.31059113  0.68940887  1
  Hf  Hf4  1  0.30953119  0.31059113  0.68940887  1
  Hf  Hf5  1  0.69046881  0.68940887  0.31059113  1
  Al  Al0  1  0.33653260  0.33863066  0.33863066  1
  Al  Al1  1  0.66346740  0.66136934  0.66136934  1
  Al  Al2  1  0.33761823  0.33910016  0.98566339  1
  Al  Al3  1  0.33761823  0.98566339  0.33910016  1
  Al  Al4  1  0.66238177  0.66089984  0.01433661  1
  Al  Al5  1  0.66238177  0.01433661  0.66089984  1
  Al  Al6  1  0.98620608  0.33863066  0.33863066  1
  Al  Al7  1  0.01379392  0.66136934  0.66136934  1
  Al  Al8  1  0.11322135  0.12267172  0.12267172  1
  Al  Al9  1  0.88677865  0.87732828  0.87732828  1
  Al  Al10  1  0.12008741  0.11989488  0.63993130  1
  Al  Al11  1  0.12008741  0.63993130  0.11989488  1
  Al  Al12  1  0.87991259  0.88010512  0.36006870  1
  Al  Al13  1  0.87991259  0.36006870  0.88010512  1
  Al  Al14  1  0.64143620  0.12267172  0.12267172  1
  Al  Al15  1  0.35856380  0.87732828  0.87732828  1
  Ir  Ir0  1  0.00000000  0.50000000  0.50000000  1
  Ir  Ir1  1  0.00000000  0.50000000  0.00000000  1
  Ir  Ir2  1  0.50000000  0.00000000  0.50000000  1
  Ir  Ir3  1  0.00000000  0.00000000  0.50000000  1
  Ir  Ir4  1  0.50000000  0.50000000  0.00000000  1
  Ir  Ir5  1  0.00000000  0.00000000  0.00000000  1
  Pt  Pt0  1  0.50000000  0.00000000  0.00000000  1
loop_
_geom_bond_atom_site_label_1
_geom_bond_atom_site_label_2
_geom_bond_distance
_geom_bond_site_symmetry_2
Hf0 Hf5 3.147212 1_555
Hf0 Hf3 3.147212 1_555
Hf0 Hf4 3.147212 1_555
Hf0 Hf2 3.147212 1_555
Hf0 Ir2 3.204283 1_555
Hf0 Ir4 3.204283 1_555
Hf0 Ir1 3.204283 1_655
Hf0 Ir3 3.204283 1_655
Hf1 Hf4 3.147212 1_555
Hf1 Hf2 3.147212 1_555
Hf1 Hf5 3.147212 1_555
Hf1 Hf3 3.147212 1_555
Hf1 Ir2 3.204283 1_565
Hf1 Ir4 3.204283 1_556
Hf1 Ir1 3.204283 1_556
Hf1 Ir3 3.204283 1_565
Hf2 Ir4 3.134766 1_555
Hf2 Ir3 3.134766 1_565
Hf2 Ir0 3.148409 1_555
Hf2 Pt0 3.158306 1_565
Hf2 Hf4 3.282067 1_555
Hf2 Hf5 3.306760 1_555
Hf3 Ir4 3.134766 1_556
Hf3 Ir3 3.134766 1_655
Hf3 Ir0 3.148409 1_655
Hf3 Pt0 3.158306 1_556
Hf3 Hf5 3.282067 1_555
Hf3 Hf4 3.306760 1_555
Hf4 Ir2 3.134766 1_555
Hf4 Ir1 3.134766 1_556
Hf4 Ir0 3.148409 1_555
Hf4 Pt0 3.158306 1_556
Hf5 Ir2 3.134766 1_565
Hf5 Ir1 3.134766 1_655
Hf5 Ir0 3.148409 1_655
Hf5 Pt0 3.158306 1_565
Al0 Ir0 2.485986 1_555
Al0 Ir4 2.506079 1_555
Al0 Ir2 2.506079 1_555
Al0 Al14 2.743001 1_555
Al0 Al10 2.764089 1_555
Al0 Al11 2.764089 1_555
Al0 Hf4 2.814535 1_555
Al0 Hf2 2.814535 1_555
Al0 Hf0 2.823729 1_555
Al0 Al6 3.041038 1_455
Al0 Al2 3.044763 1_554
Al0 Al3 3.044763 1_545
Al1 Ir0 2.485986 1_655
Al1 Ir4 2.506079 1_556
Al1 Ir2 2.506079 1_565
Al1 Al15 2.743001 1_555
Al1 Al12 2.764089 1_555
Al1 Al13 2.764089 1_555
Al1 Hf5 2.814535 1_555
Al1 Hf3 2.814535 1_555
Al1 Hf1 2.823729 1_555
Al1 Al7 3.041038 1_655
Al1 Al4 3.044763 1_556
Al1 Al5 3.044763 1_565
Al2 Ir4 2.500604 1_556
Al2 Ir1 2.500605 1_556
Al2 Pt0 2.502210 1_556
Al2 Al8 2.799014 1_556
Al2 Hf1 2.804257 1_555
Al2 Hf4 2.827685 1_555
Al2 Hf3 2.827685 1_555
Al2 Al6 3.044763 1_456
Al2 Al3 3.062167 1_546
Al3 Ir2 2.500605 1_565
Al3 Ir3 2.500605 1_565
Al3 Pt0 2.502210 1_565
Al3 Al8 2.799014 1_565
Al3 Hf1 2.804257 1_555
Al3 Hf2 2.827685 1_555
Al3 Hf5 2.827685 1_555
Al3 Al6 3.044763 1_465
Al4 Ir4 2.500604 1_555
Al4 Ir1 2.500605 1_655
Al4 Pt0 2.502210 1_565
Al4 Al9 2.799014 1_554
Al4 Hf0 2.804257 1_555
Al4 Hf5 2.827685 1_555
Al4 Hf2 2.827685 1_555
Al4 Al7 3.044763 1_654
Al4 Al5 3.062167 1_564
Al5 Ir2 2.500605 1_555
Al5 Ir3 2.500605 1_655
Al5 Pt0 2.502210 1_556
Al5 Al9 2.799014 1_545
Al5 Hf0 2.804257 1_555
Al5 Hf3 2.827685 1_555
Al5 Hf4 2.827685 1_555
Al5 Al7 3.044763 1_645
Al6 Ir0 2.485986 1_655
Al6 Ir1 2.506079 1_655
Al6 Ir3 2.506079 1_655
Al6 Al8 2.742999 1_655
Al6 Hf3 2.814536 1_555
Al6 Hf5 2.814536 1_555
Al6 Hf0 2.823729 1_555
Al7 Ir0 2.485986 1_555
Al7 Ir1 2.506079 1_556
Al7 Ir3 2.506079 1_565
Al7 Al9 2.742999 1_455
Al7 Hf2 2.814536 1_555
Al7 Hf4 2.814536 1_555
Al7 Hf1 2.823729 1_555
Al8 Ir5 2.535430 1_555
Al8 Ir3 2.667363 1_555
Al8 Ir1 2.667363 1_555
Al8 Pt0 2.737042 1_555
Al8 Hf4 3.144075 1_554
Al8 Hf2 3.144075 1_545
Al8 Hf0 3.218173 1_455
Al9 Ir5 2.535430 1_666
Al9 Ir3 2.667363 1_665
Al9 Ir1 2.667363 1_656
Al9 Pt0 2.737042 1_566
Al9 Hf5 3.144075 1_556
Al9 Hf3 3.144075 1_565
Al9 Hf1 3.218173 1_655
Al10 Ir5 2.542680 1_556
Al10 Ir0 2.686490 1_555
Al10 Ir2 2.687772 1_555
Al10 Ir3 2.687779 1_555
Al10 Al3 2.747734 1_545
Al10 Al6 2.764094 1_455
Al10 Al15 2.918394 1_545
Al10 Al9 2.918407 1_445
Al10 Al13 2.927226 1_455
Al10 Hf4 3.120236 1_555
Al10 Hf3 3.120244 1_455
Al10 Hf1 3.262527 1_545
Al11 Ir5 2.542680 1_565
Al11 Ir0 2.686490 1_555
Al11 Ir4 2.687772 1_555
Al11 Ir1 2.687779 1_555
Al11 Al2 2.747734 1_554
Al11 Al6 2.764094 1_455
Al11 Al15 2.918394 1_554
Al11 Al9 2.918407 1_454
Al11 Al12 2.927226 1_455
Al11 Hf2 3.120236 1_555
Al11 Hf5 3.120244 1_455
Al11 Hf1 3.262527 1_554
Al12 Ir5 2.542680 1_665
Al12 Ir0 2.686490 1_655
Al12 Ir2 2.687772 1_565
Al12 Ir3 2.687779 1_665
Al12 Al5 2.747734 1_565
Al12 Al7 2.764094 1_655
Al12 Al14 2.918394 1_565
Al12 Al8 2.918407 1_665
Al12 Hf5 3.120236 1_555
Al12 Hf2 3.120244 1_655
Al12 Hf0 3.262527 1_565
Al13 Ir5 2.542680 1_656
Al13 Ir0 2.686490 1_655
Al13 Ir4 2.687772 1_556
Al13 Ir1 2.687779 1_656
Al13 Al4 2.747734 1_556
Al13 Al7 2.764094 1_655
Al13 Al14 2.918394 1_556
Al13 Al8 2.918407 1_656
Al13 Hf3 3.120236 1_555
Al13 Hf4 3.120244 1_655
Al13 Hf0 3.262527 1_556
Al14 Ir5 2.535423 1_655
Al14 Ir2 2.667363 1_555
Al14 Ir4 2.667363 1_555
Al14 Pt0 2.737049 1_555
Al14 Al3 2.799021 1_545
Al14 Al2 2.799021 1_554
Al14 Al9 2.990233 1_544
Al14 Hf3 3.144077 1_554
Al14 Hf5 3.144077 1_545
Al14 Hf0 3.218168 1_555
Al15 Ir5 2.535423 1_566
Al15 Ir2 2.667363 1_565
Al15 Ir4 2.667363 1_556
Al15 Pt0 2.737049 1_566
Al15 Al5 2.799021 1_565
Al15 Al4 2.799021 1_556
Al15 Al8 2.990233 1_566
Al15 Hf2 3.144077 1_556
Al15 Hf4 3.144077 1_565
Al15 Hf1 3.218168 1_555
