# generated using pymatgen
data_K2LiIrCl6
_symmetry_space_group_name_H-M   'P 1'
_cell_length_a   6.88875188
_cell_length_b   6.88875200
_cell_length_c   6.07952706
_cell_angle_alpha   90.00000000
_cell_angle_beta   90.00000000
_cell_angle_gamma   119.99999479
_symmetry_Int_Tables_number   1
_chemical_formula_structural   K2LiIrCl6
_chemical_formula_sum   'K2 Li1 Ir1 Cl6'
_cell_volume   249.85125984
_cell_formula_units_Z   1
loop_
 _symmetry_equiv_pos_site_id
 _symmetry_equiv_pos_as_xyz
  1  'x, y, z'
loop_
 _atom_site_type_symbol
 _atom_site_label
 _atom_site_symmetry_multiplicity
 _atom_site_fract_x
 _atom_site_fract_y
 _atom_site_fract_z
 _atom_site_occupancy
  K  K0  1  0.33333300  0.66666700  0.31264952  1
  K  K1  1  0.66666700  0.33333300  0.68735048  1
  Li  Li0  1  0.00000000  0.00000000  0.00000000  1
  Ir  Ir0  1  0.00000000  0.00000000  0.50000000  1
  Cl  Cl0  1  0.83987789  0.16012211  0.27074501  1
  Cl  Cl1  1  0.16012211  0.83987789  0.72925499  1
  Cl  Cl2  1  0.83987789  0.67975478  0.27074501  1
  Cl  Cl3  1  0.16012211  0.32024522  0.72925499  1
  Cl  Cl4  1  0.32024522  0.16012211  0.27074501  1
  Cl  Cl5  1  0.67975478  0.83987789  0.72925499  1
loop_
_geom_bond_atom_site_label_1
_geom_bond_atom_site_label_2
_geom_bond_distance
_geom_bond_site_symmetry_2
Cl0 Ir0 2.364883 1_655
Cl0 Li0 2.521790 1_655
Cl0 K1 3.268963 1_555
Cl0 K0 3.454668 1_545
Cl0 K0 3.454668 1_655
Cl1 Ir0 2.364883 1_565
Cl1 Li0 2.521790 1_566
Cl1 K0 3.268963 1_555
Cl1 K1 3.454668 1_565
Cl1 K1 3.454668 1_455
Cl2 Ir0 2.364888 1_665
Cl2 Li0 2.521794 1_665
Cl2 K1 3.268964 1_555
Cl2 K0 3.454660 1_655
Cl2 K0 3.454674 1_555
Cl3 Ir0 2.364888 1_555
Cl3 Li0 2.521794 1_556
Cl3 K0 3.268964 1_555
Cl3 K1 3.454660 1_455
Cl3 K1 3.454674 1_555
Cl4 Ir0 2.364888 1_555
Cl4 Li0 2.521794 1_555
Cl4 K1 3.268964 1_555
Cl4 K0 3.454660 1_545
Cl4 K0 3.454674 1_555
Cl5 Ir0 2.364888 1_665
Cl5 Li0 2.521794 1_666
Cl5 K0 3.268964 1_555
Cl5 K1 3.454660 1_565
Cl5 K1 3.454674 1_555
