# generated using pymatgen
data_Ba3(CrS3)2
_symmetry_space_group_name_H-M   'P 1'
_cell_length_a   8.12930336
_cell_length_b   8.12930336
_cell_length_c   8.12930387
_cell_angle_alpha   94.48184481
_cell_angle_beta   94.48184481
_cell_angle_gamma   94.48184268
_symmetry_Int_Tables_number   1
_chemical_formula_structural   Ba3(CrS3)2
_chemical_formula_sum   'Ba6 Cr4 S12'
_cell_volume   532.02739157
_cell_formula_units_Z   2
loop_
 _symmetry_equiv_pos_site_id
 _symmetry_equiv_pos_as_xyz
  1  'x, y, z'
loop_
 _atom_site_type_symbol
 _atom_site_label
 _atom_site_symmetry_multiplicity
 _atom_site_fract_x
 _atom_site_fract_y
 _atom_site_fract_z
 _atom_site_occupancy
  Ba  Ba0  1  0.36500400  0.75000000  0.13499600  1
  Ba  Ba1  1  0.13499600  0.36500400  0.75000000  1
  Ba  Ba2  1  0.75000000  0.13499600  0.36500400  1
  Ba  Ba3  1  0.63499600  0.25000000  0.86500400  1
  Ba  Ba4  1  0.86500400  0.63499600  0.25000000  1
  Ba  Ba5  1  0.25000000  0.86500400  0.63499600  1
  Cr  Cr0  1  0.50000000  0.50000000  0.50000000  1
  Cr  Cr1  1  0.00000000  0.00000000  0.00000000  1
  Cr  Cr2  1  0.25000000  0.25000000  0.25000000  1
  Cr  Cr3  1  0.75000000  0.75000000  0.75000000  1
  S  S0  1  0.51761600  0.40868100  0.20955400  1
  S  S1  1  0.20955400  0.51761600  0.40868100  1
  S  S2  1  0.40868100  0.20955400  0.51761600  1
  S  S3  1  0.98238400  0.29044600  0.09131900  1
  S  S4  1  0.09131900  0.98238400  0.29044600  1
  S  S5  1  0.29044600  0.09131900  0.98238400  1
  S  S6  1  0.48238400  0.59131900  0.79044600  1
  S  S7  1  0.79044600  0.48238400  0.59131900  1
  S  S8  1  0.59131900  0.79044600  0.48238400  1
  S  S9  1  0.01761600  0.70955400  0.90868100  1
  S  S10  1  0.70955400  0.90868100  0.01761600  1
  S  S11  1  0.90868100  0.01761600  0.70955400  1
loop_
_geom_bond_atom_site_label_1
_geom_bond_atom_site_label_2
_geom_bond_distance
_geom_bond_site_symmetry_2
Ba0 S0 3.207602 1_555
Ba0 S5 3.207602 1_564
Ba0 S9 3.227438 1_554
Ba0 S8 3.227438 1_555
Ba0 S10 3.235007 1_555
Ba0 S6 3.235008 1_554
Ba0 S4 3.292255 1_555
Ba0 S1 3.292255 1_555
Ba1 S3 3.207603 1_456
Ba1 S1 3.207603 1_555
Ba1 S11 3.227438 1_455
Ba1 S6 3.227438 1_555
Ba1 S9 3.235007 1_555
Ba1 S7 3.235007 1_455
Ba1 S5 3.292255 1_555
Ba1 S2 3.292255 1_555
Ba2 S4 3.207602 1_645
Ba2 S2 3.207602 1_555
Ba2 S7 3.227438 1_555
Ba2 S10 3.227438 1_545
Ba2 S8 3.235007 1_545
Ba2 S11 3.235008 1_555
Ba2 S0 3.292255 1_555
Ba2 S3 3.292255 1_555
Ba3 S6 3.207602 1_555
Ba3 S10 3.207602 1_546
Ba3 S3 3.227438 1_556
Ba3 S2 3.227438 1_555
Ba3 S5 3.235007 1_555
Ba3 S0 3.235008 1_556
Ba3 S11 3.292255 1_555
Ba3 S7 3.292255 1_555
Ba4 S7 3.207603 1_555
Ba4 S9 3.207603 1_654
Ba4 S0 3.227438 1_555
Ba4 S4 3.227438 1_655
Ba4 S3 3.235007 1_555
Ba4 S1 3.235007 1_655
Ba4 S10 3.292255 1_555
Ba4 S8 3.292255 1_555
Ba5 S11 3.207602 1_465
Ba5 S8 3.207602 1_555
Ba5 S1 3.227438 1_555
Ba5 S5 3.227438 1_565
Ba5 S2 3.235007 1_565
Ba5 S4 3.235008 1_555
Ba5 S6 3.292255 1_555
Ba5 S9 3.292255 1_555
Cr0 S1 2.437628 1_555
Cr0 S7 2.437628 1_555
Cr0 S8 2.437628 1_555
Cr0 S2 2.437628 1_555
Cr0 S0 2.437628 1_555
Cr0 S6 2.437628 1_555
Cr1 S3 2.437628 1_455
Cr1 S9 2.437628 1_544
Cr1 S10 2.437628 1_445
Cr1 S5 2.437628 1_554
Cr1 S4 2.437628 1_545
Cr1 S11 2.437628 1_454
Cr2 S3 2.498908 1_455
Cr2 S1 2.498908 1_555
Cr2 S0 2.498908 1_555
Cr2 S4 2.498908 1_545
Cr2 S5 2.498908 1_554
Cr2 S2 2.498908 1_555
Cr3 S7 2.498908 1_555
Cr3 S9 2.498908 1_655
Cr3 S11 2.498908 1_565
Cr3 S6 2.498908 1_555
Cr3 S8 2.498908 1_555
Cr3 S10 2.498908 1_556
