# generated using pymatgen
data_Cs2SbIr3S8
_symmetry_space_group_name_H-M   'P 1'
_cell_length_a   6.27992856
_cell_length_b   7.26259141
_cell_length_c   16.20123095
_cell_angle_alpha   89.85954092
_cell_angle_beta   90.00000000
_cell_angle_gamma   90.00000000
_symmetry_Int_Tables_number   1
_chemical_formula_structural   Cs2SbIr3S8
_chemical_formula_sum   'Cs4 Sb2 Ir6 S16'
_cell_volume   738.91251587
_cell_formula_units_Z   2
loop_
 _symmetry_equiv_pos_site_id
 _symmetry_equiv_pos_as_xyz
  1  'x, y, z'
loop_
 _atom_site_type_symbol
 _atom_site_label
 _atom_site_symmetry_multiplicity
 _atom_site_fract_x
 _atom_site_fract_y
 _atom_site_fract_z
 _atom_site_occupancy
  Cs  Cs0  1  0.35282906  0.00000000  0.00000000  1
  Cs  Cs1  1  0.64717094  0.50000000  0.50000000  1
  Cs  Cs2  1  0.01763262  0.00000000  0.50000000  1
  Cs  Cs3  1  0.98236738  0.50000000  0.00000000  1
  Sb  Sb0  1  0.50000000  0.25000000  0.25000000  1
  Sb  Sb1  1  0.50000000  0.75000000  0.75000000  1
  Ir  Ir0  1  0.00144846  0.99885971  0.25079048  1
  Ir  Ir1  1  0.00144846  0.00114029  0.74920952  1
  Ir  Ir2  1  0.99855154  0.50114029  0.24920952  1
  Ir  Ir3  1  0.99855154  0.49885971  0.75079048  1
  Ir  Ir4  1  0.50000000  0.75000000  0.25000000  1
  Ir  Ir5  1  0.50000000  0.25000000  0.75000000  1
  S  S0  1  0.85337357  0.25098560  0.32777742  1
  S  S1  1  0.85337357  0.74901440  0.67222258  1
  S  S2  1  0.16543540  0.75094631  0.17648846  1
  S  S3  1  0.16543540  0.24905369  0.82351154  1
  S  S4  1  0.14662643  0.24901440  0.17222258  1
  S  S5  1  0.14662643  0.75098560  0.82777742  1
  S  S6  1  0.83456460  0.74905369  0.32351154  1
  S  S7  1  0.83456460  0.25094631  0.67648846  1
  S  S8  1  0.68096575  0.98428500  0.17315201  1
  S  S9  1  0.68096575  0.01571500  0.82684799  1
  S  S10  1  0.31903425  0.51571500  0.32684799  1
  S  S11  1  0.31903425  0.48428500  0.67315201  1
  S  S12  1  0.32685944  0.98353427  0.32701911  1
  S  S13  1  0.32685944  0.01646573  0.67298089  1
  S  S14  1  0.67314056  0.51646573  0.17298089  1
  S  S15  1  0.67314056  0.48353427  0.82701911  1
loop_
_geom_bond_atom_site_label_1
_geom_bond_atom_site_label_2
_geom_bond_distance
_geom_bond_site_symmetry_2
Cs0 S9 3.482443 1_554
Cs0 S8 3.482443 1_545
Cs0 S4 3.571772 1_555
Cs0 S5 3.571772 1_544
Cs0 S2 3.578684 1_545
Cs0 S3 3.578684 1_554
Cs1 S11 3.482443 1_555
Cs1 S10 3.482443 1_555
Cs1 S1 3.571772 1_555
Cs1 S0 3.571772 1_555
Cs1 S7 3.578684 1_555
Cs1 S6 3.578684 1_555
Cs2 S13 3.411895 1_555
Cs2 S12 3.411895 1_545
Cs2 S1 3.485264 1_445
Cs2 S0 3.485264 1_455
Cs2 S7 3.583937 1_455
Cs2 S6 3.583937 1_445
Cs3 S14 3.411895 1_555
Cs3 S15 3.411895 1_554
Cs3 S4 3.485264 1_655
Cs3 S5 3.485264 1_654
Cs3 S2 3.583937 1_655
Cs3 S3 3.583937 1_654
Ir0 S8 2.375839 1_455
Ir0 S12 2.390201 1_555
Ir0 S4 2.395996 1_565
Ir0 S2 2.400426 1_555
Ir0 S6 2.401544 1_455
Ir0 S0 2.405100 1_465
Ir1 S9 2.375839 1_455
Ir1 S13 2.390201 1_555
Ir1 S5 2.395996 1_545
Ir1 S3 2.400426 1_555
Ir1 S7 2.401544 1_455
Ir1 S1 2.405100 1_445
Ir2 S10 2.375839 1_655
Ir2 S14 2.390201 1_555
Ir2 S0 2.395996 1_555
Ir2 S6 2.400426 1_555
Ir2 S2 2.401544 1_655
Ir2 S4 2.405100 1_655
Ir3 S11 2.375839 1_655
Ir3 S15 2.390201 1_555
Ir3 S1 2.395996 1_555
Ir3 S7 2.400426 1_555
Ir3 S3 2.401544 1_655
Ir3 S5 2.405100 1_655
Ir4 S12 2.371976 1_555
Ir4 S14 2.371976 1_555
Ir4 S10 2.392990 1_555
Ir4 S8 2.392990 1_555
Ir4 S6 2.415121 1_555
Ir4 S2 2.415121 1_555
Ir5 S15 2.371976 1_555
Ir5 S13 2.371976 1_555
Ir5 S9 2.392990 1_555
Ir5 S11 2.392990 1_555
Ir5 S3 2.415121 1_555
Ir5 S7 2.415121 1_555
S0 Sb0 2.551979 1_555
S1 Sb1 2.551979 1_555
S4 Sb0 2.551979 1_555
S5 Sb1 2.551979 1_555
S8 Sb0 2.564655 1_565
S9 Sb1 2.564655 1_545
S10 Sb0 2.564655 1_555
S11 Sb1 2.564655 1_555
S12 Sb0 2.544119 1_565
S13 Sb1 2.544119 1_545
S14 Sb0 2.544119 1_555
S15 Sb1 2.544119 1_555
