# generated using pymatgen
data_Rb2Se(S4O13)2
_symmetry_space_group_name_H-M   'P 1'
_cell_length_a   7.61889325
_cell_length_b   8.53263074
_cell_length_c   9.22947211
_cell_angle_alpha   106.87323564
_cell_angle_beta   87.74572053
_cell_angle_gamma   108.43264737
_symmetry_Int_Tables_number   1
_chemical_formula_structural   Rb2Se(S4O13)2
_chemical_formula_sum   'Rb2 Se1 S8 O26'
_cell_volume   543.80341034
_cell_formula_units_Z   1
loop_
 _symmetry_equiv_pos_site_id
 _symmetry_equiv_pos_as_xyz
  1  'x, y, z'
loop_
 _atom_site_type_symbol
 _atom_site_label
 _atom_site_symmetry_multiplicity
 _atom_site_fract_x
 _atom_site_fract_y
 _atom_site_fract_z
 _atom_site_occupancy
  Rb  Rb0  1  0.13267767  0.27139378  0.88181647  1
  Rb  Rb1  1  0.86732233  0.72860622  0.11818353  1
  Se  Se0  1  0.50000000  0.50000000  0.50000000  1
  S  S0  1  0.67485551  0.36079153  0.71819313  1
  S  S1  1  0.32514449  0.63920847  0.28180687  1
  S  S2  1  0.86777316  0.18413482  0.48487339  1
  S  S3  1  0.13222684  0.81586518  0.51512661  1
  S  S4  1  0.38591190  0.14583031  0.22067565  1
  S  S5  1  0.61408810  0.85416969  0.77932435  1
  S  S6  1  0.78676417  0.22080394  0.19414291  1
  S  S7  1  0.21323583  0.77919606  0.80585709  1
  O  O0  1  0.69366309  0.18123657  0.58111440  1
  O  O1  1  0.30633691  0.81876343  0.41888560  1
  O  O2  1  0.71107156  0.48522029  0.62780584  1
  O  O3  1  0.28892844  0.51477971  0.37219416  1
  O  O4  1  0.82116961  0.40956858  0.82930606  1
  O  O5  1  0.17883039  0.59043142  0.17069394  1
  O  O6  1  0.83815395  0.29517396  0.37516828  1
  O  O7  1  0.16184605  0.70482604  0.62483172  1
  O  O8  1  0.03205190  0.29018787  0.57325250  1
  O  O9  1  0.96794810  0.70981213  0.42674750  1
  O  O10  1  0.48898423  0.29661304  0.75458863  1
  O  O11  1  0.51101577  0.70338696  0.24541137  1
  O  O12  1  0.84178361  0.01237733  0.39702981  1
  O  O13  1  0.15821639  0.98762267  0.60297019  1
  O  O14  1  0.41281515  0.23333570  0.38624042  1
  O  O15  1  0.58718485  0.76666430  0.61375958  1
  O  O16  1  0.58804536  0.08942393  0.18365592  1
  O  O17  1  0.41195464  0.91057607  0.81634408  1
  O  O18  1  0.78554461  0.36761968  0.15421315  1
  O  O19  1  0.21445539  0.63238032  0.84578685  1
  O  O20  1  0.90380174  0.12301525  0.12716720  1
  O  O21  1  0.09619826  0.87698475  0.87283280  1
  O  O22  1  0.38596661  0.25263867  0.12809849  1
  O  O23  1  0.61403339  0.74736133  0.87190151  1
  O  O24  1  0.25619236  0.97744152  0.18772356  1
  O  O25  1  0.74380764  0.02255848  0.81227644  1
loop_
_geom_bond_atom_site_label_1
_geom_bond_atom_site_label_2
_geom_bond_distance
_geom_bond_site_symmetry_2
O0 S2 1.564797 1_555
O0 S0 1.722724 1_555
O1 S3 1.564797 1_555
O1 S1 1.722724 1_555
O2 S0 1.486634 1_555
O2 Se0 2.087398 1_555
O3 S1 1.486634 1_555
O3 Se0 2.087398 1_555
O4 S0 1.419977 1_555
O4 Rb0 3.073982 1_655
O4 Rb1 3.146082 1_556
O5 S1 1.419977 1_555
O5 Rb1 3.073982 1_455
O5 Rb0 3.146082 1_554
O6 S6 1.620593 1_555
O6 S2 1.638253 1_555
O7 S7 1.620593 1_555
O7 S3 1.638253 1_555
O8 S2 1.409384 1_455
O8 Rb0 3.039497 1_555
O9 S3 1.409384 1_655
O9 Rb1 3.039497 1_555
O10 S0 1.413190 1_555
O10 Rb0 2.884623 1_555
O11 S1 1.413190 1_555
O11 Rb1 2.884623 1_555
O12 S2 1.408439 1_555
O12 Rb1 3.027399 1_545
O13 S3 1.408439 1_555
O13 Rb0 3.027399 1_565
O14 S4 1.483256 1_555
O14 Se0 2.105486 1_555
O15 S5 1.483256 1_555
O15 Se0 2.105486 1_555
O16 S6 1.559980 1_555
O16 S4 1.746985 1_555
O17 S7 1.559980 1_555
O17 S5 1.746985 1_555
O18 S6 1.407428 1_555
O18 Rb1 3.057921 1_555
O19 S7 1.407428 1_555
O19 Rb0 3.057921 1_555
O20 S6 1.414629 1_555
O20 Rb0 3.119130 1_654
O20 Rb1 3.264662 1_545
O21 S7 1.414629 1_555
O21 Rb1 3.119130 1_456
O21 Rb0 3.264662 1_565
O22 S4 1.418594 1_555
O22 Rb0 3.109337 1_554
O23 S5 1.418594 1_555
O23 Rb1 3.109337 1_556
O24 S4 1.416210 1_565
O24 Rb1 3.013041 1_455
O25 S5 1.416210 1_545
O25 Rb0 3.013041 1_655
