# generated using pymatgen
data_V3TcGeSe8
_symmetry_space_group_name_H-M   'P 1'
_cell_length_a   7.31873989
_cell_length_b   7.31873983
_cell_length_c   7.18552481
_cell_angle_alpha   59.38480374
_cell_angle_beta   59.38480793
_cell_angle_gamma   60.00000343
_symmetry_Int_Tables_number   1
_chemical_formula_structural   V3TcGeSe8
_chemical_formula_sum   'V3 Tc1 Ge1 Se8'
_cell_volume   269.59669045
_cell_formula_units_Z   1
loop_
 _symmetry_equiv_pos_site_id
 _symmetry_equiv_pos_as_xyz
  1  'x, y, z'
loop_
 _atom_site_type_symbol
 _atom_site_label
 _atom_site_symmetry_multiplicity
 _atom_site_fract_x
 _atom_site_fract_y
 _atom_site_fract_z
 _atom_site_occupancy
  V  V0  1  0.60935248  0.60935248  0.59648678  1
  V  V1  1  0.18480926  0.60935248  0.59648678  1
  V  V2  1  0.60935248  0.18480926  0.59648678  1
  Tc  Tc0  1  0.59988635  0.59988635  0.20033995  1
  Ge  Ge0  1  0.00256494  0.00256494  0.99230518  1
  Se  Se0  1  0.36567254  0.36567254  0.37459262  1
  Se  Se1  1  0.89406330  0.36567254  0.37459262  1
  Se  Se2  1  0.36567254  0.89406330  0.37459262  1
  Se  Se3  1  0.37252655  0.37252655  0.88242134  1
  Se  Se4  1  0.85786447  0.85786447  0.86794201  1
  Se  Se5  1  0.41632805  0.85786447  0.86794201  1
  Se  Se6  1  0.85786447  0.41632805  0.86794201  1
  Se  Se7  1  0.86404357  0.86404357  0.40787029  1
loop_
_geom_bond_atom_site_label_1
_geom_bond_atom_site_label_2
_geom_bond_distance
_geom_bond_site_symmetry_2
Ge0 Se7 2.415185 1_446
Ge0 Se6 2.467981 1_455
Ge0 Se5 2.467981 1_545
Ge0 Se4 2.467987 1_445
Se0 V2 2.420924 1_555
Se0 V1 2.420924 1_555
Se0 Tc0 2.451639 1_555
Se1 V2 2.420924 1_555
Se1 V0 2.420924 1_555
Se1 Tc0 2.451650 1_555
Se2 V1 2.420924 1_555
Se2 V0 2.420924 1_555
Se2 Tc0 2.451650 1_555
Se3 V1 2.445329 1_555
Se3 V0 2.445330 1_555
Se3 V2 2.445330 1_555
Se4 Tc0 2.685670 1_556
Se4 V2 2.710309 1_565
Se4 V1 2.710309 1_655
Se5 Tc0 2.685670 1_556
Se5 V0 2.710306 1_555
Se5 V2 2.710317 1_565
Se6 Tc0 2.685670 1_556
Se6 V0 2.710306 1_555
Se6 V1 2.710318 1_655
Se7 V0 2.667253 1_555
Se7 V1 2.667253 1_655
Se7 V2 2.667253 1_565
