# generated using pymatgen
data_Cd2PCl2
_symmetry_space_group_name_H-M   'P 1'
_cell_length_a   9.11777300
_cell_length_b   7.85369800
_cell_length_c   8.14137521
_cell_angle_alpha   60.35825975
_cell_angle_beta   90.00000000
_cell_angle_gamma   90.00000000
_symmetry_Int_Tables_number   1
_chemical_formula_structural   Cd2PCl2
_chemical_formula_sum   'Cd8 P4 Cl8'
_cell_volume   506.69650934
_cell_formula_units_Z   4
loop_
 _symmetry_equiv_pos_site_id
 _symmetry_equiv_pos_as_xyz
  1  'x, y, z'
loop_
 _atom_site_type_symbol
 _atom_site_label
 _atom_site_symmetry_multiplicity
 _atom_site_fract_x
 _atom_site_fract_y
 _atom_site_fract_z
 _atom_site_occupancy
  Cd  Cd0  1  0.41918400  0.43067400  0.26804600  1
  Cd  Cd1  1  0.91918400  0.56932600  0.23195400  1
  Cd  Cd2  1  0.58081600  0.56932600  0.73195400  1
  Cd  Cd3  1  0.08081600  0.43067400  0.76804600  1
  Cd  Cd4  1  0.29513000  0.96876400  0.20908500  1
  Cd  Cd5  1  0.79513000  0.03123600  0.29091500  1
  Cd  Cd6  1  0.70487000  0.03123600  0.79091500  1
  Cd  Cd7  1  0.20487000  0.96876400  0.70908500  1
  P  P0  1  0.89136800  0.93466900  0.05526600  1
  P  P1  1  0.10863200  0.06533100  0.94473400  1
  P  P2  1  0.60863200  0.93466900  0.55526600  1
  P  P3  1  0.39136800  0.06533100  0.44473400  1
  Cl  Cl0  1  0.02670100  0.24325900  0.30555500  1
  Cl  Cl1  1  0.47329900  0.24325900  0.80555500  1
  Cl  Cl2  1  0.52670100  0.75674100  0.19444500  1
  Cl  Cl3  1  0.97329900  0.75674100  0.69444500  1
  Cl  Cl4  1  0.19597100  0.57884700  0.42229200  1
  Cl  Cl5  1  0.69597100  0.42115300  0.07770800  1
  Cl  Cl6  1  0.80402900  0.42115300  0.57770800  1
  Cl  Cl7  1  0.30402900  0.57884700  0.92229200  1
loop_
_geom_bond_atom_site_label_1
_geom_bond_atom_site_label_2
_geom_bond_distance
_geom_bond_site_symmetry_2
Cd0 P3 2.506742 1_555
Cd0 Cl2 2.521924 1_555
Cd0 Cl7 2.672109 1_554
Cd0 Cl4 2.918688 1_555
Cd0 Cl5 2.981690 1_555
Cd1 P0 2.506742 1_555
Cd1 Cl0 2.521924 1_655
Cd1 Cl6 2.672109 1_555
Cd1 Cl5 2.918688 1_555
Cd1 Cl4 2.981690 1_655
Cd2 P2 2.506742 1_555
Cd2 Cl1 2.521924 1_555
Cd2 Cl5 2.672109 1_556
Cd2 Cl6 2.918688 1_555
Cd2 Cl7 2.981690 1_555
Cd3 P1 2.506742 1_555
Cd3 Cl3 2.521924 1_455
Cd3 Cl4 2.672109 1_555
Cd3 Cl7 2.918688 1_555
Cd3 Cl6 2.981690 1_455
Cd4 P3 2.542644 1_565
Cd4 P1 2.546382 1_564
Cd4 Cl2 2.727885 1_555
Cd4 Cl4 2.819607 1_555
Cd5 P0 2.542644 1_545
Cd5 P2 2.546382 1_545
Cd5 Cl0 2.727885 1_655
Cd5 Cl5 2.819607 1_555
Cd6 P2 2.542644 1_545
Cd6 P0 2.546382 1_546
Cd6 Cl1 2.727885 1_555
Cd6 Cl6 2.819607 1_555
Cd7 P1 2.542644 1_565
Cd7 P3 2.546382 1_565
Cd7 Cl3 2.727885 1_455
Cd7 Cl7 2.819607 1_555
P0 P1 2.207630 1_664
P2 P3 2.207630 1_565
