# generated using pymatgen
data_SrZn2H8Ru
_symmetry_space_group_name_H-M   'P 1'
_cell_length_a   4.74596570
_cell_length_b   4.74596570
_cell_length_c   10.06117921
_cell_angle_alpha   90.00000000
_cell_angle_beta   90.00000000
_cell_angle_gamma   90.00000000
_symmetry_Int_Tables_number   1
_chemical_formula_structural   SrZn2H8Ru
_chemical_formula_sum   'Sr2 Zn4 H16 Ru2'
_cell_volume   226.61991636
_cell_formula_units_Z   2
loop_
 _symmetry_equiv_pos_site_id
 _symmetry_equiv_pos_as_xyz
  1  'x, y, z'
loop_
 _atom_site_type_symbol
 _atom_site_label
 _atom_site_symmetry_multiplicity
 _atom_site_fract_x
 _atom_site_fract_y
 _atom_site_fract_z
 _atom_site_occupancy
  Sr  Sr0  1  0.50000000  0.00000000  0.00000000  1
  Sr  Sr1  1  0.00000000  0.50000000  0.50000000  1
  Zn  Zn0  1  0.50000000  0.00000000  0.63510357  1
  Zn  Zn1  1  0.00000000  0.50000000  0.13510357  1
  Zn  Zn2  1  0.50000000  0.00000000  0.36489643  1
  Zn  Zn3  1  0.00000000  0.50000000  0.86489643  1
  H  H0  1  0.25150158  0.25150158  0.75000000  1
  H  H1  1  0.74849842  0.74849842  0.75000000  1
  H  H2  1  0.74849842  0.25150158  0.25000000  1
  H  H3  1  0.25150158  0.74849842  0.25000000  1
  H  H4  1  0.74849842  0.74849842  0.25000000  1
  H  H5  1  0.25150158  0.25150158  0.25000000  1
  H  H6  1  0.25150158  0.74849842  0.75000000  1
  H  H7  1  0.74849842  0.25150158  0.75000000  1
  H  H8  1  0.50000000  0.25187898  0.50000000  1
  H  H9  1  0.50000000  0.74812102  0.50000000  1
  H  H10  1  0.74812102  0.50000000  0.00000000  1
  H  H11  1  0.25187898  0.50000000  0.00000000  1
  H  H12  1  0.00000000  0.00000000  0.58437207  1
  H  H13  1  0.00000000  0.00000000  0.08437207  1
  H  H14  1  0.00000000  0.00000000  0.41562793  1
  H  H15  1  0.00000000  0.00000000  0.91562793  1
  Ru  Ru0  1  0.00000000  0.00000000  0.75000000  1
  Ru  Ru1  1  0.00000000  0.00000000  0.25000000  1
loop_
_geom_bond_atom_site_label_1
_geom_bond_atom_site_label_2
_geom_bond_distance
_geom_bond_site_symmetry_2
H0 Ru0 1.688031 1_555
H0 Zn3 2.037633 1_555
H0 Zn0 2.037633 1_555
H1 Ru0 1.688031 1_665
H1 Zn3 2.037633 1_655
H1 Zn0 2.037633 1_565
H2 Ru1 1.688031 1_655
H2 Zn2 2.037633 1_555
H2 Zn1 2.037633 1_655
H3 Ru1 1.688031 1_565
H3 Zn2 2.037633 1_565
H3 Zn1 2.037633 1_555
H4 Ru1 1.688031 1_665
H4 Zn2 2.037633 1_565
H4 Zn1 2.037633 1_655
H5 Ru1 1.688031 1_555
H5 Zn2 2.037633 1_555
H5 Zn1 2.037633 1_555
H6 Ru0 1.688031 1_565
H6 Zn3 2.037633 1_555
H6 Zn0 2.037633 1_565
H7 Ru0 1.688031 1_655
H7 Zn3 2.037633 1_655
H7 Zn0 2.037633 1_555
H8 Zn0 1.810166 1_555
H8 Zn2 1.810166 1_555
H8 Sr1 2.649099 1_655
H8 Sr1 2.649099 1_555
H9 Zn0 1.810166 1_565
H9 Zn2 1.810166 1_565
H9 Sr1 2.649099 1_655
H9 Sr1 2.649099 1_555
H10 Zn1 1.810166 1_655
H10 Zn3 1.810166 1_654
H10 Sr0 2.649099 1_565
H10 Sr0 2.649099 1_555
H11 Zn1 1.810166 1_555
H11 Zn3 1.810166 1_554
H11 Sr0 2.649099 1_565
H11 Sr0 2.649099 1_555
H12 Ru0 1.666412 1_555
H12 Sr1 2.520248 1_545
H12 Sr1 2.520248 1_555
H13 Ru1 1.666412 1_555
H13 Sr0 2.520248 1_455
H13 Sr0 2.520248 1_555
H14 Ru1 1.666412 1_555
H14 Sr1 2.520248 1_545
H14 Sr1 2.520248 1_555
H15 Ru0 1.666412 1_555
H15 Sr0 2.520248 1_456
H15 Sr0 2.520248 1_556
