# generated using pymatgen
data_Zr5AlGeSb2
_symmetry_space_group_name_H-M   'P 1'
_cell_length_a   8.59975980
_cell_length_b   8.63560775
_cell_length_c   5.83267211
_cell_angle_alpha   90.00000000
_cell_angle_beta   90.00000000
_cell_angle_gamma   120.13799618
_symmetry_Int_Tables_number   1
_chemical_formula_structural   Zr5AlGeSb2
_chemical_formula_sum   'Zr10 Al2 Ge2 Sb4'
_cell_volume   374.60350603
_cell_formula_units_Z   2
loop_
 _symmetry_equiv_pos_site_id
 _symmetry_equiv_pos_as_xyz
  1  'x, y, z'
loop_
 _atom_site_type_symbol
 _atom_site_label
 _atom_site_symmetry_multiplicity
 _atom_site_fract_x
 _atom_site_fract_y
 _atom_site_fract_z
 _atom_site_occupancy
  Zr  Zr0  1  0.66373229  0.33095423  0.99415924  1
  Zr  Zr1  1  0.33626771  0.66722294  0.99415924  1
  Zr  Zr2  1  0.33626771  0.66722294  0.50584076  1
  Zr  Zr3  1  0.66373229  0.33095423  0.50584076  1
  Zr  Zr4  1  0.72391801  0.73138095  0.75000000  1
  Zr  Zr5  1  0.27608199  0.00746193  0.75000000  1
  Zr  Zr6  1  1.00000000  0.26958113  0.75000000  1
  Zr  Zr7  1  0.25863284  0.25735627  0.25000000  1
  Zr  Zr8  1  0.74136716  0.99872243  0.25000000  1
  Zr  Zr9  1  0.00000000  0.74142122  0.25000000  1
  Al  Al0  1  0.38930488  0.39033768  0.75000000  1
  Al  Al1  1  0.61069512  0.00103280  0.75000000  1
  Ge  Ge0  1  0.00000000  0.00039914  0.98805471  1
  Ge  Ge1  1  0.00000000  0.00039914  0.51194529  1
  Sb  Sb0  1  1.00000000  0.61292620  0.75000000  1
  Sb  Sb1  1  0.59874235  0.59821144  0.25000000  1
  Sb  Sb2  1  0.40125765  0.99947009  0.25000000  1
  Sb  Sb3  1  0.00000000  0.39494524  0.25000000  1
loop_
_geom_bond_atom_site_label_1
_geom_bond_atom_site_label_2
_geom_bond_distance
_geom_bond_site_symmetry_2
Zr0 Zr3 2.848202 1_555
Zr0 Zr3 2.984470 1_556
Zr1 Zr2 2.848202 1_555
Zr1 Zr2 2.984470 1_556
Al0 Zr4 2.905869 1_555
Al0 Zr5 2.940634 1_555
Al0 Zr6 2.964840 1_455
Al0 Zr1 3.008065 1_555
Al0 Zr2 3.008065 1_555
Al0 Zr0 3.012636 1_555
Al0 Zr3 3.012636 1_555
Al0 Zr7 3.129014 1_555
Al0 Zr7 3.129014 1_556
Al1 Zr5 2.905865 1_555
Al1 Zr4 2.940626 1_545
Al1 Zr6 2.964840 1_555
Al1 Zr0 3.008057 1_555
Al1 Zr3 3.008057 1_555
Al1 Zr1 3.012630 1_545
Al1 Zr2 3.012630 1_545
Al1 Zr8 3.129015 1_545
Al1 Zr8 3.129015 1_546
Ge0 Zr8 2.692424 1_446
Ge0 Zr7 2.692427 1_556
Ge0 Zr6 2.707665 1_455
Ge0 Zr9 2.708491 1_546
Ge0 Zr4 2.724558 1_445
Ge0 Zr5 2.724562 1_555
Ge1 Zr8 2.692424 1_445
Ge1 Zr7 2.692427 1_555
Ge1 Zr6 2.707665 1_455
Ge1 Zr9 2.708491 1_545
Ge1 Zr4 2.724558 1_445
Ge1 Zr5 2.724562 1_555
Sb0 Zr6 2.964993 1_555
Sb0 Zr5 3.020290 1_665
Sb0 Zr4 3.020297 1_555
Sb0 Zr1 3.041211 1_655
Sb0 Zr2 3.041211 1_655
Sb0 Zr0 3.041213 1_555
Sb0 Zr3 3.041213 1_555
Sb0 Zr9 3.120305 1_655
Sb0 Zr9 3.120305 1_656
Sb1 Zr7 2.928098 1_555
Sb1 Zr2 3.004626 1_555
Sb1 Zr1 3.004626 1_554
Sb1 Zr9 3.025160 1_655
Sb1 Zr3 3.026704 1_555
Sb1 Zr0 3.026704 1_554
Sb1 Zr8 3.034277 1_555
Sb1 Zr4 3.121412 1_555
Sb1 Zr4 3.121412 1_554
Sb2 Zr8 2.928107 1_555
Sb2 Zr3 3.004616 1_565
Sb2 Zr0 3.004616 1_564
Sb2 Zr9 3.025161 1_555
Sb2 Zr2 3.026704 1_555
Sb2 Zr1 3.026704 1_554
Sb2 Zr7 3.034277 1_565
Sb2 Zr5 3.121409 1_565
Sb2 Zr5 3.121409 1_564
Sb3 Zr9 2.992031 1_555
Sb3 Zr7 3.002069 1_555
Sb3 Zr8 3.002076 1_445
Sb3 Zr3 3.047963 1_455
Sb3 Zr0 3.047963 1_454
Sb3 Zr2 3.047966 1_555
Sb3 Zr1 3.047966 1_554
Sb3 Zr6 3.110792 1_455
Sb3 Zr6 3.110792 1_454
