# generated using pymatgen
data_Ta4Al5V3
_symmetry_space_group_name_H-M   'P 1'
_cell_length_a   5.04798411
_cell_length_b   5.04800343
_cell_length_c   8.32763910
_cell_angle_alpha   89.99996286
_cell_angle_beta   90.00005983
_cell_angle_gamma   60.00002905
_symmetry_Int_Tables_number   1
_chemical_formula_structural   Ta4Al5V3
_chemical_formula_sum   'Ta4 Al5 V3'
_cell_volume   183.77662662
_cell_formula_units_Z   1
loop_
 _symmetry_equiv_pos_site_id
 _symmetry_equiv_pos_as_xyz
  1  'x, y, z'
loop_
 _atom_site_type_symbol
 _atom_site_label
 _atom_site_symmetry_multiplicity
 _atom_site_fract_x
 _atom_site_fract_y
 _atom_site_fract_z
 _atom_site_occupancy
  Ta  Ta0  1  0.33333784  0.33333179  0.05847775  1
  Ta  Ta1  1  0.66667067  0.66666121  0.93730948  1
  Ta  Ta2  1  0.66666741  0.66666637  0.56270112  1
  Ta  Ta3  1  0.33333511  0.33333642  0.44153091  1
  Al  Al0  1  0.82952880  0.34094347  0.24999371  1
  Al  Al1  1  0.34094006  0.82953504  0.24999401  1
  Al  Al2  1  0.82952475  0.82953151  0.24999396  1
  Al  Al3  1  0.99998412  0.00002307  0.50712385  1
  Al  Al4  1  0.00000546  0.99998969  0.99287337  1
  V  V0  1  0.17500113  0.65000072  0.74999721  1
  V  V1  1  0.65000604  0.17499306  0.75000310  1
  V  V2  1  0.17499961  0.17498867  0.75000154  1
loop_
_geom_bond_atom_site_label_1
_geom_bond_atom_site_label_2
_geom_bond_distance
_geom_bond_site_symmetry_2
Ta0 V1 2.918145 1_554
Ta0 V2 2.918183 1_554
Ta0 V0 2.918189 1_554
Ta0 Ta1 3.084176 1_554
Ta0 Ta1 3.084190 1_454
Ta0 Ta1 3.084218 1_544
Ta0 Ta3 3.189929 1_555
Ta1 V1 2.967981 1_565
Ta1 V2 2.967982 1_565
Ta1 V1 2.967987 1_555
Ta1 V2 2.967992 1_655
Ta1 V0 2.967999 1_555
Ta1 V0 2.968004 1_655
Ta1 Ta2 3.119603 1_555
Ta2 V0 2.967929 1_555
Ta2 V0 2.967933 1_655
Ta2 V2 2.967935 1_565
Ta2 V1 2.967949 1_565
Ta2 V2 2.967973 1_655
Ta2 V1 2.967981 1_555
Ta2 Ta3 3.084181 1_555
Ta2 Ta3 3.084201 1_655
Ta2 Ta3 3.084218 1_565
Ta3 V0 2.918078 1_555
Ta3 V1 2.918129 1_555
Ta3 V2 2.918146 1_555
Al0 Al2 2.466384 1_555
Al0 Al1 2.466401 1_555
Al0 Al1 2.581595 1_645
Al0 Al2 2.581620 1_545
Al0 Al3 2.608908 1_555
Al0 Al4 2.608927 1_644
Al0 Ta1 2.967828 1_554
Al0 Ta2 2.968012 1_555
Al0 Ta0 2.985830 1_555
Al0 Ta0 2.985860 1_655
Al0 Ta3 2.985929 1_555
Al0 Ta3 2.985950 1_655
Al1 Al2 2.466359 1_555
Al1 Al2 2.581625 1_455
Al1 Al4 2.608875 1_554
Al1 Al3 2.608995 1_465
Al1 Ta1 2.967858 1_554
Al1 Ta2 2.968012 1_555
Al1 Ta0 2.985835 1_565
Al1 Ta0 2.985874 1_555
Al1 Ta3 2.985943 1_565
Al1 Ta3 2.985950 1_555
Al2 Al4 2.608889 1_654
Al2 Al3 2.608982 1_565
Al2 Ta1 2.967844 1_554
Al2 Ta2 2.968006 1_555
Al2 Ta0 2.985822 1_565
Al2 Ta0 2.985881 1_655
Al2 Ta3 2.985935 1_565
Al2 Ta3 2.985953 1_655
Al3 V2 2.536105 1_655
Al3 V1 2.536108 1_555
Al3 V0 2.536186 1_645
Al3 Ta2 2.950887 1_555
Al3 Ta2 2.951010 1_545
Al3 Ta2 2.951047 1_645
Al3 Ta3 2.965126 1_555
Al3 Ta3 2.965197 1_655
Al3 Ta3 2.965300 1_645
Al4 V2 2.536098 1_565
Al4 V1 2.536101 1_465
Al4 V0 2.536119 1_555
Al4 Ta1 2.950948 1_455
Al4 Ta1 2.950953 1_555
Al4 Ta1 2.950990 1_465
Al4 Ta0 2.965192 1_556
Al4 Ta0 2.965225 1_466
Al4 Ta0 2.965258 1_566
V0 V1 2.397830 1_555
V0 V2 2.397866 1_555
V0 V2 2.650137 1_565
V0 V1 2.650166 1_465
V1 V2 2.397836 1_555
V1 V2 2.650148 1_655
