# generated using pymatgen
data_Y6Nb5Ga11Os7
_symmetry_space_group_name_H-M   'P 1'
_cell_length_a   9.05969097
_cell_length_b   9.05969109
_cell_length_c   8.99060694
_cell_angle_alpha   59.74548992
_cell_angle_beta   59.74548833
_cell_angle_gamma   59.99999663
_symmetry_Int_Tables_number   1
_chemical_formula_structural   Y6Nb5Ga11Os7
_chemical_formula_sum   'Y6 Nb5 Ga11 Os7'
_cell_volume   519.77970623
_cell_formula_units_Z   1
loop_
 _symmetry_equiv_pos_site_id
 _symmetry_equiv_pos_as_xyz
  1  'x, y, z'
loop_
 _atom_site_type_symbol
 _atom_site_label
 _atom_site_symmetry_multiplicity
 _atom_site_fract_x
 _atom_site_fract_y
 _atom_site_fract_z
 _atom_site_occupancy
  Y  Y0  1  0.70849525  0.70849525  0.29501899  1
  Y  Y1  1  0.28798950  0.70849525  0.29501899  1
  Y  Y2  1  0.70849525  0.28798950  0.29501899  1
  Y  Y3  1  0.29739720  0.29739720  0.71020499  1
  Y  Y4  1  0.69500061  0.29739720  0.71020499  1
  Y  Y5  1  0.29739720  0.69500061  0.71020499  1
  Nb  Nb0  1  0.87751357  0.87751357  0.36746030  1
  Nb  Nb1  1  0.87530948  0.36906459  0.88031846  1
  Nb  Nb2  1  0.36906459  0.87530948  0.88031846  1
  Nb  Nb3  1  0.87530948  0.87530948  0.88031846  1
  Nb  Nb4  1  0.12783910  0.12783910  0.61648371  1
  Ga  Ga0  1  0.11708360  0.64642479  0.11940701  1
  Ga  Ga1  1  0.64642479  0.11708360  0.11940701  1
  Ga  Ga2  1  0.11708360  0.11708360  0.11940701  1
  Ga  Ga3  1  0.66273088  0.66273088  0.01180737  1
  Ga  Ga4  1  0.66246206  0.01288396  0.66219191  1
  Ga  Ga5  1  0.01288396  0.66246206  0.66219191  1
  Ga  Ga6  1  0.66246206  0.66246206  0.66219191  1
  Ga  Ga7  1  0.33203896  0.33203896  0.00388211  1
  Ga  Ga8  1  0.33667579  0.99719493  0.32945249  1
  Ga  Ga9  1  0.99719493  0.33667579  0.32945249  1
  Ga  Ga10  1  0.33667579  0.33667579  0.32945249  1
  Os  Os0  1  0.00656090  0.00656090  0.98031730  1
  Os  Os1  1  0.99728150  0.99728150  0.50913336  1
  Os  Os2  1  0.49630364  0.99728150  0.50913336  1
  Os  Os3  1  0.99728150  0.49630364  0.50913336  1
  Os  Os4  1  0.50292691  0.50292691  0.00095519  1
  Os  Os5  1  0.99319098  0.50292691  0.00095519  1
  Os  Os6  1  0.50292691  0.99319098  0.00095519  1
loop_
_geom_bond_atom_site_label_1
_geom_bond_atom_site_label_2
_geom_bond_distance
_geom_bond_site_symmetry_2
Nb0 Os1 2.817770 1_555
Nb0 Os2 2.817778 1_555
Nb0 Os3 2.817778 1_555
Nb0 Os0 2.830957 1_664
Nb0 Y1 3.077046 1_655
Nb0 Y2 3.077046 1_565
Nb0 Y0 3.077061 1_555
Nb1 Os0 2.684171 1_655
Nb1 Os3 2.714406 1_555
Nb1 Os5 2.752368 1_556
Nb1 Os4 2.752383 1_556
Nb1 Y2 3.065451 1_556
Nb1 Y3 3.163533 1_655
Nb1 Y4 3.163548 1_555
Nb2 Os0 2.684171 1_565
Nb2 Os2 2.714406 1_555
Nb2 Os6 2.752368 1_556
Nb2 Os4 2.752383 1_556
Nb2 Y1 3.065451 1_556
Nb2 Y3 3.163533 1_565
Nb2 Y5 3.163548 1_555
Nb3 Os0 2.684156 1_665
Nb3 Os1 2.714406 1_555
Nb3 Os6 2.752383 1_556
Nb3 Os5 2.752383 1_556
Nb3 Y0 3.065455 1_556
Nb3 Y5 3.163535 1_655
Nb3 Y4 3.163536 1_565
Nb4 Os0 2.660509 1_555
Nb4 Os2 2.725675 1_545
Nb4 Os3 2.725675 1_455
Nb4 Os1 2.725683 1_445
Nb4 Y3 3.224569 1_555
Nb4 Y4 3.224577 1_455
Nb4 Y5 3.224577 1_545
Ga0 Os0 2.663664 1_564
Ga0 Os5 2.853586 1_455
Ga0 Os4 2.853593 1_555
Ga0 Os3 2.854257 1_455
Ga0 Ga10 2.874343 1_555
Ga0 Ga9 2.874343 1_455
Ga0 Ga7 2.894784 1_555
Ga0 Nb0 3.057907 1_455
Ga0 Y5 3.070578 1_554
Ga0 Nb3 3.070702 1_454
Ga0 Nb2 3.070722 1_554
Ga0 Y0 3.071680 1_455
Ga0 Y1 3.071680 1_555
Ga1 Os0 2.663664 1_654
Ga1 Os6 2.853586 1_545
Ga1 Os4 2.853593 1_555
Ga1 Os2 2.854257 1_545
Ga1 Ga10 2.874343 1_555
Ga1 Ga8 2.874343 1_545
Ga1 Ga7 2.894784 1_555
Ga1 Nb0 3.057907 1_545
Ga1 Y4 3.070578 1_554
Ga1 Nb3 3.070702 1_544
Ga1 Nb1 3.070722 1_554
Ga1 Y2 3.071680 1_555
Ga1 Y0 3.071680 1_545
Ga2 Os0 2.663657 1_554
Ga2 Os6 2.853593 1_545
Ga2 Os5 2.853593 1_455
Ga2 Os1 2.854257 1_445
Ga2 Ga9 2.874343 1_455
Ga2 Ga8 2.874343 1_545
Ga2 Ga7 2.894784 1_555
Ga2 Nb0 3.057894 1_445
Ga2 Y3 3.070580 1_554
Ga2 Nb2 3.070703 1_544
Ga2 Nb1 3.070703 1_454
Ga2 Y2 3.071679 1_455
Ga2 Y1 3.071680 1_545
Ga3 Os5 2.565610 1_555
Ga3 Os6 2.565610 1_555
Ga3 Os4 2.565610 1_555
Ga3 Nb1 2.817129 1_554
Ga3 Nb2 2.817129 1_554
Ga3 Nb3 2.817144 1_554
Ga3 Y0 3.021042 1_555
Ga3 Y1 3.021048 1_555
Ga3 Y2 3.021048 1_555
Ga4 Os6 2.582920 1_546
Ga4 Os2 2.583769 1_545
Ga4 Os1 2.583769 1_545
Ga4 Nb0 2.829223 1_545
Ga4 Nb2 2.839353 1_545
Ga4 Nb3 2.839368 1_545
Ga4 Y2 2.940151 1_555
Ga4 Y3 2.987735 1_555
Ga4 Y4 2.987735 1_555
Ga5 Os5 2.582920 1_456
Ga5 Os3 2.583769 1_455
Ga5 Os1 2.583769 1_455
Ga5 Nb0 2.829223 1_455
Ga5 Nb1 2.839353 1_455
Ga5 Nb3 2.839368 1_455
Ga5 Y1 2.940151 1_555
Ga5 Y3 2.987735 1_555
Ga5 Y5 2.987735 1_555
Ga6 Os4 2.582920 1_556
Ga6 Os3 2.583769 1_555
Ga6 Os2 2.583769 1_555
Ga6 Nb0 2.829228 1_555
Ga6 Nb2 2.839363 1_555
Ga6 Nb1 2.839363 1_555
Ga6 Y0 2.940154 1_555
Ga6 Y5 2.987735 1_555
Ga6 Y4 2.987735 1_555
Ga7 Os5 2.666316 1_455
Ga7 Os6 2.666316 1_545
Ga7 Os4 2.666324 1_555
Ga7 Y3 2.989466 1_554
Ga7 Y4 2.989471 1_554
Ga7 Y5 2.989471 1_554
Ga8 Os6 2.561876 1_555
Ga8 Os1 2.656618 1_455
Ga8 Os2 2.656625 1_555
Ga8 Nb4 2.749268 1_565
Ga8 Y0 3.039504 1_555
Ga8 Y1 3.039504 1_555
Ga8 Y5 3.105337 1_555
Ga9 Os5 2.561876 1_555
Ga9 Os1 2.656618 1_545
Ga9 Os3 2.656625 1_555
Ga9 Nb4 2.749268 1_655
Ga9 Y0 3.039504 1_555
Ga9 Y2 3.039504 1_555
Ga9 Y4 3.105337 1_555
Ga10 Os4 2.561879 1_555
Ga10 Os3 2.656620 1_455
Ga10 Os2 2.656620 1_545
Ga10 Nb4 2.749258 1_555
Ga10 Y2 3.039504 1_555
Ga10 Y1 3.039504 1_555
Ga10 Y3 3.105341 1_555
Os1 Y1 3.250058 1_655
Os1 Y2 3.250058 1_565
Os1 Y4 3.267826 1_565
Os1 Y5 3.267826 1_655
Os2 Y2 3.250052 1_565
Os2 Y0 3.250059 1_555
Os2 Y3 3.267826 1_565
Os2 Y5 3.267826 1_555
Os3 Y1 3.250052 1_655
Os3 Y0 3.250059 1_555
Os3 Y3 3.267826 1_655
Os3 Y4 3.267826 1_555
Os4 Y1 3.224496 1_555
Os4 Y2 3.224496 1_555
Os4 Y4 3.226339 1_554
Os4 Y5 3.226339 1_554
Os5 Y0 3.224497 1_555
Os5 Y2 3.224502 1_555
Os5 Y3 3.226339 1_654
Os5 Y5 3.226339 1_654
Os6 Y0 3.224497 1_555
Os6 Y1 3.224502 1_555
Os6 Y3 3.226339 1_564
Os6 Y4 3.226339 1_564
