# generated using pymatgen
data_Hf16MnNi4Os3
_symmetry_space_group_name_H-M   'P 1'
_cell_length_a   8.56829242
_cell_length_b   8.56829165
_cell_length_c   8.56829317
_cell_angle_alpha   59.98706835
_cell_angle_beta   59.98706844
_cell_angle_gamma   59.98706845
_symmetry_Int_Tables_number   1
_chemical_formula_structural   Hf16MnNi4Os3
_chemical_formula_sum   'Hf16 Mn1 Ni4 Os3'
_cell_volume   444.67271278
_cell_formula_units_Z   1
loop_
 _symmetry_equiv_pos_site_id
 _symmetry_equiv_pos_as_xyz
  1  'x, y, z'
loop_
 _atom_site_type_symbol
 _atom_site_label
 _atom_site_symmetry_multiplicity
 _atom_site_fract_x
 _atom_site_fract_y
 _atom_site_fract_z
 _atom_site_occupancy
  Hf  Hf0  1  0.68179730  0.10611696  0.10611696  1
  Hf  Hf1  1  0.10611696  0.68179730  0.10611696  1
  Hf  Hf2  1  0.10611696  0.10611696  0.68179730  1
  Hf  Hf3  1  0.10553095  0.10553095  0.10553095  1
  Hf  Hf4  1  0.31491514  0.31491514  0.68618946  1
  Hf  Hf5  1  0.68544177  0.68544177  0.31460280  1
  Hf  Hf6  1  0.31491514  0.68618946  0.31491514  1
  Hf  Hf7  1  0.68544177  0.31460280  0.68544177  1
  Hf  Hf8  1  0.68618946  0.31491514  0.31491514  1
  Hf  Hf9  1  0.31460280  0.68544177  0.68544177  1
  Hf  Hf10  1  0.95229668  0.95229668  0.54774578  1
  Hf  Hf11  1  0.54766539  0.54766539  0.95226305  1
  Hf  Hf12  1  0.95229668  0.54774578  0.95229668  1
  Hf  Hf13  1  0.54766539  0.95226305  0.54766539  1
  Hf  Hf14  1  0.54774578  0.95229668  0.95229668  1
  Hf  Hf15  1  0.95226305  0.54766539  0.54766539  1
  Mn  Mn0  1  0.33064013  0.33064013  0.33064013  1
  Ni  Ni0  1  0.32189224  0.89285730  0.89285730  1
  Ni  Ni1  1  0.89285730  0.32189224  0.89285730  1
  Ni  Ni2  1  0.89285730  0.89285730  0.32189224  1
  Ni  Ni3  1  0.89305305  0.89305305  0.89305305  1
  Os  Os0  1  0.99829055  0.33470363  0.33470363  1
  Os  Os1  1  0.33470363  0.99829055  0.33470363  1
  Os  Os2  1  0.33470363  0.33470363  0.99829055  1
loop_
_geom_bond_atom_site_label_1
_geom_bond_atom_site_label_2
_geom_bond_distance
_geom_bond_site_symmetry_2
Hf0 Ni3 2.581578 1_544
Hf0 Ni1 2.585893 1_554
Hf0 Ni2 2.585893 1_545
Hf0 Mn0 2.928496 1_555
Hf0 Os1 2.940355 1_545
Hf0 Os2 2.940355 1_554
Hf0 Hf8 3.120803 1_555
Hf1 Ni3 2.581578 1_454
Hf1 Ni0 2.585893 1_554
Hf1 Ni2 2.585893 1_455
Hf1 Mn0 2.928496 1_555
Hf1 Os0 2.940355 1_455
Hf1 Os2 2.940355 1_554
Hf1 Hf6 3.120803 1_555
Hf2 Ni3 2.581578 1_445
Hf2 Ni1 2.585893 1_455
Hf2 Ni0 2.585893 1_545
Hf2 Mn0 2.928496 1_555
Hf2 Os1 2.940355 1_545
Hf2 Os0 2.940355 1_455
Hf2 Hf4 3.120803 1_555
Hf3 Ni2 2.576984 1_445
Hf3 Ni0 2.576984 1_544
Hf3 Ni1 2.576984 1_454
Hf3 Os2 2.967018 1_554
Hf3 Os0 2.967018 1_455
Hf3 Os1 2.967018 1_545
Hf3 Hf6 3.109641 1_545
Hf3 Hf8 3.109641 1_455
Hf3 Hf4 3.109642 1_554
Hf4 Os2 2.853883 1_555
Hf4 Mn0 2.917889 1_555
Hf4 Ni0 3.114546 1_545
Hf4 Ni1 3.114546 1_455
Hf4 Hf9 3.170244 1_555
Hf4 Hf7 3.170244 1_555
Hf4 Hf6 3.180565 1_555
Hf4 Hf8 3.180565 1_555
Hf5 Os0 2.851618 1_555
Hf5 Os1 2.851618 1_555
Hf5 Hf8 3.170244 1_555
Hf5 Hf6 3.170244 1_555
Hf6 Os1 2.853882 1_555
Hf6 Mn0 2.917888 1_555
Hf6 Ni2 3.114546 1_455
Hf6 Ni0 3.114546 1_554
Hf6 Hf9 3.170245 1_555
Hf6 Hf8 3.180565 1_555
Hf7 Os2 2.851618 1_555
Hf7 Os0 2.851618 1_555
Hf7 Hf8 3.170245 1_555
Hf8 Os0 2.853883 1_555
Hf8 Mn0 2.917889 1_555
Hf8 Ni2 3.114546 1_545
Hf8 Ni1 3.114546 1_554
Hf9 Os2 2.851618 1_555
Hf9 Os1 2.851618 1_555
Hf10 Ni2 2.548545 1_555
Hf10 Ni3 2.553832 1_555
Hf10 Os0 2.968510 1_565
Hf10 Os1 2.968510 1_655
Hf10 Hf6 3.177238 1_655
Hf10 Hf8 3.177238 1_565
Hf11 Ni0 2.550381 1_555
Hf11 Ni1 2.550381 1_555
Hf11 Os2 2.950561 1_555
Hf11 Mn0 2.970475 1_556
Hf11 Hf6 3.188042 1_556
Hf11 Hf8 3.188042 1_556
Hf12 Ni1 2.548545 1_555
Hf12 Ni3 2.553831 1_555
Hf12 Os2 2.968510 1_655
Hf12 Os0 2.968510 1_556
Hf12 Hf8 3.177238 1_556
Hf12 Hf4 3.177238 1_655
Hf13 Ni2 2.550381 1_555
Hf13 Ni0 2.550382 1_555
Hf13 Os1 2.950561 1_555
Hf13 Mn0 2.970474 1_565
Hf13 Hf8 3.188042 1_565
Hf13 Hf4 3.188042 1_565
Hf14 Ni0 2.548545 1_555
Hf14 Ni3 2.553831 1_555
Hf14 Os2 2.968510 1_565
Hf14 Os1 2.968510 1_556
Hf14 Hf6 3.177238 1_556
Hf14 Hf4 3.177238 1_565
Hf15 Ni2 2.550381 1_555
Hf15 Ni1 2.550382 1_555
Hf15 Os0 2.950561 1_555
Hf15 Mn0 2.970474 1_655
Hf15 Hf6 3.188042 1_655
Hf15 Hf4 3.188042 1_655
Mn0 Os1 2.813268 1_545
Mn0 Os0 2.813268 1_455
Mn0 Os2 2.813269 1_554
