# generated using pymatgen
data_K3Na2HfSb3
_symmetry_space_group_name_H-M   'P 1'
_cell_length_a   11.38493557
_cell_length_b   11.38493529
_cell_length_c   16.20988321
_cell_angle_alpha   90.00000000
_cell_angle_beta   90.00000000
_cell_angle_gamma   142.97931862
_symmetry_Int_Tables_number   1
_chemical_formula_structural   K3Na2HfSb3
_chemical_formula_sum   'K12 Na8 Hf4 Sb12'
_cell_volume   1265.06257134
_cell_formula_units_Z   4
loop_
 _symmetry_equiv_pos_site_id
 _symmetry_equiv_pos_as_xyz
  1  'x, y, z'
loop_
 _atom_site_type_symbol
 _atom_site_label
 _atom_site_symmetry_multiplicity
 _atom_site_fract_x
 _atom_site_fract_y
 _atom_site_fract_z
 _atom_site_occupancy
  K  K0  1  0.60199573  0.94235412  0.82561728  1
  K  K1  1  0.27453061  0.27453061  0.32040530  1
  K  K2  1  0.22546939  0.22546939  0.82040530  1
  K  K3  1  0.72546939  0.72546939  0.67959470  1
  K  K4  1  0.44235412  0.10199573  0.67438272  1
  K  K5  1  0.89800427  0.55764588  0.32561728  1
  K  K6  1  0.05764588  0.39800427  0.17438272  1
  K  K7  1  0.39800427  0.05764588  0.17438272  1
  K  K8  1  0.55764588  0.89800427  0.32561728  1
  K  K9  1  0.10199573  0.44235412  0.67438272  1
  K  K10  1  0.94235412  0.60199573  0.82561728  1
  K  K11  1  0.77453061  0.77453061  0.17959470  1
  Na  Na0  1  0.08162619  0.91837381  0.00000000  1
  Na  Na1  1  0.58162619  0.41837381  0.50000000  1
  Na  Na2  1  0.91837381  0.08162619  0.00000000  1
  Na  Na3  1  0.75463832  0.24536168  0.00000000  1
  Na  Na4  1  0.74536168  0.25463832  0.50000000  1
  Na  Na5  1  0.24536168  0.75463832  0.00000000  1
  Na  Na6  1  0.25463832  0.74536168  0.50000000  1
  Na  Na7  1  0.41837381  0.58162619  0.50000000  1
  Hf  Hf0  1  0.08600670  0.91399330  0.50000000  1
  Hf  Hf1  1  0.41399330  0.58600670  0.00000000  1
  Hf  Hf2  1  0.91399330  0.08600670  0.50000000  1
  Hf  Hf3  1  0.58600670  0.41399330  0.00000000  1
  Sb  Sb0  1  0.06087109  0.37684886  0.39574398  1
  Sb  Sb1  1  0.87684886  0.56087109  0.10425602  1
  Sb  Sb2  1  0.43912891  0.12315114  0.89574398  1
  Sb  Sb3  1  0.62315114  0.93912891  0.60425602  1
  Sb  Sb4  1  0.93912891  0.62315114  0.60425602  1
  Sb  Sb5  1  0.12315114  0.43912891  0.89574398  1
  Sb  Sb6  1  0.56087109  0.87684886  0.10425602  1
  Sb  Sb7  1  0.37684886  0.06087109  0.39574398  1
  Sb  Sb8  1  0.20830017  0.20830017  0.59649545  1
  Sb  Sb9  1  0.70830017  0.70830017  0.90350455  1
  Sb  Sb10  1  0.29169983  0.29169983  0.09649545  1
  Sb  Sb11  1  0.79169983  0.79169983  0.40350455  1
loop_
_geom_bond_atom_site_label_1
_geom_bond_atom_site_label_2
_geom_bond_distance
_geom_bond_site_symmetry_2
K0 Sb3 3.598465 1_555
K0 Sb5 3.736492 1_555
K0 Sb5 3.859837 1_665
K0 Sb2 3.880955 1_565
K0 Sb9 3.912687 1_555
K1 Sb10 3.631674 1_555
K1 Sb7 3.645572 1_555
K1 Sb0 3.645572 1_555
K1 Sb11 3.741239 1_445
K1 Sb11 3.973825 1_555
K2 Sb8 3.631674 1_555
K2 Sb5 3.645572 1_555
K2 Sb2 3.645572 1_555
K2 Sb9 3.741239 1_555
K2 Sb9 3.973825 1_445
K3 Sb9 3.631674 1_555
K3 Sb3 3.645572 1_555
K3 Sb4 3.645572 1_555
K3 Sb8 3.741239 1_665
K3 Sb8 3.973825 1_555
K4 Sb2 3.598465 1_555
K4 Sb4 3.736492 1_445
K4 Sb4 3.859837 1_555
K4 Sb3 3.880955 1_545
K4 Sb8 3.912687 1_555
K5 Sb1 3.598465 1_555
K5 Sb7 3.736492 1_665
K5 Sb7 3.859837 1_555
K5 Sb0 3.880955 1_655
K5 Sb11 3.912687 1_555
K6 Sb0 3.598465 1_555
K6 Sb6 3.736492 1_555
K6 Sb6 3.859837 1_445
K6 Sb1 3.880955 1_455
K6 Sb10 3.912687 1_555
K7 Sb7 3.598465 1_555
K7 Sb1 3.736492 1_555
K7 Sb1 3.859837 1_445
K7 Sb6 3.880955 1_545
K7 Sb10 3.912687 1_555
K8 Sb6 3.598465 1_555
K8 Sb0 3.736492 1_665
K8 Sb0 3.859837 1_555
K8 Sb7 3.880955 1_565
K8 Sb11 3.912687 1_555
K9 Sb5 3.598465 1_555
K9 Sb3 3.736492 1_445
K9 Sb3 3.859837 1_555
K9 Sb4 3.880955 1_455
K9 Sb8 3.912687 1_555
K10 Sb4 3.598465 1_555
K10 Sb2 3.736492 1_555
K10 Sb2 3.859837 1_665
K10 Sb5 3.880955 1_655
K10 Sb9 3.912687 1_555
K11 Sb11 3.631674 1_555
K11 Sb1 3.645572 1_555
K11 Sb6 3.645572 1_555
K11 Sb10 3.741239 1_555
K11 Sb10 3.973825 1_665
Na0 Sb1 3.115281 1_455
Na0 Sb2 3.115281 1_564
Na0 Sb10 3.162184 1_565
Na0 Sb9 3.162184 1_454
Na1 Sb7 3.115281 1_555
Na1 Sb4 3.115281 1_555
Na1 Sb11 3.162184 1_555
Na1 Sb8 3.162184 1_555
Na2 Sb5 3.115281 1_654
Na2 Sb6 3.115281 1_545
Na2 Sb9 3.162184 1_544
Na2 Sb10 3.162184 1_655
Na3 Sb1 3.116734 1_555
Na3 Sb2 3.116734 1_554
Na3 Sb6 3.247374 1_545
Na3 Sb5 3.247374 1_654
Na4 Sb3 3.116734 1_545
Na4 Sb0 3.116734 1_655
Na4 Sb4 3.247374 1_555
Na4 Sb7 3.247374 1_555
Na5 Sb5 3.116734 1_554
Na5 Sb6 3.116734 1_555
Na5 Sb2 3.247374 1_564
Na5 Sb1 3.247374 1_455
Na6 Sb7 3.116734 1_565
Na6 Sb4 3.116734 1_455
Na6 Sb0 3.247374 1_555
Na6 Sb3 3.247374 1_555
Na7 Sb3 3.115281 1_555
Na7 Sb0 3.115281 1_555
Na7 Sb8 3.162184 1_555
Na7 Sb11 3.162184 1_555
Hf0 Sb4 2.788323 1_455
Hf0 Sb7 2.788323 1_565
Hf0 Sb8 2.857036 1_565
Hf0 Sb11 2.857036 1_455
Hf1 Sb6 2.788323 1_555
Hf1 Sb5 2.788323 1_554
Hf1 Sb10 2.857036 1_555
Hf1 Sb9 2.857036 1_554
Hf2 Sb0 2.788323 1_655
Hf2 Sb3 2.788323 1_545
Hf2 Sb11 2.857036 1_545
Hf2 Sb8 2.857036 1_655
Hf3 Sb2 2.788323 1_554
Hf3 Sb1 2.788323 1_555
Hf3 Sb9 2.857036 1_554
Hf3 Sb10 2.857036 1_555
