# generated using pymatgen
data_Ba3Ta2VO9
_symmetry_space_group_name_H-M   'P 1'
_cell_length_a   5.79560603
_cell_length_b   5.79560671
_cell_length_c   7.12239205
_cell_angle_alpha   90.00000000
_cell_angle_beta   90.00000000
_cell_angle_gamma   119.99999612
_symmetry_Int_Tables_number   1
_chemical_formula_structural   Ba3Ta2VO9
_chemical_formula_sum   'Ba3 Ta2 V1 O9'
_cell_volume   207.18308040
_cell_formula_units_Z   1
loop_
 _symmetry_equiv_pos_site_id
 _symmetry_equiv_pos_as_xyz
  1  'x, y, z'
loop_
 _atom_site_type_symbol
 _atom_site_label
 _atom_site_symmetry_multiplicity
 _atom_site_fract_x
 _atom_site_fract_y
 _atom_site_fract_z
 _atom_site_occupancy
  Ba  Ba0  1  0.33333300  0.66666700  0.66272590  1
  Ba  Ba1  1  0.66666700  0.33333300  0.33727410  1
  Ba  Ba2  1  0.00000000  0.00000000  0.00000000  1
  Ta  Ta0  1  0.33333300  0.66666700  0.17533266  1
  Ta  Ta1  1  0.66666700  0.33333300  0.82466734  1
  V  V0  1  0.00000000  0.00000000  0.50000000  1
  O  O0  1  0.17164760  0.82835240  0.32519984  1
  O  O1  1  0.82835240  0.17164760  0.67480016  1
  O  O2  1  0.17164760  0.34329421  0.32519984  1
  O  O3  1  0.82835240  0.65670579  0.67480016  1
  O  O4  1  0.65670579  0.82835240  0.32519984  1
  O  O5  1  0.34329421  0.17164760  0.67480016  1
  O  O6  1  0.50000000  0.00000000  0.00000000  1
  O  O7  1  0.00000000  0.50000000  0.00000000  1
  O  O8  1  0.50000000  0.50000000  0.00000000  1
loop_
_geom_bond_atom_site_label_1
_geom_bond_atom_site_label_2
_geom_bond_distance
_geom_bond_site_symmetry_2
Ba0 O3 2.899510 1_555
Ba0 O3 2.899510 1_455
Ba0 O5 2.899510 1_555
Ba0 O1 2.899510 1_455
Ba0 O1 2.899510 1_565
Ba0 O5 2.899510 1_565
Ba0 O0 2.900595 1_555
Ba0 O4 2.900601 1_555
Ba0 O2 2.900601 1_555
Ba0 O7 2.927395 1_556
Ba0 O6 2.927395 1_566
Ba0 O8 2.927397 1_556
Ba1 O2 2.899510 1_555
Ba1 O2 2.899510 1_655
Ba1 O4 2.899510 1_555
Ba1 O0 2.899510 1_655
Ba1 O0 2.899510 1_545
Ba1 O4 2.899510 1_545
Ba1 O1 2.900595 1_555
Ba1 O5 2.900601 1_555
Ba1 O3 2.900601 1_555
Ba1 O7 2.927395 1_655
Ba1 O6 2.927395 1_555
Ba1 O8 2.927397 1_555
Ba2 O4 2.886808 1_445
Ba2 O5 2.886808 1_554
Ba2 O2 2.886808 1_555
Ba2 O3 2.886808 1_444
Ba2 O0 2.886811 1_545
Ba2 O1 2.886811 1_454
Ba2 O6 2.897803 1_555
Ba2 O6 2.897803 1_455
Ba2 O8 2.897803 1_555
Ba2 O8 2.897803 1_445
Ba2 O7 2.897803 1_545
Ba2 O7 2.897803 1_555
O0 Ta0 1.942586 1_555
O0 V0 2.125772 1_565
O1 Ta1 1.942586 1_555
O1 V0 2.125772 1_655
O2 Ta0 1.942595 1_555
O2 V0 2.125768 1_555
O3 Ta1 1.942595 1_555
O3 V0 2.125768 1_665
O4 Ta0 1.942595 1_555
O4 V0 2.125768 1_665
O5 Ta1 1.942595 1_555
O5 V0 2.125768 1_555
O6 Ta0 2.087715 1_545
O6 Ta1 2.087715 1_554
O7 Ta0 2.087715 1_555
O7 Ta1 2.087715 1_454
O8 Ta0 2.087719 1_555
O8 Ta1 2.087719 1_554
