# generated using pymatgen
data_La2CuS4
_symmetry_space_group_name_H-M   'P 1'
_cell_length_a   7.57804436
_cell_length_b   7.74993030
_cell_length_c   10.90141497
_cell_angle_alpha   75.46525323
_cell_angle_beta   90.00000000
_cell_angle_gamma   90.00000000
_symmetry_Int_Tables_number   1
_chemical_formula_structural   La2CuS4
_chemical_formula_sum   'La8 Cu4 S16'
_cell_volume   619.74239137
_cell_formula_units_Z   4
loop_
 _symmetry_equiv_pos_site_id
 _symmetry_equiv_pos_as_xyz
  1  'x, y, z'
loop_
 _atom_site_type_symbol
 _atom_site_label
 _atom_site_symmetry_multiplicity
 _atom_site_fract_x
 _atom_site_fract_y
 _atom_site_fract_z
 _atom_site_occupancy
  La  La0  1  0.29710421  0.05971505  0.13947484  1
  La  La1  1  0.79710421  0.94028495  0.36052516  1
  La  La2  1  0.70289579  0.94028495  0.86052516  1
  La  La3  1  0.20289579  0.05971505  0.63947484  1
  La  La4  1  0.62517453  0.52885368  0.67491621  1
  La  La5  1  0.12517453  0.47114632  0.82508379  1
  La  La6  1  0.37482547  0.47114632  0.32508379  1
  La  La7  1  0.87482547  0.52885368  0.17491621  1
  Cu  Cu0  1  0.61350628  0.32296864  0.99539897  1
  Cu  Cu1  1  0.11350628  0.67703136  0.50460103  1
  Cu  Cu2  1  0.38649372  0.67703136  0.00460103  1
  Cu  Cu3  1  0.88649372  0.32296864  0.49539897  1
  S  S0  1  0.94515278  0.10989335  0.02587392  1
  S  S1  1  0.44515278  0.89010665  0.47412608  1
  S  S2  1  0.05484722  0.89010665  0.97412608  1
  S  S3  1  0.55484722  0.10989335  0.52587392  1
  S  S4  1  0.06887083  0.20863646  0.37431456  1
  S  S5  1  0.56887083  0.79136354  0.12568544  1
  S  S6  1  0.93112917  0.79136354  0.62568544  1
  S  S7  1  0.43112917  0.20863646  0.87431456  1
  S  S8  1  0.60466927  0.24732078  0.20680798  1
  S  S9  1  0.10466927  0.75267922  0.29319202  1
  S  S10  1  0.39533073  0.75267922  0.79319202  1
  S  S11  1  0.89533073  0.24732078  0.70680798  1
  S  S12  1  0.78720419  0.55309781  0.91338364  1
  S  S13  1  0.28720419  0.44690219  0.58661636  1
  S  S14  1  0.21279581  0.44690219  0.08661636  1
  S  S15  1  0.71279581  0.55309781  0.41338364  1
loop_
_geom_bond_atom_site_label_1
_geom_bond_atom_site_label_2
_geom_bond_distance
_geom_bond_site_symmetry_2
La0 S0 2.925167 1_455
La0 S9 2.931774 1_545
La0 S8 2.936110 1_555
La0 S5 2.957375 1_545
La0 S14 2.979326 1_555
La0 S7 3.007445 1_554
La0 S2 3.088117 1_544
La0 S4 3.515749 1_555
La0 S1 3.726754 1_545
La1 S1 2.925167 1_555
La1 S8 2.931774 1_565
La1 S9 2.936110 1_655
La1 S4 2.957375 1_665
La1 S15 2.979326 1_555
La1 S6 3.007445 1_555
La1 S3 3.088117 1_565
La1 S5 3.515749 1_555
La1 S0 3.726754 1_565
La2 S2 2.925167 1_655
La2 S11 2.931774 1_565
La2 S10 2.936110 1_555
La2 S7 2.957375 1_565
La2 S12 2.979326 1_555
La2 S5 3.007445 1_556
La2 S0 3.088117 1_566
La2 S6 3.515749 1_555
La2 S3 3.726754 1_565
La3 S3 2.925167 1_555
La3 S10 2.931774 1_545
La3 S11 2.936110 1_455
La3 S6 2.957375 1_445
La3 S13 2.979326 1_555
La3 S4 3.007445 1_555
La3 S1 3.088117 1_545
La3 S7 3.515749 1_555
La3 S2 3.726754 1_545
La4 S13 2.862924 1_555
La4 S15 2.887204 1_555
La4 S12 2.923392 1_555
La4 S11 2.948202 1_555
La4 S10 2.971162 1_555
La4 S6 3.042126 1_555
La4 S7 3.215336 1_555
La4 S1 3.378553 1_555
La5 S12 2.862924 1_455
La5 S14 2.887204 1_556
La5 S13 2.923392 1_555
La5 S10 2.948202 1_555
La5 S11 2.971162 1_455
La5 S7 3.042126 1_555
La5 S6 3.215336 1_455
La5 S0 3.378553 1_456
La6 S15 2.862924 1_555
La6 S13 2.887204 1_555
La6 S14 2.923392 1_555
La6 S9 2.948202 1_555
La6 S8 2.971162 1_555
La6 S4 3.042126 1_555
La6 S5 3.215336 1_555
La6 S3 3.378553 1_555
La7 S14 2.862924 1_655
La7 S12 2.887204 1_554
La7 S15 2.923392 1_555
La7 S8 2.948202 1_555
La7 S9 2.971162 1_655
La7 S5 3.042126 1_555
La7 S4 3.215336 1_655
La7 S2 3.378553 1_654
Cu0 S12 2.216404 1_555
Cu0 S8 2.231917 1_556
Cu0 S7 2.241573 1_555
Cu0 S0 2.979630 1_556
Cu1 S13 2.216404 1_555
Cu1 S9 2.231917 1_555
Cu1 S6 2.241573 1_455
Cu1 S1 2.979630 1_555
Cu2 S14 2.216404 1_555
Cu2 S10 2.231917 1_554
Cu2 S5 2.241573 1_555
Cu2 S2 2.979630 1_554
Cu3 S15 2.216404 1_555
Cu3 S11 2.231917 1_555
Cu3 S4 2.241573 1_655
Cu3 S3 2.979630 1_555
S0 S2 2.095922 1_644
S1 S3 2.095922 1_565
