# generated using pymatgen
data_Rb3SiTe3
_symmetry_space_group_name_H-M   'P 1'
_cell_length_a   8.69974719
_cell_length_b   8.69974681
_cell_length_c   9.17162487
_cell_angle_alpha   75.05015191
_cell_angle_beta   75.05015639
_cell_angle_gamma   109.85559834
_symmetry_Int_Tables_number   1
_chemical_formula_structural   Rb3SiTe3
_chemical_formula_sum   'Rb6 Si2 Te6'
_cell_volume   583.39549632
_cell_formula_units_Z   2
loop_
 _symmetry_equiv_pos_site_id
 _symmetry_equiv_pos_as_xyz
  1  'x, y, z'
loop_
 _atom_site_type_symbol
 _atom_site_label
 _atom_site_symmetry_multiplicity
 _atom_site_fract_x
 _atom_site_fract_y
 _atom_site_fract_z
 _atom_site_occupancy
  Rb  Rb0  1  0.21181826  0.21181826  0.32311194  1
  Rb  Rb1  1  0.00000000  0.50000000  0.00000000  1
  Rb  Rb2  1  0.66272603  0.33727397  0.50000000  1
  Rb  Rb3  1  0.33727397  0.66272603  0.50000000  1
  Rb  Rb4  1  0.50000000  0.00000000  0.00000000  1
  Rb  Rb5  1  0.78818174  0.78818174  0.67688806  1
  Si  Si0  1  0.10398530  0.10398530  0.86434313  1
  Si  Si1  1  0.89601470  0.89601470  0.13565687  1
  Te  Te0  1  0.64720725  0.64720725  0.12342864  1
  Te  Te1  1  0.35279275  0.35279275  0.87657136  1
  Te  Te2  1  0.76140671  0.05100103  0.29015112  1
  Te  Te3  1  0.94899897  0.23859329  0.70984888  1
  Te  Te4  1  0.23859329  0.94899897  0.70984888  1
  Te  Te5  1  0.05100103  0.76140671  0.29015112  1
loop_
_geom_bond_atom_site_label_1
_geom_bond_atom_site_label_2
_geom_bond_distance
_geom_bond_site_symmetry_2
Rb0 Te1 3.684642 1_554
Rb0 Te4 3.803567 1_545
Rb0 Te3 3.803567 1_455
Rb0 Te5 3.809000 1_545
Rb0 Te2 3.809000 1_455
Rb0 Te0 3.891557 1_555
Rb1 Te4 3.595481 1_554
Rb1 Te2 3.595481 1_455
Rb1 Te0 3.737259 1_455
Rb1 Te1 3.737259 1_554
Rb1 Te3 3.936587 1_454
Rb1 Te5 3.936587 1_555
Rb2 Te5 3.639269 1_655
Rb2 Te4 3.639269 1_545
Rb2 Te3 3.703638 1_555
Rb2 Te2 3.703638 1_555
Rb2 Te0 3.860066 1_555
Rb2 Te1 3.860066 1_555
Rb3 Te3 3.639269 1_455
Rb3 Te2 3.639269 1_565
Rb3 Te5 3.703638 1_555
Rb3 Te4 3.703638 1_555
Rb3 Te1 3.860066 1_555
Rb3 Te0 3.860066 1_555
Rb4 Te3 3.595482 1_554
Rb4 Te5 3.595482 1_545
Rb4 Te1 3.737258 1_554
Rb4 Te0 3.737258 1_545
Rb4 Te2 3.936587 1_555
Rb4 Te4 3.936587 1_544
Rb5 Te0 3.684642 1_556
Rb5 Te2 3.803567 1_565
Rb5 Te5 3.803567 1_655
Rb5 Te3 3.809000 1_565
Rb5 Te4 3.809000 1_655
Rb5 Te1 3.891557 1_555
Si0 Si1 2.422729 1_446
Si0 Te3 2.529703 1_455
Si0 Te4 2.529703 1_545
Si0 Te1 2.539880 1_555
Si1 Te5 2.529703 1_655
Si1 Te2 2.529703 1_565
Si1 Te0 2.539880 1_555
