# generated using pymatgen
data_V12Co5Si7C2
_symmetry_space_group_name_H-M   'P 1'
_cell_length_a   7.45602727
_cell_length_b   7.45602297
_cell_length_c   7.45602106
_cell_angle_alpha   60.49267668
_cell_angle_beta   60.49272755
_cell_angle_gamma   60.49276748
_symmetry_Int_Tables_number   1
_chemical_formula_structural   V12Co5Si7C2
_chemical_formula_sum   'V12 Co5 Si7 C2'
_cell_volume   296.35785419
_cell_formula_units_Z   1
loop_
 _symmetry_equiv_pos_site_id
 _symmetry_equiv_pos_as_xyz
  1  'x, y, z'
loop_
 _atom_site_type_symbol
 _atom_site_label
 _atom_site_symmetry_multiplicity
 _atom_site_fract_x
 _atom_site_fract_y
 _atom_site_fract_z
 _atom_site_occupancy
  V  V0  1  0.05531162  0.05531122  0.44306247  1
  V  V1  1  0.44338661  0.05644861  0.44337709  1
  V  V2  1  0.05644696  0.44338534  0.44337960  1
  V  V3  1  0.44338501  0.44337989  0.05644899  1
  V  V4  1  0.05531131  0.44306505  0.05531101  1
  V  V5  1  0.44306758  0.05531147  0.05531079  1
  V  V6  1  0.19282223  0.19282263  0.80620953  1
  V  V7  1  0.80466105  0.19462518  0.80466941  1
  V  V8  1  0.19462428  0.80466217  0.80466762  1
  V  V9  1  0.80466358  0.80466644  0.19462763  1
  V  V10  1  0.19282242  0.80620830  0.19282309  1
  V  V11  1  0.80620660  0.19282225  0.19282264  1
  Co  Co0  1  0.84058711  0.84058636  0.84058435  1
  Co  Co1  1  0.62081846  0.62081843  0.13088675  1
  Co  Co2  1  0.62081904  0.13088729  0.62081701  1
  Co  Co3  1  0.13088723  0.62081799  0.62081731  1
  Co  Co4  1  0.62513545  0.62513507  0.62513424  1
  Si  Si0  1  0.41296480  0.41296341  0.75914206  1
  Si  Si1  1  0.41296386  0.75914479  0.41296250  1
  Si  Si2  1  0.75914732  0.41296230  0.41296180  1
  Si  Si3  1  0.41341357  0.41341204  0.41341139  1
  Si  Si4  1  0.83674355  0.83674565  0.49884324  1
  Si  Si5  1  0.83674401  0.49883989  0.83674813  1
  Si  Si6  1  0.49883696  0.83674729  0.83674848  1
  C  C0  1  0.24922416  0.24922844  0.24923289  1
  C  C1  1  0.99900525  0.99900249  0.99899997  1
loop_
_geom_bond_atom_site_label_1
_geom_bond_atom_site_label_2
_geom_bond_distance
_geom_bond_site_symmetry_2
Co0 Co2 2.390056 1_565
Co0 Co3 2.390057 1_655
Co0 Co1 2.390062 1_556
Co0 V8 2.406107 1_655
Co0 V7 2.406117 1_565
Co0 V9 2.406142 1_556
Co0 Si4 2.576569 1_555
Co0 Si5 2.576591 1_555
Co0 Si6 2.576604 1_555
Co0 V0 2.662214 1_665
Co0 V5 2.662215 1_566
Co0 V4 2.662218 1_656
Co1 Si3 2.271146 1_555
Co1 Si1 2.289165 1_555
Co1 Si2 2.289170 1_555
Co1 Si5 2.296338 1_554
Co1 Si6 2.296347 1_554
Co1 V3 2.641821 1_555
Co1 V9 2.668007 1_555
Co1 V11 2.671954 1_555
Co1 V10 2.671955 1_555
Co1 V5 2.697589 1_565
Co1 V4 2.697591 1_655
Co2 Si3 2.271147 1_555
Co2 Si0 2.289162 1_555
Co2 Si2 2.289167 1_555
Co2 Si4 2.296339 1_545
Co2 Si6 2.296360 1_545
Co2 V1 2.641828 1_555
Co2 V7 2.668000 1_555
Co2 V11 2.671942 1_555
Co2 V6 2.671961 1_555
Co2 V0 2.697588 1_655
Co2 V5 2.697592 1_556
Co3 Si3 2.271155 1_555
Co3 Si0 2.289170 1_555
Co3 Si1 2.289171 1_555
Co3 Si4 2.296353 1_455
Co3 Si5 2.296365 1_455
Co3 V2 2.641824 1_555
Co3 V8 2.667996 1_555
Co3 V10 2.671940 1_555
Co3 V6 2.671949 1_555
Co3 V0 2.697589 1_565
Co3 V4 2.697591 1_556
Co4 Si0 2.314006 1_555
Co4 Si1 2.314010 1_555
Co4 Si2 2.314018 1_555
Co4 Si4 2.321754 1_555
Co4 Si5 2.321770 1_555
Co4 Si6 2.321788 1_555
Co4 V9 2.680831 1_555
Co4 V7 2.680851 1_555
Co4 V8 2.680861 1_555
Co4 V2 2.690330 1_655
Co4 V1 2.690339 1_565
Co4 V3 2.690343 1_556
Si0 V3 2.461284 1_556
Si0 V5 2.477039 1_556
Si0 V4 2.477049 1_556
Si0 Si3 2.574484 1_555
Si0 Si1 2.600326 1_555
Si0 Si2 2.600336 1_555
Si0 V6 2.651507 1_555
Si0 V7 2.653966 1_555
Si0 V8 2.653977 1_555
Si1 V1 2.461264 1_565
Si1 V5 2.477031 1_565
Si1 V0 2.477037 1_565
Si1 Si3 2.574496 1_555
Si1 Si2 2.600350 1_555
Si1 V10 2.651505 1_555
Si1 V9 2.653972 1_555
Si1 V8 2.653994 1_555
Si2 V2 2.461249 1_655
Si2 V4 2.477021 1_655
Si2 V0 2.477025 1_655
Si2 Si3 2.574502 1_555
Si2 V11 2.651510 1_555
Si2 V9 2.653983 1_555
Si2 V7 2.653998 1_555
Si3 V3 2.461917 1_555
Si3 V1 2.461928 1_555
Si3 V2 2.461945 1_555
Si3 V11 2.676231 1_555
Si3 V10 2.676242 1_555
Si3 V6 2.676251 1_555
Si4 V11 2.501116 1_565
Si4 V10 2.501127 1_655
Si4 V9 2.526765 1_555
Si4 Si5 2.538168 1_555
Si4 Si6 2.538175 1_555
Si4 V0 2.600998 1_665
Si4 V1 2.692777 1_565
Si4 V2 2.692790 1_655
Si5 V11 2.501097 1_556
Si5 V6 2.501116 1_655
Si5 V7 2.526770 1_555
Si5 Si6 2.538187 1_555
Si5 V4 2.600996 1_656
Si5 V3 2.692771 1_556
Si5 V2 2.692816 1_655
Si6 V10 2.501090 1_556
Si6 V6 2.501095 1_565
Si6 V8 2.526774 1_555
Si6 V5 2.600992 1_566
Si6 V3 2.692799 1_556
Si6 V1 2.692820 1_565
C0 V0 2.052329 1_555
C0 V4 2.052357 1_555
C0 V5 2.052381 1_555
C0 V2 2.054763 1_555
C0 V1 2.054778 1_555
C0 V3 2.054807 1_555
C1 V6 2.051250 1_665
C1 V10 2.051268 1_656
C1 V11 2.051280 1_566
C1 V8 2.056921 1_655
C1 V7 2.056931 1_565
C1 V9 2.056946 1_556
