# generated using pymatgen
data_NaY6IrI12
_symmetry_space_group_name_H-M   'P 1'
_cell_length_a   9.71700234
_cell_length_b   9.71700197
_cell_length_c   9.71700165
_cell_angle_alpha   106.96449396
_cell_angle_beta   106.96449319
_cell_angle_gamma   106.96448627
_symmetry_Int_Tables_number   1
_chemical_formula_structural   NaY6IrI12
_chemical_formula_sum   'Na1 Y6 Ir1 I12'
_cell_volume   764.82551744
_cell_formula_units_Z   1
loop_
 _symmetry_equiv_pos_site_id
 _symmetry_equiv_pos_as_xyz
  1  'x, y, z'
loop_
 _atom_site_type_symbol
 _atom_site_label
 _atom_site_symmetry_multiplicity
 _atom_site_fract_x
 _atom_site_fract_y
 _atom_site_fract_z
 _atom_site_occupancy
  Na  Na0  1  0.50000000  0.50000000  0.50000000  1
  Y  Y0  1  0.10057483  0.02806803  0.30564646  1
  Y  Y1  1  0.30564646  0.10057483  0.02806803  1
  Y  Y2  1  0.02806803  0.30564646  0.10057483  1
  Y  Y3  1  0.89942517  0.97193197  0.69435354  1
  Y  Y4  1  0.69435354  0.89942517  0.97193197  1
  Y  Y5  1  0.97193197  0.69435354  0.89942517  1
  Ir  Ir0  1  0.00000000  0.00000000  0.00000000  1
  I  I0  1  0.07533272  0.67899935  0.22666593  1
  I  I1  1  0.22666593  0.07533272  0.67899935  1
  I  I2  1  0.67899935  0.22666593  0.07533272  1
  I  I3  1  0.92466728  0.32100065  0.77333407  1
  I  I4  1  0.77333407  0.92466728  0.32100065  1
  I  I5  1  0.32100065  0.77333407  0.92466728  1
  I  I6  1  0.45403003  0.14295822  0.37361484  1
  I  I7  1  0.37361484  0.45403003  0.14295822  1
  I  I8  1  0.14295822  0.37361484  0.45403003  1
  I  I9  1  0.54596997  0.85704178  0.62638516  1
  I  I10  1  0.62638516  0.54596997  0.85704178  1
  I  I11  1  0.85704178  0.62638516  0.54596997  1
loop_
_geom_bond_atom_site_label_1
_geom_bond_atom_site_label_2
_geom_bond_distance
_geom_bond_site_symmetry_2
Ir0 Y0 2.743749 1_555
Ir0 Y3 2.743749 1_444
Ir0 Y2 2.743749 1_555
Ir0 Y5 2.743749 1_444
Ir0 Y4 2.743750 1_444
Ir0 Y1 2.743750 1_555
I0 Y5 3.105289 1_454
I0 Y0 3.168552 1_565
I0 Y2 3.313454 1_555
I1 Y3 3.105289 1_445
I1 Y1 3.168551 1_556
I1 Y0 3.313454 1_555
I2 Y4 3.105289 1_544
I2 Y2 3.168552 1_655
I2 Y1 3.313454 1_555
I3 Y2 3.105289 1_656
I3 Y3 3.168552 1_545
I3 Y5 3.313454 1_555
I4 Y0 3.105289 1_665
I4 Y4 3.168551 1_554
I4 Y3 3.313454 1_555
I5 Y1 3.105289 1_566
I5 Y5 3.168552 1_455
I5 Y4 3.313454 1_555
I6 Y0 3.080097 1_555
I6 Y1 3.089321 1_555
I6 Na0 3.167562 1_555
I7 Y1 3.080096 1_555
I7 Y2 3.089321 1_555
I7 Na0 3.167562 1_555
I8 Y2 3.080096 1_555
I8 Y0 3.089321 1_555
I8 Na0 3.167562 1_555
I9 Y3 3.080097 1_555
I9 Y4 3.089321 1_555
I9 Na0 3.167562 1_555
I10 Y4 3.080096 1_555
I10 Y5 3.089321 1_555
I10 Na0 3.167562 1_555
I11 Y5 3.080096 1_555
I11 Y3 3.089321 1_555
I11 Na0 3.167562 1_555
