# generated using pymatgen
data_Lu3AlZn2C
_symmetry_space_group_name_H-M   'P 1'
_cell_length_a   8.91767829
_cell_length_b   8.91767876
_cell_length_c   8.91767734
_cell_angle_alpha   59.99999800
_cell_angle_beta   59.99999626
_cell_angle_gamma   60.00000134
_symmetry_Int_Tables_number   1
_chemical_formula_structural   Lu3AlZn2C
_chemical_formula_sum   'Lu12 Al4 Zn8 C4'
_cell_volume   501.46470001
_cell_formula_units_Z   4
loop_
 _symmetry_equiv_pos_site_id
 _symmetry_equiv_pos_as_xyz
  1  'x, y, z'
loop_
 _atom_site_type_symbol
 _atom_site_label
 _atom_site_symmetry_multiplicity
 _atom_site_fract_x
 _atom_site_fract_y
 _atom_site_fract_z
 _atom_site_occupancy
  Lu  Lu0  1  0.80516882  0.19483118  0.80516882  1
  Lu  Lu1  1  0.05516882  0.44483118  0.44483118  1
  Lu  Lu2  1  0.44483118  0.05516882  0.05516882  1
  Lu  Lu3  1  0.05516882  0.44483118  0.05516882  1
  Lu  Lu4  1  0.44483118  0.44483118  0.05516882  1
  Lu  Lu5  1  0.05516882  0.05516882  0.44483118  1
  Lu  Lu6  1  0.80516882  0.80516882  0.19483118  1
  Lu  Lu7  1  0.19483118  0.80516882  0.80516882  1
  Lu  Lu8  1  0.80516882  0.19483118  0.19483118  1
  Lu  Lu9  1  0.19483118  0.19483118  0.80516882  1
  Lu  Lu10  1  0.44483118  0.05516882  0.44483118  1
  Lu  Lu11  1  0.19483118  0.80516882  0.19483118  1
  Al  Al0  1  0.62500000  0.62500000  0.62500000  1
  Al  Al1  1  0.12500000  0.62500000  0.62500000  1
  Al  Al2  1  0.62500000  0.12500000  0.62500000  1
  Al  Al3  1  0.62500000  0.62500000  0.12500000  1
  Zn  Zn0  1  0.42198329  0.42198329  0.42198329  1
  Zn  Zn1  1  0.51595186  0.82801671  0.82801671  1
  Zn  Zn2  1  0.82801671  0.51595186  0.82801671  1
  Zn  Zn3  1  0.82801671  0.82801671  0.51595186  1
  Zn  Zn4  1  0.42198329  0.73404814  0.42198329  1
  Zn  Zn5  1  0.42198329  0.42198329  0.73404814  1
  Zn  Zn6  1  0.73404814  0.42198329  0.42198329  1
  Zn  Zn7  1  0.82801671  0.82801671  0.82801671  1
  C  C0  1  0.12500000  0.12500000  0.12500000  1
  C  C1  1  0.62500000  0.12500000  0.12500000  1
  C  C2  1  0.12500000  0.62500000  0.12500000  1
  C  C3  1  0.12500000  0.12500000  0.62500000  1
loop_
_geom_bond_atom_site_label_1
_geom_bond_atom_site_label_2
_geom_bond_distance
_geom_bond_site_symmetry_2
Lu0 Zn7 3.080888 1_545
Lu0 Zn2 3.080905 1_555
Lu0 Zn6 3.184787 1_555
Lu0 Zn5 3.184787 1_555
Lu1 Zn0 3.080888 1_555
Lu1 Zn6 3.080905 1_455
Lu1 Zn2 3.184787 1_455
Lu1 Zn3 3.184787 1_455
Lu2 Zn4 3.080895 1_545
Lu2 Zn5 3.080895 1_554
Lu2 Zn1 3.184772 1_544
Lu2 Zn7 3.184780 1_544
Lu3 Zn6 3.080895 1_455
Lu3 Zn5 3.080895 1_554
Lu3 Zn2 3.184772 1_454
Lu3 Zn7 3.184780 1_454
Lu4 Zn0 3.080887 1_555
Lu4 Zn5 3.080905 1_554
Lu4 Zn2 3.184787 1_554
Lu4 Zn1 3.184787 1_554
Lu5 Zn4 3.080895 1_545
Lu5 Zn6 3.080895 1_455
Lu5 Zn3 3.184772 1_445
Lu5 Zn7 3.184779 1_445
Lu6 Zn7 3.080887 1_554
Lu6 Zn3 3.080905 1_555
Lu6 Zn4 3.184787 1_555
Lu6 Zn6 3.184787 1_555
Lu7 Zn7 3.080888 1_455
Lu7 Zn1 3.080905 1_555
Lu7 Zn4 3.184787 1_555
Lu7 Zn5 3.184787 1_555
Lu8 Zn2 3.080895 1_554
Lu8 Zn3 3.080895 1_545
Lu8 Zn6 3.184772 1_555
Lu8 Zn0 3.184780 1_555
Lu9 Zn2 3.080895 1_455
Lu9 Zn1 3.080895 1_545
Lu9 Zn5 3.184772 1_555
Lu9 Zn0 3.184779 1_555
Lu10 Zn0 3.080888 1_555
Lu10 Zn4 3.080905 1_545
Lu10 Zn1 3.184787 1_545
Lu10 Zn3 3.184787 1_545
Lu11 Zn1 3.080895 1_554
Lu11 Zn3 3.080895 1_455
Lu11 Zn4 3.184772 1_555
Lu11 Zn0 3.184780 1_555
Al0 Zn2 2.693990 1_555
Al0 Zn4 2.693990 1_555
Al0 Zn1 2.693990 1_555
Al0 Zn6 2.693990 1_555
Al0 Zn3 2.693990 1_555
Al0 Zn5 2.693990 1_555
Al0 Lu6 3.183269 1_555
Al0 Lu4 3.183269 1_556
Al0 Lu1 3.183269 1_655
Al0 Lu7 3.183269 1_555
Al0 Lu10 3.183269 1_565
Al0 Lu0 3.183269 1_555
Al1 Zn4 2.693975 1_555
Al1 Zn2 2.693975 1_455
Al1 Zn5 2.693975 1_555
Al1 Zn3 2.693975 1_455
Al1 Zn7 2.693984 1_455
Al1 Zn0 2.693984 1_555
Al1 Lu3 3.183269 1_556
Al1 Lu11 3.183269 1_555
Al1 Lu7 3.183269 1_555
Al1 Lu1 3.183269 1_555
Al1 Lu5 3.183269 1_565
Al1 Lu9 3.183269 1_555
Al2 Zn6 2.693975 1_555
Al2 Zn1 2.693975 1_545
Al2 Zn5 2.693975 1_555
Al2 Zn3 2.693975 1_545
Al2 Zn7 2.693985 1_545
Al2 Zn0 2.693985 1_555
Al2 Lu2 3.183268 1_556
Al2 Lu8 3.183268 1_555
Al2 Lu5 3.183269 1_655
Al2 Lu9 3.183269 1_555
Al2 Lu0 3.183269 1_555
Al2 Lu10 3.183269 1_555
Al3 Zn4 2.693975 1_555
Al3 Zn2 2.693975 1_554
Al3 Zn6 2.693975 1_555
Al3 Zn1 2.693975 1_554
Al3 Zn0 2.693984 1_555
Al3 Zn7 2.693984 1_554
Al3 Lu3 3.183269 1_655
Al3 Lu11 3.183269 1_555
Al3 Lu6 3.183269 1_555
Al3 Lu4 3.183269 1_555
Al3 Lu2 3.183269 1_565
Al3 Lu8 3.183269 1_555
Zn0 Zn5 2.782894 1_555
Zn0 Zn6 2.782894 1_555
Zn0 Zn4 2.782894 1_555
Zn1 Zn3 2.782894 1_555
Zn1 Zn7 2.782894 1_555
Zn1 Zn2 2.782894 1_555
Zn2 Zn3 2.782894 1_555
Zn2 Zn7 2.782894 1_555
Zn3 Zn7 2.782894 1_555
Zn4 Zn5 2.782894 1_555
Zn4 Zn6 2.782894 1_555
Zn5 Zn6 2.782894 1_555
C0 Lu5 2.397061 1_555
C0 Lu9 2.397061 1_554
C0 Lu2 2.397061 1_555
C0 Lu8 2.397061 1_455
C0 Lu3 2.397061 1_555
C0 Lu11 2.397061 1_545
C1 Lu0 2.397061 1_554
C1 Lu10 2.397061 1_555
C1 Lu8 2.397061 1_555
C1 Lu2 2.397061 1_555
C1 Lu6 2.397061 1_545
C1 Lu4 2.397061 1_555
C2 Lu1 2.397061 1_555
C2 Lu7 2.397061 1_554
C2 Lu4 2.397061 1_555
C2 Lu6 2.397061 1_455
C2 Lu11 2.397061 1_555
C2 Lu3 2.397061 1_555
C3 Lu10 2.397061 1_555
C3 Lu0 2.397061 1_455
C3 Lu9 2.397061 1_555
C3 Lu5 2.397061 1_555
C3 Lu1 2.397061 1_555
C3 Lu7 2.397061 1_545
