# generated using pymatgen
data_Zr10BeNiSb6
_symmetry_space_group_name_H-M   'P 1'
_cell_length_a   8.57748586
_cell_length_b   8.57748567
_cell_length_c   5.80689833
_cell_angle_alpha   90.00000000
_cell_angle_beta   90.00000000
_cell_angle_gamma   119.99999694
_symmetry_Int_Tables_number   1
_chemical_formula_structural   Zr10BeNiSb6
_chemical_formula_sum   'Zr10 Be1 Ni1 Sb6'
_cell_volume   369.99416857
_cell_formula_units_Z   1
loop_
 _symmetry_equiv_pos_site_id
 _symmetry_equiv_pos_as_xyz
  1  'x, y, z'
loop_
 _atom_site_type_symbol
 _atom_site_label
 _atom_site_symmetry_multiplicity
 _atom_site_fract_x
 _atom_site_fract_y
 _atom_site_fract_z
 _atom_site_occupancy
  Zr  Zr0  1  0.74602667  0.74602667  0.75259695  1
  Zr  Zr1  1  0.25397333  0.00000000  0.75259695  1
  Zr  Zr2  1  0.00000000  0.25397333  0.75259695  1
  Zr  Zr3  1  0.25397333  0.25397333  0.24740305  1
  Zr  Zr4  1  0.74602667  1.00000000  0.24740305  1
  Zr  Zr5  1  1.00000000  0.74602667  0.24740305  1
  Zr  Zr6  1  0.66666700  0.33333300  0.00000000  1
  Zr  Zr7  1  0.33333300  0.66666700  0.00000000  1
  Zr  Zr8  1  0.33333300  0.66666700  0.50000000  1
  Zr  Zr9  1  0.66666700  0.33333300  0.50000000  1
  Be  Be0  1  0.00000000  0.00000000  0.00000000  1
  Ni  Ni0  1  0.00000000  0.00000000  0.50000000  1
  Sb  Sb0  1  0.38904683  0.38904683  0.74863565  1
  Sb  Sb1  1  0.61095317  0.00000000  0.74863565  1
  Sb  Sb2  1  0.00000000  0.61095317  0.74863565  1
  Sb  Sb3  1  0.61095317  0.61095317  0.25136435  1
  Sb  Sb4  1  0.38904683  1.00000000  0.25136435  1
  Sb  Sb5  1  1.00000000  0.38904683  0.25136435  1
loop_
_geom_bond_atom_site_label_1
_geom_bond_atom_site_label_2
_geom_bond_distance
_geom_bond_site_symmetry_2
Be0 Zr2 2.609522 1_554
Be0 Zr5 2.609522 1_445
Be0 Zr1 2.609522 1_554
Be0 Zr4 2.609522 1_445
Be0 Zr3 2.609522 1_555
Be0 Zr0 2.609522 1_444
Ni0 Zr2 2.626247 1_555
Ni0 Zr5 2.626247 1_445
Ni0 Zr1 2.626247 1_555
Ni0 Zr4 2.626247 1_445
Ni0 Zr3 2.626247 1_555
Ni0 Zr0 2.626247 1_445
Sb0 Zr1 2.934698 1_555
Sb0 Zr2 2.934698 1_555
Sb0 Zr8 3.020170 1_555
Sb0 Zr9 3.020170 1_555
Sb0 Zr7 3.027777 1_556
Sb0 Zr6 3.027777 1_556
Sb0 Zr0 3.062076 1_555
Sb0 Zr3 3.119429 1_556
Sb0 Zr3 3.132725 1_555
Sb1 Zr0 2.934698 1_545
Sb1 Zr2 2.934698 1_655
Sb1 Zr9 3.020162 1_555
Sb1 Zr8 3.020165 1_545
Sb1 Zr6 3.027769 1_556
Sb1 Zr7 3.027772 1_546
Sb1 Zr1 3.062076 1_555
Sb1 Zr4 3.119429 1_546
Sb1 Zr4 3.132725 1_545
Sb2 Zr0 2.934698 1_455
Sb2 Zr1 2.934698 1_565
Sb2 Zr8 3.020162 1_555
Sb2 Zr9 3.020165 1_455
Sb2 Zr7 3.027769 1_556
Sb2 Zr6 3.027772 1_456
Sb2 Zr2 3.062076 1_555
Sb2 Zr5 3.119429 1_456
Sb2 Zr5 3.132725 1_455
Sb3 Zr4 2.934698 1_555
Sb3 Zr5 2.934698 1_555
Sb3 Zr9 3.020170 1_555
Sb3 Zr8 3.020170 1_555
Sb3 Zr6 3.027777 1_555
Sb3 Zr7 3.027777 1_555
Sb3 Zr3 3.062076 1_555
Sb3 Zr0 3.119429 1_554
Sb3 Zr0 3.132725 1_555
Sb4 Zr3 2.934698 1_565
Sb4 Zr5 2.934698 1_455
Sb4 Zr8 3.020162 1_555
Sb4 Zr9 3.020165 1_565
Sb4 Zr7 3.027769 1_555
Sb4 Zr6 3.027772 1_565
Sb4 Zr4 3.062076 1_555
Sb4 Zr1 3.119429 1_564
Sb4 Zr1 3.132725 1_565
Sb5 Zr3 2.934698 1_655
Sb5 Zr4 2.934698 1_545
Sb5 Zr9 3.020162 1_555
Sb5 Zr8 3.020165 1_655
Sb5 Zr6 3.027769 1_555
Sb5 Zr7 3.027772 1_655
Sb5 Zr5 3.062076 1_555
Sb5 Zr2 3.119429 1_654
Sb5 Zr2 3.132725 1_655
