# generated using pymatgen
data_Fe2CuO4
_symmetry_space_group_name_H-M   'P 1'
_cell_length_a   6.05186412
_cell_length_b   6.05186412
_cell_length_c   14.70938749
_cell_angle_alpha   87.92009041
_cell_angle_beta   87.92009041
_cell_angle_gamma   59.09715077
_symmetry_Int_Tables_number   1
_chemical_formula_structural   Fe2CuO4
_chemical_formula_sum   'Fe12 Cu6 O24'
_cell_volume   461.85097309
_cell_formula_units_Z   6
loop_
 _symmetry_equiv_pos_site_id
 _symmetry_equiv_pos_as_xyz
  1  'x, y, z'
loop_
 _atom_site_type_symbol
 _atom_site_label
 _atom_site_symmetry_multiplicity
 _atom_site_fract_x
 _atom_site_fract_y
 _atom_site_fract_z
 _atom_site_occupancy
  Fe  Fe0  1  0.00252800  0.00252800  0.99997100  1
  Fe  Fe1  1  0.33877500  0.83992000  0.79145300  1
  Fe  Fe2  1  0.83992000  0.33877500  0.79145300  1
  Fe  Fe3  1  0.66704500  0.66704500  0.95462200  1
  Fe  Fe4  1  0.65737700  0.65737700  0.57883700  1
  Fe  Fe5  1  0.66611400  0.16685800  0.45911300  1
  Fe  Fe6  1  0.16685800  0.66611400  0.45911300  1
  Fe  Fe7  1  0.98707800  0.98707800  0.24790100  1
  Fe  Fe8  1  0.34522700  0.34522700  0.67222100  1
  Fe  Fe9  1  0.00029200  0.49094600  0.12519400  1
  Fe  Fe10  1  0.49094600  0.00029200  0.12519400  1
  Fe  Fe11  1  0.67507100  0.67507100  0.33613000  1
  Cu  Cu0  1  0.33201100  0.33201100  0.91569600  1
  Cu  Cu1  1  0.83526800  0.83526800  0.79044400  1
  Cu  Cu2  1  0.00236900  0.00236900  0.62585600  1
  Cu  Cu3  1  0.16665400  0.16665400  0.45873600  1
  Cu  Cu4  1  0.33035900  0.33035900  0.29224400  1
  Cu  Cu5  1  0.49570500  0.49570500  0.12588600  1
  O  O0  1  0.51738600  0.51738600  0.87150700  1
  O  O1  1  0.51323500  0.97323500  0.87035500  1
  O  O2  1  0.66322600  0.66322600  0.70957800  1
  O  O3  1  0.97323500  0.51323500  0.87035500  1
  O  O4  1  0.69705100  0.16454900  0.71185400  1
  O  O5  1  0.82921200  0.82921200  0.53072100  1
  O  O6  1  0.16454900  0.69705100  0.71185400  1
  O  O7  1  0.00695100  0.00695100  0.87025600  1
  O  O8  1  0.84564200  0.30381300  0.53831900  1
  O  O9  1  0.98734700  0.98734700  0.37830200  1
  O  O10  1  0.30381300  0.84564200  0.53831900  1
  O  O11  1  0.17256800  0.17256800  0.71751600  1
  O  O12  1  0.02750600  0.48852200  0.37840400  1
  O  O13  1  0.15795200  0.15795200  0.19826900  1
  O  O14  1  0.48852200  0.02750600  0.37840400  1
  O  O15  1  0.34675600  0.34675600  0.54010200  1
  O  O16  1  0.16544600  0.63731500  0.20665800  1
  O  O17  1  0.33038200  0.33038200  0.05208900  1
  O  O18  1  0.63731500  0.16544600  0.20665800  1
  O  O19  1  0.50441500  0.50441500  0.38625700  1
  O  O20  1  0.35311400  0.82568600  0.04339200  1
  O  O21  1  0.66728500  0.66728500  0.20350500  1
  O  O22  1  0.82568600  0.35311400  0.04339200  1
  O  O23  1  0.82179500  0.82179500  0.04386900  1
loop_
_geom_bond_atom_site_label_1
_geom_bond_atom_site_label_2
_geom_bond_distance
_geom_bond_site_symmetry_2
Fe0 O7 1.906653 1_555
Fe0 O22 1.941979 1_456
Fe0 O20 1.941979 1_546
Fe0 O23 1.983917 1_446
Fe1 O11 2.021837 1_565
Fe1 O0 2.030613 1_555
Fe1 O1 2.035815 1_555
Fe1 O2 2.052916 1_555
Fe1 O7 2.056480 1_565
Fe1 O6 2.080799 1_555
Fe2 O11 2.021837 1_655
Fe2 O0 2.030613 1_555
Fe2 O3 2.035815 1_555
Fe2 O2 2.052916 1_555
Fe2 O7 2.056480 1_655
Fe2 O4 2.080799 1_555
Fe3 O3 1.995457 1_555
Fe3 O1 1.995457 1_555
Fe3 O0 2.034375 1_555
Fe3 O22 2.067266 1_556
Fe3 O20 2.067266 1_556
Fe3 O23 2.134693 1_556
Fe4 O5 1.915141 1_555
Fe4 O2 1.926672 1_555
Fe4 O8 1.941878 1_555
Fe4 O10 1.941878 1_555
Fe5 O15 2.026215 1_555
Fe5 O5 2.026494 1_545
Fe5 O9 2.032038 1_545
Fe5 O19 2.035468 1_555
Fe5 O8 2.076474 1_555
Fe5 O14 2.090941 1_555
Fe6 O15 2.026215 1_555
Fe6 O5 2.026494 1_455
Fe6 O9 2.032038 1_455
Fe6 O19 2.035468 1_555
Fe6 O10 2.076474 1_555
Fe6 O12 2.090941 1_555
Fe7 O13 1.913260 1_665
Fe7 O9 1.918239 1_555
Fe7 O16 1.926773 1_655
Fe7 O18 1.926773 1_565
Fe8 O11 1.909975 1_555
Fe8 O6 1.929084 1_555
Fe8 O4 1.929084 1_555
Fe8 O15 1.942784 1_555
Fe9 O17 2.004304 1_555
Fe9 O13 2.017200 1_555
Fe9 O21 2.058845 1_455
Fe9 O16 2.071933 1_555
Fe9 O23 2.074896 1_455
Fe9 O22 2.081043 1_455
Fe10 O17 2.004304 1_555
Fe10 O13 2.017200 1_555
Fe10 O21 2.058845 1_545
Fe10 O18 2.071933 1_555
Fe10 O23 2.074896 1_545
Fe10 O20 2.081043 1_545
Fe11 O19 1.913646 1_555
Fe11 O14 1.944834 1_565
Fe11 O12 1.944834 1_655
Fe11 O21 1.955969 1_555
Cu0 O3 1.991995 1_455
Cu0 O1 1.991995 1_545
Cu0 O17 2.005615 1_556
Cu0 O0 2.031394 1_555
Cu1 O3 2.027444 1_555
Cu1 O1 2.027444 1_555
Cu1 O4 2.048890 1_565
Cu1 O6 2.048890 1_655
Cu1 O7 2.196184 1_665
Cu1 O2 2.208226 1_555
Cu2 O8 2.006603 1_455
Cu2 O10 2.006603 1_545
Cu2 O6 2.008804 1_545
Cu2 O4 2.008804 1_455
Cu2 O11 2.287154 1_555
Cu2 O5 2.344228 1_445
Cu3 O8 2.020539 1_455
Cu3 O10 2.020539 1_545
Cu3 O12 2.029772 1_555
Cu3 O14 2.029772 1_555
Cu3 O9 2.269533 1_445
Cu3 O15 2.284312 1_555
Cu4 O14 1.999772 1_555
Cu4 O12 1.999772 1_555
Cu4 O18 2.012189 1_555
Cu4 O16 2.012189 1_555
Cu4 O13 2.327166 1_555
Cu4 O19 2.341511 1_555
Cu5 O18 2.069520 1_555
Cu5 O16 2.069520 1_555
Cu5 O22 2.082092 1_555
Cu5 O20 2.082092 1_555
Cu5 O17 2.089561 1_555
Cu5 O21 2.177071 1_555
