# generated using pymatgen
data_MnCr3(CuSe4)2
_symmetry_space_group_name_H-M   'P 1'
_cell_length_a   7.35921640
_cell_length_b   7.35921624
_cell_length_c   7.35921518
_cell_angle_alpha   59.74044143
_cell_angle_beta   59.74044000
_cell_angle_gamma   59.74043704
_symmetry_Int_Tables_number   1
_chemical_formula_structural   MnCr3(CuSe4)2
_chemical_formula_sum   'Mn1 Cr3 Cu2 Se8'
_cell_volume   280.16388702
_cell_formula_units_Z   1
loop_
 _symmetry_equiv_pos_site_id
 _symmetry_equiv_pos_as_xyz
  1  'x, y, z'
loop_
 _atom_site_type_symbol
 _atom_site_label
 _atom_site_symmetry_multiplicity
 _atom_site_fract_x
 _atom_site_fract_y
 _atom_site_fract_z
 _atom_site_occupancy
  Mn  Mn0  1  0.50000000  0.50000000  0.50000000  1
  Cr  Cr0  1  0.00000000  0.50000000  0.50000000  1
  Cr  Cr1  1  0.50000000  0.50000000  0.00000000  1
  Cr  Cr2  1  0.50000000  0.00000000  0.50000000  1
  Cu  Cu0  1  0.12654631  0.12654631  0.12654631  1
  Cu  Cu1  1  0.87345369  0.87345369  0.87345369  1
  Se  Se0  1  0.25775788  0.25775788  0.25775788  1
  Se  Se1  1  0.72827382  0.25722067  0.25722067  1
  Se  Se2  1  0.25722067  0.25722067  0.72827382  1
  Se  Se3  1  0.25722067  0.72827382  0.25722067  1
  Se  Se4  1  0.74224212  0.74224212  0.74224212  1
  Se  Se5  1  0.27172618  0.74277933  0.74277933  1
  Se  Se6  1  0.74277933  0.74277933  0.27172618  1
  Se  Se7  1  0.74277933  0.27172618  0.74277933  1
loop_
_geom_bond_atom_site_label_1
_geom_bond_atom_site_label_2
_geom_bond_distance
_geom_bond_site_symmetry_2
Mn0 Se5 2.524622 1_555
Mn0 Se1 2.524622 1_555
Mn0 Se7 2.524622 1_555
Mn0 Se3 2.524622 1_555
Mn0 Se6 2.524622 1_555
Mn0 Se2 2.524622 1_555
Cr0 Se4 2.518148 1_455
Cr0 Se0 2.518148 1_555
Cr0 Se2 2.523668 1_555
Cr0 Se6 2.523668 1_455
Cr0 Se3 2.523668 1_555
Cr0 Se7 2.523668 1_455
Cr1 Se4 2.518148 1_554
Cr1 Se0 2.518148 1_555
Cr1 Se3 2.523668 1_555
Cr1 Se7 2.523668 1_554
Cr1 Se1 2.523668 1_555
Cr1 Se5 2.523668 1_554
Cr2 Se4 2.518148 1_545
Cr2 Se0 2.518148 1_555
Cr2 Se2 2.523668 1_555
Cr2 Se6 2.523668 1_545
Cr2 Se1 2.523668 1_555
Cr2 Se5 2.523668 1_545
Cu0 Se0 2.369891 1_555
Cu0 Se2 2.385549 1_554
Cu0 Se3 2.385550 1_545
Cu0 Se1 2.385550 1_455
Cu1 Se4 2.369891 1_555
Cu1 Se6 2.385549 1_556
Cu1 Se7 2.385550 1_565
Cu1 Se5 2.385550 1_655
