# generated using pymatgen
data_SrLiH9W
_symmetry_space_group_name_H-M   'P 1'
_cell_length_a   8.56275315
_cell_length_b   8.56275224
_cell_length_c   5.01612031
_cell_angle_alpha   90.00000000
_cell_angle_beta   90.00000000
_cell_angle_gamma   120.00000351
_symmetry_Int_Tables_number   1
_chemical_formula_structural   SrLiH9W
_chemical_formula_sum   'Sr3 Li3 H27 W3'
_cell_volume   318.51168020
_cell_formula_units_Z   3
loop_
 _symmetry_equiv_pos_site_id
 _symmetry_equiv_pos_as_xyz
  1  'x, y, z'
loop_
 _atom_site_type_symbol
 _atom_site_label
 _atom_site_symmetry_multiplicity
 _atom_site_fract_x
 _atom_site_fract_y
 _atom_site_fract_z
 _atom_site_occupancy
  Sr  Sr0  1  0.00000000  0.59945968  0.00000000  1
  Sr  Sr1  1  0.40054032  0.40054032  0.00000000  1
  Sr  Sr2  1  0.59945968  0.00000000  0.00000000  1
  Li  Li0  1  0.00000000  0.23948464  0.50000000  1
  Li  Li1  1  0.76051536  0.76051536  0.50000000  1
  Li  Li2  1  0.23948464  0.00000000  0.50000000  1
  H  H0  1  0.80678873  0.31934950  0.74680814  1
  H  H1  1  0.68065050  0.48743723  0.74680814  1
  H  H2  1  0.51256277  0.19321127  0.74680814  1
  H  H3  1  0.19321127  0.51256277  0.25319186  1
  H  H4  1  0.51256277  0.19321127  0.25319186  1
  H  H5  1  0.80678873  0.31934950  0.25319186  1
  H  H6  1  0.68065050  0.48743723  0.25319186  1
  H  H7  1  0.31934950  0.80678873  0.74680814  1
  H  H8  1  0.48743723  0.68065050  0.74680814  1
  H  H9  1  0.20273237  0.00000000  0.00000000  1
  H  H10  1  0.79726763  0.79726763  0.00000000  1
  H  H11  1  0.00000000  0.20273237  0.00000000  1
  H  H12  1  0.85663737  0.00000000  0.25368074  1
  H  H13  1  0.14336263  0.14336263  0.74631926  1
  H  H14  1  1.00000000  0.85663737  0.74631926  1
  H  H15  1  1.00000000  0.85663737  0.25368074  1
  H  H16  1  0.14336263  0.14336263  0.25368074  1
  H  H17  1  0.85663737  0.00000000  0.74631926  1
  H  H18  1  0.12829345  0.65753429  0.50000000  1
  H  H19  1  0.52923984  0.87170655  0.50000000  1
  H  H20  1  0.34246571  0.47076016  0.50000000  1
  H  H21  1  0.47076016  0.34246571  0.50000000  1
  H  H22  1  0.87170655  0.52923984  0.50000000  1
  H  H23  1  0.65753429  0.12829345  0.50000000  1
  H  H24  1  0.19321127  0.51256277  0.74680814  1
  H  H25  1  0.31934950  0.80678873  0.25319186  1
  H  H26  1  0.48743723  0.68065050  0.25319186  1
  W  W0  1  0.66666700  0.33333300  0.50000000  1
  W  W1  1  0.33333300  0.66666700  0.50000000  1
  W  W2  1  0.00000000  0.00000000  0.00000000  1
loop_
_geom_bond_atom_site_label_1
_geom_bond_atom_site_label_2
_geom_bond_distance
_geom_bond_site_symmetry_2
H0 W0 1.769260 1_555
H0 Sr0 2.476859 1_656
H0 Sr2 2.718027 1_556
H1 W0 1.769253 1_555
H1 Sr1 2.476862 1_556
H1 Sr0 2.718025 1_656
H2 W0 1.769256 1_555
H2 Sr2 2.476848 1_556
H2 Sr1 2.718039 1_556
H3 W1 1.769256 1_555
H3 Sr0 2.476848 1_555
H3 Sr1 2.718039 1_555
H4 W0 1.769256 1_555
H4 Sr2 2.476848 1_555
H4 Sr1 2.718039 1_555
H5 W0 1.769260 1_555
H5 Sr0 2.476859 1_655
H5 Sr2 2.718027 1_555
H6 W0 1.769253 1_555
H6 Sr1 2.476862 1_555
H6 Sr0 2.718025 1_655
H7 W1 1.769260 1_555
H7 Sr2 2.476859 1_566
H7 Sr0 2.718027 1_556
H8 W1 1.769254 1_555
H8 Sr1 2.476862 1_556
H8 Sr2 2.718025 1_566
H9 W2 1.735947 1_555
H10 W2 1.735947 1_665
H11 W2 1.735947 1_555
H12 W2 1.768103 1_655
H12 Li1 2.172878 1_545
H12 Li0 2.172878 1_655
H12 Sr2 2.543364 1_555
H13 W2 1.768103 1_556
H13 Li2 2.172878 1_555
H13 Li0 2.172878 1_555
H13 Sr1 2.543364 1_556
H14 W2 1.768103 1_666
H14 Li2 2.172878 1_665
H14 Li1 2.172878 1_555
H14 Sr0 2.543364 1_656
H15 W2 1.768103 1_665
H15 Li2 2.172878 1_665
H15 Li1 2.172878 1_555
H15 Sr0 2.543364 1_655
H16 W2 1.768103 1_555
H16 Li2 2.172878 1_555
H16 Li0 2.172878 1_555
H16 Sr1 2.543364 1_555
H17 W2 1.768103 1_656
H17 Li1 2.172878 1_545
H17 Li0 2.172878 1_655
H17 Sr2 2.543364 1_556
H18 W1 1.717938 1_555
H18 Sr0 2.682941 1_555
H18 Sr0 2.682941 1_556
H19 W1 1.717938 1_555
H19 Sr2 2.682941 1_566
H19 Sr2 2.682941 1_565
H20 W1 1.717938 1_555
H20 Sr1 2.682943 1_555
H20 Sr1 2.682943 1_556
H21 W0 1.717938 1_555
H21 Sr1 2.682943 1_555
H21 Sr1 2.682943 1_556
H22 W0 1.717938 1_555
H22 Sr0 2.682941 1_655
H22 Sr0 2.682941 1_656
H23 W0 1.717938 1_555
H23 Sr2 2.682941 1_556
H23 Sr2 2.682941 1_555
H24 W1 1.769256 1_555
H24 Sr0 2.476848 1_556
H24 Sr1 2.718039 1_556
H25 W1 1.769260 1_555
H25 Sr2 2.476859 1_565
H25 Sr0 2.718027 1_555
H26 W1 1.769254 1_555
H26 Sr1 2.476862 1_555
H26 Sr2 2.718025 1_565
