# generated using pymatgen
data_Ba2Sr3(TiN3)2
_symmetry_space_group_name_H-M   'P 1'
_cell_length_a   6.51479169
_cell_length_b   9.28802813
_cell_length_c   9.52818361
_cell_angle_alpha   104.25243762
_cell_angle_beta   105.43862479
_cell_angle_gamma   107.09674160
_symmetry_Int_Tables_number   1
_chemical_formula_structural   Ba2Sr3(TiN3)2
_chemical_formula_sum   'Ba4 Sr6 Ti4 N12'
_cell_volume   497.15546065
_cell_formula_units_Z   2
loop_
 _symmetry_equiv_pos_site_id
 _symmetry_equiv_pos_as_xyz
  1  'x, y, z'
loop_
 _atom_site_type_symbol
 _atom_site_label
 _atom_site_symmetry_multiplicity
 _atom_site_fract_x
 _atom_site_fract_y
 _atom_site_fract_z
 _atom_site_occupancy
  Ba  Ba0  1  0.79540970  0.55308757  0.60549849  1
  Ba  Ba1  1  0.20459030  0.44691243  0.39450151  1
  Ba  Ba2  1  0.19070627  0.98331534  0.86507658  1
  Ba  Ba3  1  0.80929373  0.01668466  0.13492342  1
  Sr  Sr0  1  0.80153229  0.11738805  0.55430179  1
  Sr  Sr1  1  0.19846671  0.88261095  0.44569721  1
  Sr  Sr2  1  0.43034741  0.58610830  0.87664064  1
  Sr  Sr3  1  0.56965159  0.41389270  0.12335936  1
  Sr  Sr4  1  0.98014367  0.29309141  0.95165043  1
  Sr  Sr5  1  0.01985633  0.70690859  0.04835057  1
  Ti  Ti0  1  0.44595313  0.15629334  0.29559249  1
  Ti  Ti1  1  0.55404587  0.84370666  0.70440651  1
  Ti  Ti2  1  0.46314032  0.24471144  0.71571299  1
  Ti  Ti3  1  0.53685968  0.75528956  0.28428601  1
  N  N0  1  0.40708681  0.21609429  0.49608180  1
  N  N1  1  0.59291319  0.78390471  0.50391820  1
  N  N2  1  0.55830659  0.06753021  0.74762925  1
  N  N3  1  0.44169441  0.93246979  0.25237075  1
  N  N4  1  0.20409765  0.24612343  0.77678646  1
  N  N5  1  0.79590135  0.75387557  0.22321254  1
  N  N6  1  0.71570395  0.43740636  0.84945966  1
  N  N7  1  0.28429805  0.56259364  0.15054134  1
  N  N8  1  0.23274694  0.18893377  0.14380342  1
  N  N9  1  0.76725106  0.81106623  0.85619658  1
  N  N10  1  0.74693980  0.29634367  0.32040127  1
  N  N11  1  0.25306220  0.70365733  0.67959873  1
loop_
_geom_bond_atom_site_label_1
_geom_bond_atom_site_label_2
_geom_bond_distance
_geom_bond_site_symmetry_2
Ba0 N11 2.699096 1_655
Ba0 N6 2.893404 1_555
Ba0 N10 3.012700 1_555
Ba0 N9 3.025625 1_555
Ba0 N1 3.045973 1_555
Ba0 N0 3.101153 1_555
Ba1 N10 2.699083 1_455
Ba1 N7 2.893398 1_555
Ba1 N11 3.012700 1_555
Ba1 N8 3.025618 1_555
Ba1 N0 3.045981 1_555
Ba1 N1 3.101146 1_555
Ba2 N9 2.718689 1_455
Ba2 N8 2.753760 1_566
Ba2 N4 2.756555 1_565
Ba2 N2 2.890643 1_565
Ba2 N11 2.962684 1_555
Ba3 N8 2.718678 1_655
Ba3 N9 2.753755 1_544
Ba3 N5 2.756557 1_545
Ba3 N3 2.890637 1_545
Ba3 N10 2.962684 1_555
N0 Ti0 1.959498 1_555
N0 Ti2 1.960999 1_555
N0 Sr1 2.849001 1_545
N0 Sr0 2.937412 1_555
N1 Ti1 1.959493 1_555
N1 Ti3 1.961012 1_555
N1 Sr0 2.849003 1_565
N1 Sr1 2.937419 1_555
N2 Ti2 1.982679 1_555
N2 Ti1 2.007621 1_545
N2 Sr4 2.735996 1_555
N2 Sr0 2.767867 1_555
N2 Sr1 2.886329 1_545
N3 Ti3 1.982664 1_555
N3 Ti0 2.007626 1_565
N3 Sr5 2.735997 1_555
N3 Sr1 2.767869 1_555
N3 Sr0 2.886317 1_565
N4 Ti2 1.928455 1_555
N4 Sr4 2.530935 1_455
N4 Sr0 2.598047 1_455
N4 Sr2 2.843721 1_555
N4 Sr3 3.178313 1_556
N5 Ti3 1.928452 1_555
N5 Sr5 2.530924 1_655
N5 Sr1 2.598047 1_655
N5 Sr3 2.843705 1_555
N5 Sr2 3.178306 1_554
N6 Ti2 1.887763 1_555
N6 Sr5 2.555788 1_656
N6 Sr4 2.611509 1_555
N6 Sr2 2.649634 1_555
N6 Sr3 3.040473 1_556
N7 Ti3 1.887758 1_555
N7 Sr4 2.555792 1_454
N7 Sr5 2.611518 1_555
N7 Sr3 2.649611 1_555
N7 Sr2 3.040474 1_554
N8 Ti0 1.872662 1_555
N8 Sr3 2.636791 1_555
N8 Sr4 2.683323 1_454
N9 Ti1 1.872664 1_555
N9 Sr2 2.636781 1_555
N9 Sr5 2.683336 1_656
N10 Ti0 1.922243 1_555
N10 Sr3 2.578197 1_555
N10 Sr0 3.099296 1_555
N11 Ti1 1.922228 1_555
N11 Sr2 2.578190 1_555
N11 Sr1 3.099291 1_555
