# generated using pymatgen
data_Na2H2PbF8
_symmetry_space_group_name_H-M   'P 1'
_cell_length_a   5.65170398
_cell_length_b   5.51775225
_cell_length_c   5.51775275
_cell_angle_alpha   96.80603926
_cell_angle_beta   105.56053041
_cell_angle_gamma   105.56052824
_symmetry_Int_Tables_number   1
_chemical_formula_structural   Na2H2PbF8
_chemical_formula_sum   'Na2 H2 Pb1 F8'
_cell_volume   156.28766541
_cell_formula_units_Z   1
loop_
 _symmetry_equiv_pos_site_id
 _symmetry_equiv_pos_as_xyz
  1  'x, y, z'
loop_
 _atom_site_type_symbol
 _atom_site_label
 _atom_site_symmetry_multiplicity
 _atom_site_fract_x
 _atom_site_fract_y
 _atom_site_fract_z
 _atom_site_occupancy
  Na  Na0  1  0.49999900  0.72817933  0.27181867  1
  Na  Na1  1  0.49999900  0.27181867  0.72817933  1
  H  H0  1  0.76770122  0.35812022  0.35812022  1
  H  H1  1  0.23229878  0.64188078  0.64188078  1
  Pb  Pb0  1  0.00000000  0.00000000  0.00000000  1
  F  F0  1  0.75131225  0.65236033  0.00923641  1
  F  F1  1  0.75557981  0.15575917  0.15575917  1
  F  F2  1  0.24868775  0.99076459  0.34764067  1
  F  F3  1  0.73819614  0.48035860  0.48035860  1
  F  F4  1  0.26180386  0.51964140  0.51964140  1
  F  F5  1  0.75131225  0.00923641  0.65236033  1
  F  F6  1  0.24442019  0.84423983  0.84423983  1
  F  F7  1  0.24868775  0.34764067  0.99076459  1
loop_
_geom_bond_atom_site_label_1
_geom_bond_atom_site_label_2
_geom_bond_distance
_geom_bond_site_symmetry_2
F0 Pb0 2.067039 1_665
F0 Na1 2.297311 1_554
F0 Na0 2.360261 1_555
F1 H0 1.456231 1_555
F1 Pb0 2.117632 1_655
F1 Na0 2.662477 1_545
F1 Na1 2.662477 1_554
F2 Pb0 2.067042 1_565
F2 Na1 2.297291 1_565
F2 Na0 2.360268 1_555
F3 H0 0.974945 1_555
F3 Na0 2.352796 1_555
F3 Na1 2.352796 1_555
F4 H1 0.974952 1_555
F4 Na1 2.352794 1_555
F4 Na0 2.352794 1_555
F5 Pb0 2.067039 1_656
F5 Na0 2.297311 1_545
F5 Na1 2.360261 1_555
F6 H1 1.456216 1_555
F6 Pb0 2.117638 1_566
F6 Na1 2.662471 1_565
F6 Na0 2.662471 1_556
F7 Pb0 2.067042 1_556
F7 Na0 2.297291 1_556
F7 Na1 2.360268 1_555
