# generated using pymatgen
data_Ta6Si6Tc5Ru
_symmetry_space_group_name_H-M   'P 1'
_cell_length_a   7.47664533
_cell_length_b   7.46413732
_cell_length_c   7.48851912
_cell_angle_alpha   127.43548703
_cell_angle_beta   123.79645518
_cell_angle_gamma   80.64708967
_symmetry_Int_Tables_number   1
_chemical_formula_structural   Ta6Si6Tc5Ru
_chemical_formula_sum   'Ta6 Si6 Tc5 Ru1'
_cell_volume   265.81749765
_cell_formula_units_Z   1
loop_
 _symmetry_equiv_pos_site_id
 _symmetry_equiv_pos_as_xyz
  1  'x, y, z'
loop_
 _atom_site_type_symbol
 _atom_site_label
 _atom_site_symmetry_multiplicity
 _atom_site_fract_x
 _atom_site_fract_y
 _atom_site_fract_z
 _atom_site_occupancy
  Ta  Ta0  1  0.94459527  0.90879787  0.46537462  1
  Ta  Ta1  1  0.05316715  0.50409612  0.95449342  1
  Ta  Ta2  1  0.53336160  0.50474399  0.46544999  1
  Ta  Ta3  1  0.46770852  0.93731406  0.97070722  1
  Ta  Ta4  1  0.75018562  0.08286549  0.83860149  1
  Ta  Ta5  1  0.25003051  0.09304704  0.33912381  1
  Si  Si0  1  0.72799663  0.48621309  0.25773329  1
  Si  Si1  1  0.28024361  0.51076554  0.73180271  1
  Si  Si2  1  0.66828495  0.17519727  0.51048599  1
  Si  Si3  1  0.32653600  0.83727688  0.49825192  1
  Si  Si4  1  0.16563150  0.17199505  0.00318972  1
  Si  Si5  1  0.83661941  0.83307927  0.00876785  1
  Tc  Tc0  1  0.47495751  0.75296330  0.22783620  1
  Tc  Tc1  1  0.02081763  0.75186181  0.77529499  1
  Tc  Tc2  1  0.90138828  0.25053005  0.40715111  1
  Tc  Tc3  1  0.09238328  0.50201777  0.34199066  1
  Tc  Tc4  1  0.34270398  0.25243277  0.84692977  1
  Ru  Ru0  1  0.66338855  0.50260162  0.91461424  1
loop_
_geom_bond_atom_site_label_1
_geom_bond_atom_site_label_2
_geom_bond_distance
_geom_bond_site_symmetry_2
Ta0 Tc4 2.777199 1_665
Ta0 Tc2 2.779976 1_565
Ta0 Tc3 2.815713 1_655
Ta0 Tc1 2.949576 1_655
Ta0 Tc0 2.951267 1_555
Ta1 Tc3 2.759215 1_556
Ta1 Tc4 2.764460 1_555
Ta1 Tc0 2.772307 1_556
Ta1 Tc2 2.786101 1_455
Ta1 Tc1 2.791064 1_555
Ta2 Tc3 2.886775 1_555
Ta2 Tc1 3.105301 1_655
Ta2 Tc0 3.109679 1_555
Ta2 Tc4 3.155122 1_554
Ta2 Tc2 3.161433 1_555
Ta3 Tc2 2.836589 1_566
Ta3 Tc4 2.870059 1_565
Ta3 Tc0 2.946996 1_556
Ta3 Tc1 2.970301 1_555
Ta3 Tc3 3.204054 1_555
Ta4 Tc3 2.842256 1_656
Ta4 Tc1 2.905414 1_645
Ta4 Tc0 2.949803 1_545
Ta4 Tc2 3.098193 1_556
Ta4 Tc4 3.122445 1_555
Ta5 Tc1 2.747023 1_544
Ta5 Tc0 2.750644 1_545
Ta5 Tc2 2.861706 1_455
Ta5 Tc4 2.862299 1_555
Ta5 Tc3 3.080128 1_555
Si0 Tc3 2.436380 1_655
Si0 Tc4 2.460879 1_554
Si0 Tc2 2.462787 1_555
Si0 Tc1 2.524794 1_655
Si0 Tc0 2.537726 1_555
Si0 Ta2 2.597605 1_555
Si0 Ta4 2.805656 1_554
Si0 Ta0 2.808159 1_555
Si1 Tc3 2.394804 1_555
Si1 Tc0 2.420952 1_556
Si1 Tc4 2.441285 1_555
Si1 Tc1 2.441812 1_555
Si1 Tc2 2.468430 1_455
Si1 Ta5 2.600562 1_555
Si1 Ta3 2.652902 1_555
Si1 Ta1 2.990651 1_555
Si2 Tc2 2.510041 1_555
Si2 Tc0 2.543463 1_545
Si2 Ta0 2.638261 1_545
Si2 Ta5 2.646516 1_555
Si2 Ta2 2.646777 1_555
Si2 Ta1 2.662924 1_655
Si2 Ta4 2.671135 1_555
Si2 Ta3 2.671485 1_544
Si3 Tc3 2.506233 1_555
Si3 Tc4 2.523627 1_565
Si3 Tc0 2.540032 1_555
Si3 Ta1 2.650478 1_554
Si3 Ta5 2.654122 1_565
Si3 Ta2 2.654445 1_555
Si3 Ta3 2.660647 1_555
Si3 Ta4 2.667445 1_565
Si3 Ta0 2.717057 1_455
Si4 Tc3 2.512789 1_555
Si4 Tc4 2.513643 1_554
Si4 Tc1 2.541744 1_544
Si4 Ta0 2.615834 1_444
Si4 Ta2 2.624854 1_555
Si4 Ta5 2.643728 1_555
Si4 Ta4 2.650580 1_454
Si4 Ta3 2.652505 1_544
Si4 Ta1 2.658019 1_554
Si5 Tc2 2.534881 1_565
Si5 Tc1 2.537655 1_654
Si5 Ta3 2.644206 1_554
Si5 Ta1 2.653839 1_654
Si5 Ta5 2.654411 1_665
Si5 Ta4 2.664250 1_564
Si5 Ta2 2.668686 1_554
Si5 Ta0 2.718602 1_555
Tc0 Tc4 2.859923 1_554
Tc0 Tc1 3.191807 1_554
Tc1 Tc2 2.864597 1_455
Tc1 Tc3 2.922910 1_555
Tc2 Tc3 2.925910 1_655
Tc2 Tc4 3.098819 1_655
Ru0 Si1 2.401225 1_555
Ru0 Si0 2.415059 1_556
Ru0 Si5 2.483439 1_556
Ru0 Si2 2.497006 1_555
Ru0 Ta1 2.760508 1_655
Ru0 Ta0 2.801069 1_556
Ru0 Ta4 2.853536 1_555
Ru0 Tc4 2.906027 1_555
Ru0 Tc0 2.910381 1_556
Ru0 Ta2 2.946448 1_555
Ru0 Tc3 3.020417 1_656
Ru0 Ta5 3.115473 1_555
Ru0 Ta3 3.213880 1_555
