# generated using pymatgen
data_NbSbO4
_symmetry_space_group_name_H-M   'P 1'
_cell_length_a   5.01633864
_cell_length_b   5.60810958
_cell_length_c   11.91305374
_cell_angle_alpha   90.00000000
_cell_angle_beta   90.00000000
_cell_angle_gamma   90.00000000
_symmetry_Int_Tables_number   1
_chemical_formula_structural   NbSbO4
_chemical_formula_sum   'Nb4 Sb4 O16'
_cell_volume   335.14013385
_cell_formula_units_Z   4
loop_
 _symmetry_equiv_pos_site_id
 _symmetry_equiv_pos_as_xyz
  1  'x, y, z'
loop_
 _atom_site_type_symbol
 _atom_site_label
 _atom_site_symmetry_multiplicity
 _atom_site_fract_x
 _atom_site_fract_y
 _atom_site_fract_z
 _atom_site_occupancy
  Nb  Nb0  1  0.75000000  0.13360790  0.25000000  1
  Nb  Nb1  1  0.75000000  0.36639210  0.75000000  1
  Nb  Nb2  1  0.25000000  0.86639210  0.75000000  1
  Nb  Nb3  1  0.25000000  0.63360790  0.25000000  1
  Sb  Sb0  1  0.80720800  0.75000000  -0.00000000  1
  Sb  Sb1  1  0.69279200  0.75000000  0.50000000  1
  Sb  Sb2  1  0.19279200  0.25000000  -0.00000000  1
  Sb  Sb3  1  0.30720800  0.25000000  0.50000000  1
  O  O0  1  0.50974350  0.84427867  0.19705281  1
  O  O1  1  0.50974350  0.65572133  0.80294719  1
  O  O2  1  0.99025650  0.84427867  0.30294719  1
  O  O3  1  0.99025650  0.65572133  0.69705281  1
  O  O4  1  0.49025650  0.15572133  0.80294719  1
  O  O5  1  0.49025650  0.34427867  0.19705281  1
  O  O6  1  0.00974350  0.15572133  0.69705281  1
  O  O7  1  0.00974350  0.34427867  0.30294719  1
  O  O8  1  0.07971986  0.57620616  0.09457600  1
  O  O9  1  0.07971986  0.92379384  0.90542400  1
  O  O10  1  0.42028014  0.57620616  0.40542400  1
  O  O11  1  0.42028014  0.92379384  0.59457600  1
  O  O12  1  0.92028014  0.42379384  0.90542400  1
  O  O13  1  0.92028014  0.07620616  0.09457600  1
  O  O14  1  0.57971986  0.42379384  0.59457600  1
  O  O15  1  0.57971986  0.07620616  0.40542400  1
loop_
_geom_bond_atom_site_label_1
_geom_bond_atom_site_label_2
_geom_bond_distance
_geom_bond_site_symmetry_2
Nb0 O7 1.868537 1_655
Nb0 O5 1.868537 1_555
Nb0 O13 2.064361 1_555
Nb0 O15 2.064361 1_555
Nb0 O0 2.117354 1_545
Nb0 O2 2.117354 1_545
Nb1 O6 1.868537 1_655
Nb1 O4 1.868537 1_555
Nb1 O14 2.064361 1_555
Nb1 O12 2.064361 1_555
Nb1 O1 2.117354 1_555
Nb1 O3 2.117354 1_555
Nb2 O1 1.868537 1_555
Nb2 O3 1.868537 1_455
Nb2 O11 2.064361 1_555
Nb2 O9 2.064361 1_555
Nb2 O6 2.117354 1_565
Nb2 O4 2.117354 1_565
Nb3 O2 1.868537 1_455
Nb3 O0 1.868537 1_555
Nb3 O10 2.064361 1_555
Nb3 O8 2.064361 1_555
Nb3 O5 2.117354 1_555
Nb3 O7 2.117354 1_555
O8 Sb0 2.021905 1_455
O8 Sb2 2.222129 1_555
O9 Sb0 2.021905 1_456
O9 Sb2 2.222129 1_566
O10 Sb1 2.021905 1_555
O10 Sb3 2.222129 1_555
O11 Sb1 2.021905 1_555
O11 Sb3 2.222129 1_565
O12 Sb2 2.021905 1_656
O12 Sb0 2.222129 1_556
O13 Sb2 2.021905 1_655
O13 Sb0 2.222129 1_545
O14 Sb3 2.021905 1_555
O14 Sb1 2.222129 1_555
O15 Sb3 2.021905 1_555
O15 Sb1 2.222129 1_545
