# generated using pymatgen
data_Ba2GaIrI
_symmetry_space_group_name_H-M   'P 1'
_cell_length_a   4.46538459
_cell_length_b   4.46538186
_cell_length_c   19.36224354
_cell_angle_alpha   90.00000000
_cell_angle_beta   90.00000000
_cell_angle_gamma   120.00001278
_symmetry_Int_Tables_number   1
_chemical_formula_structural   Ba2GaIrI
_chemical_formula_sum   'Ba4 Ga2 Ir2 I2'
_cell_volume   334.35184740
_cell_formula_units_Z   2
loop_
 _symmetry_equiv_pos_site_id
 _symmetry_equiv_pos_as_xyz
  1  'x, y, z'
loop_
 _atom_site_type_symbol
 _atom_site_label
 _atom_site_symmetry_multiplicity
 _atom_site_fract_x
 _atom_site_fract_y
 _atom_site_fract_z
 _atom_site_occupancy
  Ba  Ba0  1  0.00000000  0.00000000  0.38808819  1
  Ba  Ba1  1  0.00000000  0.00000000  0.88808819  1
  Ba  Ba2  1  0.00000000  0.00000000  0.61186206  1
  Ba  Ba3  1  0.00000000  0.00000000  0.11186206  1
  Ga  Ga0  1  0.33333300  0.66666700  0.50017478  1
  Ga  Ga1  1  0.66666700  0.33333300  0.00017478  1
  Ir  Ir0  1  0.66666700  0.33333300  0.49984568  1
  Ir  Ir1  1  0.33333300  0.66666700  0.99984568  1
  I  I0  1  0.33333300  0.66666700  0.25003030  1
  I  I1  1  0.66666700  0.33333300  0.75003030  1
loop_
_geom_bond_atom_site_label_1
_geom_bond_atom_site_label_2
_geom_bond_distance
_geom_bond_site_symmetry_2
Ba0 Ir0 3.365842 1_455
Ba0 Ir0 3.365844 1_445
Ba0 Ir0 3.365846 1_555
Ba0 Ga0 3.369943 1_545
Ba0 Ga0 3.369945 1_555
Ba0 Ga0 3.369946 1_445
Ba0 I0 3.713766 1_545
Ba0 I0 3.713767 1_555
Ba0 I0 3.713769 1_445
Ba1 Ir1 3.365842 1_545
Ba1 Ir1 3.365844 1_555
Ba1 Ir1 3.365846 1_445
Ba1 Ga1 3.369943 1_456
Ba1 Ga1 3.369945 1_446
Ba1 Ga1 3.369946 1_556
Ba1 I1 3.713766 1_455
Ba1 I1 3.713767 1_445
Ba1 I1 3.713769 1_555
Ba2 Ga0 3.364969 1_545
Ba2 Ga0 3.364971 1_555
Ba2 Ga0 3.364972 1_445
Ba2 Ir0 3.369067 1_455
Ba2 Ir0 3.369069 1_445
Ba2 Ir0 3.369070 1_555
Ba2 I1 3.715304 1_455
Ba2 I1 3.715306 1_445
Ba2 I1 3.715307 1_555
Ba3 Ga1 3.364969 1_455
Ba3 Ga1 3.364971 1_445
Ba3 Ga1 3.364972 1_555
Ba3 Ir1 3.369067 1_544
Ba3 Ir1 3.369069 1_554
Ba3 Ir1 3.369070 1_444
Ba3 I0 3.715304 1_545
Ba3 I0 3.715306 1_555
Ba3 I0 3.715307 1_445
Ga0 Ir0 2.578094 1_565
Ga0 Ir0 2.578096 1_455
Ga0 Ir0 2.578103 1_555
Ga1 Ir1 2.578094 1_544
Ga1 Ir1 2.578096 1_654
Ga1 Ir1 2.578103 1_554
