# generated using pymatgen
data_YZn2CdPt2
_symmetry_space_group_name_H-M   'P 1'
_cell_length_a   5.16892448
_cell_length_b   5.25204989
_cell_length_c   5.25204815
_cell_angle_alpha   63.62669957
_cell_angle_beta   60.52219018
_cell_angle_gamma   60.52220089
_symmetry_Int_Tables_number   1
_chemical_formula_structural   YZn2CdPt2
_chemical_formula_sum   'Y1 Zn2 Cd1 Pt2'
_cell_volume   104.14238941
_cell_formula_units_Z   1
loop_
 _symmetry_equiv_pos_site_id
 _symmetry_equiv_pos_as_xyz
  1  'x, y, z'
loop_
 _atom_site_type_symbol
 _atom_site_label
 _atom_site_symmetry_multiplicity
 _atom_site_fract_x
 _atom_site_fract_y
 _atom_site_fract_z
 _atom_site_occupancy
  Y  Y0  1  0.99326575  0.00673425  0.00673425  1
  Zn  Zn0  1  0.12850208  0.62057770  0.62057770  1
  Zn  Zn1  1  0.63034352  0.62057770  0.62057770  1
  Cd  Cd0  1  0.24605727  0.25394273  0.25394273  1
  Pt  Pt0  1  0.62591619  0.62363863  0.12452999  1
  Pt  Pt1  1  0.62591619  0.12452999  0.62363863  1
loop_
_geom_bond_atom_site_label_1
_geom_bond_atom_site_label_2
_geom_bond_distance
_geom_bond_site_symmetry_2
Y0 Zn0 3.094987 1_644
Y0 Zn1 3.094989 1_644
Y0 Zn1 3.163743 1_545
Y0 Zn1 3.163743 1_554
Y0 Zn0 3.163745 1_645
Y0 Zn0 3.163746 1_654
Zn0 Zn1 2.574944 1_455
Zn0 Zn1 2.593981 1_555
Cd0 Zn1 2.962450 1_455
Cd0 Zn0 2.962451 1_555
Cd0 Pt1 3.058320 1_455
Cd0 Pt0 3.058321 1_455
Cd0 Pt1 3.058324 1_555
Cd0 Pt0 3.058325 1_555
Cd0 Pt1 3.092645 1_554
Cd0 Pt0 3.092646 1_545
Cd0 Y0 3.148928 1_455
Cd0 Y0 3.148928 1_555
Cd0 Zn0 3.207714 1_554
Cd0 Zn0 3.207715 1_545
Cd0 Zn1 3.207717 1_554
Cd0 Zn1 3.207717 1_545
Cd0 Y0 3.324076 1_456
Cd0 Y0 3.324078 1_465
Pt0 Zn1 2.609464 1_555
Pt0 Zn0 2.609464 1_555
Pt0 Zn1 2.642738 1_554
Pt0 Zn0 2.642738 1_654
Pt0 Pt1 2.763702 1_555
Pt0 Pt1 2.773573 1_564
Pt0 Y0 3.009292 1_555
Pt0 Y0 3.087789 1_565
Pt0 Y0 3.087793 1_465
Pt1 Zn1 2.609464 1_555
Pt1 Zn0 2.609465 1_555
Pt1 Zn1 2.642739 1_545
Pt1 Zn0 2.642739 1_645
Pt1 Y0 3.009291 1_555
Pt1 Y0 3.087788 1_556
Pt1 Y0 3.087793 1_456
