# generated using pymatgen
data_Sr10NbReN10
_symmetry_space_group_name_H-M   'P 1'
_cell_length_a   7.36409849
_cell_length_b   7.36409769
_cell_length_c   9.46127721
_cell_angle_alpha   80.89716502
_cell_angle_beta   80.89716682
_cell_angle_gamma   59.11525457
_symmetry_Int_Tables_number   1
_chemical_formula_structural   Sr10NbReN10
_chemical_formula_sum   'Sr10 Nb1 Re1 N10'
_cell_volume   432.98586361
_cell_formula_units_Z   1
loop_
 _symmetry_equiv_pos_site_id
 _symmetry_equiv_pos_as_xyz
  1  'x, y, z'
loop_
 _atom_site_type_symbol
 _atom_site_label
 _atom_site_symmetry_multiplicity
 _atom_site_fract_x
 _atom_site_fract_y
 _atom_site_fract_z
 _atom_site_occupancy
  Sr  Sr0  1  0.87749009  0.35290487  0.83636417  1
  Sr  Sr1  1  0.87519324  0.87519324  0.82258624  1
  Sr  Sr2  1  0.74279890  0.74279890  0.52419480  1
  Sr  Sr3  1  0.74826989  0.24997698  0.50737573  1
  Sr  Sr4  1  0.63344307  0.12905044  0.14634793  1
  Sr  Sr5  1  0.35290487  0.87749009  0.83636417  1
  Sr  Sr6  1  0.24997698  0.74826989  0.50737573  1
  Sr  Sr7  1  0.24214246  0.24214246  0.49887489  1
  Sr  Sr8  1  0.13609435  0.13609435  0.16173674  1
  Sr  Sr9  1  0.12905044  0.63344307  0.14634793  1
  Nb  Nb0  1  0.36615479  0.36615479  0.77885329  1
  Re  Re0  1  0.63555757  0.63555757  0.22558708  1
  N  N0  1  0.88892937  0.48157151  0.31513569  1
  N  N1  1  0.99778858  0.99778858  0.01008291  1
  N  N2  1  0.68846295  0.68846295  0.03330695  1
  N  N3  1  0.52356648  0.52356648  0.70778323  1
  N  N4  1  0.48157151  0.88892937  0.31513569  1
  N  N5  1  0.52817855  0.09558647  0.68283516  1
  N  N6  1  0.48934587  0.48934587  0.27426277  1
  N  N7  1  0.31431814  0.31431814  0.98842915  1
  N  N8  1  0.06546139  0.06546139  0.64398955  1
  N  N9  1  0.09558647  0.52817855  0.68283516  1
loop_
_geom_bond_atom_site_label_1
_geom_bond_atom_site_label_2
_geom_bond_distance
_geom_bond_site_symmetry_2
N0 Re0 1.873278 1_555
N0 Sr2 2.678849 1_555
N0 Sr8 2.733208 1_655
N0 Sr9 2.738524 1_655
N0 Sr3 2.743315 1_555
N0 Sr7 2.940944 1_655
N1 Sr8 2.474509 1_665
N1 Sr9 2.536261 1_655
N1 Sr4 2.536262 1_565
N1 Sr1 2.574352 1_554
N1 Sr0 2.654685 1_564
N1 Sr5 2.654685 1_654
N2 Re0 1.822203 1_555
N2 Sr1 2.821866 1_554
N2 Sr0 2.936117 1_554
N2 Sr5 2.936117 1_554
N3 Nb0 2.006453 1_555
N3 Sr5 2.647471 1_555
N3 Sr0 2.647471 1_555
N3 Sr3 2.680657 1_555
N3 Sr6 2.680657 1_555
N3 Sr2 3.021791 1_555
N4 Re0 1.873278 1_555
N4 Sr2 2.678849 1_555
N4 Sr8 2.733209 1_565
N4 Sr4 2.738524 1_565
N4 Sr6 2.743315 1_555
N4 Sr7 2.940944 1_565
N5 Nb0 2.002011 1_555
N5 Sr7 2.619702 1_555
N5 Sr1 2.654226 1_545
N5 Sr3 2.668079 1_555
N5 Sr5 2.674374 1_545
N5 Sr2 2.787116 1_545
N6 Re0 1.845839 1_555
N6 Sr4 2.711027 1_555
N6 Sr9 2.711028 1_555
N6 Sr3 2.873545 1_555
N6 Sr6 2.873545 1_555
N7 Nb0 1.973259 1_555
N7 Sr8 2.557396 1_556
N7 Sr9 2.605948 1_556
N7 Sr4 2.605948 1_556
N8 Sr7 2.424503 1_555
N8 Sr6 2.472701 1_545
N8 Sr3 2.472701 1_455
N8 Sr0 2.668959 1_455
N8 Sr5 2.668959 1_545
N8 Sr1 2.701656 1_445
N9 Nb0 2.002011 1_555
N9 Sr7 2.619702 1_555
N9 Sr1 2.654226 1_455
N9 Sr6 2.668078 1_555
N9 Sr0 2.674374 1_455
N9 Sr2 2.787116 1_455
