# generated using pymatgen
data_BaRe(As4Ir)3
_symmetry_space_group_name_H-M   'P 1'
_cell_length_a   7.47919708
_cell_length_b   7.47919634
_cell_length_c   7.45597429
_cell_angle_alpha   109.40832884
_cell_angle_beta   109.40832686
_cell_angle_gamma   109.53404311
_symmetry_Int_Tables_number   1
_chemical_formula_structural   BaRe(As4Ir)3
_chemical_formula_sum   'Ba1 Re1 As12 Ir3'
_cell_volume   321.31345268
_cell_formula_units_Z   1
loop_
 _symmetry_equiv_pos_site_id
 _symmetry_equiv_pos_as_xyz
  1  'x, y, z'
loop_
 _atom_site_type_symbol
 _atom_site_label
 _atom_site_symmetry_multiplicity
 _atom_site_fract_x
 _atom_site_fract_y
 _atom_site_fract_z
 _atom_site_occupancy
  Ba  Ba0  1  0.00000000  0.00000000  0.00000000  1
  Re  Re0  1  0.00000000  0.00000000  0.50000000  1
  As  As0  1  0.85232760  0.65173809  0.49992174  1
  As  As1  1  0.14767240  0.34826191  0.50007826  1
  As  As2  1  0.14839264  0.64835369  0.79585677  1
  As  As3  1  0.85160736  0.35164631  0.20414323  1
  As  As4  1  0.64835369  0.49996105  0.85249792  1
  As  As5  1  0.35164631  0.50003895  0.14750208  1
  As  As6  1  0.65173809  0.79941149  0.15181735  1
  As  As7  1  0.34826191  0.20058851  0.84818265  1
  As  As8  1  0.49996105  0.85160736  0.64746313  1
  As  As9  1  0.50003895  0.14839264  0.35253687  1
  As  As10  1  0.20058851  0.85232760  0.35240686  1
  As  As11  1  0.79941149  0.14767240  0.64759314  1
  Ir  Ir0  1  0.50000000  0.50000000  0.50000000  1
  Ir  Ir1  1  0.50000000  0.00000000  0.00000000  1
  Ir  Ir2  1  0.00000000  0.50000000  0.00000000  1
loop_
_geom_bond_atom_site_label_1
_geom_bond_atom_site_label_2
_geom_bond_distance
_geom_bond_site_symmetry_2
As0 Re0 2.465592 1_665
As0 Ir0 2.496683 1_555
As0 As3 2.568160 1_555
As0 As2 2.569032 1_655
As0 Ba0 3.285037 1_666
As1 Re0 2.465592 1_555
As1 Ir0 2.496683 1_555
As1 As2 2.568160 1_555
As1 As3 2.569032 1_455
As1 Ba0 3.285037 1_555
As2 Ir2 2.490233 1_556
As2 Ir1 2.490691 1_566
As2 Ba0 3.298460 1_566
As3 Ir2 2.490233 1_655
As3 Ir1 2.490691 1_555
As3 Ba0 3.298460 1_655
As4 Ir0 2.490240 1_555
As4 Ir2 2.490691 1_656
As4 As7 2.568155 1_555
As4 As6 2.569036 1_556
As4 Ba0 3.298462 1_666
As5 Ir0 2.490240 1_555
As5 Ir2 2.490691 1_555
As5 As6 2.568155 1_555
As5 As7 2.569036 1_554
As5 Ba0 3.298462 1_555
As6 Re0 2.465589 1_665
As6 Ir1 2.496680 1_565
As6 Ba0 3.285039 1_665
As7 Re0 2.465589 1_555
As7 Ir1 2.496680 1_556
As7 Ba0 3.285039 1_556
As8 Ir1 2.490240 1_566
As8 Ir0 2.490690 1_555
As8 Ba0 3.298463 1_666
As9 Ir1 2.490240 1_555
As9 Ir0 2.490690 1_555
As9 Ba0 3.298463 1_555
As10 Re0 2.465582 1_565
As10 Ir2 2.496688 1_555
As10 As8 2.568156 1_555
As10 As9 2.569036 1_565
As10 Ba0 3.285040 1_565
As11 Re0 2.465582 1_655
As11 Ir2 2.496688 1_656
As11 As9 2.568156 1_555
As11 As8 2.569036 1_545
As11 Ba0 3.285040 1_656
