# generated using pymatgen
data_SrCoB2Os
_symmetry_space_group_name_H-M   'P 1'
_cell_length_a   5.94735967
_cell_length_b   5.94735894
_cell_length_c   5.94736122
_cell_angle_alpha   142.44549538
_cell_angle_beta   142.44549706
_cell_angle_gamma   54.15830352
_symmetry_Int_Tables_number   1
_chemical_formula_structural   SrCoB2Os
_chemical_formula_sum   'Sr1 Co1 B2 Os1'
_cell_volume   77.62861154
_cell_formula_units_Z   1
loop_
 _symmetry_equiv_pos_site_id
 _symmetry_equiv_pos_as_xyz
  1  'x, y, z'
loop_
 _atom_site_type_symbol
 _atom_site_label
 _atom_site_symmetry_multiplicity
 _atom_site_fract_x
 _atom_site_fract_y
 _atom_site_fract_z
 _atom_site_occupancy
  Sr  Sr0  1  0.00000000  0.00000000  0.00000000  1
  Co  Co0  1  0.25000000  0.75000000  0.50000000  1
  B  B0  1  0.68305250  0.68305250  0.00000000  1
  B  B1  1  0.31694750  0.31694750  1.00000000  1
  Os  Os0  1  0.75000000  0.25000000  0.50000000  1
loop_
_geom_bond_atom_site_label_1
_geom_bond_atom_site_label_2
_geom_bond_distance
_geom_bond_site_symmetry_2
Co0 Sr0 3.267295 1_555
Co0 Sr0 3.267296 1_666
Co0 Sr0 3.267297 1_565
Co0 Sr0 3.267297 1_566
B0 Os0 2.041476 1_565
B0 Co0 2.041477 1_655
B0 Co0 2.041477 1_554
B0 Os0 2.041477 1_554
B0 Sr0 3.329904 1_554
B0 Sr0 3.329904 1_655
B0 Sr0 3.329905 1_565
B0 Sr0 3.329906 1_666
B1 Co0 2.041476 1_545
B1 Os0 2.041477 1_455
B1 Os0 2.041477 1_556
B1 Co0 2.041477 1_556
B1 Sr0 3.329904 1_667
B1 Sr0 3.329904 1_566
B1 Sr0 3.329905 1_656
B1 Sr0 3.329906 1_555
Os0 Sr0 3.267295 1_666
Os0 Sr0 3.267296 1_555
Os0 Sr0 3.267297 1_656
Os0 Sr0 3.267297 1_655
