# generated using pymatgen
data_Cs4MnCdSe4
_symmetry_space_group_name_H-M   'P 1'
_cell_length_a   8.90290802
_cell_length_b   8.90290781
_cell_length_c   8.90290737
_cell_angle_alpha   134.61533668
_cell_angle_beta   129.16657103
_cell_angle_gamma   70.49307802
_symmetry_Int_Tables_number   1
_chemical_formula_structural   Cs4MnCdSe4
_chemical_formula_sum   'Cs4 Mn1 Cd1 Se4'
_cell_volume   381.68628921
_cell_formula_units_Z   1
loop_
 _symmetry_equiv_pos_site_id
 _symmetry_equiv_pos_as_xyz
  1  'x, y, z'
loop_
 _atom_site_type_symbol
 _atom_site_label
 _atom_site_symmetry_multiplicity
 _atom_site_fract_x
 _atom_site_fract_y
 _atom_site_fract_z
 _atom_site_occupancy
  Cs  Cs0  1  0.51942303  0.85599247  0.66859972  1
  Cs  Cs1  1  0.48057697  0.14917670  0.33656944  1
  Cs  Cs2  1  0.81260626  0.64400753  0.16343056  1
  Cs  Cs3  1  0.18739374  0.35082330  0.83140028  1
  Mn  Mn0  1  0.00000000  0.75000000  0.75000000  1
  Cd  Cd0  1  0.00000000  0.25000000  0.25000000  1
  Se  Se0  1  0.08343244  0.89015360  0.17141424  1
  Se  Se1  1  0.71874036  0.41201820  0.32858576  1
  Se  Se2  1  0.91656756  0.08798180  0.80672216  1
  Se  Se3  1  0.28126064  0.60984640  0.69327784  1
loop_
_geom_bond_atom_site_label_1
_geom_bond_atom_site_label_2
_geom_bond_distance
_geom_bond_site_symmetry_2
Cs0 Se1 3.637231 1_555
Cs0 Se3 3.703285 1_555
Cs0 Se1 3.743954 1_566
Cs0 Mn0 3.750887 1_655
Cs0 Se2 3.754569 1_565
Cs0 Se0 3.761914 1_555
Cs0 Se0 4.007446 1_656
Cs1 Se3 3.637229 1_544
Cs1 Se1 3.703299 1_555
Cs1 Se3 3.743951 1_555
Cs1 Mn0 3.750887 1_544
Cs1 Se0 3.754574 1_545
Cs1 Se2 3.761919 1_555
Cs1 Se2 4.007443 1_454
Cs2 Se2 3.637228 1_565
Cs2 Se0 3.703300 1_655
Cs2 Se2 3.743957 1_554
Cs2 Mn0 3.750883 1_655
Cs2 Se1 3.754563 1_555
Cs2 Se3 3.761911 1_554
Cs2 Se3 4.007443 1_655
Cs3 Se0 3.637229 1_556
Cs3 Se2 3.703307 1_455
Cs3 Se0 3.743951 1_545
Cs3 Mn0 3.750887 1_555
Cs3 Se3 3.754577 1_555
Cs3 Se1 3.761914 1_556
Cs3 Se1 4.007446 1_455
Mn0 Se2 2.589910 1_465
Mn0 Se1 2.589910 1_455
Mn0 Se0 2.589914 1_556
Mn0 Se3 2.589918 1_555
Cd0 Se2 2.687649 1_454
Cd0 Se1 2.687649 1_455
Cd0 Se3 2.687657 1_555
Cd0 Se0 2.687657 1_545
Cd0 Cs3 3.734591 1_555
Cd0 Cs2 3.734595 1_455
Cd0 Cs1 3.734595 1_555
Cd0 Cs0 3.734595 1_444
