# generated using pymatgen
data_Sr3MnNiO6
_symmetry_space_group_name_H-M   'P 1'
_cell_length_a   6.59355058
_cell_length_b   6.59355044
_cell_length_c   6.59355087
_cell_angle_alpha   93.18445035
_cell_angle_beta   93.18444660
_cell_angle_gamma   93.18444888
_symmetry_Int_Tables_number   1
_chemical_formula_structural   Sr3MnNiO6
_chemical_formula_sum   'Sr6 Mn2 Ni2 O12'
_cell_volume   285.27470194
_cell_formula_units_Z   2
loop_
 _symmetry_equiv_pos_site_id
 _symmetry_equiv_pos_as_xyz
  1  'x, y, z'
loop_
 _atom_site_type_symbol
 _atom_site_label
 _atom_site_symmetry_multiplicity
 _atom_site_fract_x
 _atom_site_fract_y
 _atom_site_fract_z
 _atom_site_occupancy
  Sr  Sr0  1  0.88662273  0.61337727  0.25000000  1
  Sr  Sr1  1  0.25000000  0.88662273  0.61337727  1
  Sr  Sr2  1  0.61337727  0.25000000  0.88662273  1
  Sr  Sr3  1  0.75000000  0.11337727  0.38662273  1
  Sr  Sr4  1  0.38662273  0.75000000  0.11337727  1
  Sr  Sr5  1  0.11337727  0.38662273  0.75000000  1
  Mn  Mn0  1  0.50000000  0.50000000  0.50000000  1
  Mn  Mn1  1  0.00000000  0.00000000  0.00000000  1
  Ni  Ni0  1  0.25000000  0.25000000  0.25000000  1
  Ni  Ni1  1  0.75000000  0.75000000  0.75000000  1
  O  O0  1  0.22122093  0.53539550  0.41659901  1
  O  O1  1  0.41659901  0.22122093  0.53539550  1
  O  O2  1  0.53539550  0.41659901  0.22122093  1
  O  O3  1  0.91659901  0.03539550  0.72122093  1
  O  O4  1  0.72122093  0.91659901  0.03539550  1
  O  O5  1  0.03539550  0.72122093  0.91659901  1
  O  O6  1  0.77877907  0.46460450  0.58340099  1
  O  O7  1  0.58340099  0.77877907  0.46460450  1
  O  O8  1  0.46460450  0.58340099  0.77877907  1
  O  O9  1  0.08340099  0.96460450  0.27877907  1
  O  O10  1  0.27877907  0.08340099  0.96460450  1
  O  O11  1  0.96460450  0.27877907  0.08340099  1
loop_
_geom_bond_atom_site_label_1
_geom_bond_atom_site_label_2
_geom_bond_distance
_geom_bond_site_symmetry_2
Mn0 O7 1.919702 1_555
Mn0 O1 1.919702 1_555
Mn0 O6 1.919702 1_555
Mn0 O0 1.919702 1_555
Mn0 O8 1.919702 1_555
Mn0 O2 1.919702 1_555
Mn1 O11 1.919702 1_455
Mn1 O5 1.919702 1_544
Mn1 O4 1.919702 1_445
Mn1 O10 1.919702 1_554
Mn1 O9 1.919703 1_545
Mn1 O3 1.919703 1_454
Ni0 O0 2.148696 1_555
Ni0 O9 2.148696 1_545
Ni0 O2 2.148696 1_555
Ni0 O10 2.148696 1_554
Ni0 O11 2.148696 1_455
Ni0 O1 2.148696 1_555
Ni1 O6 2.148696 1_555
Ni1 O3 2.148696 1_565
Ni1 O8 2.148696 1_555
Ni1 O4 2.148696 1_556
Ni1 O5 2.148696 1_655
Ni1 O7 2.148696 1_555
O0 Sr0 2.501568 1_455
O0 Sr5 2.576068 1_555
O0 Sr1 2.583121 1_555
O0 Sr4 2.752082 1_555
O1 Sr1 2.501568 1_545
O1 Sr3 2.576068 1_555
O1 Sr2 2.583121 1_555
O1 Sr5 2.752082 1_555
O2 Sr2 2.501568 1_554
O2 Sr4 2.576068 1_555
O2 Sr0 2.583121 1_555
O2 Sr3 2.752082 1_555
O3 Sr3 2.501568 1_555
O3 Sr1 2.576068 1_645
O3 Sr5 2.583121 1_655
O3 Sr2 2.752082 1_555
O4 Sr4 2.501568 1_555
O4 Sr2 2.576068 1_564
O4 Sr3 2.583121 1_565
O4 Sr0 2.752082 1_555
O5 Sr5 2.501568 1_555
O5 Sr0 2.576068 1_456
O5 Sr4 2.583121 1_556
O5 Sr1 2.752082 1_555
O6 Sr5 2.501568 1_655
O6 Sr0 2.576068 1_555
O6 Sr3 2.583121 1_555
O6 Sr2 2.752082 1_555
O7 Sr3 2.501568 1_565
O7 Sr1 2.576068 1_555
O7 Sr4 2.583121 1_555
O7 Sr0 2.752082 1_555
O8 Sr4 2.501568 1_556
O8 Sr2 2.576068 1_555
O8 Sr5 2.583121 1_555
O8 Sr1 2.752082 1_555
O9 Sr1 2.501568 1_555
O9 Sr3 2.576068 1_465
O9 Sr0 2.583121 1_455
O9 Sr4 2.752082 1_555
O10 Sr2 2.501568 1_555
O10 Sr4 2.576068 1_546
O10 Sr1 2.583121 1_545
O10 Sr5 2.752082 1_555
O11 Sr0 2.501568 1_555
O11 Sr5 2.576068 1_654
O11 Sr2 2.583121 1_554
O11 Sr3 2.752082 1_555
