# generated using pymatgen
data_TiMn(SiRu2)2
_symmetry_space_group_name_H-M   'P 1'
_cell_length_a   7.24847519
_cell_length_b   7.24847473
_cell_length_c   7.24847394
_cell_angle_alpha   33.62998005
_cell_angle_beta   33.62998792
_cell_angle_gamma   33.62998822
_symmetry_Int_Tables_number   1
_chemical_formula_structural   TiMn(SiRu2)2
_chemical_formula_sum   'Ti1 Mn1 Si2 Ru4'
_cell_volume   104.05994611
_cell_formula_units_Z   1
loop_
 _symmetry_equiv_pos_site_id
 _symmetry_equiv_pos_as_xyz
  1  'x, y, z'
loop_
 _atom_site_type_symbol
 _atom_site_label
 _atom_site_symmetry_multiplicity
 _atom_site_fract_x
 _atom_site_fract_y
 _atom_site_fract_z
 _atom_site_occupancy
  Ti  Ti0  1  0.50000000  0.50000000  0.50000000  1
  Mn  Mn0  1  0.00000000  0.00000000  0.00000000  1
  Si  Si0  1  0.25079821  0.25079821  0.25079821  1
  Si  Si1  1  0.74920179  0.74920179  0.74920179  1
  Ru  Ru0  1  0.62546955  0.62546955  0.62546955  1
  Ru  Ru1  1  0.12431610  0.12431610  0.12431610  1
  Ru  Ru2  1  0.87568390  0.87568390  0.87568390  1
  Ru  Ru3  1  0.37453045  0.37453045  0.37453045  1
loop_
_geom_bond_atom_site_label_1
_geom_bond_atom_site_label_2
_geom_bond_distance
_geom_bond_site_symmetry_2
Mn0 Ru1 2.548031 1_555
Mn0 Ru2 2.548031 1_444
Mn0 Ru3 2.564254 1_545
Mn0 Ru0 2.564254 1_454
Mn0 Ru3 2.564254 1_554
Mn0 Ru0 2.564254 1_445
Mn0 Ru3 2.564255 1_455
Mn0 Ru0 2.564255 1_544
Ru0 Si1 2.536064 1_555
Ru0 Si0 2.565207 1_565
Ru0 Si0 2.565207 1_556
Ru0 Si0 2.565207 1_655
Ru0 Ti0 2.571672 1_555
Ru1 Si1 2.568220 1_454
Ru1 Si1 2.568220 1_445
Ru1 Si1 2.568220 1_544
Ru1 Ti0 2.572136 1_545
Ru1 Ti0 2.572136 1_554
Ru1 Ti0 2.572137 1_455
Ru1 Si0 2.592426 1_555
Ru2 Si0 2.568220 1_656
Ru2 Si0 2.568220 1_665
Ru2 Si0 2.568220 1_566
Ru2 Ti0 2.572136 1_565
Ru2 Ti0 2.572136 1_556
Ru2 Ti0 2.572137 1_655
Ru2 Si1 2.592426 1_555
Ru3 Si0 2.536064 1_555
Ru3 Si1 2.565207 1_545
Ru3 Si1 2.565207 1_554
Ru3 Si1 2.565207 1_455
Ru3 Ti0 2.571672 1_555
