# generated using pymatgen
data_La5AgSe8
_symmetry_space_group_name_H-M   'P 1'
_cell_length_a   7.85651445
_cell_length_b   7.85649127
_cell_length_c   7.85655676
_cell_angle_alpha   109.82172291
_cell_angle_beta   109.82303267
_cell_angle_gamma   108.77036296
_symmetry_Int_Tables_number   1
_chemical_formula_structural   La5AgSe8
_chemical_formula_sum   'La5 Ag1 Se8'
_cell_volume   373.27130094
_cell_formula_units_Z   1
loop_
 _symmetry_equiv_pos_site_id
 _symmetry_equiv_pos_as_xyz
  1  'x, y, z'
loop_
 _atom_site_type_symbol
 _atom_site_label
 _atom_site_symmetry_multiplicity
 _atom_site_fract_x
 _atom_site_fract_y
 _atom_site_fract_z
 _atom_site_occupancy
  La  La0  1  0.63289981  0.75080778  0.62017276  1
  La  La1  1  0.98728251  0.36710927  0.11791826  1
  La  La2  1  0.13062942  0.01272349  0.37985127  1
  La  La3  1  0.50001100  0.50000970  0.00000358  1
  La  La4  1  0.24920696  0.86937325  0.88209452  1
  Ag  Ag0  1  0.75001410  0.25003994  0.49997862  1
  Se  Se0  1  0.24709644  0.48841216  0.60537250  1
  Se  Se1  1  0.86441095  0.61396894  0.88544827  1
  Se  Se2  1  0.51162882  0.11700062  0.75868526  1
  Se  Se3  1  0.88291880  0.64163582  0.39460131  1
  Se  Se4  1  0.72852648  0.97897390  0.11455572  1
  Se  Se5  1  0.38602381  0.27146207  0.25047034  1
  Se  Se6  1  0.02103570  0.13558245  0.74956420  1
  Se  Se7  1  0.35831520  0.75290063  0.24128439  1
loop_
_geom_bond_atom_site_label_1
_geom_bond_atom_site_label_2
_geom_bond_distance
_geom_bond_site_symmetry_2
La0 Se1 3.002448 1_555
La0 Se0 3.004634 1_555
La0 Se7 3.035758 1_555
La0 Se6 3.058040 1_665
La0 Se3 3.185776 1_555
La0 Se5 3.231256 1_555
La0 Se2 3.273079 1_565
La0 Se4 3.361030 1_556
La1 Se6 3.002513 1_654
La1 Se7 3.004825 1_655
La1 Se3 3.035909 1_555
La1 Se4 3.058048 1_545
La1 Se2 3.186163 1_554
La1 Se1 3.231181 1_554
La1 Se0 3.272986 1_655
La1 Se5 3.360973 1_655
La2 Se4 3.002494 1_445
La2 Se3 3.005227 1_445
La2 Se2 3.035691 1_555
La2 Se5 3.057983 1_555
La2 Se0 3.186299 1_555
La2 Se6 3.231072 1_555
La2 Se7 3.273460 1_545
La2 Se1 3.361136 1_444
La3 Se3 3.013330 1_555
La3 Se7 3.013412 1_555
La3 Se2 3.013740 1_554
La3 Se0 3.013777 1_554
La3 Se1 3.233013 1_554
La3 Se4 3.233087 1_555
La3 Se6 3.233201 1_554
La3 Se5 3.233424 1_555
La4 Se5 3.002542 1_566
La4 Se2 3.004894 1_565
La4 Se0 3.035729 1_555
La4 Se1 3.058185 1_455
La4 Se7 3.186101 1_556
La4 Se4 3.231120 1_556
La4 Se3 3.273433 1_455
La4 Se6 3.360909 1_565
Ag0 Se5 2.963161 1_555
Ag0 Se4 2.963386 1_545
Ag0 Se1 2.963471 1_555
Ag0 Se6 2.963748 1_655
