# generated using pymatgen
data_Na16ZrSiAs8
_symmetry_space_group_name_H-M   'P 1'
_cell_length_a   9.74564035
_cell_length_b   9.74564033
_cell_length_c   9.74563908
_cell_angle_alpha   59.99328534
_cell_angle_beta   59.99328539
_cell_angle_gamma   59.99347338
_symmetry_Int_Tables_number   1
_chemical_formula_structural   Na16ZrSiAs8
_chemical_formula_sum   'Na16 Zr1 Si1 As8'
_cell_volume   654.41098233
_cell_formula_units_Z   1
loop_
 _symmetry_equiv_pos_site_id
 _symmetry_equiv_pos_as_xyz
  1  'x, y, z'
loop_
 _atom_site_type_symbol
 _atom_site_label
 _atom_site_symmetry_multiplicity
 _atom_site_fract_x
 _atom_site_fract_y
 _atom_site_fract_z
 _atom_site_occupancy
  Na  Na0  1  0.62954197  0.62954197  0.11128361  1
  Na  Na1  1  0.62954081  0.11128338  0.62954431  1
  Na  Na2  1  0.11128338  0.62954081  0.62954431  1
  Na  Na3  1  0.62958271  0.62958271  0.62958494  1
  Na  Na4  1  0.02997488  0.46999908  0.47000158  1
  Na  Na5  1  0.77319081  0.22680130  0.22680355  1
  Na  Na6  1  0.46999908  0.02997488  0.47000158  1
  Na  Na7  1  0.46999885  0.46999885  0.02997600  1
  Na  Na8  1  0.02997801  0.02997801  0.47007068  1
  Na  Na9  1  0.02997920  0.47006853  0.02997846  1
  Na  Na10  1  0.47006853  0.02997920  0.02997846  1
  Na  Na11  1  0.77315174  0.22683880  0.77315323  1
  Na  Na12  1  0.22680130  0.77319081  0.22680355  1
  Na  Na13  1  0.22680357  0.22680357  0.77319039  1
  Na  Na14  1  0.77315224  0.77315224  0.22684056  1
  Na  Na15  1  0.22683880  0.77315174  0.77315323  1
  Zr  Zr0  1  0.50001574  0.50001574  0.50000604  1
  Si  Si0  1  0.74999325  0.74999325  0.74999272  1
  As  As0  1  0.85245811  0.85245811  0.44260667  1
  As  As1  1  0.85245985  0.44260722  0.85245658  1
  As  As2  1  0.39105021  0.39105021  0.82694444  1
  As  As3  1  0.39105233  0.82696055  0.39105369  1
  As  As4  1  0.82696055  0.39105233  0.39105369  1
  As  As5  1  0.85243211  0.85243211  0.85243325  1
  As  As6  1  0.44260722  0.85245985  0.85245658  1
  As  As7  1  0.39108674  0.39108674  0.39108989  1
loop_
_geom_bond_atom_site_label_1
_geom_bond_atom_site_label_2
_geom_bond_distance
_geom_bond_site_symmetry_2
Na0 Si0 2.874649 1_554
Na0 Zr0 3.092911 1_555
Na0 Na5 3.208357 1_555
Na0 Na12 3.208357 1_555
Na0 Na14 3.209058 1_555
Na0 Na10 3.216431 1_565
Na0 Na9 3.216431 1_655
Na0 Na7 3.216465 1_555
Na1 Si0 2.874648 1_545
Na1 Zr0 3.092996 1_555
Na1 Na13 3.208329 1_555
Na1 Na5 3.208352 1_555
Na1 Na11 3.209041 1_555
Na1 Na10 3.216399 1_556
Na1 Na8 3.216427 1_655
Na1 Na6 3.216458 1_555
Na2 Si0 2.874648 1_455
Na2 Zr0 3.092996 1_555
Na2 Na9 3.216399 1_556
Na2 Na8 3.216427 1_565
Na2 Na4 3.216458 1_555
Na3 Si0 2.874544 1_555
Na3 Zr0 3.093253 1_555
Na3 Na7 3.216079 1_556
Na3 Na6 3.216094 1_565
Na3 Na4 3.216094 1_655
Na11 Na3 3.208326 1_555
Na12 Na2 3.208352 1_555
Na13 Na2 3.208329 1_555
Na14 Na3 3.208323 1_555
Na15 Na3 3.208326 1_555
Na15 Na2 3.209041 1_555
As0 Si0 2.445749 1_555
As0 Na5 3.075933 1_565
As0 Na12 3.075933 1_655
As0 Na14 3.076513 1_555
As0 Na3 3.091510 1_555
As0 Na1 3.091599 1_565
As0 Na2 3.091599 1_655
As0 Na4 3.158186 1_655
As0 Na6 3.158186 1_565
As0 Na8 3.158749 1_665
As1 Si0 2.445754 1_555
As1 Na13 3.075942 1_655
As1 Na5 3.075961 1_556
As1 Na11 3.076532 1_555
As1 Na3 3.091505 1_555
As1 Na2 3.091552 1_655
As1 Na0 3.091593 1_556
As1 Na4 3.158152 1_655
As1 Na7 3.158205 1_556
As1 Na9 3.158746 1_656
As2 Zr0 2.601319 1_555
As2 Na7 2.955779 1_556
As2 Na10 2.956388 1_556
As2 Na9 2.956388 1_556
As2 Na15 3.103029 1_555
As2 Na11 3.103029 1_555
As2 Na13 3.104673 1_555
As2 Na3 3.311838 1_555
As2 Na1 3.312496 1_555
As2 Na2 3.312496 1_555
As3 Zr0 2.601376 1_555
As3 Na6 2.955604 1_565
As3 Na8 2.956383 1_565
As3 Na10 2.956383 1_565
As3 Na15 3.102976 1_555
As3 Na14 3.102983 1_555
As3 Na12 3.104845 1_555
As3 Na3 3.311800 1_555
As3 Na2 3.312624 1_555
As3 Na0 3.312634 1_555
As4 Zr0 2.601376 1_555
As4 Na4 2.955604 1_655
As4 Na8 2.956383 1_655
As4 Na9 2.956383 1_655
As4 Na11 3.102976 1_555
As4 Na14 3.102983 1_555
As4 Na5 3.104845 1_555
As4 Na3 3.311800 1_555
As4 Na1 3.312624 1_555
As4 Na0 3.312634 1_555
As5 Si0 2.445541 1_555
As5 Na11 3.076594 1_565
As5 Na15 3.076594 1_655
As5 Na14 3.076598 1_556
As5 Na0 3.091681 1_556
As5 Na1 3.091691 1_565
As5 Na2 3.091691 1_655
As5 Na8 3.157551 1_665
As5 Na9 3.157567 1_656
As5 Na10 3.157567 1_566
As6 Si0 2.445754 1_555
As6 Na13 3.075942 1_565
As6 Na12 3.075961 1_556
As6 Na15 3.076532 1_555
As6 Na3 3.091505 1_555
As6 Na1 3.091552 1_565
As6 Na0 3.091593 1_556
As6 Na6 3.158152 1_565
As6 Na7 3.158205 1_556
As6 Na10 3.158746 1_566
As7 Zr0 2.600365 1_555
As7 Na6 2.957297 1_555
As7 Na4 2.957297 1_555
As7 Na7 2.957312 1_555
As7 Na13 3.103373 1_555
As7 Na12 3.103414 1_555
As7 Na5 3.103414 1_555
As7 Na1 3.310871 1_555
As7 Na2 3.310871 1_555
As7 Na0 3.310877 1_555
