# generated using pymatgen
data_GaP6PdO18
_symmetry_space_group_name_H-M   'P 1'
_cell_length_a   4.98823896
_cell_length_b   7.02172090
_cell_length_c   10.33178163
_cell_angle_alpha   96.97022023
_cell_angle_beta   91.33527905
_cell_angle_gamma   90.89976287
_symmetry_Int_Tables_number   1
_chemical_formula_structural   GaP6PdO18
_chemical_formula_sum   'Ga1 P6 Pd1 O18'
_cell_volume   359.04651172
_cell_formula_units_Z   1
loop_
 _symmetry_equiv_pos_site_id
 _symmetry_equiv_pos_as_xyz
  1  'x, y, z'
loop_
 _atom_site_type_symbol
 _atom_site_label
 _atom_site_symmetry_multiplicity
 _atom_site_fract_x
 _atom_site_fract_y
 _atom_site_fract_z
 _atom_site_occupancy
  Ga  Ga0  1  0.00000000  0.50000000  0.50000000  1
  P  P0  1  0.50233655  0.33280257  0.63975841  1
  P  P1  1  0.49766345  0.66719743  0.36024159  1
  P  P2  1  0.47848139  0.03765720  0.81810775  1
  P  P3  1  0.52151861  0.96234280  0.18189225  1
  P  P4  1  0.23399798  0.32458999  0.22917624  1
  P  P5  1  0.76600202  0.67541001  0.77082376  1
  Pd  Pd0  1  0.00000000  0.00000000  0.00000000  1
  O  O0  1  0.33491592  0.88583791  0.07121907  1
  O  O1  1  0.66508408  0.11416209  0.92878093  1
  O  O2  1  0.45391947  0.86834957  0.30874324  1
  O  O3  1  0.54608053  0.13165043  0.69125676  1
  O  O4  1  0.60502531  0.47687721  0.76260863  1
  O  O5  1  0.39497469  0.52312279  0.23739137  1
  O  O6  1  0.91072078  0.68549345  0.64711819  1
  O  O7  1  0.08927922  0.31450655  0.35288181  1
  O  O8  1  0.68246343  0.34171571  0.52780219  1
  O  O9  1  0.31753657  0.65828429  0.47219781  1
  O  O10  1  0.48023752  0.17957634  0.22933481  1
  O  O11  1  0.51976248  0.82042366  0.77066519  1
  O  O12  1  0.91282598  0.70836860  0.89757925  1
  O  O13  1  0.08717402  0.29163140  0.10242075  1
  O  O14  1  0.81423475  0.92830695  0.15770763  1
  O  O15  1  0.18576525  0.07169305  0.84229237  1
  O  O16  1  0.79005645  0.64359629  0.38229629  1
  O  O17  1  0.20994355  0.35640371  0.61770371  1
loop_
_geom_bond_atom_site_label_1
_geom_bond_atom_site_label_2
_geom_bond_distance
_geom_bond_site_symmetry_2
Ga0 O6 1.942791 1_455
Ga0 O7 1.942791 1_555
Ga0 O17 1.965621 1_555
Ga0 O16 1.965621 1_455
Ga0 O8 1.967251 1_455
Ga0 O9 1.967251 1_555
O0 P3 1.499363 1_555
O0 Pd0 2.025582 1_565
O1 P2 1.499363 1_555
O1 Pd0 2.025582 1_656
O2 P3 1.578134 1_555
O2 P1 1.585039 1_555
O3 P2 1.578134 1_555
O3 P0 1.585039 1_555
O4 P5 1.590063 1_555
O4 P0 1.593307 1_555
O5 P4 1.590063 1_555
O5 P1 1.593307 1_555
O6 P5 1.490985 1_555
O7 P4 1.490985 1_555
O8 P0 1.487771 1_555
O9 P1 1.487771 1_555
O10 P3 1.562841 1_545
O10 P4 1.607838 1_555
O11 P2 1.562841 1_565
O11 P5 1.607838 1_555
O12 P5 1.476974 1_555
O12 Pd0 2.219643 1_666
O13 P4 1.476974 1_555
O13 Pd0 2.219643 1_555
O14 P3 1.505000 1_555
O14 Pd0 2.005450 1_665
O15 P2 1.505000 1_555
O15 Pd0 2.005450 1_556
O16 P1 1.485918 1_555
O17 P0 1.485918 1_555
