# generated using pymatgen
data_Sr5CdOs3O16
_symmetry_space_group_name_H-M   'P 1'
_cell_length_a   5.75995407
_cell_length_b   5.77573809
_cell_length_c   10.36377453
_cell_angle_alpha   94.27844422
_cell_angle_beta   93.96539337
_cell_angle_gamma   90.01060156
_symmetry_Int_Tables_number   1
_chemical_formula_structural   Sr5CdOs3O16
_chemical_formula_sum   'Sr5 Cd1 Os3 O16'
_cell_volume   342.99303707
_cell_formula_units_Z   1
loop_
 _symmetry_equiv_pos_site_id
 _symmetry_equiv_pos_as_xyz
  1  'x, y, z'
loop_
 _atom_site_type_symbol
 _atom_site_label
 _atom_site_symmetry_multiplicity
 _atom_site_fract_x
 _atom_site_fract_y
 _atom_site_fract_z
 _atom_site_occupancy
  Sr  Sr0  1  0.50850696  0.02690364  0.20127776  1
  Sr  Sr1  1  0.03005209  0.49869673  0.20458699  1
  Sr  Sr2  1  0.99999515  0.99999387  0.49996659  1
  Sr  Sr3  1  0.96995526  0.50130643  0.79543873  1
  Sr  Sr4  1  0.49149971  0.97309290  0.79874171  1
  Cd  Cd0  1  0.50001300  0.50003119  0.00006678  1
  Os  Os0  1  0.00000837  0.00000178  0.00002357  1
  Os  Os1  1  0.56041621  0.56073888  0.38955263  1
  Os  Os2  1  0.43954834  0.43927104  0.61039542  1
  O  O0  1  0.70988130  0.16438000  0.00786370  1
  O  O1  1  0.84231524  0.71529636  0.02471615  1
  O  O2  1  0.05827843  0.05633834  0.17696708  1
  O  O3  1  0.45936769  0.46053650  0.20733388  1
  O  O4  1  0.76636859  0.76620732  0.32614653  1
  O  O5  1  0.30988389  0.75520780  0.37728367  1
  O  O6  1  0.75685143  0.31125748  0.37579475  1
  O  O7  1  0.31835971  0.31781455  0.43836753  1
  O  O8  1  0.68162968  0.68218666  0.56159011  1
  O  O9  1  0.24316592  0.68870966  0.62415093  1
  O  O10  1  0.69010403  0.24478904  0.62266846  1
  O  O11  1  0.23360439  0.23377049  0.67381375  1
  O  O12  1  0.54059168  0.53943116  0.79265528  1
  O  O13  1  0.94175644  0.94368087  0.82310421  1
  O  O14  1  0.15769718  0.28471836  0.97532579  1
  O  O15  1  0.29014430  0.83562796  0.99217898  1
loop_
_geom_bond_atom_site_label_1
_geom_bond_atom_site_label_2
_geom_bond_distance
_geom_bond_site_symmetry_2
Cd0 O3 2.205378 1_555
Cd0 O12 2.206696 1_554
Cd0 O15 2.288206 1_554
Cd0 O0 2.288413 1_555
Cd0 O1 2.319594 1_555
Cd0 O14 2.319816 1_554
O0 Os0 1.925738 1_655
O0 Sr0 2.559804 1_555
O0 Sr4 2.600998 1_544
O1 Os0 1.920648 1_665
O1 Sr1 2.505808 1_655
O1 Sr3 2.741912 1_554
O2 Os0 1.845849 1_555
O2 Sr1 2.556089 1_555
O2 Sr0 2.594947 1_555
O3 Os1 1.981116 1_555
O3 Sr1 2.481072 1_555
O3 Sr0 2.517158 1_555
O4 Os1 1.863076 1_555
O4 Sr0 2.484684 1_565
O4 Sr2 2.486041 1_555
O4 Sr1 2.501245 1_655
O5 Os1 1.832127 1_555
O5 Sr2 2.616892 1_455
O5 Sr1 2.683421 1_555
O5 Sr0 2.795308 1_565
O6 Os1 1.835509 1_555
O6 Sr2 2.635590 1_545
O6 Sr0 2.685673 1_555
O6 Sr1 2.732915 1_655
O7 Os2 1.949111 1_555
O7 Os1 2.090735 1_555
O7 Sr2 2.734113 1_445
O8 Os1 1.949224 1_555
O8 Os2 2.090764 1_555
O8 Sr2 2.734147 1_555
O9 Os2 1.835126 1_555
O9 Sr2 2.635818 1_455
O9 Sr4 2.686191 1_555
O9 Sr3 2.733455 1_455
O10 Os2 1.832281 1_555
O10 Sr2 2.617026 1_545
O10 Sr3 2.683947 1_555
O10 Sr4 2.795765 1_545
O11 Os2 1.863223 1_555
O11 Sr4 2.485045 1_545
O11 Sr2 2.486145 1_445
O11 Sr3 2.501541 1_455
O12 Os2 1.981443 1_555
O12 Sr3 2.481310 1_555
O12 Sr4 2.517280 1_555
O13 Os0 1.845586 1_666
O13 Sr3 2.556189 1_555
O13 Sr4 2.595116 1_555
O14 Os0 1.920705 1_556
O14 Sr3 2.505908 1_455
O14 Sr1 2.741752 1_556
O15 Os0 1.925773 1_566
O15 Sr4 2.559925 1_555
O15 Sr0 2.600743 1_566
