# generated using pymatgen
data_CaY5IO12
_symmetry_space_group_name_H-M   'P 1'
_cell_length_a   6.47764622
_cell_length_b   6.45774306
_cell_length_c   6.47132524
_cell_angle_alpha   98.31510975
_cell_angle_beta   98.92253128
_cell_angle_gamma   98.27058291
_symmetry_Int_Tables_number   1
_chemical_formula_structural   CaY5IO12
_chemical_formula_sum   'Ca1 Y5 I1 O12'
_cell_volume   260.75837813
_cell_formula_units_Z   1
loop_
 _symmetry_equiv_pos_site_id
 _symmetry_equiv_pos_as_xyz
  1  'x, y, z'
loop_
 _atom_site_type_symbol
 _atom_site_label
 _atom_site_symmetry_multiplicity
 _atom_site_fract_x
 _atom_site_fract_y
 _atom_site_fract_z
 _atom_site_occupancy
  Ca  Ca0  1  0.31949668  0.14739214  0.60419878  1
  Y  Y0  1  0.39233965  0.68035532  0.84967424  1
  Y  Y1  1  0.85298299  0.38852530  0.67766831  1
  Y  Y2  1  0.67873725  0.85341638  0.39183067  1
  Y  Y3  1  0.60672063  0.31867702  0.14265130  1
  Y  Y4  1  0.14859764  0.60972853  0.32396904  1
  I  I0  1  0.99853927  0.99811704  0.00192991  1
  O  O0  1  0.17414234  0.44096737  0.60058778  1
  O  O1  1  0.61112244  0.17678541  0.42758445  1
  O  O2  1  0.42874066  0.59453962  0.17466820  1
  O  O3  1  0.82273689  0.56735840  0.39838724  1
  O  O4  1  0.40952509  0.81905601  0.56461002  1
  O  O5  1  0.57856940  0.41694573  0.82761749  1
  O  O6  1  0.92443046  0.02642056  0.71471305  1
  O  O7  1  0.97085155  0.28788644  0.07216477  1
  O  O8  1  0.28689860  0.06754662  0.98180143  1
  O  O9  1  0.06069122  0.96461308  0.28885659  1
  O  O10  1  0.02713526  0.70996647  0.93006141  1
  O  O11  1  0.70774098  0.93170356  0.02702331  1
loop_
_geom_bond_atom_site_label_1
_geom_bond_atom_site_label_2
_geom_bond_distance
_geom_bond_site_symmetry_2
Ca0 O0 2.236244 1_555
Ca0 O4 2.268570 1_545
Ca0 O1 2.353750 1_555
Ca0 O5 2.369755 1_555
Ca0 O9 2.457821 1_545
Ca0 O8 2.602834 1_555
Ca0 O6 2.797303 1_455
I0 O8 1.886380 1_664
I0 O6 1.888187 1_564
I0 O9 1.888374 1_655
I0 O10 1.894407 1_654
I0 O7 1.901629 1_565
I0 O11 1.908192 1_555
O0 Y1 2.204416 1_455
O0 Y0 2.220304 1_555
O0 Y4 2.223456 1_555
O1 Y3 2.172614 1_555
O1 Y2 2.181950 1_545
O1 Y1 2.213698 1_555
O2 Y4 2.191756 1_555
O2 Y0 2.237584 1_554
O2 Y3 2.259174 1_555
O2 Y2 2.286445 1_555
O3 Y2 2.188716 1_555
O3 Y4 2.224767 1_655
O3 Y3 2.267661 1_555
O3 Y1 2.279787 1_555
O4 Y0 2.175008 1_555
O4 Y2 2.214888 1_555
O4 Y4 2.241987 1_555
O5 Y1 2.170807 1_555
O5 Y3 2.210061 1_556
O5 Y0 2.223208 1_555
O6 Y2 2.434898 1_545
O6 Y1 2.485711 1_555
O7 Y4 2.459797 1_655
O7 Y3 2.500712 1_555
O7 Y1 2.746033 1_554
O8 Y3 2.425217 1_556
O8 Y0 2.739274 1_545
O9 Y4 2.472636 1_555
O9 Y2 2.686983 1_455
O10 Y1 2.454249 1_455
O10 Y0 2.527186 1_555
O10 Y4 2.745474 1_556
O11 Y0 2.430156 1_554
O11 Y2 2.513894 1_555
O11 Y3 2.704532 1_565
