# generated using pymatgen
data_Mg3H4O5
_symmetry_space_group_name_H-M   'P 1'
_cell_length_a   3.08191121
_cell_length_b   3.08191100
_cell_length_c   11.91430715
_cell_angle_alpha   90.00032370
_cell_angle_beta   89.99968259
_cell_angle_gamma   119.99901910
_symmetry_Int_Tables_number   1
_chemical_formula_structural   Mg3H4O5
_chemical_formula_sum   'Mg3 H4 O5'
_cell_volume   98.00402946
_cell_formula_units_Z   1
loop_
 _symmetry_equiv_pos_site_id
 _symmetry_equiv_pos_as_xyz
  1  'x, y, z'
loop_
 _atom_site_type_symbol
 _atom_site_label
 _atom_site_symmetry_multiplicity
 _atom_site_fract_x
 _atom_site_fract_y
 _atom_site_fract_z
 _atom_site_occupancy
  Mg  Mg0  1  0.33332923  0.66667054  0.10181288  1
  Mg  Mg1  1  0.66667020  0.33332932  0.89818711  1
  Mg  Mg2  1  0.00000010  -0.00000020  0.49999999  1
  H  H0  1  0.66667143  0.33332878  0.27064722  1
  H  H1  1  0.33332837  0.66667118  0.72935292  1
  H  H2  1  0.33333600  0.66666474  0.33146411  1
  H  H3  1  0.66666406  0.33333561  0.66853570  1
  O  O0  1  0.66665861  0.33334141  0.58791769  1
  O  O1  1  0.33334142  0.66665891  0.41208211  1
  O  O2  1  0.33332709  0.66667222  0.81015131  1
  O  O3  1  0.99999988  0.99999992  0.00000005  1
  O  O4  1  0.66667261  0.33332757  0.18984892  1
loop_
_geom_bond_atom_site_label_1
_geom_bond_atom_site_label_2
_geom_bond_distance
_geom_bond_site_symmetry_2
Mg0 O4 2.065474 1_455
Mg0 O4 2.065474 1_565
Mg0 O4 2.065528 1_555
Mg0 O3 2.153467 1_455
Mg0 O3 2.153505 1_445
Mg0 O3 2.153506 1_555
Mg1 O2 2.065473 1_655
Mg1 O2 2.065473 1_545
Mg1 O2 2.065526 1_555
Mg1 O3 2.153468 1_546
Mg1 O3 2.153506 1_446
Mg1 O3 2.153506 1_556
Mg2 O0 2.064768 1_445
Mg2 O0 2.064768 1_555
Mg2 O1 2.064769 1_445
Mg2 O1 2.064771 1_555
Mg2 O1 2.064792 1_545
Mg2 O0 2.064793 1_455
H0 O4 0.962656 1_555
H1 O2 0.962657 1_555
H2 O1 0.960508 1_555
H3 O0 0.960508 1_555
