# generated using pymatgen
data_Ca(TaSe2)3
_symmetry_space_group_name_H-M   'P 1'
_cell_length_a   6.04477151
_cell_length_b   6.04477116
_cell_length_c   14.90231377
_cell_angle_alpha   90.00000000
_cell_angle_beta   90.00000000
_cell_angle_gamma   120.00000739
_symmetry_Int_Tables_number   1
_chemical_formula_structural   Ca(TaSe2)3
_chemical_formula_sum   'Ca2 Ta6 Se12'
_cell_volume   471.56770607
_cell_formula_units_Z   2
loop_
 _symmetry_equiv_pos_site_id
 _symmetry_equiv_pos_as_xyz
  1  'x, y, z'
loop_
 _atom_site_type_symbol
 _atom_site_label
 _atom_site_symmetry_multiplicity
 _atom_site_fract_x
 _atom_site_fract_y
 _atom_site_fract_z
 _atom_site_occupancy
  Ca  Ca0  1  0.00000000  0.00000000  0.50000000  1
  Ca  Ca1  1  0.00000000  0.00000000  0.00000000  1
  Ta  Ta0  1  0.33333300  0.66666700  0.25000000  1
  Ta  Ta1  1  0.66666700  0.33333300  0.75000000  1
  Ta  Ta2  1  0.66666700  0.33333300  0.25000000  1
  Ta  Ta3  1  0.33333300  0.66666700  0.75000000  1
  Ta  Ta4  1  0.00000000  0.00000000  0.25000000  1
  Ta  Ta5  1  0.00000000  0.00000000  0.75000000  1
  Se  Se0  1  0.33741571  1.00000000  0.13927122  1
  Se  Se1  1  1.00000000  0.33741571  0.13927122  1
  Se  Se2  1  0.66258429  0.66258429  0.13927122  1
  Se  Se3  1  0.33741571  0.33741571  0.63927122  1
  Se  Se4  1  0.66258429  0.66258429  0.36072878  1
  Se  Se5  1  0.66258429  0.00000000  0.63927122  1
  Se  Se6  1  0.00000000  0.66258429  0.63927122  1
  Se  Se7  1  0.00000000  0.66258429  0.86072878  1
  Se  Se8  1  0.33741571  0.33741571  0.86072878  1
  Se  Se9  1  1.00000000  0.33741571  0.36072878  1
  Se  Se10  1  0.33741571  1.00000000  0.36072878  1
  Se  Se11  1  0.66258429  0.00000000  0.86072878  1
loop_
_geom_bond_atom_site_label_1
_geom_bond_atom_site_label_2
_geom_bond_distance
_geom_bond_site_symmetry_2
Ca0 Se3 2.909900 1_555
Ca0 Se4 2.909900 1_445
Ca0 Se6 2.909900 1_545
Ca0 Se9 2.909900 1_455
Ca0 Se5 2.909900 1_455
Ca0 Se10 2.909900 1_545
Ca1 Se2 2.909900 1_445
Ca1 Se8 2.909900 1_554
Ca1 Se1 2.909900 1_455
Ca1 Se7 2.909900 1_544
Ca1 Se0 2.909900 1_545
Ca1 Se11 2.909900 1_454
Se0 Ta0 2.594932 1_555
Se0 Ta2 2.594934 1_565
Se0 Ta4 2.623519 1_565
Se1 Ta2 2.594932 1_555
Se1 Ta0 2.594934 1_655
Se1 Ta4 2.623519 1_655
Se2 Ta2 2.594937 1_555
Se2 Ta0 2.594937 1_555
Se2 Ta4 2.623519 1_665
Se3 Ta3 2.594937 1_555
Se3 Ta1 2.594937 1_555
Se3 Ta5 2.623519 1_555
Se4 Ta2 2.594937 1_555
Se4 Ta0 2.594937 1_555
Se4 Ta4 2.623519 1_665
Se5 Ta1 2.594932 1_555
Se5 Ta3 2.594934 1_545
Se5 Ta5 2.623519 1_655
Se6 Ta3 2.594932 1_555
Se6 Ta1 2.594934 1_455
Se6 Ta5 2.623519 1_565
Se7 Ta3 2.594932 1_555
Se7 Ta1 2.594934 1_455
Se7 Ta5 2.623519 1_565
Se8 Ta3 2.594937 1_555
Se8 Ta1 2.594937 1_555
Se8 Ta5 2.623519 1_555
Se9 Ta2 2.594932 1_555
Se9 Ta0 2.594934 1_655
Se9 Ta4 2.623519 1_655
Se10 Ta0 2.594932 1_555
Se10 Ta2 2.594934 1_565
Se10 Ta4 2.623519 1_565
Se11 Ta1 2.594932 1_555
Se11 Ta3 2.594934 1_545
Se11 Ta5 2.623519 1_655
