# generated using pymatgen
data_Cs4Ba2HfSb4
_symmetry_space_group_name_H-M   'P 1'
_cell_length_a   11.78264926
_cell_length_b   11.78264800
_cell_length_c   8.65700015
_cell_angle_alpha   87.43593973
_cell_angle_beta   87.43594051
_cell_angle_gamma   119.24773033
_symmetry_Int_Tables_number   1
_chemical_formula_structural   Cs4Ba2HfSb4
_chemical_formula_sum   'Cs8 Ba4 Hf2 Sb8'
_cell_volume   1044.52809824
_cell_formula_units_Z   2
loop_
 _symmetry_equiv_pos_site_id
 _symmetry_equiv_pos_as_xyz
  1  'x, y, z'
loop_
 _atom_site_type_symbol
 _atom_site_label
 _atom_site_symmetry_multiplicity
 _atom_site_fract_x
 _atom_site_fract_y
 _atom_site_fract_z
 _atom_site_occupancy
  Cs  Cs0  1  0.04923537  0.52063003  0.61567604  1
  Cs  Cs1  1  0.52063003  0.04923537  0.11567604  1
  Cs  Cs2  1  0.28513980  0.13525924  0.86010874  1
  Cs  Cs3  1  0.87897387  0.74223881  0.76137453  1
  Cs  Cs4  1  0.85301185  0.14758647  0.82385088  1
  Cs  Cs5  1  0.74223881  0.87897387  0.26137453  1
  Cs  Cs6  1  0.13525924  0.28513980  0.36010874  1
  Cs  Cs7  1  0.14758647  0.85301185  0.32385088  1
  Ba  Ba0  1  0.46785255  0.92981505  0.60492311  1
  Ba  Ba1  1  0.47393607  0.52222802  0.62717066  1
  Ba  Ba2  1  0.92981505  0.46785255  0.10492311  1
  Ba  Ba3  1  0.52222802  0.47393607  0.12717066  1
  Hf  Hf0  1  0.66156524  0.33500660  0.51114295  1
  Hf  Hf1  1  0.33500660  0.66156524  0.01114295  1
  Sb  Sb0  1  0.58935446  0.78454776  0.86658347  1
  Sb  Sb1  1  0.20555087  0.40215681  0.93283810  1
  Sb  Sb2  1  0.19770614  0.78332287  0.90750803  1
  Sb  Sb3  1  0.40215681  0.20555087  0.43283810  1
  Sb  Sb4  1  0.78454776  0.58935446  0.36658347  1
  Sb  Sb5  1  0.78332287  0.19770614  0.40750803  1
  Sb  Sb6  1  0.67021637  0.36422376  0.83445750  1
  Sb  Sb7  1  0.36422376  0.67021637  0.33445750  1
loop_
_geom_bond_atom_site_label_1
_geom_bond_atom_site_label_2
_geom_bond_distance
_geom_bond_site_symmetry_2
Cs0 Sb2 3.850626 1_555
Cs0 Sb7 3.901711 1_555
Cs0 Sb1 3.937192 1_555
Cs0 Sb5 4.124438 1_455
Cs0 Sb6 4.220897 1_455
Cs0 Sb4 4.236202 1_455
Cs1 Sb5 3.850626 1_555
Cs1 Sb6 3.901711 1_554
Cs1 Sb3 3.937192 1_555
Cs1 Sb2 4.124438 1_544
Cs1 Sb7 4.220896 1_545
Cs1 Sb0 4.236202 1_544
Cs2 Sb2 3.749751 1_545
Cs2 Sb1 3.764494 1_555
Cs2 Sb3 3.797687 1_555
Cs2 Sb6 3.976050 1_555
Cs3 Sb0 3.761379 1_555
Cs3 Sb2 3.826490 1_655
Cs3 Sb4 3.885379 1_555
Cs3 Sb6 3.897673 1_555
Cs4 Sb5 3.816020 1_555
Cs4 Sb0 3.854289 1_545
Cs4 Sb1 3.945942 1_655
Cs4 Sb6 4.066748 1_555
Cs5 Sb4 3.761379 1_555
Cs5 Sb5 3.826490 1_565
Cs5 Sb0 3.885379 1_554
Cs5 Sb7 3.897674 1_555
Cs6 Sb5 3.749752 1_455
Cs6 Sb3 3.764494 1_555
Cs6 Sb1 3.797687 1_554
Cs6 Sb7 3.976049 1_555
Cs7 Sb2 3.816020 1_554
Cs7 Sb4 3.854289 1_455
Cs7 Sb3 3.945942 1_565
Cs7 Sb7 4.066748 1_555
Ba0 Sb0 3.528176 1_555
Ba0 Sb2 3.667892 1_555
Ba0 Sb7 3.684587 1_555
Ba0 Sb5 3.766251 1_565
Ba0 Sb3 3.937187 1_565
Ba1 Sb0 3.523668 1_555
Ba1 Sb7 3.637742 1_555
Ba1 Sb1 3.680813 1_555
Ba1 Sb3 3.882443 1_555
Ba1 Sb4 3.921999 1_555
Ba1 Sb6 4.039111 1_555
Ba2 Sb4 3.528176 1_555
Ba2 Sb5 3.667892 1_555
Ba2 Sb6 3.684588 1_554
Ba2 Sb2 3.766251 1_654
Ba2 Sb1 3.937188 1_654
Ba3 Sb4 3.523669 1_555
Ba3 Sb6 3.637742 1_554
Ba3 Sb3 3.680812 1_555
Ba3 Sb1 3.882443 1_554
Ba3 Sb0 3.921999 1_554
Ba3 Sb7 4.039111 1_555
Hf0 Sb5 2.786186 1_555
Hf0 Sb3 2.801890 1_555
Hf0 Sb4 2.811743 1_555
Hf0 Sb6 2.835557 1_555
Hf1 Sb2 2.786186 1_554
Hf1 Sb1 2.801890 1_554
Hf1 Sb0 2.811744 1_554
Hf1 Sb7 2.835557 1_555
