# generated using pymatgen
data_Cs2Ca(PSe3)2
_symmetry_space_group_name_H-M   'P 1'
_cell_length_a   13.06451255
_cell_length_b   6.85712713
_cell_length_c   10.32632678
_cell_angle_alpha   52.48886584
_cell_angle_beta   90.00000000
_cell_angle_gamma   90.00000000
_symmetry_Int_Tables_number   1
_chemical_formula_structural   Cs2Ca(PSe3)2
_chemical_formula_sum   'Cs4 Ca2 P4 Se12'
_cell_volume   733.80921061
_cell_formula_units_Z   2
loop_
 _symmetry_equiv_pos_site_id
 _symmetry_equiv_pos_as_xyz
  1  'x, y, z'
loop_
 _atom_site_type_symbol
 _atom_site_label
 _atom_site_symmetry_multiplicity
 _atom_site_fract_x
 _atom_site_fract_y
 _atom_site_fract_z
 _atom_site_occupancy
  Cs  Cs0  1  0.16834633  0.26912790  0.98384650  1
  Cs  Cs1  1  0.66834633  0.73087210  0.51615350  1
  Cs  Cs2  1  0.83165367  0.73087210  0.01615350  1
  Cs  Cs3  1  0.33165367  0.26912790  0.48384650  1
  Ca  Ca0  1  0.00000000  0.00000000  0.50000000  1
  Ca  Ca1  1  0.50000000  0.00000000  0.00000000  1
  P  P0  1  0.03874674  0.65525358  0.38228332  1
  P  P1  1  0.53874674  0.34474642  0.11771668  1
  P  P2  1  0.96125326  0.34474642  0.61771668  1
  P  P3  1  0.46125326  0.65525358  0.88228332  1
  Se  Se0  1  0.17135293  0.75795888  0.45854764  1
  Se  Se1  1  0.67135293  0.24204112  0.04145236  1
  Se  Se2  1  0.82864707  0.24204112  0.54145236  1
  Se  Se3  1  0.32864707  0.75795888  0.95854764  1
  Se  Se4  1  0.92453707  0.94916455  0.25235684  1
  Se  Se5  1  0.42453707  0.05083545  0.24764316  1
  Se  Se6  1  0.07546293  0.05083545  0.74764316  1
  Se  Se7  1  0.57546293  0.94916455  0.75235684  1
  Se  Se8  1  0.41750701  0.50987135  0.75205796  1
  Se  Se9  1  0.91750701  0.49012865  0.74794204  1
  Se  Se10  1  0.58249299  0.49012865  0.24794204  1
  Se  Se11  1  0.08249299  0.50987135  0.25205796  1
loop_
_geom_bond_atom_site_label_1
_geom_bond_atom_site_label_2
_geom_bond_distance
_geom_bond_site_symmetry_2
Cs0 Se6 3.756154 1_555
Cs0 Se8 3.773361 1_555
Cs0 Se9 3.804513 1_455
Cs0 Se3 3.824061 1_555
Cs0 Se4 3.903713 1_446
Cs0 Se0 3.923226 1_546
Cs0 Se5 3.987200 1_556
Cs0 P0 4.052446 1_546
Cs0 Se11 4.149967 1_556
Cs0 Se3 4.225564 1_545
Cs0 Se11 4.298145 1_546
Cs0 Se0 4.303288 1_555
Cs1 Se7 3.756154 1_555
Cs1 Se9 3.773361 1_555
Cs1 Se8 3.804513 1_555
Cs1 Se2 3.824061 1_555
Cs1 Se5 3.903713 1_565
Cs1 Se1 3.923226 1_565
Cs1 Se4 3.987200 1_555
Cs1 P1 4.052446 1_565
Cs1 Se10 4.149967 1_555
Cs1 Se2 4.225564 1_565
Cs1 Se10 4.298145 1_565
Cs1 Se1 4.303288 1_556
Cs2 Se4 3.756154 1_555
Cs2 Se10 3.773361 1_555
Cs2 Se11 3.804513 1_655
Cs2 Se1 3.824061 1_555
Cs2 Se6 3.903713 1_664
Cs2 Se2 3.923226 1_564
Cs2 Se7 3.987200 1_554
Cs2 P2 4.052446 1_564
Cs2 Se9 4.149967 1_554
Cs2 Se1 4.225564 1_565
Cs2 Se9 4.298145 1_564
Cs2 Se2 4.303288 1_555
Cs3 Se5 3.756154 1_555
Cs3 Se11 3.773361 1_555
Cs3 Se10 3.804513 1_555
Cs3 Se0 3.824061 1_555
Cs3 Se7 3.903713 1_545
Cs3 Se3 3.923226 1_545
Cs3 Se6 3.987200 1_555
Cs3 P3 4.052446 1_545
Cs3 Se8 4.149967 1_555
Cs3 Se0 4.225564 1_545
Cs3 Se8 4.298145 1_545
Cs3 Se3 4.303288 1_554
Ca0 Se4 2.952724 1_445
Ca0 Se6 2.952724 1_555
Ca0 Se0 2.968934 1_545
Ca0 Se2 2.968934 1_455
Ca0 Se11 3.006507 1_555
Ca0 Se9 3.006507 1_445
Ca1 Se5 2.952724 1_555
Ca1 Se7 2.952724 1_544
Ca1 Se1 2.968934 1_555
Ca1 Se3 2.968934 1_544
Ca1 Se8 3.006507 1_554
Ca1 Se10 3.006507 1_545
P0 Se11 2.182067 1_555
P0 Se0 2.189285 1_555
P0 Se4 2.189795 1_455
P1 Se10 2.182067 1_555
P1 Se1 2.189285 1_555
P1 Se5 2.189795 1_555
P2 Se9 2.182067 1_555
P2 Se2 2.189285 1_555
P2 Se6 2.189795 1_655
P3 Se8 2.182067 1_555
P3 Se3 2.189285 1_555
P3 Se7 2.189795 1_555
