# generated using pymatgen
data_Bi3Ru3RhO14
_symmetry_space_group_name_H-M   'P 1'
_cell_length_a   7.07753253
_cell_length_b   7.07753211
_cell_length_c   7.07753185
_cell_angle_alpha   61.47524358
_cell_angle_beta   61.47524931
_cell_angle_gamma   61.47524740
_symmetry_Int_Tables_number   1
_chemical_formula_structural   Bi3Ru3RhO14
_chemical_formula_sum   'Bi3 Ru3 Rh1 O14'
_cell_volume   258.98931680
_cell_formula_units_Z   1
loop_
 _symmetry_equiv_pos_site_id
 _symmetry_equiv_pos_as_xyz
  1  'x, y, z'
loop_
 _atom_site_type_symbol
 _atom_site_label
 _atom_site_symmetry_multiplicity
 _atom_site_fract_x
 _atom_site_fract_y
 _atom_site_fract_z
 _atom_site_occupancy
  Bi  Bi0  1  0.00000000  0.50000000  0.50000000  1
  Bi  Bi1  1  0.50000000  0.50000000  0.00000000  1
  Bi  Bi2  1  0.50000000  0.00000000  0.50000000  1
  Ru  Ru0  1  0.50000000  0.00000000  0.00000000  1
  Ru  Ru1  1  0.00000000  0.00000000  0.50000000  1
  Ru  Ru2  1  0.00000000  0.50000000  0.00000000  1
  Rh  Rh0  1  0.00000000  0.00000000  0.00000000  1
  O  O0  1  0.94416609  0.31812500  0.31812500  1
  O  O1  1  0.33195907  0.91617574  0.91617574  1
  O  O2  1  0.31812500  0.31812500  0.94416609  1
  O  O3  1  0.91617574  0.91617574  0.33195907  1
  O  O4  1  0.91617574  0.33195907  0.91617574  1
  O  O5  1  0.31812500  0.94416609  0.31812500  1
  O  O6  1  0.05583391  0.68187500  0.68187500  1
  O  O7  1  0.66804093  0.08382426  0.08382426  1
  O  O8  1  0.68187500  0.68187500  0.05583391  1
  O  O9  1  0.08382426  0.08382426  0.66804093  1
  O  O10  1  0.08382426  0.66804093  0.08382426  1
  O  O11  1  0.68187500  0.05583391  0.68187500  1
  O  O12  1  0.37594789  0.37594789  0.37594789  1
  O  O13  1  0.62405211  0.62405211  0.62405211  1
loop_
_geom_bond_atom_site_label_1
_geom_bond_atom_site_label_2
_geom_bond_distance
_geom_bond_site_symmetry_2
Bi0 O12 2.212544 1_555
Bi0 O13 2.212544 1_455
Bi0 O6 2.454426 1_555
Bi0 O0 2.454426 1_455
Bi0 O4 2.470133 1_455
Bi0 O10 2.470133 1_555
Bi0 O3 2.470133 1_455
Bi0 O9 2.470133 1_555
Bi1 O12 2.212543 1_555
Bi1 O13 2.212543 1_554
Bi1 O8 2.454426 1_555
Bi1 O2 2.454426 1_554
Bi1 O1 2.470133 1_554
Bi1 O7 2.470133 1_555
Bi1 O4 2.470133 1_554
Bi1 O10 2.470133 1_555
Bi2 O12 2.212543 1_555
Bi2 O13 2.212543 1_545
Bi2 O11 2.454426 1_555
Bi2 O5 2.454426 1_545
Bi2 O1 2.470133 1_545
Bi2 O7 2.470133 1_555
Bi2 O3 2.470133 1_545
Bi2 O9 2.470133 1_555
O0 Ru2 1.936634 1_655
O0 Ru1 1.936634 1_655
O1 Ru0 1.949958 1_566
O1 Rh0 1.974217 1_566
O2 Ru0 1.936634 1_556
O2 Ru2 1.936634 1_556
O3 Ru1 1.949958 1_665
O3 Rh0 1.974217 1_665
O4 Ru2 1.949958 1_656
O4 Rh0 1.974217 1_656
O5 Ru0 1.936634 1_565
O5 Ru1 1.936634 1_565
O6 Ru2 1.936634 1_556
O6 Ru1 1.936634 1_565
O7 Ru0 1.949958 1_555
O7 Rh0 1.974217 1_655
O8 Ru0 1.936634 1_565
O8 Ru2 1.936634 1_655
O9 Ru1 1.949958 1_555
O9 Rh0 1.974217 1_556
O10 Ru2 1.949958 1_555
O10 Rh0 1.974217 1_565
O11 Ru0 1.936634 1_556
O11 Ru1 1.936634 1_655
