# generated using pymatgen
data_Cu10Sn3
_symmetry_space_group_name_H-M   'P 1'
_cell_length_a   7.26892504
_cell_length_b   7.26892504
_cell_length_c   7.87409083
_cell_angle_alpha   90.00000000
_cell_angle_beta   90.00000000
_cell_angle_gamma   120.00000973
_symmetry_Int_Tables_number   1
_chemical_formula_structural   Cu10Sn3
_chemical_formula_sum   'Cu20 Sn6'
_cell_volume   360.30591323
_cell_formula_units_Z   2
loop_
 _symmetry_equiv_pos_site_id
 _symmetry_equiv_pos_as_xyz
  1  'x, y, z'
loop_
 _atom_site_type_symbol
 _atom_site_label
 _atom_site_symmetry_multiplicity
 _atom_site_fract_x
 _atom_site_fract_y
 _atom_site_fract_z
 _atom_site_occupancy
  Cu  Cu0  1  0.66666700  0.33333300  0.57419367  1
  Cu  Cu1  1  0.96997120  0.32856711  0.41346428  1
  Cu  Cu2  1  0.35859691  0.03002880  0.41346428  1
  Cu  Cu3  1  0.64140309  0.96997120  0.91346428  1
  Cu  Cu4  1  0.00000000  0.00000000  0.49350233  1
  Cu  Cu5  1  0.66666700  0.33333300  0.24657335  1
  Cu  Cu6  1  0.02971955  0.67147114  0.57947411  1
  Cu  Cu7  1  0.33333300  0.66666700  0.74657335  1
  Cu  Cu8  1  0.33333300  0.66666700  0.07419367  1
  Cu  Cu9  1  0.33333300  0.66666700  0.41978736  1
  Cu  Cu10  1  0.03002880  0.67143289  0.91346428  1
  Cu  Cu11  1  0.66666700  0.33333300  0.91978736  1
  Cu  Cu12  1  0.64175158  0.97028045  0.57947411  1
  Cu  Cu13  1  0.67143289  0.64140309  0.41346428  1
  Cu  Cu14  1  0.32852886  0.35824842  0.57947411  1
  Cu  Cu15  1  0.35824842  0.02971955  0.07947411  1
  Cu  Cu16  1  0.67147114  0.64175158  0.07947411  1
  Cu  Cu17  1  0.32856711  0.35859691  0.91346428  1
  Cu  Cu18  1  0.97028045  0.32852886  0.07947411  1
  Cu  Cu19  1  0.00000000  0.00000000  0.99350233  1
  Sn  Sn0  1  0.68287948  0.97680307  0.24644204  1
  Sn  Sn1  1  0.02319693  0.70607741  0.24644204  1
  Sn  Sn2  1  0.31712052  0.02319693  0.74644204  1
  Sn  Sn3  1  0.97680307  0.29392259  0.74644204  1
  Sn  Sn4  1  0.29392259  0.31712052  0.24644204  1
  Sn  Sn5  1  0.70607741  0.68287948  0.74644204  1
loop_
_geom_bond_atom_site_label_1
_geom_bond_atom_site_label_2
_geom_bond_distance
_geom_bond_site_symmetry_2
Cu0 Cu12 2.553608 1_545
Cu0 Cu6 2.553611 1_655
Cu0 Cu14 2.553615 1_555
Cu0 Cu2 2.557342 1_555
Cu0 Cu13 2.557342 1_555
Cu0 Cu1 2.557342 1_555
Cu0 Cu5 2.579712 1_555
Cu0 Cu11 2.721236 1_555
Cu0 Sn2 2.765780 1_555
Cu0 Sn5 2.765781 1_555
Cu0 Sn3 2.765781 1_555
Cu1 Cu9 2.554876 1_655
Cu1 Cu5 2.581696 1_555
Cu1 Cu4 2.582686 1_655
Cu1 Cu18 2.629870 1_555
Cu1 Sn3 2.636804 1_555
Cu1 Cu6 2.650958 1_655
Cu1 Sn0 2.699364 1_545
Cu1 Sn4 2.734492 1_655
Cu1 Cu12 2.823112 1_545
Cu1 Cu14 2.825932 1_655
Cu1 Sn1 2.889235 1_655
Cu2 Cu9 2.554870 1_545
Cu2 Cu5 2.581696 1_555
Cu2 Cu4 2.582693 1_555
Cu2 Sn2 2.636804 1_555
Cu2 Sn4 2.699372 1_555
Cu2 Sn1 2.734499 1_545
Cu2 Cu6 2.825934 1_545
Cu2 Sn0 2.889223 1_545
Cu3 Cu8 2.557342 1_556
Cu3 Cu7 2.581696 1_555
Cu3 Sn0 2.636804 1_556
Cu3 Sn5 2.699372 1_555
Cu3 Sn3 2.734499 1_565
Cu3 Sn2 2.889223 1_565
Cu4 Cu6 2.592992 1_545
Cu4 Sn1 2.955978 1_545
Cu4 Sn4 2.955980 1_555
Cu4 Sn0 2.955983 1_445
Cu4 Sn3 2.986649 1_455
Cu4 Sn5 2.986651 1_445
Cu4 Sn2 2.986654 1_555
Cu5 Sn0 2.652477 1_545
Cu5 Sn1 2.652485 1_655
Cu5 Sn4 2.652492 1_555
Cu6 Cu9 2.555369 1_555
Cu6 Cu7 2.584588 1_555
Cu6 Sn1 2.637051 1_555
Cu6 Sn2 2.699674 1_565
Cu6 Sn5 2.732188 1_455
Cu6 Sn3 2.890054 1_455
Cu7 Cu9 2.573143 1_555
Cu7 Cu8 2.579712 1_556
Cu7 Sn2 2.652477 1_565
Cu7 Sn3 2.652485 1_455
Cu7 Sn5 2.652492 1_555
Cu8 Cu9 2.721236 1_555
Cu8 Sn0 2.765780 1_555
Cu8 Sn4 2.765781 1_555
Cu8 Sn1 2.765781 1_555
Cu9 Sn0 2.770026 1_555
Cu9 Sn4 2.770026 1_555
Cu9 Sn1 2.770027 1_555
Cu10 Cu11 2.554876 1_455
Cu10 Cu8 2.557342 1_556
Cu10 Cu7 2.581696 1_555
Cu10 Cu19 2.582686 1_565
Cu10 Cu6 2.629870 1_555
Cu10 Sn1 2.636804 1_556
Cu10 Cu18 2.650958 1_456
Cu10 Sn2 2.699364 1_565
Cu10 Sn5 2.734492 1_455
Cu10 Cu15 2.823112 1_566
Cu10 Cu16 2.825932 1_456
Cu10 Sn3 2.889235 1_455
Cu11 Cu3 2.554870 1_545
Cu11 Cu17 2.554884 1_555
Cu11 Cu18 2.555369 1_556
Cu11 Cu15 2.555372 1_556
Cu11 Cu16 2.555375 1_556
Cu11 Cu5 2.573143 1_556
Cu11 Sn2 2.770026 1_555
Cu11 Sn5 2.770026 1_555
Cu11 Sn3 2.770027 1_555
Cu12 Cu9 2.555372 1_555
Cu12 Cu7 2.584591 1_555
Cu12 Cu4 2.592992 1_665
Cu12 Cu3 2.629870 1_555
Cu12 Sn0 2.637051 1_555
Cu12 Cu2 2.650952 1_565
Cu12 Sn5 2.699678 1_555
Cu12 Sn3 2.732191 1_565
Cu12 Cu13 2.825938 1_555
Cu12 Sn2 2.890047 1_565
Cu13 Cu9 2.554884 1_555
Cu13 Cu5 2.581696 1_555
Cu13 Cu4 2.582690 1_665
Cu13 Cu16 2.629870 1_555
Cu13 Sn5 2.636804 1_555
Cu13 Cu14 2.650956 1_555
Cu13 Sn1 2.699360 1_655
Cu13 Sn0 2.734505 1_555
Cu13 Cu6 2.823110 1_655
Cu13 Sn4 2.889230 1_555
Cu14 Cu9 2.555375 1_555
Cu14 Cu7 2.584595 1_555
Cu14 Cu4 2.592992 1_555
Cu14 Cu17 2.629870 1_555
Cu14 Sn4 2.637051 1_555
Cu14 Sn3 2.699672 1_455
Cu14 Sn2 2.732195 1_555
Cu14 Cu2 2.823117 1_555
Cu14 Sn5 2.890051 1_555
Cu15 Cu8 2.553608 1_545
Cu15 Cu5 2.584591 1_555
Cu15 Cu19 2.592992 1_554
Cu15 Cu2 2.629870 1_555
Cu15 Sn2 2.637051 1_554
Cu15 Cu3 2.650952 1_544
Cu15 Sn4 2.699678 1_555
Cu15 Sn1 2.732191 1_545
Cu15 Cu17 2.825938 1_554
Cu15 Sn0 2.890047 1_545
Cu16 Cu8 2.553615 1_555
Cu16 Cu5 2.584595 1_555
Cu16 Cu19 2.592992 1_664
Cu16 Sn5 2.637051 1_554
Cu16 Cu17 2.650956 1_554
Cu16 Sn1 2.699672 1_655
Cu16 Sn0 2.732195 1_555
Cu16 Cu3 2.823117 1_554
Cu16 Sn4 2.890051 1_555
Cu17 Cu8 2.557342 1_556
Cu17 Cu7 2.581696 1_555
Cu17 Cu19 2.582690 1_555
Cu17 Sn4 2.636804 1_556
Cu17 Sn3 2.699360 1_455
Cu17 Sn2 2.734505 1_555
Cu17 Cu18 2.823110 1_456
Cu17 Sn5 2.889230 1_555
Cu18 Cu8 2.553611 1_655
Cu18 Cu5 2.584588 1_555
Cu18 Cu19 2.592992 1_654
Cu18 Sn3 2.637051 1_554
Cu18 Sn0 2.699674 1_545
Cu18 Sn4 2.732188 1_655
Cu18 Cu3 2.825934 1_544
Cu18 Sn1 2.890054 1_655
Cu19 Cu3 2.582693 1_445
Cu19 Sn3 2.955978 1_455
Cu19 Sn5 2.955980 1_445
Cu19 Sn2 2.955983 1_555
Cu19 Sn1 2.986649 1_546
Cu19 Sn4 2.986651 1_556
Cu19 Sn0 2.986654 1_446
