# generated using pymatgen
data_Cs3Hg4Pd3
_symmetry_space_group_name_H-M   'P 1'
_cell_length_a   7.45008811
_cell_length_b   7.45008859
_cell_length_c   7.49943154
_cell_angle_alpha   90.00000000
_cell_angle_beta   90.00000000
_cell_angle_gamma   132.88017118
_symmetry_Int_Tables_number   1
_chemical_formula_structural   Cs3Hg4Pd3
_chemical_formula_sum   'Cs3 Hg4 Pd3'
_cell_volume   305.01687897
_cell_formula_units_Z   1
loop_
 _symmetry_equiv_pos_site_id
 _symmetry_equiv_pos_as_xyz
  1  'x, y, z'
loop_
 _atom_site_type_symbol
 _atom_site_label
 _atom_site_symmetry_multiplicity
 _atom_site_fract_x
 _atom_site_fract_y
 _atom_site_fract_z
 _atom_site_occupancy
  Cs  Cs0  1  0.00000000  0.00000000  0.00000000  1
  Cs  Cs1  1  0.84985788  0.15014212  0.50000000  1
  Cs  Cs2  1  0.15014212  0.84985788  0.50000000  1
  Hg  Hg0  1  0.62738886  0.37261114  0.21871977  1
  Hg  Hg1  1  0.37261114  0.62738886  0.21871977  1
  Hg  Hg2  1  0.62738886  0.37261114  0.78127923  1
  Hg  Hg3  1  0.37261114  0.62738886  0.78127923  1
  Pd  Pd0  1  0.50000000  0.00000000  0.00000000  1
  Pd  Pd1  1  0.00000000  0.50000000  0.00000000  1
  Pd  Pd2  1  0.50000000  0.50000000  0.50000000  1
loop_
_geom_bond_atom_site_label_1
_geom_bond_atom_site_label_2
_geom_bond_distance
_geom_bond_site_symmetry_2
Cs0 Pd0 3.725044 1_455
Cs0 Pd0 3.725044 1_555
Cs0 Pd1 3.725044 1_545
Cs0 Pd1 3.725044 1_555
Cs0 Hg0 3.819080 1_555
Cs0 Hg1 3.819080 1_445
Cs0 Hg1 3.819080 1_555
Cs0 Hg0 3.819080 1_445
Cs0 Hg2 3.819083 1_554
Cs0 Hg3 3.819083 1_444
Cs0 Hg3 3.819084 1_554
Cs0 Hg2 3.819084 1_444
Cs0 Cs1 4.273825 1_455
Cs0 Cs2 4.273825 1_545
Cs0 Cs2 4.273825 1_544
Cs0 Cs1 4.273825 1_454
Cs1 Pd2 3.615640 1_655
Cs1 Pd2 3.615640 1_545
Cs1 Hg3 3.662503 1_655
Cs1 Hg3 3.662503 1_545
Cs1 Hg1 3.662508 1_655
Cs1 Hg1 3.662508 1_545
Cs1 Hg2 3.698955 1_555
Cs1 Hg0 3.698959 1_555
Cs1 Cs2 4.038345 1_545
Cs1 Cs2 4.038346 1_655
Cs1 Cs2 4.101323 1_645
Cs2 Pd2 3.615640 1_455
Cs2 Pd2 3.615640 1_565
Cs2 Hg2 3.662503 1_455
Cs2 Hg2 3.662503 1_565
Cs2 Hg0 3.662508 1_455
Cs2 Hg0 3.662508 1_565
Cs2 Hg3 3.698955 1_555
Cs2 Hg1 3.698959 1_555
Hg0 Pd2 2.734406 1_555
Hg0 Pd1 2.777018 1_655
Hg0 Pd0 2.777018 1_555
Hg1 Pd2 2.734406 1_555
Hg1 Pd1 2.777018 1_555
Hg1 Pd0 2.777018 1_565
Hg2 Pd2 2.734401 1_555
Hg2 Pd1 2.777022 1_656
Hg2 Pd0 2.777022 1_556
Hg3 Pd2 2.734401 1_555
Hg3 Pd1 2.777022 1_556
Hg3 Pd0 2.777022 1_566
Pd0 Pd1 2.977859 1_655
Pd0 Pd1 2.977859 1_545
