# generated using pymatgen
data_V(PO3)4
_symmetry_space_group_name_H-M   'P 1'
_cell_length_a   13.46223148
_cell_length_b   5.10924515
_cell_length_c   7.20065323
_cell_angle_alpha   79.40321206
_cell_angle_beta   90.00000000
_cell_angle_gamma   90.00000000
_symmetry_Int_Tables_number   1
_chemical_formula_structural   V(PO3)4
_chemical_formula_sum   'V2 P8 O24'
_cell_volume   486.82761037
_cell_formula_units_Z   2
loop_
 _symmetry_equiv_pos_site_id
 _symmetry_equiv_pos_as_xyz
  1  'x, y, z'
loop_
 _atom_site_type_symbol
 _atom_site_label
 _atom_site_symmetry_multiplicity
 _atom_site_fract_x
 _atom_site_fract_y
 _atom_site_fract_z
 _atom_site_occupancy
  V  V0  1  0.73070468  0.50218514  0.49680700  1
  V  V1  1  0.23070468  0.49781486  0.50319300  1
  P  P0  1  0.67936519  0.87652946  0.09622855  1
  P  P1  1  0.17936519  0.12347054  0.90377145  1
  P  P2  1  0.86994842  0.98089863  0.55901231  1
  P  P3  1  0.59323180  0.02320574  0.43618240  1
  P  P4  1  0.36994842  0.01910137  0.44098769  1
  P  P5  1  0.82601670  0.22297504  0.87883689  1
  P  P6  1  0.32601670  0.77702496  0.12116311  1
  P  P7  1  0.09323180  0.97679426  0.56381760  1
  O  O0  1  0.85316208  0.97475026  0.77584685  1
  O  O1  1  0.65463761  0.80173925  0.54221231  1
  O  O2  1  0.35316208  0.02524974  0.22415315  1
  O  O3  1  0.10747586  0.96685994  0.78220595  1
  O  O4  1  0.24339122  0.63191460  0.24980024  1
  O  O5  1  0.85392397  0.71163215  0.51220711  1
  O  O6  1  0.13324553  0.17059851  0.07552355  1
  O  O7  1  0.81085625  0.20385865  0.44661948  1
  O  O8  1  0.60867569  0.29353082  0.48235936  1
  O  O9  1  0.27236994  0.92410849  0.93691318  1
  O  O10  1  0.98219457  0.05949312  0.52472230  1
  O  O11  1  0.41156263  0.62384451  0.08331055  1
  O  O12  1  0.91156263  0.37615549  0.91668945  1
  O  O13  1  0.35392397  0.28836785  0.48779289  1
  O  O14  1  0.48219457  0.94050688  0.47527770  1
  O  O15  1  0.77236994  0.07589151  0.06308682  1
  O  O16  1  0.72018586  0.64078515  0.23919008  1
  O  O17  1  0.15463761  0.19826075  0.45778769  1
  O  O18  1  0.10867569  0.70646918  0.51764064  1
  O  O19  1  0.22018586  0.35921485  0.76080992  1
  O  O20  1  0.31085625  0.79614135  0.55338052  1
  O  O21  1  0.63324553  0.82940149  0.92447645  1
  O  O22  1  0.74339122  0.36808540  0.75019976  1
  O  O23  1  0.60747586  0.03314006  0.21779405  1
loop_
_geom_bond_atom_site_label_1
_geom_bond_atom_site_label_2
_geom_bond_distance
_geom_bond_site_symmetry_2
O0 P2 1.572205 1_555
O0 P5 1.624149 1_565
O1 P3 1.492947 1_565
O1 V0 1.918852 1_555
O2 P4 1.572205 1_555
O2 P6 1.624149 1_545
O3 P7 1.575712 1_555
O3 P1 1.612677 1_565
O4 P6 1.546720 1_555
O4 V1 1.835199 1_555
O5 P2 1.491087 1_555
O5 V0 1.988147 1_555
O6 P1 1.443081 1_554
O7 P2 1.498804 1_545
O7 V0 1.954668 1_555
O8 P3 1.493414 1_555
O8 V0 1.971508 1_555
O9 P6 1.574739 1_556
O9 P1 1.603965 1_565
O10 P7 1.564764 1_645
O10 P2 1.571344 1_545
O11 P6 1.446216 1_555
O12 P5 1.446216 1_555
O13 P4 1.491087 1_555
O13 V1 1.988147 1_555
O14 P3 1.564764 1_565
O14 P4 1.571344 1_565
O15 P5 1.574739 1_554
O15 P0 1.603965 1_545
O16 P0 1.535064 1_555
O16 V0 1.865327 1_555
O17 P7 1.492947 1_545
O17 V1 1.918852 1_555
O18 P7 1.493414 1_555
O18 V1 1.971508 1_555
O19 P1 1.535064 1_555
O19 V1 1.865327 1_555
O20 P4 1.498804 1_565
O20 V1 1.954668 1_555
O21 P0 1.443081 1_556
O22 P5 1.546720 1_555
O22 V0 1.835199 1_555
O23 P3 1.575712 1_555
O23 P0 1.612677 1_545
