# generated using pymatgen
data_SrLu(Si7Ir3)2
_symmetry_space_group_name_H-M   'P 1'
_cell_length_a   8.01284222
_cell_length_b   8.01284250
_cell_length_c   8.01284261
_cell_angle_alpha   56.76653271
_cell_angle_beta   56.76653367
_cell_angle_gamma   56.76653232
_symmetry_Int_Tables_number   1
_chemical_formula_structural   SrLu(Si7Ir3)2
_chemical_formula_sum   'Sr1 Lu1 Si14 Ir6'
_cell_volume   336.63151584
_cell_formula_units_Z   1
loop_
 _symmetry_equiv_pos_site_id
 _symmetry_equiv_pos_as_xyz
  1  'x, y, z'
loop_
 _atom_site_type_symbol
 _atom_site_label
 _atom_site_symmetry_multiplicity
 _atom_site_fract_x
 _atom_site_fract_y
 _atom_site_fract_z
 _atom_site_occupancy
  Sr  Sr0  1  0.00000000  0.00000000  0.00000000  1
  Lu  Lu0  1  0.50000000  0.50000000  0.50000000  1
  Si  Si0  1  0.06483886  0.84946494  0.67333728  1
  Si  Si1  1  0.67333728  0.06483886  0.84946494  1
  Si  Si2  1  0.84946494  0.67333728  0.06483886  1
  Si  Si3  1  0.17474970  0.35081118  0.56182203  1
  Si  Si4  1  0.56182203  0.17474970  0.35081118  1
  Si  Si5  1  0.35081118  0.56182203  0.17474970  1
  Si  Si6  1  0.93516114  0.15053506  0.32666272  1
  Si  Si7  1  0.32666272  0.93516114  0.15053506  1
  Si  Si8  1  0.15053506  0.32666272  0.93516114  1
  Si  Si9  1  0.82525030  0.64918882  0.43817797  1
  Si  Si10  1  0.43817797  0.82525030  0.64918882  1
  Si  Si11  1  0.64918882  0.43817797  0.82525030  1
  Si  Si12  1  0.75052367  0.75052367  0.75052367  1
  Si  Si13  1  0.24947633  0.24947633  0.24947633  1
  Ir  Ir0  1  0.07470202  0.74524913  0.43363913  1
  Ir  Ir1  1  0.43363913  0.07470202  0.74524913  1
  Ir  Ir2  1  0.74524913  0.43363913  0.07470202  1
  Ir  Ir3  1  0.92529798  0.25475087  0.56636087  1
  Ir  Ir4  1  0.56636087  0.92529798  0.25475087  1
  Ir  Ir5  1  0.25475087  0.56636087  0.92529798  1
loop_
_geom_bond_atom_site_label_1
_geom_bond_atom_site_label_2
_geom_bond_distance
_geom_bond_site_symmetry_2
Lu0 Si9 3.133262 1_555
Lu0 Si3 3.133262 1_555
Lu0 Si11 3.133262 1_555
Lu0 Si5 3.133262 1_555
Lu0 Si10 3.133262 1_555
Lu0 Si4 3.133262 1_555
Lu0 Si0 3.190746 1_555
Lu0 Si6 3.190746 1_555
Lu0 Si1 3.190746 1_555
Lu0 Si7 3.190746 1_555
Lu0 Si2 3.190746 1_555
Lu0 Si8 3.190746 1_555
Si0 Sr0 3.139960 1_566
Si1 Sr0 3.139960 1_656
Si2 Sr0 3.139960 1_665
Si3 Sr0 3.208948 1_556
Si4 Sr0 3.208948 1_655
Si5 Sr0 3.208948 1_565
Si6 Sr0 3.139960 1_655
Si7 Sr0 3.139960 1_565
Si8 Sr0 3.139960 1_556
Si9 Sr0 3.208948 1_665
Si10 Sr0 3.208948 1_566
Si11 Sr0 3.208948 1_656
Ir0 Si0 2.431424 1_555
Ir0 Si12 2.442189 1_455
Ir0 Si7 2.470107 1_555
Ir0 Si5 2.470919 1_555
Ir0 Si9 2.482956 1_455
Ir0 Si3 2.500780 1_555
Ir0 Si6 2.559382 1_465
Ir0 Lu0 3.042747 1_555
Ir0 Sr0 3.124827 1_565
Ir1 Si1 2.431424 1_555
Ir1 Si12 2.442189 1_545
Ir1 Si8 2.470107 1_555
Ir1 Si3 2.470919 1_555
Ir1 Si10 2.482956 1_545
Ir1 Si4 2.500780 1_555
Ir1 Si7 2.559382 1_546
Ir1 Lu0 3.042747 1_555
Ir1 Sr0 3.124827 1_556
Ir2 Si2 2.431424 1_555
Ir2 Si12 2.442189 1_554
Ir2 Si6 2.470107 1_555
Ir2 Si4 2.470919 1_555
Ir2 Si11 2.482956 1_554
Ir2 Si5 2.500780 1_555
Ir2 Si8 2.559382 1_654
Ir2 Lu0 3.042747 1_555
Ir2 Sr0 3.124827 1_655
Ir3 Si6 2.431424 1_555
Ir3 Si13 2.442189 1_655
Ir3 Si1 2.470107 1_555
Ir3 Si11 2.470919 1_555
Ir3 Si3 2.482956 1_655
Ir3 Si9 2.500780 1_555
Ir3 Si0 2.559382 1_645
Ir3 Lu0 3.042747 1_555
Ir3 Sr0 3.124827 1_656
Ir4 Si7 2.431424 1_555
Ir4 Si13 2.442189 1_565
Ir4 Si2 2.470107 1_555
Ir4 Si9 2.470919 1_555
Ir4 Si4 2.482956 1_565
Ir4 Si10 2.500780 1_555
Ir4 Si1 2.559382 1_564
Ir4 Lu0 3.042747 1_555
Ir4 Sr0 3.124827 1_665
Ir5 Si8 2.431424 1_555
Ir5 Si13 2.442189 1_556
Ir5 Si0 2.470107 1_555
Ir5 Si10 2.470919 1_555
Ir5 Si5 2.482956 1_556
Ir5 Si11 2.500780 1_555
Ir5 Si2 2.559382 1_456
Ir5 Lu0 3.042747 1_555
Ir5 Sr0 3.124827 1_566
