# generated using pymatgen
data_Zr5Bi3Pt
_symmetry_space_group_name_H-M   'P 1'
_cell_length_a   8.90387560
_cell_length_b   8.90387581
_cell_length_c   5.87523891
_cell_angle_alpha   90.00000000
_cell_angle_beta   90.00000000
_cell_angle_gamma   119.99999557
_symmetry_Int_Tables_number   1
_chemical_formula_structural   Zr5Bi3Pt
_chemical_formula_sum   'Zr10 Bi6 Pt2'
_cell_volume   403.37999871
_cell_formula_units_Z   2
loop_
 _symmetry_equiv_pos_site_id
 _symmetry_equiv_pos_as_xyz
  1  'x, y, z'
loop_
 _atom_site_type_symbol
 _atom_site_label
 _atom_site_symmetry_multiplicity
 _atom_site_fract_x
 _atom_site_fract_y
 _atom_site_fract_z
 _atom_site_occupancy
  Zr  Zr0  1  0.73513879  1.00000000  0.25000000  1
  Zr  Zr1  1  1.00000000  0.73513879  0.25000000  1
  Zr  Zr2  1  0.26486121  0.26486121  0.25000000  1
  Zr  Zr3  1  0.26486121  0.00000000  0.75000000  1
  Zr  Zr4  1  0.00000000  0.26486121  0.75000000  1
  Zr  Zr5  1  0.73513879  0.73513879  0.75000000  1
  Zr  Zr6  1  0.33333300  0.66666700  0.50000000  1
  Zr  Zr7  1  0.66666700  0.33333300  0.50000000  1
  Zr  Zr8  1  0.66666700  0.33333300  0.00000000  1
  Zr  Zr9  1  0.33333300  0.66666700  0.00000000  1
  Bi  Bi0  1  0.38649632  0.00000000  0.25000000  1
  Bi  Bi1  1  0.00000000  0.38649632  0.25000000  1
  Bi  Bi2  1  0.61350368  0.61350368  0.25000000  1
  Bi  Bi3  1  0.61350368  1.00000000  0.75000000  1
  Bi  Bi4  1  1.00000000  0.61350368  0.75000000  1
  Bi  Bi5  1  0.38649632  0.38649632  0.75000000  1
  Pt  Pt0  1  0.00000000  0.00000000  0.50000000  1
  Pt  Pt1  1  0.00000000  0.00000000  0.00000000  1
loop_
_geom_bond_atom_site_label_1
_geom_bond_atom_site_label_2
_geom_bond_distance
_geom_bond_site_symmetry_2
Zr6 Zr9 2.937619 1_556
Zr6 Zr9 2.937619 1_555
Zr7 Zr8 2.937619 1_555
Zr7 Zr8 2.937619 1_556
Bi0 Zr2 3.047715 1_555
Bi0 Zr1 3.047715 1_445
Bi0 Zr0 3.104269 1_545
Bi0 Zr6 3.128150 1_545
Bi0 Zr9 3.128150 1_545
Bi0 Zr8 3.128153 1_555
Bi0 Zr7 3.128153 1_555
Bi0 Zr3 3.130902 1_554
Bi0 Zr3 3.130902 1_555
Bi1 Zr2 3.047715 1_555
Bi1 Zr0 3.047715 1_445
Bi1 Zr1 3.104269 1_455
Bi1 Zr8 3.128150 1_455
Bi1 Zr7 3.128150 1_455
Bi1 Zr6 3.128153 1_555
Bi1 Zr9 3.128153 1_555
Bi1 Zr4 3.130902 1_555
Bi1 Zr4 3.130902 1_554
Bi2 Zr1 3.047715 1_555
Bi2 Zr0 3.047715 1_555
Bi2 Zr2 3.104269 1_555
Bi2 Zr9 3.128158 1_555
Bi2 Zr6 3.128158 1_555
Bi2 Zr8 3.128158 1_555
Bi2 Zr7 3.128158 1_555
Bi2 Zr5 3.130902 1_555
Bi2 Zr5 3.130902 1_554
Bi3 Zr5 3.047715 1_555
Bi3 Zr4 3.047715 1_665
Bi3 Zr3 3.104269 1_565
Bi3 Zr7 3.128150 1_565
Bi3 Zr8 3.128150 1_566
Bi3 Zr9 3.128153 1_556
Bi3 Zr6 3.128153 1_555
Bi3 Zr0 3.130902 1_556
Bi3 Zr0 3.130902 1_555
Bi4 Zr5 3.047715 1_555
Bi4 Zr3 3.047715 1_665
Bi4 Zr4 3.104269 1_655
Bi4 Zr6 3.128150 1_655
Bi4 Zr9 3.128150 1_656
Bi4 Zr8 3.128153 1_556
Bi4 Zr7 3.128153 1_555
Bi4 Zr1 3.130902 1_555
Bi4 Zr1 3.130902 1_556
Bi5 Zr4 3.047715 1_555
Bi5 Zr3 3.047715 1_555
Bi5 Zr5 3.104269 1_555
Bi5 Zr8 3.128158 1_556
Bi5 Zr7 3.128158 1_555
Bi5 Zr9 3.128158 1_556
Bi5 Zr6 3.128158 1_555
Bi5 Zr2 3.130902 1_555
Bi5 Zr2 3.130902 1_556
Pt0 Zr3 2.778298 1_555
Pt0 Zr0 2.778298 1_445
Pt0 Zr1 2.778298 1_445
Pt0 Zr4 2.778298 1_555
Pt0 Zr5 2.778298 1_445
Pt0 Zr2 2.778298 1_555
Pt1 Zr3 2.778298 1_554
Pt1 Zr0 2.778298 1_445
Pt1 Zr1 2.778298 1_445
Pt1 Zr4 2.778298 1_554
Pt1 Zr5 2.778298 1_444
Pt1 Zr2 2.778298 1_555
