# generated using pymatgen
data_CsAg2(PO3)6
_symmetry_space_group_name_H-M   'P 1'
_cell_length_a   5.26466742
_cell_length_b   9.30648030
_cell_length_c   9.04963340
_cell_angle_alpha   88.39371059
_cell_angle_beta   74.10389407
_cell_angle_gamma   70.67690236
_symmetry_Int_Tables_number   1
_chemical_formula_structural   CsAg2(PO3)6
_chemical_formula_sum   'Cs1 Ag2 P6 O18'
_cell_volume   401.45570286
_cell_formula_units_Z   1
loop_
 _symmetry_equiv_pos_site_id
 _symmetry_equiv_pos_as_xyz
  1  'x, y, z'
loop_
 _atom_site_type_symbol
 _atom_site_label
 _atom_site_symmetry_multiplicity
 _atom_site_fract_x
 _atom_site_fract_y
 _atom_site_fract_z
 _atom_site_occupancy
  Cs  Cs0  1  0.99999987  0.00000168  0.99999954  1
  Ag  Ag0  1  0.50000206  0.99999780  0.49999949  1
  Ag  Ag1  1  0.49999947  0.49999917  0.00000060  1
  P  P0  1  0.04800377  0.78285249  0.55769050  1
  P  P1  1  0.95200025  0.21715057  0.44230556  1
  P  P2  1  0.94075758  0.45521526  0.22087376  1
  P  P3  1  0.05923693  0.54478675  0.77912773  1
  P  P4  1  0.50498348  0.23698333  0.74282013  1
  P  P5  1  0.49501806  0.76301807  0.25717916  1
  O  O0  1  0.09360293  0.90382268  0.63687578  1
  O  O1  1  0.90639571  0.09618102  0.36312474  1
  O  O2  1  0.85883250  0.39640628  0.09614675  1
  O  O3  1  0.14116980  0.60359003  0.90385623  1
  O  O4  1  0.15325116  0.62030282  0.62218093  1
  O  O5  1  0.84674385  0.37969958  0.37782044  1
  O  O6  1  0.24250803  0.74146488  0.38539179  1
  O  O7  1  0.75749681  0.25853345  0.61460599  1
  O  O8  1  0.75630737  0.62757426  0.27726924  1
  O  O9  1  0.24369568  0.37242827  0.72272501  1
  O  O10  1  0.24643018  0.19857609  0.44967201  1
  O  O11  1  0.75357332  0.80141855  0.55033007  1
  O  O12  1  0.75941316  0.55969486  0.80275227  1
  O  O13  1  0.24058219  0.44030061  0.19724761  1
  O  O14  1  0.45650760  0.09069131  0.70989354  1
  O  O15  1  0.54348982  0.90930820  0.29010798  1
  O  O16  1  0.54912008  0.24663007  0.89550689  1
  O  O17  1  0.45087535  0.75337091  0.10449523  1
loop_
_geom_bond_atom_site_label_1
_geom_bond_atom_site_label_2
_geom_bond_distance
_geom_bond_site_symmetry_2
Cs0 O16 3.049464 1_555
Cs0 O17 3.049474 1_646
Cs0 O0 3.290690 1_645
Cs0 O1 3.290702 1_556
Cs0 O14 3.338080 1_655
Cs0 O15 3.338117 1_546
Cs0 O2 3.595882 1_556
Cs0 O3 3.595934 1_645
Ag0 O10 2.014469 1_565
Ag0 O11 2.014484 1_555
Ag0 O15 2.023959 1_555
Ag0 O14 2.023985 1_565
Ag0 O0 2.581970 1_555
Ag0 O1 2.581989 1_565
Ag1 O12 2.114537 1_554
Ag1 O13 2.114551 1_555
Ag1 O3 2.214339 1_554
Ag1 O2 2.214366 1_555
Ag1 O16 2.471566 1_554
Ag1 O17 2.471586 1_555
O0 P0 1.468641 1_555
O1 P1 1.468630 1_555
O2 P2 1.489007 1_555
O3 P3 1.489019 1_555
O4 P0 1.583985 1_555
O4 P3 1.595408 1_555
O5 P1 1.583965 1_555
O5 P2 1.595405 1_555
O6 P5 1.572329 1_555
O6 P0 1.589397 1_555
O7 P4 1.572336 1_555
O7 P1 1.589405 1_555
O8 P5 1.578241 1_555
O8 P2 1.587455 1_555
O9 P4 1.578257 1_555
O9 P3 1.587472 1_555
O10 P1 1.521740 1_455
O11 P0 1.521743 1_655
O12 P3 1.492784 1_655
O13 P2 1.492770 1_455
O14 P4 1.517184 1_555
O15 P5 1.517162 1_555
O16 P4 1.472396 1_555
O17 P5 1.472386 1_555
