# generated using pymatgen
data_ScTiGa4Mo
_symmetry_space_group_name_H-M   'P 1'
_cell_length_a   5.33779485
_cell_length_b   5.33779487
_cell_length_c   5.33779435
_cell_angle_alpha   104.45150739
_cell_angle_beta   104.45150329
_cell_angle_gamma   120.05816551
_symmetry_Int_Tables_number   1
_chemical_formula_structural   ScTiGa4Mo
_chemical_formula_sum   'Sc1 Ti1 Ga4 Mo1'
_cell_volume   114.03003258
_cell_formula_units_Z   1
loop_
 _symmetry_equiv_pos_site_id
 _symmetry_equiv_pos_as_xyz
  1  'x, y, z'
loop_
 _atom_site_type_symbol
 _atom_site_label
 _atom_site_symmetry_multiplicity
 _atom_site_fract_x
 _atom_site_fract_y
 _atom_site_fract_z
 _atom_site_occupancy
  Sc  Sc0  1  0.00000000  0.00000000  0.00000000  1
  Ti  Ti0  1  0.75000000  0.25000000  0.50000000  1
  Ga  Ga0  1  0.30288917  0.30288917  0.60577834  1
  Ga  Ga1  1  0.69711083  0.69711083  0.39422166  1
  Ga  Ga2  1  0.69711083  0.30288917  0.00000000  1
  Ga  Ga3  1  0.30288917  0.69711083  1.00000000  1
  Mo  Mo0  1  0.25000000  0.75000000  0.50000000  1
loop_
_geom_bond_atom_site_label_1
_geom_bond_atom_site_label_2
_geom_bond_distance
_geom_bond_site_symmetry_2
Ga0 Ga3 2.577954 1_555
Ga0 Ga2 2.577954 1_556
Ga0 Ti0 2.713347 1_555
Ga0 Mo0 2.713347 1_555
Ga0 Mo0 2.713347 1_545
Ga0 Ti0 2.713347 1_455
Ga0 Sc0 2.801131 1_555
Ga0 Ga1 2.840326 1_555
Ga0 Ga1 2.840326 1_445
Ga0 Sc0 3.230080 1_556
Ga0 Sc0 3.230080 1_666
Ga1 Ga2 2.577954 1_555
Ga1 Ga3 2.577954 1_554
Ga1 Mo0 2.713347 1_555
Ga1 Ti0 2.713347 1_555
Ga1 Ti0 2.713347 1_565
Ga1 Mo0 2.713347 1_655
Ga1 Sc0 2.801131 1_666
Ga1 Sc0 3.230080 1_665
Ga1 Sc0 3.230080 1_555
Ga2 Ti0 2.713347 1_554
Ga2 Ti0 2.713347 1_555
Ga2 Mo0 2.713347 1_544
Ga2 Mo0 2.713347 1_655
Ga2 Sc0 2.801131 1_655
Ga2 Ga3 2.840326 1_654
Ga2 Ga3 2.840326 1_544
Ga2 Sc0 3.230080 1_555
Ga2 Sc0 3.230080 1_665
Ga3 Mo0 2.713347 1_556
Ga3 Mo0 2.713347 1_555
Ga3 Ti0 2.713347 1_566
Ga3 Ti0 2.713347 1_455
Ga3 Sc0 2.801131 1_566
Ga3 Sc0 3.230080 1_666
Ga3 Sc0 3.230080 1_556
Mo0 Ti0 2.666551 1_565
Mo0 Ti0 2.666551 1_455
