# generated using pymatgen
data_Sr6Tc(RuO6)2
_symmetry_space_group_name_H-M   'P 1'
_cell_length_a   8.67887118
_cell_length_b   8.67887129
_cell_length_c   6.95376932
_cell_angle_alpha   68.01429360
_cell_angle_beta   68.01429393
_cell_angle_gamma   36.91761967
_symmetry_Int_Tables_number   1
_chemical_formula_structural   Sr6Tc(RuO6)2
_chemical_formula_sum   'Sr6 Tc1 Ru2 O12'
_cell_volume   289.07430960
_cell_formula_units_Z   1
loop_
 _symmetry_equiv_pos_site_id
 _symmetry_equiv_pos_as_xyz
  1  'x, y, z'
loop_
 _atom_site_type_symbol
 _atom_site_label
 _atom_site_symmetry_multiplicity
 _atom_site_fract_x
 _atom_site_fract_y
 _atom_site_fract_z
 _atom_site_occupancy
  Sr  Sr0  1  0.21750093  0.21750093  0.70645160  1
  Sr  Sr1  1  0.88051899  0.88051899  0.70620177  1
  Sr  Sr2  1  0.54888255  0.54888255  0.70539074  1
  Sr  Sr3  1  0.78249907  0.78249907  0.29354840  1
  Sr  Sr4  1  0.45111745  0.45111745  0.29460926  1
  Sr  Sr5  1  0.11948101  0.11948101  0.29379823  1
  Tc  Tc0  1  0.00000000  0.00000000  0.00000000  1
  Ru  Ru0  1  0.66664078  0.66664078  0.99978792  1
  Ru  Ru1  1  0.33335922  0.33335922  0.00021208  1
  O  O0  1  0.27983358  0.27983358  0.32554916  1
  O  O1  1  0.94662362  0.94662362  0.32040620  1
  O  O2  1  0.61159199  0.61159199  0.32562412  1
  O  O3  1  0.72016642  0.72016642  0.67445084  1
  O  O4  1  0.38840801  0.38840801  0.67437588  1
  O  O5  1  0.05337638  0.05337638  0.67959380  1
  O  O6  1  0.00000000  0.50000000  0.00000000  1
  O  O7  1  0.66836129  0.16520926  0.99988762  1
  O  O8  1  0.33163871  0.83479074  0.00011238  1
  O  O9  1  0.50000000  0.00000000  0.00000000  1
  O  O10  1  0.16520926  0.66836129  0.99988762  1
  O  O11  1  0.83479074  0.33163871  0.00011238  1
loop_
_geom_bond_atom_site_label_1
_geom_bond_atom_site_label_2
_geom_bond_distance
_geom_bond_site_symmetry_2
O0 Ru1 2.078692 1_555
O0 Sr0 2.433756 1_555
O0 Sr5 2.734835 1_555
O0 Sr4 2.742359 1_555
O0 Sr3 2.755875 1_455
O0 Sr3 2.755875 1_545
O1 Tc0 2.047155 1_665
O1 Sr1 2.465122 1_555
O1 Sr4 2.752869 1_565
O1 Sr4 2.752869 1_655
O1 Sr5 2.778227 1_665
O1 Sr3 2.781274 1_555
O2 Ru0 2.081884 1_554
O2 Sr2 2.426444 1_555
O2 Sr3 2.733597 1_555
O2 Sr4 2.734478 1_555
O2 Sr5 2.755770 1_565
O2 Sr5 2.755770 1_655
O3 Ru0 2.078692 1_555
O3 Sr3 2.433756 1_555
O3 Sr1 2.734835 1_555
O3 Sr2 2.742359 1_555
O3 Sr0 2.755875 1_655
O3 Sr0 2.755875 1_565
O4 Ru1 2.081884 1_556
O4 Sr4 2.426444 1_555
O4 Sr0 2.733597 1_555
O4 Sr2 2.734478 1_555
O4 Sr1 2.755770 1_545
O4 Sr1 2.755770 1_455
O5 Tc0 2.047155 1_556
O5 Sr5 2.465122 1_555
O5 Sr2 2.752869 1_545
O5 Sr2 2.752869 1_455
O5 Sr1 2.778227 1_445
O5 Sr0 2.781274 1_555
O6 Ru1 1.942446 1_555
O6 Ru0 1.942446 1_454
O6 Sr3 2.683851 1_455
O6 Sr0 2.683851 1_554
O6 Sr1 2.685909 1_454
O6 Sr5 2.685909 1_555
O7 Tc0 1.934448 1_656
O7 Ru1 1.948320 1_556
O7 Sr2 2.705544 1_555
O7 Sr4 2.710312 1_556
O7 Sr1 2.711799 1_545
O7 Sr3 2.712664 1_546
O8 Tc0 1.934448 1_565
O8 Ru0 1.948320 1_554
O8 Sr4 2.705544 1_555
O8 Sr2 2.710312 1_554
O8 Sr5 2.711799 1_565
O8 Sr0 2.712664 1_564
O9 Ru1 1.942446 1_555
O9 Ru0 1.942446 1_544
O9 Sr3 2.683851 1_545
O9 Sr0 2.683851 1_554
O9 Sr1 2.685909 1_544
O9 Sr5 2.685909 1_555
O10 Tc0 1.934448 1_566
O10 Ru1 1.948320 1_556
O10 Sr2 2.705544 1_555
O10 Sr4 2.710312 1_556
O10 Sr1 2.711799 1_455
O10 Sr3 2.712664 1_456
O11 Tc0 1.934448 1_655
O11 Ru0 1.948320 1_554
O11 Sr4 2.705544 1_555
O11 Sr2 2.710312 1_554
O11 Sr5 2.711799 1_655
O11 Sr0 2.712664 1_654
