# generated using pymatgen
data_Li12SbRuN8
_symmetry_space_group_name_H-M   'P 1'
_cell_length_a   6.69767203
_cell_length_b   6.69767203
_cell_length_c   4.86007485
_cell_angle_alpha   90.00000000
_cell_angle_beta   90.00000000
_cell_angle_gamma   90.00000000
_symmetry_Int_Tables_number   1
_chemical_formula_structural   Li12SbRuN8
_chemical_formula_sum   'Li12 Sb1 Ru1 N8'
_cell_volume   218.01717753
_cell_formula_units_Z   1
loop_
 _symmetry_equiv_pos_site_id
 _symmetry_equiv_pos_as_xyz
  1  'x, y, z'
loop_
 _atom_site_type_symbol
 _atom_site_label
 _atom_site_symmetry_multiplicity
 _atom_site_fract_x
 _atom_site_fract_y
 _atom_site_fract_z
 _atom_site_occupancy
  Li  Li0  1  0.00000000  0.50000000  0.56841976  1
  Li  Li1  1  0.50000000  0.00000000  0.91326755  1
  Li  Li2  1  0.50000000  0.00000000  0.43158024  1
  Li  Li3  1  0.00000000  0.50000000  0.08673245  1
  Li  Li4  1  0.21379216  0.21379216  0.50000000  1
  Li  Li5  1  0.78620784  0.78620784  0.50000000  1
  Li  Li6  1  0.71489133  0.71489133  0.00000000  1
  Li  Li7  1  0.28510867  0.28510867  0.00000000  1
  Li  Li8  1  0.78620784  0.21379216  0.50000000  1
  Li  Li9  1  0.21379216  0.78620784  0.50000000  1
  Li  Li10  1  0.28510867  0.71489133  0.00000000  1
  Li  Li11  1  0.71489133  0.28510867  0.00000000  1
  Sb  Sb0  1  0.50000000  0.50000000  0.50000000  1
  Ru  Ru0  1  0.00000000  0.00000000  0.00000000  1
  N  N0  1  0.24014148  0.50000000  0.29783255  1
  N  N1  1  0.75985852  0.50000000  0.29783255  1
  N  N2  1  0.76499520  0.00000000  0.19323704  1
  N  N3  1  0.23500480  0.00000000  0.19323704  1
  N  N4  1  0.50000000  0.24014148  0.70216745  1
  N  N5  1  0.50000000  0.75985852  0.70216745  1
  N  N6  1  0.00000000  0.76499520  0.80676296  1
  N  N7  1  0.00000000  0.23500480  0.80676296  1
loop_
_geom_bond_atom_site_label_1
_geom_bond_atom_site_label_2
_geom_bond_distance
_geom_bond_site_symmetry_2
Li0 N0 2.077579 1_555
Li0 N1 2.077579 1_455
Li0 N6 2.119412 1_555
Li0 N7 2.119412 1_555
Li1 N4 1.907751 1_555
Li1 N5 1.907751 1_545
Li1 N2 2.236409 1_556
Li1 N3 2.236409 1_556
Li2 N4 2.077579 1_555
Li2 N5 2.077579 1_545
Li2 N2 2.119412 1_555
Li2 N3 2.119412 1_555
Li3 N0 1.907751 1_555
Li3 N1 1.907751 1_455
Li3 N6 2.236409 1_554
Li3 N7 2.236409 1_554
Li4 N7 2.072030 1_555
Li4 N3 2.072030 1_555
Li4 N4 2.161285 1_555
Li4 N0 2.161285 1_555
Li5 N6 2.072030 1_655
Li5 N2 2.072030 1_565
Li5 N5 2.161285 1_555
Li5 N1 2.161285 1_555
Li6 N1 2.063355 1_555
Li6 N5 2.063355 1_554
Li6 N2 2.154309 1_565
Li6 N6 2.154309 1_654
Li7 N0 2.063355 1_555
Li7 N4 2.063355 1_554
Li7 N3 2.154309 1_555
Li7 N7 2.154309 1_554
Li8 N2 2.072030 1_555
Li8 N7 2.072030 1_655
Li8 N4 2.161285 1_555
Li8 N1 2.161285 1_555
Li9 N6 2.072030 1_555
Li9 N3 2.072030 1_565
Li9 N0 2.161285 1_555
Li9 N5 2.161285 1_555
Li10 N0 2.063355 1_555
Li10 N5 2.063355 1_554
Li10 N6 2.154309 1_554
Li10 N3 2.154309 1_565
Li11 N4 2.063355 1_554
Li11 N1 2.063355 1_555
Li11 N2 2.154309 1_555
Li11 N7 2.154309 1_654
N0 Sb0 1.998639 1_555
N1 Sb0 1.998639 1_555
N2 Ru0 1.832873 1_655
N3 Ru0 1.832873 1_555
N4 Sb0 1.998639 1_555
N5 Sb0 1.998639 1_555
N6 Ru0 1.832873 1_566
N7 Ru0 1.832873 1_556
