# generated using pymatgen
data_Cs6K2TiSb4
_symmetry_space_group_name_H-M   'P 1'
_cell_length_a   12.15286457
_cell_length_b   12.15286500
_cell_length_c   12.15286432
_cell_angle_alpha   59.99999915
_cell_angle_beta   59.99999800
_cell_angle_gamma   59.99999516
_symmetry_Int_Tables_number   1
_chemical_formula_structural   Cs6K2TiSb4
_chemical_formula_sum   'Cs12 K4 Ti2 Sb8'
_cell_volume   1269.17339016
_cell_formula_units_Z   2
loop_
 _symmetry_equiv_pos_site_id
 _symmetry_equiv_pos_as_xyz
  1  'x, y, z'
loop_
 _atom_site_type_symbol
 _atom_site_label
 _atom_site_symmetry_multiplicity
 _atom_site_fract_x
 _atom_site_fract_y
 _atom_site_fract_z
 _atom_site_occupancy
  Cs  Cs0  1  0.02636407  0.02636407  0.47363593  1
  Cs  Cs1  1  0.77636407  0.22363593  0.22363593  1
  Cs  Cs2  1  0.22363593  0.77636407  0.77636407  1
  Cs  Cs3  1  0.77636407  0.77636407  0.22363593  1
  Cs  Cs4  1  0.77636407  0.22363593  0.77636407  1
  Cs  Cs5  1  0.22363593  0.77636407  0.22363593  1
  Cs  Cs6  1  0.47363593  0.02636407  0.47363593  1
  Cs  Cs7  1  0.47363593  0.02636407  0.02636407  1
  Cs  Cs8  1  0.02636407  0.47363593  0.47363593  1
  Cs  Cs9  1  0.02636407  0.47363593  0.02636407  1
  Cs  Cs10  1  0.22363593  0.22363593  0.77636407  1
  Cs  Cs11  1  0.47363593  0.47363593  0.02636407  1
  K  K0  1  0.62500000  0.12500000  0.62500000  1
  K  K1  1  0.62500000  0.62500000  0.12500000  1
  K  K2  1  0.12500000  0.62500000  0.62500000  1
  K  K3  1  0.62500000  0.62500000  0.62500000  1
  Ti  Ti0  1  0.75000000  0.75000000  0.75000000  1
  Ti  Ti1  1  0.50000000  0.50000000  0.50000000  1
  Sb  Sb0  1  0.40746075  0.77761874  0.40746075  1
  Sb  Sb1  1  0.84253925  0.84253925  0.47238126  1
  Sb  Sb2  1  0.47238126  0.84253925  0.84253925  1
  Sb  Sb3  1  0.84253925  0.84253925  0.84253925  1
  Sb  Sb4  1  0.77761874  0.40746075  0.40746075  1
  Sb  Sb5  1  0.40746075  0.40746075  0.40746075  1
  Sb  Sb6  1  0.40746075  0.40746075  0.77761874  1
  Sb  Sb7  1  0.84253925  0.47238126  0.84253925  1
loop_
_geom_bond_atom_site_label_1
_geom_bond_atom_site_label_2
_geom_bond_distance
_geom_bond_site_symmetry_2
Cs0 Sb3 3.878215 1_445
Cs0 Sb1 3.878222 1_445
Cs0 Sb0 3.992612 1_545
Cs0 Sb4 3.992612 1_455
Cs0 K0 3.999791 1_455
Cs0 K2 3.999791 1_545
Cs1 Sb5 3.878214 1_555
Cs1 Sb4 3.878222 1_555
Cs1 Sb7 3.992612 1_554
Cs1 Sb1 3.992612 1_545
Cs1 K0 3.999791 1_555
Cs1 K1 3.999791 1_555
Cs2 Sb0 3.878211 1_555
Cs2 Sb6 3.878211 1_555
Cs2 Sb2 3.992604 1_555
Cs2 Sb3 3.992616 1_455
Cs2 K3 3.999791 1_555
Cs2 K2 3.999791 1_555
Cs3 Sb0 3.878211 1_555
Cs3 Sb4 3.878211 1_555
Cs3 Sb1 3.992604 1_555
Cs3 Sb3 3.992616 1_554
Cs3 K3 3.999791 1_555
Cs3 K1 3.999791 1_555
Cs4 Sb6 3.878211 1_555
Cs4 Sb4 3.878211 1_555
Cs4 Sb7 3.992604 1_555
Cs4 Sb3 3.992616 1_545
Cs4 K3 3.999791 1_555
Cs4 K0 3.999791 1_555
Cs5 Sb5 3.878215 1_555
Cs5 Sb0 3.878222 1_555
Cs5 Sb1 3.992612 1_455
Cs5 Sb2 3.992612 1_554
Cs5 K1 3.999791 1_555
Cs5 K2 3.999791 1_555
Cs6 Sb1 3.878211 1_545
Cs6 Sb2 3.878211 1_545
Cs6 Sb0 3.992604 1_545
Cs6 Sb5 3.992616 1_555
Cs6 K3 3.999791 1_545
Cs6 K0 3.999791 1_555
Cs7 Sb3 3.878214 1_544
Cs7 Sb2 3.878222 1_544
Cs7 Sb0 3.992612 1_545
Cs7 Sb6 3.992612 1_554
Cs7 K0 3.999791 1_554
Cs7 K1 3.999791 1_545
Cs8 Sb7 3.878211 1_455
Cs8 Sb1 3.878211 1_455
Cs8 Sb4 3.992604 1_455
Cs8 Sb5 3.992616 1_555
Cs8 K3 3.999791 1_455
Cs8 K2 3.999791 1_555
Cs9 Sb3 3.878215 1_454
Cs9 Sb7 3.878222 1_454
Cs9 Sb6 3.992612 1_554
Cs9 Sb4 3.992612 1_455
Cs9 K1 3.999791 1_455
Cs9 K2 3.999791 1_554
Cs10 Sb5 3.878215 1_555
Cs10 Sb6 3.878222 1_555
Cs10 Sb7 3.992612 1_455
Cs10 Sb2 3.992612 1_545
Cs10 K0 3.999791 1_555
Cs10 K2 3.999791 1_555
Cs11 Sb7 3.878211 1_554
Cs11 Sb2 3.878211 1_554
Cs11 Sb6 3.992604 1_554
Cs11 Sb5 3.992616 1_555
Cs11 K3 3.999791 1_554
Cs11 K1 3.999791 1_555
K0 Ti1 3.721040 1_555
K0 Ti0 3.721040 1_545
K0 Sb3 3.821133 1_545
K0 Sb5 3.821133 1_555
K0 Sb6 3.821140 1_555
K0 Sb1 3.821140 1_545
K0 Sb4 3.821140 1_555
K0 Sb2 3.821140 1_545
K1 Ti1 3.721040 1_555
K1 Ti0 3.721040 1_554
K1 Sb3 3.821133 1_554
K1 Sb5 3.821133 1_555
K1 Sb0 3.821140 1_555
K1 Sb7 3.821140 1_554
K1 Sb4 3.821140 1_555
K1 Sb2 3.821140 1_554
K2 Ti1 3.721039 1_555
K2 Ti0 3.721039 1_455
K2 Sb3 3.821133 1_455
K2 Sb5 3.821133 1_555
K2 Sb6 3.821140 1_555
K2 Sb1 3.821140 1_455
K2 Sb0 3.821140 1_555
K2 Sb7 3.821140 1_455
K3 Ti1 3.721040 1_555
K3 Ti0 3.721040 1_555
K3 Sb7 3.821130 1_555
K3 Sb0 3.821130 1_555
K3 Sb2 3.821130 1_555
K3 Sb4 3.821130 1_555
K3 Sb1 3.821131 1_555
K3 Sb6 3.821131 1_555
Sb0 Ti1 2.754748 1_555
Sb1 Ti0 2.754748 1_555
Sb2 Ti0 2.754747 1_555
Sb3 Ti0 2.754738 1_555
Sb4 Ti1 2.754747 1_555
Sb5 Ti1 2.754738 1_555
Sb6 Ti1 2.754748 1_555
Sb7 Ti0 2.754748 1_555
