# generated using pymatgen
data_Zr10CuSn6P
_symmetry_space_group_name_H-M   'P 1'
_cell_length_a   8.63635057
_cell_length_b   8.63635067
_cell_length_c   5.87457498
_cell_angle_alpha   90.00000000
_cell_angle_beta   90.00000000
_cell_angle_gamma   119.99999203
_symmetry_Int_Tables_number   1
_chemical_formula_structural   Zr10CuSn6P
_chemical_formula_sum   'Zr10 Cu1 Sn6 P1'
_cell_volume   379.46143872
_cell_formula_units_Z   1
loop_
 _symmetry_equiv_pos_site_id
 _symmetry_equiv_pos_as_xyz
  1  'x, y, z'
loop_
 _atom_site_type_symbol
 _atom_site_label
 _atom_site_symmetry_multiplicity
 _atom_site_fract_x
 _atom_site_fract_y
 _atom_site_fract_z
 _atom_site_occupancy
  Zr  Zr0  1  0.66666700  0.33333300  0.00000000  1
  Zr  Zr1  1  0.33333300  0.66666700  0.00000000  1
  Zr  Zr2  1  0.33333300  0.66666700  0.50000000  1
  Zr  Zr3  1  0.66666700  0.33333300  0.50000000  1
  Zr  Zr4  1  0.74407192  0.74407192  0.74423237  1
  Zr  Zr5  1  0.25592808  0.00000000  0.74423237  1
  Zr  Zr6  1  0.00000000  0.25592808  0.74423237  1
  Zr  Zr7  1  0.25592808  0.25592808  0.25576763  1
  Zr  Zr8  1  0.74407192  1.00000000  0.25576763  1
  Zr  Zr9  1  1.00000000  0.74407192  0.25576763  1
  Cu  Cu0  1  0.00000000  0.00000000  0.00000000  1
  Sn  Sn0  1  0.39236100  0.39236100  0.75487435  1
  Sn  Sn1  1  0.60763900  0.00000000  0.75487435  1
  Sn  Sn2  1  0.00000000  0.60763900  0.75487435  1
  Sn  Sn3  1  0.60763900  0.60763900  0.24512565  1
  Sn  Sn4  1  0.39236100  1.00000000  0.24512565  1
  Sn  Sn5  1  1.00000000  0.39236100  0.24512565  1
  P  P0  1  0.00000000  0.00000000  0.50000000  1
loop_
_geom_bond_atom_site_label_1
_geom_bond_atom_site_label_2
_geom_bond_distance
_geom_bond_site_symmetry_2
Cu0 Zr5 2.672628 1_554
Cu0 Zr8 2.672628 1_445
Cu0 Zr6 2.672628 1_554
Cu0 Zr9 2.672628 1_445
Cu0 Zr7 2.672629 1_555
Cu0 Zr4 2.672629 1_444
Sn0 Zr6 2.980261 1_555
Sn0 Zr5 2.980261 1_555
Sn0 Zr0 3.025453 1_556
Sn0 Zr1 3.025453 1_556
Sn0 Zr4 3.038143 1_555
Sn0 Zr3 3.053127 1_555
Sn0 Zr2 3.053127 1_555
Sn0 Zr7 3.159938 1_555
Sn0 Zr7 3.169679 1_556
Sn1 Zr4 2.980261 1_545
Sn1 Zr6 2.980261 1_655
Sn1 Zr0 3.025446 1_556
Sn1 Zr1 3.025449 1_546
Sn1 Zr5 3.038142 1_555
Sn1 Zr3 3.053120 1_555
Sn1 Zr2 3.053123 1_545
Sn1 Zr8 3.159938 1_545
Sn1 Zr8 3.169679 1_546
Sn2 Zr4 2.980261 1_455
Sn2 Zr5 2.980261 1_565
Sn2 Zr1 3.025446 1_556
Sn2 Zr0 3.025449 1_456
Sn2 Zr6 3.038142 1_555
Sn2 Zr2 3.053120 1_555
Sn2 Zr3 3.053123 1_455
Sn2 Zr9 3.159938 1_455
Sn2 Zr9 3.169679 1_456
Sn3 Zr9 2.980261 1_555
Sn3 Zr8 2.980261 1_555
Sn3 Zr1 3.025453 1_555
Sn3 Zr0 3.025453 1_555
Sn3 Zr7 3.038143 1_555
Sn3 Zr2 3.053127 1_555
Sn3 Zr3 3.053127 1_555
Sn3 Zr4 3.159938 1_555
Sn3 Zr4 3.169679 1_554
Sn4 Zr7 2.980261 1_565
Sn4 Zr9 2.980261 1_455
Sn4 Zr1 3.025446 1_555
Sn4 Zr0 3.025449 1_565
Sn4 Zr8 3.038142 1_555
Sn4 Zr2 3.053120 1_555
Sn4 Zr3 3.053123 1_565
Sn4 Zr5 3.159938 1_565
Sn4 Zr5 3.169679 1_564
Sn5 Zr7 2.980261 1_655
Sn5 Zr8 2.980261 1_545
Sn5 Zr0 3.025446 1_555
Sn5 Zr1 3.025449 1_655
Sn5 Zr9 3.038142 1_555
Sn5 Zr3 3.053120 1_555
Sn5 Zr2 3.053123 1_655
Sn5 Zr6 3.159938 1_655
Sn5 Zr6 3.169679 1_654
P0 Zr5 2.635128 1_555
P0 Zr8 2.635128 1_445
P0 Zr6 2.635128 1_555
P0 Zr9 2.635128 1_445
P0 Zr7 2.635128 1_555
P0 Zr4 2.635128 1_445
