# generated using pymatgen
data_Sr5Al3Ga2Pb
_symmetry_space_group_name_H-M   'P 1'
_cell_length_a   5.77805610
_cell_length_b   5.77805485
_cell_length_c   10.76178248
_cell_angle_alpha   90.00000000
_cell_angle_beta   90.00000000
_cell_angle_gamma   119.99999067
_symmetry_Int_Tables_number   1
_chemical_formula_structural   Sr5Al3Ga2Pb
_chemical_formula_sum   'Sr5 Al3 Ga2 Pb1'
_cell_volume   311.15608392
_cell_formula_units_Z   1
loop_
 _symmetry_equiv_pos_site_id
 _symmetry_equiv_pos_as_xyz
  1  'x, y, z'
loop_
 _atom_site_type_symbol
 _atom_site_label
 _atom_site_symmetry_multiplicity
 _atom_site_fract_x
 _atom_site_fract_y
 _atom_site_fract_z
 _atom_site_occupancy
  Sr  Sr0  1  0.00000000  0.00000000  0.67412929  1
  Sr  Sr1  1  0.66666700  0.33333300  0.80207855  1
  Sr  Sr2  1  0.66666700  0.33333300  0.19792145  1
  Sr  Sr3  1  0.33333300  0.66666700  0.00000000  1
  Sr  Sr4  1  0.00000000  0.00000000  0.32587071  1
  Al  Al0  1  0.50524491  0.49475509  0.50000000  1
  Al  Al1  1  0.98950919  0.49475509  0.50000000  1
  Al  Al2  1  0.50524491  0.01049081  0.50000000  1
  Ga  Ga0  1  0.33333300  0.66666700  0.69246418  1
  Ga  Ga1  1  0.33333300  0.66666700  0.30753582  1
  Pb  Pb0  1  0.00000000  0.00000000  0.00000000  1
loop_
_geom_bond_atom_site_label_1
_geom_bond_atom_site_label_2
_geom_bond_distance
_geom_bond_site_symmetry_2
Al0 Ga0 2.692609 1_555
Al0 Ga1 2.692609 1_555
Al0 Al2 2.798106 1_555
Al0 Al1 2.798106 1_555
Al0 Al2 2.979949 1_565
Al0 Al1 2.979950 1_455
Al0 Sr0 3.443965 1_665
Al0 Sr4 3.443965 1_665
Al0 Sr0 3.443965 1_555
Al0 Sr4 3.443965 1_555
Al0 Sr2 3.630178 1_555
Al0 Sr1 3.630178 1_555
Al1 Ga0 2.692609 1_655
Al1 Ga1 2.692609 1_655
Al1 Al2 2.798106 1_555
Al1 Al2 2.979950 1_665
Al1 Sr0 3.443962 1_665
Al1 Sr4 3.443962 1_665
Al1 Sr0 3.443967 1_655
Al1 Sr4 3.443967 1_655
Al1 Sr2 3.630174 1_555
Al1 Sr1 3.630174 1_555
Al2 Ga0 2.692609 1_545
Al2 Ga1 2.692609 1_545
Al2 Sr0 3.443963 1_555
Al2 Sr4 3.443963 1_555
Al2 Sr0 3.443968 1_655
Al2 Sr4 3.443968 1_655
Al2 Sr2 3.630174 1_555
Al2 Sr1 3.630174 1_555
Ga0 Sr3 3.309634 1_556
Ga0 Sr0 3.341789 1_565
Ga0 Sr0 3.341794 1_555
Ga0 Sr0 3.341795 1_665
Ga0 Sr1 3.538387 1_565
Ga0 Sr1 3.538388 1_455
Ga0 Sr1 3.538397 1_555
Ga1 Sr3 3.309634 1_555
Ga1 Sr4 3.341789 1_565
Ga1 Sr4 3.341794 1_555
Ga1 Sr4 3.341795 1_665
Ga1 Sr2 3.538387 1_565
Ga1 Sr2 3.538388 1_455
Ga1 Sr2 3.538397 1_555
Pb0 Sr3 3.335958 1_545
Pb0 Sr3 3.335964 1_555
Pb0 Sr3 3.335964 1_445
Pb0 Sr4 3.506950 1_555
Pb0 Sr0 3.506950 1_554
Pb0 Sr1 3.957962 1_454
Pb0 Sr2 3.957962 1_455
Pb0 Sr1 3.957967 1_444
Pb0 Sr2 3.957967 1_445
Pb0 Sr1 3.957967 1_554
Pb0 Sr2 3.957967 1_555
