# generated using pymatgen
data_Zr6Ti16Re5Ir2
_symmetry_space_group_name_H-M   'P 1'
_cell_length_a   8.96866792
_cell_length_b   8.96866811
_cell_length_c   8.99808372
_cell_angle_alpha   59.89144501
_cell_angle_beta   59.89144430
_cell_angle_gamma   60.21712061
_symmetry_Int_Tables_number   1
_chemical_formula_structural   Zr6Ti16Re5Ir2
_chemical_formula_sum   'Zr6 Ti16 Re5 Ir2'
_cell_volume   511.77796888
_cell_formula_units_Z   1
loop_
 _symmetry_equiv_pos_site_id
 _symmetry_equiv_pos_as_xyz
  1  'x, y, z'
loop_
 _atom_site_type_symbol
 _atom_site_label
 _atom_site_symmetry_multiplicity
 _atom_site_fract_x
 _atom_site_fract_y
 _atom_site_fract_z
 _atom_site_occupancy
  Zr  Zr0  1  0.69070165  0.69070165  0.30929835  1
  Zr  Zr1  1  0.30679693  0.69320307  0.30679693  1
  Zr  Zr2  1  0.69320307  0.30679693  0.30679693  1
  Zr  Zr3  1  0.30929835  0.30929835  0.69070165  1
  Zr  Zr4  1  0.69320307  0.30679693  0.69320307  1
  Zr  Zr5  1  0.30679693  0.69320307  0.69320307  1
  Ti  Ti0  1  0.88133512  0.88133512  0.35179942  1
  Ti  Ti1  1  0.88553234  0.35179942  0.88133512  1
  Ti  Ti2  1  0.35179942  0.88553234  0.88133512  1
  Ti  Ti3  1  0.88133512  0.88133512  0.88553234  1
  Ti  Ti4  1  0.11866488  0.11866488  0.64820058  1
  Ti  Ti5  1  0.11446766  0.64820058  0.11866488  1
  Ti  Ti6  1  0.64820058  0.11446766  0.11866488  1
  Ti  Ti7  1  0.11866488  0.11866488  0.11446766  1
  Ti  Ti8  1  0.66763700  0.66763700  0.99474465  1
  Ti  Ti9  1  0.66997835  0.99474465  0.66763700  1
  Ti  Ti10  1  0.99474465  0.66997835  0.66763700  1
  Ti  Ti11  1  0.66763700  0.66763700  0.66997835  1
  Ti  Ti12  1  0.33236300  0.33236300  0.00525535  1
  Ti  Ti13  1  0.33002165  0.00525535  0.33236300  1
  Ti  Ti14  1  0.00525535  0.33002165  0.33236300  1
  Ti  Ti15  1  0.33236300  0.33236300  0.33002165  1
  Re  Re0  1  0.00000000  0.00000000  0.00000000  1
  Re  Re1  1  0.50000000  0.00000000  0.50000000  1
  Re  Re2  1  0.00000000  0.50000000  0.50000000  1
  Re  Re3  1  0.00000000  0.50000000  0.00000000  1
  Re  Re4  1  0.50000000  0.00000000  0.00000000  1
  Ir  Ir0  1  0.00000000  0.00000000  0.50000000  1
  Ir  Ir1  1  0.50000000  0.50000000  0.00000000  1
loop_
_geom_bond_atom_site_label_1
_geom_bond_atom_site_label_2
_geom_bond_distance
_geom_bond_site_symmetry_2
Zr0 Zr5 3.443334 1_555
Zr0 Zr1 3.443334 1_555
Zr0 Zr4 3.443335 1_555
Zr0 Zr2 3.443335 1_555
Zr1 Zr3 3.443335 1_555
Zr1 Zr5 3.476915 1_555
Zr1 Zr2 3.476915 1_555
Zr2 Zr3 3.443334 1_555
Zr2 Zr4 3.476915 1_555
Zr3 Zr4 3.443334 1_555
Zr3 Zr5 3.443335 1_555
Zr4 Zr5 3.476915 1_555
Ti0 Ti11 2.860451 1_555
Ti0 Ti9 2.878246 1_555
Ti0 Ti10 2.878246 1_555
Ti0 Ti6 2.966687 1_565
Ti0 Ti5 2.966687 1_655
Ti0 Ti7 3.000293 1_665
Ti0 Zr0 3.195081 1_555
Ti0 Zr1 3.211012 1_655
Ti0 Zr2 3.211012 1_565
Ti1 Ti10 2.860429 1_555
Ti1 Ti8 2.878247 1_555
Ti1 Ti11 2.878270 1_555
Ti1 Ti7 2.966661 1_656
Ti1 Ti4 2.966687 1_655
Ti1 Ti6 3.000318 1_556
Ti1 Zr3 3.195066 1_655
Ti1 Zr2 3.211012 1_556
Ti1 Zr4 3.211027 1_555
Ti2 Ti9 2.860429 1_555
Ti2 Ti8 2.878247 1_555
Ti2 Ti7 2.966661 1_566
Ti2 Ti4 2.966687 1_565
Ti2 Ti5 3.000318 1_556
Ti2 Zr3 3.195066 1_565
Ti2 Zr1 3.211012 1_556
Ti2 Zr5 3.211027 1_555
Ti3 Ti8 2.860466 1_555
Ti3 Ti9 2.878284 1_555
Ti3 Ti6 2.966661 1_566
Ti3 Ti5 2.966661 1_656
Ti3 Ti4 3.000293 1_665
Ti3 Zr0 3.195069 1_556
Ti3 Zr5 3.211016 1_655
Ti3 Zr4 3.211016 1_565
Ti4 Zr3 3.195081 1_555
Ti4 Zr4 3.211012 1_455
Ti4 Zr5 3.211012 1_545
Ti5 Zr0 3.195066 1_455
Ti5 Zr5 3.211012 1_554
Ti5 Zr1 3.211027 1_555
Ti6 Zr0 3.195066 1_545
Ti6 Zr4 3.211012 1_554
Ti6 Zr2 3.211027 1_555
Ti7 Zr3 3.195069 1_554
Ti7 Zr2 3.211016 1_455
Ti7 Zr1 3.211016 1_545
Ti8 Ti9 2.933657 1_555
Ti8 Zr1 3.033486 1_556
Ti8 Zr2 3.033486 1_556
Ti8 Zr0 3.051879 1_556
Ti9 Zr2 3.033486 1_565
Ti9 Zr4 3.033501 1_565
Ti9 Zr3 3.051864 1_565
Ti10 Ti3 2.878284 1_555
Ti10 Ti9 2.922275 1_555
Ti10 Ti8 2.933657 1_555
Ti10 Ti11 2.933657 1_555
Ti10 Zr1 3.033485 1_655
Ti10 Zr5 3.033501 1_655
Ti10 Zr3 3.051864 1_655
Ti11 Ti2 2.878270 1_555
Ti11 Ti8 2.922274 1_555
Ti11 Ti9 2.933657 1_555
Ti11 Zr5 3.033474 1_555
Ti11 Zr4 3.033474 1_555
Ti11 Zr0 3.051852 1_555
Ti12 Ti7 2.860466 1_555
Ti12 Ti6 2.878247 1_555
Ti12 Ti5 2.878247 1_555
Ti12 Ti15 2.922274 1_555
Ti12 Ti14 2.933657 1_555
Ti12 Ti13 2.933657 1_555
Ti12 Zr4 3.033486 1_554
Ti12 Zr5 3.033486 1_554
Ti12 Zr3 3.051879 1_554
Ti13 Ti6 2.860429 1_555
Ti13 Ti4 2.878246 1_555
Ti13 Ti7 2.878284 1_555
Ti13 Ti14 2.922275 1_555
Ti13 Ti15 2.933657 1_555
Ti13 Zr5 3.033486 1_545
Ti13 Zr1 3.033501 1_545
Ti13 Zr0 3.051864 1_545
Ti14 Ti5 2.860429 1_555
Ti14 Ti4 2.878246 1_555
Ti14 Ti7 2.878284 1_555
Ti14 Ti15 2.933657 1_555
Ti14 Zr4 3.033485 1_455
Ti14 Zr2 3.033501 1_455
Ti14 Zr0 3.051864 1_455
Ti15 Ti4 2.860451 1_555
Ti15 Ti6 2.878270 1_555
Ti15 Ti5 2.878270 1_555
Ti15 Zr2 3.033474 1_555
Ti15 Zr1 3.033474 1_555
Ti15 Zr3 3.051852 1_555
Re0 Ti7 2.578949 1_555
Re0 Ti3 2.578949 1_444
Re0 Ti0 2.578964 1_445
Re0 Ti4 2.578964 1_554
Re0 Ti2 2.578964 1_544
Re0 Ti6 2.578964 1_455
Re0 Ti5 2.578964 1_545
Re0 Ti1 2.578964 1_454
Re1 Ti9 2.601142 1_545
Re1 Ti13 2.601142 1_555
Re1 Ti15 2.601157 1_555
Re1 Ti11 2.601157 1_545
Re1 Ti2 2.800008 1_545
Re1 Ti6 2.800008 1_555
Re1 Ti0 2.800008 1_545
Re1 Ti4 2.800008 1_555
Re1 Zr2 3.242057 1_555
Re1 Zr5 3.242057 1_545
Re1 Zr3 3.268433 1_555
Re1 Zr0 3.268433 1_545
Re2 Ti10 2.601142 1_455
Re2 Ti14 2.601142 1_555
Re2 Ti15 2.601157 1_555
Re2 Ti11 2.601157 1_455
Re2 Ti1 2.800008 1_455
Re2 Ti5 2.800008 1_555
Re2 Ti0 2.800008 1_455
Re2 Ti4 2.800008 1_555
Re2 Zr1 3.242057 1_555
Re2 Zr4 3.242057 1_455
Re2 Zr3 3.268433 1_555
Re2 Zr0 3.268433 1_455
Re3 Ti14 2.601165 1_555
Re3 Ti10 2.601165 1_454
Re3 Ti12 2.601165 1_555
Re3 Ti8 2.601165 1_454
Re3 Ti5 2.799994 1_555
Re3 Ti1 2.799994 1_454
Re3 Ti3 2.800009 1_454
Re3 Ti7 2.800009 1_555
Re3 Zr5 3.242057 1_554
Re3 Zr2 3.242057 1_455
Re3 Zr0 3.268433 1_455
Re3 Zr3 3.268433 1_554
Re4 Ti13 2.601165 1_555
Re4 Ti9 2.601165 1_544
Re4 Ti12 2.601165 1_555
Re4 Ti8 2.601165 1_544
Re4 Ti6 2.799994 1_555
Re4 Ti2 2.799994 1_544
Re4 Ti3 2.800009 1_544
Re4 Ti7 2.800009 1_555
Re4 Zr4 3.242057 1_554
Re4 Zr1 3.242057 1_545
Re4 Zr0 3.268433 1_545
Re4 Zr3 3.268433 1_554
Ir0 Ti13 2.574142 1_555
Ir0 Ti9 2.574142 1_445
Ir0 Ti14 2.574142 1_555
Ir0 Ti10 2.574142 1_445
Ir0 Ti4 2.831356 1_555
Ir0 Ti0 2.831356 1_445
Ir0 Ti3 2.831371 1_445
Ir0 Ti7 2.831371 1_555
Ir0 Zr4 3.262371 1_455
Ir0 Zr5 3.262371 1_545
Ir0 Zr1 3.262371 1_545
Ir0 Zr2 3.262371 1_455
Ir1 Ti8 2.574118 1_554
Ir1 Ti12 2.574118 1_555
Ir1 Ti11 2.574134 1_554
Ir1 Ti15 2.574134 1_555
Ir1 Ti5 2.831370 1_555
Ir1 Ti1 2.831370 1_554
Ir1 Ti2 2.831370 1_554
Ir1 Ti6 2.831370 1_555
Ir1 Zr2 3.262371 1_555
Ir1 Zr1 3.262371 1_555
Ir1 Zr4 3.262371 1_554
Ir1 Zr5 3.262371 1_554
