# generated using pymatgen
data_Y3Si2(PPd5)4
_symmetry_space_group_name_H-M   'P 1'
_cell_length_a   8.62377106
_cell_length_b   8.62799605
_cell_length_c   8.62799526
_cell_angle_alpha   59.96760681
_cell_angle_beta   60.01619337
_cell_angle_gamma   60.01619710
_symmetry_Int_Tables_number   1
_chemical_formula_structural   Y3Si2(PPd5)4
_chemical_formula_sum   'Y3 Si2 P4 Pd20'
_cell_volume   453.94353902
_cell_formula_units_Z   1
loop_
 _symmetry_equiv_pos_site_id
 _symmetry_equiv_pos_as_xyz
  1  'x, y, z'
loop_
 _atom_site_type_symbol
 _atom_site_label
 _atom_site_symmetry_multiplicity
 _atom_site_fract_x
 _atom_site_fract_y
 _atom_site_fract_z
 _atom_site_occupancy
  Y  Y0  1  0.25000000  0.25000000  0.25000000  1
  Y  Y1  1  0.75000000  0.75000000  0.75000000  1
  Y  Y2  1  0.00000000  0.00000000  0.00000000  1
  Si  Si0  1  0.73547435  0.26452565  0.26452565  1
  Si  Si1  1  0.26452565  0.73547435  0.73547435  1
  P  P0  1  0.26362354  0.73637646  0.26362354  1
  P  P1  1  0.73637646  0.26362354  0.73637646  1
  P  P2  1  0.26362354  0.26362354  0.73637646  1
  P  P3  1  0.73637646  0.73637646  0.26362354  1
  Pd  Pd0  1  0.38333496  0.38527876  0.38527876  1
  Pd  Pd1  1  0.61666504  0.61472124  0.61472124  1
  Pd  Pd2  1  0.38527876  0.38333496  0.84610951  1
  Pd  Pd3  1  0.38527876  0.84610951  0.38333496  1
  Pd  Pd4  1  0.61472124  0.61666504  0.15389049  1
  Pd  Pd5  1  0.61472124  0.15389049  0.61666504  1
  Pd  Pd6  1  0.84610951  0.38527876  0.38527876  1
  Pd  Pd7  1  0.15389049  0.61472124  0.61472124  1
  Pd  Pd8  1  0.34540028  1.00000000  0.00000000  1
  Pd  Pd9  1  0.65459972  0.00000000  1.00000000  1
  Pd  Pd10  1  1.00000000  0.34540028  0.65459972  1
  Pd  Pd11  1  0.00000000  0.65459972  0.34540028  1
  Pd  Pd12  1  0.00167665  0.34677037  0.99832335  1
  Pd  Pd13  1  0.65322963  0.99832335  0.34677037  1
  Pd  Pd14  1  0.99832335  0.65322963  0.00167665  1
  Pd  Pd15  1  0.34677037  0.00167665  0.65322963  1
  Pd  Pd16  1  0.00167665  0.99832335  0.34677037  1
  Pd  Pd17  1  0.99832335  0.00167665  0.65322963  1
  Pd  Pd18  1  0.65322963  0.34677037  0.99832335  1
  Pd  Pd19  1  0.34677037  0.65322963  0.00167665  1
loop_
_geom_bond_atom_site_label_1
_geom_bond_atom_site_label_2
_geom_bond_distance
_geom_bond_site_symmetry_2
P0 Pd19 2.371871 1_555
P0 Pd16 2.371871 1_555
P0 Pd8 2.380298 1_555
P0 Pd11 2.380298 1_555
P0 Pd7 2.473568 1_555
P0 Pd4 2.473568 1_555
P0 Pd0 2.473568 1_555
P0 Pd3 2.473582 1_555
P0 Y2 3.215114 1_565
P1 Pd18 2.371871 1_555
P1 Pd17 2.371871 1_555
P1 Pd9 2.380298 1_555
P1 Pd10 2.380298 1_555
P1 Pd6 2.473568 1_555
P1 Pd2 2.473568 1_555
P1 Pd1 2.473568 1_555
P1 Pd5 2.473582 1_555
P1 Y2 3.215114 1_656
P2 Pd12 2.371871 1_555
P2 Pd15 2.371871 1_555
P2 Pd8 2.380298 1_546
P2 Pd10 2.380298 1_455
P2 Pd5 2.473568 1_555
P2 Pd0 2.473568 1_555
P2 Pd7 2.473568 1_555
P2 Pd2 2.473582 1_555
P2 Y2 3.215114 1_556
P3 Pd14 2.371871 1_555
P3 Pd13 2.371871 1_555
P3 Pd9 2.380298 1_564
P3 Pd11 2.380298 1_655
P3 Pd3 2.473568 1_555
P3 Pd1 2.473568 1_555
P3 Pd6 2.473568 1_555
P3 Pd4 2.473582 1_555
P3 Y2 3.215114 1_665
Pd0 Si0 2.480881 1_555
Pd0 Y0 2.844874 1_555
Pd0 Pd10 3.017432 1_455
Pd0 Pd11 3.017432 1_555
Pd1 Si1 2.480881 1_555
Pd1 Y1 2.844874 1_555
Pd1 Pd11 3.017432 1_655
Pd1 Pd10 3.017432 1_555
Pd2 Si1 2.480880 1_555
Pd2 Y0 2.844860 1_556
Pd2 Pd9 3.017427 1_555
Pd2 Pd8 3.017435 1_546
Pd3 Si1 2.480880 1_555
Pd3 Y0 2.844860 1_565
Pd3 Pd9 3.017427 1_564
Pd3 Pd8 3.017434 1_555
Pd4 Si0 2.480880 1_555
Pd4 Y1 2.844860 1_554
Pd4 Pd8 3.017427 1_555
Pd4 Pd9 3.017435 1_564
Pd5 Si0 2.480880 1_555
Pd5 Y1 2.844860 1_545
Pd5 Pd8 3.017427 1_546
Pd5 Pd9 3.017434 1_555
Pd6 Si0 2.480895 1_555
Pd6 Y0 2.844860 1_655
Pd7 Si1 2.480895 1_555
Pd7 Y1 2.844860 1_455
Pd8 Pd9 2.666465 1_564
Pd8 Y2 2.978653 1_565
Pd8 Y1 3.330452 1_554
Pd8 Y0 3.330452 1_565
Pd9 Y2 2.978653 1_656
Pd9 Y0 3.330452 1_556
Pd9 Y1 3.330452 1_545
Pd10 Pd11 2.666465 1_655
Pd10 Y2 2.978653 1_656
Pd10 Pd18 2.978846 1_555
Pd10 Pd12 2.978846 1_655
Pd10 Pd15 2.978847 1_655
Pd10 Pd17 2.978847 1_555
Pd10 Pd6 3.017418 1_555
Pd10 Pd7 3.017419 1_655
Pd10 Y0 3.330451 1_655
Pd10 Y1 3.330452 1_555
Pd11 Y2 2.978653 1_565
Pd11 Pd19 2.978846 1_555
Pd11 Pd14 2.978846 1_455
Pd11 Pd13 2.978847 1_455
Pd11 Pd16 2.978847 1_555
Pd11 Pd7 3.017418 1_555
Pd11 Pd6 3.017419 1_455
Pd11 Y1 3.330451 1_455
Pd11 Y0 3.330452 1_555
Pd12 Si0 2.403249 1_456
Pd12 Pd8 2.978847 1_546
Pd12 Y2 2.991954 1_556
Pd13 Si0 2.403249 1_565
Pd13 Pd9 2.978846 1_564
Pd13 Y2 2.991954 1_665
Pd14 Si1 2.403249 1_654
Pd14 Pd9 2.978847 1_564
Pd14 Y2 2.991954 1_665
Pd15 Si1 2.403249 1_545
Pd15 Pd8 2.978846 1_546
Pd15 Y2 2.991954 1_556
Pd16 Si0 2.403249 1_465
Pd16 Pd8 2.978846 1_555
Pd16 Y2 2.991954 1_565
Pd17 Si1 2.403249 1_645
Pd17 Pd9 2.978846 1_555
Pd17 Y2 2.991954 1_656
Pd18 Si0 2.403249 1_556
Pd18 Pd9 2.978847 1_555
Pd18 Y2 2.991954 1_656
Pd19 Si1 2.403249 1_554
Pd19 Pd8 2.978847 1_555
Pd19 Y2 2.991954 1_565
