# generated using pymatgen
data_Ba3LuBiS6
_symmetry_space_group_name_H-M   'P 1'
_cell_length_a   8.52401487
_cell_length_b   8.52401435
_cell_length_c   8.52401519
_cell_angle_alpha   92.03085046
_cell_angle_beta   92.03085000
_cell_angle_gamma   92.03086142
_symmetry_Int_Tables_number   1
_chemical_formula_structural   Ba3LuBiS6
_chemical_formula_sum   'Ba6 Lu2 Bi2 S12'
_cell_volume   618.14952590
_cell_formula_units_Z   2
loop_
 _symmetry_equiv_pos_site_id
 _symmetry_equiv_pos_as_xyz
  1  'x, y, z'
loop_
 _atom_site_type_symbol
 _atom_site_label
 _atom_site_symmetry_multiplicity
 _atom_site_fract_x
 _atom_site_fract_y
 _atom_site_fract_z
 _atom_site_occupancy
  Ba  Ba0  1  0.37364198  0.75000000  0.12635802  1
  Ba  Ba1  1  0.12635802  0.37364198  0.75000000  1
  Ba  Ba2  1  0.75000000  0.12635802  0.37364198  1
  Ba  Ba3  1  0.62635802  0.25000000  0.87364198  1
  Ba  Ba4  1  0.87364198  0.62635802  0.25000000  1
  Ba  Ba5  1  0.25000000  0.87364198  0.62635802  1
  Lu  Lu0  1  0.50000000  0.50000000  0.50000000  1
  Lu  Lu1  1  0.00000000  0.00000000  0.00000000  1
  Bi  Bi0  1  0.25000000  0.25000000  0.25000000  1
  Bi  Bi1  1  0.75000000  0.75000000  0.75000000  1
  S  S0  1  0.54406971  0.41143137  0.20190728  1
  S  S1  1  0.20190728  0.54406971  0.41143137  1
  S  S2  1  0.41143137  0.20190728  0.54406971  1
  S  S3  1  0.95593029  0.29809272  0.08856863  1
  S  S4  1  0.08856863  0.95593029  0.29809272  1
  S  S5  1  0.29809272  0.08856863  0.95593029  1
  S  S6  1  0.45593029  0.58856863  0.79809272  1
  S  S7  1  0.79809272  0.45593029  0.58856863  1
  S  S8  1  0.58856863  0.79809272  0.45593029  1
  S  S9  1  0.04406971  0.70190728  0.91143137  1
  S  S10  1  0.70190728  0.91143137  0.04406971  1
  S  S11  1  0.91143137  0.04406971  0.70190728  1
loop_
_geom_bond_atom_site_label_1
_geom_bond_atom_site_label_2
_geom_bond_distance
_geom_bond_site_symmetry_2
Ba0 S10 3.185858 1_555
Ba0 S6 3.185858 1_554
Ba0 S9 3.304064 1_554
Ba0 S8 3.304064 1_555
Ba0 S5 3.349102 1_564
Ba0 S0 3.349102 1_555
Ba0 S1 3.391347 1_555
Ba0 S4 3.391347 1_555
Ba1 S9 3.185858 1_555
Ba1 S7 3.185858 1_455
Ba1 S11 3.304063 1_455
Ba1 S6 3.304063 1_555
Ba1 S1 3.349102 1_555
Ba1 S3 3.349102 1_456
Ba1 S5 3.391347 1_555
Ba1 S2 3.391347 1_555
Ba2 S8 3.185858 1_545
Ba2 S11 3.185858 1_555
Ba2 S7 3.304064 1_555
Ba2 S10 3.304064 1_545
Ba2 S2 3.349102 1_555
Ba2 S4 3.349102 1_645
Ba2 S3 3.391347 1_555
Ba2 S0 3.391347 1_555
Ba3 S5 3.185858 1_555
Ba3 S0 3.185858 1_556
Ba3 S3 3.304064 1_556
Ba3 S2 3.304064 1_555
Ba3 S10 3.349102 1_546
Ba3 S6 3.349102 1_555
Ba3 S7 3.391347 1_555
Ba3 S11 3.391347 1_555
Ba4 S3 3.185858 1_555
Ba4 S1 3.185858 1_655
Ba4 S4 3.304063 1_655
Ba4 S0 3.304063 1_555
Ba4 S7 3.349102 1_555
Ba4 S9 3.349102 1_654
Ba4 S10 3.391347 1_555
Ba4 S8 3.391347 1_555
Ba5 S2 3.185858 1_565
Ba5 S4 3.185858 1_555
Ba5 S1 3.304064 1_555
Ba5 S5 3.304064 1_565
Ba5 S8 3.349102 1_555
Ba5 S11 3.349102 1_465
Ba5 S9 3.391347 1_555
Ba5 S6 3.391347 1_555
Lu0 S8 2.668198 1_555
Lu0 S2 2.668198 1_555
Lu0 S7 2.668198 1_555
Lu0 S1 2.668198 1_555
Lu0 S6 2.668198 1_555
Lu0 S0 2.668198 1_555
Lu1 S5 2.668198 1_554
Lu1 S10 2.668198 1_445
Lu1 S3 2.668198 1_455
Lu1 S9 2.668198 1_544
Lu1 S4 2.668198 1_545
Lu1 S11 2.668198 1_454
Bi0 S4 2.865869 1_545
Bi0 S0 2.865870 1_555
Bi0 S1 2.865870 1_555
Bi0 S5 2.865870 1_554
Bi0 S3 2.865870 1_455
Bi0 S2 2.865870 1_555
Bi1 S11 2.865869 1_565
Bi1 S6 2.865870 1_555
Bi1 S7 2.865870 1_555
Bi1 S10 2.865870 1_556
Bi1 S9 2.865870 1_655
Bi1 S8 2.865870 1_555
