# generated using pymatgen
data_RbBaMoN3
_symmetry_space_group_name_H-M   'P 1'
_cell_length_a   6.78863213
_cell_length_b   6.78863134
_cell_length_c   13.33993137
_cell_angle_alpha   90.00000000
_cell_angle_beta   90.00000000
_cell_angle_gamma   126.40306152
_symmetry_Int_Tables_number   1
_chemical_formula_structural   RbBaMoN3
_chemical_formula_sum   'Rb4 Ba4 Mo4 N12'
_cell_volume   494.81125055
_cell_formula_units_Z   4
loop_
 _symmetry_equiv_pos_site_id
 _symmetry_equiv_pos_as_xyz
  1  'x, y, z'
loop_
 _atom_site_type_symbol
 _atom_site_label
 _atom_site_symmetry_multiplicity
 _atom_site_fract_x
 _atom_site_fract_y
 _atom_site_fract_z
 _atom_site_occupancy
  Rb  Rb0  1  0.54291008  0.45708992  0.63953695  1
  Rb  Rb1  1  0.45708992  0.54291008  0.36046305  1
  Rb  Rb2  1  0.95708992  0.04291008  0.13953695  1
  Rb  Rb3  1  0.04291008  0.95708992  0.86046305  1
  Ba  Ba0  1  0.85534650  0.14465350  0.58212817  1
  Ba  Ba1  1  0.14465350  0.85534650  0.41787183  1
  Ba  Ba2  1  0.64465350  0.35534650  0.08212817  1
  Ba  Ba3  1  0.35534650  0.64465350  0.91787183  1
  Mo  Mo0  1  0.72580326  0.27419674  0.83247744  1
  Mo  Mo1  1  0.27419674  0.72580326  0.16752256  1
  Mo  Mo2  1  0.77419674  0.22580326  0.33247744  1
  Mo  Mo3  1  0.22580326  0.77419674  0.66752256  1
  N  N0  1  0.81336208  0.18663792  0.94100070  1
  N  N1  1  0.18663792  0.81336208  0.05899930  1
  N  N2  1  0.68663792  0.31336208  0.44100070  1
  N  N3  1  0.31336208  0.68663792  0.55899930  1
  N  N4  1  0.58508714  0.41491286  0.87639916  1
  N  N5  1  0.41491286  0.58508714  0.12360084  1
  N  N6  1  0.91491286  0.08508714  0.37639916  1
  N  N7  1  0.08508714  0.91491286  0.62360084  1
  N  N8  1  0.50996615  0.99003385  0.75000000  1
  N  N9  1  0.99003385  0.50996615  0.25000000  1
  N  N10  1  0.49003385  0.00996615  0.25000000  1
  N  N11  1  0.00996615  0.49003385  0.75000000  1
loop_
_geom_bond_atom_site_label_1
_geom_bond_atom_site_label_2
_geom_bond_distance
_geom_bond_site_symmetry_2
Ba0 N2 2.779322 1_555
Ba0 N6 2.837765 1_555
Ba0 N7 2.838669 1_645
Ba0 N11 2.948388 1_655
Ba0 N8 2.948388 1_545
Ba0 N3 3.117987 1_655
Ba0 N3 3.117987 1_545
Ba1 N3 2.779322 1_555
Ba1 N7 2.837765 1_555
Ba1 N6 2.838669 1_465
Ba1 N9 2.948388 1_455
Ba1 N10 2.948388 1_565
Ba1 N2 3.117987 1_455
Ba1 N2 3.117987 1_565
Ba2 N0 2.779322 1_554
Ba2 N4 2.837765 1_554
Ba2 N5 2.838669 1_555
Ba2 N10 2.948388 1_555
Ba2 N9 2.948388 1_555
Ba2 N1 3.117987 1_545
Ba2 N1 3.117987 1_655
Ba3 N1 2.779322 1_556
Ba3 N5 2.837765 1_556
Ba3 N4 2.838669 1_555
Ba3 N8 2.948388 1_555
Ba3 N11 2.948388 1_555
Ba3 N0 3.117987 1_565
Ba3 N0 3.117987 1_455
Mo0 N0 1.794940 1_555
Mo0 N4 1.803189 1_555
Mo0 N8 1.929738 1_545
Mo0 N11 1.929738 1_655
Mo1 N1 1.794940 1_555
Mo1 N5 1.803189 1_555
Mo1 N10 1.929738 1_565
Mo1 N9 1.929738 1_455
Mo2 N2 1.794940 1_555
Mo2 N6 1.803189 1_555
Mo2 N9 1.929738 1_555
Mo2 N10 1.929738 1_555
Mo3 N3 1.794940 1_555
Mo3 N7 1.803189 1_555
Mo3 N11 1.929738 1_555
Mo3 N8 1.929738 1_555
N0 Rb3 2.982153 1_645
N0 Rb2 3.169914 1_556
N1 Rb2 2.982153 1_465
N1 Rb3 3.169914 1_554
N2 Rb1 2.982153 1_555
N2 Rb0 3.169914 1_555
N3 Rb0 2.982153 1_555
N3 Rb1 3.169914 1_555
N4 Rb3 3.110341 1_655
N4 Rb3 3.110341 1_545
N4 Rb0 3.200802 1_555
N5 Rb2 3.110341 1_455
N5 Rb2 3.110341 1_565
N5 Rb1 3.200802 1_555
N6 Rb1 3.110341 1_545
N6 Rb1 3.110341 1_655
N6 Rb2 3.200802 1_555
N7 Rb0 3.110341 1_565
N7 Rb0 3.110341 1_455
N7 Rb3 3.200802 1_555
N8 Rb0 3.381262 1_565
N8 Rb3 3.381262 1_555
N9 Rb2 3.381262 1_555
N9 Rb1 3.381262 1_655
N10 Rb1 3.381262 1_545
N10 Rb2 3.381262 1_555
N11 Rb3 3.381262 1_555
N11 Rb0 3.381262 1_455
