# generated using pymatgen
data_Sr4Mo(N2Cl)2
_symmetry_space_group_name_H-M   'P 1'
_cell_length_a   5.93986612
_cell_length_b   7.99685422
_cell_length_c   10.27899694
_cell_angle_alpha   81.68853450
_cell_angle_beta   90.00000000
_cell_angle_gamma   90.00000000
_symmetry_Int_Tables_number   1
_chemical_formula_structural   Sr4Mo(N2Cl)2
_chemical_formula_sum   'Sr8 Mo2 N8 Cl4'
_cell_volume   483.12665821
_cell_formula_units_Z   2
loop_
 _symmetry_equiv_pos_site_id
 _symmetry_equiv_pos_as_xyz
  1  'x, y, z'
loop_
 _atom_site_type_symbol
 _atom_site_label
 _atom_site_symmetry_multiplicity
 _atom_site_fract_x
 _atom_site_fract_y
 _atom_site_fract_z
 _atom_site_occupancy
  Sr  Sr0  1  0.75000000  0.28580036  0.29701533  1
  Sr  Sr1  1  0.75000000  0.00239614  0.62348332  1
  Sr  Sr2  1  0.75000000  0.45082490  0.62156216  1
  Sr  Sr3  1  0.75000000  0.81936871  0.08247528  1
  Sr  Sr4  1  0.25000000  0.99760386  0.37651668  1
  Sr  Sr5  1  0.25000000  0.54917510  0.37843784  1
  Sr  Sr6  1  0.25000000  0.18063129  0.91752472  1
  Sr  Sr7  1  0.25000000  0.71419964  0.70298467  1
  Mo  Mo0  1  0.75000000  0.77059309  0.39051103  1
  Mo  Mo1  1  0.25000000  0.22940691  0.60948897  1
  N  N0  1  0.25000000  0.02591691  0.72030800  1
  N  N1  1  0.99910724  0.24859942  0.49971998  1
  N  N2  1  0.49910724  0.75140058  0.50028002  1
  N  N3  1  0.00089276  0.75140058  0.50028002  1
  N  N4  1  0.75000000  0.60390396  0.28246974  1
  N  N5  1  0.75000000  0.97408309  0.27969200  1
  N  N6  1  0.50089276  0.24859942  0.49971998  1
  N  N7  1  0.25000000  0.39609604  0.71753026  1
  Cl  Cl0  1  0.25000000  0.31641896  0.17091301  1
  Cl  Cl1  1  0.75000000  0.68358104  0.82908699  1
  Cl  Cl2  1  0.25000000  0.84143381  0.09956298  1
  Cl  Cl3  1  0.75000000  0.15856619  0.90043702  1
loop_
_geom_bond_atom_site_label_1
_geom_bond_atom_site_label_2
_geom_bond_distance
_geom_bond_site_symmetry_2
Mo0 N5 1.846538 1_555
Mo0 N4 1.854232 1_555
Mo0 N3 1.862119 1_655
Mo0 N2 1.862119 1_555
Mo1 N0 1.846538 1_555
Mo1 N7 1.854232 1_555
Mo1 N6 1.862119 1_555
Mo1 N1 1.862119 1_455
N0 Sr6 2.522964 1_555
N0 Sr7 2.524654 1_545
N0 Sr1 3.146513 1_455
N0 Sr1 3.146513 1_555
N1 Sr0 2.537734 1_555
N1 Sr2 2.637941 1_555
N1 Sr1 2.638191 1_555
N1 Sr4 2.930584 1_645
N1 Sr5 2.947256 1_655
N2 Sr7 2.537734 1_555
N2 Sr5 2.637941 1_555
N2 Sr4 2.638191 1_555
N2 Sr1 2.930584 1_565
N2 Sr2 2.947256 1_555
N3 Sr7 2.537734 1_555
N3 Sr5 2.637941 1_555
N3 Sr4 2.638191 1_555
N3 Sr1 2.930584 1_465
N3 Sr2 2.947256 1_455
N4 Sr3 2.484127 1_555
N4 Sr0 2.526550 1_555
N4 Sr5 3.140116 1_555
N4 Sr5 3.140116 1_655
N5 Sr3 2.522964 1_555
N5 Sr0 2.524654 1_565
N5 Sr4 3.146513 1_555
N5 Sr4 3.146513 1_655
N6 Sr0 2.537734 1_555
N6 Sr2 2.637941 1_555
N6 Sr1 2.638191 1_555
N6 Sr4 2.930584 1_545
N6 Sr5 2.947256 1_555
N7 Sr6 2.484127 1_555
N7 Sr7 2.526550 1_555
N7 Sr2 3.140116 1_555
N7 Sr2 3.140116 1_455
Cl0 Sr6 2.963210 1_554
Cl0 Sr5 3.026997 1_555
Cl0 Sr4 3.067367 1_545
Cl0 Sr0 3.235560 1_455
Cl0 Sr0 3.235560 1_555
Cl1 Sr3 2.963210 1_556
Cl1 Sr2 3.026997 1_555
Cl1 Sr1 3.067367 1_565
Cl1 Sr7 3.235560 1_555
Cl1 Sr7 3.235560 1_655
Cl2 Sr3 2.981853 1_555
Cl2 Sr3 2.981853 1_455
Cl2 Sr6 3.064574 1_564
Cl2 Sr4 3.269838 1_555
Cl2 Sr5 3.426733 1_555
Cl3 Sr6 2.981853 1_655
Cl3 Sr6 2.981853 1_555
Cl3 Sr3 3.064574 1_546
Cl3 Sr1 3.269838 1_555
Cl3 Sr2 3.426733 1_555
