# generated using pymatgen
data_HfSn(As2O7)2
_symmetry_space_group_name_H-M   'P 1'
_cell_length_a   5.43905279
_cell_length_b   5.38058334
_cell_length_c   9.73221860
_cell_angle_alpha   81.98487368
_cell_angle_beta   80.46681271
_cell_angle_gamma   98.89681298
_symmetry_Int_Tables_number   1
_chemical_formula_structural   HfSn(As2O7)2
_chemical_formula_sum   'Hf1 Sn1 As4 O14'
_cell_volume   273.49272391
_cell_formula_units_Z   1
loop_
 _symmetry_equiv_pos_site_id
 _symmetry_equiv_pos_as_xyz
  1  'x, y, z'
loop_
 _atom_site_type_symbol
 _atom_site_label
 _atom_site_symmetry_multiplicity
 _atom_site_fract_x
 _atom_site_fract_y
 _atom_site_fract_z
 _atom_site_occupancy
  Hf  Hf0  1  0.00000000  0.00000000  0.50000000  1
  Sn  Sn0  1  0.00000000  0.00000000  0.00000000  1
  As  As0  1  0.17574702  0.44897958  0.19586190  1
  As  As1  1  0.43767252  0.17268420  0.70346012  1
  As  As2  1  0.56232748  0.82731580  0.29653988  1
  As  As3  1  0.82425298  0.55102042  0.80413810  1
  O  O0  1  0.07497037  0.71573494  0.14003486  1
  O  O1  1  0.76307775  0.73356735  0.92746428  1
  O  O2  1  0.29743464  0.96319465  0.85175166  1
  O  O3  1  0.01391524  0.70104129  0.65249080  1
  O  O4  1  0.47282555  0.53556812  0.24164199  1
  O  O5  1  0.70095619  0.08097635  0.63037585  1
  O  O6  1  0.74699110  0.76931477  0.41351129  1
  O  O7  1  0.25300890  0.23068523  0.58648871  1
  O  O8  1  0.23692225  0.26643265  0.07253572  1
  O  O9  1  0.70256536  0.03680535  0.14824834  1
  O  O10  1  0.92502963  0.28426506  0.85996514  1
  O  O11  1  0.98608476  0.29895871  0.34750920  1
  O  O12  1  0.29904381  0.91902365  0.36962415  1
  O  O13  1  0.52717445  0.46443188  0.75835801  1
loop_
_geom_bond_atom_site_label_1
_geom_bond_atom_site_label_2
_geom_bond_distance
_geom_bond_site_symmetry_2
Hf0 O5 2.033499 1_455
Hf0 O12 2.033499 1_545
Hf0 O11 2.050572 1_455
Hf0 O3 2.050572 1_545
Hf0 O7 2.071128 1_555
Hf0 O6 2.071128 1_445
As0 O0 1.667408 1_555
As0 O11 1.673268 1_455
As0 O8 1.677372 1_555
As0 O4 1.757828 1_555
As1 O7 1.666959 1_555
As1 O5 1.667067 1_555
As1 O2 1.688477 1_545
As1 O13 1.752224 1_555
As2 O6 1.666959 1_555
As2 O12 1.667067 1_555
As2 O9 1.688477 1_565
As2 O4 1.752224 1_555
As3 O10 1.667408 1_555
As3 O3 1.673268 1_655
As3 O1 1.677372 1_555
As3 O13 1.757828 1_555
O0 Sn0 2.039296 1_565
O1 Sn0 2.055762 1_666
O2 Sn0 2.035593 1_566
O8 Sn0 2.055762 1_555
O9 Sn0 2.035593 1_655
O10 Sn0 2.039296 1_656
