# generated using pymatgen
data_Cs7K(TiSe4)2
_symmetry_space_group_name_H-M   'P 1'
_cell_length_a   8.68721908
_cell_length_b   8.36261976
_cell_length_c   11.82754086
_cell_angle_alpha   82.11506211
_cell_angle_beta   74.07031856
_cell_angle_gamma   67.53845182
_symmetry_Int_Tables_number   1
_chemical_formula_structural   Cs7K(TiSe4)2
_chemical_formula_sum   'Cs7 K1 Ti2 Se8'
_cell_volume   763.06259009
_cell_formula_units_Z   1
loop_
 _symmetry_equiv_pos_site_id
 _symmetry_equiv_pos_as_xyz
  1  'x, y, z'
loop_
 _atom_site_type_symbol
 _atom_site_label
 _atom_site_symmetry_multiplicity
 _atom_site_fract_x
 _atom_site_fract_y
 _atom_site_fract_z
 _atom_site_occupancy
  Cs  Cs0  1  0.57218547  0.76812819  0.13826046  1
  Cs  Cs1  1  0.04892927  0.76468782  0.36305250  1
  Cs  Cs2  1  0.49539830  0.29232570  0.43266750  1
  Cs  Cs3  1  0.51558691  0.70110839  0.56460097  1
  Cs  Cs4  1  0.95717765  0.23238816  0.63855534  1
  Cs  Cs5  1  0.41336205  0.23015173  0.85981907  1
  Cs  Cs6  1  0.21813701  0.71423847  0.94626042  1
  K  K0  1  0.77854946  0.27557248  0.04619184  1
  Ti  Ti0  1  0.15824343  0.24033676  0.24579166  1
  Ti  Ti1  1  0.84174792  0.76469102  0.75641491  1
  Se  Se0  1  0.15153188  0.07382145  0.09957538  1
  Se  Se1  1  0.35217610  0.39429261  0.16480291  1
  Se  Se2  1  0.87069922  0.43353413  0.32910644  1
  Se  Se3  1  0.28131597  0.03441879  0.38843473  1
  Se  Se4  1  0.71624130  0.96338650  0.61175439  1
  Se  Se5  1  0.13516354  0.58355959  0.67347898  1
  Se  Se6  1  0.67382833  0.58579323  0.83784861  1
  Se  Se7  1  0.81973119  0.94756797  0.90338189  1
loop_
_geom_bond_atom_site_label_1
_geom_bond_atom_site_label_2
_geom_bond_distance
_geom_bond_site_symmetry_2
Cs0 Se7 3.554801 1_554
Cs0 Se3 3.674691 1_565
Cs0 Se0 3.681984 1_565
Cs0 Se6 3.803281 1_554
Cs0 Se2 3.947782 1_555
Cs0 Se1 4.182346 1_555
Cs1 Se4 3.573711 1_455
Cs1 Se3 3.640292 1_565
Cs1 Se2 3.761690 1_455
Cs1 Se1 3.794629 1_555
Cs1 Se0 3.900577 1_565
Cs1 Se5 3.931020 1_555
Cs2 Se3 3.506116 1_555
Cs2 Se4 3.511910 1_545
Cs2 Se1 3.595045 1_555
Cs2 Se2 3.725244 1_555
Cs2 Se5 3.876066 1_555
Cs3 Se4 3.457014 1_555
Cs3 Se3 3.556990 1_565
Cs3 Se5 3.653149 1_555
Cs3 Se6 3.719564 1_555
Cs3 Se2 3.741728 1_555
Cs4 Se3 3.553941 1_655
Cs4 Se6 3.676571 1_555
Cs4 Se4 3.701302 1_545
Cs4 Se7 3.870807 1_545
Cs4 Se5 3.916472 1_655
Cs4 Se2 3.955267 1_555
Cs5 Se7 3.549937 1_545
Cs5 Se0 3.555094 1_556
Cs5 Se4 3.685264 1_545
Cs5 Se1 3.863571 1_556
Cs5 Se5 3.887345 1_555
Cs6 Se7 3.402194 1_455
Cs6 Se0 3.500857 1_566
Cs6 Se1 3.545409 1_556
Cs6 Se6 3.579321 1_555
Cs6 Se5 3.868961 1_555
K0 Se0 3.224501 1_655
K0 Se7 3.270257 1_544
K0 Se6 3.362020 1_554
K0 Se1 3.375382 1_555
Se0 Ti0 2.389839 1_555
Se1 Ti0 2.417998 1_555
Se2 Ti0 2.413070 1_655
Se3 Ti0 2.396034 1_555
Se4 Ti1 2.395161 1_555
Se5 Ti1 2.416352 1_455
Se6 Ti1 2.407249 1_555
Se7 Ti1 2.391723 1_555
