# generated using pymatgen
data_K4BaTeO6
_symmetry_space_group_name_H-M   'P 1'
_cell_length_a   6.41336567
_cell_length_b   6.41336575
_cell_length_c   6.38303837
_cell_angle_alpha   99.91039165
_cell_angle_beta   99.91039311
_cell_angle_gamma   119.88210835
_symmetry_Int_Tables_number   1
_chemical_formula_structural   K4BaTeO6
_chemical_formula_sum   'K4 Ba1 Te1 O6'
_cell_volume   213.77823806
_cell_formula_units_Z   1
loop_
 _symmetry_equiv_pos_site_id
 _symmetry_equiv_pos_as_xyz
  1  'x, y, z'
loop_
 _atom_site_type_symbol
 _atom_site_label
 _atom_site_symmetry_multiplicity
 _atom_site_fract_x
 _atom_site_fract_y
 _atom_site_fract_z
 _atom_site_occupancy
  K  K0  1  0.49899078  0.50100822  0.00000000  1
  K  K1  1  0.01101185  0.98898815  0.50000000  1
  K  K2  1  0.65821563  0.34178437  0.50000000  1
  K  K3  1  0.33212283  0.66787717  0.50000000  1
  Ba  Ba0  1  0.83322870  0.16677130  1.00000000  1
  Te  Te0  1  0.16691503  0.83308397  1.00000000  1
  O  O0  1  0.22422396  0.14508202  0.19055576  1
  O  O1  1  0.48363941  0.90269643  0.19348520  1
  O  O2  1  0.98195262  0.64254837  0.18591376  1
  O  O3  1  0.35745163  0.01804738  0.81408524  1
  O  O4  1  0.09730357  0.51636059  0.80651480  1
  O  O5  1  0.85491698  0.77577604  0.80944324  1
loop_
_geom_bond_atom_site_label_1
_geom_bond_atom_site_label_2
_geom_bond_distance
_geom_bond_site_symmetry_2
K0 O4 2.714968 1_554
K0 O1 2.714970 1_555
K0 O3 2.718184 1_554
K0 O2 2.718187 1_555
K0 O0 2.735089 1_555
K0 O5 2.735096 1_554
K1 O3 2.629855 1_565
K1 O2 2.629859 1_455
K1 O5 2.649464 1_455
K1 O0 2.649468 1_565
K2 O5 2.644056 1_555
K2 O0 2.644058 1_555
K2 O4 2.686880 1_655
K2 O1 2.686880 1_545
K2 O3 3.289998 1_555
K2 O2 3.290003 1_555
K3 O3 2.657776 1_565
K3 O2 2.657780 1_455
K3 O1 2.692686 1_555
K3 O4 2.692686 1_555
K3 O5 3.249616 1_555
K3 O0 3.249624 1_555
Ba0 O2 2.663190 1_556
Ba0 O3 2.663191 1_555
Ba0 O5 2.672592 1_545
Ba0 O0 2.672594 1_656
Ba0 O1 2.703674 1_546
Ba0 O4 2.703674 1_655
O0 Te0 1.973299 1_544
O1 Te0 1.973250 1_554
O2 Te0 1.961616 1_654
O3 Te0 1.961626 1_545
O4 Te0 1.973247 1_555
O5 Te0 1.973305 1_655
