# generated using pymatgen
data_MgZn3(In2Ir)4
_symmetry_space_group_name_H-M   'P 1'
_cell_length_a   6.76558334
_cell_length_b   6.92093017
_cell_length_c   7.26439532
_cell_angle_alpha   90.00000000
_cell_angle_beta   90.00000000
_cell_angle_gamma   89.43199576
_symmetry_Int_Tables_number   1
_chemical_formula_structural   MgZn3(In2Ir)4
_chemical_formula_sum   'Mg1 Zn3 In8 Ir4'
_cell_volume   340.13227512
_cell_formula_units_Z   1
loop_
 _symmetry_equiv_pos_site_id
 _symmetry_equiv_pos_as_xyz
  1  'x, y, z'
loop_
 _atom_site_type_symbol
 _atom_site_label
 _atom_site_symmetry_multiplicity
 _atom_site_fract_x
 _atom_site_fract_y
 _atom_site_fract_z
 _atom_site_occupancy
  Mg  Mg0  1  0.50000000  0.00000000  0.50000000  1
  Zn  Zn0  1  0.00000000  0.50000000  0.00000000  1
  Zn  Zn1  1  0.50000000  0.00000000  0.00000000  1
  Zn  Zn2  1  0.00000000  0.50000000  0.50000000  1
  In  In0  1  0.33577193  0.34022344  0.26862746  1
  In  In1  1  0.16243980  0.83500153  0.77102789  1
  In  In2  1  0.16243980  0.83500153  0.22897211  1
  In  In3  1  0.83756020  0.16499847  0.22897211  1
  In  In4  1  0.83756020  0.16499847  0.77102789  1
  In  In5  1  0.66422807  0.65977656  0.26862746  1
  In  In6  1  0.66422807  0.65977656  0.73137254  1
  In  In7  1  0.33577193  0.34022344  0.73137254  1
  Ir  Ir0  1  0.15859151  0.15781110  0.00000000  1
  Ir  Ir1  1  0.65957500  0.34651544  0.50000000  1
  Ir  Ir2  1  0.34042500  0.65348456  0.50000000  1
  Ir  Ir3  1  0.84140849  0.84218890  0.00000000  1
loop_
_geom_bond_atom_site_label_1
_geom_bond_atom_site_label_2
_geom_bond_distance
_geom_bond_site_symmetry_2
In0 Ir0 2.620838 1_555
In0 Ir2 2.743692 1_555
In0 Ir1 2.761893 1_555
In0 Zn2 3.026319 1_555
In0 Mg0 3.090652 1_555
In0 In5 3.150682 1_555
In0 Zn0 3.184589 1_555
In0 Zn1 3.245786 1_555
In0 In7 3.361563 1_555
In1 Ir2 2.621952 1_555
In1 Ir3 2.735777 1_456
In1 Ir0 2.785252 1_566
In1 Zn1 3.055840 1_566
In1 Zn0 3.066036 1_556
In1 In4 3.154015 1_465
In1 Mg0 3.232310 1_565
In1 Zn2 3.241952 1_555
In1 In2 3.326688 1_556
In2 Ir2 2.621952 1_555
In2 Ir3 2.735777 1_455
In2 Ir0 2.785252 1_565
In2 Zn1 3.055840 1_565
In2 Zn0 3.066036 1_555
In2 In3 3.154015 1_465
In2 Mg0 3.232310 1_565
In2 Zn2 3.241952 1_555
In3 Ir1 2.621952 1_555
In3 Ir0 2.735777 1_655
In3 Ir3 2.785252 1_545
In3 Zn1 3.055840 1_555
In3 Zn0 3.066036 1_655
In3 Mg0 3.232310 1_555
In3 Zn2 3.241952 1_655
In3 In4 3.326688 1_554
In4 Ir1 2.621952 1_555
In4 Ir0 2.735777 1_656
In4 Ir3 2.785252 1_546
In4 Zn1 3.055840 1_556
In4 Zn0 3.066036 1_656
In4 Mg0 3.232310 1_555
In4 Zn2 3.241952 1_655
In5 Ir3 2.620838 1_555
In5 Ir1 2.743692 1_555
In5 Ir2 2.761893 1_555
In5 Zn2 3.026319 1_655
In5 Mg0 3.090652 1_565
In5 Zn0 3.184589 1_655
In5 Zn1 3.245786 1_565
In5 In6 3.361563 1_555
In6 Ir3 2.620838 1_556
In6 Ir1 2.743692 1_555
In6 Ir2 2.761893 1_555
In6 Zn2 3.026319 1_655
In6 Mg0 3.090652 1_565
In6 In7 3.150682 1_555
In6 Zn0 3.184589 1_656
In6 Zn1 3.245786 1_566
In7 Ir0 2.620838 1_556
In7 Ir2 2.743692 1_555
In7 Ir1 2.761893 1_555
In7 Zn2 3.026319 1_555
In7 Mg0 3.090652 1_555
In7 Zn0 3.184589 1_556
In7 Zn1 3.245786 1_556
Ir0 Zn1 2.545228 1_555
Ir0 Zn0 2.590280 1_555
Ir1 Zn2 2.545880 1_655
Ir1 Mg0 2.639757 1_555
Ir1 Ir2 3.014117 1_555
Ir2 Zn2 2.545880 1_555
Ir2 Mg0 2.639757 1_565
Ir3 Zn1 2.545228 1_565
Ir3 Zn0 2.590280 1_655
