# generated using pymatgen
data_Sr21Mg(Al4Pb3)2
_symmetry_space_group_name_H-M   'P 1'
_cell_length_a   12.28580097
_cell_length_b   12.28580124
_cell_length_c   12.28580089
_cell_angle_alpha   60.00000094
_cell_angle_beta   60.00000022
_cell_angle_gamma   60.00000241
_symmetry_Int_Tables_number   1
_chemical_formula_structural   Sr21Mg(Al4Pb3)2
_chemical_formula_sum   'Sr21 Mg1 Al8 Pb6'
_cell_volume   1311.28002986
_cell_formula_units_Z   1
loop_
 _symmetry_equiv_pos_site_id
 _symmetry_equiv_pos_as_xyz
  1  'x, y, z'
loop_
 _atom_site_type_symbol
 _atom_site_label
 _atom_site_symmetry_multiplicity
 _atom_site_fract_x
 _atom_site_fract_y
 _atom_site_fract_z
 _atom_site_occupancy
  Sr  Sr0  1  0.87045471  0.87045471  0.38863388  1
  Sr  Sr1  1  0.61136612  0.12954529  0.12954529  1
  Sr  Sr2  1  0.87045471  0.38863388  0.87045471  1
  Sr  Sr3  1  0.12954529  0.12954529  0.12954529  1
  Sr  Sr4  1  0.38863388  0.87045471  0.87045471  1
  Sr  Sr5  1  0.87045471  0.87045471  0.87045471  1
  Sr  Sr6  1  0.17418301  0.82581699  0.50000000  1
  Sr  Sr7  1  0.82581699  0.50000000  0.50000000  1
  Sr  Sr8  1  0.12954529  0.12954529  0.61136612  1
  Sr  Sr9  1  0.82581699  0.17418301  0.50000000  1
  Sr  Sr10  1  0.17418301  0.50000000  0.50000000  1
  Sr  Sr11  1  0.12954529  0.61136612  0.12954529  1
  Sr  Sr12  1  0.50000000  0.50000000  0.17418301  1
  Sr  Sr13  1  0.50000000  0.17418301  0.82581699  1
  Sr  Sr14  1  0.50000000  0.82581699  0.17418301  1
  Sr  Sr15  1  0.50000000  0.50000000  0.82581699  1
  Sr  Sr16  1  0.50000000  0.17418301  0.50000000  1
  Sr  Sr17  1  0.17418301  0.50000000  0.82581699  1
  Sr  Sr18  1  0.00000000  0.00000000  0.00000000  1
  Sr  Sr19  1  0.50000000  0.82581699  0.50000000  1
  Sr  Sr20  1  0.82581699  0.50000000  0.17418301  1
  Mg  Mg0  1  0.50000000  0.50000000  0.50000000  1
  Al  Al0  1  0.69477526  0.91567421  0.69477526  1
  Al  Al1  1  0.69477526  0.69477526  0.91567421  1
  Al  Al2  1  0.69477526  0.69477526  0.69477526  1
  Al  Al3  1  0.30522474  0.08432579  0.30522474  1
  Al  Al4  1  0.91567421  0.69477526  0.69477526  1
  Al  Al5  1  0.30522474  0.30522474  0.08432579  1
  Al  Al6  1  0.08432579  0.30522474  0.30522474  1
  Al  Al7  1  0.30522474  0.30522474  0.30522474  1
  Pb  Pb0  1  0.78496830  0.21503170  0.78496830  1
  Pb  Pb1  1  0.78496830  0.21503170  0.21503170  1
  Pb  Pb2  1  0.21503170  0.78496830  0.21503170  1
  Pb  Pb3  1  0.21503170  0.78496830  0.78496830  1
  Pb  Pb4  1  0.78496830  0.78496830  0.21503170  1
  Pb  Pb5  1  0.21503170  0.21503170  0.78496830  1
loop_
_geom_bond_atom_site_label_1
_geom_bond_atom_site_label_2
_geom_bond_distance
_geom_bond_site_symmetry_2
Sr0 Sr18 3.898509 1_665
Sr1 Sr18 3.898509 1_655
Sr11 Sr18 3.898509 1_565
Sr18 Sr8 3.898509 1_554
Sr18 Sr4 3.898509 1_544
Sr18 Sr2 3.898509 1_454
Sr18 Sr3 3.898529 1_555
Sr18 Sr5 3.898529 1_444
Mg0 Sr15 4.002923 1_555
Mg0 Sr12 4.002923 1_555
Mg0 Sr7 4.002923 1_555
Mg0 Sr20 4.002923 1_555
Mg0 Sr17 4.002923 1_555
Mg0 Sr10 4.002923 1_555
Mg0 Sr19 4.002923 1_555
Mg0 Sr13 4.002923 1_555
Mg0 Sr14 4.002923 1_555
Mg0 Sr16 4.002923 1_555
Mg0 Sr6 4.002923 1_555
Mg0 Sr9 4.002923 1_555
Al0 Al2 2.713921 1_555
Al0 Al1 2.713921 1_555
Al0 Al4 2.713921 1_555
Al0 Sr5 3.447614 1_555
Al0 Sr0 3.447635 1_555
Al0 Sr4 3.447635 1_555
Al0 Sr9 3.473576 1_565
Al0 Sr13 3.473576 1_565
Al0 Sr16 3.473576 1_565
Al1 Al2 2.713920 1_555
Al1 Al4 2.713920 1_555
Al1 Sr5 3.447614 1_555
Al1 Sr4 3.447635 1_555
Al1 Sr2 3.447635 1_555
Al1 Sr12 3.473576 1_556
Al1 Sr14 3.473576 1_556
Al1 Sr20 3.473576 1_556
Al2 Al4 2.713920 1_555
Al2 Sr0 3.447625 1_555
Al2 Sr4 3.447626 1_555
Al2 Sr2 3.447626 1_555
Al2 Sr15 3.473576 1_555
Al2 Sr19 3.473576 1_555
Al2 Sr7 3.473576 1_555
Al3 Al5 2.713921 1_555
Al3 Al7 2.713921 1_555
Al3 Al6 2.713921 1_555
Al3 Sr3 3.447614 1_555
Al3 Sr8 3.447635 1_555
Al3 Sr1 3.447635 1_555
Al3 Sr6 3.473576 1_545
Al3 Sr14 3.473576 1_545
Al3 Sr19 3.473576 1_545
Al4 Sr5 3.447614 1_555
Al4 Sr0 3.447635 1_555
Al4 Sr2 3.447635 1_555
Al4 Sr6 3.473576 1_655
Al4 Sr17 3.473576 1_655
Al4 Sr10 3.473576 1_655
Al5 Al7 2.713920 1_555
Al5 Al6 2.713920 1_555
Al5 Sr3 3.447614 1_555
Al5 Sr1 3.447635 1_555
Al5 Sr11 3.447635 1_555
Al5 Sr15 3.473576 1_554
Al5 Sr13 3.473576 1_554
Al5 Sr17 3.473576 1_554
Al6 Al7 2.713920 1_555
Al6 Sr3 3.447614 1_555
Al6 Sr8 3.447635 1_555
Al6 Sr11 3.447635 1_555
Al6 Sr9 3.473576 1_455
Al6 Sr20 3.473576 1_455
Al6 Sr7 3.473576 1_455
Al7 Sr8 3.447625 1_555
Al7 Sr1 3.447626 1_555
Al7 Sr11 3.447626 1_555
Al7 Sr12 3.473576 1_555
Al7 Sr16 3.473576 1_555
Al7 Sr10 3.473576 1_555
Pb0 Sr2 3.512595 1_555
Pb0 Sr1 3.512614 1_556
Pb0 Sr8 3.512614 1_655
Pb0 Sr5 3.512617 1_545
Pb0 Sr9 3.536850 1_555
Pb0 Sr13 3.536850 1_555
Pb0 Sr7 3.536850 1_555
Pb0 Sr15 3.536851 1_555
Pb0 Sr18 3.736121 1_656
Pb1 Sr1 3.512595 1_555
Pb1 Sr2 3.512614 1_554
Pb1 Sr0 3.512614 1_545
Pb1 Sr3 3.512617 1_655
Pb1 Sr9 3.536850 1_555
Pb1 Sr16 3.536850 1_555
Pb1 Sr20 3.536850 1_555
Pb1 Sr12 3.536851 1_555
Pb1 Sr18 3.736121 1_655
Pb2 Sr11 3.512595 1_555
Pb2 Sr4 3.512614 1_554
Pb2 Sr0 3.512614 1_455
Pb2 Sr3 3.512617 1_565
Pb2 Sr6 3.536850 1_555
Pb2 Sr14 3.536850 1_555
Pb2 Sr10 3.536850 1_555
Pb2 Sr12 3.536851 1_555
Pb2 Sr18 3.736121 1_565
Pb3 Sr4 3.512595 1_555
Pb3 Sr11 3.512614 1_556
Pb3 Sr8 3.512614 1_565
Pb3 Sr5 3.512617 1_455
Pb3 Sr6 3.536850 1_555
Pb3 Sr19 3.536850 1_555
Pb3 Sr17 3.536850 1_555
Pb3 Sr15 3.536851 1_555
Pb3 Sr18 3.736121 1_566
Pb4 Sr0 3.512595 1_555
Pb4 Sr11 3.512614 1_655
Pb4 Sr1 3.512614 1_565
Pb4 Sr5 3.512617 1_554
Pb4 Sr14 3.536850 1_555
Pb4 Sr19 3.536850 1_555
Pb4 Sr20 3.536850 1_555
Pb4 Sr7 3.536850 1_555
Pb4 Sr18 3.736121 1_665
Pb5 Sr8 3.512595 1_555
Pb5 Sr2 3.512614 1_455
Pb5 Sr4 3.512614 1_545
Pb5 Sr3 3.512617 1_556
Pb5 Sr13 3.536850 1_555
Pb5 Sr16 3.536850 1_555
Pb5 Sr10 3.536850 1_555
Pb5 Sr17 3.536850 1_555
Pb5 Sr18 3.736121 1_556
