# generated using pymatgen
data_Ba2InB2Pt7
_symmetry_space_group_name_H-M   'P 1'
_cell_length_a   5.77043701
_cell_length_b   5.77043627
_cell_length_c   7.46685908
_cell_angle_alpha   90.00000000
_cell_angle_beta   90.00000000
_cell_angle_gamma   120.00000425
_symmetry_Int_Tables_number   1
_chemical_formula_structural   Ba2InB2Pt7
_chemical_formula_sum   'Ba2 In1 B2 Pt7'
_cell_volume   215.32076870
_cell_formula_units_Z   1
loop_
 _symmetry_equiv_pos_site_id
 _symmetry_equiv_pos_as_xyz
  1  'x, y, z'
loop_
 _atom_site_type_symbol
 _atom_site_label
 _atom_site_symmetry_multiplicity
 _atom_site_fract_x
 _atom_site_fract_y
 _atom_site_fract_z
 _atom_site_occupancy
  Ba  Ba0  1  0.00000000  0.00000000  0.50000000  1
  Ba  Ba1  1  0.00000000  0.00000000  0.00000000  1
  In  In0  1  0.33333300  0.66666700  0.50000000  1
  B  B0  1  0.33333300  0.66666700  0.00000000  1
  B  B1  1  0.66666700  0.33333300  0.00000000  1
  Pt  Pt0  1  0.66666700  0.33333300  0.50000000  1
  Pt  Pt1  1  0.50042143  0.00084286  0.19517943  1
  Pt  Pt2  1  0.50042143  0.00084286  0.80482057  1
  Pt  Pt3  1  0.99915714  0.49957857  0.19517943  1
  Pt  Pt4  1  0.99915714  0.49957857  0.80482057  1
  Pt  Pt5  1  0.50042143  0.49957857  0.19517943  1
  Pt  Pt6  1  0.50042143  0.49957857  0.80482057  1
loop_
_geom_bond_atom_site_label_1
_geom_bond_atom_site_label_2
_geom_bond_distance
_geom_bond_site_symmetry_2
Ba0 In0 3.331560 1_545
Ba0 Pt0 3.331560 1_455
Ba0 In0 3.331564 1_555
Ba0 Pt0 3.331564 1_445
Ba0 Pt0 3.331565 1_555
Ba0 In0 3.331565 1_445
Ba1 Pt3 3.232406 1_445
Ba1 Pt4 3.232406 1_444
Ba1 Pt5 3.232406 1_445
Ba1 Pt6 3.232406 1_444
Ba1 Pt5 3.232406 1_555
Ba1 Pt6 3.232406 1_554
Ba1 Pt3 3.232406 1_455
Ba1 Pt4 3.232406 1_454
Ba1 Pt1 3.232407 1_455
Ba1 Pt1 3.232407 1_555
Ba1 Pt2 3.232407 1_454
Ba1 Pt2 3.232407 1_554
In0 Pt2 2.822992 1_565
In0 Pt1 2.822992 1_565
In0 Pt4 2.822993 1_455
In0 Pt3 2.822993 1_455
In0 Pt6 2.822996 1_555
In0 Pt5 2.822996 1_555
In0 Pt0 3.331559 1_565
In0 Pt0 3.331560 1_455
In0 Pt0 3.331570 1_555
B0 Pt1 2.216488 1_565
B0 Pt2 2.216488 1_564
B0 Pt3 2.216489 1_455
B0 Pt4 2.216489 1_454
B0 Pt5 2.216492 1_555
B0 Pt6 2.216492 1_554
B1 Pt1 2.210148 1_555
B1 Pt2 2.210148 1_554
B1 Pt3 2.210148 1_555
B1 Pt4 2.210148 1_554
B1 Pt5 2.210152 1_555
B1 Pt6 2.210152 1_554
Pt0 Pt2 2.818017 1_555
Pt0 Pt1 2.818017 1_555
Pt0 Pt4 2.818017 1_555
Pt0 Pt3 2.818017 1_555
Pt0 Pt6 2.818020 1_555
Pt0 Pt5 2.818020 1_555
