# generated using pymatgen
data_RbNiP2Os
_symmetry_space_group_name_H-M   'P 1'
_cell_length_a   7.52052200
_cell_length_b   7.52052143
_cell_length_c   7.52052211
_cell_angle_alpha   150.79201639
_cell_angle_beta   150.79200894
_cell_angle_gamma   41.78003931
_symmetry_Int_Tables_number   1
_chemical_formula_structural   RbNiP2Os
_chemical_formula_sum   'Rb1 Ni1 P2 Os1'
_cell_volume   101.05254412
_cell_formula_units_Z   1
loop_
 _symmetry_equiv_pos_site_id
 _symmetry_equiv_pos_as_xyz
  1  'x, y, z'
loop_
 _atom_site_type_symbol
 _atom_site_label
 _atom_site_symmetry_multiplicity
 _atom_site_fract_x
 _atom_site_fract_y
 _atom_site_fract_z
 _atom_site_occupancy
  Rb  Rb0  1  0.00000000  0.00000000  0.00000000  1
  Ni  Ni0  1  0.25000000  0.75000000  0.50000000  1
  P  P0  1  0.65900300  0.65900300  0.00000000  1
  P  P1  1  0.34099700  0.34099700  1.00000000  1
  Os  Os0  1  0.75000000  0.25000000  0.50000000  1
loop_
_geom_bond_atom_site_label_1
_geom_bond_atom_site_label_2
_geom_bond_distance
_geom_bond_site_symmetry_2
Ni0 P1 2.287073 1_565
Ni0 P1 2.287073 1_554
Ni0 P0 2.287073 1_556
Ni0 P0 2.287073 1_455
Ni0 Os0 2.681632 1_465
Ni0 Os0 2.681632 1_555
Ni0 Os0 2.681633 1_566
Ni0 Os0 2.681633 1_454
P0 Rb0 3.490492 1_655
P0 Rb0 3.490493 1_565
P0 Rb0 3.490493 1_554
P0 Rb0 3.490493 1_666
P1 Rb0 3.490492 1_566
P1 Rb0 3.490493 1_656
P1 Rb0 3.490493 1_667
P1 Rb0 3.490493 1_555
Os0 P0 2.287073 1_545
Os0 P0 2.287073 1_556
Os0 P1 2.287073 1_554
Os0 P1 2.287073 1_655
