# generated using pymatgen
data_K4Ba2ZrBi4
_symmetry_space_group_name_H-M   'P 1'
_cell_length_a   11.34815587
_cell_length_b   11.34815546
_cell_length_c   8.73003706
_cell_angle_alpha   89.17916285
_cell_angle_beta   89.17916289
_cell_angle_gamma   60.22418381
_symmetry_Int_Tables_number   1
_chemical_formula_structural   K4Ba2ZrBi4
_chemical_formula_sum   'K8 Ba4 Zr2 Bi8'
_cell_volume   975.69567883
_cell_formula_units_Z   2
loop_
 _symmetry_equiv_pos_site_id
 _symmetry_equiv_pos_as_xyz
  1  'x, y, z'
loop_
 _atom_site_type_symbol
 _atom_site_label
 _atom_site_symmetry_multiplicity
 _atom_site_fract_x
 _atom_site_fract_y
 _atom_site_fract_z
 _atom_site_occupancy
  K  K0  1  0.94161513  0.53009313  0.37091349  1
  K  K1  1  0.53009313  0.94161513  0.37091349  1
  K  K2  1  0.72099416  0.13380656  0.19599417  1
  K  K3  1  0.13380656  0.72099416  0.19599417  1
  K  K4  1  0.14208412  0.14208412  0.21186403  1
  K  K5  1  0.27706050  0.86391665  0.69264094  1
  K  K6  1  0.86391665  0.27706050  0.69264094  1
  K  K7  1  0.85597671  0.85597671  0.66572246  1
  Ba  Ba0  1  0.52968694  0.52968694  0.37249863  1
  Ba  Ba1  1  0.05008937  0.47730367  0.87433371  1
  Ba  Ba2  1  0.47730367  0.05008937  0.87433371  1
  Ba  Ba3  1  0.47657688  0.47657688  0.86978591  1
  Zr  Zr0  1  0.33305594  0.33305594  0.48107987  1
  Zr  Zr1  1  0.66638939  0.66638939  0.98637637  1
  Bi  Bi0  1  0.38642606  0.80443301  0.09093465  1
  Bi  Bi1  1  0.80443301  0.38642606  0.09093465  1
  Bi  Bi2  1  0.80749740  0.80749740  0.07003589  1
  Bi  Bi3  1  0.60840610  0.20142733  0.59298278  1
  Bi  Bi4  1  0.20142733  0.60840610  0.59298278  1
  Bi  Bi5  1  0.19762494  0.19762494  0.60663828  1
  Bi  Bi6  1  0.33614784  0.33614784  0.14668458  1
  Bi  Bi7  1  0.66000217  0.66000217  0.65653350  1
loop_
_geom_bond_atom_site_label_1
_geom_bond_atom_site_label_2
_geom_bond_distance
_geom_bond_site_symmetry_2
K0 Zr0 3.981555 1_655
K1 Zr0 3.981555 1_565
Ba0 Bi7 3.592320 1_555
Ba0 Bi0 3.642340 1_555
Ba0 Bi1 3.642340 1_555
Ba0 Bi3 3.862428 1_555
Ba0 Bi4 3.862428 1_555
Ba1 Bi5 3.627748 1_555
Ba1 Bi4 3.675336 1_555
Ba1 Bi6 3.701949 1_556
Ba1 Bi2 3.787015 1_456
Ba1 Bi1 3.880631 1_456
Ba2 Bi5 3.627748 1_555
Ba2 Bi3 3.675336 1_555
Ba2 Bi6 3.701949 1_556
Ba2 Bi2 3.787015 1_546
Ba2 Bi0 3.880631 1_546
Ba3 Bi6 3.636525 1_556
Ba3 Bi3 3.646952 1_555
Ba3 Bi4 3.646952 1_555
Ba3 Bi0 3.871085 1_556
Ba3 Bi1 3.871085 1_556
Ba3 Bi7 4.026523 1_555
Bi0 Zr1 2.897525 1_554
Bi0 K3 3.542876 1_555
Bi0 K4 3.600639 1_565
Bi0 K5 3.648376 1_554
Bi0 K1 3.714818 1_555
Bi1 Zr1 2.897525 1_554
Bi1 K2 3.542876 1_555
Bi1 K4 3.600639 1_655
Bi1 K6 3.648376 1_554
Bi1 K0 3.714818 1_555
Bi2 Zr1 2.876746 1_554
Bi2 K2 3.515737 1_565
Bi2 K3 3.515737 1_655
Bi2 K7 3.640501 1_554
Bi2 K0 3.774229 1_555
Bi2 K1 3.774229 1_555
Bi3 Zr0 2.891243 1_555
Bi3 K6 3.530810 1_555
Bi3 K7 3.564451 1_545
Bi3 K2 3.634292 1_555
Bi3 K1 4.007102 1_545
Bi4 Zr0 2.891242 1_555
Bi4 K5 3.530810 1_555
Bi4 K7 3.564451 1_455
Bi4 K3 3.634292 1_555
Bi4 K0 4.007102 1_455
Bi5 Zr0 2.859205 1_555
Bi5 K5 3.502116 1_545
Bi5 K6 3.502116 1_455
Bi5 K4 3.631968 1_555
Bi5 K0 3.996514 1_455
Bi5 K1 3.996514 1_545
Bi6 Zr0 2.918909 1_555
Bi6 K3 3.820538 1_555
Bi6 K2 3.820539 1_555
Bi6 K4 3.843044 1_555
Bi7 Zr1 2.884344 1_555
Bi7 K1 3.715033 1_555
Bi7 K0 3.715033 1_555
Bi7 K6 3.785881 1_555
Bi7 K5 3.785881 1_555
Bi7 K7 3.849800 1_555
