# generated using pymatgen
data_Cs4InICl12
_symmetry_space_group_name_H-M   'P 1'
_cell_length_a   7.43438580
_cell_length_b   7.43438580
_cell_length_c   10.55403846
_cell_angle_alpha   90.00000000
_cell_angle_beta   90.00000000
_cell_angle_gamma   90.00000000
_symmetry_Int_Tables_number   1
_chemical_formula_structural   Cs4InICl12
_chemical_formula_sum   'Cs4 In1 I1 Cl12'
_cell_volume   583.32267993
_cell_formula_units_Z   1
loop_
 _symmetry_equiv_pos_site_id
 _symmetry_equiv_pos_as_xyz
  1  'x, y, z'
loop_
 _atom_site_type_symbol
 _atom_site_label
 _atom_site_symmetry_multiplicity
 _atom_site_fract_x
 _atom_site_fract_y
 _atom_site_fract_z
 _atom_site_occupancy
  Cs  Cs0  1  0.50000000  0.00000000  0.77552635  1
  Cs  Cs1  1  0.00000000  0.50000000  0.22447365  1
  Cs  Cs2  1  0.50000000  0.00000000  0.22447365  1
  Cs  Cs3  1  0.00000000  0.50000000  0.77552635  1
  In  In0  1  0.00000000  0.00000000  0.00000000  1
  I  I0  1  0.50000000  0.50000000  0.50000000  1
  Cl  Cl0  1  0.00000000  0.00000000  0.75837770  1
  Cl  Cl1  1  0.50000000  0.50000000  0.26328139  1
  Cl  Cl2  1  0.73722508  0.73722508  0.50000000  1
  Cl  Cl3  1  0.24117312  0.24117312  0.00000000  1
  Cl  Cl4  1  0.73722508  0.26277492  0.50000000  1
  Cl  Cl5  1  0.24117312  0.75882688  0.00000000  1
  Cl  Cl6  1  0.00000000  0.00000000  0.24162230  1
  Cl  Cl7  1  0.50000000  0.50000000  0.73671861  1
  Cl  Cl8  1  0.26277492  0.26277492  0.50000000  1
  Cl  Cl9  1  0.75882688  0.75882688  0.00000000  1
  Cl  Cl10  1  0.26277492  0.73722508  0.50000000  1
  Cl  Cl11  1  0.75882688  0.24117312  0.00000000  1
loop_
_geom_bond_atom_site_label_1
_geom_bond_atom_site_label_2
_geom_bond_distance
_geom_bond_site_symmetry_2
Cl0 In0 2.550091 1_556
Cl0 Cs0 3.721596 1_455
Cl0 Cs3 3.721596 1_545
Cl0 Cs3 3.721596 1_555
Cl0 Cs0 3.721596 1_555
Cl1 I0 2.498337 1_555
Cl1 Cs1 3.739689 1_655
Cl1 Cs1 3.739689 1_555
Cl1 Cs2 3.739689 1_565
Cl1 Cs2 3.739689 1_555
Cl2 I0 2.494139 1_555
Cl2 Cs0 3.922088 1_565
Cl2 Cs3 3.922088 1_655
Cl2 Cs2 3.922088 1_565
Cl2 Cs1 3.922088 1_655
Cl3 In0 2.535648 1_555
Cl3 Cs2 3.539778 1_555
Cl3 Cs1 3.539778 1_555
Cl3 Cs3 3.539778 1_554
Cl3 Cs0 3.539778 1_554
Cl4 I0 2.494139 1_555
Cl4 Cs0 3.922088 1_555
Cl4 Cs3 3.922088 1_655
Cl4 Cs2 3.922088 1_555
Cl4 Cs1 3.922088 1_655
Cl5 In0 2.535648 1_565
Cl5 Cs1 3.539778 1_555
Cl5 Cs3 3.539778 1_554
Cl5 Cs2 3.539778 1_565
Cl5 Cs0 3.539778 1_564
Cl6 In0 2.550091 1_555
Cl6 Cs2 3.721596 1_555
Cl6 Cs2 3.721596 1_455
Cl6 Cs1 3.721596 1_555
Cl6 Cs1 3.721596 1_545
Cl7 I0 2.498337 1_555
Cl7 Cs3 3.739689 1_555
Cl7 Cs0 3.739689 1_565
Cl7 Cs0 3.739689 1_555
Cl7 Cs3 3.739689 1_655
Cl8 I0 2.494139 1_555
Cl8 Cs3 3.922088 1_555
Cl8 Cs0 3.922088 1_555
Cl8 Cs2 3.922088 1_555
Cl8 Cs1 3.922088 1_555
Cl9 In0 2.535648 1_665
Cl9 Cs1 3.539778 1_655
Cl9 Cs2 3.539778 1_565
Cl9 Cs3 3.539778 1_654
Cl9 Cs0 3.539778 1_564
Cl10 I0 2.494139 1_555
Cl10 Cs3 3.922088 1_555
Cl10 Cs0 3.922088 1_565
Cl10 Cs1 3.922088 1_555
Cl10 Cs2 3.922088 1_565
Cl11 In0 2.535648 1_655
Cl11 Cs2 3.539778 1_555
Cl11 Cs0 3.539778 1_554
Cl11 Cs1 3.539778 1_655
Cl11 Cs3 3.539778 1_654
