# generated using pymatgen
data_Ca2Ga9Ru5
_symmetry_space_group_name_H-M   'P 1'
_cell_length_a   6.16953596
_cell_length_b   6.16953564
_cell_length_c   7.94988427
_cell_angle_alpha   112.83176772
_cell_angle_beta   112.83176841
_cell_angle_gamma   90.00000774
_symmetry_Int_Tables_number   1
_chemical_formula_structural   Ca2Ga9Ru5
_chemical_formula_sum   'Ca2 Ga9 Ru5'
_cell_volume   252.96717040
_cell_formula_units_Z   1
loop_
 _symmetry_equiv_pos_site_id
 _symmetry_equiv_pos_as_xyz
  1  'x, y, z'
loop_
 _atom_site_type_symbol
 _atom_site_label
 _atom_site_symmetry_multiplicity
 _atom_site_fract_x
 _atom_site_fract_y
 _atom_site_fract_z
 _atom_site_occupancy
  Ca  Ca0  1  0.50000000  0.00000000  0.00000000  1
  Ca  Ca1  1  0.00000000  0.50000000  0.00000000  1
  Ga  Ga0  1  0.00000000  0.00000000  0.00000000  1
  Ga  Ga1  1  0.43978493  0.43978493  0.29773475  1
  Ga  Ga2  1  0.85794982  0.43978493  0.29773475  1
  Ga  Ga3  1  0.43978493  0.85794982  0.29773475  1
  Ga  Ga4  1  0.85794982  0.85794982  0.29773475  1
  Ga  Ga5  1  0.14205018  0.14205018  0.70226525  1
  Ga  Ga6  1  0.56021507  0.14205018  0.70226525  1
  Ga  Ga7  1  0.14205018  0.56021507  0.70226525  1
  Ga  Ga8  1  0.56021507  0.56021507  0.70226525  1
  Ru  Ru0  1  0.50000000  0.50000000  0.00000000  1
  Ru  Ru1  1  0.18139604  0.18139604  0.36279108  1
  Ru  Ru2  1  0.75000000  0.25000000  0.49999900  1
  Ru  Ru3  1  0.25000000  0.75000000  0.49999900  1
  Ru  Ru4  1  0.81860496  0.81860496  0.63720892  1
loop_
_geom_bond_atom_site_label_1
_geom_bond_atom_site_label_2
_geom_bond_distance
_geom_bond_site_symmetry_2
Ca0 Ga3 2.966608 1_545
Ca0 Ga6 2.966608 1_554
Ca0 Ga2 2.966608 1_555
Ca0 Ga7 2.966608 1_544
Ca0 Ga4 2.966608 1_545
Ca0 Ga5 2.966608 1_554
Ca0 Ga1 2.966608 1_555
Ca0 Ga8 2.966608 1_544
Ca0 Ru0 3.084768 1_555
Ca0 Ru0 3.084768 1_545
Ca0 Ga0 3.084768 1_655
Ca0 Ga0 3.084768 1_555
Ca0 Ru2 3.322985 1_555
Ca0 Ru3 3.322998 1_544
Ca1 Ga7 2.966608 1_554
Ca1 Ga2 2.966608 1_455
Ca1 Ga3 2.966608 1_555
Ca1 Ga6 2.966608 1_454
Ca1 Ga4 2.966608 1_455
Ca1 Ga5 2.966608 1_554
Ca1 Ga1 2.966608 1_555
Ca1 Ga8 2.966608 1_454
Ca1 Ga0 3.084768 1_565
Ca1 Ga0 3.084768 1_555
Ca1 Ru0 3.084768 1_455
Ca1 Ru0 3.084768 1_555
Ca1 Ru3 3.322985 1_555
Ca1 Ru2 3.322998 1_454
Ga0 Ru4 2.411103 1_444
Ga0 Ru1 2.411103 1_555
Ga1 Ru1 2.574824 1_555
Ga1 Ga3 2.579883 1_555
Ga1 Ga2 2.579883 1_555
Ga1 Ru2 2.586956 1_555
Ga1 Ru3 2.586956 1_555
Ga1 Ru0 2.691340 1_555
Ga1 Ga8 2.781701 1_555
Ga1 Ru4 2.901393 1_555
Ga2 Ru1 2.574828 1_655
Ga2 Ga4 2.579883 1_555
Ga2 Ru2 2.586953 1_555
Ga2 Ru3 2.586960 1_655
Ga2 Ru0 2.691340 1_555
Ga2 Ga7 2.781702 1_655
Ga2 Ru4 2.901390 1_555
Ga3 Ru1 2.574828 1_565
Ga3 Ga4 2.579883 1_555
Ga3 Ru3 2.586953 1_555
Ga3 Ru2 2.586960 1_565
Ga3 Ru0 2.691340 1_555
Ga3 Ga6 2.781702 1_565
Ga3 Ru4 2.901390 1_555
Ga4 Ru1 2.574832 1_665
Ga4 Ru2 2.586957 1_565
Ga4 Ru3 2.586957 1_655
Ga4 Ru0 2.691340 1_555
Ga4 Ga5 2.781702 1_665
Ga4 Ru4 2.901387 1_555
Ga5 Ru4 2.574824 1_445
Ga5 Ga7 2.579883 1_555
Ga5 Ga6 2.579883 1_555
Ga5 Ru3 2.586963 1_545
Ga5 Ru2 2.586963 1_455
Ga5 Ru0 2.691340 1_556
Ga5 Ru1 2.901392 1_555
Ga6 Ru4 2.574828 1_545
Ga6 Ga8 2.579883 1_555
Ga6 Ru3 2.586960 1_545
Ga6 Ru2 2.586967 1_555
Ga6 Ru0 2.691340 1_556
Ga6 Ru1 2.901390 1_555
Ga7 Ru4 2.574828 1_455
Ga7 Ga8 2.579883 1_555
Ga7 Ru2 2.586960 1_455
Ga7 Ru3 2.586967 1_555
Ga7 Ru0 2.691340 1_556
Ga7 Ru1 2.901390 1_555
Ga8 Ru4 2.574832 1_555
Ga8 Ru3 2.586964 1_555
Ga8 Ru2 2.586964 1_555
Ga8 Ru0 2.691340 1_556
Ga8 Ru1 2.901387 1_555
