# generated using pymatgen
data_Lu12AlCo4Os
_symmetry_space_group_name_H-M   'P 1'
_cell_length_a   8.00478357
_cell_length_b   8.00478458
_cell_length_c   8.00478419
_cell_angle_alpha   111.48281034
_cell_angle_beta   110.58504669
_cell_angle_gamma   106.39039408
_symmetry_Int_Tables_number   1
_chemical_formula_structural   Lu12AlCo4Os
_chemical_formula_sum   'Lu12 Al1 Co4 Os1'
_cell_volume   393.96932521
_cell_formula_units_Z   1
loop_
 _symmetry_equiv_pos_site_id
 _symmetry_equiv_pos_as_xyz
  1  'x, y, z'
loop_
 _atom_site_type_symbol
 _atom_site_label
 _atom_site_symmetry_multiplicity
 _atom_site_fract_x
 _atom_site_fract_y
 _atom_site_fract_z
 _atom_site_occupancy
  Lu  Lu0  1  0.42058300  0.22562608  0.19495692  1
  Lu  Lu1  1  0.57941700  0.77437392  0.80504308  1
  Lu  Lu2  1  0.03066916  0.22562608  0.80504308  1
  Lu  Lu3  1  0.96933084  0.77437392  0.19495692  1
  Lu  Lu4  1  0.18279102  0.27841312  0.46120414  1
  Lu  Lu5  1  0.81720898  0.72158688  0.53879586  1
  Lu  Lu6  1  0.18279102  0.72158688  0.90437890  1
  Lu  Lu7  1  0.81720898  0.27841312  0.09562110  1
  Lu  Lu8  1  0.31533283  0.61911369  0.30377986  1
  Lu  Lu9  1  0.68466717  0.38088631  0.69622014  1
  Lu  Lu10  1  0.31533283  0.01155197  0.69622014  1
  Lu  Lu11  1  0.68466717  0.98844803  0.30377986  1
  Al  Al0  1  0.50000000  0.50000000  0.00000000  1
  Co  Co0  1  0.37604000  0.00000000  0.37604000  1
  Co  Co1  1  0.62396000  1.00000000  0.62396000  1
  Co  Co2  1  0.11193127  0.61193127  0.50000000  1
  Co  Co3  1  0.88806873  0.38806873  0.50000000  1
  Os  Os0  1  0.00000000  0.00000000  0.00000000  1
loop_
_geom_bond_atom_site_label_1
_geom_bond_atom_site_label_2
_geom_bond_distance
_geom_bond_site_symmetry_2
Lu0 Os0 2.800227 1_555
Lu0 Lu6 3.315269 1_544
Lu0 Lu4 3.315269 1_555
Lu0 Lu11 3.318666 1_545
Lu0 Lu9 3.318675 1_555
Lu0 Lu10 3.375468 1_554
Lu0 Lu8 3.375475 1_555
Lu0 Lu5 3.486410 1_555
Lu0 Lu7 3.486415 1_555
Lu0 Lu2 3.554313 1_554
Lu1 Os0 2.800227 1_666
Lu1 Lu7 3.315269 1_566
Lu1 Lu5 3.315269 1_555
Lu1 Lu10 3.318666 1_565
Lu1 Lu8 3.318675 1_555
Lu1 Lu11 3.375468 1_556
Lu1 Lu9 3.375475 1_555
Lu1 Lu4 3.486410 1_555
Lu1 Lu6 3.486415 1_555
Lu1 Lu3 3.554313 1_556
Lu2 Os0 2.800227 1_556
Lu2 Lu7 3.315263 1_456
Lu2 Lu5 3.315270 1_445
Lu2 Lu9 3.318668 1_455
Lu2 Lu8 3.375470 1_556
Lu2 Lu6 3.486408 1_555
Lu2 Lu4 3.486410 1_555
Lu3 Os0 2.800227 1_665
Lu3 Lu6 3.315263 1_654
Lu3 Lu4 3.315270 1_665
Lu3 Lu8 3.318668 1_655
Lu3 Lu9 3.375470 1_554
Lu3 Lu7 3.486408 1_555
Lu3 Lu5 3.486410 1_555
Lu4 Os0 3.011999 1_555
Lu4 Lu7 3.332518 1_455
Lu4 Lu8 3.460608 1_555
Lu4 Lu9 3.470866 1_555
Lu5 Os0 3.011999 1_666
Lu5 Lu6 3.332518 1_655
Lu5 Lu9 3.460608 1_555
Lu5 Lu8 3.470866 1_555
Lu6 Os0 3.011997 1_566
Lu6 Lu9 3.460602 1_455
Lu6 Lu8 3.470852 1_556
Lu7 Os0 3.011997 1_655
Lu7 Lu8 3.460602 1_655
Lu7 Lu9 3.470852 1_554
Lu10 Lu3 3.318674 1_445
Lu10 Lu2 3.375472 1_555
Lu10 Lu5 3.460599 1_445
Lu10 Lu6 3.460602 1_545
Lu10 Lu7 3.470861 1_556
Lu10 Lu4 3.470872 1_555
Lu11 Lu2 3.318674 1_665
Lu11 Lu3 3.375472 1_555
Lu11 Lu4 3.460599 1_665
Lu11 Lu7 3.460602 1_565
Lu11 Lu6 3.470861 1_554
Lu11 Lu5 3.470872 1_555
Al0 Lu3 3.175445 1_555
Al0 Lu2 3.175445 1_554
Al0 Lu0 3.175445 1_555
Al0 Lu1 3.175445 1_554
Al0 Lu8 3.260720 1_555
Al0 Lu9 3.260720 1_554
Al0 Lu11 3.260725 1_555
Al0 Lu10 3.260725 1_554
Al0 Lu6 3.514131 1_554
Al0 Lu7 3.514131 1_555
Al0 Lu4 3.514132 1_554
Al0 Lu5 3.514132 1_555
Co0 Co1 2.259949 1_545
Co0 Lu3 2.721719 1_445
Co0 Lu0 2.721720 1_555
Co0 Lu8 2.746097 1_545
Co0 Lu9 2.746101 1_555
Co0 Lu11 2.746103 1_545
Co0 Lu10 2.746107 1_555
Co0 Lu6 3.065759 1_544
Co0 Lu4 3.065765 1_555
Co1 Lu2 2.721719 1_665
Co1 Lu1 2.721720 1_555
Co1 Lu9 2.746097 1_565
Co1 Lu8 2.746101 1_555
Co1 Lu10 2.746103 1_565
Co1 Lu11 2.746107 1_555
Co1 Lu7 3.065759 1_566
Co1 Lu5 3.065765 1_555
Co2 Co3 2.147107 1_455
Co2 Lu10 2.633061 1_565
Co2 Lu8 2.633068 1_555
Co2 Lu5 2.813702 1_455
Co2 Lu4 2.813703 1_555
Co2 Lu7 2.813706 1_455
Co2 Lu6 2.813710 1_555
Co2 Lu1 3.187397 1_555
Co2 Lu3 3.187397 1_455
Co3 Lu11 2.633061 1_545
Co3 Lu9 2.633068 1_555
Co3 Lu4 2.813702 1_655
Co3 Lu5 2.813703 1_555
Co3 Lu6 2.813706 1_655
Co3 Lu7 2.813710 1_555
Co3 Lu0 3.187397 1_555
Co3 Lu2 3.187397 1_655
