# generated using pymatgen
data_Rb4NaBi2Au
_symmetry_space_group_name_H-M   'P 1'
_cell_length_a   7.19574560
_cell_length_b   7.19574608
_cell_length_c   6.56282545
_cell_angle_alpha   92.60329381
_cell_angle_beta   92.60329253
_cell_angle_gamma   101.32103381
_symmetry_Int_Tables_number   1
_chemical_formula_structural   Rb4NaBi2Au
_chemical_formula_sum   'Rb4 Na1 Bi2 Au1'
_cell_volume   332.34665240
_cell_formula_units_Z   1
loop_
 _symmetry_equiv_pos_site_id
 _symmetry_equiv_pos_as_xyz
  1  'x, y, z'
loop_
 _atom_site_type_symbol
 _atom_site_label
 _atom_site_symmetry_multiplicity
 _atom_site_fract_x
 _atom_site_fract_y
 _atom_site_fract_z
 _atom_site_occupancy
  Rb  Rb0  1  0.81463250  0.46798791  0.73829524  1
  Rb  Rb1  1  0.53201209  0.18536750  0.26170476  1
  Rb  Rb2  1  0.46798791  0.81463250  0.73829524  1
  Rb  Rb3  1  0.18536750  0.53201209  0.26170476  1
  Na  Na0  1  0.00000000  0.00000000  0.00000000  1
  Bi  Bi0  1  0.73503729  0.73503729  0.26135158  1
  Bi  Bi1  1  0.26496271  0.26496271  0.73864842  1
  Au  Au0  1  0.00000000  0.00000000  0.50000000  1
loop_
_geom_bond_atom_site_label_1
_geom_bond_atom_site_label_2
_geom_bond_distance
_geom_bond_site_symmetry_2
Rb0 Rb2 3.858304 1_555
Rb0 Rb1 3.908347 1_555
Rb0 Rb3 4.185487 1_655
Rb0 Rb3 4.203541 1_656
Rb0 Rb1 4.440331 1_556
Rb0 Rb2 4.870388 1_655
Rb0 Rb2 4.870388 1_545
Rb1 Rb3 3.858304 1_555
Rb1 Rb2 4.185488 1_545
Rb1 Rb2 4.203541 1_544
Rb1 Rb3 4.870388 1_655
Rb1 Rb3 4.870388 1_545
Rb2 Rb3 3.908347 1_555
Rb2 Rb3 4.440331 1_556
Na0 Rb1 4.071138 1_555
Na0 Rb2 4.071138 1_444
Na0 Rb3 4.071138 1_555
Na0 Rb0 4.071138 1_444
Na0 Rb2 4.260292 1_544
Na0 Rb1 4.260292 1_455
Na0 Rb0 4.260293 1_454
Na0 Rb3 4.260293 1_545
Bi0 Na0 3.062539 1_665
Bi0 Rb3 3.806987 1_655
Bi0 Rb1 3.806987 1_565
Bi0 Rb2 3.825418 1_555
Bi0 Rb0 3.825418 1_555
Bi0 Rb3 3.938407 1_555
Bi0 Rb1 3.938407 1_555
Bi0 Rb2 3.976904 1_554
Bi0 Rb0 3.976904 1_554
Bi1 Na0 3.062539 1_556
Bi1 Rb0 3.806987 1_455
Bi1 Rb2 3.806987 1_545
Bi1 Rb1 3.825418 1_555
Bi1 Rb3 3.825418 1_555
Bi1 Rb0 3.938407 1_555
Bi1 Rb2 3.938407 1_555
Bi1 Rb1 3.976904 1_556
Bi1 Rb3 3.976904 1_556
Au0 Bi1 2.784522 1_555
Au0 Bi0 2.784522 1_445
Au0 Na0 3.281413 1_555
Au0 Na0 3.281413 1_556
Au0 Rb2 4.127924 1_545
Au0 Rb1 4.127924 1_455
Au0 Rb0 4.127924 1_455
Au0 Rb3 4.127924 1_545
Au0 Rb1 4.196281 1_555
Au0 Rb2 4.196281 1_445
Au0 Rb3 4.196282 1_555
Au0 Rb0 4.196282 1_445
