# generated using pymatgen
data_Cd5Ag(IO6)2
_symmetry_space_group_name_H-M   'P 1'
_cell_length_a   5.73420241
_cell_length_b   5.55166677
_cell_length_c   9.92340759
_cell_angle_alpha   55.73945757
_cell_angle_beta   89.81596886
_cell_angle_gamma   89.87670799
_symmetry_Int_Tables_number   1
_chemical_formula_structural   Cd5Ag(IO6)2
_chemical_formula_sum   'Cd5 Ag1 I2 O12'
_cell_volume   261.09019175
_cell_formula_units_Z   1
loop_
 _symmetry_equiv_pos_site_id
 _symmetry_equiv_pos_as_xyz
  1  'x, y, z'
loop_
 _atom_site_type_symbol
 _atom_site_label
 _atom_site_symmetry_multiplicity
 _atom_site_fract_x
 _atom_site_fract_y
 _atom_site_fract_z
 _atom_site_occupancy
  Cd  Cd0  1  0.95817246  0.24287024  0.24255857  1
  Cd  Cd1  1  0.45346596  0.74512100  0.26762503  1
  Cd  Cd2  1  0.04182754  0.75712976  0.75744143  1
  Cd  Cd3  1  0.54653404  0.25487900  0.73237497  1
  Cd  Cd4  1  0.50000000  0.50000000  0.00000000  1
  Ag  Ag0  1  0.00000000  0.50000000  0.50000000  1
  I  I0  1  0.00000000  0.00000000  0.00000000  1
  I  I1  1  0.50000000  0.00000000  0.50000000  1
  O  O0  1  0.27168678  0.92515708  0.90456277  1
  O  O1  1  0.76535154  0.06683827  0.58837166  1
  O  O2  1  0.72831322  0.07484292  0.09543723  1
  O  O3  1  0.23464846  0.93316173  0.41162834  1
  O  O4  1  0.18141509  0.23918362  0.04835300  1
  O  O5  1  0.66943873  0.75630781  0.45921784  1
  O  O6  1  0.81858491  0.76081638  0.95164700  1
  O  O7  1  0.33056127  0.24369219  0.54078216  1
  O  O8  1  0.41412906  0.66575327  0.71448235  1
  O  O9  1  0.91072103  0.34172568  0.78800146  1
  O  O10  1  0.58587094  0.33424673  0.28551765  1
  O  O11  1  0.08927897  0.65827432  0.21199854  1
loop_
_geom_bond_atom_site_label_1
_geom_bond_atom_site_label_2
_geom_bond_distance
_geom_bond_site_symmetry_2
Cd0 O3 2.245435 1_645
Cd0 O11 2.279081 1_655
Cd0 O10 2.286843 1_555
Cd0 O4 2.319827 1_655
Cd0 O2 2.507970 1_555
Cd1 O11 2.282467 1_555
Cd1 O2 2.286430 1_565
Cd1 O5 2.302333 1_555
Cd1 O10 2.312683 1_555
Cd1 O3 2.523632 1_555
Cd1 O7 2.663437 1_555
Cd2 O1 2.245435 1_465
Cd2 O9 2.279081 1_455
Cd2 O8 2.286843 1_555
Cd2 O6 2.319827 1_455
Cd2 O0 2.507970 1_555
Cd3 O9 2.282467 1_555
Cd3 O0 2.286430 1_545
Cd3 O7 2.302333 1_555
Cd3 O8 2.312683 1_555
Cd3 O1 2.523632 1_555
Cd3 O5 2.663437 1_555
Cd4 O6 2.210802 1_554
Cd4 O4 2.210802 1_555
Cd4 O0 2.379054 1_554
Cd4 O2 2.379054 1_555
Cd4 O10 2.487643 1_555
Cd4 O8 2.487643 1_554
Ag0 O7 2.264160 1_555
Ag0 O5 2.264160 1_455
Ag0 O3 2.448333 1_555
Ag0 O1 2.448333 1_455
Ag0 O9 2.523327 1_455
Ag0 O11 2.523327 1_555
I0 O11 1.948356 1_545
I0 O9 1.948356 1_454
I0 O4 1.949911 1_555
I0 O6 1.949911 1_444
I0 O2 1.981776 1_455
I0 O0 1.981776 1_544
I1 O7 1.883184 1_555
I1 O5 1.883184 1_545
I1 O1 1.897184 1_555
I1 O3 1.897184 1_545
I1 O8 1.940688 1_545
I1 O10 1.940688 1_555
