# generated using pymatgen
data_Hf5ZrBeI12
_symmetry_space_group_name_H-M   'P 1'
_cell_length_a   9.18218092
_cell_length_b   9.16898833
_cell_length_c   9.19658952
_cell_angle_alpha   107.21636665
_cell_angle_beta   107.05879152
_cell_angle_gamma   106.97128192
_symmetry_Int_Tables_number   1
_chemical_formula_structural   Hf5ZrBeI12
_chemical_formula_sum   'Hf5 Zr1 Be1 I12'
_cell_volume   643.36912841
_cell_formula_units_Z   1
loop_
 _symmetry_equiv_pos_site_id
 _symmetry_equiv_pos_as_xyz
  1  'x, y, z'
loop_
 _atom_site_type_symbol
 _atom_site_label
 _atom_site_symmetry_multiplicity
 _atom_site_fract_x
 _atom_site_fract_y
 _atom_site_fract_z
 _atom_site_occupancy
  Hf  Hf0  1  0.97160276  0.72333351  0.90799915  1
  Hf  Hf1  1  0.27816140  0.09225531  0.02921183  1
  Hf  Hf2  1  0.09186073  0.02948464  0.27740409  1
  Hf  Hf3  1  0.90825909  0.97207515  0.72330789  1
  Hf  Hf4  1  0.72284723  0.90854415  0.97141905  1
  Zr  Zr0  1  0.02896637  0.28278000  0.09376864  1
  Be  Be0  1  0.00031475  0.00103598  0.00024083  1
  I  I0  1  0.92038731  0.30806790  0.77144060  1
  I  I1  1  0.68483641  0.22088594  0.07747093  1
  I  I2  1  0.44450379  0.14290095  0.36988030  1
  I  I3  1  0.85682483  0.63036186  0.55536775  1
  I  I4  1  0.22285127  0.07694551  0.69046393  1
  I  I5  1  0.63083311  0.55518473  0.85597188  1
  I  I6  1  0.37385797  0.44539559  0.14408584  1
  I  I7  1  0.77641839  0.92022505  0.30824300  1
  I  I8  1  0.14461175  0.36936993  0.44911771  1
  I  I9  1  0.55533922  0.85575736  0.63040391  1
  I  I10  1  0.30915636  0.77502170  0.92152337  1
  I  I11  1  0.07836727  0.69037573  0.22267928  1
loop_
_geom_bond_atom_site_label_1
_geom_bond_atom_site_label_2
_geom_bond_distance
_geom_bond_site_symmetry_2
Hf0 I3 2.861514 1_555
Hf0 I5 2.874943 1_555
Hf0 I11 2.907512 1_656
Hf0 I10 2.954358 1_655
Hf0 I0 3.474687 1_555
Hf1 I6 2.853402 1_555
Hf1 I2 2.877729 1_555
Hf1 I10 2.909606 1_544
Hf1 I4 2.958737 1_554
Hf1 I1 3.417412 1_555
Hf2 I2 2.860870 1_555
Hf2 I8 2.863066 1_555
Hf2 I7 2.903388 1_445
Hf2 I11 2.957785 1_545
Hf2 I4 3.478746 1_555
Hf3 I9 2.861344 1_555
Hf3 I3 2.875555 1_555
Hf3 I4 2.902138 1_665
Hf3 I0 2.943243 1_565
Hf3 I7 3.484392 1_555
Hf4 I5 2.859669 1_555
Hf4 I9 2.876167 1_555
Hf4 I1 2.899057 1_566
Hf4 I7 2.954257 1_556
Hf4 I10 3.473981 1_555
Be0 Hf0 2.338970 1_444
Be0 Hf3 2.340292 1_444
Be0 Hf4 2.343053 1_444
Be0 Hf2 2.343743 1_555
Be0 Hf1 2.345833 1_555
Be0 Zr0 2.374377 1_555
I0 Zr0 2.939865 1_656
I1 Zr0 2.992353 1_655
I6 Zr0 2.905425 1_555
I8 Zr0 2.893731 1_555
I11 Zr0 3.413252 1_555
