# generated using pymatgen
data_Sr4W(BrN2)2
_symmetry_space_group_name_H-M   'P 1'
_cell_length_a   6.06000537
_cell_length_b   8.03225017
_cell_length_c   10.62017953
_cell_angle_alpha   81.73117222
_cell_angle_beta   90.00000000
_cell_angle_gamma   90.00000000
_symmetry_Int_Tables_number   1
_chemical_formula_structural   Sr4W(BrN2)2
_chemical_formula_sum   'Sr8 W2 Br4 N8'
_cell_volume   511.56828791
_cell_formula_units_Z   2
loop_
 _symmetry_equiv_pos_site_id
 _symmetry_equiv_pos_as_xyz
  1  'x, y, z'
loop_
 _atom_site_type_symbol
 _atom_site_label
 _atom_site_symmetry_multiplicity
 _atom_site_fract_x
 _atom_site_fract_y
 _atom_site_fract_z
 _atom_site_occupancy
  Sr  Sr0  1  0.75000000  0.28367101  0.30476534  1
  Sr  Sr1  1  0.75000000  0.00340992  0.61919644  1
  Sr  Sr2  1  0.75000000  0.44905388  0.61444596  1
  Sr  Sr3  1  0.75000000  0.81455106  0.09435384  1
  Sr  Sr4  1  0.25000000  0.99659008  0.38080356  1
  Sr  Sr5  1  0.25000000  0.55094612  0.38555404  1
  Sr  Sr6  1  0.25000000  0.18544894  0.90564616  1
  Sr  Sr7  1  0.25000000  0.71632899  0.69523466  1
  W  W0  1  0.75000000  0.77109571  0.39368759  1
  W  W1  1  0.25000000  0.22890429  0.60631241  1
  Br  Br0  1  0.25000000  0.32259402  0.16660830  1
  Br  Br1  1  0.75000000  0.67740598  0.83339170  1
  Br  Br2  1  0.25000000  0.83661610  0.10018939  1
  Br  Br3  1  0.75000000  0.16338390  0.89981061  1
  N  N0  1  0.25000000  0.02666892  0.71601682  1
  N  N1  1  0.00009412  0.24642468  0.50003707  1
  N  N2  1  0.50009412  0.75357532  0.49996293  1
  N  N3  1  0.99990588  0.75357532  0.49996293  1
  N  N4  1  0.75000000  0.60161473  0.29074141  1
  N  N5  1  0.75000000  0.97333108  0.28398318  1
  N  N6  1  0.49990588  0.24642468  0.50003707  1
  N  N7  1  0.25000000  0.39838527  0.70925859  1
loop_
_geom_bond_atom_site_label_1
_geom_bond_atom_site_label_2
_geom_bond_distance
_geom_bond_site_symmetry_2
Br0 Sr6 3.126125 1_554
Br0 Sr5 3.161917 1_555
Br0 Sr4 3.212182 1_545
Br0 Sr0 3.361480 1_555
Br0 Sr0 3.361480 1_455
Br1 Sr3 3.126125 1_556
Br1 Sr2 3.161917 1_555
Br1 Sr1 3.212182 1_565
Br1 Sr7 3.361480 1_655
Br1 Sr7 3.361480 1_555
Br2 Sr3 3.036335 1_555
Br2 Sr3 3.036335 1_455
Br2 Sr6 3.233311 1_564
Br2 Sr4 3.410864 1_555
Br2 Sr5 3.528389 1_555
Br3 Sr6 3.036335 1_655
Br3 Sr6 3.036335 1_555
Br3 Sr3 3.233311 1_546
Br3 Sr1 3.410864 1_555
Br3 Sr2 3.528389 1_555
N0 W1 1.857885 1_555
N0 Sr7 2.533901 1_545
N0 Sr6 2.533990 1_555
N0 Sr1 3.213778 1_455
N0 Sr1 3.213778 1_555
N1 W1 1.881887 1_555
N1 Sr0 2.551223 1_455
N1 Sr2 2.644066 1_455
N1 Sr1 2.645382 1_455
N1 Sr4 2.941914 1_545
N1 Sr5 2.983156 1_555
N2 W0 1.881887 1_555
N2 Sr7 2.551223 1_555
N2 Sr5 2.644066 1_555
N2 Sr4 2.645382 1_555
N2 Sr1 2.941914 1_565
N2 Sr2 2.983156 1_555
N3 W0 1.881887 1_555
N3 Sr7 2.551223 1_655
N3 Sr5 2.644066 1_655
N3 Sr4 2.645382 1_655
N3 Sr1 2.941914 1_565
N3 Sr2 2.983156 1_555
N4 W0 1.864562 1_555
N4 Sr3 2.499856 1_555
N4 Sr0 2.536669 1_555
N4 Sr5 3.200403 1_655
N4 Sr5 3.200403 1_555
N5 W0 1.857885 1_555
N5 Sr0 2.533901 1_565
N5 Sr3 2.533990 1_555
N5 Sr4 3.213778 1_555
N5 Sr4 3.213778 1_655
N6 W1 1.881887 1_555
N6 Sr0 2.551223 1_555
N6 Sr2 2.644066 1_555
N6 Sr1 2.645382 1_555
N6 Sr4 2.941914 1_545
N6 Sr5 2.983156 1_555
N7 W1 1.864562 1_555
N7 Sr6 2.499856 1_555
N7 Sr7 2.536669 1_555
N7 Sr2 3.200403 1_455
N7 Sr2 3.200403 1_555
