# generated using pymatgen
data_LiLuHgPb
_symmetry_space_group_name_H-M   'P 1'
_cell_length_a   5.06764872
_cell_length_b   5.06764853
_cell_length_c   5.06764854
_cell_angle_alpha   59.99999358
_cell_angle_beta   59.99999482
_cell_angle_gamma   59.99999530
_symmetry_Int_Tables_number   1
_chemical_formula_structural   LiLuHgPb
_chemical_formula_sum   'Li1 Lu1 Hg1 Pb1'
_cell_volume   92.02470311
_cell_formula_units_Z   1
loop_
 _symmetry_equiv_pos_site_id
 _symmetry_equiv_pos_as_xyz
  1  'x, y, z'
loop_
 _atom_site_type_symbol
 _atom_site_label
 _atom_site_symmetry_multiplicity
 _atom_site_fract_x
 _atom_site_fract_y
 _atom_site_fract_z
 _atom_site_occupancy
  Li  Li0  1  0.50000000  0.50000000  0.50000000  1
  Lu  Lu0  1  0.00000000  0.00000000  0.00000000  1
  Hg  Hg0  1  0.75000000  0.75000000  0.75000000  1
  Pb  Pb0  1  0.25000000  0.25000000  0.25000000  1
loop_
_geom_bond_atom_site_label_1
_geom_bond_atom_site_label_2
_geom_bond_distance
_geom_bond_site_symmetry_2
Li0 Pb0 3.103288 1_556
Li0 Pb0 3.103288 1_565
Li0 Pb0 3.103288 1_655
Li0 Pb0 3.103288 1_555
Lu0 Pb0 3.103288 1_554
Lu0 Pb0 3.103288 1_545
Lu0 Pb0 3.103288 1_455
Lu0 Pb0 3.103288 1_555
Hg0 Li0 3.103288 1_556
Hg0 Lu0 3.103288 1_665
Hg0 Lu0 3.103288 1_656
Hg0 Li0 3.103288 1_565
Hg0 Li0 3.103288 1_655
Hg0 Lu0 3.103288 1_566
Hg0 Lu0 3.103288 1_666
Hg0 Li0 3.103288 1_555
