# generated using pymatgen
data_BiBO3
_symmetry_space_group_name_H-M   'P 1'
_cell_length_a   5.03601570
_cell_length_b   6.58500613
_cell_length_c   8.30720892
_cell_angle_alpha   109.71207830
_cell_angle_beta   90.00000000
_cell_angle_gamma   90.00000000
_symmetry_Int_Tables_number   1
_chemical_formula_structural   BiBO3
_chemical_formula_sum   'Bi4 B4 O12'
_cell_volume   259.34169066
_cell_formula_units_Z   4
loop_
 _symmetry_equiv_pos_site_id
 _symmetry_equiv_pos_as_xyz
  1  'x, y, z'
loop_
 _atom_site_type_symbol
 _atom_site_label
 _atom_site_symmetry_multiplicity
 _atom_site_fract_x
 _atom_site_fract_y
 _atom_site_fract_z
 _atom_site_occupancy
  Bi  Bi0  1  0.74487982  0.26058038  0.37659244  1
  Bi  Bi1  1  0.24487982  0.73941962  0.12340756  1
  Bi  Bi2  1  0.25512018  0.73941962  0.62340756  1
  Bi  Bi3  1  0.75512018  0.26058038  0.87659244  1
  B  B0  1  0.75398801  0.78866643  0.38834902  1
  B  B1  1  0.25398801  0.21133357  0.11165098  1
  B  B2  1  0.24601199  0.21133357  0.61165098  1
  B  B3  1  0.74601199  0.78866643  0.88834902  1
  O  O0  1  0.47440942  0.76279203  0.86610690  1
  O  O1  1  0.97440942  0.23720797  0.63389310  1
  O  O2  1  0.52559058  0.23720797  0.13389310  1
  O  O3  1  0.02559058  0.76279203  0.36610690  1
  O  O4  1  0.88447411  0.92742296  0.82674782  1
  O  O5  1  0.38447411  0.07257704  0.67325218  1
  O  O6  1  0.11552589  0.07257704  0.17325218  1
  O  O7  1  0.61552589  0.92742296  0.32674782  1
  O  O8  1  0.87654506  0.66262777  0.96560214  1
  O  O9  1  0.37654506  0.33737223  0.53439786  1
  O  O10  1  0.12345494  0.33737223  0.03439786  1
  O  O11  1  0.62345494  0.66262777  0.46560214  1
loop_
_geom_bond_atom_site_label_1
_geom_bond_atom_site_label_2
_geom_bond_distance
_geom_bond_site_symmetry_2
Bi0 O7 2.189969 1_545
Bi0 O9 2.228866 1_555
Bi0 O2 2.258056 1_555
Bi0 O1 2.480008 1_555
Bi0 O6 2.541539 1_655
Bi0 O11 2.570850 1_555
Bi1 O6 2.189969 1_565
Bi1 O8 2.228866 1_454
Bi1 O3 2.258056 1_555
Bi1 O0 2.480008 1_554
Bi1 O7 2.541539 1_555
Bi1 O10 2.570850 1_555
Bi2 O5 2.189969 1_565
Bi2 O11 2.228866 1_555
Bi2 O0 2.258056 1_555
Bi2 O3 2.480008 1_555
Bi2 O4 2.541539 1_455
Bi2 O9 2.570850 1_555
Bi3 O4 2.189969 1_545
Bi3 O10 2.228866 1_656
Bi3 O1 2.258056 1_555
Bi3 O2 2.480008 1_556
Bi3 O5 2.541539 1_555
Bi3 O8 2.570850 1_555
B0 O11 1.375550 1_555
B0 O7 1.377820 1_555
B0 O3 1.383039 1_655
B1 O10 1.375550 1_555
B1 O6 1.377820 1_555
B1 O2 1.383039 1_555
B2 O9 1.375550 1_555
B2 O5 1.377820 1_555
B2 O1 1.383039 1_455
B3 O8 1.375550 1_555
B3 O4 1.377820 1_555
B3 O0 1.383039 1_555
