# generated using pymatgen
data_GaHgBr4
_symmetry_space_group_name_H-M   'P 1'
_cell_length_a   6.83671563
_cell_length_b   6.97586862
_cell_length_c   9.96798725
_cell_angle_alpha   82.72663339
_cell_angle_beta   74.70850958
_cell_angle_gamma   61.18160393
_symmetry_Int_Tables_number   1
_chemical_formula_structural   GaHgBr4
_chemical_formula_sum   'Ga2 Hg2 Br8'
_cell_volume   401.77079183
_cell_formula_units_Z   2
loop_
 _symmetry_equiv_pos_site_id
 _symmetry_equiv_pos_as_xyz
  1  'x, y, z'
loop_
 _atom_site_type_symbol
 _atom_site_label
 _atom_site_symmetry_multiplicity
 _atom_site_fract_x
 _atom_site_fract_y
 _atom_site_fract_z
 _atom_site_occupancy
  Ga  Ga0  1  0.38199357  0.84978827  0.76409858  1
  Ga  Ga1  1  0.61800643  0.15021173  0.23590142  1
  Hg  Hg0  1  0.94388589  0.50862329  0.88387908  1
  Hg  Hg1  1  0.05611411  0.49137671  0.11612092  1
  Br  Br0  1  0.75586275  0.54338278  0.67486812  1
  Br  Br1  1  0.24413725  0.45661722  0.32513188  1
  Br  Br2  1  0.32505008  0.82570201  0.00438635  1
  Br  Br3  1  0.67494992  0.17429799  0.99561365  1
  Br  Br4  1  0.12501375  0.80996705  0.67300305  1
  Br  Br5  1  0.87498625  0.19003295  0.32699695  1
  Br  Br6  1  0.40016297  0.17107114  0.68550325  1
  Br  Br7  1  0.59983703  0.82892886  0.31449675  1
loop_
_geom_bond_atom_site_label_1
_geom_bond_atom_site_label_2
_geom_bond_distance
_geom_bond_site_symmetry_2
Hg0 Hg1 2.596094 1_656
Br0 Ga0 2.430689 1_555
Br0 Hg0 2.652554 1_555
Br1 Ga1 2.430689 1_555
Br1 Hg1 2.652554 1_555
Br2 Ga0 2.320782 1_554
Br3 Ga1 2.320782 1_556
Br4 Ga0 2.316084 1_555
Br4 Hg0 3.223140 1_455
Br5 Ga1 2.316084 1_555
Br5 Hg1 3.223140 1_655
Br6 Ga0 2.329115 1_545
Br6 Hg0 3.166965 1_455
Br7 Ga1 2.329115 1_565
Br7 Hg1 3.166965 1_655
