# generated using pymatgen
data_Ti6Si7Ni16
_symmetry_space_group_name_H-M   'P 1'
_cell_length_a   7.84117297
_cell_length_b   7.84118540
_cell_length_c   7.84118196
_cell_angle_alpha   60.00186386
_cell_angle_beta   60.00183940
_cell_angle_gamma   60.00186508
_symmetry_Int_Tables_number   1
_chemical_formula_structural   Ti6Si7Ni16
_chemical_formula_sum   'Ti6 Si7 Ni16'
_cell_volume   340.91614346
_cell_formula_units_Z   1
loop_
 _symmetry_equiv_pos_site_id
 _symmetry_equiv_pos_as_xyz
  1  'x, y, z'
loop_
 _atom_site_type_symbol
 _atom_site_label
 _atom_site_symmetry_multiplicity
 _atom_site_fract_x
 _atom_site_fract_y
 _atom_site_fract_z
 _atom_site_occupancy
  Ti  Ti0  1  0.79802510  0.20197221  0.79802454  1
  Ti  Ti1  1  0.20197491  0.20197579  0.79802791  1
  Ti  Ti2  1  0.79802437  0.79802449  0.20197286  1
  Ti  Ti3  1  0.79802770  0.20197534  0.20197542  1
  Ti  Ti4  1  0.20197201  0.79802486  0.79802486  1
  Ti  Ti5  1  0.20197540  0.79802727  0.20197576  1
  Si  Si0  1  0.49999963  0.50000031  0.49999974  1
  Si  Si1  1  -0.00001247  0.50001273  -0.00001279  1
  Si  Si2  1  0.50001300  -0.00001289  -0.00001283  1
  Si  Si3  1  -0.00001304  0.50001336  0.50001303  1
  Si  Si4  1  0.50001321  -0.00001336  0.50001353  1
  Si  Si5  1  -0.00001263  -0.00001293  0.50001302  1
  Si  Si6  1  0.50001306  0.50001307  -0.00001295  1
  Ni  Ni0  1  0.50145218  0.16618337  0.16618668  1
  Ni  Ni1  1  0.83381870  0.83382278  0.83382166  1
  Ni  Ni2  1  0.14643720  0.61785051  0.61785117  1
  Ni  Ni3  1  0.61785067  0.14643219  0.61785218  1
  Ni  Ni4  1  0.61785124  0.61785179  0.14643420  1
  Ni  Ni5  1  0.38214105  0.85359247  0.38214021  1
  Ni  Ni6  1  0.38214068  0.38213960  0.85359071  1
  Ni  Ni7  1  0.85358781  0.38214099  0.38214100  1
  Ni  Ni8  1  0.61785976  0.61786339  0.61786119  1
  Ni  Ni9  1  0.16618879  0.16618188  0.50145243  1
  Ni  Ni10  1  0.16618671  0.50145289  0.16618293  1
  Ni  Ni11  1  0.83382361  0.83382917  0.49851105  1
  Ni  Ni12  1  0.83382509  0.49851056  0.83382830  1
  Ni  Ni13  1  0.49851099  0.83382883  0.83382496  1
  Ni  Ni14  1  0.16619334  0.16618935  0.16618958  1
  Ni  Ni15  1  0.38213193  0.38212798  0.38213064  1
loop_
_geom_bond_atom_site_label_1
_geom_bond_atom_site_label_2
_geom_bond_distance
_geom_bond_site_symmetry_2
Si1 Ti1 2.822970 1_554
Si1 Ti4 2.822970 1_554
Si1 Ti3 2.822973 1_455
Si1 Ti2 2.822975 1_455
Si2 Ti2 2.822971 1_545
Si2 Ti0 2.822972 1_554
Si2 Ti5 2.822973 1_545
Si2 Ti1 2.822973 1_554
Si3 Ti5 2.823030 1_555
Si3 Ti2 2.823033 1_455
Si3 Ti1 2.823034 1_555
Si3 Ti0 2.823035 1_455
Si4 Ti4 2.823033 1_545
Si4 Ti2 2.823033 1_545
Si4 Ti3 2.823034 1_555
Si4 Ti1 2.823037 1_555
Si5 Ti4 2.822970 1_545
Si5 Ti0 2.822971 1_455
Si5 Ti5 2.822973 1_545
Si5 Ti3 2.822974 1_455
Si6 Ti3 2.823034 1_555
Si6 Ti5 2.823034 1_555
Si6 Ti4 2.823035 1_554
Si6 Ti0 2.823037 1_554
Ni0 Si2 2.263701 1_555
Ni0 Si4 2.263710 1_555
Ni0 Si6 2.263730 1_555
Ni0 Ni15 2.511632 1_555
Ni0 Ni5 2.511776 1_545
Ni0 Ni6 2.511810 1_554
Ni0 Ni14 2.628788 1_555
Ni0 Ni9 2.628942 1_555
Ni0 Ni10 2.628967 1_555
Ni0 Ti3 2.636171 1_555
Ni0 Ti2 2.636264 1_545
Ni0 Ti0 2.636280 1_554
Ni1 Si2 2.263503 1_566
Ni1 Si5 2.263524 1_665
Ni1 Si1 2.263535 1_656
Ni1 Ni3 2.511987 1_565
Ni1 Ni4 2.511997 1_556
Ni1 Ni2 2.512029 1_655
Ni1 Ni13 2.629169 1_555
Ni1 Ni11 2.629187 1_555
Ni1 Ni12 2.629194 1_555
Ni1 Ti0 2.636123 1_565
Ni1 Ti2 2.636130 1_556
Ni1 Ti4 2.636136 1_655
Ni2 Si0 2.263662 1_555
Ni2 Si3 2.449873 1_555
Ni2 Si1 2.450033 1_556
Ni2 Si5 2.450038 1_565
Ni2 Ni6 2.613977 1_555
Ni2 Ni5 2.613992 1_555
Ni2 Ti4 2.721704 1_555
Ni2 Ti1 2.721736 1_555
Ni2 Ti5 2.721739 1_555
Ni3 Si0 2.263703 1_555
Ni3 Si4 2.449848 1_555
Ni3 Si2 2.450025 1_556
Ni3 Si5 2.450033 1_655
Ni3 Ni7 2.613992 1_555
Ni3 Ni6 2.613994 1_555
Ni3 Ti0 2.721722 1_555
Ni3 Ti1 2.721730 1_555
Ni3 Ti3 2.721740 1_555
Ni4 Si0 2.263685 1_555
Ni4 Si6 2.449863 1_555
Ni4 Si2 2.450029 1_565
Ni4 Si1 2.450031 1_655
Ni4 Ni7 2.613979 1_555
Ni4 Ni5 2.613998 1_555
Ni4 Ti2 2.721709 1_555
Ni4 Ti5 2.721733 1_555
Ni4 Ti3 2.721743 1_555
Ni5 Si0 2.263857 1_555
Ni5 Si4 2.449942 1_565
Ni5 Si2 2.450120 1_565
Ni5 Si5 2.450121 1_565
Ni5 Ni9 2.511771 1_565
Ni5 Ni8 2.613958 1_555
Ni5 Ti5 2.721744 1_555
Ni5 Ti2 2.721746 1_555
Ni5 Ti4 2.721759 1_555
Ni6 Si0 2.263848 1_555
Ni6 Si6 2.449959 1_556
Ni6 Si1 2.450118 1_556
Ni6 Si2 2.450119 1_556
Ni6 Ni8 2.613975 1_555
Ni6 Ti1 2.721728 1_555
Ni6 Ti0 2.721757 1_555
Ni6 Ti4 2.721767 1_555
Ni7 Si0 2.263827 1_555
Ni7 Si3 2.449968 1_655
Ni7 Si1 2.450126 1_655
Ni7 Si5 2.450129 1_655
Ni7 Ni9 2.511840 1_655
Ni7 Ni8 2.613975 1_555
Ni7 Ti3 2.721726 1_555
Ni7 Ti0 2.721759 1_555
Ni7 Ti2 2.721759 1_555
Ni8 Si0 2.263722 1_555
Ni8 Si4 2.449942 1_565
Ni8 Si6 2.449956 1_556
Ni8 Si3 2.449962 1_655
Ni8 Ti4 2.721803 1_555
Ni8 Ti2 2.721809 1_555
Ni8 Ti0 2.721830 1_555
Ni9 Si4 2.263691 1_555
Ni9 Si5 2.263704 1_555
Ni9 Si3 2.263741 1_555
Ni9 Ti1 2.636170 1_555
Ni9 Ti4 2.636257 1_545
Ni9 Ti0 2.636284 1_455
Ni10 Si1 2.263698 1_555
Ni10 Si6 2.263701 1_555
Ni10 Si3 2.263730 1_555
Ni10 Ni15 2.511648 1_555
Ni10 Ni6 2.511793 1_554
Ni10 Ni7 2.511828 1_455
Ni10 Ni14 2.628812 1_555
Ni10 Ni9 2.628990 1_555
Ni10 Ti5 2.636169 1_555
Ni10 Ti4 2.636260 1_554
Ni10 Ti2 2.636277 1_455
Ni11 Si4 2.263453 1_565
Ni11 Si5 2.263482 1_665
Ni11 Si3 2.263495 1_655
Ni11 Ni8 2.511825 1_555
Ni11 Ni3 2.511978 1_565
Ni11 Ni2 2.512039 1_655
Ni11 Ni13 2.629324 1_555
Ni11 Ni12 2.629364 1_555
Ni11 Ti2 2.635993 1_555
Ni11 Ti3 2.636094 1_565
Ni11 Ti5 2.636116 1_655
Ni12 Si6 2.263464 1_556
Ni12 Si1 2.263481 1_656
Ni12 Si3 2.263488 1_655
Ni12 Ni8 2.511837 1_555
Ni12 Ni4 2.511996 1_556
Ni12 Ni2 2.512028 1_655
Ni12 Ni13 2.629348 1_555
Ni12 Ti0 2.635995 1_555
Ni12 Ti3 2.636097 1_556
Ni12 Ti1 2.636106 1_655
Ni13 Si4 2.263464 1_565
Ni13 Si2 2.263476 1_566
Ni13 Si6 2.263494 1_556
Ni13 Ni8 2.511828 1_555
Ni13 Ni3 2.511973 1_565
Ni13 Ni4 2.512013 1_556
Ni13 Ti4 2.635998 1_555
Ni13 Ti1 2.636098 1_565
Ni13 Ti5 2.636113 1_556
Ni14 Si2 2.263734 1_555
Ni14 Si5 2.263760 1_555
Ni14 Si1 2.263761 1_555
Ni14 Ni5 2.511797 1_545
Ni14 Ni6 2.511797 1_554
Ni14 Ni7 2.511836 1_455
Ni14 Ni9 2.628810 1_555
Ni14 Ti1 2.636286 1_554
Ni14 Ti5 2.636289 1_545
Ni14 Ti3 2.636301 1_455
Ni15 Si0 2.263879 1_555
Ni15 Si4 2.450037 1_555
Ni15 Si6 2.450049 1_555
Ni15 Si3 2.450055 1_555
Ni15 Ni9 2.511631 1_555
Ni15 Ni3 2.613961 1_555
Ni15 Ni4 2.613977 1_555
Ni15 Ni2 2.613978 1_555
Ni15 Ti3 2.721821 1_555
Ni15 Ti1 2.721834 1_555
Ni15 Ti5 2.721849 1_555
