# generated using pymatgen
data_Zn(FeO2)2
_symmetry_space_group_name_H-M   'P 1'
_cell_length_a   6.06594075
_cell_length_b   6.06594075
_cell_length_c   14.85353300
_cell_angle_alpha   90.00000000
_cell_angle_beta   90.00000000
_cell_angle_gamma   120.00000814
_symmetry_Int_Tables_number   1
_chemical_formula_structural   Zn(FeO2)2
_chemical_formula_sum   'Zn6 Fe12 O24'
_cell_volume   473.32199781
_cell_formula_units_Z   6
loop_
 _symmetry_equiv_pos_site_id
 _symmetry_equiv_pos_as_xyz
  1  'x, y, z'
loop_
 _atom_site_type_symbol
 _atom_site_label
 _atom_site_symmetry_multiplicity
 _atom_site_fract_x
 _atom_site_fract_y
 _atom_site_fract_z
 _atom_site_occupancy
  Zn  Zn0  1  0.66666700  0.33333300  0.95566600  1
  Zn  Zn1  1  0.00000000  0.00000000  0.62143400  1
  Zn  Zn2  1  0.33333300  0.66666700  0.66526300  1
  Zn  Zn3  1  0.33333300  0.66666700  0.29196700  1
  Zn  Zn4  1  0.00000000  0.00000000  0.99923900  1
  Zn  Zn5  1  0.00000000  0.00000000  0.37701000  1
  Fe  Fe0  1  0.16387000  0.83613000  0.83381200  1
  Fe  Fe1  1  0.16387000  0.32774100  0.83381200  1
  Fe  Fe2  1  0.49798300  0.50201700  0.50082500  1
  Fe  Fe3  1  0.67225900  0.83613000  0.83381200  1
  Fe  Fe4  1  0.49798300  0.99596600  0.50082500  1
  Fe  Fe5  1  0.66666700  0.33333300  0.33560800  1
  Fe  Fe6  1  0.66666700  0.33333300  0.71162900  1
  Fe  Fe7  1  0.83221700  0.16778300  0.16753800  1
  Fe  Fe8  1  0.00403400  0.50201700  0.50082500  1
  Fe  Fe9  1  0.83221700  0.66443500  0.16753800  1
  Fe  Fe10  1  0.33556500  0.16778300  0.16753800  1
  Fe  Fe11  1  0.33333300  0.66666700  0.04291600  1
  O  O0  1  0.84475500  0.15524500  0.90944100  1
  O  O1  1  0.00000000  0.00000000  0.75839000  1
  O  O2  1  0.84475500  0.68950900  0.90944100  1
  O  O3  1  0.31049100  0.15524500  0.90944100  1
  O  O4  1  0.17754400  0.82245600  0.57524300  1
  O  O5  1  0.01560700  0.50780300  0.75582800  1
  O  O6  1  0.33333300  0.66666700  0.42539700  1
  O  O7  1  0.49219700  0.98439300  0.75582800  1
  O  O8  1  0.33333300  0.66666700  0.91056500  1
  O  O9  1  0.17754400  0.35508800  0.57524300  1
  O  O10  1  0.64491200  0.82245600  0.57524300  1
  O  O11  1  0.49219700  0.50780300  0.75582800  1
  O  O12  1  0.51425200  0.48574800  0.24635000  1
  O  O13  1  0.36316700  0.18158300  0.41998600  1
  O  O14  1  0.81841700  0.63683300  0.41998600  1
  O  O15  1  0.66666700  0.33333300  0.09283200  1
  O  O16  1  0.66666700  0.33333300  0.57923200  1
  O  O17  1  0.51425200  0.02850300  0.24635000  1
  O  O18  1  0.97149700  0.48574800  0.24635000  1
  O  O19  1  0.81841700  0.18158300  0.41998600  1
  O  O20  1  0.67907400  0.83953700  0.08903400  1
  O  O21  1  0.16046300  0.32092600  0.08903400  1
  O  O22  1  0.00000000  0.00000000  0.23850000  1
  O  O23  1  0.16046300  0.83953700  0.08903400  1
loop_
_geom_bond_atom_site_label_1
_geom_bond_atom_site_label_2
_geom_bond_distance
_geom_bond_site_symmetry_2
Fe0 O2 2.019501 1_455
Fe0 O3 2.019501 1_565
Fe0 O1 2.054092 1_565
Fe0 O5 2.079889 1_555
Fe0 O7 2.079889 1_555
Fe0 O8 2.114186 1_555
Fe1 O0 2.019502 1_455
Fe1 O3 2.019511 1_555
Fe1 O1 2.054097 1_555
Fe1 O5 2.079880 1_555
Fe1 O11 2.079888 1_555
Fe1 O8 2.114185 1_555
Fe2 O10 2.015442 1_555
Fe2 O9 2.015442 1_555
Fe2 O6 2.061015 1_555
Fe2 O14 2.073428 1_555
Fe2 O13 2.073428 1_555
Fe2 O16 2.120689 1_555
Fe3 O0 2.019502 1_565
Fe3 O2 2.019511 1_555
Fe3 O1 2.054097 1_665
Fe3 O7 2.079880 1_555
Fe3 O11 2.079888 1_555
Fe3 O8 2.114185 1_555
Fe4 O4 2.015442 1_555
Fe4 O10 2.015442 1_555
Fe4 O6 2.061010 1_555
Fe4 O13 2.073424 1_565
Fe4 O19 2.073428 1_565
Fe4 O16 2.120685 1_565
Fe5 O13 2.028000 1_555
Fe5 O14 2.028000 1_555
Fe5 O19 2.028001 1_555
Fe5 O17 2.078957 1_555
Fe5 O18 2.078957 1_555
Fe5 O12 2.078957 1_555
Fe6 O5 1.947090 1_655
Fe6 O7 1.947090 1_545
Fe6 O11 1.947090 1_555
Fe6 O16 1.966563 1_555
Fe7 O17 2.043221 1_555
Fe7 O18 2.043221 1_555
Fe7 O22 2.053901 1_655
Fe7 O15 2.063170 1_555
Fe7 O20 2.082680 1_545
Fe7 O21 2.082680 1_655
Fe8 O4 2.015442 1_555
Fe8 O9 2.015442 1_555
Fe8 O6 2.061010 1_555
Fe8 O14 2.073424 1_455
Fe8 O19 2.073428 1_455
Fe8 O16 2.120685 1_455
Fe9 O12 2.043221 1_555
Fe9 O18 2.043230 1_555
Fe9 O22 2.053896 1_665
Fe9 O15 2.063179 1_555
Fe9 O20 2.082676 1_555
Fe9 O23 2.082680 1_655
Fe10 O12 2.043221 1_555
Fe10 O17 2.043230 1_555
Fe10 O22 2.053896 1_555
Fe10 O15 2.063179 1_555
Fe10 O21 2.082676 1_555
Fe10 O23 2.082680 1_545
Fe11 O23 1.941147 1_555
Fe11 O20 1.941152 1_555
Fe11 O21 1.941152 1_555
Fe11 O8 1.965880 1_554
O0 Zn0 1.993084 1_555
O0 Zn4 2.107013 1_655
O1 Zn1 2.034280 1_555
O2 Zn0 1.993084 1_555
O2 Zn4 2.107017 1_665
O3 Zn0 1.993084 1_555
O3 Zn4 2.107017 1_555
O4 Zn1 1.987545 1_565
O4 Zn2 2.113526 1_555
O5 Zn2 2.143706 1_555
O6 Zn3 1.981907 1_555
O7 Zn2 2.143706 1_555
O9 Zn1 1.987545 1_555
O9 Zn2 2.113530 1_555
O10 Zn1 1.987545 1_665
O10 Zn2 2.113530 1_555
O11 Zn2 2.143714 1_555
O12 Zn3 2.017983 1_555
O13 Zn5 2.011771 1_555
O14 Zn5 2.011771 1_665
O15 Zn0 2.037400 1_554
O17 Zn3 2.017973 1_545
O18 Zn3 2.017973 1_655
O19 Zn5 2.011767 1_655
O20 Zn4 2.149705 1_664
O21 Zn4 2.149705 1_554
O22 Zn5 2.057363 1_555
O23 Zn4 2.149706 1_564
