# generated using pymatgen
data_Ta8SnPbO22
_symmetry_space_group_name_H-M   'P 1'
_cell_length_a   6.26916560
_cell_length_b   6.26916508
_cell_length_c   12.40520759
_cell_angle_alpha   90.00000000
_cell_angle_beta   90.00000000
_cell_angle_gamma   120.00000275
_symmetry_Int_Tables_number   1
_chemical_formula_structural   Ta8SnPbO22
_chemical_formula_sum   'Ta8 Sn1 Pb1 O22'
_cell_volume   422.23487736
_cell_formula_units_Z   1
loop_
 _symmetry_equiv_pos_site_id
 _symmetry_equiv_pos_as_xyz
  1  'x, y, z'
loop_
 _atom_site_type_symbol
 _atom_site_label
 _atom_site_symmetry_multiplicity
 _atom_site_fract_x
 _atom_site_fract_y
 _atom_site_fract_z
 _atom_site_occupancy
  Ta  Ta0  1  0.66666700  0.33333300  0.75000000  1
  Ta  Ta1  1  0.33333300  0.66666700  0.25000000  1
  Ta  Ta2  1  0.64361874  0.00039166  0.49931707  1
  Ta  Ta3  1  0.64361874  0.64322908  0.00068293  1
  Ta  Ta4  1  0.99960834  0.35638126  0.00068293  1
  Ta  Ta5  1  0.99960834  0.64322908  0.49931707  1
  Ta  Ta6  1  0.35677092  0.35638126  0.49931707  1
  Ta  Ta7  1  0.35677092  0.00039166  0.00068293  1
  Sn  Sn0  1  0.66666700  0.33333300  0.25000000  1
  Pb  Pb0  1  0.33333300  0.66666700  0.75000000  1
  O  O0  1  0.33333300  0.66666700  0.53152107  1
  O  O1  1  0.66666700  0.33333300  0.03369553  1
  O  O2  1  0.66666700  0.33333300  0.46630447  1
  O  O3  1  0.33333300  0.66666700  0.96847893  1
  O  O4  1  0.24458482  0.99978145  0.49913586  1
  O  O5  1  0.24458482  0.24480338  0.00086414  1
  O  O6  1  0.00021855  0.75541518  0.00086414  1
  O  O7  1  0.00021855  0.24480338  0.49913586  1
  O  O8  1  0.75519662  0.75541518  0.49913586  1
  O  O9  1  0.75519662  0.99978145  0.00086414  1
  O  O10  1  0.37574005  0.94106632  0.15508200  1
  O  O11  1  0.43483483  0.37169855  0.65352662  1
  O  O12  1  0.93686272  0.56516517  0.65352662  1
  O  O13  1  0.05893368  0.43467373  0.15508200  1
  O  O14  1  0.56532627  0.62425995  0.15508200  1
  O  O15  1  0.43483483  0.06313728  0.84647338  1
  O  O16  1  0.62830145  0.56516517  0.84647338  1
  O  O17  1  0.62830145  0.06313728  0.65352662  1
  O  O18  1  0.93686272  0.37169855  0.84647338  1
  O  O19  1  0.05893368  0.62425995  0.34491800  1
  O  O20  1  0.56532627  0.94106632  0.34491800  1
  O  O21  1  0.37574005  0.43467373  0.34491800  1
loop_
_geom_bond_atom_site_label_1
_geom_bond_atom_site_label_2
_geom_bond_distance
_geom_bond_site_symmetry_2
O0 Ta6 2.061781 1_555
O0 Ta2 2.061785 1_565
O0 Ta5 2.061788 1_455
O0 Pb0 2.710277 1_555
O1 Ta4 2.060017 1_555
O1 Ta7 2.060025 1_555
O1 Ta3 2.060035 1_555
O1 Sn0 2.683302 1_555
O2 Ta2 2.060016 1_555
O2 Ta5 2.060025 1_555
O2 Ta6 2.060035 1_555
O2 Sn0 2.683302 1_555
O3 Ta3 2.061782 1_556
O3 Ta4 2.061785 1_456
O3 Ta7 2.061788 1_566
O3 Pb0 2.710277 1_555
O4 Ta6 1.979942 1_565
O4 Ta5 1.980463 1_455
O4 Ta2 2.499700 1_565
O5 Ta7 1.979930 1_555
O5 Ta4 1.980473 1_455
O5 Ta3 2.499706 1_555
O6 Ta3 1.979942 1_455
O6 Ta7 1.980463 1_565
O6 Ta4 2.499700 1_455
O7 Ta2 1.979940 1_455
O7 Ta6 1.980461 1_555
O7 Ta5 2.499712 1_455
O8 Ta5 1.979930 1_555
O8 Ta2 1.980473 1_565
O8 Ta6 2.499706 1_555
O9 Ta4 1.979940 1_565
O9 Ta3 1.980461 1_555
O9 Ta7 2.499713 1_565
O10 Ta7 1.966029 1_565
O10 Ta1 1.989741 1_555
O10 Sn0 2.505057 1_565
O11 Ta6 1.965021 1_555
O11 Ta0 1.987974 1_555
O11 Pb0 2.536425 1_555
O12 Ta5 1.965021 1_555
O12 Ta0 1.987967 1_555
O12 Pb0 2.536425 1_655
O13 Ta4 1.966027 1_455
O13 Ta1 1.989742 1_555
O13 Sn0 2.505055 1_455
O14 Ta3 1.966027 1_555
O14 Ta1 1.989746 1_555
O14 Sn0 2.505061 1_555
O15 Ta7 1.965021 1_556
O15 Ta0 1.987967 1_555
O15 Pb0 2.536425 1_545
O16 Ta3 1.965021 1_556
O16 Ta0 1.987974 1_555
O16 Pb0 2.536425 1_555
O17 Ta2 1.965020 1_555
O17 Ta0 1.987964 1_555
O17 Pb0 2.536425 1_545
O18 Ta4 1.965020 1_556
O18 Ta0 1.987964 1_555
O18 Pb0 2.536425 1_655
O19 Ta5 1.966029 1_455
O19 Ta1 1.989741 1_555
O19 Sn0 2.505057 1_455
O20 Ta2 1.966027 1_565
O20 Ta1 1.989742 1_555
O20 Sn0 2.505055 1_565
O21 Ta6 1.966027 1_555
O21 Ta1 1.989746 1_555
O21 Sn0 2.505061 1_555
