# generated using pymatgen
data_TiBe3ReSi
_symmetry_space_group_name_H-M   'P 1'
_cell_length_a   4.45524459
_cell_length_b   4.45524427
_cell_length_c   7.47935452
_cell_angle_alpha   90.00000000
_cell_angle_beta   90.00000000
_cell_angle_gamma   120.00000970
_symmetry_Int_Tables_number   1
_chemical_formula_structural   TiBe3ReSi
_chemical_formula_sum   'Ti2 Be6 Re2 Si2'
_cell_volume   128.56944833
_cell_formula_units_Z   2
loop_
 _symmetry_equiv_pos_site_id
 _symmetry_equiv_pos_as_xyz
  1  'x, y, z'
loop_
 _atom_site_type_symbol
 _atom_site_label
 _atom_site_symmetry_multiplicity
 _atom_site_fract_x
 _atom_site_fract_y
 _atom_site_fract_z
 _atom_site_occupancy
  Ti  Ti0  1  0.33333300  0.66666700  0.06231086  1
  Ti  Ti1  1  0.66666700  0.33333300  0.56231086  1
  Be  Be0  1  0.82741012  0.65482024  0.25005544  1
  Be  Be1  1  0.17258988  0.82741012  0.75005544  1
  Be  Be2  1  0.65482024  0.82741012  0.75005544  1
  Be  Be3  1  0.34517976  0.17258988  0.25005544  1
  Be  Be4  1  0.82741012  0.17258988  0.25005544  1
  Be  Be5  1  0.17258988  0.34517976  0.75005544  1
  Re  Re0  1  0.66666700  0.33333300  0.93619351  1
  Re  Re1  1  0.33333300  0.66666700  0.43619351  1
  Si  Si0  1  0.00000000  0.00000000  0.00132629  1
  Si  Si1  1  0.00000000  0.00000000  0.50132629  1
loop_
_geom_bond_atom_site_label_1
_geom_bond_atom_site_label_2
_geom_bond_distance
_geom_bond_site_symmetry_2
Be0 Be3 2.148454 1_555
Be0 Be4 2.148454 1_555
Be0 Si0 2.287925 1_665
Be0 Si1 2.303409 1_665
Be0 Be3 2.306790 1_665
Be0 Be4 2.306790 1_565
Be0 Re1 2.627276 1_655
Be0 Re1 2.627280 1_555
Be0 Ti0 2.633663 1_655
Be0 Ti0 2.633667 1_555
Be0 Ti1 2.644435 1_555
Be0 Re0 2.655053 1_554
Be1 Be5 2.148454 1_555
Be1 Be2 2.148454 1_555
Be1 Si1 2.287925 1_565
Be1 Si0 2.303409 1_566
Be1 Be5 2.306790 1_565
Be1 Be2 2.306790 1_455
Be1 Re0 2.627278 1_565
Be1 Re0 2.627278 1_455
Be1 Ti1 2.633665 1_565
Be1 Ti1 2.633665 1_455
Be1 Ti0 2.644433 1_556
Be1 Re1 2.655051 1_555
Be2 Be5 2.148454 1_555
Be2 Si1 2.287925 1_665
Be2 Si0 2.303409 1_666
Be2 Be5 2.306790 1_665
Be2 Re0 2.627276 1_565
Be2 Re0 2.627280 1_555
Be2 Ti1 2.633663 1_565
Be2 Ti1 2.633667 1_555
Be2 Ti0 2.644435 1_556
Be2 Re1 2.655053 1_555
Be3 Be4 2.148454 1_555
Be3 Si0 2.287925 1_555
Be3 Si1 2.303409 1_555
Be3 Be4 2.306790 1_455
Be3 Re1 2.627276 1_545
Be3 Re1 2.627280 1_555
Be3 Ti0 2.633663 1_545
Be3 Ti0 2.633667 1_555
Be3 Ti1 2.644435 1_555
Be3 Re0 2.655053 1_554
Be4 Si0 2.287925 1_655
Be4 Si1 2.303409 1_655
Be4 Re1 2.627278 1_545
Be4 Re1 2.627278 1_655
Be4 Ti0 2.633665 1_545
Be4 Ti0 2.633665 1_655
Be4 Ti1 2.644433 1_555
Be4 Re0 2.655051 1_554
Be5 Si1 2.287925 1_555
Be5 Si0 2.303409 1_556
Be5 Re0 2.627276 1_455
Be5 Re0 2.627280 1_555
Be5 Ti1 2.633663 1_455
Be5 Ti1 2.633667 1_555
Be5 Ti0 2.644435 1_556
Be5 Re1 2.655053 1_555
Re0 Si0 2.617958 1_656
Re0 Si0 2.617961 1_666
Re0 Si0 2.617962 1_556
Re0 Ti0 2.739737 1_546
Re0 Ti0 2.739737 1_656
Re0 Ti0 2.739744 1_556
Re0 Ti1 2.796401 1_555
Re1 Si1 2.617958 1_565
Re1 Si1 2.617961 1_555
Re1 Si1 2.617962 1_665
Re1 Ti1 2.739737 1_565
Re1 Ti1 2.739737 1_455
Re1 Ti1 2.739744 1_555
Re1 Ti0 2.796401 1_555
Si0 Ti0 2.612363 1_545
Si0 Ti0 2.612366 1_555
Si0 Ti0 2.612366 1_445
Si1 Ti1 2.612363 1_455
Si1 Ti1 2.612366 1_445
Si1 Ti1 2.612366 1_555
