# generated using pymatgen
data_Rb14TaNbP8
_symmetry_space_group_name_H-M   'P 1'
_cell_length_a   8.48506031
_cell_length_b   9.34439439
_cell_length_c   10.44382375
_cell_angle_alpha   90.00000000
_cell_angle_beta   90.00000000
_cell_angle_gamma   89.99532996
_symmetry_Int_Tables_number   1
_chemical_formula_structural   Rb14TaNbP8
_chemical_formula_sum   'Rb14 Ta1 Nb1 P8'
_cell_volume   828.06728259
_cell_formula_units_Z   1
loop_
 _symmetry_equiv_pos_site_id
 _symmetry_equiv_pos_as_xyz
  1  'x, y, z'
loop_
 _atom_site_type_symbol
 _atom_site_label
 _atom_site_symmetry_multiplicity
 _atom_site_fract_x
 _atom_site_fract_y
 _atom_site_fract_z
 _atom_site_occupancy
  Rb  Rb0  1  0.87470891  0.03681749  0.00000000  1
  Rb  Rb1  1  0.70674236  0.83303522  0.71415021  1
  Rb  Rb2  1  0.39518698  0.89728140  0.00000000  1
  Rb  Rb3  1  0.37599978  0.96406049  0.50000000  1
  Rb  Rb4  1  0.87502571  0.46735684  0.29111683  1
  Rb  Rb5  1  0.89458566  0.10202671  0.50000000  1
  Rb  Rb6  1  0.66299633  0.34382917  0.00000000  1
  Rb  Rb7  1  0.16275342  0.65706671  0.50000000  1
  Rb  Rb8  1  0.20617337  0.16677743  0.21340502  1
  Rb  Rb9  1  0.37482482  0.53249403  0.20891457  1
  Rb  Rb10  1  0.37482482  0.53249403  0.79108543  1
  Rb  Rb11  1  0.87502571  0.46735684  0.70888317  1
  Rb  Rb12  1  0.70674236  0.83303522  0.28584979  1
  Rb  Rb13  1  0.20617337  0.16677743  0.78659498  1
  Ta  Ta0  1  0.99850356  0.67511333  0.00000000  1
  Nb  Nb0  1  0.49839265  0.32491516  0.50000000  1
  P  P0  1  0.71533743  0.68635749  0.00000000  1
  P  P1  1  0.21388096  0.31361999  0.50000000  1
  P  P2  1  0.07270385  0.42480592  0.00000000  1
  P  P3  1  0.57261133  0.57656152  0.50000000  1
  P  P4  1  0.08959314  0.80028323  0.19179598  1
  P  P5  1  0.58991117  0.19882706  0.30661893  1
  P  P6  1  0.58991117  0.19882706  0.69338107  1
  P  P7  1  0.08959314  0.80028323  0.80820402  1
loop_
_geom_bond_atom_site_label_1
_geom_bond_atom_site_label_2
_geom_bond_distance
_geom_bond_site_symmetry_2
Nb0 P1 2.416414 1_555
Nb0 P3 2.434399 1_555
Nb0 P6 2.463736 1_555
Nb0 P5 2.463736 1_555
P0 Ta0 2.404969 1_555
P0 Rb6 3.231421 1_555
P0 Rb12 3.285771 1_555
P0 Rb1 3.285771 1_554
P0 Rb2 3.356061 1_555
P0 Rb0 3.543152 1_565
P1 Rb7 3.238455 1_555
P1 Rb13 3.293331 1_555
P1 Rb8 3.293331 1_555
P1 Rb5 3.354134 1_455
P1 Rb3 3.544153 1_545
P2 Ta0 2.422176 1_455
P2 Rb13 3.473182 1_554
P2 Rb8 3.473182 1_555
P2 Rb4 3.495029 1_455
P2 Rb11 3.495029 1_454
P2 Rb9 3.513570 1_555
P2 Rb10 3.513570 1_554
P2 Rb6 3.557850 1_455
P3 Rb1 3.470091 1_555
P3 Rb12 3.470091 1_555
P3 Rb10 3.496857 1_555
P3 Rb9 3.496857 1_555
P3 Rb11 3.519145 1_555
P3 Rb4 3.519145 1_555
P3 Rb7 3.558043 1_555
P4 Ta0 2.444978 1_455
P4 Rb2 3.399680 1_555
P4 Rb12 3.407523 1_455
P4 Rb9 3.485689 1_555
P4 Rb0 3.495915 1_465
P4 Rb7 3.540769 1_555
P4 Rb8 3.571879 1_565
P4 Rb4 3.750978 1_455
P5 Rb5 3.402927 1_555
P5 Rb8 3.411650 1_555
P5 Rb4 3.489430 1_555
P5 Rb3 3.490923 1_545
P5 Rb6 3.532020 1_555
P5 Rb12 3.565479 1_545
P5 Rb9 3.753985 1_555
P6 Rb5 3.402927 1_555
P6 Rb13 3.411650 1_555
P6 Rb11 3.489430 1_555
P6 Rb3 3.490923 1_545
P6 Rb6 3.532020 1_556
P6 Rb1 3.565479 1_545
P6 Rb10 3.753985 1_555
P7 Ta0 2.444978 1_456
P7 Rb2 3.399680 1_556
P7 Rb1 3.407523 1_455
P7 Rb10 3.485689 1_555
P7 Rb0 3.495915 1_466
P7 Rb7 3.540769 1_555
P7 Rb13 3.571879 1_565
P7 Rb11 3.750978 1_455
