# generated using pymatgen
data_Cd3Bi(Rh2O7)2
_symmetry_space_group_name_H-M   'P 1'
_cell_length_a   7.16588797
_cell_length_b   7.16588827
_cell_length_c   7.16588716
_cell_angle_alpha   59.40426412
_cell_angle_beta   59.40426548
_cell_angle_gamma   59.40426270
_symmetry_Int_Tables_number   1
_chemical_formula_structural   Cd3Bi(Rh2O7)2
_chemical_formula_sum   'Cd3 Bi1 Rh4 O14'
_cell_volume   256.66534844
_cell_formula_units_Z   1
loop_
 _symmetry_equiv_pos_site_id
 _symmetry_equiv_pos_as_xyz
  1  'x, y, z'
loop_
 _atom_site_type_symbol
 _atom_site_label
 _atom_site_symmetry_multiplicity
 _atom_site_fract_x
 _atom_site_fract_y
 _atom_site_fract_z
 _atom_site_occupancy
  Cd  Cd0  1  0.12500000  0.62500000  0.12500000  1
  Cd  Cd1  1  0.62500000  0.12500000  0.12500000  1
  Cd  Cd2  1  0.12500000  0.12500000  0.62500000  1
  Bi  Bi0  1  0.12500000  0.12500000  0.12500000  1
  Rh  Rh0  1  0.62500000  0.62500000  0.62500000  1
  Rh  Rh1  1  0.62500000  0.62500000  0.12500000  1
  Rh  Rh2  1  0.12500000  0.62500000  0.62500000  1
  Rh  Rh3  1  0.62500000  0.12500000  0.62500000  1
  O  O0  1  0.24872229  0.24872229  0.24872229  1
  O  O1  1  0.29421176  0.71564235  0.29421176  1
  O  O2  1  0.95578824  0.95578824  0.53435765  1
  O  O3  1  0.54876319  0.95274918  0.54876319  1
  O  O4  1  0.70123681  0.70123681  0.29725082  1
  O  O5  1  0.95274918  0.54876319  0.54876319  1
  O  O6  1  0.70123681  0.29725082  0.70123681  1
  O  O7  1  0.29421176  0.29421176  0.71564235  1
  O  O8  1  0.71564235  0.29421176  0.29421176  1
  O  O9  1  0.29725082  0.70123681  0.70123681  1
  O  O10  1  0.95578824  0.53435765  0.95578824  1
  O  O11  1  0.54876319  0.54876319  0.95274918  1
  O  O12  1  0.00127771  0.00127771  0.00127771  1
  O  O13  1  0.53435765  0.95578824  0.95578824  1
loop_
_geom_bond_atom_site_label_1
_geom_bond_atom_site_label_2
_geom_bond_distance
_geom_bond_site_symmetry_2
Cd0 O12 2.185323 1_565
Cd0 O0 2.185323 1_555
Cd0 O5 2.495074 1_455
Cd0 O9 2.495074 1_554
Cd0 O11 2.495075 1_554
Cd0 O4 2.495075 1_455
Cd0 O1 2.542166 1_555
Cd0 O10 2.542166 1_454
Cd1 O12 2.185323 1_655
Cd1 O0 2.185323 1_555
Cd1 O3 2.495074 1_545
Cd1 O6 2.495074 1_554
Cd1 O11 2.495075 1_554
Cd1 O4 2.495075 1_545
Cd1 O8 2.542166 1_555
Cd1 O13 2.542166 1_544
Cd2 O12 2.185323 1_556
Cd2 O0 2.185323 1_555
Cd2 O3 2.495075 1_545
Cd2 O6 2.495075 1_455
Cd2 O5 2.495075 1_455
Cd2 O9 2.495075 1_545
Cd2 O7 2.542166 1_555
Cd2 O2 2.542166 1_445
Bi0 O0 2.181395 1_555
Bi0 O12 2.181395 1_555
Bi0 O2 2.408442 1_445
Bi0 O7 2.408442 1_554
Bi0 O13 2.408442 1_544
Bi0 O8 2.408442 1_455
Bi0 O10 2.408442 1_454
Bi0 O1 2.408442 1_545
O1 Rh2 1.954365 1_555
O1 Rh1 1.954366 1_555
O2 Rh3 1.954366 1_565
O2 Rh2 1.954366 1_655
O3 Rh3 1.948622 1_565
O3 Rh0 1.950513 1_555
O4 Rh1 1.948622 1_555
O4 Rh0 1.950513 1_555
O5 Rh2 1.948622 1_655
O5 Rh0 1.950513 1_555
O6 Rh3 1.948622 1_555
O6 Rh0 1.950513 1_555
O7 Rh3 1.954366 1_555
O7 Rh2 1.954366 1_555
O8 Rh3 1.954365 1_555
O8 Rh1 1.954366 1_555
O9 Rh2 1.948622 1_555
O9 Rh0 1.950513 1_555
O10 Rh2 1.954365 1_655
O10 Rh1 1.954366 1_556
O11 Rh1 1.948622 1_556
O11 Rh0 1.950513 1_555
O13 Rh3 1.954365 1_565
O13 Rh1 1.954366 1_556
