# generated using pymatgen
data_Zr8Co16SiP11
_symmetry_space_group_name_H-M   'P 1'
_cell_length_a   12.05300836
_cell_length_b   12.05300883
_cell_length_c   3.64537876
_cell_angle_alpha   90.00000000
_cell_angle_beta   90.00000000
_cell_angle_gamma   120.18310757
_symmetry_Int_Tables_number   1
_chemical_formula_structural   Zr8Co16SiP11
_chemical_formula_sum   'Zr8 Co16 Si1 P11'
_cell_volume   457.78329403
_cell_formula_units_Z   1
loop_
 _symmetry_equiv_pos_site_id
 _symmetry_equiv_pos_as_xyz
  1  'x, y, z'
loop_
 _atom_site_type_symbol
 _atom_site_label
 _atom_site_symmetry_multiplicity
 _atom_site_fract_x
 _atom_site_fract_y
 _atom_site_fract_z
 _atom_site_occupancy
  Zr  Zr0  1  0.44054069  0.44054069  0.00000000  1
  Zr  Zr1  1  0.55600910  0.00014149  0.00000000  1
  Zr  Zr2  1  0.00014149  0.55600910  0.00000000  1
  Zr  Zr3  1  0.66590185  0.33393787  0.00000000  1
  Zr  Zr4  1  0.33393787  0.66590185  0.00000000  1
  Zr  Zr5  1  0.82552197  0.82552197  0.50000000  1
  Zr  Zr6  1  0.17520278  0.00079952  0.50000000  1
  Zr  Zr7  1  0.00079952  0.17520278  0.50000000  1
  Co  Co0  1  0.19192473  0.37397953  0.00000000  1
  Co  Co1  1  0.17793089  0.80697337  0.00000000  1
  Co  Co2  1  0.82582965  0.62864518  0.00000000  1
  Co  Co3  1  0.80697337  0.17793089  0.00000000  1
  Co  Co4  1  0.37397953  0.19192473  0.00000000  1
  Co  Co5  1  0.12542625  0.48191084  0.50000000  1
  Co  Co6  1  0.35419419  0.87301480  0.50000000  1
  Co  Co7  1  0.51774462  0.64504160  0.50000000  1
  Co  Co8  1  0.64504160  0.51774462  0.50000000  1
  Co  Co9  1  0.87301480  0.35419419  0.50000000  1
  Co  Co10  1  0.48191084  0.12542625  0.50000000  1
  Co  Co11  1  0.00073761  0.00073761  0.00000000  1
  Co  Co12  1  0.72281812  0.00214919  0.50000000  1
  Co  Co13  1  0.00214919  0.72281812  0.50000000  1
  Co  Co14  1  0.62864518  0.82582965  0.00000000  1
  Co  Co15  1  0.27689657  0.27689657  0.50000000  1
  Si  Si0  1  0.65421623  0.65421623  0.00000000  1
  P  P0  1  0.34471372  0.99968166  0.00000000  1
  P  P1  1  0.99968166  0.34471372  0.00000000  1
  P  P2  1  0.47985510  0.30569776  0.50000000  1
  P  P3  1  0.69207628  0.17423808  0.50000000  1
  P  P4  1  0.82584543  0.51887636  0.50000000  1
  P  P5  1  0.51887636  0.82584543  0.50000000  1
  P  P6  1  0.17423808  0.69207628  0.50000000  1
  P  P7  1  0.82491578  0.99984272  0.00000000  1
  P  P8  1  0.99984272  0.82491578  0.00000000  1
  P  P9  1  0.30569776  0.47985510  0.50000000  1
  P  P10  1  0.17676845  0.17676845  0.00000000  1
loop_
_geom_bond_atom_site_label_1
_geom_bond_atom_site_label_2
_geom_bond_distance
_geom_bond_site_symmetry_2
Co0 P1 2.161378 1_455
Co0 P9 2.252006 1_554
Co0 P9 2.252006 1_555
Co0 P10 2.290592 1_555
Co0 Zr0 2.684349 1_555
Co0 Zr7 2.969741 1_555
Co0 Zr7 2.969741 1_554
Co0 Zr4 3.042049 1_555
Co1 P0 2.177389 1_555
Co1 P8 2.262961 1_455
Co1 P6 2.275966 1_555
Co1 P6 2.275966 1_554
Co1 Zr2 2.687756 1_555
Co1 Zr6 2.976289 1_564
Co1 Zr6 2.976289 1_565
Co1 Zr4 3.105123 1_555
Co2 P8 2.237454 1_555
Co2 Si0 2.239319 1_555
Co2 P4 2.252309 1_554
Co2 P4 2.252309 1_555
Co2 Co8 2.632174 1_554
Co2 Co8 2.632174 1_555
Co2 Zr2 2.651442 1_655
Co2 Zr5 2.993658 1_555
Co2 Zr5 2.993658 1_554
Co2 Zr3 3.073795 1_555
Co3 P1 2.177389 1_555
Co3 P7 2.262961 1_545
Co3 P3 2.275966 1_555
Co3 P3 2.275966 1_554
Co3 Zr1 2.687756 1_555
Co3 Zr7 2.976289 1_654
Co3 Zr7 2.976289 1_655
Co3 Zr3 3.105123 1_555
Co4 P0 2.161378 1_545
Co4 P2 2.252006 1_555
Co4 P2 2.252006 1_554
Co4 P10 2.290592 1_555
Co4 Zr0 2.684349 1_555
Co4 Zr6 2.969741 1_554
Co4 Zr6 2.969741 1_555
Co4 Zr3 3.042049 1_555
Co5 P9 2.185376 1_555
Co5 P6 2.294407 1_555
Co5 P1 2.415294 1_455
Co5 P1 2.415294 1_456
Co5 Zr2 2.784998 1_556
Co5 Zr2 2.784998 1_555
Co5 Zr4 2.992005 1_556
Co5 Zr4 2.992005 1_555
Co5 Zr7 3.215381 1_555
Co6 P6 2.168935 1_555
Co6 P5 2.323327 1_555
Co6 P0 2.416927 1_556
Co6 P0 2.416927 1_555
Co6 Zr1 2.799850 1_566
Co6 Zr1 2.799850 1_565
Co6 Zr4 3.000107 1_555
Co6 Zr4 3.000107 1_556
Co6 Zr6 3.219884 1_565
Co7 P5 2.172404 1_555
Co7 P9 2.319365 1_555
Co7 Si0 2.420165 1_555
Co7 Si0 2.420165 1_556
Co7 Zr0 2.820863 1_556
Co7 Zr0 2.820863 1_555
Co7 Zr4 2.975503 1_555
Co7 Zr4 2.975503 1_556
Co7 Zr5 3.221675 1_555
Co8 P4 2.172404 1_555
Co8 P2 2.319365 1_555
Co8 Si0 2.420165 1_556
Co8 Si0 2.420165 1_555
Co8 Zr0 2.820863 1_556
Co8 Zr0 2.820863 1_555
Co8 Zr3 2.975503 1_556
Co8 Zr3 2.975503 1_555
Co8 Zr5 3.221675 1_555
Co9 P3 2.168935 1_555
Co9 P4 2.323327 1_555
Co9 P1 2.416927 1_556
Co9 P1 2.416927 1_555
Co9 Zr2 2.799850 1_655
Co9 Zr2 2.799850 1_656
Co9 Zr3 3.000107 1_555
Co9 Zr3 3.000107 1_556
Co9 Zr7 3.219884 1_655
Co10 P2 2.185376 1_555
Co10 P3 2.294407 1_555
Co10 P0 2.415294 1_546
Co10 P0 2.415294 1_545
Co10 Zr1 2.784998 1_555
Co10 Zr1 2.784998 1_556
Co10 Zr3 2.992005 1_555
Co10 Zr3 2.992005 1_556
Co10 Zr6 3.215381 1_555
Co11 P7 2.113780 1_445
Co11 P8 2.113780 1_445
Co11 P10 2.115826 1_555
Co11 Zr6 2.782537 1_554
Co11 Zr6 2.782537 1_555
Co11 Zr7 2.782537 1_555
Co11 Zr7 2.782537 1_554
Co11 Zr5 2.785238 1_444
Co11 Zr5 2.785238 1_445
Co12 P7 2.207194 1_546
Co12 P7 2.207194 1_545
Co12 P3 2.283059 1_555
Co12 P5 2.303377 1_545
Co12 Co14 2.588707 1_546
Co12 Co14 2.588707 1_545
Co12 Zr1 2.704843 1_556
Co12 Zr1 2.704843 1_555
Co12 Zr7 2.923929 1_655
Co12 Zr5 2.952024 1_545
Co13 P8 2.207194 1_456
Co13 P8 2.207194 1_455
Co13 P6 2.283059 1_555
Co13 P4 2.303377 1_455
Co13 Co2 2.588707 1_455
Co13 Co2 2.588707 1_456
Co13 Zr2 2.704843 1_556
Co13 Zr2 2.704843 1_555
Co13 Zr6 2.923929 1_565
Co13 Zr5 2.952024 1_455
Co14 P7 2.237454 1_555
Co14 Si0 2.239320 1_555
Co14 P5 2.252309 1_555
Co14 P5 2.252309 1_554
Co14 Co7 2.632174 1_554
Co14 Co7 2.632174 1_555
Co14 Zr1 2.651442 1_565
Co14 Zr5 2.993658 1_554
Co14 Zr5 2.993658 1_555
Co14 Zr4 3.073795 1_555
Co15 P10 2.184174 1_555
Co15 P10 2.184174 1_556
Co15 P2 2.291464 1_555
Co15 P9 2.291464 1_555
Co15 Zr0 2.681615 1_556
Co15 Zr0 2.681615 1_555
Co15 Zr7 2.911209 1_555
Co15 Zr6 2.911209 1_555
Si0 Zr0 2.568302 1_555
Si0 Zr5 2.749875 1_555
Si0 Zr5 2.749875 1_554
P0 Zr1 2.543963 1_565
P0 Zr6 2.743061 1_565
P0 Zr6 2.743061 1_564
P1 Zr2 2.543963 1_655
P1 Zr7 2.743061 1_655
P1 Zr7 2.743061 1_654
P2 Zr0 2.638677 1_555
P2 Zr0 2.638677 1_556
P2 Zr3 2.774711 1_555
P2 Zr3 2.774711 1_556
P3 Zr1 2.637169 1_555
P3 Zr1 2.637169 1_556
P3 Zr3 2.781625 1_555
P3 Zr3 2.781625 1_556
P4 Zr2 2.643937 1_655
P4 Zr2 2.643937 1_656
P4 Zr3 2.772433 1_555
P4 Zr3 2.772433 1_556
P5 Zr1 2.643937 1_566
P5 Zr1 2.643937 1_565
P5 Zr4 2.772433 1_555
P5 Zr4 2.772433 1_556
P6 Zr2 2.637169 1_556
P6 Zr2 2.637169 1_555
P6 Zr4 2.781625 1_555
P6 Zr4 2.781625 1_556
P7 Zr5 2.784289 1_554
P7 Zr5 2.784289 1_555
P7 Zr7 2.788937 1_665
P7 Zr7 2.788937 1_664
P8 Zr5 2.784289 1_555
P8 Zr5 2.784289 1_554
P8 Zr6 2.788937 1_665
P8 Zr6 2.788937 1_664
P9 Zr0 2.638677 1_555
P9 Zr0 2.638677 1_556
P9 Zr4 2.774711 1_555
P9 Zr4 2.774711 1_556
P10 Zr7 2.789401 1_555
P10 Zr7 2.789401 1_554
P10 Zr6 2.789401 1_554
P10 Zr6 2.789401 1_555
