# generated using pymatgen
data_ScTiBRh6
_symmetry_space_group_name_H-M   'P 1'
_cell_length_a   5.59203846
_cell_length_b   5.59203873
_cell_length_c   5.59203850
_cell_angle_alpha   60.00000133
_cell_angle_beta   59.99999977
_cell_angle_gamma   59.99999809
_symmetry_Int_Tables_number   1
_chemical_formula_structural   ScTiBRh6
_chemical_formula_sum   'Sc1 Ti1 B1 Rh6'
_cell_volume   123.65038505
_cell_formula_units_Z   1
loop_
 _symmetry_equiv_pos_site_id
 _symmetry_equiv_pos_as_xyz
  1  'x, y, z'
loop_
 _atom_site_type_symbol
 _atom_site_label
 _atom_site_symmetry_multiplicity
 _atom_site_fract_x
 _atom_site_fract_y
 _atom_site_fract_z
 _atom_site_occupancy
  Sc  Sc0  1  0.75000000  0.75000000  0.75000000  1
  Ti  Ti0  1  0.25000000  0.25000000  0.25000000  1
  B  B0  1  0.50000000  0.50000000  0.50000000  1
  Rh  Rh0  1  0.75842271  0.75842271  0.24157729  1
  Rh  Rh1  1  0.75842271  0.24157729  0.24157729  1
  Rh  Rh2  1  0.24157729  0.75842271  0.24157729  1
  Rh  Rh3  1  0.24157729  0.24157729  0.75842271  1
  Rh  Rh4  1  0.75842271  0.24157729  0.75842271  1
  Rh  Rh5  1  0.24157729  0.75842271  0.75842271  1
loop_
_geom_bond_atom_site_label_1
_geom_bond_atom_site_label_2
_geom_bond_distance
_geom_bond_site_symmetry_2
B0 Rh4 2.043694 1_555
B0 Rh5 2.043694 1_555
B0 Rh1 2.043694 1_555
B0 Rh2 2.043694 1_555
B0 Rh0 2.043694 1_555
B0 Rh3 2.043694 1_555
Rh0 Ti0 2.796813 1_565
Rh0 Ti0 2.796813 1_655
Rh0 Sc0 2.796813 1_555
Rh0 Sc0 2.796813 1_554
Rh1 Ti0 2.796813 1_555
Rh1 Ti0 2.796813 1_655
Rh1 Sc0 2.796813 1_545
Rh1 Sc0 2.796813 1_554
Rh2 Sc0 2.796813 1_554
Rh2 Sc0 2.796813 1_455
Rh2 Ti0 2.796813 1_565
Rh2 Ti0 2.796813 1_555
Rh3 Sc0 2.796813 1_545
Rh3 Sc0 2.796813 1_455
Rh3 Ti0 2.796813 1_555
Rh3 Ti0 2.796813 1_556
Rh4 Ti0 2.796813 1_556
Rh4 Ti0 2.796813 1_655
Rh4 Sc0 2.796813 1_545
Rh4 Sc0 2.796813 1_555
Rh5 Sc0 2.796813 1_555
Rh5 Sc0 2.796813 1_455
Rh5 Ti0 2.796813 1_565
Rh5 Ti0 2.796813 1_556
