# generated using pymatgen
data_Ta12Ga5Ni7N4
_symmetry_space_group_name_H-M   'P 1'
_cell_length_a   8.05447065
_cell_length_b   8.06260724
_cell_length_c   8.06260577
_cell_angle_alpha   59.99999806
_cell_angle_beta   59.96657544
_cell_angle_gamma   59.96657466
_symmetry_Int_Tables_number   1
_chemical_formula_structural   Ta12Ga5Ni7N4
_chemical_formula_sum   'Ta12 Ga5 Ni7 N4'
_cell_volume   370.04396863
_cell_formula_units_Z   1
loop_
 _symmetry_equiv_pos_site_id
 _symmetry_equiv_pos_as_xyz
  1  'x, y, z'
loop_
 _atom_site_type_symbol
 _atom_site_label
 _atom_site_symmetry_multiplicity
 _atom_site_fract_x
 _atom_site_fract_y
 _atom_site_fract_z
 _atom_site_occupancy
  Ta  Ta0  1  0.30757624  0.69115483  0.69115483  1
  Ta  Ta1  1  0.56204600  0.55358879  0.94218210  1
  Ta  Ta2  1  0.30757624  0.69115483  0.31011610  1
  Ta  Ta3  1  0.30757624  0.31011610  0.69115483  1
  Ta  Ta4  1  0.68826518  0.31515330  0.31515330  1
  Ta  Ta5  1  0.93330289  0.93632628  0.56518591  1
  Ta  Ta6  1  0.93330289  0.56518591  0.93632628  1
  Ta  Ta7  1  0.93330289  0.56518591  0.56518591  1
  Ta  Ta8  1  0.56204600  0.94218210  0.94218210  1
  Ta  Ta9  1  0.68826518  0.68142922  0.31515330  1
  Ta  Ta10  1  0.68826518  0.31515330  0.68142922  1
  Ta  Ta11  1  0.56204600  0.94218210  0.55358879  1
  Ga  Ga0  1  0.02289032  0.32570356  0.32570356  1
  Ga  Ga1  1  0.12796353  0.11705516  0.63792614  1
  Ga  Ga2  1  0.12796353  0.11705516  0.11705516  1
  Ga  Ga3  1  0.62353848  0.12548751  0.12548751  1
  Ga  Ga4  1  0.12796353  0.63792614  0.11705516  1
  Ni  Ni0  1  0.91265869  0.91663574  0.91663574  1
  Ni  Ni1  1  0.33355469  0.33605201  0.99434028  1
  Ni  Ni2  1  0.91265869  0.91663574  0.25406983  1
  Ni  Ni3  1  0.27052531  0.90982456  0.90982456  1
  Ni  Ni4  1  0.33355469  0.99434028  0.33605201  1
  Ni  Ni5  1  0.91265869  0.25406983  0.91663574  1
  Ni  Ni6  1  0.33355469  0.33605201  0.33605201  1
  N  N0  1  0.61996803  0.12399610  0.62801793  1
  N  N1  1  0.61996803  0.62801793  0.12399610  1
  N  N2  1  0.12703413  0.62432262  0.62432262  1
  N  N3  1  0.61996803  0.62801793  0.62801793  1
loop_
_geom_bond_atom_site_label_1
_geom_bond_atom_site_label_2
_geom_bond_distance
_geom_bond_site_symmetry_2
Ga0 Ga1 2.521074 1_555
Ga0 Ga4 2.521075 1_555
Ga0 Ga2 2.521081 1_555
Ga0 Ni6 2.588445 1_555
Ga0 Ni1 2.588453 1_554
Ga0 Ni4 2.588453 1_545
Ga0 Ta10 2.782975 1_455
Ga0 Ta9 2.782975 1_455
Ga0 Ta4 2.782975 1_455
Ga0 Ta6 2.985951 1_454
Ga0 Ta7 2.985951 1_455
Ga0 Ta5 2.985951 1_445
Ga1 Ni3 2.419180 1_545
Ga1 Ni5 2.437450 1_455
Ga1 Ni0 2.437450 1_445
Ga1 Ni6 2.525562 1_555
Ga1 Ni4 2.525567 1_545
Ga1 Ta0 2.871164 1_545
Ga1 Ta3 2.871178 1_555
Ga1 Ta11 2.884233 1_545
Ga1 Ta10 2.978435 1_455
Ga1 Ta5 2.997914 1_445
Ga1 Ta7 2.997921 1_455
Ga2 Ni3 2.419186 1_544
Ga2 Ni5 2.437450 1_454
Ga2 Ni2 2.437450 1_445
Ga2 Ni4 2.525560 1_545
Ga2 Ni1 2.525560 1_554
Ga2 Ta3 2.871167 1_554
Ga2 Ta2 2.871167 1_545
Ga2 Ta8 2.884234 1_544
Ga2 Ta4 2.978436 1_455
Ga2 Ta5 2.997920 1_445
Ga2 Ta6 2.997920 1_454
Ga3 Ni2 2.465526 1_545
Ga3 Ni5 2.465526 1_554
Ga3 Ni0 2.465530 1_544
Ga3 Ni6 2.482610 1_555
Ga3 Ni1 2.482619 1_554
Ga3 Ni4 2.482619 1_545
Ga3 Ta11 2.874620 1_545
Ga3 Ta1 2.874621 1_554
Ga3 Ta8 2.874634 1_544
Ga3 Ta10 2.980475 1_554
Ga3 Ta4 2.980476 1_555
Ga3 Ta9 2.980476 1_545
Ga4 Ni3 2.419180 1_554
Ga4 Ni0 2.437450 1_454
Ga4 Ni2 2.437450 1_455
Ga4 Ni6 2.525562 1_555
Ga4 Ni1 2.525567 1_554
Ga4 Ta0 2.871163 1_554
Ga4 Ta2 2.871178 1_555
Ga4 Ta1 2.884233 1_554
Ga4 Ta9 2.978435 1_455
Ga4 Ta6 2.997914 1_454
Ga4 Ta7 2.997921 1_455
Ni0 Ta8 2.633961 1_555
Ni0 Ta5 2.680873 1_555
Ni0 Ta6 2.680873 1_555
Ni0 Ni2 2.720598 1_556
Ni0 Ni5 2.720598 1_565
Ni0 Ni3 2.828520 1_655
Ni0 Ta0 2.907880 1_655
Ni0 Ta9 2.951502 1_556
Ni0 Ta10 2.951502 1_565
Ni1 Ta3 2.670184 1_555
Ni1 Ta0 2.670199 1_555
Ni1 Ta10 2.698859 1_555
Ni1 Ni6 2.755087 1_556
Ni1 Ni4 2.755087 1_546
Ni1 Ta8 2.891172 1_545
Ni1 Ta1 2.891172 1_555
Ni1 Ta6 2.950983 1_455
Ni2 Ta11 2.633957 1_555
Ni2 Ta7 2.680876 1_555
Ni2 Ta5 2.680881 1_555
Ni2 Ni5 2.720598 1_564
Ni2 Ni3 2.828524 1_654
Ni2 Ta2 2.907886 1_655
Ni2 Ta9 2.951498 1_555
Ni2 Ta4 2.951505 1_565
Ni3 Ta11 2.635124 1_555
Ni3 Ta1 2.635125 1_555
Ni3 Ta8 2.635125 1_555
Ni3 Ni5 2.828524 1_465
Ni3 Ta0 2.891493 1_555
Ni3 Ta2 2.891514 1_556
Ni3 Ta3 2.891514 1_565
Ni4 Ta2 2.670185 1_555
Ni4 Ta0 2.670198 1_555
Ni4 Ta9 2.698859 1_555
Ni4 Ni6 2.755087 1_565
Ni4 Ta8 2.891171 1_554
Ni4 Ta11 2.891172 1_555
Ni4 Ta5 2.950983 1_455
Ni5 Ta1 2.633957 1_555
Ni5 Ta7 2.680876 1_555
Ni5 Ta6 2.680881 1_555
Ni5 Ta3 2.907886 1_655
Ni5 Ta10 2.951498 1_555
Ni5 Ta4 2.951505 1_556
Ni6 Ta3 2.670208 1_555
Ni6 Ta2 2.670209 1_555
Ni6 Ta4 2.698867 1_555
Ni6 Ta1 2.891172 1_554
Ni6 Ta11 2.891172 1_545
Ni6 Ta7 2.950989 1_455
N0 Ta3 2.131701 1_555
N0 Ta8 2.138008 1_545
N0 Ta11 2.138014 1_545
N0 Ta5 2.139999 1_545
N0 Ta4 2.147771 1_555
N0 Ta10 2.147776 1_555
N1 Ta2 2.131701 1_555
N1 Ta8 2.138008 1_554
N1 Ta1 2.138014 1_554
N1 Ta6 2.139999 1_554
N1 Ta4 2.147771 1_555
N1 Ta9 2.147776 1_555
N2 Ta2 2.134100 1_555
N2 Ta3 2.134100 1_555
N2 Ta0 2.134100 1_555
N2 Ta6 2.146235 1_455
N2 Ta5 2.146235 1_455
N2 Ta7 2.146241 1_455
N3 Ta0 2.131697 1_555
N3 Ta1 2.138006 1_555
N3 Ta11 2.138007 1_555
N3 Ta7 2.140001 1_555
N3 Ta9 2.147768 1_555
N3 Ta10 2.147769 1_555
