# generated using pymatgen
data_Rb6CaTe4
_symmetry_space_group_name_H-M   'P 1'
_cell_length_a   11.70114173
_cell_length_b   11.70114157
_cell_length_c   8.89765184
_cell_angle_alpha   90.00000000
_cell_angle_beta   90.00000000
_cell_angle_gamma   120.00000327
_symmetry_Int_Tables_number   1
_chemical_formula_structural   Rb6CaTe4
_chemical_formula_sum   'Rb12 Ca2 Te8'
_cell_volume   1055.02438855
_cell_formula_units_Z   2
loop_
 _symmetry_equiv_pos_site_id
 _symmetry_equiv_pos_as_xyz
  1  'x, y, z'
loop_
 _atom_site_type_symbol
 _atom_site_label
 _atom_site_symmetry_multiplicity
 _atom_site_fract_x
 _atom_site_fract_y
 _atom_site_fract_z
 _atom_site_occupancy
  Rb  Rb0  1  0.14735588  0.85264412  0.54467207  1
  Rb  Rb1  1  0.29471276  0.14735588  0.04467207  1
  Rb  Rb2  1  0.85264412  0.70528724  0.04467207  1
  Rb  Rb3  1  0.14735588  0.29471276  0.54467207  1
  Rb  Rb4  1  0.70528724  0.85264412  0.54467207  1
  Rb  Rb5  1  0.85264412  0.14735588  0.04467207  1
  Rb  Rb6  1  0.52854444  0.47145556  0.36594886  1
  Rb  Rb7  1  0.05708787  0.52854444  0.86594886  1
  Rb  Rb8  1  0.47145556  0.94291213  0.86594886  1
  Rb  Rb9  1  0.52854444  0.05708787  0.36594886  1
  Rb  Rb10  1  0.94291213  0.47145556  0.36594886  1
  Rb  Rb11  1  0.47145556  0.52854444  0.86594886  1
  Ca  Ca0  1  0.33333300  0.66666700  0.24767054  1
  Ca  Ca1  1  0.66666700  0.33333300  0.74767054  1
  Te  Te0  1  0.33333300  0.66666700  0.59112083  1
  Te  Te1  1  0.66666700  0.33333300  0.09112083  1
  Te  Te2  1  0.18988047  0.81011953  0.14361461  1
  Te  Te3  1  0.37975995  0.18988047  0.64361461  1
  Te  Te4  1  0.81011953  0.62024005  0.64361461  1
  Te  Te5  1  0.18988047  0.37975995  0.14361461  1
  Te  Te6  1  0.62024005  0.81011953  0.14361461  1
  Te  Te7  1  0.81011953  0.18988047  0.64361461  1
loop_
_geom_bond_atom_site_label_1
_geom_bond_atom_site_label_2
_geom_bond_distance
_geom_bond_site_symmetry_2
Rb0 Te3 3.607018 1_565
Rb0 Te4 3.607018 1_455
Rb0 Te2 3.671070 1_555
Rb0 Te0 3.791783 1_555
Rb1 Te2 3.607018 1_545
Rb1 Te5 3.607018 1_555
Rb1 Te3 3.671065 1_554
Rb1 Te1 3.791783 1_555
Rb2 Te2 3.607018 1_655
Rb2 Te6 3.607018 1_555
Rb2 Te4 3.671065 1_554
Rb2 Te1 3.791783 1_555
Rb3 Te7 3.607018 1_455
Rb3 Te3 3.607018 1_555
Rb3 Te5 3.671065 1_555
Rb3 Te0 3.791783 1_555
Rb4 Te7 3.607018 1_565
Rb4 Te4 3.607018 1_555
Rb4 Te6 3.671065 1_555
Rb4 Te0 3.791783 1_555
Rb5 Te6 3.607018 1_545
Rb5 Te5 3.607018 1_655
Rb5 Te7 3.671070 1_554
Rb5 Te1 3.791783 1_555
Rb6 Te1 3.716966 1_555
Rb6 Te3 3.775450 1_555
Rb6 Te4 3.775450 1_555
Rb6 Te6 4.064026 1_555
Rb6 Te5 4.064026 1_555
Rb7 Te0 3.716966 1_555
Rb7 Te2 3.775449 1_556
Rb7 Te5 3.775465 1_556
Rb7 Te7 4.064026 1_455
Rb7 Te4 4.064026 1_455
Rb8 Te0 3.716966 1_555
Rb8 Te2 3.775449 1_556
Rb8 Te6 3.775465 1_556
Rb8 Te7 4.064026 1_565
Rb8 Te3 4.064026 1_565
Rb9 Te1 3.716966 1_555
Rb9 Te7 3.775449 1_555
Rb9 Te3 3.775465 1_555
Rb9 Te2 4.064026 1_545
Rb9 Te6 4.064026 1_545
Rb10 Te1 3.716966 1_555
Rb10 Te7 3.775449 1_555
Rb10 Te4 3.775465 1_555
Rb10 Te2 4.064026 1_655
Rb10 Te5 4.064026 1_655
Rb11 Te0 3.716966 1_555
Rb11 Te6 3.775450 1_556
Rb11 Te5 3.775450 1_556
Rb11 Te3 4.064026 1_555
Rb11 Te4 4.064026 1_555
Ca0 Te2 3.051209 1_555
Ca0 Te5 3.051229 1_555
Ca0 Te6 3.051229 1_555
Ca0 Te0 3.055901 1_555
Ca1 Te7 3.051209 1_555
Ca1 Te4 3.051229 1_555
Ca1 Te3 3.051229 1_555
Ca1 Te1 3.055901 1_556
