# generated using pymatgen
data_SbRu(NF10)2
_symmetry_space_group_name_H-M   'P 1'
_cell_length_a   5.73206451
_cell_length_b   7.41084481
_cell_length_c   8.82333266
_cell_angle_alpha   90.79681389
_cell_angle_beta   109.74303437
_cell_angle_gamma   93.40739043
_symmetry_Int_Tables_number   1
_chemical_formula_structural   SbRu(NF10)2
_chemical_formula_sum   'Sb1 Ru1 N2 F20'
_cell_volume   351.92371272
_cell_formula_units_Z   1
loop_
 _symmetry_equiv_pos_site_id
 _symmetry_equiv_pos_as_xyz
  1  'x, y, z'
loop_
 _atom_site_type_symbol
 _atom_site_label
 _atom_site_symmetry_multiplicity
 _atom_site_fract_x
 _atom_site_fract_y
 _atom_site_fract_z
 _atom_site_occupancy
  Sb  Sb0  1  0.01806530  0.25405682  0.71433340  1
  Ru  Ru0  1  0.98267905  0.74551426  0.28231582  1
  N  N0  1  0.30679120  0.25731142  0.22575293  1
  N  N1  1  0.69287980  0.74292025  0.77790317  1
  F  F0  1  0.07516063  0.24731311  0.22352326  1
  F  F1  1  0.92163993  0.75348530  0.77415284  1
  F  F2  1  0.35500857  0.10546647  0.16327554  1
  F  F3  1  0.64847876  0.89470744  0.84217244  1
  F  F4  1  0.94150482  0.21329557  0.90579409  1
  F  F5  1  0.06696317  0.78609807  0.09582339  1
  F  F6  1  0.09600556  0.29717963  0.52663165  1
  F  F7  1  0.89770876  0.70353515  0.46471967  1
  F  F8  1  0.79820983  0.05356543  0.61069892  1
  F  F9  1  0.19249720  0.94578870  0.38726040  1
  F  F10  1  0.28377064  0.10225773  0.79483689  1
  F  F11  1  0.71820907  0.89302138  0.19900060  1
  F  F12  1  0.22481581  0.46000230  0.82094909  1
  F  F13  1  0.78119810  0.54076719  0.17658179  1
  F  F14  1  0.74712963  0.40418921  0.64398347  1
  F  F15  1  0.25147332  0.59917238  0.35867769  1
  F  F16  1  0.66531741  0.60654277  0.86763986  1
  F  F17  1  0.34158302  0.39426914  0.13845483  1
  F  F18  1  0.53099900  0.71718024  0.62938801  1
  F  F19  1  0.46191244  0.28236005  0.37612925  1
loop_
_geom_bond_atom_site_label_1
_geom_bond_atom_site_label_2
_geom_bond_distance
_geom_bond_site_symmetry_2
F0 N0 1.318840 1_555
F1 N1 1.320542 1_555
F2 N0 1.330122 1_555
F3 N1 1.328712 1_555
F4 Sb0 1.907078 1_655
F5 Ru0 1.888137 1_455
F6 Sb0 1.882074 1_555
F7 Ru0 1.857339 1_555
F8 Sb0 1.895529 1_655
F9 Ru0 1.871879 1_455
F10 Sb0 1.893338 1_555
F11 Ru0 1.870816 1_555
F12 Sb0 1.900173 1_555
F13 Ru0 1.879068 1_555
F14 Sb0 1.899577 1_655
F15 Ru0 1.876604 1_455
F16 N1 1.327072 1_555
F17 N0 1.328422 1_555
F18 N1 1.328559 1_555
F19 N0 1.327404 1_555
