# generated using pymatgen
data_Nb3Zn2GaIr3
_symmetry_space_group_name_H-M   'P 1'
_cell_length_a   14.86196430
_cell_length_b   14.85234316
_cell_length_c   5.81943577
_cell_angle_alpha   90.00000000
_cell_angle_beta   90.00000000
_cell_angle_gamma   119.97858715
_symmetry_Int_Tables_number   1
_chemical_formula_structural   Nb3Zn2GaIr3
_chemical_formula_sum   'Nb24 Zn16 Ga8 Ir24'
_cell_volume   1112.69558902
_cell_formula_units_Z   8
loop_
 _symmetry_equiv_pos_site_id
 _symmetry_equiv_pos_as_xyz
  1  'x, y, z'
loop_
 _atom_site_type_symbol
 _atom_site_label
 _atom_site_symmetry_multiplicity
 _atom_site_fract_x
 _atom_site_fract_y
 _atom_site_fract_z
 _atom_site_occupancy
  Nb  Nb0_0  1  0.18603107  0.00232015  0.25000050  1
  Nb  Nb0_1  1  0.18603107  0.00232015  0.75000050  1
  Nb  Nb0_2  1  0.18603107  0.50232015  0.25000050  1
  Nb  Nb0_3  1  0.18603107  0.50232015  0.75000050  1
  Nb  Nb0_4  1  0.68603107  0.00232015  0.25000050  1
  Nb  Nb0_5  1  0.68603107  0.00232015  0.75000050  1
  Nb  Nb0_6  1  0.68603107  0.50232015  0.25000050  1
  Nb  Nb0_7  1  0.68603107  0.50232015  0.75000050  1
  Nb  Nb1_0  1  0.00000000  0.18049940  0.25000050  1
  Nb  Nb1_1  1  0.00000000  0.18049940  0.75000050  1
  Nb  Nb1_2  1  0.00000000  0.68049940  0.25000050  1
  Nb  Nb1_3  1  0.00000000  0.68049940  0.75000050  1
  Nb  Nb1_4  1  0.50000000  0.18049940  0.25000050  1
  Nb  Nb1_5  1  0.50000000  0.18049940  0.75000050  1
  Nb  Nb1_6  1  0.50000000  0.68049940  0.25000050  1
  Nb  Nb1_7  1  0.50000000  0.68049940  0.75000050  1
  Nb  Nb2_0  1  0.31396893  0.31628908  0.25000050  1
  Nb  Nb2_1  1  0.31396893  0.31628908  0.75000050  1
  Nb  Nb2_2  1  0.31396893  0.81628908  0.25000050  1
  Nb  Nb2_3  1  0.31396893  0.81628908  0.75000050  1
  Nb  Nb2_4  1  0.81396893  0.31628908  0.25000050  1
  Nb  Nb2_5  1  0.81396893  0.31628908  0.75000050  1
  Nb  Nb2_6  1  0.81396893  0.81628908  0.25000050  1
  Nb  Nb2_7  1  0.81396893  0.81628908  0.75000050  1
  Zn  Zn0_0  1  0.35213021  0.49980386  0.00000000  1
  Zn  Zn0_1  1  0.35213021  0.49980386  0.50000000  1
  Zn  Zn0_2  1  0.35213021  0.99980386  0.00000000  1
  Zn  Zn0_3  1  0.35213021  0.99980386  0.50000000  1
  Zn  Zn0_4  1  0.85213021  0.49980386  0.00000000  1
  Zn  Zn0_5  1  0.85213021  0.49980386  0.50000000  1
  Zn  Zn0_6  1  0.85213021  0.99980386  0.00000000  1
  Zn  Zn0_7  1  0.85213021  0.99980386  0.50000000  1
  Zn  Zn1_0  1  0.14786929  0.14767365  0.00000000  1
  Zn  Zn1_1  1  0.14786929  0.14767365  0.50000000  1
  Zn  Zn1_2  1  0.14786929  0.64767365  0.00000000  1
  Zn  Zn1_3  1  0.14786929  0.64767365  0.50000000  1
  Zn  Zn1_4  1  0.64786929  0.14767365  0.00000000  1
  Zn  Zn1_5  1  0.64786929  0.14767365  0.50000000  1
  Zn  Zn1_6  1  0.64786929  0.64767365  0.00000000  1
  Zn  Zn1_7  1  0.64786929  0.64767365  0.50000000  1
  Ga  Ga0_0  1  0.50000000  0.35298037  0.00000000  1
  Ga  Ga0_1  1  0.50000000  0.35298037  0.50000000  1
  Ga  Ga0_2  1  0.50000000  0.85298037  0.00000000  1
  Ga  Ga0_3  1  0.50000000  0.85298037  0.50000000  1
  Ga  Ga0_4  1  1.00000000  0.35298037  0.00000000  1
  Ga  Ga0_5  1  1.00000000  0.35298037  0.50000000  1
  Ga  Ga0_6  1  1.00000000  0.85298037  0.00000000  1
  Ga  Ga0_7  1  1.00000000  0.85298037  0.50000000  1
  Ir  Ir0_0  1  0.33471590  0.16842767  0.00000000  1
  Ir  Ir0_1  1  0.33471590  0.16842767  0.50000000  1
  Ir  Ir0_2  1  0.33471590  0.66842767  0.00000000  1
  Ir  Ir0_3  1  0.33471590  0.66842767  0.50000000  1
  Ir  Ir0_4  1  0.83471590  0.16842767  0.00000000  1
  Ir  Ir0_5  1  0.83471590  0.16842767  0.50000000  1
  Ir  Ir0_6  1  0.83471590  0.66842767  0.00000000  1
  Ir  Ir0_7  1  0.83471590  0.66842767  0.50000000  1
  Ir  Ir1_0  1  0.16528460  0.33371177  0.00000000  1
  Ir  Ir1_1  1  0.16528460  0.33371177  0.50000000  1
  Ir  Ir1_2  1  0.16528460  0.83371177  0.00000000  1
  Ir  Ir1_3  1  0.16528460  0.83371177  0.50000000  1
  Ir  Ir1_4  1  0.66528460  0.33371177  0.00000000  1
  Ir  Ir1_5  1  0.66528460  0.33371177  0.50000000  1
  Ir  Ir1_6  1  0.66528460  0.83371177  0.00000000  1
  Ir  Ir1_7  1  0.66528460  0.83371177  0.50000000  1
  Ir  Ir2_0  1  0.00000000  0.49829554  0.25000050  1
  Ir  Ir2_1  1  0.00000000  0.49829554  0.75000050  1
  Ir  Ir2_2  1  0.00000000  0.99829554  0.25000050  1
  Ir  Ir2_3  1  0.00000000  0.99829554  0.75000050  1
  Ir  Ir2_4  1  0.50000000  0.49829554  0.25000050  1
  Ir  Ir2_5  1  0.50000000  0.49829554  0.75000050  1
  Ir  Ir2_6  1  0.50000000  0.99829554  0.25000050  1
  Ir  Ir2_7  1  0.50000000  0.99829554  0.75000050  1
loop_
_geom_bond_atom_site_label_1
_geom_bond_atom_site_label_2
_geom_bond_distance
_geom_bond_site_symmetry_2
Nb0_0 Zn0_3 2.881664 1_545
Nb0_0 Zn0_2 2.881667 1_545
Nb0_0 Zn1_1 2.884871 1_555
Nb0_0 Zn1_0 2.884874 1_555
Nb0_0 Nb0_1 2.909718 1_554
Nb0_0 Nb0_1 2.909718 1_555
Nb0_1 Zn0_2 2.881664 1_546
Nb0_1 Zn0_3 2.881667 1_545
Nb0_1 Zn1_0 2.884871 1_556
Nb0_1 Zn1_1 2.884874 1_555
Nb0_2 Zn0_1 2.881664 1_555
Nb0_2 Zn0_0 2.881667 1_555
Nb0_2 Zn1_3 2.884871 1_555
Nb0_2 Zn1_2 2.884874 1_555
Nb0_2 Nb0_3 2.909718 1_554
Nb0_2 Nb0_3 2.909718 1_555
Nb0_3 Zn0_0 2.881664 1_556
Nb0_3 Zn0_1 2.881667 1_555
Nb0_3 Zn1_2 2.884871 1_556
Nb0_3 Zn1_3 2.884874 1_555
Nb0_4 Zn0_7 2.881664 1_545
Nb0_4 Zn0_6 2.881667 1_545
Nb0_4 Zn1_5 2.884871 1_555
Nb0_4 Zn1_4 2.884874 1_555
Nb0_4 Nb0_5 2.909718 1_554
Nb0_4 Nb0_5 2.909718 1_555
Nb0_5 Zn0_6 2.881664 1_546
Nb0_5 Zn0_7 2.881667 1_545
Nb0_5 Zn1_4 2.884871 1_556
Nb0_5 Zn1_5 2.884874 1_555
Nb0_6 Zn0_5 2.881664 1_555
Nb0_6 Zn0_4 2.881667 1_555
Nb0_6 Zn1_7 2.884871 1_555
Nb0_6 Zn1_6 2.884874 1_555
Nb0_6 Nb0_7 2.909718 1_554
Nb0_6 Nb0_7 2.909718 1_555
Nb0_7 Zn0_4 2.881664 1_556
Nb0_7 Zn0_5 2.881667 1_555
Nb0_7 Zn1_6 2.884871 1_556
Nb0_7 Zn1_7 2.884874 1_555
Nb1_0 Zn1_1 2.873083 1_555
Nb1_0 Zn1_0 2.873086 1_555
Nb1_0 Zn0_7 2.873089 1_445
Nb1_0 Zn0_6 2.873092 1_445
Nb1_0 Nb1_1 2.909718 1_554
Nb1_0 Nb1_1 2.909718 1_555
Nb1_1 Zn1_0 2.873083 1_556
Nb1_1 Zn1_1 2.873086 1_555
Nb1_1 Zn0_6 2.873089 1_446
Nb1_1 Zn0_7 2.873092 1_445
Nb1_2 Zn1_3 2.873083 1_555
Nb1_2 Zn1_2 2.873086 1_555
Nb1_2 Zn0_5 2.873089 1_455
Nb1_2 Zn0_4 2.873092 1_455
Nb1_2 Nb1_3 2.909718 1_554
Nb1_2 Nb1_3 2.909718 1_555
Nb1_3 Zn1_2 2.873083 1_556
Nb1_3 Zn1_3 2.873086 1_555
Nb1_3 Zn0_4 2.873089 1_456
Nb1_3 Zn0_5 2.873092 1_455
Nb1_4 Zn1_5 2.873083 1_555
Nb1_4 Zn1_4 2.873086 1_555
Nb1_4 Zn0_3 2.873089 1_545
Nb1_4 Zn0_2 2.873092 1_545
Nb1_4 Nb1_5 2.909718 1_554
Nb1_4 Nb1_5 2.909718 1_555
Nb1_5 Zn1_4 2.873083 1_556
Nb1_5 Zn1_5 2.873086 1_555
Nb1_5 Zn0_2 2.873089 1_546
Nb1_5 Zn0_3 2.873092 1_545
Nb1_6 Zn1_7 2.873083 1_555
Nb1_6 Zn1_6 2.873086 1_555
Nb1_6 Zn0_1 2.873089 1_555
Nb1_6 Zn0_0 2.873092 1_555
Nb1_6 Nb1_7 2.909718 1_554
Nb1_6 Nb1_7 2.909718 1_555
Nb1_7 Zn1_6 2.873083 1_556
Nb1_7 Zn1_7 2.873086 1_555
Nb1_7 Zn0_0 2.873089 1_556
Nb1_7 Zn0_1 2.873092 1_555
Nb2_0 Zn1_1 2.881667 1_555
Nb2_0 Zn1_0 2.881670 1_555
Nb2_0 Zn0_1 2.884866 1_555
Nb2_0 Zn0_0 2.884869 1_555
Nb2_0 Nb2_1 2.909718 1_554
Nb2_0 Nb2_1 2.909718 1_555
Nb2_1 Zn1_0 2.881667 1_556
Nb2_1 Zn1_1 2.881670 1_555
Nb2_1 Zn0_0 2.884866 1_556
Nb2_1 Zn0_1 2.884869 1_555
Nb2_2 Zn1_3 2.881667 1_555
Nb2_2 Zn1_2 2.881670 1_555
Nb2_2 Zn0_3 2.884866 1_555
Nb2_2 Zn0_2 2.884869 1_555
Nb2_2 Nb2_3 2.909718 1_554
Nb2_2 Nb2_3 2.909718 1_555
Nb2_3 Zn1_2 2.881667 1_556
Nb2_3 Zn1_3 2.881670 1_555
Nb2_3 Zn0_2 2.884866 1_556
Nb2_3 Zn0_3 2.884869 1_555
Nb2_4 Zn1_5 2.881667 1_555
Nb2_4 Zn1_4 2.881670 1_555
Nb2_4 Zn0_5 2.884866 1_555
Nb2_4 Zn0_4 2.884869 1_555
Nb2_4 Nb2_5 2.909718 1_554
Nb2_4 Nb2_5 2.909718 1_555
Nb2_5 Zn1_4 2.881667 1_556
Nb2_5 Zn1_5 2.881670 1_555
Nb2_5 Zn0_4 2.884866 1_556
Nb2_5 Zn0_5 2.884869 1_555
Nb2_6 Zn1_7 2.881667 1_555
Nb2_6 Zn1_6 2.881670 1_555
Nb2_6 Zn0_7 2.884866 1_555
Nb2_6 Zn0_6 2.884869 1_555
Nb2_6 Nb2_7 2.909718 1_554
Nb2_6 Nb2_7 2.909718 1_555
Nb2_7 Zn1_6 2.881667 1_556
Nb2_7 Zn1_7 2.881670 1_555
Nb2_7 Zn0_6 2.884866 1_556
Nb2_7 Zn0_7 2.884869 1_555
Ga0_0 Ir2_5 2.602833 1_554
Ga0_0 Ir2_4 2.602836 1_555
Ga0_0 Ir0_0 2.611239 1_555
Ga0_0 Ir1_4 2.611247 1_555
Ga0_0 Nb2_1 2.924368 1_554
Ga0_0 Nb0_7 2.924368 1_554
Ga0_0 Nb2_0 2.924371 1_555
Ga0_0 Nb0_6 2.924371 1_555
Ga0_0 Nb1_5 2.946040 1_554
Ga0_0 Nb1_4 2.946043 1_555
Ga0_1 Ir2_4 2.602833 1_555
Ga0_1 Ir2_5 2.602836 1_555
Ga0_1 Ir0_1 2.611239 1_555
Ga0_1 Ir1_5 2.611247 1_555
Ga0_1 Nb2_0 2.924368 1_555
Ga0_1 Nb0_6 2.924368 1_555
Ga0_1 Nb2_1 2.924371 1_555
Ga0_1 Nb0_7 2.924371 1_555
Ga0_1 Nb1_4 2.946040 1_555
Ga0_1 Nb1_5 2.946043 1_555
Ga0_2 Ir2_7 2.602833 1_554
Ga0_2 Ir2_6 2.602836 1_555
Ga0_2 Ir0_2 2.611239 1_555
Ga0_2 Ir1_6 2.611247 1_555
Ga0_2 Nb2_3 2.924368 1_554
Ga0_2 Nb0_5 2.924368 1_564
Ga0_2 Nb2_2 2.924371 1_555
Ga0_2 Nb0_4 2.924371 1_565
Ga0_2 Nb1_7 2.946040 1_554
Ga0_2 Nb1_6 2.946043 1_555
Ga0_3 Ir2_6 2.602833 1_555
Ga0_3 Ir2_7 2.602836 1_555
Ga0_3 Ir0_3 2.611239 1_555
Ga0_3 Ir1_7 2.611247 1_555
Ga0_3 Nb2_2 2.924368 1_555
Ga0_3 Nb0_4 2.924368 1_565
Ga0_3 Nb2_3 2.924371 1_555
Ga0_3 Nb0_5 2.924371 1_565
Ga0_3 Nb1_6 2.946040 1_555
Ga0_3 Nb1_7 2.946043 1_555
Ga0_4 Ir2_1 2.602833 1_654
Ga0_4 Ir2_0 2.602836 1_655
Ga0_4 Ir0_4 2.611239 1_555
Ga0_4 Ir1_0 2.611247 1_655
Ga0_4 Nb2_5 2.924368 1_554
Ga0_4 Nb0_3 2.924368 1_654
Ga0_4 Nb2_4 2.924371 1_555
Ga0_4 Nb0_2 2.924371 1_655
Ga0_4 Nb1_1 2.946040 1_654
Ga0_4 Nb1_0 2.946043 1_655
Ga0_5 Ir2_0 2.602833 1_655
Ga0_5 Ir2_1 2.602836 1_655
Ga0_5 Ir0_5 2.611239 1_555
Ga0_5 Ir1_1 2.611247 1_655
Ga0_5 Nb2_4 2.924368 1_555
Ga0_5 Nb0_2 2.924368 1_655
Ga0_5 Nb2_5 2.924371 1_555
Ga0_5 Nb0_3 2.924371 1_655
Ga0_5 Nb1_0 2.946040 1_655
Ga0_5 Nb1_1 2.946043 1_655
Ga0_6 Ir2_3 2.602833 1_654
Ga0_6 Ir2_2 2.602836 1_655
Ga0_6 Ir0_6 2.611239 1_555
Ga0_6 Ir1_2 2.611247 1_655
Ga0_6 Nb2_7 2.924368 1_554
Ga0_6 Nb0_1 2.924368 1_664
Ga0_6 Nb2_6 2.924371 1_555
Ga0_6 Nb0_0 2.924371 1_665
Ga0_6 Nb1_3 2.946040 1_654
Ga0_6 Nb1_2 2.946043 1_655
Ga0_7 Ir2_2 2.602833 1_655
Ga0_7 Ir2_3 2.602836 1_655
Ga0_7 Ir0_7 2.611239 1_555
Ga0_7 Ir1_3 2.611247 1_655
Ga0_7 Nb2_6 2.924368 1_555
Ga0_7 Nb0_0 2.924368 1_665
Ga0_7 Nb2_7 2.924371 1_555
Ga0_7 Nb0_1 2.924371 1_665
Ga0_7 Nb1_2 2.946040 1_655
Ga0_7 Nb1_3 2.946043 1_655
Ir0_0 Zn1_0 2.636440 1_555
Ir0_0 Zn0_2 2.643304 1_545
Ir0_0 Nb0_1 2.763693 1_554
Ir0_0 Nb0_0 2.763696 1_555
Ir0_0 Nb2_1 2.776903 1_554
Ir0_0 Nb2_0 2.776906 1_555
Ir0_0 Nb1_5 2.782578 1_554
Ir0_0 Nb1_4 2.782581 1_555
Ir0_1 Zn1_1 2.636440 1_555
Ir0_1 Zn0_3 2.643304 1_545
Ir0_1 Nb0_0 2.763693 1_555
Ir0_1 Nb0_1 2.763696 1_555
Ir0_1 Nb2_0 2.776903 1_555
Ir0_1 Nb2_1 2.776906 1_555
Ir0_1 Nb1_4 2.782578 1_555
Ir0_1 Nb1_5 2.782581 1_555
Ir0_2 Zn1_2 2.636440 1_555
Ir0_2 Zn0_0 2.643304 1_555
Ir0_2 Nb0_3 2.763693 1_554
Ir0_2 Nb0_2 2.763696 1_555
Ir0_2 Nb2_3 2.776903 1_554
Ir0_2 Nb2_2 2.776906 1_555
Ir0_2 Nb1_7 2.782578 1_554
Ir0_2 Nb1_6 2.782581 1_555
Ir0_3 Zn1_3 2.636440 1_555
Ir0_3 Zn0_1 2.643304 1_555
Ir0_3 Nb0_2 2.763693 1_555
Ir0_3 Nb0_3 2.763696 1_555
Ir0_3 Nb2_2 2.776903 1_555
Ir0_3 Nb2_3 2.776906 1_555
Ir0_3 Nb1_6 2.782578 1_555
Ir0_3 Nb1_7 2.782581 1_555
Ir0_4 Zn1_4 2.636440 1_555
Ir0_4 Zn0_6 2.643304 1_545
Ir0_4 Nb0_5 2.763693 1_554
Ir0_4 Nb0_4 2.763696 1_555
Ir0_4 Nb2_5 2.776903 1_554
Ir0_4 Nb2_4 2.776906 1_555
Ir0_4 Nb1_1 2.782578 1_654
Ir0_4 Nb1_0 2.782581 1_655
Ir0_5 Zn1_5 2.636440 1_555
Ir0_5 Zn0_7 2.643304 1_545
Ir0_5 Nb0_4 2.763693 1_555
Ir0_5 Nb0_5 2.763696 1_555
Ir0_5 Nb2_4 2.776903 1_555
Ir0_5 Nb2_5 2.776906 1_555
Ir0_5 Nb1_0 2.782578 1_655
Ir0_5 Nb1_1 2.782581 1_655
Ir0_6 Zn1_6 2.636440 1_555
Ir0_6 Zn0_4 2.643304 1_555
Ir0_6 Nb0_7 2.763693 1_554
Ir0_6 Nb0_6 2.763696 1_555
Ir0_6 Nb2_7 2.776903 1_554
Ir0_6 Nb2_6 2.776906 1_555
Ir0_6 Nb1_3 2.782578 1_654
Ir0_6 Nb1_2 2.782581 1_655
Ir0_7 Zn1_7 2.636440 1_555
Ir0_7 Zn0_5 2.643304 1_555
Ir0_7 Nb0_6 2.763693 1_555
Ir0_7 Nb0_7 2.763696 1_555
Ir0_7 Nb2_6 2.776903 1_555
Ir0_7 Nb2_7 2.776906 1_555
Ir0_7 Nb1_2 2.782578 1_655
Ir0_7 Nb1_3 2.782581 1_655
Ir1_0 Zn0_0 2.636428 1_555
Ir1_0 Zn1_0 2.643298 1_555
Ir1_0 Nb2_1 2.763686 1_554
Ir1_0 Nb2_0 2.763690 1_555
Ir1_0 Nb0_3 2.776905 1_554
Ir1_0 Nb0_2 2.776908 1_555
Ir1_0 Nb1_1 2.782582 1_554
Ir1_0 Nb1_0 2.782585 1_555
Ir1_1 Zn0_1 2.636428 1_555
Ir1_1 Zn1_1 2.643298 1_555
Ir1_1 Nb2_0 2.763686 1_555
Ir1_1 Nb2_1 2.763690 1_555
Ir1_1 Nb0_2 2.776905 1_555
Ir1_1 Nb0_3 2.776908 1_555
Ir1_1 Nb1_0 2.782582 1_555
Ir1_1 Nb1_1 2.782585 1_555
Ir1_2 Zn0_2 2.636428 1_555
Ir1_2 Zn1_2 2.643298 1_555
Ir1_2 Nb2_3 2.763686 1_554
Ir1_2 Nb2_2 2.763690 1_555
Ir1_2 Nb0_1 2.776905 1_564
Ir1_2 Nb0_0 2.776908 1_565
Ir1_2 Nb1_3 2.782582 1_554
Ir1_2 Nb1_2 2.782585 1_555
Ir1_3 Zn0_3 2.636428 1_555
Ir1_3 Zn1_3 2.643298 1_555
Ir1_3 Nb2_2 2.763686 1_555
Ir1_3 Nb2_3 2.763690 1_555
Ir1_3 Nb0_0 2.776905 1_565
Ir1_3 Nb0_1 2.776908 1_565
Ir1_3 Nb1_2 2.782582 1_555
Ir1_3 Nb1_3 2.782585 1_555
Ir1_4 Zn0_4 2.636428 1_555
Ir1_4 Zn1_4 2.643298 1_555
Ir1_4 Nb2_5 2.763686 1_554
Ir1_4 Nb2_4 2.763690 1_555
Ir1_4 Nb0_7 2.776905 1_554
Ir1_4 Nb0_6 2.776908 1_555
Ir1_4 Nb1_5 2.782582 1_554
Ir1_4 Nb1_4 2.782585 1_555
Ir1_5 Zn0_5 2.636428 1_555
Ir1_5 Zn1_5 2.643298 1_555
Ir1_5 Nb2_4 2.763686 1_555
Ir1_5 Nb2_5 2.763690 1_555
Ir1_5 Nb0_6 2.776905 1_555
Ir1_5 Nb0_7 2.776908 1_555
Ir1_5 Nb1_4 2.782582 1_555
Ir1_5 Nb1_5 2.782585 1_555
Ir1_6 Zn0_6 2.636428 1_555
Ir1_6 Zn1_6 2.643298 1_555
Ir1_6 Nb2_7 2.763686 1_554
Ir1_6 Nb2_6 2.763690 1_555
Ir1_6 Nb0_5 2.776905 1_564
Ir1_6 Nb0_4 2.776908 1_565
Ir1_6 Nb1_7 2.782582 1_554
Ir1_6 Nb1_6 2.782585 1_555
Ir1_7 Zn0_7 2.636428 1_555
Ir1_7 Zn1_7 2.643298 1_555
Ir1_7 Nb2_6 2.763686 1_555
Ir1_7 Nb2_7 2.763690 1_555
Ir1_7 Nb0_4 2.776905 1_565
Ir1_7 Nb0_5 2.776908 1_565
Ir1_7 Nb1_6 2.782582 1_555
Ir1_7 Nb1_7 2.782585 1_555
Ir2_0 Zn1_3 2.644975 1_555
Ir2_0 Zn0_5 2.644978 1_455
Ir2_0 Zn1_2 2.644978 1_555
Ir2_0 Zn0_4 2.644981 1_455
Ir2_0 Nb1_2 2.706154 1_555
Ir2_0 Nb0_2 2.735409 1_555
Ir2_0 Nb2_4 2.735409 1_455
Ir2_1 Zn1_2 2.644975 1_556
Ir2_1 Zn0_4 2.644978 1_456
Ir2_1 Zn1_3 2.644978 1_555
Ir2_1 Zn0_5 2.644981 1_455
Ir2_1 Nb1_3 2.706154 1_555
Ir2_1 Nb0_3 2.735409 1_555
Ir2_1 Nb2_5 2.735409 1_455
Ir2_2 Zn1_1 2.644975 1_565
Ir2_2 Zn0_7 2.644978 1_455
Ir2_2 Zn1_0 2.644978 1_565
Ir2_2 Zn0_6 2.644981 1_455
Ir2_2 Nb1_0 2.706154 1_565
Ir2_2 Nb0_0 2.735409 1_565
Ir2_2 Nb2_6 2.735409 1_455
Ir2_3 Zn1_0 2.644975 1_566
Ir2_3 Zn0_6 2.644978 1_456
Ir2_3 Zn1_1 2.644978 1_565
Ir2_3 Zn0_7 2.644981 1_455
Ir2_3 Nb1_1 2.706154 1_565
Ir2_3 Nb0_1 2.735409 1_565
Ir2_3 Nb2_7 2.735409 1_455
Ir2_4 Zn1_7 2.644975 1_555
Ir2_4 Zn0_1 2.644978 1_555
Ir2_4 Zn1_6 2.644978 1_555
Ir2_4 Zn0_0 2.644981 1_555
Ir2_4 Nb1_6 2.706154 1_555
Ir2_4 Nb0_6 2.735409 1_555
Ir2_4 Nb2_0 2.735409 1_555
Ir2_5 Zn1_6 2.644975 1_556
Ir2_5 Zn0_0 2.644978 1_556
Ir2_5 Zn1_7 2.644978 1_555
Ir2_5 Zn0_1 2.644981 1_555
Ir2_5 Nb1_7 2.706154 1_555
Ir2_5 Nb0_7 2.735409 1_555
Ir2_5 Nb2_1 2.735409 1_555
Ir2_6 Zn1_5 2.644975 1_565
Ir2_6 Zn0_3 2.644978 1_555
Ir2_6 Zn1_4 2.644978 1_565
Ir2_6 Zn0_2 2.644981 1_555
Ir2_6 Nb1_4 2.706154 1_565
Ir2_6 Nb0_4 2.735409 1_565
Ir2_6 Nb2_2 2.735409 1_555
Ir2_7 Zn1_4 2.644975 1_566
Ir2_7 Zn0_2 2.644978 1_556
Ir2_7 Zn1_5 2.644978 1_565
Ir2_7 Zn0_3 2.644981 1_555
Ir2_7 Nb1_5 2.706154 1_565
Ir2_7 Nb0_5 2.735409 1_565
Ir2_7 Nb2_3 2.735409 1_555
