# generated using pymatgen
data_In4P6PtN12
_symmetry_space_group_name_H-M   'P 1'
_cell_length_a   7.40786303
_cell_length_b   7.40786237
_cell_length_c   7.40786388
_cell_angle_alpha   109.47122210
_cell_angle_beta   109.47122030
_cell_angle_gamma   109.47121902
_symmetry_Int_Tables_number   1
_chemical_formula_structural   In4P6PtN12
_chemical_formula_sum   'In4 P6 Pt1 N12'
_cell_volume   312.93702852
_cell_formula_units_Z   1
loop_
 _symmetry_equiv_pos_site_id
 _symmetry_equiv_pos_as_xyz
  1  'x, y, z'
loop_
 _atom_site_type_symbol
 _atom_site_label
 _atom_site_symmetry_multiplicity
 _atom_site_fract_x
 _atom_site_fract_y
 _atom_site_fract_z
 _atom_site_occupancy
  In  In0  1  0.66251846  1.00000000  0.00000000  1
  In  In1  1  1.00000000  1.00000000  0.66251846  1
  In  In2  1  0.00000000  0.66251846  0.00000000  1
  In  In3  1  0.33748154  0.33748154  0.33748154  1
  P  P0  1  0.25000000  0.75000000  0.50000000  1
  P  P1  1  0.75000000  0.25000000  0.50000000  1
  P  P2  1  0.75000000  0.50000000  0.25000000  1
  P  P3  1  0.25000000  0.50000000  0.75000000  1
  P  P4  1  0.50000000  0.75000000  0.25000000  1
  P  P5  1  0.50000000  0.25000000  0.75000000  1
  Pt  Pt0  1  0.00000000  0.00000000  0.00000000  1
  N  N0  1  0.70605393  0.28839785  0.28839785  1
  N  N1  1  0.28839785  0.70605393  0.28839785  1
  N  N2  1  0.29394607  0.58234392  0.58234392  1
  N  N3  1  0.58234392  0.58234392  0.29394607  1
  N  N4  1  0.41765608  0.71160215  1.00000000  1
  N  N5  1  1.00000000  0.71160215  0.41765608  1
  N  N6  1  0.58234392  0.29394607  0.58234392  1
  N  N7  1  0.71160215  0.00000000  0.41765608  1
  N  N8  1  0.41765608  0.00000000  0.71160215  1
  N  N9  1  0.71160215  0.41765608  1.00000000  1
  N  N10  1  0.28839785  0.28839785  0.70605393  1
  N  N11  1  0.00000000  0.41765608  0.71160215  1
loop_
_geom_bond_atom_site_label_1
_geom_bond_atom_site_label_2
_geom_bond_distance
_geom_bond_site_symmetry_2
In0 N4 2.295868 1_554
In0 N0 2.295868 1_565
In0 N8 2.295869 1_564
In0 Pt0 2.500017 1_665
In1 N10 2.295868 1_665
In1 N5 2.295868 1_555
In1 N7 2.295869 1_565
In1 Pt0 2.500017 1_666
In2 N9 2.295868 1_454
In2 N11 2.295869 1_554
In2 N1 2.295869 1_555
In2 Pt0 2.500017 1_565
In3 N3 2.295868 1_555
In3 N2 2.295868 1_555
In3 N6 2.295869 1_555
In3 Pt0 2.500017 1_555
N0 P2 1.631806 1_555
N0 P1 1.631806 1_555
N1 P4 1.631806 1_555
N1 P0 1.631806 1_555
N2 P0 1.631806 1_555
N2 P3 1.631806 1_555
N3 P4 1.631806 1_555
N3 P2 1.631806 1_555
N4 P3 1.631806 1_555
N4 P4 1.631806 1_556
N5 P2 1.631806 1_555
N5 P0 1.631806 1_655
N6 P1 1.631806 1_555
N6 P5 1.631806 1_555
N7 P1 1.631806 1_555
N7 P4 1.631806 1_545
N8 P5 1.631806 1_555
N8 P0 1.631806 1_545
N9 P5 1.631806 1_555
N9 P2 1.631806 1_556
N10 P3 1.631806 1_555
N10 P5 1.631806 1_555
N11 P3 1.631806 1_555
N11 P1 1.631806 1_455
