# generated using pymatgen
data_Rb2Mg(PS3)2
_symmetry_space_group_name_H-M   'P 1'
_cell_length_a   12.36659432
_cell_length_b   6.17105765
_cell_length_c   9.12521921
_cell_angle_alpha   56.44289468
_cell_angle_beta   90.00000000
_cell_angle_gamma   90.00000000
_symmetry_Int_Tables_number   1
_chemical_formula_structural   Rb2Mg(PS3)2
_chemical_formula_sum   'Rb4 Mg2 P4 S12'
_cell_volume   580.32703860
_cell_formula_units_Z   2
loop_
 _symmetry_equiv_pos_site_id
 _symmetry_equiv_pos_as_xyz
  1  'x, y, z'
loop_
 _atom_site_type_symbol
 _atom_site_label
 _atom_site_symmetry_multiplicity
 _atom_site_fract_x
 _atom_site_fract_y
 _atom_site_fract_z
 _atom_site_occupancy
  Rb  Rb0  1  0.32662694  0.20253736  0.52461023  1
  Rb  Rb1  1  0.67337306  0.79746264  0.47538977  1
  Rb  Rb2  1  0.82662694  0.79746264  0.97538977  1
  Rb  Rb3  1  0.17337306  0.20253736  0.02461023  1
  Mg  Mg0  1  0.50000000  0.50000000  0.00000000  1
  Mg  Mg1  1  0.00000000  0.50000000  0.50000000  1
  P  P0  1  0.46081284  0.84639755  0.12495525  1
  P  P1  1  0.03918716  0.84639755  0.62495525  1
  P  P2  1  0.96081284  0.15360245  0.37504475  1
  P  P3  1  0.53918716  0.15360245  0.87504475  1
  S  S0  1  0.07528009  0.03132490  0.74387526  1
  S  S1  1  0.66600054  0.27801862  0.94913732  1
  S  S2  1  0.07126007  0.44217797  0.25340451  1
  S  S3  1  0.92471991  0.96867510  0.25612474  1
  S  S4  1  0.42471991  0.03132490  0.24387526  1
  S  S5  1  0.33399946  0.72198138  0.05086268  1
  S  S6  1  0.42873993  0.44217797  0.75340451  1
  S  S7  1  0.57126007  0.55782203  0.24659549  1
  S  S8  1  0.57528009  0.96867510  0.75612474  1
  S  S9  1  0.16600054  0.72198138  0.55086268  1
  S  S10  1  0.92873993  0.55782203  0.74659549  1
  S  S11  1  0.83399946  0.27801862  0.44913732  1
loop_
_geom_bond_atom_site_label_1
_geom_bond_atom_site_label_2
_geom_bond_distance
_geom_bond_site_symmetry_2
Rb0 S6 3.399095 1_555
Rb0 S9 3.465862 1_545
Rb0 S4 3.484659 1_555
Rb0 S0 3.527624 1_555
Rb0 S8 3.553991 1_545
Rb0 S5 3.694907 1_555
Rb0 S2 3.773413 1_555
Rb0 S7 3.774409 1_555
Rb0 S9 3.889407 1_555
Rb1 S7 3.399095 1_555
Rb1 S11 3.465862 1_565
Rb1 S8 3.484659 1_555
Rb1 S3 3.527624 1_555
Rb1 S4 3.553991 1_565
Rb1 S1 3.694907 1_555
Rb1 S10 3.773413 1_555
Rb1 S6 3.774409 1_555
Rb1 S11 3.889407 1_555
Rb2 S10 3.399095 1_555
Rb2 S1 3.465862 1_565
Rb2 S3 3.484659 1_556
Rb2 S8 3.527624 1_555
Rb2 S0 3.553991 1_665
Rb2 S11 3.694907 1_556
Rb2 S7 3.773413 1_556
Rb2 S2 3.774409 1_656
Rb2 S1 3.889407 1_555
Rb3 S2 3.399095 1_555
Rb3 S5 3.465862 1_545
Rb3 S0 3.484659 1_554
Rb3 S4 3.527624 1_555
Rb3 S3 3.553991 1_445
Rb3 S9 3.694907 1_554
Rb3 S6 3.773413 1_554
Rb3 S10 3.774409 1_454
Rb3 S5 3.889407 1_555
Mg0 S7 2.618236 1_555
Mg0 S6 2.618236 1_554
Mg0 S1 2.647465 1_554
Mg0 S5 2.647465 1_555
Mg0 S8 2.658653 1_554
Mg0 S4 2.658653 1_555
Mg1 S10 2.618236 1_455
Mg1 S2 2.618236 1_555
Mg1 S9 2.647465 1_555
Mg1 S11 2.647465 1_455
Mg1 S3 2.658653 1_455
Mg1 S0 2.658653 1_555
P0 S4 2.012025 1_565
P0 S5 2.019878 1_555
P0 S7 2.020804 1_555
P1 S0 2.012025 1_565
P1 S9 2.019878 1_555
P1 S10 2.020804 1_455
P2 S3 2.012025 1_545
P2 S11 2.019878 1_555
P2 S2 2.020804 1_655
P3 S8 2.012025 1_545
P3 S1 2.019878 1_555
P3 S6 2.020804 1_555
