# generated using pymatgen
data_Ti4Nb5WN12
_symmetry_space_group_name_H-M   'P 1'
_cell_length_a   5.18293964
_cell_length_b   5.16252034
_cell_length_c   10.18886899
_cell_angle_alpha   90.00000000
_cell_angle_beta   90.00000000
_cell_angle_gamma   120.13094571
_symmetry_Int_Tables_number   1
_chemical_formula_structural   Ti4Nb5WN12
_chemical_formula_sum   'Ti4 Nb5 W1 N12'
_cell_volume   235.78706374
_cell_formula_units_Z   1
loop_
 _symmetry_equiv_pos_site_id
 _symmetry_equiv_pos_as_xyz
  1  'x, y, z'
loop_
 _atom_site_type_symbol
 _atom_site_label
 _atom_site_symmetry_multiplicity
 _atom_site_fract_x
 _atom_site_fract_y
 _atom_site_fract_z
 _atom_site_occupancy
  Ti  Ti0  1  0.33234826  0.66549102  0.49849763  1
  Ti  Ti1  1  0.66685824  0.33450898  0.00150237  1
  Ti  Ti2  1  0.66685824  0.33450898  0.49849763  1
  Ti  Ti3  1  0.33234826  0.66549102  0.00150237  1
  Nb  Nb0  1  0.67956174  0.67965148  0.25000000  1
  Nb  Nb1  1  0.99990926  0.32034852  0.25000000  1
  Nb  Nb2  1  0.99897264  0.67681193  0.75000000  1
  Nb  Nb3  1  0.32216071  0.32318807  0.75000000  1
  Nb  Nb4  1  0.32028227  1.00000000  0.25000000  1
  W  W0  1  0.67859610  0.00000000  0.75000000  1
  N  N0  1  0.34803669  0.34792738  0.38165386  1
  N  N1  1  0.65031130  1.00000000  0.38196579  1
  N  N2  1  0.00010931  0.65207262  0.38165386  1
  N  N3  1  0.99336545  0.34063665  0.87886801  1
  N  N4  1  0.65031130  1.00000000  0.11803421  1
  N  N5  1  0.65272880  0.65936335  0.87886801  1
  N  N6  1  0.35650109  0.00000000  0.87819062  1
  N  N7  1  0.65272880  0.65936335  0.62113199  1
  N  N8  1  0.99336545  0.34063665  0.62113199  1
  N  N9  1  0.00010931  0.65207262  0.11834614  1
  N  N10  1  0.35650109  0.00000000  0.62180938  1
  N  N11  1  0.34803669  0.34792738  0.11834614  1
loop_
_geom_bond_atom_site_label_1
_geom_bond_atom_site_label_2
_geom_bond_distance
_geom_bond_site_symmetry_2
N0 Ti0 2.060455 1_555
N0 Ti2 2.065807 1_555
N0 Nb0 2.174938 1_555
N0 Nb4 2.187904 1_545
N0 Nb1 2.194837 1_455
N1 Ti2 2.061705 1_565
N1 Ti0 2.061707 1_555
N1 Nb4 2.175726 1_555
N1 Nb1 2.194917 1_565
N1 Nb0 2.194920 1_555
N2 Ti2 2.060452 1_455
N2 Ti0 2.065803 1_555
N2 Nb1 2.174937 1_455
N2 Nb4 2.187904 1_555
N2 Nb0 2.194833 1_455
N3 Ti1 2.091002 1_556
N3 Ti3 2.121903 1_656
N3 W0 2.144241 1_555
N3 Nb2 2.164770 1_555
N3 Nb3 2.188673 1_655
N4 Ti1 2.061705 1_565
N4 Ti3 2.061707 1_555
N4 Nb4 2.175726 1_555
N4 Nb1 2.194917 1_565
N4 Nb0 2.194920 1_555
N5 Ti3 2.091006 1_556
N5 Ti1 2.121905 1_556
N5 W0 2.144241 1_565
N5 Nb3 2.164769 1_555
N5 Nb2 2.188673 1_555
N6 Ti3 2.087920 1_546
N6 Ti1 2.087922 1_556
N6 W0 2.119631 1_555
N6 Nb2 2.195343 1_445
N6 Nb3 2.195343 1_555
N7 Ti0 2.091006 1_555
N7 Ti2 2.121905 1_555
N7 W0 2.144241 1_565
N7 Nb3 2.164769 1_555
N7 Nb2 2.188673 1_555
N8 Ti2 2.091002 1_555
N8 Ti0 2.121903 1_655
N8 W0 2.144241 1_555
N8 Nb2 2.164770 1_555
N8 Nb3 2.188673 1_655
N9 Ti1 2.060452 1_455
N9 Ti3 2.065803 1_555
N9 Nb1 2.174937 1_455
N9 Nb4 2.187904 1_555
N9 Nb0 2.194833 1_455
N10 Ti0 2.087920 1_545
N10 Ti2 2.087922 1_555
N10 W0 2.119631 1_555
N10 Nb2 2.195343 1_445
N10 Nb3 2.195343 1_555
N11 Ti3 2.060455 1_555
N11 Ti1 2.065807 1_555
N11 Nb0 2.174938 1_555
N11 Nb4 2.187904 1_545
N11 Nb1 2.194837 1_455
