# generated using pymatgen
data_MgIn5Co2
_symmetry_space_group_name_H-M   'P 1'
_cell_length_a   6.85198621
_cell_length_b   6.85206121
_cell_length_c   6.87024823
_cell_angle_alpha   90.00000000
_cell_angle_beta   90.00000000
_cell_angle_gamma   89.99989111
_symmetry_Int_Tables_number   1
_chemical_formula_structural   MgIn5Co2
_chemical_formula_sum   'Mg2 In10 Co4'
_cell_volume   322.55972688
_cell_formula_units_Z   2
loop_
 _symmetry_equiv_pos_site_id
 _symmetry_equiv_pos_as_xyz
  1  'x, y, z'
loop_
 _atom_site_type_symbol
 _atom_site_label
 _atom_site_symmetry_multiplicity
 _atom_site_fract_x
 _atom_site_fract_y
 _atom_site_fract_z
 _atom_site_occupancy
  Mg  Mg0  1  0.50000000  0.50000000  0.00000000  1
  Mg  Mg1  1  0.50000000  0.50000000  0.50000000  1
  In  In0  1  0.00000000  0.00000000  0.00000000  1
  In  In1  1  0.83473180  0.35144995  0.24202412  1
  In  In2  1  0.16526820  0.64855105  0.24202412  1
  In  In3  1  0.35146938  0.16529491  0.25799278  1
  In  In4  1  0.64853262  0.83470509  0.25799278  1
  In  In5  1  0.00000000  0.00000000  0.50000000  1
  In  In6  1  0.35146838  0.16529491  0.74200722  1
  In  In7  1  0.64853162  0.83470509  0.74200722  1
  In  In8  1  0.83473180  0.35144995  0.75797588  1
  In  In9  1  0.16526820  0.64855105  0.75797588  1
  Co  Co0  1  0.14428563  0.34751571  0.00000000  1
  Co  Co1  1  0.85571337  0.65248429  0.00000000  1
  Co  Co2  1  0.65248881  0.14426388  0.50000000  1
  Co  Co3  1  0.34751119  0.85573512  0.50000000  1
loop_
_geom_bond_atom_site_label_1
_geom_bond_atom_site_label_2
_geom_bond_distance
_geom_bond_site_symmetry_2
In1 Mg0 3.010207 1_555
In1 Mg1 3.072102 1_555
In2 Mg0 3.010210 1_555
In2 Mg1 3.072104 1_555
In3 Mg1 3.009977 1_555
In3 Mg0 3.072006 1_555
In4 Mg1 3.009982 1_555
In4 Mg0 3.072011 1_555
In6 Mg1 3.009979 1_555
In6 Mg0 3.072009 1_556
In7 Mg1 3.009979 1_555
In7 Mg0 3.072009 1_556
In8 Mg0 3.010207 1_556
In8 Mg1 3.072102 1_555
In9 Mg0 3.010210 1_556
In9 Mg1 3.072104 1_555
Co0 In0 2.578281 1_555
Co0 In6 2.591512 1_554
Co0 In3 2.591515 1_555
Co0 Mg0 2.651859 1_555
Co0 In2 2.653346 1_555
Co0 In9 2.653346 1_554
Co0 In1 2.695256 1_455
Co0 In8 2.695256 1_454
Co1 In0 2.578284 1_665
Co1 In4 2.591504 1_555
Co1 In7 2.591508 1_554
Co1 Mg0 2.651853 1_555
Co1 In1 2.653340 1_555
Co1 In8 2.653340 1_554
Co1 In2 2.695262 1_655
Co1 In9 2.695262 1_654
Co2 In5 2.578172 1_655
Co2 In8 2.591523 1_555
Co2 In1 2.591523 1_555
Co2 Mg1 2.652025 1_555
Co2 In3 2.653189 1_555
Co2 In6 2.653194 1_555
Co2 In4 2.695231 1_545
Co2 In7 2.695231 1_545
Co3 In5 2.578174 1_565
Co3 In9 2.591515 1_555
Co3 In2 2.591515 1_555
Co3 Mg1 2.652019 1_555
Co3 In7 2.653194 1_555
Co3 In4 2.653199 1_555
Co3 In6 2.695237 1_565
Co3 In3 2.695237 1_565
