# generated using pymatgen
data_Hf2Ta2TiTc2
_symmetry_space_group_name_H-M   'P 1'
_cell_length_a   7.17179352
_cell_length_b   7.17179286
_cell_length_c   7.17179349
_cell_angle_alpha   37.48191514
_cell_angle_beta   37.48192315
_cell_angle_gamma   37.48191771
_symmetry_Int_Tables_number   1
_chemical_formula_structural   Hf2Ta2TiTc2
_chemical_formula_sum   'Hf2 Ta2 Ti1 Tc2'
_cell_volume   122.49367542
_cell_formula_units_Z   1
loop_
 _symmetry_equiv_pos_site_id
 _symmetry_equiv_pos_as_xyz
  1  'x, y, z'
loop_
 _atom_site_type_symbol
 _atom_site_label
 _atom_site_symmetry_multiplicity
 _atom_site_fract_x
 _atom_site_fract_y
 _atom_site_fract_z
 _atom_site_occupancy
  Hf  Hf0  1  0.19225965  0.19225965  0.19225965  1
  Hf  Hf1  1  0.76696809  0.76696809  0.76696809  1
  Ta  Ta0  1  0.34256444  0.34256444  0.34256444  1
  Ta  Ta1  1  0.61516555  0.61516555  0.61516555  1
  Ti  Ti0  1  0.92463034  0.92463034  0.92463034  1
  Tc  Tc0  1  0.05068759  0.05068759  0.05068759  1
  Tc  Tc1  1  0.48272235  0.48272235  0.48272235  1
loop_
_geom_bond_atom_site_label_1
_geom_bond_atom_site_label_2
_geom_bond_distance
_geom_bond_site_symmetry_2
Hf0 Tc1 2.795166 1_545
Hf0 Tc1 2.795167 1_554
Hf0 Tc1 2.795167 1_455
Hf0 Tc0 2.828602 1_555
Hf0 Ti0 2.966921 1_454
Hf0 Ti0 2.966921 1_445
Hf0 Ti0 2.966921 1_544
Hf0 Ta0 3.003081 1_555
Hf0 Ta1 3.206577 1_545
Hf0 Ta1 3.206578 1_554
Hf0 Ta1 3.206578 1_455
Hf0 Hf1 3.233422 1_454
Hf0 Hf1 3.233422 1_445
Hf0 Hf1 3.233422 1_544
Hf1 Tc1 2.835697 1_565
Hf1 Tc1 2.835698 1_556
Hf1 Tc1 2.835698 1_655
Hf1 Tc0 2.839351 1_656
Hf1 Tc0 2.839351 1_665
Hf1 Tc0 2.839351 1_566
Hf1 Ta1 3.033006 1_555
Hf1 Ti0 3.150083 1_555
Hf1 Ta0 3.223375 1_565
Hf1 Ta0 3.223375 1_556
Hf1 Ta0 3.223375 1_655
Ta0 Tc0 2.786638 1_565
Ta0 Tc0 2.786638 1_556
Ta0 Tc0 2.786639 1_655
Ta0 Tc1 2.800347 1_555
Ta0 Ta1 2.924325 1_545
Ta0 Ta1 2.924326 1_554
Ta0 Ta1 2.924326 1_455
Ta0 Ti0 3.152214 1_454
Ta0 Ti0 3.152214 1_445
Ta0 Ti0 3.152214 1_544
Ta1 Tc1 2.646207 1_555
Ta1 Ti0 2.703091 1_545
Ta1 Ti0 2.703091 1_554
Ta1 Ti0 2.703091 1_455
Tc0 Ti0 2.518617 1_444
