# generated using pymatgen
data_TaGaCl8
_symmetry_space_group_name_H-M   'P 1'
_cell_length_a   9.62944635
_cell_length_b   9.62944655
_cell_length_c   8.35382094
_cell_angle_alpha   90.00000000
_cell_angle_beta   90.00000000
_cell_angle_gamma   130.00997310
_symmetry_Int_Tables_number   1
_chemical_formula_structural   TaGaCl8
_chemical_formula_sum   'Ta2 Ga2 Cl16'
_cell_volume   593.30544036
_cell_formula_units_Z   2
loop_
 _symmetry_equiv_pos_site_id
 _symmetry_equiv_pos_as_xyz
  1  'x, y, z'
loop_
 _atom_site_type_symbol
 _atom_site_label
 _atom_site_symmetry_multiplicity
 _atom_site_fract_x
 _atom_site_fract_y
 _atom_site_fract_z
 _atom_site_occupancy
  Ta  Ta0  1  0.88726659  0.11273341  0.25000000  1
  Ta  Ta1  1  0.11273341  0.88726659  0.75000000  1
  Ga  Ga0  1  0.31700081  0.68299919  0.75000000  1
  Ga  Ga1  1  0.68299919  0.31700081  0.25000000  1
  Cl  Cl0  1  0.38052625  0.61947375  0.53279008  1
  Cl  Cl1  1  0.61947375  0.38052625  0.46720992  1
  Cl  Cl2  1  0.43342180  0.97613833  0.75000000  1
  Cl  Cl3  1  0.97613833  0.43342180  0.25000000  1
  Cl  Cl4  1  0.56657820  0.02386167  0.25000000  1
  Cl  Cl5  1  0.02386167  0.56657820  0.75000000  1
  Cl  Cl6  1  0.24386515  0.18188989  0.75000000  1
  Cl  Cl7  1  0.18188989  0.24386515  0.25000000  1
  Cl  Cl8  1  0.75613485  0.81811011  0.25000000  1
  Cl  Cl9  1  0.81811011  0.75613485  0.75000000  1
  Cl  Cl10  1  0.13251567  0.86748433  0.47665715  1
  Cl  Cl11  1  0.86748433  0.13251567  0.52334285  1
  Cl  Cl12  1  0.86748433  0.13251567  0.97665715  1
  Cl  Cl13  1  0.13251567  0.86748433  0.02334285  1
  Cl  Cl14  1  0.38052625  0.61947375  0.96720992  1
  Cl  Cl15  1  0.61947375  0.38052625  0.03279008  1
loop_
_geom_bond_atom_site_label_1
_geom_bond_atom_site_label_2
_geom_bond_distance
_geom_bond_site_symmetry_2
Cl0 Ga0 2.126517 1_555
Cl1 Ga1 2.126517 1_555
Cl2 Ga0 2.270626 1_555
Cl2 Ta1 2.621130 1_555
Cl3 Ga1 2.270626 1_555
Cl3 Ta0 2.621130 1_555
Cl4 Ga1 2.270626 1_555
Cl4 Ta0 2.621130 1_555
Cl5 Ga0 2.270626 1_555
Cl5 Ta1 2.621130 1_555
Cl6 Ta1 2.244314 1_545
Cl7 Ta0 2.244314 1_455
Cl8 Ta0 2.244314 1_565
Cl9 Ta1 2.244314 1_655
Cl10 Ta1 2.309418 1_555
Cl11 Ta0 2.309418 1_555
Cl12 Ta0 2.309418 1_556
Cl13 Ta1 2.309418 1_554
Cl14 Ga0 2.126517 1_555
Cl15 Ga1 2.126517 1_555
