# generated using pymatgen
data_KRb(SnSe2)4
_symmetry_space_group_name_H-M   'P 1'
_cell_length_a   10.15261120
_cell_length_b   10.19512997
_cell_length_c   7.56154932
_cell_angle_alpha   86.86019100
_cell_angle_beta   89.33796318
_cell_angle_gamma   141.90237703
_symmetry_Int_Tables_number   1
_chemical_formula_structural   KRb(SnSe2)4
_chemical_formula_sum   'K1 Rb1 Sn4 Se8'
_cell_volume   480.28645538
_cell_formula_units_Z   1
loop_
 _symmetry_equiv_pos_site_id
 _symmetry_equiv_pos_as_xyz
  1  'x, y, z'
loop_
 _atom_site_type_symbol
 _atom_site_label
 _atom_site_symmetry_multiplicity
 _atom_site_fract_x
 _atom_site_fract_y
 _atom_site_fract_z
 _atom_site_occupancy
  K  K0  1  0.03552841  0.34619786  0.96079165  1
  Rb  Rb0  1  0.33694497  0.02637264  0.97283261  1
  Sn  Sn0  1  0.58948704  0.59258933  0.37671563  1
  Sn  Sn1  1  0.48182358  0.85840524  0.55339499  1
  Sn  Sn2  1  0.85771962  0.47834112  0.55913995  1
  Sn  Sn3  1  0.68572600  0.69118724  0.86858337  1
  Se  Se0  1  0.49517056  0.11457303  0.46239407  1
  Se  Se1  1  0.11625908  0.49841023  0.45859411  1
  Se  Se2  1  0.37040402  0.37575344  0.12449720  1
  Se  Se3  1  0.75690283  0.95531670  0.34822850  1
  Se  Se4  1  0.37579448  0.37862732  0.66859191  1
  Se  Se5  1  0.85927887  0.52159151  0.87718835  1
  Se  Se6  1  0.53666523  0.85549485  0.87283717  1
  Se  Se7  1  0.94929329  0.75413650  0.35281150  1
loop_
_geom_bond_atom_site_label_1
_geom_bond_atom_site_label_2
_geom_bond_distance
_geom_bond_site_symmetry_2
K0 Se6 3.354527 1_555
K0 Se6 3.418249 1_445
K0 Se2 3.421677 1_556
K0 Se5 3.426004 1_455
K0 Se3 3.640393 1_446
K0 Se1 3.844577 1_555
K0 Se4 3.856322 1_555
K0 Se1 3.994761 1_556
Rb0 Se5 3.392191 1_555
Rb0 Se5 3.425443 1_445
Rb0 Se2 3.559545 1_556
Rb0 Se7 3.622268 1_446
Rb0 Se6 3.658811 1_545
Rb0 Se4 3.897418 1_555
Rb0 Se0 3.914243 1_556
Rb0 Se0 3.935662 1_555
Se0 Sn1 2.560589 1_545
Se0 Sn2 2.590702 1_555
Se1 Sn2 2.569296 1_455
Se1 Sn1 2.582473 1_555
Se2 Sn0 2.508468 1_555
Se2 Sn3 2.703058 1_554
Se3 Sn1 2.563502 1_555
Se3 Sn0 2.573368 1_555
Se4 Sn0 2.499911 1_555
Se4 Sn3 2.683023 1_555
Se5 Sn2 2.466672 1_555
Se5 Sn3 3.299091 1_555
Se6 Sn1 2.488906 1_555
Se6 Sn3 3.015321 1_555
Se7 Sn0 2.563635 1_555
Se7 Sn2 2.564372 1_555
