# generated using pymatgen
data_AsPb2S3Br
_symmetry_space_group_name_H-M   'P 1'
_cell_length_a   6.71875978
_cell_length_b   9.58890839
_cell_length_c   11.59725542
_cell_angle_alpha   90.00000000
_cell_angle_beta   90.00000000
_cell_angle_gamma   90.00000000
_symmetry_Int_Tables_number   1
_chemical_formula_structural   AsPb2S3Br
_chemical_formula_sum   'As4 Pb8 S12 Br4'
_cell_volume   747.15981471
_cell_formula_units_Z   4
loop_
 _symmetry_equiv_pos_site_id
 _symmetry_equiv_pos_as_xyz
  1  'x, y, z'
loop_
 _atom_site_type_symbol
 _atom_site_label
 _atom_site_symmetry_multiplicity
 _atom_site_fract_x
 _atom_site_fract_y
 _atom_site_fract_z
 _atom_site_occupancy
  As  As0  1  0.25000000  0.03849892  0.08063878  1
  As  As1  1  0.75000000  0.96150108  0.91936122  1
  As  As2  1  0.75000000  0.53849892  0.41936122  1
  As  As3  1  0.25000000  0.46150108  0.58063878  1
  Pb  Pb0  1  0.25000000  0.80403903  0.38180126  1
  Pb  Pb1  1  0.75000000  0.19596097  0.61819874  1
  Pb  Pb2  1  0.75000000  0.30403903  0.11819874  1
  Pb  Pb3  1  0.25000000  0.69596097  0.88180126  1
  Pb  Pb4  1  0.25000000  0.27894394  0.32621500  1
  Pb  Pb5  1  0.75000000  0.72105606  0.67378500  1
  Pb  Pb6  1  0.75000000  0.77894394  0.17378500  1
  Pb  Pb7  1  0.25000000  0.22105606  0.82621500  1
  S  S0  1  0.00152719  0.08837558  0.20466734  1
  S  S1  1  0.99847281  0.91162442  0.79533266  1
  S  S2  1  0.99847281  0.58837558  0.29533266  1
  S  S3  1  0.50152719  0.91162442  0.79533266  1
  S  S4  1  0.00152719  0.41162442  0.70466734  1
  S  S5  1  0.49847281  0.08837558  0.20466734  1
  S  S6  1  0.49847281  0.41162442  0.70466734  1
  S  S7  1  0.50152719  0.58837558  0.29533266  1
  S  S8  1  0.25000000  0.80625919  0.10256639  1
  S  S9  1  0.75000000  0.19374081  0.89743361  1
  S  S10  1  0.75000000  0.30625919  0.39743361  1
  S  S11  1  0.25000000  0.69374081  0.60256639  1
  Br  Br0  1  0.25000000  0.39403296  0.03807020  1
  Br  Br1  1  0.75000000  0.60596704  0.96192980  1
  Br  Br2  1  0.75000000  0.89403296  0.46192980  1
  Br  Br3  1  0.25000000  0.10596704  0.53807020  1
loop_
_geom_bond_atom_site_label_1
_geom_bond_atom_site_label_2
_geom_bond_distance
_geom_bond_site_symmetry_2
As0 S8 2.241398 1_545
As0 S0 2.254927 1_555
As0 S5 2.254927 1_555
As1 S9 2.241398 1_565
As1 S3 2.254927 1_555
As1 S1 2.254927 1_555
As2 S10 2.241398 1_555
As2 S7 2.254927 1_555
As2 S2 2.254927 1_555
As3 S11 2.241398 1_555
As3 S4 2.254927 1_555
As3 S6 2.254927 1_555
Pb0 S11 2.770123 1_555
Pb0 S2 2.852730 1_455
Pb0 S7 2.852730 1_555
Pb1 S10 2.770123 1_555
Pb1 S6 2.852730 1_555
Pb1 S4 2.852730 1_655
Pb2 S9 2.770123 1_554
Pb2 S0 2.852730 1_655
Pb2 S5 2.852730 1_555
Pb3 S8 2.770123 1_556
Pb3 S1 2.852730 1_455
Pb3 S3 2.852730 1_555
Pb4 S5 2.848368 1_555
Pb4 S0 2.848368 1_555
Pb5 S3 2.848368 1_555
Pb5 S1 2.848368 1_555
Pb6 S7 2.848368 1_555
Pb6 S2 2.848368 1_555
Pb7 S4 2.848368 1_555
Pb7 S6 2.848368 1_555
Br0 Pb7 2.964406 1_554
Br1 Pb6 2.964406 1_556
Br2 Pb5 2.964406 1_555
Br3 Pb4 2.964406 1_555
