# generated using pymatgen
data_MnSO4F
_symmetry_space_group_name_H-M   'P 1'
_cell_length_a   5.00681951
_cell_length_b   5.27211214
_cell_length_c   7.38908938
_cell_angle_alpha   111.47264240
_cell_angle_beta   110.16170119
_cell_angle_gamma   88.80294542
_symmetry_Int_Tables_number   1
_chemical_formula_structural   MnSO4F
_chemical_formula_sum   'Mn2 S2 O8 F2'
_cell_volume   169.14448127
_cell_formula_units_Z   2
loop_
 _symmetry_equiv_pos_site_id
 _symmetry_equiv_pos_as_xyz
  1  'x, y, z'
loop_
 _atom_site_type_symbol
 _atom_site_label
 _atom_site_symmetry_multiplicity
 _atom_site_fract_x
 _atom_site_fract_y
 _atom_site_fract_z
 _atom_site_occupancy
  Mn  Mn0  1  0.00000155  0.00001141  0.00001584  1
  Mn  Mn1  1  0.00001229  0.49999238  0.49997738  1
  S  S0  1  0.61614993  0.92184932  0.25217809  1
  S  S1  1  0.38385920  0.07814456  0.74782819  1
  O  O0  1  0.72990757  0.84421904  0.08100001  1
  O  O1  1  0.29929124  0.84662238  0.15641030  1
  O  O2  1  0.66993491  0.22108923  0.37166861  1
  O  O3  1  0.72929405  0.77187818  0.38487816  1
  O  O4  1  0.27068879  0.22811537  0.61509684  1
  O  O5  1  0.33006451  0.77892720  0.62834559  1
  O  O6  1  0.70071938  0.15335572  0.84355810  1
  O  O7  1  0.27012030  0.15579146  0.91901238  1
  F  F0  1  0.07804046  0.35528777  0.25777339  1
  F  F1  1  0.92192181  0.64471897  0.74226113  1
loop_
_geom_bond_atom_site_label_1
_geom_bond_atom_site_label_2
_geom_bond_distance
_geom_bond_site_symmetry_2
Mn0 O1 1.916954 1_545
Mn0 O6 1.917014 1_454
Mn0 O0 1.955895 1_445
Mn0 O7 1.956059 1_554
Mn1 O5 1.947539 1_555
Mn1 O2 1.947563 1_455
Mn1 O4 2.152105 1_555
Mn1 O3 2.152179 1_455
O0 S0 1.483115 1_555
O1 S0 1.490579 1_555
O2 S0 1.474805 1_545
O3 S0 1.439957 1_555
O4 S1 1.440148 1_555
O5 S1 1.474695 1_565
O6 S1 1.490573 1_555
O7 S1 1.483088 1_555
F0 Mn1 1.845937 1_555
F0 Mn0 2.048004 1_555
F1 Mn1 1.846636 1_655
F1 Mn0 2.048019 1_666
