# generated using pymatgen
data_CrCu6BrO8
_symmetry_space_group_name_H-M   'P 1'
_cell_length_a   6.36116007
_cell_length_b   6.36115926
_cell_length_c   6.36116033
_cell_angle_alpha   59.99999948
_cell_angle_beta   60.00000367
_cell_angle_gamma   59.99999535
_symmetry_Int_Tables_number   1
_chemical_formula_structural   CrCu6BrO8
_chemical_formula_sum   'Cr1 Cu6 Br1 O8'
_cell_volume   182.00944796
_cell_formula_units_Z   1
loop_
 _symmetry_equiv_pos_site_id
 _symmetry_equiv_pos_as_xyz
  1  'x, y, z'
loop_
 _atom_site_type_symbol
 _atom_site_label
 _atom_site_symmetry_multiplicity
 _atom_site_fract_x
 _atom_site_fract_y
 _atom_site_fract_z
 _atom_site_occupancy
  Cr  Cr0  1  0.00000000  0.00000000  0.00000000  1
  Cu  Cu0  1  0.00000000  0.00000000  0.50000000  1
  Cu  Cu1  1  0.50000000  0.00000000  0.00000000  1
  Cu  Cu2  1  0.00000000  0.50000000  0.00000000  1
  Cu  Cu3  1  0.50000000  0.50000000  0.00000000  1
  Cu  Cu4  1  0.00000000  0.50000000  0.50000000  1
  Cu  Cu5  1  0.50000000  0.00000000  0.50000000  1
  Br  Br0  1  0.50000000  0.50000000  0.50000000  1
  O  O0  1  0.13561318  0.13561318  0.59316046  1
  O  O1  1  0.13561318  0.59316046  0.13561318  1
  O  O2  1  0.59316046  0.13561318  0.13561318  1
  O  O3  1  0.86438682  0.40683954  0.86438682  1
  O  O4  1  0.13561318  0.13561318  0.13561318  1
  O  O5  1  0.86438682  0.86438682  0.86438682  1
  O  O6  1  0.86438682  0.86438682  0.40683954  1
  O  O7  1  0.40683954  0.86438682  0.86438682  1
loop_
_geom_bond_atom_site_label_1
_geom_bond_atom_site_label_2
_geom_bond_distance
_geom_bond_site_symmetry_2
Cr0 O3 2.113069 1_454
Cr0 O1 2.113069 1_545
Cr0 O4 2.113070 1_555
Cr0 O5 2.113070 1_444
Cr0 O7 2.113070 1_544
Cr0 O2 2.113070 1_455
Cr0 O6 2.113070 1_445
Cr0 O0 2.113070 1_554
Cu0 O0 1.898987 1_555
Cu0 O6 1.898987 1_445
Cu0 O5 1.898988 1_445
Cu0 O4 1.898988 1_555
Cu1 O2 1.898987 1_555
Cu1 O7 1.898987 1_544
Cu1 O5 1.898987 1_544
Cu1 O4 1.898987 1_555
Cu2 O5 1.898987 1_454
Cu2 O4 1.898987 1_555
Cu2 O1 1.898987 1_555
Cu2 O3 1.898987 1_454
Cu3 O7 1.898987 1_554
Cu3 O2 1.898987 1_555
Cu3 O3 1.898987 1_554
Cu3 O1 1.898987 1_555
Cu4 O6 1.898987 1_455
Cu4 O0 1.898987 1_555
Cu4 O3 1.898988 1_455
Cu4 O1 1.898988 1_555
Cu5 O6 1.898987 1_545
Cu5 O0 1.898987 1_555
Cu5 O7 1.898988 1_545
Cu5 O2 1.898988 1_555
Br0 Cu0 3.180580 1_565
Br0 Cu0 3.180580 1_655
Br0 Cu5 3.180580 1_565
Br0 Cu5 3.180580 1_555
Br0 Cu1 3.180580 1_565
Br0 Cu1 3.180580 1_556
Br0 Cu4 3.180580 1_655
Br0 Cu4 3.180580 1_555
Br0 Cu3 3.180580 1_556
Br0 Cu3 3.180580 1_555
Br0 Cu2 3.180580 1_556
Br0 Cu2 3.180580 1_655
