# generated using pymatgen
data_K4NaAlSe4
_symmetry_space_group_name_H-M   'P 1'
_cell_length_a   8.18041968
_cell_length_b   8.18041992
_cell_length_c   8.18042035
_cell_angle_alpha   130.59553446
_cell_angle_beta   129.23672386
_cell_angle_gamma   73.54627455
_symmetry_Int_Tables_number   1
_chemical_formula_structural   K4NaAlSe4
_chemical_formula_sum   'K4 Na1 Al1 Se4'
_cell_volume   314.19496223
_cell_formula_units_Z   1
loop_
 _symmetry_equiv_pos_site_id
 _symmetry_equiv_pos_as_xyz
  1  'x, y, z'
loop_
 _atom_site_type_symbol
 _atom_site_label
 _atom_site_symmetry_multiplicity
 _atom_site_fract_x
 _atom_site_fract_y
 _atom_site_fract_z
 _atom_site_occupancy
  K  K0  1  0.48247890  0.14772411  0.33926001  1
  K  K1  1  0.51752110  0.85678111  0.66524722  1
  K  K2  1  0.19153489  0.35227589  0.83475278  1
  K  K3  1  0.80846511  0.64321889  0.16073999  1
  Na  Na0  1  0.00000000  0.25000000  0.25000000  1
  Al  Al0  1  0.00000000  0.75000000  0.75000000  1
  Se  Se0  1  0.08988323  0.85151953  0.15389773  1
  Se  Se1  1  0.91011677  0.06401451  0.76163730  1
  Se  Se2  1  0.30237720  0.64848047  0.73836270  1
  Se  Se3  1  0.69762280  0.43598549  0.34610227  1
loop_
_geom_bond_atom_site_label_1
_geom_bond_atom_site_label_2
_geom_bond_distance
_geom_bond_site_symmetry_2
K0 Se3 3.273508 1_555
K0 Se1 3.328142 1_555
K0 Se2 3.336616 1_544
K0 Se0 3.457009 1_545
K0 Se1 3.786303 1_454
K0 Se2 3.856293 1_555
K1 Se2 3.273488 1_555
K1 Se0 3.328148 1_555
K1 Se3 3.336626 1_555
K1 Se1 3.457014 1_565
K1 Se0 3.786301 1_656
K1 Se3 3.856283 1_566
K2 Se1 3.273514 1_455
K2 Se3 3.328152 1_556
K2 Se0 3.336613 1_556
K2 Se2 3.457002 1_555
K2 Se3 3.786292 1_455
K2 Se0 3.856285 1_545
K3 Se0 3.273495 1_655
K3 Se2 3.328150 1_554
K3 Se1 3.336623 1_565
K3 Se3 3.457009 1_555
K3 Se2 3.786297 1_655
K3 Se1 3.856287 1_554
Na0 Se3 2.796945 1_455
Na0 Se1 2.796945 1_454
Na0 Se2 2.796949 1_555
Na0 Se0 2.796952 1_545
Al0 Se2 2.418393 1_555
Al0 Se3 2.418393 1_455
Al0 Se1 2.418393 1_465
Al0 Se0 2.418397 1_556
