# generated using pymatgen
data_NaCaMoN3
_symmetry_space_group_name_H-M   'P 1'
_cell_length_a   6.08432499
_cell_length_b   6.08432465
_cell_length_c   11.87921995
_cell_angle_alpha   89.47101312
_cell_angle_beta   89.47101460
_cell_angle_gamma   122.00308871
_symmetry_Int_Tables_number   1
_chemical_formula_structural   NaCaMoN3
_chemical_formula_sum   'Na4 Ca4 Mo4 N12'
_cell_volume   372.85484364
_cell_formula_units_Z   4
loop_
 _symmetry_equiv_pos_site_id
 _symmetry_equiv_pos_as_xyz
  1  'x, y, z'
loop_
 _atom_site_type_symbol
 _atom_site_label
 _atom_site_symmetry_multiplicity
 _atom_site_fract_x
 _atom_site_fract_y
 _atom_site_fract_z
 _atom_site_occupancy
  Na  Na0  1  0.54711951  0.96042907  0.86729746  1
  Na  Na1  1  0.03957093  0.45288049  0.63270254  1
  Na  Na2  1  0.45288049  0.03957093  0.13270254  1
  Na  Na3  1  0.96042907  0.54711951  0.36729746  1
  Ca  Ca0  1  0.32750716  0.10011360  0.58247289  1
  Ca  Ca1  1  0.89988640  0.67249284  0.91752711  1
  Ca  Ca2  1  0.67249284  0.89988640  0.41752711  1
  Ca  Ca3  1  0.10011360  0.32750716  0.08247289  1
  Mo  Mo0  1  0.72468204  0.74506197  0.66093330  1
  Mo  Mo1  1  0.25493803  0.27531796  0.83906670  1
  Mo  Mo2  1  0.27531796  0.25493803  0.33906670  1
  Mo  Mo3  1  0.74506197  0.72468204  0.16093330  1
  N  N0  1  0.57262210  0.42737790  0.75000000  1
  N  N1  1  0.42737790  0.57262210  0.25000000  1
  N  N2  1  0.50941566  0.84536187  0.61594723  1
  N  N3  1  0.15463813  0.49058434  0.88405277  1
  N  N4  1  0.49058434  0.15463813  0.38405277  1
  N  N5  1  0.84536187  0.50941566  0.11594723  1
  N  N6  1  0.71094663  0.87273584  0.03759597  1
  N  N7  1  0.12726416  0.28905337  0.46240403  1
  N  N8  1  0.28905337  0.12726416  0.96240403  1
  N  N9  1  0.87273584  0.71094663  0.53759597  1
  N  N10  1  0.00109945  0.99890055  0.75000000  1
  N  N11  1  0.99890055  0.00109945  0.25000000  1
loop_
_geom_bond_atom_site_label_1
_geom_bond_atom_site_label_2
_geom_bond_distance
_geom_bond_site_symmetry_2
Ca0 N2 2.366571 1_545
Ca0 N4 2.498768 1_555
Ca0 N7 2.515272 1_555
Ca0 N9 2.579365 1_445
Ca0 N10 2.625239 1_545
Ca0 N0 2.670180 1_555
Ca1 N3 2.366571 1_655
Ca1 N5 2.498768 1_556
Ca1 N6 2.515272 1_556
Ca1 N8 2.579365 1_665
Ca1 N10 2.625239 1_655
Ca1 N0 2.670180 1_555
Ca2 N4 2.366571 1_565
Ca2 N2 2.498768 1_555
Ca2 N9 2.515272 1_555
Ca2 N7 2.579365 1_665
Ca2 N11 2.625239 1_565
Ca2 N1 2.670180 1_555
Ca3 N5 2.366571 1_455
Ca3 N3 2.498768 1_554
Ca3 N8 2.515272 1_554
Ca3 N6 2.579365 1_445
Ca3 N11 2.625239 1_455
Ca3 N1 2.670180 1_555
Mo0 N9 1.783434 1_555
Mo0 N2 1.796533 1_555
Mo0 N10 1.908703 1_655
Mo0 N0 1.939125 1_555
Mo1 N8 1.783434 1_555
Mo1 N3 1.796533 1_555
Mo1 N10 1.908703 1_545
Mo1 N0 1.939125 1_555
Mo2 N7 1.783434 1_555
Mo2 N4 1.796533 1_555
Mo2 N11 1.908703 1_455
Mo2 N1 1.939125 1_555
Mo3 N6 1.783434 1_555
Mo3 N5 1.796533 1_555
Mo3 N11 1.908703 1_565
Mo3 N1 1.939125 1_555
N2 Na1 2.580559 1_555
N3 Na0 2.580559 1_555
N4 Na3 2.580559 1_555
N5 Na2 2.580559 1_555
N6 Na0 2.439639 1_554
N6 Na2 2.539682 1_565
N7 Na1 2.439639 1_555
N7 Na3 2.539682 1_455
N8 Na2 2.439639 1_556
N8 Na0 2.539682 1_545
N9 Na3 2.439639 1_555
N9 Na1 2.539682 1_655
N10 Na1 2.977165 1_565
N10 Na0 2.977165 1_455
N11 Na3 2.977165 1_545
N11 Na2 2.977165 1_655
