# generated using pymatgen
data_Li2Ta3NbN6
_symmetry_space_group_name_H-M   'P 1'
_cell_length_a   5.22963466
_cell_length_b   5.22963403
_cell_length_c   10.30949425
_cell_angle_alpha   90.00000000
_cell_angle_beta   90.00000000
_cell_angle_gamma   120.14693241
_symmetry_Int_Tables_number   1
_chemical_formula_structural   Li2Ta3NbN6
_chemical_formula_sum   'Li4 Ta6 Nb2 N12'
_cell_volume   243.81797717
_cell_formula_units_Z   2
loop_
 _symmetry_equiv_pos_site_id
 _symmetry_equiv_pos_as_xyz
  1  'x, y, z'
loop_
 _atom_site_type_symbol
 _atom_site_label
 _atom_site_symmetry_multiplicity
 _atom_site_fract_x
 _atom_site_fract_y
 _atom_site_fract_z
 _atom_site_occupancy
  Li  Li0  1  0.33313744  0.66686256  0.00000000  1
  Li  Li1  1  0.33313744  0.66686256  0.50000000  1
  Li  Li2  1  0.66656047  0.33343953  0.50000000  1
  Li  Li3  1  0.66656047  0.33343953  0.00000000  1
  Ta  Ta0  1  0.35748915  0.35591990  0.75000000  1
  Ta  Ta1  1  0.99855079  0.00144921  0.50000000  1
  Ta  Ta2  1  0.99855079  0.00144921  0.00000000  1
  Ta  Ta3  1  0.64408010  0.64251085  0.25000000  1
  Ta  Ta4  1  0.35519902  0.99832512  0.25000000  1
  Ta  Ta5  1  0.00167488  0.64480098  0.75000000  1
  Nb  Nb0  1  0.99988195  0.35483054  0.25000000  1
  Nb  Nb1  1  0.64516946  0.00011805  0.75000000  1
  N  N0  1  0.68226609  0.67746549  0.62392657  1
  N  N1  1  0.68226609  0.67746549  0.87607343  1
  N  N2  1  0.32253451  0.31773391  0.12392657  1
  N  N3  1  0.32253451  0.31773391  0.37607343  1
  N  N4  1  0.31429965  0.00039032  0.87522266  1
  N  N5  1  0.31429965  0.00039032  0.62477734  1
  N  N6  1  0.99960968  0.68570035  0.37522266  1
  N  N7  1  0.99960968  0.68570035  0.12477734  1
  N  N8  1  0.67612045  0.99482536  0.12365826  1
  N  N9  1  0.67612045  0.99482536  0.37634174  1
  N  N10  1  0.00517464  0.32387955  0.87634174  1
  N  N11  1  0.00517464  0.32387955  0.62365826  1
loop_
_geom_bond_atom_site_label_1
_geom_bond_atom_site_label_2
_geom_bond_distance
_geom_bond_site_symmetry_2
Li0 N10 2.166598 1_554
Li0 N8 2.166598 1_555
Li0 N2 2.206196 1_555
Li0 N1 2.206196 1_554
Li0 N4 2.208944 1_564
Li0 N7 2.208944 1_455
Li1 N11 2.166598 1_555
Li1 N9 2.166598 1_555
Li1 N3 2.206196 1_555
Li1 N0 2.206196 1_555
Li1 N5 2.208944 1_565
Li1 N6 2.208944 1_455
Li2 N0 2.174282 1_555
Li2 N3 2.174282 1_555
Li2 N9 2.202842 1_545
Li2 N11 2.202842 1_655
Li2 N6 2.204372 1_555
Li2 N5 2.204372 1_555
Li3 N1 2.174282 1_554
Li3 N2 2.174282 1_555
Li3 N8 2.202842 1_545
Li3 N10 2.202842 1_654
Li3 N7 2.204372 1_555
Li3 N4 2.204372 1_554
N0 Ta1 2.103327 1_565
N0 Ta0 2.129096 1_555
N0 Ta5 2.189830 1_655
N0 Nb1 2.214264 1_565
N1 Ta2 2.103327 1_566
N1 Ta0 2.129096 1_555
N1 Ta5 2.189830 1_655
N1 Nb1 2.214264 1_565
N2 Ta2 2.103327 1_455
N2 Ta3 2.129095 1_555
N2 Ta4 2.189830 1_545
N2 Nb0 2.214264 1_455
N3 Ta1 2.103327 1_455
N3 Ta3 2.129095 1_555
N3 Ta4 2.189830 1_545
N3 Nb0 2.214264 1_455
N4 Ta2 2.095387 1_456
N4 Nb1 2.159432 1_555
N4 Ta5 2.178053 1_545
N4 Ta0 2.180091 1_555
N5 Ta1 2.095387 1_455
N5 Nb1 2.159432 1_555
N5 Ta5 2.178053 1_545
N5 Ta0 2.180091 1_555
N6 Ta1 2.095387 1_565
N6 Nb0 2.159432 1_555
N6 Ta4 2.178053 1_655
N6 Ta3 2.180091 1_555
N7 Ta2 2.095387 1_565
N7 Nb0 2.159432 1_555
N7 Ta4 2.178053 1_655
N7 Ta3 2.180091 1_555
N8 Ta2 2.100245 1_565
N8 Ta4 2.131770 1_555
N8 Ta3 2.193002 1_555
N8 Nb0 2.214956 1_565
N9 Ta1 2.100245 1_565
N9 Ta4 2.131770 1_555
N9 Ta3 2.193002 1_555
N9 Nb0 2.214956 1_565
N10 Ta2 2.100245 1_456
N10 Ta5 2.131770 1_555
N10 Ta0 2.193002 1_555
N10 Nb1 2.214956 1_455
N11 Ta1 2.100245 1_455
N11 Ta5 2.131770 1_555
N11 Ta0 2.193002 1_555
N11 Nb1 2.214956 1_455
