# generated using pymatgen
data_Al23V4
_symmetry_space_group_name_H-M   'P 1'
_cell_length_a   7.61737637
_cell_length_b   7.61737679
_cell_length_c   16.90832934
_cell_angle_alpha   90.00000000
_cell_angle_beta   90.00000000
_cell_angle_gamma   120.00000132
_symmetry_Int_Tables_number   1
_chemical_formula_structural   Al23V4
_chemical_formula_sum   'Al46 V8'
_cell_volume   849.65413792
_cell_formula_units_Z   2
loop_
 _symmetry_equiv_pos_site_id
 _symmetry_equiv_pos_as_xyz
  1  'x, y, z'
loop_
 _atom_site_type_symbol
 _atom_site_label
 _atom_site_symmetry_multiplicity
 _atom_site_fract_x
 _atom_site_fract_y
 _atom_site_fract_z
 _atom_site_occupancy
  Al  Al0  1  0.33333400  0.66666700  0.61530293  1
  Al  Al1  1  0.66666600  0.33333300  0.11530293  1
  Al  Al2  1  0.66666600  0.33333300  0.38469707  1
  Al  Al3  1  0.33333400  0.66666700  0.88469707  1
  Al  Al4  1  0.12581906  0.25163912  0.25000000  1
  Al  Al5  1  0.87418094  0.12581806  0.75000000  1
  Al  Al6  1  0.25163912  0.12581906  0.75000000  1
  Al  Al7  1  0.74836088  0.87418094  0.25000000  1
  Al  Al8  1  0.12581906  0.87418194  0.25000000  1
  Al  Al9  1  0.87418094  0.74836088  0.75000000  1
  Al  Al10  1  0.21025104  0.42050208  0.02982262  1
  Al  Al11  1  0.78974896  0.21025104  0.52982262  1
  Al  Al12  1  0.42050208  0.21025104  0.52982262  1
  Al  Al13  1  0.57949792  0.78974896  0.02982262  1
  Al  Al14  1  0.21025104  0.78974896  0.02982262  1
  Al  Al15  1  0.78974896  0.57949792  0.97017738  1
  Al  Al16  1  0.78974896  0.21025104  0.97017738  1
  Al  Al17  1  0.78974896  0.57949792  0.52982262  1
  Al  Al18  1  0.42050208  0.21025104  0.97017738  1
  Al  Al19  1  0.57949792  0.78974896  0.47017738  1
  Al  Al20  1  0.21025104  0.42050208  0.47017738  1
  Al  Al21  1  0.21025104  0.78974896  0.47017738  1
  Al  Al22  1  0.12481931  0.24963763  0.61660262  1
  Al  Al23  1  0.87518069  0.12481831  0.11660262  1
  Al  Al24  1  0.24963763  0.12481931  0.11660262  1
  Al  Al25  1  0.75036237  0.87518069  0.61660262  1
  Al  Al26  1  0.12481931  0.87518169  0.61660262  1
  Al  Al27  1  0.87518069  0.75036237  0.38339738  1
  Al  Al28  1  0.87518069  0.12481831  0.38339738  1
  Al  Al29  1  0.87518069  0.75036237  0.11660262  1
  Al  Al30  1  0.24963763  0.12481931  0.38339738  1
  Al  Al31  1  0.75036237  0.87518069  0.88339738  1
  Al  Al32  1  0.12481931  0.24963763  0.88339738  1
  Al  Al33  1  0.12481931  0.87518169  0.88339738  1
  Al  Al34  1  0.45895250  0.91790701  0.16623425  1
  Al  Al35  1  0.54104750  0.45895350  0.66623425  1
  Al  Al36  1  0.91790701  0.45895350  0.66623425  1
  Al  Al37  1  0.08209299  0.54104650  0.16623425  1
  Al  Al38  1  0.45895250  0.54104650  0.16623425  1
  Al  Al39  1  0.54104750  0.08209299  0.83376575  1
  Al  Al40  1  0.54104750  0.45895350  0.83376575  1
  Al  Al41  1  0.54104750  0.08209299  0.66623425  1
  Al  Al42  1  0.91790701  0.45895350  0.83376575  1
  Al  Al43  1  0.08209299  0.54104650  0.33376575  1
  Al  Al44  1  0.45895250  0.91790701  0.33376575  1
  Al  Al45  1  0.45895250  0.54104650  0.33376575  1
  V  V0  1  0.00000000  -0.00000000  0.00000000  1
  V  V1  1  0.00000000  -0.00000000  0.50000000  1
  V  V2  1  0.78054206  0.56108612  0.25000000  1
  V  V3  1  0.21945794  0.78054306  0.75000000  1
  V  V4  1  0.56108712  0.78054306  0.75000000  1
  V  V5  1  0.43891288  0.21945694  0.25000000  1
  V  V6  1  0.78054206  0.21945694  0.25000000  1
  V  V7  1  0.21945794  0.43891388  0.75000000  1
loop_
_geom_bond_atom_site_label_1
_geom_bond_atom_site_label_2
_geom_bond_distance
_geom_bond_site_symmetry_2
Al0 V3 2.728435 1_555
Al0 V4 2.728439 1_555
Al0 V7 2.728439 1_555
Al0 Al25 2.751158 1_555
Al0 Al22 2.751165 1_555
Al0 Al26 2.751165 1_555
Al0 Al41 2.872619 1_565
Al0 Al36 2.872625 1_455
Al0 Al35 2.872625 1_555
Al0 Al19 2.942507 1_555
Al0 Al21 2.942511 1_555
Al0 Al20 2.942511 1_555
Al1 V6 2.728435 1_555
Al1 V5 2.728439 1_555
Al1 V2 2.728439 1_555
Al1 Al24 2.751158 1_555
Al1 Al29 2.751165 1_555
Al1 Al23 2.751165 1_555
Al1 Al34 2.872619 1_545
Al1 Al37 2.872625 1_655
Al1 Al38 2.872625 1_555
Al1 Al18 2.942507 1_554
Al1 Al16 2.942511 1_554
Al1 Al15 2.942511 1_554
Al2 V6 2.728435 1_555
Al2 V5 2.728439 1_555
Al2 V2 2.728439 1_555
Al2 Al30 2.751158 1_555
Al2 Al27 2.751165 1_555
Al2 Al28 2.751165 1_555
Al2 Al44 2.872619 1_545
Al2 Al43 2.872625 1_655
Al2 Al45 2.872625 1_555
Al3 V3 2.728435 1_555
Al3 V4 2.728439 1_555
Al3 V7 2.728439 1_555
Al3 Al31 2.751158 1_555
Al3 Al32 2.751165 1_555
Al3 Al33 2.751165 1_555
Al3 Al39 2.872619 1_565
Al3 Al42 2.872625 1_455
Al3 Al40 2.872625 1_555
Al4 V5 2.516497 1_555
Al4 V6 2.516504 1_455
Al4 Al45 2.776899 1_555
Al4 Al43 2.776899 1_555
Al4 Al8 2.875234 1_545
Al4 Al7 2.875241 1_445
Al5 V4 2.516492 1_545
Al5 V7 2.516507 1_655
Al5 Al9 2.875234 1_545
Al5 Al6 2.875237 1_655
Al6 V7 2.516500 1_555
Al6 V3 2.516500 1_545
Al6 Al9 2.875241 1_445
Al7 V2 2.516500 1_555
Al7 V6 2.516500 1_565
Al7 Al8 2.875237 1_655
Al8 V5 2.516492 1_565
Al8 V2 2.516507 1_455
Al9 V4 2.516497 1_555
Al9 V3 2.516504 1_655
Al10 Al32 2.720316 1_554
Al10 Al13 2.812692 1_555
Al10 Al14 2.812693 1_555
Al10 V0 2.819444 1_555
Al10 Al24 2.826964 1_555
Al10 Al23 2.826970 1_455
Al10 Al38 2.830629 1_555
Al10 Al37 2.830633 1_555
Al10 Al3 2.942511 1_554
Al10 Al16 2.951622 1_454
Al10 Al18 2.951622 1_554
Al11 Al28 2.720316 1_555
Al11 Al12 2.812692 1_555
Al11 Al17 2.812693 1_555
Al11 V1 2.819444 1_655
Al11 Al22 2.826970 1_655
Al11 Al25 2.826970 1_545
Al11 Al41 2.830629 1_555
Al11 Al36 2.830633 1_555
Al11 Al2 2.942511 1_555
Al11 Al20 2.951622 1_655
Al11 Al19 2.951622 1_545
Al12 Al30 2.720316 1_555
Al12 Al17 2.812692 1_555
Al12 V1 2.819444 1_555
Al12 Al26 2.826963 1_545
Al12 Al22 2.826963 1_555
Al12 Al35 2.830633 1_555
Al12 Al41 2.830637 1_555
Al12 Al2 2.942507 1_555
Al12 Al20 2.951622 1_555
Al12 Al21 2.951622 1_545
Al13 Al31 2.720316 1_554
Al13 Al14 2.812692 1_555
Al13 V0 2.819444 1_665
Al13 Al23 2.826963 1_565
Al13 Al29 2.826963 1_555
Al13 Al38 2.830633 1_555
Al13 Al34 2.830637 1_555
Al13 Al3 2.942507 1_554
Al13 Al15 2.951622 1_554
Al13 Al16 2.951622 1_564
Al14 Al33 2.720316 1_554
Al14 V0 2.819444 1_565
Al14 Al29 2.826970 1_455
Al14 Al24 2.826970 1_565
Al14 Al34 2.830629 1_555
Al14 Al37 2.830633 1_555
Al14 Al3 2.942511 1_554
Al14 Al15 2.951622 1_454
Al14 Al18 2.951622 1_564
Al15 Al29 2.720316 1_556
Al15 Al18 2.812692 1_555
Al15 Al16 2.812693 1_555
Al15 V0 2.819444 1_666
Al15 Al31 2.826964 1_555
Al15 Al33 2.826970 1_655
Al15 Al40 2.830629 1_555
Al15 Al42 2.830633 1_555
Al16 Al23 2.720316 1_556
Al16 Al18 2.812692 1_555
Al16 V0 2.819444 1_656
Al16 Al32 2.826970 1_655
Al16 Al31 2.826970 1_545
Al16 Al39 2.830629 1_555
Al16 Al42 2.830633 1_555
Al17 Al27 2.720316 1_555
Al17 V1 2.819444 1_665
Al17 Al25 2.826964 1_555
Al17 Al26 2.826970 1_655
Al17 Al35 2.830629 1_555
Al17 Al36 2.830633 1_555
Al17 Al2 2.942511 1_555
Al17 Al21 2.951622 1_655
Al17 Al19 2.951622 1_555
Al18 Al24 2.720316 1_556
Al18 V0 2.819444 1_556
Al18 Al33 2.826963 1_545
Al18 Al32 2.826963 1_555
Al18 Al40 2.830633 1_555
Al18 Al39 2.830637 1_555
Al19 Al25 2.720316 1_555
Al19 Al21 2.812692 1_555
Al19 Al20 2.812692 1_555
Al19 V1 2.819444 1_665
Al19 Al28 2.826963 1_565
Al19 Al27 2.826963 1_555
Al19 Al45 2.830633 1_555
Al19 Al44 2.830637 1_555
Al20 Al22 2.720316 1_555
Al20 Al21 2.812693 1_555
Al20 V1 2.819444 1_555
Al20 Al30 2.826964 1_555
Al20 Al28 2.826970 1_455
Al20 Al45 2.830629 1_555
Al20 Al43 2.830633 1_555
Al21 Al26 2.720316 1_555
Al21 V1 2.819444 1_565
Al21 Al27 2.826970 1_455
Al21 Al30 2.826970 1_565
Al21 Al44 2.830629 1_555
Al21 Al43 2.830633 1_555
Al22 V1 2.568861 1_555
Al22 V7 2.578074 1_555
Al22 Al5 2.796665 1_455
Al22 Al6 2.796665 1_555
Al22 Al26 2.852372 1_545
Al22 Al25 2.852379 1_445
Al22 Al36 2.871183 1_455
Al22 Al35 2.871183 1_555
Al23 V0 2.568861 1_655
Al23 V6 2.578077 1_555
Al23 Al7 2.796661 1_545
Al23 Al4 2.796665 1_655
Al23 Al29 2.852372 1_545
Al23 Al24 2.852376 1_655
Al23 Al34 2.871183 1_545
Al23 Al37 2.871183 1_655
Al24 V0 2.568861 1_555
Al24 V5 2.578071 1_555
Al24 Al8 2.796661 1_545
Al24 Al4 2.796665 1_555
Al24 Al29 2.852379 1_445
Al24 Al34 2.871176 1_545
Al24 Al38 2.871177 1_555
Al25 V1 2.568861 1_665
Al25 V4 2.578071 1_555
Al25 Al5 2.796661 1_565
Al25 Al9 2.796665 1_555
Al25 Al26 2.852376 1_655
Al25 Al41 2.871176 1_565
Al25 Al35 2.871177 1_555
Al26 V1 2.568861 1_565
Al26 V3 2.578077 1_555
Al26 Al6 2.796661 1_565
Al26 Al9 2.796665 1_455
Al26 Al41 2.871183 1_565
Al26 Al36 2.871183 1_455
Al27 V1 2.568861 1_665
Al27 V2 2.578074 1_555
Al27 Al8 2.796665 1_655
Al27 Al7 2.796665 1_555
Al27 Al28 2.852372 1_565
Al27 Al30 2.852379 1_665
Al27 Al43 2.871183 1_655
Al27 Al45 2.871183 1_555
Al28 V1 2.568861 1_655
Al28 V6 2.578077 1_555
Al28 Al7 2.796661 1_545
Al28 Al4 2.796665 1_655
Al28 Al30 2.852376 1_655
Al28 Al44 2.871183 1_545
Al28 Al43 2.871183 1_655
Al29 V0 2.568861 1_665
Al29 V2 2.578074 1_555
Al29 Al8 2.796665 1_655
Al29 Al7 2.796665 1_555
Al29 Al37 2.871183 1_655
Al29 Al38 2.871183 1_555
Al30 V1 2.568861 1_555
Al30 V5 2.578071 1_555
Al30 Al8 2.796661 1_545
Al30 Al4 2.796665 1_555
Al30 Al44 2.871176 1_545
Al30 Al45 2.871177 1_555
Al31 V0 2.568861 1_666
Al31 V4 2.578071 1_555
Al31 Al5 2.796661 1_565
Al31 Al9 2.796665 1_555
Al31 Al33 2.852376 1_655
Al31 Al32 2.852379 1_665
Al31 Al39 2.871176 1_565
Al31 Al40 2.871177 1_555
Al32 V0 2.568861 1_556
Al32 V7 2.578074 1_555
Al32 Al5 2.796665 1_455
Al32 Al6 2.796665 1_555
Al32 Al33 2.852372 1_545
Al32 Al42 2.871183 1_455
Al32 Al40 2.871183 1_555
Al33 V0 2.568861 1_566
Al33 V3 2.578077 1_555
Al33 Al6 2.796661 1_565
Al33 Al9 2.796665 1_455
Al33 Al39 2.871183 1_565
Al33 Al42 2.871183 1_455
Al34 V6 2.766994 1_565
Al34 V5 2.766994 1_565
Al34 Al8 2.776901 1_555
Al34 Al7 2.776905 1_555
Al34 Al44 2.832678 1_555
Al34 Al37 2.870685 1_555
Al34 Al38 2.870689 1_555
Al35 V7 2.766994 1_555
Al35 V4 2.766994 1_555
Al35 Al9 2.776899 1_555
Al35 Al6 2.776905 1_555
Al35 Al40 2.832678 1_555
Al35 Al36 2.870681 1_555
Al35 Al41 2.870689 1_555
Al36 V3 2.766997 1_655
Al36 V7 2.767000 1_655
Al36 Al9 2.776899 1_555
Al36 Al5 2.776912 1_555
Al36 Al42 2.832678 1_555
Al36 Al41 2.870685 1_555
Al37 V6 2.766997 1_455
Al37 V2 2.767000 1_455
Al37 Al4 2.776899 1_555
Al37 Al8 2.776912 1_555
Al37 Al43 2.832678 1_555
Al37 Al38 2.870681 1_555
Al38 V2 2.766994 1_555
Al38 V5 2.766994 1_555
Al38 Al4 2.776899 1_555
Al38 Al7 2.776905 1_555
Al38 Al45 2.832678 1_555
Al39 V3 2.766994 1_545
Al39 V4 2.766994 1_545
Al39 Al5 2.776901 1_555
Al39 Al6 2.776905 1_555
Al39 Al41 2.832678 1_555
Al39 Al42 2.870685 1_555
Al39 Al40 2.870689 1_555
Al40 V7 2.766994 1_555
Al40 V4 2.766994 1_555
Al40 Al9 2.776899 1_555
Al40 Al6 2.776905 1_555
Al40 Al42 2.870681 1_555
Al41 V3 2.766994 1_545
Al41 V4 2.766994 1_545
Al41 Al5 2.776901 1_555
Al41 Al6 2.776905 1_555
Al42 V3 2.766997 1_655
Al42 V7 2.767000 1_655
Al42 Al9 2.776899 1_555
Al42 Al5 2.776912 1_555
Al43 V6 2.766997 1_455
Al43 V2 2.767000 1_455
Al43 Al8 2.776912 1_555
Al43 Al45 2.870681 1_555
Al43 Al44 2.870685 1_555
Al44 V6 2.766994 1_565
Al44 V5 2.766994 1_565
Al44 Al8 2.776901 1_555
Al44 Al7 2.776905 1_555
Al44 Al45 2.870689 1_555
Al45 V2 2.766994 1_555
Al45 V5 2.766994 1_555
Al45 Al7 2.776905 1_555
V2 V5 2.602318 1_555
V2 V6 2.602318 1_555
V3 V4 2.602318 1_555
V3 V7 2.602318 1_555
V4 V7 2.602318 1_555
V5 V6 2.602318 1_555
