# generated using pymatgen
data_ZnHg2(PO3)4
_symmetry_space_group_name_H-M   'P 1'
_cell_length_a   5.13268296
_cell_length_b   7.28601399
_cell_length_c   9.84004909
_cell_angle_alpha   109.36148297
_cell_angle_beta   109.39625550
_cell_angle_gamma   113.91590923
_symmetry_Int_Tables_number   1
_chemical_formula_structural   ZnHg2(PO3)4
_chemical_formula_sum   'Zn1 Hg2 P4 O12'
_cell_volume   266.93251565
_cell_formula_units_Z   1
loop_
 _symmetry_equiv_pos_site_id
 _symmetry_equiv_pos_as_xyz
  1  'x, y, z'
loop_
 _atom_site_type_symbol
 _atom_site_label
 _atom_site_symmetry_multiplicity
 _atom_site_fract_x
 _atom_site_fract_y
 _atom_site_fract_z
 _atom_site_occupancy
  Zn  Zn0  1  0.00000000  0.00000000  0.00000000  1
  Hg  Hg0  1  0.61963781  0.68470864  0.49121085  1
  Hg  Hg1  1  0.38036219  0.31529136  0.50878915  1
  P  P0  1  0.33079993  0.82673315  0.23967584  1
  P  P1  1  0.73571009  0.34031967  0.09751331  1
  P  P2  1  0.26428991  0.65968033  0.90248669  1
  P  P3  1  0.66920007  0.17326685  0.76032416  1
  O  O0  1  0.65399006  0.93047598  0.40030912  1
  O  O1  1  0.34317068  0.68840557  0.08257545  1
  O  O2  1  0.75431872  0.00641395  0.77630578  1
  O  O3  1  0.03252097  0.61951395  0.22778508  1
  O  O4  1  0.13315922  0.79877235  0.87084134  1
  O  O5  1  0.55591726  0.68900702  0.88919542  1
  O  O6  1  0.44408274  0.31099298  0.11080458  1
  O  O7  1  0.86684078  0.20122765  0.12915866  1
  O  O8  1  0.96747903  0.38048605  0.77221492  1
  O  O9  1  0.24568128  0.99358605  0.22369422  1
  O  O10  1  0.65682932  0.31159443  0.91742455  1
  O  O11  1  0.34600994  0.06952402  0.59969088  1
loop_
_geom_bond_atom_site_label_1
_geom_bond_atom_site_label_2
_geom_bond_distance
_geom_bond_site_symmetry_2
Hg0 O0 2.224509 1_555
Hg0 O2 2.623008 1_565
Hg1 O11 2.224509 1_555
Hg1 O9 2.623008 1_545
O0 P0 1.507029 1_555
O1 P0 1.579103 1_555
O1 P2 1.599013 1_554
O2 P3 1.485014 1_555
O2 Zn0 2.170211 1_656
O3 P0 1.589604 1_555
O3 P1 1.601056 1_455
O4 P2 1.483262 1_555
O4 Zn0 2.094245 1_566
O5 P2 1.480710 1_555
O5 Zn0 2.010511 1_666
O6 P1 1.480710 1_555
O6 Zn0 2.010511 1_555
O7 P1 1.483262 1_555
O7 Zn0 2.094245 1_655
O8 P3 1.589604 1_555
O8 P2 1.601056 1_655
O9 P0 1.485014 1_555
O9 Zn0 2.170211 1_565
O10 P3 1.579103 1_555
O10 P1 1.599013 1_556
O11 P3 1.507029 1_555
