# generated using pymatgen
data_Ca2ReTcH18
_symmetry_space_group_name_H-M   'P 1'
_cell_length_a   4.85727506
_cell_length_b   4.85727488
_cell_length_c   8.83065608
_cell_angle_alpha   90.00000000
_cell_angle_beta   90.00000000
_cell_angle_gamma   119.98175341
_symmetry_Int_Tables_number   1
_chemical_formula_structural   Ca2ReTcH18
_chemical_formula_sum   'Ca2 Re1 Tc1 H18'
_cell_volume   180.46326211
_cell_formula_units_Z   1
loop_
 _symmetry_equiv_pos_site_id
 _symmetry_equiv_pos_as_xyz
  1  'x, y, z'
loop_
 _atom_site_type_symbol
 _atom_site_label
 _atom_site_symmetry_multiplicity
 _atom_site_fract_x
 _atom_site_fract_y
 _atom_site_fract_z
 _atom_site_occupancy
  Ca  Ca0  1  0.99946303  0.00053697  0.99990257  1
  Ca  Ca1  1  0.99946303  0.00053697  0.50009743  1
  Re  Re0  1  0.66217472  0.33782528  0.75000000  1
  Tc  Tc0  1  0.33789391  0.66210609  0.25000000  1
  H  H0  1  0.47837034  0.52162966  0.11525218  1
  H  H1  1  0.51886325  0.48113675  0.88524084  1
  H  H2  1  0.47837034  0.52162966  0.38474782  1
  H  H3  1  0.51886325  0.48113675  0.61475916  1
  H  H4  1  0.48028792  0.94669916  0.38366495  1
  H  H5  1  0.94820005  0.48077233  0.61409343  1
  H  H6  1  0.48028792  0.94669916  0.11633505  1
  H  H7  1  0.94820005  0.48077233  0.88590657  1
  H  H8  1  0.51922767  0.05179995  0.61409343  1
  H  H9  1  0.05330084  0.51971208  0.38366495  1
  H  H10  1  0.51922767  0.05179995  0.88590657  1
  H  H11  1  0.05330084  0.51971208  0.11633505  1
  H  H12  1  0.72638723  0.85130424  0.25000000  1
  H  H13  1  0.85763196  0.73065588  0.75000000  1
  H  H14  1  0.26934412  0.14236804  0.75000000  1
  H  H15  1  0.14869576  0.27361277  0.25000000  1
  H  H16  1  0.14365069  0.85634931  0.25000000  1
  H  H17  1  0.85879442  0.14120558  0.75000000  1
loop_
_geom_bond_atom_site_label_1
_geom_bond_atom_site_label_2
_geom_bond_distance
_geom_bond_site_symmetry_2
Ca0 H13 2.482019 1_545
Ca0 H14 2.482019 1_655
Ca0 H15 2.490266 1_656
Ca0 H12 2.490266 1_546
Ca0 H17 2.504053 1_555
Ca0 H16 2.519686 1_646
Ca0 H7 2.611682 1_545
Ca0 H10 2.611682 1_655
Ca0 H11 2.612621 1_656
Ca0 H6 2.612622 1_546
Ca0 H1 2.636930 1_545
Ca0 H1 2.636930 1_655
Ca0 H0 2.640187 1_656
Ca0 H0 2.640187 1_546
Ca0 H7 2.664029 1_555
Ca0 H10 2.664029 1_555
Ca0 H11 2.681509 1_646
Ca0 H6 2.681509 1_646
Ca1 H13 2.482019 1_545
Ca1 H14 2.482019 1_655
Ca1 H15 2.490266 1_655
Ca1 H12 2.490266 1_545
Ca1 H17 2.504053 1_555
Ca1 H16 2.519686 1_645
Ca1 H5 2.611682 1_545
Ca1 H8 2.611682 1_655
Ca1 H9 2.612621 1_655
Ca1 H4 2.612622 1_545
Ca1 H3 2.636930 1_545
Ca1 H3 2.636930 1_655
Ca1 H2 2.640187 1_655
Ca1 H2 2.640187 1_545
Ca1 H5 2.664029 1_555
Ca1 H8 2.664029 1_555
Ca1 H9 2.681509 1_645
Ca1 H4 2.681509 1_645
H0 Tc0 1.677011 1_555
H1 Re0 1.696962 1_555
H2 Tc0 1.677011 1_555
H3 Re0 1.696962 1_555
H4 Tc0 1.681343 1_555
H5 Re0 1.699559 1_555
H6 Tc0 1.681343 1_555
H7 Re0 1.699559 1_555
H8 Re0 1.699559 1_555
H9 Tc0 1.681343 1_555
H10 Re0 1.699559 1_555
H11 Tc0 1.681343 1_555
H12 Tc0 1.634683 1_555
H13 Re0 1.652760 1_555
H14 Re0 1.652760 1_555
H15 Tc0 1.634683 1_555
H16 Tc0 1.634027 1_555
H17 Re0 1.654019 1_555
