# generated using pymatgen
data_Cu6RhClO8
_symmetry_space_group_name_H-M   'P 1'
_cell_length_a   6.38482808
_cell_length_b   6.38482777
_cell_length_c   6.38482853
_cell_angle_alpha   59.99999609
_cell_angle_beta   59.99999770
_cell_angle_gamma   59.99999685
_symmetry_Int_Tables_number   1
_chemical_formula_structural   Cu6RhClO8
_chemical_formula_sum   'Cu6 Rh1 Cl1 O8'
_cell_volume   184.04863644
_cell_formula_units_Z   1
loop_
 _symmetry_equiv_pos_site_id
 _symmetry_equiv_pos_as_xyz
  1  'x, y, z'
loop_
 _atom_site_type_symbol
 _atom_site_label
 _atom_site_symmetry_multiplicity
 _atom_site_fract_x
 _atom_site_fract_y
 _atom_site_fract_z
 _atom_site_occupancy
  Cu  Cu0  1  0.00000000  0.00000000  0.50000000  1
  Cu  Cu1  1  0.50000000  0.00000000  0.00000000  1
  Cu  Cu2  1  0.00000000  0.50000000  0.00000000  1
  Cu  Cu3  1  0.50000000  0.50000000  0.00000000  1
  Cu  Cu4  1  0.00000000  0.50000000  0.50000000  1
  Cu  Cu5  1  0.50000000  0.00000000  0.50000000  1
  Rh  Rh0  1  0.00000000  0.00000000  0.00000000  1
  Cl  Cl0  1  0.50000000  0.50000000  0.50000000  1
  O  O0  1  0.13720748  0.13720748  0.58837655  1
  O  O1  1  0.13720748  0.58837655  0.13720748  1
  O  O2  1  0.58837655  0.13720748  0.13720748  1
  O  O3  1  0.86279252  0.41162345  0.86279252  1
  O  O4  1  0.13720748  0.13720748  0.13720748  1
  O  O5  1  0.86279252  0.86279252  0.86279252  1
  O  O6  1  0.86279252  0.86279252  0.41162345  1
  O  O7  1  0.41162345  0.86279252  0.86279252  1
loop_
_geom_bond_atom_site_label_1
_geom_bond_atom_site_label_2
_geom_bond_distance
_geom_bond_site_symmetry_2
Cu0 O0 1.899848 1_555
Cu0 O6 1.899848 1_445
Cu0 O5 1.899853 1_445
Cu0 O4 1.899853 1_555
Cu1 O2 1.899848 1_555
Cu1 O7 1.899848 1_544
Cu1 O5 1.899853 1_544
Cu1 O4 1.899853 1_555
Cu2 O1 1.899848 1_555
Cu2 O3 1.899848 1_454
Cu2 O5 1.899853 1_454
Cu2 O4 1.899853 1_555
Cu3 O7 1.899853 1_554
Cu3 O2 1.899853 1_555
Cu3 O3 1.899853 1_554
Cu3 O1 1.899853 1_555
Cu4 O6 1.899853 1_455
Cu4 O0 1.899853 1_555
Cu4 O3 1.899853 1_455
Cu4 O1 1.899853 1_555
Cu5 O6 1.899853 1_545
Cu5 O0 1.899853 1_555
Cu5 O7 1.899853 1_545
Cu5 O2 1.899853 1_555
O0 Rh0 2.145871 1_556
O1 Rh0 2.145871 1_565
O2 Rh0 2.145871 1_655
O3 Rh0 2.145871 1_656
O4 Rh0 2.145866 1_555
O5 Rh0 2.145866 1_666
O6 Rh0 2.145871 1_665
O7 Rh0 2.145871 1_566
