# generated using pymatgen
data_Be6Ni2Mo3Os
_symmetry_space_group_name_H-M   'P 1'
_cell_length_a   4.50583011
_cell_length_b   4.50582967
_cell_length_c   7.14820872
_cell_angle_alpha   90.00000000
_cell_angle_beta   90.00000000
_cell_angle_gamma   119.99999597
_symmetry_Int_Tables_number   1
_chemical_formula_structural   Be6Ni2Mo3Os
_chemical_formula_sum   'Be6 Ni2 Mo3 Os1'
_cell_volume   125.68326610
_cell_formula_units_Z   1
loop_
 _symmetry_equiv_pos_site_id
 _symmetry_equiv_pos_as_xyz
  1  'x, y, z'
loop_
 _atom_site_type_symbol
 _atom_site_label
 _atom_site_symmetry_multiplicity
 _atom_site_fract_x
 _atom_site_fract_y
 _atom_site_fract_z
 _atom_site_occupancy
  Be  Be0  1  0.83048248  0.16951752  0.25234591  1
  Be  Be1  1  0.83048248  0.66096396  0.25234591  1
  Be  Be2  1  0.33903604  0.16951752  0.25234591  1
  Be  Be3  1  0.17005144  0.82994856  0.74857596  1
  Be  Be4  1  0.17005144  0.34010388  0.74857596  1
  Be  Be5  1  0.65989612  0.82994856  0.74857596  1
  Ni  Ni0  1  0.00000000  0.00000000  0.50184967  1
  Ni  Ni1  1  0.00000000  0.00000000  0.00302842  1
  Mo  Mo0  1  0.66666700  0.33333300  0.56593508  1
  Mo  Mo1  1  0.66666700  0.33333300  0.92990373  1
  Mo  Mo2  1  0.33333300  0.66666700  0.06952915  1
  Os  Os0  1  0.33333300  0.66666700  0.42698935  1
loop_
_geom_bond_atom_site_label_1
_geom_bond_atom_site_label_2
_geom_bond_distance
_geom_bond_site_symmetry_2
Be0 Be1 2.214374 1_555
Be0 Be2 2.214374 1_555
Be0 Ni1 2.219548 1_655
Be0 Ni0 2.220617 1_655
Be0 Be1 2.291456 1_545
Be0 Be2 2.291456 1_655
Be0 Os0 2.575770 1_545
Be0 Os0 2.575770 1_655
Be0 Mo0 2.580554 1_555
Be0 Mo2 2.604588 1_545
Be0 Mo2 2.604588 1_655
Be0 Mo1 2.635711 1_554
Be1 Be2 2.214374 1_555
Be1 Ni1 2.219550 1_665
Be1 Ni0 2.220619 1_665
Be1 Be2 2.291456 1_665
Be1 Os0 2.575767 1_655
Be1 Os0 2.575774 1_555
Be1 Mo0 2.580554 1_555
Be1 Mo2 2.604584 1_655
Be1 Mo2 2.604592 1_555
Be1 Mo1 2.635711 1_554
Be2 Ni1 2.219550 1_555
Be2 Ni0 2.220619 1_555
Be2 Os0 2.575766 1_545
Be2 Os0 2.575774 1_555
Be2 Mo0 2.580554 1_555
Be2 Mo2 2.604584 1_545
Be2 Mo2 2.604592 1_555
Be2 Mo1 2.635711 1_554
Be3 Be4 2.207157 1_555
Be3 Be5 2.207157 1_555
Be3 Ni0 2.207206 1_565
Be3 Ni1 2.251580 1_566
Be3 Be4 2.298673 1_565
Be3 Be5 2.298673 1_455
Be3 Mo1 2.599303 1_565
Be3 Mo1 2.599303 1_455
Be3 Mo0 2.603997 1_565
Be3 Mo0 2.603997 1_455
Be3 Mo2 2.624383 1_556
Be3 Os0 2.628342 1_555
Be4 Be5 2.207157 1_555
Be4 Ni0 2.207208 1_555
Be4 Ni1 2.251583 1_556
Be4 Be5 2.298673 1_445
Be4 Mo1 2.599299 1_455
Be4 Mo1 2.599307 1_555
Be4 Mo0 2.603993 1_455
Be4 Mo0 2.604001 1_555
Be4 Mo2 2.624383 1_556
Be4 Os0 2.628342 1_555
Be5 Ni0 2.207208 1_665
Be5 Ni1 2.251583 1_666
Be5 Mo1 2.599299 1_565
Be5 Mo1 2.599307 1_555
Be5 Mo0 2.603993 1_565
Be5 Mo0 2.604000 1_555
Be5 Mo2 2.624383 1_556
Be5 Os0 2.628342 1_555
Ni0 Os0 2.655906 1_545
Ni0 Os0 2.655910 1_555
Ni0 Os0 2.655910 1_445
Mo0 Mo1 2.601724 1_555
Mo0 Ni0 2.641465 1_655
Mo0 Ni0 2.641469 1_665
Mo0 Ni0 2.641469 1_555
Mo0 Os0 2.784593 1_545
Mo0 Os0 2.784593 1_655
Mo0 Os0 2.784601 1_555
Mo1 Ni1 2.653434 1_656
Mo1 Ni1 2.653438 1_666
Mo1 Ni1 2.653438 1_556
Mo1 Mo2 2.786330 1_546
Mo1 Mo2 2.786330 1_656
Mo1 Mo2 2.786337 1_556
Mo2 Os0 2.555200 1_555
Mo2 Ni1 2.644514 1_565
Mo2 Ni1 2.644518 1_555
Mo2 Ni1 2.644518 1_665
