# generated using pymatgen
data_Hf2Ti3TcRu
_symmetry_space_group_name_H-M   'P 1'
_cell_length_a   7.12464612
_cell_length_b   7.12464560
_cell_length_c   7.12464593
_cell_angle_alpha   37.27772882
_cell_angle_beta   37.27773703
_cell_angle_gamma   37.27772675
_symmetry_Int_Tables_number   1
_chemical_formula_structural   Hf2Ti3TcRu
_chemical_formula_sum   'Hf2 Ti3 Tc1 Ru1'
_cell_volume   118.93451823
_cell_formula_units_Z   1
loop_
 _symmetry_equiv_pos_site_id
 _symmetry_equiv_pos_as_xyz
  1  'x, y, z'
loop_
 _atom_site_type_symbol
 _atom_site_label
 _atom_site_symmetry_multiplicity
 _atom_site_fract_x
 _atom_site_fract_y
 _atom_site_fract_z
 _atom_site_occupancy
  Hf  Hf0  1  0.19350842  0.19350842  0.19350842  1
  Hf  Hf1  1  0.76644402  0.76644402  0.76644402  1
  Ti  Ti0  1  0.34299011  0.34299011  0.34299011  1
  Ti  Ti1  1  0.61199844  0.61199844  0.61199844  1
  Ti  Ti2  1  0.92682844  0.92682844  0.92682844  1
  Tc  Tc0  1  0.48173962  0.48173962  0.48173962  1
  Ru  Ru0  1  0.05148694  0.05148694  0.05148694  1
loop_
_geom_bond_atom_site_label_1
_geom_bond_atom_site_label_2
_geom_bond_distance
_geom_bond_site_symmetry_2
Hf0 Tc0 2.777775 1_545
Hf0 Tc0 2.777776 1_455
Hf0 Tc0 2.777776 1_554
Hf0 Ru0 2.821283 1_555
Hf0 Ti2 2.943888 1_454
Hf0 Ti2 2.943889 1_445
Hf0 Ti2 2.943889 1_544
Hf0 Ti0 2.969482 1_555
Hf0 Ti1 3.126496 1_545
Hf0 Ti1 3.126496 1_455
Hf0 Ti1 3.126497 1_554
Hf0 Hf1 3.221843 1_454
Hf0 Hf1 3.221844 1_544
Hf0 Hf1 3.221844 1_445
Hf1 Ru0 2.798846 1_656
Hf1 Ru0 2.798846 1_566
Hf1 Ru0 2.798847 1_665
Hf1 Tc0 2.801158 1_565
Hf1 Tc0 2.801159 1_655
Hf1 Tc0 2.801159 1_556
Hf1 Ti1 3.068090 1_555
Hf1 Ti0 3.180931 1_565
Hf1 Ti0 3.180932 1_655
Hf1 Ti0 3.180932 1_556
Hf1 Ti2 3.186066 1_555
Ti0 Ti1 2.923376 1_545
Ti0 Ti1 2.923377 1_554
Ti0 Ti1 2.923377 1_455
Ti0 Ti2 3.101714 1_454
Ti0 Ti2 3.101714 1_544
Ti0 Ti2 3.101714 1_445
Ti1 Ti2 2.654881 1_545
Ti1 Ti2 2.654882 1_455
Ti1 Ti2 2.654882 1_554
Tc0 Ti1 2.587616 1_555
Tc0 Ti0 2.756285 1_555
Ru0 Ti2 2.476364 1_444
Ru0 Ti0 2.757496 1_545
Ru0 Ti0 2.757497 1_455
Ru0 Ti0 2.757497 1_554
