# generated using pymatgen
data_Ca(GaCl4)2
_symmetry_space_group_name_H-M   'P 1'
_cell_length_a   6.82444450
_cell_length_b   7.24981710
_cell_length_c   13.32463081
_cell_angle_alpha   87.61974361
_cell_angle_beta   90.00000000
_cell_angle_gamma   90.00000000
_symmetry_Int_Tables_number   1
_chemical_formula_structural   Ca(GaCl4)2
_chemical_formula_sum   'Ca2 Ga4 Cl16'
_cell_volume   658.68029367
_cell_formula_units_Z   2
loop_
 _symmetry_equiv_pos_site_id
 _symmetry_equiv_pos_as_xyz
  1  'x, y, z'
loop_
 _atom_site_type_symbol
 _atom_site_label
 _atom_site_symmetry_multiplicity
 _atom_site_fract_x
 _atom_site_fract_y
 _atom_site_fract_z
 _atom_site_occupancy
  Ca  Ca0  1  0.74160428  0.99273559  0.49639653  1
  Ca  Ca1  1  0.25839572  0.99273559  0.99639653  1
  Ga  Ga0  1  0.94136503  0.43314541  0.54412391  1
  Ga  Ga1  1  0.43879527  0.85746566  0.23977418  1
  Ga  Ga2  1  0.56120473  0.85746566  0.73977418  1
  Ga  Ga3  1  0.05863497  0.43314541  0.04412391  1
  Cl  Cl0  1  0.91819282  0.45972262  0.18485278  1
  Cl  Cl1  1  0.08180718  0.45972262  0.68485278  1
  Cl  Cl2  1  0.63179191  0.34286123  0.55785110  1
  Cl  Cl3  1  0.36820809  0.34286123  0.05785110  1
  Cl  Cl4  1  0.95289653  0.68715594  0.44576541  1
  Cl  Cl5  1  0.04710347  0.68715594  0.94576541  1
  Cl  Cl6  1  0.41807349  0.84024001  0.59092303  1
  Cl  Cl7  1  0.58192651  0.84024001  0.09092303  1
  Cl  Cl8  1  0.06972029  0.20919161  0.45613751  1
  Cl  Cl9  1  0.93027971  0.20919161  0.95613751  1
  Cl  Cl10  1  0.13720170  0.94062078  0.19658124  1
  Cl  Cl11  1  0.86279830  0.94062078  0.69658124  1
  Cl  Cl12  1  0.45390229  0.61283882  0.33295540  1
  Cl  Cl13  1  0.54609771  0.61283882  0.83295540  1
  Cl  Cl14  1  0.57630494  0.09262333  0.31363992  1
  Cl  Cl15  1  0.42369506  0.09262333  0.81363992  1
loop_
_geom_bond_atom_site_label_1
_geom_bond_atom_site_label_2
_geom_bond_distance
_geom_bond_site_symmetry_2
Ca0 Cl4 2.750726 1_555
Ca0 Cl6 2.750987 1_555
Ca0 Cl14 2.753275 1_565
Ca0 Cl8 2.773896 1_665
Ca0 Cl2 2.801428 1_565
Ca0 Cl11 2.803223 1_555
Ca1 Cl5 2.750726 1_555
Ca1 Cl7 2.750987 1_556
Ca1 Cl15 2.753275 1_565
Ca1 Cl9 2.773896 1_465
Ca1 Cl3 2.801428 1_566
Ca1 Cl10 2.803223 1_556
Cl0 Ga3 2.121784 1_655
Cl1 Ga0 2.121784 1_455
Cl2 Ga0 2.217045 1_555
Cl3 Ga3 2.217045 1_555
Cl4 Ga0 2.216890 1_555
Cl5 Ga3 2.216890 1_556
Cl6 Ga2 2.219034 1_555
Cl7 Ga1 2.219034 1_555
Cl8 Ga0 2.221722 1_455
Cl9 Ga3 2.221722 1_656
Cl10 Ga1 2.214063 1_555
Cl11 Ga2 2.214063 1_555
Cl12 Ga1 2.124762 1_555
Cl13 Ga2 2.124762 1_555
Cl14 Ga1 2.212522 1_545
Cl15 Ga2 2.212522 1_545
