# generated using pymatgen
data_RbBeBiF6
_symmetry_space_group_name_H-M   'P 1'
_cell_length_a   6.02516240
_cell_length_b   6.48740656
_cell_length_c   7.20875282
_cell_angle_alpha   66.92716362
_cell_angle_beta   90.00000000
_cell_angle_gamma   90.00000000
_symmetry_Int_Tables_number   1
_chemical_formula_structural   RbBeBiF6
_chemical_formula_sum   'Rb2 Be2 Bi2 F12'
_cell_volume   259.23362123
_cell_formula_units_Z   2
loop_
 _symmetry_equiv_pos_site_id
 _symmetry_equiv_pos_as_xyz
  1  'x, y, z'
loop_
 _atom_site_type_symbol
 _atom_site_label
 _atom_site_symmetry_multiplicity
 _atom_site_fract_x
 _atom_site_fract_y
 _atom_site_fract_z
 _atom_site_occupancy
  Rb  Rb0  1  0.25000000  0.07778981  0.78209074  1
  Rb  Rb1  1  0.75000000  0.92221019  0.21790926  1
  Be  Be0  1  0.25000000  0.76643451  0.46510453  1
  Be  Be1  1  0.75000000  0.23356549  0.53489547  1
  Bi  Bi0  1  0.25000000  0.38849425  0.18282892  1
  Bi  Bi1  1  0.75000000  0.61150575  0.81717108  1
  F  F0  1  0.45785718  0.77055057  0.59163357  1
  F  F1  1  0.54214282  0.22944943  0.40836643  1
  F  F2  1  0.95785718  0.22944943  0.40836643  1
  F  F3  1  0.04214282  0.77055057  0.59163357  1
  F  F4  1  0.25000000  0.55221973  0.41951682  1
  F  F5  1  0.75000000  0.44778027  0.58048318  1
  F  F6  1  0.49559711  0.68106026  0.03716201  1
  F  F7  1  0.50440289  0.31893974  0.96283799  1
  F  F8  1  0.99559711  0.31893974  0.96283799  1
  F  F9  1  0.00440289  0.68106026  0.03716201  1
  F  F10  1  0.25000000  0.97903253  0.26449718  1
  F  F11  1  0.75000000  0.02096747  0.73550282  1
loop_
_geom_bond_atom_site_label_1
_geom_bond_atom_site_label_2
_geom_bond_distance
_geom_bond_site_symmetry_2
Be0 F4 1.548296 1_555
Be0 F0 1.555699 1_555
Be0 F3 1.555699 1_555
Be0 F10 1.558911 1_555
Be1 F5 1.548296 1_555
Be1 F2 1.555699 1_555
Be1 F1 1.555699 1_555
Be1 F11 1.558911 1_555
Bi0 F6 2.309241 1_555
Bi0 F9 2.309241 1_555
Bi0 F4 2.336629 1_555
Bi0 F1 2.343382 1_555
Bi0 F2 2.343382 1_455
Bi0 F7 2.372545 1_554
Bi0 F8 2.372545 1_454
Bi0 F10 2.485359 1_545
Bi1 F8 2.309241 1_555
Bi1 F7 2.309241 1_555
Bi1 F5 2.336629 1_555
Bi1 F3 2.343382 1_655
Bi1 F0 2.343382 1_555
Bi1 F9 2.372545 1_656
Bi1 F6 2.372545 1_556
Bi1 F11 2.485359 1_565
F0 Rb1 3.040865 1_555
F0 Rb0 3.093730 1_565
F1 Rb0 3.040865 1_555
F1 Rb1 3.093730 1_545
F2 Rb0 3.040865 1_655
F2 Rb1 3.093730 1_545
F3 Rb1 3.040865 1_455
F3 Rb0 3.093730 1_565
F4 Rb0 3.162139 1_555
F5 Rb1 3.162139 1_555
F6 Rb1 2.844717 1_555
F6 Rb0 2.912994 1_564
F7 Rb0 2.844717 1_555
F7 Rb1 2.912994 1_546
F8 Rb0 2.844717 1_655
F8 Rb1 2.912994 1_546
F9 Rb1 2.844717 1_455
F9 Rb0 2.912994 1_564
F10 Rb1 3.069423 1_455
F10 Rb1 3.069423 1_555
F10 Rb0 3.279864 1_564
F11 Rb0 3.069423 1_555
F11 Rb0 3.069423 1_655
F11 Rb1 3.279864 1_546
