# generated using pymatgen
data_Zr5GaSn3
_symmetry_space_group_name_H-M   'P 1'
_cell_length_a   8.69342683
_cell_length_b   8.69342731
_cell_length_c   5.89691806
_cell_angle_alpha   90.00000000
_cell_angle_beta   90.00000000
_cell_angle_gamma   120.00000215
_symmetry_Int_Tables_number   1
_chemical_formula_structural   Zr5GaSn3
_chemical_formula_sum   'Zr10 Ga2 Sn6'
_cell_volume   385.95595468
_cell_formula_units_Z   2
loop_
 _symmetry_equiv_pos_site_id
 _symmetry_equiv_pos_as_xyz
  1  'x, y, z'
loop_
 _atom_site_type_symbol
 _atom_site_label
 _atom_site_symmetry_multiplicity
 _atom_site_fract_x
 _atom_site_fract_y
 _atom_site_fract_z
 _atom_site_occupancy
  Zr  Zr0  1  0.00000000  0.26486537  0.25000000  1
  Zr  Zr1  1  0.73513463  1.00000000  0.75000000  1
  Zr  Zr2  1  0.73513463  0.73513463  0.25000000  1
  Zr  Zr3  1  0.66666700  0.33333300  0.50000000  1
  Zr  Zr4  1  1.00000000  0.73513463  0.75000000  1
  Zr  Zr5  1  0.26486537  0.26486537  0.75000000  1
  Zr  Zr6  1  0.33333300  0.66666700  -0.00000000  1
  Zr  Zr7  1  0.66666700  0.33333300  -0.00000000  1
  Zr  Zr8  1  0.33333300  0.66666700  0.50000000  1
  Zr  Zr9  1  0.26486537  0.00000000  0.25000000  1
  Ga  Ga0  1  0.00000000  -0.00000000  -0.00000000  1
  Ga  Ga1  1  0.00000000  -0.00000000  0.50000000  1
  Sn  Sn0  1  0.61142966  0.00000000  0.25000000  1
  Sn  Sn1  1  0.38857034  1.00000000  0.75000000  1
  Sn  Sn2  1  0.38857034  0.38857034  0.25000000  1
  Sn  Sn3  1  0.00000000  0.61142966  0.25000000  1
  Sn  Sn4  1  1.00000000  0.38857034  0.75000000  1
  Sn  Sn5  1  0.61142966  0.61142966  0.75000000  1
loop_
_geom_bond_atom_site_label_1
_geom_bond_atom_site_label_2
_geom_bond_distance
_geom_bond_site_symmetry_2
Ga0 Zr2 2.734093 1_445
Ga0 Zr5 2.734093 1_554
Ga0 Zr1 2.734093 1_444
Ga0 Zr9 2.734093 1_555
Ga0 Zr4 2.734093 1_444
Ga0 Zr0 2.734093 1_555
Ga1 Zr2 2.734093 1_445
Ga1 Zr5 2.734093 1_555
Ga1 Zr1 2.734093 1_445
Ga1 Zr9 2.734093 1_555
Ga1 Zr4 2.734093 1_445
Ga1 Zr0 2.734093 1_555
Sn0 Zr0 2.989095 1_655
Sn0 Zr2 2.989095 1_545
Sn0 Zr9 3.012831 1_555
Sn0 Zr3 3.067523 1_555
Sn0 Zr7 3.067523 1_555
Sn0 Zr8 3.067525 1_545
Sn0 Zr6 3.067525 1_545
Sn0 Zr1 3.138461 1_544
Sn0 Zr1 3.138461 1_545
Sn1 Zr4 2.989095 1_455
Sn1 Zr5 2.989095 1_565
Sn1 Zr1 3.012831 1_555
Sn1 Zr6 3.067523 1_556
Sn1 Zr8 3.067523 1_555
Sn1 Zr3 3.067525 1_565
Sn1 Zr7 3.067525 1_566
Sn1 Zr9 3.138461 1_566
Sn1 Zr9 3.138461 1_565
Sn2 Zr0 2.989095 1_555
Sn2 Zr9 2.989095 1_555
Sn2 Zr2 3.012831 1_555
Sn2 Zr3 3.067530 1_555
Sn2 Zr7 3.067530 1_555
Sn2 Zr8 3.067530 1_555
Sn2 Zr6 3.067530 1_555
Sn2 Zr5 3.138461 1_555
Sn2 Zr5 3.138461 1_554
Sn3 Zr9 2.989095 1_565
Sn3 Zr2 2.989095 1_455
Sn3 Zr0 3.012831 1_555
Sn3 Zr8 3.067523 1_555
Sn3 Zr6 3.067523 1_555
Sn3 Zr3 3.067525 1_455
Sn3 Zr7 3.067525 1_455
Sn3 Zr4 3.138461 1_455
Sn3 Zr4 3.138461 1_454
Sn4 Zr1 2.989095 1_545
Sn4 Zr5 2.989095 1_655
Sn4 Zr4 3.012831 1_555
Sn4 Zr7 3.067523 1_556
Sn4 Zr3 3.067523 1_555
Sn4 Zr6 3.067525 1_656
Sn4 Zr8 3.067525 1_655
Sn4 Zr0 3.138461 1_655
Sn4 Zr0 3.138461 1_656
Sn5 Zr4 2.989095 1_555
Sn5 Zr1 2.989095 1_555
Sn5 Zr5 3.012831 1_555
Sn5 Zr6 3.067530 1_556
Sn5 Zr8 3.067530 1_555
Sn5 Zr7 3.067530 1_556
Sn5 Zr3 3.067530 1_555
Sn5 Zr2 3.138461 1_555
Sn5 Zr2 3.138461 1_556
