# generated using pymatgen
data_Lu(PRu)2
_symmetry_space_group_name_H-M   'P 1'
_cell_length_a   5.46627271
_cell_length_b   5.46627305
_cell_length_c   5.46627283
_cell_angle_alpha   136.85070211
_cell_angle_beta   136.85069827
_cell_angle_gamma   62.66784678
_symmetry_Int_Tables_number   1
_chemical_formula_structural   Lu(PRu)2
_chemical_formula_sum   'Lu1 P2 Ru2'
_cell_volume   75.45480777
_cell_formula_units_Z   1
loop_
 _symmetry_equiv_pos_site_id
 _symmetry_equiv_pos_as_xyz
  1  'x, y, z'
loop_
 _atom_site_type_symbol
 _atom_site_label
 _atom_site_symmetry_multiplicity
 _atom_site_fract_x
 _atom_site_fract_y
 _atom_site_fract_z
 _atom_site_occupancy
  Lu  Lu0  1  0.00000000  0.00000000  0.00000000  1
  P  P0  1  0.62310182  0.62310182  0.00000000  1
  P  P1  1  0.37689818  0.37689818  1.00000000  1
  Ru  Ru0  1  0.25000000  0.75000000  0.50000000  1
  Ru  Ru1  1  0.75000000  0.25000000  0.50000000  1
loop_
_geom_bond_atom_site_label_1
_geom_bond_atom_site_label_2
_geom_bond_distance
_geom_bond_site_symmetry_2
Lu0 P0 3.066233 1_556
Lu0 P1 3.066233 1_443
Lu0 P0 3.066233 1_444
Lu0 P1 3.066233 1_555
Lu0 P0 3.066233 1_545
Lu0 P1 3.066233 1_454
Lu0 P0 3.066233 1_455
Lu0 P1 3.066233 1_544
Lu0 Ru1 3.080605 1_455
Lu0 Ru0 3.080605 1_544
Lu0 Ru0 3.080605 1_444
Lu0 Ru1 3.080605 1_555
Lu0 Ru0 3.080605 1_555
Lu0 Ru1 3.080605 1_444
Lu0 Ru1 3.080605 1_454
Lu0 Ru0 3.080605 1_545
P0 P1 2.299061 1_554
P0 Ru1 2.333316 1_554
P0 Ru0 2.333316 1_655
P0 Ru1 2.333316 1_565
P0 Ru0 2.333316 1_554
P1 Ru0 2.333316 1_556
P1 Ru1 2.333316 1_455
P1 Ru0 2.333316 1_545
P1 Ru1 2.333316 1_556
