# generated using pymatgen
data_Sr3CaTcO6
_symmetry_space_group_name_H-M   'P 1'
_cell_length_a   6.83646383
_cell_length_b   6.83645507
_cell_length_c   6.83646259
_cell_angle_alpha   91.32386134
_cell_angle_beta   91.32381367
_cell_angle_gamma   91.32375053
_symmetry_Int_Tables_number   1
_chemical_formula_structural   Sr3CaTcO6
_chemical_formula_sum   'Sr6 Ca2 Tc2 O12'
_cell_volume   319.25711487
_cell_formula_units_Z   2
loop_
 _symmetry_equiv_pos_site_id
 _symmetry_equiv_pos_as_xyz
  1  'x, y, z'
loop_
 _atom_site_type_symbol
 _atom_site_label
 _atom_site_symmetry_multiplicity
 _atom_site_fract_x
 _atom_site_fract_y
 _atom_site_fract_z
 _atom_site_occupancy
  Sr  Sr0  1  0.88797066  0.25000052  0.61202960  1
  Sr  Sr1  1  0.38797117  0.11202848  0.74999938  1
  Sr  Sr2  1  0.75000162  0.38797144  0.11202943  1
  Sr  Sr3  1  0.24999838  0.61202856  0.88797057  1
  Sr  Sr4  1  0.61202883  0.88797152  0.25000062  1
  Sr  Sr5  1  0.11202934  0.74999948  0.38797040  1
  Ca  Ca0  1  0.74999946  0.74999993  0.75000001  1
  Ca  Ca1  1  0.25000054  0.25000007  0.24999999  1
  Tc  Tc0  1  0.50000000  0.50000000  0.50000000  1
  Tc  Tc1  1  0.00000000  0.00000000  0.00000000  1
  O  O0  1  0.91823074  0.71674570  0.04962238  1
  O  O1  1  0.45037783  0.78325437  0.58176964  1
  O  O2  1  0.04962228  0.91823011  0.71674636  1
  O  O3  1  0.28325393  0.95037779  0.08176967  1
  O  O4  1  0.95037772  0.08176989  0.28325364  1
  O  O5  1  0.71674607  0.04962221  0.91823033  1
  O  O6  1  0.58176985  0.45037771  0.78325339  1
  O  O7  1  0.78325380  0.58176958  0.45037750  1
  O  O8  1  0.41823015  0.54962229  0.21674661  1
  O  O9  1  0.21674620  0.41823042  0.54962250  1
  O  O10  1  0.54962217  0.21674563  0.41823036  1
  O  O11  1  0.08176926  0.28325430  0.95037762  1
loop_
_geom_bond_atom_site_label_1
_geom_bond_atom_site_label_2
_geom_bond_distance
_geom_bond_site_symmetry_2
Ca0 O6 2.344122 1_555
Ca0 O5 2.344122 1_565
Ca0 O1 2.344122 1_555
Ca0 O7 2.344126 1_555
Ca0 O2 2.344129 1_655
Ca0 O0 2.344129 1_556
Ca1 O8 2.344122 1_555
Ca1 O3 2.344122 1_545
Ca1 O10 2.344122 1_555
Ca1 O9 2.344126 1_555
Ca1 O4 2.344129 1_455
Ca1 O11 2.344129 1_554
O0 Tc1 2.041211 1_665
O0 Sr2 2.550336 1_555
O0 Sr5 2.641527 1_655
O0 Sr3 2.651876 1_654
O0 Sr4 2.792939 1_555
O1 Tc0 2.041210 1_555
O1 Sr1 2.550334 1_565
O1 Sr5 2.641533 1_555
O1 Sr4 2.651884 1_555
O1 Sr3 2.792940 1_555
O2 Tc1 2.041208 1_566
O2 Sr5 2.550350 1_555
O2 Sr1 2.641532 1_565
O2 Sr0 2.651890 1_465
O2 Sr3 2.792924 1_555
O3 Tc1 2.041210 1_565
O3 Sr4 2.550345 1_555
O3 Sr3 2.641533 1_554
O3 Sr1 2.651890 1_564
O3 Sr5 2.792932 1_555
O4 Tc1 2.041208 1_655
O4 Sr0 2.550350 1_555
O4 Sr4 2.641532 1_545
O4 Sr5 2.651890 1_645
O4 Sr2 2.792924 1_555
O5 Tc1 2.041210 1_656
O5 Sr1 2.550345 1_555
O5 Sr2 2.641533 1_556
O5 Sr4 2.651890 1_546
O5 Sr0 2.792932 1_555
O6 Tc0 2.041207 1_555
O6 Sr2 2.550355 1_556
O6 Sr1 2.641534 1_555
O6 Sr3 2.651896 1_555
O6 Sr0 2.792923 1_555
O7 Tc0 2.041210 1_555
O7 Sr5 2.550348 1_655
O7 Sr2 2.641524 1_555
O7 Sr0 2.651884 1_555
O7 Sr4 2.792932 1_555
O8 Tc0 2.041207 1_555
O8 Sr3 2.550355 1_554
O8 Sr4 2.641534 1_555
O8 Sr2 2.651896 1_555
O8 Sr5 2.792923 1_555
O9 Tc0 2.041210 1_555
O9 Sr0 2.550348 1_455
O9 Sr3 2.641524 1_555
O9 Sr5 2.651884 1_555
O9 Sr1 2.792932 1_555
O10 Tc0 2.041210 1_555
O10 Sr4 2.550334 1_545
O10 Sr0 2.641533 1_555
O10 Sr1 2.651884 1_555
O10 Sr2 2.792940 1_555
O11 Tc1 2.041211 1_556
O11 Sr3 2.550336 1_555
O11 Sr0 2.641527 1_455
O11 Sr2 2.651876 1_456
O11 Sr1 2.792939 1_555
