# generated using pymatgen
data_Na6CdBr8
_symmetry_space_group_name_H-M   'P 1'
_cell_length_a   8.38939341
_cell_length_b   8.38939303
_cell_length_c   8.38939396
_cell_angle_alpha   59.99999631
_cell_angle_beta   59.99999782
_cell_angle_gamma   59.99999922
_symmetry_Int_Tables_number   1
_chemical_formula_structural   Na6CdBr8
_chemical_formula_sum   'Na6 Cd1 Br8'
_cell_volume   417.51941061
_cell_formula_units_Z   1
loop_
 _symmetry_equiv_pos_site_id
 _symmetry_equiv_pos_as_xyz
  1  'x, y, z'
loop_
 _atom_site_type_symbol
 _atom_site_label
 _atom_site_symmetry_multiplicity
 _atom_site_fract_x
 _atom_site_fract_y
 _atom_site_fract_z
 _atom_site_occupancy
  Na  Na0  1  0.50000000  0.50000000  0.00000000  1
  Na  Na1  1  0.00000000  0.50000000  0.00000000  1
  Na  Na2  1  0.50000000  0.00000000  0.00000000  1
  Na  Na3  1  0.00000000  0.50000000  0.50000000  1
  Na  Na4  1  0.50000000  0.00000000  0.50000000  1
  Na  Na5  1  0.00000000  0.00000000  0.50000000  1
  Cd  Cd0  1  0.00000000  0.00000000  0.00000000  1
  Br  Br0  1  0.76349191  0.23650809  0.76349191  1
  Br  Br1  1  0.25000000  0.25000000  0.25000000  1
  Br  Br2  1  0.75000000  0.75000000  0.75000000  1
  Br  Br3  1  0.23650809  0.76349191  0.23650809  1
  Br  Br4  1  0.23650809  0.76349191  0.76349191  1
  Br  Br5  1  0.76349191  0.23650809  0.23650809  1
  Br  Br6  1  0.76349191  0.76349191  0.23650809  1
  Br  Br7  1  0.23650809  0.23650809  0.76349191  1
loop_
_geom_bond_atom_site_label_1
_geom_bond_atom_site_label_2
_geom_bond_distance
_geom_bond_site_symmetry_2
Br0 Cd0 2.806025 1_656
Br0 Na3 2.970415 1_655
Br0 Na2 2.970415 1_556
Br0 Na0 2.970415 1_556
Br0 Na5 2.970415 1_655
Br1 Na5 2.966098 1_555
Br1 Na0 2.966098 1_555
Br1 Na3 2.966099 1_555
Br1 Na4 2.966099 1_555
Br1 Na1 2.966099 1_555
Br1 Na2 2.966099 1_555
Br2 Na5 2.966098 1_665
Br2 Na0 2.966098 1_556
Br2 Na2 2.966099 1_566
Br2 Na3 2.966099 1_655
Br2 Na1 2.966099 1_656
Br2 Na4 2.966099 1_565
Br3 Cd0 2.806025 1_565
Br3 Na3 2.970415 1_555
Br3 Na2 2.970415 1_565
Br3 Na0 2.970415 1_555
Br3 Na5 2.970415 1_565
Br4 Cd0 2.806025 1_566
Br4 Na1 2.970415 1_556
Br4 Na4 2.970415 1_565
Br4 Na0 2.970415 1_556
Br4 Na5 2.970415 1_565
Br5 Cd0 2.806025 1_655
Br5 Na1 2.970415 1_655
Br5 Na4 2.970415 1_555
Br5 Na0 2.970415 1_555
Br5 Na5 2.970415 1_655
Br6 Cd0 2.806025 1_665
Br6 Na1 2.970415 1_655
Br6 Na3 2.970415 1_655
Br6 Na2 2.970415 1_565
Br6 Na4 2.970415 1_565
Br7 Cd0 2.806025 1_556
Br7 Na1 2.970415 1_556
Br7 Na3 2.970415 1_555
Br7 Na2 2.970415 1_556
Br7 Na4 2.970415 1_555
