# generated using pymatgen
data_Ta5Ga3
_symmetry_space_group_name_H-M   'P 1'
_cell_length_a   7.74054559
_cell_length_b   7.74054559
_cell_length_c   5.28351200
_cell_angle_alpha   90.00000000
_cell_angle_beta   90.00000000
_cell_angle_gamma   119.99999648
_symmetry_Int_Tables_number   1
_chemical_formula_structural   Ta5Ga3
_chemical_formula_sum   'Ta10 Ga6'
_cell_volume   274.15520195
_cell_formula_units_Z   2
loop_
 _symmetry_equiv_pos_site_id
 _symmetry_equiv_pos_as_xyz
  1  'x, y, z'
loop_
 _atom_site_type_symbol
 _atom_site_label
 _atom_site_symmetry_multiplicity
 _atom_site_fract_x
 _atom_site_fract_y
 _atom_site_fract_z
 _atom_site_occupancy
  Ta  Ta0  1  0.33333300  0.66666700  0.00000000  1
  Ta  Ta1  1  0.66666700  0.33333300  0.50000000  1
  Ta  Ta2  1  0.66666700  0.33333300  0.00000000  1
  Ta  Ta3  1  0.33333300  0.66666700  0.50000000  1
  Ta  Ta4  1  0.24694400  0.00000000  0.25000000  1
  Ta  Ta5  1  0.24694400  0.24694400  0.75000000  1
  Ta  Ta6  1  0.00000000  0.75305600  0.75000000  1
  Ta  Ta7  1  0.00000000  0.24694400  0.25000000  1
  Ta  Ta8  1  0.75305600  0.75305600  0.25000000  1
  Ta  Ta9  1  0.75305600  0.00000000  0.75000000  1
  Ga  Ga0  1  0.60568400  0.00000000  0.25000000  1
  Ga  Ga1  1  0.60568400  0.60568400  0.75000000  1
  Ga  Ga2  1  0.00000000  0.39431600  0.75000000  1
  Ga  Ga3  1  0.00000000  0.60568400  0.25000000  1
  Ga  Ga4  1  0.39431600  0.39431600  0.25000000  1
  Ga  Ga5  1  0.39431600  0.00000000  0.75000000  1
loop_
_geom_bond_atom_site_label_1
_geom_bond_atom_site_label_2
_geom_bond_distance
_geom_bond_site_symmetry_2
Ta0 Ta3 2.641756 1_555
Ta0 Ta3 2.641756 1_554
Ta1 Ta2 2.641756 1_555
Ta1 Ta2 2.641756 1_556
Ga0 Ta8 2.671245 1_545
Ga0 Ta7 2.671245 1_655
Ga0 Ta1 2.721565 1_555
Ga0 Ta2 2.721565 1_555
Ga0 Ta3 2.721567 1_545
Ga0 Ta0 2.721567 1_545
Ga0 Ta4 2.776843 1_555
Ga0 Ta9 2.877527 1_555
Ga0 Ta9 2.877527 1_554
Ga1 Ta9 2.671245 1_565
Ga1 Ta6 2.671245 1_655
Ga1 Ta2 2.721571 1_556
Ga1 Ta1 2.721571 1_555
Ga1 Ta3 2.721571 1_555
Ga1 Ta0 2.721571 1_556
Ga1 Ta5 2.776843 1_555
Ga1 Ta8 2.877527 1_556
Ga1 Ta8 2.877527 1_555
Ga2 Ta5 2.671245 1_555
Ga2 Ta9 2.671245 1_455
Ga2 Ta1 2.721565 1_455
Ga2 Ta2 2.721565 1_456
Ga2 Ta3 2.721567 1_555
Ga2 Ta0 2.721567 1_556
Ga2 Ta6 2.776843 1_555
Ga2 Ta7 2.877527 1_555
Ga2 Ta7 2.877527 1_556
Ga3 Ta8 2.671245 1_455
Ga3 Ta4 2.671245 1_565
Ga3 Ta0 2.721565 1_555
Ga3 Ta3 2.721565 1_555
Ga3 Ta2 2.721567 1_455
Ga3 Ta1 2.721567 1_455
Ga3 Ta7 2.776843 1_555
Ga3 Ta6 2.877527 1_555
Ga3 Ta6 2.877527 1_554
Ga4 Ta7 2.671245 1_555
Ga4 Ta4 2.671245 1_555
Ga4 Ta3 2.721571 1_555
Ga4 Ta0 2.721571 1_555
Ga4 Ta1 2.721571 1_555
Ga4 Ta2 2.721571 1_555
Ga4 Ta8 2.776843 1_555
Ga4 Ta5 2.877527 1_555
Ga4 Ta5 2.877527 1_554
Ga5 Ta5 2.671245 1_555
Ga5 Ta6 2.671245 1_545
Ga5 Ta3 2.721565 1_545
Ga5 Ta0 2.721565 1_546
Ga5 Ta1 2.721567 1_555
Ga5 Ta2 2.721567 1_556
Ga5 Ta9 2.776843 1_555
Ga5 Ta4 2.877527 1_555
Ga5 Ta4 2.877527 1_556
