# generated using pymatgen
data_Be7VGaMo3
_symmetry_space_group_name_H-M   'P 1'
_cell_length_a   4.48434231
_cell_length_b   4.48434172
_cell_length_c   7.35677393
_cell_angle_alpha   90.00000000
_cell_angle_beta   90.00000000
_cell_angle_gamma   120.00000435
_symmetry_Int_Tables_number   1
_chemical_formula_structural   Be7VGaMo3
_chemical_formula_sum   'Be7 V1 Ga1 Mo3'
_cell_volume   128.11957231
_cell_formula_units_Z   1
loop_
 _symmetry_equiv_pos_site_id
 _symmetry_equiv_pos_as_xyz
  1  'x, y, z'
loop_
 _atom_site_type_symbol
 _atom_site_label
 _atom_site_symmetry_multiplicity
 _atom_site_fract_x
 _atom_site_fract_y
 _atom_site_fract_z
 _atom_site_occupancy
  Be  Be0  1  0.00000000  0.00000000  0.00277995  1
  Be  Be1  1  0.82701650  0.17298350  0.24227843  1
  Be  Be2  1  0.82701650  0.65403100  0.24227843  1
  Be  Be3  1  0.34596900  0.17298350  0.24227843  1
  Be  Be4  1  0.17276936  0.82723064  0.75768441  1
  Be  Be5  1  0.17276936  0.34553972  0.75768441  1
  Be  Be6  1  0.65446028  0.82723064  0.75768441  1
  V  V0  1  0.33333300  0.66666700  0.43409679  1
  Ga  Ga0  1  0.00000000  0.00000000  0.49778992  1
  Mo  Mo0  1  0.66666700  0.33333300  0.56477515  1
  Mo  Mo1  1  0.66666700  0.33333300  0.93605991  1
  Mo  Mo2  1  0.33333300  0.66666700  0.06460877  1
loop_
_geom_bond_atom_site_label_1
_geom_bond_atom_site_label_2
_geom_bond_distance
_geom_bond_site_symmetry_2
Be0 Be1 2.215769 1_455
Be0 Be2 2.215773 1_445
Be0 Be3 2.215773 1_555
Be0 Be4 2.247656 1_544
Be0 Be5 2.247659 1_554
Be0 Be6 2.247659 1_444
Be0 Mo2 2.628687 1_545
Be0 Mo2 2.628690 1_555
Be0 Mo2 2.628690 1_445
Be0 Mo1 2.635151 1_454
Be0 Mo1 2.635155 1_444
Be0 Mo1 2.635155 1_554
Be1 Be2 2.157181 1_555
Be1 Be3 2.157182 1_555
Be1 Ga0 2.310549 1_655
Be1 Be2 2.327160 1_545
Be1 Be3 2.327161 1_655
Be1 Mo1 2.574135 1_554
Be1 Mo2 2.595801 1_545
Be1 Mo2 2.595801 1_655
Be1 V0 2.649740 1_545
Be1 V0 2.649740 1_655
Be1 Mo0 2.679566 1_555
Be2 Be3 2.157181 1_555
Be2 Ga0 2.310553 1_665
Be2 Be3 2.327160 1_665
Be2 Mo1 2.574133 1_554
Be2 Mo2 2.595796 1_655
Be2 Mo2 2.595807 1_555
Be2 V0 2.649735 1_655
Be2 V0 2.649746 1_555
Be2 Mo0 2.679564 1_555
Be3 Ga0 2.310553 1_555
Be3 Mo1 2.574133 1_554
Be3 Mo2 2.595796 1_545
Be3 Mo2 2.595807 1_555
Be3 V0 2.649735 1_545
Be3 V0 2.649746 1_555
Be3 Mo0 2.679564 1_555
Be4 Be5 2.160067 1_555
Be4 Be6 2.160067 1_555
Be4 Be5 2.324275 1_565
Be4 Be6 2.324275 1_455
Be4 Ga0 2.335901 1_565
Be4 Mo2 2.579484 1_556
Be4 Mo1 2.598389 1_565
Be4 Mo1 2.598389 1_455
Be4 Mo0 2.653993 1_565
Be4 Mo0 2.653993 1_455
Be4 V0 2.687446 1_555
Be5 Be6 2.160067 1_555
Be5 Be6 2.324275 1_445
Be5 Ga0 2.335903 1_555
Be5 Mo2 2.579484 1_556
Be5 Mo1 2.598385 1_455
Be5 Mo1 2.598393 1_555
Be5 Mo0 2.653989 1_455
Be5 Mo0 2.653997 1_555
Be5 V0 2.687446 1_555
Be6 Ga0 2.335903 1_665
Be6 Mo2 2.579484 1_556
Be6 Mo1 2.598385 1_565
Be6 Mo1 2.598393 1_555
Be6 Mo0 2.653989 1_565
Be6 Mo0 2.653996 1_555
Be6 V0 2.687446 1_555
Ga0 V0 2.631094 1_545
Ga0 V0 2.631098 1_555
Ga0 V0 2.631098 1_445
Ga0 Mo0 2.635515 1_455
Ga0 Mo0 2.635519 1_445
Ga0 Mo0 2.635519 1_555
Mo0 Mo1 2.731458 1_555
Mo0 V0 2.761762 1_545
Mo0 V0 2.761762 1_655
Mo0 V0 2.761769 1_555
Mo2 V0 2.718240 1_555
