# generated using pymatgen
data_NaSr4(BeAs)10
_symmetry_space_group_name_H-M   'P 1'
_cell_length_a   8.38094372
_cell_length_b   8.83811623
_cell_length_c   8.38094372
_cell_angle_alpha   61.69686953
_cell_angle_beta   90.00000000
_cell_angle_gamma   61.69686953
_symmetry_Int_Tables_number   1
_chemical_formula_structural   NaSr4(BeAs)10
_chemical_formula_sum   'Na1 Sr4 Be10 As10'
_cell_volume   460.55407718
_cell_formula_units_Z   1
loop_
 _symmetry_equiv_pos_site_id
 _symmetry_equiv_pos_as_xyz
  1  'x, y, z'
loop_
 _atom_site_type_symbol
 _atom_site_label
 _atom_site_symmetry_multiplicity
 _atom_site_fract_x
 _atom_site_fract_y
 _atom_site_fract_z
 _atom_site_occupancy
  Na  Na0  1  0.00000000  0.00000000  0.00000000  1
  Sr  Sr0  1  0.19594333  0.00000000  0.61313991  1
  Sr  Sr1  1  0.38686009  0.00000000  0.19594333  1
  Sr  Sr2  1  0.61313991  0.00000000  0.80405667  1
  Sr  Sr3  1  0.80405667  0.00000000  0.38686009  1
  Be  Be0  1  0.95138694  0.49844841  0.85047267  1
  Be  Be1  1  0.14952733  0.50155159  0.44983535  1
  Be  Be2  1  0.34892208  0.50155159  0.04861306  1
  Be  Be3  1  0.55016465  0.49844841  0.65107792  1
  Be  Be4  1  0.75000000  0.50000000  0.25000000  1
  Be  Be5  1  0.85047267  0.49844841  0.55016465  1
  Be  Be6  1  0.04861306  0.50155159  0.14952733  1
  Be  Be7  1  0.25000000  0.50000000  0.75000000  1
  Be  Be8  1  0.44983535  0.50155159  0.34892208  1
  Be  Be9  1  0.65107792  0.49844841  0.95138694  1
  As  As0  1  0.15401060  0.29257982  0.75335851  1
  As  As1  1  0.35335888  0.29328223  0.35335888  1
  As  As2  1  0.55340858  0.29257982  0.95406067  1
  As  As3  1  0.75335851  0.29257982  0.55340858  1
  As  As4  1  0.95406067  0.29257982  0.15401060  1
  As  As5  1  0.64664112  0.70671777  0.64664112  1
  As  As6  1  0.84598940  0.70742018  0.24664149  1
  As  As7  1  0.04593833  0.70742018  0.84598940  1
  As  As8  1  0.24664149  0.70742018  0.44659142  1
  As  As9  1  0.44659142  0.70742018  0.04593833  1
loop_
_geom_bond_atom_site_label_1
_geom_bond_atom_site_label_2
_geom_bond_distance
_geom_bond_site_symmetry_2
As0 Be0 2.308919 1_455
As0 Be5 2.314030 1_455
As0 Be7 2.314774 1_555
As0 Be1 2.315707 1_555
As0 Sr0 3.195469 1_555
As0 Sr1 3.220710 1_556
As0 Na0 3.274431 1_556
As0 Sr2 3.346103 1_555
As1 Be6 2.321592 1_555
As1 Be1 2.321592 1_555
As1 Be2 2.321595 1_555
As1 Be8 2.321595 1_555
As1 Sr1 3.330287 1_555
As1 Sr0 3.330287 1_555
As1 Sr3 3.330287 1_555
As1 Sr2 3.330287 1_555
As2 Be3 2.308922 1_555
As2 Be9 2.314033 1_555
As2 Be7 2.314765 1_555
As2 Be2 2.315707 1_556
As2 Sr3 3.195478 1_556
As2 Sr2 3.220702 1_555
As2 Na0 3.274435 1_656
As2 Sr1 3.346098 1_556
As3 Be5 2.308922 1_555
As3 Be3 2.314030 1_555
As3 Be4 2.314768 1_555
As3 Be8 2.315701 1_555
As3 Sr2 3.195471 1_555
As3 Sr0 3.220708 1_655
As3 Na0 3.274438 1_656
As3 Sr3 3.346096 1_555
As4 Be9 2.308919 1_554
As4 Be0 2.314033 1_554
As4 Be4 2.314771 1_555
As4 Be6 2.315713 1_655
As4 Sr1 3.195475 1_655
As4 Sr3 3.220704 1_555
As4 Na0 3.274429 1_655
As4 Sr0 3.346105 1_655
As5 Be0 2.321592 1_555
As5 Be5 2.321592 1_555
As5 Be9 2.321595 1_555
As5 Be3 2.321595 1_555
As5 Sr2 3.330287 1_565
As5 Sr3 3.330287 1_565
As5 Sr0 3.330287 1_565
As5 Sr1 3.330287 1_565
As6 Be6 2.308919 1_655
As6 Be1 2.314030 1_655
As6 Be4 2.314774 1_555
As6 Be5 2.315707 1_555
As6 Sr3 3.195469 1_565
As6 Sr2 3.220710 1_564
As6 Na0 3.274431 1_665
As6 Sr1 3.346103 1_565
As7 Be2 2.308925 1_556
As7 Be6 2.314030 1_556
As7 Be7 2.314774 1_555
As7 Be0 2.315707 1_455
As7 Sr2 3.195469 1_465
As7 Sr0 3.220710 1_565
As7 Na0 3.274431 1_566
As7 Sr3 3.346103 1_465
As8 Be1 2.308922 1_555
As8 Be8 2.314030 1_555
As8 Be7 2.314768 1_555
As8 Be3 2.315701 1_555
As8 Sr1 3.195471 1_565
As8 Sr3 3.220708 1_465
As8 Na0 3.274438 1_565
As8 Sr0 3.346096 1_565
As9 Be8 2.308928 1_555
As9 Be2 2.314030 1_555
As9 Be4 2.314768 1_555
As9 Be9 2.315701 1_554
As9 Sr0 3.195471 1_564
As9 Sr1 3.220708 1_565
As9 Na0 3.274438 1_565
As9 Sr2 3.346096 1_564
