# generated using pymatgen
data_Rb6YTe4Cl
_symmetry_space_group_name_H-M   'P 1'
_cell_length_a   11.92387268
_cell_length_b   11.92387274
_cell_length_c   8.60624945
_cell_angle_alpha   90.00000000
_cell_angle_beta   90.00000000
_cell_angle_gamma   119.99999982
_symmetry_Int_Tables_number   1
_chemical_formula_structural   Rb6YTe4Cl
_chemical_formula_sum   'Rb12 Y2 Te8 Cl2'
_cell_volume   1059.69094847
_cell_formula_units_Z   2
loop_
 _symmetry_equiv_pos_site_id
 _symmetry_equiv_pos_as_xyz
  1  'x, y, z'
loop_
 _atom_site_type_symbol
 _atom_site_label
 _atom_site_symmetry_multiplicity
 _atom_site_fract_x
 _atom_site_fract_y
 _atom_site_fract_z
 _atom_site_occupancy
  Rb  Rb0  1  0.12141990  0.87858010  0.50867677  1
  Rb  Rb1  1  0.75715921  0.87858010  0.50867677  1
  Rb  Rb2  1  0.94493194  0.47246647  0.31955260  1
  Rb  Rb3  1  0.52753353  0.47246647  0.31955260  1
  Rb  Rb4  1  0.87858010  0.75715921  0.00867677  1
  Rb  Rb5  1  0.24284079  0.12141990  0.00867677  1
  Rb  Rb6  1  0.52753353  0.05506806  0.31955260  1
  Rb  Rb7  1  0.12141990  0.24284079  0.50867677  1
  Rb  Rb8  1  0.87858010  0.12141990  0.00867677  1
  Rb  Rb9  1  0.05506806  0.52753353  0.81955260  1
  Rb  Rb10  1  0.47246647  0.94493194  0.81955260  1
  Rb  Rb11  1  0.47246647  0.52753353  0.81955260  1
  Y  Y0  1  0.66666700  0.33333300  0.71542090  1
  Y  Y1  1  0.33333300  0.66666700  0.21542090  1
  Te  Te0  1  0.39849835  0.19925018  0.60624755  1
  Te  Te1  1  0.60150165  0.80074982  0.10624755  1
  Te  Te2  1  0.66666700  0.33333300  0.05423835  1
  Te  Te3  1  0.80074982  0.60150165  0.60624755  1
  Te  Te4  1  0.19925018  0.39849835  0.10624755  1
  Te  Te5  1  0.33333300  0.66666700  0.55423835  1
  Te  Te6  1  0.19925018  0.80074982  0.10624755  1
  Te  Te7  1  0.80074982  0.19925018  0.60624755  1
  Cl  Cl0  1  0.00000000  0.00000000  0.26751398  1
  Cl  Cl1  1  0.00000000  0.00000000  0.76751398  1
loop_
_geom_bond_atom_site_label_1
_geom_bond_atom_site_label_2
_geom_bond_distance
_geom_bond_site_symmetry_2
Rb0 Te3 3.688901 1_455
Rb0 Te0 3.688901 1_565
Rb0 Te6 3.818239 1_555
Rb1 Te3 3.688894 1_555
Rb1 Te7 3.688905 1_565
Rb1 Te1 3.818226 1_555
Rb2 Te2 3.670226 1_555
Rb2 Te7 3.749132 1_555
Rb2 Te3 3.749140 1_555
Rb2 Te6 4.002264 1_655
Rb2 Te4 4.002286 1_655
Rb3 Te2 3.670242 1_555
Rb3 Te3 3.749132 1_555
Rb3 Te0 3.749132 1_555
Rb3 Te4 4.002255 1_555
Rb3 Te1 4.002255 1_555
Rb4 Te1 3.688894 1_555
Rb4 Te6 3.688905 1_655
Rb4 Te3 3.818226 1_554
Rb5 Te4 3.688894 1_555
Rb5 Te6 3.688905 1_545
Rb5 Te0 3.818226 1_554
Rb6 Te2 3.670226 1_555
Rb6 Te7 3.749132 1_555
Rb6 Te0 3.749140 1_555
Rb6 Te6 4.002264 1_545
Rb6 Te1 4.002286 1_545
Rb7 Te0 3.688894 1_555
Rb7 Te7 3.688905 1_455
Rb7 Te4 3.818226 1_555
Rb8 Te4 3.688901 1_655
Rb8 Te1 3.688901 1_545
Rb8 Te7 3.818239 1_554
Rb9 Te5 3.670226 1_555
Rb9 Te6 3.749132 1_556
Rb9 Te4 3.749140 1_556
Rb9 Te7 4.002264 1_455
Rb9 Te3 4.002286 1_455
Rb10 Te5 3.670226 1_555
Rb10 Te6 3.749132 1_556
Rb10 Te1 3.749140 1_556
Rb10 Te7 4.002264 1_565
Rb10 Te0 4.002286 1_565
Rb11 Te5 3.670242 1_555
Rb11 Te4 3.749132 1_556
Rb11 Te1 3.749132 1_556
Rb11 Te3 4.002255 1_555
Rb11 Te0 4.002255 1_555
Te0 Y0 2.924265 1_555
Te1 Y1 2.924265 1_555
Te2 Y0 2.915947 1_554
Te3 Y0 2.924265 1_555
Te4 Y1 2.924265 1_555
Te5 Y1 2.915947 1_555
Te6 Y1 2.924235 1_555
Te7 Y0 2.924235 1_555
Cl0 Rb0 3.255160 1_545
Cl0 Rb1 3.255168 1_445
Cl0 Rb7 3.255168 1_555
Cl0 Rb8 3.354194 1_455
Cl0 Rb5 3.354201 1_555
Cl0 Rb4 3.354201 1_445
Cl1 Rb8 3.255160 1_456
Cl1 Rb5 3.255168 1_556
Cl1 Rb4 3.255168 1_446
Cl1 Rb0 3.354194 1_545
Cl1 Rb1 3.354201 1_445
Cl1 Rb7 3.354201 1_555
