# generated using pymatgen
data_Sc4Si6Ir5Pd2
_symmetry_space_group_name_H-M   'P 1'
_cell_length_a   6.96109773
_cell_length_b   6.96730914
_cell_length_c   6.96730867
_cell_angle_alpha   109.77993421
_cell_angle_beta   109.33499435
_cell_angle_gamma   109.33500915
_symmetry_Int_Tables_number   1
_chemical_formula_structural   Sc4Si6Ir5Pd2
_chemical_formula_sum   'Sc4 Si6 Ir5 Pd2'
_cell_volume   260.00687681
_cell_formula_units_Z   1
loop_
 _symmetry_equiv_pos_site_id
 _symmetry_equiv_pos_as_xyz
  1  'x, y, z'
loop_
 _atom_site_type_symbol
 _atom_site_label
 _atom_site_symmetry_multiplicity
 _atom_site_fract_x
 _atom_site_fract_y
 _atom_site_fract_z
 _atom_site_occupancy
  Sc  Sc0  1  0.00368070  0.00184035  0.50184035  1
  Sc  Sc1  1  0.00368070  0.50184035  0.00184035  1
  Sc  Sc2  1  0.49519109  0.99362042  0.99362042  1
  Sc  Sc3  1  0.49519109  0.50157067  0.50157067  1
  Si  Si0  1  0.67836271  0.68192571  0.99643700  1
  Si  Si1  1  0.31629509  0.99716017  0.31913492  1
  Si  Si2  1  0.00540766  0.31974257  0.31974257  1
  Si  Si3  1  0.31629509  0.31913492  0.99716017  1
  Si  Si4  1  0.67836271  0.99643700  0.68192571  1
  Si  Si5  1  0.00540766  0.68566509  0.68566509  1
  Ir  Ir0  1  0.50398200  0.25199100  0.75199100  1
  Ir  Ir1  1  0.24748927  0.49881658  0.74867269  1
  Ir  Ir2  1  0.24748927  0.74867269  0.49881658  1
  Ir  Ir3  1  0.50398200  0.75199100  0.25199100  1
  Ir  Ir4  1  0.99939442  0.99969771  0.99969771  1
  Pd  Pd0  1  0.74989376  0.25161651  0.49827725  1
  Pd  Pd1  1  0.74989376  0.49827725  0.25161651  1
loop_
_geom_bond_atom_site_label_1
_geom_bond_atom_site_label_2
_geom_bond_distance
_geom_bond_site_symmetry_2
Sc0 Si1 2.865366 1_545
Sc0 Si3 2.865367 1_555
Sc0 Si2 2.900022 1_555
Sc0 Si5 2.900022 1_545
Sc0 Si4 2.925922 1_445
Sc0 Si0 2.925923 1_444
Sc1 Si3 2.865366 1_554
Sc1 Si1 2.865366 1_555
Sc1 Si5 2.900022 1_554
Sc1 Si2 2.900022 1_555
Sc1 Si0 2.925922 1_454
Sc1 Si4 2.925922 1_444
Sc2 Si5 2.833295 1_555
Sc2 Si4 2.861513 1_555
Sc2 Si0 2.861513 1_555
Sc2 Si1 2.923653 1_556
Sc2 Si3 2.923653 1_565
Sc2 Si2 2.959399 1_666
Sc3 Si2 2.833295 1_555
Sc3 Si4 2.861513 1_555
Sc3 Si0 2.861513 1_555
Sc3 Si1 2.923653 1_545
Sc3 Si3 2.923653 1_554
Sc3 Si5 2.959399 1_655
Ir0 Si4 2.473336 1_545
Ir0 Si0 2.473336 1_555
Ir0 Si3 2.487035 1_555
Ir0 Si1 2.487036 1_545
Ir0 Sc1 2.844288 1_656
Ir0 Sc0 2.847718 1_555
Ir0 Sc2 2.850417 1_545
Ir0 Sc3 2.850417 1_555
Ir1 Si5 2.465125 1_555
Ir1 Si2 2.465126 1_555
Ir1 Si3 2.471619 1_555
Ir1 Si0 2.480065 1_555
Ir1 Sc3 2.811355 1_555
Ir1 Sc2 2.811355 1_555
Ir1 Sc1 2.823657 1_556
Ir1 Sc0 2.823658 1_555
Ir2 Si5 2.465125 1_555
Ir2 Si2 2.465125 1_555
Ir2 Si1 2.471619 1_555
Ir2 Si4 2.480065 1_555
Ir2 Sc3 2.811355 1_555
Ir2 Sc2 2.811355 1_555
Ir2 Sc0 2.823658 1_565
Ir2 Sc1 2.823658 1_555
Ir3 Si0 2.473336 1_554
Ir3 Si4 2.473336 1_555
Ir3 Si1 2.487036 1_555
Ir3 Si3 2.487036 1_554
Ir3 Sc0 2.844288 1_665
Ir3 Sc1 2.847718 1_555
Ir3 Sc3 2.850417 1_555
Ir3 Sc2 2.850417 1_554
Ir4 Si2 2.541125 1_666
Ir4 Si5 2.541133 1_655
Ir4 Si0 2.559776 1_555
Ir4 Si4 2.559776 1_555
Ir4 Si3 2.573206 1_665
Ir4 Si1 2.573206 1_656
Pd0 Si2 2.498370 1_655
Pd0 Si5 2.498370 1_655
Pd0 Si1 2.505098 1_545
Pd0 Si4 2.534067 1_545
Pd0 Sc0 2.861149 1_655
Pd0 Sc1 2.861149 1_656
Pd0 Sc3 2.867309 1_555
Pd0 Sc2 2.867309 1_544
Pd1 Si2 2.498370 1_655
Pd1 Si5 2.498370 1_655
Pd1 Si3 2.505098 1_554
Pd1 Si0 2.534067 1_554
Pd1 Sc1 2.861149 1_655
Pd1 Sc0 2.861149 1_665
Pd1 Sc3 2.867309 1_555
Pd1 Sc2 2.867309 1_544
