# generated using pymatgen
data_Ag2Sn3RuS8
_symmetry_space_group_name_H-M   'P 1'
_cell_length_a   7.48057018
_cell_length_b   7.48057060
_cell_length_c   7.48056961
_cell_angle_alpha   60.48868318
_cell_angle_beta   60.48867991
_cell_angle_gamma   60.48867573
_symmetry_Int_Tables_number   1
_chemical_formula_structural   Ag2Sn3RuS8
_chemical_formula_sum   'Ag2 Sn3 Ru1 S8'
_cell_volume   299.26749647
_cell_formula_units_Z   1
loop_
 _symmetry_equiv_pos_site_id
 _symmetry_equiv_pos_as_xyz
  1  'x, y, z'
loop_
 _atom_site_type_symbol
 _atom_site_label
 _atom_site_symmetry_multiplicity
 _atom_site_fract_x
 _atom_site_fract_y
 _atom_site_fract_z
 _atom_site_occupancy
  Ag  Ag0  1  0.38549306  0.38549306  0.38549306  1
  Ag  Ag1  1  0.61450694  0.61450694  0.61450694  1
  Sn  Sn0  1  0.00000000  0.50000000  0.00000000  1
  Sn  Sn1  1  0.00000000  0.00000000  0.50000000  1
  Sn  Sn2  1  0.50000000  0.00000000  0.00000000  1
  Ru  Ru0  1  0.00000000  0.00000000  0.00000000  1
  S  S0  1  0.77425287  0.20974640  0.77425287  1
  S  S1  1  0.75333383  0.75333383  0.75333383  1
  S  S2  1  0.79025360  0.22574713  0.22574713  1
  S  S3  1  0.22574713  0.22574713  0.79025360  1
  S  S4  1  0.22574713  0.79025360  0.22574713  1
  S  S5  1  0.24666617  0.24666617  0.24666617  1
  S  S6  1  0.20974640  0.77425287  0.77425287  1
  S  S7  1  0.77425287  0.77425287  0.20974640  1
loop_
_geom_bond_atom_site_label_1
_geom_bond_atom_site_label_2
_geom_bond_distance
_geom_bond_site_symmetry_2
Ag0 S2 2.510251 1_555
Ag0 S3 2.510251 1_555
Ag0 S4 2.510251 1_555
Ag0 S5 2.534370 1_555
Ag1 S6 2.510251 1_555
Ag1 S7 2.510251 1_555
Ag1 S0 2.510251 1_555
Ag1 S1 2.534370 1_555
Ru0 S2 2.398771 1_455
Ru0 S6 2.398771 1_544
Ru0 S4 2.398771 1_545
Ru0 S0 2.398771 1_454
Ru0 S3 2.398771 1_554
Ru0 S7 2.398771 1_445
S0 Sn1 2.582674 1_655
S0 Sn2 2.582674 1_556
S1 Sn2 2.620150 1_566
S1 Sn0 2.620150 1_656
S1 Sn1 2.620150 1_665
S2 Sn1 2.582674 1_655
S2 Sn0 2.582675 1_655
S3 Sn0 2.582674 1_556
S3 Sn2 2.582674 1_556
S4 Sn1 2.582674 1_565
S4 Sn2 2.582674 1_565
S5 Sn2 2.620150 1_555
S5 Sn0 2.620150 1_555
S5 Sn1 2.620150 1_555
S6 Sn1 2.582674 1_565
S6 Sn0 2.582675 1_556
S7 Sn0 2.582674 1_655
S7 Sn2 2.582674 1_565
