# generated using pymatgen
data_HfZrTa3Re
_symmetry_space_group_name_H-M   'P 1'
_cell_length_a   5.59916075
_cell_length_b   5.59916034
_cell_length_c   5.35450646
_cell_angle_alpha   58.47665397
_cell_angle_beta   58.47667148
_cell_angle_gamma   59.99997939
_symmetry_Int_Tables_number   1
_chemical_formula_structural   HfZrTa3Re
_chemical_formula_sum   'Hf1 Zr1 Ta3 Re1'
_cell_volume   115.89292895
_cell_formula_units_Z   1
loop_
 _symmetry_equiv_pos_site_id
 _symmetry_equiv_pos_as_xyz
  1  'x, y, z'
loop_
 _atom_site_type_symbol
 _atom_site_label
 _atom_site_symmetry_multiplicity
 _atom_site_fract_x
 _atom_site_fract_y
 _atom_site_fract_z
 _atom_site_occupancy
  Hf  Hf0  1  0.25014796  0.25014796  0.24955612  1
  Zr  Zr0  1  0.99962295  0.99962295  0.00113315  1
  Ta  Ta0  1  0.62503864  0.12523192  0.62469079  1
  Ta  Ta1  1  0.12523192  0.62503864  0.62469079  1
  Ta  Ta2  1  0.62503864  0.62503864  0.62469079  1
  Re  Re0  1  0.62492088  0.62492088  0.12523736  1
loop_
_geom_bond_atom_site_label_1
_geom_bond_atom_site_label_2
_geom_bond_distance
_geom_bond_site_symmetry_2
Hf0 Ta1 3.118470 1_554
Hf0 Ta2 3.118471 1_554
Hf0 Ta0 3.118471 1_554
Hf0 Zr0 3.208145 1_446
Hf0 Ta2 3.225174 1_545
Hf0 Ta1 3.225174 1_545
Hf0 Ta2 3.225175 1_455
Hf0 Ta0 3.225175 1_555
Hf0 Ta0 3.225175 1_455
Hf0 Ta1 3.225175 1_555
Hf0 Re0 3.275942 1_455
Hf0 Re0 3.275942 1_545
Hf0 Re0 3.275943 1_555
Hf0 Zr0 3.402150 1_445
Hf0 Zr0 3.402157 1_455
Hf0 Zr0 3.402158 1_545
Ta0 Ta1 2.798497 1_555
Ta0 Ta2 2.798498 1_555
Ta0 Ta1 2.800662 1_645
Ta0 Ta2 2.800662 1_545
Ta0 Zr0 3.114345 1_545
Ta0 Zr0 3.227945 1_446
Ta0 Zr0 3.227955 1_546
Ta1 Ta2 2.798498 1_555
Ta1 Ta2 2.800663 1_455
Ta1 Zr0 3.114344 1_455
Ta1 Zr0 3.227945 1_446
Ta1 Zr0 3.227955 1_456
Ta2 Zr0 3.114350 1_555
Ta2 Zr0 3.227949 1_546
Ta2 Zr0 3.227950 1_456
Re0 Ta0 2.675015 1_555
Re0 Ta1 2.675016 1_555
Re0 Ta2 2.675016 1_555
Re0 Ta0 2.679490 1_564
Re0 Ta1 2.679490 1_654
Re0 Ta2 2.679490 1_554
Re0 Zr0 3.275791 1_455
Re0 Zr0 3.275791 1_545
Re0 Zr0 3.275801 1_555
