# generated using pymatgen
data_Ti5ZnBi2
_symmetry_space_group_name_H-M   'P 1'
_cell_length_a   7.96335903
_cell_length_b   7.96335851
_cell_length_c   7.96335946
_cell_angle_alpha   96.19674826
_cell_angle_beta   96.19674433
_cell_angle_gamma   141.63882382
_symmetry_Int_Tables_number   1
_chemical_formula_structural   Ti5ZnBi2
_chemical_formula_sum   'Ti10 Zn2 Bi4'
_cell_volume   296.01151548
_cell_formula_units_Z   2
loop_
 _symmetry_equiv_pos_site_id
 _symmetry_equiv_pos_as_xyz
  1  'x, y, z'
loop_
 _atom_site_type_symbol
 _atom_site_label
 _atom_site_symmetry_multiplicity
 _atom_site_fract_x
 _atom_site_fract_y
 _atom_site_fract_z
 _atom_site_occupancy
  Ti  Ti0  1  0.57259011  0.71399042  0.28657953  1
  Ti  Ti1  1  0.42740989  0.28600958  0.71342047  1
  Ti  Ti2  1  0.75000000  0.25000000  0.50000000  1
  Ti  Ti3  1  0.25000000  0.75000000  0.50000000  1
  Ti  Ti4  1  0.71399042  0.42740989  0.14140030  1
  Ti  Ti5  1  0.28600958  0.57259011  0.85859970  1
  Ti  Ti6  1  0.92740989  0.21399042  0.14140030  1
  Ti  Ti7  1  0.21399042  0.07259011  0.28657953  1
  Ti  Ti8  1  0.07259011  0.78600958  0.85859970  1
  Ti  Ti9  1  0.78600958  0.92740989  0.71342047  1
  Zn  Zn0  1  0.75000000  0.75000000  0.00000000  1
  Zn  Zn1  1  0.25000000  0.25000000  0.00000000  1
  Bi  Bi0  1  0.33489722  0.83489722  0.16979443  1
  Bi  Bi1  1  0.16510278  0.33489722  0.50000000  1
  Bi  Bi2  1  0.66510278  0.16510278  0.83020557  1
  Bi  Bi3  1  0.83489722  0.66510278  0.50000000  1
loop_
_geom_bond_atom_site_label_1
_geom_bond_atom_site_label_2
_geom_bond_distance
_geom_bond_site_symmetry_2
Ti0 Zn0 2.736479 1_555
Ti0 Zn1 2.736482 1_555
Ti1 Zn1 2.736479 1_556
Ti1 Zn0 2.736482 1_556
Ti2 Ti3 2.616335 1_655
Ti2 Ti3 2.616335 1_545
Ti4 Zn0 2.736486 1_555
Ti4 Zn1 2.736486 1_555
Ti5 Zn1 2.736486 1_556
Ti5 Zn0 2.736486 1_556
Ti6 Zn0 2.736486 1_545
Ti6 Zn1 2.736486 1_655
Ti7 Zn1 2.736479 1_555
Ti7 Zn0 2.736482 1_445
Ti8 Zn1 2.736486 1_566
Ti8 Zn0 2.736486 1_456
Ti9 Zn0 2.736479 1_556
Ti9 Zn1 2.736482 1_666
Zn0 Zn1 2.616335 1_665
Zn0 Zn1 2.616335 1_555
Bi0 Ti3 2.807034 1_555
Bi0 Ti2 2.807034 1_565
Bi0 Ti7 2.836560 1_565
Bi0 Ti0 2.836560 1_555
Bi0 Ti5 2.838131 1_554
Bi0 Ti8 2.838131 1_554
Bi0 Ti6 3.076923 1_455
Bi0 Ti4 3.076923 1_565
Bi0 Ti6 3.076923 1_565
Bi0 Ti4 3.076923 1_455
Bi1 Ti3 2.807034 1_555
Bi1 Ti2 2.807034 1_455
Bi1 Ti5 2.836563 1_555
Bi1 Ti6 2.836563 1_455
Bi1 Ti7 2.838135 1_555
Bi1 Ti1 2.838135 1_555
Bi1 Ti0 3.076925 1_445
Bi1 Ti9 3.076925 1_555
Bi1 Ti9 3.076929 1_445
Bi1 Ti0 3.076929 1_555
Bi2 Ti2 2.807034 1_555
Bi2 Ti3 2.807034 1_545
Bi2 Ti9 2.836560 1_545
Bi2 Ti1 2.836560 1_555
Bi2 Ti4 2.838131 1_556
Bi2 Ti6 2.838131 1_556
Bi2 Ti8 3.076923 1_655
Bi2 Ti5 3.076923 1_545
Bi2 Ti8 3.076923 1_545
Bi2 Ti5 3.076923 1_655
Bi3 Ti2 2.807034 1_555
Bi3 Ti3 2.807034 1_655
Bi3 Ti4 2.836563 1_555
Bi3 Ti8 2.836563 1_655
Bi3 Ti9 2.838135 1_555
Bi3 Ti0 2.838135 1_555
Bi3 Ti1 3.076925 1_665
Bi3 Ti7 3.076925 1_555
Bi3 Ti7 3.076929 1_665
Bi3 Ti1 3.076929 1_555
