# generated using pymatgen
data_ErNi7B3
_symmetry_space_group_name_H-M   'P 1'
_cell_length_a   9.46823357
_cell_length_b   9.46823357
_cell_length_c   9.46823357
_cell_angle_alpha   132.44962689
_cell_angle_beta   132.44962689
_cell_angle_gamma   69.51981043
_symmetry_Int_Tables_number   1
_chemical_formula_structural   ErNi7B3
_chemical_formula_sum   'Er4 Ni28 B12'
_cell_volume   453.34749877
_cell_formula_units_Z   4
loop_
 _symmetry_equiv_pos_site_id
 _symmetry_equiv_pos_as_xyz
  1  'x, y, z'
loop_
 _atom_site_type_symbol
 _atom_site_label
 _atom_site_symmetry_multiplicity
 _atom_site_fract_x
 _atom_site_fract_y
 _atom_site_fract_z
 _atom_site_occupancy
  Er  Er0  1  0.21585000  0.21585000  0.00000000  1
  Er  Er1  1  0.96585000  0.46585000  0.50000000  1
  Er  Er2  1  0.53415000  0.03415000  0.50000000  1
  Er  Er3  1  0.78415000  0.78415000  0.00000000  1
  Ni  Ni0  1  0.31234700  0.31234700  0.62469500  1
  Ni  Ni1  1  0.31234700  0.68765300  0.00000000  1
  Ni  Ni2  1  0.68765300  0.31234700  0.00000000  1
  Ni  Ni3  1  0.43765300  0.93765300  0.87530500  1
  Ni  Ni4  1  0.18147000  0.89319700  0.28827200  1
  Ni  Ni5  1  0.64319700  0.85492500  0.21172800  1
  Ni  Ni6  1  0.64319700  0.43147000  0.78827200  1
  Ni  Ni7  1  0.06234700  0.56234700  0.12469500  1
  Ni  Ni8  1  0.14507500  0.35680300  0.78827200  1
  Ni  Ni9  1  0.10680300  0.39507500  0.28827200  1
  Ni  Ni10  1  0.10680300  0.81853000  0.71172800  1
  Ni  Ni11  1  0.60492500  0.89319700  0.71172800  1
  Ni  Ni12  1  0.21863600  0.05638100  0.16225500  1
  Ni  Ni13  1  0.80638100  0.14412600  0.33774500  1
  Ni  Ni14  1  0.80638100  0.46863600  0.66225500  1
  Ni  Ni15  1  0.53136400  0.19361900  0.33774500  1
  Ni  Ni16  1  0.85587400  0.19361900  0.66225500  1
  Ni  Ni17  1  0.94361900  0.10587400  0.16225500  1
  Ni  Ni18  1  0.94361900  0.78136400  0.83774500  1
  Ni  Ni19  1  0.89412600  0.05638100  0.83774500  1
  Ni  Ni20  1  0.43765300  0.56234700  0.50000000  1
  Ni  Ni21  1  0.68765300  0.68765300  0.37530500  1
  Ni  Ni22  1  0.37500000  0.62500000  0.75000000  1
  Ni  Ni23  1  0.37500000  0.12500000  0.75000000  1
  Ni  Ni24  1  0.37500000  0.62500000  0.25000000  1
  Ni  Ni25  1  0.87500000  0.62500000  0.25000000  1
  Ni  Ni26  1  0.56853000  0.35680300  0.21172800  1
  Ni  Ni27  1  0.06234700  0.93765300  0.50000000  1
  B  B0  1  0.37500000  0.91513200  0.04013200  1
  B  B1  1  0.66513200  0.12500000  0.04013200  1
  B  B2  1  0.08486800  0.62500000  0.95986800  1
  B  B3  1  0.87500000  0.33486800  0.95986800  1
  B  B4  1  0.66513200  0.62500000  0.54013200  1
  B  B5  1  0.87500000  0.91513200  0.54013200  1
  B  B6  1  0.55851900  0.55851900  0.00000000  1
  B  B7  1  0.30851900  0.80851900  0.50000000  1
  B  B8  1  0.19148100  0.69148100  0.50000000  1
  B  B9  1  0.44148100  0.44148100  0.00000000  1
  B  B10  1  0.37500000  0.33486800  0.45986800  1
  B  B11  1  0.08486800  0.12500000  0.45986800  1
loop_
_geom_bond_atom_site_label_1
_geom_bond_atom_site_label_2
_geom_bond_distance
_geom_bond_site_symmetry_2
Er0 Ni16 2.601511 1_454
Er0 Ni15 2.601511 1_555
Er0 Ni26 2.724182 1_555
Er0 Ni8 2.724190 1_554
Er0 Ni12 2.772939 1_555
Er0 Ni19 2.772939 1_454
Er0 Ni9 2.778709 1_555
Er0 Ni10 2.778717 1_544
Er0 Ni7 2.832051 1_555
Er0 Ni27 2.832051 1_544
Er0 Ni20 2.832051 1_555
Er0 Ni3 2.832054 1_544
Er0 Ni23 3.126151 1_554
Er0 Ni24 3.126151 1_555
Er1 Ni17 2.601511 1_555
Er1 Ni18 2.601511 1_555
Er1 Ni10 2.724182 1_655
Er1 Ni9 2.724190 1_655
Er1 Ni13 2.772939 1_555
Er1 Ni14 2.772939 1_555
Er1 Ni8 2.778709 1_655
Er1 Ni26 2.778717 1_555
Er1 Ni0 2.832051 1_655
Er1 Ni1 2.832051 1_656
Er1 Ni2 2.832051 1_555
Er1 Ni21 2.832054 1_555
Er1 Ni25 3.126151 1_555
Er1 Ni22 3.126151 1_655
Er2 Ni12 2.601511 1_555
Er2 Ni19 2.601511 1_555
Er2 Ni4 2.724182 1_545
Er2 Ni11 2.724190 1_545
Er2 Ni15 2.772939 1_555
Er2 Ni16 2.772939 1_555
Er2 Ni5 2.778709 1_545
Er2 Ni6 2.778717 1_555
Er2 Ni21 2.832051 1_545
Er2 Ni1 2.832051 1_545
Er2 Ni2 2.832051 1_556
Er2 Ni0 2.832054 1_555
Er2 Ni23 3.126151 1_555
Er2 Ni24 3.126151 1_545
Er3 Ni14 2.601511 1_554
Er3 Ni13 2.601511 1_565
Er3 Ni6 2.724182 1_554
Er3 Ni5 2.724190 1_555
Er3 Ni17 2.772939 1_565
Er3 Ni18 2.772939 1_554
Er3 Ni11 2.778709 1_554
Er3 Ni4 2.778717 1_655
Er3 Ni3 2.832051 1_554
Er3 Ni20 2.832051 1_554
Er3 Ni27 2.832051 1_655
Er3 Ni7 2.832054 1_655
Er3 Ni25 3.126151 1_555
Er3 Ni22 3.126151 1_554
B0 Ni10 2.020144 1_554
B0 Ni5 2.020146 1_555
B0 Ni12 2.038454 1_565
B0 Ni15 2.038454 1_565
B0 Ni1 2.149486 1_555
B0 Ni3 2.149495 1_554
B0 Ni22 2.214931 1_554
B0 Er2 2.864818 1_565
B0 Er0 2.864818 1_565
B1 Ni11 2.020146 1_544
B1 Ni26 2.020152 1_555
B1 Ni13 2.038454 1_555
B1 Ni17 2.038454 1_555
B1 Ni3 2.149481 1_544
B1 Ni2 2.149486 1_555
B1 Ni23 2.214931 1_554
B1 Er3 2.864818 1_545
B1 Er1 2.864818 1_555
B2 Ni4 2.020144 1_556
B2 Ni8 2.020146 1_555
B2 Ni18 2.038454 1_455
B2 Ni14 2.038454 1_455
B2 Ni1 2.149486 1_556
B2 Ni7 2.149495 1_556
B2 Ni24 2.214931 1_556
B2 Er3 2.864818 1_456
B2 Er1 2.864818 1_455
B3 Ni9 2.020146 1_656
B3 Ni6 2.020152 1_555
B3 Ni19 2.038454 1_555
B3 Ni16 2.038454 1_555
B3 Ni7 2.149481 1_656
B3 Ni2 2.149486 1_556
B3 Ni25 2.214931 1_556
B3 Er2 2.864818 1_555
B3 Er0 2.864818 1_656
B4 Ni26 2.020144 1_555
B4 Ni11 2.020146 1_555
B4 Ni18 2.038454 1_555
B4 Ni14 2.038454 1_555
B4 Ni20 2.149486 1_555
B4 Ni21 2.149495 1_555
B4 Ni24 2.214931 1_555
B4 Er3 2.864818 1_556
B4 Er1 2.864818 1_555
B5 Ni5 2.020146 1_555
B5 Ni10 2.020152 1_655
B5 Ni19 2.038454 1_565
B5 Ni16 2.038454 1_565
B5 Ni21 2.149481 1_555
B5 Ni27 2.149486 1_655
B5 Ni25 2.214931 1_555
B5 Er2 2.864818 1_565
B5 Er0 2.864818 1_666
B6 B9 1.820786 1_555
B6 Ni5 2.085210 1_555
B6 Ni6 2.085212 1_554
B6 Ni22 2.170777 1_554
B6 Ni25 2.170777 1_555
B6 Ni21 2.221120 1_555
B6 Ni0 2.221126 1_554
B6 Ni2 2.221128 1_555
B6 Ni1 2.221128 1_555
B7 B8 1.820786 1_555
B7 Ni11 2.085210 1_555
B7 Ni4 2.085212 1_555
B7 Ni24 2.170777 1_555
B7 Ni23 2.170777 1_565
B7 Ni3 2.221120 1_555
B7 Ni7 2.221126 1_555
B7 Ni20 2.221128 1_555
B7 Ni27 2.221128 1_555
B8 Ni9 2.085210 1_555
B8 Ni10 2.085212 1_555
B8 Ni22 2.170777 1_555
B8 Ni25 2.170777 1_455
B8 Ni7 2.221120 1_555
B8 Ni3 2.221126 1_555
B8 Ni27 2.221128 1_555
B8 Ni20 2.221128 1_555
B9 Ni8 2.085210 1_554
B9 Ni26 2.085212 1_555
B9 Ni23 2.170777 1_554
B9 Ni24 2.170777 1_555
B9 Ni0 2.221120 1_554
B9 Ni21 2.221126 1_555
B9 Ni1 2.221128 1_555
B9 Ni2 2.221128 1_555
B10 Ni6 2.020144 1_555
B10 Ni9 2.020146 1_555
B10 Ni15 2.038454 1_555
B10 Ni12 2.038454 1_555
B10 Ni20 2.149486 1_555
B10 Ni0 2.149495 1_555
B10 Ni22 2.214931 1_555
B10 Er0 2.864818 1_555
B10 Er2 2.864818 1_555
B11 Ni8 2.020146 1_555
B11 Ni4 2.020152 1_545
B11 Ni13 2.038454 1_455
B11 Ni17 2.038454 1_455
B11 Ni0 2.149481 1_555
B11 Ni27 2.149486 1_545
B11 Ni23 2.214931 1_555
B11 Er1 2.864818 1_455
B11 Er3 2.864818 1_445
