# generated using pymatgen
data_MgIn2(SeO3)4
_symmetry_space_group_name_H-M   'P 1'
_cell_length_a   4.80589689
_cell_length_b   8.50726637
_cell_length_c   15.27833699
_cell_angle_alpha   68.91215586
_cell_angle_beta   90.00000000
_cell_angle_gamma   90.00000000
_symmetry_Int_Tables_number   1
_chemical_formula_structural   MgIn2(SeO3)4
_chemical_formula_sum   'Mg2 In4 Se8 O24'
_cell_volume   582.82224789
_cell_formula_units_Z   2
loop_
 _symmetry_equiv_pos_site_id
 _symmetry_equiv_pos_as_xyz
  1  'x, y, z'
loop_
 _atom_site_type_symbol
 _atom_site_label
 _atom_site_symmetry_multiplicity
 _atom_site_fract_x
 _atom_site_fract_y
 _atom_site_fract_z
 _atom_site_occupancy
  Mg  Mg0  1  0.00000000  0.00000000  0.00000000  1
  Mg  Mg1  1  0.50000000  0.00000000  0.50000000  1
  In  In0  1  0.54113986  0.15563593  0.78735205  1
  In  In1  1  0.95886014  0.15563593  0.28735205  1
  In  In2  1  0.45886014  0.84436407  0.21264795  1
  In  In3  1  0.04113986  0.84436407  0.71264795  1
  Se  Se0  1  0.57485640  0.77401541  0.89243987  1
  Se  Se1  1  0.92514360  0.77401541  0.39243987  1
  Se  Se2  1  0.42514360  0.22598459  0.10756013  1
  Se  Se3  1  0.07485640  0.22598459  0.60756013  1
  Se  Se4  1  0.00965426  0.34655218  0.87269659  1
  Se  Se5  1  0.49034574  0.34655218  0.37269659  1
  Se  Se6  1  0.99034574  0.65344782  0.12730341  1
  Se  Se7  1  0.50965426  0.65344782  0.62730341  1
  O  O0  1  0.77899053  0.36501067  0.78453157  1
  O  O1  1  0.72100947  0.36501067  0.28453157  1
  O  O2  1  0.22100947  0.63498933  0.21546843  1
  O  O3  1  0.27899053  0.63498933  0.71546843  1
  O  O4  1  0.83040245  0.70610735  0.83870868  1
  O  O5  1  0.66959755  0.70610735  0.33870868  1
  O  O6  1  0.16959755  0.29389265  0.16129132  1
  O  O7  1  0.33040245  0.29389265  0.66129132  1
  O  O8  1  0.20668122  0.17033582  0.87686593  1
  O  O9  1  0.29331878  0.17033582  0.37686593  1
  O  O10  1  0.79331878  0.82966418  0.12313407  1
  O  O11  1  0.70668122  0.82966418  0.62313407  1
  O  O12  1  0.71587171  0.94900477  0.90768976  1
  O  O13  1  0.78412829  0.94900477  0.40768976  1
  O  O14  1  0.28412829  0.05099523  0.09231024  1
  O  O15  1  0.21587171  0.05099523  0.59231024  1
  O  O16  1  0.37319963  0.90225576  0.79928122  1
  O  O17  1  0.12680037  0.90225576  0.29928122  1
  O  O18  1  0.62680037  0.09774424  0.20071878  1
  O  O19  1  0.87319963  0.09774424  0.70071878  1
  O  O20  1  0.82791103  0.23544878  0.96984162  1
  O  O21  1  0.67208897  0.23544878  0.46984162  1
  O  O22  1  0.17208897  0.76455122  0.03015838  1
  O  O23  1  0.32791103  0.76455122  0.53015838  1
loop_
_geom_bond_atom_site_label_1
_geom_bond_atom_site_label_2
_geom_bond_distance
_geom_bond_site_symmetry_2
Mg0 O20 2.060164 1_454
Mg0 O22 2.060164 1_545
Mg0 O14 2.117106 1_555
Mg0 O12 2.117106 1_444
Mg0 O10 2.159626 1_445
Mg0 O8 2.159626 1_554
Mg1 O21 2.060164 1_555
Mg1 O23 2.060164 1_545
Mg1 O15 2.117106 1_555
Mg1 O13 2.117106 1_545
Mg1 O11 2.159626 1_545
Mg1 O9 2.159626 1_555
In0 O0 2.103798 1_555
In0 O7 2.118604 1_555
In0 O8 2.143071 1_555
In0 O12 2.202241 1_545
In0 O19 2.238374 1_555
In0 O16 2.246869 1_545
In1 O1 2.103798 1_555
In1 O6 2.118604 1_655
In1 O9 2.143071 1_655
In1 O13 2.202241 1_545
In1 O18 2.238374 1_555
In1 O17 2.246869 1_645
In2 O2 2.103798 1_555
In2 O5 2.118604 1_555
In2 O10 2.143071 1_555
In2 O14 2.202241 1_565
In2 O17 2.238374 1_555
In2 O18 2.246869 1_565
In3 O3 2.103798 1_555
In3 O4 2.118604 1_455
In3 O11 2.143071 1_455
In3 O15 2.202241 1_565
In3 O16 2.238374 1_555
In3 O19 2.246869 1_465
O0 Se4 1.707563 1_655
O1 Se5 1.707563 1_555
O2 Se6 1.707563 1_455
O3 Se7 1.707563 1_555
O4 Se0 1.690337 1_555
O5 Se1 1.690337 1_555
O6 Se2 1.690337 1_555
O7 Se3 1.690337 1_555
O8 Se4 1.754794 1_555
O9 Se5 1.754794 1_555
O10 Se6 1.754794 1_555
O11 Se7 1.754794 1_555
O12 Se0 1.726075 1_555
O13 Se1 1.726075 1_555
O14 Se2 1.726075 1_555
O15 Se3 1.726075 1_555
O16 Se0 1.742952 1_555
O17 Se1 1.742952 1_455
O18 Se2 1.742952 1_555
O19 Se3 1.742952 1_655
O20 Se4 1.688097 1_655
O21 Se5 1.688097 1_555
O22 Se6 1.688097 1_455
O23 Se7 1.688097 1_555
