# generated using pymatgen
data_Hf6Al16Ni2Ir5
_symmetry_space_group_name_H-M   'P 1'
_cell_length_a   8.64122813
_cell_length_b   8.55832300
_cell_length_c   8.55832296
_cell_angle_alpha   60.64192634
_cell_angle_beta   59.67903768
_cell_angle_gamma   59.67903407
_symmetry_Int_Tables_number   1
_chemical_formula_structural   Hf6Al16Ni2Ir5
_chemical_formula_sum   'Hf6 Al16 Ni2 Ir5'
_cell_volume   447.46131796
_cell_formula_units_Z   1
loop_
 _symmetry_equiv_pos_site_id
 _symmetry_equiv_pos_as_xyz
  1  'x, y, z'
loop_
 _atom_site_type_symbol
 _atom_site_label
 _atom_site_symmetry_multiplicity
 _atom_site_fract_x
 _atom_site_fract_y
 _atom_site_fract_z
 _atom_site_occupancy
  Hf  Hf0  1  0.67296658  0.32703242  0.32703242  1
  Hf  Hf1  1  0.32703242  0.67296658  0.67296658  1
  Hf  Hf2  1  0.30652604  0.69347296  0.30652604  1
  Hf  Hf3  1  0.30652604  0.30652604  0.69347296  1
  Hf  Hf4  1  0.69347296  0.30652604  0.69347296  1
  Hf  Hf5  1  0.69347296  0.69347296  0.30652604  1
  Al  Al0  1  0.32752770  0.34045504  0.34045504  1
  Al  Al1  1  0.34045504  0.32752770  0.99156022  1
  Al  Al2  1  0.99156022  0.34045504  0.34045504  1
  Al  Al3  1  0.34045504  0.99156022  0.32752770  1
  Al  Al4  1  0.67247230  0.65954496  0.65954496  1
  Al  Al5  1  0.65954496  0.67247230  0.00843978  1
  Al  Al6  1  0.65954496  0.00843978  0.67247230  1
  Al  Al7  1  0.00843978  0.65954496  0.65954496  1
  Al  Al8  1  0.11763402  0.12136344  0.12136344  1
  Al  Al9  1  0.12136344  0.11763402  0.63963810  1
  Al  Al10  1  0.63963810  0.12136344  0.12136344  1
  Al  Al11  1  0.12136344  0.63963810  0.11763402  1
  Al  Al12  1  0.88236498  0.87863556  0.87863556  1
  Al  Al13  1  0.87863556  0.88236498  0.36036490  1
  Al  Al14  1  0.87863556  0.36036490  0.88236498  1
  Al  Al15  1  0.36036490  0.87863556  0.87863556  1
  Ni  Ni0  1  0.50000000  0.00000000  0.00000000  1
  Ni  Ni1  1  0.00000000  0.50000000  0.50000000  1
  Ir  Ir0  1  0.00000000  0.00000000  0.00000000  1
  Ir  Ir1  1  0.00000000  0.50000000  0.00000000  1
  Ir  Ir2  1  0.00000000  0.00000000  0.50000000  1
  Ir  Ir3  1  0.50000000  0.00000000  0.50000000  1
  Ir  Ir4  1  0.50000000  0.50000000  0.00000000  1
loop_
_geom_bond_atom_site_label_1
_geom_bond_atom_site_label_2
_geom_bond_distance
_geom_bond_site_symmetry_2
Hf0 Hf4 3.144433 1_555
Hf0 Hf5 3.144433 1_555
Hf0 Hf2 3.144433 1_555
Hf0 Hf3 3.144433 1_555
Hf0 Ir4 3.191577 1_555
Hf0 Ir3 3.191577 1_555
Hf0 Ir2 3.191588 1_655
Hf0 Ir1 3.191588 1_655
Hf1 Hf2 3.144433 1_555
Hf1 Hf3 3.144433 1_555
Hf1 Hf4 3.144433 1_555
Hf1 Hf5 3.144433 1_555
Hf1 Ir2 3.191580 1_565
Hf1 Ir1 3.191580 1_556
Hf1 Ir4 3.191592 1_556
Hf1 Ir3 3.191592 1_565
Hf2 Ir4 3.074819 1_555
Hf2 Ir2 3.074831 1_565
Hf2 Ni1 3.132250 1_555
Hf2 Ni0 3.132262 1_565
Hf2 Hf3 3.343696 1_555
Hf2 Hf5 3.343697 1_555
Hf3 Ir3 3.074819 1_555
Hf3 Ir1 3.074831 1_556
Hf3 Ni1 3.132250 1_555
Hf3 Ni0 3.132262 1_556
Hf3 Hf4 3.343697 1_555
Hf4 Ir2 3.074822 1_655
Hf4 Ir4 3.074833 1_556
Hf4 Ni0 3.132253 1_556
Hf4 Ni1 3.132265 1_655
Hf4 Hf5 3.343696 1_555
Hf5 Ir1 3.074822 1_655
Hf5 Ir3 3.074833 1_565
Hf5 Ni0 3.132253 1_565
Hf5 Ni1 3.132265 1_655
Al0 Ni1 2.400692 1_555
Al0 Ir3 2.518826 1_555
Al0 Ir4 2.518826 1_555
Al0 Al11 2.720884 1_555
Al0 Al9 2.720885 1_555
Al0 Al10 2.746065 1_555
Al0 Hf3 2.807942 1_555
Al0 Hf2 2.807942 1_555
Al0 Hf0 2.873535 1_555
Al0 Al2 2.903172 1_455
Al0 Al1 2.985850 1_554
Al0 Al3 2.985850 1_545
Al1 Ni0 2.400688 1_556
Al1 Ir1 2.518822 1_556
Al1 Ir4 2.518837 1_556
Al1 Al8 2.720882 1_556
Al1 Al10 2.720889 1_556
Al1 Al11 2.746069 1_556
Al1 Hf3 2.807942 1_555
Al1 Hf4 2.807942 1_555
Al1 Hf1 2.873534 1_555
Al1 Al3 2.903171 1_546
Al1 Al2 2.985851 1_456
Al2 Ni1 2.400702 1_655
Al2 Ir1 2.518821 1_655
Al2 Ir2 2.518821 1_655
Al2 Al9 2.720889 1_655
Al2 Al8 2.746062 1_655
Al2 Hf5 2.807942 1_555
Al2 Hf4 2.807942 1_555
Al2 Hf0 2.873535 1_555
Al2 Al3 2.985850 1_645
Al3 Ni0 2.400688 1_565
Al3 Ir2 2.518822 1_565
Al3 Ir3 2.518836 1_565
Al3 Al8 2.720882 1_565
Al3 Al9 2.746069 1_565
Al3 Hf2 2.807942 1_555
Al3 Hf5 2.807942 1_555
Al3 Hf1 2.873534 1_555
Al4 Ni1 2.400692 1_655
Al4 Ir3 2.518826 1_565
Al4 Ir4 2.518826 1_556
Al4 Hf5 2.807958 1_555
Al4 Hf4 2.807958 1_555
Al4 Hf1 2.873551 1_555
Al4 Al7 2.903172 1_655
Al4 Al5 2.985850 1_556
Al4 Al6 2.985850 1_565
Al5 Ni0 2.400688 1_565
Al5 Ir1 2.518822 1_655
Al5 Ir4 2.518837 1_555
Al5 Hf5 2.807924 1_555
Al5 Hf2 2.807944 1_555
Al5 Hf0 2.873535 1_555
Al5 Al6 2.903171 1_564
Al5 Al7 2.985851 1_654
Al6 Ni0 2.400688 1_556
Al6 Ir2 2.518822 1_655
Al6 Ir3 2.518836 1_555
Al6 Hf4 2.807924 1_555
Al6 Hf3 2.807944 1_555
Al6 Hf0 2.873535 1_555
Al6 Al7 2.985850 1_645
Al7 Ni1 2.400702 1_555
Al7 Ir1 2.518821 1_556
Al7 Ir2 2.518821 1_565
Al7 Hf3 2.807943 1_555
Al7 Hf2 2.807943 1_555
Al7 Hf1 2.873517 1_555
Al8 Ir0 2.526032 1_555
Al8 Ir1 2.655710 1_555
Al8 Ir2 2.655710 1_555
Al8 Ni0 2.683730 1_555
Al8 Hf2 3.077683 1_545
Al8 Hf3 3.077683 1_554
Al8 Hf0 3.215752 1_455
Al9 Ir0 2.526039 1_556
Al9 Ir2 2.655703 1_555
Al9 Ir3 2.655710 1_555
Al9 Ni1 2.683729 1_555
Al9 Hf3 3.077678 1_555
Al9 Hf4 3.077685 1_455
Al9 Hf1 3.215754 1_545
Al10 Ir0 2.526039 1_655
Al10 Ir4 2.655709 1_555
Al10 Ir3 2.655709 1_555
Al10 Ni0 2.683723 1_555
Al10 Al3 2.720890 1_545
Al10 Al12 2.909071 1_544
Al10 Al13 2.920703 1_545
Al10 Al14 2.920703 1_554
Al10 Hf5 3.077685 1_545
Al10 Hf4 3.077685 1_554
Al10 Hf0 3.215747 1_555
Al11 Ir0 2.526039 1_565
Al11 Ir1 2.655703 1_555
Al11 Ir4 2.655710 1_555
Al11 Ni1 2.683729 1_555
Al11 Al2 2.720889 1_455
Al11 Al13 2.909083 1_455
Al11 Al12 2.920690 1_454
Al11 Al15 2.920703 1_554
Al11 Hf2 3.077678 1_555
Al11 Hf5 3.077685 1_455
Al11 Hf1 3.215754 1_554
Al12 Ir0 2.526053 1_666
Al12 Ir1 2.655702 1_656
Al12 Ir2 2.655702 1_665
Al12 Ni0 2.683722 1_566
Al12 Al6 2.720866 1_565
Al12 Al5 2.720866 1_556
Al12 Al7 2.746046 1_655
Al12 Al9 2.920691 1_665
Al12 Hf4 3.077683 1_565
Al12 Hf5 3.077683 1_556
Al12 Hf1 3.215752 1_655
Al13 Ir0 2.526060 1_665
Al13 Ir2 2.655695 1_665
Al13 Ir3 2.655702 1_565
Al13 Ni1 2.683721 1_655
Al13 Al4 2.720868 1_555
Al13 Al7 2.720873 1_655
Al13 Al6 2.746053 1_565
Al13 Al8 2.920691 1_665
Al13 Hf2 3.077678 1_655
Al13 Hf5 3.077701 1_555
Al13 Hf0 3.215747 1_565
Al14 Ir0 2.526060 1_656
Al14 Ir1 2.655695 1_656
Al14 Ir4 2.655702 1_556
Al14 Ni1 2.683721 1_655
Al14 Al4 2.720868 1_555
Al14 Al7 2.720873 1_655
Al14 Al5 2.746053 1_556
Al14 Al9 2.909083 1_655
Al14 Al8 2.920690 1_656
Al14 Hf3 3.077678 1_655
Al14 Hf4 3.077700 1_555
Al14 Hf0 3.215747 1_556
Al15 Ir0 2.526060 1_566
Al15 Ir4 2.655702 1_556
Al15 Ir3 2.655702 1_565
Al15 Ni0 2.683714 1_566
Al15 Al5 2.720873 1_556
Al15 Al6 2.720873 1_565
Al15 Al4 2.746048 1_555
Al15 Al8 2.909071 1_566
Al15 Al9 2.920703 1_565
Al15 Hf3 3.077678 1_565
Al15 Hf2 3.077678 1_556
Al15 Hf1 3.215769 1_555
