# generated using pymatgen
data_K2BaCaAs2
_symmetry_space_group_name_H-M   'P 1'
_cell_length_a   5.04622996
_cell_length_b   8.31734143
_cell_length_c   9.62051397
_cell_angle_alpha   90.00000000
_cell_angle_beta   90.00000000
_cell_angle_gamma   90.00000000
_symmetry_Int_Tables_number   1
_chemical_formula_structural   K2BaCaAs2
_chemical_formula_sum   'K4 Ba2 Ca2 As4'
_cell_volume   403.78468456
_cell_formula_units_Z   2
loop_
 _symmetry_equiv_pos_site_id
 _symmetry_equiv_pos_as_xyz
  1  'x, y, z'
loop_
 _atom_site_type_symbol
 _atom_site_label
 _atom_site_symmetry_multiplicity
 _atom_site_fract_x
 _atom_site_fract_y
 _atom_site_fract_z
 _atom_site_occupancy
  K  K0  1  0.50000000  0.02552048  0.41483769  1
  K  K1  1  0.00000000  0.34430503  0.34356150  1
  K  K2  1  0.50000000  0.52552048  0.58516231  1
  K  K3  1  0.00000000  0.84430503  0.65643850  1
  Ba  Ba0  1  0.00000000  0.49700342  0.93921309  1
  Ba  Ba1  1  0.00000000  0.99700342  0.06078691  1
  Ca  Ca0  1  0.50000000  0.14756691  0.81620768  1
  Ca  Ca1  1  0.50000000  0.64756691  0.18379232  1
  As  As0  1  0.00000000  0.24237162  0.67991356  1
  As  As1  1  0.50000000  0.28875254  0.11012125  1
  As  As2  1  0.00000000  0.74237162  0.32008644  1
  As  As3  1  0.50000000  0.78875254  0.88987875  1
loop_
_geom_bond_atom_site_label_1
_geom_bond_atom_site_label_2
_geom_bond_distance
_geom_bond_site_symmetry_2
As0 Ca0 2.950792 1_455
As0 Ca0 2.950792 1_555
As0 Ba0 3.272359 1_555
As0 K3 3.318549 1_545
As0 K1 3.345102 1_555
As0 K2 3.569774 1_455
As0 K2 3.569774 1_555
As1 Ca0 3.061744 1_554
As1 Ca1 3.067387 1_555
As1 K1 3.409294 1_555
As1 K1 3.409294 1_655
As1 Ba0 3.474152 1_654
As1 Ba0 3.474152 1_554
As1 Ba1 3.532655 1_645
As1 Ba1 3.532655 1_545
As1 K0 3.658865 1_555
As2 Ca1 2.950792 1_455
As2 Ca1 2.950792 1_555
As2 Ba1 3.272359 1_555
As2 K1 3.318549 1_555
As2 K3 3.345102 1_555
As2 K0 3.569774 1_465
As2 K0 3.569774 1_565
As3 Ca1 3.061744 1_556
As3 Ca0 3.067387 1_565
As3 K3 3.409294 1_555
As3 K3 3.409294 1_655
As3 Ba1 3.474152 1_656
As3 Ba1 3.474152 1_556
As3 Ba0 3.532655 1_555
As3 Ba0 3.532655 1_655
As3 K2 3.658865 1_555
