# generated using pymatgen
data_TcSn14Ir5
_symmetry_space_group_name_H-M   'P 1'
_cell_length_a   8.17651187
_cell_length_b   8.17651176
_cell_length_c   8.17651168
_cell_angle_alpha   109.28830974
_cell_angle_beta   109.83766418
_cell_angle_gamma   109.28831069
_symmetry_Int_Tables_number   1
_chemical_formula_structural   TcSn14Ir5
_chemical_formula_sum   'Tc1 Sn14 Ir5'
_cell_volume   420.79345297
_cell_formula_units_Z   1
loop_
 _symmetry_equiv_pos_site_id
 _symmetry_equiv_pos_as_xyz
  1  'x, y, z'
loop_
 _atom_site_type_symbol
 _atom_site_label
 _atom_site_symmetry_multiplicity
 _atom_site_fract_x
 _atom_site_fract_y
 _atom_site_fract_z
 _atom_site_occupancy
  Tc  Tc0  1  0.65253844  0.00000000  0.65253844  1
  Sn  Sn0  1  0.99616504  0.00000000  0.67286947  1
  Sn  Sn1  1  0.32766418  0.00000000  0.99991746  1
  Sn  Sn2  1  0.67286947  0.67670443  0.67286947  1
  Sn  Sn3  1  0.99616504  0.32329557  0.99616504  1
  Sn  Sn4  1  0.32766418  0.32774772  0.32766418  1
  Sn  Sn5  1  0.99991746  0.67225228  0.99991746  1
  Sn  Sn6  1  0.25402322  0.75033762  0.50368560  1
  Sn  Sn7  1  0.75334798  0.24966238  0.50368560  1
  Sn  Sn8  1  0.75084523  0.50000000  0.25084523  1
  Sn  Sn9  1  0.25084523  0.50000000  0.75084523  1
  Sn  Sn10  1  0.50368560  0.75033762  0.25402322  1
  Sn  Sn11  1  0.50368560  0.24966238  0.75334798  1
  Sn  Sn12  1  0.99991746  0.00000000  0.32766418  1
  Sn  Sn13  1  0.67286947  0.00000000  0.99616504  1
  Ir  Ir0  1  0.65707593  0.65704729  0.00002865  1
  Ir  Ir1  1  0.34298136  0.34295271  0.00002865  1
  Ir  Ir2  1  0.00002865  0.65704729  0.65707593  1
  Ir  Ir3  1  0.00002865  0.34295271  0.34298136  1
  Ir  Ir4  1  0.33768082  0.00000000  0.33768082  1
loop_
_geom_bond_atom_site_label_1
_geom_bond_atom_site_label_2
_geom_bond_distance
_geom_bond_site_symmetry_2
Sn0 Tc0 2.757690 1_555
Sn0 Sn12 2.833134 1_555
Sn0 Sn3 3.059256 1_555
Sn0 Sn2 3.059256 1_545
Sn0 Sn1 3.094879 1_655
Sn1 Sn13 2.833134 1_555
Sn1 Sn5 3.101381 1_445
Sn1 Sn4 3.101381 1_556
Sn2 Tc0 2.757690 1_565
Sn2 Sn4 2.833131 1_555
Sn2 Sn5 3.094884 1_555
Sn3 Tc0 2.757690 1_555
Sn3 Sn5 2.833126 1_555
Sn3 Sn4 3.094874 1_656
Sn6 Tc0 2.745650 1_565
Sn7 Tc0 2.745650 1_555
Sn10 Tc0 2.745650 1_565
Sn11 Tc0 2.745650 1_555
Sn12 Sn13 3.094879 1_554
Sn12 Sn4 3.101381 1_655
Sn12 Sn5 3.101381 1_544
Sn13 Tc0 2.757690 1_555
Sn13 Sn2 3.059256 1_545
Sn13 Sn3 3.059256 1_555
Ir0 Sn12 2.764996 1_565
Ir0 Sn5 2.764999 1_554
Ir0 Sn9 2.773701 1_554
Ir0 Sn2 2.775434 1_554
Ir0 Sn13 2.775434 1_564
Ir0 Sn8 2.786673 1_555
Ir0 Sn11 2.796646 1_554
Ir0 Sn10 2.796646 1_555
Ir1 Sn4 2.764994 1_555
Ir1 Sn1 2.764996 1_554
Ir1 Sn9 2.773701 1_554
Ir1 Sn0 2.775434 1_454
Ir1 Sn3 2.775434 1_454
Ir1 Sn8 2.786673 1_555
Ir1 Sn10 2.796646 1_555
Ir1 Sn11 2.796646 1_554
Ir2 Sn1 2.764996 1_565
Ir2 Sn5 2.764999 1_455
Ir2 Sn8 2.773701 1_455
Ir2 Sn0 2.775434 1_465
Ir2 Sn2 2.775434 1_455
Ir2 Sn9 2.786673 1_555
Ir2 Sn7 2.796646 1_455
Ir2 Sn6 2.796646 1_555
Ir3 Sn4 2.764994 1_555
Ir3 Sn12 2.764996 1_455
Ir3 Sn8 2.773701 1_455
Ir3 Sn3 2.775434 1_454
Ir3 Sn13 2.775434 1_454
Ir3 Sn9 2.786673 1_555
Ir3 Sn6 2.796646 1_555
Ir3 Sn7 2.796646 1_455
Ir4 Sn1 2.735018 1_554
Ir4 Sn12 2.735018 1_455
Ir4 Sn5 2.735020 1_444
Ir4 Sn4 2.735026 1_555
Ir4 Sn6 2.831191 1_545
Ir4 Sn11 2.831191 1_555
Ir4 Sn10 2.831191 1_545
Ir4 Sn7 2.831191 1_555
Ir4 Tc0 2.959245 1_555
