# generated using pymatgen
data_SrLiCuF6
_symmetry_space_group_name_H-M   'P 1'
_cell_length_a   5.10981398
_cell_length_b   5.10981355
_cell_length_c   10.38881551
_cell_angle_alpha   90.00000000
_cell_angle_beta   90.00000000
_cell_angle_gamma   120.00000279
_symmetry_Int_Tables_number   1
_chemical_formula_structural   SrLiCuF6
_chemical_formula_sum   'Sr2 Li2 Cu2 F12'
_cell_volume   234.91286302
_cell_formula_units_Z   2
loop_
 _symmetry_equiv_pos_site_id
 _symmetry_equiv_pos_as_xyz
  1  'x, y, z'
loop_
 _atom_site_type_symbol
 _atom_site_label
 _atom_site_symmetry_multiplicity
 _atom_site_fract_x
 _atom_site_fract_y
 _atom_site_fract_z
 _atom_site_occupancy
  Sr  Sr0  1  0.00000000  0.00000000  0.50000000  1
  Sr  Sr1  1  0.00000000  0.00000000  0.00000000  1
  Li  Li0  1  0.33333300  0.66666700  0.75000000  1
  Li  Li1  1  0.66666700  0.33333300  0.25000000  1
  Cu  Cu0  1  0.66666700  0.33333300  0.75000000  1
  Cu  Cu1  1  0.33333300  0.66666700  0.25000000  1
  F  F0  1  0.63737727  0.01592086  0.64601701  1
  F  F1  1  0.36262273  0.98407914  0.35398299  1
  F  F2  1  0.98407914  0.62145540  0.64601701  1
  F  F3  1  0.63737727  0.62145540  0.85398299  1
  F  F4  1  0.01592086  0.37854460  0.35398299  1
  F  F5  1  0.36262273  0.37854460  0.14601701  1
  F  F6  1  0.37854460  0.36262273  0.64601701  1
  F  F7  1  0.98407914  0.36262273  0.85398299  1
  F  F8  1  0.62145540  0.63737727  0.35398299  1
  F  F9  1  0.01592086  0.63737727  0.14601701  1
  F  F10  1  0.37854460  0.01592086  0.85398299  1
  F  F11  1  0.62145540  0.98407914  0.14601701  1
loop_
_geom_bond_atom_site_label_1
_geom_bond_atom_site_label_2
_geom_bond_distance
_geom_bond_site_symmetry_2
Cu0 F10 1.891357 1_555
Cu0 F0 1.891357 1_555
Cu0 F3 1.891357 1_555
Cu0 F2 1.891357 1_555
Cu0 F7 1.891357 1_555
Cu0 F6 1.891357 1_555
Cu1 F1 1.891357 1_555
Cu1 F11 1.891357 1_555
Cu1 F4 1.891357 1_555
Cu1 F5 1.891357 1_555
Cu1 F8 1.891357 1_555
Cu1 F9 1.891357 1_555
F0 Li0 1.998233 1_545
F0 Sr0 2.427312 1_655
F1 Li1 1.998233 1_565
F1 Sr0 2.427312 1_565
F2 Li0 1.998230 1_655
F2 Sr0 2.427316 1_665
F3 Li0 1.998238 1_555
F3 Sr1 2.427314 1_666
F4 Li1 1.998230 1_455
F4 Sr0 2.427316 1_555
F5 Li1 1.998238 1_555
F5 Sr1 2.427314 1_555
F6 Li0 1.998238 1_555
F6 Sr0 2.427314 1_555
F7 Li0 1.998233 1_655
F7 Sr1 2.427312 1_656
F8 Li1 1.998238 1_555
F8 Sr0 2.427314 1_665
F9 Li1 1.998233 1_455
F9 Sr1 2.427312 1_565
F10 Li0 1.998230 1_545
F10 Sr1 2.427316 1_556
F11 Li1 1.998230 1_565
F11 Sr1 2.427316 1_665
