# generated using pymatgen
data_Y6Zn4Pd12Pt
_symmetry_space_group_name_H-M   'P 1'
_cell_length_a   8.19526944
_cell_length_b   8.19526963
_cell_length_c   8.19526916
_cell_angle_alpha   109.47122188
_cell_angle_beta   109.47122234
_cell_angle_gamma   109.47121847
_symmetry_Int_Tables_number   1
_chemical_formula_structural   Y6Zn4Pd12Pt
_chemical_formula_sum   'Y6 Zn4 Pd12 Pt1'
_cell_volume   423.70911847
_cell_formula_units_Z   1
loop_
 _symmetry_equiv_pos_site_id
 _symmetry_equiv_pos_as_xyz
  1  'x, y, z'
loop_
 _atom_site_type_symbol
 _atom_site_label
 _atom_site_symmetry_multiplicity
 _atom_site_fract_x
 _atom_site_fract_y
 _atom_site_fract_z
 _atom_site_occupancy
  Y  Y0  1  0.69985083  0.69985083  0.00000000  1
  Y  Y1  1  0.30014917  0.00000000  0.30014917  1
  Y  Y2  1  0.00000000  0.30014917  0.30014917  1
  Y  Y3  1  0.30014917  0.30014917  1.00000000  1
  Y  Y4  1  0.69985083  1.00000000  0.69985083  1
  Y  Y5  1  1.00000000  0.69985083  0.69985083  1
  Zn  Zn0  1  0.00000000  0.00000000  0.50000000  1
  Zn  Zn1  1  0.00000000  0.50000000  0.00000000  1
  Zn  Zn2  1  0.50000000  0.00000000  0.00000000  1
  Zn  Zn3  1  0.50000000  0.50000000  0.50000000  1
  Pd  Pd0  1  0.33310712  0.33310712  0.66621523  1
  Pd  Pd1  1  0.66689288  1.00000000  0.33310712  1
  Pd  Pd2  1  1.00000000  0.66689288  0.33310712  1
  Pd  Pd3  1  0.66689288  0.33310712  0.00000000  1
  Pd  Pd4  1  0.33310712  0.66621523  0.33310712  1
  Pd  Pd5  1  0.00000000  0.33310712  0.66689288  1
  Pd  Pd6  1  0.33310712  0.66689288  1.00000000  1
  Pd  Pd7  1  0.33310712  0.00000000  0.66689288  1
  Pd  Pd8  1  0.66621523  0.33310712  0.33310712  1
  Pd  Pd9  1  0.66689288  0.66689288  0.33378477  1
  Pd  Pd10  1  0.66689288  0.33378477  0.66689288  1
  Pd  Pd11  1  0.33378477  0.66689288  0.66689288  1
  Pt  Pt0  1  0.00000000  0.00000000  0.00000000  1
loop_
_geom_bond_atom_site_label_1
_geom_bond_atom_site_label_2
_geom_bond_distance
_geom_bond_site_symmetry_2
Y0 Zn3 3.379194 1_554
Y0 Zn0 3.379194 1_665
Y0 Zn1 3.379194 1_655
Y0 Zn2 3.379194 1_565
Y1 Zn2 3.379194 1_555
Y1 Zn0 3.379194 1_555
Y1 Zn1 3.379194 1_545
Y1 Zn3 3.379194 1_555
Y2 Zn1 3.379194 1_555
Y2 Zn2 3.379194 1_455
Y2 Zn3 3.379194 1_555
Y2 Zn0 3.379194 1_555
Y3 Zn3 3.379194 1_556
Y3 Zn0 3.379194 1_555
Y3 Zn1 3.379194 1_556
Y3 Zn2 3.379194 1_556
Y4 Zn2 3.379194 1_566
Y4 Zn0 3.379194 1_665
Y4 Zn1 3.379194 1_666
Y4 Zn3 3.379194 1_555
Y5 Zn1 3.379194 1_656
Y5 Zn2 3.379194 1_666
Y5 Zn3 3.379194 1_555
Y5 Zn0 3.379194 1_665
Pd0 Zn0 2.614167 1_555
Pd0 Zn3 2.614175 1_555
Pd0 Pd5 2.731759 1_555
Pd0 Pd7 2.731759 1_555
Pd0 Pd10 2.731767 1_555
Pd0 Pd11 2.731767 1_555
Pd0 Y3 2.926622 1_555
Pd0 Y0 2.926628 1_556
Pd0 Pd3 3.158637 1_556
Pd0 Pd6 3.158637 1_555
Pd0 Y2 3.167616 1_555
Pd0 Y1 3.167617 1_555
Pd1 Zn2 2.614168 1_565
Pd1 Zn0 2.614168 1_665
Pd1 Pd8 2.731759 1_565
Pd1 Pd9 2.731759 1_555
Pd1 Pd5 2.731761 1_665
Pd1 Pd6 2.731761 1_554
Pd1 Y4 2.926630 1_555
Pd1 Y1 2.926630 1_565
Pd1 Pd10 3.158637 1_565
Pd1 Pd4 3.158637 1_555
Pd1 Y0 3.167611 1_555
Pd1 Y2 3.167612 1_665
Pd2 Zn1 2.614168 1_655
Pd2 Zn0 2.614168 1_665
Pd2 Pd4 2.731759 1_655
Pd2 Pd9 2.731759 1_555
Pd2 Pd7 2.731761 1_665
Pd2 Pd3 2.731761 1_555
Pd2 Y5 2.926630 1_555
Pd2 Y2 2.926630 1_655
Pd2 Pd8 3.158637 1_555
Pd2 Y0 3.167611 1_555
Pd2 Y1 3.167612 1_665
Pd3 Zn1 2.614168 1_655
Pd3 Zn2 2.614168 1_555
Pd3 Pd8 2.731759 1_555
Pd3 Pd7 2.731761 1_554
Pd3 Y3 2.926630 1_554
Pd3 Y0 2.926630 1_555
Pd3 Pd9 3.158637 1_555
Pd3 Y2 3.167611 1_655
Pd3 Y4 3.167611 1_544
Pd4 Zn1 2.614167 1_555
Pd4 Zn3 2.614175 1_555
Pd4 Pd6 2.731759 1_554
Pd4 Pd9 2.731767 1_555
Pd4 Y1 2.926622 1_565
Pd4 Y4 2.926628 1_555
Pd4 Pd7 3.158637 1_565
Pd4 Y3 3.167617 1_554
Pd4 Y2 3.167617 1_555
Pd5 Zn1 2.614168 1_556
Pd5 Zn0 2.614168 1_555
Pd5 Pd6 2.731761 1_555
Pd5 Y2 2.926630 1_555
Pd5 Y5 2.926630 1_455
Pd5 Pd8 3.158637 1_455
Pd5 Y3 3.167611 1_555
Pd5 Y4 3.167612 1_445
Pd6 Zn1 2.614168 1_556
Pd6 Zn2 2.614168 1_566
Pd6 Y0 2.926630 1_556
Pd6 Y3 2.926630 1_555
Pd6 Pd9 3.158637 1_556
Pd6 Y5 3.167611 1_455
Pd6 Y1 3.167611 1_566
Pd7 Zn2 2.614168 1_556
Pd7 Zn0 2.614168 1_555
Pd7 Y1 2.926630 1_555
Pd7 Y4 2.926630 1_545
Pd7 Y3 3.167611 1_555
Pd7 Y5 3.167612 1_445
Pd8 Zn2 2.614167 1_555
Pd8 Zn3 2.614175 1_555
Pd8 Pd9 2.731767 1_555
Pd8 Y2 2.926622 1_655
Pd8 Y5 2.926628 1_555
Pd8 Y3 3.167616 1_554
Pd8 Y1 3.167617 1_555
Pd9 Zn0 2.614167 1_665
Pd9 Zn3 2.614175 1_555
Pd9 Y0 2.926622 1_555
Pd9 Y3 2.926628 1_554
Pd9 Y5 3.167616 1_555
Pd9 Y4 3.167617 1_555
Pd10 Zn1 2.614167 1_656
Pd10 Zn3 2.614175 1_555
Pd10 Pd3 2.731759 1_556
Pd10 Pd5 2.731759 1_655
Pd10 Pd8 2.731767 1_555
Pd10 Y4 2.926622 1_545
Pd10 Y1 2.926628 1_555
Pd10 Pd7 3.158637 1_555
Pd10 Y0 3.167617 1_556
Pd10 Y5 3.167617 1_555
Pd11 Zn2 2.614167 1_566
Pd11 Zn3 2.614175 1_555
Pd11 Pd6 2.731759 1_555
Pd11 Pd7 2.731759 1_565
Pd11 Pd4 2.731767 1_555
Pd11 Y5 2.926622 1_455
Pd11 Y2 2.926628 1_555
Pd11 Pd2 3.158637 1_455
Pd11 Pd5 3.158637 1_555
Pd11 Y0 3.167616 1_556
Pd11 Y4 3.167617 1_555
Pt0 Y1 2.840336 1_555
Pt0 Y4 2.840336 1_444
Pt0 Y2 2.840336 1_555
Pt0 Y5 2.840336 1_444
Pt0 Y3 2.840336 1_554
Pt0 Y0 2.840336 1_445
