# generated using pymatgen
data_HfZr7H30
_symmetry_space_group_name_H-M   'P 1'
_cell_length_a   6.97963524
_cell_length_b   6.97963537
_cell_length_c   6.97963492
_cell_angle_alpha   109.53407572
_cell_angle_beta   109.53408149
_cell_angle_gamma   109.53406725
_symmetry_Int_Tables_number   1
_chemical_formula_structural   HfZr7H30
_chemical_formula_sum   'Hf1 Zr7 H30'
_cell_volume   261.13284074
_cell_formula_units_Z   1
loop_
 _symmetry_equiv_pos_site_id
 _symmetry_equiv_pos_as_xyz
  1  'x, y, z'
loop_
 _atom_site_type_symbol
 _atom_site_label
 _atom_site_symmetry_multiplicity
 _atom_site_fract_x
 _atom_site_fract_y
 _atom_site_fract_z
 _atom_site_occupancy
  Hf  Hf0  1  0.90354137  0.90354137  0.90354137  1
  Zr  Zr0  1  0.49995903  0.99999520  0.09385953  1
  Zr  Zr1  1  0.99999520  0.09385953  0.49995903  1
  Zr  Zr2  1  0.09385953  0.49995903  0.99999520  1
  Zr  Zr3  1  0.99984234  0.59404404  0.50081640  1
  Zr  Zr4  1  0.59404404  0.50081640  0.99984234  1
  Zr  Zr5  1  0.50081640  0.99984234  0.59404404  1
  Zr  Zr6  1  0.40397641  0.40397641  0.40397641  1
  H  H0  1  0.65532018  0.96899290  0.38539790  1
  H  H1  1  0.23060282  0.31355269  0.84469998  1
  H  H2  1  0.18598362  0.41628648  0.53041040  1
  H  H3  1  0.08184280  0.26669634  0.11114262  1
  H  H4  1  0.26669634  0.11114262  0.08184280  1
  H  H5  1  0.11114262  0.08184280  0.26669634  1
  H  H6  1  0.47054900  0.15598774  0.88591448  1
  H  H7  1  0.73066271  0.34482271  0.81374077  1
  H  H8  1  0.62450624  0.37523522  0.25052979  1
  H  H9  1  0.25052979  0.62450624  0.37523522  1
  H  H10  1  0.75044113  0.87547063  0.12371054  1
  H  H11  1  0.12371054  0.75044113  0.87547063  1
  H  H12  1  0.37523522  0.25052979  0.62450624  1
  H  H13  1  0.87547063  0.12371054  0.75044113  1
  H  H14  1  0.77156431  0.58667408  0.61723309  1
  H  H15  1  0.31355269  0.84469998  0.23060282  1
  H  H16  1  0.38539790  0.65532018  0.96899290  1
  H  H17  1  0.96899290  0.38539790  0.65532018  1
  H  H18  1  0.53041040  0.18598362  0.41628648  1
  H  H19  1  0.41628648  0.53041040  0.18598362  1
  H  H20  1  0.84469998  0.23060282  0.31355269  1
  H  H21  1  0.91726873  0.68941388  0.02931389  1
  H  H22  1  0.81374077  0.73066271  0.34482271  1
  H  H23  1  0.15598774  0.88591448  0.47054900  1
  H  H24  1  0.68941388  0.02931389  0.91726873  1
  H  H25  1  0.34482271  0.81374077  0.73066271  1
  H  H26  1  0.88591448  0.47054900  0.15598774  1
  H  H27  1  0.61723309  0.77156431  0.58667408  1
  H  H28  1  0.58667408  0.61723309  0.77156431  1
  H  H29  1  0.02931389  0.91726873  0.68941388  1
loop_
_geom_bond_atom_site_label_1
_geom_bond_atom_site_label_2
_geom_bond_distance
_geom_bond_site_symmetry_2
H0 Zr1 2.007946 1_565
H0 Zr5 2.079851 1_555
H0 Zr0 2.083028 1_555
H1 Zr1 2.005947 1_455
H1 Zr4 2.077278 1_555
H1 Zr2 2.087494 1_555
H2 Zr6 2.008913 1_555
H2 Zr1 2.082487 1_455
H2 Zr3 2.083200 1_455
H3 Zr2 2.014037 1_554
H3 Hf0 2.074014 1_444
H3 Zr6 2.080215 1_555
H4 Zr0 2.014036 1_545
H4 Hf0 2.074014 1_444
H4 Zr6 2.080215 1_555
H5 Zr1 2.014037 1_455
H5 Hf0 2.074014 1_444
H5 Zr6 2.080215 1_555
H6 Zr4 2.010561 1_555
H6 Zr5 2.083126 1_545
H6 Zr0 2.083515 1_546
H7 Zr5 2.006314 1_545
H7 Zr2 2.075537 1_655
H7 Zr4 2.087752 1_555
H8 Zr6 2.172947 1_555
H8 Zr3 2.174149 1_555
H8 Zr0 2.176551 1_545
H8 Zr4 2.185496 1_554
H9 Zr6 2.172947 1_555
H9 Zr5 2.174149 1_555
H9 Zr2 2.176551 1_554
H9 Zr3 2.185496 1_455
H10 Hf0 2.168217 1_554
H10 Zr4 2.173741 1_554
H10 Zr1 2.177697 1_565
H10 Zr0 2.179200 1_555
H11 Hf0 2.168217 1_455
H11 Zr3 2.173740 1_455
H11 Zr0 2.177697 1_556
H11 Zr2 2.179200 1_555
H12 Zr6 2.172947 1_555
H12 Zr4 2.174149 1_555
H12 Zr1 2.176551 1_455
H12 Zr5 2.185496 1_545
H13 Hf0 2.168217 1_545
H13 Zr5 2.173741 1_545
H13 Zr2 2.177698 1_655
H13 Zr1 2.179200 1_555
H14 Zr3 2.010069 1_555
H14 Hf0 2.045541 1_555
H14 Zr6 2.100740 1_555
H15 Zr2 2.005947 1_554
H15 Zr5 2.077278 1_555
H15 Zr0 2.087495 1_555
H16 Zr0 2.007946 1_556
H16 Zr4 2.079850 1_555
H16 Zr2 2.083028 1_555
H17 Zr2 2.007946 1_655
H17 Zr3 2.079851 1_555
H17 Zr1 2.083028 1_555
H18 Zr6 2.008912 1_555
H18 Zr0 2.082486 1_545
H18 Zr5 2.083200 1_545
H19 Zr6 2.008912 1_555
H19 Zr2 2.082486 1_554
H19 Zr4 2.083200 1_554
H20 Zr0 2.005947 1_545
H20 Zr3 2.077278 1_555
H20 Zr1 2.087494 1_555
H21 Hf0 1.982496 1_554
H21 Zr2 2.094565 1_654
H21 Zr4 2.094575 1_554
H22 Zr4 2.006313 1_554
H22 Zr1 2.075537 1_565
H22 Zr3 2.087752 1_555
H23 Zr5 2.010561 1_555
H23 Zr3 2.083126 1_455
H23 Zr1 2.083515 1_465
H24 Hf0 1.982496 1_545
H24 Zr0 2.094565 1_546
H24 Zr5 2.094574 1_545
H25 Zr3 2.006313 1_455
H25 Zr0 2.075537 1_556
H25 Zr5 2.087752 1_555
H26 Zr3 2.010561 1_555
H26 Zr4 2.083126 1_554
H26 Zr2 2.083516 1_654
H27 Zr5 2.010069 1_555
H27 Hf0 2.045540 1_555
H27 Zr6 2.100740 1_555
H28 Zr4 2.010069 1_555
H28 Hf0 2.045541 1_555
H28 Zr6 2.100740 1_555
H29 Hf0 1.982496 1_455
H29 Zr1 2.094565 1_465
H29 Zr3 2.094575 1_455
