# generated using pymatgen
data_Li2ZnSbPt4
_symmetry_space_group_name_H-M   'P 1'
_cell_length_a   5.42080527
_cell_length_b   5.42080445
_cell_length_c   5.67350354
_cell_angle_alpha   58.44557986
_cell_angle_beta   58.44558519
_cell_angle_gamma   63.10882783
_symmetry_Int_Tables_number   1
_chemical_formula_structural   Li2ZnSbPt4
_chemical_formula_sum   'Li2 Zn1 Sb1 Pt4'
_cell_volume   117.34870146
_cell_formula_units_Z   1
loop_
 _symmetry_equiv_pos_site_id
 _symmetry_equiv_pos_as_xyz
  1  'x, y, z'
loop_
 _atom_site_type_symbol
 _atom_site_label
 _atom_site_symmetry_multiplicity
 _atom_site_fract_x
 _atom_site_fract_y
 _atom_site_fract_z
 _atom_site_occupancy
  Li  Li0  1  0.50000000  0.50000000  0.00000000  1
  Li  Li1  1  0.00000000  0.00000000  0.50000000  1
  Zn  Zn0  1  0.50000000  0.50000000  0.50000000  1
  Sb  Sb0  1  0.00000000  0.00000000  0.00000000  1
  Pt  Pt0  1  0.00000000  0.50000000  0.50000000  1
  Pt  Pt1  1  0.50000000  0.00000000  0.00000000  1
  Pt  Pt2  1  0.00000000  0.50000000  0.00000000  1
  Pt  Pt3  1  0.50000000  0.00000000  0.50000000  1
loop_
_geom_bond_atom_site_label_1
_geom_bond_atom_site_label_2
_geom_bond_distance
_geom_bond_site_symmetry_2
Li0 Pt1 2.710402 1_555
Li0 Pt1 2.710402 1_565
Li0 Pt3 2.710402 1_555
Li0 Pt3 2.710402 1_564
Li0 Pt2 2.710403 1_555
Li0 Pt2 2.710403 1_655
Li0 Pt0 2.710403 1_654
Li0 Pt0 2.710403 1_555
Li0 Sb0 2.836751 1_655
Li0 Sb0 2.836751 1_565
Li0 Zn0 2.836752 1_555
Li0 Zn0 2.836752 1_554
Li1 Pt0 2.710402 1_555
Li1 Pt0 2.710402 1_545
Li1 Pt2 2.710402 1_546
Li1 Pt2 2.710402 1_555
Li1 Pt3 2.710403 1_455
Li1 Pt3 2.710403 1_555
Li1 Pt1 2.710403 1_555
Li1 Pt1 2.710403 1_456
Li1 Zn0 2.836751 1_545
Li1 Zn0 2.836751 1_455
Li1 Sb0 2.836752 1_556
Li1 Sb0 2.836752 1_555
Pt0 Sb0 2.710402 1_556
Pt0 Sb0 2.710402 1_565
Pt0 Zn0 2.710403 1_555
Pt0 Zn0 2.710403 1_455
Pt1 Zn0 2.710402 1_545
Pt1 Zn0 2.710402 1_554
Pt1 Sb0 2.710403 1_655
Pt1 Sb0 2.710403 1_555
Pt2 Sb0 2.710402 1_555
Pt2 Sb0 2.710402 1_565
Pt2 Zn0 2.710403 1_455
Pt2 Zn0 2.710403 1_554
Pt3 Zn0 2.710402 1_555
Pt3 Zn0 2.710402 1_545
Pt3 Sb0 2.710403 1_556
Pt3 Sb0 2.710403 1_655
