# generated using pymatgen
data_Na2Li4(TcH9)3
_symmetry_space_group_name_H-M   'P 1'
_cell_length_a   8.21307539
_cell_length_b   8.21307498
_cell_length_c   4.90429095
_cell_angle_alpha   90.00000000
_cell_angle_beta   90.00000000
_cell_angle_gamma   120.38963969
_symmetry_Int_Tables_number   1
_chemical_formula_structural   Na2Li4(TcH9)3
_chemical_formula_sum   'Na2 Li4 Tc3 H27'
_cell_volume   285.36445325
_cell_formula_units_Z   1
loop_
 _symmetry_equiv_pos_site_id
 _symmetry_equiv_pos_as_xyz
  1  'x, y, z'
loop_
 _atom_site_type_symbol
 _atom_site_label
 _atom_site_symmetry_multiplicity
 _atom_site_fract_x
 _atom_site_fract_y
 _atom_site_fract_z
 _atom_site_occupancy
  Na  Na0  1  0.61212660  0.99875382  0.00000000  1
  Na  Na1  1  0.99875382  0.61212660  0.00000000  1
  Li  Li0  1  0.27361344  0.99855446  0.50000000  1
  Li  Li1  1  0.99855446  0.27361344  0.50000000  1
  Li  Li2  1  0.71312799  0.71312799  0.50000000  1
  Li  Li3  1  0.38692617  0.38692617  0.00000000  1
  Tc  Tc0  1  0.01156757  0.01156757  0.00000000  1
  Tc  Tc1  1  0.33225956  0.66086317  0.50000000  1
  Tc  Tc2  1  0.66086317  0.33225956  0.50000000  1
  H  H0  1  0.86925594  0.01013562  0.24696416  1
  H  H1  1  0.01013562  0.86925594  0.24696416  1
  H  H2  1  0.86925594  0.01013562  0.75303584  1
  H  H3  1  0.01013562  0.86925594  0.75303584  1
  H  H4  1  0.16028408  0.16028408  0.23682569  1
  H  H5  1  0.16028408  0.16028408  0.76317431  1
  H  H6  1  0.20969640  0.00722730  0.00000000  1
  H  H7  1  0.00722730  0.20969640  0.00000000  1
  H  H8  1  0.80873139  0.80873139  0.00000000  1
  H  H9  1  0.18184188  0.52160552  0.26014907  1
  H  H10  1  0.46570453  0.64423726  0.25352237  1
  H  H11  1  0.18184188  0.52160552  0.73985093  1
  H  H12  1  0.52160552  0.18184188  0.73985093  1
  H  H13  1  0.34186453  0.81160318  0.26040268  1
  H  H14  1  0.46570453  0.64423726  0.74647763  1
  H  H15  1  0.64423726  0.46570453  0.74647763  1
  H  H16  1  0.52160552  0.18184188  0.26014907  1
  H  H17  1  0.34186453  0.81160318  0.73959732  1
  H  H18  1  0.64423726  0.46570453  0.25352237  1
  H  H19  1  0.81160318  0.34186453  0.73959732  1
  H  H20  1  0.81160318  0.34186453  0.26040268  1
  H  H21  1  0.30958029  0.45116377  0.50000000  1
  H  H22  1  0.54547091  0.84925679  0.50000000  1
  H  H23  1  0.45116377  0.30958029  0.50000000  1
  H  H24  1  0.14135223  0.67666403  0.50000000  1
  H  H25  1  0.84925679  0.54547091  0.50000000  1
  H  H26  1  0.67666403  0.14135223  0.50000000  1
loop_
_geom_bond_atom_site_label_1
_geom_bond_atom_site_label_2
_geom_bond_distance
_geom_bond_site_symmetry_2
H0 Tc0 1.679086 1_655
H0 Li1 2.241746 1_555
H0 Na0 2.394946 1_545
H1 Tc0 1.679086 1_565
H1 Li0 2.241746 1_555
H1 Na1 2.394946 1_455
H2 Tc0 1.679086 1_656
H2 Li1 2.241746 1_555
H2 Na0 2.394946 1_546
H3 Tc0 1.679086 1_566
H3 Li0 2.241746 1_555
H3 Na1 2.394946 1_456
H4 Tc0 1.680275 1_555
H4 Li3 2.184760 1_555
H4 Li0 2.355310 1_545
H4 Li1 2.355310 1_455
H5 Tc0 1.680275 1_556
H5 Li3 2.184760 1_556
H5 Li0 2.355310 1_545
H5 Li1 2.355310 1_455
H6 Tc0 1.645567 1_555
H7 Tc0 1.645567 1_555
H8 Tc0 1.656088 1_665
H9 Tc1 1.669859 1_555
H9 Li1 2.167053 1_455
H9 Na1 2.360670 1_455
H10 Tc1 1.682991 1_555
H10 Li2 2.178875 1_555
H10 Li3 2.246603 1_555
H11 Tc1 1.669859 1_555
H11 Li1 2.167053 1_455
H11 Na1 2.360670 1_456
H12 Tc2 1.669859 1_555
H12 Li0 2.167053 1_545
H12 Na0 2.360670 1_546
H13 Tc1 1.679555 1_555
H13 Li0 2.218868 1_555
H13 Na0 2.338510 1_555
H14 Tc1 1.682991 1_555
H14 Li2 2.178875 1_555
H14 Li3 2.246603 1_556
H15 Tc2 1.682991 1_555
H15 Li2 2.178875 1_555
H15 Li3 2.246603 1_556
H16 Tc2 1.669859 1_555
H16 Li0 2.167053 1_545
H16 Na0 2.360670 1_545
H17 Tc1 1.679555 1_555
H17 Li0 2.218868 1_555
H17 Na0 2.338510 1_556
H18 Tc2 1.682991 1_555
H18 Li2 2.178875 1_555
H18 Li3 2.246603 1_555
H19 Tc2 1.679555 1_555
H19 Li1 2.218868 1_555
H19 Na1 2.338510 1_556
H20 Tc2 1.679555 1_555
H20 Li1 2.218868 1_555
H20 Na1 2.338510 1_555
H21 Tc1 1.635958 1_555
H21 Li1 2.209749 1_455
H22 Tc1 1.648996 1_555
H22 Li2 2.168799 1_555
H23 Tc2 1.635958 1_555
H23 Li0 2.209749 1_545
H24 Tc1 1.637417 1_555
H24 Li0 2.294263 1_555
H25 Tc2 1.648996 1_555
H25 Li2 2.168799 1_555
H26 Tc2 1.637417 1_555
H26 Li1 2.294263 1_555
