# generated using pymatgen
data_Zr3BeIr2N
_symmetry_space_group_name_H-M   'P 1'
_cell_length_a   8.39769789
_cell_length_b   8.39769849
_cell_length_c   8.39769720
_cell_angle_alpha   60.00000119
_cell_angle_beta   59.99999886
_cell_angle_gamma   59.99999709
_symmetry_Int_Tables_number   1
_chemical_formula_structural   Zr3BeIr2N
_chemical_formula_sum   'Zr12 Be4 Ir8 N4'
_cell_volume   418.76051789
_cell_formula_units_Z   4
loop_
 _symmetry_equiv_pos_site_id
 _symmetry_equiv_pos_as_xyz
  1  'x, y, z'
loop_
 _atom_site_type_symbol
 _atom_site_label
 _atom_site_symmetry_multiplicity
 _atom_site_fract_x
 _atom_site_fract_y
 _atom_site_fract_z
 _atom_site_occupancy
  Zr  Zr0  1  0.80450220  0.80450220  0.19549780  1
  Zr  Zr1  1  0.19549780  0.19549780  0.80450220  1
  Zr  Zr2  1  0.80450220  0.19549780  0.80450220  1
  Zr  Zr3  1  0.19549780  0.80450220  0.19549780  1
  Zr  Zr4  1  0.19549780  0.80450220  0.80450220  1
  Zr  Zr5  1  0.80450220  0.19549780  0.19549780  1
  Zr  Zr6  1  0.44549780  0.44549780  0.05450220  1
  Zr  Zr7  1  0.05450220  0.05450220  0.44549780  1
  Zr  Zr8  1  0.44549780  0.05450220  0.44549780  1
  Zr  Zr9  1  0.05450220  0.44549780  0.05450220  1
  Zr  Zr10  1  0.05450220  0.44549780  0.44549780  1
  Zr  Zr11  1  0.44549780  0.05450220  0.05450220  1
  Be  Be0  1  0.12500000  0.62500000  0.62500000  1
  Be  Be1  1  0.62500000  0.12500000  0.62500000  1
  Be  Be2  1  0.62500000  0.62500000  0.12500000  1
  Be  Be3  1  0.62500000  0.62500000  0.62500000  1
  Ir  Ir0  1  0.74774414  0.41741895  0.41741895  1
  Ir  Ir1  1  0.41741895  0.74774414  0.41741895  1
  Ir  Ir2  1  0.41741895  0.41741895  0.74774414  1
  Ir  Ir3  1  0.41741895  0.41741895  0.41741895  1
  Ir  Ir4  1  0.50225586  0.83258105  0.83258105  1
  Ir  Ir5  1  0.83258105  0.50225586  0.83258105  1
  Ir  Ir6  1  0.83258105  0.83258105  0.50225586  1
  Ir  Ir7  1  0.83258105  0.83258105  0.83258105  1
  N  N0  1  0.62500000  0.12500000  0.12500000  1
  N  N1  1  0.12500000  0.62500000  0.12500000  1
  N  N2  1  0.12500000  0.12500000  0.62500000  1
  N  N3  1  0.12500000  0.12500000  0.12500000  1
loop_
_geom_bond_atom_site_label_1
_geom_bond_atom_site_label_2
_geom_bond_distance
_geom_bond_site_symmetry_2
Be0 Ir7 2.566143 1_455
Be0 Ir3 2.566143 1_555
Be0 Ir2 2.566147 1_555
Be0 Ir6 2.566147 1_455
Be0 Ir1 2.566147 1_555
Be0 Ir5 2.566147 1_455
Be1 Ir7 2.566143 1_545
Be1 Ir3 2.566143 1_555
Be1 Ir2 2.566147 1_555
Be1 Ir6 2.566147 1_545
Be1 Ir0 2.566147 1_555
Be1 Ir4 2.566147 1_545
Be2 Ir7 2.566143 1_554
Be2 Ir3 2.566143 1_555
Be2 Ir1 2.566147 1_555
Be2 Ir5 2.566147 1_554
Be2 Ir0 2.566147 1_555
Be2 Ir4 2.566147 1_554
Be3 Ir5 2.566140 1_555
Be3 Ir1 2.566140 1_555
Be3 Ir4 2.566140 1_555
Be3 Ir0 2.566140 1_555
Be3 Ir6 2.566140 1_555
Be3 Ir2 2.566140 1_555
Ir0 Zr10 2.831564 1_655
Ir0 Zr9 2.831568 1_655
Ir0 Zr7 2.831569 1_655
Ir0 Zr2 2.978239 1_555
Ir0 Zr0 2.978239 1_555
Ir0 Zr5 2.978246 1_555
Ir1 Zr8 2.831564 1_565
Ir1 Zr7 2.831569 1_565
Ir1 Zr11 2.831569 1_565
Ir1 Zr4 2.978239 1_555
Ir1 Zr0 2.978239 1_555
Ir1 Zr3 2.978246 1_555
Ir2 Zr6 2.831564 1_556
Ir2 Zr9 2.831568 1_556
Ir2 Zr11 2.831569 1_556
Ir2 Zr2 2.978239 1_555
Ir2 Zr4 2.978239 1_555
Ir2 Zr1 2.978246 1_555
Ir3 Zr6 2.831572 1_555
Ir3 Zr10 2.831572 1_555
Ir3 Zr8 2.831572 1_555
Ir3 Zr5 2.978242 1_555
Ir3 Zr1 2.978242 1_555
Ir3 Zr3 2.978242 1_555
Ir4 Zr4 2.831564 1_555
Ir4 Zr3 2.831568 1_556
Ir4 Zr1 2.831569 1_565
Ir4 Zr8 2.978239 1_565
Ir4 Zr6 2.978239 1_556
Ir4 Zr11 2.978246 1_566
Ir5 Zr2 2.831564 1_555
Ir5 Zr1 2.831569 1_655
Ir5 Zr5 2.831569 1_556
Ir5 Zr10 2.978239 1_655
Ir5 Zr6 2.978239 1_556
Ir5 Zr9 2.978246 1_656
Ir6 Zr0 2.831564 1_555
Ir6 Zr3 2.831568 1_655
Ir6 Zr5 2.831569 1_565
Ir6 Zr8 2.978239 1_565
Ir6 Zr10 2.978239 1_655
Ir6 Zr7 2.978246 1_665
Ir7 Zr0 2.831572 1_556
Ir7 Zr4 2.831572 1_655
Ir7 Zr2 2.831572 1_565
Ir7 Zr11 2.978242 1_566
Ir7 Zr7 2.978242 1_665
Ir7 Zr9 2.978242 1_656
N0 Zr2 2.260211 1_554
N0 Zr8 2.260211 1_555
N0 Zr5 2.260212 1_555
N0 Zr11 2.260212 1_555
N0 Zr6 2.260212 1_555
N0 Zr0 2.260212 1_545
N1 Zr10 2.260212 1_555
N1 Zr4 2.260212 1_554
N1 Zr6 2.260212 1_555
N1 Zr0 2.260212 1_455
N1 Zr3 2.260212 1_555
N1 Zr9 2.260212 1_555
N2 Zr8 2.260212 1_555
N2 Zr2 2.260212 1_455
N2 Zr1 2.260212 1_555
N2 Zr7 2.260212 1_555
N2 Zr10 2.260212 1_555
N2 Zr4 2.260212 1_545
N3 Zr7 2.260211 1_555
N3 Zr1 2.260211 1_554
N3 Zr11 2.260212 1_555
N3 Zr5 2.260212 1_455
N3 Zr9 2.260212 1_555
N3 Zr3 2.260212 1_545
