# generated using pymatgen
data_YZr2IrF15
_symmetry_space_group_name_H-M   'P 1'
_cell_length_a   8.02368525
_cell_length_b   8.02368473
_cell_length_c   8.02907108
_cell_angle_alpha   79.97389311
_cell_angle_beta   79.97389206
_cell_angle_gamma   99.85601782
_symmetry_Int_Tables_number   1
_chemical_formula_structural   YZr2IrF15
_chemical_formula_sum   'Y2 Zr4 Ir2 F30'
_cell_volume   490.30109841
_cell_formula_units_Z   2
loop_
 _symmetry_equiv_pos_site_id
 _symmetry_equiv_pos_as_xyz
  1  'x, y, z'
loop_
 _atom_site_type_symbol
 _atom_site_label
 _atom_site_symmetry_multiplicity
 _atom_site_fract_x
 _atom_site_fract_y
 _atom_site_fract_z
 _atom_site_occupancy
  Y  Y0  1  0.17631125  0.82368875  0.25000000  1
  Y  Y1  1  0.82368875  0.17631125  0.75000000  1
  Zr  Zr0  1  0.74658458  0.67771172  0.67452952  1
  Zr  Zr1  1  0.32228828  0.25341542  0.82547048  1
  Zr  Zr2  1  0.25341542  0.32228828  0.32547048  1
  Zr  Zr3  1  0.67771172  0.74658458  0.17452952  1
  Ir  Ir0  1  0.74999252  0.25000748  0.25000000  1
  Ir  Ir1  1  0.25000748  0.74999252  0.75000000  1
  F  F0  1  0.31584944  0.35211008  0.05370922  1
  F  F1  1  0.93682110  0.81439955  0.14713652  1
  F  F2  1  0.84192694  0.45931072  0.68620647  1
  F  F3  1  0.45931072  0.84192694  0.18620647  1
  F  F4  1  0.81439955  0.93682110  0.64713652  1
  F  F5  1  0.35211008  0.31584944  0.55370822  1
  F  F6  1  0.68415056  0.64788992  0.94629078  1
  F  F7  1  0.06317890  0.18560045  0.85286348  1
  F  F8  1  0.15807306  0.54068928  0.31379353  1
  F  F9  1  0.54068928  0.15807306  0.81379353  1
  F  F10  1  0.18560045  0.06317890  0.35286348  1
  F  F11  1  0.64788992  0.68415056  0.44629078  1
  F  F12  1  0.77275940  0.28383143  0.00277143  1
  F  F13  1  0.00252306  0.27399016  0.21428331  1
  F  F14  1  0.78663402  0.50401222  0.22407502  1
  F  F15  1  0.50401222  0.78663402  0.72407502  1
  F  F16  1  0.27399016  0.00252306  0.71428331  1
  F  F17  1  0.28383143  0.77275940  0.50277143  1
  F  F18  1  0.22724060  0.71616857  0.99722857  1
  F  F19  1  0.99747694  0.72600984  0.78571669  1
  F  F20  1  0.21336598  0.49598778  0.77592498  1
  F  F21  1  0.49598778  0.21336598  0.27592498  1
  F  F22  1  0.72600984  0.99747694  0.28571669  1
  F  F23  1  0.71616857  0.22724060  0.49722857  1
  F  F24  1  0.47202495  0.52797505  0.25000000  1
  F  F25  1  0.74339960  0.95411749  0.97210941  1
  F  F26  1  0.04588251  0.25660040  0.52789059  1
  F  F27  1  0.25660040  0.04588251  0.02789059  1
  F  F28  1  0.95411749  0.74339960  0.47210941  1
  F  F29  1  0.52797505  0.47202495  0.75000000  1
loop_
_geom_bond_atom_site_label_1
_geom_bond_atom_site_label_2
_geom_bond_distance
_geom_bond_site_symmetry_2
F0 Zr2 2.113258 1_555
F0 Zr1 2.115259 1_554
F1 Zr3 2.019549 1_555
F1 Y0 2.214765 1_655
F2 Zr0 2.022759 1_555
F2 Y1 2.212467 1_555
F3 Zr3 2.022759 1_555
F3 Y0 2.212468 1_555
F4 Zr0 2.019548 1_555
F4 Y1 2.214765 1_565
F5 Zr1 2.113265 1_555
F5 Zr2 2.115252 1_555
F6 Zr0 2.113258 1_555
F6 Zr3 2.115259 1_556
F7 Zr1 2.019549 1_555
F7 Y1 2.214765 1_455
F8 Zr2 2.022759 1_555
F8 Y0 2.212467 1_555
F9 Zr1 2.022759 1_555
F9 Y1 2.212468 1_555
F10 Zr2 2.019548 1_555
F10 Y0 2.214765 1_545
F11 Zr3 2.113258 1_555
F11 Zr0 2.115259 1_555
F12 Ir0 1.927823 1_555
F12 Y1 2.339181 1_554
F13 Ir0 1.967190 1_455
F13 Zr2 2.340680 1_555
F14 Ir0 1.977189 1_555
F14 Zr3 2.268044 1_555
F15 Ir1 1.977189 1_555
F15 Zr0 2.268044 1_555
F16 Ir1 1.967190 1_545
F16 Zr1 2.340679 1_555
F17 Ir1 1.927823 1_555
F17 Y0 2.339181 1_555
F18 Ir1 1.927823 1_555
F18 Y0 2.339181 1_556
F19 Ir1 1.967190 1_655
F19 Zr0 2.340680 1_555
F20 Ir1 1.977189 1_555
F20 Zr1 2.268044 1_555
F21 Ir0 1.977189 1_555
F21 Zr2 2.268044 1_555
F22 Ir0 1.967190 1_565
F22 Zr3 2.340679 1_555
F23 Ir0 1.927823 1_555
F23 Y1 2.339181 1_555
F24 Zr3 2.111460 1_555
F24 Zr2 2.111460 1_555
F25 Zr3 2.037397 1_556
F25 Y1 2.207593 1_565
F26 Zr2 2.037397 1_555
F26 Y1 2.207593 1_455
F27 Zr1 2.037397 1_554
F27 Y0 2.207593 1_545
F28 Zr0 2.037397 1_555
F28 Y0 2.207593 1_655
F29 Zr1 2.111460 1_555
F29 Zr0 2.111460 1_555
