# generated using pymatgen
data_Ca2Mn(Si3Pd10)2
_symmetry_space_group_name_H-M   'P 1'
_cell_length_a   8.60901852
_cell_length_b   8.60901840
_cell_length_c   8.60901966
_cell_angle_alpha   60.00000263
_cell_angle_beta   60.00000309
_cell_angle_gamma   60.00000593
_symmetry_Int_Tables_number   1
_chemical_formula_structural   Ca2Mn(Si3Pd10)2
_chemical_formula_sum   'Ca2 Mn1 Si6 Pd20'
_cell_volume   451.17602952
_cell_formula_units_Z   1
loop_
 _symmetry_equiv_pos_site_id
 _symmetry_equiv_pos_as_xyz
  1  'x, y, z'
loop_
 _atom_site_type_symbol
 _atom_site_label
 _atom_site_symmetry_multiplicity
 _atom_site_fract_x
 _atom_site_fract_y
 _atom_site_fract_z
 _atom_site_occupancy
  Ca  Ca0  1  0.25000000  0.25000000  0.25000000  1
  Ca  Ca1  1  0.75000000  0.75000000  0.75000000  1
  Mn  Mn0  1  0.00000000  0.00000000  0.00000000  1
  Si  Si0  1  0.73202187  0.26797813  0.26797813  1
  Si  Si1  1  0.26797813  0.73202187  0.73202187  1
  Si  Si2  1  0.26797813  0.73202187  0.26797813  1
  Si  Si3  1  0.73202187  0.26797813  0.73202187  1
  Si  Si4  1  0.26797813  0.26797813  0.73202187  1
  Si  Si5  1  0.73202187  0.73202187  0.26797813  1
  Pd  Pd0  1  0.34198295  0.00000000  1.00000000  1
  Pd  Pd1  1  0.65801705  1.00000000  0.00000000  1
  Pd  Pd2  1  0.00000000  0.34198295  0.65801705  1
  Pd  Pd3  1  1.00000000  0.65801705  0.34198295  1
  Pd  Pd4  1  0.00000000  0.34198295  1.00000000  1
  Pd  Pd5  1  0.65801705  1.00000000  0.34198295  1
  Pd  Pd6  1  1.00000000  0.65801705  0.00000000  1
  Pd  Pd7  1  0.34198295  0.00000000  0.65801705  1
  Pd  Pd8  1  0.00000000  0.00000000  0.34198295  1
  Pd  Pd9  1  1.00000000  1.00000000  0.65801705  1
  Pd  Pd10  1  0.65801705  0.34198295  1.00000000  1
  Pd  Pd11  1  0.34198295  0.65801705  0.00000000  1
  Pd  Pd12  1  0.38441733  0.38441733  0.38441733  1
  Pd  Pd13  1  0.61558267  0.61558267  0.61558267  1
  Pd  Pd14  1  0.38441733  0.38441733  0.84675102  1
  Pd  Pd15  1  0.38441733  0.84675102  0.38441733  1
  Pd  Pd16  1  0.61558267  0.61558267  0.15324898  1
  Pd  Pd17  1  0.61558267  0.15324898  0.61558267  1
  Pd  Pd18  1  0.84675102  0.38441733  0.38441733  1
  Pd  Pd19  1  0.15324898  0.61558267  0.61558267  1
loop_
_geom_bond_atom_site_label_1
_geom_bond_atom_site_label_2
_geom_bond_distance
_geom_bond_site_symmetry_2
Ca0 Pd15 2.834532 1_545
Ca0 Pd18 2.834532 1_455
Ca0 Pd14 2.834532 1_554
Ca0 Pd12 2.834553 1_555
Ca1 Pd17 2.834532 1_565
Ca1 Pd19 2.834532 1_655
Ca1 Pd16 2.834532 1_556
Ca1 Pd13 2.834553 1_555
Mn0 Pd4 2.944138 1_554
Mn0 Pd6 2.944138 1_445
Mn0 Pd0 2.944138 1_554
Mn0 Pd1 2.944138 1_445
Mn0 Pd10 2.944138 1_454
Mn0 Pd11 2.944138 1_545
Mn0 Pd3 2.944138 1_445
Mn0 Pd2 2.944138 1_554
Mn0 Pd7 2.944138 1_554
Mn0 Pd5 2.944138 1_445
Mn0 Pd8 2.944138 1_555
Mn0 Pd9 2.944138 1_444
Pd0 Si2 2.393385 1_546
Pd0 Si4 2.393385 1_555
Pd1 Si3 2.393385 1_564
Pd1 Si5 2.393385 1_555
Pd2 Si3 2.393384 1_455
Pd2 Si4 2.393385 1_555
Pd3 Si2 2.393384 1_655
Pd3 Si5 2.393385 1_555
Pd4 Si0 2.393385 1_456
Pd4 Si4 2.393385 1_555
Pd5 Si0 2.393384 1_565
Pd5 Si5 2.393384 1_555
Pd6 Si1 2.393385 1_654
Pd6 Si5 2.393385 1_555
Pd7 Si1 2.393384 1_545
Pd7 Si4 2.393384 1_555
Pd8 Si0 2.393385 1_455
Pd8 Si2 2.393385 1_545
Pd9 Si1 2.393385 1_655
Pd9 Si3 2.393385 1_565
Pd10 Si3 2.393385 1_555
Pd10 Si0 2.393385 1_556
Pd11 Si2 2.393385 1_555
Pd11 Si1 2.393385 1_554
Pd12 Si2 2.443409 1_555
Pd12 Si0 2.443409 1_555
Pd12 Si4 2.443409 1_555
Pd13 Si3 2.443409 1_555
Pd13 Si1 2.443409 1_555
Pd13 Si5 2.443409 1_555
Pd14 Si1 2.443409 1_555
Pd14 Si3 2.443409 1_555
Pd14 Si4 2.443430 1_555
Pd15 Si5 2.443409 1_555
Pd15 Si1 2.443409 1_555
Pd15 Si2 2.443430 1_555
Pd16 Si0 2.443409 1_555
Pd16 Si2 2.443409 1_555
Pd16 Si5 2.443430 1_555
Pd17 Si4 2.443409 1_555
Pd17 Si0 2.443409 1_555
Pd17 Si3 2.443430 1_555
Pd18 Si5 2.443409 1_555
Pd18 Si3 2.443409 1_555
Pd18 Si0 2.443430 1_555
Pd19 Si4 2.443409 1_555
Pd19 Si2 2.443409 1_555
Pd19 Si1 2.443430 1_555
