# generated using pymatgen
data_Ba10TaTcN10
_symmetry_space_group_name_H-M   'P 1'
_cell_length_a   8.15703282
_cell_length_b   8.15703260
_cell_length_c   9.55915054
_cell_angle_alpha   76.30733203
_cell_angle_beta   76.30733071
_cell_angle_gamma   97.02864336
_symmetry_Int_Tables_number   1
_chemical_formula_structural   Ba10TaTcN10
_chemical_formula_sum   'Ba10 Ta1 Tc1 N10'
_cell_volume   589.57986224
_cell_formula_units_Z   1
loop_
 _symmetry_equiv_pos_site_id
 _symmetry_equiv_pos_as_xyz
  1  'x, y, z'
loop_
 _atom_site_type_symbol
 _atom_site_label
 _atom_site_symmetry_multiplicity
 _atom_site_fract_x
 _atom_site_fract_y
 _atom_site_fract_z
 _atom_site_occupancy
  Ba  Ba0  1  0.39129541  0.39129422  0.38199137  1
  Ba  Ba1  1  0.60870578  0.60870459  0.61800863  1
  Ba  Ba2  1  0.66776041  0.66650653  0.00702125  1
  Ba  Ba3  1  0.33349347  0.33223959  0.99297875  1
  Ba  Ba4  1  0.92267507  0.91877272  0.20411024  1
  Ba  Ba5  1  0.08122728  0.07732493  0.79588976  1
  Ba  Ba6  1  0.55914865  0.09599712  0.75202210  1
  Ba  Ba7  1  0.90400288  0.44085135  0.24797790  1
  Ba  Ba8  1  0.43473491  0.89819152  0.24964155  1
  Ba  Ba9  1  0.10180848  0.56526509  0.75035845  1
  Ta  Ta0  1  0.24328497  0.75671503  0.00000000  1
  Tc  Tc0  1  0.75734922  0.24265078  1.00000000  1
  N  N0  1  0.65359212  0.65468235  0.30917651  1
  N  N1  1  0.34531765  0.34640788  0.69082349  1
  N  N2  1  0.71465535  0.02294637  0.99052931  1
  N  N3  1  0.97705363  0.28534465  0.00947069  1
  N  N4  1  0.28447771  0.99231313  0.01280627  1
  N  N5  1  0.00768687  0.71552229  0.98719373  1
  N  N6  1  0.40294758  0.73413735  0.82076422  1
  N  N7  1  0.26586265  0.59705242  0.17923478  1
  N  N8  1  0.61150737  0.26858746  0.16451274  1
  N  N9  1  0.73141254  0.38849263  0.83548626  1
loop_
_geom_bond_atom_site_label_1
_geom_bond_atom_site_label_2
_geom_bond_distance
_geom_bond_site_symmetry_2
Ba0 N0 2.672099 1_555
Ba0 N7 2.727525 1_555
Ba0 N1 2.814343 1_555
Ba0 N8 2.864880 1_555
Ba1 N1 2.672099 1_555
Ba1 N6 2.727518 1_555
Ba1 N0 2.814343 1_555
Ba1 N9 2.864874 1_555
Ba2 N5 2.707057 1_654
Ba2 N0 2.841225 1_555
Ba2 N2 2.847270 1_564
Ba2 N9 3.121957 1_554
Ba2 N6 3.128538 1_554
Ba2 N8 3.163468 1_555
Ba2 N7 3.213587 1_555
Ba3 N4 2.707057 1_546
Ba3 N1 2.841225 1_555
Ba3 N3 2.847270 1_456
Ba3 N8 3.121951 1_556
Ba3 N7 3.128531 1_556
Ba3 N9 3.163470 1_555
Ba3 N6 3.213589 1_555
Ba4 N0 2.691065 1_555
Ba4 N5 2.959270 1_654
Ba4 N4 2.984314 1_655
Ba4 N2 2.990194 1_564
Ba4 N3 3.041428 1_565
Ba5 N1 2.691065 1_555
Ba5 N4 2.959270 1_546
Ba5 N5 2.984314 1_545
Ba5 N3 2.990194 1_456
Ba5 N2 3.041428 1_455
Ba6 N4 2.800614 1_546
Ba6 N2 2.841325 1_555
Ba6 N1 2.888960 1_555
Ba6 N6 2.921083 1_545
Ba6 N9 2.985804 1_555
Ba7 N5 2.800614 1_654
Ba7 N3 2.841325 1_555
Ba7 N0 2.888960 1_555
Ba7 N7 2.921082 1_655
Ba7 N8 2.985810 1_555
Ba8 N4 2.817479 1_555
Ba8 N2 2.818630 1_564
Ba8 N0 2.875758 1_555
Ba8 N7 2.962748 1_555
Ba8 N8 3.013992 1_565
Ba9 N5 2.817479 1_555
Ba9 N3 2.818630 1_456
Ba9 N1 2.875758 1_555
Ba9 N6 2.962743 1_555
Ba9 N9 3.013992 1_455
N2 Tc0 1.811139 1_555
N3 Tc0 1.811139 1_554
N4 Ta0 1.947807 1_555
N5 Ta0 1.947807 1_556
N6 Ta0 1.953793 1_556
N7 Ta0 1.953786 1_555
N8 Tc0 1.807341 1_554
N9 Tc0 1.807348 1_555
