# generated using pymatgen
data_Co2Ni6RhS8
_symmetry_space_group_name_H-M   'P 1'
_cell_length_a   7.03275387
_cell_length_b   7.03275350
_cell_length_c   7.03275398
_cell_angle_alpha   90.04329046
_cell_angle_beta   59.90066080
_cell_angle_gamma   119.95071946
_symmetry_Int_Tables_number   1
_chemical_formula_structural   Co2Ni6RhS8
_chemical_formula_sum   'Co2 Ni6 Rh1 S8'
_cell_volume   245.86450225
_cell_formula_units_Z   1
loop_
 _symmetry_equiv_pos_site_id
 _symmetry_equiv_pos_as_xyz
  1  'x, y, z'
loop_
 _atom_site_type_symbol
 _atom_site_label
 _atom_site_symmetry_multiplicity
 _atom_site_fract_x
 _atom_site_fract_y
 _atom_site_fract_z
 _atom_site_occupancy
  Co  Co0  1  0.24919453  0.12516441  0.62563906  1
  Co  Co1  1  0.75080547  0.12516441  0.12403013  1
  Ni  Ni0  1  0.74372768  0.61596104  0.12776663  1
  Ni  Ni1  1  0.25627232  0.12850669  0.12776663  1
  Ni  Ni2  1  0.74614190  0.87385012  0.38000697  1
  Ni  Ni3  1  0.25385810  0.87385012  0.87229078  1
  Ni  Ni4  1  0.25220212  0.37886751  0.87333661  1
  Ni  Ni5  1  0.74779788  0.87446127  0.87333661  1
  Rh  Rh0  1  1.00000000  0.50238099  0.49761901  1
  S  S0  1  0.51272506  0.25616409  0.73899318  1
  S  S1  1  0.00484173  0.74828076  0.73899318  1
  S  S2  1  1.00000000  0.25652591  0.74347409  1
  S  S3  1  0.48727494  0.74828076  0.25656197  1
  S  S4  1  0.99515827  0.25616409  0.25656197  1
  S  S5  1  0.00000000  0.74357179  0.25642821  1
  S  S6  1  0.50000000  0.24333885  0.25666115  1
  S  S7  1  0.50000000  0.74946517  0.75053483  1
loop_
_geom_bond_atom_site_label_1
_geom_bond_atom_site_label_2
_geom_bond_distance
_geom_bond_site_symmetry_2
Co0 S6 2.117608 1_555
Co0 S1 2.166800 1_545
Co0 S0 2.166807 1_555
Co0 S2 2.184112 1_455
Co1 S6 2.117619 1_555
Co1 S3 2.166801 1_545
Co1 S4 2.166807 1_555
Co1 S2 2.184112 1_554
Ni0 S6 2.141752 1_555
Ni0 S5 2.211754 1_655
Ni0 S3 2.230538 1_555
Ni0 S1 2.230543 1_654
Ni1 S6 2.141753 1_555
Ni1 S5 2.211759 1_545
Ni1 S4 2.230532 1_455
Ni1 S0 2.230543 1_554
Ni2 S7 2.125836 1_555
Ni2 S3 2.196984 1_555
Ni2 S4 2.196995 1_565
Ni2 S5 2.204082 1_655
Ni3 S7 2.125831 1_555
Ni3 S0 2.196995 1_565
Ni3 S1 2.196995 1_555
Ni3 S5 2.204087 1_556
Ni4 S7 2.129399 1_555
Ni4 S2 2.195467 1_455
Ni4 S4 2.198969 1_456
Ni4 S0 2.198975 1_555
Ni5 S7 2.129411 1_555
Ni5 S2 2.195466 1_565
Ni5 S1 2.198963 1_655
Ni5 S3 2.198969 1_556
Rh0 S5 2.399745 1_655
Rh0 S1 2.422427 1_655
Rh0 S4 2.422427 1_555
Rh0 S0 2.422432 1_555
Rh0 S3 2.422432 1_655
Rh0 S2 2.446153 1_555
