# generated using pymatgen
data_Sr8Mn2CoN8
_symmetry_space_group_name_H-M   'P 1'
_cell_length_a   9.69480395
_cell_length_b   9.69480404
_cell_length_c   7.48466634
_cell_angle_alpha   75.12413135
_cell_angle_beta   75.12413252
_cell_angle_gamma   31.82633391
_symmetry_Int_Tables_number   1
_chemical_formula_structural   Sr8Mn2CoN8
_chemical_formula_sum   'Sr8 Mn2 Co1 N8'
_cell_volume   357.51334707
_cell_formula_units_Z   1
loop_
 _symmetry_equiv_pos_site_id
 _symmetry_equiv_pos_as_xyz
  1  'x, y, z'
loop_
 _atom_site_type_symbol
 _atom_site_label
 _atom_site_symmetry_multiplicity
 _atom_site_fract_x
 _atom_site_fract_y
 _atom_site_fract_z
 _atom_site_occupancy
  Sr  Sr0  1  0.40312499  0.40312499  0.96448392  1
  Sr  Sr1  1  0.33514354  0.33514354  0.46989607  1
  Sr  Sr2  1  0.97338153  0.97338153  0.25937155  1
  Sr  Sr3  1  0.20078225  0.20078225  0.19229314  1
  Sr  Sr4  1  0.79921775  0.79921775  0.80770686  1
  Sr  Sr5  1  0.02661847  0.02661847  0.74062845  1
  Sr  Sr6  1  0.66485646  0.66485646  0.53010393  1
  Sr  Sr7  1  0.59687501  0.59687501  0.03551608  1
  Mn  Mn0  1  0.81266497  0.81266497  0.20816337  1
  Mn  Mn1  1  0.18733503  0.18733503  0.79183663  1
  Co  Co0  1  0.50000000  0.50000000  0.50000000  1
  N  N0  1  0.27568276  0.27568276  0.83001565  1
  N  N1  1  0.82345991  0.82345991  0.42766183  1
  N  N2  1  0.10767371  0.10767371  0.98598905  1
  N  N3  1  0.89232629  0.89232629  0.01401095  1
  N  N4  1  0.17654009  0.17654009  0.57233817  1
  N  N5  1  0.47583156  0.47583156  0.28470923  1
  N  N6  1  0.72431724  0.72431724  0.16998435  1
  N  N7  1  0.52416844  0.52416844  0.71529077  1
loop_
_geom_bond_atom_site_label_1
_geom_bond_atom_site_label_2
_geom_bond_distance
_geom_bond_site_symmetry_2
Mn0 N1 1.707662 1_555
Mn0 N6 1.745527 1_555
Mn0 N3 1.779230 1_555
Mn1 N4 1.707662 1_555
Mn1 N0 1.745527 1_555
Mn1 N2 1.779230 1_555
Co0 N5 1.785316 1_555
Co0 N7 1.785316 1_555
N0 Sr1 2.626551 1_555
N0 Sr4 2.692019 1_545
N0 Sr4 2.692019 1_455
N0 Sr3 2.698339 1_556
N0 Sr0 2.817264 1_555
N1 Sr1 2.692541 1_655
N1 Sr1 2.692541 1_565
N1 Sr2 2.742537 1_555
N1 Sr4 2.758453 1_555
N1 Sr6 2.850172 1_555
N2 Sr3 2.613399 1_556
N2 Sr5 2.671850 1_555
N2 Sr7 2.683976 1_546
N2 Sr7 2.683976 1_456
N2 Sr2 2.778783 1_446
N3 Sr4 2.613399 1_554
N3 Sr2 2.671850 1_555
N3 Sr0 2.683976 1_564
N3 Sr0 2.683976 1_654
N3 Sr5 2.778783 1_664
N4 Sr6 2.692541 1_455
N4 Sr6 2.692541 1_545
N4 Sr5 2.742537 1_555
N4 Sr3 2.758453 1_555
N4 Sr1 2.850172 1_555
N5 Sr7 2.515026 1_555
N5 Sr1 2.619495 1_555
N5 Sr2 2.666139 1_455
N5 Sr2 2.666139 1_545
N5 Sr0 3.052447 1_554
N6 Sr6 2.626551 1_555
N6 Sr3 2.692019 1_565
N6 Sr3 2.692019 1_655
N6 Sr4 2.698339 1_554
N6 Sr7 2.817264 1_555
N7 Sr0 2.515026 1_555
N7 Sr6 2.619495 1_555
N7 Sr5 2.666139 1_655
N7 Sr5 2.666139 1_565
N7 Sr7 3.052447 1_556
