# generated using pymatgen
data_Rb3GeIrCl8
_symmetry_space_group_name_H-M   'P 1'
_cell_length_a   7.95881374
_cell_length_b   9.80913290
_cell_length_c   9.69813131
_cell_angle_alpha   90.00000000
_cell_angle_beta   90.00000000
_cell_angle_gamma   90.00000000
_symmetry_Int_Tables_number   1
_chemical_formula_structural   Rb3GeIrCl8
_chemical_formula_sum   'Rb6 Ge2 Ir2 Cl16'
_cell_volume   757.12401147
_cell_formula_units_Z   2
loop_
 _symmetry_equiv_pos_site_id
 _symmetry_equiv_pos_as_xyz
  1  'x, y, z'
loop_
 _atom_site_type_symbol
 _atom_site_label
 _atom_site_symmetry_multiplicity
 _atom_site_fract_x
 _atom_site_fract_y
 _atom_site_fract_z
 _atom_site_occupancy
  Rb  Rb0  1  0.93538950  0.24279188  0.36655738  1
  Rb  Rb1  1  0.43538950  0.25720812  0.63344262  1
  Rb  Rb2  1  0.93538950  0.75720812  0.36655738  1
  Rb  Rb3  1  0.98861414  0.00000000  0.86290071  1
  Rb  Rb4  1  0.48861414  0.50000000  0.13709929  1
  Rb  Rb5  1  0.43538950  0.74279188  0.63344262  1
  Ge  Ge0  1  0.51998151  0.00000000  0.10526530  1
  Ge  Ge1  1  0.01998151  0.50000000  0.89473470  1
  Ir  Ir0  1  0.85574616  0.50000000  0.69553041  1
  Ir  Ir1  1  0.35574616  0.00000000  0.30446959  1
  Cl  Cl0  1  0.60030048  0.50000000  0.81892275  1
  Cl  Cl1  1  0.19541748  0.67241792  0.92672411  1
  Cl  Cl2  1  0.69541748  0.17241792  0.07327589  1
  Cl  Cl3  1  0.18973280  0.00000000  0.52229875  1
  Cl  Cl4  1  0.68973280  0.50000000  0.47770125  1
  Cl  Cl5  1  0.84834629  0.74157576  0.69135617  1
  Cl  Cl6  1  0.10030048  0.00000000  0.18107725  1
  Cl  Cl7  1  0.10918823  0.50000000  0.56350412  1
  Cl  Cl8  1  0.69541748  0.82758208  0.07327589  1
  Cl  Cl9  1  0.40933016  0.00000000  0.89269135  1
  Cl  Cl10  1  0.19541748  0.32758208  0.92672411  1
  Cl  Cl11  1  0.60918823  0.00000000  0.43649588  1
  Cl  Cl12  1  0.90933016  0.50000000  0.10730865  1
  Cl  Cl13  1  0.84834629  0.25842424  0.69135617  1
  Cl  Cl14  1  0.34834629  0.75842424  0.30864383  1
  Cl  Cl15  1  0.34834629  0.24157576  0.30864383  1
loop_
_geom_bond_atom_site_label_1
_geom_bond_atom_site_label_2
_geom_bond_distance
_geom_bond_site_symmetry_2
Ge0 Ir1 2.332559 1_555
Ge1 Ir0 2.332559 1_455
Cl0 Ir0 2.359089 1_555
Cl0 Rb4 3.211196 1_556
Cl0 Rb5 3.260411 1_555
Cl0 Rb1 3.260411 1_555
Cl1 Ge1 2.214992 1_555
Cl1 Rb5 3.494876 1_555
Cl1 Rb4 3.531035 1_556
Cl1 Rb3 3.662978 1_465
Cl2 Ge0 2.214992 1_555
Cl2 Rb0 3.494876 1_555
Cl2 Rb3 3.531035 1_554
Cl2 Rb4 3.662978 1_555
Cl3 Ir1 2.491698 1_555
Cl3 Rb1 3.368957 1_555
Cl3 Rb5 3.368957 1_545
Cl3 Rb0 3.471440 1_455
Cl3 Rb2 3.471440 1_445
Cl3 Rb3 3.670596 1_455
Cl4 Ir0 2.491698 1_555
Cl4 Rb2 3.368957 1_555
Cl4 Rb0 3.368957 1_555
Cl4 Rb5 3.471440 1_555
Cl4 Rb1 3.471440 1_555
Cl4 Rb4 3.670596 1_555
Cl5 Ir0 2.370726 1_555
Cl5 Rb2 3.228864 1_555
Cl5 Rb3 3.231076 1_565
Cl5 Rb5 3.334312 1_555
Cl6 Ir1 2.359089 1_555
Cl6 Rb3 3.211196 1_454
Cl6 Rb0 3.260411 1_455
Cl6 Rb2 3.260411 1_445
Cl7 Ir0 2.389169 1_455
Cl7 Rb2 3.453543 1_455
Cl7 Rb0 3.453543 1_455
Cl7 Rb5 3.587770 1_555
Cl7 Rb1 3.587770 1_555
Cl8 Ge0 2.214992 1_565
Cl8 Rb2 3.494876 1_555
Cl8 Rb3 3.531035 1_564
Cl8 Rb4 3.662978 1_555
Cl9 Ge0 2.241790 1_556
Cl9 Rb3 3.360842 1_455
Cl9 Rb1 3.567889 1_555
Cl9 Rb5 3.567889 1_545
Cl10 Ge1 2.214992 1_555
Cl10 Rb1 3.494876 1_555
Cl10 Rb4 3.531035 1_556
Cl10 Rb3 3.662978 1_455
Cl11 Ir1 2.389169 1_555
Cl11 Rb1 3.453543 1_555
Cl11 Rb5 3.453543 1_545
Cl11 Rb0 3.587770 1_555
Cl11 Rb2 3.587770 1_545
Cl12 Ge1 2.241790 1_654
Cl12 Rb4 3.360842 1_555
Cl12 Rb2 3.567889 1_555
Cl12 Rb0 3.567889 1_555
Cl13 Ir0 2.370726 1_555
Cl13 Rb0 3.228864 1_555
Cl13 Rb3 3.231076 1_555
Cl13 Rb1 3.334312 1_555
Cl14 Ir1 2.370726 1_565
Cl14 Rb5 3.228864 1_555
Cl14 Rb4 3.231076 1_555
Cl14 Rb2 3.334312 1_455
Cl15 Ir1 2.370726 1_555
Cl15 Rb1 3.228864 1_555
Cl15 Rb4 3.231076 1_555
Cl15 Rb0 3.334312 1_455
