# generated using pymatgen
data_Ni2PPt
_symmetry_space_group_name_H-M   'P 1'
_cell_length_a   4.47682393
_cell_length_b   4.47682315
_cell_length_c   6.61619874
_cell_angle_alpha   90.00000000
_cell_angle_beta   90.00000000
_cell_angle_gamma   134.17314102
_symmetry_Int_Tables_number   1
_chemical_formula_structural   Ni2PPt
_chemical_formula_sum   'Ni4 P2 Pt2'
_cell_volume   95.10676052
_cell_formula_units_Z   2
loop_
 _symmetry_equiv_pos_site_id
 _symmetry_equiv_pos_as_xyz
  1  'x, y, z'
loop_
 _atom_site_type_symbol
 _atom_site_label
 _atom_site_symmetry_multiplicity
 _atom_site_fract_x
 _atom_site_fract_y
 _atom_site_fract_z
 _atom_site_occupancy
  Ni  Ni0  1  0.85279356  0.14720644  0.05511750  1
  Ni  Ni1  1  0.14720644  0.85279356  0.94488250  1
  Ni  Ni2  1  0.14720644  0.85279356  0.55511750  1
  Ni  Ni3  1  0.85279356  0.14720644  0.44488250  1
  P  P0  1  0.26476716  0.73523284  0.25000000  1
  P  P1  1  0.73523284  0.26476716  0.75000000  1
  Pt  Pt0  1  0.55320364  0.44679636  0.25000000  1
  Pt  Pt1  1  0.44679636  0.55320364  0.75000000  1
loop_
_geom_bond_atom_site_label_1
_geom_bond_atom_site_label_2
_geom_bond_distance
_geom_bond_site_symmetry_2
Ni0 P1 2.239471 1_554
Ni0 P0 2.286395 1_655
Ni0 P0 2.286395 1_545
Ni0 Pt0 2.726236 1_545
Ni0 Pt0 2.726236 1_655
Ni0 Pt1 2.777465 1_544
Ni0 Pt1 2.777465 1_654
Ni0 Pt0 2.786966 1_555
Ni1 P0 2.239471 1_556
Ni1 P1 2.286395 1_455
Ni1 P1 2.286395 1_565
Ni1 Pt1 2.726236 1_565
Ni1 Pt1 2.726236 1_455
Ni1 Pt0 2.777465 1_566
Ni1 Pt0 2.777465 1_456
Ni1 Pt1 2.786966 1_555
Ni2 P0 2.239471 1_555
Ni2 P1 2.286395 1_455
Ni2 P1 2.286395 1_565
Ni2 Pt1 2.726236 1_565
Ni2 Pt1 2.726236 1_455
Ni2 Pt0 2.777465 1_565
Ni2 Pt0 2.777465 1_455
Ni2 Pt1 2.786966 1_555
Ni3 P1 2.239471 1_555
Ni3 P0 2.286395 1_655
Ni3 P0 2.286395 1_545
Ni3 Pt0 2.726236 1_545
Ni3 Pt0 2.726236 1_655
Ni3 Pt1 2.777465 1_545
Ni3 Pt1 2.777465 1_655
Ni3 Pt0 2.786966 1_555
P0 Pt0 2.378780 1_555
P0 Pt0 2.466249 1_565
P0 Pt0 2.466249 1_455
P1 Pt1 2.378780 1_555
P1 Pt1 2.466249 1_545
P1 Pt1 2.466249 1_655
