# generated using pymatgen
data_Sr3TcCl2O5
_symmetry_space_group_name_H-M   'P 1'
_cell_length_a   7.13054501
_cell_length_b   7.13054477
_cell_length_c   11.07588193
_cell_angle_alpha   90.00000000
_cell_angle_beta   90.00000000
_cell_angle_gamma   133.74727400
_symmetry_Int_Tables_number   1
_chemical_formula_structural   Sr3TcCl2O5
_chemical_formula_sum   'Sr6 Tc2 Cl4 O10'
_cell_volume   406.81747937
_cell_formula_units_Z   2
loop_
 _symmetry_equiv_pos_site_id
 _symmetry_equiv_pos_as_xyz
  1  'x, y, z'
loop_
 _atom_site_type_symbol
 _atom_site_label
 _atom_site_symmetry_multiplicity
 _atom_site_fract_x
 _atom_site_fract_y
 _atom_site_fract_z
 _atom_site_occupancy
  Sr  Sr0  1  0.90141133  0.09858867  0.75000000  1
  Sr  Sr1  1  0.65655818  0.34344182  0.54126030  1
  Sr  Sr2  1  0.34344182  0.65655818  0.45873970  1
  Sr  Sr3  1  0.65655818  0.34344182  0.95873970  1
  Sr  Sr4  1  0.34344182  0.65655818  0.04126030  1
  Sr  Sr5  1  0.09858867  0.90141133  0.25000000  1
  Tc  Tc0  1  0.76165620  0.23834380  0.25000000  1
  Tc  Tc1  1  0.23834380  0.76165620  0.75000000  1
  Cl  Cl0  1  0.49665379  0.50334621  0.25000000  1
  Cl  Cl1  1  0.50334621  0.49665379  0.75000000  1
  Cl  Cl2  1  0.00000000  0.00000000  0.50000000  1
  Cl  Cl3  1  0.00000000  0.00000000  0.00000000  1
  O  O0  1  0.11017876  0.88982124  0.75000000  1
  O  O1  1  0.05317753  0.49034693  0.63430332  1
  O  O2  1  0.49034693  0.05317753  0.36569668  1
  O  O3  1  0.50965307  0.94682247  0.63430332  1
  O  O4  1  0.94682247  0.50965307  0.36569668  1
  O  O5  1  0.88982124  0.11017876  0.25000000  1
  O  O6  1  0.05317753  0.49034693  0.86569668  1
  O  O7  1  0.50965307  0.94682247  0.86569668  1
  O  O8  1  0.94682247  0.50965307  0.13430332  1
  O  O9  1  0.49034693  0.05317753  0.13430332  1
loop_
_geom_bond_atom_site_label_1
_geom_bond_atom_site_label_2
_geom_bond_distance
_geom_bond_site_symmetry_2
Cl0 Sr2 3.063147 1_555
Cl0 Sr4 3.063147 1_555
Cl0 Sr5 3.103319 1_545
Cl0 Sr5 3.103320 1_655
Cl1 Sr3 3.063147 1_555
Cl1 Sr1 3.063147 1_555
Cl1 Sr0 3.103319 1_565
Cl1 Sr0 3.103320 1_455
Cl2 Sr5 3.055985 1_545
Cl2 Sr0 3.055985 1_455
Cl2 Sr2 3.502586 1_555
Cl2 Sr1 3.502586 1_445
Cl2 Sr1 3.502586 1_555
Cl2 Sr2 3.502586 1_445
Cl3 Sr5 3.055985 1_545
Cl3 Sr0 3.055985 1_454
Cl3 Sr4 3.502586 1_555
Cl3 Sr3 3.502586 1_444
Cl3 Sr3 3.502586 1_554
Cl3 Sr4 3.502586 1_445
O0 Tc1 1.680895 1_555
O0 Sr0 2.738002 1_465
O1 Tc1 1.896182 1_555
O1 Sr1 2.461810 1_455
O1 Sr2 2.465205 1_555
O1 Sr0 2.536903 1_455
O2 Tc0 1.896182 1_555
O2 Sr2 2.461810 1_545
O2 Sr1 2.465205 1_555
O2 Sr5 2.536903 1_545
O3 Tc1 1.896182 1_555
O3 Sr1 2.461810 1_565
O3 Sr2 2.465205 1_555
O3 Sr0 2.536903 1_565
O4 Tc0 1.896182 1_555
O4 Sr2 2.461810 1_655
O4 Sr1 2.465205 1_555
O4 Sr5 2.536903 1_655
O5 Tc0 1.680895 1_555
O5 Sr5 2.738002 1_645
O6 Tc1 1.896182 1_555
O6 Sr3 2.461810 1_455
O6 Sr4 2.465205 1_556
O6 Sr0 2.536903 1_455
O7 Tc1 1.896182 1_555
O7 Sr3 2.461810 1_565
O7 Sr4 2.465205 1_556
O7 Sr0 2.536903 1_565
O8 Tc0 1.896182 1_555
O8 Sr4 2.461810 1_655
O8 Sr3 2.465205 1_554
O8 Sr5 2.536903 1_655
O9 Tc0 1.896182 1_555
O9 Sr4 2.461810 1_545
O9 Sr3 2.465205 1_554
O9 Sr5 2.536903 1_545
