# generated using pymatgen
data_Hf(TiH2)2
_symmetry_space_group_name_H-M   'P 1'
_cell_length_a   5.70048066
_cell_length_b   5.70048079
_cell_length_c   5.70048055
_cell_angle_alpha   60.00000141
_cell_angle_beta   60.00000069
_cell_angle_gamma   59.99999786
_symmetry_Int_Tables_number   1
_chemical_formula_structural   Hf(TiH2)2
_chemical_formula_sum   'Hf2 Ti4 H8'
_cell_volume   130.98435721
_cell_formula_units_Z   2
loop_
 _symmetry_equiv_pos_site_id
 _symmetry_equiv_pos_as_xyz
  1  'x, y, z'
loop_
 _atom_site_type_symbol
 _atom_site_label
 _atom_site_symmetry_multiplicity
 _atom_site_fract_x
 _atom_site_fract_y
 _atom_site_fract_z
 _atom_site_occupancy
  Hf  Hf0  1  0.75000000  0.75000000  0.75000000  1
  Hf  Hf1  1  0.50000000  0.50000000  0.50000000  1
  Ti  Ti0  1  0.12500000  0.12500000  0.62500000  1
  Ti  Ti1  1  0.12500000  0.62500000  0.12500000  1
  Ti  Ti2  1  0.62500000  0.12500000  0.12500000  1
  Ti  Ti3  1  0.12500000  0.12500000  0.12500000  1
  H  H0  1  0.35708245  0.35708245  0.92875365  1
  H  H1  1  0.35708245  0.92875365  0.35708245  1
  H  H2  1  0.92875365  0.35708245  0.35708245  1
  H  H3  1  0.35708245  0.35708245  0.35708245  1
  H  H4  1  0.89291755  0.89291755  0.32124635  1
  H  H5  1  0.89291755  0.32124635  0.89291755  1
  H  H6  1  0.32124635  0.89291755  0.89291755  1
  H  H7  1  0.89291755  0.89291755  0.89291755  1
loop_
_geom_bond_atom_site_label_1
_geom_bond_atom_site_label_2
_geom_bond_distance
_geom_bond_site_symmetry_2
H0 Ti2 1.882093 1_556
H0 Ti1 1.882093 1_556
H0 Ti3 1.882098 1_556
H0 Hf1 1.995601 1_555
H1 Ti0 1.882093 1_565
H1 Ti2 1.882093 1_565
H1 Ti3 1.882098 1_565
H1 Hf1 1.995601 1_555
H2 Ti0 1.882093 1_655
H2 Ti1 1.882093 1_655
H2 Ti3 1.882098 1_655
H2 Hf1 1.995601 1_555
H3 Ti2 1.882097 1_555
H3 Ti1 1.882097 1_555
H3 Ti0 1.882097 1_555
H3 Hf1 1.995596 1_555
H4 Ti2 1.882093 1_565
H4 Ti1 1.882093 1_655
H4 Ti3 1.882098 1_665
H4 Hf0 1.995601 1_555
H5 Ti0 1.882093 1_655
H5 Ti2 1.882093 1_556
H5 Ti3 1.882098 1_656
H5 Hf0 1.995601 1_555
H6 Ti0 1.882093 1_565
H6 Ti1 1.882093 1_556
H6 Ti3 1.882098 1_566
H6 Hf0 1.995601 1_555
H7 Ti2 1.882097 1_566
H7 Ti1 1.882097 1_656
H7 Ti0 1.882097 1_665
H7 Hf0 1.995596 1_555
