# generated using pymatgen
data_Zr4Ta3TiP4
_symmetry_space_group_name_H-M   'P 1'
_cell_length_a   3.55095510
_cell_length_b   6.85903424
_cell_length_c   8.29214678
_cell_angle_alpha   90.15487575
_cell_angle_beta   90.00000000
_cell_angle_gamma   90.00000000
_symmetry_Int_Tables_number   1
_chemical_formula_structural   Zr4Ta3TiP4
_chemical_formula_sum   'Zr4 Ta3 Ti1 P4'
_cell_volume   201.96380581
_cell_formula_units_Z   1
loop_
 _symmetry_equiv_pos_site_id
 _symmetry_equiv_pos_as_xyz
  1  'x, y, z'
loop_
 _atom_site_type_symbol
 _atom_site_label
 _atom_site_symmetry_multiplicity
 _atom_site_fract_x
 _atom_site_fract_y
 _atom_site_fract_z
 _atom_site_occupancy
  Zr  Zr0  1  0.25000000  0.03184545  0.67007074  1
  Zr  Zr1  1  0.25000000  0.53248773  0.83234420  1
  Zr  Zr2  1  0.75000000  0.46716141  0.16761032  1
  Zr  Zr3  1  0.75000000  0.96661759  0.33022321  1
  Ta  Ta0  1  0.25000000  0.63933423  0.44007268  1
  Ta  Ta1  1  0.75000000  0.36045579  0.56034830  1
  Ta  Ta2  1  0.25000000  0.13798672  0.05998224  1
  Ti  Ti0  1  0.75000000  0.86370758  0.93972120  1
  P  P0  1  0.25000000  0.26346887  0.35711795  1
  P  P1  1  0.25000000  0.76420677  0.13701152  1
  P  P2  1  0.75000000  0.73683018  0.64563841  1
  P  P3  1  0.75000000  0.23589769  0.85986023  1
loop_
_geom_bond_atom_site_label_1
_geom_bond_atom_site_label_2
_geom_bond_distance
_geom_bond_site_symmetry_2
P0 Ta1 2.535498 1_455
P0 Ta1 2.535498 1_555
P0 Ta2 2.607697 1_555
P0 Ta0 2.666467 1_555
P0 Zr3 2.710232 1_545
P0 Zr3 2.710232 1_445
P0 Zr2 2.754188 1_555
P0 Zr2 2.754188 1_455
P0 Zr0 3.046405 1_555
P1 Ti0 2.510080 1_554
P1 Ti0 2.510080 1_454
P1 Ta2 2.643814 1_565
P1 Ta0 2.657169 1_555
P1 Zr2 2.714898 1_455
P1 Zr2 2.714898 1_555
P1 Zr3 2.763086 1_455
P1 Zr3 2.763086 1_555
P1 Zr1 2.981075 1_554
P2 Ta0 2.549304 1_555
P2 Ta0 2.549304 1_655
P2 Ti0 2.586993 1_555
P2 Ta1 2.674844 1_555
P2 Zr0 2.699219 1_665
P2 Zr0 2.699219 1_565
P2 Zr1 2.743248 1_655
P2 Zr1 2.743248 1_555
P2 Zr3 3.057306 1_555
P3 Ta2 2.522519 1_656
P3 Ta2 2.522519 1_556
P3 Ta1 2.628619 1_555
P3 Ti0 2.639089 1_545
P3 Zr1 2.710231 1_655
P3 Zr1 2.710231 1_555
P3 Zr0 2.752458 1_655
P3 Zr0 2.752458 1_555
P3 Zr2 3.001088 1_556
