# generated using pymatgen
data_Cs2Mn3As4Pt
_symmetry_space_group_name_H-M   'P 1'
_cell_length_a   8.14125077
_cell_length_b   8.14125014
_cell_length_c   5.83492399
_cell_angle_alpha   90.00000000
_cell_angle_beta   90.00000000
_cell_angle_gamma   137.96799623
_symmetry_Int_Tables_number   1
_chemical_formula_structural   Cs2Mn3As4Pt
_chemical_formula_sum   'Cs2 Mn3 As4 Pt1'
_cell_volume   258.93907666
_cell_formula_units_Z   1
loop_
 _symmetry_equiv_pos_site_id
 _symmetry_equiv_pos_as_xyz
  1  'x, y, z'
loop_
 _atom_site_type_symbol
 _atom_site_label
 _atom_site_symmetry_multiplicity
 _atom_site_fract_x
 _atom_site_fract_y
 _atom_site_fract_z
 _atom_site_occupancy
  Cs  Cs0  1  0.50000000  0.00000000  0.24670013  1
  Cs  Cs1  1  0.00000000  0.50000000  0.75329987  1
  Mn  Mn0  1  0.50000000  0.50000000  0.50000000  1
  Mn  Mn1  1  0.50000000  0.50000000  0.00000000  1
  Mn  Mn2  1  0.00000000  0.00000000  0.50000000  1
  As  As0  1  0.65988359  0.84761553  0.75388275  1
  As  As1  1  0.15238447  0.34011641  0.24611725  1
  As  As2  1  0.84761553  0.65988359  0.24611725  1
  As  As3  1  0.34011641  0.15238447  0.75388275  1
  Pt  Pt0  1  0.00000000  0.00000000  0.00000000  1
loop_
_geom_bond_atom_site_label_1
_geom_bond_atom_site_label_2
_geom_bond_distance
_geom_bond_site_symmetry_2
Mn1 Pt0 2.919686 1_555
Mn1 Pt0 2.919686 1_665
Mn2 Pt0 2.917462 1_555
Mn2 Pt0 2.917462 1_556
As0 Pt0 2.483042 1_666
As0 Mn1 2.508655 1_556
As0 Mn2 2.509520 1_665
As0 Mn0 2.534865 1_555
As0 Cs0 3.728416 1_566
As0 Cs1 3.745532 1_665
As0 Cs1 3.779513 1_555
As0 Cs0 3.793437 1_565
As1 Pt0 2.483042 1_555
As1 Mn1 2.508655 1_555
As1 Mn2 2.509520 1_555
As1 Mn0 2.534866 1_555
As1 Cs1 3.728416 1_554
As1 Cs0 3.745532 1_455
As1 Cs0 3.779512 1_565
As1 Cs1 3.793437 1_555
As2 Pt0 2.483042 1_665
As2 Mn1 2.508655 1_555
As2 Mn2 2.509520 1_665
As2 Mn0 2.534866 1_555
As2 Cs1 3.728416 1_654
As2 Cs0 3.745532 1_665
As2 Cs0 3.779512 1_555
As2 Cs1 3.793437 1_655
As3 Pt0 2.483042 1_556
As3 Mn1 2.508655 1_556
As3 Mn2 2.509520 1_555
As3 Mn0 2.534865 1_555
As3 Cs0 3.728416 1_556
As3 Cs1 3.745532 1_545
As3 Cs1 3.779513 1_655
As3 Cs0 3.793437 1_555
