# generated using pymatgen
data_Cs2PdCl4
_symmetry_space_group_name_H-M   'P 1'
_cell_length_a   7.52019762
_cell_length_b   7.52019755
_cell_length_c   9.32622894
_cell_angle_alpha   90.00000000
_cell_angle_beta   90.00000000
_cell_angle_gamma   90.01760129
_symmetry_Int_Tables_number   1
_chemical_formula_structural   Cs2PdCl4
_chemical_formula_sum   'Cs4 Pd2 Cl8'
_cell_volume   527.42966722
_cell_formula_units_Z   2
loop_
 _symmetry_equiv_pos_site_id
 _symmetry_equiv_pos_as_xyz
  1  'x, y, z'
loop_
 _atom_site_type_symbol
 _atom_site_label
 _atom_site_symmetry_multiplicity
 _atom_site_fract_x
 _atom_site_fract_y
 _atom_site_fract_z
 _atom_site_occupancy
  Cs  Cs0  1  0.00559813  0.49667202  0.75000000  1
  Cs  Cs1  1  0.99440187  0.50332898  0.25000000  1
  Cs  Cs2  1  0.49667202  0.00559813  0.75000000  1
  Cs  Cs3  1  0.50332898  0.99440187  0.25000000  1
  Pd  Pd0  1  0.00000000  -0.00000000  0.50000000  1
  Pd  Pd1  1  0.00000000  -0.00000000  0.00000000  1
  Cl  Cl0  1  0.78172953  0.78172953  0.99397033  1
  Cl  Cl1  1  0.21827047  0.21827047  0.49397033  1
  Cl  Cl2  1  0.78172953  0.78172953  0.50602967  1
  Cl  Cl3  1  0.21827047  0.21827047  0.00602967  1
  Cl  Cl4  1  0.21828052  0.78171948  0.50000000  1
  Cl  Cl5  1  0.78171948  0.21828052  0.00000000  1
  Cl  Cl6  1  0.21828052  0.78171948  -0.00000000  1
  Cl  Cl7  1  0.78171948  0.21828052  0.50000000  1
loop_
_geom_bond_atom_site_label_1
_geom_bond_atom_site_label_2
_geom_bond_distance
_geom_bond_site_symmetry_2
Cl0 Pd1 2.321667 1_666
Cl0 Cs0 3.550917 1_655
Cl0 Cs2 3.550917 1_565
Cl0 Cs1 3.555947 1_556
Cl0 Cs3 3.555947 1_556
Cl1 Pd0 2.321667 1_555
Cl1 Cs1 3.550921 1_455
Cl1 Cs3 3.550921 1_545
Cl1 Cs0 3.555952 1_555
Cl1 Cs2 3.555952 1_555
Cl2 Pd0 2.321667 1_665
Cl2 Cs0 3.550917 1_655
Cl2 Cs2 3.550917 1_565
Cl2 Cs1 3.555947 1_555
Cl2 Cs3 3.555947 1_555
Cl3 Pd1 2.321667 1_555
Cl3 Cs1 3.550921 1_455
Cl3 Cs3 3.550921 1_545
Cl3 Cs0 3.555952 1_554
Cl3 Cs2 3.555952 1_554
Cl4 Pd0 2.321806 1_565
Cl4 Cs0 3.547852 1_555
Cl4 Cs3 3.547857 1_555
Cl4 Cs1 3.556895 1_455
Cl4 Cs2 3.556899 1_565
Cl5 Pd1 2.321806 1_655
Cl5 Cs2 3.547852 1_554
Cl5 Cs1 3.547857 1_555
Cl5 Cs3 3.556895 1_545
Cl5 Cs0 3.556899 1_654
Cl6 Pd1 2.321806 1_565
Cl6 Cs0 3.547852 1_554
Cl6 Cs3 3.547857 1_555
Cl6 Cs1 3.556895 1_455
Cl6 Cs2 3.556899 1_564
Cl7 Pd0 2.321806 1_655
Cl7 Cs2 3.547852 1_555
Cl7 Cs1 3.547857 1_555
Cl7 Cs3 3.556895 1_545
Cl7 Cs0 3.556899 1_655
