# generated using pymatgen
data_Mg5Rh2
_symmetry_space_group_name_H-M   'P 1'
_cell_length_a   8.51484029
_cell_length_b   8.51484177
_cell_length_c   8.03847817
_cell_angle_alpha   90.00000000
_cell_angle_beta   90.00000000
_cell_angle_gamma   120.00000607
_symmetry_Int_Tables_number   1
_chemical_formula_structural   Mg5Rh2
_chemical_formula_sum   'Mg20 Rh8'
_cell_volume   504.72815386
_cell_formula_units_Z   4
loop_
 _symmetry_equiv_pos_site_id
 _symmetry_equiv_pos_as_xyz
  1  'x, y, z'
loop_
 _atom_site_type_symbol
 _atom_site_label
 _atom_site_symmetry_multiplicity
 _atom_site_fract_x
 _atom_site_fract_y
 _atom_site_fract_z
 _atom_site_occupancy
  Mg  Mg0  1  0.00000000  0.00000000  0.00000000  1
  Mg  Mg1  1  0.00000000  0.00000000  0.50000000  1
  Mg  Mg2  1  0.45971702  0.91943504  0.25000000  1
  Mg  Mg3  1  0.54028298  0.45971702  0.75000000  1
  Mg  Mg4  1  0.91943504  0.45971702  0.75000000  1
  Mg  Mg5  1  0.08056496  0.54028298  0.25000000  1
  Mg  Mg6  1  0.45971702  0.54028298  0.25000000  1
  Mg  Mg7  1  0.54028298  0.08056496  0.75000000  1
  Mg  Mg8  1  0.19170929  0.38341857  0.93630833  1
  Mg  Mg9  1  0.80829071  0.19170929  0.43630833  1
  Mg  Mg10  1  0.38341857  0.19170929  0.43630833  1
  Mg  Mg11  1  0.61658143  0.80829071  0.93630833  1
  Mg  Mg12  1  0.19170929  0.80829071  0.93630833  1
  Mg  Mg13  1  0.80829071  0.61658143  0.06369167  1
  Mg  Mg14  1  0.80829071  0.19170929  0.06369167  1
  Mg  Mg15  1  0.80829071  0.61658143  0.43630833  1
  Mg  Mg16  1  0.38341857  0.19170929  0.06369167  1
  Mg  Mg17  1  0.61658143  0.80829071  0.56369167  1
  Mg  Mg18  1  0.19170929  0.38341857  0.56369167  1
  Mg  Mg19  1  0.19170929  0.80829071  0.56369167  1
  Rh  Rh0  1  0.33333300  0.66666700  0.75000000  1
  Rh  Rh1  1  0.66666700  0.33333300  0.25000000  1
  Rh  Rh2  1  0.12082046  0.24163893  0.25000000  1
  Rh  Rh3  1  0.87917954  0.12082046  0.75000000  1
  Rh  Rh4  1  0.24163893  0.12082046  0.75000000  1
  Rh  Rh5  1  0.75836107  0.87917954  0.25000000  1
  Rh  Rh6  1  0.12082046  0.87917954  0.25000000  1
  Rh  Rh7  1  0.87917954  0.75836107  0.75000000  1
loop_
_geom_bond_atom_site_label_1
_geom_bond_atom_site_label_2
_geom_bond_distance
_geom_bond_site_symmetry_2
Mg0 Rh5 2.685815 1_445
Mg0 Rh4 2.685815 1_554
Mg0 Rh7 2.685815 1_444
Mg0 Rh2 2.685815 1_555
Mg0 Rh6 2.685825 1_545
Mg0 Rh3 2.685825 1_454
Mg1 Rh5 2.685815 1_445
Mg1 Rh4 2.685815 1_555
Mg1 Rh7 2.685815 1_445
Mg1 Rh2 2.685815 1_555
Mg1 Rh6 2.685825 1_545
Mg1 Rh3 2.685825 1_455
Mg2 Rh6 2.730450 1_555
Mg2 Rh5 2.730475 1_555
Mg2 Rh1 3.052112 1_565
Mg3 Rh7 2.730460 1_555
Mg3 Rh4 2.730460 1_555
Mg3 Rh0 3.052127 1_555
Mg4 Rh3 2.730450 1_555
Mg4 Rh7 2.730475 1_555
Mg4 Rh0 3.052112 1_655
Mg5 Rh6 2.730450 1_555
Mg5 Rh2 2.730475 1_555
Mg5 Rh1 3.052112 1_455
Mg6 Rh2 2.730460 1_555
Mg6 Rh5 2.730460 1_555
Mg6 Rh1 3.052127 1_555
Mg7 Rh3 2.730450 1_555
Mg7 Rh4 2.730475 1_555
Mg7 Rh0 3.052112 1_545
Mg8 Rh0 2.570127 1_555
Mg8 Rh2 2.729751 1_556
Mg8 Rh4 2.893766 1_555
Mg8 Rh3 2.893775 1_455
Mg9 Rh1 2.570121 1_555
Mg9 Rh3 2.729745 1_555
Mg9 Rh2 2.893780 1_655
Mg9 Rh5 2.893781 1_545
Mg10 Rh1 2.570127 1_555
Mg10 Rh4 2.729751 1_555
Mg10 Rh2 2.893766 1_555
Mg10 Rh6 2.893775 1_545
Mg11 Rh0 2.570127 1_555
Mg11 Rh5 2.729751 1_556
Mg11 Rh7 2.893766 1_555
Mg11 Rh3 2.893775 1_565
Mg12 Rh0 2.570121 1_555
Mg12 Rh6 2.729745 1_556
Mg12 Rh7 2.893780 1_455
Mg12 Rh4 2.893781 1_565
Mg13 Rh1 2.570127 1_555
Mg13 Rh7 2.729751 1_554
Mg13 Rh5 2.893766 1_555
Mg13 Rh6 2.893775 1_655
Mg14 Rh1 2.570121 1_555
Mg14 Rh3 2.729745 1_554
Mg14 Rh2 2.893780 1_655
Mg14 Rh5 2.893781 1_545
Mg15 Rh1 2.570127 1_555
Mg15 Rh7 2.729751 1_555
Mg15 Rh5 2.893766 1_555
Mg15 Rh6 2.893775 1_655
Mg16 Rh1 2.570127 1_555
Mg16 Rh4 2.729751 1_554
Mg16 Rh2 2.893766 1_555
Mg16 Rh6 2.893775 1_545
Mg17 Rh0 2.570127 1_555
Mg17 Rh5 2.729751 1_555
Mg17 Rh7 2.893766 1_555
Mg17 Rh3 2.893775 1_565
Mg18 Rh0 2.570127 1_555
Mg18 Rh2 2.729751 1_555
Mg18 Rh4 2.893766 1_555
Mg18 Rh3 2.893775 1_455
Mg19 Rh0 2.570121 1_555
Mg19 Rh6 2.729745 1_555
Mg19 Rh7 2.893780 1_455
Mg19 Rh4 2.893781 1_565
