# generated using pymatgen
data_Zr3Mn8CoP6
_symmetry_space_group_name_H-M   'P 1'
_cell_length_a   3.58624183
_cell_length_b   10.66040826
_cell_length_c   12.45753762
_cell_angle_alpha   90.00000000
_cell_angle_beta   90.00000000
_cell_angle_gamma   90.00000000
_symmetry_Int_Tables_number   1
_chemical_formula_structural   Zr3Mn8CoP6
_chemical_formula_sum   'Zr6 Mn16 Co2 P12'
_cell_volume   476.26165400
_cell_formula_units_Z   2
loop_
 _symmetry_equiv_pos_site_id
 _symmetry_equiv_pos_as_xyz
  1  'x, y, z'
loop_
 _atom_site_type_symbol
 _atom_site_label
 _atom_site_symmetry_multiplicity
 _atom_site_fract_x
 _atom_site_fract_y
 _atom_site_fract_z
 _atom_site_occupancy
  Zr  Zr0  1  0.00000000  0.50000000  0.53630058  1
  Zr  Zr1  1  0.50000000  0.00000000  0.46369942  1
  Zr  Zr2  1  0.50000000  0.82655623  0.20668688  1
  Zr  Zr3  1  0.50000000  0.17344377  0.20668688  1
  Zr  Zr4  1  0.00000000  0.67344377  0.79331312  1
  Zr  Zr5  1  0.00000000  0.32655623  0.79331312  1
  Mn  Mn0  1  0.50000000  0.50000000  0.17223268  1
  Mn  Mn1  1  0.00000000  0.00000000  0.82776732  1
  Mn  Mn2  1  0.00000000  0.50000000  0.99302565  1
  Mn  Mn3  1  0.50000000  0.00000000  0.00697435  1
  Mn  Mn4  1  0.50000000  0.33281256  0.99730361  1
  Mn  Mn5  1  0.50000000  0.66718744  0.99730361  1
  Mn  Mn6  1  0.00000000  0.16718744  0.00269639  1
  Mn  Mn7  1  0.00000000  0.83281256  0.00269639  1
  Mn  Mn8  1  0.50000000  0.29461665  0.43671926  1
  Mn  Mn9  1  0.50000000  0.70538335  0.43671926  1
  Mn  Mn10  1  0.00000000  0.20538335  0.56328074  1
  Mn  Mn11  1  0.00000000  0.79461665  0.56328074  1
  Mn  Mn12  1  0.50000000  0.87625788  0.69409576  1
  Mn  Mn13  1  0.50000000  0.12374212  0.69409576  1
  Mn  Mn14  1  0.00000000  0.62374212  0.30590424  1
  Mn  Mn15  1  0.00000000  0.37625788  0.30590424  1
  Co  Co0  1  0.50000000  0.50000000  0.70700948  1
  Co  Co1  1  0.00000000  0.00000000  0.29299052  1
  P  P0  1  0.50000000  0.50000000  0.87677992  1
  P  P1  1  0.00000000  0.00000000  0.12322008  1
  P  P2  1  0.50000000  0.50000000  0.36928645  1
  P  P3  1  0.00000000  0.00000000  0.63071355  1
  P  P4  1  0.50000000  0.32638219  0.62198842  1
  P  P5  1  0.50000000  0.67361781  0.62198842  1
  P  P6  1  0.00000000  0.17361781  0.37801158  1
  P  P7  1  0.00000000  0.82638219  0.37801158  1
  P  P8  1  0.50000000  0.83947316  0.88036331  1
  P  P9  1  0.50000000  0.16052684  0.88036331  1
  P  P10  1  0.00000000  0.66052684  0.11963669  1
  P  P11  1  0.00000000  0.33947316  0.11963669  1
loop_
_geom_bond_atom_site_label_1
_geom_bond_atom_site_label_2
_geom_bond_distance
_geom_bond_site_symmetry_2
Mn0 P2 2.454805 1_555
Mn0 P11 2.563801 1_555
Mn0 P11 2.563801 1_655
Mn0 P10 2.563801 1_555
Mn0 P10 2.563801 1_655
Mn1 P3 2.454805 1_555
Mn1 P8 2.563801 1_545
Mn1 P8 2.563801 1_445
Mn1 P9 2.563801 1_555
Mn1 P9 2.563801 1_455
Mn2 P0 2.304860 1_555
Mn2 P0 2.304860 1_455
Mn2 P11 2.327282 1_556
Mn2 P10 2.327282 1_556
Mn3 P1 2.304860 1_655
Mn3 P1 2.304860 1_555
Mn3 P8 2.327282 1_544
Mn3 P9 2.327282 1_554
Mn4 P0 2.330415 1_555
Mn4 P9 2.344241 1_555
Mn4 P11 2.354316 1_656
Mn4 P11 2.354316 1_556
Mn5 P0 2.330415 1_555
Mn5 P8 2.344241 1_555
Mn5 P10 2.354316 1_556
Mn5 P10 2.354316 1_656
Mn6 P1 2.330415 1_555
Mn6 P11 2.344241 1_555
Mn6 P9 2.354316 1_554
Mn6 P9 2.354316 1_454
Mn7 P1 2.330415 1_565
Mn7 P10 2.344241 1_555
Mn7 P8 2.354316 1_454
Mn7 P8 2.354316 1_554
Mn8 P6 2.326799 1_655
Mn8 P6 2.326799 1_555
Mn8 P4 2.332708 1_555
Mn8 P2 2.345093 1_555
Mn9 P7 2.326799 1_555
Mn9 P7 2.326799 1_655
Mn9 P5 2.332708 1_555
Mn9 P2 2.345093 1_555
Mn10 P4 2.326799 1_555
Mn10 P4 2.326799 1_455
Mn10 P6 2.332708 1_555
Mn10 P3 2.345093 1_555
Mn11 P5 2.326799 1_455
Mn11 P5 2.326799 1_555
Mn11 P7 2.332708 1_555
Mn11 P3 2.345093 1_565
Mn12 P5 2.339547 1_555
Mn12 P8 2.353337 1_555
Mn12 P3 2.361962 1_565
Mn12 P3 2.361962 1_665
Mn13 P4 2.339547 1_555
Mn13 P9 2.353337 1_555
Mn13 P3 2.361962 1_555
Mn13 P3 2.361962 1_655
Mn14 P7 2.339547 1_555
Mn14 P10 2.353337 1_555
Mn14 P2 2.361962 1_455
Mn14 P2 2.361962 1_555
Mn15 P6 2.339547 1_555
Mn15 P11 2.353337 1_555
Mn15 P2 2.361962 1_455
Mn15 P2 2.361962 1_555
Co0 P0 2.114922 1_555
Co0 P5 2.132464 1_555
Co0 P4 2.132464 1_555
Co0 Zr0 2.781684 1_655
Co0 Zr0 2.781684 1_555
Co0 Zr4 2.791043 1_655
Co0 Zr4 2.791043 1_555
Co0 Zr5 2.791043 1_555
Co0 Zr5 2.791043 1_655
Co1 P1 2.114922 1_555
Co1 P6 2.132464 1_555
Co1 P7 2.132464 1_545
Co1 Zr1 2.781684 1_555
Co1 Zr1 2.781684 1_455
Co1 Zr3 2.791043 1_455
Co1 Zr3 2.791043 1_555
Co1 Zr2 2.791043 1_445
Co1 Zr2 2.791043 1_545
P0 Zr4 2.777621 1_555
P0 Zr4 2.777621 1_655
P0 Zr5 2.777621 1_555
P0 Zr5 2.777621 1_655
P1 Zr3 2.777621 1_455
P1 Zr3 2.777621 1_555
P1 Zr2 2.777621 1_545
P1 Zr2 2.777621 1_445
P2 Zr0 2.746655 1_655
P2 Zr0 2.746655 1_555
P3 Zr1 2.746655 1_555
P3 Zr1 2.746655 1_455
P4 Zr5 2.787553 1_555
P4 Zr5 2.787553 1_655
P4 Zr0 2.789328 1_555
P4 Zr0 2.789328 1_655
P5 Zr4 2.787553 1_655
P5 Zr4 2.787553 1_555
P5 Zr0 2.789328 1_555
P5 Zr0 2.789328 1_655
P6 Zr3 2.787553 1_555
P6 Zr3 2.787553 1_455
P6 Zr1 2.789328 1_555
P6 Zr1 2.789328 1_455
P7 Zr2 2.787553 1_555
P7 Zr2 2.787553 1_455
P7 Zr1 2.789328 1_465
P7 Zr1 2.789328 1_565
P8 Zr4 2.742985 1_555
P8 Zr4 2.742985 1_655
P9 Zr5 2.742985 1_655
P9 Zr5 2.742985 1_555
P10 Zr2 2.742985 1_555
P10 Zr2 2.742985 1_455
P11 Zr3 2.742985 1_455
P11 Zr3 2.742985 1_555
