# generated using pymatgen
data_Ba4Y3F17
_symmetry_space_group_name_H-M   'P 1'
_cell_length_a   9.30934256
_cell_length_b   9.28939294
_cell_length_c   9.37462646
_cell_angle_alpha   72.82400591
_cell_angle_beta   72.84749938
_cell_angle_gamma   72.95756218
_symmetry_Int_Tables_number   1
_chemical_formula_structural   Ba4Y3F17
_chemical_formula_sum   'Ba8 Y6 F34'
_cell_volume   721.00897262
_cell_formula_units_Z   2
loop_
 _symmetry_equiv_pos_site_id
 _symmetry_equiv_pos_as_xyz
  1  'x, y, z'
loop_
 _atom_site_type_symbol
 _atom_site_label
 _atom_site_symmetry_multiplicity
 _atom_site_fract_x
 _atom_site_fract_y
 _atom_site_fract_z
 _atom_site_occupancy
  Ba  Ba0  1  0.10824827  0.68984557  0.95061445  1
  Ba  Ba1  1  0.72934118  0.73595131  0.73149875  1
  Ba  Ba2  1  0.93945327  0.11565977  0.68591719  1
  Ba  Ba3  1  0.31264781  0.05637364  0.88665173  1
  Ba  Ba4  1  0.68425009  0.94319378  0.11803097  1
  Ba  Ba5  1  0.05102534  0.88742478  0.31520916  1
  Ba  Ba6  1  0.26372252  0.27030970  0.26853414  1
  Ba  Ba7  1  0.88624681  0.31300970  0.05671261  1
  Y  Y0  1  0.53151610  0.39072464  0.83766543  1
  Y  Y1  1  0.39041956  0.84152203  0.53197914  1
  Y  Y2  1  0.15929064  0.46994001  0.60926793  1
  Y  Y3  1  0.81821058  0.52509748  0.39254610  1
  Y  Y4  1  0.60972647  0.18558588  0.46440285  1
  Y  Y5  1  0.47252956  0.60574232  0.17007443  1
  F  F0  1  0.00070263  0.99537653  0.00475824  1
  F  F1  1  0.54343219  0.81651758  0.98737398  1
  F  F2  1  0.85723379  0.86266811  0.86172864  1
  F  F3  1  0.63635103  0.51143654  0.95596999  1
  F  F4  1  0.98695380  0.54901084  0.81566428  1
  F  F5  1  0.73358241  0.21702979  0.91910945  1
  F  F6  1  0.81036230  0.98889066  0.54759928  1
  F  F7  1  0.50706979  0.96583233  0.63639917  1
  F  F8  1  0.21590101  0.91630131  0.73524874  1
  F  F9  1  0.45461177  0.65072763  0.73450675  1
  F  F10  1  0.30397508  0.41008278  0.78772624  1
  F  F11  1  0.74217332  0.44874729  0.65560004  1
  F  F12  1  0.95546160  0.63865063  0.51284758  1
  F  F13  1  0.59339488  0.20431510  0.70312561  1
  F  F14  1  0.08167735  0.26571778  0.78245616  1
  F  F15  1  0.64812861  0.74007905  0.45470024  1
  F  F16  1  0.21216625  0.69792241  0.58439938  1
  F  F17  1  0.57041437  0.46106915  0.45201769  1
  F  F18  1  0.83141777  0.27633213  0.40080778  1
  F  F19  1  0.34734968  0.26526097  0.54524713  1
  F  F20  1  0.91003604  0.73122584  0.22672856  1
  F  F21  1  0.41835565  0.79239915  0.30181458  1
  F  F22  1  0.03862249  0.36533908  0.49113464  1
  F  F23  1  0.26465221  0.54421996  0.35136496  1
  F  F24  1  0.71383202  0.59376679  0.18076251  1
  F  F25  1  0.54998387  0.34143030  0.24114438  1
  F  F26  1  0.77847359  0.08467185  0.26773970  1
  F  F27  1  0.48739321  0.04573112  0.36379629  1
  F  F28  1  0.18274731  0.01378449  0.45450867  1
  F  F29  1  0.26653083  0.77874422  0.09100718  1
  F  F30  1  0.01248418  0.45544255  0.18417194  1
  F  F31  1  0.36042496  0.49278608  0.03946652  1
  F  F32  1  0.14079802  0.13925354  0.13848852  1
  F  F33  1  0.45097979  0.18555381  0.01398033  1
loop_
_geom_bond_atom_site_label_1
_geom_bond_atom_site_label_2
_geom_bond_distance
_geom_bond_site_symmetry_2
Ba0 F2 2.625199 1_455
Ba0 F8 2.653252 1_555
Ba0 F29 2.661664 1_556
Ba0 F4 2.696873 1_455
Ba0 F31 2.699971 1_556
Ba0 F30 2.738761 1_556
Ba0 F20 2.758162 1_456
Ba0 F0 2.863715 1_556
Ba0 F10 3.214459 1_555
Ba0 F9 3.244728 1_555
Ba0 F16 3.264862 1_555
Ba1 F2 2.611750 1_555
Ba1 F12 2.623671 1_555
Ba1 F3 2.630414 1_555
Ba1 F6 2.634633 1_555
Ba1 F7 2.647675 1_555
Ba1 F1 2.676141 1_555
Ba1 F4 2.693565 1_555
Ba1 F9 2.880922 1_555
Ba1 F15 2.896181 1_555
Ba1 F11 2.919369 1_555
Ba2 F2 2.616881 1_545
Ba2 F5 2.650573 1_555
Ba2 F14 2.654964 1_655
Ba2 F6 2.676352 1_545
Ba2 F22 2.706568 1_655
Ba2 F8 2.769324 1_645
Ba2 F28 2.790989 1_655
Ba2 F18 2.955092 1_555
Ba2 F0 3.027721 1_646
Ba2 F13 3.049521 1_555
Ba2 F11 3.079806 1_555
Ba3 F32 2.617187 1_556
Ba3 F14 2.650496 1_555
Ba3 F8 2.655278 1_545
Ba3 F33 2.679868 1_556
Ba3 F7 2.693637 1_545
Ba3 F1 2.760427 1_545
Ba3 F29 2.784156 1_546
Ba3 F0 2.945792 1_546
Ba3 F13 3.120278 1_555
Ba3 F10 3.122762 1_555
Ba3 F19 3.194170 1_555
Ba4 F26 2.637725 1_565
Ba4 F20 2.643083 1_555
Ba4 F2 2.645599 1_554
Ba4 F1 2.702985 1_554
Ba4 F27 2.712282 1_565
Ba4 F5 2.745389 1_564
Ba4 F33 2.796889 1_565
Ba4 F0 2.954518 1_655
Ba4 F21 3.024781 1_555
Ba4 F24 3.066284 1_555
Ba4 F15 3.140568 1_555
Ba5 F32 2.637406 1_565
Ba5 F20 2.642993 1_455
Ba5 F29 2.653420 1_555
Ba5 F12 2.696077 1_455
Ba5 F28 2.698215 1_565
Ba5 F26 2.729919 1_465
Ba5 F6 2.783902 1_455
Ba5 F0 2.915541 1_555
Ba5 F16 3.127110 1_555
Ba5 F23 3.205805 1_555
Ba5 F21 3.245226 1_555
Ba6 F32 2.606537 1_555
Ba6 F27 2.633559 1_555
Ba6 F22 2.636216 1_555
Ba6 F30 2.642607 1_555
Ba6 F31 2.649926 1_555
Ba6 F28 2.666527 1_555
Ba6 F33 2.684196 1_555
Ba6 F25 2.851726 1_555
Ba6 F23 2.874217 1_555
Ba6 F19 2.904387 1_555
Ba7 F32 2.628151 1_655
Ba7 F5 2.642385 1_554
Ba7 F26 2.649110 1_555
Ba7 F30 2.689398 1_655
Ba7 F3 2.730526 1_554
Ba7 F14 2.748250 1_654
Ba7 F4 2.796568 1_554
Ba7 F0 2.962858 1_645
Ba7 F24 2.994536 1_555
Ba7 F18 3.043653 1_555
Ba7 F25 3.074275 1_555
F1 Y5 2.304980 1_556
F3 Y0 2.335443 1_555
F3 Y5 2.360470 1_556
F4 Y2 2.274842 1_655
F5 Y0 2.250638 1_555
F6 Y4 2.335089 1_565
F7 Y1 2.345351 1_555
F7 Y4 2.443558 1_565
F8 Y1 2.246661 1_555
F9 Y1 2.272463 1_555
F9 Y0 2.301434 1_555
F10 Y0 2.247322 1_555
F10 Y2 2.294106 1_555
F11 Y0 2.269686 1_555
F11 Y3 2.305879 1_555
F12 Y2 2.303396 1_655
F12 Y3 2.521846 1_555
F13 Y4 2.252891 1_555
F13 Y0 2.279878 1_555
F14 Y2 2.247092 1_555
F15 Y3 2.263702 1_555
F15 Y1 2.285041 1_555
F16 Y2 2.243560 1_555
F16 Y1 2.281219 1_555
F17 Y3 2.415746 1_555
F17 Y4 2.448852 1_555
F17 Y5 2.868340 1_555
F18 Y3 2.257132 1_555
F18 Y4 2.307060 1_555
F19 Y2 2.267897 1_555
F19 Y4 2.295214 1_555
F20 Y3 2.287208 1_555
F21 Y1 2.261093 1_555
F21 Y5 2.273966 1_555
F22 Y2 2.332737 1_555
F22 Y3 2.406331 1_455
F23 Y5 2.257151 1_555
F23 Y2 2.301373 1_555
F24 Y5 2.246837 1_555
F24 Y3 2.306396 1_555
F25 Y4 2.282703 1_555
F25 Y5 2.296031 1_555
F26 Y4 2.279226 1_555
F27 Y1 2.301555 1_545
F27 Y4 2.469574 1_555
F28 Y1 2.270271 1_545
F29 Y5 2.266744 1_555
F30 Y3 2.341413 1_455
F31 Y0 2.326281 1_554
F31 Y5 2.417373 1_555
F33 Y0 2.274357 1_554
