# generated using pymatgen
data_Zr6Al16Ni6Ir
_symmetry_space_group_name_H-M   'P 1'
_cell_length_a   8.52090733
_cell_length_b   8.52090743
_cell_length_c   8.52090800
_cell_angle_alpha   60.00000543
_cell_angle_beta   60.00000504
_cell_angle_gamma   60.00000596
_symmetry_Int_Tables_number   1
_chemical_formula_structural   Zr6Al16Ni6Ir
_chemical_formula_sum   'Zr6 Al16 Ni6 Ir1'
_cell_volume   437.46430412
_cell_formula_units_Z   1
loop_
 _symmetry_equiv_pos_site_id
 _symmetry_equiv_pos_as_xyz
  1  'x, y, z'
loop_
 _atom_site_type_symbol
 _atom_site_label
 _atom_site_symmetry_multiplicity
 _atom_site_fract_x
 _atom_site_fract_y
 _atom_site_fract_z
 _atom_site_occupancy
  Zr  Zr0  1  0.69206953  0.69206953  0.30793047  1
  Zr  Zr1  1  0.30793047  0.69206953  0.30793047  1
  Zr  Zr2  1  0.69206953  0.30793047  0.30793047  1
  Zr  Zr3  1  0.30793047  0.30793047  0.69206953  1
  Zr  Zr4  1  0.69206953  0.30793047  0.69206953  1
  Zr  Zr5  1  0.30793047  0.69206953  0.69206953  1
  Al  Al0  1  0.87930148  0.87930148  0.36209757  1
  Al  Al1  1  0.87930148  0.36209757  0.87930148  1
  Al  Al2  1  0.36209757  0.87930148  0.87930148  1
  Al  Al3  1  0.87930148  0.87930148  0.87930148  1
  Al  Al4  1  0.12069852  0.12069852  0.63790243  1
  Al  Al5  1  0.12069852  0.63790243  0.12069852  1
  Al  Al6  1  0.63790243  0.12069852  0.12069852  1
  Al  Al7  1  0.12069852  0.12069852  0.12069852  1
  Al  Al8  1  0.66667991  0.66667991  0.99995928  1
  Al  Al9  1  0.66667991  0.99995928  0.66667991  1
  Al  Al10  1  0.99995928  0.66667991  0.66667991  1
  Al  Al11  1  0.66667991  0.66667991  0.66667991  1
  Al  Al12  1  0.33332009  0.33332009  0.00004072  1
  Al  Al13  1  0.33332009  0.00004072  0.33332009  1
  Al  Al14  1  0.00004072  0.33332009  0.33332009  1
  Al  Al15  1  0.33332009  0.33332009  0.33332009  1
  Ni  Ni0  1  0.00000000  0.00000000  0.50000000  1
  Ni  Ni1  1  0.50000000  0.00000000  0.50000000  1
  Ni  Ni2  1  0.00000000  0.50000000  0.50000000  1
  Ni  Ni3  1  0.50000000  0.50000000  0.00000000  1
  Ni  Ni4  1  0.00000000  0.50000000  0.00000000  1
  Ni  Ni5  1  0.50000000  0.00000000  0.00000000  1
  Ir  Ir0  1  0.00000000  0.00000000  0.00000000  1
loop_
_geom_bond_atom_site_label_1
_geom_bond_atom_site_label_2
_geom_bond_distance
_geom_bond_site_symmetry_2
Al0 Ir0 2.519219 1_665
Al0 Ni0 2.640254 1_665
Al0 Ni1 2.640268 1_565
Al0 Ni2 2.640268 1_655
Al0 Al9 2.679303 1_555
Al0 Al10 2.679303 1_555
Al0 Al11 2.679316 1_555
Al0 Zr1 3.053101 1_655
Al0 Zr2 3.053101 1_565
Al0 Zr0 3.053115 1_555
Al1 Ir0 2.519219 1_656
Al1 Ni4 2.640254 1_656
Al1 Ni3 2.640268 1_556
Al1 Ni2 2.640268 1_655
Al1 Al10 2.679302 1_555
Al1 Al8 2.679303 1_555
Al1 Al11 2.679316 1_555
Al1 Zr3 3.053101 1_655
Al1 Zr2 3.053101 1_556
Al1 Zr4 3.053115 1_555
Al2 Ir0 2.519219 1_566
Al2 Ni5 2.640254 1_566
Al2 Ni3 2.640268 1_556
Al2 Ni1 2.640268 1_565
Al2 Al9 2.679302 1_555
Al2 Al8 2.679303 1_555
Al2 Zr3 3.053101 1_565
Al2 Zr1 3.053101 1_556
Al2 Zr5 3.053115 1_555
Al3 Ir0 2.519204 1_666
Al3 Ni5 2.640268 1_566
Al3 Ni4 2.640268 1_656
Al3 Ni0 2.640269 1_665
Al3 Al8 2.679323 1_555
Al3 Al9 2.679324 1_555
Al3 Zr5 3.053104 1_655
Al3 Zr4 3.053104 1_565
Al3 Zr0 3.053104 1_556
Al4 Ir0 2.519219 1_556
Al4 Ni0 2.640254 1_555
Al4 Ni1 2.640268 1_555
Al4 Ni2 2.640268 1_555
Al4 Zr4 3.053101 1_455
Al4 Zr5 3.053101 1_545
Al4 Zr3 3.053115 1_555
Al5 Ir0 2.519219 1_565
Al5 Ni4 2.640254 1_555
Al5 Ni3 2.640268 1_555
Al5 Ni2 2.640268 1_555
Al5 Zr0 3.053101 1_455
Al5 Zr5 3.053101 1_554
Al5 Zr1 3.053115 1_555
Al6 Ir0 2.519219 1_655
Al6 Ni5 2.640254 1_555
Al6 Ni3 2.640268 1_555
Al6 Ni1 2.640268 1_555
Al6 Zr0 3.053101 1_545
Al6 Zr4 3.053101 1_554
Al6 Zr2 3.053115 1_555
Al7 Ir0 2.519204 1_555
Al7 Ni5 2.640268 1_555
Al7 Ni4 2.640268 1_555
Al7 Ni0 2.640269 1_555
Al7 Zr2 3.053104 1_455
Al7 Zr1 3.053104 1_545
Al7 Zr3 3.053104 1_554
Al8 Ni3 2.459769 1_556
Al8 Ni4 2.459777 1_656
Al8 Ni5 2.459777 1_566
Al8 Al9 2.839843 1_555
Al8 Zr1 2.856962 1_556
Al8 Zr2 2.856962 1_556
Al8 Zr0 2.856966 1_556
Al9 Ni1 2.459769 1_565
Al9 Ni0 2.459777 1_665
Al9 Ni5 2.459777 1_566
Al9 Zr3 2.856962 1_565
Al9 Zr2 2.856962 1_565
Al9 Zr4 2.856966 1_565
Al10 Ni2 2.459769 1_655
Al10 Ni0 2.459777 1_665
Al10 Ni4 2.459777 1_656
Al10 Al3 2.679324 1_555
Al10 Al11 2.839843 1_555
Al10 Al9 2.839843 1_555
Al10 Al8 2.839843 1_555
Al10 Zr3 2.856962 1_655
Al10 Zr1 2.856962 1_655
Al10 Zr5 2.856966 1_655
Al11 Ni2 2.459774 1_655
Al11 Ni1 2.459774 1_565
Al11 Ni3 2.459774 1_556
Al11 Al2 2.679316 1_555
Al11 Al9 2.839843 1_555
Al11 Al8 2.839843 1_555
Al11 Zr5 2.856958 1_555
Al11 Zr4 2.856958 1_555
Al11 Zr0 2.856958 1_555
Al12 Ni3 2.459769 1_555
Al12 Ni4 2.459777 1_555
Al12 Ni5 2.459777 1_555
Al12 Al6 2.679303 1_555
Al12 Al5 2.679303 1_555
Al12 Al7 2.679323 1_555
Al12 Al15 2.839843 1_555
Al12 Al14 2.839843 1_555
Al12 Al13 2.839843 1_555
Al12 Zr4 2.856962 1_554
Al12 Zr5 2.856962 1_554
Al12 Zr3 2.856966 1_554
Al13 Ni1 2.459769 1_555
Al13 Ni0 2.459777 1_555
Al13 Ni5 2.459777 1_555
Al13 Al6 2.679302 1_555
Al13 Al4 2.679303 1_555
Al13 Al7 2.679324 1_555
Al13 Al15 2.839843 1_555
Al13 Al14 2.839843 1_555
Al13 Zr0 2.856962 1_545
Al13 Zr5 2.856962 1_545
Al13 Zr1 2.856966 1_545
Al14 Ni2 2.459769 1_555
Al14 Ni0 2.459777 1_555
Al14 Ni4 2.459777 1_555
Al14 Al5 2.679302 1_555
Al14 Al4 2.679303 1_555
Al14 Al7 2.679324 1_555
Al14 Al15 2.839843 1_555
Al14 Zr0 2.856962 1_455
Al14 Zr4 2.856962 1_455
Al14 Zr2 2.856966 1_455
Al15 Ni2 2.459774 1_555
Al15 Ni1 2.459774 1_555
Al15 Ni3 2.459774 1_555
Al15 Al4 2.679316 1_555
Al15 Al6 2.679316 1_555
Al15 Al5 2.679316 1_555
Al15 Zr2 2.856958 1_555
Al15 Zr1 2.856958 1_555
Al15 Zr3 2.856958 1_555
Ni0 Zr4 3.092419 1_455
Ni0 Zr1 3.092419 1_545
Ni0 Zr5 3.092419 1_545
Ni0 Zr2 3.092419 1_455
Ni1 Zr2 3.092419 1_555
Ni1 Zr5 3.092419 1_545
Ni1 Zr3 3.092419 1_555
Ni1 Zr0 3.092419 1_545
Ni2 Zr1 3.092419 1_555
Ni2 Zr4 3.092419 1_455
Ni2 Zr3 3.092419 1_555
Ni2 Zr0 3.092419 1_455
Ni3 Zr2 3.092419 1_555
Ni3 Zr5 3.092419 1_554
Ni3 Zr1 3.092419 1_555
Ni3 Zr4 3.092419 1_554
Ni4 Zr5 3.092419 1_554
Ni4 Zr2 3.092419 1_455
Ni4 Zr0 3.092419 1_455
Ni4 Zr3 3.092419 1_554
Ni5 Zr4 3.092419 1_554
Ni5 Zr1 3.092419 1_545
Ni5 Zr0 3.092419 1_545
Ni5 Zr3 3.092419 1_554
