# generated using pymatgen
data_Mg2SeCl2O3
_symmetry_space_group_name_H-M   'P 1'
_cell_length_a   10.30420471
_cell_length_b   7.73322237
_cell_length_c   7.90787756
_cell_angle_alpha   78.26755708
_cell_angle_beta   90.00000000
_cell_angle_gamma   90.00000000
_symmetry_Int_Tables_number   1
_chemical_formula_structural   Mg2SeCl2O3
_chemical_formula_sum   'Mg8 Se4 Cl8 O12'
_cell_volume   616.97197324
_cell_formula_units_Z   4
loop_
 _symmetry_equiv_pos_site_id
 _symmetry_equiv_pos_as_xyz
  1  'x, y, z'
loop_
 _atom_site_type_symbol
 _atom_site_label
 _atom_site_symmetry_multiplicity
 _atom_site_fract_x
 _atom_site_fract_y
 _atom_site_fract_z
 _atom_site_occupancy
  Mg  Mg0  1  0.00944123  0.09796456  0.22206679  1
  Mg  Mg1  1  0.27729795  0.13465089  0.90276346  1
  Mg  Mg2  1  0.50944123  0.40203544  0.77793321  1
  Mg  Mg3  1  0.77729795  0.36534911  0.09723654  1
  Mg  Mg4  1  0.99055877  0.90203544  0.77793321  1
  Mg  Mg5  1  0.72270205  0.86534911  0.09723654  1
  Mg  Mg6  1  0.22270205  0.63465089  0.90276346  1
  Mg  Mg7  1  0.49055877  0.59796456  0.22206679  1
  Se  Se0  1  0.96922022  0.67998629  0.17887848  1
  Se  Se1  1  0.53077978  0.17998629  0.17887848  1
  Se  Se2  1  0.46922022  0.82001371  0.82112152  1
  Se  Se3  1  0.03077978  0.32001371  0.82112152  1
  Cl  Cl0  1  0.27400142  0.52640297  0.21465560  1
  Cl  Cl1  1  0.22599858  0.02640297  0.21465560  1
  Cl  Cl2  1  0.39147123  0.25274730  0.60299211  1
  Cl  Cl3  1  0.89147123  0.24725270  0.39700789  1
  Cl  Cl4  1  0.72599858  0.47359703  0.78534440  1
  Cl  Cl5  1  0.60852877  0.74725270  0.39700789  1
  Cl  Cl6  1  0.77400142  0.97359703  0.78534440  1
  Cl  Cl7  1  0.10852877  0.75274730  0.60299211  1
  O  O0  1  0.04575588  0.71902678  0.98125839  1
  O  O1  1  0.68025360  0.11548144  0.12136840  1
  O  O2  1  0.08593962  0.11095830  0.81599433  1
  O  O3  1  0.95424412  0.28097322  0.01874161  1
  O  O4  1  0.41406038  0.61095830  0.81599433  1
  O  O5  1  0.54575588  0.78097322  0.01874161  1
  O  O6  1  0.45424412  0.21902678  0.98125839  1
  O  O7  1  0.31974640  0.88451856  0.87863160  1
  O  O8  1  0.58593962  0.38904170  0.18400567  1
  O  O9  1  0.18025360  0.38451856  0.87863160  1
  O  O10  1  0.91406038  0.88904170  0.18400567  1
  O  O11  1  0.81974640  0.61548144  0.12136840  1
loop_
_geom_bond_atom_site_label_1
_geom_bond_atom_site_label_2
_geom_bond_distance
_geom_bond_site_symmetry_2
Mg0 O10 1.965861 1_445
Mg0 O3 1.996557 1_455
Mg1 O7 2.029651 1_545
Mg1 O6 2.073682 1_555
Mg1 O2 2.107959 1_555
Mg1 O9 2.149442 1_555
Mg2 O4 1.965861 1_555
Mg2 O6 1.996557 1_555
Mg3 O11 2.029651 1_555
Mg3 O3 2.073682 1_555
Mg3 O8 2.107959 1_555
Mg3 O1 2.149442 1_555
Mg4 O2 1.965861 1_665
Mg4 O0 1.996557 1_655
Mg5 O1 2.029651 1_565
Mg5 O5 2.073682 1_555
Mg5 O10 2.107959 1_555
Mg5 O11 2.149442 1_555
Mg6 O9 2.029651 1_555
Mg6 O0 2.073682 1_555
Mg6 O4 2.107959 1_555
Mg6 O7 2.149442 1_555
Mg7 O8 1.965861 1_555
Mg7 O5 1.996557 1_555
Cl0 Mg7 2.302662 1_555
Cl0 Mg6 2.494726 1_554
Cl1 Mg0 2.302662 1_555
Cl1 Mg1 2.494726 1_554
Cl2 Mg2 2.318151 1_555
Cl2 Mg1 2.637652 1_555
Cl3 Mg0 2.318151 1_655
Cl3 Mg3 2.637652 1_555
Cl4 Mg2 2.302662 1_555
Cl4 Mg3 2.494726 1_556
Cl5 Mg7 2.318151 1_555
Cl5 Mg5 2.637652 1_555
Cl6 Mg4 2.302662 1_555
Cl6 Mg5 2.494726 1_556
Cl7 Mg4 2.318151 1_455
Cl7 Mg6 2.637652 1_555
O0 Se0 1.721461 1_456
O1 Se1 1.708848 1_555
O2 Se3 1.721913 1_555
O3 Se3 1.721461 1_654
O4 Se2 1.721913 1_555
O5 Se2 1.721461 1_554
O6 Se1 1.721461 1_556
O7 Se2 1.708848 1_555
O8 Se1 1.721913 1_555
O9 Se3 1.708848 1_555
O10 Se0 1.721913 1_555
O11 Se0 1.708848 1_555
