# generated using pymatgen
data_NaSb12(RuPt)2
_symmetry_space_group_name_H-M   'P 1'
_cell_length_a   8.14771668
_cell_length_b   8.14595317
_cell_length_c   8.14771687
_cell_angle_alpha   109.51914651
_cell_angle_beta   109.40729806
_cell_angle_gamma   109.49602444
_symmetry_Int_Tables_number   1
_chemical_formula_structural   NaSb12(RuPt)2
_chemical_formula_sum   'Na1 Sb12 Ru2 Pt2'
_cell_volume   416.24047371
_cell_formula_units_Z   1
loop_
 _symmetry_equiv_pos_site_id
 _symmetry_equiv_pos_as_xyz
  1  'x, y, z'
loop_
 _atom_site_type_symbol
 _atom_site_label
 _atom_site_symmetry_multiplicity
 _atom_site_fract_x
 _atom_site_fract_y
 _atom_site_fract_z
 _atom_site_occupancy
  Na  Na0  1  0.00000000  0.00000000  0.00000000  1
  Sb  Sb0  1  0.15662169  0.49098885  0.33436716  1
  Sb  Sb1  1  0.50528887  0.65511098  0.84110479  1
  Sb  Sb2  1  0.33631521  0.84130707  0.18611838  1
  Sb  Sb3  1  0.81400519  0.65511098  0.14982311  1
  Sb  Sb4  1  0.65519068  0.84130707  0.50499286  1
  Sb  Sb5  1  0.18599481  0.34488902  0.85017689  1
  Sb  Sb6  1  0.66368479  0.15869293  0.81388162  1
  Sb  Sb7  1  0.34480932  0.15869293  0.49500714  1
  Sb  Sb8  1  0.49471113  0.34488902  0.15889521  1
  Sb  Sb9  1  0.84337831  0.50901115  0.66563284  1
  Sb  Sb10  1  0.84821245  0.19382830  0.34561386  1
  Sb  Sb11  1  0.15178755  0.80617170  0.65438614  1
  Ru  Ru0  1  0.50000000  0.50000000  0.50000000  1
  Ru  Ru1  1  0.00000000  0.50000000  0.00000000  1
  Pt  Pt0  1  0.50000000  0.00000000  0.00000000  1
  Pt  Pt1  1  0.00000000  0.00000000  0.50000000  1
loop_
_geom_bond_atom_site_label_1
_geom_bond_atom_site_label_2
_geom_bond_distance
_geom_bond_site_symmetry_2
Na0 Sb0 3.471106 1_555
Na0 Sb9 3.471106 1_444
Na0 Sb8 3.515531 1_555
Na0 Sb1 3.515531 1_444
Na0 Sb5 3.515539 1_554
Na0 Sb3 3.515539 1_445
Na0 Sb7 3.520253 1_555
Na0 Sb4 3.520253 1_444
Na0 Sb2 3.520264 1_545
Na0 Sb6 3.520264 1_454
Na0 Sb10 3.549471 1_455
Na0 Sb11 3.549471 1_544
Sb0 Sb10 2.902317 1_455
Sb0 Sb11 3.009036 1_555
Sb1 Sb3 2.906757 1_556
Sb1 Sb5 3.003968 1_555
Sb2 Sb7 2.905132 1_565
Sb2 Sb4 3.002397 1_555
Sb3 Sb8 3.003968 1_555
Sb4 Sb6 2.905132 1_565
Sb5 Sb8 2.906757 1_556
Sb6 Sb7 3.002397 1_555
Sb10 Sb9 3.009036 1_555
Sb11 Sb9 2.902317 1_455
Ru0 Sb1 2.619140 1_555
Ru0 Sb8 2.619140 1_555
Ru0 Sb4 2.621848 1_555
Ru0 Sb7 2.621848 1_555
Ru0 Sb9 2.634690 1_555
Ru0 Sb0 2.634690 1_555
Ru1 Sb3 2.619151 1_455
Ru1 Sb5 2.619151 1_554
Ru1 Sb2 2.621850 1_555
Ru1 Sb6 2.621850 1_454
Ru1 Sb0 2.634690 1_555
Ru1 Sb9 2.634690 1_454
Pt0 Sb10 2.683546 1_555
Pt0 Sb11 2.683546 1_544
Pt0 Sb6 2.693055 1_554
Pt0 Sb2 2.693055 1_545
Pt0 Sb8 2.694120 1_555
Pt0 Sb1 2.694120 1_544
Pt1 Sb11 2.683562 1_545
Pt1 Sb10 2.683562 1_455
Pt1 Sb7 2.693045 1_555
Pt1 Sb4 2.693045 1_445
Pt1 Sb5 2.694115 1_555
Pt1 Sb3 2.694115 1_445
