# generated using pymatgen
data_Ba2Ga5NiIr4
_symmetry_space_group_name_H-M   'P 1'
_cell_length_a   6.56630248
_cell_length_b   6.56630207
_cell_length_c   5.65085766
_cell_angle_alpha   90.00000000
_cell_angle_beta   90.00000000
_cell_angle_gamma   71.72649742
_symmetry_Int_Tables_number   1
_chemical_formula_structural   Ba2Ga5NiIr4
_chemical_formula_sum   'Ba2 Ga5 Ni1 Ir4'
_cell_volume   231.35738372
_cell_formula_units_Z   1
loop_
 _symmetry_equiv_pos_site_id
 _symmetry_equiv_pos_as_xyz
  1  'x, y, z'
loop_
 _atom_site_type_symbol
 _atom_site_label
 _atom_site_symmetry_multiplicity
 _atom_site_fract_x
 _atom_site_fract_y
 _atom_site_fract_z
 _atom_site_occupancy
  Ba  Ba0  1  0.33440410  0.66559590  0.24999900  1
  Ba  Ba1  1  0.65472939  0.34527061  0.74999900  1
  Ga  Ga0  1  0.53497750  0.08482103  0.24999900  1
  Ga  Ga1  1  0.91517997  0.46502250  0.24999900  1
  Ga  Ga2  1  0.07858420  0.51538328  0.74999900  1
  Ga  Ga3  1  0.48461672  0.92141680  0.74999900  1
  Ga  Ga4  1  0.07074857  0.92925143  0.74999900  1
  Ni  Ni0  1  0.90749849  0.09250151  0.24999900  1
  Ir  Ir0  1  0.19696799  0.18733645  0.00450990  1
  Ir  Ir1  1  0.81266355  0.80303201  0.00450990  1
  Ir  Ir2  1  0.19696799  0.18733645  0.49549010  1
  Ir  Ir3  1  0.81266355  0.80303201  0.49549010  1
loop_
_geom_bond_atom_site_label_1
_geom_bond_atom_site_label_2
_geom_bond_distance
_geom_bond_site_symmetry_2
Ba0 Ni0 3.284514 1_465
Ba0 Ga1 3.403784 1_455
Ba0 Ga0 3.403790 1_565
Ba0 Ga4 3.478201 1_554
Ba0 Ga4 3.478201 1_555
Ba0 Ir0 3.540736 1_565
Ba0 Ir1 3.540736 1_455
Ba0 Ir2 3.540740 1_565
Ba0 Ir3 3.540740 1_455
Ba0 Ga2 3.580033 1_555
Ba0 Ga2 3.580033 1_554
Ba0 Ga3 3.580036 1_554
Ba0 Ga3 3.580036 1_555
Ba0 Ga0 3.623259 1_555
Ba0 Ga1 3.623265 1_555
Ba0 Ba1 3.749247 1_554
Ba0 Ba1 3.749247 1_555
Ba0 Ir0 3.791851 1_555
Ba0 Ir1 3.791851 1_555
Ba0 Ir2 3.791855 1_555
Ba0 Ir3 3.791855 1_555
Ba1 Ga4 3.200756 1_645
Ba1 Ga3 3.308052 1_545
Ba1 Ga2 3.308058 1_655
Ba1 Ni0 3.430028 1_556
Ba1 Ni0 3.430028 1_555
Ba1 Ga0 3.517019 1_555
Ba1 Ga0 3.517019 1_556
Ba1 Ga1 3.517023 1_555
Ba1 Ga1 3.517023 1_556
Ba1 Ga2 3.593028 1_555
Ba1 Ga3 3.593035 1_555
Ga0 Ni0 2.462364 1_555
Ga0 Ir0 2.523224 1_555
Ga0 Ir2 2.523230 1_555
Ga0 Ir1 2.560662 1_545
Ga0 Ir3 2.560668 1_545
Ga1 Ni0 2.462366 1_555
Ga1 Ir1 2.523224 1_555
Ga1 Ir3 2.523230 1_555
Ga1 Ir0 2.560659 1_655
Ga1 Ir2 2.560665 1_655
Ga2 Ir2 2.502511 1_555
Ga2 Ir0 2.502518 1_556
Ga2 Ir3 2.572279 1_455
Ga2 Ir1 2.572285 1_456
Ga3 Ir3 2.502512 1_555
Ga3 Ir1 2.502518 1_556
Ga3 Ir2 2.572276 1_565
Ga3 Ir0 2.572282 1_566
Ga4 Ir2 2.551074 1_565
Ga4 Ir3 2.551074 1_455
Ga4 Ir0 2.551080 1_566
Ga4 Ir1 2.551080 1_456
Ga4 Ni0 3.092023 1_466
Ga4 Ni0 3.092023 1_465
Ir0 Ni0 2.582102 1_455
Ir1 Ni0 2.582102 1_565
Ir2 Ni0 2.582108 1_455
Ir3 Ni0 2.582108 1_565
