# generated using pymatgen
data_K3Ba3AlBi4
_symmetry_space_group_name_H-M   'P 1'
_cell_length_a   11.24330301
_cell_length_b   11.24330351
_cell_length_c   8.53830017
_cell_angle_alpha   90.00000000
_cell_angle_beta   90.00000000
_cell_angle_gamma   120.00000143
_symmetry_Int_Tables_number   1
_chemical_formula_structural   K3Ba3AlBi4
_chemical_formula_sum   'K6 Ba6 Al2 Bi8'
_cell_volume   934.73799055
_cell_formula_units_Z   2
loop_
 _symmetry_equiv_pos_site_id
 _symmetry_equiv_pos_as_xyz
  1  'x, y, z'
loop_
 _atom_site_type_symbol
 _atom_site_label
 _atom_site_symmetry_multiplicity
 _atom_site_fract_x
 _atom_site_fract_y
 _atom_site_fract_z
 _atom_site_occupancy
  K  K0  1  0.86143896  0.13856104  0.54728616  1
  K  K1  1  0.27712207  0.13856104  0.54728616  1
  K  K2  1  0.86143896  0.72287793  0.54728616  1
  K  K3  1  0.13856104  0.86143896  0.04728616  1
  K  K4  1  0.72287793  0.86143896  0.04728616  1
  K  K5  1  0.13856104  0.27712207  0.04728616  1
  Ba  Ba0  1  0.47984687  0.52015313  0.73332103  1
  Ba  Ba1  1  0.04030525  0.52015313  0.73332103  1
  Ba  Ba2  1  0.47984687  0.95969475  0.73332103  1
  Ba  Ba3  1  0.52015313  0.47984687  0.23332103  1
  Ba  Ba4  1  0.95969475  0.47984687  0.23332103  1
  Ba  Ba5  1  0.52015313  0.04030525  0.23332103  1
  Al  Al0  1  0.66666700  0.33333300  0.85641868  1
  Al  Al1  1  0.33333300  0.66666700  0.35641868  1
  Bi  Bi0  1  0.80444403  0.19555597  0.95659578  1
  Bi  Bi1  1  0.39111295  0.19555597  0.95659578  1
  Bi  Bi2  1  0.80444403  0.60888705  0.95659578  1
  Bi  Bi3  1  0.19555597  0.80444403  0.45659578  1
  Bi  Bi4  1  0.60888705  0.80444403  0.45659578  1
  Bi  Bi5  1  0.19555597  0.39111295  0.45659578  1
  Bi  Bi6  1  0.66666700  0.33333300  0.51733440  1
  Bi  Bi7  1  0.33333300  0.66666700  0.01733440  1
loop_
_geom_bond_atom_site_label_1
_geom_bond_atom_site_label_2
_geom_bond_distance
_geom_bond_site_symmetry_2
K0 K1 4.673651 1_655
K0 K2 4.673651 1_545
K1 K2 4.673651 1_445
K3 K4 4.673651 1_455
K3 K5 4.673651 1_565
K4 K5 4.673651 1_665
Ba0 Bi5 3.642381 1_555
Ba0 Bi4 3.642381 1_555
Ba0 Bi7 3.744513 1_556
Ba0 Bi2 3.782565 1_555
Ba0 Bi1 3.782565 1_555
Ba0 K2 4.043072 1_555
Ba0 K1 4.043072 1_555
Ba0 Bi6 4.078837 1_555
Ba0 Ba3 4.340708 1_556
Ba0 Ba3 4.340708 1_555
Ba0 K5 4.346455 1_556
Ba0 K4 4.346455 1_556
Ba1 Bi5 3.642381 1_555
Ba1 Bi3 3.642381 1_555
Ba1 Bi7 3.744512 1_556
Ba1 Bi2 3.782547 1_455
Ba1 Bi0 3.782560 1_455
Ba1 K2 4.043064 1_455
Ba1 K0 4.043073 1_455
Ba1 Bi6 4.078820 1_455
Ba1 Ba4 4.340705 1_455
Ba1 Ba4 4.340705 1_456
Ba1 K3 4.346453 1_556
Ba1 K5 4.346462 1_556
Ba2 Bi3 3.642381 1_555
Ba2 Bi4 3.642381 1_555
Ba2 Bi7 3.744513 1_556
Ba2 Bi1 3.782547 1_565
Ba2 Bi0 3.782560 1_565
Ba2 K1 4.043064 1_565
Ba2 K0 4.043073 1_565
Ba2 Bi6 4.078820 1_565
Ba2 Ba5 4.340705 1_565
Ba2 Ba5 4.340705 1_566
Ba2 K3 4.346453 1_556
Ba2 K4 4.346462 1_556
Ba3 Bi2 3.642381 1_554
Ba3 Bi1 3.642381 1_554
Ba3 Bi6 3.744513 1_555
Ba3 Bi5 3.782565 1_555
Ba3 Bi4 3.782565 1_555
Ba3 K5 4.043072 1_555
Ba3 K4 4.043072 1_555
Ba3 Bi7 4.078837 1_555
Ba3 K2 4.346455 1_555
Ba3 K1 4.346455 1_555
Ba4 Bi2 3.642381 1_554
Ba4 Bi0 3.642381 1_554
Ba4 Bi6 3.744512 1_555
Ba4 Bi5 3.782547 1_655
Ba4 Bi3 3.782560 1_655
Ba4 K5 4.043064 1_655
Ba4 K3 4.043073 1_655
Ba4 Bi7 4.078820 1_655
Ba4 K0 4.346453 1_555
Ba4 K2 4.346462 1_555
Ba5 Bi0 3.642381 1_554
Ba5 Bi1 3.642381 1_554
Ba5 Bi6 3.744513 1_555
Ba5 Bi4 3.782547 1_545
Ba5 Bi3 3.782560 1_545
Ba5 K4 4.043064 1_545
Ba5 K3 4.043073 1_545
Ba5 Bi7 4.078820 1_545
Ba5 K0 4.346453 1_555
Ba5 K1 4.346462 1_555
Al0 Bi1 2.816106 1_555
Al0 Bi0 2.816106 1_555
Al0 Bi2 2.816106 1_555
Al0 Bi6 2.895203 1_555
Al0 Ba1 3.786891 1_655
Al0 Ba2 3.786891 1_545
Al0 Ba0 3.786910 1_555
Al1 Bi4 2.816106 1_555
Al1 Bi3 2.816106 1_555
Al1 Bi5 2.816106 1_555
Al1 Bi7 2.895203 1_555
Al1 Ba4 3.786891 1_455
Al1 Ba5 3.786891 1_565
Al1 Ba3 3.786910 1_555
Bi0 K5 3.479577 1_656
Bi0 K4 3.479577 1_546
Bi0 K0 3.666825 1_555
Bi1 K3 3.479580 1_546
Bi1 K5 3.479588 1_556
Bi1 K1 3.666828 1_555
Bi2 K3 3.479580 1_656
Bi2 K4 3.479588 1_556
Bi2 K2 3.666828 1_555
Bi3 K2 3.479577 1_455
Bi3 K1 3.479577 1_565
Bi3 K3 3.666825 1_555
Bi4 K0 3.479580 1_565
Bi4 K2 3.479588 1_555
Bi4 K4 3.666828 1_555
Bi5 K0 3.479580 1_455
Bi5 K1 3.479588 1_555
Bi5 K5 3.666828 1_555
Bi6 K0 3.801595 1_555
Bi6 K1 3.801605 1_555
Bi6 K2 3.801605 1_555
Bi7 K3 3.801595 1_555
Bi7 K4 3.801605 1_555
Bi7 K5 3.801605 1_555
