# generated using pymatgen
data_Lu5Mg(Be2Rh5)2
_symmetry_space_group_name_H-M   'P 1'
_cell_length_a   9.63173124
_cell_length_b   9.63173124
_cell_length_c   3.20903627
_cell_angle_alpha   90.00000000
_cell_angle_beta   90.00000000
_cell_angle_gamma   90.00000000
_symmetry_Int_Tables_number   1
_chemical_formula_structural   Lu5Mg(Be2Rh5)2
_chemical_formula_sum   'Lu5 Mg1 Be4 Rh10'
_cell_volume   297.70308597
_cell_formula_units_Z   1
loop_
 _symmetry_equiv_pos_site_id
 _symmetry_equiv_pos_as_xyz
  1  'x, y, z'
loop_
 _atom_site_type_symbol
 _atom_site_label
 _atom_site_symmetry_multiplicity
 _atom_site_fract_x
 _atom_site_fract_y
 _atom_site_fract_z
 _atom_site_occupancy
  Lu  Lu0  1  0.67210904  0.17880006  0.00000000  1
  Lu  Lu1  1  0.32789096  0.82119994  0.00000000  1
  Lu  Lu2  1  0.17880006  0.32789096  0.00000000  1
  Lu  Lu3  1  0.82119994  0.67210904  0.00000000  1
  Lu  Lu4  1  0.00000000  0.00000000  0.00000000  1
  Mg  Mg0  1  0.50000000  0.50000000  0.00000000  1
  Be  Be0  1  0.12445445  0.61900359  0.00000000  1
  Be  Be1  1  0.87554555  0.38099641  0.00000000  1
  Be  Be2  1  0.61900359  0.87554555  0.00000000  1
  Be  Be3  1  0.38099641  0.12445445  0.00000000  1
  Rh  Rh0  1  0.50000000  0.00000000  0.50000000  1
  Rh  Rh1  1  0.00000000  0.50000000  0.50000000  1
  Rh  Rh2  1  0.21949645  0.07291374  0.50000000  1
  Rh  Rh3  1  0.78050355  0.92708626  0.50000000  1
  Rh  Rh4  1  0.07291374  0.78050355  0.50000000  1
  Rh  Rh5  1  0.71364243  0.43153404  0.50000000  1
  Rh  Rh6  1  0.92708626  0.21949645  0.50000000  1
  Rh  Rh7  1  0.28635757  0.56846596  0.50000000  1
  Rh  Rh8  1  0.56846596  0.71364243  0.50000000  1
  Rh  Rh9  1  0.43153404  0.28635757  0.50000000  1
loop_
_geom_bond_atom_site_label_1
_geom_bond_atom_site_label_2
_geom_bond_distance
_geom_bond_site_symmetry_2
Lu0 Rh0 2.878939 1_555
Lu0 Rh0 2.878939 1_554
Lu0 Rh5 2.942815 1_554
Lu0 Rh5 2.942815 1_555
Lu0 Rh6 2.959634 1_555
Lu0 Rh6 2.959634 1_554
Lu0 Rh9 3.002816 1_555
Lu0 Rh9 3.002816 1_554
Lu0 Rh3 3.089074 1_545
Lu0 Rh3 3.089074 1_544
Lu1 Rh0 2.878939 1_565
Lu1 Rh0 2.878939 1_564
Lu1 Rh7 2.942815 1_555
Lu1 Rh7 2.942815 1_554
Lu1 Rh4 2.959634 1_555
Lu1 Rh4 2.959634 1_554
Lu1 Rh8 3.002816 1_554
Lu1 Rh8 3.002816 1_555
Lu1 Rh2 3.089074 1_565
Lu1 Rh2 3.089074 1_564
Lu2 Rh1 2.878939 1_555
Lu2 Rh1 2.878939 1_554
Lu2 Rh9 2.942815 1_555
Lu2 Rh9 2.942815 1_554
Lu2 Rh2 2.959634 1_554
Lu2 Rh2 2.959634 1_555
Lu2 Rh7 3.002816 1_555
Lu2 Rh7 3.002816 1_554
Lu2 Rh6 3.089074 1_454
Lu2 Rh6 3.089074 1_455
Lu3 Rh1 2.878939 1_655
Lu3 Rh1 2.878939 1_654
Lu3 Rh8 2.942815 1_555
Lu3 Rh8 2.942815 1_554
Lu3 Rh3 2.959634 1_554
Lu3 Rh3 2.959634 1_555
Lu3 Rh5 3.002816 1_554
Lu3 Rh5 3.002816 1_555
Lu3 Rh4 3.089074 1_654
Lu3 Rh4 3.089074 1_655
Lu4 Rh2 2.745402 1_554
Lu4 Rh2 2.745402 1_555
Lu4 Rh6 2.745402 1_455
Lu4 Rh6 2.745402 1_454
Lu4 Rh4 2.745402 1_544
Lu4 Rh4 2.745402 1_545
Lu4 Rh3 2.745402 1_444
Lu4 Rh3 2.745402 1_445
Mg0 Rh5 2.691406 1_554
Mg0 Rh5 2.691406 1_555
Mg0 Rh8 2.691406 1_554
Mg0 Rh8 2.691406 1_555
Mg0 Rh7 2.691406 1_555
Mg0 Rh9 2.691406 1_555
Mg0 Rh7 2.691406 1_554
Mg0 Rh9 2.691406 1_554
Be0 Rh4 2.289230 1_555
Be0 Rh4 2.289230 1_554
Be0 Rh7 2.289797 1_555
Be0 Rh7 2.289797 1_554
Be0 Rh1 2.307637 1_554
Be0 Rh1 2.307637 1_555
Be0 Lu1 2.762641 1_555
Be0 Lu2 2.852359 1_555
Be0 Lu3 2.965314 1_455
Be1 Rh6 2.289230 1_554
Be1 Rh6 2.289230 1_555
Be1 Rh5 2.289797 1_554
Be1 Rh5 2.289797 1_555
Be1 Rh1 2.307637 1_655
Be1 Rh1 2.307637 1_654
Be1 Lu0 2.762641 1_555
Be1 Lu3 2.852359 1_555
Be1 Lu2 2.965314 1_655
Be2 Rh3 2.289230 1_555
Be2 Rh3 2.289230 1_554
Be2 Rh8 2.289797 1_555
Be2 Rh8 2.289797 1_554
Be2 Rh0 2.307637 1_565
Be2 Rh0 2.307637 1_564
Be2 Lu3 2.762641 1_555
Be2 Lu1 2.852359 1_555
Be2 Lu0 2.965314 1_565
Be3 Rh2 2.289230 1_555
Be3 Rh2 2.289230 1_554
Be3 Rh9 2.289797 1_554
Be3 Rh9 2.289797 1_555
Be3 Rh0 2.307637 1_555
Be3 Rh0 2.307637 1_554
Be3 Lu2 2.762641 1_555
Be3 Lu0 2.852359 1_555
Be3 Lu1 2.965314 1_545
