# generated using pymatgen
data_AlRe6As13
_symmetry_space_group_name_H-M   'P 1'
_cell_length_a   7.58836424
_cell_length_b   7.58836365
_cell_length_c   7.58836473
_cell_angle_alpha   109.45798737
_cell_angle_beta   109.45798266
_cell_angle_gamma   109.45797630
_symmetry_Int_Tables_number   1
_chemical_formula_structural   AlRe6As13
_chemical_formula_sum   'Al1 Re6 As13'
_cell_volume   336.53891779
_cell_formula_units_Z   1
loop_
 _symmetry_equiv_pos_site_id
 _symmetry_equiv_pos_as_xyz
  1  'x, y, z'
loop_
 _atom_site_type_symbol
 _atom_site_label
 _atom_site_symmetry_multiplicity
 _atom_site_fract_x
 _atom_site_fract_y
 _atom_site_fract_z
 _atom_site_occupancy
  Al  Al0  1  0.33147811  0.33147811  0.33147811  1
  Re  Re0  1  0.98996337  0.33992718  0.33992718  1
  Re  Re1  1  0.00307809  0.66557903  0.66557903  1
  Re  Re2  1  0.33992718  0.98996337  0.33992718  1
  Re  Re3  1  0.33992718  0.33992718  0.98996337  1
  Re  Re4  1  0.66557903  0.00307809  0.66557903  1
  Re  Re5  1  0.66557903  0.66557903  0.00307809  1
  As  As0  1  0.00011960  0.00011960  0.66129568  1
  As  As1  1  0.66129568  0.00011960  0.00011960  1
  As  As2  1  0.00011960  0.66129568  0.00011960  1
  As  As3  1  0.66155301  0.66155301  0.66155301  1
  As  As4  1  0.00833764  0.00833764  0.32493223  1
  As  As5  1  0.00833764  0.32493223  0.00833764  1
  As  As6  1  0.32493223  0.00833764  0.00833764  1
  As  As7  1  0.50184140  0.74695511  0.25109080  1
  As  As8  1  0.50184140  0.25109080  0.74695511  1
  As  As9  1  0.25109080  0.50184140  0.74695511  1
  As  As10  1  0.74695511  0.25109080  0.50184140  1
  As  As11  1  0.74695511  0.50184140  0.25109080  1
  As  As12  1  0.25109080  0.74695511  0.50184140  1
loop_
_geom_bond_atom_site_label_1
_geom_bond_atom_site_label_2
_geom_bond_distance
_geom_bond_site_symmetry_2
Al0 As3 2.506365 1_555
Al0 Re2 2.634947 1_545
Al0 Re0 2.634948 1_455
Al0 Re3 2.634948 1_554
Al0 As6 2.803551 1_555
Al0 As5 2.803551 1_555
Al0 As4 2.803551 1_555
As0 Re3 2.553316 1_555
As0 Re1 2.557066 1_545
As0 Re4 2.557066 1_455
As0 As4 2.594663 1_555
As1 Re0 2.553316 1_555
As1 Re5 2.557066 1_545
As1 Re4 2.557066 1_554
As1 As6 2.594663 1_555
As2 Re2 2.553316 1_555
As2 Re5 2.557066 1_455
As2 Re1 2.557066 1_554
As2 As5 2.594662 1_555
As3 Re4 2.571424 1_565
As3 Re1 2.571424 1_655
As3 Re5 2.571424 1_556
As4 Re0 2.533243 1_455
As4 Re2 2.533243 1_545
As4 Re5 2.554147 1_445
As5 Re3 2.533243 1_554
As5 Re0 2.533243 1_455
As5 Re4 2.554147 1_454
As6 Re3 2.533243 1_554
As6 Re2 2.533243 1_545
As6 Re1 2.554147 1_544
As7 Re2 2.568584 1_555
As7 Re3 2.597714 1_554
As7 Re5 2.600367 1_555
As7 Re4 2.632270 1_565
As8 Re3 2.568584 1_555
As8 Re2 2.597715 1_545
As8 Re4 2.600367 1_555
As8 Re5 2.632270 1_556
As9 Re3 2.568584 1_555
As9 Re0 2.597715 1_455
As9 Re1 2.600367 1_555
As9 Re5 2.632270 1_556
As10 Re0 2.568585 1_555
As10 Re2 2.597715 1_545
As10 Re4 2.600367 1_555
As10 Re1 2.632270 1_655
As11 Re0 2.568584 1_555
As11 Re3 2.597715 1_554
As11 Re5 2.600367 1_555
As11 Re1 2.632270 1_655
As12 Re2 2.568584 1_555
As12 Re0 2.597715 1_455
As12 Re1 2.600367 1_555
As12 Re4 2.632270 1_565
