# generated using pymatgen
data_MgB4
_symmetry_space_group_name_H-M   'P 1'
_cell_length_a   4.37815396
_cell_length_b   5.46947776
_cell_length_c   7.41296893
_cell_angle_alpha   90.00000000
_cell_angle_beta   90.00000000
_cell_angle_gamma   90.00000000
_symmetry_Int_Tables_number   1
_chemical_formula_structural   MgB4
_chemical_formula_sum   'Mg4 B16'
_cell_volume   177.51255308
_cell_formula_units_Z   4
loop_
 _symmetry_equiv_pos_site_id
 _symmetry_equiv_pos_as_xyz
  1  'x, y, z'
loop_
 _atom_site_type_symbol
 _atom_site_label
 _atom_site_symmetry_multiplicity
 _atom_site_fract_x
 _atom_site_fract_y
 _atom_site_fract_z
 _atom_site_occupancy
  Mg  Mg0  1  0.75000000  0.95379716  0.13907159  1
  Mg  Mg1  1  0.25000000  0.04620284  0.86092841  1
  Mg  Mg2  1  0.75000000  0.45379716  0.36092841  1
  Mg  Mg3  1  0.25000000  0.54620284  0.63907159  1
  B  B0  1  0.75000000  0.27837325  0.65270989  1
  B  B1  1  0.25000000  0.72162675  0.34729011  1
  B  B2  1  0.75000000  0.77837325  0.84729011  1
  B  B3  1  0.25000000  0.22162675  0.15270989  1
  B  B4  1  0.75000000  0.44690660  0.85259768  1
  B  B5  1  0.25000000  0.55309340  0.14740232  1
  B  B6  1  0.75000000  0.94690660  0.64740232  1
  B  B7  1  0.25000000  0.05309340  0.35259768  1
  B  B8  1  0.55799918  0.86690139  0.43715726  1
  B  B9  1  0.05799918  0.13309861  0.56284274  1
  B  B10  1  0.94200082  0.36690139  0.06284274  1
  B  B11  1  0.44200082  0.63309861  0.93715726  1
  B  B12  1  0.44200082  0.13309861  0.56284274  1
  B  B13  1  0.94200082  0.86690139  0.43715726  1
  B  B14  1  0.05799918  0.63309861  0.93715726  1
  B  B15  1  0.55799918  0.36690139  0.06284274  1
loop_
_geom_bond_atom_site_label_1
_geom_bond_atom_site_label_2
_geom_bond_distance
_geom_bond_site_symmetry_2
B0 B9 1.701034 1_655
B0 B12 1.701034 1_555
B0 B4 1.745083 1_555
B0 B6 1.813376 1_545
B0 Mg2 2.366225 1_555
B0 Mg3 2.635939 1_655
B0 Mg3 2.635939 1_555
B1 B13 1.701034 1_455
B1 B8 1.701034 1_555
B1 B5 1.745083 1_555
B1 B7 1.813376 1_565
B1 Mg3 2.366225 1_555
B1 Mg2 2.635939 1_455
B1 Mg2 2.635939 1_555
B2 B6 1.745083 1_555
B2 B4 1.813376 1_555
B2 Mg0 2.366225 1_556
B2 Mg1 2.635939 1_565
B2 Mg1 2.635939 1_665
B3 B7 1.745083 1_555
B3 B5 1.813376 1_555
B3 Mg1 2.366225 1_554
B3 Mg0 2.635939 1_545
B3 Mg0 2.635939 1_445
B4 Mg3 2.755443 1_655
B4 Mg3 2.755443 1_555
B5 Mg2 2.755443 1_455
B5 Mg2 2.755443 1_555
B6 B9 1.802325 1_665
B6 B8 1.824049 1_555
B6 Mg1 2.755443 1_665
B6 Mg1 2.755443 1_565
B7 B8 1.802325 1_545
B7 B9 1.824049 1_555
B7 Mg0 2.755443 1_545
B7 Mg0 2.755443 1_445
B8 Mg0 2.411490 1_555
B8 Mg2 2.476110 1_555
B8 Mg3 2.671223 1_555
B9 Mg1 2.411490 1_555
B9 Mg3 2.476110 1_555
B9 Mg2 2.671223 1_455
B10 B15 1.681218 1_555
B10 B3 1.701034 1_655
B10 B14 1.801613 1_654
B10 B5 1.802325 1_655
B10 B4 1.824049 1_554
B10 Mg2 2.411490 1_555
B10 Mg0 2.476110 1_545
B10 Mg1 2.671223 1_654
B11 B14 1.681218 1_555
B11 B2 1.701034 1_555
B11 B15 1.801613 1_556
B11 B4 1.802325 1_555
B11 B5 1.824049 1_556
B11 Mg3 2.411490 1_555
B11 Mg1 2.476110 1_565
B11 Mg0 2.671223 1_556
B12 B9 1.681218 1_555
B12 B8 1.801613 1_545
B12 B6 1.802325 1_545
B12 B7 1.824049 1_555
B12 Mg1 2.411490 1_555
B12 Mg3 2.476110 1_555
B12 Mg2 2.671223 1_555
B13 B8 1.681218 1_555
B13 B9 1.801613 1_665
B13 B7 1.802325 1_665
B13 B6 1.824049 1_555
B13 Mg0 2.411490 1_555
B13 Mg2 2.476110 1_555
B13 Mg3 2.671223 1_655
B14 B2 1.701034 1_455
B14 B4 1.802325 1_455
B14 B5 1.824049 1_556
B14 Mg3 2.411490 1_555
B14 Mg1 2.476110 1_565
B14 Mg0 2.671223 1_456
B15 B3 1.701034 1_555
B15 B5 1.802325 1_555
B15 B4 1.824049 1_554
B15 Mg2 2.411490 1_555
B15 Mg0 2.476110 1_545
B15 Mg1 2.671223 1_554
