# generated using pymatgen
data_Zr6SnHgC4
_symmetry_space_group_name_H-M   'P 1'
_cell_length_a   3.36283800
_cell_length_b   3.36283858
_cell_length_c   20.11931293
_cell_angle_alpha   90.00000000
_cell_angle_beta   90.00000000
_cell_angle_gamma   119.99998453
_symmetry_Int_Tables_number   1
_chemical_formula_structural   Zr6SnHgC4
_chemical_formula_sum   'Zr6 Sn1 Hg1 C4'
_cell_volume   197.04064154
_cell_formula_units_Z   1
loop_
 _symmetry_equiv_pos_site_id
 _symmetry_equiv_pos_as_xyz
  1  'x, y, z'
loop_
 _atom_site_type_symbol
 _atom_site_label
 _atom_site_symmetry_multiplicity
 _atom_site_fract_x
 _atom_site_fract_y
 _atom_site_fract_z
 _atom_site_occupancy
  Zr  Zr0  1  0.00000000  0.00000000  0.99915353  1
  Zr  Zr1  1  0.33333300  0.66666700  0.12747169  1
  Zr  Zr2  1  0.33333300  0.66666700  0.37252831  1
  Zr  Zr3  1  0.00000000  0.00000000  0.50084647  1
  Zr  Zr4  1  0.66666700  0.33333300  0.62881101  1
  Zr  Zr5  1  0.66666700  0.33333300  0.87118899  1
  Sn  Sn0  1  0.00000000  0.00000000  0.75000000  1
  Hg  Hg0  1  0.00000000  0.00000000  0.25000000  1
  C  C0  1  0.33333300  0.66666700  0.92952424  1
  C  C1  1  0.66666700  0.33333300  0.06956441  1
  C  C2  1  0.66666700  0.33333300  0.43043559  1
  C  C3  1  0.33333300  0.66666700  0.57047576  1
loop_
_geom_bond_atom_site_label_1
_geom_bond_atom_site_label_2
_geom_bond_distance
_geom_bond_site_symmetry_2
Sn0 Zr4 3.116819 1_455
Sn0 Zr5 3.116819 1_455
Sn0 Zr4 3.116821 1_555
Sn0 Zr5 3.116821 1_555
Sn0 Zr4 3.116822 1_445
Sn0 Zr5 3.116822 1_445
Hg0 Zr2 3.137944 1_545
Hg0 Zr1 3.137944 1_545
Hg0 Zr2 3.137946 1_445
Hg0 Zr1 3.137946 1_445
Hg0 Zr2 3.137946 1_555
Hg0 Zr1 3.137946 1_555
C0 Zr5 2.268710 1_455
C0 Zr5 2.268710 1_565
C0 Zr5 2.268714 1_555
C0 Zr0 2.394171 1_565
C0 Zr0 2.394174 1_665
C0 Zr0 2.394174 1_555
C1 Zr1 2.264267 1_655
C1 Zr1 2.264268 1_545
C1 Zr1 2.264272 1_555
C1 Zr0 2.403406 1_654
C1 Zr0 2.403409 1_554
C1 Zr0 2.403409 1_664
C2 Zr2 2.264267 1_655
C2 Zr2 2.264268 1_545
C2 Zr2 2.264272 1_555
C2 Zr3 2.403406 1_655
C2 Zr3 2.403409 1_555
C2 Zr3 2.403409 1_665
C3 Zr4 2.268710 1_455
C3 Zr4 2.268710 1_565
C3 Zr4 2.268714 1_555
C3 Zr3 2.394171 1_565
C3 Zr3 2.394174 1_665
C3 Zr3 2.394174 1_555
