# generated using pymatgen
data_CsRbCoBr4
_symmetry_space_group_name_H-M   'P 1'
_cell_length_a   7.66562825
_cell_length_b   10.05337977
_cell_length_c   13.20538568
_cell_angle_alpha   90.00000000
_cell_angle_beta   90.00000000
_cell_angle_gamma   90.00000000
_symmetry_Int_Tables_number   1
_chemical_formula_structural   CsRbCoBr4
_chemical_formula_sum   'Cs4 Rb4 Co4 Br16'
_cell_volume   1017.67928008
_cell_formula_units_Z   4
loop_
 _symmetry_equiv_pos_site_id
 _symmetry_equiv_pos_as_xyz
  1  'x, y, z'
loop_
 _atom_site_type_symbol
 _atom_site_label
 _atom_site_symmetry_multiplicity
 _atom_site_fract_x
 _atom_site_fract_y
 _atom_site_fract_z
 _atom_site_occupancy
  Cs  Cs0  1  0.25000000  0.63091944  0.90242165  1
  Cs  Cs1  1  0.75000000  0.36908056  0.09757835  1
  Cs  Cs2  1  0.75000000  0.86908056  0.40242165  1
  Cs  Cs3  1  0.25000000  0.13091944  0.59757835  1
  Rb  Rb0  1  0.25000000  0.98509283  0.17200177  1
  Rb  Rb1  1  0.75000000  0.01490717  0.82799823  1
  Rb  Rb2  1  0.75000000  0.51490717  0.67200177  1
  Rb  Rb3  1  0.25000000  0.48509283  0.32799823  1
  Co  Co0  1  0.25000000  0.72979683  0.57819436  1
  Co  Co1  1  0.75000000  0.27020317  0.42180564  1
  Co  Co2  1  0.75000000  0.77020317  0.07819436  1
  Co  Co3  1  0.25000000  0.22979683  0.92180564  1
  Br  Br0  1  0.99558711  0.81439064  0.65978066  1
  Br  Br1  1  0.00441289  0.18560936  0.34021934  1
  Br  Br2  1  0.00441289  0.68560936  0.15978066  1
  Br  Br3  1  0.49558711  0.18560936  0.34021934  1
  Br  Br4  1  0.99558711  0.31439064  0.84021934  1
  Br  Br5  1  0.50441289  0.81439064  0.65978066  1
  Br  Br6  1  0.50441289  0.31439064  0.84021934  1
  Br  Br7  1  0.49558711  0.68560936  0.15978066  1
  Br  Br8  1  0.25000000  0.49290657  0.59192309  1
  Br  Br9  1  0.75000000  0.50709343  0.40807691  1
  Br  Br10  1  0.75000000  0.00709343  0.09192309  1
  Br  Br11  1  0.25000000  0.99290657  0.90807691  1
  Br  Br12  1  0.25000000  0.31838817  0.09037792  1
  Br  Br13  1  0.75000000  0.68161183  0.90962208  1
  Br  Br14  1  0.75000000  0.18161183  0.59037792  1
  Br  Br15  1  0.25000000  0.81838817  0.40962208  1
loop_
_geom_bond_atom_site_label_1
_geom_bond_atom_site_label_2
_geom_bond_distance
_geom_bond_site_symmetry_2
Br0 Co0 2.384834 1_655
Br0 Rb1 3.541518 1_565
Br0 Rb2 3.554602 1_555
Br0 Cs3 3.821573 1_665
Br0 Cs2 3.923822 1_555
Br0 Cs0 4.179989 1_655
Br1 Co1 2.384834 1_455
Br1 Rb0 3.541518 1_545
Br1 Rb3 3.554602 1_555
Br1 Cs2 3.821573 1_445
Br1 Cs3 3.923822 1_555
Br1 Cs1 4.179989 1_455
Br2 Co2 2.384834 1_455
Br2 Rb3 3.541518 1_555
Br2 Rb0 3.554602 1_555
Br2 Cs1 3.821573 1_455
Br2 Cs0 3.923822 1_554
Br2 Cs2 4.179989 1_455
Br3 Co1 2.384834 1_555
Br3 Rb0 3.541518 1_545
Br3 Rb3 3.554602 1_555
Br3 Cs2 3.821573 1_545
Br3 Cs3 3.923822 1_555
Br3 Cs1 4.179989 1_555
Br4 Co3 2.384834 1_655
Br4 Rb2 3.541518 1_555
Br4 Rb1 3.554602 1_555
Br4 Cs0 3.821573 1_655
Br4 Cs1 3.923822 1_556
Br4 Cs3 4.179989 1_655
Br5 Co0 2.384834 1_555
Br5 Rb1 3.541518 1_565
Br5 Rb2 3.554602 1_555
Br5 Cs3 3.821573 1_565
Br5 Cs2 3.923822 1_555
Br5 Cs0 4.179989 1_555
Br6 Co3 2.384834 1_555
Br6 Rb2 3.541518 1_555
Br6 Rb1 3.554602 1_555
Br6 Cs0 3.821573 1_555
Br6 Cs1 3.923822 1_556
Br6 Cs3 4.179989 1_555
Br7 Co2 2.384834 1_555
Br7 Rb3 3.541518 1_555
Br7 Rb0 3.554602 1_555
Br7 Cs1 3.821573 1_555
Br7 Cs0 3.923822 1_554
Br7 Cs2 4.179989 1_555
Br8 Co0 2.388438 1_555
Br8 Rb3 3.486115 1_555
Br8 Cs3 3.639960 1_555
Br8 Rb2 3.982164 1_455
Br8 Rb2 3.982164 1_555
Br9 Co1 2.388438 1_555
Br9 Rb2 3.486115 1_555
Br9 Cs2 3.639960 1_555
Br9 Rb3 3.982164 1_655
Br9 Rb3 3.982164 1_555
Br10 Co2 2.388438 1_545
Br10 Rb1 3.486115 1_554
Br10 Cs1 3.639960 1_555
Br10 Rb0 3.982164 1_645
Br10 Rb0 3.982164 1_545
Br11 Co3 2.388438 1_565
Br11 Rb0 3.486115 1_556
Br11 Cs0 3.639960 1_555
Br11 Rb1 3.982164 1_565
Br11 Rb1 3.982164 1_465
Br12 Co3 2.397623 1_554
Br12 Rb0 3.519844 1_545
Br12 Rb3 3.557388 1_555
Br12 Cs1 3.867716 1_455
Br12 Cs1 3.867716 1_555
Br12 Cs0 4.004077 1_554
Br13 Co2 2.397623 1_556
Br13 Rb1 3.519844 1_565
Br13 Rb2 3.557388 1_555
Br13 Cs0 3.867716 1_555
Br13 Cs0 3.867716 1_655
Br13 Cs1 4.004077 1_556
Br14 Co1 2.397623 1_555
Br14 Rb2 3.519844 1_555
Br14 Rb1 3.557388 1_555
Br14 Cs3 3.867716 1_555
Br14 Cs3 3.867716 1_655
Br14 Cs2 4.004077 1_545
Br15 Co0 2.397623 1_555
Br15 Rb3 3.519844 1_555
Br15 Rb0 3.557388 1_555
Br15 Cs2 3.867716 1_555
Br15 Cs2 3.867716 1_455
Br15 Cs3 4.004077 1_565
