# generated using pymatgen
data_Cs4MnZnTe4
_symmetry_space_group_name_H-M   'P 1'
_cell_length_a   9.38012208
_cell_length_b   9.38012240
_cell_length_c   9.38012238
_cell_angle_alpha   134.84730539
_cell_angle_beta   129.80638335
_cell_angle_gamma   69.79286025
_symmetry_Int_Tables_number   1
_chemical_formula_structural   Cs4MnZnTe4
_chemical_formula_sum   'Cs4 Mn1 Zn1 Te4'
_cell_volume   440.91128935
_cell_formula_units_Z   1
loop_
 _symmetry_equiv_pos_site_id
 _symmetry_equiv_pos_as_xyz
  1  'x, y, z'
loop_
 _atom_site_type_symbol
 _atom_site_label
 _atom_site_symmetry_multiplicity
 _atom_site_fract_x
 _atom_site_fract_y
 _atom_site_fract_z
 _atom_site_occupancy
  Cs  Cs0  1  0.96868966  0.64336433  0.32347807  1
  Cs  Cs1  1  0.68011474  0.85663567  0.82532533  1
  Cs  Cs2  1  0.31988526  0.14521059  0.17652193  1
  Cs  Cs3  1  0.03131034  0.35478941  0.67467467  1
  Mn  Mn0  1  0.50000000  0.75000000  0.25000000  1
  Zn  Zn0  1  0.50000000  0.25000000  0.75000000  1
  Te  Te0  1  0.57971174  0.39605458  0.17264411  1
  Te  Te1  1  0.22341047  0.90706764  0.32735589  1
  Te  Te2  1  0.77658953  0.10394542  0.68365717  1
  Te  Te3  1  0.42028826  0.59293236  0.81634283  1
loop_
_geom_bond_atom_site_label_1
_geom_bond_atom_site_label_2
_geom_bond_distance
_geom_bond_site_symmetry_2
Cs0 Te2 3.806435 1_554
Cs0 Zn0 3.848427 1_554
Cs0 Mn0 3.854647 1_555
Cs0 Te2 3.893078 1_565
Cs0 Te0 3.912064 1_555
Cs0 Te1 3.958964 1_655
Cs0 Te3 4.020772 1_655
Cs0 Te3 4.060765 1_554
Cs1 Te0 3.806438 1_566
Cs1 Zn0 3.848427 1_565
Cs1 Mn0 3.854644 1_555
Cs1 Te0 3.893074 1_555
Cs1 Te2 3.912058 1_565
Cs1 Te3 3.958972 1_555
Cs1 Te1 4.020767 1_656
Cs1 Te1 4.060768 1_555
Cs2 Te3 3.806432 1_555
Cs2 Zn0 3.848418 1_555
Cs2 Mn0 3.854638 1_545
Cs2 Te3 3.893075 1_544
Cs2 Te1 3.912050 1_545
Cs2 Te0 3.958979 1_555
Cs2 Te2 4.020769 1_454
Cs2 Te2 4.060763 1_555
Cs3 Te1 3.806438 1_545
Cs3 Zn0 3.848427 1_555
Cs3 Mn0 3.854644 1_556
Cs3 Te1 3.893074 1_556
Cs3 Te3 3.912058 1_555
Cs3 Te2 3.958972 1_455
Cs3 Te0 4.020767 1_455
Cs3 Te0 4.060768 1_556
Mn0 Te1 2.773124 1_555
Mn0 Te0 2.773124 1_555
Mn0 Te3 2.773124 1_554
Mn0 Te2 2.773124 1_565
Te0 Zn0 2.721135 1_554
Te1 Zn0 2.721135 1_565
Te2 Zn0 2.721135 1_555
Te3 Zn0 2.721135 1_555
