# generated using pymatgen
data_Lu12Fe2Bi2Mo
_symmetry_space_group_name_H-M   'P 1'
_cell_length_a   8.27647505
_cell_length_b   8.27647598
_cell_length_c   8.27647444
_cell_angle_alpha   108.64108252
_cell_angle_beta   108.64107379
_cell_angle_gamma   111.14457718
_symmetry_Int_Tables_number   1
_chemical_formula_structural   Lu12Fe2Bi2Mo
_chemical_formula_sum   'Lu12 Fe2 Bi2 Mo1'
_cell_volume   436.14964187
_cell_formula_units_Z   1
loop_
 _symmetry_equiv_pos_site_id
 _symmetry_equiv_pos_as_xyz
  1  'x, y, z'
loop_
 _atom_site_type_symbol
 _atom_site_label
 _atom_site_symmetry_multiplicity
 _atom_site_fract_x
 _atom_site_fract_y
 _atom_site_fract_z
 _atom_site_occupancy
  Lu  Lu0  1  0.30942167  0.30942167  0.61884234  1
  Lu  Lu1  1  0.69057833  0.69057833  0.38115766  1
  Lu  Lu2  1  0.69057833  0.30942167  0.00000000  1
  Lu  Lu3  1  0.30942167  0.69057833  1.00000000  1
  Lu  Lu4  1  0.19506189  0.42958325  0.23452036  1
  Lu  Lu5  1  0.80493811  0.57041675  0.76547964  1
  Lu  Lu6  1  0.19506189  0.96054053  0.76547964  1
  Lu  Lu7  1  0.96054053  0.19506189  0.76547964  1
  Lu  Lu8  1  0.80493811  0.03945947  0.23452036  1
  Lu  Lu9  1  0.03945947  0.80493811  0.23452036  1
  Lu  Lu10  1  0.42958325  0.19506189  0.23452036  1
  Lu  Lu11  1  0.57041675  0.80493811  0.76547964  1
  Fe  Fe0  1  0.37908422  0.37908422  1.00000000  1
  Fe  Fe1  1  0.62091578  0.62091578  0.00000000  1
  Bi  Bi0  1  0.00000000  0.50000000  0.50000000  1
  Bi  Bi1  1  0.50000000  0.00000000  0.50000000  1
  Mo  Mo0  1  0.00000000  0.00000000  0.00000000  1
loop_
_geom_bond_atom_site_label_1
_geom_bond_atom_site_label_2
_geom_bond_distance
_geom_bond_site_symmetry_2
Lu4 Mo0 2.908424 1_555
Lu5 Mo0 2.908424 1_666
Lu6 Mo0 2.908418 1_566
Lu7 Mo0 2.908418 1_656
Lu8 Mo0 2.908418 1_655
Lu9 Mo0 2.908418 1_565
Lu10 Mo0 2.908424 1_555
Lu11 Mo0 2.908424 1_666
Fe0 Fe1 2.263175 1_556
Fe0 Lu2 2.837473 1_556
Fe0 Lu3 2.837473 1_555
Fe0 Lu1 2.837477 1_556
Fe0 Lu0 2.837480 1_555
Fe0 Lu4 2.844710 1_556
Fe0 Lu10 2.844710 1_556
Fe0 Lu7 2.844716 1_455
Fe0 Lu6 2.844716 1_545
Fe1 Lu3 2.837473 1_554
Fe1 Lu2 2.837473 1_555
Fe1 Lu0 2.837477 1_554
Fe1 Lu1 2.837480 1_555
Fe1 Lu5 2.844710 1_554
Fe1 Lu11 2.844710 1_554
Fe1 Lu9 2.844716 1_655
Fe1 Lu8 2.844716 1_565
Bi0 Lu6 3.146697 1_555
Bi0 Lu8 3.146697 1_455
Bi0 Lu5 3.146702 1_455
Bi0 Lu4 3.146702 1_555
Bi0 Lu1 3.508478 1_455
Bi0 Lu0 3.508478 1_555
Bi0 Lu3 3.508479 1_555
Bi0 Lu2 3.508479 1_455
Bi0 Lu11 3.835783 1_555
Bi0 Lu10 3.835783 1_455
Bi0 Lu9 3.835790 1_555
Bi0 Lu7 3.835790 1_455
Bi1 Lu7 3.146697 1_555
Bi1 Lu9 3.146697 1_545
Bi1 Lu11 3.146702 1_545
Bi1 Lu10 3.146702 1_555
Bi1 Lu0 3.508478 1_555
Bi1 Lu1 3.508478 1_545
Bi1 Lu2 3.508479 1_556
Bi1 Lu3 3.508479 1_544
Bi1 Lu5 3.835783 1_555
Bi1 Lu4 3.835783 1_545
Bi1 Lu8 3.835789 1_555
Bi1 Lu6 3.835789 1_545
