# generated using pymatgen
data_Ca10ZnHg2Pd3
_symmetry_space_group_name_H-M   'P 1'
_cell_length_a   9.20046033
_cell_length_b   9.20045927
_cell_length_c   9.16586736
_cell_angle_alpha   129.18953015
_cell_angle_beta   129.18952396
_cell_angle_gamma   74.98786381
_symmetry_Int_Tables_number   1
_chemical_formula_structural   Ca10ZnHg2Pd3
_chemical_formula_sum   'Ca10 Zn1 Hg2 Pd3'
_cell_volume   453.20072967
_cell_formula_units_Z   1
loop_
 _symmetry_equiv_pos_site_id
 _symmetry_equiv_pos_as_xyz
  1  'x, y, z'
loop_
 _atom_site_type_symbol
 _atom_site_label
 _atom_site_symmetry_multiplicity
 _atom_site_fract_x
 _atom_site_fract_y
 _atom_site_fract_z
 _atom_site_occupancy
  Ca  Ca0  1  0.52445602  0.02445602  0.82700046  1
  Ca  Ca1  1  0.19259142  0.69259142  0.16169835  1
  Ca  Ca2  1  0.03598199  0.19081464  0.50573775  1
  Ca  Ca3  1  0.69081464  0.53598199  0.50573775  1
  Ca  Ca4  1  0.46910693  0.96910693  0.16169835  1
  Ca  Ca5  1  0.80254444  0.30254444  0.82700046  1
  Ca  Ca6  1  0.96975576  0.81492311  0.50573775  1
  Ca  Ca7  1  0.31492311  0.46975576  0.50573775  1
  Ca  Ca8  1  0.49486502  0.50282129  0.99768731  1
  Ca  Ca9  1  0.00282129  0.99486502  0.99768731  1
  Zn  Zn0  1  0.88318571  0.38318571  0.26637241  1
  Hg  Hg0  1  0.25179563  0.25179563  0.00359027  1
  Hg  Hg1  1  0.75179563  0.75179563  0.00359027  1
  Pd  Pd0  1  0.62446375  0.87553820  0.50000195  1
  Pd  Pd1  1  0.37553820  0.12446375  0.50000195  1
  Pd  Pd2  1  0.11536046  0.61536046  0.73072092  1
loop_
_geom_bond_atom_site_label_1
_geom_bond_atom_site_label_2
_geom_bond_distance
_geom_bond_site_symmetry_2
Ca0 Pd0 3.057711 1_545
Ca0 Pd1 3.057711 1_555
Ca0 Zn0 3.170553 1_556
Ca0 Hg1 3.379728 1_546
Ca0 Hg0 3.379728 1_556
Ca0 Ca8 3.620473 1_555
Ca0 Ca9 3.620473 1_645
Ca0 Ca1 3.687851 1_545
Ca0 Ca4 3.743393 1_546
Ca1 Pd1 3.087751 1_565
Ca1 Pd0 3.087752 1_555
Ca1 Pd2 3.127533 1_554
Ca1 Hg0 3.357056 1_555
Ca1 Hg1 3.357057 1_455
Ca1 Ca9 3.534636 1_554
Ca1 Ca8 3.534636 1_554
Ca1 Ca5 3.743393 1_454
Ca2 Pd1 3.051932 1_555
Ca2 Pd2 3.072107 1_555
Ca2 Zn0 3.105320 1_455
Ca2 Hg0 3.312315 1_556
Ca2 Hg1 3.332176 1_445
Ca2 Ca8 3.501258 1_555
Ca2 Ca9 3.592778 1_544
Ca3 Pd0 3.051932 1_555
Ca3 Pd2 3.072107 1_655
Ca3 Zn0 3.105320 1_555
Ca3 Hg1 3.312315 1_556
Ca3 Hg0 3.332176 1_555
Ca3 Ca9 3.501258 1_655
Ca3 Ca8 3.592779 1_554
Ca4 Pd1 3.087752 1_565
Ca4 Pd0 3.087752 1_555
Ca4 Pd2 3.127533 1_554
Ca4 Hg0 3.357063 1_565
Ca4 Hg1 3.357064 1_555
Ca4 Ca8 3.534644 1_554
Ca4 Ca9 3.534644 1_554
Ca4 Ca5 3.687851 1_565
Ca5 Pd0 3.057711 1_545
Ca5 Pd1 3.057711 1_555
Ca5 Zn0 3.170562 1_556
Ca5 Hg1 3.379735 1_556
Ca5 Hg0 3.379735 1_656
Ca5 Ca9 3.620481 1_645
Ca5 Ca8 3.620481 1_555
Ca6 Pd0 3.051932 1_555
Ca6 Pd2 3.072107 1_655
Ca6 Zn0 3.105329 1_555
Ca6 Hg0 3.312322 1_666
Ca6 Hg1 3.332183 1_555
Ca6 Ca9 3.501267 1_655
Ca6 Ca8 3.592787 1_554
Ca7 Pd1 3.051932 1_555
Ca7 Pd2 3.072107 1_555
Ca7 Zn0 3.105329 1_455
Ca7 Hg1 3.312322 1_556
Ca7 Hg0 3.332183 1_555
Ca7 Ca8 3.501267 1_555
Ca7 Ca9 3.592786 1_544
Ca8 Pd0 3.099422 1_556
Ca8 Pd1 3.116852 1_555
Ca8 Pd2 3.127723 1_555
Ca8 Zn0 3.210915 1_556
Ca8 Hg0 3.650308 1_556
Ca8 Hg1 3.650338 1_556
Ca9 Pd1 3.099422 1_566
Ca9 Pd0 3.116852 1_455
Ca9 Pd2 3.127722 1_555
Ca9 Zn0 3.210914 1_466
Ca9 Hg1 3.650308 1_456
Ca9 Hg0 3.650338 1_566
Pd0 Pd1 2.788022 1_565
Pd2 Zn0 2.573928 1_455
