# generated using pymatgen
data_NaFeI4
_symmetry_space_group_name_H-M   'P 1'
_cell_length_a   8.22844694
_cell_length_b   8.15630687
_cell_length_c   14.77349256
_cell_angle_alpha   90.00000000
_cell_angle_beta   90.00000000
_cell_angle_gamma   90.00000000
_symmetry_Int_Tables_number   1
_chemical_formula_structural   NaFeI4
_chemical_formula_sum   'Na4 Fe4 I16'
_cell_volume   991.50431322
_cell_formula_units_Z   4
loop_
 _symmetry_equiv_pos_site_id
 _symmetry_equiv_pos_as_xyz
  1  'x, y, z'
loop_
 _atom_site_type_symbol
 _atom_site_label
 _atom_site_symmetry_multiplicity
 _atom_site_fract_x
 _atom_site_fract_y
 _atom_site_fract_z
 _atom_site_occupancy
  Na  Na0  1  0.54983994  0.75000000  0.84596675  1
  Na  Na1  1  0.45016006  0.25000000  0.15403325  1
  Na  Na2  1  0.04983994  0.25000000  0.65403325  1
  Na  Na3  1  0.95016006  0.75000000  0.34596675  1
  Fe  Fe0  1  0.80504776  0.75000000  0.60162919  1
  Fe  Fe1  1  0.19495224  0.25000000  0.39837081  1
  Fe  Fe2  1  0.30504776  0.25000000  0.89837081  1
  Fe  Fe3  1  0.69495224  0.75000000  0.10162919  1
  I  I0  1  0.10168910  0.75000000  0.55163767  1
  I  I1  1  0.89831090  0.25000000  0.44836233  1
  I  I2  1  0.60168910  0.25000000  0.94836233  1
  I  I3  1  0.39831090  0.75000000  0.05163767  1
  I  I4  1  0.74309585  0.49999177  0.70154097  1
  I  I5  1  0.25690415  0.50000823  0.29845903  1
  I  I6  1  0.24309585  0.50000823  0.79845903  1
  I  I7  1  0.25690415  0.99999177  0.29845903  1
  I  I8  1  0.75690415  0.49999177  0.20154097  1
  I  I9  1  0.74309585  0.00000823  0.70154097  1
  I  I10  1  0.75690415  0.00000823  0.20154097  1
  I  I11  1  0.24309585  0.99999177  0.79845903  1
  I  I12  1  0.87761597  0.75000000  0.96376444  1
  I  I13  1  0.12238403  0.25000000  0.03623556  1
  I  I14  1  0.37761597  0.25000000  0.53623556  1
  I  I15  1  0.62238403  0.75000000  0.46376444  1
loop_
_geom_bond_atom_site_label_1
_geom_bond_atom_site_label_2
_geom_bond_distance
_geom_bond_site_symmetry_2
Fe0 I15 2.531294 1_555
Fe0 I0 2.550183 1_655
Fe0 I9 2.568401 1_565
Fe0 I4 2.568401 1_555
Fe1 I14 2.531294 1_555
Fe1 I1 2.550183 1_455
Fe1 I5 2.568401 1_555
Fe1 I7 2.568401 1_545
Fe2 I13 2.531294 1_556
Fe2 I2 2.550183 1_555
Fe2 I6 2.568401 1_555
Fe2 I11 2.568401 1_545
Fe3 I12 2.531294 1_554
Fe3 I3 2.550183 1_555
Fe3 I10 2.568401 1_565
Fe3 I8 2.568401 1_555
I0 Na3 3.284354 1_455
I1 Na2 3.284354 1_655
I2 Na1 3.284354 1_556
I3 Na0 3.284354 1_554
I4 Na2 3.319770 1_655
I4 Na0 3.352520 1_555
I5 Na3 3.319770 1_455
I5 Na1 3.352520 1_555
I6 Na0 3.319770 1_555
I6 Na2 3.352520 1_555
I7 Na3 3.319770 1_455
I7 Na1 3.352520 1_565
I8 Na1 3.319770 1_555
I8 Na3 3.352520 1_555
I9 Na2 3.319770 1_655
I9 Na0 3.352520 1_545
I10 Na1 3.319770 1_555
I10 Na3 3.352520 1_545
I11 Na0 3.319770 1_555
I11 Na2 3.352520 1_565
I12 Na0 3.209808 1_555
I13 Na1 3.209808 1_555
I14 Na2 3.209808 1_555
I15 Na3 3.209808 1_555
