# generated using pymatgen
data_Rb4In3FeBr16
_symmetry_space_group_name_H-M   'P 1'
_cell_length_a   8.09547487
_cell_length_b   10.65679494
_cell_length_c   10.70740003
_cell_angle_alpha   90.00000000
_cell_angle_beta   89.81199193
_cell_angle_gamma   90.00000000
_symmetry_Int_Tables_number   1
_chemical_formula_structural   Rb4In3FeBr16
_chemical_formula_sum   'Rb4 In3 Fe1 Br16'
_cell_volume   923.74186805
_cell_formula_units_Z   1
loop_
 _symmetry_equiv_pos_site_id
 _symmetry_equiv_pos_as_xyz
  1  'x, y, z'
loop_
 _atom_site_type_symbol
 _atom_site_label
 _atom_site_symmetry_multiplicity
 _atom_site_fract_x
 _atom_site_fract_y
 _atom_site_fract_z
 _atom_site_occupancy
  Rb  Rb0  1  0.68112417  0.74633968  0.74983389  1
  Rb  Rb1  1  0.32316847  0.24972351  0.24636222  1
  Rb  Rb2  1  0.81887583  0.74633968  0.25016611  1
  Rb  Rb3  1  0.17683153  0.24972351  0.75363778  1
  In  In0  1  0.25000000  0.68763867  0.00000000  1
  In  In1  1  0.75000000  0.17998863  0.50000000  1
  In  In2  1  0.25000000  0.81676814  0.50000000  1
  Fe  Fe0  1  0.75000000  0.31648315  0.00000000  1
  Br  Br0  1  0.82579542  0.44020175  0.82759420  1
  Br  Br1  1  0.17030947  0.55607666  0.18677912  1
  Br  Br2  1  0.67420458  0.44020175  0.17240580  1
  Br  Br3  1  0.66025387  0.04765956  0.31676925  1
  Br  Br4  1  0.32969053  0.55607666  0.81322088  1
  Br  Br5  1  0.33965610  0.94760440  0.68459821  1
  Br  Br6  1  0.83974613  0.04765956  0.68323075  1
  Br  Br7  1  0.16034390  0.94760440  0.31540179  1
  Br  Br8  1  0.00144028  0.82485734  0.95825131  1
  Br  Br9  1  0.97928485  0.18964611  0.04676472  1
  Br  Br10  1  0.49855972  0.82485734  0.04174869  1
  Br  Br11  1  0.49680609  0.67784099  0.45608713  1
  Br  Br12  1  0.52071515  0.18964611  0.95323528  1
  Br  Br13  1  0.50357732  0.31960970  0.54367871  1
  Br  Br14  1  0.00319391  0.67784099  0.54391287  1
  Br  Br15  1  0.99642268  0.31960970  0.45632129  1
loop_
_geom_bond_atom_site_label_1
_geom_bond_atom_site_label_2
_geom_bond_distance
_geom_bond_site_symmetry_2
Br0 Fe0 2.348435 1_556
Br0 Rb0 3.565793 1_555
Br0 Rb3 3.578911 1_655
Br1 In0 2.524498 1_555
Br1 Rb1 3.549939 1_555
Br1 Rb2 3.557143 1_455
Br2 Fe0 2.348435 1_555
Br2 Rb2 3.565793 1_555
Br2 Rb1 3.578911 1_555
Br3 In1 2.524883 1_555
Br3 Rb2 3.530258 1_545
Br3 Rb1 3.558859 1_555
Br4 In0 2.524498 1_556
Br4 Rb3 3.549939 1_555
Br4 Rb0 3.557143 1_555
Br5 In2 2.527269 1_555
Br5 Rb3 3.555775 1_565
Br5 Rb0 3.569666 1_555
Br6 In1 2.524883 1_555
Br6 Rb0 3.530258 1_545
Br6 Rb3 3.558859 1_655
Br7 In2 2.527269 1_555
Br7 Rb1 3.555775 1_565
Br7 Rb2 3.569666 1_455
Br8 In0 2.528452 1_556
Br8 Rb0 3.527382 1_455
Br8 Rb2 3.553003 1_456
Br9 Fe0 2.351430 1_555
Br9 Rb1 3.573030 1_655
Br9 Rb3 3.575680 1_654
Br10 In0 2.528452 1_555
Br10 Rb2 3.527382 1_555
Br10 Rb0 3.553003 1_554
Br11 In2 2.529605 1_555
Br11 Rb2 3.486356 1_555
Br11 Rb0 3.561298 1_555
Br12 Fe0 2.351430 1_556
Br12 Rb3 3.573030 1_555
Br12 Rb1 3.575680 1_556
Br13 In1 2.531038 1_555
Br13 Rb3 3.544934 1_555
Br13 Rb1 3.585083 1_555
Br14 In2 2.529605 1_555
Br14 Rb0 3.486356 1_455
Br14 Rb2 3.561298 1_455
Br15 In1 2.531038 1_555
Br15 Rb1 3.544934 1_655
Br15 Rb3 3.585083 1_655
