# generated using pymatgen
data_LiAlPdO4
_symmetry_space_group_name_H-M   'P 1'
_cell_length_a   5.82830662
_cell_length_b   5.82830584
_cell_length_c   5.82830672
_cell_angle_alpha   121.88854425
_cell_angle_beta   118.52528364
_cell_angle_gamma   89.66681102
_symmetry_Int_Tables_number   1
_chemical_formula_structural   LiAlPdO4
_chemical_formula_sum   'Li2 Al2 Pd2 O8'
_cell_volume   139.40310129
_cell_formula_units_Z   2
loop_
 _symmetry_equiv_pos_site_id
 _symmetry_equiv_pos_as_xyz
  1  'x, y, z'
loop_
 _atom_site_type_symbol
 _atom_site_label
 _atom_site_symmetry_multiplicity
 _atom_site_fract_x
 _atom_site_fract_y
 _atom_site_fract_z
 _atom_site_occupancy
  Li  Li0  1  0.11096516  0.86096516  0.25000000  1
  Li  Li1  1  0.88903484  0.13903484  0.75000000  1
  Al  Al0  1  0.50000000  0.50000000  0.50000000  1
  Al  Al1  1  0.50000000  0.00000000  0.00000000  1
  Pd  Pd0  1  0.50000000  0.50000000  0.00000000  1
  Pd  Pd1  1  0.00000000  0.50000000  0.50000000  1
  O  O0  1  0.73163331  0.24632371  0.01468940  1
  O  O1  1  0.73163331  0.71694292  0.48531060  1
  O  O2  1  0.72144709  0.25747011  0.46397697  1
  O  O3  1  0.29349314  0.25747011  0.03602303  1
  O  O4  1  0.26836669  0.75367629  0.98531060  1
  O  O5  1  0.26836669  0.28305708  0.51468940  1
  O  O6  1  0.27855291  0.74252989  0.53602303  1
  O  O7  1  0.70650686  0.74252989  0.96397697  1
loop_
_geom_bond_atom_site_label_1
_geom_bond_atom_site_label_2
_geom_bond_distance
_geom_bond_site_symmetry_2
Li0 O6 1.965271 1_555
Li0 O7 1.965271 1_454
Li0 O4 1.984519 1_554
Li0 O5 1.984524 1_565
Li1 O2 1.965271 1_555
Li1 O3 1.965271 1_656
Li1 O0 1.984519 1_556
Li1 O1 1.984524 1_545
Al0 O6 1.905784 1_555
Al0 O2 1.905784 1_555
Al0 O7 1.905785 1_555
Al0 O3 1.905785 1_555
Al0 O5 1.916575 1_555
Al0 O1 1.916575 1_555
Al1 O3 1.905784 1_555
Al1 O7 1.905784 1_544
Al1 O2 1.905785 1_555
Al1 O6 1.905785 1_544
Al1 O0 1.916583 1_555
Al1 O4 1.916583 1_544
O0 Pd0 2.003999 1_555
O0 Pd1 2.004004 1_655
O1 Pd1 2.004000 1_655
O1 Pd0 2.004005 1_555
O2 Pd1 2.016304 1_655
O3 Pd0 2.016304 1_555
O4 Pd0 2.003999 1_556
O4 Pd1 2.004004 1_555
O5 Pd1 2.004000 1_555
O5 Pd0 2.004005 1_556
O6 Pd1 2.016304 1_555
O7 Pd0 2.016304 1_556
