# generated using pymatgen
data_Rb3Cr(AsSe2)6
_symmetry_space_group_name_H-M   'P 1'
_cell_length_a   9.76596762
_cell_length_b   9.76596909
_cell_length_c   8.20799930
_cell_angle_alpha   90.00000000
_cell_angle_beta   90.00000000
_cell_angle_gamma   120.00000121
_symmetry_Int_Tables_number   1
_chemical_formula_structural   Rb3Cr(AsSe2)6
_chemical_formula_sum   'Rb3 Cr1 As6 Se12'
_cell_volume   677.95140095
_cell_formula_units_Z   1
loop_
 _symmetry_equiv_pos_site_id
 _symmetry_equiv_pos_as_xyz
  1  'x, y, z'
loop_
 _atom_site_type_symbol
 _atom_site_label
 _atom_site_symmetry_multiplicity
 _atom_site_fract_x
 _atom_site_fract_y
 _atom_site_fract_z
 _atom_site_occupancy
  Rb  Rb0  1  0.00000000  0.00000000  0.00000000  1
  Rb  Rb1  1  0.33333300  0.66666700  0.85720680  1
  Rb  Rb2  1  0.66666700  0.33333300  0.14279320  1
  Cr  Cr0  1  0.00000000  0.00000000  0.50000000  1
  As  As0  1  0.27482800  0.82873456  0.40165821  1
  As  As1  1  0.17126544  0.44609344  0.40165821  1
  As  As2  1  0.55390656  0.72517200  0.40165821  1
  As  As3  1  0.72517200  0.17126544  0.59834179  1
  As  As4  1  0.82873456  0.55390656  0.59834179  1
  As  As5  1  0.44609344  0.27482800  0.59834179  1
  Se  Se0  1  0.22812415  0.03197612  0.31642189  1
  Se  Se1  1  0.96802388  0.19614903  0.31642189  1
  Se  Se2  1  0.80385097  0.77187585  0.31642189  1
  Se  Se3  1  0.77187585  0.96802388  0.68357811  1
  Se  Se4  1  0.03197612  0.80385097  0.68357811  1
  Se  Se5  1  0.19614903  0.22812415  0.68357811  1
  Se  Se6  1  0.51626079  0.91454103  0.23881956  1
  Se  Se7  1  0.08545897  0.60171877  0.23881956  1
  Se  Se8  1  0.39828123  0.48373921  0.23881956  1
  Se  Se9  1  0.48373921  0.08545897  0.76118044  1
  Se  Se10  1  0.91454103  0.39828123  0.76118044  1
  Se  Se11  1  0.60171877  0.51626079  0.76118044  1
loop_
_geom_bond_atom_site_label_1
_geom_bond_atom_site_label_2
_geom_bond_distance
_geom_bond_site_symmetry_2
Rb0 Se0 3.333247 1_555
Rb0 Se3 3.333247 1_444
Rb0 Se2 3.333250 1_445
Rb0 Se5 3.333250 1_554
Rb0 Se1 3.333253 1_455
Rb0 Se4 3.333253 1_544
Rb1 Se10 3.674049 1_455
Rb1 Se11 3.674049 1_555
Rb1 Se9 3.674049 1_565
Rb1 Se7 3.812870 1_556
Rb1 Se6 3.812874 1_556
Rb1 Se8 3.812881 1_556
Rb1 Se4 4.053432 1_555
Rb1 Se3 4.053446 1_555
Rb1 Se5 4.053450 1_555
Rb2 Se7 3.674049 1_655
Rb2 Se8 3.674049 1_555
Rb2 Se6 3.674049 1_545
Rb2 Se10 3.812870 1_554
Rb2 Se9 3.812874 1_554
Rb2 Se11 3.812881 1_554
Rb2 Se1 4.053432 1_555
Rb2 Se0 4.053446 1_555
Rb2 Se2 4.053450 1_555
Cr0 Se0 2.575968 1_555
Cr0 Se3 2.575968 1_445
Cr0 Se5 2.575971 1_555
Cr0 Se2 2.575971 1_445
Cr0 Se4 2.575976 1_545
Cr0 Se1 2.575976 1_455
As0 Se0 2.354239 1_565
As0 Se7 2.453921 1_555
As0 Se6 2.464180 1_555
As1 Se1 2.354233 1_455
As1 Se8 2.453924 1_555
As1 Se7 2.464172 1_555
As2 Se2 2.354230 1_555
As2 Se6 2.453916 1_555
As2 Se8 2.464178 1_555
As3 Se3 2.354239 1_545
As3 Se10 2.453921 1_555
As3 Se9 2.464180 1_555
As4 Se4 2.354233 1_655
As4 Se11 2.453924 1_555
As4 Se10 2.464172 1_555
As5 Se5 2.354230 1_555
As5 Se9 2.453916 1_555
As5 Se11 2.464178 1_555
