# generated using pymatgen
data_Nb(NiP4)4
_symmetry_space_group_name_H-M   'P 1'
_cell_length_a   10.28966156
_cell_length_b   10.28966156
_cell_length_c   11.22665851
_cell_angle_alpha   79.76400306
_cell_angle_beta   79.76400306
_cell_angle_gamma   32.30562223
_symmetry_Int_Tables_number   1
_chemical_formula_structural   Nb(NiP4)4
_chemical_formula_sum   'Nb2 Ni8 P32'
_cell_volume   624.28838920
_cell_formula_units_Z   2
loop_
 _symmetry_equiv_pos_site_id
 _symmetry_equiv_pos_as_xyz
  1  'x, y, z'
loop_
 _atom_site_type_symbol
 _atom_site_label
 _atom_site_symmetry_multiplicity
 _atom_site_fract_x
 _atom_site_fract_y
 _atom_site_fract_z
 _atom_site_occupancy
  Nb  Nb0  1  0.39409700  0.60590300  0.75000000  1
  Nb  Nb1  1  0.60590300  0.39409700  0.25000000  1
  Ni  Ni0  1  0.19566300  0.30572100  0.62913400  1
  Ni  Ni1  1  0.69427900  0.80433700  0.87086600  1
  Ni  Ni2  1  0.80433700  0.69427900  0.37086600  1
  Ni  Ni3  1  0.30572100  0.19566300  0.12913400  1
  Ni  Ni4  1  0.98750400  0.79791200  0.07352800  1
  Ni  Ni5  1  0.20208800  0.01249600  0.42647200  1
  Ni  Ni6  1  0.01249600  0.20208800  0.92647200  1
  Ni  Ni7  1  0.79791200  0.98750400  0.57352800  1
  P  P0  1  0.73958400  0.25248000  0.60492700  1
  P  P1  1  0.74752100  0.26041600  0.89507300  1
  P  P2  1  0.26041600  0.74752100  0.39507300  1
  P  P3  1  0.25247900  0.73958400  0.10492700  1
  P  P4  1  0.62587700  0.62062900  0.66095800  1
  P  P5  1  0.37937100  0.37412300  0.83904200  1
  P  P6  1  0.37412300  0.37937100  0.33904200  1
  P  P7  1  0.62062900  0.62587700  0.16095800  1
  P  P8  1  0.01186000  0.27199300  0.71943700  1
  P  P9  1  0.72800700  0.98814000  0.78056300  1
  P  P10  1  0.88808600  0.98580500  0.36873300  1
  P  P11  1  0.01419500  0.11191400  0.13126700  1
  P  P12  1  0.11191400  0.01419500  0.63126700  1
  P  P13  1  0.98580500  0.88808600  0.86873300  1
  P  P14  1  0.65870200  0.21436800  0.07940900  1
  P  P15  1  0.78563200  0.34129800  0.42059100  1
  P  P16  1  0.34129800  0.78563200  0.92059100  1
  P  P17  1  0.21436800  0.65870200  0.57940900  1
  P  P18  1  0.32098500  0.39497900  0.04163500  1
  P  P19  1  0.60502100  0.67901500  0.45836500  1
  P  P20  1  0.67901500  0.60502100  0.95836500  1
  P  P21  1  0.39497900  0.32098500  0.54163500  1
  P  P22  1  0.72139800  0.85351000  0.05341100  1
  P  P23  1  0.14649000  0.27860200  0.44658900  1
  P  P24  1  0.27860200  0.14649000  0.94658900  1
  P  P25  1  0.85351000  0.72139800  0.55341100  1
  P  P26  1  0.44076400  0.11397200  0.31318800  1
  P  P27  1  0.88602800  0.55923600  0.18681200  1
  P  P28  1  0.55923600  0.88602800  0.68681200  1
  P  P29  1  0.11397200  0.44076400  0.81318800  1
  P  P30  1  0.27199300  0.01186000  0.21943700  1
  P  P31  1  0.98814000  0.72800700  0.28056300  1
loop_
_geom_bond_atom_site_label_1
_geom_bond_atom_site_label_2
_geom_bond_distance
_geom_bond_site_symmetry_2
Nb0 P5 2.533753 1_555
Nb0 P4 2.533753 1_555
Nb0 P17 2.563924 1_555
Nb0 P16 2.563924 1_555
Nb0 P13 2.573383 1_455
Nb0 P12 2.573383 1_565
Nb0 P0 2.590134 1_555
Nb0 P1 2.590137 1_555
Nb1 P6 2.533753 1_555
Nb1 P7 2.533753 1_555
Nb1 P14 2.563924 1_555
Nb1 P15 2.563924 1_555
Nb1 P10 2.573383 1_545
Nb1 P11 2.573383 1_655
Nb1 P3 2.590137 1_555
Nb1 P2 2.590137 1_555
Ni0 P21 2.229227 1_555
Ni0 P8 2.242361 1_555
Ni0 P29 2.309928 1_555
Ni0 P23 2.311761 1_555
Ni0 P28 2.370940 1_545
Ni0 P25 2.393379 1_455
Ni1 P20 2.229227 1_555
Ni1 P9 2.242361 1_555
Ni1 P28 2.309928 1_555
Ni1 P22 2.311761 1_556
Ni1 P29 2.370940 1_655
Ni1 P24 2.393379 1_565
Ni2 P19 2.229227 1_555
Ni2 P31 2.242361 1_555
Ni2 P27 2.309928 1_555
Ni2 P25 2.311761 1_555
Ni2 P26 2.370940 1_565
Ni2 P23 2.393379 1_655
Ni3 P18 2.229227 1_555
Ni3 P30 2.242361 1_555
Ni3 P26 2.309928 1_555
Ni3 P24 2.311761 1_554
Ni3 P27 2.370940 1_455
Ni3 P22 2.393379 1_545
Ni4 P18 2.265874 1_655
Ni4 P31 2.307187 1_555
Ni4 P14 2.308091 1_565
Ni4 P13 2.318633 1_554
Ni4 P22 2.324137 1_555
Ni4 P3 2.327770 1_655
Ni5 P19 2.265874 1_545
Ni5 P30 2.307187 1_555
Ni5 P15 2.308091 1_455
Ni5 P12 2.318633 1_555
Ni5 P23 2.324137 1_555
Ni5 P2 2.327770 1_545
Ni6 P20 2.265874 1_455
Ni6 P8 2.307187 1_555
Ni6 P16 2.308091 1_545
Ni6 P11 2.318633 1_556
Ni6 P24 2.324137 1_555
Ni6 P1 2.327770 1_455
Ni7 P21 2.265874 1_565
Ni7 P9 2.307187 1_555
Ni7 P17 2.308091 1_655
Ni7 P10 2.318633 1_555
Ni7 P25 2.324137 1_555
Ni7 P0 2.327780 1_565
P0 P12 2.245631 1_655
P0 P15 2.248062 1_555
P1 P13 2.245635 1_545
P1 P14 2.248066 1_556
P4 P8 2.253700 1_655
P5 P9 2.253700 1_545
P10 P31 2.242954 1_555
P10 P2 2.245635 1_655
P11 P30 2.242954 1_555
P11 P3 2.245635 1_545
P12 P8 2.242954 1_555
P13 P9 2.242954 1_555
P14 P18 2.244117 1_555
P15 P19 2.244117 1_555
P16 P20 2.244117 1_555
P16 P3 2.248066 1_556
P17 P21 2.244117 1_555
P17 P2 2.248066 1_555
P18 P5 2.247213 1_554
P19 P4 2.247213 1_555
P20 P7 2.247213 1_556
P21 P6 2.247213 1_555
P22 P27 2.213682 1_555
P23 P26 2.213682 1_555
P24 P29 2.213682 1_555
P25 P28 2.213682 1_555
P26 P6 2.248908 1_555
P27 P7 2.248908 1_555
P28 P4 2.248908 1_555
P29 P5 2.248908 1_555
P30 P7 2.253700 1_545
P31 P6 2.253700 1_655
