# generated using pymatgen
data_LiHg2(P3Pd10)2
_symmetry_space_group_name_H-M   'P 1'
_cell_length_a   8.53280574
_cell_length_b   8.53280573
_cell_length_c   8.53280562
_cell_angle_alpha   60.00000039
_cell_angle_beta   60.00000043
_cell_angle_gamma   59.99999369
_symmetry_Int_Tables_number   1
_chemical_formula_structural   LiHg2(P3Pd10)2
_chemical_formula_sum   'Li1 Hg2 P6 Pd20'
_cell_volume   439.29934200
_cell_formula_units_Z   1
loop_
 _symmetry_equiv_pos_site_id
 _symmetry_equiv_pos_as_xyz
  1  'x, y, z'
loop_
 _atom_site_type_symbol
 _atom_site_label
 _atom_site_symmetry_multiplicity
 _atom_site_fract_x
 _atom_site_fract_y
 _atom_site_fract_z
 _atom_site_occupancy
  Li  Li0  1  0.00000000  0.00000000  0.00000000  1
  Hg  Hg0  1  0.25000000  0.25000000  0.25000000  1
  Hg  Hg1  1  0.75000000  0.75000000  0.75000000  1
  P  P0  1  0.73661627  0.73661627  0.26338373  1
  P  P1  1  0.26338373  0.26338373  0.73661627  1
  P  P2  1  0.26338373  0.73661627  0.73661627  1
  P  P3  1  0.73661627  0.26338373  0.73661627  1
  P  P4  1  0.26338373  0.73661627  0.26338373  1
  P  P5  1  0.73661627  0.26338373  0.26338373  1
  Pd  Pd0  1  0.61601202  0.61601202  0.61601202  1
  Pd  Pd1  1  0.38398798  0.84803305  0.38398798  1
  Pd  Pd2  1  0.65762163  0.34237837  0.00000000  1
  Pd  Pd3  1  0.00000000  0.34237837  0.65762163  1
  Pd  Pd4  1  0.65762163  1.00000000  0.00000000  1
  Pd  Pd5  1  0.61601202  0.61601202  0.15196695  1
  Pd  Pd6  1  0.00000000  0.00000000  0.65762163  1
  Pd  Pd7  1  0.00000000  0.34237837  1.00000000  1
  Pd  Pd8  1  0.65762163  1.00000000  0.34237837  1
  Pd  Pd9  1  0.34237837  0.00000000  1.00000000  1
  Pd  Pd10  1  1.00000000  0.65762163  0.00000000  1
  Pd  Pd11  1  0.34237837  0.00000000  0.65762163  1
  Pd  Pd12  1  1.00000000  0.65762163  0.34237837  1
  Pd  Pd13  1  0.34237837  0.65762163  0.00000000  1
  Pd  Pd14  1  0.15196695  0.61601202  0.61601202  1
  Pd  Pd15  1  0.38398798  0.38398798  0.38398798  1
  Pd  Pd16  1  0.84803305  0.38398798  0.38398798  1
  Pd  Pd17  1  0.38398798  0.38398798  0.84803305  1
  Pd  Pd18  1  0.61601202  0.15196695  0.61601202  1
  Pd  Pd19  1  0.00000000  0.00000000  0.34237837  1
loop_
_geom_bond_atom_site_label_1
_geom_bond_atom_site_label_2
_geom_bond_distance
_geom_bond_site_symmetry_2
Li0 Pd13 2.921448 1_545
Li0 Pd2 2.921448 1_455
Li0 Pd19 2.921448 1_555
Li0 Pd6 2.921448 1_554
Li0 Pd7 2.921448 1_554
Li0 Pd3 2.921448 1_554
Li0 Pd12 2.921448 1_445
Li0 Pd10 2.921448 1_445
Li0 Pd9 2.921448 1_554
Li0 Pd4 2.921448 1_445
Li0 Pd11 2.921448 1_554
Li0 Pd8 2.921448 1_445
Hg0 Pd15 2.800486 1_555
Hg0 Pd1 2.800506 1_545
Hg0 Pd16 2.800506 1_455
Hg0 Pd17 2.800506 1_554
Hg0 Pd12 3.303029 1_455
Hg0 Pd10 3.303029 1_455
Hg0 Pd4 3.303029 1_545
Hg0 Pd8 3.303029 1_545
Hg0 Pd11 3.303029 1_555
Hg0 Pd9 3.303029 1_554
Hg0 Pd3 3.303029 1_555
Hg0 Pd7 3.303029 1_554
Hg0 Pd13 3.303029 1_555
Hg0 Pd2 3.303029 1_555
Hg0 Pd6 3.303029 1_555
Hg0 Pd19 3.303029 1_555
Hg1 Pd0 2.800486 1_555
Hg1 Pd18 2.800506 1_565
Hg1 Pd14 2.800506 1_655
Hg1 Pd5 2.800506 1_556
Hg1 Pd7 3.303029 1_655
Hg1 Pd3 3.303029 1_655
Hg1 Pd9 3.303029 1_565
Hg1 Pd11 3.303029 1_565
Hg1 Pd8 3.303029 1_555
Hg1 Pd4 3.303029 1_556
Hg1 Pd10 3.303029 1_556
Hg1 Pd12 3.303029 1_555
Hg1 Pd2 3.303029 1_556
Hg1 Pd13 3.303029 1_556
Hg1 Pd6 3.303029 1_665
Hg1 Pd19 3.303029 1_665
P0 Pd4 2.346306 1_555
P0 Pd8 2.346306 1_555
P0 Pd10 2.346307 1_555
P0 Pd12 2.346307 1_555
P0 Pd5 2.457160 1_555
P0 Pd0 2.457180 1_555
P0 Pd16 2.457181 1_555
P0 Pd1 2.457181 1_555
P1 Pd9 2.346306 1_555
P1 Pd11 2.346306 1_555
P1 Pd7 2.346307 1_555
P1 Pd3 2.346307 1_555
P1 Pd17 2.457160 1_555
P1 Pd15 2.457180 1_555
P1 Pd14 2.457181 1_555
P1 Pd18 2.457181 1_555
P2 Pd6 2.346306 1_565
P2 Pd13 2.346307 1_556
P2 Pd11 2.346307 1_565
P2 Pd10 2.346307 1_456
P2 Pd14 2.457160 1_555
P2 Pd0 2.457180 1_555
P2 Pd17 2.457181 1_555
P2 Pd1 2.457181 1_555
P3 Pd6 2.346306 1_655
P3 Pd2 2.346307 1_556
P3 Pd4 2.346307 1_546
P3 Pd3 2.346307 1_655
P3 Pd18 2.457160 1_555
P3 Pd0 2.457180 1_555
P3 Pd17 2.457181 1_555
P3 Pd16 2.457181 1_555
P4 Pd19 2.346306 1_565
P4 Pd13 2.346307 1_555
P4 Pd9 2.346307 1_564
P4 Pd12 2.346307 1_455
P4 Pd1 2.457160 1_555
P4 Pd15 2.457180 1_555
P4 Pd5 2.457181 1_555
P4 Pd14 2.457181 1_555
P5 Pd19 2.346306 1_655
P5 Pd2 2.346307 1_555
P5 Pd8 2.346307 1_545
P5 Pd7 2.346307 1_654
P5 Pd16 2.457160 1_555
P5 Pd15 2.457180 1_555
P5 Pd5 2.457181 1_555
P5 Pd18 2.457181 1_555
Pd0 Pd11 2.999536 1_565
Pd0 Pd3 2.999536 1_655
Pd0 Pd2 2.999536 1_556
Pd0 Pd13 2.999536 1_556
Pd0 Pd8 2.999536 1_555
Pd0 Pd12 2.999536 1_555
Pd1 Pd19 2.999532 1_565
Pd1 Pd9 2.999532 1_564
Pd1 Pd6 2.999543 1_565
Pd1 Pd4 2.999544 1_555
Pd1 Pd11 2.999556 1_565
Pd1 Pd8 2.999556 1_555
Pd2 Pd4 2.921448 1_545
Pd2 Pd8 2.921448 1_545
Pd2 Pd7 2.921448 1_654
Pd2 Pd3 2.921448 1_654
Pd2 Pd5 2.999556 1_555
Pd3 Pd7 2.921448 1_555
Pd3 Pd6 2.921448 1_555
Pd4 Pd9 2.689910 1_564
Pd4 Pd8 2.921448 1_555
Pd4 Pd6 2.921448 1_664
Pd4 Pd5 2.999532 1_555
Pd5 Pd9 2.999543 1_564
Pd5 Pd7 2.999543 1_654
Pd7 Pd9 2.921448 1_555
Pd10 Pd7 2.689910 1_654
Pd10 Pd4 2.921448 1_555
Pd10 Pd12 2.921448 1_555
Pd10 Pd6 2.921448 1_664
Pd10 Pd13 2.921448 1_655
Pd10 Pd14 2.999532 1_654
Pd10 Pd5 2.999532 1_555
Pd10 Pd17 2.999543 1_654
Pd10 Pd16 2.999544 1_555
Pd11 Pd8 2.689910 1_545
Pd11 Pd3 2.921448 1_555
Pd11 Pd9 2.921448 1_555
Pd11 Pd13 2.921448 1_546
Pd11 Pd6 2.921448 1_555
Pd11 Pd15 2.999536 1_555
Pd11 Pd18 2.999556 1_555
Pd12 Pd3 2.689910 1_655
Pd12 Pd8 2.921448 1_555
Pd12 Pd19 2.921448 1_665
Pd12 Pd13 2.921448 1_655
Pd12 Pd15 2.999536 1_655
Pd12 Pd14 2.999556 1_655
Pd12 Pd16 2.999556 1_555
Pd13 Pd2 2.689909 1_555
Pd13 Pd9 2.921448 1_564
Pd13 Pd15 2.999536 1_555
Pd13 Pd17 2.999556 1_554
Pd13 Pd5 2.999556 1_555
Pd14 Pd6 2.999532 1_565
Pd14 Pd19 2.999543 1_565
Pd14 Pd7 2.999544 1_555
Pd14 Pd3 2.999556 1_555
Pd15 Pd8 2.999536 1_545
Pd15 Pd2 2.999536 1_555
Pd15 Pd3 2.999536 1_555
Pd16 Pd19 2.999532 1_655
Pd16 Pd7 2.999532 1_654
Pd16 Pd6 2.999543 1_655
Pd16 Pd3 2.999556 1_655
Pd17 Pd9 2.999532 1_555
Pd17 Pd7 2.999532 1_555
Pd17 Pd4 2.999543 1_546
Pd17 Pd2 2.999556 1_556
Pd18 Pd6 2.999532 1_655
Pd18 Pd4 2.999532 1_546
Pd18 Pd19 2.999543 1_655
Pd18 Pd9 2.999544 1_555
Pd18 Pd8 2.999556 1_545
Pd19 Pd6 2.689910 1_555
Pd19 Pd7 2.921448 1_554
Pd19 Pd8 2.921448 1_445
Pd19 Pd9 2.921448 1_554
