# generated using pymatgen
data_PdRu3(Pb2O7)2
_symmetry_space_group_name_H-M   'P 1'
_cell_length_a   7.32497145
_cell_length_b   7.24138487
_cell_length_c   7.32497026
_cell_angle_alpha   59.61742471
_cell_angle_beta   60.00000103
_cell_angle_gamma   59.61741928
_symmetry_Int_Tables_number   1
_chemical_formula_structural   PdRu3(Pb2O7)2
_chemical_formula_sum   'Pd1 Ru3 Pb4 O14'
_cell_volume   273.13836407
_cell_formula_units_Z   1
loop_
 _symmetry_equiv_pos_site_id
 _symmetry_equiv_pos_as_xyz
  1  'x, y, z'
loop_
 _atom_site_type_symbol
 _atom_site_label
 _atom_site_symmetry_multiplicity
 _atom_site_fract_x
 _atom_site_fract_y
 _atom_site_fract_z
 _atom_site_occupancy
  Pd  Pd0  1  0.62500000  0.12500000  0.62500000  1
  Ru  Ru0  1  0.62500000  0.62500000  0.12500000  1
  Ru  Ru1  1  0.12500000  0.62500000  0.62500000  1
  Ru  Ru2  1  0.62500000  0.62500000  0.62500000  1
  Pb  Pb0  1  0.12500000  0.62500000  0.12500000  1
  Pb  Pb1  1  0.12500000  0.12500000  0.62500000  1
  Pb  Pb2  1  0.62500000  0.12500000  0.12500000  1
  Pb  Pb3  1  0.12500000  0.12500000  0.12500000  1
  O  O0  1  0.70132205  0.69700540  0.30083628  1
  O  O1  1  0.94916372  0.55299460  0.54867795  1
  O  O2  1  0.54621027  0.94815252  0.95942894  1
  O  O3  1  0.95942894  0.94815252  0.54621027  1
  O  O4  1  0.94916372  0.55299460  0.94916372  1
  O  O5  1  0.54621027  0.94815252  0.54621027  1
  O  O6  1  0.30083628  0.69700540  0.30083628  1
  O  O7  1  0.30083628  0.69700540  0.70132205  1
  O  O8  1  0.70378973  0.30184748  0.29057106  1
  O  O9  1  0.70378973  0.30184748  0.70378973  1
  O  O10  1  0.54867795  0.55299460  0.94916372  1
  O  O11  1  0.29057106  0.30184748  0.70378973  1
  O  O12  1  0.25242552  0.24272245  0.25242552  1
  O  O13  1  0.99757448  0.00727755  0.99757448  1
loop_
_geom_bond_atom_site_label_1
_geom_bond_atom_site_label_2
_geom_bond_distance
_geom_bond_site_symmetry_2
O0 Ru2 1.984344 1_555
O0 Ru0 1.984344 1_555
O0 Pb2 2.550772 1_565
O0 Pb0 2.570477 1_655
O1 Ru1 1.984344 1_655
O1 Ru2 1.984344 1_555
O1 Pb1 2.550772 1_655
O1 Pb0 2.570476 1_655
O2 Ru0 1.934666 1_556
O2 Pd0 2.033351 1_565
O2 Pb2 2.542164 1_566
O2 Pb3 2.542175 1_566
O3 Ru1 1.934666 1_655
O3 Pd0 2.033351 1_565
O3 Pb1 2.542164 1_665
O3 Pb3 2.542175 1_665
O4 Ru1 1.984344 1_655
O4 Ru0 1.984344 1_556
O4 Pb3 2.550772 1_656
O4 Pb0 2.570477 1_656
O5 Ru2 1.934668 1_555
O5 Pd0 2.033340 1_565
O5 Pb2 2.542176 1_565
O5 Pb1 2.542177 1_565
O6 Ru1 1.984344 1_555
O6 Ru0 1.984344 1_555
O6 Pb3 2.550772 1_565
O6 Pb0 2.570477 1_555
O7 Ru1 1.984344 1_555
O7 Ru2 1.984344 1_555
O7 Pb1 2.550772 1_565
O7 Pb0 2.570476 1_556
O8 Ru0 1.934666 1_555
O8 Pd0 2.033351 1_555
O8 Pb2 2.542164 1_555
O8 Pb3 2.542175 1_655
O9 Ru2 1.934668 1_555
O9 Pd0 2.033340 1_555
O9 Pb2 2.542176 1_556
O9 Pb1 2.542177 1_655
O10 Ru2 1.984344 1_555
O10 Ru0 1.984344 1_556
O10 Pb2 2.550772 1_556
O10 Pb0 2.570477 1_556
O11 Ru1 1.934666 1_555
O11 Pd0 2.033351 1_555
O11 Pb1 2.542164 1_555
O11 Pb3 2.542175 1_556
O12 Pb3 2.224882 1_555
O12 Pb1 2.224888 1_555
O12 Pb2 2.224888 1_555
O12 Pb0 2.247083 1_555
O13 Pb3 2.224882 1_656
O13 Pb1 2.224888 1_655
O13 Pb2 2.224888 1_556
O13 Pb0 2.247083 1_646
