# generated using pymatgen
data_Be2SiO4
_symmetry_space_group_name_H-M   'P 1'
_cell_length_a   7.70666776
_cell_length_b   7.70666776
_cell_length_c   7.70666652
_cell_angle_alpha   108.00659694
_cell_angle_beta   108.00659694
_cell_angle_gamma   108.00659329
_symmetry_Int_Tables_number   1
_chemical_formula_structural   Be2SiO4
_chemical_formula_sum   'Be12 Si6 O24'
_cell_volume   370.22802542
_cell_formula_units_Z   6
loop_
 _symmetry_equiv_pos_site_id
 _symmetry_equiv_pos_as_xyz
  1  'x, y, z'
loop_
 _atom_site_type_symbol
 _atom_site_label
 _atom_site_symmetry_multiplicity
 _atom_site_fract_x
 _atom_site_fract_y
 _atom_site_fract_z
 _atom_site_occupancy
  Be  Be0  1  0.87230773  0.10223986  0.27845034  1
  Be  Be1  1  0.10223986  0.27845034  0.87230773  1
  Be  Be2  1  0.27845034  0.87230773  0.10223986  1
  Be  Be3  1  0.12769227  0.89776014  0.72154966  1
  Be  Be4  1  0.89776014  0.72154966  0.12769227  1
  Be  Be5  1  0.72154966  0.12769227  0.89776014  1
  Be  Be6  1  0.39039517  0.79439541  0.56892920  1
  Be  Be7  1  0.56892920  0.39039517  0.79439541  1
  Be  Be8  1  0.79439541  0.56892920  0.39039517  1
  Be  Be9  1  0.60960483  0.20560459  0.43107080  1
  Be  Be10  1  0.43107080  0.60960483  0.20560459  1
  Be  Be11  1  0.20560459  0.43107080  0.60960483  1
  Si  Si0  1  0.53835762  0.76603200  0.94562974  1
  Si  Si1  1  0.76603200  0.94562974  0.53835762  1
  Si  Si2  1  0.94562974  0.53835762  0.76603200  1
  Si  Si3  1  0.46164238  0.23396800  0.05437026  1
  Si  Si4  1  0.23396800  0.05437026  0.46164238  1
  Si  Si5  1  0.05437026  0.46164238  0.23396800  1
  O  O0  1  0.29307804  0.62406164  0.32856366  1
  O  O1  1  0.32856366  0.29307804  0.62406164  1
  O  O2  1  0.62406164  0.32856366  0.29307804  1
  O  O3  1  0.70692196  0.37593836  0.67143634  1
  O  O4  1  0.67143634  0.70692196  0.37593836  1
  O  O5  1  0.37593836  0.67143634  0.70692196  1
  O  O6  1  0.04024971  0.33796868  0.37108924  1
  O  O7  1  0.37108924  0.04024971  0.33796868  1
  O  O8  1  0.33796868  0.37108924  0.04024971  1
  O  O9  1  0.95975029  0.66203132  0.62891076  1
  O  O10  1  0.62891076  0.95975029  0.66203132  1
  O  O11  1  0.66203132  0.62891076  0.95975029  1
  O  O12  1  0.91622812  0.58346390  0.25058630  1
  O  O13  1  0.25058630  0.91622812  0.58346390  1
  O  O14  1  0.58346390  0.25058630  0.91622812  1
  O  O15  1  0.08377188  0.41653610  0.74941370  1
  O  O16  1  0.74941370  0.08377188  0.41653610  1
  O  O17  1  0.41653610  0.74941370  0.08377188  1
  O  O18  1  0.96296163  0.29484623  0.99699699  1
  O  O19  1  0.99699699  0.96296163  0.29484623  1
  O  O20  1  0.29484623  0.99699699  0.96296163  1
  O  O21  1  0.03703837  0.70515377  0.00300301  1
  O  O22  1  0.00300301  0.03703837  0.70515377  1
  O  O23  1  0.70515377  0.00300301  0.03703837  1
loop_
_geom_bond_atom_site_label_1
_geom_bond_atom_site_label_2
_geom_bond_distance
_geom_bond_site_symmetry_2
Be0 O6 1.630443 1_655
Be0 O16 1.638040 1_555
Be0 O23 1.653845 1_555
Be0 O19 1.654682 1_545
Be1 O8 1.630443 1_556
Be1 O15 1.638040 1_555
Be1 O22 1.653845 1_555
Be1 O18 1.654682 1_455
Be2 O7 1.630442 1_565
Be2 O17 1.638040 1_555
Be2 O21 1.653846 1_555
Be2 O20 1.654682 1_554
Be3 O9 1.630443 1_455
Be3 O13 1.638040 1_555
Be3 O20 1.653845 1_555
Be3 O22 1.654682 1_565
Be4 O11 1.630443 1_554
Be4 O12 1.638040 1_555
Be4 O19 1.653845 1_555
Be4 O21 1.654682 1_655
Be5 O10 1.630442 1_545
Be5 O14 1.638040 1_555
Be5 O18 1.653846 1_555
Be5 O23 1.654682 1_556
Be6 O5 1.634731 1_555
Be6 O10 1.639713 1_555
Be6 O13 1.640152 1_555
Be6 O0 1.657143 1_555
Be7 O3 1.634731 1_555
Be7 O11 1.639713 1_555
Be7 O14 1.640152 1_555
Be7 O1 1.657143 1_555
Be8 O4 1.634731 1_555
Be8 O9 1.639713 1_555
Be8 O12 1.640152 1_555
Be8 O2 1.657143 1_555
Be9 O2 1.634731 1_555
Be9 O7 1.639713 1_555
Be9 O16 1.640152 1_555
Be9 O3 1.657143 1_555
Be10 O0 1.634731 1_555
Be10 O8 1.639713 1_555
Be10 O17 1.640152 1_555
Be10 O4 1.657143 1_555
Be11 O1 1.634731 1_555
Be11 O6 1.639713 1_555
Be11 O15 1.640152 1_555
Be11 O5 1.657143 1_555
O0 Si5 1.632652 1_555
O1 Si4 1.632652 1_555
O2 Si3 1.632651 1_555
O3 Si2 1.632652 1_555
O4 Si1 1.632652 1_555
O5 Si0 1.632651 1_555
O6 Si5 1.632990 1_555
O7 Si4 1.632990 1_555
O8 Si3 1.632990 1_555
O9 Si2 1.632990 1_555
O10 Si1 1.632990 1_555
O11 Si0 1.632990 1_555
O12 Si5 1.630684 1_655
O13 Si4 1.630684 1_565
O14 Si3 1.630684 1_556
O15 Si2 1.630684 1_455
O16 Si1 1.630684 1_545
O17 Si0 1.630684 1_554
O18 Si5 1.636218 1_656
O19 Si4 1.636219 1_665
O20 Si3 1.636219 1_566
O21 Si2 1.636218 1_454
O22 Si1 1.636219 1_445
O23 Si0 1.636219 1_544
