# generated using pymatgen
data_CsH5W
_symmetry_space_group_name_H-M   'P 1'
_cell_length_a   11.55976240
_cell_length_b   7.65822133
_cell_length_c   4.77669995
_cell_angle_alpha   90.00000000
_cell_angle_beta   90.00000000
_cell_angle_gamma   90.00000000
_symmetry_Int_Tables_number   1
_chemical_formula_structural   CsH5W
_chemical_formula_sum   'Cs4 H20 W4'
_cell_volume   422.86796193
_cell_formula_units_Z   4
loop_
 _symmetry_equiv_pos_site_id
 _symmetry_equiv_pos_as_xyz
  1  'x, y, z'
loop_
 _atom_site_type_symbol
 _atom_site_label
 _atom_site_symmetry_multiplicity
 _atom_site_fract_x
 _atom_site_fract_y
 _atom_site_fract_z
 _atom_site_occupancy
  Cs  Cs0  1  0.67218422  0.07462935  0.33060803  1
  Cs  Cs1  1  0.17218422  0.42536965  0.33060803  1
  Cs  Cs2  1  0.82781578  0.57462935  0.83060803  1
  Cs  Cs3  1  0.32781578  0.92537065  0.83060803  1
  H  H0  1  0.34769497  0.32454431  0.82598674  1
  H  H1  1  0.84769497  0.17545569  0.82598674  1
  H  H2  1  0.98599809  0.71122020  0.32684002  1
  H  H3  1  0.48599809  0.78877880  0.32684002  1
  H  H4  1  0.59930551  0.41012691  0.06573461  1
  H  H5  1  0.09930451  0.08987309  0.06573461  1
  H  H6  1  0.38963824  0.55268760  0.06547009  1
  H  H7  1  0.88963824  0.94731340  0.06547009  1
  H  H8  1  0.95688615  0.14499745  0.43528421  1
  H  H9  1  0.45688615  0.35500355  0.43528421  1
  H  H10  1  0.15230503  0.82454431  0.32598574  1
  H  H11  1  0.65230503  0.67545469  0.32598574  1
  H  H12  1  0.51400291  0.21122020  0.82684202  1
  H  H13  1  0.01400291  0.28877880  0.82684202  1
  H  H14  1  0.90069549  0.91012591  0.56573461  1
  H  H15  1  0.40069549  0.58987409  0.56573461  1
  H  H16  1  0.11036176  0.05268660  0.56547009  1
  H  H17  1  0.61036176  0.44731340  0.56547009  1
  H  H18  1  0.54311385  0.64499745  0.93528621  1
  H  H19  1  0.04311385  0.85500355  0.93528621  1
  W  W0  1  0.51963979  0.56584584  0.31707429  1
  W  W1  1  0.01963979  0.93415416  0.31707429  1
  W  W2  1  0.98036021  0.06584484  0.81707329  1
  W  W3  1  0.48036021  0.43415516  0.81707329  1
loop_
_geom_bond_atom_site_label_1
_geom_bond_atom_site_label_2
_geom_bond_distance
_geom_bond_site_symmetry_2
Cs0 H7 2.978826 1_545
Cs0 H4 2.985281 1_555
Cs0 H11 3.065672 1_545
Cs0 H3 3.069978 1_545
Cs0 H14 3.134683 1_545
Cs0 H17 3.148838 1_555
Cs0 H12 3.171178 1_555
Cs0 H12 3.198160 1_554
Cs0 H1 3.211193 1_555
Cs0 H1 3.243863 1_554
Cs0 H9 3.324821 1_555
Cs0 H8 3.372190 1_555
Cs1 H6 2.978831 1_555
Cs1 H5 2.985277 1_555
Cs1 H10 3.065672 1_555
Cs1 H2 3.069978 1_455
Cs1 H15 3.134686 1_555
Cs1 H16 3.148831 1_555
Cs1 H13 3.171178 1_555
Cs1 H13 3.198160 1_554
Cs1 H0 3.211191 1_555
Cs1 H0 3.243861 1_554
Cs1 H8 3.324811 1_455
Cs1 H9 3.372188 1_555
Cs2 H17 2.978826 1_555
Cs2 H14 2.985277 1_555
Cs2 H1 3.065665 1_555
Cs2 H13 3.069986 1_655
Cs2 H4 3.134670 1_556
Cs2 H7 3.148838 1_556
Cs2 H2 3.171177 1_556
Cs2 H2 3.198174 1_555
Cs2 H11 3.211187 1_556
Cs2 H11 3.243865 1_555
Cs2 H19 3.324822 1_655
Cs2 H18 3.372191 1_555
Cs3 H16 2.978826 1_565
Cs3 H15 2.985277 1_555
Cs3 H0 3.065665 1_565
Cs3 H12 3.069981 1_565
Cs3 H5 3.134680 1_566
Cs3 H6 3.148831 1_556
Cs3 H3 3.171180 1_556
Cs3 H3 3.198176 1_555
Cs3 H10 3.211189 1_556
Cs3 H10 3.243866 1_555
Cs3 H18 3.324817 1_555
Cs3 H19 3.372190 1_555
H0 W3 1.748802 1_555
H1 W2 1.748802 1_555
H2 W1 1.751630 1_655
H3 W0 1.751623 1_555
H4 W3 1.826267 1_554
H4 W0 1.926550 1_555
H5 W2 1.826259 1_454
H5 W1 1.926544 1_545
H6 W3 1.825281 1_554
H6 W0 1.926898 1_555
H7 W2 1.825277 1_564
H7 W1 1.926899 1_655
H8 W1 1.858028 1_645
H8 W2 1.940857 1_555
H9 W0 1.858022 1_555
H9 W3 1.940854 1_555
H10 W1 1.748798 1_555
H11 W0 1.748795 1_555
H12 W3 1.751641 1_555
H13 W2 1.751633 1_455
H14 W1 1.826255 1_655
H14 W2 1.926541 1_565
H15 W0 1.826255 1_555
H15 W3 1.926541 1_555
H16 W1 1.825278 1_545
H16 W2 1.926895 1_455
H17 W0 1.825278 1_555
H17 W3 1.926895 1_555
H18 W3 1.858026 1_555
H18 W0 1.940850 1_556
H19 W2 1.858020 1_465
H19 W1 1.940848 1_556
