# generated using pymatgen
data_LiScBPt6
_symmetry_space_group_name_H-M   'P 1'
_cell_length_a   5.71318699
_cell_length_b   5.71318686
_cell_length_c   5.71318789
_cell_angle_alpha   59.99999404
_cell_angle_beta   59.99999478
_cell_angle_gamma   59.99999578
_symmetry_Int_Tables_number   1
_chemical_formula_structural   LiScBPt6
_chemical_formula_sum   'Li1 Sc1 B1 Pt6'
_cell_volume   131.86220269
_cell_formula_units_Z   1
loop_
 _symmetry_equiv_pos_site_id
 _symmetry_equiv_pos_as_xyz
  1  'x, y, z'
loop_
 _atom_site_type_symbol
 _atom_site_label
 _atom_site_symmetry_multiplicity
 _atom_site_fract_x
 _atom_site_fract_y
 _atom_site_fract_z
 _atom_site_occupancy
  Li  Li0  1  0.25000000  0.25000000  0.25000000  1
  Sc  Sc0  1  0.75000000  0.75000000  0.75000000  1
  B  B0  1  0.49999900  0.49999900  0.49999900  1
  Pt  Pt0  1  0.75795529  0.24204271  0.24204271  1
  Pt  Pt1  1  0.24204271  0.75795529  0.24204271  1
  Pt  Pt2  1  0.75795529  0.75795529  0.24204271  1
  Pt  Pt3  1  0.24204271  0.24204271  0.75795529  1
  Pt  Pt4  1  0.75795529  0.24204271  0.75795529  1
  Pt  Pt5  1  0.24204271  0.75795529  0.75795529  1
loop_
_geom_bond_atom_site_label_1
_geom_bond_atom_site_label_2
_geom_bond_distance
_geom_bond_site_symmetry_2
Li0 Pt1 2.857305 1_555
Li0 Pt0 2.857305 1_555
Li0 Pt3 2.857306 1_555
Li0 Pt2 2.857316 1_455
Li0 Pt2 2.857316 1_545
Li0 Pt5 2.857316 1_554
Li0 Pt5 2.857316 1_545
Li0 Pt4 2.857317 1_554
Li0 Pt4 2.857317 1_455
Li0 Pt1 2.857328 1_545
Li0 Pt0 2.857328 1_455
Li0 Pt3 2.857329 1_554
B0 Pt2 2.084201 1_555
B0 Pt3 2.084201 1_555
B0 Pt4 2.084201 1_555
B0 Pt5 2.084201 1_555
B0 Pt1 2.084201 1_555
B0 Pt0 2.084201 1_555
Pt0 Sc0 2.857317 1_554
Pt0 Sc0 2.857317 1_545
Pt1 Sc0 2.857317 1_554
Pt1 Sc0 2.857317 1_455
Pt2 Sc0 2.857306 1_554
Pt2 Sc0 2.857328 1_555
Pt3 Sc0 2.857317 1_455
Pt3 Sc0 2.857317 1_545
Pt4 Sc0 2.857305 1_545
Pt4 Sc0 2.857328 1_555
Pt5 Sc0 2.857305 1_455
Pt5 Sc0 2.857328 1_555
