# generated using pymatgen
data_GaSb(SeO3)4
_symmetry_space_group_name_H-M   'P 1'
_cell_length_a   8.08208837
_cell_length_b   7.98511949
_cell_length_c   8.00301849
_cell_angle_alpha   89.54832555
_cell_angle_beta   90.00000000
_cell_angle_gamma   90.00000000
_symmetry_Int_Tables_number   1
_chemical_formula_structural   GaSb(SeO3)4
_chemical_formula_sum   'Ga2 Sb2 Se8 O24'
_cell_volume   516.47028520
_cell_formula_units_Z   2
loop_
 _symmetry_equiv_pos_site_id
 _symmetry_equiv_pos_as_xyz
  1  'x, y, z'
loop_
 _atom_site_type_symbol
 _atom_site_label
 _atom_site_symmetry_multiplicity
 _atom_site_fract_x
 _atom_site_fract_y
 _atom_site_fract_z
 _atom_site_occupancy
  Ga  Ga0  1  0.00000000  0.50000000  0.00000000  1
  Ga  Ga1  1  0.50000000  0.50000000  0.50000000  1
  Sb  Sb0  1  0.00000000  0.00000000  0.50000000  1
  Sb  Sb1  1  0.50000000  0.00000000  0.00000000  1
  Se  Se0  1  0.33003624  0.65741857  0.17512211  1
  Se  Se1  1  0.83003624  0.34258143  0.32487789  1
  Se  Se2  1  0.66720813  0.82162701  0.66049069  1
  Se  Se3  1  0.16720813  0.17837299  0.83950931  1
  Se  Se4  1  0.66996376  0.34258143  0.82487789  1
  Se  Se5  1  0.16996376  0.65741857  0.67512211  1
  Se  Se6  1  0.33279187  0.17837299  0.33950931  1
  Se  Se7  1  0.83279187  0.82162701  0.16049069  1
  O  O0  1  0.23954781  0.53778842  0.02930384  1
  O  O1  1  0.73954781  0.46221158  0.47069616  1
  O  O2  1  0.75808056  0.97822299  0.53550773  1
  O  O3  1  0.25808056  0.02177701  0.96449227  1
  O  O4  1  0.52748579  0.95690782  0.75650827  1
  O  O5  1  0.46430558  0.51758099  0.25894665  1
  O  O6  1  0.96430558  0.48241901  0.24105335  1
  O  O7  1  0.02748579  0.04309218  0.74349173  1
  O  O8  1  0.97740993  0.24186625  0.45773581  1
  O  O9  1  0.54108722  0.74435313  0.51528618  1
  O  O10  1  0.47740993  0.75813375  0.04226419  1
  O  O11  1  0.04108722  0.25564687  0.98471382  1
  O  O12  1  0.76045219  0.46221158  0.97069616  1
  O  O13  1  0.26045219  0.53778842  0.52930384  1
  O  O14  1  0.24191944  0.02177701  0.46449227  1
  O  O15  1  0.74191944  0.97822299  0.03550773  1
  O  O16  1  0.47251421  0.04309218  0.24349173  1
  O  O17  1  0.53569442  0.48241901  0.74105335  1
  O  O18  1  0.03569442  0.51758099  0.75894665  1
  O  O19  1  0.97251421  0.95690782  0.25650827  1
  O  O20  1  0.02259007  0.75813375  0.54226419  1
  O  O21  1  0.45891278  0.25564687  0.48471382  1
  O  O22  1  0.52259007  0.24186625  0.95773581  1
  O  O23  1  0.95891278  0.74435313  0.01528618  1
loop_
_geom_bond_atom_site_label_1
_geom_bond_atom_site_label_2
_geom_bond_distance
_geom_bond_site_symmetry_2
Ga0 O6 1.954559 1_455
Ga0 O18 1.954559 1_554
Ga0 O0 1.973687 1_555
Ga0 O12 1.973687 1_454
Ga0 O23 1.983970 1_455
Ga0 O11 1.983970 1_554
Ga1 O17 1.954559 1_555
Ga1 O5 1.954559 1_555
Ga1 O1 1.973687 1_555
Ga1 O13 1.973687 1_555
Ga1 O9 1.983970 1_555
Ga1 O21 1.983970 1_555
O0 Se0 1.681311 1_555
O1 Se1 1.681311 1_555
O2 Se2 1.756063 1_555
O2 Sb0 1.983198 1_665
O3 Se3 1.756063 1_555
O3 Sb1 1.983198 1_556
O4 Se2 1.745187 1_555
O4 Sb1 1.993899 1_566
O5 Se0 1.691945 1_555
O6 Se1 1.691945 1_555
O7 Se3 1.745187 1_555
O7 Sb0 1.993899 1_555
O8 Se1 1.783960 1_555
O8 Sb0 1.966591 1_655
O9 Se2 1.667776 1_555
O10 Se0 1.783960 1_555
O10 Sb1 1.966591 1_565
O11 Se3 1.667776 1_555
O12 Se4 1.681311 1_555
O13 Se5 1.681311 1_555
O14 Se6 1.756063 1_555
O14 Sb0 1.983198 1_555
O15 Se7 1.756063 1_555
O15 Sb1 1.983198 1_565
O16 Se6 1.745187 1_555
O16 Sb1 1.993899 1_555
O17 Se4 1.691945 1_555
O18 Se5 1.691945 1_555
O19 Se7 1.745187 1_555
O19 Sb0 1.993899 1_665
O20 Se5 1.783960 1_555
O20 Sb0 1.966591 1_565
O21 Se6 1.667776 1_555
O22 Se4 1.783960 1_555
O22 Sb1 1.966591 1_556
O23 Se7 1.667776 1_555
