# generated using pymatgen
data_Na(Rh2Pb3)2
_symmetry_space_group_name_H-M   'P 1'
_cell_length_a   7.08673340
_cell_length_b   7.08673333
_cell_length_c   7.08673351
_cell_angle_alpha   119.54561205
_cell_angle_beta   119.54561170
_cell_angle_gamma   90.78884439
_symmetry_Int_Tables_number   1
_chemical_formula_structural   Na(Rh2Pb3)2
_chemical_formula_sum   'Na1 Rh4 Pb6'
_cell_volume   253.36772304
_cell_formula_units_Z   1
loop_
 _symmetry_equiv_pos_site_id
 _symmetry_equiv_pos_as_xyz
  1  'x, y, z'
loop_
 _atom_site_type_symbol
 _atom_site_label
 _atom_site_symmetry_multiplicity
 _atom_site_fract_x
 _atom_site_fract_y
 _atom_site_fract_z
 _atom_site_occupancy
  Na  Na0  1  0.00000000  0.00000000  0.00000000  1
  Rh  Rh0  1  0.74878170  0.40578238  0.00000000  1
  Rh  Rh1  1  0.40578238  0.74878170  0.00000000  1
  Rh  Rh2  1  0.59421862  0.59421862  0.34300032  1
  Rh  Rh3  1  0.25121830  0.25121830  0.65699968  1
  Pb  Pb0  1  0.45883727  0.12041423  0.00000000  1
  Pb  Pb1  1  0.12041423  0.45883727  0.00000000  1
  Pb  Pb2  1  0.87958577  0.87958577  0.33842304  1
  Pb  Pb3  1  0.50000000  0.00000000  0.50000000  1
  Pb  Pb4  1  0.00000000  0.50000000  0.50000000  1
  Pb  Pb5  1  0.54116273  0.54116273  0.66157696  1
loop_
_geom_bond_atom_site_label_1
_geom_bond_atom_site_label_2
_geom_bond_distance
_geom_bond_site_symmetry_2
Na0 Pb5 3.350383 1_444
Na0 Pb1 3.350383 1_555
Na0 Pb0 3.350383 1_555
Na0 Pb2 3.350383 1_445
Na0 Rh2 3.402931 1_444
Na0 Rh3 3.402931 1_555
Na0 Rh0 3.402938 1_455
Na0 Rh1 3.402938 1_545
Na0 Pb4 3.567675 1_544
Na0 Pb4 3.567675 1_555
Na0 Pb3 3.567675 1_555
Na0 Pb3 3.567675 1_454
Rh0 Rh3 2.890750 1_554
Rh0 Rh2 2.890750 1_555
Rh1 Rh3 2.890750 1_554
Rh1 Rh2 2.890750 1_555
Pb0 Rh1 2.655234 1_545
Pb0 Rh2 2.768615 1_555
Pb0 Rh3 2.768615 1_554
Pb0 Rh0 2.863115 1_555
Pb0 Pb4 3.378300 1_655
Pb0 Pb3 3.378300 1_554
Pb0 Pb1 3.414996 1_555
Pb1 Rh0 2.655234 1_455
Pb1 Rh2 2.768615 1_555
Pb1 Rh3 2.768615 1_554
Pb1 Rh1 2.863115 1_555
Pb1 Pb3 3.378300 1_565
Pb1 Pb4 3.378300 1_554
Pb2 Rh3 2.655235 1_665
Pb2 Rh0 2.768609 1_555
Pb2 Rh1 2.768609 1_555
Pb2 Rh2 2.863110 1_555
Pb2 Pb4 3.378300 1_655
Pb2 Pb3 3.378300 1_565
Pb2 Pb5 3.414996 1_554
Pb3 Rh2 2.753773 1_545
Pb3 Rh3 2.753773 1_555
Pb3 Rh0 2.753775 1_556
Pb3 Rh1 2.753775 1_545
Pb3 Pb5 3.378300 1_555
Pb4 Rh2 2.753773 1_455
Pb4 Rh3 2.753773 1_555
Pb4 Rh1 2.753775 1_556
Pb4 Rh0 2.753775 1_455
Pb4 Pb5 3.378300 1_555
Pb5 Rh2 2.655235 1_555
Pb5 Rh1 2.768609 1_556
Pb5 Rh0 2.768609 1_556
Pb5 Rh3 2.863110 1_555
