# generated using pymatgen
data_Ba8Sc5Ga3O20
_symmetry_space_group_name_H-M   'P 1'
_cell_length_a   5.94587746
_cell_length_b   6.08480679
_cell_length_c   15.65755373
_cell_angle_alpha   90.00000000
_cell_angle_beta   90.00000000
_cell_angle_gamma   89.98457548
_symmetry_Int_Tables_number   1
_chemical_formula_structural   Ba8Sc5Ga3O20
_chemical_formula_sum   'Ba8 Sc5 Ga3 O20'
_cell_volume   566.48268870
_cell_formula_units_Z   1
loop_
 _symmetry_equiv_pos_site_id
 _symmetry_equiv_pos_as_xyz
  1  'x, y, z'
loop_
 _atom_site_type_symbol
 _atom_site_label
 _atom_site_symmetry_multiplicity
 _atom_site_fract_x
 _atom_site_fract_y
 _atom_site_fract_z
 _atom_site_occupancy
  Ba  Ba0  1  0.00019440  0.50219680  0.11362504  1
  Ba  Ba1  1  0.00019440  0.50219680  0.38637496  1
  Ba  Ba2  1  0.50006831  0.99470141  0.11311584  1
  Ba  Ba3  1  0.50006831  0.99470141  0.38688416  1
  Ba  Ba4  1  0.49863045  0.00549775  0.62055708  1
  Ba  Ba5  1  0.49863045  0.00549775  0.87944292  1
  Ba  Ba6  1  0.99863757  0.49723847  0.62047010  1
  Ba  Ba7  1  0.99863757  0.49723847  0.87952990  1
  Sc  Sc0  1  0.49826650  0.50197278  0.99721761  1
  Sc  Sc1  1  0.49826650  0.50197278  0.50278239  1
  Sc  Sc2  1  0.99816905  0.00038860  0.50344569  1
  Sc  Sc3  1  0.99816905  0.00038860  0.99655431  1
  Sc  Sc4  1  0.50621520  0.43790747  0.25000000  1
  Ga  Ga0  1  0.49833407  0.56483792  0.75000000  1
  Ga  Ga1  1  0.99825375  0.93726638  0.75000000  1
  Ga  Ga2  1  0.00595835  0.05510861  0.25000000  1
  O  O0  1  0.49207240  0.56292641  0.13405717  1
  O  O1  1  0.49207240  0.56292641  0.36594283  1
  O  O2  1  0.25181006  0.75600429  0.75000000  1
  O  O3  1  0.24807196  0.75350574  0.51297346  1
  O  O4  1  0.24807196  0.75350574  0.98702654  1
  O  O5  1  0.75023377  0.75046312  0.51280983  1
  O  O6  1  0.75023377  0.75046312  0.98719017  1
  O  O7  1  0.75173855  0.74682979  0.75000000  1
  O  O8  1  0.98986037  0.93579369  0.14205130  1
  O  O9  1  0.98986037  0.93579369  0.35794870  1
  O  O10  1  0.99590592  0.06253893  0.64380455  1
  O  O11  1  0.99590592  0.06253893  0.85619545  1
  O  O12  1  0.27396222  0.21277104  0.25000000  1
  O  O13  1  0.24803280  0.24956923  0.00630929  1
  O  O14  1  0.24803280  0.24956923  0.49369071  1
  O  O15  1  0.74885536  0.25080717  0.00631389  1
  O  O16  1  0.74885536  0.25080717  0.49368611  1
  O  O17  1  0.78742672  0.27517133  0.25000000  1
  O  O18  1  0.49615119  0.43945098  0.64408131  1
  O  O19  1  0.49615119  0.43945098  0.85591869  1
loop_
_geom_bond_atom_site_label_1
_geom_bond_atom_site_label_2
_geom_bond_distance
_geom_bond_site_symmetry_2
Ba0 O8 2.676322 1_455
Ba0 O13 2.712323 1_555
Ba0 O15 2.719849 1_455
Ba0 O17 2.840630 1_455
Ba0 O6 2.899796 1_454
Ba0 O4 2.905340 1_554
Ba0 O0 2.965305 1_555
Ba0 O0 3.060414 1_455
Ba0 O12 3.210783 1_555
Ba1 O9 2.676322 1_455
Ba1 O14 2.712323 1_555
Ba1 O16 2.719849 1_455
Ba1 O17 2.840630 1_455
Ba1 O5 2.899796 1_455
Ba1 O3 2.905340 1_555
Ba1 O1 2.965305 1_555
Ba1 O1 3.060414 1_455
Ba1 O12 3.210783 1_555
Ba2 O0 2.648089 1_555
Ba2 O15 2.722931 1_565
Ba2 O13 2.728773 1_565
Ba2 O12 2.856703 1_565
Ba2 O4 2.880591 1_554
Ba2 O6 2.882273 1_554
Ba2 O8 2.968896 1_555
Ba2 O8 3.088246 1_455
Ba2 O17 3.229085 1_565
Ba3 O1 2.648089 1_555
Ba3 O16 2.722931 1_565
Ba3 O14 2.728773 1_565
Ba3 O12 2.856703 1_565
Ba3 O3 2.880591 1_555
Ba3 O5 2.882273 1_555
Ba3 O9 2.968896 1_555
Ba3 O9 3.088246 1_455
Ba3 O17 3.229085 1_565
Ba4 O18 2.666124 1_555
Ba4 O3 2.722005 1_545
Ba4 O5 2.736994 1_545
Ba4 O14 2.893170 1_555
Ba4 O16 2.896366 1_555
Ba4 O2 2.927009 1_545
Ba4 O7 2.974669 1_545
Ba4 O10 2.999303 1_555
Ba4 O10 3.031065 1_455
Ba5 O19 2.666124 1_555
Ba5 O4 2.722005 1_545
Ba5 O6 2.736994 1_545
Ba5 O13 2.893170 1_556
Ba5 O15 2.896366 1_556
Ba5 O2 2.927009 1_545
Ba5 O7 2.974669 1_545
Ba5 O11 2.999303 1_555
Ba5 O11 3.031065 1_455
Ba6 O10 2.670231 1_555
Ba6 O5 2.719549 1_555
Ba6 O3 2.732274 1_655
Ba6 O16 2.897608 1_555
Ba6 O14 2.899873 1_655
Ba6 O7 2.928086 1_555
Ba6 O2 2.976534 1_655
Ba6 O18 3.001739 1_655
Ba6 O18 3.031067 1_555
Ba7 O11 2.670231 1_555
Ba7 O6 2.719549 1_555
Ba7 O4 2.732274 1_655
Ba7 O15 2.897608 1_556
Ba7 O13 2.899873 1_656
Ba7 O7 2.928086 1_555
Ba7 O2 2.976534 1_655
Ba7 O19 3.001739 1_655
Ba7 O19 3.031067 1_555
Ga0 O19 1.825557 1_555
Ga0 O18 1.825557 1_555
Ga0 O7 1.870129 1_555
Ga0 O2 1.871020 1_555
Ga1 O11 1.829208 1_565
Ga1 O10 1.829208 1_565
Ga1 O2 1.867751 1_655
Ga1 O7 1.868711 1_555
Ga2 O8 1.842038 1_445
Ga2 O9 1.842038 1_445
Ga2 O12 1.860233 1_555
Ga2 O17 1.865591 1_455
O0 Sc4 1.970110 1_555
O0 Sc0 2.174748 1_554
O1 Sc4 1.970110 1_555
O1 Sc1 2.174748 1_555
O3 Sc2 2.117932 1_465
O3 Sc1 2.140044 1_555
O4 Sc3 2.117932 1_465
O4 Sc0 2.140044 1_555
O5 Sc2 2.123352 1_565
O5 Sc1 2.134611 1_555
O6 Sc3 2.123352 1_565
O6 Sc0 2.134611 1_555
O8 Sc3 2.312315 1_564
O9 Sc2 2.312315 1_565
O10 Sc2 2.230017 1_555
O11 Sc3 2.230017 1_555
O12 Sc4 1.945429 1_555
O13 Sc3 2.128529 1_454
O13 Sc0 2.143358 1_554
O14 Sc2 2.128529 1_455
O14 Sc1 2.143358 1_555
O15 Sc3 2.131061 1_554
O15 Sc0 2.138868 1_554
O16 Sc2 2.131061 1_555
O16 Sc1 2.138868 1_555
O17 Sc4 1.943036 1_555
O18 Sc1 2.244902 1_555
O19 Sc0 2.244902 1_555
