# generated using pymatgen
data_RbSr3(BeAs)8
_symmetry_space_group_name_H-M   'P 1'
_cell_length_a   7.17076987
_cell_length_b   8.44864434
_cell_length_c   7.50371502
_cell_angle_alpha   63.56382756
_cell_angle_beta   74.88249501
_cell_angle_gamma   96.75124457
_symmetry_Int_Tables_number   1
_chemical_formula_structural   RbSr3(BeAs)8
_chemical_formula_sum   'Rb1 Sr3 Be8 As8'
_cell_volume   378.34628576
_cell_formula_units_Z   1
loop_
 _symmetry_equiv_pos_site_id
 _symmetry_equiv_pos_as_xyz
  1  'x, y, z'
loop_
 _atom_site_type_symbol
 _atom_site_label
 _atom_site_symmetry_multiplicity
 _atom_site_fract_x
 _atom_site_fract_y
 _atom_site_fract_z
 _atom_site_occupancy
  Rb  Rb0  1  0.00000000  0.00000000  0.00000000  1
  Sr  Sr0  1  0.99849877  0.48844943  0.75658295  1
  Sr  Sr1  1  0.00000000  0.00000000  0.50000000  1
  Sr  Sr2  1  0.00150123  0.51155057  0.24341705  1
  Be  Be0  1  0.50902871  0.62571119  0.30892245  1
  Be  Be1  1  0.49886659  0.61833377  0.81540693  1
  Be  Be2  1  0.49827261  0.12502039  0.06562686  1
  Be  Be3  1  0.48498887  0.12571054  0.56482272  1
  Be  Be4  1  0.49097129  0.37428881  0.69107755  1
  Be  Be5  1  0.50113341  0.38166623  0.18459307  1
  Be  Be6  1  0.51501113  0.87428946  0.43517728  1
  Be  Be7  1  0.50172739  0.87497961  0.93437314  1
  As  As0  1  0.29173907  0.33275996  0.50623359  1
  As  As1  1  0.29263797  0.32403366  0.02077701  1
  As  As2  1  0.30577870  0.82205901  0.26772829  1
  As  As3  1  0.29877558  0.81947720  0.75842648  1
  As  As4  1  0.70826093  0.66724004  0.49376641  1
  As  As5  1  0.70736203  0.67596634  0.97922299  1
  As  As6  1  0.70122442  0.18052280  0.24157352  1
  As  As7  1  0.69422130  0.17794099  0.73227171  1
loop_
_geom_bond_atom_site_label_1
_geom_bond_atom_site_label_2
_geom_bond_distance
_geom_bond_site_symmetry_2
As0 Be5 2.307861 1_555
As0 Be0 2.317938 1_555
As0 Be3 2.318737 1_555
As0 Be4 2.331736 1_555
As0 Sr0 3.235864 1_455
As0 Sr2 3.275665 1_555
As0 Sr1 3.326822 1_555
As0 Rb0 3.362649 1_556
As1 Be1 2.297633 1_554
As1 Be5 2.302976 1_555
As1 Be4 2.326147 1_554
As1 Be2 2.335080 1_555
As1 Sr0 3.275097 1_454
As1 Sr1 3.282818 1_555
As1 Sr2 3.312756 1_555
As1 Rb0 3.335031 1_555
As2 Be0 2.306179 1_555
As2 Be6 2.312120 1_555
As2 Be2 2.319036 1_565
As2 Be7 2.335471 1_554
As2 Sr2 3.311194 1_555
As2 Sr1 3.349674 1_565
As2 Sr0 3.372414 1_455
As2 Rb0 3.389290 1_565
As3 Be6 2.317628 1_555
As3 Be1 2.318559 1_555
As3 Be3 2.327358 1_565
As3 Be7 2.339637 1_555
As3 Sr2 3.282662 1_556
As3 Sr1 3.313376 1_565
As3 Sr0 3.330521 1_455
As3 Rb0 3.377333 1_566
As4 Be1 2.307861 1_555
As4 Be4 2.317938 1_555
As4 Be6 2.318737 1_555
As4 Be0 2.331736 1_555
As4 Sr2 3.235864 1_655
As4 Sr0 3.275665 1_555
As4 Sr1 3.326822 1_665
As4 Rb0 3.362649 1_665
As5 Be5 2.297633 1_556
As5 Be1 2.302976 1_555
As5 Be0 2.326147 1_556
As5 Be7 2.335080 1_555
As5 Sr2 3.275097 1_656
As5 Sr1 3.282818 1_665
As5 Sr0 3.312756 1_555
As5 Rb0 3.335031 1_666
As6 Be3 2.317628 1_555
As6 Be5 2.318559 1_555
As6 Be6 2.327358 1_545
As6 Be2 2.339637 1_555
As6 Sr0 3.282662 1_554
As6 Sr1 3.313376 1_655
As6 Sr2 3.330521 1_655
As6 Rb0 3.377333 1_655
As7 Be4 2.306179 1_555
As7 Be3 2.312120 1_555
As7 Be7 2.319036 1_545
As7 Be2 2.335471 1_556
As7 Sr0 3.311194 1_555
As7 Sr1 3.349674 1_655
As7 Sr2 3.372414 1_655
As7 Rb0 3.389290 1_656
