# generated using pymatgen
data_BaBiPtPb
_symmetry_space_group_name_H-M   'P 1'
_cell_length_a   10.09728105
_cell_length_b   10.09728070
_cell_length_c   5.04133286
_cell_angle_alpha   90.00000000
_cell_angle_beta   90.00000000
_cell_angle_gamma   151.20554287
_symmetry_Int_Tables_number   1
_chemical_formula_structural   BaBiPtPb
_chemical_formula_sum   'Ba2 Bi2 Pt2 Pb2'
_cell_volume   247.57275583
_cell_formula_units_Z   2
loop_
 _symmetry_equiv_pos_site_id
 _symmetry_equiv_pos_as_xyz
  1  'x, y, z'
loop_
 _atom_site_type_symbol
 _atom_site_label
 _atom_site_symmetry_multiplicity
 _atom_site_fract_x
 _atom_site_fract_y
 _atom_site_fract_z
 _atom_site_occupancy
  Ba  Ba0  1  0.10944594  0.89055406  0.24999900  1
  Ba  Ba1  1  0.89041163  0.10958837  0.75000000  1
  Bi  Bi0  1  0.54587728  0.45412172  0.75000000  1
  Bi  Bi1  1  0.25183448  0.74816552  0.75000000  1
  Pt  Pt0  1  0.31456803  0.68543197  0.24999900  1
  Pt  Pt1  1  0.68565251  0.31434749  0.75000000  1
  Pb  Pb0  1  0.74928572  0.25071428  0.24999900  1
  Pb  Pb1  1  0.45292342  0.54707558  0.24999900  1
loop_
_geom_bond_atom_site_label_1
_geom_bond_atom_site_label_2
_geom_bond_distance
_geom_bond_site_symmetry_2
Ba0 Pb0 3.712837 1_455
Ba0 Pb0 3.712837 1_565
Ba0 Bi1 3.756449 1_554
Ba0 Bi1 3.756456 1_555
Ba0 Bi0 3.768688 1_564
Ba0 Bi0 3.768691 1_454
Ba0 Bi0 3.768695 1_565
Ba0 Bi0 3.768698 1_455
Ba0 Pt1 3.857319 1_454
Ba0 Pt1 3.857319 1_564
Ba0 Pt1 3.857326 1_455
Ba0 Pt1 3.857326 1_565
Ba0 Pb1 3.959387 1_565
Ba0 Pb1 3.959391 1_455
Ba1 Bi1 3.694679 1_655
Ba1 Bi1 3.694680 1_545
Ba1 Pb0 3.738174 1_556
Ba1 Pb0 3.738181 1_555
Ba1 Pb1 3.761924 1_656
Ba1 Pb1 3.761928 1_546
Ba1 Pb1 3.761931 1_655
Ba1 Pb1 3.761934 1_545
Ba1 Pt0 3.854581 1_656
Ba1 Pt0 3.854581 1_546
Ba1 Pt0 3.854587 1_655
Ba1 Pt0 3.854588 1_545
Ba1 Bi0 3.943439 1_655
Ba1 Bi0 3.943442 1_545
Ba1 Pt1 4.005161 1_555
Bi0 Pt1 2.734043 1_555
Bi0 Pb1 3.107993 1_556
Bi0 Pb1 3.108002 1_555
Bi1 Pt0 2.803477 1_556
Bi1 Pt0 2.803486 1_555
Bi1 Pt1 2.824721 1_565
Bi1 Pt1 2.824721 1_455
Pb0 Pt1 2.811224 1_554
Pb0 Pt1 2.811233 1_555
Pb0 Pt0 2.816699 1_545
Pb0 Pt0 2.816699 1_655
Pb1 Pt0 2.706290 1_555
