# generated using pymatgen
data_Ho3Ge3Ru2
_symmetry_space_group_name_H-M   'P 1'
_cell_length_a   4.23444827
_cell_length_b   5.78069244
_cell_length_c   13.84864767
_cell_angle_alpha   90.00000000
_cell_angle_beta   90.00000000
_cell_angle_gamma   111.48502600
_symmetry_Int_Tables_number   1
_chemical_formula_structural   Ho3Ge3Ru2
_chemical_formula_sum   'Ho6 Ge6 Ru4'
_cell_volume   315.43265821
_cell_formula_units_Z   2
loop_
 _symmetry_equiv_pos_site_id
 _symmetry_equiv_pos_as_xyz
  1  'x, y, z'
loop_
 _atom_site_type_symbol
 _atom_site_label
 _atom_site_symmetry_multiplicity
 _atom_site_fract_x
 _atom_site_fract_y
 _atom_site_fract_z
 _atom_site_occupancy
  Ho  Ho0  1  0.14639692  0.29279284  0.25000000  1
  Ho  Ho1  1  0.85360308  0.70720716  0.75000000  1
  Ho  Ho2  1  0.57925563  0.15851026  0.88726281  1
  Ho  Ho3  1  0.42074437  0.84148974  0.11273719  1
  Ho  Ho4  1  0.42074437  0.84148974  0.38726281  1
  Ho  Ho5  1  0.57925563  0.15851026  0.61273719  1
  Ge  Ge0  1  0.83564196  0.67128491  0.25000000  1
  Ge  Ge1  1  0.16435804  0.32871509  0.75000000  1
  Ge  Ge2  1  0.88354503  0.76709005  0.54065161  1
  Ge  Ge3  1  0.11645497  0.23290995  0.45934839  1
  Ge  Ge4  1  0.11645497  0.23290995  0.04065161  1
  Ge  Ge5  1  0.88354503  0.76709005  0.95934839  1
  Ru  Ru0  1  0.28673045  0.57346089  0.58199015  1
  Ru  Ru1  1  0.71326955  0.42653911  0.41800985  1
  Ru  Ru2  1  0.71326955  0.42653911  0.08199015  1
  Ru  Ru3  1  0.28673045  0.57346089  0.91800985  1
loop_
_geom_bond_atom_site_label_1
_geom_bond_atom_site_label_2
_geom_bond_distance
_geom_bond_site_symmetry_2
Ho0 Ru2 3.227038 1_555
Ho0 Ru1 3.227038 1_555
Ho0 Ru2 3.227041 1_455
Ho0 Ru1 3.227041 1_455
Ho1 Ru3 3.227038 1_555
Ho1 Ru0 3.227038 1_555
Ho1 Ru0 3.227041 1_655
Ho1 Ru3 3.227041 1_655
Ho2 Ru2 3.057913 1_556
Ho2 Ru3 3.105780 1_655
Ho2 Ru3 3.105783 1_555
Ho2 Ru3 3.175663 1_545
Ho3 Ru3 3.057913 1_554
Ho3 Ru2 3.105780 1_455
Ho3 Ru2 3.105783 1_555
Ho3 Ru2 3.175663 1_565
Ho4 Ru0 3.057913 1_555
Ho4 Ru1 3.105780 1_455
Ho4 Ru1 3.105783 1_555
Ho4 Ru1 3.175663 1_565
Ho5 Ru1 3.057913 1_555
Ho5 Ru0 3.105780 1_655
Ho5 Ru0 3.105783 1_555
Ho5 Ru0 3.175663 1_545
Ge0 Ru2 2.673336 1_555
Ge0 Ru1 2.673336 1_555
Ge0 Ho0 2.937271 1_555
Ge0 Ho0 2.937278 1_655
Ge0 Ho3 2.989026 1_655
Ge0 Ho4 2.989026 1_655
Ge0 Ho3 2.989026 1_555
Ge0 Ho4 2.989026 1_555
Ge0 Ho0 3.343098 1_665
Ge1 Ru3 2.673336 1_555
Ge1 Ru0 2.673336 1_555
Ge1 Ho1 2.937271 1_555
Ge1 Ho1 2.937278 1_455
Ge1 Ho5 2.989026 1_455
Ge1 Ho2 2.989026 1_455
Ge1 Ho5 2.989026 1_555
Ge1 Ho2 2.989026 1_555
Ge1 Ho1 3.343098 1_445
Ge2 Ru0 2.427996 1_555
Ge2 Ru0 2.427997 1_655
Ge2 Ru1 2.498045 1_555
Ge2 Ge3 2.747003 1_665
Ge2 Ho1 2.917031 1_555
Ge2 Ho4 3.025744 1_655
Ge2 Ho4 3.025747 1_555
Ge2 Ho5 3.148356 1_565
Ge2 Ho5 3.148358 1_665
Ge2 Ho5 3.422391 1_555
Ge3 Ru1 2.427996 1_555
Ge3 Ru1 2.427997 1_455
Ge3 Ru0 2.498045 1_555
Ge3 Ho0 2.917031 1_555
Ge3 Ho5 3.025744 1_455
Ge3 Ho5 3.025747 1_555
Ge3 Ho4 3.148356 1_545
Ge3 Ho4 3.148358 1_445
Ge3 Ho4 3.422391 1_555
Ge4 Ru2 2.427996 1_555
Ge4 Ru2 2.427997 1_455
Ge4 Ru3 2.498045 1_554
Ge4 Ge5 2.747003 1_444
Ge4 Ho0 2.917031 1_555
Ge4 Ho2 3.025744 1_454
Ge4 Ho2 3.025747 1_554
Ge4 Ho3 3.148356 1_545
Ge4 Ho3 3.148358 1_445
Ge4 Ho3 3.422391 1_555
Ge5 Ru3 2.427996 1_555
Ge5 Ru3 2.427997 1_655
Ge5 Ru2 2.498045 1_556
Ge5 Ho1 2.917031 1_555
Ge5 Ho3 3.025744 1_656
Ge5 Ho3 3.025747 1_556
Ge5 Ho2 3.148356 1_565
Ge5 Ho2 3.148358 1_665
Ge5 Ho2 3.422391 1_555
