# generated using pymatgen
data_Cr2Ga(Ni10B3)2
_symmetry_space_group_name_H-M   'P 1'
_cell_length_a   7.35612302
_cell_length_b   7.35612231
_cell_length_c   7.35612239
_cell_angle_alpha   59.99999967
_cell_angle_beta   60.00000286
_cell_angle_gamma   60.00000124
_symmetry_Int_Tables_number   1
_chemical_formula_structural   Cr2Ga(Ni10B3)2
_chemical_formula_sum   'Cr2 Ga1 Ni20 B6'
_cell_volume   281.46985303
_cell_formula_units_Z   1
loop_
 _symmetry_equiv_pos_site_id
 _symmetry_equiv_pos_as_xyz
  1  'x, y, z'
loop_
 _atom_site_type_symbol
 _atom_site_label
 _atom_site_symmetry_multiplicity
 _atom_site_fract_x
 _atom_site_fract_y
 _atom_site_fract_z
 _atom_site_occupancy
  Cr  Cr0  1  0.00000000  0.00000000  0.00000000  1
  Cr  Cr1  1  0.25000000  0.25000000  0.25000000  1
  Ga  Ga0  1  0.75000000  0.75000000  0.75000000  1
  Ni  Ni0  1  0.61831384  0.61831384  0.14505647  1
  Ni  Ni1  1  0.61831384  0.14505647  0.61831384  1
  Ni  Ni2  1  0.14505647  0.61831384  0.61831384  1
  Ni  Ni3  1  0.61831384  0.61831384  0.61831384  1
  Ni  Ni4  1  0.38425261  0.38425261  0.84724316  1
  Ni  Ni5  1  0.38425261  0.84724316  0.38425261  1
  Ni  Ni6  1  0.84724316  0.38425261  0.38425261  1
  Ni  Ni7  1  0.38425261  0.38425261  0.38425261  1
  Ni  Ni8  1  0.00099399  0.00099399  0.33864166  1
  Ni  Ni9  1  0.65937135  0.00099399  0.33864166  1
  Ni  Ni10  1  0.00099399  0.65937135  0.33864166  1
  Ni  Ni11  1  0.65937135  0.33864166  0.00099399  1
  Ni  Ni12  1  0.00099399  0.33864166  0.00099399  1
  Ni  Ni13  1  0.00099399  0.33864166  0.65937135  1
  Ni  Ni14  1  0.33864166  0.65937135  0.00099399  1
  Ni  Ni15  1  0.33864166  0.00099399  0.65937135  1
  Ni  Ni16  1  0.33864166  0.00099399  0.00099399  1
  Ni  Ni17  1  0.00099399  0.00099399  0.65937135  1
  Ni  Ni18  1  0.00099399  0.65937135  0.00099399  1
  Ni  Ni19  1  0.65937135  0.00099399  0.00099399  1
  B  B0  1  0.72853804  0.72853804  0.27146196  1
  B  B1  1  0.27146196  0.72853804  0.27146196  1
  B  B2  1  0.72853804  0.27146196  0.27146196  1
  B  B3  1  0.27146196  0.27146196  0.72853804  1
  B  B4  1  0.72853804  0.27146196  0.72853804  1
  B  B5  1  0.27146196  0.72853804  0.72853804  1
loop_
_geom_bond_atom_site_label_1
_geom_bond_atom_site_label_2
_geom_bond_distance
_geom_bond_site_symmetry_2
Cr0 Ni18 2.498415 1_545
Cr0 Ni17 2.498415 1_554
Cr0 Ni19 2.498416 1_455
Cr0 Ni10 2.498419 1_545
Cr0 Ni13 2.498419 1_554
Cr0 Ni14 2.498419 1_545
Cr0 Ni11 2.498419 1_455
Cr0 Ni15 2.498419 1_554
Cr0 Ni9 2.498419 1_455
Cr0 Ni12 2.498423 1_555
Cr0 Ni8 2.498423 1_555
Cr0 Ni16 2.498423 1_555
Cr1 Ni5 2.419058 1_545
Cr1 Ni4 2.419058 1_554
Cr1 Ni6 2.419058 1_455
Cr1 Ni7 2.419064 1_555
Ga0 Ni1 2.372807 1_565
Ga0 Ni0 2.372807 1_556
Ga0 Ni2 2.372808 1_655
Ga0 Ni3 2.372819 1_555
B0 Ni19 2.058940 1_565
B0 Ni18 2.058940 1_655
B0 Ni9 2.058945 1_565
B0 Ni10 2.058945 1_655
B0 Ni6 2.068016 1_555
B0 Ni5 2.068017 1_555
B0 Ni3 2.084412 1_555
B0 Ni0 2.084424 1_555
B1 Ni14 2.058938 1_555
B1 Ni10 2.058938 1_555
B1 Ni16 2.058942 1_565
B1 Ni8 2.058942 1_565
B1 Ni7 2.068016 1_555
B1 Ni5 2.068022 1_555
B1 Ni2 2.084412 1_555
B1 Ni0 2.084412 1_555
B2 Ni9 2.058938 1_555
B2 Ni11 2.058938 1_555
B2 Ni8 2.058942 1_655
B2 Ni12 2.058942 1_655
B2 Ni7 2.068017 1_555
B2 Ni6 2.068023 1_555
B2 Ni0 2.084412 1_555
B2 Ni1 2.084412 1_555
B3 Ni15 2.058938 1_555
B3 Ni13 2.058938 1_555
B3 Ni16 2.058942 1_556
B3 Ni12 2.058942 1_556
B3 Ni7 2.068016 1_555
B3 Ni4 2.068022 1_555
B3 Ni2 2.084412 1_555
B3 Ni1 2.084412 1_555
B4 Ni19 2.058940 1_556
B4 Ni17 2.058940 1_655
B4 Ni11 2.058945 1_556
B4 Ni13 2.058945 1_655
B4 Ni6 2.068017 1_555
B4 Ni4 2.068017 1_555
B4 Ni3 2.084412 1_555
B4 Ni1 2.084424 1_555
B5 Ni17 2.058940 1_565
B5 Ni18 2.058940 1_556
B5 Ni15 2.058945 1_565
B5 Ni14 2.058945 1_556
B5 Ni4 2.068016 1_555
B5 Ni5 2.068017 1_555
B5 Ni3 2.084412 1_555
B5 Ni2 2.084424 1_555
