# generated using pymatgen
data_Mg2Al5Cu6
_symmetry_space_group_name_H-M   'P 1'
_cell_length_a   8.18632828
_cell_length_b   8.18632828
_cell_length_c   8.18632828
_cell_angle_alpha   90.00000000
_cell_angle_beta   90.00000000
_cell_angle_gamma   90.00000000
_symmetry_Int_Tables_number   1
_chemical_formula_structural   Mg2Al5Cu6
_chemical_formula_sum   'Mg6 Al15 Cu18'
_cell_volume   548.61473622
_cell_formula_units_Z   3
loop_
 _symmetry_equiv_pos_site_id
 _symmetry_equiv_pos_as_xyz
  1  'x, y, z'
loop_
 _atom_site_type_symbol
 _atom_site_label
 _atom_site_symmetry_multiplicity
 _atom_site_fract_x
 _atom_site_fract_y
 _atom_site_fract_z
 _atom_site_occupancy
  Mg  Mg0  1  0.67921091  0.00000000  0.50000000  1
  Mg  Mg1  1  0.50000000  0.32078909  -0.00000000  1
  Mg  Mg2  1  0.00000000  0.50000000  0.32078909  1
  Mg  Mg3  1  0.50000000  0.67921091  -0.00000000  1
  Mg  Mg4  1  0.00000000  0.50000000  0.67921091  1
  Mg  Mg5  1  0.32078909  0.00000000  0.50000000  1
  Al  Al0  1  0.50000000  0.00000000  0.83311160  1
  Al  Al1  1  0.21787519  0.21787519  0.21787519  1
  Al  Al2  1  0.78212481  0.78212481  0.21787519  1
  Al  Al3  1  0.21787519  0.78212481  0.78212481  1
  Al  Al4  1  0.83311160  0.50000000  -0.00000000  1
  Al  Al5  1  0.78212481  0.78212481  0.78212481  1
  Al  Al6  1  0.21787519  0.21787519  0.78212481  1
  Al  Al7  1  0.78212481  0.21787519  0.21787519  1
  Al  Al8  1  0.21787519  0.78212481  0.21787519  1
  Al  Al9  1  0.00000000  0.83311160  0.50000000  1
  Al  Al10  1  0.50000000  0.00000000  0.16688840  1
  Al  Al11  1  0.00000000  0.16688840  0.50000000  1
  Al  Al12  1  0.16688840  0.50000000  -0.00000000  1
  Al  Al13  1  0.50000000  0.50000000  0.50000000  1
  Al  Al14  1  0.78212481  0.21787519  0.78212481  1
  Cu  Cu0  1  0.50000000  0.24539569  0.33448699  1
  Cu  Cu1  1  0.33448699  0.50000000  0.24539569  1
  Cu  Cu2  1  0.24539569  0.33448699  0.50000000  1
  Cu  Cu3  1  0.75460431  0.66551301  0.50000000  1
  Cu  Cu4  1  0.33448699  0.50000000  0.75460431  1
  Cu  Cu5  1  0.75460431  0.33448699  0.50000000  1
  Cu  Cu6  1  0.66551301  0.50000000  0.24539569  1
  Cu  Cu7  1  0.66551301  0.50000000  0.75460431  1
  Cu  Cu8  1  0.24539569  0.66551301  0.50000000  1
  Cu  Cu9  1  0.50000000  0.75460431  0.66551301  1
  Cu  Cu10  1  0.50000000  0.24539569  0.66551301  1
  Cu  Cu11  1  0.50000000  0.75460431  0.33448699  1
  Cu  Cu12  1  0.77249982  0.00000000  -0.00000000  1
  Cu  Cu13  1  0.00000000  0.77249982  -0.00000000  1
  Cu  Cu14  1  0.00000000  0.00000000  0.22750018  1
  Cu  Cu15  1  0.00000000  0.22750018  -0.00000000  1
  Cu  Cu16  1  0.22750018  0.00000000  -0.00000000  1
  Cu  Cu17  1  0.00000000  0.00000000  0.77249982  1
loop_
_geom_bond_atom_site_label_1
_geom_bond_atom_site_label_2
_geom_bond_distance
_geom_bond_site_symmetry_2
Mg0 Mg5 2.934159 1_555
Mg1 Mg3 2.934159 1_555
Mg2 Mg4 2.934159 1_555
Al0 Cu10 2.432708 1_555
Al0 Cu9 2.432708 1_545
Al0 Cu16 2.615886 1_556
Al0 Cu12 2.615886 1_556
Al0 Al10 2.732406 1_556
Al0 Al5 2.947802 1_545
Al0 Al14 2.947802 1_555
Al0 Al6 2.947802 1_555
Al0 Al3 2.947802 1_545
Al0 Mg1 2.960208 1_556
Al0 Mg3 2.960208 1_546
Al0 Mg5 3.096553 1_555
Al0 Mg0 3.096553 1_555
Al1 Cu2 2.509214 1_555
Al1 Cu1 2.509214 1_555
Al1 Cu0 2.509214 1_555
Al1 Cu14 2.523619 1_555
Al1 Cu15 2.523619 1_555
Al1 Cu16 2.523619 1_555
Al1 Al12 2.947802 1_555
Al1 Al10 2.947802 1_555
Al1 Al11 2.947802 1_555
Al1 Mg2 3.037285 1_555
Al1 Mg5 3.037285 1_555
Al1 Mg1 3.037285 1_555
Al2 Cu11 2.509214 1_555
Al2 Cu6 2.509214 1_555
Al2 Cu3 2.509214 1_555
Al2 Cu13 2.523619 1_655
Al2 Cu14 2.523619 1_665
Al2 Cu12 2.523619 1_565
Al2 Al9 2.947802 1_655
Al2 Al4 2.947802 1_555
Al2 Mg0 3.037285 1_565
Al2 Mg2 3.037285 1_655
Al2 Mg3 3.037285 1_555
Al3 Cu4 2.509214 1_555
Al3 Cu9 2.509214 1_555
Al3 Cu8 2.509214 1_555
Al3 Cu13 2.523619 1_556
Al3 Cu17 2.523619 1_565
Al3 Cu16 2.523619 1_566
Al3 Al9 2.947802 1_555
Al3 Mg3 3.037285 1_556
Al3 Mg4 3.037285 1_555
Al3 Mg5 3.037285 1_565
Al4 Cu7 2.432708 1_554
Al4 Cu6 2.432708 1_555
Al4 Cu15 2.615886 1_655
Al4 Cu13 2.615886 1_655
Al4 Al5 2.947802 1_554
Al4 Al7 2.947802 1_555
Al4 Mg2 2.960208 1_655
Al4 Mg4 2.960208 1_654
Al4 Mg3 3.096553 1_555
Al4 Mg1 3.096553 1_555
Al5 Cu7 2.509214 1_555
Al5 Cu9 2.509214 1_555
Al5 Cu3 2.509214 1_555
Al5 Cu13 2.523619 1_656
Al5 Cu12 2.523619 1_566
Al5 Cu17 2.523619 1_665
Al5 Al9 2.947802 1_655
Al5 Mg4 3.037285 1_655
Al5 Mg0 3.037285 1_565
Al5 Mg3 3.037285 1_556
Al6 Cu4 2.509214 1_555
Al6 Cu2 2.509214 1_555
Al6 Cu10 2.509214 1_555
Al6 Cu16 2.523619 1_556
Al6 Cu17 2.523619 1_555
Al6 Cu15 2.523619 1_556
Al6 Mg5 3.037285 1_555
Al6 Mg4 3.037285 1_555
Al6 Mg1 3.037285 1_556
Al7 Cu5 2.509214 1_555
Al7 Cu0 2.509214 1_555
Al7 Cu6 2.509214 1_555
Al7 Cu14 2.523619 1_655
Al7 Cu12 2.523619 1_555
Al7 Cu15 2.523619 1_655
Al7 Mg0 3.037285 1_555
Al7 Mg2 3.037285 1_655
Al7 Mg1 3.037285 1_555
Al8 Cu1 2.509214 1_555
Al8 Cu11 2.509214 1_555
Al8 Cu8 2.509214 1_555
Al8 Cu16 2.523619 1_565
Al8 Cu14 2.523619 1_565
Al8 Cu13 2.523619 1_555
Al8 Al9 2.947802 1_555
Al8 Mg2 3.037285 1_555
Al8 Mg3 3.037285 1_555
Al8 Mg5 3.037285 1_565
Al9 Cu3 2.432708 1_455
Al9 Cu8 2.432708 1_555
Al9 Cu14 2.615886 1_565
Al9 Cu17 2.615886 1_565
Al9 Mg5 2.960208 1_565
Al9 Mg0 2.960208 1_465
Al9 Mg4 3.096553 1_555
Al9 Mg2 3.096553 1_555
Al10 Cu0 2.432708 1_555
Al10 Cu11 2.432708 1_545
Al10 Cu16 2.615886 1_555
Al10 Cu12 2.615886 1_555
Al10 Al2 2.947802 1_545
Al10 Al7 2.947802 1_555
Al10 Al8 2.947802 1_545
Al10 Mg1 2.960208 1_555
Al10 Mg3 2.960208 1_545
Al10 Mg0 3.096553 1_555
Al10 Mg5 3.096553 1_555
Al11 Cu5 2.432708 1_455
Al11 Cu2 2.432708 1_555
Al11 Cu14 2.615886 1_555
Al11 Cu17 2.615886 1_555
Al11 Al9 2.732406 1_545
Al11 Al14 2.947802 1_455
Al11 Al6 2.947802 1_555
Al11 Al7 2.947802 1_455
Al11 Mg0 2.960208 1_455
Al11 Mg5 2.960208 1_555
Al11 Mg2 3.096553 1_555
Al11 Mg4 3.096553 1_555
Al12 Cu1 2.432708 1_555
Al12 Cu4 2.432708 1_554
Al12 Cu15 2.615886 1_555
Al12 Cu13 2.615886 1_555
Al12 Al4 2.732406 1_455
Al12 Al6 2.947802 1_554
Al12 Al3 2.947802 1_554
Al12 Al8 2.947802 1_555
Al12 Mg2 2.960208 1_555
Al12 Mg4 2.960208 1_554
Al12 Mg3 3.096553 1_555
Al12 Mg1 3.096553 1_555
Al13 Cu2 2.485975 1_555
Al13 Cu0 2.485975 1_555
Al13 Cu6 2.485975 1_555
Al13 Cu10 2.485975 1_555
Al13 Cu8 2.485975 1_555
Al13 Cu1 2.485975 1_555
Al13 Cu3 2.485975 1_555
Al13 Cu4 2.485975 1_555
Al13 Cu5 2.485975 1_555
Al13 Cu7 2.485975 1_555
Al13 Cu11 2.485975 1_555
Al13 Cu9 2.485975 1_555
Al14 Cu5 2.509214 1_555
Al14 Cu7 2.509214 1_555
Al14 Cu10 2.509214 1_555
Al14 Cu17 2.523619 1_655
Al14 Cu15 2.523619 1_656
Al14 Cu12 2.523619 1_556
Al14 Al4 2.947802 1_556
Al14 Mg4 3.037285 1_655
Al14 Mg0 3.037285 1_555
Al14 Mg1 3.037285 1_556
Cu0 Cu2 2.590752 1_555
Cu0 Cu1 2.590752 1_555
Cu0 Cu6 2.590752 1_555
Cu0 Cu5 2.590752 1_555
Cu0 Cu10 2.709888 1_555
Cu0 Mg1 2.806917 1_555
Cu0 Mg0 2.832637 1_555
Cu0 Mg5 2.832637 1_555
Cu1 Cu2 2.590752 1_555
Cu1 Cu8 2.590752 1_555
Cu1 Cu11 2.590752 1_555
Cu1 Cu6 2.709888 1_555
Cu1 Mg2 2.806917 1_555
Cu1 Mg1 2.832637 1_555
Cu1 Mg3 2.832637 1_555
Cu2 Cu4 2.590752 1_555
Cu2 Cu8 2.709888 1_555
Cu2 Mg5 2.806917 1_555
Cu2 Mg2 2.832637 1_555
Cu2 Mg4 2.832637 1_555
Cu3 Cu6 2.590752 1_555
Cu3 Cu9 2.590752 1_555
Cu3 Cu7 2.590752 1_555
Cu3 Cu5 2.709888 1_555
Cu3 Mg0 2.806917 1_565
Cu3 Mg2 2.832637 1_655
Cu3 Mg4 2.832637 1_655
Cu4 Cu8 2.590752 1_555
Cu4 Cu9 2.590752 1_555
Cu4 Cu7 2.709888 1_555
Cu4 Mg4 2.806917 1_555
Cu4 Mg1 2.832637 1_556
Cu4 Mg3 2.832637 1_556
Cu5 Cu6 2.590752 1_555
Cu5 Cu7 2.590752 1_555
Cu5 Mg0 2.806917 1_555
Cu5 Mg2 2.832637 1_655
Cu5 Mg4 2.832637 1_655
Cu6 Mg2 2.806917 1_655
Cu6 Mg3 2.832637 1_555
Cu6 Mg1 2.832637 1_555
Cu7 Cu9 2.590752 1_555
Cu7 Mg4 2.806917 1_655
Cu7 Mg1 2.832637 1_556
Cu7 Mg3 2.832637 1_556
Cu8 Cu9 2.590752 1_555
Cu8 Mg5 2.806917 1_565
Cu8 Mg4 2.832637 1_555
Cu8 Mg2 2.832637 1_555
Cu9 Mg3 2.806917 1_556
Cu9 Mg0 2.832637 1_565
Cu9 Mg5 2.832637 1_565
Cu10 Cu2 2.590752 1_555
Cu10 Cu5 2.590752 1_555
Cu10 Cu7 2.590752 1_555
Cu10 Cu4 2.590752 1_555
Cu10 Mg1 2.806917 1_556
Cu10 Mg0 2.832637 1_555
Cu10 Mg5 2.832637 1_555
Cu11 Cu6 2.590752 1_555
Cu11 Cu8 2.590752 1_555
Cu11 Cu3 2.590752 1_555
Cu11 Cu9 2.709888 1_555
Cu11 Mg3 2.806917 1_555
Cu11 Mg0 2.832637 1_565
Cu11 Mg5 2.832637 1_565
Cu12 Cu17 2.633819 1_654
Cu12 Cu13 2.633819 1_645
Cu12 Cu14 2.633819 1_655
Cu12 Cu15 2.633819 1_655
Cu13 Cu17 2.633819 1_564
Cu13 Cu14 2.633819 1_565
Cu13 Cu16 2.633819 1_565
Cu14 Cu16 2.633819 1_555
Cu14 Cu15 2.633819 1_555
Cu15 Cu17 2.633819 1_554
Cu15 Cu16 2.633819 1_555
Cu16 Cu17 2.633819 1_554
