# generated using pymatgen
data_SrFe2(P6Ir)2
_symmetry_space_group_name_H-M   'P 1'
_cell_length_a   6.87486236
_cell_length_b   6.90303507
_cell_length_c   6.90303577
_cell_angle_alpha   109.65932140
_cell_angle_beta   109.43693551
_cell_angle_gamma   109.48278437
_symmetry_Int_Tables_number   1
_chemical_formula_structural   SrFe2(P6Ir)2
_chemical_formula_sum   'Sr1 Fe2 P12 Ir2'
_cell_volume   251.66995980
_cell_formula_units_Z   1
loop_
 _symmetry_equiv_pos_site_id
 _symmetry_equiv_pos_as_xyz
  1  'x, y, z'
loop_
 _atom_site_type_symbol
 _atom_site_label
 _atom_site_symmetry_multiplicity
 _atom_site_fract_x
 _atom_site_fract_y
 _atom_site_fract_z
 _atom_site_occupancy
  Sr  Sr0  1  0.00000000  0.00000000  0.00000000  1
  Fe  Fe0  1  0.00000000  0.50000000  0.00000000  1
  Fe  Fe1  1  0.00000000  0.00000000  0.50000000  1
  P  P0  1  0.13516523  0.79035846  0.63519609  1
  P  P1  1  0.13516523  0.49996914  0.34480677  1
  P  P2  1  0.86483477  0.50003086  0.65519323  1
  P  P3  1  0.34471479  0.13497911  0.50012107  1
  P  P4  1  0.80043363  0.65079815  0.14963548  1
  P  P5  1  0.86483477  0.20964154  0.36480391  1
  P  P6  1  0.65528521  0.15540728  0.79026332  1
  P  P7  1  0.49888747  0.63886182  0.86002565  1
  P  P8  1  0.65528521  0.86502089  0.49987893  1
  P  P9  1  0.50111253  0.36113818  0.13997435  1
  P  P10  1  0.34471479  0.84459272  0.20973668  1
  P  P11  1  0.19956637  0.34920185  0.85036452  1
  Ir  Ir0  1  0.50000000  0.00000000  0.00000000  1
  Ir  Ir1  1  0.50000000  0.50000000  0.50000000  1
loop_
_geom_bond_atom_site_label_1
_geom_bond_atom_site_label_2
_geom_bond_distance
_geom_bond_site_symmetry_2
Fe0 P10 2.238224 1_555
Fe0 P6 2.238224 1_454
Fe0 P2 2.248855 1_454
Fe0 P1 2.248855 1_555
Fe0 P4 2.281514 1_455
Fe0 P11 2.281514 1_554
Fe1 P3 2.238229 1_555
Fe1 P8 2.238229 1_445
Fe1 P5 2.248854 1_455
Fe1 P0 2.248854 1_545
Fe1 P11 2.281514 1_555
Fe1 P4 2.281514 1_445
P0 P1 2.309299 1_555
P0 P2 2.315592 1_455
P0 Sr0 3.049870 1_566
P1 P5 2.315592 1_455
P1 Sr0 3.049870 1_555
P2 P5 2.309299 1_555
P2 Sr0 3.049870 1_666
P3 P6 2.313688 1_555
P3 Sr0 3.052974 1_555
P4 P9 2.304642 1_555
P4 P7 2.306109 1_554
P4 Sr0 3.028623 1_665
P5 Sr0 3.049870 1_655
P6 P8 2.309268 1_545
P6 Sr0 3.052982 1_656
P7 Sr0 3.074396 1_666
P8 Sr0 3.052974 1_666
P9 Sr0 3.074396 1_555
P10 P3 2.309268 1_565
P10 P8 2.313688 1_555
P10 Sr0 3.052982 1_565
P11 P7 2.304642 1_555
P11 P9 2.306109 1_556
P11 Sr0 3.028623 1_556
Ir0 P9 2.347356 1_555
Ir0 P7 2.347356 1_544
Ir0 P5 2.376945 1_555
Ir0 P0 2.376945 1_544
Ir0 P6 2.386744 1_554
Ir0 P10 2.386744 1_545
Ir1 P9 2.347356 1_555
Ir1 P7 2.347356 1_555
Ir1 P1 2.376946 1_555
Ir1 P2 2.376946 1_555
Ir1 P8 2.386734 1_555
Ir1 P3 2.386734 1_555
