# generated using pymatgen
data_Sc4Ga3P3Ir7
_symmetry_space_group_name_H-M   'P 1'
_cell_length_a   6.94510898
_cell_length_b   6.94510895
_cell_length_c   7.06203173
_cell_angle_alpha   109.81261050
_cell_angle_beta   109.81261042
_cell_angle_gamma   109.12768802
_symmetry_Int_Tables_number   1
_chemical_formula_structural   Sc4Ga3P3Ir7
_chemical_formula_sum   'Sc4 Ga3 P3 Ir7'
_cell_volume   261.10713295
_cell_formula_units_Z   1
loop_
 _symmetry_equiv_pos_site_id
 _symmetry_equiv_pos_as_xyz
  1  'x, y, z'
loop_
 _atom_site_type_symbol
 _atom_site_label
 _atom_site_symmetry_multiplicity
 _atom_site_fract_x
 _atom_site_fract_y
 _atom_site_fract_z
 _atom_site_occupancy
  Sc  Sc0  1  0.00000000  0.00000000  0.54261676  1
  Sc  Sc1  1  0.00000000  0.47424813  0.00359615  1
  Sc  Sc2  1  0.47424813  0.00000000  0.00359615  1
  Sc  Sc3  1  0.52575187  0.52575187  0.52934903  1
  Ga  Ga0  1  0.71722036  0.71722036  0.01886468  1
  Ga  Ga1  1  0.28277964  1.00000000  0.30164433  1
  Ga  Ga2  1  1.00000000  0.28277964  0.30164433  1
  P  P0  1  0.33697900  0.33697900  0.00226089  1
  P  P1  1  0.66302100  0.00000000  0.66528189  1
  P  P2  1  0.00000000  0.66302100  0.66528189  1
  Ir  Ir0  1  0.74633554  0.24921014  0.50156583  1
  Ir  Ir1  1  0.75078986  0.49712540  0.25235570  1
  Ir  Ir2  1  0.50287460  0.25366446  0.75522930  1
  Ir  Ir3  1  0.25366446  0.50287460  0.75522930  1
  Ir  Ir4  1  0.24921014  0.74633554  0.50156583  1
  Ir  Ir5  1  0.49712540  0.75078986  0.25235570  1
  Ir  Ir6  1  1.00000000  1.00000000  0.94756525  1
loop_
_geom_bond_atom_site_label_1
_geom_bond_atom_site_label_2
_geom_bond_distance
_geom_bond_site_symmetry_2
Ga0 Ir6 2.603960 1_554
Ga0 Ir1 2.606040 1_555
Ga0 Ir5 2.606040 1_555
Ga0 Ir2 2.638996 1_554
Ga0 Ir3 2.638996 1_554
Ga0 Sc3 2.845332 1_554
Ga0 Sc2 2.984679 1_565
Ga0 Sc1 2.984679 1_655
Ga0 Sc0 3.003101 1_665
Ga1 Ir6 2.603961 1_454
Ga1 Ir2 2.606034 1_565
Ga1 Ir4 2.606040 1_555
Ga1 Ir0 2.638995 1_565
Ga1 Ir5 2.638995 1_555
Ga1 Sc2 2.845338 1_565
Ga1 Sc3 2.984678 1_565
Ga1 Sc1 2.984678 1_555
Ga1 Sc0 3.003101 1_565
Ga2 Ir6 2.603961 1_544
Ga2 Ir3 2.606034 1_655
Ga2 Ir0 2.606040 1_555
Ga2 Ir4 2.638995 1_655
Ga2 Ir1 2.638995 1_555
Ga2 Sc1 2.845338 1_655
Ga2 Sc3 2.984678 1_655
Ga2 Sc2 2.984678 1_555
Ga2 Sc0 3.003101 1_655
P0 Sc0 2.757175 1_554
P0 Sc2 2.803087 1_555
P0 Sc1 2.803087 1_555
P0 Sc3 3.090385 1_555
P1 Sc0 2.757175 1_655
P1 Sc1 2.803086 1_656
P1 Sc3 2.803088 1_545
P1 Sc2 3.090378 1_556
P2 Sc0 2.757175 1_565
P2 Sc2 2.803086 1_566
P2 Sc3 2.803088 1_455
P2 Sc1 3.090378 1_556
Ir0 P2 2.397644 1_655
Ir0 P1 2.412648 1_555
Ir0 Sc3 2.819711 1_555
Ir0 Sc2 2.856435 1_555
Ir0 Sc0 2.859295 1_655
Ir0 Sc1 2.884641 1_656
Ir1 P0 2.397644 1_555
Ir1 P2 2.412649 1_655
Ir1 Sc2 2.819711 1_555
Ir1 Sc1 2.856435 1_655
Ir1 Sc0 2.859294 1_665
Ir1 Sc3 2.884646 1_555
Ir2 P1 2.397643 1_555
Ir2 P0 2.412654 1_556
Ir2 Sc1 2.819711 1_656
Ir2 Sc3 2.856424 1_555
Ir2 Sc0 2.859295 1_555
Ir2 Sc2 2.884646 1_556
Ir3 P2 2.397643 1_555
Ir3 P0 2.412654 1_556
Ir3 Sc2 2.819711 1_566
Ir3 Sc3 2.856424 1_555
Ir3 Sc0 2.859295 1_555
Ir3 Sc1 2.884646 1_556
Ir4 P1 2.397644 1_565
Ir4 P2 2.412648 1_555
Ir4 Sc3 2.819711 1_555
Ir4 Sc1 2.856435 1_555
Ir4 Sc0 2.859295 1_565
Ir4 Sc2 2.884641 1_566
Ir5 P0 2.397644 1_555
Ir5 P1 2.412649 1_565
Ir5 Sc1 2.819711 1_555
Ir5 Sc2 2.856435 1_565
Ir5 Sc0 2.859294 1_665
Ir5 Sc3 2.884646 1_555
Ir6 P0 2.507707 1_666
Ir6 P2 2.507708 1_655
Ir6 P1 2.507708 1_565
Ir6 Sc0 2.859759 1_665
Ir6 Sc3 3.181441 1_555
Ir6 Sc1 3.181442 1_666
Ir6 Sc2 3.181442 1_666
