# generated using pymatgen
data_Hf5Al16SiIr7
_symmetry_space_group_name_H-M   'P 1'
_cell_length_a   8.60095735
_cell_length_b   8.67544743
_cell_length_c   8.67544874
_cell_angle_alpha   59.43273440
_cell_angle_beta   60.28363031
_cell_angle_gamma   60.28363658
_symmetry_Int_Tables_number   1
_chemical_formula_structural   Hf5Al16SiIr7
_chemical_formula_sum   'Hf5 Al16 Si1 Ir7'
_cell_volume   457.66966957
_cell_formula_units_Z   1
loop_
 _symmetry_equiv_pos_site_id
 _symmetry_equiv_pos_as_xyz
  1  'x, y, z'
loop_
 _atom_site_type_symbol
 _atom_site_label
 _atom_site_symmetry_multiplicity
 _atom_site_fract_x
 _atom_site_fract_y
 _atom_site_fract_z
 _atom_site_occupancy
  Hf  Hf0  1  0.31857979  0.68142021  0.68142021  1
  Hf  Hf1  1  0.29125472  0.70874528  0.29412484  1
  Hf  Hf2  1  0.70587516  0.29412484  0.70874528  1
  Hf  Hf3  1  0.29125472  0.29412484  0.70874528  1
  Hf  Hf4  1  0.70587516  0.70874528  0.29412484  1
  Al  Al0  1  0.37825570  0.33526298  0.33526298  1
  Al  Al1  1  0.67639695  0.65470411  0.65470411  1
  Al  Al2  1  0.34529589  0.32360305  0.98580517  1
  Al  Al3  1  0.34529589  0.98580517  0.32360305  1
  Al  Al4  1  0.66473702  0.62174430  0.04877965  1
  Al  Al5  1  0.66473702  0.04877965  0.62174430  1
  Al  Al6  1  0.95122035  0.33526298  0.33526298  1
  Al  Al7  1  0.01419483  0.65470411  0.65470411  1
  Al  Al8  1  0.11485032  0.11832474  0.11832474  1
  Al  Al9  1  0.88196263  0.87158899  0.87158899  1
  Al  Al10  1  0.12841101  0.11803737  0.62514161  1
  Al  Al11  1  0.12841101  0.62514161  0.11803737  1
  Al  Al12  1  0.88167526  0.88514968  0.35149781  1
  Al  Al13  1  0.88167526  0.35149781  0.88514968  1
  Al  Al14  1  0.64850219  0.11832474  0.11832474  1
  Al  Al15  1  0.37485839  0.87158899  0.87158899  1
  Si  Si0  1  0.54025363  0.45974637  0.45974637  1
  Ir  Ir0  1  0.51133146  0.98866854  0.98866854  1
  Ir  Ir1  1  0.01133146  0.48866854  0.48866854  1
  Ir  Ir2  1  0.01280462  0.49607848  0.98719538  1
  Ir  Ir3  1  0.50392152  0.98719538  0.49607848  1
  Ir  Ir4  1  0.01280462  0.98719538  0.49607848  1
  Ir  Ir5  1  0.50392152  0.49607848  0.98719538  1
  Ir  Ir6  1  0.01031188  0.98968812  0.98968812  1
loop_
_geom_bond_atom_site_label_1
_geom_bond_atom_site_label_2
_geom_bond_distance
_geom_bond_site_symmetry_2
Hf0 Si0 2.742856 1_555
Hf0 Ir3 3.078401 1_555
Hf0 Ir2 3.078402 1_555
Hf0 Ir4 3.078402 1_555
Hf0 Ir5 3.078402 1_555
Hf1 Si0 2.573856 1_555
Hf1 Ir0 3.088955 1_554
Hf1 Ir1 3.088955 1_555
Hf2 Si0 2.573856 1_555
Hf2 Ir0 3.088955 1_545
Hf2 Ir1 3.088955 1_655
Hf3 Si0 2.573855 1_555
Hf3 Ir0 3.088955 1_545
Hf3 Ir1 3.088955 1_555
Hf4 Si0 2.573855 1_555
Hf4 Ir0 3.088955 1_554
Hf4 Ir1 3.088955 1_655
Al0 Ir3 2.491439 1_545
Al0 Ir5 2.491439 1_554
Al0 Ir1 2.641129 1_555
Al0 Si0 2.905827 1_555
Al1 Ir5 2.481745 1_555
Al1 Ir3 2.481745 1_555
Al1 Ir1 2.516141 1_655
Al1 Hf0 2.866908 1_555
Al2 Ir5 2.481745 1_555
Al2 Ir2 2.481745 1_555
Al2 Ir0 2.516141 1_545
Al2 Hf0 2.866908 1_555
Al3 Ir4 2.481745 1_555
Al3 Ir3 2.481745 1_555
Al3 Ir0 2.516141 1_554
Al3 Hf0 2.866908 1_555
Al4 Ir5 2.491427 1_554
Al4 Ir2 2.491442 1_654
Al4 Ir0 2.641132 1_554
Al4 Si0 2.905841 1_555
Al5 Ir3 2.491427 1_545
Al5 Ir4 2.491442 1_645
Al5 Ir0 2.641132 1_545
Al5 Si0 2.905840 1_555
Al6 Ir4 2.491441 1_645
Al6 Ir2 2.491441 1_654
Al6 Ir1 2.641117 1_655
Al6 Si0 2.905841 1_555
Al7 Ir4 2.481745 1_555
Al7 Ir2 2.481745 1_555
Al7 Ir1 2.516141 1_555
Al7 Hf0 2.866908 1_555
Al8 Ir6 2.560383 1_544
Al8 Ir2 2.674091 1_554
Al8 Ir4 2.674091 1_545
Al8 Ir0 2.800095 1_544
Al8 Hf1 2.948090 1_545
Al8 Hf3 2.948090 1_554
Al9 Ir6 2.574578 1_655
Al9 Ir0 2.618106 1_555
Al9 Ir2 2.654478 1_655
Al9 Ir4 2.654478 1_655
Al9 Hf0 3.166994 1_655
Al10 Ir6 2.574571 1_545
Al10 Ir1 2.618105 1_555
Al10 Ir3 2.654479 1_545
Al10 Ir4 2.654486 1_545
Al10 Hf0 3.166996 1_545
Al11 Ir6 2.574571 1_554
Al11 Ir1 2.618106 1_555
Al11 Ir5 2.654479 1_554
Al11 Ir2 2.654486 1_554
Al11 Hf0 3.166996 1_554
Al12 Ir6 2.560369 1_654
Al12 Ir3 2.674092 1_555
Al12 Ir4 2.674106 1_655
Al12 Ir1 2.800094 1_655
Al12 Hf4 2.948078 1_555
Al12 Hf1 2.948093 1_655
Al13 Ir6 2.560368 1_645
Al13 Ir5 2.674092 1_555
Al13 Ir2 2.674106 1_655
Al13 Ir1 2.800095 1_655
Al13 Hf2 2.948078 1_555
Al13 Hf3 2.948093 1_655
Al14 Ir6 2.560370 1_644
Al14 Ir5 2.674092 1_554
Al14 Ir3 2.674092 1_545
Al14 Ir0 2.800109 1_544
Al14 Hf4 2.948093 1_545
Al14 Hf2 2.948093 1_554
Al15 Ir6 2.574571 1_555
Al15 Ir0 2.618113 1_555
Al15 Ir5 2.654478 1_555
Al15 Ir3 2.654478 1_555
Al15 Hf0 3.166988 1_555
