# generated using pymatgen
data_YLu(NiP)2
_symmetry_space_group_name_H-M   'P 1'
_cell_length_a   3.84738820
_cell_length_b   3.84739001
_cell_length_c   15.27876643
_cell_angle_alpha   90.00000000
_cell_angle_beta   90.00000000
_cell_angle_gamma   120.00000971
_symmetry_Int_Tables_number   1
_chemical_formula_structural   YLu(NiP)2
_chemical_formula_sum   'Y2 Lu2 Ni4 P4'
_cell_volume   195.86241383
_cell_formula_units_Z   2
loop_
 _symmetry_equiv_pos_site_id
 _symmetry_equiv_pos_as_xyz
  1  'x, y, z'
loop_
 _atom_site_type_symbol
 _atom_site_label
 _atom_site_symmetry_multiplicity
 _atom_site_fract_x
 _atom_site_fract_y
 _atom_site_fract_z
 _atom_site_occupancy
  Y  Y0  1  0.00000000  0.00000000  0.50000000  1
  Y  Y1  1  0.00000000  0.00000000  0.00000000  1
  Lu  Lu0  1  0.00000000  0.00000000  0.25000000  1
  Lu  Lu1  1  0.00000000  0.00000000  0.75000000  1
  Ni  Ni0  1  0.33333300  0.66666700  0.36593991  1
  Ni  Ni1  1  0.66666700  0.33333300  0.63406009  1
  Ni  Ni2  1  0.66666700  0.33333300  0.86593991  1
  Ni  Ni3  1  0.33333300  0.66666700  0.13406009  1
  P  P0  1  0.33333300  0.66666700  0.87522587  1
  P  P1  1  0.66666700  0.33333300  0.12477413  1
  P  P2  1  0.66666700  0.33333300  0.37522587  1
  P  P3  1  0.33333300  0.66666700  0.62477413  1
loop_
_geom_bond_atom_site_label_1
_geom_bond_atom_site_label_2
_geom_bond_distance
_geom_bond_site_symmetry_2
Lu0 Ni0 2.841135 1_545
Lu0 Ni3 2.841135 1_545
Lu0 Ni0 2.841137 1_445
Lu0 Ni3 2.841137 1_445
Lu0 Ni0 2.841138 1_555
Lu0 Ni3 2.841138 1_555
Lu0 P2 2.931694 1_455
Lu0 P1 2.931694 1_455
Lu0 P2 2.931696 1_555
Lu0 P1 2.931696 1_555
Lu0 P2 2.931697 1_445
Lu0 P1 2.931697 1_445
Lu1 Ni2 2.841135 1_455
Lu1 Ni1 2.841135 1_455
Lu1 Ni2 2.841137 1_555
Lu1 Ni1 2.841137 1_555
Lu1 Ni2 2.841138 1_445
Lu1 Ni1 2.841138 1_445
Lu1 P0 2.931694 1_545
Lu1 P3 2.931694 1_545
Lu1 P0 2.931696 1_445
Lu1 P3 2.931696 1_445
Lu1 P0 2.931697 1_555
Lu1 P3 2.931697 1_555
Ni0 P2 2.225815 1_455
Ni0 P2 2.225816 1_565
Ni0 P2 2.225822 1_555
Ni0 Y0 3.021514 1_565
Ni0 Y0 3.021516 1_665
Ni0 Y0 3.021517 1_555
Ni1 P3 2.225815 1_655
Ni1 P3 2.225816 1_545
Ni1 P3 2.225822 1_555
Ni1 Y0 3.021514 1_655
Ni1 Y0 3.021516 1_555
Ni1 Y0 3.021517 1_665
Ni2 P0 2.225815 1_655
Ni2 P0 2.225816 1_545
Ni2 P0 2.225822 1_555
Ni2 Y1 3.021514 1_656
Ni2 Y1 3.021516 1_556
Ni2 Y1 3.021517 1_666
Ni3 P1 2.225815 1_455
Ni3 P1 2.225816 1_565
Ni3 P1 2.225822 1_555
Ni3 Y1 3.021514 1_565
Ni3 Y1 3.021516 1_665
Ni3 Y1 3.021517 1_555
P0 Y1 2.927194 1_566
P0 Y1 2.927196 1_666
P0 Y1 2.927197 1_556
P1 Y1 2.927194 1_655
P1 Y1 2.927196 1_555
P1 Y1 2.927197 1_665
P2 Y0 2.927194 1_655
P2 Y0 2.927196 1_555
P2 Y0 2.927197 1_665
P3 Y0 2.927194 1_565
P3 Y0 2.927196 1_665
P3 Y0 2.927197 1_555
