# generated using pymatgen
data_Sr3Ca5(NbN3)4
_symmetry_space_group_name_H-M   'P 1'
_cell_length_a   6.29521248
_cell_length_b   6.15367775
_cell_length_c   12.27452566
_cell_angle_alpha   87.92661830
_cell_angle_beta   88.64418259
_cell_angle_gamma   122.50183301
_symmetry_Int_Tables_number   1
_chemical_formula_structural   Sr3Ca5(NbN3)4
_chemical_formula_sum   'Sr3 Ca5 Nb4 N12'
_cell_volume   400.23691591
_cell_formula_units_Z   1
loop_
 _symmetry_equiv_pos_site_id
 _symmetry_equiv_pos_as_xyz
  1  'x, y, z'
loop_
 _atom_site_type_symbol
 _atom_site_label
 _atom_site_symmetry_multiplicity
 _atom_site_fract_x
 _atom_site_fract_y
 _atom_site_fract_z
 _atom_site_occupancy
  Sr  Sr0  1  0.86150946  0.63891311  0.07763920  1
  Sr  Sr1  1  0.13951230  0.37401618  0.91943278  1
  Sr  Sr2  1  0.53815737  0.94549309  0.14813495  1
  Ca  Ca0  1  0.58147449  0.82281927  0.57660652  1
  Ca  Ca1  1  0.05210334  0.45743414  0.36888324  1
  Ca  Ca2  1  0.45018383  0.05526737  0.86361413  1
  Ca  Ca3  1  0.94160899  0.52583292  0.63430918  1
  Ca  Ca4  1  0.41396781  0.17066987  0.42300285  1
  Nb  Nb0  1  0.24482209  0.24876611  0.16839039  1
  Nb  Nb1  1  0.78289147  0.78034602  0.34572475  1
  Nb  Nb2  1  0.75587659  0.75939845  0.82883757  1
  Nb  Nb3  1  0.21976791  0.20858805  0.65568967  1
  N  N0  1  0.51869251  0.52973548  0.24950038  1
  N  N1  1  0.48987075  0.45422562  0.75285969  1
  N  N2  1  0.11982819  0.92242547  0.26398598  1
  N  N3  1  0.87695663  0.08001581  0.73154527  1
  N  N4  1  0.69372078  0.02056983  0.38875917  1
  N  N5  1  0.00315122  0.33372034  0.13008367  1
  N  N6  1  0.29800829  0.96489379  0.60832968  1
  N  N7  1  0.01563071  0.70166623  0.87099089  1
  N  N8  1  0.38270691  0.19927850  0.03834672  1
  N  N9  1  0.21853969  0.40317046  0.53255862  1
  N  N10  1  0.61284298  0.81617204  0.95511158  1
  N  N11  1  0.78817569  0.58658283  0.46766412  1
loop_
_geom_bond_atom_site_label_1
_geom_bond_atom_site_label_2
_geom_bond_distance
_geom_bond_site_symmetry_2
Ca0 N6 2.401815 1_555
Ca0 N9 2.449497 1_555
Ca0 N4 2.468271 1_565
Ca0 N3 2.608305 1_565
Ca0 N11 2.772330 1_555
Ca0 N1 2.887552 1_555
Ca1 N9 2.381717 1_555
Ca1 N4 2.405237 1_455
Ca1 N11 2.501134 1_455
Ca1 N2 2.902354 1_555
Ca1 N5 3.036162 1_555
Ca1 N0 3.052472 1_555
Ca2 N7 2.409065 1_545
Ca2 N10 2.455307 1_545
Ca2 N8 2.462670 1_556
Ca2 N1 2.649743 1_555
Ca2 N3 3.034039 1_555
Ca3 N11 2.383892 1_555
Ca3 N6 2.413461 1_655
Ca3 N9 2.558939 1_655
Ca3 N3 2.767063 1_555
Ca3 N1 2.968145 1_555
Ca3 N7 3.094756 1_655
Ca4 N4 2.423324 1_555
Ca4 N6 2.455741 1_545
Ca4 N11 2.466526 1_555
Ca4 N2 2.630402 1_545
Ca4 N9 2.705806 1_555
Ca4 N0 2.807120 1_555
N0 Nb0 1.988813 1_555
N0 Nb1 2.001967 1_555
N0 Sr2 2.744856 1_555
N0 Sr0 2.771769 1_555
N1 Nb2 2.005412 1_555
N1 Nb3 2.015682 1_555
N1 Sr1 2.798623 1_555
N2 Nb1 2.028039 1_455
N2 Nb0 2.028918 1_565
N2 Sr0 2.887200 1_455
N2 Sr2 2.895496 1_555
N3 Nb2 2.017447 1_545
N3 Nb3 2.041292 1_655
N3 Sr1 2.931296 1_655
N4 Nb1 1.927077 1_545
N4 Sr2 3.105693 1_545
N5 Nb0 1.918263 1_555
N5 Sr0 2.544770 1_455
N5 Sr2 2.596332 1_445
N5 Sr1 2.665282 1_554
N6 Nb3 1.916421 1_565
N7 Nb2 1.928437 1_455
N7 Sr1 2.579144 1_555
N7 Sr0 2.633320 1_456
N8 Nb0 1.909921 1_555
N8 Sr2 2.600983 1_545
N8 Sr1 2.718791 1_554
N8 Sr0 2.834933 1_555
N8 Sr0 3.245735 1_445
N9 Nb3 1.896742 1_555
N10 Nb2 1.909550 1_555
N10 Sr2 2.636967 1_556
N10 Sr0 2.780283 1_556
N10 Sr1 2.812291 1_555
N10 Sr1 3.249586 1_665
N11 Nb1 1.891803 1_555
