# generated using pymatgen
data_K4ReSb2F14
_symmetry_space_group_name_H-M   'P 1'
_cell_length_a   6.69624868
_cell_length_b   7.38279868
_cell_length_c   7.54674382
_cell_angle_alpha   92.64685386
_cell_angle_beta   91.70568048
_cell_angle_gamma   115.90149700
_symmetry_Int_Tables_number   1
_chemical_formula_structural   K4ReSb2F14
_chemical_formula_sum   'K4 Re1 Sb2 F14'
_cell_volume   334.73451551
_cell_formula_units_Z   1
loop_
 _symmetry_equiv_pos_site_id
 _symmetry_equiv_pos_as_xyz
  1  'x, y, z'
loop_
 _atom_site_type_symbol
 _atom_site_label
 _atom_site_symmetry_multiplicity
 _atom_site_fract_x
 _atom_site_fract_y
 _atom_site_fract_z
 _atom_site_occupancy
  K  K0  1  0.28338798  0.55127048  0.14423701  1
  K  K1  1  0.85366841  0.73403287  0.41237119  1
  K  K2  1  0.71661202  0.44872952  0.85576299  1
  K  K3  1  0.14633159  0.26596713  0.58762881  1
  Re  Re0  1  0.00000000  0.00000000  0.00000000  1
  Sb  Sb0  1  0.40133805  0.81729001  0.69077899  1
  Sb  Sb1  1  0.59866195  0.18270999  0.30922101  1
  F  F0  1  0.91778091  0.37383278  0.32603476  1
  F  F1  1  0.28219938  0.12545856  0.87975204  1
  F  F2  1  0.43032860  0.66098653  0.48471761  1
  F  F3  1  0.71780062  0.87454144  0.12024796  1
  F  F4  1  0.94052973  0.23127481  0.94198781  1
  F  F5  1  0.27978911  0.94019013  0.49453020  1
  F  F6  1  0.05947027  0.76872519  0.05801219  1
  F  F7  1  0.85296054  0.86347213  0.76837383  1
  F  F8  1  0.08221909  0.62616722  0.67396524  1
  F  F9  1  0.14703946  0.13652787  0.23162617  1
  F  F10  1  0.40513226  0.57366179  0.81506596  1
  F  F11  1  0.59486774  0.42633821  0.18493404  1
  F  F12  1  0.72021089  0.05980987  0.50546980  1
  F  F13  1  0.56967140  0.33901347  0.51528239  1
loop_
_geom_bond_atom_site_label_1
_geom_bond_atom_site_label_2
_geom_bond_distance
_geom_bond_site_symmetry_2
F0 Sb1 1.976488 1_555
F0 K0 2.675093 1_655
F0 K3 2.811389 1_655
F0 K1 2.921416 1_555
F1 Re0 1.975574 1_556
F1 K3 2.771345 1_555
F1 K2 2.862972 1_555
F2 Sb0 1.958458 1_555
F2 K0 2.680981 1_555
F2 K1 2.721889 1_555
F2 K3 2.859472 1_555
F3 Re0 1.975574 1_665
F3 K1 2.771345 1_555
F3 K0 2.862972 1_555
F4 Re0 1.979487 1_656
F4 K2 2.718545 1_555
F4 K0 2.810988 1_656
F4 K3 3.015078 1_655
F5 Sb0 2.092075 1_555
F5 Sb1 2.605727 1_565
F5 K1 2.618441 1_455
F5 K3 2.972562 1_565
F6 Re0 1.979487 1_565
F6 K0 2.718545 1_555
F6 K2 2.810988 1_454
F6 K1 3.015078 1_455
F7 Re0 1.977064 1_666
F7 K1 2.810511 1_555
F7 K2 2.902431 1_555
F7 K3 3.159707 1_665
F8 Sb0 1.976488 1_555
F8 K2 2.675093 1_455
F8 K1 2.811389 1_455
F8 K3 2.921416 1_555
F9 Re0 1.977064 1_555
F9 K3 2.810511 1_555
F9 K0 2.902431 1_555
F9 K1 3.159707 1_445
F10 Sb0 2.076033 1_555
F10 K0 2.627504 1_556
F10 K2 2.638966 1_555
F10 K3 2.670800 1_555
F11 Sb1 2.076033 1_555
F11 K2 2.627504 1_554
F11 K0 2.638966 1_555
F11 K1 2.670800 1_555
F12 Sb1 2.092075 1_555
F12 Sb0 2.605727 1_545
F12 K3 2.618441 1_655
F12 K1 2.972562 1_545
F13 Sb1 1.958458 1_555
F13 K2 2.680981 1_555
F13 K3 2.721889 1_555
F13 K1 2.859472 1_555
