# generated using pymatgen
data_Hf13Sn3(Ir2N)4
_symmetry_space_group_name_H-M   'P 1'
_cell_length_a   8.61047950
_cell_length_b   8.65935878
_cell_length_c   8.61047758
_cell_angle_alpha   60.18654551
_cell_angle_beta   59.99999608
_cell_angle_gamma   60.18654033
_symmetry_Int_Tables_number   1
_chemical_formula_structural   Hf13Sn3(Ir2N)4
_chemical_formula_sum   'Hf13 Sn3 Ir8 N4'
_cell_volume   455.24386123
_cell_formula_units_Z   1
loop_
 _symmetry_equiv_pos_site_id
 _symmetry_equiv_pos_as_xyz
  1  'x, y, z'
loop_
 _atom_site_type_symbol
 _atom_site_label
 _atom_site_symmetry_multiplicity
 _atom_site_fract_x
 _atom_site_fract_y
 _atom_site_fract_z
 _atom_site_occupancy
  Hf  Hf0  1  0.62500000  0.12500000  0.62500000  1
  Hf  Hf1  1  0.81218273  0.81757750  0.18511989  1
  Hf  Hf2  1  0.18527585  0.18794555  0.81338930  1
  Hf  Hf3  1  0.81338930  0.18794555  0.81338930  1
  Hf  Hf4  1  0.18511989  0.81757750  0.18511989  1
  Hf  Hf5  1  0.18511989  0.81757750  0.81218273  1
  Hf  Hf6  1  0.81338930  0.18794555  0.18527585  1
  Hf  Hf7  1  0.43781727  0.43242250  0.06488011  1
  Hf  Hf8  1  0.06472415  0.06205445  0.43661070  1
  Hf  Hf9  1  0.43661070  0.06205445  0.43661070  1
  Hf  Hf10  1  0.06488011  0.43242250  0.06488011  1
  Hf  Hf11  1  0.06488011  0.43242250  0.43781727  1
  Hf  Hf12  1  0.43661070  0.06205445  0.06472415  1
  Sn  Sn0  1  0.12500000  0.62500000  0.62500000  1
  Sn  Sn1  1  0.62500000  0.62500000  0.12500000  1
  Sn  Sn2  1  0.62500000  0.62500000  0.62500000  1
  Ir  Ir0  1  0.77446769  0.40013819  0.41269806  1
  Ir  Ir1  1  0.40749418  0.77751646  0.40749418  1
  Ir  Ir2  1  0.41269806  0.40013819  0.77446769  1
  Ir  Ir3  1  0.41269806  0.40013819  0.41269806  1
  Ir  Ir4  1  0.47553231  0.84986181  0.83730194  1
  Ir  Ir5  1  0.84250582  0.47248354  0.84250582  1
  Ir  Ir6  1  0.83730194  0.84986181  0.47553231  1
  Ir  Ir7  1  0.83730194  0.84986181  0.83730194  1
  N  N0  1  0.62500000  0.12500000  0.12500000  1
  N  N1  1  0.12500000  0.62500000  0.12500000  1
  N  N2  1  0.12500000  0.12500000  0.62500000  1
  N  N3  1  0.12500000  0.12500000  0.12500000  1
loop_
_geom_bond_atom_site_label_1
_geom_bond_atom_site_label_2
_geom_bond_distance
_geom_bond_site_symmetry_2
Hf0 Ir7 2.653292 1_545
Hf0 Ir3 2.653292 1_555
Hf0 Ir2 2.653303 1_555
Hf0 Ir6 2.653303 1_545
Hf0 Ir0 2.653303 1_555
Hf0 Ir4 2.653303 1_545
Hf1 N0 2.269370 1_565
Hf1 N1 2.302510 1_655
Hf1 Ir6 2.770195 1_555
Hf1 Ir7 2.770212 1_554
Hf1 Ir1 3.130210 1_555
Hf1 Sn2 3.164142 1_555
Hf1 Sn1 3.164143 1_555
Hf1 Ir0 3.240269 1_555
Hf2 N3 2.280373 1_556
Hf2 N2 2.280373 1_555
Hf2 Ir5 2.736400 1_455
Hf2 Ir4 2.738457 1_545
Hf2 Ir3 3.103599 1_555
Hf2 Ir2 3.103608 1_555
Hf2 Sn0 3.163578 1_555
Hf3 N0 2.280373 1_556
Hf3 N2 2.280374 1_655
Hf3 Ir5 2.736406 1_555
Hf3 Ir7 2.738464 1_545
Hf3 Ir0 3.103592 1_555
Hf3 Ir2 3.103593 1_555
Hf3 Sn2 3.163578 1_555
Hf4 N3 2.269371 1_565
Hf4 N1 2.302511 1_555
Hf4 Ir4 2.770205 1_554
Hf4 Ir6 2.770205 1_455
Hf4 Ir1 3.130203 1_555
Hf4 Sn0 3.164142 1_555
Hf4 Sn1 3.164142 1_555
Hf4 Ir3 3.240274 1_555
Hf5 N2 2.269370 1_565
Hf5 N1 2.302510 1_556
Hf5 Ir4 2.770195 1_555
Hf5 Ir7 2.770212 1_455
Hf5 Ir1 3.130210 1_555
Hf5 Sn2 3.164142 1_555
Hf5 Sn0 3.164142 1_555
Hf5 Ir2 3.240268 1_555
Hf6 N3 2.280374 1_655
Hf6 N0 2.280374 1_555
Hf6 Ir5 2.736400 1_554
Hf6 Ir6 2.738457 1_545
Hf6 Ir3 3.103599 1_555
Hf6 Ir0 3.103608 1_555
Hf6 Sn1 3.163578 1_555
Hf7 N0 2.269370 1_555
Hf7 N1 2.302510 1_555
Hf7 Ir2 2.770195 1_554
Hf7 Ir3 2.770212 1_555
Hf7 Ir5 3.130210 1_554
Hf7 Sn2 3.164142 1_554
Hf7 Sn1 3.164143 1_555
Hf7 Ir4 3.240269 1_554
Hf8 N3 2.280373 1_555
Hf8 N2 2.280373 1_555
Hf8 Ir1 2.736400 1_545
Hf8 Ir0 2.738457 1_455
Hf8 Ir7 3.103599 1_445
Hf8 Ir6 3.103608 1_445
Hf8 Sn0 3.163578 1_545
Hf9 N0 2.280373 1_555
Hf9 N2 2.280374 1_555
Hf9 Ir1 2.736406 1_545
Hf9 Ir3 2.738464 1_555
Hf9 Ir4 3.103592 1_545
Hf9 Ir6 3.103593 1_545
Hf9 Sn2 3.163578 1_545
Hf10 N3 2.269371 1_555
Hf10 N1 2.302511 1_555
Hf10 Ir0 2.770205 1_455
Hf10 Ir2 2.770205 1_554
Hf10 Ir5 3.130203 1_454
Hf10 Sn0 3.164142 1_554
Hf10 Sn1 3.164142 1_455
Hf10 Ir7 3.240274 1_454
Hf11 N2 2.269370 1_555
Hf11 N1 2.302510 1_555
Hf11 Ir0 2.770195 1_455
Hf11 Ir3 2.770212 1_555
Hf11 Ir5 3.130210 1_455
Hf11 Sn2 3.164142 1_455
Hf11 Sn0 3.164142 1_555
Hf11 Ir6 3.240268 1_455
Hf12 N3 2.280374 1_555
Hf12 N0 2.280374 1_555
Hf12 Ir1 2.736400 1_545
Hf12 Ir2 2.738457 1_554
Hf12 Ir7 3.103599 1_544
Hf12 Ir4 3.103608 1_544
Hf12 Sn1 3.163578 1_545
Ir0 Sn2 2.735748 1_555
Ir0 Sn1 2.735761 1_555
Ir1 Sn1 2.710667 1_555
Ir1 Sn0 2.710668 1_555
Ir1 Sn2 2.710674 1_555
Ir2 Sn2 2.735748 1_555
Ir2 Sn0 2.735761 1_555
Ir3 Sn0 2.735752 1_555
Ir3 Sn1 2.735752 1_555
Ir4 Sn2 2.735748 1_555
Ir4 Sn1 2.735761 1_556
Ir5 Sn1 2.710667 1_556
Ir5 Sn0 2.710668 1_655
Ir5 Sn2 2.710674 1_555
Ir6 Sn2 2.735748 1_555
Ir6 Sn0 2.735761 1_655
Ir7 Sn0 2.735752 1_655
Ir7 Sn1 2.735752 1_556
