# generated using pymatgen
data_Na2Ti3O7
_symmetry_space_group_name_H-M   'P 1'
_cell_length_a   3.79164808
_cell_length_b   8.54619136
_cell_length_c   9.13731291
_cell_angle_alpha   78.12019537
_cell_angle_beta   90.00000000
_cell_angle_gamma   90.00000000
_symmetry_Int_Tables_number   1
_chemical_formula_structural   Na2Ti3O7
_chemical_formula_sum   'Na4 Ti6 O14'
_cell_volume   289.74515381
_cell_formula_units_Z   2
loop_
 _symmetry_equiv_pos_site_id
 _symmetry_equiv_pos_as_xyz
  1  'x, y, z'
loop_
 _atom_site_type_symbol
 _atom_site_label
 _atom_site_symmetry_multiplicity
 _atom_site_fract_x
 _atom_site_fract_y
 _atom_site_fract_z
 _atom_site_occupancy
  Na  Na0  1  0.75000000  0.49966663  0.84156789  1
  Na  Na1  1  0.25000000  0.50033337  0.15843211  1
  Na  Na2  1  0.75000000  0.68270348  0.41063797  1
  Na  Na3  1  0.25000000  0.31729652  0.58936203  1
  Ti  Ti0  1  0.75000000  0.03042647  0.72052667  1
  Ti  Ti1  1  0.25000000  0.96957353  0.27947333  1
  Ti  Ti2  1  0.75000000  0.24978654  0.32384565  1
  Ti  Ti3  1  0.25000000  0.75021346  0.67615435  1
  Ti  Ti4  1  0.75000000  0.14765690  0.01485988  1
  Ti  Ti5  1  0.25000000  0.85234310  0.98514012  1
  O  O0  1  0.75000000  0.91512737  0.95639307  1
  O  O1  1  0.25000000  0.08487263  0.04360693  1
  O  O2  1  0.75000000  0.80310136  0.68384653  1
  O  O3  1  0.25000000  0.19689864  0.31615347  1
  O  O4  1  0.75000000  0.01529185  0.24618296  1
  O  O5  1  0.25000000  0.98470815  0.75381704  1
  O  O6  1  0.75000000  0.32696764  0.09052356  1
  O  O7  1  0.25000000  0.67303236  0.90947644  1
  O  O8  1  0.75000000  0.44624266  0.34565779  1
  O  O9  1  0.25000000  0.55375734  0.65434221  1
  O  O10  1  0.25000000  0.77996675  0.18872491  1
  O  O11  1  0.75000000  0.22003325  0.81127509  1
  O  O12  1  0.25000000  0.84985462  0.46304603  1
  O  O13  1  0.75000000  0.15014538  0.53695397  1
loop_
_geom_bond_atom_site_label_1
_geom_bond_atom_site_label_2
_geom_bond_distance
_geom_bond_site_symmetry_2
Na0 O6 2.443498 1_556
Na0 O11 2.461728 1_555
Na0 O9 2.531576 1_655
Na0 O9 2.531576 1_555
Na0 O7 2.559858 1_655
Na0 O7 2.559858 1_555
Na0 O2 2.694992 1_555
Na1 O7 2.443498 1_554
Na1 O10 2.461728 1_555
Na1 O8 2.531576 1_555
Na1 O8 2.531576 1_455
Na1 O6 2.559858 1_455
Na1 O6 2.559858 1_555
Na1 O3 2.694992 1_555
Na2 O8 2.220435 1_555
Na2 O12 2.479059 1_555
Na2 O12 2.479059 1_655
Na2 O10 2.775369 1_555
Na2 O10 2.775369 1_655
Na2 O2 2.889335 1_555
Na2 O4 2.928917 1_565
Na2 O9 2.959200 1_655
Na2 O9 2.959200 1_555
Na3 O9 2.220435 1_555
Na3 O13 2.479059 1_555
Na3 O13 2.479059 1_455
Na3 O11 2.775369 1_455
Na3 O11 2.775369 1_555
Na3 O3 2.889335 1_555
Na3 O5 2.928917 1_545
Na3 O8 2.959200 1_555
Na3 O8 2.959200 1_455
O0 Ti5 1.973074 1_655
O0 Ti5 1.973074 1_555
O0 Ti4 2.161395 1_566
O0 Ti0 2.177482 1_565
O1 Ti4 1.973074 1_455
O1 Ti4 1.973074 1_555
O1 Ti5 2.161395 1_544
O1 Ti1 2.177482 1_545
O2 Ti3 1.953577 1_555
O2 Ti3 1.953577 1_655
O2 Ti0 2.038319 1_565
O3 Ti2 1.953577 1_555
O3 Ti2 1.953577 1_455
O3 Ti1 2.038319 1_545
O4 Ti1 1.946896 1_645
O4 Ti1 1.946896 1_545
O4 Ti4 2.182391 1_555
O4 Ti2 2.259480 1_555
O5 Ti0 1.946896 1_565
O5 Ti0 1.946896 1_465
O5 Ti5 2.182391 1_555
O5 Ti3 2.259480 1_555
O6 Ti4 1.806241 1_555
O6 Ti2 2.097918 1_555
O7 Ti5 1.806241 1_555
O7 Ti3 2.097918 1_555
O8 Ti2 1.731003 1_555
O9 Ti3 1.731003 1_555
O10 Ti5 1.835558 1_554
O10 Ti1 1.966346 1_555
O11 Ti4 1.835558 1_556
O11 Ti0 1.966346 1_555
O12 Ti1 1.775887 1_555
O12 Ti3 1.958105 1_555
O13 Ti0 1.775887 1_555
O13 Ti2 1.958105 1_555
