# generated using pymatgen
data_CaMn(Sb4Ru)3
_symmetry_space_group_name_H-M   'P 1'
_cell_length_a   8.12806693
_cell_length_b   8.11437166
_cell_length_c   8.12806633
_cell_angle_alpha   109.43709306
_cell_angle_beta   109.50531646
_cell_angle_gamma   109.43709278
_symmetry_Int_Tables_number   1
_chemical_formula_structural   CaMn(Sb4Ru)3
_chemical_formula_sum   'Ca1 Mn1 Sb12 Ru3'
_cell_volume   412.84812245
_cell_formula_units_Z   1
loop_
 _symmetry_equiv_pos_site_id
 _symmetry_equiv_pos_as_xyz
  1  'x, y, z'
loop_
 _atom_site_type_symbol
 _atom_site_label
 _atom_site_symmetry_multiplicity
 _atom_site_fract_x
 _atom_site_fract_y
 _atom_site_fract_z
 _atom_site_occupancy
  Ca  Ca0  1  0.00000000  0.00000000  0.00000000  1
  Mn  Mn0  1  0.00000000  0.50000000  0.00000000  1
  Sb  Sb0  1  0.33802500  0.18037684  0.84259070  1
  Sb  Sb1  1  0.66197500  0.81962316  0.15740930  1
  Sb  Sb2  1  0.65235661  0.50298868  0.84105480  1
  Sb  Sb3  1  0.34764339  0.49701132  0.15894520  1
  Sb  Sb4  1  0.18869819  0.85063307  0.34764339  1
  Sb  Sb5  1  0.81130181  0.14936693  0.65235661  1
  Sb  Sb6  1  0.50456570  0.84235184  0.66197500  1
  Sb  Sb7  1  0.49543430  0.15764816  0.33802500  1
  Sb  Sb8  1  0.84105480  0.33806612  0.18869819  1
  Sb  Sb9  1  0.15894520  0.66193388  0.81130181  1
  Sb  Sb10  1  0.84259070  0.66221386  0.50456570  1
  Sb  Sb11  1  0.15740930  0.33778614  0.49543430  1
  Ru  Ru0  1  0.00000000  0.00000000  0.50000000  1
  Ru  Ru1  1  0.50000000  0.00000000  0.00000000  1
  Ru  Ru2  1  0.50000000  0.50000000  0.50000000  1
loop_
_geom_bond_atom_site_label_1
_geom_bond_atom_site_label_2
_geom_bond_distance
_geom_bond_site_symmetry_2
Ca0 Sb0 3.499325 1_554
Ca0 Sb1 3.499325 1_445
Ca0 Sb11 3.499325 1_555
Ca0 Sb10 3.499325 1_444
Ca0 Sb7 3.499326 1_555
Ca0 Sb6 3.499326 1_444
Ca0 Sb4 3.525366 1_545
Ca0 Sb5 3.525366 1_454
Ca0 Sb8 3.525372 1_455
Ca0 Sb9 3.525372 1_544
Ca0 Sb3 3.525372 1_555
Ca0 Sb2 3.525372 1_444
Mn0 Sb9 2.698651 1_554
Mn0 Sb8 2.698651 1_455
Mn0 Sb2 2.698651 1_454
Mn0 Sb3 2.698651 1_555
Mn0 Sb4 2.698655 1_555
Mn0 Sb5 2.698655 1_454
Sb0 Sb3 2.924780 1_556
Sb0 Sb2 2.995379 1_555
Sb1 Sb2 2.924780 1_554
Sb1 Sb3 2.995379 1_555
Sb4 Sb7 2.924775 1_565
Sb4 Sb6 2.995385 1_555
Sb5 Sb6 2.924775 1_545
Sb5 Sb7 2.995385 1_555
Sb10 Sb9 2.924780 1_655
Sb10 Sb8 2.995379 1_555
Sb11 Sb8 2.924780 1_455
Sb11 Sb9 2.995379 1_555
Ru0 Sb5 2.619459 1_455
Ru0 Sb4 2.619459 1_545
Ru0 Sb11 2.629912 1_555
Ru0 Sb10 2.629912 1_445
Ru0 Sb0 2.635719 1_555
Ru0 Sb1 2.635719 1_445
Ru1 Sb8 2.619463 1_555
Ru1 Sb9 2.619463 1_544
Ru1 Sb1 2.629913 1_545
Ru1 Sb0 2.629913 1_554
Ru1 Sb7 2.635718 1_555
Ru1 Sb6 2.635718 1_544
Ru2 Sb3 2.619463 1_555
Ru2 Sb2 2.619463 1_555
Ru2 Sb7 2.629912 1_555
Ru2 Sb6 2.629912 1_555
Ru2 Sb11 2.635719 1_555
Ru2 Sb10 2.635719 1_555
