# generated using pymatgen
data_NaFe3CuAs12
_symmetry_space_group_name_H-M   'P 1'
_cell_length_a   7.19934078
_cell_length_b   7.19937509
_cell_length_c   7.19926039
_cell_angle_alpha   109.47327093
_cell_angle_beta   109.47507645
_cell_angle_gamma   109.47505619
_symmetry_Int_Tables_number   1
_chemical_formula_structural   NaFe3CuAs12
_chemical_formula_sum   'Na1 Fe3 Cu1 As12'
_cell_volume   287.21115251
_cell_formula_units_Z   1
loop_
 _symmetry_equiv_pos_site_id
 _symmetry_equiv_pos_as_xyz
  1  'x, y, z'
loop_
 _atom_site_type_symbol
 _atom_site_label
 _atom_site_symmetry_multiplicity
 _atom_site_fract_x
 _atom_site_fract_y
 _atom_site_fract_z
 _atom_site_occupancy
  Na  Na0  1  0.00000000  0.00000000  0.00000000  1
  Fe  Fe0  1  0.50000000  0.00000000  0.00000000  1
  Fe  Fe1  1  0.00000000  0.50000000  0.00000000  1
  Fe  Fe2  1  0.00000000  0.00000000  0.50000000  1
  Cu  Cu0  1  0.50000000  0.50000000  0.50000000  1
  As  As0  1  0.86024161  0.66020138  0.50158890  1
  As  As1  1  0.13975839  0.33979862  0.49841110  1
  As  As2  1  0.15482115  0.66058902  0.81410473  1
  As  As3  1  0.84517885  0.33941098  0.18589527  1
  As  As4  1  0.66021344  0.50156758  0.86024366  1
  As  As5  1  0.33978656  0.49843242  0.13975634  1
  As  As6  1  0.66056462  0.81409508  0.15479464  1
  As  As7  1  0.33943538  0.18590492  0.84520536  1
  As  As8  1  0.50159003  0.86024246  0.66022457  1
  As  As9  1  0.49840997  0.13975754  0.33977543  1
  As  As10  1  0.18592209  0.84518808  0.33942482  1
  As  As11  1  0.81407791  0.15481192  0.66057518  1
loop_
_geom_bond_atom_site_label_1
_geom_bond_atom_site_label_2
_geom_bond_distance
_geom_bond_site_symmetry_2
As0 Fe2 2.319945 1_665
As0 Cu0 2.456319 1_555
As0 As2 2.523874 1_655
As0 As3 2.584565 1_555
As0 Na0 3.157675 1_666
As1 Fe2 2.319945 1_555
As1 Cu0 2.456319 1_555
As1 As3 2.523874 1_455
As1 As2 2.584565 1_555
As1 Na0 3.157675 1_555
As2 Fe0 2.343189 1_566
As2 Fe1 2.353104 1_556
As2 Na0 3.103983 1_566
As3 Fe0 2.343189 1_555
As3 Fe1 2.353104 1_655
As3 Na0 3.103983 1_655
As4 Fe1 2.319776 1_656
As4 Cu0 2.456392 1_555
As4 As6 2.524030 1_556
As4 As7 2.584441 1_555
As4 Na0 3.157770 1_666
As5 Fe1 2.319776 1_555
As5 Cu0 2.456392 1_555
As5 As7 2.524030 1_554
As5 As6 2.584441 1_555
As5 Na0 3.157770 1_555
As6 Fe2 2.343344 1_665
As6 Fe0 2.352988 1_565
As6 Na0 3.103934 1_665
As7 Fe2 2.343344 1_555
As7 Fe0 2.352988 1_556
As7 Na0 3.103934 1_556
As8 Fe0 2.319793 1_566
As8 Cu0 2.456384 1_555
As8 Na0 3.157581 1_666
As9 Fe0 2.319793 1_555
As9 Cu0 2.456384 1_555
As9 Na0 3.157581 1_555
As10 Fe1 2.343268 1_555
As10 Fe2 2.353232 1_565
As10 As9 2.523887 1_565
As10 As8 2.584468 1_555
As10 Na0 3.103985 1_565
As11 Fe1 2.343268 1_656
As11 Fe2 2.353232 1_655
As11 As8 2.523887 1_545
As11 As9 2.584468 1_555
As11 Na0 3.103985 1_656
