# generated using pymatgen
data_TiNb4GaSb2
_symmetry_space_group_name_H-M   'P 1'
_cell_length_a   7.93989866
_cell_length_b   7.93989849
_cell_length_c   7.93989877
_cell_angle_alpha   96.03305562
_cell_angle_beta   96.03306144
_cell_angle_gamma   142.16640637
_symmetry_Int_Tables_number   1
_chemical_formula_structural   TiNb4GaSb2
_chemical_formula_sum   'Ti2 Nb8 Ga2 Sb4'
_cell_volume   290.43855549
_cell_formula_units_Z   2
loop_
 _symmetry_equiv_pos_site_id
 _symmetry_equiv_pos_as_xyz
  1  'x, y, z'
loop_
 _atom_site_type_symbol
 _atom_site_label
 _atom_site_symmetry_multiplicity
 _atom_site_fract_x
 _atom_site_fract_y
 _atom_site_fract_z
 _atom_site_occupancy
  Ti  Ti0  1  0.25000000  0.75000000  0.50000000  1
  Ti  Ti1  1  0.75000000  0.25000000  0.50000000  1
  Nb  Nb0  1  0.78263832  0.92548004  0.70812036  1
  Nb  Nb1  1  0.92548004  0.21736168  0.14284072  1
  Nb  Nb2  1  0.07451996  0.78263832  0.85715928  1
  Nb  Nb3  1  0.21736168  0.07451996  0.29187964  1
  Nb  Nb4  1  0.57451996  0.71736168  0.29187964  1
  Nb  Nb5  1  0.42548004  0.28263832  0.70812036  1
  Nb  Nb6  1  0.28263832  0.57451996  0.85715928  1
  Nb  Nb7  1  0.71736168  0.42548004  0.14284072  1
  Ga  Ga0  1  0.75000000  0.75000000  0.00000000  1
  Ga  Ga1  1  0.25000000  0.25000000  0.00000000  1
  Sb  Sb0  1  0.33596688  0.83596688  0.17193576  1
  Sb  Sb1  1  0.83596688  0.66403312  0.50000000  1
  Sb  Sb2  1  0.16403312  0.33596688  0.50000000  1
  Sb  Sb3  1  0.66403312  0.16403312  0.82806424  1
loop_
_geom_bond_atom_site_label_1
_geom_bond_atom_site_label_2
_geom_bond_distance
_geom_bond_site_symmetry_2
Ti0 Ti1 2.574074 1_455
Ti0 Ti1 2.574074 1_565
Nb0 Sb3 2.829875 1_565
Nb0 Sb1 2.834348 1_555
Nb0 Sb2 3.019468 1_555
Nb0 Sb2 3.019477 1_665
Nb1 Sb2 2.829891 1_655
Nb1 Sb3 2.834346 1_554
Nb1 Sb0 3.019460 1_655
Nb1 Sb0 3.019473 1_545
Nb2 Sb1 2.829891 1_455
Nb2 Sb0 2.834346 1_556
Nb2 Sb3 3.019460 1_455
Nb2 Sb3 3.019473 1_565
Nb3 Sb0 2.829875 1_545
Nb3 Sb2 2.834348 1_555
Nb3 Sb1 3.019468 1_555
Nb3 Sb1 3.019477 1_445
Nb4 Sb0 2.829874 1_555
Nb4 Sb1 2.834348 1_555
Nb4 Sb2 3.019468 1_665
Nb4 Sb2 3.019477 1_555
Nb5 Sb3 2.829874 1_555
Nb5 Sb2 2.834348 1_555
Nb5 Sb1 3.019468 1_445
Nb5 Sb1 3.019477 1_555
Nb6 Sb2 2.829891 1_555
Nb6 Sb0 2.834346 1_556
Nb6 Sb3 3.019460 1_455
Nb6 Sb3 3.019473 1_565
Nb7 Sb1 2.829891 1_555
Nb7 Sb3 2.834346 1_554
Nb7 Sb0 3.019460 1_655
Nb7 Sb0 3.019473 1_545
Ga0 Ga1 2.574074 1_555
Ga0 Ga1 2.574074 1_665
Ga0 Nb0 2.759321 1_554
Ga0 Nb4 2.759321 1_555
Ga0 Nb3 2.759326 1_665
Ga0 Nb5 2.759326 1_554
Ga0 Nb7 2.759331 1_555
Ga0 Nb2 2.759331 1_654
Ga0 Nb6 2.759334 1_554
Ga0 Nb1 2.759334 1_565
Ga1 Nb3 2.759321 1_555
Ga1 Nb5 2.759321 1_554
Ga1 Nb0 2.759326 1_444
Ga1 Nb4 2.759326 1_555
Ga1 Nb6 2.759331 1_554
Ga1 Nb1 2.759331 1_455
Ga1 Nb7 2.759334 1_555
Ga1 Nb2 2.759334 1_544
Sb0 Ti0 2.779982 1_555
Sb0 Ti1 2.779987 1_565
Sb1 Ti1 2.779998 1_555
Sb1 Ti0 2.779998 1_655
Sb2 Ti0 2.779998 1_555
Sb2 Ti1 2.779998 1_455
Sb3 Ti1 2.779982 1_555
Sb3 Ti0 2.779987 1_545
