# generated using pymatgen
data_Lu4ReTc3B8
_symmetry_space_group_name_H-M   'P 1'
_cell_length_a   5.20083079
_cell_length_b   5.84459563
_cell_length_c   6.35589061
_cell_angle_alpha   90.07708546
_cell_angle_beta   90.00000000
_cell_angle_gamma   90.00000000
_symmetry_Int_Tables_number   1
_chemical_formula_structural   Lu4ReTc3B8
_chemical_formula_sum   'Lu4 Re1 Tc3 B8'
_cell_volume   193.19826156
_cell_formula_units_Z   1
loop_
 _symmetry_equiv_pos_site_id
 _symmetry_equiv_pos_as_xyz
  1  'x, y, z'
loop_
 _atom_site_type_symbol
 _atom_site_label
 _atom_site_symmetry_multiplicity
 _atom_site_fract_x
 _atom_site_fract_y
 _atom_site_fract_z
 _atom_site_occupancy
  Lu  Lu0  1  0.25000000  0.51678184  0.66327843  1
  Lu  Lu1  1  0.75000000  0.48253032  0.33724547  1
  Lu  Lu2  1  0.25000000  0.01720476  0.83632605  1
  Lu  Lu3  1  0.75000000  0.98320552  0.16347791  1
  Re  Re0  1  0.25000000  0.68208347  0.18664192  1
  Tc  Tc0  1  0.75000000  0.81874343  0.68570244  1
  Tc  Tc1  1  0.75000000  0.31876017  0.81416762  1
  Tc  Tc2  1  0.25000000  0.18228477  0.31412400  1
  B  B0  1  0.92303024  0.13331685  0.53352619  1
  B  B1  1  0.42414100  0.86530484  0.46598956  1
  B  B2  1  0.57645596  0.63476312  0.96677864  1
  B  B3  1  0.07638056  0.36581656  0.03322319  1
  B  B4  1  0.07585900  0.86530484  0.46598956  1
  B  B5  1  0.92354404  0.63476312  0.96677864  1
  B  B6  1  0.42361944  0.36581656  0.03322319  1
  B  B7  1  0.57696976  0.13331685  0.53352619  1
loop_
_geom_bond_atom_site_label_1
_geom_bond_atom_site_label_2
_geom_bond_distance
_geom_bond_site_symmetry_2
Lu0 Tc2 2.955528 1_555
Lu1 Tc0 2.958846 1_555
Lu2 Re0 2.967431 1_546
Lu3 Tc1 2.964311 1_564
B0 B7 1.799802 1_555
B0 B4 1.807732 1_645
B0 Tc2 2.217961 1_655
B0 Tc0 2.265038 1_545
B0 Tc1 2.271786 1_555
B0 Lu1 2.557099 1_555
B0 Lu2 2.657017 1_655
B0 Lu3 2.665677 1_545
B0 Lu0 2.930846 1_655
B1 B7 1.807732 1_565
B1 B4 1.811356 1_555
B1 Tc0 2.212995 1_555
B1 Re0 2.261477 1_555
B1 Tc2 2.277927 1_565
B1 Lu0 2.559058 1_555
B1 Lu3 2.654699 1_555
B1 Lu2 2.672689 1_565
B1 Lu1 2.922617 1_555
B2 B5 1.805146 1_555
B2 B6 1.811845 1_556
B2 Re0 2.216060 1_556
B2 Tc1 2.271949 1_555
B2 Tc0 2.273236 1_555
B2 Lu3 2.553064 1_556
B2 Lu0 2.660013 1_555
B2 Lu1 2.675121 1_556
B2 Lu2 2.927683 1_565
B3 B6 1.805931 1_555
B3 B5 1.811845 1_454
B3 Tc1 2.212335 1_454
B3 Tc2 2.271273 1_555
B3 Re0 2.275548 1_555
B3 Lu2 2.554607 1_554
B3 Lu1 2.660267 1_455
B3 Lu0 2.669866 1_554
B3 Lu3 2.927855 1_445
B4 Tc0 2.212995 1_455
B4 Re0 2.261477 1_555
B4 Tc2 2.277927 1_565
B4 Lu0 2.559058 1_555
B4 Lu3 2.654699 1_455
B4 Lu2 2.672689 1_565
B4 Lu1 2.922617 1_455
B5 Re0 2.216060 1_656
B5 Tc1 2.271949 1_555
B5 Tc0 2.273236 1_555
B5 Lu3 2.553064 1_556
B5 Lu0 2.660013 1_655
B5 Lu1 2.675121 1_556
B5 Lu2 2.927683 1_665
B6 Tc1 2.212335 1_554
B6 Tc2 2.271273 1_555
B6 Re0 2.275548 1_555
B6 Lu2 2.554607 1_554
B6 Lu1 2.660267 1_555
B6 Lu0 2.669866 1_554
B6 Lu3 2.927855 1_545
B7 Tc2 2.217961 1_555
B7 Tc0 2.265038 1_545
B7 Tc1 2.271786 1_555
B7 Lu1 2.557099 1_555
B7 Lu2 2.657017 1_555
B7 Lu3 2.665677 1_545
B7 Lu0 2.930846 1_555
