# generated using pymatgen
data_Ti3Nb(VSi)4
_symmetry_space_group_name_H-M   'P 1'
_cell_length_a   3.32815322
_cell_length_b   6.56647963
_cell_length_c   7.92178066
_cell_angle_alpha   90.15271709
_cell_angle_beta   90.00000000
_cell_angle_gamma   90.00000000
_symmetry_Int_Tables_number   1
_chemical_formula_structural   Ti3Nb(VSi)4
_chemical_formula_sum   'Ti3 Nb1 V4 Si4'
_cell_volume   173.12396265
_cell_formula_units_Z   1
loop_
 _symmetry_equiv_pos_site_id
 _symmetry_equiv_pos_as_xyz
  1  'x, y, z'
loop_
 _atom_site_type_symbol
 _atom_site_label
 _atom_site_symmetry_multiplicity
 _atom_site_fract_x
 _atom_site_fract_y
 _atom_site_fract_z
 _atom_site_occupancy
  Ti  Ti0  1  0.75000000  0.44866328  0.83319166  1
  Ti  Ti1  1  0.75000000  0.94946717  0.66753126  1
  Ti  Ti2  1  0.25000000  0.05178285  0.33275108  1
  Nb  Nb0  1  0.25000000  0.55071666  0.16748106  1
  V  V0  1  0.25000000  0.62513610  0.56119797  1
  V  V1  1  0.75000000  0.37406631  0.43864379  1
  V  V2  1  0.75000000  0.87302935  0.06079658  1
  V  V3  1  0.25000000  0.12634816  0.93733604  1
  Si  Si0  1  0.25000000  0.74999677  0.85906509  1
  Si  Si1  1  0.75000000  0.24657001  0.13875420  1
  Si  Si2  1  0.75000000  0.75461041  0.36407244  1
  Si  Si3  1  0.25000000  0.24961193  0.63917783  1
loop_
_geom_bond_atom_site_label_1
_geom_bond_atom_site_label_2
_geom_bond_distance
_geom_bond_site_symmetry_2
Nb0 Si1 2.609064 1_555
Nb0 Si1 2.609064 1_455
Nb0 Si2 2.641201 1_455
Nb0 Si2 2.641201 1_555
Nb0 Si0 2.774642 1_554
Si0 V2 2.443111 1_556
Si0 V2 2.443111 1_456
Si0 V0 2.495958 1_555
Si0 V3 2.546297 1_565
Si0 Ti0 2.593117 1_455
Si0 Ti0 2.593117 1_555
Si0 Ti1 2.607208 1_555
Si0 Ti1 2.607208 1_455
Si1 V3 2.435478 1_554
Si1 V3 2.435478 1_654
Si1 V1 2.516756 1_555
Si1 V2 2.527799 1_545
Si1 Ti2 2.603343 1_655
Si1 Ti2 2.603343 1_555
Si1 Ti0 2.763596 1_554
Si2 V0 2.436719 1_655
Si2 V0 2.436719 1_555
Si2 V2 2.527162 1_555
Si2 V1 2.569244 1_555
Si2 Ti2 2.577046 1_565
Si2 Ti2 2.577046 1_665
Si2 Ti1 2.720236 1_555
Si3 V1 2.442855 1_555
Si3 V1 2.442855 1_455
Si3 V3 2.498822 1_555
Si3 V0 2.543668 1_555
Si3 Ti1 2.589669 1_445
Si3 Ti1 2.589669 1_545
Si3 Ti0 2.613242 1_555
Si3 Ti0 2.613242 1_455
Si3 Ti2 2.750125 1_555
