# generated using pymatgen
data_Li28MgScSi8
_symmetry_space_group_name_H-M   'P 1'
_cell_length_a   9.19954106
_cell_length_b   9.19954023
_cell_length_c   9.19954016
_cell_angle_alpha   109.48973608
_cell_angle_beta   109.48973359
_cell_angle_gamma   109.43419571
_symmetry_Int_Tables_number   1
_chemical_formula_structural   Li28MgScSi8
_chemical_formula_sum   'Li28 Mg1 Sc1 Si8'
_cell_volume   599.34431860
_cell_formula_units_Z   1
loop_
 _symmetry_equiv_pos_site_id
 _symmetry_equiv_pos_as_xyz
  1  'x, y, z'
loop_
 _atom_site_type_symbol
 _atom_site_label
 _atom_site_symmetry_multiplicity
 _atom_site_fract_x
 _atom_site_fract_y
 _atom_site_fract_z
 _atom_site_occupancy
  Li  Li0  1  0.07035273  0.53981697  0.27876925  1
  Li  Li1  1  0.26104873  0.79158348  0.72123075  1
  Li  Li2  1  0.18211058  0.96027331  0.97444328  1
  Li  Li3  1  0.98583003  0.20766630  0.02555672  1
  Li  Li4  1  0.03972669  0.01416997  0.22183627  1
  Li  Li5  1  0.79233370  0.81788942  0.77816373  1
  Li  Li6  1  0.46018303  0.73895127  0.53053575  1
  Li  Li7  1  0.20841652  0.92964727  0.46946425  1
  Li  Li8  1  0.72490267  0.34125285  0.06023834  1
  Li  Li9  1  0.96630605  0.40504895  0.87139799  1
  Li  Li10  1  0.28101451  0.66466333  0.93976166  1
  Li  Li11  1  0.53365096  0.09490806  0.12860201  1
  Li  Li12  1  0.69499684  0.86603455  0.09142250  1
  Li  Li13  1  0.48466342  0.89163464  0.33254313  1
  Li  Li14  1  0.55909151  0.15212029  0.66745687  1
  Li  Li15  1  0.77461205  0.60357334  0.90857750  1
  Li  Li16  1  0.84787971  0.51533658  0.40697322  1
  Li  Li17  1  0.39642666  0.30500316  0.17103770  1
  Li  Li18  1  0.13396545  0.22538795  0.82896230  1
  Li  Li19  1  0.10836536  0.44090849  0.59302678  1
  Li  Li20  1  0.90509194  0.03369395  0.43874290  1
  Li  Li21  1  0.33533667  0.27509733  0.61635118  1
  Li  Li22  1  0.59495105  0.46634904  0.56125710  1
  Li  Li23  1  0.65874715  0.71898549  0.38364882  1
  Li  Li24  1  0.00085214  0.87343023  0.62673505  1
  Li  Li25  1  0.24669417  0.37411808  0.37326495  1
  Li  Li26  1  0.12656977  0.75330583  0.12742291  1
  Li  Li27  1  0.62588192  0.99914786  0.87257709  1
  Mg  Mg0  1  0.75000000  0.25000000  0.50000000  1
  Sc  Sc0  1  0.50000000  0.50000000  0.00000000  1
  Si  Si0  1  0.29540447  0.53639171  0.15972654  1
  Si  Si1  1  0.37666417  0.13567893  0.84027346  1
  Si  Si2  1  0.95928805  0.62338695  0.74429949  1
  Si  Si3  1  0.87908746  0.21498956  0.25570051  1
  Si  Si4  1  0.37661305  0.12091254  0.33590211  1
  Si  Si5  1  0.78501044  0.04071195  0.66409789  1
  Si  Si6  1  0.46360829  0.62333583  0.75901376  1
  Si  Si7  1  0.86432107  0.70459553  0.24098624  1
loop_
_geom_bond_atom_site_label_1
_geom_bond_atom_site_label_2
_geom_bond_distance
_geom_bond_site_symmetry_2
Li0 Si0 2.649546 1_555
Li0 Li25 2.701830 1_555
Li0 Li26 2.773544 1_555
Li0 Si7 2.799144 1_455
Li0 Si3 2.810606 1_455
Li1 Si1 2.649557 1_565
Li1 Li24 2.701853 1_555
Li1 Li27 2.773531 1_555
Li1 Si6 2.799121 1_555
Li1 Si2 2.810622 1_455
Li2 Si2 2.605304 1_455
Li2 Si4 2.726532 1_566
Li2 Li26 2.736309 1_556
Li2 Li24 2.738595 1_555
Li2 Si1 2.865663 1_565
Li3 Si3 2.605301 1_555
Li3 Si5 2.726533 1_554
Li3 Si0 2.865669 1_655
Li4 Si4 2.605302 1_555
Li4 Si3 2.726532 1_455
Li4 Si7 2.865666 1_445
Li5 Si5 2.605318 1_565
Li5 Si2 2.726517 1_555
Li5 Si6 2.865669 1_555
Li6 Si6 2.649542 1_555
Li6 Si0 2.799135 1_555
Li6 Si5 2.810616 1_565
Li7 Si7 2.649554 1_455
Li7 Si1 2.799137 1_565
Li7 Si4 2.810606 1_565
Li8 Si1 2.650196 1_554
Li8 Si3 2.717121 1_555
Li8 Si7 2.756463 1_555
Li8 Sc0 2.916554 1_555
Li9 Si2 2.647429 1_555
Li9 Si5 2.746843 1_555
Li9 Si0 2.780329 1_656
Li9 Mg0 2.826762 1_555
Li10 Si0 2.650183 1_556
Li10 Li26 2.670681 1_556
Li10 Si2 2.717133 1_455
Li10 Si6 2.756453 1_555
Li10 Sc0 2.916546 1_556
Li11 Si3 2.647428 1_555
Li11 Li27 2.736761 1_544
Li11 Si4 2.746850 1_555
Li11 Si1 2.780337 1_554
Li11 Mg0 2.826762 1_555
Li12 Si6 2.608720 1_554
Li12 Si3 2.625763 1_565
Li12 Li27 2.695595 1_554
Li12 Si7 2.828107 1_555
Li12 Sc0 2.889318 1_555
Li13 Si4 2.609628 1_565
Li13 Si0 2.671862 1_555
Li13 Li26 2.737250 1_555
Li13 Si5 2.807527 1_565
Li13 Mg0 2.819068 1_565
Li14 Si5 2.609622 1_555
Li14 Si1 2.671869 1_555
Li14 Li27 2.737241 1_545
Li14 Si4 2.807529 1_555
Li14 Mg0 2.819068 1_555
Li15 Si7 2.608719 1_556
Li15 Si2 2.625756 1_555
Li15 Li26 2.695585 1_656
Li15 Si6 2.828125 1_555
Li15 Sc0 2.889317 1_556
Li16 Si2 2.609612 1_555
Li16 Si7 2.671884 1_555
Li16 Li24 2.737246 1_655
Li16 Si3 2.807532 1_555
Li16 Mg0 2.819055 1_555
Li17 Si0 2.608733 1_555
Li17 Si4 2.625764 1_555
Li17 Li25 2.695603 1_555
Li17 Si1 2.828106 1_554
Li17 Sc0 2.889315 1_555
Li18 Si1 2.608713 1_555
Li18 Si5 2.625763 1_455
Li18 Li24 2.695586 1_545
Li18 Si0 2.828116 1_556
Li18 Sc0 2.889318 1_556
Li19 Si3 2.609616 1_455
Li19 Si6 2.671861 1_555
Li19 Li25 2.737226 1_555
Li19 Si2 2.807545 1_455
Li19 Mg0 2.819074 1_455
Li20 Si5 2.647427 1_555
Li20 Li24 2.736760 1_645
Li20 Si3 2.746850 1_555
Li20 Si7 2.780327 1_545
Li20 Mg0 2.826761 1_555
Li21 Si6 2.650198 1_555
Li21 Li25 2.670686 1_555
Li21 Si4 2.717122 1_555
Li21 Si1 2.756446 1_555
Li21 Sc0 2.916547 1_556
Li22 Si4 2.647428 1_555
Li22 Li25 2.736771 1_555
Li22 Si2 2.746842 1_555
Li22 Si6 2.780339 1_555
Li22 Mg0 2.826761 1_555
Li23 Si7 2.650181 1_555
Li23 Li24 2.670672 1_655
Li23 Si5 2.717131 1_565
Li23 Si0 2.756461 1_555
Li23 Sc0 2.916546 1_555
Li24 Li5 2.736309 1_455
Li24 Li7 2.773544 1_555
Li24 Si2 2.820986 1_455
Li24 Si1 2.896132 1_565
Li24 Si5 2.926616 1_465
Li24 Si7 2.938202 1_455
Li25 Li4 2.736314 1_555
Li25 Li3 2.738590 1_455
Li25 Li6 2.773531 1_555
Li25 Si3 2.820979 1_455
Li25 Si0 2.896132 1_555
Li25 Si4 2.926624 1_555
Li25 Si6 2.938202 1_555
Li26 Li7 2.701835 1_555
Li26 Li9 2.736769 1_454
Li26 Li4 2.738585 1_565
Li26 Si4 2.820980 1_565
Li26 Si7 2.896132 1_455
Li26 Si2 2.926616 1_454
Li26 Si0 2.938202 1_555
Li27 Li8 2.670668 1_566
Li27 Li6 2.701842 1_555
Li27 Li3 2.736315 1_566
Li27 Li5 2.738606 1_555
Li27 Si5 2.820987 1_565
Li27 Si6 2.896132 1_555
Li27 Si3 2.926618 1_566
Li27 Si1 2.938202 1_565
Mg0 Si5 2.849102 1_555
Mg0 Si2 2.849110 1_555
Mg0 Si3 2.849111 1_555
Mg0 Si4 2.849111 1_555
Sc0 Si1 2.783947 1_554
Sc0 Si7 2.783949 1_555
Sc0 Si6 2.783955 1_554
Sc0 Si0 2.783957 1_555
