# generated using pymatgen
data_Zr2Sc2Si6Ir7
_symmetry_space_group_name_H-M   'P 1'
_cell_length_a   6.96058099
_cell_length_b   6.98856098
_cell_length_c   6.96058056
_cell_angle_alpha   109.45969651
_cell_angle_beta   109.33157759
_cell_angle_gamma   109.45968759
_symmetry_Int_Tables_number   1
_chemical_formula_structural   Zr2Sc2Si6Ir7
_chemical_formula_sum   'Zr2 Sc2 Si6 Ir7'
_cell_volume   261.17118728
_cell_formula_units_Z   1
loop_
 _symmetry_equiv_pos_site_id
 _symmetry_equiv_pos_as_xyz
  1  'x, y, z'
loop_
 _atom_site_type_symbol
 _atom_site_label
 _atom_site_symmetry_multiplicity
 _atom_site_fract_x
 _atom_site_fract_y
 _atom_site_fract_z
 _atom_site_occupancy
  Zr  Zr0  1  0.00000000  0.00000000  0.50000000  1
  Zr  Zr1  1  0.50000000  0.00000000  0.00000000  1
  Sc  Sc0  1  0.00000000  0.50000000  0.00000000  1
  Sc  Sc1  1  0.50000000  0.50000000  0.50000000  1
  Si  Si0  1  0.67987897  0.67629819  0.99641922  1
  Si  Si1  1  0.31992485  0.00000000  0.31992485  1
  Si  Si2  1  0.00358078  0.32370181  0.32012103  1
  Si  Si3  1  0.32012103  0.32370181  0.00358078  1
  Si  Si4  1  0.68007515  1.00000000  0.68007515  1
  Si  Si5  1  0.99641922  0.67629819  0.67987897  1
  Ir  Ir0  1  0.74981222  0.24917233  0.49936011  1
  Ir  Ir1  1  0.75000000  0.50000000  0.25000000  1
  Ir  Ir2  1  0.49936011  0.24917233  0.74981222  1
  Ir  Ir3  1  0.25000000  0.50000000  0.75000000  1
  Ir  Ir4  1  0.25018778  0.75082767  0.50063989  1
  Ir  Ir5  1  0.50063989  0.75082767  0.25018778  1
  Ir  Ir6  1  0.00000000  0.00000000  0.00000000  1
loop_
_geom_bond_atom_site_label_1
_geom_bond_atom_site_label_2
_geom_bond_distance
_geom_bond_site_symmetry_2
Sc0 Si0 2.880363 1_454
Sc0 Si3 2.880363 1_555
Sc0 Si5 2.880363 1_454
Sc0 Si2 2.880363 1_555
Sc0 Si1 2.911279 1_565
Sc0 Si4 2.911279 1_444
Sc1 Si0 2.880363 1_555
Sc1 Si3 2.880363 1_555
Sc1 Si5 2.880363 1_555
Sc1 Si2 2.880363 1_555
Sc1 Si4 2.911279 1_555
Sc1 Si1 2.911279 1_555
Si0 Zr0 2.925094 1_666
Si0 Zr1 2.925094 1_566
Si1 Zr1 2.894473 1_555
Si1 Zr0 2.894473 1_555
Si2 Zr1 2.925094 1_455
Si2 Zr0 2.925094 1_555
Si3 Zr0 2.925094 1_554
Si3 Zr1 2.925094 1_555
Si4 Zr1 2.894473 1_566
Si4 Zr0 2.894473 1_665
Si5 Zr1 2.925094 1_666
Si5 Zr0 2.925094 1_665
Ir0 Si5 2.468711 1_555
Ir0 Si1 2.480064 1_555
Ir0 Si4 2.480064 1_545
Ir0 Si2 2.495376 1_655
Ir0 Zr1 2.843508 1_555
Ir0 Zr0 2.843508 1_655
Ir0 Sc0 2.850811 1_656
Ir0 Sc1 2.850811 1_555
Ir1 Si5 2.480113 1_555
Ir1 Si3 2.480113 1_555
Ir1 Si2 2.480113 1_655
Ir1 Si0 2.480113 1_554
Ir1 Sc0 2.839194 1_655
Ir1 Sc1 2.839194 1_555
Ir1 Zr0 2.856326 1_665
Ir1 Zr1 2.856326 1_555
Ir2 Si0 2.468711 1_555
Ir2 Si1 2.480064 1_555
Ir2 Si4 2.480064 1_545
Ir2 Si3 2.495376 1_556
Ir2 Zr0 2.843508 1_555
Ir2 Zr1 2.843508 1_556
Ir2 Sc0 2.850811 1_656
Ir2 Sc1 2.850811 1_555
Ir3 Si2 2.480113 1_555
Ir3 Si0 2.480113 1_555
Ir3 Si5 2.480113 1_455
Ir3 Si3 2.480113 1_556
Ir3 Sc1 2.839194 1_555
Ir3 Sc0 2.839194 1_556
Ir3 Zr1 2.856326 1_566
Ir3 Zr0 2.856326 1_555
Ir4 Si2 2.468711 1_555
Ir4 Si4 2.480064 1_555
Ir4 Si1 2.480064 1_565
Ir4 Si5 2.495376 1_455
Ir4 Zr1 2.843508 1_566
Ir4 Zr0 2.843508 1_565
Ir4 Sc0 2.850811 1_555
Ir4 Sc1 2.850811 1_555
Ir5 Si3 2.468711 1_555
Ir5 Si4 2.480064 1_555
Ir5 Si1 2.480064 1_565
Ir5 Si0 2.495376 1_554
Ir5 Zr0 2.843508 1_665
Ir5 Zr1 2.843508 1_565
Ir5 Sc0 2.850811 1_555
Ir5 Sc1 2.850811 1_555
Ir6 Si1 2.575789 1_555
Ir6 Si4 2.575789 1_444
Ir6 Si2 2.578820 1_555
Ir6 Si5 2.578820 1_444
Ir6 Si3 2.578820 1_555
Ir6 Si0 2.578820 1_444
