# generated using pymatgen
data_Y4Sb5Rh7Au
_symmetry_space_group_name_H-M   'P 1'
_cell_length_a   7.54228196
_cell_length_b   7.54228398
_cell_length_c   7.54228149
_cell_angle_alpha   108.19572706
_cell_angle_beta   110.11270295
_cell_angle_gamma   110.11270837
_symmetry_Int_Tables_number   1
_chemical_formula_structural   Y4Sb5Rh7Au
_chemical_formula_sum   'Y4 Sb5 Rh7 Au1'
_cell_volume   330.16079158
_cell_formula_units_Z   1
loop_
 _symmetry_equiv_pos_site_id
 _symmetry_equiv_pos_as_xyz
  1  'x, y, z'
loop_
 _atom_site_type_symbol
 _atom_site_label
 _atom_site_symmetry_multiplicity
 _atom_site_fract_x
 _atom_site_fract_y
 _atom_site_fract_z
 _atom_site_occupancy
  Y  Y0  1  0.51466027  0.01614868  0.01614868  1
  Y  Y1  1  1.00000000  0.50148741  0.01614868  1
  Y  Y2  1  1.00000000  0.01614868  0.50148741  1
  Y  Y3  1  0.48533973  0.50148741  0.50148741  1
  Sb  Sb0  1  0.68477827  0.00297199  0.68775126  1
  Sb  Sb1  1  0.68477827  0.68775126  0.00297199  1
  Sb  Sb2  1  0.00000000  0.66862671  0.66862671  1
  Sb  Sb3  1  0.31522173  0.00297199  0.31819372  1
  Sb  Sb4  1  0.31522173  0.31819372  0.00297199  1
  Rh  Rh0  1  0.00000000  0.96872027  0.96872027  1
  Rh  Rh1  1  0.50000000  0.75343405  0.25343405  1
  Rh  Rh2  1  0.74855677  0.50333013  0.25188691  1
  Rh  Rh3  1  0.25144323  0.75477536  0.50333013  1
  Rh  Rh4  1  0.25144323  0.50333013  0.75477536  1
  Rh  Rh5  1  0.50000000  0.25343405  0.75343405  1
  Rh  Rh6  1  0.74855677  0.25188691  0.50333013  1
  Au  Au0  1  1.00000000  0.29529923  0.29529923  1
loop_
_geom_bond_atom_site_label_1
_geom_bond_atom_site_label_2
_geom_bond_distance
_geom_bond_site_symmetry_2
Sb0 Y3 3.139695 1_545
Sb0 Y2 3.139699 1_555
Sb0 Y0 3.148115 1_556
Sb0 Y1 3.148116 1_556
Sb1 Y3 3.139694 1_554
Sb1 Y1 3.139700 1_555
Sb1 Y0 3.148116 1_565
Sb1 Y2 3.148116 1_565
Sb2 Y3 3.243898 1_455
Sb2 Y0 3.243900 1_566
Sb2 Y1 3.243905 1_456
Sb2 Y2 3.243905 1_465
Sb3 Y0 3.139688 1_555
Sb3 Y1 3.139695 1_445
Sb3 Y3 3.148117 1_555
Sb3 Y2 3.148117 1_455
Sb4 Y0 3.139689 1_555
Sb4 Y2 3.139694 1_454
Sb4 Y3 3.148116 1_555
Sb4 Y1 3.148117 1_455
Rh0 Sb2 2.654516 1_555
Rh0 Sb0 2.740310 1_465
Rh0 Sb1 2.740311 1_456
Rh0 Sb3 2.740314 1_566
Rh0 Sb4 2.740315 1_566
Rh1 Sb3 2.724155 1_565
Rh1 Sb0 2.724161 1_565
Rh1 Sb1 2.730781 1_555
Rh1 Sb4 2.730783 1_555
Rh1 Y3 3.056383 1_555
Rh1 Y1 3.056383 1_455
Rh1 Y2 3.056383 1_565
Rh1 Y0 3.056383 1_565
Rh2 Sb2 2.618684 1_655
Rh2 Sb4 2.675939 1_555
Rh2 Sb1 2.675945 1_555
Rh2 Y1 3.013256 1_555
Rh2 Y0 3.013257 1_555
Rh2 Y3 3.170669 1_555
Rh2 Y2 3.170676 1_565
Rh3 Sb2 2.618686 1_555
Rh3 Sb3 2.675927 1_565
Rh3 Sb0 2.675936 1_565
Rh3 Y1 3.013257 1_455
Rh3 Y3 3.013275 1_555
Rh3 Y2 3.170663 1_465
Rh3 Y0 3.170675 1_566
Rh4 Sb2 2.618686 1_555
Rh4 Sb4 2.675927 1_556
Rh4 Sb1 2.675936 1_556
Rh4 Y2 3.013257 1_455
Rh4 Y3 3.013274 1_555
Rh4 Y1 3.170663 1_456
Rh4 Y0 3.170676 1_566
Rh5 Sb4 2.724154 1_556
Rh5 Sb1 2.724161 1_556
Rh5 Sb0 2.730782 1_555
Rh5 Sb3 2.730782 1_555
Rh5 Y3 3.056383 1_555
Rh5 Y2 3.056383 1_455
Rh5 Y1 3.056383 1_556
Rh5 Y0 3.056383 1_556
Rh6 Sb2 2.618684 1_655
Rh6 Sb3 2.675939 1_555
Rh6 Sb0 2.675945 1_555
Rh6 Y0 3.013256 1_555
Rh6 Y2 3.013256 1_555
Rh6 Y3 3.170670 1_555
Rh6 Y1 3.170675 1_556
Au0 Rh6 2.847072 1_555
Au0 Rh2 2.847072 1_555
Au0 Rh4 2.847084 1_655
Au0 Rh3 2.847085 1_655
Au0 Rh0 2.888796 1_644
Au0 Y1 2.982636 1_555
Au0 Y2 2.982636 1_555
Au0 Y0 2.982641 1_555
Au0 Y3 2.982642 1_655
