# generated using pymatgen
data_ZrScRh6C
_symmetry_space_group_name_H-M   'P 1'
_cell_length_a   5.64055163
_cell_length_b   5.64055269
_cell_length_c   5.64055180
_cell_angle_alpha   60.00000521
_cell_angle_beta   59.99999899
_cell_angle_gamma   59.99999568
_symmetry_Int_Tables_number   1
_chemical_formula_structural   ZrScRh6C
_chemical_formula_sum   'Zr1 Sc1 Rh6 C1'
_cell_volume   126.89655517
_cell_formula_units_Z   1
loop_
 _symmetry_equiv_pos_site_id
 _symmetry_equiv_pos_as_xyz
  1  'x, y, z'
loop_
 _atom_site_type_symbol
 _atom_site_label
 _atom_site_symmetry_multiplicity
 _atom_site_fract_x
 _atom_site_fract_y
 _atom_site_fract_z
 _atom_site_occupancy
  Zr  Zr0  1  0.75000000  0.75000000  0.75000000  1
  Sc  Sc0  1  0.25000000  0.25000000  0.25000000  1
  Rh  Rh0  1  0.75470821  0.75470821  0.24529079  1
  Rh  Rh1  1  0.75470821  0.24529079  0.24529079  1
  Rh  Rh2  1  0.24529079  0.75470821  0.24529079  1
  Rh  Rh3  1  0.24529079  0.24529079  0.75470821  1
  Rh  Rh4  1  0.75470821  0.24529079  0.75470821  1
  Rh  Rh5  1  0.24529079  0.75470821  0.75470821  1
  C  C0  1  0.50000000  0.50000000  0.50000000  1
loop_
_geom_bond_atom_site_label_1
_geom_bond_atom_site_label_2
_geom_bond_distance
_geom_bond_site_symmetry_2
Rh0 Zr0 2.820520 1_554
Rh0 Sc0 2.820526 1_565
Rh0 Sc0 2.820526 1_655
Rh0 Zr0 2.820532 1_555
Rh1 Sc0 2.820520 1_555
Rh1 Zr0 2.820527 1_545
Rh1 Zr0 2.820527 1_554
Rh1 Sc0 2.820532 1_655
Rh2 Sc0 2.820521 1_555
Rh2 Zr0 2.820526 1_554
Rh2 Zr0 2.820526 1_455
Rh2 Sc0 2.820532 1_565
Rh3 Sc0 2.820520 1_555
Rh3 Zr0 2.820526 1_545
Rh3 Zr0 2.820526 1_455
Rh3 Sc0 2.820532 1_556
Rh4 Zr0 2.820521 1_545
Rh4 Sc0 2.820526 1_556
Rh4 Sc0 2.820526 1_655
Rh4 Zr0 2.820532 1_555
Rh5 Zr0 2.820520 1_455
Rh5 Sc0 2.820526 1_565
Rh5 Sc0 2.820526 1_556
Rh5 Zr0 2.820532 1_555
C0 Rh5 2.031793 1_555
C0 Rh4 2.031793 1_555
C0 Rh0 2.031794 1_555
C0 Rh2 2.031801 1_555
C0 Rh1 2.031801 1_555
C0 Rh3 2.031802 1_555
