# generated using pymatgen
data_HfBe9V2
_symmetry_space_group_name_H-M   'P 1'
_cell_length_a   7.41006102
_cell_length_b   7.41006036
_cell_length_c   7.41005984
_cell_angle_alpha   34.77592318
_cell_angle_beta   34.77592679
_cell_angle_gamma   34.77591541
_symmetry_Int_Tables_number   1
_chemical_formula_structural   HfBe9V2
_chemical_formula_sum   'Hf1 Be9 V2'
_cell_volume   118.14187088
_cell_formula_units_Z   1
loop_
 _symmetry_equiv_pos_site_id
 _symmetry_equiv_pos_as_xyz
  1  'x, y, z'
loop_
 _atom_site_type_symbol
 _atom_site_label
 _atom_site_symmetry_multiplicity
 _atom_site_fract_x
 _atom_site_fract_y
 _atom_site_fract_z
 _atom_site_occupancy
  Hf  Hf0  1  0.00000000  0.00000000  0.00000000  1
  Be  Be0  1  0.41194259  0.92115639  0.41194259  1
  Be  Be1  1  0.41194259  0.41194259  0.92115639  1
  Be  Be2  1  0.92115639  0.41194259  0.41194259  1
  Be  Be3  1  0.58805741  0.07884361  0.58805741  1
  Be  Be4  1  0.58805741  0.58805741  0.07884361  1
  Be  Be5  1  0.07884361  0.58805741  0.58805741  1
  Be  Be6  1  0.66509565  0.66509565  0.66509565  1
  Be  Be7  1  0.33490435  0.33490435  0.33490435  1
  Be  Be8  1  0.50000000  0.50000000  0.50000000  1
  V  V0  1  0.85536030  0.85536030  0.85536030  1
  V  V1  1  0.14463970  0.14463970  0.14463970  1
loop_
_geom_bond_atom_site_label_1
_geom_bond_atom_site_label_2
_geom_bond_distance
_geom_bond_site_symmetry_2
Hf0 V1 3.017868 1_555
Hf0 V0 3.017868 1_444
Be0 Be8 2.144713 1_555
Be0 Be6 2.173583 1_555
Be0 Be2 2.173618 1_465
Be0 Be1 2.173618 1_564
Be0 Be7 2.199199 1_565
Be0 Be2 2.255231 1_555
Be0 Be1 2.255231 1_555
Be0 V1 2.501405 1_565
Be0 V0 2.540354 1_554
Be0 V0 2.540354 1_455
Be0 Hf0 2.836990 1_566
Be0 Hf0 2.836991 1_665
Be1 Be8 2.144713 1_555
Be1 Be6 2.173584 1_555
Be1 Be2 2.173618 1_456
Be1 Be7 2.199199 1_556
Be1 Be2 2.255231 1_555
Be1 V1 2.501405 1_556
Be1 V0 2.540353 1_545
Be1 V0 2.540354 1_455
Be1 Hf0 2.836990 1_566
Be1 Hf0 2.836990 1_656
Be2 Be8 2.144714 1_555
Be2 Be6 2.173583 1_555
Be2 Be7 2.199199 1_655
Be2 V1 2.501404 1_655
Be2 V0 2.540354 1_554
Be2 V0 2.540354 1_545
Be2 Hf0 2.836990 1_656
Be2 Hf0 2.836991 1_665
Be3 Be8 2.144713 1_555
Be3 Be7 2.173583 1_555
Be3 Be5 2.173618 1_645
Be3 Be4 2.173618 1_546
Be3 Be6 2.199199 1_545
Be3 Be5 2.255231 1_555
Be3 Be4 2.255231 1_555
Be3 V0 2.501405 1_545
Be3 V1 2.540354 1_556
Be3 V1 2.540354 1_655
Be3 Hf0 2.836990 1_655
Be3 Hf0 2.836991 1_556
Be4 Be8 2.144713 1_555
Be4 Be7 2.173584 1_555
Be4 Be5 2.173618 1_654
Be4 Be6 2.199199 1_554
Be4 Be5 2.255231 1_555
Be4 V0 2.501405 1_554
Be4 V1 2.540353 1_565
Be4 V1 2.540354 1_655
Be4 Hf0 2.836990 1_655
Be4 Hf0 2.836990 1_565
Be5 Be8 2.144714 1_555
Be5 Be7 2.173583 1_555
Be5 Be6 2.199199 1_455
Be5 V0 2.501404 1_455
Be5 V1 2.540354 1_556
Be5 V1 2.540354 1_565
Be5 Hf0 2.836990 1_565
Be5 Hf0 2.836991 1_556
Be6 Hf0 2.557207 1_656
Be6 Hf0 2.557207 1_566
Be6 Hf0 2.557208 1_665
Be7 Hf0 2.557207 1_565
Be7 Hf0 2.557207 1_655
Be7 Hf0 2.557208 1_556
Be8 V0 2.597971 1_545
Be8 V1 2.597971 1_565
Be8 V0 2.597971 1_455
Be8 V1 2.597971 1_655
Be8 V0 2.597972 1_554
Be8 V1 2.597972 1_556
V0 V1 2.717188 1_656
V0 V1 2.717189 1_665
V0 V1 2.717189 1_566
