# generated using pymatgen
data_Sc4Si6Ir5Rh2
_symmetry_space_group_name_H-M   'P 1'
_cell_length_a   6.95048669
_cell_length_b   6.95031260
_cell_length_c   6.95031262
_cell_angle_alpha   109.53013426
_cell_angle_beta   109.44132403
_cell_angle_gamma   109.44133935
_symmetry_Int_Tables_number   1
_chemical_formula_structural   Sc4Si6Ir5Rh2
_chemical_formula_sum   'Sc4 Si6 Ir5 Rh2'
_cell_volume   258.46775698
_cell_formula_units_Z   1
loop_
 _symmetry_equiv_pos_site_id
 _symmetry_equiv_pos_as_xyz
  1  'x, y, z'
loop_
 _atom_site_type_symbol
 _atom_site_label
 _atom_site_symmetry_multiplicity
 _atom_site_fract_x
 _atom_site_fract_y
 _atom_site_fract_z
 _atom_site_occupancy
  Sc  Sc0  1  0.00009891  0.00004888  0.50004957  1
  Sc  Sc1  1  0.00009993  0.50004923  0.00005075  1
  Sc  Sc2  1  0.49986988  0.99971996  0.99971970  1
  Sc  Sc3  1  0.49987017  0.50015194  0.50015006  1
  Si  Si0  1  0.68107754  0.68104216  0.00003461  1
  Si  Si1  1  0.31918365  0.00013823  0.31904556  1
  Si  Si2  1  0.99959850  0.31912365  0.31912468  1
  Si  Si3  1  0.31917674  0.31904031  0.00013500  1
  Si  Si4  1  0.68107607  0.00003581  0.68104057  1
  Si  Si5  1  0.99959927  0.68047508  0.68047565  1
  Ir  Ir0  1  0.50101229  0.25050608  0.75050615  1
  Ir  Ir1  1  0.24901407  0.49955362  0.74946078  1
  Ir  Ir2  1  0.24901290  0.74946041  0.49955301  1
  Ir  Ir3  1  0.50101243  0.75050578  0.25050640  1
  Ir  Ir4  1  0.99992417  0.99996175  0.99996177  1
  Rh  Rh0  1  0.75018464  0.25057181  0.49961559  1
  Rh  Rh1  1  0.75018984  0.49961829  0.25057115  1
loop_
_geom_bond_atom_site_label_1
_geom_bond_atom_site_label_2
_geom_bond_distance
_geom_bond_site_symmetry_2
Sc0 Si0 2.890649 1_445
Sc0 Si4 2.890652 1_455
Sc0 Si3 2.891019 1_556
Sc0 Si1 2.891049 1_555
Sc0 Si5 2.892419 1_445
Sc0 Si2 2.892419 1_455
Sc1 Si4 2.890645 1_454
Sc1 Si0 2.890657 1_455
Sc1 Si3 2.891026 1_555
Sc1 Si1 2.891043 1_565
Sc1 Si2 2.892418 1_455
Sc1 Si5 2.892425 1_454
Sc2 Si0 2.889731 1_556
Sc2 Si4 2.889733 1_565
Sc2 Si1 2.890768 1_566
Sc2 Si3 2.890769 1_566
Sc2 Si2 2.891339 1_566
Sc2 Si5 2.893694 1_455
Sc3 Si4 2.889721 1_565
Sc3 Si0 2.889725 1_556
Sc3 Si3 2.890773 1_555
Sc3 Si1 2.890775 1_555
Sc3 Si5 2.891344 1_555
Sc3 Si2 2.893702 1_455
Ir0 Si4 2.473984 1_555
Ir0 Si0 2.473990 1_556
Ir0 Si1 2.478345 1_555
Ir0 Si3 2.478366 1_556
Ir0 Sc1 2.833407 1_656
Ir0 Sc2 2.838491 1_545
Ir0 Sc3 2.838503 1_555
Ir0 Sc0 2.843772 1_555
Ir1 Si2 2.473297 1_455
Ir1 Si5 2.473301 1_455
Ir1 Si3 2.480035 1_556
Ir1 Si0 2.484055 1_556
Ir1 Sc0 2.834153 1_555
Ir1 Sc1 2.834154 1_556
Ir1 Sc2 2.837913 1_555
Ir1 Sc3 2.837920 1_555
Ir2 Si2 2.473301 1_455
Ir2 Si5 2.473301 1_455
Ir2 Si1 2.480030 1_565
Ir2 Si4 2.484056 1_565
Ir2 Sc1 2.834139 1_555
Ir2 Sc0 2.834145 1_565
Ir2 Sc3 2.837914 1_555
Ir2 Sc2 2.837915 1_555
Ir3 Si4 2.473982 1_565
Ir3 Si0 2.473998 1_555
Ir3 Si1 2.478353 1_565
Ir3 Si3 2.478369 1_555
Ir3 Sc0 2.833400 1_665
Ir3 Sc3 2.838478 1_555
Ir3 Sc2 2.838497 1_554
Ir3 Sc1 2.843767 1_555
Ir4 Si0 2.560474 1_556
Ir4 Si4 2.560492 1_565
Ir4 Si5 2.560881 1_555
Ir4 Si2 2.560891 1_566
Ir4 Si3 2.561754 1_666
Ir4 Si1 2.561791 1_666
Rh0 Si5 2.470483 1_555
Rh0 Si2 2.470493 1_555
Rh0 Si1 2.478802 1_555
Rh0 Si4 2.483417 1_555
Rh0 Sc3 2.836370 1_555
Rh0 Sc2 2.836373 1_544
Rh0 Sc1 2.839437 1_656
Rh0 Sc0 2.839453 1_655
Rh1 Si2 2.470486 1_555
Rh1 Si5 2.470488 1_555
Rh1 Si3 2.478865 1_555
Rh1 Si0 2.483417 1_555
Rh1 Sc2 2.836387 1_544
Rh1 Sc3 2.836393 1_555
Rh1 Sc0 2.839410 1_665
Rh1 Sc1 2.839415 1_655
