# generated using pymatgen
data_NaNb6SnSe12
_symmetry_space_group_name_H-M   'P 1'
_cell_length_a   6.08644747
_cell_length_b   6.08644689
_cell_length_c   15.17913296
_cell_angle_alpha   90.00000000
_cell_angle_beta   90.00000000
_cell_angle_gamma   120.00001403
_symmetry_Int_Tables_number   1
_chemical_formula_structural   NaNb6SnSe12
_chemical_formula_sum   'Na1 Nb6 Sn1 Se12'
_cell_volume   486.97341183
_cell_formula_units_Z   1
loop_
 _symmetry_equiv_pos_site_id
 _symmetry_equiv_pos_as_xyz
  1  'x, y, z'
loop_
 _atom_site_type_symbol
 _atom_site_label
 _atom_site_symmetry_multiplicity
 _atom_site_fract_x
 _atom_site_fract_y
 _atom_site_fract_z
 _atom_site_occupancy
  Na  Na0  1  0.00000000  0.00000000  0.50000000  1
  Nb  Nb0  1  0.33333300  0.66666700  0.24811973  1
  Nb  Nb1  1  0.66666700  0.33333300  0.75188027  1
  Nb  Nb2  1  0.66666700  0.33333300  0.24811973  1
  Nb  Nb3  1  0.33333300  0.66666700  0.75188027  1
  Nb  Nb4  1  0.00000000  0.00000000  0.24821306  1
  Nb  Nb5  1  0.00000000  0.00000000  0.75178694  1
  Sn  Sn0  1  0.00000000  0.00000000  0.00000000  1
  Se  Se0  1  0.33529643  1.00000000  0.13906394  1
  Se  Se1  1  1.00000000  0.33529643  0.13906394  1
  Se  Se2  1  0.66470357  0.66470357  0.13906394  1
  Se  Se3  1  0.33584829  0.33584829  0.64306234  1
  Se  Se4  1  0.66415171  0.66415171  0.35693766  1
  Se  Se5  1  0.66415171  0.00000000  0.64306234  1
  Se  Se6  1  0.00000000  0.66415171  0.64306234  1
  Se  Se7  1  0.00000000  0.66470357  0.86093606  1
  Se  Se8  1  0.33529643  0.33529643  0.86093606  1
  Se  Se9  1  1.00000000  0.33584829  0.35693766  1
  Se  Se10  1  0.33584829  1.00000000  0.35693766  1
  Se  Se11  1  0.66470357  0.00000000  0.86093606  1
loop_
_geom_bond_atom_site_label_1
_geom_bond_atom_site_label_2
_geom_bond_distance
_geom_bond_site_symmetry_2
Na0 Se3 2.982301 1_555
Na0 Se4 2.982301 1_445
Na0 Se6 2.982301 1_545
Na0 Se9 2.982301 1_455
Na0 Se5 2.982301 1_455
Na0 Se10 2.982301 1_545
Nb0 Se10 2.610283 1_555
Nb0 Se9 2.610285 1_455
Nb0 Se4 2.610288 1_555
Nb0 Se0 2.613855 1_555
Nb0 Se1 2.613857 1_455
Nb0 Se2 2.613860 1_555
Nb1 Se5 2.610283 1_555
Nb1 Se6 2.610285 1_655
Nb1 Se3 2.610288 1_555
Nb1 Se11 2.613855 1_555
Nb1 Se7 2.613857 1_655
Nb1 Se8 2.613860 1_555
Nb2 Se9 2.610283 1_555
Nb2 Se10 2.610285 1_545
Nb2 Se4 2.610288 1_555
Nb2 Se1 2.613856 1_555
Nb2 Se0 2.613857 1_545
Nb2 Se2 2.613860 1_555
Nb3 Se6 2.610283 1_555
Nb3 Se5 2.610285 1_565
Nb3 Se3 2.610288 1_555
Nb3 Se7 2.613856 1_555
Nb3 Se11 2.613857 1_565
Nb3 Se8 2.613860 1_555
Nb4 Se4 2.627180 1_445
Nb4 Se9 2.627180 1_455
Nb4 Se10 2.627181 1_545
Nb4 Se2 2.628624 1_445
Nb4 Se1 2.628625 1_455
Nb4 Se0 2.628625 1_545
Nb5 Se3 2.627180 1_555
Nb5 Se6 2.627180 1_545
Nb5 Se5 2.627181 1_455
Nb5 Se8 2.628624 1_555
Nb5 Se7 2.628625 1_545
Nb5 Se11 2.628625 1_455
Se0 Sn0 2.936067 1_565
Se1 Sn0 2.936067 1_655
Se2 Sn0 2.936067 1_665
Se7 Sn0 2.936067 1_566
Se8 Sn0 2.936067 1_556
Se11 Sn0 2.936067 1_656
