# generated using pymatgen
data_KRb19(HfAs3)4
_symmetry_space_group_name_H-M   'P 1'
_cell_length_a   8.73359974
_cell_length_b   9.33253684
_cell_length_c   18.28212861
_cell_angle_alpha   60.35724213
_cell_angle_beta   90.45909446
_cell_angle_gamma   90.20282347
_symmetry_Int_Tables_number   1
_chemical_formula_structural   KRb19(HfAs3)4
_chemical_formula_sum   'K1 Rb19 Hf4 As12'
_cell_volume   1295.05598609
_cell_formula_units_Z   1
loop_
 _symmetry_equiv_pos_site_id
 _symmetry_equiv_pos_as_xyz
  1  'x, y, z'
loop_
 _atom_site_type_symbol
 _atom_site_label
 _atom_site_symmetry_multiplicity
 _atom_site_fract_x
 _atom_site_fract_y
 _atom_site_fract_z
 _atom_site_occupancy
  K  K0  1  0.53983879  0.54192946  0.75069189  1
  Rb  Rb0  1  0.18031181  0.83959274  0.74371740  1
  Rb  Rb1  1  0.68018235  0.15561876  0.75794457  1
  Rb  Rb2  1  0.81907160  0.15850615  0.25665803  1
  Rb  Rb3  1  0.31940494  0.84222978  0.24294078  1
  Rb  Rb4  1  0.16370871  0.16352290  0.41912917  1
  Rb  Rb5  1  0.65815517  0.83744328  0.08146631  1
  Rb  Rb6  1  0.84075355  0.83782151  0.58063087  1
  Rb  Rb7  1  0.33896196  0.16802951  0.91674065  1
  Rb  Rb8  1  0.00585248  0.07849022  0.09050288  1
  Rb  Rb9  1  0.50806249  0.92192485  0.40874347  1
  Rb  Rb10  1  0.99071373  0.92200049  0.90774196  1
  Rb  Rb11  1  0.49550873  0.07436397  0.59382914  1
  Rb  Rb12  1  0.50987719  0.26671148  0.07778328  1
  Rb  Rb13  1  0.01560178  0.73529078  0.42242266  1
  Rb  Rb14  1  0.48257921  0.73642274  0.91958173  1
  Rb  Rb15  1  0.98797096  0.26299645  0.57954106  1
  Rb  Rb16  1  0.97538121  0.54362298  0.25518904  1
  Rb  Rb17  1  0.47606492  0.45727195  0.24525674  1
  Rb  Rb18  1  0.02620988  0.45675276  0.74535570  1
  Hf  Hf0  1  0.37587672  0.49421775  0.58048334  1
  Hf  Hf1  1  0.86799500  0.50556573  0.91999186  1
  Hf  Hf2  1  0.62785436  0.50440315  0.42193460  1
  Hf  Hf3  1  0.12418955  0.49550181  0.07911762  1
  As  As0  1  0.32583107  0.48440137  0.43978570  1
  As  As1  1  0.82147528  0.51794046  0.06020458  1
  As  As2  1  0.67811670  0.51425037  0.56292139  1
  As  As3  1  0.17003104  0.48301228  0.93921395  1
  As  As4  1  0.20134363  0.22525386  0.21463578  1
  As  As5  1  0.70270383  0.77445797  0.28667982  1
  As  As6  1  0.79220295  0.77457782  0.78381569  1
  As  As7  1  0.29901403  0.22463790  0.71481084  1
  As  As8  1  0.24791906  0.75236787  0.07586255  1
  As  As9  1  0.74902862  0.24862619  0.42378343  1
  As  As10  1  0.74544450  0.24983316  0.92203422  1
  As  As11  1  0.25676119  0.75040856  0.57885832  1
loop_
_geom_bond_atom_site_label_1
_geom_bond_atom_site_label_2
_geom_bond_distance
_geom_bond_site_symmetry_2
Hf0 K0 3.636845 1_555
As0 Hf0 2.651549 1_555
As0 Hf2 2.655020 1_555
As0 Rb4 3.492161 1_555
As0 Rb3 3.495184 1_555
As0 Rb13 3.495705 1_555
As0 Rb11 3.752834 1_555
As0 Rb15 3.789440 1_455
As1 Hf1 2.656919 1_554
As1 Hf3 2.659071 1_655
As1 Rb12 3.497115 1_555
As1 Rb2 3.497925 1_555
As1 Rb5 3.501728 1_555
As1 Rb10 3.715257 1_554
As1 Rb14 3.776604 1_554
As2 Hf0 2.656401 1_555
As2 Hf2 2.657206 1_555
As2 Rb1 3.479926 1_555
As2 Rb6 3.488636 1_555
As2 Rb15 3.498683 1_555
As2 Rb9 3.740444 1_555
As2 K0 3.775634 1_555
As2 Rb13 3.791783 1_655
As3 Hf3 2.650950 1_556
As3 Hf1 2.653681 1_455
As3 Rb0 3.477685 1_555
As3 Rb7 3.495973 1_555
As3 Rb14 3.507609 1_555
As3 Rb8 3.695233 1_556
As3 Rb12 3.763717 1_556
As4 Hf3 2.599532 1_555
As4 Rb2 3.417246 1_455
As4 Rb17 3.449554 1_555
As4 Rb3 3.506624 1_545
As4 Rb4 3.507807 1_555
As4 Rb12 3.579595 1_555
As4 Rb8 3.596854 1_555
As5 Hf2 2.596788 1_555
As5 Rb3 3.423091 1_555
As5 Rb16 3.453812 1_555
As5 Rb2 3.495347 1_565
As5 Rb5 3.516990 1_555
As5 Rb13 3.572277 1_655
As5 Rb9 3.588739 1_555
As6 Hf1 2.596509 1_555
As6 K0 3.344246 1_555
As6 Rb0 3.461233 1_655
As6 Rb1 3.489989 1_565
As6 Rb6 3.490201 1_555
As6 Rb14 3.581392 1_555
As6 Rb10 3.610448 1_555
As7 Hf0 2.591135 1_555
As7 Rb1 3.404331 1_555
As7 Rb18 3.454765 1_555
As7 Rb7 3.475768 1_555
As7 Rb0 3.517215 1_545
As7 Rb15 3.556261 1_455
As7 Rb11 3.598631 1_555
As8 Hf3 2.599894 1_555
As8 Rb10 3.478589 1_454
As8 Rb17 3.556517 1_555
As8 Rb14 3.591956 1_554
As8 Rb3 3.594862 1_555
As8 Rb7 3.604927 1_564
As8 Rb5 3.678594 1_555
As8 Rb16 3.739456 1_455
As8 Rb8 3.829456 1_565
As9 Hf2 2.599349 1_555
As9 Rb11 3.506504 1_555
As9 Rb16 3.557106 1_555
As9 Rb6 3.559918 1_545
As9 Rb15 3.572408 1_555
As9 Rb2 3.604529 1_555
As9 Rb17 3.707978 1_555
As9 Rb4 3.721094 1_655
As9 Rb9 3.817750 1_545
As10 Hf1 2.595646 1_555
As10 K0 3.459162 1_555
As10 Rb8 3.501049 1_656
As10 Rb1 3.560285 1_555
As10 Rb5 3.578741 1_546
As10 Rb12 3.592376 1_556
As10 Rb7 3.639160 1_555
As10 Rb18 3.754796 1_655
As10 Rb10 3.855327 1_545
As11 Hf0 2.597388 1_555
As11 Rb9 3.494540 1_555
As11 Rb18 3.554973 1_555
As11 Rb0 3.569342 1_555
As11 Rb4 3.591594 1_565
As11 Rb13 3.596653 1_555
As11 K0 3.691904 1_555
As11 Rb6 3.730421 1_455
As11 Rb11 3.785222 1_565
