# generated using pymatgen
data_SrIn2(SnIr)4
_symmetry_space_group_name_H-M   'P 1'
_cell_length_a   7.00749161
_cell_length_b   7.00749147
_cell_length_c   6.97401564
_cell_angle_alpha   120.36330502
_cell_angle_beta   120.36330519
_cell_angle_gamma   89.64859143
_symmetry_Int_Tables_number   1
_chemical_formula_structural   SrIn2(SnIr)4
_chemical_formula_sum   'Sr1 In2 Sn4 Ir4'
_cell_volume   240.22780617
_cell_formula_units_Z   1
loop_
 _symmetry_equiv_pos_site_id
 _symmetry_equiv_pos_as_xyz
  1  'x, y, z'
loop_
 _atom_site_type_symbol
 _atom_site_label
 _atom_site_symmetry_multiplicity
 _atom_site_fract_x
 _atom_site_fract_y
 _atom_site_fract_z
 _atom_site_occupancy
  Sr  Sr0  1  0.99700257  0.99700257  0.00000000  1
  In  In0  1  0.88387797  0.53150044  0.00000000  1
  In  In1  1  0.53150044  0.88387797  0.00000000  1
  Sn  Sn0  1  0.46656716  0.46656716  0.34689159  1
  Sn  Sn1  1  0.50014601  0.00014601  0.50000000  1
  Sn  Sn2  1  0.00014601  0.50014601  0.50000000  1
  Sn  Sn3  1  0.11967457  0.11967457  0.65310741  1
  Ir  Ir0  1  0.58934313  0.25581857  0.00000000  1
  Ir  Ir1  1  0.25581857  0.58934313  0.00000000  1
  Ir  Ir2  1  0.75495768  0.75495768  0.35399079  1
  Ir  Ir3  1  0.40096589  0.40096589  0.64600921  1
loop_
_geom_bond_atom_site_label_1
_geom_bond_atom_site_label_2
_geom_bond_distance
_geom_bond_site_symmetry_2
In0 Ir1 2.640155 1_655
In0 Ir2 2.773452 1_555
In0 Ir3 2.773457 1_554
In0 Ir0 2.835630 1_555
In0 Sr0 3.361664 1_555
In0 Sr0 3.823699 1_545
In1 Ir0 2.640155 1_565
In1 Ir2 2.773452 1_555
In1 Ir3 2.773457 1_554
In1 Ir1 2.835630 1_555
In1 Sr0 3.361664 1_555
In1 Sr0 3.823699 1_455
Sn0 Sr0 3.397725 1_445
Sn0 Sr0 3.783699 1_556
Sn1 Sr0 3.476336 1_546
Sn1 Sr0 3.476336 1_445
Sn2 Sr0 3.476336 1_456
Sn2 Sr0 3.476336 1_445
Sn3 Sr0 3.397722 1_446
Sn3 Sr0 3.783697 1_445
Ir0 Sn0 2.692685 1_555
Ir0 Sn3 2.692690 1_554
Ir0 Sn1 2.693367 1_554
Ir0 Sn2 2.693367 1_655
Ir0 Ir3 2.845909 1_554
Ir0 Ir2 2.845915 1_555
Ir0 Sr0 3.374365 1_545
Ir1 Sn0 2.692685 1_555
Ir1 Sn3 2.692690 1_554
Ir1 Sn2 2.693367 1_554
Ir1 Sn1 2.693367 1_565
Ir1 Ir3 2.845909 1_554
Ir1 Ir2 2.845915 1_555
Ir1 Sr0 3.374365 1_455
Ir2 Sn3 2.591470 1_665
Ir2 Sn2 2.684968 1_655
Ir2 Sn1 2.684968 1_565
Ir2 Sn0 2.831655 1_555
Ir2 Sr0 3.261277 1_556
Ir3 Sn0 2.591484 1_555
Ir3 Sn1 2.684965 1_555
Ir3 Sn2 2.684965 1_555
Ir3 Sn3 2.831650 1_555
Ir3 Sr0 3.261274 1_445
