# generated using pymatgen
data_Sc5Ta(SiRu)6
_symmetry_space_group_name_H-M   'P 1'
_cell_length_a   7.61064251
_cell_length_b   7.60932081
_cell_length_c   7.61064226
_cell_angle_alpha   126.73628515
_cell_angle_beta   126.47239414
_cell_angle_gamma   78.90142062
_symmetry_Int_Tables_number   1
_chemical_formula_structural   Sc5Ta(SiRu)6
_chemical_formula_sum   'Sc5 Ta1 Si6 Ru6'
_cell_volume   274.79168440
_cell_formula_units_Z   1
loop_
 _symmetry_equiv_pos_site_id
 _symmetry_equiv_pos_as_xyz
  1  'x, y, z'
loop_
 _atom_site_type_symbol
 _atom_site_label
 _atom_site_symmetry_multiplicity
 _atom_site_fract_x
 _atom_site_fract_y
 _atom_site_fract_z
 _atom_site_occupancy
  Sc  Sc0  1  0.95071766  0.91084253  0.46012587  1
  Sc  Sc1  1  0.04747595  0.50081504  0.95334009  1
  Sc  Sc2  1  0.54793260  0.50896282  0.46103021  1
  Sc  Sc3  1  0.45400739  0.90939161  0.95538422  1
  Sc  Sc4  1  0.74948573  0.09684147  0.84735574  1
  Ta  Ta0  1  0.25038202  0.09488329  0.34450127  1
  Si  Si0  1  0.74864592  0.50399192  0.25534500  1
  Si  Si1  1  0.25147468  0.49870661  0.74723193  1
  Si  Si2  1  0.66119814  0.17066114  0.50093850  1
  Si  Si3  1  0.32865821  0.83926697  0.49926246  1
  Si  Si4  1  0.16972264  0.17066114  0.00946400  1
  Si  Si5  1  0.84000451  0.83926697  0.01060875  1
  Ru  Ru0  1  0.49286178  0.75449167  0.24734820  1
  Ru  Ru1  1  0.00714347  0.75449167  0.76162988  1
  Ru  Ru2  1  0.87741785  0.25214095  0.37734304  1
  Ru  Ru3  1  0.12166167  0.50012164  0.37370976  1
  Ru  Ru4  1  0.37479791  0.25214095  0.87472310  1
  Ru  Ru5  1  0.62641187  0.50012164  0.87845996  1
loop_
_geom_bond_atom_site_label_1
_geom_bond_atom_site_label_2
_geom_bond_distance
_geom_bond_site_symmetry_2
Sc0 Si3 2.689096 1_655
Sc0 Si5 2.689100 1_555
Sc0 Si2 2.694846 1_565
Sc0 Si4 2.694846 1_666
Sc0 Si0 2.754994 1_555
Sc1 Si3 2.688045 1_556
Sc1 Si5 2.688050 1_456
Sc1 Si4 2.696442 1_556
Sc1 Si2 2.696442 1_455
Sc1 Si1 2.779731 1_555
Sc2 Si4 2.689200 1_555
Sc2 Si2 2.689201 1_555
Sc2 Si5 2.697102 1_556
Sc2 Si3 2.697102 1_555
Sc2 Si0 2.745017 1_555
Sc3 Si2 2.688270 1_566
Sc3 Si4 2.688272 1_566
Sc3 Si3 2.699680 1_555
Sc3 Si5 2.699680 1_556
Sc3 Si1 2.771389 1_555
Sc4 Si3 2.689881 1_545
Sc4 Si5 2.689881 1_546
Sc4 Si4 2.690374 1_656
Sc4 Si2 2.690376 1_555
Sc4 Si0 2.783507 1_556
Si1 Ta0 2.747634 1_555
Si2 Ta0 2.640599 1_555
Si3 Ta0 2.643059 1_565
Si4 Ta0 2.640591 1_555
Si5 Ta0 2.643059 1_665
Ru0 Si1 2.419049 1_554
Ru0 Si0 2.448666 1_555
Ru0 Si2 2.589519 1_565
Ru0 Si3 2.590799 1_555
Ru0 Ta0 2.855192 1_565
Ru0 Sc1 2.925348 1_554
Ru0 Sc4 2.928885 1_565
Ru0 Sc3 2.938012 1_554
Ru0 Sc0 2.960207 1_555
Ru0 Sc2 2.972173 1_555
Ru1 Si1 2.419050 1_555
Ru1 Si0 2.448670 1_455
Ru1 Si4 2.589517 1_566
Ru1 Si5 2.590799 1_456
Ru1 Ta0 2.855192 1_566
Ru1 Sc1 2.925352 1_555
Ru1 Sc4 2.928886 1_465
Ru1 Sc3 2.938012 1_555
Ru1 Sc0 2.960203 1_455
Ru1 Sc2 2.972173 1_455
Ru2 Si1 2.399916 1_655
Ru2 Si0 2.412238 1_555
Ru2 Si5 2.579010 1_545
Ru2 Si2 2.628273 1_555
Ru2 Sc3 2.900416 1_544
Ru2 Sc0 2.904227 1_545
Ru2 Sc4 2.947181 1_554
Ru2 Ta0 2.954564 1_655
Ru2 Sc1 2.957560 1_655
Ru2 Sc2 3.005977 1_555
Ru3 Si1 2.398109 1_555
Ru3 Si0 2.414712 1_455
Ru3 Si4 2.577259 1_555
Ru3 Si3 2.623045 1_555
Ru3 Sc1 2.902720 1_554
Ru3 Sc2 2.904882 1_555
Ru3 Sc4 2.939087 1_454
Ru3 Ta0 2.965390 1_555
Ru3 Sc0 2.980881 1_455
Ru3 Sc3 2.986976 1_555
Ru4 Si1 2.399916 1_555
Ru4 Si0 2.412233 1_556
Ru4 Si3 2.579010 1_545
Ru4 Si4 2.628280 1_556
Ru4 Sc3 2.900416 1_545
Ru4 Sc0 2.904223 1_445
Ru4 Sc4 2.947181 1_555
Ru4 Ta0 2.954563 1_555
Ru4 Sc1 2.957556 1_555
Ru4 Sc2 3.005976 1_556
Ru5 Si1 2.398109 1_555
Ru5 Si0 2.414707 1_556
Ru5 Si2 2.577264 1_555
Ru5 Si5 2.623045 1_556
Ru5 Sc1 2.902724 1_655
Ru5 Sc2 2.904882 1_555
Ru5 Sc4 2.939087 1_555
Ru5 Ta0 2.965389 1_555
Ru5 Sc0 2.980885 1_556
Ru5 Sc3 2.986976 1_555
