# generated using pymatgen
data_Sr8Mn2RuN8
_symmetry_space_group_name_H-M   'P 1'
_cell_length_a   9.75444836
_cell_length_b   9.75444869
_cell_length_c   7.54321323
_cell_angle_alpha   74.45453723
_cell_angle_beta   74.45453599
_cell_angle_gamma   31.84624607
_symmetry_Int_Tables_number   1
_chemical_formula_structural   Sr8Mn2RuN8
_chemical_formula_sum   'Sr8 Mn2 Ru1 N8'
_cell_volume   363.70029028
_cell_formula_units_Z   1
loop_
 _symmetry_equiv_pos_site_id
 _symmetry_equiv_pos_as_xyz
  1  'x, y, z'
loop_
 _atom_site_type_symbol
 _atom_site_label
 _atom_site_symmetry_multiplicity
 _atom_site_fract_x
 _atom_site_fract_y
 _atom_site_fract_z
 _atom_site_occupancy
  Sr  Sr0  1  0.39603357  0.39603357  0.95684248  1
  Sr  Sr1  1  0.32900876  0.32900876  0.47264709  1
  Sr  Sr2  1  0.97177582  0.97177582  0.25498382  1
  Sr  Sr3  1  0.19944477  0.19944477  0.19819826  1
  Sr  Sr4  1  0.80055523  0.80055523  0.80180174  1
  Sr  Sr5  1  0.02822418  0.02822418  0.74501618  1
  Sr  Sr6  1  0.67099124  0.67099124  0.52735291  1
  Sr  Sr7  1  0.60396643  0.60396643  0.04315752  1
  Mn  Mn0  1  0.81444948  0.81444948  0.20071900  1
  Mn  Mn1  1  0.18555052  0.18555052  0.79928100  1
  Ru  Ru0  1  0.50000000  0.50000000  0.50000000  1
  N  N0  1  0.27589587  0.27589587  0.82960510  1
  N  N1  1  0.82371544  0.82371544  0.42521644  1
  N  N2  1  0.10391701  0.10391701  0.99327827  1
  N  N3  1  0.89608299  0.89608299  0.00672173  1
  N  N4  1  0.17628456  0.17628456  0.57478356  1
  N  N5  1  0.47539615  0.47539615  0.28569024  1
  N  N6  1  0.72410413  0.72410413  0.17039490  1
  N  N7  1  0.52460385  0.52460385  0.71430976  1
loop_
_geom_bond_atom_site_label_1
_geom_bond_atom_site_label_2
_geom_bond_distance
_geom_bond_site_symmetry_2
Mn0 N1 1.749860 1_555
Mn0 N6 1.772327 1_555
Mn0 N3 1.799352 1_555
Mn1 N4 1.749860 1_555
Mn1 N0 1.772327 1_555
Mn1 N2 1.799352 1_555
N0 Sr1 2.597601 1_555
N0 Sr0 2.684519 1_555
N0 Sr4 2.713940 1_545
N0 Sr4 2.713940 1_455
N0 Sr3 2.750422 1_556
N1 Sr1 2.705406 1_565
N1 Sr1 2.705406 1_655
N1 Sr2 2.715921 1_555
N1 Sr4 2.751398 1_555
N1 Sr6 2.751784 1_555
N2 Sr5 2.646830 1_555
N2 Sr3 2.673050 1_556
N2 Sr7 2.702463 1_456
N2 Sr7 2.702463 1_546
N2 Sr2 2.704590 1_446
N3 Sr2 2.646830 1_555
N3 Sr4 2.673050 1_554
N3 Sr0 2.702463 1_654
N3 Sr0 2.702463 1_564
N3 Sr5 2.704590 1_664
N4 Sr6 2.705406 1_545
N4 Sr6 2.705406 1_455
N4 Sr5 2.715921 1_555
N4 Sr3 2.751398 1_555
N4 Sr1 2.751784 1_555
N5 Ru0 1.800642 1_555
N5 Sr7 2.589443 1_555
N5 Sr2 2.688602 1_545
N5 Sr2 2.688602 1_455
N5 Sr1 2.715164 1_555
N5 Sr0 3.229325 1_554
N6 Sr6 2.597601 1_555
N6 Sr7 2.684519 1_555
N6 Sr3 2.713940 1_565
N6 Sr3 2.713940 1_655
N6 Sr4 2.750422 1_554
N7 Ru0 1.800642 1_555
N7 Sr0 2.589443 1_555
N7 Sr5 2.688602 1_565
N7 Sr5 2.688602 1_655
N7 Sr6 2.715164 1_555
N7 Sr7 3.229325 1_556
