# generated using pymatgen
data_SrBiRu2O7
_symmetry_space_group_name_H-M   'P 1'
_cell_length_a   7.32528551
_cell_length_b   7.32528584
_cell_length_c   7.28227783
_cell_angle_alpha   60.19402308
_cell_angle_beta   60.19402163
_cell_angle_gamma   60.31629517
_symmetry_Int_Tables_number   1
_chemical_formula_structural   SrBiRu2O7
_chemical_formula_sum   'Sr2 Bi2 Ru4 O14'
_cell_volume   277.78083575
_cell_formula_units_Z   2
loop_
 _symmetry_equiv_pos_site_id
 _symmetry_equiv_pos_as_xyz
  1  'x, y, z'
loop_
 _atom_site_type_symbol
 _atom_site_label
 _atom_site_symmetry_multiplicity
 _atom_site_fract_x
 _atom_site_fract_y
 _atom_site_fract_z
 _atom_site_occupancy
  Sr  Sr0  1  0.12500000  0.12500000  0.62500000  1
  Sr  Sr1  1  0.12500000  0.12500000  0.12500000  1
  Bi  Bi0  1  0.12500000  0.62500000  0.12500000  1
  Bi  Bi1  1  0.62500000  0.12500000  0.12500000  1
  Ru  Ru0  1  0.62500000  0.62500000  0.12500000  1
  Ru  Ru1  1  0.62500000  0.12500000  0.62500000  1
  Ru  Ru2  1  0.12500000  0.62500000  0.62500000  1
  Ru  Ru3  1  0.62500000  0.62500000  0.62500000  1
  O  O0  1  0.26222730  0.26222730  0.23777270  1
  O  O1  1  0.98777270  0.98777270  0.01222730  1
  O  O2  1  0.56364728  0.94593436  0.54207924  1
  O  O3  1  0.30406564  0.68635272  0.30166088  1
  O  O4  1  0.55158908  0.55158908  0.94841092  1
  O  O5  1  0.94593436  0.56364728  0.54207924  1
  O  O6  1  0.56364728  0.94593436  0.94833912  1
  O  O7  1  0.94651787  0.94651787  0.55348213  1
  O  O8  1  0.94593436  0.56364728  0.94833912  1
  O  O9  1  0.68635272  0.30406564  0.30166088  1
  O  O10  1  0.30406564  0.68635272  0.70792076  1
  O  O11  1  0.68635272  0.30406564  0.70792076  1
  O  O12  1  0.30348213  0.30348213  0.69651787  1
  O  O13  1  0.69841092  0.69841092  0.30158908  1
loop_
_geom_bond_atom_site_label_1
_geom_bond_atom_site_label_2
_geom_bond_distance
_geom_bond_site_symmetry_2
Bi0 O0 2.179947 1_555
Bi0 O1 2.179947 1_455
Bi0 O5 2.532564 1_455
Bi0 O10 2.532564 1_554
Bi0 O3 2.532564 1_555
Bi0 O8 2.532564 1_454
Bi0 O4 2.595389 1_554
Bi0 O13 2.595389 1_455
Bi1 O1 2.179946 1_545
Bi1 O0 2.179946 1_555
Bi1 O2 2.532564 1_545
Bi1 O11 2.532564 1_554
Bi1 O9 2.532564 1_555
Bi1 O6 2.532564 1_544
Bi1 O4 2.595389 1_554
Bi1 O13 2.595389 1_545
O0 Sr0 2.310324 1_555
O0 Sr1 2.310324 1_555
O1 Sr0 2.310324 1_664
O1 Sr1 2.310324 1_665
O2 Ru3 1.976254 1_555
O2 Ru1 1.981990 1_565
O2 Sr0 2.663466 1_565
O3 Ru0 1.976253 1_555
O3 Ru2 1.981990 1_555
O3 Sr1 2.663466 1_565
O4 Ru3 1.973183 1_555
O4 Ru0 1.973183 1_556
O5 Ru3 1.976253 1_555
O5 Ru2 1.981990 1_655
O5 Sr0 2.663466 1_655
O6 Ru0 1.976254 1_556
O6 Ru1 1.981990 1_565
O6 Sr1 2.663466 1_566
O7 Ru1 1.983774 1_565
O7 Ru2 1.983774 1_655
O7 Sr1 2.595549 1_665
O7 Sr0 2.595549 1_665
O8 Ru0 1.976253 1_556
O8 Ru2 1.981990 1_655
O8 Sr1 2.663466 1_656
O9 Ru0 1.976254 1_555
O9 Ru1 1.981990 1_555
O9 Sr1 2.663466 1_655
O10 Ru3 1.976253 1_555
O10 Ru2 1.981990 1_555
O10 Sr0 2.663466 1_565
O11 Ru3 1.976254 1_555
O11 Ru1 1.981990 1_555
O11 Sr0 2.663466 1_655
O12 Ru1 1.983774 1_555
O12 Ru2 1.983774 1_555
O12 Sr1 2.595549 1_556
O12 Sr0 2.595549 1_555
O13 Ru3 1.973183 1_555
O13 Ru0 1.973183 1_555
