# generated using pymatgen
data_Rb12AlInSb6
_symmetry_space_group_name_H-M   'P 1'
_cell_length_a   6.29728169
_cell_length_b   10.83198022
_cell_length_c   12.53213483
_cell_angle_alpha   79.17787367
_cell_angle_beta   90.00000000
_cell_angle_gamma   90.00000000
_symmetry_Int_Tables_number   1
_chemical_formula_structural   Rb12AlInSb6
_chemical_formula_sum   'Rb12 Al1 In1 Sb6'
_cell_volume   839.63883616
_cell_formula_units_Z   1
loop_
 _symmetry_equiv_pos_site_id
 _symmetry_equiv_pos_as_xyz
  1  'x, y, z'
loop_
 _atom_site_type_symbol
 _atom_site_label
 _atom_site_symmetry_multiplicity
 _atom_site_fract_x
 _atom_site_fract_y
 _atom_site_fract_z
 _atom_site_occupancy
  Rb  Rb0  1  0.75000000  0.12373096  0.32573997  1
  Rb  Rb1  1  0.25000000  0.88339362  0.67232941  1
  Rb  Rb2  1  0.75000000  0.13412010  0.98386997  1
  Rb  Rb3  1  0.25000000  0.86497909  0.02534671  1
  Rb  Rb4  1  0.75000000  0.44410891  0.45643038  1
  Rb  Rb5  1  0.25000000  0.55724557  0.53932277  1
  Rb  Rb6  1  0.75000000  0.45594373  0.07806676  1
  Rb  Rb7  1  0.25000000  0.53501697  0.92533224  1
  Rb  Rb8  1  0.75000000  0.74210580  0.21757998  1
  Rb  Rb9  1  0.25000000  0.24836912  0.78018369  1
  Rb  Rb10  1  0.75000000  0.09195373  0.63042708  1
  Rb  Rb11  1  0.25000000  0.91484581  0.36630217  1
  Al  Al0  1  0.25000000  0.32160448  0.28041637  1
  In  In0  1  0.75000000  0.67767136  0.72139639  1
  Sb  Sb0  1  0.75000000  0.41828242  0.77496488  1
  Sb  Sb1  1  0.25000000  0.56728854  0.22613825  1
  Sb  Sb2  1  0.75000000  0.79161878  0.50280999  1
  Sb  Sb3  1  0.25000000  0.21463870  0.48736427  1
  Sb  Sb4  1  0.75000000  0.83271397  0.87999086  1
  Sb  Sb5  1  0.25000000  0.18036833  0.12598787  1
loop_
_geom_bond_atom_site_label_1
_geom_bond_atom_site_label_2
_geom_bond_distance
_geom_bond_site_symmetry_2
Rb0 Sb2 3.855906 1_545
Rb0 Sb3 3.966765 1_655
Rb0 Sb3 3.966765 1_555
Rb0 Sb5 3.997526 1_555
Rb0 Sb5 3.997526 1_655
Rb1 Sb3 3.888951 1_565
Rb1 Sb2 4.025978 1_455
Rb1 Sb2 4.025978 1_555
Rb1 Sb4 4.056047 1_455
Rb1 Sb4 4.056047 1_555
Rb2 Sb0 3.647232 1_555
Rb2 Sb5 3.697575 1_556
Rb2 Sb5 3.697575 1_656
Rb2 Sb4 3.734955 1_545
Rb3 Sb4 3.686931 1_454
Rb3 Sb4 3.686931 1_554
Rb3 Sb1 3.699036 1_555
Rb3 Sb5 3.857438 1_565
Rb3 Rb7 4.003469 1_554
Rb4 Sb2 3.915200 1_555
Rb4 Sb0 3.948962 1_555
Rb4 Sb3 3.985055 1_555
Rb4 Sb3 3.985055 1_655
Rb5 Sb3 3.886359 1_555
Rb5 Sb1 3.905907 1_555
Rb5 Sb2 4.016493 1_555
Rb5 Sb2 4.016493 1_455
Rb6 Rb7 3.700764 1_554
Rb6 Rb7 3.700764 1_654
Rb6 Sb0 3.895771 1_554
Rb6 Sb1 3.956320 1_655
Rb6 Sb1 3.956320 1_555
Rb7 Sb1 3.850714 1_556
Rb7 Rb9 3.882085 1_555
Rb7 Sb0 3.994829 1_555
Rb7 Sb0 3.994829 1_455
Rb7 Sb5 4.177719 1_556
Rb8 Sb1 3.665373 1_555
Rb8 Sb1 3.665373 1_655
Rb8 Sb2 3.712802 1_555
Rb8 Sb4 4.159679 1_554
Rb9 Sb0 3.641489 1_455
Rb9 Sb0 3.641489 1_555
Rb9 Sb3 3.755440 1_555
Rb10 Sb3 3.741615 1_555
Rb10 Sb3 3.741615 1_655
Rb10 Sb4 3.790645 1_545
Rb10 Sb2 3.885238 1_545
Rb11 Sb2 3.710085 1_555
Rb11 Sb2 3.710085 1_455
Rb11 Sb5 3.753593 1_565
Rb11 Sb3 3.833691 1_565
Al0 Sb1 2.620142 1_555
Al0 Sb3 2.634442 1_555
Al0 Sb5 2.682870 1_555
Al0 Rb0 3.791226 1_455
Al0 Rb0 3.791226 1_555
In0 Sb0 2.763468 1_555
In0 Sb2 2.785286 1_555
In0 Sb4 2.832695 1_555
In0 Rb1 3.839684 1_555
In0 Rb1 3.839684 1_655
In0 Rb7 4.165396 1_655
In0 Rb7 4.165396 1_555
