# generated using pymatgen
data_K2Ca(TcO3)2
_symmetry_space_group_name_H-M   'P 1'
_cell_length_a   6.16542463
_cell_length_b   6.16542465
_cell_length_c   6.89082571
_cell_angle_alpha   63.42526860
_cell_angle_beta   116.57472159
_cell_angle_gamma   119.99999693
_symmetry_Int_Tables_number   1
_chemical_formula_structural   K2Ca(TcO3)2
_chemical_formula_sum   'K2 Ca1 Tc2 O6'
_cell_volume   194.23400256
_cell_formula_units_Z   1
loop_
 _symmetry_equiv_pos_site_id
 _symmetry_equiv_pos_as_xyz
  1  'x, y, z'
loop_
 _atom_site_type_symbol
 _atom_site_label
 _atom_site_symmetry_multiplicity
 _atom_site_fract_x
 _atom_site_fract_y
 _atom_site_fract_z
 _atom_site_occupancy
  K  K0  1  0.79155699  0.20844401  0.37466896  1
  K  K1  1  0.20844401  0.79155599  0.62533104  1
  Ca  Ca0  1  0.00000000  0.00000000  0.00000000  1
  Tc  Tc0  1  0.43769765  0.56230235  0.31309295  1
  Tc  Tc1  1  0.56230235  0.43769765  0.68690705  1
  O  O0  1  0.25112701  0.25526582  0.24698720  1
  O  O1  1  0.74473418  0.74887299  0.24698720  1
  O  O2  1  0.25112701  0.74887399  0.24698720  1
  O  O3  1  0.74887399  0.25112501  0.75301280  1
  O  O4  1  0.25526682  0.25112601  0.75301280  1
  O  O5  1  0.74887399  0.74473418  0.75301280  1
loop_
_geom_bond_atom_site_label_1
_geom_bond_atom_site_label_2
_geom_bond_distance
_geom_bond_site_symmetry_2
K0 O3 2.869218 1_555
K0 O5 2.869225 1_545
K0 O4 2.869225 1_655
K0 O1 3.173508 1_555
K0 O0 3.173511 1_655
K0 O2 3.173511 1_655
K0 O0 3.173511 1_555
K0 O2 3.173511 1_545
K0 O1 3.173514 1_545
K1 O2 2.869221 1_555
K1 O0 2.869225 1_565
K1 O1 2.869225 1_455
K1 O4 3.173508 1_565
K1 O3 3.173508 1_565
K1 O5 3.173511 1_455
K1 O5 3.173511 1_555
K1 O3 3.173514 1_455
K1 O4 3.173514 1_555
Ca0 O3 2.317940 1_454
Ca0 O1 2.317948 1_445
Ca0 O2 2.317948 1_545
Ca0 O5 2.317948 1_444
Ca0 O0 2.317948 1_555
Ca0 O4 2.317952 1_554
O0 Tc0 1.799822 1_555
O1 Tc0 1.799821 1_555
O2 Tc0 1.799821 1_555
O3 Tc1 1.799832 1_555
O4 Tc1 1.799816 1_555
O5 Tc1 1.799822 1_555
