# generated using pymatgen
data_ThPd
_symmetry_space_group_name_H-M   'P 1'
_cell_length_a   4.57165089
_cell_length_b   5.86521681
_cell_length_c   7.29016428
_cell_angle_alpha   90.00053391
_cell_angle_beta   90.00000097
_cell_angle_gamma   90.00000000
_symmetry_Int_Tables_number   1
_chemical_formula_structural   ThPd
_chemical_formula_sum   'Th4 Pd4'
_cell_volume   195.47645036
_cell_formula_units_Z   4
loop_
 _symmetry_equiv_pos_site_id
 _symmetry_equiv_pos_as_xyz
  1  'x, y, z'
loop_
 _atom_site_type_symbol
 _atom_site_label
 _atom_site_symmetry_multiplicity
 _atom_site_fract_x
 _atom_site_fract_y
 _atom_site_fract_z
 _atom_site_occupancy
  Th  Th0  1  0.25000001  0.13970793  0.17938495  1
  Th  Th1  1  0.74999999  0.86029207  0.82061505  1
  Th  Th2  1  0.74999999  0.63973163  0.32053314  1
  Th  Th3  1  0.25000001  0.36026837  0.67946686  1
  Pd  Pd0  1  0.25000000  0.64893367  0.04824651  1
  Pd  Pd1  1  0.75000000  0.35106633  0.95175349  1
  Pd  Pd2  1  0.74999999  0.14893042  0.45172969  1
  Pd  Pd3  1  0.25000001  0.85106958  0.54827031  1
loop_
_geom_bond_atom_site_label_1
_geom_bond_atom_site_label_2
_geom_bond_distance
_geom_bond_site_symmetry_2
Pd0 Pd1 2.961760 1_454
Pd0 Pd1 2.961760 1_554
Pd0 Th2 3.027903 1_555
Pd0 Th2 3.027903 1_455
Pd0 Th0 3.033096 1_565
Pd0 Th1 3.084744 1_554
Pd0 Th1 3.084744 1_454
Pd0 Th0 3.136004 1_555
Pd0 Th3 3.177151 1_554
Pd1 Th3 3.027903 1_555
Pd1 Th3 3.027903 1_655
Pd1 Th1 3.033096 1_545
Pd1 Th0 3.084744 1_556
Pd1 Th0 3.084744 1_656
Pd1 Th1 3.136004 1_555
Pd1 Th2 3.177151 1_556
Pd2 Pd3 2.961828 1_545
Pd2 Pd3 2.961828 1_645
Pd2 Th0 3.028182 1_555
Pd2 Th0 3.028182 1_655
Pd2 Th2 3.033397 1_555
Pd2 Th3 3.085098 1_555
Pd2 Th3 3.085098 1_655
Pd2 Th2 3.135966 1_545
Pd2 Th1 3.177746 1_545
Pd3 Th1 3.028182 1_555
Pd3 Th1 3.028182 1_455
Pd3 Th3 3.033397 1_555
Pd3 Th2 3.085098 1_555
Pd3 Th2 3.085098 1_455
Pd3 Th3 3.135966 1_565
Pd3 Th0 3.177746 1_565
