# generated using pymatgen
data_KHo2F7
_symmetry_space_group_name_H-M   'P 1'
_cell_length_a   8.13664276
_cell_length_b   8.13664276
_cell_length_c   11.86149767
_cell_angle_alpha   59.71382728
_cell_angle_beta   59.71382728
_cell_angle_gamma   58.45283451
_symmetry_Int_Tables_number   1
_chemical_formula_structural   KHo2F7
_chemical_formula_sum   'K4 Ho8 F28'
_cell_volume   546.17181872
_cell_formula_units_Z   4
loop_
 _symmetry_equiv_pos_site_id
 _symmetry_equiv_pos_as_xyz
  1  'x, y, z'
loop_
 _atom_site_type_symbol
 _atom_site_label
 _atom_site_symmetry_multiplicity
 _atom_site_fract_x
 _atom_site_fract_y
 _atom_site_fract_z
 _atom_site_occupancy
  K  K0  1  0.76264188  0.76264188  0.97930909  1
  K  K1  1  0.23735812  0.23735812  0.02069091  1
  K  K2  1  0.73343413  0.73343413  0.34793239  1
  K  K3  1  0.26656587  0.26656587  0.65206761  1
  Ho  Ho0  1  0.26113497  0.73514491  0.68171953  1
  Ho  Ho1  1  0.24041047  0.75958953  0.00000000  1
  Ho  Ho2  1  0.26485509  0.73886503  0.31828047  1
  Ho  Ho3  1  0.75958953  0.24041047  0.00000000  1
  Ho  Ho4  1  0.73514491  0.26113497  0.68171953  1
  Ho  Ho5  1  0.74056922  0.74056922  0.67880117  1
  Ho  Ho6  1  0.73886503  0.26485509  0.31828047  1
  Ho  Ho7  1  0.25943078  0.25943078  0.32119883  1
  F  F0  1  0.83699190  0.36780529  0.08342212  1
  F  F1  1  0.61877476  0.14554888  0.23729290  1
  F  F2  1  0.10555221  0.10555221  0.92540834  1
  F  F3  1  0.67649717  0.32350283  0.50000000  1
  F  F4  1  0.99677312  0.99677312  0.73549344  1
  F  F5  1  0.99731969  0.65606419  0.73993019  1
  F  F6  1  0.32350283  0.67649717  0.50000000  1
  F  F7  1  0.00268031  0.34393581  0.26006981  1
  F  F8  1  0.99555570  0.33137115  0.49921522  1
  F  F9  1  0.85445112  0.38122524  0.76270710  1
  F  F10  1  0.38122524  0.85445112  0.76270710  1
  F  F11  1  0.61304241  0.61304241  0.61877326  1
  F  F12  1  0.39471724  0.39471724  0.08697545  1
  F  F13  1  0.16300810  0.63219471  0.91657788  1
  F  F14  1  0.33137115  0.99555570  0.49921522  1
  F  F15  1  0.63219471  0.16300810  0.91657788  1
  F  F16  1  0.14554888  0.61877476  0.23729290  1
  F  F17  1  0.65606419  0.99731969  0.73993019  1
  F  F18  1  0.60487146  0.60487146  0.24904446  1
  F  F19  1  0.00322688  0.00322688  0.26450656  1
  F  F20  1  0.66862885  0.00444430  0.50078478  1
  F  F21  1  0.39512854  0.39512854  0.75095554  1
  F  F22  1  0.38695759  0.38695759  0.38122674  1
  F  F23  1  0.34393581  0.00268031  0.26006981  1
  F  F24  1  0.36780529  0.83699190  0.08342212  1
  F  F25  1  0.89444779  0.89444779  0.07459166  1
  F  F26  1  0.00444430  0.66862885  0.50078478  1
  F  F27  1  0.60528276  0.60528276  0.91302455  1
loop_
_geom_bond_atom_site_label_1
_geom_bond_atom_site_label_2
_geom_bond_distance
_geom_bond_site_symmetry_2
F0 Ho3 2.190089 1_555
F0 Ho6 2.280875 1_555
F0 K0 2.632543 1_554
F0 K1 2.650666 1_655
F1 Ho3 2.304806 1_555
F1 Ho7 2.357570 1_555
F1 Ho6 2.387446 1_555
F1 K2 2.712852 1_545
F2 Ho1 2.268456 1_546
F2 Ho3 2.268456 1_456
F2 K3 2.678082 1_555
F2 K1 2.688180 1_556
F3 Ho4 2.193642 1_555
F3 Ho6 2.193642 1_555
F4 Ho0 2.181648 1_655
F4 Ho4 2.181648 1_565
F4 K0 2.881962 1_555
F5 Ho5 2.210136 1_555
F5 Ho0 2.236244 1_655
F5 K0 2.782538 1_555
F5 K3 3.113335 1_655
F6 Ho0 2.193642 1_555
F6 Ho2 2.193642 1_555
F7 Ho7 2.210136 1_555
F7 Ho6 2.236244 1_455
F7 K1 2.782538 1_555
F7 K2 3.113335 1_455
F8 Ho7 2.184012 1_655
F8 Ho4 2.212515 1_555
F9 Ho3 2.304806 1_556
F9 Ho5 2.357570 1_555
F9 Ho4 2.387446 1_555
F9 K3 2.712852 1_655
F10 Ho1 2.304806 1_556
F10 Ho5 2.357570 1_555
F10 Ho0 2.387446 1_555
F10 K3 2.712852 1_565
F11 Ho5 2.297266 1_555
F11 Ho0 2.314815 1_555
F11 Ho4 2.314815 1_555
F11 K2 2.625945 1_555
F12 Ho7 2.289255 1_555
F12 Ho3 2.402380 1_555
F12 Ho1 2.402380 1_555
F12 K1 2.764607 1_555
F13 Ho1 2.190089 1_556
F13 Ho0 2.280875 1_555
F13 K1 2.632543 1_556
F13 K0 2.650666 1_455
F14 Ho7 2.184012 1_565
F14 Ho0 2.212515 1_555
F15 Ho3 2.190089 1_556
F15 Ho4 2.280875 1_555
F15 K1 2.632543 1_556
F15 K0 2.650666 1_545
F16 Ho1 2.304806 1_555
F16 Ho7 2.357570 1_555
F16 Ho2 2.387446 1_555
F16 K2 2.712852 1_455
F17 Ho5 2.210136 1_555
F17 Ho4 2.236244 1_565
F17 K0 2.782538 1_555
F17 K3 3.113335 1_565
F18 Ho6 2.229867 1_555
F18 Ho2 2.229867 1_555
F18 K0 2.640353 1_554
F18 K2 2.680406 1_555
F19 Ho6 2.181648 1_455
F19 Ho2 2.181648 1_545
F19 K1 2.881962 1_555
F20 Ho5 2.184012 1_545
F20 Ho6 2.212515 1_555
F21 Ho0 2.229867 1_555
F21 Ho4 2.229867 1_555
F21 K1 2.640353 1_556
F21 K3 2.680406 1_555
F22 Ho7 2.297266 1_555
F22 Ho6 2.314815 1_555
F22 Ho2 2.314815 1_555
F22 K3 2.625945 1_555
F23 Ho7 2.210136 1_555
F23 Ho2 2.236244 1_545
F23 K1 2.782538 1_555
F23 K2 3.113335 1_545
F24 Ho1 2.190089 1_555
F24 Ho2 2.280875 1_555
F24 K0 2.632543 1_554
F24 K1 2.650666 1_565
F25 Ho3 2.268456 1_565
F25 Ho1 2.268456 1_655
F25 K2 2.678082 1_555
F25 K0 2.688180 1_554
F26 Ho5 2.184012 1_455
F26 Ho2 2.212515 1_555
F27 Ho5 2.289255 1_555
F27 Ho1 2.402380 1_556
F27 Ho3 2.402380 1_556
F27 K0 2.764607 1_555
