# generated using pymatgen
data_Sr2Ti6BCl17
_symmetry_space_group_name_H-M   'P 1'
_cell_length_a   9.22160148
_cell_length_b   9.22160211
_cell_length_c   9.22160289
_cell_angle_alpha   105.16223144
_cell_angle_beta   105.16222938
_cell_angle_gamma   118.48274793
_symmetry_Int_Tables_number   1
_chemical_formula_structural   Sr2Ti6BCl17
_chemical_formula_sum   'Sr2 Ti6 B1 Cl17'
_cell_volume   592.30893795
_cell_formula_units_Z   1
loop_
 _symmetry_equiv_pos_site_id
 _symmetry_equiv_pos_as_xyz
  1  'x, y, z'
loop_
 _atom_site_type_symbol
 _atom_site_label
 _atom_site_symmetry_multiplicity
 _atom_site_fract_x
 _atom_site_fract_y
 _atom_site_fract_z
 _atom_site_occupancy
  Sr  Sr0  1  0.25000000  0.75000000  0.50000000  1
  Sr  Sr1  1  0.75000000  0.25000000  0.50000000  1
  Ti  Ti0  1  0.23037701  0.23037701  0.00000000  1
  Ti  Ti1  1  0.76962299  0.76962299  1.00000000  1
  Ti  Ti2  1  0.18168597  0.06014035  0.24182732  1
  Ti  Ti3  1  0.93985965  0.18168597  0.12154562  1
  Ti  Ti4  1  0.81831403  0.93985965  0.75817268  1
  Ti  Ti5  1  0.06014035  0.81831403  0.87845438  1
  B  B0  1  0.00000000  0.00000000  0.00000000  1
  Cl  Cl0  1  0.86475199  0.72966387  0.59441586  1
  Cl  Cl1  1  0.27033613  0.86475199  0.13508812  1
  Cl  Cl2  1  0.12711221  0.59653831  0.72365052  1
  Cl  Cl3  1  0.54347933  0.67837568  0.72691248  1
  Cl  Cl4  1  0.87288779  0.40346169  0.27634948  1
  Cl  Cl5  1  0.45652067  0.32162432  0.27308752  1
  Cl  Cl6  1  0.81656684  0.54347933  0.86510464  1
  Cl  Cl7  1  0.40346169  0.12711221  0.53057390  1
  Cl  Cl8  1  0.59653831  0.87288779  0.46942610  1
  Cl  Cl9  1  0.13524801  0.27033613  0.40558414  1
  Cl  Cl10  1  0.32162432  0.04853880  0.86510464  1
  Cl  Cl11  1  0.95146120  0.81656684  0.27308752  1
  Cl  Cl12  1  0.72966387  0.13524801  0.86491188  1
  Cl  Cl13  1  0.50000000  0.50000000  0.00000000  1
  Cl  Cl14  1  0.18343316  0.45652067  0.13489536  1
  Cl  Cl15  1  0.04853880  0.18343316  0.72691248  1
  Cl  Cl16  1  0.67837568  0.95146120  0.13489536  1
loop_
_geom_bond_atom_site_label_1
_geom_bond_atom_site_label_2
_geom_bond_distance
_geom_bond_site_symmetry_2
B0 Ti3 2.144765 1_455
B0 Ti5 2.144765 1_544
B0 Ti2 2.144772 1_555
B0 Ti4 2.144772 1_444
B0 Ti0 2.172978 1_555
B0 Ti1 2.172978 1_444
Cl0 Ti5 2.404514 1_655
Cl0 Ti4 2.412417 1_555
Cl1 Ti2 2.404517 1_565
Cl1 Ti5 2.412422 1_554
Cl2 Ti5 2.596245 1_555
Cl2 Sr1 2.959765 1_455
Cl2 Sr0 2.959765 1_555
Cl3 Ti4 2.397106 1_555
Cl3 Ti1 2.422702 1_555
Cl3 Sr0 3.406559 1_555
Cl4 Ti3 2.596245 1_555
Cl4 Sr0 2.959765 1_655
Cl4 Sr1 2.959765 1_555
Cl5 Ti2 2.397106 1_555
Cl5 Ti0 2.422702 1_555
Cl5 Sr1 3.406559 1_555
Cl6 Ti5 2.397106 1_655
Cl6 Ti1 2.422698 1_555
Cl6 Sr1 3.406566 1_555
Cl7 Ti2 2.596238 1_555
Cl7 Sr1 2.959765 1_555
Cl7 Sr0 2.959765 1_545
Cl8 Ti4 2.596238 1_555
Cl8 Sr0 2.959765 1_555
Cl8 Sr1 2.959765 1_565
Cl9 Ti3 2.404514 1_455
Cl9 Ti2 2.412417 1_555
Cl10 Ti5 2.397105 1_545
Cl10 Ti0 2.422684 1_556
Cl10 Sr0 3.406574 1_545
Cl11 Ti2 2.397105 1_665
Cl11 Ti1 2.422696 1_554
Cl11 Sr0 3.406572 1_655
Cl12 Ti4 2.404517 1_545
Cl12 Ti3 2.412422 1_556
Cl13 Ti1 2.543156 1_554
Cl13 Ti0 2.543156 1_555
Cl14 Ti3 2.397106 1_455
Cl14 Ti0 2.422698 1_555
Cl14 Sr0 3.406566 1_555
Cl15 Ti4 2.397105 1_445
Cl15 Ti0 2.422696 1_556
Cl15 Sr1 3.406572 1_455
Cl16 Ti3 2.397105 1_565
Cl16 Ti1 2.422684 1_554
Cl16 Sr1 3.406574 1_565
