# generated using pymatgen
data_Mg2SnB2Ir5
_symmetry_space_group_name_H-M   'P 1'
_cell_length_a   9.62943118
_cell_length_b   9.62943118
_cell_length_c   2.97121162
_cell_angle_alpha   90.00000000
_cell_angle_beta   90.00000000
_cell_angle_gamma   90.00000000
_symmetry_Int_Tables_number   1
_chemical_formula_structural   Mg2SnB2Ir5
_chemical_formula_sum   'Mg4 Sn2 B4 Ir10'
_cell_volume   275.50840486
_cell_formula_units_Z   2
loop_
 _symmetry_equiv_pos_site_id
 _symmetry_equiv_pos_as_xyz
  1  'x, y, z'
loop_
 _atom_site_type_symbol
 _atom_site_label
 _atom_site_symmetry_multiplicity
 _atom_site_fract_x
 _atom_site_fract_y
 _atom_site_fract_z
 _atom_site_occupancy
  Mg  Mg0  1  0.82325783  0.32325783  0.00000000  1
  Mg  Mg1  1  0.17674217  0.67674217  0.00000000  1
  Mg  Mg2  1  0.32325783  0.17674217  0.00000000  1
  Mg  Mg3  1  0.67674217  0.82325783  0.00000000  1
  Sn  Sn0  1  0.50000000  0.50000000  0.00000000  1
  Sn  Sn1  1  0.00000000  0.00000000  0.00000000  1
  B  B0  1  0.62182657  0.12182657  0.00000000  1
  B  B1  1  0.37817343  0.87817343  0.00000000  1
  B  B2  1  0.12182657  0.37817343  0.00000000  1
  B  B3  1  0.87817343  0.62182657  0.00000000  1
  Ir  Ir0  1  0.50000000  0.00000000  0.50000000  1
  Ir  Ir1  1  0.00000000  0.50000000  0.50000000  1
  Ir  Ir2  1  0.72218620  0.57197910  0.50000000  1
  Ir  Ir3  1  0.27781380  0.42802090  0.50000000  1
  Ir  Ir4  1  0.22218620  0.92802090  0.50000000  1
  Ir  Ir5  1  0.77781380  0.07197910  0.50000000  1
  Ir  Ir6  1  0.42802090  0.72218620  0.50000000  1
  Ir  Ir7  1  0.57197910  0.27781380  0.50000000  1
  Ir  Ir8  1  0.07197910  0.22218620  0.50000000  1
  Ir  Ir9  1  0.92802090  0.77781380  0.50000000  1
loop_
_geom_bond_atom_site_label_1
_geom_bond_atom_site_label_2
_geom_bond_distance
_geom_bond_site_symmetry_2
B0 Ir5 2.166480 1_555
B0 Ir5 2.166480 1_554
B0 Ir7 2.166480 1_555
B0 Ir7 2.166480 1_554
B0 Ir0 2.226982 1_555
B0 Ir0 2.226982 1_554
B0 Mg0 2.743106 1_555
B0 Mg3 2.923274 1_545
B0 Mg2 2.923274 1_555
B1 Ir6 2.166480 1_554
B1 Ir4 2.166480 1_555
B1 Ir4 2.166480 1_554
B1 Ir6 2.166480 1_555
B1 Ir0 2.226982 1_564
B1 Ir0 2.226982 1_565
B1 Mg1 2.743106 1_555
B1 Mg2 2.923274 1_565
B1 Mg3 2.923274 1_555
B2 Ir3 2.166480 1_554
B2 Ir3 2.166480 1_555
B2 Ir8 2.166480 1_555
B2 Ir8 2.166480 1_554
B2 Ir1 2.226982 1_555
B2 Ir1 2.226982 1_554
B2 Mg2 2.743106 1_555
B2 Mg0 2.923274 1_455
B2 Mg1 2.923274 1_555
B3 Ir9 2.166480 1_554
B3 Ir9 2.166480 1_555
B3 Ir2 2.166480 1_555
B3 Ir2 2.166480 1_554
B3 Ir1 2.226982 1_654
B3 Ir1 2.226982 1_655
B3 Mg3 2.743106 1_555
B3 Mg1 2.923274 1_655
B3 Mg0 2.923274 1_555
Ir0 Mg2 2.828451 1_555
Ir0 Mg2 2.828451 1_556
Ir0 Mg3 2.828451 1_545
Ir0 Mg3 2.828451 1_546
Ir1 Mg1 2.828451 1_556
Ir1 Mg1 2.828451 1_555
Ir1 Mg0 2.828451 1_455
Ir1 Mg0 2.828451 1_456
Ir2 Sn0 2.695369 1_555
Ir2 Sn0 2.695369 1_556
Ir2 Mg3 2.872860 1_556
Ir2 Mg3 2.872860 1_555
Ir2 Mg0 2.981694 1_555
Ir2 Mg0 2.981694 1_556
Ir3 Sn0 2.695369 1_555
Ir3 Sn0 2.695369 1_556
Ir3 Mg2 2.872860 1_556
Ir3 Mg2 2.872860 1_555
Ir3 Mg1 2.981694 1_556
Ir3 Mg1 2.981694 1_555
Ir4 Sn1 2.695369 1_566
Ir4 Sn1 2.695369 1_565
Ir4 Mg1 2.872860 1_556
Ir4 Mg1 2.872860 1_555
Ir4 Mg2 2.981694 1_566
Ir4 Mg2 2.981694 1_565
Ir5 Sn1 2.695369 1_655
Ir5 Sn1 2.695369 1_656
Ir5 Mg0 2.872860 1_555
Ir5 Mg0 2.872860 1_556
Ir5 Mg3 2.981694 1_545
Ir5 Mg3 2.981694 1_546
Ir6 Sn0 2.695369 1_555
Ir6 Sn0 2.695369 1_556
Ir6 Mg1 2.872860 1_556
Ir6 Mg1 2.872860 1_555
Ir6 Mg3 2.981694 1_556
Ir6 Mg3 2.981694 1_555
Ir7 Sn0 2.695369 1_555
Ir7 Sn0 2.695369 1_556
Ir7 Mg0 2.872860 1_555
Ir7 Mg0 2.872860 1_556
Ir7 Mg2 2.981694 1_555
Ir7 Mg2 2.981694 1_556
Ir8 Sn1 2.695369 1_556
Ir8 Sn1 2.695369 1_555
Ir8 Mg2 2.872860 1_556
Ir8 Mg2 2.872860 1_555
Ir8 Mg0 2.981694 1_455
Ir8 Mg0 2.981694 1_456
Ir9 Sn1 2.695369 1_665
Ir9 Sn1 2.695369 1_666
Ir9 Mg3 2.872860 1_556
Ir9 Mg3 2.872860 1_555
Ir9 Mg1 2.981694 1_656
Ir9 Mg1 2.981694 1_655
