# generated using pymatgen
data_KRbNiP2
_symmetry_space_group_name_H-M   'P 1'
_cell_length_a   7.42589739
_cell_length_b   7.42589733
_cell_length_c   5.69077512
_cell_angle_alpha   90.00000000
_cell_angle_beta   90.00000000
_cell_angle_gamma   126.66454025
_symmetry_Int_Tables_number   1
_chemical_formula_structural   KRbNiP2
_chemical_formula_sum   'K2 Rb2 Ni2 P4'
_cell_volume   251.72269951
_cell_formula_units_Z   2
loop_
 _symmetry_equiv_pos_site_id
 _symmetry_equiv_pos_as_xyz
  1  'x, y, z'
loop_
 _atom_site_type_symbol
 _atom_site_label
 _atom_site_symmetry_multiplicity
 _atom_site_fract_x
 _atom_site_fract_y
 _atom_site_fract_z
 _atom_site_occupancy
  K  K0  1  0.78785231  0.21214769  0.25000000  1
  K  K1  1  0.21214769  0.78785231  0.75000000  1
  Rb  Rb0  1  0.40525071  0.59474929  0.25000000  1
  Rb  Rb1  1  0.59474929  0.40525071  0.75000000  1
  Ni  Ni0  1  0.00000000  0.00000000  0.00000000  1
  Ni  Ni1  1  0.00000000  0.00000000  0.50000000  1
  P  P0  1  0.93835533  0.73655594  0.25000000  1
  P  P1  1  0.06164467  0.26344406  0.75000000  1
  P  P2  1  0.26344406  0.06164467  0.25000000  1
  P  P3  1  0.73655594  0.93835533  0.75000000  1
loop_
_geom_bond_atom_site_label_1
_geom_bond_atom_site_label_2
_geom_bond_distance
_geom_bond_site_symmetry_2
K0 Ni0 3.154633 1_655
K0 Ni1 3.154633 1_655
K0 P0 3.349058 1_555
K0 P2 3.349058 1_555
K0 P3 3.383804 1_544
K0 P3 3.383804 1_545
K0 P1 3.383804 1_655
K0 P1 3.383804 1_654
K1 Ni0 3.154633 1_566
K1 Ni1 3.154633 1_565
K1 P1 3.349058 1_555
K1 P3 3.349058 1_555
K1 P2 3.383804 1_565
K1 P2 3.383804 1_566
K1 P0 3.383804 1_455
K1 P0 3.383804 1_456
Ni0 P1 2.234111 1_554
Ni0 P0 2.234111 1_445
Ni0 P2 2.234111 1_555
Ni0 P3 2.234111 1_444
Ni1 P1 2.234111 1_555
Ni1 P0 2.234111 1_445
Ni1 P2 2.234111 1_555
Ni1 P3 2.234111 1_445
P0 P2 2.166950 1_665
P0 Rb0 3.435442 1_555
P0 Rb1 3.628033 1_554
P0 Rb1 3.628033 1_555
P1 P3 2.166950 1_445
P1 Rb1 3.435442 1_555
P1 Rb0 3.628033 1_556
P1 Rb0 3.628033 1_555
P2 Rb0 3.435442 1_555
P2 Rb1 3.628033 1_554
P2 Rb1 3.628033 1_555
P3 Rb1 3.435442 1_555
P3 Rb0 3.628033 1_555
P3 Rb0 3.628033 1_556
