# generated using pymatgen
data_NaP12(RuRh)2
_symmetry_space_group_name_H-M   'P 1'
_cell_length_a   6.95881042
_cell_length_b   6.97768368
_cell_length_c   6.95881213
_cell_angle_alpha   109.47986978
_cell_angle_beta   109.33658634
_cell_angle_gamma   109.48731846
_symmetry_Int_Tables_number   1
_chemical_formula_structural   NaP12(RuRh)2
_chemical_formula_sum   'Na1 P12 Ru2 Rh2'
_cell_volume   260.46319517
_cell_formula_units_Z   1
loop_
 _symmetry_equiv_pos_site_id
 _symmetry_equiv_pos_as_xyz
  1  'x, y, z'
loop_
 _atom_site_type_symbol
 _atom_site_label
 _atom_site_symmetry_multiplicity
 _atom_site_fract_x
 _atom_site_fract_y
 _atom_site_fract_z
 _atom_site_occupancy
  Na  Na0  1  0.00000000  0.00000000  0.00000000  1
  P  P0  1  0.35668885  0.21527615  0.85858731  1
  P  P1  1  0.64331115  0.78472385  0.14141269  1
  P  P2  1  0.64078099  0.50084136  0.86006037  1
  P  P3  1  0.35921901  0.49915864  0.13993963  1
  P  P4  1  0.21749505  0.86128024  0.35990505  1
  P  P5  1  0.78250495  0.13871976  0.64009495  1
  P  P6  1  0.50137519  0.86128024  0.64378419  1
  P  P7  1  0.49862481  0.13871976  0.35621581  1
  P  P8  1  0.85709799  0.35576538  0.21745643  1
  P  P9  1  0.14290201  0.64423462  0.78254357  1
  P  P10  1  0.86169105  0.64423462  0.50133261  1
  P  P11  1  0.13830895  0.35576538  0.49866739  1
  Ru  Ru0  1  0.00000000  0.00000000  0.50000000  1
  Ru  Ru1  1  0.50000000  0.00000000  0.00000000  1
  Rh  Rh0  1  0.00000000  0.50000000  0.00000000  1
  Rh  Rh1  1  0.50000000  0.50000000  0.50000000  1
loop_
_geom_bond_atom_site_label_1
_geom_bond_atom_site_label_2
_geom_bond_distance
_geom_bond_site_symmetry_2
Na0 P1 3.082459 1_445
Na0 P0 3.082459 1_554
Na0 P8 3.095052 1_455
Na0 P9 3.095052 1_544
Na0 P11 3.095053 1_555
Na0 P10 3.095053 1_444
Na0 P4 3.095837 1_545
Na0 P5 3.095837 1_454
Na0 P7 3.095839 1_555
Na0 P6 3.095839 1_444
Na0 P3 3.105629 1_555
Na0 P2 3.105629 1_444
P0 P3 2.263765 1_556
P0 P2 2.285502 1_555
P0 Ru1 2.356861 1_556
P0 Ru0 2.356861 1_555
P1 P2 2.263765 1_554
P1 P3 2.285502 1_555
P1 Ru1 2.356861 1_565
P1 Ru0 2.356861 1_665
P2 Rh0 2.366131 1_656
P2 Rh1 2.366131 1_555
P3 Rh0 2.366131 1_555
P3 Rh1 2.366131 1_555
P4 P7 2.261662 1_565
P4 P6 2.284859 1_555
P4 Ru0 2.345898 1_565
P4 Rh0 2.377279 1_555
P5 P6 2.261662 1_545
P5 P7 2.284859 1_555
P5 Ru0 2.345898 1_655
P5 Rh0 2.377279 1_656
P6 Ru1 2.345905 1_566
P6 Rh1 2.377278 1_555
P7 Ru1 2.345905 1_555
P7 Rh1 2.377278 1_555
P8 Ru1 2.348616 1_555
P8 Rh0 2.374068 1_655
P9 Ru1 2.348616 1_566
P9 Rh0 2.374068 1_556
P10 P9 2.263380 1_655
P10 P8 2.284345 1_555
P10 Ru0 2.348616 1_665
P10 Rh1 2.374068 1_555
P11 P8 2.263380 1_455
P11 P9 2.284345 1_555
P11 Ru0 2.348616 1_555
P11 Rh1 2.374068 1_555
