# generated using pymatgen
data_Ca3LuSb6Rh7
_symmetry_space_group_name_H-M   'P 1'
_cell_length_a   7.61211101
_cell_length_b   7.53847712
_cell_length_c   7.53847658
_cell_angle_alpha   109.27250810
_cell_angle_beta   109.66922229
_cell_angle_gamma   109.66921046
_symmetry_Int_Tables_number   1
_chemical_formula_structural   Ca3LuSb6Rh7
_chemical_formula_sum   'Ca3 Lu1 Sb6 Rh7'
_cell_volume   332.18754476
_cell_formula_units_Z   1
loop_
 _symmetry_equiv_pos_site_id
 _symmetry_equiv_pos_as_xyz
  1  'x, y, z'
loop_
 _atom_site_type_symbol
 _atom_site_label
 _atom_site_symmetry_multiplicity
 _atom_site_fract_x
 _atom_site_fract_y
 _atom_site_fract_z
 _atom_site_occupancy
  Ca  Ca0  1  0.00000000  0.50000000  0.00000000  1
  Ca  Ca1  1  0.00000000  0.00000000  0.50000000  1
  Ca  Ca2  1  0.50000000  0.50000000  0.50000000  1
  Lu  Lu0  1  0.50000000  0.00000000  0.00000000  1
  Sb  Sb0  1  0.31792863  0.00000000  0.31987397  1
  Sb  Sb1  1  0.99805467  0.68012603  0.68012603  1
  Sb  Sb2  1  0.68207137  0.68012603  1.00000000  1
  Sb  Sb3  1  0.68207137  1.00000000  0.68012603  1
  Sb  Sb4  1  0.00194533  0.31987397  0.31987397  1
  Sb  Sb5  1  0.31792863  0.31987397  0.00000000  1
  Rh  Rh0  1  0.25471836  0.50943672  0.75471836  1
  Rh  Rh1  1  0.50000000  0.24528164  0.75471836  1
  Rh  Rh2  1  0.74528164  0.24528164  0.49056328  1
  Rh  Rh3  1  0.50000000  0.75471836  0.24528164  1
  Rh  Rh4  1  0.00000000  0.00000000  0.00000000  1
  Rh  Rh5  1  0.25471836  0.75471836  0.50943672  1
  Rh  Rh6  1  0.74528164  0.49056328  0.24528164  1
loop_
_geom_bond_atom_site_label_1
_geom_bond_atom_site_label_2
_geom_bond_distance
_geom_bond_site_symmetry_2
Ca0 Rh3 3.096935 1_555
Ca0 Rh1 3.096935 1_454
Ca0 Rh0 3.096936 1_554
Ca0 Rh6 3.096936 1_455
Ca0 Rh5 3.131804 1_555
Ca0 Rh2 3.131804 1_454
Ca0 Sb0 3.132040 1_565
Ca0 Sb3 3.132040 1_444
Ca0 Sb4 3.132040 1_555
Ca0 Sb1 3.132040 1_454
Ca0 Sb2 3.148484 1_454
Ca0 Sb5 3.148484 1_555
Ca1 Rh1 3.096935 1_555
Ca1 Rh3 3.096935 1_445
Ca1 Rh5 3.096936 1_545
Ca1 Rh2 3.096936 1_455
Ca1 Rh0 3.131805 1_555
Ca1 Rh6 3.131805 1_445
Ca1 Sb5 3.132039 1_556
Ca1 Sb2 3.132039 1_444
Ca1 Sb4 3.132040 1_555
Ca1 Sb1 3.132040 1_445
Ca1 Sb0 3.148485 1_555
Ca1 Sb3 3.148485 1_445
Ca2 Rh5 3.096936 1_555
Ca2 Rh2 3.096936 1_555
Ca2 Rh6 3.096936 1_555
Ca2 Rh0 3.096936 1_555
Ca2 Rh3 3.131805 1_555
Ca2 Rh1 3.131805 1_555
Ca2 Sb2 3.132040 1_555
Ca2 Sb5 3.132040 1_555
Ca2 Sb3 3.132040 1_555
Ca2 Sb0 3.132040 1_555
Ca2 Sb1 3.148484 1_555
Ca2 Sb4 3.148484 1_555
Lu0 Rh2 3.015778 1_555
Lu0 Rh5 3.015778 1_544
Lu0 Rh6 3.015779 1_555
Lu0 Rh0 3.015779 1_544
Lu0 Rh1 3.015779 1_554
Lu0 Rh3 3.015779 1_545
Lu0 Sb4 3.159951 1_655
Lu0 Sb1 3.159951 1_444
Lu0 Sb5 3.159952 1_555
Lu0 Sb2 3.159952 1_544
Lu0 Sb0 3.159952 1_555
Lu0 Sb3 3.159952 1_544
Rh0 Sb2 2.686903 1_555
Rh0 Sb1 2.686903 1_455
Rh0 Sb4 2.701997 1_555
Rh0 Sb5 2.701997 1_556
Rh1 Sb3 2.686904 1_545
Rh1 Sb5 2.686904 1_556
Rh1 Sb0 2.701997 1_555
Rh1 Sb2 2.701997 1_555
Rh2 Sb0 2.686903 1_555
Rh2 Sb4 2.686904 1_655
Rh2 Sb1 2.701997 1_555
Rh2 Sb3 2.701997 1_545
Rh3 Sb0 2.686904 1_565
Rh3 Sb2 2.686904 1_554
Rh3 Sb3 2.701997 1_555
Rh3 Sb5 2.701997 1_555
Rh4 Sb0 2.782639 1_555
Rh4 Sb3 2.782639 1_444
Rh4 Sb5 2.782640 1_555
Rh4 Sb2 2.782640 1_444
Rh4 Sb4 2.782640 1_555
Rh4 Sb1 2.782640 1_444
Rh5 Sb3 2.686903 1_555
Rh5 Sb1 2.686904 1_455
Rh5 Sb4 2.701997 1_555
Rh5 Sb0 2.701997 1_565
Rh6 Sb5 2.686903 1_555
Rh6 Sb4 2.686903 1_655
Rh6 Sb1 2.701997 1_555
Rh6 Sb2 2.701997 1_554
