# generated using pymatgen
data_Mg13Au41
_symmetry_space_group_name_H-M   'P 1'
_cell_length_a   15.23408645
_cell_length_b   15.23408645
_cell_length_c   9.62161000
_cell_angle_alpha   90.00000000
_cell_angle_beta   90.00000000
_cell_angle_gamma   120.00000196
_symmetry_Int_Tables_number   1
_chemical_formula_structural   Mg13Au41
_chemical_formula_sum   'Mg26 Au82'
_cell_volume   1933.79843348
_cell_formula_units_Z   2
loop_
 _symmetry_equiv_pos_site_id
 _symmetry_equiv_pos_as_xyz
  1  'x, y, z'
loop_
 _atom_site_type_symbol
 _atom_site_label
 _atom_site_symmetry_multiplicity
 _atom_site_fract_x
 _atom_site_fract_y
 _atom_site_fract_z
 _atom_site_occupancy
  Mg  Mg0  1  0.00000000  0.00000000  0.00000000  1
  Mg  Mg1  1  0.00000000  0.00000000  0.50000000  1
  Mg  Mg2  1  0.44535400  0.00000000  0.25000000  1
  Mg  Mg3  1  0.44535400  0.44535400  0.75000000  1
  Mg  Mg4  1  0.00000000  0.55464600  0.75000000  1
  Mg  Mg5  1  0.00000000  0.44535400  0.25000000  1
  Mg  Mg6  1  0.55464600  0.55464600  0.25000000  1
  Mg  Mg7  1  0.55464600  0.00000000  0.75000000  1
  Mg  Mg8  1  0.77586300  0.00000000  0.25000000  1
  Mg  Mg9  1  0.77586300  0.77586300  0.75000000  1
  Mg  Mg10  1  0.00000000  0.22413700  0.75000000  1
  Mg  Mg11  1  0.00000000  0.77586300  0.25000000  1
  Mg  Mg12  1  0.22413700  0.22413700  0.25000000  1
  Mg  Mg13  1  0.22413700  0.00000000  0.75000000  1
  Mg  Mg14  1  0.22315000  0.44630000  0.00000000  1
  Mg  Mg15  1  0.77685000  0.22315000  0.50000000  1
  Mg  Mg16  1  0.44630000  0.22315000  0.50000000  1
  Mg  Mg17  1  0.55370000  0.77685000  0.00000000  1
  Mg  Mg18  1  0.22315000  0.77685000  0.00000000  1
  Mg  Mg19  1  0.77685000  0.55370000  0.50000000  1
  Mg  Mg20  1  0.77685000  0.55370000  0.00000000  1
  Mg  Mg21  1  0.22315000  0.77685000  0.50000000  1
  Mg  Mg22  1  0.55370000  0.77685000  0.50000000  1
  Mg  Mg23  1  0.44630000  0.22315000  0.00000000  1
  Mg  Mg24  1  0.77685000  0.22315000  0.00000000  1
  Mg  Mg25  1  0.22315000  0.44630000  0.50000000  1
  Au  Au0  1  0.33333300  0.66666700  0.00000000  1
  Au  Au1  1  0.66666700  0.33333300  0.50000000  1
  Au  Au2  1  0.66666700  0.33333300  0.00000000  1
  Au  Au3  1  0.33333300  0.66666700  0.50000000  1
  Au  Au4  1  0.10963100  0.00000000  0.25000000  1
  Au  Au5  1  0.10963100  0.10963100  0.75000000  1
  Au  Au6  1  0.00000000  0.89037000  0.75000000  1
  Au  Au7  1  0.00000000  0.10963100  0.25000000  1
  Au  Au8  1  0.89037000  0.89037000  0.25000000  1
  Au  Au9  1  0.89037000  0.00000000  0.75000000  1
  Au  Au10  1  0.11079500  0.22159000  0.00000000  1
  Au  Au11  1  0.88920500  0.11079500  0.50000000  1
  Au  Au12  1  0.22159000  0.11079500  0.50000000  1
  Au  Au13  1  0.77841000  0.88920500  0.00000000  1
  Au  Au14  1  0.11079500  0.88920500  0.00000000  1
  Au  Au15  1  0.88920500  0.77841000  0.50000000  1
  Au  Au16  1  0.88920500  0.77841000  0.00000000  1
  Au  Au17  1  0.11079500  0.88920500  0.50000000  1
  Au  Au18  1  0.77841000  0.88920500  0.50000000  1
  Au  Au19  1  0.22159000  0.11079500  0.00000000  1
  Au  Au20  1  0.88920500  0.11079500  0.00000000  1
  Au  Au21  1  0.11079500  0.22159000  0.50000000  1
  Au  Au22  1  0.44498900  0.88997800  0.00000000  1
  Au  Au23  1  0.55501100  0.44498900  0.50000000  1
  Au  Au24  1  0.88997800  0.44498900  0.50000000  1
  Au  Au25  1  0.11002200  0.55501100  0.00000000  1
  Au  Au26  1  0.44498900  0.55501100  0.00000000  1
  Au  Au27  1  0.55501100  0.11002200  0.50000000  1
  Au  Au28  1  0.55501100  0.11002200  0.00000000  1
  Au  Au29  1  0.44498900  0.55501100  0.50000000  1
  Au  Au30  1  0.11002200  0.55501100  0.50000000  1
  Au  Au31  1  0.88997800  0.44498900  0.00000000  1
  Au  Au32  1  0.55501100  0.44498900  0.00000000  1
  Au  Au33  1  0.44498900  0.88997800  0.50000000  1
  Au  Au34  1  0.22093300  0.55147900  0.25000000  1
  Au  Au35  1  0.66945400  0.22093300  0.75000000  1
  Au  Au36  1  0.55147900  0.33054600  0.75000000  1
  Au  Au37  1  0.44852100  0.66945400  0.25000000  1
  Au  Au38  1  0.33054600  0.77906700  0.25000000  1
  Au  Au39  1  0.66945400  0.44852100  0.25000000  1
  Au  Au40  1  0.77906700  0.33054600  0.25000000  1
  Au  Au41  1  0.77906700  0.44852100  0.75000000  1
  Au  Au42  1  0.55147900  0.22093300  0.25000000  1
  Au  Au43  1  0.44852100  0.77906700  0.75000000  1
  Au  Au44  1  0.33054600  0.55147900  0.75000000  1
  Au  Au45  1  0.22093300  0.66945400  0.75000000  1
  Au  Au46  1  0.11048600  0.66635100  0.25000000  1
  Au  Au47  1  0.44413500  0.11048600  0.75000000  1
  Au  Au48  1  0.66635100  0.55586500  0.75000000  1
  Au  Au49  1  0.33364900  0.44413500  0.25000000  1
  Au  Au50  1  0.55586500  0.88951400  0.25000000  1
  Au  Au51  1  0.44413500  0.33364900  0.25000000  1
  Au  Au52  1  0.88951400  0.55586500  0.25000000  1
  Au  Au53  1  0.88951400  0.33364900  0.75000000  1
  Au  Au54  1  0.66635100  0.11048600  0.25000000  1
  Au  Au55  1  0.33364900  0.88951400  0.75000000  1
  Au  Au56  1  0.55586500  0.66635100  0.75000000  1
  Au  Au57  1  0.11048600  0.44413500  0.75000000  1
  Au  Au58  1  0.11176800  0.33279300  0.25000000  1
  Au  Au59  1  0.77897400  0.11176800  0.75000000  1
  Au  Au60  1  0.33279300  0.22102600  0.75000000  1
  Au  Au61  1  0.66720700  0.77897400  0.25000000  1
  Au  Au62  1  0.22102600  0.88823200  0.25000000  1
  Au  Au63  1  0.77897400  0.66720700  0.25000000  1
  Au  Au64  1  0.88823200  0.22102600  0.25000000  1
  Au  Au65  1  0.88823200  0.66720700  0.75000000  1
  Au  Au66  1  0.33279300  0.11176800  0.25000000  1
  Au  Au67  1  0.66720700  0.88823200  0.75000000  1
  Au  Au68  1  0.22102600  0.33279300  0.75000000  1
  Au  Au69  1  0.11176800  0.77897400  0.75000000  1
  Au  Au70  1  0.33195000  0.00000000  0.00089500  1
  Au  Au71  1  0.33195000  0.33195000  0.50089500  1
  Au  Au72  1  0.00000000  0.66805000  0.50089500  1
  Au  Au73  1  0.00000000  0.33195000  0.00089500  1
  Au  Au74  1  0.66805000  0.66805000  0.00089500  1
  Au  Au75  1  0.33195000  0.00000000  0.49910500  1
  Au  Au76  1  0.66805000  0.66805000  0.49910500  1
  Au  Au77  1  0.66805000  0.00000000  0.50089500  1
  Au  Au78  1  0.00000000  0.33195000  0.49910500  1
  Au  Au79  1  0.00000000  0.66805000  0.99910500  1
  Au  Au80  1  0.66805000  0.00000000  0.99910500  1
  Au  Au81  1  0.33195000  0.33195000  0.99910500  1
loop_
_geom_bond_atom_site_label_1
_geom_bond_atom_site_label_2
_geom_bond_distance
_geom_bond_site_symmetry_2
Au0 Mg18 2.907312 1_555
Au0 Mg14 2.907325 1_555
Au0 Mg17 2.907325 1_555
Au1 Mg15 2.907312 1_555
Au1 Mg16 2.907325 1_555
Au1 Mg19 2.907325 1_555
Au2 Mg24 2.907312 1_555
Au2 Mg23 2.907325 1_555
Au2 Mg20 2.907325 1_555
Au3 Mg21 2.907312 1_555
Au3 Mg25 2.907325 1_555
Au3 Mg22 2.907325 1_555
Au4 Mg1 2.928359 1_555
Au4 Mg0 2.928359 1_555
Au4 Mg12 2.957296 1_555
Au4 Mg11 2.957296 1_545
Au5 Mg0 2.928359 1_556
Au5 Mg1 2.928359 1_555
Au5 Mg13 2.957296 1_555
Au5 Mg10 2.957296 1_555
Au6 Mg0 2.928351 1_566
Au6 Mg1 2.928351 1_565
Au6 Mg9 2.957296 1_455
Au6 Mg13 2.957296 1_565
Au7 Mg1 2.928359 1_555
Au7 Mg0 2.928359 1_555
Au7 Mg12 2.957296 1_555
Au7 Mg8 2.957296 1_455
Au8 Mg1 2.928351 1_665
Au8 Mg0 2.928351 1_665
Au8 Mg11 2.957297 1_655
Au8 Mg8 2.957297 1_565
Au9 Mg0 2.928351 1_656
Au9 Mg1 2.928351 1_655
Au9 Mg9 2.957296 1_545
Au9 Mg10 2.957296 1_655
Au10 Mg0 2.923460 1_555
Au10 Mg12 2.949887 1_555
Au10 Mg10 2.949887 1_554
Au10 Mg14 2.964623 1_555
Au11 Mg1 2.923460 1_655
Au11 Mg8 2.949887 1_555
Au11 Mg10 2.949887 1_655
Au11 Mg15 2.964623 1_555
Au12 Mg1 2.923460 1_555
Au12 Mg12 2.949887 1_555
Au12 Mg13 2.949887 1_555
Au12 Mg16 2.964623 1_555
Au13 Mg0 2.923460 1_665
Au13 Mg9 2.949887 1_554
Au13 Mg8 2.949887 1_565
Au13 Mg17 2.964623 1_555
Au14 Mg0 2.923460 1_565
Au14 Mg11 2.949887 1_555
Au14 Mg13 2.949887 1_564
Au14 Mg18 2.964623 1_555
Au15 Mg1 2.923460 1_665
Au15 Mg9 2.949887 1_555
Au15 Mg11 2.949887 1_655
Au15 Mg19 2.964623 1_555
Au16 Mg0 2.923460 1_665
Au16 Mg9 2.949887 1_554
Au16 Mg11 2.949887 1_655
Au16 Mg20 2.964623 1_555
Au17 Mg1 2.923460 1_565
Au17 Mg11 2.949887 1_555
Au17 Mg13 2.949887 1_565
Au17 Mg21 2.964623 1_555
Au18 Mg1 2.923460 1_665
Au18 Mg9 2.949887 1_555
Au18 Mg8 2.949887 1_565
Au18 Mg22 2.964623 1_555
Au19 Mg0 2.923460 1_555
Au19 Mg12 2.949887 1_555
Au19 Mg13 2.949887 1_554
Au19 Mg23 2.964623 1_555
Au20 Mg0 2.923460 1_655
Au20 Mg8 2.949887 1_555
Au20 Mg10 2.949887 1_654
Au20 Mg24 2.964623 1_555
Au21 Mg1 2.923460 1_555
Au21 Mg12 2.949887 1_555
Au21 Mg10 2.949887 1_555
Au21 Mg25 2.964623 1_555
Au22 Mg18 2.926939 1_555
Au22 Mg17 2.926939 1_555
Au22 Mg7 2.930176 1_564
Au22 Mg2 2.930176 1_565
Au23 Mg16 2.926939 1_555
Au23 Mg19 2.926939 1_555
Au23 Mg3 2.930176 1_555
Au23 Mg6 2.930176 1_555
Au24 Mg15 2.926939 1_555
Au24 Mg19 2.926939 1_555
Au24 Mg4 2.930176 1_655
Au24 Mg5 2.930176 1_655
Au25 Mg18 2.926939 1_555
Au25 Mg14 2.926939 1_555
Au25 Mg5 2.930176 1_555
Au25 Mg4 2.930176 1_554
Au26 Mg14 2.926939 1_555
Au26 Mg17 2.926939 1_555
Au26 Mg3 2.930176 1_554
Au26 Mg6 2.930176 1_555
Au27 Mg15 2.926939 1_555
Au27 Mg16 2.926939 1_555
Au27 Mg2 2.930176 1_555
Au27 Mg7 2.930176 1_555
Au28 Mg24 2.926939 1_555
Au28 Mg23 2.926939 1_555
Au28 Mg2 2.930176 1_555
Au28 Mg7 2.930176 1_554
Au29 Mg25 2.926939 1_555
Au29 Mg22 2.926939 1_555
Au29 Mg3 2.930176 1_555
Au29 Mg6 2.930176 1_555
Au30 Mg21 2.926939 1_555
Au30 Mg25 2.926939 1_555
Au30 Mg5 2.930176 1_555
Au30 Mg4 2.930176 1_555
Au31 Mg24 2.926939 1_555
Au31 Mg20 2.926939 1_555
Au31 Mg4 2.930176 1_654
Au31 Mg5 2.930176 1_655
Au32 Mg23 2.926939 1_555
Au32 Mg20 2.926939 1_555
Au32 Mg3 2.930176 1_554
Au32 Mg6 2.930176 1_555
Au33 Mg21 2.926939 1_555
Au33 Mg22 2.926939 1_555
Au33 Mg7 2.930176 1_565
Au33 Mg2 2.930176 1_565
Au34 Mg25 2.899759 1_555
Au34 Mg14 2.899759 1_555
Au34 Mg5 2.915543 1_555
Au35 Mg24 2.899759 1_556
Au35 Mg15 2.899759 1_555
Au35 Mg7 2.915543 1_555
Au36 Mg16 2.899759 1_555
Au36 Mg23 2.899759 1_556
Au36 Mg3 2.915543 1_555
Au37 Mg17 2.899759 1_555
Au37 Mg22 2.899759 1_555
Au37 Mg6 2.915543 1_555
Au38 Mg21 2.899759 1_555
Au38 Mg18 2.899759 1_555
Au38 Mg2 2.915543 1_565
Au39 Mg19 2.899759 1_555
Au39 Mg20 2.899759 1_555
Au39 Mg6 2.915543 1_555
Au40 Mg24 2.899759 1_555
Au40 Mg15 2.899759 1_555
Au40 Mg5 2.915543 1_655
Au41 Mg20 2.899759 1_556
Au41 Mg19 2.899759 1_555
Au41 Mg4 2.915543 1_655
Au42 Mg23 2.899759 1_555
Au42 Mg16 2.899759 1_555
Au42 Mg2 2.915543 1_555
Au43 Mg17 2.899759 1_556
Au43 Mg22 2.899759 1_555
Au43 Mg7 2.915543 1_565
Au44 Mg14 2.899759 1_556
Au44 Mg25 2.899759 1_555
Au44 Mg3 2.915543 1_555
Au45 Mg18 2.899759 1_556
Au45 Mg21 2.899759 1_555
Au45 Mg4 2.915543 1_555
Au46 Mg11 2.902466 1_555
Au46 Mg5 2.915637 1_555
Au46 Mg21 2.945546 1_555
Au46 Mg18 2.945546 1_555
Au47 Mg13 2.902466 1_555
Au47 Mg7 2.915637 1_555
Au47 Mg23 2.945546 1_556
Au47 Mg16 2.945546 1_555
Au48 Mg9 2.902466 1_555
Au48 Mg3 2.915637 1_555
Au48 Mg19 2.945546 1_555
Au48 Mg20 2.945546 1_556
Au49 Mg12 2.902466 1_555
Au49 Mg6 2.915637 1_555
Au49 Mg25 2.945546 1_555
Au49 Mg14 2.945546 1_555
Au50 Mg8 2.902466 1_565
Au50 Mg2 2.915637 1_565
Au50 Mg22 2.945546 1_555
Au50 Mg17 2.945546 1_555
Au51 Mg12 2.902466 1_555
Au51 Mg6 2.915637 1_555
Au51 Mg16 2.945546 1_555
Au51 Mg23 2.945546 1_555
Au52 Mg11 2.902466 1_655
Au52 Mg5 2.915637 1_655
Au52 Mg19 2.945546 1_555
Au52 Mg20 2.945546 1_555
Au53 Mg10 2.902466 1_655
Au53 Mg4 2.915637 1_655
Au53 Mg24 2.945546 1_556
Au53 Mg15 2.945546 1_555
Au54 Mg8 2.902466 1_555
Au54 Mg2 2.915637 1_555
Au54 Mg15 2.945546 1_555
Au54 Mg24 2.945546 1_555
Au55 Mg13 2.902466 1_565
Au55 Mg7 2.915637 1_565
Au55 Mg18 2.945546 1_556
Au55 Mg21 2.945546 1_555
Au56 Mg9 2.902466 1_555
Au56 Mg3 2.915637 1_555
Au56 Mg22 2.945546 1_555
Au56 Mg17 2.945546 1_556
Au57 Mg10 2.902466 1_555
Au57 Mg4 2.915637 1_555
Au57 Mg25 2.945546 1_555
Au57 Mg14 2.945546 1_556
Au58 Mg12 2.916143 1_555
Au58 Mg14 2.953147 1_555
Au58 Mg25 2.953147 1_555
Au58 Mg5 2.959602 1_555
Au59 Mg10 2.916156 1_655
Au59 Mg24 2.953143 1_556
Au59 Mg15 2.953143 1_555
Au59 Mg7 2.959589 1_555
Au60 Mg13 2.916157 1_555
Au60 Mg23 2.953152 1_556
Au60 Mg16 2.953152 1_555
Au60 Mg3 2.959589 1_555
Au61 Mg8 2.916157 1_565
Au61 Mg22 2.953152 1_555
Au61 Mg17 2.953152 1_555
Au61 Mg6 2.959589 1_555
Au62 Mg11 2.916156 1_555
Au62 Mg18 2.953143 1_555
Au62 Mg21 2.953143 1_555
Au62 Mg2 2.959589 1_565
Au63 Mg11 2.916157 1_655
Au63 Mg19 2.953152 1_555
Au63 Mg20 2.953152 1_555
Au63 Mg6 2.959589 1_555
Au64 Mg8 2.916156 1_555
Au64 Mg24 2.953143 1_555
Au64 Mg15 2.953143 1_555
Au64 Mg5 2.959589 1_655
Au65 Mg9 2.916143 1_555
Au65 Mg19 2.953147 1_555
Au65 Mg20 2.953147 1_556
Au65 Mg4 2.959602 1_655
Au66 Mg12 2.916143 1_555
Au66 Mg16 2.953147 1_555
Au66 Mg23 2.953147 1_555
Au66 Mg2 2.959602 1_555
Au67 Mg9 2.916143 1_555
Au67 Mg17 2.953147 1_556
Au67 Mg22 2.953147 1_555
Au67 Mg7 2.959602 1_565
Au68 Mg10 2.916157 1_555
Au68 Mg25 2.953152 1_555
Au68 Mg14 2.953152 1_556
Au68 Mg3 2.959589 1_555
Au69 Mg13 2.916156 1_565
Au69 Mg21 2.953143 1_555
Au69 Mg18 2.953143 1_556
Au69 Mg4 2.959589 1_555
Au70 Mg13 2.919768 1_554
Au70 Mg23 2.944358 1_555
Au70 Mg18 2.944358 1_545
Au70 Mg2 2.954527 1_555
Au71 Mg12 2.919768 1_555
Au71 Mg16 2.944358 1_555
Au71 Mg25 2.944358 1_555
Au71 Mg3 2.954527 1_555
Au72 Mg11 2.919768 1_555
Au72 Mg19 2.944358 1_455
Au72 Mg21 2.944358 1_555
Au72 Mg4 2.954527 1_555
Au73 Mg10 2.919768 1_554
Au73 Mg14 2.944358 1_555
Au73 Mg24 2.944358 1_455
Au73 Mg5 2.954527 1_555
Au74 Mg9 2.919768 1_554
Au74 Mg20 2.944358 1_555
Au74 Mg17 2.944358 1_555
Au74 Mg6 2.954527 1_555
Au75 Mg13 2.919768 1_555
Au75 Mg16 2.944358 1_555
Au75 Mg21 2.944358 1_545
Au75 Mg2 2.954527 1_555
Au76 Mg9 2.919768 1_555
Au76 Mg19 2.944358 1_555
Au76 Mg22 2.944358 1_555
Au76 Mg6 2.954527 1_555
Au77 Mg8 2.919768 1_555
Au77 Mg22 2.944358 1_545
Au77 Mg15 2.944358 1_555
Au77 Mg7 2.954527 1_555
Au78 Mg10 2.919768 1_555
Au78 Mg25 2.944358 1_555
Au78 Mg15 2.944358 1_455
Au78 Mg5 2.954527 1_555
Au79 Mg11 2.919768 1_556
Au79 Mg20 2.944358 1_456
Au79 Mg18 2.944358 1_556
Au79 Mg4 2.954527 1_555
Au80 Mg8 2.919768 1_556
Au80 Mg17 2.944358 1_546
Au80 Mg24 2.944358 1_556
Au80 Mg7 2.954527 1_555
Au81 Mg12 2.919768 1_556
Au81 Mg14 2.944358 1_556
Au81 Mg23 2.944358 1_556
Au81 Mg3 2.954527 1_555
