# generated using pymatgen
data_GaAs3Se5Br4
_symmetry_space_group_name_H-M   'P 1'
_cell_length_a   10.39579036
_cell_length_b   6.88836283
_cell_length_c   12.49614805
_cell_angle_alpha   73.17349356
_cell_angle_beta   90.00000000
_cell_angle_gamma   90.00000000
_symmetry_Int_Tables_number   1
_chemical_formula_structural   GaAs3Se5Br4
_chemical_formula_sum   'Ga2 As6 Se10 Br8'
_cell_volume   856.53651659
_cell_formula_units_Z   2
loop_
 _symmetry_equiv_pos_site_id
 _symmetry_equiv_pos_as_xyz
  1  'x, y, z'
loop_
 _atom_site_type_symbol
 _atom_site_label
 _atom_site_symmetry_multiplicity
 _atom_site_fract_x
 _atom_site_fract_y
 _atom_site_fract_z
 _atom_site_occupancy
  Ga  Ga0  1  0.75000000  0.51192397  0.70272182  1
  Ga  Ga1  1  0.25000000  0.48807603  0.29727818  1
  As  As0  1  0.07962803  0.02805234  0.68413264  1
  As  As1  1  0.57962803  0.97194766  0.31586736  1
  As  As2  1  0.92037197  0.97194766  0.31586736  1
  As  As3  1  0.75000000  0.02232156  0.03441731  1
  As  As4  1  0.25000000  0.97767844  0.96558269  1
  As  As5  1  0.42037197  0.02805234  0.68413264  1
  Se  Se0  1  0.43633386  0.88019604  0.88085977  1
  Se  Se1  1  0.75000000  0.70421456  0.31810644  1
  Se  Se2  1  0.75000000  0.66661151  0.14125349  1
  Se  Se3  1  0.56366614  0.11980396  0.11914023  1
  Se  Se4  1  0.25000000  0.29578544  0.68189356  1
  Se  Se5  1  0.25000000  0.84836371  0.62314667  1
  Se  Se6  1  0.25000000  0.33338849  0.85874651  1
  Se  Se7  1  0.75000000  0.15163629  0.37685333  1
  Se  Se8  1  0.06366614  0.88019604  0.88085977  1
  Se  Se9  1  0.93633386  0.11980396  0.11914023  1
  Br  Br0  1  0.25000000  0.44007152  0.11999964  1
  Br  Br1  1  0.75000000  0.17025939  0.71046814  1
  Br  Br2  1  0.75000000  0.55992848  0.88000036  1
  Br  Br3  1  0.25000000  0.82974061  0.28953186  1
  Br  Br4  1  0.93578721  0.65845828  0.60399520  1
  Br  Br5  1  0.56421279  0.65845828  0.60399520  1
  Br  Br6  1  0.06421279  0.34154172  0.39600480  1
  Br  Br7  1  0.43578721  0.34154172  0.39600480  1
loop_
_geom_bond_atom_site_label_1
_geom_bond_atom_site_label_2
_geom_bond_distance
_geom_bond_site_symmetry_2
As0 Se8 2.378799 1_545
As0 Se5 2.407472 1_545
As0 Se4 2.551297 1_555
As1 Se3 2.378799 1_565
As1 Se7 2.407472 1_565
As1 Se1 2.551297 1_555
As2 Se9 2.378799 1_565
As2 Se7 2.407472 1_565
As2 Se1 2.551297 1_555
As3 Se9 2.394925 1_555
As3 Se3 2.394925 1_555
As3 Se2 2.427396 1_545
As4 Se0 2.394925 1_555
As4 Se8 2.394925 1_555
As4 Se6 2.427396 1_565
As5 Se0 2.378799 1_545
As5 Se5 2.407472 1_545
As5 Se4 2.551297 1_555
Se1 Se2 2.298373 1_555
Se4 Se6 2.298373 1_555
Br0 Ga1 2.332594 1_555
Br1 Ga0 2.327334 1_555
Br2 Ga0 2.332594 1_555
Br3 Ga1 2.327334 1_555
Br4 Ga0 2.355896 1_555
Br5 Ga0 2.355896 1_555
Br6 Ga1 2.355896 1_555
Br7 Ga1 2.355896 1_555
