# generated using pymatgen
data_Cs4CrWBr12
_symmetry_space_group_name_H-M   'P 1'
_cell_length_a   7.72435738
_cell_length_b   7.72435738
_cell_length_c   10.52840462
_cell_angle_alpha   90.00000000
_cell_angle_beta   90.00000000
_cell_angle_gamma   90.00000000
_symmetry_Int_Tables_number   1
_chemical_formula_structural   Cs4CrWBr12
_chemical_formula_sum   'Cs4 Cr1 W1 Br12'
_cell_volume   628.18459911
_cell_formula_units_Z   1
loop_
 _symmetry_equiv_pos_site_id
 _symmetry_equiv_pos_as_xyz
  1  'x, y, z'
loop_
 _atom_site_type_symbol
 _atom_site_label
 _atom_site_symmetry_multiplicity
 _atom_site_fract_x
 _atom_site_fract_y
 _atom_site_fract_z
 _atom_site_occupancy
  Cs  Cs0  1  0.50000000  0.00000000  0.76742627  1
  Cs  Cs1  1  0.00000000  0.50000000  0.23257373  1
  Cs  Cs2  1  0.50000000  0.00000000  0.23257373  1
  Cs  Cs3  1  0.00000000  0.50000000  0.76742627  1
  Cr  Cr0  1  0.00000000  0.00000000  0.00000000  1
  W  W0  1  0.50000000  0.50000000  0.50000000  1
  Br  Br0  1  0.00000000  0.00000000  0.75918166  1
  Br  Br1  1  0.50000000  0.50000000  0.26407631  1
  Br  Br2  1  0.73033717  0.73033717  0.50000000  1
  Br  Br3  1  0.23274132  0.23274132  0.00000000  1
  Br  Br4  1  0.73033717  0.26966283  0.50000000  1
  Br  Br5  1  0.23274132  0.76725868  0.00000000  1
  Br  Br6  1  0.00000000  0.00000000  0.24081834  1
  Br  Br7  1  0.50000000  0.50000000  0.73592369  1
  Br  Br8  1  0.26966283  0.26966283  0.50000000  1
  Br  Br9  1  0.76725868  0.76725868  0.00000000  1
  Br  Br10  1  0.26966283  0.73033717  0.50000000  1
  Br  Br11  1  0.76725868  0.23274132  0.00000000  1
loop_
_geom_bond_atom_site_label_1
_geom_bond_atom_site_label_2
_geom_bond_distance
_geom_bond_site_symmetry_2
Br0 Cr0 2.535433 1_556
Br0 Cs3 3.863154 1_555
Br0 Cs0 3.863154 1_555
Br0 Cs0 3.863154 1_455
Br0 Cs3 3.863154 1_545
Br1 W0 2.483900 1_555
Br1 Cs1 3.876394 1_655
Br1 Cs2 3.876394 1_555
Br1 Cs1 3.876394 1_555
Br1 Cs2 3.876394 1_565
Br2 W0 2.516178 1_555
Br2 Cs3 3.928332 1_655
Br2 Cs0 3.928332 1_565
Br2 Cs1 3.928332 1_655
Br2 Cs2 3.928332 1_565
Br3 Cr0 2.542441 1_555
Br3 Cs1 3.672812 1_555
Br3 Cs2 3.672812 1_555
Br3 Cs3 3.672812 1_554
Br3 Cs0 3.672812 1_554
Br4 W0 2.516178 1_555
Br4 Cs0 3.928332 1_555
Br4 Cs3 3.928332 1_655
Br4 Cs2 3.928332 1_555
Br4 Cs1 3.928332 1_655
Br5 Cr0 2.542441 1_565
Br5 Cs1 3.672812 1_555
Br5 Cs3 3.672812 1_554
Br5 Cs2 3.672812 1_565
Br5 Cs0 3.672812 1_564
Br6 Cr0 2.535433 1_555
Br6 Cs2 3.863154 1_555
Br6 Cs1 3.863154 1_555
Br6 Cs2 3.863154 1_455
Br6 Cs1 3.863154 1_545
Br7 W0 2.483900 1_555
Br7 Cs0 3.876394 1_565
Br7 Cs3 3.876394 1_555
Br7 Cs0 3.876394 1_555
Br7 Cs3 3.876394 1_655
Br8 W0 2.516178 1_555
Br8 Cs3 3.928332 1_555
Br8 Cs0 3.928332 1_555
Br8 Cs2 3.928332 1_555
Br8 Cs1 3.928332 1_555
Br9 Cr0 2.542441 1_665
Br9 Cs2 3.672812 1_565
Br9 Cs1 3.672812 1_655
Br9 Cs0 3.672812 1_564
Br9 Cs3 3.672812 1_654
Br10 W0 2.516178 1_555
Br10 Cs3 3.928332 1_555
Br10 Cs0 3.928332 1_565
Br10 Cs1 3.928332 1_555
Br10 Cs2 3.928332 1_565
Br11 Cr0 2.542441 1_655
Br11 Cs2 3.672812 1_555
Br11 Cs0 3.672812 1_554
Br11 Cs1 3.672812 1_655
Br11 Cs3 3.672812 1_654
