# generated using pymatgen
data_BaAs12Os3Pd
_symmetry_space_group_name_H-M   'P 1'
_cell_length_a   7.48131326
_cell_length_b   7.48131237
_cell_length_c   7.48131299
_cell_angle_alpha   109.50342915
_cell_angle_beta   109.50342316
_cell_angle_gamma   109.50343524
_symmetry_Int_Tables_number   1
_chemical_formula_structural   BaAs12Os3Pd
_chemical_formula_sum   'Ba1 As12 Os3 Pd1'
_cell_volume   321.95308224
_cell_formula_units_Z   1
loop_
 _symmetry_equiv_pos_site_id
 _symmetry_equiv_pos_as_xyz
  1  'x, y, z'
loop_
 _atom_site_type_symbol
 _atom_site_label
 _atom_site_symmetry_multiplicity
 _atom_site_fract_x
 _atom_site_fract_y
 _atom_site_fract_z
 _atom_site_occupancy
  Ba  Ba0  1  0.00000000  0.00000000  0.00000000  1
  As  As0  1  0.85799203  0.65104604  0.49863160  1
  As  As1  1  0.14200797  0.34895396  0.50136840  1
  As  As2  1  0.15091973  0.65133288  0.80180139  1
  As  As3  1  0.84908027  0.34866712  0.19819861  1
  As  As4  1  0.65104604  0.49863160  0.85799203  1
  As  As5  1  0.34895396  0.50136840  0.14200797  1
  As  As6  1  0.65133288  0.80180139  0.15091973  1
  As  As7  1  0.34866712  0.19819861  0.84908027  1
  As  As8  1  0.49863160  0.85799203  0.65104604  1
  As  As9  1  0.50136840  0.14200797  0.34895396  1
  As  As10  1  0.19819861  0.84908027  0.34866712  1
  As  As11  1  0.80180139  0.15091973  0.65133288  1
  Os  Os0  1  0.50000000  0.00000000  0.00000000  1
  Os  Os1  1  0.00000000  0.50000000  0.00000000  1
  Os  Os2  1  0.00000000  0.00000000  0.50000000  1
  Pd  Pd0  1  0.50000000  0.50000000  0.50000000  1
loop_
_geom_bond_atom_site_label_1
_geom_bond_atom_site_label_2
_geom_bond_distance
_geom_bond_site_symmetry_2
As0 Os2 2.463156 1_665
As0 Pd0 2.540718 1_555
As0 As3 2.564748 1_555
As0 As2 2.573243 1_655
As0 Ba0 3.310884 1_666
As1 Os2 2.463156 1_555
As1 Pd0 2.540718 1_555
As1 As2 2.564748 1_555
As1 As3 2.573243 1_455
As1 Ba0 3.310884 1_555
As2 Os0 2.471054 1_566
As2 Os1 2.478017 1_556
As2 Ba0 3.283215 1_566
As3 Os0 2.471054 1_555
As3 Os1 2.478017 1_655
As3 Ba0 3.283215 1_655
As4 Os1 2.463156 1_656
As4 Pd0 2.540719 1_555
As4 As7 2.564748 1_555
As4 As6 2.573243 1_556
As4 Ba0 3.310884 1_666
As5 Os1 2.463156 1_555
As5 Pd0 2.540719 1_555
As5 As6 2.564748 1_555
As5 As7 2.573243 1_554
As5 Ba0 3.310884 1_555
As6 Os2 2.471054 1_665
As6 Os0 2.478017 1_565
As6 Ba0 3.283215 1_665
As7 Os2 2.471054 1_555
As7 Os0 2.478017 1_556
As7 Ba0 3.283215 1_556
As8 Os0 2.463156 1_566
As8 Pd0 2.540718 1_555
As8 Ba0 3.310885 1_666
As9 Os0 2.463156 1_555
As9 Pd0 2.540718 1_555
As9 Ba0 3.310885 1_555
As10 Os1 2.471054 1_555
As10 Os2 2.478017 1_565
As10 As8 2.564748 1_555
As10 As9 2.573243 1_565
As10 Ba0 3.283215 1_565
As11 Os1 2.471054 1_656
As11 Os2 2.478017 1_655
As11 As9 2.564748 1_555
As11 As8 2.573243 1_545
As11 Ba0 3.283215 1_656
