# generated using pymatgen
data_Rb2AuIBr8
_symmetry_space_group_name_H-M   'P 1'
_cell_length_a   6.26107605
_cell_length_b   7.66854224
_cell_length_c   10.83686249
_cell_angle_alpha   56.83748591
_cell_angle_beta   91.07714333
_cell_angle_gamma   91.45873541
_symmetry_Int_Tables_number   1
_chemical_formula_structural   Rb2AuIBr8
_chemical_formula_sum   'Rb2 Au1 I1 Br8'
_cell_volume   435.41779572
_cell_formula_units_Z   1
loop_
 _symmetry_equiv_pos_site_id
 _symmetry_equiv_pos_as_xyz
  1  'x, y, z'
loop_
 _atom_site_type_symbol
 _atom_site_label
 _atom_site_symmetry_multiplicity
 _atom_site_fract_x
 _atom_site_fract_y
 _atom_site_fract_z
 _atom_site_occupancy
  Rb  Rb0  1  0.00000000  0.50000000  0.50000000  1
  Rb  Rb1  1  0.50000000  0.50000000  0.00000000  1
  Au  Au0  1  0.00000000  0.00000000  0.00000000  1
  I  I0  1  0.50000000  0.00000000  0.50000000  1
  Br  Br0  1  0.18815127  0.95719823  0.68487394  1
  Br  Br1  1  0.69931117  0.03549251  0.83950185  1
  Br  Br2  1  0.81184873  0.04280177  0.31512606  1
  Br  Br3  1  0.30068883  0.96450749  0.16049815  1
  Br  Br4  1  0.99128999  0.62171737  0.11607481  1
  Br  Br5  1  0.49174937  0.41607198  0.36468860  1
  Br  Br6  1  0.00871001  0.37828263  0.88392519  1
  Br  Br7  1  0.50825063  0.58392802  0.63531140  1
loop_
_geom_bond_atom_site_label_1
_geom_bond_atom_site_label_2
_geom_bond_distance
_geom_bond_site_symmetry_2
Au0 Br6 2.450055 1_554
Au0 Br4 2.450055 1_445
Au0 Br3 2.455324 1_545
Au0 Br1 2.455324 1_454
Br0 I0 2.707188 1_565
Br0 Rb0 3.710170 1_565
Br0 Rb1 3.842610 1_556
Br1 Rb1 3.667709 1_546
Br1 Rb0 3.917921 1_655
Br2 I0 2.707188 1_555
Br2 Rb0 3.710170 1_645
Br2 Rb1 3.842610 1_555
Br3 Rb1 3.667709 1_565
Br3 Rb0 3.917921 1_555
Br4 Rb1 3.592793 1_555
Br4 Rb0 3.732264 1_655
Br4 Rb1 3.766257 1_655
Br5 I0 2.687037 1_555
Br5 Rb1 3.641299 1_555
Br5 Rb0 3.653360 1_555
Br5 Rb0 3.666547 1_655
Br6 Rb1 3.592793 1_556
Br6 Rb0 3.732264 1_555
Br6 Rb1 3.766257 1_456
Br7 I0 2.687037 1_565
Br7 Rb1 3.641299 1_556
Br7 Rb0 3.653360 1_655
Br7 Rb0 3.666547 1_555
