# generated using pymatgen
data_Ca4ZnSi6Ni
_symmetry_space_group_name_H-M   'P 1'
_cell_length_a   8.21570652
_cell_length_b   8.03129260
_cell_length_c   5.93735604
_cell_angle_alpha   70.23139796
_cell_angle_beta   66.91768900
_cell_angle_gamma   42.85090597
_symmetry_Int_Tables_number   1
_chemical_formula_structural   Ca4ZnSi6Ni
_chemical_formula_sum   'Ca4 Zn1 Si6 Ni1'
_cell_volume   244.29591962
_cell_formula_units_Z   1
loop_
 _symmetry_equiv_pos_site_id
 _symmetry_equiv_pos_as_xyz
  1  'x, y, z'
loop_
 _atom_site_type_symbol
 _atom_site_label
 _atom_site_symmetry_multiplicity
 _atom_site_fract_x
 _atom_site_fract_y
 _atom_site_fract_z
 _atom_site_occupancy
  Ca  Ca0  1  0.74702424  0.74702424  0.75297576  1
  Ca  Ca1  1  0.75580925  0.25055449  0.74944551  1
  Ca  Ca2  1  0.24702424  0.24702424  0.25297576  1
  Ca  Ca3  1  0.25055449  0.75580925  0.24419075  1
  Zn  Zn0  1  0.33384586  0.33384586  0.66615414  1
  Si  Si0  1  0.82466161  0.34919353  0.17533839  1
  Si  Si1  1  0.67419349  0.16297423  0.32580651  1
  Si  Si2  1  0.16297423  0.67419349  0.83702577  1
  Si  Si3  1  0.34919353  0.82466161  0.65080647  1
  Si  Si4  1  0.16279601  0.16279601  0.83720399  1
  Si  Si5  1  0.82562344  0.82562344  0.17437656  1
  Ni  Ni0  1  0.66630061  0.66630061  0.33369939  1
loop_
_geom_bond_atom_site_label_1
_geom_bond_atom_site_label_2
_geom_bond_distance
_geom_bond_site_symmetry_2
Ca0 Si3 3.122531 1_555
Ca0 Si0 3.122531 1_556
Ca0 Si5 3.163610 1_556
Ca0 Si5 3.163610 1_555
Ca0 Ni0 3.173944 1_555
Ca0 Ni0 3.173944 1_556
Ca0 Si4 3.191516 1_565
Ca0 Si4 3.191516 1_655
Ca0 Zn0 3.204935 1_655
Ca0 Zn0 3.204935 1_565
Ca0 Si2 3.236996 1_655
Ca0 Si1 3.236996 1_565
Ca1 Si4 3.100110 1_655
Ca1 Si3 3.144068 1_555
Ca1 Si0 3.144069 1_555
Ca1 Si2 3.149440 1_645
Ca1 Si1 3.149441 1_556
Ca1 Ni0 3.167099 1_555
Ca1 Zn0 3.229623 1_555
Ca1 Si3 3.236585 1_645
Ca1 Si0 3.236585 1_556
Ca1 Si2 3.237568 1_555
Ca1 Si1 3.237569 1_555
Ca1 Si5 3.283502 1_546
Ca2 Si0 3.122531 1_455
Ca2 Si3 3.122531 1_545
Ca2 Si5 3.163609 1_545
Ca2 Si5 3.163609 1_455
Ca2 Ni0 3.173943 1_455
Ca2 Ni0 3.173943 1_545
Ca2 Si4 3.191516 1_554
Ca2 Si4 3.191516 1_555
Ca2 Zn0 3.204935 1_555
Ca2 Zn0 3.204935 1_554
Ca2 Si1 3.236996 1_555
Ca2 Si2 3.236996 1_554
Ca3 Si4 3.100110 1_564
Ca3 Si0 3.144068 1_555
Ca3 Si3 3.144069 1_555
Ca3 Si1 3.149440 1_465
Ca3 Si2 3.149441 1_554
Ca3 Ni0 3.167099 1_555
Ca3 Zn0 3.229623 1_555
Ca3 Si0 3.236585 1_465
Ca3 Si3 3.236585 1_554
Ca3 Si1 3.237568 1_555
Ca3 Si2 3.237569 1_555
Ca3 Si5 3.283502 1_455
Si0 Si1 2.346098 1_555
Si0 Si4 2.356081 1_654
Si1 Si5 2.350574 1_545
Si1 Zn0 2.367355 1_555
Si2 Si3 2.346098 1_555
Si2 Si5 2.350574 1_456
Si2 Zn0 2.367355 1_555
Si3 Si4 2.356081 1_565
Si4 Zn0 2.379344 1_555
Ni0 Si0 2.205695 1_555
Ni0 Si3 2.205695 1_555
Ni0 Si5 2.216218 1_555
