# generated using pymatgen
data_Na2In2SiTe6
_symmetry_space_group_name_H-M   'P 1'
_cell_length_a   8.16120773
_cell_length_b   8.16120744
_cell_length_c   13.87429021
_cell_angle_alpha   74.64493996
_cell_angle_beta   74.64493847
_cell_angle_gamma   65.63580091
_symmetry_Int_Tables_number   1
_chemical_formula_structural   Na2In2SiTe6
_chemical_formula_sum   'Na4 In4 Si2 Te12'
_cell_volume   798.92281408
_cell_formula_units_Z   2
loop_
 _symmetry_equiv_pos_site_id
 _symmetry_equiv_pos_as_xyz
  1  'x, y, z'
loop_
 _atom_site_type_symbol
 _atom_site_label
 _atom_site_symmetry_multiplicity
 _atom_site_fract_x
 _atom_site_fract_y
 _atom_site_fract_z
 _atom_site_occupancy
  Na  Na0  1  0.18632640  0.33829834  0.00107278  1
  Na  Na1  1  0.33829834  0.18632640  0.50107278  1
  Na  Na2  1  0.34435955  0.74491654  0.17920986  1
  Na  Na3  1  0.74491654  0.34435955  0.67920986  1
  In  In0  1  0.85179841  0.96828653  0.01373775  1
  In  In1  1  0.96828653  0.85179841  0.51373775  1
  In  In2  1  0.64688111  0.80749235  0.81673608  1
  In  In3  1  0.80749235  0.64688111  0.31673608  1
  Si  Si0  1  0.19393892  0.74835740  0.75923151  1
  Si  Si1  1  0.74835740  0.19393892  0.25923151  1
  Te  Te0  1  0.04968499  0.05021512  0.81731073  1
  Te  Te1  1  0.05021512  0.04968499  0.31731073  1
  Te  Te2  1  0.79758409  0.29760168  0.07069380  1
  Te  Te3  1  0.29760168  0.79758409  0.57069380  1
  Te  Te4  1  0.05218226  0.64370346  0.13152878  1
  Te  Te5  1  0.64370346  0.05218226  0.63152878  1
  Te  Te6  1  0.52104043  0.96519868  0.99111030  1
  Te  Te7  1  0.96519868  0.52104043  0.49111030  1
  Te  Te8  1  0.46598175  0.55853891  0.84714600  1
  Te  Te9  1  0.55853891  0.46598175  0.34714600  1
  Te  Te10  1  0.00939161  0.54807948  0.80399140  1
  Te  Te11  1  0.54807948  0.00939161  0.30399140  1
loop_
_geom_bond_atom_site_label_1
_geom_bond_atom_site_label_2
_geom_bond_distance
_geom_bond_site_symmetry_2
Na0 Te4 3.126567 1_555
Na0 Te6 3.148489 1_544
Na0 Te10 3.172556 1_554
Na0 Te2 3.191441 1_455
Na0 Te8 3.430896 1_554
Na1 Te5 3.126567 1_555
Na1 Te7 3.148489 1_455
Na1 Te11 3.172556 1_555
Na1 Te3 3.191441 1_545
Na1 Te9 3.430896 1_555
Na2 Te4 3.091247 1_555
Na2 Te9 3.119495 1_555
Na2 Te6 3.127787 1_554
Na2 Te1 3.283616 1_565
Na3 Te5 3.091247 1_555
Na3 Te8 3.119495 1_555
Na3 Te7 3.127787 1_555
Na3 Te0 3.283616 1_655
In0 Te6 2.809803 1_554
In0 Te4 2.812624 1_655
In0 Te2 2.828770 1_565
In0 Te0 2.842080 1_664
In1 Te7 2.809803 1_555
In1 Te5 2.812624 1_565
In1 Te3 2.828770 1_655
In1 Te1 2.842080 1_665
In2 Te6 2.794103 1_555
In2 Te5 2.804718 1_565
In2 Te10 2.831901 1_655
In2 Te8 2.859494 1_555
In3 Te7 2.794103 1_555
In3 Te4 2.804718 1_655
In3 Te11 2.831901 1_565
In3 Te9 2.859494 1_555
Si0 Te0 2.502050 1_565
Si0 Te3 2.504305 1_555
Si0 Te10 2.514742 1_555
Si0 Te8 2.532322 1_555
Si1 Te1 2.502051 1_655
Si1 Te2 2.504305 1_555
Si1 Te11 2.514742 1_555
Si1 Te9 2.532322 1_555
