# generated using pymatgen
data_Hf10CuSn6Se
_symmetry_space_group_name_H-M   'P 1'
_cell_length_a   8.55332977
_cell_length_b   8.55333083
_cell_length_c   5.80006632
_cell_angle_alpha   90.00000000
_cell_angle_beta   90.00000000
_cell_angle_gamma   119.99999209
_symmetry_Int_Tables_number   1
_chemical_formula_structural   Hf10CuSn6Se
_chemical_formula_sum   'Hf10 Cu1 Sn6 Se1'
_cell_volume   367.48034243
_cell_formula_units_Z   1
loop_
 _symmetry_equiv_pos_site_id
 _symmetry_equiv_pos_as_xyz
  1  'x, y, z'
loop_
 _atom_site_type_symbol
 _atom_site_label
 _atom_site_symmetry_multiplicity
 _atom_site_fract_x
 _atom_site_fract_y
 _atom_site_fract_z
 _atom_site_occupancy
  Hf  Hf0  1  0.33333300  0.66666700  0.00000000  1
  Hf  Hf1  1  0.66666700  0.33333300  0.50000000  1
  Hf  Hf2  1  0.66666700  0.33333300  0.00000000  1
  Hf  Hf3  1  0.33333300  0.66666700  0.50000000  1
  Hf  Hf4  1  0.26344282  0.00000000  0.25665817  1
  Hf  Hf5  1  0.26344282  0.26344282  0.74334183  1
  Hf  Hf6  1  1.00000000  0.73655718  0.74334183  1
  Hf  Hf7  1  0.00000000  0.26344282  0.25665817  1
  Hf  Hf8  1  0.73655718  0.73655718  0.25665817  1
  Hf  Hf9  1  0.73655718  1.00000000  0.74334183  1
  Cu  Cu0  1  0.00000000  0.00000000  0.50000000  1
  Sn  Sn0  1  0.60852234  0.00000000  0.25143233  1
  Sn  Sn1  1  0.60852234  0.60852234  0.74856767  1
  Sn  Sn2  1  1.00000000  0.39147766  0.74856767  1
  Sn  Sn3  1  0.00000000  0.60852234  0.25143233  1
  Sn  Sn4  1  0.39147766  0.39147766  0.25143233  1
  Sn  Sn5  1  0.39147766  1.00000000  0.74856767  1
  Se  Se0  1  0.00000000  0.00000000  0.00000000  1
loop_
_geom_bond_atom_site_label_1
_geom_bond_atom_site_label_2
_geom_bond_distance
_geom_bond_site_symmetry_2
Hf0 Sn3 3.014120 1_555
Hf0 Sn5 3.014120 1_554
Hf0 Sn2 3.014122 1_454
Hf0 Sn0 3.014123 1_565
Hf0 Sn1 3.014127 1_554
Hf0 Sn4 3.014127 1_555
Hf1 Sn2 3.006116 1_555
Hf1 Sn0 3.006116 1_555
Hf1 Sn3 3.006119 1_655
Hf1 Sn5 3.006119 1_545
Hf1 Sn4 3.006123 1_555
Hf1 Sn1 3.006123 1_555
Hf2 Sn2 3.014120 1_554
Hf2 Sn0 3.014120 1_555
Hf2 Sn3 3.014122 1_655
Hf2 Sn5 3.014123 1_544
Hf2 Sn4 3.014127 1_555
Hf2 Sn1 3.014127 1_554
Hf3 Sn3 3.006116 1_555
Hf3 Sn5 3.006116 1_555
Hf3 Sn2 3.006119 1_455
Hf3 Sn0 3.006119 1_565
Hf3 Sn1 3.006123 1_555
Hf3 Sn4 3.006123 1_555
Hf4 Se0 2.700639 1_555
Hf4 Sn0 2.951735 1_555
Hf4 Sn4 2.957245 1_555
Hf4 Sn3 2.957245 1_545
Hf4 Sn5 3.056063 1_545
Hf4 Sn5 3.143861 1_544
Hf5 Se0 2.700640 1_556
Hf5 Sn1 2.951735 1_555
Hf5 Sn2 2.957244 1_455
Hf5 Sn5 2.957245 1_545
Hf5 Sn4 3.056063 1_555
Hf5 Sn4 3.143861 1_556
Hf6 Se0 2.700640 1_666
Hf6 Sn2 2.951735 1_555
Hf6 Sn1 2.957245 1_555
Hf6 Sn5 2.957245 1_655
Hf6 Sn3 3.056063 1_655
Hf6 Sn3 3.143861 1_656
Hf7 Se0 2.700640 1_555
Hf7 Sn3 2.951735 1_555
Hf7 Sn4 2.957245 1_555
Hf7 Sn0 2.957245 1_455
Hf7 Sn2 3.056063 1_455
Hf7 Sn2 3.143861 1_454
Hf8 Se0 2.700640 1_665
Hf8 Sn4 2.951735 1_555
Hf8 Sn3 2.957244 1_655
Hf8 Sn0 2.957245 1_565
Hf8 Sn1 3.056063 1_555
Hf8 Sn1 3.143861 1_554
Hf9 Se0 2.700639 1_666
Hf9 Sn5 2.951735 1_555
Hf9 Sn1 2.957245 1_555
Hf9 Sn2 2.957245 1_565
Hf9 Sn0 3.056063 1_565
Hf9 Sn0 3.143861 1_566
Cu0 Hf9 2.658847 1_445
Cu0 Hf4 2.658847 1_555
Cu0 Hf7 2.658847 1_555
Cu0 Hf6 2.658847 1_445
Cu0 Hf5 2.658847 1_555
Cu0 Hf8 2.658847 1_445
Cu0 Se0 2.900033 1_556
Cu0 Se0 2.900033 1_555
