# generated using pymatgen
data_Cs2NiMoSe4
_symmetry_space_group_name_H-M   'P 1'
_cell_length_a   14.73847380
_cell_length_b   13.05277914
_cell_length_c   7.89015584
_cell_angle_alpha   85.71029776
_cell_angle_beta   62.02413386
_cell_angle_gamma   32.26557984
_symmetry_Int_Tables_number   1
_chemical_formula_structural   Cs2NiMoSe4
_chemical_formula_sum   'Cs4 Ni2 Mo2 Se8'
_cell_volume   522.91530676
_cell_formula_units_Z   2
loop_
 _symmetry_equiv_pos_site_id
 _symmetry_equiv_pos_as_xyz
  1  'x, y, z'
loop_
 _atom_site_type_symbol
 _atom_site_label
 _atom_site_symmetry_multiplicity
 _atom_site_fract_x
 _atom_site_fract_y
 _atom_site_fract_z
 _atom_site_occupancy
  Cs  Cs0  1  0.82267895  0.82267895  0.17732105  1
  Cs  Cs1  1  0.42732105  0.42732105  0.07267895  1
  Cs  Cs2  1  0.17732105  0.17732105  0.82267895  1
  Cs  Cs3  1  0.07267895  0.07267895  0.42732105  1
  Ni  Ni0  1  0.50000000  0.50000000  0.50000000  1
  Ni  Ni1  1  0.75000000  0.75000000  0.75000000  1
  Mo  Mo0  1  0.00000000  0.00000000  0.00000000  1
  Mo  Mo1  1  0.25000000  0.25000000  0.25000000  1
  Se  Se0  1  0.54065986  0.85404231  0.14199993  1
  Se  Se1  1  0.85404231  0.54065986  0.46329791  1
  Se  Se2  1  0.78670209  0.10800007  0.39595769  1
  Se  Se3  1  0.10800007  0.78670209  0.70934014  1
  Se  Se4  1  0.14199993  0.46329791  0.54065986  1
  Se  Se5  1  0.46329791  0.14199993  0.85404231  1
  Se  Se6  1  0.39595769  0.70934014  0.78670209  1
  Se  Se7  1  0.70934014  0.39595769  0.10800007  1
loop_
_geom_bond_atom_site_label_1
_geom_bond_atom_site_label_2
_geom_bond_distance
_geom_bond_site_symmetry_2
Cs0 Se4 3.660225 1_654
Cs0 Se5 3.660225 1_565
Cs0 Se5 3.676847 1_654
Cs0 Se4 3.676847 1_565
Cs0 Se2 3.726964 1_565
Cs0 Se3 3.726965 1_654
Cs0 Se0 3.964095 1_555
Cs0 Se1 3.964096 1_555
Cs1 Se3 3.660225 1_555
Cs1 Se2 3.660225 1_554
Cs1 Se2 3.676847 1_465
Cs1 Se3 3.676847 1_644
Cs1 Se5 3.726964 1_554
Cs1 Se4 3.726965 1_555
Cs1 Se7 3.964095 1_555
Cs1 Se6 3.964096 1_554
Cs2 Se0 3.660226 1_456
Cs2 Se1 3.660226 1_545
Cs2 Se1 3.676847 1_456
Cs2 Se0 3.676847 1_545
Cs2 Se6 3.726964 1_545
Cs2 Se7 3.726965 1_456
Cs2 Se5 3.964095 1_555
Cs2 Se4 3.964096 1_555
Cs3 Se7 3.660226 1_545
Cs3 Se6 3.660226 1_455
Cs3 Se6 3.676847 1_544
Cs3 Se7 3.676847 1_456
Cs3 Se1 3.726964 1_455
Cs3 Se0 3.726965 1_545
Cs3 Se2 3.964095 1_455
Cs3 Se3 3.964096 1_545
Ni0 Se6 2.349303 1_555
Ni0 Se2 2.349303 1_555
Ni0 Se7 2.349303 1_555
Ni0 Se3 2.349303 1_555
Ni1 Se1 2.349303 1_555
Ni1 Se5 2.349303 1_565
Ni1 Se0 2.349303 1_556
Ni1 Se4 2.349303 1_655
Mo0 Se3 2.362245 1_544
Mo0 Se7 2.362245 1_455
Mo0 Se2 2.362245 1_455
Mo0 Se6 2.362245 1_544
Mo1 Se4 2.362245 1_555
Mo1 Se0 2.362245 1_545
Mo1 Se5 2.362245 1_554
Mo1 Se1 2.362245 1_455
