# generated using pymatgen
data_Be4NbTc
_symmetry_space_group_name_H-M   'P 1'
_cell_length_a   4.48123958
_cell_length_b   4.48123922
_cell_length_c   4.48123985
_cell_angle_alpha   60.00000270
_cell_angle_beta   60.00000537
_cell_angle_gamma   60.00001364
_symmetry_Int_Tables_number   1
_chemical_formula_structural   Be4NbTc
_chemical_formula_sum   'Be4 Nb1 Tc1'
_cell_volume   63.63258305
_cell_formula_units_Z   1
loop_
 _symmetry_equiv_pos_site_id
 _symmetry_equiv_pos_as_xyz
  1  'x, y, z'
loop_
 _atom_site_type_symbol
 _atom_site_label
 _atom_site_symmetry_multiplicity
 _atom_site_fract_x
 _atom_site_fract_y
 _atom_site_fract_z
 _atom_site_occupancy
  Be  Be0  1  0.12593345  0.12593345  0.12593345  1
  Be  Be1  1  0.62220065  0.12593345  0.12593345  1
  Be  Be2  1  0.12593345  0.62220065  0.12593345  1
  Be  Be3  1  0.12593345  0.12593345  0.62220065  1
  Nb  Nb0  1  0.75000000  0.75000000  0.75000000  1
  Tc  Tc0  1  0.50000000  0.50000000  0.50000000  1
loop_
_geom_bond_atom_site_label_1
_geom_bond_atom_site_label_2
_geom_bond_distance
_geom_bond_site_symmetry_2
Be0 Be2 2.223892 1_555
Be0 Be1 2.223892 1_555
Be0 Be3 2.223892 1_555
Be0 Be2 2.257347 1_545
Be0 Be1 2.257347 1_455
Be0 Be3 2.257348 1_554
Be0 Tc0 2.625595 1_554
Be0 Tc0 2.625596 1_545
Be0 Tc0 2.625596 1_455
Be0 Nb0 2.629163 1_445
Be0 Nb0 2.629163 1_454
Be0 Nb0 2.629163 1_544
Be1 Be3 2.223892 1_555
Be1 Be2 2.223893 1_555
Be1 Be3 2.257348 1_654
Be1 Be2 2.257348 1_645
Be1 Tc0 2.625593 1_555
Be1 Tc0 2.625597 1_545
Be1 Tc0 2.625597 1_554
Be1 Nb0 2.629160 1_554
Be1 Nb0 2.629161 1_545
Be1 Nb0 2.629165 1_544
Be2 Be3 2.223892 1_555
Be2 Be3 2.257347 1_564
Be2 Tc0 2.625594 1_555
Be2 Tc0 2.625597 1_455
Be2 Tc0 2.625598 1_554
Be2 Nb0 2.629161 1_554
Be2 Nb0 2.629161 1_455
Be2 Nb0 2.629165 1_454
Be3 Tc0 2.625593 1_555
Be3 Tc0 2.625597 1_545
Be3 Tc0 2.625598 1_455
Be3 Nb0 2.629161 1_455
Be3 Nb0 2.629161 1_545
Be3 Nb0 2.629164 1_445
Nb0 Tc0 2.744187 1_555
Nb0 Tc0 2.744188 1_565
Nb0 Tc0 2.744188 1_556
Nb0 Tc0 2.744188 1_655
