# generated using pymatgen
data_Cs3Ag(SnPb)2
_symmetry_space_group_name_H-M   'P 1'
_cell_length_a   6.88484497
_cell_length_b   7.44720746
_cell_length_c   14.14861669
_cell_angle_alpha   90.00000000
_cell_angle_beta   90.00000000
_cell_angle_gamma   90.00000000
_symmetry_Int_Tables_number   1
_chemical_formula_structural   Cs3Ag(SnPb)2
_chemical_formula_sum   'Cs6 Ag2 Sn4 Pb4'
_cell_volume   725.44016719
_cell_formula_units_Z   2
loop_
 _symmetry_equiv_pos_site_id
 _symmetry_equiv_pos_as_xyz
  1  'x, y, z'
loop_
 _atom_site_type_symbol
 _atom_site_label
 _atom_site_symmetry_multiplicity
 _atom_site_fract_x
 _atom_site_fract_y
 _atom_site_fract_z
 _atom_site_occupancy
  Cs  Cs0  1  0.53607085  0.00000000  0.00000000  1
  Cs  Cs1  1  0.46392915  0.50000000  0.50000000  1
  Cs  Cs2  1  0.81888693  0.50000000  0.74615557  1
  Cs  Cs3  1  0.81888693  0.50000000  0.25384443  1
  Cs  Cs4  1  0.18111307  0.00000000  0.75384443  1
  Cs  Cs5  1  0.18111307  0.00000000  0.24615557  1
  Ag  Ag0  1  0.66597159  0.50000000  0.00000000  1
  Ag  Ag1  1  0.33402841  0.00000000  0.50000000  1
  Sn  Sn0  1  0.31769349  0.50000000  0.89112010  1
  Sn  Sn1  1  0.31769349  0.50000000  0.10887990  1
  Sn  Sn2  1  0.68230651  0.00000000  0.39112010  1
  Sn  Sn3  1  0.68230651  0.00000000  0.60887990  1
  Pb  Pb0  1  0.02667492  0.28184246  0.00000000  1
  Pb  Pb1  1  0.02667492  0.71815754  0.00000000  1
  Pb  Pb2  1  0.97332508  0.78184246  0.50000000  1
  Pb  Pb3  1  0.97332508  0.21815754  0.50000000  1
loop_
_geom_bond_atom_site_label_1
_geom_bond_atom_site_label_2
_geom_bond_distance
_geom_bond_site_symmetry_2
Cs0 Pb0 3.976761 1_655
Cs0 Pb1 3.976761 1_645
Cs0 Pb0 4.087222 1_555
Cs0 Pb1 4.087222 1_545
Cs0 Sn1 4.301030 1_555
Cs0 Sn1 4.301030 1_545
Cs0 Sn0 4.301030 1_554
Cs0 Sn0 4.301030 1_544
Cs1 Pb2 3.976761 1_455
Cs1 Pb3 3.976761 1_455
Cs1 Pb2 4.087222 1_555
Cs1 Pb3 4.087222 1_555
Cs1 Sn3 4.301030 1_565
Cs1 Sn3 4.301030 1_555
Cs1 Sn2 4.301030 1_565
Cs1 Sn2 4.301030 1_555
Cs2 Sn0 4.000071 1_655
Cs2 Sn0 4.014188 1_555
Cs2 Pb1 4.193487 1_656
Cs2 Pb0 4.193487 1_656
Cs2 Pb2 4.203063 1_555
Cs2 Pb3 4.203063 1_555
Cs2 Sn3 4.303700 1_565
Cs2 Sn3 4.303700 1_555
Cs3 Sn1 4.000071 1_655
Cs3 Sn1 4.014188 1_555
Cs3 Pb1 4.193487 1_655
Cs3 Pb0 4.193487 1_655
Cs3 Pb2 4.203063 1_555
Cs3 Pb3 4.203063 1_555
Cs3 Sn2 4.303700 1_555
Cs3 Sn2 4.303700 1_565
Cs4 Sn3 4.000071 1_455
Cs4 Sn3 4.014188 1_555
Cs4 Pb3 4.193487 1_455
Cs4 Pb2 4.193487 1_445
Cs4 Pb0 4.203063 1_556
Cs4 Pb1 4.203063 1_546
Cs4 Sn0 4.303700 1_555
Cs4 Sn0 4.303700 1_545
Cs5 Sn2 4.000071 1_455
Cs5 Sn2 4.014188 1_555
Cs5 Pb3 4.193487 1_455
Cs5 Pb2 4.193487 1_445
Cs5 Pb0 4.203063 1_555
Cs5 Pb1 4.203063 1_545
Cs5 Sn1 4.303700 1_545
Cs5 Sn1 4.303700 1_555
Ag0 Sn1 2.850049 1_555
Ag0 Sn0 2.850049 1_554
Ag0 Pb1 2.967616 1_655
Ag0 Pb0 2.967616 1_655
Ag0 Cs3 3.742673 1_555
Ag0 Cs2 3.742673 1_554
Ag0 Cs0 3.829501 1_555
Ag0 Cs0 3.829501 1_565
Ag1 Sn3 2.850049 1_555
Ag1 Sn2 2.850049 1_555
Ag1 Pb3 2.967616 1_455
Ag1 Pb2 2.967616 1_445
Ag1 Cs4 3.742673 1_555
Ag1 Cs5 3.742673 1_555
Ag1 Cs1 3.829501 1_555
Ag1 Cs1 3.829501 1_545
Sn0 Sn1 3.081000 1_556
Sn2 Sn3 3.081000 1_555
Pb0 Sn1 3.004523 1_555
Pb0 Sn0 3.004523 1_554
Pb0 Pb1 3.249329 1_555
Pb1 Sn1 3.004523 1_555
Pb1 Sn0 3.004523 1_554
Pb2 Sn3 3.004523 1_565
Pb2 Sn2 3.004523 1_565
Pb2 Pb3 3.249329 1_565
Pb3 Sn3 3.004523 1_555
Pb3 Sn2 3.004523 1_555
