# generated using pymatgen
data_Y4Ge6Ir6Pt
_symmetry_space_group_name_H-M   'P 1'
_cell_length_a   7.25357877
_cell_length_b   7.25357956
_cell_length_c   7.25357867
_cell_angle_alpha   109.57440699
_cell_angle_beta   109.57440482
_cell_angle_gamma   109.26504783
_symmetry_Int_Tables_number   1
_chemical_formula_structural   Y4Ge6Ir6Pt
_chemical_formula_sum   'Y4 Ge6 Ir6 Pt1'
_cell_volume   293.78588295
_cell_formula_units_Z   1
loop_
 _symmetry_equiv_pos_site_id
 _symmetry_equiv_pos_as_xyz
  1  'x, y, z'
loop_
 _atom_site_type_symbol
 _atom_site_label
 _atom_site_symmetry_multiplicity
 _atom_site_fract_x
 _atom_site_fract_y
 _atom_site_fract_z
 _atom_site_occupancy
  Y  Y0  1  0.00048738  0.99951262  0.50000000  1
  Y  Y1  1  0.00048738  0.50048738  0.00097575  1
  Y  Y2  1  0.49951262  0.99951262  0.99902425  1
  Y  Y3  1  0.49951262  0.50048738  0.50000000  1
  Ge  Ge0  1  0.67931208  0.67931208  0.00000000  1
  Ge  Ge1  1  0.31553077  0.99639040  0.31914037  1
  Ge  Ge2  1  0.00360960  0.32274997  0.31914037  1
  Ge  Ge3  1  0.32068792  0.32068792  1.00000000  1
  Ge  Ge4  1  0.67725003  0.99639040  0.68085963  1
  Ge  Ge5  1  0.00360960  0.68446923  0.68085963  1
  Ir  Ir0  1  0.75077007  0.50044642  0.25032365  1
  Ir  Ir1  1  0.49955358  0.24922993  0.74967635  1
  Ir  Ir2  1  0.25012377  0.50044642  0.74967635  1
  Ir  Ir3  1  0.25000000  0.75000000  0.50000000  1
  Ir  Ir4  1  0.49955358  0.74987623  0.25032365  1
  Ir  Ir5  1  0.00000000  0.00000000  0.00000000  1
  Pt  Pt0  1  0.75000000  0.25000000  0.50000000  1
loop_
_geom_bond_atom_site_label_1
_geom_bond_atom_site_label_2
_geom_bond_distance
_geom_bond_site_symmetry_2
Ge0 Ir2 2.576914 1_554
Ge0 Ir0 2.576920 1_555
Ge0 Ir4 2.581296 1_555
Ge0 Ir1 2.581297 1_554
Ge0 Ir5 2.692820 1_665
Ge0 Y1 3.016470 1_655
Ge0 Y3 3.016471 1_554
Ge0 Y0 3.016471 1_655
Ge0 Y2 3.016472 1_554
Ge1 Ir3 2.563081 1_555
Ge1 Ir1 2.579074 1_565
Ge1 Ir4 2.579080 1_555
Ge1 Pt0 2.612259 1_565
Ge1 Ir5 2.669795 1_565
Ge1 Y1 2.994438 1_555
Ge1 Y0 2.994438 1_555
Ge1 Y3 3.043799 1_565
Ge1 Y2 3.043805 1_554
Ge2 Ir3 2.563081 1_555
Ge2 Ir0 2.579074 1_455
Ge2 Ir2 2.579075 1_555
Ge2 Pt0 2.612259 1_455
Ge2 Ir5 2.669795 1_555
Ge2 Y1 2.994432 1_555
Ge2 Y3 2.994438 1_555
Ge2 Y0 3.043799 1_545
Ge2 Y2 3.043799 1_444
Ge3 Ir4 2.576914 1_556
Ge3 Ir1 2.576920 1_555
Ge3 Ir2 2.581296 1_555
Ge3 Ir0 2.581296 1_556
Ge3 Ir5 2.692820 1_556
Ge3 Y2 3.016470 1_545
Ge3 Y3 3.016471 1_556
Ge3 Y0 3.016471 1_545
Ge3 Y1 3.016472 1_556
Ge4 Ir3 2.563081 1_555
Ge4 Ir1 2.579074 1_565
Ge4 Ir4 2.579075 1_555
Ge4 Pt0 2.612259 1_565
Ge4 Ir5 2.669795 1_666
Ge4 Y2 2.994432 1_555
Ge4 Y3 2.994439 1_555
Ge4 Y0 3.043798 1_655
Ge4 Y1 3.043799 1_666
Ge5 Ir3 2.563081 1_555
Ge5 Ir0 2.579074 1_455
Ge5 Ir2 2.579080 1_555
Ge5 Pt0 2.612259 1_455
Ge5 Ir5 2.669795 1_566
Ge5 Y2 2.994438 1_555
Ge5 Y0 2.994439 1_555
Ge5 Y3 3.043798 1_455
Ge5 Y1 3.043805 1_556
Ir0 Y1 2.957607 1_655
Ir0 Y0 2.957613 1_655
Ir0 Pt0 2.963894 1_555
Ir0 Y3 2.968686 1_555
Ir0 Y2 2.968686 1_544
Ir1 Y2 2.957607 1_545
Ir1 Y0 2.957613 1_545
Ir1 Pt0 2.963894 1_555
Ir1 Y1 2.968686 1_656
Ir1 Y3 2.968686 1_555
Ir2 Y3 2.957607 1_555
Ir2 Y2 2.957613 1_555
Ir2 Pt0 2.963900 1_455
Ir2 Y0 2.968687 1_545
Ir2 Y1 2.968698 1_556
Ir3 Y2 2.951717 1_555
Ir3 Y1 2.951717 1_555
Ir3 Y3 2.951723 1_555
Ir3 Y0 2.951723 1_555
Ir4 Y3 2.957607 1_555
Ir4 Y1 2.957613 1_555
Ir4 Pt0 2.963900 1_565
Ir4 Y0 2.968686 1_655
Ir4 Y2 2.968698 1_554
Pt0 Y0 2.963255 1_645
Pt0 Y3 2.963255 1_555
Pt0 Y1 2.963260 1_656
Pt0 Y2 2.963260 1_544
