# generated using pymatgen
data_Ti6Al11Co7Si5
_symmetry_space_group_name_H-M   'P 1'
_cell_length_a   8.15587880
_cell_length_b   8.15594943
_cell_length_c   8.15587883
_cell_angle_alpha   59.79826597
_cell_angle_beta   59.79956987
_cell_angle_gamma   59.79826701
_symmetry_Int_Tables_number   1
_chemical_formula_structural   Ti6Al11Co7Si5
_chemical_formula_sum   'Ti6 Al11 Co7 Si5'
_cell_volume   381.86680829
_cell_formula_units_Z   1
loop_
 _symmetry_equiv_pos_site_id
 _symmetry_equiv_pos_as_xyz
  1  'x, y, z'
loop_
 _atom_site_type_symbol
 _atom_site_label
 _atom_site_symmetry_multiplicity
 _atom_site_fract_x
 _atom_site_fract_y
 _atom_site_fract_z
 _atom_site_occupancy
  Ti  Ti0  1  0.68946839  0.31017725  0.31020422  1
  Ti  Ti1  1  0.31382708  0.68939530  0.68936181  1
  Ti  Ti2  1  0.31020535  0.68946369  0.31020535  1
  Ti  Ti3  1  0.31020422  0.31017725  0.68946839  1
  Ti  Ti4  1  0.68935744  0.31383800  0.68935744  1
  Ti  Ti5  1  0.68936181  0.68939530  0.31382708  1
  Al  Al0  1  0.66311050  0.66310139  0.01361829  1
  Al  Al1  1  0.66309684  0.01361743  0.66309684  1
  Al  Al2  1  0.01361829  0.66310139  0.66311050  1
  Al  Al3  1  0.12109794  0.12111023  0.12109794  1
  Al  Al4  1  0.12108920  0.12106481  0.63574933  1
  Al  Al5  1  0.63574933  0.12106481  0.12108920  1
  Al  Al6  1  0.12106863  0.63575175  0.12106863  1
  Al  Al7  1  0.88248135  0.88246409  0.88248135  1
  Al  Al8  1  0.88185614  0.88187457  0.35527479  1
  Al  Al9  1  0.88187509  0.35527282  0.88187509  1
  Al  Al10  1  0.35527479  0.88187457  0.88185614  1
  Co  Co0  1  0.00015820  0.00014880  0.00015820  1
  Co  Co1  1  0.49196128  0.00779474  0.00779591  1
  Co  Co2  1  0.00002962  0.49533243  0.49533028  1
  Co  Co3  1  0.00779481  0.49195992  0.00779481  1
  Co  Co4  1  0.00779591  0.00779474  0.49196128  1
  Co  Co5  1  0.49533239  0.00002903  0.49533239  1
  Co  Co6  1  0.49533028  0.49533243  0.00002962  1
  Si  Si0  1  0.34474760  0.34471465  0.34474760  1
  Si  Si1  1  0.34416415  0.34418325  0.96522254  1
  Si  Si2  1  0.96522254  0.34418325  0.34416415  1
  Si  Si3  1  0.34419108  0.96521687  0.34419108  1
  Si  Si4  1  0.66053175  0.66056724  0.66053175  1
loop_
_geom_bond_atom_site_label_1
_geom_bond_atom_site_label_2
_geom_bond_distance
_geom_bond_site_symmetry_2
Al0 Co3 2.416188 1_655
Al0 Co1 2.416274 1_565
Al0 Co6 2.438447 1_555
Al0 Al9 2.630546 1_554
Al0 Al10 2.630625 1_554
Al0 Ti2 2.660449 1_555
Al0 Ti0 2.660495 1_555
Al0 Ti5 2.681172 1_555
Al0 Si4 2.900857 1_554
Al1 Co4 2.416325 1_655
Al1 Co1 2.416325 1_556
Al1 Co5 2.438278 1_555
Al1 Al10 2.630507 1_545
Al1 Al8 2.630507 1_545
Al1 Ti0 2.660260 1_555
Al1 Ti3 2.660260 1_555
Al1 Ti4 2.681178 1_555
Al1 Si4 2.900658 1_545
Al2 Co3 2.416188 1_556
Al2 Co4 2.416274 1_565
Al2 Co2 2.438447 1_555
Al2 Al9 2.630546 1_455
Al2 Al8 2.630625 1_455
Al2 Ti2 2.660449 1_555
Al2 Ti3 2.660495 1_555
Al2 Ti1 2.681172 1_555
Al2 Si4 2.900857 1_455
Al3 Co0 2.419924 1_555
Al3 Co3 2.468051 1_555
Al3 Co4 2.468147 1_555
Al3 Co1 2.468147 1_555
Al3 Si1 2.629142 1_554
Al3 Si2 2.629142 1_455
Al3 Si3 2.629360 1_545
Al3 Al9 2.755487 1_454
Al3 Al8 2.755736 1_445
Al3 Ti3 2.935679 1_554
Al3 Ti0 2.935679 1_455
Al3 Ti2 2.935801 1_545
Al4 Co0 2.420579 1_556
Al4 Co4 2.474161 1_555
Al4 Co5 2.488313 1_555
Al4 Co2 2.488459 1_555
Al4 Si0 2.631368 1_555
Al4 Si3 2.634773 1_545
Al4 Si2 2.634976 1_455
Al4 Al7 2.748457 1_445
Al4 Al9 2.766408 1_455
Al4 Ti1 2.938030 1_545
Al4 Ti4 2.938461 1_455
Al4 Ti3 2.950107 1_555
Al5 Co0 2.420579 1_655
Al5 Co1 2.474161 1_555
Al5 Co5 2.488313 1_555
Al5 Co6 2.488459 1_555
Al5 Si0 2.631368 1_555
Al5 Si3 2.634773 1_545
Al5 Si1 2.634976 1_554
Al5 Al7 2.748457 1_544
Al5 Al8 2.766103 1_545
Al5 Al9 2.766408 1_554
Al5 Ti5 2.938030 1_545
Al5 Ti4 2.938461 1_554
Al5 Ti0 2.950107 1_555
Al6 Co0 2.420491 1_565
Al6 Co3 2.474089 1_555
Al6 Co2 2.488431 1_555
Al6 Co6 2.488431 1_555
Al6 Si0 2.631604 1_555
Al6 Si2 2.634826 1_455
Al6 Si1 2.634826 1_554
Al6 Al7 2.748195 1_454
Al6 Al8 2.766380 1_455
Al6 Ti1 2.938259 1_554
Al6 Ti5 2.938259 1_455
Al6 Ti2 2.950370 1_555
Al7 Co0 2.354547 1_666
Al7 Co3 2.594975 1_656
Al7 Co4 2.595088 1_665
Al7 Co1 2.595088 1_566
Al8 Co0 2.358826 1_665
Al8 Co5 2.568978 1_565
Al8 Co2 2.569084 1_655
Al8 Co4 2.591855 1_665
Al8 Si4 2.636332 1_555
Al8 Ti0 2.928060 1_565
Al8 Ti2 2.928375 1_655
Al8 Ti5 2.931030 1_555
Al9 Co0 2.358865 1_656
Al9 Co2 2.569114 1_655
Al9 Co6 2.569114 1_556
Al9 Co3 2.591725 1_656
Al9 Si4 2.636597 1_555
Al9 Ti3 2.928218 1_655
Al9 Ti0 2.928218 1_556
Al9 Ti4 2.931373 1_555
Al10 Co0 2.358826 1_566
Al10 Co5 2.568978 1_565
Al10 Co6 2.569084 1_556
Al10 Co1 2.591855 1_566
Al10 Si4 2.636332 1_555
Al10 Al3 2.755737 1_566
Al10 Al4 2.766103 1_565
Al10 Al6 2.766380 1_556
Al10 Ti3 2.928060 1_565
Al10 Ti2 2.928374 1_556
Al10 Ti1 2.931030 1_555
Co1 Si1 2.288256 1_554
Co1 Si3 2.288307 1_545
Co2 Si2 2.313797 1_455
Co2 Si0 2.343313 1_555
Co2 Si4 2.370160 1_455
Co2 Ti5 2.915115 1_455
Co2 Ti4 2.915204 1_455
Co2 Ti3 2.994622 1_555
Co2 Ti2 2.994700 1_555
Co3 Si2 2.288115 1_455
Co3 Si1 2.288115 1_554
Co4 Si2 2.288256 1_455
Co4 Si3 2.288307 1_545
Co5 Si3 2.313577 1_545
Co5 Si0 2.343062 1_555
Co5 Si4 2.369868 1_545
Co5 Ti1 2.914993 1_545
Co5 Ti5 2.914993 1_545
Co5 Ti0 2.994530 1_555
Co5 Ti3 2.994530 1_555
Co6 Si1 2.313797 1_554
Co6 Si0 2.343313 1_555
Co6 Si4 2.370160 1_554
Co6 Ti1 2.915115 1_554
Co6 Ti4 2.915204 1_554
Co6 Ti0 2.994622 1_555
Co6 Ti2 2.994700 1_555
Si0 Ti0 2.559186 1_555
Si0 Ti3 2.559186 1_555
Si0 Ti2 2.559420 1_555
Si1 Ti4 2.556592 1_555
Si1 Ti1 2.556635 1_555
Si1 Ti3 2.557980 1_555
Si2 Ti4 2.556592 1_555
Si2 Ti5 2.556635 1_555
Si2 Ti0 2.557980 1_555
Si3 Ti1 2.556308 1_555
Si3 Ti5 2.556308 1_555
Si3 Ti2 2.558021 1_555
Si4 Ti1 2.612311 1_555
Si4 Ti5 2.612311 1_555
Si4 Ti4 2.612552 1_555
