# generated using pymatgen
data_Na4BeZnH8
_symmetry_space_group_name_H-M   'P 1'
_cell_length_a   5.13272344
_cell_length_b   5.13390782
_cell_length_c   6.72897022
_cell_angle_alpha   77.17571566
_cell_angle_beta   90.00000000
_cell_angle_gamma   90.00000000
_symmetry_Int_Tables_number   1
_chemical_formula_structural   Na4BeZnH8
_chemical_formula_sum   'Na4 Be1 Zn1 H8'
_cell_volume   172.89156835
_cell_formula_units_Z   1
loop_
 _symmetry_equiv_pos_site_id
 _symmetry_equiv_pos_as_xyz
  1  'x, y, z'
loop_
 _atom_site_type_symbol
 _atom_site_label
 _atom_site_symmetry_multiplicity
 _atom_site_fract_x
 _atom_site_fract_y
 _atom_site_fract_z
 _atom_site_occupancy
  Na  Na0  1  0.25000000  0.28618170  0.02116615  1
  Na  Na1  1  0.75000000  0.71802367  0.96530829  1
  Na  Na2  1  0.75000000  0.75441502  0.46683900  1
  Na  Na3  1  0.25000000  0.24099180  0.55256319  1
  Be  Be0  1  0.75000000  0.27626350  0.78582413  1
  Zn  Zn0  1  0.25000000  0.72504079  0.21417562  1
  H  H0  1  0.75000000  0.07167771  0.66687421  1
  H  H1  1  0.75000000  0.16657509  0.00150707  1
  H  H2  1  0.52662030  0.44976569  0.73778394  1
  H  H3  1  0.25000000  0.95375417  0.34546627  1
  H  H4  1  0.97337970  0.44976569  0.73778394  1
  H  H5  1  0.99986782  0.53011553  0.26811662  1
  H  H6  1  0.50013218  0.53011553  0.26811662  1
  H  H7  1  0.25000000  0.84731310  0.96847495  1
loop_
_geom_bond_atom_site_label_1
_geom_bond_atom_site_label_2
_geom_bond_distance
_geom_bond_site_symmetry_2
Be0 H1 1.435495 1_556
Be0 H4 1.443837 1_555
Be0 H2 1.443837 1_555
Be0 H0 1.455006 1_555
H0 Na2 2.331961 1_545
H0 Na1 2.389689 1_545
H1 Na1 2.368824 1_544
H1 Na0 2.648930 1_655
H1 Na0 2.648930 1_555
H2 Na3 2.304579 1_555
H2 Na0 2.376220 1_556
H2 Na2 2.412244 1_555
H2 Na1 2.547798 1_555
H3 Zn0 1.618554 1_555
H3 Na3 2.242507 1_565
H3 Na0 2.453853 1_565
H4 Na3 2.304579 1_655
H4 Na0 2.376220 1_656
H4 Na2 2.412244 1_555
H4 Na1 2.547798 1_555
H5 Zn0 1.618719 1_655
H5 Na2 2.332917 1_555
H5 Na1 2.419633 1_554
H5 Na3 2.500770 1_655
H5 Na0 2.627123 1_655
H6 Zn0 1.618719 1_555
H6 Na2 2.332917 1_555
H6 Na1 2.419633 1_554
H6 Na3 2.500770 1_555
H6 Na0 2.627123 1_555
H7 Zn0 1.633025 1_556
H7 Na0 2.357298 1_566
H7 Na1 2.652079 1_455
H7 Na1 2.652079 1_555
