# generated using pymatgen
data_K4Si(TeSe)2
_symmetry_space_group_name_H-M   'P 1'
_cell_length_a   8.41532849
_cell_length_b   10.36310054
_cell_length_c   14.88996858
_cell_angle_alpha   90.00000000
_cell_angle_beta   90.00000000
_cell_angle_gamma   90.00000000
_symmetry_Int_Tables_number   1
_chemical_formula_structural   K4Si(TeSe)2
_chemical_formula_sum   'K16 Si4 Te8 Se8'
_cell_volume   1298.53770969
_cell_formula_units_Z   4
loop_
 _symmetry_equiv_pos_site_id
 _symmetry_equiv_pos_as_xyz
  1  'x, y, z'
loop_
 _atom_site_type_symbol
 _atom_site_label
 _atom_site_symmetry_multiplicity
 _atom_site_fract_x
 _atom_site_fract_y
 _atom_site_fract_z
 _atom_site_occupancy
  K  K0  1  0.50000000  0.50000000  0.50000000  1
  K  K1  1  0.15252744  0.46217861  0.27187229  1
  K  K2  1  0.15252744  0.03782139  0.27187229  1
  K  K3  1  0.98804377  0.75000000  0.43223248  1
  K  K4  1  0.01195623  0.25000000  0.56776752  1
  K  K5  1  0.65252744  0.96217861  0.22812771  1
  K  K6  1  0.34747256  0.03782139  0.77187229  1
  K  K7  1  0.84747256  0.96217861  0.72812771  1
  K  K8  1  0.34747256  0.46217861  0.77187229  1
  K  K9  1  0.00000000  0.50000000  0.00000000  1
  K  K10  1  0.48804377  0.25000000  0.06776752  1
  K  K11  1  0.65252744  0.53782139  0.22812771  1
  K  K12  1  0.51195623  0.75000000  0.93223248  1
  K  K13  1  0.00000000  0.00000000  0.00000000  1
  K  K14  1  0.84747256  0.53782139  0.72812771  1
  K  K15  1  0.50000000  0.00000000  0.50000000  1
  Si  Si0  1  0.73020343  0.25000000  0.83872924  1
  Si  Si1  1  0.76979657  0.25000000  0.33872924  1
  Si  Si2  1  0.23020343  0.75000000  0.66127076  1
  Si  Si3  1  0.26979657  0.75000000  0.16127076  1
  Te  Te0  1  0.53456340  0.75000000  0.66944374  1
  Te  Te1  1  0.46543660  0.25000000  0.33055626  1
  Te  Te2  1  0.37073392  0.75000000  0.32427930  1
  Te  Te3  1  0.12926608  0.75000000  0.82427930  1
  Te  Te4  1  0.03456340  0.25000000  0.83055626  1
  Te  Te5  1  0.96543660  0.75000000  0.16944374  1
  Te  Te6  1  0.62926608  0.25000000  0.67572070  1
  Te  Te7  1  0.87073392  0.25000000  0.17572070  1
  Se  Se0  1  0.85132574  0.43137925  0.41000066  1
  Se  Se1  1  0.64867426  0.06862075  0.91000066  1
  Se  Se2  1  0.35132574  0.93137925  0.08999934  1
  Se  Se3  1  0.35132574  0.56862075  0.08999934  1
  Se  Se4  1  0.14867426  0.56862075  0.58999934  1
  Se  Se5  1  0.85132574  0.06862075  0.41000066  1
  Se  Se6  1  0.14867426  0.93137925  0.58999934  1
  Se  Se7  1  0.64867426  0.43137925  0.91000066  1
loop_
_geom_bond_atom_site_label_1
_geom_bond_atom_site_label_2
_geom_bond_distance
_geom_bond_site_symmetry_2
K0 Se4 3.323033 1_555
K0 Se0 3.323033 1_555
K0 Te0 3.627989 1_555
K0 Te1 3.627989 1_555
K0 Te6 3.839454 1_555
K0 Te2 3.839454 1_555
K1 Se0 3.279750 1_455
K1 Se3 3.368864 1_555
K1 Te7 3.536674 1_455
K1 Te1 3.540098 1_555
K1 Si3 3.547202 1_555
K1 Te2 3.588521 1_555
K1 Te5 3.701563 1_455
K2 Se5 3.279750 1_455
K2 Se2 3.368864 1_545
K2 Te7 3.536674 1_455
K2 Te1 3.540098 1_555
K2 Si3 3.547202 1_545
K2 Te2 3.588521 1_545
K2 Te5 3.701563 1_445
K3 Se6 3.298305 1_655
K3 Se4 3.298305 1_655
K3 Se5 3.512240 1_565
K3 Se0 3.512240 1_555
K3 Te2 3.599331 1_655
K3 Te5 3.917538 1_555
K4 Se0 3.298305 1_455
K4 Se5 3.298305 1_455
K4 Se4 3.512240 1_555
K4 Se6 3.512240 1_545
K4 Te6 3.599331 1_455
K4 Te4 3.917538 1_555
K5 Se2 3.279750 1_555
K5 Se5 3.368864 1_565
K5 Te2 3.536674 1_555
K5 Te5 3.540098 1_555
K5 Si1 3.547202 1_565
K5 Te7 3.588521 1_565
K5 Te1 3.701563 1_565
K6 Se1 3.279750 1_555
K6 Se6 3.368864 1_545
K6 Te6 3.536674 1_555
K6 Te4 3.540098 1_555
K6 Si2 3.547202 1_545
K6 Te3 3.588521 1_545
K6 Te0 3.701563 1_545
K7 Se6 3.279750 1_655
K7 Se1 3.368864 1_565
K7 Te3 3.536674 1_655
K7 Te0 3.540098 1_555
K7 Si0 3.547202 1_565
K7 Te6 3.588521 1_565
K7 Te4 3.701563 1_665
K8 Se7 3.279750 1_555
K8 Se4 3.368864 1_555
K8 Te6 3.536674 1_555
K8 Te4 3.540098 1_555
K8 Si2 3.547202 1_555
K8 Te3 3.588521 1_555
K8 Te0 3.701563 1_555
K9 Se3 3.323033 1_555
K9 Se7 3.323033 1_454
K9 Te5 3.627989 1_455
K9 Te4 3.627989 1_554
K9 Te7 3.839454 1_455
K9 Te3 3.839454 1_554
K10 Se7 3.298305 1_554
K10 Se1 3.298305 1_554
K10 Se3 3.512240 1_555
K10 Se2 3.512240 1_545
K10 Te7 3.599331 1_555
K10 Te1 3.917538 1_555
K11 Se3 3.279750 1_555
K11 Se0 3.368864 1_555
K11 Te2 3.536674 1_555
K11 Te5 3.540098 1_555
K11 Si1 3.547202 1_555
K11 Te7 3.588521 1_555
K11 Te1 3.701563 1_555
K12 Se2 3.298305 1_556
K12 Se3 3.298305 1_556
K12 Se1 3.512240 1_565
K12 Se7 3.512240 1_555
K12 Te3 3.599331 1_555
K12 Te0 3.917538 1_555
K13 Se2 3.323033 1_545
K13 Se1 3.323033 1_454
K13 Te5 3.627989 1_445
K13 Te4 3.627989 1_554
K13 Te7 3.839454 1_455
K13 Te3 3.839454 1_544
K14 Se4 3.279750 1_655
K14 Se7 3.368864 1_555
K14 Te3 3.536674 1_655
K14 Te0 3.540098 1_555
K14 Si0 3.547202 1_555
K14 Te6 3.588521 1_555
K14 Te4 3.701563 1_655
K15 Se5 3.323033 1_555
K15 Se6 3.323033 1_545
K15 Te0 3.627989 1_545
K15 Te1 3.627989 1_555
K15 Te6 3.839454 1_555
K15 Te2 3.839454 1_545
Si0 Te4 2.564179 1_655
Si0 Te6 2.571532 1_555
Si1 Te1 2.564179 1_555
Si1 Te7 2.571532 1_555
Si2 Te0 2.564179 1_555
Si2 Te3 2.571532 1_555
Si3 Te5 2.564179 1_455
Si3 Te2 2.571532 1_555
Se0 Si1 2.264955 1_555
Se1 Si0 2.264955 1_555
Se2 Si3 2.264955 1_555
Se3 Si3 2.264955 1_555
Se4 Si2 2.264955 1_555
Se5 Si1 2.264955 1_555
Se6 Si2 2.264955 1_555
Se7 Si0 2.264955 1_555
