# generated using pymatgen
data_Sc6Sn5Pd6Pb
_symmetry_space_group_name_H-M   'P 1'
_cell_length_a   7.54402109
_cell_length_b   7.52357442
_cell_length_c   7.20419090
_cell_angle_alpha   90.07107457
_cell_angle_beta   90.00000000
_cell_angle_gamma   120.08994525
_symmetry_Int_Tables_number   1
_chemical_formula_structural   Sc6Sn5Pd6Pb
_chemical_formula_sum   'Sc6 Sn5 Pd6 Pb1'
_cell_volume   353.79213758
_cell_formula_units_Z   1
loop_
 _symmetry_equiv_pos_site_id
 _symmetry_equiv_pos_as_xyz
  1  'x, y, z'
loop_
 _atom_site_type_symbol
 _atom_site_label
 _atom_site_symmetry_multiplicity
 _atom_site_fract_x
 _atom_site_fract_y
 _atom_site_fract_z
 _atom_site_occupancy
  Sc  Sc0  1  0.39809301  0.01428434  0.25115859  1
  Sc  Sc1  1  0.61535139  0.59794163  0.24917652  1
  Sc  Sc2  1  0.98665797  0.38560988  0.25070962  1
  Sc  Sc3  1  0.38380867  0.98571566  0.74884141  1
  Sc  Sc4  1  0.60104709  0.61439012  0.74929038  1
  Sc  Sc5  1  0.01741077  0.40205837  0.75082348  1
  Sn  Sn0  1  0.28154679  0.28172547  0.49991548  1
  Sn  Sn1  1  0.99982131  0.71827453  0.50008452  1
  Sn  Sn2  1  0.00089068  0.72992815  0.99999145  1
  Sn  Sn3  1  0.27096253  0.27007185  0.00000855  1
  Sn  Sn4  1  0.72076300  1.00000000  0.50000000  1
  Pd  Pd0  1  0.32418426  0.65910565  0.03544936  1
  Pd  Pd1  1  0.33389059  0.66737202  0.46742254  1
  Pd  Pd2  1  0.66507960  0.34089435  0.96455064  1
  Pd  Pd3  1  0.66651956  0.33262798  0.53257746  1
  Pd  Pd4  1  0.00423939  0.99966379  0.26146726  1
  Pd  Pd5  1  0.00457560  0.00033621  0.73853274  1
  Pb  Pb0  1  0.72515780  0.00000000  1.00000000  1
loop_
_geom_bond_atom_site_label_1
_geom_bond_atom_site_label_2
_geom_bond_distance
_geom_bond_site_symmetry_2
Sc0 Sn4 3.068158 1_545
Sc0 Sn3 3.123508 1_555
Sc0 Sn0 3.130208 1_555
Sc0 Sn2 3.223727 1_544
Sc0 Sn1 3.240918 1_445
Sc1 Sn0 3.044303 1_555
Sc1 Sn3 3.101592 1_555
Sc1 Sn2 3.126753 1_654
Sc1 Sn1 3.140468 1_555
Sc1 Sn4 3.259154 1_555
Sc2 Sn1 3.039935 1_555
Sc2 Sn2 3.117272 1_654
Sc2 Sn4 3.137429 1_545
Sc2 Sn3 3.237796 1_655
Sc2 Sn0 3.245008 1_655
Sc3 Sn4 3.068158 1_555
Sc3 Sn2 3.123507 1_555
Sc3 Sn1 3.130208 1_455
Sc3 Sn3 3.223727 1_566
Sc3 Sn0 3.240918 1_565
Sc4 Sn0 3.039932 1_555
Sc4 Sn3 3.117269 1_556
Sc4 Sn4 3.137427 1_555
Sc4 Sn2 3.237802 1_655
Sc4 Sn1 3.245014 1_555
Sc5 Sn1 3.044306 1_455
Sc5 Sn2 3.101595 1_555
Sc5 Sn3 3.126747 1_556
Sc5 Sn0 3.140463 1_555
Sc5 Sn4 3.259156 1_445
Pd0 Sn2 2.756990 1_554
Pd0 Sn3 2.759177 1_555
Pd0 Sc2 2.806563 1_455
Pd0 Sc0 2.891757 1_565
Pd0 Sc1 2.902199 1_555
Pd0 Sc5 2.966970 1_554
Pd0 Sc3 3.067266 1_554
Pd0 Sc4 3.070586 1_554
Pd0 Pd1 3.112689 1_555
Pd1 Sn0 2.735311 1_555
Pd1 Sn4 2.740571 1_555
Pd1 Sn1 2.742469 1_455
Pd1 Sc0 2.866476 1_565
Pd1 Sc2 2.866509 1_455
Pd1 Sc1 2.892004 1_555
Pd1 Sc3 3.011996 1_555
Pd1 Sc5 3.014062 1_555
Pd1 Sc4 3.025210 1_555
Pd2 Sn3 2.756997 1_556
Pd2 Sn2 2.759174 1_655
Pd2 Sc4 2.806572 1_555
Pd2 Sc3 2.891759 1_545
Pd2 Sc5 2.902199 1_655
Pd2 Sc1 2.966977 1_556
Pd2 Sc0 3.067267 1_556
Pd2 Sc2 3.070586 1_556
Pd2 Pd3 3.112689 1_555
Pd3 Sn1 2.735308 1_555
Pd3 Sn4 2.740566 1_545
Pd3 Sn0 2.742477 1_555
Pd3 Sc3 2.866478 1_545
Pd3 Sc4 2.866518 1_555
Pd3 Sc5 2.892004 1_655
Pd3 Sc0 3.011998 1_555
Pd3 Sc1 3.014069 1_555
Pd3 Sc2 3.025210 1_555
Pd4 Sn0 2.714813 1_565
Pd4 Sn1 2.715955 1_455
Pd4 Sn4 2.744421 1_455
Pd4 Sn2 2.757992 1_554
Pd4 Sn3 2.764135 1_565
Pd4 Sc0 2.918592 1_565
Pd4 Sc2 2.973512 1_465
Pd4 Sc1 2.976230 1_455
Pd5 Sn1 2.714813 1_445
Pd5 Sn0 2.715955 1_555
Pd5 Sn4 2.744421 1_445
Pd5 Sn3 2.757992 1_556
Pd5 Sn2 2.764135 1_545
Pd5 Sc3 2.918592 1_545
Pd5 Sc4 2.973516 1_445
Pd5 Sc5 2.976226 1_555
Pb0 Pd5 2.825992 1_655
Pb0 Pd4 2.825992 1_646
Pb0 Pd2 2.831211 1_555
Pb0 Pd0 2.831216 1_546
Pb0 Sc3 3.104649 1_545
Pb0 Sc0 3.104649 1_556
Pb0 Sc4 3.133511 1_545
Pb0 Sc2 3.133512 1_556
Pb0 Sc1 3.249561 1_546
Pb0 Sc5 3.249563 1_655
