# generated using pymatgen
data_B4Pd7Pt3
_symmetry_space_group_name_H-M   'P 1'
_cell_length_a   6.91866179
_cell_length_b   6.95538540
_cell_length_c   5.51644929
_cell_angle_alpha   83.70727914
_cell_angle_beta   96.39221397
_cell_angle_gamma   137.86641232
_symmetry_Int_Tables_number   1
_chemical_formula_structural   B4Pd7Pt3
_chemical_formula_sum   'B4 Pd7 Pt3'
_cell_volume   176.83561512
_cell_formula_units_Z   1
loop_
 _symmetry_equiv_pos_site_id
 _symmetry_equiv_pos_as_xyz
  1  'x, y, z'
loop_
 _atom_site_type_symbol
 _atom_site_label
 _atom_site_symmetry_multiplicity
 _atom_site_fract_x
 _atom_site_fract_y
 _atom_site_fract_z
 _atom_site_occupancy
  B  B0  1  0.42137975  0.19630461  0.07688592  1
  B  B1  1  0.19137411  0.41629541  0.42464794  1
  B  B2  1  0.58423140  0.80108377  0.92585645  1
  B  B3  1  0.80670044  0.58148613  0.57365699  1
  Pd  Pd0  1  0.35727667  0.78234239  0.18543577  1
  Pd  Pd1  1  0.22025034  0.64459404  0.68730813  1
  Pd  Pd2  1  0.64421123  0.21853251  0.81483453  1
  Pd  Pd3  1  0.18287122  0.98944955  0.42187795  1
  Pd  Pd4  1  0.98644062  0.18318710  0.07755405  1
  Pd  Pd5  1  0.81396280  0.01092579  0.57764813  1
  Pd  Pd6  1  0.01325292  0.81972988  0.92077131  1
  Pt  Pt0  1  0.56000933  0.56282817  0.24900548  1
  Pt  Pt1  1  0.43668689  0.43592247  0.74881831  1
  Pt  Pt2  1  0.78134728  0.35731318  0.31569602  1
loop_
_geom_bond_atom_site_label_1
_geom_bond_atom_site_label_2
_geom_bond_distance
_geom_bond_site_symmetry_2
B0 Pd6 2.135163 1_544
B0 Pd2 2.141077 1_554
B0 Pt2 2.156019 1_555
B0 Pd3 2.234434 1_545
B0 Pt0 2.240931 1_555
B0 Pt1 2.276804 1_554
B0 Pd0 2.575395 1_545
B1 Pd5 2.128352 1_455
B1 Pd1 2.151793 1_555
B1 Pd0 2.192574 1_555
B1 Pt0 2.227295 1_555
B1 Pd4 2.229745 1_455
B1 Pt1 2.265216 1_555
B1 Pt2 2.554501 1_455
B2 Pd4 2.123034 1_566
B2 Pd0 2.165469 1_556
B2 Pd1 2.183759 1_555
B2 Pt1 2.218783 1_555
B2 Pt0 2.226901 1_556
B2 Pd5 2.229537 1_565
B3 Pt2 2.124166 1_555
B3 Pd3 2.130130 1_655
B3 Pd2 2.189615 1_555
B3 Pt1 2.237072 1_555
B3 Pd6 2.242490 1_655
B3 Pt0 2.275770 1_555
B3 Pd1 2.563291 1_655
