# generated using pymatgen
data_Na3BiCl6
_symmetry_space_group_name_H-M   'P 1'
_cell_length_a   7.00165267
_cell_length_b   7.00165291
_cell_length_c   7.45097043
_cell_angle_alpha   118.02446039
_cell_angle_beta   61.97554341
_cell_angle_gamma   119.99999970
_symmetry_Int_Tables_number   1
_chemical_formula_structural   Na3BiCl6
_chemical_formula_sum   'Na3 Bi1 Cl6'
_cell_volume   265.73044648
_cell_formula_units_Z   1
loop_
 _symmetry_equiv_pos_site_id
 _symmetry_equiv_pos_as_xyz
  1  'x, y, z'
loop_
 _atom_site_type_symbol
 _atom_site_label
 _atom_site_symmetry_multiplicity
 _atom_site_fract_x
 _atom_site_fract_y
 _atom_site_fract_z
 _atom_site_occupancy
  Na  Na0  1  0.65203617  0.34796383  0.04388849  1
  Na  Na1  1  0.85139596  0.14860404  0.44581111  1
  Na  Na2  1  0.14500255  0.85499845  0.56499336  1
  Bi  Bi0  1  0.34415924  0.65584076  0.96752229  1
  Cl  Cl0  1  0.55130607  0.74806247  0.24433686  1
  Cl  Cl1  1  0.95241953  0.44869493  0.24433686  1
  Cl  Cl2  1  0.25193853  0.04758047  0.24433686  1
  Cl  Cl3  1  0.73682055  0.93528933  0.74825705  1
  Cl  Cl4  1  0.06471067  0.54978927  0.74825705  1
  Cl  Cl5  1  0.45021073  0.26317845  0.74825705  1
loop_
_geom_bond_atom_site_label_1
_geom_bond_atom_site_label_2
_geom_bond_distance
_geom_bond_site_symmetry_2
Bi0 Cl2 2.719855 1_566
Bi0 Cl1 2.719855 1_456
Bi0 Cl0 2.719858 1_556
Bi0 Cl3 2.731254 1_555
Bi0 Cl5 2.731257 1_555
Bi0 Cl4 2.731257 1_555
Cl0 Na0 2.762230 1_555
Cl0 Na1 2.765603 1_565
Cl0 Na2 2.902380 1_555
Cl1 Na0 2.762246 1_555
Cl1 Na1 2.765607 1_555
Cl1 Na2 2.902380 1_655
Cl2 Na0 2.762238 1_555
Cl2 Na1 2.765613 1_455
Cl2 Na2 2.902376 1_545
Cl3 Na2 2.750746 1_655
Cl3 Na0 2.838801 1_566
Cl3 Na1 2.866781 1_565
Cl4 Na2 2.750743 1_555
Cl4 Na0 2.838797 1_456
Cl4 Na1 2.866780 1_455
Cl5 Na2 2.750737 1_545
Cl5 Na0 2.838788 1_556
Cl5 Na1 2.866778 1_555
