# generated using pymatgen
data_Cs8Lu2O7
_symmetry_space_group_name_H-M   'P 1'
_cell_length_a   19.01306751
_cell_length_b   7.34385721
_cell_length_c   7.55880596
_cell_angle_alpha   60.82428189
_cell_angle_beta   90.00000000
_cell_angle_gamma   90.00000000
_symmetry_Int_Tables_number   1
_chemical_formula_structural   Cs8Lu2O7
_chemical_formula_sum   'Cs16 Lu4 O14'
_cell_volume   921.52665483
_cell_formula_units_Z   2
loop_
 _symmetry_equiv_pos_site_id
 _symmetry_equiv_pos_as_xyz
  1  'x, y, z'
loop_
 _atom_site_type_symbol
 _atom_site_label
 _atom_site_symmetry_multiplicity
 _atom_site_fract_x
 _atom_site_fract_y
 _atom_site_fract_z
 _atom_site_occupancy
  Cs  Cs0  1  0.99581372  0.23781293  0.23943215  1
  Cs  Cs1  1  0.49581372  0.26218707  0.76056785  1
  Cs  Cs2  1  0.00418628  0.76218707  0.76056785  1
  Cs  Cs3  1  0.50418628  0.73781293  0.23943215  1
  Cs  Cs4  1  0.19349858  0.23713134  0.21872105  1
  Cs  Cs5  1  0.69349858  0.26286866  0.78127895  1
  Cs  Cs6  1  0.80650142  0.76286866  0.78127895  1
  Cs  Cs7  1  0.30650142  0.73713134  0.21872105  1
  Cs  Cs8  1  0.79212608  0.22273413  0.23981440  1
  Cs  Cs9  1  0.29212608  0.27726587  0.76018560  1
  Cs  Cs10  1  0.20787392  0.77726587  0.76018560  1
  Cs  Cs11  1  0.70787392  0.72273413  0.23981440  1
  Cs  Cs12  1  0.91161675  0.35432898  0.63892389  1
  Cs  Cs13  1  0.41161675  0.14567102  0.36107611  1
  Cs  Cs14  1  0.08838325  0.64567102  0.36107611  1
  Cs  Cs15  1  0.58838325  0.85432898  0.63892389  1
  Lu  Lu0  1  0.59560823  0.35525667  0.14552308  1
  Lu  Lu1  1  0.09560823  0.14474333  0.85447692  1
  Lu  Lu2  1  0.40439177  0.64474333  0.85447692  1
  Lu  Lu3  1  0.90439177  0.85525667  0.14552308  1
  O  O0  1  0.50000000  0.50000000  0.00000000  1
  O  O1  1  0.00000000  0.00000000  0.00000000  1
  O  O2  1  0.59885358  0.33142081  0.43000692  1
  O  O3  1  0.09885358  0.16857919  0.56999308  1
  O  O4  1  0.40114642  0.66857919  0.56999308  1
  O  O5  1  0.90114642  0.83142081  0.43000692  1
  O  O6  1  0.32335042  0.45454741  0.03354862  1
  O  O7  1  0.82335042  0.04545259  0.96645138  1
  O  O8  1  0.67664958  0.54545259  0.96645138  1
  O  O9  1  0.17664958  0.95454741  0.03354862  1
  O  O10  1  0.60715222  0.06688492  0.16049929  1
  O  O11  1  0.10715222  0.43311508  0.83950071  1
  O  O12  1  0.39284778  0.93311508  0.83950071  1
  O  O13  1  0.89284778  0.56688492  0.16049929  1
loop_
_geom_bond_atom_site_label_1
_geom_bond_atom_site_label_2
_geom_bond_distance
_geom_bond_site_symmetry_2
Cs0 O13 2.936495 1_555
Cs0 O3 3.016820 1_655
Cs0 O1 3.068164 1_655
Cs0 O5 3.167066 1_545
Cs0 O11 3.383722 1_654
Cs1 O12 2.936495 1_545
Cs1 O2 3.016820 1_555
Cs1 O0 3.068164 1_556
Cs1 O4 3.167066 1_555
Cs1 O10 3.383722 1_556
Cs2 O11 2.936495 1_555
Cs2 O5 3.016820 1_455
Cs2 O1 3.068164 1_566
Cs2 O3 3.167066 1_565
Cs2 O13 3.383722 1_456
Cs3 O10 2.936495 1_565
Cs3 O4 3.016820 1_555
Cs3 O0 3.068164 1_555
Cs3 O2 3.167066 1_555
Cs3 O12 3.383722 1_554
Cs4 O6 2.902574 1_555
Cs4 O11 2.993474 1_554
Cs4 O9 3.033224 1_545
Cs4 O3 3.039476 1_555
Cs5 O7 2.902574 1_555
Cs5 O10 2.993474 1_556
Cs5 O8 3.033224 1_555
Cs5 O2 3.039476 1_555
Cs6 O8 2.902574 1_555
Cs6 O13 2.993474 1_556
Cs6 O7 3.033224 1_565
Cs6 O5 3.039476 1_555
Cs7 O9 2.902574 1_555
Cs7 O12 2.993474 1_554
Cs7 O6 3.033224 1_555
Cs7 O4 3.039476 1_555
Cs8 O13 2.989508 1_555
Cs8 O7 2.989970 1_554
Cs8 O8 3.151568 1_554
Cs8 O5 3.254803 1_545
Cs9 O12 2.989508 1_545
Cs9 O6 2.989970 1_556
Cs9 O9 3.151568 1_546
Cs9 O4 3.254803 1_555
Cs10 O11 2.989508 1_555
Cs10 O9 2.989970 1_556
Cs10 O6 3.151568 1_556
Cs10 O3 3.254803 1_565
Cs11 O10 2.989508 1_565
Cs11 O8 2.989970 1_554
Cs11 O7 3.151568 1_564
Cs11 O2 3.254803 1_555
Cs12 O7 2.935250 1_555
Cs12 O5 3.068353 1_555
Cs12 O1 3.181159 1_656
Cs12 O13 3.184024 1_555
Cs13 O6 2.935250 1_555
Cs13 O4 3.068353 1_545
Cs13 O0 3.181159 1_555
Cs13 O12 3.184024 1_545
Cs14 O9 2.935250 1_555
Cs14 O3 3.068353 1_555
Cs14 O1 3.181159 1_565
Cs14 O11 3.184024 1_555
Cs15 O8 2.935250 1_555
Cs15 O2 3.068353 1_565
Cs15 O0 3.181159 1_556
Cs15 O10 3.184024 1_565
Lu0 O2 2.071592 1_555
Lu0 O10 2.076575 1_555
Lu0 O8 2.077017 1_554
Lu0 O0 2.122332 1_555
Lu1 O3 2.071592 1_555
Lu1 O11 2.076575 1_555
Lu1 O9 2.077017 1_546
Lu1 O1 2.122332 1_556
Lu2 O4 2.071592 1_555
Lu2 O12 2.076575 1_555
Lu2 O6 2.077017 1_556
Lu2 O0 2.122332 1_556
Lu3 O5 2.071592 1_555
Lu3 O13 2.076575 1_555
Lu3 O7 2.077017 1_564
Lu3 O1 2.122332 1_665
