# generated using pymatgen
data_MnNb3Al2C
_symmetry_space_group_name_H-M   'P 1'
_cell_length_a   8.31319865
_cell_length_b   8.31319907
_cell_length_c   8.31319867
_cell_angle_alpha   60.00000162
_cell_angle_beta   59.99999992
_cell_angle_gamma   59.99999701
_symmetry_Int_Tables_number   1
_chemical_formula_structural   MnNb3Al2C
_chemical_formula_sum   'Mn4 Nb12 Al8 C4'
_cell_volume   406.24637200
_cell_formula_units_Z   4
loop_
 _symmetry_equiv_pos_site_id
 _symmetry_equiv_pos_as_xyz
  1  'x, y, z'
loop_
 _atom_site_type_symbol
 _atom_site_label
 _atom_site_symmetry_multiplicity
 _atom_site_fract_x
 _atom_site_fract_y
 _atom_site_fract_z
 _atom_site_occupancy
  Mn  Mn0  1  0.12500000  0.12500000  0.12500000  1
  Mn  Mn1  1  0.62500000  0.12500000  0.12500000  1
  Mn  Mn2  1  0.12500000  0.62500000  0.12500000  1
  Mn  Mn3  1  0.12500000  0.12500000  0.62500000  1
  Nb  Nb0  1  0.55824359  0.94175641  0.55824359  1
  Nb  Nb1  1  0.30824359  0.69175641  0.69175641  1
  Nb  Nb2  1  0.69175641  0.30824359  0.30824359  1
  Nb  Nb3  1  0.30824359  0.69175641  0.30824359  1
  Nb  Nb4  1  0.69175641  0.69175641  0.30824359  1
  Nb  Nb5  1  0.30824359  0.30824359  0.69175641  1
  Nb  Nb6  1  0.55824359  0.55824359  0.94175641  1
  Nb  Nb7  1  0.94175641  0.55824359  0.55824359  1
  Nb  Nb8  1  0.55824359  0.94175641  0.94175641  1
  Nb  Nb9  1  0.94175641  0.94175641  0.55824359  1
  Nb  Nb10  1  0.69175641  0.30824359  0.69175641  1
  Nb  Nb11  1  0.94175641  0.55824359  0.94175641  1
  Al  Al0  1  0.91595081  0.91595081  0.91595081  1
  Al  Al1  1  0.99785243  0.33404919  0.33404919  1
  Al  Al2  1  0.33404919  0.99785243  0.33404919  1
  Al  Al3  1  0.33404919  0.33404919  0.99785243  1
  Al  Al4  1  0.91595081  0.25214757  0.91595081  1
  Al  Al5  1  0.91595081  0.91595081  0.25214757  1
  Al  Al6  1  0.25214757  0.91595081  0.91595081  1
  Al  Al7  1  0.33404919  0.33404919  0.33404919  1
  C  C0  1  0.62500000  0.62500000  0.62500000  1
  C  C1  1  0.12500000  0.62500000  0.62500000  1
  C  C2  1  0.62500000  0.12500000  0.62500000  1
  C  C3  1  0.62500000  0.62500000  0.12500000  1
loop_
_geom_bond_atom_site_label_1
_geom_bond_atom_site_label_2
_geom_bond_distance
_geom_bond_site_symmetry_2
Mn0 Nb8 2.993403 1_544
Mn0 Nb2 2.993403 1_455
Mn0 Nb11 2.993403 1_454
Mn0 Nb3 2.993403 1_545
Mn0 Nb9 2.993403 1_445
Mn0 Nb5 2.993403 1_554
Mn1 Nb2 2.993403 1_555
Mn1 Nb0 2.993403 1_545
Mn1 Nb10 2.993403 1_554
Mn1 Nb8 2.993403 1_544
Mn1 Nb6 2.993403 1_554
Mn1 Nb4 2.993403 1_545
Mn2 Nb6 2.993403 1_554
Mn2 Nb4 2.993403 1_455
Mn2 Nb3 2.993403 1_555
Mn2 Nb7 2.993403 1_455
Mn2 Nb1 2.993403 1_554
Mn2 Nb11 2.993403 1_454
Mn3 Nb0 2.993403 1_545
Mn3 Nb10 2.993403 1_455
Mn3 Nb7 2.993403 1_455
Mn3 Nb1 2.993403 1_545
Mn3 Nb5 2.993403 1_555
Mn3 Nb9 2.993403 1_445
Al0 Mn1 2.550283 1_566
Al0 Mn2 2.550283 1_656
Al0 Mn3 2.550283 1_665
Al0 Nb8 2.775794 1_555
Al0 Nb9 2.775794 1_555
Al0 Nb11 2.775794 1_555
Al0 Al6 2.794870 1_655
Al0 Al5 2.794870 1_556
Al0 Al4 2.794871 1_565
Al0 Nb1 2.983307 1_655
Al0 Nb10 2.983307 1_565
Al0 Nb4 2.983307 1_556
Al1 Mn0 2.550283 1_655
Al1 Mn3 2.550283 1_655
Al1 Mn2 2.550283 1_655
Al1 Nb4 2.775794 1_555
Al1 Nb2 2.775794 1_555
Al1 Nb10 2.775794 1_555
Al1 Al2 2.794870 1_645
Al1 Al3 2.794870 1_654
Al1 Al7 2.794870 1_655
Al1 Nb11 2.983307 1_554
Al1 Nb7 2.983307 1_555
Al1 Nb9 2.983307 1_545
Al2 Mn3 2.550283 1_565
Al2 Mn0 2.550283 1_565
Al2 Mn1 2.550283 1_565
Al2 Nb4 2.775794 1_555
Al2 Nb1 2.775794 1_555
Al2 Nb3 2.775794 1_555
Al2 Al7 2.794871 1_565
Al2 Al3 2.794871 1_564
Al2 Nb0 2.983307 1_555
Al2 Nb8 2.983307 1_554
Al2 Nb9 2.983307 1_455
Al3 Mn1 2.550283 1_556
Al3 Mn2 2.550283 1_556
Al3 Mn0 2.550283 1_556
Al3 Nb10 2.775794 1_555
Al3 Nb5 2.775794 1_555
Al3 Nb1 2.775794 1_555
Al3 Al7 2.794870 1_556
Al3 Nb11 2.983307 1_455
Al3 Nb8 2.983307 1_545
Al3 Nb6 2.983307 1_555
Al4 Mn3 2.550283 1_655
Al4 Mn0 2.550283 1_656
Al4 Mn1 2.550283 1_556
Al4 Nb6 2.775794 1_555
Al4 Nb7 2.775794 1_555
Al4 Nb11 2.775794 1_555
Al4 Al6 2.794870 1_645
Al4 Al5 2.794871 1_546
Al4 Nb10 2.983307 1_555
Al4 Nb2 2.983307 1_556
Al4 Nb5 2.983307 1_655
Al5 Mn1 2.550283 1_565
Al5 Mn2 2.550283 1_655
Al5 Mn0 2.550283 1_665
Al5 Nb0 2.775794 1_555
Al5 Nb9 2.775794 1_555
Al5 Nb7 2.775794 1_555
Al5 Al6 2.794870 1_654
Al5 Nb3 2.983307 1_655
Al5 Nb2 2.983307 1_565
Al5 Nb4 2.983307 1_555
Al6 Mn3 2.550283 1_565
Al6 Mn0 2.550283 1_566
Al6 Mn2 2.550283 1_556
Al6 Nb6 2.775794 1_555
Al6 Nb8 2.775794 1_555
Al6 Nb0 2.775794 1_555
Al6 Nb3 2.983307 1_556
Al6 Nb1 2.983307 1_555
Al6 Nb5 2.983307 1_565
Al7 Mn1 2.550283 1_555
Al7 Mn2 2.550283 1_555
Al7 Mn3 2.550283 1_555
Al7 Nb2 2.775794 1_555
Al7 Nb5 2.775794 1_555
Al7 Nb3 2.775794 1_555
Al7 Nb7 2.983307 1_455
Al7 Nb0 2.983307 1_545
Al7 Nb6 2.983307 1_554
C0 Nb7 2.221551 1_555
C0 Nb1 2.221551 1_555
C0 Nb6 2.221551 1_555
C0 Nb4 2.221551 1_555
C0 Nb0 2.221551 1_555
C0 Nb10 2.221551 1_555
C1 Nb9 2.221551 1_455
C1 Nb5 2.221551 1_555
C1 Nb1 2.221551 1_555
C1 Nb11 2.221551 1_455
C1 Nb3 2.221551 1_555
C1 Nb7 2.221551 1_455
C2 Nb9 2.221551 1_545
C2 Nb5 2.221551 1_555
C2 Nb10 2.221551 1_555
C2 Nb8 2.221551 1_545
C2 Nb2 2.221551 1_555
C2 Nb0 2.221551 1_545
C3 Nb11 2.221551 1_554
C3 Nb3 2.221551 1_555
C3 Nb4 2.221551 1_555
C3 Nb6 2.221551 1_554
C3 Nb8 2.221551 1_554
C3 Nb2 2.221551 1_555
