# generated using pymatgen
data_Ca2ZnGa2Ag
_symmetry_space_group_name_H-M   'P 1'
_cell_length_a   5.73301383
_cell_length_b   5.73301443
_cell_length_c   7.24086785
_cell_angle_alpha   51.89768349
_cell_angle_beta   51.89767966
_cell_angle_gamma   46.48882955
_symmetry_Int_Tables_number   1
_chemical_formula_structural   Ca2ZnGa2Ag
_chemical_formula_sum   'Ca2 Zn1 Ga2 Ag1'
_cell_volume   127.88418050
_cell_formula_units_Z   1
loop_
 _symmetry_equiv_pos_site_id
 _symmetry_equiv_pos_as_xyz
  1  'x, y, z'
loop_
 _atom_site_type_symbol
 _atom_site_label
 _atom_site_symmetry_multiplicity
 _atom_site_fract_x
 _atom_site_fract_y
 _atom_site_fract_z
 _atom_site_occupancy
  Ca  Ca0  1  0.54399455  0.54399455  0.70437849  1
  Ca  Ca1  1  0.45735783  0.45735783  0.29239423  1
  Zn  Zn0  1  0.16582341  0.16582341  0.88054654  1
  Ga  Ga0  1  0.83095637  0.83095637  0.73084525  1
  Ga  Ga1  1  0.83954598  0.83954598  0.09900332  1
  Ag  Ag0  1  0.16232386  0.16232386  0.29283518  1
loop_
_geom_bond_atom_site_label_1
_geom_bond_atom_site_label_2
_geom_bond_distance
_geom_bond_site_symmetry_2
Ca0 Ga0 3.100906 1_455
Ca0 Ga0 3.100907 1_545
Ca0 Ga1 3.107528 1_456
Ca0 Ga1 3.107528 1_546
Ca0 Ga0 3.155137 1_555
Ca0 Ga1 3.252273 1_555
Ca0 Zn0 3.254663 1_655
Ca0 Zn0 3.254664 1_565
Ca0 Zn0 3.267176 1_555
Ca0 Ca1 3.659144 1_555
Ca0 Ca1 3.706973 1_556
Ca0 Ca1 3.941340 1_655
Ca0 Ca1 3.941341 1_565
Ca1 Zn0 3.162500 1_555
Ca1 Zn0 3.168401 1_654
Ca1 Zn0 3.168402 1_564
Ca1 Ga0 3.244852 1_554
Ca1 Ga1 3.255795 1_555
Ca1 Ga1 3.309848 1_455
Ca1 Ga1 3.309848 1_545
Ca1 Ga0 3.360521 1_455
Ca1 Ga0 3.360522 1_545
Ga0 Zn0 2.605354 1_565
Ga0 Zn0 2.605355 1_655
Ga0 Ga1 2.727382 1_556
Ga1 Zn0 2.648554 1_664
Ag0 Ga1 2.656185 1_545
Ag0 Ga1 2.656185 1_455
Ag0 Ga0 2.715643 1_445
Ag0 Zn0 2.960693 1_554
Ag0 Ca1 3.106136 1_555
Ag0 Ca1 3.129118 1_455
Ag0 Ca1 3.129119 1_545
Ag0 Ca0 3.250164 1_455
Ag0 Ca0 3.250164 1_545
Ag0 Ca0 3.363245 1_554
