# generated using pymatgen
data_Zr10BeSn6Ge
_symmetry_space_group_name_H-M   'P 1'
_cell_length_a   8.65605237
_cell_length_b   8.65605283
_cell_length_c   5.86286277
_cell_angle_alpha   90.00000000
_cell_angle_beta   90.00000000
_cell_angle_gamma   120.00000199
_symmetry_Int_Tables_number   1
_chemical_formula_structural   Zr10BeSn6Ge
_chemical_formula_sum   'Zr10 Be1 Sn6 Ge1'
_cell_volume   380.43470265
_cell_formula_units_Z   1
loop_
 _symmetry_equiv_pos_site_id
 _symmetry_equiv_pos_as_xyz
  1  'x, y, z'
loop_
 _atom_site_type_symbol
 _atom_site_label
 _atom_site_symmetry_multiplicity
 _atom_site_fract_x
 _atom_site_fract_y
 _atom_site_fract_z
 _atom_site_occupancy
  Zr  Zr0  1  0.66666700  0.33333300  0.00000000  1
  Zr  Zr1  1  0.33333300  0.66666700  0.00000000  1
  Zr  Zr2  1  0.33333300  0.66666700  0.50000000  1
  Zr  Zr3  1  0.66666700  0.33333300  0.50000000  1
  Zr  Zr4  1  0.74289909  0.74289909  0.75850339  1
  Zr  Zr5  1  0.25710091  1.00000000  0.75850339  1
  Zr  Zr6  1  0.00000000  0.25710091  0.75850339  1
  Zr  Zr7  1  0.25710091  0.25710091  0.24149661  1
  Zr  Zr8  1  0.74289909  0.00000000  0.24149661  1
  Zr  Zr9  1  0.00000000  0.74289909  0.24149661  1
  Be  Be0  1  0.00000000  0.00000000  0.00000000  1
  Sn  Sn0  1  0.39143121  0.39143121  0.74822236  1
  Sn  Sn1  1  0.60856879  1.00000000  0.74822236  1
  Sn  Sn2  1  0.00000000  0.60856879  0.74822236  1
  Sn  Sn3  1  0.60856879  0.60856879  0.25177764  1
  Sn  Sn4  1  0.39143121  0.00000000  0.25177764  1
  Sn  Sn5  1  0.00000000  0.39143121  0.25177764  1
  Ge  Ge0  1  0.00000000  0.00000000  0.50000000  1
loop_
_geom_bond_atom_site_label_1
_geom_bond_atom_site_label_2
_geom_bond_distance
_geom_bond_site_symmetry_2
Be0 Zr7 2.637692 1_555
Be0 Zr4 2.637692 1_444
Be0 Zr5 2.637692 1_544
Be0 Zr8 2.637692 1_455
Be0 Zr6 2.637692 1_554
Be0 Zr9 2.637692 1_545
Sn0 Zr6 2.982640 1_555
Sn0 Zr5 2.982641 1_545
Sn0 Zr3 3.040563 1_555
Sn0 Zr2 3.040563 1_555
Sn0 Zr4 3.042921 1_555
Sn0 Zr0 3.050594 1_556
Sn0 Zr1 3.050594 1_556
Sn0 Zr7 3.117001 1_556
Sn0 Zr7 3.190308 1_555
Sn1 Zr6 2.982640 1_665
Sn1 Zr4 2.982641 1_555
Sn1 Zr3 3.040555 1_565
Sn1 Zr2 3.040558 1_555
Sn1 Zr5 3.042921 1_555
Sn1 Zr0 3.050587 1_566
Sn1 Zr1 3.050589 1_556
Sn1 Zr8 3.117001 1_566
Sn1 Zr8 3.190308 1_565
Sn2 Zr5 2.982641 1_555
Sn2 Zr4 2.982641 1_455
Sn2 Zr2 3.040555 1_555
Sn2 Zr3 3.040558 1_455
Sn2 Zr6 3.042922 1_555
Sn2 Zr1 3.050587 1_556
Sn2 Zr0 3.050589 1_456
Sn2 Zr9 3.117001 1_556
Sn2 Zr9 3.190308 1_555
Sn3 Zr9 2.982640 1_655
Sn3 Zr8 2.982641 1_565
Sn3 Zr2 3.040563 1_555
Sn3 Zr3 3.040563 1_555
Sn3 Zr7 3.042921 1_555
Sn3 Zr1 3.050594 1_555
Sn3 Zr0 3.050594 1_555
Sn3 Zr4 3.117001 1_554
Sn3 Zr4 3.190308 1_555
Sn4 Zr9 2.982640 1_545
Sn4 Zr7 2.982641 1_555
Sn4 Zr2 3.040555 1_545
Sn4 Zr3 3.040558 1_555
Sn4 Zr8 3.042921 1_555
Sn4 Zr1 3.050587 1_545
Sn4 Zr0 3.050589 1_555
Sn4 Zr5 3.117001 1_544
Sn4 Zr5 3.190308 1_545
Sn5 Zr8 2.982641 1_455
Sn5 Zr7 2.982641 1_555
Sn5 Zr3 3.040555 1_455
Sn5 Zr2 3.040558 1_555
Sn5 Zr9 3.042922 1_555
Sn5 Zr0 3.050587 1_455
Sn5 Zr1 3.050589 1_555
Sn5 Zr6 3.117001 1_554
Sn5 Zr6 3.190308 1_555
Ge0 Zr4 2.692528 1_445
Ge0 Zr7 2.692528 1_555
Ge0 Zr5 2.692528 1_545
Ge0 Zr8 2.692528 1_455
Ge0 Zr6 2.692528 1_555
Ge0 Zr9 2.692528 1_545
