# generated using pymatgen
data_Hf6Tc6NiAs5
_symmetry_space_group_name_H-M   'P 1'
_cell_length_a   7.71830212
_cell_length_b   7.71870558
_cell_length_c   7.71830259
_cell_angle_alpha   127.17623275
_cell_angle_beta   125.09521268
_cell_angle_gamma   79.67521651
_symmetry_Int_Tables_number   1
_chemical_formula_structural   Hf6Tc6NiAs5
_chemical_formula_sum   'Hf6 Tc6 Ni1 As5'
_cell_volume   289.62019136
_cell_formula_units_Z   1
loop_
 _symmetry_equiv_pos_site_id
 _symmetry_equiv_pos_as_xyz
  1  'x, y, z'
loop_
 _atom_site_type_symbol
 _atom_site_label
 _atom_site_symmetry_multiplicity
 _atom_site_fract_x
 _atom_site_fract_y
 _atom_site_fract_z
 _atom_site_occupancy
  Hf  Hf0  1  0.43671598  0.62788962  0.69117364  1
  Hf  Hf1  1  0.54401518  0.25261081  0.20859563  1
  Hf  Hf2  1  0.75007085  0.85081380  0.60074395  1
  Hf  Hf3  1  0.25000953  0.87297075  0.12296021  1
  Hf  Hf4  1  0.06331053  0.25412916  0.69081864  1
  Hf  Hf5  1  0.95582716  0.66441254  0.20858438  1
  Tc  Tc0  1  0.51227482  0.50562171  0.01805235  1
  Tc  Tc1  1  0.98756835  0.50562171  0.49334588  1
  Tc  Tc2  1  0.11136053  0.25316174  0.11177097  1
  Tc  Tc3  1  0.85867730  0.00036429  0.11175208  1
  Tc  Tc4  1  0.38861222  0.00036429  0.64168699  1
  Tc  Tc5  1  0.64139078  0.25316174  0.64180121  1
  Ni  Ni0  1  0.25018389  0.24843950  0.49825661  1
  As  As0  1  0.75000742  0.25664393  0.00663551  1
  As  As1  1  0.33171662  0.58663843  0.25176512  1
  As  As2  1  0.66526110  0.92006027  0.25193684  1
  As  As3  1  0.16812342  0.92006027  0.75479817  1
  As  As4  1  0.83487332  0.58663843  0.75492182  1
loop_
_geom_bond_atom_site_label_1
_geom_bond_atom_site_label_2
_geom_bond_distance
_geom_bond_site_symmetry_2
Hf0 Ni0 2.577617 1_555
Hf0 Tc0 2.929924 1_556
Hf0 Tc1 2.929929 1_455
Hf0 Tc5 2.954510 1_555
Hf0 Tc2 2.954510 1_555
Hf0 Tc4 3.054655 1_565
Hf0 Tc3 3.054655 1_566
Hf1 Tc2 2.973042 1_555
Hf1 Tc5 2.973043 1_555
Hf1 Tc3 2.980192 1_555
Hf1 Tc4 2.980192 1_554
Hf1 Tc1 2.986972 1_555
Hf1 Tc0 2.986976 1_555
Hf2 Tc1 2.910978 1_555
Hf2 Tc0 2.910986 1_555
Hf2 Tc2 2.937907 1_666
Hf2 Tc5 2.937911 1_565
Hf2 Tc3 2.938384 1_566
Hf2 Tc4 2.938388 1_565
Hf3 Ni0 2.577044 1_565
Hf3 Tc3 2.972383 1_465
Hf3 Tc4 2.972388 1_565
Hf3 Tc2 2.973003 1_565
Hf3 Tc5 2.973007 1_565
Hf3 Tc0 3.137774 1_555
Hf3 Tc1 3.137774 1_454
Hf4 Ni0 2.579654 1_555
Hf4 Tc0 2.928712 1_556
Hf4 Tc1 2.928717 1_455
Hf4 Tc4 2.952749 1_555
Hf4 Tc3 2.952749 1_455
Hf4 Tc5 3.055589 1_455
Hf4 Tc2 3.055589 1_556
Hf5 Tc3 2.974202 1_565
Hf5 Tc4 2.974206 1_665
Hf5 Tc5 2.979038 1_554
Hf5 Tc2 2.979042 1_655
Hf5 Tc0 2.986929 1_555
Hf5 Tc1 2.986929 1_555
Ni0 Tc5 2.547522 1_555
Ni0 Tc2 2.547528 1_555
Ni0 Tc4 2.549909 1_555
Ni0 Tc3 2.549914 1_455
Ni0 Tc0 2.571155 1_556
Ni0 Tc1 2.571165 1_455
As0 Tc0 2.405225 1_555
As0 Tc1 2.405225 1_555
As0 Tc5 2.415567 1_554
As0 Tc2 2.415572 1_655
As0 Tc4 2.416022 1_554
As0 Tc3 2.416026 1_555
As0 Hf2 2.787144 1_544
As0 Hf5 2.806348 1_555
As0 Hf1 2.807983 1_555
As1 Tc2 2.603944 1_555
As1 Tc0 2.608082 1_555
As1 Tc4 2.610786 1_565
As1 Hf5 2.719233 1_455
As1 Hf1 2.742011 1_555
As1 Hf2 2.749708 1_555
As1 Hf3 2.775883 1_555
As1 Hf4 2.790516 1_554
As1 Hf0 2.808440 1_555
As2 Tc3 2.604424 1_565
As2 Tc0 2.609633 1_555
As2 Tc5 2.610894 1_565
As2 Hf1 2.719032 1_565
As2 Hf5 2.741161 1_555
As2 Hf2 2.747604 1_555
As2 Hf3 2.776134 1_555
As2 Hf0 2.789447 1_554
As2 Hf4 2.806986 1_665
As3 Tc4 2.604417 1_565
As3 Tc1 2.609636 1_455
As3 Tc2 2.610898 1_566
As3 Hf1 2.719033 1_566
As3 Hf5 2.741160 1_455
As3 Hf2 2.747602 1_455
As3 Hf3 2.776137 1_556
As3 Hf0 2.789446 1_555
As3 Hf4 2.806981 1_565
As4 Tc5 2.603944 1_555
As4 Tc1 2.608082 1_555
As4 Tc3 2.610786 1_566
As4 Hf5 2.719229 1_556
As4 Hf1 2.742011 1_555
As4 Hf2 2.749704 1_555
As4 Hf3 2.775878 1_656
As4 Hf4 2.790516 1_655
As4 Hf0 2.808439 1_555
