# generated using pymatgen
data_Lu3Si2SnRu2
_symmetry_space_group_name_H-M   'P 1'
_cell_length_a   5.68179809
_cell_length_b   5.68180005
_cell_length_c   13.90614482
_cell_angle_alpha   90.00000000
_cell_angle_beta   90.00000000
_cell_angle_gamma   136.53245178
_symmetry_Int_Tables_number   1
_chemical_formula_structural   Lu3Si2SnRu2
_chemical_formula_sum   'Lu6 Si4 Sn2 Ru4'
_cell_volume   308.83843126
_cell_formula_units_Z   2
loop_
 _symmetry_equiv_pos_site_id
 _symmetry_equiv_pos_as_xyz
  1  'x, y, z'
loop_
 _atom_site_type_symbol
 _atom_site_label
 _atom_site_symmetry_multiplicity
 _atom_site_fract_x
 _atom_site_fract_y
 _atom_site_fract_z
 _atom_site_occupancy
  Lu  Lu0  1  0.64159063  0.35840937  0.25000000  1
  Lu  Lu1  1  0.35840937  0.64159063  0.75000000  1
  Lu  Lu2  1  0.92584318  0.07415682  0.10513598  1
  Lu  Lu3  1  0.07415682  0.92584318  0.89486402  1
  Lu  Lu4  1  0.07415682  0.92584318  0.60513598  1
  Lu  Lu5  1  0.92584318  0.07415682  0.39486402  1
  Si  Si0  1  0.61828861  0.38171139  0.04035555  1
  Si  Si1  1  0.38171139  0.61828861  0.95964445  1
  Si  Si2  1  0.38171139  0.61828861  0.54035555  1
  Si  Si3  1  0.61828861  0.38171139  0.45964445  1
  Sn  Sn0  1  0.34385543  0.65614457  0.25000000  1
  Sn  Sn1  1  0.65614457  0.34385543  0.75000000  1
  Ru  Ru0  1  0.79119440  0.20880560  0.57654411  1
  Ru  Ru1  1  0.20880560  0.79119440  0.42345589  1
  Ru  Ru2  1  0.20880560  0.79119440  0.07654411  1
  Ru  Ru3  1  0.79119440  0.20880560  0.92345589  1
loop_
_geom_bond_atom_site_label_1
_geom_bond_atom_site_label_2
_geom_bond_distance
_geom_bond_site_symmetry_2
Lu0 Si3 2.925704 1_555
Lu0 Si0 2.925704 1_555
Lu0 Sn0 2.997511 1_655
Lu0 Sn0 2.997512 1_545
Lu0 Sn0 3.142836 1_555
Lu0 Ru2 3.278444 1_655
Lu0 Ru1 3.278444 1_655
Lu0 Ru2 3.278445 1_545
Lu0 Ru1 3.278445 1_545
Lu1 Si1 2.925704 1_555
Lu1 Si2 2.925704 1_555
Lu1 Sn1 2.997511 1_455
Lu1 Sn1 2.997512 1_565
Lu1 Sn1 3.142836 1_555
Lu1 Ru0 3.278444 1_455
Lu1 Ru3 3.278444 1_455
Lu1 Ru0 3.278445 1_565
Lu1 Ru3 3.278445 1_565
Lu2 Ru3 2.898831 1_554
Lu2 Si1 2.955844 1_544
Lu2 Si1 2.955844 1_654
Lu2 Ru2 3.013245 1_645
Lu2 Sn0 3.038711 1_545
Lu2 Sn0 3.038711 1_655
Lu2 Si0 3.060185 1_655
Lu2 Si0 3.060186 1_545
Lu2 Ru2 3.135818 1_545
Lu2 Ru2 3.135820 1_655
Lu2 Si0 3.369155 1_555
Lu3 Ru2 2.898831 1_556
Lu3 Si0 2.955844 1_566
Lu3 Si0 2.955844 1_456
Lu3 Ru3 3.013245 1_465
Lu3 Sn1 3.038711 1_565
Lu3 Sn1 3.038711 1_455
Lu3 Si1 3.060185 1_455
Lu3 Si1 3.060186 1_565
Lu3 Ru3 3.135818 1_565
Lu3 Ru3 3.135820 1_455
Lu3 Si1 3.369155 1_555
Lu4 Ru1 2.898831 1_555
Lu4 Si3 2.955844 1_565
Lu4 Si3 2.955844 1_455
Lu4 Ru0 3.013245 1_465
Lu4 Sn1 3.038711 1_565
Lu4 Sn1 3.038711 1_455
Lu4 Si2 3.060185 1_455
Lu4 Si2 3.060186 1_565
Lu4 Ru0 3.135818 1_565
Lu4 Ru0 3.135820 1_455
Lu4 Si2 3.369155 1_555
Lu5 Ru0 2.898831 1_555
Lu5 Si2 2.955844 1_545
Lu5 Si2 2.955844 1_655
Lu5 Ru1 3.013245 1_645
Lu5 Sn0 3.038711 1_545
Lu5 Sn0 3.038711 1_655
Lu5 Si3 3.060185 1_655
Lu5 Si3 3.060186 1_545
Lu5 Ru1 3.135818 1_545
Lu5 Ru1 3.135820 1_655
Lu5 Si3 3.369155 1_555
Si0 Si1 2.737894 1_554
Si2 Si3 2.737894 1_555
Ru0 Si2 2.364900 1_655
Ru0 Si2 2.364901 1_545
Ru0 Si3 2.444149 1_555
Ru0 Sn1 2.801868 1_555
Ru1 Si3 2.364900 1_455
Ru1 Si3 2.364901 1_565
Ru1 Si2 2.444149 1_555
Ru1 Sn0 2.801868 1_555
Ru2 Si0 2.364900 1_455
Ru2 Si0 2.364901 1_565
Ru2 Si1 2.444149 1_554
Ru2 Sn0 2.801868 1_555
Ru3 Si1 2.364900 1_655
Ru3 Si1 2.364901 1_545
Ru3 Si0 2.444149 1_556
Ru3 Sn1 2.801868 1_555
