# generated using pymatgen
data_Ta12Zn12BN
_symmetry_space_group_name_H-M   'P 1'
_cell_length_a   8.13748405
_cell_length_b   8.13748469
_cell_length_c   8.13748438
_cell_angle_alpha   60.00000127
_cell_angle_beta   59.99999865
_cell_angle_gamma   60.00000401
_symmetry_Int_Tables_number   1
_chemical_formula_structural   Ta12Zn12BN
_chemical_formula_sum   'Ta12 Zn12 B1 N1'
_cell_volume   381.02679542
_cell_formula_units_Z   1
loop_
 _symmetry_equiv_pos_site_id
 _symmetry_equiv_pos_as_xyz
  1  'x, y, z'
loop_
 _atom_site_type_symbol
 _atom_site_label
 _atom_site_symmetry_multiplicity
 _atom_site_fract_x
 _atom_site_fract_y
 _atom_site_fract_z
 _atom_site_occupancy
  Ta  Ta0  1  0.19288390  0.80711610  0.19288390  1
  Ta  Ta1  1  0.43928082  0.06071918  0.43928082  1
  Ta  Ta2  1  0.43928082  0.06071918  0.06071918  1
  Ta  Ta3  1  0.43928082  0.43928082  0.06071918  1
  Ta  Ta4  1  0.19288390  0.80711610  0.80711610  1
  Ta  Ta5  1  0.06071918  0.43928082  0.06071918  1
  Ta  Ta6  1  0.80711610  0.80711610  0.19288390  1
  Ta  Ta7  1  0.06071918  0.43928082  0.43928082  1
  Ta  Ta8  1  0.19288390  0.19288390  0.80711610  1
  Ta  Ta9  1  0.80711610  0.19288390  0.19288390  1
  Ta  Ta10  1  0.80711610  0.19288390  0.80711610  1
  Ta  Ta11  1  0.06071918  0.06071918  0.43928082  1
  Zn  Zn0  1  0.83392356  0.49823233  0.83392356  1
  Zn  Zn1  1  0.41715582  0.41715582  0.74853053  1
  Zn  Zn2  1  0.74853053  0.41715582  0.41715582  1
  Zn  Zn3  1  0.41715582  0.41715582  0.41715582  1
  Zn  Zn4  1  0.83392356  0.83392356  0.49823233  1
  Zn  Zn5  1  0.41715582  0.74853053  0.41715582  1
  Zn  Zn6  1  0.83392356  0.83392356  0.83392356  1
  Zn  Zn7  1  0.49823233  0.83392356  0.83392356  1
  Zn  Zn8  1  0.62532332  0.12402903  0.62532332  1
  Zn  Zn9  1  0.62532332  0.62532332  0.12402903  1
  Zn  Zn10  1  0.12402903  0.62532332  0.62532332  1
  Zn  Zn11  1  0.62532332  0.62532332  0.62532332  1
  B  B0  1  0.00000000  0.00000000  0.00000000  1
  N  N0  1  0.25000000  0.25000000  0.25000000  1
loop_
_geom_bond_atom_site_label_1
_geom_bond_atom_site_label_2
_geom_bond_distance
_geom_bond_site_symmetry_2
Ta0 Zn4 2.720448 1_455
Ta0 Zn7 2.720448 1_554
Ta0 Zn5 2.911898 1_555
Ta0 Zn3 2.911906 1_555
Ta0 Zn9 2.921809 1_555
Ta0 Zn10 2.921809 1_555
Ta1 Zn3 2.732345 1_555
Ta1 Zn5 2.732361 1_545
Ta1 Zn4 2.945792 1_545
Ta1 Zn7 2.945792 1_545
Ta1 Zn8 2.949770 1_555
Ta1 Zn11 2.949776 1_545
Ta2 Zn5 2.732352 1_545
Ta2 Zn1 2.732352 1_554
Ta2 Zn7 2.945771 1_544
Ta2 Zn6 2.945782 1_544
Ta2 Zn8 2.949777 1_554
Ta2 Zn9 2.949778 1_545
Ta3 Zn3 2.732345 1_555
Ta3 Zn1 2.732361 1_554
Ta3 Zn0 2.945792 1_554
Ta3 Zn7 2.945792 1_554
Ta3 Zn9 2.949770 1_555
Ta3 Zn11 2.949776 1_554
Ta4 Zn6 2.720438 1_455
Ta4 Zn7 2.720462 1_555
Ta4 Zn5 2.911912 1_555
Ta4 Zn1 2.911912 1_555
Ta4 Zn11 2.921810 1_555
Ta4 Zn10 2.921816 1_555
Ta5 Zn1 2.732352 1_554
Ta5 Zn2 2.732352 1_455
Ta5 Zn0 2.945771 1_454
Ta5 Zn6 2.945783 1_454
Ta5 Zn9 2.949777 1_455
Ta5 Zn10 2.949777 1_554
Ta6 Zn6 2.720438 1_554
Ta6 Zn4 2.720462 1_555
Ta6 Zn5 2.911912 1_555
Ta6 Zn2 2.911912 1_555
Ta6 Zn11 2.921810 1_555
Ta6 Zn9 2.921815 1_555
Ta7 Zn3 2.732345 1_555
Ta7 Zn2 2.732361 1_455
Ta7 Zn0 2.945792 1_455
Ta7 Zn4 2.945792 1_455
Ta7 Zn10 2.949770 1_555
Ta7 Zn11 2.949776 1_455
Ta8 Zn0 2.720448 1_455
Ta8 Zn7 2.720448 1_545
Ta8 Zn1 2.911898 1_555
Ta8 Zn3 2.911905 1_555
Ta8 Zn8 2.921808 1_555
Ta8 Zn10 2.921809 1_555
Ta9 Zn0 2.720448 1_554
Ta9 Zn4 2.720448 1_545
Ta9 Zn2 2.911898 1_555
Ta9 Zn3 2.911906 1_555
Ta9 Zn8 2.921809 1_555
Ta9 Zn9 2.921809 1_555
Ta10 Zn6 2.720438 1_545
Ta10 Zn0 2.720462 1_555
Ta10 Zn1 2.911912 1_555
Ta10 Zn2 2.911912 1_555
Ta10 Zn11 2.921810 1_555
Ta10 Zn8 2.921815 1_555
Ta11 Zn5 2.732352 1_545
Ta11 Zn2 2.732352 1_455
Ta11 Zn4 2.945771 1_445
Ta11 Zn6 2.945782 1_445
Ta11 Zn8 2.949777 1_455
Ta11 Zn10 2.949778 1_545
Zn0 Zn10 2.490520 1_655
Zn0 Zn9 2.490521 1_556
Zn0 Zn11 2.490547 1_555
Zn0 Zn6 2.731682 1_555
Zn0 Zn4 2.731682 1_555
Zn0 Zn7 2.731682 1_555
Zn1 Zn10 2.493381 1_555
Zn1 Zn8 2.493381 1_555
Zn1 Zn11 2.493388 1_555
Zn1 Zn2 2.696556 1_555
Zn1 Zn3 2.696557 1_555
Zn1 Zn5 2.696557 1_555
Zn2 Zn8 2.493381 1_555
Zn2 Zn9 2.493381 1_555
Zn2 Zn3 2.696556 1_555
Zn2 Zn5 2.696557 1_555
Zn3 Zn9 2.493385 1_555
Zn3 Zn8 2.493386 1_555
Zn3 Zn5 2.696557 1_555
Zn4 Zn8 2.490521 1_565
Zn4 Zn7 2.731682 1_555
Zn4 Zn6 2.731682 1_555
Zn5 Zn9 2.493381 1_555
Zn6 Zn9 2.490538 1_556
Zn6 Zn8 2.490539 1_565
Zn6 Zn7 2.731682 1_555
Zn7 Zn8 2.490521 1_565
Zn7 Zn9 2.490521 1_556
Zn10 Zn4 2.490521 1_455
Zn10 Zn6 2.490538 1_455
Zn10 Zn5 2.493381 1_555
Zn10 Zn3 2.493386 1_555
Zn11 Zn4 2.490547 1_555
Zn11 Zn7 2.490547 1_555
Zn11 Zn5 2.493388 1_555
Zn11 Zn2 2.493388 1_555
B0 Ta8 2.219735 1_554
B0 Ta6 2.219735 1_445
B0 Ta9 2.219735 1_455
B0 Ta0 2.219735 1_545
B0 Ta10 2.219735 1_454
B0 Ta4 2.219735 1_544
N0 Ta3 2.178270 1_555
N0 Ta11 2.178270 1_555
N0 Ta7 2.178270 1_555
N0 Ta1 2.178270 1_555
N0 Ta5 2.178270 1_555
N0 Ta2 2.178270 1_555
