# generated using pymatgen
data_Ca10Si4SnSb
_symmetry_space_group_name_H-M   'P 1'
_cell_length_a   9.30544307
_cell_length_b   9.30544198
_cell_length_c   9.30544295
_cell_angle_alpha   130.72843342
_cell_angle_beta   130.72843535
_cell_angle_gamma   72.24490508
_symmetry_Int_Tables_number   1
_chemical_formula_structural   Ca10Si4SnSb
_chemical_formula_sum   'Ca10 Si4 Sn1 Sb1'
_cell_volume   452.38632988
_cell_formula_units_Z   1
loop_
 _symmetry_equiv_pos_site_id
 _symmetry_equiv_pos_as_xyz
  1  'x, y, z'
loop_
 _atom_site_type_symbol
 _atom_site_label
 _atom_site_symmetry_multiplicity
 _atom_site_fract_x
 _atom_site_fract_y
 _atom_site_fract_z
 _atom_site_occupancy
  Ca  Ca0  1  0.81117317  0.31338819  0.85086849  1
  Ca  Ca1  1  0.18661181  0.68882683  0.14913151  1
  Ca  Ca2  1  0.46251970  0.96030468  0.14913151  1
  Ca  Ca3  1  0.31338819  0.46251970  0.50221502  1
  Ca  Ca4  1  0.03748030  0.18661181  0.49778498  1
  Ca  Ca5  1  0.53969532  0.03748030  0.85086849  1
  Ca  Ca6  1  0.68882683  0.53969532  0.50221502  1
  Ca  Ca7  1  0.96030468  0.81117317  0.49778498  1
  Ca  Ca8  1  0.99829704  0.99829704  0.00000000  1
  Ca  Ca9  1  0.50170296  0.50170296  1.00000000  1
  Si  Si0  1  0.11295584  0.61295584  0.72591167  1
  Si  Si1  1  0.88704416  0.38704416  0.27408833  1
  Si  Si2  1  0.61295584  0.88704416  0.50000000  1
  Si  Si3  1  0.38704416  0.11295584  0.50000000  1
  Sn  Sn0  1  0.75000000  0.75000000  0.00000000  1
  Sb  Sb0  1  0.25000000  0.25000000  0.00000000  1
loop_
_geom_bond_atom_site_label_1
_geom_bond_atom_site_label_2
_geom_bond_distance
_geom_bond_site_symmetry_2
Ca0 Si3 3.072897 1_555
Ca0 Si2 3.082682 1_545
Ca0 Si1 3.101996 1_556
Ca0 Sn0 3.319563 1_556
Ca0 Sb0 3.339582 1_656
Ca1 Si3 3.072897 1_565
Ca1 Si2 3.082682 1_555
Ca1 Si0 3.101996 1_554
Ca1 Sn0 3.319563 1_455
Ca1 Sb0 3.339582 1_555
Ca2 Si2 3.072897 1_555
Ca2 Si3 3.082682 1_565
Ca2 Si0 3.101996 1_554
Ca2 Sn0 3.319563 1_555
Ca2 Sb0 3.339582 1_565
Ca3 Si0 3.072897 1_555
Ca3 Si1 3.082682 1_455
Ca3 Si3 3.101996 1_555
Ca3 Sn0 3.319562 1_556
Ca3 Sb0 3.339582 1_555
Ca4 Si1 3.072897 1_455
Ca4 Si0 3.082682 1_555
Ca4 Si3 3.101997 1_555
Ca4 Sn0 3.319562 1_445
Ca4 Sb0 3.339582 1_556
Ca5 Si2 3.072897 1_545
Ca5 Si3 3.082682 1_555
Ca5 Si1 3.101996 1_556
Ca5 Sn0 3.319563 1_546
Ca5 Sb0 3.339582 1_556
Ca6 Si0 3.072897 1_655
Ca6 Si1 3.082683 1_555
Ca6 Si2 3.101996 1_555
Ca6 Sn0 3.319563 1_556
Ca6 Sb0 3.339582 1_555
Ca7 Si1 3.072897 1_555
Ca7 Si0 3.082682 1_655
Ca7 Si2 3.101997 1_555
Ca7 Sn0 3.319563 1_555
Ca7 Sb0 3.339581 1_666
Ca8 Si3 3.128021 1_665
Ca8 Si2 3.128021 1_554
Ca8 Si1 3.128021 1_565
Ca8 Si0 3.128021 1_654
Ca8 Sn0 3.732676 1_555
Ca9 Si3 3.128021 1_555
Ca9 Si2 3.128021 1_556
Ca9 Si1 3.128021 1_556
Ca9 Si0 3.128021 1_555
Ca9 Sn0 3.732676 1_556
Si0 Si1 2.478557 1_455
Si2 Si3 2.478558 1_565
