# generated using pymatgen
data_Ba2CrHO3
_symmetry_space_group_name_H-M   'P 1'
_cell_length_a   4.01928790
_cell_length_b   4.01930134
_cell_length_c   13.76133911
_cell_angle_alpha   90.00000000
_cell_angle_beta   90.00000000
_cell_angle_gamma   90.00000000
_symmetry_Int_Tables_number   1
_chemical_formula_structural   Ba2CrHO3
_chemical_formula_sum   'Ba4 Cr2 H2 O6'
_cell_volume   222.31070770
_cell_formula_units_Z   2
loop_
 _symmetry_equiv_pos_site_id
 _symmetry_equiv_pos_as_xyz
  1  'x, y, z'
loop_
 _atom_site_type_symbol
 _atom_site_label
 _atom_site_symmetry_multiplicity
 _atom_site_fract_x
 _atom_site_fract_y
 _atom_site_fract_z
 _atom_site_occupancy
  Ba  Ba0  1  0.49999900  0.00000000  0.10410429  1
  Ba  Ba1  1  0.49999900  0.00000000  0.37472595  1
  Ba  Ba2  1  0.00000000  0.49999900  0.62527405  1
  Ba  Ba3  1  0.00000000  0.49999900  0.89589571  1
  Cr  Cr0  1  0.00000000  0.49999900  0.23310235  1
  Cr  Cr1  1  0.49999900  0.00000000  0.76689765  1
  H  H0  1  0.00000000  0.49999900  0.40739597  1
  H  H1  1  0.49999900  0.00000000  0.59260503  1
  O  O0  1  0.00000000  0.49999900  0.09491051  1
  O  O1  1  0.00000000  0.00000000  0.25001499  1
  O  O2  1  0.49999900  0.49999900  0.25001699  1
  O  O3  1  0.00000000  0.00000000  0.74998301  1
  O  O4  1  0.49999900  0.49999900  0.74998501  1
  O  O5  1  0.49999900  0.00000000  0.90508949  1
loop_
_geom_bond_atom_site_label_1
_geom_bond_atom_site_label_2
_geom_bond_distance
_geom_bond_site_symmetry_2
Ba0 O5 2.738710 1_554
Ba0 O1 2.840849 1_555
Ba0 O1 2.840855 1_655
Ba0 O2 2.840873 1_555
Ba0 O2 2.840879 1_545
Ba0 O0 2.844879 1_555
Ba0 O0 2.844885 1_655
Ba0 O0 2.844885 1_545
Ba0 O0 2.844891 1_645
Ba1 O2 2.642706 1_555
Ba1 O2 2.642712 1_545
Ba1 O1 2.642718 1_555
Ba1 O1 2.642725 1_655
Ba1 H0 2.877405 1_555
Ba1 H0 2.877410 1_655
Ba1 H0 2.877410 1_545
Ba1 H0 2.877416 1_645
Ba1 H1 2.998308 1_555
Ba2 O3 2.642706 1_555
Ba2 O3 2.642712 1_565
Ba2 O4 2.642718 1_555
Ba2 O4 2.642725 1_455
Ba2 H1 2.877402 1_555
Ba2 H1 2.877408 1_455
Ba2 H1 2.877408 1_565
Ba2 H1 2.877414 1_465
Ba2 H0 2.998294 1_555
Ba3 O0 2.738710 1_556
Ba3 O4 2.840849 1_555
Ba3 O4 2.840855 1_455
Ba3 O3 2.840873 1_555
Ba3 O3 2.840879 1_565
Ba3 O5 2.844879 1_555
Ba3 O5 2.844885 1_455
Ba3 O5 2.844885 1_565
Ba3 O5 2.844891 1_465
Cr0 O0 1.901705 1_555
Cr0 O2 2.023075 1_555
Cr0 O1 2.023079 1_555
Cr0 O2 2.023083 1_455
Cr0 O1 2.023087 1_565
Cr0 H0 2.398514 1_555
Cr1 O5 1.901705 1_555
Cr1 O3 2.023075 1_555
Cr1 O4 2.023079 1_555
Cr1 O3 2.023083 1_655
Cr1 O4 2.023087 1_545
Cr1 H1 2.398500 1_555
