# generated using pymatgen
data_Ba3NaFeO6
_symmetry_space_group_name_H-M   'P 1'
_cell_length_a   7.00134161
_cell_length_b   7.00134093
_cell_length_c   7.00134105
_cell_angle_alpha   91.74899730
_cell_angle_beta   91.74899245
_cell_angle_gamma   91.74898779
_symmetry_Int_Tables_number   1
_chemical_formula_structural   Ba3NaFeO6
_chemical_formula_sum   'Ba6 Na2 Fe2 O12'
_cell_volume   342.70754050
_cell_formula_units_Z   2
loop_
 _symmetry_equiv_pos_site_id
 _symmetry_equiv_pos_as_xyz
  1  'x, y, z'
loop_
 _atom_site_type_symbol
 _atom_site_label
 _atom_site_symmetry_multiplicity
 _atom_site_fract_x
 _atom_site_fract_y
 _atom_site_fract_z
 _atom_site_occupancy
  Ba  Ba0  1  0.89332824  0.25000000  0.60667176  1
  Ba  Ba1  1  0.60667176  0.89332824  0.25000000  1
  Ba  Ba2  1  0.75000000  0.39332824  0.10667176  1
  Ba  Ba3  1  0.10667176  0.75000000  0.39332824  1
  Ba  Ba4  1  0.39332824  0.10667176  0.75000000  1
  Ba  Ba5  1  0.25000000  0.60667176  0.89332824  1
  Na  Na0  1  0.25000000  0.25000000  0.25000000  1
  Na  Na1  1  0.75000000  0.75000000  0.75000000  1
  Fe  Fe0  1  0.00000000  0.00000000  0.00000000  1
  Fe  Fe1  1  0.50000000  0.50000000  0.50000000  1
  O  O0  1  0.54997414  0.24488177  0.41902825  1
  O  O1  1  0.41902825  0.54997414  0.24488177  1
  O  O2  1  0.24488177  0.41902825  0.54997414  1
  O  O3  1  0.95002586  0.08097175  0.25511823  1
  O  O4  1  0.25511823  0.95002586  0.08097175  1
  O  O5  1  0.08097175  0.25511823  0.95002586  1
  O  O6  1  0.45002586  0.75511823  0.58097175  1
  O  O7  1  0.58097175  0.45002586  0.75511823  1
  O  O8  1  0.75511823  0.58097175  0.45002586  1
  O  O9  1  0.04997414  0.91902825  0.74488177  1
  O  O10  1  0.91902825  0.74488177  0.04997414  1
  O  O11  1  0.74488177  0.04997414  0.91902825  1
loop_
_geom_bond_atom_site_label_1
_geom_bond_atom_site_label_2
_geom_bond_distance
_geom_bond_site_symmetry_2
Ba0 O5 2.702822 1_655
Ba0 O0 2.702823 1_555
Ba0 O3 2.743503 1_555
Ba0 O2 2.743503 1_655
Ba0 O9 2.781372 1_645
Ba0 O8 2.781372 1_555
Ba0 O7 2.839171 1_555
Ba0 O11 2.839171 1_555
Ba1 O1 2.702823 1_555
Ba1 O3 2.702823 1_565
Ba1 O0 2.743503 1_565
Ba1 O4 2.743503 1_555
Ba1 O11 2.781372 1_564
Ba1 O6 2.781372 1_555
Ba1 O10 2.839171 1_555
Ba1 O8 2.839171 1_555
Ba2 O11 2.702822 1_554
Ba2 O8 2.702822 1_555
Ba2 O7 2.743503 1_554
Ba2 O10 2.743503 1_555
Ba2 O1 2.781372 1_555
Ba2 O5 2.781372 1_654
Ba2 O3 2.839171 1_555
Ba2 O0 2.839171 1_555
Ba3 O10 2.702822 1_455
Ba3 O6 2.702823 1_555
Ba3 O9 2.743503 1_555
Ba3 O8 2.743503 1_455
Ba3 O3 2.781372 1_465
Ba3 O2 2.781372 1_555
Ba3 O1 2.839171 1_555
Ba3 O4 2.839171 1_555
Ba4 O7 2.702823 1_555
Ba4 O9 2.702823 1_545
Ba4 O6 2.743503 1_545
Ba4 O11 2.743503 1_555
Ba4 O4 2.781372 1_546
Ba4 O0 2.781372 1_555
Ba4 O5 2.839171 1_555
Ba4 O2 2.839171 1_555
Ba5 O4 2.702822 1_556
Ba5 O2 2.702822 1_555
Ba5 O1 2.743503 1_556
Ba5 O5 2.743503 1_555
Ba5 O7 2.781372 1_555
Ba5 O10 2.781372 1_456
Ba5 O9 2.839171 1_555
Ba5 O6 2.839171 1_555
Na0 O4 2.380792 1_545
Na0 O2 2.380792 1_555
Na0 O5 2.380793 1_554
Na0 O1 2.380793 1_555
Na0 O0 2.380793 1_555
Na0 O3 2.380793 1_455
Na1 O11 2.380792 1_565
Na1 O8 2.380792 1_555
Na1 O10 2.380793 1_556
Na1 O7 2.380793 1_555
Na1 O6 2.380793 1_555
Na1 O9 2.380793 1_655
Fe0 O3 1.903328 1_455
Fe0 O9 1.903328 1_544
Fe0 O10 1.903328 1_445
Fe0 O5 1.903328 1_554
Fe0 O4 1.903328 1_545
Fe0 O11 1.903328 1_454
Fe1 O6 1.903328 1_555
Fe1 O0 1.903328 1_555
Fe1 O7 1.903328 1_555
Fe1 O1 1.903328 1_555
Fe1 O8 1.903328 1_555
Fe1 O2 1.903328 1_555
