# generated using pymatgen
data_RbZn4(BiO4)3
_symmetry_space_group_name_H-M   'P 1'
_cell_length_a   6.95266144
_cell_length_b   6.95266043
_cell_length_c   6.95266115
_cell_angle_alpha   107.61816243
_cell_angle_beta   107.61816296
_cell_angle_gamma   107.61817403
_symmetry_Int_Tables_number   1
_chemical_formula_structural   RbZn4(BiO4)3
_chemical_formula_sum   'Rb1 Zn4 Bi3 O12'
_cell_volume   275.04105326
_cell_formula_units_Z   1
loop_
 _symmetry_equiv_pos_site_id
 _symmetry_equiv_pos_as_xyz
  1  'x, y, z'
loop_
 _atom_site_type_symbol
 _atom_site_label
 _atom_site_symmetry_multiplicity
 _atom_site_fract_x
 _atom_site_fract_y
 _atom_site_fract_z
 _atom_site_occupancy
  Rb  Rb0  1  0.50178650  0.50178650  0.50178650  1
  Zn  Zn0  1  0.63548023  0.02766395  0.51397575  1
  Zn  Zn1  1  0.02766395  0.51397575  0.63548023  1
  Zn  Zn2  1  0.51397575  0.63548023  0.02766395  1
  Zn  Zn3  1  0.98591981  0.98591981  0.98591981  1
  Bi  Bi0  1  0.18336827  0.07007349  0.65017085  1
  Bi  Bi1  1  0.65017085  0.18336827  0.07007349  1
  Bi  Bi2  1  0.07007349  0.65017085  0.18336827  1
  O  O0  1  0.66163496  0.87685552  0.96111093  1
  O  O1  1  0.96111093  0.66163496  0.87685552  1
  O  O2  1  0.74746394  0.25082931  0.40913699  1
  O  O3  1  0.40913699  0.74746394  0.25082931  1
  O  O4  1  0.87685552  0.96111093  0.66163496  1
  O  O5  1  0.25082931  0.40913699  0.74746394  1
  O  O6  1  0.11488125  0.99283718  0.30917901  1
  O  O7  1  0.99283718  0.30917901  0.11488125  1
  O  O8  1  0.30917901  0.11488125  0.99283718  1
  O  O9  1  0.16032063  0.73013465  0.53329478  1
  O  O10  1  0.73013465  0.53329478  0.16032063  1
  O  O11  1  0.53329478  0.16032063  0.73013465  1
loop_
_geom_bond_atom_site_label_1
_geom_bond_atom_site_label_2
_geom_bond_distance
_geom_bond_site_symmetry_2
Bi0 O4 2.069746 1_445
Bi0 O5 2.099565 1_555
Bi0 O6 2.127667 1_545
Bi0 O8 2.159271 1_555
Bi0 O11 2.160519 1_555
Bi0 O9 2.191197 1_545
Bi1 O0 2.069746 1_544
Bi1 O2 2.099566 1_555
Bi1 O8 2.127667 1_554
Bi1 O7 2.159271 1_555
Bi1 O10 2.160519 1_555
Bi1 O11 2.191197 1_554
Bi2 O1 2.069746 1_454
Bi2 O3 2.099566 1_555
Bi2 O7 2.127667 1_455
Bi2 O6 2.159271 1_555
Bi2 O9 2.160519 1_555
Bi2 O10 2.191197 1_455
O0 Zn2 1.949134 1_556
O0 Zn3 2.082939 1_555
O0 Rb0 3.047938 1_555
O1 Zn1 1.949134 1_655
O1 Zn3 2.082939 1_555
O1 Rb0 3.047938 1_555
O2 Zn0 1.960058 1_555
O2 Zn1 1.965381 1_655
O2 Rb0 2.857763 1_555
O3 Zn2 1.960058 1_555
O3 Zn0 1.965381 1_565
O3 Rb0 2.857763 1_555
O4 Zn0 1.949134 1_565
O4 Zn3 2.082939 1_555
O4 Rb0 3.047937 1_555
O5 Zn1 1.960058 1_555
O5 Zn2 1.965381 1_556
O5 Rb0 2.857763 1_555
O6 Zn3 2.132170 1_454
O6 Rb0 3.277132 1_565
O7 Zn3 2.132169 1_544
O7 Rb0 3.277132 1_655
O8 Zn3 2.132169 1_445
O8 Rb0 3.277132 1_556
O9 Zn1 1.953969 1_555
O9 Rb0 3.254356 1_555
O10 Zn2 1.953969 1_555
O10 Rb0 3.254356 1_555
O11 Zn0 1.953969 1_555
O11 Rb0 3.254355 1_555
