# generated using pymatgen
data_HfZrTe2P
_symmetry_space_group_name_H-M   'P 1'
_cell_length_a   10.40450985
_cell_length_b   10.40450964
_cell_length_c   10.40451019
_cell_angle_alpha   21.20330711
_cell_angle_beta   21.20331232
_cell_angle_gamma   21.20330386
_symmetry_Int_Tables_number   1
_chemical_formula_structural   HfZrTe2P
_chemical_formula_sum   'Hf1 Zr1 Te2 P1'
_cell_volume   129.05274267
_cell_formula_units_Z   1
loop_
 _symmetry_equiv_pos_site_id
 _symmetry_equiv_pos_as_xyz
  1  'x, y, z'
loop_
 _atom_site_type_symbol
 _atom_site_label
 _atom_site_symmetry_multiplicity
 _atom_site_fract_x
 _atom_site_fract_y
 _atom_site_fract_z
 _atom_site_occupancy
  Hf  Hf0  1  0.61956092  0.61956092  0.61956092  1
  Zr  Zr0  1  0.38031046  0.38031046  0.38031046  1
  Te  Te0  1  0.22559983  0.22559983  0.22559983  1
  Te  Te1  1  0.77560039  0.77560039  0.77560039  1
  P  P0  1  0.99892740  0.99892740  0.99892740  1
loop_
_geom_bond_atom_site_label_1
_geom_bond_atom_site_label_2
_geom_bond_distance
_geom_bond_site_symmetry_2
Hf0 P0 2.618592 1_545
Hf0 P0 2.618592 1_455
Hf0 P0 2.618593 1_554
Hf0 Te0 2.881878 1_565
Hf0 Te0 2.881878 1_655
Hf0 Te0 2.881879 1_556
Te1 Zr0 2.908051 1_565
Te1 Zr0 2.908052 1_655
Te1 Zr0 2.908052 1_556
P0 Zr0 2.652080 1_656
P0 Zr0 2.652081 1_566
P0 Zr0 2.652081 1_665
