# generated using pymatgen
data_Ba2Hf6BBr17
_symmetry_space_group_name_H-M   'P 1'
_cell_length_a   10.03736728
_cell_length_b   10.03724962
_cell_length_c   10.03876927
_cell_angle_alpha   105.32451811
_cell_angle_beta   118.13318630
_cell_angle_gamma   105.32297902
_symmetry_Int_Tables_number   1
_chemical_formula_structural   Ba2Hf6BBr17
_chemical_formula_sum   'Ba2 Hf6 B1 Br17'
_cell_volume   764.99739772
_cell_formula_units_Z   1
loop_
 _symmetry_equiv_pos_site_id
 _symmetry_equiv_pos_as_xyz
  1  'x, y, z'
loop_
 _atom_site_type_symbol
 _atom_site_label
 _atom_site_symmetry_multiplicity
 _atom_site_fract_x
 _atom_site_fract_y
 _atom_site_fract_z
 _atom_site_occupancy
  Ba  Ba0  1  0.75000821  0.50008030  0.25005157  1
  Ba  Ba1  1  0.24995714  0.50002262  0.75005065  1
  Hf  Hf0  1  0.17681152  0.23914217  0.06221727  1
  Hf  Hf1  1  0.93770560  0.11464544  0.17683731  1
  Hf  Hf2  1  0.22293763  0.00004448  0.22293438  1
  Hf  Hf3  1  0.77705624  0.99995934  0.77708586  1
  Hf  Hf4  1  0.06224106  0.88534573  0.82317770  1
  Hf  Hf5  1  0.82318857  0.76087686  0.93786967  1
  B  B0  1  0.99998307  0.00000226  0.00002776  1
  Br  Br0  1  0.33024710  0.87023024  0.05068792  1
  Br  Br1  1  0.40104882  0.53670812  0.13542336  1
  Br  Br2  1  0.72233256  0.85476740  0.13241713  1
  Br  Br3  1  0.05075306  0.72053193  0.18060210  1
  Br  Br4  1  0.13242838  0.41010108  0.27765474  1
  Br  Br5  1  0.46003676  0.27962959  0.33020295  1
  Br  Br6  1  0.86441769  0.26573695  0.40113819  1
  Br  Br7  1  0.18052541  0.12990454  0.46007822  1
  Br  Br8  1  0.50040761  0.99998243  0.49955820  1
  Br  Br9  1  0.81949721  0.87001397  0.53996837  1
  Br  Br10  1  0.13555477  0.73431829  0.59888387  1
  Br  Br11  1  0.53994025  0.72035326  0.66983275  1
  Br  Br12  1  0.86754528  0.58988973  0.72245248  1
  Br  Br13  1  0.94926709  0.27948583  0.81946305  1
  Br  Br14  1  0.27760027  0.14521846  0.86756840  1
  Br  Br15  1  0.59887453  0.46328252  0.86464327  1
  Br  Br16  1  0.66963319  0.12972645  0.94917083  1
loop_
_geom_bond_atom_site_label_1
_geom_bond_atom_site_label_2
_geom_bond_distance
_geom_bond_site_symmetry_2
Ba0 Br15 3.289465 1_554
Ba0 Br6 3.289780 1_555
Ba0 Br10 3.290305 1_655
Ba0 Br1 3.291042 1_555
Ba0 Br9 3.707958 1_555
Ba0 Br5 3.709532 1_555
Ba0 Br3 3.710065 1_655
Ba0 Br16 3.711443 1_554
Ba1 Br1 3.289546 1_556
Ba1 Br10 3.289703 1_555
Ba1 Br6 3.290587 1_455
Ba1 Br15 3.291242 1_555
Ba1 Br11 3.709577 1_555
Ba1 Br0 3.709650 1_556
Ba1 Br13 3.709753 1_455
Ba1 Br7 3.709833 1_555
B0 Hf5 2.283030 1_544
B0 Hf1 2.283033 1_555
B0 Hf0 2.283152 1_655
B0 Hf4 2.283246 1_644
B0 Hf2 2.300418 1_655
B0 Hf3 2.300454 1_544
Br0 Hf4 2.660956 1_554
Br0 Hf2 2.674900 1_565
Br1 Hf0 2.872910 1_555
Br2 Hf5 2.668908 1_554
Br2 Hf1 2.678062 1_565
Br3 Hf5 2.660935 1_454
Br3 Hf2 2.674529 1_565
Br4 Hf1 2.669015 1_455
Br4 Hf0 2.677942 1_555
Br5 Hf0 2.661482 1_555
Br5 Hf2 2.674814 1_555
Br6 Hf1 2.873658 1_555
Br7 Hf1 2.661903 1_455
Br7 Hf2 2.675149 1_555
Br8 Hf2 2.859443 1_565
Br8 Hf3 2.859671 1_555
Br9 Hf4 2.661063 1_655
Br9 Hf3 2.675384 1_555
Br10 Hf4 2.873552 1_555
Br11 Hf5 2.661705 1_555
Br11 Hf3 2.675080 1_555
Br12 Hf4 2.669188 1_655
Br12 Hf5 2.677739 1_555
Br13 Hf0 2.660953 1_656
Br13 Hf3 2.674533 1_545
Br14 Hf0 2.669274 1_556
Br14 Hf4 2.678098 1_545
Br15 Hf5 2.873347 1_555
Br16 Hf1 2.661802 1_556
Br16 Hf3 2.674506 1_545
