# generated using pymatgen
data_Ta4B2MoP
_symmetry_space_group_name_H-M   'P 1'
_cell_length_a   7.17505370
_cell_length_b   7.17505354
_cell_length_c   7.17505258
_cell_angle_alpha   129.58538810
_cell_angle_beta   129.58537758
_cell_angle_gamma   74.07048020
_symmetry_Int_Tables_number   1
_chemical_formula_structural   Ta4B2MoP
_chemical_formula_sum   'Ta8 B4 Mo2 P2'
_cell_volume   213.93757453
_cell_formula_units_Z   2
loop_
 _symmetry_equiv_pos_site_id
 _symmetry_equiv_pos_as_xyz
  1  'x, y, z'
loop_
 _atom_site_type_symbol
 _atom_site_label
 _atom_site_symmetry_multiplicity
 _atom_site_fract_x
 _atom_site_fract_y
 _atom_site_fract_z
 _atom_site_occupancy
  Ta  Ta0  1  0.80820528  0.97314936  0.50000000  1
  Ta  Ta1  1  0.30820528  0.80820528  0.83505692  1
  Ta  Ta2  1  0.19179472  0.02685064  0.50000000  1
  Ta  Ta3  1  0.52685064  0.69179472  0.50000000  1
  Ta  Ta4  1  0.02685064  0.52685064  0.83505692  1
  Ta  Ta5  1  0.69179472  0.19179472  0.16494308  1
  Ta  Ta6  1  0.97314936  0.47314936  0.16494308  1
  Ta  Ta7  1  0.47314936  0.30820528  0.50000000  1
  B  B0  1  0.38161716  0.88161716  0.26323632  1
  B  B1  1  0.88161716  0.61838284  0.50000000  1
  B  B2  1  0.61838284  0.11838284  0.73676368  1
  B  B3  1  0.11838284  0.38161716  0.50000000  1
  Mo  Mo0  1  0.00000000  0.00000000  0.00000000  1
  Mo  Mo1  1  0.50000000  0.50000000  0.00000000  1
  P  P0  1  0.75000000  0.75000000  0.00000000  1
  P  P1  1  0.25000000  0.25000000  0.00000000  1
loop_
_geom_bond_atom_site_label_1
_geom_bond_atom_site_label_2
_geom_bond_distance
_geom_bond_site_symmetry_2
B0 B2 2.046385 1_565
B0 Ta2 2.395911 1_565
B0 Ta3 2.395911 1_555
B0 Ta7 2.395927 1_565
B0 Ta0 2.395927 1_555
B0 Mo1 2.441953 1_555
B0 Mo0 2.441953 1_565
B0 Ta4 2.453749 1_554
B0 Ta1 2.453757 1_554
B1 B3 2.046403 1_655
B1 Ta5 2.395921 1_555
B1 Ta1 2.395921 1_655
B1 Ta6 2.395929 1_555
B1 Ta4 2.395929 1_655
B1 Mo0 2.441949 1_666
B1 Mo1 2.441949 1_555
B1 Ta0 2.453750 1_555
B1 Ta3 2.453750 1_555
B2 Ta0 2.395911 1_545
B2 Ta7 2.395911 1_555
B2 Ta3 2.395927 1_545
B2 Ta2 2.395927 1_555
B2 Mo1 2.441953 1_556
B2 Mo0 2.441953 1_656
B2 Ta6 2.453749 1_556
B2 Ta5 2.453757 1_556
B3 Ta1 2.395921 1_555
B3 Ta5 2.395921 1_455
B3 Ta4 2.395929 1_555
B3 Ta6 2.395929 1_455
B3 Mo0 2.441949 1_555
B3 Mo1 2.441949 1_556
B3 Ta2 2.453750 1_555
B3 Ta7 2.453750 1_555
Mo0 Ta1 2.788186 1_544
Mo0 Ta5 2.788186 1_455
Mo0 Ta2 2.788190 1_555
Mo0 Ta0 2.788190 1_444
Mo0 Ta7 2.788190 1_555
Mo0 Ta3 2.788190 1_444
Mo0 Ta6 2.788193 1_455
Mo0 Ta4 2.788193 1_544
Mo0 P1 2.863798 1_555
Mo0 P0 2.863798 1_445
Mo1 Ta1 2.788186 1_554
Mo1 Ta5 2.788186 1_555
Mo1 Ta3 2.788190 1_555
Mo1 Ta7 2.788190 1_554
Mo1 Ta0 2.788190 1_555
Mo1 Ta2 2.788190 1_554
Mo1 Ta6 2.788193 1_555
Mo1 Ta4 2.788193 1_554
Mo1 P1 2.863798 1_555
Mo1 P0 2.863798 1_555
P0 Ta4 2.597188 1_654
P0 Ta6 2.597188 1_555
P0 Ta0 2.597191 1_555
P0 Ta7 2.597192 1_554
P0 Ta3 2.597192 1_554
P0 Ta2 2.597192 1_665
P0 Ta5 2.597194 1_565
P0 Ta1 2.597194 1_554
P1 Ta6 2.597188 1_455
P1 Ta4 2.597188 1_554
P1 Ta2 2.597191 1_554
P1 Ta3 2.597192 1_555
P1 Ta7 2.597192 1_555
P1 Ta0 2.597192 1_444
P1 Ta1 2.597194 1_544
P1 Ta5 2.597194 1_555
