# generated using pymatgen
data_K2ZnNiF6
_symmetry_space_group_name_H-M   'P 1'
_cell_length_a   5.69007143
_cell_length_b   5.69007180
_cell_length_c   5.69007126
_cell_angle_alpha   59.99999759
_cell_angle_beta   59.99999544
_cell_angle_gamma   59.99999911
_symmetry_Int_Tables_number   1
_chemical_formula_structural   K2ZnNiF6
_chemical_formula_sum   'K2 Zn1 Ni1 F6'
_cell_volume   130.26812026
_cell_formula_units_Z   1
loop_
 _symmetry_equiv_pos_site_id
 _symmetry_equiv_pos_as_xyz
  1  'x, y, z'
loop_
 _atom_site_type_symbol
 _atom_site_label
 _atom_site_symmetry_multiplicity
 _atom_site_fract_x
 _atom_site_fract_y
 _atom_site_fract_z
 _atom_site_occupancy
  K  K0  1  0.25000000  0.25000000  0.25000000  1
  K  K1  1  0.75000000  0.75000000  0.75000000  1
  Zn  Zn0  1  0.50000000  0.50000000  0.50000000  1
  Ni  Ni0  1  0.00000000  0.00000000  0.00000000  1
  F  F0  1  0.75149358  0.24850642  0.75149358  1
  F  F1  1  0.24850642  0.24850642  0.75149358  1
  F  F2  1  0.75149358  0.75149358  0.24850642  1
  F  F3  1  0.75149358  0.24850642  0.24850642  1
  F  F4  1  0.24850642  0.75149358  0.24850642  1
  F  F5  1  0.24850642  0.75149358  0.75149358  1
loop_
_geom_bond_atom_site_label_1
_geom_bond_atom_site_label_2
_geom_bond_distance
_geom_bond_site_symmetry_2
F0 Ni0 1.999725 1_656
F0 Zn0 2.023763 1_555
F0 K0 2.845061 1_655
F0 K0 2.845061 1_556
F0 K1 2.845061 1_545
F0 K1 2.845061 1_555
F1 Ni0 1.999725 1_556
F1 Zn0 2.023763 1_555
F1 K0 2.845061 1_555
F1 K0 2.845061 1_556
F1 K1 2.845061 1_545
F1 K1 2.845061 1_455
F2 Ni0 1.999725 1_665
F2 Zn0 2.023763 1_555
F2 K1 2.845061 1_555
F2 K1 2.845061 1_554
F2 K0 2.845061 1_565
F2 K0 2.845061 1_655
F3 Ni0 1.999725 1_655
F3 Zn0 2.023763 1_555
F3 K1 2.845061 1_545
F3 K1 2.845061 1_554
F3 K0 2.845061 1_555
F3 K0 2.845061 1_655
F4 Ni0 1.999725 1_565
F4 Zn0 2.023763 1_555
F4 K1 2.845061 1_455
F4 K1 2.845061 1_554
F4 K0 2.845061 1_565
F4 K0 2.845061 1_555
F5 Ni0 1.999725 1_566
F5 Zn0 2.023763 1_555
F5 K0 2.845061 1_565
F5 K0 2.845061 1_556
F5 K1 2.845061 1_555
F5 K1 2.845061 1_455
