# generated using pymatgen
data_NaHgSI
_symmetry_space_group_name_H-M   'P 1'
_cell_length_a   10.42927226
_cell_length_b   10.42927306
_cell_length_c   5.75705914
_cell_angle_alpha   90.00000000
_cell_angle_beta   90.00000000
_cell_angle_gamma   126.97130888
_symmetry_Int_Tables_number   1
_chemical_formula_structural   NaHgSI
_chemical_formula_sum   'Na4 Hg4 S4 I4'
_cell_volume   500.28921929
_cell_formula_units_Z   4
loop_
 _symmetry_equiv_pos_site_id
 _symmetry_equiv_pos_as_xyz
  1  'x, y, z'
loop_
 _atom_site_type_symbol
 _atom_site_label
 _atom_site_symmetry_multiplicity
 _atom_site_fract_x
 _atom_site_fract_y
 _atom_site_fract_z
 _atom_site_occupancy
  Na  Na0  1  0.59529410  0.86477662  0.00000000  1
  Na  Na1  1  0.40470590  0.13522338  0.00000000  1
  Na  Na2  1  0.86477662  0.59529410  0.00000000  1
  Na  Na3  1  0.13522338  0.40470590  0.00000000  1
  Hg  Hg0  1  0.73966527  0.73966527  0.50000000  1
  Hg  Hg1  1  0.26033473  0.26033473  0.50000000  1
  Hg  Hg2  1  0.86457195  0.13542805  0.50000000  1
  Hg  Hg3  1  0.13542805  0.86457195  0.50000000  1
  S  S0  1  0.61756805  0.87178192  0.50000000  1
  S  S1  1  0.38243195  0.12821808  0.50000000  1
  S  S2  1  0.87178192  0.61756805  0.50000000  1
  S  S3  1  0.12821808  0.38243195  0.50000000  1
  I  I0  1  0.75790583  0.24209417  0.00000000  1
  I  I1  1  0.24209417  0.75790583  0.00000000  1
  I  I2  1  0.50000000  0.50000000  0.00000000  1
  I  I3  1  0.00000000  0.00000000  0.00000000  1
loop_
_geom_bond_atom_site_label_1
_geom_bond_atom_site_label_2
_geom_bond_distance
_geom_bond_site_symmetry_2
Na0 S0 2.885276 1_555
Na0 S0 2.885276 1_554
Na1 S1 2.885276 1_554
Na1 S1 2.885276 1_555
Na2 S2 2.885276 1_555
Na2 S2 2.885276 1_554
Na3 S3 2.885276 1_555
Na3 S3 2.885276 1_554
Hg0 S2 2.372871 1_555
Hg0 S0 2.372871 1_555
Hg1 S3 2.372871 1_555
Hg1 S1 2.372871 1_555
Hg2 S3 2.382580 1_655
Hg2 S0 2.382580 1_545
Hg3 S2 2.382580 1_455
Hg3 S1 2.382580 1_565
I0 Na1 3.142114 1_555
I0 Na2 3.142114 1_555
I0 Na3 3.214686 1_655
I0 Na0 3.214686 1_545
I1 Na0 3.142114 1_555
I1 Na3 3.142114 1_555
I1 Na2 3.214686 1_455
I1 Na1 3.214686 1_565
I2 Na2 3.303484 1_555
I2 Na3 3.303484 1_555
I2 Na1 3.303484 1_555
I2 Na0 3.303484 1_555
I3 Na1 3.555854 1_555
I3 Na0 3.555854 1_445
I3 Na3 3.555855 1_555
I3 Na2 3.555855 1_445
