# generated using pymatgen
data_CaY4HfH18
_symmetry_space_group_name_H-M   'P 1'
_cell_length_a   6.27481982
_cell_length_b   6.26352469
_cell_length_c   6.50821679
_cell_angle_alpha   90.15858998
_cell_angle_beta   89.14043915
_cell_angle_gamma   119.79334747
_symmetry_Int_Tables_number   1
_chemical_formula_structural   CaY4HfH18
_chemical_formula_sum   'Ca1 Y4 Hf1 H18'
_cell_volume   221.95150266
_cell_formula_units_Z   1
loop_
 _symmetry_equiv_pos_site_id
 _symmetry_equiv_pos_as_xyz
  1  'x, y, z'
loop_
 _atom_site_type_symbol
 _atom_site_label
 _atom_site_symmetry_multiplicity
 _atom_site_fract_x
 _atom_site_fract_y
 _atom_site_fract_z
 _atom_site_occupancy
  Ca  Ca0  1  0.32765287  0.00025364  0.74932924  1
  Y  Y0  1  0.00913261  0.34066162  0.74992959  1
  Y  Y1  1  0.33278563  0.32614984  0.25306374  1
  Y  Y2  1  0.66741978  0.00031535  0.24695811  1
  Y  Y3  1  0.99820151  0.66821908  0.24748943  1
  Hf  Hf0  1  0.67366594  0.68779065  0.75035702  1
  H  H0  1  0.27090571  0.28647281  0.58151230  1
  H  H1  1  0.72213970  0.97972846  0.59079801  1
  H  H2  1  0.96789228  0.70025678  0.59970124  1
  H  H3  1  0.69885800  0.68278958  0.07103166  1
  H  H4  1  0.31857368  0.01060907  0.09287462  1
  H  H5  1  0.99488350  0.29942749  0.08887920  1
  H  H6  1  0.36913774  0.42035904  0.90053262  1
  H  H7  1  0.63138593  0.94763328  0.90229597  1
  H  H8  1  0.03000324  0.64910688  0.91491603  1
  H  H9  1  0.64485611  0.62579828  0.42975294  1
  H  H10  1  0.36669352  0.01492038  0.40696354  1
  H  H11  1  0.96911167  0.34678810  0.41220689  1
  H  H12  1  0.97149247  0.98159102  0.82824577  1
  H  H13  1  0.99791953  0.99851277  0.30173014  1
  H  H14  1  0.36544425  0.66938324  0.66877867  1
  H  H15  1  0.67125272  0.36691274  0.74116103  1
  H  H16  1  0.66845119  0.33255965  0.19943191  1
  H  H17  1  0.33214340  0.66376324  0.22807836  1
loop_
_geom_bond_atom_site_label_1
_geom_bond_atom_site_label_2
_geom_bond_distance
_geom_bond_site_symmetry_2
Ca0 H12 2.231202 1_445
Ca0 H10 2.235101 1_555
Ca0 H15 2.236575 1_555
Ca0 H4 2.237321 1_556
Ca0 H14 2.259333 1_545
Ca0 H0 2.278258 1_555
Ca0 H8 2.314667 1_545
Ca0 H7 2.327024 1_545
Ca0 H2 2.327154 1_445
H0 Y0 2.124298 1_555
H0 Y1 2.159645 1_555
H1 Hf0 1.990689 1_555
H1 Y2 2.282729 1_565
H1 Y0 2.328885 1_665
H2 Hf0 2.044224 1_555
H2 Y3 2.313708 1_555
H2 Y0 2.587448 1_655
H3 Hf0 2.096855 1_554
H3 Y3 2.256318 1_555
H3 Y2 2.382396 1_565
H3 Y1 2.550252 1_555
H4 Y1 2.194820 1_555
H4 Y3 2.306512 1_445
H4 Y2 2.451068 1_555
H5 Y2 2.216359 1_555
H5 Y0 2.217033 1_654
H5 Y1 2.319418 1_655
H5 Y3 2.518227 1_555
H6 Hf0 2.045659 1_555
H6 Y0 2.292587 1_555
H6 Y1 2.349957 1_556
H7 Hf0 2.027158 1_555
H7 Y2 2.264651 1_566
H7 Y0 2.608876 1_665
H8 Y0 2.154968 1_555
H8 Y3 2.179078 1_456
H9 Hf0 2.115245 1_555
H9 Y1 2.254503 1_555
H9 Y3 2.393947 1_555
H9 Y2 2.572638 1_565
H10 Y2 2.183029 1_555
H10 Y1 2.297391 1_555
H10 Y3 2.491803 1_445
H11 Y3 2.208339 1_555
H11 Y0 2.218608 1_655
H11 Y2 2.327120 1_555
H11 Y1 2.553121 1_655
H12 Hf0 1.934315 1_555
H12 Y0 2.201966 1_665
H13 Y3 2.098604 1_555
H13 Y1 2.103658 1_665
H13 Y2 2.115047 1_565
H14 Hf0 1.960753 1_555
H14 Y0 2.216526 1_555
H15 Hf0 2.003081 1_555
H15 Y0 2.208024 1_655
H16 Y2 2.101542 1_555
H16 Y1 2.110375 1_555
H16 Y3 2.119449 1_555
H17 Y3 2.111326 1_455
H17 Y2 2.117542 1_565
H17 Y1 2.123345 1_555
