# generated using pymatgen
data_Ti3Al2IrN
_symmetry_space_group_name_H-M   'P 1'
_cell_length_a   8.12000588
_cell_length_b   8.12000608
_cell_length_c   8.12000563
_cell_angle_alpha   60.00000186
_cell_angle_beta   60.00000104
_cell_angle_gamma   59.99999920
_symmetry_Int_Tables_number   1
_chemical_formula_structural   Ti3Al2IrN
_chemical_formula_sum   'Ti12 Al8 Ir4 N4'
_cell_volume   378.57683637
_cell_formula_units_Z   4
loop_
 _symmetry_equiv_pos_site_id
 _symmetry_equiv_pos_as_xyz
  1  'x, y, z'
loop_
 _atom_site_type_symbol
 _atom_site_label
 _atom_site_symmetry_multiplicity
 _atom_site_fract_x
 _atom_site_fract_y
 _atom_site_fract_z
 _atom_site_occupancy
  Ti  Ti0  1  0.81569327  0.81569327  0.18430673  1
  Ti  Ti1  1  0.06569327  0.43430673  0.43430673  1
  Ti  Ti2  1  0.43430673  0.06569327  0.06569327  1
  Ti  Ti3  1  0.06569327  0.06569327  0.43430673  1
  Ti  Ti4  1  0.06569327  0.43430673  0.06569327  1
  Ti  Ti5  1  0.43430673  0.06569327  0.43430673  1
  Ti  Ti6  1  0.18430673  0.81569327  0.18430673  1
  Ti  Ti7  1  0.18430673  0.81569327  0.81569327  1
  Ti  Ti8  1  0.81569327  0.18430673  0.18430673  1
  Ti  Ti9  1  0.81569327  0.18430673  0.81569327  1
  Ti  Ti10  1  0.43430673  0.43430673  0.06569327  1
  Ti  Ti11  1  0.18430673  0.18430673  0.81569327  1
  Al  Al0  1  0.41512922  0.75461034  0.41512922  1
  Al  Al1  1  0.83487078  0.83487078  0.49538966  1
  Al  Al2  1  0.49538966  0.83487078  0.83487078  1
  Al  Al3  1  0.83487078  0.83487078  0.83487078  1
  Al  Al4  1  0.75461034  0.41512922  0.41512922  1
  Al  Al5  1  0.41512922  0.41512922  0.41512922  1
  Al  Al6  1  0.41512922  0.41512922  0.75461034  1
  Al  Al7  1  0.83487078  0.49538966  0.83487078  1
  Ir  Ir0  1  0.62500000  0.12500000  0.62500000  1
  Ir  Ir1  1  0.62500000  0.62500000  0.12500000  1
  Ir  Ir2  1  0.12500000  0.62500000  0.62500000  1
  Ir  Ir3  1  0.62500000  0.62500000  0.62500000  1
  N  N0  1  0.12500000  0.62500000  0.12500000  1
  N  N1  1  0.12500000  0.12500000  0.62500000  1
  N  N2  1  0.62500000  0.12500000  0.12500000  1
  N  N3  1  0.12500000  0.12500000  0.12500000  1
loop_
_geom_bond_atom_site_label_1
_geom_bond_atom_site_label_2
_geom_bond_distance
_geom_bond_site_symmetry_2
Al0 Ir1 2.496585 1_555
Al0 Ir2 2.496585 1_555
Al0 Ir3 2.496598 1_555
Al1 Ir2 2.496585 1_655
Al1 Ir0 2.496585 1_565
Al1 Ir3 2.496598 1_555
Al2 Ir1 2.496585 1_556
Al2 Ir0 2.496585 1_565
Al2 Ir3 2.496598 1_555
Al3 Ir2 2.496594 1_655
Al3 Ir0 2.496594 1_565
Al3 Ir1 2.496594 1_556
Al4 Ir1 2.496585 1_555
Al4 Ir0 2.496585 1_555
Al4 Ir3 2.496598 1_555
Al5 Ir2 2.496594 1_555
Al5 Ir0 2.496594 1_555
Al5 Ir1 2.496594 1_555
Al6 Ir2 2.496585 1_555
Al6 Ir0 2.496585 1_555
Al6 Ir3 2.496598 1_555
Al7 Ir1 2.496585 1_556
Al7 Ir2 2.496585 1_655
Al7 Ir3 2.496598 1_555
Ir0 Ti2 2.985997 1_556
Ir0 Ti8 2.985997 1_555
Ir0 Ti9 2.985997 1_555
Ir0 Ti5 2.985997 1_555
Ir0 Ti3 2.985997 1_655
Ir0 Ti11 2.985997 1_555
Ir1 Ti4 2.985997 1_655
Ir1 Ti6 2.985997 1_555
Ir1 Ti0 2.985997 1_555
Ir1 Ti10 2.985997 1_555
Ir1 Ti2 2.985997 1_565
Ir1 Ti8 2.985997 1_555
Ir2 Ti4 2.985997 1_556
Ir2 Ti6 2.985997 1_555
Ir2 Ti7 2.985997 1_555
Ir2 Ti1 2.985997 1_555
Ir2 Ti3 2.985997 1_565
Ir2 Ti11 2.985997 1_555
Ir3 Ti1 2.985997 1_655
Ir3 Ti7 2.985997 1_555
Ir3 Ti10 2.985997 1_556
Ir3 Ti0 2.985997 1_555
Ir3 Ti5 2.985997 1_565
Ir3 Ti9 2.985997 1_555
N0 Ti10 2.141198 1_555
N0 Ti0 2.141198 1_455
N0 Ti1 2.141198 1_555
N0 Ti7 2.141198 1_554
N0 Ti6 2.141198 1_555
N0 Ti4 2.141198 1_555
N1 Ti11 2.141198 1_555
N1 Ti3 2.141198 1_555
N1 Ti5 2.141198 1_555
N1 Ti9 2.141198 1_455
N1 Ti1 2.141198 1_555
N1 Ti7 2.141198 1_545
N2 Ti5 2.141198 1_555
N2 Ti9 2.141198 1_554
N2 Ti8 2.141198 1_555
N2 Ti2 2.141198 1_555
N2 Ti10 2.141198 1_555
N2 Ti0 2.141198 1_545
N3 Ti3 2.141198 1_555
N3 Ti11 2.141198 1_554
N3 Ti2 2.141198 1_555
N3 Ti8 2.141198 1_455
N3 Ti4 2.141198 1_555
N3 Ti6 2.141198 1_545
