# generated using pymatgen
data_Nb3Al2CuN
_symmetry_space_group_name_H-M   'P 1'
_cell_length_a   8.23812179
_cell_length_b   8.23812165
_cell_length_c   8.23812264
_cell_angle_alpha   60.00000000
_cell_angle_beta   60.00000057
_cell_angle_gamma   59.99999752
_symmetry_Int_Tables_number   1
_chemical_formula_structural   Nb3Al2CuN
_chemical_formula_sum   'Nb12 Al8 Cu4 N4'
_cell_volume   395.33899865
_cell_formula_units_Z   4
loop_
 _symmetry_equiv_pos_site_id
 _symmetry_equiv_pos_as_xyz
  1  'x, y, z'
loop_
 _atom_site_type_symbol
 _atom_site_label
 _atom_site_symmetry_multiplicity
 _atom_site_fract_x
 _atom_site_fract_y
 _atom_site_fract_z
 _atom_site_occupancy
  Nb  Nb0  1  0.81330106  0.81330106  0.18669894  1
  Nb  Nb1  1  0.18669894  0.18669894  0.81330106  1
  Nb  Nb2  1  0.81330106  0.18669894  0.81330106  1
  Nb  Nb3  1  0.18669894  0.81330106  0.18669894  1
  Nb  Nb4  1  0.18669894  0.81330106  0.81330106  1
  Nb  Nb5  1  0.81330106  0.18669894  0.18669894  1
  Nb  Nb6  1  0.43669894  0.43669894  0.06330106  1
  Nb  Nb7  1  0.06330106  0.06330106  0.43669894  1
  Nb  Nb8  1  0.43669894  0.06330106  0.43669894  1
  Nb  Nb9  1  0.06330106  0.43669894  0.06330106  1
  Nb  Nb10  1  0.06330106  0.43669894  0.43669894  1
  Nb  Nb11  1  0.43669894  0.06330106  0.06330106  1
  Al  Al0  1  0.75027518  0.41657527  0.41657527  1
  Al  Al1  1  0.41657527  0.75027518  0.41657527  1
  Al  Al2  1  0.41657527  0.41657527  0.75027518  1
  Al  Al3  1  0.41657527  0.41657527  0.41657527  1
  Al  Al4  1  0.49972482  0.83342473  0.83342473  1
  Al  Al5  1  0.83342473  0.49972482  0.83342473  1
  Al  Al6  1  0.83342473  0.83342473  0.49972482  1
  Al  Al7  1  0.83342473  0.83342473  0.83342473  1
  Cu  Cu0  1  0.12500000  0.62500000  0.62500000  1
  Cu  Cu1  1  0.62500000  0.12500000  0.62500000  1
  Cu  Cu2  1  0.62500000  0.62500000  0.12500000  1
  Cu  Cu3  1  0.62500000  0.62500000  0.62500000  1
  N  N0  1  0.62500000  0.12500000  0.12500000  1
  N  N1  1  0.12500000  0.62500000  0.12500000  1
  N  N2  1  0.12500000  0.12500000  0.62500000  1
  N  N3  1  0.12500000  0.12500000  0.12500000  1
loop_
_geom_bond_atom_site_label_1
_geom_bond_atom_site_label_2
_geom_bond_distance
_geom_bond_site_symmetry_2
Al0 Cu3 2.523013 1_555
Al0 Cu1 2.523019 1_555
Al0 Cu2 2.523019 1_555
Al1 Cu3 2.523013 1_555
Al1 Cu0 2.523019 1_555
Al1 Cu2 2.523019 1_555
Al2 Cu3 2.523012 1_555
Al2 Cu1 2.523019 1_555
Al2 Cu0 2.523019 1_555
Al3 Cu1 2.523015 1_555
Al3 Cu0 2.523015 1_555
Al3 Cu2 2.523015 1_555
Al4 Cu3 2.523013 1_555
Al4 Cu1 2.523019 1_565
Al4 Cu2 2.523019 1_556
Al5 Cu3 2.523013 1_555
Al5 Cu0 2.523019 1_655
Al5 Cu2 2.523019 1_556
Al6 Cu3 2.523012 1_555
Al6 Cu1 2.523019 1_565
Al6 Cu0 2.523019 1_655
Al7 Cu1 2.523015 1_565
Al7 Cu0 2.523015 1_655
Al7 Cu2 2.523015 1_556
Cu0 Nb7 3.009053 1_565
Cu0 Nb1 3.009053 1_555
Cu0 Nb4 3.009053 1_555
Cu0 Nb10 3.009053 1_555
Cu0 Nb9 3.009053 1_556
Cu0 Nb3 3.009053 1_555
Cu1 Nb7 3.009053 1_655
Cu1 Nb1 3.009053 1_555
Cu1 Nb2 3.009053 1_555
Cu1 Nb8 3.009053 1_555
Cu1 Nb11 3.009053 1_556
Cu1 Nb5 3.009053 1_555
Cu2 Nb11 3.009053 1_565
Cu2 Nb5 3.009053 1_555
Cu2 Nb9 3.009053 1_655
Cu2 Nb3 3.009053 1_555
Cu2 Nb0 3.009053 1_555
Cu2 Nb6 3.009053 1_555
Cu3 Nb8 3.009053 1_565
Cu3 Nb2 3.009053 1_555
Cu3 Nb10 3.009053 1_655
Cu3 Nb4 3.009053 1_555
Cu3 Nb6 3.009053 1_556
Cu3 Nb0 3.009053 1_555
N0 Nb6 2.181369 1_555
N0 Nb0 2.181369 1_545
N0 Nb5 2.181369 1_555
N0 Nb11 2.181369 1_555
N0 Nb8 2.181369 1_555
N0 Nb2 2.181369 1_554
N1 Nb6 2.181369 1_555
N1 Nb0 2.181369 1_455
N1 Nb3 2.181369 1_555
N1 Nb9 2.181369 1_555
N1 Nb10 2.181369 1_555
N1 Nb4 2.181369 1_554
N2 Nb10 2.181369 1_555
N2 Nb4 2.181369 1_545
N2 Nb8 2.181369 1_555
N2 Nb2 2.181369 1_455
N2 Nb1 2.181369 1_555
N2 Nb7 2.181369 1_555
N3 Nb9 2.181369 1_555
N3 Nb3 2.181369 1_545
N3 Nb11 2.181369 1_555
N3 Nb5 2.181369 1_455
N3 Nb7 2.181369 1_555
N3 Nb1 2.181369 1_554
