# generated using pymatgen
data_Hf8TaTcNi2
_symmetry_space_group_name_H-M   'P 1'
_cell_length_a   8.66270980
_cell_length_b   8.66270969
_cell_length_c   8.65799532
_cell_angle_alpha   60.01800459
_cell_angle_beta   60.01800503
_cell_angle_gamma   60.24465771
_symmetry_Int_Tables_number   1
_chemical_formula_structural   Hf8TaTcNi2
_chemical_formula_sum   'Hf16 Ta2 Tc2 Ni4'
_cell_volume   460.38909835
_cell_formula_units_Z   2
loop_
 _symmetry_equiv_pos_site_id
 _symmetry_equiv_pos_as_xyz
  1  'x, y, z'
loop_
 _atom_site_type_symbol
 _atom_site_label
 _atom_site_symmetry_multiplicity
 _atom_site_fract_x
 _atom_site_fract_y
 _atom_site_fract_z
 _atom_site_occupancy
  Hf  Hf0  1  0.69578851  0.10211640  0.10104755  1
  Hf  Hf1  1  0.10211640  0.69578851  0.10104755  1
  Hf  Hf2  1  0.10190485  0.10190485  0.69523465  1
  Hf  Hf3  1  0.10190485  0.10190485  0.10095565  1
  Hf  Hf4  1  0.31429207  0.31429207  0.68570793  1
  Hf  Hf5  1  0.68515726  0.68515726  0.31484274  1
  Hf  Hf6  1  0.31418744  0.68188580  0.31436404  1
  Hf  Hf7  1  0.68188580  0.31418744  0.68956172  1
  Hf  Hf8  1  0.68188580  0.31418744  0.31436404  1
  Hf  Hf9  1  0.31418744  0.68188580  0.68956172  1
  Hf  Hf10  1  0.95161354  0.95161354  0.54838646  1
  Hf  Hf11  1  0.54641700  0.54641700  0.95358300  1
  Hf  Hf12  1  0.94990970  0.54989279  0.95044094  1
  Hf  Hf13  1  0.54989279  0.94990970  0.54975757  1
  Hf  Hf14  1  0.54989279  0.94990970  0.95044094  1
  Hf  Hf15  1  0.94990970  0.54989279  0.54975757  1
  Ta  Ta0  1  0.00744264  0.33320184  0.32967626  1
  Ta  Ta1  1  0.33320184  0.00744264  0.32967626  1
  Tc  Tc0  1  0.33518284  0.33518284  0.99413745  1
  Tc  Tc1  1  0.33518284  0.33518284  0.33549387  1
  Ni  Ni0  1  0.32550929  0.89024545  0.89212263  1
  Ni  Ni1  1  0.89024545  0.32550929  0.89212263  1
  Ni  Ni2  1  0.89114410  0.89114410  0.32462360  1
  Ni  Ni3  1  0.89114410  0.89114410  0.89308921  1
loop_
_geom_bond_atom_site_label_1
_geom_bond_atom_site_label_2
_geom_bond_distance
_geom_bond_site_symmetry_2
Hf0 Ni1 2.558572 1_554
Hf0 Ni3 2.572801 1_544
Hf0 Ni2 2.572808 1_545
Hf0 Ta1 3.029356 1_555
Hf0 Tc1 3.074596 1_555
Hf0 Tc0 3.074608 1_554
Hf0 Hf8 3.122446 1_555
Hf0 Hf7 3.122453 1_554
Hf0 Hf5 3.155763 1_545
Hf1 Ni0 2.558572 1_554
Hf1 Ni3 2.572801 1_454
Hf1 Ni2 2.572808 1_455
Hf1 Ta0 3.029356 1_555
Hf1 Tc1 3.074596 1_555
Hf1 Tc0 3.074608 1_554
Hf1 Hf6 3.122446 1_555
Hf1 Hf9 3.122453 1_554
Hf1 Hf5 3.155763 1_455
Hf2 Ni3 2.580353 1_445
Hf2 Ni1 2.582782 1_455
Hf2 Ni0 2.582782 1_545
Hf2 Ta0 3.053593 1_555
Hf2 Ta1 3.053593 1_555
Hf2 Tc1 3.056217 1_555
Hf2 Hf4 3.135845 1_555
Hf2 Hf9 3.173282 1_545
Hf2 Hf7 3.173282 1_455
Hf3 Ni2 2.580354 1_445
Hf3 Ni1 2.582782 1_454
Hf3 Ni0 2.582782 1_544
Hf3 Ta0 3.053571 1_555
Hf3 Ta1 3.053571 1_555
Hf3 Tc0 3.056208 1_554
Hf3 Hf4 3.135845 1_554
Hf3 Hf6 3.173279 1_545
Hf3 Hf8 3.173279 1_455
Hf4 Tc0 2.862681 1_555
Hf4 Tc1 2.862707 1_555
Hf4 Ni0 3.155169 1_545
Hf4 Ni1 3.155169 1_455
Hf4 Hf9 3.200710 1_555
Hf4 Hf7 3.200710 1_555
Hf4 Hf6 3.200715 1_555
Hf4 Hf8 3.200715 1_555
Hf5 Ta0 2.936780 1_655
Hf5 Ta1 2.936780 1_565
Hf5 Ni3 3.136544 1_554
Hf5 Ni2 3.136549 1_555
Hf5 Hf7 3.229841 1_555
Hf5 Hf9 3.229841 1_555
Hf5 Hf8 3.229845 1_555
Hf5 Hf6 3.229845 1_555
Hf6 Tc1 2.833511 1_555
Hf6 Ta1 2.975711 1_565
Hf6 Ni0 3.139197 1_554
Hf6 Ni2 3.156831 1_455
Hf6 Hf8 3.197036 1_555
Hf6 Hf9 3.248460 1_555
Hf7 Tc0 2.833504 1_555
Hf7 Ta0 2.975721 1_655
Hf7 Ni1 3.139204 1_555
Hf7 Ni3 3.156836 1_545
Hf7 Hf9 3.197036 1_555
Hf7 Hf8 3.248460 1_555
Hf8 Tc1 2.833512 1_555
Hf8 Ta0 2.975711 1_655
Hf8 Ni1 3.139197 1_554
Hf8 Ni2 3.156831 1_545
Hf9 Tc0 2.833504 1_555
Hf9 Ta1 2.975721 1_565
Hf9 Ni0 3.139204 1_555
Hf9 Ni3 3.156836 1_455
Hf10 Ni2 2.569630 1_555
Hf10 Ni3 2.569639 1_555
Hf10 Ta0 3.026883 1_665
Hf10 Ta1 3.026883 1_665
Hf10 Hf7 3.242943 1_565
Hf10 Hf9 3.242943 1_655
Hf10 Hf8 3.242948 1_565
Hf10 Hf6 3.242948 1_655
Hf11 Ni0 2.567628 1_555
Hf11 Ni1 2.567628 1_555
Hf11 Tc1 2.976454 1_556
Hf11 Tc0 2.976466 1_555
Hf11 Hf8 3.197060 1_556
Hf11 Hf6 3.197060 1_556
Hf11 Hf7 3.197067 1_555
Hf11 Hf9 3.197067 1_555
Hf12 Ni3 2.556641 1_555
Hf12 Ni1 2.557199 1_555
Hf12 Ta0 3.016573 1_656
Hf12 Tc0 3.023007 1_655
Hf12 Hf9 3.200570 1_655
Hf12 Hf5 3.222176 1_556
Hf12 Hf4 3.229934 1_655
Hf12 Hf8 3.232913 1_556
Hf13 Ni2 2.556641 1_555
Hf13 Ni0 2.557193 1_555
Hf13 Ta1 3.016603 1_565
Hf13 Tc1 3.023020 1_565
Hf13 Hf8 3.200570 1_565
Hf13 Hf5 3.222183 1_555
Hf13 Hf4 3.229930 1_565
Hf13 Hf9 3.232918 1_555
Hf14 Ni3 2.556641 1_555
Hf14 Ni0 2.557199 1_555
Hf14 Ta1 3.016573 1_566
Hf14 Tc0 3.023007 1_565
Hf14 Hf7 3.200570 1_565
Hf14 Hf5 3.222176 1_556
Hf14 Hf4 3.229934 1_565
Hf14 Hf6 3.232913 1_556
Hf15 Ni2 2.556641 1_555
Hf15 Ni1 2.557193 1_555
Hf15 Ta0 3.016603 1_655
Hf15 Tc1 3.023020 1_655
Hf15 Hf6 3.200570 1_655
Hf15 Hf5 3.222183 1_555
Hf15 Hf4 3.229930 1_655
Hf15 Hf7 3.232918 1_555
Ta0 Ta1 2.832387 1_555
Ta0 Tc1 2.873251 1_555
Ta0 Tc0 2.873252 1_554
Ta1 Tc1 2.873251 1_555
Ta1 Tc0 2.873252 1_554
Tc0 Tc1 2.955462 1_556
