# generated using pymatgen
data_Zr2Be2SiGe
_symmetry_space_group_name_H-M   'P 1'
_cell_length_a   3.75156225
_cell_length_b   3.75156161
_cell_length_c   7.30098397
_cell_angle_alpha   90.00000000
_cell_angle_beta   90.00000000
_cell_angle_gamma   119.99998823
_symmetry_Int_Tables_number   1
_chemical_formula_structural   Zr2Be2SiGe
_chemical_formula_sum   'Zr2 Be2 Si1 Ge1'
_cell_volume   88.98899825
_cell_formula_units_Z   1
loop_
 _symmetry_equiv_pos_site_id
 _symmetry_equiv_pos_as_xyz
  1  'x, y, z'
loop_
 _atom_site_type_symbol
 _atom_site_label
 _atom_site_symmetry_multiplicity
 _atom_site_fract_x
 _atom_site_fract_y
 _atom_site_fract_z
 _atom_site_occupancy
  Zr  Zr0  1  0.00000000  0.00000000  0.50507173  1
  Zr  Zr1  1  0.00000000  0.00000000  0.99492827  1
  Be  Be0  1  0.66666700  0.33333300  0.75000000  1
  Be  Be1  1  0.33333300  0.66666700  0.25000000  1
  Si  Si0  1  0.33333300  0.66666700  0.75000000  1
  Ge  Ge0  1  0.66666700  0.33333300  0.25000000  1
loop_
_geom_bond_atom_site_label_1
_geom_bond_atom_site_label_2
_geom_bond_distance
_geom_bond_site_symmetry_2
Be0 Si0 2.165963 1_545
Be0 Si0 2.165964 1_655
Be0 Si0 2.165969 1_555
Be0 Zr1 2.808757 1_655
Be0 Zr0 2.808757 1_655
Be0 Zr1 2.808760 1_665
Be0 Zr0 2.808760 1_665
Be0 Zr1 2.808760 1_555
Be0 Zr0 2.808760 1_555
Be1 Ge0 2.165963 1_565
Be1 Ge0 2.165964 1_455
Be1 Ge0 2.165969 1_555
Be1 Zr0 2.856477 1_565
Be1 Zr1 2.856477 1_564
Be1 Zr0 2.856480 1_555
Be1 Zr1 2.856480 1_554
Be1 Zr0 2.856480 1_665
Be1 Zr1 2.856480 1_664
Si0 Zr1 2.808757 1_565
Si0 Zr0 2.808757 1_565
Si0 Zr1 2.808760 1_555
Si0 Zr0 2.808760 1_555
Si0 Zr1 2.808760 1_665
Si0 Zr0 2.808760 1_665
Ge0 Zr0 2.856477 1_655
Ge0 Zr1 2.856477 1_654
Ge0 Zr0 2.856480 1_665
Ge0 Zr1 2.856480 1_664
Ge0 Zr0 2.856480 1_555
Ge0 Zr1 2.856480 1_554
