# generated using pymatgen
data_CsBC7
_symmetry_space_group_name_H-M   'P 1'
_cell_length_a   5.04746394
_cell_length_b   5.04804255
_cell_length_c   6.02632372
_cell_angle_alpha   90.00000000
_cell_angle_beta   90.00000000
_cell_angle_gamma   119.99621493
_symmetry_Int_Tables_number   1
_chemical_formula_structural   CsBC7
_chemical_formula_sum   'Cs1 B1 C7'
_cell_volume   132.98292589
_cell_formula_units_Z   1
loop_
 _symmetry_equiv_pos_site_id
 _symmetry_equiv_pos_as_xyz
  1  'x, y, z'
loop_
 _atom_site_type_symbol
 _atom_site_label
 _atom_site_symmetry_multiplicity
 _atom_site_fract_x
 _atom_site_fract_y
 _atom_site_fract_z
 _atom_site_occupancy
  Cs  Cs0  1  0.96370781  0.92741562  0.50000000  1
  B  B0  1  0.17129829  0.34259859  0.00000000  1
  C  C0  1  0.82959776  0.17166052  0.00000000  1
  C  C1  1  0.34206476  0.17166052  0.00000000  1
  C  C2  1  0.66899143  0.84406690  0.00000000  1
  C  C3  1  0.17507346  0.84406690  0.00000000  1
  C  C4  1  0.83780017  0.67559933  0.00000000  1
  C  C5  1  0.34193289  0.68386678  0.00000000  1
  C  C6  1  0.66953342  0.33906685  0.00000000  1
loop_
_geom_bond_atom_site_label_1
_geom_bond_atom_site_label_2
_geom_bond_distance
_geom_bond_site_symmetry_2
B0 C5 1.491990 1_555
B0 C0 1.493709 1_455
B0 C1 1.493727 1_555
B0 Cs0 3.517651 1_444
B0 Cs0 3.517651 1_445
C0 C6 1.431627 1_555
C0 C2 1.432297 1_545
C0 Cs0 3.448487 1_544
C0 Cs0 3.448487 1_545
C1 C6 1.431619 1_555
C1 C3 1.432297 1_545
C1 Cs0 3.448490 1_444
C1 Cs0 3.448490 1_445
C2 C5 1.429800 1_555
C2 C4 1.474369 1_555
C2 Cs0 3.292904 1_555
C2 Cs0 3.292904 1_554
C3 C5 1.429804 1_555
C3 C4 1.474356 1_455
C3 Cs0 3.292900 1_454
C3 Cs0 3.292900 1_455
C4 C6 1.471286 1_555
C4 Cs0 3.207984 1_554
C4 Cs0 3.207984 1_555
