# generated using pymatgen
data_USeO
_symmetry_space_group_name_H-M   'P 1'
_cell_length_a   3.92653502
_cell_length_b   3.92653502
_cell_length_c   6.96767425
_cell_angle_alpha   90.00000000
_cell_angle_beta   90.00000000
_cell_angle_gamma   90.00000000
_symmetry_Int_Tables_number   1
_chemical_formula_structural   USeO
_chemical_formula_sum   'U2 Se2 O2'
_cell_volume   107.42535286
_cell_formula_units_Z   2
loop_
 _symmetry_equiv_pos_site_id
 _symmetry_equiv_pos_as_xyz
  1  'x, y, z'
loop_
 _atom_site_type_symbol
 _atom_site_label
 _atom_site_symmetry_multiplicity
 _atom_site_fract_x
 _atom_site_fract_y
 _atom_site_fract_z
 _atom_site_occupancy
  U  U0  1  0.00000000  0.50000000  0.81802503  1
  U  U1  1  0.50000000  0.00000000  0.18197497  1
  Se  Se0  1  0.50000000  0.00000000  0.63649852  1
  Se  Se1  1  0.00000000  0.50000000  0.36350148  1
  O  O0  1  0.50000000  0.50000000  -0.00000000  1
  O  O1  1  0.00000000  0.00000000  -0.00000000  1
loop_
_geom_bond_atom_site_label_1
_geom_bond_atom_site_label_2
_geom_bond_distance
_geom_bond_site_symmetry_2
Se0 U0 3.051000 1_645
Se0 U0 3.051000 1_655
Se0 U0 3.051000 1_545
Se0 U0 3.051000 1_555
Se0 U1 3.166972 1_555
Se1 U1 3.051000 1_565
Se1 U1 3.051000 1_465
Se1 U1 3.051000 1_455
Se1 U1 3.051000 1_555
Se1 U0 3.166972 1_555
O0 U1 2.337113 1_555
O0 U0 2.337113 1_654
O0 U0 2.337113 1_554
O0 U1 2.337113 1_565
O1 U0 2.337113 1_544
O1 U1 2.337113 1_455
O1 U0 2.337113 1_554
O1 U1 2.337113 1_555
