# generated using pymatgen
data_Lu6CuTcSn
_symmetry_space_group_name_H-M   'P 1'
_cell_length_a   8.28688436
_cell_length_b   8.28688533
_cell_length_c   8.28688452
_cell_angle_alpha   113.31223929
_cell_angle_beta   110.84348805
_cell_angle_gamma   104.38532596
_symmetry_Int_Tables_number   1
_chemical_formula_structural   Lu6CuTcSn
_chemical_formula_sum   'Lu12 Cu2 Tc2 Sn2'
_cell_volume   435.29767242
_cell_formula_units_Z   2
loop_
 _symmetry_equiv_pos_site_id
 _symmetry_equiv_pos_as_xyz
  1  'x, y, z'
loop_
 _atom_site_type_symbol
 _atom_site_label
 _atom_site_symmetry_multiplicity
 _atom_site_fract_x
 _atom_site_fract_y
 _atom_site_fract_z
 _atom_site_occupancy
  Lu  Lu0  1  0.66433063  0.84849036  0.18415973  1
  Lu  Lu1  1  0.33566937  0.51982909  0.18415973  1
  Lu  Lu2  1  0.81374890  0.78180364  0.59555254  1
  Lu  Lu3  1  0.18625110  0.78180364  0.96805473  1
  Lu  Lu4  1  0.81374890  0.21819636  0.03194527  1
  Lu  Lu5  1  0.18625110  0.21819636  0.40444746  1
  Lu  Lu6  1  0.66433063  0.48017091  0.81584027  1
  Lu  Lu7  1  0.33566937  0.15150964  0.81584027  1
  Lu  Lu8  1  0.55831384  0.25941940  0.29889443  1
  Lu  Lu9  1  0.44168616  0.74058060  0.70110557  1
  Lu  Lu10  1  0.03947503  0.74058060  0.29889443  1
  Lu  Lu11  1  0.96052497  0.25941940  0.70110557  1
  Cu  Cu0  1  0.88046287  0.88046287  0.00000000  1
  Cu  Cu1  1  0.11953713  0.11953713  1.00000000  1
  Tc  Tc0  1  0.32565735  0.50000000  0.82565735  1
  Tc  Tc1  1  0.67434265  0.50000000  0.17434265  1
  Sn  Sn0  1  0.00000000  0.50000000  0.50000000  1
  Sn  Sn1  1  0.50000000  0.00000000  0.50000000  1
loop_
_geom_bond_atom_site_label_1
_geom_bond_atom_site_label_2
_geom_bond_distance
_geom_bond_site_symmetry_2
Lu0 Tc1 2.879475 1_555
Lu0 Tc0 2.879475 1_554
Lu0 Sn1 3.326610 1_565
Lu0 Lu10 3.364371 1_655
Lu0 Lu9 3.364371 1_554
Lu0 Lu8 3.576371 1_565
Lu0 Lu11 3.576371 1_565
Lu1 Tc1 2.879474 1_555
Lu1 Tc0 2.879474 1_554
Lu1 Sn1 3.326611 1_565
Lu1 Lu8 3.364371 1_555
Lu1 Lu11 3.364371 1_454
Lu1 Lu10 3.576371 1_555
Lu1 Lu9 3.576371 1_555
Lu2 Tc1 2.882723 1_555
Lu2 Sn0 3.108024 1_655
Lu2 Lu9 3.467067 1_555
Lu2 Lu8 3.547479 1_555
Lu2 Sn1 3.558171 1_565
Lu3 Tc0 2.882723 1_555
Lu3 Sn0 3.108024 1_555
Lu3 Lu8 3.467068 1_566
Lu3 Lu9 3.547478 1_555
Lu3 Sn1 3.558171 1_566
Lu4 Tc1 2.882723 1_555
Lu4 Sn0 3.108024 1_655
Lu4 Lu9 3.467068 1_544
Lu4 Lu8 3.547478 1_555
Lu4 Sn1 3.558171 1_554
Lu5 Tc0 2.882723 1_555
Lu5 Sn0 3.108024 1_555
Lu5 Lu8 3.467067 1_555
Lu5 Lu9 3.547479 1_555
Lu5 Sn1 3.558171 1_555
Lu6 Tc0 2.879474 1_555
Lu6 Tc1 2.879474 1_556
Lu6 Sn1 3.326611 1_555
Lu6 Lu9 3.364371 1_555
Lu6 Lu8 3.576371 1_555
Lu7 Tc0 2.879475 1_555
Lu7 Tc1 2.879475 1_556
Lu7 Sn1 3.326610 1_555
Lu7 Lu8 3.364371 1_556
Lu7 Lu9 3.576371 1_545
Lu8 Tc1 2.710528 1_555
Lu8 Sn0 3.090741 1_655
Lu8 Sn1 3.244221 1_555
Lu9 Tc0 2.710528 1_555
Lu9 Sn0 3.090741 1_555
Lu9 Sn1 3.244221 1_565
Lu10 Tc1 2.710528 1_455
Lu10 Sn0 3.090740 1_555
Lu10 Sn1 3.244221 1_565
Lu10 Lu6 3.364371 1_454
Lu10 Lu3 3.467067 1_554
Lu10 Lu5 3.467068 1_565
Lu10 Lu2 3.547478 1_455
Lu10 Lu4 3.547479 1_455
Lu10 Lu7 3.576371 1_565
Lu10 Lu9 3.783251 1_555
Lu11 Tc0 2.710528 1_655
Lu11 Sn0 3.090740 1_655
Lu11 Sn1 3.244221 1_555
Lu11 Lu7 3.364371 1_655
Lu11 Lu4 3.467067 1_556
Lu11 Lu2 3.467068 1_545
Lu11 Lu5 3.547478 1_655
Lu11 Lu3 3.547479 1_655
Lu11 Lu6 3.576371 1_555
Lu11 Lu8 3.783251 1_555
Cu0 Cu1 2.428960 1_664
Cu0 Lu0 2.763423 1_555
Cu0 Lu6 2.763423 1_554
Cu0 Lu3 2.914676 1_654
Cu0 Lu2 2.914676 1_554
Cu0 Lu4 2.914676 1_565
Cu0 Lu5 2.914676 1_665
Cu0 Lu10 3.150232 1_655
Cu0 Lu9 3.150232 1_554
Cu1 Lu7 2.763423 1_555
Cu1 Lu1 2.763423 1_556
Cu1 Lu4 2.914676 1_456
Cu1 Lu5 2.914676 1_556
Cu1 Lu3 2.914676 1_545
Cu1 Lu2 2.914676 1_445
Cu1 Lu11 3.150232 1_455
Cu1 Lu8 3.150232 1_556
Tc0 Tc1 3.279780 1_556
Sn0 Tc0 3.063176 1_555
Sn0 Tc1 3.063176 1_455
