# generated using pymatgen
data_Zr4ZnAs
_symmetry_space_group_name_H-M   'P 1'
_cell_length_a   5.41348612
_cell_length_b   5.41348718
_cell_length_c   5.41348655
_cell_angle_alpha   104.74268422
_cell_angle_beta   104.74268948
_cell_angle_gamma   119.40916430
_symmetry_Int_Tables_number   1
_chemical_formula_structural   Zr4ZnAs
_chemical_formula_sum   'Zr4 Zn1 As1'
_cell_volume   119.32923848
_cell_formula_units_Z   1
loop_
 _symmetry_equiv_pos_site_id
 _symmetry_equiv_pos_as_xyz
  1  'x, y, z'
loop_
 _atom_site_type_symbol
 _atom_site_label
 _atom_site_symmetry_multiplicity
 _atom_site_fract_x
 _atom_site_fract_y
 _atom_site_fract_z
 _atom_site_occupancy
  Zr  Zr0  1  0.15440880  0.65440880  0.80881861  1
  Zr  Zr1  1  0.34559120  0.15440880  0.50000000  1
  Zr  Zr2  1  0.65440880  0.84559120  0.50000000  1
  Zr  Zr3  1  0.84559120  0.34559120  0.19118139  1
  Zn  Zn0  1  0.75000000  0.75000000  0.00000000  1
  As  As0  1  0.25000000  0.25000000  0.00000000  1
loop_
_geom_bond_atom_site_label_1
_geom_bond_atom_site_label_2
_geom_bond_distance
_geom_bond_site_symmetry_2
Zn0 Zr0 2.850440 1_654
Zn0 Zr3 2.850440 1_555
Zn0 Zr0 2.850442 1_554
Zn0 Zr1 2.850442 1_665
Zn0 Zr1 2.850443 1_554
Zn0 Zr2 2.850443 1_554
Zn0 Zr2 2.850443 1_555
Zn0 Zr3 2.850443 1_565
As0 Zn0 2.730880 1_445
As0 Zn0 2.730880 1_555
As0 Zr3 2.850440 1_455
As0 Zr0 2.850440 1_554
As0 Zr3 2.850442 1_555
As0 Zr2 2.850442 1_444
As0 Zr2 2.850443 1_555
As0 Zr1 2.850443 1_555
As0 Zr1 2.850443 1_554
As0 Zr0 2.850443 1_544
