# generated using pymatgen
data_KVPdSe4
_symmetry_space_group_name_H-M   'P 1'
_cell_length_a   8.42324510
_cell_length_b   8.42324510
_cell_length_c   11.70956882
_cell_angle_alpha   90.00000000
_cell_angle_beta   90.00000000
_cell_angle_gamma   90.00000000
_symmetry_Int_Tables_number   1
_chemical_formula_structural   KVPdSe4
_chemical_formula_sum   'K4 V4 Pd4 Se16'
_cell_volume   830.80629776
_cell_formula_units_Z   4
loop_
 _symmetry_equiv_pos_site_id
 _symmetry_equiv_pos_as_xyz
  1  'x, y, z'
loop_
 _atom_site_type_symbol
 _atom_site_label
 _atom_site_symmetry_multiplicity
 _atom_site_fract_x
 _atom_site_fract_y
 _atom_site_fract_z
 _atom_site_occupancy
  K  K0  1  0.00000000  0.50000000  0.75000000  1
  K  K1  1  0.50000000  0.00000000  0.75000000  1
  K  K2  1  0.50000000  0.00000000  0.25000000  1
  K  K3  1  0.00000000  0.50000000  0.25000000  1
  V  V0  1  0.75060269  0.75060269  0.00000000  1
  V  V1  1  0.24939731  0.24939731  0.00000000  1
  V  V2  1  0.25060269  0.74939731  0.50000000  1
  V  V3  1  0.74939731  0.25060269  0.50000000  1
  Pd  Pd0  1  0.50000000  0.50000000  0.50000000  1
  Pd  Pd1  1  0.00000000  0.00000000  0.00000000  1
  Pd  Pd2  1  0.50000000  0.50000000  0.00000000  1
  Pd  Pd3  1  0.00000000  0.00000000  0.50000000  1
  Se  Se0  1  0.36250069  0.36250069  0.15723306  1
  Se  Se1  1  0.63749931  0.63749931  0.15723306  1
  Se  Se2  1  0.13749931  0.86250069  0.34276694  1
  Se  Se3  1  0.86250069  0.13749931  0.34276694  1
  Se  Se4  1  0.63749931  0.63749931  0.84276694  1
  Se  Se5  1  0.36250069  0.36250069  0.84276694  1
  Se  Se6  1  0.13749931  0.86250069  0.65723306  1
  Se  Se7  1  0.86250069  0.13749931  0.65723306  1
  Se  Se8  1  0.48178444  0.20938045  0.50000000  1
  Se  Se9  1  0.51821556  0.79061955  0.50000000  1
  Se  Se10  1  0.01821556  0.70938045  0.00000000  1
  Se  Se11  1  0.98178444  0.29061955  0.00000000  1
  Se  Se12  1  0.79061955  0.51821556  0.50000000  1
  Se  Se13  1  0.20938045  0.48178444  0.50000000  1
  Se  Se14  1  0.29061955  0.98178444  0.00000000  1
  Se  Se15  1  0.70938045  0.01821556  0.00000000  1
loop_
_geom_bond_atom_site_label_1
_geom_bond_atom_site_label_2
_geom_bond_distance
_geom_bond_site_symmetry_2
K0 Se13 3.421063 1_555
K0 Se12 3.421063 1_455
K0 Se11 3.421063 1_456
K0 Se10 3.421063 1_556
K0 Se4 3.441630 1_455
K0 Se5 3.441630 1_555
K0 Se7 3.441630 1_455
K0 Se6 3.441630 1_555
K1 Se8 3.421063 1_555
K1 Se9 3.421063 1_545
K1 Se15 3.421063 1_556
K1 Se14 3.421063 1_546
K1 Se4 3.441630 1_545
K1 Se5 3.441630 1_555
K1 Se6 3.441630 1_545
K1 Se7 3.441630 1_555
K2 Se8 3.421063 1_555
K2 Se9 3.421063 1_545
K2 Se15 3.421063 1_555
K2 Se14 3.421063 1_545
K2 Se2 3.441630 1_545
K2 Se3 3.441630 1_555
K2 Se1 3.441630 1_545
K2 Se0 3.441630 1_555
K3 Se13 3.421063 1_555
K3 Se12 3.421063 1_455
K3 Se11 3.421063 1_455
K3 Se10 3.421063 1_555
K3 Se3 3.441630 1_455
K3 Se2 3.441630 1_555
K3 Se1 3.441630 1_455
K3 Se0 3.441630 1_555
Pd0 Se12 2.452763 1_555
Pd0 Se9 2.452763 1_555
Pd0 Se8 2.452763 1_555
Pd0 Se13 2.452763 1_555
Pd1 Se10 2.452763 1_545
Pd1 Se15 2.452763 1_455
Pd1 Se14 2.452763 1_545
Pd1 Se11 2.452763 1_455
Pd2 Se0 2.464259 1_555
Pd2 Se1 2.464259 1_555
Pd2 Se5 2.464259 1_554
Pd2 Se4 2.464259 1_554
Pd3 Se6 2.464259 1_545
Pd3 Se7 2.464259 1_455
Pd3 Se2 2.464259 1_545
Pd3 Se3 2.464259 1_455
Se0 V1 2.281453 1_555
Se1 V0 2.281453 1_555
Se2 V2 2.281453 1_555
Se3 V3 2.281453 1_555
Se4 V0 2.281453 1_556
Se5 V1 2.281453 1_556
Se6 V2 2.281453 1_555
Se7 V3 2.281453 1_555
Se8 V3 2.280755 1_555
Se9 V2 2.280755 1_555
Se10 V0 2.280755 1_455
Se11 V1 2.280755 1_655
Se12 V3 2.280755 1_555
Se13 V2 2.280755 1_555
Se14 V1 2.280755 1_565
Se15 V0 2.280755 1_545
