# generated using pymatgen
data_TiNbBRh6
_symmetry_space_group_name_H-M   'P 1'
_cell_length_a   5.57939326
_cell_length_b   5.57939262
_cell_length_c   5.57939277
_cell_angle_alpha   59.99999330
_cell_angle_beta   59.99999712
_cell_angle_gamma   59.99999760
_symmetry_Int_Tables_number   1
_chemical_formula_structural   TiNbBRh6
_chemical_formula_sum   'Ti1 Nb1 B1 Rh6'
_cell_volume   122.81341144
_cell_formula_units_Z   1
loop_
 _symmetry_equiv_pos_site_id
 _symmetry_equiv_pos_as_xyz
  1  'x, y, z'
loop_
 _atom_site_type_symbol
 _atom_site_label
 _atom_site_symmetry_multiplicity
 _atom_site_fract_x
 _atom_site_fract_y
 _atom_site_fract_z
 _atom_site_occupancy
  Ti  Ti0  1  0.25000000  0.25000000  0.25000000  1
  Nb  Nb0  1  0.75000000  0.75000000  0.75000000  1
  B  B0  1  0.50000000  0.50000000  0.50000000  1
  Rh  Rh0  1  0.75795242  0.75795242  0.24204758  1
  Rh  Rh1  1  0.75795242  0.24204758  0.24204758  1
  Rh  Rh2  1  0.24204758  0.75795242  0.24204758  1
  Rh  Rh3  1  0.24204758  0.24204758  0.75795242  1
  Rh  Rh4  1  0.75795242  0.24204758  0.75795242  1
  Rh  Rh5  1  0.24204758  0.75795242  0.75795242  1
loop_
_geom_bond_atom_site_label_1
_geom_bond_atom_site_label_2
_geom_bond_distance
_geom_bond_site_symmetry_2
Nb0 Rh1 2.790402 1_556
Nb0 Rh1 2.790402 1_565
Nb0 Rh4 2.790402 1_555
Nb0 Rh4 2.790402 1_565
Nb0 Rh3 2.790402 1_655
Nb0 Rh0 2.790402 1_555
Nb0 Rh2 2.790402 1_655
Nb0 Rh3 2.790402 1_565
Nb0 Rh0 2.790402 1_556
Nb0 Rh2 2.790402 1_556
Nb0 Rh5 2.790402 1_655
Nb0 Rh5 2.790402 1_555
B0 Rh0 2.035361 1_555
B0 Rh3 2.035361 1_555
B0 Rh5 2.035361 1_555
B0 Rh2 2.035361 1_555
B0 Rh1 2.035361 1_555
B0 Rh4 2.035361 1_555
Rh0 Ti0 2.790402 1_655
Rh0 Ti0 2.790402 1_565
Rh1 Ti0 2.790402 1_655
Rh1 Ti0 2.790402 1_555
Rh2 Ti0 2.790402 1_555
Rh2 Ti0 2.790402 1_565
Rh3 Ti0 2.790402 1_555
Rh3 Ti0 2.790402 1_556
Rh4 Ti0 2.790402 1_655
Rh4 Ti0 2.790402 1_556
Rh5 Ti0 2.790402 1_556
Rh5 Ti0 2.790402 1_565
