# generated using pymatgen
data_K3Ca(MnN2)4
_symmetry_space_group_name_H-M   'P 1'
_cell_length_a   6.25712648
_cell_length_b   6.25712570
_cell_length_c   7.57149279
_cell_angle_alpha   91.46297959
_cell_angle_beta   88.53701754
_cell_angle_gamma   126.12243498
_symmetry_Int_Tables_number   1
_chemical_formula_structural   K3Ca(MnN2)4
_chemical_formula_sum   'K3 Ca1 Mn4 N8'
_cell_volume   239.35087676
_cell_formula_units_Z   1
loop_
 _symmetry_equiv_pos_site_id
 _symmetry_equiv_pos_as_xyz
  1  'x, y, z'
loop_
 _atom_site_type_symbol
 _atom_site_label
 _atom_site_symmetry_multiplicity
 _atom_site_fract_x
 _atom_site_fract_y
 _atom_site_fract_z
 _atom_site_occupancy
  K  K0  1  0.83281004  0.16718996  0.56712654  1
  K  K1  1  0.16132740  0.83867260  0.43225643  1
  K  K2  1  0.66129733  0.33870267  0.06636508  1
  Ca  Ca0  1  0.33884226  0.66115774  0.96682464  1
  Mn  Mn0  1  0.55021100  0.44978900  0.63797269  1
  Mn  Mn1  1  0.44253246  0.55746754  0.36865944  1
  Mn  Mn2  1  0.95038756  0.04961244  0.13297836  1
  Mn  Mn3  1  0.05756148  0.94243852  0.85893590  1
  N  N0  1  0.89828957  0.10171043  0.91283925  1
  N  N1  1  0.11336407  0.88663593  0.07575468  1
  N  N2  1  0.59803764  0.40196236  0.41389857  1
  N  N3  1  0.39314931  0.60685069  0.60091994  1
  N  N4  1  0.35043479  0.15139409  0.74506723  1
  N  N5  1  0.15903777  0.35588758  0.23766752  1
  N  N6  1  0.64411242  0.84096223  0.23766752  1
  N  N7  1  0.84860591  0.64956521  0.74506723  1
loop_
_geom_bond_atom_site_label_1
_geom_bond_atom_site_label_2
_geom_bond_distance
_geom_bond_site_symmetry_2
K0 N0 2.737663 1_555
K0 N2 2.894866 1_555
K0 N3 2.926450 1_545
K0 N3 2.926450 1_655
K0 N5 2.971881 1_655
K0 N6 2.971881 1_545
K0 N7 3.222171 1_555
K0 N4 3.222171 1_555
K1 N1 2.766769 1_555
K1 N7 2.831092 1_455
K1 N4 2.831092 1_565
K1 N3 2.916995 1_555
K1 N2 2.925597 1_565
K1 N2 2.925597 1_455
K2 N2 2.704755 1_555
K2 N0 2.857577 1_554
K2 N1 2.885215 1_655
K2 N1 2.885215 1_545
K2 N7 2.912614 1_554
K2 N4 2.912615 1_554
Ca0 N5 2.582265 1_556
Ca0 N6 2.582265 1_556
Ca0 N1 2.624729 1_556
Ca0 N3 2.818918 1_555
Ca0 N0 2.937180 1_455
Ca0 N0 2.937180 1_565
Mn0 N4 1.726242 1_555
Mn0 N7 1.726242 1_555
Mn0 N2 1.763864 1_555
Mn0 N3 1.782466 1_555
Mn1 N6 1.763288 1_555
Mn1 N5 1.763288 1_555
Mn1 N2 1.777958 1_555
Mn1 N3 1.827721 1_555
Mn2 N5 1.740908 1_655
Mn2 N6 1.740908 1_545
Mn2 N0 1.780862 1_554
Mn2 N1 1.857022 1_645
Mn3 N7 1.721322 1_455
Mn3 N4 1.721322 1_565
Mn3 N1 1.772314 1_556
Mn3 N0 1.811733 1_465
