# generated using pymatgen
data_Lu2BeSiBr2
_symmetry_space_group_name_H-M   'P 1'
_cell_length_a   3.80949505
_cell_length_b   3.80949328
_cell_length_c   11.08864049
_cell_angle_alpha   90.00000000
_cell_angle_beta   90.00000000
_cell_angle_gamma   119.99997238
_symmetry_Int_Tables_number   1
_chemical_formula_structural   Lu2BeSiBr2
_chemical_formula_sum   'Lu2 Be1 Si1 Br2'
_cell_volume   139.36177903
_cell_formula_units_Z   1
loop_
 _symmetry_equiv_pos_site_id
 _symmetry_equiv_pos_as_xyz
  1  'x, y, z'
loop_
 _atom_site_type_symbol
 _atom_site_label
 _atom_site_symmetry_multiplicity
 _atom_site_fract_x
 _atom_site_fract_y
 _atom_site_fract_z
 _atom_site_occupancy
  Lu  Lu0  1  0.00000000  0.00000000  0.16981365  1
  Lu  Lu1  1  0.00000000  0.00000000  0.82844060  1
  Be  Be0  1  0.33333300  0.66666700  0.01292151  1
  Si  Si0  1  0.66666700  0.33333300  0.99009299  1
  Br  Br0  1  0.33333300  0.66666700  0.66577998  1
  Br  Br1  1  0.66666700  0.33333300  0.33295028  1
loop_
_geom_bond_atom_site_label_1
_geom_bond_atom_site_label_2
_geom_bond_distance
_geom_bond_site_symmetry_2
Lu0 Si0 2.967977 1_454
Lu0 Si0 2.967980 1_444
Lu0 Si0 2.967980 1_554
Lu1 Si0 2.837337 1_455
Lu1 Si0 2.837340 1_445
Lu1 Si0 2.837340 1_555
Be0 Si0 2.213930 1_564
Be0 Si0 2.213931 1_454
Be0 Si0 2.213936 1_554
Be0 Lu0 2.804288 1_565
Be0 Lu0 2.804291 1_555
Be0 Lu0 2.804292 1_665
Be0 Lu1 3.003674 1_564
Be0 Lu1 3.003677 1_554
Be0 Lu1 3.003677 1_664
Br0 Lu1 2.844413 1_565
Br0 Lu1 2.844416 1_555
Br0 Lu1 2.844417 1_665
Br1 Lu0 2.847763 1_655
Br1 Lu0 2.847766 1_665
Br1 Lu0 2.847766 1_555
