# generated using pymatgen
data_FePd3Pt2
_symmetry_space_group_name_H-M   'P 1'
_cell_length_a   6.11552523
_cell_length_b   6.11552503
_cell_length_c   3.93056622
_cell_angle_alpha   90.00000000
_cell_angle_beta   90.00000000
_cell_angle_gamma   142.99739946
_symmetry_Int_Tables_number   1
_chemical_formula_structural   FePd3Pt2
_chemical_formula_sum   'Fe1 Pd3 Pt2'
_cell_volume   88.47321503
_cell_formula_units_Z   1
loop_
 _symmetry_equiv_pos_site_id
 _symmetry_equiv_pos_as_xyz
  1  'x, y, z'
loop_
 _atom_site_type_symbol
 _atom_site_label
 _atom_site_symmetry_multiplicity
 _atom_site_fract_x
 _atom_site_fract_y
 _atom_site_fract_z
 _atom_site_occupancy
  Fe  Fe0  1  0.99815952  0.00184048  0.00000000  1
  Pd  Pd0  1  0.66114871  0.33885329  0.00000000  1
  Pd  Pd1  1  0.83552335  0.16447865  0.50000100  1
  Pd  Pd2  1  0.16461301  0.83538899  0.50000100  1
  Pt  Pt0  1  0.33980461  0.66019739  0.00000000  1
  Pt  Pt1  1  0.50075580  0.49924620  0.50000100  1
loop_
_geom_bond_atom_site_label_1
_geom_bond_atom_site_label_2
_geom_bond_distance
_geom_bond_site_symmetry_2
Fe0 Pt0 2.672012 1_545
Fe0 Pt0 2.672017 1_655
Fe0 Pd0 2.709227 1_545
Fe0 Pd0 2.709232 1_655
Fe0 Pd1 2.724129 1_554
Fe0 Pd1 2.724134 1_555
Fe0 Pd2 2.754959 1_644
Fe0 Pd2 2.754964 1_645
Fe0 Pt1 2.762101 1_544
Fe0 Pt1 2.762107 1_654
Fe0 Pt1 2.762107 1_545
Fe0 Pt1 2.762113 1_655
Pd0 Pt1 2.706168 1_554
Pd0 Pt1 2.706174 1_555
Pd0 Pd2 2.762232 1_544
Pd0 Pd2 2.762232 1_654
Pd0 Pd2 2.762238 1_545
Pd0 Pd2 2.762238 1_655
Pd0 Pd1 2.820115 1_554
Pd0 Pd1 2.820121 1_555
Pd0 Pt0 2.839024 1_545
Pd0 Pt0 2.839024 1_655
Pd1 Pt1 2.727457 1_545
Pd1 Pt1 2.727457 1_655
Pd1 Pt0 2.762387 1_546
Pd1 Pt0 2.762387 1_656
Pd1 Pt0 2.762392 1_545
Pd1 Pt0 2.762392 1_655
Pd1 Pd2 2.774129 1_655
Pd1 Pd2 2.774129 1_545
Pd2 Pt1 2.716272 1_565
Pd2 Pt1 2.716273 1_455
Pd2 Pt0 2.826919 1_556
Pd2 Pt0 2.826925 1_555
Pt0 Pt1 2.710624 1_554
Pt0 Pt1 2.710629 1_555
