# generated using pymatgen
data_Zn9Fe3(Mo3N)4
_symmetry_space_group_name_H-M   'P 1'
_cell_length_a   7.93310349
_cell_length_b   7.96081414
_cell_length_c   7.93309866
_cell_angle_alpha   60.11546194
_cell_angle_beta   60.00050564
_cell_angle_gamma   60.11544272
_symmetry_Int_Tables_number   1
_chemical_formula_structural   Zn9Fe3(Mo3N)4
_chemical_formula_sum   'Zn9 Fe3 Mo12 N4'
_cell_volume   354.88349160
_cell_formula_units_Z   1
loop_
 _symmetry_equiv_pos_site_id
 _symmetry_equiv_pos_as_xyz
  1  'x, y, z'
loop_
 _atom_site_type_symbol
 _atom_site_label
 _atom_site_symmetry_multiplicity
 _atom_site_fract_x
 _atom_site_fract_y
 _atom_site_fract_z
 _atom_site_occupancy
  Zn  Zn0  1  0.41747560  0.74758321  0.41747182  1
  Zn  Zn1  1  0.83418255  0.83447953  0.49714797  1
  Zn  Zn2  1  0.83418298  0.83448414  0.83418638  1
  Zn  Zn3  1  0.49715598  0.83447555  0.83418245  1
  Zn  Zn4  1  0.83475833  0.49571441  0.83476092  1
  Zn  Zn5  1  0.62457784  0.62486777  0.12601404  1
  Zn  Zn6  1  0.62457159  0.62485589  0.62455314  1
  Zn  Zn7  1  0.12600925  0.62487554  0.62456707  1
  Zn  Zn8  1  0.62490901  0.12532435  0.62489247  1
  Fe  Fe0  1  0.41621060  0.41535643  0.75223373  1
  Fe  Fe1  1  0.41621320  0.41536468  0.41620912  1
  Fe  Fe2  1  0.75225173  0.41535189  0.41620186  1
  Mo  Mo0  1  0.80450293  0.19557852  0.19542061  1
  Mo  Mo1  1  0.19258423  0.80690549  0.19259514  1
  Mo  Mo2  1  0.80791138  0.80689668  0.19259025  1
  Mo  Mo3  1  0.19258239  0.80689981  0.80791311  1
  Mo  Mo4  1  0.80449934  0.19557393  0.80449699  1
  Mo  Mo5  1  0.19541325  0.19558195  0.80450354  1
  Mo  Mo6  1  0.44010028  0.06224293  0.05756459  1
  Mo  Mo7  1  0.06133205  0.43832370  0.06134526  1
  Mo  Mo8  1  0.43899986  0.43831788  0.06133192  1
  Mo  Mo9  1  0.06132347  0.43832081  0.43900015  1
  Mo  Mo10  1  0.44009645  0.06223557  0.44009349  1
  Mo  Mo11  1  0.05755644  0.06224699  0.44010060  1
  N  N0  1  0.12389690  0.12342118  0.62876281  1
  N  N1  1  0.12390420  0.12342657  0.12391637  1
  N  N2  1  0.62876983  0.12341468  0.12390253  1
  N  N3  1  0.12402632  0.62788490  0.12403968  1
loop_
_geom_bond_atom_site_label_1
_geom_bond_atom_site_label_2
_geom_bond_distance
_geom_bond_site_symmetry_2
Zn0 Zn6 2.419187 1_555
Zn0 Zn5 2.419197 1_555
Zn0 Zn7 2.419221 1_555
Zn1 Zn8 2.443236 1_565
Zn1 Zn6 2.444444 1_555
Zn1 Zn7 2.444488 1_655
Zn1 Zn3 2.673718 1_555
Zn1 Zn2 2.673779 1_555
Zn1 Zn4 2.692314 1_555
Zn2 Zn8 2.443133 1_565
Zn2 Zn5 2.444395 1_556
Zn2 Zn7 2.444418 1_655
Zn2 Zn3 2.673720 1_555
Zn2 Zn4 2.692345 1_555
Zn3 Zn8 2.443299 1_565
Zn3 Zn6 2.444513 1_555
Zn3 Zn5 2.444531 1_556
Zn3 Zn4 2.692257 1_555
Zn4 Zn6 2.445821 1_555
Zn4 Zn5 2.445884 1_556
Zn4 Zn7 2.445906 1_655
Fe0 Zn6 2.434996 1_555
Fe0 Zn7 2.435077 1_555
Fe0 Zn8 2.436207 1_555
Fe0 Mo6 2.635924 1_556
Fe0 Mo8 2.646096 1_556
Fe0 Mo7 2.646298 1_556
Fe0 Zn0 2.654869 1_555
Fe0 Fe1 2.665673 1_555
Fe0 Fe2 2.665832 1_555
Fe0 Mo4 2.811615 1_555
Fe0 Mo5 2.811715 1_555
Fe0 Mo3 2.852379 1_555
Fe1 Zn5 2.435071 1_555
Fe1 Zn7 2.435094 1_555
Fe1 Zn8 2.436251 1_555
Fe1 Mo10 2.636086 1_555
Fe1 Mo8 2.646361 1_555
Fe1 Mo9 2.646437 1_555
Fe1 Zn0 2.654749 1_555
Fe1 Fe2 2.665749 1_555
Fe1 Mo0 2.811698 1_555
Fe1 Mo5 2.811741 1_555
Fe1 Mo1 2.852434 1_555
Fe2 Zn6 2.434963 1_555
Fe2 Zn5 2.435021 1_555
Fe2 Zn8 2.436185 1_555
Fe2 Mo11 2.635796 1_655
Fe2 Mo9 2.645963 1_655
Fe2 Mo7 2.646093 1_655
Fe2 Zn0 2.654944 1_555
Fe2 Mo4 2.811610 1_555
Fe2 Mo0 2.811666 1_555
Fe2 Mo2 2.852328 1_555
Mo0 N1 2.123467 1_655
Mo0 N2 2.123514 1_555
Mo0 Zn4 2.650487 1_554
Mo0 Zn1 2.660973 1_545
Mo0 Zn8 2.826969 1_555
Mo0 Zn5 2.840703 1_555
Mo1 N3 2.112627 1_555
Mo1 N1 2.122172 1_565
Mo1 Zn1 2.647023 1_455
Mo1 Zn3 2.647136 1_554
Mo1 Zn0 2.844661 1_555
Mo1 Zn7 2.850713 1_555
Mo1 Zn5 2.850854 1_555
Mo2 N3 2.112520 1_655
Mo2 N2 2.122124 1_565
Mo2 Zn2 2.646989 1_554
Mo2 Zn1 2.647062 1_555
Mo2 Zn0 2.844585 1_555
Mo2 Zn5 2.850466 1_555
Mo2 Zn6 2.850649 1_555
Mo3 N3 2.112592 1_556
Mo3 N0 2.122158 1_565
Mo3 Zn2 2.646960 1_455
Mo3 Zn3 2.647148 1_555
Mo3 Zn0 2.844631 1_555
Mo3 Zn7 2.850502 1_555
Mo3 Zn6 2.850824 1_555
Mo4 N0 2.123435 1_655
Mo4 N2 2.123473 1_556
Mo4 Zn4 2.650502 1_555
Mo4 Zn2 2.660884 1_545
Mo4 Zn8 2.826765 1_555
Mo4 Zn6 2.840651 1_555
Mo5 N1 2.123538 1_556
Mo5 N0 2.123542 1_555
Mo5 Zn4 2.650454 1_455
Mo5 Zn3 2.661057 1_545
Mo5 Zn8 2.827128 1_555
Mo5 Zn7 2.840736 1_555
Mo6 N2 2.126899 1_555
Mo6 N1 2.126990 1_555
Mo6 Zn0 2.695831 1_545
Mo6 Zn8 2.857797 1_554
Mo6 Zn2 2.866133 1_544
Mo6 Zn3 2.866191 1_544
Mo6 Zn5 2.897023 1_545
Mo7 N3 2.124904 1_555
Mo7 N1 2.131525 1_555
Mo7 Zn4 2.874842 1_454
Mo7 Zn5 2.885786 1_455
Mo7 Zn7 2.885936 1_554
Mo7 Zn2 2.891620 1_454
Mo8 N3 2.125065 1_555
Mo8 N2 2.131594 1_555
Mo8 Zn4 2.874820 1_554
Mo8 Zn6 2.885957 1_554
Mo8 Zn5 2.886126 1_555
Mo8 Zn3 2.891625 1_554
Mo9 N3 2.124986 1_555
Mo9 N0 2.131560 1_555
Mo9 Zn4 2.874825 1_455
Mo9 Zn6 2.885782 1_455
Mo9 Zn7 2.886103 1_555
Mo9 Zn1 2.891606 1_455
Mo10 N2 2.126991 1_555
Mo10 N0 2.127033 1_555
Mo10 Zn0 2.695734 1_545
Mo10 Zn8 2.857955 1_555
Mo10 Zn1 2.866147 1_545
Mo10 Zn3 2.866181 1_545
Mo10 Zn6 2.897062 1_545
Mo11 N0 2.126872 1_555
Mo11 N1 2.126916 1_555
Mo11 Zn0 2.695899 1_545
Mo11 Zn8 2.857636 1_455
Mo11 Zn2 2.866143 1_445
Mo11 Zn1 2.866168 1_445
Mo11 Zn7 2.896993 1_545
