# generated using pymatgen
data_Rb4P4OsPt3
_symmetry_space_group_name_H-M   'P 1'
_cell_length_a   6.78435257
_cell_length_b   6.78833532
_cell_length_c   7.66363360
_cell_angle_alpha   90.85584894
_cell_angle_beta   90.79126813
_cell_angle_gamma   110.98847467
_symmetry_Int_Tables_number   1
_chemical_formula_structural   Rb4P4OsPt3
_chemical_formula_sum   'Rb4 P4 Os1 Pt3'
_cell_volume   329.42135691
_cell_formula_units_Z   1
loop_
 _symmetry_equiv_pos_site_id
 _symmetry_equiv_pos_as_xyz
  1  'x, y, z'
loop_
 _atom_site_type_symbol
 _atom_site_label
 _atom_site_symmetry_multiplicity
 _atom_site_fract_x
 _atom_site_fract_y
 _atom_site_fract_z
 _atom_site_occupancy
  Rb  Rb0  1  0.18777434  0.80218829  0.50267062  1
  Rb  Rb1  1  0.69402847  0.30813627  0.00107837  1
  Rb  Rb2  1  0.80185260  0.18771464  0.50024156  1
  Rb  Rb3  1  0.30846378  0.69367899  0.00418332  1
  P  P0  1  0.17751021  0.17850128  0.82350915  1
  P  P1  1  0.65935569  0.66061511  0.67286705  1
  P  P2  1  0.83283489  0.83135529  0.16774664  1
  P  P3  1  0.32820375  0.32738786  0.33896678  1
  Os  Os0  1  0.37461617  0.37554150  0.62527419  1
  Pt  Pt0  1  0.63091805  0.63025196  0.36836559  1
  Pt  Pt1  1  0.12890826  0.12840584  0.12455553  1
  Pt  Pt2  1  0.87553580  0.87622496  0.87053920  1
loop_
_geom_bond_atom_site_label_1
_geom_bond_atom_site_label_2
_geom_bond_distance
_geom_bond_site_symmetry_2
Rb1 Rb2 4.035044 1_555
Rb1 Rb2 4.043212 1_554
Rb1 Rb3 4.050559 1_655
Rb1 Rb3 4.053392 1_545
P0 Pt1 2.347604 1_556
P0 Pt2 2.359791 1_445
P0 Rb0 3.538458 1_545
P0 Rb1 3.539690 1_556
P0 Rb3 3.540128 1_556
P0 Rb2 3.546999 1_455
P0 Rb1 3.942167 1_456
P1 Pt2 2.218734 1_555
P1 Pt0 2.338813 1_555
P1 Rb1 3.560043 1_556
P1 Rb3 3.563307 1_556
P1 Rb0 3.629798 1_655
P1 Rb2 3.631323 1_565
P1 Rb0 3.871134 1_555
P1 Rb2 3.888683 1_555
P2 Pt0 2.210257 1_555
P2 Pt2 2.310910 1_554
P2 Pt1 2.312406 1_665
P2 Rb3 3.544108 1_555
P2 Rb1 3.545231 1_555
P2 Rb2 3.547390 1_565
P2 Rb0 3.551334 1_655
P2 Rb3 3.885133 1_655
P2 Rb1 3.907326 1_565
P3 Pt1 2.217365 1_555
P3 Pt0 2.333260 1_555
P3 Rb2 3.593009 1_455
P3 Rb0 3.595257 1_545
P3 Rb3 3.633578 1_555
P3 Rb1 3.644426 1_555
P3 Rb2 3.854921 1_555
P3 Rb0 3.870656 1_555
Os0 P0 2.172733 1_555
Os0 P1 2.211595 1_555
Os0 P3 2.214966 1_555
Os0 Pt0 2.816394 1_555
Os0 Rb0 3.681858 1_555
Os0 Rb2 3.692285 1_555
Os0 Rb1 3.711756 1_556
Os0 Rb3 3.720289 1_556
Os0 Rb2 3.735633 1_455
Os0 Rb0 3.736546 1_545
Pt0 Rb3 3.647279 1_555
Pt0 Rb0 3.659539 1_655
Pt0 Rb2 3.660108 1_565
Pt0 Rb1 3.661641 1_555
Pt0 Rb2 3.734275 1_555
Pt0 Rb0 3.744815 1_555
Pt1 Rb3 3.683571 1_545
Pt1 Rb1 3.691178 1_455
Pt1 Rb3 3.721252 1_555
Pt1 Rb1 3.723862 1_555
Pt1 Rb2 3.762517 1_455
Pt1 Rb0 3.775386 1_545
Pt2 Rb0 3.684179 1_655
Pt2 Rb1 3.694095 1_566
Pt2 Rb2 3.697503 1_565
Pt2 Rb3 3.711261 1_656
Pt2 Rb3 3.757286 1_556
Pt2 Rb1 3.759821 1_556
