# generated using pymatgen
data_Ba12Lu(ScAs4)3
_symmetry_space_group_name_H-M   'P 1'
_cell_length_a   4.70623842
_cell_length_b   13.81484790
_cell_length_c   14.99965780
_cell_angle_alpha   89.83317112
_cell_angle_beta   90.00000000
_cell_angle_gamma   90.00000000
_symmetry_Int_Tables_number   1
_chemical_formula_structural   Ba12Lu(ScAs4)3
_chemical_formula_sum   'Ba12 Lu1 Sc3 As12'
_cell_volume   975.21313711
_cell_formula_units_Z   1
loop_
 _symmetry_equiv_pos_site_id
 _symmetry_equiv_pos_as_xyz
  1  'x, y, z'
loop_
 _atom_site_type_symbol
 _atom_site_label
 _atom_site_symmetry_multiplicity
 _atom_site_fract_x
 _atom_site_fract_y
 _atom_site_fract_z
 _atom_site_occupancy
  Ba  Ba0  1  0.25000000  0.41884051  0.10084178  1
  Ba  Ba1  1  0.25000000  0.14415270  0.00169645  1
  Ba  Ba2  1  0.25000000  0.22714739  0.29697869  1
  Ba  Ba3  1  0.75000000  0.27359859  0.79472290  1
  Ba  Ba4  1  0.75000000  0.36015857  0.49998167  1
  Ba  Ba5  1  0.25000000  0.91752183  0.39743466  1
  Ba  Ba6  1  0.75000000  0.77049728  0.70370978  1
  Ba  Ba7  1  0.75000000  0.85791224  0.00182316  1
  Ba  Ba8  1  0.25000000  0.72653288  0.20364075  1
  Ba  Ba9  1  0.75000000  0.08102978  0.59695461  1
  Ba  Ba10  1  0.75000000  0.58100415  0.90025035  1
  Ba  Ba11  1  0.25000000  0.64119769  0.49920763  1
  Lu  Lu0  1  0.25000000  0.95313635  0.79527834  1
  Sc  Sc0  1  0.75000000  0.54851832  0.29441135  1
  Sc  Sc1  1  0.75000000  0.04968105  0.20505856  1
  Sc  Sc2  1  0.25000000  0.45051257  0.70541405  1
  As  As0  1  0.75000000  0.22689441  0.13378942  1
  As  As1  1  0.75000000  0.72448364  0.36709491  1
  As  As2  1  0.75000000  0.58787850  0.12166693  1
  As  As3  1  0.25000000  0.27424095  0.63092341  1
  As  As4  1  0.25000000  0.77154948  0.87016833  1
  As  As5  1  0.75000000  0.08703030  0.37781251  1
  As  As6  1  0.25000000  0.90987568  0.61810726  1
  As  As7  1  0.25000000  0.41143262  0.87831727  1
  As  As8  1  0.75000000  0.04048152  0.85090569  1
  As  As9  1  0.25000000  0.46473381  0.34620850  1
  As  As10  1  0.25000000  0.96541277  0.15385805  1
  As  As11  1  0.75000000  0.53454244  0.65374499  1
loop_
_geom_bond_atom_site_label_1
_geom_bond_atom_site_label_2
_geom_bond_distance
_geom_bond_site_symmetry_2
As0 Sc1 2.668541 1_555
As0 Ba1 3.283702 1_655
As0 Ba1 3.283702 1_555
As0 Ba2 3.395420 1_555
As0 Ba2 3.395420 1_655
As0 Ba0 3.578452 1_655
As0 Ba0 3.578452 1_555
As1 Sc0 2.667109 1_555
As1 Ba11 3.282477 1_555
As1 Ba11 3.282477 1_655
As1 Ba8 3.398334 1_655
As1 Ba8 3.398334 1_555
As1 Ba5 3.586520 1_555
As1 Ba5 3.586520 1_655
As2 Sc0 2.645997 1_555
As2 Ba8 3.275950 1_655
As2 Ba8 3.275950 1_555
As2 Ba10 3.322807 1_554
As2 Ba0 3.330512 1_655
As2 Ba0 3.330512 1_555
As3 Sc2 2.682221 1_555
As3 Ba4 3.284819 1_455
As3 Ba4 3.284819 1_555
As3 Ba3 3.402008 1_555
As3 Ba3 3.402008 1_455
As3 Ba9 3.595725 1_455
As3 Ba9 3.595725 1_555
As4 Lu0 2.745632 1_555
As4 Ba7 3.297589 1_456
As4 Ba7 3.297589 1_556
As4 Ba6 3.430993 1_555
As4 Ba6 3.430993 1_455
As4 Ba10 3.558531 1_555
As4 Ba10 3.558531 1_455
As5 Sc1 2.643595 1_555
As5 Ba2 3.277275 1_655
As5 Ba2 3.277275 1_555
As5 Ba9 3.287860 1_555
As5 Ba5 3.332192 1_545
As5 Ba5 3.332192 1_645
As6 Lu0 2.725575 1_555
As6 Ba6 3.298328 1_455
As6 Ba6 3.298328 1_555
As6 Ba5 3.311391 1_555
As6 Ba9 3.350250 1_565
As6 Ba9 3.350250 1_465
As7 Sc2 2.647547 1_555
As7 Ba3 3.278585 1_555
As7 Ba3 3.278585 1_455
As7 Ba10 3.337318 1_455
As7 Ba10 3.337318 1_555
As7 Ba0 3.339658 1_556
As8 Lu0 2.774035 1_645
As8 Lu0 2.774035 1_545
As8 Ba3 3.326537 1_555
As8 Ba7 3.384149 1_546
As8 Ba1 3.566934 1_556
As8 Ba1 3.566934 1_656
As8 Ba9 3.848533 1_555
As9 Sc0 2.734101 1_455
As9 Sc0 2.734101 1_555
As9 Ba11 3.352951 1_555
As9 Ba2 3.366358 1_555
As9 Ba4 3.595142 1_455
As9 Ba4 3.595142 1_555
As9 Ba0 3.736445 1_555
As10 Sc1 2.736318 1_565
As10 Sc1 2.736318 1_465
As10 Ba1 3.357629 1_565
As10 Ba8 3.381395 1_555
As10 Ba7 3.600413 1_555
As10 Ba7 3.600413 1_455
As10 Ba5 3.711090 1_555
As11 Sc2 2.734992 1_655
As11 Sc2 2.734992 1_555
As11 Ba4 3.339988 1_555
As11 Ba6 3.346853 1_555
As11 Ba11 3.614059 1_655
As11 Ba11 3.614059 1_555
As11 Ba10 3.754635 1_555
