# generated using pymatgen
data_Na8TiBi4
_symmetry_space_group_name_H-M   'P 1'
_cell_length_a   10.50590133
_cell_length_b   10.50590386
_cell_length_c   10.50590465
_cell_angle_alpha   59.99973892
_cell_angle_beta   59.99971187
_cell_angle_gamma   59.99975957
_symmetry_Int_Tables_number   1
_chemical_formula_structural   Na8TiBi4
_chemical_formula_sum   'Na16 Ti2 Bi8'
_cell_volume   819.94100334
_cell_formula_units_Z   2
loop_
 _symmetry_equiv_pos_site_id
 _symmetry_equiv_pos_as_xyz
  1  'x, y, z'
loop_
 _atom_site_type_symbol
 _atom_site_label
 _atom_site_symmetry_multiplicity
 _atom_site_fract_x
 _atom_site_fract_y
 _atom_site_fract_z
 _atom_site_occupancy
  Na  Na0  1  0.62500000  0.62500000  0.12500000  1
  Na  Na1  1  0.62500000  0.12500000  0.62500000  1
  Na  Na2  1  0.12500000  0.62500000  0.62500000  1
  Na  Na3  1  0.62500000  0.62500000  0.62500000  1
  Na  Na4  1  0.02701885  0.47298215  0.47298215  1
  Na  Na5  1  0.77701885  0.22298215  0.22298215  1
  Na  Na6  1  0.47298215  0.02701885  0.47298215  1
  Na  Na7  1  0.47298215  0.47298215  0.02701885  1
  Na  Na8  1  0.02701785  0.02701785  0.47298115  1
  Na  Na9  1  0.02701785  0.47298115  0.02701785  1
  Na  Na10  1  0.47298115  0.02701785  0.02701785  1
  Na  Na11  1  0.77701785  0.22298115  0.77701785  1
  Na  Na12  1  0.22298215  0.77701885  0.22298215  1
  Na  Na13  1  0.22298215  0.22298215  0.77701885  1
  Na  Na14  1  0.77701785  0.77701785  0.22298115  1
  Na  Na15  1  0.22298115  0.77701785  0.77701785  1
  Ti  Ti0  1  0.75000000  0.75000000  0.75000000  1
  Ti  Ti1  1  0.50000000  0.50000000  0.50000000  1
  Bi  Bi0  1  0.85752141  0.85752141  0.42743477  1
  Bi  Bi1  1  0.85752141  0.42743477  0.85752241  1
  Bi  Bi2  1  0.39247859  0.39247859  0.82256523  1
  Bi  Bi3  1  0.39247859  0.82256523  0.39247759  1
  Bi  Bi4  1  0.82256523  0.39247859  0.39247859  1
  Bi  Bi5  1  0.85752241  0.85752241  0.85752141  1
  Bi  Bi6  1  0.42743477  0.85752141  0.85752141  1
  Bi  Bi7  1  0.39247759  0.39247759  0.39247859  1
loop_
_geom_bond_atom_site_label_1
_geom_bond_atom_site_label_2
_geom_bond_distance
_geom_bond_site_symmetry_2
Na0 Ti1 3.216752 1_555
Na0 Ti0 3.216752 1_554
Na0 Na9 3.464052 1_655
Na0 Na12 3.464052 1_555
Na0 Na10 3.464054 1_565
Na0 Na5 3.464054 1_555
Na0 Na14 3.464062 1_555
Na0 Na7 3.464062 1_555
Na1 Ti0 3.216753 1_545
Na1 Ti1 3.216753 1_555
Na1 Na8 3.464052 1_655
Na1 Na13 3.464052 1_555
Na1 Na10 3.464052 1_556
Na1 Na5 3.464052 1_555
Na1 Na11 3.464062 1_555
Na1 Na6 3.464062 1_555
Na2 Ti0 3.216751 1_455
Na2 Ti1 3.216751 1_555
Na2 Na9 3.464052 1_556
Na2 Na8 3.464053 1_565
Na2 Na4 3.464062 1_555
Na3 Ti0 3.216769 1_555
Na3 Ti1 3.216769 1_555
Na3 Na4 3.464058 1_655
Na3 Na7 3.464058 1_556
Na3 Na6 3.464060 1_565
Na5 Na9 3.757507 1_655
Na5 Na8 3.757510 1_655
Na5 Na6 3.757522 1_555
Na5 Na7 3.757524 1_555
Na10 Na12 3.757507 1_545
Na10 Na13 3.757510 1_554
Na10 Na11 3.757522 1_554
Na10 Na14 3.757524 1_545
Na11 Na3 3.464060 1_555
Na11 Na8 3.757523 1_655
Na11 Na4 3.757530 1_655
Na11 Na7 3.757532 1_556
Na12 Na2 3.464052 1_555
Na12 Na8 3.757509 1_565
Na12 Na4 3.757522 1_555
Na12 Na7 3.757524 1_555
Na13 Na2 3.464053 1_555
Na13 Na9 3.757509 1_556
Na13 Na6 3.757523 1_555
Na13 Na4 3.757525 1_555
Na14 Na3 3.464058 1_555
Na14 Na9 3.757524 1_655
Na14 Na6 3.757532 1_565
Na14 Na4 3.757533 1_655
Na15 Na3 3.464058 1_555
Na15 Na2 3.464062 1_555
Na15 Na9 3.757522 1_556
Na15 Na8 3.757525 1_565
Na15 Na6 3.757530 1_565
Na15 Na7 3.757533 1_556
Bi0 Ti0 2.766966 1_555
Bi0 Na12 3.223812 1_655
Bi0 Na5 3.223814 1_565
Bi0 Na14 3.223833 1_555
Bi0 Na6 3.383174 1_565
Bi0 Na4 3.383176 1_655
Bi0 Na8 3.383192 1_665
Bi0 Na3 3.474167 1_555
Bi0 Na1 3.474174 1_565
Bi0 Na2 3.474175 1_655
Bi1 Ti0 2.766967 1_555
Bi1 Na5 3.223806 1_556
Bi1 Na13 3.223813 1_655
Bi1 Na11 3.223840 1_555
Bi1 Na7 3.383173 1_556
Bi1 Na4 3.383183 1_655
Bi1 Na9 3.383183 1_656
Bi1 Na0 3.474166 1_556
Bi1 Na2 3.474172 1_655
Bi1 Na3 3.474177 1_555
Bi2 Ti1 2.766966 1_555
Bi2 Na9 3.223812 1_556
Bi2 Na10 3.223814 1_556
Bi2 Na7 3.223833 1_556
Bi2 Na11 3.383174 1_555
Bi2 Na15 3.383176 1_555
Bi2 Na13 3.383192 1_555
Bi2 Na3 3.474167 1_555
Bi2 Na1 3.474174 1_555
Bi2 Na2 3.474175 1_555
Bi3 Ti1 2.766967 1_555
Bi3 Na10 3.223806 1_565
Bi3 Na8 3.223813 1_565
Bi3 Na6 3.223840 1_565
Bi3 Na14 3.383173 1_555
Bi3 Na15 3.383183 1_555
Bi3 Na12 3.383183 1_555
Bi3 Na0 3.474166 1_555
Bi3 Na2 3.474172 1_555
Bi3 Na3 3.474177 1_555
Bi4 Ti1 2.766966 1_555
Bi4 Na9 3.223813 1_655
Bi4 Na8 3.223815 1_655
Bi4 Na4 3.223833 1_655
Bi4 Na11 3.383175 1_555
Bi4 Na14 3.383175 1_555
Bi4 Na5 3.383192 1_555
Bi4 Na3 3.474168 1_555
Bi4 Na1 3.474173 1_555
Bi4 Na0 3.474175 1_555
Bi5 Ti0 2.766990 1_555
Bi5 Na15 3.223798 1_655
Bi5 Na11 3.223799 1_565
Bi5 Na14 3.223806 1_556
Bi5 Na8 3.383175 1_665
Bi5 Na10 3.383185 1_566
Bi5 Na9 3.383186 1_656
Bi5 Na2 3.474171 1_655
Bi5 Na1 3.474172 1_565
Bi5 Na0 3.474177 1_556
Bi6 Ti0 2.766966 1_555
Bi6 Na12 3.223813 1_556
Bi6 Na13 3.223815 1_565
Bi6 Na15 3.223833 1_555
Bi6 Na6 3.383175 1_565
Bi6 Na7 3.383175 1_556
Bi6 Na10 3.383192 1_566
Bi6 Na3 3.474168 1_555
Bi6 Na1 3.474173 1_565
Bi6 Na0 3.474175 1_556
Bi7 Ti1 2.766990 1_555
Bi7 Na4 3.223798 1_555
Bi7 Na6 3.223799 1_555
Bi7 Na7 3.223806 1_555
Bi7 Na13 3.383175 1_555
Bi7 Na5 3.383185 1_555
Bi7 Na12 3.383186 1_555
Bi7 Na2 3.474171 1_555
Bi7 Na1 3.474172 1_555
Bi7 Na0 3.474177 1_555
