# generated using pymatgen
data_BaY3(ZnSn)4
_symmetry_space_group_name_H-M   'P 1'
_cell_length_a   4.49814623
_cell_length_b   4.49814598
_cell_length_c   17.21698742
_cell_angle_alpha   90.00000000
_cell_angle_beta   90.00000000
_cell_angle_gamma   120.00000181
_symmetry_Int_Tables_number   1
_chemical_formula_structural   BaY3(ZnSn)4
_chemical_formula_sum   'Ba1 Y3 Zn4 Sn4'
_cell_volume   301.68582260
_cell_formula_units_Z   1
loop_
 _symmetry_equiv_pos_site_id
 _symmetry_equiv_pos_as_xyz
  1  'x, y, z'
loop_
 _atom_site_type_symbol
 _atom_site_label
 _atom_site_symmetry_multiplicity
 _atom_site_fract_x
 _atom_site_fract_y
 _atom_site_fract_z
 _atom_site_occupancy
  Ba  Ba0  1  0.00000000  0.00000000  0.00000000  1
  Y  Y0  1  0.00000000  0.00000000  0.26528821  1
  Y  Y1  1  0.00000000  0.00000000  0.50000000  1
  Y  Y2  1  0.00000000  0.00000000  0.73471179  1
  Zn  Zn0  1  0.66666700  0.33333300  0.81747439  1
  Zn  Zn1  1  0.33333300  0.66666700  0.34908391  1
  Zn  Zn2  1  0.66666700  0.33333300  0.65091609  1
  Zn  Zn3  1  0.33333300  0.66666700  0.18252561  1
  Sn  Sn0  1  0.33333300  0.66666700  0.60626002  1
  Sn  Sn1  1  0.66666700  0.33333300  0.14197611  1
  Sn  Sn2  1  0.66666700  0.33333300  0.39373998  1
  Sn  Sn3  1  0.33333300  0.66666700  0.85802389  1
loop_
_geom_bond_atom_site_label_1
_geom_bond_atom_site_label_2
_geom_bond_distance
_geom_bond_site_symmetry_2
Ba0 Sn1 3.566444 1_455
Ba0 Sn3 3.566444 1_544
Ba0 Sn1 3.566447 1_445
Ba0 Sn3 3.566447 1_554
Ba0 Sn1 3.566447 1_555
Ba0 Sn3 3.566447 1_444
Y0 Zn3 2.962234 1_545
Y0 Zn3 2.962237 1_555
Y0 Zn3 2.962237 1_445
Y0 Zn1 2.970831 1_545
Y0 Zn1 2.970834 1_555
Y0 Zn1 2.970834 1_445
Y2 Zn0 2.962234 1_455
Y2 Zn0 2.962237 1_445
Y2 Zn0 2.962237 1_555
Y2 Zn2 2.970831 1_455
Y2 Zn2 2.970834 1_445
Y2 Zn2 2.970834 1_555
Sn0 Zn2 2.708421 1_565
Sn0 Zn2 2.708421 1_455
Sn0 Zn2 2.708429 1_555
Sn0 Y1 3.176699 1_565
Sn0 Y1 3.176702 1_555
Sn0 Y1 3.176702 1_665
Sn0 Y2 3.411069 1_565
Sn0 Y2 3.411072 1_555
Sn0 Y2 3.411072 1_665
Sn1 Zn3 2.689205 1_545
Sn1 Zn3 2.689205 1_655
Sn1 Zn3 2.689213 1_555
Sn1 Y0 3.354374 1_655
Sn1 Y0 3.354376 1_665
Sn1 Y0 3.354377 1_555
Sn2 Zn1 2.708421 1_545
Sn2 Zn1 2.708421 1_655
Sn2 Zn1 2.708429 1_555
Sn2 Y1 3.176699 1_655
Sn2 Y1 3.176702 1_665
Sn2 Y1 3.176702 1_555
Sn2 Y0 3.411069 1_655
Sn2 Y0 3.411072 1_665
Sn2 Y0 3.411072 1_555
Sn3 Zn0 2.689205 1_565
Sn3 Zn0 2.689205 1_455
Sn3 Zn0 2.689213 1_555
Sn3 Y2 3.354374 1_565
Sn3 Y2 3.354376 1_555
Sn3 Y2 3.354377 1_665
