# generated using pymatgen
data_Mn4Cu2AsPd9
_symmetry_space_group_name_H-M   'P 1'
_cell_length_a   6.72720607
_cell_length_b   6.72720614
_cell_length_c   6.72720524
_cell_angle_alpha   106.41296582
_cell_angle_beta   106.41296147
_cell_angle_gamma   115.77784097
_symmetry_Int_Tables_number   1
_chemical_formula_structural   Mn4Cu2AsPd9
_chemical_formula_sum   'Mn4 Cu2 As1 Pd9'
_cell_volume   232.20676708
_cell_formula_units_Z   1
loop_
 _symmetry_equiv_pos_site_id
 _symmetry_equiv_pos_as_xyz
  1  'x, y, z'
loop_
 _atom_site_type_symbol
 _atom_site_label
 _atom_site_symmetry_multiplicity
 _atom_site_fract_x
 _atom_site_fract_y
 _atom_site_fract_z
 _atom_site_occupancy
  Mn  Mn0  1  0.23250810  0.23250810  0.46501720  1
  Mn  Mn1  1  0.76749190  0.76749190  0.53498280  1
  Mn  Mn2  1  0.23250810  0.76749190  0.00000000  1
  Mn  Mn3  1  0.76749190  0.23250810  1.00000000  1
  Cu  Cu0  1  0.50000000  0.00000000  0.50000000  1
  Cu  Cu1  1  0.00000000  0.50000000  0.50000000  1
  As  As0  1  0.50000000  0.50000000  0.00000000  1
  Pd  Pd0  1  0.52235549  0.27036453  0.25198995  1
  Pd  Pd1  1  0.47764451  0.72963547  0.74801005  1
  Pd  Pd2  1  0.01837358  0.27036453  0.74801005  1
  Pd  Pd3  1  0.27036453  0.01837358  0.74801005  1
  Pd  Pd4  1  0.98162642  0.72963547  0.25198995  1
  Pd  Pd5  1  0.72963547  0.98162642  0.25198995  1
  Pd  Pd6  1  0.27036453  0.52235549  0.25198995  1
  Pd  Pd7  1  0.72963547  0.47764451  0.74801005  1
  Pd  Pd8  1  0.00000000  0.00000000  0.00000000  1
loop_
_geom_bond_atom_site_label_1
_geom_bond_atom_site_label_2
_geom_bond_distance
_geom_bond_site_symmetry_2
Mn0 Pd8 2.649702 1_555
Mn0 Pd4 2.697024 1_445
Mn0 Pd5 2.697024 1_445
Mn0 Pd0 2.697034 1_555
Mn0 Pd6 2.697034 1_555
Mn0 Pd2 2.712769 1_555
Mn0 Pd3 2.712769 1_555
Mn0 Pd1 2.712770 1_555
Mn0 Pd7 2.712770 1_555
Mn1 Pd8 2.649702 1_666
Mn1 Pd2 2.697024 1_665
Mn1 Pd3 2.697024 1_665
Mn1 Pd1 2.697034 1_555
Mn1 Pd7 2.697034 1_555
Mn1 Pd4 2.712769 1_555
Mn1 Pd5 2.712769 1_555
Mn1 Pd0 2.712770 1_555
Mn1 Pd6 2.712770 1_555
Mn2 Pd8 2.649696 1_565
Mn2 Pd4 2.697018 1_455
Mn2 Pd3 2.697018 1_564
Mn2 Pd0 2.697023 1_565
Mn2 Pd7 2.697023 1_454
Mn2 Pd1 2.712764 1_554
Mn2 Pd6 2.712764 1_555
Mn2 Pd2 2.712769 1_554
Mn2 Pd5 2.712769 1_555
Mn3 Pd8 2.649696 1_656
Mn3 Pd2 2.697018 1_655
Mn3 Pd5 2.697018 1_546
Mn3 Pd1 2.697023 1_545
Mn3 Pd6 2.697023 1_656
Mn3 Pd0 2.712764 1_556
Mn3 Pd7 2.712764 1_555
Mn3 Pd4 2.712769 1_556
Mn3 Pd3 2.712769 1_555
Cu0 Pd6 2.586763 1_545
Cu0 Pd7 2.586763 1_555
Cu0 Pd3 2.586767 1_555
Cu0 Pd5 2.586767 1_545
Cu0 Pd4 2.780821 1_445
Cu0 Pd2 2.780821 1_655
Cu0 Pd1 2.780826 1_545
Cu0 Pd0 2.780826 1_555
Cu0 Mn1 2.856001 1_545
Cu0 Mn0 2.856001 1_555
Cu0 Mn3 2.856001 1_555
Cu0 Mn2 2.856001 1_545
Cu1 Pd1 2.586763 1_555
Cu1 Pd0 2.586763 1_455
Cu1 Pd4 2.586767 1_455
Cu1 Pd2 2.586767 1_555
Cu1 Pd3 2.780821 1_565
Cu1 Pd5 2.780821 1_445
Cu1 Pd6 2.780826 1_555
Cu1 Pd7 2.780826 1_455
Cu1 Mn0 2.856001 1_555
Cu1 Mn1 2.856001 1_455
Cu1 Mn2 2.856001 1_556
Cu1 Mn3 2.856001 1_454
As0 Pd7 2.611626 1_554
As0 Pd6 2.611626 1_555
As0 Pd0 2.611626 1_555
As0 Pd1 2.611626 1_554
As0 Pd5 2.611631 1_555
As0 Pd3 2.611631 1_554
As0 Pd2 2.611631 1_554
As0 Pd4 2.611631 1_555
As0 Mn1 3.048371 1_555
As0 Mn0 3.048371 1_554
As0 Mn3 3.048376 1_554
As0 Mn2 3.048376 1_555
