# generated using pymatgen
data_Cs4Mg5Cd5Sb8
_symmetry_space_group_name_H-M   'P 1'
_cell_length_a   7.76890693
_cell_length_b   7.76890622
_cell_length_c   13.30024446
_cell_angle_alpha   90.00000000
_cell_angle_beta   90.00000000
_cell_angle_gamma   118.10660933
_symmetry_Int_Tables_number   1
_chemical_formula_structural   Cs4Mg5Cd5Sb8
_chemical_formula_sum   'Cs4 Mg5 Cd5 Sb8'
_cell_volume   708.08226515
_cell_formula_units_Z   1
loop_
 _symmetry_equiv_pos_site_id
 _symmetry_equiv_pos_as_xyz
  1  'x, y, z'
loop_
 _atom_site_type_symbol
 _atom_site_label
 _atom_site_symmetry_multiplicity
 _atom_site_fract_x
 _atom_site_fract_y
 _atom_site_fract_z
 _atom_site_occupancy
  Cs  Cs0  1  0.22023884  0.78140655  0.49875562  1
  Cs  Cs1  1  0.22023884  0.78140655  0.00124438  1
  Cs  Cs2  1  0.78140655  0.22023884  0.49875562  1
  Cs  Cs3  1  0.78140655  0.22023884  0.00124438  1
  Mg  Mg0  1  0.64045927  0.64045927  0.38656670  1
  Mg  Mg1  1  0.36158902  0.36158902  0.61370398  1
  Mg  Mg2  1  0.64045927  0.64045927  0.11343330  1
  Mg  Mg3  1  0.36158902  0.36158902  0.88629602  1
  Mg  Mg4  1  0.98937040  0.98937040  0.75000000  1
  Cd  Cd0  1  0.51810647  0.23246173  0.25000000  1
  Cd  Cd1  1  0.76483145  0.47836765  0.75000000  1
  Cd  Cd2  1  0.47836765  0.76483145  0.75000000  1
  Cd  Cd3  1  0.23246173  0.51810647  0.25000000  1
  Cd  Cd4  1  0.00922761  0.00922761  0.25000000  1
  Sb  Sb0  1  0.59543852  0.90918117  0.25000000  1
  Sb  Sb1  1  0.08975401  0.40159025  0.75000000  1
  Sb  Sb2  1  0.40159025  0.08975401  0.75000000  1
  Sb  Sb3  1  0.90918117  0.59543852  0.25000000  1
  Sb  Sb4  1  0.27330353  0.27330353  0.40631994  1
  Sb  Sb5  1  0.72883967  0.72883967  0.59454031  1
  Sb  Sb6  1  0.27330353  0.27330353  0.09368006  1
  Sb  Sb7  1  0.72883967  0.72883967  0.90545969  1
loop_
_geom_bond_atom_site_label_1
_geom_bond_atom_site_label_2
_geom_bond_distance
_geom_bond_site_symmetry_2
Cs0 Sb4 3.847191 1_565
Cs0 Sb5 3.859415 1_455
Cs0 Sb3 3.947627 1_455
Cs0 Sb2 3.963563 1_565
Cs0 Sb0 4.207359 1_555
Cs0 Sb1 4.252356 1_555
Cs1 Sb6 3.847191 1_565
Cs1 Sb7 3.859415 1_454
Cs1 Sb3 3.947627 1_455
Cs1 Sb2 3.963563 1_564
Cs1 Sb0 4.207359 1_555
Cs1 Sb1 4.252356 1_554
Cs2 Sb4 3.847191 1_655
Cs2 Sb5 3.859415 1_545
Cs2 Sb0 3.947627 1_545
Cs2 Sb1 3.963563 1_655
Cs2 Sb3 4.207359 1_555
Cs2 Sb2 4.252356 1_555
Cs3 Sb6 3.847191 1_655
Cs3 Sb7 3.859415 1_544
Cs3 Sb0 3.947627 1_545
Cs3 Sb1 3.963563 1_654
Cs3 Sb3 4.207359 1_555
Cs3 Sb2 4.252356 1_554
Mg0 Sb5 2.854819 1_555
Mg0 Sb0 2.909970 1_555
Mg0 Sb3 2.909971 1_555
Mg0 Sb4 2.945378 1_555
Mg1 Sb4 2.847034 1_555
Mg1 Sb2 2.908788 1_555
Mg1 Sb1 2.908788 1_555
Mg1 Sb5 2.945444 1_555
Mg2 Sb7 2.854819 1_554
Mg2 Sb0 2.909970 1_555
Mg2 Sb3 2.909971 1_555
Mg2 Sb6 2.945378 1_555
Mg3 Sb6 2.847034 1_556
Mg3 Sb2 2.908788 1_555
Mg3 Sb1 2.908788 1_555
Mg3 Sb7 2.945444 1_555
Mg4 Sb1 2.917352 1_665
Mg4 Sb2 2.917352 1_665
Mg4 Sb5 2.934041 1_555
Mg4 Sb7 2.934041 1_555
Cd0 Sb0 2.844377 1_545
Cd0 Sb4 2.934098 1_555
Cd0 Sb6 2.934098 1_555
Cd0 Sb3 3.018312 1_555
Cd0 Cs2 3.914406 1_555
Cd0 Cs3 3.914406 1_555
Cd1 Sb1 2.854213 1_655
Cd1 Sb5 2.941520 1_555
Cd1 Sb7 2.941520 1_555
Cd1 Sb2 3.008478 1_555
Cd1 Cs3 3.930370 1_556
Cd1 Cs2 3.930370 1_555
Cd2 Sb2 2.854213 1_565
Cd2 Sb5 2.941521 1_555
Cd2 Sb7 2.941521 1_555
Cd2 Sb1 3.008478 1_555
Cd2 Cs1 3.930370 1_556
Cd2 Cs0 3.930370 1_555
Cd3 Sb3 2.844377 1_455
Cd3 Sb4 2.934098 1_555
Cd3 Sb6 2.934098 1_555
Cd3 Sb0 3.018312 1_555
Cd3 Cs0 3.914405 1_555
Cd3 Cs1 3.914405 1_555
Cd4 Sb3 2.929859 1_445
Cd4 Sb0 2.929859 1_445
Cd4 Sb4 2.962225 1_555
Cd4 Sb6 2.962225 1_555
