# generated using pymatgen
data_Rb4ZrTiBr12
_symmetry_space_group_name_H-M   'P 1'
_cell_length_a   7.49341879
_cell_length_b   7.49341879
_cell_length_c   10.87814546
_cell_angle_alpha   90.00000000
_cell_angle_beta   90.00000000
_cell_angle_gamma   90.00000000
_symmetry_Int_Tables_number   1
_chemical_formula_structural   Rb4ZrTiBr12
_chemical_formula_sum   'Rb4 Zr1 Ti1 Br12'
_cell_volume   610.82228355
_cell_formula_units_Z   1
loop_
 _symmetry_equiv_pos_site_id
 _symmetry_equiv_pos_as_xyz
  1  'x, y, z'
loop_
 _atom_site_type_symbol
 _atom_site_label
 _atom_site_symmetry_multiplicity
 _atom_site_fract_x
 _atom_site_fract_y
 _atom_site_fract_z
 _atom_site_occupancy
  Rb  Rb0  1  0.50000000  0.00000000  0.76009098  1
  Rb  Rb1  1  0.50000000  0.00000000  0.23990902  1
  Rb  Rb2  1  0.00000000  0.50000000  0.23990902  1
  Rb  Rb3  1  0.00000000  0.50000000  0.76009098  1
  Zr  Zr0  1  0.50000000  0.50000000  0.50000000  1
  Ti  Ti0  1  0.00000000  0.00000000  0.00000000  1
  Br  Br0  1  0.77248051  0.24738657  0.00000000  1
  Br  Br1  1  0.22751949  0.75261343  0.00000000  1
  Br  Br2  1  0.50000000  0.50000000  0.25642697  1
  Br  Br3  1  0.30370774  0.20910708  0.50000000  1
  Br  Br4  1  0.24738657  0.22751949  0.00000000  1
  Br  Br5  1  0.79089292  0.30370774  0.50000000  1
  Br  Br6  1  0.00000000  0.00000000  0.23203098  1
  Br  Br7  1  0.69629226  0.79089292  0.50000000  1
  Br  Br8  1  0.20910708  0.69629226  0.50000000  1
  Br  Br9  1  0.50000000  0.50000000  0.74357303  1
  Br  Br10  1  0.75261343  0.77248051  0.00000000  1
  Br  Br11  1  0.00000000  0.00000000  0.76796902  1
loop_
_geom_bond_atom_site_label_1
_geom_bond_atom_site_label_2
_geom_bond_distance
_geom_bond_site_symmetry_2
Br0 Ti0 2.518561 1_655
Br0 Rb2 3.647022 1_655
Br0 Rb3 3.647022 1_654
Br0 Rb1 3.796885 1_555
Br0 Rb0 3.796885 1_554
Br1 Ti0 2.518561 1_565
Br1 Rb2 3.647022 1_555
Br1 Rb3 3.647022 1_554
Br1 Rb1 3.796885 1_565
Br1 Rb0 3.796885 1_564
Br2 Zr0 2.649623 1_555
Br2 Rb1 3.751016 1_565
Br2 Rb1 3.751016 1_555
Br2 Rb2 3.751016 1_655
Br2 Rb2 3.751016 1_555
Br3 Zr0 2.629639 1_555
Br3 Rb0 3.552997 1_555
Br3 Rb1 3.552997 1_555
Br4 Ti0 2.518561 1_555
Br4 Rb1 3.647022 1_555
Br4 Rb0 3.647022 1_554
Br4 Rb2 3.796885 1_555
Br4 Rb3 3.796885 1_554
Br5 Zr0 2.629639 1_555
Br5 Rb3 3.552997 1_655
Br5 Rb2 3.552997 1_655
Br6 Ti0 2.524067 1_555
Br6 Rb2 3.747689 1_555
Br6 Rb1 3.747689 1_455
Br6 Rb1 3.747689 1_555
Br6 Rb2 3.747689 1_545
Br7 Zr0 2.629639 1_555
Br7 Rb0 3.552997 1_565
Br7 Rb1 3.552997 1_565
Br8 Zr0 2.629639 1_555
Br8 Rb3 3.552997 1_555
Br8 Rb2 3.552997 1_555
Br9 Zr0 2.649623 1_555
Br9 Rb3 3.751016 1_555
Br9 Rb0 3.751016 1_565
Br9 Rb3 3.751016 1_655
Br9 Rb0 3.751016 1_555
Br10 Ti0 2.518561 1_665
Br10 Rb1 3.647022 1_565
Br10 Rb0 3.647022 1_564
Br10 Rb2 3.796885 1_655
Br10 Rb3 3.796885 1_654
Br11 Ti0 2.524067 1_556
Br11 Rb0 3.747689 1_455
Br11 Rb0 3.747689 1_555
Br11 Rb3 3.747689 1_545
Br11 Rb3 3.747689 1_555
