# generated using pymatgen
data_Zr10CuSb6As
_symmetry_space_group_name_H-M   'P 1'
_cell_length_a   8.63717584
_cell_length_b   8.63717680
_cell_length_c   5.84775740
_cell_angle_alpha   90.00000000
_cell_angle_beta   90.00000000
_cell_angle_gamma   119.99999253
_symmetry_Int_Tables_number   1
_chemical_formula_structural   Zr10CuSb6As
_chemical_formula_sum   'Zr10 Cu1 Sb6 As1'
_cell_volume   377.80141711
_cell_formula_units_Z   1
loop_
 _symmetry_equiv_pos_site_id
 _symmetry_equiv_pos_as_xyz
  1  'x, y, z'
loop_
 _atom_site_type_symbol
 _atom_site_label
 _atom_site_symmetry_multiplicity
 _atom_site_fract_x
 _atom_site_fract_y
 _atom_site_fract_z
 _atom_site_occupancy
  Zr  Zr0  1  0.66666700  0.33333300  0.00000000  1
  Zr  Zr1  1  0.33333300  0.66666700  0.00000000  1
  Zr  Zr2  1  0.33333300  0.66666700  0.50000000  1
  Zr  Zr3  1  0.66666700  0.33333300  0.50000000  1
  Zr  Zr4  1  0.73645187  0.73645187  0.75080160  1
  Zr  Zr5  1  0.26354813  0.00000000  0.75080160  1
  Zr  Zr6  1  0.00000000  0.26354813  0.75080160  1
  Zr  Zr7  1  0.26354813  0.26354813  0.24919840  1
  Zr  Zr8  1  0.73645187  1.00000000  0.24919840  1
  Zr  Zr9  1  1.00000000  0.73645187  0.24919840  1
  Cu  Cu0  1  0.00000000  0.00000000  0.00000000  1
  Sb  Sb0  1  0.39027304  0.39027304  0.75284635  1
  Sb  Sb1  1  0.60972696  1.00000000  0.75284635  1
  Sb  Sb2  1  1.00000000  0.60972696  0.75284635  1
  Sb  Sb3  1  0.60972696  0.60972696  0.24715365  1
  Sb  Sb4  1  0.39027304  0.00000000  0.24715365  1
  Sb  Sb5  1  0.00000000  0.39027304  0.24715365  1
  As  As0  1  0.00000000  0.00000000  0.50000000  1
loop_
_geom_bond_atom_site_label_1
_geom_bond_atom_site_label_2
_geom_bond_distance
_geom_bond_site_symmetry_2
Cu0 Zr5 2.702809 1_554
Cu0 Zr8 2.702809 1_445
Cu0 Zr9 2.702809 1_445
Cu0 Zr6 2.702809 1_554
Cu0 Zr7 2.702809 1_555
Cu0 Zr4 2.702809 1_444
Sb0 Zr6 2.978472 1_555
Sb0 Zr5 2.978472 1_555
Sb0 Zr4 2.990032 1_555
Sb0 Zr0 3.033781 1_556
Sb0 Zr1 3.033782 1_556
Sb0 Zr3 3.049781 1_555
Sb0 Zr2 3.049781 1_555
Sb0 Zr7 3.102065 1_556
Sb0 Zr7 3.142021 1_555
Sb1 Zr4 2.978472 1_555
Sb1 Zr6 2.978472 1_665
Sb1 Zr5 2.990031 1_565
Sb1 Zr0 3.033774 1_566
Sb1 Zr1 3.033777 1_556
Sb1 Zr3 3.049774 1_565
Sb1 Zr2 3.049777 1_555
Sb1 Zr8 3.102065 1_556
Sb1 Zr8 3.142021 1_555
Sb2 Zr4 2.978472 1_555
Sb2 Zr5 2.978472 1_665
Sb2 Zr6 2.990032 1_655
Sb2 Zr1 3.033774 1_656
Sb2 Zr0 3.033777 1_556
Sb2 Zr2 3.049774 1_655
Sb2 Zr3 3.049777 1_555
Sb2 Zr9 3.102065 1_556
Sb2 Zr9 3.142021 1_555
Sb3 Zr9 2.978472 1_555
Sb3 Zr8 2.978472 1_555
Sb3 Zr7 2.990032 1_555
Sb3 Zr1 3.033781 1_555
Sb3 Zr0 3.033782 1_555
Sb3 Zr2 3.049781 1_555
Sb3 Zr3 3.049781 1_555
Sb3 Zr4 3.102065 1_554
Sb3 Zr4 3.142021 1_555
Sb4 Zr7 2.978472 1_555
Sb4 Zr9 2.978472 1_445
Sb4 Zr8 2.990031 1_545
Sb4 Zr1 3.033774 1_545
Sb4 Zr0 3.033777 1_555
Sb4 Zr2 3.049774 1_545
Sb4 Zr3 3.049777 1_555
Sb4 Zr5 3.102065 1_554
Sb4 Zr5 3.142021 1_555
Sb5 Zr7 2.978472 1_555
Sb5 Zr8 2.978472 1_445
Sb5 Zr9 2.990032 1_455
Sb5 Zr0 3.033774 1_455
Sb5 Zr1 3.033777 1_555
Sb5 Zr3 3.049774 1_455
Sb5 Zr2 3.049777 1_555
Sb5 Zr6 3.102065 1_554
Sb5 Zr6 3.142021 1_555
As0 Zr5 2.707875 1_555
As0 Zr8 2.707875 1_445
As0 Zr6 2.707876 1_555
As0 Zr9 2.707876 1_445
As0 Zr7 2.707876 1_555
As0 Zr4 2.707876 1_445
As0 Cu0 2.923879 1_556
As0 Cu0 2.923879 1_555
