# generated using pymatgen
data_GePt(SeF6)4
_symmetry_space_group_name_H-M   'P 1'
_cell_length_a   6.03347318
_cell_length_b   7.84352531
_cell_length_c   9.61209739
_cell_angle_alpha   89.38304253
_cell_angle_beta   90.00000000
_cell_angle_gamma   90.00000000
_symmetry_Int_Tables_number   1
_chemical_formula_structural   GePt(SeF6)4
_chemical_formula_sum   'Ge1 Pt1 Se4 F24'
_cell_volume   454.85363791
_cell_formula_units_Z   1
loop_
 _symmetry_equiv_pos_site_id
 _symmetry_equiv_pos_as_xyz
  1  'x, y, z'
loop_
 _atom_site_type_symbol
 _atom_site_label
 _atom_site_symmetry_multiplicity
 _atom_site_fract_x
 _atom_site_fract_y
 _atom_site_fract_z
 _atom_site_occupancy
  Ge  Ge0  1  0.50000000  0.00000000  0.50000000  1
  Pt  Pt0  1  0.00000000  0.50000000  0.00000000  1
  Se  Se0  1  0.50000000  0.60573284  0.24191349  1
  Se  Se1  1  0.50000000  0.39426716  0.75808651  1
  Se  Se2  1  0.00000000  0.10019624  0.26289666  1
  Se  Se3  1  0.00000000  0.89980376  0.73710334  1
  F  F0  1  0.22541141  0.35184227  0.92017603  1
  F  F1  1  0.22541141  0.64815773  0.07982397  1
  F  F2  1  0.28838836  0.86683219  0.57851228  1
  F  F3  1  0.28838836  0.13316781  0.42148772  1
  F  F4  1  0.77458859  0.64815773  0.07982397  1
  F  F5  1  0.77458859  0.35184227  0.92017603  1
  F  F6  1  0.79534296  0.93805180  0.85585671  1
  F  F7  1  0.79534296  0.06194820  0.14414329  1
  F  F8  1  0.70501789  0.44064777  0.64058831  1
  F  F9  1  0.70501789  0.55935223  0.35941169  1
  F  F10  1  0.20465704  0.06194820  0.14414329  1
  F  F11  1  0.20465704  0.93805180  0.85585671  1
  F  F12  1  0.29498211  0.55935223  0.35941169  1
  F  F13  1  0.29498211  0.44064777  0.64058831  1
  F  F14  1  0.00000000  0.63116337  0.82638011  1
  F  F15  1  0.00000000  0.36883663  0.17361989  1
  F  F16  1  0.50000000  0.13116214  0.65331831  1
  F  F17  1  0.50000000  0.86883786  0.34668169  1
  F  F18  1  0.50000000  0.59916624  0.81853976  1
  F  F19  1  0.50000000  0.40083376  0.18146024  1
  F  F20  1  0.00000000  0.10870517  0.68196389  1
  F  F21  1  0.00000000  0.89129483  0.31803611  1
  F  F22  1  0.71161164  0.86683219  0.57851228  1
  F  F23  1  0.71161164  0.13316781  0.42148772  1
loop_
_geom_bond_atom_site_label_1
_geom_bond_atom_site_label_2
_geom_bond_distance
_geom_bond_site_symmetry_2
F0 Pt0 1.951404 1_556
F0 Se1 2.296023 1_555
F1 Pt0 1.951404 1_555
F1 Se0 2.296023 1_555
F2 Ge0 1.809320 1_565
F2 Se3 2.329525 1_555
F3 Ge0 1.809320 1_555
F3 Se2 2.329525 1_555
F4 Pt0 1.951404 1_655
F4 Se0 2.296023 1_555
F5 Pt0 1.951404 1_656
F5 Se1 2.296023 1_555
F6 Se3 1.710274 1_655
F7 Se2 1.710274 1_655
F8 Se1 1.711473 1_555
F9 Se0 1.711473 1_555
F10 Se2 1.710274 1_555
F11 Se3 1.710274 1_555
F12 Se0 1.711473 1_555
F13 Se1 1.711473 1_555
F14 Pt0 1.951022 1_556
F14 Se3 2.266556 1_555
F15 Pt0 1.951022 1_555
F15 Se2 2.266556 1_555
F16 Ge0 1.806335 1_555
F16 Se1 2.305998 1_555
F17 Ge0 1.806335 1_565
F17 Se0 2.305998 1_555
F18 Se1 1.714829 1_555
F19 Se0 1.714829 1_555
F20 Se3 1.716672 1_545
F21 Se2 1.716672 1_565
F22 Ge0 1.809320 1_565
F22 Se3 2.329525 1_655
F23 Ge0 1.809320 1_555
F23 Se2 2.329525 1_655
