# generated using pymatgen
data_LuBi3(PS4)4
_symmetry_space_group_name_H-M   'P 1'
_cell_length_a   6.62112458
_cell_length_b   8.55019769
_cell_length_c   12.81377181
_cell_angle_alpha   58.01869961
_cell_angle_beta   89.79304177
_cell_angle_gamma   89.91274069
_symmetry_Int_Tables_number   1
_chemical_formula_structural   LuBi3(PS4)4
_chemical_formula_sum   'Lu1 Bi3 P4 S16'
_cell_volume   615.30584830
_cell_formula_units_Z   1
loop_
 _symmetry_equiv_pos_site_id
 _symmetry_equiv_pos_as_xyz
  1  'x, y, z'
loop_
 _atom_site_type_symbol
 _atom_site_label
 _atom_site_symmetry_multiplicity
 _atom_site_fract_x
 _atom_site_fract_y
 _atom_site_fract_z
 _atom_site_occupancy
  Lu  Lu0  1  0.17917615  0.55746465  0.33644163  1
  Bi  Bi0  1  0.32606575  0.57419566  0.83008155  1
  Bi  Bi1  1  0.82610320  0.43025642  0.66797510  1
  Bi  Bi2  1  0.67301420  0.43680405  0.16421194  1
  P  P0  1  0.22895129  0.69956818  0.04241917  1
  P  P1  1  0.73588166  0.30780795  0.46069319  1
  P  P2  1  0.76595609  0.29712691  0.96309542  1
  P  P3  1  0.26633451  0.69758076  0.53263674  1
  S  S0  1  0.23836848  0.42426329  0.58420875  1
  S  S1  1  0.73927372  0.57327946  0.90836851  1
  S  S2  1  0.77731508  0.57895066  0.40812316  1
  S  S3  1  0.26106256  0.42734087  0.09114542  1
  S  S4  1  0.25161643  0.85370006  0.34923145  1
  S  S5  1  0.75050145  0.13445401  0.14714977  1
  S  S6  1  0.74314464  0.13620886  0.64434950  1
  S  S7  1  0.24793899  0.86705746  0.85794243  1
  S  S8  1  0.52794578  0.73799929  0.60135019  1
  S  S9  1  0.02959732  0.25914204  0.89539584  1
  S  S10  1  0.46690130  0.27557869  0.39259449  1
  S  S11  1  0.97045533  0.73154311  0.11601872  1
  S  S12  1  0.04806844  0.75383828  0.62220063  1
  S  S13  1  0.54519465  0.24528617  0.87418053  1
  S  S14  1  0.95783521  0.25362161  0.37290427  1
  S  S15  1  0.44329978  0.74692857  0.13727761  1
loop_
_geom_bond_atom_site_label_1
_geom_bond_atom_site_label_2
_geom_bond_distance
_geom_bond_site_symmetry_2
Lu0 S4 2.667644 1_555
Lu0 S11 2.769742 1_455
Lu0 S0 2.776275 1_555
Lu0 S15 2.791515 1_555
Lu0 S14 2.799308 1_455
Lu0 S10 2.848661 1_555
Lu0 S2 2.848986 1_455
Bi0 S7 2.758051 1_555
Bi0 S8 2.822699 1_555
Bi0 S3 2.914475 1_556
Bi0 S1 2.915985 1_555
Bi0 S12 2.921566 1_555
Bi0 S13 2.939935 1_555
Bi0 S9 3.070201 1_555
Bi1 S6 2.743361 1_555
Bi1 S9 2.820297 1_655
Bi1 S2 2.886143 1_555
Bi1 S12 2.906143 1_655
Bi1 S13 2.913598 1_555
Bi1 S0 2.939804 1_655
Bi1 S8 3.027609 1_555
Bi2 S5 2.754612 1_555
Bi2 S10 2.833786 1_555
Bi2 S1 2.870613 1_554
Bi2 S3 2.902103 1_555
Bi2 S15 2.913018 1_555
Bi2 S14 2.958256 1_555
Bi2 S11 2.994743 1_555
P0 S7 2.016657 1_554
P0 S11 2.038023 1_455
P0 S15 2.047244 1_555
P0 S3 2.076720 1_555
P1 S6 2.009042 1_555
P1 S14 2.043965 1_555
P1 S2 2.061552 1_555
P1 S10 2.067994 1_555
P2 S5 2.007769 1_556
P2 S13 2.044515 1_555
P2 S9 2.047173 1_655
P2 S1 2.084161 1_555
P3 S4 1.998145 1_555
P3 S12 2.051255 1_555
P3 S8 2.056749 1_555
P3 S0 2.072859 1_555
