# generated using pymatgen
data_Lu2BiC
_symmetry_space_group_name_H-M   'P 1'
_cell_length_a   3.59230617
_cell_length_b   3.59230561
_cell_length_c   14.99316702
_cell_angle_alpha   90.00000000
_cell_angle_beta   90.00000000
_cell_angle_gamma   120.00000521
_symmetry_Int_Tables_number   1
_chemical_formula_structural   Lu2BiC
_chemical_formula_sum   'Lu4 Bi2 C2'
_cell_volume   167.56009895
_cell_formula_units_Z   2
loop_
 _symmetry_equiv_pos_site_id
 _symmetry_equiv_pos_as_xyz
  1  'x, y, z'
loop_
 _atom_site_type_symbol
 _atom_site_label
 _atom_site_symmetry_multiplicity
 _atom_site_fract_x
 _atom_site_fract_y
 _atom_site_fract_z
 _atom_site_occupancy
  Lu  Lu0  1  0.66666700  0.33333300  0.08352545  1
  Lu  Lu1  1  0.66666700  0.33333300  0.41647455  1
  Lu  Lu2  1  0.33333300  0.66666600  0.58352445  1
  Lu  Lu3  1  0.33333300  0.66666600  0.91647455  1
  Bi  Bi0  1  0.33333300  0.66666600  0.25000000  1
  Bi  Bi1  1  0.66666700  0.33333300  0.75000000  1
  C  C0  1  0.00000000  0.00000000  0.00000000  1
  C  C1  1  0.00000000  0.00000000  0.50000000  1
loop_
_geom_bond_atom_site_label_1
_geom_bond_atom_site_label_2
_geom_bond_distance
_geom_bond_site_symmetry_2
Bi0 Lu1 3.245222 1_455
Bi0 Lu0 3.245222 1_455
Bi0 Lu1 3.245224 1_565
Bi0 Lu0 3.245224 1_565
Bi0 Lu1 3.245224 1_555
Bi0 Lu0 3.245224 1_555
Bi1 Lu3 3.245222 1_655
Bi1 Lu3 3.245224 1_545
Bi1 Lu3 3.245224 1_555
Bi1 Lu2 3.245233 1_655
Bi1 Lu2 3.245235 1_545
Bi1 Lu2 3.245235 1_555
C0 Lu3 2.422773 1_554
C0 Lu0 2.422773 1_455
C0 Lu0 2.422775 1_445
C0 Lu3 2.422776 1_444
C0 Lu3 2.422776 1_544
C0 Lu0 2.422776 1_555
C1 Lu2 2.422765 1_555
C1 Lu2 2.422768 1_445
C1 Lu2 2.422768 1_545
C1 Lu1 2.422773 1_455
C1 Lu1 2.422775 1_445
C1 Lu1 2.422776 1_555
