# generated using pymatgen
data_Ba3Sr2GeBi2
_symmetry_space_group_name_H-M   'P 1'
_cell_length_a   8.94088342
_cell_length_b   10.27145262
_cell_length_c   14.62995708
_cell_angle_alpha   90.00000000
_cell_angle_beta   90.00000000
_cell_angle_gamma   90.00000000
_symmetry_Int_Tables_number   1
_chemical_formula_structural   Ba3Sr2GeBi2
_chemical_formula_sum   'Ba12 Sr8 Ge4 Bi8'
_cell_volume   1343.55469616
_cell_formula_units_Z   4
loop_
 _symmetry_equiv_pos_site_id
 _symmetry_equiv_pos_as_xyz
  1  'x, y, z'
loop_
 _atom_site_type_symbol
 _atom_site_label
 _atom_site_symmetry_multiplicity
 _atom_site_fract_x
 _atom_site_fract_y
 _atom_site_fract_z
 _atom_site_occupancy
  Ba  Ba0  1  0.19206632  0.75000000  0.21051556  1
  Ba  Ba1  1  0.30793368  0.75000000  0.71051556  1
  Ba  Ba2  1  0.80793368  0.25000000  0.78948444  1
  Ba  Ba3  1  0.69206632  0.25000000  0.28948444  1
  Ba  Ba4  1  0.44565455  0.75000000  0.99962948  1
  Ba  Ba5  1  0.05434545  0.75000000  0.49962948  1
  Ba  Ba6  1  0.55434545  0.25000000  0.00037052  1
  Ba  Ba7  1  0.94565455  0.25000000  0.50037052  1
  Ba  Ba8  1  0.67465350  0.75000000  0.30996110  1
  Ba  Ba9  1  0.82534650  0.75000000  0.80996110  1
  Ba  Ba10  1  0.32534650  0.25000000  0.69003890  1
  Ba  Ba11  1  0.17465350  0.25000000  0.19003890  1
  Sr  Sr0  1  0.85034505  0.52068954  0.09170904  1
  Sr  Sr1  1  0.64965495  0.97931046  0.59170904  1
  Sr  Sr2  1  0.14965495  0.02068954  0.90829096  1
  Sr  Sr3  1  0.35034505  0.47931046  0.40829096  1
  Sr  Sr4  1  0.14965495  0.47931046  0.90829096  1
  Sr  Sr5  1  0.35034505  0.02068954  0.40829096  1
  Sr  Sr6  1  0.85034505  0.97931046  0.09170904  1
  Sr  Sr7  1  0.64965495  0.52068954  0.59170904  1
  Ge  Ge0  1  0.45563419  0.75000000  0.49610631  1
  Ge  Ge1  1  0.04436581  0.75000000  0.99610631  1
  Ge  Ge2  1  0.54436581  0.25000000  0.50389369  1
  Ge  Ge3  1  0.95563419  0.25000000  0.00389369  1
  Bi  Bi0  1  0.97704888  0.50143076  0.32706702  1
  Bi  Bi1  1  0.52295112  0.99856924  0.82706702  1
  Bi  Bi2  1  0.02295112  0.00143076  0.67293298  1
  Bi  Bi3  1  0.47704888  0.49856924  0.17293298  1
  Bi  Bi4  1  0.02295112  0.49856924  0.67293298  1
  Bi  Bi5  1  0.47704888  0.00143076  0.17293298  1
  Bi  Bi6  1  0.97704888  0.99856924  0.32706702  1
  Bi  Bi7  1  0.52295112  0.50143076  0.82706702  1
loop_
_geom_bond_atom_site_label_1
_geom_bond_atom_site_label_2
_geom_bond_distance
_geom_bond_site_symmetry_2
Ba0 Ge1 3.403442 1_554
Ba0 Bi6 3.622426 1_455
Ba0 Bi0 3.622426 1_455
Ba0 Bi5 3.669361 1_565
Ba0 Bi3 3.669361 1_555
Ba1 Ge0 3.403442 1_555
Ba1 Bi1 3.622426 1_555
Ba1 Bi7 3.622426 1_555
Ba1 Bi2 3.669361 1_565
Ba1 Bi4 3.669361 1_555
Ba2 Ge3 3.403442 1_556
Ba2 Bi4 3.622426 1_655
Ba2 Bi2 3.622426 1_655
Ba2 Bi7 3.669361 1_555
Ba2 Bi1 3.669361 1_545
Ba3 Ge2 3.403442 1_555
Ba3 Bi3 3.622426 1_555
Ba3 Bi5 3.622426 1_555
Ba3 Bi0 3.669361 1_555
Ba3 Bi6 3.669361 1_545
Ba4 Ge1 3.588246 1_555
Ba4 Bi5 3.629982 1_566
Ba4 Bi3 3.629982 1_556
Ba4 Bi1 3.656473 1_555
Ba4 Bi7 3.656473 1_555
Ba5 Ge0 3.588246 1_555
Ba5 Bi2 3.629982 1_565
Ba5 Bi4 3.629982 1_555
Ba5 Bi6 3.656473 1_455
Ba5 Bi0 3.656473 1_455
Ba6 Ge3 3.588246 1_555
Ba6 Bi7 3.629982 1_554
Ba6 Bi1 3.629982 1_544
Ba6 Bi3 3.656473 1_555
Ba6 Bi5 3.656473 1_555
Ba7 Ge2 3.588246 1_555
Ba7 Bi0 3.629982 1_555
Ba7 Bi6 3.629982 1_545
Ba7 Bi4 3.656473 1_655
Ba7 Bi2 3.656473 1_655
Ba8 Ge0 3.354250 1_555
Ba8 Bi5 3.716172 1_565
Ba8 Bi3 3.716172 1_555
Ba8 Bi6 3.727088 1_555
Ba8 Bi0 3.727088 1_555
Ba9 Ge1 3.354250 1_655
Ba9 Bi2 3.716172 1_665
Ba9 Bi4 3.716172 1_655
Ba9 Bi1 3.727088 1_555
Ba9 Bi7 3.727088 1_555
Ba10 Ge2 3.354250 1_555
Ba10 Bi7 3.716172 1_555
Ba10 Bi1 3.716172 1_545
Ba10 Bi4 3.727088 1_555
Ba10 Bi2 3.727088 1_555
Ba11 Ge3 3.354250 1_455
Ba11 Bi0 3.716172 1_455
Ba11 Bi6 3.716172 1_445
Ba11 Bi3 3.727088 1_555
Ba11 Bi5 3.727088 1_555
Ge0 Sr5 3.204250 1_565
Ge0 Sr3 3.204250 1_555
Ge0 Sr1 3.242404 1_555
Ge0 Sr7 3.242404 1_555
Ge1 Sr2 3.204250 1_565
Ge1 Sr4 3.204250 1_555
Ge1 Sr6 3.242404 1_456
Ge1 Sr0 3.242404 1_456
Ge2 Sr7 3.204250 1_555
Ge2 Sr1 3.204250 1_545
Ge2 Sr3 3.242404 1_555
Ge2 Sr5 3.242404 1_555
Ge3 Sr0 3.204250 1_555
Ge3 Sr6 3.204250 1_545
Ge3 Sr4 3.242404 1_654
Ge3 Sr2 3.242404 1_654
Bi0 Sr3 3.550105 1_655
Bi0 Sr0 3.630238 1_555
Bi1 Sr2 3.550105 1_565
Bi1 Sr1 3.630238 1_555
Bi2 Sr1 3.550105 1_445
Bi2 Sr2 3.630238 1_555
Bi3 Sr0 3.550105 1_555
Bi3 Sr3 3.630238 1_555
Bi4 Sr7 3.550105 1_455
Bi4 Sr4 3.630238 1_555
Bi5 Sr6 3.550105 1_545
Bi5 Sr5 3.630238 1_555
Bi6 Sr5 3.550105 1_665
Bi6 Sr6 3.630238 1_555
Bi7 Sr4 3.550105 1_555
Bi7 Sr7 3.630238 1_555
