# generated using pymatgen
data_Ca3AgBi2H
_symmetry_space_group_name_H-M   'P 1'
_cell_length_a   4.63650938
_cell_length_b   12.42032253
_cell_length_c   12.65696659
_cell_angle_alpha   90.00000000
_cell_angle_beta   90.00000000
_cell_angle_gamma   90.00000000
_symmetry_Int_Tables_number   1
_chemical_formula_structural   Ca3AgBi2H
_chemical_formula_sum   'Ca12 Ag4 Bi8 H4'
_cell_volume   728.87599966
_cell_formula_units_Z   4
loop_
 _symmetry_equiv_pos_site_id
 _symmetry_equiv_pos_as_xyz
  1  'x, y, z'
loop_
 _atom_site_type_symbol
 _atom_site_label
 _atom_site_symmetry_multiplicity
 _atom_site_fract_x
 _atom_site_fract_y
 _atom_site_fract_z
 _atom_site_occupancy
  Ca  Ca0  1  0.25000000  0.06553974  0.62912855  1
  Ca  Ca1  1  0.25000000  0.56553974  0.87087145  1
  Ca  Ca2  1  0.75000000  0.93446026  0.37087145  1
  Ca  Ca3  1  0.75000000  0.43446026  0.12912855  1
  Ca  Ca4  1  0.25000000  0.35722022  0.55945137  1
  Ca  Ca5  1  0.25000000  0.85722022  0.94054863  1
  Ca  Ca6  1  0.75000000  0.64277978  0.44054863  1
  Ca  Ca7  1  0.75000000  0.14277978  0.05945137  1
  Ca  Ca8  1  0.25000000  0.23040719  0.28501880  1
  Ca  Ca9  1  0.25000000  0.73040719  0.21498120  1
  Ca  Ca10  1  0.75000000  0.76959281  0.71498120  1
  Ca  Ca11  1  0.75000000  0.26959281  0.78501880  1
  Ag  Ag0  1  0.25000000  0.11972622  0.88344939  1
  Ag  Ag1  1  0.25000000  0.61972622  0.61655061  1
  Ag  Ag2  1  0.75000000  0.88027378  0.11655061  1
  Ag  Ag3  1  0.75000000  0.38027378  0.38344939  1
  Bi  Bi0  1  0.25000000  0.49505590  0.31689140  1
  Bi  Bi1  1  0.25000000  0.99505590  0.18310860  1
  Bi  Bi2  1  0.75000000  0.50494410  0.68310860  1
  Bi  Bi3  1  0.75000000  0.00494410  0.81689140  1
  Bi  Bi4  1  0.25000000  0.32327074  0.98559794  1
  Bi  Bi5  1  0.25000000  0.82327074  0.51440206  1
  Bi  Bi6  1  0.75000000  0.67672926  0.01440206  1
  Bi  Bi7  1  0.75000000  0.17672926  0.48559794  1
  H  H0  1  0.25000000  0.24252010  0.70494948  1
  H  H1  1  0.25000000  0.74252010  0.79505052  1
  H  H2  1  0.75000000  0.75747990  0.29505052  1
  H  H3  1  0.75000000  0.25747990  0.20494948  1
loop_
_geom_bond_atom_site_label_1
_geom_bond_atom_site_label_2
_geom_bond_distance
_geom_bond_site_symmetry_2
Ca0 H0 2.398506 1_555
Ca1 H1 2.398506 1_555
Ca2 H2 2.398506 1_555
Ca3 H3 2.398506 1_555
Ca4 H0 2.328279 1_555
Ca5 H1 2.328279 1_555
Ca6 H2 2.328279 1_555
Ca7 H3 2.328279 1_555
Ca8 H3 2.552336 1_555
Ca8 H3 2.552336 1_455
Ca9 H2 2.552336 1_455
Ca9 H2 2.552336 1_555
Ca10 H1 2.552336 1_555
Ca10 H1 2.552336 1_655
Ca11 H0 2.552336 1_655
Ca11 H0 2.552336 1_555
Ag0 Bi4 2.839507 1_555
Ag0 Bi3 2.848930 1_455
Ag0 Bi3 2.848930 1_555
Ag0 Ca11 3.223536 1_455
Ag0 Ca11 3.223536 1_555
Ag0 Ca7 3.227804 1_556
Ag0 Ca7 3.227804 1_456
Ag0 Ca0 3.288535 1_555
Ag0 Ca5 3.339546 1_545
Ag1 Bi5 2.839507 1_555
Ag1 Bi2 2.848930 1_455
Ag1 Bi2 2.848930 1_555
Ag1 Ca10 3.223536 1_555
Ag1 Ca10 3.223536 1_455
Ag1 Ca6 3.227804 1_455
Ag1 Ca6 3.227804 1_555
Ag1 Ca1 3.288535 1_555
Ag1 Ca4 3.339546 1_555
Ag2 Bi6 2.839507 1_555
Ag2 Bi1 2.848930 1_655
Ag2 Bi1 2.848930 1_555
Ag2 Ca9 3.223536 1_555
Ag2 Ca9 3.223536 1_655
Ag2 Ca5 3.227804 1_554
Ag2 Ca5 3.227804 1_654
Ag2 Ca2 3.288535 1_555
Ag2 Ca7 3.339546 1_565
Ag3 Bi7 2.839507 1_555
Ag3 Bi0 2.848930 1_555
Ag3 Bi0 2.848930 1_655
Ag3 Ca8 3.223536 1_555
Ag3 Ca8 3.223536 1_655
Ag3 Ca4 3.227804 1_655
Ag3 Ca4 3.227804 1_555
Ag3 Ca3 3.288535 1_555
Ag3 Ca6 3.339546 1_555
Bi0 Ca9 3.195077 1_555
Bi0 Ca8 3.311685 1_555
Bi0 Ca6 3.345196 1_455
Bi0 Ca6 3.345196 1_555
Bi0 Ca3 3.404193 1_455
Bi0 Ca3 3.404193 1_555
Bi0 Ca4 3.515135 1_555
Bi1 Ca8 3.195077 1_565
Bi1 Ca9 3.311685 1_555
Bi1 Ca7 3.345196 1_465
Bi1 Ca7 3.345196 1_565
Bi1 Ca2 3.404193 1_455
Bi1 Ca2 3.404193 1_555
Bi1 Ca5 3.515135 1_554
Bi2 Ca11 3.195077 1_555
Bi2 Ca10 3.311685 1_555
Bi2 Ca4 3.345196 1_555
Bi2 Ca4 3.345196 1_655
Bi2 Ca1 3.404193 1_655
Bi2 Ca1 3.404193 1_555
Bi2 Ca6 3.515135 1_555
Bi3 Ca10 3.195077 1_545
Bi3 Ca11 3.311685 1_555
Bi3 Ca5 3.345196 1_645
Bi3 Ca5 3.345196 1_545
Bi3 Ca0 3.404193 1_555
Bi3 Ca0 3.404193 1_655
Bi3 Ca7 3.515135 1_556
Bi4 Ca3 3.252961 1_556
Bi4 Ca3 3.252961 1_456
Bi4 Ca1 3.341108 1_555
Bi4 Ca7 3.357611 1_556
Bi4 Ca7 3.357611 1_456
Bi4 Ca11 3.501986 1_455
Bi4 Ca11 3.501986 1_555
Bi5 Ca2 3.252961 1_455
Bi5 Ca2 3.252961 1_555
Bi5 Ca0 3.341108 1_565
Bi5 Ca6 3.357611 1_455
Bi5 Ca6 3.357611 1_555
Bi5 Ca10 3.501986 1_455
Bi5 Ca10 3.501986 1_555
Bi6 Ca1 3.252961 1_654
Bi6 Ca1 3.252961 1_554
Bi6 Ca3 3.341108 1_555
Bi6 Ca5 3.357611 1_554
Bi6 Ca5 3.357611 1_654
Bi6 Ca9 3.501986 1_655
Bi6 Ca9 3.501986 1_555
Bi7 Ca0 3.252961 1_555
Bi7 Ca0 3.252961 1_655
Bi7 Ca2 3.341108 1_545
Bi7 Ca4 3.357611 1_655
Bi7 Ca4 3.357611 1_555
Bi7 Ca8 3.501986 1_555
Bi7 Ca8 3.501986 1_655
