# generated using pymatgen
data_Re12P25Se
_symmetry_space_group_name_H-M   'P 1'
_cell_length_a   9.50522841
_cell_length_b   9.50522820
_cell_length_c   9.50522764
_cell_angle_alpha   111.79384694
_cell_angle_beta   111.79384392
_cell_angle_gamma   111.79384831
_symmetry_Int_Tables_number   1
_chemical_formula_structural   Re12P25Se
_chemical_formula_sum   'Re12 P25 Se1'
_cell_volume   597.54149561
_cell_formula_units_Z   1
loop_
 _symmetry_equiv_pos_site_id
 _symmetry_equiv_pos_as_xyz
  1  'x, y, z'
loop_
 _atom_site_type_symbol
 _atom_site_label
 _atom_site_symmetry_multiplicity
 _atom_site_fract_x
 _atom_site_fract_y
 _atom_site_fract_z
 _atom_site_occupancy
  Re  Re0  1  0.82084948  0.91062119  0.33007323  1
  Re  Re1  1  0.91062119  0.33007323  0.82084948  1
  Re  Re2  1  0.33007323  0.82084948  0.91062119  1
  Re  Re3  1  0.17793829  0.08727138  0.66952583  1
  Re  Re4  1  0.08727138  0.66952583  0.17793829  1
  Re  Re5  1  0.66952583  0.17793829  0.08727138  1
  Re  Re6  1  0.83367550  0.72957886  0.50299352  1
  Re  Re7  1  0.72957886  0.50299352  0.83367550  1
  Re  Re8  1  0.50299352  0.83367550  0.72957886  1
  Re  Re9  1  0.16342376  0.27017293  0.49937923  1
  Re  Re10  1  0.27017293  0.49937923  0.16342376  1
  Re  Re11  1  0.49937923  0.16342376  0.27017293  1
  P  P0  1  0.64179926  0.64179926  0.64179926  1
  P  P1  1  0.96203863  0.00343498  0.19643356  1
  P  P2  1  0.00343498  0.19643356  0.96203863  1
  P  P3  1  0.19643356  0.96203863  0.00343498  1
  P  P4  1  0.03777921  0.99664483  0.80510522  1
  P  P5  1  0.99664483  0.80510522  0.03777921  1
  P  P6  1  0.80510522  0.03777921  0.99664483  1
  P  P7  1  0.37896718  0.00556696  0.79518321  1
  P  P8  1  0.00556696  0.79518321  0.37896718  1
  P  P9  1  0.79518321  0.37896718  0.00556696  1
  P  P10  1  0.62080367  0.99245759  0.20272549  1
  P  P11  1  0.99245759  0.20272549  0.62080367  1
  P  P12  1  0.20272549  0.62080367  0.99245759  1
  P  P13  1  0.40062251  0.22373963  0.61327096  1
  P  P14  1  0.22373963  0.61327196  0.40062251  1
  P  P15  1  0.61327196  0.40062251  0.22373963  1
  P  P16  1  0.59852016  0.77630141  0.38781098  1
  P  P17  1  0.77630141  0.38781198  0.59852016  1
  P  P18  1  0.38781098  0.59852016  0.77630141  1
  P  P19  1  0.60222531  0.61104228  0.99971705  1
  P  P20  1  0.61104228  0.99971705  0.60222531  1
  P  P21  1  0.99971705  0.60222531  0.61104228  1
  P  P22  1  0.39764803  0.38805631  0.99921452  1
  P  P23  1  0.38805631  0.99921452  0.39764803  1
  P  P24  1  0.99921452  0.39764803  0.38805631  1
  Se  Se0  1  0.36738885  0.36738885  0.36738885  1
loop_
_geom_bond_atom_site_label_1
_geom_bond_atom_site_label_2
_geom_bond_distance
_geom_bond_site_symmetry_2
Re9 Se0 2.742859 1_555
Re10 Se0 2.742859 1_555
Re11 Se0 2.742859 1_555
P0 Se0 2.292355 1_555
P0 Re6 2.690265 1_555
P0 Re7 2.690266 1_555
P0 Re8 2.690266 1_555
P1 P5 2.157333 1_545
P1 P6 2.157898 1_554
P1 Re9 2.294896 1_655
P1 Re0 2.326327 1_545
P2 P6 2.157333 1_455
P2 P4 2.157898 1_545
P2 Re10 2.294896 1_556
P2 Re1 2.326327 1_455
P3 P4 2.157333 1_554
P3 P5 2.157898 1_455
P3 Re11 2.294896 1_565
P3 Re2 2.326327 1_554
P4 Re6 2.290781 1_455
P4 Re3 2.329101 1_565
P5 Re7 2.290781 1_554
P5 Re4 2.329101 1_655
P6 Re8 2.290781 1_545
P6 Re5 2.329101 1_556
P7 Re5 2.364099 1_556
P7 Re8 2.380706 1_545
P7 Re2 2.388731 1_545
P7 Re3 2.403536 1_555
P8 Re3 2.364099 1_565
P8 Re6 2.380706 1_455
P8 Re0 2.388732 1_455
P8 Re4 2.403536 1_555
P9 Re4 2.364099 1_655
P9 Re7 2.380706 1_554
P9 Re1 2.388731 1_554
P9 Re5 2.403536 1_555
P10 Re11 2.356376 1_565
P10 Re2 2.366243 1_554
P10 Re5 2.394756 1_565
P10 Re0 2.402984 1_555
P11 Re9 2.356376 1_655
P11 Re0 2.366243 1_545
P11 Re3 2.394756 1_655
P11 Re1 2.402984 1_555
P12 Re10 2.356376 1_556
P12 Re1 2.366243 1_455
P12 Re4 2.394756 1_556
P12 Re2 2.402984 1_555
P13 P23 2.269491 1_545
P13 Re9 2.394036 1_555
P13 Re3 2.401148 1_555
P13 Re7 2.460796 1_555
P14 P24 2.269496 1_455
P14 Re10 2.394037 1_555
P14 Re4 2.401141 1_555
P14 Re8 2.460797 1_555
P15 P22 2.269496 1_554
P15 Re11 2.394038 1_555
P15 Re5 2.401141 1_555
P15 Re6 2.460797 1_555
P16 P20 2.257442 1_555
P16 Re6 2.381818 1_555
P16 Re0 2.403181 1_555
P16 Re10 2.450870 1_555
P17 P21 2.257437 1_555
P17 Re7 2.381816 1_555
P17 Re1 2.403188 1_555
P17 Re11 2.450870 1_555
P18 P19 2.257442 1_555
P18 Re8 2.381817 1_555
P18 Re2 2.403181 1_555
P18 Re9 2.450870 1_555
P19 P22 2.280114 1_555
P19 Re7 2.479771 1_555
P19 Re0 2.531511 1_556
P20 P23 2.280114 1_555
P20 Re8 2.479771 1_555
P20 Re1 2.531511 1_565
P21 P24 2.280114 1_555
P21 Re6 2.479771 1_555
P21 Re2 2.531511 1_655
P22 Re10 2.480739 1_556
P22 Re3 2.531813 1_555
P23 Re11 2.480738 1_565
P23 Re4 2.531813 1_555
P24 Re9 2.480739 1_655
P24 Re5 2.531813 1_555
