# generated using pymatgen
data_Ti5Nb3Al15Ir7
_symmetry_space_group_name_H-M   'P 1'
_cell_length_a   8.62323191
_cell_length_b   8.61880756
_cell_length_c   8.62323099
_cell_angle_alpha   120.03243380
_cell_angle_beta   119.98168259
_cell_angle_gamma   90.00249112
_symmetry_Int_Tables_number   1
_chemical_formula_structural   Ti5Nb3Al15Ir7
_chemical_formula_sum   'Ti5 Nb3 Al15 Ir7'
_cell_volume   453.07494313
_cell_formula_units_Z   1
loop_
 _symmetry_equiv_pos_site_id
 _symmetry_equiv_pos_as_xyz
  1  'x, y, z'
loop_
 _atom_site_type_symbol
 _atom_site_label
 _atom_site_symmetry_multiplicity
 _atom_site_fract_x
 _atom_site_fract_y
 _atom_site_fract_z
 _atom_site_occupancy
  Ti  Ti0  1  0.21933435  0.71807489  0.92708478  1
  Ti  Ti1  1  0.79099011  0.71807489  0.49873953  1
  Ti  Ti2  1  0.78263442  0.27854386  0.49590943  1
  Ti  Ti3  1  0.37894535  0.12404207  0.74509573  1
  Ti  Ti4  1  0.37902200  0.63614812  0.25712612  1
  Nb  Nb0  1  0.79687616  0.29525015  0.08511166  1
  Nb  Nb1  1  0.21013850  0.29525015  0.49837499  1
  Nb  Nb2  1  0.20399886  0.70182165  0.49782379  1
  Al  Al0  1  0.99158679  0.50177122  0.51018443  1
  Al  Al1  1  0.15888359  0.33761069  0.17872410  1
  Al  Al2  1  0.15698638  0.97200184  0.81501547  1
  Al  Al3  1  0.15223639  0.34370990  0.80785496  1
  Al  Al4  1  0.53585394  0.34370990  0.19147352  1
  Al  Al5  1  0.84532772  0.65204621  0.80671949  1
  Al  Al6  1  0.84209219  0.02659453  0.18450134  1
  Al  Al7  1  0.83947135  0.65828761  0.17950427  1
  Al  Al8  1  0.47878334  0.65828761  0.81881625  1
  Al  Al9  1  0.37936674  0.12184057  0.25937546  1
  Al  Al10  1  0.86246610  0.12184057  0.74247283  1
  Al  Al11  1  0.62106862  0.87891236  0.25784274  1
  Al  Al12  1  0.62171840  0.36483842  0.74311902  1
  Al  Al13  1  0.62249021  0.87856622  0.74418182  1
  Al  Al14  1  0.13438340  0.87856622  0.25607701  1
  Ir  Ir0  1  0.99805662  0.99857744  0.50020495  1
  Ir  Ir1  1  0.49837249  0.99857744  0.00052082  1
  Ir  Ir2  1  0.49782047  0.50078988  0.00296941  1
  Ir  Ir3  1  0.50048517  0.49964940  0.49768453  1
  Ir  Ir4  1  0.00196587  0.49964940  0.99916523  1
  Ir  Ir5  1  0.00017682  0.99693888  0.99676206  1
  Ir  Ir6  1  0.49846264  0.00002789  0.50156526  1
loop_
_geom_bond_atom_site_label_1
_geom_bond_atom_site_label_2
_geom_bond_distance
_geom_bond_site_symmetry_2
Ti0 Ti4 2.930772 1_556
Ti1 Ti4 2.930772 1_555
Nb0 Ti3 2.978298 1_554
Nb1 Ti3 2.978284 1_555
Nb2 Ti4 2.976796 1_555
Nb2 Ti3 3.013731 1_565
Al0 Ti0 2.547800 1_655
Al0 Ti1 2.547800 1_555
Al0 Ti2 2.550363 1_555
Al0 Nb2 2.591925 1_655
Al0 Nb1 2.596365 1_655
Al0 Nb0 2.596366 1_555
Al1 Ir5 2.489571 1_544
Al1 Ir4 2.499920 1_554
Al1 Ir3 2.499950 1_555
Al1 Al10 2.744127 1_454
Al1 Al9 2.744145 1_555
Al1 Ti4 2.767086 1_555
Al1 Nb0 2.777791 1_455
Al1 Nb1 2.777816 1_555
Al1 Nb2 2.803677 1_555
Al2 Ir5 2.472208 1_555
Al2 Ir0 2.490836 1_455
Al2 Ir1 2.490836 1_556
Al2 Ti0 2.758736 1_555
Al2 Ti1 2.758737 1_455
Al2 Ti3 2.772747 1_565
Al2 Al9 2.780359 1_566
Al2 Nb2 2.793036 1_555
Al3 Ir4 2.474743 1_555
Al3 Ir0 2.495868 1_445
Al3 Ir2 2.500560 1_556
Al3 Ti2 2.761942 1_455
Al3 Ti3 2.780535 1_555
Al3 Nb1 2.786011 1_555
Al3 Ti4 2.799905 1_556
Al3 Ti0 2.808436 1_555
Al4 Ir3 2.474738 1_555
Al4 Ir1 2.495870 1_545
Al4 Ir2 2.500562 1_555
Al4 Ti2 2.761944 1_555
Al4 Al9 2.780423 1_555
Al4 Ti3 2.780542 1_554
Al4 Nb0 2.786028 1_555
Al4 Ti4 2.799900 1_555
Al4 Ti1 2.808439 1_555
Al5 Ir5 2.498241 1_655
Al5 Ir4 2.499072 1_655
Al5 Ir3 2.499073 1_555
Al5 Ti2 2.784580 1_555
Al5 Ti0 2.804582 1_655
Al5 Ti1 2.804595 1_555
Al6 Ir1 2.505426 1_545
Al6 Ir0 2.505433 1_545
Al6 Ir5 2.517155 1_644
Al6 Ti2 2.780034 1_555
Al6 Nb0 2.810806 1_555
Al6 Nb1 2.810811 1_655
Al7 Ir0 2.494180 1_555
Al7 Ir2 2.507694 1_555
Al7 Ir4 2.510160 1_654
Al7 Nb0 2.781998 1_555
Al7 Ti1 2.783660 1_555
Al7 Nb2 2.811006 1_655
Al8 Ir1 2.494180 1_556
Al8 Ir2 2.507694 1_556
Al8 Ir3 2.510158 1_555
Al8 Nb1 2.781998 1_555
Al8 Ti0 2.783669 1_555
Al8 Nb2 2.810998 1_555
Al9 Ir6 2.563172 1_555
Al9 Ir3 2.659607 1_555
Al9 Ir1 2.660845 1_545
Al9 Ir5 2.671668 1_544
Al9 Ti2 2.868852 1_555
Al9 Ti0 2.879479 1_544
Al9 Nb1 2.921233 1_555
Al10 Ir6 2.563180 1_555
Al10 Ir4 2.659607 1_655
Al10 Ir0 2.660831 1_545
Al10 Ir5 2.671674 1_645
Al10 Al2 2.780352 1_645
Al10 Al3 2.780417 1_655
Al10 Ti2 2.868843 1_555
Al10 Ti1 2.879478 1_545
Al10 Nb0 2.921240 1_556
Al10 Al12 2.948978 1_555
Al10 Al11 2.954367 1_545
Al10 Al13 2.956320 1_545
Al11 Ir6 2.578635 1_565
Al11 Ir1 2.655439 1_555
Al11 Ir0 2.655446 1_555
Al11 Ir2 2.660135 1_555
Al11 Al8 2.757739 1_554
Al11 Al7 2.757744 1_555
Al11 Al6 2.768214 1_565
Al11 Ti2 2.842917 1_565
Al11 Ti0 2.867811 1_554
Al11 Ti1 2.867812 1_555
Al11 Ti4 2.950967 1_555
Al11 Al9 2.954367 1_565
Al12 Ir6 2.566300 1_555
Al12 Ir3 2.678159 1_555
Al12 Ir4 2.678173 1_655
Al12 Ir2 2.701863 1_556
Al12 Al8 2.737498 1_555
Al12 Al7 2.737502 1_556
Al12 Al5 2.780312 1_555
Al12 Ti2 2.896970 1_555
Al12 Nb1 2.942248 1_555
Al12 Nb0 2.942255 1_556
Al12 Al9 2.948966 1_555
Al12 Ti3 2.959877 1_555
Al13 Ir6 2.563764 1_565
Al13 Ir5 2.660402 1_655
Al13 Ir3 2.665820 1_555
Al13 Ir1 2.679103 1_556
Al13 Al8 2.752144 1_555
Al13 Al6 2.755952 1_566
Al13 Al5 2.795247 1_555
Al13 Ti1 2.940659 1_555
Al13 Nb0 2.968922 1_566
Al13 Ti4 2.969173 1_555
Al13 Ti3 2.981129 1_565
Al13 Nb2 2.992436 1_555
Al14 Ir6 2.563771 1_565
Al14 Ir5 2.660408 1_554
Al14 Ir4 2.665820 1_554
Al14 Ir0 2.679089 1_455
Al14 Al7 2.752133 1_455
Al14 Al6 2.755952 1_465
Al14 Al5 2.795243 1_454
Al14 Ti0 2.940667 1_554
Al14 Al9 2.956320 1_565
Al14 Nb1 2.968921 1_565
Al14 Ti4 2.969179 1_555
Al14 Ti3 2.981117 1_565
Al14 Nb2 2.992434 1_555
Ir0 Ti3 2.682987 1_665
Ir0 Ti1 2.996621 1_555
Ir0 Ti2 3.048889 1_565
Ir0 Nb2 3.111302 1_655
Ir0 Nb1 3.154642 1_665
Ir1 Ti3 2.682994 1_564
Ir1 Ti0 2.996627 1_554
Ir1 Ti2 3.048889 1_565
Ir1 Nb2 3.111296 1_554
Ir1 Nb0 3.154648 1_565
Ir2 Ti4 2.626501 1_555
Ir2 Ti3 2.652020 1_554
Ir2 Ti1 3.059210 1_555
Ir2 Ti0 3.059216 1_554
Ir2 Nb1 3.117863 1_554
Ir2 Nb0 3.117869 1_555
Ir3 Ti4 2.656240 1_555
Ir3 Nb1 3.065486 1_555
Ir3 Ti2 3.091909 1_555
Ir3 Nb2 3.094216 1_555
Ir3 Ti1 3.127186 1_555
Ir4 Ti4 2.656233 1_556
Ir4 Nb0 3.065479 1_456
Ir4 Ti2 3.091915 1_455
Ir4 Nb2 3.094216 1_556
Ir4 Ti0 3.127181 1_555
Ir5 Ti0 3.065773 1_555
Ir5 Ti1 3.065779 1_455
Ir5 Nb0 3.104651 1_466
Ir5 Nb1 3.104657 1_566
Ir6 Ti3 2.555609 1_555
Ir6 Ti4 2.559774 1_545
