# generated using pymatgen
data_Zr3AsN
_symmetry_space_group_name_H-M   'P 1'
_cell_length_a   5.85571504
_cell_length_b   5.85571533
_cell_length_c   8.55246442
_cell_angle_alpha   90.00000000
_cell_angle_beta   90.00000000
_cell_angle_gamma   145.25111241
_symmetry_Int_Tables_number   1
_chemical_formula_structural   Zr3AsN
_chemical_formula_sum   'Zr6 As2 N2'
_cell_volume   167.15193172
_cell_formula_units_Z   2
loop_
 _symmetry_equiv_pos_site_id
 _symmetry_equiv_pos_as_xyz
  1  'x, y, z'
loop_
 _atom_site_type_symbol
 _atom_site_label
 _atom_site_symmetry_multiplicity
 _atom_site_fract_x
 _atom_site_fract_y
 _atom_site_fract_z
 _atom_site_occupancy
  Zr  Zr0  1  0.63166050  0.36833950  0.94554116  1
  Zr  Zr1  1  0.36833950  0.63166050  0.44554116  1
  Zr  Zr2  1  0.36833950  0.63166050  0.05445884  1
  Zr  Zr3  1  0.63166050  0.36833950  0.55445884  1
  Zr  Zr4  1  0.94146834  0.05853166  0.75000000  1
  Zr  Zr5  1  0.05853166  0.94146834  0.25000000  1
  As  As0  1  0.25447632  0.74552368  0.75000000  1
  As  As1  1  0.74552368  0.25447632  0.25000000  1
  N  N0  1  0.00000000  0.00000000  0.00000000  1
  N  N1  1  0.00000000  0.00000000  0.50000000  1
loop_
_geom_bond_atom_site_label_1
_geom_bond_atom_site_label_2
_geom_bond_distance
_geom_bond_site_symmetry_2
As0 Zr4 2.725036 1_565
As0 Zr4 2.725037 1_455
As0 Zr0 2.781864 1_455
As0 Zr3 2.781864 1_455
As0 Zr0 2.781865 1_565
As0 Zr3 2.781865 1_565
As0 Zr2 2.898243 1_556
As0 Zr1 2.898243 1_555
As1 Zr5 2.725036 1_545
As1 Zr5 2.725037 1_655
As1 Zr1 2.781864 1_655
As1 Zr2 2.781864 1_655
As1 Zr1 2.781865 1_545
As1 Zr2 2.781865 1_545
As1 Zr3 2.898243 1_555
As1 Zr0 2.898243 1_554
N0 Zr4 2.235964 1_454
N0 Zr5 2.235964 1_545
N0 Zr0 2.332402 1_554
N0 Zr2 2.332402 1_445
N0 Zr2 2.332402 1_555
N0 Zr0 2.332402 1_444
N1 Zr4 2.235964 1_455
N1 Zr5 2.235964 1_545
N1 Zr3 2.332402 1_555
N1 Zr1 2.332402 1_445
N1 Zr1 2.332402 1_555
N1 Zr3 2.332402 1_445
