# generated using pymatgen
data_Na4HfTcBr12
_symmetry_space_group_name_H-M   'P 1'
_cell_length_a   7.36035567
_cell_length_b   6.89623187
_cell_length_c   12.18905841
_cell_angle_alpha   57.46023804
_cell_angle_beta   89.62647832
_cell_angle_gamma   89.94660391
_symmetry_Int_Tables_number   1
_chemical_formula_structural   Na4HfTcBr12
_chemical_formula_sum   'Na4 Hf1 Tc1 Br12'
_cell_volume   521.56278742
_cell_formula_units_Z   1
loop_
 _symmetry_equiv_pos_site_id
 _symmetry_equiv_pos_as_xyz
  1  'x, y, z'
loop_
 _atom_site_type_symbol
 _atom_site_label
 _atom_site_symmetry_multiplicity
 _atom_site_fract_x
 _atom_site_fract_y
 _atom_site_fract_z
 _atom_site_occupancy
  Na  Na0  1  0.40439218  0.69010606  0.26719625  1
  Na  Na1  1  0.90102215  0.30104961  0.24127683  1
  Na  Na2  1  0.09897785  0.69895039  0.75872317  1
  Na  Na3  1  0.59560782  0.30989394  0.73280375  1
  Hf  Hf0  1  0.00000000  0.00000000  0.00000000  1
  Tc  Tc0  1  0.50000000  0.00000000  0.50000000  1
  Br  Br0  1  0.81440707  0.36706254  0.93925585  1
  Br  Br1  1  0.53378186  0.09959482  0.26882109  1
  Br  Br2  1  0.46621814  0.90040518  0.73117891  1
  Br  Br3  1  0.30160153  0.23658551  0.93453349  1
  Br  Br4  1  0.31521722  0.64734015  0.55789392  1
  Br  Br5  1  0.21029007  0.23187197  0.44019790  1
  Br  Br6  1  0.18559293  0.63293746  0.06074415  1
  Br  Br7  1  0.78970993  0.76812803  0.55980210  1
  Br  Br8  1  0.69839847  0.76341449  0.06546651  1
  Br  Br9  1  0.03693258  0.89733073  0.23850283  1
  Br  Br10  1  0.96306742  0.10266927  0.76149717  1
  Br  Br11  1  0.68478278  0.35265985  0.44210608  1
loop_
_geom_bond_atom_site_label_1
_geom_bond_atom_site_label_2
_geom_bond_distance
_geom_bond_site_symmetry_2
Br0 Hf0 2.610069 1_656
Br0 Na2 2.999771 1_655
Br0 Na3 3.194183 1_555
Br0 Na1 3.520397 1_556
Br1 Tc0 2.526462 1_555
Br1 Na1 2.973637 1_555
Br1 Na0 2.991216 1_545
Br2 Tc0 2.526462 1_565
Br2 Na2 2.973637 1_555
Br2 Na3 2.991216 1_565
Br3 Hf0 2.609544 1_556
Br3 Na3 3.095154 1_555
Br3 Na2 3.108955 1_555
Br4 Tc0 2.531778 1_565
Br4 Na3 2.988494 1_555
Br4 Na2 3.088298 1_555
Br4 Na0 3.452365 1_555
Br5 Tc0 2.528888 1_555
Br5 Na0 3.045393 1_555
Br5 Na1 3.180218 1_455
Br6 Hf0 2.610069 1_565
Br6 Na1 2.999771 1_455
Br6 Na0 3.194183 1_555
Br6 Na2 3.520397 1_554
Br7 Tc0 2.528888 1_565
Br7 Na3 3.045393 1_555
Br7 Na2 3.180218 1_655
Br8 Hf0 2.609544 1_665
Br8 Na0 3.095154 1_555
Br8 Na1 3.108955 1_555
Br9 Hf0 2.611940 1_565
Br9 Na1 2.974712 1_465
Br9 Na0 2.991162 1_555
Br10 Hf0 2.611940 1_656
Br10 Na2 2.974712 1_645
Br10 Na3 2.991162 1_555
Br11 Tc0 2.531778 1_555
Br11 Na0 2.988494 1_555
Br11 Na1 3.088298 1_555
Br11 Na3 3.452365 1_555
