# generated using pymatgen
data_Rb2SiWN4
_symmetry_space_group_name_H-M   'P 1'
_cell_length_a   5.79507642
_cell_length_b   5.79507681
_cell_length_c   5.79507618
_cell_angle_alpha   120.08171889
_cell_angle_beta   120.08172054
_cell_angle_gamma   89.85851651
_symmetry_Int_Tables_number   1
_chemical_formula_structural   Rb2SiWN4
_chemical_formula_sum   'Rb2 Si1 W1 N4'
_cell_volume   137.44353217
_cell_formula_units_Z   1
loop_
 _symmetry_equiv_pos_site_id
 _symmetry_equiv_pos_as_xyz
  1  'x, y, z'
loop_
 _atom_site_type_symbol
 _atom_site_label
 _atom_site_symmetry_multiplicity
 _atom_site_fract_x
 _atom_site_fract_y
 _atom_site_fract_z
 _atom_site_occupancy
  Rb  Rb0  1  0.25000000  0.75000000  0.50000000  1
  Rb  Rb1  1  0.50000000  0.50000000  0.00000000  1
  Si  Si0  1  0.00000000  0.00000000  0.00000000  1
  W  W0  1  0.75000000  0.25000000  0.50000000  1
  N  N0  1  0.84374167  0.11993738  0.20453986  1
  N  N1  1  0.91539652  0.63920181  0.79546014  1
  N  N2  1  0.36079819  0.15625833  0.27619471  1
  N  N3  1  0.88006262  0.08460348  0.72380529  1
loop_
_geom_bond_atom_site_label_1
_geom_bond_atom_site_label_2
_geom_bond_distance
_geom_bond_site_symmetry_2
N0 Si0 1.719030 1_655
N0 W0 1.852453 1_555
N0 Rb0 3.206815 1_544
N0 Rb1 3.233033 1_555
N0 Rb0 3.397111 1_655
N0 Rb1 3.417485 1_545
N1 Si0 1.719030 1_666
N1 W0 1.852453 1_555
N1 Rb0 3.206815 1_656
N1 Rb1 3.233038 1_656
N1 Rb0 3.397116 1_655
N1 Rb1 3.417480 1_556
N2 Si0 1.719029 1_555
N2 W0 1.852452 1_555
N2 Rb0 3.206815 1_555
N2 Rb1 3.233038 1_556
N2 Rb0 3.397116 1_545
N2 Rb1 3.417480 1_555
N3 Si0 1.719029 1_656
N3 W0 1.852452 1_555
N3 Rb0 3.206820 1_645
N3 Rb1 3.233038 1_545
N3 Rb0 3.397111 1_545
N3 Rb1 3.417484 1_656
