# generated using pymatgen
data_K3Rb(SnTe5)2
_symmetry_space_group_name_H-M   'P 1'
_cell_length_a   9.87443123
_cell_length_b   9.87443109
_cell_length_c   9.87443107
_cell_angle_alpha   128.06098435
_cell_angle_beta   128.06098493
_cell_angle_gamma   76.52625752
_symmetry_Int_Tables_number   1
_chemical_formula_structural   K3Rb(SnTe5)2
_chemical_formula_sum   'K3 Rb1 Sn2 Te10'
_cell_volume   579.82676192
_cell_formula_units_Z   1
loop_
 _symmetry_equiv_pos_site_id
 _symmetry_equiv_pos_as_xyz
  1  'x, y, z'
loop_
 _atom_site_type_symbol
 _atom_site_label
 _atom_site_symmetry_multiplicity
 _atom_site_fract_x
 _atom_site_fract_y
 _atom_site_fract_z
 _atom_site_occupancy
  K  K0  1  0.24638083  0.24638083  0.00000000  1
  K  K1  1  0.74621858  0.74621858  0.00000000  1
  K  K2  1  0.99595388  0.99595388  0.00000000  1
  Rb  Rb0  1  0.49611429  0.49611429  0.00000000  1
  Sn  Sn0  1  0.24687236  0.74687236  0.50000000  1
  Sn  Sn1  1  0.74687236  0.24687236  0.50000000  1
  Te  Te0  1  0.95752869  0.45508440  0.14342316  1
  Te  Te1  1  0.45508440  0.31166124  0.49755571  1
  Te  Te2  1  0.81410554  0.95752869  0.50244429  1
  Te  Te3  1  0.31166124  0.81410554  0.85657684  1
  Te  Te4  1  0.68187582  0.17897260  0.14305434  1
  Te  Te5  1  0.17897260  0.03591726  0.49709578  1
  Te  Te6  1  0.53882148  0.68187582  0.50290422  1
  Te  Te7  1  0.03591726  0.53882148  0.85694566  1
  Te  Te8  1  0.99690984  0.49690984  0.50000000  1
  Te  Te9  1  0.49690984  0.99690984  0.50000000  1
loop_
_geom_bond_atom_site_label_1
_geom_bond_atom_site_label_2
_geom_bond_distance
_geom_bond_site_symmetry_2
K0 Te2 3.609830 1_444
K0 Te1 3.609830 1_555
K0 Te3 3.609830 1_544
K0 Te0 3.609830 1_455
K0 Te4 3.642302 1_555
K0 Te6 3.642303 1_555
K0 Te7 3.642303 1_554
K0 Te5 3.642308 1_554
K1 Te6 3.613580 1_554
K1 Te7 3.613580 1_654
K1 Te5 3.613585 1_665
K1 Te4 3.613589 1_565
K1 Te1 3.633862 1_554
K1 Te2 3.633862 1_555
K1 Te0 3.633862 1_555
K1 Te3 3.633862 1_554
K2 Te5 3.810757 1_665
K2 Te6 3.810760 1_554
K2 Te7 3.810760 1_654
K2 Te4 3.810760 1_565
K2 Te1 3.827262 1_665
K2 Te2 3.827262 1_554
K2 Te0 3.827262 1_565
K2 Te3 3.827262 1_654
Rb0 Te4 3.840520 1_555
Rb0 Te5 3.840526 1_554
Rb0 Te6 3.840529 1_555
Rb0 Te7 3.840529 1_554
Rb0 Te2 3.849681 1_555
Rb0 Te1 3.849681 1_554
Rb0 Te3 3.849681 1_554
Rb0 Te0 3.849681 1_555
Sn0 Te6 2.789626 1_555
Sn0 Te5 2.789626 1_565
Sn0 Te0 2.790293 1_455
Sn0 Te3 2.790293 1_555
Sn1 Te7 2.789626 1_655
Sn1 Te4 2.789631 1_555
Sn1 Te2 2.790293 1_545
Sn1 Te1 2.790293 1_555
Te0 Te8 3.051689 1_555
Te1 Te9 3.051689 1_545
Te2 Te9 3.051689 1_555
Te3 Te8 3.051689 1_455
Te4 Te8 3.056870 1_555
Te5 Te9 3.056866 1_545
Te6 Te9 3.056876 1_555
Te7 Te8 3.056876 1_455
