# generated using pymatgen
data_Zr6Tc5Ge6Os
_symmetry_space_group_name_H-M   'P 1'
_cell_length_a   7.85568111
_cell_length_b   7.86675846
_cell_length_c   7.85455140
_cell_angle_alpha   126.62680075
_cell_angle_beta   127.62672133
_cell_angle_gamma   78.01391004
_symmetry_Int_Tables_number   1
_chemical_formula_structural   Zr6Tc5Ge6Os
_chemical_formula_sum   'Zr6 Tc5 Ge6 Os1'
_cell_volume   299.02267289
_cell_formula_units_Z   1
loop_
 _symmetry_equiv_pos_site_id
 _symmetry_equiv_pos_as_xyz
  1  'x, y, z'
loop_
 _atom_site_type_symbol
 _atom_site_label
 _atom_site_symmetry_multiplicity
 _atom_site_fract_x
 _atom_site_fract_y
 _atom_site_fract_z
 _atom_site_occupancy
  Zr  Zr0  1  0.45220307  0.40768249  0.45688208  1
  Zr  Zr1  1  0.54906531  0.00318996  0.95450230  1
  Zr  Zr2  1  0.04804526  0.00326162  0.45391261  1
  Zr  Zr3  1  0.95092216  0.40801988  0.95560785  1
  Zr  Zr4  1  0.24953462  0.59848329  0.84959398  1
  Zr  Zr5  1  0.74893956  0.59862181  0.34891414  1
  Tc  Tc0  1  0.00079221  0.25725909  0.25660642  1
  Tc  Tc1  1  0.49984235  0.25773379  0.75811250  1
  Tc  Tc2  1  0.37261042  0.74828115  0.37602295  1
  Tc  Tc3  1  0.62759267  0.00335594  0.37528925  1
  Tc  Tc4  1  0.87367656  0.74967513  0.87570368  1
  Ge  Ge0  1  0.25074176  0.00309712  0.25506307  1
  Ge  Ge1  1  0.74844157  0.00334827  0.75234858  1
  Ge  Ge2  1  0.16684832  0.66995602  0.50366050  1
  Ge  Ge3  1  0.83317908  0.33629031  0.50270554  1
  Ge  Ge4  1  0.66677488  0.67033874  0.00372338  1
  Ge  Ge5  1  0.33306356  0.33624103  0.00335321  1
  Os  Os0  1  0.12772364  0.00316336  0.87599997  1
loop_
_geom_bond_atom_site_label_1
_geom_bond_atom_site_label_2
_geom_bond_distance
_geom_bond_site_symmetry_2
Tc0 Zr4 2.977442 1_555
Tc0 Zr5 2.978772 1_455
Tc0 Zr0 3.026624 1_555
Tc0 Zr3 3.028418 1_454
Tc0 Zr2 3.035862 1_555
Tc0 Zr1 3.037003 1_454
Tc1 Zr5 2.966141 1_556
Tc1 Zr4 2.967496 1_555
Tc1 Zr1 3.028936 1_555
Tc1 Zr0 3.032378 1_555
Tc1 Zr3 3.033262 1_555
Tc1 Zr2 3.033526 1_555
Tc2 Zr3 2.970246 1_454
Tc2 Zr0 2.970407 1_555
Tc2 Zr1 3.029872 1_565
Tc2 Zr5 3.032348 1_555
Tc2 Zr4 3.032884 1_554
Tc2 Zr2 3.035593 1_565
Tc3 Zr2 2.966436 1_655
Tc3 Zr1 2.968141 1_554
Tc3 Zr0 3.041679 1_555
Tc3 Zr3 3.044701 1_555
Tc3 Zr4 3.045888 1_544
Tc3 Zr5 3.046735 1_545
Tc4 Zr3 2.975947 1_555
Tc4 Zr0 2.977004 1_555
Tc4 Zr5 3.026381 1_555
Tc4 Zr4 3.027270 1_655
Tc4 Zr1 3.034003 1_565
Tc4 Zr2 3.034866 1_666
Ge0 Tc1 2.489411 1_555
Ge0 Tc2 2.490439 1_545
Ge0 Tc4 2.492957 1_444
Ge0 Tc0 2.494556 1_555
Ge0 Tc3 2.498509 1_555
Ge0 Os0 2.507392 1_554
Ge0 Zr2 2.829906 1_555
Ge0 Zr4 2.855590 1_544
Ge0 Zr0 2.855938 1_555
Ge1 Tc1 2.489437 1_555
Ge1 Tc2 2.491563 1_545
Ge1 Tc4 2.493340 1_545
Ge1 Tc0 2.494931 1_656
Ge1 Tc3 2.497927 1_555
Ge1 Os0 2.507449 1_655
Ge1 Zr1 2.830910 1_555
Ge1 Zr5 2.854833 1_545
Ge1 Zr3 2.855068 1_555
Ge2 Tc2 2.669628 1_555
Ge2 Os0 2.671016 1_565
Ge2 Tc0 2.675552 1_555
Ge2 Zr0 2.756286 1_555
Ge2 Zr3 2.757863 1_454
Ge2 Zr4 2.763537 1_555
Ge2 Zr1 2.763585 1_565
Ge2 Zr5 2.765704 1_455
Ge2 Zr2 2.767595 1_565
Ge3 Tc3 2.669337 1_555
Ge3 Tc4 2.680202 1_555
Ge3 Tc0 2.681519 1_655
Ge3 Zr5 2.754478 1_555
Ge3 Zr4 2.755162 1_655
Ge3 Zr2 2.759478 1_655
Ge3 Zr1 2.760470 1_554
Ge3 Zr0 2.762202 1_555
Ge3 Zr3 2.762722 1_555
Ge4 Tc3 2.667302 1_565
Ge4 Tc1 2.680360 1_554
Ge4 Tc4 2.684802 1_554
Ge4 Zr3 2.751386 1_554
Ge4 Zr0 2.752473 1_554
Ge4 Zr2 2.758590 1_665
Ge4 Zr5 2.761025 1_555
Ge4 Zr1 2.761626 1_564
Ge4 Zr4 2.763403 1_554
Ge5 Os0 2.669497 1_554
Ge5 Tc1 2.671021 1_554
Ge5 Tc2 2.675479 1_555
Ge5 Zr4 2.754644 1_554
Ge5 Zr5 2.754897 1_555
Ge5 Zr1 2.764049 1_554
Ge5 Zr0 2.764104 1_555
Ge5 Zr3 2.765023 1_454
Ge5 Zr2 2.765538 1_554
Os0 Zr1 2.973876 1_555
Os0 Zr2 2.975247 1_555
Os0 Zr4 3.046750 1_545
Os0 Zr0 3.047190 1_556
Os0 Zr5 3.048331 1_445
Os0 Zr3 3.051318 1_455
