# generated using pymatgen
data_RbGePO4
_symmetry_space_group_name_H-M   'P 1'
_cell_length_a   7.04459683
_cell_length_b   5.29456791
_cell_length_c   7.69138606
_cell_angle_alpha   90.00000000
_cell_angle_beta   114.36640723
_cell_angle_gamma   90.00000000
_symmetry_Int_Tables_number   1
_chemical_formula_structural   RbGePO4
_chemical_formula_sum   'Rb2 Ge2 P2 O8'
_cell_volume   261.32095464
_cell_formula_units_Z   2
loop_
 _symmetry_equiv_pos_site_id
 _symmetry_equiv_pos_as_xyz
  1  'x, y, z'
loop_
 _atom_site_type_symbol
 _atom_site_label
 _atom_site_symmetry_multiplicity
 _atom_site_fract_x
 _atom_site_fract_y
 _atom_site_fract_z
 _atom_site_occupancy
  Rb  Rb0  1  0.74877473  0.74999900  0.54848183  1
  Rb  Rb1  1  0.25122460  0.25000000  0.45151738  1
  Ge  Ge0  1  0.22697769  0.25000000  0.95183778  1
  Ge  Ge1  1  0.77301801  0.74999900  0.04815447  1
  P  P0  1  0.68771862  0.25000000  0.21615061  1
  P  P1  1  0.31228077  0.74999900  0.78385907  1
  O  O0  1  0.48316889  0.74999900  0.99086702  1
  O  O1  1  0.82774331  0.01282929  0.23649588  1
  O  O2  1  0.82774331  0.48716971  0.23649588  1
  O  O3  1  0.60486875  0.25000000  0.36680709  1
  O  O4  1  0.39514315  0.74999900  0.63316476  1
  O  O5  1  0.17224332  0.51280392  0.76350974  1
  O  O6  1  0.17224332  0.98719608  0.76350974  1
  O  O7  1  0.51685353  0.25000000  0.00915175  1
loop_
_geom_bond_atom_site_label_1
_geom_bond_atom_site_label_2
_geom_bond_distance
_geom_bond_site_symmetry_2
Ge0 O7 1.903036 1_556
Ge0 O5 1.929266 1_555
Ge0 O6 1.929266 1_545
Ge1 O0 1.902895 1_554
Ge1 O2 1.929439 1_555
Ge1 O1 1.929443 1_565
O0 P1 1.550061 1_555
O1 P0 1.564277 1_555
O1 Rb0 3.017537 1_545
O1 Rb1 3.023358 1_655
O2 P0 1.564273 1_555
O2 Rb0 3.017535 1_555
O2 Rb1 3.023356 1_655
O3 P0 1.497131 1_555
O3 Rb1 2.823176 1_555
O3 Rb0 2.969759 1_555
O3 Rb0 2.969768 1_545
O4 P1 1.497466 1_555
O4 Rb0 2.822964 1_555
O4 Rb1 2.969702 1_555
O4 Rb1 2.969712 1_565
O5 P1 1.564429 1_555
O5 Rb1 3.017562 1_555
O5 Rb0 3.023351 1_455
O6 P1 1.564437 1_555
O6 Rb1 3.017562 1_565
O6 Rb0 3.023355 1_455
O7 P0 1.549954 1_555
