# generated using pymatgen
data_CsK3(SiP)12
_symmetry_space_group_name_H-M   'P 1'
_cell_length_a   3.54011249
_cell_length_b   9.87914915
_cell_length_c   19.40617628
_cell_angle_alpha   91.37199059
_cell_angle_beta   90.00000000
_cell_angle_gamma   90.00000000
_symmetry_Int_Tables_number   1
_chemical_formula_structural   CsK3(SiP)12
_chemical_formula_sum   'Cs1 K3 Si12 P12'
_cell_volume   678.50343854
_cell_formula_units_Z   1
loop_
 _symmetry_equiv_pos_site_id
 _symmetry_equiv_pos_as_xyz
  1  'x, y, z'
loop_
 _atom_site_type_symbol
 _atom_site_label
 _atom_site_symmetry_multiplicity
 _atom_site_fract_x
 _atom_site_fract_y
 _atom_site_fract_z
 _atom_site_occupancy
  Cs  Cs0  1  0.00000000  0.80720307  0.19494861  1
  K  K0  1  0.00000000  0.30213591  0.31187471  1
  K  K1  1  0.00000000  0.68217802  0.69496214  1
  K  K2  1  0.00000000  0.18453557  0.80445499  1
  Si  Si0  1  0.50000000  0.41420114  0.02851221  1
  Si  Si1  1  0.50000000  0.60049661  0.95665930  1
  Si  Si2  1  0.50000000  0.09204603  0.53900496  1
  Si  Si3  1  0.50000000  0.89735994  0.46867132  1
  Si  Si4  1  0.00000000  0.12163022  0.01219232  1
  Si  Si5  1  0.00000000  0.89262943  0.97965800  1
  Si  Si6  1  0.00000000  0.38116418  0.52035569  1
  Si  Si7  1  0.00000000  0.60836274  0.49127586  1
  Si  Si8  1  0.00000000  0.19827744  0.12798149  1
  Si  Si9  1  0.00000000  0.82464198  0.86317348  1
  Si  Si10  1  0.00000000  0.31835920  0.63593061  1
  Si  Si11  1  0.00000000  0.66412841  0.37504495  1
  P  P0  1  0.50000000  0.13736994  0.18892212  1
  P  P1  1  0.50000000  0.88781952  0.80247148  1
  P  P2  1  0.50000000  0.38501437  0.69722293  1
  P  P3  1  0.50000000  0.59363443  0.31529298  1
  P  P4  1  0.50000000  0.27612722  0.46838170  1
  P  P5  1  0.50000000  0.71636097  0.54146498  1
  P  P6  1  0.50000000  0.22132633  0.95981047  1
  P  P7  1  0.50000000  0.78830942  0.02882249  1
  P  P8  1  0.00000000  0.42537454  0.10130883  1
  P  P9  1  0.00000000  0.59490115  0.88403858  1
  P  P10  1  0.00000000  0.08840509  0.61162855  1
  P  P11  1  0.00000000  0.89600615  0.39593325  1
loop_
_geom_bond_atom_site_label_1
_geom_bond_atom_site_label_2
_geom_bond_distance
_geom_bond_site_symmetry_2
Cs0 P3 3.643466 1_455
Cs0 P3 3.643466 1_555
Cs0 P7 3.678652 1_455
Cs0 P7 3.678652 1_555
Cs0 P0 3.715397 1_565
Cs0 P0 3.715397 1_465
Cs0 P11 3.977245 1_555
Cs0 P8 4.147647 1_555
K0 P0 3.360039 1_455
K0 P0 3.360039 1_555
K0 P3 3.379549 1_555
K0 P3 3.379549 1_455
K0 P4 3.530026 1_555
K0 P4 3.530026 1_455
K1 P1 3.377901 1_455
K1 P1 3.377901 1_555
K1 P2 3.429237 1_555
K1 P2 3.429237 1_455
K1 P5 3.488340 1_555
K1 P5 3.488340 1_455
K2 P2 3.403453 1_555
K2 P2 3.403453 1_455
K2 P1 3.423698 1_445
K2 P1 3.423698 1_545
K2 P6 3.507433 1_555
K2 P6 3.507433 1_455
Si0 Si1 2.335474 1_554
Si2 Si3 2.331624 1_545
Si4 Si5 2.334175 1_544
Si4 Si8 2.353935 1_555
Si5 Si9 2.342726 1_555
Si6 Si7 2.327452 1_555
Si10 Si6 2.341381 1_555
Si11 Si7 2.334681 1_555
P0 Si8 2.219873 1_655
P0 Si8 2.219873 1_555
P1 Si9 2.223854 1_655
P1 Si9 2.223854 1_555
P2 Si10 2.223511 1_555
P2 Si10 2.223511 1_655
P3 Si11 2.219009 1_555
P3 Si11 2.219009 1_655
P4 Si6 2.275315 1_555
P4 Si6 2.275315 1_655
P4 Si2 2.303232 1_555
P5 Si7 2.273832 1_655
P5 Si7 2.273832 1_555
P5 Si3 2.305188 1_555
P6 Si4 2.276935 1_656
P6 Si4 2.276935 1_556
P6 Si0 2.299254 1_556
P7 Si5 2.269935 1_554
P7 Si5 2.269935 1_654
P7 Si1 2.297683 1_554
P8 Si0 2.265734 1_455
P8 Si0 2.265734 1_555
P8 Si8 2.314507 1_555
P9 Si1 2.262416 1_555
P9 Si1 2.262416 1_455
P9 Si9 2.315004 1_555
P10 Si2 2.263421 1_455
P10 Si2 2.263421 1_555
P10 Si10 2.309104 1_555
P11 Si3 2.263824 1_555
P11 Si3 2.263824 1_455
P11 Si11 2.316767 1_555
