# generated using pymatgen
data_Sr4SiGePd4
_symmetry_space_group_name_H-M   'P 1'
_cell_length_a   9.29134433
_cell_length_b   8.31810764
_cell_length_c   5.96844401
_cell_angle_alpha   80.48097489
_cell_angle_beta   61.59463185
_cell_angle_gamma   39.13407212
_symmetry_Int_Tables_number   1
_chemical_formula_structural   Sr4SiGePd4
_chemical_formula_sum   'Sr4 Si1 Ge1 Pd4'
_cell_volume   238.23318448
_cell_formula_units_Z   1
loop_
 _symmetry_equiv_pos_site_id
 _symmetry_equiv_pos_as_xyz
  1  'x, y, z'
loop_
 _atom_site_type_symbol
 _atom_site_label
 _atom_site_symmetry_multiplicity
 _atom_site_fract_x
 _atom_site_fract_y
 _atom_site_fract_z
 _atom_site_occupancy
  Sr  Sr0  1  0.03798984  0.05653259  0.62927413  1
  Sr  Sr1  1  0.27620143  0.62927413  0.05653259  1
  Sr  Sr2  1  0.61628969  0.98007871  0.21750075  1
  Sr  Sr3  1  0.18613285  0.21750075  0.98007871  1
  Si  Si0  1  0.86533959  0.63466041  0.63466041  1
  Ge  Ge0  1  0.63343199  0.36656801  0.36656801  1
  Pd  Pd0  1  0.62576354  0.62487018  0.05533480  1
  Pd  Pd1  1  0.69403048  0.05533480  0.62487018  1
  Pd  Pd2  1  0.18264474  0.55582936  0.62763305  1
  Pd  Pd3  1  0.63389385  0.62763305  0.55582936  1
loop_
_geom_bond_atom_site_label_1
_geom_bond_atom_site_label_2
_geom_bond_distance
_geom_bond_site_symmetry_2
Ge0 Pd0 2.576906 1_555
Ge0 Pd1 2.576909 1_555
Ge0 Pd2 2.611908 1_555
Ge0 Pd3 2.611916 1_555
Pd0 Si0 2.482300 1_554
Pd0 Sr3 3.114642 1_654
Pd0 Sr0 3.178861 1_654
Pd0 Sr2 3.183692 1_555
Pd0 Sr0 3.209467 1_565
Pd0 Sr1 3.216159 1_555
Pd0 Sr3 3.311025 1_564
Pd1 Si0 2.482296 1_545
Pd1 Sr2 3.114621 1_545
Pd1 Sr1 3.178858 1_645
Pd1 Sr3 3.183669 1_555
Pd1 Sr1 3.209465 1_556
Pd1 Sr0 3.216150 1_655
Pd1 Sr2 3.311029 1_546
Pd2 Si0 2.452745 1_455
Pd2 Sr2 3.117830 1_545
Pd2 Sr1 3.172281 1_555
Pd2 Sr2 3.195874 1_456
Pd2 Sr3 3.211130 1_555
Pd2 Sr0 3.235712 1_565
Pd2 Sr1 3.337655 1_556
Pd3 Si0 2.452736 1_555
Pd3 Sr3 3.117832 1_654
Pd3 Sr0 3.172279 1_655
Pd3 Sr3 3.195877 1_565
Pd3 Sr2 3.211133 1_555
Pd3 Sr1 3.235728 1_556
Pd3 Sr0 3.337676 1_565
