# generated using pymatgen
data_Ti13ZnGa9Rh7
_symmetry_space_group_name_H-M   'P 1'
_cell_length_a   8.66572010
_cell_length_b   8.66572011
_cell_length_c   8.66572002
_cell_angle_alpha   59.93564997
_cell_angle_beta   59.93565214
_cell_angle_gamma   59.93566120
_symmetry_Int_Tables_number   1
_chemical_formula_structural   Ti13ZnGa9Rh7
_chemical_formula_sum   'Ti13 Zn1 Ga9 Rh7'
_cell_volume   459.47794562
_cell_formula_units_Z   1
loop_
 _symmetry_equiv_pos_site_id
 _symmetry_equiv_pos_as_xyz
  1  'x, y, z'
loop_
 _atom_site_type_symbol
 _atom_site_label
 _atom_site_symmetry_multiplicity
 _atom_site_fract_x
 _atom_site_fract_y
 _atom_site_fract_z
 _atom_site_occupancy
  Ti  Ti0  1  0.21524625  0.21524625  0.78250989  1
  Ti  Ti1  1  0.78250989  0.21524625  0.21524625  1
  Ti  Ti2  1  0.21524625  0.78250989  0.21524625  1
  Ti  Ti3  1  0.79246404  0.79246404  0.19187718  1
  Ti  Ti4  1  0.19187718  0.79246404  0.79246404  1
  Ti  Ti5  1  0.79246404  0.19187718  0.79246404  1
  Ti  Ti6  1  0.37530343  0.37530343  0.37530343  1
  Ti  Ti7  1  0.37664987  0.87310994  0.37664987  1
  Ti  Ti8  1  0.87310994  0.37664987  0.37664987  1
  Ti  Ti9  1  0.37664987  0.37664987  0.87310994  1
  Ti  Ti10  1  0.84158409  0.48058085  0.84158409  1
  Ti  Ti11  1  0.48058085  0.84158409  0.84158409  1
  Ti  Ti12  1  0.84158409  0.84158409  0.48058085  1
  Zn  Zn0  1  0.00550991  0.00550991  0.00550991  1
  Ga  Ga0  1  0.14671840  0.14671840  0.14671840  1
  Ga  Ga1  1  0.15068862  0.55129800  0.15068862  1
  Ga  Ga2  1  0.55129800  0.15068862  0.15068862  1
  Ga  Ga3  1  0.15068862  0.15068862  0.55129800  1
  Ga  Ga4  1  0.61955660  0.61955660  0.61955660  1
  Ga  Ga5  1  0.61802752  0.14582792  0.61802752  1
  Ga  Ga6  1  0.14582792  0.61802752  0.61802752  1
  Ga  Ga7  1  0.61802752  0.61802752  0.14582792  1
  Ga  Ga8  1  0.83208577  0.83208577  0.83208577  1
  Rh  Rh0  1  0.00454593  0.00454593  0.49521623  1
  Rh  Rh1  1  0.49521623  0.00454593  0.00454593  1
  Rh  Rh2  1  0.00454593  0.49521623  0.00454593  1
  Rh  Rh3  1  0.50003771  0.50003771  0.00063369  1
  Rh  Rh4  1  0.00063369  0.50003771  0.50003771  1
  Rh  Rh5  1  0.50003771  0.00063369  0.50003771  1
  Rh  Rh6  1  0.50128513  0.50128513  0.50128513  1
loop_
_geom_bond_atom_site_label_1
_geom_bond_atom_site_label_2
_geom_bond_distance
_geom_bond_site_symmetry_2
Ti0 Zn0 2.571518 1_556
Ti0 Ti11 2.844753 1_545
Ti0 Ti10 2.844753 1_455
Ti0 Ti6 2.901602 1_555
Ti0 Ti9 2.947818 1_555
Ti1 Zn0 2.571519 1_655
Ti1 Ti10 2.844753 1_554
Ti1 Ti12 2.844753 1_545
Ti1 Ti6 2.901602 1_555
Ti1 Ti8 2.947818 1_555
Ti2 Zn0 2.571518 1_565
Ti2 Ti6 2.901602 1_555
Ti2 Ti7 2.947818 1_555
Ti3 Zn0 2.620183 1_665
Ti3 Ti8 2.975471 1_555
Ti3 Ti7 2.975471 1_555
Ti4 Zn0 2.620183 1_566
Ti4 Ti7 2.975471 1_555
Ti4 Ti9 2.975471 1_555
Ti5 Zn0 2.620183 1_656
Ti5 Ti8 2.975471 1_555
Ti5 Ti9 2.975471 1_555
Ti10 Ti5 2.989488 1_555
Ti11 Ti2 2.844753 1_556
Ti11 Ti4 2.989488 1_555
Ti12 Ti2 2.844753 1_655
Ti12 Ti3 2.989488 1_555
Ga0 Rh0 2.494204 1_555
Ga0 Rh2 2.494204 1_555
Ga0 Rh1 2.494204 1_555
Ga0 Ti0 2.695182 1_554
Ga0 Ti2 2.695182 1_545
Ga0 Ti1 2.695182 1_455
Ga0 Ti9 2.841283 1_554
Ga0 Ti7 2.841283 1_545
Ga0 Ti8 2.841283 1_455
Ga0 Zn0 2.998832 1_555
Ga1 Rh2 2.506828 1_555
Ga1 Rh4 2.517979 1_555
Ga1 Rh3 2.517979 1_555
Ga1 Ti2 2.683313 1_555
Ga1 Ti4 2.696027 1_554
Ga1 Ti3 2.696028 1_455
Ga1 Ti6 2.784002 1_555
Ga1 Ti8 2.805322 1_455
Ga1 Ti9 2.805323 1_554
Ga2 Rh1 2.506828 1_555
Ga2 Rh5 2.517979 1_555
Ga2 Rh3 2.517979 1_555
Ga2 Ti1 2.683313 1_555
Ga2 Ti5 2.696027 1_554
Ga2 Ti3 2.696028 1_545
Ga2 Ti6 2.784003 1_555
Ga2 Ti7 2.805322 1_545
Ga2 Ti9 2.805323 1_554
Ga3 Rh0 2.506828 1_555
Ga3 Rh4 2.517980 1_555
Ga3 Rh5 2.517980 1_555
Ga3 Ti0 2.683313 1_555
Ga3 Ti4 2.696027 1_545
Ga3 Ti5 2.696027 1_455
Ga3 Ti6 2.784002 1_555
Ga3 Ti8 2.805323 1_455
Ga3 Ti7 2.805323 1_545
Ga4 Rh6 2.511721 1_555
Ga4 Rh3 2.696597 1_556
Ga4 Rh5 2.696597 1_565
Ga4 Rh4 2.696597 1_655
Ga4 Ti12 2.814236 1_555
Ga4 Ti10 2.814236 1_555
Ga4 Ti11 2.814237 1_555
Ga4 Ti9 2.976721 1_555
Ga4 Ti7 2.976721 1_555
Ga4 Ti8 2.976721 1_555
Ga4 Ti3 3.057332 1_555
Ga4 Ti5 3.057333 1_555
Ga4 Ti4 3.057333 1_555
Ga5 Rh6 2.513170 1_555
Ga5 Rh5 2.701742 1_555
Ga5 Rh1 2.734155 1_556
Ga5 Rh0 2.734156 1_655
Ga5 Ga8 2.759548 1_545
Ga5 Ti11 2.799943 1_545
Ga5 Ti12 2.799943 1_545
Ga5 Ti5 2.868348 1_555
Ga5 Ti1 2.889110 1_555
Ga5 Ti0 2.889110 1_555
Ga5 Ti6 2.975554 1_555
Ga5 Ti8 2.977877 1_555
Ga5 Ti9 2.977877 1_555
Ga6 Rh6 2.513170 1_555
Ga6 Rh4 2.701742 1_555
Ga6 Rh2 2.734155 1_556
Ga6 Rh0 2.734156 1_565
Ga6 Ga8 2.759548 1_455
Ga6 Ti10 2.799943 1_455
Ga6 Ti12 2.799943 1_455
Ga6 Ti4 2.868348 1_555
Ga6 Ti2 2.889110 1_555
Ga6 Ti0 2.889110 1_555
Ga6 Ti6 2.975555 1_555
Ga6 Ti7 2.977877 1_555
Ga6 Ti9 2.977877 1_555
Ga7 Rh6 2.513170 1_555
Ga7 Rh3 2.701742 1_555
Ga7 Rh1 2.734156 1_565
Ga7 Rh2 2.734156 1_655
Ga7 Ga8 2.759547 1_554
Ga7 Ti11 2.799943 1_554
Ga7 Ti10 2.799943 1_554
Ga7 Ti3 2.868348 1_555
Ga7 Ti1 2.889110 1_555
Ga7 Ti2 2.889110 1_555
Ga7 Ti6 2.975554 1_555
Ga7 Ti8 2.977877 1_555
Ga7 Ti7 2.977877 1_555
Ga8 Rh0 2.546415 1_665
Ga8 Rh2 2.546415 1_656
Ga8 Rh1 2.546415 1_566
Ga8 Ti3 2.815972 1_556
Ga8 Ti5 2.815972 1_565
Ga8 Ti4 2.815972 1_655
Ga8 Ti12 2.965856 1_555
Ga8 Ti11 2.965857 1_555
Ga8 Ti10 2.965857 1_555
Rh0 Ti12 2.522228 1_445
Rh0 Ti8 2.631315 1_455
Rh0 Ti7 2.631315 1_545
Rh0 Ti4 3.017485 1_545
Rh0 Ti5 3.017485 1_455
Rh0 Ti1 3.104985 1_455
Rh0 Ti2 3.104985 1_545
Rh1 Ti11 2.522228 1_544
Rh1 Ti7 2.631315 1_545
Rh1 Ti9 2.631315 1_554
Rh1 Ti5 3.017485 1_554
Rh1 Ti3 3.017485 1_545
Rh1 Ti2 3.104984 1_545
Rh1 Ti0 3.104985 1_554
Rh2 Ti10 2.522228 1_454
Rh2 Ti8 2.631315 1_455
Rh2 Ti9 2.631315 1_554
Rh2 Ti4 3.017485 1_554
Rh2 Ti3 3.017485 1_455
Rh2 Ti1 3.104984 1_455
Rh2 Ti0 3.104985 1_554
Rh3 Ti11 2.516688 1_554
Rh3 Ti10 2.516688 1_554
Rh3 Ti6 2.648842 1_555
Rh3 Ti9 2.649735 1_554
Rh3 Ti1 3.074248 1_555
Rh3 Ti2 3.074249 1_555
Rh3 Ti4 3.205180 1_554
Rh3 Ti5 3.205180 1_554
Rh4 Ti10 2.516688 1_455
Rh4 Ti12 2.516689 1_455
Rh4 Ti6 2.648842 1_555
Rh4 Ti8 2.649735 1_455
Rh4 Ti2 3.074248 1_555
Rh4 Ti0 3.074248 1_555
Rh4 Ti5 3.205179 1_455
Rh4 Ti3 3.205180 1_455
Rh5 Ti11 2.516688 1_545
Rh5 Ti12 2.516689 1_545
Rh5 Ti6 2.648842 1_555
Rh5 Ti7 2.649735 1_545
Rh5 Ti1 3.074248 1_555
Rh5 Ti0 3.074249 1_555
Rh5 Ti4 3.205179 1_545
Rh5 Ti3 3.205180 1_545
Rh6 Ti9 2.628736 1_555
Rh6 Ti7 2.628737 1_555
Rh6 Ti8 2.628737 1_555
Rh6 Ti6 2.675462 1_555
