# generated using pymatgen
data_Ti3Ga2PdN
_symmetry_space_group_name_H-M   'P 1'
_cell_length_a   8.13387914
_cell_length_b   8.13388008
_cell_length_c   8.13387939
_cell_angle_alpha   60.00000278
_cell_angle_beta   59.99999899
_cell_angle_gamma   59.99999852
_symmetry_Int_Tables_number   1
_chemical_formula_structural   Ti3Ga2PdN
_chemical_formula_sum   'Ti12 Ga8 Pd4 N4'
_cell_volume   380.52063405
_cell_formula_units_Z   4
loop_
 _symmetry_equiv_pos_site_id
 _symmetry_equiv_pos_as_xyz
  1  'x, y, z'
loop_
 _atom_site_type_symbol
 _atom_site_label
 _atom_site_symmetry_multiplicity
 _atom_site_fract_x
 _atom_site_fract_y
 _atom_site_fract_z
 _atom_site_occupancy
  Ti  Ti0  1  0.81783674  0.81783674  0.18216326  1
  Ti  Ti1  1  0.06783674  0.43216326  0.43216326  1
  Ti  Ti2  1  0.43216326  0.06783674  0.06783674  1
  Ti  Ti3  1  0.06783674  0.06783674  0.43216326  1
  Ti  Ti4  1  0.06783674  0.43216326  0.06783674  1
  Ti  Ti5  1  0.43216326  0.06783674  0.43216326  1
  Ti  Ti6  1  0.18216326  0.81783674  0.18216326  1
  Ti  Ti7  1  0.18216326  0.81783674  0.81783674  1
  Ti  Ti8  1  0.81783674  0.18216326  0.18216326  1
  Ti  Ti9  1  0.81783674  0.18216326  0.81783674  1
  Ti  Ti10  1  0.43216326  0.43216326  0.06783674  1
  Ti  Ti11  1  0.18216326  0.18216326  0.81783674  1
  Ga  Ga0  1  0.41279639  0.76160884  0.41279639  1
  Ga  Ga1  1  0.83720361  0.83720361  0.48839116  1
  Ga  Ga2  1  0.48839116  0.83720361  0.83720361  1
  Ga  Ga3  1  0.83720361  0.83720361  0.83720361  1
  Ga  Ga4  1  0.76160884  0.41279639  0.41279639  1
  Ga  Ga5  1  0.41279639  0.41279639  0.41279639  1
  Ga  Ga6  1  0.41279639  0.41279639  0.76160884  1
  Ga  Ga7  1  0.83720361  0.48839116  0.83720361  1
  Pd  Pd0  1  0.62500000  0.12500000  0.62500000  1
  Pd  Pd1  1  0.62500000  0.62500000  0.12500000  1
  Pd  Pd2  1  0.12500000  0.62500000  0.62500000  1
  Pd  Pd3  1  0.62500000  0.62500000  0.62500000  1
  N  N0  1  0.12500000  0.62500000  0.12500000  1
  N  N1  1  0.12500000  0.12500000  0.62500000  1
  N  N2  1  0.62500000  0.12500000  0.12500000  1
  N  N3  1  0.12500000  0.12500000  0.12500000  1
loop_
_geom_bond_atom_site_label_1
_geom_bond_atom_site_label_2
_geom_bond_distance
_geom_bond_site_symmetry_2
Ga0 Pd1 2.517226 1_555
Ga0 Pd2 2.517226 1_555
Ga0 Pd3 2.517239 1_555
Ga0 Ti3 2.657693 1_565
Ga0 Ti2 2.657693 1_565
Ga0 Ti5 2.657702 1_565
Ga1 Pd2 2.517226 1_655
Ga1 Pd0 2.517226 1_565
Ga1 Pd3 2.517240 1_555
Ga1 Ti6 2.657693 1_655
Ga1 Ti8 2.657693 1_565
Ga1 Ti0 2.657702 1_555
Ga2 Pd1 2.517226 1_556
Ga2 Pd0 2.517227 1_565
Ga2 Pd3 2.517239 1_555
Ga2 Ti6 2.657693 1_556
Ga2 Ti11 2.657693 1_565
Ga2 Ti7 2.657702 1_555
Ga3 Pd2 2.517235 1_655
Ga3 Pd0 2.517236 1_565
Ga3 Pd1 2.517236 1_556
Ga3 Ti7 2.657686 1_655
Ga3 Ti0 2.657686 1_556
Ga3 Ti9 2.657686 1_565
Ga4 Pd1 2.517226 1_555
Ga4 Pd0 2.517227 1_555
Ga4 Pd3 2.517239 1_555
Ga4 Ti4 2.657693 1_655
Ga4 Ti3 2.657693 1_655
Ga4 Ti1 2.657702 1_655
Ga5 Pd2 2.517235 1_555
Ga5 Pd0 2.517236 1_555
Ga5 Pd1 2.517236 1_555
Ga5 Ti1 2.657686 1_555
Ga5 Ti10 2.657686 1_555
Ga5 Ti5 2.657686 1_555
Ga6 Pd2 2.517226 1_555
Ga6 Pd0 2.517226 1_555
Ga6 Pd3 2.517240 1_555
Ga6 Ti4 2.657693 1_556
Ga6 Ti2 2.657693 1_556
Ga6 Ti10 2.657702 1_556
Ga7 Pd1 2.517226 1_556
Ga7 Pd2 2.517226 1_655
Ga7 Pd3 2.517239 1_555
Ga7 Ti11 2.657693 1_655
Ga7 Ti8 2.657693 1_556
Ga7 Ti9 2.657702 1_555
Pd0 Ti3 3.009228 1_655
Pd0 Ti11 3.009228 1_555
Pd0 Ti9 3.009228 1_555
Pd0 Ti2 3.009228 1_556
Pd0 Ti8 3.009228 1_555
Pd0 Ti5 3.009228 1_555
Pd1 Ti4 3.009228 1_655
Pd1 Ti6 3.009228 1_555
Pd1 Ti0 3.009228 1_555
Pd1 Ti10 3.009228 1_555
Pd1 Ti2 3.009228 1_565
Pd1 Ti8 3.009228 1_555
Pd2 Ti7 3.009228 1_555
Pd2 Ti4 3.009228 1_556
Pd2 Ti1 3.009228 1_555
Pd2 Ti6 3.009228 1_555
Pd2 Ti3 3.009228 1_565
Pd2 Ti11 3.009228 1_555
Pd3 Ti1 3.009228 1_655
Pd3 Ti7 3.009228 1_555
Pd3 Ti10 3.009228 1_556
Pd3 Ti0 3.009228 1_555
Pd3 Ti5 3.009228 1_565
Pd3 Ti9 3.009228 1_555
N0 Ti10 2.137141 1_555
N0 Ti0 2.137141 1_455
N0 Ti6 2.137142 1_555
N0 Ti7 2.137142 1_554
N0 Ti1 2.137142 1_555
N0 Ti4 2.137142 1_555
N1 Ti5 2.137141 1_555
N1 Ti9 2.137141 1_455
N1 Ti11 2.137141 1_555
N1 Ti3 2.137141 1_555
N1 Ti1 2.137142 1_555
N1 Ti7 2.137142 1_545
N2 Ti8 2.137141 1_555
N2 Ti5 2.137141 1_555
N2 Ti9 2.137141 1_554
N2 Ti2 2.137141 1_555
N2 Ti10 2.137142 1_555
N2 Ti0 2.137142 1_545
N3 Ti2 2.137141 1_555
N3 Ti8 2.137141 1_455
N3 Ti3 2.137141 1_555
N3 Ti11 2.137141 1_554
N3 Ti4 2.137142 1_555
N3 Ti6 2.137142 1_545
