# generated using pymatgen
data_Sc2P4Se13
_symmetry_space_group_name_H-M   'P 1'
_cell_length_a   9.99011912
_cell_length_b   10.53028094
_cell_length_c   12.81201641
_cell_angle_alpha   71.74470650
_cell_angle_beta   70.88472011
_cell_angle_gamma   69.74634219
_symmetry_Int_Tables_number   1
_chemical_formula_structural   Sc2P4Se13
_chemical_formula_sum   'Sc4 P8 Se26'
_cell_volume   1163.97927906
_cell_formula_units_Z   2
loop_
 _symmetry_equiv_pos_site_id
 _symmetry_equiv_pos_as_xyz
  1  'x, y, z'
loop_
 _atom_site_type_symbol
 _atom_site_label
 _atom_site_symmetry_multiplicity
 _atom_site_fract_x
 _atom_site_fract_y
 _atom_site_fract_z
 _atom_site_occupancy
  Sc  Sc0  1  0.59848949  0.01339487  0.61056237  1
  Sc  Sc1  1  0.10454259  0.51134407  0.10653085  1
  Sc  Sc2  1  0.40151051  0.98660513  0.38943763  1
  Sc  Sc3  1  0.89545741  0.48865593  0.89346915  1
  P  P0  1  0.24716290  0.57030102  0.27174499  1
  P  P1  1  0.50239966  0.25722128  0.38720389  1
  P  P2  1  0.75283710  0.42969898  0.72825501  1
  P  P3  1  0.23005854  0.93218958  0.24386354  1
  P  P4  1  0.13770410  0.23184971  0.02112354  1
  P  P5  1  0.86229590  0.76815029  0.97887646  1
  P  P6  1  0.49760034  0.74277872  0.61279611  1
  P  P7  1  0.76994146  0.06781042  0.75613646  1
  Se  Se0  1  0.15730026  0.00009916  0.07815339  1
  Se  Se1  1  0.84269974  0.99990084  0.92184661  1
  Se  Se2  1  0.88834434  0.23683579  0.65797953  1
  Se  Se3  1  0.92579876  0.35383412  0.11346819  1
  Se  Se4  1  0.52519505  0.18518173  0.24012253  1
  Se  Se5  1  0.29637615  0.79157992  0.56043419  1
  Se  Se6  1  0.46637986  0.86080719  0.21730708  1
  Se  Se7  1  0.87138976  0.91859568  0.65079335  1
  Se  Se8  1  0.47480495  0.81481827  0.75987747  1
  Se  Se9  1  0.34392202  0.16235420  0.53247006  1
  Se  Se10  1  0.09481006  0.44432012  0.33225292  1
  Se  Se11  1  0.43270369  0.49228636  0.36285289  1
  Se  Se12  1  0.11165566  0.76316421  0.34202047  1
  Se  Se13  1  0.07420124  0.64616588  0.88653181  1
  Se  Se14  1  0.53362014  0.13919281  0.78269292  1
  Se  Se15  1  0.65607798  0.83764580  0.46752994  1
  Se  Se16  1  0.67153200  0.38723368  0.91018373  1
  Se  Se17  1  0.70362385  0.20842008  0.43956581  1
  Se  Se18  1  0.68680159  0.70957785  0.95894014  1
  Se  Se19  1  0.12483423  0.26673680  0.84769087  1
  Se  Se20  1  0.90518994  0.55567988  0.66774708  1
  Se  Se21  1  0.32846800  0.61276632  0.08981627  1
  Se  Se22  1  0.87516577  0.73326320  0.15230913  1
  Se  Se23  1  0.31319841  0.29042215  0.04105986  1
  Se  Se24  1  0.56729631  0.50771364  0.63714711  1
  Se  Se25  1  0.12861024  0.08140432  0.34920665  1
loop_
_geom_bond_atom_site_label_1
_geom_bond_atom_site_label_2
_geom_bond_distance
_geom_bond_site_symmetry_2
Sc0 Se17 2.699621 1_555
Sc0 Se8 2.700661 1_545
Sc0 Se14 2.708904 1_555
Sc0 Se7 2.721884 1_545
Sc0 Se15 2.794870 1_545
Sc0 Se9 2.801873 1_555
Sc1 Se23 2.679680 1_555
Sc1 Se22 2.706821 1_455
Sc1 Se21 2.718080 1_555
Sc1 Se10 2.730493 1_555
Sc1 Se3 2.793177 1_455
Sc1 Se13 2.794050 1_554
Sc2 Se5 2.699621 1_555
Sc2 Se4 2.700661 1_565
Sc2 Se6 2.708904 1_555
Sc2 Se25 2.721884 1_565
Sc2 Se9 2.794870 1_565
Sc2 Se15 2.801873 1_555
Sc3 Se18 2.679680 1_555
Sc3 Se19 2.706821 1_655
Sc3 Se16 2.718080 1_555
Sc3 Se20 2.730493 1_555
Sc3 Se13 2.793177 1_655
Sc3 Se3 2.794050 1_556
P0 Se21 2.156661 1_555
P0 Se10 2.158311 1_555
P0 Se12 2.282906 1_555
P0 Se11 2.288047 1_555
P1 Se4 2.161771 1_555
P1 Se17 2.169629 1_555
P1 Se9 2.229070 1_555
P1 Se11 2.274738 1_555
P2 Se16 2.156661 1_555
P2 Se20 2.158311 1_555
P2 Se2 2.282906 1_555
P2 Se24 2.288047 1_555
P3 Se25 2.155882 1_565
P3 Se6 2.158704 1_555
P3 Se12 2.286859 1_555
P3 Se0 2.290596 1_565
P4 Se23 2.158721 1_555
P4 Se19 2.175285 1_554
P4 Se3 2.227184 1_455
P4 Se0 2.274538 1_555
P5 Se18 2.158721 1_555
P5 Se22 2.175285 1_556
P5 Se13 2.227184 1_655
P5 Se1 2.274538 1_555
P6 Se8 2.161771 1_555
P6 Se5 2.169629 1_555
P6 Se15 2.229070 1_555
P6 Se24 2.274738 1_555
P7 Se7 2.155882 1_545
P7 Se14 2.158704 1_555
P7 Se2 2.286859 1_555
P7 Se1 2.290596 1_545
