# generated using pymatgen
data_Sc(TaSn)6
_symmetry_space_group_name_H-M   'P 1'
_cell_length_a   5.72641035
_cell_length_b   5.72641007
_cell_length_c   9.60377723
_cell_angle_alpha   90.00000000
_cell_angle_beta   90.00000000
_cell_angle_gamma   119.99999595
_symmetry_Int_Tables_number   1
_chemical_formula_structural   Sc(TaSn)6
_chemical_formula_sum   'Sc1 Ta6 Sn6'
_cell_volume   272.73296738
_cell_formula_units_Z   1
loop_
 _symmetry_equiv_pos_site_id
 _symmetry_equiv_pos_as_xyz
  1  'x, y, z'
loop_
 _atom_site_type_symbol
 _atom_site_label
 _atom_site_symmetry_multiplicity
 _atom_site_fract_x
 _atom_site_fract_y
 _atom_site_fract_z
 _atom_site_occupancy
  Sc  Sc0  1  0.00000000  0.00000000  0.00000000  1
  Ta  Ta0  1  0.50000000  0.00000000  0.75151775  1
  Ta  Ta1  1  0.50000000  0.50000000  0.75151775  1
  Ta  Ta2  1  0.00000000  0.50000000  0.75151775  1
  Ta  Ta3  1  0.50000000  0.00000000  0.24848225  1
  Ta  Ta4  1  0.50000000  0.50000000  0.24848225  1
  Ta  Ta5  1  0.00000000  0.50000000  0.24848225  1
  Sn  Sn0  1  0.00000000  0.00000000  0.68282456  1
  Sn  Sn1  1  0.00000000  0.00000000  0.31717544  1
  Sn  Sn2  1  0.33333300  0.66666700  0.50000000  1
  Sn  Sn3  1  0.66666700  0.33333300  0.50000000  1
  Sn  Sn4  1  0.33333300  0.66666700  0.00000000  1
  Sn  Sn5  1  0.66666700  0.33333300  0.00000000  1
loop_
_geom_bond_atom_site_label_1
_geom_bond_atom_site_label_2
_geom_bond_distance
_geom_bond_site_symmetry_2
Sc0 Sn1 3.046082 1_555
Sc0 Sn0 3.046082 1_554
Sc0 Sn5 3.306141 1_455
Sc0 Sn4 3.306141 1_545
Sc0 Sn4 3.306146 1_555
Sc0 Sn5 3.306146 1_445
Sc0 Sn5 3.306146 1_555
Sc0 Sn4 3.306146 1_445
Sn0 Ta2 2.938225 1_545
Sn0 Ta2 2.938225 1_555
Sn0 Ta0 2.938225 1_455
Sn0 Ta0 2.938225 1_555
Sn0 Ta1 2.938225 1_555
Sn0 Ta1 2.938225 1_445
Sn1 Ta5 2.938225 1_555
Sn1 Ta5 2.938225 1_545
Sn1 Ta3 2.938225 1_455
Sn1 Ta3 2.938225 1_555
Sn1 Ta4 2.938225 1_445
Sn1 Ta4 2.938225 1_555
Sn2 Ta0 2.927009 1_565
Sn2 Ta3 2.927009 1_565
Sn2 Ta2 2.927009 1_555
Sn2 Ta5 2.927009 1_555
Sn2 Ta1 2.927012 1_555
Sn2 Ta4 2.927012 1_555
Sn3 Ta0 2.927009 1_555
Sn3 Ta3 2.927009 1_555
Sn3 Ta2 2.927009 1_655
Sn3 Ta5 2.927009 1_655
Sn3 Ta1 2.927012 1_555
Sn3 Ta4 2.927012 1_555
Sn4 Ta3 2.902998 1_565
Sn4 Ta0 2.902998 1_564
Sn4 Ta5 2.902998 1_555
Sn4 Ta2 2.902998 1_554
Sn4 Ta4 2.903000 1_555
Sn4 Ta1 2.903000 1_554
Sn5 Ta3 2.902998 1_555
Sn5 Ta0 2.902998 1_554
Sn5 Ta5 2.902998 1_655
Sn5 Ta2 2.902998 1_654
Sn5 Ta4 2.903000 1_555
Sn5 Ta1 2.903000 1_554
