# generated using pymatgen
data_NaAl2InSe5
_symmetry_space_group_name_H-M   'P 1'
_cell_length_a   9.83563352
_cell_length_b   9.91643900
_cell_length_c   9.85144280
_cell_angle_alpha   91.30810468
_cell_angle_beta   90.87720117
_cell_angle_gamma   91.14357279
_symmetry_Int_Tables_number   1
_chemical_formula_structural   NaAl2InSe5
_chemical_formula_sum   'Na4 Al8 In4 Se20'
_cell_volume   960.29394695
_cell_formula_units_Z   4
loop_
 _symmetry_equiv_pos_site_id
 _symmetry_equiv_pos_as_xyz
  1  'x, y, z'
loop_
 _atom_site_type_symbol
 _atom_site_label
 _atom_site_symmetry_multiplicity
 _atom_site_fract_x
 _atom_site_fract_y
 _atom_site_fract_z
 _atom_site_occupancy
  Na  Na0  1  0.25442708  0.00296832  0.74208525  1
  Na  Na1  1  0.73376054  0.25797492  0.99757654  1
  Na  Na2  1  0.00122089  0.74547944  0.25502087  1
  Na  Na3  1  0.49978170  0.49904139  0.49723512  1
  Al  Al0  1  0.12461892  0.15970638  0.42700473  1
  Al  Al1  1  0.42819062  0.11982565  0.16791874  1
  Al  Al2  1  0.74158296  0.16085914  0.34787983  1
  Al  Al3  1  0.35007794  0.74237414  0.16642497  1
  Al  Al4  1  0.16478677  0.35029826  0.73704411  1
  Al  Al5  1  0.25991446  0.64872155  0.83033456  1
  Al  Al6  1  0.83387241  0.25816652  0.64806026  1
  Al  Al7  1  0.65186808  0.83159005  0.25716492  1
  In  In0  1  0.84703541  0.88010851  0.57258866  1
  In  In1  1  0.57133792  0.84796880  0.88024854  1
  In  In2  1  0.87595989  0.57362436  0.84567169  1
  In  In3  1  0.16112312  0.42457245  0.12634868  1
  Se  Se0  1  0.18873073  0.80490681  0.99938894  1
  Se  Se1  1  0.81166971  0.99638205  0.18720522  1
  Se  Se2  1  0.18452948  0.16661275  0.18586279  1
  Se  Se3  1  0.83524156  0.83617820  0.83525928  1
  Se  Se4  1  0.99806698  0.19333403  0.81117581  1
  Se  Se5  1  0.91158929  0.49543607  0.09152608  1
  Se  Se6  1  0.09096488  0.93040090  0.49060371  1
  Se  Se7  1  0.48558614  0.08819297  0.93405270  1
  Se  Se8  1  0.74392425  0.68780782  0.42035232  1
  Se  Se9  1  0.42091852  0.74623662  0.68523169  1
  Se  Se10  1  0.68600781  0.42081959  0.73707110  1
  Se  Se11  1  0.25917683  0.58430056  0.31640287  1
  Se  Se12  1  0.30227434  0.25607055  0.56739271  1
  Se  Se13  1  0.57099618  0.29902021  0.25819030  1
  Se  Se14  1  0.67524054  0.08050955  0.57045778  1
  Se  Se15  1  0.57003307  0.67448303  0.07946915  1
  Se  Se16  1  0.07924452  0.57031977  0.67420040  1
  Se  Se17  1  0.32373215  0.42889650  0.91537804  1
  Se  Se18  1  0.92998173  0.30962021  0.42611304  1
  Se  Se19  1  0.43253160  0.92718794  0.31605959  1
loop_
_geom_bond_atom_site_label_1
_geom_bond_atom_site_label_2
_geom_bond_distance
_geom_bond_site_symmetry_2
Na0 Se6 2.998493 1_545
Na0 Se7 3.029624 1_555
Na0 Se9 3.099367 1_545
Na0 Se12 3.107660 1_555
Na0 Se4 3.250928 1_455
Na0 Se0 3.305625 1_545
Na1 Se7 2.987570 1_555
Na1 Se5 3.024449 1_556
Na1 Se13 3.069905 1_556
Na1 Se10 3.097913 1_555
Na1 Se4 3.271073 1_555
Na1 Se1 3.326112 1_546
Na2 Se6 3.034211 1_555
Na2 Se5 3.034215 1_455
Na2 Se8 3.081426 1_455
Na2 Se11 3.084881 1_555
Na2 Se0 3.202700 1_554
Na2 Se1 3.214889 1_455
Na3 Se11 3.083551 1_555
Na3 Se10 3.089823 1_555
Na3 Se8 3.128077 1_555
Na3 Se13 3.140589 1_555
Na3 Se9 3.154863 1_555
Na3 Se12 3.160218 1_555
Al0 Se12 2.382890 1_555
Al0 Se6 2.390412 1_545
Al0 Se18 2.447166 1_455
Al0 Se2 2.458465 1_555
Al1 Se13 2.389838 1_555
Al1 Se7 2.395624 1_554
Al1 Se19 2.430942 1_545
Al1 Se2 2.458379 1_555
Al2 Se13 2.361043 1_555
Al2 Se1 2.366720 1_545
Al2 Se14 2.443658 1_555
Al2 Se18 2.449304 1_555
Al3 Se11 2.351543 1_555
Al3 Se0 2.369952 1_554
Al3 Se15 2.440476 1_555
Al3 Se19 2.443401 1_555
Al4 Se12 2.354438 1_555
Al4 Se4 2.373127 1_455
Al4 Se17 2.437774 1_555
Al4 Se16 2.443472 1_555
Al5 Se9 2.357435 1_555
Al5 Se0 2.371466 1_555
Al5 Se16 2.436115 1_555
Al5 Se17 2.443294 1_555
Al6 Se10 2.356632 1_555
Al6 Se4 2.369129 1_555
Al6 Se14 2.432028 1_555
Al6 Se18 2.455541 1_555
Al7 Se8 2.355595 1_555
Al7 Se1 2.365991 1_555
Al7 Se15 2.433473 1_555
Al7 Se19 2.446254 1_555
In0 Se8 2.580667 1_555
In0 Se6 2.585959 1_655
In0 Se14 2.634319 1_565
In0 Se3 2.637799 1_555
In1 Se9 2.581173 1_555
In1 Se7 2.589068 1_565
In1 Se15 2.639260 1_556
In1 Se3 2.644338 1_555
In2 Se5 2.580844 1_556
In2 Se10 2.585153 1_555
In2 Se16 2.637393 1_655
In2 Se3 2.646167 1_555
In3 Se5 2.586361 1_455
In3 Se11 2.587050 1_555
In3 Se17 2.642444 1_554
In3 Se2 2.651070 1_555
