# generated using pymatgen
data_Na3Lu(BO3)2
_symmetry_space_group_name_H-M   'P 1'
_cell_length_a   9.21303794
_cell_length_b   5.10863795
_cell_length_c   6.96325364
_cell_angle_alpha   57.16662905
_cell_angle_beta   90.00000000
_cell_angle_gamma   90.00000000
_symmetry_Int_Tables_number   1
_chemical_formula_structural   Na3Lu(BO3)2
_chemical_formula_sum   'Na6 Lu2 B4 O12'
_cell_volume   275.37798151
_cell_formula_units_Z   2
loop_
 _symmetry_equiv_pos_site_id
 _symmetry_equiv_pos_as_xyz
  1  'x, y, z'
loop_
 _atom_site_type_symbol
 _atom_site_label
 _atom_site_symmetry_multiplicity
 _atom_site_fract_x
 _atom_site_fract_y
 _atom_site_fract_z
 _atom_site_occupancy
  Na  Na0  1  0.50000000  0.00000000  0.00000000  1
  Na  Na1  1  0.00000000  0.00000000  0.50000000  1
  Na  Na2  1  0.83261434  0.26152916  0.72907607  1
  Na  Na3  1  0.33261434  0.73847084  0.77092393  1
  Na  Na4  1  0.16738566  0.73847084  0.27092393  1
  Na  Na5  1  0.66738566  0.26152916  0.22907607  1
  Lu  Lu0  1  0.50000000  0.50000000  0.50000000  1
  Lu  Lu1  1  0.00000000  0.50000000  0.00000000  1
  B  B0  1  0.67048416  0.77108155  0.73998393  1
  B  B1  1  0.17048416  0.22891845  0.76001607  1
  B  B2  1  0.32951584  0.22891845  0.26001607  1
  B  B3  1  0.82951584  0.77108155  0.23998393  1
  O  O0  1  0.58747674  0.51772670  0.78737555  1
  O  O1  1  0.08747674  0.48227330  0.71262445  1
  O  O2  1  0.41252326  0.48227330  0.21262445  1
  O  O3  1  0.91252326  0.51772670  0.28737555  1
  O  O4  1  0.60807237  0.05797819  0.65631728  1
  O  O5  1  0.10807237  0.94202181  0.84368272  1
  O  O6  1  0.39192763  0.94202181  0.34368272  1
  O  O7  1  0.89192763  0.05797819  0.15631728  1
  O  O8  1  0.81822321  0.73936427  0.77802922  1
  O  O9  1  0.31822321  0.26063573  0.72197078  1
  O  O10  1  0.18177679  0.26063573  0.22197078  1
  O  O11  1  0.68177679  0.73936427  0.27802922  1
loop_
_geom_bond_atom_site_label_1
_geom_bond_atom_site_label_2
_geom_bond_distance
_geom_bond_site_symmetry_2
Na0 O11 2.351658 1_545
Na0 O9 2.351658 1_554
Na0 O0 2.364439 1_554
Na0 O2 2.364439 1_545
Na0 O4 2.457156 1_554
Na0 O6 2.457156 1_545
Na1 O10 2.351658 1_555
Na1 O8 2.351658 1_445
Na1 O3 2.364439 1_455
Na1 O1 2.364439 1_545
Na1 O7 2.457156 1_455
Na1 O5 2.457156 1_545
Na2 O4 2.487747 1_555
Na2 O8 2.502712 1_545
Na2 O1 2.580333 1_655
Na2 O7 2.622178 1_556
Na2 O8 2.644807 1_555
Na2 O3 2.711002 1_555
Na2 O0 2.748567 1_555
Na2 O5 2.886005 1_645
Na3 O5 2.487747 1_555
Na3 O9 2.502712 1_565
Na3 O0 2.580333 1_555
Na3 O6 2.622178 1_555
Na3 O9 2.644807 1_555
Na3 O2 2.711002 1_556
Na3 O1 2.748567 1_555
Na3 O4 2.886005 1_565
Na4 O6 2.487747 1_555
Na4 O10 2.502712 1_565
Na4 O3 2.580333 1_455
Na4 O5 2.622178 1_554
Na4 O10 2.644807 1_555
Na4 O1 2.711002 1_555
Na4 O2 2.748567 1_555
Na4 O7 2.886005 1_465
Na5 O7 2.487747 1_555
Na5 O11 2.502712 1_545
Na5 O2 2.580333 1_555
Na5 O4 2.622178 1_555
Na5 O11 2.644807 1_555
Na5 O0 2.711002 1_554
Na5 O3 2.748567 1_555
Na5 O6 2.886005 1_545
Lu0 O4 2.147077 1_555
Lu0 O6 2.147077 1_555
Lu0 O11 2.153931 1_555
Lu0 O9 2.153931 1_555
Lu0 O0 2.204201 1_555
Lu0 O2 2.204201 1_555
Lu1 O7 2.147077 1_455
Lu1 O5 2.147077 1_554
Lu1 O10 2.153931 1_555
Lu1 O8 2.153931 1_454
Lu1 O3 2.204201 1_455
Lu1 O1 2.204201 1_554
B0 O4 1.375585 1_565
B0 O8 1.379330 1_555
B0 O0 1.380502 1_555
B1 O5 1.375585 1_545
B1 O9 1.379330 1_555
B1 O1 1.380502 1_555
B2 O6 1.375585 1_545
B2 O10 1.379330 1_555
B2 O2 1.380502 1_555
B3 O7 1.375585 1_565
B3 O11 1.379330 1_555
B3 O3 1.380502 1_555
