# generated using pymatgen
data_YB2IrRu
_symmetry_space_group_name_H-M   'P 1'
_cell_length_a   6.76637917
_cell_length_b   5.95707969
_cell_length_c   5.52513110
_cell_angle_alpha   72.10226332
_cell_angle_beta   56.90733136
_cell_angle_gamma   50.99039682
_symmetry_Int_Tables_number   1
_chemical_formula_structural   YB2IrRu
_chemical_formula_sum   'Y2 B4 Ir2 Ru2'
_cell_volume   144.75448640
_cell_formula_units_Z   2
loop_
 _symmetry_equiv_pos_site_id
 _symmetry_equiv_pos_as_xyz
  1  'x, y, z'
loop_
 _atom_site_type_symbol
 _atom_site_label
 _atom_site_symmetry_multiplicity
 _atom_site_fract_x
 _atom_site_fract_y
 _atom_site_fract_z
 _atom_site_occupancy
  Y  Y0  1  0.74517804  0.74517804  0.75482196  1
  Y  Y1  1  0.49517804  0.49517804  0.50482196  1
  B  B0  1  0.06728336  0.43549236  0.06276969  1
  B  B1  1  0.81554540  0.18723031  0.81450764  1
  B  B2  1  0.43549236  0.06728336  0.43445460  1
  B  B3  1  0.18723031  0.81554540  0.18271664  1
  Ir  Ir0  1  0.86571612  0.86571612  0.13428388  1
  Ir  Ir1  1  0.11571612  0.11571612  0.38428388  1
  Ru  Ru0  1  0.38633012  0.38633012  0.11366988  1
  Ru  Ru1  1  0.13633012  0.13633012  0.86366988  1
loop_
_geom_bond_atom_site_label_1
_geom_bond_atom_site_label_2
_geom_bond_distance
_geom_bond_site_symmetry_2
B0 Ru1 2.049381 1_554
B0 Ir0 2.053811 1_455
B0 Ru0 2.154453 1_555
B0 Ir1 2.159097 1_555
B0 Y0 2.847256 1_454
B0 Y1 2.981308 1_554
B0 Y1 3.090886 1_455
B1 Ru0 2.049380 1_556
B1 Ir1 2.053810 1_655
B1 Ru1 2.154453 1_655
B1 Ir0 2.159097 1_546
B1 Y1 2.847256 1_555
B1 Y0 2.981309 1_555
B1 Y0 3.090886 1_545
B2 Ru1 2.049380 1_555
B2 Ir0 2.053810 1_545
B2 Ru0 2.154453 1_555
B2 Ir1 2.159097 1_555
B2 Y0 2.847256 1_545
B2 Y1 2.981309 1_555
B2 Y1 3.090886 1_545
B3 Ru0 2.049381 1_555
B3 Ir1 2.053811 1_565
B3 Ru1 2.154453 1_564
B3 Ir0 2.159097 1_455
B3 Y1 2.847256 1_555
B3 Y0 2.981308 1_554
B3 Y0 3.090886 1_455
Ir0 Y0 3.017668 1_555
Ir0 Y0 3.017668 1_554
Ir1 Y1 3.017668 1_455
Ir1 Y1 3.017668 1_545
Ru0 Y1 2.972234 1_554
Ru0 Y1 2.972234 1_555
Ru1 Y0 2.972234 1_545
Ru1 Y0 2.972234 1_455
