# generated using pymatgen
data_Cs4HfZrTe6
_symmetry_space_group_name_H-M   'P 1'
_cell_length_a   8.64470184
_cell_length_b   8.64470018
_cell_length_c   7.71916104
_cell_angle_alpha   90.00000000
_cell_angle_beta   90.00000000
_cell_angle_gamma   72.78839321
_symmetry_Int_Tables_number   1
_chemical_formula_structural   Cs4HfZrTe6
_chemical_formula_sum   'Cs4 Hf1 Zr1 Te6'
_cell_volume   551.02683963
_cell_formula_units_Z   1
loop_
 _symmetry_equiv_pos_site_id
 _symmetry_equiv_pos_as_xyz
  1  'x, y, z'
loop_
 _atom_site_type_symbol
 _atom_site_label
 _atom_site_symmetry_multiplicity
 _atom_site_fract_x
 _atom_site_fract_y
 _atom_site_fract_z
 _atom_site_occupancy
  Cs  Cs0  1  0.01442334  0.67910488  0.25000000  1
  Cs  Cs1  1  0.32089512  0.98557666  0.25000000  1
  Cs  Cs2  1  0.68006664  0.01506831  0.75000000  1
  Cs  Cs3  1  0.98493169  0.31993336  0.75000000  1
  Hf  Hf0  1  0.41900229  0.58099771  0.75000000  1
  Zr  Zr0  1  0.58213367  0.41786633  0.25000000  1
  Te  Te0  1  0.35895112  0.36125168  0.99865672  1
  Te  Te1  1  0.63874732  0.64104788  0.99865672  1
  Te  Te2  1  0.84561077  0.15438923  0.25000000  1
  Te  Te3  1  0.35895112  0.36125168  0.50134328  1
  Te  Te4  1  0.63874732  0.64104788  0.50134328  1
  Te  Te5  1  0.15753760  0.84246240  0.75000000  1
loop_
_geom_bond_atom_site_label_1
_geom_bond_atom_site_label_2
_geom_bond_distance
_geom_bond_site_symmetry_2
Cs0 Te1 3.879653 1_454
Cs0 Te4 3.879653 1_455
Cs0 Te0 3.916846 1_554
Cs0 Te3 3.916846 1_555
Cs0 Te2 3.932248 1_465
Cs0 Te5 4.410801 1_555
Cs0 Te5 4.410801 1_554
Cs1 Te3 3.879642 1_565
Cs1 Te0 3.879642 1_564
Cs1 Te1 3.916846 1_554
Cs1 Te4 3.916846 1_555
Cs1 Te2 3.932248 1_465
Cs1 Te5 4.410801 1_554
Cs1 Te5 4.410801 1_555
Cs2 Te4 3.866450 1_545
Cs2 Te1 3.866450 1_545
Cs2 Te0 3.928060 1_555
Cs2 Te3 3.928060 1_555
Cs2 Te5 3.952040 1_645
Cs2 Te2 4.406236 1_555
Cs2 Te2 4.406236 1_556
Cs3 Te3 3.866440 1_655
Cs3 Te0 3.866440 1_655
Cs3 Te4 3.928061 1_555
Cs3 Te1 3.928061 1_555
Cs3 Te5 3.952040 1_645
Cs3 Te2 4.406236 1_555
Cs3 Te2 4.406236 1_556
Hf0 Te5 2.682222 1_555
Hf0 Te4 2.854093 1_555
Hf0 Te1 2.854093 1_555
Hf0 Te3 2.854102 1_555
Hf0 Te0 2.854102 1_555
Te0 Zr0 2.878357 1_556
Te1 Zr0 2.878347 1_556
Te2 Zr0 2.702866 1_555
Te3 Zr0 2.878357 1_555
Te4 Zr0 2.878347 1_555
