# generated using pymatgen
data_Ta2Nb8Si5Ge
_symmetry_space_group_name_H-M   'P 1'
_cell_length_a   7.57335421
_cell_length_b   7.57335431
_cell_length_c   7.57335464
_cell_angle_alpha   128.28421753
_cell_angle_beta   128.28420963
_cell_angle_gamma   76.16506025
_symmetry_Int_Tables_number   1
_chemical_formula_structural   Ta2Nb8Si5Ge
_chemical_formula_sum   'Ta2 Nb8 Si5 Ge1'
_cell_volume   260.14800601
_cell_formula_units_Z   1
loop_
 _symmetry_equiv_pos_site_id
 _symmetry_equiv_pos_as_xyz
  1  'x, y, z'
loop_
 _atom_site_type_symbol
 _atom_site_label
 _atom_site_symmetry_multiplicity
 _atom_site_fract_x
 _atom_site_fract_y
 _atom_site_fract_z
 _atom_site_occupancy
  Ta  Ta0  1  0.50059996  0.50059996  0.00000000  1
  Ta  Ta1  1  0.99940004  0.99940004  0.00000000  1
  Nb  Nb0  1  0.01607071  0.18411076  0.49572758  1
  Nb  Nb1  1  0.52034313  0.01607071  0.83195995  1
  Nb  Nb2  1  0.18411076  0.68838318  0.16804005  1
  Nb  Nb3  1  0.48392929  0.97965687  0.16804005  1
  Nb  Nb4  1  0.68838318  0.52034313  0.50427242  1
  Nb  Nb5  1  0.97965687  0.81161682  0.49572758  1
  Nb  Nb6  1  0.31588924  0.48392929  0.50427242  1
  Nb  Nb7  1  0.81161682  0.31588924  0.83195995  1
  Si  Si0  1  0.12885697  0.62885697  0.75771594  1
  Si  Si1  1  0.62885697  0.87114303  0.50000000  1
  Si  Si2  1  0.37114303  0.12885697  0.50000000  1
  Si  Si3  1  0.87114303  0.37114303  0.24228406  1
  Si  Si4  1  0.75000000  0.75000000  0.00000000  1
  Ge  Ge0  1  0.25000000  0.25000000  0.00000000  1
loop_
_geom_bond_atom_site_label_1
_geom_bond_atom_site_label_2
_geom_bond_distance
_geom_bond_site_symmetry_2
Nb0 Si2 2.603488 1_555
Nb0 Si3 2.628707 1_455
Nb0 Si0 2.646908 1_555
Nb0 Si4 2.731998 1_445
Nb0 Ta1 3.009512 1_445
Nb0 Ta0 3.048610 1_556
Nb1 Si3 2.603490 1_556
Nb1 Si1 2.628695 1_545
Nb1 Si2 2.646912 1_555
Nb1 Si4 2.731998 1_546
Nb1 Ta1 3.009512 1_546
Nb1 Ta0 3.048609 1_556
Nb2 Si0 2.603473 1_554
Nb2 Si2 2.628695 1_565
Nb2 Si1 2.646912 1_555
Nb2 Si4 2.731998 1_455
Nb2 Ta1 3.009512 1_455
Nb2 Ta0 3.048609 1_555
Nb3 Si0 2.603490 1_554
Nb3 Si1 2.628695 1_555
Nb3 Si2 2.646911 1_565
Nb3 Si4 2.731998 1_555
Nb3 Ta0 3.009512 1_555
Nb3 Ta1 3.048610 1_455
Nb4 Si1 2.603488 1_555
Nb4 Si0 2.628691 1_655
Nb4 Si3 2.646924 1_555
Nb4 Si4 2.731998 1_556
Nb4 Ta1 3.009512 1_556
Nb4 Ta0 3.048610 1_555
Nb5 Si1 2.603488 1_555
Nb5 Si3 2.628691 1_555
Nb5 Si0 2.646924 1_655
Nb5 Si4 2.731998 1_555
Nb5 Ta0 3.009512 1_555
Nb5 Ta1 3.048610 1_556
Nb6 Si2 2.603488 1_555
Nb6 Si0 2.628707 1_555
Nb6 Si3 2.646908 1_455
Nb6 Si4 2.731998 1_556
Nb6 Ta0 3.009512 1_556
Nb6 Ta1 3.048610 1_445
Nb7 Si3 2.603473 1_556
Nb7 Si2 2.628695 1_555
Nb7 Si1 2.646911 1_545
Nb7 Si4 2.731998 1_556
Nb7 Ta0 3.009512 1_556
Nb7 Ta1 3.048610 1_546
Si0 Si3 2.407693 1_455
Si0 Ta1 2.595379 1_456
Si0 Ta0 2.595379 1_556
Si1 Si2 2.407674 1_565
Si1 Ta0 2.595383 1_555
Si1 Ta1 2.595384 1_556
Si2 Ta0 2.595383 1_556
Si2 Ta1 2.595384 1_445
Si3 Ta1 2.595379 1_545
Si3 Ta0 2.595379 1_555
Si4 Ta1 2.973428 1_555
Si4 Ta0 2.973428 1_555
Ge0 Nb1 2.765911 1_554
Ge0 Nb2 2.765911 1_555
Ge0 Nb7 2.765911 1_454
Ge0 Nb3 2.765911 1_545
Ge0 Nb6 2.765911 1_555
Ge0 Nb5 2.765911 1_444
Ge0 Nb4 2.765911 1_555
Ge0 Nb0 2.765911 1_554
Ge0 Ta0 2.987734 1_555
Ge0 Ta1 2.987734 1_445
