# generated using pymatgen
data_ZrSc(AsRu)2
_symmetry_space_group_name_H-M   'P 1'
_cell_length_a   7.67091049
_cell_length_b   7.66727242
_cell_length_c   7.67091030
_cell_angle_alpha   128.27287611
_cell_angle_beta   120.45675082
_cell_angle_gamma   82.75795035
_symmetry_Int_Tables_number   1
_chemical_formula_structural   ZrSc(AsRu)2
_chemical_formula_sum   'Zr3 Sc3 As6 Ru6'
_cell_volume   293.31461838
_cell_formula_units_Z   3
loop_
 _symmetry_equiv_pos_site_id
 _symmetry_equiv_pos_as_xyz
  1  'x, y, z'
loop_
 _atom_site_type_symbol
 _atom_site_label
 _atom_site_symmetry_multiplicity
 _atom_site_fract_x
 _atom_site_fract_y
 _atom_site_fract_z
 _atom_site_occupancy
  Zr  Zr0  1  0.24895477  0.83299539  0.08403962  1
  Zr  Zr1  1  0.05188749  0.25795476  0.70606727  1
  Zr  Zr2  1  0.94975441  0.65278544  0.20303103  1
  Sc  Sc0  1  0.47044403  0.70104259  0.73059756  1
  Sc  Sc1  1  0.52940319  0.25738394  0.22798074  1
  Sc  Sc2  1  0.75027114  0.83452104  0.58424990  1
  As  As0  1  0.27718622  0.27560868  0.49842446  1
  As  As1  1  0.72385699  0.22297747  0.99912048  1
  As  As2  1  0.33441052  0.58644864  0.25427581  1
  As  As3  1  0.66926079  0.91981433  0.25672760  1
  As  As4  1  0.16308673  0.91981433  0.75055354  1
  As  As5  1  0.83217283  0.58644864  0.75203912  1
  Ru  Ru0  1  0.49661138  0.49435292  0.99139345  1
  Ru  Ru1  1  0.00296147  0.49435292  0.49774154  1
  Ru  Ru2  1  0.09240884  0.25205300  0.10184154  1
  Ru  Ru3  1  0.90739518  0.00949546  0.15977290  1
  Ru  Ru4  1  0.34972156  0.00949546  0.60209828  1
  Ru  Ru5  1  0.65021146  0.25205300  0.65964416  1
loop_
_geom_bond_atom_site_label_1
_geom_bond_atom_site_label_2
_geom_bond_distance
_geom_bond_site_symmetry_2
As0 Ru5 2.511734 1_555
As0 Ru2 2.511747 1_555
As0 Ru1 2.519541 1_555
As0 Ru0 2.519541 1_555
As0 Ru4 2.525958 1_555
As0 Ru3 2.525979 1_455
As0 Sc0 2.712100 1_555
As0 Zr0 2.791364 1_545
As0 Zr1 2.942610 1_555
As1 Ru3 2.517736 1_556
As1 Ru4 2.517744 1_555
As1 Ru5 2.519160 1_555
As1 Ru2 2.519160 1_656
As1 Ru0 2.550513 1_555
As1 Ru1 2.550516 1_656
As1 Sc1 2.712636 1_556
As1 Sc2 2.792703 1_545
As1 Zr2 2.935242 1_556
As2 Ru0 2.582884 1_554
As2 Ru2 2.583110 1_555
As2 Ru4 2.590543 1_565
As2 Sc1 2.714337 1_555
As2 Sc2 2.753315 1_555
As2 Zr0 2.754306 1_555
As2 Sc0 2.756836 1_555
As2 Zr1 2.782188 1_554
As2 Zr2 2.795187 1_455
As3 Ru0 2.582526 1_554
As3 Ru5 2.583332 1_565
As3 Ru3 2.586562 1_565
As3 Sc0 2.728842 1_554
As3 Sc2 2.734253 1_555
As3 Sc1 2.768701 1_565
As3 Zr0 2.777023 1_555
As3 Zr2 2.781025 1_555
As3 Zr1 2.794470 1_665
As4 Ru1 2.582522 1_555
As4 Ru2 2.583332 1_566
As4 Ru4 2.586570 1_565
As4 Sc0 2.728837 1_555
As4 Sc2 2.734253 1_455
As4 Sc1 2.768702 1_566
As4 Zr0 2.777018 1_556
As4 Zr2 2.781025 1_455
As4 Zr1 2.794470 1_565
As5 Ru1 2.582903 1_655
As5 Ru5 2.583105 1_555
As5 Ru3 2.590541 1_566
As5 Sc1 2.714341 1_555
As5 Sc2 2.753321 1_555
As5 Zr0 2.754302 1_656
As5 Sc0 2.756839 1_555
As5 Zr1 2.782187 1_655
As5 Zr2 2.795179 1_556
Ru0 Ru4 2.810622 1_555
Ru0 Ru5 2.819013 1_555
Ru0 Zr0 2.948712 1_556
Ru0 Zr1 2.964551 1_555
Ru0 Sc2 2.980831 1_556
Ru0 Zr2 3.015719 1_556
Ru0 Sc0 3.161338 1_555
Ru0 Sc1 3.188244 1_556
Ru1 Ru3 2.810621 1_455
Ru1 Ru2 2.819002 1_555
Ru1 Zr0 2.948708 1_556
Ru1 Zr1 2.964555 1_555
Ru1 Sc2 2.980841 1_455
Ru1 Zr2 3.015715 1_455
Ru1 Sc0 3.161320 1_555
Ru1 Sc1 3.188257 1_455
Ru2 Zr2 2.880850 1_455
Ru2 Zr1 2.919865 1_554
Ru2 Sc2 2.951105 1_444
Ru2 Sc1 2.978611 1_555
Ru3 Zr1 2.890075 1_655
Ru3 Zr2 2.913211 1_545
Ru3 Zr0 2.951074 1_645
Ru3 Sc0 2.971985 1_544
Ru4 Zr1 2.890072 1_555
Ru4 Zr2 2.913207 1_445
Ru4 Zr0 2.951067 1_545
Ru4 Sc0 2.971990 1_545
Ru5 Zr2 2.880850 1_556
Ru5 Zr1 2.919865 1_655
Ru5 Sc2 2.951105 1_545
Ru5 Sc1 2.978611 1_555
