# generated using pymatgen
data_CaRh4Pb3O14
_symmetry_space_group_name_H-M   'P 1'
_cell_length_a   7.17451921
_cell_length_b   7.17451910
_cell_length_c   7.17595208
_cell_angle_alpha   60.00660999
_cell_angle_beta   60.00660812
_cell_angle_gamma   59.99999899
_symmetry_Int_Tables_number   1
_chemical_formula_structural   CaRh4Pb3O14
_chemical_formula_sum   'Ca1 Rh4 Pb3 O14'
_cell_volume   261.21222873
_cell_formula_units_Z   1
loop_
 _symmetry_equiv_pos_site_id
 _symmetry_equiv_pos_as_xyz
  1  'x, y, z'
loop_
 _atom_site_type_symbol
 _atom_site_label
 _atom_site_symmetry_multiplicity
 _atom_site_fract_x
 _atom_site_fract_y
 _atom_site_fract_z
 _atom_site_occupancy
  Ca  Ca0  1  0.12500000  0.12500000  0.62500000  1
  Rh  Rh0  1  0.12500000  0.62500000  0.62500000  1
  Rh  Rh1  1  0.62500000  0.12500000  0.62500000  1
  Rh  Rh2  1  0.62500000  0.62500000  0.12500000  1
  Rh  Rh3  1  0.62500000  0.62500000  0.62500000  1
  Pb  Pb0  1  0.62500000  0.12500000  0.12500000  1
  Pb  Pb1  1  0.12500000  0.62500000  0.12500000  1
  Pb  Pb2  1  0.12500000  0.12500000  0.12500000  1
  O  O0  1  0.70844079  0.70844079  0.29024163  1
  O  O1  1  0.29576225  0.29576225  0.71314242  1
  O  O2  1  0.69533307  0.29576225  0.71314242  1
  O  O3  1  0.29287879  0.70844079  0.29024163  1
  O  O4  1  0.29576225  0.69533307  0.71314242  1
  O  O5  1  0.70844079  0.29287879  0.29024163  1
  O  O6  1  0.54155921  0.54155921  0.95975837  1
  O  O7  1  0.95423775  0.95423775  0.53685758  1
  O  O8  1  0.55466693  0.95423775  0.53685758  1
  O  O9  1  0.95712121  0.54155921  0.95975837  1
  O  O10  1  0.95423775  0.55466693  0.53685758  1
  O  O11  1  0.54155921  0.95712121  0.95975837  1
  O  O12  1  0.25089912  0.25089912  0.24730363  1
  O  O13  1  0.99910088  0.99910088  0.00269637  1
loop_
_geom_bond_atom_site_label_1
_geom_bond_atom_site_label_2
_geom_bond_distance
_geom_bond_site_symmetry_2
Ca0 O13 2.213197 1_446
Ca0 O12 2.213197 1_555
Ca0 O1 2.540167 1_555
Ca0 O7 2.540167 1_445
Ca0 O10 2.540167 1_455
Ca0 O4 2.540167 1_545
Ca0 O8 2.540167 1_545
Ca0 O2 2.540167 1_455
O0 Rh2 1.974995 1_555
O0 Rh3 1.992529 1_555
O0 Pb1 2.464493 1_655
O0 Pb0 2.464493 1_565
O1 Rh1 1.966651 1_555
O1 Rh0 1.966651 1_555
O1 Pb2 2.448963 1_556
O2 Rh1 1.966651 1_555
O2 Rh3 1.966651 1_555
O2 Pb0 2.448963 1_556
O3 Rh2 1.974984 1_555
O3 Rh0 1.992531 1_555
O3 Pb2 2.464494 1_565
O3 Pb1 2.464505 1_555
O4 Rh0 1.966651 1_555
O4 Rh3 1.966651 1_555
O4 Pb1 2.448963 1_556
O5 Rh2 1.974984 1_555
O5 Rh1 1.992531 1_555
O5 Pb2 2.464494 1_655
O5 Pb0 2.464505 1_555
O6 Rh2 1.974995 1_556
O6 Rh3 1.992529 1_555
O6 Pb1 2.464493 1_556
O6 Pb0 2.464493 1_556
O7 Rh1 1.966651 1_565
O7 Rh0 1.966651 1_655
O7 Pb2 2.448963 1_665
O8 Rh1 1.966651 1_565
O8 Rh3 1.966651 1_555
O8 Pb0 2.448963 1_565
O9 Rh2 1.974984 1_556
O9 Rh0 1.992531 1_655
O9 Pb2 2.464494 1_656
O9 Pb1 2.464505 1_656
O10 Rh0 1.966651 1_655
O10 Rh3 1.966651 1_555
O10 Pb1 2.448963 1_655
O11 Rh2 1.974984 1_556
O11 Rh1 1.992531 1_565
O11 Pb2 2.464494 1_566
O11 Pb0 2.464505 1_566
O12 Pb0 2.191593 1_555
O12 Pb1 2.191593 1_555
O12 Pb2 2.191598 1_555
O13 Pb0 2.191593 1_565
O13 Pb1 2.191593 1_655
O13 Pb2 2.191598 1_665
