# generated using pymatgen
data_Ti8Al15Ru3Rh4
_symmetry_space_group_name_H-M   'P 1'
_cell_length_a   8.59697446
_cell_length_b   8.60282503
_cell_length_c   8.59697350
_cell_angle_alpha   120.09665730
_cell_angle_beta   119.87128828
_cell_angle_gamma   90.00832069
_symmetry_Int_Tables_number   1
_chemical_formula_structural   Ti8Al15Ru3Rh4
_chemical_formula_sum   'Ti8 Al15 Ru3 Rh4'
_cell_volume   449.77408884
_cell_formula_units_Z   1
loop_
 _symmetry_equiv_pos_site_id
 _symmetry_equiv_pos_as_xyz
  1  'x, y, z'
loop_
 _atom_site_type_symbol
 _atom_site_label
 _atom_site_symmetry_multiplicity
 _atom_site_fract_x
 _atom_site_fract_y
 _atom_site_fract_z
 _atom_site_occupancy
  Ti  Ti0  1  0.78628869  0.28874382  0.07116160  1
  Ti  Ti1  1  0.21758222  0.28874382  0.50245613  1
  Ti  Ti2  1  0.20872396  0.71333728  0.50461333  1
  Ti  Ti3  1  0.22123252  0.72161278  0.92905289  1
  Ti  Ti4  1  0.79255989  0.72161278  0.50038026  1
  Ti  Ti5  1  0.77957093  0.27324290  0.49367197  1
  Ti  Ti6  1  0.37712155  0.12216391  0.74504236  1
  Ti  Ti7  1  0.38044630  0.63567943  0.25523313  1
  Al  Al0  1  0.99492483  0.49473588  0.49981205  1
  Al  Al1  1  0.15226963  0.34488555  0.19261392  1
  Al  Al2  1  0.15521858  0.96862330  0.81340572  1
  Al  Al3  1  0.14978238  0.34811627  0.80387306  1
  Al  Al4  1  0.54424221  0.34811627  0.19833389  1
  Al  Al5  1  0.84733143  0.64867901  0.80134759  1
  Al  Al6  1  0.84653920  0.03793196  0.19139276  1
  Al  Al7  1  0.84350481  0.65450302  0.18747582  1
  Al  Al8  1  0.46702720  0.65450302  0.81099921  1
  Al  Al9  1  0.37931934  0.12238934  0.25845640  1
  Al  Al10  1  0.86393394  0.12238934  0.74307100  1
  Al  Al11  1  0.62129319  0.87500881  0.25371562  1
  Al  Al12  1  0.62100831  0.36521466  0.74420535  1
  Al  Al13  1  0.62047605  0.87798272  0.74344261  1
  Al  Al14  1  0.13453912  0.87798272  0.25750667  1
  Ru  Ru0  1  0.00117142  0.00035997  0.50200840  1
  Ru  Ru1  1  0.49835057  0.00035997  0.99918754  1
  Ru  Ru2  1  0.49719119  0.49707108  0.99987989  1
  Rh  Rh0  1  0.49811911  0.49966089  0.49823420  1
  Rh  Rh1  1  0.00142469  0.49966089  0.00154177  1
  Rh  Rh2  1  0.99932313  0.99796088  0.99863775  1
  Rh  Rh3  1  0.49948061  0.99872473  0.49924413  1
loop_
_geom_bond_atom_site_label_1
_geom_bond_atom_site_label_2
_geom_bond_distance
_geom_bond_site_symmetry_2
Ti0 Ti6 2.903945 1_554
Ti1 Ti6 2.903939 1_555
Ti2 Ti6 2.909446 1_565
Ti2 Ti7 2.989760 1_555
Ti3 Ti7 2.922234 1_556
Ti4 Ti7 2.922234 1_555
Al0 Ti2 2.600429 1_655
Al0 Ti1 2.608262 1_655
Al0 Ti0 2.608268 1_555
Al0 Ti3 2.614571 1_655
Al0 Ti4 2.614577 1_555
Al0 Ti5 2.619540 1_555
Al1 Rh1 2.495009 1_555
Al1 Rh0 2.495020 1_555
Al1 Rh2 2.498076 1_444
Al1 Ti0 2.728421 1_455
Al1 Ti1 2.728441 1_555
Al1 Ti2 2.766438 1_555
Al2 Rh2 2.473600 1_455
Al2 Ru1 2.489311 1_565
Al2 Ru0 2.489326 1_565
Al2 Ti3 2.717222 1_555
Al2 Ti4 2.717228 1_455
Al2 Ti2 2.729760 1_555
Al3 Rh1 2.480260 1_556
Al3 Ru2 2.494360 1_555
Al3 Ru0 2.495379 1_555
Al3 Ti5 2.734655 1_455
Al3 Ti1 2.737244 1_555
Al3 Ti3 2.780759 1_555
Al4 Rh0 2.480239 1_555
Al4 Ru2 2.494362 1_554
Al4 Ru1 2.495379 1_554
Al4 Ti5 2.734658 1_555
Al4 Ti0 2.737261 1_555
Al4 Ti4 2.780761 1_555
Al5 Rh2 2.508572 1_555
Al5 Rh1 2.510513 1_656
Al5 Rh0 2.510516 1_555
Al5 Ti5 2.768396 1_555
Al5 Ti4 2.779343 1_555
Al5 Ti3 2.779343 1_655
Al6 Rh2 2.487214 1_544
Al6 Ru0 2.516385 1_655
Al6 Ru1 2.516393 1_554
Al6 Ti5 2.719785 1_555
Al6 Ti1 2.774180 1_655
Al6 Ti0 2.774180 1_555
Al7 Rh1 2.489862 1_655
Al7 Ru0 2.506134 1_665
Al7 Ru2 2.514876 1_554
Al7 Ti4 2.716149 1_555
Al7 Ti0 2.738013 1_555
Al7 Ti2 2.763384 1_655
Al8 Rh0 2.489884 1_555
Al8 Ru1 2.506136 1_565
Al8 Ru2 2.514868 1_555
Al8 Ti3 2.716144 1_555
Al8 Ti1 2.738013 1_555
Al8 Ti2 2.763390 1_555
Al9 Rh3 2.561827 1_545
Al9 Rh0 2.649200 1_555
Al9 Ru1 2.653848 1_554
Al9 Rh2 2.672008 1_444
Al9 Ti5 2.837107 1_555
Al9 Ti3 2.850721 1_544
Al9 Ti1 2.876938 1_555
Al10 Rh3 2.561834 1_545
Al10 Rh1 2.649199 1_656
Al10 Ru0 2.653847 1_655
Al10 Rh2 2.672001 1_545
Al10 Ti5 2.837114 1_555
Al10 Ti4 2.850720 1_545
Al10 Ti0 2.876930 1_556
Al11 Rh3 2.575654 1_555
Al11 Ru2 2.652456 1_554
Al11 Ru0 2.670430 1_665
Al11 Ru1 2.670437 1_564
Al11 Ti5 2.821117 1_565
Al11 Ti3 2.846604 1_554
Al11 Ti4 2.846605 1_555
Al12 Rh3 2.572016 1_545
Al12 Ru2 2.661100 1_555
Al12 Rh1 2.674582 1_656
Al12 Rh0 2.674589 1_555
Al12 Ti1 2.868615 1_555
Al12 Ti0 2.868622 1_556
Al12 Ti5 2.887728 1_555
Al13 Rh3 2.565227 1_555
Al13 Ru1 2.650076 1_565
Al13 Rh0 2.655604 1_555
Al13 Rh2 2.663941 1_555
Al13 Ti0 2.910308 1_566
Al13 Ti2 2.931620 1_555
Al13 Ti4 2.936901 1_555
Al14 Rh3 2.565234 1_555
Al14 Ru0 2.650069 1_565
Al14 Rh1 2.655605 1_555
Al14 Rh2 2.663940 1_454
Al14 Ti1 2.910307 1_565
Al14 Ti2 2.931619 1_555
Al14 Ti3 2.936908 1_554
Ru0 Ti6 2.643133 1_555
Ru0 Ti4 2.984482 1_445
Ru0 Ti5 3.029787 1_455
Ru0 Ti2 3.049299 1_545
Ru0 Ti1 3.098110 1_555
Ru1 Ti6 2.643126 1_555
Ru1 Ti3 2.984481 1_545
Ru1 Ti5 3.029792 1_556
Ru1 Ti2 3.049292 1_545
Ru1 Ti0 3.098117 1_556
Ru2 Ti7 2.611150 1_556
Ru2 Ti6 2.631977 1_555
Ru2 Ti1 3.057805 1_555
Ru2 Ti0 3.057812 1_556
Ru2 Ti4 3.077752 1_556
Ru2 Ti3 3.077753 1_555
Rh0 Ti7 2.665280 1_555
Rh0 Ti1 3.043397 1_555
Rh0 Ti2 3.099670 1_555
Rh0 Ti5 3.109583 1_555
Rh0 Ti4 3.157598 1_555
Rh1 Ti7 2.665294 1_555
Rh1 Ti0 3.043379 1_455
Rh1 Ti2 3.099667 1_555
Rh1 Ti5 3.109584 1_454
Rh1 Ti3 3.157610 1_554
Rh2 Ti4 3.059585 1_555
Rh2 Ti3 3.059586 1_655
Rh2 Ti0 3.094391 1_566
Rh2 Ti1 3.094396 1_666
Rh3 Ti7 2.547962 1_555
Rh3 Ti6 2.581369 1_565
