# generated using pymatgen
data_KRbAs2Pd
_symmetry_space_group_name_H-M   'P 1'
_cell_length_a   7.77113092
_cell_length_b   7.77113086
_cell_length_c   6.14734700
_cell_angle_alpha   90.00000000
_cell_angle_beta   90.00000000
_cell_angle_gamma   128.10184973
_symmetry_Int_Tables_number   1
_chemical_formula_structural   KRbAs2Pd
_chemical_formula_sum   'K2 Rb2 As4 Pd2'
_cell_volume   292.13531195
_cell_formula_units_Z   2
loop_
 _symmetry_equiv_pos_site_id
 _symmetry_equiv_pos_as_xyz
  1  'x, y, z'
loop_
 _atom_site_type_symbol
 _atom_site_label
 _atom_site_symmetry_multiplicity
 _atom_site_fract_x
 _atom_site_fract_y
 _atom_site_fract_z
 _atom_site_occupancy
  K  K0  1  0.79444649  0.20555351  0.25000000  1
  K  K1  1  0.20555351  0.79444649  0.75000000  1
  Rb  Rb0  1  0.40852712  0.59147288  0.25000000  1
  Rb  Rb1  1  0.59147288  0.40852712  0.75000000  1
  As  As0  1  0.93618852  0.70985469  0.25000000  1
  As  As1  1  0.06381148  0.29014531  0.75000000  1
  As  As2  1  0.29014531  0.06381148  0.25000000  1
  As  As3  1  0.70985469  0.93618852  0.75000000  1
  Pd  Pd0  1  0.00000000  0.00000000  0.00000000  1
  Pd  Pd1  1  0.00000000  0.00000000  0.50000000  1
loop_
_geom_bond_atom_site_label_1
_geom_bond_atom_site_label_2
_geom_bond_distance
_geom_bond_site_symmetry_2
K0 Pd1 3.257938 1_655
K0 Pd0 3.257938 1_655
K1 Pd0 3.257938 1_566
K1 Pd1 3.257938 1_565
As0 As2 2.407211 1_665
As0 Pd1 2.512334 1_665
As0 Pd0 2.512334 1_665
As0 K0 3.353264 1_555
As0 K1 3.544455 1_654
As0 K1 3.544455 1_655
As0 Rb0 3.606263 1_555
As0 Rb1 3.790175 1_554
As0 Rb1 3.790175 1_555
As1 As3 2.407211 1_445
As1 Pd0 2.512334 1_556
As1 Pd1 2.512334 1_555
As1 K1 3.353264 1_555
As1 K0 3.544455 1_455
As1 K0 3.544455 1_456
As1 Rb1 3.606263 1_555
As1 Rb0 3.790175 1_556
As1 Rb0 3.790175 1_555
As2 Pd0 2.512334 1_555
As2 Pd1 2.512334 1_555
As2 K0 3.353264 1_555
As2 K1 3.544455 1_544
As2 K1 3.544455 1_545
As2 Rb0 3.606263 1_555
As2 Rb1 3.790175 1_555
As2 Rb1 3.790175 1_554
As3 Pd0 2.512334 1_666
As3 Pd1 2.512334 1_665
As3 K1 3.353264 1_555
As3 K0 3.544455 1_566
As3 K0 3.544455 1_565
As3 Rb1 3.606263 1_555
As3 Rb0 3.790175 1_555
As3 Rb0 3.790175 1_556
