# generated using pymatgen
data_CaYInS4
_symmetry_space_group_name_H-M   'P 1'
_cell_length_a   13.84236597
_cell_length_b   8.08478051
_cell_length_c   6.57244215
_cell_angle_alpha   90.00001027
_cell_angle_beta   90.00003161
_cell_angle_gamma   90.00002385
_symmetry_Int_Tables_number   1
_chemical_formula_structural   CaYInS4
_chemical_formula_sum   'Ca4 Y4 In4 S16'
_cell_volume   735.53837035
_cell_formula_units_Z   4
loop_
 _symmetry_equiv_pos_site_id
 _symmetry_equiv_pos_as_xyz
  1  'x, y, z'
loop_
 _atom_site_type_symbol
 _atom_site_label
 _atom_site_symmetry_multiplicity
 _atom_site_fract_x
 _atom_site_fract_y
 _atom_site_fract_z
 _atom_site_occupancy
  Ca  Ca0  1  0.73130571  0.75000007  0.00763236  1
  Ca  Ca1  1  0.23130577  0.74999998  0.49236814  1
  Ca  Ca2  1  0.76869453  0.24999967  0.50763235  1
  Ca  Ca3  1  0.26869465  0.24999950  0.99236888  1
  Y  Y0  1  0.00000008  0.99999998  0.00000007  1
  Y  Y1  1  0.00000015  0.50000004  0.00000013  1
  Y  Y2  1  0.50000013  0.00000007  0.50000024  1
  Y  Y3  1  0.50000017  0.49999997  0.50000016  1
  In  In0  1  0.59174971  0.25000000  0.08624208  1
  In  In1  1  0.09174955  0.24999998  0.41375824  1
  In  In2  1  0.90825057  0.74999992  0.58624220  1
  In  In3  1  0.40825044  0.74999984  0.91375829  1
  S  S0  1  0.91277424  0.75000020  0.21691269  1
  S  S1  1  0.16369494  0.01041034  0.23789254  1
  S  S2  1  0.16369513  0.48958969  0.23789254  1
  S  S3  1  0.92919982  0.24999985  0.24090747  1
  S  S4  1  0.42919990  0.25000010  0.25909284  1
  S  S5  1  0.66369517  0.01041026  0.26210757  1
  S  S6  1  0.66369530  0.48958958  0.26210793  1
  S  S7  1  0.41277424  0.75000009  0.28308764  1
  S  S8  1  0.58722602  0.24999986  0.71691277  1
  S  S9  1  0.33630487  0.51041006  0.73789247  1
  S  S10  1  0.33630496  0.98958964  0.73789269  1
  S  S11  1  0.57080034  0.74999987  0.74090768  1
  S  S12  1  0.07080030  0.75000011  0.75909269  1
  S  S13  1  0.83630509  0.51041017  0.76210780  1
  S  S14  1  0.83630518  0.98958941  0.76210796  1
  S  S15  1  0.08722601  0.24999975  0.78308757  1
loop_
_geom_bond_atom_site_label_1
_geom_bond_atom_site_label_2
_geom_bond_distance
_geom_bond_site_symmetry_2
Ca0 S11 2.830088 1_554
Ca0 S5 2.847062 1_565
Ca0 S6 2.847065 1_555
Ca0 S0 2.863889 1_555
Ca0 S14 2.910082 1_554
Ca0 S13 2.910086 1_554
Ca1 S12 2.830090 1_555
Ca1 S2 2.847064 1_555
Ca1 S1 2.847066 1_565
Ca1 S7 2.863890 1_555
Ca1 S10 2.910081 1_555
Ca1 S9 2.910082 1_555
Ca2 S3 2.830090 1_555
Ca2 S13 2.847064 1_555
Ca2 S14 2.847065 1_545
Ca2 S8 2.863890 1_555
Ca2 S5 2.910082 1_555
Ca2 S6 2.910084 1_555
Ca3 S4 2.830084 1_556
Ca3 S10 2.847063 1_545
Ca3 S9 2.847068 1_555
Ca3 S15 2.863894 1_555
Ca3 S1 2.910080 1_556
Ca3 S2 2.910085 1_556
In0 S8 2.428203 1_554
In0 S6 2.465750 1_555
In0 S5 2.465750 1_555
In0 S4 2.520605 1_555
In1 S15 2.428203 1_555
In1 S1 2.465749 1_555
In1 S2 2.465751 1_555
In1 S3 2.520603 1_455
In2 S0 2.428204 1_555
In2 S14 2.465749 1_555
In2 S13 2.465750 1_555
In2 S12 2.520602 1_655
In3 S7 2.428203 1_556
In3 S10 2.465751 1_555
In3 S9 2.465751 1_555
In3 S11 2.520606 1_555
S0 Y0 2.752369 1_655
S0 Y1 2.752371 1_655
S1 Y0 2.754293 1_545
S2 Y1 2.754295 1_555
S3 Y0 2.748219 1_645
S3 Y1 2.748221 1_655
S4 Y3 2.748218 1_555
S4 Y2 2.748220 1_555
S5 Y2 2.754298 1_555
S6 Y3 2.754297 1_555
S7 Y2 2.752369 1_565
S7 Y3 2.752371 1_555
S8 Y2 2.752368 1_555
S8 Y3 2.752371 1_555
S9 Y3 2.754299 1_555
S10 Y2 2.754298 1_565
S11 Y3 2.748218 1_555
S11 Y2 2.748221 1_565
S12 Y0 2.748219 1_556
S12 Y1 2.748220 1_556
S13 Y1 2.754295 1_656
S14 Y0 2.754293 1_656
S15 Y0 2.752369 1_546
S15 Y1 2.752372 1_556
