# generated using pymatgen
data_Lu4Ni5(Ge3Ru)2
_symmetry_space_group_name_H-M   'P 1'
_cell_length_a   6.98040335
_cell_length_b   6.98040348
_cell_length_c   6.98040410
_cell_angle_alpha   108.52930719
_cell_angle_beta   109.94421513
_cell_angle_gamma   109.94422265
_symmetry_Int_Tables_number   1
_chemical_formula_structural   Lu4Ni5(Ge3Ru)2
_chemical_formula_sum   'Lu4 Ni5 Ge6 Ru2'
_cell_volume   261.77723286
_cell_formula_units_Z   1
loop_
 _symmetry_equiv_pos_site_id
 _symmetry_equiv_pos_as_xyz
  1  'x, y, z'
loop_
 _atom_site_type_symbol
 _atom_site_label
 _atom_site_symmetry_multiplicity
 _atom_site_fract_x
 _atom_site_fract_y
 _atom_site_fract_z
 _atom_site_occupancy
  Lu  Lu0  1  0.99825206  0.99912603  0.49912603  1
  Lu  Lu1  1  0.00174794  0.50087397  0.00087397  1
  Lu  Lu2  1  0.50000000  0.99912603  0.00087397  1
  Lu  Lu3  1  0.50000000  0.50087397  0.49912603  1
  Ni  Ni0  1  0.75244075  0.25426224  0.50182149  1
  Ni  Ni1  1  0.75244075  0.49817851  0.25061826  1
  Ni  Ni2  1  0.50000000  0.25000000  0.75000000  1
  Ni  Ni3  1  0.24755925  0.49817851  0.74573776  1
  Ni  Ni4  1  0.24755925  0.74938174  0.50182149  1
  Ge  Ge0  1  0.67771645  0.67499739  0.99728093  1
  Ge  Ge1  1  0.32228355  0.00271907  0.32500261  1
  Ge  Ge2  1  1.00000000  0.32526372  0.32526372  1
  Ge  Ge3  1  0.32228355  0.31956448  0.99728093  1
  Ge  Ge4  1  0.67771645  0.00271907  0.68043552  1
  Ge  Ge5  1  0.00000000  0.67473628  0.67473628  1
  Ru  Ru0  1  0.50000000  0.75000000  0.25000000  1
  Ru  Ru1  1  0.00000000  0.00000000  0.00000000  1
loop_
_geom_bond_atom_site_label_1
_geom_bond_atom_site_label_2
_geom_bond_distance
_geom_bond_site_symmetry_2
Lu0 Ru0 2.823174 1_555
Lu0 Ni2 2.842983 1_665
Lu0 Ni4 2.852411 1_655
Lu0 Ni3 2.852416 1_665
Lu0 Ni0 2.863880 1_565
Lu0 Ni1 2.863880 1_555
Lu1 Ru0 2.823174 1_555
Lu1 Ni2 2.842983 1_454
Lu1 Ni1 2.852411 1_455
Lu1 Ni0 2.852417 1_454
Lu1 Ni3 2.863880 1_554
Lu1 Ni4 2.863880 1_555
Lu2 Ru0 2.823174 1_555
Lu2 Ni2 2.842983 1_564
Lu2 Ni1 2.852416 1_565
Lu2 Ni4 2.852417 1_554
Lu2 Ni3 2.863880 1_554
Lu2 Ni0 2.863880 1_565
Lu3 Ru0 2.823174 1_555
Lu3 Ni2 2.842983 1_555
Lu3 Ni3 2.852416 1_555
Lu3 Ni0 2.852416 1_555
Lu3 Ni1 2.863885 1_555
Lu3 Ni4 2.863885 1_555
Ni0 Ni3 2.805576 1_655
Ni0 Ni1 2.805582 1_555
Ni0 Ni2 2.861251 1_555
Ni0 Ru0 2.882335 1_545
Ni1 Ni4 2.805576 1_655
Ni1 Ni2 2.861246 1_554
Ni1 Ru0 2.882335 1_555
Ni2 Ni4 2.861245 1_545
Ni2 Ni3 2.861251 1_555
Ni3 Ni4 2.805582 1_555
Ni3 Ru0 2.882335 1_556
Ni4 Ru0 2.882335 1_555
Ge0 Ni2 2.468452 1_555
Ge0 Ni1 2.473845 1_556
Ge0 Ni3 2.473851 1_555
Ge0 Ru0 2.504801 1_556
Ge0 Ru1 2.582603 1_666
Ge0 Lu1 2.906925 1_656
Ge0 Lu3 2.906925 1_555
Ge0 Lu2 2.925515 1_556
Ge0 Lu0 2.925516 1_556
Ge1 Ni2 2.468452 1_555
Ge1 Ni4 2.473845 1_545
Ge1 Ni0 2.473851 1_555
Ge1 Ru0 2.504801 1_545
Ge1 Ru1 2.582604 1_555
Ge1 Lu0 2.906925 1_445
Ge1 Lu3 2.906925 1_555
Ge1 Lu1 2.925515 1_545
Ge1 Lu2 2.925515 1_545
Ge2 Ni3 2.433720 1_655
Ge2 Ni1 2.433721 1_555
Ge2 Ni0 2.451047 1_555
Ge2 Ni4 2.451053 1_655
Ge2 Ru1 2.652103 1_655
Ge2 Lu3 2.898798 1_655
Ge2 Lu0 2.898798 1_545
Ge2 Lu2 2.898798 1_545
Ge2 Lu1 2.898798 1_655
Ge3 Ni2 2.468452 1_555
Ge3 Ni1 2.473850 1_556
Ge3 Ni3 2.473851 1_555
Ge3 Ru0 2.504801 1_556
Ge3 Ru1 2.582603 1_556
Ge3 Lu2 2.906925 1_546
Ge3 Lu0 2.906925 1_445
Ge3 Lu1 2.925515 1_556
Ge3 Lu3 2.925516 1_556
Ge4 Ni2 2.468452 1_555
Ge4 Ni4 2.473850 1_545
Ge4 Ni0 2.473851 1_555
Ge4 Ru0 2.504801 1_545
Ge4 Ru1 2.582604 1_656
Ge4 Lu1 2.906925 1_656
Ge4 Lu2 2.906925 1_546
Ge4 Lu0 2.925515 1_545
Ge4 Lu3 2.925515 1_545
Ge5 Ni0 2.433720 1_455
Ge5 Ni4 2.433721 1_555
Ge5 Ni3 2.451047 1_555
Ge5 Ni1 2.451053 1_455
Ge5 Ru1 2.652103 1_566
Ge5 Lu3 2.898798 1_455
Ge5 Lu0 2.898798 1_455
Ge5 Lu2 2.898798 1_556
Ge5 Lu1 2.898798 1_556
