# generated using pymatgen
data_RbPtRh3Se8
_symmetry_space_group_name_H-M   'P 1'
_cell_length_a   3.75481068
_cell_length_b   8.38506762
_cell_length_c   9.43335099
_cell_angle_alpha   82.12016336
_cell_angle_beta   78.52046229
_cell_angle_gamma   77.06187855
_symmetry_Int_Tables_number   1
_chemical_formula_structural   RbPtRh3Se8
_chemical_formula_sum   'Rb1 Pt1 Rh3 Se8'
_cell_volume   282.33770603
_cell_formula_units_Z   1
loop_
 _symmetry_equiv_pos_site_id
 _symmetry_equiv_pos_as_xyz
  1  'x, y, z'
loop_
 _atom_site_type_symbol
 _atom_site_label
 _atom_site_symmetry_multiplicity
 _atom_site_fract_x
 _atom_site_fract_y
 _atom_site_fract_z
 _atom_site_occupancy
  Rb  Rb0  1  0.49717507  0.00082831  0.00482155  1
  Pt  Pt0  1  0.63588245  0.19506200  0.53317310  1
  Rh  Rh0  1  0.83762548  0.50373983  0.82100620  1
  Rh  Rh1  1  0.16362245  0.49557452  0.17717958  1
  Rh  Rh2  1  0.36594764  0.80160640  0.46649732  1
  Se  Se0  1  0.45438520  0.32547347  0.76575612  1
  Se  Se1  1  0.54439926  0.67410884  0.23709065  1
  Se  Se2  1  0.89328451  0.63865831  0.57477167  1
  Se  Se3  1  0.10281449  0.36951991  0.42485112  1
  Se  Se4  1  0.20754299  0.65626567  0.92864834  1
  Se  Se5  1  0.79274675  0.34418069  0.07032781  1
  Se  Se6  1  0.83453574  0.98094621  0.34998231  1
  Se  Se7  1  0.17003597  0.01403784  0.64589023  1
loop_
_geom_bond_atom_site_label_1
_geom_bond_atom_site_label_2
_geom_bond_distance
_geom_bond_site_symmetry_2
Rb0 Se1 3.260172 1_545
Rb0 Se0 3.284358 1_554
Rb0 Se5 3.477633 1_455
Rb0 Se5 3.477637 1_555
Rb0 Se4 3.511933 1_544
Rb0 Se4 3.511933 1_644
Rb0 Se6 3.692202 1_445
Rb0 Se6 3.692203 1_545
Rb0 Se7 3.804904 1_654
Rb0 Se7 3.804905 1_554
Pt0 Se0 2.490578 1_555
Pt0 Se3 2.506678 1_655
Pt0 Se3 2.506678 1_555
Pt0 Se7 2.549567 1_555
Pt0 Se7 2.549567 1_655
Pt0 Se6 2.550303 1_545
Rh0 Se2 2.431280 1_555
Rh0 Se0 2.460090 1_555
Rh0 Se0 2.460098 1_655
Rh0 Se4 2.511756 1_555
Rh0 Se4 2.511764 1_655
Rh0 Se5 2.535829 1_556
Rh1 Se3 2.417972 1_555
Rh1 Se1 2.473199 1_555
Rh1 Se1 2.473202 1_455
Rh1 Se5 2.503581 1_455
Rh1 Se5 2.503589 1_555
Rh1 Se4 2.533523 1_554
Rh2 Se1 2.451841 1_555
Rh2 Se2 2.457959 1_455
Rh2 Se2 2.457959 1_555
Rh2 Se7 2.514368 1_565
Rh2 Se6 2.554792 1_455
Rh2 Se6 2.554794 1_555
Se2 Se3 2.710932 1_655
