# generated using pymatgen
data_NaMgH6Ir
_symmetry_space_group_name_H-M   'P 1'
_cell_length_a   6.87425243
_cell_length_b   6.87425243
_cell_length_c   6.87425243
_cell_angle_alpha   90.00000000
_cell_angle_beta   90.00000000
_cell_angle_gamma   90.00000000
_symmetry_Int_Tables_number   1
_chemical_formula_structural   NaMgH6Ir
_chemical_formula_sum   'Na4 Mg4 H24 Ir4'
_cell_volume   324.84518007
_cell_formula_units_Z   4
loop_
 _symmetry_equiv_pos_site_id
 _symmetry_equiv_pos_as_xyz
  1  'x, y, z'
loop_
 _atom_site_type_symbol
 _atom_site_label
 _atom_site_symmetry_multiplicity
 _atom_site_fract_x
 _atom_site_fract_y
 _atom_site_fract_z
 _atom_site_occupancy
  Na  Na0  1  0.00000000  0.00000000  0.50000000  1
  Na  Na1  1  0.00000000  0.50000000  0.00000000  1
  Na  Na2  1  0.50000000  0.00000000  0.00000000  1
  Na  Na3  1  0.00000000  0.00000000  0.00000000  1
  Mg  Mg0  1  0.50000000  0.50000000  0.50000000  1
  Mg  Mg1  1  0.00000000  0.50000000  0.50000000  1
  Mg  Mg2  1  0.50000000  0.00000000  0.50000000  1
  Mg  Mg3  1  0.50000000  0.50000000  0.00000000  1
  H  H0  1  0.74088250  0.74088250  0.50687745  1
  H  H1  1  0.25911750  0.25911750  0.50687745  1
  H  H2  1  0.02439569  0.73633369  0.73633369  1
  H  H3  1  0.26366631  0.97560431  0.73633369  1
  H  H4  1  0.73633369  0.02439569  0.73633369  1
  H  H5  1  0.97560431  0.26366631  0.73633369  1
  H  H6  1  0.74088250  0.50687745  0.74088250  1
  H  H7  1  0.50687745  0.74088250  0.74088250  1
  H  H8  1  0.49312255  0.25911750  0.74088250  1
  H  H9  1  0.25911750  0.49312255  0.74088250  1
  H  H10  1  0.26366631  0.73633369  0.97560431  1
  H  H11  1  0.73633369  0.26366631  0.97560431  1
  H  H12  1  0.73633369  0.73633369  0.02439569  1
  H  H13  1  0.26366631  0.26366631  0.02439569  1
  H  H14  1  0.25911750  0.50687745  0.25911750  1
  H  H15  1  0.49312255  0.74088250  0.25911750  1
  H  H16  1  0.50687745  0.25911750  0.25911750  1
  H  H17  1  0.74088250  0.49312255  0.25911750  1
  H  H18  1  0.97560431  0.73633369  0.26366631  1
  H  H19  1  0.73633369  0.97560431  0.26366631  1
  H  H20  1  0.26366631  0.02439569  0.26366631  1
  H  H21  1  0.02439569  0.26366631  0.26366631  1
  H  H22  1  0.25911750  0.74088250  0.49312255  1
  H  H23  1  0.74088250  0.25911750  0.49312255  1
  Ir  Ir0  1  0.26710466  0.73289534  0.73289534  1
  Ir  Ir1  1  0.73289534  0.26710466  0.73289534  1
  Ir  Ir2  1  0.73289534  0.73289534  0.26710466  1
  Ir  Ir3  1  0.26710466  0.26710466  0.26710466  1
loop_
_geom_bond_atom_site_label_1
_geom_bond_atom_site_label_2
_geom_bond_distance
_geom_bond_site_symmetry_2
H0 Ir2 1.650087 1_555
H0 Mg0 2.342255 1_555
H0 Mg1 2.432490 1_655
H0 Mg2 2.432490 1_565
H0 Na0 2.519496 1_665
H1 Ir3 1.650087 1_555
H1 Mg0 2.342255 1_555
H1 Mg1 2.432490 1_555
H1 Mg2 2.432490 1_555
H1 Na0 2.519496 1_555
H2 Ir0 1.668778 1_555
H2 Mg1 2.303668 1_555
H2 Na1 2.439814 1_556
H2 Na0 2.439814 1_565
H2 Na3 2.568755 1_566
H3 Ir0 1.668778 1_555
H3 Mg2 2.303668 1_565
H3 Na0 2.439814 1_565
H3 Na2 2.439814 1_566
H3 Na3 2.568755 1_566
H4 Ir1 1.668778 1_555
H4 Mg2 2.303668 1_555
H4 Na0 2.439814 1_655
H4 Na2 2.439814 1_556
H4 Na3 2.568755 1_656
H5 Ir1 1.668778 1_555
H5 Mg1 2.303668 1_655
H5 Na0 2.439814 1_655
H5 Na1 2.439814 1_656
H5 Na3 2.568755 1_656
H6 Ir1 1.650087 1_555
H6 Mg0 2.342255 1_555
H6 Mg1 2.432490 1_655
H6 Mg3 2.432490 1_556
H6 Na1 2.519496 1_656
H7 Ir0 1.650087 1_555
H7 Mg0 2.342255 1_555
H7 Mg3 2.432490 1_556
H7 Mg2 2.432490 1_565
H7 Na2 2.519496 1_566
H8 Ir1 1.650087 1_555
H8 Mg0 2.342255 1_555
H8 Mg2 2.432490 1_555
H8 Mg3 2.432490 1_556
H8 Na2 2.519496 1_556
H9 Ir0 1.650087 1_555
H9 Mg0 2.342255 1_555
H9 Mg1 2.432490 1_555
H9 Mg3 2.432490 1_556
H9 Na1 2.519496 1_556
H10 Ir0 1.668778 1_555
H10 Mg3 2.303668 1_556
H10 Na1 2.439814 1_556
H10 Na2 2.439814 1_566
H10 Na3 2.568755 1_566
H11 Ir1 1.668778 1_555
H11 Mg3 2.303668 1_556
H11 Na2 2.439814 1_556
H11 Na1 2.439814 1_656
H11 Na3 2.568755 1_656
H12 Ir2 1.668778 1_555
H12 Mg3 2.303668 1_555
H12 Na2 2.439814 1_565
H12 Na1 2.439814 1_655
H12 Na3 2.568755 1_665
H13 Ir3 1.668778 1_555
H13 Mg3 2.303668 1_555
H13 Na1 2.439814 1_555
H13 Na2 2.439814 1_555
H13 Na3 2.568755 1_555
H14 Ir3 1.650087 1_555
H14 Mg0 2.342255 1_555
H14 Mg1 2.432490 1_555
H14 Mg3 2.432490 1_555
H14 Na1 2.519496 1_555
H15 Ir2 1.650087 1_555
H15 Mg0 2.342255 1_555
H15 Mg3 2.432490 1_555
H15 Mg2 2.432490 1_565
H15 Na2 2.519496 1_565
H16 Ir3 1.650087 1_555
H16 Mg0 2.342255 1_555
H16 Mg3 2.432490 1_555
H16 Mg2 2.432490 1_555
H16 Na2 2.519496 1_555
H17 Ir2 1.650087 1_555
H17 Mg0 2.342255 1_555
H17 Mg3 2.432490 1_555
H17 Mg1 2.432490 1_655
H17 Na1 2.519496 1_655
H18 Ir2 1.668778 1_555
H18 Mg1 2.303668 1_655
H18 Na1 2.439814 1_655
H18 Na0 2.439814 1_665
H18 Na3 2.568755 1_665
H19 Ir2 1.668778 1_555
H19 Mg2 2.303668 1_565
H19 Na2 2.439814 1_565
H19 Na0 2.439814 1_665
H19 Na3 2.568755 1_665
H20 Ir3 1.668778 1_555
H20 Mg2 2.303668 1_555
H20 Na2 2.439814 1_555
H20 Na0 2.439814 1_555
H20 Na3 2.568755 1_555
H21 Ir3 1.668778 1_555
H21 Mg1 2.303668 1_555
H21 Na1 2.439814 1_555
H21 Na0 2.439814 1_555
H21 Na3 2.568755 1_555
H22 Ir0 1.650087 1_555
H22 Mg0 2.342255 1_555
H22 Mg1 2.432490 1_555
H22 Mg2 2.432490 1_565
H22 Na0 2.519496 1_565
H23 Ir1 1.650087 1_555
H23 Mg0 2.342255 1_555
H23 Mg2 2.432490 1_555
H23 Mg1 2.432490 1_655
H23 Na0 2.519496 1_655
