# generated using pymatgen
data_Li3Sc(Ta2N3)4
_symmetry_space_group_name_H-M   'P 1'
_cell_length_a   5.22924369
_cell_length_b   5.22924255
_cell_length_c   10.34100969
_cell_angle_alpha   90.00000000
_cell_angle_beta   90.00000000
_cell_angle_gamma   120.00000098
_symmetry_Int_Tables_number   1
_chemical_formula_structural   Li3Sc(Ta2N3)4
_chemical_formula_sum   'Li3 Sc1 Ta8 N12'
_cell_volume   244.89010662
_cell_formula_units_Z   1
loop_
 _symmetry_equiv_pos_site_id
 _symmetry_equiv_pos_as_xyz
  1  'x, y, z'
loop_
 _atom_site_type_symbol
 _atom_site_label
 _atom_site_symmetry_multiplicity
 _atom_site_fract_x
 _atom_site_fract_y
 _atom_site_fract_z
 _atom_site_occupancy
  Li  Li0  1  0.33333300  0.66666700  0.50000000  1
  Li  Li1  1  0.66666700  0.33333300  0.50000000  1
  Li  Li2  1  0.66666700  0.33333300  0.00000000  1
  Sc  Sc0  1  0.33333300  0.66666700  0.00000000  1
  Ta  Ta0  1  0.99752172  0.34657017  0.25261963  1
  Ta  Ta1  1  0.65342983  0.00247828  0.74738037  1
  Ta  Ta2  1  0.34904845  0.34657017  0.74738037  1
  Ta  Ta3  1  0.00000000  0.00000000  0.50000000  1
  Ta  Ta4  1  0.00000000  0.00000000  0.00000000  1
  Ta  Ta5  1  0.65342983  0.65095155  0.25261963  1
  Ta  Ta6  1  0.34904845  0.00247828  0.25261963  1
  Ta  Ta7  1  0.99752172  0.65095155  0.74738037  1
  N  N0  1  0.67781519  0.67869649  0.62328226  1
  N  N1  1  0.67696407  0.67540011  0.87733396  1
  N  N2  1  0.32459989  0.32303593  0.12266604  1
  N  N3  1  0.32130351  0.32218481  0.37671774  1
  N  N4  1  0.32459989  0.00156396  0.87733396  1
  N  N5  1  0.32130351  0.99911871  0.62328226  1
  N  N6  1  0.00088129  0.67869649  0.37671774  1
  N  N7  1  0.99843604  0.67540011  0.12266604  1
  N  N8  1  0.67696407  0.00156396  0.12266604  1
  N  N9  1  0.67781519  0.99911871  0.37671774  1
  N  N10  1  0.99843604  0.32303593  0.87733396  1
  N  N11  1  0.00088129  0.32218481  0.62328226  1
loop_
_geom_bond_atom_site_label_1
_geom_bond_atom_site_label_2
_geom_bond_distance
_geom_bond_site_symmetry_2
Li0 N5 2.181942 1_555
Li0 N6 2.181942 1_555
Li0 N11 2.181945 1_555
Li0 N9 2.181945 1_555
Li0 N3 2.181946 1_555
Li0 N0 2.181947 1_555
Li1 N9 2.187458 1_545
Li1 N11 2.187458 1_655
Li1 N6 2.187460 1_655
Li1 N5 2.187460 1_545
Li1 N0 2.187462 1_555
Li1 N3 2.187462 1_555
Li2 N8 2.171466 1_555
Li2 N10 2.171467 1_554
Li2 N7 2.171469 1_555
Li2 N4 2.171469 1_554
Li2 N1 2.171471 1_554
Li2 N2 2.171471 1_555
N0 Ta3 2.110930 1_665
N0 Ta2 2.152446 1_555
N0 Ta7 2.169207 1_555
N0 Ta1 2.178468 1_565
N1 Ta4 2.115765 1_666
N1 Ta2 2.180488 1_555
N1 Sc0 2.181296 1_556
N1 Ta7 2.201473 1_555
N1 Ta1 2.226419 1_565
N2 Ta4 2.115765 1_555
N2 Ta5 2.180488 1_555
N2 Sc0 2.181296 1_555
N2 Ta6 2.201473 1_555
N2 Ta0 2.226419 1_455
N3 Ta3 2.110930 1_555
N3 Ta5 2.152446 1_555
N3 Ta6 2.169206 1_555
N3 Ta0 2.178468 1_455
N4 Ta4 2.115765 1_556
N4 Ta1 2.180488 1_555
N4 Sc0 2.181291 1_546
N4 Ta2 2.201473 1_555
N4 Ta7 2.226419 1_445
N5 Ta3 2.110930 1_565
N5 Ta1 2.152446 1_565
N5 Ta2 2.169206 1_565
N5 Ta7 2.178468 1_455
N6 Ta3 2.110930 1_565
N6 Ta0 2.152446 1_455
N6 Ta5 2.169207 1_455
N6 Ta6 2.178468 1_565
N7 Ta4 2.115765 1_665
N7 Ta0 2.180488 1_555
N7 Sc0 2.181292 1_655
N7 Ta5 2.201473 1_555
N7 Ta6 2.226419 1_665
N8 Ta4 2.115765 1_655
N8 Ta6 2.180488 1_555
N8 Sc0 2.181294 1_545
N8 Ta0 2.201473 1_555
N8 Ta5 2.226419 1_545
N9 Ta3 2.110930 1_665
N9 Ta6 2.152446 1_565
N9 Ta0 2.169206 1_565
N9 Ta5 2.178468 1_555
N10 Ta4 2.115765 1_656
N10 Ta7 2.180488 1_555
N10 Sc0 2.181294 1_656
N10 Ta1 2.201473 1_555
N10 Ta2 2.226419 1_655
N11 Ta3 2.110930 1_555
N11 Ta7 2.152446 1_455
N11 Ta1 2.169207 1_455
N11 Ta2 2.178468 1_555
