# generated using pymatgen
data_Hf7Zr3Sn6As
_symmetry_space_group_name_H-M   'P 1'
_cell_length_a   5.80865180
_cell_length_b   8.51272576
_cell_length_c   8.51266428
_cell_angle_alpha   120.00013003
_cell_angle_beta   89.99972598
_cell_angle_gamma   90.00042730
_symmetry_Int_Tables_number   1
_chemical_formula_structural   Hf7Zr3Sn6As
_chemical_formula_sum   'Hf7 Zr3 Sn6 As1'
_cell_volume   364.53527049
_cell_formula_units_Z   1
loop_
 _symmetry_equiv_pos_site_id
 _symmetry_equiv_pos_as_xyz
  1  'x, y, z'
loop_
 _atom_site_type_symbol
 _atom_site_label
 _atom_site_symmetry_multiplicity
 _atom_site_fract_x
 _atom_site_fract_y
 _atom_site_fract_z
 _atom_site_occupancy
  Hf  Hf0  1  0.49982055  0.33332968  0.66666588  1
  Hf  Hf1  1  0.49981981  0.66667062  0.33333617  1
  Hf  Hf2  1  0.99903471  0.66667168  0.33334130  1
  Hf  Hf3  1  0.99903515  0.33332969  0.66666186  1
  Hf  Hf4  1  0.76309787  0.25627340  0.00000641  1
  Hf  Hf5  1  0.76310685  0.74373842  0.74372922  1
  Hf  Hf6  1  0.76310533  0.99999082  0.25626021  1
  Zr  Zr0  1  0.23659465  0.74599493  0.00000904  1
  Zr  Zr1  1  0.23658813  0.25401208  0.25399957  1
  Zr  Zr2  1  0.23658961  0.99998929  0.74598990  1
  Sn  Sn0  1  0.74621285  0.60718367  0.00000593  1
  Sn  Sn1  1  0.74620350  0.39281664  0.39280860  1
  Sn  Sn2  1  0.74620830  0.99999861  0.60718182  1
  Sn  Sn3  1  0.25304411  0.39386119  0.00001015  1
  Sn  Sn4  1  0.25305702  0.60614053  0.60613974  1
  Sn  Sn5  1  0.25305159  0.99999544  0.39385136  1
  As  As0  1  0.50542996  0.00000328  0.00000283  1
loop_
_geom_bond_atom_site_label_1
_geom_bond_atom_site_label_2
_geom_bond_distance
_geom_bond_site_symmetry_2
Hf0 Sn5 2.984953 1_545
Hf0 Sn4 2.984964 1_555
Hf0 Sn3 2.985008 1_556
Hf0 Sn2 2.986572 1_545
Hf0 Sn1 2.986618 1_555
Hf0 Sn0 2.986619 1_556
Hf1 Sn4 2.984898 1_555
Hf1 Sn3 2.984916 1_555
Hf1 Sn5 2.984916 1_555
Hf1 Sn2 2.986532 1_555
Hf1 Sn0 2.986540 1_555
Hf1 Sn1 2.986556 1_555
Hf2 Sn2 3.004623 1_555
Hf2 Sn1 3.004646 1_555
Hf2 Sn0 3.004659 1_555
Hf2 Sn5 3.005350 1_655
Hf2 Sn3 3.005351 1_655
Hf2 Sn4 3.005357 1_655
Hf3 Sn2 3.004667 1_545
Hf3 Sn0 3.004718 1_556
Hf3 Sn1 3.004732 1_555
Hf3 Sn5 3.005395 1_645
Hf3 Sn4 3.005399 1_655
Hf3 Sn3 3.005447 1_656
Hf4 Sn1 2.941931 1_555
Hf4 Sn2 2.942102 1_544
Hf4 Sn0 2.988815 1_555
Hf4 Sn3 3.077504 1_655
Hf4 Sn3 3.185839 1_555
Hf5 Sn2 2.941991 1_555
Hf5 Sn0 2.942160 1_556
Hf5 Sn1 2.988892 1_555
Hf5 Sn4 3.077559 1_655
Hf5 Sn4 3.185829 1_555
Hf6 Sn0 2.941974 1_555
Hf6 Sn1 2.942139 1_565
Hf6 Sn2 2.988856 1_555
Hf6 Sn5 3.077524 1_655
Hf6 Sn5 3.185832 1_555
Sn0 Zr0 3.083821 1_655
Sn0 Zr0 3.187334 1_555
Sn1 Zr1 3.083835 1_655
Sn1 Zr1 3.187296 1_555
Sn2 Zr2 3.083838 1_655
Sn2 Zr2 3.187330 1_555
Sn3 Zr1 2.945373 1_555
Sn3 Zr2 2.945641 1_544
Sn3 Zr0 2.999146 1_555
Sn4 Zr2 2.945468 1_555
Sn4 Zr0 2.945600 1_556
Sn4 Zr1 2.999132 1_555
Sn5 Zr0 2.945404 1_555
Sn5 Zr1 2.945619 1_565
Sn5 Zr2 2.999188 1_555
As0 Hf6 2.645593 1_545
As0 Hf4 2.645600 1_555
As0 Hf5 2.645638 1_544
As0 Zr1 2.667197 1_555
As0 Zr2 2.667213 1_544
As0 Zr0 2.667231 1_545
