# generated using pymatgen
data_Zn2Te3O8
_symmetry_space_group_name_H-M   'P 1'
_cell_length_a   6.83010772
_cell_length_b   6.83010772
_cell_length_c   11.79735449
_cell_angle_alpha   81.13123495
_cell_angle_beta   81.13123495
_cell_angle_gamma   44.67578232
_symmetry_Int_Tables_number   1
_chemical_formula_structural   Zn2Te3O8
_chemical_formula_sum   'Zn4 Te6 O16'
_cell_volume   381.53559051
_cell_formula_units_Z   2
loop_
 _symmetry_equiv_pos_site_id
 _symmetry_equiv_pos_as_xyz
  1  'x, y, z'
loop_
 _atom_site_type_symbol
 _atom_site_label
 _atom_site_symmetry_multiplicity
 _atom_site_fract_x
 _atom_site_fract_y
 _atom_site_fract_z
 _atom_site_occupancy
  Zn  Zn0  1  0.44779195  0.00816138  0.15738429  1
  Zn  Zn1  1  0.99183862  0.55220805  0.34261571  1
  Zn  Zn2  1  0.55220805  0.99183862  0.84261571  1
  Zn  Zn3  1  0.00816138  0.44779195  0.65738429  1
  Te  Te0  1  0.13731156  0.86268844  0.75000000  1
  Te  Te1  1  0.86268844  0.13731156  0.25000000  1
  Te  Te2  1  0.33989126  0.93200422  0.44738835  1
  Te  Te3  1  0.06799578  0.66010874  0.05261165  1
  Te  Te4  1  0.66010874  0.06799578  0.55261165  1
  Te  Te5  1  0.93200422  0.33989126  0.94738835  1
  O  O0  1  0.24536796  0.28452868  0.96231543  1
  O  O1  1  0.71547132  0.75463204  0.53768457  1
  O  O2  1  0.75463204  0.71547132  0.03768457  1
  O  O3  1  0.28452868  0.24536796  0.46231543  1
  O  O4  1  0.80827191  0.58338525  0.81401326  1
  O  O5  1  0.41661475  0.19172809  0.68598674  1
  O  O6  1  0.19172809  0.41661475  0.18598674  1
  O  O7  1  0.58338525  0.80827191  0.31401326  1
  O  O8  1  0.21750132  0.00899930  0.85932680  1
  O  O9  1  0.99100070  0.78249868  0.64067320  1
  O  O10  1  0.16887977  0.99449084  0.14515543  1
  O  O11  1  0.00550916  0.83112023  0.35484457  1
  O  O12  1  0.83112023  0.00550916  0.85484457  1
  O  O13  1  0.99449084  0.16887977  0.64515543  1
  O  O14  1  0.00899930  0.21750132  0.35932680  1
  O  O15  1  0.78249868  0.99100070  0.14067320  1
loop_
_geom_bond_atom_site_label_1
_geom_bond_atom_site_label_2
_geom_bond_distance
_geom_bond_site_symmetry_2
O0 Te5 1.923432 1_455
O0 Zn2 2.093368 1_545
O0 Te3 2.282067 1_556
O0 Zn0 2.588553 1_556
O1 Te4 1.923432 1_565
O1 Zn3 2.093368 1_655
O1 Te2 2.282067 1_555
O1 Zn1 2.588553 1_555
O2 Te3 1.923432 1_655
O2 Zn0 2.093368 1_565
O2 Te5 2.282067 1_554
O2 Zn2 2.588553 1_554
O3 Te2 1.923432 1_545
O3 Zn1 2.093368 1_455
O3 Te4 2.282067 1_555
O3 Zn3 2.588553 1_555
O4 Te5 1.886837 1_555
O4 Zn3 2.021784 1_655
O4 Zn2 2.030939 1_555
O5 Te4 1.886837 1_555
O5 Zn2 2.021784 1_545
O5 Zn3 2.030939 1_555
O6 Te3 1.886837 1_555
O6 Zn1 2.021784 1_455
O6 Zn0 2.030939 1_555
O7 Te2 1.886837 1_555
O7 Zn0 2.021784 1_565
O7 Zn1 2.030939 1_555
O8 Te5 1.954775 1_455
O8 Te0 2.087047 1_545
O8 Zn2 2.183085 1_545
O9 Te4 1.954775 1_565
O9 Te0 2.087047 1_655
O9 Zn3 2.183085 1_655
O10 Te1 1.878343 1_465
O10 Zn0 2.000106 1_565
O11 Te1 1.878343 1_465
O11 Zn1 2.000106 1_455
O12 Te0 1.878343 1_645
O12 Zn2 2.000106 1_545
O13 Te0 1.878343 1_645
O13 Zn3 2.000106 1_655
O14 Te2 1.954775 1_545
O14 Te1 2.087047 1_455
O14 Zn1 2.183085 1_455
O15 Te3 1.954775 1_655
O15 Te1 2.087047 1_565
O15 Zn0 2.183085 1_565
