# generated using pymatgen
data_Ca9Y(TaN5)2
_symmetry_space_group_name_H-M   'P 1'
_cell_length_a   6.92352778
_cell_length_b   6.88955692
_cell_length_c   8.90427737
_cell_angle_alpha   79.96022604
_cell_angle_beta   79.89680699
_cell_angle_gamma   59.75133803
_symmetry_Int_Tables_number   1
_chemical_formula_structural   Ca9Y(TaN5)2
_chemical_formula_sum   'Ca9 Y1 Ta2 N10'
_cell_volume   359.36618468
_cell_formula_units_Z   1
loop_
 _symmetry_equiv_pos_site_id
 _symmetry_equiv_pos_as_xyz
  1  'x, y, z'
loop_
 _atom_site_type_symbol
 _atom_site_label
 _atom_site_symmetry_multiplicity
 _atom_site_fract_x
 _atom_site_fract_y
 _atom_site_fract_z
 _atom_site_occupancy
  Ca  Ca0  1  0.86874817  0.86307328  0.83127691  1
  Ca  Ca1  1  0.73990002  0.74222618  0.52093525  1
  Ca  Ca2  1  0.75565001  0.24606769  0.50354926  1
  Ca  Ca3  1  0.62315013  0.14845228  0.15614967  1
  Ca  Ca4  1  0.36194807  0.86483896  0.83723856  1
  Ca  Ca5  1  0.24885930  0.75783110  0.50778348  1
  Ca  Ca6  1  0.24557595  0.24623984  0.48849741  1
  Ca  Ca7  1  0.14033185  0.14977302  0.16161557  1
  Ca  Ca8  1  0.13590297  0.63568461  0.15652238  1
  Y  Y0  1  0.87871248  0.34368947  0.82884456  1
  Ta  Ta0  1  0.63057992  0.63062913  0.22115032  1
  Ta  Ta1  1  0.37269679  0.36506011  0.77414534  1
  N  N0  1  0.91308940  0.46835734  0.32004251  1
  N  N1  1  0.98817187  0.01674539  0.01098109  1
  N  N2  1  0.68497084  0.65569635  0.99817120  1
  N  N3  1  0.54483312  0.52803533  0.69380747  1
  N  N4  1  0.46476417  0.91798237  0.31812045  1
  N  N5  1  0.54009659  0.08021072  0.67947323  1
  N  N6  1  0.46169289  0.46963482  0.30708371  1
  N  N7  1  0.32357133  0.32809237  0.99408911  1
  N  N8  1  0.05493069  0.07282291  0.65414950  1
  N  N9  1  0.08411045  0.53114669  0.68217804  1
loop_
_geom_bond_atom_site_label_1
_geom_bond_atom_site_label_2
_geom_bond_distance
_geom_bond_site_symmetry_2
Ca0 N9 2.478720 1_655
Ca0 N5 2.487394 1_565
Ca0 N2 2.509291 1_555
Ca0 N1 2.510344 1_566
Ca0 N8 2.570257 1_665
Ca1 N0 2.518448 1_555
Ca1 N4 2.544960 1_555
Ca1 N5 2.558171 1_565
Ca1 N9 2.614646 1_655
Ca1 N3 2.618711 1_555
Ca2 N8 2.332687 1_655
Ca2 N3 2.489465 1_555
Ca2 N5 2.502124 1_555
Ca2 N0 2.527458 1_555
Ca2 N6 2.593498 1_555
Ca3 N7 2.399425 1_554
Ca3 N1 2.415280 1_555
Ca3 N6 2.443353 1_555
Ca3 N4 2.490928 1_545
Ca4 N3 2.474771 1_555
Ca4 N5 2.491121 1_565
Ca4 N2 2.507819 1_555
Ca4 N8 2.561637 1_565
Ca4 N1 2.572324 1_466
Ca5 N8 2.376427 1_565
Ca5 N4 2.535813 1_555
Ca5 N3 2.541113 1_555
Ca5 N9 2.545444 1_555
Ca5 N6 2.583202 1_555
Ca6 N8 2.374175 1_555
Ca6 N9 2.523867 1_555
Ca6 N5 2.558616 1_555
Ca6 N4 2.578730 1_545
Ca6 N0 2.598609 1_455
Ca6 N6 2.796864 1_555
Ca7 N7 2.368834 1_554
Ca7 N1 2.376130 1_455
Ca7 N0 2.470755 1_455
Ca7 N4 2.499202 1_545
Ca8 N7 2.430278 1_554
Ca8 N6 2.473913 1_555
Ca8 N1 2.488256 1_465
Ca8 N0 2.499447 1_455
N0 Ta0 1.977106 1_555
N1 Y0 2.390805 1_554
N2 Ta0 1.948684 1_556
N2 Y0 2.491723 1_555
N3 Ta1 1.990450 1_555
N3 Y0 2.426358 1_555
N4 Ta0 1.985256 1_555
N5 Ta1 1.961553 1_555
N6 Ta0 1.969744 1_555
N7 Ta1 1.922421 1_555
N8 Y0 2.333048 1_455
N9 Ta1 1.978883 1_555
N9 Y0 2.450827 1_455
