# generated using pymatgen
data_VSiTcRu
_symmetry_space_group_name_H-M   'P 1'
_cell_length_a   4.18724615
_cell_length_b   4.18724588
_cell_length_c   4.18724606
_cell_angle_alpha   60.00000630
_cell_angle_beta   60.00000839
_cell_angle_gamma   60.00001691
_symmetry_Int_Tables_number   1
_chemical_formula_structural   VSiTcRu
_chemical_formula_sum   'V1 Si1 Tc1 Ru1'
_cell_volume   51.91233269
_cell_formula_units_Z   1
loop_
 _symmetry_equiv_pos_site_id
 _symmetry_equiv_pos_as_xyz
  1  'x, y, z'
loop_
 _atom_site_type_symbol
 _atom_site_label
 _atom_site_symmetry_multiplicity
 _atom_site_fract_x
 _atom_site_fract_y
 _atom_site_fract_z
 _atom_site_occupancy
  V  V0  1  0.00000000  0.00000000  0.00000000  1
  Si  Si0  1  0.50000000  0.50000000  0.50000000  1
  Tc  Tc0  1  0.25000000  0.25000000  0.25000000  1
  Ru  Ru0  1  0.75000000  0.75000000  0.75000000  1
loop_
_geom_bond_atom_site_label_1
_geom_bond_atom_site_label_2
_geom_bond_distance
_geom_bond_site_symmetry_2
Si0 Tc0 2.564154 1_555
Si0 Tc0 2.564154 1_556
Si0 Tc0 2.564154 1_565
Si0 Tc0 2.564155 1_655
Si0 V0 2.960830 1_665
Si0 V0 2.960830 1_556
Si0 V0 2.960830 1_655
Si0 V0 2.960830 1_566
Si0 V0 2.960830 1_656
Si0 V0 2.960830 1_565
Tc0 V0 2.564154 1_555
Tc0 V0 2.564154 1_556
Tc0 V0 2.564154 1_565
Tc0 V0 2.564155 1_655
Ru0 Si0 2.564154 1_555
Ru0 V0 2.564154 1_666
Ru0 V0 2.564154 1_665
Ru0 Si0 2.564154 1_556
Ru0 Si0 2.564154 1_565
Ru0 V0 2.564154 1_656
Ru0 V0 2.564155 1_566
Ru0 Si0 2.564155 1_655
Ru0 Tc0 2.960830 1_665
Ru0 Tc0 2.960830 1_556
Ru0 Tc0 2.960830 1_655
Ru0 Tc0 2.960830 1_566
Ru0 Tc0 2.960830 1_656
Ru0 Tc0 2.960830 1_565
