# generated using pymatgen
data_Ta6Be15Cu3Ni5
_symmetry_space_group_name_H-M   'P 1'
_cell_length_a   7.55358851
_cell_length_b   7.55358848
_cell_length_c   7.54818111
_cell_angle_alpha   119.96887676
_cell_angle_beta   90.01357538
_cell_angle_gamma   120.03913447
_symmetry_Int_Tables_number   1
_chemical_formula_structural   Ta6Be15Cu3Ni5
_chemical_formula_sum   'Ta6 Be15 Cu3 Ni5'
_cell_volume   304.45961353
_cell_formula_units_Z   1
loop_
 _symmetry_equiv_pos_site_id
 _symmetry_equiv_pos_as_xyz
  1  'x, y, z'
loop_
 _atom_site_type_symbol
 _atom_site_label
 _atom_site_symmetry_multiplicity
 _atom_site_fract_x
 _atom_site_fract_y
 _atom_site_fract_z
 _atom_site_occupancy
  Ta  Ta0  1  0.20716574  0.99996361  0.20712835  1
  Ta  Ta1  1  0.20351632  0.40712701  0.19906114  1
  Ta  Ta2  1  0.79193413  0.99554481  0.19906114  1
  Ta  Ta3  1  0.19562291  0.99981079  0.79538213  1
  Ta  Ta4  1  0.80343849  0.99547087  0.79890936  1
  Ta  Ta5  1  0.79557134  0.59975922  0.79538213  1
  Be  Be0  1  0.50059133  0.00132944  0.00395977  1
  Be  Be1  1  0.00263032  0.50337043  0.00395977  1
  Be  Be2  1  0.50019443  0.50194999  0.00214143  1
  Be  Be3  1  0.51929315  0.34800120  0.17629344  1
  Be  Be4  1  0.82816205  0.34769838  0.17586143  1
  Be  Be5  1  0.82829124  0.65699929  0.17629344  1
  Be  Be6  1  0.82498665  0.65017148  0.47515913  1
  Be  Be7  1  0.49486965  0.99682805  0.49169770  1
  Be  Be8  1  0.00106554  0.99866072  0.49866125  1
  Be  Be9  1  0.99911932  0.49998865  0.49910797  1
  Be  Be10  1  0.50000054  0.49759571  0.49866125  1
  Be  Be11  1  0.17464241  0.34346690  0.51810731  1
  Be  Be12  1  0.17717106  0.34997458  0.82675102  1
  Be  Be13  1  0.17445249  0.65592057  0.83037205  1
  Be  Be14  1  0.47677644  0.64957996  0.82675102  1
  Cu  Cu0  1  0.86544983  0.24373226  0.62247049  1
  Cu  Cu1  1  0.37873823  0.75702166  0.62247049  1
  Cu  Cu2  1  0.62182317  0.24333607  0.86516024  1
  Ni  Ni0  1  0.37750474  0.75439834  0.13190208  1
  Ni  Ni1  1  0.62344981  0.24575852  0.37833267  1
  Ni  Ni2  1  0.13257315  0.75488286  0.37833267  1
  Ni  Ni3  1  0.62246778  0.75658872  0.37905650  1
  Ni  Ni4  1  0.37850074  0.24507390  0.62357464  1
loop_
_geom_bond_atom_site_label_1
_geom_bond_atom_site_label_2
_geom_bond_distance
_geom_bond_site_symmetry_2
Ta0 Ta3 3.108545 1_554
Ta0 Ta5 3.108548 1_454
Ta1 Ta4 3.021417 1_444
Ta1 Ta3 3.033866 1_544
Ta2 Ta4 3.021418 1_554
Ta2 Ta5 3.033866 1_554
Ta3 Ta4 2.946401 1_455
Ta3 Ta5 3.020037 1_455
Ta4 Ta5 2.946401 1_555
Be0 Be13 2.177382 1_544
Be0 Be4 2.185559 1_555
Be0 Be3 2.189897 1_555
Be0 Be14 2.202674 1_544
Be0 Ni1 2.307874 1_555
Be0 Ni0 2.310822 1_545
Be0 Cu2 2.348562 1_554
Be0 Cu1 2.352393 1_544
Be0 Ta2 2.678184 1_545
Be0 Ta0 2.694238 1_545
Be0 Ta4 2.768601 1_544
Be0 Ta3 2.781940 1_544
Be1 Be13 2.177381 1_554
Be1 Be4 2.185574 1_455
Be1 Be5 2.189892 1_455
Be1 Be12 2.202682 1_554
Be1 Ni2 2.307874 1_555
Be1 Ni0 2.310828 1_555
Be1 Cu2 2.348568 1_454
Be1 Cu0 2.352393 1_454
Be1 Ta1 2.678197 1_555
Be1 Ta0 2.694230 1_555
Be1 Ta4 2.768613 1_444
Be1 Ta5 2.781928 1_454
Be2 Be5 2.189987 1_555
Be2 Be3 2.190003 1_555
Be2 Ni0 2.314778 1_555
Be2 Ni3 2.323768 1_555
Be2 Ni4 2.334287 1_554
Be2 Cu2 2.347029 1_554
Be2 Ta2 2.683741 1_555
Be2 Ta1 2.683760 1_555
Be2 Ta5 2.731811 1_554
Be2 Ta3 2.731829 1_544
Be3 Be6 2.281953 1_555
Be3 Ni1 2.307721 1_555
Be3 Ni3 2.312409 1_555
Be3 Be5 2.332664 1_555
Be3 Be4 2.334216 1_555
Be3 Cu2 2.345031 1_554
Be3 Ta1 2.628395 1_555
Be3 Ta0 2.632521 1_545
Be3 Ta3 2.676830 1_544
Be4 Be9 2.156674 1_555
Be4 Be6 2.285300 1_555
Be4 Ni1 2.303127 1_555
Be4 Ni2 2.303131 1_655
Be4 Be5 2.334216 1_555
Be4 Cu2 2.339207 1_554
Be4 Ta2 2.630188 1_545
Be4 Ta1 2.630193 1_655
Be4 Ta4 2.673682 1_544
Be5 Be8 2.153383 1_655
Be5 Be6 2.281953 1_555
Be5 Ni2 2.307717 1_655
Be5 Ni3 2.312405 1_555
Be5 Cu2 2.345030 1_554
Be5 Ta2 2.628398 1_555
Be5 Ta0 2.632536 1_655
Be5 Ta5 2.676833 1_554
Be6 Be9 2.179066 1_555
Be6 Be8 2.181239 1_655
Be6 Ni1 2.301380 1_555
Be6 Ni2 2.301380 1_655
Be6 Ni3 2.307727 1_555
Be6 Ta4 2.618898 1_555
Be6 Ta5 2.621421 1_555
Be6 Ta3 2.621425 1_655
Be7 Ni0 2.218071 1_555
Be7 Ni1 2.233964 1_565
Be7 Ni2 2.233970 1_555
Be7 Ni4 2.250668 1_565
Be7 Ni3 2.270444 1_555
Be7 Cu1 2.284933 1_555
Be7 Cu0 2.284939 1_565
Be7 Cu2 2.302228 1_565
Be8 Ni2 2.315878 1_555
Be8 Ni4 2.326838 1_565
Be8 Ni3 2.334745 1_455
Be8 Cu0 2.349511 1_465
Be8 Ta3 2.672510 1_555
Be8 Ta0 2.697039 1_555
Be8 Ta4 2.717609 1_455
Be8 Ta2 2.741894 1_455
Be9 Ni2 2.316274 1_655
Be9 Ni1 2.316275 1_555
Be9 Cu0 2.340456 1_555
Be9 Cu1 2.340456 1_655
Be9 Ta3 2.722321 1_655
Be9 Ta5 2.722321 1_555
Be9 Ta2 2.739320 1_545
Be9 Ta1 2.739320 1_655
Be10 Be3 2.153380 1_555
Be10 Be11 2.173283 1_555
Be10 Be6 2.181232 1_555
Be10 Be14 2.200714 1_555
Be10 Ni1 2.315884 1_555
Be10 Ni4 2.326838 1_555
Be10 Ni3 2.334745 1_555
Be10 Cu1 2.349517 1_555
Be10 Ta5 2.672510 1_555
Be10 Ta0 2.697034 1_545
Be10 Ta4 2.717609 1_555
Be10 Ta1 2.741894 1_555
Be11 Be8 2.173296 1_545
Be11 Be9 2.216960 1_455
Be11 Ni4 2.300792 1_555
Be11 Be14 2.305400 1_555
Be11 Be12 2.305408 1_555
Be11 Cu1 2.339853 1_555
Be11 Cu0 2.339859 1_455
Be11 Be13 2.360419 1_555
Be11 Ta0 2.618452 1_545
Be11 Ta1 2.670298 1_555
Be11 Ta2 2.670307 1_445
Be12 Be2 2.167906 1_556
Be12 Be8 2.200714 1_545
Be12 Be14 2.261757 1_555
Be12 Ni0 2.295168 1_556
Be12 Ni4 2.299138 1_555
Be12 Be13 2.307867 1_555
Be12 Cu0 2.331524 1_455
Be12 Ta3 2.610536 1_545
Be12 Ta1 2.612511 1_556
Be12 Ta4 2.655794 1_445
Be13 Be9 2.210846 1_455
Be13 Ni0 2.291425 1_556
Be13 Be14 2.307864 1_555
Be13 Cu1 2.333579 1_555
Be13 Cu0 2.333582 1_455
Be13 Ta0 2.622067 1_556
Be13 Ta3 2.666913 1_555
Be13 Ta5 2.666918 1_455
Be14 Be2 2.167895 1_556
Be14 Ni0 2.295164 1_556
Be14 Ni4 2.299138 1_555
Be14 Cu1 2.331531 1_555
Be14 Ta5 2.610536 1_555
Be14 Ta2 2.612511 1_556
Be14 Ta4 2.655794 1_555
Cu0 Cu2 2.596891 1_555
Cu0 Ni3 2.601313 1_545
Cu0 Ni1 2.606184 1_555
Cu0 Ta2 2.647289 1_545
Cu0 Ta4 2.669396 1_545
Cu0 Ta5 2.670045 1_555
Cu1 Cu2 2.596880 1_565
Cu1 Ni3 2.601314 1_555
Cu1 Ni2 2.606184 1_555
Cu1 Ta1 2.647290 1_555
Cu1 Ta4 2.669397 1_555
Cu1 Ta3 2.670040 1_555
Cu2 Ni4 2.598078 1_555
Cu2 Ta3 2.669756 1_545
Cu2 Ta5 2.669762 1_555
Cu2 Ta4 2.697014 1_545
Ni0 Ta2 2.596604 1_555
Ni0 Ta1 2.596610 1_555
Ni0 Ta0 2.599259 1_555
Ni1 Ta0 2.600122 1_545
Ni1 Ta5 2.618767 1_555
Ni1 Ta2 2.622363 1_545
Ni2 Ta0 2.600127 1_555
Ni2 Ta3 2.618765 1_555
Ni2 Ta1 2.622368 1_555
Ni3 Ta1 2.622978 1_555
Ni3 Ta2 2.622979 1_555
Ni3 Ta4 2.642592 1_555
Ni4 Ta0 2.601643 1_545
Ni4 Ta5 2.619372 1_555
Ni4 Ta3 2.619372 1_545
