# generated using pymatgen
data_TaSi(BW2)2
_symmetry_space_group_name_H-M   'P 1'
_cell_length_a   7.03356647
_cell_length_b   7.03356704
_cell_length_c   7.04275477
_cell_angle_alpha   128.82288290
_cell_angle_beta   128.82288953
_cell_angle_gamma   75.19869371
_symmetry_Int_Tables_number   1
_chemical_formula_structural   TaSi(BW2)2
_chemical_formula_sum   'Ta2 Si2 B4 W8'
_cell_volume   205.97648052
_cell_formula_units_Z   2
loop_
 _symmetry_equiv_pos_site_id
 _symmetry_equiv_pos_as_xyz
  1  'x, y, z'
loop_
 _atom_site_type_symbol
 _atom_site_label
 _atom_site_symmetry_multiplicity
 _atom_site_fract_x
 _atom_site_fract_y
 _atom_site_fract_z
 _atom_site_occupancy
  Ta  Ta0  1  0.69480502  0.52050100  0.50000000  1
  Ta  Ta1  1  0.97949900  0.80519498  0.50000000  1
  Si  Si0  1  0.24709792  0.25290208  1.00000000  1
  Si  Si1  1  0.74709792  0.75290208  1.00000000  1
  B  B0  1  0.12875254  0.62477535  0.75352589  1
  B  B1  1  0.87522465  0.37124746  0.24647411  1
  B  B2  1  0.62080040  0.87919960  0.50000000  1
  B  B3  1  0.37884276  0.12115724  0.50000000  1
  W  W0  1  0.99957495  0.99957324  0.99914719  1
  W  W1  1  0.50042676  0.50042505  0.00085281  1
  W  W2  1  0.80316087  0.30565884  0.82757173  1
  W  W3  1  0.19434116  0.69683913  0.17242827  1
  W  W4  1  0.47558914  0.97808710  0.17242827  1
  W  W5  1  0.30412148  0.47124947  0.50000000  1
  W  W6  1  0.02875053  0.19587852  0.50000000  1
  W  W7  1  0.52191290  0.02441086  0.82757173  1
loop_
_geom_bond_atom_site_label_1
_geom_bond_atom_site_label_2
_geom_bond_distance
_geom_bond_site_symmetry_2
Ta0 W1 2.774370 1_555
Ta0 W0 2.774376 1_555
Ta0 W6 2.826678 1_655
Ta0 W5 2.856101 1_555
Ta0 W4 3.124841 1_545
Ta0 W2 3.124842 1_555
Ta1 W0 2.774370 1_555
Ta1 W1 2.774375 1_555
Ta1 W5 2.826678 1_655
Ta1 W6 2.856102 1_665
Ta1 W7 3.124841 1_665
Ta1 W3 3.124842 1_655
Si0 W2 2.565316 1_455
Si0 W3 2.565316 1_556
Si0 Ta0 2.583298 1_556
Si0 Ta1 2.583298 1_445
Si0 W6 2.585090 1_555
Si0 W5 2.585090 1_556
Si0 W4 2.588943 1_546
Si0 W7 2.588943 1_555
Si0 W1 2.786444 1_556
Si0 W0 2.786444 1_445
Si1 W7 2.565316 1_565
Si1 W4 2.565316 1_556
Si1 Ta1 2.583298 1_556
Si1 Ta0 2.583299 1_555
Si1 W5 2.585089 1_555
Si1 W6 2.585089 1_666
Si1 W3 2.588942 1_656
Si1 W2 2.588943 1_555
Si1 W0 2.786455 1_555
Si1 W1 2.786455 1_556
B0 B1 2.183605 1_455
B0 W5 2.353505 1_555
B0 W6 2.353519 1_555
B0 W1 2.380258 1_556
B0 Ta1 2.389681 1_455
B0 Ta0 2.389695 1_455
B0 W4 2.389887 1_556
B0 W3 2.389902 1_556
B0 W0 2.407585 1_455
B1 W6 2.353505 1_655
B1 W5 2.353519 1_655
B1 W0 2.380259 1_544
B1 Ta0 2.389681 1_555
B1 Ta1 2.389696 1_555
B1 W7 2.389887 1_554
B1 W2 2.389902 1_554
B1 W1 2.407585 1_555
B2 B3 2.076690 1_565
B2 W3 2.354523 1_555
B2 W2 2.354523 1_565
B2 W4 2.354523 1_555
B2 W7 2.354523 1_565
B2 W0 2.418741 1_555
B2 W1 2.418742 1_555
B2 Ta1 2.442364 1_555
B2 Ta0 2.442364 1_555
B3 W2 2.346405 1_555
B3 W3 2.346405 1_545
B3 W7 2.346405 1_555
B3 W4 2.346405 1_545
B3 W6 2.382938 1_555
B3 W5 2.382938 1_555
B3 W0 2.423866 1_444
B3 W1 2.423866 1_556
