# generated using pymatgen
data_Hf3HgC2
_symmetry_space_group_name_H-M   'P 1'
_cell_length_a   3.29847169
_cell_length_b   3.29847156
_cell_length_c   19.83726903
_cell_angle_alpha   90.00000000
_cell_angle_beta   90.00000000
_cell_angle_gamma   120.00000127
_symmetry_Int_Tables_number   1
_chemical_formula_structural   Hf3HgC2
_chemical_formula_sum   'Hf6 Hg2 C4'
_cell_volume   186.91235715
_cell_formula_units_Z   2
loop_
 _symmetry_equiv_pos_site_id
 _symmetry_equiv_pos_as_xyz
  1  'x, y, z'
loop_
 _atom_site_type_symbol
 _atom_site_label
 _atom_site_symmetry_multiplicity
 _atom_site_fract_x
 _atom_site_fract_y
 _atom_site_fract_z
 _atom_site_occupancy
  Hf  Hf0  1  0.00000000  0.00000000  0.00000000  1
  Hf  Hf1  1  0.33333300  0.66666600  0.12848773  1
  Hf  Hf2  1  0.33333300  0.66666600  0.37151227  1
  Hf  Hf3  1  0.00000000  0.00000000  0.50000000  1
  Hf  Hf4  1  0.66666500  0.33333300  0.62848773  1
  Hf  Hf5  1  0.66666500  0.33333300  0.87151227  1
  Hg  Hg0  1  0.00000000  0.00000000  0.25000000  1
  Hg  Hg1  1  0.00000000  0.00000000  0.75000000  1
  C  C0  1  0.66666500  0.33333300  0.06966781  1
  C  C1  1  0.66666500  0.33333300  0.43033219  1
  C  C2  1  0.33333300  0.66666600  0.56966781  1
  C  C3  1  0.33333300  0.66666600  0.93033219  1
loop_
_geom_bond_atom_site_label_1
_geom_bond_atom_site_label_2
_geom_bond_distance
_geom_bond_site_symmetry_2
Hf1 Hg0 3.071971 1_555
Hf1 Hg0 3.071973 1_665
Hf1 Hg0 3.071973 1_565
Hf2 Hg0 3.071971 1_555
Hf2 Hg0 3.071973 1_665
Hf2 Hg0 3.071973 1_565
Hf4 Hg1 3.071969 1_555
Hf4 Hg1 3.071973 1_665
Hf4 Hg1 3.071974 1_655
Hf5 Hg1 3.071969 1_555
Hf5 Hg1 3.071973 1_665
Hf5 Hg1 3.071974 1_655
C0 Hf1 2.233406 1_555
C0 Hf1 2.233411 1_545
C0 Hf1 2.233414 1_655
C0 Hf0 2.352997 1_555
C0 Hf0 2.353002 1_665
C0 Hf0 2.353004 1_655
C1 Hf2 2.233406 1_555
C1 Hf2 2.233411 1_545
C1 Hf2 2.233414 1_655
C1 Hf3 2.352997 1_555
C1 Hf3 2.353002 1_665
C1 Hf3 2.353004 1_655
C2 Hf4 2.233406 1_555
C2 Hf4 2.233411 1_565
C2 Hf4 2.233414 1_455
C2 Hf3 2.353000 1_555
C2 Hf3 2.353002 1_665
C2 Hf3 2.353002 1_565
C3 Hf5 2.233406 1_555
C3 Hf5 2.233411 1_565
C3 Hf5 2.233414 1_455
C3 Hf0 2.353000 1_556
C3 Hf0 2.353002 1_666
C3 Hf0 2.353002 1_566
