# generated using pymatgen
data_Na(La2Se3)4
_symmetry_space_group_name_H-M   'P 1'
_cell_length_a   15.10799458
_cell_length_b   15.10799458
_cell_length_c   15.10799458
_cell_angle_alpha   144.95717571
_cell_angle_beta   144.95717571
_cell_angle_gamma   50.39834689
_symmetry_Int_Tables_number   1
_chemical_formula_structural   Na(La2Se3)4
_chemical_formula_sum   'Na2 La16 Se24'
_cell_volume   1131.25737229
_cell_formula_units_Z   2
loop_
 _symmetry_equiv_pos_site_id
 _symmetry_equiv_pos_as_xyz
  1  'x, y, z'
loop_
 _atom_site_type_symbol
 _atom_site_label
 _atom_site_symmetry_multiplicity
 _atom_site_fract_x
 _atom_site_fract_y
 _atom_site_fract_z
 _atom_site_occupancy
  Na  Na0  1  0.00000000  0.00000000  0.00000000  1
  Na  Na1  1  0.75000000  0.25000000  0.50000000  1
  La  La0  1  0.34091200  0.45620500  0.37756900  1
  La  La1  1  0.07863700  0.96334300  0.62243100  1
  La  La2  1  0.66682600  0.66682600  0.00000000  1
  La  La3  1  0.37500000  0.00489400  0.12989400  1
  La  La4  1  0.67136300  0.79379500  0.38470700  1
  La  La5  1  0.08317400  0.58317400  0.50000000  1
  La  La6  1  0.40908800  0.28665700  0.61529400  1
  La  La7  1  0.87500000  0.24510600  0.87010600  1
  La  La8  1  0.71334300  0.32863700  0.12243100  1
  La  La9  1  0.99510600  0.12500000  0.37010600  1
  La  La10  1  0.41682600  0.91682600  0.50000000  1
  La  La11  1  0.75489400  0.62500000  0.62989400  1
  La  La12  1  0.20620500  0.59091200  0.87756900  1
  La  La13  1  0.33317400  0.33317400  0.00000000  1
  La  La14  1  0.03665700  0.65908800  0.11529400  1
  La  La15  1  0.54379500  0.92136300  0.88470600  1
  Se  Se0  1  0.00867300  0.60898100  0.25133300  1
  Se  Se1  1  0.57342500  0.32632100  0.60555100  1
  Se  Se2  1  0.35764800  0.75734000  0.74866700  1
  Se  Se3  1  0.39235200  0.64101900  0.89969100  1
  Se  Se4  1  0.74132700  0.49266000  0.10030900  1
  Se  Se5  1  0.72077100  0.96787400  0.39444900  1
  Se  Se6  1  0.34236500  0.93891200  0.24911400  1
  Se  Se7  1  0.02922900  0.92367900  0.74710400  1
  Se  Se8  1  0.90674900  0.65763500  0.59654700  1
  Se  Se9  1  0.68979800  0.09325100  0.75088600  1
  Se  Se10  1  0.17657500  0.28212600  0.25289600  1
  Se  Se11  1  0.71787400  0.97077100  0.89444900  1
  Se  Se12  1  0.07632100  0.82342500  0.10555100  1
  Se  Se13  1  0.06108800  0.31020200  0.40345300  1
  Se  Se14  1  0.67367900  0.27922900  0.24710400  1
  Se  Se15  1  0.35898100  0.25867300  0.75133300  1
  Se  Se16  1  0.24266000  0.99132700  0.60030900  1
  Se  Se17  1  0.03212600  0.42657500  0.75289600  1
  Se  Se18  1  0.50734000  0.60764800  0.24866700  1
  Se  Se19  1  0.06020200  0.31108800  0.90345300  1
  Se  Se20  1  0.40763500  0.15674900  0.09654700  1
  Se  Se21  1  0.39101900  0.64235200  0.39969100  1
  Se  Se22  1  0.68891200  0.59236500  0.74911400  1
  Se  Se23  1  0.84325100  0.93979800  0.25088600  1
loop_
_geom_bond_atom_site_label_1
_geom_bond_atom_site_label_2
_geom_bond_distance
_geom_bond_site_symmetry_2
Na0 Se6 3.081579 1_545
Na0 Se8 3.081579 1_444
Na0 Se9 3.081579 1_454
Na0 Se13 3.081579 1_555
Na0 Se7 3.320002 1_544
Na0 Se11 3.320006 1_444
Na0 Se12 3.320014 1_545
Na0 Se10 3.320014 1_555
Na1 Se22 3.081579 1_555
Na1 Se19 3.081579 1_655
Na1 Se23 3.081579 1_545
Na1 Se20 3.081579 1_555
Na1 Se14 3.320002 1_555
Na1 Se5 3.320006 1_545
Na1 Se17 3.320014 1_655
Na1 Se1 3.320014 1_555
La0 Se10 3.030616 1_555
La0 Se20 3.041628 1_555
La0 Se21 3.058542 1_555
La0 Se2 3.094228 1_555
La0 Se22 3.152567 1_555
La0 Se19 3.239969 1_554
La0 Se1 3.243623 1_555
La0 Se0 3.304881 1_555
La1 Se7 3.030643 1_555
La1 Se19 3.041630 1_565
La1 Se16 3.058501 1_555
La1 Se0 3.094227 1_555
La1 Se23 3.152563 1_455
La1 Se20 3.239964 1_566
La1 Se5 3.243623 1_455
La1 Se2 3.304878 1_555
La2 Se5 3.042234 1_555
La2 Se1 3.042239 1_554
La2 Se0 3.069727 1_655
La2 Se2 3.069727 1_554
La2 Se23 3.217794 1_555
La2 Se22 3.217794 1_554
La2 Se3 3.232301 1_554
La2 Se4 3.232324 1_555
La3 Se7 3.053494 1_544
La3 Se5 3.053496 1_545
La3 Se20 3.082512 1_555
La3 Se6 3.082512 1_545
La3 Se1 3.217527 1_555
La3 Se10 3.217527 1_555
La3 Se3 3.276373 1_544
La3 Se2 3.276377 1_544
La4 Se5 3.030639 1_555
La4 Se9 3.041621 1_565
La4 Se18 3.058517 1_555
La4 Se4 3.094229 1_555
La4 Se8 3.152565 1_555
La4 Se6 3.239960 1_555
La4 Se7 3.243623 1_655
La4 Se3 3.304892 1_554
La5 Se10 3.042239 1_555
La5 Se7 3.042242 1_555
La5 Se3 3.069720 1_555
La5 Se4 3.069724 1_455
La5 Se8 3.217794 1_455
La5 Se13 3.217794 1_555
La5 Se2 3.232311 1_555
La5 Se0 3.232311 1_555
La6 Se1 3.030629 1_555
La6 Se6 3.041630 1_545
La6 Se15 3.058515 1_555
La6 Se3 3.094226 1_555
La6 Se13 3.152563 1_555
La6 Se9 3.239964 1_555
La6 Se10 3.243635 1_555
La6 Se4 3.304881 1_556
La7 Se1 3.053488 1_555
La7 Se10 3.053488 1_656
La7 Se19 3.082512 1_655
La7 Se9 3.082512 1_555
La7 Se7 3.217523 1_645
La7 Se5 3.217531 1_545
La7 Se0 3.276377 1_656
La7 Se4 3.276386 1_556
La8 Se14 3.030643 1_555
La8 Se13 3.041630 1_655
La8 Se4 3.058501 1_555
La8 Se15 3.094227 1_554
La8 Se9 3.152563 1_554
La8 Se8 3.239964 1_555
La8 Se11 3.243623 1_544
La8 Se18 3.304878 1_555
La9 Se17 3.053488 1_655
La9 Se12 3.053488 1_645
La9 Se13 3.082512 1_655
La9 Se23 3.082512 1_545
La9 Se14 3.217523 1_555
La9 Se11 3.217531 1_544
La9 Se15 3.276377 1_655
La9 Se16 3.276386 1_645
La10 Se11 3.042234 1_555
La10 Se12 3.042239 1_555
La10 Se18 3.069727 1_555
La10 Se15 3.069727 1_565
La10 Se6 3.217794 1_555
La10 Se9 3.217794 1_565
La10 Se21 3.232301 1_555
La10 Se16 3.232324 1_555
La11 Se14 3.053494 1_555
La11 Se11 3.053496 1_555
La11 Se8 3.082512 1_555
La11 Se22 3.082512 1_555
La11 Se12 3.217527 1_656
La11 Se17 3.217527 1_655
La11 Se21 3.276373 1_555
La11 Se18 3.276377 1_555
La12 Se17 3.030616 1_555
La12 Se8 3.041628 1_455
La12 Se3 3.058542 1_555
La12 Se18 3.094228 1_556
La12 Se6 3.152567 1_556
La12 Se13 3.239969 1_555
La12 Se12 3.243623 1_556
La12 Se15 3.304881 1_555
La13 Se17 3.042239 1_554
La13 Se14 3.042242 1_555
La13 Se21 3.069720 1_555
La13 Se16 3.069724 1_544
La13 Se19 3.217794 1_554
La13 Se20 3.217794 1_555
La13 Se18 3.232311 1_555
La13 Se15 3.232311 1_554
La14 Se12 3.030629 1_555
La14 Se22 3.041630 1_454
La14 Se0 3.058515 1_555
La14 Se21 3.094226 1_555
La14 Se19 3.152563 1_554
La14 Se23 3.239964 1_455
La14 Se17 3.243635 1_554
La14 Se16 3.304881 1_555
La15 Se11 3.030626 1_555
La15 Se23 3.041629 1_556
La15 Se2 3.058528 1_555
La15 Se16 3.094222 1_555
La15 Se20 3.152575 1_566
La15 Se22 3.239961 1_555
La15 Se14 3.243621 1_566
La15 Se21 3.304882 1_555
