# generated using pymatgen
data_KRb3(Lu3Se5)4
_symmetry_space_group_name_H-M   'P 1'
_cell_length_a   4.03810955
_cell_length_b   12.07646722
_cell_length_c   21.46666185
_cell_angle_alpha   89.82620545
_cell_angle_beta   90.00000000
_cell_angle_gamma   90.00000000
_symmetry_Int_Tables_number   1
_chemical_formula_structural   KRb3(Lu3Se5)4
_chemical_formula_sum   'K1 Rb3 Lu12 Se20'
_cell_volume   1046.84051230
_cell_formula_units_Z   1
loop_
 _symmetry_equiv_pos_site_id
 _symmetry_equiv_pos_as_xyz
  1  'x, y, z'
loop_
 _atom_site_type_symbol
 _atom_site_label
 _atom_site_symmetry_multiplicity
 _atom_site_fract_x
 _atom_site_fract_y
 _atom_site_fract_z
 _atom_site_occupancy
  K  K0  1  0.25000000  0.66439280  0.60224642  1
  Rb  Rb0  1  0.25000000  0.84262230  0.09564416  1
  Rb  Rb1  1  0.75000000  0.15845136  0.90374430  1
  Rb  Rb2  1  0.75000000  0.34200390  0.40493063  1
  Lu  Lu0  1  0.75000000  0.80725009  0.82849792  1
  Lu  Lu1  1  0.25000000  0.19306697  0.17162340  1
  Lu  Lu2  1  0.25000000  0.30943664  0.66939722  1
  Lu  Lu3  1  0.75000000  0.69189888  0.32950349  1
  Lu  Lu4  1  0.25000000  0.96623481  0.69968312  1
  Lu  Lu5  1  0.75000000  0.03442796  0.30086711  1
  Lu  Lu6  1  0.75000000  0.46581090  0.79896775  1
  Lu  Lu7  1  0.25000000  0.53553043  0.19957998  1
  Lu  Lu8  1  0.75000000  0.38835760  0.05226632  1
  Lu  Lu9  1  0.25000000  0.61091027  0.94662534  1
  Lu  Lu10  1  0.25000000  0.88542313  0.44819268  1
  Lu  Lu11  1  0.75000000  0.10971469  0.55258662  1
  Se  Se0  1  0.25000000  0.94925636  0.57076952  1
  Se  Se1  1  0.75000000  0.04634666  0.43030135  1
  Se  Se2  1  0.75000000  0.45085804  0.92886496  1
  Se  Se3  1  0.25000000  0.54864582  0.06955802  1
  Se  Se4  1  0.75000000  0.76796958  0.95612013  1
  Se  Se5  1  0.25000000  0.23106334  0.04336735  1
  Se  Se6  1  0.25000000  0.26673822  0.54251323  1
  Se  Se7  1  0.75000000  0.72849761  0.45796128  1
  Se  Se8  1  0.25000000  0.96137753  0.82891471  1
  Se  Se9  1  0.75000000  0.03897436  0.17142618  1
  Se  Se10  1  0.75000000  0.46455181  0.66897181  1
  Se  Se11  1  0.25000000  0.53787904  0.32897007  1
  Se  Se12  1  0.75000000  0.13614368  0.68344598  1
  Se  Se13  1  0.25000000  0.86412851  0.31694742  1
  Se  Se14  1  0.25000000  0.63526330  0.81533145  1
  Se  Se15  1  0.75000000  0.36553980  0.18345330  1
  Se  Se16  1  0.75000000  0.68720303  0.20036458  1
  Se  Se17  1  0.25000000  0.31408678  0.79822116  1
  Se  Se18  1  0.25000000  0.18638126  0.30037606  1
  Se  Se19  1  0.75000000  0.81356455  0.69976199  1
loop_
_geom_bond_atom_site_label_1
_geom_bond_atom_site_label_2
_geom_bond_distance
_geom_bond_site_symmetry_2
K0 Se19 3.424440 1_555
K0 Se19 3.424440 1_455
K0 Se10 3.454225 1_555
K0 Se10 3.454225 1_455
K0 Se0 3.503866 1_555
K0 Se7 3.775547 1_455
K0 Se7 3.775547 1_555
Rb0 Se9 3.516987 1_465
Rb0 Se9 3.516987 1_565
Rb0 Se16 3.553490 1_555
Rb0 Se16 3.553490 1_455
Rb0 Se3 3.595767 1_555
Rb0 Se4 3.725111 1_554
Rb0 Se4 3.725111 1_454
Rb1 Se8 3.513445 1_545
Rb1 Se8 3.513445 1_645
Rb1 Se17 3.565759 1_555
Rb1 Se17 3.565759 1_655
Rb1 Se2 3.573794 1_555
Rb1 Se5 3.720877 1_656
Rb1 Se5 3.720877 1_556
Rb2 Se11 3.508219 1_655
Rb2 Se11 3.508219 1_555
Rb2 Se18 3.559735 1_555
Rb2 Se18 3.559735 1_655
Rb2 Se1 3.610160 1_555
Rb2 Se6 3.689075 1_655
Rb2 Se6 3.689075 1_555
Lu0 Se8 2.746135 1_555
Lu0 Se8 2.746135 1_655
Lu0 Se19 2.764351 1_555
Lu0 Se4 2.778970 1_555
Lu0 Se14 2.911001 1_555
Lu0 Se14 2.911001 1_655
Lu1 Se9 2.745829 1_455
Lu1 Se9 2.745829 1_555
Lu1 Se18 2.764824 1_555
Lu1 Se5 2.789832 1_555
Lu1 Se15 2.912490 1_555
Lu1 Se15 2.912490 1_455
Lu2 Se10 2.754197 1_455
Lu2 Se10 2.754197 1_555
Lu2 Se17 2.766160 1_555
Lu2 Se6 2.773692 1_555
Lu2 Se12 2.922906 1_555
Lu2 Se12 2.922906 1_455
Lu3 Se11 2.745269 1_655
Lu3 Se11 2.745269 1_555
Lu3 Se16 2.772933 1_555
Lu3 Se7 2.794079 1_555
Lu3 Se13 2.910657 1_555
Lu3 Se13 2.910657 1_655
Lu4 Se19 2.734202 1_555
Lu4 Se19 2.734202 1_455
Lu4 Se8 2.774613 1_555
Lu4 Se0 2.775550 1_555
Lu4 Se12 2.898970 1_465
Lu4 Se12 2.898970 1_565
Lu5 Se18 2.728373 1_655
Lu5 Se18 2.728373 1_555
Lu5 Se9 2.779041 1_555
Lu5 Se1 2.782683 1_555
Lu5 Se13 2.901913 1_645
Lu5 Se13 2.901913 1_545
Lu6 Se17 2.726593 1_555
Lu6 Se17 2.726593 1_655
Lu6 Se10 2.790666 1_555
Lu6 Se2 2.793754 1_555
Lu6 Se14 2.896901 1_555
Lu6 Se14 2.896901 1_655
Lu7 Se16 2.726181 1_455
Lu7 Se16 2.726181 1_555
Lu7 Se11 2.777804 1_555
Lu7 Se3 2.795148 1_555
Lu7 Se15 2.900876 1_455
Lu7 Se15 2.900876 1_555
Lu8 Se2 2.752245 1_554
Lu8 Se5 2.779137 1_655
Lu8 Se5 2.779137 1_555
Lu8 Se3 2.822361 1_655
Lu8 Se3 2.822361 1_555
Lu8 Se15 2.828764 1_555
Lu9 Se3 2.741796 1_556
Lu9 Se4 2.778133 1_455
Lu9 Se4 2.778133 1_555
Lu9 Se2 2.821769 1_555
Lu9 Se2 2.821769 1_455
Lu9 Se14 2.832857 1_555
Lu10 Se0 2.744154 1_555
Lu10 Se7 2.776612 1_555
Lu10 Se7 2.776612 1_455
Lu10 Se1 2.827776 1_565
Lu10 Se1 2.827776 1_465
Lu10 Se13 2.829887 1_555
Lu11 Se1 2.736555 1_555
Lu11 Se6 2.777907 1_655
Lu11 Se6 2.777907 1_555
Lu11 Se0 2.824765 1_645
Lu11 Se0 2.824765 1_545
Lu11 Se12 2.828149 1_555
