# generated using pymatgen
data_SbPCl10
_symmetry_space_group_name_H-M   'P 1'
_cell_length_a   9.48003862
_cell_length_b   9.48003862
_cell_length_c   8.00736224
_cell_angle_alpha   90.00000000
_cell_angle_beta   90.00000000
_cell_angle_gamma   90.00000000
_symmetry_Int_Tables_number   1
_chemical_formula_structural   SbPCl10
_chemical_formula_sum   'Sb2 P2 Cl20'
_cell_volume   719.63070997
_cell_formula_units_Z   2
loop_
 _symmetry_equiv_pos_site_id
 _symmetry_equiv_pos_as_xyz
  1  'x, y, z'
loop_
 _atom_site_type_symbol
 _atom_site_label
 _atom_site_symmetry_multiplicity
 _atom_site_fract_x
 _atom_site_fract_y
 _atom_site_fract_z
 _atom_site_occupancy
  Sb  Sb0  1  0.00000000  0.50000000  0.62438689  1
  Sb  Sb1  1  0.50000000  0.00000000  0.37561311  1
  P  P0  1  0.00000000  0.00000000  0.00000000  1
  P  P1  1  0.50000000  0.50000000  0.00000000  1
  Cl  Cl0  1  0.33982653  0.54947767  0.13921800  1
  Cl  Cl1  1  0.04947767  0.16017347  0.13921800  1
  Cl  Cl2  1  0.95052233  0.83982653  0.13921800  1
  Cl  Cl3  1  0.66017347  0.45052233  0.13921800  1
  Cl  Cl4  1  0.16017347  0.95052233  0.86078200  1
  Cl  Cl5  1  0.45052233  0.33982653  0.86078200  1
  Cl  Cl6  1  0.54947767  0.66017347  0.86078200  1
  Cl  Cl7  1  0.83982653  0.04947767  0.86078200  1
  Cl  Cl8  1  0.00000000  0.50000000  0.92239303  1
  Cl  Cl9  1  0.50000000  0.00000000  0.07760697  1
  Cl  Cl10  1  0.00000000  0.50000000  0.32347987  1
  Cl  Cl11  1  0.50000000  0.00000000  0.67652013  1
  Cl  Cl12  1  0.23632410  0.58660505  0.62264543  1
  Cl  Cl13  1  0.08660505  0.26367590  0.62264543  1
  Cl  Cl14  1  0.91339495  0.73632410  0.62264543  1
  Cl  Cl15  1  0.76367590  0.41339495  0.62264543  1
  Cl  Cl16  1  0.26367590  0.91339495  0.37735457  1
  Cl  Cl17  1  0.41339495  0.23632410  0.37735457  1
  Cl  Cl18  1  0.58660505  0.76367590  0.37735457  1
  Cl  Cl19  1  0.73632410  0.08660505  0.37735457  1
loop_
_geom_bond_atom_site_label_1
_geom_bond_atom_site_label_2
_geom_bond_distance
_geom_bond_site_symmetry_2
Cl0 P1 1.941239 1_555
Cl1 P0 1.941239 1_555
Cl2 P0 1.941239 1_665
Cl3 P1 1.941239 1_555
Cl4 P0 1.941239 1_566
Cl5 P1 1.941239 1_556
Cl6 P1 1.941239 1_556
Cl7 P0 1.941239 1_656
Cl8 Sb0 2.386243 1_555
Cl9 Sb1 2.386243 1_555
Cl10 Sb0 2.409472 1_555
Cl11 Sb1 2.409472 1_555
Cl12 Sb0 2.386103 1_555
Cl13 Sb0 2.386103 1_555
Cl14 Sb0 2.386103 1_655
Cl15 Sb0 2.386103 1_655
Cl16 Sb1 2.386103 1_565
Cl17 Sb1 2.386103 1_555
Cl18 Sb1 2.386103 1_565
Cl19 Sb1 2.386103 1_555
