# generated using pymatgen
data_YCdCu3Ir
_symmetry_space_group_name_H-M   'P 1'
_cell_length_a   5.04975865
_cell_length_b   5.04975811
_cell_length_c   5.19518947
_cell_angle_alpha   60.92178651
_cell_angle_beta   60.92178220
_cell_angle_gamma   60.00000393
_symmetry_Int_Tables_number   1
_chemical_formula_structural   YCdCu3Ir
_chemical_formula_sum   'Y1 Cd1 Cu3 Ir1'
_cell_volume   94.95985788
_cell_formula_units_Z   1
loop_
 _symmetry_equiv_pos_site_id
 _symmetry_equiv_pos_as_xyz
  1  'x, y, z'
loop_
 _atom_site_type_symbol
 _atom_site_label
 _atom_site_symmetry_multiplicity
 _atom_site_fract_x
 _atom_site_fract_y
 _atom_site_fract_z
 _atom_site_occupancy
  Y  Y0  1  0.74767368  0.74767368  0.75698097  1
  Cd  Cd0  1  0.99804676  0.99804676  0.00586072  1
  Cu  Cu0  1  0.37603215  0.87701655  0.37092014  1
  Cu  Cu1  1  0.37603215  0.37603215  0.37092014  1
  Cu  Cu2  1  0.87701655  0.37603215  0.37092014  1
  Ir  Ir0  1  0.37520071  0.37520071  0.87439688  1
loop_
_geom_bond_atom_site_label_1
_geom_bond_atom_site_label_2
_geom_bond_distance
_geom_bond_site_symmetry_2
Cd0 Ir0 2.969772 1_664
Cd0 Ir0 2.969780 1_654
Cd0 Ir0 2.969780 1_564
Cd0 Cu2 2.973071 1_565
Cd0 Cu0 2.973071 1_655
Cd0 Cu1 2.973071 1_565
Cd0 Cu2 2.973071 1_555
Cd0 Cu1 2.973071 1_655
Cd0 Cu0 2.973072 1_555
Cd0 Cu0 3.093682 1_654
Cd0 Cu2 3.093683 1_564
Cd0 Cu1 3.093683 1_664
Cd0 Y0 3.105687 1_554
Cd0 Y0 3.105691 1_564
Cd0 Y0 3.105692 1_654
Cd0 Y0 3.229815 1_555
Cu0 Cu1 2.519908 1_565
Cu0 Cu2 2.519908 1_465
Cu0 Cu1 2.529850 1_555
Cu0 Cu2 2.529850 1_555
Cu0 Ir0 2.583616 1_564
Cu0 Ir0 2.611588 1_555
Cu0 Y0 3.017059 1_554
Cu0 Y0 3.021724 1_455
Cu0 Y0 3.021727 1_555
Cu1 Cu2 2.519908 1_455
Cu1 Cu2 2.529850 1_555
Cu1 Ir0 2.583621 1_554
Cu1 Ir0 2.611583 1_555
Cu1 Y0 3.017061 1_554
Cu1 Y0 3.021725 1_455
Cu1 Y0 3.021726 1_545
Cu2 Ir0 2.583616 1_654
Cu2 Ir0 2.611588 1_555
Cu2 Y0 3.017059 1_554
Cu2 Y0 3.021723 1_545
Cu2 Y0 3.021727 1_555
Ir0 Y0 2.958869 1_545
Ir0 Y0 2.958869 1_455
Ir0 Y0 2.958882 1_555
