# generated using pymatgen
data_Ti8CuPt3O2
_symmetry_space_group_name_H-M   'P 1'
_cell_length_a   8.21993145
_cell_length_b   8.21993174
_cell_length_c   8.21781712
_cell_angle_alpha   60.00850159
_cell_angle_beta   60.00850044
_cell_angle_gamma   60.26128809
_symmetry_Int_Tables_number   1
_chemical_formula_structural   Ti8CuPt3O2
_chemical_formula_sum   'Ti16 Cu2 Pt6 O4'
_cell_volume   393.44511407
_cell_formula_units_Z   2
loop_
 _symmetry_equiv_pos_site_id
 _symmetry_equiv_pos_as_xyz
  1  'x, y, z'
loop_
 _atom_site_type_symbol
 _atom_site_label
 _atom_site_symmetry_multiplicity
 _atom_site_fract_x
 _atom_site_fract_y
 _atom_site_fract_z
 _atom_site_occupancy
  Ti  Ti0  1  0.81852428  0.18894679  0.81931699  1
  Ti  Ti1  1  0.18332675  0.81745200  0.18234521  1
  Ti  Ti2  1  0.43254800  0.06667325  0.43312396  1
  Ti  Ti3  1  0.43254800  0.06667325  0.06765479  1
  Ti  Ti4  1  0.06105321  0.43147572  0.43068301  1
  Ti  Ti5  1  0.06105321  0.43147572  0.07678906  1
  Ti  Ti6  1  0.17471796  0.18643716  0.81942244  1
  Ti  Ti7  1  0.43466876  0.43229359  0.06651882  1
  Ti  Ti8  1  0.12521775  0.61962475  0.62757875  1
  Ti  Ti9  1  0.63305939  0.61694061  0.12500000  1
  Ti  Ti10  1  0.63305939  0.61694061  0.62500000  1
  Ti  Ti11  1  0.63037525  0.12478225  0.62242125  1
  Ti  Ti12  1  0.18332675  0.81745200  0.81687604  1
  Ti  Ti13  1  0.81852428  0.18894679  0.17321094  1
  Ti  Ti14  1  0.06356284  0.07528204  0.43057756  1
  Ti  Ti15  1  0.81770641  0.81533124  0.18348118  1
  Cu  Cu0  1  0.83602474  0.49358353  0.83519587  1
  Cu  Cu1  1  0.75641647  0.41397526  0.41480413  1
  Pt  Pt0  1  0.41505628  0.76842207  0.40826133  1
  Pt  Pt1  1  0.84431361  0.83993927  0.47503116  1
  Pt  Pt2  1  0.84431361  0.83993927  0.84071596  1
  Pt  Pt3  1  0.48157793  0.83494372  0.84173867  1
  Pt  Pt4  1  0.41006073  0.40568639  0.40928404  1
  Pt  Pt5  1  0.41006073  0.40568639  0.77496884  1
  O  O0  1  0.12370476  0.12629524  0.62500000  1
  O  O1  1  0.62661741  0.12512426  0.12412916  1
  O  O2  1  0.12370476  0.12629524  0.12500000  1
  O  O3  1  0.12487574  0.62338259  0.12587084  1
loop_
_geom_bond_atom_site_label_1
_geom_bond_atom_site_label_2
_geom_bond_distance
_geom_bond_site_symmetry_2
Cu0 Ti9 2.499413 1_556
Cu0 Ti10 2.499414 1_555
Cu0 Ti8 2.501322 1_655
Cu0 Ti13 2.647827 1_556
Cu0 Ti0 2.647832 1_555
Cu0 Ti6 2.671132 1_655
Cu0 Pt3 2.872033 1_555
Cu0 Pt1 2.904630 1_555
Cu0 Pt2 2.904630 1_555
Cu0 Ti7 3.028738 1_556
Cu0 Ti4 3.056959 1_655
Cu0 Ti5 3.056966 1_656
Cu1 Ti9 2.499413 1_555
Cu1 Ti10 2.499414 1_555
Cu1 Ti11 2.501322 1_555
Cu1 Ti5 2.647827 1_655
Cu1 Ti4 2.647832 1_655
Cu1 Ti14 2.671132 1_655
Cu1 Pt0 2.872033 1_555
Cu1 Pt5 2.904630 1_555
Cu1 Pt4 2.904630 1_555
Cu1 Ti15 3.028739 1_555
Cu1 Ti0 3.056959 1_555
Cu1 Ti13 3.056966 1_555
Pt0 Ti10 2.587277 1_555
Pt0 Ti9 2.587283 1_555
Pt0 Ti8 2.610491 1_555
Pt0 Ti2 2.636784 1_565
Pt0 Ti3 2.636789 1_565
Pt0 Ti14 2.728803 1_565
Pt0 Ti15 2.992848 1_555
Pt0 Ti12 3.043545 1_555
Pt0 Ti1 3.043552 1_555
Pt1 Ti10 2.579562 1_555
Pt1 Ti8 2.580387 1_655
Pt1 Ti11 2.581192 1_565
Pt1 Ti1 2.611020 1_655
Pt1 Ti15 2.623238 1_555
Pt1 Ti13 2.689901 1_565
Pt2 Ti9 2.579562 1_556
Pt2 Ti8 2.580387 1_655
Pt2 Ti11 2.581192 1_565
Pt2 Ti12 2.611021 1_655
Pt2 Ti15 2.623238 1_556
Pt2 Ti0 2.689897 1_565
Pt3 Ti10 2.587277 1_555
Pt3 Ti9 2.587283 1_556
Pt3 Ti11 2.610491 1_565
Pt3 Ti12 2.636784 1_555
Pt3 Ti1 2.636789 1_556
Pt3 Ti6 2.728803 1_565
Pt3 Ti7 2.992848 1_556
Pt3 Ti2 3.043545 1_565
Pt3 Ti3 3.043552 1_566
Pt4 Ti9 2.579562 1_555
Pt4 Ti11 2.580387 1_555
Pt4 Ti8 2.581192 1_555
Pt4 Ti2 2.611021 1_555
Pt4 Ti7 2.623238 1_555
Pt4 Ti4 2.689897 1_555
Pt5 Ti10 2.579562 1_555
Pt5 Ti11 2.580387 1_555
Pt5 Ti8 2.581192 1_555
Pt5 Ti3 2.611020 1_556
Pt5 Ti7 2.623238 1_556
Pt5 Ti5 2.689900 1_556
O0 Ti14 2.153618 1_555
O0 Ti6 2.153618 1_555
O0 Ti0 2.154938 1_455
O0 Ti4 2.154939 1_555
O0 Ti2 2.169707 1_555
O0 Ti12 2.169707 1_545
O1 Ti13 2.143585 1_555
O1 Ti0 2.143590 1_554
O1 Ti7 2.165225 1_555
O1 Ti2 2.171285 1_555
O1 Ti3 2.171285 1_555
O1 Ti15 2.178453 1_545
O2 Ti14 2.153618 1_555
O2 Ti6 2.153618 1_554
O2 Ti13 2.154941 1_455
O2 Ti5 2.154941 1_555
O2 Ti3 2.169707 1_555
O2 Ti1 2.169707 1_545
O3 Ti5 2.143585 1_555
O3 Ti4 2.143590 1_555
O3 Ti15 2.165225 1_455
O3 Ti12 2.171285 1_554
O3 Ti1 2.171285 1_555
O3 Ti7 2.178453 1_555
