# generated using pymatgen
data_Zr2BeAsRu2
_symmetry_space_group_name_H-M   'P 1'
_cell_length_a   7.60405033
_cell_length_b   7.60591287
_cell_length_c   7.60458950
_cell_angle_alpha   127.28659665
_cell_angle_beta   125.25880174
_cell_angle_gamma   79.44969191
_symmetry_Int_Tables_number   1
_chemical_formula_structural   Zr2BeAsRu2
_chemical_formula_sum   'Zr6 Be3 As3 Ru6'
_cell_volume   276.17595287
_cell_formula_units_Z   3
loop_
 _symmetry_equiv_pos_site_id
 _symmetry_equiv_pos_as_xyz
  1  'x, y, z'
loop_
 _atom_site_type_symbol
 _atom_site_label
 _atom_site_symmetry_multiplicity
 _atom_site_fract_x
 _atom_site_fract_y
 _atom_site_fract_z
 _atom_site_occupancy
  Zr  Zr0  1  0.44298900  0.64558323  0.68715771  1
  Zr  Zr1  1  0.54587540  0.26286724  0.20047371  1
  Zr  Zr2  1  0.73589361  0.85189557  0.59750112  1
  Zr  Zr3  1  0.25445747  0.85224328  0.11612214  1
  Zr  Zr4  1  0.06257837  0.26278632  0.71642883  1
  Zr  Zr5  1  0.95795121  0.64493176  0.20210324  1
  Be  Be0  1  0.25069706  0.25391598  0.50376713  1
  Be  Be1  1  0.74948575  0.25283165  0.00334245  1
  Be  Be2  1  0.33315096  0.58663048  0.25272356  1
  As  As0  1  0.66927198  0.92033008  0.25074782  1
  As  As1  1  0.16355549  0.91962003  0.75552929  1
  As  As2  1  0.83330269  0.58659016  0.75342384  1
  Ru  Ru0  1  0.49745702  0.49241712  0.99568014  1
  Ru  Ru1  1  0.99990267  0.49217423  0.49243383  1
  Ru  Ru2  1  0.12201764  0.26014596  0.13742488  1
  Ru  Ru3  1  0.88204233  0.01326171  0.13249913  1
  Ru  Ru4  1  0.37939368  0.00910679  0.62899563  1
  Ru  Ru5  1  0.61998065  0.25226843  0.63324854  1
loop_
_geom_bond_atom_site_label_1
_geom_bond_atom_site_label_2
_geom_bond_distance
_geom_bond_site_symmetry_2
Be0 Ru3 2.379040 1_455
Be0 Ru1 2.379532 1_455
Be0 Ru5 2.380054 1_555
Be0 Ru2 2.390934 1_555
Be0 Ru0 2.392860 1_555
Be0 Ru4 2.395160 1_555
Be0 Zr0 2.676650 1_555
Be0 Zr4 2.677584 1_555
Be0 Zr3 2.679171 1_545
Be1 Ru3 2.377752 1_555
Be1 Ru1 2.379585 1_555
Be1 Ru5 2.382810 1_554
Be1 Ru0 2.391162 1_554
Be1 Ru2 2.391957 1_655
Be1 Ru4 2.393166 1_554
Be1 Zr1 2.673581 1_555
Be1 Zr2 2.679394 1_544
Be1 Zr5 2.682306 1_555
Be2 Ru0 2.586508 1_554
Be2 Ru2 2.590243 1_555
Be2 Ru4 2.597801 1_565
Be2 Zr3 2.626940 1_555
Be2 Zr2 2.628072 1_555
Be2 Zr4 2.632447 1_554
Be2 Zr1 2.633679 1_555
Be2 Zr5 2.638215 1_455
Be2 Zr0 2.640010 1_555
As0 Ru3 2.606624 1_565
As0 Ru5 2.643853 1_565
As0 Ru0 2.654165 1_554
As0 Zr3 2.737374 1_555
As0 Zr2 2.739527 1_555
As0 Zr0 2.765389 1_554
As0 Zr5 2.767296 1_555
As0 Zr1 2.776988 1_565
As0 Zr4 2.778248 1_665
As1 Ru1 2.616730 1_455
As1 Ru2 2.624517 1_566
As1 Ru4 2.666223 1_565
As1 Zr4 2.726424 1_565
As1 Zr1 2.726880 1_566
As1 Zr5 2.732677 1_455
As1 Zr0 2.733168 1_555
As1 Zr2 2.763371 1_455
As1 Zr3 2.764846 1_556
As2 Ru3 2.617480 1_566
As2 Ru1 2.627273 1_555
As2 Ru5 2.629781 1_555
As2 Zr5 2.706096 1_556
As2 Zr0 2.706215 1_555
As2 Zr1 2.708631 1_555
As2 Zr4 2.708987 1_655
As2 Zr2 2.713687 1_555
As2 Zr3 2.713894 1_656
Ru0 Zr1 2.829540 1_556
Ru0 Zr4 2.829991 1_555
Ru0 Zr2 2.963513 1_556
Ru0 Zr3 2.967875 1_556
Ru0 Zr5 3.001025 1_556
Ru0 Zr0 3.007703 1_555
Ru1 Zr5 2.912972 1_555
Ru1 Zr0 2.914114 1_655
Ru1 Zr4 2.920904 1_655
Ru1 Zr1 2.924750 1_555
Ru1 Zr3 3.057152 1_656
Ru1 Zr2 3.057158 1_555
Ru2 Zr5 2.826822 1_455
Ru2 Zr0 2.831780 1_555
Ru2 Zr1 2.974314 1_555
Ru2 Zr4 2.976280 1_554
Ru2 Zr2 3.015621 1_444
Ru2 Zr3 3.016792 1_545
Ru3 Zr3 2.913278 1_645
Ru3 Zr2 2.919424 1_544
Ru3 Zr4 2.984974 1_655
Ru3 Zr1 2.994186 1_555
Ru3 Zr5 3.051786 1_545
Ru3 Zr0 3.053884 1_544
Ru4 Zr3 2.834917 1_545
Ru4 Zr2 2.837501 1_545
Ru4 Zr4 2.925983 1_555
Ru4 Zr1 2.931632 1_556
Ru4 Zr0 2.969754 1_545
Ru4 Zr5 2.970778 1_445
Ru5 Zr2 2.900823 1_545
Ru5 Zr3 2.903080 1_545
Ru5 Zr5 2.925654 1_556
Ru5 Zr0 2.933480 1_555
Ru5 Zr4 3.051681 1_655
Ru5 Zr1 3.052686 1_555
