# generated using pymatgen
data_Cs5Ga3Se5S2
_symmetry_space_group_name_H-M   'P 1'
_cell_length_a   11.15930220
_cell_length_b   11.15930295
_cell_length_c   9.60537609
_cell_angle_alpha   76.10393158
_cell_angle_beta   76.10393085
_cell_angle_gamma   71.07211630
_symmetry_Int_Tables_number   1
_chemical_formula_structural   Cs5Ga3Se5S2
_chemical_formula_sum   'Cs10 Ga6 Se10 S4'
_cell_volume   1081.07960771
_cell_formula_units_Z   2
loop_
 _symmetry_equiv_pos_site_id
 _symmetry_equiv_pos_as_xyz
  1  'x, y, z'
loop_
 _atom_site_type_symbol
 _atom_site_label
 _atom_site_symmetry_multiplicity
 _atom_site_fract_x
 _atom_site_fract_y
 _atom_site_fract_z
 _atom_site_occupancy
  Cs  Cs0  1  0.02563058  0.44424381  0.72966183  1
  Cs  Cs1  1  0.44424381  0.02563058  0.72966183  1
  Cs  Cs2  1  0.97436942  0.55575619  0.27033817  1
  Cs  Cs3  1  0.55575619  0.97436942  0.27033817  1
  Cs  Cs4  1  0.28310911  0.71689089  0.00000000  1
  Cs  Cs5  1  0.71689089  0.28310911  1.00000000  1
  Cs  Cs6  1  0.85066879  0.14933121  0.50000000  1
  Cs  Cs7  1  0.14933121  0.85066879  0.50000000  1
  Cs  Cs8  1  0.42718643  0.42718643  0.69106340  1
  Cs  Cs9  1  0.57281357  0.57281357  0.30893660  1
  Ga  Ga0  1  0.20856612  0.20856612  0.18056431  1
  Ga  Ga1  1  0.79143388  0.79143388  0.81943569  1
  Ga  Ga2  1  0.07227185  0.07227185  0.05830676  1
  Ga  Ga3  1  0.92772815  0.92772815  0.94169324  1
  Ga  Ga4  1  0.34482704  0.34482704  0.33469432  1
  Ga  Ga5  1  0.65517296  0.65517296  0.66530568  1
  Se  Se0  1  0.20188348  0.20188348  0.43339167  1
  Se  Se1  1  0.79811652  0.79811652  0.56660833  1
  Se  Se2  1  0.06416129  0.06416129  0.81129825  1
  Se  Se3  1  0.93583871  0.93583871  0.18870175  1
  Se  Se4  1  0.34608785  0.34608785  0.07251174  1
  Se  Se5  1  0.65391215  0.65391215  0.92748826  1
  Se  Se6  1  0.24780625  0.55320931  0.39390671  1
  Se  Se7  1  0.55320931  0.24780625  0.39390671  1
  Se  Se8  1  0.75219375  0.44679069  0.60609329  1
  Se  Se9  1  0.44679069  0.75219375  0.60609329  1
  S  S0  1  0.00737728  0.27488288  0.11455748  1
  S  S1  1  0.27488288  0.00737728  0.11455748  1
  S  S2  1  0.99262272  0.72511712  0.88544252  1
  S  S3  1  0.72511712  0.99262272  0.88544252  1
loop_
_geom_bond_atom_site_label_1
_geom_bond_atom_site_label_2
_geom_bond_distance
_geom_bond_site_symmetry_2
Cs0 Se8 3.519595 1_455
Cs0 S2 3.665764 1_455
Cs0 S0 3.716665 1_556
Cs0 Se6 3.776007 1_555
Cs0 Se2 4.021317 1_555
Cs0 Se0 4.103542 1_555
Cs0 Se1 4.114380 1_455
Cs1 Se9 3.519596 1_545
Cs1 S3 3.665764 1_545
Cs1 S1 3.716665 1_556
Cs1 Se7 3.776007 1_555
Cs1 Se2 4.021317 1_555
Cs1 Se0 4.103542 1_555
Cs1 Se1 4.114380 1_545
Cs2 Se6 3.519595 1_655
Cs2 S0 3.665764 1_655
Cs2 S2 3.716665 1_554
Cs2 Se8 3.776007 1_555
Cs2 Se3 4.021317 1_555
Cs2 Se1 4.103542 1_555
Cs2 Se0 4.114380 1_655
Cs3 Se7 3.519596 1_565
Cs3 S1 3.665764 1_565
Cs3 S3 3.716665 1_554
Cs3 Se9 3.776007 1_555
Cs3 Se3 4.021317 1_555
Cs3 Se1 4.103542 1_555
Cs3 Se0 4.114380 1_565
Cs4 S2 3.633057 1_454
Cs4 S1 3.633057 1_565
Cs4 Se9 3.773420 1_554
Cs4 Se6 3.773420 1_555
Cs4 Se5 3.881421 1_554
Cs4 Se4 3.881421 1_555
Cs5 S0 3.633057 1_656
Cs5 S3 3.633057 1_545
Cs5 Se7 3.773420 1_556
Cs5 Se8 3.773420 1_555
Cs5 Se4 3.881421 1_556
Cs5 Se5 3.881421 1_555
Cs6 Se7 3.461962 1_555
Cs6 Se8 3.461962 1_555
Cs6 S0 3.836208 1_655
Cs6 S3 3.836208 1_545
Cs6 Se2 4.013461 1_655
Cs6 Se3 4.013461 1_545
Cs6 Se0 4.027498 1_655
Cs6 Se1 4.027498 1_545
Cs7 Se9 3.461962 1_555
Cs7 Se6 3.461962 1_555
Cs7 S2 3.836208 1_455
Cs7 S1 3.836208 1_565
Cs7 Se3 4.013461 1_455
Cs7 Se2 4.013461 1_565
Cs7 Se1 4.027498 1_455
Cs7 Se0 4.027498 1_565
Cs8 Se4 3.522582 1_556
Cs8 Se8 3.588209 1_555
Cs8 Se9 3.588209 1_555
Cs8 Se6 3.622406 1_555
Cs8 Se7 3.622406 1_555
Cs9 Se5 3.522582 1_554
Cs9 Se6 3.588209 1_555
Cs9 Se7 3.588209 1_555
Cs9 Se8 3.622406 1_555
Cs9 Se9 3.622406 1_555
Ga0 S0 2.317474 1_555
Ga0 S1 2.317475 1_555
Ga0 Se0 2.395491 1_555
Ga0 Se4 2.405264 1_555
Ga1 S2 2.317474 1_555
Ga1 S3 2.317475 1_555
Ga1 Se1 2.395491 1_555
Ga1 Se5 2.405264 1_555
Ga2 S1 2.294574 1_555
Ga2 S0 2.294574 1_555
Ga2 Se2 2.420179 1_554
Ga2 Se3 2.424188 1_445
Ga3 S3 2.294574 1_555
Ga3 S2 2.294574 1_555
Ga3 Se3 2.420179 1_556
Ga3 Se2 2.424188 1_665
Ga4 Se7 2.368400 1_555
Ga4 Se6 2.368400 1_555
Ga4 Se0 2.487126 1_555
Ga4 Se4 2.511700 1_555
Ga5 Se9 2.368400 1_555
Ga5 Se8 2.368400 1_555
Ga5 Se1 2.487126 1_555
Ga5 Se5 2.511700 1_555
