# generated using pymatgen
data_Ga2Ir
_symmetry_space_group_name_H-M   'P 1'
_cell_length_a   3.89007832
_cell_length_b   6.78746011
_cell_length_c   10.91271210
_cell_angle_alpha   90.00000000
_cell_angle_beta   90.00000000
_cell_angle_gamma   106.68471883
_symmetry_Int_Tables_number   1
_chemical_formula_structural   Ga2Ir
_chemical_formula_sum   'Ga12 Ir6'
_cell_volume   276.00573039
_cell_formula_units_Z   6
loop_
 _symmetry_equiv_pos_site_id
 _symmetry_equiv_pos_as_xyz
  1  'x, y, z'
loop_
 _atom_site_type_symbol
 _atom_site_label
 _atom_site_symmetry_multiplicity
 _atom_site_fract_x
 _atom_site_fract_y
 _atom_site_fract_z
 _atom_site_occupancy
  Ga  Ga0  1  0.44190882  0.88308483  0.60500070  1
  Ga  Ga1  1  0.55807997  0.11692845  0.39494387  1
  Ga  Ga2  1  0.55807997  0.11692845  0.10505713  1
  Ga  Ga3  1  0.44190882  0.88308483  0.89499930  1
  Ga  Ga4  1  0.82122682  0.64245191  0.51807849  1
  Ga  Ga5  1  0.17880439  0.35754648  0.48191404  1
  Ga  Ga6  1  0.23239655  0.46441541  0.75000000  1
  Ga  Ga7  1  0.76758201  0.53557006  0.25000000  1
  Ga  Ga8  1  0.03981188  0.07954498  0.75000000  1
  Ga  Ga9  1  0.96017024  0.92043836  0.25000000  1
  Ga  Ga10  1  0.82122682  0.64245191  0.98192151  1
  Ga  Ga11  1  0.17880439  0.35754648  0.01808596  1
  Ir  Ir0  1  0.63991043  0.27991332  0.62204411  1
  Ir  Ir1  1  0.36011191  0.72011205  0.37794511  1
  Ir  Ir2  1  0.36011191  0.72011205  0.12205489  1
  Ir  Ir3  1  0.63991043  0.27991332  0.87795589  1
  Ir  Ir4  1  0.14881783  0.29873758  0.25000000  1
  Ir  Ir5  1  0.85113479  0.70121853  0.75000000  1
loop_
_geom_bond_atom_site_label_1
_geom_bond_atom_site_label_2
_geom_bond_distance
_geom_bond_site_symmetry_2
Ga0 Ir0 2.586757 1_565
Ga0 Ga4 2.669940 1_555
Ga0 Ga4 2.670723 1_455
Ga0 Ir1 2.694848 1_555
Ga0 Ga1 2.750667 1_565
Ga0 Ir5 2.771303 1_455
Ga0 Ir5 2.773110 1_555
Ga0 Ga8 2.812609 1_665
Ga0 Ga8 2.815366 1_565
Ga1 Ir1 2.586644 1_545
Ga1 Ga5 2.669928 1_555
Ga1 Ga5 2.670994 1_655
Ga1 Ir0 2.695327 1_555
Ga1 Ir4 2.770779 1_655
Ga1 Ir4 2.772627 1_555
Ga1 Ga9 2.812335 1_445
Ga1 Ga9 2.815137 1_545
Ga2 Ir2 2.586643 1_545
Ga2 Ir3 2.695337 1_554
Ga2 Ga3 2.750676 1_544
Ga2 Ir4 2.770773 1_655
Ga2 Ir4 2.772621 1_555
Ga2 Ga9 2.812329 1_445
Ga2 Ga9 2.815130 1_545
Ga3 Ir3 2.586757 1_565
Ga3 Ir2 2.694848 1_556
Ga3 Ir5 2.771303 1_455
Ga3 Ir5 2.773110 1_555
Ga3 Ga8 2.812609 1_665
Ga3 Ga8 2.815366 1_565
Ga4 Ir1 2.525155 1_655
Ga4 Ir1 2.525265 1_555
Ga4 Ir5 2.559572 1_555
Ga4 Ir0 2.615952 1_555
Ga4 Ga5 2.713977 1_555
Ga4 Ga5 2.715646 1_655
Ga4 Ga7 3.006866 1_555
Ga5 Ir0 2.525141 1_555
Ga5 Ir0 2.525165 1_455
Ga5 Ir4 2.559533 1_555
Ga5 Ir1 2.616125 1_555
Ga5 Ga6 3.006926 1_555
Ga6 Ir5 2.480304 1_455
Ga6 Ir5 2.480993 1_555
Ga6 Ga8 2.502313 1_555
Ga6 Ir0 2.677877 1_555
Ga6 Ir3 2.677877 1_555
Ga6 Ir0 2.678221 1_455
Ga6 Ir3 2.678221 1_455
Ga7 Ir4 2.480388 1_655
Ga7 Ir4 2.481146 1_555
Ga7 Ga9 2.502299 1_555
Ga7 Ir2 2.677865 1_555
Ga7 Ir1 2.677865 1_555
Ga7 Ir1 2.678343 1_655
Ga7 Ir2 2.678343 1_655
Ga8 Ir5 2.459768 1_445
Ga8 Ir0 2.725054 1_555
Ga8 Ir3 2.725054 1_555
Ga8 Ir0 2.726580 1_455
Ga8 Ir3 2.726580 1_455
Ga9 Ir4 2.459591 1_665
Ga9 Ir2 2.724810 1_555
Ga9 Ir1 2.724810 1_555
Ga9 Ir1 2.726443 1_655
Ga9 Ir2 2.726443 1_655
Ga10 Ir2 2.525155 1_656
Ga10 Ir2 2.525265 1_556
Ga10 Ir5 2.559572 1_555
Ga10 Ir3 2.615952 1_555
Ga10 Ga3 2.669940 1_555
Ga10 Ga3 2.670723 1_655
Ga10 Ga11 2.713977 1_556
Ga10 Ga11 2.715646 1_656
Ga10 Ga7 3.006866 1_556
Ga11 Ir3 2.525141 1_554
Ga11 Ir3 2.525165 1_454
Ga11 Ir4 2.559533 1_555
Ga11 Ir2 2.616125 1_555
Ga11 Ga2 2.669932 1_555
Ga11 Ga2 2.670998 1_455
Ga11 Ga6 3.006926 1_554
Ir0 Ir3 2.792692 1_555
Ir1 Ir2 2.792456 1_555
