# generated using pymatgen
data_Ti8Al13Si2Ir7
_symmetry_space_group_name_H-M   'P 1'
_cell_length_a   8.59462374
_cell_length_b   8.55738626
_cell_length_c   8.59465645
_cell_angle_alpha   119.87909138
_cell_angle_beta   120.12174223
_cell_angle_gamma   90.12360101
_symmetry_Int_Tables_number   1
_chemical_formula_structural   Ti8Al13Si2Ir7
_chemical_formula_sum   'Ti8 Al13 Si2 Ir7'
_cell_volume   446.48113936
_cell_formula_units_Z   1
loop_
 _symmetry_equiv_pos_site_id
 _symmetry_equiv_pos_as_xyz
  1  'x, y, z'
loop_
 _atom_site_type_symbol
 _atom_site_label
 _atom_site_symmetry_multiplicity
 _atom_site_fract_x
 _atom_site_fract_y
 _atom_site_fract_z
 _atom_site_occupancy
  Ti  Ti0  1  0.80650995  0.29927136  0.09523610  1
  Ti  Ti1  1  0.20403726  0.29927236  0.49276241  1
  Ti  Ti2  1  0.19977445  0.69635963  0.49658719  1
  Ti  Ti3  1  0.20939524  0.71165855  0.91468671  1
  Ti  Ti4  1  0.79697184  0.71166355  0.50226531  1
  Ti  Ti5  1  0.79005346  0.29075212  0.50069966  1
  Ti  Ti6  1  0.37977214  0.12244745  0.74267431  1
  Ti  Ti7  1  0.37881969  0.63328609  0.25446140  1
  Al  Al0  1  0.15752998  0.97324250  0.81571352  1
  Al  Al1  1  0.15212049  0.34275660  0.80581792  1
  Al  Al2  1  0.53693768  0.34275860  0.19063811  1
  Al  Al3  1  0.84103939  0.65810846  0.81706807  1
  Al  Al4  1  0.84017832  0.02324908  0.18307277  1
  Al  Al5  1  0.83823052  0.65863224  0.17897219  1
  Al  Al6  1  0.47965805  0.65863024  0.82040072  1
  Al  Al7  1  0.38136426  0.11995584  0.25863582  1
  Al  Al8  1  0.86132002  0.11995684  0.73859158  1
  Al  Al9  1  0.62078029  0.87899627  0.25821498  1
  Al  Al10  1  0.61982313  0.36088919  0.74106406  1
  Al  Al11  1  0.62173234  0.88007742  0.74346645  1
  Al  Al12  1  0.13661496  0.88007842  0.25834407  1
  Si  Si0  1  0.99507653  0.50111097  0.50602944  1
  Si  Si1  1  0.15673266  0.34285314  0.18612348  1
  Ir  Ir0  1  0.00243623  0.99912860  0.50134035  1
  Ir  Ir1  1  0.49779024  0.99912860  0.99669337  1
  Ir  Ir2  1  0.49703744  0.49605218  0.99901574  1
  Ir  Ir3  1  0.49204785  0.49711405  0.49284691  1
  Ir  Ir4  1  0.00426714  0.49711205  0.00506520  1
  Ir  Ir5  1  0.00372680  0.00868652  0.00495872  1
  Ir  Ir6  1  0.49821565  0.99676907  0.49855243  1
loop_
_geom_bond_atom_site_label_1
_geom_bond_atom_site_label_2
_geom_bond_distance
_geom_bond_site_symmetry_2
Al0 Ir1 2.471652 1_555
Al0 Ir0 2.471654 1_555
Al0 Ir5 2.480525 1_566
Al1 Ir0 2.467339 1_545
Al1 Ir2 2.477574 1_555
Al1 Ir4 2.495937 1_556
Al2 Ir1 2.467357 1_544
Al2 Ir2 2.477576 1_554
Al2 Ir3 2.495929 1_555
Al3 Ir3 2.535344 1_555
Al3 Ir4 2.535362 1_656
Al3 Ir5 2.540032 1_666
Al4 Ir1 2.490954 1_544
Al4 Ir0 2.490962 1_645
Al4 Ir5 2.511011 1_655
Al5 Ir0 2.484437 1_655
Al5 Ir2 2.492628 1_554
Al5 Ir4 2.504357 1_655
Al6 Ir1 2.484441 1_555
Al6 Ir2 2.492628 1_555
Al6 Ir3 2.504356 1_555
Al7 Ir6 2.542345 1_545
Al7 Ir3 2.639204 1_555
Al7 Ir5 2.647698 1_555
Al7 Ir1 2.661760 1_544
Al7 Si1 2.783273 1_555
Al8 Ir6 2.542346 1_545
Al8 Ir4 2.639184 1_656
Al8 Ir5 2.647704 1_656
Al8 Ir0 2.661753 1_645
Al8 Si1 2.783302 1_656
Al9 Ir6 2.550777 1_555
Al9 Ir1 2.673673 1_554
Al9 Ir0 2.673679 1_655
Al9 Ir2 2.676944 1_554
Al10 Ir6 2.544476 1_545
Al10 Ir2 2.676781 1_555
Al10 Ir3 2.692208 1_555
Al10 Ir4 2.692215 1_656
Al11 Ir6 2.531990 1_555
Al11 Ir1 2.651750 1_555
Al11 Ir5 2.674933 1_666
Al11 Ir3 2.676421 1_555
Al12 Ir6 2.531949 1_555
Al12 Ir0 2.651792 1_555
Al12 Ir5 2.674933 1_565
Al12 Ir4 2.676442 1_555
Si0 Ti2 2.481748 1_655
Si0 Ti4 2.482428 1_555
Si0 Ti3 2.482438 1_655
Si0 Ti5 2.484082 1_555
Si0 Ti0 2.498844 1_555
Si0 Ti1 2.498870 1_655
Si1 Ti1 2.674790 1_555
Si1 Ti0 2.674799 1_455
Si1 Ti2 2.714782 1_555
Si1 Ti7 2.750486 1_555
Ir0 Ti6 2.643151 1_565
Ir1 Ti6 2.643171 1_565
Ir2 Ti6 2.613533 1_555
Ir2 Ti7 2.628064 1_556
Ir3 Si1 2.426649 1_555
Ir3 Ti7 2.623949 1_555
Ir3 Ti1 2.995411 1_555
Ir3 Ti2 3.043533 1_555
Ir3 Ti5 3.106086 1_555
Ir3 Ti4 3.140658 1_555
Ir4 Si1 2.426663 1_555
Ir4 Ti7 2.623909 1_555
Ir4 Ti0 2.995422 1_455
Ir4 Ti2 3.043563 1_555
Ir4 Ti5 3.106089 1_454
Ir4 Ti3 3.140653 1_554
Ir5 Si1 2.413174 1_555
Ir6 Ti7 2.540301 1_555
Ir6 Ti6 2.548593 1_565
