# generated using pymatgen
data_Hf6BeI12
_symmetry_space_group_name_H-M   'P 1'
_cell_length_a   9.17477453
_cell_length_b   9.17477498
_cell_length_c   9.17477505
_cell_angle_alpha   107.08576737
_cell_angle_beta   107.08577122
_cell_angle_gamma   107.08575467
_symmetry_Int_Tables_number   1
_chemical_formula_structural   Hf6BeI12
_chemical_formula_sum   'Hf6 Be1 I12'
_cell_volume   641.66844569
_cell_formula_units_Z   1
loop_
 _symmetry_equiv_pos_site_id
 _symmetry_equiv_pos_as_xyz
  1  'x, y, z'
loop_
 _atom_site_type_symbol
 _atom_site_label
 _atom_site_symmetry_multiplicity
 _atom_site_fract_x
 _atom_site_fract_y
 _atom_site_fract_z
 _atom_site_occupancy
  Hf  Hf0  1  0.97120673  0.72279775  0.90853525  1
  Hf  Hf1  1  0.27720225  0.09146475  0.02879327  1
  Hf  Hf2  1  0.09146475  0.02879327  0.27720225  1
  Hf  Hf3  1  0.90853525  0.97120673  0.72279775  1
  Hf  Hf4  1  0.72279775  0.90853525  0.97120673  1
  Hf  Hf5  1  0.02879327  0.27720225  0.09146475  1
  Be  Be0  1  0.00000000  0.00000000  0.00000000  1
  I  I0  1  0.92247617  0.30955174  0.77560169  1
  I  I1  1  0.69044826  0.22439831  0.07752383  1
  I  I2  1  0.44486374  0.14355860  0.36988395  1
  I  I3  1  0.85644140  0.63011605  0.55513626  1
  I  I4  1  0.22439831  0.07752383  0.69044826  1
  I  I5  1  0.63011605  0.55513626  0.85644140  1
  I  I6  1  0.36988395  0.44486374  0.14355860  1
  I  I7  1  0.77560169  0.92247617  0.30955174  1
  I  I8  1  0.14355860  0.36988395  0.44486374  1
  I  I9  1  0.55513626  0.85644140  0.63011605  1
  I  I10  1  0.30955174  0.77560169  0.92247617  1
  I  I11  1  0.07752383  0.69044826  0.22439831  1
loop_
_geom_bond_atom_site_label_1
_geom_bond_atom_site_label_2
_geom_bond_distance
_geom_bond_site_symmetry_2
Hf0 I3 2.862226 1_555
Hf0 I5 2.872011 1_555
Hf0 I11 2.907284 1_656
Hf0 I10 2.955326 1_655
Hf0 I0 3.468248 1_555
Hf1 I6 2.862227 1_555
Hf1 I2 2.872011 1_555
Hf1 I10 2.907284 1_544
Hf1 I4 2.955326 1_554
Hf1 I1 3.468248 1_555
Hf2 I2 2.862226 1_555
Hf2 I8 2.872011 1_555
Hf2 I7 2.907284 1_445
Hf2 I11 2.955326 1_545
Hf2 I4 3.468248 1_555
Hf3 I9 2.862226 1_555
Hf3 I3 2.872011 1_555
Hf3 I4 2.907284 1_665
Hf3 I0 2.955326 1_565
Hf3 I7 3.468248 1_555
Hf4 I5 2.862227 1_555
Hf4 I9 2.872011 1_555
Hf4 I1 2.907284 1_566
Hf4 I7 2.955326 1_556
Hf4 I10 3.468248 1_555
Hf5 I8 2.862226 1_555
Hf5 I6 2.872011 1_555
Hf5 I0 2.907284 1_454
Hf5 I1 2.955326 1_455
Hf5 I11 3.468248 1_555
Be0 Hf2 2.337320 1_555
Be0 Hf3 2.337320 1_444
Be0 Hf4 2.337320 1_444
Be0 Hf1 2.337320 1_555
Be0 Hf0 2.337320 1_444
Be0 Hf5 2.337320 1_555
