# generated using pymatgen
data_NbZn2
_symmetry_space_group_name_H-M   'P 1'
_cell_length_a   5.02844772
_cell_length_b   5.02844737
_cell_length_c   16.26019476
_cell_angle_alpha   90.00000000
_cell_angle_beta   90.00000000
_cell_angle_gamma   120.00001570
_symmetry_Int_Tables_number   1
_chemical_formula_structural   NbZn2
_chemical_formula_sum   'Nb8 Zn16'
_cell_volume   356.06079263
_cell_formula_units_Z   8
loop_
 _symmetry_equiv_pos_site_id
 _symmetry_equiv_pos_as_xyz
  1  'x, y, z'
loop_
 _atom_site_type_symbol
 _atom_site_label
 _atom_site_symmetry_multiplicity
 _atom_site_fract_x
 _atom_site_fract_y
 _atom_site_fract_z
 _atom_site_occupancy
  Nb  Nb0  1  0.33333300  0.66666700  0.65684751  1
  Nb  Nb1  1  0.66666700  0.33333300  0.15684751  1
  Nb  Nb2  1  0.66666700  0.33333300  0.34315249  1
  Nb  Nb3  1  0.33333300  0.66666700  0.84315249  1
  Nb  Nb4  1  0.00000000  -0.00000000  0.40913970  1
  Nb  Nb5  1  0.00000000  -0.00000000  0.90913970  1
  Nb  Nb6  1  0.00000000  -0.00000000  0.59086030  1
  Nb  Nb7  1  0.00000000  -0.00000000  0.09086030  1
  Zn  Zn0  1  0.83922044  0.67844088  0.75000000  1
  Zn  Zn1  1  0.16077956  0.83922044  0.25000000  1
  Zn  Zn2  1  0.67844088  0.83922044  0.25000000  1
  Zn  Zn3  1  0.32155912  0.16077956  0.75000000  1
  Zn  Zn4  1  0.83922044  0.16077956  0.75000000  1
  Zn  Zn5  1  0.16077956  0.32155912  0.25000000  1
  Zn  Zn6  1  0.50000000  -0.00000000  0.50000000  1
  Zn  Zn7  1  0.50000000  0.50000000  -0.00000000  1
  Zn  Zn8  1  0.33333300  0.66666700  0.12685254  1
  Zn  Zn9  1  0.66666700  0.33333300  0.62685254  1
  Zn  Zn10  1  0.66666700  0.33333300  0.87314746  1
  Zn  Zn11  1  0.33333300  0.66666700  0.37314746  1
  Zn  Zn12  1  0.50000000  -0.00000000  -0.00000000  1
  Zn  Zn13  1  0.50000000  0.50000000  0.50000000  1
  Zn  Zn14  1  0.00000000  0.50000000  0.50000000  1
  Zn  Zn15  1  0.00000000  0.50000000  -0.00000000  1
loop_
_geom_bond_atom_site_label_1
_geom_bond_atom_site_label_2
_geom_bond_distance
_geom_bond_site_symmetry_2
Nb0 Zn6 2.934535 1_565
Nb0 Zn14 2.934535 1_555
Nb0 Zn13 2.934537 1_555
Nb0 Zn3 2.935675 1_565
Nb0 Zn0 2.935675 1_455
Nb0 Zn4 2.935676 1_455
Nb0 Zn4 2.935676 1_565
Nb0 Zn3 2.935679 1_555
Nb0 Zn0 2.935679 1_555
Nb0 Zn9 2.943855 1_565
Nb0 Zn9 2.943855 1_455
Nb0 Zn9 2.943864 1_555
Nb0 Nb3 3.029355 1_555
Nb0 Nb6 3.095104 1_565
Nb0 Nb6 3.095107 1_555
Nb0 Nb6 3.095107 1_665
Nb1 Zn12 2.934535 1_555
Nb1 Zn15 2.934535 1_655
Nb1 Zn7 2.934537 1_555
Nb1 Zn2 2.935675 1_545
Nb1 Zn5 2.935675 1_655
Nb1 Zn1 2.935676 1_655
Nb1 Zn1 2.935676 1_545
Nb1 Zn2 2.935679 1_555
Nb1 Zn5 2.935679 1_555
Nb1 Zn8 2.943855 1_545
Nb1 Zn8 2.943855 1_655
Nb1 Zn8 2.943864 1_555
Nb1 Nb2 3.029355 1_555
Nb1 Nb7 3.095104 1_655
Nb1 Nb7 3.095107 1_665
Nb1 Nb7 3.095107 1_555
Nb2 Zn6 2.934535 1_555
Nb2 Zn14 2.934535 1_655
Nb2 Zn13 2.934537 1_555
Nb2 Zn2 2.935675 1_545
Nb2 Zn5 2.935675 1_655
Nb2 Zn1 2.935676 1_655
Nb2 Zn1 2.935676 1_545
Nb2 Zn2 2.935679 1_555
Nb2 Zn5 2.935679 1_555
Nb2 Zn11 2.943855 1_545
Nb2 Zn11 2.943855 1_655
Nb2 Zn11 2.943864 1_555
Nb2 Nb4 3.095104 1_655
Nb2 Nb4 3.095107 1_665
Nb2 Nb4 3.095107 1_555
Nb3 Zn12 2.934535 1_566
Nb3 Zn15 2.934535 1_556
Nb3 Zn7 2.934537 1_556
Nb3 Zn3 2.935675 1_565
Nb3 Zn0 2.935675 1_455
Nb3 Zn4 2.935676 1_455
Nb3 Zn4 2.935676 1_565
Nb3 Zn3 2.935679 1_555
Nb3 Zn0 2.935679 1_555
Nb3 Zn10 2.943855 1_565
Nb3 Zn10 2.943855 1_455
Nb3 Zn10 2.943864 1_555
Nb3 Nb5 3.095104 1_565
Nb3 Nb5 3.095107 1_555
Nb3 Nb5 3.095107 1_665
Nb4 Zn13 2.916170 1_555
Nb4 Zn13 2.916170 1_445
Nb4 Zn14 2.916170 1_555
Nb4 Zn14 2.916170 1_545
Nb4 Zn6 2.916171 1_455
Nb4 Zn6 2.916171 1_555
Nb4 Zn5 2.942239 1_555
Nb4 Zn2 2.942239 1_445
Nb4 Zn1 2.942239 1_545
Nb4 Nb6 2.954812 1_555
Nb4 Zn11 2.961574 1_545
Nb4 Zn11 2.961577 1_555
Nb4 Zn11 2.961578 1_445
Nb5 Zn7 2.916170 1_446
Nb5 Zn7 2.916170 1_556
Nb5 Zn15 2.916170 1_546
Nb5 Zn15 2.916170 1_556
Nb5 Zn12 2.916171 1_456
Nb5 Zn12 2.916171 1_556
Nb5 Zn0 2.942239 1_445
Nb5 Zn3 2.942239 1_555
Nb5 Zn4 2.942239 1_455
Nb5 Nb7 2.954812 1_556
Nb5 Zn10 2.961574 1_455
Nb5 Zn10 2.961577 1_445
Nb5 Zn10 2.961578 1_555
Nb6 Zn13 2.916170 1_445
Nb6 Zn13 2.916170 1_555
Nb6 Zn14 2.916170 1_555
Nb6 Zn14 2.916170 1_545
Nb6 Zn6 2.916171 1_455
Nb6 Zn6 2.916171 1_555
Nb6 Zn0 2.942239 1_445
Nb6 Zn3 2.942239 1_555
Nb6 Zn4 2.942239 1_455
Nb6 Zn9 2.961574 1_455
Nb6 Zn9 2.961577 1_445
Nb6 Zn9 2.961578 1_555
Nb7 Zn7 2.916170 1_445
Nb7 Zn7 2.916170 1_555
Nb7 Zn15 2.916170 1_545
Nb7 Zn15 2.916170 1_555
Nb7 Zn12 2.916171 1_455
Nb7 Zn12 2.916171 1_555
Nb7 Zn5 2.942239 1_555
Nb7 Zn2 2.942239 1_445
Nb7 Zn1 2.942239 1_545
Nb7 Zn8 2.961574 1_545
Nb7 Zn8 2.961577 1_555
Nb7 Zn8 2.961578 1_445
Zn0 Zn3 2.425414 1_665
Zn0 Zn4 2.425415 1_565
Zn0 Zn10 2.503639 1_555
Zn0 Zn9 2.503639 1_555
Zn0 Zn3 2.603032 1_555
Zn0 Zn4 2.603033 1_555
Zn1 Zn5 2.425415 1_565
Zn1 Zn2 2.425415 1_455
Zn1 Zn11 2.503637 1_555
Zn1 Zn8 2.503637 1_555
Zn1 Zn5 2.603033 1_555
Zn1 Zn2 2.603033 1_555
Zn2 Zn5 2.425414 1_665
Zn2 Zn8 2.503639 1_555
Zn2 Zn5 2.603032 1_555
Zn3 Zn4 2.425415 1_455
Zn3 Zn9 2.503639 1_555
Zn3 Zn4 2.603033 1_555
Zn4 Zn9 2.503637 1_555
Zn5 Zn8 2.503639 1_555
Zn6 Zn9 2.522224 1_555
Zn7 Zn8 2.522227 1_555
Zn10 Zn4 2.503637 1_555
Zn10 Zn3 2.503639 1_555
Zn10 Zn12 2.522224 1_556
Zn10 Zn15 2.522224 1_656
Zn10 Zn7 2.522227 1_556
Zn11 Zn5 2.503639 1_555
Zn11 Zn2 2.503639 1_555
Zn11 Zn6 2.522224 1_565
Zn11 Zn14 2.522224 1_555
Zn11 Zn13 2.522227 1_555
Zn12 Zn15 2.514223 1_545
Zn12 Zn15 2.514223 1_655
Zn12 Zn7 2.514224 1_545
Zn12 Zn7 2.514224 1_555
Zn12 Zn8 2.522224 1_545
Zn13 Zn6 2.514224 1_555
Zn13 Zn6 2.514224 1_565
Zn13 Zn14 2.514224 1_555
Zn13 Zn14 2.514224 1_655
Zn13 Zn9 2.522227 1_555
Zn14 Zn6 2.514223 1_455
Zn14 Zn6 2.514223 1_565
Zn14 Zn9 2.522224 1_455
Zn15 Zn7 2.514224 1_455
Zn15 Zn7 2.514224 1_555
Zn15 Zn8 2.522224 1_555
