# generated using pymatgen
data_Tc(TeBr6)2
_symmetry_space_group_name_H-M   'P 1'
_cell_length_a   9.41847273
_cell_length_b   9.41847264
_cell_length_c   6.81212348
_cell_angle_alpha   72.29397375
_cell_angle_beta   72.29396959
_cell_angle_gamma   76.86899360
_symmetry_Int_Tables_number   1
_chemical_formula_structural   Tc(TeBr6)2
_chemical_formula_sum   'Tc1 Te2 Br12'
_cell_volume   542.31968025
_cell_formula_units_Z   1
loop_
 _symmetry_equiv_pos_site_id
 _symmetry_equiv_pos_as_xyz
  1  'x, y, z'
loop_
 _atom_site_type_symbol
 _atom_site_label
 _atom_site_symmetry_multiplicity
 _atom_site_fract_x
 _atom_site_fract_y
 _atom_site_fract_z
 _atom_site_occupancy
  Tc  Tc0  1  0.00000000  0.00000000  0.00000000  1
  Te  Te0  1  0.27428452  0.27428452  0.72742393  1
  Te  Te1  1  0.72571548  0.72571548  0.27257607  1
  Br  Br0  1  0.94962578  0.25320984  0.74666212  1
  Br  Br1  1  0.25320984  0.94962578  0.74666213  1
  Br  Br2  1  0.05037422  0.74679016  0.25333788  1
  Br  Br3  1  0.74679016  0.05037422  0.25333787  1
  Br  Br4  1  0.21259136  0.53414304  0.78993359  1
  Br  Br5  1  0.53414304  0.21259136  0.78993359  1
  Br  Br6  1  0.78740864  0.46585696  0.21006641  1
  Br  Br7  1  0.46585696  0.78740864  0.21006641  1
  Br  Br8  1  0.12029018  0.12029018  0.18073582  1
  Br  Br9  1  0.87970982  0.87970982  0.81926418  1
  Br  Br10  1  0.64422878  0.64422878  0.67478869  1
  Br  Br11  1  0.35577122  0.35577122  0.32521131  1
loop_
_geom_bond_atom_site_label_1
_geom_bond_atom_site_label_2
_geom_bond_distance
_geom_bond_site_symmetry_2
Br0 Tc0 2.524161 1_656
Br0 Te0 3.069665 1_655
Br1 Tc0 2.524161 1_566
Br1 Te0 3.069665 1_565
Br2 Tc0 2.524161 1_565
Br2 Te1 3.069665 1_455
Br3 Tc0 2.524161 1_655
Br3 Te1 3.069665 1_545
Br4 Te0 2.519195 1_555
Br5 Te0 2.519195 1_555
Br6 Te1 2.519195 1_555
Br7 Te1 2.519195 1_555
Br8 Tc0 2.522521 1_555
Br8 Te0 3.041426 1_554
Br9 Tc0 2.522521 1_666
Br9 Te1 3.041426 1_556
Br10 Te1 2.528771 1_555
Br11 Te0 2.528771 1_555
