# generated using pymatgen
data_Ca7In2SnN2
_symmetry_space_group_name_H-M   'P 1'
_cell_length_a   12.63245452
_cell_length_b   12.63245458
_cell_length_c   4.83858811
_cell_angle_alpha   90.00000000
_cell_angle_beta   90.00000000
_cell_angle_gamma   157.55712061
_symmetry_Int_Tables_number   1
_chemical_formula_structural   Ca7In2SnN2
_chemical_formula_sum   'Ca7 In2 Sn1 N2'
_cell_volume   294.77255948
_cell_formula_units_Z   1
loop_
 _symmetry_equiv_pos_site_id
 _symmetry_equiv_pos_as_xyz
  1  'x, y, z'
loop_
 _atom_site_type_symbol
 _atom_site_label
 _atom_site_symmetry_multiplicity
 _atom_site_fract_x
 _atom_site_fract_y
 _atom_site_fract_z
 _atom_site_occupancy
  Ca  Ca0  1  0.90365125  0.09634775  0.00000000  1
  Ca  Ca1  1  0.69440457  0.30559443  0.00000000  1
  Ca  Ca2  1  0.50000000  0.50000000  0.00000000  1
  Ca  Ca3  1  0.30559443  0.69440457  0.00000000  1
  Ca  Ca4  1  0.09634775  0.90365125  0.00000000  1
  Ca  Ca5  1  0.59503488  0.40496512  0.50000100  1
  Ca  Ca6  1  0.40496512  0.59503488  0.50000100  1
  In  In0  1  0.79066520  0.20933380  0.50000100  1
  In  In1  1  0.20933380  0.79066520  0.50000100  1
  Sn  Sn0  1  0.00000000  0.00000000  0.50000100  1
  N  N0  1  0.60169686  0.39830214  0.00000000  1
  N  N1  1  0.39830214  0.60169686  0.00000000  1
loop_
_geom_bond_atom_site_label_1
_geom_bond_atom_site_label_2
_geom_bond_distance
_geom_bond_site_symmetry_2
Ca0 N1 2.461865 1_545
Ca0 N1 2.461865 1_655
Ca0 Sn0 3.399123 1_654
Ca0 Sn0 3.399130 1_655
Ca0 In0 3.700407 1_554
Ca0 In0 3.700413 1_555
Ca1 N0 2.297473 1_555
Ca1 In0 3.397598 1_554
Ca1 In0 3.397605 1_555
Ca1 In1 3.468868 1_654
Ca1 In1 3.468868 1_544
Ca1 In1 3.468875 1_655
Ca1 In1 3.468875 1_545
Ca2 N1 2.520254 1_555
Ca2 N0 2.520254 1_555
Ca2 Sn0 3.449082 1_554
Ca2 Sn0 3.449082 1_664
Ca2 Sn0 3.449089 1_665
Ca2 Sn0 3.449089 1_555
Ca3 N1 2.297473 1_555
Ca3 In1 3.397598 1_554
Ca3 In1 3.397605 1_555
Ca3 In0 3.468868 1_454
Ca3 In0 3.468868 1_564
Ca3 In0 3.468875 1_455
Ca3 In0 3.468875 1_565
Ca4 N0 2.461865 1_565
Ca4 N0 2.461865 1_455
Ca4 Sn0 3.399123 1_564
Ca4 Sn0 3.399130 1_565
Ca4 In1 3.700407 1_554
Ca4 In1 3.700413 1_555
Ca5 N0 2.424917 1_556
Ca5 N0 2.424926 1_555
Ca5 Sn0 3.404396 1_555
Ca5 Sn0 3.404397 1_665
Ca5 In1 3.750543 1_655
Ca5 In1 3.750547 1_545
Ca6 N1 2.424917 1_556
Ca6 N1 2.424926 1_555
Ca6 Sn0 3.404396 1_665
Ca6 Sn0 3.404397 1_555
Ca6 In0 3.750543 1_565
Ca6 In0 3.750547 1_455
In0 In1 3.178936 1_545
In0 In1 3.178936 1_655
