# generated using pymatgen
data_Lu12InTc3Te
_symmetry_space_group_name_H-M   'P 1'
_cell_length_a   8.28757036
_cell_length_b   8.28757112
_cell_length_c   8.28757147
_cell_angle_alpha   111.30585626
_cell_angle_beta   108.65709187
_cell_angle_gamma   108.46648694
_symmetry_Int_Tables_number   1
_chemical_formula_structural   Lu12InTc3Te
_chemical_formula_sum   'Lu12 In1 Tc3 Te1'
_cell_volume   437.84809387
_cell_formula_units_Z   1
loop_
 _symmetry_equiv_pos_site_id
 _symmetry_equiv_pos_as_xyz
  1  'x, y, z'
loop_
 _atom_site_type_symbol
 _atom_site_label
 _atom_site_symmetry_multiplicity
 _atom_site_fract_x
 _atom_site_fract_y
 _atom_site_fract_z
 _atom_site_occupancy
  Lu  Lu0  1  0.32594241  0.31814757  0.64409098  1
  Lu  Lu1  1  0.67405759  0.68185243  0.35590902  1
  Lu  Lu2  1  0.67405759  0.31814757  0.99220616  1
  Lu  Lu3  1  0.32594241  0.68185243  0.00779384  1
  Lu  Lu4  1  0.18798892  0.43067736  0.24268844  1
  Lu  Lu5  1  0.81201108  0.56932264  0.75731156  1
  Lu  Lu6  1  0.18798892  0.94530048  0.75731156  1
  Lu  Lu7  1  0.94120950  0.17851424  0.76269626  1
  Lu  Lu8  1  0.81201108  0.05469952  0.24268844  1
  Lu  Lu9  1  0.05879050  0.82148576  0.23730374  1
  Lu  Lu10  1  0.41581898  0.17851424  0.23730374  1
  Lu  Lu11  1  0.58418102  0.82148576  0.76269626  1
  In  In0  1  0.50000000  0.00000000  0.50000000  1
  Tc  Tc0  1  0.33927238  0.33927238  1.00000000  1
  Tc  Tc1  1  0.66072762  0.66072762  0.00000000  1
  Tc  Tc2  1  0.00000000  0.00000000  0.00000000  1
  Te  Te0  1  0.00000000  0.50000000  0.50000000  1
loop_
_geom_bond_atom_site_label_1
_geom_bond_atom_site_label_2
_geom_bond_distance
_geom_bond_site_symmetry_2
Lu0 Tc0 2.854316 1_555
Lu0 Tc1 2.854322 1_556
Lu0 Te0 3.580131 1_555
Lu1 Tc1 2.854316 1_555
Lu1 Tc0 2.854322 1_554
Lu1 Te0 3.580131 1_655
Lu2 Tc0 2.854322 1_555
Lu2 Tc1 2.854327 1_556
Lu2 Te0 3.580123 1_656
Lu3 Tc1 2.854322 1_555
Lu3 Tc0 2.854327 1_554
Lu3 Te0 3.580123 1_554
Lu4 Tc0 2.701665 1_554
Lu4 Tc2 2.909949 1_555
Lu4 Te0 3.017821 1_555
Lu5 Tc1 2.701665 1_556
Lu5 Tc2 2.909949 1_666
Lu5 Te0 3.017821 1_655
Lu6 Tc0 2.701666 1_565
Lu6 Tc2 2.909949 1_566
Lu6 Te0 3.017821 1_555
Lu7 Tc0 2.772460 1_655
Lu7 Tc2 2.872614 1_656
Lu8 Tc1 2.701666 1_545
Lu8 Tc2 2.909949 1_655
Lu8 Te0 3.017821 1_655
Lu9 Tc1 2.772460 1_455
Lu9 Tc2 2.872614 1_565
Lu10 Tc0 2.772455 1_554
Lu10 Tc2 2.872620 1_555
Lu11 Tc1 2.772455 1_556
Lu11 Tc2 2.872620 1_666
In0 Lu7 3.072131 1_555
In0 Lu9 3.072131 1_545
In0 Lu11 3.072137 1_545
In0 Lu10 3.072137 1_555
In0 Lu0 3.417958 1_555
In0 Lu1 3.417958 1_545
In0 Lu2 3.417963 1_555
In0 Lu3 3.417963 1_545
In0 Lu8 3.863597 1_555
In0 Lu6 3.863597 1_545
In0 Lu5 3.863597 1_555
In0 Lu4 3.863597 1_545
