# generated using pymatgen
data_YLu3(ZnSn)4
_symmetry_space_group_name_H-M   'P 1'
_cell_length_a   4.41151906
_cell_length_b   4.41152000
_cell_length_c   15.88240506
_cell_angle_alpha   90.00000000
_cell_angle_beta   90.00000000
_cell_angle_gamma   120.00000695
_symmetry_Int_Tables_number   1
_chemical_formula_structural   YLu3(ZnSn)4
_chemical_formula_sum   'Y1 Lu3 Zn4 Sn4'
_cell_volume   267.68453530
_cell_formula_units_Z   1
loop_
 _symmetry_equiv_pos_site_id
 _symmetry_equiv_pos_as_xyz
  1  'x, y, z'
loop_
 _atom_site_type_symbol
 _atom_site_label
 _atom_site_symmetry_multiplicity
 _atom_site_fract_x
 _atom_site_fract_y
 _atom_site_fract_z
 _atom_site_occupancy
  Y  Y0  1  0.00000000  0.00000000  0.00000000  1
  Lu  Lu0  1  0.00000000  0.00000000  0.25288380  1
  Lu  Lu1  1  0.00000000  0.00000000  0.74711620  1
  Lu  Lu2  1  0.00000000  0.00000000  0.50000000  1
  Zn  Zn0  1  0.33333300  0.66666700  0.16679252  1
  Zn  Zn1  1  0.66666700  0.33333300  0.83320748  1
  Zn  Zn2  1  0.66666700  0.33333300  0.66292619  1
  Zn  Zn3  1  0.33333300  0.66666700  0.33707381  1
  Sn  Sn0  1  0.33333300  0.66666700  0.61094870  1
  Sn  Sn1  1  0.66666700  0.33333300  0.38905130  1
  Sn  Sn2  1  0.66666700  0.33333300  0.11693258  1
  Sn  Sn3  1  0.33333300  0.66666700  0.88306742  1
loop_
_geom_bond_atom_site_label_1
_geom_bond_atom_site_label_2
_geom_bond_distance
_geom_bond_site_symmetry_2
Lu0 Zn3 2.876647 1_545
Lu0 Zn3 2.876650 1_445
Lu0 Zn3 2.876650 1_555
Lu0 Zn0 2.890807 1_545
Lu0 Zn0 2.890810 1_445
Lu0 Zn0 2.890810 1_555
Lu0 Sn2 3.339078 1_455
Lu0 Sn2 3.339080 1_555
Lu0 Sn2 3.339081 1_445
Lu1 Zn2 2.876647 1_455
Lu1 Zn2 2.876650 1_555
Lu1 Zn2 2.876650 1_445
Lu1 Zn1 2.890807 1_455
Lu1 Zn1 2.890810 1_555
Lu1 Zn1 2.890810 1_445
Lu1 Sn3 3.339078 1_545
Lu1 Sn3 3.339080 1_445
Lu1 Sn3 3.339081 1_555
Lu2 Sn0 3.097138 1_545
Lu2 Sn1 3.097138 1_455
Lu2 Sn0 3.097141 1_445
Lu2 Sn1 3.097141 1_555
Lu2 Sn0 3.097141 1_555
Lu2 Sn1 3.097141 1_445
Zn0 Zn3 2.704476 1_555
Zn1 Zn2 2.704476 1_555
Sn0 Zn2 2.677433 1_455
Sn0 Zn2 2.677434 1_565
Sn0 Zn2 2.677441 1_555
Sn1 Zn3 2.677433 1_655
Sn1 Zn3 2.677434 1_545
Sn1 Zn3 2.677441 1_555
Sn2 Zn0 2.667256 1_655
Sn2 Zn0 2.667256 1_545
Sn2 Zn0 2.667263 1_555
Sn2 Y0 3.152180 1_655
Sn2 Y0 3.152183 1_555
Sn2 Y0 3.152183 1_665
Sn3 Zn1 2.667256 1_455
Sn3 Zn1 2.667256 1_565
Sn3 Zn1 2.667263 1_555
Sn3 Y0 3.152180 1_566
Sn3 Y0 3.152183 1_666
Sn3 Y0 3.152183 1_556
