# generated using pymatgen
data_Cs3NaI2O9
_symmetry_space_group_name_H-M   'P 1'
_cell_length_a   6.43129363
_cell_length_b   6.43129238
_cell_length_c   14.94635529
_cell_angle_alpha   90.00000000
_cell_angle_beta   90.00000000
_cell_angle_gamma   120.00000644
_symmetry_Int_Tables_number   1
_chemical_formula_structural   Cs3NaI2O9
_chemical_formula_sum   'Cs6 Na2 I4 O18'
_cell_volume   535.38043724
_cell_formula_units_Z   2
loop_
 _symmetry_equiv_pos_site_id
 _symmetry_equiv_pos_as_xyz
  1  'x, y, z'
loop_
 _atom_site_type_symbol
 _atom_site_label
 _atom_site_symmetry_multiplicity
 _atom_site_fract_x
 _atom_site_fract_y
 _atom_site_fract_z
 _atom_site_occupancy
  Cs  Cs0  1  0.33333300  0.66666700  0.09656541  1
  Cs  Cs1  1  0.66666700  0.33333300  0.90343459  1
  Cs  Cs2  1  0.66666700  0.33333300  0.59656541  1
  Cs  Cs3  1  0.33333300  0.66666700  0.40343459  1
  Cs  Cs4  1  0.00000000  0.00000000  0.25000000  1
  Cs  Cs5  1  0.00000000  0.00000000  0.75000000  1
  Na  Na0  1  0.00000000  0.00000000  0.00000000  1
  Na  Na1  1  0.00000000  0.00000000  0.50000000  1
  I  I0  1  0.33333300  0.66666700  0.65296324  1
  I  I1  1  0.66666700  0.33333300  0.34703676  1
  I  I2  1  0.66666700  0.33333300  0.15296324  1
  I  I3  1  0.33333300  0.66666700  0.84703676  1
  O  O0  1  0.53949373  0.07898845  0.25000000  1
  O  O1  1  0.46050627  0.92101155  0.75000000  1
  O  O2  1  0.92101155  0.46050627  0.25000000  1
  O  O3  1  0.07898845  0.53949373  0.75000000  1
  O  O4  1  0.53949373  0.46050627  0.25000000  1
  O  O5  1  0.46050627  0.53949373  0.75000000  1
  O  O6  1  0.19068477  0.38137155  0.59495922  1
  O  O7  1  0.80931523  0.61862845  0.40504078  1
  O  O8  1  0.61862845  0.80931523  0.59495922  1
  O  O9  1  0.80931523  0.61862845  0.09495922  1
  O  O10  1  0.38137155  0.19068477  0.40504078  1
  O  O11  1  0.19068477  0.38137155  0.90504078  1
  O  O12  1  0.19068477  0.80931523  0.59495922  1
  O  O13  1  0.38137155  0.19068477  0.09495922  1
  O  O14  1  0.80931523  0.19068477  0.40504078  1
  O  O15  1  0.61862845  0.80931523  0.90504078  1
  O  O16  1  0.80931523  0.19068477  0.09495922  1
  O  O17  1  0.19068477  0.80931523  0.90504078  1
loop_
_geom_bond_atom_site_label_1
_geom_bond_atom_site_label_2
_geom_bond_distance
_geom_bond_site_symmetry_2
Cs0 O13 3.226838 1_565
Cs0 O9 3.226838 1_455
Cs0 O16 3.226846 1_565
Cs0 O16 3.226846 1_455
Cs0 O13 3.226857 1_555
Cs0 O9 3.226858 1_555
Cs0 O0 3.245465 1_565
Cs0 O4 3.245465 1_555
Cs0 O2 3.245465 1_455
Cs0 O11 3.274045 1_554
Cs0 O15 3.274045 1_554
Cs0 O17 3.274048 1_554
Cs1 O15 3.226838 1_545
Cs1 O11 3.226838 1_655
Cs1 O17 3.226846 1_545
Cs1 O17 3.226846 1_655
Cs1 O15 3.226857 1_555
Cs1 O11 3.226858 1_555
Cs1 O1 3.245465 1_545
Cs1 O5 3.245465 1_555
Cs1 O3 3.245465 1_655
Cs1 O9 3.274045 1_556
Cs1 O13 3.274045 1_556
Cs1 O16 3.274048 1_556
Cs2 O8 3.226838 1_545
Cs2 O6 3.226838 1_655
Cs2 O12 3.226846 1_545
Cs2 O12 3.226846 1_655
Cs2 O8 3.226857 1_555
Cs2 O6 3.226858 1_555
Cs2 O1 3.245465 1_545
Cs2 O5 3.245465 1_555
Cs2 O3 3.245465 1_655
Cs2 O7 3.274045 1_555
Cs2 O10 3.274045 1_555
Cs2 O14 3.274048 1_555
Cs3 O10 3.226838 1_565
Cs3 O7 3.226838 1_455
Cs3 O14 3.226846 1_565
Cs3 O14 3.226846 1_455
Cs3 O10 3.226857 1_555
Cs3 O7 3.226858 1_555
Cs3 O0 3.245465 1_565
Cs3 O4 3.245465 1_555
Cs3 O2 3.245465 1_455
Cs3 O6 3.274045 1_555
Cs3 O8 3.274045 1_555
Cs3 O12 3.274048 1_555
Cs4 O14 3.143510 1_455
Cs4 O16 3.143510 1_455
Cs4 O7 3.143517 1_445
Cs4 O9 3.143517 1_445
Cs4 O10 3.143518 1_555
Cs4 O13 3.143518 1_555
Cs4 O2 3.245598 1_445
Cs4 O0 3.245599 1_555
Cs4 O4 3.245600 1_445
Cs4 O4 3.245600 1_555
Cs4 O2 3.245604 1_455
Cs4 O0 3.245605 1_455
Cs5 O17 3.143510 1_545
Cs5 O12 3.143510 1_545
Cs5 O11 3.143517 1_555
Cs5 O6 3.143517 1_555
Cs5 O15 3.143518 1_445
Cs5 O8 3.143518 1_445
Cs5 O3 3.245598 1_555
Cs5 O1 3.245599 1_445
Cs5 O5 3.245600 1_555
Cs5 O5 3.245600 1_445
Cs5 O3 3.245604 1_545
Cs5 O1 3.245605 1_545
Na0 O16 2.554642 1_455
Na0 O17 2.554642 1_544
Na0 O9 2.554651 1_445
Na0 O11 2.554651 1_554
Na0 O13 2.554651 1_555
Na0 O15 2.554651 1_444
Na1 O12 2.554642 1_545
Na1 O14 2.554642 1_455
Na1 O6 2.554651 1_555
Na1 O7 2.554651 1_445
Na1 O8 2.554651 1_445
Na1 O10 2.554651 1_555
I0 O6 1.810116 1_555
I0 O8 1.810116 1_555
I0 O12 1.810121 1_555
I0 O1 2.027387 1_555
I0 O3 2.027387 1_555
I0 O5 2.027395 1_555
I1 O7 1.810116 1_555
I1 O10 1.810116 1_555
I1 O14 1.810121 1_555
I1 O0 2.027387 1_555
I1 O2 2.027387 1_555
I1 O4 2.027395 1_555
I2 O9 1.810116 1_555
I2 O13 1.810116 1_555
I2 O16 1.810121 1_555
I2 O0 2.027387 1_555
I2 O2 2.027387 1_555
I2 O4 2.027395 1_555
I3 O11 1.810116 1_555
I3 O15 1.810116 1_555
I3 O17 1.810121 1_555
I3 O1 2.027387 1_555
I3 O3 2.027387 1_555
I3 O5 2.027395 1_555
