# generated using pymatgen
data_CaY7SbPd24
_symmetry_space_group_name_H-M   'P 1'
_cell_length_a   8.34264819
_cell_length_b   8.34264819
_cell_length_c   8.34264819
_cell_angle_alpha   89.89747040
_cell_angle_beta   89.89747040
_cell_angle_gamma   90.10252960
_symmetry_Int_Tables_number   1
_chemical_formula_structural   CaY7SbPd24
_chemical_formula_sum   'Ca1 Y7 Sb1 Pd24'
_cell_volume   580.64367740
_cell_formula_units_Z   1
loop_
 _symmetry_equiv_pos_site_id
 _symmetry_equiv_pos_as_xyz
  1  'x, y, z'
loop_
 _atom_site_type_symbol
 _atom_site_label
 _atom_site_symmetry_multiplicity
 _atom_site_fract_x
 _atom_site_fract_y
 _atom_site_fract_z
 _atom_site_occupancy
  Ca  Ca0  1  0.74834711  0.74834711  0.25165289  1
  Y  Y0  1  0.74626222  0.25349861  0.74650139  1
  Y  Y1  1  0.25349861  0.74626222  0.74650139  1
  Y  Y2  1  0.74668568  0.74668568  0.74587499  1
  Y  Y3  1  0.74668568  0.25412501  0.25331432  1
  Y  Y4  1  0.25290747  0.25290747  0.74709253  1
  Y  Y5  1  0.25412501  0.74668568  0.25331432  1
  Y  Y6  1  0.25349861  0.25349861  0.25373778  1
  Sb  Sb0  1  0.99861263  0.99861263  0.00138737  1
  Pd  Pd0  1  0.00112002  0.00112002  0.30808894  1
  Pd  Pd1  1  0.73488021  0.00276733  0.50113823  1
  Pd  Pd2  1  0.73488021  0.49886177  0.99723267  1
  Pd  Pd3  1  0.49936113  0.00015057  0.73510175  1
  Pd  Pd4  1  0.00276733  0.73488021  0.50113823  1
  Pd  Pd5  1  0.49886177  0.00276733  0.26511979  1
  Pd  Pd6  1  0.00015057  0.26489825  0.50063887  1
  Pd  Pd7  1  0.49886177  0.73488021  0.99723267  1
  Pd  Pd8  1  0.25508186  0.49951214  0.50048786  1
  Pd  Pd9  1  0.49951214  0.49951214  0.74491814  1
  Pd  Pd10  1  0.49889332  0.49889332  0.25432573  1
  Pd  Pd11  1  0.49951214  0.25508186  0.50048786  1
  Pd  Pd12  1  0.49889332  0.74567427  0.50110668  1
  Pd  Pd13  1  0.74567427  0.49889332  0.50110668  1
  Pd  Pd14  1  0.30632738  0.99974645  0.00025355  1
  Pd  Pd15  1  0.99974645  0.99974645  0.69367262  1
  Pd  Pd16  1  0.00276733  0.49886177  0.26511979  1
  Pd  Pd17  1  0.99974645  0.30632738  0.00025355  1
  Pd  Pd18  1  0.00112002  0.69191106  0.99887998  1
  Pd  Pd19  1  0.69191106  0.00112002  0.99887998  1
  Pd  Pd20  1  0.26489825  0.49936113  0.99984943  1
  Pd  Pd21  1  0.26489825  0.00015057  0.50063887  1
  Pd  Pd22  1  0.00015057  0.49936113  0.73510175  1
  Pd  Pd23  1  0.49936113  0.26489825  0.99984943  1
loop_
_geom_bond_atom_site_label_1
_geom_bond_atom_site_label_2
_geom_bond_distance
_geom_bond_site_symmetry_2
Ca0 Pd10 2.940521 1_555
Ca0 Pd12 2.940521 1_555
Ca0 Pd13 2.940521 1_555
Ca0 Pd2 2.977535 1_554
Ca0 Pd5 2.977535 1_565
Ca0 Pd7 2.977535 1_554
Ca0 Pd4 2.977535 1_655
Ca0 Pd1 2.977535 1_565
Ca0 Pd16 2.977535 1_655
Ca0 Pd0 3.017765 1_665
Ca0 Pd18 3.017765 1_654
Ca0 Pd19 3.017765 1_564
Pd0 Sb0 2.558949 1_445
Pd0 Pd21 2.726877 1_555
Pd0 Pd6 2.726877 1_555
Pd0 Pd1 2.741333 1_455
Pd0 Pd4 2.741333 1_545
Pd0 Y6 3.008191 1_555
Pd0 Y3 3.030797 1_455
Pd0 Y5 3.030797 1_545
Pd1 Pd15 2.734252 1_545
Pd1 Y0 2.930856 1_555
Pd1 Y3 2.943580 1_555
Pd1 Y2 2.954406 1_545
Pd2 Y0 2.930856 1_555
Pd2 Y2 2.943580 1_555
Pd2 Y3 2.954406 1_556
Pd3 Y1 2.947138 1_545
Pd3 Y4 2.949482 1_555
Pd3 Y0 2.950419 1_555
Pd3 Y2 2.958455 1_545
Pd4 Y1 2.930856 1_555
Pd4 Y5 2.943580 1_555
Pd4 Y2 2.954406 1_455
Pd5 Y6 2.930856 1_555
Pd5 Y3 2.943580 1_555
Pd5 Y5 2.954406 1_545
Pd6 Y0 2.947138 1_455
Pd6 Y4 2.949482 1_555
Pd6 Y6 2.950419 1_555
Pd6 Y3 2.958455 1_455
Pd7 Y1 2.930856 1_555
Pd7 Y2 2.943580 1_555
Pd7 Y5 2.954406 1_556
Pd8 Y4 2.906919 1_555
Pd8 Y6 2.909516 1_555
Pd8 Y1 2.909516 1_555
Pd8 Y5 2.913645 1_555
Pd9 Y4 2.906919 1_555
Pd9 Y1 2.909516 1_555
Pd9 Y0 2.909516 1_555
Pd9 Y2 2.913645 1_555
Pd10 Y6 2.892662 1_555
Pd10 Y5 2.908351 1_555
Pd10 Y3 2.908351 1_555
Pd11 Y4 2.906919 1_555
Pd11 Y6 2.909516 1_555
Pd11 Y0 2.909516 1_555
Pd11 Y3 2.913645 1_555
Pd12 Y1 2.892662 1_555
Pd12 Y5 2.908351 1_555
Pd12 Y2 2.908351 1_555
Pd13 Y0 2.892662 1_555
Pd13 Y3 2.908351 1_555
Pd13 Y2 2.908351 1_555
Pd14 Sb0 2.567157 1_455
Pd14 Pd3 2.733842 1_564
Pd14 Pd23 2.733842 1_564
Pd14 Pd7 2.734252 1_554
Pd14 Pd5 2.734252 1_565
Pd14 Y5 3.013542 1_555
Pd14 Y4 3.018403 1_564
Pd14 Y6 3.027192 1_565
Pd14 Y1 3.027192 1_554
Pd15 Sb0 2.567157 1_556
Pd15 Pd21 2.733842 1_665
Pd15 Pd6 2.733842 1_665
Pd15 Pd4 2.734252 1_655
Pd15 Y2 3.013542 1_555
Pd15 Y4 3.018403 1_665
Pd15 Y1 3.027192 1_655
Pd15 Y0 3.027192 1_565
Pd16 Pd17 2.734252 1_455
Pd16 Pd18 2.741333 1_554
Pd16 Y6 2.930856 1_555
Pd16 Y5 2.943580 1_555
Pd16 Y3 2.954406 1_455
Pd17 Sb0 2.567157 1_545
Pd17 Pd22 2.733842 1_654
Pd17 Pd20 2.733842 1_654
Pd17 Pd2 2.734252 1_554
Pd17 Y3 3.013542 1_555
Pd17 Y4 3.018403 1_654
Pd17 Y6 3.027192 1_655
Pd17 Y0 3.027192 1_554
Pd18 Sb0 2.558949 1_456
Pd18 Pd22 2.726877 1_555
Pd18 Pd20 2.726877 1_555
Pd18 Pd2 2.741333 1_455
Pd18 Y1 3.008191 1_555
Pd18 Y2 3.030797 1_455
Pd18 Y5 3.030797 1_556
Pd19 Sb0 2.558949 1_546
Pd19 Pd23 2.726877 1_555
Pd19 Pd3 2.726877 1_555
Pd19 Pd7 2.741333 1_545
Pd19 Pd5 2.741333 1_556
Pd19 Y0 3.008191 1_555
Pd19 Y2 3.030797 1_545
Pd19 Y3 3.030797 1_556
Pd20 Y6 2.947138 1_556
Pd20 Y4 2.949482 1_555
Pd20 Y1 2.950419 1_555
Pd20 Y5 2.958455 1_556
Pd21 Y1 2.947138 1_545
Pd21 Y4 2.949482 1_555
Pd21 Y6 2.950419 1_555
Pd21 Y5 2.958455 1_545
Pd22 Y0 2.947138 1_455
Pd22 Y4 2.949482 1_555
Pd22 Y1 2.950419 1_555
Pd22 Y2 2.958455 1_455
Pd23 Y6 2.947138 1_556
Pd23 Y4 2.949482 1_555
Pd23 Y0 2.950419 1_555
Pd23 Y3 2.958455 1_556
