# generated using pymatgen
data_YAlGa2Ag
_symmetry_space_group_name_H-M   'P 1'
_cell_length_a   4.13397691
_cell_length_b   4.13170328
_cell_length_c   6.26162680
_cell_angle_alpha   70.73593251
_cell_angle_beta   70.72491050
_cell_angle_gamma   90.00000221
_symmetry_Int_Tables_number   1
_chemical_formula_structural   YAlGa2Ag
_chemical_formula_sum   'Y1 Al1 Ga2 Ag1'
_cell_volume   94.58851407
_cell_formula_units_Z   1
loop_
 _symmetry_equiv_pos_site_id
 _symmetry_equiv_pos_as_xyz
  1  'x, y, z'
loop_
 _atom_site_type_symbol
 _atom_site_label
 _atom_site_symmetry_multiplicity
 _atom_site_fract_x
 _atom_site_fract_y
 _atom_site_fract_z
 _atom_site_occupancy
  Y  Y0  1  0.00006221  0.00006221  0.99987457  1
  Al  Al0  1  0.24984459  0.74984459  0.50031181  1
  Ga  Ga0  1  0.60819463  0.60819463  0.78361173  1
  Ga  Ga1  1  0.39171810  0.39171810  0.21656379  1
  Ag  Ag0  1  0.75018146  0.25018146  0.49963809  1
loop_
_geom_bond_atom_site_label_1
_geom_bond_atom_site_label_2
_geom_bond_distance
_geom_bond_site_symmetry_2
Al0 Ga0 2.594957 1_555
Al0 Ga0 2.594957 1_455
Al0 Ga1 2.595552 1_565
Al0 Ga1 2.595555 1_555
Al0 Y0 3.452719 1_565
Al0 Y0 3.452724 1_555
Al0 Y0 3.457280 1_664
Al0 Y0 3.457285 1_564
Ga0 Ga1 2.397624 1_556
Ga0 Y0 3.158238 1_665
Ga0 Y0 3.158244 1_565
Ga0 Y0 3.158244 1_655
Ga0 Y0 3.158249 1_555
Ga1 Y0 3.159137 1_664
Ga1 Y0 3.159140 1_654
Ga1 Y0 3.159140 1_564
Ga1 Y0 3.159143 1_554
Ag0 Ga1 2.594200 1_655
Ag0 Ga1 2.594204 1_555
Ag0 Ga0 2.596310 1_555
Ag0 Ga0 2.596310 1_545
Ag0 Al0 2.922362 1_655
Ag0 Al0 2.922362 1_545
Ag0 Al0 2.922362 1_555
Ag0 Al0 2.922362 1_645
Ag0 Y0 3.453610 1_664
Ag0 Y0 3.453615 1_654
Ag0 Y0 3.456389 1_655
Ag0 Y0 3.456394 1_555
