# generated using pymatgen
data_Pu2Se3
_symmetry_space_group_name_H-M   'P 1'
_cell_length_a   22.67339469
_cell_length_b   8.70331830
_cell_length_c   8.70331849
_cell_angle_alpha   90.00000173
_cell_angle_beta   54.84544737
_cell_angle_gamma   54.84544646
_symmetry_Int_Tables_number   1
_chemical_formula_structural   Pu2Se3
_chemical_formula_sum   'Pu16 Se24'
_cell_volume   996.93349668
_cell_formula_units_Z   8
loop_
 _symmetry_equiv_pos_site_id
 _symmetry_equiv_pos_as_xyz
  1  'x, y, z'
loop_
 _atom_site_type_symbol
 _atom_site_label
 _atom_site_symmetry_multiplicity
 _atom_site_fract_x
 _atom_site_fract_y
 _atom_site_fract_z
 _atom_site_occupancy
  Pu  Pu0  1  0.99596847  0.38793195  0.25154636  1
  Pu  Pu1  1  0.99596847  0.12416265  0.76054824  1
  Pu  Pu2  1  0.08452892  0.62320612  0.37320612  1
  Pu  Pu3  1  0.16666700  0.25000000  0.62914873  1
  Pu  Pu4  1  0.33736453  0.37583735  0.24845364  1
  Pu  Pu5  1  0.24880408  0.87679388  0.12679388  1
  Pu  Pu6  1  0.16666700  0.75000000  0.87085127  1
  Pu  Pu7  1  0.33736453  0.11206805  0.73945176  1
  Pu  Pu8  1  0.49596847  0.26054824  0.62416265  1
  Pu  Pu9  1  0.66666700  0.37085127  0.25000000  1
  Pu  Pu10  1  0.58452892  0.87320612  0.12320612  1
  Pu  Pu11  1  0.49596847  0.75154636  0.88793195  1
  Pu  Pu12  1  0.66666700  0.12914873  0.75000000  1
  Pu  Pu13  1  0.74880408  0.62679388  0.37679388  1
  Pu  Pu14  1  0.83736453  0.23945176  0.61206805  1
  Pu  Pu15  1  0.83736453  0.74845364  0.87583735  1
  Se  Se0  1  0.12211857  0.49124272  0.99518632  1
  Se  Se1  1  0.05070146  0.34714138  0.49974387  1
  Se  Se2  1  0.28263154  0.15285862  0.15184924  1
  Se  Se3  1  0.05070146  0.00075326  0.34815076  1
  Se  Se4  1  0.28263154  0.49924674  1.00025613  1
  Se  Se5  1  0.12211857  0.64240058  0.63845697  1
  Se  Se6  1  0.21121443  0.85759942  0.50481368  1
  Se  Se7  1  0.44863759  0.49906063  0.99912937  1
  Se  Se8  1  0.38469641  0.34504114  0.50093937  1
  Se  Se9  1  0.21121443  0.00875728  0.86154303  1
  Se  Se10  1  0.62211857  0.13845697  0.14240058  1
  Se  Se11  1  0.38469641  0.00087063  0.34497240  1
  Se  Se12  1  0.62211857  0.49518632  0.99124272  1
  Se  Se13  1  0.44863759  0.65502760  0.65495886  1
  Se  Se14  1  0.55070146  0.84815076  0.50075326  1
  Se  Se15  1  0.78263154  0.50025613  0.99924674  1
  Se  Se16  1  0.71121443  0.36154303  0.50875728  1
  Se  Se17  1  0.55070146  -0.00025613  0.84714138  1
  Se  Se18  1  0.71121443  0.00481368  0.35759942  1
  Se  Se19  1  0.94863759  0.15495886  0.15502760  1
  Se  Se20  1  0.94863759  0.49912937  0.99906063  1
  Se  Se21  1  0.78263154  0.65184924  0.65285862  1
  Se  Se22  1  0.88469641  0.84497240  0.50087063  1
  Se  Se23  1  0.88469641  0.00093937  0.84504114  1
loop_
_geom_bond_atom_site_label_1
_geom_bond_atom_site_label_2
_geom_bond_distance
_geom_bond_site_symmetry_2
Pu0 Se20 2.904609 1_554
Pu0 Se9 2.933747 1_654
Pu0 Se21 2.936436 1_555
Pu0 Se1 2.985289 1_655
Pu0 Se22 3.005895 1_555
Pu0 Se19 3.084237 1_555
Pu0 Se0 3.095198 1_654
Pu0 Se3 3.160382 1_655
Pu1 Se19 2.904617 1_556
Pu1 Se6 2.933747 1_645
Pu1 Se15 2.936436 1_555
Pu1 Se3 2.985299 1_655
Pu1 Se23 3.005886 1_555
Pu1 Se20 3.084249 1_555
Pu1 Se5 3.095204 1_645
Pu1 Se1 3.160379 1_655
Pu2 Se0 2.917788 1_554
Pu2 Se5 2.917788 1_555
Pu2 Se1 2.953542 1_555
Pu2 Se3 2.953543 1_565
Pu2 Se2 3.083049 1_555
Pu2 Se4 3.083052 1_554
Pu2 Se22 3.101754 1_455
Pu2 Se23 3.101766 1_465
Pu3 Se5 2.936608 1_555
Pu3 Se6 2.936617 1_545
Pu3 Se11 2.972082 1_555
Pu3 Se20 2.972082 1_455
Pu3 Se0 3.070806 1_555
Pu3 Se9 3.070814 1_555
Pu3 Se2 3.121980 1_555
Pu3 Se1 3.121993 1_555
Pu4 Se8 2.904625 1_555
Pu4 Se5 2.933747 1_555
Pu4 Se17 2.936436 1_554
Pu4 Se4 2.985290 1_554
Pu4 Se7 3.005902 1_554
Pu4 Se11 3.084243 1_555
Pu4 Se6 3.095205 1_555
Pu4 Se2 3.160375 1_555
Pu5 Se9 2.917788 1_564
Pu5 Se6 2.917788 1_555
Pu5 Se2 2.953542 1_565
Pu5 Se4 2.953543 1_554
Pu5 Se1 3.083047 1_565
Pu5 Se3 3.083054 1_565
Pu5 Se13 3.101770 1_554
Pu5 Se7 3.101772 1_554
Pu6 Se9 2.936607 1_565
Pu6 Se0 2.936622 1_555
Pu6 Se19 2.972082 1_466
Pu6 Se8 2.972082 1_555
Pu6 Se6 3.070817 1_555
Pu6 Se5 3.070830 1_555
Pu6 Se4 3.121975 1_555
Pu6 Se3 3.121975 1_566
Pu7 Se11 2.904606 1_555
Pu7 Se0 2.933747 1_555
Pu7 Se14 2.936436 1_545
Pu7 Se2 2.985298 1_556
Pu7 Se13 3.005892 1_545
Pu7 Se8 3.084249 1_555
Pu7 Se9 3.095196 1_555
Pu7 Se4 3.160386 1_555
Pu8 Se13 2.904617 1_555
Pu8 Se18 2.933747 1_555
Pu8 Se4 2.936436 1_555
Pu8 Se14 2.985299 1_545
Pu8 Se8 3.005886 1_555
Pu8 Se7 3.084249 1_555
Pu8 Se10 3.095204 1_555
Pu8 Se17 3.160379 1_555
Pu9 Se16 2.936607 1_555
Pu9 Se12 2.936622 1_554
Pu9 Se23 2.972082 1_554
Pu9 Se13 2.972082 1_555
Pu9 Se18 3.070817 1_555
Pu9 Se10 3.070830 1_555
Pu9 Se14 3.121975 1_555
Pu9 Se15 3.121975 1_554
Pu10 Se12 2.917788 1_554
Pu10 Se10 2.917788 1_565
Pu10 Se17 2.953542 1_564
Pu10 Se14 2.953543 1_555
Pu10 Se21 3.083049 1_554
Pu10 Se15 3.083052 1_554
Pu10 Se11 3.101754 1_565
Pu10 Se8 3.101766 1_565
Pu11 Se7 2.904609 1_555
Pu11 Se16 2.933747 1_555
Pu11 Se2 2.936436 1_566
Pu11 Se17 2.985289 1_565
Pu11 Se11 3.005895 1_566
Pu11 Se13 3.084237 1_555
Pu11 Se12 3.095198 1_555
Pu11 Se14 3.160382 1_555
Pu12 Se10 2.936608 1_556
Pu12 Se18 2.936617 1_555
Pu12 Se7 2.972082 1_555
Pu12 Se22 2.972082 1_545
Pu12 Se12 3.070806 1_555
Pu12 Se16 3.070814 1_555
Pu12 Se21 3.121980 1_545
Pu12 Se17 3.121993 1_555
Pu13 Se18 2.917788 1_565
Pu13 Se16 2.917788 1_555
Pu13 Se21 2.953542 1_555
Pu13 Se15 2.953543 1_554
Pu13 Se17 3.083048 1_565
Pu13 Se14 3.083054 1_555
Pu13 Se19 3.101770 1_555
Pu13 Se20 3.101772 1_554
Pu14 Se22 2.904606 1_545
Pu14 Se12 2.933747 1_555
Pu14 Se3 2.936436 1_655
Pu14 Se21 2.985298 1_555
Pu14 Se19 3.005892 1_555
Pu14 Se23 3.084249 1_555
Pu14 Se16 3.095196 1_555
Pu14 Se15 3.160386 1_555
Pu15 Se23 2.904625 1_565
Pu15 Se10 2.933747 1_566
Pu15 Se1 2.936436 1_655
Pu15 Se15 2.985290 1_555
Pu15 Se20 3.005902 1_555
Pu15 Se22 3.084243 1_555
Pu15 Se18 3.095205 1_566
Pu15 Se21 3.160375 1_555
