# generated using pymatgen
data_YAlCdPt3
_symmetry_space_group_name_H-M   'P 1'
_cell_length_a   5.14361032
_cell_length_b   5.14360931
_cell_length_c   5.14360954
_cell_angle_alpha   64.56533055
_cell_angle_beta   64.56533317
_cell_angle_gamma   64.56531619
_symmetry_Int_Tables_number   1
_chemical_formula_structural   YAlCdPt3
_chemical_formula_sum   'Y1 Al1 Cd1 Pt3'
_cell_volume   105.85442403
_cell_formula_units_Z   1
loop_
 _symmetry_equiv_pos_site_id
 _symmetry_equiv_pos_as_xyz
  1  'x, y, z'
loop_
 _atom_site_type_symbol
 _atom_site_label
 _atom_site_symmetry_multiplicity
 _atom_site_fract_x
 _atom_site_fract_y
 _atom_site_fract_z
 _atom_site_occupancy
  Y  Y0  1  0.24679295  0.24679295  0.24679295  1
  Al  Al0  1  0.62708508  0.62708508  0.62708508  1
  Cd  Cd0  1  0.99629768  0.99629768  0.99629768  1
  Pt  Pt0  1  0.62736325  0.62736325  0.12510078  1
  Pt  Pt1  1  0.62736325  0.12510078  0.62736325  1
  Pt  Pt2  1  0.12510078  0.62736325  0.62736325  1
loop_
_geom_bond_atom_site_label_1
_geom_bond_atom_site_label_2
_geom_bond_distance
_geom_bond_site_symmetry_2
Al0 Pt1 2.562828 1_565
Al0 Pt0 2.562828 1_556
Al0 Pt2 2.562829 1_655
Al0 Pt1 2.580783 1_555
Al0 Pt0 2.580783 1_555
Al0 Pt2 2.580783 1_555
Al0 Cd0 3.201973 1_545
Al0 Cd0 3.201973 1_455
Al0 Cd0 3.201974 1_554
Al0 Y0 3.223050 1_565
Al0 Y0 3.223050 1_655
Al0 Y0 3.223051 1_556
Cd0 Pt2 2.928225 1_655
Cd0 Pt1 2.928225 1_565
Cd0 Pt0 2.928226 1_556
Cd0 Y0 3.042731 1_666
Cd0 Pt0 3.170577 1_566
Cd0 Pt2 3.170578 1_656
Cd0 Pt0 3.170578 1_656
Cd0 Pt1 3.170578 1_566
Cd0 Pt2 3.170578 1_665
Cd0 Pt1 3.170579 1_665
Cd0 Y0 3.327939 1_656
Cd0 Y0 3.327939 1_665
Cd0 Y0 3.327939 1_566
Pt0 Pt1 2.734753 1_564
Pt0 Pt2 2.734754 1_654
Pt0 Pt1 2.759615 1_555
Pt0 Pt2 2.759615 1_555
Pt0 Y0 3.040052 1_555
Pt0 Y0 3.110989 1_565
Pt0 Y0 3.110989 1_655
Pt1 Pt2 2.734753 1_645
Pt1 Pt2 2.759615 1_555
Pt1 Y0 3.040052 1_555
Pt1 Y0 3.110989 1_556
Pt1 Y0 3.110990 1_655
Pt2 Y0 3.040052 1_555
Pt2 Y0 3.110989 1_556
Pt2 Y0 3.110989 1_565
