# generated using pymatgen
data_Y6Fe23
_symmetry_space_group_name_H-M   'P 1'
_cell_length_a   8.51637427
_cell_length_b   8.51637427
_cell_length_c   8.51637427
_cell_angle_alpha   60.00000000
_cell_angle_beta   60.00000000
_cell_angle_gamma   60.00000000
_symmetry_Int_Tables_number   1
_chemical_formula_structural   Y6Fe23
_chemical_formula_sum   'Y6 Fe23'
_cell_volume   436.76639909
_cell_formula_units_Z   1
loop_
 _symmetry_equiv_pos_site_id
 _symmetry_equiv_pos_as_xyz
  1  'x, y, z'
loop_
 _atom_site_type_symbol
 _atom_site_label
 _atom_site_symmetry_multiplicity
 _atom_site_fract_x
 _atom_site_fract_y
 _atom_site_fract_z
 _atom_site_occupancy
  Y  Y0  1  0.20916100  0.20916100  0.79083900  1
  Y  Y1  1  0.20916100  0.79083900  0.79083900  1
  Y  Y2  1  0.79083900  0.20916100  0.20916100  1
  Y  Y3  1  0.20916100  0.79083900  0.20916100  1
  Y  Y4  1  0.79083900  0.20916100  0.79083900  1
  Y  Y5  1  0.79083900  0.79083900  0.20916100  1
  Fe  Fe0  1  0.50000000  0.50000000  0.50000000  1
  Fe  Fe1  1  0.50000000  0.50000000  0.00000000  1
  Fe  Fe2  1  0.00000000  0.50000000  0.50000000  1
  Fe  Fe3  1  0.50000000  0.00000000  0.00000000  1
  Fe  Fe4  1  0.00000000  0.00000000  0.50000000  1
  Fe  Fe5  1  0.00000000  0.50000000  0.00000000  1
  Fe  Fe6  1  0.50000000  0.00000000  0.50000000  1
  Fe  Fe7  1  0.62192700  0.13422000  0.62192700  1
  Fe  Fe8  1  0.37807300  0.37807300  0.86578000  1
  Fe  Fe9  1  0.86578000  0.37807300  0.37807300  1
  Fe  Fe10  1  0.37807300  0.37807300  0.37807300  1
  Fe  Fe11  1  0.13422000  0.62192700  0.62192700  1
  Fe  Fe12  1  0.62192700  0.62192700  0.62192700  1
  Fe  Fe13  1  0.62192700  0.62192700  0.13422000  1
  Fe  Fe14  1  0.37807300  0.86578000  0.37807300  1
  Fe  Fe15  1  0.82396600  0.52810100  0.82396600  1
  Fe  Fe16  1  0.17603400  0.17603400  0.47189900  1
  Fe  Fe17  1  0.47189900  0.17603400  0.17603400  1
  Fe  Fe18  1  0.17603400  0.17603400  0.17603400  1
  Fe  Fe19  1  0.52810100  0.82396600  0.82396600  1
  Fe  Fe20  1  0.82396600  0.82396600  0.82396600  1
  Fe  Fe21  1  0.82396600  0.82396600  0.52810100  1
  Fe  Fe22  1  0.17603400  0.47189900  0.17603400  1
loop_
_geom_bond_atom_site_label_1
_geom_bond_atom_site_label_2
_geom_bond_distance
_geom_bond_site_symmetry_2
Y0 Y3 3.562587 1_546
Y0 Y4 3.562587 1_455
Y0 Y2 3.562587 1_456
Y0 Y1 3.562587 1_545
Y1 Y5 3.562587 1_456
Y1 Y4 3.562587 1_465
Y1 Y3 3.562587 1_556
Y2 Y4 3.562587 1_554
Y2 Y5 3.562587 1_545
Y2 Y3 3.562587 1_645
Y3 Y5 3.562587 1_455
Y4 Y5 3.562587 1_546
Fe0 Fe13 2.543484 1_555
Fe0 Fe7 2.543484 1_555
Fe0 Fe11 2.543484 1_555
Fe0 Fe8 2.543484 1_555
Fe0 Fe14 2.543484 1_555
Fe0 Fe9 2.543484 1_555
Fe0 Fe10 2.543491 1_555
Fe0 Fe12 2.543491 1_555
Fe1 Fe19 2.466216 1_554
Fe1 Fe15 2.466216 1_554
Fe1 Fe22 2.466216 1_555
Fe1 Fe17 2.466216 1_555
Fe1 Fe12 2.629659 1_554
Fe1 Fe10 2.629659 1_555
Fe1 Fe8 2.629667 1_554
Fe1 Fe13 2.629667 1_555
Fe1 Y2 3.050903 1_555
Fe1 Y3 3.050903 1_555
Fe1 Y1 3.050903 1_554
Fe1 Y4 3.050903 1_554
Fe2 Fe21 2.466216 1_455
Fe2 Fe22 2.466216 1_555
Fe2 Fe9 2.629667 1_455
Fe2 Y3 3.050903 1_555
Fe2 Y0 3.050903 1_555
Fe2 Y5 3.050903 1_455
Fe2 Y4 3.050903 1_455
Fe3 Fe8 2.629660 1_554
Fe3 Fe7 2.629660 1_554
Fe3 Y5 3.050903 1_545
Fe3 Y4 3.050903 1_554
Fe3 Y3 3.050903 1_545
Fe3 Y0 3.050903 1_554
Fe4 Fe7 2.629660 1_455
Fe4 Fe9 2.629660 1_455
Fe4 Y1 3.050903 1_545
Fe4 Y4 3.050903 1_455
Fe4 Y3 3.050903 1_545
Fe4 Y2 3.050903 1_455
Fe5 Fe8 2.629660 1_554
Fe5 Fe9 2.629660 1_455
Fe5 Y1 3.050903 1_554
Fe5 Y5 3.050903 1_455
Fe5 Y2 3.050903 1_455
Fe5 Y0 3.050903 1_554
Fe6 Fe7 2.629667 1_555
Fe6 Y2 3.050903 1_555
Fe6 Y0 3.050903 1_555
Fe6 Y1 3.050903 1_545
Fe6 Y5 3.050903 1_545
Fe7 Y4 2.907152 1_555
Fe7 Y2 2.907159 1_555
Fe7 Y0 2.907159 1_555
Fe7 Fe8 2.936959 1_555
Fe7 Fe9 2.936959 1_555
Fe8 Y0 2.907152 1_555
Fe8 Y1 2.907159 1_555
Fe8 Y4 2.907159 1_555
Fe9 Y2 2.907152 1_555
Fe9 Y5 2.907159 1_555
Fe9 Y4 2.907159 1_555
Fe10 Fe17 2.602022 1_555
Fe10 Fe16 2.602022 1_555
Fe10 Fe22 2.602022 1_555
Fe10 Fe2 2.629659 1_555
Fe10 Fe6 2.629659 1_555
Fe10 Y2 2.907158 1_555
Fe10 Y3 2.907158 1_555
Fe10 Y0 2.907158 1_555
Fe10 Fe13 2.936971 1_555
Fe10 Fe7 2.936971 1_555
Fe10 Fe11 2.936971 1_555
Fe11 Fe20 2.602028 1_455
Fe11 Fe15 2.602036 1_455
Fe11 Fe21 2.602036 1_455
Fe11 Fe4 2.629660 1_565
Fe11 Fe5 2.629660 1_556
Fe11 Fe2 2.629667 1_555
Fe11 Y1 2.907152 1_555
Fe11 Y3 2.907159 1_555
Fe11 Y0 2.907159 1_555
Fe11 Fe14 2.936959 1_555
Fe11 Fe8 2.936959 1_555
Fe12 Fe15 2.602022 1_555
Fe12 Fe21 2.602022 1_555
Fe12 Fe19 2.602022 1_555
Fe12 Fe2 2.629659 1_655
Fe12 Fe6 2.629659 1_565
Fe12 Y4 2.907158 1_555
Fe12 Y1 2.907158 1_555
Fe12 Y5 2.907158 1_555
Fe12 Fe8 2.936971 1_555
Fe12 Fe9 2.936971 1_555
Fe12 Fe14 2.936971 1_555
Fe13 Fe20 2.602028 1_554
Fe13 Fe15 2.602036 1_554
Fe13 Fe19 2.602036 1_554
Fe13 Fe5 2.629660 1_655
Fe13 Fe3 2.629660 1_565
Fe13 Y5 2.907152 1_555
Fe13 Y2 2.907159 1_555
Fe13 Y3 2.907159 1_555
Fe13 Fe14 2.936959 1_555
Fe13 Fe9 2.936959 1_555
Fe14 Fe18 2.602028 1_565
Fe14 Fe16 2.602036 1_565
Fe14 Fe17 2.602036 1_565
Fe14 Fe4 2.629660 1_565
Fe14 Fe3 2.629660 1_565
Fe14 Fe6 2.629667 1_565
Fe14 Y3 2.907152 1_555
Fe14 Y5 2.907159 1_555
Fe14 Y1 2.907159 1_555
Fe15 Fe2 2.466216 1_655
Fe15 Fe5 2.466224 1_656
Fe15 Fe21 2.519697 1_555
Fe15 Fe20 2.519697 1_555
Fe15 Fe19 2.519697 1_555
Fe15 Y4 3.024764 1_555
Fe15 Y2 3.024769 1_556
Fe15 Y0 3.024769 1_655
Fe16 Fe2 2.466216 1_555
Fe16 Fe6 2.466216 1_555
Fe16 Fe4 2.466224 1_555
Fe16 Fe22 2.519697 1_555
Fe16 Fe17 2.519697 1_555
Fe16 Fe18 2.519697 1_555
Fe16 Fe9 2.602036 1_455
Fe16 Y0 3.024764 1_555
Fe16 Y4 3.024769 1_455
Fe16 Y1 3.024769 1_545
Fe17 Fe6 2.466216 1_555
Fe17 Fe3 2.466224 1_555
Fe17 Fe22 2.519697 1_555
Fe17 Fe18 2.519697 1_555
Fe17 Fe8 2.602036 1_554
Fe17 Y2 3.024764 1_555
Fe17 Y4 3.024769 1_554
Fe17 Y5 3.024769 1_545
Fe18 Fe5 2.466219 1_555
Fe18 Fe4 2.466219 1_555
Fe18 Fe3 2.466219 1_555
Fe18 Fe22 2.519697 1_555
Fe18 Fe8 2.602028 1_554
Fe18 Fe9 2.602028 1_455
Fe18 Y2 3.024772 1_455
Fe18 Y0 3.024772 1_554
Fe18 Y3 3.024772 1_545
Fe19 Fe6 2.466216 1_565
Fe19 Fe3 2.466224 1_566
Fe19 Fe21 2.519697 1_555
Fe19 Fe20 2.519697 1_555
Fe19 Fe7 2.602036 1_565
Fe19 Y1 3.024764 1_555
Fe19 Y3 3.024769 1_556
Fe19 Y0 3.024769 1_565
Fe20 Fe4 2.466219 1_665
Fe20 Fe5 2.466219 1_656
Fe20 Fe3 2.466219 1_566
Fe20 Fe21 2.519697 1_555
Fe20 Fe7 2.602028 1_565
Fe20 Y5 3.024772 1_556
Fe20 Y1 3.024772 1_655
Fe20 Y4 3.024772 1_565
Fe21 Fe6 2.466216 1_565
Fe21 Fe4 2.466224 1_665
Fe21 Fe7 2.602036 1_565
Fe21 Y5 3.024764 1_555
Fe21 Y2 3.024769 1_565
Fe21 Y3 3.024769 1_655
Fe22 Fe5 2.466224 1_555
Fe22 Fe8 2.602036 1_554
Fe22 Fe9 2.602036 1_455
Fe22 Y3 3.024764 1_555
Fe22 Y1 3.024769 1_554
Fe22 Y5 3.024769 1_455
