# generated using pymatgen
data_SbTeBr
_symmetry_space_group_name_H-M   'P 1'
_cell_length_a   4.21098008
_cell_length_b   4.21097918
_cell_length_c   6.83429527
_cell_angle_alpha   90.00000000
_cell_angle_beta   90.00000000
_cell_angle_gamma   120.00000704
_symmetry_Int_Tables_number   1
_chemical_formula_structural   SbTeBr
_chemical_formula_sum   'Sb1 Te1 Br1'
_cell_volume   104.95197625
_cell_formula_units_Z   1
loop_
 _symmetry_equiv_pos_site_id
 _symmetry_equiv_pos_as_xyz
  1  'x, y, z'
loop_
 _atom_site_type_symbol
 _atom_site_label
 _atom_site_symmetry_multiplicity
 _atom_site_fract_x
 _atom_site_fract_y
 _atom_site_fract_z
 _atom_site_occupancy
  Sb  Sb0  1  0.33333300  0.66666700  0.93297081  1
  Te  Te0  1  0.00000000  0.00000000  0.68373093  1
  Br  Br0  1  0.66666700  0.33333300  0.20259826  1
loop_
_geom_bond_atom_site_label_1
_geom_bond_atom_site_label_2
_geom_bond_distance
_geom_bond_site_symmetry_2
Sb0 Te0 2.968547 1_565
Sb0 Te0 2.968550 1_555
Sb0 Te0 2.968550 1_665
Br0 Sb0 3.050633 1_544
Br0 Sb0 3.050634 1_654
Br0 Sb0 3.050639 1_554
