# generated using pymatgen
data_KCoPtSe4
_symmetry_space_group_name_H-M   'P 1'
_cell_length_a   6.32962591
_cell_length_b   7.27137672
_cell_length_c   15.51917057
_cell_angle_alpha   90.00000000
_cell_angle_beta   90.00000000
_cell_angle_gamma   90.00000000
_symmetry_Int_Tables_number   1
_chemical_formula_structural   KCoPtSe4
_chemical_formula_sum   'K4 Co4 Pt4 Se16'
_cell_volume   714.27129278
_cell_formula_units_Z   4
loop_
 _symmetry_equiv_pos_site_id
 _symmetry_equiv_pos_as_xyz
  1  'x, y, z'
loop_
 _atom_site_type_symbol
 _atom_site_label
 _atom_site_symmetry_multiplicity
 _atom_site_fract_x
 _atom_site_fract_y
 _atom_site_fract_z
 _atom_site_occupancy
  K  K0  1  0.36121374  0.00000000  0.00000000  1
  K  K1  1  0.63878626  0.50000000  0.50000000  1
  K  K2  1  0.03752400  0.00000000  0.50000000  1
  K  K3  1  0.96247600  0.50000000  0.00000000  1
  Co  Co0  1  0.50000000  0.25000000  0.25000000  1
  Co  Co1  1  0.50000000  0.75000000  0.75000000  1
  Co  Co2  1  0.50000000  0.75000000  0.25000000  1
  Co  Co3  1  0.50000000  0.25000000  0.75000000  1
  Pt  Pt0  1  0.00186588  0.00000000  0.25055050  1
  Pt  Pt1  1  0.00186588  0.00000000  0.74944950  1
  Pt  Pt2  1  0.99813412  0.50000000  0.24944950  1
  Pt  Pt3  1  0.99813412  0.50000000  0.75055050  1
  Se  Se0  1  0.81870071  0.25037075  0.33222905  1
  Se  Se1  1  0.81870071  0.74962925  0.66777095  1
  Se  Se2  1  0.18129929  0.75037075  0.16777095  1
  Se  Se3  1  0.18129929  0.24962925  0.83222905  1
  Se  Se4  1  0.18129929  0.24962925  0.16777095  1
  Se  Se5  1  0.18129929  0.75037075  0.83222905  1
  Se  Se6  1  0.81870071  0.74962925  0.33222905  1
  Se  Se7  1  0.81870071  0.25037075  0.66777095  1
  Se  Se8  1  0.65849952  0.00000000  0.16875503  1
  Se  Se9  1  0.65849952  0.00000000  0.83124497  1
  Se  Se10  1  0.34150048  0.50000000  0.33124497  1
  Se  Se11  1  0.34150048  0.50000000  0.66875503  1
  Se  Se12  1  0.34909289  0.00000000  0.33158431  1
  Se  Se13  1  0.34909289  0.00000000  0.66841569  1
  Se  Se14  1  0.65090711  0.50000000  0.16841569  1
  Se  Se15  1  0.65090711  0.50000000  0.83158431  1
loop_
_geom_bond_atom_site_label_1
_geom_bond_atom_site_label_2
_geom_bond_distance
_geom_bond_site_symmetry_2
K0 Se8 3.224851 1_555
K0 Se9 3.224851 1_554
K0 Se4 3.372045 1_555
K0 Se2 3.372045 1_545
K0 Se3 3.372045 1_554
K0 Se5 3.372045 1_544
K1 Se11 3.224851 1_555
K1 Se10 3.224851 1_555
K1 Se1 3.372045 1_555
K1 Se7 3.372045 1_555
K1 Se6 3.372045 1_555
K1 Se0 3.372045 1_555
K2 Se13 3.274220 1_555
K2 Se12 3.274220 1_555
K2 Se7 3.465813 1_455
K2 Se1 3.465813 1_445
K2 Se0 3.465813 1_455
K2 Se6 3.465813 1_445
K3 Se14 3.274220 1_555
K3 Se15 3.274220 1_554
K3 Se2 3.465813 1_655
K3 Se4 3.465813 1_655
K3 Se5 3.465813 1_654
K3 Se3 3.465813 1_654
Co0 Se0 2.387013 1_555
Co0 Se4 2.387013 1_555
Co0 Se12 2.412467 1_555
Co0 Se14 2.412467 1_555
Co0 Se10 2.429158 1_555
Co0 Se8 2.429158 1_555
Co1 Se5 2.387013 1_555
Co1 Se1 2.387013 1_555
Co1 Se15 2.412467 1_555
Co1 Se13 2.412467 1_565
Co1 Se9 2.429158 1_565
Co1 Se11 2.429158 1_555
Co2 Se6 2.387013 1_555
Co2 Se2 2.387013 1_555
Co2 Se12 2.412467 1_565
Co2 Se14 2.412467 1_555
Co2 Se10 2.429158 1_555
Co2 Se8 2.429158 1_565
Co3 Se3 2.387013 1_555
Co3 Se7 2.387013 1_555
Co3 Se15 2.412467 1_555
Co3 Se13 2.412467 1_555
Co3 Se9 2.429158 1_555
Co3 Se11 2.429158 1_555
Pt0 Se4 2.497010 1_555
Pt0 Se2 2.497010 1_545
Pt0 Se0 2.503051 1_455
Pt0 Se6 2.503051 1_445
Pt0 Se8 2.516933 1_455
Pt0 Se12 2.532173 1_555
Pt1 Se3 2.497010 1_555
Pt1 Se5 2.497010 1_545
Pt1 Se7 2.503051 1_455
Pt1 Se1 2.503051 1_445
Pt1 Se9 2.516933 1_455
Pt1 Se13 2.532173 1_555
Pt2 Se6 2.497010 1_555
Pt2 Se0 2.497010 1_555
Pt2 Se2 2.503051 1_655
Pt2 Se4 2.503051 1_655
Pt2 Se10 2.516933 1_655
Pt2 Se14 2.532173 1_555
Pt3 Se1 2.497010 1_555
Pt3 Se7 2.497010 1_555
Pt3 Se5 2.503051 1_655
Pt3 Se3 2.503051 1_655
Pt3 Se11 2.516933 1_655
Pt3 Se15 2.532173 1_555
