# generated using pymatgen
data_NbGe2
_symmetry_space_group_name_H-M   'P 1'
_cell_length_a   4.98885442
_cell_length_b   4.98885407
_cell_length_c   6.78435339
_cell_angle_alpha   90.00000000
_cell_angle_beta   90.00000000
_cell_angle_gamma   120.00000911
_symmetry_Int_Tables_number   1
_chemical_formula_structural   NbGe2
_chemical_formula_sum   'Nb3 Ge6'
_cell_volume   146.23141575
_cell_formula_units_Z   3
loop_
 _symmetry_equiv_pos_site_id
 _symmetry_equiv_pos_as_xyz
  1  'x, y, z'
loop_
 _atom_site_type_symbol
 _atom_site_label
 _atom_site_symmetry_multiplicity
 _atom_site_fract_x
 _atom_site_fract_y
 _atom_site_fract_z
 _atom_site_occupancy
  Nb  Nb0  1  -0.00000000  0.50000000  0.16666700  1
  Nb  Nb1  1  0.50000000  0.50000000  0.83333300  1
  Nb  Nb2  1  0.50000000  0.00000000  0.50000000  1
  Ge  Ge0  1  0.83684406  0.67368511  0.50000000  1
  Ge  Ge1  1  0.16315594  0.83684406  0.83333300  1
  Ge  Ge2  1  0.67368511  0.83684406  0.16666700  1
  Ge  Ge3  1  0.16315594  0.32631489  0.50000000  1
  Ge  Ge4  1  0.83684406  0.16315594  0.83333300  1
  Ge  Ge5  1  0.32631489  0.16315594  0.16666700  1
loop_
_geom_bond_atom_site_label_1
_geom_bond_atom_site_label_2
_geom_bond_distance
_geom_bond_site_symmetry_2
Ge0 Ge1 2.664911 1_655
Ge0 Ge2 2.664925 1_555
Ge0 Nb0 2.689382 1_655
Ge0 Nb1 2.689389 1_555
Ge0 Ge3 2.819670 1_665
Ge0 Nb2 2.865268 1_665
Ge0 Nb2 2.865282 1_565
Ge0 Nb2 2.910639 1_555
Ge0 Ge3 2.911100 1_655
Ge0 Ge3 2.911126 1_555
Ge1 Ge5 2.664916 1_566
Ge1 Nb2 2.689389 1_565
Ge1 Nb0 2.689395 1_556
Ge1 Ge4 2.819644 1_465
Ge1 Nb1 2.865268 1_565
Ge1 Nb1 2.865269 1_455
Ge1 Nb1 2.910652 1_555
Ge1 Ge4 2.911126 1_455
Ge1 Ge4 2.911126 1_565
Ge2 Ge4 2.664916 1_564
Ge2 Nb2 2.689382 1_565
Ge2 Nb1 2.689395 1_554
Ge2 Ge5 2.819670 1_665
Ge2 Nb0 2.865268 1_665
Ge2 Nb0 2.865282 1_655
Ge2 Nb0 2.910639 1_555
Ge2 Ge5 2.911100 1_565
Ge2 Ge5 2.911126 1_555
Ge3 Ge4 2.664911 1_455
Ge3 Ge5 2.664925 1_555
Ge3 Nb0 2.689382 1_555
Ge3 Nb1 2.689389 1_555
Ge3 Nb2 2.865268 1_455
Ge3 Nb2 2.865282 1_555
Ge3 Nb2 2.910639 1_565
Ge4 Nb2 2.689389 1_555
Ge4 Nb0 2.689395 1_656
Ge4 Nb1 2.865268 1_545
Ge4 Nb1 2.865269 1_655
Ge4 Nb1 2.910652 1_555
Ge5 Nb2 2.689382 1_555
Ge5 Nb1 2.689395 1_554
Ge5 Nb0 2.865268 1_545
Ge5 Nb0 2.865282 1_555
Ge5 Nb0 2.910639 1_655
