# generated using pymatgen
data_CsScZnS3
_symmetry_space_group_name_H-M   'P 1'
_cell_length_a   8.01057120
_cell_length_b   8.01057009
_cell_length_c   10.13189178
_cell_angle_alpha   90.00000000
_cell_angle_beta   90.00000000
_cell_angle_gamma   152.12296563
_symmetry_Int_Tables_number   1
_chemical_formula_structural   CsScZnS3
_chemical_formula_sum   'Cs2 Sc2 Zn2 S6'
_cell_volume   303.99695700
_cell_formula_units_Z   2
loop_
 _symmetry_equiv_pos_site_id
 _symmetry_equiv_pos_as_xyz
  1  'x, y, z'
loop_
 _atom_site_type_symbol
 _atom_site_label
 _atom_site_symmetry_multiplicity
 _atom_site_fract_x
 _atom_site_fract_y
 _atom_site_fract_z
 _atom_site_occupancy
  Cs  Cs0  1  0.24139922  0.75860178  0.25000000  1
  Cs  Cs1  1  0.75860178  0.24139922  0.75000000  1
  Sc  Sc0  1  0.50000100  0.50000100  0.00000000  1
  Sc  Sc1  1  0.50000100  0.50000100  0.50000000  1
  Zn  Zn0  1  0.96265464  0.03734736  0.25000000  1
  Zn  Zn1  1  0.03734736  0.96265464  0.75000000  1
  S  S0  1  0.89125687  0.10874413  0.05219083  1
  S  S1  1  0.55115281  0.44884819  0.25000000  1
  S  S2  1  0.89125687  0.10874413  0.44780917  1
  S  S3  1  0.10874413  0.89125687  0.55219083  1
  S  S4  1  0.44884819  0.55115281  0.75000000  1
  S  S5  1  0.10874413  0.89125687  0.94780917  1
loop_
_geom_bond_atom_site_label_1
_geom_bond_atom_site_label_2
_geom_bond_distance
_geom_bond_site_symmetry_2
Cs0 S1 3.531906 1_565
Cs0 S1 3.531907 1_455
Cs0 S2 3.629032 1_455
Cs0 S0 3.629032 1_455
Cs0 S2 3.629033 1_565
Cs0 S0 3.629033 1_565
Cs0 S3 3.691769 1_555
Cs0 S5 3.691769 1_554
Cs1 S4 3.531906 1_545
Cs1 S4 3.531907 1_655
Cs1 S5 3.629032 1_655
Cs1 S3 3.629032 1_655
Cs1 S5 3.629033 1_545
Cs1 S3 3.629033 1_545
Cs1 S0 3.691769 1_556
Cs1 S2 3.691769 1_555
S0 Zn0 2.291124 1_555
S0 Sc0 2.619555 1_545
S0 Sc0 2.619558 1_655
S1 Zn0 2.370014 1_455
S1 Zn0 2.370017 1_565
S1 Sc0 2.654919 1_555
S1 Sc1 2.654919 1_555
S2 Zn0 2.291124 1_555
S2 Sc1 2.619555 1_545
S2 Sc1 2.619558 1_655
S3 Zn1 2.291124 1_555
S3 Sc1 2.619555 1_455
S3 Sc1 2.619557 1_565
S4 Zn1 2.370014 1_545
S4 Zn1 2.370017 1_655
S4 Sc1 2.654919 1_555
S4 Sc0 2.654919 1_556
S5 Zn1 2.291124 1_555
S5 Sc0 2.619555 1_456
S5 Sc0 2.619557 1_566
