# generated using pymatgen
data_Be22W
_symmetry_space_group_name_H-M   'P 1'
_cell_length_a   8.18146849
_cell_length_b   8.18146688
_cell_length_c   8.18135182
_cell_angle_alpha   60.00046928
_cell_angle_beta   60.00047577
_cell_angle_gamma   60.00093446
_symmetry_Int_Tables_number   1
_chemical_formula_structural   Be22W
_chemical_formula_sum   'Be44 W2'
_cell_volume   387.23863342
_cell_formula_units_Z   2
loop_
 _symmetry_equiv_pos_site_id
 _symmetry_equiv_pos_as_xyz
  1  'x, y, z'
loop_
 _atom_site_type_symbol
 _atom_site_label
 _atom_site_symmetry_multiplicity
 _atom_site_fract_x
 _atom_site_fract_y
 _atom_site_fract_z
 _atom_site_occupancy
  Be  Be0  1  0.00000000  -0.00000000  -0.00000000  1
  Be  Be1  1  0.00000000  -0.00000000  0.50000000  1
  Be  Be2  1  0.50000000  -0.00000000  -0.00000000  1
  Be  Be3  1  0.00000000  0.50000000  -0.00000000  1
  Be  Be4  1  0.50000000  0.50000000  0.50000000  1
  Be  Be5  1  0.50000000  0.50000000  -0.00000000  1
  Be  Be6  1  0.00000000  0.50000000  0.50000000  1
  Be  Be7  1  0.50000000  -0.00000000  0.50000000  1
  Be  Be8  1  0.74043587  0.00956743  0.00958513  1
  Be  Be9  1  0.99042490  0.99042490  0.25957510  1
  Be  Be10  1  0.25957743  0.25957743  0.99042257  1
  Be  Be11  1  0.99043257  0.25956413  0.25958844  1
  Be  Be12  1  0.99043257  0.25956413  0.99041487  1
  Be  Be13  1  0.25956413  0.99043257  0.25958844  1
  Be  Be14  1  0.00956743  0.74043587  0.00958513  1
  Be  Be15  1  0.00957510  0.00957510  0.74042490  1
  Be  Be16  1  0.74042257  0.74042257  0.00957743  1
  Be  Be17  1  0.74043587  0.00956743  0.74041156  1
  Be  Be18  1  0.25956413  0.99043257  0.99041487  1
  Be  Be19  1  0.00956743  0.74043587  0.74041156  1
  Be  Be20  1  0.17628970  0.17628970  0.70405499  1
  Be  Be21  1  0.82369993  0.29595326  0.55664351  1
  Be  Be22  1  0.55663199  0.82371466  0.82371770  1
  Be  Be23  1  0.82371466  0.55663199  0.82371770  1
  Be  Be24  1  0.29595326  0.82369993  0.55664351  1
  Be  Be25  1  0.29594392  0.55664068  0.82370820  1
  Be  Be26  1  0.55664068  0.29594392  0.82370820  1
  Be  Be27  1  0.70404674  0.17630007  0.17629670  1
  Be  Be28  1  0.17630007  0.70404674  0.17629670  1
  Be  Be29  1  0.44336801  0.17628534  0.70406435  1
  Be  Be30  1  0.17628534  0.44336801  0.70406435  1
  Be  Be31  1  0.44336801  0.17628534  0.17628230  1
  Be  Be32  1  0.70404674  0.17630007  0.44335649  1
  Be  Be33  1  0.17630007  0.70404674  0.44335649  1
  Be  Be34  1  0.17628534  0.44336801  0.17628230  1
  Be  Be35  1  0.55663199  0.82371466  0.29593565  1
  Be  Be36  1  0.82371466  0.55663199  0.29593565  1
  Be  Be37  1  0.82371030  0.82371030  0.55663539  1
  Be  Be38  1  0.82371030  0.82371030  0.29594501  1
  Be  Be39  1  0.29595326  0.82369993  0.82370330  1
  Be  Be40  1  0.82369993  0.29595326  0.82370330  1
  Be  Be41  1  0.70405608  0.44335932  0.17629180  1
  Be  Be42  1  0.44335932  0.70405608  0.17629180  1
  Be  Be43  1  0.17628970  0.17628970  0.44336461  1
  W  W0  1  0.37499916  0.37500016  0.37500084  1
  W  W1  1  0.62500084  0.62499984  0.62499916  1
loop_
_geom_bond_atom_site_label_1
_geom_bond_atom_site_label_2
_geom_bond_distance
_geom_bond_site_symmetry_2
Be0 Be14 2.048269 1_545
Be0 Be12 2.048269 1_454
Be0 Be8 2.048269 1_455
Be0 Be18 2.048269 1_544
Be0 Be9 2.048336 1_445
Be0 Be15 2.048336 1_554
Be0 Be20 2.262485 1_554
Be0 Be38 2.262485 1_445
Be0 Be28 2.262597 1_545
Be0 Be40 2.262597 1_454
Be0 Be27 2.262597 1_455
Be0 Be39 2.262597 1_544
Be1 Be11 2.048269 1_455
Be1 Be19 2.048269 1_545
Be1 Be13 2.048269 1_545
Be1 Be17 2.048269 1_455
Be1 Be15 2.048336 1_555
Be1 Be9 2.048336 1_445
Be1 Be37 2.262481 1_445
Be1 Be43 2.262481 1_555
Be1 Be33 2.262597 1_545
Be1 Be21 2.262597 1_455
Be1 Be24 2.262597 1_545
Be1 Be32 2.262597 1_455
Be2 Be8 2.048463 1_555
Be2 Be22 2.262399 1_544
Be2 Be31 2.262399 1_555
Be2 Be29 2.262399 1_554
Be2 Be35 2.262399 1_545
Be2 Be26 2.262510 1_554
Be2 Be42 2.262510 1_545
Be3 Be34 2.262399 1_555
Be3 Be30 2.262399 1_554
Be3 Be36 2.262399 1_455
Be3 Be41 2.262511 1_455
Be4 Be42 2.459280 1_555
Be4 Be41 2.459281 1_555
Be4 W0 2.505028 1_555
Be4 W1 2.505028 1_555
Be5 W0 2.505035 1_555
Be5 W1 2.505035 1_554
Be6 W0 2.505071 1_555
Be6 W1 2.505071 1_455
Be7 W0 2.505077 1_555
Be7 W1 2.505077 1_545
Be10 Be2 2.048395 1_556
Be10 Be3 2.048395 1_556
Be10 Be18 2.202086 1_545
Be10 Be13 2.202086 1_546
Be10 Be12 2.202086 1_455
Be10 Be11 2.202086 1_456
Be10 Be25 2.204125 1_555
Be10 Be26 2.204126 1_555
Be10 Be34 2.294163 1_556
Be10 Be30 2.294163 1_555
Be10 Be31 2.294163 1_556
Be10 Be29 2.294164 1_555
Be11 Be3 2.048463 1_655
Be11 Be13 2.201922 1_645
Be11 Be9 2.202040 1_545
Be11 Be12 2.202204 1_554
Be11 Be36 2.204110 1_555
Be11 Be21 2.204112 1_555
Be11 Be43 2.294099 1_655
Be11 Be34 2.294177 1_655
Be11 Be32 2.294265 1_555
Be11 Be41 2.294338 1_555
Be12 Be3 2.048463 1_656
Be12 Be18 2.201922 1_645
Be12 Be9 2.202040 1_546
Be12 Be23 2.204110 1_555
Be12 Be40 2.204112 1_555
Be12 Be20 2.294106 1_655
Be12 Be30 2.294177 1_655
Be12 Be27 2.294265 1_556
Be12 Be41 2.294334 1_556
Be13 Be2 2.048463 1_565
Be13 Be9 2.202040 1_455
Be13 Be18 2.202204 1_554
Be13 Be35 2.204110 1_555
Be13 Be24 2.204112 1_555
Be13 Be43 2.294099 1_565
Be13 Be31 2.294177 1_565
Be13 Be33 2.294264 1_555
Be13 Be42 2.294338 1_555
Be14 Be3 2.048463 1_555
Be14 Be8 2.201922 1_465
Be14 Be15 2.202040 1_564
Be14 Be16 2.202086 1_455
Be14 Be19 2.202204 1_554
Be14 Be34 2.204110 1_555
Be14 Be28 2.204112 1_555
Be14 Be38 2.294106 1_455
Be14 Be36 2.294177 1_455
Be14 Be39 2.294265 1_554
Be14 Be25 2.294334 1_554
Be15 Be19 2.202040 1_545
Be15 Be17 2.202040 1_455
Be15 Be8 2.202040 1_456
Be15 Be20 2.204094 1_555
Be15 Be43 2.204098 1_555
Be15 Be40 2.294278 1_455
Be15 Be21 2.294278 1_455
Be15 Be39 2.294279 1_545
Be15 Be24 2.294279 1_545
Be16 Be2 2.048395 1_565
Be16 Be3 2.048395 1_655
Be16 Be8 2.202086 1_565
Be16 Be17 2.202086 1_564
Be16 Be19 2.202086 1_654
Be16 Be41 2.204125 1_555
Be16 Be42 2.204126 1_555
Be16 Be23 2.294163 1_554
Be16 Be36 2.294163 1_555
Be16 Be22 2.294163 1_554
Be16 Be35 2.294164 1_555
Be17 Be2 2.048463 1_556
Be17 Be19 2.201922 1_645
Be17 Be8 2.202204 1_556
Be17 Be29 2.204110 1_555
Be17 Be32 2.204112 1_555
Be17 Be37 2.294099 1_545
Be17 Be22 2.294177 1_545
Be17 Be21 2.294264 1_555
Be17 Be26 2.294338 1_555
Be18 Be2 2.048463 1_566
Be18 Be9 2.202040 1_456
Be18 Be22 2.204110 1_555
Be18 Be39 2.204112 1_555
Be18 Be20 2.294106 1_565
Be18 Be29 2.294177 1_565
Be18 Be28 2.294264 1_556
Be18 Be42 2.294334 1_556
Be19 Be3 2.048463 1_556
Be19 Be30 2.204110 1_555
Be19 Be33 2.204112 1_555
Be19 Be37 2.294099 1_455
Be19 Be23 2.294177 1_455
Be19 Be24 2.294265 1_555
Be19 Be25 2.294338 1_555
Be20 Be43 2.132800 1_555
Be20 Be30 2.185113 1_555
Be20 Be29 2.185113 1_555
Be20 Be39 2.355564 1_545
Be20 Be40 2.355565 1_455
Be20 Be6 2.459309 1_555
Be20 Be7 2.459310 1_555
Be20 W0 2.534413 1_555
Be21 Be36 2.132854 1_555
Be21 Be40 2.184910 1_555
Be21 Be26 2.184959 1_555
Be21 Be32 2.355543 1_555
Be21 Be43 2.355564 1_655
Be21 Be6 2.459263 1_655
Be21 Be4 2.459269 1_555
Be21 W1 2.534349 1_555
Be22 Be39 2.132854 1_555
Be22 Be37 2.185109 1_555
Be22 Be23 2.185159 1_555
Be22 Be42 2.355415 1_556
Be22 Be29 2.355437 1_565
Be22 Be7 2.459317 1_565
Be22 Be5 2.459324 1_556
Be22 W1 2.534482 1_555
Be23 Be40 2.132854 1_555
Be23 Be37 2.185109 1_555
Be23 Be3 2.262399 1_656
Be23 Be41 2.355415 1_556
Be23 Be30 2.355437 1_655
Be23 Be6 2.459317 1_655
Be23 Be5 2.459325 1_556
Be23 W1 2.534479 1_555
Be24 Be35 2.132854 1_555
Be24 Be39 2.184910 1_555
Be24 Be25 2.184959 1_555
Be24 Be33 2.355543 1_555
Be24 Be43 2.355564 1_565
Be24 Be7 2.459263 1_565
Be24 Be4 2.459269 1_555
Be24 W1 2.534357 1_555
Be25 Be26 2.132912 1_555
Be25 Be39 2.184955 1_555
Be25 Be3 2.262511 1_556
Be25 Be34 2.355415 1_556
Be25 Be30 2.355421 1_555
Be25 Be5 2.459274 1_556
Be25 Be4 2.459281 1_555
Be25 W1 2.534422 1_555
Be26 Be40 2.184955 1_555
Be26 Be8 2.294334 1_556
Be26 Be31 2.355415 1_556
Be26 Be29 2.355421 1_555
Be26 Be5 2.459274 1_556
Be26 Be4 2.459280 1_555
Be26 W1 2.534418 1_555
Be27 Be31 2.132854 1_555
Be27 Be32 2.184910 1_555
Be27 Be41 2.184955 1_555
Be27 Be8 2.204112 1_555
Be27 Be9 2.294279 1_545
Be27 Be40 2.355544 1_554
Be27 Be38 2.355564 1_545
Be27 Be7 2.459264 1_555
Be27 Be5 2.459269 1_555
Be27 W0 2.534360 1_555
Be28 Be34 2.132854 1_555
Be28 Be33 2.184910 1_555
Be28 Be42 2.184955 1_555
Be28 Be9 2.294278 1_455
Be28 Be39 2.355544 1_554
Be28 Be38 2.355565 1_455
Be28 Be6 2.459264 1_555
Be28 Be5 2.459269 1_555
Be28 W0 2.534353 1_555
Be29 Be32 2.132854 1_555
Be29 Be30 2.185159 1_555
Be29 Be7 2.459317 1_555
Be29 Be4 2.459324 1_555
Be29 W0 2.534476 1_555
Be30 Be33 2.132854 1_555
Be30 Be6 2.459317 1_555
Be30 Be4 2.459325 1_555
Be30 W0 2.534472 1_555
Be31 Be43 2.185109 1_555
Be31 Be34 2.185159 1_555
Be31 Be8 2.204110 1_555
Be31 Be35 2.355437 1_545
Be31 Be7 2.459317 1_555
Be31 Be5 2.459324 1_555
Be31 W0 2.534482 1_555
Be32 Be41 2.184959 1_555
Be32 Be9 2.294279 1_545
Be32 Be37 2.355564 1_545
Be32 Be7 2.459263 1_555
Be32 Be4 2.459269 1_555
Be32 W0 2.534357 1_555
Be33 Be42 2.184959 1_555
Be33 Be9 2.294278 1_455
Be33 Be37 2.355564 1_455
Be33 Be6 2.459263 1_555
Be33 Be4 2.459269 1_555
Be33 W0 2.534349 1_555
Be34 Be43 2.185109 1_555
Be34 Be36 2.355437 1_455
Be34 Be6 2.459317 1_555
Be34 Be5 2.459325 1_555
Be34 W0 2.534479 1_555
Be35 Be38 2.185113 1_555
Be35 Be36 2.185159 1_555
Be35 Be8 2.294177 1_565
Be35 Be42 2.355421 1_555
Be35 Be7 2.459317 1_565
Be35 Be4 2.459324 1_555
Be35 W1 2.534476 1_555
Be36 Be38 2.185113 1_555
Be36 Be41 2.355421 1_555
Be36 Be6 2.459317 1_655
Be36 Be4 2.459325 1_555
Be36 W1 2.534472 1_555
Be37 Be38 2.132800 1_555
Be37 Be9 2.204098 1_555
Be37 Be6 2.459313 1_655
Be37 Be7 2.459313 1_565
Be37 W1 2.534419 1_555
Be38 Be9 2.204094 1_555
Be38 Be8 2.294106 1_565
Be38 Be6 2.459309 1_655
Be38 Be7 2.459310 1_565
Be38 W1 2.534413 1_555
Be39 Be7 2.459264 1_565
Be39 Be5 2.459269 1_556
Be39 W1 2.534360 1_555
Be40 Be8 2.294264 1_556
Be40 Be6 2.459264 1_655
Be40 Be5 2.459269 1_556
Be40 W1 2.534353 1_555
Be41 Be42 2.132912 1_555
Be41 Be5 2.459274 1_555
Be41 W0 2.534422 1_555
Be42 Be5 2.459274 1_555
Be42 W0 2.534418 1_555
Be43 Be6 2.459313 1_555
Be43 Be7 2.459313 1_555
Be43 W0 2.534419 1_555
