# generated using pymatgen
data_Mn2FeO4
_symmetry_space_group_name_H-M   'P 1'
_cell_length_a   6.08749336
_cell_length_b   6.08749349
_cell_length_c   6.16682900
_cell_angle_alpha   59.56794787
_cell_angle_beta   59.56794715
_cell_angle_gamma   61.80331749
_symmetry_Int_Tables_number   1
_chemical_formula_structural   Mn2FeO4
_chemical_formula_sum   'Mn4 Fe2 O8'
_cell_volume   162.57214554
_cell_formula_units_Z   2
loop_
 _symmetry_equiv_pos_site_id
 _symmetry_equiv_pos_as_xyz
  1  'x, y, z'
loop_
 _atom_site_type_symbol
 _atom_site_label
 _atom_site_symmetry_multiplicity
 _atom_site_fract_x
 _atom_site_fract_y
 _atom_site_fract_z
 _atom_site_occupancy
  Mn  Mn0  1  0.00465200  0.00465200  0.99534800  1
  Mn  Mn1  1  0.24534800  0.24534800  0.25465200  1
  Mn  Mn2  1  0.12500000  0.62500000  0.62500000  1
  Mn  Mn3  1  0.62500000  0.12500000  0.62500000  1
  Fe  Fe0  1  0.62500000  0.62500000  0.12500000  1
  Fe  Fe1  1  0.62500000  0.62500000  0.62500000  1
  O  O0  1  0.38761400  0.38761400  0.38039700  1
  O  O1  1  0.38761400  0.38761400  0.84437500  1
  O  O2  1  0.38351400  0.83316300  0.39166200  1
  O  O3  1  0.41683700  0.86648600  0.85833800  1
  O  O4  1  0.83316300  0.38351400  0.39166200  1
  O  O5  1  0.86648600  0.41683700  0.85833800  1
  O  O6  1  0.86238600  0.86238600  0.40562500  1
  O  O7  1  0.86238600  0.86238600  0.86960300  1
loop_
_geom_bond_atom_site_label_1
_geom_bond_atom_site_label_2
_geom_bond_distance
_geom_bond_site_symmetry_2
Mn0 O7 2.042256 1_445
Mn0 O6 2.042256 1_446
Mn0 O3 2.072473 1_545
Mn0 O5 2.072473 1_455
Mn1 O0 2.042256 1_555
Mn1 O1 2.042256 1_554
Mn1 O4 2.072473 1_455
Mn1 O2 2.072473 1_545
Mn2 O5 1.973882 1_455
Mn2 O2 1.973882 1_555
Mn2 O6 2.121678 1_455
Mn2 O1 2.121678 1_555
Mn2 O0 2.121678 1_555
Mn2 O7 2.121678 1_455
Mn3 O3 1.973882 1_545
Mn3 O4 1.973882 1_555
Mn3 O1 2.121678 1_555
Mn3 O6 2.121678 1_545
Mn3 O7 2.121679 1_545
Mn3 O0 2.121679 1_555
Fe0 O7 2.004804 1_554
Fe0 O0 2.004804 1_555
Fe0 O2 2.091111 1_555
Fe0 O5 2.091111 1_554
Fe0 O3 2.091111 1_554
Fe0 O4 2.091111 1_555
Fe1 O6 2.004804 1_555
Fe1 O1 2.004804 1_555
Fe1 O2 2.091107 1_555
Fe1 O5 2.091107 1_555
Fe1 O4 2.091107 1_555
Fe1 O3 2.091107 1_555
