# generated using pymatgen
data_Ca2AlHg3
_symmetry_space_group_name_H-M   'P 1'
_cell_length_a   6.08747592
_cell_length_b   6.08747677
_cell_length_c   17.17215609
_cell_angle_alpha   77.89132613
_cell_angle_beta   77.89132569
_cell_angle_gamma   45.58617993
_symmetry_Int_Tables_number   1
_chemical_formula_structural   Ca2AlHg3
_chemical_formula_sum   'Ca6 Al3 Hg9'
_cell_volume   442.62790197
_cell_formula_units_Z   3
loop_
 _symmetry_equiv_pos_site_id
 _symmetry_equiv_pos_as_xyz
  1  'x, y, z'
loop_
 _atom_site_type_symbol
 _atom_site_label
 _atom_site_symmetry_multiplicity
 _atom_site_fract_x
 _atom_site_fract_y
 _atom_site_fract_z
 _atom_site_occupancy
  Ca  Ca0  1  0.27119541  0.27119541  0.23537929  1
  Ca  Ca1  1  0.60488037  0.60488037  0.56847752  1
  Ca  Ca2  1  0.93841131  0.93841131  0.90199842  1
  Ca  Ca3  1  0.05618647  0.05618647  0.09804260  1
  Ca  Ca4  1  0.38989724  0.38989724  0.43116796  1
  Ca  Ca5  1  0.72327132  0.72327132  0.76479710  1
  Al  Al0  1  0.96600671  0.96600671  0.29654576  1
  Al  Al1  1  0.29970675  0.29970675  0.62985493  1
  Al  Al2  1  0.63312529  0.63312529  0.96327575  1
  Hg  Hg0  1  0.75332078  0.75332078  0.09325212  1
  Hg  Hg1  1  0.08651885  0.08651885  0.42650043  1
  Hg  Hg2  1  0.42028303  0.42028303  0.75969304  1
  Hg  Hg3  1  0.39538202  0.39538202  0.03811421  1
  Hg  Hg4  1  0.72860210  0.72860210  0.37188863  1
  Hg  Hg5  1  0.06234867  0.06234867  0.70505179  1
  Hg  Hg6  1  0.55671690  0.55671690  0.23864237  1
  Hg  Hg7  1  0.89019655  0.89019655  0.57198242  1
  Hg  Hg8  1  0.22395824  0.22395824  0.90533468  1
loop_
_geom_bond_atom_site_label_1
_geom_bond_atom_site_label_2
_geom_bond_distance
_geom_bond_site_symmetry_2
Ca0 Hg6 3.217965 1_555
Ca0 Hg4 3.282575 1_455
Ca0 Hg4 3.282575 1_545
Ca0 Hg3 3.356954 1_555
Ca0 Hg6 3.361360 1_455
Ca0 Hg6 3.361361 1_545
Ca0 Hg0 3.432405 1_455
Ca0 Hg0 3.432405 1_545
Ca0 Hg1 3.460077 1_555
Ca0 Ca3 3.738442 1_555
Ca0 Ca4 3.888108 1_555
Ca1 Hg7 3.216677 1_555
Ca1 Hg5 3.283347 1_565
Ca1 Hg5 3.283347 1_655
Ca1 Hg4 3.345365 1_555
Ca1 Hg7 3.362397 1_455
Ca1 Hg7 3.362398 1_545
Ca1 Hg1 3.431746 1_565
Ca1 Hg1 3.431747 1_655
Ca1 Hg2 3.461053 1_555
Ca1 Ca4 3.737851 1_555
Ca1 Ca5 3.894825 1_555
Ca2 Hg8 3.218558 1_665
Ca2 Hg3 3.277900 1_566
Ca2 Hg3 3.277900 1_656
Ca2 Hg5 3.351433 1_665
Ca2 Hg8 3.360973 1_565
Ca2 Hg8 3.360974 1_655
Ca2 Hg2 3.435251 1_565
Ca2 Hg2 3.435251 1_655
Ca2 Hg0 3.463708 1_556
Ca2 Ca5 3.737795 1_555
Ca2 Ca3 3.886648 1_666
Ca3 Hg0 3.222037 1_545
Ca3 Hg0 3.222038 1_455
Ca3 Hg3 3.274695 1_455
Ca3 Hg3 3.274695 1_545
Ca3 Hg6 3.376027 1_545
Ca3 Hg6 3.376027 1_455
Ca3 Hg8 3.414843 1_554
Ca3 Hg0 3.419084 1_445
Ca4 Hg1 3.218397 1_655
Ca4 Hg1 3.218398 1_565
Ca4 Hg4 3.273243 1_455
Ca4 Hg4 3.273243 1_545
Ca4 Hg7 3.378240 1_545
Ca4 Hg7 3.378240 1_455
Ca4 Hg6 3.408675 1_555
Ca4 Hg1 3.424309 1_555
Ca5 Hg2 3.220401 1_655
Ca5 Hg2 3.220401 1_565
Ca5 Hg5 3.274140 1_565
Ca5 Hg5 3.274141 1_655
Ca5 Hg8 3.375552 1_655
Ca5 Hg8 3.375553 1_565
Ca5 Hg7 3.413259 1_555
Ca5 Hg2 3.421811 1_555
Al0 Hg6 2.669506 1_655
Al0 Hg6 2.669506 1_565
Al0 Hg4 2.684316 1_555
Al0 Hg1 2.860661 1_665
Al0 Ca4 3.276726 1_565
Al0 Ca4 3.276726 1_655
Al0 Ca3 3.327737 1_665
Al0 Ca0 3.346636 1_665
Al0 Ca0 3.534304 1_565
Al0 Ca0 3.534304 1_655
Al1 Hg7 2.668622 1_545
Al1 Hg7 2.668622 1_455
Al1 Hg5 2.683213 1_555
Al1 Hg2 2.859353 1_555
Al1 Ca5 3.280645 1_455
Al1 Ca5 3.280646 1_545
Al1 Ca4 3.330761 1_555
Al1 Ca1 3.346770 1_555
Al1 Ca1 3.536008 1_455
Al1 Ca1 3.536009 1_545
Al2 Hg8 2.670100 1_655
Al2 Hg8 2.670100 1_565
Al2 Hg3 2.685473 1_556
Al2 Hg0 2.858682 1_556
Al2 Ca3 3.279275 1_566
Al2 Ca3 3.279275 1_656
Al2 Ca5 3.327308 1_555
Al2 Ca2 3.347831 1_555
Al2 Ca2 3.534389 1_455
Al2 Ca2 3.534389 1_545
Hg0 Hg3 2.883334 1_655
Hg0 Hg3 2.883335 1_565
Hg0 Hg6 2.931856 1_555
Hg1 Hg4 2.881636 1_545
Hg1 Hg4 2.881637 1_455
Hg1 Hg7 2.931163 1_445
Hg2 Hg5 2.881642 1_655
Hg2 Hg5 2.881643 1_565
Hg2 Hg8 2.933047 1_555
Hg3 Hg8 3.301138 1_554
Hg4 Hg6 3.311570 1_555
Hg5 Hg7 3.311287 1_445
