# generated using pymatgen
data_BaCdSb2
_symmetry_space_group_name_H-M   'P 1'
_cell_length_a   4.61334800
_cell_length_b   4.61334800
_cell_length_c   12.83283712
_cell_angle_alpha   100.35506913
_cell_angle_beta   100.35506913
_cell_angle_gamma   90.00000000
_symmetry_Int_Tables_number   1
_chemical_formula_structural   BaCdSb2
_chemical_formula_sum   'Ba2 Cd2 Sb4'
_cell_volume   264.14931911
_cell_formula_units_Z   2
loop_
 _symmetry_equiv_pos_site_id
 _symmetry_equiv_pos_as_xyz
  1  'x, y, z'
loop_
 _atom_site_type_symbol
 _atom_site_label
 _atom_site_symmetry_multiplicity
 _atom_site_fract_x
 _atom_site_fract_y
 _atom_site_fract_z
 _atom_site_occupancy
  Ba  Ba0  1  0.88776600  0.88776600  0.77553200  1
  Ba  Ba1  1  0.11223400  0.11223400  0.22446800  1
  Cd  Cd0  1  0.75000000  0.25000000  0.50000000  1
  Cd  Cd1  1  0.25000000  0.75000000  0.50000000  1
  Sb  Sb0  1  0.67436700  0.67436700  0.34873400  1
  Sb  Sb1  1  0.32563300  0.32563300  0.65126600  1
  Sb  Sb2  1  0.50000000  0.00000000  0.00000000  1
  Sb  Sb3  1  0.00000000  0.50000000  0.00000000  1
loop_
_geom_bond_atom_site_label_1
_geom_bond_atom_site_label_2
_geom_bond_distance
_geom_bond_site_symmetry_2
Ba0 Sb1 3.608349 1_565
Ba0 Sb1 3.608349 1_655
Ba0 Sb1 3.608349 1_555
Ba0 Sb1 3.608349 1_665
Ba0 Sb3 3.616932 1_666
Ba0 Sb3 3.616932 1_656
Ba0 Sb2 3.616932 1_666
Ba0 Sb2 3.616932 1_566
Ba1 Sb0 3.608349 1_455
Ba1 Sb0 3.608349 1_445
Ba1 Sb0 3.608349 1_545
Ba1 Sb0 3.608349 1_555
Ba1 Sb2 3.616932 1_455
Ba1 Sb2 3.616932 1_555
Ba1 Sb3 3.616932 1_545
Ba1 Sb3 3.616932 1_555
Cd0 Sb0 2.974122 1_545
Cd0 Sb1 2.974122 1_655
Cd0 Sb1 2.974122 1_555
Cd0 Sb0 2.974122 1_555
Cd1 Sb0 2.974122 1_455
Cd1 Sb1 2.974122 1_555
Cd1 Sb1 2.974122 1_565
Cd1 Sb0 2.974122 1_555
Sb2 Sb3 3.262130 1_655
Sb2 Sb3 3.262130 1_645
Sb2 Sb3 3.262130 1_545
Sb2 Sb3 3.262130 1_555
