# generated using pymatgen
data_Li28ScSi8Ag
_symmetry_space_group_name_H-M   'P 1'
_cell_length_a   9.17502249
_cell_length_b   9.17502337
_cell_length_c   9.17502282
_cell_angle_alpha   109.53388860
_cell_angle_beta   109.53389186
_cell_angle_gamma   109.34595853
_symmetry_Int_Tables_number   1
_chemical_formula_structural   Li28ScSi8Ag
_chemical_formula_sum   'Li28 Sc1 Si8 Ag1'
_cell_volume   594.56316249
_cell_formula_units_Z   1
loop_
 _symmetry_equiv_pos_site_id
 _symmetry_equiv_pos_as_xyz
  1  'x, y, z'
loop_
 _atom_site_type_symbol
 _atom_site_label
 _atom_site_symmetry_multiplicity
 _atom_site_fract_x
 _atom_site_fract_y
 _atom_site_fract_z
 _atom_site_occupancy
  Li  Li0  1  0.06562310  0.54111932  0.27613536  1
  Li  Li1  1  0.26498396  0.78948874  0.72386464  1
  Li  Li2  1  0.18257548  0.96055203  0.96965217  1
  Li  Li3  1  0.99089985  0.21292231  0.03034783  1
  Li  Li4  1  0.03944797  0.00910015  0.22202246  1
  Li  Li5  1  0.78707769  0.81742452  0.77797754  1
  Li  Li6  1  0.45888068  0.73501604  0.52450478  1
  Li  Li7  1  0.21051126  0.93437690  0.47549522  1
  Li  Li8  1  0.70672454  0.35105131  0.06089895  1
  Li  Li9  1  0.96994632  0.40951115  0.88421161  1
  Li  Li10  1  0.29015236  0.64582559  0.93910105  1
  Li  Li11  1  0.52529953  0.08573571  0.11578839  1
  Li  Li12  1  0.68430538  0.84584025  0.09282718  1
  Li  Li13  1  0.47393174  0.88354104  0.32895398  1
  Li  Li14  1  0.55458706  0.14497776  0.67104602  1
  Li  Li15  1  0.75301207  0.59147720  0.90717282  1
  Li  Li16  1  0.85502224  0.52606826  0.40961030  1
  Li  Li17  1  0.40852280  0.31569462  0.16153587  1
  Li  Li18  1  0.15415975  0.24698793  0.83846413  1
  Li  Li19  1  0.11645896  0.44541294  0.59038970  1
  Li  Li20  1  0.91426429  0.03005368  0.43956483  1
  Li  Li21  1  0.35417441  0.29327546  0.64432677  1
  Li  Li22  1  0.59048885  0.47470047  0.56043517  1
  Li  Li23  1  0.64894869  0.70984764  0.35567323  1
  Li  Li24  1  0.00094942  0.87858936  0.62743787  1
  Li  Li25  1  0.25115249  0.37351255  0.37256213  1
  Li  Li26  1  0.12141064  0.74884751  0.12236007  1
  Li  Li27  1  0.62648745  0.99905058  0.87763993  1
  Sc  Sc0  1  0.75000000  0.25000000  0.50000000  1
  Si  Si0  1  0.28869328  0.53535089  0.16639135  1
  Si  Si1  1  0.36895954  0.12230194  0.83360865  1
  Si  Si2  1  0.95118570  0.61329627  0.74199161  1
  Si  Si3  1  0.87130466  0.20919409  0.25800839  1
  Si  Si4  1  0.38670373  0.12869534  0.33789043  1
  Si  Si5  1  0.79080591  0.04881430  0.66210957  1
  Si  Si6  1  0.46464911  0.63104046  0.75334140  1
  Si  Si7  1  0.87769806  0.71130672  0.24665860  1
  Ag  Ag0  1  0.50000000  0.50000000  0.00000000  1
loop_
_geom_bond_atom_site_label_1
_geom_bond_atom_site_label_2
_geom_bond_distance
_geom_bond_site_symmetry_2
Li0 Si0 2.572893 1_555
Li0 Si7 2.690466 1_455
Li0 Li26 2.742250 1_555
Li0 Li25 2.771677 1_555
Li0 Si3 2.889040 1_455
Li1 Si1 2.572885 1_565
Li1 Si6 2.690473 1_555
Li1 Li27 2.742248 1_555
Li1 Li24 2.771672 1_555
Li1 Si2 2.889042 1_455
Li2 Si2 2.669065 1_455
Li2 Li24 2.700508 1_555
Li2 Si1 2.769394 1_565
Li2 Si4 2.769690 1_566
Li2 Li26 2.770278 1_556
Li3 Si3 2.669064 1_555
Li3 Si0 2.769399 1_655
Li3 Si5 2.769690 1_554
Li4 Si4 2.669063 1_555
Li4 Si7 2.769405 1_445
Li4 Si3 2.769683 1_455
Li5 Si5 2.669079 1_565
Li5 Si6 2.769393 1_555
Li5 Si2 2.769676 1_555
Li6 Si6 2.572876 1_555
Li6 Si0 2.690474 1_555
Li6 Si5 2.889044 1_565
Li7 Si7 2.572884 1_455
Li7 Si1 2.690473 1_565
Li7 Si4 2.889029 1_565
Li8 Si1 2.607617 1_554
Li8 Si7 2.701932 1_555
Li8 Si3 2.880071 1_555
Li9 Si2 2.631119 1_555
Li9 Si0 2.699876 1_656
Li9 Si5 2.729974 1_555
Li9 Sc0 2.911518 1_555
Li10 Si0 2.607617 1_556
Li10 Si6 2.701939 1_555
Li10 Li26 2.786593 1_556
Li10 Si2 2.880071 1_455
Li11 Si3 2.631120 1_555
Li11 Li27 2.636748 1_544
Li11 Si1 2.699871 1_554
Li11 Si4 2.729980 1_555
Li11 Sc0 2.911519 1_555
Li12 Si6 2.590971 1_554
Li12 Si3 2.728996 1_565
Li12 Si7 2.757809 1_555
Li12 Li27 2.793761 1_554
Li13 Si4 2.611474 1_565
Li13 Si0 2.615353 1_555
Li13 Li26 2.695711 1_555
Li13 Si5 2.851665 1_565
Li13 Sc0 2.890354 1_565
Li14 Si5 2.611477 1_555
Li14 Si1 2.615353 1_555
Li14 Li27 2.695712 1_545
Li14 Si4 2.851662 1_555
Li14 Sc0 2.890354 1_555
Li15 Si7 2.590971 1_556
Li15 Si2 2.729004 1_555
Li15 Si6 2.757805 1_555
Li15 Li26 2.793767 1_656
Li16 Si2 2.611467 1_555
Li16 Si7 2.615353 1_555
Li16 Li24 2.695712 1_655
Li16 Si3 2.851672 1_555
Li16 Sc0 2.890348 1_555
Li17 Si0 2.590972 1_555
Li17 Si4 2.728997 1_555
Li17 Si1 2.757809 1_554
Li17 Li25 2.793754 1_555
Li18 Si1 2.590970 1_555
Li18 Si5 2.728996 1_455
Li18 Si0 2.757807 1_556
Li18 Li24 2.793766 1_545
Li19 Si3 2.611470 1_455
Li19 Si6 2.615353 1_555
Li19 Li25 2.695711 1_555
Li19 Si2 2.851675 1_455
Li19 Sc0 2.890357 1_455
Li20 Si5 2.631105 1_555
Li20 Li24 2.636756 1_645
Li20 Si7 2.699878 1_545
Li20 Si3 2.729972 1_555
Li20 Sc0 2.911511 1_555
Li21 Si6 2.607618 1_555
Li21 Si1 2.701932 1_555
Li21 Li25 2.786601 1_555
Li21 Si4 2.880063 1_555
Li22 Si4 2.631118 1_555
Li22 Li25 2.636748 1_555
Li22 Si6 2.699871 1_555
Li22 Si2 2.729973 1_555
Li22 Sc0 2.911518 1_555
Li23 Si7 2.607611 1_555
Li23 Si0 2.701932 1_555
Li23 Li24 2.786595 1_655
Li23 Si5 2.880067 1_565
Li24 Li7 2.742257 1_555
Li24 Li5 2.770271 1_455
Li24 Si1 2.806589 1_565
Li24 Si5 2.886340 1_465
Li24 Si7 2.909018 1_455
Li24 Si2 2.921169 1_455
Li25 Li3 2.700508 1_455
Li25 Li6 2.742247 1_555
Li25 Li4 2.770278 1_555
Li25 Si0 2.806581 1_555
Li25 Si4 2.886343 1_555
Li25 Si6 2.909018 1_555
Li25 Si3 2.921177 1_455
Li26 Li9 2.636747 1_454
Li26 Li4 2.700515 1_565
Li26 Li7 2.771675 1_555
Li26 Si7 2.806596 1_455
Li26 Si2 2.886342 1_454
Li26 Si0 2.909018 1_555
Li26 Si4 2.921175 1_565
Li27 Li5 2.700521 1_555
Li27 Li3 2.770277 1_566
Li27 Li6 2.771673 1_555
Li27 Li8 2.786593 1_566
Li27 Si6 2.806588 1_555
Li27 Si3 2.886342 1_566
Li27 Si1 2.909018 1_565
Li27 Si5 2.921184 1_565
Sc0 Si5 2.771493 1_555
Sc0 Si4 2.771499 1_555
Sc0 Si2 2.771499 1_555
Sc0 Si3 2.771499 1_555
Ag0 Li23 2.701216 1_555
Ag0 Li21 2.701216 1_554
Ag0 Li10 2.701216 1_554
Ag0 Li8 2.701216 1_555
Ag0 Li15 2.707024 1_554
Ag0 Li18 2.707029 1_554
Ag0 Li12 2.707033 1_555
Ag0 Li17 2.707038 1_555
Ag0 Si0 2.873908 1_555
Ag0 Si1 2.873909 1_554
Ag0 Si7 2.873910 1_555
Ag0 Si6 2.873917 1_554
