# generated using pymatgen
data_Ru(SeBr)4
_symmetry_space_group_name_H-M   'P 1'
_cell_length_a   9.44734812
_cell_length_b   9.76272132
_cell_length_c   12.29882999
_cell_angle_alpha   73.70861204
_cell_angle_beta   90.00000000
_cell_angle_gamma   90.00000000
_symmetry_Int_Tables_number   1
_chemical_formula_structural   Ru(SeBr)4
_chemical_formula_sum   'Ru4 Se16 Br16'
_cell_volume   1088.79679212
_cell_formula_units_Z   4
loop_
 _symmetry_equiv_pos_site_id
 _symmetry_equiv_pos_as_xyz
  1  'x, y, z'
loop_
 _atom_site_type_symbol
 _atom_site_label
 _atom_site_symmetry_multiplicity
 _atom_site_fract_x
 _atom_site_fract_y
 _atom_site_fract_z
 _atom_site_occupancy
  Ru  Ru0  1  0.80659618  0.05542113  0.77812951  1
  Ru  Ru1  1  0.30659618  0.94457887  0.22187049  1
  Ru  Ru2  1  0.66979858  0.31837429  0.71077412  1
  Ru  Ru3  1  0.16979858  0.68162571  0.28922588  1
  Se  Se0  1  0.79145481  0.50679518  0.78078865  1
  Se  Se1  1  0.29145481  0.49320482  0.21921135  1
  Se  Se2  1  0.39632734  0.01178856  0.88174243  1
  Se  Se3  1  0.89632734  0.98821144  0.11825757  1
  Se  Se4  1  0.97247965  0.16746130  0.20331160  1
  Se  Se5  1  0.47247965  0.83253870  0.79668840  1
  Se  Se6  1  0.29908141  0.15775703  0.70887355  1
  Se  Se7  1  0.79908141  0.84224297  0.29112645  1
  Se  Se8  1  0.50618800  0.21624982  0.60388721  1
  Se  Se9  1  0.00618800  0.78375018  0.39611279  1
  Se  Se10  1  0.87193045  0.25067979  0.62404385  1
  Se  Se11  1  0.37193045  0.74932021  0.37595615  1
  Se  Se12  1  0.64147061  0.96162093  0.67156633  1
  Se  Se13  1  0.14147061  0.03837907  0.32843367  1
  Se  Se14  1  0.64353223  0.14466580  0.88461317  1
  Se  Se15  1  0.14353223  0.85533420  0.11538683  1
  Br  Br0  1  0.49280102  0.07425872  0.31368502  1
  Br  Br1  1  0.99280102  0.92574128  0.68631498  1
  Br  Br2  1  0.01593222  0.13936921  0.87955467  1
  Br  Br3  1  0.51593222  0.86063079  0.12044533  1
  Br  Br4  1  0.80308783  0.20741061  0.44955578  1
  Br  Br5  1  0.30308783  0.79258939  0.55044422  1
  Br  Br6  1  0.81101377  0.42322883  0.98180869  1
  Br  Br7  1  0.31101377  0.57677117  0.01819131  1
  Br  Br8  1  0.48053315  0.45911892  0.78558751  1
  Br  Br9  1  0.98053315  0.54088108  0.21441249  1
  Br  Br10  1  0.03363051  0.52211074  0.72908591  1
  Br  Br11  1  0.53363051  0.47788926  0.27091409  1
  Br  Br12  1  0.69155099  0.55533235  0.54610916  1
  Br  Br13  1  0.19155099  0.44466765  0.45389084  1
  Br  Br14  1  0.81559124  0.82493438  0.94136713  1
  Br  Br15  1  0.31559124  0.17506562  0.05863287  1
loop_
_geom_bond_atom_site_label_1
_geom_bond_atom_site_label_2
_geom_bond_distance
_geom_bond_site_symmetry_2
Ru0 Se14 2.342565 1_555
Ru0 Se10 2.362059 1_555
Ru0 Se12 2.379752 1_545
Ru1 Se15 2.342565 1_555
Ru1 Se11 2.362059 1_555
Ru1 Se13 2.379752 1_565
Ru2 Se14 2.339749 1_555
Ru2 Se10 2.369956 1_555
Ru2 Se8 2.417984 1_555
Ru2 Se0 2.516922 1_555
Ru3 Se15 2.339749 1_555
Ru3 Se11 2.369956 1_555
Ru3 Se9 2.417984 1_555
Ru3 Se1 2.516922 1_555
Se2 Se6 2.386462 1_555
Se2 Se5 2.387732 1_545
Se3 Se7 2.386462 1_555
Se3 Se4 2.387732 1_565
Se6 Se8 2.325500 1_555
Se7 Se9 2.325500 1_655
Se12 Se5 2.327449 1_555
Se12 Se8 2.710155 1_565
Se13 Se4 2.327449 1_455
Se13 Se9 2.710155 1_545
Se14 Se2 2.676569 1_555
Se15 Se3 2.676569 1_455
Br0 Ru1 2.602807 1_545
Br1 Ru0 2.602807 1_565
Br2 Ru0 2.590843 1_455
Br2 Se3 3.105253 1_446
Br3 Ru1 2.590843 1_555
Br3 Se2 3.105253 1_564
Br4 Se10 2.390680 1_555
Br5 Se11 2.390680 1_555
Br6 Se0 2.383365 1_555
Br7 Se1 2.383365 1_555
Br8 Ru2 2.577033 1_555
Br8 Se0 2.972027 1_555
Br9 Ru3 2.577033 1_655
Br9 Se1 2.972027 1_655
Br10 Se0 2.368107 1_455
Br11 Se1 2.368107 1_555
Br12 Ru2 2.620447 1_555
Br12 Se0 2.945954 1_555
Br13 Ru3 2.620447 1_555
Br13 Se1 2.945954 1_555
Br14 Ru0 2.562532 1_565
Br14 Se3 3.130709 1_556
Br15 Ru1 2.562532 1_545
Br15 Se2 3.130709 1_554
