# generated using pymatgen
data_KRb3(SnSb)12
_symmetry_space_group_name_H-M   'P 1'
_cell_length_a   4.42639465
_cell_length_b   11.02288052
_cell_length_c   20.87971368
_cell_angle_alpha   90.19432816
_cell_angle_beta   90.00000000
_cell_angle_gamma   90.00000000
_symmetry_Int_Tables_number   1
_chemical_formula_structural   KRb3(SnSb)12
_chemical_formula_sum   'K1 Rb3 Sn12 Sb12'
_cell_volume   1018.74918233
_cell_formula_units_Z   1
loop_
 _symmetry_equiv_pos_site_id
 _symmetry_equiv_pos_as_xyz
  1  'x, y, z'
loop_
 _atom_site_type_symbol
 _atom_site_label
 _atom_site_symmetry_multiplicity
 _atom_site_fract_x
 _atom_site_fract_y
 _atom_site_fract_z
 _atom_site_occupancy
  K  K0  1  0.25000000  0.23744072  0.45636883  1
  Rb  Rb0  1  0.75000000  0.26670453  0.95807192  1
  Rb  Rb1  1  0.75000000  0.76946331  0.54165966  1
  Rb  Rb2  1  0.25000000  0.73304904  0.04220817  1
  Sn  Sn0  1  0.75000000  0.17220745  0.64836499  1
  Sn  Sn1  1  0.75000000  0.67377423  0.84952472  1
  Sn  Sn2  1  0.25000000  0.82750941  0.35304099  1
  Sn  Sn3  1  0.25000000  0.32651604  0.15220082  1
  Sn  Sn4  1  0.75000000  0.10406654  0.25838460  1
  Sn  Sn5  1  0.75000000  0.60622714  0.24576520  1
  Sn  Sn6  1  0.25000000  0.89411491  0.74193264  1
  Sn  Sn7  1  0.25000000  0.39555784  0.75357491  1
  Sn  Sn8  1  0.75000000  0.97827039  0.13300214  1
  Sn  Sn9  1  0.75000000  0.47726247  0.36977354  1
  Sn  Sn10  1  0.25000000  0.02202393  0.86671778  1
  Sn  Sn11  1  0.25000000  0.51909582  0.62740262  1
  Sb  Sb0  1  0.75000000  0.48226238  0.12446611  1
  Sb  Sb1  1  0.75000000  0.98454929  0.38058197  1
  Sb  Sb2  1  0.25000000  0.51705388  0.87576890  1
  Sb  Sb3  1  0.25000000  0.01664688  0.62045635  1
  Sb  Sb4  1  0.75000000  0.38004085  0.57038193  1
  Sb  Sb5  1  0.75000000  0.88653312  0.92463755  1
  Sb  Sb6  1  0.25000000  0.61420571  0.42725867  1
  Sb  Sb7  1  0.25000000  0.11535472  0.07590763  1
  Sb  Sb8  1  0.75000000  0.23414900  0.77946396  1
  Sb  Sb9  1  0.75000000  0.73145239  0.71824286  1
  Sb  Sb10  1  0.25000000  0.76836897  0.22141983  1
  Sb  Sb11  1  0.25000000  0.26610106  0.28342271  1
loop_
_geom_bond_atom_site_label_1
_geom_bond_atom_site_label_2
_geom_bond_distance
_geom_bond_site_symmetry_2
K0 Sb4 3.607033 1_455
K0 Sb4 3.607033 1_555
K0 Sb11 3.625926 1_555
K0 Sb1 3.891401 1_545
K0 Sb1 3.891401 1_445
K0 Sn9 3.897187 1_555
K0 Sn9 3.897187 1_455
Rb0 Sb7 3.709824 1_556
Rb0 Sb7 3.709824 1_656
Rb0 Sb8 3.745297 1_555
Rb0 Sb2 3.936846 1_555
Rb0 Sb2 3.936846 1_655
Rb0 Sn10 3.971898 1_555
Rb0 Sn10 3.971898 1_655
Rb0 Sb0 4.202405 1_556
Rb1 Sb6 3.674922 1_555
Rb1 Sb6 3.674922 1_655
Rb1 Sb9 3.712149 1_555
Rb1 Sb3 3.872795 1_565
Rb1 Sb3 3.872795 1_665
Rb1 Sn11 3.969033 1_555
Rb1 Sn11 3.969033 1_655
Rb1 Sb1 4.121479 1_555
Rb2 Sb5 3.716849 1_454
Rb2 Sb5 3.716849 1_554
Rb2 Sb10 3.760774 1_555
Rb2 Sb0 3.939821 1_455
Rb2 Sb0 3.939821 1_555
Rb2 Sn8 3.970367 1_555
Rb2 Sn8 3.970367 1_455
Rb2 Sb2 4.205895 1_554
Sn4 Sn8 2.958344 1_545
Sn5 Sn9 2.958051 1_555
Sn10 Sn6 2.958292 1_545
Sn11 Sn7 2.969674 1_555
Sb0 Sn3 2.861406 1_555
Sb0 Sn3 2.861406 1_655
Sb0 Sn5 2.873713 1_555
Sb1 Sn2 2.866817 1_655
Sb1 Sn2 2.866817 1_555
Sb1 Sn4 2.875463 1_565
Sb2 Sn1 2.861682 1_555
Sb2 Sn1 2.861682 1_455
Sb2 Sn7 2.877480 1_555
Sb3 Sn0 2.858551 1_455
Sb3 Sn0 2.858551 1_555
Sb3 Sn6 2.877635 1_545
Sb4 Sn0 2.815115 1_555
Sb4 Sn11 2.941559 1_555
Sb4 Sn11 2.941559 1_655
Sb5 Sn1 2.816871 1_555
Sb5 Sn10 2.933182 1_665
Sb5 Sn10 2.933182 1_565
Sb6 Sn2 2.820346 1_555
Sb6 Sn9 2.933466 1_555
Sb6 Sn9 2.933466 1_455
Sb7 Sn3 2.816058 1_555
Sb7 Sn8 2.935118 1_545
Sb7 Sn8 2.935118 1_445
Sb8 Sn0 2.818929 1_555
Sb8 Sn7 2.891796 1_555
Sb8 Sn7 2.891796 1_655
Sb9 Sn1 2.815993 1_555
Sb9 Sn6 2.889944 1_655
Sb9 Sn6 2.889944 1_555
Sb10 Sn2 2.822320 1_555
Sb10 Sn5 2.890871 1_455
Sb10 Sn5 2.890871 1_555
Sb11 Sn3 2.821840 1_555
Sb11 Sn4 2.890558 1_555
Sb11 Sn4 2.890558 1_455
