# generated using pymatgen
data_La3TaO7
_symmetry_space_group_name_H-M   'P 1'
_cell_length_a   6.75467841
_cell_length_b   6.75467841
_cell_length_c   7.77824973
_cell_angle_alpha   90.00000000
_cell_angle_beta   90.00000000
_cell_angle_gamma   111.75412145
_symmetry_Int_Tables_number   1
_chemical_formula_structural   La3TaO7
_chemical_formula_sum   'La6 Ta2 O14'
_cell_volume   329.61384549
_cell_formula_units_Z   2
loop_
 _symmetry_equiv_pos_site_id
 _symmetry_equiv_pos_as_xyz
  1  'x, y, z'
loop_
 _atom_site_type_symbol
 _atom_site_label
 _atom_site_symmetry_multiplicity
 _atom_site_fract_x
 _atom_site_fract_y
 _atom_site_fract_z
 _atom_site_occupancy
  La  La0  1  0.00000000  0.00000000  -0.00000000  1
  La  La1  1  0.00000000  0.00000000  0.50000000  1
  La  La2  1  0.47577579  0.93056529  0.75000000  1
  La  La3  1  0.52422421  0.06943471  0.25000000  1
  La  La4  1  0.93056529  0.47577579  0.75000000  1
  La  La5  1  0.06943471  0.52422421  0.25000000  1
  Ta  Ta0  1  0.50000000  0.50000000  -0.00000000  1
  Ta  Ta1  1  0.50000000  0.50000000  0.50000000  1
  O  O0  1  0.84600934  0.10625866  0.75000000  1
  O  O1  1  0.15399066  0.89374134  0.25000000  1
  O  O2  1  0.10625866  0.84600934  0.75000000  1
  O  O3  1  0.89374134  0.15399066  0.25000000  1
  O  O4  1  0.43876798  0.18986772  0.96745115  1
  O  O5  1  0.56123202  0.81013228  0.46745115  1
  O  O6  1  0.18986772  0.43876798  0.53254885  1
  O  O7  1  0.81013228  0.56123202  0.03254885  1
  O  O8  1  0.43754598  0.43754598  0.25000000  1
  O  O9  1  0.56245402  0.56245402  0.75000000  1
  O  O10  1  0.18986772  0.43876798  0.96745115  1
  O  O11  1  0.81013228  0.56123202  0.46745115  1
  O  O12  1  0.43876798  0.18986772  0.53254885  1
  O  O13  1  0.56123202  0.81013228  0.03254885  1
loop_
_geom_bond_atom_site_label_1
_geom_bond_atom_site_label_2
_geom_bond_distance
_geom_bond_site_symmetry_2
La0 O1 2.435528 1_545
La0 O0 2.435528 1_454
La0 O2 2.435528 1_544
La0 O3 2.435528 1_455
La0 O10 2.770407 1_554
La0 O7 2.770407 1_445
La0 O13 2.770407 1_445
La0 O4 2.770407 1_554
La1 O1 2.435528 1_545
La1 O0 2.435528 1_455
La1 O2 2.435528 1_545
La1 O3 2.435528 1_455
La1 O5 2.770407 1_445
La1 O11 2.770407 1_445
La1 O12 2.770407 1_555
La1 O6 2.770407 1_555
La2 O0 2.337203 1_565
La2 O2 2.345074 1_555
La2 O5 2.484565 1_555
La2 O13 2.484565 1_556
La2 O4 2.513085 1_565
La2 O12 2.513085 1_565
La2 O9 2.757615 1_555
La3 O1 2.337203 1_545
La3 O3 2.345074 1_555
La3 O12 2.484565 1_555
La3 O4 2.484565 1_554
La3 O13 2.513085 1_545
La3 O5 2.513085 1_545
La3 O8 2.757615 1_555
La4 O2 2.337203 1_655
La4 O0 2.345074 1_555
La4 O11 2.484565 1_555
La4 O7 2.484565 1_556
La4 O6 2.513085 1_655
La4 O10 2.513085 1_655
La4 O9 2.757615 1_555
La5 O3 2.337203 1_455
La5 O1 2.345074 1_555
La5 O6 2.484565 1_555
La5 O10 2.484565 1_554
La5 O11 2.513085 1_455
La5 O7 2.513085 1_455
La5 O8 2.757615 1_555
O4 Ta0 1.995318 1_556
O5 Ta1 1.995318 1_555
O6 Ta1 1.995318 1_555
O7 Ta0 1.995318 1_555
O8 Ta0 2.001333 1_555
O8 Ta1 2.001333 1_555
O9 Ta0 2.001333 1_556
O9 Ta1 2.001333 1_555
O10 Ta0 1.995318 1_556
O11 Ta1 1.995318 1_555
O12 Ta1 1.995318 1_555
O13 Ta0 1.995318 1_555
