# generated using pymatgen
data_NbTcS4
_symmetry_space_group_name_H-M   'P 1'
_cell_length_a   3.22573257
_cell_length_b   5.58272232
_cell_length_c   6.75590475
_cell_angle_alpha   72.95879045
_cell_angle_beta   90.00000000
_cell_angle_gamma   90.00000000
_symmetry_Int_Tables_number   1
_chemical_formula_structural   NbTcS4
_chemical_formula_sum   'Nb1 Tc1 S4'
_cell_volume   116.32112609
_cell_formula_units_Z   1
loop_
 _symmetry_equiv_pos_site_id
 _symmetry_equiv_pos_as_xyz
  1  'x, y, z'
loop_
 _atom_site_type_symbol
 _atom_site_label
 _atom_site_symmetry_multiplicity
 _atom_site_fract_x
 _atom_site_fract_y
 _atom_site_fract_z
 _atom_site_occupancy
  Nb  Nb0  1  0.50000000  0.50001919  0.00076372  1
  Tc  Tc0  1  0.00000000  0.00275888  0.00066698  1
  S  S0  1  0.00000000  0.41018197  0.75508562  1
  S  S1  1  0.50000000  0.92536340  0.76416382  1
  S  S2  1  0.50000000  0.75770175  0.23744422  1
  S  S3  1  0.00000000  0.23597181  0.24587565  1
loop_
_geom_bond_atom_site_label_1
_geom_bond_atom_site_label_2
_geom_bond_distance
_geom_bond_site_symmetry_2
Nb0 S1 2.443146 1_554
Nb0 S2 2.444275 1_555
Nb0 S3 2.466932 1_655
Nb0 S3 2.466932 1_555
Nb0 S0 2.468936 1_554
Nb0 S0 2.468936 1_654
S0 Tc0 2.390466 1_556
S1 Tc0 2.397000 1_666
S1 Tc0 2.397000 1_566
S2 Tc0 2.397742 1_665
S2 Tc0 2.397742 1_565
S3 Tc0 2.388225 1_555
