# generated using pymatgen
data_MnCdCl6
_symmetry_space_group_name_H-M   'P 1'
_cell_length_a   6.37513584
_cell_length_b   6.37513567
_cell_length_c   11.70753475
_cell_angle_alpha   90.00000000
_cell_angle_beta   90.00000000
_cell_angle_gamma   120.00000088
_symmetry_Int_Tables_number   1
_chemical_formula_structural   MnCdCl6
_chemical_formula_sum   'Mn2 Cd2 Cl12'
_cell_volume   412.07375749
_cell_formula_units_Z   2
loop_
 _symmetry_equiv_pos_site_id
 _symmetry_equiv_pos_as_xyz
  1  'x, y, z'
loop_
 _atom_site_type_symbol
 _atom_site_label
 _atom_site_symmetry_multiplicity
 _atom_site_fract_x
 _atom_site_fract_y
 _atom_site_fract_z
 _atom_site_occupancy
  Mn  Mn0  1  0.33333300  0.66666700  0.25000000  1
  Mn  Mn1  1  0.66666700  0.33333300  0.75000000  1
  Cd  Cd0  1  0.00000000  0.00000000  0.25000000  1
  Cd  Cd1  1  0.00000000  0.00000000  0.75000000  1
  Cl  Cl0  1  0.62521917  0.95391207  0.13485874  1
  Cl  Cl1  1  0.04608793  0.67130810  0.13485874  1
  Cl  Cl2  1  0.32869190  0.37478083  0.13485874  1
  Cl  Cl3  1  0.04608793  0.37478083  0.36514126  1
  Cl  Cl4  1  0.37478083  0.32869190  0.63485874  1
  Cl  Cl5  1  0.67130810  0.04608793  0.63485874  1
  Cl  Cl6  1  0.95391207  0.62521917  0.63485874  1
  Cl  Cl7  1  0.67130810  0.62521917  0.86514126  1
  Cl  Cl8  1  0.95391207  0.32869190  0.86514126  1
  Cl  Cl9  1  0.37478083  0.04608793  0.86514126  1
  Cl  Cl10  1  0.62521917  0.67130810  0.36514126  1
  Cl  Cl11  1  0.32869190  0.95391207  0.36514126  1
loop_
_geom_bond_atom_site_label_1
_geom_bond_atom_site_label_2
_geom_bond_distance
_geom_bond_site_symmetry_2
Cd0 Cl1 2.628707 1_545
Cd0 Cl11 2.628707 1_545
Cd0 Cl2 2.628710 1_555
Cd0 Cl10 2.628710 1_445
Cd0 Cl3 2.628712 1_555
Cd0 Cl0 2.628713 1_445
Cd1 Cl8 2.628707 1_455
Cd1 Cl5 2.628707 1_455
Cd1 Cl7 2.628710 1_445
Cd1 Cl4 2.628710 1_555
Cd1 Cl6 2.628712 1_445
Cd1 Cl9 2.628713 1_555
Cl0 Mn0 2.285958 1_555
Cl1 Mn0 2.285958 1_555
Cl2 Mn0 2.285958 1_555
Cl3 Mn0 2.285958 1_555
Cl4 Mn1 2.285958 1_555
Cl5 Mn1 2.285958 1_555
Cl6 Mn1 2.285958 1_555
Cl7 Mn1 2.285958 1_555
Cl8 Mn1 2.285958 1_555
Cl9 Mn1 2.285958 1_555
Cl10 Mn0 2.285958 1_555
Cl11 Mn0 2.285958 1_555
