# generated using pymatgen
data_Rb2Si2PbS6
_symmetry_space_group_name_H-M   'P 1'
_cell_length_a   8.75315009
_cell_length_b   8.75315047
_cell_length_c   9.00956868
_cell_angle_alpha   90.31597646
_cell_angle_beta   90.31596991
_cell_angle_gamma   114.52303779
_symmetry_Int_Tables_number   1
_chemical_formula_structural   Rb2Si2PbS6
_chemical_formula_sum   'Rb4 Si4 Pb2 S12'
_cell_volume   627.99107903
_cell_formula_units_Z   2
loop_
 _symmetry_equiv_pos_site_id
 _symmetry_equiv_pos_as_xyz
  1  'x, y, z'
loop_
 _atom_site_type_symbol
 _atom_site_label
 _atom_site_symmetry_multiplicity
 _atom_site_fract_x
 _atom_site_fract_y
 _atom_site_fract_z
 _atom_site_occupancy
  Rb  Rb0  1  0.25461473  0.53185563  0.51778653  1
  Rb  Rb1  1  0.74538527  0.46814437  0.48221347  1
  Rb  Rb2  1  0.46814437  0.74538527  0.98221347  1
  Rb  Rb3  1  0.53185563  0.25461473  0.01778653  1
  Si  Si0  1  0.97944014  0.65115812  0.05026955  1
  Si  Si1  1  0.02055986  0.34884188  0.94973045  1
  Si  Si2  1  0.34884188  0.02055986  0.44973045  1
  Si  Si3  1  0.65115812  0.97944014  0.55026955  1
  Pb  Pb0  1  0.00007172  0.99992828  0.25000000  1
  Pb  Pb1  1  0.99992828  0.00007172  0.75000000  1
  S  S0  1  0.65327551  0.76716115  0.65104754  1
  S  S1  1  0.92349006  0.51282364  0.84083897  1
  S  S2  1  0.23283885  0.34672449  0.84895246  1
  S  S3  1  0.51282364  0.92349006  0.34083897  1
  S  S4  1  0.34672449  0.23283885  0.34895246  1
  S  S5  1  0.89429400  0.16751465  0.52793893  1
  S  S6  1  0.83248535  0.10570600  0.97206107  1
  S  S7  1  0.16751465  0.89429400  0.02793893  1
  S  S8  1  0.07650994  0.48717636  0.15916103  1
  S  S9  1  0.48717636  0.07650994  0.65916103  1
  S  S10  1  0.10570600  0.83248535  0.47206107  1
  S  S11  1  0.76716115  0.65327551  0.15104754  1
loop_
_geom_bond_atom_site_label_1
_geom_bond_atom_site_label_2
_geom_bond_distance
_geom_bond_site_symmetry_2
Rb0 S2 3.371606 1_555
Rb0 S4 3.396420 1_555
Rb0 S10 3.412688 1_555
Rb0 S5 3.432647 1_455
Rb0 S0 3.438141 1_555
Rb0 S8 3.528102 1_555
Rb0 S3 3.615190 1_555
Rb1 S11 3.371606 1_555
Rb1 S0 3.396420 1_555
Rb1 S5 3.412688 1_555
Rb1 S10 3.432647 1_655
Rb1 S4 3.438141 1_555
Rb1 S1 3.528102 1_555
Rb1 S9 3.615190 1_555
Rb2 S0 3.371606 1_555
Rb2 S11 3.396420 1_556
Rb2 S7 3.412688 1_556
Rb2 S6 3.432647 1_565
Rb2 S2 3.438142 1_555
Rb2 S3 3.528102 1_556
Rb2 S8 3.615190 1_556
Rb3 S4 3.371606 1_555
Rb3 S2 3.396420 1_554
Rb3 S6 3.412688 1_554
Rb3 S7 3.432647 1_545
Rb3 S11 3.438142 1_555
Rb3 S9 3.528102 1_554
Rb3 S1 3.615190 1_554
Pb0 S7 2.853540 1_555
Pb0 S10 2.853540 1_555
Pb0 S4 2.995510 1_565
Pb0 S11 2.995510 1_455
Pb0 S5 3.223690 1_465
Pb0 S6 3.223690 1_464
Pb1 S6 2.853540 1_555
Pb1 S5 2.853540 1_555
Pb1 S0 2.995510 1_545
Pb1 S2 2.995510 1_655
Pb1 S10 3.223690 1_645
Pb1 S7 3.223690 1_646
S0 Si3 2.079502 1_555
S1 Si0 2.176853 1_556
S1 Si1 2.182522 1_655
S2 Si1 2.079502 1_555
S3 Si3 2.176853 1_555
S3 Si2 2.182522 1_565
S4 Si2 2.079502 1_555
S5 Si3 2.092815 1_545
S6 Si1 2.092815 1_655
S7 Si0 2.092815 1_455
S8 Si1 2.176853 1_554
S8 Si0 2.182522 1_455
S9 Si2 2.176853 1_555
S9 Si3 2.182522 1_545
S10 Si2 2.092815 1_565
S11 Si0 2.079502 1_555
