# generated using pymatgen
data_Sr21Mg(Ga4Bi3)2
_symmetry_space_group_name_H-M   'P 1'
_cell_length_a   12.16428081
_cell_length_b   12.16428190
_cell_length_c   12.16428104
_cell_angle_alpha   60.00000235
_cell_angle_beta   59.99999937
_cell_angle_gamma   60.00000411
_symmetry_Int_Tables_number   1
_chemical_formula_structural   Sr21Mg(Ga4Bi3)2
_chemical_formula_sum   'Sr21 Mg1 Ga8 Bi6'
_cell_volume   1272.75373374
_cell_formula_units_Z   1
loop_
 _symmetry_equiv_pos_site_id
 _symmetry_equiv_pos_as_xyz
  1  'x, y, z'
loop_
 _atom_site_type_symbol
 _atom_site_label
 _atom_site_symmetry_multiplicity
 _atom_site_fract_x
 _atom_site_fract_y
 _atom_site_fract_z
 _atom_site_occupancy
  Sr  Sr0  1  0.86700663  0.86700663  0.39897912  1
  Sr  Sr1  1  0.60102088  0.13299337  0.13299337  1
  Sr  Sr2  1  0.86700663  0.39897912  0.86700663  1
  Sr  Sr3  1  0.13299337  0.13299337  0.13299337  1
  Sr  Sr4  1  0.39897912  0.86700663  0.86700663  1
  Sr  Sr5  1  0.86700663  0.86700663  0.86700663  1
  Sr  Sr6  1  0.17717260  0.82282740  0.50000000  1
  Sr  Sr7  1  0.82282740  0.50000000  0.50000000  1
  Sr  Sr8  1  0.13299337  0.13299337  0.60102088  1
  Sr  Sr9  1  0.82282740  0.17717260  0.50000000  1
  Sr  Sr10  1  0.17717260  0.50000000  0.50000000  1
  Sr  Sr11  1  0.13299337  0.60102088  0.13299337  1
  Sr  Sr12  1  0.50000000  0.50000000  0.17717260  1
  Sr  Sr13  1  0.50000000  0.17717260  0.82282740  1
  Sr  Sr14  1  0.50000000  0.82282740  0.17717260  1
  Sr  Sr15  1  0.50000000  0.50000000  0.82282740  1
  Sr  Sr16  1  0.50000000  0.17717260  0.50000000  1
  Sr  Sr17  1  0.17717260  0.50000000  0.82282740  1
  Sr  Sr18  1  0.00000000  0.00000000  0.00000000  1
  Sr  Sr19  1  0.50000000  0.82282740  0.50000000  1
  Sr  Sr20  1  0.82282740  0.50000000  0.17717260  1
  Mg  Mg0  1  0.50000000  0.50000000  0.50000000  1
  Ga  Ga0  1  0.69437375  0.91687775  0.69437375  1
  Ga  Ga1  1  0.69437375  0.69437375  0.91687775  1
  Ga  Ga2  1  0.69437375  0.69437375  0.69437375  1
  Ga  Ga3  1  0.30562625  0.08312225  0.30562625  1
  Ga  Ga4  1  0.91687775  0.69437375  0.69437375  1
  Ga  Ga5  1  0.30562625  0.30562625  0.08312225  1
  Ga  Ga6  1  0.08312225  0.30562625  0.30562625  1
  Ga  Ga7  1  0.30562625  0.30562625  0.30562625  1
  Bi  Bi0  1  0.79207609  0.20792391  0.79207609  1
  Bi  Bi1  1  0.79207609  0.20792391  0.20792391  1
  Bi  Bi2  1  0.20792391  0.79207609  0.20792391  1
  Bi  Bi3  1  0.20792391  0.79207609  0.79207609  1
  Bi  Bi4  1  0.79207609  0.79207609  0.20792391  1
  Bi  Bi5  1  0.20792391  0.20792391  0.79207609  1
loop_
_geom_bond_atom_site_label_1
_geom_bond_atom_site_label_2
_geom_bond_distance
_geom_bond_site_symmetry_2
Sr0 Sr18 3.962698 1_665
Sr0 Sr19 4.240549 1_555
Sr0 Sr7 4.240550 1_555
Sr0 Sr16 4.240556 1_565
Sr0 Sr10 4.240556 1_655
Sr0 Sr6 4.240561 1_655
Sr0 Sr9 4.240561 1_565
Sr1 Sr18 3.962698 1_655
Sr1 Sr16 4.240549 1_555
Sr1 Sr12 4.240550 1_555
Sr1 Sr19 4.240556 1_545
Sr1 Sr15 4.240556 1_554
Sr1 Sr13 4.240561 1_554
Sr1 Sr14 4.240561 1_545
Sr2 Sr7 4.240549 1_555
Sr2 Sr20 4.240561 1_556
Sr3 Sr9 4.240553 1_455
Sr3 Sr6 4.240553 1_545
Sr5 Sr6 4.240553 1_655
Sr5 Sr9 4.240553 1_565
Sr6 Sr8 4.240561 1_565
Sr6 Sr9 4.310355 1_465
Sr7 Sr9 3.926964 1_555
Sr7 Sr8 4.240556 1_655
Sr8 Sr9 4.240561 1_455
Sr10 Sr12 3.926963 1_555
Sr10 Sr17 3.926963 1_555
Sr10 Sr6 3.926964 1_555
Sr10 Sr16 3.926964 1_555
Sr10 Sr11 4.240549 1_555
Sr10 Sr8 4.240550 1_555
Sr10 Sr2 4.240555 1_455
Sr10 Sr7 4.310354 1_455
Sr11 Sr18 3.962699 1_565
Sr11 Sr12 4.240549 1_555
Sr11 Sr7 4.240555 1_455
Sr11 Sr15 4.240555 1_554
Sr11 Sr20 4.240561 1_455
Sr11 Sr17 4.240561 1_554
Sr12 Sr20 3.926963 1_555
Sr12 Sr16 3.926964 1_555
Sr12 Sr14 3.926964 1_555
Sr12 Sr2 4.240555 1_554
Sr12 Sr4 4.240556 1_554
Sr12 Sr15 4.310355 1_554
Sr13 Sr9 3.926963 1_555
Sr13 Sr16 3.926963 1_555
Sr13 Sr15 3.926964 1_555
Sr13 Sr17 3.926964 1_555
Sr13 Sr3 4.240553 1_556
Sr13 Sr5 4.240553 1_545
Sr13 Sr4 4.240561 1_545
Sr13 Sr14 4.310355 1_546
Sr14 Sr6 3.926963 1_555
Sr14 Sr19 3.926963 1_555
Sr14 Sr20 3.926964 1_555
Sr14 Sr5 4.240553 1_554
Sr14 Sr3 4.240553 1_565
Sr14 Sr4 4.240561 1_554
Sr15 Sr17 3.926963 1_555
Sr15 Sr7 3.926963 1_555
Sr15 Sr19 3.926964 1_555
Sr15 Sr2 4.240549 1_555
Sr15 Sr4 4.240550 1_555
Sr16 Sr9 3.926963 1_555
Sr16 Sr8 4.240549 1_555
Sr16 Sr4 4.240556 1_545
Sr16 Sr19 4.310355 1_545
Sr17 Sr6 3.926964 1_555
Sr17 Sr3 4.240553 1_556
Sr17 Sr5 4.240553 1_455
Sr17 Sr2 4.240561 1_455
Sr17 Sr20 4.310354 1_456
Sr18 Sr4 3.962698 1_544
Sr18 Sr8 3.962698 1_554
Sr18 Sr2 3.962699 1_454
Sr18 Sr3 3.962708 1_555
Sr18 Sr5 3.962708 1_444
Sr19 Sr6 3.926963 1_555
Sr19 Sr7 3.926964 1_555
Sr19 Sr4 4.240549 1_555
Sr19 Sr8 4.240556 1_565
Sr20 Sr7 3.926963 1_555
Sr20 Sr9 3.926964 1_555
Sr20 Sr5 4.240553 1_554
Sr20 Sr3 4.240553 1_655
Mg0 Sr7 3.926963 1_555
Mg0 Sr20 3.926963 1_555
Mg0 Sr17 3.926963 1_555
Mg0 Sr10 3.926963 1_555
Mg0 Sr15 3.926963 1_555
Mg0 Sr12 3.926963 1_555
Mg0 Sr14 3.926964 1_555
Mg0 Sr13 3.926964 1_555
Mg0 Sr19 3.926964 1_555
Mg0 Sr16 3.926964 1_555
Mg0 Sr6 3.926964 1_555
Mg0 Sr9 3.926964 1_555
Ga0 Ga2 2.706601 1_555
Ga0 Ga1 2.706601 1_555
Ga0 Ga4 2.706601 1_555
Ga0 Sr4 3.324092 1_555
Ga0 Sr0 3.324092 1_555
Ga0 Sr5 3.324092 1_555
Ga0 Sr16 3.438597 1_565
Ga0 Sr9 3.438604 1_565
Ga0 Sr13 3.438604 1_565
Ga1 Ga4 2.706601 1_555
Ga1 Ga2 2.706601 1_555
Ga1 Sr5 3.324092 1_555
Ga1 Sr4 3.324093 1_555
Ga1 Sr2 3.324093 1_555
Ga1 Sr12 3.438597 1_556
Ga1 Sr14 3.438604 1_556
Ga1 Sr20 3.438604 1_556
Ga2 Ga4 2.706601 1_555
Ga2 Sr0 3.324092 1_555
Ga2 Sr4 3.324093 1_555
Ga2 Sr2 3.324093 1_555
Ga2 Sr15 3.438594 1_555
Ga2 Sr19 3.438594 1_555
Ga2 Sr7 3.438595 1_555
Ga3 Ga5 2.706601 1_555
Ga3 Ga7 2.706601 1_555
Ga3 Ga6 2.706601 1_555
Ga3 Sr1 3.324092 1_555
Ga3 Sr8 3.324092 1_555
Ga3 Sr3 3.324092 1_555
Ga3 Sr19 3.438597 1_545
Ga3 Sr6 3.438604 1_545
Ga3 Sr14 3.438604 1_545
Ga4 Sr5 3.324093 1_555
Ga4 Sr0 3.324093 1_555
Ga4 Sr2 3.324093 1_555
Ga4 Sr10 3.438597 1_655
Ga4 Sr6 3.438604 1_655
Ga4 Sr17 3.438604 1_655
Ga5 Ga6 2.706601 1_555
Ga5 Ga7 2.706601 1_555
Ga5 Sr3 3.324092 1_555
Ga5 Sr1 3.324093 1_555
Ga5 Sr11 3.324093 1_555
Ga5 Sr15 3.438597 1_554
Ga5 Sr13 3.438604 1_554
Ga5 Sr17 3.438604 1_554
Ga6 Ga7 2.706601 1_555
Ga6 Sr3 3.324093 1_555
Ga6 Sr8 3.324093 1_555
Ga6 Sr11 3.324093 1_555
Ga6 Sr7 3.438597 1_455
Ga6 Sr9 3.438604 1_455
Ga6 Sr20 3.438604 1_455
Ga7 Sr8 3.324092 1_555
Ga7 Sr1 3.324093 1_555
Ga7 Sr11 3.324093 1_555
Ga7 Sr12 3.438594 1_555
Ga7 Sr16 3.438594 1_555
Ga7 Sr10 3.438595 1_555
Bi0 Sr2 3.482844 1_555
Bi0 Sr8 3.482853 1_655
Bi0 Sr1 3.482853 1_556
Bi0 Sr5 3.482856 1_545
Bi0 Sr13 3.572533 1_555
Bi0 Sr9 3.572533 1_555
Bi0 Sr7 3.572533 1_555
Bi0 Sr15 3.572534 1_555
Bi0 Sr18 3.576893 1_656
Bi1 Sr1 3.482844 1_555
Bi1 Sr2 3.482853 1_554
Bi1 Sr0 3.482853 1_545
Bi1 Sr3 3.482855 1_655
Bi1 Sr16 3.572533 1_555
Bi1 Sr9 3.572533 1_555
Bi1 Sr20 3.572533 1_555
Bi1 Sr12 3.572534 1_555
Bi1 Sr18 3.576893 1_655
Bi2 Sr11 3.482844 1_555
Bi2 Sr0 3.482853 1_455
Bi2 Sr4 3.482853 1_554
Bi2 Sr3 3.482856 1_565
Bi2 Sr14 3.572533 1_555
Bi2 Sr6 3.572533 1_555
Bi2 Sr10 3.572533 1_555
Bi2 Sr12 3.572534 1_555
Bi2 Sr18 3.576893 1_565
Bi3 Sr4 3.482844 1_555
Bi3 Sr11 3.482853 1_556
Bi3 Sr8 3.482853 1_565
Bi3 Sr5 3.482855 1_455
Bi3 Sr19 3.572533 1_555
Bi3 Sr6 3.572533 1_555
Bi3 Sr17 3.572533 1_555
Bi3 Sr15 3.572534 1_555
Bi3 Sr18 3.576893 1_566
Bi4 Sr0 3.482844 1_555
Bi4 Sr11 3.482853 1_655
Bi4 Sr1 3.482853 1_565
Bi4 Sr5 3.482855 1_554
Bi4 Sr14 3.572533 1_555
Bi4 Sr19 3.572533 1_555
Bi4 Sr20 3.572534 1_555
Bi4 Sr7 3.572534 1_555
Bi4 Sr18 3.576892 1_665
Bi5 Sr8 3.482844 1_555
Bi5 Sr2 3.482853 1_455
Bi5 Sr4 3.482853 1_545
Bi5 Sr3 3.482855 1_556
Bi5 Sr13 3.572533 1_555
Bi5 Sr16 3.572533 1_555
Bi5 Sr17 3.572534 1_555
Bi5 Sr10 3.572534 1_555
Bi5 Sr18 3.576892 1_556
