# generated using pymatgen
data_Rb3ScSb2
_symmetry_space_group_name_H-M   'P 1'
_cell_length_a   9.92981047
_cell_length_b   9.92981081
_cell_length_c   9.92981155
_cell_angle_alpha   127.22355851
_cell_angle_beta   71.00480765
_cell_angle_gamma   136.10091933
_symmetry_Int_Tables_number   1
_chemical_formula_structural   Rb3ScSb2
_chemical_formula_sum   'Rb6 Sc2 Sb4'
_cell_volume   529.67250222
_cell_formula_units_Z   2
loop_
 _symmetry_equiv_pos_site_id
 _symmetry_equiv_pos_as_xyz
  1  'x, y, z'
loop_
 _atom_site_type_symbol
 _atom_site_label
 _atom_site_symmetry_multiplicity
 _atom_site_fract_x
 _atom_site_fract_y
 _atom_site_fract_z
 _atom_site_occupancy
  Rb  Rb0  1  0.31578588  0.70127697  0.01706285  1
  Rb  Rb1  1  0.18421412  0.20127697  0.38549109  1
  Rb  Rb2  1  0.75000000  0.25000000  0.50000000  1
  Rb  Rb3  1  0.25000000  0.74999900  0.49999900  1
  Rb  Rb4  1  0.81578588  0.79872403  0.61450991  1
  Rb  Rb5  1  0.68421412  0.29872403  0.98293815  1
  Sc  Sc0  1  0.25000000  0.25000000  0.00000000  1
  Sc  Sc1  1  0.75000000  0.75000000  0.00000000  1
  Sb  Sb0  1  0.90600253  0.18491542  0.09091695  1
  Sb  Sb1  1  0.59399847  0.68491642  0.27891389  1
  Sb  Sb2  1  0.40600153  0.31508358  0.72108511  1
  Sb  Sb3  1  0.09399847  0.81508358  0.90908205  1
loop_
_geom_bond_atom_site_label_1
_geom_bond_atom_site_label_2
_geom_bond_distance
_geom_bond_site_symmetry_2
Rb0 Sb2 3.707726 1_554
Rb0 Sb3 3.723806 1_554
Rb0 Sc1 3.933270 1_555
Rb0 Sc0 3.933271 1_555
Rb0 Sb0 3.990577 1_455
Rb0 Sb0 3.990584 1_565
Rb1 Sb3 3.707727 1_544
Rb1 Sb2 3.723807 1_555
Rb1 Sc1 3.933271 1_445
Rb1 Sc0 3.933271 1_555
Rb1 Sb1 3.990577 1_445
Rb1 Sb1 3.990584 1_555
Rb2 Sb1 3.672645 1_545
Rb2 Sb2 3.672647 1_555
Rb2 Sb3 3.672647 1_655
Rb2 Sb0 3.672655 1_555
Rb3 Sb1 3.672642 1_555
Rb3 Sb0 3.672645 1_455
Rb3 Sb2 3.672653 1_565
Rb3 Sb3 3.672654 1_555
Rb4 Sb0 3.707709 1_566
Rb4 Sb1 3.723818 1_555
Rb4 Sc0 3.933267 1_666
Rb4 Sc1 3.933267 1_556
Rb4 Sb2 3.990577 1_665
Rb4 Sb2 3.990577 1_555
Rb5 Sb1 3.707717 1_556
Rb5 Sb0 3.723820 1_556
Rb5 Sc0 3.933266 1_556
Rb5 Sc1 3.933267 1_556
Rb5 Sb3 3.990577 1_545
Rb5 Sb3 3.990577 1_655
Sb0 Sc0 2.901315 1_655
Sb0 Sc1 2.901320 1_545
Sb1 Sc1 2.901320 1_555
Sb1 Sc0 2.901325 1_555
Sb2 Sc1 2.901329 1_556
Sb2 Sc0 2.901329 1_556
Sb3 Sc1 2.901329 1_456
Sb3 Sc0 2.901329 1_566
