# generated using pymatgen
data_Sc6Ti2(Al2Os)7
_symmetry_space_group_name_H-M   'P 1'
_cell_length_a   8.77163599
_cell_length_b   8.76483119
_cell_length_c   8.76482711
_cell_angle_alpha   59.81173218
_cell_angle_beta   59.97417946
_cell_angle_gamma   59.97416353
_symmetry_Int_Tables_number   1
_chemical_formula_structural   Sc6Ti2(Al2Os)7
_chemical_formula_sum   'Sc6 Ti2 Al14 Os7'
_cell_volume   475.62162805
_cell_formula_units_Z   1
loop_
 _symmetry_equiv_pos_site_id
 _symmetry_equiv_pos_as_xyz
  1  'x, y, z'
loop_
 _atom_site_type_symbol
 _atom_site_label
 _atom_site_symmetry_multiplicity
 _atom_site_fract_x
 _atom_site_fract_y
 _atom_site_fract_z
 _atom_site_occupancy
  Sc  Sc0  1  0.71063697  0.71482254  0.28297302  1
  Sc  Sc1  1  0.29156889  0.71481896  0.28297186  1
  Sc  Sc2  1  0.71026881  0.28972121  0.28974348  1
  Sc  Sc3  1  0.29157524  0.28296747  0.71481433  1
  Sc  Sc4  1  0.71064374  0.28296812  0.71481442  1
  Sc  Sc5  1  0.28431959  0.71568375  0.71567596  1
  Ti  Ti0  1  0.87931997  0.88082905  0.36053112  1
  Ti  Ti1  1  0.87931683  0.36053481  0.88083094  1
  Al  Al0  1  0.36287736  0.87873106  0.87873208  1
  Al  Al1  1  0.87965713  0.87873073  0.87873291  1
  Al  Al2  1  0.12002257  0.12492222  0.63503010  1
  Al  Al3  1  0.12002289  0.63504078  0.12491525  1
  Al  Al4  1  0.63784631  0.12157368  0.12156790  1
  Al  Al5  1  0.11901252  0.12157316  0.12156867  1
  Al  Al6  1  0.66552675  0.66530660  0.00363771  1
  Al  Al7  1  0.66553744  0.00361350  0.66531105  1
  Al  Al8  1  0.00827386  0.66388738  0.66388784  1
  Al  Al9  1  0.66395115  0.66388668  0.66388905  1
  Al  Al10  1  0.33505051  0.33559650  0.99430277  1
  Al  Al11  1  0.33505183  0.99430623  0.33559134  1
  Al  Al12  1  0.99084152  0.33693360  0.33692781  1
  Al  Al13  1  0.33529707  0.33693162  0.33692741  1
  Os  Os0  1  0.00018126  0.99981542  0.99982173  1
  Os  Os1  1  0.00061074  0.99874248  0.49940531  1
  Os  Os2  1  0.50124118  0.99873979  0.49940712  1
  Os  Os3  1  0.99890085  0.50110043  0.50109842  1
  Os  Os4  1  0.50124114  0.49940866  0.99874072  1
  Os  Os5  1  0.00061053  0.49940933  0.99873857  1
  Os  Os6  1  0.50059336  0.99940424  0.99940911  1
loop_
_geom_bond_atom_site_label_1
_geom_bond_atom_site_label_2
_geom_bond_distance
_geom_bond_site_symmetry_2
Sc0 Ti0 2.987369 1_555
Sc1 Ti0 2.987370 1_455
Sc2 Ti0 2.965458 1_545
Sc2 Ti1 2.965576 1_554
Sc3 Ti1 2.987431 1_455
Sc4 Ti1 2.987423 1_555
Al0 Os0 2.597852 1_555
Al0 Os4 2.712081 1_555
Al0 Os2 2.712099 1_555
Al0 Os6 2.716460 1_555
Al0 Sc3 2.927608 1_565
Al0 Sc1 2.927625 1_556
Al0 Sc5 2.929965 1_555
Al1 Os0 2.597870 1_655
Al1 Os5 2.712074 1_655
Al1 Os1 2.712117 1_655
Al1 Os6 2.716436 1_555
Al1 Sc4 2.927610 1_565
Al1 Sc0 2.927622 1_556
Al1 Sc5 2.929965 1_655
Al2 Os0 2.606598 1_545
Al2 Os3 2.688466 1_455
Al2 Os1 2.731456 1_545
Al2 Os2 2.731464 1_545
Al2 Sc5 2.956145 1_545
Al2 Sc4 2.964047 1_455
Al2 Sc3 2.964080 1_555
Al3 Os0 2.606478 1_554
Al3 Os3 2.688501 1_455
Al3 Os4 2.731463 1_554
Al3 Os5 2.731487 1_554
Al3 Sc5 2.956153 1_554
Al3 Sc1 2.964075 1_555
Al3 Sc0 2.964102 1_455
Al4 Os0 2.595308 1_644
Al4 Os4 2.701130 1_554
Al4 Os2 2.701159 1_545
Al4 Os6 2.734173 1_544
Al4 Sc0 2.944945 1_545
Al4 Sc4 2.944955 1_554
Al4 Sc2 2.967696 1_555
Al5 Os0 2.595323 1_544
Al5 Os5 2.701138 1_554
Al5 Os1 2.701141 1_545
Al5 Os6 2.734164 1_544
Al5 Sc3 2.944960 1_554
Al5 Sc1 2.944962 1_545
Al5 Sc2 2.967676 1_455
Al6 Os6 2.524704 1_554
Al6 Os4 2.532683 1_554
Al6 Os5 2.532696 1_654
Al6 Sc1 2.923877 1_555
Al6 Sc0 2.923908 1_555
Al6 Sc2 2.944356 1_555
Al7 Os6 2.524754 1_545
Al7 Os1 2.532685 1_645
Al7 Os2 2.532688 1_545
Al7 Sc3 2.923961 1_555
Al7 Sc4 2.923983 1_555
Al7 Sc2 2.944265 1_555
Al8 Os5 2.518122 1_555
Al8 Os1 2.518157 1_555
Al8 Os3 2.522003 1_455
Al8 Sc5 2.946610 1_555
Al8 Sc1 2.971422 1_555
Al8 Sc3 2.971464 1_555
Al9 Os4 2.518127 1_555
Al9 Os2 2.518144 1_555
Al9 Os3 2.521999 1_555
Al9 Sc5 2.946619 1_555
Al9 Sc0 2.971424 1_555
Al9 Sc4 2.971458 1_555
Al10 Os5 2.528957 1_555
Al10 Os4 2.528963 1_555
Al10 Os6 2.538437 1_545
Al10 Sc4 2.933672 1_555
Al10 Sc3 2.933677 1_555
Al10 Sc5 2.946560 1_555
Al11 Os2 2.528958 1_555
Al11 Os1 2.528965 1_555
Al11 Os6 2.538381 1_554
Al11 Sc0 2.933612 1_555
Al11 Sc1 2.933656 1_555
Al11 Sc5 2.946533 1_555
Al12 Os3 2.536092 1_555
Al12 Os5 2.538575 1_654
Al12 Os1 2.538590 1_645
Al12 Sc2 2.934130 1_555
Al12 Sc4 2.945441 1_555
Al12 Sc0 2.945474 1_555
Al13 Os3 2.536088 1_455
Al13 Os4 2.538562 1_554
Al13 Os2 2.538595 1_545
Al13 Sc2 2.934154 1_555
Al13 Sc3 2.945456 1_555
Al13 Sc1 2.945467 1_555
Os0 Ti0 2.577443 1_456
Os0 Ti1 2.577515 1_465
Os1 Ti0 2.709830 1_455
Os1 Sc5 3.123130 1_555
Os1 Sc4 3.134164 1_465
Os1 Sc2 3.136481 1_465
Os1 Sc1 3.138671 1_555
Os2 Ti0 2.709826 1_555
Os2 Sc5 3.123121 1_555
Os2 Sc3 3.134170 1_565
Os2 Sc2 3.136518 1_565
Os2 Sc0 3.138636 1_555
Os3 Ti0 2.714979 1_555
Os3 Ti1 2.715005 1_555
Os3 Sc1 3.170733 1_655
Os3 Sc0 3.170748 1_555
Os3 Sc4 3.170751 1_555
Os3 Sc3 3.170755 1_655
Os4 Ti1 2.709804 1_555
Os4 Sc5 3.123175 1_555
Os4 Sc1 3.134208 1_556
Os4 Sc2 3.136644 1_556
Os4 Sc4 3.138732 1_555
Os5 Ti1 2.709813 1_455
Os5 Sc5 3.123156 1_555
Os5 Sc0 3.134245 1_456
Os5 Sc2 3.136641 1_456
Os5 Sc3 3.138725 1_555
Os6 Sc0 3.089052 1_556
Os6 Sc1 3.089067 1_556
Os6 Sc3 3.089092 1_565
Os6 Sc4 3.089101 1_565
