# generated using pymatgen
data_KLi2(P3Pd10)2
_symmetry_space_group_name_H-M   'P 1'
_cell_length_a   8.54780371
_cell_length_b   8.54780267
_cell_length_c   8.54780383
_cell_angle_alpha   60.00000303
_cell_angle_beta   60.00000707
_cell_angle_gamma   60.00000286
_symmetry_Int_Tables_number   1
_chemical_formula_structural   KLi2(P3Pd10)2
_chemical_formula_sum   'K1 Li2 P6 Pd20'
_cell_volume   441.61988432
_cell_formula_units_Z   1
loop_
 _symmetry_equiv_pos_site_id
 _symmetry_equiv_pos_as_xyz
  1  'x, y, z'
loop_
 _atom_site_type_symbol
 _atom_site_label
 _atom_site_symmetry_multiplicity
 _atom_site_fract_x
 _atom_site_fract_y
 _atom_site_fract_z
 _atom_site_occupancy
  K  K0  1  0.25000000  0.25000000  0.25000000  1
  Li  Li0  1  0.75000000  0.75000000  0.75000000  1
  Li  Li1  1  0.00000000  0.00000000  0.00000000  1
  P  P0  1  0.73807723  0.26192277  0.26192277  1
  P  P1  1  0.26192277  0.73807723  0.73807723  1
  P  P2  1  0.26192277  0.73807723  0.26192277  1
  P  P3  1  0.73807723  0.26192277  0.73807723  1
  P  P4  1  0.26192277  0.26192277  0.73807723  1
  P  P5  1  0.73807723  0.73807723  0.26192277  1
  Pd  Pd0  1  0.39092519  0.39092519  0.39092519  1
  Pd  Pd1  1  0.61999721  0.61999721  0.61999721  1
  Pd  Pd2  1  0.39092519  0.39092519  0.82722444  1
  Pd  Pd3  1  0.39092519  0.82722444  0.39092519  1
  Pd  Pd4  1  0.61999721  0.61999721  0.14000837  1
  Pd  Pd5  1  0.61999721  0.14000837  0.61999721  1
  Pd  Pd6  1  0.82722444  0.39092519  0.39092519  1
  Pd  Pd7  1  0.14000837  0.61999721  0.61999721  1
  Pd  Pd8  1  0.34646921  0.99679949  0.99679949  1
  Pd  Pd9  1  0.65993181  0.99679949  0.99679949  1
  Pd  Pd10  1  0.99679949  0.34646921  0.65993181  1
  Pd  Pd11  1  0.99679949  0.65993181  0.34646921  1
  Pd  Pd12  1  0.99679949  0.34646921  0.99679949  1
  Pd  Pd13  1  0.65993181  0.99679949  0.34646921  1
  Pd  Pd14  1  0.99679949  0.65993181  0.99679949  1
  Pd  Pd15  1  0.34646921  0.99679949  0.65993181  1
  Pd  Pd16  1  0.99679949  0.99679949  0.34646921  1
  Pd  Pd17  1  0.99679949  0.99679949  0.65993181  1
  Pd  Pd18  1  0.65993181  0.34646921  0.99679949  1
  Pd  Pd19  1  0.34646921  0.65993181  0.99679949  1
loop_
_geom_bond_atom_site_label_1
_geom_bond_atom_site_label_2
_geom_bond_distance
_geom_bond_site_symmetry_2
K0 Pd3 2.950657 1_545
K0 Pd0 2.950657 1_555
K0 Pd6 2.950658 1_455
K0 Pd2 2.950658 1_554
K0 Pd11 3.341149 1_455
K0 Pd19 3.341149 1_554
K0 Pd16 3.341149 1_445
K0 Pd8 3.341149 1_544
K0 Pd14 3.341149 1_454
K0 Pd12 3.341149 1_454
K0 Pd13 3.341149 1_545
K0 Pd15 3.341149 1_545
K0 Pd9 3.341150 1_544
K0 Pd18 3.341150 1_554
K0 Pd17 3.341150 1_445
K0 Pd10 3.341150 1_455
Li0 Pd5 2.721967 1_565
Li0 Pd1 2.721967 1_555
Li0 Pd7 2.721967 1_655
Li0 Pd4 2.721967 1_556
Li0 Pd10 3.270411 1_555
Li0 Pd18 3.270411 1_555
Li0 Pd17 3.270411 1_555
Li0 Pd9 3.270411 1_555
Li0 Pd12 3.270411 1_555
Li0 Pd14 3.270411 1_555
Li0 Pd15 3.270411 1_555
Li0 Pd13 3.270411 1_555
Li0 Pd8 3.270411 1_555
Li0 Pd19 3.270411 1_555
Li0 Pd16 3.270411 1_555
Li0 Pd11 3.270411 1_555
Li1 Pd12 2.934448 1_454
Li1 Pd14 2.934448 1_444
Li1 Pd18 2.934448 1_454
Li1 Pd19 2.934449 1_544
Li1 Pd10 2.934449 1_454
Li1 Pd11 2.934449 1_445
Li1 Pd9 2.934449 1_444
Li1 Pd8 2.934449 1_544
Li1 Pd17 2.934449 1_444
Li1 Pd16 2.934449 1_445
Li1 Pd15 2.934449 1_544
Li1 Pd13 2.934449 1_445
P0 Pd13 2.344673 1_545
P0 Pd16 2.344673 1_545
P0 Pd18 2.344673 1_554
P0 Pd12 2.344674 1_554
P0 Pd6 2.430832 1_555
P0 Pd0 2.430832 1_555
P0 Pd4 2.499163 1_555
P0 Pd5 2.499164 1_555
P1 Pd15 2.344673 1_555
P1 Pd17 2.344673 1_455
P1 Pd19 2.344673 1_555
P1 Pd14 2.344674 1_455
P1 Pd2 2.430832 1_555
P1 Pd3 2.430832 1_555
P1 Pd7 2.499163 1_555
P1 Pd1 2.499164 1_555
P2 Pd16 2.344673 1_455
P2 Pd8 2.344673 1_554
P2 Pd11 2.344673 1_455
P2 Pd19 2.344673 1_554
P2 Pd0 2.430832 1_555
P2 Pd3 2.430832 1_555
P2 Pd4 2.499164 1_555
P2 Pd7 2.499164 1_555
P3 Pd17 2.344673 1_545
P3 Pd9 2.344673 1_545
P3 Pd10 2.344673 1_555
P3 Pd18 2.344673 1_555
P3 Pd2 2.430832 1_555
P3 Pd6 2.430832 1_555
P3 Pd1 2.499163 1_555
P3 Pd5 2.499163 1_555
P4 Pd15 2.344673 1_545
P4 Pd8 2.344673 1_545
P4 Pd10 2.344673 1_455
P4 Pd12 2.344674 1_455
P4 Pd2 2.430832 1_555
P4 Pd0 2.430832 1_555
P4 Pd7 2.499163 1_555
P4 Pd5 2.499164 1_555
P5 Pd13 2.344673 1_555
P5 Pd9 2.344673 1_554
P5 Pd11 2.344673 1_555
P5 Pd14 2.344674 1_554
P5 Pd6 2.430832 1_555
P5 Pd3 2.430832 1_555
P5 Pd4 2.499163 1_555
P5 Pd1 2.499164 1_555
Pd0 Pd13 3.072645 1_545
Pd0 Pd15 3.072645 1_545
Pd0 Pd11 3.072645 1_455
Pd0 Pd19 3.072645 1_554
Pd0 Pd10 3.072645 1_455
Pd0 Pd18 3.072645 1_554
Pd1 Pd15 2.954259 1_555
Pd1 Pd13 2.954259 1_555
Pd1 Pd10 2.954259 1_555
Pd1 Pd18 2.954259 1_555
Pd1 Pd11 2.954259 1_555
Pd1 Pd19 2.954259 1_555
Pd2 Pd8 3.072645 1_545
Pd2 Pd9 3.072645 1_545
Pd3 Pd8 3.072645 1_554
Pd3 Pd9 3.072645 1_554
Pd4 Pd9 2.954259 1_554
Pd4 Pd8 2.954259 1_554
Pd5 Pd9 2.954259 1_545
Pd5 Pd8 2.954259 1_545
Pd8 Pd9 2.679417 1_555
Pd10 Pd11 2.679417 1_555
Pd10 Pd12 2.879479 1_555
Pd10 Pd18 2.879479 1_555
Pd10 Pd7 2.954259 1_655
Pd10 Pd17 2.988908 1_545
Pd10 Pd15 2.988908 1_645
Pd10 Pd6 3.072645 1_555
Pd11 Pd16 2.879478 1_555
Pd11 Pd13 2.879479 1_555
Pd11 Pd7 2.954259 1_655
Pd11 Pd14 2.988908 1_554
Pd11 Pd19 2.988908 1_654
Pd11 Pd6 3.072645 1_555
Pd12 Pd14 2.679416 1_555
Pd12 Pd18 2.879479 1_555
Pd12 Pd4 2.954259 1_556
Pd12 Pd7 2.954259 1_655
Pd12 Pd8 2.988908 1_645
Pd12 Pd16 2.988908 1_546
Pd12 Pd2 3.072645 1_655
Pd12 Pd6 3.072645 1_556
Pd13 Pd15 2.679417 1_555
Pd13 Pd16 2.879479 1_555
Pd13 Pd5 2.954259 1_565
Pd13 Pd18 2.988908 1_564
Pd13 Pd9 2.988908 1_554
Pd13 Pd3 3.072645 1_555
Pd14 Pd9 2.879479 1_555
Pd14 Pd17 2.879479 1_555
Pd14 Pd4 2.954259 1_556
Pd14 Pd7 2.954259 1_655
Pd14 Pd19 2.988908 1_655
Pd14 Pd2 3.072645 1_655
Pd14 Pd6 3.072645 1_556
Pd15 Pd19 2.879479 1_555
Pd15 Pd8 2.879479 1_555
Pd15 Pd5 2.954259 1_565
Pd15 Pd17 2.988908 1_455
Pd15 Pd3 3.072645 1_555
Pd16 Pd17 2.679417 1_555
Pd16 Pd7 2.954259 1_655
Pd16 Pd5 2.954259 1_565
Pd16 Pd8 2.988908 1_654
Pd16 Pd6 3.072645 1_565
Pd16 Pd3 3.072645 1_655
Pd17 Pd9 2.879479 1_555
Pd17 Pd7 2.954259 1_655
Pd17 Pd5 2.954259 1_565
Pd17 Pd6 3.072645 1_565
Pd17 Pd3 3.072645 1_655
Pd18 Pd19 2.679417 1_555
Pd18 Pd4 2.954259 1_556
Pd18 Pd9 2.988908 1_545
Pd18 Pd2 3.072645 1_555
Pd19 Pd8 2.879478 1_555
Pd19 Pd4 2.954259 1_556
Pd19 Pd2 3.072645 1_555
