# generated using pymatgen
data_Bi4RuCl2
_symmetry_space_group_name_H-M   'P 1'
_cell_length_a   8.80504525
_cell_length_b   8.80504551
_cell_length_c   10.92332660
_cell_angle_alpha   52.82828695
_cell_angle_beta   52.82828449
_cell_angle_gamma   45.66319419
_symmetry_Int_Tables_number   1
_chemical_formula_structural   Bi4RuCl2
_chemical_formula_sum   'Bi8 Ru2 Cl4'
_cell_volume   457.40032140
_cell_formula_units_Z   2
loop_
 _symmetry_equiv_pos_site_id
 _symmetry_equiv_pos_as_xyz
  1  'x, y, z'
loop_
 _atom_site_type_symbol
 _atom_site_label
 _atom_site_symmetry_multiplicity
 _atom_site_fract_x
 _atom_site_fract_y
 _atom_site_fract_z
 _atom_site_occupancy
  Bi  Bi0  1  0.44600215  0.44600215  0.36741818  1
  Bi  Bi1  1  0.55399785  0.55399785  0.63258182  1
  Bi  Bi2  1  0.33517500  0.33517500  0.72124874  1
  Bi  Bi3  1  0.66482500  0.66482500  0.27875126  1
  Bi  Bi4  1  0.82202349  0.82202349  0.58729508  1
  Bi  Bi5  1  0.17797651  0.17797651  0.41270492  1
  Bi  Bi6  1  0.07594104  0.07594104  0.22543490  1
  Bi  Bi7  1  0.92405896  0.92405896  0.77456510  1
  Ru  Ru0  1  0.20844262  0.79155738  0.50000000  1
  Ru  Ru1  1  0.79155738  0.20844262  0.50000000  1
  Cl  Cl0  1  0.87670438  0.87670438  0.28205995  1
  Cl  Cl1  1  0.12329562  0.12329562  0.71794005  1
  Cl  Cl2  1  0.69875437  0.69875437  0.92991060  1
  Cl  Cl3  1  0.30124563  0.30124563  0.07008940  1
loop_
_geom_bond_atom_site_label_1
_geom_bond_atom_site_label_2
_geom_bond_distance
_geom_bond_site_symmetry_2
Bi0 Ru1 2.915249 1_555
Bi0 Ru0 2.915249 1_555
Bi0 Bi3 3.006925 1_555
Bi0 Bi2 3.009731 1_555
Bi1 Ru0 2.915249 1_555
Bi1 Ru1 2.915249 1_555
Bi1 Bi2 3.006925 1_555
Bi1 Bi3 3.009731 1_555
Bi2 Ru1 2.913673 1_555
Bi2 Ru0 2.913673 1_555
Bi3 Ru0 2.913673 1_555
Bi3 Ru1 2.913673 1_555
Bi4 Ru0 2.769581 1_655
Bi4 Ru1 2.769582 1_565
Bi4 Cl0 2.832787 1_555
Bi4 Cl2 2.862131 1_555
Bi5 Ru1 2.769581 1_455
Bi5 Ru0 2.769582 1_545
Bi5 Cl1 2.832787 1_555
Bi5 Cl3 2.862131 1_555
Bi6 Ru1 2.774177 1_455
Bi6 Ru0 2.774177 1_545
Bi6 Cl3 2.848786 1_555
Bi6 Cl0 2.866493 1_445
Bi7 Ru0 2.774177 1_655
Bi7 Ru1 2.774177 1_565
Bi7 Cl2 2.848786 1_555
Bi7 Cl1 2.866493 1_665
Ru0 Ru1 2.848634 1_465
