# generated using pymatgen
data_KRb(Al3Se5)2
_symmetry_space_group_name_H-M   'P 1'
_cell_length_a   13.37165065
_cell_length_b   7.49238462
_cell_length_c   10.99170132
_cell_angle_alpha   76.08423811
_cell_angle_beta   90.00000000
_cell_angle_gamma   90.00000000
_symmetry_Int_Tables_number   1
_chemical_formula_structural   KRb(Al3Se5)2
_chemical_formula_sum   'K2 Rb2 Al12 Se20'
_cell_volume   1068.88953044
_cell_formula_units_Z   2
loop_
 _symmetry_equiv_pos_site_id
 _symmetry_equiv_pos_as_xyz
  1  'x, y, z'
loop_
 _atom_site_type_symbol
 _atom_site_label
 _atom_site_symmetry_multiplicity
 _atom_site_fract_x
 _atom_site_fract_y
 _atom_site_fract_z
 _atom_site_occupancy
  K  K0  1  0.36574887  0.15429767  0.63932872  1
  K  K1  1  0.86574887  0.84570233  0.86067128  1
  Rb  Rb0  1  0.62078194  0.84073955  0.38201889  1
  Rb  Rb1  1  0.12078194  0.15926045  0.11798111  1
  Al  Al0  1  0.92506154  0.79846867  0.39707254  1
  Al  Al1  1  0.57658833  0.80107009  0.89499489  1
  Al  Al2  1  0.42506154  0.20153133  0.10292746  1
  Al  Al3  1  0.39839244  0.56341586  0.80735891  1
  Al  Al4  1  0.10491147  0.56058809  0.31065230  1
  Al  Al5  1  0.33911593  0.70678141  0.12777117  1
  Al  Al6  1  0.60491147  0.43941191  0.18934770  1
  Al  Al7  1  0.07658833  0.19892991  0.60500511  1
  Al  Al8  1  0.66180565  0.29423315  0.87080318  1
  Al  Al9  1  0.89839244  0.43658414  0.69264109  1
  Al  Al10  1  0.16180565  0.70576685  0.62919682  1
  Al  Al11  1  0.83911593  0.29321859  0.37222883  1
  Se  Se0  1  0.83093577  0.71583312  0.58188192  1
  Se  Se1  1  0.10600665  0.81192673  0.41435148  1
  Se  Se2  1  0.67334660  0.71836315  0.07759848  1
  Se  Se3  1  0.39558103  0.81254313  0.91261585  1
  Se  Se4  1  0.33093577  0.28416688  0.91811808  1
  Se  Se5  1  0.66674092  0.34672166  0.39548942  1
  Se  Se6  1  0.57844211  0.57741932  0.76326067  1
  Se  Se7  1  0.60600665  0.18807327  0.08564852  1
  Se  Se8  1  0.89558103  0.18745687  0.58738415  1
  Se  Se9  1  0.62674698  0.07531479  0.75255395  1
  Se  Se10  1  0.37057841  0.92973507  0.24325003  1
  Se  Se11  1  0.17334660  0.28163685  0.42240152  1
  Se  Se12  1  0.07844211  0.42258068  0.73673933  1
  Se  Se13  1  0.92453716  0.57393000  0.26636127  1
  Se  Se14  1  0.87057841  0.07026493  0.25674997  1
  Se  Se15  1  0.12674698  0.92468521  0.74744605  1
  Se  Se16  1  0.83467821  0.34304704  0.89744175  1
  Se  Se17  1  0.33467821  0.65695296  0.60255825  1
  Se  Se18  1  0.42453716  0.42607000  0.23363873  1
  Se  Se19  1  0.16674092  0.65327834  0.10451058  1
loop_
_geom_bond_atom_site_label_1
_geom_bond_atom_site_label_2
_geom_bond_distance
_geom_bond_site_symmetry_2
K0 Se4 3.462373 1_555
K0 Se3 3.469774 1_545
K0 Se11 3.481434 1_555
K0 Se15 3.688084 1_545
K0 Se9 3.704694 1_555
K0 Se17 3.713117 1_555
K0 Se17 3.865962 1_545
K1 Se0 3.462373 1_555
K1 Se8 3.469774 1_565
K1 Se2 3.481434 1_556
K1 Se9 3.688084 1_565
K1 Se15 3.704694 1_655
K1 Se16 3.713117 1_555
K1 Se16 3.865962 1_565
Rb0 Se0 3.551015 1_555
Rb0 Se7 3.653186 1_565
Rb0 Se10 3.670864 1_555
Rb0 Se5 3.719697 1_555
Rb0 Se2 3.742563 1_555
Rb0 Se14 3.856319 1_565
Rb0 Se5 3.878318 1_565
Rb1 Se4 3.551015 1_554
Rb1 Se1 3.653186 1_545
Rb1 Se14 3.670864 1_455
Rb1 Se19 3.719697 1_555
Rb1 Se11 3.742563 1_555
Rb1 Se10 3.856319 1_545
Rb1 Se19 3.878318 1_545
Al0 Se0 2.342855 1_555
Al0 Se14 2.354971 1_565
Al0 Se1 2.430967 1_655
Al0 Se13 2.461116 1_555
Al1 Se2 2.342706 1_556
Al1 Se9 2.361308 1_565
Al1 Se3 2.431272 1_555
Al1 Se6 2.464187 1_555
Al2 Se4 2.342855 1_554
Al2 Se10 2.354971 1_545
Al2 Se7 2.430967 1_555
Al2 Se18 2.461116 1_555
Al3 Se4 2.334110 1_555
Al3 Se17 2.350672 1_555
Al3 Se3 2.421301 1_555
Al3 Se6 2.453130 1_555
Al4 Se11 2.340832 1_555
Al4 Se19 2.354363 1_555
Al4 Se1 2.424461 1_555
Al4 Se13 2.457817 1_455
Al5 Se19 2.363916 1_555
Al5 Se10 2.366096 1_555
Al5 Se3 2.426824 1_554
Al5 Se18 2.430030 1_555
Al6 Se2 2.340832 1_555
Al6 Se5 2.354363 1_555
Al6 Se7 2.424461 1_555
Al6 Se18 2.457817 1_555
Al7 Se11 2.342706 1_555
Al7 Se15 2.361308 1_545
Al7 Se8 2.431272 1_455
Al7 Se12 2.464187 1_555
Al8 Se16 2.369485 1_555
Al8 Se9 2.371684 1_555
Al8 Se7 2.421291 1_556
Al8 Se6 2.436248 1_555
Al9 Se0 2.334110 1_555
Al9 Se16 2.350672 1_555
Al9 Se8 2.421301 1_555
Al9 Se12 2.453130 1_655
Al10 Se17 2.369485 1_555
Al10 Se15 2.371684 1_555
Al10 Se1 2.421291 1_555
Al10 Se12 2.436248 1_555
Al11 Se5 2.363916 1_555
Al11 Se14 2.366096 1_555
Al11 Se8 2.426824 1_555
Al11 Se13 2.430030 1_555
