# generated using pymatgen
data_K5GeP3
_symmetry_space_group_name_H-M   'P 1'
_cell_length_a   5.15606075
_cell_length_b   14.24767459
_cell_length_c   15.17594127
_cell_angle_alpha   90.00000000
_cell_angle_beta   90.00000000
_cell_angle_gamma   90.00000000
_symmetry_Int_Tables_number   1
_chemical_formula_structural   K5GeP3
_chemical_formula_sum   'K20 Ge4 P12'
_cell_volume   1114.85311289
_cell_formula_units_Z   4
loop_
 _symmetry_equiv_pos_site_id
 _symmetry_equiv_pos_as_xyz
  1  'x, y, z'
loop_
 _atom_site_type_symbol
 _atom_site_label
 _atom_site_symmetry_multiplicity
 _atom_site_fract_x
 _atom_site_fract_y
 _atom_site_fract_z
 _atom_site_occupancy
  K  K0  1  0.25000000  0.94554952  0.30219440  1
  K  K1  1  0.75000000  0.05445048  0.69780560  1
  K  K2  1  0.75000000  0.44554952  0.19780560  1
  K  K3  1  0.25000000  0.55445048  0.80219440  1
  K  K4  1  0.25000000  0.12415059  0.51959381  1
  K  K5  1  0.75000000  0.87584941  0.48040619  1
  K  K6  1  0.75000000  0.62415059  0.98040619  1
  K  K7  1  0.25000000  0.37584941  0.01959381  1
  K  K8  1  0.25000000  0.42377737  0.56727354  1
  K  K9  1  0.75000000  0.57622263  0.43272646  1
  K  K10  1  0.75000000  0.92377737  0.93272646  1
  K  K11  1  0.25000000  0.07622263  0.06727354  1
  K  K12  1  0.25000000  0.81901861  0.08412109  1
  K  K13  1  0.75000000  0.18098139  0.91587891  1
  K  K14  1  0.75000000  0.31901861  0.41587891  1
  K  K15  1  0.25000000  0.68098139  0.58412109  1
  K  K16  1  0.25000000  0.23382046  0.26723528  1
  K  K17  1  0.75000000  0.76617954  0.73276472  1
  K  K18  1  0.75000000  0.73382046  0.23276472  1
  K  K19  1  0.25000000  0.26617954  0.76723528  1
  Ge  Ge0  1  0.25000000  0.58688019  0.28302091  1
  Ge  Ge1  1  0.75000000  0.41311981  0.71697909  1
  Ge  Ge2  1  0.75000000  0.08688019  0.21697909  1
  Ge  Ge3  1  0.25000000  0.91311981  0.78302091  1
  P  P0  1  0.25000000  0.59330875  0.13334279  1
  P  P1  1  0.75000000  0.40669125  0.86665721  1
  P  P2  1  0.75000000  0.09330875  0.36665721  1
  P  P3  1  0.25000000  0.90669125  0.63334279  1
  P  P4  1  0.25000000  0.44567773  0.35016742  1
  P  P5  1  0.75000000  0.55432227  0.64983258  1
  P  P6  1  0.75000000  0.94567773  0.14983258  1
  P  P7  1  0.25000000  0.05432227  0.85016742  1
  P  P8  1  0.25000000  0.71851063  0.36796096  1
  P  P9  1  0.75000000  0.28148937  0.63203904  1
  P  P10  1  0.75000000  0.21851063  0.13203904  1
  P  P11  1  0.25000000  0.78148937  0.86796096  1
loop_
_geom_bond_atom_site_label_1
_geom_bond_atom_site_label_2
_geom_bond_distance
_geom_bond_site_symmetry_2
K0 P8 3.385250 1_555
K0 P6 3.463044 1_555
K0 P6 3.463044 1_455
K0 P2 3.469186 1_465
K0 P2 3.469186 1_565
K1 P9 3.385250 1_555
K1 P7 3.463044 1_655
K1 P7 3.463044 1_555
K1 P3 3.469186 1_645
K1 P3 3.469186 1_545
K2 P10 3.385250 1_555
K2 P4 3.463044 1_555
K2 P4 3.463044 1_655
K2 P0 3.469186 1_655
K2 P0 3.469186 1_555
K3 P11 3.385250 1_555
K3 P5 3.463044 1_455
K3 P5 3.463044 1_555
K3 P1 3.469186 1_555
K3 P1 3.469186 1_455
K4 P2 3.496595 1_555
K4 P2 3.496595 1_455
K4 P3 3.546735 1_545
K4 P9 3.818838 1_455
K4 P9 3.818838 1_555
K5 P3 3.496595 1_555
K5 P3 3.496595 1_655
K5 P2 3.546735 1_565
K5 P8 3.818838 1_555
K5 P8 3.818838 1_655
K6 P0 3.496595 1_656
K6 P0 3.496595 1_556
K6 P1 3.546735 1_555
K6 P11 3.818838 1_555
K6 P11 3.818838 1_655
K7 P1 3.496595 1_554
K7 P1 3.496595 1_454
K7 P0 3.546735 1_555
K7 P10 3.818838 1_555
K7 P10 3.818838 1_455
K8 P4 3.309532 1_555
K8 P5 3.416941 1_555
K8 P5 3.416941 1_455
K8 P9 3.423759 1_555
K8 P9 3.423759 1_455
K9 P5 3.309532 1_555
K9 P4 3.416941 1_655
K9 P4 3.416941 1_555
K9 P8 3.423759 1_655
K9 P8 3.423759 1_555
K10 P6 3.309532 1_556
K10 P7 3.416941 1_565
K10 P7 3.416941 1_665
K10 P11 3.423759 1_655
K10 P11 3.423759 1_555
K11 P7 3.309532 1_554
K11 P6 3.416941 1_445
K11 P6 3.416941 1_545
K11 P10 3.423759 1_455
K11 P10 3.423759 1_555
K12 P6 3.301104 1_455
K12 P6 3.301104 1_555
K12 P0 3.301457 1_555
K12 P11 3.323726 1_554
K13 P7 3.301104 1_555
K13 P7 3.301104 1_655
K13 P1 3.301457 1_555
K13 P10 3.323726 1_556
K14 P4 3.301104 1_655
K14 P4 3.301104 1_555
K14 P2 3.301457 1_555
K14 P9 3.323726 1_555
K15 P5 3.301104 1_555
K15 P5 3.301104 1_455
K15 P3 3.301457 1_555
K15 P8 3.323726 1_555
K16 P4 3.270350 1_555
K16 P10 3.302032 1_555
K16 P10 3.302032 1_455
K16 P2 3.595921 1_455
K16 P2 3.595921 1_555
K17 P5 3.270350 1_555
K17 P11 3.302032 1_555
K17 P11 3.302032 1_655
K17 P3 3.595921 1_655
K17 P3 3.595921 1_555
K18 P6 3.270350 1_555
K18 P8 3.302032 1_655
K18 P8 3.302032 1_555
K18 P0 3.595921 1_555
K18 P0 3.595921 1_655
K19 P7 3.270350 1_555
K19 P9 3.302032 1_555
K19 P9 3.302032 1_455
K19 P1 3.595921 1_555
K19 P1 3.595921 1_455
Ge0 P4 2.255161 1_555
Ge0 P0 2.273352 1_555
Ge0 P8 2.275712 1_555
Ge0 K18 3.407479 1_555
Ge0 K18 3.407479 1_455
Ge0 K9 3.439612 1_455
Ge0 K9 3.439612 1_555
Ge0 K2 3.517582 1_555
Ge0 K2 3.517582 1_455
Ge1 P5 2.255161 1_555
Ge1 P1 2.273352 1_555
Ge1 P9 2.275712 1_555
Ge1 K19 3.407479 1_555
Ge1 K19 3.407479 1_655
Ge1 K8 3.439612 1_655
Ge1 K8 3.439612 1_555
Ge1 K3 3.517582 1_555
Ge1 K3 3.517582 1_655
Ge2 P6 2.255161 1_545
Ge2 P2 2.273352 1_555
Ge2 P10 2.275712 1_555
Ge2 K16 3.407479 1_555
Ge2 K16 3.407479 1_655
Ge2 K11 3.439612 1_655
Ge2 K11 3.439612 1_555
Ge2 K0 3.517582 1_645
Ge2 K0 3.517582 1_545
Ge3 P7 2.255161 1_565
Ge3 P3 2.273352 1_555
Ge3 P11 2.275712 1_555
Ge3 K17 3.407479 1_555
Ge3 K17 3.407479 1_455
Ge3 K10 3.439612 1_455
Ge3 K10 3.439612 1_555
Ge3 K1 3.517582 1_465
Ge3 K1 3.517582 1_565
