# generated using pymatgen
data_NaYO2
_symmetry_space_group_name_H-M   'P 1'
_cell_length_a   5.92212756
_cell_length_b   6.00557142
_cell_length_c   7.37824764
_cell_angle_alpha   104.63089009
_cell_angle_beta   104.15269349
_cell_angle_gamma   112.66019535
_symmetry_Int_Tables_number   1
_chemical_formula_structural   NaYO2
_chemical_formula_sum   'Na4 Y4 O8'
_cell_volume   216.45442817
_cell_formula_units_Z   4
loop_
 _symmetry_equiv_pos_site_id
 _symmetry_equiv_pos_as_xyz
  1  'x, y, z'
loop_
 _atom_site_type_symbol
 _atom_site_label
 _atom_site_symmetry_multiplicity
 _atom_site_fract_x
 _atom_site_fract_y
 _atom_site_fract_z
 _atom_site_occupancy
  Na  Na0  1  0.43058508  0.18109098  0.86117053  1
  Na  Na1  1  0.19346096  0.94387778  0.38871168  1
  Na  Na2  1  0.56941608  0.81890766  0.13882978  1
  Na  Na3  1  0.80654066  0.05612186  0.61128914  1
  Y  Y0  1  0.31744225  0.56745205  0.63451720  1
  Y  Y1  1  0.68255860  0.43254799  0.36548352  1
  Y  Y2  1  0.05679061  0.30684491  0.11375308  1
  Y  Y3  1  0.94320898  0.69315515  0.88624677  1
  O  O0  1  0.06257804  0.77193291  0.62682119  1
  O  O1  1  0.56420635  0.35482979  0.62673043  1
  O  O2  1  0.93742175  0.22806626  0.37317907  1
  O  O3  1  0.43579511  0.64517025  0.37327012  1
  O  O4  1  0.83103424  0.54170321  0.12373306  1
  O  O5  1  0.70749827  0.91798410  0.87621528  1
  O  O6  1  0.16896628  0.45829732  0.87626737  1
  O  O7  1  0.29249675  0.08201777  0.12378378  1
loop_
_geom_bond_atom_site_label_1
_geom_bond_atom_site_label_2
_geom_bond_distance
_geom_bond_site_symmetry_2
Na0 O1 2.377365 1_555
Na0 O0 2.379471 1_545
Na0 O4 2.396598 1_556
Na0 O7 2.399901 1_556
Na0 O6 2.676287 1_555
Na0 O5 2.682275 1_545
Na1 O0 2.391488 1_555
Na1 O1 2.396951 1_565
Na1 O4 2.414690 1_455
Na1 O7 2.420338 1_565
Na1 O2 2.689431 1_465
Na1 O3 2.692793 1_555
Na2 O3 2.377362 1_555
Na2 O2 2.379469 1_565
Na2 O6 2.396596 1_554
Na2 O5 2.399900 1_554
Na2 O4 2.676275 1_555
Na2 O7 2.682322 1_565
Na3 O2 2.391487 1_555
Na3 O3 2.396950 1_545
Na3 O6 2.414690 1_655
Na3 O5 2.420332 1_545
Na3 O0 2.689425 1_645
Na3 O1 2.692796 1_555
O0 Y0 2.282732 1_555
O0 Y3 2.291034 1_455
O0 Y1 2.301133 1_455
O1 Y0 2.282819 1_555
O1 Y3 2.291612 1_555
O1 Y1 2.299483 1_555
O2 Y1 2.282731 1_555
O2 Y2 2.291038 1_655
O2 Y0 2.301138 1_655
O3 Y1 2.282815 1_555
O3 Y2 2.291618 1_555
O3 Y0 2.299485 1_555
O4 Y2 2.287128 1_655
O4 Y3 2.290788 1_554
O4 Y1 2.301733 1_555
O5 Y3 2.286789 1_555
O5 Y2 2.289445 1_666
O5 Y0 2.299970 1_555
O6 Y3 2.287130 1_455
O6 Y2 2.290787 1_556
O6 Y0 2.301731 1_555
O7 Y2 2.286757 1_555
O7 Y3 2.289440 1_444
O7 Y1 2.299986 1_555
