# generated using pymatgen
data_NbNi4Au
_symmetry_space_group_name_H-M   'P 1'
_cell_length_a   4.73096737
_cell_length_b   4.73096775
_cell_length_c   4.73096768
_cell_angle_alpha   59.99999368
_cell_angle_beta   59.99999102
_cell_angle_gamma   59.99999668
_symmetry_Int_Tables_number   1
_chemical_formula_structural   NbNi4Au
_chemical_formula_sum   'Nb1 Ni4 Au1'
_cell_volume   74.87465991
_cell_formula_units_Z   1
loop_
 _symmetry_equiv_pos_site_id
 _symmetry_equiv_pos_as_xyz
  1  'x, y, z'
loop_
 _atom_site_type_symbol
 _atom_site_label
 _atom_site_symmetry_multiplicity
 _atom_site_fract_x
 _atom_site_fract_y
 _atom_site_fract_z
 _atom_site_occupancy
  Nb  Nb0  1  0.00000000  0.00000000  0.00000000  1
  Ni  Ni0  1  0.62511651  0.62511651  0.12464947  1
  Ni  Ni1  1  0.62511651  0.12464947  0.62511651  1
  Ni  Ni2  1  0.12464947  0.62511651  0.62511651  1
  Ni  Ni3  1  0.62511651  0.62511651  0.62511651  1
  Au  Au0  1  0.25000000  0.25000000  0.25000000  1
loop_
_geom_bond_atom_site_label_1
_geom_bond_atom_site_label_2
_geom_bond_distance
_geom_bond_site_symmetry_2
Nb0 Ni1 2.773539 1_554
Nb0 Ni1 2.773539 1_455
Nb0 Ni0 2.773539 1_545
Nb0 Ni2 2.773539 1_554
Nb0 Ni2 2.773539 1_545
Nb0 Ni0 2.773539 1_455
Nb0 Ni3 2.773541 1_445
Nb0 Ni3 2.773541 1_544
Nb0 Ni3 2.773541 1_454
Nb0 Ni0 2.773543 1_445
Nb0 Ni1 2.773543 1_454
Nb0 Ni2 2.773543 1_544
Ni0 Ni2 2.363274 1_654
Ni0 Ni1 2.363274 1_564
Ni0 Ni3 2.363274 1_554
Ni0 Ni2 2.367693 1_555
Ni0 Ni1 2.367693 1_555
Ni0 Ni3 2.367693 1_555
Ni1 Ni2 2.363274 1_645
Ni1 Ni3 2.363274 1_545
Ni1 Ni2 2.367693 1_555
Ni1 Ni3 2.367693 1_555
Ni2 Ni3 2.363274 1_455
Ni2 Ni3 2.367693 1_555
Au0 Ni0 2.774009 1_555
Au0 Ni1 2.774009 1_555
Au0 Ni2 2.774009 1_555
Au0 Ni3 2.774011 1_554
Au0 Ni3 2.774011 1_455
Au0 Ni3 2.774011 1_545
Au0 Ni1 2.774013 1_455
Au0 Ni1 2.774013 1_554
Au0 Ni0 2.774013 1_455
Au0 Ni2 2.774013 1_545
Au0 Ni2 2.774013 1_554
Au0 Ni0 2.774013 1_545
Au0 Nb0 2.897114 1_655
Au0 Nb0 2.897114 1_556
Au0 Nb0 2.897114 1_565
Au0 Nb0 2.897114 1_555
