# generated using pymatgen
data_TiNb3(SeI)4
_symmetry_space_group_name_H-M   'P 1'
_cell_length_a   7.84042826
_cell_length_b   7.84042871
_cell_length_c   7.84042827
_cell_angle_alpha   58.44765015
_cell_angle_beta   58.44765095
_cell_angle_gamma   58.44764970
_symmetry_Int_Tables_number   1
_chemical_formula_structural   TiNb3(SeI)4
_chemical_formula_sum   'Ti1 Nb3 Se4 I4'
_cell_volume   328.69782007
_cell_formula_units_Z   1
loop_
 _symmetry_equiv_pos_site_id
 _symmetry_equiv_pos_as_xyz
  1  'x, y, z'
loop_
 _atom_site_type_symbol
 _atom_site_label
 _atom_site_symmetry_multiplicity
 _atom_site_fract_x
 _atom_site_fract_y
 _atom_site_fract_z
 _atom_site_occupancy
  Ti  Ti0  1  0.39267714  0.39267714  0.39267714  1
  Nb  Nb0  1  0.40975625  0.78778406  0.40975625  1
  Nb  Nb1  1  0.78778406  0.40975625  0.40975625  1
  Nb  Nb2  1  0.40975625  0.40975625  0.78778406  1
  Se  Se0  1  0.62101040  0.12069605  0.62101040  1
  Se  Se1  1  0.62101040  0.62101040  0.12069605  1
  Se  Se2  1  0.12069605  0.62101040  0.62101040  1
  Se  Se3  1  0.63444966  0.63444966  0.63444966  1
  I  I0  1  0.13096684  0.13096684  0.13096684  1
  I  I1  1  0.62139804  0.12524746  0.12524746  1
  I  I2  1  0.12524746  0.62139804  0.12524746  1
  I  I3  1  0.12524746  0.12524746  0.62139804  1
loop_
_geom_bond_atom_site_label_1
_geom_bond_atom_site_label_2
_geom_bond_distance
_geom_bond_site_symmetry_2
Nb0 Se3 2.543115 1_555
Nb0 Se1 2.548677 1_555
Nb0 Se2 2.548677 1_555
Nb1 Se3 2.543115 1_555
Nb1 Se1 2.548677 1_555
Nb1 Se0 2.548677 1_555
Nb2 Se3 2.543115 1_555
Nb2 Se2 2.548677 1_555
Nb2 Se0 2.548677 1_555
Se0 Ti0 2.514103 1_555
Se1 Ti0 2.514103 1_555
Se2 Ti0 2.514103 1_555
I0 Nb0 3.079838 1_545
I0 Nb1 3.079838 1_455
I0 Nb2 3.079838 1_554
I1 Ti0 2.956268 1_555
I1 Nb2 3.045349 1_554
I1 Nb0 3.045349 1_545
I2 Ti0 2.956267 1_555
I2 Nb2 3.045349 1_554
I2 Nb1 3.045349 1_455
I3 Ti0 2.956268 1_555
I3 Nb1 3.045349 1_455
I3 Nb0 3.045349 1_545
