# generated using pymatgen
data_Er12Co7
_symmetry_space_group_name_H-M   'P 1'
_cell_length_a   11.07638400
_cell_length_b   8.20347400
_cell_length_c   10.93104968
_cell_angle_alpha   55.04292139
_cell_angle_beta   90.00000000
_cell_angle_gamma   90.00000000
_symmetry_Int_Tables_number   1
_chemical_formula_structural   Er12Co7
_chemical_formula_sum   'Er24 Co14'
_cell_volume   814.04763688
_cell_formula_units_Z   2
loop_
 _symmetry_equiv_pos_site_id
 _symmetry_equiv_pos_as_xyz
  1  'x, y, z'
loop_
 _atom_site_type_symbol
 _atom_site_label
 _atom_site_symmetry_multiplicity
 _atom_site_fract_x
 _atom_site_fract_y
 _atom_site_fract_z
 _atom_site_occupancy
  Er  Er0  1  0.70513400  0.23540100  0.53747500  1
  Er  Er1  1  0.20513400  0.76459900  0.96252500  1
  Er  Er2  1  0.84218800  0.50184400  0.65805300  1
  Er  Er3  1  0.34218800  0.49815600  0.84194700  1
  Er  Er4  1  0.15781200  0.49815600  0.34194700  1
  Er  Er5  1  0.65781200  0.50184400  0.15805300  1
  Er  Er6  1  0.00478400  0.84722900  0.35469300  1
  Er  Er7  1  0.50478400  0.15277100  0.14530700  1
  Er  Er8  1  0.99521600  0.15277100  0.64530700  1
  Er  Er9  1  0.49521600  0.84722900  0.85469300  1
  Er  Er10  1  0.79486600  0.23540100  0.03747500  1
  Er  Er11  1  0.29486600  0.76459900  0.46252500  1
  Er  Er12  1  0.92774200  0.77083200  0.08674700  1
  Er  Er13  1  0.42774200  0.22916800  0.41325300  1
  Er  Er14  1  0.07225800  0.22916800  0.91325300  1
  Er  Er15  1  0.57225800  0.77083200  0.58674700  1
  Er  Er16  1  0.30062500  0.24960900  0.67493000  1
  Er  Er17  1  0.80062500  0.75039100  0.82507000  1
  Er  Er18  1  0.69937500  0.75039100  0.32507000  1
  Er  Er19  1  0.19937500  0.24960900  0.17493000  1
  Er  Er20  1  0.92909100  0.26911200  0.30347300  1
  Er  Er21  1  0.42909100  0.73088800  0.19652700  1
  Er  Er22  1  0.07090900  0.73088800  0.69652700  1
  Er  Er23  1  0.57090900  0.26911200  0.80347300  1
  Co  Co0  1  0.50000000  0.50000000  0.50000000  1
  Co  Co1  1  0.00000000  0.50000000  0.00000000  1
  Co  Co2  1  0.67097100  0.91036900  0.03074300  1
  Co  Co3  1  0.17097100  0.08963100  0.46925700  1
  Co  Co4  1  0.32902900  0.08963100  0.96925700  1
  Co  Co5  1  0.82902900  0.91036900  0.53074300  1
  Co  Co6  1  0.40180400  0.49221900  0.09986400  1
  Co  Co7  1  0.90180400  0.50778100  0.40013600  1
  Co  Co8  1  0.59819600  0.50778100  0.90013600  1
  Co  Co9  1  0.09819600  0.49221900  0.59986400  1
  Co  Co10  1  0.81063500  0.09751700  0.84360600  1
  Co  Co11  1  0.31063500  0.90248300  0.65639400  1
  Co  Co12  1  0.18936500  0.90248300  0.15639400  1
  Co  Co13  1  0.68936500  0.09751700  0.34360600  1
loop_
_geom_bond_atom_site_label_1
_geom_bond_atom_site_label_2
_geom_bond_distance
_geom_bond_site_symmetry_2
Co0 Er23 2.829962 1_555
Co0 Er21 2.829962 1_555
Co0 Er18 2.872551 1_555
Co0 Er16 2.872551 1_555
Co0 Er15 2.981634 1_555
Co0 Er13 2.981634 1_555
Co0 Er11 3.003855 1_555
Co0 Er0 3.003855 1_555
Co1 Er20 2.829962 1_455
Co1 Er22 2.829962 1_554
Co1 Er19 2.872551 1_555
Co1 Er17 2.872551 1_454
Co1 Er12 2.981634 1_455
Co1 Er14 2.981634 1_554
Co1 Er1 3.003855 1_554
Co1 Er10 3.003855 1_455
Co2 Er18 2.708117 1_555
Co2 Er23 2.771822 1_564
Co2 Er5 2.800871 1_555
Co2 Er9 2.983897 1_554
Co2 Er12 2.995152 1_555
Co2 Er10 3.036962 1_565
Co2 Er21 3.093899 1_555
Co2 Er7 3.429951 1_565
Co2 Er17 3.495750 1_554
Co3 Er19 2.708117 1_555
Co3 Er22 2.771822 1_545
Co3 Er4 2.800871 1_555
Co3 Er8 2.983897 1_455
Co3 Er13 2.995152 1_555
Co3 Er11 3.036962 1_545
Co3 Er20 3.093899 1_455
Co3 Er6 3.429951 1_545
Co3 Er16 3.495750 1_555
Co4 Er16 2.708117 1_555
Co4 Er21 2.771822 1_546
Co4 Er3 2.800871 1_555
Co4 Er7 2.983897 1_556
Co4 Er14 2.995152 1_555
Co4 Er1 3.036962 1_545
Co4 Er23 3.093899 1_555
Co4 Er9 3.429951 1_545
Co4 Er19 3.495750 1_556
Co5 Er17 2.708117 1_555
Co5 Er20 2.771822 1_565
Co5 Er2 2.800871 1_555
Co5 Er6 2.983897 1_655
Co5 Er15 2.995152 1_555
Co5 Er0 3.036962 1_565
Co5 Er22 3.093899 1_655
Co5 Er8 3.429951 1_565
Co5 Er18 3.495750 1_555
Co6 Er21 2.722484 1_555
Co6 Er7 2.777952 1_555
Co6 Er19 2.791120 1_555
Co6 Er9 2.791150 1_554
Co6 Er13 2.829016 1_555
Co6 Er1 2.854467 1_554
Co6 Er3 2.868716 1_554
Co6 Er5 2.917060 1_555
Co7 Er20 2.722484 1_555
Co7 Er6 2.777952 1_655
Co7 Er18 2.791120 1_555
Co7 Er8 2.791150 1_555
Co7 Er12 2.829016 1_555
Co7 Er0 2.854467 1_555
Co7 Er2 2.868716 1_555
Co7 Er4 2.917060 1_655
Co8 Er23 2.722484 1_555
Co8 Er9 2.777952 1_555
Co8 Er17 2.791120 1_555
Co8 Er7 2.791150 1_556
Co8 Er15 2.829016 1_555
Co8 Er10 2.854467 1_556
Co8 Er5 2.868716 1_556
Co8 Er3 2.917060 1_555
Co9 Er22 2.722484 1_555
Co9 Er8 2.777952 1_455
Co9 Er16 2.791120 1_555
Co9 Er6 2.791150 1_555
Co9 Er14 2.829016 1_555
Co9 Er11 2.854467 1_555
Co9 Er4 2.868716 1_555
Co9 Er2 2.917060 1_455
Co10 Co2 2.309941 1_546
Co10 Er2 2.743812 1_555
Co10 Er12 2.786821 1_546
Co10 Er8 2.821003 1_555
Co10 Er23 2.918382 1_555
Co10 Er10 2.923662 1_556
Co10 Er17 2.970450 1_545
Co10 Er0 3.083095 1_555
Co10 Er14 3.329512 1_655
Co11 Co3 2.309941 1_565
Co11 Er3 2.743812 1_555
Co11 Er13 2.786821 1_565
Co11 Er9 2.821003 1_555
Co11 Er22 2.918382 1_555
Co11 Er11 2.923662 1_555
Co11 Er16 2.970450 1_565
Co11 Er1 3.083095 1_555
Co11 Er15 3.329512 1_555
Co12 Co4 2.309941 1_564
Co12 Er4 2.743812 1_555
Co12 Er14 2.786821 1_564
Co12 Er6 2.821003 1_555
Co12 Er21 2.918382 1_555
Co12 Er1 2.923662 1_554
Co12 Er19 2.970450 1_565
Co12 Er11 3.083095 1_555
Co12 Er12 3.329512 1_455
Co13 Co5 2.309941 1_545
Co13 Er5 2.743812 1_555
Co13 Er15 2.786821 1_545
Co13 Er7 2.821003 1_555
Co13 Er20 2.918382 1_555
Co13 Er0 2.923662 1_555
Co13 Er18 2.970450 1_545
Co13 Er10 3.083095 1_555
Co13 Er13 3.329512 1_555
