# generated using pymatgen
data_Hf16Nb3Ni4Pd
_symmetry_space_group_name_H-M   'P 1'
_cell_length_a   8.69820501
_cell_length_b   8.69820397
_cell_length_c   8.69820492
_cell_angle_alpha   60.09735853
_cell_angle_beta   60.09736255
_cell_angle_gamma   60.09736118
_symmetry_Int_Tables_number   1
_chemical_formula_structural   Hf16Nb3Ni4Pd
_chemical_formula_sum   'Hf16 Nb3 Ni4 Pd1'
_cell_volume   466.37030004
_cell_formula_units_Z   1
loop_
 _symmetry_equiv_pos_site_id
 _symmetry_equiv_pos_as_xyz
  1  'x, y, z'
loop_
 _atom_site_type_symbol
 _atom_site_label
 _atom_site_symmetry_multiplicity
 _atom_site_fract_x
 _atom_site_fract_y
 _atom_site_fract_z
 _atom_site_occupancy
  Hf  Hf0  1  0.70014822  0.09982550  0.09982550  1
  Hf  Hf1  1  0.09982550  0.70014822  0.09982550  1
  Hf  Hf2  1  0.09982550  0.09982550  0.70014822  1
  Hf  Hf3  1  0.10158214  0.10158214  0.10158214  1
  Hf  Hf4  1  0.31526864  0.31526864  0.68715094  1
  Hf  Hf5  1  0.68561104  0.68561104  0.31514981  1
  Hf  Hf6  1  0.31526864  0.68715094  0.31526864  1
  Hf  Hf7  1  0.68561104  0.31514981  0.68561104  1
  Hf  Hf8  1  0.68715094  0.31526864  0.31526864  1
  Hf  Hf9  1  0.31514981  0.68561104  0.68561104  1
  Hf  Hf10  1  0.95016802  0.95016802  0.54883786  1
  Hf  Hf11  1  0.55343857  0.55343857  0.94495218  1
  Hf  Hf12  1  0.95016802  0.54883786  0.95016802  1
  Hf  Hf13  1  0.55343857  0.94495218  0.55343857  1
  Hf  Hf14  1  0.54883786  0.95016802  0.95016802  1
  Hf  Hf15  1  0.94495218  0.55343857  0.55343857  1
  Nb  Nb0  1  0.99737946  0.33294116  0.33294116  1
  Nb  Nb1  1  0.33294116  0.99737946  0.33294116  1
  Nb  Nb2  1  0.33294116  0.33294116  0.99737946  1
  Ni  Ni0  1  0.32530370  0.88967183  0.88967183  1
  Ni  Ni1  1  0.88967183  0.32530370  0.88967183  1
  Ni  Ni2  1  0.88967183  0.88967183  0.32530370  1
  Ni  Ni3  1  0.89164251  0.89164251  0.89164251  1
  Pd  Pd0  1  0.33400363  0.33400363  0.33400363  1
loop_
_geom_bond_atom_site_label_1
_geom_bond_atom_site_label_2
_geom_bond_distance
_geom_bond_site_symmetry_2
Hf0 Ni1 2.559319 1_554
Hf0 Ni2 2.559319 1_545
Hf0 Ni3 2.566575 1_544
Hf0 Pd0 3.105118 1_555
Hf0 Nb2 3.112282 1_554
Hf0 Nb1 3.112282 1_545
Hf0 Hf5 3.161465 1_545
Hf0 Hf7 3.161465 1_554
Hf0 Hf8 3.180448 1_555
Hf1 Ni0 2.559319 1_554
Hf1 Ni2 2.559320 1_455
Hf1 Ni3 2.566575 1_454
Hf1 Pd0 3.105118 1_555
Hf1 Nb0 3.112282 1_455
Hf1 Nb2 3.112282 1_554
Hf1 Hf9 3.161465 1_554
Hf1 Hf5 3.161465 1_455
Hf1 Hf6 3.180448 1_555
Hf2 Ni1 2.559319 1_455
Hf2 Ni0 2.559319 1_545
Hf2 Ni3 2.566575 1_445
Hf2 Pd0 3.105118 1_555
Hf2 Nb0 3.112282 1_455
Hf2 Nb1 3.112282 1_545
Hf2 Hf9 3.161465 1_545
Hf2 Hf7 3.161465 1_455
Hf2 Hf4 3.180447 1_555
Hf3 Ni2 2.610888 1_445
Hf3 Ni1 2.610888 1_454
Hf3 Ni0 2.610888 1_544
Hf3 Nb2 3.053145 1_554
Hf3 Nb0 3.053145 1_455
Hf3 Nb1 3.053145 1_545
Hf3 Hf6 3.160327 1_545
Hf3 Hf4 3.160327 1_554
Hf3 Hf8 3.160327 1_455
Hf4 Nb2 2.859984 1_555
Hf4 Pd0 2.918394 1_555
Hf4 Ni0 3.184988 1_545
Hf4 Ni1 3.184988 1_455
Hf4 Hf9 3.214143 1_555
Hf4 Hf7 3.214144 1_555
Hf4 Hf6 3.239467 1_555
Hf4 Hf8 3.239468 1_555
Hf5 Nb0 2.904979 1_555
Hf5 Nb1 2.904979 1_555
Hf5 Ni2 3.124517 1_555
Hf5 Ni3 3.167180 1_554
Hf5 Hf8 3.214143 1_555
Hf5 Hf6 3.214144 1_555
Hf5 Hf7 3.227088 1_555
Hf5 Hf9 3.227089 1_555
Hf6 Nb1 2.859984 1_555
Hf6 Pd0 2.918394 1_555
Hf6 Ni0 3.184988 1_554
Hf6 Ni2 3.184988 1_455
Hf6 Hf9 3.214144 1_555
Hf6 Hf8 3.239467 1_555
Hf7 Nb0 2.904979 1_555
Hf7 Nb2 2.904979 1_555
Hf7 Ni1 3.124517 1_555
Hf7 Ni3 3.167180 1_545
Hf7 Hf8 3.214144 1_555
Hf7 Hf9 3.227088 1_555
Hf8 Nb0 2.859984 1_555
Hf8 Pd0 2.918394 1_555
Hf8 Ni2 3.184988 1_545
Hf8 Ni1 3.184988 1_554
Hf9 Nb2 2.904979 1_555
Hf9 Nb1 2.904979 1_555
Hf9 Ni0 3.124517 1_555
Hf9 Ni3 3.167181 1_455
Hf10 Ni3 2.576977 1_555
Hf10 Ni2 2.578873 1_555
Hf10 Nb0 3.023358 1_565
Hf10 Nb1 3.023358 1_655
Hf10 Hf8 3.225530 1_565
Hf10 Hf6 3.225530 1_655
Hf10 Hf7 3.246771 1_565
Hf10 Hf9 3.246771 1_655
Hf11 Ni0 2.546591 1_555
Hf11 Ni1 2.546591 1_555
Hf11 Nb2 3.080328 1_555
Hf11 Pd0 3.080615 1_556
Hf11 Hf7 3.225917 1_555
Hf11 Hf9 3.225917 1_555
Hf11 Hf8 3.271002 1_556
Hf11 Hf6 3.271002 1_556
Hf12 Ni3 2.576977 1_555
Hf12 Ni1 2.578873 1_555
Hf12 Nb0 3.023358 1_556
Hf12 Nb2 3.023358 1_655
Hf12 Hf8 3.225530 1_556
Hf12 Hf4 3.225530 1_655
Hf12 Hf9 3.246771 1_655
Hf12 Hf5 3.246771 1_556
Hf13 Ni0 2.546591 1_555
Hf13 Ni2 2.546591 1_555
Hf13 Nb1 3.080328 1_555
Hf13 Pd0 3.080615 1_565
Hf13 Hf9 3.225917 1_555
Hf13 Hf5 3.225917 1_555
Hf13 Hf8 3.271002 1_565
Hf13 Hf4 3.271002 1_565
Hf14 Ni3 2.576977 1_555
Hf14 Ni0 2.578873 1_555
Hf14 Nb2 3.023358 1_565
Hf14 Nb1 3.023358 1_556
Hf14 Hf4 3.225530 1_565
Hf14 Hf6 3.225530 1_556
Hf14 Hf7 3.246771 1_565
Hf14 Hf5 3.246771 1_556
Hf15 Ni2 2.546591 1_555
Hf15 Ni1 2.546591 1_555
Hf15 Nb0 3.080328 1_555
Hf15 Pd0 3.080616 1_655
Hf15 Hf7 3.225917 1_555
Hf15 Hf5 3.225917 1_555
Hf15 Hf6 3.271002 1_655
Hf15 Hf4 3.271002 1_655
Nb0 Nb1 2.923079 1_645
Nb0 Nb2 2.923079 1_654
Nb0 Pd0 2.937270 1_655
Nb1 Nb2 2.923078 1_564
Nb1 Pd0 2.937269 1_565
Nb2 Pd0 2.937270 1_556
