# generated using pymatgen
data_Na2GePd3
_symmetry_space_group_name_H-M   'P 1'
_cell_length_a   5.05172522
_cell_length_b   5.05172463
_cell_length_c   5.05172477
_cell_angle_alpha   66.76819298
_cell_angle_beta   66.76819500
_cell_angle_gamma   66.76819953
_symmetry_Int_Tables_number   1
_chemical_formula_structural   Na2GePd3
_chemical_formula_sum   'Na2 Ge1 Pd3'
_cell_volume   104.41457805
_cell_formula_units_Z   1
loop_
 _symmetry_equiv_pos_site_id
 _symmetry_equiv_pos_as_xyz
  1  'x, y, z'
loop_
 _atom_site_type_symbol
 _atom_site_label
 _atom_site_symmetry_multiplicity
 _atom_site_fract_x
 _atom_site_fract_y
 _atom_site_fract_z
 _atom_site_occupancy
  Na  Na0  1  0.87813474  0.87813474  0.87813474  1
  Na  Na1  1  0.12186526  0.12186526  0.12186526  1
  Ge  Ge0  1  0.50000000  0.50000000  0.50000000  1
  Pd  Pd0  1  0.50000000  0.50000000  0.00000000  1
  Pd  Pd1  1  0.00000000  0.50000000  0.50000000  1
  Pd  Pd2  1  0.50000000  0.00000000  0.50000000  1
loop_
_geom_bond_atom_site_label_1
_geom_bond_atom_site_label_2
_geom_bond_distance
_geom_bond_site_symmetry_2
Na0 Na1 2.852356 1_666
Na0 Pd0 2.949607 1_556
Na0 Pd1 2.949607 1_655
Na0 Pd2 2.949607 1_565
Na0 Pd1 3.124220 1_665
Na0 Pd1 3.124220 1_656
Na0 Pd2 3.124220 1_566
Na0 Pd0 3.124220 1_566
Na0 Pd2 3.124220 1_665
Na0 Pd0 3.124221 1_656
Na1 Pd0 2.949607 1_555
Na1 Pd1 2.949607 1_555
Na1 Pd2 2.949607 1_555
Na1 Pd1 3.124220 1_545
Na1 Pd1 3.124220 1_554
Na1 Pd2 3.124220 1_554
Na1 Pd0 3.124220 1_545
Na1 Pd2 3.124220 1_455
Na1 Pd0 3.124221 1_455
Ge0 Pd2 2.525862 1_565
Ge0 Pd2 2.525862 1_555
Ge0 Pd0 2.525862 1_555
Ge0 Pd0 2.525862 1_556
Ge0 Pd1 2.525863 1_655
Ge0 Pd1 2.525863 1_555
Ge0 Na0 3.252269 1_554
Ge0 Na1 3.252269 1_556
Ge0 Na0 3.252269 1_545
Ge0 Na1 3.252269 1_565
Ge0 Na0 3.252270 1_455
Ge0 Na1 3.252270 1_655
Pd0 Pd2 2.779706 1_564
Pd0 Pd2 2.779706 1_555
Pd0 Pd1 2.779707 1_555
Pd0 Pd1 2.779707 1_654
Pd1 Pd2 2.779707 1_555
Pd1 Pd2 2.779707 1_465
