# generated using pymatgen
data_CaNbSbF12
_symmetry_space_group_name_H-M   'P 1'
_cell_length_a   11.31333082
_cell_length_b   5.76973770
_cell_length_c   5.70753625
_cell_angle_alpha   53.93051742
_cell_angle_beta   54.02003790
_cell_angle_gamma   53.55249855
_symmetry_Int_Tables_number   1
_chemical_formula_structural   CaNbSbF12
_chemical_formula_sum   'Ca1 Nb1 Sb1 F12'
_cell_volume   225.46689480
_cell_formula_units_Z   1
loop_
 _symmetry_equiv_pos_site_id
 _symmetry_equiv_pos_as_xyz
  1  'x, y, z'
loop_
 _atom_site_type_symbol
 _atom_site_label
 _atom_site_symmetry_multiplicity
 _atom_site_fract_x
 _atom_site_fract_y
 _atom_site_fract_z
 _atom_site_occupancy
  Ca  Ca0  1  0.75389408  0.49484736  0.49795224  1
  Nb  Nb0  1  0.46750827  0.03987471  0.00324170  1
  Sb  Sb0  1  0.02438706  0.96618839  0.00193974  1
  F  F0  1  0.20567537  0.05364500  0.77032221  1
  F  F1  1  0.67254464  0.10356152  0.77720594  1
  F  F2  1  0.04089525  0.76409067  0.39067356  1
  F  F3  1  0.54461280  0.77483043  0.35272341  1
  F  F4  1  0.12075272  0.60023656  0.93625348  1
  F  F5  1  0.60818103  0.66052686  0.89547061  1
  F  F6  1  0.45097961  0.24565987  0.61270232  1
  F  F7  1  0.96786216  0.20893418  0.64081932  1
  F  F8  1  0.29145299  0.93329723  0.24647686  1
  F  F9  1  0.82644497  0.91209170  0.21287155  1
  F  F10  1  0.37631564  0.39751419  0.07963036  1
  F  F11  1  0.89849241  0.34470035  0.08171769  1
loop_
_geom_bond_atom_site_label_1
_geom_bond_atom_site_label_2
_geom_bond_distance
_geom_bond_site_symmetry_2
Ca0 F1 2.234332 1_555
Ca0 F5 2.250733 1_555
Ca0 F3 2.255501 1_555
Ca0 F7 2.288370 1_555
Ca0 F11 2.289883 1_555
Ca0 F9 2.298427 1_555
F0 Sb0 1.862010 1_546
F1 Nb0 2.029380 1_556
F2 Sb0 1.870547 1_555
F3 Nb0 1.986420 1_565
F4 Sb0 1.871926 1_556
F5 Nb0 1.999503 1_566
F6 Nb0 1.876903 1_556
F7 Sb0 1.924583 1_646
F8 Nb0 1.863753 1_565
F9 Sb0 1.944697 1_655
F10 Nb0 1.874520 1_555
F11 Sb0 1.928342 1_645
