# generated using pymatgen
data_CsNaSe2O7
_symmetry_space_group_name_H-M   'P 1'
_cell_length_a   6.03677298
_cell_length_b   7.95727592
_cell_length_c   8.33863304
_cell_angle_alpha   102.37574161
_cell_angle_beta   90.95388018
_cell_angle_gamma   93.49250699
_symmetry_Int_Tables_number   1
_chemical_formula_structural   CsNaSe2O7
_chemical_formula_sum   'Cs2 Na2 Se4 O14'
_cell_volume   390.34119052
_cell_formula_units_Z   2
loop_
 _symmetry_equiv_pos_site_id
 _symmetry_equiv_pos_as_xyz
  1  'x, y, z'
loop_
 _atom_site_type_symbol
 _atom_site_label
 _atom_site_symmetry_multiplicity
 _atom_site_fract_x
 _atom_site_fract_y
 _atom_site_fract_z
 _atom_site_occupancy
  Cs  Cs0  1  0.20924528  0.77795620  0.42754763  1
  Cs  Cs1  1  0.79075472  0.22204380  0.57245237  1
  Na  Na0  1  0.20047357  0.61842830  0.90040601  1
  Na  Na1  1  0.79952643  0.38157170  0.09959399  1
  Se  Se0  1  0.70807878  0.72094875  0.70585439  1
  Se  Se1  1  0.71515166  0.81652023  0.09271224  1
  Se  Se2  1  0.28484834  0.18347977  0.90728776  1
  Se  Se3  1  0.29192122  0.27905125  0.29414561  1
  O  O0  1  0.72889789  0.88010122  0.89722597  1
  O  O1  1  0.53587420  0.26632385  0.89784936  1
  O  O2  1  0.90073296  0.67315031  0.08634898  1
  O  O3  1  0.52196204  0.39600644  0.29140968  1
  O  O4  1  0.27110211  0.11989878  0.10277403  1
  O  O5  1  0.46412580  0.73367615  0.10215064  1
  O  O6  1  0.09926704  0.32684969  0.91365102  1
  O  O7  1  0.47803796  0.60399356  0.70859032  1
  O  O8  1  0.07054192  0.38719494  0.29889877  1
  O  O9  1  0.29186186  0.15767285  0.42761753  1
  O  O10  1  0.22160157  0.00089878  0.78235733  1
  O  O11  1  0.70813814  0.84232715  0.57238247  1
  O  O12  1  0.92945808  0.61280506  0.70110123  1
  O  O13  1  0.77839843  0.99910122  0.21764267  1
loop_
_geom_bond_atom_site_label_1
_geom_bond_atom_site_label_2
_geom_bond_distance
_geom_bond_site_symmetry_2
Cs0 O9 3.032144 1_565
Cs0 O10 3.103692 1_565
Cs0 O5 3.106319 1_555
Cs0 O8 3.121433 1_555
Cs0 O11 3.196420 1_555
Cs0 O2 3.297901 1_455
Cs0 O11 3.304130 1_455
Cs0 O12 3.305418 1_455
Cs0 O7 3.402764 1_555
Cs1 O11 3.032144 1_545
Cs1 O13 3.103692 1_545
Cs1 O1 3.106319 1_555
Cs1 O12 3.121433 1_555
Cs1 O9 3.196420 1_555
Cs1 O6 3.297901 1_655
Cs1 O9 3.304130 1_655
Cs1 O8 3.305418 1_655
Cs1 O3 3.402764 1_555
Na0 O5 2.296953 1_556
Na0 O12 2.304208 1_455
Na0 O7 2.326602 1_555
Na0 O6 2.389152 1_555
Na0 O2 2.401638 1_456
Na1 O1 2.296953 1_554
Na1 O8 2.304208 1_655
Na1 O3 2.326602 1_555
Na1 O2 2.389152 1_555
Na1 O6 2.401638 1_654
O0 Se1 1.809126 1_556
O0 Se0 1.809363 1_555
O1 Se2 1.625316 1_555
O2 Se1 1.640477 1_555
O3 Se3 1.627211 1_555
O4 Se2 1.809126 1_554
O4 Se3 1.809363 1_555
O5 Se1 1.625316 1_555
O6 Se2 1.640477 1_555
O7 Se0 1.627211 1_555
O8 Se3 1.629524 1_555
O9 Se3 1.622438 1_555
O10 Se2 1.616231 1_555
O11 Se0 1.622438 1_555
O12 Se0 1.629524 1_555
O13 Se1 1.616231 1_555
