# generated using pymatgen
data_Hf16Pt7Rh
_symmetry_space_group_name_H-M   'P 1'
_cell_length_a   8.77370485
_cell_length_b   8.77370414
_cell_length_c   8.77370487
_cell_angle_alpha   59.98030689
_cell_angle_beta   59.98030723
_cell_angle_gamma   59.98030605
_symmetry_Int_Tables_number   1
_chemical_formula_structural   Hf16Pt7Rh
_chemical_formula_sum   'Hf16 Pt7 Rh1'
_cell_volume   477.35343472
_cell_formula_units_Z   1
loop_
 _symmetry_equiv_pos_site_id
 _symmetry_equiv_pos_as_xyz
  1  'x, y, z'
loop_
 _atom_site_type_symbol
 _atom_site_label
 _atom_site_symmetry_multiplicity
 _atom_site_fract_x
 _atom_site_fract_y
 _atom_site_fract_z
 _atom_site_occupancy
  Hf  Hf0  1  0.11646818  0.62956844  0.62956844  1
  Hf  Hf1  1  0.62956844  0.11646818  0.62956844  1
  Hf  Hf2  1  0.62956844  0.62956844  0.11646818  1
  Hf  Hf3  1  0.62251725  0.62251725  0.62251725  1
  Hf  Hf4  1  0.81393318  0.81393318  0.18292966  1
  Hf  Hf5  1  0.18725673  0.18725673  0.81348015  1
  Hf  Hf6  1  0.81393318  0.18292966  0.81393318  1
  Hf  Hf7  1  0.18725673  0.81348015  0.18725673  1
  Hf  Hf8  1  0.18292966  0.81393318  0.81393318  1
  Hf  Hf9  1  0.81348015  0.18725673  0.18725673  1
  Hf  Hf10  1  0.43789703  0.43789703  0.06395343  1
  Hf  Hf11  1  0.06439166  0.06439166  0.43715025  1
  Hf  Hf12  1  0.43789703  0.06395343  0.43789703  1
  Hf  Hf13  1  0.06439166  0.43715025  0.06439166  1
  Hf  Hf14  1  0.06395343  0.43789703  0.43789703  1
  Hf  Hf15  1  0.43715025  0.06439166  0.06439166  1
  Pt  Pt0  1  0.79491043  0.40006620  0.40006620  1
  Pt  Pt1  1  0.40006620  0.79491043  0.40006620  1
  Pt  Pt2  1  0.40006620  0.40006620  0.79491043  1
  Pt  Pt3  1  0.40314521  0.40314521  0.40314521  1
  Pt  Pt4  1  0.45550855  0.84636661  0.84636661  1
  Pt  Pt5  1  0.84636661  0.45550855  0.84636661  1
  Pt  Pt6  1  0.84636661  0.84636661  0.45550855  1
  Rh  Rh0  1  0.85097917  0.85097917  0.85097917  1
loop_
_geom_bond_atom_site_label_1
_geom_bond_atom_site_label_2
_geom_bond_distance
_geom_bond_site_symmetry_2
Hf0 Rh0 2.773761 1_455
Hf0 Pt5 2.787558 1_455
Hf0 Pt6 2.787558 1_455
Hf0 Pt1 2.832991 1_555
Hf0 Pt2 2.832991 1_555
Hf0 Pt3 2.858110 1_555
Hf1 Rh0 2.773761 1_545
Hf1 Pt6 2.787557 1_545
Hf1 Pt4 2.787557 1_545
Hf1 Pt2 2.832991 1_555
Hf1 Pt0 2.832991 1_555
Hf1 Pt3 2.858110 1_555
Hf2 Rh0 2.773761 1_554
Hf2 Pt5 2.787558 1_554
Hf2 Pt4 2.787558 1_554
Hf2 Pt1 2.832991 1_555
Hf2 Pt0 2.832991 1_555
Hf2 Pt3 2.858110 1_555
Hf3 Pt0 2.794649 1_555
Hf3 Pt2 2.794649 1_555
Hf3 Pt1 2.794649 1_555
Hf3 Pt4 2.821715 1_555
Hf3 Pt6 2.821715 1_555
Hf3 Pt5 2.821715 1_555
Hf4 Rh0 2.627716 1_554
Hf4 Pt6 2.706336 1_555
Hf4 Pt0 3.195140 1_555
Hf4 Pt1 3.195140 1_555
Hf5 Pt4 2.709322 1_545
Hf5 Pt5 2.709322 1_455
Hf5 Pt2 3.142984 1_555
Hf5 Pt3 3.174910 1_555
Hf6 Rh0 2.627716 1_545
Hf6 Pt5 2.706336 1_555
Hf6 Pt2 3.195140 1_555
Hf6 Pt0 3.195140 1_555
Hf7 Pt6 2.709322 1_455
Hf7 Pt4 2.709322 1_554
Hf7 Pt1 3.142984 1_555
Hf7 Pt3 3.174910 1_555
Hf8 Rh0 2.627716 1_455
Hf8 Pt4 2.706336 1_555
Hf8 Pt2 3.195140 1_555
Hf8 Pt1 3.195140 1_555
Hf9 Pt6 2.709322 1_545
Hf9 Pt5 2.709322 1_554
Hf9 Pt0 3.142984 1_555
Hf9 Pt3 3.174910 1_555
Hf10 Pt3 2.705458 1_555
Hf10 Pt2 2.733215 1_554
Hf10 Pt4 3.150417 1_554
Hf10 Pt5 3.150418 1_554
Hf11 Pt0 2.685739 1_455
Hf11 Pt1 2.685739 1_545
Hf11 Rh0 3.177711 1_445
Hf11 Pt6 3.223190 1_445
Hf12 Pt3 2.705457 1_555
Hf12 Pt1 2.733215 1_545
Hf12 Pt6 3.150418 1_545
Hf12 Pt4 3.150418 1_545
Hf13 Pt2 2.685739 1_554
Hf13 Pt0 2.685739 1_455
Hf13 Rh0 3.177710 1_454
Hf13 Pt5 3.223190 1_454
Hf14 Pt3 2.705458 1_555
Hf14 Pt0 2.733215 1_455
Hf14 Pt6 3.150417 1_455
Hf14 Pt5 3.150418 1_455
Hf15 Pt2 2.685739 1_554
Hf15 Pt1 2.685739 1_545
Hf15 Rh0 3.177711 1_544
Hf15 Pt4 3.223189 1_544
