# generated using pymatgen
data_Na2Pd(PtSe2)3
_symmetry_space_group_name_H-M   'P 1'
_cell_length_a   7.39173665
_cell_length_b   7.40173560
_cell_length_c   11.58770621
_cell_angle_alpha   90.24156080
_cell_angle_beta   89.51621310
_cell_angle_gamma   119.95532284
_symmetry_Int_Tables_number   1
_chemical_formula_structural   Na2Pd(PtSe2)3
_chemical_formula_sum   'Na4 Pd2 Pt6 Se12'
_cell_volume   549.27270825
_cell_formula_units_Z   2
loop_
 _symmetry_equiv_pos_site_id
 _symmetry_equiv_pos_as_xyz
  1  'x, y, z'
loop_
 _atom_site_type_symbol
 _atom_site_label
 _atom_site_symmetry_multiplicity
 _atom_site_fract_x
 _atom_site_fract_y
 _atom_site_fract_z
 _atom_site_occupancy
  Na  Na0  1  0.32296094  0.66324189  0.31218696  1
  Na  Na1  1  0.65972105  0.33675811  0.81218696  1
  Na  Na2  1  0.00656873  0.00475171  0.69374904  1
  Na  Na3  1  0.00181702  0.99524829  0.19374904  1
  Pd  Pd0  1  0.83402116  0.16467793  0.00615722  1
  Pd  Pd1  1  0.66934223  0.83532207  0.50615722  1
  Pt  Pt0  1  0.16672059  0.33257554  0.50629205  1
  Pt  Pt1  1  0.83414605  0.66742446  0.00629205  1
  Pt  Pt2  1  0.33143161  0.16486867  0.00657619  1
  Pt  Pt3  1  0.16656194  0.83513133  0.50657619  1
  Pt  Pt4  1  0.66777225  0.33417191  0.49883104  1
  Pt  Pt5  1  0.33359935  0.66582809  0.99883104  1
  Se  Se0  1  0.49755235  0.50100346  0.61220776  1
  Se  Se1  1  0.99654989  0.49899654  0.11220776  1
  Se  Se2  1  0.49790424  0.00016517  0.11267608  1
  Se  Se3  1  0.49773807  0.99983483  0.61267608  1
  Se  Se4  1  0.16177878  0.83923116  0.89531359  1
  Se  Se5  1  0.32254863  0.16076884  0.39531359  1
  Se  Se6  1  0.84280457  0.67983415  0.39495716  1
  Se  Se7  1  0.16296942  0.32016585  0.89495716  1
  Se  Se8  1  0.68092162  0.83767462  0.89477221  1
  Se  Se9  1  0.84324800  0.16232538  0.39477221  1
  Se  Se10  1  0.49968802  0.49805351  0.11207970  1
  Se  Se11  1  0.00163451  0.50194649  0.61207970  1
loop_
_geom_bond_atom_site_label_1
_geom_bond_atom_site_label_2
_geom_bond_distance
_geom_bond_site_symmetry_2
Na0 Pt3 3.070789 1_555
Na0 Pt0 3.092389 1_555
Na0 Se1 3.132187 1_455
Na0 Se2 3.164447 1_565
Na0 Pd1 3.169557 1_555
Na0 Se10 3.177763 1_555
Na1 Pt2 3.070794 1_556
Na1 Pt1 3.092389 1_556
Na1 Se0 3.132200 1_555
Na1 Se3 3.164447 1_545
Na1 Pd0 3.169553 1_556
Na1 Se11 3.177754 1_655
Na2 Pt3 3.015872 1_545
Na2 Pt0 3.023244 1_555
Na2 Pd1 3.075411 1_445
Na2 Se7 3.086630 1_555
Na2 Se8 3.115510 1_445
Na2 Se4 3.121795 1_545
Na3 Pt2 3.015877 1_565
Na3 Pt1 3.023244 1_455
Na3 Pd0 3.075406 1_465
Na3 Se6 3.086630 1_455
Na3 Se9 3.115506 1_465
Na3 Se5 3.121800 1_565
Pd0 Se7 2.462132 1_654
Pd0 Se8 2.463293 1_544
Pd0 Se1 2.471285 1_555
Pd0 Se2 2.473582 1_555
Pd1 Se6 2.462143 1_555
Pd1 Se9 2.463293 1_565
Pd1 Se0 2.471285 1_555
Pd1 Se3 2.473582 1_555
Pt0 Se9 2.450383 1_455
Pt0 Se5 2.453897 1_555
Pt0 Se0 2.456390 1_555
Pt0 Se11 2.460253 1_555
Pt1 Se8 2.450393 1_554
Pt1 Se4 2.453886 1_654
Pt1 Se1 2.456390 1_555
Pt1 Se10 2.460259 1_555
Pt2 Se7 2.452331 1_554
Pt2 Se4 2.454976 1_544
Pt2 Se2 2.459310 1_555
Pt2 Se10 2.461815 1_555
Pt3 Se6 2.452320 1_455
Pt3 Se5 2.454976 1_565
Pt3 Se3 2.459310 1_555
Pt3 Se11 2.461815 1_555
Pt4 Se11 2.516917 1_655
Pt4 Se3 2.517423 1_545
Pt4 Se0 2.518725 1_555
Pt4 Se9 2.522398 1_555
Pt4 Se6 2.522418 1_555
Pt4 Se5 2.523060 1_555
Pt5 Se10 2.516922 1_556
Pt5 Se2 2.517423 1_566
Pt5 Se1 2.518714 1_456
Pt5 Se8 2.522398 1_555
Pt5 Se7 2.522418 1_555
Pt5 Se4 2.523060 1_555
