# generated using pymatgen
data_Si3(Cl4O)2
_symmetry_space_group_name_H-M   'P 1'
_cell_length_a   6.65462300
_cell_length_b   11.39995400
_cell_length_c   21.10507600
_cell_angle_alpha   90.00000000
_cell_angle_beta   90.00000000
_cell_angle_gamma   90.00000000
_symmetry_Int_Tables_number   1
_chemical_formula_structural   Si3(Cl4O)2
_chemical_formula_sum   'Si12 Cl32 O8'
_cell_volume   1601.08163497
_cell_formula_units_Z   4
loop_
 _symmetry_equiv_pos_site_id
 _symmetry_equiv_pos_as_xyz
  1  'x, y, z'
loop_
 _atom_site_type_symbol
 _atom_site_label
 _atom_site_symmetry_multiplicity
 _atom_site_fract_x
 _atom_site_fract_y
 _atom_site_fract_z
 _atom_site_occupancy
  Si  Si0  1  0.47789700  0.29738500  0.25000000  1
  Si  Si1  1  0.10995500  0.91237600  0.11678300  1
  Si  Si2  1  0.02210300  0.79738500  0.25000000  1
  Si  Si3  1  0.97789700  0.20261500  0.75000000  1
  Si  Si4  1  0.60995500  0.58762400  0.88321700  1
  Si  Si5  1  0.39004500  0.41237600  0.38321700  1
  Si  Si6  1  0.89004500  0.08762400  0.61678300  1
  Si  Si7  1  0.89004500  0.08762400  0.88321700  1
  Si  Si8  1  0.39004500  0.41237600  0.11678300  1
  Si  Si9  1  0.60995500  0.58762400  0.61678300  1
  Si  Si10  1  0.52210300  0.70261500  0.75000000  1
  Si  Si11  1  0.10995500  0.91237600  0.38321700  1
  Cl  Cl0  1  0.96435900  0.06908800  0.11946400  1
  Cl  Cl1  1  0.45980400  0.69937100  0.55850200  1
  Cl  Cl2  1  0.54019600  0.30062900  0.05850200  1
  Cl  Cl3  1  0.04019600  0.19937100  0.94149800  1
  Cl  Cl4  1  0.04019600  0.19937100  0.55850200  1
  Cl  Cl5  1  0.54019600  0.30062900  0.44149800  1
  Cl  Cl6  1  0.95980400  0.80062900  0.44149800  1
  Cl  Cl7  1  0.95980400  0.80062900  0.05850200  1
  Cl  Cl8  1  0.39417400  0.93575600  0.41560500  1
  Cl  Cl9  1  0.89417400  0.56424400  0.58439500  1
  Cl  Cl10  1  0.10582600  0.43575600  0.08439500  1
  Cl  Cl11  1  0.60582600  0.06424400  0.91560500  1
  Cl  Cl12  1  0.60582600  0.06424400  0.58439500  1
  Cl  Cl13  1  0.10582600  0.43575600  0.41560500  1
  Cl  Cl14  1  0.89417400  0.56424400  0.91560500  1
  Cl  Cl15  1  0.39417400  0.93575600  0.08439500  1
  Cl  Cl16  1  0.71916800  0.82161400  0.25000000  1
  Cl  Cl17  1  0.21916800  0.67838600  0.75000000  1
  Cl  Cl18  1  0.78083200  0.32161400  0.25000000  1
  Cl  Cl19  1  0.28083200  0.17838600  0.75000000  1
  Cl  Cl20  1  0.08309200  0.62299400  0.25000000  1
  Cl  Cl21  1  0.58309200  0.87700600  0.75000000  1
  Cl  Cl22  1  0.41690800  0.12299400  0.25000000  1
  Cl  Cl23  1  0.91690800  0.37700600  0.75000000  1
  Cl  Cl24  1  0.46435900  0.43091200  0.88053600  1
  Cl  Cl25  1  0.53564100  0.56908800  0.38053600  1
  Cl  Cl26  1  0.03564100  0.93091200  0.61946400  1
  Cl  Cl27  1  0.03564100  0.93091200  0.88053600  1
  Cl  Cl28  1  0.53564100  0.56908800  0.11946400  1
  Cl  Cl29  1  0.46435900  0.43091200  0.61946400  1
  Cl  Cl30  1  0.96435900  0.06908800  0.38053600  1
  Cl  Cl31  1  0.45980400  0.69937100  0.94149800  1
  O  O0  1  0.12295800  0.85761200  0.18792700  1
  O  O1  1  0.62295800  0.64238800  0.68792700  1
  O  O2  1  0.37704200  0.35761200  0.18792700  1
  O  O3  1  0.87704200  0.14238800  0.81207300  1
  O  O4  1  0.87704200  0.14238800  0.68792700  1
  O  O5  1  0.37704200  0.35761200  0.31207300  1
  O  O6  1  0.62295800  0.64238800  0.81207300  1
  O  O7  1  0.12295800  0.85761200  0.31207300  1
loop_
_geom_bond_atom_site_label_1
_geom_bond_atom_site_label_2
_geom_bond_distance
_geom_bond_site_symmetry_2
Cl0 Si1 2.033116 1_645
Cl1 Si9 2.033275 1_555
Cl2 Si8 2.033275 1_555
Cl3 Si7 2.033275 1_455
Cl4 Si6 2.033275 1_455
Cl5 Si5 2.033275 1_555
Cl6 Si11 2.033275 1_655
Cl7 Si1 2.033275 1_655
Cl8 Si11 2.028685 1_555
Cl9 Si9 2.028685 1_555
Cl10 Si8 2.028685 1_555
Cl11 Si7 2.028685 1_555
Cl12 Si6 2.028685 1_555
Cl13 Si5 2.028685 1_555
Cl14 Si4 2.028685 1_555
Cl15 Si1 2.028685 1_555
Cl16 Si2 2.034753 1_655
Cl17 Si10 2.034753 1_555
Cl18 Si0 2.034753 1_555
Cl19 Si3 2.034753 1_455
Cl20 Si2 2.029054 1_555
Cl21 Si10 2.029054 1_555
Cl22 Si0 2.029054 1_555
Cl23 Si3 2.029054 1_555
Cl24 Si4 2.033116 1_555
Cl25 Si5 2.033116 1_555
Cl26 Si6 2.033116 1_465
Cl27 Si7 2.033116 1_465
Cl28 Si8 2.033116 1_555
Cl29 Si9 2.033116 1_555
Cl30 Si11 2.033116 1_645
Cl31 Si4 2.033275 1_555
O0 Si2 1.624220 1_555
O0 Si1 1.628419 1_555
O1 Si10 1.624220 1_555
O1 Si9 1.628419 1_555
O2 Si0 1.624220 1_555
O2 Si8 1.628419 1_555
O3 Si3 1.624220 1_555
O3 Si7 1.628419 1_555
O4 Si3 1.624220 1_555
O4 Si6 1.628419 1_555
O5 Si0 1.624220 1_555
O5 Si5 1.628419 1_555
O6 Si10 1.624220 1_555
O6 Si4 1.628419 1_555
O7 Si2 1.624220 1_555
O7 Si11 1.628419 1_555
