# generated using pymatgen
data_Ba5Si2BiH
_symmetry_space_group_name_H-M   'P 1'
_cell_length_a   10.30948850
_cell_length_b   10.30948777
_cell_length_c   10.30948812
_cell_angle_alpha   129.14135766
_cell_angle_beta   129.14136238
_cell_angle_gamma   74.78322427
_symmetry_Int_Tables_number   1
_chemical_formula_structural   Ba5Si2BiH
_chemical_formula_sum   'Ba10 Si4 Bi2 H2'
_cell_volume   642.07510758
_cell_formula_units_Z   2
loop_
 _symmetry_equiv_pos_site_id
 _symmetry_equiv_pos_as_xyz
  1  'x, y, z'
loop_
 _atom_site_type_symbol
 _atom_site_label
 _atom_site_symmetry_multiplicity
 _atom_site_fract_x
 _atom_site_fract_y
 _atom_site_fract_z
 _atom_site_occupancy
  Ba  Ba0  1  0.50000000  0.50000000  0.00000000  1
  Ba  Ba1  1  0.00000000  0.00000000  0.00000000  1
  Ba  Ba2  1  0.52473928  0.02473928  0.83332062  1
  Ba  Ba3  1  0.19141965  0.69141965  0.16667938  1
  Ba  Ba4  1  0.02473928  0.19141965  0.50000000  1
  Ba  Ba5  1  0.69141965  0.52473928  0.50000000  1
  Ba  Ba6  1  0.47526072  0.97526072  0.16667938  1
  Ba  Ba7  1  0.80858035  0.30858035  0.83332062  1
  Ba  Ba8  1  0.97526072  0.80858035  0.50000000  1
  Ba  Ba9  1  0.30858035  0.47526072  0.50000000  1
  Si  Si0  1  0.89768398  0.39768398  0.29536897  1
  Si  Si1  1  0.10231602  0.60231602  0.70463103  1
  Si  Si2  1  0.39768398  0.10231602  0.50000000  1
  Si  Si3  1  0.60231602  0.89768398  0.50000000  1
  Bi  Bi0  1  0.25000000  0.25000000  0.00000000  1
  Bi  Bi1  1  0.75000000  0.75000000  0.00000000  1
  H  H0  1  0.25000000  0.75000000  0.50000000  1
  H  H1  1  0.75000000  0.25000000  0.50000000  1
loop_
_geom_bond_atom_site_label_1
_geom_bond_atom_site_label_2
_geom_bond_distance
_geom_bond_site_symmetry_2
Ba0 Si3 3.635653 1_555
Ba0 Si2 3.635653 1_554
Ba0 Si0 3.635656 1_555
Ba0 Si1 3.635656 1_554
Ba0 Bi1 4.095462 1_555
Ba0 Bi0 4.095462 1_555
Ba1 Si2 3.635653 1_555
Ba1 Si3 3.635653 1_444
Ba1 Si0 3.635656 1_455
Ba1 Si1 3.635656 1_544
Ba1 Bi1 4.095462 1_445
Ba1 Bi0 4.095462 1_555
Ba2 H0 2.736673 1_545
Ba2 Si2 3.376554 1_555
Ba2 Si3 3.376554 1_545
Ba2 Si0 3.711172 1_556
Ba2 Bi1 3.744631 1_546
Ba2 Bi0 3.744631 1_556
Ba3 H0 2.736683 1_555
Ba3 Si2 3.376543 1_565
Ba3 Si3 3.376543 1_555
Ba3 Si1 3.711172 1_554
Ba3 Bi0 3.744638 1_555
Ba3 Bi1 3.744639 1_455
Ba4 H1 2.736673 1_455
Ba4 Si0 3.376536 1_455
Ba4 Si1 3.376548 1_555
Ba4 Si2 3.711172 1_555
Ba4 Bi0 3.744636 1_556
Ba4 Bi1 3.744636 1_445
Ba5 H1 2.736673 1_555
Ba5 Si0 3.376537 1_555
Ba5 Si1 3.376548 1_655
Ba5 Si3 3.711172 1_555
Ba5 Bi0 3.744636 1_555
Ba5 Bi1 3.744636 1_556
Ba6 H1 2.736673 1_565
Ba6 Si3 3.376554 1_555
Ba6 Si2 3.376554 1_565
Ba6 Si1 3.711172 1_554
Ba6 Bi0 3.744631 1_565
Ba6 Bi1 3.744631 1_555
Ba7 H1 2.736683 1_555
Ba7 Si3 3.376543 1_545
Ba7 Si2 3.376543 1_555
Ba7 Si0 3.711172 1_556
Ba7 Bi1 3.744638 1_556
Ba7 Bi0 3.744639 1_656
Ba8 H0 2.736673 1_655
Ba8 Si1 3.376536 1_655
Ba8 Si0 3.376548 1_555
Ba8 Si3 3.711172 1_555
Ba8 Bi1 3.744636 1_555
Ba8 Bi0 3.744636 1_666
Ba9 H0 2.736673 1_555
Ba9 Si1 3.376537 1_555
Ba9 Si0 3.376548 1_455
Ba9 Si2 3.711172 1_555
Ba9 Bi1 3.744636 1_556
Ba9 Bi0 3.744636 1_555
Si0 Si1 2.562200 1_655
Si2 Si3 2.562212 1_545
