# generated using pymatgen
data_Ta12Cr5Ga7N4
_symmetry_space_group_name_H-M   'P 1'
_cell_length_a   8.18171573
_cell_length_b   8.18171550
_cell_length_c   8.18171563
_cell_angle_alpha   60.26193025
_cell_angle_beta   60.26193020
_cell_angle_gamma   60.26192872
_symmetry_Int_Tables_number   1
_chemical_formula_structural   Ta12Cr5Ga7N4
_chemical_formula_sum   'Ta12 Cr5 Ga7 N4'
_cell_volume   389.56985940
_cell_formula_units_Z   1
loop_
 _symmetry_equiv_pos_site_id
 _symmetry_equiv_pos_as_xyz
  1  'x, y, z'
loop_
 _atom_site_type_symbol
 _atom_site_label
 _atom_site_symmetry_multiplicity
 _atom_site_fract_x
 _atom_site_fract_y
 _atom_site_fract_z
 _atom_site_occupancy
  Ta  Ta0  1  0.80951748  0.80951748  0.18630204  1
  Ta  Ta1  1  0.19481686  0.19481686  0.80633913  1
  Ta  Ta2  1  0.80951748  0.18630204  0.80951748  1
  Ta  Ta3  1  0.19481686  0.80633913  0.19481686  1
  Ta  Ta4  1  0.18630204  0.80951748  0.80951748  1
  Ta  Ta5  1  0.80633913  0.19481686  0.19481686  1
  Ta  Ta6  1  0.44379954  0.44379954  0.05620318  1
  Ta  Ta7  1  0.05985758  0.05985758  0.43957862  1
  Ta  Ta8  1  0.44379954  0.05620318  0.44379954  1
  Ta  Ta9  1  0.05985758  0.43957862  0.05985758  1
  Ta  Ta10  1  0.05620318  0.44379954  0.44379954  1
  Ta  Ta11  1  0.43957862  0.05985758  0.05985758  1
  Cr  Cr0  1  0.11945348  0.63033889  0.63033889  1
  Cr  Cr1  1  0.63033889  0.11945348  0.63033889  1
  Cr  Cr2  1  0.63033889  0.63033889  0.11945348  1
  Cr  Cr3  1  0.62581206  0.62581206  0.62581206  1
  Cr  Cr4  1  0.82482180  0.82482180  0.82482180  1
  Ga  Ga0  1  0.75876103  0.41362641  0.41362641  1
  Ga  Ga1  1  0.41362641  0.75876103  0.41362641  1
  Ga  Ga2  1  0.41362641  0.41362641  0.75876103  1
  Ga  Ga3  1  0.41406528  0.41406528  0.41406528  1
  Ga  Ga4  1  0.48740354  0.83839551  0.83839551  1
  Ga  Ga5  1  0.83839551  0.48740354  0.83839551  1
  Ga  Ga6  1  0.83839551  0.83839551  0.48740354  1
  N  N0  1  0.62538641  0.12545197  0.12545197  1
  N  N1  1  0.12545197  0.62538641  0.12545197  1
  N  N2  1  0.12545197  0.12545197  0.62538641  1
  N  N3  1  0.12426093  0.12426093  0.12426093  1
loop_
_geom_bond_atom_site_label_1
_geom_bond_atom_site_label_2
_geom_bond_distance
_geom_bond_site_symmetry_2
Cr0 Cr4 2.403332 1_455
Cr0 Ga6 2.522452 1_455
Cr0 Ga5 2.522452 1_455
Cr0 Ga2 2.543152 1_555
Cr0 Ga1 2.543152 1_555
Cr0 Ga3 2.591486 1_555
Cr0 Ta4 2.884502 1_555
Cr0 Ta7 2.938885 1_565
Cr0 Ta9 2.938885 1_556
Cr0 Ta1 2.960012 1_555
Cr0 Ta3 2.960013 1_555
Cr0 Ta10 2.967220 1_555
Cr1 Cr4 2.403332 1_545
Cr1 Ga6 2.522452 1_545
Cr1 Ga4 2.522452 1_545
Cr1 Ga2 2.543152 1_555
Cr1 Ga0 2.543152 1_555
Cr1 Ga3 2.591486 1_555
Cr1 Ta2 2.884502 1_555
Cr1 Ta11 2.938885 1_556
Cr1 Ta7 2.938885 1_655
Cr1 Ta5 2.960013 1_555
Cr1 Ta1 2.960013 1_555
Cr1 Ta8 2.967220 1_555
Cr2 Cr4 2.403332 1_554
Cr2 Ga5 2.522452 1_554
Cr2 Ga4 2.522452 1_554
Cr2 Ga1 2.543152 1_555
Cr2 Ga0 2.543152 1_555
Cr2 Ga3 2.591486 1_555
Cr2 Ta0 2.884502 1_555
Cr2 Ta11 2.938885 1_565
Cr2 Ta9 2.938885 1_655
Cr2 Ta5 2.960012 1_555
Cr2 Ta3 2.960013 1_555
Cr2 Ta6 2.967220 1_555
Cr3 Ga4 2.534928 1_555
Cr3 Ga5 2.534928 1_555
Cr3 Ga6 2.534928 1_555
Cr3 Ga0 2.540476 1_555
Cr3 Ga1 2.540476 1_555
Cr3 Ga2 2.540476 1_555
Cr3 Ta8 2.937778 1_565
Cr3 Ta10 2.937778 1_655
Cr3 Ta6 2.937778 1_556
Cr3 Ta2 2.994375 1_555
Cr3 Ta4 2.994375 1_555
Cr3 Ta0 2.994375 1_555
Cr4 Ga5 2.655152 1_555
Cr4 Ga6 2.655152 1_555
Cr4 Ga4 2.655152 1_555
Cr4 Ta2 2.838856 1_565
Cr4 Ta0 2.838856 1_556
Cr4 Ta4 2.838856 1_655
Cr4 Ta9 2.995488 1_656
Cr4 Ta11 2.995488 1_566
Cr4 Ta7 2.995488 1_665
Ga0 Ta10 2.701244 1_655
Ga0 Ta7 2.706836 1_655
Ga0 Ta9 2.706836 1_655
Ga0 Ga3 2.816645 1_555
Ga0 Ga1 2.834965 1_555
Ga0 Ga2 2.834965 1_555
Ga0 Ta5 2.891064 1_555
Ga0 Ta0 2.952094 1_555
Ga0 Ta2 2.952094 1_555
Ga1 Ta8 2.701244 1_565
Ga1 Ta7 2.706836 1_565
Ga1 Ta11 2.706836 1_565
Ga1 Ga3 2.816645 1_555
Ga1 Ga2 2.834965 1_555
Ga1 Ta3 2.891064 1_555
Ga1 Ta4 2.952094 1_555
Ga1 Ta0 2.952094 1_555
Ga2 Ta6 2.701244 1_556
Ga2 Ta11 2.706836 1_556
Ga2 Ta9 2.706836 1_556
Ga2 Ga3 2.816645 1_555
Ga2 Ta1 2.891064 1_555
Ga2 Ta4 2.952094 1_555
Ga2 Ta2 2.952094 1_555
Ga3 Ta8 2.708603 1_555
Ga3 Ta6 2.708603 1_555
Ga3 Ta10 2.708603 1_555
Ga3 Ta3 2.916414 1_555
Ga3 Ta5 2.916414 1_555
Ga3 Ta1 2.916414 1_555
Ga4 Ta1 2.691068 1_565
Ga4 Ta3 2.691068 1_556
Ga4 Ta4 2.718619 1_555
Ga4 Ta6 2.920660 1_556
Ga4 Ta8 2.920660 1_565
Ga4 Ta11 2.927406 1_566
Ga5 Ta1 2.691068 1_655
Ga5 Ta5 2.691068 1_556
Ga5 Ta2 2.718619 1_555
Ga5 Ta10 2.920660 1_655
Ga5 Ta6 2.920660 1_556
Ga5 Ta9 2.927407 1_656
Ga6 Ta5 2.691068 1_565
Ga6 Ta3 2.691068 1_655
Ga6 Ta0 2.718619 1_555
Ga6 Ta10 2.920660 1_655
Ga6 Ta8 2.920660 1_565
Ga6 Ta7 2.927407 1_665
N0 Ta11 2.188986 1_555
N0 Ta0 2.191613 1_545
N0 Ta2 2.191613 1_554
N0 Ta5 2.196066 1_555
N0 Ta6 2.201011 1_555
N0 Ta8 2.201011 1_555
N1 Ta9 2.188986 1_555
N1 Ta0 2.191613 1_455
N1 Ta4 2.191613 1_554
N1 Ta3 2.196066 1_555
N1 Ta6 2.201011 1_555
N1 Ta10 2.201011 1_555
N2 Ta7 2.188986 1_555
N2 Ta4 2.191613 1_545
N2 Ta2 2.191613 1_455
N2 Ta1 2.196066 1_555
N2 Ta10 2.201011 1_555
N2 Ta8 2.201011 1_555
N3 Ta3 2.187173 1_545
N3 Ta1 2.187173 1_554
N3 Ta5 2.187173 1_455
N3 Ta9 2.188402 1_555
N3 Ta7 2.188402 1_555
N3 Ta11 2.188402 1_555
