# generated using pymatgen
data_HfTa5Al16Ir7
_symmetry_space_group_name_H-M   'P 1'
_cell_length_a   8.53423337
_cell_length_b   8.53423287
_cell_length_c   8.56095112
_cell_angle_alpha   59.89638262
_cell_angle_beta   59.89638456
_cell_angle_gamma   60.20722592
_symmetry_Int_Tables_number   1
_chemical_formula_structural   HfTa5Al16Ir7
_chemical_formula_sum   'Hf1 Ta5 Al16 Ir7'
_cell_volume   440.88717022
_cell_formula_units_Z   1
loop_
 _symmetry_equiv_pos_site_id
 _symmetry_equiv_pos_as_xyz
  1  'x, y, z'
loop_
 _atom_site_type_symbol
 _atom_site_label
 _atom_site_symmetry_multiplicity
 _atom_site_fract_x
 _atom_site_fract_y
 _atom_site_fract_z
 _atom_site_occupancy
  Hf  Hf0  1  0.68499932  0.68499932  0.31500068  1
  Ta  Ta0  1  0.67654644  0.32196232  0.32345356  1
  Ta  Ta1  1  0.32196232  0.67654644  0.67803768  1
  Ta  Ta2  1  0.32196232  0.67654644  0.32345356  1
  Ta  Ta3  1  0.67654644  0.32196232  0.67803768  1
  Ta  Ta4  1  0.32570360  0.32570360  0.67429640  1
  Al  Al0  1  0.33556883  0.33556883  0.33680399  1
  Al  Al1  1  0.66280092  0.66280092  0.66542157  1
  Al  Al2  1  0.33556883  0.33556883  0.99205835  1
  Al  Al3  1  0.33457843  0.99102240  0.33719908  1
  Al  Al4  1  0.66280092  0.66280092  0.00897760  1
  Al  Al5  1  0.66319601  0.00794165  0.66443117  1
  Al  Al6  1  0.99102240  0.33457843  0.33719908  1
  Al  Al7  1  0.00794165  0.66319601  0.66443117  1
  Al  Al8  1  0.11935398  0.11935398  0.11943134  1
  Al  Al9  1  0.88106757  0.88106757  0.87793117  1
  Al  Al10  1  0.11935398  0.11935398  0.64186070  1
  Al  Al11  1  0.12206883  0.64006530  0.11893243  1
  Al  Al12  1  0.88106757  0.88106757  0.35993470  1
  Al  Al13  1  0.88056866  0.35813930  0.88064602  1
  Al  Al14  1  0.64006530  0.12206883  0.11893243  1
  Al  Al15  1  0.35813930  0.88056866  0.88064602  1
  Ir  Ir0  1  0.49919662  0.00108344  0.99891656  1
  Ir  Ir1  1  0.00108344  0.49919662  0.50080338  1
  Ir  Ir2  1  0.00108344  0.49919662  0.99891656  1
  Ir  Ir3  1  0.49919662  0.00108344  0.50080338  1
  Ir  Ir4  1  0.99880040  0.99880040  0.50119960  1
  Ir  Ir5  1  0.49880040  0.49880040  0.00119960  1
  Ir  Ir6  1  0.99895549  0.99895549  0.00104451  1
loop_
_geom_bond_atom_site_label_1
_geom_bond_atom_site_label_2
_geom_bond_distance
_geom_bond_site_symmetry_2
Hf0 Ta0 3.098630 1_555
Hf0 Ta3 3.098630 1_555
Hf0 Ta2 3.098630 1_555
Hf0 Ta1 3.098630 1_555
Hf0 Ir0 3.137633 1_564
Hf0 Ir3 3.137633 1_565
Hf0 Ir2 3.137633 1_654
Hf0 Ir1 3.137633 1_655
Ta0 Ta4 2.994545 1_555
Ta0 Ta2 3.035577 1_555
Ta0 Ta3 3.035577 1_555
Ta1 Ta4 2.994545 1_555
Ta1 Ta3 3.035577 1_555
Ta1 Ta2 3.035577 1_555
Ta2 Ta4 2.994545 1_555
Ta3 Ta4 2.994545 1_555
Al0 Ir5 2.456520 1_555
Al0 Ir3 2.460685 1_555
Al0 Ir1 2.460685 1_555
Al0 Ta2 2.799721 1_555
Al0 Ta0 2.799721 1_555
Al0 Ta4 2.807311 1_555
Al1 Ir5 2.460873 1_556
Al1 Ir3 2.481358 1_565
Al1 Ir1 2.481358 1_655
Al1 Ta3 2.800892 1_555
Al1 Ta1 2.800892 1_555
Al1 Hf0 2.822561 1_555
Al2 Ir5 2.456520 1_556
Al2 Ir0 2.460685 1_555
Al2 Ir2 2.460685 1_555
Al2 Ta1 2.799721 1_555
Al2 Ta3 2.799721 1_555
Al2 Ta4 2.807311 1_555
Al3 Ir4 2.460871 1_455
Al3 Ir0 2.481356 1_564
Al3 Ir3 2.481363 1_565
Al3 Ta2 2.800883 1_555
Al3 Ta1 2.800888 1_555
Al3 Hf0 2.822557 1_555
Al4 Ir5 2.460879 1_555
Al4 Ir0 2.481355 1_564
Al4 Ir2 2.481356 1_654
Al4 Ta0 2.800888 1_555
Al4 Ta2 2.800888 1_555
Al4 Hf0 2.822552 1_555
Al5 Ir4 2.456520 1_545
Al5 Ir3 2.460685 1_555
Al5 Ir0 2.460685 1_555
Al5 Ta0 2.799721 1_555
Al5 Ta3 2.799721 1_555
Al5 Ta4 2.807310 1_555
Al6 Ir4 2.460871 1_545
Al6 Ir2 2.481356 1_654
Al6 Ir1 2.481363 1_655
Al6 Ta0 2.800884 1_555
Al6 Ta3 2.800888 1_555
Al6 Hf0 2.822557 1_555
Al7 Ir4 2.456520 1_455
Al7 Ir2 2.460685 1_555
Al7 Ir1 2.460685 1_555
Al7 Ta1 2.799721 1_555
Al7 Ta2 2.799721 1_555
Al7 Ta4 2.807310 1_555
Al8 Ir6 2.505430 1_445
Al8 Ir2 2.651384 1_554
Al8 Ir0 2.651384 1_554
Al8 Ir4 2.665429 1_445
Al8 Ta2 3.199456 1_545
Al8 Ta0 3.199456 1_455
Al8 Ta4 3.215971 1_554
Al9 Ir6 2.503698 1_556
Al9 Ir4 2.631109 1_555
Al9 Ir2 2.665305 1_655
Al9 Ir0 2.665305 1_565
Al9 Hf0 3.133926 1_556
Al9 Ta3 3.184909 1_565
Al9 Ta1 3.184909 1_655
Al10 Ir6 2.505430 1_446
Al10 Ir1 2.651384 1_555
Al10 Ir3 2.651384 1_555
Al10 Ir4 2.665429 1_445
Al10 Ta1 3.199456 1_545
Al10 Ta3 3.199456 1_455
Al10 Ta4 3.215971 1_555
Al11 Ir6 2.503705 1_455
Al11 Ir5 2.631108 1_555
Al11 Ir2 2.665298 1_554
Al11 Ir1 2.665305 1_555
Al11 Hf0 3.133924 1_455
Al11 Ta1 3.184907 1_554
Al11 Ta2 3.184914 1_555
Al12 Ir6 2.503705 1_555
Al12 Ir4 2.631101 1_555
Al12 Ir1 2.665305 1_655
Al12 Ir3 2.665305 1_565
Al12 Hf0 3.133931 1_555
Al12 Ta0 3.184907 1_565
Al12 Ta2 3.184907 1_655
Al13 Ir6 2.505430 1_546
Al13 Ir2 2.651384 1_655
Al13 Ir1 2.651384 1_655
Al13 Ir5 2.665429 1_556
Al13 Ta0 3.199456 1_556
Al13 Ta3 3.199456 1_555
Al13 Ta4 3.215971 1_655
Al14 Ir6 2.503705 1_545
Al14 Ir5 2.631108 1_555
Al14 Ir0 2.665298 1_554
Al14 Ir3 2.665305 1_555
Al14 Hf0 3.133924 1_545
Al14 Ta3 3.184907 1_554
Al14 Ta0 3.184914 1_555
Al15 Ir6 2.505430 1_456
Al15 Ir3 2.651384 1_565
Al15 Ir0 2.651384 1_565
Al15 Ir5 2.665429 1_556
Al15 Ta1 3.199456 1_555
Al15 Ta2 3.199456 1_556
Al15 Ta4 3.215971 1_565
Ir0 Ta3 3.120572 1_555
Ir0 Ta2 3.147441 1_546
Ir0 Ta4 3.149403 1_555
Ir1 Ta2 3.120572 1_555
Ir1 Ta3 3.147442 1_455
Ir1 Ta4 3.149403 1_555
Ir2 Ta1 3.120572 1_555
Ir2 Ta0 3.147442 1_456
Ir2 Ta4 3.149403 1_555
Ir3 Ta0 3.120572 1_555
Ir3 Ta1 3.147441 1_545
Ir3 Ta4 3.149403 1_555
Ir4 Ta3 3.152166 1_565
Ir4 Ta0 3.152166 1_565
Ir4 Ta1 3.152166 1_655
Ir4 Ta2 3.152166 1_655
Ir5 Ta2 3.152166 1_555
Ir5 Ta1 3.152166 1_554
Ir5 Ta0 3.152166 1_555
Ir5 Ta3 3.152166 1_554
