# generated using pymatgen
data_Hf5BeSn3
_symmetry_space_group_name_H-M   'P 1'
_cell_length_a   5.75833912
_cell_length_b   8.48111899
_cell_length_c   8.48112043
_cell_angle_alpha   119.99999795
_cell_angle_beta   90.00000000
_cell_angle_gamma   90.00000000
_symmetry_Int_Tables_number   1
_chemical_formula_structural   Hf5BeSn3
_chemical_formula_sum   'Hf10 Be2 Sn6'
_cell_volume   358.70238550
_cell_formula_units_Z   2
loop_
 _symmetry_equiv_pos_site_id
 _symmetry_equiv_pos_as_xyz
  1  'x, y, z'
loop_
 _atom_site_type_symbol
 _atom_site_label
 _atom_site_symmetry_multiplicity
 _atom_site_fract_x
 _atom_site_fract_y
 _atom_site_fract_z
 _atom_site_occupancy
  Hf  Hf0  1  0.75000000  0.75196775  0.75196775  1
  Hf  Hf1  1  0.25000000  0.24803225  0.24803225  1
  Hf  Hf2  1  0.75000000  0.00000000  0.24803225  1
  Hf  Hf3  1  0.25000000  1.00000000  0.75196775  1
  Hf  Hf4  1  0.75000000  0.24803225  1.00000000  1
  Hf  Hf5  1  0.25000000  0.75196775  0.00000000  1
  Hf  Hf6  1  0.00000000  0.66666700  0.33333300  1
  Hf  Hf7  1  0.00000000  0.33333300  0.66666700  1
  Hf  Hf8  1  0.50000000  0.33333300  0.66666700  1
  Hf  Hf9  1  0.50000000  0.66666700  0.33333300  1
  Be  Be0  1  0.00000000  0.00000000  0.00000000  1
  Be  Be1  1  0.50000000  0.00000000  0.00000000  1
  Sn  Sn0  1  0.75000000  0.39154004  0.39154004  1
  Sn  Sn1  1  0.25000000  0.60845996  0.60845996  1
  Sn  Sn2  1  0.75000000  1.00000000  0.60845996  1
  Sn  Sn3  1  0.25000000  0.00000000  0.39154004  1
  Sn  Sn4  1  0.75000000  0.60845996  0.00000000  1
  Sn  Sn5  1  0.25000000  0.39154004  1.00000000  1
loop_
_geom_bond_atom_site_label_1
_geom_bond_atom_site_label_2
_geom_bond_distance
_geom_bond_site_symmetry_2
Hf0 Sn2 2.909766 1_555
Hf0 Sn4 2.909766 1_556
Hf0 Sn0 3.056831 1_555
Hf0 Sn1 3.125854 1_555
Hf0 Sn1 3.125854 1_655
Hf1 Sn3 2.909766 1_555
Hf1 Sn5 2.909766 1_554
Hf1 Sn1 3.056831 1_555
Hf1 Sn0 3.125854 1_555
Hf1 Sn0 3.125854 1_455
Hf2 Sn0 2.909766 1_555
Hf2 Sn4 2.909766 1_545
Hf2 Sn2 3.056831 1_545
Hf2 Sn3 3.125855 1_555
Hf2 Sn3 3.125855 1_655
Hf3 Sn1 2.909766 1_555
Hf3 Sn5 2.909766 1_565
Hf3 Sn3 3.056831 1_565
Hf3 Sn2 3.125855 1_555
Hf3 Sn2 3.125855 1_455
Hf4 Sn2 2.909767 1_545
Hf4 Sn0 2.909767 1_556
Hf4 Sn4 3.056830 1_556
Hf4 Sn5 3.125854 1_655
Hf4 Sn5 3.125854 1_555
Hf5 Sn3 2.909767 1_565
Hf5 Sn1 2.909767 1_554
Hf5 Sn5 3.056830 1_554
Hf5 Sn4 3.125854 1_455
Hf5 Sn4 3.125854 1_555
Hf6 Hf9 2.879170 1_455
Hf6 Hf9 2.879170 1_555
Hf6 Sn3 2.985405 1_565
Hf6 Sn4 2.985406 1_455
Hf6 Sn2 2.985408 1_455
Hf6 Sn5 2.985408 1_554
Hf6 Sn0 2.985413 1_455
Hf6 Sn1 2.985413 1_555
Hf7 Hf8 2.879170 1_455
Hf7 Hf8 2.879170 1_555
Hf7 Sn2 2.985405 1_445
Hf7 Sn5 2.985406 1_555
Hf7 Sn3 2.985408 1_555
Hf7 Sn4 2.985408 1_456
Hf7 Sn1 2.985413 1_555
Hf7 Sn0 2.985413 1_455
Hf8 Sn2 2.985405 1_545
Hf8 Sn5 2.985406 1_555
Hf8 Sn3 2.985408 1_555
Hf8 Sn4 2.985408 1_556
Hf8 Sn1 2.985413 1_555
Hf8 Sn0 2.985413 1_555
Hf9 Sn3 2.985405 1_565
Hf9 Sn4 2.985406 1_555
Hf9 Sn2 2.985408 1_555
Hf9 Sn5 2.985408 1_554
Hf9 Sn0 2.985413 1_555
Hf9 Sn1 2.985413 1_555
Be0 Hf4 2.549019 1_454
Be0 Hf5 2.549019 1_545
Be0 Hf1 2.549020 1_555
Be0 Hf0 2.549020 1_444
Be0 Hf2 2.549020 1_455
Be0 Hf3 2.549020 1_544
Be1 Hf4 2.549019 1_554
Be1 Hf5 2.549019 1_545
Be1 Hf1 2.549020 1_555
Be1 Hf0 2.549020 1_544
Be1 Hf2 2.549020 1_555
Be1 Hf3 2.549020 1_544
