# generated using pymatgen
data_OsI3(BrCl3)2
_symmetry_space_group_name_H-M   'P 1'
_cell_length_a   7.04095154
_cell_length_b   7.69821127
_cell_length_c   7.87344272
_cell_angle_alpha   92.37777697
_cell_angle_beta   94.44431674
_cell_angle_gamma   98.67738695
_symmetry_Int_Tables_number   1
_chemical_formula_structural   OsI3(BrCl3)2
_chemical_formula_sum   'Os1 I3 Br2 Cl6'
_cell_volume   419.99592366
_cell_formula_units_Z   1
loop_
 _symmetry_equiv_pos_site_id
 _symmetry_equiv_pos_as_xyz
  1  'x, y, z'
loop_
 _atom_site_type_symbol
 _atom_site_label
 _atom_site_symmetry_multiplicity
 _atom_site_fract_x
 _atom_site_fract_y
 _atom_site_fract_z
 _atom_site_occupancy
  Os  Os0  1  0.00000000  0.50000000  0.50000000  1
  I  I0  1  0.33145435  0.24252990  0.15819919  1
  I  I1  1  0.00000000  0.00000000  0.00000000  1
  I  I2  1  0.66854565  0.75747010  0.84180081  1
  Br  Br0  1  0.51399222  0.25479077  0.89521450  1
  Br  Br1  1  0.48600778  0.74520923  0.10478550  1
  Cl  Cl0  1  0.87208788  0.76255844  0.53432894  1
  Cl  Cl1  1  0.91573360  0.49424682  0.21327291  1
  Cl  Cl2  1  0.12791212  0.23744156  0.46567106  1
  Cl  Cl3  1  0.29579436  0.66107099  0.46173230  1
  Cl  Cl4  1  0.70420564  0.33892901  0.53826770  1
  Cl  Cl5  1  0.08426640  0.50575318  0.78672709  1
loop_
_geom_bond_atom_site_label_1
_geom_bond_atom_site_label_2
_geom_bond_distance
_geom_bond_site_symmetry_2
I0 I1 2.919845 1_555
I1 I2 2.919845 1_444
Br0 I0 2.517968 1_556
Br1 I2 2.517968 1_554
Cl0 Os0 2.347600 1_655
Cl0 I2 2.905958 1_555
Cl1 Os0 2.286179 1_655
Cl2 Os0 2.347600 1_555
Cl2 I0 2.905958 1_555
Cl3 Os0 2.305392 1_555
Cl4 Os0 2.305392 1_655
Cl5 Os0 2.286179 1_555
