# generated using pymatgen
data_K3Na(InSn2)4
_symmetry_space_group_name_H-M   'P 1'
_cell_length_a   6.48861238
_cell_length_b   6.67762808
_cell_length_c   11.66480218
_cell_angle_alpha   90.12107643
_cell_angle_beta   90.87686401
_cell_angle_gamma   89.30851297
_symmetry_Int_Tables_number   1
_chemical_formula_structural   K3Na(InSn2)4
_chemical_formula_sum   'K3 Na1 In4 Sn8'
_cell_volume   505.32191968
_cell_formula_units_Z   1
loop_
 _symmetry_equiv_pos_site_id
 _symmetry_equiv_pos_as_xyz
  1  'x, y, z'
loop_
 _atom_site_type_symbol
 _atom_site_label
 _atom_site_symmetry_multiplicity
 _atom_site_fract_x
 _atom_site_fract_y
 _atom_site_fract_z
 _atom_site_occupancy
  K  K0  1  0.88176460  0.62183320  0.06419546  1
  K  K1  1  0.61551749  0.37702303  0.56103537  1
  K  K2  1  0.38294729  0.88256960  0.93763525  1
  Na  Na0  1  0.11773498  0.11155740  0.43087831  1
  In  In0  1  0.60863665  0.90272814  0.38971364  1
  In  In1  1  0.89298019  0.10196631  0.88692053  1
  In  In2  1  0.10049765  0.60030224  0.61340483  1
  In  In3  1  0.39969526  0.39944357  0.11474949  1
  Sn  Sn0  1  0.77016413  0.73517999  0.76337840  1
  Sn  Sn1  1  0.73658527  0.26306009  0.26698757  1
  Sn  Sn2  1  0.27800475  0.76753662  0.23883579  1
  Sn  Sn3  1  0.21746846  0.23333629  0.73324626  1
  Sn  Sn4  1  0.94646494  0.61141075  0.37759432  1
  Sn  Sn5  1  0.55579486  0.38870180  0.87541863  1
  Sn  Sn6  1  0.42925205  0.88856715  0.62076958  1
  Sn  Sn7  1  0.06649143  0.11478081  0.12523656  1
loop_
_geom_bond_atom_site_label_1
_geom_bond_atom_site_label_2
_geom_bond_distance
_geom_bond_site_symmetry_2
K0 Sn2 3.405669 1_655
K0 Sn5 3.415928 1_554
K0 Sn1 3.517013 1_555
K0 Sn7 3.583059 1_665
K0 Sn7 3.646116 1_655
K0 Sn0 3.651075 1_554
K0 Sn4 3.674083 1_555
K0 K2 3.926229 1_554
K0 K2 4.010079 1_654
K1 Sn3 3.442885 1_555
K1 Sn4 3.446109 1_555
K1 Sn0 3.501341 1_555
K1 Sn6 3.565898 1_545
K1 Sn1 3.608075 1_555
K1 Sn6 3.678408 1_555
K1 Sn5 3.694090 1_555
K1 Na0 3.982035 1_555
K1 Na0 4.008393 1_655
K2 Sn7 3.384648 1_566
K2 Sn0 3.391350 1_555
K2 Sn3 3.493990 1_565
K2 Sn5 3.547675 1_555
K2 Sn5 3.651592 1_565
K2 Sn2 3.673591 1_556
K2 Sn6 3.713286 1_555
Na0 Sn1 3.255419 1_455
Na0 Sn6 3.318681 1_545
Na0 Sn2 3.371778 1_545
Na0 Sn4 3.558167 1_455
Na0 Sn7 3.575738 1_555
Na0 Sn4 3.582626 1_445
Na0 Sn3 3.667554 1_555
In0 Sn2 2.905064 1_555
In0 Sn4 2.917985 1_555
In0 Sn1 2.937248 1_565
In0 Sn6 2.954270 1_555
In0 Na0 3.501125 1_565
In0 Na0 3.625883 1_665
In0 K1 3.741737 1_565
In0 K1 4.042551 1_555
In1 Sn5 2.891689 1_555
In1 Sn3 2.929621 1_655
In1 Sn0 2.950889 1_545
In1 Sn7 2.984674 1_656
In1 K2 3.526665 1_645
In1 K2 3.691763 1_545
In1 K0 3.820873 1_546
In1 K0 4.037417 1_556
In2 Sn6 2.890656 1_555
In2 Sn3 2.910691 1_555
In2 Sn4 2.913006 1_455
In2 Sn0 2.920161 1_455
In2 K1 3.542513 1_455
In2 K1 3.701613 1_555
In3 Sn7 2.900160 1_555
In3 Sn1 2.932799 1_555
In3 Sn2 2.955227 1_555
In3 Sn5 2.984770 1_554
In3 K0 3.536877 1_555
In3 K0 3.697248 1_455
In3 K2 3.834184 1_554
In3 K2 4.020574 1_544
Sn0 Sn6 2.923935 1_555
Sn0 Sn5 3.023559 1_555
Sn1 Sn7 2.889122 1_655
Sn1 Sn4 2.990018 1_555
Sn2 Sn4 2.915886 1_455
Sn2 Sn7 2.982730 1_565
Sn3 Sn5 2.929532 1_555
Sn3 Sn6 2.979284 1_545
