# generated using pymatgen
data_Cs4Sr(VSe4)2
_symmetry_space_group_name_H-M   'P 1'
_cell_length_a   9.97446419
_cell_length_b   10.02779027
_cell_length_c   12.08757249
_cell_angle_alpha   105.96520009
_cell_angle_beta   102.02197150
_cell_angle_gamma   95.14281820
_symmetry_Int_Tables_number   1
_chemical_formula_structural   Cs4Sr(VSe4)2
_chemical_formula_sum   'Cs8 Sr2 V4 Se16'
_cell_volume   1122.93034429
_cell_formula_units_Z   2
loop_
 _symmetry_equiv_pos_site_id
 _symmetry_equiv_pos_as_xyz
  1  'x, y, z'
loop_
 _atom_site_type_symbol
 _atom_site_label
 _atom_site_symmetry_multiplicity
 _atom_site_fract_x
 _atom_site_fract_y
 _atom_site_fract_z
 _atom_site_occupancy
  Cs  Cs0  1  0.93279994  0.52170138  0.25682434  1
  Cs  Cs1  1  0.06720006  0.47829862  0.74317566  1
  Cs  Cs2  1  0.76158054  0.99046890  0.47257924  1
  Cs  Cs3  1  0.23841946  0.00953110  0.52742076  1
  Cs  Cs4  1  0.59616351  0.74351470  0.01880357  1
  Cs  Cs5  1  0.40383649  0.25648530  0.98119643  1
  Cs  Cs6  1  0.61060680  0.68568566  0.61354109  1
  Cs  Cs7  1  0.38939320  0.31431434  0.38645891  1
  Sr  Sr0  1  0.85289395  0.14550912  0.92708807  1
  Sr  Sr1  1  0.14710605  0.85449088  0.07291193  1
  V  V0  1  0.94986900  0.11381321  0.23670870  1
  V  V1  1  0.05013100  0.88618679  0.76329130  1
  V  V2  1  0.37339123  0.67896695  0.25914278  1
  V  V3  1  0.62660877  0.32103305  0.74085722  1
  Se  Se0  1  0.94711602  0.88560923  0.23711659  1
  Se  Se1  1  0.05288398  0.11439077  0.76288341  1
  Se  Se2  1  0.58441304  0.08603499  0.72766835  1
  Se  Se3  1  0.41558696  0.91396501  0.27233165  1
  Se  Se4  1  0.28364179  0.65628466  0.41065293  1
  Se  Se5  1  0.71635821  0.34371534  0.58934707  1
  Se  Se6  1  0.78255671  0.43714769  0.91832879  1
  Se  Se7  1  0.21744329  0.56285231  0.08167121  1
  Se  Se8  1  0.01784769  0.25637404  0.42313718  1
  Se  Se9  1  0.98215231  0.74362596  0.57686282  1
  Se  Se10  1  0.10770148  0.17026259  0.13505097  1
  Se  Se11  1  0.89229852  0.82973741  0.86494903  1
  Se  Se12  1  0.73391507  0.14259548  0.14581548  1
  Se  Se13  1  0.26608493  0.85740452  0.85418452  1
  Se  Se14  1  0.57292123  0.58609604  0.27082845  1
  Se  Se15  1  0.42707877  0.41390396  0.72917155  1
loop_
_geom_bond_atom_site_label_1
_geom_bond_atom_site_label_2
_geom_bond_distance
_geom_bond_site_symmetry_2
Cs0 Se4 3.547849 1_655
Cs0 Se0 3.713852 1_555
Cs0 Se14 3.733548 1_555
Cs0 Se9 3.799269 1_555
Cs0 Se8 3.804820 1_655
Cs0 Se12 3.862763 1_555
Cs0 Se6 3.874958 1_554
Cs0 Se7 3.935501 1_655
Cs0 Se10 4.116801 1_655
Cs1 Se5 3.547849 1_455
Cs1 Se1 3.713852 1_555
Cs1 Se15 3.733548 1_555
Cs1 Se8 3.799269 1_555
Cs1 Se9 3.804820 1_455
Cs1 Se13 3.862763 1_555
Cs1 Se7 3.874958 1_556
Cs1 Se6 3.935501 1_455
Cs1 Se11 4.116801 1_455
Cs2 Se5 3.541845 1_565
Cs2 Se3 3.658077 1_555
Cs2 Se0 3.678020 1_555
Cs2 Se9 3.754179 1_555
Cs2 Se8 3.780469 1_665
Cs2 Se2 3.807433 1_565
Cs2 Se1 3.873864 1_665
Cs2 Se14 4.148668 1_555
Cs3 Se4 3.541845 1_545
Cs3 Se2 3.658077 1_555
Cs3 Se1 3.678020 1_555
Cs3 Se8 3.754179 1_555
Cs3 Se9 3.780469 1_445
Cs3 Se3 3.807433 1_545
Cs3 Se0 3.873864 1_445
Cs3 Se15 4.148668 1_555
Cs4 Se6 3.779139 1_554
Cs4 Se0 3.799621 1_555
Cs4 Se14 3.834052 1_555
Cs4 Se12 3.875015 1_565
Cs4 Se13 3.911336 1_554
Cs4 Se3 3.940415 1_555
Cs4 Se11 3.955510 1_554
Cs4 Se15 4.025072 1_554
Cs5 Se7 3.779139 1_556
Cs5 Se1 3.799621 1_555
Cs5 Se15 3.834052 1_555
Cs5 Se13 3.875015 1_545
Cs5 Se12 3.911336 1_556
Cs5 Se2 3.940415 1_555
Cs5 Se10 3.955510 1_556
Cs5 Se14 4.025072 1_556
Cs6 Se11 3.537906 1_555
Cs6 Se4 3.582663 1_555
Cs6 Se5 3.630828 1_555
Cs6 Se9 3.835161 1_555
Cs6 Se15 3.872875 1_555
Cs6 Se14 3.912503 1_555
Cs6 Se2 3.921742 1_565
Cs7 Se10 3.537906 1_555
Cs7 Se5 3.582663 1_555
Cs7 Se4 3.630828 1_555
Cs7 Se8 3.835161 1_555
Cs7 Se14 3.872875 1_555
Cs7 Se15 3.912503 1_555
Cs7 Se3 3.921742 1_545
Se0 V0 2.287459 1_565
Se0 Sr1 3.071869 1_655
Se1 V1 2.287459 1_545
Se1 Sr0 3.071869 1_455
Se2 V3 2.311553 1_555
Se2 Sr0 3.093768 1_555
Se3 V2 2.311553 1_555
Se3 Sr1 3.093768 1_555
Se4 V2 2.254488 1_555
Se5 V3 2.254488 1_555
Se6 V3 2.299654 1_555
Se6 Sr0 3.092457 1_555
Se7 V2 2.299654 1_555
Se7 Sr1 3.092457 1_555
Se8 V0 2.235864 1_455
Se9 V1 2.235864 1_655
Se10 V0 2.310303 1_455
Se10 Sr0 3.118077 1_454
Se10 Sr1 3.127788 1_545
Se11 V1 2.310303 1_655
Se11 Sr1 3.118077 1_656
Se11 Sr0 3.127788 1_565
Se12 V0 2.286977 1_555
Se12 Sr0 3.121327 1_554
Se13 V1 2.286977 1_555
Se13 Sr1 3.121327 1_556
Se14 V2 2.266210 1_555
Se15 V3 2.266210 1_555
