# generated using pymatgen
data_CsSeOF3
_symmetry_space_group_name_H-M   'P 1'
_cell_length_a   4.71109810
_cell_length_b   6.66884465
_cell_length_c   8.58733722
_cell_angle_alpha   70.16855576
_cell_angle_beta   90.00000000
_cell_angle_gamma   90.00000000
_symmetry_Int_Tables_number   1
_chemical_formula_structural   CsSeOF3
_chemical_formula_sum   'Cs2 Se2 O2 F6'
_cell_volume   253.79319638
_cell_formula_units_Z   2
loop_
 _symmetry_equiv_pos_site_id
 _symmetry_equiv_pos_as_xyz
  1  'x, y, z'
loop_
 _atom_site_type_symbol
 _atom_site_label
 _atom_site_symmetry_multiplicity
 _atom_site_fract_x
 _atom_site_fract_y
 _atom_site_fract_z
 _atom_site_occupancy
  Cs  Cs0  1  0.63944187  0.31930050  0.29855025  1
  Cs  Cs1  1  0.13944187  0.68069950  0.70144975  1
  Se  Se0  1  0.12801636  0.83139643  0.19789400  1
  Se  Se1  1  0.62801636  0.16860357  0.80210600  1
  O  O0  1  0.16296591  0.61781605  0.35651722  1
  O  O1  1  0.66296591  0.38218395  0.64348278  1
  F  F0  1  0.05784397  0.67560362  0.05194067  1
  F  F1  1  0.24811544  0.12648350  0.81029930  1
  F  F2  1  0.74811544  0.87351650  0.18970070  1
  F  F3  1  0.63061645  0.98371430  0.66981959  1
  F  F4  1  0.13061645  0.01628570  0.33018041  1
  F  F5  1  0.55784397  0.32439638  0.94805933  1
loop_
_geom_bond_atom_site_label_1
_geom_bond_atom_site_label_2
_geom_bond_distance
_geom_bond_site_symmetry_2
Cs0 F5 3.022967 1_554
Cs0 F4 3.023126 1_655
Cs0 F4 3.087238 1_555
Cs0 O1 3.131248 1_555
Cs0 O0 3.149929 1_555
Cs0 F3 3.214609 1_545
Cs0 F0 3.256049 1_655
Cs0 O0 3.311534 1_655
Cs0 F2 3.443720 1_545
Cs0 F2 3.528744 1_555
Cs1 F0 3.022967 1_556
Cs1 F3 3.023126 1_555
Cs1 F3 3.087238 1_455
Cs1 O0 3.131248 1_555
Cs1 O1 3.149929 1_455
Cs1 F4 3.214609 1_565
Cs1 F5 3.256049 1_555
Cs1 O1 3.311534 1_555
Cs1 F1 3.443720 1_565
Cs1 F1 3.528744 1_555
O0 Se0 1.610863 1_555
O1 Se1 1.610863 1_555
F0 Se0 1.908704 1_555
F1 Se1 1.809323 1_555
F2 Se0 1.809323 1_655
F3 Se1 1.939399 1_565
F4 Se0 1.939399 1_545
F5 Se1 1.908704 1_555
