# generated using pymatgen
data_Hf16Nb3Ni4Pt
_symmetry_space_group_name_H-M   'P 1'
_cell_length_a   8.69193266
_cell_length_b   8.69193165
_cell_length_c   8.69193232
_cell_angle_alpha   60.10141236
_cell_angle_beta   60.10141520
_cell_angle_gamma   60.10141326
_symmetry_Int_Tables_number   1
_chemical_formula_structural   Hf16Nb3Ni4Pt
_chemical_formula_sum   'Hf16 Nb3 Ni4 Pt1'
_cell_volume   465.40471839
_cell_formula_units_Z   1
loop_
 _symmetry_equiv_pos_site_id
 _symmetry_equiv_pos_as_xyz
  1  'x, y, z'
loop_
 _atom_site_type_symbol
 _atom_site_label
 _atom_site_symmetry_multiplicity
 _atom_site_fract_x
 _atom_site_fract_y
 _atom_site_fract_z
 _atom_site_occupancy
  Hf  Hf0  1  0.69923448  0.10036687  0.10036687  1
  Hf  Hf1  1  0.10036687  0.69923448  0.10036687  1
  Hf  Hf2  1  0.10036687  0.10036687  0.69923448  1
  Hf  Hf3  1  0.10162367  0.10162367  0.10162367  1
  Hf  Hf4  1  0.31488162  0.31488162  0.68657731  1
  Hf  Hf5  1  0.68556422  0.68556422  0.31511617  1
  Hf  Hf6  1  0.31488162  0.68657731  0.31488162  1
  Hf  Hf7  1  0.68556422  0.31511617  0.68556422  1
  Hf  Hf8  1  0.68657731  0.31488162  0.31488162  1
  Hf  Hf9  1  0.31511617  0.68556422  0.68556422  1
  Hf  Hf10  1  0.95019687  0.95019687  0.54873967  1
  Hf  Hf11  1  0.55139510  0.55139510  0.94766136  1
  Hf  Hf12  1  0.95019687  0.54873967  0.95019687  1
  Hf  Hf13  1  0.55139510  0.94766136  0.55139510  1
  Hf  Hf14  1  0.54873967  0.95019687  0.95019687  1
  Hf  Hf15  1  0.94766136  0.55139510  0.55139510  1
  Nb  Nb0  1  0.99817295  0.33321624  0.33321624  1
  Nb  Nb1  1  0.33321624  0.99817295  0.33321624  1
  Nb  Nb2  1  0.33321624  0.33321624  0.99817295  1
  Ni  Ni0  1  0.32560484  0.88990149  0.88990149  1
  Ni  Ni1  1  0.88990149  0.32560484  0.88990149  1
  Ni  Ni2  1  0.88990149  0.88990149  0.32560484  1
  Ni  Ni3  1  0.89154555  0.89154555  0.89154555  1
  Pt  Pt0  1  0.33467517  0.33467517  0.33467517  1
loop_
_geom_bond_atom_site_label_1
_geom_bond_atom_site_label_2
_geom_bond_distance
_geom_bond_site_symmetry_2
Hf0 Ni1 2.562725 1_554
Hf0 Ni2 2.562725 1_545
Hf0 Ni3 2.572546 1_544
Hf0 Pt0 3.099033 1_555
Hf0 Nb2 3.100394 1_554
Hf0 Nb1 3.100394 1_545
Hf0 Hf5 3.161360 1_545
Hf0 Hf7 3.161360 1_554
Hf0 Hf8 3.165763 1_555
Hf1 Ni2 2.562725 1_455
Hf1 Ni0 2.562725 1_554
Hf1 Ni3 2.572546 1_454
Hf1 Pt0 3.099033 1_555
Hf1 Nb0 3.100394 1_455
Hf1 Nb2 3.100394 1_554
Hf1 Hf9 3.161360 1_554
Hf1 Hf5 3.161360 1_455
Hf1 Hf6 3.165763 1_555
Hf2 Ni1 2.562725 1_455
Hf2 Ni0 2.562725 1_545
Hf2 Ni3 2.572546 1_445
Hf2 Pt0 3.099033 1_555
Hf2 Nb0 3.100394 1_455
Hf2 Nb1 3.100394 1_545
Hf2 Hf9 3.161360 1_545
Hf2 Hf7 3.161360 1_455
Hf2 Hf4 3.165763 1_555
Hf3 Ni0 2.606946 1_544
Hf3 Ni2 2.606946 1_445
Hf3 Ni1 2.606946 1_454
Hf3 Nb0 3.056707 1_455
Hf3 Nb2 3.056707 1_554
Hf3 Nb1 3.056707 1_545
Hf3 Hf6 3.158892 1_545
Hf3 Hf4 3.158892 1_554
Hf3 Hf8 3.158892 1_455
Hf4 Nb2 2.876100 1_555
Hf4 Pt0 2.897443 1_555
Hf4 Ni0 3.176429 1_545
Hf4 Ni1 3.176429 1_455
Hf4 Hf9 3.218583 1_555
Hf4 Hf7 3.218583 1_555
Hf4 Hf6 3.235705 1_555
Hf4 Hf8 3.235705 1_555
Hf5 Nb0 2.904649 1_555
Hf5 Nb1 2.904649 1_555
Hf5 Ni2 3.128086 1_555
Hf5 Ni3 3.165186 1_554
Hf5 Hf8 3.218583 1_555
Hf5 Hf6 3.218583 1_555
Hf5 Hf7 3.224844 1_555
Hf5 Hf9 3.224844 1_555
Hf6 Nb1 2.876100 1_555
Hf6 Pt0 2.897442 1_555
Hf6 Ni0 3.176429 1_554
Hf6 Ni2 3.176429 1_455
Hf6 Hf9 3.218583 1_555
Hf6 Hf8 3.235705 1_555
Hf7 Nb0 2.904649 1_555
Hf7 Nb2 2.904649 1_555
Hf7 Ni1 3.128086 1_555
Hf7 Ni3 3.165186 1_545
Hf7 Hf8 3.218583 1_555
Hf7 Hf9 3.224844 1_555
Hf8 Nb0 2.876100 1_555
Hf8 Pt0 2.897443 1_555
Hf8 Ni2 3.176429 1_545
Hf8 Ni1 3.176429 1_554
Hf9 Nb2 2.904649 1_555
Hf9 Nb1 2.904649 1_555
Hf9 Ni0 3.128086 1_555
Hf9 Ni3 3.165186 1_455
Hf10 Ni2 2.571256 1_555
Hf10 Ni3 2.574581 1_555
Hf10 Nb0 3.025624 1_565
Hf10 Nb1 3.025624 1_655
Hf10 Hf8 3.226267 1_565
Hf10 Hf6 3.226268 1_655
Hf10 Hf7 3.244359 1_565
Hf10 Hf9 3.244359 1_655
Hf11 Ni0 2.552181 1_555
Hf11 Ni1 2.552182 1_555
Hf11 Nb2 3.051326 1_555
Hf11 Pt0 3.052162 1_556
Hf11 Hf7 3.224232 1_555
Hf11 Hf9 3.224232 1_555
Hf11 Hf8 3.253297 1_556
Hf11 Hf6 3.253297 1_556
Hf12 Ni1 2.571256 1_555
Hf12 Ni3 2.574581 1_555
Hf12 Nb0 3.025624 1_556
Hf12 Nb2 3.025624 1_655
Hf12 Hf8 3.226268 1_556
Hf12 Hf4 3.226268 1_655
Hf12 Hf5 3.244359 1_556
Hf12 Hf9 3.244359 1_655
Hf13 Ni0 2.552182 1_555
Hf13 Ni2 2.552182 1_555
Hf13 Nb1 3.051326 1_555
Hf13 Pt0 3.052162 1_565
Hf13 Hf5 3.224232 1_555
Hf13 Hf9 3.224232 1_555
Hf13 Hf8 3.253297 1_565
Hf13 Hf4 3.253297 1_565
Hf14 Ni0 2.571256 1_555
Hf14 Ni3 2.574582 1_555
Hf14 Nb2 3.025624 1_565
Hf14 Nb1 3.025624 1_556
Hf14 Hf4 3.226267 1_565
Hf14 Hf6 3.226268 1_556
Hf14 Hf7 3.244359 1_565
Hf14 Hf5 3.244359 1_556
Hf15 Ni2 2.552181 1_555
Hf15 Ni1 2.552181 1_555
Hf15 Nb0 3.051326 1_555
Hf15 Pt0 3.052162 1_655
Hf15 Hf7 3.224232 1_555
Hf15 Hf5 3.224233 1_555
Hf15 Hf4 3.253297 1_655
Hf15 Hf6 3.253297 1_655
Nb0 Nb1 2.916636 1_645
Nb0 Nb2 2.916637 1_654
Nb0 Pt0 2.937551 1_655
Nb1 Nb2 2.916636 1_564
Nb1 Pt0 2.937551 1_565
Nb2 Pt0 2.937551 1_556
