# generated using pymatgen
data_Y6CrB14Ru
_symmetry_space_group_name_H-M   'P 1'
_cell_length_a   8.07946978
_cell_length_b   8.07946943
_cell_length_c   9.34444846
_cell_angle_alpha   90.00000000
_cell_angle_beta   90.00000000
_cell_angle_gamma   155.05334618
_symmetry_Int_Tables_number   1
_chemical_formula_structural   Y6CrB14Ru
_chemical_formula_sum   'Y6 Cr1 B14 Ru1'
_cell_volume   257.27609379
_cell_formula_units_Z   1
loop_
 _symmetry_equiv_pos_site_id
 _symmetry_equiv_pos_as_xyz
  1  'x, y, z'
loop_
 _atom_site_type_symbol
 _atom_site_label
 _atom_site_symmetry_multiplicity
 _atom_site_fract_x
 _atom_site_fract_y
 _atom_site_fract_z
 _atom_site_occupancy
  Y  Y0  1  0.75668402  0.24331598  0.25000000  1
  Y  Y1  1  0.24191394  0.75808606  0.75000000  1
  Y  Y2  1  0.89451593  0.10548407  0.56068716  1
  Y  Y3  1  0.10543409  0.89456591  0.44032915  1
  Y  Y4  1  0.10543409  0.89456591  0.05967085  1
  Y  Y5  1  0.89451593  0.10548407  0.93931284  1
  Cr  Cr0  1  0.05352576  0.94647424  0.75000000  1
  B  B0  1  0.54175403  0.45824597  0.25000000  1
  B  B1  1  0.45853383  0.54146617  0.75000000  1
  B  B2  1  0.52085543  0.47914457  0.90328351  1
  B  B3  1  0.47924110  0.52075890  0.09655309  1
  B  B4  1  0.47924110  0.52075890  0.40344691  1
  B  B5  1  0.52085543  0.47914457  0.59671649  1
  B  B6  1  0.63084281  0.36915719  0.84860694  1
  B  B7  1  0.36917473  0.63082527  0.15086617  1
  B  B8  1  0.72759018  0.27240982  0.96584202  1
  B  B9  1  0.27342015  0.72657985  0.03462365  1
  B  B10  1  0.27342015  0.72657985  0.46537635  1
  B  B11  1  0.72759018  0.27240982  0.53415798  1
  B  B12  1  0.63084281  0.36915719  0.65139306  1
  B  B13  1  0.36917473  0.63082527  0.34913383  1
  Ru  Ru0  1  0.94543756  0.05456244  0.25000000  1
loop_
_geom_bond_atom_site_label_1
_geom_bond_atom_site_label_2
_geom_bond_distance
_geom_bond_site_symmetry_2
B0 B4 1.740342 1_555
B0 B3 1.740342 1_555
B0 Ru0 2.313974 1_565
B0 Ru0 2.313974 1_455
B0 Y3 2.686591 1_545
B0 Y4 2.686591 1_545
B0 Y3 2.686591 1_655
B0 Y4 2.686591 1_655
B1 B2 1.737374 1_555
B1 B5 1.737374 1_555
B1 Cr0 2.300304 1_545
B1 Cr0 2.300304 1_655
B1 Y5 2.682316 1_565
B1 Y2 2.682316 1_565
B1 Y5 2.682316 1_455
B1 Y2 2.682316 1_455
B2 B6 1.808981 1_555
B2 B3 1.921643 1_556
B2 Cr0 2.315708 1_545
B2 Cr0 2.315708 1_655
B2 Y4 2.638460 1_546
B2 Y4 2.638461 1_656
B2 Y5 2.670558 1_565
B2 Y5 2.670558 1_455
B3 B7 1.809220 1_555
B3 Ru0 2.320697 1_565
B3 Ru0 2.320697 1_455
B3 Y5 2.644051 1_564
B3 Y5 2.644051 1_454
B3 Y4 2.669850 1_545
B3 Y4 2.669850 1_655
B4 B5 1.921643 1_555
B4 Ru0 2.320697 1_565
B4 Ru0 2.320697 1_455
B4 Y2 2.644051 1_565
B4 Y2 2.644051 1_455
B4 Y3 2.669850 1_545
B4 Y3 2.669850 1_655
B5 Cr0 2.315708 1_545
B5 Cr0 2.315708 1_655
B5 Y3 2.638460 1_545
B5 Y3 2.638461 1_655
B5 Y2 2.670558 1_565
B5 Y2 2.670558 1_455
B6 B8 1.878861 1_555
B6 Cr0 2.319978 1_655
B6 Cr0 2.319978 1_545
B6 Y1 2.639170 1_545
B6 Y1 2.639170 1_655
B6 Y4 2.663788 1_656
B6 Y4 2.663788 1_546
B7 B9 1.860728 1_555
B7 Ru0 2.313243 1_455
B7 Ru0 2.313243 1_565
B7 Y0 2.655808 1_565
B7 Y0 2.655808 1_455
B7 Y5 2.667016 1_454
B7 Y5 2.667016 1_564
B8 B9 1.995277 1_546
B8 B9 1.995277 1_656
B8 Y5 2.645318 1_555
B8 Y1 2.676610 1_545
B8 Y1 2.676610 1_655
B8 Y0 2.694684 1_556
B8 Y4 2.743810 1_656
B8 Y4 2.743810 1_546
B9 Y4 2.660720 1_555
B9 Y0 2.676819 1_565
B9 Y0 2.676819 1_455
B9 Y1 2.705706 1_554
B9 Y5 2.736560 1_454
B9 Y5 2.736561 1_564
B10 B13 1.860728 1_555
B10 B11 1.995277 1_565
B10 B11 1.995277 1_455
B10 Y3 2.660720 1_555
B10 Y0 2.676819 1_565
B10 Y0 2.676819 1_455
B10 Y1 2.705706 1_555
B10 Y2 2.736560 1_455
B10 Y2 2.736561 1_565
B11 B12 1.878861 1_555
B11 Y2 2.645318 1_555
B11 Y1 2.676610 1_545
B11 Y1 2.676610 1_655
B11 Y0 2.694684 1_555
B11 Y3 2.743810 1_655
B11 Y3 2.743810 1_545
B12 B5 1.808981 1_555
B12 B6 1.842855 1_555
B12 Cr0 2.319978 1_655
B12 Cr0 2.319978 1_545
B12 Y1 2.639170 1_545
B12 Y1 2.639170 1_655
B12 Y3 2.663788 1_655
B12 Y3 2.663788 1_545
B13 B4 1.809220 1_555
B13 B7 1.852702 1_555
B13 Ru0 2.313243 1_455
B13 Ru0 2.313243 1_565
B13 Y0 2.655808 1_565
B13 Y0 2.655808 1_455
B13 Y2 2.667016 1_455
B13 Y2 2.667016 1_565
