# generated using pymatgen
data_FeIrCl6
_symmetry_space_group_name_H-M   'P 1'
_cell_length_a   6.06884163
_cell_length_b   6.06884188
_cell_length_c   6.29795026
_cell_angle_alpha   81.06544676
_cell_angle_beta   81.06544606
_cell_angle_gamma   119.94317492
_symmetry_Int_Tables_number   1
_chemical_formula_structural   FeIrCl6
_chemical_formula_sum   'Fe1 Ir1 Cl6'
_cell_volume   191.07265135
_cell_formula_units_Z   1
loop_
 _symmetry_equiv_pos_site_id
 _symmetry_equiv_pos_as_xyz
  1  'x, y, z'
loop_
 _atom_site_type_symbol
 _atom_site_label
 _atom_site_symmetry_multiplicity
 _atom_site_fract_x
 _atom_site_fract_y
 _atom_site_fract_z
 _atom_site_occupancy
  Fe  Fe0  1  0.16675984  0.83324016  0.00000000  1
  Ir  Ir0  1  0.83338591  0.16661409  1.00000000  1
  Cl  Cl0  1  0.43339124  0.07532615  0.22384133  1
  Cl  Cl1  1  0.92467385  0.56660876  0.77615867  1
  Cl  Cl2  1  0.21314389  0.21854866  0.77547932  1
  Cl  Cl3  1  0.78145134  0.78685611  0.22452068  1
  Cl  Cl4  1  0.06962162  0.42242770  0.22351869  1
  Cl  Cl5  1  0.57757230  0.93037838  0.77648131  1
loop_
_geom_bond_atom_site_label_1
_geom_bond_atom_site_label_2
_geom_bond_distance
_geom_bond_site_symmetry_2
Cl0 Ir0 2.353501 1_554
Cl0 Fe0 2.396431 1_545
Cl1 Ir0 2.353501 1_555
Cl1 Fe0 2.396431 1_656
Cl2 Ir0 2.352565 1_455
Cl2 Fe0 2.395600 1_546
Cl3 Ir0 2.352565 1_564
Cl3 Fe0 2.395600 1_655
Cl4 Ir0 2.351823 1_454
Cl4 Fe0 2.393714 1_555
Cl5 Ir0 2.351823 1_565
Cl5 Fe0 2.393714 1_556
