# generated using pymatgen
data_Sr8Ga2RuN8
_symmetry_space_group_name_H-M   'P 1'
_cell_length_a   9.84441756
_cell_length_b   5.37709969
_cell_length_c   7.52008728
_cell_angle_alpha   89.99999710
_cell_angle_beta   74.90227710
_cell_angle_gamma   74.15094374
_symmetry_Int_Tables_number   1
_chemical_formula_structural   Sr8Ga2RuN8
_chemical_formula_sum   'Sr8 Ga2 Ru1 N8'
_cell_volume   368.63468255
_cell_formula_units_Z   1
loop_
 _symmetry_equiv_pos_site_id
 _symmetry_equiv_pos_as_xyz
  1  'x, y, z'
loop_
 _atom_site_type_symbol
 _atom_site_label
 _atom_site_symmetry_multiplicity
 _atom_site_fract_x
 _atom_site_fract_y
 _atom_site_fract_z
 _atom_site_occupancy
  Sr  Sr0  1  0.06836409  0.96581845  0.73925355  1
  Sr  Sr1  1  0.93163591  0.03418155  0.26074645  1
  Sr  Sr2  1  0.65252864  0.67373568  0.49178165  1
  Sr  Sr3  1  0.34747136  0.32626432  0.50821835  1
  Sr  Sr4  1  0.80515965  0.59742068  0.94217130  1
  Sr  Sr5  1  0.19484035  0.40257932  0.05782870  1
  Sr  Sr6  1  0.39197766  0.80401167  0.18871460  1
  Sr  Sr7  1  0.60802234  0.19598833  0.81128540  1
  Ga  Ga0  1  0.37410415  0.81294893  0.79822372  1
  Ga  Ga1  1  0.62589585  0.18705107  0.20177628  1
  Ru  Ru0  1  0.00000000  0.50000000  0.50000000  1
  N  N0  1  0.20107528  0.89946336  0.00270836  1
  N  N1  1  0.79892472  0.10053664  0.99729164  1
  N  N2  1  0.35611859  0.82194121  0.55496428  1
  N  N3  1  0.64388141  0.17805879  0.44503572  1
  N  N4  1  0.56490364  0.71754818  0.84069748  1
  N  N5  1  0.43509636  0.28245182  0.15930252  1
  N  N6  1  0.93973474  0.53013263  0.29214518  1
  N  N7  1  0.06026526  0.46986737  0.70785482  1
loop_
_geom_bond_atom_site_label_1
_geom_bond_atom_site_label_2
_geom_bond_distance
_geom_bond_site_symmetry_2
Ga0 N2 1.882603 1_555
Ga0 N4 1.918191 1_555
Ga0 N0 1.919689 1_556
Ga1 N3 1.882603 1_555
Ga1 N5 1.918191 1_555
Ga1 N1 1.919689 1_554
N0 Sr6 2.567962 1_555
N0 Sr0 2.617838 1_554
N0 Sr5 2.718512 1_565
N0 Sr5 2.718528 1_555
N0 Sr1 2.755906 1_465
N1 Sr7 2.567962 1_555
N1 Sr1 2.617838 1_556
N1 Sr4 2.718512 1_545
N1 Sr4 2.718528 1_555
N1 Sr0 2.755906 1_645
N2 Sr6 2.682278 1_555
N2 Sr0 2.702152 1_555
N2 Sr3 2.715540 1_565
N2 Sr3 2.715545 1_555
N2 Sr2 2.717181 1_555
N3 Sr7 2.682278 1_555
N3 Sr1 2.702152 1_555
N3 Sr2 2.715540 1_545
N3 Sr2 2.715545 1_555
N3 Sr3 2.717181 1_555
N4 Sr2 2.528688 1_555
N4 Sr4 2.588311 1_555
N4 Sr6 2.685197 1_556
N4 Sr7 2.719383 1_565
N4 Sr7 2.719388 1_555
N5 Sr3 2.528688 1_555
N5 Sr5 2.588311 1_555
N5 Sr7 2.685197 1_554
N5 Sr6 2.719383 1_545
N5 Sr6 2.719388 1_555
N6 Ru0 1.803343 1_655
N6 Sr5 2.576089 1_655
N6 Sr1 2.701801 1_565
N6 Sr1 2.701806 1_555
N6 Sr2 2.727723 1_555
N6 Sr4 3.219798 1_554
N7 Ru0 1.803343 1_555
N7 Sr4 2.576089 1_455
N7 Sr0 2.701801 1_545
N7 Sr0 2.701806 1_555
N7 Sr3 2.727723 1_555
N7 Sr5 3.219798 1_556
