# generated using pymatgen
data_AgMoS2O9
_symmetry_space_group_name_H-M   'P 1'
_cell_length_a   5.16382154
_cell_length_b   7.83480911
_cell_length_c   8.62604962
_cell_angle_alpha   76.00952294
_cell_angle_beta   90.00000000
_cell_angle_gamma   90.00000000
_symmetry_Int_Tables_number   1
_chemical_formula_structural   AgMoS2O9
_chemical_formula_sum   'Ag2 Mo2 S4 O18'
_cell_volume   338.63645250
_cell_formula_units_Z   2
loop_
 _symmetry_equiv_pos_site_id
 _symmetry_equiv_pos_as_xyz
  1  'x, y, z'
loop_
 _atom_site_type_symbol
 _atom_site_label
 _atom_site_symmetry_multiplicity
 _atom_site_fract_x
 _atom_site_fract_y
 _atom_site_fract_z
 _atom_site_occupancy
  Ag  Ag0  1  0.25000000  0.45103851  0.22707631  1
  Ag  Ag1  1  0.75000000  0.54896149  0.77292369  1
  Mo  Mo0  1  0.25000000  0.93711382  0.27298986  1
  Mo  Mo1  1  0.75000000  0.06288618  0.72701014  1
  S  S0  1  0.25000000  0.33084172  0.62897664  1
  S  S1  1  0.75000000  0.66915828  0.37102336  1
  S  S2  1  0.25000000  0.82047341  0.90414681  1
  S  S3  1  0.75000000  0.17952659  0.09585319  1
  O  O0  1  0.25000000  0.27788884  0.48020972  1
  O  O1  1  0.75000000  0.72211116  0.51979028  1
  O  O2  1  0.25000000  0.51559053  0.62110101  1
  O  O3  1  0.75000000  0.48440947  0.37889899  1
  O  O4  1  0.01782496  0.25037620  0.72959332  1
  O  O5  1  0.51782496  0.74962380  0.27040668  1
  O  O6  1  0.98217504  0.74962380  0.27040668  1
  O  O7  1  0.48217504  0.25037620  0.72959332  1
  O  O8  1  0.25000000  0.93343586  0.01575796  1
  O  O9  1  0.75000000  0.06656414  0.98424204  1
  O  O10  1  0.25000000  0.63429199  0.97555559  1
  O  O11  1  0.75000000  0.36570801  0.02444441  1
  O  O12  1  0.01500622  0.86250262  0.79911240  1
  O  O13  1  0.51500622  0.13749738  0.20088760  1
  O  O14  1  0.98499378  0.13749738  0.20088760  1
  O  O15  1  0.48499378  0.86250262  0.79911240  1
  O  O16  1  0.25000000  0.91974051  0.46597071  1
  O  O17  1  0.75000000  0.08025949  0.53402929  1
loop_
_geom_bond_atom_site_label_1
_geom_bond_atom_site_label_2
_geom_bond_distance
_geom_bond_site_symmetry_2
Ag0 O0 2.275066 1_555
Ag0 O10 2.294012 1_554
Ag1 O1 2.275066 1_555
Ag1 O11 2.294012 1_556
Mo0 O16 1.637092 1_555
Mo0 O5 2.021589 1_555
Mo0 O6 2.021589 1_455
Mo0 O13 2.062070 1_565
Mo0 O14 2.062070 1_465
Mo0 O8 2.226037 1_555
Mo1 O17 1.637092 1_555
Mo1 O4 2.021589 1_655
Mo1 O7 2.021589 1_555
Mo1 O12 2.062070 1_645
Mo1 O15 2.062070 1_545
Mo1 O9 2.226037 1_555
O0 S0 1.440948 1_555
O1 S1 1.440948 1_555
O2 S0 1.432565 1_555
O3 S1 1.432565 1_555
O4 S0 1.524322 1_555
O5 S1 1.524322 1_555
O6 S1 1.524322 1_555
O7 S0 1.524322 1_555
O8 S2 1.456780 1_554
O9 S3 1.456780 1_556
O10 S2 1.439710 1_555
O11 S3 1.439710 1_555
O12 S2 1.502521 1_555
O13 S3 1.502521 1_555
O14 S3 1.502521 1_555
O15 S2 1.502521 1_555
