# generated using pymatgen
data_Na4CuAs2Au
_symmetry_space_group_name_H-M   'P 1'
_cell_length_a   5.65177597
_cell_length_b   5.65177514
_cell_length_c   5.45571320
_cell_angle_alpha   90.78374712
_cell_angle_beta   90.78374520
_cell_angle_gamma   101.79237785
_symmetry_Int_Tables_number   1
_chemical_formula_structural   Na4CuAs2Au
_chemical_formula_sum   'Na4 Cu1 As2 Au1'
_cell_volume   170.55133311
_cell_formula_units_Z   1
loop_
 _symmetry_equiv_pos_site_id
 _symmetry_equiv_pos_as_xyz
  1  'x, y, z'
loop_
 _atom_site_type_symbol
 _atom_site_label
 _atom_site_symmetry_multiplicity
 _atom_site_fract_x
 _atom_site_fract_y
 _atom_site_fract_z
 _atom_site_occupancy
  Na  Na0  1  0.02640395  0.67381773  0.24820670  1
  Na  Na1  1  0.97359605  0.32618227  0.75179330  1
  Na  Na2  1  0.67381773  0.02640395  0.24820670  1
  Na  Na3  1  0.32618227  0.97359605  0.75179330  1
  Cu  Cu0  1  0.50000000  0.50000000  0.50000000  1
  As  As0  1  0.77999578  0.77999578  0.73110030  1
  As  As1  1  0.22000422  0.22000422  0.26889970  1
  Au  Au0  1  0.50000000  0.50000000  0.00000000  1
loop_
_geom_bond_atom_site_label_1
_geom_bond_atom_site_label_2
_geom_bond_distance
_geom_bond_site_symmetry_2
Cu0 Na2 3.264598 1_565
Cu0 Na3 3.264598 1_545
Cu0 Na0 3.264599 1_655
Cu0 Na1 3.264599 1_455
Cu0 Na3 3.320804 1_555
Cu0 Na2 3.320804 1_555
Cu0 Na1 3.320804 1_555
Cu0 Na0 3.320804 1_555
As0 Cu0 2.337816 1_555
As0 Au0 2.502822 1_556
As0 Na1 2.989995 1_555
As0 Na3 2.989995 1_555
As0 Na1 3.057059 1_565
As0 Na3 3.057059 1_655
As0 Na2 3.104677 1_565
As0 Na0 3.104677 1_655
As0 Na2 3.246393 1_566
As0 Na0 3.246393 1_656
As1 Cu0 2.337816 1_555
As1 Au0 2.502822 1_555
As1 Na0 2.989995 1_555
As1 Na2 2.989995 1_555
As1 Na0 3.057059 1_545
As1 Na2 3.057059 1_455
As1 Na3 3.104677 1_545
As1 Na1 3.104677 1_455
As1 Na3 3.246393 1_544
As1 Na1 3.246393 1_454
Au0 Cu0 2.727857 1_555
Au0 Cu0 2.727857 1_554
Au0 Na2 3.210746 1_565
Au0 Na3 3.210746 1_544
Au0 Na0 3.210747 1_655
Au0 Na1 3.210747 1_454
Au0 Na2 3.331786 1_555
Au0 Na3 3.331786 1_554
Au0 Na1 3.331786 1_554
Au0 Na0 3.331786 1_555
