# generated using pymatgen
data_Y4B16MoW3
_symmetry_space_group_name_H-M   'P 1'
_cell_length_a   3.62170815
_cell_length_b   6.03326539
_cell_length_c   11.65471470
_cell_angle_alpha   90.00086665
_cell_angle_beta   90.00000000
_cell_angle_gamma   90.00000000
_symmetry_Int_Tables_number   1
_chemical_formula_structural   Y4B16MoW3
_chemical_formula_sum   'Y4 B16 Mo1 W3'
_cell_volume   254.66398238
_cell_formula_units_Z   1
loop_
 _symmetry_equiv_pos_site_id
 _symmetry_equiv_pos_as_xyz
  1  'x, y, z'
loop_
 _atom_site_type_symbol
 _atom_site_label
 _atom_site_symmetry_multiplicity
 _atom_site_fract_x
 _atom_site_fract_y
 _atom_site_fract_z
 _atom_site_occupancy
  Y  Y0  1  0.00000000  0.12751572  0.14928622  1
  Y  Y1  1  0.00000000  0.87287872  0.85050548  1
  Y  Y2  1  0.00000000  0.62738516  0.35065204  1
  Y  Y3  1  0.00000000  0.37249872  0.64969873  1
  B  B0  1  0.50000000  0.02391181  0.69322134  1
  B  B1  1  0.50000000  0.97642212  0.30694874  1
  B  B2  1  0.50000000  0.52301242  0.80697271  1
  B  B3  1  0.50000000  0.47607334  0.19307656  1
  B  B4  1  0.50000000  0.11361056  0.54735599  1
  B  B5  1  0.50000000  0.88643574  0.45278450  1
  B  B6  1  0.50000000  0.61335868  0.95245848  1
  B  B7  1  0.50000000  0.38614981  0.04707441  1
  B  B8  1  0.50000000  0.28654681  0.31391666  1
  B  B9  1  0.50000000  0.71326640  0.68629011  1
  B  B10  1  0.50000000  0.78656196  0.18606676  1
  B  B11  1  0.50000000  0.21416498  0.81426500  1
  B  B12  1  0.50000000  0.36592371  0.46812551  1
  B  B13  1  0.50000000  0.63403078  0.53198631  1
  B  B14  1  0.50000000  0.86635544  0.03158095  1
  B  B15  1  0.50000000  0.13425896  0.96779975  1
  Mo  Mo0  1  0.00000000  0.37052234  0.91654555  1
  W  W0  1  0.00000000  0.12989834  0.41608644  1
  W  W1  1  0.00000000  0.86998912  0.58395052  1
  W  W2  1  0.00000000  0.62922937  0.08335022  1
loop_
_geom_bond_atom_site_label_1
_geom_bond_atom_site_label_2
_geom_bond_distance
_geom_bond_site_symmetry_2
B0 B4 1.784086 1_555
B0 B11 1.818698 1_555
B0 B9 1.875945 1_545
B0 W1 2.400711 1_545
B0 W1 2.400711 1_645
B0 Y1 2.733099 1_645
B0 Y1 2.733099 1_545
B0 Y3 2.821280 1_555
B0 Y3 2.821280 1_655
B1 B5 1.784285 1_555
B1 B10 1.815740 1_555
B1 B8 1.872825 1_565
B1 W0 2.398847 1_665
B1 W0 2.398847 1_565
B1 Y0 2.736181 1_565
B1 Y0 2.736181 1_665
B1 Y2 2.823684 1_655
B1 Y2 2.823684 1_555
B2 B6 1.781048 1_555
B2 B9 1.815466 1_555
B2 Mo0 2.399267 1_655
B2 Mo0 2.399267 1_555
B2 Y3 2.731958 1_655
B2 Y3 2.731958 1_555
B2 Y1 2.827049 1_555
B2 Y1 2.827049 1_655
B3 B7 1.786002 1_555
B3 B8 1.814119 1_555
B3 W2 2.401763 1_655
B3 W2 2.401763 1_555
B3 Y2 2.735920 1_555
B3 Y2 2.735920 1_655
B3 Y0 2.821700 1_655
B3 Y0 2.821700 1_555
B4 B5 1.758797 1_545
B4 W1 2.370975 1_645
B4 W1 2.370975 1_545
B4 W0 2.372652 1_555
B4 W0 2.372652 1_655
B4 Y3 2.672360 1_655
B4 Y3 2.672360 1_555
B5 W0 2.370598 1_565
B5 W0 2.370598 1_665
B5 W1 2.371914 1_555
B5 W1 2.371914 1_655
B5 Y2 2.671840 1_555
B5 Y2 2.671840 1_655
B6 B7 1.759308 1_556
B6 Mo0 2.366615 1_655
B6 Mo0 2.366615 1_555
B6 W2 2.369710 1_656
B6 W2 2.369710 1_556
B6 Y1 2.672589 1_555
B6 Y1 2.672589 1_655
B7 Mo0 2.366931 1_554
B7 Mo0 2.366931 1_654
B7 W2 2.368275 1_555
B7 W2 2.368275 1_655
B7 Y0 2.670805 1_655
B7 Y0 2.670805 1_555
B8 W0 2.364393 1_555
B8 W0 2.364393 1_655
B8 Y2 2.773287 1_555
B8 Y2 2.773287 1_655
B8 Y0 2.807352 1_655
B8 Y0 2.807352 1_555
B9 W1 2.365569 1_655
B9 W1 2.365569 1_555
B9 Y3 2.772712 1_555
B9 Y3 2.772712 1_655
B9 Y1 2.805249 1_555
B9 Y1 2.805249 1_655
B10 B14 1.863745 1_555
B10 B3 1.875042 1_555
B10 W2 2.369244 1_555
B10 W2 2.369244 1_655
B10 Y0 2.773894 1_665
B10 Y0 2.773894 1_565
B10 Y2 2.807312 1_655
B10 Y2 2.807312 1_555
B11 B15 1.853215 1_555
B11 B2 1.865297 1_555
B11 Mo0 2.364327 1_655
B11 Mo0 2.364327 1_555
B11 Y1 2.774417 1_545
B11 Y1 2.774417 1_645
B11 Y3 2.805425 1_555
B11 Y3 2.805425 1_655
B12 B4 1.780460 1_555
B12 B13 1.780567 1_555
B12 B8 1.859964 1_555
B12 W0 2.382183 1_555
B12 W0 2.382183 1_655
B12 Y2 2.764443 1_555
B12 Y2 2.764443 1_655
B12 Y3 2.785498 1_555
B12 Y3 2.785498 1_655
B13 B5 1.780761 1_555
B13 B9 1.860814 1_555
B13 W1 2.381719 1_655
B13 W1 2.381719 1_555
B13 Y3 2.766067 1_555
B13 Y3 2.766067 1_655
B13 Y2 2.783389 1_655
B13 Y2 2.783389 1_555
B14 B15 1.779084 1_564
B14 B6 1.783313 1_554
B14 W2 2.385372 1_555
B14 W2 2.385372 1_655
B14 Y0 2.764723 1_565
B14 Y0 2.764723 1_665
B14 Y1 2.781090 1_654
B14 Y1 2.781090 1_554
B15 B7 1.778526 1_556
B15 Mo0 2.380741 1_555
B15 Mo0 2.380741 1_655
B15 Y1 2.763106 1_645
B15 Y1 2.763106 1_545
B15 Y0 2.784745 1_656
B15 Y0 2.784745 1_556
Mo0 W2 2.493096 1_556
Mo0 Y0 3.083413 1_556
Mo0 Y1 3.099490 1_545
Mo0 Y3 3.110047 1_555
Mo0 Y1 3.127063 1_555
W0 Y3 3.091153 1_555
W0 Y2 3.096850 1_555
W0 Y0 3.109514 1_555
W0 Y2 3.126228 1_545
W1 Y2 3.087943 1_555
W1 Y3 3.097774 1_555
W1 Y1 3.106671 1_555
W1 Y3 3.127101 1_565
W2 Y1 3.086325 1_554
W2 Y0 3.102946 1_565
W2 Y2 3.115346 1_555
W2 Y0 3.123006 1_555
