# generated using pymatgen
data_Lu4GaSe3
_symmetry_space_group_name_H-M   'P 1'
_cell_length_a   6.93986891
_cell_length_b   6.93986880
_cell_length_c   6.93986844
_cell_angle_alpha   131.98158283
_cell_angle_beta   131.98157669
_cell_angle_gamma   70.25812107
_symmetry_Int_Tables_number   1
_chemical_formula_structural   Lu4GaSe3
_chemical_formula_sum   'Lu4 Ga1 Se3'
_cell_volume   181.02217368
_cell_formula_units_Z   1
loop_
 _symmetry_equiv_pos_site_id
 _symmetry_equiv_pos_as_xyz
  1  'x, y, z'
loop_
 _atom_site_type_symbol
 _atom_site_label
 _atom_site_symmetry_multiplicity
 _atom_site_fract_x
 _atom_site_fract_y
 _atom_site_fract_z
 _atom_site_occupancy
  Lu  Lu0  1  0.24151150  0.24151150  0.00000000  1
  Lu  Lu1  1  0.75848850  0.75848850  1.00000000  1
  Lu  Lu2  1  0.50000000  0.00000000  0.50000000  1
  Lu  Lu3  1  0.00000000  0.50000000  0.50000000  1
  Ga  Ga0  1  0.00000000  0.00000000  0.00000000  1
  Se  Se0  1  0.75000000  0.25000000  0.50000000  1
  Se  Se1  1  0.25000000  0.75000000  0.50000000  1
  Se  Se2  1  0.50000000  0.50000000  0.00000000  1
loop_
_geom_bond_atom_site_label_1
_geom_bond_atom_site_label_2
_geom_bond_distance
_geom_bond_site_symmetry_2
Lu0 Se1 2.825361 1_544
Lu0 Se1 2.825361 1_555
Lu0 Se0 2.825362 1_454
Lu0 Se0 2.825362 1_555
Lu0 Se2 2.934272 1_555
Lu1 Se0 2.825361 1_566
Lu1 Se0 2.825361 1_555
Lu1 Se1 2.825362 1_656
Lu1 Se1 2.825362 1_555
Lu1 Se2 2.934272 1_556
Lu2 Se2 2.823718 1_545
Lu2 Se2 2.823718 1_556
Lu2 Se0 2.837914 1_555
Lu2 Se1 2.837914 1_545
Lu3 Se2 2.823718 1_556
Lu3 Se2 2.823718 1_455
Lu3 Se1 2.837914 1_555
Lu3 Se0 2.837914 1_455
Ga0 Lu0 2.741555 1_555
Ga0 Lu1 2.741555 1_444
Ga0 Lu3 2.823718 1_555
Ga0 Lu3 2.823718 1_544
Ga0 Lu2 2.823718 1_454
Ga0 Lu2 2.823718 1_555
