# generated using pymatgen
data_KCr3Sb12Rh
_symmetry_space_group_name_H-M   'P 1'
_cell_length_a   8.23685103
_cell_length_b   8.30554299
_cell_length_c   8.23685244
_cell_angle_alpha   109.64024743
_cell_angle_beta   109.30167868
_cell_angle_gamma   109.64024315
_symmetry_Int_Tables_number   1
_chemical_formula_structural   KCr3Sb12Rh
_chemical_formula_sum   'K1 Cr3 Sb12 Rh1'
_cell_volume   432.87090158
_cell_formula_units_Z   1
loop_
 _symmetry_equiv_pos_site_id
 _symmetry_equiv_pos_as_xyz
  1  'x, y, z'
loop_
 _atom_site_type_symbol
 _atom_site_label
 _atom_site_symmetry_multiplicity
 _atom_site_fract_x
 _atom_site_fract_y
 _atom_site_fract_z
 _atom_site_occupancy
  K  K0  1  0.00000000  0.00000000  0.00000000  1
  Cr  Cr0  1  0.50000000  0.50000000  0.50000000  1
  Cr  Cr1  1  0.50000000  0.00000000  0.00000000  1
  Cr  Cr2  1  0.00000000  0.00000000  0.50000000  1
  Sb  Sb0  1  0.84936168  0.65472189  0.50258737  1
  Sb  Sb1  1  0.15063832  0.34527811  0.49741263  1
  Sb  Sb2  1  0.14764279  0.65242733  0.81050285  1
  Sb  Sb3  1  0.85235721  0.34757267  0.18949715  1
  Sb  Sb4  1  0.66286006  0.50478454  0.85235721  1
  Sb  Sb5  1  0.33713994  0.49521546  0.14764279  1
  Sb  Sb6  1  0.65322669  0.80536120  0.15063832  1
  Sb  Sb7  1  0.34677331  0.19463880  0.84936168  1
  Sb  Sb8  1  0.50258737  0.84786649  0.65322669  1
  Sb  Sb9  1  0.49741263  0.15213351  0.34677331  1
  Sb  Sb10  1  0.18949715  0.84192548  0.33713994  1
  Sb  Sb11  1  0.81050285  0.15807452  0.66286006  1
  Rh  Rh0  1  0.00000000  0.50000000  0.00000000  1
loop_
_geom_bond_atom_site_label_1
_geom_bond_atom_site_label_2
_geom_bond_distance
_geom_bond_site_symmetry_2
K0 Sb10 3.582529 1_545
K0 Sb11 3.582529 1_454
K0 Sb5 3.582535 1_555
K0 Sb4 3.582535 1_444
K0 Sb3 3.582535 1_455
K0 Sb2 3.582535 1_544
K0 Sb7 3.591486 1_554
K0 Sb6 3.591486 1_445
K0 Sb9 3.591493 1_555
K0 Sb8 3.591493 1_444
K0 Sb1 3.591494 1_555
K0 Sb0 3.591494 1_444
Cr0 Sb0 2.718057 1_555
Cr0 Sb1 2.718057 1_555
Cr0 Sb9 2.725896 1_555
Cr0 Sb8 2.725896 1_555
Cr0 Sb4 2.745420 1_555
Cr0 Sb5 2.745420 1_555
Cr1 Sb8 2.718049 1_544
Cr1 Sb9 2.718049 1_555
Cr1 Sb6 2.725884 1_545
Cr1 Sb7 2.725884 1_554
Cr1 Sb3 2.745419 1_555
Cr1 Sb2 2.745419 1_544
Cr2 Sb7 2.718053 1_555
Cr2 Sb6 2.718053 1_445
Cr2 Sb1 2.725888 1_555
Cr2 Sb0 2.725888 1_445
Cr2 Sb11 2.745416 1_455
Cr2 Sb10 2.745416 1_545
Sb0 Sb2 2.900661 1_655
Sb0 Sb3 2.970008 1_555
Sb1 Sb3 2.900661 1_455
Sb1 Sb2 2.970008 1_555
Sb4 Sb6 2.900661 1_556
Sb4 Sb7 2.970018 1_555
Sb5 Sb7 2.900661 1_554
Sb5 Sb6 2.970018 1_555
Sb10 Sb9 2.900656 1_565
Sb10 Sb8 2.970013 1_555
Sb11 Sb8 2.900656 1_545
Sb11 Sb9 2.970013 1_555
Rh0 Sb5 2.658231 1_555
Rh0 Sb4 2.658231 1_454
Rh0 Sb2 2.658232 1_554
Rh0 Sb3 2.658232 1_455
Rh0 Sb10 2.658236 1_555
Rh0 Sb11 2.658236 1_454
