# generated using pymatgen
data_Ta6Be15(Co3Ni)2
_symmetry_space_group_name_H-M   'P 1'
_cell_length_a   7.51767882
_cell_length_b   7.51737725
_cell_length_c   7.51737620
_cell_angle_alpha   60.00000027
_cell_angle_beta   60.00132725
_cell_angle_gamma   60.00132905
_symmetry_Int_Tables_number   1
_chemical_formula_structural   Ta6Be15(Co3Ni)2
_chemical_formula_sum   'Ta6 Be15 Co6 Ni2'
_cell_volume   300.40704873
_cell_formula_units_Z   1
loop_
 _symmetry_equiv_pos_site_id
 _symmetry_equiv_pos_as_xyz
  1  'x, y, z'
loop_
 _atom_site_type_symbol
 _atom_site_label
 _atom_site_symmetry_multiplicity
 _atom_site_fract_x
 _atom_site_fract_y
 _atom_site_fract_z
 _atom_site_occupancy
  Ta  Ta0  1  0.71547565  0.28996657  0.28996657  1
  Ta  Ta1  1  0.28452435  0.71003343  0.71003343  1
  Ta  Ta2  1  0.28452435  0.71003343  0.29540879  1
  Ta  Ta3  1  0.71547565  0.28996657  0.70459121  1
  Ta  Ta4  1  0.28452435  0.29540879  0.71003343  1
  Ta  Ta5  1  0.71547565  0.70459121  0.28996657  1
  Be  Be0  1  0.32577041  0.32665088  0.32665088  1
  Be  Be1  1  0.67422959  0.67334912  0.67334912  1
  Be  Be2  1  0.32577041  0.32665088  0.02092583  1
  Be  Be3  1  0.32577041  0.02092583  0.32665088  1
  Be  Be4  1  0.67422959  0.67334912  0.97907417  1
  Be  Be5  1  0.67422959  0.97907417  0.67334912  1
  Be  Be6  1  0.02574674  0.32475042  0.32475042  1
  Be  Be7  1  0.97425326  0.67524958  0.67524958  1
  Be  Be8  1  0.50000000  0.00000000  0.00000000  1
  Be  Be9  1  0.00000000  0.50000000  0.50000000  1
  Be  Be10  1  0.00000000  0.50000000  0.00000000  1
  Be  Be11  1  0.50000000  0.00000000  0.50000000  1
  Be  Be12  1  0.00000000  0.00000000  0.50000000  1
  Be  Be13  1  0.50000000  0.50000000  0.00000000  1
  Be  Be14  1  0.00000000  0.00000000  0.00000000  1
  Co  Co0  1  0.12492068  0.12159457  0.12159457  1
  Co  Co1  1  0.87507932  0.87840643  0.87840543  1
  Co  Co2  1  0.12492068  0.12159457  0.63189019  1
  Co  Co3  1  0.12492068  0.63189019  0.12159357  1
  Co  Co4  1  0.87507932  0.87840643  0.36810981  1
  Co  Co5  1  0.87507932  0.36810981  0.87840543  1
  Ni  Ni0  1  0.63167497  0.12277534  0.12277534  1
  Ni  Ni1  1  0.36832503  0.87722466  0.87722466  1
loop_
_geom_bond_atom_site_label_1
_geom_bond_atom_site_label_2
_geom_bond_distance
_geom_bond_site_symmetry_2
Be0 Be9 2.170175 1_555
Be0 Be13 2.175820 1_555
Be0 Be11 2.175820 1_555
Be0 Be6 2.269857 1_555
Be0 Co2 2.290642 1_555
Be0 Co3 2.290646 1_555
Be0 Be2 2.298250 1_555
Be0 Be3 2.298251 1_555
Be0 Ni0 2.299235 1_555
Be0 Ta4 2.638134 1_555
Be0 Ta2 2.638134 1_555
Be0 Ta0 2.682424 1_555
Be1 Be9 2.170175 1_655
Be1 Be13 2.175820 1_556
Be1 Be11 2.175820 1_565
Be1 Be7 2.269857 1_555
Be1 Co5 2.290642 1_555
Be1 Co4 2.290646 1_555
Be1 Be4 2.298250 1_555
Be1 Be5 2.298251 1_555
Be1 Ni1 2.299235 1_555
Be1 Ta5 2.638134 1_555
Be1 Ta3 2.638134 1_555
Be1 Ta1 2.682424 1_555
Be2 Be8 2.175815 1_555
Be2 Be6 2.269857 1_555
Be2 Co0 2.290637 1_555
Be2 Co3 2.290646 1_555
Be2 Be3 2.298250 1_555
Be2 Ni0 2.299246 1_555
Be2 Ta4 2.638119 1_554
Be2 Ta1 2.638128 1_554
Be2 Ta3 2.682418 1_554
Be3 Be8 2.175814 1_555
Be3 Be6 2.269857 1_555
Be3 Co0 2.290637 1_555
Be3 Co2 2.290650 1_555
Be3 Ni0 2.299246 1_555
Be3 Ta2 2.638119 1_545
Be3 Ta1 2.638128 1_545
Be3 Ta5 2.682418 1_545
Be4 Be8 2.175815 1_566
Be4 Be7 2.269857 1_555
Be4 Co1 2.290644 1_555
Be4 Co5 2.290650 1_555
Be4 Be5 2.298250 1_555
Be4 Ni1 2.299246 1_555
Be4 Ta5 2.638119 1_556
Be4 Ta0 2.638128 1_556
Be4 Ta2 2.682418 1_556
Be5 Be8 2.175814 1_566
Be5 Be7 2.269857 1_555
Be5 Co1 2.290640 1_555
Be5 Co4 2.290646 1_555
Be5 Ni1 2.299246 1_555
Be5 Ta3 2.638119 1_565
Be5 Ta0 2.638128 1_565
Be5 Ta4 2.682418 1_565
Be6 Be9 2.175836 1_555
Be6 Co0 2.296895 1_555
Be6 Co2 2.296908 1_555
Be6 Co3 2.296908 1_555
Be6 Ta0 2.620218 1_455
Be6 Ta3 2.620227 1_455
Be6 Ta5 2.620227 1_455
Be7 Be9 2.175836 1_655
Be7 Co1 2.296902 1_555
Be7 Co4 2.296908 1_555
Be7 Co5 2.296908 1_555
Be7 Ta1 2.620218 1_655
Be7 Ta2 2.620227 1_655
Be7 Ta4 2.620227 1_655
Be8 Co0 2.302776 1_555
Be8 Co1 2.302776 1_544
Be8 Ni0 2.315717 1_555
Be8 Ni1 2.315717 1_544
Be8 Ta5 2.720305 1_545
Be8 Ta4 2.720305 1_554
Be8 Ta3 2.720305 1_554
Be8 Ta2 2.720305 1_545
Be9 Co5 2.322970 1_455
Be9 Co2 2.322971 1_555
Be9 Co3 2.322976 1_555
Be9 Co4 2.322977 1_455
Be9 Ta4 2.663207 1_555
Be9 Ta5 2.663207 1_455
Be9 Ta2 2.663207 1_555
Be9 Ta3 2.663207 1_455
Be10 Be2 2.170170 1_555
Be10 Be4 2.170170 1_454
Be10 Be6 2.175822 1_555
Be10 Be7 2.175822 1_454
Be10 Co3 2.322964 1_555
Be10 Co5 2.322970 1_454
Be10 Co0 2.322971 1_555
Be10 Co1 2.322977 1_454
Be10 Ta5 2.663207 1_455
Be10 Ta4 2.663207 1_554
Be10 Ta1 2.663207 1_554
Be10 Ta0 2.663207 1_455
Be11 Be5 2.175828 1_545
Be11 Be3 2.175828 1_555
Be11 Co2 2.302776 1_555
Be11 Co4 2.302776 1_545
Be11 Ni1 2.315711 1_545
Be11 Ni0 2.315711 1_555
Be11 Ta4 2.720305 1_555
Be11 Ta5 2.720305 1_545
Be11 Ta0 2.720305 1_555
Be11 Ta1 2.720305 1_545
Be12 Be3 2.170169 1_555
Be12 Be5 2.170169 1_445
Be12 Be6 2.175823 1_555
Be12 Be7 2.175823 1_445
Be12 Co4 2.322964 1_445
Be12 Co0 2.322970 1_555
Be12 Co1 2.322970 1_445
Be12 Co2 2.322970 1_555
Be12 Ta1 2.663207 1_545
Be12 Ta0 2.663207 1_455
Be12 Ta3 2.663207 1_455
Be12 Ta2 2.663207 1_545
Be13 Be4 2.175828 1_554
Be13 Be2 2.175828 1_555
Be13 Co5 2.302776 1_554
Be13 Co3 2.302776 1_555
Be13 Ni1 2.315711 1_554
Be13 Ni0 2.315711 1_555
Be13 Ta2 2.720305 1_555
Be13 Ta3 2.720305 1_554
Be13 Ta0 2.720305 1_555
Be13 Ta1 2.720305 1_554
Be14 Co1 2.259481 1_444
Be14 Co2 2.259487 1_554
Be14 Co4 2.259487 1_445
Be14 Co0 2.259488 1_555
Be14 Co5 2.259488 1_454
Be14 Co3 2.259488 1_545
Be14 Ni1 2.260883 1_544
Be14 Ni0 2.260883 1_455
Co0 Ta0 2.547359 1_455
Co0 Ta4 2.555785 1_554
Co0 Ta2 2.555785 1_545
Co0 Ni1 2.598001 1_544
Co1 Ta1 2.547360 1_655
Co1 Ta3 2.555780 1_565
Co1 Ta5 2.555786 1_556
Co1 Ni0 2.597996 1_566
Co2 Ta3 2.547359 1_455
Co2 Ta4 2.555785 1_555
Co2 Ta1 2.555785 1_545
Co2 Ni1 2.597996 1_545
Co3 Ta5 2.547359 1_455
Co3 Ta1 2.555778 1_554
Co3 Ta2 2.555792 1_555
Co3 Ni1 2.597996 1_554
Co4 Ta2 2.547359 1_655
Co4 Ta0 2.555779 1_565
Co4 Ta5 2.555792 1_555
Co4 Ni0 2.597996 1_565
Co5 Ta4 2.547359 1_655
Co5 Ta0 2.555785 1_556
Co5 Ta3 2.555785 1_555
Co5 Ni0 2.597996 1_556
Ni0 Ta0 2.592169 1_555
Ni0 Ta3 2.592175 1_554
Ni0 Ta5 2.592175 1_545
Ni1 Ta1 2.592169 1_555
Ni1 Ta2 2.592175 1_556
Ni1 Ta4 2.592175 1_565
