# generated using pymatgen
data_Hf3Zr7(ZnSn3)2
_symmetry_space_group_name_H-M   'P 1'
_cell_length_a   8.65379621
_cell_length_b   8.65379523
_cell_length_c   5.85413277
_cell_angle_alpha   90.00000000
_cell_angle_beta   90.00000000
_cell_angle_gamma   119.99999996
_symmetry_Int_Tables_number   1
_chemical_formula_structural   Hf3Zr7(ZnSn3)2
_chemical_formula_sum   'Hf3 Zr7 Zn2 Sn6'
_cell_volume   379.67017073
_cell_formula_units_Z   1
loop_
 _symmetry_equiv_pos_site_id
 _symmetry_equiv_pos_as_xyz
  1  'x, y, z'
loop_
 _atom_site_type_symbol
 _atom_site_label
 _atom_site_symmetry_multiplicity
 _atom_site_fract_x
 _atom_site_fract_y
 _atom_site_fract_z
 _atom_site_occupancy
  Hf  Hf0  1  0.66666700  0.33333300  0.00000000  1
  Hf  Hf1  1  0.33333300  0.66666700  0.00000000  1
  Hf  Hf2  1  0.33333300  0.66666700  0.50000000  1
  Zr  Zr0  1  0.66666700  0.33333300  0.50000000  1
  Zr  Zr1  1  0.73266446  0.73279370  0.74929489  1
  Zr  Zr2  1  0.26720630  0.99987076  0.74929489  1
  Zr  Zr3  1  0.00012924  0.26733554  0.74929489  1
  Zr  Zr4  1  0.26720630  0.26733554  0.25070511  1
  Zr  Zr5  1  0.73266446  0.99987076  0.25070511  1
  Zr  Zr6  1  0.00012924  0.73279370  0.25070511  1
  Zn  Zn0  1  0.00000000  0.00000000  0.00000000  1
  Zn  Zn1  1  0.00000000  0.00000000  0.50000000  1
  Sn  Sn0  1  0.38550263  0.38638734  0.75112549  1
  Sn  Sn1  1  0.61361266  0.99911628  0.75112549  1
  Sn  Sn2  1  0.00088372  0.61449737  0.75112549  1
  Sn  Sn3  1  0.61361266  0.61449737  0.24887451  1
  Sn  Sn4  1  0.38550263  0.99911628  0.24887451  1
  Sn  Sn5  1  0.00088372  0.38638734  0.24887451  1
loop_
_geom_bond_atom_site_label_1
_geom_bond_atom_site_label_2
_geom_bond_distance
_geom_bond_site_symmetry_2
Hf0 Zr0 2.927066 1_554
Hf0 Zr0 2.927066 1_555
Hf0 Sn1 3.061153 1_544
Hf0 Sn5 3.061153 1_655
Hf0 Sn4 3.061159 1_545
Hf0 Sn2 3.061159 1_654
Hf0 Sn3 3.061168 1_555
Hf0 Sn0 3.061168 1_554
Hf1 Sn4 3.050327 1_555
Hf1 Sn0 3.050327 1_554
Hf1 Sn1 3.050327 1_554
Hf1 Sn5 3.050327 1_555
Hf1 Sn3 3.050327 1_555
Hf1 Sn2 3.050327 1_554
Hf2 Sn4 3.056643 1_555
Hf2 Sn0 3.056643 1_555
Hf2 Sn1 3.056643 1_555
Hf2 Sn5 3.056643 1_555
Hf2 Sn3 3.056643 1_555
Hf2 Sn2 3.056643 1_555
Zn0 Zr3 2.739265 1_554
Zn0 Zr6 2.739265 1_545
Zn0 Zr4 2.739265 1_555
Zn0 Zr1 2.739265 1_444
Zn0 Zr2 2.739265 1_544
Zn0 Zr5 2.739265 1_445
Zn1 Zr3 2.734851 1_555
Zn1 Zr6 2.734851 1_545
Zn1 Zr4 2.734851 1_555
Zn1 Zr1 2.734851 1_445
Zn1 Zr2 2.734851 1_545
Zn1 Zr5 2.734851 1_445
Sn0 Zr3 2.957625 1_555
Sn0 Zr2 2.968480 1_545
Sn0 Zr1 3.001023 1_555
Sn0 Zr0 3.067462 1_555
Sn0 Zr4 3.099684 1_556
Sn0 Zr4 3.104328 1_555
Sn1 Zr1 2.957633 1_555
Sn1 Zr3 2.968479 1_665
Sn1 Zr2 3.001019 1_555
Sn1 Zr0 3.067447 1_565
Sn1 Zr5 3.099685 1_556
Sn1 Zr5 3.104329 1_555
Sn2 Zr2 2.957627 1_555
Sn2 Zr1 2.968472 1_455
Sn2 Zr3 3.001027 1_555
Sn2 Zr0 3.067453 1_455
Sn2 Zr6 3.099682 1_556
Sn2 Zr6 3.104327 1_555
Sn3 Zr5 2.957625 1_555
Sn3 Zr6 2.968481 1_655
Sn3 Zr4 3.001023 1_555
Sn3 Zr0 3.067462 1_555
Sn3 Zr1 3.099684 1_554
Sn3 Zr1 3.104328 1_555
Sn4 Zr6 2.957627 1_555
Sn4 Zr4 2.968472 1_565
Sn4 Zr5 3.001028 1_555
Sn4 Zr0 3.067452 1_565
Sn4 Zr2 3.099682 1_554
Sn4 Zr2 3.104327 1_555
Sn5 Zr4 2.957634 1_555
Sn5 Zr5 2.968479 1_445
Sn5 Zr6 3.001019 1_555
Sn5 Zr0 3.067447 1_455
Sn5 Zr3 3.099685 1_554
Sn5 Zr3 3.104329 1_555
