# generated using pymatgen
data_Cd2(Ni7B2)3
_symmetry_space_group_name_H-M   'P 1'
_cell_length_a   7.41610203
_cell_length_b   7.41610190
_cell_length_c   7.41610203
_cell_angle_alpha   120.00000059
_cell_angle_beta   90.00000000
_cell_angle_gamma   120.00000059
_symmetry_Int_Tables_number   1
_chemical_formula_structural   Cd2(Ni7B2)3
_chemical_formula_sum   'Cd2 Ni21 B6'
_cell_volume   288.41116959
_cell_formula_units_Z   1
loop_
 _symmetry_equiv_pos_site_id
 _symmetry_equiv_pos_as_xyz
  1  'x, y, z'
loop_
 _atom_site_type_symbol
 _atom_site_label
 _atom_site_symmetry_multiplicity
 _atom_site_fract_x
 _atom_site_fract_y
 _atom_site_fract_z
 _atom_site_occupancy
  Cd  Cd0  1  0.75000200  0.50000100  0.25000100  1
  Cd  Cd1  1  0.25000100  0.50000100  0.75000200  1
  Ni  Ni0  1  0.00000000  0.00000000  0.00000000  1
  Ni  Ni1  1  0.33594551  0.00000000  0.00000000  1
  Ni  Ni2  1  0.66405649  0.00000000  0.00000000  1
  Ni  Ni3  1  1.00000000  0.33594551  1.00000000  1
  Ni  Ni4  1  0.33594551  0.33594551  1.00000000  1
  Ni  Ni5  1  0.00000000  0.66405649  0.00000000  1
  Ni  Ni6  1  0.66405649  0.66405649  0.00000000  1
  Ni  Ni7  1  0.38643371  0.77286742  0.15929913  1
  Ni  Ni8  1  0.00000000  0.00000000  0.33594551  1
  Ni  Ni9  1  1.00000000  0.33594551  0.33594551  1
  Ni  Ni10  1  0.33594551  0.33594551  0.33594551  1
  Ni  Ni11  1  0.61356829  0.22713558  0.38643371  1
  Ni  Ni12  1  0.15929913  0.77286742  0.38643371  1
  Ni  Ni13  1  0.61356829  0.77286742  0.38643371  1
  Ni  Ni14  1  0.84070187  0.22713558  0.61356729  1
  Ni  Ni15  1  0.38643371  0.22713558  0.61356829  1
  Ni  Ni16  1  0.38643371  0.77286742  0.61356829  1
  Ni  Ni17  1  0.00000000  0.00000000  0.66405649  1
  Ni  Ni18  1  0.00000000  0.66405649  0.66405649  1
  Ni  Ni19  1  0.66405649  0.66405649  0.66405649  1
  Ni  Ni20  1  0.61356729  0.22713558  0.84070187  1
  B  B0  1  0.27308570  0.00000000  0.27308570  1
  B  B1  1  0.27308570  0.54617240  0.27308570  1
  B  B2  1  0.72691430  0.00000000  0.27308770  1
  B  B3  1  0.27308770  0.00000000  0.72691430  1
  B  B4  1  0.72691430  0.00000000  0.72691430  1
  B  B5  1  0.72691430  0.45382660  0.72691430  1
loop_
_geom_bond_atom_site_label_1
_geom_bond_atom_site_label_2
_geom_bond_distance
_geom_bond_site_symmetry_2
Cd0 Ni12 2.478385 1_655
Cd0 Ni11 2.478391 1_555
Cd0 Ni20 2.478397 1_554
Cd0 Ni13 2.478403 1_555
Cd1 Ni7 2.478385 1_556
Cd1 Ni15 2.478391 1_555
Cd1 Ni14 2.478397 1_455
Cd1 Ni16 2.478403 1_555
Ni0 Ni5 2.491391 1_545
Ni0 Ni18 2.491391 1_544
Ni0 Ni6 2.491391 1_445
Ni0 Ni19 2.491391 1_444
Ni0 Ni2 2.491391 1_455
Ni0 Ni17 2.491391 1_554
Ni0 Ni9 2.491406 1_455
Ni0 Ni3 2.491406 1_454
Ni0 Ni10 2.491406 1_555
Ni0 Ni4 2.491406 1_554
Ni0 Ni1 2.491406 1_555
Ni0 Ni8 2.491406 1_555
B0 Ni7 2.061686 1_545
B0 Ni12 2.061686 1_545
B0 Ni15 2.061698 1_555
B0 Ni11 2.061698 1_555
B0 Ni5 2.078188 1_545
B0 Ni10 2.078192 1_555
B0 Ni1 2.078192 1_555
B0 Ni8 2.078192 1_555
B1 Ni7 2.061692 1_555
B1 Ni12 2.061692 1_555
B1 Ni16 2.061698 1_555
B1 Ni13 2.061698 1_555
B1 Ni3 2.078190 1_454
B1 Ni9 2.078195 1_455
B1 Ni4 2.078195 1_554
B1 Ni10 2.078199 1_555
B2 Ni13 2.061674 1_545
B2 Ni14 2.061680 1_555
B2 Ni7 2.061686 1_545
B2 Ni11 2.061692 1_555
B2 Ni8 2.078188 1_655
B2 Ni6 2.078194 1_545
B2 Ni9 2.078197 1_555
B2 Ni2 2.078203 1_555
B3 Ni16 2.061674 1_545
B3 Ni20 2.061680 1_555
B3 Ni12 2.061686 1_545
B3 Ni15 2.061692 1_555
B3 Ni1 2.078188 1_556
B3 Ni18 2.078194 1_545
B3 Ni4 2.078197 1_555
B3 Ni17 2.078203 1_555
B4 Ni13 2.061686 1_545
B4 Ni16 2.061686 1_545
B4 Ni20 2.061698 1_555
B4 Ni14 2.061698 1_555
B4 Ni19 2.078188 1_545
B4 Ni2 2.078188 1_556
B4 Ni17 2.078188 1_655
B4 Ni3 2.078192 1_555
B5 Ni20 2.061674 1_555
B5 Ni14 2.061674 1_555
B5 Ni11 2.061686 1_555
B5 Ni15 2.061686 1_555
B5 Ni5 2.078185 1_656
B5 Ni6 2.078194 1_556
B5 Ni18 2.078194 1_655
B5 Ni19 2.078203 1_555
