# generated using pymatgen
data_GaBi3(MoO6)2
_symmetry_space_group_name_H-M   'P 1'
_cell_length_a   10.24100927
_cell_length_b   10.24100922
_cell_length_c   5.25114501
_cell_angle_alpha   75.38627311
_cell_angle_beta   75.38628002
_cell_angle_gamma   69.14533747
_symmetry_Int_Tables_number   1
_chemical_formula_structural   GaBi3(MoO6)2
_chemical_formula_sum   'Ga2 Bi6 Mo4 O24'
_cell_volume   489.89559323
_cell_formula_units_Z   2
loop_
 _symmetry_equiv_pos_site_id
 _symmetry_equiv_pos_as_xyz
  1  'x, y, z'
loop_
 _atom_site_type_symbol
 _atom_site_label
 _atom_site_symmetry_multiplicity
 _atom_site_fract_x
 _atom_site_fract_y
 _atom_site_fract_z
 _atom_site_occupancy
  Ga  Ga0  1  0.87724550  0.12275450  0.25000000  1
  Ga  Ga1  1  0.12275450  0.87724550  0.75000000  1
  Bi  Bi0  1  0.03714730  0.26410824  0.59333024  1
  Bi  Bi1  1  0.34975956  0.65024044  0.25000000  1
  Bi  Bi2  1  0.65024044  0.34975956  0.75000000  1
  Bi  Bi3  1  0.96285270  0.73589176  0.40666976  1
  Bi  Bi4  1  0.26410824  0.03714730  0.09333024  1
  Bi  Bi5  1  0.73589176  0.96285270  0.90666976  1
  Mo  Mo0  1  0.46057837  0.20252099  0.42372217  1
  Mo  Mo1  1  0.20252099  0.46057837  0.92372217  1
  Mo  Mo2  1  0.53942163  0.79747901  0.57627783  1
  Mo  Mo3  1  0.79747901  0.53942163  0.07627783  1
  O  O0  1  0.06903003  0.49457351  0.73953375  1
  O  O1  1  0.59273877  0.17571629  0.62377751  1
  O  O2  1  0.86961486  0.95759193  0.49815844  1
  O  O3  1  0.36182430  0.45624070  0.69480935  1
  O  O4  1  0.15639021  0.74298204  0.53513655  1
  O  O5  1  0.82428371  0.40726123  0.87622249  1
  O  O6  1  0.74298204  0.15639021  0.03513655  1
  O  O7  1  0.63817570  0.54375930  0.30519065  1
  O  O8  1  0.93096997  0.50542649  0.26046625  1
  O  O9  1  0.78768565  0.70486272  0.85900685  1
  O  O10  1  0.17571629  0.59273877  0.12377751  1
  O  O11  1  0.50542649  0.93096997  0.76046625  1
  O  O12  1  0.84360979  0.25701796  0.46486345  1
  O  O13  1  0.13038514  0.04240807  0.50184156  1
  O  O14  1  0.21231435  0.29513728  0.14099315  1
  O  O15  1  0.54375930  0.63817570  0.80519065  1
  O  O16  1  0.29513728  0.21231435  0.64099315  1
  O  O17  1  0.40726123  0.82428371  0.37622249  1
  O  O18  1  0.25701796  0.84360979  0.96486345  1
  O  O19  1  0.45624070  0.36182430  0.19480935  1
  O  O20  1  0.49457351  0.06903003  0.23953375  1
  O  O21  1  0.04240807  0.13038514  0.00184156  1
  O  O22  1  0.95759193  0.86961486  0.99815844  1
  O  O23  1  0.70486272  0.78768565  0.35900685  1
loop_
_geom_bond_atom_site_label_1
_geom_bond_atom_site_label_2
_geom_bond_distance
_geom_bond_site_symmetry_2
Ga0 O2 1.869672 1_545
Ga0 O21 1.869672 1_655
Ga0 O6 1.879298 1_555
Ga0 O12 1.879298 1_555
Ga1 O13 1.869672 1_565
Ga1 O22 1.869672 1_455
Ga1 O18 1.879298 1_555
Ga1 O4 1.879298 1_555
Bi0 O21 2.236832 1_556
Bi0 O13 2.252283 1_555
Bi0 O12 2.278295 1_455
Bi0 O5 2.509489 1_455
Bi0 O16 2.567771 1_555
Bi0 O14 2.614553 1_555
Bi0 O8 2.685353 1_455
Bi0 O0 2.802870 1_555
Bi1 O18 2.224360 1_554
Bi1 O4 2.224360 1_555
Bi1 O10 2.345924 1_555
Bi1 O17 2.345924 1_555
Bi1 O3 2.654699 1_555
Bi1 O15 2.654699 1_554
Bi1 O7 2.824271 1_555
Bi1 O19 2.824271 1_555
Bi2 O6 2.224360 1_556
Bi2 O12 2.224360 1_555
Bi2 O5 2.345924 1_555
Bi2 O1 2.345924 1_555
Bi2 O7 2.654699 1_555
Bi2 O19 2.654699 1_556
Bi2 O3 2.824271 1_555
Bi2 O15 2.824271 1_555
Bi3 O22 2.236832 1_554
Bi3 O2 2.252283 1_555
Bi3 O4 2.278295 1_655
Bi3 O10 2.509489 1_655
Bi3 O23 2.567771 1_555
Bi3 O9 2.614553 1_555
Bi3 O0 2.685353 1_655
Bi3 O8 2.802870 1_555
Bi4 O13 2.236832 1_555
Bi4 O21 2.252283 1_555
Bi4 O18 2.278295 1_544
Bi4 O17 2.509488 1_545
Bi4 O14 2.567771 1_555
Bi4 O16 2.614553 1_554
Bi4 O11 2.685353 1_544
Bi4 O20 2.802870 1_555
Bi5 O2 2.236832 1_555
Bi5 O22 2.252283 1_555
Bi5 O6 2.278295 1_566
Bi5 O1 2.509488 1_565
Bi5 O9 2.567771 1_555
Bi5 O23 2.614553 1_556
Bi5 O20 2.685353 1_566
Bi5 O11 2.802870 1_555
Mo0 O20 1.756137 1_555
Mo0 O19 1.759048 1_555
Mo0 O16 1.773046 1_555
Mo0 O1 1.821593 1_555
Mo1 O0 1.756137 1_555
Mo1 O3 1.759048 1_555
Mo1 O14 1.773046 1_556
Mo1 O10 1.821593 1_556
Mo2 O11 1.756137 1_555
Mo2 O15 1.759048 1_555
Mo2 O23 1.773046 1_555
Mo2 O17 1.821593 1_555
Mo3 O8 1.756137 1_555
Mo3 O7 1.759048 1_555
Mo3 O9 1.773046 1_554
Mo3 O5 1.821593 1_554
