# generated using pymatgen
data_CsTa(AgSe2)2
_symmetry_space_group_name_H-M   'P 1'
_cell_length_a   10.54374958
_cell_length_b   10.54374915
_cell_length_c   8.30888408
_cell_angle_alpha   90.00000000
_cell_angle_beta   90.00000000
_cell_angle_gamma   145.98788427
_symmetry_Int_Tables_number   1
_chemical_formula_structural   CsTa(AgSe2)2
_chemical_formula_sum   'Cs2 Ta2 Ag4 Se8'
_cell_volume   516.69067009
_cell_formula_units_Z   2
loop_
 _symmetry_equiv_pos_site_id
 _symmetry_equiv_pos_as_xyz
  1  'x, y, z'
loop_
 _atom_site_type_symbol
 _atom_site_label
 _atom_site_symmetry_multiplicity
 _atom_site_fract_x
 _atom_site_fract_y
 _atom_site_fract_z
 _atom_site_occupancy
  Cs  Cs0  1  0.46407061  0.82780236  0.75000000  1
  Cs  Cs1  1  0.82780236  0.46407061  0.25000000  1
  Ta  Ta0  1  0.52122901  0.29791282  0.75000000  1
  Ta  Ta1  1  0.29791282  0.52122901  0.25000000  1
  Ag  Ag0  1  0.36890228  0.36890228  0.00000000  1
  Ag  Ag1  1  0.36890228  0.36890228  0.50000000  1
  Ag  Ag2  1  0.02201641  0.79740905  0.75000000  1
  Ag  Ag3  1  0.79740905  0.02201641  0.25000000  1
  Se  Se0  1  0.64749173  0.62566495  0.75000000  1
  Se  Se1  1  0.62566495  0.64749173  0.25000000  1
  Se  Se2  1  0.30347187  0.06852357  0.99220138  1
  Se  Se3  1  0.06852357  0.30347187  0.49220138  1
  Se  Se4  1  0.41893878  0.83908883  0.25000000  1
  Se  Se5  1  0.06852357  0.30347187  0.00779862  1
  Se  Se6  1  0.30347187  0.06852357  0.50779862  1
  Se  Se7  1  0.83908883  0.41893878  0.75000000  1
loop_
_geom_bond_atom_site_label_1
_geom_bond_atom_site_label_2
_geom_bond_distance
_geom_bond_site_symmetry_2
Cs0 Se7 3.691212 1_565
Cs0 Se5 3.784319 1_556
Cs0 Se3 3.784319 1_555
Cs0 Se7 3.861667 1_455
Cs0 Se0 3.887904 1_555
Cs0 Se5 4.167589 1_666
Cs0 Se3 4.167589 1_665
Cs0 Se4 4.194505 1_556
Cs0 Se4 4.194505 1_555
Cs1 Se4 3.691213 1_655
Cs1 Se6 3.784320 1_555
Cs1 Se2 3.784320 1_554
Cs1 Se4 3.861667 1_545
Cs1 Se1 3.887904 1_555
Cs1 Se6 4.167589 1_665
Cs1 Se2 4.167589 1_664
Cs1 Se7 4.194505 1_554
Cs1 Se7 4.194505 1_555
Ag0 Se2 2.624595 1_554
Ag0 Se5 2.624595 1_555
Ag0 Se1 2.662469 1_555
Ag0 Se0 2.662469 1_554
Ag1 Se6 2.624595 1_555
Ag1 Se3 2.624595 1_555
Ag1 Se1 2.662469 1_555
Ag1 Se0 2.662469 1_555
Ag2 Se7 2.623798 1_455
Ag2 Se2 2.638998 1_565
Ag2 Se6 2.638998 1_565
Ag2 Se0 2.649160 1_455
Ag3 Se4 2.623799 1_545
Ag3 Se3 2.638998 1_655
Ag3 Se5 2.638998 1_655
Ag3 Se1 2.649160 1_545
Se0 Ta0 2.467273 1_555
Se1 Ta1 2.467274 1_555
Se2 Ta0 2.442324 1_555
Se3 Ta1 2.442324 1_555
Se4 Ta1 2.402177 1_555
Se5 Ta1 2.442324 1_555
Se6 Ta0 2.442324 1_555
Se7 Ta0 2.402177 1_555
