# generated using pymatgen
data_La5Sn4
_symmetry_space_group_name_H-M   'P 1'
_cell_length_a   8.55883866
_cell_length_b   8.65572372
_cell_length_c   16.33096697
_cell_angle_alpha   90.00000000
_cell_angle_beta   90.00000000
_cell_angle_gamma   90.00000000
_symmetry_Int_Tables_number   1
_chemical_formula_structural   La5Sn4
_chemical_formula_sum   'La20 Sn16'
_cell_volume   1209.84609199
_cell_formula_units_Z   4
loop_
 _symmetry_equiv_pos_site_id
 _symmetry_equiv_pos_as_xyz
  1  'x, y, z'
loop_
 _atom_site_type_symbol
 _atom_site_label
 _atom_site_symmetry_multiplicity
 _atom_site_fract_x
 _atom_site_fract_y
 _atom_site_fract_z
 _atom_site_occupancy
  La  La0  1  0.97295090  0.82024365  0.89895708  1
  La  La1  1  0.47295090  0.67975635  0.60104292  1
  La  La2  1  0.52704910  0.32024365  0.10104292  1
  La  La3  1  0.02704910  0.17975635  0.39895708  1
  La  La4  1  0.97295090  0.82024365  0.60104292  1
  La  La5  1  0.47295090  0.67975635  0.89895708  1
  La  La6  1  0.52704910  0.32024365  0.39895708  1
  La  La7  1  0.02704910  0.17975635  0.10104292  1
  La  La8  1  0.88086094  0.66131585  0.38302538  1
  La  La9  1  0.38086094  0.83868415  0.11697462  1
  La  La10  1  0.61913906  0.16131585  0.61697462  1
  La  La11  1  0.11913906  0.33868415  0.88302538  1
  La  La12  1  0.11913906  0.33868415  0.61697462  1
  La  La13  1  0.61913906  0.16131585  0.88302538  1
  La  La14  1  0.38086094  0.83868415  0.38302538  1
  La  La15  1  0.88086094  0.66131585  0.11697462  1
  La  La16  1  0.29062951  0.00353101  0.75000000  1
  La  La17  1  0.79062951  0.49646899  0.75000000  1
  La  La18  1  0.20937049  0.50353101  0.25000000  1
  La  La19  1  0.70937049  0.99646899  0.25000000  1
  Sn  Sn0  1  0.77885428  0.46842068  0.54408134  1
  Sn  Sn1  1  0.27885428  0.03157932  0.95591866  1
  Sn  Sn2  1  0.72114572  0.96842068  0.45591866  1
  Sn  Sn3  1  0.22114572  0.53157932  0.04408134  1
  Sn  Sn4  1  0.22114572  0.53157932  0.45591866  1
  Sn  Sn5  1  0.72114572  0.96842068  0.04408134  1
  Sn  Sn6  1  0.27885428  0.03157932  0.54408134  1
  Sn  Sn7  1  0.77885428  0.46842068  0.95591866  1
  Sn  Sn8  1  0.17235060  0.63747999  0.75000000  1
  Sn  Sn9  1  0.67235060  0.86252001  0.75000000  1
  Sn  Sn10  1  0.32764940  0.13747999  0.25000000  1
  Sn  Sn11  1  0.82764940  0.36252001  0.25000000  1
  Sn  Sn12  1  0.91734626  0.11158618  0.75000000  1
  Sn  Sn13  1  0.41734626  0.38841382  0.75000000  1
  Sn  Sn14  1  0.58265374  0.61158618  0.25000000  1
  Sn  Sn15  1  0.08265374  0.88841382  0.25000000  1
loop_
_geom_bond_atom_site_label_1
_geom_bond_atom_site_label_2
_geom_bond_distance
_geom_bond_site_symmetry_2
La0 Sn1 3.326620 1_665
La0 Sn8 3.366417 1_655
La0 Sn5 3.450611 1_556
La0 Sn12 3.536025 1_565
La0 Sn9 3.559601 1_555
La0 Sn7 3.591491 1_555
La0 La16 3.978352 1_665
La0 La17 4.025751 1_555
La0 Sn3 4.046290 1_656
La1 Sn0 3.326620 1_555
La1 Sn9 3.366417 1_555
La1 Sn4 3.450611 1_555
La1 Sn13 3.536025 1_555
La1 Sn8 3.559601 1_555
La1 Sn6 3.591491 1_565
La1 La17 3.978352 1_555
La1 La16 4.025751 1_565
La1 Sn2 4.046290 1_555
La2 Sn3 3.326620 1_555
La2 Sn10 3.366417 1_555
La2 Sn7 3.450611 1_554
La2 Sn14 3.536025 1_555
La2 Sn11 3.559601 1_555
La2 Sn5 3.591491 1_545
La2 Sn1 4.046290 1_554
La3 Sn2 3.326620 1_445
La3 Sn11 3.366417 1_455
La3 Sn6 3.450611 1_555
La3 Sn15 3.536025 1_545
La3 Sn10 3.559601 1_555
La3 Sn4 3.591491 1_555
La3 Sn0 4.046290 1_455
La4 Sn6 3.326620 1_665
La4 Sn8 3.366417 1_655
La4 Sn2 3.450611 1_555
La4 Sn12 3.536025 1_565
La4 Sn9 3.559601 1_555
La4 Sn0 3.591491 1_555
La4 Sn4 4.046290 1_655
La5 Sn7 3.326620 1_555
La5 Sn9 3.366417 1_555
La5 Sn3 3.450611 1_556
La5 Sn13 3.536025 1_555
La5 Sn8 3.559601 1_555
La5 Sn1 3.591491 1_565
La5 Sn5 4.046290 1_556
La6 Sn4 3.326620 1_555
La6 Sn10 3.366417 1_555
La6 Sn0 3.450611 1_555
La6 Sn14 3.536025 1_555
La6 Sn11 3.559601 1_555
La6 Sn2 3.591491 1_545
La6 Sn6 4.046290 1_555
La7 Sn5 3.326620 1_445
La7 Sn11 3.366417 1_455
La7 Sn1 3.450611 1_554
La7 Sn15 3.536025 1_545
La7 Sn10 3.559601 1_555
La7 Sn3 3.591491 1_555
La7 Sn7 4.046290 1_454
La8 Sn2 3.217425 1_555
La8 Sn0 3.235414 1_555
La8 Sn4 3.340728 1_655
La8 Sn14 3.379204 1_555
La8 Sn15 3.400933 1_655
La8 Sn11 3.408196 1_555
La9 Sn3 3.217425 1_555
La9 Sn1 3.235414 1_564
La9 Sn5 3.340728 1_555
La9 Sn15 3.379204 1_555
La9 Sn14 3.400933 1_555
La9 Sn10 3.408196 1_565
La10 Sn0 3.217425 1_555
La10 Sn2 3.235414 1_545
La10 Sn6 3.340728 1_555
La10 Sn12 3.379204 1_555
La10 Sn13 3.400933 1_555
La10 Sn9 3.408196 1_545
La10 La16 3.806593 1_555
La10 La17 3.910184 1_555
La11 Sn1 3.217425 1_555
La11 Sn3 3.235414 1_556
La11 Sn7 3.340728 1_455
La11 Sn13 3.379204 1_555
La11 Sn12 3.400933 1_455
La11 Sn8 3.408196 1_555
La11 La17 3.806593 1_455
La11 La16 3.910184 1_555
La12 Sn6 3.217425 1_555
La12 Sn4 3.235414 1_555
La12 Sn0 3.340728 1_455
La12 Sn13 3.379204 1_555
La12 Sn12 3.400933 1_455
La12 Sn8 3.408196 1_555
La12 La17 3.806593 1_455
La12 La16 3.910184 1_555
La13 Sn7 3.217425 1_555
La13 Sn5 3.235414 1_546
La13 Sn1 3.340728 1_555
La13 Sn12 3.379204 1_555
La13 Sn13 3.400933 1_555
La13 Sn9 3.408196 1_545
La13 La16 3.806593 1_555
La13 La17 3.910184 1_555
La14 Sn4 3.217425 1_555
La14 Sn6 3.235414 1_565
La14 Sn2 3.340728 1_555
La14 Sn15 3.379204 1_555
La14 Sn14 3.400933 1_555
La14 Sn10 3.408196 1_565
La14 La19 3.806593 1_555
La14 La18 3.910184 1_555
La15 Sn5 3.217425 1_555
La15 Sn7 3.235414 1_554
La15 Sn3 3.340728 1_655
La15 Sn14 3.379204 1_555
La15 Sn15 3.400933 1_655
La15 Sn11 3.408196 1_555
La15 La18 3.806593 1_655
La15 La19 3.910184 1_555
La16 Sn8 3.326229 1_545
La16 Sn12 3.328961 1_455
La16 Sn1 3.373109 1_555
La16 Sn6 3.373109 1_555
La16 Sn9 3.487638 1_545
La16 Sn13 3.503531 1_555
La16 La4 3.978352 1_445
La16 La5 4.025751 1_545
La17 Sn9 3.326229 1_555
La17 Sn13 3.328961 1_555
La17 Sn0 3.373109 1_555
La17 Sn7 3.373109 1_555
La17 Sn8 3.487638 1_655
La17 Sn12 3.503531 1_555
La17 La5 3.978352 1_555
La17 La4 4.025751 1_555
La18 Sn10 3.326229 1_555
La18 Sn14 3.328961 1_555
La18 Sn3 3.373109 1_555
La18 Sn4 3.373109 1_555
La18 Sn11 3.487638 1_455
La18 Sn15 3.503531 1_555
La18 La8 3.806593 1_455
La18 La9 3.910184 1_555
La18 La6 3.978352 1_555
La18 La2 3.978352 1_555
La18 La7 4.025751 1_555
La18 La3 4.025751 1_555
La19 Sn11 3.326229 1_565
La19 Sn15 3.328961 1_655
La19 Sn5 3.373109 1_555
La19 Sn2 3.373109 1_555
La19 Sn10 3.487638 1_565
La19 Sn14 3.503531 1_555
La19 La9 3.806593 1_555
La19 La8 3.910184 1_555
La19 La3 3.978352 1_665
La19 La7 3.978352 1_665
La19 La2 4.025751 1_565
La19 La6 4.025751 1_565
Sn10 Sn15 3.007421 1_545
Sn11 Sn14 3.007421 1_555
Sn12 Sn9 3.007421 1_545
Sn13 Sn8 3.007421 1_555
