# generated using pymatgen
data_Ti8Al6Si9Os7
_symmetry_space_group_name_H-M   'P 1'
_cell_length_a   8.47058419
_cell_length_b   8.47058384
_cell_length_c   8.47058391
_cell_angle_alpha   120.12860537
_cell_angle_beta   119.80629030
_cell_angle_gamma   90.05662099
_symmetry_Int_Tables_number   1
_chemical_formula_structural   Ti8Al6Si9Os7
_chemical_formula_sum   'Ti8 Al6 Si9 Os7'
_cell_volume   429.96604416
_cell_formula_units_Z   1
loop_
 _symmetry_equiv_pos_site_id
 _symmetry_equiv_pos_as_xyz
  1  'x, y, z'
loop_
 _atom_site_type_symbol
 _atom_site_label
 _atom_site_symmetry_multiplicity
 _atom_site_fract_x
 _atom_site_fract_y
 _atom_site_fract_z
 _atom_site_occupancy
  Ti  Ti0  1  0.79927128  0.29656281  0.08941528  1
  Ti  Ti1  1  0.20714853  0.29656281  0.49729253  1
  Ti  Ti2  1  0.20361492  0.70361492  0.50000000  1
  Ti  Ti3  1  0.20714853  0.70985600  0.91058472  1
  Ti  Ti4  1  0.79927128  0.70985600  0.50270747  1
  Ti  Ti5  1  0.79266216  0.29266216  0.50000000  1
  Ti  Ti6  1  0.37768620  0.12344444  0.74575824  1
  Ti  Ti7  1  0.37768620  0.63192896  0.25424176  1
  Al  Al0  1  0.38128200  0.12009965  0.26118335  1
  Al  Al1  1  0.85891831  0.12009965  0.73881665  1
  Al  Al2  1  0.62046137  0.88052722  0.26006585  1
  Al  Al3  1  0.62046137  0.36039652  0.73993415  1
  Al  Al4  1  0.62255600  0.87871102  0.74384398  1
  Al  Al5  1  0.13486604  0.87871102  0.25615602  1
  Si  Si0  1  0.99895149  0.49895149  0.50000000  1
  Si  Si1  1  0.15566063  0.34251560  0.18685597  1
  Si  Si2  1  0.15566063  0.96880467  0.81314403  1
  Si  Si3  1  0.15115969  0.34610057  0.80506012  1
  Si  Si4  1  0.54103944  0.34610057  0.19493988  1
  Si  Si5  1  0.84431607  0.65488452  0.81056846  1
  Si  Si6  1  0.84431607  0.03374761  0.18943154  1
  Si  Si7  1  0.84305230  0.65564134  0.18740996  1
  Si  Si8  1  0.46823139  0.65564134  0.81259004  1
  Os  Os0  1  0.99925629  0.99947754  0.49938601  1
  Os  Os1  1  0.50009153  0.99947754  0.00022025  1
  Os  Os2  1  0.50000105  0.50000105  1.00000000  1
  Os  Os3  1  0.50009153  0.49987128  0.50061399  1
  Os  Os4  1  0.99925629  0.49987128  0.99977975  1
  Os  Os5  1  0.00049521  0.00049521  0.00000000  1
  Os  Os6  1  0.49538423  0.99538423  0.50000000  1
loop_
_geom_bond_atom_site_label_1
_geom_bond_atom_site_label_2
_geom_bond_distance
_geom_bond_site_symmetry_2
Al0 Os6 2.519124 1_545
Al0 Os3 2.624759 1_555
Al0 Os1 2.624766 1_545
Al0 Os5 2.640843 1_555
Al0 Si1 2.756806 1_555
Al0 Si2 2.756817 1_544
Al0 Si4 2.763875 1_555
Al0 Al3 2.868924 1_555
Al0 Al2 2.868930 1_545
Al0 Ti1 2.888917 1_555
Al0 Ti3 2.888925 1_544
Al0 Al5 2.890533 1_545
Al0 Ti5 2.895714 1_555
Al1 Os6 2.519138 1_545
Al1 Os0 2.624738 1_545
Al1 Os4 2.624758 1_555
Al1 Os5 2.640849 1_656
Al1 Si2 2.756804 1_645
Al1 Si1 2.756814 1_656
Al1 Si3 2.763855 1_655
Al1 Al2 2.868924 1_545
Al1 Al3 2.868942 1_555
Al1 Ti4 2.888923 1_545
Al1 Ti0 2.888937 1_556
Al1 Al4 2.890539 1_545
Al1 Ti5 2.895704 1_555
Al2 Os6 2.521367 1_555
Al2 Os0 2.626156 1_555
Al2 Os1 2.626164 1_555
Al2 Os2 2.629488 1_554
Al2 Si6 2.745993 1_565
Al2 Si8 2.747039 1_554
Al2 Si7 2.747045 1_555
Al2 Ti5 2.892333 1_565
Al2 Ti7 2.907229 1_555
Al2 Ti3 2.915620 1_554
Al2 Ti4 2.915621 1_555
Al3 Os6 2.521374 1_545
Al3 Os3 2.626156 1_555
Al3 Os4 2.626156 1_555
Al3 Os2 2.629488 1_555
Al3 Si5 2.745987 1_555
Al3 Si8 2.747032 1_555
Al3 Si7 2.747037 1_556
Al3 Ti5 2.892332 1_555
Al3 Ti6 2.907241 1_555
Al3 Ti1 2.915618 1_555
Al3 Ti0 2.915632 1_556
Al4 Os6 2.498561 1_555
Al4 Os3 2.617268 1_555
Al4 Os1 2.617275 1_556
Al4 Os5 2.619500 1_666
Al4 Si5 2.733109 1_555
Al4 Si6 2.733114 1_566
Al4 Si8 2.733991 1_555
Al4 Ti4 2.927362 1_555
Al4 Ti0 2.927363 1_566
Al4 Ti7 2.933966 1_555
Al4 Ti6 2.933972 1_565
Al4 Ti2 2.947297 1_555
Al5 Os6 2.498568 1_555
Al5 Os4 2.617268 1_454
Al5 Os0 2.617268 1_455
Al5 Os5 2.619506 1_565
Al5 Si6 2.733107 1_465
Al5 Si5 2.733112 1_454
Al5 Si7 2.733972 1_455
Al5 Ti1 2.927361 1_565
Al5 Ti3 2.927376 1_554
Al5 Ti6 2.933966 1_565
Al5 Ti7 2.933966 1_555
Al5 Ti2 2.947289 1_555
Si0 Ti2 2.450495 1_655
Si0 Ti0 2.460959 1_555
Si0 Ti3 2.460959 1_655
Si0 Ti4 2.460959 1_555
Si0 Ti1 2.460965 1_655
Si0 Ti5 2.469963 1_555
Si1 Ti1 2.672855 1_555
Si1 Ti0 2.672855 1_455
Si1 Ti2 2.708909 1_555
Si1 Ti7 2.718747 1_555
Si2 Ti4 2.672855 1_455
Si2 Ti3 2.672855 1_555
Si2 Ti2 2.708904 1_555
Si2 Ti6 2.718734 1_565
Si3 Ti5 2.669409 1_455
Si3 Ti3 2.707145 1_555
Si3 Ti1 2.707148 1_555
Si3 Ti7 2.739622 1_556
Si3 Ti6 2.739627 1_555
Si4 Ti5 2.669418 1_555
Si4 Ti4 2.707147 1_555
Si4 Ti0 2.707153 1_555
Si4 Ti6 2.739622 1_554
Si4 Ti7 2.739622 1_555
Si5 Ti5 2.697439 1_555
Si5 Ti4 2.719008 1_555
Si5 Ti3 2.719008 1_655
Si6 Ti5 2.697439 1_555
Si6 Ti0 2.719000 1_555
Si6 Ti1 2.719005 1_655
Si7 Ti4 2.689810 1_555
Si7 Ti0 2.689813 1_555
Si7 Ti2 2.716975 1_655
Si8 Ti3 2.689805 1_555
Si8 Ti1 2.689810 1_555
Si8 Ti2 2.716981 1_555
Os0 Si7 2.450829 1_555
Os0 Si3 2.455427 1_665
Os0 Si6 2.457691 1_565
Os0 Si2 2.465689 1_655
Os0 Ti6 2.622255 1_665
Os1 Si8 2.450829 1_554
Os1 Si4 2.455429 1_565
Os1 Si6 2.457691 1_565
Os1 Si2 2.465689 1_554
Os1 Ti6 2.622248 1_564
Os2 Si8 2.451035 1_555
Os2 Si7 2.451042 1_556
Os2 Si4 2.477531 1_556
Os2 Si3 2.477537 1_555
Os2 Ti6 2.600897 1_555
Os2 Ti7 2.600897 1_556
Os3 Si8 2.450829 1_555
Os3 Si4 2.455422 1_555
Os3 Si5 2.457691 1_555
Os3 Si1 2.465689 1_555
Os3 Ti7 2.622255 1_555
Os4 Si7 2.450815 1_556
Os4 Si3 2.455427 1_655
Os4 Si5 2.457690 1_555
Os4 Si1 2.465699 1_656
Os4 Ti7 2.622255 1_656
Os5 Si1 2.438646 1_555
Os5 Si2 2.438654 1_544
Os5 Si5 2.462020 1_444
Os5 Si6 2.462021 1_455
Os6 Ti7 2.510499 1_555
Os6 Ti6 2.510506 1_565
