# generated using pymatgen
data_AlFe(NiPt2)2
_symmetry_space_group_name_H-M   'P 1'
_cell_length_a   3.87979316
_cell_length_b   3.87979316
_cell_length_c   7.19597533
_cell_angle_alpha   90.00000000
_cell_angle_beta   90.00000000
_cell_angle_gamma   90.00000000
_symmetry_Int_Tables_number   1
_chemical_formula_structural   AlFe(NiPt2)2
_chemical_formula_sum   'Al1 Fe1 Ni2 Pt4'
_cell_volume   108.31954142
_cell_formula_units_Z   1
loop_
 _symmetry_equiv_pos_site_id
 _symmetry_equiv_pos_as_xyz
  1  'x, y, z'
loop_
 _atom_site_type_symbol
 _atom_site_label
 _atom_site_symmetry_multiplicity
 _atom_site_fract_x
 _atom_site_fract_y
 _atom_site_fract_z
 _atom_site_occupancy
  Al  Al0  1  0.00000000  0.00000000  0.00000000  1
  Fe  Fe0  1  0.00000000  0.00000000  0.50000000  1
  Ni  Ni0  1  0.50000000  0.50000000  0.00000000  1
  Ni  Ni1  1  0.50000000  0.50000000  0.50000000  1
  Pt  Pt0  1  0.50000000  0.00000000  0.24946236  1
  Pt  Pt1  1  0.50000000  0.00000000  0.75053764  1
  Pt  Pt2  1  0.00000000  0.50000000  0.24946236  1
  Pt  Pt3  1  0.00000000  0.50000000  0.75053764  1
loop_
_geom_bond_atom_site_label_1
_geom_bond_atom_site_label_2
_geom_bond_distance
_geom_bond_site_symmetry_2
Al0 Pt0 2.643042 1_455
Al0 Pt0 2.643042 1_555
Al0 Pt2 2.643042 1_555
Al0 Pt2 2.643042 1_545
Al0 Pt1 2.643042 1_454
Al0 Pt3 2.643042 1_544
Al0 Pt1 2.643042 1_554
Al0 Pt3 2.643042 1_554
Al0 Ni0 2.743428 1_455
Al0 Ni0 2.743428 1_555
Al0 Ni0 2.743428 1_445
Al0 Ni0 2.743428 1_545
Fe0 Pt3 2.648304 1_555
Fe0 Pt1 2.648304 1_555
Fe0 Pt1 2.648304 1_455
Fe0 Pt3 2.648304 1_545
Fe0 Pt0 2.648304 1_555
Fe0 Pt2 2.648304 1_555
Fe0 Pt2 2.648304 1_545
Fe0 Pt0 2.648304 1_455
Fe0 Ni1 2.743428 1_445
Fe0 Ni1 2.743428 1_545
Fe0 Ni1 2.743428 1_455
Fe0 Ni1 2.743428 1_555
Ni0 Pt0 2.643042 1_555
Ni0 Pt2 2.643042 1_555
Ni0 Pt2 2.643042 1_655
Ni0 Pt0 2.643042 1_565
Ni0 Pt3 2.643042 1_654
Ni0 Pt1 2.643042 1_564
Ni0 Pt1 2.643042 1_554
Ni0 Pt3 2.643042 1_554
Ni1 Pt3 2.648304 1_555
Ni1 Pt1 2.648304 1_555
Ni1 Pt3 2.648304 1_655
Ni1 Pt1 2.648304 1_565
Ni1 Pt0 2.648304 1_555
Ni1 Pt2 2.648304 1_555
Ni1 Pt2 2.648304 1_655
Ni1 Pt0 2.648304 1_565
