# generated using pymatgen
data_Ba2NaAlAs3
_symmetry_space_group_name_H-M   'P 1'
_cell_length_a   8.63091721
_cell_length_b   8.63091687
_cell_length_c   12.43832479
_cell_angle_alpha   75.79171049
_cell_angle_beta   75.79171092
_cell_angle_gamma   67.50378255
_symmetry_Int_Tables_number   1
_chemical_formula_structural   Ba2NaAlAs3
_chemical_formula_sum   'Ba8 Na4 Al4 As12'
_cell_volume   817.90680200
_cell_formula_units_Z   4
loop_
 _symmetry_equiv_pos_site_id
 _symmetry_equiv_pos_as_xyz
  1  'x, y, z'
loop_
 _atom_site_type_symbol
 _atom_site_label
 _atom_site_symmetry_multiplicity
 _atom_site_fract_x
 _atom_site_fract_y
 _atom_site_fract_z
 _atom_site_occupancy
  Ba  Ba0  1  0.74537042  0.19492401  0.68592648  1
  Ba  Ba1  1  0.25462958  0.80507599  0.31407352  1
  Ba  Ba2  1  0.19492401  0.74537042  0.68592648  1
  Ba  Ba3  1  0.50000000  0.00000000  0.50000000  1
  Ba  Ba4  1  0.80507599  0.25462958  0.31407352  1
  Ba  Ba5  1  0.00000000  0.50000000  0.00000000  1
  Ba  Ba6  1  0.50000000  0.00000000  0.00000000  1
  Ba  Ba7  1  0.00000000  0.50000000  0.50000000  1
  Na  Na0  1  0.29256321  0.70743679  0.00000000  1
  Na  Na1  1  0.35885476  0.35885476  0.22020559  1
  Na  Na2  1  0.64114524  0.64114524  0.77979441  1
  Na  Na3  1  0.70743679  0.29256321  0.00000000  1
  Al  Al0  1  0.69813204  0.69813204  0.25940984  1
  Al  Al1  1  0.09210083  0.09210083  0.88392837  1
  Al  Al2  1  0.90789917  0.90789917  0.11607163  1
  Al  Al3  1  0.30186796  0.30186796  0.74059016  1
  As  As0  1  0.01722786  0.61565209  0.22655257  1
  As  As1  1  0.58785286  0.58785286  0.13469655  1
  As  As2  1  0.98277214  0.38434791  0.77344743  1
  As  As3  1  0.08944543  0.08944543  0.48603361  1
  As  As4  1  0.59060035  0.59060035  0.47998060  1
  As  As5  1  0.91558213  0.91558213  0.90948963  1
  As  As6  1  0.08441787  0.08441787  0.09051037  1
  As  As7  1  0.41214714  0.41214714  0.86530345  1
  As  As8  1  0.61565209  0.01722786  0.22655257  1
  As  As9  1  0.91055457  0.91055457  0.51396639  1
  As  As10  1  0.38434791  0.98277214  0.77344743  1
  As  As11  1  0.40939965  0.40939965  0.52001940  1
loop_
_geom_bond_atom_site_label_1
_geom_bond_atom_site_label_2
_geom_bond_distance
_geom_bond_site_symmetry_2
Al0 As8 2.519677 1_565
Al0 As0 2.519677 1_655
Al0 As1 2.522110 1_555
Al0 As4 2.721938 1_555
Al0 Ba4 3.506178 1_555
Al0 Ba1 3.506178 1_555
Al1 As5 2.458445 1_445
Al1 As2 2.500947 1_455
Al1 As10 2.500947 1_545
Al1 As6 2.539169 1_556
Al1 Na0 3.252360 1_546
Al1 Na3 3.252360 1_456
Al2 As6 2.458445 1_665
Al2 As0 2.500947 1_655
Al2 As8 2.500947 1_565
Al2 As5 2.539169 1_554
Al2 Na3 3.252360 1_565
Al2 Na0 3.252360 1_655
Al3 As10 2.519677 1_545
Al3 As2 2.519677 1_455
Al3 As7 2.522110 1_555
Al3 As11 2.721938 1_555
Al3 Ba2 3.506178 1_555
Al3 Ba0 3.506178 1_555
As0 Na1 2.929717 1_555
As0 Ba5 3.264858 1_555
As0 Ba7 3.284134 1_555
As0 Na0 3.357536 1_555
As0 Ba1 3.548030 1_555
As1 Na3 3.098706 1_555
As1 Na0 3.098706 1_555
As1 Na1 3.141581 1_555
As1 Ba4 3.397311 1_555
As1 Ba1 3.397311 1_555
As1 Ba6 3.416077 1_565
As1 Ba5 3.416077 1_655
As2 Na2 2.929717 1_555
As2 Ba5 3.264858 1_656
As2 Ba7 3.284134 1_655
As2 Na3 3.357536 1_556
As2 Ba0 3.548030 1_555
As3 As9 2.487195 1_445
As3 Ba1 3.321710 1_545
As3 Ba4 3.321710 1_455
As3 Ba2 3.353706 1_545
As3 Ba0 3.353706 1_455
As3 Ba7 3.365304 1_555
As3 Ba3 3.365304 1_555
As4 Ba3 3.373570 1_565
As4 Ba7 3.373570 1_655
As4 Ba4 3.612229 1_555
As4 Ba1 3.612229 1_555
As4 Ba0 3.728713 1_555
As4 Ba2 3.728713 1_555
As5 Ba5 3.329311 1_656
As5 Ba6 3.329311 1_566
As5 Na3 3.378402 1_566
As5 Na0 3.378402 1_656
As5 Ba0 3.421609 1_565
As5 Ba2 3.421609 1_655
As6 Ba5 3.329311 1_555
As6 Ba6 3.329311 1_555
As6 Na0 3.378402 1_545
As6 Na3 3.378402 1_455
As6 Ba1 3.421609 1_545
As6 Ba4 3.421609 1_455
As7 Na0 3.098706 1_556
As7 Na3 3.098706 1_556
As7 Na2 3.141581 1_555
As7 Ba2 3.397311 1_555
As7 Ba0 3.397311 1_555
As7 Ba6 3.416077 1_556
As7 Ba5 3.416077 1_556
As8 Na1 2.929716 1_555
As8 Ba6 3.264858 1_555
As8 Ba3 3.284134 1_555
As8 Na3 3.357536 1_555
As8 Ba4 3.548030 1_555
As9 Ba0 3.321710 1_565
As9 Ba2 3.321710 1_655
As9 Ba4 3.353706 1_565
As9 Ba1 3.353706 1_655
As9 Ba7 3.365304 1_655
As9 Ba3 3.365304 1_565
As10 Na2 2.929716 1_555
As10 Ba6 3.264858 1_566
As10 Ba3 3.284134 1_565
As10 Na0 3.357536 1_556
As10 Ba2 3.548030 1_555
As11 As4 2.499355 1_555
As11 Ba3 3.373570 1_555
As11 Ba7 3.373570 1_555
As11 Ba2 3.612229 1_555
As11 Ba0 3.612229 1_555
As11 Ba1 3.728713 1_555
As11 Ba4 3.728713 1_555
