# generated using pymatgen
data_IrPdPb2O7
_symmetry_space_group_name_H-M   'P 1'
_cell_length_a   7.27756318
_cell_length_b   7.29416590
_cell_length_c   7.29416568
_cell_angle_alpha   60.15239738
_cell_angle_beta   60.07526174
_cell_angle_gamma   60.07526589
_symmetry_Int_Tables_number   1
_chemical_formula_structural   IrPdPb2O7
_chemical_formula_sum   'Ir2 Pd2 Pb4 O14'
_cell_volume   274.41901980
_cell_formula_units_Z   2
loop_
 _symmetry_equiv_pos_site_id
 _symmetry_equiv_pos_as_xyz
  1  'x, y, z'
loop_
 _atom_site_type_symbol
 _atom_site_label
 _atom_site_symmetry_multiplicity
 _atom_site_fract_x
 _atom_site_fract_y
 _atom_site_fract_z
 _atom_site_occupancy
  Ir  Ir0  1  0.62500000  0.12500000  0.62500000  1
  Ir  Ir1  1  0.62500000  0.62500000  0.12500000  1
  Pd  Pd0  1  0.12500000  0.62500000  0.62500000  1
  Pd  Pd1  1  0.62500000  0.62500000  0.62500000  1
  Pb  Pb0  1  0.62500000  0.12500000  0.12500000  1
  Pb  Pb1  1  0.12500000  0.62500000  0.12500000  1
  Pb  Pb2  1  0.12500000  0.12500000  0.62500000  1
  Pb  Pb3  1  0.12500000  0.12500000  0.12500000  1
  O  O0  1  0.70555669  0.70626190  0.29056724  1
  O  O1  1  0.29761417  0.29056724  0.70626190  1
  O  O2  1  0.70555669  0.29056724  0.70626190  1
  O  O3  1  0.29761417  0.70626190  0.29056724  1
  O  O4  1  0.29350731  0.70649269  0.70649269  1
  O  O5  1  0.70557323  0.29442677  0.29442677  1
  O  O6  1  0.54444331  0.54373810  0.95943276  1
  O  O7  1  0.95238583  0.95943276  0.54373810  1
  O  O8  1  0.54444331  0.95943276  0.54373810  1
  O  O9  1  0.95238583  0.54373810  0.95943276  1
  O  O10  1  0.95649269  0.54350731  0.54350731  1
  O  O11  1  0.54442677  0.95557323  0.95557323  1
  O  O12  1  0.24576523  0.25423477  0.25423477  1
  O  O13  1  0.00423477  0.99576523  0.99576523  1
loop_
_geom_bond_atom_site_label_1
_geom_bond_atom_site_label_2
_geom_bond_distance
_geom_bond_site_symmetry_2
Ir0 O1 1.979684 1_555
Ir0 O7 1.979684 1_545
Ir0 O2 1.979684 1_555
Ir0 O8 1.979684 1_545
Ir0 O11 2.007842 1_545
Ir0 O5 2.007842 1_555
Ir1 O9 1.979684 1_554
Ir1 O3 1.979684 1_555
Ir1 O0 1.979684 1_555
Ir1 O6 1.979684 1_554
Ir1 O11 2.007842 1_554
Ir1 O5 2.007842 1_555
O0 Pd1 2.031336 1_555
O0 Pb1 2.521302 1_655
O0 Pb0 2.525746 1_565
O1 Pd0 2.031336 1_555
O1 Pb2 2.521302 1_555
O1 Pb3 2.525746 1_556
O2 Pd1 2.031336 1_555
O2 Pb2 2.521302 1_655
O2 Pb0 2.525746 1_556
O3 Pd0 2.031336 1_555
O3 Pb1 2.521302 1_555
O3 Pb3 2.525746 1_565
O4 Pd1 2.004204 1_555
O4 Pd0 2.004204 1_555
O4 Pb1 2.522303 1_556
O4 Pb2 2.522303 1_565
O5 Pb3 2.522820 1_655
O5 Pb0 2.522820 1_555
O6 Pd1 2.031336 1_555
O6 Pb1 2.521302 1_556
O6 Pb0 2.525746 1_556
O7 Pd0 2.031336 1_655
O7 Pb2 2.521302 1_665
O7 Pb3 2.525746 1_665
O8 Pd1 2.031336 1_555
O8 Pb2 2.521302 1_565
O8 Pb0 2.525746 1_565
O9 Pd0 2.031336 1_655
O9 Pb1 2.521302 1_656
O9 Pb3 2.525746 1_656
O10 Pd1 2.004204 1_555
O10 Pd0 2.004204 1_655
O10 Pb1 2.522303 1_655
O10 Pb2 2.522303 1_655
O11 Pb3 2.522820 1_566
O11 Pb0 2.522820 1_566
O12 Pb2 2.211897 1_555
O12 Pb1 2.211897 1_555
O12 Pb0 2.255514 1_555
O12 Pb3 2.255514 1_555
O13 Pb2 2.211897 1_565
O13 Pb1 2.211897 1_556
O13 Pb0 2.255514 1_466
O13 Pb3 2.255514 1_566
