# generated using pymatgen
data_Hf12Ti4Mn7Ir
_symmetry_space_group_name_H-M   'P 1'
_cell_length_a   8.49256982
_cell_length_b   8.49256957
_cell_length_c   8.47661891
_cell_angle_alpha   59.93773402
_cell_angle_beta   59.93773401
_cell_angle_gamma   60.00000080
_symmetry_Int_Tables_number   1
_chemical_formula_structural   Hf12Ti4Mn7Ir
_chemical_formula_sum   'Hf12 Ti4 Mn7 Ir1'
_cell_volume   431.89335754
_cell_formula_units_Z   1
loop_
 _symmetry_equiv_pos_site_id
 _symmetry_equiv_pos_as_xyz
  1  'x, y, z'
loop_
 _atom_site_type_symbol
 _atom_site_label
 _atom_site_symmetry_multiplicity
 _atom_site_fract_x
 _atom_site_fract_y
 _atom_site_fract_z
 _atom_site_occupancy
  Hf  Hf0  1  0.43361000  0.81526754  0.81751246  1
  Hf  Hf1  1  0.81728647  0.43131071  0.43411636  1
  Hf  Hf2  1  0.81526754  0.43361000  0.81751246  1
  Hf  Hf3  1  0.43131071  0.81728647  0.43411636  1
  Hf  Hf4  1  0.81728647  0.81728647  0.43411636  1
  Hf  Hf5  1  0.43361000  0.43361000  0.81751246  1
  Hf  Hf6  1  0.56702473  0.18280474  0.18314580  1
  Hf  Hf7  1  0.18262813  0.56919908  0.56554465  1
  Hf  Hf8  1  0.18280474  0.56702473  0.18314580  1
  Hf  Hf9  1  0.56919908  0.18262813  0.56554465  1
  Hf  Hf10  1  0.18262813  0.18262813  0.56554465  1
  Hf  Hf11  1  0.56702473  0.56702473  0.18314580  1
  Ti  Ti0  1  0.99936561  0.99936561  0.50190417  1
  Ti  Ti1  1  0.99895978  0.50415427  0.99792617  1
  Ti  Ti2  1  0.50415427  0.99895978  0.99792617  1
  Ti  Ti3  1  0.99895978  0.99895978  0.99792617  1
  Mn  Mn0  1  0.20820678  0.87403859  0.20954586  1
  Mn  Mn1  1  0.87403859  0.20820678  0.20954586  1
  Mn  Mn2  1  0.20820678  0.20820678  0.20954586  1
  Mn  Mn3  1  0.79155106  0.79155106  0.12534881  1
  Mn  Mn4  1  0.78990423  0.12821740  0.79197614  1
  Mn  Mn5  1  0.12821740  0.78990423  0.79197614  1
  Mn  Mn6  1  0.78990423  0.78990423  0.79197614  1
  Ir  Ir0  1  0.20885076  0.20885076  0.87344773  1
loop_
_geom_bond_atom_site_label_1
_geom_bond_atom_site_label_2
_geom_bond_distance
_geom_bond_site_symmetry_2
Hf0 Mn5 2.826248 1_555
Hf0 Mn6 2.826265 1_555
Hf0 Mn0 3.047892 1_556
Hf0 Ir0 3.056419 1_565
Hf0 Ti2 3.061715 1_555
Hf0 Ti3 3.061715 1_455
Hf0 Hf11 3.149195 1_556
Hf0 Hf8 3.149195 1_556
Hf0 Hf9 3.173889 1_565
Hf0 Hf10 3.173889 1_565
Hf0 Hf5 3.241253 1_555
Hf0 Hf2 3.241253 1_555
Hf0 Hf3 3.251147 1_555
Hf0 Hf4 3.251148 1_555
Hf1 Mn4 2.819659 1_555
Hf1 Mn3 2.853046 1_555
Hf1 Mn2 3.037613 1_655
Hf1 Mn1 3.037621 1_555
Hf1 Ti0 3.046943 1_545
Hf1 Ti1 3.062925 1_554
Hf1 Hf9 3.143448 1_555
Hf1 Hf10 3.143448 1_655
Hf1 Hf11 3.161508 1_555
Hf1 Hf8 3.161508 1_655
Hf1 Hf2 3.251147 1_555
Hf1 Hf5 3.251148 1_555
Hf1 Hf4 3.277926 1_555
Hf1 Hf3 3.277926 1_555
Hf2 Mn4 2.826248 1_555
Hf2 Mn6 2.826265 1_555
Hf2 Mn1 3.047892 1_556
Hf2 Ir0 3.056419 1_655
Hf2 Ti1 3.061715 1_555
Hf2 Ti3 3.061715 1_545
Hf2 Hf6 3.149195 1_556
Hf2 Hf7 3.173889 1_655
Hf2 Hf5 3.241253 1_555
Hf2 Hf4 3.251148 1_555
Hf3 Mn5 2.819659 1_555
Hf3 Mn3 2.853046 1_555
Hf3 Mn2 3.037613 1_565
Hf3 Mn0 3.037621 1_555
Hf3 Ti0 3.046943 1_455
Hf3 Ti2 3.062925 1_554
Hf3 Hf7 3.143448 1_555
Hf3 Hf6 3.161508 1_565
Hf3 Hf5 3.251148 1_555
Hf3 Hf4 3.277926 1_555
Hf4 Mn6 2.819666 1_555
Hf4 Mn3 2.853036 1_555
Hf4 Mn1 3.037607 1_565
Hf4 Mn0 3.037607 1_655
Hf4 Ti0 3.046950 1_555
Hf4 Ti3 3.062925 1_554
Hf4 Hf9 3.143448 1_565
Hf4 Hf7 3.143448 1_655
Hf4 Hf8 3.161508 1_655
Hf4 Hf6 3.161508 1_565
Hf5 Mn5 2.826258 1_555
Hf5 Mn4 2.826258 1_555
Hf5 Mn2 3.047899 1_556
Hf5 Ir0 3.056419 1_555
Hf5 Ti2 3.061715 1_545
Hf5 Ti1 3.061715 1_455
Hf5 Hf8 3.149195 1_556
Hf5 Hf6 3.149195 1_556
Hf5 Hf9 3.173889 1_555
Hf5 Hf7 3.173889 1_555
Hf6 Mn1 2.844335 1_555
Hf6 Mn2 2.844352 1_555
Hf6 Mn4 3.027662 1_554
Hf6 Mn3 3.045614 1_545
Hf6 Ti2 3.052416 1_544
Hf6 Ti3 3.052417 1_544
Hf6 Hf9 3.249986 1_555
Hf6 Hf8 3.263015 1_555
Hf7 Mn0 2.816793 1_555
Hf7 Ir0 2.850512 1_555
Hf7 Ti0 3.039780 1_455
Hf7 Mn6 3.043078 1_455
Hf7 Mn5 3.043086 1_555
Hf7 Ti1 3.045800 1_455
Hf7 Hf8 3.249986 1_555
Hf7 Hf9 3.282981 1_555
Hf8 Mn0 2.844335 1_555
Hf8 Mn2 2.844352 1_555
Hf8 Mn5 3.027662 1_554
Hf8 Mn3 3.045614 1_455
Hf8 Ti1 3.052416 1_454
Hf8 Ti3 3.052417 1_454
Hf9 Mn1 2.816793 1_555
Hf9 Ir0 2.850512 1_555
Hf9 Ti0 3.039780 1_545
Hf9 Mn6 3.043078 1_545
Hf9 Mn4 3.043086 1_555
Hf9 Ti2 3.045800 1_545
Hf10 Mn2 2.816800 1_555
Hf10 Ir0 2.850512 1_555
Hf10 Ti0 3.039773 1_445
Hf10 Mn5 3.043072 1_545
Hf10 Mn4 3.043072 1_455
Hf10 Ti3 3.045800 1_445
Hf10 Hf3 3.143448 1_545
Hf10 Hf2 3.173889 1_455
Hf10 Hf8 3.249986 1_555
Hf10 Hf6 3.249986 1_555
Hf10 Hf7 3.282981 1_555
Hf10 Hf9 3.282981 1_555
Hf11 Mn1 2.844345 1_555
Hf11 Mn0 2.844345 1_555
Hf11 Mn6 3.027668 1_554
Hf11 Mn3 3.045629 1_555
Hf11 Ti2 3.052416 1_554
Hf11 Ti1 3.052417 1_554
Hf11 Hf2 3.149195 1_554
Hf11 Hf3 3.161508 1_555
Hf11 Hf9 3.249986 1_555
Hf11 Hf7 3.249986 1_555
Hf11 Hf6 3.263015 1_555
Hf11 Hf8 3.263015 1_555
Mn0 Ti0 2.602174 1_455
Mn0 Ti3 2.627350 1_454
Mn0 Ti2 2.627364 1_554
Mn0 Mn2 2.837947 1_565
Mn0 Mn1 2.837947 1_465
Mn1 Ti0 2.602174 1_545
Mn1 Ti3 2.627350 1_544
Mn1 Ti1 2.627364 1_554
Mn1 Mn2 2.837947 1_655
Mn2 Ti0 2.602160 1_445
Mn2 Ti2 2.627355 1_544
Mn2 Ti1 2.627355 1_454
Mn3 Ti3 2.581149 1_554
Mn3 Ti1 2.581163 1_554
Mn3 Ti2 2.581163 1_554
Mn3 Mn6 2.839954 1_554
Mn3 Mn4 2.839954 1_564
Mn3 Mn5 2.839954 1_654
Mn4 Ti3 2.577049 1_545
Mn4 Ti2 2.577062 1_545
Mn4 Ti0 2.602814 1_545
Mn4 Mn6 2.873148 1_545
Mn4 Mn5 2.873148 1_645
Mn5 Ti3 2.577049 1_455
Mn5 Ti1 2.577062 1_455
Mn5 Ti0 2.602814 1_455
Mn5 Mn6 2.873148 1_455
Mn6 Ti2 2.577053 1_555
Mn6 Ti1 2.577053 1_555
Mn6 Ti0 2.602809 1_555
Ir0 Ti1 2.622343 1_455
Ir0 Ti3 2.622343 1_445
Ir0 Ti2 2.622343 1_545
Ir0 Mn2 2.843507 1_556
Ir0 Mn0 2.843515 1_546
Ir0 Mn1 2.843515 1_456
