# generated using pymatgen
data_TlBiS2
_symmetry_space_group_name_H-M   'P 1'
_cell_length_a   7.45179761
_cell_length_b   7.45179761
_cell_length_c   7.45179761
_cell_angle_alpha   132.87942980
_cell_angle_beta   132.87942980
_cell_angle_gamma   68.84355961
_symmetry_Int_Tables_number   1
_chemical_formula_structural   TlBiS2
_chemical_formula_sum   'Tl2 Bi2 S4'
_cell_volume   218.14332973
_cell_formula_units_Z   2
loop_
 _symmetry_equiv_pos_site_id
 _symmetry_equiv_pos_as_xyz
  1  'x, y, z'
loop_
 _atom_site_type_symbol
 _atom_site_label
 _atom_site_symmetry_multiplicity
 _atom_site_fract_x
 _atom_site_fract_y
 _atom_site_fract_z
 _atom_site_occupancy
  Tl  Tl0  1  0.00000000  0.00000000  0.00000000  1
  Tl  Tl1  1  0.75000000  0.25000000  0.50000000  1
  Bi  Bi0  1  0.25000000  0.75000000  0.50000000  1
  Bi  Bi1  1  0.50000000  0.50000000  0.00000000  1
  S  S0  1  0.72777300  0.72777300  0.00000000  1
  S  S1  1  0.27222700  0.27222700  0.00000000  1
  S  S2  1  0.02222700  0.52222700  0.50000000  1
  S  S3  1  0.47777300  0.97777300  0.50000000  1
loop_
_geom_bond_atom_site_label_1
_geom_bond_atom_site_label_2
_geom_bond_distance
_geom_bond_site_symmetry_2
Bi0 S2 2.800231 1_555
Bi0 S3 2.800231 1_555
Bi0 S1 2.991094 1_555
Bi0 S0 2.991094 1_556
Bi0 S0 2.991094 1_455
Bi0 S1 2.991094 1_566
Bi1 S1 2.800231 1_555
Bi1 S0 2.800231 1_555
Bi1 S2 2.991094 1_554
Bi1 S3 2.991094 1_555
Bi1 S3 2.991094 1_544
Bi1 S2 2.991094 1_655
S0 Tl1 2.991094 1_565
S0 Tl1 2.991094 1_554
S1 Tl1 2.991094 1_454
S1 Tl1 2.991094 1_555
S2 Tl0 2.991094 1_566
S2 Tl0 2.991094 1_555
S3 Tl0 2.991094 1_565
S3 Tl0 2.991094 1_666
