# generated using pymatgen
data_Rb3VIrBr9
_symmetry_space_group_name_H-M   'P 1'
_cell_length_a   7.46018777
_cell_length_b   7.46018834
_cell_length_c   18.55418412
_cell_angle_alpha   90.00000000
_cell_angle_beta   90.00000000
_cell_angle_gamma   119.99999744
_symmetry_Int_Tables_number   1
_chemical_formula_structural   Rb3VIrBr9
_chemical_formula_sum   'Rb6 V2 Ir2 Br18'
_cell_volume   894.27698777
_cell_formula_units_Z   2
loop_
 _symmetry_equiv_pos_site_id
 _symmetry_equiv_pos_as_xyz
  1  'x, y, z'
loop_
 _atom_site_type_symbol
 _atom_site_label
 _atom_site_symmetry_multiplicity
 _atom_site_fract_x
 _atom_site_fract_y
 _atom_site_fract_z
 _atom_site_occupancy
  Rb  Rb0  1  0.66666700  0.33333300  0.56837052  1
  Rb  Rb1  1  0.33333300  0.66666700  0.06276523  1
  Rb  Rb2  1  0.33333300  0.66666700  0.43162948  1
  Rb  Rb3  1  0.66666700  0.33333300  0.93723477  1
  Rb  Rb4  1  0.00000000  0.00000000  0.25127736  1
  Rb  Rb5  1  0.00000000  0.00000000  0.74872264  1
  V  V0  1  0.33333300  0.66666700  0.83235763  1
  V  V1  1  0.66666700  0.33333300  0.16764237  1
  Ir  Ir0  1  0.33333300  0.66666700  0.66791439  1
  Ir  Ir1  1  0.66666700  0.33333300  0.33208561  1
  Br  Br0  1  0.82433285  0.64866570  0.40881884  1
  Br  Br1  1  0.17566715  0.82433285  0.59118116  1
  Br  Br2  1  0.64866570  0.82433285  0.59118116  1
  Br  Br3  1  0.82433285  0.17566715  0.40881884  1
  Br  Br4  1  0.35133430  0.17566715  0.40881884  1
  Br  Br5  1  0.17198448  0.34396897  0.90580287  1
  Br  Br6  1  0.01177784  0.50588892  0.74530559  1
  Br  Br7  1  0.65603103  0.82801552  0.90580287  1
  Br  Br8  1  0.82801552  0.65603103  0.09419713  1
  Br  Br9  1  0.17566715  0.35133430  0.59118116  1
  Br  Br10  1  0.49411108  0.98822216  0.74530559  1
  Br  Br11  1  0.50588892  0.49411108  0.25469441  1
  Br  Br12  1  0.49411108  0.50588892  0.74530559  1
  Br  Br13  1  0.17198448  0.82801552  0.90580287  1
  Br  Br14  1  0.34396897  0.17198448  0.09419713  1
  Br  Br15  1  0.98822216  0.49411108  0.25469441  1
  Br  Br16  1  0.50588892  0.01177784  0.25469441  1
  Br  Br17  1  0.82801552  0.17198448  0.09419713  1
loop_
_geom_bond_atom_site_label_1
_geom_bond_atom_site_label_2
_geom_bond_distance
_geom_bond_site_symmetry_2
Br0 Ir1 2.485452 1_555
Br0 Rb0 3.593628 1_555
Br0 Rb4 3.700885 1_665
Br0 Rb2 3.755825 1_655
Br0 Rb2 3.755833 1_555
Br1 Ir0 2.485446 1_555
Br1 Rb2 3.593625 1_555
Br1 Rb5 3.700885 1_565
Br1 Rb0 3.755829 1_455
Br1 Rb0 3.755829 1_565
Br2 Ir0 2.485452 1_555
Br2 Rb2 3.593628 1_555
Br2 Rb5 3.700885 1_665
Br2 Rb0 3.755826 1_565
Br2 Rb0 3.755833 1_555
Br3 Ir1 2.485446 1_555
Br3 Rb0 3.593625 1_555
Br3 Rb4 3.700885 1_655
Br3 Rb2 3.755829 1_655
Br3 Rb2 3.755829 1_545
Br4 Ir1 2.485452 1_555
Br4 Rb0 3.593628 1_555
Br4 Rb4 3.700885 1_555
Br4 Rb2 3.755826 1_545
Br4 Rb2 3.755833 1_555
Br5 V0 2.490710 1_555
Br5 Rb1 3.581645 1_556
Br5 Rb5 3.665083 1_555
Br5 Rb3 3.776031 1_455
Br5 Rb3 3.776038 1_555
Br6 Ir0 2.525431 1_555
Br6 V0 2.631484 1_555
Br6 Rb5 3.731409 1_565
Br6 Rb5 3.731409 1_555
Br6 Rb0 3.968467 1_455
Br7 V0 2.490709 1_555
Br7 Rb1 3.581645 1_556
Br7 Rb5 3.665083 1_665
Br7 Rb3 3.776031 1_565
Br7 Rb3 3.776038 1_555
Br8 V1 2.490710 1_555
Br8 Rb3 3.581645 1_554
Br8 Rb4 3.665083 1_665
Br8 Rb1 3.776031 1_655
Br8 Rb1 3.776038 1_555
Br9 Ir0 2.485452 1_555
Br9 Rb2 3.593628 1_555
Br9 Rb5 3.700885 1_555
Br9 Rb0 3.755825 1_455
Br9 Rb0 3.755833 1_555
Br10 Ir0 2.525431 1_555
Br10 V0 2.631484 1_555
Br10 Rb5 3.731409 1_565
Br10 Rb5 3.731409 1_665
Br10 Rb0 3.968467 1_565
Br11 Ir1 2.525436 1_555
Br11 V1 2.631489 1_555
Br11 Rb4 3.731409 1_555
Br11 Rb4 3.731409 1_665
Br11 Rb2 3.968471 1_555
Br12 Ir0 2.525436 1_555
Br12 V0 2.631489 1_555
Br12 Rb5 3.731409 1_665
Br12 Rb5 3.731409 1_555
Br12 Rb0 3.968471 1_555
Br13 V0 2.490704 1_555
Br13 Rb1 3.581641 1_556
Br13 Rb5 3.665083 1_565
Br13 Rb3 3.776035 1_455
Br13 Rb3 3.776035 1_565
Br14 V1 2.490709 1_555
Br14 Rb3 3.581645 1_554
Br14 Rb4 3.665083 1_555
Br14 Rb1 3.776031 1_545
Br14 Rb1 3.776038 1_555
Br15 Ir1 2.525431 1_555
Br15 V1 2.631484 1_555
Br15 Rb4 3.731409 1_655
Br15 Rb4 3.731409 1_665
Br15 Rb2 3.968467 1_655
Br16 Ir1 2.525431 1_555
Br16 V1 2.631484 1_555
Br16 Rb4 3.731409 1_655
Br16 Rb4 3.731409 1_555
Br16 Rb2 3.968467 1_545
Br17 V1 2.490704 1_555
Br17 Rb3 3.581641 1_554
Br17 Rb4 3.665083 1_655
Br17 Rb1 3.776035 1_655
Br17 Rb1 3.776035 1_545
