# generated using pymatgen
data_LiYMnPt3
_symmetry_space_group_name_H-M   'P 1'
_cell_length_a   5.46369203
_cell_length_b   5.12955172
_cell_length_c   5.46369085
_cell_angle_alpha   57.82072180
_cell_angle_beta   59.99999523
_cell_angle_gamma   57.82072351
_symmetry_Int_Tables_number   1
_chemical_formula_structural   LiYMnPt3
_chemical_formula_sum   'Li1 Y1 Mn1 Pt3'
_cell_volume   104.57227630
_cell_formula_units_Z   1
loop_
 _symmetry_equiv_pos_site_id
 _symmetry_equiv_pos_as_xyz
  1  'x, y, z'
loop_
 _atom_site_type_symbol
 _atom_site_label
 _atom_site_symmetry_multiplicity
 _atom_site_fract_x
 _atom_site_fract_y
 _atom_site_fract_z
 _atom_site_occupancy
  Li  Li0  1  0.25833793  0.22498521  0.25833793  1
  Y  Y0  1  0.00511934  0.98464199  0.00511934  1
  Mn  Mn0  1  0.62160885  0.13517246  0.62160885  1
  Pt  Pt0  1  0.62061588  0.63506612  0.12370013  1
  Pt  Pt1  1  0.12370013  0.63506612  0.62061588  1
  Pt  Pt2  1  0.62061588  0.63506612  0.62061588  1
loop_
_geom_bond_atom_site_label_1
_geom_bond_atom_site_label_2
_geom_bond_distance
_geom_bond_site_symmetry_2
Li0 Pt2 2.854993 1_545
Li0 Pt0 2.854996 1_545
Li0 Pt1 2.854996 1_545
Li0 Y0 3.072777 1_555
Li0 Mn0 3.175314 1_554
Li0 Mn0 3.175314 1_555
Li0 Mn0 3.175314 1_455
Li0 Pt1 3.196019 1_555
Li0 Pt0 3.196020 1_555
Li0 Pt2 3.196022 1_554
Li0 Pt2 3.196022 1_455
Li0 Pt1 3.196024 1_554
Li0 Pt0 3.196024 1_455
Li0 Y0 3.300871 1_545
Li0 Y0 3.300875 1_546
Li0 Y0 3.300876 1_645
Mn0 Pt2 2.558462 1_555
Mn0 Pt0 2.558465 1_555
Mn0 Pt1 2.558465 1_555
Mn0 Pt0 2.571107 1_546
Mn0 Pt1 2.571108 1_645
Mn0 Pt2 2.571111 1_545
Mn0 Y0 3.212690 1_645
Mn0 Y0 3.212690 1_546
Mn0 Y0 3.212695 1_646
Pt0 Pt2 2.714994 1_555
Pt0 Pt1 2.714994 1_555
Pt0 Pt2 2.748697 1_554
Pt0 Pt1 2.748697 1_654
Pt0 Y0 3.072501 1_645
Pt0 Y0 3.076117 1_555
Pt0 Y0 3.076127 1_655
Pt1 Pt2 2.714995 1_555
Pt1 Pt2 2.748697 1_455
Pt1 Y0 3.072500 1_546
Pt1 Y0 3.076116 1_555
Pt1 Y0 3.076126 1_556
Pt2 Y0 3.072505 1_646
Pt2 Y0 3.076121 1_655
Pt2 Y0 3.076121 1_556
