# generated using pymatgen
data_Li4PPt3
_symmetry_space_group_name_H-M   'P 1'
_cell_length_a   6.73900562
_cell_length_b   6.73900525
_cell_length_c   6.73900524
_cell_angle_alpha   61.39586340
_cell_angle_beta   61.39586723
_cell_angle_gamma   61.39586588
_symmetry_Int_Tables_number   1
_chemical_formula_structural   Li4PPt3
_chemical_formula_sum   'Li8 P2 Pt6'
_cell_volume   223.19331038
_cell_formula_units_Z   2
loop_
 _symmetry_equiv_pos_site_id
 _symmetry_equiv_pos_as_xyz
  1  'x, y, z'
loop_
 _atom_site_type_symbol
 _atom_site_label
 _atom_site_symmetry_multiplicity
 _atom_site_fract_x
 _atom_site_fract_y
 _atom_site_fract_z
 _atom_site_occupancy
  Li  Li0  1  0.27649063  0.27649063  0.27649063  1
  Li  Li1  1  0.72350937  0.72350937  0.72350937  1
  Li  Li2  1  0.55669886  0.84581731  0.34859481  1
  Li  Li3  1  0.34859481  0.55669886  0.84581731  1
  Li  Li4  1  0.84581731  0.34859481  0.55669886  1
  Li  Li5  1  0.65140519  0.15418269  0.44330114  1
  Li  Li6  1  0.15418269  0.44330114  0.65140519  1
  Li  Li7  1  0.44330114  0.65140519  0.15418269  1
  P  P0  1  0.89491080  0.89491080  0.89491080  1
  P  P1  1  0.10508920  0.10508920  0.10508920  1
  Pt  Pt0  1  0.89633346  0.50000000  0.10366654  1
  Pt  Pt1  1  0.10366654  0.89633346  0.50000000  1
  Pt  Pt2  1  0.50000000  0.10366654  0.89633346  1
  Pt  Pt3  1  0.25377366  1.00000000  0.74622634  1
  Pt  Pt4  1  0.74622634  0.25377366  0.00000000  1
  Pt  Pt5  1  1.00000000  0.74622634  0.25377366  1
loop_
_geom_bond_atom_site_label_1
_geom_bond_atom_site_label_2
_geom_bond_distance
_geom_bond_site_symmetry_2
Li0 Li3 2.550661 1_554
Li0 Li2 2.550661 1_545
Li0 Li4 2.550661 1_455
Li0 Pt1 2.769624 1_545
Li0 Pt2 2.769624 1_554
Li0 Pt0 2.769624 1_455
Li0 Pt3 2.770807 1_545
Li0 Pt5 2.770807 1_455
Li0 Pt4 2.770807 1_555
Li0 P1 2.799129 1_555
Li0 Li7 2.857420 1_555
Li0 Li6 2.857420 1_555
Li0 Li5 2.857420 1_555
Li1 Li5 2.550661 1_565
Li1 Li7 2.550661 1_556
Li1 Li6 2.550661 1_655
Li1 Pt0 2.769624 1_556
Li1 Pt2 2.769624 1_565
Li1 Pt1 2.769624 1_655
Li1 Pt4 2.770807 1_556
Li1 Pt5 2.770807 1_555
Li1 Pt3 2.770807 1_555
Li1 P0 2.799129 1_555
Li1 Li2 2.857420 1_555
Li1 Li4 2.857420 1_555
Li1 Li3 2.857420 1_555
Li2 Pt5 2.538971 1_555
Li2 Pt1 2.613892 1_555
Li2 P0 2.780825 1_554
Li2 Pt2 2.804071 1_564
Li2 Pt0 2.890083 1_555
Li3 Pt3 2.538970 1_555
Li3 Pt2 2.613892 1_555
Li3 P0 2.780825 1_455
Li3 Pt0 2.804071 1_456
Li3 Pt1 2.890083 1_555
Li4 Pt4 2.538970 1_556
Li4 Pt0 2.613892 1_555
Li4 P0 2.780825 1_545
Li4 Pt1 2.804071 1_645
Li4 Pt2 2.890083 1_555
Li5 Pt4 2.538970 1_555
Li5 Pt2 2.613892 1_555
Li5 P1 2.780825 1_655
Li5 Pt1 2.804071 1_645
Li5 Pt0 2.890083 1_555
Li6 Pt3 2.538970 1_545
Li6 Pt1 2.613892 1_555
Li6 P1 2.780825 1_556
Li6 Pt0 2.804071 1_456
Li6 Pt2 2.890083 1_555
Li7 Pt5 2.538971 1_455
Li7 Pt0 2.613892 1_555
Li7 P1 2.780825 1_565
Li7 Pt2 2.804071 1_564
Li7 Pt1 2.890083 1_555
P0 Pt0 2.337812 1_556
P0 Pt1 2.337812 1_655
P0 Pt2 2.337812 1_565
P0 Pt5 2.448329 1_556
P0 Pt4 2.448329 1_566
P0 Pt3 2.448330 1_655
P1 Pt1 2.337812 1_545
P1 Pt0 2.337812 1_455
P1 Pt2 2.337812 1_554
P1 Pt5 2.448329 1_445
P1 Pt3 2.448330 1_544
P1 Pt4 2.448330 1_455
