# generated using pymatgen
data_Ta9Si2B4Mo
_symmetry_space_group_name_H-M   'P 1'
_cell_length_a   7.24297102
_cell_length_b   7.24297147
_cell_length_c   7.24297033
_cell_angle_alpha   129.41619008
_cell_angle_beta   129.41618684
_cell_angle_gamma   74.34182376
_symmetry_Int_Tables_number   1
_chemical_formula_structural   Ta9Si2B4Mo
_chemical_formula_sum   'Ta9 Si2 B4 Mo1'
_cell_volume   221.05652803
_cell_formula_units_Z   1
loop_
 _symmetry_equiv_pos_site_id
 _symmetry_equiv_pos_as_xyz
  1  'x, y, z'
loop_
 _atom_site_type_symbol
 _atom_site_label
 _atom_site_symmetry_multiplicity
 _atom_site_fract_x
 _atom_site_fract_y
 _atom_site_fract_z
 _atom_site_occupancy
  Ta  Ta0  1  0.80866455  0.97359749  0.50420977  1
  Ta  Ta1  1  0.30445378  0.80866455  0.83506606  1
  Ta  Ta2  1  0.19133545  0.02640251  0.49579023  1
  Ta  Ta3  1  0.53061228  0.69554622  0.50420977  1
  Ta  Ta4  1  0.02640251  0.53061228  0.83506606  1
  Ta  Ta5  1  0.69554622  0.19133545  0.16493394  1
  Ta  Ta6  1  0.97359749  0.46938772  0.16493394  1
  Ta  Ta7  1  0.50000000  0.50000000  0.00000000  1
  Ta  Ta8  1  0.46938772  0.30445378  0.49579023  1
  Si  Si0  1  0.74736905  0.74736905  1.00000000  1
  Si  Si1  1  0.25263095  0.25263095  0.00000000  1
  B  B0  1  0.38259875  0.88181144  0.26441119  1
  B  B1  1  0.88181144  0.61740125  0.49921169  1
  B  B2  1  0.61740125  0.11818856  0.73558881  1
  B  B3  1  0.11818856  0.38259875  0.50078831  1
  Mo  Mo0  1  0.00000000  0.00000000  0.00000000  1
loop_
_geom_bond_atom_site_label_1
_geom_bond_atom_site_label_2
_geom_bond_distance
_geom_bond_site_symmetry_2
Si0 Ta5 2.635898 1_566
Si0 Ta2 2.635901 1_666
Si0 Ta3 2.635905 1_555
Si0 Ta4 2.635905 1_655
Si0 Ta0 2.636969 1_556
Si0 Ta8 2.636973 1_555
Si0 Ta6 2.636974 1_556
Si0 Ta1 2.636974 1_555
Si0 Ta7 2.855364 1_556
Si1 Ta1 2.635898 1_544
Si1 Ta0 2.635901 1_444
Si1 Ta8 2.635905 1_555
Si1 Ta6 2.635905 1_455
Si1 Ta2 2.636969 1_554
Si1 Ta3 2.636973 1_555
Si1 Ta4 2.636974 1_554
Si1 Ta5 2.636974 1_555
Si1 Ta7 2.855364 1_555
B0 B2 2.061962 1_565
B0 Ta2 2.400147 1_565
B0 Ta8 2.400148 1_565
B0 Ta3 2.411729 1_555
B0 Ta0 2.411744 1_555
B0 Ta4 2.471019 1_554
B0 Ta1 2.471030 1_554
B0 Ta7 2.472152 1_555
B0 Mo0 2.478243 1_565
B1 B3 2.061971 1_655
B1 Ta1 2.400147 1_655
B1 Ta4 2.400152 1_655
B1 Ta6 2.411728 1_555
B1 Ta5 2.411742 1_555
B1 Ta0 2.471016 1_555
B1 Ta3 2.471023 1_555
B1 Ta7 2.472146 1_555
B1 Mo0 2.478245 1_666
B2 Ta0 2.400147 1_545
B2 Ta3 2.400148 1_545
B2 Ta8 2.411729 1_555
B2 Ta2 2.411744 1_555
B2 Ta6 2.471019 1_556
B2 Ta5 2.471030 1_556
B2 Ta7 2.472152 1_556
B2 Mo0 2.478243 1_656
B3 Ta5 2.400147 1_455
B3 Ta6 2.400152 1_455
B3 Ta4 2.411728 1_555
B3 Ta1 2.411742 1_555
B3 Ta2 2.471016 1_555
B3 Ta8 2.471023 1_555
B3 Ta7 2.472146 1_556
B3 Mo0 2.478245 1_555
Mo0 Ta1 2.793501 1_544
Mo0 Ta5 2.793501 1_455
Mo0 Ta8 2.793502 1_555
Mo0 Ta3 2.793502 1_444
Mo0 Ta6 2.793502 1_455
Mo0 Ta4 2.793502 1_544
Mo0 Ta0 2.793504 1_444
Mo0 Ta2 2.793504 1_555
Mo0 Si1 2.916102 1_555
Mo0 Si0 2.916102 1_444
