# generated using pymatgen
data_KGaSi3O8
_symmetry_space_group_name_H-M   'P 1'
_cell_length_a   7.30210536
_cell_length_b   7.65750993
_cell_length_c   8.02505331
_cell_angle_alpha   113.05061855
_cell_angle_beta   104.71210748
_cell_angle_gamma   103.27005828
_symmetry_Int_Tables_number   1
_chemical_formula_structural   KGaSi3O8
_chemical_formula_sum   'K2 Ga2 Si6 O16'
_cell_volume   371.07892039
_cell_formula_units_Z   2
loop_
 _symmetry_equiv_pos_site_id
 _symmetry_equiv_pos_as_xyz
  1  'x, y, z'
loop_
 _atom_site_type_symbol
 _atom_site_label
 _atom_site_symmetry_multiplicity
 _atom_site_fract_x
 _atom_site_fract_y
 _atom_site_fract_z
 _atom_site_occupancy
  K  K0  1  0.86111565  0.70891500  0.72924054  1
  K  K1  1  0.13888435  0.29108500  0.27075946  1
  Ga  Ga0  1  0.78901297  0.17450940  0.80033122  1
  Ga  Ga1  1  0.21098703  0.82549060  0.19966878  1
  Si  Si0  1  0.75936960  0.81063572  0.17337224  1
  Si  Si1  1  0.24063040  0.18936428  0.82662776  1
  Si  Si2  1  0.66776186  0.40737675  0.16924377  1
  Si  Si3  1  0.33223814  0.59262325  0.83075623  1
  Si  Si4  1  0.64469729  0.18439269  0.41176813  1
  Si  Si5  1  0.35530271  0.81560731  0.58823187  1
  O  O0  1  0.03000592  0.13315564  0.85549273  1
  O  O1  1  0.96999408  0.86684436  0.14450727  1
  O  O2  1  0.71515202  0.36881808  0.35840505  1
  O  O3  1  0.28484798  0.63118192  0.64159495  1
  O  O4  1  0.79673356  0.32502983  0.04466682  1
  O  O5  1  0.20326644  0.67497017  0.95533318  1
  O  O6  1  0.74362100  0.01834855  0.31848272  1
  O  O7  1  0.25637900  0.98165145  0.68151728  1
  O  O8  1  0.74727850  0.29642251  0.64765995  1
  O  O9  1  0.25272150  0.70357749  0.35234005  1
  O  O10  1  0.73540581  0.65444979  0.26429747  1
  O  O11  1  0.26459419  0.34555021  0.73570253  1
  O  O12  1  0.59937857  0.91495895  0.67818614  1
  O  O13  1  0.40062143  0.08504105  0.32181386  1
  O  O14  1  0.57677339  0.70088711  0.95736317  1
  O  O15  1  0.42322661  0.29911289  0.04263683  1
loop_
_geom_bond_atom_site_label_1
_geom_bond_atom_site_label_2
_geom_bond_distance
_geom_bond_site_symmetry_2
K0 O12 2.793372 1_555
K0 O2 2.796465 1_555
K0 O5 2.822535 1_655
K0 O8 2.827645 1_555
K0 O0 2.837185 1_665
K0 O1 2.873547 1_556
K0 O14 3.102648 1_555
K1 O13 2.793372 1_555
K1 O3 2.796465 1_555
K1 O4 2.822535 1_455
K1 O9 2.827645 1_555
K1 O1 2.837185 1_445
K1 O0 2.873547 1_554
K1 O15 3.102648 1_555
Ga0 O8 1.817178 1_555
Ga0 O4 1.822267 1_556
Ga0 O12 1.830300 1_545
Ga0 O0 1.833823 1_655
Ga1 O9 1.817178 1_555
Ga1 O5 1.822267 1_554
Ga1 O13 1.830300 1_565
Ga1 O1 1.833823 1_455
O0 Si1 1.599843 1_555
O1 Si0 1.599843 1_555
O2 Si2 1.625554 1_555
O2 Si4 1.641475 1_555
O3 Si3 1.625554 1_555
O3 Si5 1.641475 1_555
O4 Si2 1.594114 1_555
O5 Si3 1.594114 1_555
O6 Si0 1.612682 1_545
O6 Si4 1.627828 1_555
O7 Si1 1.612682 1_565
O7 Si5 1.627828 1_555
O8 Si4 1.610491 1_555
O9 Si5 1.610491 1_555
O10 Si0 1.626539 1_555
O10 Si2 1.629364 1_555
O11 Si1 1.626539 1_555
O11 Si3 1.629364 1_555
O12 Si5 1.603230 1_555
O13 Si4 1.603230 1_555
O14 Si3 1.627067 1_555
O14 Si0 1.630893 1_556
O15 Si2 1.627067 1_555
O15 Si1 1.630893 1_554
