# generated using pymatgen
data_Mo(PtRh)4
_symmetry_space_group_name_H-M   'P 1'
_cell_length_a   6.14805838
_cell_length_b   6.14805908
_cell_length_c   6.14805974
_cell_angle_alpha   95.62971171
_cell_angle_beta   95.62971065
_cell_angle_gamma   143.49472725
_symmetry_Int_Tables_number   1
_chemical_formula_structural   Mo(PtRh)4
_chemical_formula_sum   'Mo1 Pt4 Rh4'
_cell_volume   131.29105323
_cell_formula_units_Z   1
loop_
 _symmetry_equiv_pos_site_id
 _symmetry_equiv_pos_as_xyz
  1  'x, y, z'
loop_
 _atom_site_type_symbol
 _atom_site_label
 _atom_site_symmetry_multiplicity
 _atom_site_fract_x
 _atom_site_fract_y
 _atom_site_fract_z
 _atom_site_occupancy
  Mo  Mo0  1  0.00000000  0.00000000  0.00000000  1
  Pt  Pt0  1  0.00000000  0.32670211  0.32670211  1
  Pt  Pt1  1  1.00000000  0.67329789  0.67329789  1
  Pt  Pt2  1  0.67329789  0.00000000  0.67329789  1
  Pt  Pt3  1  0.32670211  1.00000000  0.32670211  1
  Rh  Rh0  1  0.34020758  0.34020758  0.68041616  1
  Rh  Rh1  1  0.65979242  0.65979242  0.31958384  1
  Rh  Rh2  1  0.65979242  0.34020758  1.00000000  1
  Rh  Rh3  1  0.34020758  0.65979242  0.00000000  1
loop_
_geom_bond_atom_site_label_1
_geom_bond_atom_site_label_2
_geom_bond_distance
_geom_bond_site_symmetry_2
Mo0 Rh1 2.681381 1_445
Mo0 Rh0 2.681381 1_554
Mo0 Rh1 2.681384 1_555
Mo0 Rh0 2.681384 1_444
Mo0 Rh2 2.681386 1_554
Mo0 Rh3 2.681386 1_445
Mo0 Rh3 2.681387 1_555
Mo0 Rh2 2.681387 1_444
Mo0 Pt3 2.697643 1_545
Mo0 Pt2 2.697643 1_454
Mo0 Pt0 2.697643 1_555
Mo0 Pt1 2.697643 1_444
Pt0 Rh1 2.710787 1_445
Pt0 Rh3 2.710788 1_445
Pt0 Rh3 2.710788 1_555
Pt0 Rh1 2.710789 1_555
Pt0 Pt3 2.793432 1_445
Pt0 Pt2 2.793432 1_565
Pt0 Pt3 2.793433 1_555
Pt0 Pt2 2.793433 1_455
Pt0 Rh2 2.811372 1_454
Pt0 Rh0 2.811377 1_555
Pt0 Pt1 2.861909 1_455
Pt1 Rh0 2.710787 1_665
Pt1 Rh2 2.710788 1_665
Pt1 Rh2 2.710788 1_555
Pt1 Rh0 2.710789 1_555
Pt1 Pt2 2.793432 1_665
Pt1 Pt3 2.793432 1_545
Pt1 Pt2 2.793433 1_555
Pt1 Pt3 2.793433 1_655
Pt1 Rh3 2.811372 1_656
Pt1 Rh1 2.811377 1_555
Pt2 Rh0 2.710786 1_655
Pt2 Rh3 2.710788 1_656
Pt2 Rh3 2.710788 1_546
Pt2 Rh0 2.710789 1_545
Pt2 Rh2 2.811373 1_555
Pt2 Rh1 2.811377 1_545
Pt2 Pt3 2.861908 1_545
Pt3 Rh1 2.710786 1_455
Pt3 Rh2 2.710788 1_454
Pt3 Rh2 2.710788 1_564
Pt3 Rh1 2.710789 1_565
Pt3 Rh3 2.811373 1_555
Pt3 Rh0 2.811377 1_565
Rh0 Rh2 2.638870 1_555
Rh0 Rh3 2.638870 1_556
Rh0 Rh1 2.854223 1_445
Rh0 Rh1 2.854228 1_555
Rh1 Rh3 2.638870 1_555
Rh1 Rh2 2.638870 1_554
Rh2 Rh3 2.854217 1_656
Rh2 Rh3 2.854217 1_546
