# generated using pymatgen
data_Hf10PHPb6
_symmetry_space_group_name_H-M   'P 1'
_cell_length_a   8.55060736
_cell_length_b   8.55060599
_cell_length_c   5.82166598
_cell_angle_alpha   90.00000000
_cell_angle_beta   90.00000000
_cell_angle_gamma   119.99999392
_symmetry_Int_Tables_number   1
_chemical_formula_structural   Hf10PHPb6
_chemical_formula_sum   'Hf10 P1 H1 Pb6'
_cell_volume   368.61397908
_cell_formula_units_Z   1
loop_
 _symmetry_equiv_pos_site_id
 _symmetry_equiv_pos_as_xyz
  1  'x, y, z'
loop_
 _atom_site_type_symbol
 _atom_site_label
 _atom_site_symmetry_multiplicity
 _atom_site_fract_x
 _atom_site_fract_y
 _atom_site_fract_z
 _atom_site_occupancy
  Hf  Hf0  1  0.66666700  0.33333300  0.00000000  1
  Hf  Hf1  1  1.00000000  0.24382230  0.26534155  1
  Hf  Hf2  1  0.75617770  0.00000000  0.73465845  1
  Hf  Hf3  1  0.24382230  0.24382230  0.73465845  1
  Hf  Hf4  1  0.33333300  0.66666700  0.50000000  1
  Hf  Hf5  1  0.33333300  0.66666700  0.00000000  1
  Hf  Hf6  1  0.00000000  0.75617770  0.73465845  1
  Hf  Hf7  1  0.66666700  0.33333300  0.50000000  1
  Hf  Hf8  1  0.75617770  0.75617770  0.26534155  1
  Hf  Hf9  1  0.24382230  1.00000000  0.26534155  1
  P  P0  1  0.00000000  0.00000000  0.00000000  1
  H  H0  1  0.00000000  0.00000000  0.50000000  1
  Pb  Pb0  1  0.60448580  0.60448580  0.75330280  1
  Pb  Pb1  1  0.39551420  1.00000000  0.75330280  1
  Pb  Pb2  1  0.00000000  0.60448580  0.24669720  1
  Pb  Pb3  1  0.39551420  0.39551420  0.24669720  1
  Pb  Pb4  1  1.00000000  0.39551420  0.75330280  1
  Pb  Pb5  1  0.60448580  0.00000000  0.24669720  1
loop_
_geom_bond_atom_site_label_1
_geom_bond_atom_site_label_2
_geom_bond_distance
_geom_bond_site_symmetry_2
Hf0 Pb5 2.992248 1_555
Hf0 Pb4 2.992249 1_554
Hf0 Pb1 2.992251 1_544
Hf0 Pb2 2.992251 1_655
Hf0 Pb0 2.992256 1_554
Hf0 Pb3 2.992256 1_555
Hf1 P0 2.594745 1_655
Hf1 Pb3 2.957160 1_655
Hf1 Pb5 2.957160 1_555
Hf1 Pb2 3.085801 1_655
Hf1 Pb4 3.122852 1_555
Hf1 Pb4 3.250882 1_554
Hf2 P0 2.594745 1_656
Hf2 Pb0 2.957160 1_545
Hf2 Pb4 2.957160 1_555
Hf2 Pb1 3.085801 1_545
Hf2 Pb5 3.122852 1_555
Hf2 Pb5 3.250882 1_556
Hf3 P0 2.594745 1_556
Hf3 Pb1 2.957160 1_545
Hf3 Pb4 2.957160 1_455
Hf3 Pb0 3.085802 1_555
Hf3 Pb3 3.122852 1_555
Hf3 Pb3 3.250882 1_556
Hf4 Pb1 3.010895 1_555
Hf4 Pb2 3.010895 1_555
Hf4 Pb5 3.010898 1_565
Hf4 Pb4 3.010898 1_455
Hf4 Pb3 3.010902 1_555
Hf4 Pb0 3.010903 1_555
Hf5 Pb1 2.992248 1_554
Hf5 Pb2 2.992249 1_555
Hf5 Pb5 2.992251 1_565
Hf5 Pb4 2.992251 1_454
Hf5 Pb3 2.992256 1_555
Hf5 Pb0 2.992256 1_554
Hf6 P0 2.594745 1_566
Hf6 Pb0 2.957160 1_455
Hf6 Pb1 2.957160 1_555
Hf6 Pb4 3.085801 1_455
Hf6 Pb2 3.122852 1_555
Hf6 Pb2 3.250882 1_556
Hf7 Pb5 3.010895 1_555
Hf7 Pb4 3.010895 1_555
Hf7 Pb1 3.010898 1_545
Hf7 Pb2 3.010898 1_655
Hf7 Pb0 3.010902 1_555
Hf7 Pb3 3.010903 1_555
Hf8 P0 2.594745 1_665
Hf8 Pb5 2.957160 1_565
Hf8 Pb2 2.957160 1_655
Hf8 Pb3 3.085802 1_555
Hf8 Pb0 3.122852 1_555
Hf8 Pb0 3.250882 1_554
Hf9 P0 2.594745 1_565
Hf9 Pb3 2.957160 1_565
Hf9 Pb2 2.957160 1_555
Hf9 Pb5 3.085801 1_565
Hf9 Pb1 3.122852 1_555
Hf9 Pb1 3.250882 1_554
H0 Hf1 2.492538 1_455
H0 Hf6 2.492538 1_545
H0 Hf9 2.492539 1_545
H0 Hf2 2.492539 1_455
H0 Hf3 2.492539 1_555
H0 Hf8 2.492539 1_445
