# generated using pymatgen
data_Rb6Te4Pb
_symmetry_space_group_name_H-M   'P 1'
_cell_length_a   11.80917067
_cell_length_b   11.80917077
_cell_length_c   8.72480257
_cell_angle_alpha   90.00000000
_cell_angle_beta   90.00000000
_cell_angle_gamma   120.00000248
_symmetry_Int_Tables_number   1
_chemical_formula_structural   Rb6Te4Pb
_chemical_formula_sum   'Rb12 Te8 Pb2'
_cell_volume   1053.71953428
_cell_formula_units_Z   2
loop_
 _symmetry_equiv_pos_site_id
 _symmetry_equiv_pos_as_xyz
  1  'x, y, z'
loop_
 _atom_site_type_symbol
 _atom_site_label
 _atom_site_symmetry_multiplicity
 _atom_site_fract_x
 _atom_site_fract_y
 _atom_site_fract_z
 _atom_site_occupancy
  Rb  Rb0  1  0.47546054  0.95092209  0.97280001  1
  Rb  Rb1  1  0.52453946  0.47546054  0.47280001  1
  Rb  Rb2  1  0.95092209  0.47546054  0.47280001  1
  Rb  Rb3  1  0.04907791  0.52453946  0.97280001  1
  Rb  Rb4  1  0.47546054  0.52453946  0.97280001  1
  Rb  Rb5  1  0.52453946  0.04907791  0.47280001  1
  Rb  Rb6  1  0.70286608  0.85143304  0.29566211  1
  Rb  Rb7  1  0.85143304  0.70286608  0.79566211  1
  Rb  Rb8  1  0.85143304  0.14856696  0.79566211  1
  Rb  Rb9  1  0.14856696  0.85143304  0.29566211  1
  Rb  Rb10  1  0.14856696  0.29713392  0.29566211  1
  Rb  Rb11  1  0.29713392  0.14856696  0.79566211  1
  Te  Te0  1  0.62752852  0.81376526  0.70578570  1
  Te  Te1  1  0.81376526  0.62752852  0.20578570  1
  Te  Te2  1  0.81376526  0.18623474  0.20578570  1
  Te  Te3  1  0.18623474  0.81376526  0.70578570  1
  Te  Te4  1  0.18623474  0.37247148  0.70578570  1
  Te  Te5  1  0.37247148  0.18623474  0.20578570  1
  Te  Te6  1  0.33333300  0.66666700  0.24199798  1
  Te  Te7  1  0.66666700  0.33333300  0.74199798  1
  Pb  Pb0  1  0.33333300  0.66666700  0.60077655  1
  Pb  Pb1  1  0.66666700  0.33333300  0.10077655  1
loop_
_geom_bond_atom_site_label_1
_geom_bond_atom_site_label_2
_geom_bond_distance
_geom_bond_site_symmetry_2
Rb0 Te6 3.737319 1_556
Rb0 Te0 3.766200 1_555
Rb0 Te3 3.766208 1_555
Rb0 Te5 4.088146 1_566
Rb0 Te2 4.088169 1_566
Rb1 Te7 3.737319 1_555
Rb1 Te1 3.766208 1_555
Rb1 Te5 3.766208 1_555
Rb1 Te4 4.088175 1_555
Rb1 Te0 4.088175 1_555
Rb2 Te7 3.737319 1_555
Rb2 Te1 3.766200 1_555
Rb2 Te2 3.766208 1_555
Rb2 Te4 4.088146 1_655
Rb2 Te3 4.088169 1_655
Rb3 Te6 3.737319 1_556
Rb3 Te4 3.766200 1_555
Rb3 Te3 3.766208 1_555
Rb3 Te1 4.088146 1_456
Rb3 Te2 4.088169 1_456
Rb4 Te6 3.737319 1_556
Rb4 Te4 3.766208 1_555
Rb4 Te0 3.766208 1_555
Rb4 Te1 4.088175 1_556
Rb4 Te5 4.088175 1_556
Rb5 Te7 3.737319 1_555
Rb5 Te5 3.766200 1_555
Rb5 Te2 3.766208 1_555
Rb5 Te0 4.088146 1_545
Rb5 Te3 4.088169 1_545
Rb6 Te2 3.575485 1_565
Rb6 Te1 3.575507 1_555
Rb6 Te0 3.660259 1_555
Rb6 Te6 3.808123 1_555
Rb7 Te3 3.575485 1_655
Rb7 Te0 3.575507 1_555
Rb7 Te1 3.660259 1_556
Rb7 Te7 3.808123 1_555
Rb8 Te4 3.575489 1_655
Rb8 Te0 3.575489 1_545
Rb8 Te2 3.660254 1_556
Rb8 Te7 3.808113 1_555
Rb9 Te1 3.575489 1_455
Rb9 Te5 3.575489 1_565
Rb9 Te3 3.660254 1_555
Rb9 Te6 3.808113 1_555
Rb10 Te2 3.575485 1_455
Rb10 Te5 3.575507 1_555
Rb10 Te4 3.660259 1_555
Rb10 Te6 3.808123 1_555
Rb11 Te3 3.575485 1_545
Rb11 Te4 3.575507 1_555
Rb11 Te5 3.660259 1_556
Rb11 Te7 3.808123 1_555
Pb0 Te6 3.130272 1_555
Pb0 Te0 3.145150 1_555
Pb0 Te4 3.145150 1_555
Pb0 Te3 3.145160 1_555
Pb0 Rb2 4.067201 1_455
Pb0 Rb5 4.067201 1_565
Pb0 Rb1 4.067220 1_555
Pb1 Te7 3.130272 1_554
Pb1 Te5 3.145150 1_555
Pb1 Te1 3.145150 1_555
Pb1 Te2 3.145160 1_555
Pb1 Rb3 4.067201 1_654
Pb1 Rb0 4.067201 1_544
Pb1 Rb4 4.067220 1_554
