# generated using pymatgen
data_CsBe2Br5
_symmetry_space_group_name_H-M   'P 1'
_cell_length_a   11.44887618
_cell_length_b   11.44887673
_cell_length_c   11.44887575
_cell_angle_alpha   60.00000006
_cell_angle_beta   59.99999848
_cell_angle_gamma   60.00000057
_symmetry_Int_Tables_number   1
_chemical_formula_structural   CsBe2Br5
_chemical_formula_sum   'Cs4 Be8 Br20'
_cell_volume   1061.14218282
_cell_formula_units_Z   4
loop_
 _symmetry_equiv_pos_site_id
 _symmetry_equiv_pos_as_xyz
  1  'x, y, z'
loop_
 _atom_site_type_symbol
 _atom_site_label
 _atom_site_symmetry_multiplicity
 _atom_site_fract_x
 _atom_site_fract_y
 _atom_site_fract_z
 _atom_site_occupancy
  Cs  Cs0  1  0.12500000  0.62500000  0.62500000  1
  Cs  Cs1  1  0.62500000  0.12500000  0.62500000  1
  Cs  Cs2  1  0.62500000  0.62500000  0.12500000  1
  Cs  Cs3  1  0.62500000  0.62500000  0.62500000  1
  Be  Be0  1  0.01616636  0.32794355  0.32794355  1
  Be  Be1  1  0.32794355  0.01616636  0.32794355  1
  Be  Be2  1  0.32794355  0.32794355  0.01616636  1
  Be  Be3  1  0.32794355  0.32794355  0.32794355  1
  Be  Be4  1  0.23383364  0.92205645  0.92205645  1
  Be  Be5  1  0.92205645  0.23383364  0.92205645  1
  Be  Be6  1  0.92205645  0.92205645  0.23383364  1
  Be  Be7  1  0.92205645  0.92205645  0.92205645  1
  Br  Br0  1  0.09139222  0.09139222  0.40860778  1
  Br  Br1  1  0.40860778  0.40860778  0.09139222  1
  Br  Br2  1  0.09139222  0.40860778  0.09139222  1
  Br  Br3  1  0.40860778  0.09139222  0.40860778  1
  Br  Br4  1  0.40860778  0.09139222  0.09139222  1
  Br  Br5  1  0.09139222  0.40860778  0.40860778  1
  Br  Br6  1  0.15860778  0.15860778  0.84139222  1
  Br  Br7  1  0.84139222  0.84139222  0.15860778  1
  Br  Br8  1  0.15860778  0.84139222  0.15860778  1
  Br  Br9  1  0.84139222  0.15860778  0.84139222  1
  Br  Br10  1  0.84139222  0.15860778  0.15860778  1
  Br  Br11  1  0.15860778  0.84139222  0.84139222  1
  Br  Br12  1  0.78678535  0.40440455  0.40440455  1
  Br  Br13  1  0.40440455  0.78678535  0.40440455  1
  Br  Br14  1  0.40440455  0.40440455  0.78678535  1
  Br  Br15  1  0.40440455  0.40440455  0.40440455  1
  Br  Br16  1  0.46321465  0.84559545  0.84559545  1
  Br  Br17  1  0.84559545  0.46321465  0.84559545  1
  Br  Br18  1  0.84559545  0.84559545  0.46321465  1
  Br  Br19  1  0.84559545  0.84559545  0.84559545  1
loop_
_geom_bond_atom_site_label_1
_geom_bond_atom_site_label_2
_geom_bond_distance
_geom_bond_site_symmetry_2
Be0 Br12 2.144246 1_455
Be0 Br2 2.211566 1_555
Be0 Br0 2.211566 1_555
Be0 Br5 2.211595 1_555
Be1 Br13 2.144247 1_545
Be1 Br4 2.211566 1_555
Be1 Br0 2.211566 1_555
Be1 Br3 2.211595 1_555
Be2 Br14 2.144246 1_554
Be2 Br2 2.211566 1_555
Be2 Br4 2.211566 1_555
Be2 Br1 2.211595 1_555
Be3 Br15 2.144265 1_555
Be3 Br1 2.211567 1_555
Be3 Br5 2.211567 1_555
Be3 Br3 2.211567 1_555
Be4 Br16 2.144246 1_555
Be4 Br8 2.211566 1_556
Be4 Br6 2.211566 1_565
Be4 Br11 2.211595 1_555
Be5 Br17 2.144247 1_555
Be5 Br10 2.211566 1_556
Be5 Br6 2.211566 1_655
Be5 Br9 2.211595 1_555
Be6 Br18 2.144246 1_555
Be6 Br8 2.211566 1_655
Be6 Br10 2.211566 1_565
Be6 Br7 2.211595 1_555
Be7 Br19 2.144265 1_555
Be7 Br7 2.211567 1_556
Be7 Br11 2.211567 1_655
Be7 Br9 2.211567 1_565
Br12 Cs2 3.634596 1_555
Br12 Cs1 3.634596 1_555
Br12 Cs3 3.634605 1_555
Br13 Cs2 3.634596 1_555
Br13 Cs0 3.634596 1_555
Br13 Cs3 3.634605 1_555
Br14 Cs0 3.634596 1_555
Br14 Cs1 3.634596 1_555
Br14 Cs3 3.634605 1_555
Br15 Cs0 3.634603 1_555
Br15 Cs2 3.634603 1_555
Br15 Cs1 3.634603 1_555
Br16 Cs2 3.634596 1_556
Br16 Cs1 3.634596 1_565
Br16 Cs3 3.634605 1_555
Br17 Cs2 3.634596 1_556
Br17 Cs0 3.634596 1_655
Br17 Cs3 3.634605 1_555
Br18 Cs0 3.634596 1_655
Br18 Cs1 3.634596 1_565
Br18 Cs3 3.634605 1_555
Br19 Cs0 3.634603 1_655
Br19 Cs2 3.634603 1_556
Br19 Cs1 3.634603 1_565
