# generated using pymatgen
data_LiZr7H16
_symmetry_space_group_name_H-M   'P 1'
_cell_length_a   6.75108728
_cell_length_b   6.75108753
_cell_length_c   6.75108694
_cell_angle_alpha   60.00000287
_cell_angle_beta   60.00000163
_cell_angle_gamma   60.00000512
_symmetry_Int_Tables_number   1
_chemical_formula_structural   LiZr7H16
_chemical_formula_sum   'Li1 Zr7 H16'
_cell_volume   217.57359909
_cell_formula_units_Z   1
loop_
 _symmetry_equiv_pos_site_id
 _symmetry_equiv_pos_as_xyz
  1  'x, y, z'
loop_
 _atom_site_type_symbol
 _atom_site_label
 _atom_site_symmetry_multiplicity
 _atom_site_fract_x
 _atom_site_fract_y
 _atom_site_fract_z
 _atom_site_occupancy
  Li  Li0  1  0.00000000  0.00000000  0.00000000  1
  Zr  Zr0  1  0.50000000  0.50000000  0.50000000  1
  Zr  Zr1  1  0.00000000  0.00000000  0.50000000  1
  Zr  Zr2  1  0.50000000  0.00000000  0.50000000  1
  Zr  Zr3  1  0.00000000  0.50000000  0.50000000  1
  Zr  Zr4  1  0.50000000  0.50000000  0.00000000  1
  Zr  Zr5  1  0.00000000  0.50000000  0.00000000  1
  Zr  Zr6  1  0.50000000  0.00000000  0.00000000  1
  H  H0  1  0.87532217  0.87532217  0.37403548  1
  H  H1  1  0.87532217  0.37403548  0.87532217  1
  H  H2  1  0.37403548  0.87532217  0.87532217  1
  H  H3  1  0.87532217  0.87532217  0.87532217  1
  H  H4  1  0.12467783  0.12467783  0.62596452  1
  H  H5  1  0.12467783  0.62596452  0.12467783  1
  H  H6  1  0.62596452  0.12467783  0.12467783  1
  H  H7  1  0.12467783  0.12467783  0.12467783  1
  H  H8  1  0.62458570  0.62458570  0.12624191  1
  H  H9  1  0.62458570  0.12624191  0.62458570  1
  H  H10  1  0.12624191  0.62458570  0.62458570  1
  H  H11  1  0.62458570  0.62458570  0.62458570  1
  H  H12  1  0.37541430  0.37541430  0.87375809  1
  H  H13  1  0.37541430  0.87375809  0.37541430  1
  H  H14  1  0.87375809  0.37541430  0.37541430  1
  H  H15  1  0.37541430  0.37541430  0.37541430  1
loop_
_geom_bond_atom_site_label_1
_geom_bond_atom_site_label_2
_geom_bond_distance
_geom_bond_site_symmetry_2
H0 Li0 2.061773 1_665
H0 Zr1 2.068861 1_665
H0 Zr2 2.068872 1_565
H0 Zr3 2.068872 1_655
H1 Li0 2.061773 1_656
H1 Zr5 2.068861 1_656
H1 Zr3 2.068872 1_655
H1 Zr4 2.068872 1_556
H2 Li0 2.061773 1_566
H2 Zr6 2.068861 1_566
H2 Zr2 2.068872 1_565
H2 Zr4 2.068872 1_556
H3 Li0 2.061762 1_666
H3 Zr1 2.068872 1_665
H3 Zr6 2.068872 1_566
H3 Zr5 2.068872 1_656
H4 Li0 2.061773 1_556
H4 Zr1 2.068861 1_555
H4 Zr2 2.068872 1_555
H4 Zr3 2.068872 1_555
H5 Li0 2.061773 1_565
H5 Zr5 2.068861 1_555
H5 Zr3 2.068872 1_555
H5 Zr4 2.068872 1_555
H6 Li0 2.061773 1_655
H6 Zr6 2.068861 1_555
H6 Zr2 2.068872 1_555
H6 Zr4 2.068872 1_555
H7 Li0 2.061762 1_555
H7 Zr1 2.068872 1_555
H7 Zr6 2.068872 1_555
H7 Zr5 2.068872 1_555
H8 Zr0 2.060244 1_555
H8 Zr4 2.069378 1_555
H8 Zr5 2.069384 1_655
H8 Zr6 2.069384 1_565
H9 Zr0 2.060244 1_555
H9 Zr2 2.069378 1_555
H9 Zr6 2.069384 1_556
H9 Zr1 2.069384 1_655
H10 Zr0 2.060244 1_555
H10 Zr3 2.069378 1_555
H10 Zr5 2.069384 1_556
H10 Zr1 2.069384 1_565
H11 Zr0 2.060239 1_555
H11 Zr4 2.069384 1_556
H11 Zr3 2.069384 1_655
H11 Zr2 2.069384 1_565
H12 Zr0 2.060244 1_555
H12 Zr4 2.069378 1_556
H12 Zr5 2.069384 1_556
H12 Zr6 2.069384 1_556
H13 Zr0 2.060244 1_555
H13 Zr2 2.069378 1_565
H13 Zr6 2.069384 1_565
H13 Zr1 2.069384 1_565
H14 Zr0 2.060244 1_555
H14 Zr3 2.069378 1_655
H14 Zr5 2.069384 1_655
H14 Zr1 2.069384 1_655
H15 Zr0 2.060239 1_555
H15 Zr4 2.069384 1_555
H15 Zr3 2.069384 1_555
H15 Zr2 2.069384 1_555
