# generated using pymatgen
data_K3LiSn3Pb
_symmetry_space_group_name_H-M   'P 1'
_cell_length_a   8.55446536
_cell_length_b   8.70914777
_cell_length_c   10.30553300
_cell_angle_alpha   90.00000000
_cell_angle_beta   90.00000000
_cell_angle_gamma   132.00013452
_symmetry_Int_Tables_number   1
_chemical_formula_structural   K3LiSn3Pb
_chemical_formula_sum   'K6 Li2 Sn6 Pb2'
_cell_volume   570.57341163
_cell_formula_units_Z   2
loop_
 _symmetry_equiv_pos_site_id
 _symmetry_equiv_pos_as_xyz
  1  'x, y, z'
loop_
 _atom_site_type_symbol
 _atom_site_label
 _atom_site_symmetry_multiplicity
 _atom_site_fract_x
 _atom_site_fract_y
 _atom_site_fract_z
 _atom_site_occupancy
  K  K0  1  0.22221131  0.79473276  0.25000000  1
  K  K1  1  0.77778869  0.20526724  0.75000000  1
  K  K2  1  0.61596739  0.38557467  0.03741423  1
  K  K3  1  0.38403261  0.61442533  0.96258577  1
  K  K4  1  0.38403261  0.61442533  0.53741423  1
  K  K5  1  0.61596739  0.38557467  0.46258577  1
  Li  Li0  1  0.00000000  0.00000000  0.00000000  1
  Li  Li1  1  0.00000000  0.00000000  0.50000000  1
  Sn  Sn0  1  0.18409293  0.24111548  0.25000000  1
  Sn  Sn1  1  0.81590707  0.75888452  0.75000000  1
  Sn  Sn2  1  0.84469936  0.17977074  0.10921058  1
  Sn  Sn3  1  0.15530064  0.82022926  0.89078942  1
  Sn  Sn4  1  0.15530064  0.82022926  0.60921058  1
  Sn  Sn5  1  0.84469936  0.17977074  0.39078942  1
  Pb  Pb0  1  0.73171755  0.80902629  0.25000000  1
  Pb  Pb1  1  0.26828245  0.19097371  0.75000000  1
loop_
_geom_bond_atom_site_label_1
_geom_bond_atom_site_label_2
_geom_bond_distance
_geom_bond_site_symmetry_2
K0 Sn3 3.775019 1_554
K0 Sn4 3.775019 1_555
K0 Sn0 4.112950 1_565
K1 Sn2 3.775019 1_556
K1 Sn5 3.775019 1_555
K1 Sn1 4.112950 1_545
K2 Sn2 3.504583 1_555
K2 Pb1 3.707540 1_554
K2 Sn0 3.716339 1_555
K2 Pb0 3.807073 1_555
K2 Sn3 3.811362 1_654
K2 Sn1 3.850601 1_554
K2 Sn3 4.011116 1_544
K3 Sn3 3.504583 1_555
K3 Pb0 3.707540 1_556
K3 Sn1 3.716339 1_555
K3 Pb1 3.807073 1_555
K3 Sn2 3.811362 1_456
K3 Sn0 3.850601 1_556
K3 Sn2 4.011116 1_566
K4 Sn4 3.504583 1_555
K4 Pb0 3.707540 1_555
K4 Sn1 3.716339 1_555
K4 Pb1 3.807073 1_555
K4 Sn5 3.811362 1_455
K4 Sn0 3.850601 1_555
K4 Sn5 4.011116 1_565
K5 Sn5 3.504583 1_555
K5 Pb1 3.707540 1_555
K5 Sn0 3.716339 1_555
K5 Pb0 3.807073 1_555
K5 Sn4 3.811362 1_655
K5 Sn1 3.850601 1_555
K5 Sn4 4.011116 1_545
Li0 Sn3 2.875147 1_544
Li0 Sn2 2.875147 1_455
Li0 Sn0 3.016921 1_555
Li0 Sn1 3.016921 1_444
Li0 Pb1 3.092383 1_554
Li0 Pb0 3.092383 1_445
Li1 Sn4 2.875147 1_545
Li1 Sn5 2.875147 1_455
Li1 Sn0 3.016921 1_555
Li1 Sn1 3.016921 1_445
Li1 Pb1 3.092383 1_555
Li1 Pb0 3.092383 1_445
Sn0 Sn5 2.957038 1_455
Sn0 Sn2 2.957038 1_455
Sn1 Sn4 2.957038 1_655
Sn1 Sn3 2.957038 1_655
Sn2 Sn5 2.901820 1_555
Sn3 Sn4 2.901820 1_555
Pb0 Sn5 3.047709 1_565
Pb0 Sn2 3.047709 1_565
Pb0 Sn0 3.106125 1_665
Pb1 Sn4 3.047709 1_545
Pb1 Sn3 3.047709 1_545
Pb1 Sn1 3.106125 1_445
