# generated using pymatgen
data_Nb2Zn(CoSb)3
_symmetry_space_group_name_H-M   'P 1'
_cell_length_a   7.25231082
_cell_length_b   7.25231049
_cell_length_c   7.22409145
_cell_angle_alpha   99.57750218
_cell_angle_beta   99.57750891
_cell_angle_gamma   119.96589138
_symmetry_Int_Tables_number   1
_chemical_formula_structural   Nb2Zn(CoSb)3
_chemical_formula_sum   'Nb4 Zn2 Co6 Sb6'
_cell_volume   310.42748526
_cell_formula_units_Z   2
loop_
 _symmetry_equiv_pos_site_id
 _symmetry_equiv_pos_as_xyz
  1  'x, y, z'
loop_
 _atom_site_type_symbol
 _atom_site_label
 _atom_site_symmetry_multiplicity
 _atom_site_fract_x
 _atom_site_fract_y
 _atom_site_fract_z
 _atom_site_occupancy
  Nb  Nb0  1  0.00173440  0.49921911  0.49876365  1
  Nb  Nb1  1  0.33040670  0.16465265  0.49869533  1
  Nb  Nb2  1  0.49921911  0.00173440  0.99876265  1
  Nb  Nb3  1  0.16465265  0.33040670  0.99869533  1
  Zn  Zn0  1  0.83854496  0.66749903  0.00389979  1
  Zn  Zn1  1  0.66750003  0.83854596  0.50389879  1
  Co  Co0  1  0.27751074  0.44382727  0.36881332  1
  Co  Co1  1  0.62198607  0.13629574  0.36925469  1
  Co  Co2  1  0.97448107  0.79363200  0.38499628  1
  Co  Co3  1  0.44382727  0.27751074  0.86881332  1
  Co  Co4  1  0.13629474  0.62198607  0.86925469  1
  Co  Co5  1  0.79363200  0.97448107  0.88499828  1
  Sb  Sb0  1  0.25327502  0.74967571  0.24850166  1
  Sb  Sb1  1  0.58963659  0.43191203  0.24866825  1
  Sb  Sb2  1  0.90749658  0.06821135  0.25340703  1
  Sb  Sb3  1  0.74967671  0.25327602  0.74850166  1
  Sb  Sb4  1  0.43191303  0.58963759  0.74866825  1
  Sb  Sb5  1  0.06821135  0.90749658  0.75340703  1
loop_
_geom_bond_atom_site_label_1
_geom_bond_atom_site_label_2
_geom_bond_distance
_geom_bond_site_symmetry_2
Nb0 Sb3 2.947709 1_455
Nb0 Sb0 2.962402 1_555
Nb0 Sb5 2.974898 1_555
Nb0 Sb1 2.981098 1_455
Nb0 Sb2 2.999760 1_455
Nb0 Sb4 3.018360 1_555
Nb1 Sb2 2.944857 1_455
Nb1 Sb4 2.956583 1_555
Nb1 Sb3 2.958250 1_555
Nb1 Sb0 2.967957 1_545
Nb1 Sb1 3.034543 1_555
Nb1 Sb5 3.040288 1_545
Nb2 Sb0 2.947721 1_546
Nb2 Sb3 2.962402 1_555
Nb2 Sb2 2.974901 1_556
Nb2 Sb4 2.981093 1_545
Nb2 Sb5 2.999757 1_545
Nb2 Sb1 3.018360 1_556
Nb3 Sb5 2.944857 1_545
Nb3 Sb1 2.956580 1_556
Nb3 Sb0 2.958247 1_556
Nb3 Sb3 2.967954 1_455
Nb3 Sb4 3.034549 1_555
Nb3 Sb2 3.040288 1_456
Co0 Nb0 2.518857 1_555
Co0 Nb3 2.522479 1_554
Co0 Nb1 2.532795 1_555
Co0 Sb2 2.552258 1_455
Co0 Sb0 2.585817 1_555
Co0 Sb1 2.590183 1_555
Co0 Sb4 2.594461 1_555
Co0 Zn1 2.685187 1_555
Co1 Nb2 2.525559 1_554
Co1 Nb1 2.533132 1_555
Co1 Sb1 2.542860 1_555
Co1 Nb0 2.543541 1_655
Co1 Sb3 2.584728 1_555
Co1 Sb2 2.586911 1_555
Co1 Sb0 2.587095 1_545
Co1 Zn1 2.649921 1_545
Co2 Nb1 2.489666 1_665
Co2 Nb0 2.494988 1_655
Co2 Sb5 2.516567 1_655
Co2 Sb0 2.522838 1_655
Co2 Sb2 2.558847 1_565
Co2 Sb1 2.559862 1_555
Co2 Zn0 2.597313 1_555
Co2 Zn1 2.658591 1_555
Co3 Nb2 2.518854 1_555
Co3 Nb1 2.522479 1_555
Co3 Nb3 2.532796 1_555
Co3 Sb5 2.552258 1_545
Co3 Sb3 2.585821 1_555
Co3 Sb4 2.590187 1_555
Co3 Sb1 2.594460 1_556
Co3 Zn0 2.685180 1_556
Co4 Nb0 2.525552 1_555
Co4 Nb3 2.533135 1_555
Co4 Sb4 2.542871 1_555
Co4 Nb2 2.543544 1_565
Co4 Sb0 2.584727 1_556
Co4 Sb5 2.586907 1_555
Co4 Sb3 2.587084 1_455
Co4 Zn0 2.649922 1_456
Co5 Nb3 2.489667 1_665
Co5 Nb2 2.494978 1_565
Co5 Sb2 2.516553 1_566
Co5 Sb3 2.522849 1_565
Co5 Sb5 2.558854 1_655
Co5 Sb4 2.559855 1_555
Co5 Zn1 2.597333 1_555
Co5 Zn0 2.658591 1_556
Sb0 Zn0 2.935039 1_455
Sb0 Zn1 2.944447 1_555
Sb1 Zn0 2.879381 1_555
Sb1 Zn1 2.931875 1_555
Sb2 Zn1 2.869362 1_545
Sb2 Zn0 2.906818 1_545
Sb3 Zn1 2.935042 1_545
Sb3 Zn0 2.944444 1_556
Sb4 Zn1 2.879386 1_555
Sb4 Zn0 2.931872 1_556
Sb5 Zn0 2.869374 1_456
Sb5 Zn1 2.906818 1_455
