# generated using pymatgen
data_Y8Cd2RuPt
_symmetry_space_group_name_H-M   'P 1'
_cell_length_a   9.65852026
_cell_length_b   9.65852046
_cell_length_c   9.71092009
_cell_angle_alpha   59.82037559
_cell_angle_beta   59.82037488
_cell_angle_gamma   59.77422145
_symmetry_Int_Tables_number   1
_chemical_formula_structural   Y8Cd2RuPt
_chemical_formula_sum   'Y16 Cd4 Ru2 Pt2'
_cell_volume   637.73406420
_cell_formula_units_Z   2
loop_
 _symmetry_equiv_pos_site_id
 _symmetry_equiv_pos_as_xyz
  1  'x, y, z'
loop_
 _atom_site_type_symbol
 _atom_site_label
 _atom_site_symmetry_multiplicity
 _atom_site_fract_x
 _atom_site_fract_y
 _atom_site_fract_z
 _atom_site_occupancy
  Y  Y0  1  0.34891003  0.34891003  0.35546722  1
  Y  Y1  1  0.34891003  0.34891003  0.94671273  1
  Y  Y2  1  0.34695547  0.95483293  0.34910580  1
  Y  Y3  1  0.95483293  0.34695547  0.34910580  1
  Y  Y4  1  0.81414791  0.18965005  0.19101098  1
  Y  Y5  1  0.18965005  0.81414791  0.80519207  1
  Y  Y6  1  0.18965005  0.81414791  0.19101098  1
  Y  Y7  1  0.81414791  0.18965005  0.80519207  1
  Y  Y8  1  0.18847754  0.18847754  0.81152246  1
  Y  Y9  1  0.80817650  0.80817650  0.19182350  1
  Y  Y10  1  0.93666721  0.55958466  0.56542060  1
  Y  Y11  1  0.55958466  0.93666721  0.93832753  1
  Y  Y12  1  0.55958466  0.93666721  0.56542060  1
  Y  Y13  1  0.93666721  0.55958466  0.93832753  1
  Y  Y14  1  0.56099067  0.56099067  0.93900933  1
  Y  Y15  1  0.93823292  0.93823292  0.56176708  1
  Cd  Cd0  1  0.57999778  0.57999778  0.57939708  1
  Cd  Cd1  1  0.57999778  0.57999778  0.26060736  1
  Cd  Cd2  1  0.58039113  0.25882773  0.58039057  1
  Cd  Cd3  1  0.25882773  0.58039113  0.58039057  1
  Ru  Ru0  1  0.14273136  0.14273136  0.13907445  1
  Ru  Ru1  1  0.14273136  0.14273136  0.57546382  1
  Pt  Pt0  1  0.14581321  0.57392591  0.14013094  1
  Pt  Pt1  1  0.57392591  0.14581321  0.14013094  1
loop_
_geom_bond_atom_site_label_1
_geom_bond_atom_site_label_2
_geom_bond_distance
_geom_bond_site_symmetry_2
Y0 Y10 3.464521 1_455
Y0 Y12 3.464521 1_545
Y0 Y14 3.509091 1_554
Y1 Y13 3.464521 1_455
Y1 Y11 3.464521 1_545
Y1 Y14 3.509091 1_555
Y10 Y3 3.502149 1_555
Y10 Y7 3.565166 1_555
Y10 Y8 3.595640 1_655
Y10 Y14 3.618345 1_555
Y10 Y13 3.621269 1_555
Y10 Y12 3.629623 1_555
Y10 Y9 3.638123 1_555
Y10 Y15 3.647075 1_555
Y10 Y6 3.655620 1_655
Y11 Y2 3.502149 1_556
Y11 Y6 3.565166 1_556
Y11 Y8 3.595639 1_565
Y11 Y14 3.618345 1_555
Y11 Y12 3.621269 1_555
Y11 Y13 3.629623 1_555
Y11 Y9 3.638122 1_556
Y11 Y15 3.647075 1_555
Y11 Y7 3.655623 1_565
Y12 Y2 3.502149 1_555
Y12 Y5 3.565165 1_555
Y12 Y8 3.595639 1_565
Y12 Y14 3.618345 1_555
Y12 Y9 3.638123 1_555
Y12 Y15 3.647075 1_555
Y12 Y4 3.655620 1_565
Y13 Y3 3.502149 1_556
Y13 Y4 3.565166 1_556
Y13 Y8 3.595639 1_655
Y13 Y14 3.618345 1_555
Y13 Y9 3.638122 1_556
Y13 Y15 3.647075 1_555
Y13 Y5 3.655623 1_655
Y14 Y5 3.632206 1_555
Y14 Y7 3.632206 1_555
Y14 Y6 3.632211 1_556
Y14 Y4 3.632211 1_556
Y15 Y2 3.461524 1_655
Y15 Y3 3.461524 1_565
Y15 Y6 3.593576 1_655
Y15 Y4 3.593576 1_565
Y15 Y5 3.593584 1_655
Y15 Y7 3.593584 1_565
Cd0 Cd3 3.095281 1_555
Cd0 Cd2 3.095281 1_555
Cd0 Cd1 3.095742 1_555
Cd0 Y10 3.285971 1_555
Cd0 Y12 3.285971 1_555
Cd0 Y14 3.317742 1_555
Cd0 Y1 3.419527 1_555
Cd0 Y3 3.448299 1_555
Cd0 Y2 3.448299 1_555
Cd0 Y9 3.477104 1_555
Cd0 Y5 3.496601 1_555
Cd0 Y7 3.496601 1_555
Cd1 Cd3 3.095281 1_555
Cd1 Cd2 3.095281 1_555
Cd1 Y13 3.285971 1_554
Cd1 Y11 3.285971 1_554
Cd1 Y14 3.317742 1_554
Cd1 Y0 3.419527 1_555
Cd1 Y3 3.448299 1_555
Cd1 Y2 3.448299 1_555
Cd1 Y9 3.477103 1_555
Cd1 Y6 3.496597 1_555
Cd1 Y4 3.496597 1_555
Cd2 Cd3 3.095222 1_555
Cd2 Y15 3.275034 1_545
Cd2 Y12 3.295037 1_545
Cd2 Y11 3.295037 1_545
Cd2 Y0 3.401043 1_555
Cd2 Y1 3.401043 1_555
Cd2 Y3 3.443668 1_555
Cd2 Y4 3.504218 1_555
Cd2 Y7 3.504226 1_555
Cd2 Y8 3.513119 1_555
Cd3 Y15 3.275034 1_455
Cd3 Y10 3.295037 1_455
Cd3 Y13 3.295037 1_455
Cd3 Y0 3.401043 1_555
Cd3 Y1 3.401043 1_555
Cd3 Y2 3.443668 1_555
Cd3 Y6 3.504218 1_555
Cd3 Y5 3.504226 1_555
Cd3 Y8 3.513119 1_555
Ru0 Y4 2.775637 1_455
Ru0 Y6 2.775637 1_545
Ru0 Y8 2.806884 1_554
Ru0 Y1 2.816574 1_554
Ru0 Y2 2.839632 1_545
Ru0 Y3 2.839632 1_455
Ru0 Y11 3.451581 1_544
Ru0 Y13 3.451581 1_454
Ru0 Y15 3.503741 1_445
Ru1 Y7 2.775637 1_455
Ru1 Y5 2.775637 1_545
Ru1 Y8 2.806875 1_555
Ru1 Y0 2.816574 1_555
Ru1 Y2 2.839639 1_545
Ru1 Y3 2.839639 1_455
Ru1 Y12 3.451579 1_545
Ru1 Y10 3.451579 1_455
Ru1 Y15 3.503747 1_445
Pt0 Y9 2.841310 1_455
Pt0 Y6 2.856339 1_555
Pt0 Y5 2.856339 1_554
Pt0 Y3 2.856794 1_455
Pt0 Y0 2.864721 1_555
Pt0 Y1 2.864728 1_554
Pt0 Y14 3.431737 1_554
Pt0 Y10 3.531980 1_455
Pt0 Y13 3.531988 1_454
Pt1 Y9 2.841310 1_545
Pt1 Y4 2.856339 1_555
Pt1 Y7 2.856339 1_554
Pt1 Y2 2.856794 1_545
Pt1 Y0 2.864721 1_555
Pt1 Y1 2.864728 1_554
Pt1 Y14 3.431737 1_554
Pt1 Y12 3.531980 1_545
Pt1 Y11 3.531988 1_544
