# generated using pymatgen
data_Cs4Hg(PS4)2
_symmetry_space_group_name_H-M   'P 1'
_cell_length_a   12.62442116
_cell_length_b   7.26442238
_cell_length_c   10.97319882
_cell_angle_alpha   83.59217314
_cell_angle_beta   90.00000000
_cell_angle_gamma   90.00000000
_symmetry_Int_Tables_number   1
_chemical_formula_structural   Cs4Hg(PS4)2
_chemical_formula_sum   'Cs8 Hg2 P4 S16'
_cell_volume   1000.05554956
_cell_formula_units_Z   2
loop_
 _symmetry_equiv_pos_site_id
 _symmetry_equiv_pos_as_xyz
  1  'x, y, z'
loop_
 _atom_site_type_symbol
 _atom_site_label
 _atom_site_symmetry_multiplicity
 _atom_site_fract_x
 _atom_site_fract_y
 _atom_site_fract_z
 _atom_site_occupancy
  Cs  Cs0  1  0.13749222  0.79404243  0.73281964  1
  Cs  Cs1  1  0.63749222  0.20595757  0.76718036  1
  Cs  Cs2  1  0.86250778  0.20595757  0.26718036  1
  Cs  Cs3  1  0.36250778  0.79404243  0.23281964  1
  Cs  Cs4  1  0.33599638  0.25084621  0.55435812  1
  Cs  Cs5  1  0.83599638  0.74915379  0.94564188  1
  Cs  Cs6  1  0.66400362  0.74915379  0.44564188  1
  Cs  Cs7  1  0.16400362  0.25084621  0.05435812  1
  Hg  Hg0  1  0.00000000  0.50000000  0.50000000  1
  Hg  Hg1  1  0.50000000  0.50000000  0.00000000  1
  P  P0  1  0.44687790  0.74143741  0.74207420  1
  P  P1  1  0.94687790  0.25856259  0.75792580  1
  P  P2  1  0.55312210  0.25856259  0.25792580  1
  P  P3  1  0.05312210  0.74143741  0.24207420  1
  S  S0  1  0.10646910  0.28764478  0.74545445  1
  S  S1  1  0.60646910  0.71235522  0.75454555  1
  S  S2  1  0.89353090  0.71235522  0.25454555  1
  S  S3  1  0.39353090  0.28764478  0.24545445  1
  S  S4  1  0.38969324  0.74838920  0.56989831  1
  S  S5  1  0.88969324  0.25161080  0.93010169  1
  S  S6  1  0.61030676  0.25161080  0.43010169  1
  S  S7  1  0.11030676  0.74838920  0.06989831  1
  S  S8  1  0.11592293  0.48603841  0.33178023  1
  S  S9  1  0.61592293  0.51396159  0.16821977  1
  S  S10  1  0.88407707  0.51396159  0.66821977  1
  S  S11  1  0.38407707  0.48603841  0.83178023  1
  S  S12  1  0.39407063  0.94864132  0.83199151  1
  S  S13  1  0.89407063  0.05135868  0.66800849  1
  S  S14  1  0.60592937  0.05135868  0.16800849  1
  S  S15  1  0.10592937  0.94864132  0.33199151  1
loop_
_geom_bond_atom_site_label_1
_geom_bond_atom_site_label_2
_geom_bond_distance
_geom_bond_site_symmetry_2
Cs0 S0 3.625063 1_565
Cs0 S13 3.625857 1_465
Cs0 S12 3.634619 1_555
Cs0 S4 3.684510 1_555
Cs0 S0 3.686665 1_555
Cs0 S7 3.692603 1_556
Cs0 S10 3.898606 1_455
Cs0 Hg0 3.914145 1_555
Cs0 S11 3.915848 1_555
Cs1 S1 3.625063 1_545
Cs1 S12 3.625857 1_545
Cs1 S13 3.634619 1_555
Cs1 S5 3.684510 1_555
Cs1 S1 3.686665 1_555
Cs1 S6 3.692603 1_555
Cs1 S11 3.898606 1_555
Cs1 Hg1 3.914145 1_556
Cs1 S10 3.915848 1_555
Cs2 S2 3.625063 1_545
Cs2 S15 3.625857 1_645
Cs2 S14 3.634619 1_555
Cs2 S6 3.684510 1_555
Cs2 S2 3.686665 1_555
Cs2 S5 3.692603 1_554
Cs2 S8 3.898606 1_655
Cs2 Hg0 3.914145 1_655
Cs2 S9 3.915848 1_555
Cs3 S3 3.625063 1_565
Cs3 S14 3.625857 1_565
Cs3 S15 3.634619 1_555
Cs3 S7 3.684510 1_555
Cs3 S3 3.686665 1_555
Cs3 S4 3.692603 1_555
Cs3 S9 3.898606 1_555
Cs3 Hg1 3.914145 1_555
Cs3 S8 3.915848 1_555
Cs4 S3 3.447692 1_555
Cs4 S0 3.604178 1_555
Cs4 S12 3.625674 1_545
Cs4 S4 3.697651 1_545
Cs4 S4 3.699974 1_555
Cs4 S11 3.703468 1_555
Cs4 S6 3.721543 1_555
Cs4 S8 3.958773 1_555
Cs5 S2 3.447692 1_556
Cs5 S1 3.604178 1_555
Cs5 S13 3.625674 1_565
Cs5 S5 3.697651 1_565
Cs5 S5 3.699974 1_555
Cs5 S10 3.703468 1_555
Cs5 S7 3.721543 1_656
Cs5 S9 3.958773 1_556
Cs6 S1 3.447692 1_555
Cs6 S2 3.604178 1_555
Cs6 S14 3.625674 1_565
Cs6 S6 3.697651 1_565
Cs6 S6 3.699974 1_555
Cs6 S9 3.703468 1_555
Cs6 S4 3.721543 1_555
Cs6 S10 3.958773 1_555
Cs7 S0 3.447692 1_554
Cs7 S3 3.604178 1_555
Cs7 S15 3.625674 1_545
Cs7 S7 3.697651 1_545
Cs7 S7 3.699974 1_555
Cs7 S8 3.703468 1_555
Cs7 S5 3.721543 1_454
Cs7 S11 3.958773 1_554
Hg0 S10 2.366679 1_455
Hg0 S8 2.366679 1_555
Hg1 S9 2.366679 1_555
Hg1 S11 2.366679 1_554
P0 S12 2.003786 1_555
P0 S4 2.017909 1_555
P0 S1 2.028820 1_555
P0 S11 2.152237 1_555
P1 S13 2.003786 1_555
P1 S5 2.017909 1_555
P1 S0 2.028820 1_655
P1 S10 2.152237 1_555
P2 S14 2.003786 1_555
P2 S6 2.017909 1_555
P2 S3 2.028820 1_555
P2 S9 2.152237 1_555
P3 S15 2.003786 1_555
P3 S7 2.017909 1_555
P3 S2 2.028820 1_455
P3 S8 2.152237 1_555
