# generated using pymatgen
data_Li2B2IrOs
_symmetry_space_group_name_H-M   'P 1'
_cell_length_a   6.85001568
_cell_length_b   6.04270853
_cell_length_c   5.49789443
_cell_angle_alpha   72.64617841
_cell_angle_beta   57.35096014
_cell_angle_gamma   50.54203718
_symmetry_Int_Tables_number   1
_chemical_formula_structural   Li2B2IrOs
_chemical_formula_sum   'Li4 B4 Ir2 Os2'
_cell_volume   147.59509748
_cell_formula_units_Z   2
loop_
 _symmetry_equiv_pos_site_id
 _symmetry_equiv_pos_as_xyz
  1  'x, y, z'
loop_
 _atom_site_type_symbol
 _atom_site_label
 _atom_site_symmetry_multiplicity
 _atom_site_fract_x
 _atom_site_fract_y
 _atom_site_fract_z
 _atom_site_occupancy
  Li  Li0  1  0.12500000  0.62500000  0.62500000  1
  Li  Li1  1  0.62500000  0.62500000  0.62500000  1
  Li  Li2  1  0.62500000  0.62500000  0.12500000  1
  Li  Li3  1  0.62500000  0.12500000  0.62500000  1
  B  B0  1  0.43429878  0.06812051  0.42727072  1
  B  B1  1  0.18187949  0.81570122  0.17968900  1
  B  B2  1  0.06812051  0.43429878  0.07031100  1
  B  B3  1  0.81570122  0.18187949  0.82272928  1
  Ir  Ir0  1  0.13543890  0.13543890  0.86456110  1
  Ir  Ir1  1  0.11456110  0.11456110  0.38543890  1
  Os  Os0  1  0.38369783  0.38369783  0.11630217  1
  Os  Os1  1  0.86630217  0.86630217  0.13369783  1
loop_
_geom_bond_atom_site_label_1
_geom_bond_atom_site_label_2
_geom_bond_distance
_geom_bond_site_symmetry_2
Li0 Os1 2.624737 1_456
Li0 Os0 2.624737 1_555
Li1 Os1 2.837394 1_555
Li1 Os0 2.837394 1_556
Li2 Os1 2.837394 1_555
Li2 Os0 2.837394 1_555
Li3 Os0 2.624737 1_556
Li3 Os1 2.624737 1_545
B0 Os1 2.069567 1_545
B0 Ir0 2.085888 1_555
B0 Os0 2.129310 1_555
B0 Ir1 2.156954 1_555
B0 Li3 2.309145 1_555
B0 Li1 2.325506 1_545
B0 Li2 2.739406 1_545
B0 Li0 2.762165 1_555
B1 Os0 2.069566 1_555
B1 Ir1 2.085891 1_565
B1 Os1 2.129306 1_455
B1 Ir0 2.156950 1_564
B1 Li0 2.309149 1_555
B1 Li2 2.325508 1_555
B1 Li1 2.739403 1_554
B1 Li3 2.762167 1_465
B2 Os1 2.069566 1_455
B2 Ir0 2.085891 1_554
B2 Os0 2.129306 1_555
B2 Ir1 2.156950 1_555
B2 Li0 2.309149 1_554
B2 Li2 2.325508 1_455
B2 Li1 2.739403 1_455
B2 Li3 2.762167 1_554
B3 Os0 2.069567 1_556
B3 Ir1 2.085888 1_655
B3 Os1 2.129310 1_546
B3 Ir0 2.156954 1_655
B3 Li3 2.309145 1_555
B3 Li1 2.325506 1_555
B3 Li2 2.739406 1_556
B3 Li0 2.762165 1_645
Ir0 Li1 2.646717 1_545
Ir0 Li2 2.646717 1_456
Ir0 Li0 2.828366 1_555
Ir0 Li3 2.828366 1_555
Ir1 Li1 2.646717 1_455
Ir1 Li2 2.646717 1_545
Ir1 Li0 2.828366 1_545
Ir1 Li3 2.828366 1_455
