# generated using pymatgen
data_Nb2B(IrRu2)2
_symmetry_space_group_name_H-M   'P 1'
_cell_length_a   5.62183128
_cell_length_b   5.62183206
_cell_length_c   5.61115926
_cell_angle_alpha   60.06278057
_cell_angle_beta   60.06277600
_cell_angle_gamma   59.81418934
_symmetry_Int_Tables_number   1
_chemical_formula_structural   Nb2B(IrRu2)2
_chemical_formula_sum   'Nb2 B1 Ir2 Ru4'
_cell_volume   125.34008776
_cell_formula_units_Z   1
loop_
 _symmetry_equiv_pos_site_id
 _symmetry_equiv_pos_as_xyz
  1  'x, y, z'
loop_
 _atom_site_type_symbol
 _atom_site_label
 _atom_site_symmetry_multiplicity
 _atom_site_fract_x
 _atom_site_fract_y
 _atom_site_fract_z
 _atom_site_occupancy
  Nb  Nb0  1  0.25004571  0.25004571  0.24982998  1
  Nb  Nb1  1  0.74995429  0.74995429  0.74992139  1
  B  B0  1  0.50000000  0.50000000  0.50494384  1
  Ir  Ir0  1  0.75855025  0.24144975  0.24079342  1
  Ir  Ir1  1  0.24144975  0.75855025  0.24079342  1
  Ru  Ru0  1  0.75782700  0.75782700  0.24099899  1
  Ru  Ru1  1  0.24217300  0.24217300  0.75665399  1
  Ru  Ru2  1  0.75922554  0.24077446  0.75803198  1
  Ru  Ru3  1  0.24077446  0.75922554  0.75803198  1
loop_
_geom_bond_atom_site_label_1
_geom_bond_atom_site_label_2
_geom_bond_distance
_geom_bond_site_symmetry_2
Nb0 Ru1 2.800398 1_555
Nb0 Ru0 2.803710 1_545
Nb0 Ru0 2.803710 1_455
Nb0 Ru2 2.809075 1_455
Nb0 Ru3 2.809075 1_545
Nb0 Ru1 2.812164 1_554
Nb0 Ru2 2.814451 1_554
Nb0 Ru3 2.814451 1_554
Nb1 Ru0 2.800393 1_556
Nb1 Ru1 2.803710 1_565
Nb1 Ru1 2.803710 1_655
Nb1 Ru3 2.809075 1_655
Nb1 Ru2 2.809075 1_565
Nb1 Ru0 2.812170 1_555
Nb1 Ru3 2.814451 1_555
Nb1 Ru2 2.814451 1_555
B0 Ru2 2.031897 1_555
B0 Ru3 2.031897 1_555
B0 Ru1 2.054947 1_555
B0 Ru0 2.054947 1_555
B0 Ir1 2.073106 1_555
B0 Ir0 2.073106 1_555
Ir0 Nb0 2.809995 1_555
Ir0 Nb1 2.809995 1_554
Ir0 Nb0 2.813577 1_655
Ir0 Nb1 2.813577 1_545
Ir1 Nb1 2.809995 1_554
Ir1 Nb0 2.809995 1_555
Ir1 Nb1 2.813577 1_455
Ir1 Nb0 2.813577 1_565
