# generated using pymatgen
data_SrAl5CuPd
_symmetry_space_group_name_H-M   'P 1'
_cell_length_a   6.47012683
_cell_length_b   6.47012720
_cell_length_c   6.47012663
_cell_angle_alpha   143.29537830
_cell_angle_beta   111.31925252
_cell_angle_gamma   80.48582824
_symmetry_Int_Tables_number   1
_chemical_formula_structural   SrAl5CuPd
_chemical_formula_sum   'Sr1 Al5 Cu1 Pd1'
_cell_volume   146.88561872
_cell_formula_units_Z   1
loop_
 _symmetry_equiv_pos_site_id
 _symmetry_equiv_pos_as_xyz
  1  'x, y, z'
loop_
 _atom_site_type_symbol
 _atom_site_label
 _atom_site_symmetry_multiplicity
 _atom_site_fract_x
 _atom_site_fract_y
 _atom_site_fract_z
 _atom_site_occupancy
  Sr  Sr0  1  0.00402606  0.00402606  1.00000000  1
  Al  Al0  1  0.53086514  0.34591159  0.18495355  1
  Al  Al1  1  0.84430173  0.65579872  0.18850401  1
  Al  Al2  1  0.49586987  0.99586887  0.50000100  1
  Al  Al3  1  0.16095905  0.34591159  0.81504745  1
  Al  Al4  1  0.46729671  0.65579972  0.81149699  1
  Cu  Cu0  1  0.25807818  0.75807818  0.50000000  1
  Pd  Pd0  1  0.73860526  0.23860426  0.50000100  1
loop_
_geom_bond_atom_site_label_1
_geom_bond_atom_site_label_2
_geom_bond_distance
_geom_bond_site_symmetry_2
Al0 Pd0 2.532252 1_555
Al0 Cu0 2.593368 1_544
Al0 Cu0 2.593369 1_555
Al0 Sr0 3.446453 1_665
Al0 Sr0 3.446454 1_654
Al1 Cu0 2.488161 1_655
Al1 Pd0 2.590846 1_565
Al1 Pd0 2.590848 1_554
Al1 Sr0 3.401142 1_665
Al1 Sr0 3.401145 1_654
Al2 Cu0 2.348767 1_555
Al2 Pd0 2.397608 1_565
Al3 Pd0 2.532245 1_455
Al3 Cu0 2.593365 1_556
Al3 Cu0 2.593365 1_545
Al3 Sr0 3.446458 1_554
Al3 Sr0 3.446459 1_565
Al4 Cu0 2.488158 1_555
Al4 Pd0 2.590848 1_566
Al4 Pd0 2.590848 1_555
Al4 Sr0 3.401152 1_554
Al4 Sr0 3.401152 1_565
Cu0 Sr0 3.232202 1_554
Cu0 Sr0 3.232202 1_565
Pd0 Sr0 3.320145 1_665
Pd0 Sr0 3.320146 1_654
