# generated using pymatgen
data_Nb3ZnGa2Ir3
_symmetry_space_group_name_H-M   'P 1'
_cell_length_a   14.91198123
_cell_length_b   14.89783588
_cell_length_c   5.80579430
_cell_angle_alpha   90.00000000
_cell_angle_beta   90.00000000
_cell_angle_gamma   120.03140949
_symmetry_Int_Tables_number   1
_chemical_formula_structural   Nb3ZnGa2Ir3
_chemical_formula_sum   'Nb24 Zn8 Ga16 Ir24'
_cell_volume   1116.64022304
_cell_formula_units_Z   8
loop_
 _symmetry_equiv_pos_site_id
 _symmetry_equiv_pos_as_xyz
  1  'x, y, z'
loop_
 _atom_site_type_symbol
 _atom_site_label
 _atom_site_symmetry_multiplicity
 _atom_site_fract_x
 _atom_site_fract_y
 _atom_site_fract_z
 _atom_site_occupancy
  Nb  Nb0_0  1  0.18619882  0.50000000  0.25000050  1
  Nb  Nb0_1  1  0.18619882  0.50000000  0.75000050  1
  Nb  Nb0_2  1  0.18619882  1.00000000  0.25000050  1
  Nb  Nb0_3  1  0.18619882  1.00000000  0.75000050  1
  Nb  Nb0_4  1  0.68619882  0.50000000  0.25000050  1
  Nb  Nb0_5  1  0.68619882  0.50000000  0.75000050  1
  Nb  Nb0_6  1  0.68619882  1.00000000  0.25000050  1
  Nb  Nb0_7  1  0.68619882  1.00000000  0.75000050  1
  Nb  Nb1_0  1  0.49757291  0.18048489  0.25000050  1
  Nb  Nb1_1  1  0.49757291  0.18048489  0.75000050  1
  Nb  Nb1_2  1  0.49757291  0.68048489  0.25000050  1
  Nb  Nb1_3  1  0.49757291  0.68048489  0.75000050  1
  Nb  Nb1_4  1  0.99757291  0.18048489  0.25000050  1
  Nb  Nb1_5  1  0.99757291  0.18048489  0.75000050  1
  Nb  Nb1_6  1  0.99757291  0.68048489  0.25000050  1
  Nb  Nb1_7  1  0.99757291  0.68048489  0.75000050  1
  Nb  Nb2_0  1  0.31708802  0.31951511  0.25000050  1
  Nb  Nb2_1  1  0.31708802  0.31951511  0.75000050  1
  Nb  Nb2_2  1  0.31708802  0.81951511  0.25000050  1
  Nb  Nb2_3  1  0.31708802  0.81951511  0.75000050  1
  Nb  Nb2_4  1  0.81708802  0.31951511  0.25000050  1
  Nb  Nb2_5  1  0.81708802  0.31951511  0.75000050  1
  Nb  Nb2_6  1  0.81708802  0.81951511  0.25000050  1
  Nb  Nb2_7  1  0.81708802  0.81951511  0.75000050  1
  Zn  Zn0_0  1  0.35137174  0.50000000  0.00000000  1
  Zn  Zn0_1  1  0.35137174  0.50000000  0.50000000  1
  Zn  Zn0_2  1  0.35137174  1.00000000  0.00000000  1
  Zn  Zn0_3  1  0.35137174  1.00000000  0.50000000  1
  Zn  Zn0_4  1  0.85137174  0.50000000  0.00000000  1
  Zn  Zn0_5  1  0.85137174  0.50000000  0.50000000  1
  Zn  Zn0_6  1  0.85137174  1.00000000  0.00000000  1
  Zn  Zn0_7  1  0.85137174  1.00000000  0.50000000  1
  Ga  Ga0_0  1  0.14767221  0.14700743  0.00000000  1
  Ga  Ga0_1  1  0.14767221  0.14700743  0.50000000  1
  Ga  Ga0_2  1  0.14767221  0.64700743  0.00000000  1
  Ga  Ga0_3  1  0.14767221  0.64700743  0.50000000  1
  Ga  Ga0_4  1  0.64767221  0.14700743  0.00000000  1
  Ga  Ga0_5  1  0.64767221  0.14700743  0.50000000  1
  Ga  Ga0_6  1  0.64767221  0.64700743  0.00000000  1
  Ga  Ga0_7  1  0.64767221  0.64700743  0.50000000  1
  Ga  Ga1_0  1  0.00066528  0.35299307  0.00000000  1
  Ga  Ga1_1  1  0.00066528  0.35299307  0.50000000  1
  Ga  Ga1_2  1  0.00066528  0.85299307  0.00000000  1
  Ga  Ga1_3  1  0.00066528  0.85299307  0.50000000  1
  Ga  Ga1_4  1  0.50066528  0.35299307  0.00000000  1
  Ga  Ga1_5  1  0.50066528  0.35299307  0.50000000  1
  Ga  Ga1_6  1  0.50066528  0.85299307  0.00000000  1
  Ga  Ga1_7  1  0.50066528  0.85299307  0.50000000  1
  Ir  Ir0_0  1  0.33350712  0.16850856  0.00000000  1
  Ir  Ir0_1  1  0.33350712  0.16850856  0.50000000  1
  Ir  Ir0_2  1  0.33350712  0.66850856  0.00000000  1
  Ir  Ir0_3  1  0.33350712  0.66850856  0.50000000  1
  Ir  Ir0_4  1  0.83350712  0.16850856  0.00000000  1
  Ir  Ir0_5  1  0.83350712  0.16850856  0.50000000  1
  Ir  Ir0_6  1  0.83350712  0.66850856  0.00000000  1
  Ir  Ir0_7  1  0.83350712  0.66850856  0.50000000  1
  Ir  Ir1_0  1  0.16499906  0.33149194  0.00000000  1
  Ir  Ir1_1  1  0.16499906  0.33149194  0.50000000  1
  Ir  Ir1_2  1  0.16499906  0.83149194  0.00000000  1
  Ir  Ir1_3  1  0.16499906  0.83149194  0.50000000  1
  Ir  Ir1_4  1  0.66499906  0.33149194  0.00000000  1
  Ir  Ir1_5  1  0.66499906  0.33149194  0.50000000  1
  Ir  Ir1_6  1  0.66499906  0.83149194  0.00000000  1
  Ir  Ir1_7  1  0.66499906  0.83149194  0.50000000  1
  Ir  Ir2_0  1  0.00092485  0.50000000  0.25000050  1
  Ir  Ir2_1  1  0.00092485  0.50000000  0.75000050  1
  Ir  Ir2_2  1  0.00092485  1.00000000  0.25000050  1
  Ir  Ir2_3  1  0.00092485  1.00000000  0.75000050  1
  Ir  Ir2_4  1  0.50092485  0.50000000  0.25000050  1
  Ir  Ir2_5  1  0.50092485  0.50000000  0.75000050  1
  Ir  Ir2_6  1  0.50092485  1.00000000  0.25000050  1
  Ir  Ir2_7  1  0.50092485  1.00000000  0.75000050  1
loop_
_geom_bond_atom_site_label_1
_geom_bond_atom_site_label_2
_geom_bond_distance
_geom_bond_site_symmetry_2
Nb0_0 Zn0_1 2.858905 1_555
Nb0_0 Zn0_0 2.858908 1_555
Nb0_0 Nb0_1 2.902897 1_555
Nb0_0 Nb0_1 2.902897 1_554
Nb0_1 Zn0_0 2.858905 1_556
Nb0_1 Zn0_1 2.858908 1_555
Nb0_2 Zn0_3 2.858905 1_555
Nb0_2 Zn0_2 2.858908 1_555
Nb0_2 Nb0_3 2.902897 1_555
Nb0_2 Nb0_3 2.902897 1_554
Nb0_3 Zn0_2 2.858905 1_556
Nb0_3 Zn0_3 2.858908 1_555
Nb0_4 Zn0_5 2.858905 1_555
Nb0_4 Zn0_4 2.858908 1_555
Nb0_4 Nb0_5 2.902897 1_555
Nb0_4 Nb0_5 2.902897 1_554
Nb0_5 Zn0_4 2.858905 1_556
Nb0_5 Zn0_5 2.858908 1_555
Nb0_6 Zn0_7 2.858905 1_555
Nb0_6 Zn0_6 2.858908 1_555
Nb0_6 Nb0_7 2.902897 1_555
Nb0_6 Nb0_7 2.902897 1_554
Nb0_7 Zn0_6 2.858905 1_556
Nb0_7 Zn0_7 2.858908 1_555
Nb1_0 Zn0_3 2.867394 1_545
Nb1_0 Zn0_2 2.867397 1_545
Nb1_0 Nb1_1 2.902897 1_555
Nb1_0 Nb1_1 2.902897 1_554
Nb1_1 Zn0_2 2.867394 1_546
Nb1_1 Zn0_3 2.867397 1_545
Nb1_2 Zn0_1 2.867394 1_555
Nb1_2 Zn0_0 2.867397 1_555
Nb1_2 Nb1_3 2.902897 1_555
Nb1_2 Nb1_3 2.902897 1_554
Nb1_3 Zn0_0 2.867394 1_556
Nb1_3 Zn0_1 2.867397 1_555
Nb1_4 Zn0_7 2.867394 1_545
Nb1_4 Zn0_6 2.867397 1_545
Nb1_4 Nb1_5 2.902897 1_555
Nb1_4 Nb1_5 2.902897 1_554
Nb1_5 Zn0_6 2.867394 1_546
Nb1_5 Zn0_7 2.867397 1_545
Nb1_6 Zn0_5 2.867394 1_555
Nb1_6 Zn0_4 2.867397 1_555
Nb1_6 Nb1_7 2.902897 1_555
Nb1_6 Nb1_7 2.902897 1_554
Nb1_7 Zn0_4 2.867394 1_556
Nb1_7 Zn0_5 2.867397 1_555
Nb2_0 Zn0_1 2.867394 1_555
Nb2_0 Zn0_0 2.867397 1_555
Nb2_0 Nb2_1 2.902897 1_555
Nb2_0 Nb2_1 2.902897 1_554
Nb2_1 Zn0_0 2.867394 1_556
Nb2_1 Zn0_1 2.867397 1_555
Nb2_2 Zn0_3 2.867394 1_555
Nb2_2 Zn0_2 2.867397 1_555
Nb2_2 Nb2_3 2.902897 1_555
Nb2_2 Nb2_3 2.902897 1_554
Nb2_3 Zn0_2 2.867394 1_556
Nb2_3 Zn0_3 2.867397 1_555
Nb2_4 Zn0_5 2.867394 1_555
Nb2_4 Zn0_4 2.867397 1_555
Nb2_4 Nb2_5 2.902897 1_555
Nb2_4 Nb2_5 2.902897 1_554
Nb2_5 Zn0_4 2.867394 1_556
Nb2_5 Zn0_5 2.867397 1_555
Nb2_6 Zn0_7 2.867394 1_555
Nb2_6 Zn0_6 2.867397 1_555
Nb2_6 Nb2_7 2.902897 1_555
Nb2_6 Nb2_7 2.902897 1_554
Nb2_7 Zn0_6 2.867394 1_556
Nb2_7 Zn0_7 2.867397 1_555
Zn0_0 Zn0_1 2.902897 1_555
Zn0_0 Zn0_1 2.902897 1_554
Zn0_2 Zn0_3 2.902897 1_555
Zn0_2 Zn0_3 2.902897 1_554
Zn0_4 Zn0_5 2.902897 1_555
Zn0_4 Zn0_5 2.902897 1_554
Zn0_6 Zn0_7 2.902897 1_555
Zn0_6 Zn0_7 2.902897 1_554
Ga0_0 Ir0_0 2.625541 1_555
Ga0_0 Ir2_3 2.625779 1_544
Ga0_0 Ir2_2 2.625782 1_545
Ga0_0 Ir1_0 2.628643 1_555
Ga0_0 Ga0_1 2.902897 1_555
Ga0_0 Ga0_1 2.902897 1_554
Ga0_0 Nb1_5 2.912509 1_454
Ga0_0 Nb1_4 2.912512 1_455
Ga0_0 Nb0_3 2.914220 1_544
Ga0_0 Nb0_2 2.914223 1_545
Ga0_0 Nb2_1 2.931735 1_554
Ga0_0 Nb2_0 2.931738 1_555
Ga0_1 Ir0_1 2.625541 1_555
Ga0_1 Ir2_2 2.625779 1_545
Ga0_1 Ir2_3 2.625782 1_545
Ga0_1 Ir1_1 2.628643 1_555
Ga0_1 Nb1_4 2.912509 1_455
Ga0_1 Nb1_5 2.912512 1_455
Ga0_1 Nb0_2 2.914220 1_545
Ga0_1 Nb0_3 2.914223 1_545
Ga0_1 Nb2_0 2.931735 1_555
Ga0_1 Nb2_1 2.931738 1_555
Ga0_2 Ir0_2 2.625541 1_555
Ga0_2 Ir2_1 2.625779 1_554
Ga0_2 Ir2_0 2.625782 1_555
Ga0_2 Ir1_2 2.628643 1_555
Ga0_2 Ga0_3 2.902897 1_555
Ga0_2 Ga0_3 2.902897 1_554
Ga0_2 Nb1_7 2.912509 1_454
Ga0_2 Nb1_6 2.912512 1_455
Ga0_2 Nb0_1 2.914220 1_554
Ga0_2 Nb0_0 2.914223 1_555
Ga0_2 Nb2_3 2.931735 1_554
Ga0_2 Nb2_2 2.931738 1_555
Ga0_3 Ir0_3 2.625541 1_555
Ga0_3 Ir2_0 2.625779 1_555
Ga0_3 Ir2_1 2.625782 1_555
Ga0_3 Ir1_3 2.628643 1_555
Ga0_3 Nb1_6 2.912509 1_455
Ga0_3 Nb1_7 2.912512 1_455
Ga0_3 Nb0_0 2.914220 1_555
Ga0_3 Nb0_1 2.914223 1_555
Ga0_3 Nb2_2 2.931735 1_555
Ga0_3 Nb2_3 2.931738 1_555
Ga0_4 Ir0_4 2.625541 1_555
Ga0_4 Ir2_7 2.625779 1_544
Ga0_4 Ir2_6 2.625782 1_545
Ga0_4 Ir1_4 2.628643 1_555
Ga0_4 Ga0_5 2.902897 1_555
Ga0_4 Ga0_5 2.902897 1_554
Ga0_4 Nb1_1 2.912509 1_554
Ga0_4 Nb1_0 2.912512 1_555
Ga0_4 Nb0_7 2.914220 1_544
Ga0_4 Nb0_6 2.914223 1_545
Ga0_4 Nb2_5 2.931735 1_554
Ga0_4 Nb2_4 2.931738 1_555
Ga0_5 Ir0_5 2.625541 1_555
Ga0_5 Ir2_6 2.625779 1_545
Ga0_5 Ir2_7 2.625782 1_545
Ga0_5 Ir1_5 2.628643 1_555
Ga0_5 Nb1_0 2.912509 1_555
Ga0_5 Nb1_1 2.912512 1_555
Ga0_5 Nb0_6 2.914220 1_545
Ga0_5 Nb0_7 2.914223 1_545
Ga0_5 Nb2_4 2.931735 1_555
Ga0_5 Nb2_5 2.931738 1_555
Ga0_6 Ir0_6 2.625541 1_555
Ga0_6 Ir2_5 2.625779 1_554
Ga0_6 Ir2_4 2.625782 1_555
Ga0_6 Ir1_6 2.628643 1_555
Ga0_6 Ga0_7 2.902897 1_555
Ga0_6 Ga0_7 2.902897 1_554
Ga0_6 Nb1_3 2.912509 1_554
Ga0_6 Nb1_2 2.912512 1_555
Ga0_6 Nb0_5 2.914220 1_554
Ga0_6 Nb0_4 2.914223 1_555
Ga0_6 Nb2_7 2.931735 1_554
Ga0_6 Nb2_6 2.931738 1_555
Ga0_7 Ir0_7 2.625541 1_555
Ga0_7 Ir2_4 2.625779 1_555
Ga0_7 Ir2_5 2.625782 1_555
Ga0_7 Ir1_7 2.628643 1_555
Ga0_7 Nb1_2 2.912509 1_555
Ga0_7 Nb1_3 2.912512 1_555
Ga0_7 Nb0_4 2.914220 1_555
Ga0_7 Nb0_5 2.914223 1_555
Ga0_7 Nb2_6 2.931735 1_555
Ga0_7 Nb2_7 2.931738 1_555
Ga1_0 Ir1_0 2.625541 1_555
Ga1_0 Ir2_1 2.625776 1_554
Ga1_0 Ir2_0 2.625779 1_555
Ga1_0 Ir0_4 2.628647 1_455
Ga1_0 Ga1_1 2.902897 1_555
Ga1_0 Ga1_1 2.902897 1_554
Ga1_0 Nb2_5 2.912513 1_454
Ga1_0 Nb2_4 2.912516 1_455
Ga1_0 Nb0_1 2.914214 1_554
Ga1_0 Nb0_0 2.914217 1_555
Ga1_0 Nb1_5 2.931738 1_454
Ga1_0 Nb1_4 2.931741 1_455
Ga1_1 Ir1_1 2.625541 1_555
Ga1_1 Ir2_0 2.625776 1_555
Ga1_1 Ir2_1 2.625779 1_555
Ga1_1 Ir0_5 2.628647 1_455
Ga1_1 Nb2_4 2.912513 1_455
Ga1_1 Nb2_5 2.912516 1_455
Ga1_1 Nb0_0 2.914214 1_555
Ga1_1 Nb0_1 2.914217 1_555
Ga1_1 Nb1_4 2.931738 1_455
Ga1_1 Nb1_5 2.931741 1_455
Ga1_2 Ir1_2 2.625541 1_555
Ga1_2 Ir2_3 2.625776 1_554
Ga1_2 Ir2_2 2.625779 1_555
Ga1_2 Ir0_6 2.628647 1_455
Ga1_2 Ga1_3 2.902897 1_555
Ga1_2 Ga1_3 2.902897 1_554
Ga1_2 Nb2_7 2.912513 1_454
Ga1_2 Nb2_6 2.912516 1_455
Ga1_2 Nb0_3 2.914214 1_554
Ga1_2 Nb0_2 2.914217 1_555
Ga1_2 Nb1_7 2.931738 1_454
Ga1_2 Nb1_6 2.931741 1_455
Ga1_3 Ir1_3 2.625541 1_555
Ga1_3 Ir2_2 2.625776 1_555
Ga1_3 Ir2_3 2.625779 1_555
Ga1_3 Ir0_7 2.628647 1_455
Ga1_3 Nb2_6 2.912513 1_455
Ga1_3 Nb2_7 2.912516 1_455
Ga1_3 Nb0_2 2.914214 1_555
Ga1_3 Nb0_3 2.914217 1_555
Ga1_3 Nb1_6 2.931738 1_455
Ga1_3 Nb1_7 2.931741 1_455
Ga1_4 Ir1_4 2.625541 1_555
Ga1_4 Ir2_5 2.625776 1_554
Ga1_4 Ir2_4 2.625779 1_555
Ga1_4 Ir0_0 2.628647 1_555
Ga1_4 Ga1_5 2.902897 1_555
Ga1_4 Ga1_5 2.902897 1_554
Ga1_4 Nb2_1 2.912513 1_554
Ga1_4 Nb2_0 2.912516 1_555
Ga1_4 Nb0_5 2.914214 1_554
Ga1_4 Nb0_4 2.914217 1_555
Ga1_4 Nb1_1 2.931738 1_554
Ga1_4 Nb1_0 2.931741 1_555
Ga1_5 Ir1_5 2.625541 1_555
Ga1_5 Ir2_4 2.625776 1_555
Ga1_5 Ir2_5 2.625779 1_555
Ga1_5 Ir0_1 2.628647 1_555
Ga1_5 Nb2_0 2.912513 1_555
Ga1_5 Nb2_1 2.912516 1_555
Ga1_5 Nb0_4 2.914214 1_555
Ga1_5 Nb0_5 2.914217 1_555
Ga1_5 Nb1_0 2.931738 1_555
Ga1_5 Nb1_1 2.931741 1_555
Ga1_6 Ir1_6 2.625541 1_555
Ga1_6 Ir2_7 2.625776 1_554
Ga1_6 Ir2_6 2.625779 1_555
Ga1_6 Ir0_2 2.628647 1_555
Ga1_6 Ga1_7 2.902897 1_555
Ga1_6 Ga1_7 2.902897 1_554
Ga1_6 Nb2_3 2.912513 1_554
Ga1_6 Nb2_2 2.912516 1_555
Ga1_6 Nb0_7 2.914214 1_554
Ga1_6 Nb0_6 2.914217 1_555
Ga1_6 Nb1_3 2.931738 1_554
Ga1_6 Nb1_2 2.931741 1_555
Ga1_7 Ir1_7 2.625541 1_555
Ga1_7 Ir2_6 2.625776 1_555
Ga1_7 Ir2_7 2.625779 1_555
Ga1_7 Ir0_3 2.628647 1_555
Ga1_7 Nb2_2 2.912513 1_555
Ga1_7 Nb2_3 2.912516 1_555
Ga1_7 Nb0_6 2.914214 1_555
Ga1_7 Nb0_7 2.914217 1_555
Ga1_7 Nb1_2 2.931738 1_555
Ga1_7 Nb1_3 2.931741 1_555
Ir0_0 Zn0_2 2.653779 1_545
Ir0_0 Nb1_1 2.772577 1_554
Ir0_0 Nb1_0 2.772580 1_555
Ir0_0 Nb0_3 2.777485 1_544
Ir0_0 Nb0_2 2.777488 1_545
Ir0_0 Nb2_1 2.789085 1_554
Ir0_0 Nb2_0 2.789088 1_555
Ir0_0 Ir0_1 2.902897 1_555
Ir0_0 Ir0_1 2.902897 1_554
Ir0_1 Zn0_3 2.653779 1_545
Ir0_1 Nb1_0 2.772577 1_555
Ir0_1 Nb1_1 2.772580 1_555
Ir0_1 Nb0_2 2.777485 1_545
Ir0_1 Nb0_3 2.777488 1_545
Ir0_1 Nb2_0 2.789085 1_555
Ir0_1 Nb2_1 2.789088 1_555
Ir0_2 Zn0_0 2.653779 1_555
Ir0_2 Nb1_3 2.772577 1_554
Ir0_2 Nb1_2 2.772580 1_555
Ir0_2 Nb0_1 2.777485 1_554
Ir0_2 Nb0_0 2.777488 1_555
Ir0_2 Nb2_3 2.789085 1_554
Ir0_2 Nb2_2 2.789088 1_555
Ir0_2 Ir0_3 2.902897 1_555
Ir0_2 Ir0_3 2.902897 1_554
Ir0_3 Zn0_1 2.653779 1_555
Ir0_3 Nb1_2 2.772577 1_555
Ir0_3 Nb1_3 2.772580 1_555
Ir0_3 Nb0_0 2.777485 1_555
Ir0_3 Nb0_1 2.777488 1_555
Ir0_3 Nb2_2 2.789085 1_555
Ir0_3 Nb2_3 2.789088 1_555
Ir0_4 Zn0_6 2.653779 1_545
Ir0_4 Nb1_5 2.772577 1_554
Ir0_4 Nb1_4 2.772580 1_555
Ir0_4 Nb0_7 2.777485 1_544
Ir0_4 Nb0_6 2.777488 1_545
Ir0_4 Nb2_5 2.789085 1_554
Ir0_4 Nb2_4 2.789088 1_555
Ir0_4 Ir0_5 2.902897 1_555
Ir0_4 Ir0_5 2.902897 1_554
Ir0_5 Zn0_7 2.653779 1_545
Ir0_5 Nb1_4 2.772577 1_555
Ir0_5 Nb1_5 2.772580 1_555
Ir0_5 Nb0_6 2.777485 1_545
Ir0_5 Nb0_7 2.777488 1_545
Ir0_5 Nb2_4 2.789085 1_555
Ir0_5 Nb2_5 2.789088 1_555
Ir0_6 Zn0_4 2.653779 1_555
Ir0_6 Nb1_7 2.772577 1_554
Ir0_6 Nb1_6 2.772580 1_555
Ir0_6 Nb0_5 2.777485 1_554
Ir0_6 Nb0_4 2.777488 1_555
Ir0_6 Nb2_7 2.789085 1_554
Ir0_6 Nb2_6 2.789088 1_555
Ir0_6 Ir0_7 2.902897 1_555
Ir0_6 Ir0_7 2.902897 1_554
Ir0_7 Zn0_5 2.653779 1_555
Ir0_7 Nb1_6 2.772577 1_555
Ir0_7 Nb1_7 2.772580 1_555
Ir0_7 Nb0_4 2.777485 1_555
Ir0_7 Nb0_5 2.777488 1_555
Ir0_7 Nb2_6 2.789085 1_555
Ir0_7 Nb2_7 2.789088 1_555
Ir1_0 Zn0_0 2.653771 1_555
Ir1_0 Nb2_1 2.772574 1_554
Ir1_0 Nb2_0 2.772578 1_555
Ir1_0 Nb0_1 2.777481 1_554
Ir1_0 Nb0_0 2.777484 1_555
Ir1_0 Nb1_5 2.789092 1_454
Ir1_0 Nb1_4 2.789095 1_455
Ir1_0 Ir1_1 2.902897 1_555
Ir1_0 Ir1_1 2.902897 1_554
Ir1_1 Zn0_1 2.653771 1_555
Ir1_1 Nb2_0 2.772574 1_555
Ir1_1 Nb2_1 2.772578 1_555
Ir1_1 Nb0_0 2.777481 1_555
Ir1_1 Nb0_1 2.777484 1_555
Ir1_1 Nb1_4 2.789092 1_455
Ir1_1 Nb1_5 2.789095 1_455
Ir1_2 Zn0_2 2.653771 1_555
Ir1_2 Nb2_3 2.772574 1_554
Ir1_2 Nb2_2 2.772578 1_555
Ir1_2 Nb0_3 2.777481 1_554
Ir1_2 Nb0_2 2.777484 1_555
Ir1_2 Nb1_7 2.789092 1_454
Ir1_2 Nb1_6 2.789095 1_455
Ir1_2 Ir1_3 2.902897 1_555
Ir1_2 Ir1_3 2.902897 1_554
Ir1_3 Zn0_3 2.653771 1_555
Ir1_3 Nb2_2 2.772574 1_555
Ir1_3 Nb2_3 2.772578 1_555
Ir1_3 Nb0_2 2.777481 1_555
Ir1_3 Nb0_3 2.777484 1_555
Ir1_3 Nb1_6 2.789092 1_455
Ir1_3 Nb1_7 2.789095 1_455
Ir1_4 Zn0_4 2.653771 1_555
Ir1_4 Nb2_5 2.772574 1_554
Ir1_4 Nb2_4 2.772578 1_555
Ir1_4 Nb0_5 2.777481 1_554
Ir1_4 Nb0_4 2.777484 1_555
Ir1_4 Nb1_1 2.789092 1_554
Ir1_4 Nb1_0 2.789095 1_555
Ir1_4 Ir1_5 2.902897 1_555
Ir1_4 Ir1_5 2.902897 1_554
Ir1_5 Zn0_5 2.653771 1_555
Ir1_5 Nb2_4 2.772574 1_555
Ir1_5 Nb2_5 2.772578 1_555
Ir1_5 Nb0_4 2.777481 1_555
Ir1_5 Nb0_5 2.777484 1_555
Ir1_5 Nb1_0 2.789092 1_555
Ir1_5 Nb1_1 2.789095 1_555
Ir1_6 Zn0_6 2.653771 1_555
Ir1_6 Nb2_7 2.772574 1_554
Ir1_6 Nb2_6 2.772578 1_555
Ir1_6 Nb0_7 2.777481 1_554
Ir1_6 Nb0_6 2.777484 1_555
Ir1_6 Nb1_3 2.789092 1_554
Ir1_6 Nb1_2 2.789095 1_555
Ir1_6 Ir1_7 2.902897 1_555
Ir1_6 Ir1_7 2.902897 1_554
Ir1_7 Zn0_7 2.653771 1_555
Ir1_7 Nb2_6 2.772574 1_555
Ir1_7 Nb2_7 2.772578 1_555
Ir1_7 Nb0_6 2.777481 1_555
Ir1_7 Nb0_7 2.777484 1_555
Ir1_7 Nb1_2 2.789092 1_555
Ir1_7 Nb1_3 2.789095 1_555
Ir2_0 Zn0_5 2.660862 1_455
Ir2_0 Zn0_4 2.660866 1_455
Ir2_0 Nb1_6 2.714195 1_455
Ir2_0 Nb2_4 2.714195 1_455
Ir2_0 Nb0_0 2.762802 1_555
Ir2_0 Ir2_1 2.902897 1_555
Ir2_0 Ir2_1 2.902897 1_554
Ir2_1 Zn0_4 2.660862 1_456
Ir2_1 Zn0_5 2.660866 1_455
Ir2_1 Nb1_7 2.714195 1_455
Ir2_1 Nb2_5 2.714195 1_455
Ir2_1 Nb0_1 2.762802 1_555
Ir2_2 Zn0_7 2.660862 1_455
Ir2_2 Zn0_6 2.660866 1_455
Ir2_2 Nb1_4 2.714195 1_465
Ir2_2 Nb2_6 2.714195 1_455
Ir2_2 Nb0_2 2.762802 1_555
Ir2_2 Ir2_3 2.902897 1_555
Ir2_2 Ir2_3 2.902897 1_554
Ir2_3 Zn0_6 2.660862 1_456
Ir2_3 Zn0_7 2.660866 1_455
Ir2_3 Nb1_5 2.714195 1_465
Ir2_3 Nb2_7 2.714195 1_455
Ir2_3 Nb0_3 2.762802 1_555
Ir2_4 Zn0_1 2.660862 1_555
Ir2_4 Zn0_0 2.660866 1_555
Ir2_4 Nb1_2 2.714195 1_555
Ir2_4 Nb2_0 2.714195 1_555
Ir2_4 Nb0_4 2.762802 1_555
Ir2_4 Ir2_5 2.902897 1_555
Ir2_4 Ir2_5 2.902897 1_554
Ir2_5 Zn0_0 2.660862 1_556
Ir2_5 Zn0_1 2.660866 1_555
Ir2_5 Nb1_3 2.714195 1_555
Ir2_5 Nb2_1 2.714195 1_555
Ir2_5 Nb0_5 2.762802 1_555
Ir2_6 Zn0_3 2.660862 1_555
Ir2_6 Zn0_2 2.660866 1_555
Ir2_6 Nb1_0 2.714195 1_565
Ir2_6 Nb2_2 2.714195 1_555
Ir2_6 Nb0_6 2.762802 1_555
Ir2_6 Ir2_7 2.902897 1_555
Ir2_6 Ir2_7 2.902897 1_554
Ir2_7 Zn0_2 2.660862 1_556
Ir2_7 Zn0_3 2.660866 1_555
Ir2_7 Nb1_1 2.714195 1_565
Ir2_7 Nb2_3 2.714195 1_555
Ir2_7 Nb0_7 2.762802 1_555
