# generated using pymatgen
data_Zr2TiMnFe8
_symmetry_space_group_name_H-M   'P 1'
_cell_length_a   8.50012940
_cell_length_b   8.50012946
_cell_length_c   8.50012858
_cell_angle_alpha   33.57841727
_cell_angle_beta   33.57841852
_cell_angle_gamma   33.57842596
_symmetry_Int_Tables_number   1
_chemical_formula_structural   Zr2TiMnFe8
_chemical_formula_sum   'Zr2 Ti1 Mn1 Fe8'
_cell_volume   167.34280601
_cell_formula_units_Z   1
loop_
 _symmetry_equiv_pos_site_id
 _symmetry_equiv_pos_as_xyz
  1  'x, y, z'
loop_
 _atom_site_type_symbol
 _atom_site_label
 _atom_site_symmetry_multiplicity
 _atom_site_fract_x
 _atom_site_fract_y
 _atom_site_fract_z
 _atom_site_occupancy
  Zr  Zr0  1  0.00217685  0.00217685  0.00217685  1
  Zr  Zr1  1  0.49748453  0.49748453  0.49748453  1
  Ti  Ti0  1  0.87465059  0.87465059  0.87465059  1
  Mn  Mn0  1  0.37492152  0.37492152  0.37492152  1
  Fe  Fe0  1  0.43683175  0.93884779  0.43683175  1
  Fe  Fe1  1  0.93680990  0.43906669  0.93680990  1
  Fe  Fe2  1  0.43683175  0.43683175  0.93884779  1
  Fe  Fe3  1  0.93680990  0.93680990  0.43906669  1
  Fe  Fe4  1  0.18780961  0.18780961  0.18780961  1
  Fe  Fe5  1  0.68776112  0.68776112  0.68776112  1
  Fe  Fe6  1  0.93884779  0.43683175  0.43683175  1
  Fe  Fe7  1  0.43906669  0.93680990  0.93680990  1
loop_
_geom_bond_atom_site_label_1
_geom_bond_atom_site_label_2
_geom_bond_distance
_geom_bond_site_symmetry_2
Ti0 Zr1 3.024601 1_556
Ti0 Zr1 3.024602 1_565
Ti0 Zr1 3.024602 1_655
Ti0 Zr0 3.065751 1_666
Mn0 Zr1 2.946434 1_555
Mn0 Zr0 2.989231 1_556
Mn0 Zr0 2.989232 1_565
Mn0 Zr0 2.989232 1_655
Fe0 Fe4 2.444847 1_565
Fe0 Fe2 2.445375 1_564
Fe0 Fe6 2.445376 1_465
Fe0 Fe5 2.462503 1_555
Fe0 Fe2 2.465175 1_555
Fe0 Fe6 2.465176 1_555
Fe0 Mn0 2.873034 1_565
Fe0 Ti0 2.882972 1_554
Fe0 Ti0 2.882973 1_455
Fe0 Zr0 2.906141 1_566
Fe0 Zr0 2.906142 1_665
Fe0 Zr1 2.933193 1_555
Fe1 Fe3 2.444193 1_555
Fe1 Fe7 2.444194 1_555
Fe1 Fe5 2.446552 1_555
Fe1 Fe4 2.462703 1_656
Fe1 Fe3 2.466357 1_546
Fe1 Fe7 2.466358 1_645
Fe1 Zr0 2.836644 1_656
Fe1 Zr1 2.846679 1_556
Fe1 Zr1 2.846679 1_655
Fe1 Ti0 2.865805 1_555
Fe1 Mn0 2.880299 1_655
Fe1 Mn0 2.880299 1_556
Fe2 Fe4 2.444847 1_556
Fe2 Fe6 2.445375 1_456
Fe2 Fe5 2.462503 1_555
Fe2 Fe6 2.465175 1_555
Fe2 Mn0 2.873033 1_556
Fe2 Ti0 2.882973 1_455
Fe2 Ti0 2.882973 1_545
Fe2 Zr0 2.906142 1_656
Fe2 Zr0 2.906142 1_566
Fe2 Zr1 2.933192 1_555
Fe3 Fe7 2.444193 1_555
Fe3 Fe5 2.446552 1_555
Fe3 Fe4 2.462703 1_665
Fe3 Fe7 2.466357 1_654
Fe3 Zr0 2.836643 1_665
Fe3 Zr1 2.846679 1_655
Fe3 Zr1 2.846680 1_565
Fe3 Ti0 2.865804 1_555
Fe3 Mn0 2.880300 1_565
Fe3 Mn0 2.880300 1_655
Fe4 Fe6 2.444847 1_455
Fe4 Fe7 2.462703 1_544
Fe4 Ti0 2.876291 1_445
Fe4 Ti0 2.876292 1_454
Fe4 Ti0 2.876292 1_544
Fe4 Zr1 2.891593 1_554
Fe4 Zr1 2.891594 1_545
Fe4 Zr1 2.891594 1_455
Fe5 Fe7 2.446552 1_555
Fe5 Fe6 2.462503 1_555
Fe5 Zr0 2.871351 1_665
Fe5 Zr0 2.871352 1_656
Fe5 Zr0 2.871352 1_566
Fe5 Mn0 2.877596 1_556
Fe5 Mn0 2.877597 1_565
Fe5 Mn0 2.877597 1_655
Fe6 Mn0 2.873034 1_655
Fe6 Ti0 2.882972 1_554
Fe6 Ti0 2.882973 1_545
Fe6 Zr0 2.906141 1_656
Fe6 Zr0 2.906142 1_665
Fe6 Zr1 2.933193 1_555
Fe7 Zr0 2.836644 1_566
Fe7 Zr1 2.846679 1_556
Fe7 Zr1 2.846679 1_565
Fe7 Ti0 2.865805 1_555
Fe7 Mn0 2.880299 1_565
Fe7 Mn0 2.880299 1_556
