# generated using pymatgen
data_ZrAsH
_symmetry_space_group_name_H-M   'P 1'
_cell_length_a   3.61518745
_cell_length_b   3.61518941
_cell_length_c   7.42878456
_cell_angle_alpha   90.00000000
_cell_angle_beta   90.00000000
_cell_angle_gamma   119.99999119
_symmetry_Int_Tables_number   1
_chemical_formula_structural   ZrAsH
_chemical_formula_sum   'Zr2 As2 H2'
_cell_volume   84.08340879
_cell_formula_units_Z   2
loop_
 _symmetry_equiv_pos_site_id
 _symmetry_equiv_pos_as_xyz
  1  'x, y, z'
loop_
 _atom_site_type_symbol
 _atom_site_label
 _atom_site_symmetry_multiplicity
 _atom_site_fract_x
 _atom_site_fract_y
 _atom_site_fract_z
 _atom_site_occupancy
  Zr  Zr0  1  0.66666700  0.33333300  0.75000000  1
  Zr  Zr1  1  0.33333300  0.66666700  0.25000000  1
  As  As0  1  0.00000000  0.00000000  0.00000000  1
  As  As1  1  0.00000000  0.00000000  0.50000000  1
  H  H0  1  0.66666700  0.33333300  0.25000000  1
  H  H1  1  0.33333300  0.66666700  0.75000000  1
loop_
_geom_bond_atom_site_label_1
_geom_bond_atom_site_label_2
_geom_bond_distance
_geom_bond_site_symmetry_2
As0 Zr1 2.793868 1_545
As0 Zr0 2.793868 1_454
As0 Zr0 2.793870 1_554
As0 Zr1 2.793870 1_445
As0 Zr1 2.793871 1_555
As0 Zr0 2.793871 1_444
As1 Zr1 2.793868 1_545
As1 Zr0 2.793868 1_455
As1 Zr0 2.793870 1_555
As1 Zr1 2.793870 1_445
As1 Zr1 2.793871 1_555
As1 Zr0 2.793871 1_445
H0 Zr1 2.087228 1_655
H0 Zr1 2.087229 1_545
H0 Zr1 2.087234 1_555
H1 Zr0 2.087228 1_455
H1 Zr0 2.087229 1_565
H1 Zr0 2.087234 1_555
