# generated using pymatgen
data_Be9NbVMo
_symmetry_space_group_name_H-M   'P 1'
_cell_length_a   7.35765301
_cell_length_b   7.35765337
_cell_length_c   7.35765361
_cell_angle_alpha   34.95624849
_cell_angle_beta   34.95624411
_cell_angle_gamma   34.95625110
_symmetry_Int_Tables_number   1
_chemical_formula_structural   Be9NbVMo
_chemical_formula_sum   'Be9 Nb1 V1 Mo1'
_cell_volume   116.73834380
_cell_formula_units_Z   1
loop_
 _symmetry_equiv_pos_site_id
 _symmetry_equiv_pos_as_xyz
  1  'x, y, z'
loop_
 _atom_site_type_symbol
 _atom_site_label
 _atom_site_symmetry_multiplicity
 _atom_site_fract_x
 _atom_site_fract_y
 _atom_site_fract_z
 _atom_site_occupancy
  Be  Be0  1  0.50039466  0.50039466  0.50039466  1
  Be  Be1  1  0.33344711  0.33344711  0.33344811  1
  Be  Be2  1  0.66496104  0.66496104  0.66496004  1
  Be  Be3  1  0.07881632  0.58551992  0.58551992  1
  Be  Be4  1  0.58551992  0.58551992  0.07881632  1
  Be  Be5  1  0.58551992  0.07881632  0.58551992  1
  Be  Be6  1  0.41399711  0.92185289  0.41399711  1
  Be  Be7  1  0.92185289  0.41399711  0.41399711  1
  Be  Be8  1  0.41399711  0.41399711  0.92185289  1
  Nb  Nb0  1  0.00095973  0.00095973  0.00095973  1
  V  V0  1  0.85700623  0.85700623  0.85700623  1
  Mo  Mo0  1  0.14352694  0.14352694  0.14352694  1
loop_
_geom_bond_atom_site_label_1
_geom_bond_atom_site_label_2
_geom_bond_distance
_geom_bond_site_symmetry_2
Be0 Be7 2.150362 1_555
Be0 Be6 2.150362 1_555
Be0 Be8 2.150362 1_555
Be0 Be3 2.163307 1_555
Be0 Be5 2.163307 1_555
Be0 Be4 2.163307 1_555
Be0 V0 2.596780 1_554
Be0 V0 2.596780 1_455
Be0 V0 2.596781 1_545
Be0 Mo0 2.597770 1_556
Be0 Mo0 2.597770 1_655
Be0 Mo0 2.597770 1_565
Be1 Be7 2.136658 1_455
Be1 Be6 2.136658 1_545
Be1 Be8 2.136661 1_554
Be1 Be3 2.153283 1_555
Be1 Be5 2.153283 1_555
Be1 Be4 2.153285 1_555
Be1 Nb0 2.551726 1_556
Be1 Nb0 2.551730 1_655
Be1 Nb0 2.551730 1_565
Be1 Be2 2.551944 1_455
Be1 Be2 2.551944 1_545
Be1 Be2 2.551952 1_554
Be2 Be7 2.130435 1_555
Be2 Be6 2.130435 1_555
Be2 Be8 2.130437 1_555
Be2 Be3 2.163450 1_655
Be2 Be5 2.163451 1_565
Be2 Be4 2.163453 1_556
Be2 Nb0 2.552262 1_665
Be2 Nb0 2.552266 1_566
Be2 Nb0 2.552267 1_656
Be3 Be4 2.180182 1_456
Be3 Be5 2.180182 1_465
Be3 Be4 2.239437 1_555
Be3 Be5 2.239437 1_555
Be3 Mo0 2.537522 1_565
Be3 Mo0 2.537522 1_556
Be3 V0 2.548843 1_455
Be3 Nb0 2.790789 1_556
Be3 Nb0 2.790790 1_565
Be4 Be5 2.180182 1_564
Be4 Be5 2.239437 1_555
Be4 Mo0 2.537522 1_655
Be4 Mo0 2.537522 1_565
Be4 V0 2.548842 1_554
Be4 Nb0 2.790789 1_565
Be4 Nb0 2.790790 1_655
Be5 Mo0 2.537522 1_655
Be5 Mo0 2.537522 1_556
Be5 V0 2.548843 1_545
Be5 Nb0 2.790789 1_556
Be5 Nb0 2.790789 1_655
Be6 Be8 2.175090 1_564
Be6 Be7 2.175090 1_465
Be6 Be8 2.244529 1_555
Be6 Be7 2.244529 1_555
Be6 V0 2.531137 1_455
Be6 V0 2.531138 1_554
Be6 Mo0 2.536015 1_565
Be6 Nb0 2.816523 1_665
Be6 Nb0 2.816523 1_566
Be7 Be8 2.175090 1_654
Be7 Be8 2.244529 1_555
Be7 V0 2.531138 1_545
Be7 V0 2.531138 1_554
Be7 Mo0 2.536015 1_655
Be7 Nb0 2.816523 1_665
Be7 Nb0 2.816523 1_656
Be8 V0 2.531138 1_455
Be8 V0 2.531138 1_545
Be8 Mo0 2.536015 1_556
Be8 Nb0 2.816523 1_656
Be8 Nb0 2.816523 1_566
Nb0 V0 2.980277 1_444
Mo0 V0 2.729522 1_544
Mo0 V0 2.729522 1_445
Mo0 V0 2.729522 1_454
Mo0 Nb0 2.951577 1_555
