# generated using pymatgen
data_Zr6Ti6Al10Os7
_symmetry_space_group_name_H-M   'P 1'
_cell_length_a   8.85070155
_cell_length_b   8.80217611
_cell_length_c   8.80217559
_cell_angle_alpha   59.61324538
_cell_angle_beta   59.81746195
_cell_angle_gamma   59.81746173
_symmetry_Int_Tables_number   1
_chemical_formula_structural   Zr6Ti6Al10Os7
_chemical_formula_sum   'Zr6 Ti6 Al10 Os7'
_cell_volume   482.12595676
_cell_formula_units_Z   1
loop_
 _symmetry_equiv_pos_site_id
 _symmetry_equiv_pos_as_xyz
  1  'x, y, z'
loop_
 _atom_site_type_symbol
 _atom_site_label
 _atom_site_symmetry_multiplicity
 _atom_site_fract_x
 _atom_site_fract_y
 _atom_site_fract_z
 _atom_site_occupancy
  Zr  Zr0  1  0.69370520  0.70637639  0.30233076  1
  Zr  Zr1  1  0.29758865  0.70637639  0.30233076  1
  Zr  Zr2  1  0.70659125  0.29340875  0.29340875  1
  Zr  Zr3  1  0.29758865  0.30233076  0.70637639  1
  Zr  Zr4  1  0.69370520  0.30233076  0.70637639  1
  Zr  Zr5  1  0.30368455  0.69631545  0.69631545  1
  Ti  Ti0  1  0.87873665  0.88191164  0.36061607  1
  Ti  Ti1  1  0.87873665  0.36061607  0.88191164  1
  Ti  Ti2  1  0.36538273  0.87961516  0.87961516  1
  Ti  Ti3  1  0.87538896  0.87961516  0.87961516  1
  Ti  Ti4  1  0.12237525  0.12198627  0.63326323  1
  Ti  Ti5  1  0.12237525  0.63326323  0.12198627  1
  Al  Al0  1  0.64357979  0.11856842  0.11856842  1
  Al  Al1  1  0.11928137  0.11856842  0.11856842  1
  Al  Al2  1  0.66506482  0.66392938  0.00593998  1
  Al  Al3  1  0.66506482  0.00593998  0.66392938  1
  Al  Al4  1  0.00569745  0.66434362  0.66434362  1
  Al  Al5  1  0.66561431  0.66434362  0.66434362  1
  Al  Al6  1  0.33276874  0.33188550  0.00257702  1
  Al  Al7  1  0.33276874  0.00257702  0.33188550  1
  Al  Al8  1  0.99663721  0.33343497  0.33343497  1
  Al  Al9  1  0.33649385  0.33343497  0.33343497  1
  Os  Os0  1  0.00591395  0.99408605  0.99408605  1
  Os  Os1  1  0.99852452  0.00042066  0.50202229  1
  Os  Os2  1  0.49903153  0.00042066  0.50202229  1
  Os  Os3  1  0.00000785  0.49999215  0.49999215  1
  Os  Os4  1  0.49903153  0.50202229  0.00042066  1
  Os  Os5  1  0.99852452  0.50202229  0.00042066  1
  Os  Os6  1  0.50013504  0.99986496  0.99986496  1
loop_
_geom_bond_atom_site_label_1
_geom_bond_atom_site_label_2
_geom_bond_distance
_geom_bond_site_symmetry_2
Zr0 Zr5 3.451073 1_555
Zr0 Zr1 3.505909 1_555
Zr0 Zr4 3.535670 1_555
Zr0 Zr2 3.618761 1_555
Zr1 Zr5 3.451069 1_555
Zr1 Zr3 3.535670 1_555
Zr1 Zr2 3.618757 1_555
Zr2 Zr3 3.618757 1_555
Zr2 Zr4 3.618761 1_555
Zr3 Zr5 3.451069 1_555
Zr3 Zr4 3.505909 1_555
Zr4 Zr5 3.451073 1_555
Ti0 Zr2 2.996709 1_565
Ti0 Ti5 3.033639 1_655
Ti0 Zr1 3.086013 1_655
Ti0 Zr0 3.086013 1_555
Ti1 Zr2 2.996709 1_556
Ti1 Ti4 3.033639 1_655
Ti1 Zr3 3.086013 1_655
Ti1 Zr4 3.086013 1_555
Ti2 Ti4 3.045493 1_565
Ti2 Ti5 3.045493 1_556
Ti2 Zr1 3.076505 1_556
Ti2 Zr3 3.076505 1_565
Ti2 Zr5 3.148003 1_555
Ti3 Ti5 3.045481 1_656
Ti3 Ti4 3.045481 1_665
Ti3 Zr0 3.076506 1_556
Ti3 Zr4 3.076506 1_565
Ti3 Zr5 3.147990 1_655
Ti4 Zr5 3.109325 1_545
Ti4 Zr4 3.138661 1_455
Ti4 Zr3 3.138669 1_555
Ti5 Zr5 3.109325 1_554
Ti5 Zr0 3.138661 1_455
Ti5 Zr1 3.138669 1_555
Al0 Os0 2.614115 1_644
Al0 Os2 2.748684 1_555
Al0 Os4 2.748684 1_555
Al0 Os6 2.750890 1_544
Al0 Al9 2.796849 1_555
Al0 Al6 2.797566 1_555
Al0 Al7 2.797566 1_555
Al0 Ti0 2.969801 1_545
Al0 Ti1 2.969802 1_554
Al0 Ti3 2.975655 1_544
Al0 Zr4 3.023714 1_554
Al0 Zr0 3.023714 1_545
Al0 Zr2 3.028204 1_555
Al1 Os0 2.614101 1_544
Al1 Os1 2.748684 1_455
Al1 Os5 2.748684 1_455
Al1 Os6 2.750904 1_544
Al1 Al8 2.796856 1_455
Al1 Al7 2.797580 1_555
Al1 Al6 2.797580 1_555
Al1 Ti1 2.969783 1_454
Al1 Ti0 2.969783 1_445
Al1 Ti2 2.975655 1_544
Al1 Zr3 3.023719 1_554
Al1 Zr1 3.023719 1_545
Al1 Zr2 3.028191 1_455
Al2 Os5 2.537806 1_555
Al2 Os4 2.537806 1_555
Al2 Os6 2.540800 1_554
Al2 Ti2 2.764503 1_554
Al2 Ti3 2.764525 1_554
Al2 Ti1 2.773459 1_554
Al2 Zr2 2.924978 1_555
Al2 Zr1 2.959118 1_555
Al2 Zr0 2.959129 1_555
Al2 Al3 2.992822 1_564
Al2 Al4 3.002508 1_654
Al2 Al5 3.002508 1_554
Al3 Os1 2.537806 1_555
Al3 Os2 2.537806 1_555
Al3 Os6 2.540800 1_545
Al3 Ti2 2.764504 1_545
Al3 Ti3 2.764525 1_545
Al3 Ti0 2.773459 1_545
Al3 Zr2 2.924977 1_555
Al3 Zr3 2.959118 1_555
Al3 Zr4 2.959129 1_555
Al3 Al4 3.002508 1_645
Al3 Al5 3.002508 1_545
Al4 Os5 2.534337 1_456
Al4 Os1 2.534337 1_465
Al4 Os3 2.540049 1_555
Al4 Ti3 2.783640 1_455
Al4 Ti0 2.784757 1_455
Al4 Ti1 2.784757 1_455
Al4 Zr1 2.907871 1_555
Al4 Zr3 2.907871 1_555
Al4 Zr5 2.947371 1_555
Al4 Al5 3.009974 1_455
Al5 Os4 2.534337 1_556
Al5 Os2 2.534337 1_565
Al5 Os3 2.540054 1_655
Al5 Ti2 2.783632 1_555
Al5 Ti1 2.784766 1_555
Al5 Ti0 2.784766 1_555
Al5 Zr0 2.907864 1_555
Al5 Zr4 2.907864 1_555
Al5 Zr5 2.947362 1_555
Al6 Os6 2.533357 1_544
Al6 Os4 2.562728 1_555
Al6 Os5 2.562736 1_455
Al6 Ti5 2.737738 1_555
Al6 Al7 2.881670 1_555
Al6 Zr3 2.923366 1_554
Al6 Zr4 2.923371 1_554
Al6 Al8 2.935940 1_455
Al6 Al9 2.935944 1_555
Al6 Zr5 2.956756 1_554
Al7 Os6 2.533357 1_544
Al7 Os2 2.562728 1_555
Al7 Os1 2.562736 1_455
Al7 Ti4 2.737738 1_555
Al7 Zr1 2.923366 1_545
Al7 Zr0 2.923371 1_545
Al7 Al8 2.935940 1_455
Al7 Al9 2.935945 1_555
Al7 Zr5 2.956756 1_545
Al8 Os5 2.523831 1_555
Al8 Os1 2.523831 1_555
Al8 Os3 2.561634 1_655
Al8 Ti4 2.751153 1_655
Al8 Ti5 2.751153 1_655
Al8 Zr2 2.963568 1_555
Al8 Zr4 3.003096 1_555
Al8 Zr0 3.003096 1_555
Al8 Al9 3.007970 1_655
Al9 Os4 2.523826 1_555
Al9 Os2 2.523826 1_555
Al9 Os3 2.561639 1_555
Al9 Ti5 2.751158 1_555
Al9 Ti4 2.751158 1_555
Al9 Zr2 2.963559 1_555
Al9 Zr3 3.003096 1_555
Al9 Zr1 3.003096 1_555
Os0 Ti4 2.583563 1_565
Os0 Ti5 2.583563 1_556
Os0 Ti3 2.594803 1_455
Os0 Ti2 2.594818 1_555
Os0 Ti0 2.625636 1_456
Os0 Ti1 2.625636 1_465
Os1 Ti3 2.704196 1_545
Os1 Ti4 2.717407 1_655
Os1 Ti0 2.741143 1_545
Os1 Zr1 3.135342 1_645
Os1 Zr2 3.158870 1_555
Os1 Zr5 3.182522 1_645
Os1 Zr4 3.213018 1_555
Os2 Ti2 2.704195 1_545
Os2 Ti4 2.717399 1_555
Os2 Ti0 2.741157 1_545
Os2 Zr0 3.135340 1_545
Os2 Zr2 3.158876 1_555
Os2 Zr5 3.182516 1_545
Os2 Zr3 3.213021 1_555
Os3 Ti5 2.706511 1_555
Os3 Ti4 2.706511 1_555
Os3 Ti1 2.735299 1_455
Os3 Ti0 2.735299 1_455
Os3 Zr0 3.204663 1_455
Os3 Zr4 3.204663 1_455
Os3 Zr3 3.204671 1_555
Os3 Zr1 3.204671 1_555
Os4 Ti2 2.704195 1_554
Os4 Ti5 2.717399 1_555
Os4 Ti1 2.741157 1_554
Os4 Zr4 3.135340 1_554
Os4 Zr2 3.158876 1_555
Os4 Zr5 3.182516 1_554
Os4 Zr1 3.213021 1_555
Os5 Ti3 2.704196 1_554
Os5 Ti5 2.717407 1_655
Os5 Ti1 2.741143 1_554
Os5 Zr3 3.135342 1_654
Os5 Zr2 3.158870 1_555
Os5 Zr5 3.182523 1_654
Os5 Zr0 3.213018 1_555
Os6 Ti2 2.708353 1_555
Os6 Ti3 2.708367 1_555
Os6 Zr3 3.142453 1_565
Os6 Zr1 3.142454 1_556
Os6 Zr0 3.142458 1_556
Os6 Zr4 3.142459 1_565
