# generated using pymatgen
data_Cs12Cr3CdSe12
_symmetry_space_group_name_H-M   'P 1'
_cell_length_a   11.11727555
_cell_length_b   11.11727639
_cell_length_c   14.12799040
_cell_angle_alpha   89.86120621
_cell_angle_beta   89.86120736
_cell_angle_gamma   140.32814955
_symmetry_Int_Tables_number   1
_chemical_formula_structural   Cs12Cr3CdSe12
_chemical_formula_sum   'Cs12 Cr3 Cd1 Se12'
_cell_volume   1114.68457314
_cell_formula_units_Z   1
loop_
 _symmetry_equiv_pos_site_id
 _symmetry_equiv_pos_as_xyz
  1  'x, y, z'
loop_
 _atom_site_type_symbol
 _atom_site_label
 _atom_site_symmetry_multiplicity
 _atom_site_fract_x
 _atom_site_fract_y
 _atom_site_fract_z
 _atom_site_occupancy
  Cs  Cs0  1  0.86810959  0.85883102  0.67610094  1
  Cs  Cs1  1  0.14116898  0.13189041  0.32389906  1
  Cs  Cs2  1  0.63263287  0.63323982  0.17837085  1
  Cs  Cs3  1  0.36676018  0.36736713  0.82162915  1
  Cs  Cs4  1  0.16690666  0.52583592  0.12454475  1
  Cs  Cs5  1  0.47416408  0.83309334  0.87545525  1
  Cs  Cs6  1  0.96230465  0.31594922  0.63391343  1
  Cs  Cs7  1  0.68405078  0.03769535  0.36608657  1
  Cs  Cs8  1  0.82907306  0.47490749  0.87723663  1
  Cs  Cs9  1  0.52509251  0.17092694  0.12276337  1
  Cs  Cs10  1  0.01981952  0.66010349  0.37227505  1
  Cs  Cs11  1  0.33989651  0.98018048  0.62772495  1
  Cr  Cr0  1  0.92274712  0.07725288  1.00000000  1
  Cr  Cr1  1  0.41913345  0.58086655  0.50000000  1
  Cr  Cr2  1  0.07488129  0.92511871  0.00000000  1
  Cd  Cd0  1  0.58618452  0.41381548  0.50000000  1
  Se  Se0  1  0.27903017  0.30345958  0.57019019  1
  Se  Se1  1  0.69654042  0.72096983  0.42980981  1
  Se  Se2  1  0.20474262  0.20727160  0.06977249  1
  Se  Se3  1  0.79272840  0.79525738  0.93022751  1
  Se  Se4  1  0.70820932  0.00287735  0.11182396  1
  Se  Se5  1  0.99712265  0.29179068  0.88817604  1
  Se  Se6  1  0.49120989  0.77816874  0.61408792  1
  Se  Se7  1  0.22183126  0.50879011  0.38591208  1
  Se  Se8  1  0.28374214  0.99456916  0.88619483  1
  Se  Se9  1  0.00543084  0.71625786  0.11380517  1
  Se  Se10  1  0.48578017  0.17929265  0.37370705  1
  Se  Se11  1  0.82070735  0.51421983  0.62629295  1
loop_
_geom_bond_atom_site_label_1
_geom_bond_atom_site_label_2
_geom_bond_distance
_geom_bond_site_symmetry_2
Cs0 Se11 3.515301 1_555
Cs0 Se0 3.565225 1_665
Cs0 Se3 3.626761 1_555
Cs0 Se6 3.655945 1_555
Cs0 Se1 3.694921 1_555
Cs1 Se10 3.515301 1_555
Cs1 Se1 3.565225 1_445
Cs1 Se2 3.626761 1_555
Cs1 Se7 3.655945 1_555
Cs1 Se0 3.694921 1_555
Cs2 Se2 3.577769 1_555
Cs2 Se9 3.598596 1_655
Cs2 Se1 3.610725 1_555
Cs2 Se4 3.624776 1_565
Cs2 Se3 3.702235 1_554
Cs3 Se3 3.577769 1_555
Cs3 Se8 3.598596 1_545
Cs3 Se0 3.610725 1_555
Cs3 Se5 3.624776 1_455
Cs3 Se2 3.702235 1_556
Cs4 Se9 3.684743 1_555
Cs4 Se5 3.741217 1_454
Cs4 Se4 3.769231 1_455
Cs4 Se7 3.772225 1_555
Cs4 Se4 3.902815 1_565
Cs4 Se2 3.952647 1_555
Cs5 Se8 3.684743 1_555
Cs5 Se4 3.741217 1_566
Cs5 Se5 3.769231 1_565
Cs5 Se6 3.772225 1_555
Cs5 Se5 3.902815 1_455
Cs5 Se3 3.952647 1_555
Cs6 Se11 3.562231 1_555
Cs6 Se5 3.645286 1_555
Cs6 Se0 3.737111 1_655
Cs6 Se6 3.811739 1_655
Cs6 Se6 3.881333 1_545
Cs6 Se7 3.948352 1_655
Cs7 Se10 3.562231 1_555
Cs7 Se4 3.645286 1_555
Cs7 Se1 3.737111 1_545
Cs7 Se7 3.811739 1_545
Cs7 Se7 3.881333 1_655
Cs7 Se6 3.948352 1_545
Cs8 Se11 3.581297 1_555
Cs8 Se5 3.676055 1_555
Cs8 Se8 3.740909 1_655
Cs8 Se9 3.767058 1_656
Cs8 Se8 3.929626 1_545
Cs8 Se3 3.954002 1_555
Cs9 Se10 3.581297 1_555
Cs9 Se4 3.676055 1_555
Cs9 Se9 3.740909 1_545
Cs9 Se8 3.767058 1_544
Cs9 Se9 3.929626 1_655
Cs9 Se2 3.954002 1_555
Cs10 Se7 3.704987 1_555
Cs10 Se9 3.727661 1_555
Cs10 Se10 3.758034 1_565
Cs10 Se11 3.849180 1_455
Cs10 Se10 3.868588 1_455
Cs10 Se1 4.215164 1_455
Cs11 Se6 3.704987 1_555
Cs11 Se8 3.727661 1_555
Cs11 Se11 3.758034 1_455
Cs11 Se10 3.849180 1_565
Cs11 Se11 3.868588 1_565
Cs11 Se0 4.215165 1_565
Cr0 Se4 2.409916 1_556
Cr0 Se5 2.409916 1_555
Cr0 Se2 2.436249 1_656
Cr0 Se3 2.436249 1_545
Cr1 Se7 2.317118 1_555
Cr1 Se6 2.317118 1_555
Cr1 Se1 2.345949 1_555
Cr1 Se0 2.345950 1_555
Cr2 Se8 2.405999 1_554
Cr2 Se9 2.405999 1_555
Cr2 Se3 2.438398 1_454
Cr2 Se2 2.438398 1_565
Cd0 Se11 2.603721 1_555
Cd0 Se10 2.603721 1_555
Cd0 Se0 2.770798 1_555
Cd0 Se1 2.770798 1_555
Cd0 Cs10 3.688844 1_655
Cd0 Cs11 3.688844 1_545
