# generated using pymatgen
data_SrGaSiIr2
_symmetry_space_group_name_H-M   'P 1'
_cell_length_a   8.34315415
_cell_length_b   7.23535211
_cell_length_c   5.91376266
_cell_angle_alpha   78.05313247
_cell_angle_beta   58.04198157
_cell_angle_gamma   43.90488111
_symmetry_Int_Tables_number   1
_chemical_formula_structural   SrGaSiIr2
_chemical_formula_sum   'Sr2 Ga2 Si2 Ir4'
_cell_volume   200.60340307
_cell_formula_units_Z   2
loop_
 _symmetry_equiv_pos_site_id
 _symmetry_equiv_pos_as_xyz
  1  'x, y, z'
loop_
 _atom_site_type_symbol
 _atom_site_label
 _atom_site_symmetry_multiplicity
 _atom_site_fract_x
 _atom_site_fract_y
 _atom_site_fract_z
 _atom_site_occupancy
  Sr  Sr0  1  0.50000000  0.50000000  0.50000000  1
  Sr  Sr1  1  0.75000000  0.75000000  0.75000000  1
  Ga  Ga0  1  0.43002169  0.06997831  0.43002169  1
  Ga  Ga1  1  0.06997831  0.43002169  0.06997831  1
  Si  Si0  1  0.82143542  0.17856458  0.82143542  1
  Si  Si1  1  0.17856458  0.82143542  0.17856458  1
  Ir  Ir0  1  0.11275538  0.11275538  0.88724462  1
  Ir  Ir1  1  0.88724462  0.88724462  0.11275538  1
  Ir  Ir2  1  0.12074451  0.12074451  0.37925549  1
  Ir  Ir3  1  0.37925549  0.37925549  0.12074451  1
loop_
_geom_bond_atom_site_label_1
_geom_bond_atom_site_label_2
_geom_bond_distance
_geom_bond_site_symmetry_2
Ga0 Ir1 2.450066 1_545
Ga0 Ir0 2.450066 1_555
Ga0 Ir2 2.508365 1_555
Ga0 Ir3 2.508366 1_555
Ga0 Sr1 3.270376 1_545
Ga0 Sr1 3.498956 1_544
Ga0 Sr1 3.498956 1_455
Ga0 Sr0 3.687699 1_555
Ga0 Sr0 3.687699 1_545
Ga1 Ir0 2.450067 1_554
Ga1 Ir1 2.450067 1_455
Ga1 Ir3 2.508365 1_555
Ga1 Ir2 2.508366 1_555
Ga1 Sr1 3.270376 1_454
Ga1 Sr1 3.498956 1_455
Ga1 Sr1 3.498956 1_544
Ga1 Sr0 3.687698 1_455
Ga1 Sr0 3.687698 1_554
Si0 Sr0 3.285268 1_555
Si0 Sr0 3.491148 1_556
Si0 Sr0 3.491148 1_645
Si0 Sr1 3.690616 1_545
Si0 Sr1 3.690616 1_555
Si1 Sr0 3.285268 1_555
Si1 Sr0 3.491148 1_554
Si1 Sr0 3.491148 1_465
Si1 Sr1 3.690616 1_554
Si1 Sr1 3.690616 1_455
Ir0 Si0 2.354275 1_455
Ir0 Si1 2.354275 1_546
Ir0 Sr0 3.327037 1_456
Ir0 Sr0 3.327038 1_545
Ir0 Sr1 3.467001 1_545
Ir0 Sr1 3.467001 1_455
Ir1 Si1 2.354275 1_655
Ir1 Si0 2.354275 1_564
Ir1 Sr0 3.327037 1_654
Ir1 Sr0 3.327038 1_565
Ir1 Sr1 3.467001 1_555
Ir1 Sr1 3.467001 1_554
Ir2 Si0 2.298647 1_455
Ir2 Si1 2.298647 1_545
Ir2 Sr0 3.358500 1_455
Ir2 Sr0 3.358501 1_545
Ir2 Sr1 3.429852 1_544
Ir2 Sr1 3.429852 1_455
Ir3 Si0 2.298647 1_554
Ir3 Si1 2.298647 1_555
Ir3 Sr0 3.358500 1_554
Ir3 Sr0 3.358500 1_555
Ir3 Sr1 3.429852 1_455
Ir3 Sr1 3.429852 1_544
