# generated using pymatgen
data_In8SnPd13
_symmetry_space_group_name_H-M   'P 1'
_cell_length_a   7.15363539
_cell_length_b   7.16633594
_cell_length_c   9.55070745
_cell_angle_alpha   62.35982545
_cell_angle_beta   62.67521000
_cell_angle_gamma   76.63059218
_symmetry_Int_Tables_number   1
_chemical_formula_structural   In8SnPd13
_chemical_formula_sum   'In8 Sn1 Pd13'
_cell_volume   385.24255830
_cell_formula_units_Z   1
loop_
 _symmetry_equiv_pos_site_id
 _symmetry_equiv_pos_as_xyz
  1  'x, y, z'
loop_
 _atom_site_type_symbol
 _atom_site_label
 _atom_site_symmetry_multiplicity
 _atom_site_fract_x
 _atom_site_fract_y
 _atom_site_fract_z
 _atom_site_occupancy
  In  In0  1  0.17431611  0.17596277  0.38692834  1
  In  In1  1  0.29583607  0.29464418  0.66710818  1
  In  In2  1  0.82597748  0.24935622  0.19161767  1
  In  In3  1  0.70585866  0.70410361  0.33320940  1
  In  In4  1  0.50226710  0.49730577  0.99871728  1
  In  In5  1  0.75687855  0.17270881  0.80714512  1
  In  In6  1  0.17171009  0.75246419  0.80781791  1
  In  In7  1  0.82267150  0.82485192  0.61591762  1
  Sn  Sn0  1  0.24976444  0.82800527  0.19006313  1
  Pd  Pd0  1  0.54096605  0.06231519  0.15935869  1
  Pd  Pd1  1  0.49841455  0.00149198  0.50055408  1
  Pd  Pd2  1  0.54488337  0.54581596  0.68105856  1
  Pd  Pd3  1  0.06646732  0.54106144  0.15836884  1
  Pd  Pd4  1  0.45150442  0.45731063  0.31784844  1
  Pd  Pd5  1  0.25464547  0.74695999  0.49783549  1
  Pd  Pd6  1  0.25633285  0.25479005  0.99276564  1
  Pd  Pd7  1  0.93710225  0.45783603  0.83974196  1
  Pd  Pd8  1  0.74404207  0.74231982  0.00869747  1
  Pd  Pd9  1  0.45764780  0.93374988  0.84384089  1
  Pd  Pd10  1  0.74396739  0.25483586  0.50072469  1
  Pd  Pd11  1  0.99990217  0.99773114  0.00318568  1
  Pd  Pd12  1  0.99884530  0.50438130  0.49749591  1
loop_
_geom_bond_atom_site_label_1
_geom_bond_atom_site_label_2
_geom_bond_distance
_geom_bond_site_symmetry_2
In0 Pd3 2.742145 1_555
In0 Pd5 2.761216 1_545
In0 Pd10 2.769788 1_455
In0 Pd0 2.772647 1_555
In0 Pd1 2.797622 1_555
In0 Pd4 2.801071 1_555
In0 Pd12 2.820078 1_455
In0 Pd6 3.314733 1_554
In1 Pd7 2.681128 1_455
In1 Pd9 2.690119 1_545
In1 Pd4 2.703326 1_555
In1 Pd10 2.864323 1_555
In1 Pd6 2.870773 1_555
In1 Pd5 2.888059 1_555
In1 Pd2 2.890540 1_555
In1 Pd1 2.936035 1_555
In1 Pd11 2.969808 1_446
In1 Pd12 2.969986 1_455
In2 Pd10 2.751001 1_555
In2 Pd7 2.756104 1_554
In2 Pd6 2.775833 1_654
In2 Pd4 2.776033 1_555
In2 Pd11 2.820676 1_545
In2 Pd3 2.824226 1_655
In2 Pd1 2.840155 1_555
In2 Pd0 2.876159 1_555
In2 Pd8 3.183083 1_555
In3 Pd0 2.679768 1_565
In3 Pd2 2.691678 1_555
In3 Pd3 2.696278 1_655
In3 Pd10 2.866190 1_555
In3 Pd8 2.867963 1_555
In3 Pd5 2.883669 1_555
In3 Pd4 2.904186 1_555
In3 Pd12 2.907154 1_555
In3 Pd11 2.931470 1_555
In3 Pd1 2.969666 1_565
In4 Pd2 2.763953 1_555
In4 Pd0 2.775128 1_556
In4 Pd6 2.777842 1_555
In4 Pd7 2.777954 1_555
In4 Pd4 2.779449 1_556
In4 Pd9 2.784169 1_555
In4 Pd3 2.787444 1_556
In4 Pd8 2.791877 1_556
In5 Pd10 2.746710 1_555
In5 Pd0 2.766434 1_556
In5 Pd8 2.772521 1_546
In5 Pd2 2.777261 1_555
In5 Pd11 2.811087 1_546
In5 Pd12 2.841257 1_555
In5 Pd9 2.843779 1_545
In5 Pd7 2.848023 1_555
In5 Pd6 3.236678 1_555
In6 Pd3 2.752887 1_556
In6 Pd5 2.757424 1_555
In6 Pd8 2.762372 1_456
In6 Pd2 2.766472 1_555
In6 Pd7 2.817683 1_455
In6 Pd11 2.831973 1_456
In6 Pd1 2.834064 1_565
In6 Pd9 2.877490 1_555
In6 Pd6 3.216295 1_555
In7 Pd7 2.748028 1_555
In7 Pd9 2.753452 1_555
In7 Pd10 2.764665 1_565
In7 Pd5 2.778415 1_655
In7 Pd2 2.807672 1_555
In7 Pd1 2.809156 1_565
In7 Pd12 2.811543 1_555
In7 Pd8 3.301015 1_556
Pd0 Sn0 2.800886 1_545
Pd0 Pd6 2.866921 1_554
Pd0 Pd11 2.942720 1_545
Pd0 Pd1 2.955388 1_555
Pd0 Pd8 3.006915 1_545
Pd1 Pd10 2.803939 1_555
Pd1 Pd5 2.815202 1_545
Pd1 Pd2 2.923516 1_545
Pd1 Pd4 2.927431 1_555
Pd1 Pd9 2.963279 1_545
Pd2 Pd6 2.839310 1_555
Pd3 Sn0 2.868515 1_555
Pd3 Pd6 2.881809 1_554
Pd3 Pd8 3.003192 1_455
Pd4 Sn0 2.732252 1_555
Pd4 Pd8 2.824462 1_555
Pd5 Sn0 2.734905 1_555
Pd6 Sn0 2.746837 1_546
Pd6 Pd9 3.002262 1_545
Pd6 Pd7 3.003759 1_455
Pd7 Pd8 2.893409 1_556
Pd8 Pd9 2.866362 1_554
Pd8 Sn0 3.199967 1_555
Pd9 Sn0 2.720573 1_556
Pd10 Pd12 2.815782 1_555
Pd11 Sn0 2.787301 1_655
Pd11 Pd6 2.827303 1_664
Pd11 Pd8 2.841577 1_555
Pd11 Pd3 2.925830 1_655
Pd11 Pd9 2.937164 1_654
Pd11 Pd7 2.948508 1_564
Pd12 Pd5 2.802211 1_655
Pd12 Sn0 2.826706 1_655
Pd12 Pd4 2.911090 1_655
Pd12 Pd2 2.918567 1_555
Pd12 Pd3 2.936670 1_655
Pd12 Pd7 2.953262 1_555
