# generated using pymatgen
data_Mg2In
_symmetry_space_group_name_H-M   'P 1'
_cell_length_a   16.71785608
_cell_length_b   16.71785975
_cell_length_c   6.69368410
_cell_angle_alpha   90.00000000
_cell_angle_beta   90.00000000
_cell_angle_gamma   120.00000066
_symmetry_Int_Tables_number   1
_chemical_formula_structural   Mg2In
_chemical_formula_sum   'Mg48 In24'
_cell_volume   1620.15699761
_cell_formula_units_Z   24
loop_
 _symmetry_equiv_pos_site_id
 _symmetry_equiv_pos_as_xyz
  1  'x, y, z'
loop_
 _atom_site_type_symbol
 _atom_site_label
 _atom_site_symmetry_multiplicity
 _atom_site_fract_x
 _atom_site_fract_y
 _atom_site_fract_z
 _atom_site_occupancy
  Mg  Mg0_0  1  0.14797445  0.00000000  0.00000000  1
  Mg  Mg0_1  1  0.14797445  0.00000000  0.50000000  1
  Mg  Mg0_2  1  0.14797445  0.50000000  0.00000000  1
  Mg  Mg0_3  1  0.14797445  0.50000000  0.50000000  1
  Mg  Mg0_4  1  0.64797445  0.00000000  0.00000000  1
  Mg  Mg0_5  1  0.64797445  0.00000000  0.50000000  1
  Mg  Mg0_6  1  0.64797445  0.50000000  0.00000000  1
  Mg  Mg0_7  1  0.64797445  0.50000000  0.50000000  1
  Mg  Mg1_0  1  0.35202555  0.35202555  0.00000000  1
  Mg  Mg1_1  1  0.35202555  0.35202555  0.50000000  1
  Mg  Mg1_2  1  0.35202556  0.85202556  0.00000000  1
  Mg  Mg1_3  1  0.35202556  0.85202556  0.50000000  1
  Mg  Mg1_4  1  0.85202555  0.35202555  0.00000000  1
  Mg  Mg1_5  1  0.85202555  0.35202555  0.50000000  1
  Mg  Mg1_6  1  0.85202555  0.85202556  0.00000000  1
  Mg  Mg1_7  1  0.85202555  0.85202556  0.50000000  1
  Mg  Mg2_0  1  0.00000000  0.14797445  0.00000000  1
  Mg  Mg2_1  1  0.00000000  0.14797445  0.50000000  1
  Mg  Mg2_2  1  0.00000000  0.64797445  0.00000000  1
  Mg  Mg2_3  1  0.00000000  0.64797445  0.50000000  1
  Mg  Mg2_4  1  0.50000000  0.14797445  0.00000000  1
  Mg  Mg2_5  1  0.50000000  0.14797445  0.50000000  1
  Mg  Mg2_6  1  0.50000000  0.64797445  0.00000000  1
  Mg  Mg2_7  1  0.50000000  0.64797445  0.50000000  1
  Mg  Mg3_0  1  0.31605415  0.00000000  0.25000000  1
  Mg  Mg3_1  1  0.31605415  0.00000000  0.75000000  1
  Mg  Mg3_2  1  0.31605415  0.50000000  0.25000000  1
  Mg  Mg3_3  1  0.31605415  0.50000000  0.75000000  1
  Mg  Mg3_4  1  0.81605414  0.00000000  0.25000000  1
  Mg  Mg3_5  1  0.81605414  0.00000000  0.75000000  1
  Mg  Mg3_6  1  0.81605415  0.50000000  0.25000000  1
  Mg  Mg3_7  1  0.81605415  0.50000000  0.75000000  1
  Mg  Mg4_0  1  0.18394585  0.18394585  0.25000000  1
  Mg  Mg4_1  1  0.18394585  0.18394585  0.75000000  1
  Mg  Mg4_2  1  0.18394585  0.68394585  0.25000000  1
  Mg  Mg4_3  1  0.18394585  0.68394585  0.75000000  1
  Mg  Mg4_4  1  0.68394586  0.18394585  0.25000000  1
  Mg  Mg4_5  1  0.68394586  0.18394585  0.75000000  1
  Mg  Mg4_6  1  0.68394586  0.68394585  0.25000000  1
  Mg  Mg4_7  1  0.68394586  0.68394585  0.75000000  1
  Mg  Mg5_0  1  0.00000000  0.31605415  0.25000000  1
  Mg  Mg5_1  1  0.00000000  0.31605415  0.75000000  1
  Mg  Mg5_2  1  0.00000000  0.81605414  0.25000000  1
  Mg  Mg5_3  1  0.00000000  0.81605414  0.75000000  1
  Mg  Mg5_4  1  0.50000000  0.31605415  0.25000000  1
  Mg  Mg5_5  1  0.50000000  0.31605415  0.75000000  1
  Mg  Mg5_6  1  0.50000000  0.81605414  0.25000000  1
  Mg  Mg5_7  1  0.50000000  0.81605414  0.75000000  1
  In  In0_0  1  0.00000000  0.00000000  0.25000000  1
  In  In0_1  1  0.00000000  0.00000000  0.75000000  1
  In  In0_2  1  0.00000000  0.50000000  0.25000000  1
  In  In0_3  1  0.00000000  0.50000000  0.75000000  1
  In  In0_4  1  0.50000000  0.00000000  0.25000000  1
  In  In0_5  1  0.50000000  0.00000000  0.75000000  1
  In  In0_6  1  0.50000000  0.50000000  0.25000000  1
  In  In0_7  1  0.50000000  0.50000000  0.75000000  1
  In  In1_0  1  0.16666650  0.33333350  0.00000000  1
  In  In1_1  1  0.16666650  0.33333350  0.50000000  1
  In  In1_2  1  0.16666650  0.83333350  0.00000000  1
  In  In1_3  1  0.16666650  0.83333350  0.50000000  1
  In  In1_4  1  0.66666650  0.33333350  0.00000000  1
  In  In1_5  1  0.66666650  0.33333350  0.50000000  1
  In  In1_6  1  0.66666650  0.83333350  0.00000000  1
  In  In1_7  1  0.66666650  0.83333350  0.50000000  1
  In  In2_0  1  0.33333350  0.16666650  0.00000000  1
  In  In2_1  1  0.33333350  0.16666650  0.50000000  1
  In  In2_2  1  0.33333350  0.66666650  0.00000000  1
  In  In2_3  1  0.33333350  0.66666650  0.50000000  1
  In  In2_4  1  0.83333350  0.16666650  0.00000000  1
  In  In2_5  1  0.83333350  0.16666650  0.50000000  1
  In  In2_6  1  0.83333350  0.66666650  0.00000000  1
  In  In2_7  1  0.83333350  0.66666650  0.50000000  1
loop_
_geom_bond_atom_site_label_1
_geom_bond_atom_site_label_2
_geom_bond_distance
_geom_bond_site_symmetry_2
Mg0_0 Mg3_1 3.270483 1_554
Mg0_0 Mg3_0 3.270483 1_555
Mg0_0 Mg5_2 3.281678 1_545
Mg0_0 Mg5_3 3.281678 1_544
Mg0_0 Mg4_1 3.281678 1_554
Mg0_0 Mg4_0 3.281678 1_555
Mg0_0 Mg0_1 3.346842 1_555
Mg0_0 Mg0_1 3.346842 1_554
Mg0_1 Mg3_0 3.270483 1_555
Mg0_1 Mg3_1 3.270483 1_555
Mg0_1 Mg5_2 3.281678 1_545
Mg0_1 Mg5_3 3.281678 1_545
Mg0_1 Mg4_0 3.281678 1_555
Mg0_1 Mg4_1 3.281678 1_555
Mg0_2 Mg3_3 3.270483 1_554
Mg0_2 Mg3_2 3.270483 1_555
Mg0_2 Mg5_1 3.281678 1_554
Mg0_2 Mg5_0 3.281678 1_555
Mg0_2 Mg4_2 3.281678 1_555
Mg0_2 Mg4_3 3.281678 1_554
Mg0_2 Mg0_3 3.346842 1_555
Mg0_2 Mg0_3 3.346842 1_554
Mg0_3 Mg3_3 3.270483 1_555
Mg0_3 Mg3_2 3.270483 1_555
Mg0_3 Mg5_0 3.281678 1_555
Mg0_3 Mg5_1 3.281678 1_555
Mg0_3 Mg4_3 3.281678 1_555
Mg0_3 Mg4_2 3.281678 1_555
Mg0_4 Mg3_5 3.270483 1_554
Mg0_4 Mg3_4 3.270483 1_555
Mg0_4 Mg5_6 3.281678 1_545
Mg0_4 Mg5_7 3.281678 1_544
Mg0_4 Mg4_5 3.281678 1_554
Mg0_4 Mg4_4 3.281678 1_555
Mg0_4 Mg0_5 3.346842 1_555
Mg0_4 Mg0_5 3.346842 1_554
Mg0_5 Mg3_5 3.270483 1_555
Mg0_5 Mg3_4 3.270483 1_555
Mg0_5 Mg5_6 3.281678 1_545
Mg0_5 Mg5_7 3.281678 1_545
Mg0_5 Mg4_5 3.281678 1_555
Mg0_5 Mg4_4 3.281678 1_555
Mg0_6 Mg3_7 3.270483 1_554
Mg0_6 Mg3_6 3.270483 1_555
Mg0_6 Mg5_5 3.281678 1_554
Mg0_6 Mg5_4 3.281678 1_555
Mg0_6 Mg4_6 3.281678 1_555
Mg0_6 Mg4_7 3.281678 1_554
Mg0_6 Mg0_7 3.346842 1_554
Mg0_6 Mg0_7 3.346842 1_555
Mg0_7 Mg3_7 3.270483 1_555
Mg0_7 Mg3_6 3.270483 1_555
Mg0_7 Mg5_5 3.281678 1_555
Mg0_7 Mg5_4 3.281678 1_555
Mg0_7 Mg4_7 3.281678 1_555
Mg0_7 Mg4_6 3.281678 1_555
Mg1_0 Mg4_1 3.270483 1_554
Mg1_0 Mg4_0 3.270483 1_555
Mg1_0 Mg5_5 3.281677 1_554
Mg1_0 Mg5_4 3.281677 1_555
Mg1_0 Mg3_3 3.281678 1_554
Mg1_0 Mg3_2 3.281678 1_555
Mg1_0 Mg1_1 3.346842 1_555
Mg1_0 Mg1_1 3.346842 1_554
Mg1_1 Mg4_0 3.270483 1_555
Mg1_1 Mg4_1 3.270483 1_555
Mg1_1 Mg5_5 3.281677 1_555
Mg1_1 Mg5_4 3.281677 1_555
Mg1_1 Mg3_3 3.281678 1_555
Mg1_1 Mg3_2 3.281678 1_555
Mg1_2 Mg4_3 3.270483 1_554
Mg1_2 Mg4_2 3.270483 1_555
Mg1_2 Mg5_6 3.281677 1_555
Mg1_2 Mg5_7 3.281677 1_554
Mg1_2 Mg3_0 3.281678 1_565
Mg1_2 Mg3_1 3.281678 1_564
Mg1_2 Mg1_3 3.346842 1_555
Mg1_2 Mg1_3 3.346842 1_554
Mg1_3 Mg4_3 3.270483 1_555
Mg1_3 Mg4_2 3.270483 1_555
Mg1_3 Mg5_6 3.281677 1_555
Mg1_3 Mg5_7 3.281677 1_555
Mg1_3 Mg3_0 3.281678 1_565
Mg1_3 Mg3_1 3.281678 1_565
Mg1_4 Mg4_5 3.270483 1_554
Mg1_4 Mg4_4 3.270483 1_555
Mg1_4 Mg5_1 3.281677 1_654
Mg1_4 Mg5_0 3.281677 1_655
Mg1_4 Mg3_7 3.281678 1_554
Mg1_4 Mg3_6 3.281678 1_555
Mg1_4 Mg1_5 3.346842 1_554
Mg1_4 Mg1_5 3.346842 1_555
Mg1_5 Mg4_5 3.270483 1_555
Mg1_5 Mg4_4 3.270483 1_555
Mg1_5 Mg5_0 3.281677 1_655
Mg1_5 Mg5_1 3.281677 1_655
Mg1_5 Mg3_7 3.281678 1_555
Mg1_5 Mg3_6 3.281678 1_555
Mg1_6 Mg4_7 3.270483 1_554
Mg1_6 Mg4_6 3.270483 1_555
Mg1_6 Mg5_2 3.281677 1_655
Mg1_6 Mg5_3 3.281677 1_654
Mg1_6 Mg3_5 3.281678 1_564
Mg1_6 Mg3_4 3.281678 1_565
Mg1_6 Mg1_7 3.346842 1_555
Mg1_6 Mg1_7 3.346842 1_554
Mg1_7 Mg4_6 3.270483 1_555
Mg1_7 Mg4_7 3.270483 1_555
Mg1_7 Mg5_3 3.281677 1_655
Mg1_7 Mg5_2 3.281677 1_655
Mg1_7 Mg3_4 3.281678 1_565
Mg1_7 Mg3_5 3.281678 1_565
Mg2_0 Mg5_0 3.270483 1_555
Mg2_0 Mg5_1 3.270483 1_554
Mg2_0 Mg4_0 3.281677 1_555
Mg2_0 Mg4_1 3.281677 1_554
Mg2_0 Mg3_5 3.281677 1_454
Mg2_0 Mg3_4 3.281677 1_455
Mg2_0 Mg2_1 3.346842 1_554
Mg2_0 Mg2_1 3.346842 1_555
Mg2_1 Mg5_0 3.270483 1_555
Mg2_1 Mg5_1 3.270483 1_555
Mg2_1 Mg4_0 3.281677 1_555
Mg2_1 Mg4_1 3.281677 1_555
Mg2_1 Mg3_5 3.281677 1_455
Mg2_1 Mg3_4 3.281677 1_455
Mg2_2 Mg5_2 3.270483 1_555
Mg2_2 Mg5_3 3.270483 1_554
Mg2_2 Mg4_2 3.281677 1_555
Mg2_2 Mg4_3 3.281677 1_554
Mg2_2 Mg3_6 3.281677 1_455
Mg2_2 Mg3_7 3.281677 1_454
Mg2_2 Mg2_3 3.346842 1_554
Mg2_2 Mg2_3 3.346842 1_555
Mg2_3 Mg5_2 3.270483 1_555
Mg2_3 Mg5_3 3.270483 1_555
Mg2_3 Mg4_2 3.281677 1_555
Mg2_3 Mg4_3 3.281677 1_555
Mg2_3 Mg3_7 3.281677 1_455
Mg2_3 Mg3_6 3.281677 1_455
Mg2_4 Mg5_5 3.270483 1_554
Mg2_4 Mg5_4 3.270483 1_555
Mg2_4 Mg4_5 3.281677 1_554
Mg2_4 Mg4_4 3.281677 1_555
Mg2_4 Mg3_0 3.281677 1_555
Mg2_4 Mg3_1 3.281677 1_554
Mg2_4 Mg2_5 3.346842 1_555
Mg2_4 Mg2_5 3.346842 1_554
Mg2_5 Mg5_5 3.270483 1_555
Mg2_5 Mg5_4 3.270483 1_555
Mg2_5 Mg4_4 3.281677 1_555
Mg2_5 Mg4_5 3.281677 1_555
Mg2_5 Mg3_0 3.281677 1_555
Mg2_5 Mg3_1 3.281677 1_555
Mg2_6 Mg5_7 3.270483 1_554
Mg2_6 Mg5_6 3.270483 1_555
Mg2_6 Mg4_7 3.281677 1_554
Mg2_6 Mg4_6 3.281677 1_555
Mg2_6 Mg3_2 3.281677 1_555
Mg2_6 Mg3_3 3.281677 1_554
Mg2_6 Mg2_7 3.346842 1_555
Mg2_6 Mg2_7 3.346842 1_554
Mg2_7 Mg5_6 3.270483 1_555
Mg2_7 Mg5_7 3.270483 1_555
Mg2_7 Mg4_6 3.281677 1_555
Mg2_7 Mg4_7 3.281677 1_555
Mg2_7 Mg3_2 3.281677 1_555
Mg2_7 Mg3_3 3.281677 1_555
Mg3_0 Mg3_1 3.346842 1_555
Mg3_0 Mg3_1 3.346842 1_554
Mg3_2 Mg3_3 3.346842 1_555
Mg3_2 Mg3_3 3.346842 1_554
Mg3_4 Mg3_5 3.346842 1_554
Mg3_4 Mg3_5 3.346842 1_555
Mg3_6 Mg3_7 3.346842 1_555
Mg3_6 Mg3_7 3.346842 1_554
Mg4_0 Mg4_1 3.346842 1_554
Mg4_0 Mg4_1 3.346842 1_555
Mg4_2 Mg4_3 3.346842 1_554
Mg4_2 Mg4_3 3.346842 1_555
Mg4_4 Mg4_5 3.346842 1_555
Mg4_4 Mg4_5 3.346842 1_554
Mg4_6 Mg4_7 3.346842 1_554
Mg4_6 Mg4_7 3.346842 1_555
Mg5_0 Mg5_1 3.346842 1_554
Mg5_0 Mg5_1 3.346842 1_555
Mg5_2 Mg5_3 3.346842 1_555
Mg5_2 Mg5_3 3.346842 1_554
Mg5_4 Mg5_5 3.346842 1_555
Mg5_4 Mg5_5 3.346842 1_554
Mg5_6 Mg5_7 3.346842 1_554
Mg5_6 Mg5_7 3.346842 1_555
In0_0 Mg0_1 2.986654 1_555
In0_0 Mg0_0 2.986654 1_555
In0_0 Mg1_6 2.986654 1_445
In0_0 Mg1_7 2.986654 1_445
In0_0 Mg2_0 2.986654 1_555
In0_0 Mg2_1 2.986654 1_555
In0_0 Mg3_4 3.075180 1_455
In0_0 Mg4_0 3.075181 1_555
In0_0 Mg5_2 3.075181 1_545
In0_0 In0_1 3.346842 1_555
In0_0 In0_1 3.346842 1_554
In0_1 Mg0_1 2.986654 1_555
In0_1 Mg0_0 2.986654 1_556
In0_1 Mg1_6 2.986654 1_446
In0_1 Mg1_7 2.986654 1_445
In0_1 Mg2_0 2.986654 1_556
In0_1 Mg2_1 2.986654 1_555
In0_1 Mg3_5 3.075180 1_455
In0_1 Mg4_1 3.075181 1_555
In0_1 Mg5_3 3.075181 1_545
In0_2 Mg0_2 2.986654 1_555
In0_2 Mg0_3 2.986654 1_555
In0_2 Mg1_5 2.986654 1_455
In0_2 Mg1_4 2.986654 1_455
In0_2 Mg2_3 2.986654 1_555
In0_2 Mg2_2 2.986654 1_555
In0_2 Mg3_6 3.075180 1_455
In0_2 Mg4_2 3.075181 1_555
In0_2 Mg5_0 3.075181 1_555
In0_2 In0_3 3.346842 1_554
In0_2 In0_3 3.346842 1_555
In0_3 Mg0_2 2.986654 1_556
In0_3 Mg0_3 2.986654 1_555
In0_3 Mg1_5 2.986654 1_455
In0_3 Mg1_4 2.986654 1_456
In0_3 Mg2_2 2.986654 1_556
In0_3 Mg2_3 2.986654 1_555
In0_3 Mg3_7 3.075180 1_455
In0_3 Mg4_3 3.075181 1_555
In0_3 Mg5_1 3.075181 1_555
In0_4 Mg0_4 2.986654 1_555
In0_4 Mg0_5 2.986654 1_555
In0_4 Mg1_2 2.986654 1_545
In0_4 Mg1_3 2.986654 1_545
In0_4 Mg2_5 2.986654 1_555
In0_4 Mg2_4 2.986654 1_555
In0_4 Mg3_0 3.075180 1_555
In0_4 Mg4_4 3.075181 1_555
In0_4 Mg5_6 3.075181 1_545
In0_4 In0_5 3.346842 1_554
In0_4 In0_5 3.346842 1_555
In0_5 Mg0_5 2.986654 1_555
In0_5 Mg0_4 2.986654 1_556
In0_5 Mg1_2 2.986654 1_546
In0_5 Mg1_3 2.986654 1_545
In0_5 Mg2_5 2.986654 1_555
In0_5 Mg2_4 2.986654 1_556
In0_5 Mg3_1 3.075180 1_555
In0_5 Mg4_5 3.075181 1_555
In0_5 Mg5_7 3.075181 1_545
In0_6 Mg0_6 2.986654 1_555
In0_6 Mg0_7 2.986654 1_555
In0_6 Mg1_0 2.986654 1_555
In0_6 Mg1_1 2.986654 1_555
In0_6 Mg2_7 2.986654 1_555
In0_6 Mg2_6 2.986654 1_555
In0_6 Mg3_2 3.075180 1_555
In0_6 Mg4_6 3.075181 1_555
In0_6 Mg5_4 3.075181 1_555
In0_6 In0_7 3.346842 1_555
In0_6 In0_7 3.346842 1_554
In0_7 Mg0_6 2.986654 1_556
In0_7 Mg0_7 2.986654 1_555
In0_7 Mg1_0 2.986654 1_556
In0_7 Mg1_1 2.986654 1_555
In0_7 Mg2_7 2.986654 1_555
In0_7 Mg2_6 2.986654 1_556
In0_7 Mg3_3 3.075180 1_555
In0_7 Mg4_7 3.075181 1_555
In0_7 Mg5_5 3.075181 1_555
In1_0 Mg0_2 2.954971 1_555
In1_0 Mg2_0 2.954976 1_555
In1_0 Mg1_0 2.954979 1_555
In1_0 Mg5_1 3.137260 1_554
In1_0 Mg5_0 3.137260 1_555
In1_0 Mg3_3 3.137263 1_554
In1_0 Mg3_2 3.137263 1_555
In1_0 Mg4_0 3.137267 1_555
In1_0 Mg4_1 3.137267 1_554
In1_0 In1_1 3.346842 1_555
In1_0 In1_1 3.346842 1_554
In1_1 Mg0_3 2.954971 1_555
In1_1 Mg2_1 2.954976 1_555
In1_1 Mg1_1 2.954979 1_555
In1_1 Mg5_0 3.137260 1_555
In1_1 Mg5_1 3.137260 1_555
In1_1 Mg3_3 3.137263 1_555
In1_1 Mg3_2 3.137263 1_555
In1_1 Mg4_0 3.137267 1_555
In1_1 Mg4_1 3.137267 1_555
In1_2 Mg0_0 2.954971 1_565
In1_2 Mg2_2 2.954976 1_555
In1_2 Mg1_2 2.954979 1_555
In1_2 Mg5_3 3.137260 1_554
In1_2 Mg5_2 3.137260 1_555
In1_2 Mg3_1 3.137263 1_564
In1_2 Mg3_0 3.137263 1_565
In1_2 Mg4_3 3.137267 1_554
In1_2 Mg4_2 3.137267 1_555
In1_2 In1_3 3.346842 1_554
In1_2 In1_3 3.346842 1_555
In1_3 Mg0_1 2.954971 1_565
In1_3 Mg2_3 2.954976 1_555
In1_3 Mg1_3 2.954979 1_555
In1_3 Mg5_3 3.137260 1_555
In1_3 Mg5_2 3.137260 1_555
In1_3 Mg3_1 3.137263 1_565
In1_3 Mg3_0 3.137263 1_565
In1_3 Mg4_3 3.137267 1_555
In1_3 Mg4_2 3.137267 1_555
In1_4 Mg0_6 2.954971 1_555
In1_4 Mg2_4 2.954976 1_555
In1_4 Mg1_4 2.954979 1_555
In1_4 Mg5_5 3.137260 1_554
In1_4 Mg5_4 3.137260 1_555
In1_4 Mg3_6 3.137263 1_555
In1_4 Mg3_7 3.137263 1_554
In1_4 Mg4_5 3.137267 1_554
In1_4 Mg4_4 3.137267 1_555
In1_4 In1_5 3.346842 1_555
In1_4 In1_5 3.346842 1_554
In1_5 Mg0_7 2.954971 1_555
In1_5 Mg2_5 2.954976 1_555
In1_5 Mg1_5 2.954979 1_555
In1_5 Mg5_4 3.137260 1_555
In1_5 Mg5_5 3.137260 1_555
In1_5 Mg3_7 3.137263 1_555
In1_5 Mg3_6 3.137263 1_555
In1_5 Mg4_4 3.137267 1_555
In1_5 Mg4_5 3.137267 1_555
In1_6 Mg0_4 2.954971 1_565
In1_6 Mg2_6 2.954976 1_555
In1_6 Mg1_6 2.954979 1_555
In1_6 Mg5_6 3.137260 1_555
In1_6 Mg5_7 3.137260 1_554
In1_6 Mg3_4 3.137263 1_565
In1_6 Mg3_5 3.137263 1_564
In1_6 Mg4_6 3.137267 1_555
In1_6 Mg4_7 3.137267 1_554
In1_6 In1_7 3.346842 1_554
In1_6 In1_7 3.346842 1_555
In1_7 Mg0_5 2.954971 1_565
In1_7 Mg2_7 2.954976 1_555
In1_7 Mg1_7 2.954979 1_555
In1_7 Mg5_6 3.137260 1_555
In1_7 Mg5_7 3.137260 1_555
In1_7 Mg3_4 3.137263 1_565
In1_7 Mg3_5 3.137263 1_565
In1_7 Mg4_6 3.137267 1_555
In1_7 Mg4_7 3.137267 1_555
In2_0 Mg2_4 2.954971 1_555
In2_0 Mg0_0 2.954976 1_555
In2_0 Mg1_0 2.954980 1_555
In2_0 Mg3_0 3.137260 1_555
In2_0 Mg3_1 3.137260 1_554
In2_0 Mg5_5 3.137263 1_554
In2_0 Mg5_4 3.137263 1_555
In2_0 Mg4_1 3.137267 1_554
In2_0 Mg4_0 3.137267 1_555
In2_0 In2_1 3.346842 1_554
In2_0 In2_1 3.346842 1_555
In2_1 Mg2_5 2.954971 1_555
In2_1 Mg0_1 2.954976 1_555
In2_1 Mg1_1 2.954980 1_555
In2_1 Mg3_0 3.137260 1_555
In2_1 Mg3_1 3.137260 1_555
In2_1 Mg5_5 3.137263 1_555
In2_1 Mg5_4 3.137263 1_555
In2_1 Mg4_0 3.137267 1_555
In2_1 Mg4_1 3.137267 1_555
In2_2 Mg2_6 2.954971 1_555
In2_2 Mg0_2 2.954976 1_555
In2_2 Mg1_2 2.954980 1_555
In2_2 Mg3_2 3.137260 1_555
In2_2 Mg3_3 3.137260 1_554
In2_2 Mg5_7 3.137263 1_554
In2_2 Mg5_6 3.137263 1_555
In2_2 Mg4_2 3.137267 1_555
In2_2 Mg4_3 3.137267 1_554
In2_2 In2_3 3.346842 1_555
In2_2 In2_3 3.346842 1_554
In2_3 Mg2_7 2.954971 1_555
In2_3 Mg0_3 2.954976 1_555
In2_3 Mg1_3 2.954980 1_555
In2_3 Mg3_3 3.137260 1_555
In2_3 Mg3_2 3.137260 1_555
In2_3 Mg5_6 3.137263 1_555
In2_3 Mg5_7 3.137263 1_555
In2_3 Mg4_2 3.137267 1_555
In2_3 Mg4_3 3.137267 1_555
In2_4 Mg2_0 2.954971 1_655
In2_4 Mg0_4 2.954976 1_555
In2_4 Mg1_4 2.954980 1_555
In2_4 Mg3_5 3.137260 1_554
In2_4 Mg3_4 3.137260 1_555
In2_4 Mg5_0 3.137263 1_655
In2_4 Mg5_1 3.137263 1_654
In2_4 Mg4_5 3.137267 1_554
In2_4 Mg4_4 3.137267 1_555
In2_4 In2_5 3.346842 1_554
In2_4 In2_5 3.346842 1_555
In2_5 Mg2_1 2.954971 1_655
In2_5 Mg0_5 2.954976 1_555
In2_5 Mg1_5 2.954980 1_555
In2_5 Mg3_5 3.137260 1_555
In2_5 Mg3_4 3.137260 1_555
In2_5 Mg5_0 3.137263 1_655
In2_5 Mg5_1 3.137263 1_655
In2_5 Mg4_4 3.137267 1_555
In2_5 Mg4_5 3.137267 1_555
In2_6 Mg2_2 2.954971 1_655
In2_6 Mg0_6 2.954976 1_555
In2_6 Mg1_6 2.954980 1_555
In2_6 Mg3_6 3.137260 1_555
In2_6 Mg3_7 3.137260 1_554
In2_6 Mg5_3 3.137263 1_654
In2_6 Mg5_2 3.137263 1_655
In2_6 Mg4_7 3.137267 1_554
In2_6 Mg4_6 3.137267 1_555
In2_6 In2_7 3.346842 1_554
In2_6 In2_7 3.346842 1_555
In2_7 Mg2_3 2.954971 1_655
In2_7 Mg0_7 2.954976 1_555
In2_7 Mg1_7 2.954980 1_555
In2_7 Mg3_6 3.137260 1_555
In2_7 Mg3_7 3.137260 1_555
In2_7 Mg5_3 3.137263 1_655
In2_7 Mg5_2 3.137263 1_655
In2_7 Mg4_6 3.137267 1_555
In2_7 Mg4_7 3.137267 1_555
