# generated using pymatgen
data_LuZrFe4
_symmetry_space_group_name_H-M   'P 1'
_cell_length_a   5.05226983
_cell_length_b   5.05226948
_cell_length_c   5.05226977
_cell_angle_alpha   59.99999809
_cell_angle_beta   60.00000044
_cell_angle_gamma   60.00000562
_symmetry_Int_Tables_number   1
_chemical_formula_structural   LuZrFe4
_chemical_formula_sum   'Lu1 Zr1 Fe4'
_cell_volume   91.18944905
_cell_formula_units_Z   1
loop_
 _symmetry_equiv_pos_site_id
 _symmetry_equiv_pos_as_xyz
  1  'x, y, z'
loop_
 _atom_site_type_symbol
 _atom_site_label
 _atom_site_symmetry_multiplicity
 _atom_site_fract_x
 _atom_site_fract_y
 _atom_site_fract_z
 _atom_site_occupancy
  Lu  Lu0  1  0.75000000  0.75000000  0.75000000  1
  Zr  Zr0  1  0.50000000  0.50000000  0.50000000  1
  Fe  Fe0  1  0.12481720  0.12481720  0.12481720  1
  Fe  Fe1  1  0.62554739  0.12481720  0.12481720  1
  Fe  Fe2  1  0.12481720  0.62554739  0.12481720  1
  Fe  Fe3  1  0.12481720  0.12481720  0.62554739  1
loop_
_geom_bond_atom_site_label_1
_geom_bond_atom_site_label_2
_geom_bond_distance
_geom_bond_site_symmetry_2
Lu0 Zr0 3.093871 1_565
Lu0 Zr0 3.093871 1_555
Lu0 Zr0 3.093871 1_556
Lu0 Zr0 3.093871 1_655
Fe0 Fe2 2.522446 1_545
Fe0 Fe3 2.522446 1_554
Fe0 Fe1 2.522446 1_455
Fe0 Fe2 2.529824 1_555
Fe0 Fe3 2.529824 1_555
Fe0 Fe1 2.529824 1_555
Fe0 Lu0 2.961763 1_445
Fe0 Lu0 2.961763 1_454
Fe0 Lu0 2.961763 1_544
Fe0 Zr0 2.962550 1_554
Fe0 Zr0 2.962550 1_545
Fe0 Zr0 2.962551 1_455
Fe1 Fe3 2.522446 1_654
Fe1 Fe2 2.522446 1_645
Fe1 Fe3 2.529824 1_555
Fe1 Fe2 2.529824 1_555
Fe1 Lu0 2.961761 1_544
Fe1 Lu0 2.961765 1_554
Fe1 Lu0 2.961765 1_545
Fe1 Zr0 2.962548 1_545
Fe1 Zr0 2.962548 1_554
Fe1 Zr0 2.962552 1_555
Fe2 Fe3 2.522446 1_564
Fe2 Fe3 2.529824 1_555
Fe2 Lu0 2.961761 1_454
Fe2 Lu0 2.961765 1_554
Fe2 Lu0 2.961765 1_455
Fe2 Zr0 2.962548 1_455
Fe2 Zr0 2.962548 1_554
Fe2 Zr0 2.962553 1_555
Fe3 Lu0 2.961760 1_445
Fe3 Lu0 2.961765 1_455
Fe3 Lu0 2.961765 1_545
Fe3 Zr0 2.962548 1_545
Fe3 Zr0 2.962548 1_455
Fe3 Zr0 2.962552 1_555
