# generated using pymatgen
data_Zr6Al16Ni2Ir5
_symmetry_space_group_name_H-M   'P 1'
_cell_length_a   8.60146504
_cell_length_b   8.69532318
_cell_length_c   8.60145605
_cell_angle_alpha   59.63876390
_cell_angle_beta   60.72292893
_cell_angle_gamma   59.63889278
_symmetry_Int_Tables_number   1
_chemical_formula_structural   Zr6Al16Ni2Ir5
_chemical_formula_sum   'Zr6 Al16 Ni2 Ir5'
_cell_volume   454.79180050
_cell_formula_units_Z   1
loop_
 _symmetry_equiv_pos_site_id
 _symmetry_equiv_pos_as_xyz
  1  'x, y, z'
loop_
 _atom_site_type_symbol
 _atom_site_label
 _atom_site_symmetry_multiplicity
 _atom_site_fract_x
 _atom_site_fract_y
 _atom_site_fract_z
 _atom_site_occupancy
  Zr  Zr0  1  0.69795881  0.69794236  0.30204214  1
  Zr  Zr1  1  0.32588397  0.67411599  0.32588497  1
  Zr  Zr2  1  0.69795786  0.30205864  0.30204119  1
  Zr  Zr3  1  0.30204119  0.30205764  0.69795786  1
  Zr  Zr4  1  0.67411603  0.32588401  0.67411503  1
  Zr  Zr5  1  0.30204214  0.69794136  0.69795881  1
  Al  Al0  1  0.88426196  0.87779225  0.36015010  1
  Al  Al1  1  0.87779038  0.36015712  0.87779038  1
  Al  Al2  1  0.36015010  0.87779125  0.88426196  1
  Al  Al3  1  0.87779789  0.88424865  0.87779789  1
  Al  Al4  1  0.11573804  0.12220775  0.63984990  1
  Al  Al5  1  0.12220962  0.63984288  0.12220962  1
  Al  Al6  1  0.63984990  0.12220875  0.11573804  1
  Al  Al7  1  0.12220211  0.11575135  0.12220211  1
  Al  Al8  1  0.67353996  0.66038365  0.00569277  1
  Al  Al9  1  0.66039183  0.00568914  0.66039183  1
  Al  Al10  1  0.00569277  0.66038365  0.67353996  1
  Al  Al11  1  0.66039089  0.67352914  0.66038989  1
  Al  Al12  1  0.32646004  0.33961635  0.99430723  1
  Al  Al13  1  0.33960817  0.99431086  0.33960817  1
  Al  Al14  1  0.99430723  0.33961635  0.32646004  1
  Al  Al15  1  0.33960911  0.32647086  0.33961011  1
  Ni  Ni0  1  0.50000000  0.00000000  0.50000000  1
  Ni  Ni1  1  0.00000000  0.50000000  0.00000000  1
  Ir  Ir0  1  0.00000000  0.00000000  0.00000000  1
  Ir  Ir1  1  0.00000000  0.00000000  0.50000000  1
  Ir  Ir2  1  0.00000000  0.50000000  0.50000000  1
  Ir  Ir3  1  0.50000000  0.50000000  0.00000000  1
  Ir  Ir4  1  0.50000000  0.00000000  0.00000000  1
loop_
_geom_bond_atom_site_label_1
_geom_bond_atom_site_label_2
_geom_bond_distance
_geom_bond_site_symmetry_2
Zr0 Zr1 3.211362 1_555
Zr0 Zr4 3.211371 1_555
Zr0 Zr2 3.442345 1_555
Zr0 Zr5 3.442605 1_555
Zr1 Zr5 3.211349 1_555
Zr1 Zr3 3.211371 1_555
Zr1 Zr2 3.211379 1_555
Zr2 Zr4 3.211349 1_555
Zr2 Zr3 3.442605 1_555
Zr3 Zr4 3.211362 1_555
Zr3 Zr5 3.442345 1_555
Zr4 Zr5 3.211379 1_555
Al0 Ir0 2.538127 1_665
Al0 Ir1 2.664600 1_665
Al0 Ir2 2.664601 1_655
Al0 Ni0 2.711760 1_565
Al0 Al11 2.736547 1_555
Al0 Al9 2.736570 1_565
Al0 Al10 2.745414 1_655
Al0 Al5 2.926014 1_655
Al0 Al7 2.926067 1_665
Al0 Al6 2.940330 1_565
Al0 Zr0 3.061089 1_555
Al0 Zr2 3.061155 1_565
Al0 Zr1 3.206973 1_655
Al1 Ir0 2.538200 1_656
Al1 Ir2 2.664562 1_655
Al1 Ir3 2.664569 1_556
Al1 Ni1 2.711753 1_656
Al1 Al10 2.736501 1_655
Al1 Al8 2.736506 1_556
Al1 Al11 2.745287 1_555
Al1 Al6 2.926003 1_556
Al1 Al4 2.926014 1_655
Al1 Al7 2.940326 1_656
Al1 Zr2 3.061024 1_556
Al1 Zr3 3.061028 1_655
Al1 Zr4 3.206952 1_555
Al2 Ir0 2.538133 1_566
Al2 Ir3 2.664594 1_556
Al2 Ir4 2.664607 1_566
Al2 Ni0 2.711754 1_565
Al2 Al9 2.736573 1_565
Al2 Al8 2.745418 1_556
Al2 Al5 2.926003 1_556
Al2 Al7 2.926078 1_566
Al2 Al4 2.940330 1_565
Al2 Zr5 3.061089 1_555
Al2 Zr3 3.061152 1_565
Al2 Zr1 3.206971 1_556
Al3 Ir0 2.538166 1_666
Al3 Ir1 2.664611 1_665
Al3 Ir4 2.664617 1_566
Al3 Ni1 2.711685 1_656
Al3 Al8 2.736467 1_556
Al3 Al9 2.745324 1_565
Al3 Al4 2.926067 1_665
Al3 Al6 2.926078 1_566
Al3 Al5 2.940326 1_656
Al3 Zr0 3.060979 1_556
Al3 Zr5 3.060989 1_655
Al3 Zr4 3.207081 1_565
Al4 Ir0 2.538127 1_556
Al4 Ir1 2.664600 1_555
Al4 Ir2 2.664601 1_555
Al4 Ni0 2.711760 1_555
Al4 Zr3 3.061089 1_555
Al4 Zr5 3.061155 1_545
Al4 Zr4 3.206973 1_455
Al5 Ir0 2.538200 1_565
Al5 Ir2 2.664562 1_555
Al5 Ir3 2.664569 1_555
Al5 Ni1 2.711753 1_555
Al5 Zr5 3.061024 1_554
Al5 Zr0 3.061028 1_455
Al5 Zr1 3.206952 1_555
Al6 Ir0 2.538133 1_655
Al6 Ir3 2.664594 1_555
Al6 Ir4 2.664607 1_555
Al6 Ni0 2.711754 1_555
Al6 Zr2 3.061089 1_555
Al6 Zr0 3.061152 1_545
Al6 Zr4 3.206971 1_554
Al7 Ir0 2.538166 1_555
Al7 Ir1 2.664611 1_555
Al7 Ir4 2.664617 1_555
Al7 Ni1 2.711685 1_555
Al7 Zr3 3.060979 1_554
Al7 Zr2 3.060989 1_455
Al7 Zr1 3.207081 1_545
Al8 Ni1 2.410012 1_655
Al8 Ir3 2.533835 1_555
Al8 Ir4 2.533855 1_565
Al8 Zr0 2.843045 1_555
Al8 Zr2 2.843054 1_555
Al8 Zr1 2.908259 1_555
Al8 Al9 2.969802 1_564
Al9 Ni0 2.410105 1_555
Al9 Ir4 2.533778 1_556
Al9 Ir1 2.533781 1_655
Al9 Zr2 2.843251 1_555
Al9 Zr3 2.843255 1_555
Al9 Zr4 2.908218 1_555
Al10 Ni1 2.410006 1_556
Al10 Ir2 2.533835 1_555
Al10 Ir1 2.533852 1_565
Al10 Al3 2.736469 1_455
Al10 Zr5 2.843042 1_555
Al10 Zr3 2.843065 1_555
Al10 Al8 2.888161 1_456
Al10 Zr1 2.908249 1_555
Al10 Al11 2.969795 1_455
Al10 Al9 2.969809 1_465
Al11 Ni0 2.410112 1_565
Al11 Ir2 2.533794 1_655
Al11 Ir3 2.533795 1_556
Al11 Al2 2.736554 1_555
Al11 Zr0 2.843213 1_555
Al11 Zr5 2.843225 1_555
Al11 Al9 2.888251 1_565
Al11 Zr4 2.908235 1_555
Al11 Al8 2.969796 1_556
Al12 Ni1 2.410012 1_556
Al12 Ir3 2.533835 1_556
Al12 Ir4 2.533855 1_556
Al12 Al7 2.736467 1_556
Al12 Al5 2.736506 1_556
Al12 Al6 2.745418 1_556
Al12 Zr3 2.843045 1_555
Al12 Zr5 2.843054 1_555
Al12 Al14 2.888161 1_456
Al12 Zr4 2.908259 1_555
Al12 Al15 2.969796 1_556
Al12 Al13 2.969802 1_546
Al13 Ni0 2.410105 1_565
Al13 Ir4 2.533778 1_565
Al13 Ir1 2.533781 1_565
Al13 Al4 2.736570 1_565
Al13 Al6 2.736573 1_565
Al13 Al7 2.745324 1_565
Al13 Zr5 2.843251 1_555
Al13 Zr0 2.843255 1_555
Al13 Al15 2.888251 1_565
Al13 Zr1 2.908218 1_555
Al13 Al14 2.969809 1_465
Al14 Ni1 2.410006 1_655
Al14 Ir2 2.533835 1_655
Al14 Ir1 2.533852 1_655
Al14 Al7 2.736469 1_655
Al14 Al5 2.736501 1_655
Al14 Al4 2.745414 1_655
Al14 Zr2 2.843042 1_555
Al14 Zr0 2.843065 1_555
Al14 Zr4 2.908249 1_555
Al14 Al15 2.969795 1_655
Al15 Ni0 2.410112 1_555
Al15 Ir2 2.533794 1_555
Al15 Ir3 2.533795 1_555
Al15 Al4 2.736547 1_555
Al15 Al6 2.736554 1_555
Al15 Al5 2.745287 1_555
Al15 Zr3 2.843213 1_555
Al15 Zr2 2.843225 1_555
Al15 Zr1 2.908235 1_555
Ni0 Zr3 3.140273 1_555
Ni0 Zr0 3.140273 1_545
Ni0 Zr2 3.140277 1_555
Ni0 Zr5 3.140277 1_545
Ni1 Zr5 3.140071 1_554
Ni1 Zr2 3.140071 1_455
Ni1 Zr0 3.140080 1_455
Ni1 Zr3 3.140080 1_554
Ir1 Zr5 3.074919 1_545
Ir1 Zr2 3.074919 1_455
Ir1 Zr4 3.206939 1_455
Ir1 Zr1 3.206939 1_545
Ir2 Zr3 3.074897 1_555
Ir2 Zr0 3.074897 1_455
Ir2 Zr1 3.206928 1_555
Ir2 Zr4 3.206928 1_455
Ir3 Zr2 3.074897 1_555
Ir3 Zr5 3.074897 1_554
Ir3 Zr1 3.206934 1_555
Ir3 Zr4 3.206934 1_554
Ir4 Zr0 3.074915 1_545
Ir4 Zr3 3.074915 1_554
Ir4 Zr4 3.206937 1_554
Ir4 Zr1 3.206937 1_545
