# generated using pymatgen
data_Hf5ZnSn2Bi
_symmetry_space_group_name_H-M   'P 1'
_cell_length_a   8.63164863
_cell_length_b   8.61552012
_cell_length_c   5.80055977
_cell_angle_alpha   90.00000000
_cell_angle_beta   90.00000000
_cell_angle_gamma   119.93820420
_symmetry_Int_Tables_number   1
_chemical_formula_structural   Hf5ZnSn2Bi
_chemical_formula_sum   'Hf10 Zn2 Sn4 Bi2'
_cell_volume   373.80567334
_cell_formula_units_Z   2
loop_
 _symmetry_equiv_pos_site_id
 _symmetry_equiv_pos_as_xyz
  1  'x, y, z'
loop_
 _atom_site_type_symbol
 _atom_site_label
 _atom_site_symmetry_multiplicity
 _atom_site_fract_x
 _atom_site_fract_y
 _atom_site_fract_z
 _atom_site_occupancy
  Hf  Hf0  1  0.73763429  0.73102677  0.25000000  1
  Hf  Hf1  1  0.73763429  0.00660752  0.75000000  1
  Hf  Hf2  1  0.00620704  0.26963753  0.25000000  1
  Hf  Hf3  1  0.00620704  0.73656851  0.75000000  1
  Hf  Hf4  1  0.26217486  0.26280167  0.75000000  1
  Hf  Hf5  1  0.26217486  0.99937319  0.25000000  1
  Hf  Hf6  1  0.32726408  0.66363354  0.50000000  1
  Hf  Hf7  1  0.66773641  0.33386821  0.00000000  1
  Hf  Hf8  1  0.66773641  0.33386821  0.50000000  1
  Hf  Hf9  1  0.32726408  0.66363354  0.00000000  1
  Zn  Zn0  1  0.99911019  0.99955559  0.00000000  1
  Zn  Zn1  1  0.99911019  0.99955559  0.50000000  1
  Sn  Sn0  1  0.38767857  0.00095121  0.75000000  1
  Sn  Sn1  1  0.38767857  0.38672637  0.25000000  1
  Sn  Sn2  1  0.99934485  0.61147438  0.25000000  1
  Sn  Sn3  1  0.99934485  0.38787046  0.75000000  1
  Bi  Bi0  1  0.61285171  0.61436957  0.75000000  1
  Bi  Bi1  1  0.61285171  0.99848114  0.25000000  1
loop_
_geom_bond_atom_site_label_1
_geom_bond_atom_site_label_2
_geom_bond_distance
_geom_bond_site_symmetry_2
Hf0 Zn0 2.708762 1_555
Hf0 Zn1 2.708762 1_555
Hf0 Sn2 2.913141 1_555
Hf0 Sn1 2.996676 1_555
Hf1 Zn1 2.708758 1_545
Hf1 Zn0 2.708758 1_546
Hf1 Sn3 2.913142 1_555
Hf1 Sn0 2.996672 1_555
Hf2 Zn0 2.716400 1_445
Hf2 Zn1 2.716400 1_445
Hf2 Sn1 2.923057 1_555
Hf2 Sn2 2.975106 1_455
Hf2 Sn3 3.084312 1_454
Hf2 Sn3 3.084312 1_455
Hf3 Zn0 2.716415 1_456
Hf3 Zn1 2.716415 1_455
Hf3 Sn0 2.923057 1_565
Hf3 Sn3 2.975097 1_455
Hf3 Sn2 3.084309 1_455
Hf3 Sn2 3.084309 1_456
Hf4 Zn1 2.694893 1_445
Hf4 Zn0 2.694893 1_446
Hf4 Sn0 2.949971 1_555
Hf4 Sn3 2.957678 1_455
Hf4 Sn1 3.093646 1_556
Hf4 Sn1 3.093646 1_555
Hf5 Zn1 2.694896 1_455
Hf5 Zn0 2.694896 1_455
Hf5 Sn1 2.949963 1_565
Hf5 Sn2 2.957679 1_455
Hf5 Sn0 3.093648 1_564
Hf5 Sn0 3.093648 1_565
Hf6 Sn2 3.007807 1_455
Hf6 Sn3 3.007815 1_455
Hf6 Sn0 3.050899 1_565
Hf6 Sn1 3.050929 1_555
Hf7 Sn3 3.030356 1_554
Hf7 Sn2 3.030356 1_555
Hf7 Sn1 3.041832 1_555
Hf7 Sn0 3.041836 1_554
Hf8 Sn3 3.030356 1_555
Hf8 Sn2 3.030356 1_555
Hf8 Sn1 3.041832 1_555
Hf8 Sn0 3.041836 1_555
Hf9 Sn2 3.007807 1_455
Hf9 Sn3 3.007815 1_454
Hf9 Sn0 3.050899 1_564
Hf9 Sn1 3.050929 1_555
Bi0 Hf1 2.991152 1_565
Bi0 Hf3 3.011408 1_655
Bi0 Hf4 3.030758 1_555
Bi0 Hf8 3.051288 1_555
Bi0 Hf7 3.051288 1_556
Bi0 Hf9 3.066602 1_556
Bi0 Hf6 3.066602 1_555
Bi0 Hf0 3.082428 1_555
Bi0 Hf0 3.082428 1_556
Bi1 Hf0 2.991143 1_555
Bi1 Hf2 3.011408 1_665
Bi1 Hf5 3.030762 1_555
Bi1 Hf8 3.051295 1_565
Bi1 Hf7 3.051295 1_565
Bi1 Hf9 3.066583 1_555
Bi1 Hf6 3.066583 1_555
Bi1 Hf1 3.082427 1_564
Bi1 Hf1 3.082427 1_565
