# generated using pymatgen
data_RbSiSbS4
_symmetry_space_group_name_H-M   'P 1'
_cell_length_a   7.01945496
_cell_length_b   6.45141641
_cell_length_c   18.10853801
_cell_angle_alpha   70.99338118
_cell_angle_beta   90.00000000
_cell_angle_gamma   90.00000000
_symmetry_Int_Tables_number   1
_chemical_formula_structural   RbSiSbS4
_chemical_formula_sum   'Rb4 Si4 Sb4 S16'
_cell_volume   775.34437893
_cell_formula_units_Z   4
loop_
 _symmetry_equiv_pos_site_id
 _symmetry_equiv_pos_as_xyz
  1  'x, y, z'
loop_
 _atom_site_type_symbol
 _atom_site_label
 _atom_site_symmetry_multiplicity
 _atom_site_fract_x
 _atom_site_fract_y
 _atom_site_fract_z
 _atom_site_occupancy
  Rb  Rb0  1  0.75965156  0.30314843  0.46393829  1
  Rb  Rb1  1  0.25965156  0.69685157  0.03606171  1
  Rb  Rb2  1  0.24034844  0.69685157  0.53606171  1
  Rb  Rb3  1  0.74034844  0.30314843  0.96393829  1
  Si  Si0  1  0.21994818  0.19483919  0.34284522  1
  Si  Si1  1  0.71994818  0.80516081  0.15715478  1
  Si  Si2  1  0.78005182  0.80516081  0.65715478  1
  Si  Si3  1  0.28005182  0.19483919  0.84284522  1
  Sb  Sb0  1  0.84393161  0.23622384  0.22071852  1
  Sb  Sb1  1  0.65606839  0.23622384  0.72071852  1
  Sb  Sb2  1  0.34393161  0.76377616  0.27928148  1
  Sb  Sb3  1  0.15606839  0.76377616  0.77928148  1
  S  S0  1  0.51993791  0.99429654  0.87176931  1
  S  S1  1  0.77149031  0.58709319  0.09342778  1
  S  S2  1  0.03009777  0.99563006  0.85713980  1
  S  S3  1  0.46990223  0.99563006  0.35713980  1
  S  S4  1  0.96990223  0.00436994  0.14286020  1
  S  S5  1  0.32517099  0.38513161  0.72154107  1
  S  S6  1  0.22850969  0.41290681  0.90657222  1
  S  S7  1  0.98006209  0.99429654  0.37176931  1
  S  S8  1  0.27149031  0.41290681  0.40657222  1
  S  S9  1  0.01993791  0.00570346  0.62823069  1
  S  S10  1  0.72850969  0.58709319  0.59342778  1
  S  S11  1  0.67482901  0.61486839  0.27845893  1
  S  S12  1  0.53009777  0.00436994  0.64286020  1
  S  S13  1  0.82517099  0.61486839  0.77845893  1
  S  S14  1  0.17482901  0.38513161  0.22154107  1
  S  S15  1  0.48006209  0.00570346  0.12823069  1
loop_
_geom_bond_atom_site_label_1
_geom_bond_atom_site_label_2
_geom_bond_distance
_geom_bond_site_symmetry_2
Rb0 S11 3.358632 1_555
Rb0 S7 3.363892 1_545
Rb0 S10 3.420481 1_555
Rb0 S9 3.486130 1_655
Rb0 S12 3.569546 1_555
Rb0 S8 3.583738 1_555
Rb0 S8 3.742971 1_655
Rb0 S3 3.783123 1_545
Rb1 S14 3.358632 1_555
Rb1 S15 3.363892 1_565
Rb1 S6 3.420481 1_554
Rb1 S0 3.486130 1_554
Rb1 S2 3.569546 1_554
Rb1 S1 3.583738 1_455
Rb1 S1 3.742971 1_555
Rb1 S4 3.783123 1_465
Rb2 S5 3.358632 1_555
Rb2 S9 3.363892 1_565
Rb2 S8 3.420481 1_555
Rb2 S7 3.486130 1_455
Rb2 S3 3.569546 1_555
Rb2 S10 3.583738 1_555
Rb2 S10 3.742971 1_455
Rb2 S12 3.783123 1_565
Rb3 S13 3.358632 1_555
Rb3 S0 3.363892 1_545
Rb3 S1 3.420481 1_556
Rb3 S15 3.486130 1_556
Rb3 S4 3.569546 1_556
Rb3 S6 3.583738 1_655
Rb3 S6 3.742971 1_555
Rb3 S2 3.783123 1_645
S0 Si3 2.083805 1_565
S0 Sb1 2.837299 1_565
S1 Si1 2.121158 1_555
S1 Sb0 2.701322 1_555
S2 Si3 2.140192 1_565
S2 Sb3 2.526011 1_555
S3 Si0 2.140192 1_565
S3 Sb2 2.526011 1_555
S4 Si1 2.140192 1_545
S4 Sb0 2.526011 1_555
S5 Si3 2.162442 1_555
S5 Sb1 2.515442 1_555
S6 Si3 2.121158 1_555
S6 Sb3 2.701322 1_555
S7 Si0 2.083805 1_665
S7 Sb0 2.837299 1_565
S8 Si0 2.121158 1_555
S8 Sb2 2.701322 1_555
S9 Si2 2.083805 1_445
S9 Sb3 2.837299 1_545
S10 Si2 2.121158 1_555
S10 Sb1 2.701322 1_555
S11 Si1 2.162442 1_555
S11 Sb2 2.515442 1_555
S12 Si2 2.140192 1_545
S12 Sb1 2.526011 1_555
S13 Si2 2.162442 1_555
S13 Sb3 2.515442 1_655
S14 Si0 2.162442 1_555
S14 Sb0 2.515442 1_455
S15 Si1 2.083805 1_545
S15 Sb2 2.837299 1_545
