# generated using pymatgen
data_MgSc2AlAu2
_symmetry_space_group_name_H-M   'P 1'
_cell_length_a   7.34713038
_cell_length_b   7.34713102
_cell_length_c   7.39864898
_cell_angle_alpha   90.00000000
_cell_angle_beta   90.00000000
_cell_angle_gamma   120.00000167
_symmetry_Int_Tables_number   1
_chemical_formula_structural   MgSc2AlAu2
_chemical_formula_sum   'Mg3 Sc6 Al3 Au6'
_cell_volume   345.87452741
_cell_formula_units_Z   3
loop_
 _symmetry_equiv_pos_site_id
 _symmetry_equiv_pos_as_xyz
  1  'x, y, z'
loop_
 _atom_site_type_symbol
 _atom_site_label
 _atom_site_symmetry_multiplicity
 _atom_site_fract_x
 _atom_site_fract_y
 _atom_site_fract_z
 _atom_site_occupancy
  Mg  Mg0  1  0.75114282  0.75114282  0.00000000  1
  Mg  Mg1  1  0.24885718  1.00000000  0.00000000  1
  Mg  Mg2  1  0.00000000  0.24885718  0.00000000  1
  Sc  Sc0  1  0.59740822  0.99815859  0.74404634  1
  Sc  Sc1  1  0.00184141  0.59924963  0.74404634  1
  Sc  Sc2  1  0.40075037  0.40259178  0.74404634  1
  Sc  Sc3  1  0.99815859  0.59740822  0.25595366  1
  Sc  Sc4  1  0.59924963  0.00184141  0.25595366  1
  Sc  Sc5  1  0.40259178  0.40075037  0.25595366  1
  Al  Al0  1  0.72450861  0.72450861  0.50000000  1
  Al  Al1  1  0.27549139  0.00000000  0.50000000  1
  Al  Al2  1  1.00000000  0.27549139  0.50000000  1
  Au  Au0  1  0.00000000  0.00000000  0.72104898  1
  Au  Au1  1  0.00000000  0.00000000  0.27895102  1
  Au  Au2  1  0.66666700  0.33333300  0.99779894  1
  Au  Au3  1  0.66666700  0.33333300  0.50235413  1
  Au  Au4  1  0.33333300  0.66666700  0.49764587  1
  Au  Au5  1  0.33333300  0.66666700  0.00220106  1
loop_
_geom_bond_atom_site_label_1
_geom_bond_atom_site_label_2
_geom_bond_distance
_geom_bond_site_symmetry_2
Mg0 Sc2 3.190443 1_554
Mg0 Sc5 3.190443 1_555
Mg0 Sc3 3.194610 1_555
Mg0 Sc0 3.194610 1_554
Mg0 Sc1 3.206204 1_654
Mg0 Sc4 3.206204 1_565
Mg1 Sc4 3.190443 1_565
Mg1 Sc0 3.190443 1_554
Mg1 Sc1 3.194610 1_554
Mg1 Sc5 3.194610 1_565
Mg1 Sc3 3.206204 1_455
Mg1 Sc2 3.206204 1_564
Mg2 Sc3 3.190443 1_455
Mg2 Sc1 3.190443 1_554
Mg2 Sc2 3.194610 1_554
Mg2 Sc4 3.194610 1_455
Mg2 Sc5 3.206204 1_555
Mg2 Sc0 3.206204 1_444
Al0 Au0 2.602231 1_665
Al0 Au1 2.602231 1_665
Al0 Au4 2.686915 1_555
Al0 Au3 2.686915 1_555
Al0 Sc2 2.981011 1_555
Al0 Sc5 2.981011 1_555
Al0 Sc3 3.170494 1_555
Al0 Sc0 3.170495 1_555
Al0 Sc1 3.183424 1_655
Al0 Sc4 3.183424 1_565
Al1 Au0 2.602231 1_555
Al1 Au1 2.602231 1_555
Al1 Au4 2.686908 1_545
Al1 Au3 2.686912 1_555
Al1 Sc4 2.981011 1_555
Al1 Sc0 2.981011 1_545
Al1 Sc1 3.170495 1_545
Al1 Sc5 3.170495 1_555
Al1 Sc3 3.183424 1_445
Al1 Sc2 3.183424 1_555
Al2 Au0 2.602231 1_655
Al2 Au1 2.602231 1_655
Al2 Au3 2.686908 1_555
Al2 Au4 2.686912 1_655
Al2 Sc3 2.981011 1_555
Al2 Sc1 2.981011 1_655
Al2 Sc2 3.170494 1_655
Al2 Sc4 3.170494 1_555
Al2 Sc5 3.183424 1_655
Al2 Sc0 3.183424 1_545
Au0 Mg1 2.757266 1_546
Au0 Mg0 2.757266 1_446
Au0 Mg2 2.757266 1_556
Au0 Sc0 2.956054 1_445
Au0 Sc2 2.956054 1_555
Au0 Sc1 2.956054 1_545
Au1 Mg1 2.757266 1_545
Au1 Mg0 2.757266 1_445
Au1 Mg2 2.757266 1_555
Au1 Sc4 2.956054 1_455
Au1 Sc5 2.956054 1_555
Au1 Sc3 2.956054 1_445
Au2 Mg2 2.811279 1_656
Au2 Mg1 2.811284 1_546
Au2 Mg0 2.811286 1_556
Au2 Sc0 2.931694 1_545
Au2 Sc1 2.931695 1_655
Au2 Sc2 2.931699 1_555
Au2 Sc4 2.935776 1_556
Au2 Sc3 2.935778 1_556
Au2 Sc5 2.935782 1_556
Au3 Sc0 2.875368 1_545
Au3 Sc1 2.875370 1_655
Au3 Sc2 2.875374 1_555
Au3 Sc4 2.879954 1_555
Au3 Sc3 2.879956 1_555
Au3 Sc5 2.879960 1_555
Au4 Sc3 2.875368 1_455
Au4 Sc4 2.875370 1_565
Au4 Sc5 2.875374 1_555
Au4 Sc1 2.879954 1_555
Au4 Sc0 2.879956 1_555
Au4 Sc2 2.879960 1_555
Au5 Mg1 2.811279 1_555
Au5 Mg2 2.811284 1_555
Au5 Mg0 2.811286 1_555
Au5 Sc3 2.931693 1_455
Au5 Sc4 2.931695 1_565
Au5 Sc5 2.931699 1_555
Au5 Sc1 2.935776 1_554
Au5 Sc0 2.935778 1_554
Au5 Sc2 2.935782 1_554
