# generated using pymatgen
data_KLiMnSe2
_symmetry_space_group_name_H-M   'P 1'
_cell_length_a   7.52488432
_cell_length_b   7.52488485
_cell_length_c   7.52488527
_cell_angle_alpha   147.50137087
_cell_angle_beta   147.50138050
_cell_angle_gamma   46.62197989
_symmetry_Int_Tables_number   1
_chemical_formula_structural   KLiMnSe2
_chemical_formula_sum   'K1 Li1 Mn1 Se2'
_cell_volume   122.55391551
_cell_formula_units_Z   1
loop_
 _symmetry_equiv_pos_site_id
 _symmetry_equiv_pos_as_xyz
  1  'x, y, z'
loop_
 _atom_site_type_symbol
 _atom_site_label
 _atom_site_symmetry_multiplicity
 _atom_site_fract_x
 _atom_site_fract_y
 _atom_site_fract_z
 _atom_site_occupancy
  K  K0  1  0.00000000  0.00000000  0.00000000  1
  Li  Li0  1  0.75000000  0.25000000  0.50000000  1
  Mn  Mn0  1  0.25000000  0.75000000  0.50000000  1
  Se  Se0  1  0.64486545  0.64486545  0.00000000  1
  Se  Se1  1  0.35513455  0.35513455  1.00000000  1
loop_
_geom_bond_atom_site_label_1
_geom_bond_atom_site_label_2
_geom_bond_distance
_geom_bond_site_symmetry_2
K0 Se0 3.588308 1_545
K0 Se1 3.588308 1_454
K0 Se0 3.588308 1_455
K0 Se1 3.588308 1_544
K0 Se0 3.588308 1_556
K0 Se1 3.588308 1_443
K0 Se0 3.588309 1_444
K0 Se1 3.588309 1_555
Li0 Se1 2.558320 1_655
Li0 Se1 2.558321 1_554
Li0 Se0 2.558321 1_545
Li0 Se0 2.558321 1_556
Mn0 Se0 2.558320 1_455
Mn0 Se0 2.558321 1_556
Mn0 Se1 2.558321 1_565
Mn0 Se1 2.558321 1_554
