# generated using pymatgen
data_Ga4Hg11(PBr4)4
_symmetry_space_group_name_H-M   'P 1'
_cell_length_a   7.64363570
_cell_length_b   7.64363611
_cell_length_c   22.14989019
_cell_angle_alpha   82.42133215
_cell_angle_beta   82.42133141
_cell_angle_gamma   59.43542508
_symmetry_Int_Tables_number   1
_chemical_formula_structural   Ga4Hg11(PBr4)4
_chemical_formula_sum   'Ga4 Hg11 P4 Br16'
_cell_volume   1101.37917979
_cell_formula_units_Z   1
loop_
 _symmetry_equiv_pos_site_id
 _symmetry_equiv_pos_as_xyz
  1  'x, y, z'
loop_
 _atom_site_type_symbol
 _atom_site_label
 _atom_site_symmetry_multiplicity
 _atom_site_fract_x
 _atom_site_fract_y
 _atom_site_fract_z
 _atom_site_occupancy
  Ga  Ga0  1  0.63917464  0.63917464  0.10876245  1
  Ga  Ga1  1  0.36082536  0.36082536  0.89123755  1
  Ga  Ga2  1  0.75784374  0.75784374  0.61345500  1
  Ga  Ga3  1  0.24215626  0.24215626  0.38654500  1
  Hg  Hg0  1  0.03183363  0.03183363  0.87907261  1
  Hg  Hg1  1  0.76417289  0.76417289  0.28363027  1
  Hg  Hg2  1  0.46942032  0.46942032  0.55944299  1
  Hg  Hg3  1  0.73505509  0.23585757  0.71995908  1
  Hg  Hg4  1  0.26494491  0.76414243  0.28004092  1
  Hg  Hg5  1  0.76414243  0.26494491  0.28004092  1
  Hg  Hg6  1  0.23585757  0.73505509  0.71995908  1
  Hg  Hg7  1  0.53057968  0.53057968  0.44055701  1
  Hg  Hg8  1  0.96816637  0.96816637  0.12092739  1
  Hg  Hg9  1  0.00000000  0.00000000  0.00000000  1
  Hg  Hg10  1  0.23582711  0.23582711  0.71636973  1
  P  P0  1  0.94024514  0.94024514  0.23630843  1
  P  P1  1  0.05975486  0.05975486  0.76369157  1
  P  P2  1  0.58537740  0.58537740  0.32740403  1
  P  P3  1  0.41462260  0.41462260  0.67259597  1
  Br  Br0  1  0.53686086  0.04242731  0.84929768  1
  Br  Br1  1  0.06837242  0.06837242  0.42217279  1
  Br  Br2  1  0.53492659  0.53492659  0.84951045  1
  Br  Br3  1  0.42424473  0.93271409  0.58372188  1
  Br  Br4  1  0.73698454  0.73698454  0.72027425  1
  Br  Br5  1  0.33522597  0.33522597  0.99609275  1
  Br  Br6  1  0.46313914  0.95757269  0.15070232  1
  Br  Br7  1  0.95757269  0.46313914  0.15070232  1
  Br  Br8  1  0.46507341  0.46507341  0.15048955  1
  Br  Br9  1  0.57575527  0.06728591  0.41627812  1
  Br  Br10  1  0.66477403  0.66477403  0.00390725  1
  Br  Br11  1  0.93271409  0.42424473  0.58372188  1
  Br  Br12  1  0.26301546  0.26301546  0.27972575  1
  Br  Br13  1  0.06728591  0.57575527  0.41627812  1
  Br  Br14  1  0.93162758  0.93162758  0.57782721  1
  Br  Br15  1  0.04242731  0.53686086  0.84929768  1
loop_
_geom_bond_atom_site_label_1
_geom_bond_atom_site_label_2
_geom_bond_distance
_geom_bond_site_symmetry_2
Hg0 P1 2.526097 1_555
Hg0 Hg9 2.647510 1_556
Hg1 P0 2.412279 1_555
Hg1 P2 2.424049 1_555
Hg2 P3 2.501431 1_555
Hg2 Hg7 2.635192 1_555
Hg3 P1 2.408849 1_655
Hg3 P3 2.421275 1_555
Hg4 P0 2.408849 1_455
Hg4 P2 2.421275 1_555
Hg5 P0 2.408849 1_545
Hg5 P2 2.421275 1_555
Hg6 P1 2.408849 1_565
Hg6 P3 2.421275 1_555
Hg7 P2 2.501431 1_555
Hg8 P0 2.526097 1_555
Hg8 Hg9 2.647510 1_665
Hg10 P1 2.412279 1_555
Hg10 P3 2.424049 1_555
Br0 Ga1 2.352166 1_555
Br1 Ga3 2.322336 1_555
Br2 Ga1 2.355489 1_555
Br3 Ga2 2.338125 1_555
Br4 Ga2 2.340043 1_555
Br5 Ga1 2.295630 1_555
Br6 Ga0 2.352166 1_555
Br7 Ga0 2.352166 1_555
Br8 Ga0 2.355489 1_555
Br9 Ga3 2.338125 1_555
Br10 Ga0 2.295630 1_555
Br11 Ga2 2.338126 1_555
Br12 Ga3 2.340043 1_555
Br13 Ga3 2.338126 1_555
Br14 Ga2 2.322336 1_555
Br15 Ga1 2.352166 1_555
