# generated using pymatgen
data_B6H10N
_symmetry_space_group_name_H-M   'P 1'
_cell_length_a   7.66997541
_cell_length_b   7.66997594
_cell_length_c   7.66998024
_cell_angle_alpha   60.00002421
_cell_angle_beta   60.00005956
_cell_angle_gamma   60.00008201
_symmetry_Int_Tables_number   1
_chemical_formula_structural   B6H10N
_chemical_formula_sum   'B12 H20 N2'
_cell_volume   319.05662349
_cell_formula_units_Z   2
loop_
 _symmetry_equiv_pos_site_id
 _symmetry_equiv_pos_as_xyz
  1  'x, y, z'
loop_
 _atom_site_type_symbol
 _atom_site_label
 _atom_site_symmetry_multiplicity
 _atom_site_fract_x
 _atom_site_fract_y
 _atom_site_fract_z
 _atom_site_occupancy
  B  B0  1  0.05117902  0.94881999  0.21431579  1
  B  B1  1  0.21431911  0.78568116  0.05117944  1
  B  B2  1  0.94882111  0.05118016  0.78568259  1
  B  B3  1  0.78568249  0.94882110  0.05118111  1
  B  B4  1  0.78568217  0.05117940  0.21431855  1
  B  B5  1  0.94882099  0.78568147  0.21431923  1
  B  B6  1  0.21431933  0.94882019  0.78568087  1
  B  B7  1  0.05118068  0.78568268  0.94882163  1
  B  B8  1  0.21431823  0.05117914  0.94881865  1
  B  B9  1  0.05117911  0.21431833  0.78568099  1
  B  B10  1  0.94881961  0.21431689  0.05117853  1
  B  B11  1  0.78568166  0.21431813  0.94882088  1
  H  H0  1  0.19539967  0.19539855  0.41378791  1
  H  H1  1  0.19538220  0.19538374  0.19538856  1
  H  H2  1  0.41378031  0.19540489  0.19540055  1
  H  H3  1  0.19539813  0.41378667  0.19540036  1
  H  H4  1  0.80459884  0.80459902  0.58621455  1
  H  H5  1  0.80461243  0.80461192  0.80461260  1
  H  H6  1  0.58620911  0.80460267  0.80460182  1
  H  H7  1  0.80459716  0.58621239  0.80460048  1
  H  H8  1  0.08869322  0.91130473  0.36585391  1
  H  H9  1  0.36585850  0.63414157  0.08869556  1
  H  H10  1  0.91130756  0.08869467  0.63414642  1
  H  H11  1  0.63414753  0.91130720  0.08869434  1
  H  H12  1  0.63414151  0.08869535  0.36585852  1
  H  H13  1  0.91130462  0.63414226  0.36585750  1
  H  H14  1  0.63414187  0.36585850  0.91130428  1
  H  H15  1  0.91130588  0.36585179  0.08869292  1
  H  H16  1  0.08869590  0.36585768  0.63414209  1
  H  H17  1  0.36585277  0.08869250  0.91130554  1
  H  H18  1  0.08869448  0.63414793  0.91130702  1
  H  H19  1  0.36585791  0.91130465  0.63414229  1
  N  N0  1  0.25000334  0.24999830  0.24999282  1
  N  N1  1  0.75001453  0.75000539  0.75000269  1
loop_
_geom_bond_atom_site_label_1
_geom_bond_atom_site_label_2
_geom_bond_distance
_geom_bond_site_symmetry_2
B0 H8 1.197377 1_555
B1 H9 1.197394 1_555
B2 H10 1.197361 1_555
B3 H11 1.197357 1_555
B4 H12 1.197400 1_555
B5 H13 1.197389 1_555
B6 H19 1.197387 1_555
B7 H18 1.197358 1_555
B8 H17 1.197352 1_555
B9 H16 1.197392 1_555
B10 H15 1.197358 1_555
B11 H14 1.197399 1_555
H0 N0 1.025769 1_555
H1 N0 1.026049 1_555
H2 N0 1.025656 1_555
H3 N0 1.025727 1_555
H4 N1 1.025726 1_555
H5 N1 1.025889 1_555
H6 N1 1.025834 1_555
H7 N1 1.025756 1_555
