# generated using pymatgen
data_TaCd2SbO7
_symmetry_space_group_name_H-M   'P 1'
_cell_length_a   7.29047289
_cell_length_b   7.33159906
_cell_length_c   7.33159952
_cell_angle_alpha   60.27333370
_cell_angle_beta   60.18539106
_cell_angle_gamma   60.18539283
_symmetry_Int_Tables_number   1
_chemical_formula_structural   TaCd2SbO7
_chemical_formula_sum   'Ta2 Cd4 Sb2 O14'
_cell_volume   278.44766441
_cell_formula_units_Z   2
loop_
 _symmetry_equiv_pos_site_id
 _symmetry_equiv_pos_as_xyz
  1  'x, y, z'
loop_
 _atom_site_type_symbol
 _atom_site_label
 _atom_site_symmetry_multiplicity
 _atom_site_fract_x
 _atom_site_fract_y
 _atom_site_fract_z
 _atom_site_occupancy
  Ta  Ta0  1  0.62500000  0.12500000  0.62500000  1
  Ta  Ta1  1  0.62500000  0.62500000  0.12500000  1
  Cd  Cd0  1  0.62500000  0.12500000  0.12500000  1
  Cd  Cd1  1  0.12500000  0.62500000  0.12500000  1
  Cd  Cd2  1  0.12500000  0.12500000  0.62500000  1
  Cd  Cd3  1  0.12500000  0.12500000  0.12500000  1
  Sb  Sb0  1  0.12500000  0.62500000  0.62500000  1
  Sb  Sb1  1  0.62500000  0.62500000  0.62500000  1
  O  O0  1  0.69476343  0.69390649  0.30720580  1
  O  O1  1  0.30412428  0.30720580  0.69390649  1
  O  O2  1  0.69476343  0.30720580  0.69390649  1
  O  O3  1  0.30412428  0.69390649  0.30720580  1
  O  O4  1  0.30043711  0.69956289  0.69956289  1
  O  O5  1  0.69123381  0.30876619  0.30876619  1
  O  O6  1  0.55523657  0.55609351  0.94279420  1
  O  O7  1  0.94587572  0.94279420  0.55609351  1
  O  O8  1  0.55523657  0.94279420  0.55609351  1
  O  O9  1  0.94587572  0.55609351  0.94279420  1
  O  O10  1  0.94956289  0.55043711  0.55043711  1
  O  O11  1  0.55876619  0.94123381  0.94123381  1
  O  O12  1  0.25158425  0.24841575  0.24841575  1
  O  O13  1  0.99841575  0.00158425  0.00158425  1
loop_
_geom_bond_atom_site_label_1
_geom_bond_atom_site_label_2
_geom_bond_distance
_geom_bond_site_symmetry_2
Cd0 O13 2.227504 1_555
Cd0 O12 2.227504 1_555
Cd0 O6 2.631076 1_554
Cd0 O0 2.631076 1_545
Cd0 O8 2.631076 1_545
Cd0 O2 2.631076 1_554
Cd0 O5 2.637738 1_555
Cd0 O11 2.637738 1_544
Cd1 O13 2.261070 1_465
Cd1 O12 2.261070 1_555
Cd1 O10 2.588617 1_455
Cd1 O4 2.588617 1_554
Cd1 O3 2.608669 1_555
Cd1 O9 2.608669 1_454
Cd1 O6 2.608669 1_554
Cd1 O0 2.608669 1_455
Cd2 O13 2.261070 1_456
Cd2 O12 2.261070 1_555
Cd2 O10 2.588617 1_455
Cd2 O4 2.588617 1_545
Cd2 O1 2.608669 1_555
Cd2 O7 2.608669 1_445
Cd2 O8 2.608669 1_545
Cd2 O2 2.608669 1_455
Cd3 O12 2.227504 1_555
Cd3 O13 2.227504 1_455
Cd3 O9 2.631076 1_454
Cd3 O3 2.631076 1_545
Cd3 O7 2.631076 1_445
Cd3 O1 2.631076 1_554
Cd3 O11 2.637738 1_544
Cd3 O5 2.637738 1_455
O0 Sb1 1.962732 1_555
O0 Ta1 1.974547 1_555
O1 Sb0 1.962732 1_555
O1 Ta0 1.974547 1_555
O2 Sb1 1.962731 1_555
O2 Ta0 1.974547 1_555
O3 Sb0 1.962732 1_555
O3 Ta1 1.974547 1_555
O4 Sb0 1.980024 1_555
O4 Sb1 1.980024 1_555
O5 Ta1 1.964592 1_555
O5 Ta0 1.964592 1_555
O6 Sb1 1.962732 1_555
O6 Ta1 1.974547 1_556
O7 Sb0 1.962732 1_655
O7 Ta0 1.974547 1_565
O8 Sb1 1.962731 1_555
O8 Ta0 1.974547 1_565
O9 Sb0 1.962732 1_655
O9 Ta1 1.974547 1_556
O10 Sb0 1.980024 1_655
O10 Sb1 1.980024 1_555
O11 Ta1 1.964592 1_556
O11 Ta0 1.964592 1_565
