# generated using pymatgen
data_KHfMnF7
_symmetry_space_group_name_H-M   'P 1'
_cell_length_a   6.28391430
_cell_length_b   6.28391527
_cell_length_c   8.18725393
_cell_angle_alpha   90.00000000
_cell_angle_beta   90.00000000
_cell_angle_gamma   116.28321978
_symmetry_Int_Tables_number   1
_chemical_formula_structural   KHfMnF7
_chemical_formula_sum   'K2 Hf2 Mn2 F14'
_cell_volume   289.87141695
_cell_formula_units_Z   2
loop_
 _symmetry_equiv_pos_site_id
 _symmetry_equiv_pos_as_xyz
  1  'x, y, z'
loop_
 _atom_site_type_symbol
 _atom_site_label
 _atom_site_symmetry_multiplicity
 _atom_site_fract_x
 _atom_site_fract_y
 _atom_site_fract_z
 _atom_site_occupancy
  K  K0  1  0.50000000  0.50000000  0.50000000  1
  K  K1  1  0.50000000  0.50000000  0.00000000  1
  Hf  Hf0  1  0.80681733  0.19318267  0.25000000  1
  Hf  Hf1  1  0.19318267  0.80681733  0.75000000  1
  Mn  Mn0  1  0.19323611  0.80676389  0.25000000  1
  Mn  Mn1  1  0.80676389  0.19323611  0.75000000  1
  F  F0  1  0.83981515  0.55976035  0.75000000  1
  F  F1  1  0.16018485  0.44023965  0.25000000  1
  F  F2  1  0.17110371  0.46704554  0.75000000  1
  F  F3  1  0.79553396  0.20446604  0.49352229  1
  F  F4  1  0.44023965  0.16018485  0.75000000  1
  F  F5  1  0.79553396  0.20446604  0.00647771  1
  F  F6  1  0.20446604  0.79553396  0.99352229  1
  F  F7  1  0.82889629  0.53295446  0.25000000  1
  F  F8  1  0.55976035  0.83981515  0.25000000  1
  F  F9  1  0.99538670  0.00461330  0.25000000  1
  F  F10  1  0.00461330  0.99538670  0.75000000  1
  F  F11  1  0.20446604  0.79553396  0.50647771  1
  F  F12  1  0.53295446  0.82889629  0.75000000  1
  F  F13  1  0.46704554  0.17110371  0.25000000  1
loop_
_geom_bond_atom_site_label_1
_geom_bond_atom_site_label_2
_geom_bond_distance
_geom_bond_site_symmetry_2
F0 Hf1 2.070735 1_655
F0 Mn1 2.219067 1_555
F0 K1 2.860087 1_556
F0 K0 2.860087 1_555
F1 Hf0 2.070735 1_455
F1 Mn0 2.219067 1_555
F1 K0 2.860087 1_555
F1 K1 2.860087 1_555
F2 Hf1 2.077389 1_555
F2 Mn1 2.171056 1_455
F2 K0 2.850399 1_555
F2 K1 2.850399 1_556
F3 Hf0 1.997414 1_555
F3 Mn1 2.103267 1_555
F3 K0 3.155138 1_555
F4 Hf1 2.070735 1_545
F4 Mn1 2.219067 1_555
F4 K0 2.860087 1_555
F4 K1 2.860087 1_556
F5 Hf0 1.997414 1_555
F5 Mn1 2.103267 1_554
F5 K1 3.155138 1_555
F6 Hf1 1.997414 1_555
F6 Mn0 2.103267 1_556
F6 K1 3.155138 1_556
F7 Hf0 2.077389 1_555
F7 Mn0 2.171056 1_655
F7 K1 2.850399 1_555
F7 K0 2.850399 1_555
F8 Hf0 2.070735 1_565
F8 Mn0 2.219067 1_555
F8 K0 2.860087 1_555
F8 K1 2.860087 1_555
F9 Hf0 2.012894 1_555
F9 Mn0 2.111954 1_645
F10 Hf1 2.012894 1_555
F10 Mn1 2.111954 1_465
F11 Hf1 1.997414 1_555
F11 Mn0 2.103267 1_555
F11 K0 3.155138 1_555
F12 Hf1 2.077388 1_555
F12 Mn1 2.171056 1_565
F12 K0 2.850399 1_555
F12 K1 2.850399 1_556
F13 Hf0 2.077388 1_555
F13 Mn0 2.171056 1_545
F13 K0 2.850399 1_555
F13 K1 2.850399 1_555
