# generated using pymatgen
data_Zr6Zn22SnHg
_symmetry_space_group_name_H-M   'P 1'
_cell_length_a   8.81032577
_cell_length_b   8.81030863
_cell_length_c   8.81030841
_cell_angle_alpha   60.00010295
_cell_angle_beta   60.00011625
_cell_angle_gamma   60.00011869
_symmetry_Int_Tables_number   1
_chemical_formula_structural   Zr6Zn22SnHg
_chemical_formula_sum   'Zr6 Zn22 Sn1 Hg1'
_cell_volume   483.57107159
_cell_formula_units_Z   1
loop_
 _symmetry_equiv_pos_site_id
 _symmetry_equiv_pos_as_xyz
  1  'x, y, z'
loop_
 _atom_site_type_symbol
 _atom_site_label
 _atom_site_symmetry_multiplicity
 _atom_site_fract_x
 _atom_site_fract_y
 _atom_site_fract_z
 _atom_site_occupancy
  Zr  Zr0  1  0.73523605  0.26476395  0.26476395  1
  Zr  Zr1  1  0.26476395  0.73523605  0.73523605  1
  Zr  Zr2  1  0.26476495  0.73523605  0.26476195  1
  Zr  Zr3  1  0.73523505  0.26476395  0.73523805  1
  Zr  Zr4  1  0.26476495  0.26476195  0.73523605  1
  Zr  Zr5  1  0.73523505  0.73523805  0.26476395  1
  Zn  Zn0  1  0.13596210  0.13596210  0.13596210  1
  Zn  Zn1  1  0.86403790  0.86403790  0.86403790  1
  Zn  Zn2  1  0.13596110  0.13596110  0.59211771  1
  Zn  Zn3  1  0.13596110  0.59211771  0.13596110  1
  Zn  Zn4  1  0.86403890  0.86403890  0.40788229  1
  Zn  Zn5  1  0.86403890  0.40788229  0.86403890  1
  Zn  Zn6  1  0.59211671  0.13596110  0.13596110  1
  Zn  Zn7  1  0.40788329  0.86403890  0.86403890  1
  Zn  Zn8  1  0.50000000  0.00000000  0.00000000  1
  Zn  Zn9  1  0.00000000  0.50000000  0.50000000  1
  Zn  Zn10  1  0.00000000  0.50000000  0.00000000  1
  Zn  Zn11  1  0.50000000  0.00000000  0.50000000  1
  Zn  Zn12  1  0.00000000  0.00000000  0.50000000  1
  Zn  Zn13  1  0.50000000  0.50000000  0.00000000  1
  Zn  Zn14  1  0.34784661  0.34784661  0.34784661  1
  Zn  Zn15  1  0.65215339  0.65215339  0.65215339  1
  Zn  Zn16  1  0.34784461  0.34784461  0.95646416  1
  Zn  Zn17  1  0.34784461  0.95646416  0.34784461  1
  Zn  Zn18  1  0.65215539  0.65215539  0.04353584  1
  Zn  Zn19  1  0.65215539  0.04353584  0.65215539  1
  Zn  Zn20  1  0.95646416  0.34784461  0.34784461  1
  Zn  Zn21  1  0.04353584  0.65215539  0.65215539  1
  Sn  Sn0  1  0.50000000  0.50000000  0.50000000  1
  Hg  Hg0  1  0.00000000  0.00000000  0.00000000  1
loop_
_geom_bond_atom_site_label_1
_geom_bond_atom_site_label_2
_geom_bond_distance
_geom_bond_site_symmetry_2
Zn0 Zn12 2.628223 1_555
Zn0 Zn10 2.628224 1_555
Zn0 Zn8 2.628229 1_555
Zn0 Zn20 2.655358 1_455
Zn0 Zn16 2.655361 1_554
Zn0 Zn17 2.655361 1_545
Zn0 Zr4 2.883582 1_554
Zn0 Zr2 2.883582 1_545
Zn0 Zr0 2.883588 1_455
Zn1 Zn12 2.628223 1_665
Zn1 Zn10 2.628224 1_656
Zn1 Zn8 2.628229 1_566
Zn1 Zn21 2.655358 1_655
Zn1 Zn18 2.655361 1_556
Zn1 Zn19 2.655361 1_565
Zn1 Zr5 2.883582 1_556
Zn1 Zr3 2.883582 1_565
Zn1 Zr1 2.883588 1_655
Zn2 Zn9 2.628228 1_555
Zn2 Zn20 2.655395 1_455
Zn2 Zr4 2.883555 1_555
Zn2 Zr1 2.883574 1_545
Zn2 Zr3 2.883587 1_455
Zn3 Zn9 2.628228 1_555
Zn3 Zr2 2.883555 1_555
Zn3 Zr1 2.883574 1_554
Zn3 Zr5 2.883587 1_455
Zn4 Zn9 2.628228 1_655
Zn4 Zr5 2.883555 1_555
Zn4 Zr0 2.883574 1_565
Zn4 Zr2 2.883587 1_655
Zn5 Zn9 2.628228 1_655
Zn5 Zr3 2.883555 1_555
Zn5 Zr0 2.883574 1_556
Zn5 Zr4 2.883587 1_655
Zn6 Zn8 2.628224 1_555
Zn6 Zr3 2.883560 1_554
Zn6 Zr5 2.883560 1_545
Zn6 Zr0 2.883570 1_555
Zn7 Zn8 2.628224 1_566
Zn7 Zr2 2.883560 1_556
Zn7 Zr4 2.883560 1_565
Zn7 Zr1 2.883570 1_555
Zn8 Zr3 3.120340 1_554
Zn8 Zr2 3.120340 1_545
Zn8 Zr5 3.120340 1_545
Zn8 Zr4 3.120340 1_554
Zn9 Zr2 3.120353 1_555
Zn9 Zr3 3.120353 1_455
Zn9 Zr4 3.120353 1_555
Zn9 Zr5 3.120353 1_455
Zn10 Zn20 2.562524 1_455
Zn10 Zn21 2.562524 1_554
Zn10 Zn16 2.562530 1_554
Zn10 Zn18 2.562530 1_455
Zn10 Zn3 2.628231 1_555
Zn10 Zn5 2.628231 1_454
Zn10 Zr1 3.120347 1_554
Zn10 Zr0 3.120347 1_455
Zn10 Zr5 3.120357 1_455
Zn10 Zr4 3.120357 1_554
Zn11 Zn14 2.562535 1_555
Zn11 Zn15 2.562535 1_545
Zn11 Zn19 2.562537 1_555
Zn11 Zn17 2.562537 1_545
Zn11 Zn7 2.628228 1_545
Zn11 Zn6 2.628228 1_555
Zn11 Zn4 2.628233 1_545
Zn11 Zn2 2.628233 1_555
Zn11 Zr4 3.120331 1_555
Zn11 Zr5 3.120331 1_545
Zn11 Zr0 3.120346 1_555
Zn11 Zr1 3.120346 1_545
Zn12 Zn20 2.562524 1_455
Zn12 Zn21 2.562524 1_545
Zn12 Zn17 2.562530 1_545
Zn12 Zn19 2.562530 1_455
Zn12 Zn2 2.628231 1_555
Zn12 Zn4 2.628231 1_445
Zn12 Zr1 3.120348 1_545
Zn12 Zr0 3.120348 1_455
Zn12 Zr3 3.120357 1_455
Zn12 Zr2 3.120357 1_545
Zn13 Zn14 2.562535 1_555
Zn13 Zn15 2.562535 1_554
Zn13 Zn18 2.562537 1_555
Zn13 Zn16 2.562537 1_554
Zn13 Zn7 2.628228 1_554
Zn13 Zn6 2.628228 1_555
Zn13 Zn5 2.628233 1_554
Zn13 Zn3 2.628233 1_555
Zn13 Zr2 3.120331 1_555
Zn13 Zr3 3.120331 1_554
Zn13 Zr0 3.120346 1_555
Zn13 Zr1 3.120346 1_554
Zn14 Zn9 2.562539 1_555
Zn14 Zn6 2.655398 1_555
Zn14 Zn2 2.655400 1_555
Zn14 Zn3 2.655400 1_555
Zn14 Zr4 2.873945 1_555
Zn14 Zr2 2.873945 1_555
Zn14 Zr0 2.873954 1_555
Zn15 Zn9 2.562539 1_655
Zn15 Zn7 2.655398 1_555
Zn15 Zn4 2.655400 1_555
Zn15 Zn5 2.655400 1_555
Zn15 Zr5 2.873945 1_555
Zn15 Zr3 2.873945 1_555
Zn15 Zr1 2.873954 1_555
Zn16 Zn8 2.562525 1_556
Zn16 Zn6 2.655390 1_556
Zn16 Zn3 2.655394 1_556
Zn16 Zr4 2.873958 1_555
Zn16 Zr3 2.873964 1_555
Zn16 Zr1 2.873969 1_555
Zn17 Zn8 2.562525 1_565
Zn17 Zn6 2.655390 1_565
Zn17 Zn2 2.655394 1_565
Zn17 Zr2 2.873958 1_555
Zn17 Zr5 2.873965 1_555
Zn17 Zr1 2.873969 1_555
Zn18 Zn8 2.562525 1_565
Zn18 Zn7 2.655390 1_554
Zn18 Zn5 2.655394 1_554
Zn18 Zr5 2.873958 1_555
Zn18 Zr2 2.873964 1_555
Zn18 Zr0 2.873969 1_555
Zn19 Zn8 2.562525 1_556
Zn19 Zn7 2.655390 1_545
Zn19 Zn4 2.655394 1_545
Zn19 Zr3 2.873958 1_555
Zn19 Zr4 2.873965 1_555
Zn19 Zr0 2.873969 1_555
Zn20 Zn9 2.562535 1_655
Zn20 Zn3 2.655395 1_655
Zn20 Zr0 2.873954 1_555
Zn20 Zr3 2.873985 1_555
Zn20 Zr5 2.873985 1_555
Zn21 Zn9 2.562535 1_555
Zn21 Zn5 2.655395 1_455
Zn21 Zn4 2.655395 1_455
Zn21 Zr1 2.873954 1_555
Zn21 Zr2 2.873985 1_555
Zn21 Zr4 2.873985 1_555
Sn0 Zr1 2.930964 1_555
Sn0 Zr0 2.930964 1_555
Sn0 Zr5 2.930972 1_555
Sn0 Zr4 2.930972 1_555
Sn0 Zr3 2.930972 1_555
Sn0 Zr2 2.930972 1_555
Hg0 Zn4 2.934141 1_445
Hg0 Zn2 2.934141 1_554
Hg0 Zn5 2.934141 1_454
Hg0 Zn3 2.934141 1_545
Hg0 Zn7 2.934154 1_544
Hg0 Zn6 2.934154 1_455
Hg0 Zn0 2.934165 1_555
Hg0 Zn1 2.934165 1_444
Hg0 Zr4 3.298868 1_554
Hg0 Zr5 3.298868 1_445
Hg0 Zr2 3.298868 1_545
Hg0 Zr3 3.298868 1_454
Hg0 Zr0 3.298871 1_455
Hg0 Zr1 3.298871 1_544
