# generated using pymatgen
data_SrP2OsRh
_symmetry_space_group_name_H-M   'P 1'
_cell_length_a   6.53356638
_cell_length_b   6.53356658
_cell_length_c   6.53356625
_cell_angle_alpha   144.48474294
_cell_angle_beta   144.48474494
_cell_angle_gamma   51.10304172
_symmetry_Int_Tables_number   1
_chemical_formula_structural   SrP2OsRh
_chemical_formula_sum   'Sr1 P2 Os1 Rh1'
_cell_volume   93.62395768
_cell_formula_units_Z   1
loop_
 _symmetry_equiv_pos_site_id
 _symmetry_equiv_pos_as_xyz
  1  'x, y, z'
loop_
 _atom_site_type_symbol
 _atom_site_label
 _atom_site_symmetry_multiplicity
 _atom_site_fract_x
 _atom_site_fract_y
 _atom_site_fract_z
 _atom_site_occupancy
  Sr  Sr0  1  0.00000000  0.00000000  0.00000000  1
  P  P0  1  0.35295361  0.35295361  0.00000000  1
  P  P1  1  0.64704639  0.64704639  1.00000000  1
  Os  Os0  1  0.25000000  0.75000000  0.50000000  1
  Rh  Rh0  1  0.75000000  0.25000000  0.50000000  1
loop_
_geom_bond_atom_site_label_1
_geom_bond_atom_site_label_2
_geom_bond_distance
_geom_bond_site_symmetry_2
P0 Rh0 2.333221 1_555
P0 Rh0 2.333222 1_454
P0 Sr0 3.308586 1_554
P0 Sr0 3.308586 1_655
P0 Sr0 3.308586 1_565
P0 Sr0 3.308586 1_666
P1 Rh0 2.333222 1_555
P1 Rh0 2.333222 1_566
P1 Sr0 3.308586 1_667
P1 Sr0 3.308586 1_566
P1 Sr0 3.308586 1_656
P1 Sr0 3.308586 1_555
Os0 P1 2.333221 1_555
Os0 P0 2.333222 1_555
Os0 P1 2.333222 1_454
Os0 P0 2.333222 1_566
Os0 Rh0 2.818074 1_566
Os0 Rh0 2.818074 1_454
Os0 Rh0 2.818074 1_465
Os0 Rh0 2.818074 1_555
Os0 Sr0 3.557704 1_566
Os0 Sr0 3.557704 1_565
Os0 Sr0 3.557704 1_666
Os0 Sr0 3.557704 1_555
