# generated using pymatgen
data_Ba3P3I2
_symmetry_space_group_name_H-M   'P 1'
_cell_length_a   4.59193794
_cell_length_b   14.29295486
_cell_length_c   17.53367412
_cell_angle_alpha   90.00000000
_cell_angle_beta   90.00000000
_cell_angle_gamma   90.00000000
_symmetry_Int_Tables_number   1
_chemical_formula_structural   Ba3P3I2
_chemical_formula_sum   'Ba12 P12 I8'
_cell_volume   1150.77644171
_cell_formula_units_Z   4
loop_
 _symmetry_equiv_pos_site_id
 _symmetry_equiv_pos_as_xyz
  1  'x, y, z'
loop_
 _atom_site_type_symbol
 _atom_site_label
 _atom_site_symmetry_multiplicity
 _atom_site_fract_x
 _atom_site_fract_y
 _atom_site_fract_z
 _atom_site_occupancy
  Ba  Ba0  1  0.25000000  0.45851972  0.64446626  1
  Ba  Ba1  1  0.75000000  0.54148028  0.35553374  1
  Ba  Ba2  1  0.75000000  0.95851972  0.85553374  1
  Ba  Ba3  1  0.25000000  0.04148028  0.14446626  1
  Ba  Ba4  1  0.25000000  0.71175321  0.15900491  1
  Ba  Ba5  1  0.75000000  0.28824679  0.84099509  1
  Ba  Ba6  1  0.75000000  0.21175321  0.34099509  1
  Ba  Ba7  1  0.25000000  0.78824679  0.65900491  1
  Ba  Ba8  1  0.25000000  0.61656699  0.87159309  1
  Ba  Ba9  1  0.75000000  0.38343301  0.12840691  1
  Ba  Ba10  1  0.75000000  0.11656699  0.62840691  1
  Ba  Ba11  1  0.25000000  0.88343301  0.37159309  1
  P  P0  1  0.25000000  0.37388556  0.28440231  1
  P  P1  1  0.75000000  0.62611444  0.71559769  1
  P  P2  1  0.75000000  0.87388556  0.21559769  1
  P  P3  1  0.25000000  0.12611444  0.78440231  1
  P  P4  1  0.25000000  0.25322052  0.21145266  1
  P  P5  1  0.75000000  0.74677948  0.78854734  1
  P  P6  1  0.75000000  0.75322052  0.28854734  1
  P  P7  1  0.25000000  0.24677948  0.71145266  1
  P  P8  1  0.25000000  0.50384076  0.22438508  1
  P  P9  1  0.75000000  0.49615924  0.77561492  1
  P  P10  1  0.75000000  0.00384076  0.27561492  1
  P  P11  1  0.25000000  0.99615924  0.72438508  1
  I  I0  1  0.25000000  0.11402784  0.47020438  1
  I  I1  1  0.75000000  0.88597216  0.52979562  1
  I  I2  1  0.75000000  0.61402784  0.02979562  1
  I  I3  1  0.25000000  0.38597216  0.97020438  1
  I  I4  1  0.25000000  0.63460523  0.49111819  1
  I  I5  1  0.75000000  0.36539477  0.50888181  1
  I  I6  1  0.75000000  0.13460523  0.00888181  1
  I  I7  1  0.25000000  0.86539477  0.99111819  1
loop_
_geom_bond_atom_site_label_1
_geom_bond_atom_site_label_2
_geom_bond_distance
_geom_bond_site_symmetry_2
Ba0 P7 3.246313 1_555
Ba0 P9 3.293733 1_555
Ba0 P9 3.293733 1_455
Ba0 P1 3.544718 1_555
Ba0 P1 3.544718 1_455
Ba0 I5 3.562954 1_555
Ba0 I5 3.562954 1_455
Ba0 I4 3.682879 1_555
Ba1 P6 3.246313 1_555
Ba1 P8 3.293733 1_555
Ba1 P8 3.293733 1_655
Ba1 P0 3.544718 1_555
Ba1 P0 3.544718 1_655
Ba1 I4 3.562954 1_555
Ba1 I4 3.562954 1_655
Ba1 I5 3.682879 1_555
Ba2 P5 3.246313 1_555
Ba2 P11 3.293733 1_655
Ba2 P11 3.293733 1_555
Ba2 P3 3.544718 1_565
Ba2 P3 3.544718 1_665
Ba2 I7 3.562954 1_655
Ba2 I7 3.562954 1_555
Ba2 I6 3.682879 1_566
Ba3 P4 3.246313 1_555
Ba3 P10 3.293733 1_555
Ba3 P10 3.293733 1_455
Ba3 P2 3.544718 1_445
Ba3 P2 3.544718 1_545
Ba3 I6 3.562954 1_555
Ba3 I6 3.562954 1_455
Ba3 I7 3.682879 1_544
Ba4 P8 3.185126 1_555
Ba4 P6 3.283566 1_555
Ba4 P6 3.283566 1_455
Ba4 P2 3.409722 1_455
Ba4 P2 3.409722 1_555
Ba4 I2 3.514973 1_455
Ba4 I2 3.514973 1_555
Ba4 I7 3.672544 1_554
Ba5 P9 3.185126 1_555
Ba5 P7 3.283566 1_655
Ba5 P7 3.283566 1_555
Ba5 P3 3.409722 1_655
Ba5 P3 3.409722 1_555
Ba5 I3 3.514973 1_555
Ba5 I3 3.514973 1_655
Ba5 I6 3.672544 1_556
Ba6 P10 3.185126 1_555
Ba6 P4 3.283566 1_555
Ba6 P4 3.283566 1_655
Ba6 P0 3.409722 1_655
Ba6 P0 3.409722 1_555
Ba6 I0 3.514973 1_655
Ba6 I0 3.514973 1_555
Ba6 I5 3.672544 1_555
Ba7 P11 3.185126 1_555
Ba7 P5 3.283566 1_555
Ba7 P5 3.283566 1_455
Ba7 P1 3.409722 1_555
Ba7 P1 3.409722 1_455
Ba7 I1 3.514973 1_455
Ba7 I1 3.514973 1_555
Ba7 I4 3.672544 1_555
Ba8 P5 3.294763 1_555
Ba8 P5 3.294763 1_455
Ba8 P9 3.326445 1_555
Ba8 P9 3.326445 1_455
Ba8 P1 3.573691 1_455
Ba8 P1 3.573691 1_555
Ba8 I2 3.600994 1_456
Ba8 I2 3.600994 1_556
Ba8 I3 3.721873 1_555
Ba8 I7 4.128026 1_555
Ba9 P4 3.294763 1_555
Ba9 P4 3.294763 1_655
Ba9 P8 3.326445 1_555
Ba9 P8 3.326445 1_655
Ba9 P0 3.573691 1_555
Ba9 P0 3.573691 1_655
Ba9 I3 3.600994 1_554
Ba9 I3 3.600994 1_654
Ba9 I2 3.721873 1_555
Ba9 I6 4.128026 1_555
Ba10 P7 3.294763 1_555
Ba10 P7 3.294763 1_655
Ba10 P11 3.326445 1_645
Ba10 P11 3.326445 1_545
Ba10 P3 3.573691 1_555
Ba10 P3 3.573691 1_655
Ba10 I0 3.600994 1_655
Ba10 I0 3.600994 1_555
Ba10 I1 3.721873 1_545
Ba10 I5 4.128026 1_555
Ba11 P6 3.294763 1_555
Ba11 P6 3.294763 1_455
Ba11 P10 3.326445 1_465
Ba11 P10 3.326445 1_565
Ba11 P2 3.573691 1_555
Ba11 P2 3.573691 1_455
Ba11 I1 3.600994 1_455
Ba11 I1 3.600994 1_555
Ba11 I0 3.721873 1_565
Ba11 I4 4.128026 1_555
P0 P8 2.134826 1_555
P0 P4 2.147204 1_555
P1 P9 2.134826 1_555
P1 P5 2.147204 1_555
P2 P6 2.147204 1_555
P3 P7 2.147204 1_555
P10 P2 2.134826 1_545
P11 P3 2.134826 1_565
