# generated using pymatgen
data_Zr(Ti3Bi2)2
_symmetry_space_group_name_H-M   'P 1'
_cell_length_a   8.38720741
_cell_length_b   8.38720635
_cell_length_c   8.38720646
_cell_angle_alpha   40.43754066
_cell_angle_beta   40.43755097
_cell_angle_gamma   40.43755054
_symmetry_Int_Tables_number   1
_chemical_formula_structural   Zr(Ti3Bi2)2
_chemical_formula_sum   'Zr1 Ti6 Bi4'
_cell_volume   223.83906242
_cell_formula_units_Z   1
loop_
 _symmetry_equiv_pos_site_id
 _symmetry_equiv_pos_as_xyz
  1  'x, y, z'
loop_
 _atom_site_type_symbol
 _atom_site_label
 _atom_site_symmetry_multiplicity
 _atom_site_fract_x
 _atom_site_fract_y
 _atom_site_fract_z
 _atom_site_occupancy
  Zr  Zr0  1  0.00000000  0.00000000  0.00000000  1
  Ti  Ti0  1  0.59729876  0.59729876  0.12012850  1
  Ti  Ti1  1  0.87987250  0.40270024  0.40270124  1
  Ti  Ti2  1  0.40270024  0.87987250  0.40270124  1
  Ti  Ti3  1  0.59729976  0.12012750  0.59729876  1
  Ti  Ti4  1  0.12012750  0.59729976  0.59729876  1
  Ti  Ti5  1  0.40270124  0.40270124  0.87987150  1
  Bi  Bi0  1  0.12852806  0.12852806  0.12852806  1
  Bi  Bi1  1  0.33136634  0.33136634  0.33136634  1
  Bi  Bi2  1  0.66863366  0.66863366  0.66863366  1
  Bi  Bi3  1  0.87147194  0.87147194  0.87147194  1
loop_
_geom_bond_atom_site_label_1
_geom_bond_atom_site_label_2
_geom_bond_distance
_geom_bond_site_symmetry_2
Ti0 Ti3 2.766317 1_555
Ti0 Ti4 2.766318 1_555
Ti0 Ti3 3.031014 1_564
Ti0 Ti4 3.031015 1_654
Ti0 Ti2 3.266713 1_555
Ti0 Ti1 3.266713 1_555
Ti1 Ti5 2.766318 1_555
Ti1 Ti2 2.766327 1_555
Ti1 Ti2 3.031007 1_645
Ti1 Ti5 3.031015 1_654
Ti1 Ti3 3.266711 1_555
Ti2 Ti5 2.766317 1_555
Ti2 Ti5 3.031014 1_564
Ti2 Ti4 3.266711 1_555
Ti3 Ti4 2.766327 1_555
Ti3 Ti4 3.031007 1_645
Ti3 Ti5 3.266713 1_555
Ti4 Ti5 3.266713 1_555
Bi0 Ti2 2.893810 1_545
Bi0 Ti1 2.893810 1_455
Bi0 Ti5 2.893813 1_554
Bi0 Ti4 2.950429 1_545
Bi0 Ti3 2.950430 1_455
Bi0 Ti0 2.950433 1_545
Bi0 Ti0 2.950433 1_455
Bi0 Ti4 2.950435 1_554
Bi0 Ti3 2.950435 1_554
Bi0 Zr0 2.965296 1_555
Bi1 Ti0 2.937814 1_555
Bi1 Ti4 2.937817 1_555
Bi1 Ti3 2.937817 1_555
Bi1 Ti2 2.950068 1_545
Bi1 Ti1 2.950069 1_455
Bi1 Ti5 2.950071 1_554
Bi1 Zr0 3.347399 1_565
Bi1 Zr0 3.347399 1_556
Bi1 Zr0 3.347400 1_655
Bi1 Bi2 3.348322 1_545
Bi1 Bi2 3.348322 1_554
Bi1 Bi2 3.348323 1_455
Bi2 Ti5 2.937814 1_555
Bi2 Ti1 2.937817 1_555
Bi2 Ti2 2.937817 1_555
Bi2 Ti3 2.950068 1_565
Bi2 Ti4 2.950069 1_655
Bi2 Ti0 2.950071 1_556
Bi2 Zr0 3.347399 1_656
Bi2 Zr0 3.347399 1_665
Bi2 Zr0 3.347400 1_566
Bi3 Ti3 2.893810 1_565
Bi3 Ti4 2.893810 1_655
Bi3 Ti0 2.893813 1_556
Bi3 Ti1 2.950429 1_565
Bi3 Ti2 2.950430 1_655
Bi3 Ti5 2.950433 1_565
Bi3 Ti5 2.950433 1_655
Bi3 Ti1 2.950435 1_556
Bi3 Ti2 2.950435 1_556
Bi3 Zr0 2.965296 1_666
