# generated using pymatgen
data_Rb4MoIrBr12
_symmetry_space_group_name_H-M   'P 1'
_cell_length_a   7.33433683
_cell_length_b   7.33433683
_cell_length_c   10.83051692
_cell_angle_alpha   90.00000000
_cell_angle_beta   90.00000000
_cell_angle_gamma   90.00000000
_symmetry_Int_Tables_number   1
_chemical_formula_structural   Rb4MoIrBr12
_chemical_formula_sum   'Rb4 Mo1 Ir1 Br12'
_cell_volume   582.60054660
_cell_formula_units_Z   1
loop_
 _symmetry_equiv_pos_site_id
 _symmetry_equiv_pos_as_xyz
  1  'x, y, z'
loop_
 _atom_site_type_symbol
 _atom_site_label
 _atom_site_symmetry_multiplicity
 _atom_site_fract_x
 _atom_site_fract_y
 _atom_site_fract_z
 _atom_site_occupancy
  Rb  Rb0  1  0.50000000  0.00000000  0.75953012  1
  Rb  Rb1  1  0.00000000  0.50000000  0.24046988  1
  Rb  Rb2  1  0.50000000  0.00000000  0.24046988  1
  Rb  Rb3  1  0.00000000  0.50000000  0.75953012  1
  Mo  Mo0  1  0.50000000  0.50000000  0.50000000  1
  Ir  Ir0  1  0.00000000  0.00000000  0.00000000  1
  Br  Br0  1  0.00000000  0.00000000  0.76874909  1
  Br  Br1  1  0.50000000  0.50000000  0.26281442  1
  Br  Br2  1  0.74337307  0.74337307  0.50000000  1
  Br  Br3  1  0.23973620  0.23973620  0.00000000  1
  Br  Br4  1  0.74337307  0.25662693  0.50000000  1
  Br  Br5  1  0.23973620  0.76026380  0.00000000  1
  Br  Br6  1  0.00000000  0.00000000  0.23125091  1
  Br  Br7  1  0.50000000  0.50000000  0.73718558  1
  Br  Br8  1  0.25662693  0.25662693  0.50000000  1
  Br  Br9  1  0.76026380  0.76026380  0.00000000  1
  Br  Br10  1  0.25662693  0.74337307  0.50000000  1
  Br  Br11  1  0.76026380  0.23973620  0.00000000  1
loop_
_geom_bond_atom_site_label_1
_geom_bond_atom_site_label_2
_geom_bond_distance
_geom_bond_site_symmetry_2
Br0 Ir0 2.504567 1_556
Br0 Rb0 3.668527 1_455
Br0 Rb0 3.668527 1_555
Br0 Rb3 3.668527 1_545
Br0 Rb3 3.668527 1_555
Br1 Mo0 2.568842 1_555
Br1 Rb2 3.675145 1_555
Br1 Rb2 3.675145 1_565
Br1 Rb1 3.675145 1_555
Br1 Rb1 3.675145 1_655
Br2 Mo0 2.524343 1_555
Br2 Rb0 3.824871 1_565
Br2 Rb3 3.824871 1_655
Br2 Rb1 3.824871 1_655
Br2 Rb2 3.824871 1_565
Br3 Ir0 2.486620 1_555
Br3 Rb2 3.676733 1_555
Br3 Rb1 3.676733 1_555
Br3 Rb0 3.676733 1_554
Br3 Rb3 3.676733 1_554
Br4 Mo0 2.524343 1_555
Br4 Rb3 3.824871 1_655
Br4 Rb1 3.824871 1_655
Br4 Rb0 3.824871 1_555
Br4 Rb2 3.824871 1_555
Br5 Ir0 2.486620 1_565
Br5 Rb1 3.676733 1_555
Br5 Rb2 3.676733 1_565
Br5 Rb3 3.676733 1_554
Br5 Rb0 3.676733 1_564
Br6 Ir0 2.504567 1_555
Br6 Rb1 3.668527 1_545
Br6 Rb1 3.668527 1_555
Br6 Rb2 3.668527 1_555
Br6 Rb2 3.668527 1_455
Br7 Mo0 2.568842 1_555
Br7 Rb0 3.675145 1_565
Br7 Rb3 3.675145 1_655
Br7 Rb0 3.675145 1_555
Br7 Rb3 3.675145 1_555
Br8 Mo0 2.524343 1_555
Br8 Rb0 3.824871 1_555
Br8 Rb3 3.824871 1_555
Br8 Rb1 3.824871 1_555
Br8 Rb2 3.824871 1_555
Br9 Ir0 2.486620 1_665
Br9 Rb1 3.676733 1_655
Br9 Rb2 3.676733 1_565
Br9 Rb3 3.676733 1_654
Br9 Rb0 3.676733 1_564
Br10 Mo0 2.524343 1_555
Br10 Rb0 3.824871 1_565
Br10 Rb2 3.824871 1_565
Br10 Rb3 3.824871 1_555
Br10 Rb1 3.824871 1_555
Br11 Ir0 2.486620 1_655
Br11 Rb2 3.676733 1_555
Br11 Rb1 3.676733 1_655
Br11 Rb0 3.676733 1_554
Br11 Rb3 3.676733 1_654
