# generated using pymatgen
data_MnTcWCl10
_symmetry_space_group_name_H-M   'P 1'
_cell_length_a   9.01565666
_cell_length_b   9.01565699
_cell_length_c   12.22960878
_cell_angle_alpha   86.62697546
_cell_angle_beta   86.62697781
_cell_angle_gamma   139.39448379
_symmetry_Int_Tables_number   1
_chemical_formula_structural   MnTcWCl10
_chemical_formula_sum   'Mn2 Tc2 W2 Cl20'
_cell_volume   637.60440116
_cell_formula_units_Z   2
loop_
 _symmetry_equiv_pos_site_id
 _symmetry_equiv_pos_as_xyz
  1  'x, y, z'
loop_
 _atom_site_type_symbol
 _atom_site_label
 _atom_site_symmetry_multiplicity
 _atom_site_fract_x
 _atom_site_fract_y
 _atom_site_fract_z
 _atom_site_occupancy
  Mn  Mn0  1  0.04944300  0.95055700  0.75000000  1
  Mn  Mn1  1  0.95055700  0.04944300  0.25000000  1
  Tc  Tc0  1  0.43284630  0.56715370  0.75000000  1
  Tc  Tc1  1  0.56715370  0.43284630  0.25000000  1
  W  W0  1  0.27176907  0.72823093  0.75000000  1
  W  W1  1  0.72823093  0.27176907  0.25000000  1
  Cl  Cl0  1  0.77908769  0.48068435  0.38162915  1
  Cl  Cl1  1  0.51931565  0.22091231  0.11837085  1
  Cl  Cl2  1  0.22091231  0.51931565  0.61837085  1
  Cl  Cl3  1  0.48068435  0.77908769  0.88162915  1
  Cl  Cl4  1  0.89715426  0.78925325  0.13456077  1
  Cl  Cl5  1  0.21074675  0.10284574  0.36543923  1
  Cl  Cl6  1  0.10284574  0.21074675  0.86543923  1
  Cl  Cl7  1  0.78925325  0.89715426  0.63456077  1
  Cl  Cl8  1  0.07509705  0.59454209  0.14391674  1
  Cl  Cl9  1  0.40545791  0.92490295  0.35608326  1
  Cl  Cl10  1  0.92490295  0.40545791  0.85608326  1
  Cl  Cl11  1  0.59454209  0.07509705  0.64391674  1
  Cl  Cl12  1  0.58848528  0.66222878  0.35850198  1
  Cl  Cl13  1  0.33777122  0.41151472  0.14149802  1
  Cl  Cl14  1  0.41151472  0.33777122  0.64149802  1
  Cl  Cl15  1  0.66222878  0.58848528  0.85850298  1
  Cl  Cl16  1  0.94286375  0.27073917  0.36288935  1
  Cl  Cl17  1  0.72926083  0.05713625  0.13711065  1
  Cl  Cl18  1  0.05713625  0.72926083  0.63711065  1
  Cl  Cl19  1  0.27073917  0.94286375  0.86288935  1
loop_
_geom_bond_atom_site_label_1
_geom_bond_atom_site_label_2
_geom_bond_distance
_geom_bond_site_symmetry_2
Cl0 W1 2.341268 1_555
Cl0 Tc1 2.370779 1_555
Cl1 W1 2.341267 1_555
Cl1 Tc1 2.370779 1_555
Cl2 W0 2.341268 1_555
Cl2 Tc0 2.370779 1_555
Cl3 W0 2.341267 1_555
Cl3 Tc0 2.370779 1_555
Cl4 Tc1 2.371841 1_555
Cl4 Mn1 2.546054 1_565
Cl5 Tc1 2.371841 1_555
Cl5 Mn1 2.546053 1_455
Cl6 Tc0 2.371841 1_555
Cl6 Mn0 2.546054 1_545
Cl7 Tc0 2.371841 1_555
Cl7 Mn0 2.546053 1_655
Cl8 W1 2.278416 1_455
Cl9 W1 2.278416 1_565
Cl10 W0 2.278416 1_655
Cl11 W0 2.278416 1_545
Cl12 Tc1 2.413203 1_555
Cl12 Mn1 2.499062 1_565
Cl13 Tc1 2.413202 1_555
Cl13 Mn1 2.499062 1_455
Cl14 Tc0 2.413203 1_555
Cl14 Mn0 2.499062 1_545
Cl15 Tc0 2.413210 1_555
Cl15 Mn0 2.499066 1_655
Cl16 W1 2.447591 1_555
Cl16 Mn1 2.532661 1_555
Cl17 W1 2.447591 1_555
Cl17 Mn1 2.532660 1_555
Cl18 W0 2.447591 1_555
Cl18 Mn0 2.532661 1_555
Cl19 W0 2.447591 1_555
Cl19 Mn0 2.532660 1_555
