# generated using pymatgen
data_Sm5CuSe8
_symmetry_space_group_name_H-M   'P 1'
_cell_length_a   7.63009291
_cell_length_b   7.63009291
_cell_length_c   7.63009291
_cell_angle_alpha   110.26834652
_cell_angle_beta   110.26834652
_cell_angle_gamma   107.88846843
_symmetry_Int_Tables_number   1
_chemical_formula_structural   Sm5CuSe8
_chemical_formula_sum   'Sm5 Cu1 Se8'
_cell_volume   341.75887664
_cell_formula_units_Z   1
loop_
 _symmetry_equiv_pos_site_id
 _symmetry_equiv_pos_as_xyz
  1  'x, y, z'
loop_
 _atom_site_type_symbol
 _atom_site_label
 _atom_site_symmetry_multiplicity
 _atom_site_fract_x
 _atom_site_fract_y
 _atom_site_fract_z
 _atom_site_occupancy
  Sm  Sm0  1  0.36674000  0.98897200  0.11752400  1
  Sm  Sm1  1  0.01102800  0.12855200  0.37776800  1
  Sm  Sm2  1  0.87144800  0.24921600  0.88247600  1
  Sm  Sm3  1  0.50000000  0.50000000  0.00000000  1
  Sm  Sm4  1  0.75078400  0.63326000  0.62223200  1
  Cu  Cu0  1  0.25000000  0.75000000  0.50000000  1
  Se  Se0  1  0.26946900  0.39830200  0.25977500  1
  Se  Se1  1  0.13852700  0.00969400  0.74022500  1
  Se  Se2  1  0.49089600  0.24946500  0.60699600  1
  Se  Se3  1  0.11610000  0.50910400  0.75856900  1
  Se  Se4  1  0.75053500  0.35753000  0.24143100  1
  Se  Se5  1  0.60169800  0.86147300  0.87116700  1
  Se  Se6  1  0.99030600  0.73053100  0.12883300  1
  Se  Se7  1  0.64247000  0.88390000  0.39300400  1
loop_
_geom_bond_atom_site_label_1
_geom_bond_atom_site_label_2
_geom_bond_distance
_geom_bond_site_symmetry_2
Cu0 Se5 2.758361 1_555
Cu0 Se6 2.758361 1_455
Cu0 Se0 2.758361 1_555
Cu0 Se1 2.758361 1_565
Se0 Sm2 2.890697 1_454
Se0 Sm1 2.992620 1_555
Se0 Sm4 3.135755 1_555
Se0 Sm3 3.204297 1_555
Se0 Sm0 3.334209 1_545
Se1 Sm0 2.890697 1_546
Se1 Sm4 2.992620 1_445
Se1 Sm1 3.135755 1_555
Se1 Sm3 3.204297 1_556
Se1 Sm2 3.334209 1_455
Se2 Sm3 2.907509 1_556
Se2 Sm4 2.925444 1_555
Se2 Sm2 2.937158 1_555
Se2 Sm1 3.112288 1_555
Se2 Sm0 3.169403 1_545
Se3 Sm3 2.907509 1_556
Se3 Sm2 2.925444 1_455
Se3 Sm1 2.937158 1_555
Se3 Sm0 3.112288 1_556
Se3 Sm4 3.169403 1_455
Se4 Sm3 2.907515 1_555
Se4 Sm0 2.925440 1_545
Se4 Sm4 2.937161 1_555
Se4 Sm2 3.112288 1_554
Se4 Sm1 3.169397 1_655
Se5 Sm4 2.890697 1_555
Se5 Sm2 2.992620 1_565
Se5 Sm0 3.135755 1_556
Se5 Sm3 3.204297 1_556
Se5 Sm1 3.334209 1_666
Se6 Sm1 2.890697 1_665
Se6 Sm0 2.992620 1_655
Se6 Sm2 3.135755 1_554
Se6 Sm3 3.204297 1_555
Se6 Sm4 3.334209 1_554
Se7 Sm3 2.907507 1_555
Se7 Sm1 2.925438 1_665
Se7 Sm0 2.937163 1_555
Se7 Sm4 3.112286 1_555
Se7 Sm2 3.169404 1_565
