# generated using pymatgen
data_Na2Ag6Se3S
_symmetry_space_group_name_H-M   'P 1'
_cell_length_a   8.95011946
_cell_length_b   8.98993013
_cell_length_c   8.98992974
_cell_angle_alpha   60.36977026
_cell_angle_beta   60.14637677
_cell_angle_gamma   60.14637589
_symmetry_Int_Tables_number   1
_chemical_formula_structural   Na2Ag6Se3S
_chemical_formula_sum   'Na4 Ag12 Se6 S2'
_cell_volume   514.02960358
_cell_formula_units_Z   2
loop_
 _symmetry_equiv_pos_site_id
 _symmetry_equiv_pos_as_xyz
  1  'x, y, z'
loop_
 _atom_site_type_symbol
 _atom_site_label
 _atom_site_symmetry_multiplicity
 _atom_site_fract_x
 _atom_site_fract_y
 _atom_site_fract_z
 _atom_site_occupancy
  Na  Na0  1  0.63444513  0.62500000  0.12500000  1
  Na  Na1  1  0.63444513  0.12500000  0.62500000  1
  Na  Na2  1  0.11278290  0.63268806  0.63268806  1
  Na  Na3  1  0.62816003  0.61731194  0.61731194  1
  Ag  Ag0  1  0.07770544  0.41948145  0.41948145  1
  Ag  Ag1  1  0.82904523  0.16906774  0.16906774  1
  Ag  Ag2  1  0.41951606  0.08137689  0.42162331  1
  Ag  Ag3  1  0.41951606  0.42162331  0.08137689  1
  Ag  Ag4  1  0.07719976  0.08687765  0.41714031  1
  Ag  Ag5  1  0.07719976  0.41714031  0.08687765  1
  Ag  Ag6  1  0.16666933  0.83051855  0.83051855  1
  Ag  Ag7  1  0.83121773  0.83285969  0.16312235  1
  Ag  Ag8  1  0.17251526  0.16862311  0.82837669  1
  Ag  Ag9  1  0.17251526  0.82837669  0.16862311  1
  Ag  Ag10  1  0.83121773  0.16312235  0.83285969  1
  Ag  Ag11  1  0.41718171  0.08093226  0.08093226  1
  Se  Se0  1  0.85663408  0.85872407  0.42051564  1
  Se  Se1  1  0.38893117  0.39365412  0.39365412  1
  Se  Se2  1  0.42623841  0.85634588  0.85634588  1
  Se  Se3  1  0.85663408  0.42051564  0.85872407  1
  Se  Se4  1  0.38587480  0.39127593  0.82948436  1
  Se  Se5  1  0.38587480  0.82948436  0.39127593  1
  S  S0  1  0.83728265  0.38695742  0.38695742  1
  S  S1  1  0.86119750  0.86304258  0.86304258  1
loop_
_geom_bond_atom_site_label_1
_geom_bond_atom_site_label_2
_geom_bond_distance
_geom_bond_site_symmetry_2
Na0 S0 2.970960 1_555
Na0 S1 2.970960 1_554
Na0 Se5 3.006113 1_555
Na0 Se3 3.006113 1_554
Na0 Se1 3.047383 1_555
Na0 Se2 3.047389 1_554
Na1 S1 2.970960 1_545
Na1 S0 2.970961 1_555
Na1 Se4 3.006113 1_555
Na1 Se0 3.006113 1_545
Na1 Se1 3.047383 1_555
Na1 Se2 3.047389 1_545
Na2 S1 2.933085 1_455
Na2 Se0 2.984339 1_455
Na2 Se3 2.984339 1_455
Na2 Se4 3.006929 1_555
Na2 Se5 3.006929 1_555
Na2 Se1 3.055317 1_555
Na3 S0 2.933086 1_555
Na3 Se5 2.984339 1_555
Na3 Se4 2.984339 1_555
Na3 Se3 3.006916 1_555
Na3 Se0 3.006916 1_555
Na3 Se2 3.055315 1_555
Ag0 S0 2.477614 1_455
Ag0 Se1 2.575344 1_555
Ag1 Se3 2.566807 1_554
Ag1 Se0 2.566807 1_545
Ag2 Se1 2.573877 1_555
Ag2 Se5 2.581570 1_545
Ag3 Se1 2.573877 1_555
Ag3 Se4 2.581569 1_554
Ag4 S0 2.459924 1_455
Ag4 Se5 2.562988 1_545
Ag5 S0 2.459924 1_455
Ag5 Se4 2.562988 1_554
Ag6 S1 2.477623 1_455
Ag6 Se2 2.575326 1_555
Ag7 S1 2.459924 1_554
Ag7 Se0 2.562983 1_555
Ag8 Se2 2.573877 1_545
Ag8 Se3 2.581569 1_455
Ag9 Se2 2.573877 1_554
Ag9 Se0 2.581569 1_455
Ag10 S1 2.459924 1_545
Ag10 Se3 2.562983 1_555
Ag11 Se5 2.566807 1_545
Ag11 Se4 2.566807 1_554
