# generated using pymatgen
data_Hf3Re3Si2As
_symmetry_space_group_name_H-M   'P 1'
_cell_length_a   6.92997375
_cell_length_b   6.92997413
_cell_length_c   3.42279826
_cell_angle_alpha   90.00000000
_cell_angle_beta   90.00000000
_cell_angle_gamma   120.00000287
_symmetry_Int_Tables_number   1
_chemical_formula_structural   Hf3Re3Si2As
_chemical_formula_sum   'Hf3 Re3 Si2 As1'
_cell_volume   142.35578619
_cell_formula_units_Z   1
loop_
 _symmetry_equiv_pos_site_id
 _symmetry_equiv_pos_as_xyz
  1  'x, y, z'
loop_
 _atom_site_type_symbol
 _atom_site_label
 _atom_site_symmetry_multiplicity
 _atom_site_fract_x
 _atom_site_fract_y
 _atom_site_fract_z
 _atom_site_occupancy
  Hf  Hf0  1  0.39709433  0.40536792  0.50000000  1
  Hf  Hf1  1  0.59463208  0.99172642  0.50000000  1
  Hf  Hf2  1  0.00827358  0.60290567  0.50000000  1
  Re  Re0  1  0.74423354  0.74972231  0.00000000  1
  Re  Re1  1  0.25027769  0.99451122  0.00000000  1
  Re  Re2  1  0.00548878  0.25576646  0.00000000  1
  Si  Si0  1  0.33333300  0.66666700  0.00000000  1
  Si  Si1  1  0.00000000  0.00000000  0.50000000  1
  As  As0  1  0.66666700  0.33333300  0.00000000  1
loop_
_geom_bond_atom_site_label_1
_geom_bond_atom_site_label_2
_geom_bond_distance
_geom_bond_site_symmetry_2
Hf0 Si0 2.683885 1_556
Hf0 Si0 2.683885 1_555
Hf0 Si1 2.780964 1_555
Hf0 Re2 2.924893 1_556
Hf0 Re2 2.924893 1_555
Hf0 Re0 2.944497 1_556
Hf0 Re0 2.944497 1_555
Hf0 Re1 3.028843 1_545
Hf0 Re1 3.028843 1_546
Hf1 Si0 2.683882 1_556
Hf1 Si0 2.683882 1_555
Hf1 Si1 2.780964 1_665
Hf1 Re0 2.924893 1_556
Hf1 Re0 2.924893 1_555
Hf1 Re1 2.944497 1_555
Hf1 Re1 2.944497 1_556
Hf1 Re2 3.028843 1_665
Hf1 Re2 3.028843 1_666
Hf2 Si0 2.683880 1_556
Hf2 Si0 2.683880 1_555
Hf2 Si1 2.780965 1_565
Hf2 Re1 2.924893 1_555
Hf2 Re1 2.924893 1_556
Hf2 Re2 2.944497 1_556
Hf2 Re2 2.944497 1_555
Hf2 Re0 3.028843 1_456
Hf2 Re0 3.028843 1_455
Re0 Si1 2.450410 1_665
Re0 Si1 2.450410 1_664
Re0 Si0 2.607825 1_555
Re1 Si1 2.450410 1_565
Re1 Si1 2.450410 1_564
Re1 Si0 2.607819 1_555
Re2 Si1 2.450410 1_555
Re2 Si1 2.450410 1_554
Re2 Si0 2.607823 1_555
As0 Re2 2.657878 1_655
As0 Re1 2.657882 1_545
As0 Re0 2.657884 1_555
As0 Hf1 2.756909 1_545
As0 Hf1 2.756909 1_544
As0 Hf2 2.756910 1_655
As0 Hf2 2.756910 1_654
As0 Hf0 2.756914 1_555
As0 Hf0 2.756914 1_554
