# generated using pymatgen
data_Zr10CoBi6B
_symmetry_space_group_name_H-M   'P 1'
_cell_length_a   8.72681254
_cell_length_b   8.72681296
_cell_length_c   5.89112370
_cell_angle_alpha   90.00000000
_cell_angle_beta   90.00000000
_cell_angle_gamma   120.00000591
_symmetry_Int_Tables_number   1
_chemical_formula_structural   Zr10CoBi6B
_chemical_formula_sum   'Zr10 Co1 Bi6 B1'
_cell_volume   388.54387094
_cell_formula_units_Z   1
loop_
 _symmetry_equiv_pos_site_id
 _symmetry_equiv_pos_as_xyz
  1  'x, y, z'
loop_
 _atom_site_type_symbol
 _atom_site_label
 _atom_site_symmetry_multiplicity
 _atom_site_fract_x
 _atom_site_fract_y
 _atom_site_fract_z
 _atom_site_occupancy
  Zr  Zr0  1  0.66666700  0.33333300  0.50000000  1
  Zr  Zr1  1  0.33333300  0.66666700  0.50000000  1
  Zr  Zr2  1  0.33333300  0.66666700  0.00000000  1
  Zr  Zr3  1  0.66666700  0.33333300  0.00000000  1
  Zr  Zr4  1  0.76548371  0.76548371  0.23872459  1
  Zr  Zr5  1  0.23451629  1.00000000  0.23872459  1
  Zr  Zr6  1  1.00000000  0.23451629  0.23872459  1
  Zr  Zr7  1  0.23451629  0.23451629  0.76127541  1
  Zr  Zr8  1  0.76548371  0.00000000  0.76127541  1
  Zr  Zr9  1  0.00000000  0.76548371  0.76127541  1
  Co  Co0  1  0.00000000  0.00000000  0.50000000  1
  Bi  Bi0  1  0.39549192  0.39549192  0.25432810  1
  Bi  Bi1  1  0.60450808  0.00000000  0.25432810  1
  Bi  Bi2  1  0.00000000  0.60450808  0.25432810  1
  Bi  Bi3  1  0.60450808  0.60450808  0.74567190  1
  Bi  Bi4  1  0.39549192  1.00000000  0.74567190  1
  Bi  Bi5  1  1.00000000  0.39549192  0.74567190  1
  B  B0  1  0.00000000  0.00000000  0.00000000  1
loop_
_geom_bond_atom_site_label_1
_geom_bond_atom_site_label_2
_geom_bond_distance
_geom_bond_site_symmetry_2
Co0 Zr7 2.560789 1_555
Co0 Zr4 2.560789 1_445
Co0 Zr5 2.560789 1_545
Co0 Zr8 2.560789 1_455
Co0 Zr6 2.560790 1_455
Co0 Zr9 2.560790 1_545
Bi0 Zr6 3.007566 1_455
Bi0 Zr5 3.007567 1_545
Bi0 Zr0 3.045140 1_555
Bi0 Zr1 3.045140 1_555
Bi0 Zr3 3.069705 1_555
Bi0 Zr2 3.069705 1_555
Bi0 Zr7 3.226511 1_554
Bi0 Zr4 3.230157 1_555
Bi0 Zr7 3.300393 1_555
Bi1 Zr6 3.007566 1_555
Bi1 Zr4 3.007567 1_545
Bi1 Zr0 3.045133 1_555
Bi1 Zr1 3.045135 1_545
Bi1 Zr3 3.069697 1_555
Bi1 Zr2 3.069700 1_545
Bi1 Zr8 3.226511 1_554
Bi1 Zr5 3.230157 1_545
Bi1 Zr8 3.300393 1_555
Bi2 Zr5 3.007566 1_555
Bi2 Zr4 3.007567 1_455
Bi2 Zr1 3.045132 1_555
Bi2 Zr0 3.045135 1_455
Bi2 Zr2 3.069697 1_555
Bi2 Zr3 3.069700 1_455
Bi2 Zr9 3.226511 1_554
Bi2 Zr6 3.230157 1_455
Bi2 Zr9 3.300393 1_555
Bi3 Zr9 3.007566 1_655
Bi3 Zr8 3.007567 1_565
Bi3 Zr1 3.045140 1_555
Bi3 Zr0 3.045140 1_555
Bi3 Zr2 3.069705 1_556
Bi3 Zr3 3.069705 1_556
Bi3 Zr4 3.226511 1_556
Bi3 Zr7 3.230157 1_555
Bi3 Zr4 3.300393 1_555
Bi4 Zr9 3.007566 1_555
Bi4 Zr7 3.007567 1_565
Bi4 Zr1 3.045133 1_555
Bi4 Zr0 3.045135 1_565
Bi4 Zr2 3.069697 1_556
Bi4 Zr3 3.069700 1_566
Bi4 Zr5 3.226511 1_556
Bi4 Zr8 3.230157 1_565
Bi4 Zr5 3.300393 1_555
Bi5 Zr8 3.007566 1_555
Bi5 Zr7 3.007567 1_655
Bi5 Zr0 3.045132 1_555
Bi5 Zr1 3.045135 1_655
Bi5 Zr3 3.069697 1_556
Bi5 Zr2 3.069700 1_656
Bi5 Zr6 3.226511 1_556
Bi5 Zr9 3.230157 1_655
Bi5 Zr6 3.300393 1_555
B0 Zr7 2.483209 1_554
B0 Zr4 2.483209 1_445
B0 Zr5 2.483209 1_545
B0 Zr8 2.483209 1_454
B0 Zr6 2.483209 1_455
B0 Zr9 2.483209 1_544
