# generated using pymatgen
data_Zr2TiAlFe8
_symmetry_space_group_name_H-M   'P 1'
_cell_length_a   8.50084328
_cell_length_b   8.50084328
_cell_length_c   8.50084355
_cell_angle_alpha   33.49621773
_cell_angle_beta   33.49621894
_cell_angle_gamma   33.49621571
_symmetry_Int_Tables_number   1
_chemical_formula_structural   Zr2TiAlFe8
_chemical_formula_sum   'Zr2 Ti1 Al1 Fe8'
_cell_volume   166.63941476
_cell_formula_units_Z   1
loop_
 _symmetry_equiv_pos_site_id
 _symmetry_equiv_pos_as_xyz
  1  'x, y, z'
loop_
 _atom_site_type_symbol
 _atom_site_label
 _atom_site_symmetry_multiplicity
 _atom_site_fract_x
 _atom_site_fract_y
 _atom_site_fract_z
 _atom_site_occupancy
  Zr  Zr0  1  0.00157855  0.00157855  0.00157855  1
  Zr  Zr1  1  0.49863918  0.49863918  0.49863918  1
  Ti  Ti0  1  0.62531587  0.62531587  0.62531587  1
  Al  Al0  1  0.12546643  0.12546643  0.12546643  1
  Fe  Fe0  1  0.56357360  0.06059781  0.56357360  1
  Fe  Fe1  1  0.06299990  0.56094711  0.06299990  1
  Fe  Fe2  1  0.06059781  0.56357360  0.56357360  1
  Fe  Fe3  1  0.56094711  0.06299990  0.06299990  1
  Fe  Fe4  1  0.81216130  0.81216130  0.81216130  1
  Fe  Fe5  1  0.31214574  0.31214574  0.31214574  1
  Fe  Fe6  1  0.56357360  0.56357360  0.06059781  1
  Fe  Fe7  1  0.06299990  0.06299990  0.56094711  1
loop_
_geom_bond_atom_site_label_1
_geom_bond_atom_site_label_2
_geom_bond_distance
_geom_bond_site_symmetry_2
Ti0 Zr0 3.011128 1_656
Ti0 Zr0 3.011128 1_566
Ti0 Zr0 3.011128 1_665
Ti0 Zr1 3.046489 1_555
Al0 Fe1 2.860315 1_555
Al0 Fe3 2.860315 1_555
Al0 Fe7 2.860315 1_555
Al0 Fe4 2.869320 1_454
Al0 Fe4 2.869320 1_544
Al0 Fe4 2.869321 1_445
Al0 Fe6 2.878885 1_455
Al0 Fe6 2.878885 1_545
Al0 Fe2 2.878885 1_545
Al0 Fe0 2.878885 1_455
Al0 Fe2 2.878885 1_554
Al0 Fe0 2.878885 1_554
Al0 Zr0 2.979420 1_555
Al0 Zr1 2.986465 1_545
Al0 Zr1 2.986465 1_455
Al0 Zr1 2.986466 1_554
Fe0 Fe2 2.435063 1_645
Fe0 Fe6 2.435063 1_546
Fe0 Fe4 2.439785 1_545
Fe0 Fe2 2.464222 1_555
Fe0 Fe6 2.464222 1_555
Fe0 Fe5 2.466317 1_555
Fe0 Zr1 2.850831 1_555
Fe0 Zr0 2.855373 1_556
Fe0 Zr0 2.855373 1_655
Fe0 Ti0 2.867759 1_545
Fe1 Fe3 2.439585 1_555
Fe1 Fe7 2.439585 1_555
Fe1 Fe5 2.446213 1_555
Fe1 Fe4 2.459280 1_454
Fe1 Fe3 2.459700 1_465
Fe1 Fe7 2.459700 1_564
Fe1 Ti0 2.880339 1_554
Fe1 Ti0 2.880339 1_455
Fe1 Zr1 2.888926 1_455
Fe1 Zr1 2.888926 1_554
Fe1 Zr0 2.916615 1_565
Fe2 Fe6 2.435063 1_456
Fe2 Fe4 2.439785 1_455
Fe2 Fe6 2.464222 1_555
Fe2 Fe5 2.466317 1_555
Fe2 Zr1 2.850831 1_555
Fe2 Zr0 2.855373 1_556
Fe2 Zr0 2.855373 1_565
Fe2 Ti0 2.867759 1_455
Fe3 Fe7 2.439586 1_555
Fe3 Fe5 2.446213 1_555
Fe3 Fe4 2.459280 1_544
Fe3 Fe7 2.459700 1_654
Fe3 Ti0 2.880339 1_554
Fe3 Ti0 2.880339 1_545
Fe3 Zr1 2.888926 1_545
Fe3 Zr1 2.888926 1_554
Fe3 Zr0 2.916615 1_655
Fe4 Fe6 2.439785 1_556
Fe4 Fe7 2.459280 1_665
Fe4 Zr1 2.868449 1_565
Fe4 Zr1 2.868449 1_655
Fe4 Zr1 2.868449 1_556
Fe5 Fe7 2.446213 1_555
Fe5 Fe6 2.466317 1_555
Fe5 Ti0 2.869867 1_545
Fe5 Ti0 2.869867 1_455
Fe5 Ti0 2.869867 1_554
Fe5 Zr0 2.881105 1_565
Fe5 Zr0 2.881105 1_655
Fe5 Zr0 2.881105 1_556
Fe6 Zr1 2.850831 1_555
Fe6 Zr0 2.855373 1_565
Fe6 Zr0 2.855373 1_655
Fe6 Ti0 2.867759 1_554
Fe7 Ti0 2.880338 1_545
Fe7 Ti0 2.880339 1_455
Fe7 Zr1 2.888926 1_455
Fe7 Zr1 2.888926 1_545
Fe7 Zr0 2.916615 1_556
