# generated using pymatgen
data_Ta4NbSb4
_symmetry_space_group_name_H-M   'P 1'
_cell_length_a   7.52097463
_cell_length_b   7.52097070
_cell_length_c   7.54501229
_cell_angle_alpha   93.23517314
_cell_angle_beta   93.16722438
_cell_angle_gamma   152.61776917
_symmetry_Int_Tables_number   1
_chemical_formula_structural   Ta4NbSb4
_chemical_formula_sum   'Ta4 Nb1 Sb4'
_cell_volume   190.74692611
_cell_formula_units_Z   1
loop_
 _symmetry_equiv_pos_site_id
 _symmetry_equiv_pos_as_xyz
  1  'x, y, z'
loop_
 _atom_site_type_symbol
 _atom_site_label
 _atom_site_symmetry_multiplicity
 _atom_site_fract_x
 _atom_site_fract_y
 _atom_site_fract_z
 _atom_site_occupancy
  Ta  Ta0  1  0.68787554  0.37360927  0.06148581  1
  Ta  Ta1  1  0.31282138  0.62737103  0.94019441  1
  Ta  Ta2  1  0.62607224  0.68740668  0.31347792  1
  Ta  Ta3  1  0.99991878  0.00026215  0.00018492  1
  Nb  Nb0  1  0.37262168  0.31080402  0.68342870  1
  Sb  Sb0  1  0.29348824  0.05342059  0.34690682  1
  Sb  Sb1  1  0.94600502  0.29447247  0.24047448  1
  Sb  Sb2  1  0.05458218  0.70654974  0.76113092  1
  Sb  Sb3  1  0.70661395  0.94610406  0.65271501  1
loop_
_geom_bond_atom_site_label_1
_geom_bond_atom_site_label_2
_geom_bond_distance
_geom_bond_site_symmetry_2
Ta0 Ta3 2.942316 1_565
Ta0 Ta3 2.942326 1_455
Ta1 Ta3 2.938560 1_566
Ta1 Ta3 2.938561 1_456
Ta2 Ta3 2.939840 1_565
Ta2 Ta3 2.939851 1_455
Nb0 Sb0 2.789355 1_555
Nb0 Sb2 2.805177 1_545
Nb0 Sb2 2.805190 1_655
Nb0 Sb3 2.840384 1_445
Nb0 Sb3 2.840394 1_555
Nb0 Ta3 2.961021 1_566
Nb0 Ta3 2.961022 1_456
Sb0 Ta0 2.800141 1_555
Sb0 Ta0 2.800148 1_445
Sb0 Ta2 2.842578 1_555
Sb0 Ta2 2.842583 1_445
Sb0 Ta3 3.091018 1_455
Sb1 Ta0 2.792857 1_555
Sb1 Ta2 2.803392 1_655
Sb1 Ta2 2.803393 1_545
Sb1 Ta1 2.841977 1_654
Sb1 Ta1 2.841988 1_544
Sb1 Ta3 3.093452 1_555
Sb2 Ta1 2.794094 1_555
Sb2 Ta0 2.842310 1_566
Sb2 Ta0 2.842313 1_456
Sb2 Ta3 3.089820 1_466
Sb3 Ta2 2.806656 1_555
Sb3 Ta1 2.812651 1_665
Sb3 Ta1 2.812662 1_555
Sb3 Ta3 3.090294 1_566
