# generated using pymatgen
data_KSc(SbAu)2
_symmetry_space_group_name_H-M   'P 1'
_cell_length_a   4.48483440
_cell_length_b   4.48483465
_cell_length_c   18.74124180
_cell_angle_alpha   90.00000000
_cell_angle_beta   90.00000000
_cell_angle_gamma   120.00002018
_symmetry_Int_Tables_number   1
_chemical_formula_structural   KSc(SbAu)2
_chemical_formula_sum   'K2 Sc2 Sb4 Au4'
_cell_volume   326.45382017
_cell_formula_units_Z   2
loop_
 _symmetry_equiv_pos_site_id
 _symmetry_equiv_pos_as_xyz
  1  'x, y, z'
loop_
 _atom_site_type_symbol
 _atom_site_label
 _atom_site_symmetry_multiplicity
 _atom_site_fract_x
 _atom_site_fract_y
 _atom_site_fract_z
 _atom_site_occupancy
  K  K0  1  0.00000000  0.00000000  0.50000000  1
  K  K1  1  0.00000000  0.00000000  0.00000000  1
  Sc  Sc0  1  0.00000000  0.00000000  0.25000000  1
  Sc  Sc1  1  0.00000000  0.00000000  0.75000000  1
  Sb  Sb0  1  0.33333300  0.66666700  0.36588567  1
  Sb  Sb1  1  0.66666700  0.33333300  0.63411433  1
  Sb  Sb2  1  0.66666700  0.33333300  0.86588567  1
  Sb  Sb3  1  0.33333300  0.66666700  0.13411433  1
  Au  Au0  1  0.66666700  0.33333300  0.32760041  1
  Au  Au1  1  0.33333300  0.66666700  0.67239959  1
  Au  Au2  1  0.33333300  0.66666700  0.82760041  1
  Au  Au3  1  0.66666700  0.33333300  0.17239959  1
loop_
_geom_bond_atom_site_label_1
_geom_bond_atom_site_label_2
_geom_bond_distance
_geom_bond_site_symmetry_2
K0 Sb1 3.608614 1_455
K0 Sb0 3.608614 1_545
K0 Sb1 3.608616 1_555
K0 Sb0 3.608616 1_445
K0 Sb1 3.608616 1_445
K0 Sb0 3.608616 1_555
K1 Sb3 3.608614 1_545
K1 Sb2 3.608614 1_454
K1 Sb3 3.608616 1_445
K1 Sb2 3.608616 1_554
K1 Sb3 3.608616 1_555
K1 Sb2 3.608616 1_444
Sb0 Sc0 3.379566 1_565
Sb0 Sc0 3.379568 1_665
Sb0 Sc0 3.379568 1_555
Sb1 Sc1 3.379566 1_655
Sb1 Sc1 3.379568 1_555
Sb1 Sc1 3.379568 1_665
Sb2 Sc1 3.379566 1_655
Sb2 Sc1 3.379568 1_555
Sb2 Sc1 3.379568 1_665
Sb3 Sc0 3.379566 1_565
Sb3 Sc0 3.379568 1_665
Sb3 Sc0 3.379568 1_555
Au0 Sb0 2.686892 1_655
Au0 Sb0 2.686892 1_545
Au0 Sb0 2.686900 1_555
Au0 Sc0 2.969788 1_655
Au0 Sc0 2.969790 1_555
Au0 Sc0 2.969790 1_665
Au1 Sb1 2.686892 1_455
Au1 Sb1 2.686892 1_565
Au1 Sb1 2.686900 1_555
Au1 Sc1 2.969788 1_565
Au1 Sc1 2.969790 1_665
Au1 Sc1 2.969790 1_555
Au2 Sb2 2.686892 1_455
Au2 Sb2 2.686892 1_565
Au2 Sb2 2.686900 1_555
Au2 Sc1 2.969788 1_565
Au2 Sc1 2.969790 1_665
Au2 Sc1 2.969790 1_555
Au3 Sb3 2.686892 1_655
Au3 Sb3 2.686892 1_545
Au3 Sb3 2.686900 1_555
Au3 Sc0 2.969788 1_655
Au3 Sc0 2.969790 1_555
Au3 Sc0 2.969790 1_665
