# generated using pymatgen
data_TiRe5As14
_symmetry_space_group_name_H-M   'P 1'
_cell_length_a   7.62752382
_cell_length_b   7.62752349
_cell_length_c   7.62752383
_cell_angle_alpha   110.30387166
_cell_angle_beta   109.05650914
_cell_angle_gamma   109.05650502
_symmetry_Int_Tables_number   1
_chemical_formula_structural   TiRe5As14
_chemical_formula_sum   'Ti1 Re5 As14'
_cell_volume   341.55440377
_cell_formula_units_Z   1
loop_
 _symmetry_equiv_pos_site_id
 _symmetry_equiv_pos_as_xyz
  1  'x, y, z'
loop_
 _atom_site_type_symbol
 _atom_site_label
 _atom_site_symmetry_multiplicity
 _atom_site_fract_x
 _atom_site_fract_y
 _atom_site_fract_z
 _atom_site_occupancy
  Ti  Ti0  1  0.00000000  0.34623575  0.34623575  1
  Re  Re0  1  0.00000000  0.66404130  0.66404130  1
  Re  Re1  1  0.34015219  0.00094717  0.34109936  1
  Re  Re2  1  0.34015219  0.34109936  0.00094717  1
  Re  Re3  1  0.65984681  0.00094717  0.66079399  1
  Re  Re4  1  0.65984681  0.66079399  0.00094717  1
  As  As0  1  0.33219772  0.33206751  0.33206751  1
  As  As1  1  0.00000000  0.99854577  0.66863171  1
  As  As2  1  0.66780428  0.99986978  0.99986978  1
  As  As3  1  1.00000000  0.66863171  0.99854577  1
  As  As4  1  0.67008593  0.66863171  0.66863171  1
  As  As5  1  1.00000000  0.99986978  0.33206751  1
  As  As6  1  1.00000000  0.33206751  0.99986978  1
  As  As7  1  0.32991607  0.99854577  0.99854577  1
  As  As8  1  0.50000000  0.75213781  0.25213781  1
  As  As9  1  0.50000000  0.25213781  0.75213781  1
  As  As10  1  0.25400158  0.49585902  0.74986060  1
  As  As11  1  0.74600042  0.24185944  0.49585902  1
  As  As12  1  0.74600042  0.49585902  0.24185944  1
  As  As13  1  0.25400158  0.74986060  0.49585902  1
loop_
_geom_bond_atom_site_label_1
_geom_bond_atom_site_label_2
_geom_bond_distance
_geom_bond_site_symmetry_2
Re0 Ti0 2.770237 1_555
As0 Re1 2.570080 1_555
As0 Re2 2.570080 1_555
As0 As4 2.570673 1_555
As0 Ti0 2.606386 1_555
As1 Re0 2.539503 1_555
As1 As5 2.570673 1_455
As1 Re2 2.581851 1_566
As1 Re3 2.581857 1_465
As2 Re4 2.570080 1_556
As2 Re3 2.570080 1_565
As2 As7 2.570673 1_555
As2 Ti0 2.606381 1_666
As3 Re0 2.539504 1_655
As3 As6 2.570673 1_555
As3 Re1 2.581851 1_666
As3 Re4 2.581857 1_556
As4 Re0 2.539504 1_655
As4 Re3 2.581857 1_565
As4 Re4 2.581857 1_556
As5 Re1 2.570080 1_665
As5 Re4 2.570085 1_555
As5 Ti0 2.606386 1_665
As6 Re2 2.570080 1_656
As6 Re3 2.570085 1_555
As6 Ti0 2.606386 1_656
As7 Re0 2.539509 1_555
As7 Re2 2.581856 1_566
As7 Re1 2.581856 1_566
As8 Re3 2.589616 1_565
As8 Re1 2.589621 1_565
As8 Re4 2.607025 1_555
As8 Re2 2.607030 1_555
As9 Re4 2.589616 1_556
As9 Re2 2.589621 1_556
As9 Re3 2.607025 1_555
As9 Re1 2.607030 1_555
As10 Re4 2.597448 1_556
As10 Re2 2.597453 1_556
As10 Ti0 2.599427 1_555
As10 Re0 2.684246 1_555
As11 Re3 2.597463 1_555
As11 Re1 2.597468 1_555
As11 Ti0 2.599412 1_655
As11 Re0 2.684231 1_655
As12 Re4 2.597463 1_555
As12 Re2 2.597468 1_555
As12 Ti0 2.599412 1_655
As12 Re0 2.684231 1_655
As13 Re3 2.597448 1_565
As13 Re1 2.597453 1_565
As13 Ti0 2.599427 1_555
As13 Re0 2.684246 1_555
