# generated using pymatgen
data_Cs6CdS4
_symmetry_space_group_name_H-M   'P 1'
_cell_length_a   10.80571439
_cell_length_b   10.80571378
_cell_length_c   8.46135458
_cell_angle_alpha   90.00000000
_cell_angle_beta   90.00000000
_cell_angle_gamma   119.99999887
_symmetry_Int_Tables_number   1
_chemical_formula_structural   Cs6CdS4
_chemical_formula_sum   'Cs12 Cd2 S8'
_cell_volume   855.61320049
_cell_formula_units_Z   2
loop_
 _symmetry_equiv_pos_site_id
 _symmetry_equiv_pos_as_xyz
  1  'x, y, z'
loop_
 _atom_site_type_symbol
 _atom_site_label
 _atom_site_symmetry_multiplicity
 _atom_site_fract_x
 _atom_site_fract_y
 _atom_site_fract_z
 _atom_site_occupancy
  Cs  Cs0  1  0.53108799  0.06217499  0.36568024  1
  Cs  Cs1  1  0.46891201  0.53108799  0.86568024  1
  Cs  Cs2  1  0.93782501  0.46891201  0.36568024  1
  Cs  Cs3  1  0.53108799  0.46891201  0.36568024  1
  Cs  Cs4  1  0.14700668  0.85299332  0.54222290  1
  Cs  Cs5  1  0.29401335  0.14700668  0.04222290  1
  Cs  Cs6  1  0.06217499  0.53108799  0.86568024  1
  Cs  Cs7  1  0.85299332  0.70598665  0.04222290  1
  Cs  Cs8  1  0.85299332  0.14700668  0.04222290  1
  Cs  Cs9  1  0.70598665  0.85299332  0.54222290  1
  Cs  Cs10  1  0.14700668  0.29401335  0.54222290  1
  Cs  Cs11  1  0.46891201  0.93782501  0.86568024  1
  Cd  Cd0  1  0.66666700  0.33333300  0.75165793  1
  Cd  Cd1  1  0.33333300  0.66666700  0.25165793  1
  S  S0  1  0.80030480  0.19969520  0.65648749  1
  S  S1  1  0.60061061  0.80030480  0.15648749  1
  S  S2  1  0.19969520  0.39938939  0.15648749  1
  S  S3  1  0.80030480  0.60061061  0.65648749  1
  S  S4  1  0.39938939  0.19969520  0.65648749  1
  S  S5  1  0.19969520  0.80030480  0.15648749  1
  S  S6  1  0.66666700  0.33333300  0.06226918  1
  S  S7  1  0.33333300  0.66666700  0.56226918  1
loop_
_geom_bond_atom_site_label_1
_geom_bond_atom_site_label_2
_geom_bond_distance
_geom_bond_site_symmetry_2
Cs0 S0 3.521749 1_555
Cs0 S4 3.521762 1_555
Cs0 S6 3.609680 1_555
Cs0 S1 3.718926 1_545
Cs0 S5 3.718926 1_545
Cs1 S1 3.521749 1_556
Cs1 S2 3.521749 1_556
Cs1 S7 3.609680 1_555
Cs1 S4 3.718926 1_555
Cs1 S3 3.718926 1_555
Cs2 S0 3.521749 1_555
Cs2 S3 3.521762 1_555
Cs2 S6 3.609680 1_555
Cs2 S5 3.718926 1_655
Cs2 S2 3.718926 1_655
Cs3 S4 3.521749 1_555
Cs3 S3 3.521749 1_555
Cs3 S6 3.609680 1_555
Cs3 S1 3.718926 1_555
Cs3 S2 3.718926 1_555
Cs4 S5 3.409562 1_555
Cs4 S7 3.491415 1_555
Cs4 S4 3.491488 1_565
Cs4 S3 3.491488 1_455
Cs5 S4 3.409559 1_554
Cs5 S6 3.491424 1_555
Cs5 S2 3.491481 1_555
Cs5 S5 3.491491 1_545
Cs6 S5 3.521749 1_556
Cs6 S2 3.521762 1_556
Cs6 S7 3.609680 1_555
Cs6 S0 3.718926 1_455
Cs6 S3 3.718926 1_455
Cs7 S3 3.409559 1_554
Cs7 S6 3.491424 1_555
Cs7 S1 3.491481 1_555
Cs7 S5 3.491491 1_655
Cs8 S0 3.409562 1_554
Cs8 S6 3.491415 1_555
Cs8 S1 3.491488 1_545
Cs8 S2 3.491488 1_655
Cs9 S1 3.409559 1_555
Cs9 S7 3.491424 1_555
Cs9 S3 3.491481 1_555
Cs9 S0 3.491491 1_565
Cs10 S2 3.409559 1_555
Cs10 S7 3.491424 1_555
Cs10 S4 3.491481 1_555
Cs10 S0 3.491491 1_455
Cs11 S5 3.521749 1_556
Cs11 S1 3.521762 1_556
Cs11 S7 3.609680 1_555
Cs11 S4 3.718926 1_565
Cs11 S0 3.718926 1_565
Cd0 S0 2.627607 1_555
Cd0 S3 2.627625 1_555
Cd0 S4 2.627625 1_555
Cd0 S6 2.628192 1_556
Cd1 S5 2.627607 1_555
Cd1 S2 2.627625 1_555
Cd1 S1 2.627625 1_555
Cd1 S7 2.628192 1_555
