# generated using pymatgen
data_Zr6Ti16Tc2Ir5
_symmetry_space_group_name_H-M   'P 1'
_cell_length_a   8.94101344
_cell_length_b   8.95559826
_cell_length_c   8.94101303
_cell_angle_alpha   59.94602261
_cell_angle_beta   60.03098866
_cell_angle_gamma   59.94602464
_symmetry_Int_Tables_number   1
_chemical_formula_structural   Zr6Ti16Tc2Ir5
_chemical_formula_sum   'Zr6 Ti16 Tc2 Ir5'
_cell_volume   505.94081899
_cell_formula_units_Z   1
loop_
 _symmetry_equiv_pos_site_id
 _symmetry_equiv_pos_as_xyz
  1  'x, y, z'
loop_
 _atom_site_type_symbol
 _atom_site_label
 _atom_site_symmetry_multiplicity
 _atom_site_fract_x
 _atom_site_fract_y
 _atom_site_fract_z
 _atom_site_occupancy
  Zr  Zr0  1  0.68570346  0.68813215  0.31429654  1
  Zr  Zr1  1  0.31079811  0.68920189  0.31079811  1
  Zr  Zr2  1  0.68570346  0.31186785  0.31429654  1
  Zr  Zr3  1  0.31429654  0.31186785  0.68570346  1
  Zr  Zr4  1  0.68920189  0.31079811  0.68920189  1
  Zr  Zr5  1  0.31429654  0.68813215  0.68570346  1
  Ti  Ti0  1  0.88371463  0.88179002  0.35270633  1
  Ti  Ti1  1  0.88467798  0.34953208  0.88467798  1
  Ti  Ti2  1  0.35270633  0.88179002  0.88371463  1
  Ti  Ti3  1  0.88467798  0.88111296  0.88467798  1
  Ti  Ti4  1  0.11628537  0.11820998  0.64729367  1
  Ti  Ti5  1  0.11532202  0.65046792  0.11532202  1
  Ti  Ti6  1  0.64729367  0.11820998  0.11628537  1
  Ti  Ti7  1  0.11532202  0.11888704  0.11532202  1
  Ti  Ti8  1  0.67135668  0.66715452  0.99433328  1
  Ti  Ti9  1  0.67053121  0.99044538  0.67053121  1
  Ti  Ti10  1  0.99433328  0.66715452  0.67135668  1
  Ti  Ti11  1  0.67053121  0.66849021  0.67053121  1
  Ti  Ti12  1  0.32864332  0.33284548  0.00566672  1
  Ti  Ti13  1  0.32946879  0.00955462  0.32946879  1
  Ti  Ti14  1  0.00566672  0.33284548  0.32864332  1
  Ti  Ti15  1  0.32946879  0.33150979  0.32946879  1
  Tc  Tc0  1  0.00000000  0.00000000  0.00000000  1
  Tc  Tc1  1  0.00000000  0.50000000  0.00000000  1
  Ir  Ir0  1  0.00000000  0.00000000  0.50000000  1
  Ir  Ir1  1  0.50000000  0.00000000  0.50000000  1
  Ir  Ir2  1  0.00000000  0.50000000  0.50000000  1
  Ir  Ir3  1  0.50000000  0.50000000  0.00000000  1
  Ir  Ir4  1  0.50000000  0.00000000  0.00000000  1
loop_
_geom_bond_atom_site_label_1
_geom_bond_atom_site_label_2
_geom_bond_distance
_geom_bond_site_symmetry_2
Zr0 Zr5 3.322310 1_555
Zr0 Zr4 3.362958 1_555
Zr0 Zr1 3.362958 1_555
Zr0 Zr2 3.369672 1_555
Zr1 Zr3 3.362958 1_555
Zr1 Zr5 3.362958 1_555
Zr1 Zr2 3.362958 1_555
Zr2 Zr3 3.322310 1_555
Zr2 Zr4 3.362958 1_555
Zr3 Zr4 3.362958 1_555
Zr3 Zr5 3.369672 1_555
Zr4 Zr5 3.362958 1_555
Ti0 Zr1 3.212101 1_655
Ti0 Zr2 3.246482 1_565
Ti0 Zr0 3.246490 1_555
Ti1 Zr4 3.239741 1_555
Ti1 Zr2 3.241875 1_556
Ti1 Zr3 3.241876 1_655
Ti2 Zr1 3.212101 1_556
Ti2 Zr3 3.246482 1_565
Ti2 Zr5 3.246490 1_555
Ti3 Zr4 3.239735 1_565
Ti3 Zr0 3.241877 1_556
Ti3 Zr5 3.241878 1_655
Ti4 Zr4 3.212101 1_455
Ti4 Zr5 3.246482 1_545
Ti4 Zr3 3.246490 1_555
Ti5 Zr1 3.239741 1_555
Ti5 Zr5 3.241875 1_554
Ti5 Zr0 3.241876 1_455
Ti6 Zr4 3.212101 1_554
Ti6 Zr0 3.246482 1_545
Ti6 Zr2 3.246490 1_555
Ti7 Zr1 3.239735 1_545
Ti7 Zr3 3.241877 1_554
Ti7 Zr2 3.241878 1_455
Ti8 Zr2 3.027368 1_556
Ti8 Zr0 3.027373 1_556
Ti8 Zr1 3.040834 1_556
Ti9 Zr2 3.037316 1_565
Ti9 Zr3 3.037316 1_565
Ti9 Zr4 3.045303 1_565
Ti10 Zr3 3.027368 1_655
Ti10 Zr5 3.027373 1_655
Ti10 Zr1 3.040833 1_655
Ti11 Zr0 3.037308 1_555
Ti11 Zr5 3.037308 1_555
Ti11 Zr4 3.045285 1_555
Ti12 Zr5 3.027368 1_554
Ti12 Zr3 3.027373 1_554
Ti12 Zr4 3.040834 1_554
Ti13 Zr5 3.037316 1_545
Ti13 Zr0 3.037316 1_545
Ti13 Zr1 3.045303 1_545
Ti14 Zr0 3.027368 1_455
Ti14 Zr2 3.027373 1_455
Ti14 Zr4 3.040833 1_455
Ti15 Zr3 3.037308 1_555
Ti15 Zr2 3.037308 1_555
Ti15 Zr1 3.045285 1_555
Tc0 Ti7 2.553680 1_555
Tc0 Ti3 2.553680 1_444
Tc0 Ti1 2.553687 1_454
Tc0 Ti5 2.553687 1_545
Tc0 Ti0 2.574772 1_445
Tc0 Ti4 2.574772 1_554
Tc0 Ti2 2.574772 1_544
Tc0 Ti6 2.574772 1_455
Tc1 Ti14 2.558241 1_555
Tc1 Ti10 2.558241 1_454
Tc1 Ti12 2.558241 1_555
Tc1 Ti8 2.558241 1_454
Tc1 Ti5 2.790648 1_555
Tc1 Ti1 2.790648 1_454
Tc1 Ti3 2.790655 1_454
Tc1 Ti7 2.790655 1_555
Tc1 Zr2 3.277636 1_455
Tc1 Zr5 3.277636 1_554
Tc1 Zr3 3.277636 1_554
Tc1 Zr0 3.277636 1_455
Ir0 Ti13 2.577644 1_555
Ir0 Ti9 2.577644 1_445
Ir0 Ti14 2.595108 1_555
Ir0 Ti10 2.595108 1_445
Ir0 Ti4 2.793382 1_555
Ir0 Ti0 2.793382 1_445
Ir0 Ti3 2.813349 1_445
Ir0 Ti7 2.813349 1_555
Ir0 Zr4 3.256296 1_455
Ir0 Zr1 3.256296 1_545
Ir0 Zr5 3.257223 1_545
Ir0 Zr2 3.257223 1_455
Ir1 Ti9 2.591933 1_545
Ir1 Ti13 2.591933 1_555
Ir1 Ti11 2.591943 1_545
Ir1 Ti15 2.591943 1_555
Ir1 Ti2 2.805359 1_545
Ir1 Ti6 2.805359 1_555
Ir1 Ti0 2.805359 1_545
Ir1 Ti4 2.805359 1_555
Ir1 Zr2 3.249627 1_555
Ir1 Zr5 3.249627 1_545
Ir1 Zr0 3.249627 1_545
Ir1 Zr3 3.249627 1_555
Ir2 Ti15 2.577638 1_555
Ir2 Ti11 2.577638 1_455
Ir2 Ti10 2.595101 1_455
Ir2 Ti14 2.595101 1_555
Ir2 Ti0 2.793389 1_455
Ir2 Ti4 2.793389 1_555
Ir2 Ti1 2.813349 1_455
Ir2 Ti5 2.813349 1_555
Ir2 Zr1 3.256296 1_555
Ir2 Zr4 3.256296 1_455
Ir2 Zr3 3.257223 1_555
Ir2 Zr0 3.257223 1_455
Ir3 Ti11 2.577638 1_554
Ir3 Ti15 2.577638 1_555
Ir3 Ti8 2.595101 1_554
Ir3 Ti12 2.595101 1_555
Ir3 Ti2 2.793389 1_554
Ir3 Ti6 2.793389 1_555
Ir3 Ti1 2.813349 1_554
Ir3 Ti5 2.813349 1_555
Ir3 Zr1 3.256296 1_555
Ir3 Zr4 3.256296 1_554
Ir3 Zr2 3.257222 1_555
Ir3 Zr5 3.257222 1_554
Ir4 Ti13 2.577644 1_555
Ir4 Ti9 2.577644 1_544
Ir4 Ti12 2.595109 1_555
Ir4 Ti8 2.595109 1_544
Ir4 Ti6 2.793382 1_555
Ir4 Ti2 2.793382 1_544
Ir4 Ti3 2.813350 1_544
Ir4 Ti7 2.813350 1_555
Ir4 Zr4 3.256296 1_554
Ir4 Zr1 3.256296 1_545
Ir4 Zr0 3.257222 1_545
Ir4 Zr3 3.257222 1_554
