# generated using pymatgen
data_Lu6Ni2Sn
_symmetry_space_group_name_H-M   'P 1'
_cell_length_a   8.22815657
_cell_length_b   8.22815657
_cell_length_c   8.22815657
_cell_angle_alpha   112.62885406
_cell_angle_beta   110.23414176
_cell_angle_gamma   105.62752093
_symmetry_Int_Tables_number   1
_chemical_formula_structural   Lu6Ni2Sn
_chemical_formula_sum   'Lu12 Ni4 Sn2'
_cell_volume   427.19497253
_cell_formula_units_Z   2
loop_
 _symmetry_equiv_pos_site_id
 _symmetry_equiv_pos_as_xyz
  1  'x, y, z'
loop_
 _atom_site_type_symbol
 _atom_site_label
 _atom_site_symmetry_multiplicity
 _atom_site_fract_x
 _atom_site_fract_y
 _atom_site_fract_z
 _atom_site_occupancy
  Lu  Lu0  1  0.67418800  0.86590700  0.19171900  1
  Lu  Lu1  1  0.32581200  0.51753100  0.19171900  1
  Lu  Lu2  1  0.81705100  0.79155400  0.60860500  1
  Lu  Lu3  1  0.18294900  0.79155400  0.97450300  1
  Lu  Lu4  1  0.81705100  0.20844600  0.02549700  1
  Lu  Lu5  1  0.18294900  0.20844600  0.39139500  1
  Lu  Lu6  1  0.67418800  0.48246900  0.80828100  1
  Lu  Lu7  1  0.32581200  0.13409300  0.80828100  1
  Lu  Lu8  1  0.55910700  0.26567600  0.29343000  1
  Lu  Lu9  1  0.44089300  0.73432400  0.70657000  1
  Lu  Lu10  1  0.02775400  0.73432400  0.29343000  1
  Lu  Lu11  1  0.97224600  0.26567600  0.70657000  1
  Ni  Ni0  1  0.34903300  0.50000000  0.84903300  1
  Ni  Ni1  1  0.65096700  0.50000000  0.15096700  1
  Ni  Ni2  1  0.87547600  0.87547600  0.00000000  1
  Ni  Ni3  1  0.12452400  0.12452400  0.00000000  1
  Sn  Sn0  1  0.00000000  0.50000000  0.50000000  1
  Sn  Sn1  1  0.50000000  0.00000000  0.50000000  1
loop_
_geom_bond_atom_site_label_1
_geom_bond_atom_site_label_2
_geom_bond_distance
_geom_bond_site_symmetry_2
Lu0 Ni2 2.659011 1_555
Lu0 Ni1 2.842955 1_555
Lu0 Ni0 2.842955 1_554
Lu0 Sn1 3.304374 1_565
Lu1 Ni3 2.659011 1_555
Lu1 Ni1 2.842955 1_555
Lu1 Ni0 2.842955 1_554
Lu1 Sn1 3.304374 1_565
Lu2 Ni3 2.849260 1_666
Lu2 Ni2 2.849260 1_556
Lu2 Ni1 3.086195 1_555
Lu2 Sn0 3.169540 1_655
Lu2 Sn1 3.538821 1_565
Lu3 Ni3 2.849260 1_566
Lu3 Ni2 2.849260 1_456
Lu3 Ni0 3.086195 1_555
Lu3 Sn0 3.169540 1_555
Lu3 Sn1 3.538821 1_566
Lu4 Ni3 2.849260 1_655
Lu4 Ni2 2.849260 1_545
Lu4 Ni1 3.086195 1_555
Lu4 Sn0 3.169540 1_655
Lu4 Sn1 3.538821 1_554
Lu5 Ni3 2.849260 1_555
Lu5 Ni2 2.849260 1_445
Lu5 Ni0 3.086195 1_555
Lu5 Sn0 3.169540 1_555
Lu5 Sn1 3.538821 1_555
Lu6 Ni2 2.659011 1_556
Lu6 Ni0 2.842955 1_555
Lu6 Ni1 2.842955 1_556
Lu6 Sn1 3.304374 1_555
Lu7 Ni3 2.659011 1_556
Lu7 Ni0 2.842955 1_555
Lu7 Ni1 2.842955 1_556
Lu7 Sn1 3.304374 1_555
Lu8 Ni1 2.688802 1_555
Lu8 Sn0 3.035047 1_655
Lu8 Ni3 3.097974 1_555
Lu8 Sn1 3.280606 1_555
Lu9 Ni0 2.688802 1_555
Lu9 Sn0 3.035047 1_555
Lu9 Ni2 3.097974 1_556
Lu9 Sn1 3.280606 1_565
Lu10 Ni1 2.688804 1_455
Lu10 Sn0 3.035054 1_555
Lu10 Ni2 3.097968 1_455
Lu10 Sn1 3.280605 1_565
Lu11 Ni0 2.688804 1_655
Lu11 Sn0 3.035054 1_655
Lu11 Ni3 3.097968 1_656
Lu11 Sn1 3.280605 1_555
Ni2 Ni3 2.477112 1_665
