# generated using pymatgen
data_Li3Y3HgP2
_symmetry_space_group_name_H-M   'P 1'
_cell_length_a   7.00942452
_cell_length_b   7.00942394
_cell_length_c   4.12267804
_cell_angle_alpha   90.00000000
_cell_angle_beta   90.00000000
_cell_angle_gamma   119.99999806
_symmetry_Int_Tables_number   1
_chemical_formula_structural   Li3Y3HgP2
_chemical_formula_sum   'Li3 Y3 Hg1 P2'
_cell_volume   175.41824071
_cell_formula_units_Z   1
loop_
 _symmetry_equiv_pos_site_id
 _symmetry_equiv_pos_as_xyz
  1  'x, y, z'
loop_
 _atom_site_type_symbol
 _atom_site_label
 _atom_site_symmetry_multiplicity
 _atom_site_fract_x
 _atom_site_fract_y
 _atom_site_fract_z
 _atom_site_occupancy
  Li  Li0  1  0.25428019  1.00000000  0.50000000  1
  Li  Li1  1  0.74571981  0.74571981  0.50000000  1
  Li  Li2  1  0.00000000  0.25428019  0.50000000  1
  Y  Y0  1  1.00000000  0.57372174  0.00000000  1
  Y  Y1  1  0.57372174  0.00000000  0.00000000  1
  Y  Y2  1  0.42627826  0.42627826  0.00000000  1
  Hg  Hg0  1  0.00000000  0.00000000  0.00000000  1
  P  P0  1  0.33333300  0.66666700  0.50000000  1
  P  P1  1  0.66666700  0.33333300  0.50000000  1
loop_
_geom_bond_atom_site_label_1
_geom_bond_atom_site_label_2
_geom_bond_distance
_geom_bond_site_symmetry_2
Li0 P0 2.657220 1_555
Li0 P1 2.657225 1_565
Li0 Y1 3.043467 1_565
Li0 Y1 3.043467 1_566
Li0 Y2 3.320878 1_565
Li0 Y2 3.320878 1_566
Li0 Y0 3.320878 1_456
Li0 Y0 3.320878 1_455
Li1 P1 2.657227 1_555
Li1 P0 2.657227 1_555
Li1 Y2 3.043467 1_556
Li1 Y2 3.043467 1_555
Li1 Y1 3.320878 1_565
Li1 Y1 3.320878 1_566
Li1 Y0 3.320878 1_556
Li1 Y0 3.320878 1_555
Li2 P1 2.657220 1_455
Li2 P0 2.657225 1_555
Li2 Y0 3.043467 1_456
Li2 Y0 3.043467 1_455
Li2 Y1 3.320878 1_456
Li2 Y1 3.320878 1_455
Li2 Y2 3.320878 1_556
Li2 Y2 3.320878 1_555
Hg0 Li2 2.725054 1_555
Hg0 Li2 2.725054 1_554
Hg0 Li1 2.725054 1_445
Hg0 Li1 2.725054 1_444
Hg0 Li0 2.725054 1_544
Hg0 Li0 2.725054 1_545
Hg0 Y0 2.987965 1_445
Hg0 Y2 2.987965 1_555
Hg0 Y1 2.987965 1_455
P0 Y0 2.934360 1_456
P0 Y0 2.934360 1_455
P0 Y1 2.934361 1_566
P0 Y1 2.934361 1_565
P0 Y2 2.934365 1_555
P0 Y2 2.934365 1_556
P1 Y1 2.934360 1_556
P1 Y1 2.934360 1_555
P1 Y0 2.934362 1_555
P1 Y0 2.934362 1_556
P1 Y2 2.934365 1_556
P1 Y2 2.934365 1_555
