# generated using pymatgen
data_K5SrNbAs4
_symmetry_space_group_name_H-M   'P 1'
_cell_length_a   10.39315397
_cell_length_b   10.39315452
_cell_length_c   7.93718676
_cell_angle_alpha   88.51989275
_cell_angle_beta   88.51989562
_cell_angle_gamma   120.58799858
_symmetry_Int_Tables_number   1
_chemical_formula_structural   K5SrNbAs4
_chemical_formula_sum   'K10 Sr2 Nb2 As8'
_cell_volume   737.05072021
_cell_formula_units_Z   2
loop_
 _symmetry_equiv_pos_site_id
 _symmetry_equiv_pos_as_xyz
  1  'x, y, z'
loop_
 _atom_site_type_symbol
 _atom_site_label
 _atom_site_symmetry_multiplicity
 _atom_site_fract_x
 _atom_site_fract_y
 _atom_site_fract_z
 _atom_site_occupancy
  K  K0  1  0.46641725  0.52608827  0.60705687  1
  K  K1  1  0.05733441  0.52792650  0.61015759  1
  K  K2  1  0.52608827  0.46641725  0.10705687  1
  K  K3  1  0.52792650  0.05733441  0.11015759  1
  K  K4  1  0.86411737  0.14295290  0.78713021  1
  K  K5  1  0.29429414  0.15369791  0.82681997  1
  K  K6  1  0.85506161  0.71646511  0.76475903  1
  K  K7  1  0.14295290  0.86411737  0.28713021  1
  K  K8  1  0.71646511  0.85506161  0.26475903  1
  K  K9  1  0.15369791  0.29429414  0.32681997  1
  Sr  Sr0  1  0.46482927  0.93666360  0.60278524  1
  Sr  Sr1  1  0.93666360  0.46482927  0.10278524  1
  Nb  Nb0  1  0.66942429  0.33124895  0.50079677  1
  Nb  Nb1  1  0.33124895  0.66942429  0.00079677  1
  As  As0  1  0.68450859  0.33862531  0.81455803  1
  As  As1  1  0.33862531  0.68450859  0.31455803  1
  As  As2  1  0.19495068  0.79467305  0.89315561  1
  As  As3  1  0.59093980  0.80167940  0.87320081  1
  As  As4  1  0.18798746  0.40011514  0.92677988  1
  As  As5  1  0.79467305  0.19495068  0.39315561  1
  As  As6  1  0.40011514  0.18798746  0.42677988  1
  As  As7  1  0.80167940  0.59093980  0.37320081  1
loop_
_geom_bond_atom_site_label_1
_geom_bond_atom_site_label_2
_geom_bond_distance
_geom_bond_site_symmetry_2
As0 Nb0 2.500051 1_555
As0 Sr1 3.284577 1_556
As0 K3 3.362507 1_556
As0 K6 3.393909 1_555
As0 K4 3.396041 1_555
As0 K2 3.471631 1_556
As0 K5 3.491152 1_555
As0 K1 3.642662 1_655
As1 Nb1 2.500051 1_555
As1 Sr0 3.284577 1_555
As1 K1 3.362507 1_555
As1 K8 3.393909 1_555
As1 K7 3.396041 1_555
As1 K0 3.471630 1_555
As1 K9 3.491152 1_555
As1 K3 3.642662 1_565
As2 Nb1 2.512539 1_556
As2 Sr0 3.261083 1_555
As2 K7 3.319287 1_556
As2 K5 3.349047 1_565
As2 K1 3.350997 1_555
As2 K6 3.388881 1_455
As2 Sr1 3.440285 1_456
As2 K3 3.651201 1_566
As3 Nb1 2.492169 1_556
As3 Sr0 3.186529 1_555
As3 K4 3.260988 1_565
As3 K0 3.320017 1_555
As3 K8 3.351203 1_556
As3 K6 3.384097 1_555
As3 K3 3.604397 1_566
As3 K2 3.640325 1_556
As4 Nb1 2.507010 1_556
As4 K9 3.283396 1_556
As4 Sr1 3.297685 1_456
As4 K4 3.300320 1_455
As4 K5 3.368773 1_555
As4 K1 3.429816 1_555
As4 K0 3.481540 1_555
As4 K2 3.566004 1_556
As5 Nb0 2.512539 1_555
As5 Sr1 3.261083 1_555
As5 K4 3.319287 1_555
As5 K9 3.349047 1_655
As5 K3 3.350997 1_555
As5 K8 3.388881 1_545
As5 Sr0 3.440285 1_545
As5 K1 3.651201 1_655
As6 Nb0 2.507010 1_555
As6 K5 3.283396 1_555
As6 Sr0 3.297685 1_545
As6 K7 3.300320 1_545
As6 K9 3.368773 1_555
As6 K3 3.429816 1_555
As6 K2 3.481540 1_555
As6 K0 3.566005 1_555
As7 Nb0 2.492169 1_555
As7 Sr1 3.186529 1_555
As7 K7 3.260988 1_655
As7 K2 3.320016 1_555
As7 K6 3.351203 1_555
As7 K8 3.384097 1_555
As7 K1 3.604396 1_655
As7 K0 3.640325 1_555
