# generated using pymatgen
data_Cs6Si2PdO8
_symmetry_space_group_name_H-M   'P 1'
_cell_length_a   6.87529409
_cell_length_b   7.28076370
_cell_length_c   8.09078035
_cell_angle_alpha   84.68045752
_cell_angle_beta   86.95726299
_cell_angle_gamma   69.20367355
_symmetry_Int_Tables_number   1
_chemical_formula_structural   Cs6Si2PdO8
_chemical_formula_sum   'Cs6 Si2 Pd1 O8'
_cell_volume   376.89764222
_cell_formula_units_Z   1
loop_
 _symmetry_equiv_pos_site_id
 _symmetry_equiv_pos_as_xyz
  1  'x, y, z'
loop_
 _atom_site_type_symbol
 _atom_site_label
 _atom_site_symmetry_multiplicity
 _atom_site_fract_x
 _atom_site_fract_y
 _atom_site_fract_z
 _atom_site_occupancy
  Cs  Cs0  1  0.20347857  0.70159117  0.02320012  1
  Cs  Cs1  1  0.72219704  0.20161936  0.45669048  1
  Cs  Cs2  1  0.79652143  0.29840883  0.97679988  1
  Cs  Cs3  1  0.65684718  0.82711255  0.17015865  1
  Cs  Cs4  1  0.34315282  0.17288745  0.82984135  1
  Cs  Cs5  1  0.27780296  0.79838064  0.54330952  1
  Si  Si0  1  0.78207691  0.75058770  0.73020255  1
  Si  Si1  1  0.21792309  0.24941230  0.26979745  1
  Pd  Pd0  1  0.00000000  0.50000000  0.50000000  1
  O  O0  1  0.00114888  0.45065444  0.25297873  1
  O  O1  1  0.76066386  0.76532003  0.52325392  1
  O  O2  1  0.99885112  0.54934556  0.74702127  1
  O  O3  1  0.41709475  0.28504607  0.17468370  1
  O  O4  1  0.82150242  0.94050741  0.79146890  1
  O  O5  1  0.23933614  0.23467997  0.47674608  1
  O  O6  1  0.58290525  0.71495393  0.82531630  1
  O  O7  1  0.17849758  0.05949259  0.20853110  1
loop_
_geom_bond_atom_site_label_1
_geom_bond_atom_site_label_2
_geom_bond_distance
_geom_bond_site_symmetry_2
Cs0 O6 3.014280 1_554
Cs0 O3 3.032465 1_555
Cs0 O7 3.073669 1_565
Cs0 O0 3.103166 1_555
Cs0 O2 3.178263 1_454
Cs0 O4 3.179947 1_454
Cs1 O3 3.053109 1_555
Cs1 O1 3.090642 1_545
Cs1 O4 3.120380 1_545
Cs1 O5 3.238523 1_555
Cs1 O0 3.355882 1_655
Cs1 Pd0 3.413047 1_655
Cs1 O7 3.515028 1_655
Cs1 O5 3.660866 1_655
Cs2 O3 3.014280 1_556
Cs2 O6 3.032465 1_555
Cs2 O4 3.073669 1_545
Cs2 O2 3.103166 1_555
Cs2 O0 3.178263 1_656
Cs2 O7 3.179947 1_656
Cs3 O1 2.936564 1_555
Cs3 O0 2.964066 1_655
Cs3 O6 3.094744 1_554
Cs3 O7 3.132555 1_565
Cs3 O3 3.154106 1_565
Cs3 O4 3.343208 1_554
Cs4 O5 2.936564 1_555
Cs4 O2 2.964066 1_455
Cs4 O3 3.094744 1_556
Cs4 O4 3.132555 1_545
Cs4 O6 3.154106 1_545
Cs4 O7 3.343208 1_556
Cs5 O6 3.053109 1_555
Cs5 O5 3.090642 1_565
Cs5 O7 3.120380 1_565
Cs5 O1 3.238523 1_555
Cs5 O2 3.355882 1_455
Cs5 Pd0 3.413047 1_555
Cs5 O4 3.515028 1_455
Cs5 O1 3.660866 1_455
O0 Si1 1.679432 1_555
O0 Pd0 2.062273 1_555
O1 Si0 1.678800 1_555
O1 Pd0 2.062048 1_655
O2 Si0 1.679432 1_555
O2 Pd0 2.062273 1_655
O3 Si1 1.624207 1_555
O4 Si0 1.624414 1_555
O5 Si1 1.678800 1_555
O5 Pd0 2.062048 1_555
O6 Si0 1.624207 1_555
O7 Si1 1.624414 1_555
