# generated using pymatgen
data_Cs2NbNiS4
_symmetry_space_group_name_H-M   'P 1'
_cell_length_a   14.46838862
_cell_length_b   12.95127297
_cell_length_c   7.57368142
_cell_angle_alpha   85.39161136
_cell_angle_beta   63.15721251
_cell_angle_gamma   31.45117507
_symmetry_Int_Tables_number   1
_chemical_formula_structural   Cs2NbNiS4
_chemical_formula_sum   'Cs4 Nb2 Ni2 S8'
_cell_volume   499.33830522
_cell_formula_units_Z   2
loop_
 _symmetry_equiv_pos_site_id
 _symmetry_equiv_pos_as_xyz
  1  'x, y, z'
loop_
 _atom_site_type_symbol
 _atom_site_label
 _atom_site_symmetry_multiplicity
 _atom_site_fract_x
 _atom_site_fract_y
 _atom_site_fract_z
 _atom_site_occupancy
  Cs  Cs0  1  0.32417721  0.32417721  0.67582279  1
  Cs  Cs1  1  0.67582279  0.67582279  0.32417721  1
  Cs  Cs2  1  0.92582279  0.92582279  0.57417721  1
  Cs  Cs3  1  0.57417721  0.57417721  0.92582279  1
  Nb  Nb0  1  0.75000000  0.75000000  0.75000000  1
  Nb  Nb1  1  0.50000000  0.50000000  0.50000000  1
  Ni  Ni0  1  0.25000000  0.25000000  0.25000000  1
  Ni  Ni1  1  0.00000000  0.00000000  0.00000000  1
  S  S0  1  0.89428379  0.20882917  0.28511929  1
  S  S1  1  0.61176875  0.28511929  0.20882917  1
  S  S2  1  0.28511929  0.61176875  0.89428379  1
  S  S3  1  0.20882917  0.89428379  0.61176875  1
  S  S4  1  0.04117083  0.35571621  0.63823125  1
  S  S5  1  0.63823125  0.96488071  0.04117083  1
  S  S6  1  0.96488071  0.63823125  0.35571621  1
  S  S7  1  0.35571621  0.04117083  0.96488071  1
loop_
_geom_bond_atom_site_label_1
_geom_bond_atom_site_label_2
_geom_bond_distance
_geom_bond_site_symmetry_2
Cs0 S6 3.632997 1_456
Cs0 S5 3.633003 1_545
Cs0 S6 3.659162 1_545
Cs0 S5 3.659164 1_456
Cs0 S1 3.672162 1_555
Cs0 S2 3.672165 1_555
Cs0 S7 3.898008 1_555
Cs0 S4 3.898012 1_555
Cs1 S7 3.632997 1_654
Cs1 S4 3.633000 1_565
Cs1 S7 3.659158 1_565
Cs1 S4 3.659164 1_654
Cs1 S3 3.672152 1_555
Cs1 S0 3.672153 1_555
Cs1 S6 3.897998 1_555
Cs1 S5 3.898002 1_555
Cs2 S2 3.632997 1_654
Cs2 S1 3.633003 1_566
Cs2 S2 3.659162 1_565
Cs2 S1 3.659164 1_655
Cs2 S5 3.672162 1_556
Cs2 S6 3.672165 1_555
Cs2 S0 3.898008 1_565
Cs2 S3 3.898012 1_655
Cs3 S0 3.632997 1_466
Cs3 S3 3.633000 1_645
Cs3 S0 3.659158 1_555
Cs3 S3 3.659164 1_556
Cs3 S4 3.672152 1_655
Cs3 S7 3.672153 1_565
Cs3 S2 3.897998 1_555
Cs3 S1 3.898002 1_556
Nb0 S5 2.304411 1_556
Nb0 S6 2.304416 1_555
Nb0 S4 2.304420 1_655
Nb0 S7 2.304422 1_565
Nb1 S1 2.304411 1_555
Nb1 S2 2.304416 1_555
Nb1 S3 2.304420 1_555
Nb1 S0 2.304422 1_555
Ni0 S5 2.283621 1_545
Ni0 S6 2.283623 1_455
Ni0 S4 2.283627 1_555
Ni0 S7 2.283632 1_554
Ni1 S1 2.283621 1_455
Ni1 S2 2.283623 1_544
Ni1 S3 2.283627 1_544
Ni1 S0 2.283632 1_455
