# generated using pymatgen
data_KSb12(OsRh)2
_symmetry_space_group_name_H-M   'P 1'
_cell_length_a   8.10929939
_cell_length_b   8.10929820
_cell_length_c   8.11682426
_cell_angle_alpha   109.48247443
_cell_angle_beta   109.48473090
_cell_angle_gamma   109.40885465
_symmetry_Int_Tables_number   1
_chemical_formula_structural   KSb12(OsRh)2
_chemical_formula_sum   'K1 Sb12 Os2 Rh2'
_cell_volume   411.08539455
_cell_formula_units_Z   1
loop_
 _symmetry_equiv_pos_site_id
 _symmetry_equiv_pos_as_xyz
  1  'x, y, z'
loop_
 _atom_site_type_symbol
 _atom_site_label
 _atom_site_symmetry_multiplicity
 _atom_site_fract_x
 _atom_site_fract_y
 _atom_site_fract_z
 _atom_site_occupancy
  K  K0  1  0.00000000  0.00000000  0.00000000  1
  Sb  Sb0  1  0.84343442  0.65930124  0.50273466  1
  Sb  Sb1  1  0.15656558  0.34069876  0.49726534  1
  Sb  Sb2  1  0.15649954  0.65483015  0.81133069  1
  Sb  Sb3  1  0.84350046  0.34516985  0.18866931  1
  Sb  Sb4  1  0.65533950  0.50010778  0.84184619  1
  Sb  Sb5  1  0.34466050  0.49989222  0.15815381  1
  Sb  Sb6  1  0.65826159  0.81349531  0.15815381  1
  Sb  Sb7  1  0.34173841  0.18650469  0.84184619  1
  Sb  Sb8  1  0.50026851  0.84231318  0.65581243  1
  Sb  Sb9  1  0.49973149  0.15768682  0.34418757  1
  Sb  Sb10  1  0.18649975  0.84445608  0.34418757  1
  Sb  Sb11  1  0.81350025  0.15554392  0.65581243  1
  Os  Os0  1  0.50000000  0.50000000  0.50000000  1
  Os  Os1  1  0.00000000  0.00000000  0.50000000  1
  Rh  Rh0  1  0.50000000  0.00000000  0.00000000  1
  Rh  Rh1  1  0.00000000  0.50000000  0.00000000  1
loop_
_geom_bond_atom_site_label_1
_geom_bond_atom_site_label_2
_geom_bond_distance
_geom_bond_site_symmetry_2
K0 Sb1 3.513958 1_555
K0 Sb0 3.513958 1_444
K0 Sb10 3.533109 1_545
K0 Sb11 3.533109 1_454
K0 Sb9 3.533112 1_555
K0 Sb8 3.533112 1_444
K0 Sb7 3.535235 1_554
K0 Sb6 3.535235 1_445
K0 Sb5 3.535240 1_555
K0 Sb4 3.535240 1_444
K0 Sb2 3.548079 1_544
K0 Sb3 3.548079 1_455
Sb0 Sb2 2.932605 1_655
Sb0 Sb3 2.942423 1_555
Sb1 Sb3 2.932605 1_455
Sb1 Sb2 2.942423 1_555
Sb4 Sb6 2.935612 1_556
Sb4 Sb7 2.938771 1_555
Sb5 Sb7 2.935612 1_554
Sb5 Sb6 2.938771 1_555
Sb10 Sb9 2.935295 1_565
Sb10 Sb8 2.938981 1_555
Sb11 Sb8 2.935295 1_545
Sb11 Sb9 2.938981 1_555
Os0 Sb4 2.636613 1_555
Os0 Sb5 2.636613 1_555
Os0 Sb8 2.637722 1_555
Os0 Sb9 2.637722 1_555
Os0 Sb0 2.640855 1_555
Os0 Sb1 2.640855 1_555
Os1 Sb7 2.636615 1_555
Os1 Sb6 2.636615 1_445
Os1 Sb11 2.637715 1_455
Os1 Sb10 2.637715 1_545
Os1 Sb1 2.640847 1_555
Os1 Sb0 2.640847 1_445
Rh0 Sb3 2.655624 1_555
Rh0 Sb2 2.655624 1_544
Rh0 Sb9 2.657622 1_555
Rh0 Sb8 2.657622 1_544
Rh0 Sb6 2.658654 1_545
Rh0 Sb7 2.658654 1_554
Rh1 Sb3 2.655616 1_455
Rh1 Sb2 2.655616 1_554
Rh1 Sb10 2.657623 1_555
Rh1 Sb11 2.657623 1_454
Rh1 Sb5 2.658669 1_555
Rh1 Sb4 2.658669 1_454
