# generated using pymatgen
data_Ba4Sr4Si3Ge
_symmetry_space_group_name_H-M   'P 1'
_cell_length_a   5.26494906
_cell_length_b   8.63043874
_cell_length_c   9.64846498
_cell_angle_alpha   90.00476365
_cell_angle_beta   90.00000000
_cell_angle_gamma   90.00000000
_symmetry_Int_Tables_number   1
_chemical_formula_structural   Ba4Sr4Si3Ge
_chemical_formula_sum   'Ba4 Sr4 Si3 Ge1'
_cell_volume   438.41486507
_cell_formula_units_Z   1
loop_
 _symmetry_equiv_pos_site_id
 _symmetry_equiv_pos_as_xyz
  1  'x, y, z'
loop_
 _atom_site_type_symbol
 _atom_site_label
 _atom_site_symmetry_multiplicity
 _atom_site_fract_x
 _atom_site_fract_y
 _atom_site_fract_z
 _atom_site_occupancy
  Ba  Ba0  1  0.25000000  0.52602646  0.17562404  1
  Ba  Ba1  1  0.25000000  0.02649697  0.32479636  1
  Ba  Ba2  1  0.75000000  0.97389364  0.67455561  1
  Ba  Ba3  1  0.75000000  0.47330953  0.82438204  1
  Sr  Sr0  1  0.75000000  0.35565039  0.42190280  1
  Sr  Sr1  1  0.25000000  0.14473756  0.92200107  1
  Sr  Sr2  1  0.75000000  0.85565297  0.07841957  1
  Sr  Sr3  1  0.25000000  0.64448515  0.57789866  1
  Si  Si0  1  0.25000000  0.26787356  0.60379521  1
  Si  Si1  1  0.75000000  0.23218650  0.10407185  1
  Si  Si2  1  0.75000000  0.73209810  0.39612923  1
  Ge  Ge0  1  0.25000000  0.76758717  0.89642455  1
loop_
_geom_bond_atom_site_label_1
_geom_bond_atom_site_label_2
_geom_bond_distance
_geom_bond_site_symmetry_2
Ba0 Ge0 3.406469 1_554
Ba0 Si1 3.719862 1_555
Ba0 Si1 3.719862 1_455
Ba0 Si2 3.823444 1_555
Ba0 Si2 3.823444 1_455
Ba1 Si0 3.403691 1_555
Ba1 Si2 3.722838 1_445
Ba1 Si2 3.722838 1_545
Ba1 Si1 3.823254 1_555
Ba1 Si1 3.823254 1_455
Ba2 Si2 3.401542 1_555
Ba2 Si0 3.719353 1_565
Ba2 Si0 3.719353 1_665
Ba2 Ge0 3.831888 1_555
Ba2 Ge0 3.831888 1_655
Ba3 Si1 3.407903 1_556
Ba3 Ge0 3.723318 1_555
Ba3 Ge0 3.723318 1_655
Ba3 Si0 3.821334 1_655
Ba3 Si0 3.821334 1_555
Si0 Sr1 3.249004 1_555
Si0 Sr0 3.253305 1_455
Si0 Sr0 3.253305 1_555
Si0 Sr3 3.259934 1_555
Si1 Sr0 3.246347 1_555
Si1 Sr1 3.253508 1_554
Si1 Sr1 3.253508 1_654
Si1 Sr2 3.259041 1_545
Si2 Sr2 3.245666 1_555
Si2 Sr3 3.252336 1_555
Si2 Sr3 3.252336 1_655
Si2 Sr0 3.258433 1_555
Ge0 Sr3 3.251659 1_555
Ge0 Sr2 3.254353 1_556
Ge0 Sr2 3.254353 1_456
Ge0 Sr1 3.264294 1_565
