# generated using pymatgen
data_K13Rb7(GeP3)4
_symmetry_space_group_name_H-M   'P 1'
_cell_length_a   5.22348237
_cell_length_b   14.52603106
_cell_length_c   15.23432466
_cell_angle_alpha   89.95413966
_cell_angle_beta   90.00000000
_cell_angle_gamma   90.00000000
_symmetry_Int_Tables_number   1
_chemical_formula_structural   K13Rb7(GeP3)4
_chemical_formula_sum   'K13 Rb7 Ge4 P12'
_cell_volume   1155.92636308
_cell_formula_units_Z   1
loop_
 _symmetry_equiv_pos_site_id
 _symmetry_equiv_pos_as_xyz
  1  'x, y, z'
loop_
 _atom_site_type_symbol
 _atom_site_label
 _atom_site_symmetry_multiplicity
 _atom_site_fract_x
 _atom_site_fract_y
 _atom_site_fract_z
 _atom_site_occupancy
  K  K0  1  0.25000000  0.37151739  0.01486198  1
  K  K1  1  0.25000000  0.42647801  0.56731097  1
  K  K2  1  0.75000000  0.57273249  0.43398788  1
  K  K3  1  0.75000000  0.92736504  0.93415270  1
  K  K4  1  0.25000000  0.07353817  0.06580017  1
  K  K5  1  0.25000000  0.82197009  0.08928307  1
  K  K6  1  0.75000000  0.17799776  0.91156809  1
  K  K7  1  0.75000000  0.32257528  0.41216098  1
  K  K8  1  0.25000000  0.67680336  0.58793310  1
  K  K9  1  0.25000000  0.23445150  0.26112667  1
  K  K10  1  0.75000000  0.76708420  0.73726702  1
  K  K11  1  0.75000000  0.73177184  0.23621208  1
  K  K12  1  0.25000000  0.26672311  0.76457032  1
  Rb  Rb0  1  0.25000000  0.94673609  0.30957888  1
  Rb  Rb1  1  0.75000000  0.05336471  0.69032216  1
  Rb  Rb2  1  0.75000000  0.44459852  0.18957808  1
  Rb  Rb3  1  0.25000000  0.55466032  0.81012612  1
  Rb  Rb4  1  0.25000000  0.13301904  0.51971931  1
  Rb  Rb5  1  0.75000000  0.86664268  0.47936239  1
  Rb  Rb6  1  0.75000000  0.63290454  0.98009814  1
  Ge  Ge0  1  0.25000000  0.58525932  0.28470452  1
  Ge  Ge1  1  0.75000000  0.41351632  0.71682352  1
  Ge  Ge2  1  0.75000000  0.08709851  0.21455609  1
  Ge  Ge3  1  0.25000000  0.91329568  0.78506975  1
  P  P0  1  0.25000000  0.59827528  0.13606901  1
  P  P1  1  0.75000000  0.40005929  0.86573481  1
  P  P2  1  0.75000000  0.10127107  0.36290518  1
  P  P3  1  0.25000000  0.89872409  0.63673547  1
  P  P4  1  0.25000000  0.44511274  0.34933671  1
  P  P5  1  0.75000000  0.55426435  0.65305757  1
  P  P6  1  0.75000000  0.94553449  0.15237379  1
  P  P7  1  0.25000000  0.05449192  0.84756150  1
  P  P8  1  0.25000000  0.71247683  0.37153035  1
  P  P9  1  0.75000000  0.28714113  0.62913982  1
  P  P10  1  0.75000000  0.21317831  0.12587563  1
  P  P11  1  0.25000000  0.78736751  0.87350414  1
loop_
_geom_bond_atom_site_label_1
_geom_bond_atom_site_label_2
_geom_bond_distance
_geom_bond_site_symmetry_2
K0 P1 3.486099 1_454
K0 P1 3.486099 1_554
K0 P0 3.777440 1_555
K1 P4 3.331489 1_555
K1 P9 3.435401 1_555
K1 P9 3.435401 1_455
K1 P5 3.460788 1_455
K1 P5 3.460788 1_555
K2 P5 3.347929 1_555
K2 P8 3.441521 1_655
K2 P8 3.441521 1_555
K2 P4 3.453216 1_555
K2 P4 3.453216 1_655
K3 P6 3.335122 1_556
K3 P11 3.437067 1_655
K3 P11 3.437067 1_555
K3 P7 3.459420 1_565
K3 P7 3.459420 1_665
K4 P7 3.336431 1_554
K4 P10 3.431654 1_555
K4 P10 3.431654 1_455
K4 P6 3.466129 1_545
K4 P6 3.466129 1_445
K5 P6 3.312011 1_455
K5 P6 3.312011 1_555
K5 P11 3.325850 1_554
K5 P0 3.326093 1_555
K6 P1 3.299833 1_555
K6 P10 3.304988 1_556
K6 P7 3.315633 1_655
K6 P7 3.315633 1_555
K7 P2 3.301673 1_555
K7 P4 3.301941 1_655
K7 P4 3.301941 1_555
K7 P9 3.344953 1_555
K8 P3 3.308831 1_555
K8 P5 3.312265 1_455
K8 P5 3.312265 1_555
K8 P8 3.336817 1_555
K9 P10 3.341136 1_555
K9 P10 3.341136 1_455
K9 P4 3.343124 1_555
K9 P2 3.600435 1_555
K9 P2 3.600435 1_455
K10 P5 3.347991 1_555
K10 P11 3.349119 1_655
K10 P11 3.349119 1_555
K10 P3 3.580310 1_655
K10 P3 3.580310 1_555
K11 P8 3.338942 1_655
K11 P8 3.338942 1_555
K11 P6 3.356595 1_555
K11 P0 3.593581 1_655
K11 P0 3.593581 1_555
K12 P7 3.331123 1_555
K12 P9 3.341398 1_455
K12 P9 3.341398 1_555
K12 P1 3.598966 1_555
K12 P1 3.598966 1_455
Ge0 P4 2.260676 1_555
Ge0 P0 2.272091 1_555
Ge0 P8 2.273436 1_555
Ge0 K11 3.448747 1_555
Ge0 K11 3.448747 1_455
Ge0 K2 3.467819 1_455
Ge0 K2 3.467819 1_555
Ge0 Rb2 3.619519 1_455
Ge0 Rb2 3.619519 1_555
Ge1 P5 2.262857 1_555
Ge1 P9 2.271166 1_555
Ge1 P1 2.276813 1_555
Ge1 K12 3.448856 1_555
Ge1 K12 3.448856 1_655
Ge1 K1 3.470443 1_555
Ge1 K1 3.470443 1_655
Ge1 Rb3 3.612453 1_655
Ge1 Rb3 3.612453 1_555
Ge2 P6 2.264760 1_545
Ge2 P2 2.269520 1_555
Ge2 P10 2.274945 1_555
Ge2 K9 3.450872 1_655
Ge2 K9 3.450872 1_555
Ge2 K4 3.463575 1_655
Ge2 K4 3.463575 1_555
Ge2 Rb0 3.615133 1_545
Ge2 Rb0 3.615133 1_645
Ge3 P7 2.261892 1_565
Ge3 P3 2.269833 1_555
Ge3 P11 2.270950 1_555
Ge3 K10 3.444538 1_455
Ge3 K10 3.444538 1_555
Ge3 K3 3.467269 1_555
Ge3 K3 3.467269 1_455
Ge3 Rb1 3.611056 1_565
Ge3 Rb1 3.611056 1_465
P0 Rb2 3.530724 1_555
P0 Rb2 3.530724 1_455
P0 Rb6 3.566261 1_454
P0 Rb6 3.566261 1_554
P1 Rb3 3.546713 1_555
P1 Rb3 3.546713 1_655
P1 Rb6 3.805908 1_555
P2 Rb0 3.538803 1_545
P2 Rb0 3.538803 1_645
P2 Rb4 3.569699 1_555
P2 Rb4 3.569699 1_655
P2 Rb5 3.841077 1_545
P3 Rb1 3.540691 1_565
P3 Rb1 3.540691 1_465
P3 Rb5 3.576035 1_455
P3 Rb5 3.576035 1_555
P3 Rb4 3.840721 1_565
P4 Rb2 3.569976 1_555
P4 Rb2 3.569976 1_455
P5 Rb3 3.542160 1_555
P5 Rb3 3.542160 1_655
P6 Rb0 3.543610 1_555
P6 Rb0 3.543610 1_655
P7 Rb1 3.543957 1_455
P7 Rb1 3.543957 1_555
P8 Rb0 3.530586 1_555
P8 Rb5 3.813226 1_455
P8 Rb5 3.813226 1_555
P9 Rb1 3.520716 1_555
P9 Rb4 3.823353 1_555
P9 Rb4 3.823353 1_655
P10 Rb2 3.499642 1_555
P11 Rb3 3.516243 1_555
P11 Rb6 3.806141 1_455
P11 Rb6 3.806141 1_555
