# generated using pymatgen
data_Y4Si4TcOs
_symmetry_space_group_name_H-M   'P 1'
_cell_length_a   5.76316188
_cell_length_b   5.76316149
_cell_length_c   10.04784666
_cell_angle_alpha   116.61217245
_cell_angle_beta   116.61218247
_cell_angle_gamma   43.03957174
_symmetry_Int_Tables_number   1
_chemical_formula_structural   Y4Si4TcOs
_chemical_formula_sum   'Y4 Si4 Tc1 Os1'
_cell_volume   199.62754842
_cell_formula_units_Z   1
loop_
 _symmetry_equiv_pos_site_id
 _symmetry_equiv_pos_as_xyz
  1  'x, y, z'
loop_
 _atom_site_type_symbol
 _atom_site_label
 _atom_site_symmetry_multiplicity
 _atom_site_fract_x
 _atom_site_fract_y
 _atom_site_fract_z
 _atom_site_occupancy
  Y  Y0  1  0.18491887  0.18491887  0.10863150  1
  Y  Y1  1  0.99698462  0.99698462  0.32378080  1
  Y  Y2  1  0.00617608  0.00617608  0.67731928  1
  Y  Y3  1  0.81275008  0.81275008  0.88842365  1
  Si  Si0  1  0.49900341  0.49900341  0.12245820  1
  Si  Si1  1  0.35279367  0.35279367  0.44010866  1
  Si  Si2  1  0.64827258  0.64827258  0.56306425  1
  Si  Si3  1  0.49963501  0.49963501  0.87431661  1
  Tc  Tc0  1  0.72861170  0.72861170  0.37267148  1
  Os  Os0  1  0.27085597  0.27085597  0.62922656  1
loop_
_geom_bond_atom_site_label_1
_geom_bond_atom_site_label_2
_geom_bond_distance
_geom_bond_site_symmetry_2
Si0 Si3 2.496557 1_554
Si0 Tc0 2.534049 1_555
Si0 Y1 2.933229 1_545
Si0 Y1 2.933230 1_455
Si0 Y0 2.954567 1_565
Si0 Y0 2.954567 1_655
Si0 Y3 3.076502 1_454
Si0 Y3 3.076503 1_544
Si0 Y0 3.303225 1_555
Si1 Tc0 2.415071 1_455
Si1 Tc0 2.415071 1_545
Si1 Si2 2.792001 1_555
Si1 Y0 2.925687 1_555
Si1 Y2 3.013301 1_655
Si1 Y2 3.013302 1_565
Si1 Y1 3.156953 1_455
Si1 Y1 3.156953 1_545
Si1 Y1 3.409980 1_445
Si2 Tc0 2.447226 1_555
Si2 Y3 2.871477 1_555
Si2 Y1 3.020818 1_455
Si2 Y1 3.020819 1_545
Si2 Y2 3.129427 1_655
Si2 Y2 3.129427 1_565
Si2 Y2 3.435590 1_665
Si3 Y2 2.919910 1_565
Si3 Y2 2.919911 1_655
Si3 Y3 2.962876 1_545
Si3 Y3 2.962877 1_455
Si3 Y0 3.074875 1_656
Si3 Y0 3.074876 1_566
Si3 Y3 3.291574 1_555
Tc0 Y2 3.074825 1_665
Tc0 Y1 3.115176 1_545
Tc0 Y1 3.115176 1_455
Tc0 Y1 3.143881 1_555
Tc0 Y0 3.245043 1_565
Tc0 Y0 3.245043 1_655
Os0 Si2 2.407783 1_455
Os0 Si2 2.407783 1_545
Os0 Si1 2.447578 1_555
Os0 Si3 2.502928 1_555
Os0 Y1 3.060001 1_445
Os0 Y2 3.099868 1_555
Os0 Y2 3.145717 1_565
Os0 Y2 3.145717 1_655
Os0 Y3 3.213581 1_545
Os0 Y3 3.213582 1_455
