# generated using pymatgen
data_MgPt6W
_symmetry_space_group_name_H-M   'P 1'
_cell_length_a   5.55790919
_cell_length_b   5.55790966
_cell_length_c   5.55790950
_cell_angle_alpha   59.99999516
_cell_angle_beta   59.99999233
_cell_angle_gamma   59.99999771
_symmetry_Int_Tables_number   1
_chemical_formula_structural   MgPt6W
_chemical_formula_sum   'Mg1 Pt6 W1'
_cell_volume   121.40018650
_cell_formula_units_Z   1
loop_
 _symmetry_equiv_pos_site_id
 _symmetry_equiv_pos_as_xyz
  1  'x, y, z'
loop_
 _atom_site_type_symbol
 _atom_site_label
 _atom_site_symmetry_multiplicity
 _atom_site_fract_x
 _atom_site_fract_y
 _atom_site_fract_z
 _atom_site_occupancy
  Mg  Mg0  1  0.00000000  0.00000000  0.00000000  1
  Pt  Pt0  1  0.50000000  0.00000000  0.00000000  1
  Pt  Pt1  1  0.00000000  0.50000000  0.50000000  1
  Pt  Pt2  1  0.00000000  0.50000000  0.00000000  1
  Pt  Pt3  1  0.50000000  0.00000000  0.50000000  1
  Pt  Pt4  1  0.00000000  0.00000000  0.50000000  1
  Pt  Pt5  1  0.50000000  0.50000000  0.00000000  1
  W  W0  1  0.50000000  0.50000000  0.50000000  1
loop_
_geom_bond_atom_site_label_1
_geom_bond_atom_site_label_2
_geom_bond_distance
_geom_bond_site_symmetry_2
Mg0 Pt3 2.778954 1_554
Mg0 Pt3 2.778954 1_455
Mg0 Pt1 2.778955 1_554
Mg0 Pt1 2.778955 1_545
Mg0 Pt0 2.778955 1_455
Mg0 Pt0 2.778955 1_555
Mg0 Pt5 2.778955 1_455
Mg0 Pt5 2.778955 1_545
Mg0 Pt4 2.778955 1_555
Mg0 Pt4 2.778955 1_554
Mg0 Pt2 2.778955 1_545
Mg0 Pt2 2.778955 1_555
Pt0 Pt4 2.778954 1_555
Pt0 Pt4 2.778954 1_654
Pt0 W0 2.778955 1_554
Pt0 W0 2.778955 1_545
Pt0 Pt2 2.778955 1_645
Pt0 Pt2 2.778955 1_555
Pt0 Pt3 2.778955 1_554
Pt0 Pt3 2.778955 1_555
Pt0 Pt5 2.778955 1_555
Pt0 Pt5 2.778955 1_545
Pt1 Pt5 2.778954 1_456
Pt1 Pt5 2.778954 1_555
Pt1 W0 2.778955 1_455
Pt1 W0 2.778955 1_555
Pt1 Pt3 2.778955 1_465
Pt1 Pt3 2.778955 1_555
Pt1 Pt2 2.778955 1_555
Pt1 Pt2 2.778955 1_556
Pt1 Pt4 2.778955 1_555
Pt1 Pt4 2.778955 1_565
Pt2 W0 2.778954 1_455
Pt2 W0 2.778954 1_554
Pt2 Pt4 2.778955 1_564
Pt2 Pt4 2.778955 1_555
Pt2 Pt5 2.778955 1_555
Pt2 Pt5 2.778955 1_455
Pt3 Pt5 2.778955 1_555
Pt3 Pt5 2.778955 1_546
Pt3 Pt4 2.778955 1_655
Pt3 Pt4 2.778955 1_555
Pt3 W0 2.778955 1_555
Pt3 W0 2.778955 1_545
Pt4 W0 2.778955 1_455
Pt4 W0 2.778955 1_545
Pt5 W0 2.778955 1_554
Pt5 W0 2.778955 1_555
