# generated using pymatgen
data_MoRuCl6
_symmetry_space_group_name_H-M   'P 1'
_cell_length_a   5.77695915
_cell_length_b   6.41477242
_cell_length_c   11.04663239
_cell_angle_alpha   90.00000000
_cell_angle_beta   90.00000000
_cell_angle_gamma   90.00000000
_symmetry_Int_Tables_number   1
_chemical_formula_structural   MoRuCl6
_chemical_formula_sum   'Mo2 Ru2 Cl12'
_cell_volume   409.36475760
_cell_formula_units_Z   2
loop_
 _symmetry_equiv_pos_site_id
 _symmetry_equiv_pos_as_xyz
  1  'x, y, z'
loop_
 _atom_site_type_symbol
 _atom_site_label
 _atom_site_symmetry_multiplicity
 _atom_site_fract_x
 _atom_site_fract_y
 _atom_site_fract_z
 _atom_site_occupancy
  Mo  Mo0  1  0.76994097  0.74462297  0.00000000  1
  Mo  Mo1  1  0.26994097  0.25537703  0.50000000  1
  Ru  Ru0  1  0.23335294  0.74466468  0.00000000  1
  Ru  Ru1  1  0.73335294  0.25533532  0.50000000  1
  Cl  Cl0  1  0.50450311  0.56208420  0.50000000  1
  Cl  Cl1  1  0.99434461  0.40034227  0.35426364  1
  Cl  Cl2  1  0.49454942  0.03449530  0.00000000  1
  Cl  Cl3  1  0.00448167  0.89807122  0.15428776  1
  Cl  Cl4  1  0.99434461  0.40034227  0.64573636  1
  Cl  Cl5  1  0.00448167  0.89807122  0.84571224  1
  Cl  Cl6  1  0.49434461  0.59965773  0.14573636  1
  Cl  Cl7  1  0.50448167  0.10192878  0.65428776  1
  Cl  Cl8  1  0.00450311  0.43791580  0.00000000  1
  Cl  Cl9  1  0.99454942  0.96550470  0.50000000  1
  Cl  Cl10  1  0.49434461  0.59965773  0.85426364  1
  Cl  Cl11  1  0.50448167  0.10192878  0.34571224  1
loop_
_geom_bond_atom_site_label_1
_geom_bond_atom_site_label_2
_geom_bond_distance
_geom_bond_site_symmetry_2
Cl0 Ru1 2.370606 1_555
Cl0 Mo1 2.388946 1_555
Cl1 Ru1 2.393802 1_555
Cl1 Mo1 2.447718 1_655
Cl2 Ru0 2.394464 1_545
Cl2 Mo0 2.447173 1_545
Cl3 Ru0 2.370948 1_555
Cl3 Mo0 2.389477 1_455
Cl4 Ru1 2.393802 1_555
Cl4 Mo1 2.447718 1_655
Cl5 Ru0 2.370948 1_556
Cl5 Mo0 2.389477 1_456
Cl6 Ru0 2.393802 1_555
Cl6 Mo0 2.447718 1_555
Cl7 Ru1 2.370948 1_555
Cl7 Mo1 2.389477 1_555
Cl8 Ru0 2.370606 1_555
Cl8 Mo0 2.388946 1_455
Cl9 Ru1 2.394464 1_565
Cl9 Mo1 2.447173 1_665
Cl10 Ru0 2.393802 1_556
Cl10 Mo0 2.447718 1_556
Cl11 Ru1 2.370948 1_555
Cl11 Mo1 2.389477 1_555
