# generated using pymatgen
data_CsRb2LiPb4
_symmetry_space_group_name_H-M   'P 1'
_cell_length_a   9.02678389
_cell_length_b   9.02678421
_cell_length_c   10.76238006
_cell_angle_alpha   90.00000000
_cell_angle_beta   90.00000000
_cell_angle_gamma   132.24797025
_symmetry_Int_Tables_number   1
_chemical_formula_structural   CsRb2LiPb4
_chemical_formula_sum   'Cs2 Rb4 Li2 Pb8'
_cell_volume   649.15457385
_cell_formula_units_Z   2
loop_
 _symmetry_equiv_pos_site_id
 _symmetry_equiv_pos_as_xyz
  1  'x, y, z'
loop_
 _atom_site_type_symbol
 _atom_site_label
 _atom_site_symmetry_multiplicity
 _atom_site_fract_x
 _atom_site_fract_y
 _atom_site_fract_z
 _atom_site_occupancy
  Cs  Cs0  1  0.22380205  0.77619795  0.25000000  1
  Cs  Cs1  1  0.77619795  0.22380205  0.75000000  1
  Rb  Rb0  1  0.61392955  0.38607045  0.04130804  1
  Rb  Rb1  1  0.38607045  0.61392955  0.95869196  1
  Rb  Rb2  1  0.38607045  0.61392955  0.54130804  1
  Rb  Rb3  1  0.61392955  0.38607045  0.45869196  1
  Li  Li0  1  0.00000000  0.00000000  0.00000000  1
  Li  Li1  1  0.00000000  0.00000000  0.50000000  1
  Pb  Pb0  1  0.18477994  0.24823529  0.25000000  1
  Pb  Pb1  1  0.81522006  0.75176471  0.75000000  1
  Pb  Pb2  1  0.75176471  0.81522006  0.25000000  1
  Pb  Pb3  1  0.24823529  0.18477994  0.75000000  1
  Pb  Pb4  1  0.83524288  0.16475712  0.10845480  1
  Pb  Pb5  1  0.16475712  0.83524288  0.89154520  1
  Pb  Pb6  1  0.16475712  0.83524288  0.60845480  1
  Pb  Pb7  1  0.83524288  0.16475712  0.39154520  1
loop_
_geom_bond_atom_site_label_1
_geom_bond_atom_site_label_2
_geom_bond_distance
_geom_bond_site_symmetry_2
Cs0 Pb6 3.979066 1_555
Cs0 Pb5 3.979066 1_554
Cs0 Pb7 4.365153 1_565
Cs0 Pb4 4.365153 1_565
Cs0 Pb7 4.365153 1_455
Cs0 Pb4 4.365153 1_455
Cs1 Pb4 3.979066 1_556
Cs1 Pb7 3.979066 1_555
Cs1 Pb5 4.365153 1_545
Cs1 Pb6 4.365153 1_545
Cs1 Pb5 4.365153 1_655
Cs1 Pb6 4.365153 1_655
Li0 Pb4 2.959788 1_455
Li0 Pb5 2.959788 1_544
Li0 Pb3 3.164913 1_554
Li0 Pb2 3.164913 1_445
Li0 Pb0 3.164913 1_555
Li0 Pb1 3.164913 1_444
Li1 Pb6 2.959788 1_545
Li1 Pb7 2.959788 1_455
Li1 Pb3 3.164913 1_555
Li1 Pb2 3.164913 1_445
Li1 Pb0 3.164913 1_555
Li1 Pb1 3.164913 1_445
Pb0 Pb7 3.105906 1_455
Pb0 Pb4 3.105906 1_455
Pb0 Rb3 3.888204 1_555
Pb0 Rb0 3.888204 1_555
Pb0 Rb2 3.995279 1_555
Pb0 Rb1 3.995279 1_554
Pb1 Pb5 3.105906 1_655
Pb1 Pb6 3.105906 1_655
Pb1 Rb1 3.888204 1_555
Pb1 Rb2 3.888204 1_555
Pb1 Rb0 3.995279 1_556
Pb1 Rb3 3.995279 1_555
Pb2 Pb7 3.105906 1_565
Pb2 Pb4 3.105906 1_565
Pb2 Rb3 3.888204 1_555
Pb2 Rb0 3.888204 1_555
Pb2 Rb2 3.995279 1_555
Pb2 Rb1 3.995279 1_554
Pb3 Pb5 3.105906 1_545
Pb3 Pb6 3.105906 1_545
Pb3 Rb1 3.888204 1_555
Pb3 Rb2 3.888204 1_555
Pb3 Rb0 3.995279 1_556
Pb3 Rb3 3.995279 1_555
Pb4 Pb7 3.046726 1_555
Pb4 Rb0 3.724358 1_555
Pb4 Rb1 4.080600 1_654
Pb4 Rb1 4.080600 1_544
Pb5 Pb6 3.046726 1_555
Pb5 Rb1 3.724358 1_555
Pb5 Rb0 4.080600 1_456
Pb5 Rb0 4.080600 1_566
Pb6 Rb2 3.724358 1_555
Pb6 Rb3 4.080600 1_455
Pb6 Rb3 4.080600 1_565
Pb7 Rb3 3.724358 1_555
Pb7 Rb2 4.080600 1_655
Pb7 Rb2 4.080600 1_545
