# generated using pymatgen
data_CsTa(CuSe2)2
_symmetry_space_group_name_H-M   'P 1'
_cell_length_a   10.47503644
_cell_length_b   10.47503537
_cell_length_c   7.87443047
_cell_angle_alpha   90.00000000
_cell_angle_beta   90.00000000
_cell_angle_gamma   148.26025517
_symmetry_Int_Tables_number   1
_chemical_formula_structural   CsTa(CuSe2)2
_chemical_formula_sum   'Cs2 Ta2 Cu4 Se8'
_cell_volume   454.53453741
_cell_formula_units_Z   2
loop_
 _symmetry_equiv_pos_site_id
 _symmetry_equiv_pos_as_xyz
  1  'x, y, z'
loop_
 _atom_site_type_symbol
 _atom_site_label
 _atom_site_symmetry_multiplicity
 _atom_site_fract_x
 _atom_site_fract_y
 _atom_site_fract_z
 _atom_site_occupancy
  Cs  Cs0  1  0.17995257  0.81188401  0.75000000  1
  Cs  Cs1  1  0.81188401  0.17995257  0.25000000  1
  Ta  Ta0  1  0.64533903  0.84999171  0.75000000  1
  Ta  Ta1  1  0.84999171  0.64533903  0.25000000  1
  Cu  Cu0  1  0.73655903  0.73655903  0.50000000  1
  Cu  Cu1  1  0.73655903  0.73655903  0.00000000  1
  Cu  Cu2  1  0.34796768  0.14835746  0.25000000  1
  Cu  Cu3  1  0.14835746  0.34796768  0.75000000  1
  Se  Se0  1  0.60175717  0.40053258  0.99989687  1
  Se  Se1  1  0.40053258  0.60175817  0.49989687  1
  Se  Se2  1  0.98959640  0.99442170  0.75000000  1
  Se  Se3  1  0.40053258  0.60175817  0.00010313  1
  Se  Se4  1  0.19700761  0.80114328  0.25000000  1
  Se  Se5  1  0.80114328  0.19700761  0.75000000  1
  Se  Se6  1  0.99442170  0.98959640  0.25000000  1
  Se  Se7  1  0.60175717  0.40053258  0.50010313  1
loop_
_geom_bond_atom_site_label_1
_geom_bond_atom_site_label_2
_geom_bond_distance
_geom_bond_site_symmetry_2
Cs0 Se5 3.709346 1_455
Cs0 Se5 3.737176 1_565
Cs0 Se2 3.757264 1_455
Cs0 Se0 3.838308 1_455
Cs0 Se7 3.838308 1_455
Cs0 Se0 3.882741 1_565
Cs0 Se7 3.882741 1_565
Cs0 Se4 3.947205 1_556
Cs0 Se4 3.947205 1_555
Cs1 Se4 3.709346 1_545
Cs1 Se4 3.737176 1_655
Cs1 Se6 3.757264 1_545
Cs1 Se1 3.838301 1_545
Cs1 Se3 3.838301 1_545
Cs1 Se1 3.882740 1_655
Cs1 Se3 3.882740 1_655
Cs1 Se5 3.947205 1_555
Cs1 Se5 3.947205 1_554
Cu0 Se7 2.435079 1_555
Cu0 Se1 2.435087 1_555
Cu0 Se2 2.453454 1_555
Cu0 Se6 2.453454 1_555
Cu1 Se0 2.435079 1_554
Cu1 Se3 2.435087 1_555
Cu1 Se2 2.453454 1_554
Cu1 Se6 2.453454 1_555
Cu2 Se4 2.438536 1_545
Cu2 Se7 2.445272 1_555
Cu2 Se0 2.445272 1_554
Cu2 Se6 2.450573 1_445
Cu3 Se5 2.438536 1_455
Cu3 Se3 2.445274 1_556
Cu3 Se1 2.445274 1_555
Cu3 Se2 2.450573 1_445
Se0 Ta1 2.423706 1_556
Se1 Ta0 2.423705 1_555
Se2 Ta0 2.452208 1_555
Se3 Ta0 2.423705 1_554
Se4 Ta1 2.405466 1_455
Se5 Ta0 2.405466 1_545
Se6 Ta1 2.452208 1_555
Se7 Ta1 2.423706 1_555
