# generated using pymatgen
data_Ba4Fe2PtO10
_symmetry_space_group_name_H-M   'P 1'
_cell_length_a   7.22095661
_cell_length_b   7.22095663
_cell_length_c   13.11809365
_cell_angle_alpha   90.00000000
_cell_angle_beta   90.00000000
_cell_angle_gamma   132.94171623
_symmetry_Int_Tables_number   1
_chemical_formula_structural   Ba4Fe2PtO10
_chemical_formula_sum   'Ba8 Fe4 Pt2 O20'
_cell_volume   500.72492760
_cell_formula_units_Z   2
loop_
 _symmetry_equiv_pos_site_id
 _symmetry_equiv_pos_as_xyz
  1  'x, y, z'
loop_
 _atom_site_type_symbol
 _atom_site_label
 _atom_site_symmetry_multiplicity
 _atom_site_fract_x
 _atom_site_fract_y
 _atom_site_fract_z
 _atom_site_occupancy
  Ba  Ba0  1  0.46893795  0.53106205  0.13979800  1
  Ba  Ba1  1  0.23884289  0.76115711  0.88924316  1
  Ba  Ba2  1  0.73884289  0.26115711  0.61075684  1
  Ba  Ba3  1  0.03106205  0.96893795  0.63979800  1
  Ba  Ba4  1  0.96893795  0.03106205  0.36020200  1
  Ba  Ba5  1  0.26115711  0.73884289  0.38924316  1
  Ba  Ba6  1  0.53106205  0.46893795  0.86020200  1
  Ba  Ba7  1  0.76115711  0.23884289  0.11075684  1
  Fe  Fe0  1  0.13244430  0.86755570  0.15666763  1
  Fe  Fe1  1  0.36755570  0.63244430  0.65666763  1
  Fe  Fe2  1  0.86755570  0.13244430  0.84333237  1
  Fe  Fe3  1  0.63244430  0.36755570  0.34333237  1
  Pt  Pt0  1  0.00000000  0.00000000  0.00000000  1
  Pt  Pt1  1  0.50000000  0.50000000  0.50000000  1
  O  O0  1  0.52553865  0.47446135  0.65216045  1
  O  O1  1  0.73237724  0.26762276  0.84513632  1
  O  O2  1  0.38411537  0.16340568  0.46271249  1
  O  O3  1  0.88411537  0.66340568  0.03728751  1
  O  O4  1  0.62504742  0.87495258  0.75000000  1
  O  O5  1  0.12504742  0.37495258  0.75000000  1
  O  O6  1  0.26762276  0.73237724  0.15486368  1
  O  O7  1  0.02553865  0.97446135  0.84783955  1
  O  O8  1  0.37495258  0.12504742  0.25000000  1
  O  O9  1  0.83659432  0.61588463  0.46271249  1
  O  O10  1  0.76762276  0.23237724  0.34513632  1
  O  O11  1  0.47446135  0.52553865  0.34783955  1
  O  O12  1  0.87495258  0.62504742  0.25000000  1
  O  O13  1  0.11588463  0.33659432  0.96271249  1
  O  O14  1  0.61588463  0.83659432  0.53728751  1
  O  O15  1  0.23237724  0.76762276  0.65486368  1
  O  O16  1  0.66340568  0.88411537  0.96271249  1
  O  O17  1  0.16340568  0.38411537  0.53728751  1
  O  O18  1  0.97446135  0.02553865  0.15216045  1
  O  O19  1  0.33659432  0.11588463  0.03728751  1
loop_
_geom_bond_atom_site_label_1
_geom_bond_atom_site_label_2
_geom_bond_distance
_geom_bond_site_symmetry_2
Ba0 O6 2.672965 1_555
Ba0 O11 2.730088 1_555
Ba0 O3 2.793898 1_555
Ba0 O19 2.793898 1_555
Ba0 O18 2.888202 1_565
Ba0 O18 2.888202 1_455
Ba0 O12 2.904305 1_555
Ba0 O8 2.904305 1_555
Ba0 O13 2.998329 1_554
Ba0 O16 2.998329 1_554
Ba1 O16 2.721627 1_555
Ba1 O13 2.721627 1_555
Ba1 O7 2.876147 1_555
Ba1 O3 2.892664 1_456
Ba1 O19 2.892664 1_566
Ba1 O1 2.941456 1_455
Ba1 O1 2.941456 1_565
Ba1 O4 2.943916 1_555
Ba1 O5 2.943916 1_555
Ba1 O15 3.075804 1_555
Ba2 O17 2.721627 1_655
Ba2 O14 2.721627 1_545
Ba2 O0 2.876147 1_555
Ba2 O2 2.892664 1_555
Ba2 O9 2.892664 1_555
Ba2 O15 2.941456 1_545
Ba2 O15 2.941456 1_655
Ba2 O5 2.943916 1_655
Ba2 O4 2.943916 1_545
Ba2 O1 3.075804 1_555
Ba3 O15 2.672965 1_555
Ba3 O7 2.730088 1_555
Ba3 O14 2.793898 1_455
Ba3 O17 2.793898 1_565
Ba3 O0 2.888202 1_455
Ba3 O0 2.888202 1_565
Ba3 O4 2.904305 1_455
Ba3 O5 2.904305 1_565
Ba3 O2 2.998329 1_565
Ba3 O9 2.998329 1_455
Ba4 O10 2.672965 1_555
Ba4 O18 2.730088 1_555
Ba4 O2 2.793898 1_655
Ba4 O9 2.793898 1_545
Ba4 O11 2.888202 1_655
Ba4 O11 2.888202 1_545
Ba4 O8 2.904305 1_655
Ba4 O12 2.904305 1_545
Ba4 O14 2.998329 1_545
Ba4 O17 2.998329 1_655
Ba5 O9 2.721627 1_455
Ba5 O2 2.721627 1_565
Ba5 O11 2.876147 1_555
Ba5 O14 2.892664 1_555
Ba5 O17 2.892664 1_555
Ba5 O10 2.941456 1_565
Ba5 O10 2.941456 1_455
Ba5 O12 2.943916 1_455
Ba5 O8 2.943916 1_565
Ba5 O6 3.075804 1_555
Ba6 O1 2.672965 1_555
Ba6 O0 2.730088 1_555
Ba6 O13 2.793898 1_555
Ba6 O16 2.793898 1_555
Ba6 O7 2.888202 1_545
Ba6 O7 2.888202 1_655
Ba6 O5 2.904305 1_555
Ba6 O4 2.904305 1_555
Ba6 O3 2.998329 1_556
Ba6 O19 2.998329 1_556
Ba7 O19 2.721627 1_555
Ba7 O3 2.721627 1_555
Ba7 O18 2.876147 1_555
Ba7 O13 2.892664 1_654
Ba7 O16 2.892664 1_544
Ba7 O6 2.941456 1_655
Ba7 O6 2.941456 1_545
Ba7 O8 2.943916 1_555
Ba7 O12 2.943916 1_555
Ba7 O10 3.075804 1_555
Fe0 O6 1.790078 1_555
Fe0 O12 1.893772 1_455
Fe0 O8 1.893772 1_565
Fe0 O3 2.058982 1_455
Fe0 O19 2.058982 1_565
Fe0 O18 2.092715 1_465
Fe1 O15 1.790078 1_555
Fe1 O4 1.893772 1_555
Fe1 O5 1.893772 1_555
Fe1 O14 2.058982 1_555
Fe1 O17 2.058982 1_555
Fe1 O0 2.092715 1_555
Fe2 O1 1.790078 1_555
Fe2 O5 1.893772 1_655
Fe2 O4 1.893772 1_545
Fe2 O13 2.058982 1_655
Fe2 O16 2.058982 1_545
Fe2 O7 2.092715 1_645
Fe3 O10 1.790078 1_555
Fe3 O8 1.893772 1_555
Fe3 O12 1.893772 1_555
Fe3 O2 2.058982 1_555
Fe3 O9 2.058982 1_555
Fe3 O11 2.092715 1_555
O0 Pt1 2.024497 1_555
O2 Pt1 2.018867 1_555
O3 Pt0 2.018867 1_665
O7 Pt0 2.024497 1_566
O9 Pt1 2.018867 1_555
O11 Pt1 2.024497 1_555
O13 Pt0 2.018867 1_556
O14 Pt1 2.018867 1_555
O16 Pt0 2.018867 1_666
O17 Pt1 2.018867 1_555
O18 Pt0 2.024497 1_655
O19 Pt0 2.018867 1_555
