# generated using pymatgen
data_Rb2HfGe2O7
_symmetry_space_group_name_H-M   'P 1'
_cell_length_a   5.74566620
_cell_length_b   5.74566682
_cell_length_c   13.29002723
_cell_angle_alpha   76.55547246
_cell_angle_beta   76.55546876
_cell_angle_gamma   59.05009972
_symmetry_Int_Tables_number   1
_chemical_formula_structural   Rb2HfGe2O7
_chemical_formula_sum   'Rb4 Hf2 Ge4 O14'
_cell_volume   362.58949619
_cell_formula_units_Z   2
loop_
 _symmetry_equiv_pos_site_id
 _symmetry_equiv_pos_as_xyz
  1  'x, y, z'
loop_
 _atom_site_type_symbol
 _atom_site_label
 _atom_site_symmetry_multiplicity
 _atom_site_fract_x
 _atom_site_fract_y
 _atom_site_fract_z
 _atom_site_occupancy
  Rb  Rb0  1  0.63412417  0.06232575  0.17967495  1
  Rb  Rb1  1  0.93767425  0.36587583  0.32032505  1
  Rb  Rb2  1  0.36587583  0.93767425  0.82032505  1
  Rb  Rb3  1  0.06232575  0.63412417  0.67967495  1
  Hf  Hf0  1  0.50000000  0.00000000  0.50000000  1
  Hf  Hf1  1  0.00000000  0.50000000  0.00000000  1
  Ge  Ge0  1  0.76068038  0.31512095  0.62054447  1
  Ge  Ge1  1  0.31512095  0.76068038  0.12054447  1
  Ge  Ge2  1  0.23931962  0.68487905  0.37945553  1
  Ge  Ge3  1  0.68487905  0.23931962  0.87945553  1
  O  O0  1  0.81266840  0.91369794  0.95000164  1
  O  O1  1  0.33027710  0.42630236  0.88023493  1
  O  O2  1  0.42630236  0.33027710  0.38023493  1
  O  O3  1  0.66972290  0.57369764  0.11976507  1
  O  O4  1  0.84032605  0.15967395  0.75000000  1
  O  O5  1  0.15967395  0.84032605  0.25000000  1
  O  O6  1  0.19311255  0.55736585  0.09793456  1
  O  O7  1  0.44263415  0.80688745  0.40206544  1
  O  O8  1  0.08630206  0.18733160  0.54999836  1
  O  O9  1  0.55736585  0.19311255  0.59793456  1
  O  O10  1  0.18733160  0.08630206  0.04999836  1
  O  O11  1  0.91369794  0.81266840  0.45000164  1
  O  O12  1  0.80688745  0.44263415  0.90206544  1
  O  O13  1  0.57369764  0.66972290  0.61976507  1
loop_
_geom_bond_atom_site_label_1
_geom_bond_atom_site_label_2
_geom_bond_distance
_geom_bond_site_symmetry_2
Hf0 O11 2.053438 1_545
Hf0 O8 2.053438 1_555
Hf0 O9 2.069058 1_555
Hf0 O7 2.069058 1_545
Hf0 O2 2.096718 1_555
Hf0 O13 2.096718 1_545
Hf1 O0 2.053439 1_454
Hf1 O10 2.053439 1_555
Hf1 O6 2.069058 1_555
Hf1 O12 2.069058 1_454
Hf1 O3 2.096718 1_455
Hf1 O1 2.096718 1_554
Ge0 O8 1.734915 1_655
Ge0 O13 1.746235 1_555
Ge0 O9 1.746384 1_555
Ge0 O4 1.788378 1_555
Ge1 O10 1.734915 1_565
Ge1 O3 1.746235 1_555
Ge1 O6 1.746384 1_555
Ge1 O5 1.788378 1_555
Ge2 O11 1.734915 1_455
Ge2 O2 1.746235 1_555
Ge2 O7 1.746384 1_555
Ge2 O5 1.788378 1_555
Ge3 O0 1.734915 1_545
Ge3 O1 1.746235 1_555
Ge3 O12 1.746384 1_555
Ge3 O4 1.788378 1_555
O0 Rb0 3.154918 1_566
O0 Rb2 3.299237 1_655
O0 Rb2 3.341009 1_555
O1 Rb2 2.960273 1_555
O1 Rb2 2.988456 1_545
O1 Rb3 3.072132 1_555
O2 Rb1 2.960273 1_555
O2 Rb1 2.988456 1_455
O2 Rb0 3.072132 1_555
O3 Rb0 2.960273 1_555
O3 Rb0 2.988456 1_565
O3 Rb1 3.072132 1_555
O4 Rb2 2.900857 1_645
O4 Rb3 2.900858 1_645
O4 Rb2 3.430623 1_545
O4 Rb3 3.430624 1_655
O5 Rb0 2.900857 1_465
O5 Rb1 2.900858 1_465
O5 Rb0 3.430623 1_565
O5 Rb1 3.430624 1_455
O6 Rb0 2.849735 1_555
O6 Rb0 3.189320 1_465
O6 Rb1 3.198699 1_455
O7 Rb1 2.849734 1_555
O7 Rb1 3.189320 1_465
O7 Rb0 3.198699 1_565
O8 Rb1 3.154919 1_455
O8 Rb3 3.299238 1_545
O8 Rb3 3.341010 1_555
O9 Rb3 2.849734 1_555
O9 Rb3 3.189320 1_645
O9 Rb2 3.198699 1_545
O10 Rb2 3.154918 1_544
O10 Rb0 3.299237 1_455
O10 Rb0 3.341009 1_555
O11 Rb3 3.154919 1_655
O11 Rb1 3.299238 1_565
O11 Rb1 3.341010 1_555
O12 Rb2 2.849735 1_555
O12 Rb2 3.189320 1_645
O12 Rb3 3.198699 1_655
O13 Rb3 2.960273 1_555
O13 Rb3 2.988456 1_655
O13 Rb2 3.072132 1_555
