# generated using pymatgen
data_GaRu(SeO3)4
_symmetry_space_group_name_H-M   'P 1'
_cell_length_a   7.98707677
_cell_length_b   7.94562991
_cell_length_c   7.98514074
_cell_angle_alpha   89.74791382
_cell_angle_beta   90.00000000
_cell_angle_gamma   90.00000000
_symmetry_Int_Tables_number   1
_chemical_formula_structural   GaRu(SeO3)4
_chemical_formula_sum   'Ga2 Ru2 Se8 O24'
_cell_volume   506.75094002
_cell_formula_units_Z   2
loop_
 _symmetry_equiv_pos_site_id
 _symmetry_equiv_pos_as_xyz
  1  'x, y, z'
loop_
 _atom_site_type_symbol
 _atom_site_label
 _atom_site_symmetry_multiplicity
 _atom_site_fract_x
 _atom_site_fract_y
 _atom_site_fract_z
 _atom_site_occupancy
  Ga  Ga0  1  0.00000000  0.50000000  0.00000000  1
  Ga  Ga1  1  0.50000000  0.50000000  0.50000000  1
  Ru  Ru0  1  0.00000000  0.00000000  0.50000000  1
  Ru  Ru1  1  0.50000000  0.00000000  0.00000000  1
  Se  Se0  1  0.33212108  0.65961195  0.16990633  1
  Se  Se1  1  0.83212108  0.34038805  0.33009367  1
  Se  Se2  1  0.66716762  0.82778815  0.66508735  1
  Se  Se3  1  0.16716762  0.17221185  0.83491265  1
  Se  Se4  1  0.66787892  0.34038805  0.83009367  1
  Se  Se5  1  0.16787892  0.65961195  0.66990633  1
  Se  Se6  1  0.33283238  0.17221185  0.33491265  1
  Se  Se7  1  0.83283238  0.82778815  0.16508735  1
  O  O0  1  0.24255223  0.53239442  0.02730126  1
  O  O1  1  0.74255223  0.46760558  0.47269874  1
  O  O2  1  0.75926166  0.97757409  0.53225869  1
  O  O3  1  0.25926166  0.02242591  0.96774131  1
  O  O4  1  0.53117545  0.97132591  0.75901180  1
  O  O5  1  0.47088491  0.52537967  0.25772919  1
  O  O6  1  0.97088491  0.47462033  0.24227081  1
  O  O7  1  0.03117545  0.02867409  0.74098820  1
  O  O8  1  0.97698542  0.23956631  0.46796030  1
  O  O9  1  0.53398024  0.74603530  0.52617934  1
  O  O10  1  0.47698542  0.76043369  0.03203970  1
  O  O11  1  0.03398024  0.25396470  0.97382066  1
  O  O12  1  0.75744777  0.46760558  0.97269874  1
  O  O13  1  0.25744777  0.53239442  0.52730126  1
  O  O14  1  0.24073834  0.02242591  0.46774131  1
  O  O15  1  0.74073834  0.97757409  0.03225869  1
  O  O16  1  0.46882455  0.02867409  0.24098820  1
  O  O17  1  0.52911509  0.47462033  0.74227081  1
  O  O18  1  0.02911509  0.52537967  0.75772919  1
  O  O19  1  0.96882455  0.97132591  0.25901180  1
  O  O20  1  0.02301458  0.76043369  0.53203970  1
  O  O21  1  0.46601976  0.25396470  0.47382066  1
  O  O22  1  0.52301458  0.23956631  0.96796030  1
  O  O23  1  0.96601976  0.74603530  0.02617934  1
loop_
_geom_bond_atom_site_label_1
_geom_bond_atom_site_label_2
_geom_bond_distance
_geom_bond_site_symmetry_2
Ga0 O6 1.958024 1_455
Ga0 O18 1.958024 1_554
Ga0 O0 1.966555 1_555
Ga0 O12 1.966555 1_454
Ga0 O23 1.985601 1_455
Ga0 O11 1.985601 1_554
Ga1 O17 1.958024 1_555
Ga1 O5 1.958024 1_555
Ga1 O1 1.966555 1_555
Ga1 O13 1.966555 1_555
Ga1 O9 1.985601 1_555
Ga1 O21 1.985601 1_555
O0 Se0 1.685339 1_555
O1 Se1 1.685339 1_555
O2 Se2 1.752534 1_555
O2 Ru0 1.948036 1_665
O3 Se3 1.752534 1_555
O3 Ru1 1.948036 1_556
O4 Se2 1.746582 1_555
O4 Ru1 1.954685 1_566
O5 Se0 1.688528 1_555
O6 Se1 1.688528 1_555
O7 Se3 1.746582 1_555
O7 Ru0 1.954685 1_555
O8 Se1 1.784568 1_555
O8 Ru0 1.928287 1_655
O9 Se2 1.670401 1_555
O10 Se0 1.784568 1_555
O10 Ru1 1.928287 1_565
O11 Se3 1.670401 1_555
O12 Se4 1.685339 1_555
O13 Se5 1.685339 1_555
O14 Se6 1.752534 1_555
O14 Ru0 1.948036 1_555
O15 Se7 1.752534 1_555
O15 Ru1 1.948036 1_565
O16 Se6 1.746582 1_555
O16 Ru1 1.954685 1_555
O17 Se4 1.688528 1_555
O18 Se5 1.688528 1_555
O19 Se7 1.746582 1_555
O19 Ru0 1.954685 1_665
O20 Se5 1.784568 1_555
O20 Ru0 1.928287 1_565
O21 Se6 1.670401 1_555
O22 Se4 1.784568 1_555
O22 Ru1 1.928287 1_556
O23 Se7 1.670401 1_555
