# generated using pymatgen
data_Mg3Zn(Ni3B)2
_symmetry_space_group_name_H-M   'P 1'
_cell_length_a   4.95887188
_cell_length_b   4.95887302
_cell_length_c   7.30883235
_cell_angle_alpha   110.12355242
_cell_angle_beta   110.12355551
_cell_angle_gamma   59.96688647
_symmetry_Int_Tables_number   1
_chemical_formula_structural   Mg3Zn(Ni3B)2
_chemical_formula_sum   'Mg3 Zn1 Ni6 B2'
_cell_volume   142.79555381
_cell_formula_units_Z   1
loop_
 _symmetry_equiv_pos_site_id
 _symmetry_equiv_pos_as_xyz
  1  'x, y, z'
loop_
 _atom_site_type_symbol
 _atom_site_label
 _atom_site_symmetry_multiplicity
 _atom_site_fract_x
 _atom_site_fract_y
 _atom_site_fract_z
 _atom_site_occupancy
  Mg  Mg0  1  0.35690213  0.35690213  0.07119152  1
  Mg  Mg1  1  0.50000000  0.50000000  0.50000100  1
  Mg  Mg2  1  0.64309787  0.64309787  0.92880848  1
  Zn  Zn0  1  0.00000000  0.00000000  0.00000000  1
  Ni  Ni0  1  0.93064954  0.93064954  0.29658197  1
  Ni  Ni1  1  0.93145343  0.43363251  0.29786635  1
  Ni  Ni2  1  0.43363251  0.93145343  0.29786635  1
  Ni  Ni3  1  0.56636649  0.06854557  0.70213365  1
  Ni  Ni4  1  0.06854557  0.56636649  0.70213365  1
  Ni  Ni5  1  0.06934946  0.06934946  0.70341803  1
  B  B0  1  0.83443306  0.83443306  0.50106830  1
  B  B1  1  0.16556594  0.16556594  0.49893170  1
loop_
_geom_bond_atom_site_label_1
_geom_bond_atom_site_label_2
_geom_bond_distance
_geom_bond_site_symmetry_2
Mg0 Ni5 2.837684 1_554
Mg0 Ni4 2.861222 1_554
Mg0 Ni3 2.861222 1_554
Mg0 Mg1 2.876298 1_555
Mg0 Zn0 2.898875 1_555
Mg0 Ni1 2.900087 1_555
Mg0 Ni2 2.900088 1_555
Mg0 Ni0 2.903010 1_545
Mg0 Ni0 2.903010 1_455
Mg0 Zn0 2.903692 1_655
Mg0 Zn0 2.903693 1_565
Mg0 Ni1 2.916901 1_455
Mg0 Ni2 2.916901 1_545
Mg0 Mg2 3.013204 1_454
Mg0 Mg2 3.013205 1_544
Mg0 Mg2 3.026536 1_554
Mg1 Ni4 2.822729 1_655
Mg1 Ni3 2.822730 1_565
Mg1 Ni1 2.822738 1_455
Mg1 Ni2 2.822739 1_545
Mg1 Ni5 2.828982 1_655
Mg1 Ni5 2.828982 1_565
Mg1 Ni0 2.828989 1_455
Mg1 Ni0 2.828989 1_545
Mg1 Ni4 2.829139 1_555
Mg1 Ni3 2.829139 1_555
Mg1 Ni1 2.829143 1_555
Mg1 Ni2 2.829143 1_555
Mg1 Mg2 2.876285 1_555
Mg2 Ni0 2.837680 1_556
Mg2 Ni1 2.861224 1_556
Mg2 Ni2 2.861224 1_556
Mg2 Zn0 2.898875 1_666
Mg2 Ni4 2.900094 1_555
Mg2 Ni3 2.900094 1_555
Mg2 Ni5 2.903010 1_565
Mg2 Ni5 2.903010 1_655
Mg2 Zn0 2.903692 1_566
Mg2 Zn0 2.903693 1_656
Mg2 Ni4 2.916894 1_655
Mg2 Ni3 2.916895 1_565
Ni0 Zn0 2.465684 1_665
Ni1 Zn0 2.456693 1_655
Ni2 Zn0 2.456693 1_565
Ni3 Zn0 2.456695 1_656
Ni4 Zn0 2.456696 1_566
Ni5 Zn0 2.465678 1_556
B0 Ni5 1.972001 1_665
B0 Ni2 1.972512 1_555
B0 Ni1 1.972513 1_555
B0 Ni0 1.974390 1_555
B0 Ni3 1.974813 1_565
B0 Ni4 1.974813 1_655
B0 Mg1 2.858889 1_655
B0 Mg1 2.858890 1_565
B0 Mg1 2.869841 1_555
B1 Ni0 1.972001 1_445
B1 Ni3 1.972512 1_555
B1 Ni4 1.972513 1_555
B1 Ni5 1.974390 1_555
B1 Ni2 1.974813 1_545
B1 Ni1 1.974813 1_455
B1 Mg1 2.858888 1_455
B1 Mg1 2.858888 1_545
B1 Mg1 2.869844 1_555
