# generated using pymatgen
data_Y2B4IrRh4
_symmetry_space_group_name_H-M   'P 1'
_cell_length_a   7.45540657
_cell_length_b   6.28359133
_cell_length_c   5.55955924
_cell_angle_alpha   77.76283948
_cell_angle_beta   55.45422127
_cell_angle_gamma   46.78295088
_symmetry_Int_Tables_number   1
_chemical_formula_structural   Y2B4IrRh4
_chemical_formula_sum   'Y2 B4 Ir1 Rh4'
_cell_volume   149.43835428
_cell_formula_units_Z   1
loop_
 _symmetry_equiv_pos_site_id
 _symmetry_equiv_pos_as_xyz
  1  'x, y, z'
loop_
 _atom_site_type_symbol
 _atom_site_label
 _atom_site_symmetry_multiplicity
 _atom_site_fract_x
 _atom_site_fract_y
 _atom_site_fract_z
 _atom_site_occupancy
  Y  Y0  1  0.85811465  0.85811465  0.14188535  1
  Y  Y1  1  0.14188535  0.14188535  0.85811465  1
  B  B0  1  0.20912515  0.52475077  0.48056391  1
  B  B1  1  0.78556016  0.48056391  0.52475077  1
  B  B2  1  0.52475077  0.20912515  0.78556016  1
  B  B3  1  0.48056391  0.78556016  0.20912515  1
  Ir  Ir0  1  0.75000000  0.75000000  0.75000000  1
  Rh  Rh0  1  0.49893411  0.49893411  0.00106589  1
  Rh  Rh1  1  0.25000000  0.25000000  0.25000000  1
  Rh  Rh2  1  0.00106589  0.00106589  0.49893411  1
  Rh  Rh3  1  0.50000000  0.50000000  0.50000000  1
loop_
_geom_bond_atom_site_label_1
_geom_bond_atom_site_label_2
_geom_bond_distance
_geom_bond_site_symmetry_2
B0 Ir0 2.100566 1_455
B0 Rh1 2.119217 1_555
B0 Rh3 2.129645 1_555
B0 Rh2 2.228489 1_565
B0 Rh0 2.229815 1_555
B0 Y1 2.960155 1_555
B0 Y0 3.098280 1_456
B0 Y0 3.123580 1_545
B1 Ir0 2.100565 1_555
B1 Rh1 2.119217 1_655
B1 Rh3 2.129645 1_555
B1 Rh0 2.228489 1_556
B1 Rh2 2.229814 1_655
B1 Y0 2.960155 1_555
B1 Y1 3.098280 1_565
B1 Y1 3.123580 1_654
B2 Ir0 2.100565 1_545
B2 Rh1 2.119217 1_556
B2 Rh3 2.129645 1_555
B2 Rh2 2.228489 1_655
B2 Rh0 2.229814 1_556
B2 Y1 2.960155 1_555
B2 Y0 3.098280 1_545
B2 Y0 3.123580 1_456
B3 Ir0 2.100566 1_554
B3 Rh1 2.119217 1_565
B3 Rh3 2.129645 1_555
B3 Rh0 2.228489 1_555
B3 Rh2 2.229815 1_565
B3 Y0 2.960155 1_555
B3 Y1 3.098280 1_654
B3 Y1 3.123580 1_565
Ir0 Y0 3.037603 1_556
Ir0 Y0 3.037603 1_555
Ir0 Y1 3.037603 1_655
Ir0 Y1 3.037603 1_565
Rh0 Y0 3.204948 1_545
Rh0 Y0 3.204948 1_455
Rh0 Y1 3.217035 1_564
Rh0 Y1 3.217035 1_654
Rh1 Y1 3.037603 1_554
Rh1 Y1 3.037603 1_555
Rh1 Y0 3.037603 1_455
Rh1 Y0 3.037603 1_545
Rh2 Y1 3.204948 1_555
Rh2 Y1 3.204948 1_554
Rh2 Y0 3.217035 1_445
Rh2 Y0 3.217035 1_446
Rh3 Y1 3.160340 1_565
Rh3 Y0 3.160340 1_545
Rh3 Y1 3.160341 1_654
Rh3 Y0 3.160341 1_456
