# generated using pymatgen
data_Sc12Co4RuPb
_symmetry_space_group_name_H-M   'P 1'
_cell_length_a   7.72021230
_cell_length_b   7.72021148
_cell_length_c   7.72021085
_cell_angle_alpha   111.22488905
_cell_angle_beta   111.02267496
_cell_angle_gamma   106.21444370
_symmetry_Int_Tables_number   1
_chemical_formula_structural   Sc12Co4RuPb
_chemical_formula_sum   'Sc12 Co4 Ru1 Pb1'
_cell_volume   353.36069472
_cell_formula_units_Z   1
loop_
 _symmetry_equiv_pos_site_id
 _symmetry_equiv_pos_as_xyz
  1  'x, y, z'
loop_
 _atom_site_type_symbol
 _atom_site_label
 _atom_site_symmetry_multiplicity
 _atom_site_fract_x
 _atom_site_fract_y
 _atom_site_fract_z
 _atom_site_occupancy
  Sc  Sc0  1  0.42060312  0.22051978  0.20008434  1
  Sc  Sc1  1  0.57939688  0.77948022  0.79991566  1
  Sc  Sc2  1  0.02043444  0.22051978  0.79991566  1
  Sc  Sc3  1  0.97956556  0.77948022  0.20008434  1
  Sc  Sc4  1  0.30848746  0.61114270  0.30265523  1
  Sc  Sc5  1  0.69151254  0.38885730  0.69734477  1
  Sc  Sc6  1  0.30848746  0.00583123  0.69734477  1
  Sc  Sc7  1  0.69151254  0.99416877  0.30265523  1
  Sc  Sc8  1  0.18537925  0.27741622  0.46279647  1
  Sc  Sc9  1  0.81462075  0.72258278  0.53720353  1
  Sc  Sc10  1  0.18537925  0.72258278  0.90796303  1
  Sc  Sc11  1  0.81462075  0.27741622  0.09203697  1
  Co  Co0  1  0.37324077  1.00000000  0.37324077  1
  Co  Co1  1  0.62675923  0.00000000  0.62675923  1
  Co  Co2  1  0.11516906  0.61516906  0.50000000  1
  Co  Co3  1  0.88483094  0.38483094  0.50000000  1
  Ru  Ru0  1  0.00000000  0.00000000  0.00000000  1
  Pb  Pb0  1  0.50000000  0.50000000  0.00000000  1
loop_
_geom_bond_atom_site_label_1
_geom_bond_atom_site_label_2
_geom_bond_distance
_geom_bond_site_symmetry_2
Co0 Co1 2.216520 1_565
Co0 Sc3 2.543618 1_455
Co0 Sc0 2.543623 1_565
Co0 Sc7 2.709454 1_555
Co0 Sc5 2.709455 1_565
Co0 Sc4 2.709455 1_555
Co0 Sc6 2.709457 1_565
Co0 Sc10 2.924106 1_554
Co0 Sc8 2.924107 1_565
Co1 Sc2 2.543618 1_655
Co1 Sc1 2.543623 1_545
Co1 Sc6 2.709454 1_555
Co1 Sc4 2.709455 1_545
Co1 Sc5 2.709455 1_555
Co1 Sc7 2.709457 1_545
Co1 Sc11 2.924105 1_556
Co1 Sc9 2.924113 1_545
Co2 Co3 2.135047 1_455
Co2 Sc6 2.484468 1_565
Co2 Sc4 2.484475 1_555
Co2 Sc9 2.744848 1_455
Co2 Sc11 2.744853 1_455
Co2 Sc10 2.744855 1_555
Co2 Sc8 2.744855 1_555
Co2 Sc3 3.032392 1_455
Co2 Sc1 3.032400 1_555
Co3 Sc7 2.484468 1_545
Co3 Sc5 2.484475 1_555
Co3 Sc9 2.744848 1_555
Co3 Sc10 2.744851 1_655
Co3 Sc8 2.744852 1_655
Co3 Sc11 2.744853 1_555
Co3 Sc2 3.032392 1_655
Co3 Sc0 3.032400 1_555
Ru0 Sc0 2.690403 1_555
Ru0 Sc1 2.690403 1_444
Ru0 Sc2 2.690408 1_554
Ru0 Sc3 2.690408 1_445
Ru0 Sc11 2.911970 1_455
Ru0 Sc8 2.911976 1_555
Ru0 Sc10 2.911976 1_544
Ru0 Sc9 2.911977 1_444
Pb0 Sc1 3.125889 1_554
Pb0 Sc0 3.125889 1_555
Pb0 Sc3 3.125894 1_555
Pb0 Sc2 3.125894 1_554
Pb0 Sc4 3.180761 1_555
Pb0 Sc5 3.180761 1_554
Pb0 Sc7 3.180767 1_555
Pb0 Sc6 3.180767 1_554
Pb0 Sc8 3.366634 1_554
Pb0 Sc10 3.366634 1_554
Pb0 Sc9 3.366635 1_555
Pb0 Sc11 3.366641 1_555
