# generated using pymatgen
data_Ba4Li3AgAs4
_symmetry_space_group_name_H-M   'P 1'
_cell_length_a   8.94663922
_cell_length_b   4.62773855
_cell_length_c   8.00889280
_cell_angle_alpha   90.00000000
_cell_angle_beta   90.01265288
_cell_angle_gamma   90.00000000
_symmetry_Int_Tables_number   1
_chemical_formula_structural   Ba4Li3AgAs4
_chemical_formula_sum   'Ba4 Li3 Ag1 As4'
_cell_volume   331.58983579
_cell_formula_units_Z   1
loop_
 _symmetry_equiv_pos_site_id
 _symmetry_equiv_pos_as_xyz
  1  'x, y, z'
loop_
 _atom_site_type_symbol
 _atom_site_label
 _atom_site_symmetry_multiplicity
 _atom_site_fract_x
 _atom_site_fract_y
 _atom_site_fract_z
 _atom_site_occupancy
  Ba  Ba0  1  0.00224326  0.25000000  0.24714920  1
  Ba  Ba1  1  0.49820790  0.25000000  0.24817070  1
  Ba  Ba2  1  0.50086684  0.75000000  0.75143189  1
  Ba  Ba3  1  0.99840392  0.75000000  0.75253748  1
  Li  Li0  1  0.25085840  0.75000000  0.08344225  1
  Li  Li1  1  0.75159538  0.75000000  0.41928020  1
  Li  Li2  1  0.24900348  0.25000000  0.58363283  1
  Ag  Ag0  1  0.74933022  0.25000000  0.91463511  1
  As  As0  1  0.74968626  0.75000000  0.08948670  1
  As  As1  1  0.24958808  0.75000000  0.41683641  1
  As  As2  1  0.75014020  0.25000000  0.57645712  1
  As  As3  1  0.25007706  0.25000000  0.91693308  1
loop_
_geom_bond_atom_site_label_1
_geom_bond_atom_site_label_2
_geom_bond_distance
_geom_bond_site_symmetry_2
Ba0 Li0 3.467228 1_545
Ba0 Li0 3.467228 1_555
Ba0 Li2 3.483314 1_555
Ba0 Li1 3.504917 1_445
Ba0 Li1 3.504917 1_455
Ba1 Li0 3.462711 1_545
Ba1 Li0 3.462711 1_555
Ba1 Li2 3.491669 1_555
Ba1 Li1 3.517065 1_555
Ba1 Li1 3.517065 1_545
Ba2 Li0 3.475066 1_556
Ba2 Li1 3.480082 1_555
Ba2 Li2 3.498025 1_555
Ba2 Li2 3.498025 1_565
Ba3 Li1 3.463641 1_555
Ba3 Li0 3.481691 1_656
Ba3 Li2 3.494554 1_655
Ba3 Li2 3.494554 1_665
Ag0 As0 2.704631 1_556
Ag0 As0 2.704631 1_546
Ag0 As2 2.708443 1_555
Ag0 Ba2 3.464462 1_545
Ag0 Ba2 3.464462 1_555
Ag0 Ba3 3.465010 1_545
Ag0 Ba3 3.465010 1_555
Ag0 Ba1 3.490830 1_556
Ag0 Ba0 3.494165 1_656
As0 Li1 2.641332 1_555
As0 Ba1 3.468773 1_555
As0 Ba1 3.468773 1_565
As0 Ba0 3.471693 1_655
As0 Ba0 3.471693 1_665
As0 Ba3 3.498071 1_554
As0 Ba2 3.504726 1_554
As1 Li0 2.670145 1_555
As1 Li2 2.671803 1_565
As1 Li2 2.671803 1_555
As1 Ba0 3.478004 1_565
As1 Ba0 3.478004 1_555
As1 Ba1 3.482472 1_555
As1 Ba1 3.482472 1_565
As1 Ba2 3.497470 1_555
As1 Ba3 3.504477 1_455
As2 Li1 2.634156 1_555
As2 Li1 2.634156 1_545
As2 Ba1 3.462717 1_555
As2 Ba0 3.470682 1_655
As2 Ba3 3.503526 1_545
As2 Ba3 3.503526 1_555
As2 Ba2 3.506105 1_555
As2 Ba2 3.506105 1_545
As3 Li2 2.669381 1_555
As3 Li0 2.670656 1_546
As3 Li0 2.670656 1_556
As3 Ba0 3.451547 1_556
As3 Ba1 3.458774 1_556
As3 Ba2 3.485184 1_555
As3 Ba2 3.485184 1_545
As3 Ba3 3.486548 1_455
As3 Ba3 3.486548 1_445
