# generated using pymatgen
data_Nb6Ga2Cu4O
_symmetry_space_group_name_H-M   'P 1'
_cell_length_a   8.05788391
_cell_length_b   8.05788382
_cell_length_c   8.05788421
_cell_angle_alpha   59.99999843
_cell_angle_beta   59.99999877
_cell_angle_gamma   60.00000118
_symmetry_Int_Tables_number   1
_chemical_formula_structural   Nb6Ga2Cu4O
_chemical_formula_sum   'Nb12 Ga4 Cu8 O2'
_cell_volume   369.95425514
_cell_formula_units_Z   2
loop_
 _symmetry_equiv_pos_site_id
 _symmetry_equiv_pos_as_xyz
  1  'x, y, z'
loop_
 _atom_site_type_symbol
 _atom_site_label
 _atom_site_symmetry_multiplicity
 _atom_site_fract_x
 _atom_site_fract_y
 _atom_site_fract_z
 _atom_site_occupancy
  Nb  Nb0  1  0.05433525  0.05433525  0.44566475  1
  Nb  Nb1  1  0.44566475  0.05433525  0.44566475  1
  Nb  Nb2  1  0.05433525  0.44566475  0.44566475  1
  Nb  Nb3  1  0.44566475  0.44566475  0.05433525  1
  Nb  Nb4  1  0.05433525  0.44566475  0.05433525  1
  Nb  Nb5  1  0.44566475  0.05433525  0.05433525  1
  Nb  Nb6  1  0.19566475  0.19566475  0.80433525  1
  Nb  Nb7  1  0.80433525  0.19566475  0.80433525  1
  Nb  Nb8  1  0.19566475  0.80433525  0.80433525  1
  Nb  Nb9  1  0.80433525  0.80433525  0.19566475  1
  Nb  Nb10  1  0.19566475  0.80433525  0.19566475  1
  Nb  Nb11  1  0.80433525  0.19566475  0.19566475  1
  Ga  Ga0  1  0.62500000  0.62500000  0.12500000  1
  Ga  Ga1  1  0.62500000  0.12500000  0.62500000  1
  Ga  Ga2  1  0.12500000  0.62500000  0.62500000  1
  Ga  Ga3  1  0.62500000  0.62500000  0.62500000  1
  Cu  Cu0  1  0.41856728  0.41856728  0.74429817  1
  Cu  Cu1  1  0.41856728  0.74429817  0.41856728  1
  Cu  Cu2  1  0.74429817  0.41856728  0.41856728  1
  Cu  Cu3  1  0.41856728  0.41856728  0.41856728  1
  Cu  Cu4  1  0.83143272  0.83143272  0.50570183  1
  Cu  Cu5  1  0.83143272  0.50570183  0.83143272  1
  Cu  Cu6  1  0.50570183  0.83143272  0.83143272  1
  Cu  Cu7  1  0.83143272  0.83143272  0.83143272  1
  O  O0  1  0.25000000  0.25000000  0.25000000  1
  O  O1  1  0.00000000  0.00000000  0.00000000  1
loop_
_geom_bond_atom_site_label_1
_geom_bond_atom_site_label_2
_geom_bond_distance
_geom_bond_site_symmetry_2
Nb0 O0 2.229711 1_555
Nb1 O0 2.229711 1_555
Nb2 O0 2.229711 1_555
Nb3 O0 2.229711 1_555
Nb4 O0 2.229711 1_555
Nb5 O0 2.229711 1_555
Nb6 O1 2.229711 1_556
Nb7 O1 2.229711 1_656
Nb8 O1 2.229711 1_566
Nb9 O1 2.229711 1_665
Nb10 O1 2.229711 1_565
Nb11 O1 2.229711 1_655
Ga0 Nb5 2.869583 1_565
Ga0 Nb11 2.869583 1_555
Ga0 Nb3 2.869583 1_555
Ga0 Nb9 2.869583 1_555
Ga0 Nb4 2.869583 1_655
Ga0 Nb10 2.869583 1_555
Ga1 Nb0 2.869583 1_655
Ga1 Nb6 2.869583 1_555
Ga1 Nb7 2.869583 1_555
Ga1 Nb5 2.869583 1_556
Ga1 Nb11 2.869583 1_555
Ga1 Nb1 2.869583 1_555
Ga2 Nb0 2.869583 1_565
Ga2 Nb6 2.869583 1_555
Ga2 Nb8 2.869583 1_555
Ga2 Nb4 2.869583 1_556
Ga2 Nb10 2.869583 1_555
Ga2 Nb2 2.869583 1_555
Ga3 Nb1 2.869583 1_565
Ga3 Nb7 2.869583 1_555
Ga3 Nb3 2.869583 1_556
Ga3 Nb9 2.869583 1_555
Ga3 Nb2 2.869583 1_655
Ga3 Nb8 2.869583 1_555
Cu0 Ga3 2.454963 1_555
Cu0 Ga1 2.454963 1_555
Cu0 Ga2 2.454963 1_555
Cu0 Cu1 2.624702 1_555
Cu0 Cu2 2.624702 1_555
Cu0 Cu3 2.624702 1_555
Cu0 Nb5 2.734085 1_556
Cu0 Nb4 2.734085 1_556
Cu0 Nb3 2.734085 1_556
Cu0 Nb6 2.859087 1_555
Cu0 Nb8 2.859087 1_555
Cu0 Nb7 2.859087 1_555
Cu1 Ga2 2.454963 1_555
Cu1 Ga3 2.454963 1_555
Cu1 Ga0 2.454963 1_555
Cu1 Cu3 2.624702 1_555
Cu1 Cu2 2.624702 1_555
Cu1 Nb1 2.734085 1_565
Cu1 Nb5 2.734085 1_565
Cu1 Nb0 2.734085 1_565
Cu1 Nb9 2.859087 1_555
Cu1 Nb8 2.859087 1_555
Cu1 Nb10 2.859087 1_555
Cu2 Ga1 2.454963 1_555
Cu2 Ga0 2.454963 1_555
Cu2 Ga3 2.454963 1_555
Cu2 Cu3 2.624702 1_555
Cu2 Nb2 2.734085 1_655
Cu2 Nb4 2.734085 1_655
Cu2 Nb0 2.734085 1_655
Cu2 Nb9 2.859087 1_555
Cu2 Nb7 2.859087 1_555
Cu2 Nb11 2.859087 1_555
Cu3 Ga0 2.454963 1_555
Cu3 Ga1 2.454963 1_555
Cu3 Ga2 2.454963 1_555
Cu3 Nb1 2.734085 1_555
Cu3 Nb2 2.734085 1_555
Cu3 Nb3 2.734085 1_555
Cu3 Nb6 2.859087 1_555
Cu3 Nb10 2.859087 1_555
Cu3 Nb11 2.859087 1_555
Cu4 Ga3 2.454963 1_555
Cu4 Ga1 2.454963 1_565
Cu4 Ga2 2.454963 1_655
Cu4 Cu5 2.624702 1_555
Cu4 Cu6 2.624702 1_555
Cu4 Cu7 2.624702 1_555
Cu4 Nb11 2.734085 1_565
Cu4 Nb10 2.734085 1_655
Cu4 Nb9 2.734085 1_555
Cu4 Nb0 2.859087 1_665
Cu4 Nb2 2.859087 1_655
Cu4 Nb1 2.859087 1_565
Cu5 Ga2 2.454963 1_655
Cu5 Ga3 2.454963 1_555
Cu5 Ga0 2.454963 1_556
Cu5 Cu7 2.624702 1_555
Cu5 Cu6 2.624702 1_555
Cu5 Nb7 2.734085 1_555
Cu5 Nb11 2.734085 1_556
Cu5 Nb6 2.734085 1_655
Cu5 Nb3 2.859087 1_556
Cu5 Nb2 2.859087 1_655
Cu5 Nb4 2.859087 1_656
Cu6 Ga1 2.454963 1_565
Cu6 Ga3 2.454963 1_555
Cu6 Ga0 2.454963 1_556
Cu6 Cu7 2.624702 1_555
Cu6 Nb8 2.734085 1_555
Cu6 Nb10 2.734085 1_556
Cu6 Nb6 2.734085 1_565
Cu6 Nb3 2.859087 1_556
Cu6 Nb1 2.859087 1_565
Cu6 Nb5 2.859087 1_566
Cu7 Ga0 2.454963 1_556
Cu7 Ga1 2.454963 1_565
Cu7 Ga2 2.454963 1_655
Cu7 Nb7 2.734085 1_565
Cu7 Nb8 2.734085 1_655
Cu7 Nb9 2.734085 1_556
Cu7 Nb0 2.859087 1_665
Cu7 Nb4 2.859087 1_656
Cu7 Nb5 2.859087 1_566
