# generated using pymatgen
data_Ti8BeSiBi4
_symmetry_space_group_name_H-M   'P 1'
_cell_length_a   7.87077441
_cell_length_b   7.87077322
_cell_length_c   7.87077370
_cell_angle_alpha   95.50148463
_cell_angle_beta   95.50148628
_cell_angle_gamma   143.92596082
_symmetry_Int_Tables_number   1
_chemical_formula_structural   Ti8BeSiBi4
_chemical_formula_sum   'Ti8 Be1 Si1 Bi4'
_cell_volume   272.99672792
_cell_formula_units_Z   1
loop_
 _symmetry_equiv_pos_site_id
 _symmetry_equiv_pos_as_xyz
  1  'x, y, z'
loop_
 _atom_site_type_symbol
 _atom_site_label
 _atom_site_symmetry_multiplicity
 _atom_site_fract_x
 _atom_site_fract_y
 _atom_site_fract_z
 _atom_site_occupancy
  Ti  Ti0  1  0.07675477  0.19315439  0.27787821  1
  Ti  Ti1  1  0.91527518  0.79887556  0.72212179  1
  Ti  Ti2  1  0.79887556  0.07675477  0.88359939  1
  Ti  Ti3  1  0.42324523  0.70112444  0.11640061  1
  Ti  Ti4  1  0.19315439  0.91527518  0.11640061  1
  Ti  Ti5  1  0.58472482  0.30684561  0.88359939  1
  Ti  Ti6  1  0.70112444  0.58472482  0.27787821  1
  Ti  Ti7  1  0.30684561  0.42324523  0.72212179  1
  Be  Be0  1  0.75000000  0.75000000  0.00000000  1
  Si  Si0  1  0.25000000  0.25000000  0.00000000  1
  Bi  Bi0  1  0.14091460  0.64091460  0.78183019  1
  Bi  Bi1  1  0.85908540  0.35908540  0.21816981  1
  Bi  Bi2  1  0.35908540  0.14091460  0.50000000  1
  Bi  Bi3  1  0.64091460  0.85908540  0.50000000  1
loop_
_geom_bond_atom_site_label_1
_geom_bond_atom_site_label_2
_geom_bond_distance
_geom_bond_site_symmetry_2
Be0 Si0 2.437039 1_555
Be0 Si0 2.437039 1_665
Be0 Ti6 2.553737 1_555
Be0 Ti1 2.553738 1_554
Be0 Ti0 2.553740 1_665
Be0 Ti7 2.553740 1_554
Be0 Ti5 2.553746 1_554
Be0 Ti4 2.553747 1_655
Be0 Ti2 2.553748 1_564
Be0 Ti3 2.553749 1_555
Si0 Ti7 2.572206 1_554
Si0 Ti0 2.572206 1_555
Si0 Ti1 2.572209 1_444
Si0 Ti6 2.572209 1_555
Si0 Ti3 2.572215 1_555
Si0 Ti2 2.572215 1_454
Si0 Ti4 2.572217 1_545
Si0 Ti5 2.572218 1_554
Bi0 Ti7 2.905491 1_555
Bi0 Ti1 2.905491 1_455
Bi0 Ti4 3.005558 1_556
Bi0 Ti3 3.005558 1_556
Bi0 Ti5 3.031226 1_455
Bi0 Ti2 3.031234 1_565
Bi0 Ti2 3.062298 1_455
Bi0 Ti5 3.062306 1_565
Bi1 Ti6 2.905491 1_555
Bi1 Ti0 2.905491 1_655
Bi1 Ti2 3.005558 1_554
Bi1 Ti5 3.005558 1_554
Bi1 Ti4 3.031226 1_655
Bi1 Ti3 3.031234 1_545
Bi1 Ti3 3.062299 1_655
Bi1 Ti4 3.062307 1_545
Bi2 Ti4 2.905483 1_545
Bi2 Ti5 2.905483 1_555
Bi2 Ti7 3.005562 1_555
Bi2 Ti0 3.005562 1_555
Bi2 Ti1 3.031236 1_555
Bi2 Ti6 3.031236 1_445
Bi2 Ti6 3.062312 1_555
Bi2 Ti1 3.062312 1_445
Bi3 Ti2 2.905483 1_565
Bi3 Ti3 2.905483 1_555
Bi3 Ti6 3.005562 1_555
Bi3 Ti1 3.005562 1_555
Bi3 Ti7 3.031240 1_555
Bi3 Ti0 3.031240 1_665
Bi3 Ti0 3.062309 1_555
Bi3 Ti7 3.062309 1_665
