# generated using pymatgen
data_Lu6CrB14Ru
_symmetry_space_group_name_H-M   'P 1'
_cell_length_a   7.86846820
_cell_length_b   7.86846793
_cell_length_c   9.16694973
_cell_angle_alpha   90.00000000
_cell_angle_beta   90.00000000
_cell_angle_gamma   154.93340163
_symmetry_Int_Tables_number   1
_chemical_formula_structural   Lu6CrB14Ru
_chemical_formula_sum   'Lu6 Cr1 B14 Ru1'
_cell_volume   240.45532762
_cell_formula_units_Z   1
loop_
 _symmetry_equiv_pos_site_id
 _symmetry_equiv_pos_as_xyz
  1  'x, y, z'
loop_
 _atom_site_type_symbol
 _atom_site_label
 _atom_site_symmetry_multiplicity
 _atom_site_fract_x
 _atom_site_fract_y
 _atom_site_fract_z
 _atom_site_occupancy
  Lu  Lu0  1  0.10581905  0.89418095  0.06024175  1
  Lu  Lu1  1  0.89403191  0.10596809  0.94228692  1
  Lu  Lu2  1  0.75760953  0.24239047  0.25000000  1
  Lu  Lu3  1  0.24425351  0.75574649  0.75000000  1
  Lu  Lu4  1  0.10581905  0.89418095  0.43975825  1
  Lu  Lu5  1  0.89403191  0.10596809  0.55771308  1
  Cr  Cr0  1  0.94773104  0.05226896  0.25000000  1
  B  B0  1  0.72733980  0.27266020  0.53520819  1
  B  B1  1  0.27190746  0.72809254  0.46551403  1
  B  B2  1  0.27190746  0.72809254  0.03448597  1
  B  B3  1  0.72733980  0.27266020  0.96479181  1
  B  B4  1  0.51905853  0.48094147  0.90528146  1
  B  B5  1  0.48059241  0.51940759  0.09549633  1
  B  B6  1  0.48059241  0.51940759  0.40450367  1
  B  B7  1  0.51905853  0.48094147  0.59471854  1
  B  B8  1  0.45292798  0.54707202  0.75000000  1
  B  B9  1  0.54659973  0.45340027  0.25000000  1
  B  B10  1  0.63157212  0.36842788  0.64980115  1
  B  B11  1  0.36846462  0.63153538  0.34903237  1
  B  B12  1  0.36846462  0.63153538  0.15096763  1
  B  B13  1  0.63157212  0.36842788  0.85019885  1
  Ru  Ru0  1  0.05331042  0.94668958  0.75000000  1
loop_
_geom_bond_atom_site_label_1
_geom_bond_atom_site_label_2
_geom_bond_distance
_geom_bond_site_symmetry_2
Lu3 Ru0 2.933254 1_555
B0 B10 1.807717 1_555
B0 B1 1.947436 1_545
B0 B1 1.947437 1_655
B0 Lu5 2.569008 1_555
B0 Lu3 2.619163 1_545
B0 Lu3 2.619163 1_655
B0 Lu2 2.655519 1_555
B0 Lu4 2.676959 1_655
B0 Lu4 2.676960 1_545
B1 B11 1.827662 1_555
B1 Lu4 2.562338 1_555
B1 Lu2 2.620470 1_565
B1 Lu2 2.620470 1_455
B1 Lu3 2.642243 1_555
B1 Lu5 2.673866 1_455
B1 Lu5 2.673866 1_565
B2 B3 1.947436 1_564
B2 B3 1.947437 1_454
B2 Lu0 2.562338 1_555
B2 Lu2 2.620470 1_565
B2 Lu2 2.620470 1_455
B2 Lu3 2.642243 1_554
B2 Lu1 2.673866 1_454
B2 Lu1 2.673866 1_564
B3 Lu1 2.569008 1_555
B3 Lu3 2.619163 1_545
B3 Lu3 2.619163 1_655
B3 Lu2 2.655519 1_556
B3 Lu0 2.676959 1_656
B3 Lu0 2.676960 1_546
B4 B8 1.748791 1_555
B4 B5 1.841096 1_556
B4 Ru0 2.284445 1_545
B4 Ru0 2.284445 1_655
B4 Lu0 2.590335 1_546
B4 Lu0 2.590335 1_656
B4 Lu1 2.592213 1_565
B4 Lu1 2.592213 1_455
B5 B9 1.741889 1_555
B5 Cr0 2.275175 1_565
B5 Cr0 2.275175 1_455
B5 Lu1 2.579983 1_564
B5 Lu1 2.579983 1_454
B5 Lu0 2.592441 1_545
B5 Lu0 2.592441 1_655
B6 B9 1.741889 1_555
B6 B7 1.841096 1_555
B6 Cr0 2.275175 1_565
B6 Cr0 2.275175 1_455
B6 Lu5 2.579983 1_565
B6 Lu5 2.579983 1_455
B6 Lu4 2.592441 1_545
B6 Lu4 2.592441 1_655
B7 B8 1.748791 1_555
B7 Ru0 2.284445 1_545
B7 Ru0 2.284445 1_655
B7 Lu4 2.590335 1_545
B7 Lu4 2.590335 1_655
B7 Lu5 2.592213 1_565
B7 Lu5 2.592213 1_455
B8 Ru0 2.300776 1_545
B8 Ru0 2.300776 1_655
B8 Lu1 2.615577 1_565
B8 Lu5 2.615577 1_565
B8 Lu1 2.615577 1_455
B8 Lu5 2.615577 1_455
B8 Lu3 3.205642 1_555
B9 Cr0 2.285256 1_565
B9 Cr0 2.285256 1_455
B9 Lu4 2.601744 1_545
B9 Lu0 2.601744 1_545
B9 Lu4 2.601744 1_655
B9 Lu0 2.601744 1_655
B9 Lu2 3.241517 1_555
B10 B7 1.800672 1_555
B10 B13 1.837036 1_555
B10 Ru0 2.281377 1_655
B10 Ru0 2.281377 1_545
B10 Lu3 2.599162 1_545
B10 Lu3 2.599163 1_655
B10 Lu4 2.603743 1_655
B10 Lu4 2.603743 1_545
B11 B6 1.795989 1_555
B11 B12 1.815649 1_555
B11 Cr0 2.285279 1_455
B11 Cr0 2.285279 1_565
B11 Lu2 2.576776 1_565
B11 Lu2 2.576776 1_455
B11 Lu5 2.594089 1_455
B11 Lu5 2.594089 1_565
B12 B5 1.795989 1_555
B12 B2 1.827662 1_555
B12 Cr0 2.285279 1_455
B12 Cr0 2.285279 1_565
B12 Lu2 2.576776 1_565
B12 Lu2 2.576776 1_455
B12 Lu1 2.594089 1_454
B12 Lu1 2.594089 1_564
B13 B4 1.800672 1_555
B13 B3 1.807717 1_555
B13 Ru0 2.281377 1_655
B13 Ru0 2.281377 1_545
B13 Lu3 2.599162 1_545
B13 Lu3 2.599163 1_655
B13 Lu0 2.603743 1_656
B13 Lu0 2.603743 1_546
