# generated using pymatgen
data_BaBiAu
_symmetry_space_group_name_H-M   'P 1'
_cell_length_a   5.75015002
_cell_length_b   5.75015002
_cell_length_c   7.00019600
_cell_angle_alpha   90.00000000
_cell_angle_beta   90.00000000
_cell_angle_gamma   120.00000024
_symmetry_Int_Tables_number   1
_chemical_formula_structural   BaBiAu
_chemical_formula_sum   'Ba2 Bi2 Au2'
_cell_volume   200.44682512
_cell_formula_units_Z   2
loop_
 _symmetry_equiv_pos_site_id
 _symmetry_equiv_pos_as_xyz
  1  'x, y, z'
loop_
 _atom_site_type_symbol
 _atom_site_label
 _atom_site_symmetry_multiplicity
 _atom_site_fract_x
 _atom_site_fract_y
 _atom_site_fract_z
 _atom_site_occupancy
  Ba  Ba0  1  0.66666700  0.33333300  0.75000000  1
  Ba  Ba1  1  0.33333300  0.66666700  0.25000000  1
  Bi  Bi0  1  0.33333300  0.66666700  0.75000000  1
  Bi  Bi1  1  0.66666700  0.33333300  0.25000000  1
  Au  Au0  1  0.00000000  0.00000000  0.00000000  1
  Au  Au1  1  0.00000000  0.00000000  0.50000000  1
loop_
_geom_bond_atom_site_label_1
_geom_bond_atom_site_label_2
_geom_bond_distance
_geom_bond_site_symmetry_2
Ba0 Bi0 3.319847 1_545
Ba0 Bi0 3.319847 1_655
Ba0 Bi0 3.319857 1_555
Ba0 Bi1 3.500098 1_556
Ba0 Bi1 3.500098 1_555
Ba1 Bi1 3.319847 1_455
Ba1 Bi1 3.319847 1_565
Ba1 Bi1 3.319857 1_555
Ba1 Bi0 3.500098 1_555
Ba1 Bi0 3.500098 1_554
Au0 Au1 3.500098 1_555
Au0 Au1 3.500098 1_554
Au0 Ba1 3.752873 1_545
Au0 Ba0 3.752873 1_454
Au0 Ba1 3.752878 1_445
Au0 Ba0 3.752878 1_554
Au0 Ba1 3.752878 1_555
Au0 Ba0 3.752878 1_444
Au1 Ba0 3.752873 1_455
Au1 Ba1 3.752873 1_545
Au1 Ba0 3.752878 1_445
Au1 Ba1 3.752878 1_445
Au1 Ba1 3.752878 1_555
Au1 Ba0 3.752878 1_555
