# generated using pymatgen
data_Lu5GaBi2
_symmetry_space_group_name_H-M   'P 1'
_cell_length_a   7.91584399
_cell_length_b   9.07525298
_cell_length_c   11.66117953
_cell_angle_alpha   90.00000000
_cell_angle_beta   90.00000000
_cell_angle_gamma   90.00000000
_symmetry_Int_Tables_number   1
_chemical_formula_structural   Lu5GaBi2
_chemical_formula_sum   'Lu20 Ga4 Bi8'
_cell_volume   837.71915954
_cell_formula_units_Z   4
loop_
 _symmetry_equiv_pos_site_id
 _symmetry_equiv_pos_as_xyz
  1  'x, y, z'
loop_
 _atom_site_type_symbol
 _atom_site_label
 _atom_site_symmetry_multiplicity
 _atom_site_fract_x
 _atom_site_fract_y
 _atom_site_fract_z
 _atom_site_occupancy
  Lu  Lu0  1  0.03767578  0.25000000  0.50916788  1
  Lu  Lu1  1  0.96232422  0.75000000  0.49083212  1
  Lu  Lu2  1  0.46232422  0.75000000  0.00916788  1
  Lu  Lu3  1  0.53767578  0.25000000  0.99083212  1
  Lu  Lu4  1  0.34782768  0.25000000  0.29512926  1
  Lu  Lu5  1  0.65217232  0.75000000  0.70487074  1
  Lu  Lu6  1  0.15217232  0.75000000  0.79512926  1
  Lu  Lu7  1  0.84782768  0.25000000  0.20487074  1
  Lu  Lu8  1  0.17904357  0.25000000  0.78966431  1
  Lu  Lu9  1  0.82095643  0.75000000  0.21033569  1
  Lu  Lu10  1  0.32095643  0.75000000  0.28966431  1
  Lu  Lu11  1  0.67904357  0.25000000  0.71033569  1
  Lu  Lu12  1  0.18371570  0.05917090  0.05670298  1
  Lu  Lu13  1  0.81628430  0.94082910  0.94329702  1
  Lu  Lu14  1  0.31628430  0.94082910  0.55670298  1
  Lu  Lu15  1  0.81628430  0.55917090  0.94329702  1
  Lu  Lu16  1  0.68371570  0.05917090  0.44329702  1
  Lu  Lu17  1  0.18371570  0.44082910  0.05670298  1
  Lu  Lu18  1  0.68371570  0.44082910  0.44329702  1
  Lu  Lu19  1  0.31628430  0.55917090  0.55670298  1
  Ga  Ga0  1  0.41038154  0.25000000  0.53788791  1
  Ga  Ga1  1  0.58961846  0.75000000  0.46211209  1
  Ga  Ga2  1  0.08961846  0.75000000  0.03788791  1
  Ga  Ga3  1  0.91038154  0.25000000  0.96211209  1
  Bi  Bi0  1  0.05590329  0.00058384  0.32205380  1
  Bi  Bi1  1  0.94409671  0.99941616  0.67794620  1
  Bi  Bi2  1  0.44409671  0.99941616  0.82205380  1
  Bi  Bi3  1  0.94409671  0.50058384  0.67794620  1
  Bi  Bi4  1  0.55590329  0.00058384  0.17794620  1
  Bi  Bi5  1  0.05590329  0.49941616  0.32205380  1
  Bi  Bi6  1  0.55590329  0.49941616  0.17794620  1
  Bi  Bi7  1  0.44409671  0.50058384  0.82205380  1
loop_
_geom_bond_atom_site_label_1
_geom_bond_atom_site_label_2
_geom_bond_distance
_geom_bond_site_symmetry_2
Lu0 Lu18 3.382283 1_455
Lu0 Lu16 3.382283 1_455
Lu0 Lu8 3.457047 1_555
Lu0 Lu4 3.501045 1_555
Lu0 Lu19 3.611604 1_555
Lu0 Lu14 3.611604 1_545
Lu0 Lu11 3.682696 1_455
Lu0 Lu7 3.853573 1_455
Lu1 Lu14 3.382283 1_655
Lu1 Lu19 3.382283 1_655
Lu1 Lu9 3.457047 1_555
Lu1 Lu5 3.501045 1_555
Lu1 Lu16 3.611604 1_565
Lu1 Lu18 3.611604 1_555
Lu1 Lu10 3.682696 1_655
Lu1 Lu6 3.853573 1_655
Lu2 Lu6 3.501045 1_554
Lu2 Lu9 3.682696 1_555
Lu2 Lu5 3.853573 1_554
Lu3 Lu7 3.501045 1_556
Lu3 Lu8 3.682696 1_555
Lu3 Lu4 3.853573 1_556
Lu10 Lu2 3.457047 1_555
Lu10 Lu14 3.563353 1_555
Lu10 Lu19 3.563353 1_555
Lu11 Lu3 3.457047 1_555
Lu11 Lu18 3.563353 1_555
Lu11 Lu16 3.563353 1_555
Lu12 Lu13 3.370734 1_444
Lu12 Lu3 3.382283 1_554
Lu12 Lu17 3.463645 1_555
Lu12 Lu4 3.523787 1_555
Lu12 Lu8 3.563353 1_554
Lu12 Lu2 3.611604 1_545
Lu12 Lu7 3.613026 1_455
Lu13 Lu2 3.382283 1_556
Lu13 Lu15 3.463645 1_555
Lu13 Lu5 3.523787 1_555
Lu13 Lu9 3.563353 1_556
Lu13 Lu3 3.611604 1_565
Lu13 Lu6 3.613026 1_655
Lu14 Lu16 3.370734 1_565
Lu14 Lu19 3.463645 1_555
Lu14 Lu6 3.523787 1_555
Lu14 Lu5 3.613026 1_555
Lu15 Lu17 3.370734 1_656
Lu15 Lu2 3.382283 1_556
Lu15 Lu5 3.523787 1_555
Lu15 Lu9 3.563353 1_556
Lu15 Lu3 3.611604 1_555
Lu15 Lu6 3.613026 1_655
Lu16 Lu18 3.463645 1_555
Lu16 Lu7 3.523787 1_555
Lu16 Lu4 3.613026 1_555
Lu17 Lu3 3.382283 1_554
Lu17 Lu4 3.523787 1_555
Lu17 Lu8 3.563353 1_554
Lu17 Lu2 3.611604 1_555
Lu17 Lu7 3.613026 1_455
Lu18 Lu19 3.370734 1_555
Lu18 Lu7 3.523787 1_555
Lu18 Lu4 3.613026 1_555
Lu19 Lu6 3.523787 1_555
Lu19 Lu5 3.613026 1_555
Ga0 Lu4 2.873833 1_555
Ga0 Lu19 2.911270 1_555
Ga0 Lu14 2.911270 1_545
Ga0 Lu11 2.926892 1_555
Ga0 Lu0 2.969229 1_555
Ga0 Lu18 2.982847 1_555
Ga0 Lu16 2.982847 1_555
Ga0 Lu8 3.460286 1_555
Ga1 Lu5 2.873833 1_555
Ga1 Lu16 2.911270 1_565
Ga1 Lu18 2.911270 1_555
Ga1 Lu10 2.926892 1_555
Ga1 Lu1 2.969229 1_555
Ga1 Lu14 2.982847 1_555
Ga1 Lu19 2.982847 1_555
Ga1 Lu9 3.460286 1_555
Ga2 Lu6 2.873833 1_554
Ga2 Lu12 2.911270 1_565
Ga2 Lu17 2.911270 1_555
Ga2 Lu9 2.926892 1_455
Ga2 Lu2 2.969229 1_555
Ga2 Lu13 2.982847 1_454
Ga2 Lu15 2.982847 1_454
Ga2 Lu10 3.460286 1_555
Ga3 Lu7 2.873833 1_556
Ga3 Lu15 2.911270 1_555
Ga3 Lu13 2.911270 1_545
Ga3 Lu8 2.926892 1_655
Ga3 Lu3 2.969229 1_555
Ga3 Lu17 2.982847 1_656
Ga3 Lu12 2.982847 1_656
Ga3 Lu11 3.460286 1_555
Bi0 Lu1 3.097408 1_445
Bi0 Lu7 3.115079 1_455
Bi0 Lu10 3.117105 1_545
Bi0 Lu0 3.147271 1_555
Bi0 Lu9 3.213666 1_445
Bi0 Lu4 3.249924 1_555
Bi0 Lu12 3.298641 1_555
Bi0 Lu16 3.310832 1_455
Bi0 Lu14 3.468374 1_545
Bi1 Lu0 3.097408 1_665
Bi1 Lu6 3.115079 1_655
Bi1 Lu11 3.117105 1_565
Bi1 Lu1 3.147271 1_555
Bi1 Lu8 3.213666 1_665
Bi1 Lu5 3.249924 1_555
Bi1 Lu13 3.298641 1_555
Bi1 Lu14 3.310832 1_655
Bi1 Lu16 3.468374 1_565
Bi2 Lu3 3.097408 1_565
Bi2 Lu5 3.115079 1_555
Bi2 Lu8 3.117105 1_565
Bi2 Lu2 3.147271 1_556
Bi2 Lu11 3.213666 1_565
Bi2 Lu6 3.249924 1_555
Bi2 Lu14 3.298641 1_555
Bi2 Lu13 3.310832 1_555
Bi2 Lu12 3.468374 1_566
Bi3 Lu0 3.097408 1_655
Bi3 Lu6 3.115079 1_655
Bi3 Lu11 3.117105 1_555
Bi3 Lu1 3.147271 1_555
Bi3 Lu8 3.213666 1_655
Bi3 Lu5 3.249924 1_555
Bi3 Lu15 3.298641 1_555
Bi3 Lu19 3.310832 1_655
Bi3 Lu18 3.468374 1_555
Bi4 Lu2 3.097408 1_545
Bi4 Lu4 3.115079 1_555
Bi4 Lu9 3.117105 1_545
Bi4 Lu3 3.147271 1_554
Bi4 Lu10 3.213666 1_545
Bi4 Lu7 3.249924 1_555
Bi4 Lu16 3.298641 1_555
Bi4 Lu12 3.310832 1_555
Bi4 Lu13 3.468374 1_544
Bi5 Lu1 3.097408 1_455
Bi5 Lu7 3.115079 1_455
Bi5 Lu10 3.117105 1_555
Bi5 Lu0 3.147271 1_555
Bi5 Lu9 3.213666 1_455
Bi5 Lu4 3.249924 1_555
Bi5 Lu17 3.298641 1_555
Bi5 Lu18 3.310832 1_455
Bi5 Lu19 3.468374 1_555
Bi6 Lu2 3.097408 1_555
Bi6 Lu4 3.115079 1_555
Bi6 Lu9 3.117105 1_555
Bi6 Lu3 3.147271 1_554
Bi6 Lu10 3.213666 1_555
Bi6 Lu7 3.249924 1_555
Bi6 Lu18 3.298641 1_555
Bi6 Lu17 3.310832 1_555
Bi6 Lu15 3.468374 1_554
Bi7 Lu3 3.097408 1_555
Bi7 Lu5 3.115079 1_555
Bi7 Lu8 3.117105 1_555
Bi7 Lu2 3.147271 1_556
Bi7 Lu11 3.213666 1_555
Bi7 Lu6 3.249924 1_555
Bi7 Lu19 3.298641 1_555
Bi7 Lu15 3.310832 1_555
Bi7 Lu17 3.468374 1_556
