# generated using pymatgen
data_Rb3Os2Br9
_symmetry_space_group_name_H-M   'P 1'
_cell_length_a   7.48863026
_cell_length_b   7.48871473
_cell_length_c   18.22053985
_cell_angle_alpha   89.99933546
_cell_angle_beta   90.00189137
_cell_angle_gamma   120.00043097
_symmetry_Int_Tables_number   1
_chemical_formula_structural   Rb3Os2Br9
_chemical_formula_sum   'Rb6 Os4 Br18'
_cell_volume   884.91113750
_cell_formula_units_Z   2
loop_
 _symmetry_equiv_pos_site_id
 _symmetry_equiv_pos_as_xyz
  1  'x, y, z'
loop_
 _atom_site_type_symbol
 _atom_site_label
 _atom_site_symmetry_multiplicity
 _atom_site_fract_x
 _atom_site_fract_y
 _atom_site_fract_z
 _atom_site_occupancy
  Rb  Rb0  1  0.33334004  0.66667201  0.56442947  1
  Rb  Rb1  1  0.66667195  0.33333826  0.06445292  1
  Rb  Rb2  1  0.66667228  0.33333673  0.43556277  1
  Rb  Rb3  1  0.33333727  0.66667079  0.93557863  1
  Rb  Rb4  1  0.00000543  0.00000346  0.24999868  1
  Rb  Rb5  1  0.00000546  0.00000576  0.75001186  1
  Os  Os0  1  0.66666716  0.33333574  0.82400067  1
  Os  Os1  1  0.33333955  0.66665003  0.32403412  1
  Os  Os2  1  0.33329988  0.66664315  0.17596720  1
  Os  Os3  1  0.66666836  0.33333904  0.67598505  1
  Br  Br0  1  0.49940758  -0.00116719  0.25001323  1
  Br  Br1  1  0.50058147  0.49941984  0.74999152  1
  Br  Br2  1  -0.00115938  0.49942058  0.74998770  1
  Br  Br3  1  0.00119197  0.50060375  0.25000444  1
  Br  Br4  1  0.49939725  0.50058719  0.24999957  1
  Br  Br5  1  0.50058858  0.00114698  0.74998250  1
  Br  Br6  1  0.82395451  0.17606580  0.90447142  1
  Br  Br7  1  0.82394322  0.64791349  0.90446612  1
  Br  Br8  1  0.35209802  0.17605245  0.90446856  1
  Br  Br9  1  0.64785515  0.82392852  0.40446806  1
  Br  Br10  1  0.82392948  0.64788714  0.59554248  1
  Br  Br11  1  0.17608456  0.82391703  0.09551912  1
  Br  Br12  1  0.64779860  0.82388306  0.09552648  1
  Br  Br13  1  0.35211136  0.17606323  0.59554222  1
  Br  Br14  1  0.82394054  0.17605849  0.59553818  1
  Br  Br15  1  0.17608742  0.35215212  0.40447073  1
  Br  Br16  1  0.17610701  0.82391175  0.40446727  1
  Br  Br17  1  0.17607528  0.35215780  0.09551901  1
loop_
_geom_bond_atom_site_label_1
_geom_bond_atom_site_label_2
_geom_bond_distance
_geom_bond_site_symmetry_2
Br0 Os1 2.541689 1_545
Br0 Os2 2.541957 1_545
Br0 Rb4 3.744229 1_555
Br0 Rb4 3.744417 1_655
Br0 Rb2 4.016971 1_555
Br0 Rb1 4.017162 1_555
Br1 Os0 2.541470 1_555
Br1 Os3 2.541491 1_555
Br1 Rb5 3.744282 1_555
Br1 Rb5 3.744357 1_665
Br1 Rb0 4.017091 1_555
Br1 Rb3 4.017575 1_555
Br2 Os3 2.541392 1_455
Br2 Os0 2.541570 1_455
Br2 Rb5 3.744344 1_555
Br2 Rb5 3.744386 1_565
Br2 Rb0 4.017143 1_555
Br2 Rb3 4.017520 1_555
Br3 Os2 2.541445 1_555
Br3 Os1 2.541518 1_555
Br3 Rb4 3.744313 1_565
Br3 Rb4 3.744418 1_555
Br3 Rb1 4.016998 1_455
Br3 Rb2 4.017216 1_455
Br4 Os1 2.541504 1_555
Br4 Os2 2.541604 1_555
Br4 Rb4 3.744228 1_555
Br4 Rb4 3.744411 1_665
Br4 Rb1 4.017054 1_555
Br4 Rb2 4.017220 1_555
Br5 Os3 2.541514 1_555
Br5 Os0 2.541683 1_555
Br5 Rb5 3.744229 1_655
Br5 Rb5 3.744416 1_555
Br5 Rb0 4.016923 1_545
Br5 Rb3 4.017609 1_545
Br6 Os0 2.512243 1_555
Br6 Rb1 3.557933 1_556
Br6 Rb5 3.624300 1_655
Br6 Rb3 3.788866 1_655
Br6 Rb3 3.788983 1_545
Br7 Os0 2.512317 1_555
Br7 Rb1 3.558053 1_556
Br7 Rb5 3.624112 1_665
Br7 Rb3 3.788845 1_555
Br7 Rb3 3.789032 1_655
Br8 Os0 2.512323 1_555
Br8 Rb1 3.557937 1_556
Br8 Rb5 3.624066 1_555
Br8 Rb3 3.788972 1_555
Br8 Rb3 3.788978 1_545
Br9 Os1 2.511605 1_555
Br9 Rb0 3.557480 1_555
Br9 Rb4 3.624592 1_665
Br9 Rb2 3.788940 1_555
Br9 Rb2 3.788947 1_565
Br10 Os3 2.511931 1_555
Br10 Rb2 3.557836 1_555
Br10 Rb5 3.624414 1_665
Br10 Rb0 3.788795 1_555
Br10 Rb0 3.789097 1_655
Br11 Os2 2.511643 1_555
Br11 Rb3 3.557113 1_554
Br11 Rb4 3.624806 1_565
Br11 Rb1 3.788779 1_455
Br11 Rb1 3.788870 1_565
Br12 Os2 2.511663 1_555
Br12 Rb3 3.556973 1_554
Br12 Rb4 3.624752 1_665
Br12 Rb1 3.788768 1_555
Br12 Rb1 3.789029 1_565
Br13 Os3 2.511917 1_555
Br13 Rb2 3.557920 1_555
Br13 Rb5 3.624415 1_555
Br13 Rb0 3.788936 1_555
Br13 Rb0 3.789031 1_545
Br14 Os3 2.512026 1_555
Br14 Rb2 3.557725 1_555
Br14 Rb5 3.624436 1_655
Br14 Rb0 3.788873 1_545
Br14 Rb0 3.788990 1_655
Br15 Os1 2.511603 1_555
Br15 Rb0 3.557410 1_555
Br15 Rb4 3.624574 1_555
Br15 Rb2 3.788823 1_555
Br15 Rb2 3.788967 1_455
Br16 Os1 2.511572 1_555
Br16 Rb0 3.557253 1_555
Br16 Rb4 3.624673 1_565
Br16 Rb2 3.788864 1_565
Br16 Rb2 3.788957 1_455
Br17 Os2 2.511646 1_555
Br17 Rb3 3.557129 1_554
Br17 Rb4 3.624725 1_555
Br17 Rb1 3.788757 1_455
Br17 Rb1 3.788893 1_555
