# generated using pymatgen
data_SrNd5S8
_symmetry_space_group_name_H-M   'P 1'
_cell_length_a   7.48372004
_cell_length_b   7.48372004
_cell_length_c   7.48372004
_cell_angle_alpha   109.48423083
_cell_angle_beta   109.48423083
_cell_angle_gamma   109.44520337
_symmetry_Int_Tables_number   1
_chemical_formula_structural   SrNd5S8
_chemical_formula_sum   'Sr1 Nd5 S8'
_cell_volume   322.64923458
_cell_formula_units_Z   1
loop_
 _symmetry_equiv_pos_site_id
 _symmetry_equiv_pos_as_xyz
  1  'x, y, z'
loop_
 _atom_site_type_symbol
 _atom_site_label
 _atom_site_symmetry_multiplicity
 _atom_site_fract_x
 _atom_site_fract_y
 _atom_site_fract_z
 _atom_site_occupancy
  Sr  Sr0  1  0.00000000  0.00000000  0.00000000  1
  Nd  Nd0  1  0.49659700  0.12192000  0.87319800  1
  Nd  Nd1  1  0.75000000  0.25000000  0.50000000  1
  Nd  Nd2  1  0.24872200  0.62339900  0.12680200  1
  Nd  Nd3  1  0.37660100  0.50340300  0.62532300  1
  Nd  Nd4  1  0.87808000  0.75127800  0.37467700  1
  S  S0  1  0.61821200  0.87194800  0.10358700  1
  S  S1  1  0.27859800  0.02528200  0.40466400  1
  S  S2  1  0.48537500  0.38178800  0.25373500  1
  S  S3  1  0.12805200  0.23164000  0.74626500  1
  S  S4  1  0.76836000  0.51462500  0.89641300  1
  S  S5  1  0.97471800  0.37938300  0.25331600  1
  S  S6  1  0.12606600  0.72140200  0.74668400  1
  S  S7  1  0.62061700  0.87393400  0.59533600  1
loop_
_geom_bond_atom_site_label_1
_geom_bond_atom_site_label_2
_geom_bond_distance
_geom_bond_site_symmetry_2
Nd0 S4 2.871876 1_555
Nd0 S6 2.896794 1_545
Nd0 S2 2.910845 1_556
Nd0 S7 2.913697 1_545
Nd0 S1 3.030843 1_555
Nd0 S3 3.076371 1_555
Nd0 S0 3.088551 1_546
Nd0 S5 3.093691 1_556
Nd1 S3 2.892991 1_655
Nd1 S0 2.892993 1_545
Nd1 S4 2.892997 1_555
Nd1 S2 2.892997 1_555
Nd1 S6 3.058307 1_655
Nd1 S1 3.058307 1_555
Nd1 S7 3.058307 1_545
Nd1 S5 3.058309 1_555
Nd2 S0 2.871878 1_555
Nd2 S5 2.896790 1_455
Nd2 S3 2.910843 1_554
Nd2 S1 2.913702 1_565
Nd2 S7 3.030840 1_555
Nd2 S2 3.076364 1_555
Nd2 S4 3.088558 1_454
Nd2 S6 3.093691 1_554
Nd3 S3 2.871879 1_555
Nd3 S7 2.896791 1_555
Nd3 S4 2.910845 1_555
Nd3 S5 2.913705 1_455
Nd3 S6 3.030843 1_555
Nd3 S0 3.076367 1_556
Nd3 S2 3.088558 1_555
Nd3 S1 3.093691 1_555
Nd4 S2 2.871876 1_555
Nd4 S1 2.896794 1_665
Nd4 S0 2.910851 1_555
Nd4 S6 2.913702 1_655
Nd4 S5 3.030836 1_555
Nd4 S4 3.076364 1_554
Nd4 S3 3.088559 1_665
Nd4 S7 3.093698 1_555
S0 Sr0 3.135761 1_665
S1 Sr0 2.949071 1_555
S2 Sr0 3.135761 1_555
S3 Sr0 3.135759 1_556
S4 Sr0 3.135761 1_666
S5 Sr0 2.949077 1_655
S6 Sr0 2.949071 1_566
S7 Sr0 2.949075 1_666
