# generated using pymatgen
data_Ta6Re5Si6Mo
_symmetry_space_group_name_H-M   'P 1'
_cell_length_a   7.52855567
_cell_length_b   7.53309558
_cell_length_c   7.53309635
_cell_angle_alpha   127.04374853
_cell_angle_beta   125.04521172
_cell_angle_gamma   79.83942540
_symmetry_Int_Tables_number   1
_chemical_formula_structural   Ta6Re5Si6Mo
_chemical_formula_sum   'Ta6 Re5 Si6 Mo1'
_cell_volume   269.62088135
_cell_formula_units_Z   1
loop_
 _symmetry_equiv_pos_site_id
 _symmetry_equiv_pos_as_xyz
  1  'x, y, z'
loop_
 _atom_site_type_symbol
 _atom_site_label
 _atom_site_symmetry_multiplicity
 _atom_site_fract_x
 _atom_site_fract_y
 _atom_site_fract_z
 _atom_site_occupancy
  Ta  Ta0  1  0.55497845  0.09652540  0.04055929  1
  Ta  Ta1  1  0.44502155  0.48558083  0.54154794  1
  Ta  Ta2  1  0.96153815  0.49720959  0.03358154  1
  Ta  Ta3  1  0.03846185  0.07204339  0.53567144  1
  Ta  Ta4  1  0.75245098  0.91180436  0.65753740  1
  Ta  Ta5  1  0.24754902  0.90508642  0.15935338  1
  Re  Re0  1  1.00000000  0.24479938  0.24479938  1
  Re  Re1  1  0.15891427  0.75070711  0.65500447  1
  Re  Re2  1  0.84108573  0.49608920  0.59179284  1
  Re  Re3  1  0.59494082  0.75209871  0.09116345  1
  Re  Re4  1  0.40505918  0.49622263  0.15715790  1
  Si  Si0  1  0.77416500  0.53318606  0.25904627  1
  Si  Si1  1  0.22583500  0.48488127  0.75902206  1
  Si  Si2  1  0.33609615  0.82353027  0.49667459  1
  Si  Si3  1  0.66390385  0.16057844  0.48743411  1
  Si  Si4  1  0.82788844  0.82579414  0.98924329  1
  Si  Si5  1  0.17211156  0.16135584  0.99790669  1
  Mo  Mo0  1  0.50000000  0.24470297  0.74470297  1
loop_
_geom_bond_atom_site_label_1
_geom_bond_atom_site_label_2
_geom_bond_distance
_geom_bond_site_symmetry_2
Re0 Si0 2.499447 1_555
Re0 Si1 2.499452 1_655
Re0 Si5 2.570004 1_654
Re0 Si4 2.570008 1_544
Re0 Ta5 2.854281 1_645
Re0 Ta4 2.854281 1_544
Re0 Ta1 2.858244 1_655
Re0 Ta0 2.858246 1_555
Re0 Re1 2.945868 1_655
Re0 Re2 2.945868 1_555
Re0 Ta2 3.025351 1_555
Re0 Ta3 3.025351 1_655
Re1 Si0 2.415703 1_455
Re1 Si1 2.441105 1_555
Re1 Si2 2.525182 1_555
Re1 Si5 2.537295 1_565
Re1 Ta0 2.791348 1_566
Re1 Ta1 2.810473 1_555
Re1 Ta5 2.875962 1_556
Re1 Ta3 2.898474 1_565
Re1 Re2 2.973453 1_455
Re1 Re3 3.025766 1_556
Re1 Ta4 3.092917 1_455
Re1 Ta2 3.163942 1_455
Re2 Si1 2.415701 1_655
Re2 Si0 2.441105 1_555
Re2 Si3 2.525175 1_555
Re2 Si4 2.537290 1_555
Re2 Ta1 2.791351 1_555
Re2 Ta0 2.810473 1_555
Re2 Ta4 2.875969 1_555
Re2 Ta2 2.898470 1_556
Re2 Re4 3.025769 1_555
Re2 Ta5 3.092920 1_656
Re2 Ta3 3.163935 1_655
Re3 Si0 2.430538 1_555
Re3 Si1 2.440204 1_554
Re3 Si3 2.523037 1_565
Re3 Si4 2.525226 1_554
Re3 Ta0 2.784303 1_565
Re3 Ta1 2.804343 1_554
Re3 Ta5 2.863276 1_555
Re3 Ta3 2.906171 1_665
Re3 Re4 2.991495 1_555
Re3 Ta4 3.092808 1_555
Re3 Ta2 3.161324 1_555
Re4 Si1 2.430531 1_554
Re4 Si0 2.440203 1_555
Re4 Si2 2.523037 1_555
Re4 Si5 2.525224 1_554
Re4 Ta1 2.784311 1_555
Re4 Ta0 2.804349 1_555
Re4 Ta4 2.863275 1_555
Re4 Ta2 2.906171 1_455
Re4 Ta5 3.092808 1_555
Re4 Ta3 3.161324 1_554
Si0 Ta2 2.647678 1_555
Si0 Ta4 2.693727 1_555
Si0 Ta0 2.919773 1_555
Si1 Ta3 2.647675 1_555
Si1 Ta5 2.693724 1_556
Si1 Ta1 2.919773 1_555
Si2 Ta2 2.642017 1_455
Si2 Ta0 2.649769 1_566
Si2 Ta5 2.658937 1_555
Si2 Ta4 2.671756 1_555
Si2 Ta3 2.687992 1_565
Si2 Ta1 2.692547 1_555
Si3 Ta3 2.642017 1_655
Si3 Ta1 2.649768 1_555
Si3 Ta4 2.658937 1_545
Si3 Ta5 2.671756 1_545
Si3 Ta2 2.687992 1_556
Si3 Ta0 2.692544 1_555
Si4 Ta2 2.642407 1_556
Si4 Ta0 2.648414 1_566
Si4 Ta5 2.659863 1_656
Si4 Ta4 2.679039 1_555
Si4 Ta3 2.690993 1_666
Si4 Ta1 2.697949 1_555
Si5 Ta3 2.642411 1_555
Si5 Ta1 2.648413 1_556
Si5 Ta4 2.659864 1_445
Si5 Ta5 2.679040 1_546
Si5 Ta2 2.690988 1_456
Si5 Ta0 2.697954 1_556
Mo0 Si0 2.499698 1_556
Mo0 Si1 2.499699 1_555
Mo0 Si2 2.582831 1_545
Mo0 Si3 2.582832 1_555
Mo0 Ta4 2.846035 1_545
Mo0 Ta5 2.846035 1_545
Mo0 Ta1 2.856465 1_555
Mo0 Ta0 2.856471 1_556
Mo0 Re3 2.955404 1_556
Mo0 Re4 2.955405 1_556
Mo0 Ta2 3.014646 1_556
Mo0 Ta3 3.014646 1_555
