# generated using pymatgen
data_ReNiF6
_symmetry_space_group_name_H-M   'P 1'
_cell_length_a   5.42859015
_cell_length_b   5.42859039
_cell_length_c   5.42858988
_cell_angle_alpha   55.20809736
_cell_angle_beta   55.20809873
_cell_angle_gamma   55.20811129
_symmetry_Int_Tables_number   1
_chemical_formula_structural   ReNiF6
_chemical_formula_sum   'Re1 Ni1 F6'
_cell_volume   100.52032592
_cell_formula_units_Z   1
loop_
 _symmetry_equiv_pos_site_id
 _symmetry_equiv_pos_as_xyz
  1  'x, y, z'
loop_
 _atom_site_type_symbol
 _atom_site_label
 _atom_site_symmetry_multiplicity
 _atom_site_fract_x
 _atom_site_fract_y
 _atom_site_fract_z
 _atom_site_occupancy
  Re  Re0  1  0.50000000  0.50000000  0.50000000  1
  Ni  Ni0  1  0.00000000  0.00000000  0.00000000  1
  F  F0  1  0.25173833  0.60851487  0.88842394  1
  F  F1  1  0.60851487  0.88842394  0.25173833  1
  F  F2  1  0.88842394  0.25173833  0.60851487  1
  F  F3  1  0.74826167  0.39148513  0.11157606  1
  F  F4  1  0.39148513  0.11157606  0.74826167  1
  F  F5  1  0.11157606  0.74826167  0.39148513  1
loop_
_geom_bond_atom_site_label_1
_geom_bond_atom_site_label_2
_geom_bond_distance
_geom_bond_site_symmetry_2
F0 Re0 1.969265 1_555
F0 Ni0 1.990222 1_566
F1 Re0 1.969265 1_555
F1 Ni0 1.990222 1_665
F2 Re0 1.969265 1_555
F2 Ni0 1.990222 1_656
F3 Re0 1.969265 1_555
F3 Ni0 1.990222 1_655
F4 Re0 1.969265 1_555
F4 Ni0 1.990222 1_556
F5 Re0 1.969265 1_555
F5 Ni0 1.990222 1_565
