# generated using pymatgen
data_Ta10Ga3Si2P
_symmetry_space_group_name_H-M   'P 1'
_cell_length_a   6.58451033
_cell_length_b   7.55389870
_cell_length_c   6.58451038
_cell_angle_alpha   115.86615401
_cell_angle_beta   89.94279359
_cell_angle_gamma   115.86615794
_symmetry_Int_Tables_number   1
_chemical_formula_structural   Ta10Ga3Si2P
_chemical_formula_sum   'Ta10 Ga3 Si2 P1'
_cell_volume   257.81862166
_cell_formula_units_Z   1
loop_
 _symmetry_equiv_pos_site_id
 _symmetry_equiv_pos_as_xyz
  1  'x, y, z'
loop_
 _atom_site_type_symbol
 _atom_site_label
 _atom_site_symmetry_multiplicity
 _atom_site_fract_x
 _atom_site_fract_y
 _atom_site_fract_z
 _atom_site_occupancy
  Ta  Ta0  1  0.99474904  0.00000000  0.00306227  1
  Ta  Ta1  1  0.50306227  1.00000000  0.49474904  1
  Ta  Ta2  1  0.51770273  0.70158126  0.68991012  1
  Ta  Ta3  1  0.18991012  0.70158126  0.01770273  1
  Ta  Ta4  1  0.68783268  0.70608350  0.18783268  1
  Ta  Ta5  1  0.00773167  0.69595590  0.50773167  1
  Ta  Ta6  1  0.48832986  0.29841874  0.31612247  1
  Ta  Ta7  1  0.81612247  0.29841874  0.98832986  1
  Ta  Ta8  1  0.31177678  0.30404410  0.81177678  1
  Ta  Ta9  1  0.98175018  0.29391650  0.48175018  1
  Ga  Ga0  1  0.75324264  0.50000000  0.75324264  1
  Ga  Ga1  1  0.25324264  0.50000000  0.25324264  1
  Ga  Ga2  1  0.36344638  1.00000000  0.86344638  1
  Si  Si0  1  0.87087038  0.00000000  0.63154023  1
  Si  Si1  1  0.13154023  1.00000000  0.37087038  1
  P  P0  1  0.62868693  0.00000000  0.12868693  1
loop_
_geom_bond_atom_site_label_1
_geom_bond_atom_site_label_2
_geom_bond_distance
_geom_bond_site_symmetry_2
Ga0 Ta4 2.737355 1_556
Ga0 Ta9 2.737358 1_555
Ga0 Ta3 2.737553 1_656
Ga0 Ta7 2.737561 1_555
Ga0 Ta6 2.741139 1_555
Ga0 Ta2 2.741147 1_555
Ga0 Ta8 2.744180 1_555
Ga0 Ta5 2.744183 1_655
Ga0 Ta0 2.973818 1_566
Ga0 Ta1 2.973818 1_545
Ga1 Ta4 2.737355 1_555
Ga1 Ta9 2.737357 1_455
Ga1 Ta2 2.737553 1_555
Ga1 Ta6 2.737561 1_555
Ga1 Ta7 2.741139 1_454
Ga1 Ta3 2.741147 1_555
Ga1 Ta8 2.744180 1_554
Ga1 Ta5 2.744183 1_555
Ga1 Ta1 2.973818 1_555
Ga1 Ta0 2.973818 1_455
Ga2 P0 2.471127 1_566
Ga2 Ta0 2.595062 1_466
Ga2 Ta1 2.595062 1_555
Ga2 Ta8 2.621112 1_565
Ga2 Ta5 2.621119 1_555
Ga2 Ta3 2.677092 1_556
Ga2 Ta2 2.677092 1_555
Ga2 Ta7 2.677096 1_565
Ga2 Ta6 2.677096 1_566
Si0 Si1 2.426121 1_645
Si0 Ta0 2.579468 1_556
Si0 Ta1 2.584746 1_545
Si0 Ta2 2.610969 1_545
Si0 Ta7 2.610969 1_555
Si0 Ta5 2.631038 1_645
Si0 Ta8 2.631043 1_655
Si0 Ta9 2.632499 1_555
Si0 Ta4 2.632505 1_545
Si1 Ta1 2.579468 1_555
Si1 Ta0 2.584746 1_465
Si1 Ta6 2.610969 1_565
Si1 Ta3 2.610969 1_555
Si1 Ta5 2.631038 1_555
Si1 Ta8 2.631043 1_565
Si1 Ta9 2.632499 1_465
Si1 Ta4 2.632505 1_455
P0 Ta0 2.547544 1_555
P0 Ta1 2.547544 1_545
P0 Ta4 2.596514 1_545
P0 Ta9 2.596521 1_555
P0 Ta7 2.616644 1_554
P0 Ta6 2.616644 1_555
P0 Ta3 2.616648 1_545
P0 Ta2 2.616649 1_544
