# generated using pymatgen
data_NbCu(AgTe2)2
_symmetry_space_group_name_H-M   'P 1'
_cell_length_a   6.37955518
_cell_length_b   6.04336032
_cell_length_c   6.37955518
_cell_angle_alpha   90.00000000
_cell_angle_beta   90.00000000
_cell_angle_gamma   90.00000000
_symmetry_Int_Tables_number   1
_chemical_formula_structural   NbCu(AgTe2)2
_chemical_formula_sum   'Nb1 Cu1 Ag2 Te4'
_cell_volume   245.95705529
_cell_formula_units_Z   1
loop_
 _symmetry_equiv_pos_site_id
 _symmetry_equiv_pos_as_xyz
  1  'x, y, z'
loop_
 _atom_site_type_symbol
 _atom_site_label
 _atom_site_symmetry_multiplicity
 _atom_site_fract_x
 _atom_site_fract_y
 _atom_site_fract_z
 _atom_site_occupancy
  Nb  Nb0  1  0.00000000  0.00000000  0.00000000  1
  Cu  Cu0  1  0.00000000  0.50000000  0.00000000  1
  Ag  Ag0  1  0.50000000  0.00000000  0.00000000  1
  Ag  Ag1  1  0.00000000  0.00000000  0.50000000  1
  Te  Te0  1  0.23866072  0.26560260  0.23866072  1
  Te  Te1  1  0.76133928  0.73439740  0.23866072  1
  Te  Te2  1  0.76133928  0.26560260  0.76133928  1
  Te  Te3  1  0.23866072  0.73439740  0.76133928  1
loop_
_geom_bond_atom_site_label_1
_geom_bond_atom_site_label_2
_geom_bond_distance
_geom_bond_site_symmetry_2
Nb0 Te0 2.685659 1_555
Nb0 Te3 2.685659 1_544
Nb0 Te1 2.685659 1_445
Nb0 Te2 2.685659 1_454
Cu0 Te0 2.577386 1_555
Cu0 Te3 2.577386 1_554
Cu0 Te1 2.577386 1_455
Cu0 Te2 2.577386 1_454
Cu0 Nb0 3.021680 1_555
Cu0 Nb0 3.021680 1_565
Ag0 Te1 2.770245 1_545
Ag0 Te0 2.770245 1_555
Ag0 Te2 2.770245 1_554
Ag0 Te3 2.770245 1_544
Ag0 Nb0 3.189778 1_555
Ag0 Nb0 3.189778 1_655
Ag1 Te3 2.770245 1_545
Ag1 Te2 2.770245 1_455
Ag1 Te0 2.770245 1_555
Ag1 Te1 2.770245 1_445
Ag1 Nb0 3.189778 1_556
Ag1 Nb0 3.189778 1_555
