# generated using pymatgen
data_Hf3Zr(SeO3)8
_symmetry_space_group_name_H-M   'P 1'
_cell_length_a   8.59419241
_cell_length_b   8.59419135
_cell_length_c   8.59419127
_cell_angle_alpha   90.06687990
_cell_angle_beta   89.93312016
_cell_angle_gamma   90.06687141
_symmetry_Int_Tables_number   1
_chemical_formula_structural   Hf3Zr(SeO3)8
_chemical_formula_sum   'Hf3 Zr1 Se8 O24'
_cell_volume   634.76682319
_cell_formula_units_Z   1
loop_
 _symmetry_equiv_pos_site_id
 _symmetry_equiv_pos_as_xyz
  1  'x, y, z'
loop_
 _atom_site_type_symbol
 _atom_site_label
 _atom_site_symmetry_multiplicity
 _atom_site_fract_x
 _atom_site_fract_y
 _atom_site_fract_z
 _atom_site_occupancy
  Hf  Hf0  1  0.50000000  0.50000000  0.00000000  1
  Hf  Hf1  1  0.50000000  0.00000000  0.50000000  1
  Hf  Hf2  1  0.00000000  0.00000000  0.00000000  1
  Zr  Zr0  1  0.00000000  0.50000000  0.50000000  1
  Se  Se0  1  0.80509575  0.19015118  0.69528186  1
  Se  Se1  1  0.19490425  0.80984882  0.30471814  1
  Se  Se2  1  0.69015118  0.69528186  0.69490425  1
  Se  Se3  1  0.19528186  0.69490425  0.80984882  1
  Se  Se4  1  0.30645477  0.19354523  0.80645477  1
  Se  Se5  1  0.80471814  0.30509575  0.19015118  1
  Se  Se6  1  0.69354523  0.80645477  0.19354523  1
  Se  Se7  1  0.30984882  0.30471814  0.30509575  1
  O  O0  1  0.21927316  0.41723251  0.43995742  1
  O  O1  1  0.94217517  0.21915544  0.07653757  1
  O  O2  1  0.06004258  0.71927316  0.41723251  1
  O  O3  1  0.44134430  0.28143442  0.92137169  1
  O  O4  1  0.28084456  0.92346243  0.44217517  1
  O  O5  1  0.57653757  0.55782483  0.78084456  1
  O  O6  1  0.92072839  0.05492054  0.78123765  1
  O  O7  1  0.55865570  0.71856558  0.07862831  1
  O  O8  1  0.57862831  0.94134430  0.28143442  1
  O  O9  1  0.42137169  0.05865570  0.71856558  1
  O  O10  1  0.78143442  0.92137169  0.05865570  1
  O  O11  1  0.28123765  0.57927161  0.94507946  1
  O  O12  1  0.08276749  0.56004258  0.71927316  1
  O  O13  1  0.07927161  0.94507946  0.21876235  1
  O  O14  1  0.21856558  0.07862831  0.94134430  1
  O  O15  1  0.42346243  0.44217517  0.21915544  1
  O  O16  1  0.78072684  0.58276749  0.56004258  1
  O  O17  1  0.91723251  0.43995742  0.28072684  1
  O  O18  1  0.05782483  0.78084456  0.92346243  1
  O  O19  1  0.44507946  0.21876235  0.42072839  1
  O  O20  1  0.55492054  0.78123765  0.57927161  1
  O  O21  1  0.93995742  0.28072684  0.58276749  1
  O  O22  1  0.71915544  0.07653757  0.55782483  1
  O  O23  1  0.71876235  0.42072839  0.05492054  1
loop_
_geom_bond_atom_site_label_1
_geom_bond_atom_site_label_2
_geom_bond_distance
_geom_bond_site_symmetry_2
Hf0 O5 2.055628 1_554
Hf0 O15 2.055628 1_555
Hf0 O23 2.056077 1_555
Hf0 O11 2.056077 1_554
Hf0 O7 2.057847 1_555
Hf0 O3 2.057847 1_554
Hf1 O22 2.055628 1_555
Hf1 O4 2.055628 1_545
Hf1 O20 2.056077 1_545
Hf1 O19 2.056077 1_555
Hf1 O9 2.057847 1_555
Hf1 O8 2.057847 1_545
Hf2 O1 2.055628 1_455
Hf2 O18 2.055628 1_544
Hf2 O13 2.056077 1_545
Hf2 O6 2.056077 1_454
Hf2 O14 2.057848 1_554
Hf2 O10 2.057848 1_445
O0 Se7 1.697455 1_555
O0 Zr0 2.079303 1_555
O1 Se5 1.700620 1_555
O2 Se1 1.697455 1_555
O2 Zr0 2.079303 1_555
O3 Se4 1.699620 1_555
O4 Se1 1.700620 1_555
O5 Se2 1.700620 1_555
O6 Se0 1.700119 1_555
O7 Se6 1.699620 1_555
O8 Se6 1.699620 1_555
O9 Se4 1.699620 1_555
O10 Se6 1.699620 1_555
O11 Se3 1.700119 1_555
O12 Se3 1.697455 1_555
O12 Zr0 2.079303 1_555
O13 Se1 1.700119 1_555
O14 Se4 1.699620 1_555
O15 Se7 1.700620 1_555
O16 Se2 1.697455 1_555
O16 Zr0 2.079303 1_655
O17 Se5 1.697455 1_555
O17 Zr0 2.079303 1_655
O18 Se3 1.700620 1_555
O19 Se7 1.700119 1_555
O20 Se2 1.700119 1_555
O21 Se0 1.697455 1_555
O21 Zr0 2.079303 1_655
O22 Se0 1.700620 1_555
O23 Se5 1.700119 1_555
