# generated using pymatgen
data_Rb3Li2NbAs3
_symmetry_space_group_name_H-M   'P 1'
_cell_length_a   10.17524859
_cell_length_b   10.17524897
_cell_length_c   15.91655204
_cell_angle_alpha   90.00000000
_cell_angle_beta   90.00000000
_cell_angle_gamma   142.43835750
_symmetry_Int_Tables_number   1
_chemical_formula_structural   Rb3Li2NbAs3
_chemical_formula_sum   'Rb12 Li8 Nb4 As12'
_cell_volume   1004.60292392
_cell_formula_units_Z   4
loop_
 _symmetry_equiv_pos_site_id
 _symmetry_equiv_pos_as_xyz
  1  'x, y, z'
loop_
 _atom_site_type_symbol
 _atom_site_label
 _atom_site_symmetry_multiplicity
 _atom_site_fract_x
 _atom_site_fract_y
 _atom_site_fract_z
 _atom_site_occupancy
  Rb  Rb0  1  0.60788519  0.94692481  0.82823012  1
  Rb  Rb1  1  0.28562622  0.28562622  0.31606631  1
  Rb  Rb2  1  0.21437378  0.21437378  0.81606631  1
  Rb  Rb3  1  0.71437378  0.71437378  0.68393369  1
  Rb  Rb4  1  0.44692481  0.10788519  0.67176988  1
  Rb  Rb5  1  0.89211481  0.55307519  0.32823012  1
  Rb  Rb6  1  0.05307519  0.39211481  0.17176988  1
  Rb  Rb7  1  0.39211481  0.05307519  0.17176988  1
  Rb  Rb8  1  0.55307519  0.89211481  0.32823012  1
  Rb  Rb9  1  0.10788519  0.44692481  0.67176988  1
  Rb  Rb10  1  0.94692481  0.60788519  0.82823012  1
  Rb  Rb11  1  0.78562622  0.78562622  0.18393369  1
  Li  Li0  1  0.08162570  0.91837430  0.00000000  1
  Li  Li1  1  0.58162570  0.41837430  0.50000000  1
  Li  Li2  1  0.91837430  0.08162570  0.00000000  1
  Li  Li3  1  0.74983417  0.25016583  0.00000000  1
  Li  Li4  1  0.75016583  0.24983417  0.50000000  1
  Li  Li5  1  0.25016583  0.74983417  0.00000000  1
  Li  Li6  1  0.24983417  0.75016583  0.50000000  1
  Li  Li7  1  0.41837430  0.58162570  0.50000000  1
  Nb  Nb0  1  0.08209174  0.91790826  0.50000000  1
  Nb  Nb1  1  0.41790826  0.58209174  0.00000000  1
  Nb  Nb2  1  0.91790826  0.08209174  0.50000000  1
  Nb  Nb3  1  0.58209174  0.41790826  0.00000000  1
  As  As0  1  0.06781320  0.38593229  0.41362691  1
  As  As1  1  0.88593229  0.56781320  0.08637309  1
  As  As2  1  0.43218680  0.11406771  0.91362691  1
  As  As3  1  0.61406771  0.93218680  0.58637309  1
  As  As4  1  0.93218680  0.61406771  0.58637309  1
  As  As5  1  0.11406771  0.43218680  0.91362691  1
  As  As6  1  0.56781320  0.88593229  0.08637309  1
  As  As7  1  0.38593229  0.06781320  0.41362691  1
  As  As8  1  0.22590284  0.22590284  0.58803013  1
  As  As9  1  0.72590284  0.72590284  0.91196987  1
  As  As10  1  0.27409716  0.27409716  0.08803013  1
  As  As11  1  0.77409716  0.77409716  0.41196987  1
loop_
_geom_bond_atom_site_label_1
_geom_bond_atom_site_label_2
_geom_bond_distance
_geom_bond_site_symmetry_2
As0 Nb2 2.509690 1_455
As0 Li4 2.675495 1_455
As0 Li7 2.705184 1_555
As0 Li6 2.858922 1_555
As0 Rb1 3.457052 1_555
As0 Rb8 3.526591 1_555
As0 Rb5 3.571621 1_455
As0 Rb8 3.578281 1_445
As0 Rb6 3.854904 1_555
As1 Nb3 2.509690 1_555
As1 Li3 2.675496 1_555
As1 Li0 2.705184 1_655
As1 Li5 2.858922 1_655
As1 Rb11 3.457052 1_555
As1 Rb7 3.526591 1_665
As1 Rb6 3.571621 1_655
As1 Rb7 3.578281 1_555
As1 Rb5 3.854904 1_555
As2 Nb3 2.509690 1_556
As2 Li3 2.675495 1_556
As2 Li0 2.705184 1_546
As2 Li5 2.858922 1_546
As2 Rb2 3.457052 1_555
As2 Rb10 3.526591 1_445
As2 Rb0 3.571621 1_545
As2 Rb10 3.578281 1_555
As2 Rb4 3.854904 1_555
As3 Nb2 2.509690 1_565
As3 Li4 2.675496 1_565
As3 Li7 2.705184 1_555
As3 Li6 2.858922 1_555
As3 Rb3 3.457052 1_555
As3 Rb9 3.526591 1_555
As3 Rb4 3.571621 1_565
As3 Rb9 3.578281 1_665
As3 Rb0 3.854904 1_555
As4 Nb0 2.509690 1_655
As4 Li6 2.675495 1_655
As4 Li1 2.705184 1_555
As4 Li4 2.858922 1_555
As4 Rb3 3.457052 1_555
As4 Rb4 3.526591 1_555
As4 Rb9 3.571621 1_655
As4 Rb4 3.578281 1_665
As4 Rb10 3.854904 1_555
As5 Nb1 2.509690 1_556
As5 Li5 2.675496 1_556
As5 Li2 2.705184 1_456
As5 Li3 2.858922 1_456
As5 Rb2 3.457052 1_555
As5 Rb0 3.526591 1_445
As5 Rb10 3.571621 1_455
As5 Rb0 3.578281 1_555
As5 Rb9 3.854904 1_555
As6 Nb1 2.509690 1_555
As6 Li5 2.675495 1_555
As6 Li2 2.705184 1_565
As6 Li3 2.858922 1_565
As6 Rb11 3.457052 1_555
As6 Rb6 3.526591 1_665
As6 Rb7 3.571621 1_565
As6 Rb6 3.578281 1_555
As6 Rb8 3.854904 1_555
As7 Nb0 2.509690 1_545
As7 Li6 2.675496 1_545
As7 Li1 2.705184 1_555
As7 Li4 2.858922 1_555
As7 Rb1 3.457052 1_555
As7 Rb5 3.526591 1_555
As7 Rb8 3.571621 1_545
As7 Rb5 3.578281 1_445
As7 Rb7 3.854904 1_555
As8 Nb2 2.579816 1_455
As8 Nb0 2.579816 1_545
As8 Li1 2.767947 1_555
As8 Li7 2.767947 1_555
As8 Rb4 3.543724 1_555
As8 Rb9 3.543724 1_555
As8 Rb3 3.545765 1_555
As8 Rb2 3.630336 1_555
As8 Rb3 3.682696 1_445
As9 Nb1 2.579816 1_556
As9 Nb3 2.579816 1_556
As9 Li0 2.767947 1_656
As9 Li2 2.767947 1_566
As9 Rb10 3.543724 1_555
As9 Rb0 3.543724 1_555
As9 Rb2 3.545765 1_665
As9 Rb3 3.630336 1_555
As9 Rb2 3.682696 1_555
As10 Nb3 2.579816 1_555
As10 Nb1 2.579816 1_555
As10 Li2 2.767947 1_455
As10 Li0 2.767947 1_545
As10 Rb6 3.543724 1_555
As10 Rb7 3.543724 1_555
As10 Rb11 3.545765 1_445
As10 Rb1 3.630336 1_555
As10 Rb11 3.682696 1_555
As11 Nb0 2.579816 1_655
As11 Nb2 2.579816 1_565
As11 Li7 2.767947 1_555
As11 Li1 2.767947 1_555
As11 Rb8 3.543724 1_555
As11 Rb5 3.543724 1_555
As11 Rb1 3.545765 1_555
As11 Rb11 3.630336 1_555
As11 Rb1 3.682696 1_665
