# generated using pymatgen
data_Ba4Ta(IrO4)3
_symmetry_space_group_name_H-M   'P 1'
_cell_length_a   10.14284530
_cell_length_b   10.14284527
_cell_length_c   10.14284610
_cell_angle_alpha   33.30349362
_cell_angle_beta   33.30349414
_cell_angle_gamma   33.30349034
_symmetry_Int_Tables_number   1
_chemical_formula_structural   Ba4Ta(IrO4)3
_chemical_formula_sum   'Ba4 Ta1 Ir3 O12'
_cell_volume   280.09355245
_cell_formula_units_Z   1
loop_
 _symmetry_equiv_pos_site_id
 _symmetry_equiv_pos_as_xyz
  1  'x, y, z'
loop_
 _atom_site_type_symbol
 _atom_site_label
 _atom_site_symmetry_multiplicity
 _atom_site_fract_x
 _atom_site_fract_y
 _atom_site_fract_z
 _atom_site_occupancy
  Ba  Ba0  1  0.71416459  0.71416459  0.71416459  1
  Ba  Ba1  1  0.28583541  0.28583541  0.28583541  1
  Ba  Ba2  1  0.87086445  0.87086445  0.87086445  1
  Ba  Ba3  1  0.12913555  0.12913555  0.12913555  1
  Ta  Ta0  1  0.00000000  0.00000000  0.00000000  1
  Ir  Ir0  1  0.41219927  0.41219927  0.41219927  1
  Ir  Ir1  1  0.50000000  0.50000000  0.50000000  1
  Ir  Ir2  1  0.58780073  0.58780073  0.58780073  1
  O  O0  1  0.20216623  0.20216623  0.71364093  1
  O  O1  1  0.71364093  0.20216623  0.20216623  1
  O  O2  1  0.20216623  0.71364093  0.20216623  1
  O  O3  1  0.79783377  0.28635907  0.79783377  1
  O  O4  1  0.79783377  0.79783377  0.28635907  1
  O  O5  1  0.28635907  0.79783377  0.79783377  1
  O  O6  1  0.38382738  0.38382738  0.86372079  1
  O  O7  1  0.86372079  0.38382738  0.38382738  1
  O  O8  1  0.13627921  0.61617262  0.61617262  1
  O  O9  1  0.61617262  0.61617262  0.13627921  1
  O  O10  1  0.61617262  0.13627921  0.61617262  1
  O  O11  1  0.38382738  0.86372079  0.38382738  1
loop_
_geom_bond_atom_site_label_1
_geom_bond_atom_site_label_2
_geom_bond_distance
_geom_bond_site_symmetry_2
Ba0 O10 2.780569 1_565
Ba0 O8 2.780569 1_655
Ba0 O9 2.780569 1_556
Ba0 O0 2.916185 1_655
Ba0 O0 2.916185 1_565
Ba0 O1 2.916185 1_556
Ba0 O2 2.916185 1_556
Ba0 O1 2.916185 1_565
Ba0 O2 2.916185 1_655
Ba0 O3 3.026873 1_555
Ba0 O5 3.026873 1_555
Ba0 O4 3.026873 1_555
Ba1 O11 2.780569 1_545
Ba1 O7 2.780569 1_455
Ba1 O6 2.780569 1_554
Ba1 O4 2.916185 1_455
Ba1 O4 2.916185 1_545
Ba1 O5 2.916185 1_554
Ba1 O3 2.916185 1_554
Ba1 O5 2.916185 1_545
Ba1 O3 2.916185 1_455
Ba1 O2 3.026873 1_555
Ba1 O1 3.026873 1_555
Ba1 O0 3.026873 1_555
Ba2 O6 2.912806 1_565
Ba2 O6 2.912806 1_655
Ba2 O7 2.912807 1_565
Ba2 O11 2.912807 1_655
Ba2 O7 2.912807 1_556
Ba2 O11 2.912807 1_556
Ba2 O9 2.915444 1_556
Ba2 O10 2.915444 1_565
Ba2 O8 2.915444 1_655
Ba2 O3 3.055935 1_565
Ba2 O5 3.055935 1_655
Ba2 O4 3.055935 1_556
Ba3 O9 2.912806 1_545
Ba3 O9 2.912806 1_455
Ba3 O8 2.912807 1_545
Ba3 O10 2.912807 1_455
Ba3 O8 2.912807 1_554
Ba3 O10 2.912807 1_554
Ba3 O6 2.915444 1_554
Ba3 O11 2.915444 1_545
Ba3 O7 2.915444 1_455
Ba3 O2 3.055935 1_545
Ba3 O1 3.055935 1_455
Ba3 O0 3.055935 1_554
Ir0 O9 2.047161 1_555
Ir0 O10 2.047161 1_555
Ir0 O8 2.047161 1_555
Ir0 O2 2.058094 1_555
Ir0 O0 2.058094 1_555
Ir0 O1 2.058094 1_555
Ir1 O11 2.043319 1_555
Ir1 O10 2.043319 1_555
Ir1 O7 2.043319 1_555
Ir1 O8 2.043319 1_555
Ir1 O6 2.043320 1_555
Ir1 O9 2.043320 1_555
Ir2 O6 2.047161 1_555
Ir2 O11 2.047161 1_555
Ir2 O7 2.047161 1_555
Ir2 O3 2.058094 1_555
Ir2 O4 2.058094 1_555
Ir2 O5 2.058094 1_555
O0 Ta0 1.990767 1_556
O1 Ta0 1.990767 1_655
O2 Ta0 1.990767 1_565
O3 Ta0 1.990767 1_656
O4 Ta0 1.990767 1_665
O5 Ta0 1.990767 1_566
