# generated using pymatgen
data_Nb12Zn11PtC4
_symmetry_space_group_name_H-M   'P 1'
_cell_length_a   8.33284136
_cell_length_b   8.33284164
_cell_length_c   8.33284137
_cell_angle_alpha   59.64979954
_cell_angle_beta   59.64979872
_cell_angle_gamma   59.64980059
_symmetry_Int_Tables_number   1
_chemical_formula_structural   Nb12Zn11PtC4
_chemical_formula_sum   'Nb12 Zn11 Pt1 C4'
_cell_volume   405.87729703
_cell_formula_units_Z   1
loop_
 _symmetry_equiv_pos_site_id
 _symmetry_equiv_pos_as_xyz
  1  'x, y, z'
loop_
 _atom_site_type_symbol
 _atom_site_label
 _atom_site_symmetry_multiplicity
 _atom_site_fract_x
 _atom_site_fract_y
 _atom_site_fract_z
 _atom_site_occupancy
  Nb  Nb0  1  0.81620683  0.81620683  0.19069517  1
  Nb  Nb1  1  0.18228958  0.18228958  0.81755231  1
  Nb  Nb2  1  0.81620683  0.19069517  0.81620683  1
  Nb  Nb3  1  0.18228958  0.81755231  0.18228958  1
  Nb  Nb4  1  0.19069517  0.81620683  0.81620683  1
  Nb  Nb5  1  0.81755231  0.18228958  0.18228958  1
  Nb  Nb6  1  0.43379317  0.43379317  0.05930483  1
  Nb  Nb7  1  0.06771042  0.06771042  0.43244769  1
  Nb  Nb8  1  0.43379317  0.05930483  0.43379317  1
  Nb  Nb9  1  0.06771042  0.43244769  0.06771042  1
  Nb  Nb10  1  0.05930483  0.43379317  0.43379317  1
  Nb  Nb11  1  0.43244769  0.06771042  0.06771042  1
  Zn  Zn0  1  0.12500000  0.62500000  0.62500000  1
  Zn  Zn1  1  0.62500000  0.12500000  0.62500000  1
  Zn  Zn2  1  0.62500000  0.62500000  0.12500000  1
  Zn  Zn3  1  0.74359727  0.41611614  0.41611614  1
  Zn  Zn4  1  0.41611614  0.74359727  0.41611614  1
  Zn  Zn5  1  0.41611614  0.41611614  0.74359727  1
  Zn  Zn6  1  0.41467876  0.41467876  0.41467876  1
  Zn  Zn7  1  0.50640273  0.83388386  0.83388386  1
  Zn  Zn8  1  0.83388386  0.50640273  0.83388386  1
  Zn  Zn9  1  0.83388386  0.83388386  0.50640273  1
  Zn  Zn10  1  0.83532124  0.83532124  0.83532124  1
  Pt  Pt0  1  0.62500000  0.62500000  0.62500000  1
  C  C0  1  0.62500000  0.12500000  0.12500000  1
  C  C1  1  0.12500000  0.62500000  0.12500000  1
  C  C2  1  0.12500000  0.12500000  0.62500000  1
  C  C3  1  0.12500000  0.12500000  0.12500000  1
loop_
_geom_bond_atom_site_label_1
_geom_bond_atom_site_label_2
_geom_bond_distance
_geom_bond_site_symmetry_2
Nb0 Zn10 2.809311 1_554
Nb0 Pt0 3.014231 1_555
Nb0 Zn2 3.115308 1_555
Nb1 Zn6 3.069228 1_555
Nb1 Zn1 3.069861 1_555
Nb1 Zn0 3.069862 1_555
Nb2 Zn10 2.809311 1_545
Nb2 Pt0 3.014231 1_555
Nb2 Zn1 3.115308 1_555
Nb3 Zn6 3.069228 1_555
Nb3 Zn0 3.069861 1_555
Nb3 Zn2 3.069861 1_555
Nb4 Zn10 2.809311 1_455
Nb4 Pt0 3.014231 1_555
Nb4 Zn0 3.115308 1_555
Nb5 Zn6 3.069228 1_555
Nb5 Zn1 3.069861 1_555
Nb5 Zn2 3.069862 1_555
Nb6 Zn6 2.809311 1_555
Nb6 Pt0 3.014231 1_554
Nb6 Zn2 3.115308 1_555
Nb7 Zn10 3.069228 1_445
Nb7 Zn1 3.069861 1_455
Nb7 Zn0 3.069862 1_545
Nb8 Zn6 2.809311 1_555
Nb8 Pt0 3.014231 1_545
Nb8 Zn1 3.115308 1_555
Nb9 Zn10 3.069228 1_454
Nb9 Zn0 3.069861 1_554
Nb9 Zn2 3.069861 1_455
Nb10 Zn6 2.809311 1_555
Nb10 Pt0 3.014231 1_455
Nb10 Zn0 3.115308 1_555
Nb11 Zn10 3.069228 1_544
Nb11 Zn1 3.069861 1_554
Nb11 Zn2 3.069862 1_545
Zn0 Zn4 2.511628 1_555
Zn0 Zn8 2.511628 1_455
Zn0 Zn5 2.511628 1_555
Zn0 Zn9 2.511628 1_455
Zn0 Zn10 2.554086 1_455
Zn0 Zn6 2.554086 1_555
Zn1 Zn3 2.511628 1_555
Zn1 Zn7 2.511628 1_545
Zn1 Zn5 2.511628 1_555
Zn1 Zn9 2.511628 1_545
Zn1 Zn10 2.554086 1_545
Zn1 Zn6 2.554086 1_555
Zn2 Zn4 2.511628 1_555
Zn2 Zn8 2.511628 1_554
Zn2 Zn3 2.511628 1_555
Zn2 Zn7 2.511628 1_554
Zn2 Zn6 2.554086 1_555
Zn3 Zn6 2.752982 1_555
Zn4 Zn6 2.752982 1_555
Zn5 Zn6 2.752982 1_555
Zn10 Zn2 2.554086 1_556
Zn10 Zn7 2.752982 1_555
Zn10 Zn9 2.752982 1_555
Zn10 Zn8 2.752982 1_555
Pt0 Zn8 2.573136 1_555
Pt0 Zn4 2.573136 1_555
Pt0 Zn9 2.573136 1_555
Pt0 Zn5 2.573136 1_555
Pt0 Zn7 2.573136 1_555
Pt0 Zn3 2.573136 1_555
C0 Nb8 2.184974 1_555
C0 Nb2 2.184974 1_554
C0 Nb6 2.184974 1_555
C0 Nb0 2.184974 1_545
C0 Nb5 2.192868 1_555
C0 Nb11 2.192868 1_555
C1 Nb4 2.184974 1_554
C1 Nb10 2.184974 1_555
C1 Nb6 2.184974 1_555
C1 Nb0 2.184974 1_455
C1 Nb3 2.192868 1_555
C1 Nb9 2.192868 1_555
C2 Nb8 2.184974 1_555
C2 Nb2 2.184974 1_455
C2 Nb10 2.184974 1_555
C2 Nb4 2.184974 1_545
C2 Nb1 2.192868 1_555
C2 Nb7 2.192868 1_555
C3 Nb7 2.185774 1_555
C3 Nb1 2.185774 1_554
C3 Nb11 2.185774 1_555
C3 Nb5 2.185774 1_455
C3 Nb9 2.185774 1_555
C3 Nb3 2.185774 1_545
