# generated using pymatgen
data_Rb2Ba(SeO4)2
_symmetry_space_group_name_H-M   'P 1'
_cell_length_a   8.19223803
_cell_length_b   8.19223719
_cell_length_c   8.19223765
_cell_angle_alpha   41.92771530
_cell_angle_beta   41.92772186
_cell_angle_gamma   41.92771883
_symmetry_Int_Tables_number   1
_chemical_formula_structural   Rb2Ba(SeO4)2
_chemical_formula_sum   'Rb2 Ba1 Se2 O8'
_cell_volume   222.01916724
_cell_formula_units_Z   1
loop_
 _symmetry_equiv_pos_site_id
 _symmetry_equiv_pos_as_xyz
  1  'x, y, z'
loop_
 _atom_site_type_symbol
 _atom_site_label
 _atom_site_symmetry_multiplicity
 _atom_site_fract_x
 _atom_site_fract_y
 _atom_site_fract_z
 _atom_site_occupancy
  Rb  Rb0  1  0.20000003  0.20000003  0.20000003  1
  Rb  Rb1  1  0.79999997  0.79999997  0.79999997  1
  Ba  Ba0  1  0.00000000  0.00000000  0.00000000  1
  Se  Se0  1  0.40279726  0.40279726  0.40279726  1
  Se  Se1  1  0.59720274  0.59720274  0.59720274  1
  O  O0  1  0.27344598  0.73527362  0.27344698  1
  O  O1  1  0.73527362  0.27344598  0.27344698  1
  O  O2  1  0.72655402  0.72655402  0.26472638  1
  O  O3  1  0.32886498  0.32886498  0.32886498  1
  O  O4  1  0.67113502  0.67113502  0.67113502  1
  O  O5  1  0.27344698  0.27344698  0.73527362  1
  O  O6  1  0.72655402  0.26472638  0.72655402  1
  O  O7  1  0.26472638  0.72655402  0.72655402  1
loop_
_geom_bond_atom_site_label_1
_geom_bond_atom_site_label_2
_geom_bond_distance
_geom_bond_site_symmetry_2
Ba0 O2 2.783687 1_445
Ba0 O7 2.783687 1_544
Ba0 O6 2.783687 1_454
Ba0 O1 2.783694 1_455
Ba0 O0 2.783694 1_545
Ba0 O5 2.783700 1_554
O0 Se0 1.657101 1_555
O0 Rb0 2.989991 1_565
O0 Rb1 3.062727 1_455
O0 Rb1 3.062733 1_554
O1 Se0 1.657101 1_555
O1 Rb0 2.989991 1_655
O1 Rb1 3.062727 1_545
O1 Rb1 3.062732 1_554
O2 Se1 1.657100 1_555
O2 Rb1 2.989996 1_554
O2 Rb0 3.062732 1_655
O2 Rb0 3.062732 1_565
O3 Se0 1.654705 1_555
O3 Rb0 2.884172 1_555
O4 Se1 1.654705 1_555
O4 Rb1 2.884172 1_555
O5 Se0 1.657102 1_555
O5 Rb0 2.989986 1_556
O5 Rb1 3.062728 1_455
O5 Rb1 3.062728 1_545
O6 Se1 1.657100 1_555
O6 Rb1 2.989996 1_545
O6 Rb0 3.062732 1_655
O6 Rb0 3.062732 1_556
O7 Se1 1.657100 1_555
O7 Rb1 2.989996 1_455
O7 Rb0 3.062731 1_556
O7 Rb0 3.062731 1_565
