# generated using pymatgen
data_Na5Li3(TiSe4)2
_symmetry_space_group_name_H-M   'P 1'
_cell_length_a   10.46585557
_cell_length_b   10.46585624
_cell_length_c   12.64235542
_cell_angle_alpha   52.96105635
_cell_angle_beta   52.96105311
_cell_angle_gamma   57.54580137
_symmetry_Int_Tables_number   1
_chemical_formula_structural   Na5Li3(TiSe4)2
_chemical_formula_sum   'Na10 Li6 Ti4 Se16'
_cell_volume   848.87200538
_cell_formula_units_Z   2
loop_
 _symmetry_equiv_pos_site_id
 _symmetry_equiv_pos_as_xyz
  1  'x, y, z'
loop_
 _atom_site_type_symbol
 _atom_site_label
 _atom_site_symmetry_multiplicity
 _atom_site_fract_x
 _atom_site_fract_y
 _atom_site_fract_z
 _atom_site_occupancy
  Na  Na0  1  0.41514498  0.38849250  0.73018913  1
  Na  Na1  1  0.00969176  0.99030824  0.25000000  1
  Na  Na2  1  0.39166099  0.90155012  0.48330878  1
  Na  Na3  1  0.60833901  0.09844988  0.51669122  1
  Na  Na4  1  0.58485502  0.61150750  0.26981087  1
  Na  Na5  1  0.99030824  0.00969176  0.75000000  1
  Na  Na6  1  0.90155012  0.39166099  0.98330878  1
  Na  Na7  1  0.09844988  0.60833901  0.01669122  1
  Na  Na8  1  0.38849250  0.41514498  0.23018913  1
  Na  Na9  1  0.61150750  0.58485502  0.76981087  1
  Li  Li0  1  0.80924923  0.80701241  0.75685867  1
  Li  Li1  1  0.19298759  0.19075077  0.74314133  1
  Li  Li2  1  0.80701241  0.80924923  0.25685867  1
  Li  Li3  1  0.50000000  0.00000000  0.00000000  1
  Li  Li4  1  0.00000000  0.50000000  0.50000000  1
  Li  Li5  1  0.19075077  0.19298759  0.24314133  1
  Ti  Ti0  1  0.84866034  0.31945179  0.46720425  1
  Ti  Ti1  1  0.15133966  0.68054821  0.53279575  1
  Ti  Ti2  1  0.31945179  0.84866034  0.96720425  1
  Ti  Ti3  1  0.68054821  0.15133966  0.03279575  1
  Se  Se0  1  0.42290416  0.31960270  0.00639598  1
  Se  Se1  1  0.11719718  0.70797755  0.17880914  1
  Se  Se2  1  0.57709584  0.68039730  0.99360402  1
  Se  Se3  1  0.75996044  0.88080469  0.04933214  1
  Se  Se4  1  0.10624432  0.66476056  0.75058608  1
  Se  Se5  1  0.68039730  0.57709584  0.49360402  1
  Se  Se6  1  0.24003956  0.11919531  0.95066786  1
  Se  Se7  1  0.29202245  0.88280282  0.32119086  1
  Se  Se8  1  0.33523944  0.89375568  0.74941392  1
  Se  Se9  1  0.66476056  0.10624432  0.25058608  1
  Se  Se10  1  0.88080469  0.75996044  0.54933214  1
  Se  Se11  1  0.11919531  0.24003956  0.45066786  1
  Se  Se12  1  0.88280282  0.29202245  0.82119086  1
  Se  Se13  1  0.70797755  0.11719718  0.67880914  1
  Se  Se14  1  0.31960270  0.42290416  0.50639598  1
  Se  Se15  1  0.89375568  0.33523944  0.24941392  1
loop_
_geom_bond_atom_site_label_1
_geom_bond_atom_site_label_2
_geom_bond_distance
_geom_bond_site_symmetry_2
Na0 Se13 2.891501 1_555
Na0 Se4 2.956332 1_555
Na0 Se6 2.999462 1_555
Na0 Se5 3.051965 1_555
Na0 Se0 3.156829 1_556
Na0 Se14 3.305833 1_555
Na1 Se6 2.881308 1_564
Na1 Se10 2.881308 1_455
Na1 Se7 3.036901 1_555
Na1 Se1 3.036901 1_555
Na1 Se9 3.127604 1_465
Na1 Se15 3.127604 1_465
Na2 Se7 2.933507 1_555
Na2 Se8 3.000167 1_555
Na2 Se5 3.099640 1_555
Na2 Se11 3.109059 1_565
Na2 Se9 3.203544 1_565
Na2 Se4 3.489863 1_555
Na3 Se13 2.933507 1_555
Na3 Se9 3.000167 1_555
Na3 Se14 3.099640 1_555
Na3 Se10 3.109059 1_545
Na3 Se8 3.203544 1_545
Na3 Se15 3.489863 1_555
Na4 Se7 2.891501 1_555
Na4 Se15 2.956332 1_555
Na4 Se3 2.999462 1_555
Na4 Se14 3.051965 1_555
Na4 Se2 3.156829 1_554
Na4 Se5 3.305833 1_555
Na5 Se3 2.881308 1_546
Na5 Se11 2.881308 1_655
Na5 Se13 3.036901 1_555
Na5 Se12 3.036901 1_555
Na5 Se8 3.127604 1_645
Na5 Se4 3.127604 1_645
Na6 Se12 2.933507 1_555
Na6 Se15 3.000167 1_556
Na6 Se2 3.099639 1_555
Na6 Se6 3.109059 1_655
Na6 Se4 3.203544 1_655
Na6 Se9 3.489863 1_556
Na7 Se1 2.933507 1_555
Na7 Se4 3.000167 1_554
Na7 Se0 3.099639 1_555
Na7 Se3 3.109059 1_455
Na7 Se15 3.203544 1_455
Na7 Se8 3.489863 1_554
Na8 Se1 2.891501 1_555
Na8 Se9 2.956332 1_555
Na8 Se11 2.999462 1_555
Na8 Se2 3.051965 1_554
Na8 Se14 3.156829 1_555
Na8 Se0 3.305833 1_555
Na9 Se12 2.891501 1_555
Na9 Se8 2.956332 1_555
Na9 Se10 2.999462 1_555
Na9 Se0 3.051965 1_556
Na9 Se5 3.156829 1_555
Na9 Se2 3.305833 1_555
Li0 Se13 2.518703 1_565
Li0 Se10 2.545658 1_555
Li0 Se2 2.556193 1_555
Li0 Se4 2.600586 1_655
Li1 Se12 2.518703 1_455
Li1 Se6 2.545658 1_555
Li1 Se14 2.556193 1_555
Li1 Se8 2.600587 1_545
Li2 Se1 2.518703 1_655
Li2 Se3 2.545658 1_555
Li2 Se5 2.556193 1_555
Li2 Se9 2.600587 1_565
Li3 Se3 2.609923 1_545
Li3 Se6 2.609923 1_554
Li3 Se7 2.991333 1_545
Li3 Se13 2.991333 1_554
Li3 Se0 3.032600 1_555
Li3 Se2 3.032600 1_544
Li4 Se10 2.609923 1_455
Li4 Se11 2.609923 1_555
Li4 Se12 2.991333 1_455
Li4 Se1 2.991333 1_555
Li4 Se14 3.032600 1_555
Li4 Se5 3.032600 1_455
Li5 Se7 2.518703 1_545
Li5 Se11 2.545658 1_555
Li5 Se0 2.556193 1_555
Li5 Se15 2.600586 1_455
Se0 Ti3 2.400681 1_555
Se1 Ti2 2.362825 1_554
Se2 Ti2 2.400681 1_555
Se3 Ti3 2.392031 1_565
Se4 Ti1 2.408582 1_555
Se5 Ti0 2.400682 1_555
Se6 Ti2 2.392031 1_545
Se7 Ti1 2.362825 1_555
Se8 Ti2 2.408582 1_555
Se9 Ti3 2.408582 1_555
Se10 Ti1 2.392031 1_655
Se11 Ti0 2.392031 1_455
Se12 Ti3 2.362825 1_556
Se13 Ti0 2.362825 1_555
Se14 Ti1 2.400682 1_555
Se15 Ti0 2.408582 1_555
