# generated using pymatgen
data_V6Fe2Si4C
_symmetry_space_group_name_H-M   'P 1'
_cell_length_a   7.50161844
_cell_length_b   7.50161801
_cell_length_c   7.50161752
_cell_angle_alpha   59.99999350
_cell_angle_beta   59.99999540
_cell_angle_gamma   60.00000002
_symmetry_Int_Tables_number   1
_chemical_formula_structural   V6Fe2Si4C
_chemical_formula_sum   'V12 Fe4 Si8 C2'
_cell_volume   298.50375531
_cell_formula_units_Z   2
loop_
 _symmetry_equiv_pos_site_id
 _symmetry_equiv_pos_as_xyz
  1  'x, y, z'
loop_
 _atom_site_type_symbol
 _atom_site_label
 _atom_site_symmetry_multiplicity
 _atom_site_fract_x
 _atom_site_fract_y
 _atom_site_fract_z
 _atom_site_occupancy
  V  V0  1  0.30523953  0.69476047  0.69476047  1
  V  V1  1  0.30523953  0.30523953  0.69476047  1
  V  V2  1  0.55523953  0.94476047  0.55523953  1
  V  V3  1  0.94476047  0.55523953  0.55523953  1
  V  V4  1  0.55523953  0.94476047  0.94476047  1
  V  V5  1  0.69476047  0.30523953  0.30523953  1
  V  V6  1  0.94476047  0.55523953  0.94476047  1
  V  V7  1  0.30523953  0.69476047  0.30523953  1
  V  V8  1  0.55523953  0.55523953  0.94476047  1
  V  V9  1  0.69476047  0.30523953  0.69476047  1
  V  V10  1  0.69476047  0.69476047  0.30523953  1
  V  V11  1  0.94476047  0.94476047  0.55523953  1
  Fe  Fe0  1  0.12500000  0.12500000  0.62500000  1
  Fe  Fe1  1  0.12500000  0.62500000  0.12500000  1
  Fe  Fe2  1  0.12500000  0.12500000  0.12500000  1
  Fe  Fe3  1  0.62500000  0.12500000  0.12500000  1
  Si  Si0  1  0.91361771  0.25914786  0.91361771  1
  Si  Si1  1  0.33638229  0.99085214  0.33638229  1
  Si  Si2  1  0.33638229  0.33638229  0.33638229  1
  Si  Si3  1  0.99085214  0.33638229  0.33638229  1
  Si  Si4  1  0.91361771  0.91361771  0.25914786  1
  Si  Si5  1  0.25914786  0.91361771  0.91361771  1
  Si  Si6  1  0.33638229  0.33638229  0.99085214  1
  Si  Si7  1  0.91361771  0.91361771  0.91361771  1
  C  C0  1  0.75000000  0.75000000  0.75000000  1
  C  C1  1  0.50000000  0.50000000  0.50000000  1
loop_
_geom_bond_atom_site_label_1
_geom_bond_atom_site_label_2
_geom_bond_distance
_geom_bond_site_symmetry_2
Fe0 Si2 2.316169 1_555
Fe0 Si7 2.316169 1_445
Fe0 Si3 2.316173 1_455
Fe0 Si5 2.316173 1_545
Fe0 Si0 2.316173 1_455
Fe0 Si1 2.316173 1_545
Fe0 V3 2.678325 1_455
Fe0 V0 2.678325 1_545
Fe0 V1 2.678325 1_555
Fe0 V11 2.678325 1_445
Fe0 V2 2.678325 1_545
Fe0 V9 2.678325 1_455
Fe1 Si2 2.316169 1_555
Fe1 Si7 2.316169 1_454
Fe1 Si5 2.316173 1_554
Fe1 Si3 2.316173 1_455
Fe1 Si4 2.316174 1_455
Fe1 Si6 2.316174 1_554
Fe1 V3 2.678325 1_455
Fe1 V0 2.678325 1_554
Fe1 V7 2.678325 1_555
Fe1 V6 2.678325 1_454
Fe1 V8 2.678325 1_554
Fe1 V10 2.678325 1_455
Fe2 Si5 2.316167 1_544
Fe2 Si3 2.316167 1_455
Fe2 Si4 2.316167 1_445
Fe2 Si6 2.316167 1_554
Fe2 Si1 2.316168 1_545
Fe2 Si0 2.316168 1_454
Fe2 V11 2.678325 1_445
Fe2 V1 2.678325 1_554
Fe2 V6 2.678325 1_454
Fe2 V7 2.678325 1_545
Fe2 V4 2.678325 1_544
Fe2 V5 2.678325 1_455
Fe3 Si2 2.316169 1_555
Fe3 Si7 2.316169 1_544
Fe3 Si0 2.316174 1_554
Fe3 Si1 2.316174 1_545
Fe3 Si6 2.316174 1_554
Fe3 Si4 2.316174 1_545
Fe3 V2 2.678325 1_545
Fe3 V9 2.678325 1_554
Fe3 V8 2.678325 1_554
Fe3 V10 2.678325 1_545
Fe3 V5 2.678325 1_555
Fe3 V4 2.678325 1_544
Si0 V6 2.476922 1_555
Si0 V3 2.476926 1_555
Si0 V8 2.476926 1_555
Si0 Si4 2.592035 1_546
Si0 Si7 2.592035 1_545
Si0 Si5 2.592035 1_645
Si0 V5 2.659049 1_556
Si0 V1 2.659049 1_655
Si0 V9 2.659056 1_555
Si1 V7 2.476922 1_555
Si1 V0 2.476926 1_555
Si1 V10 2.476926 1_555
Si1 Si6 2.592035 1_564
Si1 Si2 2.592035 1_565
Si1 Si3 2.592035 1_465
Si1 V4 2.659049 1_554
Si1 V11 2.659049 1_455
Si1 V2 2.659056 1_555
Si2 V1 2.476929 1_555
Si2 V7 2.476929 1_555
Si2 V5 2.476929 1_555
Si2 Si6 2.592035 1_554
Si2 Si3 2.592035 1_455
Si2 V8 2.659052 1_554
Si2 V2 2.659052 1_545
Si2 V3 2.659052 1_455
Si3 V5 2.476922 1_555
Si3 V9 2.476926 1_555
Si3 V10 2.476926 1_555
Si3 Si6 2.592035 1_654
Si3 V6 2.659049 1_554
Si3 V11 2.659049 1_545
Si3 V3 2.659056 1_555
Si4 V11 2.476921 1_555
Si4 V3 2.476926 1_555
Si4 V2 2.476926 1_555
Si4 Si5 2.592035 1_654
Si4 Si7 2.592035 1_554
Si4 V5 2.659049 1_565
Si4 V7 2.659049 1_655
Si4 V10 2.659056 1_555
Si5 V4 2.476922 1_555
Si5 V2 2.476926 1_555
Si5 V8 2.476926 1_555
Si5 Si7 2.592035 1_455
Si5 V7 2.659049 1_556
Si5 V1 2.659049 1_565
Si5 V0 2.659056 1_555
Si6 V1 2.476921 1_555
Si6 V0 2.476926 1_555
Si6 V9 2.476926 1_555
Si6 V4 2.659049 1_545
Si6 V6 2.659049 1_455
Si6 V8 2.659056 1_555
Si7 V11 2.476929 1_555
Si7 V6 2.476929 1_555
Si7 V4 2.476929 1_555
Si7 V10 2.659052 1_556
Si7 V9 2.659052 1_565
Si7 V0 2.659052 1_655
C0 V11 2.066192 1_555
C0 V8 2.066192 1_555
C0 V4 2.066192 1_555
C0 V6 2.066192 1_555
C0 V2 2.066192 1_555
C0 V3 2.066192 1_555
C1 V10 2.066192 1_555
C1 V1 2.066192 1_555
C1 V9 2.066192 1_555
C1 V0 2.066192 1_555
C1 V7 2.066192 1_555
C1 V5 2.066192 1_555
