# generated using pymatgen
data_Ta6ReSi6Mo5
_symmetry_space_group_name_H-M   'P 1'
_cell_length_a   7.64742179
_cell_length_b   7.65632227
_cell_length_c   7.64694913
_cell_angle_alpha   126.39226404
_cell_angle_beta   128.65242420
_cell_angle_gamma   77.38738893
_symmetry_Int_Tables_number   1
_chemical_formula_structural   Ta6ReSi6Mo5
_chemical_formula_sum   'Ta6 Re1 Si6 Mo5'
_cell_volume   273.09126030
_cell_formula_units_Z   1
loop_
 _symmetry_equiv_pos_site_id
 _symmetry_equiv_pos_as_xyz
  1  'x, y, z'
loop_
 _atom_site_type_symbol
 _atom_site_label
 _atom_site_symmetry_multiplicity
 _atom_site_fract_x
 _atom_site_fract_y
 _atom_site_fract_z
 _atom_site_occupancy
  Ta  Ta0  1  0.55010029  0.09306323  0.04399788  1
  Ta  Ta1  1  0.45042235  0.49689857  0.54792705  1
  Ta  Ta2  1  0.94943434  0.49686598  0.04681636  1
  Ta  Ta3  1  0.04945321  0.09302268  0.54341394  1
  Ta  Ta4  1  0.75180262  0.90060017  0.64956217  1
  Ta  Ta5  1  0.25099486  0.90051994  0.14885659  1
  Re  Re0  1  0.37029874  0.49686976  0.12618301  1
  Si  Si0  1  0.74875658  0.49684365  0.24750751  1
  Si  Si1  1  0.24899464  0.49681023  0.74780313  1
  Si  Si2  1  0.33377259  0.82736325  0.49370727  1
  Si  Si3  1  0.66710755  0.16400292  0.49705714  1
  Si  Si4  1  0.83348819  0.82954541  0.99596909  1
  Si  Si5  1  0.16870813  0.16612579  0.99782763  1
  Mo  Mo0  1  0.49893574  0.23759384  0.73835817  1
  Mo  Mo1  1  0.00033107  0.23891346  0.23833409  1
  Mo  Mo2  1  0.12928270  0.75561063  0.62616141  1
  Mo  Mo3  1  0.86960213  0.49668736  0.62661303  1
  Mo  Mo4  1  0.62851427  0.75486014  0.12610251  1
loop_
_geom_bond_atom_site_label_1
_geom_bond_atom_site_label_2
_geom_bond_distance
_geom_bond_site_symmetry_2
Re0 Si1 2.424507 1_554
Re0 Si0 2.425488 1_555
Re0 Si2 2.571528 1_555
Re0 Si5 2.572516 1_554
Re0 Ta2 2.878743 1_455
Re0 Ta1 2.882204 1_555
Re0 Ta3 2.956976 1_554
Re0 Ta5 2.957009 1_555
Re0 Ta4 2.959194 1_555
Re0 Ta0 2.959972 1_555
Si0 Ta2 2.766400 1_555
Si0 Ta4 2.770070 1_555
Si0 Ta0 2.770537 1_555
Si1 Ta1 2.766183 1_555
Si1 Ta5 2.770053 1_556
Si1 Ta3 2.770600 1_555
Si2 Ta2 2.675794 1_455
Si2 Ta1 2.677014 1_555
Si2 Ta5 2.679744 1_555
Si2 Ta4 2.680497 1_555
Si2 Ta3 2.681938 1_565
Si2 Ta0 2.682971 1_566
Si3 Ta4 2.668962 1_545
Si3 Ta5 2.670353 1_545
Si3 Ta1 2.679118 1_555
Si3 Ta2 2.679760 1_556
Si3 Ta0 2.684284 1_555
Si3 Ta3 2.685216 1_655
Si4 Ta0 2.666024 1_566
Si4 Ta3 2.668211 1_666
Si4 Ta1 2.678219 1_555
Si4 Ta2 2.680174 1_556
Si4 Ta5 2.682769 1_656
Si4 Ta4 2.682843 1_555
Si5 Ta2 2.677539 1_456
Si5 Ta1 2.677838 1_556
Si5 Ta3 2.678822 1_555
Si5 Ta0 2.679548 1_556
Si5 Ta5 2.680551 1_546
Si5 Ta4 2.681372 1_445
Mo0 Si0 2.437727 1_556
Mo0 Si1 2.437867 1_555
Mo0 Si2 2.601620 1_545
Mo0 Si3 2.605877 1_555
Mo0 Ta5 2.869037 1_545
Mo0 Ta4 2.870551 1_545
Mo0 Ta3 2.926700 1_555
Mo0 Ta0 2.928761 1_556
Mo0 Ta1 2.938323 1_555
Mo0 Ta2 2.941527 1_556
Mo1 Si1 2.439240 1_555
Mo1 Si0 2.439490 1_455
Mo1 Si5 2.603797 1_554
Mo1 Si4 2.604987 1_444
Mo1 Ta4 2.866096 1_444
Mo1 Ta5 2.867273 1_545
Mo1 Ta2 2.929371 1_455
Mo1 Ta1 2.931674 1_555
Mo1 Ta0 2.937439 1_455
Mo1 Ta3 2.940320 1_555
Mo2 Si1 2.441447 1_555
Mo2 Si0 2.441809 1_455
Mo2 Si2 2.605253 1_555
Mo2 Si5 2.605893 1_565
Mo2 Ta3 2.866202 1_565
Mo2 Ta0 2.869040 1_566
Mo2 Ta2 2.933780 1_455
Mo2 Ta4 2.933894 1_455
Mo2 Ta5 2.935108 1_556
Mo2 Ta1 2.935570 1_555
Mo3 Si0 2.432111 1_555
Mo3 Si1 2.432724 1_655
Mo3 Si4 2.583450 1_555
Mo3 Si3 2.584410 1_555
Mo3 Ta1 2.868378 1_555
Mo3 Ta2 2.870962 1_556
Mo3 Ta0 2.954791 1_555
Mo3 Ta4 2.956802 1_555
Mo3 Ta5 2.958235 1_656
Mo3 Ta3 2.958327 1_655
Mo4 Si0 2.434418 1_555
Mo4 Si1 2.435066 1_554
Mo4 Si3 2.600041 1_565
Mo4 Si4 2.605688 1_554
Mo4 Ta0 2.870445 1_565
Mo4 Ta3 2.872751 1_665
Mo4 Ta1 2.931596 1_554
Mo4 Ta5 2.932613 1_555
Mo4 Ta4 2.932891 1_555
Mo4 Ta2 2.934803 1_555
