# generated using pymatgen
data_CsMnCuS2
_symmetry_space_group_name_H-M   'P 1'
_cell_length_a   7.69165049
_cell_length_b   7.69165020
_cell_length_c   7.69165134
_cell_angle_alpha   149.59006282
_cell_angle_beta   149.59005983
_cell_angle_gamma   43.54348508
_symmetry_Int_Tables_number   1
_chemical_formula_structural   CsMnCuS2
_chemical_formula_sum   'Cs1 Mn1 Cu1 S2'
_cell_volume   116.27498381
_cell_formula_units_Z   1
loop_
 _symmetry_equiv_pos_site_id
 _symmetry_equiv_pos_as_xyz
  1  'x, y, z'
loop_
 _atom_site_type_symbol
 _atom_site_label
 _atom_site_symmetry_multiplicity
 _atom_site_fract_x
 _atom_site_fract_y
 _atom_site_fract_z
 _atom_site_occupancy
  Cs  Cs0  1  0.00000000  0.00000000  0.00000000  1
  Mn  Mn0  1  0.75000000  0.25000000  0.50000000  1
  Cu  Cu0  1  0.25000000  0.75000000  0.50000000  1
  S  S0  1  0.65622876  0.65622876  0.00000000  1
  S  S1  1  0.34377124  0.34377124  1.00000000  1
loop_
_geom_bond_atom_site_label_1
_geom_bond_atom_site_label_2
_geom_bond_distance
_geom_bond_site_symmetry_2
Cs0 S0 3.622208 1_556
Cs0 S1 3.622208 1_443
Cs0 S0 3.622208 1_455
Cs0 S1 3.622208 1_544
Cs0 S0 3.622208 1_545
Cs0 S1 3.622208 1_454
Cs0 S0 3.622209 1_444
Cs0 S1 3.622209 1_555
Mn0 S0 2.421593 1_545
Mn0 S1 2.421593 1_655
Mn0 S0 2.421594 1_556
Mn0 S1 2.421594 1_554
Cu0 S1 2.421593 1_565
Cu0 S0 2.421593 1_455
Cu0 S1 2.421594 1_554
Cu0 S0 2.421594 1_556
