# generated using pymatgen
data_Y2MgBe2Rh5
_symmetry_space_group_name_H-M   'P 1'
_cell_length_a   19.35696362
_cell_length_b   19.35696362
_cell_length_c   6.43375409
_cell_angle_alpha   90.00000000
_cell_angle_beta   90.00000000
_cell_angle_gamma   90.00000000
_symmetry_Int_Tables_number   1
_chemical_formula_structural   Y2MgBe2Rh5
_chemical_formula_sum   'Y32 Mg16 Be32 Rh80'
_cell_volume   2410.67644768
_cell_formula_units_Z   16
loop_
 _symmetry_equiv_pos_site_id
 _symmetry_equiv_pos_as_xyz
  1  'x, y, z'
loop_
 _atom_site_type_symbol
 _atom_site_label
 _atom_site_symmetry_multiplicity
 _atom_site_fract_x
 _atom_site_fract_y
 _atom_site_fract_z
 _atom_site_occupancy
  Y  Y0_0  1  0.33829194  0.08829194  0.00000000  1
  Y  Y0_1  1  0.33829194  0.08829194  0.50000000  1
  Y  Y0_2  1  0.33829194  0.58829194  0.00000000  1
  Y  Y0_3  1  0.33829194  0.58829194  0.50000000  1
  Y  Y0_4  1  0.83829194  0.08829194  0.00000000  1
  Y  Y0_5  1  0.83829194  0.08829194  0.50000000  1
  Y  Y0_6  1  0.83829194  0.58829194  0.00000000  1
  Y  Y0_7  1  0.83829194  0.58829194  0.50000000  1
  Y  Y1_0  1  0.16170806  0.41170806  0.00000000  1
  Y  Y1_1  1  0.16170806  0.41170806  0.50000000  1
  Y  Y1_2  1  0.16170806  0.91170806  0.00000000  1
  Y  Y1_3  1  0.16170806  0.91170806  0.50000000  1
  Y  Y1_4  1  0.66170806  0.41170806  0.00000000  1
  Y  Y1_5  1  0.66170806  0.41170806  0.50000000  1
  Y  Y1_6  1  0.66170806  0.91170806  0.00000000  1
  Y  Y1_7  1  0.66170806  0.91170806  0.50000000  1
  Y  Y2_0  1  0.08829194  0.16170806  0.00000000  1
  Y  Y2_1  1  0.08829194  0.16170806  0.50000000  1
  Y  Y2_2  1  0.08829194  0.66170806  0.00000000  1
  Y  Y2_3  1  0.08829194  0.66170806  0.50000000  1
  Y  Y2_4  1  0.58829194  0.16170806  0.00000000  1
  Y  Y2_5  1  0.58829194  0.16170806  0.50000000  1
  Y  Y2_6  1  0.58829194  0.66170806  0.00000000  1
  Y  Y2_7  1  0.58829194  0.66170806  0.50000000  1
  Y  Y3_0  1  0.41170806  0.33829194  0.00000000  1
  Y  Y3_1  1  0.41170806  0.33829194  0.50000000  1
  Y  Y3_2  1  0.41170806  0.83829194  0.00000000  1
  Y  Y3_3  1  0.41170806  0.83829194  0.50000000  1
  Y  Y3_4  1  0.91170806  0.33829194  0.00000000  1
  Y  Y3_5  1  0.91170806  0.33829194  0.50000000  1
  Y  Y3_6  1  0.91170806  0.83829194  0.00000000  1
  Y  Y3_7  1  0.91170806  0.83829194  0.50000000  1
  Mg  Mg0_0  1  0.00000000  0.00000000  0.00000000  1
  Mg  Mg0_1  1  0.00000000  0.00000000  0.50000000  1
  Mg  Mg0_2  1  0.00000000  0.50000000  0.00000000  1
  Mg  Mg0_3  1  0.00000000  0.50000000  0.50000000  1
  Mg  Mg0_4  1  0.50000000  0.00000000  0.00000000  1
  Mg  Mg0_5  1  0.50000000  0.00000000  0.50000000  1
  Mg  Mg0_6  1  0.50000000  0.50000000  0.00000000  1
  Mg  Mg0_7  1  0.50000000  0.50000000  0.50000000  1
  Mg  Mg1_0  1  0.25000000  0.25000000  0.00000000  1
  Mg  Mg1_1  1  0.25000000  0.25000000  0.50000000  1
  Mg  Mg1_2  1  0.25000000  0.75000000  0.00000000  1
  Mg  Mg1_3  1  0.25000000  0.75000000  0.50000000  1
  Mg  Mg1_4  1  0.75000000  0.25000000  0.00000000  1
  Mg  Mg1_5  1  0.75000000  0.25000000  0.50000000  1
  Mg  Mg1_6  1  0.75000000  0.75000000  0.00000000  1
  Mg  Mg1_7  1  0.75000000  0.75000000  0.50000000  1
  Be  Be0_0  1  0.06088114  0.31088114  0.00000000  1
  Be  Be0_1  1  0.06088114  0.31088114  0.50000000  1
  Be  Be0_2  1  0.06088114  0.81088114  0.00000000  1
  Be  Be0_3  1  0.06088114  0.81088114  0.50000000  1
  Be  Be0_4  1  0.56088114  0.31088114  0.00000000  1
  Be  Be0_5  1  0.56088114  0.31088114  0.50000000  1
  Be  Be0_6  1  0.56088114  0.81088114  0.00000000  1
  Be  Be0_7  1  0.56088114  0.81088114  0.50000000  1
  Be  Be1_0  1  0.43911886  0.18911886  0.00000000  1
  Be  Be1_1  1  0.43911886  0.18911886  0.50000000  1
  Be  Be1_2  1  0.43911886  0.68911886  0.00000000  1
  Be  Be1_3  1  0.43911886  0.68911886  0.50000000  1
  Be  Be1_4  1  0.93911886  0.18911886  0.00000000  1
  Be  Be1_5  1  0.93911886  0.18911886  0.50000000  1
  Be  Be1_6  1  0.93911886  0.68911886  0.00000000  1
  Be  Be1_7  1  0.93911886  0.68911886  0.50000000  1
  Be  Be2_0  1  0.31088114  0.43911886  0.00000000  1
  Be  Be2_1  1  0.31088114  0.43911886  0.50000000  1
  Be  Be2_2  1  0.31088114  0.93911886  0.00000000  1
  Be  Be2_3  1  0.31088114  0.93911886  0.50000000  1
  Be  Be2_4  1  0.81088114  0.43911886  0.00000000  1
  Be  Be2_5  1  0.81088114  0.43911886  0.50000000  1
  Be  Be2_6  1  0.81088114  0.93911886  0.00000000  1
  Be  Be2_7  1  0.81088114  0.93911886  0.50000000  1
  Be  Be3_0  1  0.18911886  0.06088114  0.00000000  1
  Be  Be3_1  1  0.18911886  0.06088114  0.50000000  1
  Be  Be3_2  1  0.18911886  0.56088114  0.00000000  1
  Be  Be3_3  1  0.18911886  0.56088114  0.50000000  1
  Be  Be3_4  1  0.68911886  0.06088114  0.00000000  1
  Be  Be3_5  1  0.68911886  0.06088114  0.50000000  1
  Be  Be3_6  1  0.68911886  0.56088114  0.00000000  1
  Be  Be3_7  1  0.68911886  0.56088114  0.50000000  1
  Rh  Rh0_0  1  0.25000000  0.00000000  0.25000000  1
  Rh  Rh0_1  1  0.25000000  0.00000000  0.75000000  1
  Rh  Rh0_2  1  0.25000000  0.50000000  0.25000000  1
  Rh  Rh0_3  1  0.25000000  0.50000000  0.75000000  1
  Rh  Rh0_4  1  0.75000000  0.00000000  0.25000000  1
  Rh  Rh0_5  1  0.75000000  0.00000000  0.75000000  1
  Rh  Rh0_6  1  0.75000000  0.50000000  0.25000000  1
  Rh  Rh0_7  1  0.75000000  0.50000000  0.75000000  1
  Rh  Rh1_0  1  0.00000000  0.25000000  0.25000000  1
  Rh  Rh1_1  1  0.00000000  0.25000000  0.75000000  1
  Rh  Rh1_2  1  0.00000000  0.75000000  0.25000000  1
  Rh  Rh1_3  1  0.00000000  0.75000000  0.75000000  1
  Rh  Rh1_4  1  0.50000000  0.25000000  0.25000000  1
  Rh  Rh1_5  1  0.50000000  0.25000000  0.75000000  1
  Rh  Rh1_6  1  0.50000000  0.75000000  0.25000000  1
  Rh  Rh1_7  1  0.50000000  0.75000000  0.75000000  1
  Rh  Rh2_0  1  0.10806424  0.03440671  0.25000000  1
  Rh  Rh2_1  1  0.10806424  0.03440671  0.75000000  1
  Rh  Rh2_2  1  0.10806424  0.53440671  0.25000000  1
  Rh  Rh2_3  1  0.10806424  0.53440671  0.75000000  1
  Rh  Rh2_4  1  0.60806424  0.03440671  0.25000000  1
  Rh  Rh2_5  1  0.60806424  0.03440671  0.75000000  1
  Rh  Rh2_6  1  0.60806424  0.53440671  0.25000000  1
  Rh  Rh2_7  1  0.60806424  0.53440671  0.75000000  1
  Rh  Rh3_0  1  0.39193576  0.46559329  0.25000000  1
  Rh  Rh3_1  1  0.39193576  0.46559329  0.75000000  1
  Rh  Rh3_2  1  0.39193576  0.96559329  0.25000000  1
  Rh  Rh3_3  1  0.39193576  0.96559329  0.75000000  1
  Rh  Rh3_4  1  0.89193576  0.46559329  0.25000000  1
  Rh  Rh3_5  1  0.89193576  0.46559329  0.75000000  1
  Rh  Rh3_6  1  0.89193576  0.96559329  0.25000000  1
  Rh  Rh3_7  1  0.89193576  0.96559329  0.75000000  1
  Rh  Rh4_0  1  0.03440671  0.39193576  0.25000000  1
  Rh  Rh4_1  1  0.03440671  0.39193576  0.75000000  1
  Rh  Rh4_2  1  0.03440671  0.89193576  0.25000000  1
  Rh  Rh4_3  1  0.03440671  0.89193576  0.75000000  1
  Rh  Rh4_4  1  0.53440671  0.39193576  0.25000000  1
  Rh  Rh4_5  1  0.53440671  0.39193576  0.75000000  1
  Rh  Rh4_6  1  0.53440671  0.89193576  0.25000000  1
  Rh  Rh4_7  1  0.53440671  0.89193576  0.75000000  1
  Rh  Rh5_0  1  0.35806424  0.21559329  0.25000000  1
  Rh  Rh5_1  1  0.35806424  0.21559329  0.75000000  1
  Rh  Rh5_2  1  0.35806424  0.71559329  0.25000000  1
  Rh  Rh5_3  1  0.35806424  0.71559329  0.75000000  1
  Rh  Rh5_4  1  0.85806424  0.21559329  0.25000000  1
  Rh  Rh5_5  1  0.85806424  0.21559329  0.75000000  1
  Rh  Rh5_6  1  0.85806424  0.71559329  0.25000000  1
  Rh  Rh5_7  1  0.85806424  0.71559329  0.75000000  1
  Rh  Rh6_0  1  0.46559329  0.10806424  0.25000000  1
  Rh  Rh6_1  1  0.46559329  0.10806424  0.75000000  1
  Rh  Rh6_2  1  0.46559329  0.60806424  0.25000000  1
  Rh  Rh6_3  1  0.46559329  0.60806424  0.75000000  1
  Rh  Rh6_4  1  0.96559329  0.10806424  0.25000000  1
  Rh  Rh6_5  1  0.96559329  0.10806424  0.75000000  1
  Rh  Rh6_6  1  0.96559329  0.60806424  0.25000000  1
  Rh  Rh6_7  1  0.96559329  0.60806424  0.75000000  1
  Rh  Rh7_0  1  0.14193576  0.28440671  0.25000000  1
  Rh  Rh7_1  1  0.14193576  0.28440671  0.75000000  1
  Rh  Rh7_2  1  0.14193576  0.78440671  0.25000000  1
  Rh  Rh7_3  1  0.14193576  0.78440671  0.75000000  1
  Rh  Rh7_4  1  0.64193576  0.28440671  0.25000000  1
  Rh  Rh7_5  1  0.64193576  0.28440671  0.75000000  1
  Rh  Rh7_6  1  0.64193576  0.78440671  0.25000000  1
  Rh  Rh7_7  1  0.64193576  0.78440671  0.75000000  1
  Rh  Rh8_0  1  0.28440671  0.35806424  0.25000000  1
  Rh  Rh8_1  1  0.28440671  0.35806424  0.75000000  1
  Rh  Rh8_2  1  0.28440671  0.85806424  0.25000000  1
  Rh  Rh8_3  1  0.28440671  0.85806424  0.75000000  1
  Rh  Rh8_4  1  0.78440671  0.35806424  0.25000000  1
  Rh  Rh8_5  1  0.78440671  0.35806424  0.75000000  1
  Rh  Rh8_6  1  0.78440671  0.85806424  0.25000000  1
  Rh  Rh8_7  1  0.78440671  0.85806424  0.75000000  1
  Rh  Rh9_0  1  0.21559329  0.14193576  0.25000000  1
  Rh  Rh9_1  1  0.21559329  0.14193576  0.75000000  1
  Rh  Rh9_2  1  0.21559329  0.64193576  0.25000000  1
  Rh  Rh9_3  1  0.21559329  0.64193576  0.75000000  1
  Rh  Rh9_4  1  0.71559329  0.14193576  0.25000000  1
  Rh  Rh9_5  1  0.71559329  0.14193576  0.75000000  1
  Rh  Rh9_6  1  0.71559329  0.64193576  0.25000000  1
  Rh  Rh9_7  1  0.71559329  0.64193576  0.75000000  1
loop_
_geom_bond_atom_site_label_1
_geom_bond_atom_site_label_2
_geom_bond_distance
_geom_bond_site_symmetry_2
Y0_0 Y0_1 3.216877 1_554
Y0_0 Y0_1 3.216877 1_555
Y0_2 Y0_3 3.216877 1_554
Y0_2 Y0_3 3.216877 1_555
Y0_4 Y0_5 3.216877 1_555
Y0_4 Y0_5 3.216877 1_554
Y0_6 Y0_7 3.216877 1_555
Y0_6 Y0_7 3.216877 1_554
Y1_0 Y1_1 3.216877 1_555
Y1_0 Y1_1 3.216877 1_554
Y1_2 Y1_3 3.216877 1_554
Y1_2 Y1_3 3.216877 1_555
Y1_4 Y1_5 3.216877 1_555
Y1_4 Y1_5 3.216877 1_554
Y1_6 Y1_7 3.216877 1_554
Y1_6 Y1_7 3.216877 1_555
Y2_0 Y2_1 3.216877 1_554
Y2_0 Y2_1 3.216877 1_555
Y2_2 Y2_3 3.216877 1_555
Y2_2 Y2_3 3.216877 1_554
Y2_4 Y2_5 3.216877 1_554
Y2_4 Y2_5 3.216877 1_555
Y2_6 Y2_7 3.216877 1_554
Y2_6 Y2_7 3.216877 1_555
Y3_0 Y3_1 3.216877 1_555
Y3_0 Y3_1 3.216877 1_554
Y3_2 Y3_3 3.216877 1_554
Y3_2 Y3_3 3.216877 1_555
Y3_4 Y3_5 3.216877 1_555
Y3_4 Y3_5 3.216877 1_554
Y3_6 Y3_7 3.216877 1_555
Y3_6 Y3_7 3.216877 1_554
Mg0_0 Rh2_1 2.721443 1_554
Mg0_0 Rh2_0 2.721443 1_555
Mg0_0 Rh6_5 2.721443 1_454
Mg0_0 Rh6_4 2.721443 1_455
Mg0_0 Rh4_3 2.721443 1_544
Mg0_0 Rh4_2 2.721443 1_545
Mg0_0 Rh3_6 2.721443 1_445
Mg0_0 Rh3_7 2.721443 1_444
Mg0_1 Rh2_0 2.721443 1_555
Mg0_1 Rh2_1 2.721443 1_555
Mg0_1 Rh6_5 2.721443 1_455
Mg0_1 Rh6_4 2.721443 1_455
Mg0_1 Rh4_2 2.721443 1_545
Mg0_1 Rh4_3 2.721443 1_545
Mg0_1 Rh3_6 2.721443 1_445
Mg0_1 Rh3_7 2.721443 1_445
Mg0_2 Rh2_2 2.721443 1_555
Mg0_2 Rh2_3 2.721443 1_554
Mg0_2 Rh6_6 2.721443 1_455
Mg0_2 Rh6_7 2.721443 1_454
Mg0_2 Rh4_1 2.721443 1_554
Mg0_2 Rh4_0 2.721443 1_555
Mg0_2 Rh3_4 2.721443 1_455
Mg0_2 Rh3_5 2.721443 1_454
Mg0_3 Rh2_2 2.721443 1_555
Mg0_3 Rh2_3 2.721443 1_555
Mg0_3 Rh6_6 2.721443 1_455
Mg0_3 Rh6_7 2.721443 1_455
Mg0_3 Rh4_1 2.721443 1_555
Mg0_3 Rh4_0 2.721443 1_555
Mg0_3 Rh3_5 2.721443 1_455
Mg0_3 Rh3_4 2.721443 1_455
Mg0_4 Rh2_4 2.721443 1_555
Mg0_4 Rh2_5 2.721443 1_554
Mg0_4 Rh6_0 2.721443 1_555
Mg0_4 Rh6_1 2.721443 1_554
Mg0_4 Rh4_7 2.721443 1_544
Mg0_4 Rh4_6 2.721443 1_545
Mg0_4 Rh3_3 2.721443 1_544
Mg0_4 Rh3_2 2.721443 1_545
Mg0_5 Rh2_5 2.721443 1_555
Mg0_5 Rh2_4 2.721443 1_555
Mg0_5 Rh6_0 2.721443 1_555
Mg0_5 Rh6_1 2.721443 1_555
Mg0_5 Rh4_7 2.721443 1_545
Mg0_5 Rh4_6 2.721443 1_545
Mg0_5 Rh3_3 2.721443 1_545
Mg0_5 Rh3_2 2.721443 1_545
Mg0_6 Rh2_6 2.721443 1_555
Mg0_6 Rh2_7 2.721443 1_554
Mg0_6 Rh6_2 2.721443 1_555
Mg0_6 Rh6_3 2.721443 1_554
Mg0_6 Rh4_4 2.721443 1_555
Mg0_6 Rh4_5 2.721443 1_554
Mg0_6 Rh3_0 2.721443 1_555
Mg0_6 Rh3_1 2.721443 1_554
Mg0_7 Rh2_6 2.721443 1_555
Mg0_7 Rh2_7 2.721443 1_555
Mg0_7 Rh6_3 2.721443 1_555
Mg0_7 Rh6_2 2.721443 1_555
Mg0_7 Rh4_4 2.721443 1_555
Mg0_7 Rh4_5 2.721443 1_555
Mg0_7 Rh3_0 2.721443 1_555
Mg0_7 Rh3_1 2.721443 1_555
Mg1_0 Rh8_0 2.721443 1_555
Mg1_0 Rh8_1 2.721443 1_554
Mg1_0 Rh5_1 2.721443 1_554
Mg1_0 Rh5_0 2.721443 1_555
Mg1_0 Rh7_0 2.721443 1_555
Mg1_0 Rh7_1 2.721443 1_554
Mg1_0 Rh9_1 2.721443 1_554
Mg1_0 Rh9_0 2.721443 1_555
Mg1_1 Rh8_1 2.721443 1_555
Mg1_1 Rh8_0 2.721443 1_555
Mg1_1 Rh5_0 2.721443 1_555
Mg1_1 Rh5_1 2.721443 1_555
Mg1_1 Rh7_0 2.721443 1_555
Mg1_1 Rh7_1 2.721443 1_555
Mg1_1 Rh9_0 2.721443 1_555
Mg1_1 Rh9_1 2.721443 1_555
Mg1_2 Rh8_2 2.721443 1_555
Mg1_2 Rh8_3 2.721443 1_554
Mg1_2 Rh5_2 2.721443 1_555
Mg1_2 Rh5_3 2.721443 1_554
Mg1_2 Rh7_3 2.721443 1_554
Mg1_2 Rh7_2 2.721443 1_555
Mg1_2 Rh9_2 2.721443 1_555
Mg1_2 Rh9_3 2.721443 1_554
Mg1_3 Rh8_2 2.721443 1_555
Mg1_3 Rh8_3 2.721443 1_555
Mg1_3 Rh5_3 2.721443 1_555
Mg1_3 Rh5_2 2.721443 1_555
Mg1_3 Rh7_2 2.721443 1_555
Mg1_3 Rh7_3 2.721443 1_555
Mg1_3 Rh9_2 2.721443 1_555
Mg1_3 Rh9_3 2.721443 1_555
Mg1_4 Rh8_5 2.721443 1_554
Mg1_4 Rh8_4 2.721443 1_555
Mg1_4 Rh5_5 2.721443 1_554
Mg1_4 Rh5_4 2.721443 1_555
Mg1_4 Rh7_4 2.721443 1_555
Mg1_4 Rh7_5 2.721443 1_554
Mg1_4 Rh9_5 2.721443 1_554
Mg1_4 Rh9_4 2.721443 1_555
Mg1_5 Rh8_5 2.721443 1_555
Mg1_5 Rh8_4 2.721443 1_555
Mg1_5 Rh5_4 2.721443 1_555
Mg1_5 Rh5_5 2.721443 1_555
Mg1_5 Rh7_4 2.721443 1_555
Mg1_5 Rh7_5 2.721443 1_555
Mg1_5 Rh9_4 2.721443 1_555
Mg1_5 Rh9_5 2.721443 1_555
Mg1_6 Rh8_6 2.721443 1_555
Mg1_6 Rh8_7 2.721443 1_554
Mg1_6 Rh5_6 2.721443 1_555
Mg1_6 Rh5_7 2.721443 1_554
Mg1_6 Rh7_6 2.721443 1_555
Mg1_6 Rh7_7 2.721443 1_554
Mg1_6 Rh9_7 2.721443 1_554
Mg1_6 Rh9_6 2.721443 1_555
Mg1_7 Rh8_6 2.721443 1_555
Mg1_7 Rh8_7 2.721443 1_555
Mg1_7 Rh5_6 2.721443 1_555
Mg1_7 Rh5_7 2.721443 1_555
Mg1_7 Rh7_6 2.721443 1_555
Mg1_7 Rh7_7 2.721443 1_555
Mg1_7 Rh9_7 2.721443 1_555
Mg1_7 Rh9_6 2.721443 1_555
Be0_0 Rh7_0 2.304640 1_555
Be0_0 Rh7_1 2.304640 1_554
Be0_0 Rh4_1 2.304640 1_554
Be0_0 Rh4_0 2.304640 1_555
Be0_0 Rh1_1 2.316177 1_554
Be0_0 Rh1_0 2.316177 1_555
Be0_0 Y1_0 2.760125 1_555
Be0_0 Y2_0 2.935882 1_555
Be0_0 Y3_4 2.935882 1_455
Be0_1 Rh7_0 2.304640 1_555
Be0_1 Rh7_1 2.304640 1_555
Be0_1 Rh4_1 2.304640 1_555
Be0_1 Rh4_0 2.304640 1_555
Be0_1 Rh1_1 2.316177 1_555
Be0_1 Rh1_0 2.316177 1_555
Be0_1 Y1_1 2.760125 1_555
Be0_1 Y2_1 2.935882 1_555
Be0_1 Y3_5 2.935882 1_455
Be0_2 Rh7_2 2.304640 1_555
Be0_2 Rh7_3 2.304640 1_554
Be0_2 Rh4_2 2.304640 1_555
Be0_2 Rh4_3 2.304640 1_554
Be0_2 Rh1_3 2.316177 1_554
Be0_2 Rh1_2 2.316177 1_555
Be0_2 Y1_2 2.760125 1_555
Be0_2 Y2_2 2.935882 1_555
Be0_2 Y3_6 2.935882 1_455
Be0_3 Rh7_2 2.304640 1_555
Be0_3 Rh7_3 2.304640 1_555
Be0_3 Rh4_2 2.304640 1_555
Be0_3 Rh4_3 2.304640 1_555
Be0_3 Rh1_3 2.316177 1_555
Be0_3 Rh1_2 2.316177 1_555
Be0_3 Y1_3 2.760125 1_555
Be0_3 Y2_3 2.935882 1_555
Be0_3 Y3_7 2.935882 1_455
Be0_4 Rh4_4 2.304640 1_555
Be0_4 Rh4_5 2.304640 1_554
Be0_4 Rh7_4 2.304640 1_555
Be0_4 Rh7_5 2.304640 1_554
Be0_4 Rh1_4 2.316177 1_555
Be0_4 Rh1_5 2.316177 1_554
Be0_4 Y1_4 2.760125 1_555
Be0_4 Y3_0 2.935882 1_555
Be0_4 Y2_4 2.935882 1_555
Be0_5 Rh4_4 2.304640 1_555
Be0_5 Rh4_5 2.304640 1_555
Be0_5 Rh7_5 2.304640 1_555
Be0_5 Rh7_4 2.304640 1_555
Be0_5 Rh1_4 2.316177 1_555
Be0_5 Rh1_5 2.316177 1_555
Be0_5 Y1_5 2.760125 1_555
Be0_5 Y3_1 2.935882 1_555
Be0_5 Y2_5 2.935882 1_555
Be0_6 Rh4_6 2.304640 1_555
Be0_6 Rh4_7 2.304640 1_554
Be0_6 Rh7_6 2.304640 1_555
Be0_6 Rh7_7 2.304640 1_554
Be0_6 Rh1_7 2.316177 1_554
Be0_6 Rh1_6 2.316177 1_555
Be0_6 Y1_6 2.760125 1_555
Be0_6 Y2_6 2.935882 1_555
Be0_6 Y3_2 2.935882 1_555
Be0_7 Rh4_6 2.304640 1_555
Be0_7 Rh4_7 2.304640 1_555
Be0_7 Rh7_6 2.304640 1_555
Be0_7 Rh7_7 2.304640 1_555
Be0_7 Rh1_7 2.316177 1_555
Be0_7 Rh1_6 2.316177 1_555
Be0_7 Y1_7 2.760125 1_555
Be0_7 Y2_7 2.935882 1_555
Be0_7 Y3_3 2.935882 1_555
Be1_0 Rh6_0 2.304640 1_555
Be1_0 Rh6_1 2.304640 1_554
Be1_0 Rh5_0 2.304640 1_555
Be1_0 Rh5_1 2.304640 1_554
Be1_0 Rh1_4 2.316177 1_555
Be1_0 Rh1_5 2.316177 1_554
Be1_0 Y0_0 2.760125 1_555
Be1_0 Y2_4 2.935882 1_555
Be1_0 Y3_0 2.935882 1_555
Be1_1 Rh6_0 2.304640 1_555
Be1_1 Rh6_1 2.304640 1_555
Be1_1 Rh5_0 2.304640 1_555
Be1_1 Rh5_1 2.304640 1_555
Be1_1 Rh1_5 2.316177 1_555
Be1_1 Rh1_4 2.316177 1_555
Be1_1 Y0_1 2.760125 1_555
Be1_1 Y2_5 2.935882 1_555
Be1_1 Y3_1 2.935882 1_555
Be1_2 Rh6_3 2.304640 1_554
Be1_2 Rh6_2 2.304640 1_555
Be1_2 Rh5_2 2.304640 1_555
Be1_2 Rh5_3 2.304640 1_554
Be1_2 Rh1_7 2.316177 1_554
Be1_2 Rh1_6 2.316177 1_555
Be1_2 Y0_2 2.760125 1_555
Be1_2 Y2_6 2.935882 1_555
Be1_2 Y3_2 2.935882 1_555
Be1_3 Rh6_2 2.304640 1_555
Be1_3 Rh6_3 2.304640 1_555
Be1_3 Rh5_2 2.304640 1_555
Be1_3 Rh5_3 2.304640 1_555
Be1_3 Rh1_7 2.316177 1_555
Be1_3 Rh1_6 2.316177 1_555
Be1_3 Y0_3 2.760125 1_555
Be1_3 Y2_7 2.935882 1_555
Be1_3 Y3_3 2.935882 1_555
Be1_4 Rh5_4 2.304640 1_555
Be1_4 Rh5_5 2.304640 1_554
Be1_4 Rh6_4 2.304640 1_555
Be1_4 Rh6_5 2.304640 1_554
Be1_4 Rh1_1 2.316177 1_654
Be1_4 Rh1_0 2.316177 1_655
Be1_4 Y0_4 2.760125 1_555
Be1_4 Y2_0 2.935882 1_655
Be1_4 Y3_4 2.935882 1_555
Be1_5 Rh5_4 2.304640 1_555
Be1_5 Rh5_5 2.304640 1_555
Be1_5 Rh6_4 2.304640 1_555
Be1_5 Rh6_5 2.304640 1_555
Be1_5 Rh1_0 2.316177 1_655
Be1_5 Rh1_1 2.316177 1_655
Be1_5 Y0_5 2.760125 1_555
Be1_5 Y2_1 2.935882 1_655
Be1_5 Y3_5 2.935882 1_555
Be1_6 Rh5_7 2.304640 1_554
Be1_6 Rh6_7 2.304640 1_554
Be1_6 Rh6_6 2.304640 1_555
Be1_6 Rh5_6 2.304640 1_555
Be1_6 Rh1_3 2.316177 1_654
Be1_6 Rh1_2 2.316177 1_655
Be1_6 Y0_6 2.760125 1_555
Be1_6 Y2_2 2.935882 1_655
Be1_6 Y3_6 2.935882 1_555
Be1_7 Rh5_7 2.304640 1_555
Be1_7 Rh6_7 2.304640 1_555
Be1_7 Rh6_6 2.304640 1_555
Be1_7 Rh5_6 2.304640 1_555
Be1_7 Rh1_3 2.316177 1_655
Be1_7 Rh1_2 2.316177 1_655
Be1_7 Y0_7 2.760125 1_555
Be1_7 Y2_3 2.935882 1_655
Be1_7 Y3_7 2.935882 1_555
Be2_0 Rh3_0 2.304640 1_555
Be2_0 Rh3_1 2.304640 1_554
Be2_0 Rh8_1 2.304640 1_554
Be2_0 Rh8_0 2.304640 1_555
Be2_0 Rh0_3 2.316177 1_554
Be2_0 Rh0_2 2.316177 1_555
Be2_0 Y3_0 2.760125 1_555
Be2_0 Y1_0 2.935882 1_555
Be2_0 Y0_2 2.935882 1_555
Be2_1 Rh3_0 2.304640 1_555
Be2_1 Rh3_1 2.304640 1_555
Be2_1 Rh8_1 2.304640 1_555
Be2_1 Rh8_0 2.304640 1_555
Be2_1 Rh0_3 2.316177 1_555
Be2_1 Rh0_2 2.316177 1_555
Be2_1 Y3_1 2.760125 1_555
Be2_1 Y1_1 2.935882 1_555
Be2_1 Y0_3 2.935882 1_555
Be2_2 Rh8_3 2.304640 1_554
Be2_2 Rh8_2 2.304640 1_555
Be2_2 Rh3_2 2.304640 1_555
Be2_2 Rh3_3 2.304640 1_554
Be2_2 Rh0_0 2.316177 1_565
Be2_2 Rh0_1 2.316177 1_564
Be2_2 Y3_2 2.760125 1_555
Be2_2 Y1_2 2.935882 1_555
Be2_2 Y0_0 2.935882 1_565
Be2_3 Rh8_2 2.304640 1_555
Be2_3 Rh8_3 2.304640 1_555
Be2_3 Rh3_3 2.304640 1_555
Be2_3 Rh3_2 2.304640 1_555
Be2_3 Rh0_0 2.316177 1_565
Be2_3 Rh0_1 2.316177 1_565
Be2_3 Y3_3 2.760125 1_555
Be2_3 Y1_3 2.935882 1_555
Be2_3 Y0_1 2.935882 1_565
Be2_4 Rh8_5 2.304640 1_554
Be2_4 Rh8_4 2.304640 1_555
Be2_4 Rh3_4 2.304640 1_555
Be2_4 Rh3_5 2.304640 1_554
Be2_4 Rh0_6 2.316177 1_555
Be2_4 Rh0_7 2.316177 1_554
Be2_4 Y3_4 2.760125 1_555
Be2_4 Y1_4 2.935882 1_555
Be2_4 Y0_6 2.935882 1_555
Be2_5 Rh8_4 2.304640 1_555
Be2_5 Rh8_5 2.304640 1_555
Be2_5 Rh3_4 2.304640 1_555
Be2_5 Rh3_5 2.304640 1_555
Be2_5 Rh0_6 2.316177 1_555
Be2_5 Rh0_7 2.316177 1_555
Be2_5 Y3_5 2.760125 1_555
Be2_5 Y1_5 2.935882 1_555
Be2_5 Y0_7 2.935882 1_555
Be2_6 Rh8_6 2.304640 1_555
Be2_6 Rh8_7 2.304640 1_554
Be2_6 Rh3_7 2.304640 1_554
Be2_6 Rh3_6 2.304640 1_555
Be2_6 Rh0_4 2.316177 1_565
Be2_6 Rh0_5 2.316177 1_564
Be2_6 Y3_6 2.760125 1_555
Be2_6 Y1_6 2.935882 1_555
Be2_6 Y0_4 2.935882 1_565
Be2_7 Rh8_6 2.304640 1_555
Be2_7 Rh8_7 2.304640 1_555
Be2_7 Rh3_7 2.304640 1_555
Be2_7 Rh3_6 2.304640 1_555
Be2_7 Rh0_5 2.316177 1_565
Be2_7 Rh0_4 2.316177 1_565
Be2_7 Y3_7 2.760125 1_555
Be2_7 Y1_7 2.935882 1_555
Be2_7 Y0_5 2.935882 1_565
Be3_0 Rh9_0 2.304640 1_555
Be3_0 Rh9_1 2.304640 1_554
Be3_0 Rh2_1 2.304640 1_554
Be3_0 Rh2_0 2.304640 1_555
Be3_0 Rh0_1 2.316177 1_554
Be3_0 Rh0_0 2.316177 1_555
Be3_0 Y2_0 2.760125 1_555
Be3_0 Y1_2 2.935882 1_545
Be3_0 Y0_0 2.935882 1_555
Be3_1 Rh9_0 2.304640 1_555
Be3_1 Rh9_1 2.304640 1_555
Be3_1 Rh2_1 2.304640 1_555
Be3_1 Rh2_0 2.304640 1_555
Be3_1 Rh0_1 2.316177 1_555
Be3_1 Rh0_0 2.316177 1_555
Be3_1 Y2_1 2.760125 1_555
Be3_1 Y1_3 2.935882 1_545
Be3_1 Y0_1 2.935882 1_555
Be3_2 Rh2_2 2.304640 1_555
Be3_2 Rh2_3 2.304640 1_554
Be3_2 Rh9_2 2.304640 1_555
Be3_2 Rh9_3 2.304640 1_554
Be3_2 Rh0_2 2.316177 1_555
Be3_2 Rh0_3 2.316177 1_554
Be3_2 Y2_2 2.760125 1_555
Be3_2 Y1_0 2.935882 1_555
Be3_2 Y0_2 2.935882 1_555
Be3_3 Rh2_2 2.304640 1_555
Be3_3 Rh2_3 2.304640 1_555
Be3_3 Rh9_2 2.304640 1_555
Be3_3 Rh9_3 2.304640 1_555
Be3_3 Rh0_2 2.316177 1_555
Be3_3 Rh0_3 2.316177 1_555
Be3_3 Y2_3 2.760125 1_555
Be3_3 Y1_1 2.935882 1_555
Be3_3 Y0_3 2.935882 1_555
Be3_4 Rh2_5 2.304640 1_554
Be3_4 Rh2_4 2.304640 1_555
Be3_4 Rh9_5 2.304640 1_554
Be3_4 Rh9_4 2.304640 1_555
Be3_4 Rh0_5 2.316177 1_554
Be3_4 Rh0_4 2.316177 1_555
Be3_4 Y2_4 2.760125 1_555
Be3_4 Y1_6 2.935882 1_545
Be3_4 Y0_4 2.935882 1_555
Be3_5 Rh2_5 2.304640 1_555
Be3_5 Rh2_4 2.304640 1_555
Be3_5 Rh9_5 2.304640 1_555
Be3_5 Rh9_4 2.304640 1_555
Be3_5 Rh0_5 2.316177 1_555
Be3_5 Rh0_4 2.316177 1_555
Be3_5 Y2_5 2.760125 1_555
Be3_5 Y1_7 2.935882 1_545
Be3_5 Y0_5 2.935882 1_555
Be3_6 Rh2_7 2.304640 1_554
Be3_6 Rh2_6 2.304640 1_555
Be3_6 Rh9_7 2.304640 1_554
Be3_6 Rh9_6 2.304640 1_555
Be3_6 Rh0_6 2.316177 1_555
Be3_6 Rh0_7 2.316177 1_554
Be3_6 Y2_6 2.760125 1_555
Be3_6 Y1_4 2.935882 1_555
Be3_6 Y0_6 2.935882 1_555
Be3_7 Rh2_7 2.304640 1_555
Be3_7 Rh2_6 2.304640 1_555
Be3_7 Rh9_7 2.304640 1_555
Be3_7 Rh9_6 2.304640 1_555
Be3_7 Rh0_6 2.316177 1_555
Be3_7 Rh0_7 2.316177 1_555
Be3_7 Y2_7 2.760125 1_555
Be3_7 Y1_5 2.935882 1_555
Be3_7 Y0_7 2.935882 1_555
Rh0_0 Y1_2 2.903252 1_545
Rh0_0 Y1_3 2.903252 1_545
Rh0_0 Y0_0 2.903252 1_555
Rh0_0 Y0_1 2.903252 1_555
Rh0_1 Y1_2 2.903252 1_546
Rh0_1 Y1_3 2.903252 1_545
Rh0_1 Y0_1 2.903252 1_555
Rh0_1 Y0_0 2.903252 1_556
Rh0_2 Y1_0 2.903252 1_555
Rh0_2 Y1_1 2.903252 1_555
Rh0_2 Y0_3 2.903252 1_555
Rh0_2 Y0_2 2.903252 1_555
Rh0_3 Y1_1 2.903252 1_555
Rh0_3 Y1_0 2.903252 1_556
Rh0_3 Y0_3 2.903252 1_555
Rh0_3 Y0_2 2.903252 1_556
Rh0_4 Y1_6 2.903252 1_545
Rh0_4 Y1_7 2.903252 1_545
Rh0_4 Y0_5 2.903252 1_555
Rh0_4 Y0_4 2.903252 1_555
Rh0_5 Y1_7 2.903252 1_545
Rh0_5 Y1_6 2.903252 1_546
Rh0_5 Y0_4 2.903252 1_556
Rh0_5 Y0_5 2.903252 1_555
Rh0_6 Y1_5 2.903252 1_555
Rh0_6 Y1_4 2.903252 1_555
Rh0_6 Y0_7 2.903252 1_555
Rh0_6 Y0_6 2.903252 1_555
Rh0_7 Y1_5 2.903252 1_555
Rh0_7 Y1_4 2.903252 1_556
Rh0_7 Y0_6 2.903252 1_556
Rh0_7 Y0_7 2.903252 1_555
Rh1_0 Y2_0 2.903252 1_555
Rh1_0 Y2_1 2.903252 1_555
Rh1_0 Y3_5 2.903252 1_455
Rh1_0 Y3_4 2.903252 1_455
Rh1_1 Y2_0 2.903252 1_556
Rh1_1 Y2_1 2.903252 1_555
Rh1_1 Y3_5 2.903252 1_455
Rh1_1 Y3_4 2.903252 1_456
Rh1_2 Y2_2 2.903252 1_555
Rh1_2 Y2_3 2.903252 1_555
Rh1_2 Y3_6 2.903252 1_455
Rh1_2 Y3_7 2.903252 1_455
Rh1_3 Y2_2 2.903252 1_556
Rh1_3 Y2_3 2.903252 1_555
Rh1_3 Y3_6 2.903252 1_456
Rh1_3 Y3_7 2.903252 1_455
Rh1_4 Y3_0 2.903252 1_555
Rh1_4 Y2_5 2.903252 1_555
Rh1_4 Y3_1 2.903252 1_555
Rh1_4 Y2_4 2.903252 1_555
Rh1_5 Y2_5 2.903252 1_555
Rh1_5 Y3_1 2.903252 1_555
Rh1_5 Y2_4 2.903252 1_556
Rh1_5 Y3_0 2.903252 1_556
Rh1_6 Y2_6 2.903252 1_555
Rh1_6 Y2_7 2.903252 1_555
Rh1_6 Y3_3 2.903252 1_555
Rh1_6 Y3_2 2.903252 1_555
Rh1_7 Y2_6 2.903252 1_556
Rh1_7 Y2_7 2.903252 1_555
Rh1_7 Y3_2 2.903252 1_556
Rh1_7 Y3_3 2.903252 1_555
Rh2_0 Y2_0 2.967437 1_555
Rh2_0 Y2_1 2.967437 1_555
Rh2_0 Y1_2 3.050620 1_545
Rh2_0 Y1_3 3.050620 1_545
Rh2_1 Y2_1 2.967437 1_555
Rh2_1 Y2_0 2.967437 1_556
Rh2_1 Y1_2 3.050620 1_546
Rh2_1 Y1_3 3.050620 1_545
Rh2_2 Y2_2 2.967437 1_555
Rh2_2 Y2_3 2.967437 1_555
Rh2_2 Y1_0 3.050620 1_555
Rh2_2 Y1_1 3.050620 1_555
Rh2_3 Y2_2 2.967437 1_556
Rh2_3 Y2_3 2.967437 1_555
Rh2_3 Y1_1 3.050620 1_555
Rh2_3 Y1_0 3.050620 1_556
Rh2_4 Y2_5 2.967437 1_555
Rh2_4 Y2_4 2.967437 1_555
Rh2_4 Y1_6 3.050620 1_545
Rh2_4 Y1_7 3.050620 1_545
Rh2_5 Y2_5 2.967437 1_555
Rh2_5 Y2_4 2.967437 1_556
Rh2_5 Y1_6 3.050620 1_546
Rh2_5 Y1_7 3.050620 1_545
Rh2_6 Y2_7 2.967437 1_555
Rh2_6 Y2_6 2.967437 1_555
Rh2_6 Y1_5 3.050620 1_555
Rh2_6 Y1_4 3.050620 1_555
Rh2_7 Y2_7 2.967437 1_555
Rh2_7 Y2_6 2.967437 1_556
Rh2_7 Y1_5 3.050620 1_555
Rh2_7 Y1_4 3.050620 1_556
Rh3_0 Y3_0 2.967437 1_555
Rh3_0 Y3_1 2.967437 1_555
Rh3_0 Y0_3 3.050620 1_555
Rh3_0 Y0_2 3.050620 1_555
Rh3_1 Y3_1 2.967437 1_555
Rh3_1 Y3_0 2.967437 1_556
Rh3_1 Y0_3 3.050620 1_555
Rh3_1 Y0_2 3.050620 1_556
Rh3_2 Y3_3 2.967437 1_555
Rh3_2 Y3_2 2.967437 1_555
Rh3_2 Y0_0 3.050620 1_565
Rh3_2 Y0_1 3.050620 1_565
Rh3_3 Y3_2 2.967437 1_556
Rh3_3 Y3_3 2.967437 1_555
Rh3_3 Y0_0 3.050620 1_566
Rh3_3 Y0_1 3.050620 1_565
Rh3_4 Y3_4 2.967437 1_555
Rh3_4 Y3_5 2.967437 1_555
Rh3_4 Y0_6 3.050620 1_555
Rh3_4 Y0_7 3.050620 1_555
Rh3_5 Y3_4 2.967437 1_556
Rh3_5 Y3_5 2.967437 1_555
Rh3_5 Y0_6 3.050620 1_556
Rh3_5 Y0_7 3.050620 1_555
Rh3_6 Y3_6 2.967437 1_555
Rh3_6 Y3_7 2.967437 1_555
Rh3_6 Y0_5 3.050620 1_565
Rh3_6 Y0_4 3.050620 1_565
Rh3_7 Y3_6 2.967437 1_556
Rh3_7 Y3_7 2.967437 1_555
Rh3_7 Y0_4 3.050620 1_566
Rh3_7 Y0_5 3.050620 1_565
Rh4_0 Y1_0 2.967437 1_555
Rh4_0 Y1_1 2.967437 1_555
Rh4_0 Y3_4 3.050620 1_455
Rh4_0 Y3_5 3.050620 1_455
Rh4_1 Y1_1 2.967437 1_555
Rh4_1 Y1_0 2.967437 1_556
Rh4_1 Y3_4 3.050620 1_456
Rh4_1 Y3_5 3.050620 1_455
Rh4_2 Y1_3 2.967437 1_555
Rh4_2 Y1_2 2.967437 1_555
Rh4_2 Y3_7 3.050620 1_455
Rh4_2 Y3_6 3.050620 1_455
Rh4_3 Y1_3 2.967437 1_555
Rh4_3 Y1_2 2.967437 1_556
Rh4_3 Y3_6 3.050620 1_456
Rh4_3 Y3_7 3.050620 1_455
Rh4_4 Y1_4 2.967437 1_555
Rh4_4 Y1_5 2.967437 1_555
Rh4_4 Y3_0 3.050620 1_555
Rh4_4 Y3_1 3.050620 1_555
Rh4_5 Y1_4 2.967437 1_556
Rh4_5 Y1_5 2.967437 1_555
Rh4_5 Y3_0 3.050620 1_556
Rh4_5 Y3_1 3.050620 1_555
Rh4_6 Y1_7 2.967437 1_555
Rh4_6 Y1_6 2.967437 1_555
Rh4_6 Y3_2 3.050620 1_555
Rh4_6 Y3_3 3.050620 1_555
Rh4_7 Y1_7 2.967437 1_555
Rh4_7 Y1_6 2.967437 1_556
Rh4_7 Y3_2 3.050620 1_556
Rh4_7 Y3_3 3.050620 1_555
Rh5_0 Y0_1 2.967437 1_555
Rh5_0 Y0_0 2.967437 1_555
Rh5_0 Y3_0 3.050620 1_555
Rh5_0 Y3_1 3.050620 1_555
Rh5_1 Y0_0 2.967437 1_556
Rh5_1 Y0_1 2.967437 1_555
Rh5_1 Y3_1 3.050620 1_555
Rh5_1 Y3_0 3.050620 1_556
Rh5_2 Y0_2 2.967437 1_555
Rh5_2 Y0_3 2.967437 1_555
Rh5_2 Y3_2 3.050620 1_555
Rh5_2 Y3_3 3.050620 1_555
Rh5_3 Y0_2 2.967437 1_556
Rh5_3 Y0_3 2.967437 1_555
Rh5_3 Y3_2 3.050620 1_556
Rh5_3 Y3_3 3.050620 1_555
Rh5_4 Y0_4 2.967437 1_555
Rh5_4 Y0_5 2.967437 1_555
Rh5_4 Y3_5 3.050620 1_555
Rh5_4 Y3_4 3.050620 1_555
Rh5_5 Y0_4 2.967437 1_556
Rh5_5 Y0_5 2.967437 1_555
Rh5_5 Y3_4 3.050620 1_556
Rh5_5 Y3_5 3.050620 1_555
Rh5_6 Y0_6 2.967437 1_555
Rh5_6 Y0_7 2.967437 1_555
Rh5_6 Y3_7 3.050620 1_555
Rh5_6 Y3_6 3.050620 1_555
Rh5_7 Y0_6 2.967437 1_556
Rh5_7 Y0_7 2.967437 1_555
Rh5_7 Y3_6 3.050620 1_556
Rh5_7 Y3_7 3.050620 1_555
Rh6_0 Y0_1 2.967437 1_555
Rh6_0 Y0_0 2.967437 1_555
Rh6_0 Y2_5 3.050620 1_555
Rh6_0 Y2_4 3.050620 1_555
Rh6_1 Y0_0 2.967437 1_556
Rh6_1 Y0_1 2.967437 1_555
Rh6_1 Y2_5 3.050620 1_555
Rh6_1 Y2_4 3.050620 1_556
Rh6_2 Y0_2 2.967437 1_555
Rh6_2 Y0_3 2.967437 1_555
Rh6_2 Y2_7 3.050620 1_555
Rh6_2 Y2_6 3.050620 1_555
Rh6_3 Y0_2 2.967437 1_556
Rh6_3 Y0_3 2.967437 1_555
Rh6_3 Y2_7 3.050620 1_555
Rh6_3 Y2_6 3.050620 1_556
Rh6_4 Y0_5 2.967437 1_555
Rh6_4 Y0_4 2.967437 1_555
Rh6_4 Y2_0 3.050620 1_655
Rh6_4 Y2_1 3.050620 1_655
Rh6_5 Y0_5 2.967437 1_555
Rh6_5 Y0_4 2.967437 1_556
Rh6_5 Y2_0 3.050620 1_656
Rh6_5 Y2_1 3.050620 1_655
Rh6_6 Y0_7 2.967437 1_555
Rh6_6 Y0_6 2.967437 1_555
Rh6_6 Y2_3 3.050620 1_655
Rh6_6 Y2_2 3.050620 1_655
Rh6_7 Y0_7 2.967437 1_555
Rh6_7 Y0_6 2.967437 1_556
Rh6_7 Y2_2 3.050620 1_656
Rh6_7 Y2_3 3.050620 1_655
Rh7_0 Y1_0 2.967437 1_555
Rh7_0 Y1_1 2.967437 1_555
Rh7_0 Y2_0 3.050620 1_555
Rh7_0 Y2_1 3.050620 1_555
Rh7_1 Y1_0 2.967437 1_556
Rh7_1 Y1_1 2.967437 1_555
Rh7_1 Y2_1 3.050620 1_555
Rh7_1 Y2_0 3.050620 1_556
Rh7_2 Y1_2 2.967437 1_555
Rh7_2 Y1_3 2.967437 1_555
Rh7_2 Y2_3 3.050620 1_555
Rh7_2 Y2_2 3.050620 1_555
Rh7_3 Y1_2 2.967437 1_556
Rh7_3 Y1_3 2.967437 1_555
Rh7_3 Y2_3 3.050620 1_555
Rh7_3 Y2_2 3.050620 1_556
Rh7_4 Y1_5 2.967437 1_555
Rh7_4 Y1_4 2.967437 1_555
Rh7_4 Y2_4 3.050620 1_555
Rh7_4 Y2_5 3.050620 1_555
Rh7_5 Y1_5 2.967437 1_555
Rh7_5 Y1_4 2.967437 1_556
Rh7_5 Y2_5 3.050620 1_555
Rh7_5 Y2_4 3.050620 1_556
Rh7_6 Y1_6 2.967437 1_555
Rh7_6 Y1_7 2.967437 1_555
Rh7_6 Y2_6 3.050620 1_555
Rh7_6 Y2_7 3.050620 1_555
Rh7_7 Y1_6 2.967437 1_556
Rh7_7 Y1_7 2.967437 1_555
Rh7_7 Y2_7 3.050620 1_555
Rh7_7 Y2_6 3.050620 1_556
Rh8_0 Y3_0 2.967437 1_555
Rh8_0 Y3_1 2.967437 1_555
Rh8_0 Y1_1 3.050620 1_555
Rh8_0 Y1_0 3.050620 1_555
Rh8_1 Y3_0 2.967437 1_556
Rh8_1 Y3_1 2.967437 1_555
Rh8_1 Y1_1 3.050620 1_555
Rh8_1 Y1_0 3.050620 1_556
Rh8_2 Y3_2 2.967437 1_555
Rh8_2 Y3_3 2.967437 1_555
Rh8_2 Y1_3 3.050620 1_555
Rh8_2 Y1_2 3.050620 1_555
Rh8_3 Y3_3 2.967437 1_555
Rh8_3 Y3_2 2.967437 1_556
Rh8_3 Y1_3 3.050620 1_555
Rh8_3 Y1_2 3.050620 1_556
Rh8_4 Y3_4 2.967437 1_555
Rh8_4 Y3_5 2.967437 1_555
Rh8_4 Y1_4 3.050620 1_555
Rh8_4 Y1_5 3.050620 1_555
Rh8_5 Y3_4 2.967437 1_556
Rh8_5 Y3_5 2.967437 1_555
Rh8_5 Y1_5 3.050620 1_555
Rh8_5 Y1_4 3.050620 1_556
Rh8_6 Y3_6 2.967437 1_555
Rh8_6 Y3_7 2.967437 1_555
Rh8_6 Y1_6 3.050620 1_555
Rh8_6 Y1_7 3.050620 1_555
Rh8_7 Y3_6 2.967437 1_556
Rh8_7 Y3_7 2.967437 1_555
Rh8_7 Y1_6 3.050620 1_556
Rh8_7 Y1_7 3.050620 1_555
Rh9_0 Y2_0 2.967437 1_555
Rh9_0 Y2_1 2.967437 1_555
Rh9_0 Y0_0 3.050620 1_555
Rh9_0 Y0_1 3.050620 1_555
Rh9_1 Y2_1 2.967437 1_555
Rh9_1 Y2_0 2.967437 1_556
Rh9_1 Y0_0 3.050620 1_556
Rh9_1 Y0_1 3.050620 1_555
Rh9_2 Y2_2 2.967437 1_555
Rh9_2 Y2_3 2.967437 1_555
Rh9_2 Y0_2 3.050620 1_555
Rh9_2 Y0_3 3.050620 1_555
Rh9_3 Y2_2 2.967437 1_556
Rh9_3 Y2_3 2.967437 1_555
Rh9_3 Y0_3 3.050620 1_555
Rh9_3 Y0_2 3.050620 1_556
Rh9_4 Y2_4 2.967437 1_555
Rh9_4 Y2_5 2.967437 1_555
Rh9_4 Y0_5 3.050620 1_555
Rh9_4 Y0_4 3.050620 1_555
Rh9_5 Y2_4 2.967437 1_556
Rh9_5 Y2_5 2.967437 1_555
Rh9_5 Y0_4 3.050620 1_556
Rh9_5 Y0_5 3.050620 1_555
Rh9_6 Y2_6 2.967437 1_555
Rh9_6 Y2_7 2.967437 1_555
Rh9_6 Y0_6 3.050620 1_555
Rh9_6 Y0_7 3.050620 1_555
Rh9_7 Y2_7 2.967437 1_555
Rh9_7 Y2_6 2.967437 1_556
Rh9_7 Y0_6 3.050620 1_556
Rh9_7 Y0_7 3.050620 1_555
