# generated using pymatgen
data_ScInGaNi3
_symmetry_space_group_name_H-M   'P 1'
_cell_length_a   4.83024858
_cell_length_b   4.83024831
_cell_length_c   4.83024907
_cell_angle_alpha   62.60481453
_cell_angle_beta   62.60481906
_cell_angle_gamma   62.60481273
_symmetry_Int_Tables_number   1
_chemical_formula_structural   ScInGaNi3
_chemical_formula_sum   'Sc1 In1 Ga1 Ni3'
_cell_volume   84.31026844
_cell_formula_units_Z   1
loop_
 _symmetry_equiv_pos_site_id
 _symmetry_equiv_pos_as_xyz
  1  'x, y, z'
loop_
 _atom_site_type_symbol
 _atom_site_label
 _atom_site_symmetry_multiplicity
 _atom_site_fract_x
 _atom_site_fract_y
 _atom_site_fract_z
 _atom_site_occupancy
  Sc  Sc0  1  0.25157844  0.25157844  0.25157844  1
  In  In0  1  0.00081114  0.00081114  0.00081114  1
  Ga  Ga0  1  0.62269199  0.62269199  0.62269199  1
  Ni  Ni0  1  0.62639356  0.62639356  0.12212932  1
  Ni  Ni1  1  0.62639356  0.12212932  0.62639356  1
  Ni  Ni2  1  0.12212932  0.62639356  0.62639356  1
loop_
_geom_bond_atom_site_label_1
_geom_bond_atom_site_label_2
_geom_bond_distance
_geom_bond_site_symmetry_2
In0 Ni0 2.818571 1_445
In0 Ni1 2.818571 1_454
In0 Ni2 2.818571 1_544
In0 Ni0 2.893119 1_455
In0 Ni2 2.893119 1_554
In0 Ni0 2.893119 1_545
In0 Ni1 2.893119 1_554
In0 Ni2 2.893119 1_545
In0 Ni1 2.893119 1_455
In0 Sc0 2.907234 1_555
In0 Sc0 3.051817 1_545
In0 Sc0 3.051817 1_455
In0 Sc0 3.051817 1_554
Ga0 Ni1 2.401526 1_555
Ga0 Ni2 2.401527 1_555
Ga0 Ni0 2.401527 1_555
Ga0 Ni1 2.428996 1_565
Ga0 Ni2 2.428997 1_655
Ga0 Ni0 2.428997 1_556
Ga0 Sc0 2.930728 1_565
Ga0 Sc0 2.930728 1_655
Ga0 Sc0 2.930728 1_556
Ga0 In0 2.943961 1_656
Ga0 In0 2.943961 1_566
Ga0 In0 2.943962 1_665
Ni0 Ni1 2.488177 1_564
Ni0 Ni2 2.488177 1_654
Ni0 Ni1 2.530983 1_555
Ni0 Ni2 2.530983 1_555
Ni0 Sc0 2.807003 1_555
Ni0 Sc0 2.907328 1_565
Ni0 Sc0 2.907328 1_655
Ni1 Ni2 2.488177 1_645
Ni1 Ni2 2.530983 1_555
Ni1 Sc0 2.807003 1_555
Ni1 Sc0 2.907328 1_655
Ni1 Sc0 2.907328 1_556
Ni2 Sc0 2.807003 1_555
Ni2 Sc0 2.907328 1_565
Ni2 Sc0 2.907328 1_556
