# generated using pymatgen
data_HfZr2NbAs2
_symmetry_space_group_name_H-M   'P 1'
_cell_length_a   7.08502057
_cell_length_b   3.66331940
_cell_length_c   8.72994828
_cell_angle_alpha   90.00000000
_cell_angle_beta   90.00000000
_cell_angle_gamma   90.00000000
_symmetry_Int_Tables_number   1
_chemical_formula_structural   HfZr2NbAs2
_chemical_formula_sum   'Hf2 Zr4 Nb2 As4'
_cell_volume   226.58313007
_cell_formula_units_Z   2
loop_
 _symmetry_equiv_pos_site_id
 _symmetry_equiv_pos_as_xyz
  1  'x, y, z'
loop_
 _atom_site_type_symbol
 _atom_site_label
 _atom_site_symmetry_multiplicity
 _atom_site_fract_x
 _atom_site_fract_y
 _atom_site_fract_z
 _atom_site_occupancy
  Hf  Hf0  1  0.63453090  0.74999900  0.05964485  1
  Hf  Hf1  1  0.13453090  0.74999900  0.44035515  1
  Zr  Zr0  1  0.96381998  0.25000000  0.16875512  1
  Zr  Zr1  1  0.46381898  0.25000000  0.33124488  1
  Zr  Zr2  1  0.54372046  0.74999900  0.66549108  1
  Zr  Zr3  1  0.04372046  0.74999900  0.83450992  1
  Nb  Nb0  1  0.85852550  0.25000000  0.56077691  1
  Nb  Nb1  1  0.35852550  0.25000000  0.93922409  1
  As  As0  1  0.25625925  0.74999900  0.14136823  1
  As  As1  1  0.75625925  0.74999900  0.35863177  1
  As  As2  1  0.24314391  0.25000000  0.64503730  1
  As  As3  1  0.74314391  0.25000000  0.85496270  1
loop_
_geom_bond_atom_site_label_1
_geom_bond_atom_site_label_2
_geom_bond_distance
_geom_bond_site_symmetry_2
Hf0 Nb1 2.878215 1_554
Hf0 Nb1 2.878220 1_564
Hf1 Nb0 2.878218 1_455
Hf1 Nb0 2.878223 1_465
Nb0 Zr2 3.027428 1_555
Nb0 Zr2 3.027432 1_545
Nb1 Zr3 3.027428 1_555
Nb1 Zr3 3.027432 1_545
As0 Nb1 2.644644 1_554
As0 Nb1 2.644649 1_564
As0 Hf1 2.748936 1_555
As0 Hf0 2.773397 1_555
As0 Zr0 2.775798 1_455
As0 Zr0 2.775803 1_465
As0 Zr1 2.874927 1_555
As0 Zr1 2.874932 1_565
As0 Zr3 3.073082 1_554
As1 Nb0 2.644650 1_555
As1 Nb0 2.644655 1_565
As1 Hf0 2.748936 1_555
As1 Hf1 2.773397 1_655
As1 Zr1 2.775803 1_555
As1 Zr1 2.775808 1_565
As1 Zr0 2.874931 1_555
As1 Zr0 2.874936 1_565
As1 Zr2 3.073090 1_555
As2 Hf1 2.672081 1_555
As2 Hf1 2.672086 1_545
As2 Nb1 2.695201 1_555
As2 Zr2 2.814606 1_555
As2 Zr2 2.814611 1_545
As2 Nb0 2.822565 1_455
As2 Zr3 2.843819 1_555
As2 Zr3 2.843824 1_545
As2 Zr1 3.154165 1_555
As3 Hf0 2.672081 1_556
As3 Hf0 2.672086 1_546
As3 Nb0 2.695193 1_555
As3 Zr3 2.814605 1_655
As3 Zr3 2.814610 1_645
As3 Nb1 2.822568 1_555
As3 Zr2 2.843814 1_555
As3 Zr2 2.843819 1_545
As3 Zr0 3.154169 1_556
