# generated using pymatgen
data_Ba2NbCrO6
_symmetry_space_group_name_H-M   'P 1'
_cell_length_a   5.78184812
_cell_length_b   5.78184812
_cell_length_c   18.97580317
_cell_angle_alpha   90.00000000
_cell_angle_beta   90.00000000
_cell_angle_gamma   120.00000592
_symmetry_Int_Tables_number   1
_chemical_formula_structural   Ba2NbCrO6
_chemical_formula_sum   'Ba8 Nb4 Cr4 O24'
_cell_volume   549.36897671
_cell_formula_units_Z   4
loop_
 _symmetry_equiv_pos_site_id
 _symmetry_equiv_pos_as_xyz
  1  'x, y, z'
loop_
 _atom_site_type_symbol
 _atom_site_label
 _atom_site_symmetry_multiplicity
 _atom_site_fract_x
 _atom_site_fract_y
 _atom_site_fract_z
 _atom_site_occupancy
  Ba  Ba0  1  0.33333300  0.66666700  0.35865777  1
  Ba  Ba1  1  0.66666700  0.33333300  0.85865777  1
  Ba  Ba2  1  0.66666700  0.33333300  0.64134223  1
  Ba  Ba3  1  0.33333300  0.66666700  0.14134223  1
  Ba  Ba4  1  0.66666700  0.33333300  0.25000000  1
  Ba  Ba5  1  0.33333300  0.66666700  0.75000000  1
  Ba  Ba6  1  0.00000000  -0.00000000  0.50000000  1
  Ba  Ba7  1  0.00000000  -0.00000000  0.00000000  1
  Nb  Nb0  1  0.33333300  0.66666700  0.56461959  1
  Nb  Nb1  1  0.66666700  0.33333300  0.06461959  1
  Nb  Nb2  1  0.66666700  0.33333300  0.43538041  1
  Nb  Nb3  1  0.33333300  0.66666700  0.93538041  1
  Cr  Cr0  1  0.00000000  -0.00000000  0.18189692  1
  Cr  Cr1  1  0.00000000  -0.00000000  0.68189692  1
  Cr  Cr2  1  0.00000000  -0.00000000  0.81810308  1
  Cr  Cr3  1  0.00000000  -0.00000000  0.31810308  1
  O  O0  1  0.16862083  0.83137917  0.87822686  1
  O  O1  1  0.16862083  0.33724067  0.87822686  1
  O  O2  1  0.66275933  0.83137917  0.87822686  1
  O  O3  1  0.33724067  0.16862083  0.37822686  1
  O  O4  1  0.83137917  0.66275933  0.12177314  1
  O  O5  1  0.83137917  0.16862083  0.37822686  1
  O  O6  1  0.83137917  0.66275933  0.37822686  1
  O  O7  1  0.16862083  0.83137917  0.62177314  1
  O  O8  1  0.66275933  0.83137917  0.62177314  1
  O  O9  1  0.33724067  0.16862083  0.12177314  1
  O  O10  1  0.83137917  0.16862083  0.12177314  1
  O  O11  1  0.16862083  0.33724067  0.62177314  1
  O  O12  1  0.85159162  0.70318325  0.75000000  1
  O  O13  1  0.14840838  0.85159162  0.25000000  1
  O  O14  1  0.70318325  0.85159162  0.25000000  1
  O  O15  1  0.29681675  0.14840838  0.75000000  1
  O  O16  1  0.50000000  -0.00000000  0.00000000  1
  O  O17  1  0.50000000  0.50000000  0.50000000  1
  O  O18  1  0.00000000  0.50000000  0.50000000  1
  O  O19  1  0.00000000  0.50000000  0.00000000  1
  O  O20  1  0.50000000  0.50000000  0.00000000  1
  O  O21  1  0.50000000  -0.00000000  0.50000000  1
  O  O22  1  0.14840838  0.29681675  0.25000000  1
  O  O23  1  0.85159162  0.14840838  0.75000000  1
loop_
_geom_bond_atom_site_label_1
_geom_bond_atom_site_label_2
_geom_bond_distance
_geom_bond_site_symmetry_2
Ba0 O13 2.771445 1_555
Ba0 O14 2.771448 1_555
Ba0 O22 2.771448 1_555
Ba0 O5 2.914741 1_565
Ba0 O5 2.914741 1_455
Ba0 O6 2.914741 1_455
Ba0 O3 2.914741 1_565
Ba0 O6 2.914741 1_555
Ba0 O3 2.914741 1_555
Ba0 O18 3.159015 1_555
Ba0 O21 3.159015 1_565
Ba0 O17 3.159017 1_555
Ba1 O23 2.771445 1_555
Ba1 O15 2.771448 1_555
Ba1 O12 2.771448 1_555
Ba1 O0 2.914741 1_655
Ba1 O0 2.914741 1_545
Ba1 O1 2.914741 1_655
Ba1 O2 2.914741 1_545
Ba1 O1 2.914741 1_555
Ba1 O2 2.914741 1_555
Ba1 O16 3.159015 1_556
Ba1 O19 3.159015 1_656
Ba1 O20 3.159017 1_556
Ba2 O23 2.771445 1_555
Ba2 O15 2.771448 1_555
Ba2 O12 2.771448 1_555
Ba2 O7 2.914741 1_655
Ba2 O7 2.914741 1_545
Ba2 O11 2.914741 1_655
Ba2 O8 2.914741 1_545
Ba2 O11 2.914741 1_555
Ba2 O8 2.914741 1_555
Ba2 O21 3.159015 1_555
Ba2 O18 3.159015 1_655
Ba2 O17 3.159017 1_555
Ba3 O13 2.771445 1_555
Ba3 O14 2.771448 1_555
Ba3 O22 2.771448 1_555
Ba3 O10 2.914741 1_565
Ba3 O10 2.914741 1_455
Ba3 O4 2.914741 1_455
Ba3 O9 2.914741 1_565
Ba3 O4 2.914741 1_555
Ba3 O9 2.914741 1_555
Ba3 O16 3.159015 1_565
Ba3 O19 3.159015 1_555
Ba3 O20 3.159017 1_555
Ba4 O14 2.896698 1_545
Ba4 O22 2.896698 1_655
Ba4 O13 2.896701 1_655
Ba4 O13 2.896701 1_545
Ba4 O22 2.896703 1_555
Ba4 O14 2.896703 1_555
Ba4 O10 2.939619 1_555
Ba4 O5 2.939619 1_555
Ba4 O9 2.939624 1_555
Ba4 O3 2.939624 1_555
Ba4 O4 2.939624 1_555
Ba4 O6 2.939624 1_555
Ba5 O15 2.896698 1_565
Ba5 O12 2.896698 1_455
Ba5 O23 2.896701 1_565
Ba5 O23 2.896701 1_455
Ba5 O12 2.896703 1_555
Ba5 O15 2.896703 1_555
Ba5 O7 2.939619 1_555
Ba5 O0 2.939619 1_555
Ba5 O2 2.939624 1_555
Ba5 O1 2.939624 1_555
Ba5 O11 2.939624 1_555
Ba5 O8 2.939624 1_555
Ba6 O8 2.861999 1_445
Ba6 O11 2.861999 1_555
Ba6 O6 2.861999 1_445
Ba6 O3 2.861999 1_555
Ba6 O7 2.862002 1_545
Ba6 O5 2.862002 1_455
Ba6 O17 2.890924 1_555
Ba6 O17 2.890924 1_445
Ba6 O21 2.890924 1_555
Ba6 O21 2.890924 1_455
Ba6 O18 2.890924 1_555
Ba6 O18 2.890924 1_545
Ba7 O2 2.861999 1_444
Ba7 O1 2.861999 1_554
Ba7 O4 2.861999 1_445
Ba7 O9 2.861999 1_555
Ba7 O0 2.862002 1_544
Ba7 O10 2.862002 1_455
Ba7 O20 2.890924 1_555
Ba7 O20 2.890924 1_445
Ba7 O19 2.890924 1_555
Ba7 O16 2.890924 1_455
Ba7 O16 2.890924 1_555
Ba7 O19 2.890924 1_545
Nb0 O7 1.974101 1_555
Nb0 O8 1.974109 1_555
Nb0 O11 1.974109 1_555
Nb0 O21 2.071086 1_565
Nb0 O18 2.071086 1_555
Nb0 O17 2.071090 1_555
Nb1 O10 1.974101 1_555
Nb1 O9 1.974109 1_555
Nb1 O4 1.974109 1_555
Nb1 O16 2.071086 1_555
Nb1 O19 2.071086 1_655
Nb1 O20 2.071090 1_555
Nb2 O5 1.974101 1_555
Nb2 O6 1.974109 1_555
Nb2 O3 1.974109 1_555
Nb2 O18 2.071086 1_655
Nb2 O21 2.071086 1_555
Nb2 O17 2.071090 1_555
Nb3 O0 1.974101 1_555
Nb3 O2 1.974109 1_555
Nb3 O1 1.974109 1_555
Nb3 O16 2.071086 1_566
Nb3 O19 2.071086 1_556
Nb3 O20 2.071090 1_556
Cr0 O22 1.969503 1_555
Cr0 O14 1.969503 1_445
Cr0 O13 1.969503 1_545
Cr0 O4 2.037929 1_445
Cr0 O9 2.037929 1_555
Cr0 O10 2.037933 1_455
Cr1 O12 1.969503 1_445
Cr1 O15 1.969503 1_555
Cr1 O23 1.969503 1_455
Cr1 O8 2.037929 1_445
Cr1 O11 2.037929 1_555
Cr1 O7 2.037933 1_545
Cr2 O12 1.969503 1_445
Cr2 O15 1.969503 1_555
Cr2 O23 1.969503 1_455
Cr2 O2 2.037929 1_445
Cr2 O1 2.037929 1_555
Cr2 O0 2.037933 1_545
Cr3 O14 1.969503 1_445
Cr3 O22 1.969503 1_555
Cr3 O13 1.969503 1_545
Cr3 O3 2.037929 1_555
Cr3 O6 2.037929 1_445
Cr3 O5 2.037933 1_455
