# generated using pymatgen
data_Nb12Al9Ni3C4
_symmetry_space_group_name_H-M   'P 1'
_cell_length_a   8.27883262
_cell_length_b   8.29196454
_cell_length_c   8.27883247
_cell_angle_alpha   60.05237493
_cell_angle_beta   60.00000063
_cell_angle_gamma   60.05237927
_symmetry_Int_Tables_number   1
_chemical_formula_structural   Nb12Al9Ni3C4
_chemical_formula_sum   'Nb12 Al9 Ni3 C4'
_cell_volume   402.18327465
_cell_formula_units_Z   1
loop_
 _symmetry_equiv_pos_site_id
 _symmetry_equiv_pos_as_xyz
  1  'x, y, z'
loop_
 _atom_site_type_symbol
 _atom_site_label
 _atom_site_symmetry_multiplicity
 _atom_site_fract_x
 _atom_site_fract_y
 _atom_site_fract_z
 _atom_site_occupancy
  Nb  Nb0  1  0.81505552  0.81628263  0.18433093  1
  Nb  Nb1  1  0.19269344  0.18275574  0.81227541  1
  Nb  Nb2  1  0.81227541  0.18275574  0.81227541  1
  Nb  Nb3  1  0.18433093  0.81628263  0.18433093  1
  Nb  Nb4  1  0.18433093  0.81628263  0.81505552  1
  Nb  Nb5  1  0.81227541  0.18275574  0.19269344  1
  Nb  Nb6  1  0.43494448  0.43371737  0.06566907  1
  Nb  Nb7  1  0.05730656  0.06724426  0.43772459  1
  Nb  Nb8  1  0.43772459  0.06724426  0.43772459  1
  Nb  Nb9  1  0.06566907  0.43371737  0.06566907  1
  Nb  Nb10  1  0.06566907  0.43371737  0.43494448  1
  Nb  Nb11  1  0.43772459  0.06724426  0.05730656  1
  Al  Al0  1  0.62500000  0.12500000  0.62500000  1
  Al  Al1  1  0.74753011  0.43284826  0.40981132  1
  Al  Al2  1  0.41569972  0.75290283  0.41569972  1
  Al  Al3  1  0.40981132  0.43284826  0.74753011  1
  Al  Al4  1  0.40981132  0.43284826  0.40981132  1
  Al  Al5  1  0.50246989  0.81715174  0.84018868  1
  Al  Al6  1  0.83430028  0.49709717  0.83430028  1
  Al  Al7  1  0.84018868  0.81715174  0.50246989  1
  Al  Al8  1  0.84018868  0.81715174  0.84018868  1
  Ni  Ni0  1  0.12500000  0.62500000  0.62500000  1
  Ni  Ni1  1  0.62500000  0.62500000  0.12500000  1
  Ni  Ni2  1  0.62500000  0.62500000  0.62500000  1
  C  C0  1  0.62500000  0.12500000  0.12500000  1
  C  C1  1  0.12500000  0.62500000  0.12500000  1
  C  C2  1  0.12500000  0.12500000  0.62500000  1
  C  C3  1  0.12500000  0.12500000  0.12500000  1
loop_
_geom_bond_atom_site_label_1
_geom_bond_atom_site_label_2
_geom_bond_distance
_geom_bond_site_symmetry_2
Nb0 Ni1 3.045507 1_555
Nb0 Ni2 3.045507 1_555
Nb1 Ni0 3.050547 1_555
Nb2 Ni2 3.050547 1_555
Nb3 Ni0 3.045507 1_555
Nb3 Ni1 3.045507 1_555
Nb4 Ni0 3.045507 1_555
Nb4 Ni2 3.045507 1_555
Nb5 Ni1 3.050547 1_555
Nb6 Ni1 3.045507 1_555
Nb6 Ni2 3.045507 1_554
Nb7 Ni0 3.050547 1_545
Nb8 Ni2 3.050547 1_545
Nb9 Ni0 3.045507 1_554
Nb9 Ni1 3.045507 1_455
Nb10 Ni0 3.045507 1_555
Nb10 Ni2 3.045507 1_455
Nb11 Ni1 3.050547 1_545
Al0 Al8 2.637546 1_545
Al0 Al4 2.637546 1_555
Al0 Al1 2.637550 1_555
Al0 Al5 2.637550 1_545
Al0 Al3 2.637550 1_555
Al0 Al7 2.637550 1_545
Al0 Nb11 2.987214 1_556
Al0 Nb5 2.987214 1_555
Al0 Nb2 2.987214 1_555
Al0 Nb8 2.987214 1_555
Al0 Nb7 2.987214 1_655
Al0 Nb1 2.987214 1_555
Al1 Ni2 2.480843 1_555
Al1 Ni1 2.480850 1_555
Al2 Ni2 2.542164 1_555
Al2 Ni0 2.542177 1_555
Al2 Ni1 2.542177 1_555
Al3 Ni2 2.480843 1_555
Al3 Ni0 2.480850 1_555
Al4 Ni1 2.480846 1_555
Al4 Ni0 2.480846 1_555
Al5 Ni2 2.480843 1_555
Al5 Ni1 2.480850 1_556
Al6 Ni2 2.542164 1_555
Al6 Ni0 2.542177 1_655
Al6 Ni1 2.542177 1_556
Al7 Ni2 2.480843 1_555
Al7 Ni0 2.480850 1_655
Al8 Ni1 2.480846 1_556
Al8 Ni0 2.480846 1_655
C0 Nb6 2.183110 1_555
C0 Nb0 2.183110 1_545
C0 Nb8 2.196685 1_555
C0 Nb2 2.196685 1_554
C0 Nb5 2.196685 1_555
C0 Nb11 2.196685 1_555
C1 Nb3 2.189804 1_555
C1 Nb10 2.189804 1_555
C1 Nb4 2.189804 1_554
C1 Nb9 2.189804 1_555
C1 Nb6 2.189804 1_555
C1 Nb0 2.189804 1_455
C2 Nb10 2.183110 1_555
C2 Nb4 2.183110 1_545
C2 Nb1 2.196685 1_555
C2 Nb7 2.196685 1_555
C2 Nb2 2.196685 1_455
C2 Nb8 2.196685 1_555
C3 Nb9 2.183110 1_555
C3 Nb3 2.183110 1_545
C3 Nb7 2.196685 1_555
C3 Nb1 2.196685 1_554
C3 Nb11 2.196685 1_555
C3 Nb5 2.196685 1_455
