# generated using pymatgen
data_KSr3SbO6
_symmetry_space_group_name_H-M   'P 1'
_cell_length_a   6.97260321
_cell_length_b   6.97260363
_cell_length_c   6.97260407
_cell_angle_alpha   88.61051619
_cell_angle_beta   88.61051300
_cell_angle_gamma   88.61050891
_symmetry_Int_Tables_number   1
_chemical_formula_structural   KSr3SbO6
_chemical_formula_sum   'K2 Sr6 Sb2 O12'
_cell_volume   338.69419232
_cell_formula_units_Z   2
loop_
 _symmetry_equiv_pos_site_id
 _symmetry_equiv_pos_as_xyz
  1  'x, y, z'
loop_
 _atom_site_type_symbol
 _atom_site_label
 _atom_site_symmetry_multiplicity
 _atom_site_fract_x
 _atom_site_fract_y
 _atom_site_fract_z
 _atom_site_occupancy
  K  K0  1  0.25000000  0.25000000  0.25000000  1
  K  K1  1  0.75000000  0.75000000  0.75000000  1
  Sr  Sr0  1  0.89592952  0.60407048  0.25000000  1
  Sr  Sr1  1  0.25000000  0.89592952  0.60407048  1
  Sr  Sr2  1  0.60407048  0.25000000  0.89592952  1
  Sr  Sr3  1  0.10407048  0.39592952  0.75000000  1
  Sr  Sr4  1  0.75000000  0.10407048  0.39592952  1
  Sr  Sr5  1  0.39592952  0.75000000  0.10407048  1
  Sb  Sb0  1  0.50000000  0.50000000  0.50000000  1
  Sb  Sb1  1  0.00000000  0.00000000  0.00000000  1
  O  O0  1  0.43667830  0.22389108  0.56523228  1
  O  O1  1  0.56523228  0.43667830  0.22389108  1
  O  O2  1  0.22389108  0.56523228  0.43667830  1
  O  O3  1  0.06332170  0.93476772  0.27610892  1
  O  O4  1  0.27610892  0.06332170  0.93476772  1
  O  O5  1  0.93476772  0.27610892  0.06332170  1
  O  O6  1  0.56332170  0.77610892  0.43476772  1
  O  O7  1  0.43476772  0.56332170  0.77610892  1
  O  O8  1  0.77610892  0.43476772  0.56332170  1
  O  O9  1  0.93667830  0.06523228  0.72389108  1
  O  O10  1  0.06523228  0.72389108  0.93667830  1
  O  O11  1  0.72389108  0.93667830  0.06523228  1
loop_
_geom_bond_atom_site_label_1
_geom_bond_atom_site_label_2
_geom_bond_distance
_geom_bond_site_symmetry_2
K0 O5 2.581938 1_455
K0 O2 2.581938 1_555
K0 O1 2.581938 1_555
K0 O3 2.581938 1_545
K0 O4 2.581938 1_554
K0 O0 2.581938 1_555
K1 O10 2.581938 1_655
K1 O8 2.581938 1_555
K1 O7 2.581938 1_555
K1 O9 2.581938 1_565
K1 O11 2.581938 1_556
K1 O6 2.581938 1_555
O0 Sb0 2.024159 1_555
O0 Sr4 2.588155 1_555
O0 Sr2 2.621716 1_555
O0 Sr1 2.663460 1_545
O0 Sr3 2.876149 1_555
O1 Sb0 2.024159 1_555
O1 Sr5 2.588155 1_555
O1 Sr0 2.621716 1_555
O1 Sr2 2.663460 1_554
O1 Sr4 2.876149 1_555
O2 Sb0 2.024159 1_555
O2 Sr3 2.588155 1_555
O2 Sr1 2.621716 1_555
O2 Sr0 2.663460 1_455
O2 Sr5 2.876150 1_555
O3 Sb1 2.024159 1_565
O3 Sr4 2.588155 1_465
O3 Sr0 2.621716 1_455
O3 Sr1 2.663460 1_555
O3 Sr5 2.876149 1_555
O4 Sb1 2.024159 1_556
O4 Sr5 2.588155 1_546
O4 Sr1 2.621716 1_545
O4 Sr2 2.663460 1_555
O4 Sr3 2.876149 1_555
O5 Sb1 2.024159 1_655
O5 Sr3 2.588155 1_654
O5 Sr2 2.621716 1_554
O5 Sr0 2.663460 1_555
O5 Sr4 2.876150 1_555
O6 Sb0 2.024159 1_555
O6 Sr1 2.588155 1_555
O6 Sr5 2.621716 1_555
O6 Sr4 2.663460 1_565
O6 Sr0 2.876149 1_555
O7 Sb0 2.024159 1_555
O7 Sr2 2.588155 1_555
O7 Sr3 2.621716 1_555
O7 Sr5 2.663460 1_556
O7 Sr1 2.876149 1_555
O8 Sb0 2.024159 1_555
O8 Sr0 2.588155 1_555
O8 Sr4 2.621716 1_555
O8 Sr3 2.663460 1_655
O8 Sr2 2.876150 1_555
O9 Sb1 2.024159 1_656
O9 Sr1 2.588155 1_645
O9 Sr3 2.621716 1_655
O9 Sr4 2.663460 1_555
O9 Sr2 2.876149 1_555
O10 Sb1 2.024159 1_566
O10 Sr0 2.588155 1_456
O10 Sr5 2.621716 1_556
O10 Sr3 2.663460 1_555
O10 Sr1 2.876150 1_555
O11 Sb1 2.024159 1_665
O11 Sr2 2.588155 1_564
O11 Sr4 2.621716 1_565
O11 Sr5 2.663460 1_555
O11 Sr0 2.876149 1_555
