# generated using pymatgen
data_Li3PdPt4
_symmetry_space_group_name_H-M   'P 1'
_cell_length_a   5.44543797
_cell_length_b   5.40126063
_cell_length_c   5.44543720
_cell_angle_alpha   59.72907211
_cell_angle_beta   60.00000465
_cell_angle_gamma   59.72906366
_symmetry_Int_Tables_number   1
_chemical_formula_structural   Li3PdPt4
_chemical_formula_sum   'Li3 Pd1 Pt4'
_cell_volume   112.78595811
_cell_formula_units_Z   1
loop_
 _symmetry_equiv_pos_site_id
 _symmetry_equiv_pos_as_xyz
  1  'x, y, z'
loop_
 _atom_site_type_symbol
 _atom_site_label
 _atom_site_symmetry_multiplicity
 _atom_site_fract_x
 _atom_site_fract_y
 _atom_site_fract_z
 _atom_site_occupancy
  Li  Li0  1  0.49999900  0.00000000  0.00000000  1
  Li  Li1  1  0.00000000  0.00000000  0.49999900  1
  Li  Li2  1  0.49999900  0.00000000  0.49999900  1
  Pd  Pd0  1  0.49999900  0.49999900  0.49999900  1
  Pt  Pt0  1  0.00000000  0.00000000  0.00000000  1
  Pt  Pt1  1  0.00000000  0.49999900  0.00000000  1
  Pt  Pt2  1  0.49999900  0.49999900  0.00000000  1
  Pt  Pt3  1  0.00000000  0.49999900  0.49999900  1
loop_
_geom_bond_atom_site_label_1
_geom_bond_atom_site_label_2
_geom_bond_distance
_geom_bond_site_symmetry_2
Li0 Pt1 2.700625 1_555
Li0 Pt2 2.700625 1_555
Li0 Pd0 2.700630 1_545
Li0 Pd0 2.700630 1_554
Li0 Pt1 2.700636 1_645
Li0 Pt2 2.700636 1_545
Li0 Pt0 2.722714 1_555
Li0 Pt0 2.722724 1_655
Li1 Pt3 2.700625 1_555
Li1 Pt1 2.700625 1_555
Li1 Pd0 2.700630 1_545
Li1 Pd0 2.700630 1_455
Li1 Pt1 2.700636 1_546
Li1 Pt3 2.700636 1_545
Li1 Pt0 2.722713 1_555
Li1 Pt0 2.722724 1_556
Li2 Pt3 2.700625 1_555
Li2 Pd0 2.700625 1_555
Li2 Pt2 2.700625 1_555
Li2 Pt3 2.700636 1_645
Li2 Pt2 2.700636 1_546
Li2 Pd0 2.700636 1_545
Li2 Pt0 2.722719 1_556
Li2 Pt0 2.722719 1_655
Pd0 Pt2 2.722713 1_555
Pd0 Pt3 2.722714 1_555
Pd0 Pt1 2.722719 1_556
Pd0 Pt1 2.722719 1_655
Pd0 Pt2 2.722724 1_556
Pd0 Pt3 2.722724 1_655
Pt0 Pt1 2.700625 1_555
Pt0 Pt2 2.700630 1_545
Pt0 Pt3 2.700630 1_545
Pt0 Pt2 2.700630 1_455
Pt0 Pt3 2.700630 1_554
Pt0 Pt1 2.700636 1_545
Pt1 Pt3 2.722713 1_555
Pt1 Pt2 2.722714 1_555
Pt1 Pt3 2.722724 1_554
Pt1 Pt2 2.722724 1_455
Pt2 Pt3 2.722714 1_555
Pt2 Pt3 2.722724 1_654
