# generated using pymatgen
data_KNa3(P2Pd)2
_symmetry_space_group_name_H-M   'P 1'
_cell_length_a   6.97537182
_cell_length_b   6.97537143
_cell_length_c   5.79232890
_cell_angle_alpha   90.00000000
_cell_angle_beta   90.00000000
_cell_angle_gamma   128.43117844
_symmetry_Int_Tables_number   1
_chemical_formula_structural   KNa3(P2Pd)2
_chemical_formula_sum   'K1 Na3 P4 Pd2'
_cell_volume   220.77338604
_cell_formula_units_Z   1
loop_
 _symmetry_equiv_pos_site_id
 _symmetry_equiv_pos_as_xyz
  1  'x, y, z'
loop_
 _atom_site_type_symbol
 _atom_site_label
 _atom_site_symmetry_multiplicity
 _atom_site_fract_x
 _atom_site_fract_y
 _atom_site_fract_z
 _atom_site_occupancy
  K  K0  1  0.40400171  0.59599829  0.25000000  1
  Na  Na0  1  0.20917637  0.79082363  0.75000000  1
  Na  Na1  1  0.57334810  0.42665190  0.75000000  1
  Na  Na2  1  0.79224748  0.20775252  0.25000000  1
  P  P0  1  0.05549680  0.30003802  0.75000000  1
  P  P1  1  0.30716089  0.04860211  0.25000000  1
  P  P2  1  0.95139789  0.69283911  0.25000000  1
  P  P3  1  0.69996198  0.94450320  0.75000000  1
  Pd  Pd0  1  0.00360439  0.99639561  0.00014968  1
  Pd  Pd1  1  0.00360439  0.99639561  0.49985032  1
loop_
_geom_bond_atom_site_label_1
_geom_bond_atom_site_label_2
_geom_bond_distance
_geom_bond_site_symmetry_2
K0 Na2 3.343209 1_565
K0 Na2 3.343209 1_455
K0 P1 3.439368 1_555
K0 P2 3.439368 1_555
K0 P3 3.510041 1_555
K0 P3 3.510041 1_554
K0 P0 3.510042 1_555
K0 P0 3.510042 1_554
K0 Pd1 3.586949 1_545
K0 Pd0 3.586949 1_545
K0 Pd1 3.586949 1_655
K0 Pd0 3.586949 1_655
K0 Na1 3.593485 1_554
K0 Na1 3.593485 1_555
K0 P1 3.615882 1_565
K0 P2 3.615882 1_455
K0 Na0 3.791740 1_554
K0 Na0 3.791740 1_555
Na0 P0 2.882146 1_555
Na0 P3 2.882146 1_555
Na0 Pd0 2.961076 1_556
Na0 Pd1 2.961076 1_555
Na0 P1 3.249661 1_566
Na0 P1 3.249661 1_565
Na0 P2 3.249661 1_456
Na0 P2 3.249661 1_455
Na1 P3 3.140400 1_555
Na1 P0 3.140400 1_555
Na1 Pd0 3.474668 1_656
Na1 Pd1 3.474668 1_655
Na1 Pd0 3.474668 1_546
Na1 Pd1 3.474668 1_545
Na2 P2 2.830528 1_555
Na2 P1 2.830529 1_555
Na2 Pd1 3.023829 1_645
Na2 Pd0 3.023829 1_645
Na2 P3 3.271780 1_545
Na2 P3 3.271780 1_544
Na2 P0 3.271780 1_655
Na2 P0 3.271780 1_654
P0 P3 2.157520 1_445
P0 Pd0 2.400710 1_546
P0 Pd1 2.400710 1_545
P1 Pd1 2.398321 1_545
P1 Pd0 2.398321 1_545
P2 Pd1 2.398321 1_655
P2 Pd0 2.398321 1_655
P3 Pd0 2.400710 1_656
P3 Pd1 2.400710 1_655
Pd0 Pd1 2.894430 1_555
Pd0 Pd1 2.897898 1_554
