# generated using pymatgen
data_KNa3(SiAs)12
_symmetry_space_group_name_H-M   'P 1'
_cell_length_a   3.65608374
_cell_length_b   10.07301544
_cell_length_c   18.33617946
_cell_angle_alpha   91.33153676
_cell_angle_beta   90.00000000
_cell_angle_gamma   90.00000000
_symmetry_Int_Tables_number   1
_chemical_formula_structural   KNa3(SiAs)12
_chemical_formula_sum   'K1 Na3 Si12 As12'
_cell_volume   675.09858300
_cell_formula_units_Z   1
loop_
 _symmetry_equiv_pos_site_id
 _symmetry_equiv_pos_as_xyz
  1  'x, y, z'
loop_
 _atom_site_type_symbol
 _atom_site_label
 _atom_site_symmetry_multiplicity
 _atom_site_fract_x
 _atom_site_fract_y
 _atom_site_fract_z
 _atom_site_occupancy
  K  K0  1  0.00000000  0.82439924  0.20003593  1
  Na  Na0  1  0.00000000  0.32952433  0.29909772  1
  Na  Na1  1  0.00000000  0.66351663  0.70321647  1
  Na  Na2  1  0.00000000  0.16755799  0.79571665  1
  Si  Si0  1  0.50000000  0.41469505  0.03072140  1
  Si  Si1  1  0.50000000  0.59920537  0.95718663  1
  Si  Si2  1  0.50000000  0.09045778  0.54029323  1
  Si  Si3  1  0.50000000  0.89766436  0.46878243  1
  Si  Si4  1  0.00000000  0.11981781  0.01172678  1
  Si  Si5  1  0.00000000  0.89525183  0.98058330  1
  Si  Si6  1  0.00000000  0.38192667  0.51915397  1
  Si  Si7  1  0.00000000  0.60489184  0.49139663  1
  Si  Si8  1  0.00000000  0.19078004  0.13460640  1
  Si  Si9  1  0.00000000  0.82933000  0.85748158  1
  Si  Si10  1  0.00000000  0.32424661  0.64178552  1
  Si  Si11  1  0.00000000  0.66019850  0.36865711  1
  As  As0  1  0.50000000  0.12531902  0.20491915  1
  As  As1  1  0.50000000  0.89518721  0.78689388  1
  As  As2  1  0.50000000  0.39451445  0.71290036  1
  As  As3  1  0.50000000  0.58820175  0.29863064  1
  As  As4  1  0.50000000  0.27517934  0.45862737  1
  As  As5  1  0.50000000  0.71336784  0.55087763  1
  As  As6  1  0.50000000  0.22091610  0.95074648  1
  As  As7  1  0.50000000  0.79018948  0.03864662  1
  As  As8  1  0.00000000  0.42673867  0.11301422  1
  As  As9  1  0.00000000  0.59155559  0.87529964  1
  As  As10  1  0.00000000  0.08628158  0.62228661  1
  As  As11  1  0.00000000  0.89908491  0.38671763  1
loop_
_geom_bond_atom_site_label_1
_geom_bond_atom_site_label_2
_geom_bond_distance
_geom_bond_site_symmetry_2
Na0 Si8 3.294605 1_555
Na1 Si9 3.251353 1_555
Na2 Si10 3.265687 1_555
Si0 Si1 2.321381 1_554
Si2 Si3 2.317843 1_545
Si4 Si5 2.320122 1_544
Si4 Si8 2.347924 1_555
Si5 Si9 2.338012 1_555
Si6 Si7 2.314385 1_555
Si10 Si6 2.335480 1_555
Si11 Si7 2.331034 1_555
As0 Si8 2.340567 1_655
As0 Si8 2.340567 1_555
As0 Na0 3.223329 1_555
As0 Na0 3.223329 1_655
As0 K0 3.539086 1_545
As0 K0 3.539086 1_645
As1 Si9 2.344558 1_655
As1 Si9 2.344558 1_555
As1 Na2 3.297665 1_565
As1 Na2 3.297665 1_665
As1 Na1 3.312894 1_555
As1 Na1 3.312894 1_655
As2 Si10 2.345247 1_555
As2 Si10 2.345247 1_655
As2 Na1 3.276874 1_555
As2 Na1 3.276874 1_655
As2 Na2 3.321964 1_555
As2 Na2 3.321964 1_655
As3 Si11 2.339468 1_555
As3 Si11 2.339468 1_655
As3 Na0 3.183131 1_555
As3 Na0 3.183131 1_655
As3 K0 3.531381 1_555
As3 K0 3.531381 1_655
As4 Si6 2.382056 1_555
As4 Si6 2.382056 1_655
As4 Si2 2.415375 1_555
As4 Na0 3.503200 1_555
As4 Na0 3.503200 1_655
As5 Si7 2.381140 1_655
As5 Si7 2.381140 1_555
As5 Si3 2.417052 1_555
As5 Na1 3.385510 1_555
As5 Na1 3.385510 1_655
As6 Si4 2.383689 1_656
As6 Si4 2.383689 1_556
As6 Si0 2.414014 1_556
As6 Na2 3.411788 1_555
As6 Na2 3.411788 1_655
As7 Si5 2.376466 1_654
As7 Si5 2.376466 1_554
As7 Si1 2.407995 1_554
As7 K0 3.488600 1_555
As7 K0 3.488600 1_655
As8 Si0 2.371673 1_455
As8 Si0 2.371673 1_555
As8 Si8 2.418622 1_555
As9 Si1 2.365752 1_455
As9 Si1 2.365752 1_555
As9 Si9 2.424797 1_555
As9 Na1 3.253913 1_555
As10 Si2 2.367867 1_455
As10 Si2 2.367867 1_555
As10 Si10 2.415312 1_555
As10 Na2 3.265264 1_555
As11 Si3 2.367959 1_555
As11 Si3 2.367959 1_455
As11 Si11 2.421352 1_555
As11 K0 3.487609 1_555
