# generated using pymatgen
data_Tl2Pt3
_symmetry_space_group_name_H-M   'P 1'
_cell_length_a   5.69237224
_cell_length_b   5.69237201
_cell_length_c   14.03436100
_cell_angle_alpha   90.00000000
_cell_angle_beta   90.00000000
_cell_angle_gamma   120.00000135
_symmetry_Int_Tables_number   1
_chemical_formula_structural   Tl2Pt3
_chemical_formula_sum   'Tl8 Pt12'
_cell_volume   393.83094338
_cell_formula_units_Z   4
loop_
 _symmetry_equiv_pos_site_id
 _symmetry_equiv_pos_as_xyz
  1  'x, y, z'
loop_
 _atom_site_type_symbol
 _atom_site_label
 _atom_site_symmetry_multiplicity
 _atom_site_fract_x
 _atom_site_fract_y
 _atom_site_fract_z
 _atom_site_occupancy
  Tl  Tl0  1  -0.00000000  -0.00000000  0.25000000  1
  Tl  Tl1  1  -0.00000000  -0.00000000  0.75000000  1
  Tl  Tl2  1  0.33333300  0.66666700  0.25000000  1
  Tl  Tl3  1  0.66666700  0.33333300  0.75000000  1
  Tl  Tl4  1  0.33333300  0.66666700  0.90734232  1
  Tl  Tl5  1  0.33333300  0.66666700  0.59265768  1
  Tl  Tl6  1  0.66666700  0.33333300  0.09265768  1
  Tl  Tl7  1  0.66666700  0.33333300  0.40734232  1
  Pt  Pt0  1  0.16611463  0.33222573  0.08619116  1
  Pt  Pt1  1  0.66777427  0.83388990  0.08619116  1
  Pt  Pt2  1  0.16611010  0.83388537  0.08619116  1
  Pt  Pt3  1  0.66777427  0.83388537  0.41380884  1
  Pt  Pt4  1  0.16611010  0.33222573  0.41380884  1
  Pt  Pt5  1  0.16611463  0.83388990  0.41380884  1
  Pt  Pt6  1  0.83388537  0.66777427  0.91380884  1
  Pt  Pt7  1  0.33222573  0.16611010  0.91380884  1
  Pt  Pt8  1  0.83388990  0.16611463  0.91380884  1
  Pt  Pt9  1  0.33222573  0.16611463  0.58619116  1
  Pt  Pt10  1  0.83388990  0.66777427  0.58619116  1
  Pt  Pt11  1  0.83388537  0.16611010  0.58619116  1
loop_
_geom_bond_atom_site_label_1
_geom_bond_atom_site_label_2
_geom_bond_distance
_geom_bond_site_symmetry_2
Tl0 Tl2 3.286489 1_545
Tl0 Tl2 3.286494 1_555
Tl0 Tl2 3.286494 1_445
Tl1 Tl3 3.286489 1_455
Tl1 Tl3 3.286494 1_445
Tl1 Tl3 3.286494 1_555
Pt0 Tl0 2.822681 1_555
Pt0 Tl2 2.829032 1_555
Pt0 Pt2 2.836726 1_545
Pt0 Pt1 2.836726 1_445
Pt0 Tl6 2.847631 1_555
Pt0 Tl6 2.847645 1_455
Pt0 Pt1 2.855646 1_555
Pt0 Pt2 2.855646 1_555
Pt0 Pt8 2.921510 1_454
Pt0 Pt7 2.921516 1_554
Pt0 Tl4 3.003079 1_554
Pt1 Tl0 2.822681 1_665
Pt1 Tl2 2.829032 1_555
Pt1 Pt2 2.836726 1_655
Pt1 Tl6 2.847619 1_565
Pt1 Tl6 2.847656 1_555
Pt1 Pt2 2.855646 1_555
Pt1 Pt8 2.921510 1_564
Pt1 Pt6 2.921516 1_554
Pt1 Tl4 3.003079 1_554
Pt2 Tl0 2.822678 1_565
Pt2 Tl2 2.829032 1_555
Pt2 Tl6 2.847625 1_455
Pt2 Tl6 2.847651 1_565
Pt2 Pt7 2.921510 1_564
Pt2 Pt6 2.921510 1_454
Pt2 Tl4 3.003079 1_554
Pt3 Tl0 2.822681 1_665
Pt3 Tl2 2.829032 1_555
Pt3 Pt4 2.836726 1_665
Pt3 Pt5 2.836726 1_655
Pt3 Tl7 2.847631 1_555
Pt3 Tl7 2.847645 1_565
Pt3 Pt4 2.855646 1_555
Pt3 Pt5 2.855646 1_555
Pt3 Tl5 3.003079 1_555
Pt4 Tl0 2.822681 1_555
Pt4 Tl2 2.829032 1_555
Pt4 Pt5 2.836726 1_545
Pt4 Tl7 2.847619 1_455
Pt4 Tl7 2.847656 1_555
Pt4 Pt5 2.855646 1_555
Pt4 Pt9 2.921516 1_555
Pt4 Tl5 3.003079 1_555
Pt5 Tl0 2.822678 1_565
Pt5 Tl2 2.829032 1_555
Pt5 Tl7 2.847625 1_565
Pt5 Tl7 2.847651 1_455
Pt5 Pt9 2.921510 1_565
Pt5 Tl5 3.003079 1_555
Pt6 Tl1 2.822681 1_665
Pt6 Tl3 2.829032 1_555
Pt6 Pt8 2.836726 1_565
Pt6 Pt7 2.836726 1_665
Pt6 Tl4 2.847631 1_555
Pt6 Tl4 2.847645 1_655
Pt6 Pt7 2.855646 1_555
Pt6 Pt8 2.855646 1_555
Pt6 Tl6 3.003079 1_556
Pt7 Tl1 2.822681 1_555
Pt7 Tl3 2.829032 1_555
Pt7 Pt8 2.836726 1_455
Pt7 Tl4 2.847619 1_545
Pt7 Tl4 2.847656 1_555
Pt7 Pt8 2.855646 1_555
Pt7 Tl6 3.003079 1_556
Pt8 Tl1 2.822678 1_655
Pt8 Tl3 2.829032 1_555
Pt8 Tl4 2.847625 1_655
Pt8 Tl4 2.847651 1_545
Pt8 Tl6 3.003079 1_556
Pt9 Tl1 2.822681 1_555
Pt9 Tl3 2.829032 1_555
Pt9 Tl5 2.847631 1_555
Pt9 Tl5 2.847645 1_545
Pt9 Tl7 3.003079 1_555
Pt10 Tl1 2.822681 1_665
Pt10 Tl3 2.829032 1_555
Pt10 Pt9 2.836726 1_665
Pt10 Pt11 2.836726 1_565
Pt10 Tl5 2.847619 1_655
Pt10 Tl5 2.847656 1_555
Pt10 Pt11 2.855646 1_555
Pt10 Pt9 2.855646 1_555
Pt10 Pt5 2.921510 1_655
Pt10 Pt3 2.921516 1_555
Pt10 Tl7 3.003079 1_555
Pt11 Tl1 2.822678 1_655
Pt11 Tl3 2.829032 1_555
Pt11 Pt9 2.836726 1_655
Pt11 Tl5 2.847625 1_545
Pt11 Tl5 2.847651 1_655
Pt11 Pt9 2.855646 1_555
Pt11 Pt3 2.921510 1_545
Pt11 Pt4 2.921510 1_655
Pt11 Tl7 3.003079 1_555
