# generated using pymatgen
data_Zr10Sn2GeSb4
_symmetry_space_group_name_H-M   'P 1'
_cell_length_a   5.85854156
_cell_length_b   8.58093498
_cell_length_c   8.56714229
_cell_angle_alpha   120.05291207
_cell_angle_beta   89.89985173
_cell_angle_gamma   90.19996576
_symmetry_Int_Tables_number   1
_chemical_formula_structural   Zr10Sn2GeSb4
_chemical_formula_sum   'Zr10 Sn2 Ge1 Sb4'
_cell_volume   372.78316433
_cell_formula_units_Z   1
loop_
 _symmetry_equiv_pos_site_id
 _symmetry_equiv_pos_as_xyz
  1  'x, y, z'
loop_
 _atom_site_type_symbol
 _atom_site_label
 _atom_site_symmetry_multiplicity
 _atom_site_fract_x
 _atom_site_fract_y
 _atom_site_fract_z
 _atom_site_occupancy
  Zr  Zr0  1  0.49977555  0.33359625  0.66810380  1
  Zr  Zr1  1  0.49978316  0.66549128  0.33189960  1
  Zr  Zr2  1  0.00129320  0.66611413  0.33268126  1
  Zr  Zr3  1  0.00129884  0.33344034  0.66732167  1
  Zr  Zr4  1  0.76029733  0.25774271  0.99996092  1
  Zr  Zr5  1  0.76337028  0.74516882  0.74420660  1
  Zr  Zr6  1  0.76337417  0.00102978  0.25582445  1
  Zr  Zr7  1  0.23751940  0.74080647  0.99996267  1
  Zr  Zr8  1  0.23658143  0.25662781  0.25738134  1
  Zr  Zr9  1  0.23658325  0.99931303  0.74265956  1
  Sn  Sn0  1  0.25298253  0.61050930  0.61055718  1
  Sn  Sn1  1  0.25298306  0.99998888  0.38946267  1
  Ge  Ge0  1  0.49759504  0.99954621  0.00000106  1
  Sb  Sb0  1  0.74859062  0.61142009  0.99998479  1
  Sb  Sb1  1  0.74886070  0.39166139  0.39226848  1
  Sb  Sb2  1  0.74888014  0.99942280  0.60774391  1
  Sb  Sb3  1  0.25023232  0.38811771  0.99998004  1
loop_
_geom_bond_atom_site_label_1
_geom_bond_atom_site_label_2
_geom_bond_distance
_geom_bond_site_symmetry_2
Sn0 Zr9 2.939550 1_555
Sn0 Zr7 2.941343 1_555
Sn0 Zr1 3.020544 1_555
Sn0 Zr0 3.029778 1_555
Sn0 Zr8 3.030117 1_555
Sn0 Zr3 3.032207 1_555
Sn0 Zr2 3.037114 1_555
Sn0 Zr5 3.092004 1_455
Sn0 Zr5 3.201524 1_555
Sn1 Zr8 2.938897 1_565
Sn1 Zr7 2.942081 1_554
Sn1 Zr0 3.020339 1_565
Sn1 Zr1 3.030041 1_555
Sn1 Zr9 3.030152 1_555
Sn1 Zr2 3.032490 1_555
Sn1 Zr3 3.036930 1_565
Sn1 Zr6 3.091999 1_465
Sn1 Zr6 3.201553 1_565
Ge0 Zr9 2.684449 1_554
Ge0 Zr8 2.684506 1_565
Ge0 Zr6 2.685506 1_565
Ge0 Zr5 2.685532 1_554
Ge0 Zr7 2.688238 1_554
Ge0 Zr4 2.693396 1_564
Sb0 Zr5 2.940070 1_555
Sb0 Zr6 2.940724 1_566
Sb0 Zr0 3.015548 1_555
Sb0 Zr1 3.015729 1_556
Sb0 Zr3 3.033962 1_655
Sb0 Zr2 3.034153 1_656
Sb0 Zr4 3.035794 1_555
Sb0 Zr7 3.068472 1_655
Sb0 Zr7 3.197016 1_555
Sb1 Zr6 2.947298 1_555
Sb1 Zr4 2.958443 1_554
Sb1 Zr0 3.020640 1_555
Sb1 Zr5 3.022933 1_555
Sb1 Zr1 3.026841 1_555
Sb1 Zr2 3.028404 1_655
Sb1 Zr3 3.030838 1_655
Sb1 Zr8 3.084281 1_655
Sb1 Zr8 3.214340 1_555
Sb2 Zr5 2.947939 1_555
Sb2 Zr4 2.957750 1_565
Sb2 Zr1 3.020859 1_555
Sb2 Zr6 3.022917 1_565
Sb2 Zr0 3.026759 1_565
Sb2 Zr3 3.028229 1_665
Sb2 Zr2 3.030969 1_655
Sb2 Zr9 3.084215 1_655
Sb2 Zr9 3.214466 1_555
Sb3 Zr9 2.937561 1_545
Sb3 Zr8 2.938233 1_556
Sb3 Zr0 3.016304 1_555
Sb3 Zr1 3.016590 1_556
Sb3 Zr3 3.023179 1_555
Sb3 Zr2 3.023447 1_556
Sb3 Zr7 3.027650 1_555
Sb3 Zr4 3.076951 1_455
Sb3 Zr4 3.194415 1_555
