# generated using pymatgen
data_Sr10In3Pd2Au
_symmetry_space_group_name_H-M   'P 1'
_cell_length_a   9.98191913
_cell_length_b   9.98191974
_cell_length_c   9.93090530
_cell_angle_alpha   129.56906704
_cell_angle_beta   129.42916766
_cell_angle_gamma   74.59559318
_symmetry_Int_Tables_number   1
_chemical_formula_structural   Sr10In3Pd2Au
_chemical_formula_sum   'Sr10 In3 Pd2 Au1'
_cell_volume   572.90069557
_cell_formula_units_Z   1
loop_
 _symmetry_equiv_pos_site_id
 _symmetry_equiv_pos_as_xyz
  1  'x, y, z'
loop_
 _atom_site_type_symbol
 _atom_site_label
 _atom_site_symmetry_multiplicity
 _atom_site_fract_x
 _atom_site_fract_y
 _atom_site_fract_z
 _atom_site_occupancy
  Sr  Sr0  1  0.03086614  0.52578127  0.83420447  1
  Sr  Sr1  1  0.30842320  0.80333733  0.83420447  1
  Sr  Sr2  1  0.96633372  0.46288581  0.15195076  1
  Sr  Sr3  1  0.99537452  0.00777642  0.00315094  1
  Sr  Sr4  1  0.46475221  0.31962551  0.50510656  1
  Sr  Sr5  1  0.18548105  0.04035436  0.50510656  1
  Sr  Sr6  1  0.68906495  0.18561604  0.15195076  1
  Sr  Sr7  1  0.53610948  0.68848711  0.50646517  1
  Sr  Sr8  1  0.81797706  0.97035569  0.50646517  1
  Sr  Sr9  1  0.50274887  0.49262140  0.99537027  1
  In  In0  1  0.25018797  0.24857568  0.99890085  1
  In  In1  1  0.38651317  0.88613883  0.27265300  1
  In  In2  1  0.75032617  0.74871288  0.99890085  1
  Pd  Pd0  1  0.61899545  0.11902363  0.73801808  1
  Pd  Pd1  1  0.11494087  0.38324799  0.49818886  1
  Au  Au0  1  0.88190518  0.61745905  0.49936423  1
loop_
_geom_bond_atom_site_label_1
_geom_bond_atom_site_label_2
_geom_bond_distance
_geom_bond_site_symmetry_2
Sr0 Sr9 3.889531 1_555
Sr0 Sr3 3.956491 1_466
Sr1 Sr9 3.889522 1_555
Sr1 Sr3 3.956491 1_466
Sr2 Sr3 3.767925 1_555
Sr2 Sr9 3.825912 1_554
Sr3 Sr6 3.767925 1_555
Sr3 Sr8 3.809769 1_544
Sr3 Sr7 3.809772 1_544
Sr3 Sr4 3.847401 1_655
Sr3 Sr5 3.847401 1_655
Sr4 Sr9 3.757872 1_555
Sr5 Sr9 3.757872 1_555
Sr6 Sr9 3.825921 1_554
Sr7 Sr9 3.905344 1_554
Sr8 Sr9 3.905341 1_554
In0 Sr5 3.534015 1_555
In0 Sr8 3.536042 1_445
In0 Sr4 3.598598 1_556
In0 Sr7 3.608389 1_556
In0 Sr2 3.608675 1_456
In0 Sr0 3.622667 1_555
In0 Sr6 3.632238 1_556
In0 Sr1 3.652317 1_545
In0 Sr3 3.970188 1_456
In0 Sr9 3.971771 1_555
In1 Pd0 2.775459 1_565
In1 Sr7 3.373541 1_555
In1 Sr8 3.373543 1_555
In1 Sr5 3.382508 1_565
In1 Sr4 3.382519 1_565
In1 Sr0 3.419901 1_554
In1 Sr1 3.419907 1_554
In1 Sr9 3.495023 1_554
In1 Sr3 3.497022 1_465
In2 Sr4 3.534018 1_555
In2 Sr7 3.536034 1_555
In2 Sr5 3.598592 1_666
In2 Sr8 3.608399 1_556
In2 Sr6 3.608667 1_566
In2 Sr1 3.622675 1_555
In2 Sr2 3.632235 1_556
In2 Sr0 3.652299 1_655
In2 Sr3 3.970180 1_566
In2 Sr9 3.971779 1_555
Pd0 Sr2 3.307964 1_556
Pd0 Sr6 3.307980 1_556
Pd0 Sr9 3.333308 1_555
Pd0 Sr3 3.350210 1_556
Pd0 Sr8 3.365020 1_545
Pd0 Sr7 3.365039 1_545
Pd0 Sr4 3.386642 1_555
Pd0 Sr5 3.386652 1_555
Pd1 Sr1 3.276889 1_555
Pd1 Sr0 3.276896 1_555
Pd1 Sr2 3.321485 1_455
Pd1 Sr6 3.321488 1_455
Pd1 Sr3 3.330034 1_455
Pd1 Sr4 3.342664 1_555
Pd1 Sr5 3.342665 1_555
Pd1 Sr9 3.413902 1_555
Au0 Pd1 2.826190 1_655
Au0 Sr1 3.313473 1_655
Au0 Sr0 3.313476 1_655
Au0 Sr2 3.348862 1_555
Au0 Sr6 3.348870 1_555
Au0 Sr8 3.371540 1_555
Au0 Sr7 3.371540 1_555
Au0 Sr9 3.380143 1_554
Au0 Sr3 3.435952 1_566
