# generated using pymatgen
data_Hf3Mn(Bi2O7)2
_symmetry_space_group_name_H-M   'P 1'
_cell_length_a   7.48860354
_cell_length_b   7.57078730
_cell_length_c   7.54303476
_cell_angle_alpha   59.86147665
_cell_angle_beta   59.65983738
_cell_angle_gamma   89.85923315
_symmetry_Int_Tables_number   1
_chemical_formula_structural   Hf3Mn(Bi2O7)2
_chemical_formula_sum   'Hf3 Mn1 Bi4 O14'
_cell_volume   300.56930415
_cell_formula_units_Z   1
loop_
 _symmetry_equiv_pos_site_id
 _symmetry_equiv_pos_as_xyz
  1  'x, y, z'
loop_
 _atom_site_type_symbol
 _atom_site_label
 _atom_site_symmetry_multiplicity
 _atom_site_fract_x
 _atom_site_fract_y
 _atom_site_fract_z
 _atom_site_occupancy
  Hf  Hf0  1  0.12123751  0.87472996  0.76062476  1
  Hf  Hf1  1  0.12376588  0.88010817  0.25522904  1
  Hf  Hf2  1  0.12314243  0.37970327  0.74162250  1
  Mn  Mn0  1  0.62401327  0.87892891  0.24942764  1
  Bi  Bi0  1  0.63651919  0.44755738  0.67451765  1
  Bi  Bi1  1  0.11914647  0.35919309  0.22079484  1
  Bi  Bi2  1  0.61303500  0.87439911  0.81797286  1
  Bi  Bi3  1  0.60884190  0.30775522  0.25849841  1
  O  O0  1  0.79805756  0.17723741  0.02620004  1
  O  O1  1  0.49926987  0.50273021  0.97418497  1
  O  O2  1  0.22306401  0.20503488  0.59832683  1
  O  O3  1  0.45016038  0.93080482  0.12377027  1
  O  O4  1  0.20167821  0.21330310  0.00530974  1
  O  O5  1  0.44829745  0.95324773  0.47539529  1
  O  O6  1  0.44868008  0.58003934  0.49973237  1
  O  O7  1  0.04069113  0.96265655  0.50489587  1
  O  O8  1  0.73442745  0.23207302  0.49446069  1
  O  O9  1  0.01949779  0.55666889  0.52926089  1
  O  O10  1  0.79710557  0.82700620  0.00292083  1
  O  O11  1  0.04324522  0.54320647  0.92190089  1
  O  O12  1  0.79804241  0.80350416  0.37613012  1
  O  O13  1  0.22108124  0.81710913  0.98882250  1
loop_
_geom_bond_atom_site_label_1
_geom_bond_atom_site_label_2
_geom_bond_distance
_geom_bond_site_symmetry_2
Hf0 O10 2.054757 1_456
Hf0 O13 2.063202 1_555
Hf0 O2 2.079811 1_565
Hf0 O11 2.084201 1_555
Hf0 O5 2.092908 1_555
Hf0 O7 2.100459 1_555
Hf1 O9 2.043166 1_555
Hf1 O13 2.068328 1_554
Hf1 O3 2.068509 1_555
Hf1 O7 2.078593 1_555
Hf1 O12 2.084784 1_455
Hf1 O4 2.092419 1_565
Hf2 O9 2.014737 1_555
Hf2 O2 2.022439 1_555
Hf2 O6 2.077988 1_555
Hf2 O0 2.078149 1_456
Hf2 O4 2.133312 1_556
Hf2 O11 2.145728 1_555
Mn0 O10 1.894373 1_555
Mn0 O0 1.900816 1_565
Mn0 O3 1.902097 1_555
Mn0 O6 1.905001 1_555
Mn0 O12 1.909065 1_555
Mn0 O5 1.909673 1_555
Bi0 O1 2.222428 1_555
Bi0 O12 2.228408 1_555
Bi0 O6 2.293826 1_555
Bi0 O9 2.456886 1_655
Bi0 O8 2.501342 1_555
Bi0 O4 2.711292 1_556
Bi1 O4 2.242411 1_555
Bi1 O1 2.319488 1_554
Bi1 O11 2.341720 1_554
Bi1 O8 2.344794 1_455
Bi1 O7 2.495288 1_545
Bi2 O3 2.266034 1_556
Bi2 O8 2.291125 1_565
Bi2 O10 2.326521 1_556
Bi2 O1 2.387472 1_555
Bi2 O13 2.467333 1_555
Bi2 O7 2.658017 1_655
Bi3 O5 2.223676 1_545
Bi3 O8 2.246120 1_555
Bi3 O0 2.297378 1_555
Bi3 O1 2.458533 1_554
Bi3 O2 2.459543 1_555
Bi3 O11 2.710316 1_654
