# generated using pymatgen
data_Co2RuO4
_symmetry_space_group_name_H-M   'P 1'
_cell_length_a   5.98670815
_cell_length_b   5.98670875
_cell_length_c   5.99251900
_cell_angle_alpha   59.96789562
_cell_angle_beta   59.96789232
_cell_angle_gamma   56.06568917
_symmetry_Int_Tables_number   1
_chemical_formula_structural   Co2RuO4
_chemical_formula_sum   'Co4 Ru2 O8'
_cell_volume   146.78139776
_cell_formula_units_Z   2
loop_
 _symmetry_equiv_pos_site_id
 _symmetry_equiv_pos_as_xyz
  1  'x, y, z'
loop_
 _atom_site_type_symbol
 _atom_site_label
 _atom_site_symmetry_multiplicity
 _atom_site_fract_x
 _atom_site_fract_y
 _atom_site_fract_z
 _atom_site_occupancy
  Co  Co0  1  0.99741700  0.99741700  0.00258300  1
  Co  Co1  1  0.25258300  0.25258300  0.24741700  1
  Co  Co2  1  0.62500000  0.62500000  0.12500000  1
  Co  Co3  1  0.62500000  0.62500000  0.62500000  1
  Ru  Ru0  1  0.12500000  0.62500000  0.62500000  1
  Ru  Ru1  1  0.62500000  0.12500000  0.62500000  1
  O  O0  1  0.40135600  0.40135600  0.35011700  1
  O  O1  1  0.40135600  0.40135600  0.84717000  1
  O  O2  1  0.38865900  0.83807000  0.38663500  1
  O  O3  1  0.83807000  0.38865900  0.38663500  1
  O  O4  1  0.41193000  0.86134100  0.86336500  1
  O  O5  1  0.86134100  0.41193000  0.86336500  1
  O  O6  1  0.84864400  0.84864400  0.40283000  1
  O  O7  1  0.84864400  0.84864400  0.89988300  1
loop_
_geom_bond_atom_site_label_1
_geom_bond_atom_site_label_2
_geom_bond_distance
_geom_bond_site_symmetry_2
Co0 O4 1.966911 1_654
Co0 O5 1.966911 1_564
Co0 O7 1.987042 1_554
Co0 O6 1.987046 1_555
Co1 O3 1.966911 1_455
Co1 O2 1.966911 1_545
Co1 O0 1.987042 1_555
Co1 O1 1.987046 1_554
Co2 O7 1.946964 1_554
Co2 O0 1.946964 1_555
Co2 O5 1.963042 1_554
Co2 O2 1.963042 1_555
Co2 O4 1.963042 1_554
Co2 O3 1.963042 1_555
Co3 O6 1.946964 1_555
Co3 O1 1.946964 1_555
Co3 O2 1.963046 1_555
Co3 O5 1.963046 1_555
Co3 O3 1.963046 1_555
Co3 O4 1.963046 1_555
O0 Ru0 2.061499 1_555
O0 Ru1 2.061500 1_555
O1 Ru0 2.061495 1_555
O1 Ru1 2.061495 1_555
O2 Ru0 2.079970 1_555
O3 Ru1 2.079971 1_555
O4 Ru1 2.079971 1_565
O5 Ru0 2.079970 1_655
O6 Ru0 2.061495 1_655
O6 Ru1 2.061495 1_565
O7 Ru0 2.061499 1_655
O7 Ru1 2.061500 1_565
