# generated using pymatgen
data_Ba5Sr(VH9)3
_symmetry_space_group_name_H-M   'P 1'
_cell_length_a   9.26636894
_cell_length_b   9.18836681
_cell_length_c   5.34563096
_cell_angle_alpha   90.00000000
_cell_angle_beta   90.00000000
_cell_angle_gamma   119.72194435
_symmetry_Int_Tables_number   1
_chemical_formula_structural   Ba5Sr(VH9)3
_chemical_formula_sum   'Ba5 Sr1 V3 H27'
_cell_volume   395.26426182
_cell_formula_units_Z   1
loop_
 _symmetry_equiv_pos_site_id
 _symmetry_equiv_pos_as_xyz
  1  'x, y, z'
loop_
 _atom_site_type_symbol
 _atom_site_label
 _atom_site_symmetry_multiplicity
 _atom_site_fract_x
 _atom_site_fract_y
 _atom_site_fract_z
 _atom_site_occupancy
  Ba  Ba0  1  0.73402184  0.73482192  0.50000000  1
  Ba  Ba1  1  0.26597816  0.00079909  0.50000000  1
  Ba  Ba2  1  1.00000000  0.58991786  0.00000000  1
  Ba  Ba3  1  0.40207778  0.40257273  0.00000000  1
  Ba  Ba4  1  0.59792222  0.00049494  0.00000000  1
  Sr  Sr0  1  1.00000000  0.26682599  0.50000000  1
  V  V0  1  0.67316358  0.33136429  0.50000000  1
  V  V1  1  0.32683642  0.65820171  0.50000000  1
  V  V2  1  1.00000000  0.01043348  0.00000000  1
  H  H0  1  0.79561222  0.31217439  0.73156312  1
  H  H1  1  0.69023239  0.46779714  0.73897298  1
  H  H2  1  0.53477731  0.21303140  0.73636165  1
  H  H3  1  0.20438778  0.51656317  0.26843688  1
  H  H4  1  0.53477731  0.21303140  0.26363835  1
  H  H5  1  0.79561222  0.31217439  0.26843688  1
  H  H6  1  0.69023239  0.46779714  0.26102702  1
  H  H7  1  0.30976761  0.77756576  0.73897298  1
  H  H8  1  0.46522269  0.67825509  0.73636165  1
  H  H9  1  0.18856377  0.01596353  0.00000000  1
  H  H10  1  0.81143623  0.82739976  0.00000000  1
  H  H11  1  0.00000000  0.19777278  0.00000000  1
  H  H12  1  0.87020419  0.01270337  0.22805106  1
  H  H13  1  0.12979581  0.14249918  0.77194894  1
  H  H14  1  1.00000000  0.87136058  0.78473564  1
  H  H15  1  1.00000000  0.87136058  0.21526436  1
  H  H16  1  0.12979581  0.14249918  0.22805106  1
  H  H17  1  0.87020419  0.01270337  0.77194894  1
  H  H18  1  0.13765141  0.64298683  0.50000000  1
  H  H19  1  0.49678774  0.85264156  0.50000000  1
  H  H20  1  0.34890783  0.48581147  0.50000000  1
  H  H21  1  0.50321226  0.35585382  0.50000000  1
  H  H22  1  0.86234859  0.50533442  0.50000000  1
  H  H23  1  0.65109217  0.13690364  0.50000000  1
  H  H24  1  0.20438778  0.51656317  0.73156312  1
  H  H25  1  0.30976761  0.77756576  0.26102702  1
  H  H26  1  0.46522269  0.67825509  0.26363835  1
loop_
_geom_bond_atom_site_label_1
_geom_bond_atom_site_label_2
_geom_bond_distance
_geom_bond_site_symmetry_2
Ba0 H26 2.605172 1_555
Ba0 H8 2.605172 1_555
Ba0 H1 2.613263 1_555
Ba0 H6 2.613263 1_555
Ba0 H14 2.626626 1_555
Ba0 H15 2.626626 1_555
Ba0 H17 2.651435 1_565
Ba0 H12 2.651435 1_565
Ba0 H10 2.788736 1_556
Ba0 H10 2.788736 1_555
Ba0 H22 2.889043 1_555
Ba0 H19 2.892102 1_555
Ba1 H4 2.605172 1_555
Ba1 H2 2.605172 1_555
Ba1 H7 2.613247 1_545
Ba1 H25 2.613247 1_545
Ba1 H14 2.626626 1_445
Ba1 H15 2.626626 1_445
Ba1 H13 2.651442 1_555
Ba1 H16 2.651442 1_555
Ba1 H9 2.788738 1_556
Ba1 H9 2.788738 1_555
Ba1 H18 2.889025 1_545
Ba1 H21 2.892108 1_555
Ba2 H3 2.714070 1_655
Ba2 H24 2.714070 1_654
Ba2 H5 2.714075 1_555
Ba2 H0 2.714075 1_554
Ba2 H15 2.830469 1_555
Ba2 H14 2.830469 1_554
Ba2 H6 2.872570 1_555
Ba2 H1 2.872570 1_554
Ba2 H25 2.872570 1_655
Ba2 H7 2.872570 1_654
Ba2 H18 2.896887 1_655
Ba2 H18 2.896887 1_654
Ba2 H22 2.896887 1_555
Ba2 H22 2.896887 1_554
Ba3 H8 2.697276 1_554
Ba3 H26 2.697276 1_555
Ba3 H16 2.753896 1_555
Ba3 H13 2.753896 1_554
Ba3 H6 2.801625 1_555
Ba3 H1 2.801625 1_554
Ba3 H20 2.888824 1_555
Ba3 H20 2.888824 1_554
Ba3 H3 2.900760 1_555
Ba3 H24 2.900760 1_554
Ba3 H21 2.933491 1_555
Ba3 H21 2.933491 1_554
Ba3 H2 2.941897 1_554
Ba3 H4 2.941897 1_555
Ba4 H2 2.697268 1_554
Ba4 H4 2.697268 1_555
Ba4 H12 2.753896 1_555
Ba4 H17 2.753896 1_554
Ba4 H25 2.801622 1_545
Ba4 H7 2.801622 1_544
Ba4 H23 2.888824 1_555
Ba4 H23 2.888824 1_554
Ba4 H5 2.900753 1_555
Ba4 H0 2.900753 1_554
Ba4 H19 2.933491 1_544
Ba4 H19 2.933491 1_545
Ba4 H8 2.941889 1_544
Ba4 H26 2.941889 1_545
H0 V0 1.746192 1_555
H0 Sr0 2.464831 1_555
H1 V0 1.741212 1_555
H2 V0 1.743699 1_555
H3 V1 1.746192 1_555
H3 Sr0 2.464836 1_455
H4 V0 1.743699 1_555
H5 V0 1.746192 1_555
H5 Sr0 2.464831 1_555
H6 V0 1.741212 1_555
H7 V1 1.741212 1_555
H8 V1 1.743700 1_555
H9 V2 1.722675 1_455
H10 V2 1.722674 1_565
H11 V2 1.721342 1_455
H12 V2 1.719893 1_555
H12 Sr0 2.495457 1_555
H13 V2 1.719892 1_456
H13 Sr0 2.495458 1_455
H14 V2 1.719614 1_566
H15 V2 1.719614 1_565
H16 V2 1.719892 1_455
H16 Sr0 2.495458 1_455
H17 V2 1.719893 1_556
H17 Sr0 2.495457 1_555
H18 V1 1.688118 1_555
H19 V1 1.697673 1_555
H20 V1 1.694718 1_555
H21 V0 1.697678 1_555
H22 V0 1.688118 1_555
H23 V0 1.694709 1_555
H24 V1 1.746192 1_555
H24 Sr0 2.464836 1_455
H25 V1 1.741212 1_555
H26 V1 1.743700 1_555
