# generated using pymatgen
data_Cs2TiTc11Te14
_symmetry_space_group_name_H-M   'P 1'
_cell_length_a   10.21327069
_cell_length_b   10.19469128
_cell_length_c   10.22125675
_cell_angle_alpha   62.30420959
_cell_angle_beta   61.96232921
_cell_angle_gamma   62.35683935
_symmetry_Int_Tables_number   1
_chemical_formula_structural   Cs2TiTc11Te14
_chemical_formula_sum   'Cs2 Ti1 Tc11 Te14'
_cell_volume   789.62319308
_cell_formula_units_Z   1
loop_
 _symmetry_equiv_pos_site_id
 _symmetry_equiv_pos_as_xyz
  1  'x, y, z'
loop_
 _atom_site_type_symbol
 _atom_site_label
 _atom_site_symmetry_multiplicity
 _atom_site_fract_x
 _atom_site_fract_y
 _atom_site_fract_z
 _atom_site_occupancy
  Cs  Cs0  1  0.61282427  0.61571393  0.60950043  1
  Cs  Cs1  1  0.38565207  0.38522901  0.38903827  1
  Ti  Ti0  1  0.71406590  0.87669516  0.99218415  1
  Tc  Tc0  1  0.99599680  0.71213177  0.87657861  1
  Tc  Tc1  1  0.87189553  0.00071769  0.71360584  1
  Tc  Tc2  1  0.29449105  0.12450839  0.99615225  1
  Tc  Tc3  1  0.00138277  0.28941089  0.12810766  1
  Tc  Tc4  1  0.12657171  0.99708484  0.29178005  1
  Tc  Tc5  1  0.94344758  0.80919847  0.10740457  1
  Tc  Tc6  1  0.10079266  0.94189398  0.81280767  1
  Tc  Tc7  1  0.81000643  0.10714178  0.94272213  1
  Tc  Tc8  1  0.05694342  0.18638849  0.90120441  1
  Tc  Tc9  1  0.89775768  0.05633126  0.18669762  1
  Tc  Tc10  1  0.18369040  0.89750539  0.05980271  1
  Te  Te0  1  0.41527756  0.81780949  0.16383419  1
  Te  Te1  1  0.16473333  0.41817571  0.81903940  1
  Te  Te2  1  0.81872825  0.16238551  0.42006239  1
  Te  Te3  1  0.57862498  0.19554933  0.82722131  1
  Te  Te4  1  0.84130801  0.57379298  0.18132909  1
  Te  Te5  1  0.17678437  0.83768478  0.57973802  1
  Te  Te6  1  0.64908838  0.98316819  0.24363130  1
  Te  Te7  1  0.24025142  0.64772238  0.98137775  1
  Te  Te8  1  0.98106739  0.24165315  0.65011994  1
  Te  Te9  1  0.35085105  0.01878184  0.76121834  1
  Te  Te10  1  0.76096448  0.35248959  0.02270329  1
  Te  Te11  1  0.01962533  0.75880502  0.35287025  1
  Te  Te12  1  0.77728935  0.77055232  0.76609445  1
  Te  Te13  1  0.22988985  0.22147767  0.22317490  1
loop_
_geom_bond_atom_site_label_1
_geom_bond_atom_site_label_2
_geom_bond_distance
_geom_bond_site_symmetry_2
Cs0 Te6 3.888246 1_555
Cs0 Te12 3.900207 1_555
Cs0 Te3 3.901159 1_555
Cs0 Te7 3.929034 1_555
Cs0 Te8 3.942999 1_555
Cs0 Te4 3.999205 1_555
Cs0 Te5 4.040845 1_555
Cs0 Te11 4.253499 1_655
Cs0 Te9 4.274277 1_565
Cs0 Te10 4.362623 1_556
Cs1 Te9 3.912128 1_555
Cs1 Te10 3.912344 1_555
Cs1 Te11 3.923722 1_555
Cs1 Te13 3.977739 1_555
Cs1 Te1 3.983376 1_555
Cs1 Te0 3.998213 1_555
Cs1 Te2 4.018752 1_555
Cs1 Te6 4.233073 1_545
Cs1 Te8 4.237134 1_455
Cs1 Te7 4.300382 1_554
Tc0 Ti0 2.581378 1_555
Tc0 Tc1 2.646898 1_565
Tc0 Te12 2.670440 1_555
Tc0 Tc6 2.703389 1_655
Tc0 Tc5 2.705687 1_556
Tc0 Te4 2.746878 1_556
Tc0 Te5 2.751311 1_655
Tc0 Te7 2.853093 1_655
Tc0 Te1 2.861778 1_655
Tc1 Ti0 2.556264 1_545
Tc1 Te12 2.678367 1_545
Tc1 Tc6 2.686138 1_645
Tc1 Tc7 2.719344 1_555
Tc1 Te3 2.760233 1_555
Tc1 Te5 2.763527 1_645
Tc1 Te8 2.842022 1_555
Tc1 Te2 2.849216 1_555
Tc2 Te13 2.623910 1_556
Tc2 Tc3 2.692387 1_556
Tc2 Tc4 2.702971 1_546
Tc2 Tc8 2.729496 1_555
Tc2 Te1 2.744528 1_555
Tc2 Te0 2.768163 1_546
Tc2 Te9 2.791091 1_555
Tc2 Te3 2.829201 1_555
Tc3 Te13 2.622418 1_555
Tc3 Tc4 2.674998 1_545
Tc3 Tc8 2.697766 1_554
Tc3 Te2 2.734630 1_455
Tc3 Tc9 2.745892 1_455
Tc3 Te4 2.757857 1_455
Tc3 Te1 2.776501 1_554
Tc3 Te10 2.825113 1_455
Tc4 Te13 2.625180 1_565
Tc4 Te0 2.709419 1_555
Tc4 Tc9 2.725184 1_465
Tc4 Te2 2.776014 1_465
Tc4 Te5 2.786826 1_555
Tc4 Te11 2.809779 1_555
Tc5 Tc6 2.676042 1_654
Tc5 Te7 2.688497 1_654
Tc5 Te4 2.704636 1_555
Tc5 Te11 2.725844 1_655
Tc5 Tc7 2.734882 1_564
Tc5 Te6 2.745013 1_555
Tc5 Tc9 2.770166 1_565
Tc5 Ti0 2.773715 1_554
Tc6 Tc7 2.674114 1_465
Tc6 Te5 2.693601 1_555
Tc6 Te8 2.705478 1_465
Tc6 Te7 2.744371 1_555
Tc6 Te9 2.760851 1_565
Tc6 Tc8 2.811924 1_565
Tc7 Ti0 2.702116 1_545
Tc7 Te6 2.705581 1_546
Tc7 Te8 2.715894 1_555
Tc7 Te3 2.729082 1_555
Tc7 Te10 2.743847 1_556
Tc7 Tc8 2.785549 1_655
Tc7 Tc9 2.785645 1_556
Tc8 Tc9 2.619198 1_456
Tc8 Te1 2.683476 1_555
Tc8 Te10 2.687625 1_456
Tc8 Te9 2.730005 1_555
Tc8 Te8 2.761313 1_455
Tc9 Te2 2.699546 1_555
Tc9 Te6 2.703715 1_545
Tc9 Te11 2.707325 1_645
Tc9 Te10 2.731387 1_555
Tc10 Tc9 2.614544 1_465
Tc10 Tc8 2.640904 1_564
Tc10 Te0 2.676451 1_555
Tc10 Te9 2.703770 1_564
Tc10 Te11 2.706077 1_555
Tc10 Tc4 2.716733 1_555
Tc10 Tc2 2.719916 1_564
Tc10 Te7 2.749155 1_554
Tc10 Tc5 2.754618 1_455
Tc10 Tc6 2.808410 1_554
Te0 Ti0 2.904900 1_554
Te3 Ti0 2.872009 1_545
Te4 Ti0 2.837412 1_554
Te6 Ti0 2.923255 1_554
Te12 Ti0 2.683563 1_555
