# generated using pymatgen
data_RbSrAsS3
_symmetry_space_group_name_H-M   'P 1'
_cell_length_a   8.51675715
_cell_length_b   8.83300812
_cell_length_c   9.23910331
_cell_angle_alpha   74.45336374
_cell_angle_beta   90.00000000
_cell_angle_gamma   90.00000000
_symmetry_Int_Tables_number   1
_chemical_formula_structural   RbSrAsS3
_chemical_formula_sum   'Rb4 Sr4 As4 S12'
_cell_volume   669.61480198
_cell_formula_units_Z   4
loop_
 _symmetry_equiv_pos_site_id
 _symmetry_equiv_pos_as_xyz
  1  'x, y, z'
loop_
 _atom_site_type_symbol
 _atom_site_label
 _atom_site_symmetry_multiplicity
 _atom_site_fract_x
 _atom_site_fract_y
 _atom_site_fract_z
 _atom_site_occupancy
  Rb  Rb0  1  0.57420154  0.22438332  0.40378836  1
  Rb  Rb1  1  0.07420154  0.27561668  0.59621164  1
  Rb  Rb2  1  0.42579846  0.77561668  0.59621164  1
  Rb  Rb3  1  0.92579846  0.72438332  0.40378836  1
  Sr  Sr0  1  0.21588922  0.46993628  0.07005381  1
  Sr  Sr1  1  0.71588922  0.03006372  0.92994619  1
  Sr  Sr2  1  0.78411078  0.53006372  0.92994619  1
  Sr  Sr3  1  0.28411078  0.96993628  0.07005381  1
  As  As0  1  0.95360926  0.14903266  0.23020098  1
  As  As1  1  0.45360926  0.35096734  0.76979902  1
  As  As2  1  0.04639074  0.85096734  0.76979902  1
  As  As3  1  0.54639074  0.64903266  0.23020098  1
  S  S0  1  0.69035741  0.41324600  0.66753795  1
  S  S1  1  0.19035741  0.08675400  0.33246205  1
  S  S2  1  0.30964259  0.58675400  0.33246205  1
  S  S3  1  0.80964259  0.91324600  0.66753795  1
  S  S4  1  0.51265067  0.28249934  0.02131543  1
  S  S5  1  0.01265067  0.21750066  0.97868457  1
  S  S6  1  0.48734933  0.71750066  0.97868457  1
  S  S7  1  0.98734933  0.78249934  0.02131543  1
  S  S8  1  0.91084484  0.39224522  0.25142026  1
  S  S9  1  0.41084484  0.10775478  0.74857974  1
  S  S10  1  0.08915516  0.60775478  0.74857974  1
  S  S11  1  0.58915516  0.89224522  0.25142026  1
loop_
_geom_bond_atom_site_label_1
_geom_bond_atom_site_label_2
_geom_bond_distance
_geom_bond_site_symmetry_2
Rb0 S8 3.358817 1_555
Rb0 S9 3.374251 1_555
Rb0 S0 3.446561 1_555
Rb0 S4 3.471746 1_555
Rb0 S11 3.580348 1_545
Rb0 S1 3.609522 1_555
Rb0 S3 3.731215 1_545
Rb0 S2 3.824355 1_555
Rb1 S9 3.358817 1_555
Rb1 S8 3.374251 1_455
Rb1 S1 3.446561 1_555
Rb1 S5 3.471746 1_555
Rb1 S10 3.580348 1_555
Rb1 S0 3.609522 1_455
Rb1 S2 3.731215 1_555
Rb1 S3 3.824355 1_445
Rb2 S10 3.358817 1_555
Rb2 S11 3.374251 1_555
Rb2 S2 3.446561 1_555
Rb2 S6 3.471746 1_555
Rb2 S9 3.580348 1_565
Rb2 S3 3.609522 1_555
Rb2 S1 3.731215 1_565
Rb2 S0 3.824355 1_555
Rb3 S11 3.358817 1_555
Rb3 S10 3.374251 1_655
Rb3 S3 3.446561 1_555
Rb3 S7 3.471746 1_555
Rb3 S8 3.580348 1_555
Rb3 S2 3.609522 1_655
Rb3 S0 3.731215 1_555
Rb3 S1 3.824355 1_665
As0 S1 2.232092 1_655
As0 S8 2.238758 1_555
As0 S5 2.294612 1_654
As0 Rb3 3.670564 1_545
As0 Rb0 3.745502 1_555
As1 S0 2.232092 1_555
As1 S9 2.238758 1_555
As1 S4 2.294612 1_556
As1 Rb2 3.670564 1_555
As1 Rb1 3.745502 1_555
As2 S3 2.232092 1_455
As2 S10 2.238758 1_555
As2 S7 2.294612 1_456
As2 Rb1 3.670564 1_565
As2 Rb2 3.745502 1_555
As3 S2 2.232092 1_555
As3 S11 2.238758 1_555
As3 S6 2.294612 1_554
As3 Rb0 3.670564 1_555
As3 Rb3 3.745502 1_555
S0 Sr2 2.986816 1_555
S0 Sr1 3.603091 1_555
S1 Sr3 2.986816 1_545
S1 Sr0 3.603091 1_555
S2 Sr0 2.986816 1_555
S2 Sr3 3.603091 1_555
S3 Sr1 2.986816 1_565
S3 Sr2 3.603091 1_555
S4 Sr1 3.112813 1_554
S4 Sr0 3.119536 1_555
S4 Sr2 3.138483 1_554
S4 Sr3 3.308672 1_545
S5 Sr0 3.112813 1_556
S5 Sr1 3.119536 1_455
S5 Sr3 3.138483 1_546
S5 Sr2 3.308672 1_455
S6 Sr3 3.112813 1_556
S6 Sr2 3.119536 1_555
S6 Sr0 3.138483 1_556
S6 Sr1 3.308672 1_565
S7 Sr2 3.112813 1_554
S7 Sr3 3.119536 1_655
S7 Sr1 3.138483 1_564
S7 Sr0 3.308672 1_655
S8 Sr0 3.067885 1_655
S8 Sr2 3.087147 1_554
S9 Sr1 3.067885 1_555
S9 Sr3 3.087147 1_546
S10 Sr2 3.067885 1_455
S10 Sr0 3.087147 1_556
S11 Sr3 3.067885 1_555
S11 Sr1 3.087147 1_564
