# generated using pymatgen
data_HoAgPb
_symmetry_space_group_name_H-M   'P 1'
_cell_length_a   4.75882344
_cell_length_b   4.75882453
_cell_length_c   7.47967852
_cell_angle_alpha   90.00000000
_cell_angle_beta   90.00000000
_cell_angle_gamma   119.99999242
_symmetry_Int_Tables_number   1
_chemical_formula_structural   HoAgPb
_chemical_formula_sum   'Ho2 Ag2 Pb2'
_cell_volume   146.69417891
_cell_formula_units_Z   2
loop_
 _symmetry_equiv_pos_site_id
 _symmetry_equiv_pos_as_xyz
  1  'x, y, z'
loop_
 _atom_site_type_symbol
 _atom_site_label
 _atom_site_symmetry_multiplicity
 _atom_site_fract_x
 _atom_site_fract_y
 _atom_site_fract_z
 _atom_site_occupancy
  Ho  Ho0  1  -0.00000000  0.00000000  0.01365260  1
  Ho  Ho1  1  -0.00000000  -0.00000000  0.51365260  1
  Ag  Ag0  1  0.66666700  0.33333300  0.33364296  1
  Ag  Ag1  1  0.33333300  0.66666700  0.83364296  1
  Pb  Pb0  1  0.33333300  0.66666700  0.23260544  1
  Pb  Pb1  1  0.66666700  0.33333300  0.73260544  1
loop_
_geom_bond_atom_site_label_1
_geom_bond_atom_site_label_2
_geom_bond_distance
_geom_bond_site_symmetry_2
Ho0 Pb0 3.198568 1_545
Ho0 Pb0 3.198572 1_445
Ho0 Pb0 3.198572 1_555
Ho0 Pb1 3.459449 1_454
Ho0 Pb1 3.459452 1_554
Ho0 Pb1 3.459453 1_444
Ho0 Ho1 3.739839 1_554
Ho0 Ho1 3.739839 1_555
Ho1 Pb1 3.198568 1_455
Ho1 Pb1 3.198572 1_555
Ho1 Pb1 3.198572 1_445
Ho1 Pb0 3.459449 1_545
Ho1 Pb0 3.459452 1_445
Ho1 Pb0 3.459453 1_555
Ag0 Pb0 2.849546 1_655
Ag0 Pb0 2.849546 1_545
Ag0 Pb0 2.849554 1_555
Ag0 Pb1 2.984111 1_555
Ag0 Ho1 3.059676 1_655
Ag0 Ho1 3.059680 1_555
Ag0 Ho1 3.059680 1_665
Ag0 Ho0 3.643799 1_655
Ag0 Ho0 3.643802 1_555
Ag0 Ho0 3.643802 1_665
Ag1 Pb1 2.849546 1_455
Ag1 Pb1 2.849546 1_565
Ag1 Pb1 2.849554 1_555
Ag1 Pb0 2.984111 1_556
Ag1 Ho0 3.059676 1_566
Ag1 Ho0 3.059680 1_666
Ag1 Ho0 3.059680 1_556
Ag1 Ho1 3.643799 1_565
Ag1 Ho1 3.643802 1_665
Ag1 Ho1 3.643802 1_555
