# generated using pymatgen
data_RbAsPIr2
_symmetry_space_group_name_H-M   'P 1'
_cell_length_a   7.52065543
_cell_length_b   7.52065551
_cell_length_c   7.52065555
_cell_angle_alpha   149.29127016
_cell_angle_beta   149.29127422
_cell_angle_gamma   43.98274706
_symmetry_Int_Tables_number   1
_chemical_formula_structural   RbAsPIr2
_chemical_formula_sum   'Rb1 As1 P1 Ir2'
_cell_volume   110.61559978
_cell_formula_units_Z   1
loop_
 _symmetry_equiv_pos_site_id
 _symmetry_equiv_pos_as_xyz
  1  'x, y, z'
loop_
 _atom_site_type_symbol
 _atom_site_label
 _atom_site_symmetry_multiplicity
 _atom_site_fract_x
 _atom_site_fract_y
 _atom_site_fract_z
 _atom_site_occupancy
  Rb  Rb0  1  0.00545552  0.00545552  1.00000000  1
  As  As0  1  0.34817991  0.34817991  1.00000000  1
  P  P0  1  0.65758004  0.65758004  0.00000000  1
  Ir  Ir0  1  0.74439176  0.24439176  0.50000000  1
  Ir  Ir1  1  0.24439176  0.74439176  0.50000000  1
loop_
_geom_bond_atom_site_label_1
_geom_bond_atom_site_label_2
_geom_bond_distance
_geom_bond_site_symmetry_2
As0 Ir0 2.461894 1_455
As0 Ir0 2.461894 1_556
As0 Ir1 2.461894 1_545
As0 Ir1 2.461894 1_556
As0 Rb0 3.569688 1_666
As0 Rb0 3.569688 1_554
As0 Rb0 3.569688 1_655
As0 Rb0 3.569688 1_565
P0 Rb0 3.525998 1_553
P0 Rb0 3.525998 1_665
P0 Rb0 3.525998 1_564
P0 Rb0 3.525998 1_654
Ir0 P0 2.330563 1_545
Ir0 P0 2.330563 1_556
Ir1 P0 2.330563 1_455
Ir1 P0 2.330563 1_556
