# generated using pymatgen
data_CsRb4CuSb2
_symmetry_space_group_name_H-M   'P 1'
_cell_length_a   10.34117279
_cell_length_b   10.34117192
_cell_length_c   10.34117431
_cell_angle_alpha   35.11377703
_cell_angle_beta   35.11378343
_cell_angle_gamma   35.11377249
_symmetry_Int_Tables_number   1
_chemical_formula_structural   CsRb4CuSb2
_chemical_formula_sum   'Cs1 Rb4 Cu1 Sb2'
_cell_volume   326.75942364
_cell_formula_units_Z   1
loop_
 _symmetry_equiv_pos_site_id
 _symmetry_equiv_pos_as_xyz
  1  'x, y, z'
loop_
 _atom_site_type_symbol
 _atom_site_label
 _atom_site_symmetry_multiplicity
 _atom_site_fract_x
 _atom_site_fract_y
 _atom_site_fract_z
 _atom_site_occupancy
  Cs  Cs0  1  0.50000000  0.50000000  0.50000000  1
  Rb  Rb0  1  0.36104142  0.36104142  0.36104142  1
  Rb  Rb1  1  0.63895858  0.63895858  0.63895858  1
  Rb  Rb2  1  0.21689235  0.21689235  0.21689235  1
  Rb  Rb3  1  0.78310765  0.78310765  0.78310765  1
  Cu  Cu0  1  0.00000000  0.00000000  0.00000000  1
  Sb  Sb0  1  0.08551666  0.08551666  0.08551666  1
  Sb  Sb1  1  0.91448334  0.91448334  0.91448334  1
loop_
_geom_bond_atom_site_label_1
_geom_bond_atom_site_label_2
_geom_bond_distance
_geom_bond_site_symmetry_2
Cs0 Rb2 3.886888 1_565
Cs0 Rb3 3.886888 1_545
Cs0 Rb2 3.886889 1_655
Cs0 Rb3 3.886889 1_455
Cs0 Rb2 3.886890 1_556
Cs0 Rb3 3.886890 1_554
Cs0 Rb1 4.041014 1_555
Cs0 Rb0 4.041014 1_555
Cs0 Sb1 4.306238 1_545
Cs0 Sb0 4.306238 1_565
Cs0 Sb1 4.306238 1_554
Cs0 Sb0 4.306238 1_556
Cs0 Sb1 4.306238 1_455
Cs0 Sb0 4.306238 1_655
Rb0 Sb0 3.975008 1_565
Rb0 Sb0 3.975009 1_655
Rb0 Sb0 3.975011 1_556
Rb1 Sb1 3.975008 1_545
Rb1 Sb1 3.975009 1_455
Rb1 Sb1 3.975011 1_554
Rb2 Sb1 3.712586 1_454
Rb2 Sb1 3.712586 1_544
Rb2 Sb1 3.712587 1_445
Rb2 Sb0 3.820498 1_555
Rb3 Sb0 3.712586 1_656
Rb3 Sb0 3.712586 1_566
Rb3 Sb0 3.712587 1_665
Rb3 Sb1 3.820498 1_555
Cu0 Sb0 2.486885 1_555
Cu0 Sb1 2.486885 1_444
Cu0 Rb0 3.691046 1_545
Cu0 Rb1 3.691046 1_454
Cu0 Rb0 3.691046 1_455
Cu0 Rb1 3.691046 1_544
Cu0 Rb0 3.691047 1_554
Cu0 Rb1 3.691047 1_445
