# generated using pymatgen
data_HfPN3
_symmetry_space_group_name_H-M   'P 1'
_cell_length_a   6.54642316
_cell_length_b   6.54642323
_cell_length_c   5.21726988
_cell_angle_alpha   78.75452568
_cell_angle_beta   78.75452423
_cell_angle_gamma   83.77148605
_symmetry_Int_Tables_number   1
_chemical_formula_structural   HfPN3
_chemical_formula_sum   'Hf4 P4 N12'
_cell_volume   214.50861082
_cell_formula_units_Z   4
loop_
 _symmetry_equiv_pos_site_id
 _symmetry_equiv_pos_as_xyz
  1  'x, y, z'
loop_
 _atom_site_type_symbol
 _atom_site_label
 _atom_site_symmetry_multiplicity
 _atom_site_fract_x
 _atom_site_fract_y
 _atom_site_fract_z
 _atom_site_occupancy
  Hf  Hf0  1  0.67486196  0.32513804  0.75000000  1
  Hf  Hf1  1  0.89817784  0.10182216  0.25000000  1
  Hf  Hf2  1  0.32513804  0.67486196  0.25000000  1
  Hf  Hf3  1  0.10182216  0.89817784  0.75000000  1
  P  P0  1  0.19746908  0.38392058  0.75546699  1
  P  P1  1  0.38392058  0.19746908  0.25546699  1
  P  P2  1  0.80253092  0.61607942  0.24453301  1
  P  P3  1  0.61607942  0.80253092  0.74453301  1
  N  N0  1  0.32447410  0.39003984  0.00523421  1
  N  N1  1  0.01566999  0.22474949  0.84560456  1
  N  N2  1  0.98433001  0.77525051  0.15439544  1
  N  N3  1  0.39003984  0.32447410  0.50523421  1
  N  N4  1  0.61584485  0.12813361  0.13221420  1
  N  N5  1  0.38415515  0.87186639  0.86778580  1
  N  N6  1  0.87186639  0.38415515  0.36778580  1
  N  N7  1  0.67552590  0.60996016  0.99476579  1
  N  N8  1  0.77525051  0.98433001  0.65439544  1
  N  N9  1  0.12813361  0.61584485  0.63221420  1
  N  N10  1  0.22474949  0.01566999  0.34560456  1
  N  N11  1  0.60996016  0.67552590  0.49476579  1
loop_
_geom_bond_atom_site_label_1
_geom_bond_atom_site_label_2
_geom_bond_distance
_geom_bond_site_symmetry_2
Hf0 N6 2.143268 1_555
Hf0 N4 2.143268 1_556
Hf0 N1 2.376218 1_655
Hf0 N8 2.376218 1_545
Hf0 N0 2.456233 1_556
Hf0 N11 2.456233 1_555
Hf0 N7 2.457637 1_555
Hf0 N3 2.457637 1_555
Hf1 N4 2.038636 1_555
Hf1 N6 2.038636 1_555
Hf1 N8 2.128330 1_545
Hf1 N1 2.128330 1_654
Hf1 N10 2.276390 1_655
Hf1 N2 2.276390 1_545
Hf2 N9 2.143268 1_555
Hf2 N5 2.143268 1_554
Hf2 N2 2.376218 1_455
Hf2 N10 2.376218 1_565
Hf2 N7 2.456233 1_554
Hf2 N3 2.456233 1_555
Hf2 N0 2.457637 1_555
Hf2 N11 2.457637 1_555
Hf3 N5 2.038636 1_555
Hf3 N9 2.038636 1_555
Hf3 N10 2.128330 1_565
Hf3 N2 2.128330 1_456
Hf3 N8 2.276390 1_455
Hf3 N1 2.276390 1_565
N0 P0 1.685559 1_554
N0 P1 1.701438 1_555
N1 P0 1.607177 1_555
N2 P2 1.607177 1_555
N3 P1 1.685559 1_555
N3 P0 1.701438 1_555
N4 P1 1.583730 1_555
N5 P3 1.583730 1_555
N6 P2 1.583730 1_555
N7 P2 1.685559 1_556
N7 P3 1.701438 1_555
N8 P3 1.607177 1_555
N9 P0 1.583730 1_555
N10 P1 1.607177 1_555
N11 P3 1.685559 1_555
N11 P2 1.701438 1_555
