# generated using pymatgen
data_Zr4Ta5WN12
_symmetry_space_group_name_H-M   'P 1'
_cell_length_a   5.26500875
_cell_length_b   5.26500854
_cell_length_c   10.63455631
_cell_angle_alpha   90.00000000
_cell_angle_beta   90.00000000
_cell_angle_gamma   119.86106410
_symmetry_Int_Tables_number   1
_chemical_formula_structural   Zr4Ta5WN12
_chemical_formula_sum   'Zr4 Ta5 W1 N12'
_cell_volume   255.65512325
_cell_formula_units_Z   1
loop_
 _symmetry_equiv_pos_site_id
 _symmetry_equiv_pos_as_xyz
  1  'x, y, z'
loop_
 _atom_site_type_symbol
 _atom_site_label
 _atom_site_symmetry_multiplicity
 _atom_site_fract_x
 _atom_site_fract_y
 _atom_site_fract_z
 _atom_site_occupancy
  Zr  Zr0  1  0.66668269  0.33274400  0.00186405  1
  Zr  Zr1  1  0.33274400  0.66668269  0.00186405  1
  Zr  Zr2  1  0.33274400  0.66668269  0.49813595  1
  Zr  Zr3  1  0.66668269  0.33274400  0.49813595  1
  Ta  Ta0  1  0.32326041  0.99936314  0.75000000  1
  Ta  Ta1  1  0.99936314  0.32326041  0.75000000  1
  Ta  Ta2  1  0.32082225  0.32082225  0.25000000  1
  Ta  Ta3  1  0.67898138  0.99992491  0.25000000  1
  Ta  Ta4  1  0.99992491  0.67898138  0.25000000  1
  W  W0  1  0.67668867  0.67668867  0.75000000  1
  N  N0  1  0.65775720  0.65775720  0.37288278  1
  N  N1  1  0.34180912  0.00018451  0.37244017  1
  N  N2  1  0.00018451  0.34180912  0.37244017  1
  N  N3  1  0.34492996  0.34492996  0.62912329  1
  N  N4  1  0.65744202  0.99892962  0.62895405  1
  N  N5  1  0.99892962  0.65744202  0.62895405  1
  N  N6  1  0.34492996  0.34492996  0.87087671  1
  N  N7  1  0.65744202  0.99892962  0.87104595  1
  N  N8  1  0.99892962  0.65744202  0.87104595  1
  N  N9  1  0.65775720  0.65775720  0.12711722  1
  N  N10  1  0.34180912  0.00018451  0.12755983  1
  N  N11  1  0.00018451  0.34180912  0.12755983  1
loop_
_geom_bond_atom_site_label_1
_geom_bond_atom_site_label_2
_geom_bond_distance
_geom_bond_site_symmetry_2
N0 Ta3 2.182938 1_555
N0 Ta4 2.182938 1_555
N0 Zr3 2.187404 1_555
N0 Zr2 2.187404 1_555
N0 Ta2 2.206335 1_555
N1 Ta2 2.177912 1_555
N1 Ta4 2.182703 1_445
N1 Zr2 2.188331 1_545
N1 Zr3 2.189963 1_555
N1 Ta3 2.202104 1_545
N2 Ta2 2.177912 1_555
N2 Ta3 2.182703 1_445
N2 Zr3 2.188331 1_455
N2 Zr2 2.189963 1_555
N2 Ta4 2.202104 1_455
N3 W0 2.171696 1_555
N3 Ta0 2.183805 1_545
N3 Ta1 2.183806 1_455
N3 Zr2 2.218674 1_555
N3 Zr3 2.218674 1_555
N4 W0 2.171863 1_555
N4 Ta1 2.180051 1_565
N4 Ta0 2.181009 1_555
N4 Zr2 2.222618 1_555
N4 Zr3 2.222963 1_565
N5 W0 2.171863 1_555
N5 Ta0 2.180051 1_655
N5 Ta1 2.181009 1_555
N5 Zr3 2.222618 1_555
N5 Zr2 2.222963 1_655
N6 W0 2.171696 1_555
N6 Ta0 2.183805 1_545
N6 Ta1 2.183806 1_455
N6 Zr1 2.218674 1_556
N6 Zr0 2.218674 1_556
N7 W0 2.171863 1_555
N7 Ta1 2.180051 1_565
N7 Ta0 2.181009 1_555
N7 Zr1 2.222618 1_556
N7 Zr0 2.222963 1_566
N8 W0 2.171863 1_555
N8 Ta0 2.180051 1_655
N8 Ta1 2.181009 1_555
N8 Zr0 2.222618 1_556
N8 Zr1 2.222963 1_656
N9 Ta3 2.182938 1_555
N9 Ta4 2.182938 1_555
N9 Zr0 2.187404 1_555
N9 Zr1 2.187404 1_555
N9 Ta2 2.206335 1_555
N10 Ta2 2.177912 1_555
N10 Ta4 2.182703 1_445
N10 Zr1 2.188331 1_545
N10 Zr0 2.189963 1_555
N10 Ta3 2.202104 1_545
N11 Ta2 2.177912 1_555
N11 Ta3 2.182703 1_445
N11 Zr0 2.188331 1_455
N11 Zr1 2.189963 1_555
N11 Ta4 2.202104 1_455
