# generated using pymatgen
data_TmIr2
_symmetry_space_group_name_H-M   'P 1'
_cell_length_a   5.29750802
_cell_length_b   5.29750868
_cell_length_c   5.29750777
_cell_angle_alpha   59.99999294
_cell_angle_beta   59.99998879
_cell_angle_gamma   60.00000025
_symmetry_Int_Tables_number   1
_chemical_formula_structural   TmIr2
_chemical_formula_sum   'Tm2 Ir4'
_cell_volume   105.12350799
_cell_formula_units_Z   2
loop_
 _symmetry_equiv_pos_site_id
 _symmetry_equiv_pos_as_xyz
  1  'x, y, z'
loop_
 _atom_site_type_symbol
 _atom_site_label
 _atom_site_symmetry_multiplicity
 _atom_site_fract_x
 _atom_site_fract_y
 _atom_site_fract_z
 _atom_site_occupancy
  Tm  Tm0  1  0.12500000  0.12500000  0.12500000  1
  Tm  Tm1  1  0.87500000  0.87500000  0.87500000  1
  Ir  Ir0  1  -0.00000000  0.50000000  0.50000000  1
  Ir  Ir1  1  0.50000000  -0.00000000  0.50000000  1
  Ir  Ir2  1  0.50000000  0.50000000  -0.00000000  1
  Ir  Ir3  1  0.50000000  0.50000000  0.50000000  1
loop_
_geom_bond_atom_site_label_1
_geom_bond_atom_site_label_2
_geom_bond_distance
_geom_bond_site_symmetry_2
Ir0 Ir2 2.648753 1_456
Ir0 Ir2 2.648753 1_555
Ir0 Ir3 2.648754 1_555
Ir0 Ir3 2.648754 1_455
Ir0 Ir1 2.648754 1_555
Ir0 Ir1 2.648754 1_465
Ir0 Tm1 3.105939 1_454
Ir0 Tm0 3.105939 1_556
Ir0 Tm1 3.105939 1_445
Ir0 Tm0 3.105939 1_565
Ir0 Tm0 3.105940 1_555
Ir0 Tm1 3.105940 1_455
Ir1 Ir2 2.648754 1_555
Ir1 Ir2 2.648754 1_546
Ir1 Ir3 2.648754 1_545
Ir1 Ir3 2.648754 1_555
Ir1 Tm0 3.105939 1_556
Ir1 Tm1 3.105939 1_544
Ir1 Tm1 3.105939 1_445
Ir1 Tm0 3.105939 1_655
Ir1 Tm0 3.105939 1_555
Ir1 Tm1 3.105939 1_545
Ir2 Ir3 2.648754 1_555
Ir2 Ir3 2.648754 1_554
Ir2 Tm1 3.105939 1_454
Ir2 Tm0 3.105939 1_655
Ir2 Tm1 3.105939 1_554
Ir2 Tm0 3.105939 1_555
Ir2 Tm1 3.105940 1_544
Ir2 Tm0 3.105940 1_565
Ir3 Tm0 3.105939 1_556
Ir3 Tm1 3.105939 1_554
Ir3 Tm0 3.105939 1_655
Ir3 Tm1 3.105939 1_455
Ir3 Tm1 3.105940 1_545
Ir3 Tm0 3.105940 1_565
