# generated using pymatgen
data_Rb3Al2P3
_symmetry_space_group_name_H-M   'P 1'
_cell_length_a   5.86262735
_cell_length_b   7.66121459
_cell_length_c   10.44804045
_cell_angle_alpha   70.07876598
_cell_angle_beta   90.00000000
_cell_angle_gamma   90.00000000
_symmetry_Int_Tables_number   1
_chemical_formula_structural   Rb3Al2P3
_chemical_formula_sum   'Rb6 Al4 P6'
_cell_volume   441.19178484
_cell_formula_units_Z   2
loop_
 _symmetry_equiv_pos_site_id
 _symmetry_equiv_pos_as_xyz
  1  'x, y, z'
loop_
 _atom_site_type_symbol
 _atom_site_label
 _atom_site_symmetry_multiplicity
 _atom_site_fract_x
 _atom_site_fract_y
 _atom_site_fract_z
 _atom_site_occupancy
  Rb  Rb0  1  0.25000000  0.45906994  0.41163646  1
  Rb  Rb1  1  0.75000000  0.13934464  0.93501336  1
  Rb  Rb2  1  0.75000000  0.47467171  0.14814170  1
  Rb  Rb3  1  0.25000000  0.52532829  0.85185830  1
  Rb  Rb4  1  0.75000000  0.54093006  0.58836354  1
  Rb  Rb5  1  0.25000000  0.86065536  0.06498664  1
  Al  Al0  1  0.99987892  0.01631966  0.34810954  1
  Al  Al1  1  0.49987892  0.98368034  0.65189046  1
  Al  Al2  1  0.50012108  0.01631966  0.34810954  1
  Al  Al3  1  0.00012108  0.98368034  0.65189046  1
  P  P0  1  0.25000000  0.82727547  0.53316351  1
  P  P1  1  0.75000000  0.17272453  0.46683649  1
  P  P2  1  0.25000000  0.22236281  0.18973024  1
  P  P3  1  0.75000000  0.77763719  0.81026976  1
  P  P4  1  0.25000000  0.16151004  0.73328165  1
  P  P5  1  0.75000000  0.83848996  0.26671835  1
loop_
_geom_bond_atom_site_label_1
_geom_bond_atom_site_label_2
_geom_bond_distance
_geom_bond_site_symmetry_2
Al0 P5 2.348366 1_545
Al0 P2 2.366475 1_655
Al0 P0 2.465325 1_645
Al0 P1 2.476597 1_555
Al1 P4 2.348366 1_565
Al1 P3 2.366475 1_555
Al1 P1 2.465325 1_565
Al1 P0 2.476597 1_555
Al2 P5 2.348366 1_545
Al2 P2 2.366475 1_555
Al2 P0 2.465325 1_545
Al2 P1 2.476597 1_555
Al3 P4 2.348366 1_565
Al3 P3 2.366475 1_455
Al3 P1 2.465325 1_465
Al3 P0 2.476597 1_555
P0 Rb3 3.345059 1_555
P0 Rb0 3.465614 1_555
P0 Rb4 3.588257 1_455
P0 Rb4 3.588257 1_555
P1 Rb2 3.345059 1_555
P1 Rb4 3.465614 1_555
P1 Rb0 3.588257 1_555
P1 Rb0 3.588257 1_655
P2 Rb0 3.395468 1_555
P2 Rb5 3.440778 1_545
P2 Rb2 3.456226 1_455
P2 Rb2 3.456226 1_555
P2 Rb3 3.502202 1_554
P3 Rb4 3.395468 1_555
P3 Rb1 3.440778 1_565
P3 Rb3 3.456226 1_555
P3 Rb3 3.456226 1_655
P3 Rb2 3.502202 1_556
P4 Rb0 3.357031 1_555
P4 Rb3 3.414237 1_555
P4 Rb5 3.446732 1_546
P4 Rb1 3.580494 1_455
P4 Rb1 3.580494 1_555
P5 Rb4 3.357031 1_555
P5 Rb2 3.414237 1_555
P5 Rb1 3.446732 1_564
P5 Rb5 3.580494 1_555
P5 Rb5 3.580494 1_655
