# generated using pymatgen
data_Zr10B2Sb5Au
_symmetry_space_group_name_H-M   'P 1'
_cell_length_a   8.47531766
_cell_length_b   8.47531768
_cell_length_c   5.77795738
_cell_angle_alpha   90.00000000
_cell_angle_beta   90.00000000
_cell_angle_gamma   119.92002422
_symmetry_Int_Tables_number   1
_chemical_formula_structural   Zr10B2Sb5Au
_chemical_formula_sum   'Zr10 B2 Sb5 Au1'
_cell_volume   359.72147523
_cell_formula_units_Z   1
loop_
 _symmetry_equiv_pos_site_id
 _symmetry_equiv_pos_as_xyz
  1  'x, y, z'
loop_
 _atom_site_type_symbol
 _atom_site_label
 _atom_site_symmetry_multiplicity
 _atom_site_fract_x
 _atom_site_fract_y
 _atom_site_fract_z
 _atom_site_occupancy
  Zr  Zr0  1  0.66519340  0.33426650  0.49872938  1
  Zr  Zr1  1  0.33426650  0.66519340  0.49872938  1
  Zr  Zr2  1  0.33426650  0.66519340  0.00127062  1
  Zr  Zr3  1  0.66519340  0.33426650  0.00127062  1
  Zr  Zr4  1  0.76507784  0.76507784  0.25000000  1
  Zr  Zr5  1  0.23321021  0.00533369  0.25000000  1
  Zr  Zr6  1  0.00533369  0.23321021  0.25000000  1
  Zr  Zr7  1  0.23225215  0.23225215  0.75000000  1
  Zr  Zr8  1  0.76521800  0.99890988  0.75000000  1
  Zr  Zr9  1  0.99890988  0.76521800  0.75000000  1
  B  B0  1  0.00027253  0.00027253  0.50088056  1
  B  B1  1  0.00027253  0.00027253  0.99911944  1
  Sb  Sb0  1  0.60417074  0.00222748  0.25000000  1
  Sb  Sb1  1  0.00222748  0.60417074  0.25000000  1
  Sb  Sb2  1  0.59834603  0.59834603  0.75000000  1
  Sb  Sb3  1  0.39866559  0.00008170  0.75000000  1
  Sb  Sb4  1  0.00008170  0.39866559  0.75000000  1
  Au  Au0  1  0.39704085  0.39704085  0.25000000  1
loop_
_geom_bond_atom_site_label_1
_geom_bond_atom_site_label_2
_geom_bond_distance
_geom_bond_site_symmetry_2
B0 Zr5 2.432320 1_555
B0 Zr6 2.432320 1_555
B0 Zr7 2.438602 1_555
B0 Zr8 2.453114 1_445
B0 Zr9 2.453114 1_445
B0 Zr4 2.466643 1_445
B1 Zr5 2.432320 1_556
B1 Zr6 2.432320 1_556
B1 Zr7 2.438602 1_555
B1 Zr8 2.453114 1_445
B1 Zr9 2.453114 1_445
B1 Zr4 2.466643 1_446
Sb0 Zr4 2.938355 1_545
Sb0 Zr6 2.958446 1_655
Sb0 Zr3 2.966534 1_555
Sb0 Zr0 2.966534 1_555
Sb0 Zr2 2.989840 1_545
Sb0 Zr1 2.989840 1_545
Sb0 Zr5 3.157222 1_555
Sb0 Zr8 3.201296 1_545
Sb0 Zr8 3.201296 1_544
Sb1 Zr4 2.938355 1_455
Sb1 Zr5 2.958446 1_565
Sb1 Zr2 2.966534 1_555
Sb1 Zr1 2.966534 1_555
Sb1 Zr3 2.989840 1_455
Sb1 Zr0 2.989840 1_455
Sb1 Zr6 3.157222 1_555
Sb1 Zr9 3.201296 1_455
Sb1 Zr9 3.201296 1_454
Sb2 Zr2 2.950104 1_556
Sb2 Zr1 2.950104 1_555
Sb2 Zr0 2.950104 1_555
Sb2 Zr3 2.950104 1_556
Sb2 Zr9 2.955644 1_555
Sb2 Zr8 2.955644 1_555
Sb2 Zr7 3.106512 1_555
Sb2 Zr4 3.216814 1_555
Sb2 Zr4 3.216814 1_556
Sb3 Zr7 2.937641 1_555
Sb3 Zr9 2.951852 1_445
Sb3 Zr0 2.974903 1_555
Sb3 Zr3 2.974903 1_556
Sb3 Zr1 2.985997 1_545
Sb3 Zr2 2.985997 1_546
Sb3 Zr8 3.111614 1_545
Sb3 Zr5 3.221313 1_556
Sb3 Zr5 3.221313 1_555
Sb4 Zr7 2.937641 1_555
Sb4 Zr8 2.951852 1_445
Sb4 Zr2 2.974903 1_556
Sb4 Zr1 2.974903 1_555
Sb4 Zr0 2.985997 1_455
Sb4 Zr3 2.985997 1_456
Sb4 Zr9 3.111614 1_455
Sb4 Zr6 3.221313 1_556
Sb4 Zr6 3.221313 1_555
Au0 Zr6 2.889780 1_555
Au0 Zr5 2.889780 1_555
Au0 Zr3 2.952919 1_555
Au0 Zr0 2.952919 1_555
Au0 Zr2 2.952919 1_555
Au0 Zr1 2.952919 1_555
Au0 Zr4 3.123000 1_555
Au0 Zr7 3.209596 1_555
Au0 Zr7 3.209596 1_554
Au0 Sb2 3.356204 1_554
Au0 Sb2 3.356204 1_555
