# generated using pymatgen
data_Sr4CuSi6Ni
_symmetry_space_group_name_H-M   'P 1'
_cell_length_a   8.46621123
_cell_length_b   8.15465395
_cell_length_c   6.19519113
_cell_angle_alpha   70.81585156
_cell_angle_beta   65.46542418
_cell_angle_gamma   43.71871072
_symmetry_Int_Tables_number   1
_chemical_formula_structural   Sr4CuSi6Ni
_chemical_formula_sum   'Sr4 Cu1 Si6 Ni1'
_cell_volume   268.63264808
_cell_formula_units_Z   1
loop_
 _symmetry_equiv_pos_site_id
 _symmetry_equiv_pos_as_xyz
  1  'x, y, z'
loop_
 _atom_site_type_symbol
 _atom_site_label
 _atom_site_symmetry_multiplicity
 _atom_site_fract_x
 _atom_site_fract_y
 _atom_site_fract_z
 _atom_site_occupancy
  Sr  Sr0  1  0.74909634  0.74909634  0.75090366  1
  Sr  Sr1  1  0.75302473  0.24885795  0.75114205  1
  Sr  Sr2  1  0.24909634  0.24909634  0.25090366  1
  Sr  Sr3  1  0.24885795  0.75302473  0.24697527  1
  Cu  Cu0  1  0.33339935  0.33339935  0.66660065  1
  Si  Si0  1  0.82662753  0.34534432  0.17337247  1
  Si  Si1  1  0.66531678  0.16784920  0.33468322  1
  Si  Si2  1  0.16784920  0.66531678  0.83215080  1
  Si  Si3  1  0.34534432  0.82662753  0.65465568  1
  Si  Si4  1  0.16719128  0.16719128  0.83280872  1
  Si  Si5  1  0.82743808  0.82743808  0.17256192  1
  Ni  Ni0  1  0.66675810  0.66675810  0.33324190  1
loop_
_geom_bond_atom_site_label_1
_geom_bond_atom_site_label_2
_geom_bond_distance
_geom_bond_site_symmetry_2
Cu0 Si1 2.342943 1_555
Cu0 Si2 2.342943 1_555
Cu0 Si4 2.348123 1_555
Cu0 Sr0 3.318671 1_545
Cu0 Sr0 3.318671 1_455
Cu0 Sr2 3.318671 1_556
Cu0 Sr2 3.318672 1_555
Cu0 Sr3 3.337440 1_555
Cu0 Sr1 3.337441 1_555
Si0 Si1 2.394167 1_555
Si0 Si4 2.404775 1_654
Si0 Sr0 3.280356 1_554
Si0 Sr2 3.280356 1_655
Si0 Sr3 3.290117 1_555
Si0 Sr1 3.290117 1_555
Si0 Sr3 3.356308 1_645
Si0 Sr1 3.356309 1_554
Si1 Si5 2.403852 1_545
Si1 Sr3 3.311679 1_645
Si1 Sr1 3.311679 1_554
Si1 Sr0 3.323219 1_545
Si1 Sr2 3.323220 1_555
Si1 Sr3 3.326354 1_555
Si1 Sr1 3.326355 1_555
Si2 Si3 2.394167 1_555
Si2 Si5 2.403852 1_456
Si2 Sr1 3.311679 1_465
Si2 Sr3 3.311679 1_556
Si2 Sr2 3.323219 1_556
Si2 Sr0 3.323220 1_455
Si2 Sr1 3.326354 1_555
Si2 Sr3 3.326355 1_555
Si3 Si4 2.404775 1_565
Si3 Sr2 3.280356 1_565
Si3 Sr0 3.280356 1_555
Si3 Sr1 3.290117 1_555
Si3 Sr3 3.290117 1_555
Si3 Sr1 3.356308 1_465
Si3 Sr3 3.356308 1_556
Si4 Sr3 3.297109 1_546
Si4 Sr1 3.297110 1_455
Si4 Sr0 3.306664 1_455
Si4 Sr0 3.306664 1_545
Si4 Sr2 3.306665 1_555
Si4 Sr2 3.306665 1_556
Si5 Sr2 3.289386 1_655
Si5 Sr2 3.289386 1_565
Si5 Sr0 3.289387 1_555
Si5 Sr0 3.289387 1_554
Si5 Sr1 3.370873 1_564
Si5 Sr3 3.370874 1_655
Ni0 Si3 2.268811 1_555
Ni0 Si0 2.268811 1_555
Ni0 Si5 2.270025 1_555
Ni0 Sr2 3.308811 1_565
Ni0 Sr2 3.308811 1_655
Ni0 Sr0 3.308811 1_554
Ni0 Sr0 3.308811 1_555
Ni0 Sr1 3.320199 1_555
Ni0 Sr3 3.320199 1_555
