# generated using pymatgen
data_Ge2Sb2Te5
_symmetry_space_group_name_H-M   'P 1'
_cell_length_a   4.26483213
_cell_length_b   4.26483213
_cell_length_c   17.99910500
_cell_angle_alpha   90.00000000
_cell_angle_beta   90.00000000
_cell_angle_gamma   120.00000195
_symmetry_Int_Tables_number   1
_chemical_formula_structural   Ge2Sb2Te5
_chemical_formula_sum   'Ge2 Sb2 Te5'
_cell_volume   283.52111981
_cell_formula_units_Z   1
loop_
 _symmetry_equiv_pos_site_id
 _symmetry_equiv_pos_as_xyz
  1  'x, y, z'
loop_
 _atom_site_type_symbol
 _atom_site_label
 _atom_site_symmetry_multiplicity
 _atom_site_fract_x
 _atom_site_fract_y
 _atom_site_fract_z
 _atom_site_occupancy
  Ge  Ge0  1  0.00000000  0.00000000  0.33225200  1
  Ge  Ge1  1  0.00000000  0.00000000  0.66774800  1
  Sb  Sb0  1  0.33333300  0.66666700  0.11265800  1
  Sb  Sb1  1  0.66666700  0.33333300  0.88734200  1
  Te  Te0  1  0.00000000  0.00000000  0.00000000  1
  Te  Te1  1  0.33333300  0.66666700  0.79010800  1
  Te  Te2  1  0.66666700  0.33333300  0.20989200  1
  Te  Te3  1  0.33333300  0.66666700  0.41104500  1
  Te  Te4  1  0.66666700  0.33333300  0.58895500  1
loop_
_geom_bond_atom_site_label_1
_geom_bond_atom_site_label_2
_geom_bond_distance
_geom_bond_site_symmetry_2
Ge0 Te3 2.841517 1_545
Ge0 Te3 2.841520 1_445
Ge0 Te3 2.841520 1_555
Ge0 Te2 3.303537 1_455
Ge0 Te2 3.303539 1_555
Ge0 Te2 3.303539 1_445
Ge1 Te4 2.841517 1_455
Ge1 Te4 2.841520 1_445
Ge1 Te4 2.841520 1_555
Ge1 Te1 3.303537 1_545
Ge1 Te1 3.303539 1_555
Ge1 Te1 3.303539 1_445
Sb0 Te2 3.020903 1_565
Sb0 Te2 3.020903 1_455
Sb0 Te2 3.020909 1_555
Sb0 Te0 3.189775 1_565
Sb0 Te0 3.189777 1_555
Sb0 Te0 3.189777 1_665
Sb1 Te1 3.020903 1_545
Sb1 Te1 3.020903 1_655
Sb1 Te1 3.020909 1_555
Sb1 Te0 3.189775 1_656
Sb1 Te0 3.189777 1_556
Sb1 Te0 3.189777 1_666
