# generated using pymatgen
data_Cs2Cd(HgSe2)2
_symmetry_space_group_name_H-M   'P 1'
_cell_length_a   10.22346468
_cell_length_b   10.22346426
_cell_length_c   10.22346514
_cell_angle_alpha   142.73261792
_cell_angle_beta   106.81754388
_cell_angle_gamma   85.11574398
_symmetry_Int_Tables_number   1
_chemical_formula_structural   Cs2Cd(HgSe2)2
_chemical_formula_sum   'Cs4 Cd2 Hg4 Se8'
_cell_volume   599.64847363
_cell_formula_units_Z   2
loop_
 _symmetry_equiv_pos_site_id
 _symmetry_equiv_pos_as_xyz
  1  'x, y, z'
loop_
 _atom_site_type_symbol
 _atom_site_label
 _atom_site_symmetry_multiplicity
 _atom_site_fract_x
 _atom_site_fract_y
 _atom_site_fract_z
 _atom_site_occupancy
  Cs  Cs0  1  0.62151320  0.22929744  0.85081063  1
  Cs  Cs1  1  0.37848680  0.77070256  0.14918937  1
  Cs  Cs2  1  0.12151320  0.27070256  0.39221676  1
  Cs  Cs3  1  0.87848680  0.72929744  0.60778324  1
  Cd  Cd0  1  0.75000000  0.75000000  0.00000000  1
  Cd  Cd1  1  0.25000000  0.25000000  0.00000000  1
  Hg  Hg0  1  0.08796415  0.75000000  0.33796415  1
  Hg  Hg1  1  0.41203585  0.75000000  0.66203585  1
  Hg  Hg2  1  0.91203585  0.25000000  0.66203585  1
  Hg  Hg3  1  0.58796415  0.25000000  0.33796415  1
  Se  Se0  1  0.98934291  0.64105460  0.91323075  1
  Se  Se1  1  0.72782285  0.07611116  0.08676925  1
  Se  Se2  1  0.77217715  0.85894540  0.34828831  1
  Se  Se3  1  0.51065709  0.42388884  0.65171169  1
  Se  Se4  1  0.01065709  0.35894540  0.08676925  1
  Se  Se5  1  0.27217715  0.92388884  0.91323075  1
  Se  Se6  1  0.22782285  0.14105460  0.65171169  1
  Se  Se7  1  0.48934291  0.57611116  0.34828831  1
loop_
_geom_bond_atom_site_label_1
_geom_bond_atom_site_label_2
_geom_bond_distance
_geom_bond_site_symmetry_2
Cs0 Se4 3.695835 1_656
Cs0 Se1 3.695843 1_556
Cs0 Se6 3.756550 1_555
Cs0 Se3 3.756550 1_555
Cs0 Se2 3.837082 1_556
Cs0 Se7 3.837083 1_556
Cs0 Se7 3.965836 1_545
Cs0 Se2 3.965837 1_545
Cs0 Hg1 4.082319 1_545
Cs0 Hg2 4.082320 1_555
Cs1 Se0 3.695835 1_454
Cs1 Se5 3.695843 1_554
Cs1 Se2 3.756550 1_555
Cs1 Se7 3.756550 1_555
Cs1 Se6 3.837082 1_554
Cs1 Se3 3.837083 1_554
Cs1 Se3 3.965836 1_565
Cs1 Se6 3.965837 1_565
Cs1 Hg3 4.082319 1_565
Cs1 Hg0 4.082320 1_555
Cs2 Se6 3.695825 1_555
Cs2 Se3 3.695833 1_555
Cs2 Se1 3.756550 1_455
Cs2 Se4 3.756550 1_555
Cs2 Se0 3.837079 1_444
Cs2 Se5 3.837096 1_544
Cs2 Se0 3.965823 1_455
Cs2 Se5 3.965838 1_555
Cs2 Hg2 4.082311 1_455
Cs2 Hg1 4.082324 1_555
Cs3 Se2 3.695825 1_555
Cs3 Se7 3.695833 1_555
Cs3 Se5 3.756550 1_655
Cs3 Se0 3.756550 1_555
Cs3 Se4 3.837079 1_666
Cs3 Se1 3.837096 1_566
Cs3 Se4 3.965823 1_655
Cs3 Se1 3.965838 1_555
Cs3 Hg0 4.082311 1_655
Cs3 Hg3 4.082324 1_555
Cd0 Se1 2.689637 1_565
Cd0 Se3 2.689643 1_554
Cd0 Se2 2.689643 1_555
Cd0 Se0 2.689646 1_554
Cd1 Se5 2.689637 1_544
Cd1 Se7 2.689643 1_555
Cd1 Se6 2.689643 1_554
Cd1 Se4 2.689646 1_555
Hg0 Se6 2.495069 1_565
Hg0 Se4 2.495072 1_555
Hg1 Se5 2.495063 1_555
Hg1 Se7 2.495069 1_555
Hg2 Se2 2.495069 1_545
Hg2 Se0 2.495072 1_555
Hg3 Se1 2.495063 1_555
Hg3 Se3 2.495069 1_555
