# generated using pymatgen
data_Rb2Ba(PRu)6
_symmetry_space_group_name_H-M   'P 1'
_cell_length_a   8.99533787
_cell_length_b   8.99533811
_cell_length_c   6.98646037
_cell_angle_alpha   67.27159137
_cell_angle_beta   67.27158417
_cell_angle_gamma   36.86833199
_symmetry_Int_Tables_number   1
_chemical_formula_structural   Rb2Ba(PRu)6
_chemical_formula_sum   'Rb2 Ba1 P6 Ru6'
_cell_volume   309.77522154
_cell_formula_units_Z   1
loop_
 _symmetry_equiv_pos_site_id
 _symmetry_equiv_pos_as_xyz
  1  'x, y, z'
loop_
 _atom_site_type_symbol
 _atom_site_label
 _atom_site_symmetry_multiplicity
 _atom_site_fract_x
 _atom_site_fract_y
 _atom_site_fract_z
 _atom_site_occupancy
  Rb  Rb0  1  0.67074124  0.67074124  0.00034786  1
  Rb  Rb1  1  0.32925876  0.32925876  0.99965214  1
  Ba  Ba0  1  0.00000000  0.00000000  0.00000000  1
  P  P0  1  0.88762110  0.88762110  0.67618475  1
  P  P1  1  0.22041209  0.22041209  0.67559719  1
  P  P2  1  0.55365951  0.55365951  0.67785422  1
  P  P3  1  0.44634049  0.44634049  0.32214578  1
  P  P4  1  0.77958791  0.77958791  0.32440281  1
  P  P5  1  0.11237890  0.11237890  0.32381525  1
  Ru  Ru0  1  0.74990214  0.25009786  0.50000000  1
  Ru  Ru1  1  0.08369825  0.58356925  0.49879238  1
  Ru  Ru2  1  0.41643075  0.91630175  0.50120762  1
  Ru  Ru3  1  0.58356925  0.08369825  0.49879238  1
  Ru  Ru4  1  0.91630175  0.41643075  0.50120762  1
  Ru  Ru5  1  0.25009786  0.74990214  0.50000000  1
loop_
_geom_bond_atom_site_label_1
_geom_bond_atom_site_label_2
_geom_bond_distance
_geom_bond_site_symmetry_2
Ba0 P3 3.509451 1_455
Ba0 P2 3.509451 1_544
Ba0 P3 3.509451 1_545
Ba0 P2 3.509451 1_454
Ba0 P5 3.511598 1_555
Ba0 P0 3.511598 1_444
Ba0 P1 3.513382 1_554
Ba0 P4 3.513382 1_445
P0 Ru5 2.301146 1_655
P0 Ru0 2.301147 1_565
P0 Ru1 2.310617 1_655
P0 Ru3 2.310617 1_565
P0 Rb0 3.464486 1_556
P0 Rb1 3.515213 1_565
P0 Rb1 3.515213 1_655
P1 Ru2 2.296623 1_545
P1 Ru4 2.296623 1_455
P1 Ru3 2.310298 1_555
P1 Ru1 2.310298 1_555
P1 Rb1 3.464493 1_555
P1 Rb0 3.520038 1_456
P1 Rb0 3.520039 1_546
P2 Ru4 2.304654 1_555
P2 Ru2 2.304655 1_555
P2 Ru0 2.308855 1_555
P2 Ru5 2.308855 1_555
P2 Rb1 3.565056 1_555
P2 Rb0 3.568873 1_556
P3 Ru1 2.304654 1_555
P3 Ru3 2.304655 1_555
P3 Ru5 2.308855 1_555
P3 Ru0 2.308855 1_555
P3 Rb0 3.565056 1_555
P3 Rb1 3.568873 1_554
P4 Ru3 2.296623 1_565
P4 Ru1 2.296623 1_655
P4 Ru2 2.310298 1_555
P4 Ru4 2.310298 1_555
P4 Rb0 3.464493 1_555
P4 Rb1 3.520038 1_654
P4 Rb1 3.520039 1_564
P5 Ru0 2.301146 1_455
P5 Ru5 2.301147 1_545
P5 Ru4 2.310617 1_455
P5 Ru2 2.310617 1_545
P5 Rb1 3.464486 1_554
P5 Rb0 3.515213 1_545
P5 Rb0 3.515213 1_455
