# generated using pymatgen
data_Rb4AgAs2Au
_symmetry_space_group_name_H-M   'P 1'
_cell_length_a   6.57378655
_cell_length_b   6.57378628
_cell_length_c   6.32991235
_cell_angle_alpha   90.22363520
_cell_angle_beta   90.22362328
_cell_angle_gamma   105.79240573
_symmetry_Int_Tables_number   1
_chemical_formula_structural   Rb4AgAs2Au
_chemical_formula_sum   'Rb4 Ag1 As2 Au1'
_cell_volume   263.21433867
_cell_formula_units_Z   1
loop_
 _symmetry_equiv_pos_site_id
 _symmetry_equiv_pos_as_xyz
  1  'x, y, z'
loop_
 _atom_site_type_symbol
 _atom_site_label
 _atom_site_symmetry_multiplicity
 _atom_site_fract_x
 _atom_site_fract_y
 _atom_site_fract_z
 _atom_site_occupancy
  Rb  Rb0  1  0.97865123  0.31928428  0.74671570  1
  Rb  Rb1  1  0.31928428  0.97865123  0.74671570  1
  Rb  Rb2  1  0.02134877  0.68071572  0.25328430  1
  Rb  Rb3  1  0.68071572  0.02134877  0.25328430  1
  Ag  Ag0  1  0.50000000  0.50000000  0.00000000  1
  As  As0  1  0.74807311  0.74807311  0.74852344  1
  As  As1  1  0.25192689  0.25192689  0.25147656  1
  Au  Au0  1  0.50000000  0.50000000  0.50000000  1
loop_
_geom_bond_atom_site_label_1
_geom_bond_atom_site_label_2
_geom_bond_distance
_geom_bond_site_symmetry_2
Ag0 As1 2.538852 1_555
Ag0 As0 2.538852 1_554
Ag0 Rb3 3.667944 1_565
Ag0 Rb1 3.667944 1_544
Ag0 Rb2 3.667945 1_655
Ag0 Rb0 3.667945 1_454
As0 Au0 2.511180 1_555
As0 Rb0 3.545225 1_555
As0 Rb1 3.545225 1_555
As0 Rb0 3.646956 1_565
As0 Rb1 3.646956 1_655
As0 Rb2 3.703581 1_655
As0 Rb3 3.703582 1_565
As0 Rb3 3.745816 1_566
As0 Rb2 3.745817 1_656
As1 Au0 2.511180 1_555
As1 Rb2 3.545225 1_555
As1 Rb3 3.545225 1_555
As1 Rb2 3.646956 1_545
As1 Rb3 3.646956 1_455
As1 Rb0 3.703581 1_455
As1 Rb1 3.703582 1_545
As1 Rb1 3.745816 1_544
As1 Rb0 3.745817 1_454
Au0 Rb2 3.665548 1_655
Au0 Rb0 3.665548 1_455
Au0 Rb3 3.665548 1_565
Au0 Rb1 3.665548 1_545
