# generated using pymatgen
data_In2Ni2IrS2
_symmetry_space_group_name_H-M   'P 1'
_cell_length_a   5.48536929
_cell_length_b   5.58601302
_cell_length_c   5.58601310
_cell_angle_alpha   58.91021066
_cell_angle_beta   59.04926211
_cell_angle_gamma   59.04925643
_symmetry_Int_Tables_number   1
_chemical_formula_structural   In2Ni2IrS2
_chemical_formula_sum   'In2 Ni2 Ir1 S2'
_cell_volume   118.27732230
_cell_formula_units_Z   1
loop_
 _symmetry_equiv_pos_site_id
 _symmetry_equiv_pos_as_xyz
  1  'x, y, z'
loop_
 _atom_site_type_symbol
 _atom_site_label
 _atom_site_symmetry_multiplicity
 _atom_site_fract_x
 _atom_site_fract_y
 _atom_site_fract_z
 _atom_site_occupancy
  In  In0  1  0.00000000  0.00000000  0.00000000  1
  In  In1  1  0.50000000  0.50000000  0.50000000  1
  Ni  Ni0  1  0.00000000  0.00000000  0.50000000  1
  Ni  Ni1  1  0.00000000  0.50000000  0.00000000  1
  Ir  Ir0  1  0.50000000  0.00000000  0.00000000  1
  S  S0  1  0.74803582  0.70815208  0.70815208  1
  S  S1  1  0.25196418  0.29184792  0.29184792  1
loop_
_geom_bond_atom_site_label_1
_geom_bond_atom_site_label_2
_geom_bond_distance
_geom_bond_site_symmetry_2
In0 Ir0 2.742685 1_455
In0 Ir0 2.742685 1_555
In0 Ni1 2.793007 1_545
In0 Ni1 2.793007 1_555
In0 Ni0 2.793007 1_554
In0 Ni0 2.793007 1_555
In1 Ni0 2.728327 1_565
In1 Ni0 2.728327 1_655
In1 Ni1 2.728327 1_655
In1 Ni1 2.728327 1_556
In1 Ir0 2.746874 1_556
In1 Ir0 2.746874 1_565
In1 S0 3.034107 1_555
In1 S1 3.034107 1_555
Ni0 S1 2.151037 1_555
Ni0 S0 2.151037 1_445
Ni1 S1 2.151037 1_555
Ni1 S0 2.151037 1_454
Ir0 S1 2.312674 1_555
Ir0 S0 2.312674 1_544
Ir0 Ni1 2.728327 1_645
Ir0 Ni1 2.728327 1_555
Ir0 Ni0 2.728327 1_555
Ir0 Ni0 2.728327 1_654
