# generated using pymatgen
data_Sr4HgGe3Au4
_symmetry_space_group_name_H-M   'P 1'
_cell_length_a   6.03817232
_cell_length_b   6.03817198
_cell_length_c   11.21906548
_cell_angle_alpha   86.70403172
_cell_angle_beta   86.70403271
_cell_angle_gamma   45.31922258
_symmetry_Int_Tables_number   1
_chemical_formula_structural   Sr4HgGe3Au4
_chemical_formula_sum   'Sr4 Hg1 Ge3 Au4'
_cell_volume   290.27816493
_cell_formula_units_Z   1
loop_
 _symmetry_equiv_pos_site_id
 _symmetry_equiv_pos_as_xyz
  1  'x, y, z'
loop_
 _atom_site_type_symbol
 _atom_site_label
 _atom_site_symmetry_multiplicity
 _atom_site_fract_x
 _atom_site_fract_y
 _atom_site_fract_z
 _atom_site_occupancy
  Sr  Sr0  1  0.68404903  0.68404903  0.68139262  1
  Sr  Sr1  1  0.18793219  0.18793219  0.18752527  1
  Sr  Sr2  1  0.39740208  0.39740208  0.90031458  1
  Sr  Sr3  1  0.88962779  0.88962779  0.39527019  1
  Hg  Hg0  1  0.68524918  0.68524918  0.98560673  1
  Ge  Ge0  1  0.16596392  0.16596392  0.48905954  1
  Ge  Ge1  1  0.98404381  0.98404381  0.66392940  1
  Ge  Ge2  1  0.48584176  0.48584176  0.18643469  1
  Au  Au0  1  0.38579652  0.38579652  0.60447362  1
  Au  Au1  1  0.90632087  0.90632087  0.11477715  1
  Au  Au2  1  0.09874921  0.09874921  0.87069167  1
  Au  Au3  1  0.60142165  0.60142165  0.39292854  1
loop_
_geom_bond_atom_site_label_1
_geom_bond_atom_site_label_2
_geom_bond_distance
_geom_bond_site_symmetry_2
Hg0 Sr1 3.248458 1_656
Hg0 Sr1 3.248458 1_566
Hg0 Sr2 3.404149 1_555
Hg0 Sr2 3.410998 1_565
Hg0 Sr2 3.410998 1_655
Hg0 Sr0 3.413857 1_555
Ge0 Ge1 2.731939 1_445
Ge0 Sr0 3.187835 1_545
Ge0 Sr0 3.187835 1_455
Ge0 Sr3 3.315796 1_445
Ge0 Sr1 3.376532 1_555
Ge0 Sr3 3.522011 1_455
Ge0 Sr3 3.522012 1_545
Ge1 Sr0 3.236070 1_565
Ge1 Sr0 3.236070 1_655
Ge1 Sr3 3.253783 1_555
Ge1 Sr0 3.336721 1_555
Ge1 Sr2 3.613560 1_655
Ge1 Sr2 3.613561 1_565
Ge2 Hg0 3.064455 1_554
Ge2 Sr1 3.238374 1_565
Ge2 Sr1 3.238374 1_655
Ge2 Sr1 3.319215 1_555
Ge2 Sr2 3.416095 1_554
Ge2 Sr3 3.425988 1_545
Ge2 Sr3 3.425988 1_455
Au0 Ge1 2.673220 1_455
Au0 Ge1 2.673220 1_545
Au0 Ge0 2.841417 1_555
Au0 Au3 3.270525 1_555
Au0 Sr3 3.302946 1_455
Au0 Sr3 3.302946 1_545
Au0 Sr0 3.311981 1_545
Au0 Sr0 3.311982 1_455
Au0 Sr2 3.329620 1_555
Au0 Sr0 3.485627 1_555
Au1 Ge2 2.632833 1_565
Au1 Ge2 2.632833 1_655
Au1 Hg0 2.935063 1_554
Au1 Sr3 3.140772 1_555
Au1 Sr1 3.291561 1_665
Au1 Sr2 3.352647 1_564
Au1 Sr2 3.352647 1_654
Au1 Sr1 3.428294 1_655
Au1 Sr1 3.428294 1_565
Au2 Ge1 2.717433 1_445
Au2 Hg0 2.856156 1_455
Au2 Hg0 2.856156 1_545
Au2 Sr2 3.234775 1_545
Au2 Sr2 3.234775 1_455
Au2 Sr0 3.251740 1_455
Au2 Sr0 3.251740 1_545
Au2 Sr2 3.365331 1_555
Au3 Ge0 2.681150 1_565
Au3 Ge0 2.681150 1_655
Au3 Ge2 2.719894 1_555
Au3 Sr3 3.213562 1_555
Au3 Sr3 3.312886 1_545
Au3 Sr3 3.312886 1_455
Au3 Sr1 3.372600 1_565
Au3 Sr1 3.372601 1_655
Au3 Sr0 3.419480 1_555
