# generated using pymatgen
data_Sr8Fe2CoN8
_symmetry_space_group_name_H-M   'P 1'
_cell_length_a   9.70150227
_cell_length_b   9.70150224
_cell_length_c   7.40481765
_cell_angle_alpha   75.23133739
_cell_angle_beta   75.23133995
_cell_angle_gamma   31.89800497
_symmetry_Int_Tables_number   1
_chemical_formula_structural   Sr8Fe2CoN8
_chemical_formula_sum   'Sr8 Fe2 Co1 N8'
_cell_volume   355.08812547
_cell_formula_units_Z   1
loop_
 _symmetry_equiv_pos_site_id
 _symmetry_equiv_pos_as_xyz
  1  'x, y, z'
loop_
 _atom_site_type_symbol
 _atom_site_label
 _atom_site_symmetry_multiplicity
 _atom_site_fract_x
 _atom_site_fract_y
 _atom_site_fract_z
 _atom_site_occupancy
  Sr  Sr0  1  0.40501382  0.40501382  0.96327184  1
  Sr  Sr1  1  0.33424768  0.33424768  0.47165796  1
  Sr  Sr2  1  0.97057112  0.97057112  0.26593456  1
  Sr  Sr3  1  0.20073444  0.20073444  0.19337303  1
  Sr  Sr4  1  0.79926556  0.79926556  0.80662697  1
  Sr  Sr5  1  0.02942888  0.02942888  0.73406544  1
  Sr  Sr6  1  0.66575232  0.66575232  0.52834204  1
  Sr  Sr7  1  0.59498618  0.59498618  0.03672816  1
  Fe  Fe0  1  0.81235413  0.81235413  0.20641527  1
  Fe  Fe1  1  0.18764587  0.18764587  0.79358473  1
  Co  Co0  1  0.50000000  0.50000000  0.50000000  1
  N  N0  1  0.27625424  0.27625424  0.83141495  1
  N  N1  1  0.82291268  0.82291268  0.43154347  1
  N  N2  1  0.10761568  0.10761568  0.98348208  1
  N  N3  1  0.89238432  0.89238432  0.01651792  1
  N  N4  1  0.17708732  0.17708732  0.56845653  1
  N  N5  1  0.47422018  0.47422018  0.28343643  1
  N  N6  1  0.72374576  0.72374576  0.16858505  1
  N  N7  1  0.52577982  0.52577982  0.71656357  1
loop_
_geom_bond_atom_site_label_1
_geom_bond_atom_site_label_2
_geom_bond_distance
_geom_bond_site_symmetry_2
Fe0 N1 1.729717 1_555
Fe0 N6 1.748346 1_555
Fe0 N3 1.758764 1_555
Fe1 N4 1.729717 1_555
Fe1 N0 1.748346 1_555
Fe1 N2 1.758764 1_555
Co0 N5 1.792163 1_555
Co0 N7 1.792163 1_555
N0 Sr1 2.595931 1_555
N0 Sr3 2.677006 1_556
N0 Sr4 2.698642 1_455
N0 Sr4 2.698642 1_545
N0 Sr0 2.822639 1_555
N1 Sr4 2.694254 1_555
N1 Sr1 2.696798 1_655
N1 Sr1 2.696798 1_565
N1 Sr2 2.702061 1_555
N1 Sr6 2.827728 1_555
N2 Sr3 2.620153 1_556
N2 Sr5 2.639535 1_555
N2 Sr7 2.695955 1_546
N2 Sr7 2.695955 1_456
N2 Sr2 2.841794 1_446
N3 Sr4 2.620153 1_554
N3 Sr2 2.639535 1_555
N3 Sr0 2.695955 1_564
N3 Sr0 2.695955 1_654
N3 Sr5 2.841794 1_664
N4 Sr3 2.694254 1_555
N4 Sr6 2.696798 1_455
N4 Sr6 2.696798 1_545
N4 Sr5 2.702061 1_555
N4 Sr1 2.827728 1_555
N5 Sr7 2.496197 1_555
N5 Sr1 2.613770 1_555
N5 Sr2 2.670687 1_455
N5 Sr2 2.670687 1_545
N5 Sr0 2.985054 1_554
N6 Sr6 2.595931 1_555
N6 Sr4 2.677006 1_554
N6 Sr3 2.698642 1_655
N6 Sr3 2.698642 1_565
N6 Sr7 2.822639 1_555
N7 Sr0 2.496197 1_555
N7 Sr6 2.613770 1_555
N7 Sr5 2.670687 1_655
N7 Sr5 2.670687 1_565
N7 Sr7 2.985054 1_556
