# generated using pymatgen
data_Cs3K(SeO3)2
_symmetry_space_group_name_H-M   'P 1'
_cell_length_a   6.41936710
_cell_length_b   6.41936743
_cell_length_c   7.82385898
_cell_angle_alpha   90.00000000
_cell_angle_beta   90.00000000
_cell_angle_gamma   119.99999347
_symmetry_Int_Tables_number   1
_chemical_formula_structural   Cs3K(SeO3)2
_chemical_formula_sum   'Cs3 K1 Se2 O6'
_cell_volume   279.21331207
_cell_formula_units_Z   1
loop_
 _symmetry_equiv_pos_site_id
 _symmetry_equiv_pos_as_xyz
  1  'x, y, z'
loop_
 _atom_site_type_symbol
 _atom_site_label
 _atom_site_symmetry_multiplicity
 _atom_site_fract_x
 _atom_site_fract_y
 _atom_site_fract_z
 _atom_site_occupancy
  Cs  Cs0  1  0.00000000  0.00000000  0.00000000  1
  Cs  Cs1  1  0.66666700  0.33333400  0.34396450  1
  Cs  Cs2  1  0.33333300  0.66666700  0.65603450  1
  K  K0  1  0.00000000  0.00000000  0.50000000  1
  Se  Se0  1  0.33333300  0.66666700  0.19587895  1
  Se  Se1  1  0.66666700  0.33333400  0.80412005  1
  O  O0  1  0.19435490  0.38870880  0.28750433  1
  O  O1  1  0.19435490  0.80564510  0.28750433  1
  O  O2  1  0.61129120  0.80564510  0.28750433  1
  O  O3  1  0.38870780  0.19435390  0.71249467  1
  O  O4  1  0.80564410  0.19435390  0.71249467  1
  O  O5  1  0.80564510  0.61129220  0.71249467  1
loop_
_geom_bond_atom_site_label_1
_geom_bond_atom_site_label_2
_geom_bond_distance
_geom_bond_site_symmetry_2
Cs0 O2 3.119219 1_445
Cs0 O0 3.119219 1_555
Cs0 O3 3.119221 1_554
Cs0 O5 3.119221 1_444
Cs0 O1 3.119223 1_545
Cs0 O4 3.119229 1_454
Cs1 O2 3.254525 1_555
Cs1 O0 3.254527 1_555
Cs1 O1 3.254529 1_655
Cs1 O0 3.254534 1_655
Cs1 O1 3.254535 1_545
Cs1 O2 3.254538 1_545
Cs1 O4 3.271300 1_555
Cs1 O5 3.271302 1_555
Cs1 O3 3.271305 1_555
Cs1 Se1 4.223667 1_554
Cs2 O4 3.254525 1_565
Cs2 O5 3.254527 1_555
Cs2 O3 3.254528 1_565
Cs2 O5 3.254534 1_455
Cs2 O3 3.254534 1_555
Cs2 O4 3.254538 1_455
Cs2 O1 3.271297 1_555
Cs2 O2 3.271302 1_555
Cs2 O0 3.271302 1_555
Cs2 Se0 4.223667 1_556
K0 O3 2.726488 1_555
K0 O5 2.726488 1_445
K0 O4 2.726496 1_455
K0 O2 2.726497 1_445
K0 O0 2.726497 1_555
K0 O1 2.726501 1_545
O0 Se0 1.703447 1_555
O1 Se0 1.703437 1_555
O2 Se0 1.703447 1_555
O3 Se1 1.703452 1_555
O4 Se1 1.703442 1_555
O5 Se1 1.703447 1_555
