# generated using pymatgen
data_Ca10SiBi4As
_symmetry_space_group_name_H-M   'P 1'
_cell_length_a   8.20337191
_cell_length_b   9.47262723
_cell_length_c   12.80823611
_cell_angle_alpha   90.00000000
_cell_angle_beta   88.63840914
_cell_angle_gamma   90.00000000
_symmetry_Int_Tables_number   1
_chemical_formula_structural   Ca10SiBi4As
_chemical_formula_sum   'Ca20 Si2 Bi8 As2'
_cell_volume   995.01477630
_cell_formula_units_Z   2
loop_
 _symmetry_equiv_pos_site_id
 _symmetry_equiv_pos_as_xyz
  1  'x, y, z'
loop_
 _atom_site_type_symbol
 _atom_site_label
 _atom_site_symmetry_multiplicity
 _atom_site_fract_x
 _atom_site_fract_y
 _atom_site_fract_z
 _atom_site_occupancy
  Ca  Ca0  1  0.04560594  0.75000000  0.50402525  1
  Ca  Ca1  1  0.95439406  0.25000000  0.49597475  1
  Ca  Ca2  1  0.55792945  0.25000000  0.00144538  1
  Ca  Ca3  1  0.44207055  0.75000000  0.99855462  1
  Ca  Ca4  1  0.85747897  0.75000000  0.79713903  1
  Ca  Ca5  1  0.14252103  0.25000000  0.20286097  1
  Ca  Ca6  1  0.36087102  0.25000000  0.69446059  1
  Ca  Ca7  1  0.63912898  0.75000000  0.30553941  1
  Ca  Ca8  1  0.68265903  0.53706457  0.57308863  1
  Ca  Ca9  1  0.31734097  0.46293543  0.42691137  1
  Ca  Ca10  1  0.17247788  0.47081527  0.92293526  1
  Ca  Ca11  1  0.31734097  0.03706457  0.42691137  1
  Ca  Ca12  1  0.82752212  0.52918473  0.07706474  1
  Ca  Ca13  1  0.68265903  0.96293543  0.57308863  1
  Ca  Ca14  1  0.82752212  0.97081527  0.07706474  1
  Ca  Ca15  1  0.17247788  0.02918473  0.92293526  1
  Ca  Ca16  1  0.32605352  0.75000000  0.71591576  1
  Ca  Ca17  1  0.67394648  0.25000000  0.28408424  1
  Ca  Ca18  1  0.83608549  0.25000000  0.78761149  1
  Ca  Ca19  1  0.16391451  0.75000000  0.21238851  1
  Si  Si0  1  0.05719661  0.75000000  0.98864813  1
  Si  Si1  1  0.94280339  0.25000000  0.01135187  1
  Bi  Bi0  1  0.55484756  0.50533965  0.82753529  1
  Bi  Bi1  1  0.44515244  0.49466035  0.17246471  1
  Bi  Bi2  1  0.06585672  0.48686392  0.66742651  1
  Bi  Bi3  1  0.44515244  0.00533965  0.17246471  1
  Bi  Bi4  1  0.93414328  0.51313608  0.33257349  1
  Bi  Bi5  1  0.55484756  0.99466035  0.82753529  1
  Bi  Bi6  1  0.93414328  0.98686392  0.33257349  1
  Bi  Bi7  1  0.06585672  0.01313608  0.66742651  1
  As  As0  1  0.57252975  0.25000000  0.51003891  1
  As  As1  1  0.42747025  0.75000000  0.48996109  1
loop_
_geom_bond_atom_site_label_1
_geom_bond_atom_site_label_2
_geom_bond_distance
_geom_bond_site_symmetry_2
Ca2 Si1 3.162824 1_555
Ca3 Si0 3.162824 1_555
Ca4 Si0 2.981927 1_655
Ca5 Si1 2.981927 1_455
Ca10 Si0 2.925558 1_555
Ca10 Si1 3.017637 1_456
Ca12 Si1 2.925558 1_555
Ca12 Si0 3.017637 1_654
Ca14 Si1 2.925558 1_565
Ca14 Si0 3.017637 1_654
Ca15 Si0 2.925558 1_545
Ca15 Si1 3.017637 1_456
Ca18 Si1 3.016286 1_556
Ca19 Si0 3.016286 1_554
Bi0 Ca2 3.288659 1_556
Bi0 Ca3 3.305882 1_555
Bi0 Ca16 3.326449 1_555
Bi0 Ca10 3.355126 1_555
Bi0 Ca18 3.373190 1_555
Bi0 Ca6 3.378825 1_555
Bi0 Ca4 3.411758 1_555
Bi0 Ca8 3.412976 1_555
Bi1 Ca3 3.288659 1_554
Bi1 Ca2 3.305882 1_555
Bi1 Ca17 3.326449 1_555
Bi1 Ca12 3.355126 1_555
Bi1 Ca19 3.373190 1_555
Bi1 Ca7 3.378825 1_555
Bi1 Ca5 3.411758 1_555
Bi1 Ca9 3.412976 1_555
Bi2 Ca0 3.261484 1_555
Bi2 Ca1 3.284537 1_455
Bi2 Ca18 3.289205 1_455
Bi2 Ca6 3.324298 1_555
Bi2 Ca16 3.349295 1_555
Bi2 Ca10 3.410891 1_555
Bi2 Ca8 3.427581 1_455
Bi2 Ca4 3.429329 1_455
Bi2 Ca9 3.673600 1_555
Bi3 Ca3 3.288659 1_544
Bi3 Ca2 3.305882 1_555
Bi3 Ca17 3.326449 1_555
Bi3 Ca14 3.355126 1_545
Bi3 Ca19 3.373190 1_545
Bi3 Ca7 3.378825 1_545
Bi3 Ca5 3.411758 1_555
Bi3 Ca11 3.412976 1_555
Bi4 Ca1 3.261484 1_555
Bi4 Ca0 3.284537 1_655
Bi4 Ca19 3.289205 1_655
Bi4 Ca7 3.324298 1_555
Bi4 Ca17 3.349295 1_555
Bi4 Ca12 3.410891 1_555
Bi4 Ca9 3.427581 1_655
Bi4 Ca5 3.429329 1_655
Bi4 Ca8 3.673600 1_555
Bi5 Ca2 3.288659 1_566
Bi5 Ca3 3.305882 1_555
Bi5 Ca16 3.326449 1_555
Bi5 Ca15 3.355126 1_565
Bi5 Ca18 3.373190 1_565
Bi5 Ca6 3.378825 1_565
Bi5 Ca4 3.411758 1_555
Bi5 Ca13 3.412976 1_555
Bi6 Ca1 3.261484 1_565
Bi6 Ca0 3.284537 1_655
Bi6 Ca19 3.289205 1_655
Bi6 Ca7 3.324298 1_555
Bi6 Ca17 3.349295 1_565
Bi6 Ca14 3.410891 1_555
Bi6 Ca11 3.427581 1_665
Bi6 Ca5 3.429329 1_665
Bi6 Ca13 3.673600 1_555
Bi7 Ca0 3.261484 1_545
Bi7 Ca1 3.284537 1_455
Bi7 Ca18 3.289205 1_455
Bi7 Ca6 3.324298 1_555
Bi7 Ca16 3.349295 1_545
Bi7 Ca15 3.410891 1_555
Bi7 Ca13 3.427581 1_445
Bi7 Ca4 3.429329 1_445
Bi7 Ca11 3.673600 1_555
As0 Ca6 2.898184 1_555
As0 Ca8 2.982844 1_555
As0 Ca13 2.982844 1_545
As0 Ca17 2.992229 1_555
As0 Ca11 3.112946 1_555
As0 Ca9 3.112946 1_555
As0 Ca1 3.133474 1_555
As1 Ca7 2.898184 1_555
As1 Ca9 2.982844 1_555
As1 Ca11 2.982844 1_565
As1 Ca16 2.992229 1_555
As1 Ca13 3.112946 1_555
As1 Ca8 3.112946 1_555
As1 Ca0 3.133474 1_555
