# generated using pymatgen
data_Be4ZnPd
_symmetry_space_group_name_H-M   'P 1'
_cell_length_a   4.35168902
_cell_length_b   4.35168915
_cell_length_c   4.35168928
_cell_angle_alpha   60.00000650
_cell_angle_beta   60.00000551
_cell_angle_gamma   60.00000466
_symmetry_Int_Tables_number   1
_chemical_formula_structural   Be4ZnPd
_chemical_formula_sum   'Be4 Zn1 Pd1'
_cell_volume   58.27182934
_cell_formula_units_Z   1
loop_
 _symmetry_equiv_pos_site_id
 _symmetry_equiv_pos_as_xyz
  1  'x, y, z'
loop_
 _atom_site_type_symbol
 _atom_site_label
 _atom_site_symmetry_multiplicity
 _atom_site_fract_x
 _atom_site_fract_y
 _atom_site_fract_z
 _atom_site_occupancy
  Be  Be0  1  0.12582611  0.12582611  0.12582611  1
  Be  Be1  1  0.62252166  0.12582611  0.12582611  1
  Be  Be2  1  0.12582611  0.62252166  0.12582611  1
  Be  Be3  1  0.12582611  0.12582611  0.62252166  1
  Zn  Zn0  1  0.75000000  0.75000000  0.75000000  1
  Pd  Pd0  1  0.50000000  0.50000000  0.50000000  1
loop_
_geom_bond_atom_site_label_1
_geom_bond_atom_site_label_2
_geom_bond_distance
_geom_bond_site_symmetry_2
Be0 Be1 2.161465 1_555
Be0 Be2 2.161465 1_555
Be0 Be3 2.161465 1_555
Be0 Be1 2.190224 1_455
Be0 Be2 2.190225 1_545
Be0 Be3 2.190225 1_554
Be0 Pd0 2.549886 1_455
Be0 Pd0 2.549886 1_545
Be0 Pd0 2.549886 1_554
Be0 Zn0 2.552952 1_544
Be0 Zn0 2.552952 1_454
Be0 Zn0 2.552952 1_445
Be1 Be2 2.161465 1_555
Be1 Be3 2.161465 1_555
Be1 Be2 2.190225 1_645
Be1 Be3 2.190225 1_654
Be1 Pd0 2.549886 1_555
Be1 Pd0 2.549886 1_545
Be1 Pd0 2.549886 1_554
Be1 Zn0 2.552952 1_544
Be1 Zn0 2.552952 1_554
Be1 Zn0 2.552952 1_545
Be2 Be3 2.161465 1_555
Be2 Be3 2.190225 1_564
Be2 Pd0 2.549886 1_555
Be2 Pd0 2.549886 1_455
Be2 Pd0 2.549886 1_554
Be2 Zn0 2.552952 1_454
Be2 Zn0 2.552952 1_554
Be2 Zn0 2.552952 1_455
Be3 Pd0 2.549886 1_555
Be3 Pd0 2.549886 1_455
Be3 Pd0 2.549886 1_545
Be3 Zn0 2.552951 1_445
Be3 Zn0 2.552952 1_545
Be3 Zn0 2.552952 1_455
Pd0 Zn0 2.664854 1_555
Pd0 Zn0 2.664855 1_455
Pd0 Zn0 2.664855 1_545
Pd0 Zn0 2.664855 1_554
