# generated using pymatgen
data_Sc4Al6TcPt
_symmetry_space_group_name_H-M   'P 1'
_cell_length_a   5.30059496
_cell_length_b   5.30059547
_cell_length_c   8.56474716
_cell_angle_alpha   90.00000000
_cell_angle_beta   90.00000000
_cell_angle_gamma   120.00000915
_symmetry_Int_Tables_number   1
_chemical_formula_structural   Sc4Al6TcPt
_chemical_formula_sum   'Sc4 Al6 Tc1 Pt1'
_cell_volume   208.39841857
_cell_formula_units_Z   1
loop_
 _symmetry_equiv_pos_site_id
 _symmetry_equiv_pos_as_xyz
  1  'x, y, z'
loop_
 _atom_site_type_symbol
 _atom_site_label
 _atom_site_symmetry_multiplicity
 _atom_site_fract_x
 _atom_site_fract_y
 _atom_site_fract_z
 _atom_site_occupancy
  Sc  Sc0  1  0.33333300  0.66666700  0.06224741  1
  Sc  Sc1  1  0.66666700  0.33333300  0.55039141  1
  Sc  Sc2  1  0.33333300  0.66666700  0.44960859  1
  Sc  Sc3  1  0.66666700  0.33333300  0.93775259  1
  Al  Al0  1  0.83401479  0.66802758  0.25033000  1
  Al  Al1  1  0.16598521  0.83401479  0.74967000  1
  Al  Al2  1  0.66802758  0.83401479  0.74967000  1
  Al  Al3  1  0.33197242  0.16598521  0.25033000  1
  Al  Al4  1  0.83401479  0.16598521  0.25033000  1
  Al  Al5  1  0.16598521  0.33197242  0.74967000  1
  Tc  Tc0  1  0.00000000  0.00000000  0.00000000  1
  Pt  Pt0  1  0.00000000  0.00000000  0.50000000  1
loop_
_geom_bond_atom_site_label_1
_geom_bond_atom_site_label_2
_geom_bond_distance
_geom_bond_site_symmetry_2
Sc0 Tc0 3.106389 1_565
Sc0 Tc0 3.106393 1_665
Sc0 Tc0 3.106393 1_555
Sc0 Sc3 3.240731 1_454
Sc0 Sc3 3.240732 1_564
Sc0 Sc3 3.240741 1_554
Sc0 Sc2 3.317651 1_555
Sc1 Sc2 3.179700 1_655
Sc1 Sc2 3.179701 1_545
Sc1 Sc2 3.179710 1_555
Sc1 Sc3 3.317651 1_555
Sc3 Tc0 3.106389 1_656
Sc3 Tc0 3.106393 1_556
Sc3 Tc0 3.106393 1_666
Al0 Pt0 2.625807 1_665
Al0 Tc0 2.630413 1_665
Al0 Al3 2.639471 1_665
Al0 Al4 2.639472 1_565
Al0 Al3 2.661123 1_555
Al0 Al4 2.661123 1_555
Al0 Sc1 2.994188 1_555
Al0 Sc3 3.086687 1_554
Al0 Sc0 3.101452 1_655
Al0 Sc0 3.101466 1_555
Al0 Sc2 3.152323 1_655
Al0 Sc2 3.152336 1_555
Al1 Pt0 2.625802 1_565
Al1 Tc0 2.630408 1_566
Al1 Al2 2.639472 1_455
Al1 Al5 2.639472 1_565
Al1 Al2 2.661123 1_555
Al1 Al5 2.661123 1_555
Al1 Sc2 2.994191 1_555
Al1 Sc0 3.086689 1_556
Al1 Sc3 3.101459 1_565
Al1 Sc3 3.101459 1_455
Al1 Sc1 3.152329 1_565
Al1 Sc1 3.152329 1_455
Al2 Pt0 2.625807 1_665
Al2 Tc0 2.630413 1_666
Al2 Al5 2.639471 1_665
Al2 Al5 2.661123 1_555
Al2 Sc2 2.994188 1_555
Al2 Sc0 3.086687 1_556
Al2 Sc3 3.101453 1_565
Al2 Sc3 3.101466 1_555
Al2 Sc1 3.152323 1_565
Al2 Sc1 3.152337 1_555
Al3 Pt0 2.625807 1_555
Al3 Tc0 2.630413 1_555
Al3 Al4 2.639472 1_455
Al3 Al4 2.661123 1_555
Al3 Sc1 2.994188 1_555
Al3 Sc3 3.086687 1_554
Al3 Sc0 3.101453 1_545
Al3 Sc0 3.101466 1_555
Al3 Sc2 3.152323 1_545
Al3 Sc2 3.152337 1_555
Al4 Pt0 2.625802 1_655
Al4 Tc0 2.630408 1_655
Al4 Sc1 2.994191 1_555
Al4 Sc3 3.086689 1_554
Al4 Sc0 3.101459 1_545
Al4 Sc0 3.101459 1_655
Al4 Sc2 3.152329 1_545
Al4 Sc2 3.152329 1_655
Al5 Pt0 2.625807 1_555
Al5 Tc0 2.630413 1_556
Al5 Sc2 2.994188 1_555
Al5 Sc0 3.086687 1_556
Al5 Sc3 3.101452 1_455
Al5 Sc3 3.101466 1_555
Al5 Sc1 3.152323 1_455
Al5 Sc1 3.152336 1_555
Pt0 Sc1 3.090581 1_455
Pt0 Sc2 3.090581 1_545
Pt0 Sc1 3.090585 1_555
Pt0 Sc2 3.090585 1_445
Pt0 Sc2 3.090585 1_555
Pt0 Sc1 3.090585 1_445
