# generated using pymatgen
data_KZnGaF6
_symmetry_space_group_name_H-M   'P 1'
_cell_length_a   9.76972859
_cell_length_b   6.84958168
_cell_length_c   7.28094828
_cell_angle_alpha   90.00456186
_cell_angle_beta   90.00000000
_cell_angle_gamma   90.00000000
_symmetry_Int_Tables_number   1
_chemical_formula_structural   KZnGaF6
_chemical_formula_sum   'K4 Zn4 Ga4 F24'
_cell_volume   487.23052924
_cell_formula_units_Z   4
loop_
 _symmetry_equiv_pos_site_id
 _symmetry_equiv_pos_as_xyz
  1  'x, y, z'
loop_
 _atom_site_type_symbol
 _atom_site_label
 _atom_site_symmetry_multiplicity
 _atom_site_fract_x
 _atom_site_fract_y
 _atom_site_fract_z
 _atom_site_occupancy
  K  K0  1  0.11464948  0.49170850  0.24986593  1
  K  K1  1  0.88535052  0.50829150  0.75013407  1
  K  K2  1  0.61464948  0.00829150  0.75013407  1
  K  K3  1  0.38535052  0.99170850  0.24986593  1
  Zn  Zn0  1  0.72559568  0.18493161  0.24999783  1
  Zn  Zn1  1  0.22559568  0.31506839  0.75000217  1
  Zn  Zn2  1  0.27440432  0.81506839  0.75000217  1
  Zn  Zn3  1  0.77440432  0.68493161  0.24999783  1
  Ga  Ga0  1  0.00000000  0.00000000  0.50000000  1
  Ga  Ga1  1  0.50000000  0.50000000  0.00000000  1
  Ga  Ga2  1  0.00000000  0.00000000  0.00000000  1
  Ga  Ga3  1  0.50000000  0.50000000  0.50000000  1
  F  F0  1  0.93070210  0.75273537  0.43218761  1
  F  F1  1  0.97279606  0.92005625  0.74997852  1
  F  F2  1  0.82263706  0.10599987  0.49814232  1
  F  F3  1  0.17736515  0.89404255  0.99801474  1
  F  F4  1  0.82263485  0.10595745  0.00198526  1
  F  F5  1  0.34102148  0.08536488  0.75009860  1
  F  F6  1  0.47279606  0.57994375  0.25002148  1
  F  F7  1  0.52720394  0.42005625  0.74997852  1
  F  F8  1  0.56929790  0.25273537  0.43218761  1
  F  F9  1  0.06929790  0.24726463  0.56781239  1
  F  F10  1  0.32263485  0.39404255  0.99801474  1
  F  F11  1  0.32263706  0.39400013  0.50185768  1
  F  F12  1  0.15897852  0.58536488  0.75009860  1
  F  F13  1  0.67736515  0.60595745  0.00198526  1
  F  F14  1  0.43067455  0.74727634  0.93233234  1
  F  F15  1  0.02720394  0.07994375  0.25002148  1
  F  F16  1  0.17736294  0.89400013  0.50185768  1
  F  F17  1  0.67736294  0.60599987  0.49814232  1
  F  F18  1  0.84102148  0.41463512  0.24990140  1
  F  F19  1  0.06932545  0.24727634  0.93233234  1
  F  F20  1  0.65897852  0.91463512  0.24990140  1
  F  F21  1  0.56932545  0.25272366  0.06766766  1
  F  F22  1  0.93067455  0.75272366  0.06766766  1
  F  F23  1  0.43070210  0.74726463  0.56781239  1
loop_
_geom_bond_atom_site_label_1
_geom_bond_atom_site_label_2
_geom_bond_distance
_geom_bond_site_symmetry_2
F0 Ga0 1.889573 1_665
F0 Zn3 2.075313 1_555
F0 K0 2.861488 1_655
F0 K1 2.891252 1_555
F1 Ga0 1.919201 1_665
F1 Ga2 1.919415 1_666
F1 K1 2.946966 1_555
F2 Ga0 1.878801 1_655
F2 Zn0 2.110818 1_555
F2 K2 2.818390 1_555
F3 Ga2 1.878715 1_566
F3 Zn2 2.109987 1_555
F3 K3 2.817570 1_556
F4 Ga2 1.878715 1_655
F4 Zn0 2.109987 1_555
F4 K2 2.817570 1_554
F5 Zn1 1.935759 1_555
F5 Zn2 1.962481 1_545
F5 K2 2.724900 1_555
F6 Ga3 1.919201 1_555
F6 Ga1 1.919415 1_555
F6 K3 2.946966 1_555
F7 Ga3 1.919201 1_555
F7 Ga1 1.919415 1_556
F7 K2 2.946966 1_555
F8 Ga3 1.889573 1_555
F8 Zn0 2.075313 1_555
F8 K3 2.861488 1_545
F8 K2 2.891252 1_555
F9 Ga0 1.889573 1_555
F9 Zn1 2.075313 1_555
F9 K1 2.861488 1_455
F9 K0 2.891252 1_555
F10 Ga1 1.878715 1_556
F10 Zn1 2.109987 1_555
F10 K0 2.817570 1_556
F11 Ga3 1.878801 1_555
F11 Zn1 2.110818 1_555
F11 K0 2.818390 1_555
F12 Zn2 1.935759 1_555
F12 Zn1 1.962481 1_555
F12 K1 2.724900 1_455
F13 Ga1 1.878715 1_555
F13 Zn3 2.109987 1_555
F13 K1 2.817570 1_554
F14 Ga1 1.889536 1_556
F14 Zn2 2.075798 1_555
F14 K2 2.861322 1_565
F14 K3 2.888545 1_556
F15 Ga0 1.919201 1_555
F15 Ga2 1.919415 1_555
F15 K0 2.946966 1_555
F16 Ga0 1.878801 1_565
F16 Zn2 2.110818 1_555
F16 K3 2.818390 1_555
F17 Ga3 1.878801 1_555
F17 Zn3 2.110818 1_555
F17 K1 2.818390 1_555
F18 Zn0 1.935759 1_555
F18 Zn3 1.962481 1_555
F18 K0 2.724900 1_655
F19 Ga2 1.889536 1_556
F19 Zn1 2.075798 1_555
F19 K1 2.861322 1_455
F19 K0 2.888545 1_556
F20 Zn3 1.935759 1_555
F20 Zn0 1.962481 1_565
F20 K3 2.724900 1_555
F21 Ga1 1.889536 1_555
F21 Zn0 2.075798 1_555
F21 K3 2.861322 1_545
F21 K2 2.888545 1_554
F22 Ga2 1.889536 1_665
F22 Zn3 2.075798 1_555
F22 K0 2.861322 1_655
F22 K1 2.888545 1_554
F23 Ga3 1.889573 1_555
F23 Zn2 2.075313 1_555
F23 K2 2.861488 1_565
F23 K3 2.891252 1_555
