# generated using pymatgen
data_TcPbCl6
_symmetry_space_group_name_H-M   'P 1'
_cell_length_a   6.91130275
_cell_length_b   6.91130298
_cell_length_c   6.91130457
_cell_angle_alpha   59.37051446
_cell_angle_beta   59.37050162
_cell_angle_gamma   59.37049817
_symmetry_Int_Tables_number   1
_chemical_formula_structural   TcPbCl6
_chemical_formula_sum   'Tc1 Pb1 Cl6'
_cell_volume   230.08985848
_cell_formula_units_Z   1
loop_
 _symmetry_equiv_pos_site_id
 _symmetry_equiv_pos_as_xyz
  1  'x, y, z'
loop_
 _atom_site_type_symbol
 _atom_site_label
 _atom_site_symmetry_multiplicity
 _atom_site_fract_x
 _atom_site_fract_y
 _atom_site_fract_z
 _atom_site_occupancy
  Tc  Tc0  1  0.66427245  0.66427245  0.66427245  1
  Pb  Pb0  1  0.35533017  0.35533017  0.35533017  1
  Cl  Cl0  1  0.98895023  0.43796772  0.80460356  1
  Cl  Cl1  1  0.33358486  0.89080154  0.52448847  1
  Cl  Cl2  1  0.43796772  0.80460356  0.98895023  1
  Cl  Cl3  1  0.52448847  0.33358486  0.89080154  1
  Cl  Cl4  1  0.80460356  0.98895023  0.43796772  1
  Cl  Cl5  1  0.89080154  0.52448847  0.33358485  1
loop_
_geom_bond_atom_site_label_1
_geom_bond_atom_site_label_2
_geom_bond_distance
_geom_bond_site_symmetry_2
Cl0 Tc0 2.349021 1_555
Cl0 Pb0 2.949781 1_655
Cl1 Tc0 2.381281 1_555
Cl1 Pb0 2.860892 1_565
Cl2 Tc0 2.349021 1_555
Cl2 Pb0 2.949781 1_556
Cl3 Tc0 2.381281 1_555
Cl3 Pb0 2.860892 1_556
Cl4 Tc0 2.349021 1_555
Cl4 Pb0 2.949780 1_565
Cl5 Tc0 2.381281 1_555
Cl5 Pb0 2.860892 1_655
