# generated using pymatgen
data_Hf3AlIr2N
_symmetry_space_group_name_H-M   'P 1'
_cell_length_a   8.44044039
_cell_length_b   8.44044121
_cell_length_c   8.44043972
_cell_angle_alpha   60.00000583
_cell_angle_beta   60.00000263
_cell_angle_gamma   59.99999828
_symmetry_Int_Tables_number   1
_chemical_formula_structural   Hf3AlIr2N
_chemical_formula_sum   'Hf12 Al4 Ir8 N4'
_cell_volume   425.18736741
_cell_formula_units_Z   4
loop_
 _symmetry_equiv_pos_site_id
 _symmetry_equiv_pos_as_xyz
  1  'x, y, z'
loop_
 _atom_site_type_symbol
 _atom_site_label
 _atom_site_symmetry_multiplicity
 _atom_site_fract_x
 _atom_site_fract_y
 _atom_site_fract_z
 _atom_site_occupancy
  Hf  Hf0  1  0.80862272  0.80862272  0.19137728  1
  Hf  Hf1  1  0.19137728  0.19137728  0.80862272  1
  Hf  Hf2  1  0.80862272  0.19137728  0.80862272  1
  Hf  Hf3  1  0.19137728  0.80862272  0.19137728  1
  Hf  Hf4  1  0.19137728  0.80862272  0.80862272  1
  Hf  Hf5  1  0.80862272  0.19137728  0.19137728  1
  Hf  Hf6  1  0.44137728  0.44137728  0.05862272  1
  Hf  Hf7  1  0.05862272  0.05862272  0.44137728  1
  Hf  Hf8  1  0.44137728  0.05862272  0.44137728  1
  Hf  Hf9  1  0.05862272  0.44137728  0.05862272  1
  Hf  Hf10  1  0.05862272  0.44137728  0.44137728  1
  Hf  Hf11  1  0.44137728  0.05862272  0.05862272  1
  Al  Al0  1  0.12500000  0.62500000  0.62500000  1
  Al  Al1  1  0.62500000  0.12500000  0.62500000  1
  Al  Al2  1  0.62500000  0.62500000  0.12500000  1
  Al  Al3  1  0.62500000  0.62500000  0.62500000  1
  Ir  Ir0  1  0.75595190  0.41468303  0.41468303  1
  Ir  Ir1  1  0.41468303  0.75595190  0.41468303  1
  Ir  Ir2  1  0.41468303  0.41468303  0.75595190  1
  Ir  Ir3  1  0.41468303  0.41468303  0.41468303  1
  Ir  Ir4  1  0.49404810  0.83531697  0.83531697  1
  Ir  Ir5  1  0.83531697  0.49404810  0.83531697  1
  Ir  Ir6  1  0.83531697  0.83531697  0.49404810  1
  Ir  Ir7  1  0.83531697  0.83531697  0.83531697  1
  N  N0  1  0.62500000  0.12500000  0.12500000  1
  N  N1  1  0.12500000  0.62500000  0.12500000  1
  N  N2  1  0.12500000  0.12500000  0.62500000  1
  N  N3  1  0.12500000  0.12500000  0.12500000  1
loop_
_geom_bond_atom_site_label_1
_geom_bond_atom_site_label_2
_geom_bond_distance
_geom_bond_site_symmetry_2
Hf0 N1 2.253959 1_655
Hf0 N0 2.253959 1_565
Hf0 Ir6 2.798187 1_555
Hf0 Ir7 2.798196 1_554
Hf0 Ir1 3.029714 1_555
Hf0 Ir0 3.029714 1_555
Hf1 N2 2.253959 1_555
Hf1 N3 2.253959 1_556
Hf1 Ir5 2.798192 1_455
Hf1 Ir4 2.798193 1_545
Hf1 Ir3 3.029717 1_555
Hf1 Ir2 3.029721 1_555
Hf2 N0 2.253959 1_556
Hf2 N2 2.253959 1_655
Hf2 Ir5 2.798188 1_555
Hf2 Ir7 2.798196 1_545
Hf2 Ir0 3.029713 1_555
Hf2 Ir2 3.029713 1_555
Hf3 N1 2.253959 1_555
Hf3 N3 2.253960 1_565
Hf3 Ir4 2.798192 1_554
Hf3 Ir6 2.798192 1_455
Hf3 Ir3 3.029717 1_555
Hf3 Ir1 3.029721 1_555
Hf4 N1 2.253959 1_556
Hf4 N2 2.253960 1_565
Hf4 Ir4 2.798188 1_555
Hf4 Ir7 2.798196 1_455
Hf4 Ir1 3.029713 1_555
Hf4 Ir2 3.029714 1_555
Hf5 N0 2.253959 1_555
Hf5 N3 2.253959 1_655
Hf5 Ir5 2.798193 1_554
Hf5 Ir6 2.798193 1_545
Hf5 Ir3 3.029717 1_555
Hf5 Ir0 3.029721 1_555
Hf6 N1 2.253959 1_555
Hf6 N0 2.253959 1_555
Hf6 Ir2 2.798187 1_554
Hf6 Ir3 2.798196 1_555
Hf6 Ir5 3.029714 1_554
Hf6 Ir4 3.029714 1_554
Hf7 N3 2.253959 1_555
Hf7 N2 2.253959 1_555
Hf7 Ir1 2.798192 1_545
Hf7 Ir0 2.798193 1_455
Hf7 Ir7 3.029717 1_445
Hf7 Ir6 3.029721 1_445
Hf8 N0 2.253959 1_555
Hf8 N2 2.253959 1_555
Hf8 Ir1 2.798188 1_545
Hf8 Ir3 2.798196 1_555
Hf8 Ir4 3.029713 1_545
Hf8 Ir6 3.029713 1_545
Hf9 N1 2.253959 1_555
Hf9 N3 2.253960 1_555
Hf9 Ir0 2.798192 1_455
Hf9 Ir2 2.798192 1_554
Hf9 Ir7 3.029717 1_454
Hf9 Ir5 3.029721 1_454
Hf10 N1 2.253959 1_555
Hf10 N2 2.253960 1_555
Hf10 Ir0 2.798188 1_455
Hf10 Ir3 2.798196 1_555
Hf10 Ir5 3.029713 1_455
Hf10 Ir6 3.029714 1_455
Hf11 N0 2.253959 1_555
Hf11 N3 2.253959 1_555
Hf11 Ir1 2.798193 1_545
Hf11 Ir2 2.798193 1_554
Hf11 Ir7 3.029717 1_544
Hf11 Ir4 3.029721 1_544
Al0 Ir7 2.598305 1_455
Al0 Ir3 2.598305 1_555
Al0 Ir2 2.598309 1_555
Al0 Ir6 2.598309 1_455
Al0 Ir1 2.598310 1_555
Al0 Ir5 2.598310 1_455
Al1 Ir7 2.598305 1_545
Al1 Ir3 2.598305 1_555
Al1 Ir2 2.598309 1_555
Al1 Ir6 2.598309 1_545
Al1 Ir0 2.598310 1_555
Al1 Ir4 2.598310 1_545
Al2 Ir7 2.598305 1_554
Al2 Ir3 2.598305 1_555
Al2 Ir1 2.598309 1_555
Al2 Ir5 2.598309 1_554
Al2 Ir0 2.598309 1_555
Al2 Ir4 2.598309 1_554
Al3 Ir5 2.598302 1_555
Al3 Ir1 2.598302 1_555
Al3 Ir4 2.598302 1_555
Al3 Ir0 2.598302 1_555
Al3 Ir6 2.598303 1_555
Al3 Ir2 2.598303 1_555
