# generated using pymatgen
data_MnCr3(AgSe4)2
_symmetry_space_group_name_H-M   'P 1'
_cell_length_a   7.56607575
_cell_length_b   7.56859441
_cell_length_c   7.56864298
_cell_angle_alpha   59.68669059
_cell_angle_beta   59.67517370
_cell_angle_gamma   59.67656622
_symmetry_Int_Tables_number   1
_chemical_formula_structural   MnCr3(AgSe4)2
_chemical_formula_sum   'Mn1 Cr3 Ag2 Se8'
_cell_volume   304.23909060
_cell_formula_units_Z   1
loop_
 _symmetry_equiv_pos_site_id
 _symmetry_equiv_pos_as_xyz
  1  'x, y, z'
loop_
 _atom_site_type_symbol
 _atom_site_label
 _atom_site_symmetry_multiplicity
 _atom_site_fract_x
 _atom_site_fract_y
 _atom_site_fract_z
 _atom_site_occupancy
  Mn  Mn0  1  0.49999789  0.50000831  0.50000200  1
  Cr  Cr0  1  0.50000568  0.49999485  0.99999556  1
  Cr  Cr1  1  0.00001057  0.49999937  0.49999631  1
  Cr  Cr2  1  0.50000097  0.99999786  0.49999982  1
  Ag  Ag0  1  0.87301178  0.87314773  0.87311463  1
  Ag  Ag1  1  0.12699240  0.12685586  0.12687913  1
  Se  Se0  1  0.73621658  0.73617958  0.73621391  1
  Se  Se1  1  0.26344015  0.26334895  0.71018739  1
  Se  Se2  1  0.26347544  0.71016829  0.26334267  1
  Se  Se3  1  0.71023374  0.26334913  0.26335561  1
  Se  Se4  1  0.73653690  0.28982333  0.73662249  1
  Se  Se5  1  0.28973951  0.73667284  0.73667774  1
  Se  Se6  1  0.26375191  0.26381424  0.26380805  1
  Se  Se7  1  0.73659147  0.73663766  0.28980867  1
loop_
_geom_bond_atom_site_label_1
_geom_bond_atom_site_label_2
_geom_bond_distance
_geom_bond_site_symmetry_2
Mn0 Se4 2.535097 1_555
Mn0 Se2 2.535239 1_555
Mn0 Se1 2.535362 1_555
Mn0 Se7 2.535390 1_555
Mn0 Se3 2.535964 1_555
Mn0 Se5 2.536145 1_555
Cr0 Se0 2.528969 1_555
Cr0 Se6 2.529182 1_556
Cr0 Se2 2.535722 1_556
Cr0 Se4 2.535859 1_555
Cr0 Se5 2.536120 1_555
Cr0 Se3 2.536168 1_556
Cr1 Se6 2.528778 1_555
Cr1 Se0 2.528931 1_455
Cr1 Se7 2.536110 1_455
Cr1 Se1 2.536186 1_555
Cr1 Se2 2.536210 1_555
Cr1 Se4 2.536297 1_455
Cr2 Se0 2.529224 1_555
Cr2 Se6 2.529279 1_565
Cr2 Se1 2.535817 1_565
Cr2 Se7 2.535885 1_555
Cr2 Se5 2.536077 1_555
Cr2 Se3 2.536083 1_565
Ag0 Se0 2.543647 1_555
Ag0 Se5 2.564167 1_655
Ag0 Se4 2.564997 1_565
Ag0 Se7 2.565098 1_556
Ag1 Se6 2.543540 1_555
Ag1 Se3 2.564353 1_455
Ag1 Se2 2.565074 1_545
Ag1 Se1 2.565082 1_554
