# generated using pymatgen
data_Ga3Ge4Ir3
_symmetry_space_group_name_H-M   'P 1'
_cell_length_a   7.55162819
_cell_length_b   7.55162658
_cell_length_c   7.55162795
_cell_angle_alpha   109.47123211
_cell_angle_beta   109.47122778
_cell_angle_gamma   109.47120679
_symmetry_Int_Tables_number   1
_chemical_formula_structural   Ga3Ge4Ir3
_chemical_formula_sum   'Ga6 Ge8 Ir6'
_cell_volume   331.51239755
_cell_formula_units_Z   2
loop_
 _symmetry_equiv_pos_site_id
 _symmetry_equiv_pos_as_xyz
  1  'x, y, z'
loop_
 _atom_site_type_symbol
 _atom_site_label
 _atom_site_symmetry_multiplicity
 _atom_site_fract_x
 _atom_site_fract_y
 _atom_site_fract_z
 _atom_site_occupancy
  Ga  Ga0  1  0.50000000  0.75000000  0.25000000  1
  Ga  Ga1  1  0.50000000  0.25000000  0.75000000  1
  Ga  Ga2  1  0.25000000  0.50000000  0.75000000  1
  Ga  Ga3  1  0.75000000  0.50000000  0.25000000  1
  Ga  Ga4  1  0.75000000  0.25000000  0.50000000  1
  Ga  Ga5  1  0.25000000  0.75000000  0.50000000  1
  Ge  Ge0  1  0.32739681  0.32739681  0.32739681  1
  Ge  Ge1  1  0.67260319  0.67260319  0.67260319  1
  Ge  Ge2  1  0.00000000  0.00000000  0.67260319  1
  Ge  Ge3  1  1.00000000  0.67260319  0.00000000  1
  Ge  Ge4  1  1.00000000  1.00000000  0.32739681  1
  Ge  Ge5  1  0.00000000  0.32739681  1.00000000  1
  Ge  Ge6  1  0.67260319  1.00000000  1.00000000  1
  Ge  Ge7  1  0.32739681  0.00000000  0.00000000  1
  Ir  Ir0  1  1.00000000  0.33810470  0.33810470  1
  Ir  Ir1  1  0.00000000  0.66189530  0.66189530  1
  Ir  Ir2  1  0.33810470  0.00000000  0.33810470  1
  Ir  Ir3  1  0.66189530  1.00000000  0.66189530  1
  Ir  Ir4  1  0.33810470  0.33810470  1.00000000  1
  Ir  Ir5  1  0.66189530  0.66189530  0.00000000  1
loop_
_geom_bond_atom_site_label_1
_geom_bond_atom_site_label_2
_geom_bond_distance
_geom_bond_site_symmetry_2
Ga0 Ir4 2.597146 1_554
Ga0 Ir2 2.597146 1_565
Ga0 Ir3 2.597146 1_555
Ga0 Ir5 2.597147 1_555
Ga1 Ir5 2.597146 1_556
Ga1 Ir3 2.597146 1_545
Ga1 Ir2 2.597146 1_555
Ga1 Ir4 2.597147 1_555
Ga2 Ir1 2.597146 1_555
Ga2 Ir0 2.597146 1_455
Ga2 Ir4 2.597146 1_555
Ga2 Ir5 2.597147 1_556
Ga3 Ir0 2.597146 1_555
Ga3 Ir1 2.597146 1_655
Ga3 Ir5 2.597146 1_555
Ga3 Ir4 2.597147 1_554
Ga4 Ir1 2.597146 1_655
Ga4 Ir3 2.597147 1_545
Ga4 Ir2 2.597147 1_555
Ga4 Ir0 2.597147 1_555
Ga5 Ir0 2.597146 1_455
Ga5 Ir2 2.597147 1_565
Ga5 Ir3 2.597147 1_555
Ga5 Ir1 2.597147 1_555
Ge0 Ir2 2.527437 1_555
Ge0 Ir4 2.527437 1_554
Ge0 Ir0 2.527437 1_455
Ge0 Ge1 2.606870 1_555
Ge0 Ge7 2.854857 1_555
Ge0 Ge5 2.854857 1_554
Ge0 Ge4 2.854858 1_445
Ge1 Ir3 2.527437 1_555
Ge1 Ir5 2.527437 1_556
Ge1 Ir1 2.527437 1_655
Ge1 Ge6 2.854857 1_555
Ge1 Ge3 2.854857 1_556
Ge1 Ge2 2.854858 1_665
Ge2 Ir1 2.527436 1_545
Ge2 Ir4 2.527437 1_555
Ge2 Ir3 2.527437 1_445
Ge2 Ge4 2.606870 1_445
Ge2 Ge5 2.854857 1_555
Ge2 Ge7 2.854857 1_556
Ge3 Ir2 2.527437 1_665
Ge3 Ir1 2.527437 1_654
Ge3 Ir5 2.527437 1_555
Ge3 Ge5 2.606870 1_654
Ge3 Ge4 2.854857 1_555
Ge3 Ge7 2.854858 1_665
Ge4 Ir0 2.527436 1_565
Ge4 Ir5 2.527437 1_555
Ge4 Ir2 2.527437 1_665
Ge4 Ge6 2.854857 1_554
Ge5 Ir3 2.527437 1_445
Ge5 Ir0 2.527437 1_456
Ge5 Ir4 2.527437 1_555
Ge5 Ge6 2.854858 1_445
Ge6 Ir5 2.527437 1_556
Ge6 Ir0 2.527437 1_566
Ge6 Ir3 2.527437 1_555
Ge6 Ge7 2.606870 1_566
Ge7 Ir4 2.527437 1_554
Ge7 Ir1 2.527437 1_544
Ge7 Ir2 2.527437 1_555
