# generated using pymatgen
data_Ta2CdMoS6
_symmetry_space_group_name_H-M   'P 1'
_cell_length_a   5.73459791
_cell_length_b   5.73459598
_cell_length_c   13.65080115
_cell_angle_alpha   90.00000000
_cell_angle_beta   90.00000000
_cell_angle_gamma   120.00000546
_symmetry_Int_Tables_number   1
_chemical_formula_structural   Ta2CdMoS6
_chemical_formula_sum   'Ta4 Cd2 Mo2 S12'
_cell_volume   388.77161288
_cell_formula_units_Z   2
loop_
 _symmetry_equiv_pos_site_id
 _symmetry_equiv_pos_as_xyz
  1  'x, y, z'
loop_
 _atom_site_type_symbol
 _atom_site_label
 _atom_site_symmetry_multiplicity
 _atom_site_fract_x
 _atom_site_fract_y
 _atom_site_fract_z
 _atom_site_occupancy
  Ta  Ta0  1  0.66666700  0.33333300  0.25000000  1
  Ta  Ta1  1  0.33333300  0.66666700  0.75000000  1
  Ta  Ta2  1  0.00000000  0.00000000  0.25000000  1
  Ta  Ta3  1  0.00000000  0.00000000  0.75000000  1
  Cd  Cd0  1  0.00000000  0.00000000  0.50000000  1
  Cd  Cd1  1  0.00000000  0.00000000  0.00000000  1
  Mo  Mo0  1  0.33333300  0.66666700  0.25000000  1
  Mo  Mo1  1  0.66666700  0.33333300  0.75000000  1
  S  S0  1  0.33773196  0.99706198  0.13646057  1
  S  S1  1  0.00293802  0.34066998  0.13646057  1
  S  S2  1  0.65933002  0.66226804  0.13646057  1
  S  S3  1  0.34066998  0.33773196  0.63646057  1
  S  S4  1  0.65933002  0.66226804  0.36353943  1
  S  S5  1  0.66226804  0.00293802  0.63646057  1
  S  S6  1  0.99706198  0.65933002  0.63646057  1
  S  S7  1  0.99706198  0.65933002  0.86353943  1
  S  S8  1  0.34066998  0.33773196  0.86353943  1
  S  S9  1  0.00293802  0.34066998  0.36353943  1
  S  S10  1  0.33773196  0.99706198  0.36353943  1
  S  S11  1  0.66226804  0.00293802  0.86353943  1
loop_
_geom_bond_atom_site_label_1
_geom_bond_atom_site_label_2
_geom_bond_distance
_geom_bond_site_symmetry_2
Cd0 S9 2.693316 1_555
Cd0 S6 2.693316 1_445
Cd0 S4 2.693316 1_445
Cd0 S3 2.693316 1_555
Cd0 S10 2.693316 1_545
Cd0 S5 2.693316 1_455
Cd1 S1 2.693316 1_555
Cd1 S7 2.693316 1_444
Cd1 S2 2.693316 1_445
Cd1 S8 2.693316 1_554
Cd1 S0 2.693316 1_545
Cd1 S11 2.693316 1_454
Mo0 S10 2.438209 1_555
Mo0 S0 2.438209 1_555
Mo0 S9 2.438211 1_555
Mo0 S1 2.438211 1_555
Mo0 S4 2.438214 1_555
Mo0 S2 2.438214 1_555
Mo1 S11 2.438209 1_555
Mo1 S5 2.438209 1_555
Mo1 S7 2.438211 1_555
Mo1 S6 2.438211 1_555
Mo1 S8 2.438214 1_555
Mo1 S3 2.438214 1_555
S0 Ta0 2.457945 1_565
S0 Ta2 2.487196 1_565
S1 Ta0 2.457943 1_455
S1 Ta2 2.487196 1_555
S2 Ta0 2.457947 1_555
S2 Ta2 2.487196 1_665
S3 Ta1 2.457947 1_555
S3 Ta3 2.487196 1_555
S4 Ta0 2.457947 1_555
S4 Ta2 2.487196 1_665
S5 Ta1 2.457945 1_545
S5 Ta3 2.487196 1_655
S6 Ta1 2.457943 1_655
S6 Ta3 2.487196 1_665
S7 Ta1 2.457943 1_655
S7 Ta3 2.487196 1_665
S8 Ta1 2.457947 1_555
S8 Ta3 2.487196 1_555
S9 Ta0 2.457943 1_455
S9 Ta2 2.487196 1_555
S10 Ta0 2.457945 1_565
S10 Ta2 2.487196 1_565
S11 Ta1 2.457945 1_545
S11 Ta3 2.487196 1_655
