# generated using pymatgen
data_Sr5Ca(Sn4Sb)2
_symmetry_space_group_name_H-M   'P 1'
_cell_length_a   8.93651269
_cell_length_b   8.93651193
_cell_length_c   8.93651210
_cell_angle_alpha   119.97055062
_cell_angle_beta   119.97054596
_cell_angle_gamma   90.05101974
_symmetry_Int_Tables_number   1
_chemical_formula_structural   Sr5Ca(Sn4Sb)2
_chemical_formula_sum   'Sr5 Ca1 Sn8 Sb2'
_cell_volume   504.87314033
_cell_formula_units_Z   1
loop_
 _symmetry_equiv_pos_site_id
 _symmetry_equiv_pos_as_xyz
  1  'x, y, z'
loop_
 _atom_site_type_symbol
 _atom_site_label
 _atom_site_symmetry_multiplicity
 _atom_site_fract_x
 _atom_site_fract_y
 _atom_site_fract_z
 _atom_site_occupancy
  Sr  Sr0  1  0.75000000  0.75000000  0.00000000  1
  Sr  Sr1  1  0.16460925  0.66460925  0.82921951  1
  Sr  Sr2  1  0.83539075  0.33539075  0.17078049  1
  Sr  Sr3  1  0.66460925  0.83539075  0.50000000  1
  Sr  Sr4  1  0.33539075  0.16460925  0.50000000  1
  Ca  Ca0  1  0.25000000  0.25000000  0.00000000  1
  Sn  Sn0  1  0.83839641  0.33479384  0.78891101  1
  Sn  Sn1  1  0.16520616  0.66160359  0.21108899  1
  Sn  Sn2  1  0.54588483  0.04948539  0.21108899  1
  Sn  Sn3  1  0.33479384  0.54588483  0.49639844  1
  Sn  Sn4  1  0.95411517  0.16520616  0.50360156  1
  Sn  Sn5  1  0.45051461  0.95411517  0.78891101  1
  Sn  Sn6  1  0.66160359  0.45051461  0.49639844  1
  Sn  Sn7  1  0.04948539  0.83839641  0.50360156  1
  Sb  Sb0  1  0.00628643  0.00628643  1.00000000  1
  Sb  Sb1  1  0.49371357  0.49371357  0.00000000  1
loop_
_geom_bond_atom_site_label_1
_geom_bond_atom_site_label_2
_geom_bond_distance
_geom_bond_site_symmetry_2
Ca0 Sb1 3.078714 1_555
Ca0 Sb0 3.078714 1_554
Ca0 Sn1 3.487573 1_555
Ca0 Sn0 3.487573 1_454
Ca0 Sn7 3.487577 1_544
Ca0 Sn6 3.487578 1_555
Ca0 Sn5 3.487582 1_544
Ca0 Sn2 3.487582 1_555
Ca0 Sn3 3.487582 1_555
Ca0 Sn4 3.487582 1_454
Sn0 Sn4 2.939985 1_555
Sn0 Sn6 2.996046 1_555
Sn0 Sn1 3.043079 1_656
Sn0 Sr2 3.423427 1_556
Sn0 Sr0 3.528615 1_556
Sn0 Sr3 3.669432 1_545
Sn0 Sr4 3.695178 1_555
Sn0 Sr1 3.897449 1_655
Sn1 Sn3 2.939985 1_555
Sn1 Sn7 2.996046 1_555
Sn1 Sr1 3.423427 1_554
Sn1 Sr0 3.528616 1_455
Sn1 Sr3 3.669432 1_555
Sn1 Sr4 3.695177 1_565
Sn1 Sr2 3.897449 1_455
Sn2 Sn6 2.939994 1_555
Sn2 Sn4 2.996025 1_555
Sn2 Sn5 3.043067 1_544
Sn2 Sr1 3.423445 1_544
Sn2 Sr0 3.528601 1_545
Sn2 Sr4 3.669447 1_555
Sn2 Sr3 3.695178 1_545
Sn2 Sr2 3.897449 1_555
Sn3 Sn5 2.996024 1_555
Sn3 Sn6 3.043084 1_555
Sn3 Sr4 3.423449 1_555
Sn3 Sr0 3.528613 1_556
Sn3 Sr2 3.669433 1_455
Sn3 Sr1 3.695179 1_555
Sn3 Sr3 3.897449 1_555
Sn4 Sn7 3.043084 1_645
Sn4 Sr4 3.423450 1_655
Sn4 Sr0 3.528613 1_545
Sn4 Sr1 3.669433 1_655
Sn4 Sr2 3.695179 1_555
Sn4 Sr3 3.897449 1_545
Sn5 Sn7 2.939995 1_555
Sn5 Sr2 3.423445 1_566
Sn5 Sr0 3.528602 1_556
Sn5 Sr4 3.669447 1_565
Sn5 Sr3 3.695178 1_555
Sn5 Sr1 3.897449 1_555
Sn6 Sr3 3.423441 1_555
Sn6 Sr0 3.528608 1_556
Sn6 Sr2 3.669447 1_555
Sn6 Sr1 3.695177 1_655
Sn6 Sr4 3.897448 1_555
Sn7 Sr3 3.423441 1_455
Sn7 Sr0 3.528608 1_455
Sn7 Sr1 3.669447 1_555
Sn7 Sr2 3.695177 1_455
Sn7 Sr4 3.897448 1_565
Sb0 Sr0 3.237541 1_446
Sb0 Sr2 3.341183 1_456
Sb0 Sr1 3.341183 1_545
Sb0 Sr4 3.341185 1_556
Sb0 Sr3 3.341185 1_445
Sb1 Sr0 3.237541 1_555
Sb1 Sr1 3.341183 1_554
Sb1 Sr2 3.341183 1_555
Sb1 Sr3 3.341185 1_555
Sb1 Sr4 3.341185 1_554
