# generated using pymatgen
data_Na3LiIn2
_symmetry_space_group_name_H-M   'P 1'
_cell_length_a   9.74787206
_cell_length_b   9.74787328
_cell_length_c   9.74787276
_cell_angle_alpha   60.00000509
_cell_angle_beta   60.00000094
_cell_angle_gamma   60.00000478
_symmetry_Int_Tables_number   1
_chemical_formula_structural   Na3LiIn2
_chemical_formula_sum   'Na12 Li4 In8'
_cell_volume   654.95970923
_cell_formula_units_Z   4
loop_
 _symmetry_equiv_pos_site_id
 _symmetry_equiv_pos_as_xyz
  1  'x, y, z'
loop_
 _atom_site_type_symbol
 _atom_site_label
 _atom_site_symmetry_multiplicity
 _atom_site_fract_x
 _atom_site_fract_y
 _atom_site_fract_z
 _atom_site_occupancy
  Na  Na0  1  0.45246566  0.04753434  0.04753434  1
  Na  Na1  1  0.79753434  0.20246566  0.79753434  1
  Na  Na2  1  0.45246566  0.45246566  0.04753434  1
  Na  Na3  1  0.79753434  0.79753434  0.20246566  1
  Na  Na4  1  0.20246566  0.79753434  0.79753434  1
  Na  Na5  1  0.04753434  0.45246566  0.45246566  1
  Na  Na6  1  0.04753434  0.04753434  0.45246566  1
  Na  Na7  1  0.20246566  0.20246566  0.79753434  1
  Na  Na8  1  0.45246566  0.04753434  0.45246566  1
  Na  Na9  1  0.79753434  0.20246566  0.20246566  1
  Na  Na10  1  0.04753434  0.45246566  0.04753434  1
  Na  Na11  1  0.20246566  0.79753434  0.20246566  1
  Li  Li0  1  0.62500000  0.62500000  0.12500000  1
  Li  Li1  1  0.62500000  0.12500000  0.62500000  1
  Li  Li2  1  0.12500000  0.62500000  0.62500000  1
  Li  Li3  1  0.62500000  0.62500000  0.62500000  1
  In  In0  1  0.41971089  0.41971089  0.41971089  1
  In  In1  1  0.74086632  0.41971089  0.41971089  1
  In  In2  1  0.83028911  0.83028911  0.83028911  1
  In  In3  1  0.41971089  0.41971089  0.74086632  1
  In  In4  1  0.83028911  0.83028911  0.50913368  1
  In  In5  1  0.41971089  0.74086632  0.41971089  1
  In  In6  1  0.83028911  0.50913368  0.83028911  1
  In  In7  1  0.50913368  0.83028911  0.83028911  1
loop_
_geom_bond_atom_site_label_1
_geom_bond_atom_site_label_2
_geom_bond_distance
_geom_bond_site_symmetry_2
In0 Li2 2.961228 1_555
In0 Li0 2.961228 1_555
In0 Li1 2.961228 1_555
In0 Na5 3.339310 1_555
In0 Na2 3.339310 1_555
In0 Na8 3.339310 1_555
In0 Na9 3.379242 1_555
In0 Na7 3.379243 1_555
In0 Na11 3.379243 1_555
In1 Li0 2.961223 1_555
In1 Li1 2.961223 1_555
In1 Li3 2.961231 1_555
In1 Na10 3.339314 1_655
In1 Na6 3.339314 1_655
In1 Na5 3.339320 1_655
In1 Na9 3.379238 1_555
In1 Na1 3.379247 1_555
In1 Na3 3.379247 1_555
In2 Li2 2.961228 1_655
In2 Li0 2.961228 1_556
In2 Li1 2.961228 1_565
In2 Na4 3.339310 1_655
In2 Na3 3.339310 1_556
In2 Na1 3.339310 1_565
In2 Na0 3.379242 1_566
In2 Na6 3.379243 1_665
In2 Na10 3.379243 1_656
In3 Li2 2.961223 1_555
In3 Li1 2.961223 1_555
In3 Li3 2.961231 1_555
In3 Na10 3.339314 1_556
In3 Na0 3.339314 1_556
In3 Na2 3.339320 1_556
In3 Na7 3.379238 1_555
In3 Na1 3.379246 1_555
In3 Na4 3.379247 1_555
In4 Li2 2.961223 1_655
In4 Li1 2.961223 1_565
In4 Li3 2.961231 1_555
In4 Na11 3.339314 1_655
In4 Na9 3.339314 1_565
In4 Na3 3.339320 1_555
In4 Na6 3.379238 1_665
In4 Na8 3.379246 1_565
In4 Na5 3.379247 1_655
In5 Li2 2.961223 1_555
In5 Li0 2.961223 1_555
In5 Li3 2.961231 1_555
In5 Na6 3.339314 1_565
In5 Na0 3.339314 1_565
In5 Na8 3.339320 1_565
In5 Na11 3.379238 1_555
In5 Na3 3.379246 1_555
In5 Na4 3.379246 1_555
In6 Li2 2.961223 1_655
In6 Li0 2.961223 1_556
In6 Li3 2.961231 1_555
In6 Na7 3.339314 1_655
In6 Na9 3.339314 1_556
In6 Na1 3.339320 1_555
In6 Na10 3.379238 1_656
In6 Na2 3.379246 1_556
In6 Na5 3.379246 1_655
In7 Li0 2.961223 1_556
In7 Li1 2.961223 1_565
In7 Li3 2.961231 1_555
In7 Na11 3.339314 1_556
In7 Na7 3.339314 1_565
In7 Na4 3.339320 1_555
In7 Na0 3.379238 1_566
In7 Na8 3.379247 1_565
In7 Na2 3.379247 1_556
