# generated using pymatgen
data_Ti5Ga4
_symmetry_space_group_name_H-M   'P 1'
_cell_length_a   7.83408465
_cell_length_b   7.83408449
_cell_length_c   5.41989970
_cell_angle_alpha   90.00000000
_cell_angle_beta   90.00000000
_cell_angle_gamma   120.00000493
_symmetry_Int_Tables_number   1
_chemical_formula_structural   Ti5Ga4
_chemical_formula_sum   'Ti10 Ga8'
_cell_volume   288.07022442
_cell_formula_units_Z   2
loop_
 _symmetry_equiv_pos_site_id
 _symmetry_equiv_pos_as_xyz
  1  'x, y, z'
loop_
 _atom_site_type_symbol
 _atom_site_label
 _atom_site_symmetry_multiplicity
 _atom_site_fract_x
 _atom_site_fract_y
 _atom_site_fract_z
 _atom_site_occupancy
  Ti  Ti0  1  0.33333300  0.66666700  0.00000000  1
  Ti  Ti1  1  0.66666700  0.33333300  0.50000000  1
  Ti  Ti2  1  0.66666700  0.33333300  0.00000000  1
  Ti  Ti3  1  0.33333300  0.66666700  0.50000000  1
  Ti  Ti4  1  0.28044907  0.00000000  0.25000200  1
  Ti  Ti5  1  0.28044907  0.28044907  0.74999800  1
  Ti  Ti6  1  -0.00000000  0.71955093  0.74999800  1
  Ti  Ti7  1  0.00000000  0.28044907  0.25000200  1
  Ti  Ti8  1  0.71955093  0.71955093  0.25000200  1
  Ti  Ti9  1  0.71955093  -0.00000000  0.74999800  1
  Ga  Ga0  1  0.00000000  -0.00000000  0.00000000  1
  Ga  Ga1  1  0.00000000  -0.00000000  0.50000000  1
  Ga  Ga2  1  0.61968799  -0.00000000  0.25000100  1
  Ga  Ga3  1  0.61968799  0.61968799  0.74999900  1
  Ga  Ga4  1  0.00000000  0.38031201  0.74999900  1
  Ga  Ga5  1  -0.00000000  0.61968799  0.25000100  1
  Ga  Ga6  1  0.38031201  0.38031201  0.25000100  1
  Ga  Ga7  1  0.38031201  0.00000000  0.74999900  1
loop_
_geom_bond_atom_site_label_1
_geom_bond_atom_site_label_2
_geom_bond_distance
_geom_bond_site_symmetry_2
Ti0 Ti3 2.709950 1_555
Ti0 Ti3 2.709950 1_554
Ti1 Ti2 2.709950 1_555
Ti1 Ti2 2.709950 1_556
Ga0 Ti8 2.581292 1_445
Ga0 Ti5 2.581292 1_554
Ga0 Ti7 2.581292 1_555
Ga0 Ti6 2.581292 1_544
Ga0 Ti4 2.581292 1_555
Ga0 Ti9 2.581292 1_454
Ga1 Ti5 2.581280 1_555
Ga1 Ti8 2.581280 1_445
Ga1 Ti6 2.581280 1_545
Ga1 Ti7 2.581280 1_555
Ga1 Ti9 2.581280 1_455
Ga1 Ti4 2.581280 1_555
Ga2 Ti4 2.657626 1_555
Ga2 Ti7 2.675437 1_655
Ga2 Ti8 2.675437 1_545
Ga2 Ti1 2.798126 1_555
Ga2 Ti3 2.798129 1_545
Ga2 Ti2 2.798132 1_555
Ga2 Ti0 2.798134 1_545
Ga2 Ti9 2.820601 1_555
Ga2 Ti9 2.820632 1_554
Ga3 Ti5 2.657626 1_555
Ga3 Ti9 2.675437 1_565
Ga3 Ti6 2.675437 1_655
Ga3 Ti1 2.798133 1_555
Ga3 Ti3 2.798133 1_555
Ga3 Ti2 2.798138 1_556
Ga3 Ti0 2.798138 1_556
Ga3 Ti8 2.820601 1_555
Ga3 Ti8 2.820632 1_556
Ga4 Ti6 2.657626 1_555
Ga4 Ti9 2.675437 1_455
Ga4 Ti5 2.675438 1_555
Ga4 Ti1 2.798126 1_455
Ga4 Ti3 2.798129 1_555
Ga4 Ti2 2.798132 1_456
Ga4 Ti0 2.798134 1_556
Ga4 Ti7 2.820601 1_555
Ga4 Ti7 2.820632 1_556
Ga5 Ti7 2.657626 1_555
Ga5 Ti4 2.675437 1_565
Ga5 Ti8 2.675438 1_455
Ga5 Ti3 2.798126 1_555
Ga5 Ti1 2.798129 1_455
Ga5 Ti0 2.798132 1_555
Ga5 Ti2 2.798134 1_455
Ga5 Ti6 2.820601 1_555
Ga5 Ti6 2.820632 1_554
Ga6 Ti8 2.657626 1_555
Ga6 Ti4 2.675437 1_555
Ga6 Ti7 2.675437 1_555
Ga6 Ti3 2.798133 1_555
Ga6 Ti1 2.798133 1_555
Ga6 Ti0 2.798138 1_555
Ga6 Ti2 2.798138 1_555
Ga6 Ti5 2.820601 1_555
Ga6 Ti5 2.820632 1_554
Ga7 Ti9 2.657626 1_555
Ga7 Ti6 2.675437 1_545
Ga7 Ti5 2.675437 1_555
Ga7 Ti3 2.798126 1_545
Ga7 Ti1 2.798129 1_555
Ga7 Ti0 2.798132 1_546
Ga7 Ti2 2.798134 1_556
Ga7 Ti4 2.820601 1_555
Ga7 Ti4 2.820632 1_556
