# generated using pymatgen
data_GePt(SeO3)4
_symmetry_space_group_name_H-M   'P 1'
_cell_length_a   6.89289584
_cell_length_b   5.11738448
_cell_length_c   8.90671440
_cell_angle_alpha   55.98476486
_cell_angle_beta   89.25916582
_cell_angle_gamma   89.32233583
_symmetry_Int_Tables_number   1
_chemical_formula_structural   GePt(SeO3)4
_chemical_formula_sum   'Ge1 Pt1 Se4 O12'
_cell_volume   260.38778769
_cell_formula_units_Z   1
loop_
 _symmetry_equiv_pos_site_id
 _symmetry_equiv_pos_as_xyz
  1  'x, y, z'
loop_
 _atom_site_type_symbol
 _atom_site_label
 _atom_site_symmetry_multiplicity
 _atom_site_fract_x
 _atom_site_fract_y
 _atom_site_fract_z
 _atom_site_occupancy
  Ge  Ge0  1  0.50000000  0.00000000  0.50000000  1
  Pt  Pt0  1  0.00000000  0.00000000  0.00000000  1
  Se  Se0  1  0.82177335  0.31849062  0.19959206  1
  Se  Se1  1  0.67450758  0.31391388  0.69805141  1
  Se  Se2  1  0.17822665  0.68150938  0.80040794  1
  Se  Se3  1  0.32549242  0.68608612  0.30194859  1
  O  O0  1  0.83197073  0.31929830  0.00379373  1
  O  O1  1  0.65939529  0.28417157  0.51406927  1
  O  O2  1  0.16802927  0.68070170  0.99620627  1
  O  O3  1  0.34060471  0.71582843  0.48593073  1
  O  O4  1  0.58581260  0.19317400  0.25822181  1
  O  O5  1  0.91552484  0.20011506  0.74282149  1
  O  O6  1  0.41418740  0.80682600  0.74177819  1
  O  O7  1  0.08447516  0.79988494  0.25717851  1
  O  O8  1  0.76813637  0.71445168  0.09131107  1
  O  O9  1  0.71287944  0.71299780  0.58121881  1
  O  O10  1  0.23186363  0.28554832  0.90868893  1
  O  O11  1  0.28712056  0.28700220  0.41878119  1
loop_
_geom_bond_atom_site_label_1
_geom_bond_atom_site_label_2
_geom_bond_distance
_geom_bond_site_symmetry_2
Ge0 O6 1.887747 1_545
Ge0 O4 1.887747 1_555
Ge0 O1 1.892832 1_555
Ge0 O3 1.892832 1_545
Ge0 O9 1.902968 1_545
Ge0 O11 1.902968 1_555
O0 Se0 1.742121 1_555
O0 Pt0 2.007099 1_655
O1 Se1 1.732949 1_555
O2 Se2 1.742121 1_555
O2 Pt0 2.007099 1_566
O3 Se3 1.732949 1_555
O4 Se0 1.719689 1_555
O5 Se1 1.729889 1_555
O5 Pt0 2.007632 1_656
O6 Se2 1.719689 1_555
O7 Se3 1.729889 1_555
O7 Pt0 2.007632 1_565
O8 Se0 1.725608 1_555
O8 Pt0 2.010719 1_665
O9 Se1 1.718024 1_555
O10 Se2 1.725608 1_555
O10 Pt0 2.010719 1_556
O11 Se3 1.718024 1_555
