# generated using pymatgen
data_KMn2(Sb6Os)2
_symmetry_space_group_name_H-M   'P 1'
_cell_length_a   8.22979729
_cell_length_b   8.18224460
_cell_length_c   8.18206940
_cell_angle_alpha   109.55591326
_cell_angle_beta   109.32963123
_cell_angle_gamma   109.29285254
_symmetry_Int_Tables_number   1
_chemical_formula_structural   KMn2(Sb6Os)2
_chemical_formula_sum   'K1 Mn2 Sb12 Os2'
_cell_volume   425.35881534
_cell_formula_units_Z   1
loop_
 _symmetry_equiv_pos_site_id
 _symmetry_equiv_pos_as_xyz
  1  'x, y, z'
loop_
 _atom_site_type_symbol
 _atom_site_label
 _atom_site_symmetry_multiplicity
 _atom_site_fract_x
 _atom_site_fract_y
 _atom_site_fract_z
 _atom_site_occupancy
  K  K0  1  0.00000000  0.00000000  0.00000000  1
  Mn  Mn0  1  0.00000000  0.00000000  0.50000000  1
  Mn  Mn1  1  0.00000000  0.50000000  0.00000000  1
  Sb  Sb0  1  0.34713515  0.18769497  0.84997782  1
  Sb  Sb1  1  0.65286485  0.81230503  0.15002218  1
  Sb  Sb2  1  0.65286995  0.50283625  0.84056618  1
  Sb  Sb3  1  0.34713005  0.49716375  0.15943382  1
  Sb  Sb4  1  0.19783752  0.84820716  0.34962625  1
  Sb  Sb5  1  0.80216248  0.15179284  0.65037375  1
  Sb  Sb6  1  0.50761089  0.84365599  0.66393584  1
  Sb  Sb7  1  0.49238911  0.15634401  0.33606416  1
  Sb  Sb8  1  0.83933391  0.33678514  0.18777037  1
  Sb  Sb9  1  0.16066609  0.66321486  0.81222963  1
  Sb  Sb10  1  0.83935288  0.65157555  0.50257919  1
  Sb  Sb11  1  0.16064712  0.34842445  0.49742081  1
  Os  Os0  1  0.50000000  0.00000000  0.00000000  1
  Os  Os1  1  0.50000000  0.50000000  0.50000000  1
loop_
_geom_bond_atom_site_label_1
_geom_bond_atom_site_label_2
_geom_bond_distance
_geom_bond_site_symmetry_2
K0 Sb7 3.530083 1_555
K0 Sb6 3.530083 1_444
K0 Sb11 3.552391 1_555
K0 Sb10 3.552391 1_444
K0 Sb8 3.552558 1_455
K0 Sb9 3.552558 1_544
K0 Sb1 3.565280 1_445
K0 Sb0 3.565280 1_554
K0 Sb3 3.565411 1_555
K0 Sb2 3.565411 1_444
K0 Sb4 3.606705 1_545
K0 Sb5 3.606705 1_454
Mn0 Sb5 2.710479 1_455
Mn0 Sb4 2.710479 1_545
Mn0 Sb11 2.728386 1_555
Mn0 Sb10 2.728386 1_445
Mn0 Sb0 2.731502 1_555
Mn0 Sb1 2.731502 1_445
Mn1 Sb4 2.710502 1_555
Mn1 Sb5 2.710502 1_454
Mn1 Sb9 2.728316 1_554
Mn1 Sb8 2.728316 1_455
Mn1 Sb3 2.731409 1_555
Mn1 Sb2 2.731409 1_454
Sb0 Sb3 2.920750 1_556
Sb0 Sb2 2.993296 1_555
Sb1 Sb2 2.920750 1_554
Sb1 Sb3 2.993296 1_555
Sb4 Sb7 2.927804 1_565
Sb4 Sb6 2.983443 1_555
Sb5 Sb6 2.927804 1_545
Sb5 Sb7 2.983443 1_555
Sb10 Sb9 2.942364 1_655
Sb10 Sb8 2.971009 1_555
Sb11 Sb8 2.942364 1_455
Sb11 Sb9 2.971009 1_555
Os0 Sb0 2.639017 1_554
Os0 Sb1 2.639017 1_545
Os0 Sb8 2.644459 1_555
Os0 Sb9 2.644459 1_544
Os0 Sb7 2.648278 1_555
Os0 Sb6 2.648278 1_544
Os1 Sb2 2.639077 1_555
Os1 Sb3 2.639077 1_555
Os1 Sb10 2.644435 1_555
Os1 Sb11 2.644435 1_555
Os1 Sb6 2.648169 1_555
Os1 Sb7 2.648169 1_555
