# generated using pymatgen
data_Sr4Ti(TcO4)3
_symmetry_space_group_name_H-M   'P 1'
_cell_length_a   5.57192445
_cell_length_b   5.60207400
_cell_length_c   7.87368057
_cell_angle_alpha   90.00952489
_cell_angle_beta   89.97724919
_cell_angle_gamma   90.01280512
_symmetry_Int_Tables_number   1
_chemical_formula_structural   Sr4Ti(TcO4)3
_chemical_formula_sum   'Sr4 Ti1 Tc3 O12'
_cell_volume   245.77165890
_cell_formula_units_Z   1
loop_
 _symmetry_equiv_pos_site_id
 _symmetry_equiv_pos_as_xyz
  1  'x, y, z'
loop_
 _atom_site_type_symbol
 _atom_site_label
 _atom_site_symmetry_multiplicity
 _atom_site_fract_x
 _atom_site_fract_y
 _atom_site_fract_z
 _atom_site_occupancy
  Sr  Sr0  1  0.49403427  0.00139202  0.74780146  1
  Sr  Sr1  1  0.99366251  0.49855881  0.74790430  1
  Sr  Sr2  1  0.50596573  0.99860798  0.25219854  1
  Sr  Sr3  1  0.00633749  0.50144119  0.25209570  1
  Ti  Ti0  1  0.50000000  0.50000000  0.50000000  1
  Tc  Tc0  1  0.00000000  0.00000000  0.00000000  1
  Tc  Tc1  1  0.50000000  0.50000000  0.00000000  1
  Tc  Tc2  1  0.00000000  0.00000000  0.50000000  1
  O  O0  1  0.00097839  0.95947081  0.74977635  1
  O  O1  1  0.50194861  0.54116097  0.74644751  1
  O  O2  1  0.99902161  0.04052919  0.25022365  1
  O  O3  1  0.49805139  0.45883903  0.25355249  1
  O  O4  1  0.73796523  0.24342796  0.52054470  1
  O  O5  1  0.23921302  0.26078479  0.97834723  1
  O  O6  1  0.26075729  0.76062364  0.02139871  1
  O  O7  1  0.75703244  0.73766968  0.47908294  1
  O  O8  1  0.26203477  0.75657204  0.47945530  1
  O  O9  1  0.76078698  0.73921521  0.02165277  1
  O  O10  1  0.73924271  0.23937636  0.97860129  1
  O  O11  1  0.24296756  0.26233032  0.52091706  1
loop_
_geom_bond_atom_site_label_1
_geom_bond_atom_site_label_2
_geom_bond_distance
_geom_bond_site_symmetry_2
O0 Tc2 1.979769 1_565
O0 Tc0 1.983189 1_566
O0 Sr1 2.582415 1_455
O0 Sr0 2.757275 1_565
O0 Sr0 2.834502 1_465
O0 Sr1 3.020334 1_465
O1 Ti0 1.954098 1_555
O1 Tc1 2.009727 1_556
O1 Sr0 2.578656 1_565
O1 Sr1 2.750250 1_555
O1 Sr1 2.842135 1_455
O1 Sr0 3.024158 1_555
O2 Tc2 1.979769 1_655
O2 Tc0 1.983189 1_655
O2 Sr3 2.582415 1_655
O2 Sr2 2.757275 1_545
O2 Sr2 2.834502 1_645
O2 Sr3 3.020334 1_645
O3 Ti0 1.954098 1_555
O3 Tc1 2.009727 1_555
O3 Sr2 2.578656 1_545
O3 Sr3 2.750250 1_555
O3 Sr3 2.842135 1_655
O3 Sr2 3.024158 1_555
O4 Ti0 1.962467 1_555
O4 Tc2 2.004542 1_655
O4 Sr0 2.624046 1_555
O4 Sr1 2.697695 1_555
O4 Sr2 2.831375 1_545
O4 Sr3 2.964872 1_655
O5 Tc1 1.983846 1_556
O5 Tc0 1.984689 1_556
O5 Sr1 2.634767 1_455
O5 Sr0 2.724092 1_555
O5 Sr3 2.853880 1_556
O5 Sr2 3.003364 1_546
O6 Tc1 1.984363 1_555
O6 Tc0 1.984640 1_565
O6 Sr2 2.635696 1_555
O6 Sr3 2.723076 1_555
O6 Sr0 2.854359 1_564
O6 Sr1 3.001308 1_454
O7 Ti0 1.962141 1_555
O7 Tc2 2.004695 1_665
O7 Sr3 2.621673 1_655
O7 Sr2 2.699793 1_555
O7 Sr1 2.831379 1_555
O7 Sr0 2.967186 1_565
O8 Ti0 1.962467 1_555
O8 Tc2 2.004542 1_565
O8 Sr2 2.624046 1_555
O8 Sr3 2.697695 1_555
O8 Sr0 2.831375 1_565
O8 Sr1 2.964872 1_455
O9 Tc1 1.983846 1_555
O9 Tc0 1.984689 1_665
O9 Sr3 2.634767 1_655
O9 Sr2 2.724092 1_555
O9 Sr1 2.853880 1_554
O9 Sr0 3.003364 1_564
O10 Tc1 1.984363 1_556
O10 Tc0 1.984640 1_656
O10 Sr0 2.635696 1_555
O10 Sr1 2.723076 1_555
O10 Sr2 2.854359 1_546
O10 Sr3 3.001308 1_656
O11 Ti0 1.962141 1_555
O11 Tc2 2.004695 1_555
O11 Sr1 2.621673 1_455
O11 Sr0 2.699793 1_555
O11 Sr3 2.831379 1_555
O11 Sr2 2.967186 1_545
