# generated using pymatgen
data_Sc5Al16SnIr7
_symmetry_space_group_name_H-M   'P 1'
_cell_length_a   8.67615138
_cell_length_b   8.74108424
_cell_length_c   8.74108499
_cell_angle_alpha   59.50914922
_cell_angle_beta   60.24542949
_cell_angle_gamma   60.24543257
_symmetry_Int_Tables_number   1
_chemical_formula_structural   Sc5Al16SnIr7
_chemical_formula_sum   'Sc5 Al16 Sn1 Ir7'
_cell_volume   468.70029689
_cell_formula_units_Z   1
loop_
 _symmetry_equiv_pos_site_id
 _symmetry_equiv_pos_as_xyz
  1  'x, y, z'
loop_
 _atom_site_type_symbol
 _atom_site_label
 _atom_site_symmetry_multiplicity
 _atom_site_fract_x
 _atom_site_fract_y
 _atom_site_fract_z
 _atom_site_occupancy
  Sc  Sc0  1  0.79085684  0.20914316  0.20914316  1
  Sc  Sc1  1  0.77365385  0.22634615  0.76690215  1
  Sc  Sc2  1  0.77365385  0.76690215  0.22634615  1
  Sc  Sc3  1  0.23309785  0.76690215  0.22634615  1
  Sc  Sc4  1  0.23309785  0.22634615  0.76690215  1
  Al  Al0  1  0.87292818  0.83651704  0.83651704  1
  Al  Al1  1  0.84971449  0.82342953  0.47714249  1
  Al  Al2  1  0.45403873  0.83651704  0.83651704  1
  Al  Al3  1  0.84971449  0.47714249  0.82342953  1
  Al  Al4  1  0.17657047  0.15028551  0.15028551  1
  Al  Al5  1  0.16348296  0.12707182  0.54596127  1
  Al  Al6  1  0.16348296  0.54596127  0.12707182  1
  Al  Al7  1  0.52285751  0.15028551  0.15028551  1
  Al  Al8  1  0.60631687  0.62403145  0.62403145  1
  Al  Al9  1  0.63292821  0.61721873  0.11692386  1
  Al  Al10  1  0.14562023  0.62403145  0.62403145  1
  Al  Al11  1  0.63292821  0.11692386  0.61721873  1
  Al  Al12  1  0.38278127  0.36707179  0.36707179  1
  Al  Al13  1  0.37596855  0.39368313  0.85437977  1
  Al  Al14  1  0.37596855  0.85437977  0.39368313  1
  Al  Al15  1  0.88307614  0.36707179  0.36707179  1
  Sn  Sn0  1  0.03249817  0.96750183  0.96750183  1
  Ir  Ir0  1  0.51179444  0.48820556  0.48820556  1
  Ir  Ir1  1  0.01088961  0.48911039  0.48911039  1
  Ir  Ir2  1  0.51088961  0.98911039  0.98911039  1
  Ir  Ir3  1  0.51554224  0.99494870  0.48445776  1
  Ir  Ir4  1  0.51554224  0.48445776  0.99494870  1
  Ir  Ir5  1  0.00505130  0.48445776  0.99494870  1
  Ir  Ir6  1  0.00505130  0.99494870  0.48445776  1
loop_
_geom_bond_atom_site_label_1
_geom_bond_atom_site_label_2
_geom_bond_distance
_geom_bond_site_symmetry_2
Sc0 Sn0 3.009138 1_644
Sc1 Sn0 2.841908 1_645
Sc2 Sn0 2.841908 1_654
Sc3 Sn0 2.841908 1_554
Sc4 Sn0 2.841908 1_545
Al0 Ir5 2.539996 1_655
Al0 Ir6 2.539996 1_655
Al0 Ir2 2.629262 1_555
Al0 Al10 2.697131 1_655
Al0 Sc1 2.868146 1_565
Al0 Sc2 2.868147 1_556
Al0 Sn0 3.002590 1_655
Al1 Ir6 2.501331 1_655
Al1 Ir3 2.501338 1_555
Al1 Ir1 2.507018 1_655
Al1 Al10 2.799461 1_655
Al1 Al8 2.799468 1_555
Al1 Sc3 2.888650 1_655
Al1 Sc2 2.888657 1_555
Al1 Sc0 2.929042 1_565
Al2 Ir4 2.539997 1_555
Al2 Ir3 2.539997 1_555
Al2 Ir2 2.629256 1_555
Al2 Al8 2.697133 1_555
Al2 Sc4 2.868148 1_565
Al2 Sc3 2.868148 1_556
Al2 Sn0 3.002597 1_555
Al3 Ir5 2.501331 1_655
Al3 Ir4 2.501338 1_555
Al3 Ir1 2.507018 1_655
Al3 Al8 2.799468 1_555
Al3 Sc4 2.888650 1_655
Al3 Sc1 2.888656 1_555
Al3 Sc0 2.929042 1_556
Al4 Ir5 2.501336 1_554
Al4 Ir6 2.501336 1_545
Al4 Ir2 2.507015 1_544
Al4 Sc3 2.888648 1_545
Al4 Sc4 2.888648 1_554
Al4 Sc0 2.929039 1_455
Al5 Ir6 2.539990 1_545
Al5 Ir3 2.539997 1_545
Al5 Ir1 2.629263 1_555
Al5 Sc1 2.868148 1_455
Al5 Sc4 2.868154 1_555
Al5 Sn0 3.002598 1_545
Al6 Ir5 2.539990 1_554
Al6 Ir4 2.539997 1_554
Al6 Ir1 2.629263 1_555
Al6 Sc2 2.868148 1_455
Al6 Sc3 2.868154 1_555
Al6 Sn0 3.002597 1_554
Al7 Ir4 2.501339 1_554
Al7 Ir3 2.501339 1_545
Al7 Ir2 2.507010 1_544
Al7 Sc2 2.888651 1_545
Al7 Sc1 2.888651 1_554
Al7 Sc0 2.929048 1_555
Al8 Ir0 2.618220 1_555
Al8 Ir3 2.650620 1_555
Al8 Ir4 2.650620 1_555
Al8 Sc1 2.852401 1_555
Al8 Sc2 2.852401 1_555
Al8 Ir1 2.880344 1_655
Al9 Ir0 2.643061 1_555
Al9 Ir2 2.647413 1_554
Al9 Ir4 2.650898 1_554
Al9 Ir5 2.650905 1_654
Al9 Sc3 2.851693 1_555
Al9 Sc2 2.851700 1_555
Al9 Sc0 2.928831 1_555
Al10 Ir0 2.618220 1_555
Al10 Ir6 2.650620 1_555
Al10 Ir5 2.650620 1_555
Al10 Al3 2.799460 1_455
Al10 Al14 2.826358 1_555
Al10 Al13 2.826358 1_555
Al10 Sc4 2.852401 1_555
Al10 Sc3 2.852401 1_555
Al10 Ir1 2.880344 1_555
Al11 Ir0 2.643061 1_555
Al11 Ir2 2.647413 1_545
Al11 Ir3 2.650898 1_545
Al11 Ir6 2.650905 1_645
Al11 Sc4 2.851693 1_555
Al11 Sc1 2.851700 1_555
Al11 Sc0 2.928831 1_555
Al12 Ir0 2.643054 1_555
Al12 Ir1 2.647413 1_555
Al12 Ir3 2.650906 1_545
Al12 Ir4 2.650906 1_554
Al12 Sc3 2.851693 1_555
Al12 Sc4 2.851694 1_555
Al12 Sc0 2.928831 1_555
Al13 Ir0 2.618221 1_555
Al13 Ir4 2.650619 1_555
Al13 Ir5 2.650619 1_555
Al13 Al6 2.697126 1_556
Al13 Al7 2.799461 1_556
Al13 Al4 2.799466 1_556
Al13 Al8 2.826358 1_555
Al13 Sc4 2.852401 1_555
Al13 Sc1 2.852401 1_555
Al13 Ir2 2.880344 1_545
Al14 Ir0 2.618220 1_555
Al14 Ir3 2.650619 1_555
Al14 Ir6 2.650619 1_555
Al14 Al5 2.697126 1_565
Al14 Al7 2.799461 1_565
Al14 Al4 2.799466 1_565
Al14 Al8 2.826358 1_555
Al14 Sc2 2.852401 1_555
Al14 Sc3 2.852401 1_555
Al14 Ir2 2.880344 1_554
Al15 Ir0 2.643061 1_555
Al15 Ir1 2.647405 1_655
Al15 Ir6 2.650906 1_645
Al15 Ir5 2.650906 1_654
Al15 Sc2 2.851693 1_555
Al15 Sc1 2.851693 1_555
Al15 Sc0 2.928838 1_555
Ir0 Sc2 3.317949 1_555
Ir0 Sc4 3.317949 1_555
Ir0 Sc3 3.317949 1_555
Ir0 Sc1 3.317949 1_555
Ir1 Sc3 3.078979 1_555
Ir1 Sc1 3.078979 1_455
Ir1 Sc2 3.078979 1_455
Ir1 Sc4 3.078979 1_555
Ir2 Sc1 3.078979 1_565
Ir2 Sc3 3.078979 1_556
Ir2 Sc4 3.078979 1_565
Ir2 Sc2 3.078979 1_556
Ir3 Sc0 3.027138 1_565
Ir3 Sc2 3.032657 1_555
Ir3 Sc4 3.214704 1_565
Ir4 Sc0 3.027138 1_556
Ir4 Sc1 3.032657 1_555
Ir4 Sc3 3.214704 1_556
Ir5 Sc0 3.027138 1_456
Ir5 Sc4 3.032657 1_555
Ir5 Sc2 3.214704 1_456
Ir6 Sc0 3.027138 1_465
Ir6 Sc3 3.032657 1_555
Ir6 Sc1 3.214704 1_465
