# generated using pymatgen
data_CsLi4TaO5
_symmetry_space_group_name_H-M   'P 1'
_cell_length_a   5.88328941
_cell_length_b   5.89676934
_cell_length_c   9.37573382
_cell_angle_alpha   95.89834694
_cell_angle_beta   99.75212242
_cell_angle_gamma   119.68389283
_symmetry_Int_Tables_number   1
_chemical_formula_structural   CsLi4TaO5
_chemical_formula_sum   'Cs2 Li8 Ta2 O10'
_cell_volume   271.80125474
_cell_formula_units_Z   2
loop_
 _symmetry_equiv_pos_site_id
 _symmetry_equiv_pos_as_xyz
  1  'x, y, z'
loop_
 _atom_site_type_symbol
 _atom_site_label
 _atom_site_symmetry_multiplicity
 _atom_site_fract_x
 _atom_site_fract_y
 _atom_site_fract_z
 _atom_site_occupancy
  Cs  Cs0  1  0.61924307  0.78419680  0.40191307  1
  Cs  Cs1  1  0.38075693  0.21580320  0.59808693  1
  Li  Li0  1  0.33674556  0.98234060  0.88841135  1
  Li  Li1  1  0.66325444  0.01765940  0.11158865  1
  Li  Li2  1  0.61037860  0.41380437  0.07559894  1
  Li  Li3  1  0.91481148  0.42532644  0.31840807  1
  Li  Li4  1  0.10129132  0.42589611  0.09347041  1
  Li  Li5  1  0.38962140  0.58619563  0.92440106  1
  Li  Li6  1  0.08518852  0.57467356  0.68159193  1
  Li  Li7  1  0.89870868  0.57410389  0.90652959  1
  Ta  Ta0  1  0.16565293  0.99372723  0.16973726  1
  Ta  Ta1  1  0.83434707  0.00627277  0.83026274  1
  O  O0  1  0.78054068  0.77452740  0.01934595  1
  O  O1  1  0.54770276  0.24293699  0.24794170  1
  O  O2  1  0.21945932  0.22547260  0.98065405  1
  O  O3  1  0.25961493  0.76860488  0.03931554  1
  O  O4  1  0.45229724  0.75706301  0.75205830  1
  O  O5  1  0.91011563  0.22260672  0.69158254  1
  O  O6  1  0.05170906  0.22696567  0.25131381  1
  O  O7  1  0.74038507  0.23139512  0.96068446  1
  O  O8  1  0.08988437  0.77739328  0.30841746  1
  O  O9  1  0.94829094  0.77303433  0.74868619  1
loop_
_geom_bond_atom_site_label_1
_geom_bond_atom_site_label_2
_geom_bond_distance
_geom_bond_site_symmetry_2
Cs0 O8 3.059738 1_655
Cs0 O8 3.068141 1_555
Cs0 O5 3.096531 1_565
Cs0 O1 3.156685 1_555
Cs0 Li1 3.166620 1_565
Cs0 O6 3.243791 1_555
Cs0 O6 3.267938 1_665
Cs0 O1 3.361995 1_565
Cs0 O9 3.515759 1_555
Cs0 O4 3.579409 1_555
Cs1 O5 3.059738 1_455
Cs1 O5 3.068141 1_555
Cs1 O8 3.096531 1_545
Cs1 O4 3.156685 1_555
Cs1 Li0 3.166620 1_545
Cs1 O9 3.243791 1_555
Cs1 O9 3.267938 1_445
Cs1 O4 3.361995 1_545
Cs1 O6 3.515759 1_555
Cs1 O1 3.579409 1_555
Li0 O3 1.952873 1_556
Li0 O7 2.012828 1_565
Li0 O2 2.051029 1_565
Li0 O9 2.078998 1_455
Li0 O4 2.168177 1_555
Li1 O7 1.952873 1_554
Li1 O3 2.012828 1_545
Li1 O0 2.051029 1_545
Li1 O6 2.078998 1_655
Li1 O1 2.168177 1_555
Li2 O7 1.938716 1_554
Li2 O2 1.972000 1_554
Li2 O1 1.982570 1_555
Li2 O0 2.026156 1_555
Li3 O1 1.824246 1_555
Li3 O8 1.826052 1_655
Li3 O6 1.834676 1_655
Li4 O3 1.927722 1_555
Li4 O7 1.942389 1_454
Li4 O2 1.950608 1_554
Li4 O6 1.953294 1_555
Li5 O3 1.938716 1_556
Li5 O0 1.972000 1_556
Li5 O4 1.982570 1_555
Li5 O2 2.026156 1_555
Li6 O4 1.824246 1_555
Li6 O5 1.826052 1_455
Li6 O9 1.834676 1_455
Li7 O7 1.927722 1_555
Li7 O3 1.942389 1_656
Li7 O0 1.950608 1_556
Li7 O9 1.953294 1_555
O0 Ta0 2.105939 1_655
O0 Ta1 2.317335 1_564
O1 Ta0 1.923044 1_545
O2 Ta1 2.105939 1_455
O2 Ta0 2.317335 1_546
O3 Ta0 2.045794 1_555
O4 Ta1 1.923044 1_565
O5 Ta1 1.868337 1_555
O6 Ta0 1.948493 1_545
O7 Ta1 2.045794 1_555
O8 Ta0 1.868337 1_555
O9 Ta1 1.948493 1_565
