# generated using pymatgen
data_Lu6Nb4Ga12Os7
_symmetry_space_group_name_H-M   'P 1'
_cell_length_a   8.91295208
_cell_length_b   8.91295244
_cell_length_c   8.91295159
_cell_angle_alpha   59.99999590
_cell_angle_beta   59.99999454
_cell_angle_gamma   59.99999562
_symmetry_Int_Tables_number   1
_chemical_formula_structural   Lu6Nb4Ga12Os7
_chemical_formula_sum   'Lu6 Nb4 Ga12 Os7'
_cell_volume   500.66780427
_cell_formula_units_Z   1
loop_
 _symmetry_equiv_pos_site_id
 _symmetry_equiv_pos_as_xyz
  1  'x, y, z'
loop_
 _atom_site_type_symbol
 _atom_site_label
 _atom_site_symmetry_multiplicity
 _atom_site_fract_x
 _atom_site_fract_y
 _atom_site_fract_z
 _atom_site_occupancy
  Lu  Lu0  1  0.70938231  0.70938231  0.29061769  1
  Lu  Lu1  1  0.29061769  0.70938231  0.29061769  1
  Lu  Lu2  1  0.70938231  0.29061769  0.29061769  1
  Lu  Lu3  1  0.29061769  0.29061769  0.70938231  1
  Lu  Lu4  1  0.70938231  0.29061769  0.70938231  1
  Lu  Lu5  1  0.29061769  0.70938231  0.70938231  1
  Nb  Nb0  1  0.87832748  0.87832748  0.36501756  1
  Nb  Nb1  1  0.87832748  0.36501756  0.87832748  1
  Nb  Nb2  1  0.36501756  0.87832748  0.87832748  1
  Nb  Nb3  1  0.87832748  0.87832748  0.87832748  1
  Ga  Ga0  1  0.12051526  0.12051526  0.63845222  1
  Ga  Ga1  1  0.12051526  0.63845222  0.12051526  1
  Ga  Ga2  1  0.63845222  0.12051526  0.12051526  1
  Ga  Ga3  1  0.12051526  0.12051526  0.12051526  1
  Ga  Ga4  1  0.66192308  0.66192308  0.01423077  1
  Ga  Ga5  1  0.66192308  0.01423077  0.66192308  1
  Ga  Ga6  1  0.01423077  0.66192308  0.66192308  1
  Ga  Ga7  1  0.66192308  0.66192308  0.66192308  1
  Ga  Ga8  1  0.33609174  0.33609174  0.99172578  1
  Ga  Ga9  1  0.33609174  0.99172578  0.33609174  1
  Ga  Ga10  1  0.99172578  0.33609174  0.33609174  1
  Ga  Ga11  1  0.33609174  0.33609174  0.33609174  1
  Os  Os0  1  0.00000000  0.00000000  0.00000000  1
  Os  Os1  1  0.99643125  0.99643125  0.50356875  1
  Os  Os2  1  0.50356875  0.99643125  0.50356875  1
  Os  Os3  1  0.99643125  0.50356875  0.50356875  1
  Os  Os4  1  0.50356875  0.50356875  0.99643125  1
  Os  Os5  1  0.99643125  0.50356875  0.99643125  1
  Os  Os6  1  0.50356875  0.99643125  0.99643125  1
loop_
_geom_bond_atom_site_label_1
_geom_bond_atom_site_label_2
_geom_bond_distance
_geom_bond_site_symmetry_2
Lu0 Nb3 3.039587 1_554
Lu0 Nb0 3.039588 1_555
Lu1 Nb2 3.039587 1_554
Lu1 Nb0 3.039588 1_455
Lu2 Nb1 3.039587 1_554
Lu2 Nb0 3.039588 1_545
Lu3 Nb1 3.039588 1_455
Lu3 Nb2 3.039588 1_545
Lu4 Nb3 3.039588 1_545
Lu4 Nb1 3.039588 1_555
Lu5 Nb3 3.039588 1_455
Lu5 Nb2 3.039588 1_555
Nb0 Os0 2.656377 1_665
Nb0 Os2 2.729296 1_555
Nb0 Os3 2.729296 1_555
Nb0 Os1 2.729296 1_555
Nb1 Os0 2.656377 1_656
Nb1 Os3 2.729296 1_555
Nb1 Os4 2.729296 1_555
Nb1 Os5 2.729296 1_555
Nb2 Os0 2.656377 1_566
Nb2 Os2 2.729296 1_555
Nb2 Os4 2.729296 1_555
Nb2 Os6 2.729296 1_555
Nb3 Os0 2.656377 1_666
Nb3 Os1 2.729296 1_555
Nb3 Os6 2.729296 1_555
Nb3 Os5 2.729296 1_555
Ga0 Os0 2.631126 1_556
Ga0 Os1 2.788171 1_445
Ga0 Os2 2.788185 1_545
Ga0 Os3 2.788185 1_455
Ga0 Ga9 2.825235 1_545
Ga0 Ga10 2.825235 1_455
Ga0 Ga11 2.825250 1_555
Ga0 Lu4 3.035186 1_455
Ga0 Lu5 3.035187 1_545
Ga0 Lu3 3.035202 1_555
Ga0 Nb3 3.052802 1_445
Ga0 Nb2 3.052815 1_545
Ga0 Nb1 3.052815 1_455
Ga1 Os0 2.631126 1_565
Ga1 Os5 2.788171 1_454
Ga1 Os3 2.788185 1_455
Ga1 Os4 2.788185 1_554
Ga1 Ga8 2.825235 1_554
Ga1 Ga10 2.825235 1_455
Ga1 Ga11 2.825250 1_555
Ga1 Lu5 3.035186 1_554
Ga1 Lu0 3.035186 1_455
Ga1 Lu1 3.035202 1_555
Ga1 Nb3 3.052802 1_454
Ga1 Nb0 3.052815 1_455
Ga1 Nb2 3.052815 1_554
Ga2 Os0 2.631126 1_655
Ga2 Os6 2.788171 1_544
Ga2 Os2 2.788185 1_545
Ga2 Os4 2.788185 1_554
Ga2 Ga8 2.825235 1_554
Ga2 Ga9 2.825235 1_545
Ga2 Lu4 3.035186 1_554
Ga2 Lu0 3.035187 1_545
Ga2 Lu2 3.035202 1_555
Ga2 Nb3 3.052802 1_544
Ga2 Nb0 3.052815 1_545
Ga2 Nb1 3.052815 1_554
Ga3 Os0 2.631112 1_555
Ga3 Os1 2.788185 1_445
Ga3 Os6 2.788185 1_544
Ga3 Os5 2.788186 1_454
Ga3 Ga9 2.825257 1_545
Ga3 Ga8 2.825257 1_554
Ga3 Lu3 3.035189 1_554
Ga3 Lu2 3.035189 1_455
Ga3 Lu1 3.035189 1_545
Ga3 Nb2 3.052802 1_544
Ga3 Nb1 3.052802 1_454
Ga3 Nb0 3.052802 1_445
Ga4 Os5 2.539524 1_554
Ga4 Os6 2.539525 1_554
Ga4 Os4 2.539525 1_554
Ga4 Nb2 2.820526 1_554
Ga4 Nb1 2.820526 1_554
Ga4 Nb3 2.820526 1_554
Ga4 Lu1 2.947764 1_555
Ga4 Lu2 2.947764 1_555
Ga4 Lu0 2.947764 1_555
Ga5 Os6 2.539524 1_545
Ga5 Os1 2.539524 1_545
Ga5 Os2 2.539525 1_545
Ga5 Nb0 2.820525 1_545
Ga5 Nb2 2.820526 1_545
Ga5 Nb3 2.820526 1_545
Ga5 Lu2 2.947764 1_555
Ga5 Lu3 2.947764 1_555
Ga5 Lu4 2.947764 1_555
Ga6 Os5 2.539524 1_455
Ga6 Os1 2.539525 1_455
Ga6 Os3 2.539525 1_455
Ga6 Nb0 2.820525 1_455
Ga6 Nb3 2.820526 1_455
Ga6 Nb1 2.820526 1_455
Ga6 Lu1 2.947764 1_555
Ga6 Lu3 2.947764 1_555
Ga6 Lu5 2.947764 1_555
Ga7 Os4 2.539524 1_555
Ga7 Os3 2.539524 1_555
Ga7 Os2 2.539524 1_555
Ga7 Nb2 2.820525 1_555
Ga7 Nb0 2.820525 1_555
Ga7 Nb1 2.820525 1_555
Ga7 Lu0 2.947764 1_555
Ga7 Lu5 2.947764 1_555
Ga7 Lu4 2.947764 1_555
Ga8 Os4 2.609896 1_555
Ga8 Os5 2.609904 1_455
Ga8 Os6 2.609904 1_545
Ga8 Lu4 2.977509 1_555
Ga8 Lu5 2.977509 1_555
Ga8 Lu3 2.977514 1_555
Ga8 Ga9 3.069317 1_546
Ga9 Os2 2.609896 1_555
Ga9 Os6 2.609903 1_554
Ga9 Os1 2.609904 1_455
Ga9 Lu5 2.977509 1_555
Ga9 Lu0 2.977509 1_555
Ga9 Lu1 2.977515 1_555
Ga10 Os3 2.609896 1_555
Ga10 Os5 2.609903 1_554
Ga10 Os1 2.609904 1_545
Ga10 Ga3 2.825257 1_655
Ga10 Lu4 2.977508 1_555
Ga10 Lu0 2.977509 1_555
Ga10 Lu2 2.977514 1_555
Ga10 Ga8 3.069317 1_654
Ga10 Ga9 3.069317 1_645
Ga10 Ga11 3.069317 1_655
Ga11 Os4 2.609901 1_554
Ga11 Os3 2.609901 1_455
Ga11 Os2 2.609901 1_545
Ga11 Ga2 2.825250 1_555
Ga11 Lu3 2.977505 1_555
Ga11 Lu2 2.977506 1_555
Ga11 Lu1 2.977506 1_555
Ga11 Ga8 3.069317 1_554
Ga11 Ga9 3.069317 1_545
