# generated using pymatgen
data_KSrCr2F9
_symmetry_space_group_name_H-M   'P 1'
_cell_length_a   7.20815269
_cell_length_b   7.20815172
_cell_length_c   7.71243808
_cell_angle_alpha   87.87659717
_cell_angle_beta   87.87658949
_cell_angle_gamma   118.94501415
_symmetry_Int_Tables_number   1
_chemical_formula_structural   KSrCr2F9
_chemical_formula_sum   'K2 Sr2 Cr4 F18'
_cell_volume   349.72858425
_cell_formula_units_Z   2
loop_
 _symmetry_equiv_pos_site_id
 _symmetry_equiv_pos_as_xyz
  1  'x, y, z'
loop_
 _atom_site_type_symbol
 _atom_site_label
 _atom_site_symmetry_multiplicity
 _atom_site_fract_x
 _atom_site_fract_y
 _atom_site_fract_z
 _atom_site_occupancy
  K  K0  1  0.50000000  0.00000000  0.00000000  1
  K  K1  1  0.00000000  0.50000000  0.50000000  1
  Sr  Sr0  1  0.48554313  0.51445687  0.75000000  1
  Sr  Sr1  1  0.51445687  0.48554313  0.25000000  1
  Cr  Cr0  1  0.00000000  0.00000000  0.50000000  1
  Cr  Cr1  1  0.00000000  0.00000000  0.00000000  1
  Cr  Cr2  1  0.50000000  0.00000000  0.50000000  1
  Cr  Cr3  1  0.00000000  0.50000000  0.00000000  1
  F  F0  1  0.19919048  0.90385142  0.55160891  1
  F  F1  1  0.80080952  0.09614858  0.44839109  1
  F  F2  1  0.09614858  0.80080952  0.94839109  1
  F  F3  1  0.90385142  0.19919048  0.05160891  1
  F  F4  1  0.97142933  0.02857067  0.75000000  1
  F  F5  1  0.02857067  0.97142933  0.25000000  1
  F  F6  1  0.51877378  0.86849418  0.71001468  1
  F  F7  1  0.48122622  0.13150582  0.28998532  1
  F  F8  1  0.13150582  0.48122622  0.78998532  1
  F  F9  1  0.86849418  0.51877378  0.21001468  1
  F  F10  1  0.57108825  0.26368130  0.59718861  1
  F  F11  1  0.42891175  0.73631870  0.40281139  1
  F  F12  1  0.73631870  0.42891175  0.90281139  1
  F  F13  1  0.26368130  0.57108825  0.09718861  1
  F  F14  1  0.71152097  0.77816686  0.01775882  1
  F  F15  1  0.28847903  0.22183314  0.98224118  1
  F  F16  1  0.22183314  0.28847903  0.48224118  1
  F  F17  1  0.77816686  0.71152097  0.51775882  1
loop_
_geom_bond_atom_site_label_1
_geom_bond_atom_site_label_2
_geom_bond_distance
_geom_bond_site_symmetry_2
Cr0 F16 1.908868 1_555
Cr0 F17 1.908868 1_445
Cr0 F0 1.919726 1_545
Cr0 F1 1.919726 1_455
Cr0 F4 1.960480 1_455
Cr0 F5 1.960480 1_545
Cr1 F15 1.908868 1_554
Cr1 F14 1.908868 1_445
Cr1 F3 1.919726 1_455
Cr1 F2 1.919726 1_544
Cr1 F5 1.960480 1_545
Cr1 F4 1.960480 1_454
Cr2 F7 1.888649 1_555
Cr2 F6 1.888649 1_545
Cr2 F10 1.904792 1_555
Cr2 F11 1.904792 1_545
Cr2 F1 1.949677 1_555
Cr2 F0 1.949677 1_545
Cr3 F9 1.888648 1_455
Cr3 F8 1.888648 1_554
Cr3 F13 1.904793 1_555
Cr3 F12 1.904793 1_454
Cr3 F2 1.949677 1_554
Cr3 F3 1.949677 1_455
F0 K1 2.603184 1_555
F1 K1 2.603184 1_655
F2 K0 2.603184 1_566
F3 K0 2.603184 1_555
F6 Sr0 2.451424 1_555
F6 K0 2.485477 1_566
F7 Sr1 2.451424 1_555
F7 K0 2.485477 1_555
F8 Sr0 2.451424 1_555
F8 K1 2.485477 1_555
F9 Sr1 2.451424 1_555
F9 K1 2.485477 1_655
F10 Sr0 2.493918 1_555
F10 K1 2.767300 1_655
F11 Sr1 2.493918 1_555
F11 K1 2.767300 1_555
F12 Sr0 2.493918 1_555
F12 K0 2.767300 1_556
F13 Sr1 2.493918 1_555
F13 K0 2.767300 1_565
F14 Sr1 2.511249 1_555
F14 K0 2.694303 1_565
F14 Sr0 2.841514 1_554
F15 Sr0 2.511249 1_555
F15 K0 2.694303 1_556
F15 Sr1 2.841514 1_556
F16 Sr1 2.511249 1_555
F16 K1 2.694303 1_555
F16 Sr0 2.841515 1_555
F17 Sr0 2.511249 1_555
F17 K1 2.694303 1_655
F17 Sr1 2.841515 1_555
