# generated using pymatgen
data_Ta3Hg4SbO14
_symmetry_space_group_name_H-M   'P 1'
_cell_length_a   7.42523982
_cell_length_b   7.42523929
_cell_length_c   7.39612487
_cell_angle_alpha   59.86969932
_cell_angle_beta   59.86969720
_cell_angle_gamma   59.99999666
_symmetry_Int_Tables_number   1
_chemical_formula_structural   Ta3Hg4SbO14
_chemical_formula_sum   'Ta3 Hg4 Sb1 O14'
_cell_volume   287.77429850
_cell_formula_units_Z   1
loop_
 _symmetry_equiv_pos_site_id
 _symmetry_equiv_pos_as_xyz
  1  'x, y, z'
loop_
 _atom_site_type_symbol
 _atom_site_label
 _atom_site_symmetry_multiplicity
 _atom_site_fract_x
 _atom_site_fract_y
 _atom_site_fract_z
 _atom_site_occupancy
  Ta  Ta0  1  0.12500000  0.62500000  0.12500000  1
  Ta  Ta1  1  0.12500000  0.12500000  0.12500000  1
  Ta  Ta2  1  0.62500000  0.12500000  0.12500000  1
  Hg  Hg0  1  0.62500000  0.62500000  0.62500000  1
  Hg  Hg1  1  0.62500000  0.12500000  0.62500000  1
  Hg  Hg2  1  0.62500000  0.62500000  0.12500000  1
  Hg  Hg3  1  0.12500000  0.62500000  0.62500000  1
  Sb  Sb0  1  0.12500000  0.12500000  0.62500000  1
  O  O0  1  0.81143854  0.81143854  0.18950539  1
  O  O1  1  0.80902547  0.19232061  0.80633230  1
  O  O2  1  0.05767939  0.05767939  0.44366770  1
  O  O3  1  0.81143854  0.18761752  0.18950539  1
  O  O4  1  0.43856146  0.43856146  0.06049461  1
  O  O5  1  0.06238248  0.43856146  0.06049461  1
  O  O6  1  0.19232061  0.80902547  0.80633230  1
  O  O7  1  0.44097453  0.05767939  0.44366770  1
  O  O8  1  0.50155546  0.50155546  0.49533361  1
  O  O9  1  0.18761752  0.81143854  0.18950539  1
  O  O10  1  0.19232061  0.19232061  0.80633230  1
  O  O11  1  0.74844454  0.74844454  0.75466639  1
  O  O12  1  0.43856146  0.06238248  0.06049461  1
  O  O13  1  0.05767939  0.44097453  0.44366770  1
loop_
_geom_bond_atom_site_label_1
_geom_bond_atom_site_label_2
_geom_bond_distance
_geom_bond_site_symmetry_2
Hg0 O11 2.281503 1_555
Hg0 O8 2.281503 1_555
Hg1 O8 2.281503 1_555
Hg1 O11 2.281503 1_545
Hg2 O8 2.231997 1_555
Hg2 O11 2.231997 1_554
Hg3 O8 2.281503 1_555
Hg3 O11 2.281503 1_455
O0 Ta2 1.972215 1_565
O0 Ta0 1.972215 1_655
O1 Sb0 1.973430 1_655
O1 Ta2 1.984701 1_556
O2 Sb0 1.973425 1_555
O2 Ta1 1.984703 1_555
O3 Ta2 1.972215 1_555
O3 Ta1 1.972215 1_655
O4 Ta2 1.972215 1_555
O4 Ta0 1.972215 1_555
O5 Ta1 1.972215 1_555
O5 Ta0 1.972215 1_555
O6 Sb0 1.973430 1_565
O6 Ta0 1.984701 1_556
O7 Sb0 1.973430 1_555
O7 Ta2 1.984701 1_555
O9 Ta1 1.972215 1_565
O9 Ta0 1.972215 1_555
O10 Sb0 1.973425 1_555
O10 Ta1 1.984703 1_556
O12 Ta2 1.972215 1_555
O12 Ta1 1.972215 1_555
O13 Sb0 1.973430 1_555
O13 Ta0 1.984701 1_555
