# generated using pymatgen
data_Li2CoP2O7
_symmetry_space_group_name_H-M   'P 1'
_cell_length_a   5.05138900
_cell_length_b   8.51815700
_cell_length_c   13.88728892
_cell_angle_alpha   65.26288685
_cell_angle_beta   90.00000000
_cell_angle_gamma   90.00000000
_symmetry_Int_Tables_number   1
_chemical_formula_structural   Li2CoP2O7
_chemical_formula_sum   'Li8 Co4 P8 O28'
_cell_volume   542.71680109
_cell_formula_units_Z   4
loop_
 _symmetry_equiv_pos_site_id
 _symmetry_equiv_pos_as_xyz
  1  'x, y, z'
loop_
 _atom_site_type_symbol
 _atom_site_label
 _atom_site_symmetry_multiplicity
 _atom_site_fract_x
 _atom_site_fract_y
 _atom_site_fract_z
 _atom_site_occupancy
  Li  Li0  1  0.21902000  0.50769400  0.57673700  1
  Li  Li1  1  0.23791200  0.04572000  0.82668100  1
  Li  Li2  1  0.71902000  0.49230600  0.92326300  1
  Li  Li3  1  0.73791200  0.95428000  0.67331900  1
  Li  Li4  1  0.78098000  0.49230600  0.42326300  1
  Li  Li5  1  0.76208800  0.95428000  0.17331900  1
  Li  Li6  1  0.26208800  0.04572000  0.32668100  1
  Li  Li7  1  0.28098000  0.50769400  0.07673700  1
  Co  Co0  1  0.74021000  0.77609900  0.47796600  1
  Co  Co1  1  0.75979000  0.77609900  0.97796600  1
  Co  Co2  1  0.25979000  0.22390100  0.52203400  1
  Co  Co3  1  0.24021000  0.22390100  0.02203400  1
  P  P0  1  0.26733100  0.67328200  0.35317100  1
  P  P1  1  0.73561600  0.18895800  0.88035300  1
  P  P2  1  0.26438400  0.81104200  0.11964700  1
  P  P3  1  0.76733100  0.32671800  0.14682900  1
  P  P4  1  0.23266900  0.67328200  0.85317100  1
  P  P5  1  0.73266900  0.32671800  0.64682900  1
  P  P6  1  0.76438400  0.18895800  0.38035300  1
  P  P7  1  0.23561600  0.81104200  0.61964700  1
  O  O0  1  0.09259300  0.81698500  0.35856500  1
  O  O1  1  0.06616600  0.29692500  0.13937600  1
  O  O2  1  0.82443200  0.50644300  0.56748600  1
  O  O3  1  0.93383400  0.70307500  0.86062400  1
  O  O4  1  0.56616600  0.70307500  0.36062400  1
  O  O5  1  0.67556800  0.50644300  0.06748600  1
  O  O6  1  0.62351100  0.27160700  0.44471800  1
  O  O7  1  0.56337800  0.83208300  0.09751800  1
  O  O8  1  0.93662200  0.83208300  0.59751800  1
  O  O9  1  0.43383400  0.29692500  0.63937600  1
  O  O10  1  0.17556800  0.49355700  0.43251400  1
  O  O11  1  0.06337800  0.16791700  0.40248200  1
  O  O12  1  0.22046500  0.66509200  0.24016800  1
  O  O13  1  0.12351100  0.72839300  0.05528200  1
  O  O14  1  0.59259300  0.18301500  0.14143500  1
  O  O15  1  0.86813900  0.02481000  0.88342500  1
  O  O16  1  0.32443200  0.49355700  0.93251400  1
  O  O17  1  0.77953500  0.33490800  0.75983200  1
  O  O18  1  0.13186100  0.97519000  0.11657500  1
  O  O19  1  0.87648900  0.27160700  0.94471800  1
  O  O20  1  0.43662200  0.16791700  0.90248200  1
  O  O21  1  0.72046500  0.33490800  0.25983200  1
  O  O22  1  0.27953500  0.66509200  0.74016800  1
  O  O23  1  0.90740700  0.18301500  0.64143500  1
  O  O24  1  0.37648900  0.72839300  0.55528200  1
  O  O25  1  0.36813900  0.97519000  0.61657500  1
  O  O26  1  0.63186100  0.02481000  0.38342500  1
  O  O27  1  0.40740700  0.81698500  0.85856500  1
loop_
_geom_bond_atom_site_label_1
_geom_bond_atom_site_label_2
_geom_bond_distance
_geom_bond_site_symmetry_2
Li0 O24 1.946001 1_555
Li0 O9 1.962253 1_555
Li0 O2 1.997669 1_455
Li0 O10 2.067850 1_555
Li1 O27 2.000839 1_545
Li1 O15 2.006031 1_455
Li1 O20 2.028824 1_555
Li2 O19 1.946001 1_555
Li2 O3 1.962253 1_555
Li2 O16 1.997669 1_555
Li2 O5 2.067850 1_556
Li3 O23 2.000839 1_565
Li3 O25 2.006031 1_555
Li3 O8 2.028824 1_555
Li4 O6 1.946001 1_555
Li4 O4 1.962253 1_555
Li4 O10 1.997669 1_655
Li4 O2 2.067850 1_555
Li5 O14 2.000839 1_565
Li5 O18 2.006031 1_655
Li5 O7 2.028824 1_555
Li6 O0 2.000839 1_545
Li6 O26 2.006031 1_555
Li6 O11 2.028824 1_555
Li7 O13 1.946001 1_555
Li7 O1 1.962253 1_555
Li7 O5 1.997669 1_555
Li7 O16 2.067850 1_554
Co0 O26 2.045418 1_565
Co0 O24 2.080501 1_555
Co0 O2 2.147729 1_555
Co0 O8 2.151939 1_555
Co0 O4 2.159548 1_555
Co0 O0 2.357107 1_655
Co1 O15 2.045418 1_565
Co1 O13 2.080501 1_656
Co1 O5 2.147729 1_556
Co1 O7 2.151939 1_556
Co1 O3 2.159548 1_555
Co1 O27 2.357107 1_555
Co2 O25 2.045418 1_545
Co2 O6 2.080501 1_555
Co2 O10 2.147729 1_555
Co2 O11 2.151939 1_555
Co2 O9 2.159548 1_555
Co2 O23 2.357107 1_455
Co3 O18 2.045418 1_545
Co3 O19 2.080501 1_454
Co3 O16 2.147729 1_554
Co3 O20 2.151939 1_554
Co3 O1 2.159548 1_555
Co3 O14 2.357107 1_555
O0 P0 1.536177 1_555
O1 P3 1.541359 1_455
O2 P5 1.536533 1_555
O3 P4 1.541359 1_655
O4 P0 1.541359 1_555
O5 P3 1.536533 1_555
O6 P6 1.525666 1_555
O7 P2 1.536743 1_555
O8 P7 1.536743 1_655
O9 P5 1.541359 1_555
O10 P0 1.536533 1_555
O11 P6 1.536743 1_455
O12 P0 1.617176 1_555
O12 P2 1.629322 1_555
O13 P2 1.525666 1_555
O14 P3 1.536177 1_555
O15 P1 1.534633 1_555
O16 P4 1.536533 1_555
O17 P5 1.617176 1_555
O17 P1 1.629322 1_555
O18 P2 1.534633 1_555
O19 P1 1.525666 1_555
O20 P1 1.536743 1_555
O21 P3 1.617176 1_555
O21 P6 1.629322 1_555
O22 P4 1.617176 1_555
O22 P7 1.629322 1_555
O23 P5 1.536177 1_555
O24 P7 1.525666 1_555
O25 P7 1.534633 1_555
O26 P6 1.534633 1_555
O27 P4 1.536177 1_555
