# generated using pymatgen
data_NaCe5S8
_symmetry_space_group_name_H-M   'P 1'
_cell_length_a   7.40560522
_cell_length_b   7.40560522
_cell_length_c   7.40560522
_cell_angle_alpha   109.55125406
_cell_angle_beta   109.55125406
_cell_angle_gamma   109.31127209
_symmetry_Int_Tables_number   1
_chemical_formula_structural   NaCe5S8
_chemical_formula_sum   'Na1 Ce5 S8'
_cell_volume   312.64914225
_cell_formula_units_Z   1
loop_
 _symmetry_equiv_pos_site_id
 _symmetry_equiv_pos_as_xyz
  1  'x, y, z'
loop_
 _atom_site_type_symbol
 _atom_site_label
 _atom_site_symmetry_multiplicity
 _atom_site_fract_x
 _atom_site_fract_y
 _atom_site_fract_z
 _atom_site_occupancy
  Na  Na0  1  0.75000000  0.25000000  0.50000000  1
  Ce  Ce0  1  0.12882500  0.00930400  0.37795900  1
  Ce  Ce1  1  0.50000000  0.50000000  0.00000000  1
  Ce  Ce2  1  0.99069600  0.36865500  0.11952100  1
  Ce  Ce3  1  0.63134500  0.75086600  0.62204100  1
  Ce  Ce4  1  0.24913400  0.87117500  0.88047900  1
  S  S0  1  0.87207100  0.62587100  0.90192500  1
  S  S1  1  0.36250300  0.75939800  0.24269700  1
  S  S2  1  0.88019400  0.63749700  0.39689600  1
  S  S3  1  0.02985400  0.12792900  0.75380000  1
  S  S4  1  0.51670100  0.11980600  0.75730300  1
  S  S5  1  0.24060200  0.48329900  0.60310400  1
  S  S6  1  0.37412900  0.27605400  0.24620000  1
  S  S7  1  0.72394600  0.97014600  0.09807500  1
loop_
_geom_bond_atom_site_label_1
_geom_bond_atom_site_label_2
_geom_bond_distance
_geom_bond_site_symmetry_2
Na0 S0 2.900753 1_555
Na0 S7 2.900753 1_545
Na0 S6 2.900753 1_555
Na0 S3 2.900753 1_655
Na0 S2 3.142734 1_555
Na0 S4 3.142739 1_555
Na0 S1 3.142739 1_545
Na0 S5 3.142741 1_655
Ce0 S2 2.840690 1_445
Ce0 S7 2.869417 1_445
Ce0 S6 2.873600 1_555
Ce0 S4 2.884161 1_555
Ce0 S5 3.004010 1_555
Ce0 S3 3.034896 1_555
Ce0 S0 3.057615 1_444
Ce0 S1 3.075861 1_545
Ce1 S4 2.857481 1_554
Ce1 S1 2.857481 1_555
Ce1 S2 2.857485 1_555
Ce1 S5 2.857487 1_554
Ce1 S7 3.013721 1_555
Ce1 S6 3.013721 1_555
Ce1 S3 3.013721 1_554
Ce1 S0 3.013721 1_554
Ce2 S1 2.840685 1_655
Ce2 S3 2.869417 1_654
Ce2 S7 2.873600 1_545
Ce2 S2 2.884166 1_555
Ce2 S4 3.004010 1_554
Ce2 S0 3.034896 1_554
Ce2 S6 3.057615 1_655
Ce2 S5 3.075855 1_655
Ce3 S5 2.840681 1_555
Ce3 S0 2.869417 1_555
Ce3 S3 2.873600 1_665
Ce3 S1 2.884161 1_555
Ce3 S2 3.004005 1_555
Ce3 S6 3.034896 1_555
Ce3 S7 3.057615 1_556
Ce3 S4 3.075861 1_565
Ce4 S4 2.840685 1_565
Ce4 S6 2.869417 1_566
Ce4 S0 2.873600 1_455
Ce4 S5 2.884164 1_555
Ce4 S1 3.004010 1_556
Ce4 S7 3.034896 1_556
Ce4 S3 3.057615 1_565
Ce4 S2 3.075856 1_455
