# generated using pymatgen
data_La2CdS4
_symmetry_space_group_name_H-M   'P 1'
_cell_length_a   7.56303873
_cell_length_b   7.56303873
_cell_length_c   7.56303873
_cell_angle_alpha   110.77568689
_cell_angle_beta   110.77568689
_cell_angle_gamma   106.89265386
_symmetry_Int_Tables_number   1
_chemical_formula_structural   La2CdS4
_chemical_formula_sum   'La4 Cd2 S8'
_cell_volume   332.51451350
_cell_formula_units_Z   2
loop_
 _symmetry_equiv_pos_site_id
 _symmetry_equiv_pos_as_xyz
  1  'x, y, z'
loop_
 _atom_site_type_symbol
 _atom_site_label
 _atom_site_symmetry_multiplicity
 _atom_site_fract_x
 _atom_site_fract_y
 _atom_site_fract_z
 _atom_site_occupancy
  La  La0  1  0.23254600  0.62500000  0.10754600  1
  La  La1  1  0.37500000  0.48254600  0.60754600  1
  La  La2  1  0.51745400  0.12500000  0.89245400  1
  La  La3  1  0.87500000  0.76745400  0.39245400  1
  Cd  Cd0  1  0.75000000  0.25000000  0.50000000  1
  Cd  Cd1  1  0.00000000  0.00000000  0.00000000  1
  S  S0  1  0.13145100  0.75977900  0.76583400  1
  S  S1  1  0.11561800  0.24394600  0.73416600  1
  S  S2  1  0.24022100  0.00605400  0.37167200  1
  S  S3  1  0.50977900  0.38145100  0.26583400  1
  S  S4  1  0.61854900  0.88438200  0.12832800  1
  S  S5  1  0.75605400  0.49022100  0.87167200  1
  S  S6  1  0.63438200  0.86854900  0.62832800  1
  S  S7  1  0.99394600  0.36561800  0.23416600  1
loop_
_geom_bond_atom_site_label_1
_geom_bond_atom_site_label_2
_geom_bond_distance
_geom_bond_site_symmetry_2
La0 S2 2.834731 1_565
La0 S1 2.834735 1_554
La0 S7 2.919437 1_455
La0 S4 2.919443 1_555
La0 S0 3.036886 1_554
La0 S5 3.036892 1_454
La0 S6 3.354157 1_555
La0 S3 3.354160 1_555
La1 S5 2.834731 1_555
La1 S7 2.834735 1_455
La1 S1 2.919437 1_555
La1 S6 2.919443 1_555
La1 S3 3.036886 1_555
La1 S2 3.036892 1_555
La1 S4 3.354157 1_556
La1 S0 3.354160 1_555
La2 S6 2.834731 1_545
La2 S3 2.834736 1_556
La2 S5 2.919443 1_555
La2 S0 2.919446 1_545
La2 S7 3.036891 1_556
La2 S4 3.036892 1_546
La2 S2 3.354157 1_555
La2 S1 3.354158 1_555
La3 S4 2.834731 1_555
La3 S0 2.834736 1_655
La3 S2 2.919443 1_665
La3 S3 2.919446 1_555
La3 S1 3.036891 1_665
La3 S6 3.036892 1_555
La3 S5 3.354157 1_554
La3 S7 3.354158 1_555
Cd0 S3 2.727957 1_555
Cd0 S1 2.727959 1_655
Cd0 S5 2.727961 1_555
Cd0 S4 2.727961 1_545
Cd1 S0 2.727957 1_544
Cd1 S7 2.727959 1_455
Cd1 S6 2.727961 1_444
Cd1 S2 2.727961 1_555
