# generated using pymatgen
data_Zr10BeSn2Sb5
_symmetry_space_group_name_H-M   'P 1'
_cell_length_a   8.68602314
_cell_length_b   8.69570254
_cell_length_c   5.88632600
_cell_angle_alpha   90.03158691
_cell_angle_beta   89.98418811
_cell_angle_gamma   120.03687464
_symmetry_Int_Tables_number   1
_chemical_formula_structural   Zr10BeSn2Sb5
_chemical_formula_sum   'Zr10 Be1 Sn2 Sb5'
_cell_volume   384.89213906
_cell_formula_units_Z   1
loop_
 _symmetry_equiv_pos_site_id
 _symmetry_equiv_pos_as_xyz
  1  'x, y, z'
loop_
 _atom_site_type_symbol
 _atom_site_label
 _atom_site_symmetry_multiplicity
 _atom_site_fract_x
 _atom_site_fract_y
 _atom_site_fract_z
 _atom_site_occupancy
  Zr  Zr0  1  0.33383193  0.66691696  0.00000000  1
  Zr  Zr1  1  0.66842106  0.33421053  0.50000000  1
  Zr  Zr2  1  0.66814841  0.33407371  0.00000000  1
  Zr  Zr3  1  0.33273448  0.66636824  0.50000000  1
  Zr  Zr4  1  0.26687370  0.99954120  0.22850188  1
  Zr  Zr5  1  0.26687370  0.26733250  0.77149812  1
  Zr  Zr6  1  0.99920255  0.73192098  0.77088528  1
  Zr  Zr7  1  0.99920255  0.26728056  0.22911472  1
  Zr  Zr8  1  0.73358313  0.73411056  0.22826226  1
  Zr  Zr9  1  0.73358313  0.99947258  0.77173774  1
  Be  Be0  1  0.00041052  0.00020526  0.00000000  1
  Sn  Sn0  1  0.38989692  0.38915321  0.25566340  1
  Sn  Sn1  1  0.38989692  0.00074372  0.74433660  1
  Sb  Sb0  1  0.00118314  0.00059107  0.50000000  1
  Sb  Sb1  1  0.60715134  0.00015549  0.25387316  1
  Sb  Sb2  1  0.60715134  0.60699685  0.74612684  1
  Sb  Sb3  1  0.00092659  0.39088011  0.74696439  1
  Sb  Sb4  1  0.00092659  0.61004649  0.25303561  1
loop_
_geom_bond_atom_site_label_1
_geom_bond_atom_site_label_2
_geom_bond_distance
_geom_bond_site_symmetry_2
Be0 Zr8 2.676544 1_445
Be0 Zr9 2.676544 1_444
Be0 Zr5 2.679776 1_554
Be0 Zr4 2.679776 1_545
Be0 Zr7 2.689509 1_455
Be0 Zr6 2.689517 1_444
Be0 Sb0 2.943169 1_554
Be0 Sb0 2.943169 1_555
Sn0 Zr8 2.995205 1_555
Sn0 Zr4 3.003464 1_545
Sn0 Zr7 3.010583 1_455
Sn0 Zr5 3.041609 1_554
Sn0 Zr1 3.051142 1_555
Sn0 Zr3 3.052863 1_555
Sn0 Zr2 3.080852 1_555
Sn0 Zr0 3.085094 1_555
Sn0 Zr5 3.217468 1_555
Sn1 Zr9 2.995205 1_545
Sn1 Zr5 3.003464 1_555
Sn1 Zr6 3.010585 1_445
Sn1 Zr4 3.041609 1_546
Sn1 Zr1 3.051142 1_555
Sn1 Zr3 3.052848 1_545
Sn1 Zr2 3.080847 1_556
Sn1 Zr0 3.085079 1_546
Sn1 Zr4 3.217468 1_545
Sb0 Zr4 2.810524 1_545
Sb0 Zr5 2.810528 1_555
Sb0 Zr8 2.817209 1_445
Sb0 Zr9 2.817213 1_445
Sb0 Zr6 2.822202 1_445
Sb0 Zr7 2.822202 1_455
Sb1 Zr4 2.956804 1_545
Sb1 Zr7 3.015710 1_555
Sb1 Zr8 3.020554 1_545
Sb1 Zr9 3.043867 1_544
Sb1 Zr1 3.044412 1_555
Sb1 Zr3 3.046585 1_545
Sb1 Zr0 3.062082 1_545
Sb1 Zr2 3.067458 1_555
Sb1 Zr9 3.241405 1_545
Sb2 Zr5 2.956808 1_555
Sb2 Zr6 3.015713 1_555
Sb2 Zr9 3.020546 1_555
Sb2 Zr8 3.043865 1_556
Sb2 Zr1 3.044420 1_555
Sb2 Zr3 3.046590 1_555
Sb2 Zr0 3.062087 1_556
Sb2 Zr2 3.067473 1_556
Sb2 Zr8 3.241403 1_555
Sb3 Zr6 2.976369 1_455
Sb3 Zr5 2.999351 1_555
Sb3 Zr9 3.014276 1_445
Sb3 Zr7 3.032720 1_456
Sb3 Zr3 3.041061 1_555
Sb3 Zr1 3.045364 1_455
Sb3 Zr2 3.063752 1_456
Sb3 Zr0 3.064537 1_556
Sb3 Zr7 3.229149 1_455
Sb4 Zr7 2.976378 1_455
Sb4 Zr4 2.999351 1_555
Sb4 Zr8 3.014276 1_455
Sb4 Zr6 3.032717 1_454
Sb4 Zr3 3.041056 1_555
Sb4 Zr1 3.045364 1_455
Sb4 Zr2 3.063755 1_455
Sb4 Zr0 3.064532 1_555
Sb4 Zr6 3.229146 1_455
