# generated using pymatgen
data_Zr5BeInSb2
_symmetry_space_group_name_H-M   'P 1'
_cell_length_a   8.58958186
_cell_length_b   8.59533627
_cell_length_c   5.81122362
_cell_angle_alpha   90.00000000
_cell_angle_beta   90.00000000
_cell_angle_gamma   120.02216468
_symmetry_Int_Tables_number   1
_chemical_formula_structural   Zr5BeInSb2
_chemical_formula_sum   'Zr10 Be2 In2 Sb4'
_cell_volume   371.48054417
_cell_formula_units_Z   2
loop_
 _symmetry_equiv_pos_site_id
 _symmetry_equiv_pos_as_xyz
  1  'x, y, z'
loop_
 _atom_site_type_symbol
 _atom_site_label
 _atom_site_symmetry_multiplicity
 _atom_site_fract_x
 _atom_site_fract_y
 _atom_site_fract_z
 _atom_site_occupancy
  Zr  Zr0  1  0.25217602  0.00111931  0.25000000  1
  Zr  Zr1  1  0.25217602  0.25105671  0.75000000  1
  Zr  Zr2  1  0.00121055  0.74750961  0.75000000  1
  Zr  Zr3  1  0.00121055  0.25370094  0.25000000  1
  Zr  Zr4  1  0.74863013  0.74865116  0.25000000  1
  Zr  Zr5  1  0.74863013  0.99997998  0.75000000  1
  Zr  Zr6  1  0.33039258  0.66519679  0.00000000  1
  Zr  Zr7  1  0.66741845  0.33370922  0.50000000  1
  Zr  Zr8  1  0.66741845  0.33370922  0.00000000  1
  Zr  Zr9  1  0.33039258  0.66519679  0.50000000  1
  Be  Be0  1  0.99671604  0.99835752  0.00000000  1
  Be  Be1  1  0.99671604  0.99835752  0.50000000  1
  In  In0  1  0.61129365  0.99941129  0.25000000  1
  In  In1  1  0.61129365  0.61188236  0.75000000  1
  Sb  Sb0  1  0.99920563  0.38736503  0.75000000  1
  Sb  Sb1  1  0.99920563  0.61183960  0.25000000  1
  Sb  Sb2  1  0.39295595  0.39304959  0.25000000  1
  Sb  Sb3  1  0.39295595  0.99990636  0.75000000  1
loop_
_geom_bond_atom_site_label_1
_geom_bond_atom_site_label_2
_geom_bond_distance
_geom_bond_site_symmetry_2
Zr6 Zr9 2.905612 1_554
Zr6 Zr9 2.905612 1_555
Zr7 Zr8 2.905612 1_556
Zr7 Zr8 2.905612 1_555
Be0 Zr4 2.584861 1_555
Be0 Zr5 2.584868 1_554
Be0 Zr2 2.616160 1_654
Be0 Zr3 2.616167 1_665
Be0 Zr0 2.621834 1_665
Be0 Zr1 2.621837 1_664
Be1 Zr4 2.584861 1_555
Be1 Zr5 2.584868 1_555
Be1 Zr2 2.616160 1_655
Be1 Zr3 2.616167 1_665
Be1 Zr0 2.621834 1_665
Be1 Zr1 2.621837 1_665
In0 Zr4 2.929424 1_555
In0 Zr3 2.944365 1_665
In0 Zr7 3.035348 1_565
In0 Zr8 3.035348 1_565
In0 Zr9 3.041177 1_555
In0 Zr6 3.041177 1_555
In0 Zr0 3.092042 1_565
In0 Zr5 3.135034 1_555
In0 Zr5 3.135034 1_554
In1 Zr5 2.929432 1_555
In1 Zr2 2.944365 1_655
In1 Zr8 3.035348 1_556
In1 Zr7 3.035348 1_555
In1 Zr9 3.041182 1_555
In1 Zr6 3.041182 1_556
In1 Zr1 3.092042 1_555
In1 Zr4 3.135036 1_555
In1 Zr4 3.135036 1_556
Sb0 Zr5 2.923703 1_545
Sb0 Zr1 2.939684 1_655
Sb0 Zr9 3.017965 1_655
Sb0 Zr6 3.017965 1_656
Sb0 Zr7 3.021608 1_555
Sb0 Zr8 3.021608 1_556
Sb0 Zr2 3.086983 1_655
Sb0 Zr3 3.127718 1_656
Sb0 Zr3 3.127718 1_655
Sb1 Zr4 2.923717 1_555
Sb1 Zr0 2.939691 1_665
Sb1 Zr6 3.017960 1_655
Sb1 Zr9 3.017960 1_655
Sb1 Zr8 3.021605 1_555
Sb1 Zr7 3.021605 1_555
Sb1 Zr3 3.086975 1_655
Sb1 Zr2 3.127721 1_655
Sb1 Zr2 3.127721 1_654
Sb2 Zr3 2.953694 1_555
Sb2 Zr0 2.955420 1_555
Sb2 Zr9 3.021455 1_555
Sb2 Zr6 3.021455 1_555
Sb2 Zr8 3.021911 1_555
Sb2 Zr7 3.021911 1_555
Sb2 Zr4 3.054780 1_555
Sb2 Zr1 3.149217 1_554
Sb2 Zr1 3.149217 1_555
Sb3 Zr2 2.953694 1_555
Sb3 Zr1 2.955420 1_565
Sb3 Zr6 3.021447 1_556
Sb3 Zr9 3.021447 1_555
Sb3 Zr7 3.021911 1_565
Sb3 Zr8 3.021911 1_566
Sb3 Zr5 3.054776 1_555
Sb3 Zr0 3.149217 1_565
Sb3 Zr0 3.149217 1_566
