# generated using pymatgen
data_NaInSn5Ir4
_symmetry_space_group_name_H-M   'P 1'
_cell_length_a   7.00479793
_cell_length_b   6.89933938
_cell_length_c   6.92840029
_cell_angle_alpha   119.97474636
_cell_angle_beta   120.47768340
_cell_angle_gamma   89.80557674
_symmetry_Int_Tables_number   1
_chemical_formula_structural   NaInSn5Ir4
_chemical_formula_sum   'Na1 In1 Sn5 Ir4'
_cell_volume   235.54094898
_cell_formula_units_Z   1
loop_
 _symmetry_equiv_pos_site_id
 _symmetry_equiv_pos_as_xyz
  1  'x, y, z'
loop_
 _atom_site_type_symbol
 _atom_site_label
 _atom_site_symmetry_multiplicity
 _atom_site_fract_x
 _atom_site_fract_y
 _atom_site_fract_z
 _atom_site_occupancy
  Na  Na0  1  0.99967556  0.99784257  1.00000000  1
  In  In0  1  0.88680950  0.53955238  0.00000000  1
  Sn  Sn0  1  0.54231135  0.87912029  1.00000000  1
  Sn  Sn1  1  0.11733896  0.11940321  0.65943172  1
  Sn  Sn2  1  0.99870263  0.50072411  0.49901249  1
  Sn  Sn3  1  0.45790724  0.45997049  0.34056828  1
  Sn  Sn4  1  0.49969115  0.00171162  0.50098751  1
  Ir  Ir0  1  0.25611256  0.59138432  0.00000000  1
  Ir  Ir1  1  0.40433178  0.40681943  0.65285069  1
  Ir  Ir2  1  0.58563719  0.24950384  0.00000000  1
  Ir  Ir3  1  0.75148009  0.75396874  0.34714931  1
loop_
_geom_bond_atom_site_label_1
_geom_bond_atom_site_label_2
_geom_bond_distance
_geom_bond_site_symmetry_2
Na0 Sn3 3.302321 1_666
Na0 Sn1 3.302325 1_665
Na0 Sn0 3.309489 1_555
Na0 Sn2 3.448470 1_555
Na0 Sn4 3.448474 1_666
Na0 Sn4 3.468221 1_565
Na0 Sn2 3.468223 1_566
In0 Ir0 2.612695 1_655
In0 Ir1 2.760423 1_554
In0 Ir3 2.760428 1_555
In0 Ir2 2.912706 1_555
In0 Na0 3.261844 1_554
Ir0 Sn1 2.670843 1_554
Ir0 Sn3 2.670848 1_555
Ir0 Sn4 2.679541 1_565
Ir0 Sn2 2.679542 1_454
Ir0 Ir3 2.819247 1_555
Ir0 Ir1 2.819252 1_554
Ir0 Sn0 2.826139 1_554
Ir0 Na0 3.325136 1_454
Ir1 Sn3 2.563975 1_555
Ir1 Sn4 2.669620 1_555
Ir1 Sn0 2.677514 1_555
Ir1 Sn2 2.689702 1_455
Ir1 Ir2 2.841911 1_556
Ir1 Sn1 2.861135 1_555
Ir1 Na0 3.278867 1_444
Ir2 Sn0 2.574383 1_544
Ir2 Sn3 2.680638 1_555
Ir2 Sn1 2.680639 1_554
Ir2 Sn2 2.688467 1_555
Ir2 Sn4 2.688470 1_554
Ir2 Ir3 2.841911 1_555
Ir2 Na0 3.375208 1_544
Ir3 Sn1 2.563983 1_665
Ir3 Sn2 2.669621 1_555
Ir3 Sn0 2.677514 1_554
Ir3 Sn4 2.689690 1_565
Ir3 Sn3 2.861135 1_555
Ir3 Na0 3.278866 1_555
