# generated using pymatgen
data_Ca2NiRhBr
_symmetry_space_group_name_H-M   'P 1'
_cell_length_a   4.08915720
_cell_length_b   4.08915695
_cell_length_c   16.13595063
_cell_angle_alpha   90.00000000
_cell_angle_beta   90.00000000
_cell_angle_gamma   119.99999426
_symmetry_Int_Tables_number   1
_chemical_formula_structural   Ca2NiRhBr
_chemical_formula_sum   'Ca4 Ni2 Rh2 Br2'
_cell_volume   233.66453444
_cell_formula_units_Z   2
loop_
 _symmetry_equiv_pos_site_id
 _symmetry_equiv_pos_as_xyz
  1  'x, y, z'
loop_
 _atom_site_type_symbol
 _atom_site_label
 _atom_site_symmetry_multiplicity
 _atom_site_fract_x
 _atom_site_fract_y
 _atom_site_fract_z
 _atom_site_occupancy
  Ca  Ca0  1  0.00000000  0.00000000  0.61413906  1
  Ca  Ca1  1  0.00000000  0.00000000  0.38625532  1
  Ca  Ca2  1  0.00000000  0.00000000  0.11413906  1
  Ca  Ca3  1  0.00000000  0.00000000  0.88625532  1
  Ni  Ni0  1  0.66666700  0.33333300  0.99795232  1
  Ni  Ni1  1  0.33333300  0.66666700  0.49795232  1
  Rh  Rh0  1  0.66666700  0.33333300  0.50163881  1
  Rh  Rh1  1  0.33333300  0.66666700  0.00163881  1
  Br  Br0  1  0.66666700  0.33333300  0.25001449  1
  Br  Br1  1  0.33333300  0.66666700  0.75001449  1
loop_
_geom_bond_atom_site_label_1
_geom_bond_atom_site_label_2
_geom_bond_distance
_geom_bond_site_symmetry_2
Ca0 Rh0 2.978092 1_455
Ca0 Rh0 2.978095 1_445
Ca0 Rh0 2.978095 1_555
Ca0 Ni1 3.014720 1_545
Ca0 Ni1 3.014723 1_555
Ca0 Ni1 3.014723 1_445
Ca1 Ni1 2.970209 1_545
Ca1 Ni1 2.970212 1_555
Ca1 Ni1 2.970212 1_445
Ca1 Rh0 3.006677 1_455
Ca1 Rh0 3.006680 1_445
Ca1 Rh0 3.006680 1_555
Ca2 Rh1 2.978092 1_545
Ca2 Rh1 2.978095 1_555
Ca2 Rh1 2.978095 1_445
Ca2 Ni0 3.014720 1_454
Ca2 Ni0 3.014723 1_444
Ca2 Ni0 3.014723 1_554
Ca3 Ni0 2.970209 1_455
Ca3 Ni0 2.970212 1_445
Ca3 Ni0 2.970212 1_555
Ca3 Rh1 3.006677 1_546
Ca3 Rh1 3.006680 1_556
Ca3 Rh1 3.006680 1_446
Ni0 Rh1 2.361623 1_546
Ni0 Rh1 2.361623 1_656
Ni0 Rh1 2.361630 1_556
Ni1 Rh0 2.361623 1_565
Ni1 Rh0 2.361623 1_455
Ni1 Rh0 2.361630 1_555
Br0 Ca2 3.221908 1_655
Br0 Ca2 3.221910 1_665
Br0 Ca2 3.221910 1_555
Br0 Ca1 3.225923 1_655
Br0 Ca1 3.225926 1_665
Br0 Ca1 3.225926 1_555
Br1 Ca0 3.221908 1_565
Br1 Ca0 3.221910 1_555
Br1 Ca0 3.221910 1_665
Br1 Ca3 3.225923 1_565
Br1 Ca3 3.225926 1_555
Br1 Ca3 3.225926 1_665
