# generated using pymatgen
data_ZrTiNb5Sn6
_symmetry_space_group_name_H-M   'P 1'
_cell_length_a   5.72800589
_cell_length_b   5.72491326
_cell_length_c   9.62523833
_cell_angle_alpha   90.00000000
_cell_angle_beta   90.00000000
_cell_angle_gamma   119.98215548
_symmetry_Int_Tables_number   1
_chemical_formula_structural   ZrTiNb5Sn6
_chemical_formula_sum   'Zr1 Ti1 Nb5 Sn6'
_cell_volume   273.39625054
_cell_formula_units_Z   1
loop_
 _symmetry_equiv_pos_site_id
 _symmetry_equiv_pos_as_xyz
  1  'x, y, z'
loop_
 _atom_site_type_symbol
 _atom_site_label
 _atom_site_symmetry_multiplicity
 _atom_site_fract_x
 _atom_site_fract_y
 _atom_site_fract_z
 _atom_site_occupancy
  Zr  Zr0  1  0.00000000  0.00000000  0.99795626  1
  Ti  Ti0  1  0.00000000  0.50000000  0.24835752  1
  Nb  Nb0  1  0.00000000  0.50000000  0.75102916  1
  Nb  Nb1  1  0.50000000  0.50000000  0.24876801  1
  Nb  Nb2  1  0.50000000  0.50000000  0.75238352  1
  Nb  Nb3  1  0.50000000  0.00000000  0.24876801  1
  Nb  Nb4  1  0.50000000  0.00000000  0.75238352  1
  Sn  Sn0  1  0.32972429  0.66486265  0.00185509  1
  Sn  Sn1  1  0.33045837  0.66523019  0.49953716  1
  Sn  Sn2  1  0.00000000  0.00000000  0.31325330  1
  Sn  Sn3  1  0.00000000  0.00000000  0.68431819  1
  Sn  Sn4  1  0.67027571  0.33513735  0.00185509  1
  Sn  Sn5  1  0.66954163  0.33476981  0.49953716  1
loop_
_geom_bond_atom_site_label_1
_geom_bond_atom_site_label_2
_geom_bond_distance
_geom_bond_site_symmetry_2
Nb0 Sn0 2.916315 1_556
Nb0 Sn4 2.916315 1_456
Nb0 Sn1 2.923666 1_555
Nb0 Sn5 2.923666 1_455
Nb0 Sn3 2.933592 1_565
Nb0 Sn3 2.933592 1_555
Nb1 Nb3 2.862457 1_555
Nb1 Nb3 2.862457 1_565
Nb1 Ti0 2.864006 1_555
Nb1 Ti0 2.864006 1_655
Nb1 Sn0 2.900061 1_555
Nb1 Sn4 2.900061 1_555
Nb1 Sn1 2.929509 1_555
Nb1 Sn5 2.929509 1_555
Nb1 Sn2 2.930488 1_665
Nb1 Sn2 2.930488 1_555
Nb2 Sn0 2.920277 1_556
Nb2 Sn4 2.920277 1_556
Nb2 Sn3 2.937980 1_665
Nb2 Sn3 2.937980 1_555
Nb2 Sn5 2.946004 1_555
Nb2 Sn1 2.946004 1_555
Nb3 Ti0 2.864005 1_545
Nb3 Ti0 2.864005 1_655
Nb3 Sn4 2.900058 1_555
Nb3 Sn0 2.900058 1_545
Nb3 Sn5 2.929503 1_555
Nb3 Sn1 2.929503 1_545
Nb3 Sn2 2.930489 1_655
Nb3 Sn2 2.930489 1_555
Nb4 Sn4 2.920274 1_556
Nb4 Sn0 2.920274 1_546
Nb4 Sn3 2.937980 1_555
Nb4 Sn3 2.937980 1_655
Nb4 Sn5 2.945999 1_555
Nb4 Sn1 2.945999 1_545
Sn0 Ti0 2.881959 1_555
Sn0 Zr0 3.297165 1_564
Sn0 Zr0 3.297170 1_554
Sn0 Zr0 3.325778 1_664
Sn1 Ti0 2.921177 1_555
Sn2 Ti0 2.929817 1_545
Sn2 Ti0 2.929817 1_555
Sn2 Zr0 3.034809 1_554
Sn3 Zr0 3.018841 1_555
Sn4 Ti0 2.881959 1_655
Sn4 Zr0 3.297165 1_654
Sn4 Zr0 3.297170 1_664
Sn4 Zr0 3.325778 1_554
Sn5 Ti0 2.921177 1_655
