# generated using pymatgen
data_LiYSi2Au
_symmetry_space_group_name_H-M   'P 1'
_cell_length_a   6.01537844
_cell_length_b   6.01537791
_cell_length_c   6.01537781
_cell_angle_alpha   140.78324837
_cell_angle_beta   140.78323372
_cell_angle_gamma   56.66596524
_symmetry_Int_Tables_number   1
_chemical_formula_structural   LiYSi2Au
_chemical_formula_sum   'Li1 Y1 Si2 Au1'
_cell_volume   86.30750752
_cell_formula_units_Z   1
loop_
 _symmetry_equiv_pos_site_id
 _symmetry_equiv_pos_as_xyz
  1  'x, y, z'
loop_
 _atom_site_type_symbol
 _atom_site_label
 _atom_site_symmetry_multiplicity
 _atom_site_fract_x
 _atom_site_fract_y
 _atom_site_fract_z
 _atom_site_occupancy
  Li  Li0  1  0.25000000  0.75000000  0.50000000  1
  Y  Y0  1  0.00000000  0.00000000  0.00000000  1
  Si  Si0  1  0.39168580  0.39168580  1.00000000  1
  Si  Si1  1  0.60831420  0.60831420  0.00000000  1
  Au  Au0  1  0.75000000  0.25000000  0.50000000  1
loop_
_geom_bond_atom_site_label_1
_geom_bond_atom_site_label_2
_geom_bond_distance
_geom_bond_site_symmetry_2
Li0 Si0 2.515212 1_554
Li0 Si0 2.515212 1_565
Li0 Si1 2.515212 1_556
Li0 Si1 2.515213 1_455
Li0 Y0 3.329228 1_566
Li0 Y0 3.329228 1_555
Li0 Y0 3.329228 1_565
Li0 Y0 3.329229 1_666
Si0 Si1 2.293992 1_556
Si0 Y0 3.076666 1_555
Si0 Y0 3.076666 1_566
Si0 Y0 3.076666 1_656
Si0 Y0 3.076666 1_667
Si1 Y0 3.076666 1_666
Si1 Y0 3.076666 1_655
Si1 Y0 3.076666 1_565
Si1 Y0 3.076666 1_554
Au0 Si1 2.515212 1_556
Au0 Si1 2.515212 1_545
Au0 Si0 2.515212 1_554
Au0 Si0 2.515213 1_655
Au0 Li0 2.854868 1_645
Au0 Li0 2.854868 1_555
Au0 Li0 2.854868 1_544
Au0 Li0 2.854868 1_656
Au0 Y0 3.329228 1_655
Au0 Y0 3.329228 1_666
Au0 Y0 3.329228 1_656
Au0 Y0 3.329229 1_555
