# generated using pymatgen
data_K2Lu4Cu4S9
_symmetry_space_group_name_H-M   'P 1'
_cell_length_a   3.87056525
_cell_length_b   7.04046169
_cell_length_c   14.89014411
_cell_angle_alpha   93.75874237
_cell_angle_beta   97.46790219
_cell_angle_gamma   105.95487485
_symmetry_Int_Tables_number   1
_chemical_formula_structural   K2Lu4Cu4S9
_chemical_formula_sum   'K2 Lu4 Cu4 S9'
_cell_volume   384.63573696
_cell_formula_units_Z   1
loop_
 _symmetry_equiv_pos_site_id
 _symmetry_equiv_pos_as_xyz
  1  'x, y, z'
loop_
 _atom_site_type_symbol
 _atom_site_label
 _atom_site_symmetry_multiplicity
 _atom_site_fract_x
 _atom_site_fract_y
 _atom_site_fract_z
 _atom_site_occupancy
  K  K0  1  0.25924055  0.28879085  0.22968924  1
  K  K1  1  0.74075945  0.71120815  0.77031076  1
  Lu  Lu0  1  0.40043361  0.74597003  0.05489919  1
  Lu  Lu1  1  0.62885272  0.86245658  0.39525085  1
  Lu  Lu2  1  0.37114728  0.13754242  0.60475015  1
  Lu  Lu3  1  0.59956639  0.25402997  0.94510181  1
  Cu  Cu0  1  0.98222735  0.73465537  0.22980134  1
  Cu  Cu1  1  0.89204031  0.32377412  0.46030649  1
  Cu  Cu2  1  0.10796069  0.67622688  0.53969351  1
  Cu  Cu3  1  0.01777165  0.26534363  0.77019866  1
  S  S0  1  0.00000000  0.00000000  0.00000000  1
  S  S1  1  0.80343344  0.50613850  0.10072838  1
  S  S2  1  0.57118747  0.92048500  0.22188995  1
  S  S3  1  0.98436737  0.59511575  0.37361898  1
  S  S4  1  0.28494483  0.14474387  0.42514479  1
  S  S5  1  0.71505617  0.85525713  0.57485521  1
  S  S6  1  0.01563363  0.40488425  0.62638102  1
  S  S7  1  0.42881353  0.07951600  0.77811005  1
  S  S8  1  0.19656656  0.49386050  0.89927262  1
loop_
_geom_bond_atom_site_label_1
_geom_bond_atom_site_label_2
_geom_bond_distance
_geom_bond_site_symmetry_2
K0 S4 3.142579 1_555
K0 S2 3.148554 1_545
K0 S2 3.148556 1_445
K0 S1 3.182806 1_555
K0 S1 3.182808 1_455
K0 S3 3.409439 1_555
K0 S3 3.409441 1_455
K1 S5 3.142584 1_555
K1 S7 3.148565 1_565
K1 S7 3.148567 1_665
K1 S8 3.182816 1_555
K1 S8 3.182816 1_655
K1 S6 3.409434 1_555
K1 S6 3.409439 1_655
Lu0 S2 2.618210 1_555
Lu0 S1 2.659361 1_455
Lu0 S1 2.659367 1_555
Lu0 S8 2.712649 1_554
Lu0 S0 2.766840 1_565
Lu0 S0 2.766845 1_665
Lu1 S2 2.630366 1_555
Lu1 S3 2.645657 1_455
Lu1 S3 2.645663 1_555
Lu1 S5 2.657270 1_555
Lu1 S4 2.722559 1_565
Lu1 S4 2.722567 1_665
Lu2 S7 2.630348 1_555
Lu2 S6 2.645663 1_655
Lu2 S6 2.645664 1_555
Lu2 S4 2.657287 1_555
Lu2 S5 2.722552 1_545
Lu2 S5 2.722557 1_445
Lu3 S7 2.618221 1_555
Lu3 S8 2.659359 1_655
Lu3 S8 2.659362 1_555
Lu3 S1 2.712646 1_556
Lu3 S0 2.766836 1_656
Lu3 S0 2.766838 1_556
Cu0 S2 2.317876 1_555
Cu0 S2 2.317882 1_655
Cu0 S1 2.323333 1_555
Cu0 S3 2.413876 1_555
Cu1 S4 2.312969 1_555
Cu1 S4 2.312972 1_655
Cu1 S3 2.347605 1_555
Cu1 S6 2.455039 1_655
Cu2 S5 2.312969 1_555
Cu2 S5 2.312972 1_455
Cu2 S6 2.347611 1_555
Cu2 S3 2.455040 1_455
Cu3 S7 2.317872 1_455
Cu3 S7 2.317872 1_555
Cu3 S8 2.323344 1_555
Cu3 S6 2.413879 1_555
