# generated using pymatgen
data_YZn12
_symmetry_space_group_name_H-M   'P 1'
_cell_length_a   5.07498388
_cell_length_b   6.71800900
_cell_length_c   6.71800769
_cell_angle_alpha   81.76325239
_cell_angle_beta   67.81225833
_cell_angle_gamma   67.81224979
_symmetry_Int_Tables_number   1
_chemical_formula_structural   YZn12
_chemical_formula_sum   'Y1 Zn12'
_cell_volume   196.37761494
_cell_formula_units_Z   1
loop_
 _symmetry_equiv_pos_site_id
 _symmetry_equiv_pos_as_xyz
  1  'x, y, z'
loop_
 _atom_site_type_symbol
 _atom_site_label
 _atom_site_symmetry_multiplicity
 _atom_site_fract_x
 _atom_site_fract_y
 _atom_site_fract_z
 _atom_site_occupancy
  Y  Y0  1  0.00000000  0.00000000  -0.00000000  1
  Zn  Zn0  1  0.71681344  0.78283822  0.78283822  1
  Zn  Zn1  1  0.50000000  0.00000000  0.50000000  1
  Zn  Zn2  1  0.00000000  0.50000000  -0.00000000  1
  Zn  Zn3  1  0.50000000  0.50000000  -0.00000000  1
  Zn  Zn4  1  0.00000000  0.00000000  0.50000000  1
  Zn  Zn5  1  0.35625016  0.64505549  0.64505549  1
  Zn  Zn6  1  0.00000000  0.35487527  0.64512473  1
  Zn  Zn7  1  -0.00000000  0.64512473  0.35487527  1
  Zn  Zn8  1  0.64374984  0.35494451  0.35494451  1
  Zn  Zn9  1  0.28318656  0.21716178  0.21716178  1
  Zn  Zn10  1  0.50000000  0.78309123  0.21690877  1
  Zn  Zn11  1  0.50000000  0.21690877  0.78309123  1
loop_
_geom_bond_atom_site_label_1
_geom_bond_atom_site_label_2
_geom_bond_distance
_geom_bond_site_symmetry_2
Y0 Zn7 3.120720 1_545
Y0 Zn6 3.120720 1_554
Y0 Zn8 3.123703 1_455
Y0 Zn5 3.123703 1_544
Y0 Zn10 3.174473 1_545
Y0 Zn11 3.174473 1_454
Y0 Zn10 3.174474 1_445
Y0 Zn11 3.174474 1_554
Y0 Zn0 3.175438 1_544
Y0 Zn9 3.175438 1_455
Y0 Zn0 3.177926 1_444
Y0 Zn9 3.177926 1_555
Y0 Zn4 3.359004 1_554
Y0 Zn4 3.359004 1_555
Y0 Zn2 3.359004 1_545
Y0 Zn2 3.359004 1_555
Y0 Zn1 3.359187 1_554
Y0 Zn1 3.359187 1_455
Y0 Zn3 3.359187 1_455
Y0 Zn3 3.359187 1_545
Zn0 Zn1 2.553803 1_565
Zn0 Zn3 2.553803 1_556
Zn0 Zn2 2.555590 1_656
Zn0 Zn4 2.555591 1_665
Zn0 Zn10 2.700159 1_556
Zn0 Zn11 2.700159 1_565
Zn0 Zn7 2.797219 1_655
Zn0 Zn6 2.797219 1_655
Zn0 Zn5 2.804632 1_555
Zn0 Zn5 2.820020 1_655
Zn1 Zn4 2.537492 1_555
Zn1 Zn4 2.537492 1_655
Zn1 Zn9 2.553803 1_555
Zn1 Zn11 2.556238 1_555
Zn1 Zn10 2.556238 1_545
Zn1 Zn5 2.697944 1_545
Zn1 Zn8 2.697944 1_555
Zn1 Zn7 2.702121 1_645
Zn1 Zn6 2.702121 1_555
Zn2 Zn3 2.537492 1_555
Zn2 Zn3 2.537492 1_455
Zn2 Zn9 2.555590 1_555
Zn2 Zn6 2.701893 1_554
Zn2 Zn7 2.701893 1_555
Zn2 Zn8 2.704265 1_455
Zn2 Zn5 2.704265 1_554
Zn3 Zn9 2.553803 1_555
Zn3 Zn8 2.697944 1_555
Zn3 Zn5 2.697944 1_554
Zn3 Zn6 2.702121 1_654
Zn3 Zn7 2.702121 1_555
Zn4 Zn9 2.555591 1_555
Zn4 Zn7 2.701894 1_545
Zn4 Zn6 2.701894 1_555
Zn4 Zn5 2.704264 1_545
Zn4 Zn8 2.704264 1_455
Zn5 Zn8 2.553160 1_555
Zn6 Zn7 2.552411 1_555
Zn6 Zn9 2.797219 1_555
Zn7 Zn9 2.797219 1_555
Zn8 Zn9 2.804632 1_555
Zn8 Zn9 2.820020 1_655
Zn10 Zn3 2.556238 1_555
Zn10 Zn4 2.556478 1_565
Zn10 Zn2 2.556478 1_655
Zn10 Zn9 2.700159 1_565
Zn10 Zn5 2.797691 1_555
Zn10 Zn8 2.797692 1_555
Zn10 Zn7 2.812625 1_655
Zn10 Zn7 2.812625 1_555
Zn11 Zn3 2.556238 1_556
Zn11 Zn4 2.556478 1_655
Zn11 Zn2 2.556478 1_556
Zn11 Zn9 2.700159 1_556
Zn11 Zn8 2.797691 1_555
Zn11 Zn5 2.797692 1_555
Zn11 Zn6 2.812625 1_555
Zn11 Zn6 2.812625 1_655
