# generated using pymatgen
data_CsTaF6
_symmetry_space_group_name_H-M   'P 1'
_cell_length_a   5.35406553
_cell_length_b   5.35406493
_cell_length_c   5.35406517
_cell_angle_alpha   96.79068835
_cell_angle_beta   96.79068541
_cell_angle_gamma   96.79070637
_symmetry_Int_Tables_number   1
_chemical_formula_structural   CsTaF6
_chemical_formula_sum   'Cs1 Ta1 F6'
_cell_volume   149.96700507
_cell_formula_units_Z   1
loop_
 _symmetry_equiv_pos_site_id
 _symmetry_equiv_pos_as_xyz
  1  'x, y, z'
loop_
 _atom_site_type_symbol
 _atom_site_label
 _atom_site_symmetry_multiplicity
 _atom_site_fract_x
 _atom_site_fract_y
 _atom_site_fract_z
 _atom_site_occupancy
  Cs  Cs0  1  0.50000000  0.50000000  0.50000000  1
  Ta  Ta0  1  0.00000000  0.00000000  0.00000000  1
  F  F0  1  0.25038402  0.25038402  0.91552398  1
  F  F1  1  0.91552398  0.25038402  0.25038402  1
  F  F2  1  0.08447602  0.74961598  0.74961598  1
  F  F3  1  0.74961598  0.74961598  0.08447602  1
  F  F4  1  0.74961598  0.08447602  0.74961598  1
  F  F5  1  0.25038402  0.91552398  0.25038402  1
loop_
_geom_bond_atom_site_label_1
_geom_bond_atom_site_label_2
_geom_bond_distance
_geom_bond_site_symmetry_2
Cs0 F0 3.083117 1_555
Cs0 F3 3.083117 1_555
Cs0 F5 3.083118 1_555
Cs0 F4 3.083118 1_555
Cs0 F2 3.083118 1_555
Cs0 F1 3.083118 1_555
Cs0 F4 3.311262 1_565
Cs0 F5 3.311262 1_545
Cs0 F2 3.311262 1_655
Cs0 F1 3.311262 1_455
Cs0 F3 3.311262 1_556
Cs0 F0 3.311262 1_554
F0 Ta0 1.913273 1_556
F1 Ta0 1.913273 1_655
F2 Ta0 1.913273 1_566
F3 Ta0 1.913273 1_665
F4 Ta0 1.913273 1_656
F5 Ta0 1.913273 1_565
