# generated using pymatgen
data_HfSc2(AsRu)3
_symmetry_space_group_name_H-M   'P 1'
_cell_length_a   7.64589697
_cell_length_b   7.64589650
_cell_length_c   7.64589738
_cell_angle_alpha   128.14018216
_cell_angle_beta   120.87455839
_cell_angle_gamma   82.48719552
_symmetry_Int_Tables_number   1
_chemical_formula_structural   HfSc2(AsRu)3
_chemical_formula_sum   'Hf2 Sc4 As6 Ru6'
_cell_volume   290.02952279
_cell_formula_units_Z   2
loop_
 _symmetry_equiv_pos_site_id
 _symmetry_equiv_pos_as_xyz
  1  'x, y, z'
loop_
 _atom_site_type_symbol
 _atom_site_label
 _atom_site_symmetry_multiplicity
 _atom_site_fract_x
 _atom_site_fract_y
 _atom_site_fract_z
 _atom_site_occupancy
  Hf  Hf0  1  0.05211269  0.25510630  0.70299361  1
  Hf  Hf1  1  0.94788731  0.65088092  0.20299361  1
  Sc  Sc0  1  0.47072385  0.70056503  0.72984118  1
  Sc  Sc1  1  0.52927615  0.25911732  0.22984118  1
  Sc  Sc2  1  0.74988789  0.83385966  0.58397176  1
  Sc  Sc3  1  0.25011211  0.83408487  0.08397176  1
  As  As0  1  0.27855208  0.27367729  0.49512621  1
  As  As1  1  0.72144792  0.21657513  0.99512621  1
  As  As2  1  0.33116518  0.58830433  0.25127627  1
  As  As3  1  0.66883482  0.92011109  0.25713915  1
  As  As4  1  0.16297194  0.92011109  0.75127627  1
  As  As5  1  0.83702806  0.58830433  0.75713915  1
  Ru  Ru0  1  0.50000000  0.49429819  0.99429819  1
  Ru  Ru1  1  1.00000000  0.49429819  0.49429819  1
  Ru  Ru2  1  0.08999253  0.25519305  0.09995311  1
  Ru  Ru3  1  0.91000747  0.00996058  0.16520052  1
  Ru  Ru4  1  0.34476006  0.00996058  0.59995311  1
  Ru  Ru5  1  0.65523994  0.25519305  0.66520052  1
loop_
_geom_bond_atom_site_label_1
_geom_bond_atom_site_label_2
_geom_bond_distance
_geom_bond_site_symmetry_2
Hf0 Ru4 2.833566 1_555
Hf0 Ru3 2.833566 1_455
Hf0 Ru5 2.896751 1_455
Hf0 Ru2 2.896751 1_556
Hf0 Ru0 2.968328 1_555
Hf0 Ru1 2.968328 1_455
Hf1 Ru2 2.833565 1_655
Hf1 Ru5 2.833566 1_554
Hf1 Ru4 2.896751 1_665
Hf1 Ru3 2.896751 1_565
Hf1 Ru0 2.968328 1_554
Hf1 Ru1 2.968328 1_555
As0 Ru4 2.505426 1_555
As0 Ru3 2.505431 1_455
As0 Ru5 2.506546 1_555
As0 Ru2 2.506553 1_555
As0 Ru0 2.537976 1_555
As0 Ru1 2.537982 1_455
As0 Sc0 2.710281 1_555
As0 Sc3 2.768622 1_545
As0 Hf0 2.951401 1_555
As1 Ru5 2.505429 1_555
As1 Ru2 2.505433 1_656
As1 Ru4 2.506548 1_555
As1 Ru3 2.506555 1_556
As1 Ru0 2.537972 1_555
As1 Ru1 2.537977 1_556
As1 Sc1 2.710277 1_556
As1 Sc2 2.768633 1_545
As1 Hf1 2.951398 1_556
As2 Ru2 2.573799 1_555
As2 Ru0 2.580644 1_554
As2 Ru4 2.588232 1_565
As2 Sc3 2.720826 1_555
As2 Sc1 2.721130 1_555
As2 Sc2 2.749523 1_555
As2 Sc0 2.759904 1_555
As2 Hf0 2.768851 1_554
As2 Hf1 2.773853 1_455
As3 Ru3 2.573799 1_565
As3 Ru0 2.580643 1_554
As3 Ru5 2.588232 1_565
As3 Sc2 2.720819 1_555
As3 Sc0 2.721130 1_554
As3 Sc3 2.749523 1_555
As3 Sc1 2.759903 1_565
As3 Hf1 2.768851 1_555
As3 Hf0 2.773853 1_665
As4 Ru4 2.573799 1_565
As4 Ru1 2.580643 1_455
As4 Ru2 2.588232 1_566
As4 Sc2 2.720818 1_455
As4 Sc0 2.721130 1_555
As4 Sc3 2.749517 1_556
As4 Sc1 2.759903 1_566
As4 Hf1 2.768851 1_455
As4 Hf0 2.773853 1_565
As5 Ru5 2.573799 1_555
As5 Ru1 2.580644 1_555
As5 Ru3 2.588232 1_566
As5 Sc3 2.720821 1_656
As5 Sc1 2.721130 1_555
As5 Sc2 2.749523 1_555
As5 Sc0 2.759903 1_555
As5 Hf0 2.768851 1_655
As5 Hf1 2.773853 1_556
Ru0 Ru4 2.810413 1_555
Ru0 Ru5 2.810414 1_555
Ru0 Sc2 2.952337 1_556
Ru0 Sc3 2.952342 1_556
Ru0 Sc1 3.163523 1_556
Ru0 Sc0 3.163523 1_555
Ru1 Ru3 2.810413 1_555
Ru1 Ru2 2.810414 1_655
Ru1 Sc2 2.952337 1_555
Ru1 Sc3 2.952337 1_656
Ru1 Sc1 3.163523 1_555
Ru1 Sc0 3.163523 1_655
Ru2 Sc2 2.944093 1_444
Ru2 Sc1 2.972259 1_555
Ru3 Sc3 2.944091 1_645
Ru3 Sc0 2.972259 1_544
Ru4 Sc3 2.944095 1_545
Ru4 Sc0 2.972259 1_545
Ru5 Sc2 2.944093 1_545
Ru5 Sc1 2.972260 1_555
