# generated using pymatgen
data_Hf7Ta(Ir2N)2
_symmetry_space_group_name_H-M   'P 1'
_cell_length_a   8.69861179
_cell_length_b   8.64380466
_cell_length_c   8.64380319
_cell_angle_alpha   59.52002178
_cell_angle_beta   59.79003426
_cell_angle_gamma   59.79002933
_symmetry_Int_Tables_number   1
_chemical_formula_structural   Hf7Ta(Ir2N)2
_chemical_formula_sum   'Hf14 Ta2 Ir8 N4'
_cell_volume   456.42450716
_cell_formula_units_Z   2
loop_
 _symmetry_equiv_pos_site_id
 _symmetry_equiv_pos_as_xyz
  1  'x, y, z'
loop_
 _atom_site_type_symbol
 _atom_site_label
 _atom_site_symmetry_multiplicity
 _atom_site_fract_x
 _atom_site_fract_y
 _atom_site_fract_z
 _atom_site_occupancy
  Hf  Hf0  1  0.62500000  0.12500000  0.62500000  1
  Hf  Hf1  1  0.62500000  0.62500000  0.12500000  1
  Hf  Hf2  1  0.81563573  0.81536669  0.18479369  1
  Hf  Hf3  1  0.18420290  0.18479369  0.81536669  1
  Hf  Hf4  1  0.81563573  0.18479369  0.81536669  1
  Hf  Hf5  1  0.18420290  0.81536669  0.18479369  1
  Hf  Hf6  1  0.18594238  0.81405762  0.81405762  1
  Hf  Hf7  1  0.81687915  0.18312085  0.18312085  1
  Hf  Hf8  1  0.43436427  0.43463331  0.06520631  1
  Hf  Hf9  1  0.06579710  0.06520631  0.43463331  1
  Hf  Hf10  1  0.43436427  0.06520631  0.43463331  1
  Hf  Hf11  1  0.06579710  0.43463331  0.06520631  1
  Hf  Hf12  1  0.06405762  0.43594238  0.43594238  1
  Hf  Hf13  1  0.43312085  0.06687915  0.06687915  1
  Ta  Ta0  1  0.12500000  0.62500000  0.62500000  1
  Ta  Ta1  1  0.62500000  0.62500000  0.62500000  1
  Ir  Ir0  1  0.77088883  0.41341253  0.41341253  1
  Ir  Ir1  1  0.40977748  0.76200652  0.41843952  1
  Ir  Ir2  1  0.40977748  0.41843952  0.76200652  1
  Ir  Ir3  1  0.40228711  0.41341253  0.41341253  1
  Ir  Ir4  1  0.47911117  0.83658747  0.83658747  1
  Ir  Ir5  1  0.84022252  0.48799348  0.83156048  1
  Ir  Ir6  1  0.84022252  0.83156048  0.48799348  1
  Ir  Ir7  1  0.84771289  0.83658747  0.83658747  1
  N  N0  1  0.62500000  0.12500000  0.12500000  1
  N  N1  1  0.12500000  0.62500000  0.12500000  1
  N  N2  1  0.12500000  0.12500000  0.62500000  1
  N  N3  1  0.12500000  0.12500000  0.12500000  1
loop_
_geom_bond_atom_site_label_1
_geom_bond_atom_site_label_2
_geom_bond_distance
_geom_bond_site_symmetry_2
Hf0 Ir2 2.716306 1_555
Hf0 Ir6 2.716306 1_545
Hf0 Ir7 2.718991 1_545
Hf0 Ir3 2.718991 1_555
Hf0 Ir0 2.718996 1_555
Hf0 Ir4 2.718996 1_545
Hf1 Ir1 2.716306 1_555
Hf1 Ir5 2.716306 1_554
Hf1 Ir7 2.718991 1_554
Hf1 Ir3 2.718991 1_555
Hf1 Ir0 2.718996 1_555
Hf1 Ir4 2.718996 1_554
Hf2 N0 2.274422 1_565
Hf2 N1 2.285478 1_655
Hf2 Ir7 2.795860 1_554
Hf2 Ir6 2.810743 1_555
Hf3 N3 2.274423 1_556
Hf3 N2 2.285472 1_555
Hf3 Ir4 2.795861 1_545
Hf3 Ir5 2.810743 1_455
Hf4 N0 2.274421 1_556
Hf4 N2 2.285478 1_655
Hf4 Ir7 2.795861 1_545
Hf4 Ir5 2.810743 1_555
Hf5 N3 2.274424 1_565
Hf5 N1 2.285472 1_555
Hf5 Ir4 2.795861 1_554
Hf5 Ir6 2.810743 1_455
Hf6 N1 2.271032 1_556
Hf6 N2 2.271032 1_565
Hf6 Ir4 2.759928 1_555
Hf6 Ir7 2.759936 1_455
Hf7 N0 2.287868 1_555
Hf7 N3 2.287868 1_655
Hf7 Ir5 2.830864 1_554
Hf7 Ir6 2.830864 1_545
Hf8 N0 2.274422 1_555
Hf8 N1 2.285478 1_555
Hf8 Ir3 2.795860 1_555
Hf8 Ir2 2.810743 1_554
Hf9 N3 2.274423 1_555
Hf9 N2 2.285472 1_555
Hf9 Ir0 2.795861 1_455
Hf9 Ir1 2.810743 1_545
Hf10 N0 2.274421 1_555
Hf10 N2 2.285478 1_555
Hf10 Ir3 2.795861 1_555
Hf10 Ir1 2.810743 1_545
Hf11 N3 2.274424 1_555
Hf11 N1 2.285472 1_555
Hf11 Ir0 2.795861 1_455
Hf11 Ir2 2.810743 1_554
Hf12 N1 2.271032 1_555
Hf12 N2 2.271032 1_555
Hf12 Ir0 2.759928 1_455
Hf12 Ir3 2.759936 1_555
Hf13 N0 2.287868 1_555
Hf13 N3 2.287868 1_555
Hf13 Ir1 2.830864 1_545
Hf13 Ir2 2.830864 1_554
Ir0 Ta1 2.649974 1_555
Ir1 Ta1 2.661369 1_555
Ir1 Ta0 2.661377 1_555
Ir2 Ta1 2.661369 1_555
Ir2 Ta0 2.661376 1_555
Ir3 Ta0 2.649976 1_555
Ir4 Ta1 2.649974 1_555
Ir5 Ta1 2.661369 1_555
Ir5 Ta0 2.661377 1_655
Ir6 Ta1 2.661369 1_555
Ir6 Ta0 2.661376 1_655
Ir7 Ta0 2.649976 1_655
