# generated using pymatgen
data_Zn24CuIrAu6
_symmetry_space_group_name_H-M   'P 1'
_cell_length_a   7.79523641
_cell_length_b   7.79523641
_cell_length_c   7.79523641
_cell_angle_alpha   90.00000000
_cell_angle_beta   90.00000000
_cell_angle_gamma   90.00000000
_symmetry_Int_Tables_number   1
_chemical_formula_structural   Zn24CuIrAu6
_chemical_formula_sum   'Zn24 Cu1 Ir1 Au6'
_cell_volume   473.68308106
_cell_formula_units_Z   1
loop_
 _symmetry_equiv_pos_site_id
 _symmetry_equiv_pos_as_xyz
  1  'x, y, z'
loop_
 _atom_site_type_symbol
 _atom_site_label
 _atom_site_symmetry_multiplicity
 _atom_site_fract_x
 _atom_site_fract_y
 _atom_site_fract_z
 _atom_site_occupancy
  Zn  Zn0  1  0.50000000  0.20462319  0.33627482  1
  Zn  Zn1  1  0.50000000  0.79537681  0.66372518  1
  Zn  Zn2  1  0.20462319  0.33627482  0.50000000  1
  Zn  Zn3  1  0.79537681  0.33627482  0.50000000  1
  Zn  Zn4  1  0.33627482  0.50000000  0.20462319  1
  Zn  Zn5  1  0.66372518  0.50000000  0.20462319  1
  Zn  Zn6  1  0.00000000  0.83631063  0.29075660  1
  Zn  Zn7  1  0.00000000  0.16368937  0.70924340  1
  Zn  Zn8  1  0.00000000  0.16368937  0.29075660  1
  Zn  Zn9  1  0.50000000  0.20462319  0.66372518  1
  Zn  Zn10  1  0.50000000  0.79537681  0.33627482  1
  Zn  Zn11  1  0.79537681  0.66372518  0.50000000  1
  Zn  Zn12  1  0.20462319  0.66372518  0.50000000  1
  Zn  Zn13  1  0.33627482  0.50000000  0.79537681  1
  Zn  Zn14  1  0.66372518  0.50000000  0.79537681  1
  Zn  Zn15  1  0.29075660  0.00000000  0.16368937  1
  Zn  Zn16  1  0.16368937  0.29075660  0.00000000  1
  Zn  Zn17  1  0.83631063  0.70924340  0.00000000  1
  Zn  Zn18  1  0.29075660  0.00000000  0.83631063  1
  Zn  Zn19  1  0.83631063  0.29075660  0.00000000  1
  Zn  Zn20  1  0.70924340  0.00000000  0.16368937  1
  Zn  Zn21  1  0.70924340  0.00000000  0.83631063  1
  Zn  Zn22  1  0.16368937  0.70924340  0.00000000  1
  Zn  Zn23  1  0.00000000  0.83631063  0.70924340  1
  Cu  Cu0  1  0.00000000  0.00000000  0.00000000  1
  Ir  Ir0  1  0.50000000  0.50000000  0.50000000  1
  Au  Au0  1  0.50000000  0.24551196  0.00000000  1
  Au  Au1  1  0.50000000  0.75448804  0.00000000  1
  Au  Au2  1  0.00000000  0.50000000  0.75448804  1
  Au  Au3  1  0.00000000  0.50000000  0.24551196  1
  Au  Au4  1  0.75448804  0.00000000  0.50000000  1
  Au  Au5  1  0.24551196  0.00000000  0.50000000  1
loop_
_geom_bond_atom_site_label_1
_geom_bond_atom_site_label_2
_geom_bond_distance
_geom_bond_site_symmetry_2
Zn0 Zn9 2.552553 1_555
Zn0 Zn20 2.648536 1_555
Zn0 Zn15 2.648536 1_555
Zn0 Zn3 2.825551 1_555
Zn0 Zn5 2.825551 1_555
Zn0 Zn4 2.825551 1_555
Zn0 Zn2 2.825551 1_555
Zn1 Zn10 2.552553 1_555
Zn1 Zn21 2.648536 1_565
Zn1 Zn18 2.648536 1_565
Zn1 Zn14 2.825551 1_555
Zn1 Zn11 2.825551 1_555
Zn1 Zn13 2.825551 1_555
Zn1 Zn12 2.825551 1_555
Zn2 Zn7 2.648536 1_555
Zn2 Zn8 2.648536 1_555
Zn2 Zn9 2.825551 1_555
Zn2 Zn4 2.825551 1_555
Zn3 Zn7 2.648536 1_655
Zn3 Zn8 2.648536 1_655
Zn3 Zn9 2.825551 1_555
Zn3 Zn5 2.825551 1_555
Zn4 Zn5 2.552553 1_555
Zn6 Zn8 2.551995 1_565
Zn10 Zn20 2.648536 1_565
Zn10 Zn15 2.648536 1_565
Zn10 Zn5 2.825551 1_555
Zn10 Zn4 2.825551 1_555
Zn10 Zn11 2.825551 1_555
Zn10 Zn12 2.825551 1_555
Zn11 Zn3 2.552553 1_555
Zn11 Zn23 2.648536 1_655
Zn11 Zn6 2.648536 1_655
Zn11 Zn14 2.825551 1_555
Zn11 Zn5 2.825551 1_555
Zn12 Zn2 2.552553 1_555
Zn12 Zn23 2.648536 1_555
Zn12 Zn6 2.648536 1_555
Zn12 Zn13 2.825551 1_555
Zn12 Zn4 2.825551 1_555
Zn13 Zn14 2.552553 1_555
Zn13 Zn22 2.648536 1_556
Zn13 Zn16 2.648536 1_556
Zn13 Zn2 2.825551 1_555
Zn13 Zn9 2.825551 1_555
Zn14 Zn17 2.648536 1_556
Zn14 Zn19 2.648536 1_556
Zn14 Zn3 2.825551 1_555
Zn14 Zn9 2.825551 1_555
Zn15 Zn18 2.551995 1_554
Zn15 Zn16 2.783234 1_555
Zn15 Zn8 2.783234 1_555
Zn15 Zn6 2.783234 1_545
Zn15 Zn22 2.783234 1_545
Zn16 Zn19 2.551995 1_455
Zn16 Zn4 2.648536 1_555
Zn16 Zn8 2.783234 1_555
Zn16 Zn18 2.783234 1_554
Zn16 Zn7 2.783234 1_554
Zn17 Zn22 2.551995 1_655
Zn17 Zn5 2.648536 1_555
Zn17 Zn6 2.783234 1_655
Zn17 Zn20 2.783234 1_565
Zn17 Zn21 2.783234 1_564
Zn17 Zn23 2.783234 1_654
Zn18 Zn9 2.648536 1_555
Zn18 Zn7 2.783234 1_555
Zn18 Zn23 2.783234 1_545
Zn18 Zn22 2.783234 1_546
Zn19 Zn5 2.648536 1_555
Zn19 Zn20 2.783234 1_555
Zn19 Zn8 2.783234 1_655
Zn19 Zn21 2.783234 1_554
Zn19 Zn7 2.783234 1_654
Zn20 Zn21 2.551995 1_554
Zn20 Zn8 2.783234 1_655
Zn20 Zn6 2.783234 1_645
Zn21 Zn9 2.648536 1_555
Zn21 Zn7 2.783234 1_655
Zn21 Zn23 2.783234 1_645
Zn22 Zn4 2.648536 1_555
Zn22 Zn6 2.783234 1_555
Zn22 Zn23 2.783234 1_554
Zn23 Zn7 2.551995 1_565
Cu0 Zn8 2.601012 1_555
Cu0 Zn16 2.601012 1_555
Cu0 Zn15 2.601012 1_555
Cu0 Zn6 2.601012 1_545
Cu0 Zn19 2.601012 1_455
Cu0 Zn18 2.601012 1_554
Cu0 Zn7 2.601012 1_554
Cu0 Zn22 2.601012 1_545
Cu0 Zn20 2.601012 1_455
Cu0 Zn23 2.601012 1_544
Cu0 Zn17 2.601012 1_445
Cu0 Zn21 2.601012 1_454
Ir0 Zn14 2.632591 1_555
Ir0 Zn1 2.632591 1_555
Ir0 Zn11 2.632591 1_555
Ir0 Zn13 2.632591 1_555
Ir0 Zn3 2.632591 1_555
Ir0 Zn10 2.632591 1_555
Ir0 Zn12 2.632591 1_555
Ir0 Zn5 2.632591 1_555
Ir0 Zn9 2.632591 1_555
Ir0 Zn2 2.632591 1_555
Ir0 Zn0 2.632591 1_555
Ir0 Zn4 2.632591 1_555
Au0 Zn0 2.640649 1_555
Au0 Zn9 2.640649 1_554
Au0 Zn19 2.645239 1_555
Au0 Zn16 2.645239 1_555
Au0 Zn20 2.819820 1_555
Au0 Zn21 2.819820 1_554
Au0 Zn15 2.819820 1_555
Au0 Zn18 2.819820 1_554
Au0 Zn5 2.847564 1_555
Au0 Zn4 2.847564 1_555
Au0 Zn14 2.847564 1_554
Au0 Zn13 2.847564 1_554
Au1 Zn10 2.640649 1_555
Au1 Zn1 2.640649 1_554
Au1 Zn17 2.645239 1_555
Au1 Zn22 2.645239 1_555
Au1 Zn20 2.819820 1_565
Au1 Zn21 2.819820 1_564
Au1 Zn15 2.819820 1_565
Au1 Zn18 2.819820 1_564
Au1 Zn5 2.847564 1_555
Au1 Zn4 2.847564 1_555
Au1 Zn14 2.847564 1_554
Au1 Zn13 2.847564 1_554
Au2 Zn13 2.640649 1_555
Au2 Zn14 2.640649 1_455
Au2 Zn23 2.645239 1_555
Au2 Zn7 2.645239 1_555
Au2 Zn22 2.819820 1_556
Au2 Zn17 2.819820 1_456
Au2 Zn16 2.819820 1_556
Au2 Zn19 2.819820 1_456
Au2 Zn12 2.847564 1_555
Au2 Zn2 2.847564 1_555
Au2 Zn11 2.847564 1_455
Au2 Zn3 2.847564 1_455
Au3 Zn4 2.640649 1_555
Au3 Zn5 2.640649 1_455
Au3 Zn6 2.645239 1_555
Au3 Zn8 2.645239 1_555
Au3 Zn22 2.819820 1_555
Au3 Zn17 2.819820 1_455
Au3 Zn16 2.819820 1_555
Au3 Zn19 2.819820 1_455
Au3 Zn12 2.847564 1_555
Au3 Zn2 2.847564 1_555
Au3 Zn11 2.847564 1_455
Au3 Zn3 2.847564 1_455
Au4 Zn3 2.640649 1_555
Au4 Zn11 2.640649 1_545
Au4 Zn21 2.645239 1_555
Au4 Zn20 2.645239 1_555
Au4 Zn7 2.819820 1_655
Au4 Zn23 2.819820 1_645
Au4 Zn8 2.819820 1_655
Au4 Zn6 2.819820 1_645
Au4 Zn9 2.847564 1_555
Au4 Zn0 2.847564 1_555
Au4 Zn1 2.847564 1_545
Au4 Zn10 2.847564 1_545
Au5 Zn2 2.640649 1_555
Au5 Zn12 2.640649 1_545
Au5 Zn18 2.645239 1_555
Au5 Zn15 2.645239 1_555
Au5 Zn7 2.819820 1_555
Au5 Zn23 2.819820 1_545
Au5 Zn8 2.819820 1_555
Au5 Zn6 2.819820 1_545
Au5 Zn9 2.847564 1_555
Au5 Zn0 2.847564 1_555
Au5 Zn1 2.847564 1_545
Au5 Zn10 2.847564 1_545
