# generated using pymatgen
data_Lu16Al4NiRh3
_symmetry_space_group_name_H-M   'P 1'
_cell_length_a   9.24220463
_cell_length_b   9.24220501
_cell_length_c   9.24220533
_cell_angle_alpha   60.00370233
_cell_angle_beta   60.00369873
_cell_angle_gamma   60.00369918
_symmetry_Int_Tables_number   1
_chemical_formula_structural   Lu16Al4NiRh3
_chemical_formula_sum   'Lu16 Al4 Ni1 Rh3'
_cell_volume   558.27505510
_cell_formula_units_Z   1
loop_
 _symmetry_equiv_pos_site_id
 _symmetry_equiv_pos_as_xyz
  1  'x, y, z'
loop_
 _atom_site_type_symbol
 _atom_site_label
 _atom_site_symmetry_multiplicity
 _atom_site_fract_x
 _atom_site_fract_y
 _atom_site_fract_z
 _atom_site_occupancy
  Lu  Lu0  1  0.60351015  0.60351015  0.60351015  1
  Lu  Lu1  1  0.60009751  0.60009751  0.19422706  1
  Lu  Lu2  1  0.60009751  0.19422706  0.60009751  1
  Lu  Lu3  1  0.19422706  0.60009751  0.60009751  1
  Lu  Lu4  1  0.06037798  0.44170826  0.44170826  1
  Lu  Lu5  1  0.44279783  0.05778407  0.05778407  1
  Lu  Lu6  1  0.44170826  0.06037798  0.44170826  1
  Lu  Lu7  1  0.05778407  0.44279783  0.05778407  1
  Lu  Lu8  1  0.44170826  0.44170826  0.06037798  1
  Lu  Lu9  1  0.05778407  0.05778407  0.44279783  1
  Lu  Lu10  1  0.18708428  0.81245337  0.81245337  1
  Lu  Lu11  1  0.81396268  0.18625682  0.18625682  1
  Lu  Lu12  1  0.81245337  0.18708428  0.81245337  1
  Lu  Lu13  1  0.18625682  0.81396268  0.18625682  1
  Lu  Lu14  1  0.81245337  0.81245337  0.18708428  1
  Lu  Lu15  1  0.18625682  0.18625682  0.81396268  1
  Al  Al0  1  0.82824204  0.82824204  0.82824204  1
  Al  Al1  1  0.82919639  0.82919639  0.51447029  1
  Al  Al2  1  0.82919639  0.51447029  0.82919639  1
  Al  Al3  1  0.51447029  0.82919639  0.82919639  1
  Ni  Ni0  1  0.39203965  0.39203965  0.39203965  1
  Rh  Rh0  1  0.39370870  0.39370870  0.82087681  1
  Rh  Rh1  1  0.39370870  0.82087681  0.39370870  1
  Rh  Rh2  1  0.82087681  0.39370870  0.39370870  1
loop_
_geom_bond_atom_site_label_1
_geom_bond_atom_site_label_2
_geom_bond_distance
_geom_bond_site_symmetry_2
Lu0 Rh2 2.743173 1_555
Lu0 Rh0 2.743173 1_555
Lu0 Rh1 2.743173 1_555
Lu1 Ni0 2.721127 1_555
Lu1 Rh1 2.748555 1_555
Lu1 Rh2 2.748555 1_555
Lu1 Lu13 3.334418 1_555
Lu1 Lu11 3.334418 1_555
Lu2 Ni0 2.721127 1_555
Lu2 Rh0 2.748555 1_555
Lu2 Rh2 2.748555 1_555
Lu3 Ni0 2.721127 1_555
Lu3 Rh1 2.748555 1_555
Lu3 Rh0 2.748555 1_555
Lu4 Ni0 2.685929 1_555
Lu4 Rh2 2.730157 1_455
Lu5 Rh0 2.725212 1_554
Lu5 Rh1 2.725212 1_545
Lu6 Ni0 2.685929 1_555
Lu6 Rh1 2.730157 1_545
Lu7 Rh0 2.725212 1_554
Lu7 Rh2 2.725212 1_455
Lu8 Ni0 2.685929 1_555
Lu8 Rh0 2.730157 1_554
Lu9 Rh1 2.725212 1_545
Lu9 Rh2 2.725212 1_455
Lu10 Rh0 3.329913 1_555
Lu10 Rh1 3.329913 1_555
Lu10 Lu15 3.457938 1_565
Lu10 Lu13 3.457938 1_556
Lu11 Lu2 3.334418 1_555
Lu11 Ni0 3.350531 1_555
Lu11 Rh2 3.358117 1_555
Lu11 Lu13 3.441011 1_645
Lu11 Lu15 3.441011 1_654
Lu11 Lu6 3.449378 1_555
Lu11 Lu8 3.449378 1_555
Lu11 Lu14 3.457938 1_545
Lu11 Lu12 3.457938 1_554
Lu11 Lu7 3.458547 1_655
Lu11 Lu9 3.458547 1_655
Lu12 Rh0 3.329913 1_555
Lu12 Rh2 3.329913 1_555
Lu12 Lu15 3.457938 1_655
Lu13 Lu3 3.334418 1_555
Lu13 Ni0 3.350531 1_555
Lu13 Rh1 3.358117 1_555
Lu13 Lu15 3.441011 1_564
Lu13 Lu8 3.449378 1_555
Lu13 Lu4 3.449378 1_555
Lu13 Lu14 3.457938 1_455
Lu13 Lu5 3.458547 1_565
Lu13 Lu9 3.458547 1_565
Lu14 Rh1 3.329913 1_555
Lu14 Rh2 3.329913 1_555
Lu15 Lu2 3.334418 1_555
Lu15 Lu3 3.334418 1_555
Lu15 Ni0 3.350531 1_555
Lu15 Rh0 3.358117 1_555
Lu15 Lu6 3.449378 1_555
Lu15 Lu4 3.449378 1_555
Lu15 Lu7 3.458547 1_556
Lu15 Lu5 3.458547 1_556
Al0 Al3 2.891150 1_555
Al0 Al2 2.891150 1_555
Al0 Al1 2.891151 1_555
Al0 Lu10 3.177297 1_655
Al0 Lu12 3.177297 1_565
Al0 Lu14 3.177297 1_556
Al0 Lu3 3.242851 1_655
Al0 Lu1 3.242851 1_556
Al0 Lu2 3.242851 1_565
Al0 Lu5 3.328457 1_566
Al0 Lu9 3.328458 1_665
Al0 Lu7 3.328458 1_656
Al1 Al3 2.908926 1_555
Al1 Al2 2.908926 1_555
Al1 Lu13 3.172513 1_655
Al1 Lu11 3.172514 1_565
Al1 Lu14 3.188014 1_555
Al1 Lu0 3.208784 1_555
Al1 Lu3 3.216036 1_655
Al1 Lu2 3.216036 1_565
Al1 Lu9 3.321089 1_665
Al1 Lu6 3.341132 1_565
Al1 Lu4 3.341132 1_655
Al2 Al3 2.908926 1_555
Al2 Lu15 3.172513 1_655
Al2 Lu11 3.172514 1_556
Al2 Lu12 3.188014 1_555
Al2 Lu0 3.208784 1_555
Al2 Lu3 3.216036 1_655
Al2 Lu1 3.216036 1_556
Al2 Lu7 3.321089 1_656
Al2 Lu8 3.341132 1_556
Al2 Lu4 3.341132 1_655
Al3 Lu15 3.172513 1_565
Al3 Lu13 3.172513 1_556
Al3 Lu10 3.188014 1_555
Al3 Lu0 3.208784 1_555
Al3 Lu2 3.216036 1_565
Al3 Lu1 3.216037 1_556
Al3 Lu5 3.321089 1_566
Al3 Lu8 3.341132 1_556
Al3 Lu6 3.341132 1_565
