# generated using pymatgen
data_Si12P12OsRh3
_symmetry_space_group_name_H-M   'P 1'
_cell_length_a   5.85605796
_cell_length_b   6.07430697
_cell_length_c   13.06671686
_cell_angle_alpha   90.10153767
_cell_angle_beta   90.02819572
_cell_angle_gamma   90.38316194
_symmetry_Int_Tables_number   1
_chemical_formula_structural   Si12P12OsRh3
_chemical_formula_sum   'Si12 P12 Os1 Rh3'
_cell_volume   464.79145425
_cell_formula_units_Z   1
loop_
 _symmetry_equiv_pos_site_id
 _symmetry_equiv_pos_as_xyz
  1  'x, y, z'
loop_
 _atom_site_type_symbol
 _atom_site_label
 _atom_site_symmetry_multiplicity
 _atom_site_fract_x
 _atom_site_fract_y
 _atom_site_fract_z
 _atom_site_occupancy
  Si  Si0  1  0.97911841  0.15202534  0.31530125  1
  Si  Si1  1  0.46728493  0.84009708  0.68219563  1
  Si  Si2  1  0.92712241  0.62491284  0.21540815  1
  Si  Si3  1  0.43075022  0.37309217  0.78582410  1
  Si  Si4  1  0.34163232  0.91388057  0.95111575  1
  Si  Si5  1  0.84154095  0.08764927  0.04731717  1
  Si  Si6  1  0.91537010  0.52890965  0.67363017  1
  Si  Si7  1  0.41297982  0.47441602  0.32814550  1
  Si  Si8  1  0.99733127  0.06104838  0.56920211  1
  Si  Si9  1  0.49933366  0.94148718  0.42992673  1
  Si  Si10  1  0.91157738  0.62738614  0.92800217  1
  Si  Si11  1  0.40828873  0.37446242  0.07279369  1
  P  P0  1  0.57800748  0.03067657  0.82536049  1
  P  P1  1  0.07764302  0.96587567  0.17186192  1
  P  P2  1  0.51880291  0.56129283  0.93071815  1
  P  P3  1  0.01695576  0.43949246  0.06979956  1
  P  P4  1  0.60982656  0.11445462  0.57400271  1
  P  P5  1  0.11357514  0.88096866  0.42534430  1
  P  P6  1  0.54194117  0.64405229  0.18100168  1
  P  P7  1  0.04393176  0.35856977  0.81907077  1
  P  P8  1  0.58356178  0.13521315  0.28880089  1
  P  P9  1  0.07915036  0.86846237  0.71003649  1
  P  P10  1  0.15055017  0.40216537  0.55233166  1
  P  P11  1  0.65432038  0.60286315  0.45011165  1
  Os  Os0  1  0.02502344  0.50982329  0.38172205  1
  Rh  Rh0  1  0.96584729  0.98757589  0.87881807  1
  Rh  Rh1  1  0.46650277  0.01421473  0.12107186  1
  Rh  Rh2  1  0.53583081  0.48493113  0.62108734  1
loop_
_geom_bond_atom_site_label_1
_geom_bond_atom_site_label_2
_geom_bond_distance
_geom_bond_site_symmetry_2
P0 Si4 2.261145 1_545
P0 Si1 2.289353 1_545
P0 Si3 2.316037 1_555
P0 Rh0 2.392052 1_545
P1 Si5 2.263390 1_465
P1 Si0 2.264210 1_465
P1 Si2 2.317433 1_455
P1 Rh1 2.388612 1_565
P2 Si3 2.267332 1_555
P2 Si11 2.269809 1_556
P2 Si10 2.332536 1_555
P2 Si4 2.400510 1_555
P3 Si10 2.265434 1_454
P3 Si2 2.273016 1_455
P3 Si11 2.328387 1_555
P3 Si5 2.382703 1_455
P4 Si9 2.247096 1_545
P4 Si8 2.295340 1_555
P4 Si1 2.337442 1_545
P4 Rh2 2.374644 1_555
P5 Si8 2.279761 1_465
P5 Si9 2.287049 1_555
P5 Si0 2.328745 1_465
P6 Si11 2.294987 1_555
P6 Si2 2.303532 1_555
P6 Si7 2.308002 1_555
P6 Rh1 2.425538 1_565
P7 Si6 2.294563 1_455
P7 Si10 2.302779 1_455
P7 Si3 2.307859 1_555
P7 Rh0 2.426890 1_445
P8 Si9 2.242628 1_545
P8 Si0 2.343497 1_555
P8 Si7 2.351978 1_555
P8 Rh1 2.408235 1_555
P9 Si8 2.235804 1_465
P9 Si1 2.309569 1_555
P9 Si6 2.317305 1_455
P9 Rh0 2.414504 1_455
P10 Si6 2.239112 1_455
P10 Si8 2.263626 1_455
P10 Rh2 2.476223 1_555
P11 Si7 2.263776 1_555
P11 Si9 2.269547 1_555
P11 Rh2 2.446702 1_555
Os0 Si0 2.352519 1_455
Os0 Si2 2.355765 1_455
Os0 P5 2.378208 1_555
Os0 Si7 2.388604 1_555
Os0 P11 2.418083 1_455
Os0 P10 2.438812 1_555
Rh0 Si10 2.301486 1_555
Rh0 Si5 2.397871 1_566
Rh0 Si4 2.438890 1_655
Rh1 Si11 2.305925 1_555
Rh1 Si4 2.413633 1_544
Rh1 Si5 2.437570 1_555
Rh2 Si1 2.336411 1_555
Rh2 Si6 2.339360 1_555
Rh2 Si3 2.339791 1_555
