# generated using pymatgen
data_Ba(Bi3Rh)4
_symmetry_space_group_name_H-M   'P 1'
_cell_length_a   8.49808419
_cell_length_b   8.49808503
_cell_length_c   8.49808544
_cell_angle_alpha   109.47122395
_cell_angle_beta   109.47122593
_cell_angle_gamma   109.47121993
_symmetry_Int_Tables_number   1
_chemical_formula_structural   Ba(Bi3Rh)4
_chemical_formula_sum   'Ba1 Bi12 Rh4'
_cell_volume   472.43412673
_cell_formula_units_Z   1
loop_
 _symmetry_equiv_pos_site_id
 _symmetry_equiv_pos_as_xyz
  1  'x, y, z'
loop_
 _atom_site_type_symbol
 _atom_site_label
 _atom_site_symmetry_multiplicity
 _atom_site_fract_x
 _atom_site_fract_y
 _atom_site_fract_z
 _atom_site_occupancy
  Ba  Ba0  1  0.00000000  0.00000000  0.00000000  1
  Bi  Bi0  1  0.83920897  0.66113878  0.50034774  1
  Bi  Bi1  1  0.16079103  0.33886122  0.49965226  1
  Bi  Bi2  1  0.16079103  0.66113878  0.82192981  1
  Bi  Bi3  1  0.83920897  0.33886122  0.17807019  1
  Bi  Bi4  1  0.66113878  0.50034774  0.83920897  1
  Bi  Bi5  1  0.33886122  0.49965226  0.16079103  1
  Bi  Bi6  1  0.66113878  0.82192981  0.16079103  1
  Bi  Bi7  1  0.33886122  0.17807019  0.83920897  1
  Bi  Bi8  1  0.50034774  0.83920897  0.66113878  1
  Bi  Bi9  1  0.49965226  0.16079103  0.33886122  1
  Bi  Bi10  1  0.17807019  0.83920897  0.33886122  1
  Bi  Bi11  1  0.82192981  0.16079103  0.66113878  1
  Rh  Rh0  1  0.50000000  0.50000000  0.50000000  1
  Rh  Rh1  1  0.50000000  0.00000000  0.00000000  1
  Rh  Rh2  1  0.00000000  0.50000000  0.00000000  1
  Rh  Rh3  1  0.00000000  0.00000000  0.50000000  1
loop_
_geom_bond_atom_site_label_1
_geom_bond_atom_site_label_2
_geom_bond_distance
_geom_bond_site_symmetry_2
Ba0 Bi9 3.680507 1_555
Ba0 Bi8 3.680507 1_444
Ba0 Bi5 3.680507 1_555
Ba0 Bi4 3.680507 1_444
Ba0 Bi3 3.680507 1_455
Ba0 Bi2 3.680507 1_544
Ba0 Bi1 3.680507 1_555
Ba0 Bi0 3.680507 1_444
Ba0 Bi7 3.680507 1_554
Ba0 Bi6 3.680507 1_445
Ba0 Bi10 3.680507 1_545
Ba0 Bi11 3.680507 1_454
Bi0 Rh0 2.746772 1_555
Bi0 Rh3 2.746772 1_665
Bi0 Bi2 3.155602 1_655
Bi0 Bi3 3.162427 1_555
Bi1 Rh0 2.746772 1_555
Bi1 Rh3 2.746772 1_555
Bi1 Bi3 3.155602 1_455
Bi1 Bi2 3.162427 1_555
Bi2 Rh1 2.746771 1_566
Bi2 Rh2 2.746772 1_556
Bi3 Rh1 2.746771 1_555
Bi3 Rh2 2.746772 1_655
Bi4 Rh2 2.746771 1_656
Bi4 Rh0 2.746772 1_555
Bi4 Bi6 3.155602 1_556
Bi4 Bi7 3.162427 1_555
Bi5 Rh2 2.746771 1_555
Bi5 Rh0 2.746772 1_555
Bi5 Bi7 3.155602 1_554
Bi5 Bi6 3.162427 1_555
Bi6 Rh3 2.746771 1_665
Bi6 Rh1 2.746772 1_565
Bi7 Rh3 2.746771 1_555
Bi7 Rh1 2.746772 1_556
Bi8 Rh0 2.746772 1_555
Bi8 Rh1 2.746772 1_566
Bi9 Rh0 2.746772 1_555
Bi9 Rh1 2.746772 1_555
Bi10 Rh2 2.746772 1_555
Bi10 Rh3 2.746772 1_565
Bi10 Bi9 3.155602 1_565
Bi10 Bi8 3.162427 1_555
Bi11 Rh2 2.746772 1_656
Bi11 Rh3 2.746772 1_655
Bi11 Bi8 3.155602 1_545
Bi11 Bi9 3.162427 1_555
