# generated using pymatgen
data_Na6SnI8
_symmetry_space_group_name_H-M   'P 1'
_cell_length_a   9.13812218
_cell_length_b   9.13812172
_cell_length_c   9.13812263
_cell_angle_alpha   60.00000363
_cell_angle_beta   60.00000530
_cell_angle_gamma   60.00000386
_symmetry_Int_Tables_number   1
_chemical_formula_structural   Na6SnI8
_chemical_formula_sum   'Na6 Sn1 I8'
_cell_volume   539.58010016
_cell_formula_units_Z   1
loop_
 _symmetry_equiv_pos_site_id
 _symmetry_equiv_pos_as_xyz
  1  'x, y, z'
loop_
 _atom_site_type_symbol
 _atom_site_label
 _atom_site_symmetry_multiplicity
 _atom_site_fract_x
 _atom_site_fract_y
 _atom_site_fract_z
 _atom_site_occupancy
  Na  Na0  1  0.50000000  0.50000000  0.00000000  1
  Na  Na1  1  0.00000000  0.50000000  0.00000000  1
  Na  Na2  1  0.50000000  0.00000000  0.00000000  1
  Na  Na3  1  0.00000000  0.50000000  0.50000000  1
  Na  Na4  1  0.50000000  0.00000000  0.50000000  1
  Na  Na5  1  0.00000000  0.00000000  0.50000000  1
  Sn  Sn0  1  0.00000000  0.00000000  0.00000000  1
  I  I0  1  0.75231915  0.24768085  0.75231915  1
  I  I1  1  0.25000000  0.25000000  0.25000000  1
  I  I2  1  0.75000000  0.75000000  0.75000000  1
  I  I3  1  0.24768085  0.75231915  0.24768085  1
  I  I4  1  0.24768085  0.75231915  0.75231915  1
  I  I5  1  0.75231915  0.24768085  0.24768085  1
  I  I6  1  0.75231915  0.75231915  0.24768085  1
  I  I7  1  0.24768085  0.24768085  0.75231915  1
loop_
_geom_bond_atom_site_label_1
_geom_bond_atom_site_label_2
_geom_bond_distance
_geom_bond_site_symmetry_2
I0 Sn0 3.200843 1_656
I0 Na2 3.230953 1_556
I0 Na3 3.230953 1_655
I0 Na0 3.230953 1_556
I0 Na5 3.230953 1_655
I1 Na0 3.230814 1_555
I1 Na5 3.230814 1_555
I1 Na2 3.230814 1_555
I1 Na3 3.230814 1_555
I1 Na4 3.230814 1_555
I1 Na1 3.230814 1_555
I2 Na5 3.230814 1_665
I2 Na0 3.230814 1_556
I2 Na3 3.230814 1_655
I2 Na2 3.230814 1_566
I2 Na4 3.230814 1_565
I2 Na1 3.230814 1_656
I3 Sn0 3.200843 1_565
I3 Na2 3.230953 1_565
I3 Na3 3.230953 1_555
I3 Na0 3.230953 1_555
I3 Na5 3.230953 1_565
I4 Sn0 3.200843 1_566
I4 Na1 3.230953 1_556
I4 Na4 3.230953 1_565
I4 Na0 3.230953 1_556
I4 Na5 3.230953 1_565
I5 Sn0 3.200843 1_655
I5 Na1 3.230953 1_655
I5 Na4 3.230953 1_555
I5 Na0 3.230953 1_555
I5 Na5 3.230953 1_655
I6 Sn0 3.200843 1_665
I6 Na1 3.230953 1_655
I6 Na2 3.230953 1_565
I6 Na3 3.230953 1_655
I6 Na4 3.230953 1_565
I7 Sn0 3.200843 1_556
I7 Na1 3.230953 1_556
I7 Na2 3.230953 1_556
I7 Na3 3.230953 1_555
I7 Na4 3.230953 1_555
