# generated using pymatgen
data_Cs11Na(AsSe3)4
_symmetry_space_group_name_H-M   'P 1'
_cell_length_a   10.62221868
_cell_length_b   10.61774794
_cell_length_c   10.62228438
_cell_angle_alpha   88.44690163
_cell_angle_beta   88.43685539
_cell_angle_gamma   88.41767301
_symmetry_Int_Tables_number   1
_chemical_formula_structural   Cs11Na(AsSe3)4
_chemical_formula_sum   'Cs11 Na1 As4 Se12'
_cell_volume   1196.70537263
_cell_formula_units_Z   1
loop_
 _symmetry_equiv_pos_site_id
 _symmetry_equiv_pos_as_xyz
  1  'x, y, z'
loop_
 _atom_site_type_symbol
 _atom_site_label
 _atom_site_symmetry_multiplicity
 _atom_site_fract_x
 _atom_site_fract_y
 _atom_site_fract_z
 _atom_site_occupancy
  Cs  Cs0  1  0.79520282  0.19570809  0.69501993  1
  Cs  Cs1  1  0.69512861  0.79507020  0.19565194  1
  Cs  Cs2  1  0.19564544  0.69515113  0.79502063  1
  Cs  Cs3  1  0.31691455  0.31693201  0.31689033  1
  Cs  Cs4  1  0.18292550  0.32377072  0.68664961  1
  Cs  Cs5  1  0.32377602  0.68674976  0.18294563  1
  Cs  Cs6  1  0.68665518  0.18273887  0.32374975  1
  Cs  Cs7  1  0.82362524  0.82356726  0.82362418  1
  Cs  Cs8  1  0.41405349  0.07403145  0.93791476  1
  Cs  Cs9  1  0.07386123  0.93793976  0.41402608  1
  Cs  Cs10  1  0.93810633  0.41398194  0.07398112  1
  Na  Na0  1  0.63875960  0.63866674  0.63875635  1
  As  As0  1  0.02280172  0.02310553  0.02291870  1
  As  As1  1  0.46680762  0.95773852  0.52160552  1
  As  As2  1  0.95771452  0.52119592  0.46673767  1
  As  As3  1  0.52130511  0.46680204  0.95769348  1
  Se  Se0  1  0.30233446  0.41279868  0.98643833  1
  Se  Se1  1  0.80494375  0.09145005  0.02076473  1
  Se  Se2  1  0.68589775  0.88563342  0.51803136  1
  Se  Se3  1  0.09121097  0.02093133  0.80513133  1
  Se  Se4  1  0.51805756  0.68591366  0.88578256  1
  Se  Se5  1  0.02103251  0.80525121  0.09126528  1
  Se  Se6  1  0.41231674  0.98643352  0.30280808  1
  Se  Se7  1  0.98654839  0.30218902  0.41224333  1
  Se  Se8  1  0.88582115  0.51788887  0.68587126  1
  Se  Se9  1  0.59798657  0.47407552  0.16628915  1
  Se  Se10  1  0.47424328  0.16635330  0.59809938  1
  Se  Se11  1  0.16632790  0.59793547  0.47409355  1
loop_
_geom_bond_atom_site_label_1
_geom_bond_atom_site_label_2
_geom_bond_distance
_geom_bond_site_symmetry_2
Cs0 Se8 3.577263 1_555
Cs0 Se1 3.607543 1_556
Cs0 Se10 3.612197 1_555
Cs0 Se7 3.747199 1_555
Cs0 Se3 3.802490 1_655
Cs0 Se2 4.048144 1_545
Cs1 Se2 3.579912 1_555
Cs1 Se5 3.609729 1_655
Cs1 Se9 3.612137 1_555
Cs1 Se6 3.748369 1_555
Cs1 Se1 3.805553 1_565
Cs1 Se4 4.047229 1_554
Cs2 Se4 3.581111 1_555
Cs2 Se3 3.606785 1_565
Cs2 Se11 3.612477 1_555
Cs2 Se0 3.743519 1_555
Cs2 Se5 3.803990 1_556
Cs2 Se8 4.047963 1_455
Cs3 Se6 3.631425 1_545
Cs3 Se7 3.632198 1_455
Cs3 Se0 3.634356 1_554
Cs3 Se11 3.756304 1_555
Cs3 Se9 3.758559 1_555
Cs3 Se10 3.760000 1_555
Cs4 Se3 3.571979 1_555
Cs4 Se10 3.590923 1_555
Cs4 Se0 3.618393 1_555
Cs4 Se11 3.638677 1_555
Cs4 Se7 3.646128 1_455
Cs4 Se8 3.721453 1_455
Cs5 Se5 3.571261 1_555
Cs5 Se11 3.591336 1_555
Cs5 Se6 3.616730 1_555
Cs5 Se9 3.639324 1_555
Cs5 Se0 3.641616 1_554
Cs5 Se4 3.723958 1_554
Cs6 Se1 3.571770 1_555
Cs6 Se9 3.591377 1_555
Cs6 Se7 3.618135 1_555
Cs6 Se10 3.639950 1_555
Cs6 Se6 3.644406 1_545
Cs6 Se2 3.722637 1_545
Cs7 Se1 3.575430 1_566
Cs7 Se3 3.575628 1_665
Cs7 Se5 3.576310 1_656
Cs7 Se8 3.632888 1_555
Cs7 Se4 3.633203 1_555
Cs7 Se2 3.633398 1_555
Cs8 Se10 3.757111 1_555
Cs8 Se0 3.800440 1_555
Cs8 Se3 3.805415 1_555
Cs8 Se6 3.961114 1_546
Cs8 Se1 4.277781 1_556
Cs8 Se4 4.283474 1_545
Cs9 Se11 3.757395 1_555
Cs9 Se6 3.797819 1_555
Cs9 Se5 3.803227 1_555
Cs9 Se7 3.951840 1_465
Cs9 Se3 4.280062 1_565
Cs9 Se2 4.284464 1_455
Cs10 Se9 3.759574 1_555
Cs10 Se7 3.797388 1_555
Cs10 Se1 3.803157 1_555
Cs10 Se0 3.954114 1_654
Cs10 Se5 4.280294 1_655
Cs10 Se8 4.285569 1_554
Na0 Se2 2.937088 1_555
Na0 Se4 2.938209 1_555
Na0 Se8 2.938225 1_555
As0 Se5 2.405948 1_545
As0 Se3 2.406374 1_554
As0 Se1 2.406570 1_455
As1 Se10 2.384008 1_565
As1 Se6 2.419648 1_555
As1 Se2 2.429383 1_555
As2 Se11 2.386000 1_655
As2 Se7 2.420772 1_555
As2 Se8 2.429542 1_555
As3 Se9 2.385422 1_556
As3 Se0 2.420226 1_555
As3 Se4 2.428542 1_555
