# generated using pymatgen
data_Ba2CdIn3Pd2
_symmetry_space_group_name_H-M   'P 1'
_cell_length_a   6.22282512
_cell_length_b   6.22282616
_cell_length_c   8.11587296
_cell_angle_alpha   89.97930038
_cell_angle_beta   90.02069913
_cell_angle_gamma   136.42316674
_symmetry_Int_Tables_number   1
_chemical_formula_structural   Ba2CdIn3Pd2
_chemical_formula_sum   'Ba2 Cd1 In3 Pd2'
_cell_volume   216.63845990
_cell_formula_units_Z   1
loop_
 _symmetry_equiv_pos_site_id
 _symmetry_equiv_pos_as_xyz
  1  'x, y, z'
loop_
 _atom_site_type_symbol
 _atom_site_label
 _atom_site_symmetry_multiplicity
 _atom_site_fract_x
 _atom_site_fract_y
 _atom_site_fract_z
 _atom_site_occupancy
  Ba  Ba0  1  0.55136873  0.44863127  0.24629273  1
  Ba  Ba1  1  0.44971245  0.55028755  0.75117099  1
  Cd  Cd0  1  0.83167932  0.16832068  0.05775229  1
  In  In0  1  0.16844168  0.83155832  0.94478109  1
  In  In1  1  0.16558583  0.83441417  0.55901979  1
  In  In2  1  0.83445343  0.16554657  0.43968859  1
  Pd  Pd0  1  0.27826522  0.72173478  0.25528276  1
  Pd  Pd1  1  0.72049234  0.27950766  0.74601176  1
loop_
_geom_bond_atom_site_label_1
_geom_bond_atom_site_label_2
_geom_bond_distance
_geom_bond_site_symmetry_2
Ba0 Pd0 3.157005 1_555
Ba0 Pd0 3.495127 1_655
Ba0 Pd0 3.495128 1_545
Ba0 Cd0 3.583174 1_555
Ba0 In0 3.627141 1_654
Ba0 In0 3.627142 1_544
Ba0 In2 3.627969 1_555
Ba0 In1 3.676481 1_655
Ba0 In1 3.676481 1_545
Ba0 In2 3.753100 1_455
Ba0 In2 3.753100 1_565
Ba0 Cd0 3.757563 1_455
Ba0 Cd0 3.757564 1_565
Ba1 Pd1 3.129576 1_555
Ba1 Pd1 3.514819 1_455
Ba1 Pd1 3.514820 1_565
Ba1 In0 3.610938 1_555
Ba1 In1 3.634487 1_555
Ba1 Cd0 3.659156 1_456
Ba1 Cd0 3.659157 1_566
Ba1 In2 3.673861 1_455
Ba1 In2 3.673862 1_565
Ba1 In1 3.740841 1_655
Ba1 In1 3.740842 1_545
Ba1 In0 3.767042 1_655
Ba1 In0 3.767043 1_545
Cd0 Pd1 2.837194 1_554
Cd0 Pd0 2.878709 1_545
Cd0 Pd0 2.878709 1_655
Cd0 In2 3.099900 1_555
Cd0 In0 3.119800 1_544
Cd0 In0 3.119801 1_654
In0 Pd0 2.821115 1_556
In0 Pd1 2.880987 1_565
In0 Pd1 2.880987 1_455
In0 In1 3.130951 1_555
In1 Pd0 2.788343 1_555
In1 Pd1 2.835511 1_565
In1 Pd1 2.835511 1_455
In1 In2 3.175373 1_565
In1 In2 3.175374 1_455
In2 Pd1 2.813827 1_555
In2 Pd0 2.827697 1_545
In2 Pd0 2.827697 1_655
