# generated using pymatgen
data_Li3Mn3O8
_symmetry_space_group_name_H-M   'P 1'
_cell_length_a   5.89887975
_cell_length_b   5.89888020
_cell_length_c   5.89887975
_cell_angle_alpha   58.97401112
_cell_angle_beta   58.97401072
_cell_angle_gamma   58.97400379
_symmetry_Int_Tables_number   1
_chemical_formula_structural   Li3Mn3O8
_chemical_formula_sum   'Li3 Mn3 O8'
_cell_volume   141.74485990
_cell_formula_units_Z   1
loop_
 _symmetry_equiv_pos_site_id
 _symmetry_equiv_pos_as_xyz
  1  'x, y, z'
loop_
 _atom_site_type_symbol
 _atom_site_label
 _atom_site_symmetry_multiplicity
 _atom_site_fract_x
 _atom_site_fract_y
 _atom_site_fract_z
 _atom_site_occupancy
  Li  Li0  1  0.00398200  0.00398200  0.00398200  1
  Li  Li1  1  0.24601800  0.24601800  0.24601800  1
  Li  Li2  1  0.62500000  0.62500000  0.62500000  1
  Mn  Mn0  1  0.12500000  0.62500000  0.62500000  1
  Mn  Mn1  1  0.62500000  0.12500000  0.62500000  1
  Mn  Mn2  1  0.62500000  0.62500000  0.12500000  1
  O  O0  1  0.38690400  0.38690400  0.38690400  1
  O  O1  1  0.37568800  0.37568800  0.83413800  1
  O  O2  1  0.37568800  0.83413800  0.37568800  1
  O  O3  1  0.83413800  0.37568800  0.37568800  1
  O  O4  1  0.41586200  0.87431200  0.87431200  1
  O  O5  1  0.87431200  0.87431200  0.41586200  1
  O  O6  1  0.87431200  0.41586200  0.87431200  1
  O  O7  1  0.86309600  0.86309600  0.86309600  1
loop_
_geom_bond_atom_site_label_1
_geom_bond_atom_site_label_2
_geom_bond_distance
_geom_bond_site_symmetry_2
Li0 O4 1.960827 1_544
Li0 O5 1.960827 1_445
Li0 O6 1.960827 1_454
Li0 O7 2.051339 1_444
Li1 O3 1.960827 1_455
Li1 O1 1.960827 1_554
Li1 O2 1.960827 1_545
Li1 O0 2.051339 1_555
Li2 O2 2.082456 1_555
Li2 O6 2.082456 1_555
Li2 O3 2.082457 1_555
Li2 O4 2.082457 1_555
Li2 O1 2.082457 1_555
Li2 O5 2.082457 1_555
Mn0 O5 1.907888 1_455
Mn0 O1 1.907888 1_555
Mn0 O6 1.907888 1_455
Mn0 O2 1.907888 1_555
Mn0 O7 1.972797 1_455
Mn0 O0 1.972797 1_555
Mn1 O5 1.907888 1_545
Mn1 O1 1.907888 1_555
Mn1 O4 1.907888 1_545
Mn1 O3 1.907888 1_555
Mn1 O7 1.972797 1_545
Mn1 O0 1.972797 1_555
Mn2 O4 1.907888 1_554
Mn2 O3 1.907888 1_555
Mn2 O6 1.907888 1_554
Mn2 O2 1.907888 1_555
Mn2 O7 1.972797 1_554
Mn2 O0 1.972797 1_555
