# generated using pymatgen
data_Li12VReN8
_symmetry_space_group_name_H-M   'P 1'
_cell_length_a   6.56190174
_cell_length_b   6.56190174
_cell_length_c   4.85753285
_cell_angle_alpha   90.00000000
_cell_angle_beta   90.00000000
_cell_angle_gamma   90.00000000
_symmetry_Int_Tables_number   1
_chemical_formula_structural   Li12VReN8
_chemical_formula_sum   'Li12 V1 Re1 N8'
_cell_volume   209.15834248
_cell_formula_units_Z   1
loop_
 _symmetry_equiv_pos_site_id
 _symmetry_equiv_pos_as_xyz
  1  'x, y, z'
loop_
 _atom_site_type_symbol
 _atom_site_label
 _atom_site_symmetry_multiplicity
 _atom_site_fract_x
 _atom_site_fract_y
 _atom_site_fract_z
 _atom_site_occupancy
  Li  Li0  1  0.00000000  0.50000000  0.57843428  1
  Li  Li1  1  0.50000000  0.00000000  0.90042085  1
  Li  Li2  1  0.50000000  0.00000000  0.42156572  1
  Li  Li3  1  0.00000000  0.50000000  0.09957915  1
  Li  Li4  1  0.22471358  0.22471358  0.50000000  1
  Li  Li5  1  0.77528642  0.77528642  0.50000000  1
  Li  Li6  1  0.70328696  0.70328696  0.00000000  1
  Li  Li7  1  0.29671304  0.29671304  0.00000000  1
  Li  Li8  1  0.77528642  0.22471358  0.50000000  1
  Li  Li9  1  0.22471358  0.77528642  0.50000000  1
  Li  Li10  1  0.29671304  0.70328696  0.00000000  1
  Li  Li11  1  0.70328696  0.29671304  0.00000000  1
  V  V0  1  0.50000000  0.50000000  0.50000000  1
  Re  Re0  1  0.00000000  0.00000000  0.00000000  1
  N  N0  1  0.25979965  0.50000000  0.30733656  1
  N  N1  1  0.74020035  0.50000000  0.30733656  1
  N  N2  1  0.76292025  0.00000000  0.19911174  1
  N  N3  1  0.23707975  0.00000000  0.19911174  1
  N  N4  1  0.50000000  0.25979965  0.69266344  1
  N  N5  1  0.50000000  0.74020035  0.69266344  1
  N  N6  1  0.00000000  0.76292025  0.80088826  1
  N  N7  1  0.00000000  0.23707975  0.80088826  1
loop_
_geom_bond_atom_site_label_1
_geom_bond_atom_site_label_2
_geom_bond_distance
_geom_bond_site_symmetry_2
Li0 N6 2.035721 1_555
Li0 N7 2.035721 1_555
Li0 N0 2.154161 1_555
Li0 N1 2.154161 1_455
Li1 N4 1.981094 1_555
Li1 N5 1.981094 1_545
Li1 N2 2.254246 1_556
Li1 N3 2.254246 1_556
Li2 N2 2.035721 1_555
Li2 N3 2.035721 1_555
Li2 N4 2.154161 1_555
Li2 N5 2.154161 1_545
Li3 N0 1.981094 1_555
Li3 N1 1.981094 1_455
Li3 N6 2.254246 1_554
Li3 N7 2.254246 1_554
Li4 N4 2.047424 1_555
Li4 N0 2.047424 1_555
Li4 N7 2.077758 1_555
Li4 N3 2.077758 1_555
Li5 N5 2.047424 1_555
Li5 N1 2.047424 1_555
Li5 N6 2.077758 1_655
Li5 N2 2.077758 1_565
Li6 N1 2.016639 1_555
Li6 N5 2.016639 1_554
Li6 N2 2.208936 1_565
Li6 N6 2.208936 1_654
Li7 N0 2.016639 1_555
Li7 N4 2.016639 1_554
Li7 N3 2.208936 1_555
Li7 N7 2.208936 1_554
Li8 N4 2.047424 1_555
Li8 N1 2.047424 1_555
Li8 N2 2.077758 1_555
Li8 N7 2.077758 1_655
Li9 N0 2.047424 1_555
Li9 N5 2.047424 1_555
Li9 N6 2.077758 1_555
Li9 N3 2.077758 1_565
Li10 N0 2.016639 1_555
Li10 N5 2.016639 1_554
Li10 N6 2.208936 1_554
Li10 N3 2.208936 1_565
Li11 N4 2.016639 1_554
Li11 N1 2.016639 1_555
Li11 N2 2.208936 1_555
Li11 N7 2.208936 1_654
N0 V0 1.833076 1_555
N1 V0 1.833076 1_555
N2 Re0 1.831842 1_655
N3 Re0 1.831842 1_555
N4 V0 1.833076 1_555
N5 V0 1.833076 1_555
N6 Re0 1.831842 1_566
N7 Re0 1.831842 1_556
