# generated using pymatgen
data_Rb3Cu2AgP2
_symmetry_space_group_name_H-M   'P 1'
_cell_length_a   7.66367246
_cell_length_b   7.63388335
_cell_length_c   7.66367296
_cell_angle_alpha   46.68094921
_cell_angle_beta   45.50292296
_cell_angle_gamma   46.68095115
_symmetry_Int_Tables_number   1
_chemical_formula_structural   Rb3Cu2AgP2
_chemical_formula_sum   'Rb3 Cu2 Ag1 P2'
_cell_volume   213.70546086
_cell_formula_units_Z   1
loop_
 _symmetry_equiv_pos_site_id
 _symmetry_equiv_pos_as_xyz
  1  'x, y, z'
loop_
 _atom_site_type_symbol
 _atom_site_label
 _atom_site_symmetry_multiplicity
 _atom_site_fract_x
 _atom_site_fract_y
 _atom_site_fract_z
 _atom_site_occupancy
  Rb  Rb0  1  0.90275339  0.91817087  0.90275339  1
  Rb  Rb1  1  0.50000000  0.50000000  0.50000000  1
  Rb  Rb2  1  0.09724661  0.08182913  0.09724661  1
  Cu  Cu0  1  0.00000000  0.50000000  0.50000000  1
  Cu  Cu1  1  0.50000000  0.50000000  0.00000000  1
  Ag  Ag0  1  0.50000000  0.00000000  0.50000000  1
  P  P0  1  0.24557021  0.28805783  0.24557021  1
  P  P1  1  0.75442979  0.71194217  0.75442979  1
loop_
_geom_bond_atom_site_label_1
_geom_bond_atom_site_label_2
_geom_bond_distance
_geom_bond_site_symmetry_2
Rb0 Rb1 3.786203 1_556
Rb0 Rb1 3.786203 1_655
Rb0 Rb1 3.809765 1_565
Rb1 Rb2 3.786203 1_556
Rb1 Rb2 3.786203 1_655
Rb1 Rb2 3.809765 1_565
Cu0 P1 2.228997 1_455
Cu0 P0 2.228997 1_555
Cu0 Rb2 3.509545 1_565
Cu0 Rb0 3.509545 1_445
Cu0 Rb2 3.628296 1_556
Cu0 Rb0 3.628296 1_454
Cu0 Rb1 3.831836 1_455
Cu0 Rb1 3.831836 1_555
Cu1 P1 2.228996 1_554
Cu1 P0 2.228996 1_555
Cu1 Rb2 3.509546 1_565
Cu1 Rb0 3.509546 1_544
Cu1 Rb2 3.628295 1_655
Cu1 Rb0 3.628295 1_454
Cu1 Rb1 3.831836 1_555
Cu1 Rb1 3.831836 1_554
Ag0 P1 2.449966 1_545
Ag0 P0 2.449966 1_555
Ag0 Rb2 3.513025 1_655
Ag0 Rb0 3.513025 1_445
Ag0 Rb2 3.513026 1_556
Ag0 Rb0 3.513026 1_544
Ag0 Rb1 3.816942 1_545
Ag0 Rb1 3.816942 1_555
P0 Rb2 3.432902 1_555
P0 Rb0 3.455100 1_454
P0 Rb0 3.515561 1_445
P0 Rb0 3.515561 1_544
P0 Rb1 3.885130 1_455
P0 Rb1 3.885130 1_554
P1 Rb0 3.432902 1_555
P1 Rb2 3.455100 1_656
P1 Rb2 3.515561 1_665
P1 Rb2 3.515561 1_566
P1 Rb1 3.885130 1_655
P1 Rb1 3.885130 1_556
