# generated using pymatgen
data_Ca2CuReN4
_symmetry_space_group_name_H-M   'P 1'
_cell_length_a   5.75142413
_cell_length_b   5.92546424
_cell_length_c   6.50083336
_cell_angle_alpha   73.87544914
_cell_angle_beta   90.00000000
_cell_angle_gamma   90.00000000
_symmetry_Int_Tables_number   1
_chemical_formula_structural   Ca2CuReN4
_chemical_formula_sum   'Ca4 Cu2 Re2 N8'
_cell_volume   212.83185273
_cell_formula_units_Z   2
loop_
 _symmetry_equiv_pos_site_id
 _symmetry_equiv_pos_as_xyz
  1  'x, y, z'
loop_
 _atom_site_type_symbol
 _atom_site_label
 _atom_site_symmetry_multiplicity
 _atom_site_fract_x
 _atom_site_fract_y
 _atom_site_fract_z
 _atom_site_occupancy
  Ca  Ca0  1  0.25000000  0.26785148  0.05793974  1
  Ca  Ca1  1  0.75000000  0.73214852  0.94206026  1
  Ca  Ca2  1  0.75000000  0.77426565  0.43212313  1
  Ca  Ca3  1  0.25000000  0.22573435  0.56787687  1
  Cu  Cu0  1  0.75000000  0.28595422  0.31310199  1
  Cu  Cu1  1  0.25000000  0.71404578  0.68689801  1
  Re  Re0  1  0.25000000  0.72871484  0.19558053  1
  Re  Re1  1  0.75000000  0.27128516  0.80441947  1
  N  N0  1  0.50184596  0.46977136  0.75408761  1
  N  N1  1  0.00184596  0.53022864  0.24591239  1
  N  N2  1  0.49815404  0.53022864  0.24591239  1
  N  N3  1  0.99815404  0.46977136  0.75408761  1
  N  N4  1  0.75000000  0.07966685  0.62256605  1
  N  N5  1  0.25000000  0.92033315  0.37743395  1
  N  N6  1  0.75000000  0.09390019  0.08521022  1
  N  N7  1  0.25000000  0.90609981  0.91478978  1
loop_
_geom_bond_atom_site_label_1
_geom_bond_atom_site_label_2
_geom_bond_distance
_geom_bond_site_symmetry_2
Ca0 N3 2.473590 1_454
Ca0 N0 2.473590 1_554
Ca0 N5 2.485668 1_545
Ca0 N7 2.562967 1_544
Ca0 N2 2.646246 1_555
Ca0 N1 2.646246 1_555
Ca1 N1 2.473590 1_656
Ca1 N2 2.473590 1_556
Ca1 N4 2.485668 1_565
Ca1 N6 2.562967 1_566
Ca1 N0 2.646246 1_555
Ca1 N3 2.646246 1_555
Ca2 N4 2.460079 1_565
Ca2 N6 2.510113 1_565
Ca2 N1 2.574248 1_655
Ca2 N2 2.574248 1_555
Ca2 N3 2.752380 1_555
Ca2 N0 2.752380 1_555
Ca2 N5 2.995717 1_655
Ca2 N5 2.995717 1_555
Ca3 N5 2.460079 1_545
Ca3 N7 2.510113 1_545
Ca3 N3 2.574248 1_455
Ca3 N0 2.574248 1_555
Ca3 N2 2.752380 1_555
Ca3 N1 2.752380 1_555
Ca3 N4 2.995717 1_555
Ca3 N4 2.995717 1_455
Cu0 N1 2.008175 1_655
Cu0 N2 2.008175 1_555
Cu0 N4 2.043395 1_555
Cu0 N6 2.103884 1_555
Cu1 N3 2.008175 1_455
Cu1 N0 2.008175 1_555
Cu1 N5 2.043395 1_555
Cu1 N7 2.103884 1_555
N0 Re1 1.820325 1_555
N1 Re0 1.820325 1_555
N2 Re0 1.820325 1_555
N3 Re1 1.820325 1_555
N4 Re1 1.852667 1_555
N5 Re0 1.852667 1_555
N6 Re1 1.836047 1_554
N7 Re0 1.836047 1_556
