# generated using pymatgen
data_NaYCr2O8
_symmetry_space_group_name_H-M   'P 1'
_cell_length_a   5.92413022
_cell_length_b   5.92413023
_cell_length_c   5.92413081
_cell_angle_alpha   105.80266875
_cell_angle_beta   105.80266242
_cell_angle_gamma   117.08745601
_symmetry_Int_Tables_number   1
_chemical_formula_structural   NaYCr2O8
_chemical_formula_sum   'Na1 Y1 Cr2 O8'
_cell_volume   157.90105566
_cell_formula_units_Z   1
loop_
 _symmetry_equiv_pos_site_id
 _symmetry_equiv_pos_as_xyz
  1  'x, y, z'
loop_
 _atom_site_type_symbol
 _atom_site_label
 _atom_site_symmetry_multiplicity
 _atom_site_fract_x
 _atom_site_fract_y
 _atom_site_fract_z
 _atom_site_occupancy
  Na  Na0  1  0.00000000  0.00000000  0.00000000  1
  Y  Y0  1  0.25000000  0.75000000  0.50000000  1
  Cr  Cr0  1  0.75000000  0.25000000  0.50000000  1
  Cr  Cr1  1  0.50000000  0.50000000  0.00000000  1
  O  O0  1  0.91798743  0.59684649  0.67885906  1
  O  O1  1  0.46970723  0.65610507  0.81360116  1
  O  O2  1  0.84250391  0.65610507  0.18639884  1
  O  O3  1  0.91798743  0.23912837  0.32114094  1
  O  O4  1  0.34389493  0.15749609  0.81360116  1
  O  O5  1  0.76087163  0.08201257  0.67885906  1
  O  O6  1  0.40315351  0.08201257  0.32114094  1
  O  O7  1  0.34389493  0.53029277  0.18639884  1
loop_
_geom_bond_atom_site_label_1
_geom_bond_atom_site_label_2
_geom_bond_distance
_geom_bond_site_symmetry_2
Na0 O0 2.350463 1_444
Na0 O3 2.350463 1_455
Na0 O6 2.350463 1_555
Na0 O5 2.350463 1_454
Na0 O7 2.509129 1_555
Na0 O1 2.509130 1_444
Na0 O4 2.509134 1_554
Na0 O2 2.509134 1_445
Cr0 O0 1.647050 1_555
Cr0 O6 1.647050 1_555
Cr0 O3 1.647050 1_555
Cr0 O5 1.647050 1_555
Cr1 O7 1.645056 1_555
Cr1 O1 1.645056 1_554
Cr1 O4 1.645057 1_554
Cr1 O2 1.645057 1_555
O0 Y0 2.418276 1_655
O1 Y0 2.315201 1_555
O2 Y0 2.315198 1_655
O3 Y0 2.418276 1_655
O4 Y0 2.315198 1_545
O5 Y0 2.418276 1_545
O6 Y0 2.418276 1_545
O7 Y0 2.315201 1_555
