# generated using pymatgen
data_Hf16Rh8C3O
_symmetry_space_group_name_H-M   'P 1'
_cell_length_a   8.70081236
_cell_length_b   8.67684192
_cell_length_c   8.70081201
_cell_angle_alpha   59.90857762
_cell_angle_beta   60.00000506
_cell_angle_gamma   59.90857594
_symmetry_Int_Tables_number   1
_chemical_formula_structural   Hf16Rh8C3O
_chemical_formula_sum   'Hf16 Rh8 C3 O1'
_cell_volume   463.83634233
_cell_formula_units_Z   1
loop_
 _symmetry_equiv_pos_site_id
 _symmetry_equiv_pos_as_xyz
  1  'x, y, z'
loop_
 _atom_site_type_symbol
 _atom_site_label
 _atom_site_symmetry_multiplicity
 _atom_site_fract_x
 _atom_site_fract_y
 _atom_site_fract_z
 _atom_site_occupancy
  Hf  Hf0  1  0.12500000  0.62500000  0.62500000  1
  Hf  Hf1  1  0.62500000  0.12500000  0.62500000  1
  Hf  Hf2  1  0.62500000  0.62500000  0.12500000  1
  Hf  Hf3  1  0.62500000  0.62500000  0.62500000  1
  Hf  Hf4  1  0.81156901  0.81984315  0.18429392  1
  Hf  Hf5  1  0.18459169  0.18397515  0.81571658  1
  Hf  Hf6  1  0.81571658  0.18397515  0.81571658  1
  Hf  Hf7  1  0.18429392  0.81984315  0.18429392  1
  Hf  Hf8  1  0.18429392  0.81984315  0.81156901  1
  Hf  Hf9  1  0.81571658  0.18397515  0.18459169  1
  Hf  Hf10  1  0.43843099  0.43015685  0.06570608  1
  Hf  Hf11  1  0.06540831  0.06602485  0.43428342  1
  Hf  Hf12  1  0.43428342  0.06602485  0.43428342  1
  Hf  Hf13  1  0.06570608  0.43015685  0.06570608  1
  Hf  Hf14  1  0.06570608  0.43015685  0.43843099  1
  Hf  Hf15  1  0.43428342  0.06602485  0.06540831  1
  Rh  Rh0  1  0.76460990  0.41484560  0.41027125  1
  Rh  Rh1  1  0.41277591  0.76167126  0.41277591  1
  Rh  Rh2  1  0.41027125  0.41484560  0.76460990  1
  Rh  Rh3  1  0.41027125  0.41484560  0.41027125  1
  Rh  Rh4  1  0.48539010  0.83515440  0.83972875  1
  Rh  Rh5  1  0.83722409  0.48832874  0.83722409  1
  Rh  Rh6  1  0.83972875  0.83515440  0.48539010  1
  Rh  Rh7  1  0.83972875  0.83515440  0.83972875  1
  C  C0  1  0.62500000  0.12500000  0.12500000  1
  C  C1  1  0.12500000  0.12500000  0.62500000  1
  C  C2  1  0.12500000  0.12500000  0.12500000  1
  O  O0  1  0.12500000  0.62500000  0.12500000  1
loop_
_geom_bond_atom_site_label_1
_geom_bond_atom_site_label_2
_geom_bond_distance
_geom_bond_site_symmetry_2
Hf0 Rh2 2.686403 1_555
Hf0 Rh6 2.686403 1_455
Hf0 Rh7 2.686413 1_455
Hf0 Rh3 2.686413 1_555
Hf0 Rh1 2.691395 1_555
Hf0 Rh5 2.691395 1_455
Hf1 Rh2 2.715385 1_555
Hf1 Rh6 2.715385 1_545
Hf1 Rh0 2.715385 1_555
Hf1 Rh4 2.715385 1_545
Hf1 Rh7 2.715395 1_545
Hf1 Rh3 2.715395 1_555
Hf2 Rh0 2.686403 1_555
Hf2 Rh4 2.686403 1_554
Hf2 Rh7 2.686414 1_554
Hf2 Rh3 2.686414 1_555
Hf2 Rh1 2.691395 1_555
Hf2 Rh5 2.691395 1_554
Hf3 Rh4 2.686417 1_555
Hf3 Rh0 2.686417 1_555
Hf3 Rh6 2.686418 1_555
Hf3 Rh2 2.686418 1_555
Hf3 Rh5 2.691402 1_555
Hf3 Rh1 2.691402 1_555
Hf4 O0 2.325060 1_655
Hf4 Rh7 2.822121 1_554
Hf4 Rh6 2.822138 1_555
Hf5 Rh4 2.832577 1_545
Hf5 Rh5 2.840793 1_455
Hf6 Rh7 2.832569 1_545
Hf6 Rh5 2.840797 1_555
Hf7 O0 2.325060 1_555
Hf7 Rh4 2.822128 1_554
Hf7 Rh6 2.822128 1_455
Hf8 O0 2.325060 1_556
Hf8 Rh7 2.822121 1_455
Hf8 Rh4 2.822138 1_555
Hf9 Rh6 2.832577 1_545
Hf9 Rh5 2.840793 1_554
Hf10 O0 2.325060 1_555
Hf10 Rh3 2.822121 1_555
Hf10 Rh2 2.822138 1_554
Hf11 Rh0 2.832577 1_455
Hf11 Rh1 2.840793 1_545
Hf12 Rh3 2.832569 1_555
Hf12 Rh1 2.840797 1_545
Hf13 O0 2.325060 1_555
Hf13 Rh0 2.822128 1_455
Hf13 Rh2 2.822128 1_554
Hf14 O0 2.325060 1_555
Hf14 Rh3 2.822121 1_555
Hf14 Rh0 2.822138 1_455
Hf15 Rh2 2.832577 1_554
Hf15 Rh1 2.840793 1_545
C0 Hf10 2.251607 1_555
C0 Hf4 2.251607 1_545
C0 Hf9 2.293947 1_555
C0 Hf15 2.293947 1_555
C0 Hf12 2.293948 1_555
C0 Hf6 2.293948 1_554
C1 Hf14 2.251607 1_555
C1 Hf8 2.251607 1_545
C1 Hf5 2.293947 1_555
C1 Hf11 2.293947 1_555
C1 Hf12 2.293948 1_555
C1 Hf6 2.293948 1_455
C2 Hf13 2.251607 1_555
C2 Hf7 2.251607 1_545
C2 Hf11 2.293947 1_555
C2 Hf5 2.293947 1_554
C2 Hf15 2.293948 1_555
C2 Hf9 2.293948 1_455
