# generated using pymatgen
data_V2NiF12
_symmetry_space_group_name_H-M   'P 1'
_cell_length_a   5.18882784
_cell_length_b   10.52632828
_cell_length_c   5.22364649
_cell_angle_alpha   55.98002847
_cell_angle_beta   55.53199911
_cell_angle_gamma   56.38266040
_symmetry_Int_Tables_number   1
_chemical_formula_structural   V2NiF12
_chemical_formula_sum   'V2 Ni1 F12'
_cell_volume   182.86060033
_cell_formula_units_Z   1
loop_
 _symmetry_equiv_pos_site_id
 _symmetry_equiv_pos_as_xyz
  1  'x, y, z'
loop_
 _atom_site_type_symbol
 _atom_site_label
 _atom_site_symmetry_multiplicity
 _atom_site_fract_x
 _atom_site_fract_y
 _atom_site_fract_z
 _atom_site_occupancy
  V  V0  1  0.00909025  0.01125351  0.97926574  1
  V  V1  1  0.99090975  0.48874649  0.02073426  1
  Ni  Ni0  1  0.50000000  0.75000000  0.50000000  1
  F  F0  1  0.38314973  0.04291226  0.77444889  1
  F  F1  1  0.35433333  0.55889813  0.76450928  1
  F  F2  1  0.08088970  0.38833242  0.37444290  1
  F  F3  1  0.11445548  0.87942505  0.36094266  1
  F  F4  1  0.22942566  0.32199437  0.89826529  1
  F  F5  1  0.23566880  0.81833016  0.88703008  1
  F  F6  1  0.91911030  0.11166758  0.62555710  1
  F  F7  1  0.88554452  0.62057495  0.63905734  1
  F  F8  1  0.61685027  0.45708774  0.22555111  1
  F  F9  1  0.64566667  0.94110187  0.23549072  1
  F  F10  1  0.77057434  0.17800563  0.10173471  1
  F  F11  1  0.76433120  0.68166984  0.11296992  1
loop_
_geom_bond_atom_site_label_1
_geom_bond_atom_site_label_2
_geom_bond_distance
_geom_bond_site_symmetry_2
F0 V0 1.729080 1_555
F1 V1 1.863295 1_456
F1 Ni0 1.979478 1_555
F2 V1 1.730239 1_455
F3 V0 1.870156 1_564
F3 Ni0 1.976209 1_555
F4 V1 1.725364 1_456
F5 V0 1.883718 1_565
F5 Ni0 1.970275 1_555
F6 V0 1.730239 1_655
F7 V1 1.870156 1_556
F7 Ni0 1.976209 1_555
F8 V1 1.729080 1_555
F9 V0 1.863295 1_664
F9 Ni0 1.979478 1_555
F10 V0 1.725364 1_654
F11 V1 1.883718 1_555
F11 Ni0 1.970275 1_555
