# generated using pymatgen
data_Cs2VFeSe4
_symmetry_space_group_name_H-M   'P 1'
_cell_length_a   7.51614231
_cell_length_b   7.51614295
_cell_length_c   5.75207321
_cell_angle_alpha   79.12030385
_cell_angle_beta   79.12030314
_cell_angle_gamma   117.53909012
_symmetry_Int_Tables_number   1
_chemical_formula_structural   Cs2VFeSe4
_chemical_formula_sum   'Cs2 V1 Fe1 Se4'
_cell_volume   268.35991133
_cell_formula_units_Z   1
loop_
 _symmetry_equiv_pos_site_id
 _symmetry_equiv_pos_as_xyz
  1  'x, y, z'
loop_
 _atom_site_type_symbol
 _atom_site_label
 _atom_site_symmetry_multiplicity
 _atom_site_fract_x
 _atom_site_fract_y
 _atom_site_fract_z
 _atom_site_occupancy
  Cs  Cs0  1  0.14686202  0.85313798  0.00000000  1
  Cs  Cs1  1  0.85331326  0.14668674  0.50000000  1
  V  V0  1  0.50099441  0.49900559  0.00000000  1
  Fe  Fe0  1  0.49875251  0.50124749  0.50000000  1
  Se  Se0  1  0.21227767  0.41808055  0.85145460  1
  Se  Se1  1  0.58191945  0.78772233  0.14854540  1
  Se  Se2  1  0.78747072  0.58159104  0.66410109  1
  Se  Se3  1  0.41840896  0.21252928  0.33589891  1
loop_
_geom_bond_atom_site_label_1
_geom_bond_atom_site_label_2
_geom_bond_distance
_geom_bond_site_symmetry_2
Cs0 Se2 3.681860 1_454
Cs0 Se3 3.681860 1_565
Cs0 Se1 3.747965 1_555
Cs0 Se0 3.747965 1_554
Cs0 Se2 3.757385 1_455
Cs0 Se3 3.757385 1_564
Cs0 Se1 3.942487 1_455
Cs0 Se0 3.942487 1_564
Cs1 Se0 3.687218 1_654
Cs1 Se1 3.687218 1_546
Cs1 Se0 3.748815 1_655
Cs1 Se1 3.748815 1_545
Cs1 Se3 3.782229 1_555
Cs1 Se2 3.782229 1_555
Cs1 Se3 3.942378 1_655
Cs1 Se2 3.942378 1_545
Fe0 Se2 2.396123 1_555
Fe0 Se3 2.396123 1_555
Fe0 Se0 2.397700 1_555
Fe0 Se1 2.397700 1_555
Se0 V0 2.341941 1_556
Se1 V0 2.341942 1_555
Se2 V0 2.344252 1_556
Se3 V0 2.344252 1_555
