# generated using pymatgen
data_Rb7Na9(TiSe4)4
_symmetry_space_group_name_H-M   'P 1'
_cell_length_a   7.33756620
_cell_length_b   10.19035614
_cell_length_c   15.08721945
_cell_angle_alpha   90.00000000
_cell_angle_beta   90.16910710
_cell_angle_gamma   90.00000000
_symmetry_Int_Tables_number   1
_chemical_formula_structural   Rb7Na9(TiSe4)4
_chemical_formula_sum   'Rb7 Na9 Ti4 Se16'
_cell_volume   1128.10288764
_cell_formula_units_Z   1
loop_
 _symmetry_equiv_pos_site_id
 _symmetry_equiv_pos_as_xyz
  1  'x, y, z'
loop_
 _atom_site_type_symbol
 _atom_site_label
 _atom_site_symmetry_multiplicity
 _atom_site_fract_x
 _atom_site_fract_y
 _atom_site_fract_z
 _atom_site_occupancy
  Rb  Rb0  1  0.00818468  0.99627915  0.00048949  1
  Rb  Rb1  1  0.49815374  0.00058388  0.50009668  1
  Rb  Rb2  1  0.00818468  0.50372085  0.00048949  1
  Rb  Rb3  1  0.49815374  0.49941612  0.50009668  1
  Rb  Rb4  1  0.00657814  0.75000000  0.43586949  1
  Rb  Rb5  1  0.51189399  0.25000000  0.06486505  1
  Rb  Rb6  1  0.99389565  0.25000000  0.56732409  1
  Na  Na0  1  0.54869027  0.75000000  0.94694984  1
  Na  Na1  1  0.81966829  0.06056600  0.25325894  1
  Na  Na2  1  0.32103332  0.93817809  0.24232049  1
  Na  Na3  1  0.17401804  0.56636955  0.74817127  1
  Na  Na4  1  0.68256770  0.43689031  0.75954223  1
  Na  Na5  1  0.17401804  0.93363045  0.74817127  1
  Na  Na6  1  0.68256770  0.06310969  0.75954223  1
  Na  Na7  1  0.81966829  0.43943400  0.25325894  1
  Na  Na8  1  0.32103332  0.56182191  0.24232049  1
  Ti  Ti0  1  0.77074232  0.75000000  0.68901417  1
  Ti  Ti1  1  0.21048088  0.25000000  0.30915882  1
  Ti  Ti2  1  0.71077755  0.75000000  0.18516010  1
  Ti  Ti3  1  0.29484250  0.25000000  0.81438155  1
  Se  Se0  1  0.96978594  0.25000000  0.81585175  1
  Se  Se1  1  0.53614031  0.25000000  0.31054593  1
  Se  Se2  1  0.44738339  0.75000000  0.67640806  1
  Se  Se3  1  0.03574287  0.75000000  0.18566482  1
  Se  Se4  1  0.60371466  0.56274267  0.10724195  1
  Se  Se5  1  0.10475054  0.44000024  0.38423885  1
  Se  Se6  1  0.39816955  0.05411882  0.88704508  1
  Se  Se7  1  0.88664374  0.93941348  0.61663893  1
  Se  Se8  1  0.39816955  0.44588118  0.88704508  1
  Se  Se9  1  0.88664374  0.56058652  0.61663893  1
  Se  Se10  1  0.60371466  0.93725733  0.10724195  1
  Se  Se11  1  0.10475054  0.05999976  0.38423885  1
  Se  Se12  1  0.58226557  0.75000000  0.33226032  1
  Se  Se13  1  0.08104290  0.25000000  0.16188415  1
  Se  Se14  1  0.42019567  0.25000000  0.66675563  1
  Se  Se15  1  0.88573752  0.75000000  0.83981743  1
loop_
_geom_bond_atom_site_label_1
_geom_bond_atom_site_label_2
_geom_bond_distance
_geom_bond_site_symmetry_2
Rb0 Se6 3.390304 1_564
Rb0 Se10 3.433945 1_455
Rb0 Se13 3.590566 1_565
Rb0 Se15 3.601260 1_454
Rb0 Se3 3.760481 1_555
Rb0 Se0 3.810453 1_464
Rb1 Se7 3.402403 1_545
Rb1 Se11 3.424150 1_555
Rb1 Se14 3.621869 1_555
Rb1 Se12 3.650020 1_545
Rb1 Se2 3.706892 1_545
Rb1 Se1 3.836762 1_555
Rb2 Se8 3.390304 1_554
Rb2 Se4 3.433945 1_455
Rb2 Se13 3.590566 1_555
Rb2 Se15 3.601260 1_454
Rb2 Se3 3.760481 1_555
Rb2 Se0 3.810453 1_454
Rb3 Se9 3.402403 1_555
Rb3 Se5 3.424150 1_555
Rb3 Se14 3.621869 1_555
Rb3 Se12 3.650020 1_555
Rb3 Se2 3.706892 1_555
Rb3 Se1 3.836762 1_555
Rb4 Se11 3.332915 1_565
Rb4 Se5 3.332915 1_555
Rb4 Se7 3.457233 1_455
Rb4 Se9 3.457233 1_455
Rb4 Se12 3.479681 1_455
Rb4 Se3 3.781584 1_555
Rb5 Se4 3.319166 1_555
Rb5 Se10 3.319166 1_545
Rb5 Se8 3.444559 1_554
Rb5 Se6 3.444559 1_554
Rb5 Se13 3.487738 1_555
Rb5 Se1 3.710384 1_555
Rb6 Se9 3.345667 1_555
Rb6 Se7 3.345667 1_545
Rb6 Se14 3.465133 1_655
Rb6 Se5 3.471837 1_655
Rb6 Se11 3.471837 1_655
Rb6 Se0 3.754284 1_555
Na0 Se15 2.958441 1_555
Na0 Se10 3.105965 1_556
Na0 Se4 3.105965 1_556
Na0 Se6 3.411022 1_565
Na0 Se8 3.411022 1_555
Na1 Se11 2.873388 1_655
Na1 Se1 2.968528 1_555
Na1 Se10 2.987035 1_545
Na1 Se13 3.052987 1_655
Na2 Se10 2.912146 1_555
Na2 Se11 2.943505 1_565
Na2 Se3 2.962995 1_555
Na2 Se12 3.029404 1_555
Na3 Se9 2.891912 1_455
Na3 Se8 2.929551 1_555
Na3 Se2 2.951282 1_555
Na3 Se15 3.147236 1_455
Na4 Se8 2.843812 1_555
Na4 Se9 2.915237 1_555
Na4 Se0 2.963055 1_555
Na4 Se14 3.045836 1_555
Na5 Se7 2.891912 1_455
Na5 Se6 2.929551 1_565
Na5 Se2 2.951282 1_555
Na5 Se15 3.147236 1_455
Na6 Se6 2.843812 1_555
Na6 Se7 2.915237 1_545
Na6 Se0 2.963055 1_555
Na6 Se14 3.045836 1_555
Na7 Se5 2.873388 1_655
Na7 Se1 2.968528 1_555
Na7 Se4 2.987035 1_555
Na7 Se13 3.052987 1_655
Na8 Se4 2.912146 1_555
Na8 Se5 2.943505 1_555
Na8 Se3 2.962995 1_555
Na8 Se12 3.029404 1_555
Se0 Ti3 2.385293 1_655
Se1 Ti1 2.389577 1_555
Se2 Ti0 2.379719 1_555
Se3 Ti2 2.384444 1_455
Se4 Ti2 2.373804 1_555
Se5 Ti1 2.374644 1_555
Se6 Ti3 2.399204 1_555
Se7 Ti0 2.376277 1_555
Se8 Ti3 2.399204 1_555
Se9 Ti0 2.376277 1_555
Se10 Ti2 2.373804 1_555
Se11 Ti1 2.374644 1_555
Se12 Ti2 2.413913 1_555
Se13 Ti1 2.413859 1_555
Se14 Ti3 2.412221 1_555
Se15 Ti0 2.424291 1_555
