# generated using pymatgen
data_Sr3MoBr2O5
_symmetry_space_group_name_H-M   'P 1'
_cell_length_a   7.18480726
_cell_length_b   7.18480712
_cell_length_c   11.34476928
_cell_angle_alpha   90.00000000
_cell_angle_beta   90.00000000
_cell_angle_gamma   133.20784816
_symmetry_Int_Tables_number   1
_chemical_formula_structural   Sr3MoBr2O5
_chemical_formula_sum   'Sr6 Mo2 Br4 O10'
_cell_volume   426.85352369
_cell_formula_units_Z   2
loop_
 _symmetry_equiv_pos_site_id
 _symmetry_equiv_pos_as_xyz
  1  'x, y, z'
loop_
 _atom_site_type_symbol
 _atom_site_label
 _atom_site_symmetry_multiplicity
 _atom_site_fract_x
 _atom_site_fract_y
 _atom_site_fract_z
 _atom_site_occupancy
  Sr  Sr0  1  0.65937057  0.34062943  0.53473974  1
  Sr  Sr1  1  0.34062943  0.65937057  0.03473974  1
  Sr  Sr2  1  0.65937057  0.34062943  0.96526026  1
  Sr  Sr3  1  0.89456832  0.10543168  0.75000000  1
  Sr  Sr4  1  0.34062943  0.65937057  0.46526026  1
  Sr  Sr5  1  0.10543168  0.89456832  0.25000000  1
  Mo  Mo0  1  0.76122632  0.23877368  0.25000000  1
  Mo  Mo1  1  0.23877368  0.76122632  0.75000000  1
  Br  Br0  1  0.49920762  0.50079238  0.25000000  1
  Br  Br1  1  0.00000000  0.00000000  0.50000000  1
  Br  Br2  1  0.50079238  0.49920762  0.75000000  1
  Br  Br3  1  0.00000000  0.00000000  0.00000000  1
  O  O0  1  0.49591555  0.04887181  0.36481270  1
  O  O1  1  0.04887181  0.49591555  0.63518730  1
  O  O2  1  0.50408445  0.95112819  0.86481270  1
  O  O3  1  0.50408445  0.95112819  0.63518730  1
  O  O4  1  0.10921859  0.89078141  0.75000000  1
  O  O5  1  0.04887181  0.49591555  0.86481270  1
  O  O6  1  0.49591555  0.04887181  0.13518730  1
  O  O7  1  0.95112819  0.50408445  0.36481270  1
  O  O8  1  0.89078141  0.10921859  0.25000000  1
  O  O9  1  0.95112819  0.50408445  0.13518730  1
loop_
_geom_bond_atom_site_label_1
_geom_bond_atom_site_label_2
_geom_bond_distance
_geom_bond_site_symmetry_2
Mo0 O8 1.708595 1_555
Mo0 O7 1.905382 1_555
Mo0 O9 1.905382 1_555
Mo0 O0 1.905382 1_555
Mo0 O6 1.905382 1_555
Mo1 O4 1.708595 1_555
Mo1 O5 1.905382 1_555
Mo1 O1 1.905382 1_555
Mo1 O2 1.905382 1_555
Mo1 O3 1.905382 1_555
Br0 Sr5 3.178367 1_545
Br0 Sr5 3.178367 1_655
Br0 Sr4 3.215201 1_555
Br0 Sr1 3.215201 1_555
Br1 Sr3 3.158693 1_455
Br1 Sr5 3.158693 1_545
Br1 Sr4 3.565446 1_555
Br1 Sr0 3.565446 1_445
Br1 Sr0 3.565446 1_555
Br1 Sr4 3.565446 1_445
Br2 Sr3 3.178367 1_565
Br2 Sr3 3.178367 1_455
Br2 Sr2 3.215201 1_555
Br2 Sr0 3.215201 1_555
Br3 Sr3 3.158693 1_454
Br3 Sr5 3.158693 1_545
Br3 Sr1 3.565446 1_555
Br3 Sr2 3.565446 1_444
Br3 Sr2 3.565446 1_554
Br3 Sr1 3.565446 1_445
O0 Sr4 2.469739 1_545
O0 Sr0 2.473617 1_555
O0 Sr5 2.556910 1_545
O1 Sr0 2.469739 1_455
O1 Sr4 2.473617 1_555
O1 Sr3 2.556910 1_455
O2 Sr2 2.469739 1_565
O2 Sr1 2.473617 1_556
O2 Sr3 2.556910 1_565
O3 Sr0 2.469739 1_565
O3 Sr4 2.473617 1_555
O3 Sr3 2.556910 1_565
O4 Sr3 2.830844 1_465
O5 Sr2 2.469739 1_455
O5 Sr1 2.473617 1_556
O5 Sr3 2.556910 1_455
O6 Sr1 2.469739 1_545
O6 Sr2 2.473617 1_554
O6 Sr5 2.556910 1_545
O7 Sr4 2.469739 1_655
O7 Sr0 2.473617 1_555
O7 Sr5 2.556910 1_655
O8 Sr5 2.830844 1_645
O9 Sr1 2.469739 1_655
O9 Sr2 2.473617 1_554
O9 Sr5 2.556910 1_655
