# generated using pymatgen
data_Ta6Be15(GaCo3)2
_symmetry_space_group_name_H-M   'P 1'
_cell_length_a   7.57283287
_cell_length_b   7.57133336
_cell_length_c   7.57133402
_cell_angle_alpha   60.00181682
_cell_angle_beta   60.00824772
_cell_angle_gamma   60.00826039
_symmetry_Int_Tables_number   1
_chemical_formula_structural   Ta6Be15(GaCo3)2
_chemical_formula_sum   'Ta6 Be15 Ga2 Co6'
_cell_volume   307.00700448
_cell_formula_units_Z   1
loop_
 _symmetry_equiv_pos_site_id
 _symmetry_equiv_pos_as_xyz
  1  'x, y, z'
loop_
 _atom_site_type_symbol
 _atom_site_label
 _atom_site_symmetry_multiplicity
 _atom_site_fract_x
 _atom_site_fract_y
 _atom_site_fract_z
 _atom_site_occupancy
  Ta  Ta0  1  0.71639585  0.29591001  0.29591162  1
  Ta  Ta1  1  0.28360241  0.70409039  0.70409125  1
  Ta  Ta2  1  0.28360069  0.70408918  0.30822010  1
  Ta  Ta3  1  0.71639549  0.29591098  0.69178348  1
  Ta  Ta4  1  0.28360459  0.30821824  0.70408736  1
  Ta  Ta5  1  0.71639604  0.69178114  0.29591247  1
  Be  Be0  1  0.31785335  0.33227028  0.33226925  1
  Be  Be1  1  0.68214640  0.66772863  0.66773146  1
  Be  Be2  1  0.31786199  0.33227672  0.01759186  1
  Be  Be3  1  0.31786186  0.01759043  0.33227707  1
  Be  Be4  1  0.68213914  0.66772193  0.98240878  1
  Be  Be5  1  0.68213774  0.98240753  0.66772479  1
  Be  Be6  1  0.03077082  0.32307595  0.32307622  1
  Be  Be7  1  0.96922968  0.67692251  0.67692551  1
  Be  Be8  1  0.50000215  0.00000157  0.99999911  1
  Be  Be9  1  0.99998684  0.49999222  0.50001322  1
  Be  Be10  1  0.99999383  0.49998622  0.00002300  1
  Be  Be11  1  0.50001178  0.99999714  0.49999176  1
  Be  Be12  1  0.99998350  0.00000219  0.50001603  1
  Be  Be13  1  0.50000079  0.49999423  0.99999950  1
  Be  Be14  1  0.00000722  0.00003806  0.99995296  1
  Ga  Ga0  1  0.63867701  0.12044389  0.12043495  1
  Ga  Ga1  1  0.36133574  0.87954696  0.87956353  1
  Co  Co0  1  0.12419749  0.12053713  0.12053943  1
  Co  Co1  1  0.87580362  0.87945430  0.87946751  1
  Co  Co2  1  0.12419985  0.12053923  0.63472039  1
  Co  Co3  1  0.12419486  0.63473159  0.12053698  1
  Co  Co4  1  0.87580832  0.87946058  0.36526659  1
  Co  Co5  1  0.87579993  0.36528276  0.87946280  1
loop_
_geom_bond_atom_site_label_1
_geom_bond_atom_site_label_2
_geom_bond_distance
_geom_bond_site_symmetry_2
Ta0 Ta5 2.997276 1_555
Ta0 Ta3 2.997280 1_555
Ta0 Ta4 3.187096 1_555
Ta0 Ta2 3.187125 1_555
Ta1 Ta2 2.997284 1_555
Ta1 Ta4 2.997286 1_555
Ta1 Ta5 3.187117 1_555
Ta1 Ta3 3.187117 1_555
Ta2 Ta4 2.997339 1_555
Ta2 Ta5 3.187050 1_555
Ta3 Ta5 2.997351 1_555
Ta3 Ta4 3.187032 1_555
Be0 Be9 2.126086 1_455
Be0 Be13 2.220722 1_554
Be0 Be11 2.220761 1_545
Be0 Be6 2.245778 1_555
Be0 Co2 2.299257 1_555
Be0 Co3 2.299306 1_555
Be0 Be2 2.382471 1_555
Be0 Be3 2.382484 1_555
Be0 Ga0 2.414164 1_555
Be0 Ta4 2.613462 1_555
Be0 Ta2 2.613465 1_555
Be0 Ta0 2.770376 1_555
Be1 Be9 2.125952 1_555
Be1 Be11 2.220722 1_555
Be1 Be13 2.220735 1_555
Be1 Be7 2.245786 1_555
Be1 Co5 2.299246 1_555
Be1 Co4 2.299326 1_555
Be1 Be4 2.382474 1_555
Be1 Be5 2.382481 1_555
Be1 Ga1 2.414092 1_555
Be1 Ta3 2.613457 1_555
Be1 Ta5 2.613464 1_555
Be1 Ta1 2.770376 1_555
Be2 Be8 2.220713 1_554
Be2 Be6 2.245928 1_555
Be2 Co0 2.299291 1_555
Be2 Co3 2.299298 1_555
Be2 Be3 2.382656 1_555
Be2 Ga0 2.414114 1_555
Be2 Ta4 2.613409 1_554
Be2 Ta1 2.613450 1_554
Be2 Ta3 2.770342 1_554
Be3 Be8 2.220722 1_554
Be3 Be6 2.245933 1_555
Be3 Co2 2.299240 1_555
Be3 Co0 2.299280 1_555
Be3 Ga0 2.414153 1_555
Be3 Ta2 2.613394 1_545
Be3 Ta1 2.613450 1_545
Be3 Ta5 2.770348 1_545
Be4 Be8 2.220736 1_565
Be4 Be7 2.245922 1_555
Be4 Co5 2.299202 1_555
Be4 Co1 2.299260 1_555
Be4 Be5 2.382649 1_555
Be4 Ga1 2.414048 1_555
Be4 Ta5 2.613404 1_556
Be4 Ta0 2.613449 1_556
Be4 Ta2 2.770373 1_556
Be5 Be8 2.220710 1_565
Be5 Be7 2.245934 1_555
Be5 Co1 2.299306 1_555
Be5 Co4 2.299326 1_555
Be5 Ga1 2.414096 1_555
Be5 Ta3 2.613403 1_565
Be5 Ta0 2.613454 1_565
Be5 Ta4 2.770348 1_565
Be6 Be9 2.193897 1_455
Be6 Co0 2.320728 1_555
Be6 Co2 2.320747 1_555
Be6 Co3 2.320801 1_555
Be6 Ta0 2.602644 1_455
Be6 Ta5 2.602719 1_455
Be6 Ta3 2.602730 1_455
Be7 Be9 2.193930 1_555
Be7 Co1 2.320718 1_555
Be7 Co5 2.320721 1_555
Be7 Co4 2.320812 1_555
Be7 Ta1 2.602640 1_655
Be7 Ta2 2.602708 1_655
Be7 Ta4 2.602716 1_655
Be8 Co1 2.324757 1_545
Be8 Co0 2.324778 1_556
Be8 Ga0 2.347801 1_556
Be8 Ga1 2.347821 1_545
Be8 Ta3 2.787465 1_555
Be8 Ta5 2.787494 1_546
Be8 Ta4 2.787498 1_555
Be8 Ta2 2.787522 1_546
Be9 Co5 2.346534 1_555
Be9 Co2 2.346555 1_655
Be9 Co4 2.346654 1_555
Be9 Co3 2.346703 1_655
Be9 Ta3 2.657931 1_555
Be9 Ta5 2.658012 1_555
Be9 Ta4 2.658054 1_655
Be9 Ta2 2.658131 1_655
Be10 Be2 2.126003 1_655
Be10 Be4 2.126028 1_554
Be10 Be6 2.193826 1_655
Be10 Be7 2.194081 1_554
Be10 Co5 2.346497 1_554
Be10 Co3 2.346522 1_655
Be10 Co0 2.346532 1_655
Be10 Co1 2.346647 1_554
Be10 Ta0 2.657957 1_555
Be10 Ta5 2.657995 1_555
Be10 Ta4 2.658140 1_654
Be10 Ta1 2.658179 1_654
Be11 Be5 2.220611 1_555
Be11 Be3 2.220637 1_565
Be11 Co4 2.324730 1_555
Be11 Co2 2.324825 1_565
Be11 Ga0 2.347906 1_565
Be11 Ga1 2.347999 1_555
Be11 Ta5 2.787406 1_555
Be11 Ta0 2.787415 1_565
Be11 Ta1 2.787493 1_555
Be11 Ta4 2.787502 1_565
Be12 Be5 2.125920 1_545
Be12 Be3 2.126117 1_655
Be12 Be7 2.193936 1_545
Be12 Be6 2.193988 1_655
Be12 Co2 2.346500 1_655
Be12 Co1 2.346545 1_545
Be12 Co4 2.346558 1_545
Be12 Co0 2.346701 1_655
Be12 Ta3 2.657973 1_555
Be12 Ta0 2.658046 1_555
Be12 Ta1 2.658087 1_645
Be12 Ta2 2.658143 1_645
Be13 Be2 2.220585 1_556
Be13 Be4 2.220655 1_555
Be13 Co5 2.324743 1_555
Be13 Co3 2.324789 1_556
Be13 Ga0 2.347869 1_556
Be13 Ga1 2.347881 1_555
Be13 Ta3 2.787418 1_555
Be13 Ta1 2.787447 1_555
Be13 Ta0 2.787466 1_556
Be13 Ta2 2.787502 1_556
Be14 Ga1 2.234432 1_545
Be14 Ga0 2.234443 1_456
Be14 Co2 2.258041 1_555
Be14 Co5 2.258117 1_455
Be14 Co1 2.258210 1_445
Be14 Co0 2.258227 1_556
Be14 Co3 2.258497 1_546
Be14 Co4 2.258541 1_446
Ga0 Ta0 2.684195 1_555
Ga0 Ta3 2.684218 1_554
Ga0 Ta5 2.684290 1_545
Ga1 Ta1 2.684184 1_555
Ga1 Ta2 2.684234 1_556
Ga1 Ta4 2.684333 1_565
Co0 Ta0 2.574319 1_455
Co0 Ga1 2.580763 1_544
Co0 Ta2 2.616803 1_545
Co0 Ta4 2.616829 1_554
Co0 Co4 2.620922 1_445
Co0 Co5 2.620968 1_454
Co1 Ta1 2.574298 1_655
Co1 Ga0 2.580715 1_566
Co1 Ta5 2.616782 1_556
Co1 Ta3 2.616859 1_565
Co1 Co3 2.620896 1_656
Co1 Co2 2.621005 1_665
Co2 Ta3 2.574313 1_455
Co2 Ga1 2.580839 1_545
Co2 Ta4 2.616719 1_555
Co2 Ta1 2.616782 1_545
Co2 Co5 2.621027 1_455
Co3 Ta5 2.574295 1_455
Co3 Ga1 2.580715 1_554
Co3 Ta2 2.616703 1_555
Co3 Ta1 2.616775 1_554
Co3 Co4 2.620881 1_455
Co4 Ta2 2.574257 1_655
Co4 Ga0 2.580753 1_565
Co4 Ta5 2.616701 1_555
Co4 Ta0 2.616803 1_565
Co5 Ta4 2.574313 1_655
Co5 Ga0 2.580747 1_556
Co5 Ta3 2.616745 1_555
Co5 Ta0 2.616778 1_556
