# generated using pymatgen
data_NbBi3O7
_symmetry_space_group_name_H-M   'P 1'
_cell_length_a   3.93893548
_cell_length_b   3.93893548
_cell_length_c   12.86905725
_cell_angle_alpha   80.84491300
_cell_angle_beta   80.84491300
_cell_angle_gamma   57.49692302
_symmetry_Int_Tables_number   1
_chemical_formula_structural   NbBi3O7
_chemical_formula_sum   'Nb1 Bi3 O7'
_cell_volume   165.59489686
_cell_formula_units_Z   1
loop_
 _symmetry_equiv_pos_site_id
 _symmetry_equiv_pos_as_xyz
  1  'x, y, z'
loop_
 _atom_site_type_symbol
 _atom_site_label
 _atom_site_symmetry_multiplicity
 _atom_site_fract_x
 _atom_site_fract_y
 _atom_site_fract_z
 _atom_site_occupancy
  Nb  Nb0  1  0.51143400  0.51143400  0.49390300  1
  Bi  Bi0  1  0.96521100  0.96521100  0.98624600  1
  Bi  Bi1  1  0.21125700  0.21125700  0.26237800  1
  Bi  Bi2  1  0.71658400  0.71658400  0.72567500  1
  O  O0  1  0.49679400  0.49679400  0.33877300  1
  O  O1  1  0.77860300  0.77860300  0.53161700  1
  O  O2  1  0.88578800  0.88578800  0.17565700  1
  O  O3  1  0.12733700  0.12733700  0.45277700  1
  O  O4  1  0.02260600  0.02260600  0.80199100  1
  O  O5  1  0.41458400  0.41458400  0.64788400  1
  O  O6  1  0.64309300  0.64309300  0.97172500  1
loop_
_geom_bond_atom_site_label_1
_geom_bond_atom_site_label_2
_geom_bond_distance
_geom_bond_site_symmetry_2
Nb0 O5 1.973083 1_555
Nb0 O1 1.991414 1_555
Nb0 O0 2.017179 1_555
Nb0 O3 2.087167 1_565
Nb0 O3 2.087167 1_655
Nb0 O1 2.475368 1_545
Nb0 O1 2.475368 1_455
Bi0 O6 2.247254 1_655
Bi0 O6 2.247254 1_565
Bi0 O6 2.266194 1_555
Bi0 O4 2.332062 1_665
Bi0 O2 2.399418 1_556
Bi1 O0 2.357898 1_555
Bi1 O2 2.408202 1_455
Bi1 O2 2.408202 1_545
Bi1 O3 2.413347 1_555
Bi1 O0 2.494238 1_455
Bi1 O0 2.494238 1_545
Bi1 O2 2.685032 1_445
Bi2 O4 2.423028 1_565
Bi2 O4 2.423028 1_655
Bi2 O5 2.442252 1_565
Bi2 O5 2.442252 1_655
Bi2 O1 2.456002 1_555
Bi2 O5 2.472030 1_555
Bi2 O4 2.487062 1_665
