# generated using pymatgen
data_CsTeAsO6
_symmetry_space_group_name_H-M   'P 1'
_cell_length_a   5.02623250
_cell_length_b   5.02623440
_cell_length_c   6.85718641
_cell_angle_alpha   90.00167961
_cell_angle_beta   90.00165803
_cell_angle_gamma   119.99395816
_symmetry_Int_Tables_number   1
_chemical_formula_structural   CsTeAsO6
_chemical_formula_sum   'Cs1 Te1 As1 O6'
_cell_volume   150.03353291
_cell_formula_units_Z   1
loop_
 _symmetry_equiv_pos_site_id
 _symmetry_equiv_pos_as_xyz
  1  'x, y, z'
loop_
 _atom_site_type_symbol
 _atom_site_label
 _atom_site_symmetry_multiplicity
 _atom_site_fract_x
 _atom_site_fract_y
 _atom_site_fract_z
 _atom_site_occupancy
  Cs  Cs0  1  0.99998191  0.00001909  0.99999800  1
  Te  Te0  1  0.66668129  0.33331871  0.50000200  1
  As  As0  1  0.33336353  0.66663747  0.50000200  1
  O  O0  1  0.01258374  0.62257947  0.34435238  1
  O  O1  1  0.61000303  0.98746716  0.34435651  1
  O  O2  1  0.37748306  0.39004992  0.34438876  1
  O  O3  1  0.60994808  0.62251494  0.65561024  1
  O  O4  1  0.01253184  0.38999897  0.65564349  1
  O  O5  1  0.37742153  0.98741726  0.65564662  1
loop_
_geom_bond_atom_site_label_1
_geom_bond_atom_site_label_2
_geom_bond_distance
_geom_bond_site_symmetry_2
Cs0 O4 3.049344 1_655
Cs0 O1 3.049359 1_546
Cs0 O5 3.049433 1_645
Cs0 O0 3.049449 1_646
Cs0 O3 3.049698 1_545
Cs0 O2 3.049704 1_656
As0 O3 1.851624 1_555
As0 O2 1.851649 1_555
As0 O5 1.852188 1_555
As0 O0 1.852208 1_555
As0 O4 1.852347 1_555
As0 O1 1.852360 1_555
O0 Te0 1.936129 1_455
O1 Te0 1.935668 1_565
O2 Te0 1.935759 1_555
O3 Te0 1.935737 1_555
O4 Te0 1.935645 1_455
O5 Te0 1.936106 1_565
