# generated using pymatgen
data_Zr3Mn2NbN
_symmetry_space_group_name_H-M   'P 1'
_cell_length_a   8.70348595
_cell_length_b   8.70348568
_cell_length_c   8.70348512
_cell_angle_alpha   59.99999813
_cell_angle_beta   59.99999916
_cell_angle_gamma   59.99999612
_symmetry_Int_Tables_number   1
_chemical_formula_structural   Zr3Mn2NbN
_chemical_formula_sum   'Zr12 Mn8 Nb4 N4'
_cell_volume   466.19179243
_cell_formula_units_Z   4
loop_
 _symmetry_equiv_pos_site_id
 _symmetry_equiv_pos_as_xyz
  1  'x, y, z'
loop_
 _atom_site_type_symbol
 _atom_site_label
 _atom_site_symmetry_multiplicity
 _atom_site_fract_x
 _atom_site_fract_y
 _atom_site_fract_z
 _atom_site_occupancy
  Zr  Zr0  1  0.81522544  0.81522544  0.18477456  1
  Zr  Zr1  1  0.18477456  0.18477456  0.81522544  1
  Zr  Zr2  1  0.81522544  0.18477456  0.81522544  1
  Zr  Zr3  1  0.18477456  0.81522544  0.18477456  1
  Zr  Zr4  1  0.18477456  0.81522544  0.81522544  1
  Zr  Zr5  1  0.81522544  0.18477456  0.18477456  1
  Zr  Zr6  1  0.43477456  0.43477456  0.06522544  1
  Zr  Zr7  1  0.06522544  0.06522544  0.43477456  1
  Zr  Zr8  1  0.43477456  0.06522544  0.43477456  1
  Zr  Zr9  1  0.06522544  0.43477456  0.06522544  1
  Zr  Zr10  1  0.06522544  0.43477456  0.43477456  1
  Zr  Zr11  1  0.43477456  0.06522544  0.06522544  1
  Mn  Mn0  1  0.74471551  0.41842783  0.41842783  1
  Mn  Mn1  1  0.41842783  0.74471551  0.41842783  1
  Mn  Mn2  1  0.41842783  0.41842783  0.74471551  1
  Mn  Mn3  1  0.41842783  0.41842783  0.41842783  1
  Mn  Mn4  1  0.50528449  0.83157217  0.83157217  1
  Mn  Mn5  1  0.83157217  0.50528449  0.83157217  1
  Mn  Mn6  1  0.83157217  0.83157217  0.50528449  1
  Mn  Mn7  1  0.83157217  0.83157217  0.83157217  1
  Nb  Nb0  1  0.12500000  0.62500000  0.62500000  1
  Nb  Nb1  1  0.62500000  0.12500000  0.62500000  1
  Nb  Nb2  1  0.62500000  0.62500000  0.12500000  1
  Nb  Nb3  1  0.62500000  0.62500000  0.62500000  1
  N  N0  1  0.62500000  0.12500000  0.12500000  1
  N  N1  1  0.12500000  0.62500000  0.12500000  1
  N  N2  1  0.12500000  0.12500000  0.62500000  1
  N  N3  1  0.12500000  0.12500000  0.12500000  1
loop_
_geom_bond_atom_site_label_1
_geom_bond_atom_site_label_2
_geom_bond_distance
_geom_bond_site_symmetry_2
Mn0 Nb2 2.652603 1_555
Mn0 Nb1 2.652603 1_555
Mn0 Nb3 2.652610 1_555
Mn0 Mn1 2.839840 1_555
Mn0 Mn2 2.839840 1_555
Mn0 Mn3 2.839840 1_555
Mn0 Zr7 2.938718 1_655
Mn0 Zr9 2.938718 1_655
Mn0 Zr10 2.938723 1_655
Mn0 Zr5 3.207367 1_555
Mn0 Zr2 3.207374 1_555
Mn0 Zr0 3.207374 1_555
Mn1 Nb2 2.652603 1_555
Mn1 Nb0 2.652604 1_555
Mn1 Nb3 2.652610 1_555
Mn1 Mn2 2.839840 1_555
Mn1 Mn3 2.839840 1_555
Mn1 Zr11 2.938718 1_565
Mn1 Zr7 2.938718 1_565
Mn1 Zr8 2.938723 1_565
Mn1 Zr3 3.207367 1_555
Mn1 Zr4 3.207374 1_555
Mn1 Zr0 3.207374 1_555
Mn2 Nb1 2.652603 1_555
Mn2 Nb0 2.652603 1_555
Mn2 Nb3 2.652611 1_555
Mn2 Mn3 2.839840 1_555
Mn2 Zr11 2.938718 1_556
Mn2 Zr9 2.938718 1_556
Mn2 Zr6 2.938723 1_556
Mn2 Zr1 3.207367 1_555
Mn2 Zr4 3.207374 1_555
Mn2 Zr2 3.207374 1_555
Mn3 Nb1 2.652608 1_555
Mn3 Nb0 2.652608 1_555
Mn3 Nb2 2.652608 1_555
Mn3 Zr6 2.938714 1_555
Mn3 Zr8 2.938714 1_555
Mn3 Zr10 2.938715 1_555
Mn3 Zr3 3.207370 1_555
Mn3 Zr5 3.207370 1_555
Mn3 Zr1 3.207370 1_555
Mn4 Nb2 2.652603 1_556
Mn4 Nb1 2.652603 1_565
Mn4 Nb3 2.652610 1_555
Mn4 Mn5 2.839840 1_555
Mn4 Mn6 2.839840 1_555
Mn4 Mn7 2.839840 1_555
Mn4 Zr1 2.938718 1_565
Mn4 Zr3 2.938718 1_556
Mn4 Zr4 2.938723 1_555
Mn4 Zr11 3.207367 1_566
Mn4 Zr8 3.207374 1_565
Mn4 Zr6 3.207374 1_556
Mn5 Nb2 2.652603 1_556
Mn5 Nb0 2.652604 1_655
Mn5 Nb3 2.652610 1_555
Mn5 Mn6 2.839840 1_555
Mn5 Mn7 2.839840 1_555
Mn5 Zr5 2.938718 1_556
Mn5 Zr1 2.938718 1_655
Mn5 Zr2 2.938723 1_555
Mn5 Zr9 3.207367 1_656
Mn5 Zr10 3.207374 1_655
Mn5 Zr6 3.207374 1_556
Mn6 Nb1 2.652603 1_565
Mn6 Nb0 2.652603 1_655
Mn6 Nb3 2.652611 1_555
Mn6 Mn7 2.839840 1_555
Mn6 Zr5 2.938718 1_565
Mn6 Zr3 2.938718 1_655
Mn6 Zr0 2.938723 1_555
Mn6 Zr7 3.207367 1_665
Mn6 Zr10 3.207374 1_655
Mn6 Zr8 3.207374 1_565
Mn7 Nb1 2.652608 1_565
Mn7 Nb0 2.652608 1_655
Mn7 Nb2 2.652608 1_556
Mn7 Zr0 2.938714 1_556
Mn7 Zr2 2.938714 1_565
Mn7 Zr4 2.938715 1_655
Mn7 Zr9 3.207370 1_656
Mn7 Zr11 3.207370 1_566
Mn7 Zr7 3.207370 1_665
Nb0 Zr9 3.196341 1_556
Nb0 Zr3 3.196341 1_555
Nb0 Zr7 3.196342 1_565
Nb0 Zr1 3.196342 1_555
Nb0 Zr4 3.196342 1_555
Nb0 Zr10 3.196342 1_555
Nb1 Zr11 3.196341 1_556
Nb1 Zr5 3.196341 1_555
Nb1 Zr2 3.196342 1_555
Nb1 Zr8 3.196342 1_555
Nb1 Zr7 3.196342 1_655
Nb1 Zr1 3.196342 1_555
Nb2 Zr11 3.196342 1_565
Nb2 Zr5 3.196342 1_555
Nb2 Zr9 3.196342 1_655
Nb2 Zr3 3.196342 1_555
Nb2 Zr0 3.196342 1_555
Nb2 Zr6 3.196342 1_555
Nb3 Zr6 3.196342 1_556
Nb3 Zr0 3.196342 1_555
Nb3 Zr8 3.196342 1_565
Nb3 Zr2 3.196342 1_555
Nb3 Zr10 3.196342 1_655
Nb3 Zr4 3.196342 1_555
N0 Zr8 2.296896 1_555
N0 Zr2 2.296896 1_554
N0 Zr6 2.296896 1_555
N0 Zr0 2.296896 1_545
N0 Zr5 2.296896 1_555
N0 Zr11 2.296896 1_555
N1 Zr10 2.296896 1_555
N1 Zr4 2.296896 1_554
N1 Zr6 2.296896 1_555
N1 Zr0 2.296896 1_455
N1 Zr3 2.296896 1_555
N1 Zr9 2.296896 1_555
N2 Zr10 2.296896 1_555
N2 Zr4 2.296896 1_545
N2 Zr1 2.296896 1_555
N2 Zr7 2.296896 1_555
N2 Zr8 2.296896 1_555
N2 Zr2 2.296896 1_455
N3 Zr7 2.296896 1_555
N3 Zr1 2.296896 1_554
N3 Zr9 2.296896 1_555
N3 Zr3 2.296896 1_545
N3 Zr11 2.296896 1_555
N3 Zr5 2.296896 1_455
