# generated using pymatgen
data_HgPb2SeO6
_symmetry_space_group_name_H-M   'P 1'
_cell_length_a   6.52783908
_cell_length_b   7.32604918
_cell_length_c   8.00474131
_cell_angle_alpha   95.00492468
_cell_angle_beta   91.73962166
_cell_angle_gamma   111.69591443
_symmetry_Int_Tables_number   1
_chemical_formula_structural   HgPb2SeO6
_chemical_formula_sum   'Hg2 Pb4 Se2 O12'
_cell_volume   353.52633043
_cell_formula_units_Z   2
loop_
 _symmetry_equiv_pos_site_id
 _symmetry_equiv_pos_as_xyz
  1  'x, y, z'
loop_
 _atom_site_type_symbol
 _atom_site_label
 _atom_site_symmetry_multiplicity
 _atom_site_fract_x
 _atom_site_fract_y
 _atom_site_fract_z
 _atom_site_occupancy
  Hg  Hg0  1  0.31544486  0.30443048  0.35610285  1
  Hg  Hg1  1  0.68455514  0.69556952  0.64389715  1
  Pb  Pb0  1  0.81613934  0.25309872  0.58396188  1
  Pb  Pb1  1  0.21628908  0.74201548  0.86562331  1
  Pb  Pb2  1  0.78371092  0.25798452  0.13437669  1
  Pb  Pb3  1  0.18386066  0.74690128  0.41603812  1
  Se  Se0  1  0.29804558  0.23090024  0.84375603  1
  Se  Se1  1  0.70195442  0.76909976  0.15624397  1
  O  O0  1  0.05809830  0.39761031  0.36562396  1
  O  O1  1  0.94190170  0.60238969  0.63437604  1
  O  O2  1  0.41852854  0.77205144  0.63956985  1
  O  O3  1  0.65389334  0.83675358  0.97139843  1
  O  O4  1  0.46317149  0.65464780  0.23722096  1
  O  O5  1  0.14767471  0.02837409  0.71960352  1
  O  O6  1  0.15937221  0.38054357  0.86311148  1
  O  O7  1  0.34610666  0.16324642  0.02860157  1
  O  O8  1  0.58147146  0.22794856  0.36043015  1
  O  O9  1  0.85232529  0.97162591  0.28039648  1
  O  O10  1  0.84062779  0.61945643  0.13688852  1
  O  O11  1  0.53682851  0.34535220  0.76277904  1
loop_
_geom_bond_atom_site_label_1
_geom_bond_atom_site_label_2
_geom_bond_distance
_geom_bond_site_symmetry_2
Hg0 O8 2.012462 1_555
Hg0 O0 2.034823 1_555
Hg1 O2 2.012462 1_555
Hg1 O1 2.034823 1_555
O0 Pb3 2.373055 1_555
O0 Pb2 2.407224 1_455
O0 Pb0 2.433981 1_455
O1 Pb0 2.373055 1_555
O1 Pb1 2.407224 1_655
O1 Pb3 2.433981 1_655
O2 Pb1 2.250629 1_555
O2 Pb3 2.269273 1_555
O3 Se1 1.657759 1_556
O3 Pb1 2.764699 1_555
O4 Se1 1.656118 1_555
O4 Pb3 2.594381 1_555
O5 Se0 1.661108 1_555
O5 Pb1 2.656825 1_545
O6 Se0 1.660707 1_555
O6 Pb1 2.532587 1_555
O7 Se0 1.657759 1_554
O7 Pb2 2.764699 1_555
O8 Pb2 2.250629 1_555
O8 Pb0 2.269273 1_555
O9 Se1 1.661108 1_555
O9 Pb2 2.656825 1_565
O10 Se1 1.660707 1_555
O10 Pb2 2.532587 1_555
O11 Se0 1.656118 1_555
O11 Pb0 2.594381 1_555
