# generated using pymatgen
data_Re3TcS8
_symmetry_space_group_name_H-M   'P 1'
_cell_length_a   6.40098425
_cell_length_b   6.49684413
_cell_length_c   7.02439392
_cell_angle_alpha   65.50171976
_cell_angle_beta   76.91807287
_cell_angle_gamma   61.08815718
_symmetry_Int_Tables_number   1
_chemical_formula_structural   Re3TcS8
_chemical_formula_sum   'Re3 Tc1 S8'
_cell_volume   232.56629266
_cell_formula_units_Z   1
loop_
 _symmetry_equiv_pos_site_id
 _symmetry_equiv_pos_as_xyz
  1  'x, y, z'
loop_
 _atom_site_type_symbol
 _atom_site_label
 _atom_site_symmetry_multiplicity
 _atom_site_fract_x
 _atom_site_fract_y
 _atom_site_fract_z
 _atom_site_occupancy
  Re  Re0  1  0.51109646  0.28659560  0.50192100  1
  Re  Re1  1  0.48894749  0.71437840  0.49853396  1
  Re  Re2  1  0.93714710  0.30891519  0.50749607  1
  Tc  Tc0  1  0.06177786  0.69148489  0.49186247  1
  S  S0  1  0.32319837  0.17633942  0.31464198  1
  S  S1  1  0.67731731  0.82458155  0.68552760  1
  S  S2  1  0.85976143  0.15817722  0.28917222  1
  S  S3  1  0.14063107  0.84100156  0.71053473  1
  S  S4  1  0.36396327  0.67760178  0.22966277  1
  S  S5  1  0.63565690  0.32251615  0.77241886  1
  S  S6  1  0.82719393  0.70638095  0.25665414  1
  S  S7  1  0.17330981  0.29202728  0.74157420  1
loop_
_geom_bond_atom_site_label_1
_geom_bond_atom_site_label_2
_geom_bond_distance
_geom_bond_site_symmetry_2
Re0 S4 2.338923 1_555
Re0 S5 2.352433 1_555
Re0 S2 2.373623 1_555
Re0 S7 2.416173 1_555
Re0 S0 2.453788 1_555
Re0 S1 2.475442 1_545
Re1 S4 2.346747 1_555
Re1 S5 2.347074 1_555
Re1 S3 2.367456 1_555
Re1 S6 2.424121 1_555
Re1 S1 2.454264 1_555
Re1 S0 2.475520 1_565
Re2 S6 2.301908 1_555
Re2 S5 2.353903 1_555
Re2 S2 2.369566 1_555
Re2 S7 2.411635 1_655
Re2 S0 2.465293 1_655
Re2 S3 2.527573 1_645
S1 Tc0 2.461091 1_655
S2 Tc0 2.520846 1_645
S3 Tc0 2.370708 1_555
S4 Tc0 2.344813 1_555
S6 Tc0 2.417390 1_655
S7 Tc0 2.306881 1_555
