# generated using pymatgen
data_Hf6Ti4Al12Pd7
_symmetry_space_group_name_H-M   'P 1'
_cell_length_a   8.76762965
_cell_length_b   8.76762969
_cell_length_c   8.76762992
_cell_angle_alpha   59.99999913
_cell_angle_beta   59.99999899
_cell_angle_gamma   59.99999733
_symmetry_Int_Tables_number   1
_chemical_formula_structural   Hf6Ti4Al12Pd7
_chemical_formula_sum   'Hf6 Ti4 Al12 Pd7'
_cell_volume   476.57536900
_cell_formula_units_Z   1
loop_
 _symmetry_equiv_pos_site_id
 _symmetry_equiv_pos_as_xyz
  1  'x, y, z'
loop_
 _atom_site_type_symbol
 _atom_site_label
 _atom_site_symmetry_multiplicity
 _atom_site_fract_x
 _atom_site_fract_y
 _atom_site_fract_z
 _atom_site_occupancy
  Hf  Hf0  1  0.68505714  0.68505714  0.31494286  1
  Hf  Hf1  1  0.31494286  0.68505714  0.31494286  1
  Hf  Hf2  1  0.68505714  0.31494286  0.31494286  1
  Hf  Hf3  1  0.31494286  0.31494286  0.68505714  1
  Hf  Hf4  1  0.68505714  0.31494286  0.68505714  1
  Hf  Hf5  1  0.31494286  0.68505714  0.68505714  1
  Ti  Ti0  1  0.88190114  0.88190114  0.35429659  1
  Ti  Ti1  1  0.88190114  0.35429659  0.88190114  1
  Ti  Ti2  1  0.35429659  0.88190114  0.88190114  1
  Ti  Ti3  1  0.88190114  0.88190114  0.88190114  1
  Al  Al0  1  0.11958957  0.11958957  0.64123130  1
  Al  Al1  1  0.11958957  0.64123130  0.11958957  1
  Al  Al2  1  0.64123130  0.11958957  0.11958957  1
  Al  Al3  1  0.11958957  0.11958957  0.11958957  1
  Al  Al4  1  0.66564273  0.66564273  0.00307382  1
  Al  Al5  1  0.66564273  0.00307382  0.66564273  1
  Al  Al6  1  0.00307382  0.66564273  0.66564273  1
  Al  Al7  1  0.66564273  0.66564273  0.66564273  1
  Al  Al8  1  0.33402165  0.33402165  0.99793406  1
  Al  Al9  1  0.33402165  0.99793406  0.33402165  1
  Al  Al10  1  0.99793406  0.33402165  0.33402165  1
  Al  Al11  1  0.33402165  0.33402165  0.33402165  1
  Pd  Pd0  1  0.00000000  0.00000000  0.00000000  1
  Pd  Pd1  1  0.99981479  0.99981479  0.50018521  1
  Pd  Pd2  1  0.50018521  0.99981479  0.50018521  1
  Pd  Pd3  1  0.99981479  0.50018521  0.50018521  1
  Pd  Pd4  1  0.50018521  0.50018521  0.99981479  1
  Pd  Pd5  1  0.99981479  0.50018521  0.99981479  1
  Pd  Pd6  1  0.50018521  0.99981479  0.99981479  1
loop_
_geom_bond_atom_site_label_1
_geom_bond_atom_site_label_2
_geom_bond_distance
_geom_bond_site_symmetry_2
Hf0 Ti3 3.200899 1_554
Hf0 Ti0 3.200899 1_555
Hf0 Pd5 3.202709 1_554
Hf0 Pd3 3.202709 1_555
Hf0 Pd6 3.202709 1_554
Hf0 Pd2 3.202709 1_555
Hf0 Hf5 3.245025 1_555
Hf0 Hf1 3.245025 1_555
Hf0 Hf2 3.245025 1_555
Hf0 Hf4 3.245025 1_555
Hf1 Ti0 3.200899 1_455
Hf1 Ti2 3.200899 1_554
Hf1 Pd1 3.202709 1_455
Hf1 Pd3 3.202709 1_455
Hf1 Pd6 3.202709 1_554
Hf1 Pd4 3.202709 1_554
Hf1 Hf2 3.245025 1_555
Hf1 Hf3 3.245025 1_555
Hf1 Hf5 3.245025 1_555
Hf2 Ti0 3.200899 1_545
Hf2 Ti1 3.200899 1_554
Hf2 Pd1 3.202709 1_545
Hf2 Pd5 3.202709 1_554
Hf2 Pd2 3.202709 1_545
Hf2 Pd4 3.202709 1_554
Hf2 Hf3 3.245025 1_555
Hf2 Hf4 3.245025 1_555
Hf3 Ti1 3.200899 1_455
Hf3 Ti2 3.200899 1_545
Hf3 Pd3 3.202709 1_455
Hf3 Pd5 3.202709 1_455
Hf3 Pd2 3.202709 1_545
Hf3 Pd6 3.202709 1_545
Hf3 Hf4 3.245025 1_555
Hf3 Hf5 3.245025 1_555
Hf4 Ti3 3.200899 1_545
Hf4 Ti1 3.200899 1_555
Hf4 Pd1 3.202709 1_545
Hf4 Pd3 3.202709 1_555
Hf4 Pd6 3.202709 1_545
Hf4 Pd4 3.202709 1_555
Hf4 Hf5 3.245025 1_555
Hf5 Ti3 3.200899 1_455
Hf5 Ti2 3.200899 1_555
Hf5 Pd1 3.202709 1_455
Hf5 Pd5 3.202709 1_455
Hf5 Pd2 3.202709 1_555
Hf5 Pd4 3.202709 1_555
Al0 Pd0 2.568332 1_556
Al0 Pd2 2.726712 1_545
Al0 Pd3 2.726712 1_455
Al0 Pd1 2.726712 1_445
Al0 Al11 2.780457 1_555
Al0 Al9 2.780462 1_545
Al0 Al10 2.780462 1_455
Al0 Ti1 2.947286 1_455
Al0 Ti2 2.947286 1_545
Al0 Ti3 2.947286 1_445
Al0 Hf4 3.203876 1_455
Al0 Hf5 3.203876 1_545
Al0 Hf3 3.203876 1_555
Al1 Pd0 2.568332 1_565
Al1 Pd4 2.726712 1_554
Al1 Pd5 2.726712 1_454
Al1 Pd3 2.726712 1_455
Al1 Al11 2.780457 1_555
Al1 Al8 2.780462 1_554
Al1 Al10 2.780462 1_455
Al1 Ti0 2.947286 1_455
Al1 Ti3 2.947286 1_454
Al1 Ti2 2.947286 1_554
Al1 Hf0 3.203876 1_455
Al1 Hf1 3.203876 1_555
Al1 Hf5 3.203876 1_554
Al2 Pd0 2.568332 1_655
Al2 Pd4 2.726712 1_554
Al2 Pd2 2.726712 1_545
Al2 Pd6 2.726712 1_544
Al2 Al8 2.780462 1_554
Al2 Al9 2.780462 1_545
Al2 Ti0 2.947286 1_545
Al2 Ti3 2.947286 1_544
Al2 Ti1 2.947286 1_554
Al2 Hf0 3.203876 1_545
Al2 Hf2 3.203876 1_555
Al2 Hf4 3.203876 1_554
Al3 Pd0 2.568332 1_555
Al3 Pd6 2.726712 1_544
Al3 Pd5 2.726712 1_454
Al3 Pd1 2.726712 1_445
Al3 Al9 2.780455 1_545
Al3 Al8 2.780455 1_554
Al3 Ti1 2.947286 1_454
Al3 Ti2 2.947286 1_544
Al3 Ti0 2.947286 1_445
Al3 Hf2 3.203876 1_455
Al3 Hf1 3.203876 1_545
Al3 Hf3 3.203876 1_554
Al4 Pd5 2.529224 1_554
Al4 Pd6 2.529224 1_554
Al4 Pd4 2.529239 1_554
Al4 Ti3 2.808061 1_554
Al4 Ti2 2.808075 1_554
Al4 Ti1 2.808075 1_554
Al4 Hf0 2.914529 1_555
Al4 Hf1 2.914539 1_555
Al4 Hf2 2.914539 1_555
Al4 Al6 2.958471 1_654
Al4 Al5 2.958471 1_564
Al4 Al7 2.958471 1_554
Al5 Pd1 2.529224 1_545
Al5 Pd6 2.529224 1_545
Al5 Pd2 2.529239 1_545
Al5 Ti3 2.808061 1_545
Al5 Ti2 2.808076 1_545
Al5 Ti0 2.808076 1_545
Al5 Hf4 2.914529 1_555
Al5 Hf3 2.914539 1_555
Al5 Hf2 2.914539 1_555
Al5 Al6 2.958471 1_645
Al5 Al7 2.958471 1_545
Al6 Pd1 2.529224 1_455
Al6 Pd5 2.529224 1_455
Al6 Pd3 2.529239 1_455
Al6 Ti3 2.808061 1_455
Al6 Ti1 2.808076 1_455
Al6 Ti0 2.808076 1_455
Al6 Hf5 2.914529 1_555
Al6 Hf3 2.914539 1_555
Al6 Hf1 2.914539 1_555
Al6 Al7 2.958471 1_455
Al7 Pd3 2.529229 1_555
Al7 Pd2 2.529229 1_555
Al7 Pd4 2.529229 1_555
Al7 Ti2 2.808066 1_555
Al7 Ti1 2.808066 1_555
Al7 Ti0 2.808066 1_555
Al7 Hf5 2.914546 1_555
Al7 Hf4 2.914546 1_555
Al7 Hf0 2.914547 1_555
Al8 Pd5 2.532905 1_455
Al8 Pd6 2.532905 1_545
Al8 Pd4 2.532913 1_555
Al8 Hf3 2.920063 1_555
Al8 Hf4 2.920068 1_555
Al8 Hf5 2.920068 1_555
Al8 Al9 2.946692 1_546
Al9 Pd1 2.532905 1_455
Al9 Pd6 2.532905 1_554
Al9 Pd2 2.532913 1_555
Al9 Hf1 2.920063 1_555
Al9 Hf0 2.920068 1_555
Al9 Hf5 2.920068 1_555
Al10 Pd1 2.532905 1_545
Al10 Pd5 2.532905 1_554
Al10 Pd3 2.532913 1_555
Al10 Al3 2.780455 1_655
Al10 Hf2 2.920063 1_555
Al10 Hf0 2.920068 1_555
Al10 Hf4 2.920068 1_555
Al10 Al9 2.946691 1_645
Al10 Al11 2.946692 1_655
Al10 Al8 2.946692 1_654
Al11 Pd3 2.532907 1_455
Al11 Pd2 2.532907 1_545
Al11 Pd4 2.532908 1_554
Al11 Al2 2.780457 1_555
Al11 Hf2 2.920072 1_555
Al11 Hf1 2.920072 1_555
Al11 Hf3 2.920072 1_555
Al11 Al9 2.946692 1_545
Al11 Al8 2.946692 1_554
Pd0 Ti2 2.536317 1_544
Pd0 Ti1 2.536317 1_454
Pd0 Ti0 2.536317 1_445
Pd0 Ti3 2.536317 1_444
Pd1 Ti0 2.736272 1_555
Pd1 Ti3 2.736272 1_555
Pd2 Ti0 2.736272 1_555
Pd2 Ti2 2.736272 1_555
Pd3 Ti0 2.736272 1_555
Pd3 Ti1 2.736272 1_555
Pd4 Ti1 2.736272 1_555
Pd4 Ti2 2.736272 1_555
Pd5 Ti3 2.736272 1_555
Pd5 Ti1 2.736272 1_555
Pd6 Ti3 2.736272 1_555
Pd6 Ti2 2.736272 1_555
