# generated using pymatgen
data_LuBi3(AuO3)4
_symmetry_space_group_name_H-M   'P 1'
_cell_length_a   3.91745747
_cell_length_b   5.57337754
_cell_length_c   13.04575717
_cell_angle_alpha   90.00000000
_cell_angle_beta   91.27105030
_cell_angle_gamma   90.00000000
_symmetry_Int_Tables_number   1
_chemical_formula_structural   LuBi3(AuO3)4
_chemical_formula_sum   'Lu1 Bi3 Au4 O12'
_cell_volume   284.76405571
_cell_formula_units_Z   1
loop_
 _symmetry_equiv_pos_site_id
 _symmetry_equiv_pos_as_xyz
  1  'x, y, z'
loop_
 _atom_site_type_symbol
 _atom_site_label
 _atom_site_symmetry_multiplicity
 _atom_site_fract_x
 _atom_site_fract_y
 _atom_site_fract_z
 _atom_site_occupancy
  Lu  Lu0  1  0.75726877  0.75000000  0.57898112  1
  Bi  Bi0  1  0.25469767  0.75000000  0.07730871  1
  Bi  Bi1  1  0.30190383  0.25000000  0.43042634  1
  Bi  Bi2  1  0.69773285  0.25000000  0.92486110  1
  Au  Au0  1  0.06356057  0.75000000  0.82338242  1
  Au  Au1  1  0.09196731  0.25000000  0.66570155  1
  Au  Au2  1  0.91111407  0.25000000  0.17252637  1
  Au  Au3  1  0.92935027  0.75000000  0.33527517  1
  O  O0  1  0.16635038  0.49987155  0.25236271  1
  O  O1  1  0.82791875  0.98630548  0.73177227  1
  O  O2  1  0.82791875  0.51369452  0.73177227  1
  O  O3  1  0.16635038  0.00012845  0.25236271  1
  O  O4  1  0.71929158  0.48744151  0.07191667  1
  O  O5  1  0.75982449  0.51213966  0.43539710  1
  O  O6  1  0.23327018  0.98976674  0.92632137  1
  O  O7  1  0.28954796  0.99472055  0.57799800  1
  O  O8  1  0.75982449  0.98786034  0.43539710  1
  O  O9  1  0.71929158  0.01255849  0.07191667  1
  O  O10  1  0.28954796  0.50527945  0.57799800  1
  O  O11  1  0.23327018  0.51023326  0.92632137  1
loop_
_geom_bond_atom_site_label_1
_geom_bond_atom_site_label_2
_geom_bond_distance
_geom_bond_site_symmetry_2
Lu0 O7 2.283996 1_555
Lu0 O10 2.283996 1_555
Lu0 O8 2.295019 1_555
Lu0 O5 2.295019 1_555
Lu0 O1 2.399962 1_555
Lu0 O2 2.399962 1_555
Lu0 O7 2.491909 1_655
Lu0 O10 2.491909 1_655
Bi0 O9 2.337623 1_565
Bi0 O4 2.337623 1_555
Bi0 O6 2.380195 1_554
Bi0 O11 2.380195 1_554
Bi0 O9 2.557142 1_465
Bi0 O4 2.557142 1_455
Bi0 O3 2.704365 1_565
Bi0 O0 2.704365 1_555
Bi1 O5 2.313352 1_555
Bi1 O8 2.313352 1_545
Bi1 O10 2.395221 1_555
Bi1 O7 2.395221 1_545
Bi1 O5 2.579614 1_455
Bi1 O8 2.579614 1_445
Bi1 O0 2.750070 1_555
Bi1 O3 2.750070 1_555
Bi2 O11 2.327257 1_555
Bi2 O6 2.327257 1_545
Bi2 O4 2.330592 1_556
Bi2 O9 2.330592 1_556
Bi2 O11 2.550208 1_655
Bi2 O6 2.550208 1_645
Au0 O1 1.991497 1_455
Au0 O2 1.991497 1_455
Au0 O6 1.997884 1_555
Au0 O11 1.997884 1_555
Au1 O10 1.992927 1_555
Au1 O7 1.992927 1_545
Au1 O2 2.003100 1_455
Au1 O1 2.003100 1_445
Au2 O0 1.994428 1_655
Au2 O3 1.994428 1_655
Au2 O4 1.998730 1_555
Au2 O9 1.998730 1_555
Au3 O8 1.985708 1_555
Au3 O5 1.985708 1_555
Au3 O3 2.004977 1_665
Au3 O0 2.004977 1_655
