# generated using pymatgen
data_Ag2RuPtO7
_symmetry_space_group_name_H-M   'P 1'
_cell_length_a   7.10432647
_cell_length_b   7.10432668
_cell_length_c   7.15974911
_cell_angle_alpha   59.74160038
_cell_angle_beta   59.74159940
_cell_angle_gamma   59.89104071
_symmetry_Int_Tables_number   1
_chemical_formula_structural   Ag2RuPtO7
_chemical_formula_sum   'Ag4 Ru2 Pt2 O14'
_cell_volume   254.31105375
_cell_formula_units_Z   2
loop_
 _symmetry_equiv_pos_site_id
 _symmetry_equiv_pos_as_xyz
  1  'x, y, z'
loop_
 _atom_site_type_symbol
 _atom_site_label
 _atom_site_symmetry_multiplicity
 _atom_site_fract_x
 _atom_site_fract_y
 _atom_site_fract_z
 _atom_site_occupancy
  Ag  Ag0  1  0.62500000  0.62500000  0.12500000  1
  Ag  Ag1  1  0.62500000  0.12500000  0.62500000  1
  Ag  Ag2  1  0.12500000  0.62500000  0.62500000  1
  Ag  Ag3  1  0.62500000  0.62500000  0.62500000  1
  Ru  Ru0  1  0.12500000  0.12500000  0.62500000  1
  Ru  Ru1  1  0.12500000  0.12500000  0.12500000  1
  Pt  Pt0  1  0.12500000  0.62500000  0.12500000  1
  Pt  Pt1  1  0.62500000  0.12500000  0.12500000  1
  O  O0  1  0.49701307  0.49701307  0.50298693  1
  O  O1  1  0.75298693  0.75298693  0.74701307  1
  O  O2  1  0.44819769  0.06221709  0.45793451  1
  O  O3  1  0.18778291  0.80180231  0.21834928  1
  O  O4  1  0.46855903  0.46855903  0.03144097  1
  O  O5  1  0.06221709  0.44819769  0.45793451  1
  O  O6  1  0.44819769  0.06221709  0.03165072  1
  O  O7  1  0.08128067  0.08128067  0.41871933  1
  O  O8  1  0.06221709  0.44819769  0.03165072  1
  O  O9  1  0.80180231  0.18778291  0.21834928  1
  O  O10  1  0.18778291  0.80180231  0.79206549  1
  O  O11  1  0.80180231  0.18778291  0.79206549  1
  O  O12  1  0.16871933  0.16871933  0.83128067  1
  O  O13  1  0.78144097  0.78144097  0.21855903  1
loop_
_geom_bond_atom_site_label_1
_geom_bond_atom_site_label_2
_geom_bond_distance
_geom_bond_site_symmetry_2
Ag0 O0 2.201626 1_555
Ag0 O1 2.201626 1_554
Ag0 O13 2.378875 1_555
Ag0 O4 2.378875 1_555
Ag0 O8 2.551854 1_655
Ag0 O3 2.551854 1_555
Ag0 O6 2.551854 1_565
Ag0 O9 2.551854 1_555
Ag1 O0 2.153495 1_555
Ag1 O1 2.153495 1_545
Ag1 O11 2.412742 1_555
Ag1 O2 2.412742 1_555
Ag1 O6 2.412742 1_556
Ag1 O9 2.412742 1_555
Ag1 O7 2.722647 1_655
Ag1 O12 2.722647 1_555
Ag2 O0 2.153495 1_555
Ag2 O1 2.153495 1_455
Ag2 O10 2.412742 1_555
Ag2 O5 2.412742 1_555
Ag2 O8 2.412742 1_556
Ag2 O3 2.412742 1_555
Ag2 O7 2.722647 1_565
Ag2 O12 2.722647 1_555
Ag3 O1 2.201626 1_555
Ag3 O0 2.201626 1_555
Ag3 O4 2.378875 1_556
Ag3 O13 2.378875 1_555
Ag3 O5 2.551854 1_655
Ag3 O10 2.551854 1_555
Ag3 O2 2.551854 1_565
Ag3 O11 2.551854 1_555
O2 Ru0 1.908945 1_555
O2 Pt1 1.982902 1_555
O3 Ru1 1.908945 1_565
O3 Pt0 1.982902 1_555
O4 Pt0 2.005542 1_555
O4 Pt1 2.005542 1_555
O5 Ru0 1.908945 1_555
O5 Pt0 1.982902 1_555
O6 Ru1 1.908945 1_555
O6 Pt1 1.982902 1_555
O7 Ru1 1.842721 1_555
O7 Ru0 1.842721 1_555
O8 Ru1 1.908945 1_555
O8 Pt0 1.982902 1_555
O9 Ru1 1.908945 1_655
O9 Pt1 1.982902 1_555
O10 Ru0 1.908945 1_565
O10 Pt0 1.982902 1_556
O11 Ru0 1.908945 1_655
O11 Pt1 1.982902 1_556
O12 Ru0 1.842721 1_555
O12 Ru1 1.842721 1_556
O13 Pt0 2.005542 1_655
O13 Pt1 2.005542 1_565
