# generated using pymatgen
data_Cs8Zr(SeO4)6
_symmetry_space_group_name_H-M   'P 1'
_cell_length_a   10.77083858
_cell_length_b   10.77083956
_cell_length_c   8.33431643
_cell_angle_alpha   79.67432524
_cell_angle_beta   79.67432518
_cell_angle_gamma   122.42267866
_symmetry_Int_Tables_number   1
_chemical_formula_structural   Cs8Zr(SeO4)6
_chemical_formula_sum   'Cs8 Zr1 Se6 O24'
_cell_volume   757.51433680
_cell_formula_units_Z   1
loop_
 _symmetry_equiv_pos_site_id
 _symmetry_equiv_pos_as_xyz
  1  'x, y, z'
loop_
 _atom_site_type_symbol
 _atom_site_label
 _atom_site_symmetry_multiplicity
 _atom_site_fract_x
 _atom_site_fract_y
 _atom_site_fract_z
 _atom_site_occupancy
  Cs  Cs0  1  0.21658102  0.21658102  0.36900656  1
  Cs  Cs1  1  0.78341898  0.78341898  0.63099344  1
  Cs  Cs2  1  0.66753736  0.33246264  0.50000000  1
  Cs  Cs3  1  0.33246264  0.66753736  0.50000000  1
  Cs  Cs4  1  0.86635444  0.52381661  0.88430182  1
  Cs  Cs5  1  0.52381661  0.86635444  0.88430182  1
  Cs  Cs6  1  0.13364556  0.47618339  0.11569818  1
  Cs  Cs7  1  0.47618339  0.13364556  0.11569818  1
  Zr  Zr0  1  0.00000000  0.00000000  0.00000000  1
  Se  Se0  1  0.94913157  0.25831602  0.72799530  1
  Se  Se1  1  0.25831602  0.94913157  0.72799530  1
  Se  Se2  1  0.05086843  0.74168398  0.27200470  1
  Se  Se3  1  0.74168398  0.05086843  0.27200470  1
  Se  Se4  1  0.37553216  0.37553216  0.79761828  1
  Se  Se5  1  0.62446784  0.62446784  0.20238172  1
  O  O0  1  0.94116411  0.09524716  0.80956937  1
  O  O1  1  0.09524716  0.94116411  0.80956937  1
  O  O2  1  0.05883589  0.90475284  0.19043063  1
  O  O3  1  0.90475284  0.05883589  0.19043063  1
  O  O4  1  0.77009961  0.20784729  0.78531131  1
  O  O5  1  0.20784729  0.77009961  0.78531131  1
  O  O6  1  0.22990039  0.79215271  0.21468869  1
  O  O7  1  0.79215271  0.22990039  0.21468869  1
  O  O8  1  0.05581311  0.38857371  0.81086548  1
  O  O9  1  0.38857371  0.05581311  0.81086548  1
  O  O10  1  0.94418689  0.61142629  0.18913452  1
  O  O11  1  0.61142629  0.94418689  0.18913452  1
  O  O12  1  0.02673379  0.31745337  0.51723222  1
  O  O13  1  0.31745337  0.02673379  0.51723222  1
  O  O14  1  0.97326621  0.68254663  0.48276778  1
  O  O15  1  0.68254663  0.97326621  0.48276778  1
  O  O16  1  0.38950512  0.53052877  0.82040060  1
  O  O17  1  0.53052877  0.38950512  0.82040060  1
  O  O18  1  0.61049488  0.46947123  0.17959940  1
  O  O19  1  0.46947123  0.61049488  0.17959940  1
  O  O20  1  0.21399019  0.21399019  0.96250211  1
  O  O21  1  0.78600981  0.78600981  0.03749789  1
  O  O22  1  0.34490031  0.34490031  0.61920985  1
  O  O23  1  0.65509969  0.65509969  0.38079015  1
loop_
_geom_bond_atom_site_label_1
_geom_bond_atom_site_label_2
_geom_bond_distance
_geom_bond_site_symmetry_2
Cs0 O22 2.861258 1_555
Cs0 O12 2.974178 1_555
Cs0 O13 2.974178 1_555
Cs0 O20 3.398032 1_554
Cs0 O18 3.402581 1_555
Cs0 O19 3.402581 1_555
Cs0 O3 3.600225 1_455
Cs0 O2 3.600225 1_545
Cs1 O23 2.861258 1_555
Cs1 O14 2.974178 1_555
Cs1 O15 2.974178 1_555
Cs1 O21 3.398032 1_556
Cs1 O16 3.402581 1_555
Cs1 O17 3.402581 1_555
Cs1 O1 3.600225 1_655
Cs1 O0 3.600225 1_565
Cs2 O9 3.075801 1_555
Cs2 O10 3.075801 1_555
Cs2 O17 3.135842 1_555
Cs2 O18 3.135842 1_555
Cs2 O4 3.172320 1_555
Cs2 O7 3.172320 1_555
Cs2 O13 3.376971 1_555
Cs2 O14 3.376971 1_555
Cs2 O22 3.519998 1_555
Cs2 O23 3.519998 1_555
Cs3 O11 3.075801 1_555
Cs3 O8 3.075801 1_555
Cs3 O19 3.135842 1_555
Cs3 O16 3.135842 1_555
Cs3 O6 3.172320 1_555
Cs3 O5 3.172320 1_555
Cs3 O15 3.376971 1_555
Cs3 O12 3.376971 1_555
Cs3 O23 3.519998 1_555
Cs3 O22 3.519998 1_555
Cs4 O10 2.970249 1_556
Cs4 O5 2.985167 1_655
Cs4 O18 3.052315 1_556
Cs4 O8 3.117703 1_655
Cs4 O14 3.147139 1_555
Cs4 O17 3.288714 1_555
Cs4 O4 3.296562 1_555
Cs4 O7 3.408179 1_556
Cs5 O11 2.970249 1_556
Cs5 O4 2.985167 1_565
Cs5 O19 3.052315 1_556
Cs5 O9 3.117703 1_565
Cs5 O15 3.147139 1_555
Cs5 O16 3.288715 1_555
Cs5 O5 3.296562 1_555
Cs5 O6 3.408179 1_556
Cs6 O8 2.970249 1_554
Cs6 O7 2.985167 1_455
Cs6 O16 3.052315 1_554
Cs6 O10 3.117703 1_455
Cs6 O12 3.147139 1_555
Cs6 O19 3.288714 1_555
Cs6 O6 3.296562 1_555
Cs6 O5 3.408179 1_554
Cs7 O9 2.970249 1_554
Cs7 O6 2.985167 1_545
Cs7 O17 3.052315 1_554
Cs7 O11 3.117703 1_545
Cs7 O13 3.147139 1_555
Cs7 O18 3.288715 1_555
Cs7 O7 3.296562 1_555
Cs7 O4 3.408179 1_554
O0 Se0 1.715770 1_555
O0 Zr0 2.108783 1_656
O1 Se1 1.715770 1_555
O1 Zr0 2.108783 1_566
O2 Se2 1.715770 1_555
O2 Zr0 2.108783 1_565
O3 Se3 1.715770 1_555
O3 Zr0 2.108783 1_655
O4 Se0 1.641579 1_555
O5 Se1 1.641579 1_555
O6 Se2 1.641579 1_555
O7 Se3 1.641579 1_555
O8 Se0 1.633671 1_455
O9 Se1 1.633671 1_545
O10 Se2 1.633671 1_655
O11 Se3 1.633671 1_565
O12 Se0 1.640592 1_455
O13 Se1 1.640592 1_545
O14 Se2 1.640592 1_655
O15 Se3 1.640592 1_565
O16 Se4 1.643229 1_555
O17 Se4 1.643229 1_555
O18 Se5 1.643229 1_555
O19 Se5 1.643229 1_555
O20 Se4 1.727011 1_555
O20 Zr0 2.123529 1_556
O21 Se5 1.727011 1_555
O21 Zr0 2.123529 1_665
O22 Se4 1.632060 1_555
O23 Se5 1.632060 1_555
