# generated using pymatgen
data_Zr11Sc(AlIr2)4
_symmetry_space_group_name_H-M   'P 1'
_cell_length_a   8.52586188
_cell_length_b   8.52583078
_cell_length_c   8.53555250
_cell_angle_alpha   59.96226929
_cell_angle_beta   59.96235947
_cell_angle_gamma   59.96133509
_symmetry_Int_Tables_number   1
_chemical_formula_structural   Zr11Sc(AlIr2)4
_chemical_formula_sum   'Zr11 Sc1 Al4 Ir8'
_cell_volume   438.34605594
_cell_formula_units_Z   1
loop_
 _symmetry_equiv_pos_site_id
 _symmetry_equiv_pos_as_xyz
  1  'x, y, z'
loop_
 _atom_site_type_symbol
 _atom_site_label
 _atom_site_symmetry_multiplicity
 _atom_site_fract_x
 _atom_site_fract_y
 _atom_site_fract_z
 _atom_site_occupancy
  Zr  Zr0  1  0.19451783  0.19451583  0.80548317  1
  Zr  Zr1  1  0.80496269  0.19435879  0.80555002  1
  Zr  Zr2  1  0.19435779  0.80496269  0.19512949  1
  Zr  Zr3  1  0.19435879  0.80496269  0.80554802  1
  Zr  Zr4  1  0.80496269  0.19435879  0.19512849  1
  Zr  Zr5  1  0.44409963  0.44410263  0.05589937  1
  Zr  Zr6  1  0.05622889  0.05622789  0.44377211  1
  Zr  Zr7  1  0.44709205  0.05333888  0.44443761  1
  Zr  Zr8  1  0.05333888  0.44709305  0.05512946  1
  Zr  Zr9  1  0.05333788  0.44709305  0.44443861  1
  Zr  Zr10  1  0.44709205  0.05333888  0.05513146  1
  Sc  Sc0  1  0.80594161  0.80593561  0.19406139  1
  Al  Al0  1  0.12527170  0.62463269  0.62504781  1
  Al  Al1  1  0.62463369  0.12527270  0.62504681  1
  Al  Al2  1  0.62543183  0.62543083  0.12570671  1
  Al  Al3  1  0.62543183  0.62543083  0.62343062  1
  Ir  Ir0  1  0.76155577  0.41185566  0.41329429  1
  Ir  Ir1  1  0.41185466  0.76155577  0.41329429  1
  Ir  Ir2  1  0.41214469  0.41214669  0.76204349  1
  Ir  Ir3  1  0.41214469  0.41214669  0.41366413  1
  Ir  Ir4  1  0.48850248  0.83659713  0.83745020  1
  Ir  Ir5  1  0.83659713  0.48850148  0.83745120  1
  Ir  Ir6  1  0.83807038  0.83807038  0.48926051  1
  Ir  Ir7  1  0.83807038  0.83807038  0.83459873  1
loop_
_geom_bond_atom_site_label_1
_geom_bond_atom_site_label_2
_geom_bond_distance
_geom_bond_site_symmetry_2
Zr0 Zr8 3.171398 1_556
Zr0 Zr7 3.171399 1_555
Zr0 Zr10 3.171401 1_556
Zr0 Zr9 3.171403 1_555
Zr0 Zr2 3.321661 1_546
Zr0 Zr3 3.321666 1_545
Zr0 Zr4 3.321676 1_456
Zr0 Zr1 3.321678 1_455
Zr1 Zr10 3.145558 1_556
Zr1 Zr5 3.159182 1_556
Zr1 Zr6 3.162906 1_655
Zr1 Zr9 3.164237 1_655
Zr1 Zr3 3.317991 1_645
Zr1 Zr4 3.325267 1_556
Zr2 Zr9 3.145542 1_555
Zr2 Zr5 3.159156 1_555
Zr2 Zr6 3.162901 1_565
Zr2 Zr4 3.317987 1_465
Zr2 Zr3 3.325289 1_554
Zr3 Zr8 3.145542 1_556
Zr3 Zr5 3.159166 1_556
Zr3 Zr6 3.162885 1_565
Zr3 Zr7 3.164235 1_565
Zr4 Zr7 3.145558 1_555
Zr4 Zr5 3.159180 1_555
Zr4 Zr6 3.162915 1_655
Zr4 Zr8 3.164242 1_655
Zr5 Zr7 3.322156 1_555
Zr5 Zr9 3.322163 1_555
Zr5 Zr8 3.322164 1_555
Zr6 Zr7 3.323020 1_555
Zr6 Zr9 3.323021 1_555
Zr6 Zr8 3.323029 1_555
Zr7 Zr9 3.355125 1_555
Zr8 Zr9 3.322964 1_555
Zr10 Zr2 3.164245 1_545
Zr10 Zr5 3.322161 1_555
Zr10 Zr7 3.322943 1_555
Zr10 Zr6 3.323023 1_555
Zr10 Zr8 3.355121 1_555
Sc0 Zr9 3.143680 1_655
Sc0 Zr8 3.143684 1_655
Sc0 Zr7 3.143729 1_565
Sc0 Zr10 3.143730 1_565
Sc0 Zr2 3.312005 1_655
Sc0 Zr3 3.312017 1_654
Sc0 Zr1 3.312023 1_564
Sc0 Zr4 3.312023 1_565
Al0 Ir7 2.630445 1_455
Al0 Ir6 2.630446 1_455
Al0 Ir1 2.630912 1_555
Al0 Ir2 2.633967 1_555
Al0 Ir3 2.633970 1_555
Al0 Ir5 2.641508 1_455
Al0 Zr8 3.042354 1_556
Al0 Zr9 3.042361 1_555
Al0 Zr0 3.042486 1_555
Al0 Zr3 3.044836 1_555
Al0 Zr2 3.044844 1_555
Al1 Ir6 2.630444 1_545
Al1 Ir7 2.630445 1_545
Al1 Ir0 2.630901 1_555
Al1 Ir2 2.633974 1_555
Al1 Ir3 2.633980 1_555
Al1 Ir4 2.641509 1_545
Al1 Zr10 3.042376 1_556
Al1 Zr7 3.042378 1_555
Al1 Zr0 3.042497 1_555
Al1 Zr4 3.044845 1_555
Al1 Zr1 3.044847 1_555
Al2 Ir0 2.636233 1_555
Al2 Ir1 2.636239 1_555
Al2 Ir5 2.644728 1_554
Al2 Ir4 2.644734 1_554
Al2 Ir3 2.648776 1_555
Al2 Ir7 2.649219 1_554
Al2 Zr10 3.024530 1_565
Al2 Zr8 3.024533 1_655
Al2 Sc0 3.040788 1_555
Al2 Zr4 3.049118 1_555
Al2 Zr2 3.049144 1_555
Al2 Zr5 3.061462 1_555
Al3 Ir0 2.636232 1_555
Al3 Ir1 2.636247 1_555
Al3 Ir4 2.644733 1_555
Al3 Ir5 2.644737 1_555
Al3 Ir2 2.648778 1_555
Al3 Ir6 2.649220 1_555
Al3 Zr9 3.024526 1_655
Al3 Zr7 3.024530 1_565
Al3 Sc0 3.040787 1_555
Al3 Zr1 3.049118 1_555
Al3 Zr3 3.049135 1_555
Al3 Zr5 3.061467 1_556
Ir0 Zr6 2.794811 1_655
Ir0 Zr9 2.799967 1_655
Ir0 Zr8 2.799974 1_655
Ir0 Zr4 3.020469 1_555
Ir0 Zr1 3.020470 1_555
Ir0 Sc0 3.033668 1_555
Ir1 Zr6 2.794801 1_565
Ir1 Zr10 2.799957 1_565
Ir1 Zr7 2.799962 1_565
Ir1 Zr3 3.020458 1_555
Ir1 Zr2 3.020467 1_555
Ir1 Sc0 3.033713 1_555
Ir2 Zr8 2.806672 1_556
Ir2 Zr10 2.806678 1_556
Ir2 Zr5 2.807529 1_556
Ir2 Zr0 3.015343 1_555
Ir2 Zr3 3.021734 1_555
Ir2 Zr1 3.021765 1_555
Ir3 Zr7 2.806674 1_555
Ir3 Zr9 2.806678 1_555
Ir3 Zr5 2.807512 1_555
Ir3 Zr0 3.015347 1_555
Ir3 Zr2 3.021738 1_555
Ir3 Zr4 3.021761 1_555
Ir4 Zr0 2.803991 1_565
Ir4 Zr2 2.805431 1_556
Ir4 Zr3 2.805435 1_555
Ir4 Zr10 3.019789 1_566
Ir4 Zr7 3.019789 1_565
Ir4 Zr5 3.022081 1_556
Ir5 Zr0 2.804008 1_655
Ir5 Zr4 2.805408 1_556
Ir5 Zr1 2.805413 1_555
Ir5 Zr8 3.019780 1_656
Ir5 Zr9 3.019786 1_655
Ir5 Zr5 3.022103 1_556
Ir6 Zr4 2.797515 1_565
Ir6 Zr2 2.797517 1_655
Ir6 Sc0 2.820669 1_555
Ir6 Zr9 3.012497 1_655
Ir6 Zr7 3.012518 1_565
Ir6 Zr6 3.014532 1_665
Ir7 Zr1 2.797515 1_565
Ir7 Zr3 2.797519 1_655
Ir7 Sc0 2.820668 1_556
Ir7 Zr8 3.012498 1_656
Ir7 Zr10 3.012516 1_566
Ir7 Zr6 3.014526 1_665
