# generated using pymatgen
data_RbVTeO6
_symmetry_space_group_name_H-M   'P 1'
_cell_length_a   7.05943394
_cell_length_b   7.05943376
_cell_length_c   7.05943380
_cell_angle_alpha   120.82348666
_cell_angle_beta   119.33362061
_cell_angle_gamma   89.86885422
_symmetry_Int_Tables_number   1
_chemical_formula_structural   RbVTeO6
_chemical_formula_sum   'Rb2 V2 Te2 O12'
_cell_volume   248.41931836
_cell_formula_units_Z   2
loop_
 _symmetry_equiv_pos_site_id
 _symmetry_equiv_pos_as_xyz
  1  'x, y, z'
loop_
 _atom_site_type_symbol
 _atom_site_label
 _atom_site_symmetry_multiplicity
 _atom_site_fract_x
 _atom_site_fract_y
 _atom_site_fract_z
 _atom_site_occupancy
  Rb  Rb0  1  0.86549367  0.61549367  0.25000000  1
  Rb  Rb1  1  0.13450633  0.38450633  0.75000000  1
  V  V0  1  0.50000000  0.00000000  0.00000000  1
  V  V1  1  0.50000000  0.50000000  0.50000000  1
  Te  Te0  1  0.50000000  0.00000000  0.50000000  1
  Te  Te1  1  0.00000000  0.00000000  0.00000000  1
  O  O0  1  0.82842627  0.07842627  0.75000000  1
  O  O1  1  0.44924982  0.69924982  0.75000000  1
  O  O2  1  0.81589088  0.67859658  0.74011130  1
  O  O3  1  0.43848428  0.07578059  0.75988870  1
  O  O4  1  0.81589088  0.07578059  0.13729631  1
  O  O5  1  0.43848428  0.67859658  0.36270369  1
  O  O6  1  0.17157373  0.92157373  0.25000000  1
  O  O7  1  0.55075018  0.30075018  0.25000000  1
  O  O8  1  0.18410912  0.32140342  0.25988870  1
  O  O9  1  0.56151572  0.92421941  0.24011130  1
  O  O10  1  0.18410912  0.92421941  0.86270369  1
  O  O11  1  0.56151572  0.32140342  0.63729631  1
loop_
_geom_bond_atom_site_label_1
_geom_bond_atom_site_label_2
_geom_bond_distance
_geom_bond_site_symmetry_2
O0 Te0 1.947339 1_555
O0 Te1 1.947339 1_656
O0 Rb1 3.059260 1_655
O1 V0 1.815161 1_566
O1 V1 1.815161 1_555
O1 Rb1 3.145851 1_555
O2 V1 1.885456 1_555
O2 Te1 1.901188 1_666
O2 Rb1 3.057370 1_655
O3 V0 1.885460 1_556
O3 Te0 1.901191 1_555
O3 Rb1 3.057360 1_555
O4 V0 1.885454 1_555
O4 Te1 1.901198 1_655
O4 Rb1 3.057360 1_655
O5 V1 1.885467 1_555
O5 Te0 1.901185 1_565
O5 Rb1 3.057360 1_554
O6 Te0 1.947339 1_565
O6 Te1 1.947339 1_565
O6 Rb0 3.059260 1_455
O7 V0 1.815161 1_555
O7 V1 1.815161 1_555
O7 Rb0 3.145851 1_555
O8 V1 1.885456 1_555
O8 Te1 1.901188 1_555
O8 Rb0 3.057370 1_455
O9 V0 1.885460 1_565
O9 Te0 1.901191 1_565
O9 Rb0 3.057360 1_555
O10 V0 1.885454 1_566
O10 Te1 1.901198 1_566
O10 Rb0 3.057360 1_455
O11 V1 1.885467 1_555
O11 Te0 1.901185 1_555
O11 Rb0 3.057360 1_556
