# generated using pymatgen
data_CeIr5
_symmetry_space_group_name_H-M   'P 1'
_cell_length_a   5.27434179
_cell_length_b   5.27399134
_cell_length_c   4.34091943
_cell_angle_alpha   90.00000000
_cell_angle_beta   90.00000000
_cell_angle_gamma   119.99999835
_symmetry_Int_Tables_number   1
_chemical_formula_structural   CeIr5
_chemical_formula_sum   'Ce1 Ir5'
_cell_volume   104.57311524
_cell_formula_units_Z   1
loop_
 _symmetry_equiv_pos_site_id
 _symmetry_equiv_pos_as_xyz
  1  'x, y, z'
loop_
 _atom_site_type_symbol
 _atom_site_label
 _atom_site_symmetry_multiplicity
 _atom_site_fract_x
 _atom_site_fract_y
 _atom_site_fract_z
 _atom_site_occupancy
  Ce  Ce0  1  0.00000000  -0.00000000  0.00000000  1
  Ir  Ir0  1  0.33335117  0.66669584  0.00000000  1
  Ir  Ir1  1  0.66664883  0.33330416  -0.00000000  1
  Ir  Ir2  1  0.50000000  -0.00000000  0.50000000  1
  Ir  Ir3  1  0.50000000  0.50000000  0.50000000  1
  Ir  Ir4  1  0.00000000  0.50000000  0.50000000  1
loop_
_geom_bond_atom_site_label_1
_geom_bond_atom_site_label_2
_geom_bond_distance
_geom_bond_site_symmetry_2
Ce0 Ir0 3.044990 1_545
Ce0 Ir1 3.044990 1_455
Ce0 Ir0 3.045061 1_445
Ce0 Ir1 3.045061 1_555
Ce0 Ir0 3.045074 1_555
Ce0 Ir1 3.045074 1_445
Ce0 Ir4 3.415354 1_554
Ce0 Ir4 3.415354 1_555
Ce0 Ir4 3.415354 1_545
Ce0 Ir4 3.415354 1_544
Ce0 Ir3 3.415421 1_445
Ce0 Ir3 3.415421 1_444
Ce0 Ir3 3.415421 1_555
Ce0 Ir3 3.415421 1_554
Ce0 Ir2 3.415489 1_555
Ce0 Ir2 3.415489 1_455
Ce0 Ir2 3.415489 1_554
Ce0 Ir2 3.415489 1_454
Ir0 Ir2 2.651114 1_565
Ir0 Ir2 2.651114 1_564
Ir0 Ir3 2.651249 1_555
Ir0 Ir3 2.651249 1_554
Ir0 Ir4 2.651295 1_555
Ir0 Ir4 2.651295 1_554
Ir0 Ir1 3.044674 1_565
Ir0 Ir1 3.045145 1_555
Ir0 Ir1 3.045306 1_455
Ir1 Ir2 2.651114 1_555
Ir1 Ir2 2.651114 1_554
Ir1 Ir3 2.651249 1_555
Ir1 Ir3 2.651249 1_554
Ir1 Ir4 2.651295 1_655
Ir1 Ir4 2.651295 1_654
Ir2 Ir3 2.636996 1_555
Ir2 Ir3 2.636996 1_545
Ir2 Ir4 2.637083 1_545
Ir2 Ir4 2.637083 1_655
Ir3 Ir4 2.637171 1_555
Ir3 Ir4 2.637171 1_655
