# generated using pymatgen
data_LuZrBIr6
_symmetry_space_group_name_H-M   'P 1'
_cell_length_a   5.72990189
_cell_length_b   5.72990183
_cell_length_c   5.72990161
_cell_angle_alpha   59.99999562
_cell_angle_beta   59.99999599
_cell_angle_gamma   60.00000023
_symmetry_Int_Tables_number   1
_chemical_formula_structural   LuZrBIr6
_chemical_formula_sum   'Lu1 Zr1 B1 Ir6'
_cell_volume   133.02292911
_cell_formula_units_Z   1
loop_
 _symmetry_equiv_pos_site_id
 _symmetry_equiv_pos_as_xyz
  1  'x, y, z'
loop_
 _atom_site_type_symbol
 _atom_site_label
 _atom_site_symmetry_multiplicity
 _atom_site_fract_x
 _atom_site_fract_y
 _atom_site_fract_z
 _atom_site_occupancy
  Lu  Lu0  1  0.75000000  0.75000000  0.75000000  1
  Zr  Zr0  1  0.25000000  0.25000000  0.25000000  1
  B  B0  1  0.00000000  0.00000000  0.00000000  1
  Ir  Ir0  1  0.74164717  0.74164717  0.25835283  1
  Ir  Ir1  1  0.25835283  0.74164717  0.25835283  1
  Ir  Ir2  1  0.74164717  0.25835283  0.25835283  1
  Ir  Ir3  1  0.25835283  0.25835283  0.74164717  1
  Ir  Ir4  1  0.74164717  0.25835283  0.74164717  1
  Ir  Ir5  1  0.25835283  0.74164717  0.74164717  1
loop_
_geom_bond_atom_site_label_1
_geom_bond_atom_site_label_2
_geom_bond_distance
_geom_bond_site_symmetry_2
B0 Ir3 2.093512 1_554
B0 Ir0 2.093512 1_445
B0 Ir2 2.093512 1_455
B0 Ir5 2.093512 1_544
B0 Ir1 2.093512 1_545
B0 Ir4 2.093512 1_454
Ir0 Lu0 2.865750 1_554
Ir0 Lu0 2.865750 1_555
Ir0 Zr0 2.865750 1_565
Ir0 Zr0 2.865750 1_655
Ir1 Lu0 2.865750 1_554
Ir1 Lu0 2.865750 1_455
Ir1 Zr0 2.865750 1_565
Ir1 Zr0 2.865750 1_555
Ir2 Lu0 2.865750 1_554
Ir2 Lu0 2.865750 1_545
Ir2 Zr0 2.865750 1_655
Ir2 Zr0 2.865750 1_555
Ir3 Zr0 2.865750 1_556
Ir3 Zr0 2.865750 1_555
Ir3 Lu0 2.865750 1_545
Ir3 Lu0 2.865750 1_455
Ir4 Zr0 2.865750 1_556
Ir4 Zr0 2.865750 1_655
Ir4 Lu0 2.865750 1_545
Ir4 Lu0 2.865750 1_555
Ir5 Zr0 2.865750 1_556
Ir5 Zr0 2.865750 1_565
Ir5 Lu0 2.865750 1_455
Ir5 Lu0 2.865750 1_555
