# generated using pymatgen
data_Cs2Zr(AgS2)2
_symmetry_space_group_name_H-M   'P 1'
_cell_length_a   6.15855267
_cell_length_b   6.15855267
_cell_length_c   13.97635897
_cell_angle_alpha   90.00000000
_cell_angle_beta   90.00000000
_cell_angle_gamma   90.00000000
_symmetry_Int_Tables_number   1
_chemical_formula_structural   Cs2Zr(AgS2)2
_chemical_formula_sum   'Cs4 Zr2 Ag4 S8'
_cell_volume   530.09214163
_cell_formula_units_Z   2
loop_
 _symmetry_equiv_pos_site_id
 _symmetry_equiv_pos_as_xyz
  1  'x, y, z'
loop_
 _atom_site_type_symbol
 _atom_site_label
 _atom_site_symmetry_multiplicity
 _atom_site_fract_x
 _atom_site_fract_y
 _atom_site_fract_z
 _atom_site_occupancy
  Cs  Cs0  1  0.26876427  0.26876427  0.00000000  1
  Cs  Cs1  1  0.73123573  0.73123573  0.00000000  1
  Cs  Cs2  1  0.73123573  0.26876427  0.50000000  1
  Cs  Cs3  1  0.26876427  0.73123573  0.50000000  1
  Zr  Zr0  1  0.00000000  0.00000000  0.25000000  1
  Zr  Zr1  1  0.00000000  0.00000000  0.75000000  1
  Ag  Ag0  1  0.00000000  0.50000000  0.25000000  1
  Ag  Ag1  1  0.00000000  0.50000000  0.75000000  1
  Ag  Ag2  1  0.50000000  0.00000000  0.75000000  1
  Ag  Ag3  1  0.50000000  0.00000000  0.25000000  1
  S  S0  1  0.22643327  0.22643327  0.35080776  1
  S  S1  1  0.77356673  0.77356673  0.64919224  1
  S  S2  1  0.77356673  0.77356673  0.35080776  1
  S  S3  1  0.77356673  0.22643327  0.85080776  1
  S  S4  1  0.77356673  0.22643327  0.14919224  1
  S  S5  1  0.22643327  0.22643327  0.64919224  1
  S  S6  1  0.22643327  0.77356673  0.14919224  1
  S  S7  1  0.22643327  0.77356673  0.85080776  1
loop_
_geom_bond_atom_site_label_1
_geom_bond_atom_site_label_2
_geom_bond_distance
_geom_bond_site_symmetry_2
Cs0 S6 3.703585 1_545
Cs0 S4 3.703585 1_455
Cs0 S3 3.703585 1_454
Cs0 S7 3.703585 1_544
Cs0 S6 3.752444 1_555
Cs0 S4 3.752444 1_555
Cs0 S7 3.752444 1_554
Cs0 S3 3.752444 1_554
Cs1 S4 3.703585 1_565
Cs1 S6 3.703585 1_655
Cs1 S7 3.703585 1_654
Cs1 S3 3.703585 1_564
Cs1 S4 3.752444 1_555
Cs1 S6 3.752444 1_555
Cs1 S7 3.752444 1_554
Cs1 S3 3.752444 1_554
Cs2 S1 3.703585 1_545
Cs2 S5 3.703585 1_655
Cs2 S2 3.703585 1_545
Cs2 S0 3.703585 1_655
Cs2 S5 3.752444 1_555
Cs2 S1 3.752444 1_555
Cs2 S0 3.752444 1_555
Cs2 S2 3.752444 1_555
Cs3 S1 3.703585 1_455
Cs3 S5 3.703585 1_565
Cs3 S2 3.703585 1_455
Cs3 S0 3.703585 1_565
Cs3 S5 3.752444 1_555
Cs3 S1 3.752444 1_555
Cs3 S0 3.752444 1_555
Cs3 S2 3.752444 1_555
Ag0 S2 2.601571 1_455
Ag0 S0 2.601571 1_555
Ag0 S4 2.601571 1_455
Ag0 S6 2.601571 1_555
Ag1 S3 2.601571 1_455
Ag1 S7 2.601571 1_555
Ag1 S5 2.601571 1_555
Ag1 S1 2.601571 1_455
Ag2 S7 2.601571 1_545
Ag2 S3 2.601571 1_555
Ag2 S1 2.601571 1_545
Ag2 S5 2.601571 1_555
Ag3 S0 2.601571 1_555
Ag3 S2 2.601571 1_545
Ag3 S6 2.601571 1_545
Ag3 S4 2.601571 1_555
S0 Zr0 2.423703 1_555
S1 Zr1 2.423703 1_665
S2 Zr0 2.423703 1_665
S3 Zr1 2.423703 1_655
S4 Zr0 2.423703 1_655
S5 Zr1 2.423703 1_555
S6 Zr0 2.423703 1_565
S7 Zr1 2.423703 1_565
