# generated using pymatgen
data_CaLaMn2O6
_symmetry_space_group_name_H-M   'P 1'
_cell_length_a   5.52886738
_cell_length_b   5.47910438
_cell_length_c   7.70067900
_cell_angle_alpha   89.99999977
_cell_angle_beta   90.00121116
_cell_angle_gamma   90.04247286
_symmetry_Int_Tables_number   1
_chemical_formula_structural   CaLaMn2O6
_chemical_formula_sum   'Ca2 La2 Mn4 O12'
_cell_volume   233.27846421
_cell_formula_units_Z   2
loop_
 _symmetry_equiv_pos_site_id
 _symmetry_equiv_pos_as_xyz
  1  'x, y, z'
loop_
 _atom_site_type_symbol
 _atom_site_label
 _atom_site_symmetry_multiplicity
 _atom_site_fract_x
 _atom_site_fract_y
 _atom_site_fract_z
 _atom_site_occupancy
  Ca  Ca0  1  0.79161000  0.01538200  0.50000400  1
  Ca  Ca1  1  0.20821100  0.51526200  0.99999900  1
  La  La0  1  0.71829400  0.02951500  0.00000300  1
  La  La1  1  0.28185000  0.52968600  0.49999500  1
  Mn  Mn0  1  0.75015900  0.52316600  0.25062600  1
  Mn  Mn1  1  0.75016700  0.52316800  0.74936800  1
  Mn  Mn2  1  0.24991700  0.02321200  0.24938400  1
  Mn  Mn3  1  0.24991500  0.02321200  0.75061900  1
  O  O0  1  0.96739900  0.24116700  0.21395400  1
  O  O1  1  0.96734800  0.24119100  0.78604300  1
  O  O2  1  0.03279400  0.74125500  0.28610600  1
  O  O3  1  0.03281000  0.74129600  0.71390500  1
  O  O4  1  0.53679600  0.80932300  0.70916800  1
  O  O5  1  0.53676200  0.80936200  0.29084000  1
  O  O6  1  0.46300500  0.30919900  0.79089800  1
  O  O7  1  0.46302300  0.30924400  0.20909400  1
  O  O8  1  0.23155500  0.09149000  0.50000200  1
  O  O9  1  0.76848400  0.59140100  0.00000700  1
  O  O10  1  0.26474100  0.94405800  0.99999900  1
  O  O11  1  0.73516000  0.44421300  0.49998800  1
loop_
_geom_bond_atom_site_label_1
_geom_bond_atom_site_label_2
_geom_bond_distance
_geom_bond_site_symmetry_2
Ca0 O11 2.370477 1_555
Ca0 O5 2.418978 1_545
Ca0 O4 2.419008 1_545
Ca0 O8 2.467579 1_655
Ca0 O3 2.598022 1_645
Ca0 O2 2.598128 1_645
Ca0 O1 2.706437 1_555
Ca0 O0 2.706580 1_555
Ca1 O10 2.369886 1_555
Ca1 O7 2.419478 1_556
Ca1 O6 2.419606 1_555
Ca1 O9 2.467029 1_456
Ca1 O0 2.596107 1_456
Ca1 O1 2.596145 1_455
Ca1 O3 2.707335 1_555
Ca1 O2 2.707379 1_556
La0 O9 2.416663 1_545
La0 O1 2.440011 1_554
La0 O0 2.440021 1_555
La0 O10 2.550633 1_544
La0 O6 2.633731 1_554
La0 O7 2.633792 1_555
La0 O4 2.734327 1_544
La0 O5 2.734349 1_545
La1 O8 2.416766 1_555
La1 O2 2.440300 1_555
La1 O3 2.440505 1_555
La1 O11 2.550010 1_555
La1 O5 2.631644 1_555
La1 O4 2.631668 1_555
La1 O7 2.735379 1_555
La1 O6 2.735430 1_555
Mn0 O9 1.968413 1_555
Mn0 O11 1.970115 1_555
Mn0 O0 1.977998 1_555
Mn0 O2 1.985348 1_655
Mn0 O5 1.987365 1_555
Mn0 O7 1.998400 1_555
Mn1 O9 1.968555 1_556
Mn1 O11 1.970251 1_555
Mn1 O1 1.977701 1_555
Mn1 O3 1.985502 1_655
Mn1 O4 1.987077 1_555
Mn1 O6 1.998673 1_555
Mn2 O8 1.968489 1_555
Mn2 O10 1.970516 1_544
Mn2 O2 1.976089 1_545
Mn2 O7 1.984412 1_555
Mn2 O0 1.985738 1_455
Mn2 O5 1.998177 1_545
Mn3 O8 1.968477 1_555
Mn3 O10 1.970475 1_545
Mn3 O3 1.975837 1_545
Mn3 O6 1.984144 1_555
Mn3 O1 1.986033 1_455
Mn3 O4 1.998465 1_545
