# generated using pymatgen
data_YP6(Pd10Pb)2
_symmetry_space_group_name_H-M   'P 1'
_cell_length_a   8.63822559
_cell_length_b   8.63822572
_cell_length_c   8.63822496
_cell_angle_alpha   59.99999544
_cell_angle_beta   59.99999492
_cell_angle_gamma   59.99999713
_symmetry_Int_Tables_number   1
_chemical_formula_structural   YP6(Pd10Pb)2
_chemical_formula_sum   'Y1 P6 Pd20 Pb2'
_cell_volume   455.78345948
_cell_formula_units_Z   1
loop_
 _symmetry_equiv_pos_site_id
 _symmetry_equiv_pos_as_xyz
  1  'x, y, z'
loop_
 _atom_site_type_symbol
 _atom_site_label
 _atom_site_symmetry_multiplicity
 _atom_site_fract_x
 _atom_site_fract_y
 _atom_site_fract_z
 _atom_site_occupancy
  Y  Y0  1  0.00000000  0.00000000  0.00000000  1
  P  P0  1  0.73606235  0.26393765  0.26393765  1
  P  P1  1  0.26393765  0.73606235  0.73606235  1
  P  P2  1  0.26393765  0.73606235  0.26393765  1
  P  P3  1  0.73606235  0.26393765  0.73606235  1
  P  P4  1  0.26393765  0.26393765  0.73606235  1
  P  P5  1  0.73606235  0.73606235  0.26393765  1
  Pd  Pd0  1  0.38465622  0.38465622  0.38465622  1
  Pd  Pd1  1  0.61534378  0.61534378  0.61534378  1
  Pd  Pd2  1  0.38465622  0.38465622  0.84603233  1
  Pd  Pd3  1  0.38465622  0.84603233  0.38465622  1
  Pd  Pd4  1  0.61534378  0.61534378  0.15396767  1
  Pd  Pd5  1  0.61534378  0.15396767  0.61534378  1
  Pd  Pd6  1  0.84603233  0.38465622  0.38465622  1
  Pd  Pd7  1  0.15396767  0.61534378  0.61534378  1
  Pd  Pd8  1  0.34415642  0.00000000  0.00000000  1
  Pd  Pd9  1  0.65584358  1.00000000  1.00000000  1
  Pd  Pd10  1  1.00000000  0.34415642  0.65584358  1
  Pd  Pd11  1  0.00000000  0.65584358  0.34415642  1
  Pd  Pd12  1  0.00000000  0.34415642  0.00000000  1
  Pd  Pd13  1  0.65584358  0.00000000  0.34415642  1
  Pd  Pd14  1  1.00000000  0.65584358  1.00000000  1
  Pd  Pd15  1  0.34415642  1.00000000  0.65584358  1
  Pd  Pd16  1  0.00000000  0.00000000  0.34415642  1
  Pd  Pd17  1  1.00000000  1.00000000  0.65584358  1
  Pd  Pd18  1  0.65584358  0.34415642  1.00000000  1
  Pd  Pd19  1  0.34415642  0.65584358  0.00000000  1
  Pb  Pb0  1  0.25000000  0.25000000  0.25000000  1
  Pb  Pb1  1  0.75000000  0.75000000  0.75000000  1
loop_
_geom_bond_atom_site_label_1
_geom_bond_atom_site_label_2
_geom_bond_distance
_geom_bond_site_symmetry_2
P0 Pd12 2.382931 1_655
P0 Pd18 2.382931 1_554
P0 Pd16 2.382931 1_655
P0 Pd13 2.382931 1_555
P0 Pd5 2.479075 1_555
P0 Pd4 2.479076 1_555
P0 Pd0 2.479076 1_555
P0 Pd6 2.479083 1_555
P0 Y0 3.224340 1_655
P1 Pd14 2.382931 1_455
P1 Pd19 2.382931 1_556
P1 Pd17 2.382931 1_455
P1 Pd15 2.382931 1_555
P1 Pd3 2.479075 1_555
P1 Pd2 2.479076 1_555
P1 Pd1 2.479076 1_555
P1 Pd7 2.479083 1_555
P1 Y0 3.224340 1_566
P2 Pd8 2.382931 1_565
P2 Pd19 2.382931 1_555
P2 Pd16 2.382931 1_565
P2 Pd11 2.382931 1_555
P2 Pd7 2.479075 1_555
P2 Pd4 2.479076 1_555
P2 Pd0 2.479076 1_555
P2 Pd3 2.479083 1_555
P2 Y0 3.224340 1_565
P3 Pd9 2.382931 1_545
P3 Pd18 2.382931 1_555
P3 Pd17 2.382931 1_545
P3 Pd10 2.382931 1_555
P3 Pd6 2.479075 1_555
P3 Pd2 2.479076 1_555
P3 Pd1 2.479076 1_555
P3 Pd5 2.479083 1_555
P3 Y0 3.224340 1_656
P4 Pd12 2.382931 1_556
P4 Pd8 2.382931 1_556
P4 Pd10 2.382931 1_455
P4 Pd15 2.382931 1_545
P4 Pd0 2.479076 1_555
P4 Pd5 2.479076 1_555
P4 Pd7 2.479076 1_555
P4 Pd2 2.479083 1_555
P4 Y0 3.224340 1_556
P5 Pd14 2.382931 1_554
P5 Pd9 2.382931 1_554
P5 Pd11 2.382931 1_655
P5 Pd13 2.382931 1_565
P5 Pd1 2.479076 1_555
P5 Pd3 2.479076 1_555
P5 Pd6 2.479076 1_555
P5 Pd4 2.479083 1_555
P5 Y0 3.224340 1_665
Pd0 Pd18 3.034769 1_554
Pd0 Pd19 3.034769 1_555
Pd0 Pd10 3.034769 1_455
Pd0 Pd15 3.034770 1_545
Pd0 Pd11 3.034770 1_555
Pd0 Pd13 3.034770 1_555
Pd1 Pd19 3.034769 1_556
Pd1 Pd18 3.034769 1_555
Pd1 Pd11 3.034769 1_655
Pd1 Pd13 3.034770 1_565
Pd1 Pd10 3.034770 1_555
Pd1 Pd15 3.034770 1_555
Pd2 Pd9 3.034767 1_545
Pd2 Pd8 3.034771 1_556
Pd3 Pd9 3.034767 1_554
Pd3 Pd8 3.034771 1_565
Pd4 Pd8 3.034767 1_565
Pd4 Pd9 3.034771 1_554
Pd5 Pd8 3.034767 1_556
Pd5 Pd9 3.034771 1_545
Pd8 Pd9 2.692424 1_544
Pd8 Y0 2.972901 1_555
Pd9 Y0 2.972901 1_666
Pd10 Pd11 2.692424 1_655
Pd10 Pd18 2.972900 1_555
Pd10 Y0 2.972901 1_656
Pd10 Pd12 2.972901 1_656
Pd10 Pd15 2.972901 1_645
Pd10 Pd17 2.972901 1_545
Pd10 Pd6 3.034763 1_555
Pd10 Pd7 3.034763 1_655
Pd11 Pd19 2.972900 1_555
Pd11 Y0 2.972901 1_565
Pd11 Pd14 2.972901 1_454
Pd11 Pd13 2.972901 1_465
Pd11 Pd16 2.972901 1_565
Pd11 Pd7 3.034763 1_555
Pd11 Pd6 3.034763 1_455
Pd12 Pd14 2.692424 1_454
Pd12 Pd16 2.972901 1_555
Pd12 Pd8 2.972901 1_555
Pd12 Pd18 2.972901 1_454
Pd12 Y0 2.972901 1_555
Pd12 Pd7 3.034767 1_554
Pd12 Pd4 3.034767 1_455
Pd12 Pd6 3.034771 1_455
Pd12 Pd2 3.034771 1_554
Pd13 Pd15 2.692424 1_545
Pd13 Y0 2.972900 1_655
Pd13 Pd18 2.972901 1_554
Pd13 Pd9 2.972901 1_544
Pd13 Pd16 2.972901 1_655
Pd13 Pd5 3.034763 1_555
Pd13 Pd3 3.034763 1_545
Pd14 Pd17 2.972901 1_555
Pd14 Pd9 2.972901 1_555
Pd14 Pd19 2.972901 1_656
Pd14 Y0 2.972901 1_666
Pd14 Pd6 3.034767 1_556
Pd14 Pd2 3.034767 1_655
Pd14 Pd7 3.034771 1_655
Pd14 Pd4 3.034771 1_556
Pd15 Y0 2.972900 1_566
Pd15 Pd19 2.972901 1_556
Pd15 Pd8 2.972901 1_566
Pd15 Pd17 2.972901 1_455
Pd15 Pd3 3.034763 1_555
Pd15 Pd5 3.034763 1_565
Pd16 Pd17 2.692424 1_445
Pd16 Pd8 2.972900 1_555
Pd16 Y0 2.972901 1_555
Pd16 Pd5 3.034767 1_455
Pd16 Pd7 3.034767 1_545
Pd16 Pd3 3.034771 1_545
Pd16 Pd6 3.034771 1_455
Pd17 Pd9 2.972900 1_555
Pd17 Y0 2.972901 1_666
Pd17 Pd3 3.034767 1_655
Pd17 Pd6 3.034767 1_565
Pd17 Pd5 3.034771 1_565
Pd17 Pd7 3.034771 1_655
Pd18 Pd19 2.692424 1_556
Pd18 Y0 2.972901 1_656
Pd18 Pd9 2.972901 1_545
Pd18 Pd2 3.034763 1_555
Pd18 Pd4 3.034763 1_556
Pd19 Y0 2.972901 1_565
Pd19 Pd8 2.972901 1_565
Pd19 Pd4 3.034763 1_555
Pd19 Pd2 3.034763 1_554
Pb0 Pd2 2.849217 1_554
Pb0 Pd6 2.849217 1_455
Pb0 Pd3 2.849217 1_545
Pb0 Pd0 2.849224 1_555
Pb0 Pd17 3.337612 1_445
Pb0 Pd10 3.337612 1_455
Pb0 Pd15 3.337612 1_545
Pb0 Pd9 3.337612 1_544
Pb0 Pd14 3.337612 1_454
Pb0 Pd18 3.337612 1_554
Pb0 Pd19 3.337612 1_555
Pb0 Pd13 3.337612 1_555
Pb0 Pd12 3.337612 1_555
Pb0 Pd8 3.337612 1_555
Pb0 Pd11 3.337612 1_555
Pb0 Pd16 3.337612 1_555
Pb1 Pd4 2.849217 1_556
Pb1 Pd7 2.849217 1_655
Pb1 Pd5 2.849217 1_565
Pb1 Pd1 2.849224 1_555
Pb1 Pd16 3.337612 1_665
Pb1 Pd11 3.337612 1_655
Pb1 Pd13 3.337612 1_565
Pb1 Pd8 3.337612 1_566
Pb1 Pd12 3.337612 1_656
Pb1 Pd19 3.337612 1_556
Pb1 Pd18 3.337612 1_555
Pb1 Pd15 3.337612 1_555
Pb1 Pd14 3.337612 1_555
Pb1 Pd9 3.337612 1_555
Pb1 Pd10 3.337612 1_555
Pb1 Pd17 3.337612 1_555
