# generated using pymatgen
data_TiNb(ReSi)2
_symmetry_space_group_name_H-M   'P 1'
_cell_length_a   7.51962993
_cell_length_b   7.56374878
_cell_length_c   7.51962906
_cell_angle_alpha   125.96599077
_cell_angle_beta   128.26285880
_cell_angle_gamma   77.94820027
_symmetry_Int_Tables_number   1
_chemical_formula_structural   TiNb(ReSi)2
_chemical_formula_sum   'Ti3 Nb3 Re6 Si6'
_cell_volume   263.59777206
_cell_formula_units_Z   3
loop_
 _symmetry_equiv_pos_site_id
 _symmetry_equiv_pos_as_xyz
  1  'x, y, z'
loop_
 _atom_site_type_symbol
 _atom_site_label
 _atom_site_symmetry_multiplicity
 _atom_site_fract_x
 _atom_site_fract_y
 _atom_site_fract_z
 _atom_site_occupancy
  Ti  Ti0  1  0.55096807  0.09389040  0.04292133  1
  Ti  Ti1  1  0.44886176  0.49320253  0.54434078  1
  Ti  Ti2  1  0.95049357  0.49559839  0.04510482  1
  Nb  Nb0  1  0.04936160  0.09063249  0.54127189  1
  Nb  Nb1  1  0.75318916  0.90416508  0.65097592  1
  Nb  Nb2  1  0.24934470  0.89976734  0.15042264  1
  Re  Re0  1  0.50175044  0.24174860  0.74273636  1
  Re  Re1  1  0.99901123  0.24174860  0.23999716  1
  Re  Re2  1  0.13102263  0.75392230  0.62642221  1
  Re  Re3  1  0.86873931  0.49607543  0.62588849  1
  Re  Re4  1  0.62749909  0.75392230  0.12289967  1
  Re  Re5  1  0.37018694  0.49607543  0.12733712  1
  Si  Si0  1  0.74992989  0.49834416  0.24841426  1
  Si  Si1  1  0.24933697  0.49677769  0.74743972  1
  Si  Si2  1  0.33606670  0.82582163  0.49893009  1
  Si  Si3  1  0.66493015  0.16734350  0.49492825  1
  Si  Si4  1  0.82689055  0.82582163  0.98975393  1
  Si  Si5  1  0.17241625  0.16734350  0.00241336  1
loop_
_geom_bond_atom_site_label_1
_geom_bond_atom_site_label_2
_geom_bond_distance
_geom_bond_site_symmetry_2
Nb0 Si2 2.656886 1_545
Nb0 Si4 2.656894 1_444
Nb0 Si5 2.665344 1_556
Nb0 Si3 2.665351 1_455
Nb0 Si1 2.747608 1_555
Nb0 Re2 2.837007 1_545
Nb0 Re4 2.837015 1_445
Nb0 Re0 2.894937 1_555
Nb0 Re1 2.894944 1_455
Nb0 Re5 2.948402 1_556
Nb0 Re3 2.948403 1_455
Nb1 Si3 2.647148 1_565
Nb1 Si5 2.647153 1_666
Nb1 Si4 2.652425 1_555
Nb1 Si2 2.652430 1_555
Nb1 Si0 2.758858 1_555
Nb1 Re1 2.846233 1_566
Nb1 Re0 2.846237 1_565
Nb1 Re4 2.907350 1_555
Nb1 Re2 2.907354 1_655
Nb1 Re5 2.952501 1_555
Nb1 Re3 2.952501 1_555
Nb2 Si3 2.651218 1_565
Nb2 Si5 2.651220 1_565
Nb2 Si2 2.656805 1_555
Nb2 Si4 2.656809 1_454
Nb2 Si1 2.761160 1_554
Nb2 Re0 2.859811 1_565
Nb2 Re1 2.859815 1_465
Nb2 Re4 2.914875 1_555
Nb2 Re2 2.914882 1_554
Nb2 Re3 2.931440 1_454
Nb2 Re5 2.931442 1_555
Re0 Si0 2.400724 1_556
Re0 Si1 2.408089 1_555
Re0 Si3 2.570309 1_555
Re0 Si2 2.616015 1_545
Re0 Ti0 2.870667 1_556
Re0 Ti1 2.878076 1_555
Re0 Ti2 2.884087 1_556
Re1 Si0 2.400720 1_555
Re1 Si1 2.408089 1_655
Re1 Si5 2.570316 1_655
Re1 Si4 2.616015 1_544
Re1 Ti0 2.870668 1_555
Re1 Ti1 2.878080 1_655
Re1 Ti2 2.884083 1_555
Re2 Si1 2.399214 1_555
Re2 Si0 2.408131 1_455
Re2 Si2 2.526951 1_555
Re2 Si5 2.607778 1_566
Re2 Ti0 2.841656 1_566
Re2 Ti1 2.900216 1_555
Re2 Ti2 2.914511 1_455
Re3 Si0 2.401116 1_555
Re3 Si1 2.405620 1_655
Re3 Si3 2.519301 1_555
Re3 Si4 2.555175 1_555
Re3 Ti2 2.815577 1_556
Re3 Ti1 2.821392 1_555
Re3 Ti0 2.928920 1_555
Re4 Si1 2.399214 1_554
Re4 Si0 2.408130 1_555
Re4 Si4 2.526958 1_554
Re4 Si3 2.607778 1_565
Re4 Ti0 2.841660 1_565
Re4 Ti1 2.900218 1_554
Re4 Ti2 2.914517 1_555
Re5 Si0 2.401119 1_555
Re5 Si1 2.405631 1_554
Re5 Si5 2.519293 1_555
Re5 Si2 2.555171 1_555
Re5 Ti2 2.815574 1_455
Re5 Ti1 2.821384 1_555
Re5 Ti0 2.928916 1_555
Si0 Ti2 2.723524 1_555
Si0 Ti0 2.734984 1_555
Si1 Ti1 2.712330 1_555
Si2 Ti0 2.625716 1_566
Si2 Ti1 2.631498 1_555
Si2 Ti2 2.654858 1_455
Si3 Ti1 2.617717 1_555
Si3 Ti0 2.639871 1_555
Si3 Ti2 2.655072 1_556
Si4 Ti0 2.625716 1_566
Si4 Ti1 2.631494 1_555
Si4 Ti2 2.654862 1_556
Si5 Ti1 2.617716 1_555
Si5 Ti0 2.639860 1_555
Si5 Ti2 2.655076 1_455
