# generated using pymatgen
data_Rb20Si4AsP11
_symmetry_space_group_name_H-M   'P 1'
_cell_length_a   5.60346881
_cell_length_b   13.86604754
_cell_length_c   15.21409081
_cell_angle_alpha   90.01274240
_cell_angle_beta   90.00000000
_cell_angle_gamma   90.00000000
_symmetry_Int_Tables_number   1
_chemical_formula_structural   Rb20Si4AsP11
_chemical_formula_sum   'Rb20 Si4 As1 P11'
_cell_volume   1182.10386488
_cell_formula_units_Z   1
loop_
 _symmetry_equiv_pos_site_id
 _symmetry_equiv_pos_as_xyz
  1  'x, y, z'
loop_
 _atom_site_type_symbol
 _atom_site_label
 _atom_site_symmetry_multiplicity
 _atom_site_fract_x
 _atom_site_fract_y
 _atom_site_fract_z
 _atom_site_occupancy
  Rb  Rb0  1  0.75000000  0.44827198  0.14889757  1
  Rb  Rb1  1  0.25000000  0.55074774  0.85239476  1
  Rb  Rb2  1  0.75000000  0.94680850  0.35158577  1
  Rb  Rb3  1  0.25000000  0.05153324  0.65038282  1
  Rb  Rb4  1  0.25000000  0.27831148  0.78829727  1
  Rb  Rb5  1  0.75000000  0.72119105  0.21120940  1
  Rb  Rb6  1  0.25000000  0.77679650  0.71277822  1
  Rb  Rb7  1  0.75000000  0.21935399  0.28732053  1
  Rb  Rb8  1  0.25000000  0.85519454  0.45634156  1
  Rb  Rb9  1  0.75000000  0.14524052  0.54688539  1
  Rb  Rb10  1  0.25000000  0.35343717  0.04630605  1
  Rb  Rb11  1  0.75000000  0.64592339  0.95391553  1
  Rb  Rb12  1  0.25000000  0.62189593  0.31561989  1
  Rb  Rb13  1  0.75000000  0.38452026  0.68408119  1
  Rb  Rb14  1  0.25000000  0.11430373  0.18298890  1
  Rb  Rb15  1  0.75000000  0.88475653  0.81648553  1
  Rb  Rb16  1  0.25000000  0.56533892  0.55147234  1
  Rb  Rb17  1  0.75000000  0.43638892  0.44838669  1
  Rb  Rb18  1  0.25000000  0.06532571  0.94649605  1
  Rb  Rb19  1  0.75000000  0.93413538  0.05257093  1
  Si  Si0  1  0.75000000  0.23849371  0.92825061  1
  Si  Si1  1  0.25000000  0.76105221  0.07086862  1
  Si  Si2  1  0.75000000  0.73939313  0.57123999  1
  Si  Si3  1  0.25000000  0.25917982  0.43065707  1
  As  As0  1  0.25000000  0.36752521  0.31447125  1
  P  P0  1  0.25000000  0.30998066  0.56619689  1
  P  P1  1  0.75000000  0.69087220  0.43461244  1
  P  P2  1  0.25000000  0.81107513  0.93463176  1
  P  P3  1  0.75000000  0.18796665  0.06428078  1
  P  P4  1  0.25000000  0.10411014  0.40742745  1
  P  P5  1  0.75000000  0.89502828  0.59393762  1
  P  P6  1  0.25000000  0.60541180  0.09231203  1
  P  P7  1  0.75000000  0.39441903  0.90711143  1
  P  P8  1  0.75000000  0.13689557  0.81747372  1
  P  P9  1  0.25000000  0.86296498  0.18146458  1
  P  P10  1  0.75000000  0.63615498  0.68064735  1
loop_
_geom_bond_atom_site_label_1
_geom_bond_atom_site_label_2
_geom_bond_distance
_geom_bond_site_symmetry_2
As0 Si3 2.320082 1_555
As0 Rb7 3.498734 1_555
As0 Rb7 3.498734 1_455
As0 Rb12 3.527156 1_555
As0 Rb17 3.593275 1_555
As0 Rb17 3.593275 1_455
As0 Rb0 3.930673 1_455
As0 Rb0 3.930673 1_555
P0 Si3 2.178959 1_555
P0 Rb4 3.407566 1_555
P0 Rb13 3.483362 1_455
P0 Rb13 3.483362 1_555
P0 Rb16 3.547939 1_555
P0 Rb9 3.626809 1_455
P0 Rb9 3.626809 1_555
P0 Rb17 3.759783 1_455
P0 Rb17 3.759783 1_555
P0 Rb3 3.805920 1_555
P1 Si2 2.184691 1_555
P1 Rb5 3.424868 1_555
P1 Rb12 3.470031 1_555
P1 Rb12 3.470031 1_655
P1 Rb17 3.534941 1_555
P1 Rb8 3.626326 1_555
P1 Rb8 3.626326 1_655
P1 Rb2 3.767196 1_555
P2 Si1 2.185845 1_556
P2 Rb6 3.408497 1_555
P2 Rb15 3.482141 1_455
P2 Rb15 3.482141 1_555
P2 Rb18 3.530028 1_565
P2 Rb11 3.630454 1_455
P2 Rb11 3.630454 1_555
P2 Rb19 3.738939 1_556
P2 Rb19 3.738939 1_456
P2 Rb1 3.820133 1_555
P3 Si0 2.185096 1_554
P3 Rb7 3.421047 1_555
P3 Rb14 3.486487 1_655
P3 Rb14 3.486487 1_555
P3 Rb19 3.524103 1_545
P3 Rb10 3.631687 1_655
P3 Rb10 3.631687 1_555
P3 Rb18 3.735162 1_654
P3 Rb18 3.735162 1_554
P3 Rb0 3.831848 1_555
P4 Si3 2.178977 1_555
P4 Rb14 3.417584 1_555
P4 Rb8 3.530954 1_545
P4 Rb9 3.560359 1_555
P4 Rb9 3.560359 1_455
P4 Rb2 3.650767 1_545
P4 Rb2 3.650767 1_445
P4 Rb7 3.707241 1_455
P4 Rb7 3.707241 1_555
P4 Rb3 3.767712 1_555
P5 Si2 2.185423 1_555
P5 Rb15 3.388890 1_555
P5 Rb8 3.540706 1_655
P5 Rb8 3.540706 1_555
P5 Rb9 3.542693 1_565
P5 Rb3 3.646329 1_665
P5 Rb3 3.646329 1_565
P5 Rb6 3.715877 1_655
P5 Rb6 3.715877 1_555
P5 Rb2 3.756575 1_555
P6 Si1 2.182709 1_555
P6 Rb12 3.405055 1_555
P6 Rb11 3.549541 1_554
P6 Rb11 3.549541 1_454
P6 Rb10 3.563160 1_555
P6 Rb0 3.652306 1_455
P6 Rb0 3.652306 1_555
P6 Rb5 3.701069 1_455
P6 Rb5 3.701069 1_555
P6 Rb1 3.727827 1_554
P7 Si0 2.185928 1_555
P7 Rb13 3.395947 1_555
P7 Rb10 3.557795 1_556
P7 Rb10 3.557795 1_656
P7 Rb11 3.559173 1_555
P7 Rb1 3.638993 1_555
P7 Rb1 3.638993 1_655
P7 Rb4 3.702427 1_555
P7 Rb4 3.702427 1_655
P7 Rb0 3.753419 1_556
P8 Si0 2.196368 1_555
P8 Rb4 3.448506 1_655
P8 Rb4 3.448506 1_555
P8 Rb15 3.496201 1_545
P8 Rb18 3.562110 1_655
P8 Rb18 3.562110 1_555
P9 Si1 2.197060 1_555
P9 Rb5 3.452455 1_555
P9 Rb5 3.452455 1_455
P9 Rb14 3.485147 1_565
P9 Rb19 3.559491 1_455
P9 Rb19 3.559491 1_555
P10 Si2 2.195664 1_555
P10 Rb6 3.448378 1_655
P10 Rb6 3.448378 1_555
P10 Rb13 3.489582 1_555
P10 Rb16 3.560251 1_655
P10 Rb16 3.560251 1_555
