# generated using pymatgen
data_RbMg2CoH8
_symmetry_space_group_name_H-M   'P 1'
_cell_length_a   4.42990592
_cell_length_b   4.42990490
_cell_length_c   8.19911152
_cell_angle_alpha   90.00000000
_cell_angle_beta   90.00000000
_cell_angle_gamma   119.99999295
_symmetry_Int_Tables_number   1
_chemical_formula_structural   RbMg2CoH8
_chemical_formula_sum   'Rb1 Mg2 Co1 H8'
_cell_volume   139.34338699
_cell_formula_units_Z   1
loop_
 _symmetry_equiv_pos_site_id
 _symmetry_equiv_pos_as_xyz
  1  'x, y, z'
loop_
 _atom_site_type_symbol
 _atom_site_label
 _atom_site_symmetry_multiplicity
 _atom_site_fract_x
 _atom_site_fract_y
 _atom_site_fract_z
 _atom_site_occupancy
  Rb  Rb0  1  0.00000000  0.00000000  0.50000000  1
  Mg  Mg0  1  0.66666700  0.33333300  0.87900110  1
  Mg  Mg1  1  0.33333300  0.66666700  0.12099890  1
  Co  Co0  1  0.00000000  0.00000000  0.00000000  1
  H  H0  1  0.31487360  0.15743630  0.11050257  1
  H  H1  1  0.84256370  0.68512640  0.11050257  1
  H  H2  1  0.84256370  0.15743630  0.11050257  1
  H  H3  1  0.68512640  0.84256370  0.88949743  1
  H  H4  1  0.15743630  0.31487360  0.88949743  1
  H  H5  1  0.15743630  0.84256370  0.88949743  1
  H  H6  1  0.66666700  0.33333300  0.65966279  1
  H  H7  1  0.33333300  0.66666700  0.34033721  1
loop_
_geom_bond_atom_site_label_1
_geom_bond_atom_site_label_2
_geom_bond_distance
_geom_bond_site_symmetry_2
Co0 H2 1.509998 1_455
Co0 H5 1.509998 1_544
Co0 H1 1.510001 1_445
Co0 H4 1.510001 1_554
Co0 H0 1.510001 1_555
Co0 H3 1.510001 1_444
H0 Mg1 2.217750 1_545
H0 Mg1 2.217759 1_555
H0 Mg0 2.329011 1_554
H1 Mg1 2.217751 1_655
H1 Mg1 2.217760 1_555
H1 Mg0 2.329011 1_554
H2 Mg1 2.217755 1_655
H2 Mg1 2.217755 1_545
H2 Mg0 2.329011 1_554
H3 Mg0 2.217750 1_565
H3 Mg0 2.217759 1_555
H3 Mg1 2.329011 1_556
H4 Mg0 2.217751 1_455
H4 Mg0 2.217760 1_555
H4 Mg1 2.329011 1_556
H5 Mg0 2.217755 1_455
H5 Mg0 2.217755 1_565
H5 Mg1 2.329011 1_556
H6 Mg0 1.798379 1_555
H6 Rb0 2.873163 1_655
H6 Rb0 2.873166 1_665
H6 Rb0 2.873167 1_555
H7 Mg1 1.798379 1_555
H7 Rb0 2.873163 1_565
H7 Rb0 2.873166 1_555
H7 Rb0 2.873167 1_665
