# generated using pymatgen
data_HfTaV3Os
_symmetry_space_group_name_H-M   'P 1'
_cell_length_a   5.09879551
_cell_length_b   5.09879559
_cell_length_c   5.09927548
_cell_angle_alpha   60.00311003
_cell_angle_beta   60.00310263
_cell_angle_gamma   60.00000250
_symmetry_Int_Tables_number   1
_chemical_formula_structural   HfTaV3Os
_chemical_formula_sum   'Hf1 Ta1 V3 Os1'
_cell_volume   93.74520655
_cell_formula_units_Z   1
loop_
 _symmetry_equiv_pos_site_id
 _symmetry_equiv_pos_as_xyz
  1  'x, y, z'
loop_
 _atom_site_type_symbol
 _atom_site_label
 _atom_site_symmetry_multiplicity
 _atom_site_fract_x
 _atom_site_fract_y
 _atom_site_fract_z
 _atom_site_occupancy
  Hf  Hf0  1  0.25036294  0.25036294  0.24891119  1
  Ta  Ta0  1  0.99988581  0.99988581  0.00034356  1
  V  V0  1  0.62520831  0.12451469  0.62506868  1
  V  V1  1  0.12451469  0.62520831  0.62506868  1
  V  V2  1  0.62520831  0.62520831  0.62506868  1
  Os  Os0  1  0.62481993  0.62481993  0.12554121  1
loop_
_geom_bond_atom_site_label_1
_geom_bond_atom_site_label_2
_geom_bond_distance
_geom_bond_site_symmetry_2
Hf0 V2 2.986566 1_554
Hf0 V0 2.986567 1_554
Hf0 V1 2.986567 1_554
Hf0 Os0 2.988271 1_545
Hf0 Os0 2.988271 1_455
Hf0 Os0 2.988275 1_555
Hf0 V0 2.992069 1_455
Hf0 V2 2.992069 1_455
Hf0 V1 2.992069 1_545
Hf0 V1 2.992070 1_555
Hf0 V2 2.992070 1_545
Hf0 V0 2.992070 1_555
Hf0 Ta0 3.120425 1_445
Hf0 Ta0 3.120429 1_545
Hf0 Ta0 3.120429 1_455
Hf0 Ta0 3.128766 1_446
Ta0 V0 2.987751 1_565
Ta0 V1 2.987752 1_655
Ta0 V2 2.987753 1_555
Ta0 V0 2.990145 1_664
Ta0 V1 2.990145 1_664
Ta0 V2 2.990147 1_654
Ta0 V2 2.990148 1_564
Ta0 V1 2.990150 1_654
Ta0 V0 2.990150 1_564
V0 V2 2.545861 1_545
V0 V1 2.545861 1_645
V0 V2 2.552934 1_555
V0 V1 2.552935 1_555
V1 V2 2.545861 1_455
V1 V2 2.552934 1_555
Os0 V2 2.549210 1_555
Os0 V1 2.549212 1_555
Os0 V0 2.549212 1_555
Os0 V1 2.550066 1_654
Os0 V0 2.550066 1_564
Os0 V2 2.550069 1_554
Os0 Ta0 2.989590 1_555
Os0 Ta0 2.989590 1_545
Os0 Ta0 2.989590 1_455
