# generated using pymatgen
data_Sr3WBr2O5
_symmetry_space_group_name_H-M   'P 1'
_cell_length_a   7.15022701
_cell_length_b   7.15022724
_cell_length_c   11.41866016
_cell_angle_alpha   90.00000000
_cell_angle_beta   90.00000000
_cell_angle_gamma   132.70124636
_symmetry_Int_Tables_number   1
_chemical_formula_structural   Sr3WBr2O5
_chemical_formula_sum   'Sr6 W2 Br4 O10'
_cell_volume   429.02537222
_cell_formula_units_Z   2
loop_
 _symmetry_equiv_pos_site_id
 _symmetry_equiv_pos_as_xyz
  1  'x, y, z'
loop_
 _atom_site_type_symbol
 _atom_site_label
 _atom_site_symmetry_multiplicity
 _atom_site_fract_x
 _atom_site_fract_y
 _atom_site_fract_z
 _atom_site_occupancy
  Sr  Sr0  1  0.89713133  0.10286867  0.75000000  1
  Sr  Sr1  1  0.65980104  0.34019896  0.53516985  1
  Sr  Sr2  1  0.34019896  0.65980104  0.46483015  1
  Sr  Sr3  1  0.65980104  0.34019896  0.96483015  1
  Sr  Sr4  1  0.34019896  0.65980104  0.03516985  1
  Sr  Sr5  1  0.10286867  0.89713133  0.25000000  1
  W  W0  1  0.76058764  0.23941236  0.25000000  1
  W  W1  1  0.23941236  0.76058764  0.75000000  1
  Br  Br0  1  0.49900709  0.50099291  0.25000000  1
  Br  Br1  1  0.50099291  0.49900709  0.75000000  1
  Br  Br2  1  0.00000000  0.00000000  0.50000000  1
  Br  Br3  1  0.00000000  0.00000000  0.00000000  1
  O  O0  1  0.10648335  0.89351665  0.75000000  1
  O  O1  1  0.04923303  0.49548377  0.63521272  1
  O  O2  1  0.49548377  0.04923303  0.36478728  1
  O  O3  1  0.50451623  0.95076697  0.63521272  1
  O  O4  1  0.95076697  0.50451623  0.36478728  1
  O  O5  1  0.89351665  0.10648335  0.25000000  1
  O  O6  1  0.04923303  0.49548377  0.86478728  1
  O  O7  1  0.50451623  0.95076697  0.86478728  1
  O  O8  1  0.95076697  0.50451623  0.13521272  1
  O  O9  1  0.49548377  0.04923303  0.13521272  1
loop_
_geom_bond_atom_site_label_1
_geom_bond_atom_site_label_2
_geom_bond_distance
_geom_bond_site_symmetry_2
Br0 Sr5 3.174555 1_655
Br0 Sr5 3.174555 1_545
Br0 Sr2 3.216398 1_555
Br0 Sr4 3.216398 1_555
Br1 Sr0 3.174555 1_455
Br1 Sr0 3.174555 1_565
Br1 Sr3 3.216398 1_555
Br1 Sr1 3.216398 1_555
Br2 Sr0 3.156728 1_455
Br2 Sr5 3.156728 1_545
Br2 Sr1 3.573509 1_555
Br2 Sr2 3.573509 1_445
Br2 Sr2 3.573510 1_555
Br2 Sr1 3.573510 1_445
Br3 Sr0 3.156728 1_454
Br3 Sr5 3.156728 1_545
Br3 Sr4 3.573509 1_445
Br3 Sr3 3.573509 1_554
Br3 Sr4 3.573510 1_555
Br3 Sr3 3.573510 1_444
O0 W1 1.741299 1_555
O0 Sr0 2.742399 1_465
O1 W1 1.914175 1_555
O1 Sr1 2.469397 1_455
O1 Sr2 2.485656 1_555
O1 Sr0 2.576928 1_455
O2 W0 1.914175 1_555
O2 Sr2 2.469397 1_545
O2 Sr1 2.485657 1_555
O2 Sr5 2.576928 1_545
O3 W1 1.914175 1_555
O3 Sr1 2.469397 1_565
O3 Sr2 2.485657 1_555
O3 Sr0 2.576928 1_565
O4 W0 1.914175 1_555
O4 Sr2 2.469397 1_655
O4 Sr1 2.485656 1_555
O4 Sr5 2.576928 1_655
O5 W0 1.741299 1_555
O5 Sr5 2.742399 1_645
O6 W1 1.914175 1_555
O6 Sr3 2.469397 1_455
O6 Sr4 2.485656 1_556
O6 Sr0 2.576928 1_455
O7 W1 1.914175 1_555
O7 Sr3 2.469397 1_565
O7 Sr4 2.485657 1_556
O7 Sr0 2.576928 1_565
O8 W0 1.914175 1_555
O8 Sr4 2.469397 1_655
O8 Sr3 2.485656 1_554
O8 Sr5 2.576928 1_655
O9 W0 1.914175 1_555
O9 Sr4 2.469397 1_545
O9 Sr3 2.485657 1_554
O9 Sr5 2.576928 1_545
