# generated using pymatgen
data_CaHN
_symmetry_space_group_name_H-M   'P 1'
_cell_length_a   3.77939120
_cell_length_b   3.52808135
_cell_length_c   3.77938993
_cell_angle_alpha   62.17628988
_cell_angle_beta   55.64742588
_cell_angle_gamma   62.17629571
_symmetry_Int_Tables_number   1
_chemical_formula_structural   CaHN
_chemical_formula_sum   'Ca1 H1 N1'
_cell_volume   35.33847562
_cell_formula_units_Z   1
loop_
 _symmetry_equiv_pos_site_id
 _symmetry_equiv_pos_as_xyz
  1  'x, y, z'
loop_
 _atom_site_type_symbol
 _atom_site_label
 _atom_site_symmetry_multiplicity
 _atom_site_fract_x
 _atom_site_fract_y
 _atom_site_fract_z
 _atom_site_occupancy
  Ca  Ca0  1  0.05171591  0.94828409  0.05171591  1
  H  H0  1  0.63993544  0.36006456  0.63993544  1
  N  N0  1  0.45834965  0.54165035  0.45834965  1
loop_
_geom_bond_atom_site_label_1
_geom_bond_atom_site_label_2
_geom_bond_distance
_geom_bond_site_symmetry_2
Ca0 N0 2.308894 1_555
Ca0 H0 2.338118 1_464
Ca0 H0 2.544523 1_465
Ca0 H0 2.544523 1_455
Ca0 H0 2.544523 1_554
Ca0 H0 2.544523 1_564
Ca0 N0 2.550436 1_554
Ca0 N0 2.550437 1_564
Ca0 N0 2.550437 1_465
Ca0 N0 2.550437 1_455
H0 N0 1.031057 1_555
