# generated using pymatgen
data_Ba2LiFeO4
_symmetry_space_group_name_H-M   'P 1'
_cell_length_a   5.82275005
_cell_length_b   6.42284639
_cell_length_c   7.54537199
_cell_angle_alpha   90.00000000
_cell_angle_beta   90.00000000
_cell_angle_gamma   63.04494491
_symmetry_Int_Tables_number   1
_chemical_formula_structural   Ba2LiFeO4
_chemical_formula_sum   'Ba4 Li2 Fe2 O8'
_cell_volume   251.53049051
_cell_formula_units_Z   2
loop_
 _symmetry_equiv_pos_site_id
 _symmetry_equiv_pos_as_xyz
  1  'x, y, z'
loop_
 _atom_site_type_symbol
 _atom_site_label
 _atom_site_symmetry_multiplicity
 _atom_site_fract_x
 _atom_site_fract_y
 _atom_site_fract_z
 _atom_site_occupancy
  Ba  Ba0  1  0.58856931  0.82286138  0.04132471  1
  Ba  Ba1  1  0.06560919  0.86878462  0.40554319  1
  Ba  Ba2  1  0.41143069  0.17713762  0.54132471  1
  Ba  Ba3  1  0.93438981  0.13121638  0.90554319  1
  Li  Li0  1  0.80664755  0.38670191  0.32573718  1
  Li  Li1  1  0.19335245  0.61329709  0.82573618  1
  Fe  Fe0  1  0.31108224  0.37783552  0.11196605  1
  Fe  Fe1  1  0.68891776  0.62216348  0.61196605  1
  O  O0  1  0.14751787  0.70496027  0.08017311  1
  O  O1  1  0.13756603  0.22673815  0.21858663  1
  O  O2  1  0.63569181  0.22674215  0.21858763  1
  O  O3  1  0.63365875  0.73268250  0.37708248  1
  O  O4  1  0.85248113  0.29503973  0.58017311  1
  O  O5  1  0.36430719  0.77325885  0.71858763  1
  O  O6  1  0.86243297  0.77326285  0.71858663  1
  O  O7  1  0.36634125  0.26731650  0.87708248  1
loop_
_geom_bond_atom_site_label_1
_geom_bond_atom_site_label_2
_geom_bond_distance
_geom_bond_site_symmetry_2
Ba0 O3 2.585488 1_555
Ba0 O7 2.830280 1_564
Ba0 O5 2.848489 1_554
Ba0 O6 2.848494 1_554
Ba0 O0 3.002923 1_655
Ba0 O0 3.002956 1_555
Ba0 O1 3.039486 1_565
Ba0 O2 3.039519 1_565
Ba1 O0 2.628095 1_555
Ba1 O4 2.773353 1_465
Ba1 O6 2.830760 1_455
Ba1 O5 2.830760 1_555
Ba1 O1 2.885233 1_565
Ba1 O2 2.885244 1_465
Ba1 O3 3.021470 1_555
Ba1 O3 3.021499 1_455
Ba2 O7 2.585488 1_555
Ba2 O3 2.830280 1_545
Ba2 O2 2.848490 1_555
Ba2 O1 2.848495 1_555
Ba2 O4 3.002927 1_455
Ba2 O4 3.002954 1_555
Ba2 O6 3.039477 1_545
Ba2 O5 3.039510 1_545
Ba3 O4 2.628093 1_555
Ba3 O0 2.773358 1_646
Ba3 O1 2.830760 1_656
Ba3 O2 2.830760 1_556
Ba3 O6 2.885233 1_545
Ba3 O5 2.885244 1_645
Ba3 O7 3.021467 1_555
Ba3 O7 3.021496 1_655
Li0 O2 1.904532 1_555
Li0 O1 1.904539 1_655
Li0 O4 1.990244 1_555
Li0 O3 2.018300 1_555
Li1 O5 1.904534 1_555
Li1 O6 1.904541 1_455
Li1 O0 1.990253 1_556
Li1 O7 2.018301 1_555
Fe0 O2 1.870463 1_555
Fe0 O1 1.870490 1_555
Fe0 O7 1.881844 1_554
Fe0 O0 1.888118 1_555
Fe1 O5 1.870468 1_555
Fe1 O6 1.870496 1_555
Fe1 O3 1.881844 1_555
Fe1 O4 1.888112 1_555
