# generated using pymatgen
data_Y4Ga2Ge4Ir7
_symmetry_space_group_name_H-M   'P 1'
_cell_length_a   7.24537647
_cell_length_b   7.24960896
_cell_length_c   7.24960748
_cell_angle_alpha   109.74256296
_cell_angle_beta   109.34746343
_cell_angle_gamma   109.34746004
_symmetry_Int_Tables_number   1
_chemical_formula_structural   Y4Ga2Ge4Ir7
_chemical_formula_sum   'Y4 Ga2 Ge4 Ir7'
_cell_volume   293.04560491
_cell_formula_units_Z   1
loop_
 _symmetry_equiv_pos_site_id
 _symmetry_equiv_pos_as_xyz
  1  'x, y, z'
loop_
 _atom_site_type_symbol
 _atom_site_label
 _atom_site_symmetry_multiplicity
 _atom_site_fract_x
 _atom_site_fract_y
 _atom_site_fract_z
 _atom_site_occupancy
  Y  Y0  1  0.00000000  0.99879919  0.50909576  1
  Y  Y1  1  0.00000000  0.49090424  0.00120081  1
  Y  Y2  1  0.50000000  0.99890754  0.00109246  1
  Y  Y3  1  0.50000000  0.49890754  0.50109246  1
  Ga  Ga0  1  0.69078753  0.68809854  0.00268899  1
  Ga  Ga1  1  0.30921247  0.99731101  0.31190146  1
  Ge  Ge0  1  1.00000000  0.31500776  0.32023395  1
  Ge  Ge1  1  0.32810533  0.32578064  0.00232469  1
  Ge  Ge2  1  0.67189467  0.99767531  0.67421936  1
  Ge  Ge3  1  0.00000000  0.67976605  0.68499224  1
  Ir  Ir0  1  0.74793206  0.24894226  0.49898880  1
  Ir  Ir1  1  0.75290636  0.50064032  0.25226504  1
  Ir  Ir2  1  0.50000000  0.25080148  0.74919852  1
  Ir  Ir3  1  0.25206794  0.50101120  0.75105774  1
  Ir  Ir4  1  0.24709364  0.74773496  0.49935968  1
  Ir  Ir5  1  0.50000000  0.75080148  0.24919852  1
  Ir  Ir6  1  0.00000000  0.00890948  0.99109052  1
loop_
_geom_bond_atom_site_label_1
_geom_bond_atom_site_label_2
_geom_bond_distance
_geom_bond_site_symmetry_2
Ga0 Ir5 2.610660 1_555
Ga0 Ir2 2.610660 1_554
Ga0 Ir1 2.617252 1_555
Ga0 Ir3 2.626999 1_554
Ga0 Ir6 2.690706 1_664
Ga0 Y3 3.009797 1_554
Ga0 Y2 3.009797 1_555
Ga0 Y0 3.031628 1_655
Ga0 Y1 3.031628 1_655
Ga1 Ir2 2.610660 1_565
Ga1 Ir5 2.610660 1_555
Ga1 Ir4 2.617252 1_555
Ga1 Ir0 2.626999 1_565
Ga1 Ir6 2.690706 1_564
Ga1 Y2 3.009797 1_555
Ga1 Y3 3.009797 1_565
Ga1 Y0 3.031628 1_555
Ga1 Y1 3.031628 1_555
Ge0 Ir0 2.579176 1_555
Ge0 Ir3 2.579181 1_655
Ge0 Ir1 2.592079 1_555
Ge0 Ir4 2.592085 1_655
Ge0 Ir6 2.653454 1_654
Ge0 Y1 2.994655 1_655
Ge0 Y3 3.015303 1_655
Ge0 Y2 3.015303 1_545
Ge0 Y0 3.041404 1_645
Ge1 Ir2 2.550111 1_554
Ge1 Ir5 2.550111 1_555
Ge1 Ir1 2.555592 1_555
Ge1 Ir3 2.568583 1_554
Ge1 Ir6 2.657430 1_554
Ge1 Y0 2.993944 1_544
Ge1 Y1 2.993945 1_555
Ge1 Y3 3.019153 1_555
Ge1 Y2 3.019154 1_545
Ge2 Ir5 2.550111 1_555
Ge2 Ir2 2.550111 1_565
Ge2 Ir4 2.555593 1_555
Ge2 Ir0 2.568583 1_565
Ge2 Ir6 2.657430 1_665
Ge2 Y0 2.993945 1_655
Ge2 Y1 2.993945 1_666
Ge2 Y2 3.019153 1_556
Ge2 Y3 3.019154 1_555
Ge3 Ir3 2.579176 1_555
Ge3 Ir0 2.579181 1_455
Ge3 Ir4 2.592079 1_555
Ge3 Ir1 2.592084 1_455
Ge3 Ir6 2.653454 1_565
Ge3 Y0 2.994655 1_555
Ge3 Y3 3.015303 1_455
Ge3 Y2 3.015303 1_556
Ge3 Y1 3.041404 1_556
Ir0 Y2 2.944045 1_545
Ir0 Y3 2.944051 1_555
Ir0 Y0 2.970684 1_645
Ir0 Y1 2.970690 1_656
Ir1 Y1 2.946005 1_655
Ir1 Y0 2.946012 1_655
Ir1 Y2 2.966837 1_545
Ir1 Y3 2.966842 1_555
Ir2 Y3 2.942128 1_555
Ir2 Y1 2.963023 1_656
Ir2 Y0 2.963023 1_545
Ir2 Y2 2.987046 1_546
Ir3 Y2 2.944046 1_556
Ir3 Y3 2.944051 1_555
Ir3 Y1 2.970684 1_556
Ir3 Y0 2.970690 1_545
Ir4 Y0 2.946005 1_555
Ir4 Y1 2.946011 1_555
Ir4 Y2 2.966836 1_556
Ir4 Y3 2.966842 1_555
Ir5 Y2 2.942128 1_555
Ir5 Y0 2.963023 1_655
Ir5 Y1 2.963023 1_555
Ir5 Y3 2.987046 1_555
