# generated using pymatgen
data_K2Ni(PdSe2)3
_symmetry_space_group_name_H-M   'P 1'
_cell_length_a   7.85930629
_cell_length_b   7.85930591
_cell_length_c   7.85930613
_cell_angle_alpha   54.45935878
_cell_angle_beta   54.45936397
_cell_angle_gamma   54.45936802
_symmetry_Int_Tables_number   1
_chemical_formula_structural   K2Ni(PdSe2)3
_chemical_formula_sum   'K2 Ni1 Pd3 Se6'
_cell_volume   298.92361371
_cell_formula_units_Z   1
loop_
 _symmetry_equiv_pos_site_id
 _symmetry_equiv_pos_as_xyz
  1  'x, y, z'
loop_
 _atom_site_type_symbol
 _atom_site_label
 _atom_site_symmetry_multiplicity
 _atom_site_fract_x
 _atom_site_fract_y
 _atom_site_fract_z
 _atom_site_occupancy
  K  K0  1  0.19964992  0.19964992  0.19964992  1
  K  K1  1  0.80035008  0.80035008  0.80035008  1
  Ni  Ni0  1  0.00000000  0.00000000  0.00000000  1
  Pd  Pd0  1  0.00000000  0.50000000  0.50000000  1
  Pd  Pd1  1  0.50000000  0.00000000  0.50000000  1
  Pd  Pd2  1  0.50000000  0.50000000  0.00000000  1
  Se  Se0  1  0.77269294  0.77269294  0.26331485  1
  Se  Se1  1  0.73668515  0.22730706  0.22730706  1
  Se  Se2  1  0.26331485  0.77269294  0.77269294  1
  Se  Se3  1  0.77269294  0.26331485  0.77269294  1
  Se  Se4  1  0.22730706  0.22730706  0.73668515  1
  Se  Se5  1  0.22730706  0.73668515  0.22730706  1
loop_
_geom_bond_atom_site_label_1
_geom_bond_atom_site_label_2
_geom_bond_distance
_geom_bond_site_symmetry_2
K0 Pd2 3.387075 1_555
K0 Pd1 3.387075 1_555
K0 Pd0 3.387075 1_555
K0 Se5 3.398493 1_545
K0 Se4 3.398493 1_554
K0 Se1 3.398493 1_455
K1 Pd2 3.387075 1_556
K1 Pd1 3.387075 1_565
K1 Pd0 3.387075 1_655
K1 Se3 3.398493 1_565
K1 Se0 3.398493 1_556
K1 Se2 3.398493 1_655
Ni0 Se4 2.404141 1_554
Ni0 Se0 2.404141 1_445
Ni0 Se5 2.404142 1_545
Ni0 Se3 2.404142 1_454
Ni0 Se1 2.404142 1_455
Ni0 Se2 2.404142 1_544
Pd0 Se5 2.454068 1_555
Pd0 Se3 2.454068 1_455
Pd0 Se4 2.454068 1_555
Pd0 Se0 2.454068 1_455
Pd1 Se1 2.454068 1_555
Pd1 Se2 2.454068 1_545
Pd1 Se4 2.454068 1_555
Pd1 Se0 2.454068 1_545
Pd2 Se1 2.454068 1_555
Pd2 Se2 2.454068 1_554
Pd2 Se5 2.454068 1_555
Pd2 Se3 2.454068 1_554
