# generated using pymatgen
data_Y4Sb6RuRh6
_symmetry_space_group_name_H-M   'P 1'
_cell_length_a   7.55793393
_cell_length_b   7.55793551
_cell_length_c   7.55793519
_cell_angle_alpha   109.47121714
_cell_angle_beta   109.47122136
_cell_angle_gamma   109.47122313
_symmetry_Int_Tables_number   1
_chemical_formula_structural   Y4Sb6RuRh6
_chemical_formula_sum   'Y4 Sb6 Ru1 Rh6'
_cell_volume   332.34377412
_cell_formula_units_Z   1
loop_
 _symmetry_equiv_pos_site_id
 _symmetry_equiv_pos_as_xyz
  1  'x, y, z'
loop_
 _atom_site_type_symbol
 _atom_site_label
 _atom_site_symmetry_multiplicity
 _atom_site_fract_x
 _atom_site_fract_y
 _atom_site_fract_z
 _atom_site_occupancy
  Y  Y0  1  0.50000000  0.00000000  0.00000000  1
  Y  Y1  1  0.00000000  0.50000000  0.00000000  1
  Y  Y2  1  0.00000000  0.00000000  0.50000000  1
  Y  Y3  1  0.50000000  0.50000000  0.50000000  1
  Sb  Sb0  1  1.00000000  0.31642184  0.31642184  1
  Sb  Sb1  1  0.68357816  1.00000000  0.68357816  1
  Sb  Sb2  1  0.68357816  0.68357816  1.00000000  1
  Sb  Sb3  1  0.00000000  0.68357816  0.68357816  1
  Sb  Sb4  1  0.31642184  0.00000000  0.31642184  1
  Sb  Sb5  1  0.31642184  0.31642184  0.00000000  1
  Ru  Ru0  1  0.00000000  0.00000000  0.00000000  1
  Rh  Rh0  1  0.50000000  0.75000000  0.25000000  1
  Rh  Rh1  1  0.75000000  0.50000000  0.25000000  1
  Rh  Rh2  1  0.25000000  0.75000000  0.50000000  1
  Rh  Rh3  1  0.25000000  0.50000000  0.75000000  1
  Rh  Rh4  1  0.50000000  0.25000000  0.75000000  1
  Rh  Rh5  1  0.75000000  0.25000000  0.50000000  1
loop_
_geom_bond_atom_site_label_1
_geom_bond_atom_site_label_2
_geom_bond_distance
_geom_bond_site_symmetry_2
Sb0 Y3 3.139493 1_655
Sb0 Y0 3.139493 1_555
Sb0 Y1 3.139493 1_655
Sb0 Y2 3.139493 1_655
Sb1 Y2 3.139493 1_665
Sb1 Y0 3.139493 1_566
Sb1 Y1 3.139493 1_666
Sb1 Y3 3.139494 1_555
Sb2 Y1 3.139493 1_656
Sb2 Y0 3.139493 1_566
Sb2 Y2 3.139493 1_666
Sb2 Y3 3.139493 1_555
Sb3 Y3 3.139493 1_455
Sb3 Y0 3.139493 1_566
Sb3 Y1 3.139493 1_556
Sb3 Y2 3.139493 1_565
Sb4 Y2 3.139493 1_555
Sb4 Y0 3.139493 1_555
Sb4 Y1 3.139493 1_545
Sb4 Y3 3.139494 1_555
Sb5 Y1 3.139493 1_555
Sb5 Y0 3.139493 1_555
Sb5 Y2 3.139493 1_554
Sb5 Y3 3.139493 1_555
Ru0 Sb5 2.761461 1_555
Ru0 Sb2 2.761461 1_444
Ru0 Sb4 2.761461 1_555
Ru0 Sb1 2.761461 1_444
Ru0 Sb0 2.761462 1_455
Ru0 Sb3 2.761462 1_544
Rh0 Sb2 2.706837 1_554
Rh0 Sb4 2.706838 1_565
Rh0 Sb1 2.706838 1_555
Rh0 Sb5 2.706838 1_555
Rh0 Y2 3.085514 1_665
Rh0 Y1 3.085514 1_555
Rh0 Y3 3.085514 1_555
Rh0 Y0 3.085514 1_565
Rh1 Sb5 2.706837 1_555
Rh1 Sb0 2.706837 1_555
Rh1 Sb3 2.706838 1_655
Rh1 Sb2 2.706838 1_554
Rh1 Y1 3.085514 1_655
Rh1 Y3 3.085514 1_555
Rh1 Y0 3.085514 1_555
Rh1 Y2 3.085514 1_665
Rh2 Sb1 2.706837 1_555
Rh2 Sb3 2.706837 1_555
Rh2 Sb4 2.706838 1_565
Rh2 Sb0 2.706838 1_455
Rh2 Y3 3.085514 1_555
Rh2 Y2 3.085514 1_565
Rh2 Y0 3.085514 1_566
Rh2 Y1 3.085514 1_555
Rh3 Sb2 2.706837 1_555
Rh3 Sb3 2.706837 1_555
Rh3 Sb0 2.706838 1_455
Rh3 Sb5 2.706838 1_556
Rh3 Y3 3.085514 1_555
Rh3 Y1 3.085514 1_556
Rh3 Y0 3.085514 1_566
Rh3 Y2 3.085514 1_555
Rh4 Sb5 2.706837 1_556
Rh4 Sb1 2.706838 1_545
Rh4 Sb4 2.706838 1_555
Rh4 Sb2 2.706838 1_555
Rh4 Y1 3.085514 1_656
Rh4 Y2 3.085514 1_555
Rh4 Y0 3.085514 1_556
Rh4 Y3 3.085514 1_555
Rh5 Sb4 2.706837 1_555
Rh5 Sb0 2.706837 1_555
Rh5 Sb1 2.706838 1_545
Rh5 Sb3 2.706838 1_655
Rh5 Y2 3.085514 1_655
Rh5 Y3 3.085514 1_555
Rh5 Y0 3.085514 1_555
Rh5 Y1 3.085514 1_656
