# generated using pymatgen
data_Th5Sn4
_symmetry_space_group_name_H-M   'P 1'
_cell_length_a   9.72693381
_cell_length_b   9.72693214
_cell_length_c   6.57146812
_cell_angle_alpha   90.00008967
_cell_angle_beta   89.99978637
_cell_angle_gamma   120.00023865
_symmetry_Int_Tables_number   1
_chemical_formula_structural   Th5Sn4
_chemical_formula_sum   'Th10 Sn8'
_cell_volume   538.44808838
_cell_formula_units_Z   2
loop_
 _symmetry_equiv_pos_site_id
 _symmetry_equiv_pos_as_xyz
  1  'x, y, z'
loop_
 _atom_site_type_symbol
 _atom_site_label
 _atom_site_symmetry_multiplicity
 _atom_site_fract_x
 _atom_site_fract_y
 _atom_site_fract_z
 _atom_site_occupancy
  Th  Th0  1  0.33333454  0.66666644  -0.00000049  1
  Th  Th1  1  0.66666622  0.33333212  0.50000046  1
  Th  Th2  1  0.66666522  0.33333312  -0.00000046  1
  Th  Th3  1  0.33333354  0.66666744  0.49999949  1
  Th  Th4  1  0.27868672  0.00004130  0.24999900  1
  Th  Th5  1  0.27868705  0.27864480  0.75000000  1
  Th  Th6  1  -0.00004211  0.72131252  0.75000100  1
  Th  Th7  1  -0.00004206  0.27864447  0.24999900  1
  Th  Th8  1  0.72135539  0.72131248  0.25000000  1
  Th  Th9  1  0.72135519  0.00004244  0.75000100  1
  Sn  Sn0  1  0.00000003  0.00000039  -0.00000037  1
  Sn  Sn1  1  0.00000003  0.00000039  0.50000037  1
  Sn  Sn2  1  0.61864374  0.00006514  0.25000100  1
  Sn  Sn3  1  0.61864366  0.61857892  0.75000000  1
  Sn  Sn4  1  -0.00006484  0.38135606  0.74999900  1
  Sn  Sn5  1  -0.00006317  0.61858163  0.25000100  1
  Sn  Sn6  1  0.38142106  0.38135626  0.25000000  1
  Sn  Sn7  1  0.38141880  0.00006308  0.74999900  1
loop_
_geom_bond_atom_site_label_1
_geom_bond_atom_site_label_2
_geom_bond_distance
_geom_bond_site_symmetry_2
Th0 Th3 3.285734 1_555
Th0 Th3 3.285734 1_554
Th1 Th2 3.285728 1_556
Th1 Th2 3.285740 1_555
Sn0 Th5 3.169556 1_554
Sn0 Th7 3.169559 1_555
Sn0 Th8 3.169563 1_445
Sn0 Th6 3.169570 1_544
Sn0 Th9 3.169570 1_454
Sn0 Th4 3.169576 1_555
Sn1 Th5 3.169562 1_555
Sn1 Th9 3.169567 1_455
Sn1 Th8 3.169569 1_445
Sn1 Th7 3.169570 1_555
Sn1 Th4 3.169572 1_555
Sn1 Th6 3.169581 1_545
Sn2 Th4 3.306623 1_555
Sn2 Th7 3.323993 1_655
Sn2 Th8 3.325474 1_545
Sn2 Th9 3.434295 1_554
Sn2 Th9 3.434302 1_555
Sn2 Th1 3.451282 1_555
Sn2 Th2 3.451303 1_555
Sn2 Th3 3.452167 1_545
Sn2 Th0 3.452184 1_545
Sn3 Th5 3.306614 1_555
Sn3 Th6 3.324003 1_655
Sn3 Th9 3.325460 1_565
Sn3 Th8 3.434295 1_555
Sn3 Th8 3.434299 1_556
Sn3 Th2 3.451296 1_556
Sn3 Th1 3.451304 1_555
Sn3 Th0 3.452170 1_556
Sn3 Th3 3.452197 1_555
Sn4 Th6 3.306623 1_555
Sn4 Th9 3.323990 1_455
Sn4 Th5 3.325465 1_555
Sn4 Th7 3.434297 1_555
Sn4 Th7 3.434300 1_556
Sn4 Th1 3.451298 1_455
Sn4 Th2 3.451306 1_456
Sn4 Th3 3.452177 1_555
Sn4 Th0 3.452189 1_556
Sn5 Th7 3.306648 1_555
Sn5 Th8 3.323999 1_455
Sn5 Th4 3.325421 1_565
Sn5 Th6 3.434290 1_555
Sn5 Th6 3.434293 1_554
Sn5 Th1 3.451308 1_455
Sn5 Th2 3.451323 1_455
Sn5 Th3 3.452180 1_555
Sn5 Th0 3.452191 1_555
Sn6 Th8 3.306613 1_555
Sn6 Th4 3.324008 1_555
Sn6 Th7 3.325456 1_555
Sn6 Th5 3.434295 1_555
Sn6 Th5 3.434299 1_554
Sn6 Th2 3.451285 1_555
Sn6 Th1 3.451310 1_555
Sn6 Th0 3.452184 1_555
Sn6 Th3 3.452189 1_555
Sn7 Th9 3.306639 1_555
Sn7 Th5 3.324007 1_555
Sn7 Th6 3.325432 1_545
Sn7 Th4 3.434290 1_556
Sn7 Th4 3.434297 1_555
Sn7 Th1 3.451291 1_555
Sn7 Th2 3.451304 1_556
Sn7 Th3 3.452169 1_545
Sn7 Th0 3.452187 1_546
