# generated using pymatgen
data_CrCdSn(PO4)3
_symmetry_space_group_name_H-M   'P 1'
_cell_length_a   8.58752712
_cell_length_b   8.58752506
_cell_length_c   8.75596064
_cell_angle_alpha   60.63431949
_cell_angle_beta   119.36567376
_cell_angle_gamma   119.99999927
_symmetry_Int_Tables_number   1
_chemical_formula_structural   CrCdSn(PO4)3
_chemical_formula_sum   'Cr2 Cd2 Sn2 P6 O24'
_cell_volume   460.91728879
_cell_formula_units_Z   2
loop_
 _symmetry_equiv_pos_site_id
 _symmetry_equiv_pos_as_xyz
  1  'x, y, z'
loop_
 _atom_site_type_symbol
 _atom_site_label
 _atom_site_symmetry_multiplicity
 _atom_site_fract_x
 _atom_site_fract_y
 _atom_site_fract_z
 _atom_site_occupancy
  Cr  Cr0  1  0.14435770  0.85564230  0.43307310  1
  Cr  Cr1  1  0.85564230  0.14435770  0.56692690  1
  Cd  Cd0  1  0.00000000  0.00000000  0.00000000  1
  Cd  Cd1  1  0.50000000  0.50000000  0.49999900  1
  Sn  Sn0  1  0.35382760  0.64617240  0.06148180  1
  Sn  Sn1  1  0.64617340  0.35382660  0.93851820  1
  P  P0  1  0.04197260  0.24398223  0.25606315  1
  P  P1  1  0.75601677  0.54192722  0.25606315  1
  P  P2  1  0.45807178  0.95802740  0.25606315  1
  P  P3  1  0.54192822  0.04197360  0.74393885  1
  P  P4  1  0.24398123  0.45807078  0.74393885  1
  P  P5  1  0.95802640  0.75601577  0.74393885  1
  O  O0  1  0.48355674  0.11103268  0.07254369  1
  O  O1  1  0.88896732  0.29997937  0.07254369  1
  O  O2  1  0.70002063  0.51644326  0.07254369  1
  O  O3  1  0.23349198  0.41367140  0.25649652  1
  O  O4  1  0.58633060  0.56332406  0.25649652  1
  O  O5  1  0.43667594  0.76650902  0.25649652  1
  O  O6  1  0.06178608  0.07911196  0.25087652  1
  O  O7  1  0.92088804  0.73179760  0.25087652  1
  O  O8  1  0.26820340  0.93821292  0.25087652  1
  O  O9  1  0.00519867  0.20191844  0.42512137  1
  O  O10  1  0.79808356  0.37815887  0.42512137  1
  O  O11  1  0.62184113  0.99480133  0.42512137  1
  O  O12  1  0.37815887  0.00519767  0.57487963  1
  O  O13  1  0.20191944  0.62184113  0.57487963  1
  O  O14  1  0.99480133  0.79808156  0.57487963  1
  O  O15  1  0.73179760  0.06178608  0.74912348  1
  O  O16  1  0.07911196  0.26820240  0.74912348  1
  O  O17  1  0.93821392  0.92088704  0.74912348  1
  O  O18  1  0.56332506  0.23349198  0.74350348  1
  O  O19  1  0.41366840  0.43667394  0.74350348  1
  O  O20  1  0.76651002  0.58633260  0.74350348  1
  O  O21  1  0.29997837  0.48355674  0.92745531  1
  O  O22  1  0.11103168  0.70002063  0.92745531  1
  O  O23  1  0.51644426  0.88896932  0.92745531  1
loop_
_geom_bond_atom_site_label_1
_geom_bond_atom_site_label_2
_geom_bond_distance
_geom_bond_site_symmetry_2
Cr0 O12 1.939767 1_565
Cr0 O13 1.939770 1_555
Cr0 O14 1.939774 1_455
Cr0 O6 1.994819 1_565
Cr0 O7 1.994820 1_455
Cr0 O8 1.994829 1_555
Cr1 O10 1.939759 1_555
Cr1 O9 1.939767 1_655
Cr1 O11 1.939767 1_545
Cr1 O15 1.994820 1_555
Cr1 O16 1.994820 1_655
Cr1 O17 1.994826 1_545
Cd0 O7 2.351274 1_445
Cd0 O16 2.351274 1_554
Cd0 O6 2.351274 1_555
Cd0 O15 2.351274 1_454
Cd0 O17 2.351280 1_444
Cd0 O8 2.351282 1_545
Cd1 O3 2.324032 1_555
Cd1 O5 2.324040 1_555
Cd1 O4 2.324040 1_555
Cd1 O18 2.324042 1_555
Cd1 O19 2.324056 1_555
Cd1 O20 2.324059 1_555
O0 P2 1.530696 1_545
O0 Sn1 1.992589 1_554
O1 P0 1.530693 1_655
O1 Sn1 1.992586 1_554
O2 P1 1.530699 1_555
O2 Sn1 1.992593 1_554
O3 P0 1.559199 1_555
O3 Sn0 2.072114 1_555
O4 P1 1.559174 1_555
O4 Sn0 2.072123 1_555
O5 P2 1.559194 1_555
O5 Sn0 2.072123 1_555
O6 P0 1.532032 1_555
O7 P1 1.532036 1_555
O8 P2 1.532012 1_555
O9 P0 1.497123 1_555
O10 P1 1.497129 1_555
O11 P2 1.497126 1_555
O12 P3 1.497136 1_555
O13 P4 1.497132 1_555
O14 P5 1.497131 1_555
O15 P3 1.532035 1_555
O16 P4 1.532019 1_555
O17 P5 1.532026 1_555
O18 P3 1.559182 1_555
O18 Sn1 2.072111 1_555
O19 P4 1.559191 1_555
O19 Sn1 2.072132 1_555
O20 P5 1.559162 1_555
O20 Sn1 2.072131 1_555
O21 P4 1.530680 1_555
O21 Sn0 1.992586 1_556
O22 P5 1.530676 1_455
O22 Sn0 1.992604 1_556
O23 P3 1.530674 1_565
O23 Sn0 1.992604 1_556
