# generated using pymatgen
data_Ba(GaI4)2
_symmetry_space_group_name_H-M   'P 1'
_cell_length_a   8.23018682
_cell_length_b   8.83858171
_cell_length_c   14.66004733
_cell_angle_alpha   84.78041863
_cell_angle_beta   90.00000000
_cell_angle_gamma   90.00000000
_symmetry_Int_Tables_number   1
_chemical_formula_structural   Ba(GaI4)2
_chemical_formula_sum   'Ba2 Ga4 I16'
_cell_volume   1061.99639464
_cell_formula_units_Z   2
loop_
 _symmetry_equiv_pos_site_id
 _symmetry_equiv_pos_as_xyz
  1  'x, y, z'
loop_
 _atom_site_type_symbol
 _atom_site_label
 _atom_site_symmetry_multiplicity
 _atom_site_fract_x
 _atom_site_fract_y
 _atom_site_fract_z
 _atom_site_occupancy
  Ba  Ba0  1  0.15269833  0.50000000  0.25000000  1
  Ba  Ba1  1  0.84730167  0.50000000  0.75000000  1
  Ga  Ga0  1  0.25628295  0.68130885  0.57684693  1
  Ga  Ga1  1  0.74371705  0.68130885  0.07684693  1
  Ga  Ga2  1  0.74371705  0.31869115  0.42315307  1
  Ga  Ga3  1  0.25628295  0.31869115  0.92315307  1
  I  I0  1  0.52186378  0.75028712  0.65538464  1
  I  I1  1  0.30598862  0.75663534  0.40575748  1
  I  I2  1  0.81581075  0.40035871  0.10807185  1
  I  I3  1  0.18418925  0.59964129  0.89192815  1
  I  I4  1  0.47813622  0.24971288  0.34461536  1
  I  I5  1  0.30598862  0.24336466  0.09424252  1
  I  I6  1  0.69401138  0.24336466  0.59424252  1
  I  I7  1  0.47813622  0.75028712  0.15538464  1
  I  I8  1  0.18418925  0.40035871  0.60807185  1
  I  I9  1  0.52186378  0.24971288  0.84461536  1
  I  I10  1  0.81581075  0.59964129  0.39192815  1
  I  I11  1  0.97749171  0.83957987  0.13613353  1
  I  I12  1  0.69401138  0.75663534  0.90575748  1
  I  I13  1  0.02250829  0.16042013  0.86386647  1
  I  I14  1  0.97749171  0.16042013  0.36386647  1
  I  I15  1  0.02250829  0.83957987  0.63613353  1
loop_
_geom_bond_atom_site_label_1
_geom_bond_atom_site_label_2
_geom_bond_distance
_geom_bond_site_symmetry_2
Ba0 I1 3.590704 1_555
Ba0 I5 3.590704 1_555
Ba0 I11 3.600372 1_455
Ba0 I14 3.600372 1_455
Ba0 I10 3.622953 1_455
Ba0 I2 3.622953 1_455
Ba0 I7 3.665149 1_555
Ba0 I4 3.665149 1_555
Ba1 I12 3.590704 1_555
Ba1 I6 3.590704 1_555
Ba1 I15 3.600372 1_655
Ba1 I13 3.600372 1_655
Ba1 I3 3.622953 1_655
Ba1 I8 3.622953 1_655
Ba1 I0 3.665149 1_555
Ba1 I9 3.665149 1_555
Ga0 I8 2.553638 1_555
Ga0 I1 2.568608 1_555
Ga0 I0 2.569571 1_555
Ga0 I15 2.575915 1_555
Ga1 I2 2.553638 1_555
Ga1 I12 2.568608 1_554
Ga1 I7 2.569571 1_555
Ga1 I11 2.575915 1_555
Ga2 I10 2.553638 1_555
Ga2 I6 2.568608 1_555
Ga2 I4 2.569571 1_555
Ga2 I14 2.575915 1_555
Ga3 I3 2.553638 1_555
Ga3 I5 2.568608 1_556
Ga3 I9 2.569571 1_555
Ga3 I13 2.575915 1_555
