# generated using pymatgen
data_AlCd2AgSe4
_symmetry_space_group_name_H-M   'P 1'
_cell_length_a   6.93633202
_cell_length_b   7.24841012
_cell_length_c   8.51450934
_cell_angle_alpha   90.00000000
_cell_angle_beta   90.00000000
_cell_angle_gamma   90.00000000
_symmetry_Int_Tables_number   1
_chemical_formula_structural   AlCd2AgSe4
_chemical_formula_sum   'Al2 Cd4 Ag2 Se8'
_cell_volume   428.08721435
_cell_formula_units_Z   2
loop_
 _symmetry_equiv_pos_site_id
 _symmetry_equiv_pos_as_xyz
  1  'x, y, z'
loop_
 _atom_site_type_symbol
 _atom_site_label
 _atom_site_symmetry_multiplicity
 _atom_site_fract_x
 _atom_site_fract_y
 _atom_site_fract_z
 _atom_site_occupancy
  Al  Al0  1  0.49109177  0.67689172  0.50000000  1
  Al  Al1  1  0.99109177  0.32310828  0.00000000  1
  Cd  Cd0  1  0.48690232  0.17441067  0.25291161  1
  Cd  Cd1  1  0.98690232  0.82558933  0.75291161  1
  Cd  Cd2  1  0.48690232  0.17441067  0.74708839  1
  Cd  Cd3  1  0.98690232  0.82558933  0.24708839  1
  Ag  Ag0  1  0.99014868  0.34239792  0.50000000  1
  Ag  Ag1  1  0.49014868  0.65760208  0.00000000  1
  Se  Se0  1  0.10750218  0.63438832  0.00000000  1
  Se  Se1  1  0.60750218  0.36561168  0.50000000  1
  Se  Se2  1  0.14620885  0.67790185  0.50000000  1
  Se  Se3  1  0.64620885  0.32209815  0.00000000  1
  Se  Se4  1  0.60350244  0.82440515  0.26559444  1
  Se  Se5  1  0.10350244  0.17559485  0.76559444  1
  Se  Se6  1  0.10350244  0.17559485  0.23440556  1
  Se  Se7  1  0.60350244  0.82440515  0.73440556  1
loop_
_geom_bond_atom_site_label_1
_geom_bond_atom_site_label_2
_geom_bond_distance
_geom_bond_site_symmetry_2
Al0 Se2 2.392234 1_555
Al0 Se7 2.394711 1_555
Al0 Se4 2.394711 1_555
Al0 Se1 2.396418 1_555
Al1 Se3 2.392234 1_555
Al1 Se6 2.394711 1_655
Al1 Se5 2.394711 1_654
Al1 Se0 2.396418 1_655
Cd0 Se3 2.646547 1_555
Cd0 Se1 2.654548 1_555
Cd0 Se6 2.664067 1_555
Cd0 Se4 2.664970 1_545
Cd1 Se2 2.646547 1_655
Cd1 Se0 2.654548 1_656
Cd1 Se7 2.664067 1_555
Cd1 Se5 2.664970 1_665
Cd2 Se3 2.646547 1_556
Cd2 Se1 2.654548 1_555
Cd2 Se5 2.664067 1_555
Cd2 Se7 2.664970 1_545
Cd3 Se2 2.646547 1_655
Cd3 Se0 2.654548 1_655
Cd3 Se4 2.664067 1_555
Cd3 Se6 2.664970 1_665
Ag0 Se1 2.659491 1_555
Ag0 Se2 2.661910 1_655
Ag0 Se5 2.682160 1_655
Ag0 Se6 2.682160 1_655
Ag1 Se0 2.659491 1_555
Ag1 Se3 2.661910 1_555
Ag1 Se4 2.682160 1_555
Ag1 Se7 2.682160 1_554
