# generated using pymatgen
data_Zr6Zn17Ni6Ge
_symmetry_space_group_name_H-M   'P 1'
_cell_length_a   8.53561740
_cell_length_b   8.53561725
_cell_length_c   8.53561713
_cell_angle_alpha   60.00000049
_cell_angle_beta   60.00000105
_cell_angle_gamma   60.00000014
_symmetry_Int_Tables_number   1
_chemical_formula_structural   Zr6Zn17Ni6Ge
_chemical_formula_sum   'Zr6 Zn17 Ni6 Ge1'
_cell_volume   439.73375721
_cell_formula_units_Z   1
loop_
 _symmetry_equiv_pos_site_id
 _symmetry_equiv_pos_as_xyz
  1  'x, y, z'
loop_
 _atom_site_type_symbol
 _atom_site_label
 _atom_site_symmetry_multiplicity
 _atom_site_fract_x
 _atom_site_fract_y
 _atom_site_fract_z
 _atom_site_occupancy
  Zr  Zr0  1  0.72000013  0.27999987  0.27999987  1
  Zr  Zr1  1  0.27999987  0.72000013  0.72000013  1
  Zr  Zr2  1  0.27999987  0.72000013  0.27999987  1
  Zr  Zr3  1  0.72000013  0.27999987  0.72000013  1
  Zr  Zr4  1  0.27999987  0.27999987  0.72000013  1
  Zr  Zr5  1  0.72000013  0.72000013  0.27999987  1
  Zn  Zn0  1  0.12759991  0.12759991  0.12759991  1
  Zn  Zn1  1  0.87240009  0.87240009  0.87240009  1
  Zn  Zn2  1  0.12759991  0.12759991  0.61720127  1
  Zn  Zn3  1  0.12759991  0.61720127  0.12759991  1
  Zn  Zn4  1  0.87240009  0.87240009  0.38279873  1
  Zn  Zn5  1  0.87240009  0.38279873  0.87240009  1
  Zn  Zn6  1  0.61720127  0.12759991  0.12759991  1
  Zn  Zn7  1  0.38279873  0.87240009  0.87240009  1
  Zn  Zn8  1  0.33818864  0.33818864  0.33818864  1
  Zn  Zn9  1  0.66181136  0.66181136  0.66181136  1
  Zn  Zn10  1  0.33818864  0.33818864  0.98543309  1
  Zn  Zn11  1  0.33818864  0.98543309  0.33818864  1
  Zn  Zn12  1  0.66181136  0.66181136  0.01456691  1
  Zn  Zn13  1  0.66181136  0.01456691  0.66181136  1
  Zn  Zn14  1  0.98543309  0.33818864  0.33818864  1
  Zn  Zn15  1  0.01456691  0.66181136  0.66181136  1
  Zn  Zn16  1  0.00000000  0.00000000  0.00000000  1
  Ni  Ni0  1  0.50000000  0.00000000  0.00000000  1
  Ni  Ni1  1  0.00000000  0.50000000  0.50000000  1
  Ni  Ni2  1  0.00000000  0.50000000  0.00000000  1
  Ni  Ni3  1  0.50000000  0.00000000  0.50000000  1
  Ni  Ni4  1  0.00000000  0.00000000  0.50000000  1
  Ni  Ni5  1  0.50000000  0.50000000  0.00000000  1
  Ge  Ge0  1  0.50000000  0.50000000  0.50000000  1
loop_
_geom_bond_atom_site_label_1
_geom_bond_atom_site_label_2
_geom_bond_distance
_geom_bond_site_symmetry_2
Zn0 Zn14 2.608281 1_455
Zn0 Zn11 2.608281 1_545
Zn0 Zn10 2.608281 1_554
Zn0 Zn16 2.667847 1_555
Zn0 Zr4 2.851183 1_554
Zn0 Zr2 2.851183 1_545
Zn0 Zr0 2.851183 1_455
Zn1 Zn15 2.608281 1_655
Zn1 Zn13 2.608281 1_565
Zn1 Zn12 2.608281 1_556
Zn1 Zn16 2.667847 1_666
Zn1 Zr5 2.851183 1_556
Zn1 Zr3 2.851183 1_565
Zn1 Zr1 2.851183 1_655
Zn2 Zn8 2.608285 1_555
Zn2 Zr4 2.851176 1_555
Zn2 Zr1 2.851184 1_545
Zn2 Zr3 2.851184 1_455
Zn3 Zn8 2.608285 1_555
Zn3 Zr2 2.851176 1_555
Zn3 Zr1 2.851184 1_554
Zn3 Zr5 2.851184 1_455
Zn4 Zn9 2.608285 1_555
Zn4 Zr5 2.851176 1_555
Zn4 Zr0 2.851184 1_565
Zn4 Zr2 2.851184 1_655
Zn5 Zn9 2.608285 1_555
Zn5 Zr3 2.851176 1_555
Zn5 Zr0 2.851184 1_556
Zn5 Zr4 2.851184 1_655
Zn6 Zn8 2.608285 1_555
Zn6 Zr0 2.851176 1_555
Zn6 Zr3 2.851184 1_554
Zn6 Zr5 2.851184 1_545
Zn7 Zn9 2.608285 1_555
Zn7 Zr1 2.851176 1_555
Zn7 Zr2 2.851184 1_556
Zn7 Zr4 2.851184 1_565
Zn8 Zr4 2.850226 1_555
Zn8 Zr2 2.850226 1_555
Zn8 Zr0 2.850226 1_555
Zn9 Zr5 2.850226 1_555
Zn9 Zr3 2.850226 1_555
Zn9 Zr1 2.850226 1_555
Zn10 Zn3 2.608295 1_556
Zn10 Zn6 2.608295 1_556
Zn10 Zr4 2.850217 1_555
Zn10 Zr1 2.850223 1_555
Zn10 Zr3 2.850223 1_555
Zn11 Zn2 2.608295 1_565
Zn11 Zn6 2.608295 1_565
Zn11 Zr2 2.850217 1_555
Zn11 Zr1 2.850223 1_555
Zn11 Zr5 2.850223 1_555
Zn12 Zn5 2.608295 1_554
Zn12 Zn7 2.608295 1_554
Zn12 Zr5 2.850217 1_555
Zn12 Zr0 2.850223 1_555
Zn12 Zr2 2.850223 1_555
Zn13 Zn4 2.608295 1_545
Zn13 Zn7 2.608295 1_545
Zn13 Zr3 2.850217 1_555
Zn13 Zr0 2.850223 1_555
Zn13 Zr4 2.850223 1_555
Zn14 Zn2 2.608295 1_655
Zn14 Zn3 2.608295 1_655
Zn14 Zr0 2.850217 1_555
Zn14 Zr5 2.850223 1_555
Zn14 Zr3 2.850223 1_555
Zn15 Zn4 2.608295 1_455
Zn15 Zn5 2.608295 1_455
Zn15 Zr1 2.850217 1_555
Zn15 Zr4 2.850223 1_555
Zn15 Zr2 2.850223 1_555
Zn16 Zn4 2.667840 1_445
Zn16 Zn2 2.667840 1_554
Zn16 Zn5 2.667840 1_454
Zn16 Zn3 2.667840 1_545
Zn16 Zn7 2.667840 1_544
Zn16 Zn6 2.667840 1_455
Ni0 Zn11 2.466109 1_545
Ni0 Zn13 2.466109 1_554
Ni0 Zn10 2.466109 1_554
Ni0 Zn12 2.466109 1_545
Ni0 Zn1 2.595875 1_544
Ni0 Zn0 2.595875 1_555
Ni0 Zn6 2.595882 1_555
Ni0 Zn7 2.595882 1_544
Ni0 Zr5 3.039447 1_545
Ni0 Zr4 3.039447 1_554
Ni0 Zr3 3.039447 1_554
Ni0 Zr2 3.039447 1_545
Ni1 Zn8 2.466111 1_555
Ni1 Zn9 2.466111 1_455
Ni1 Zn15 2.466116 1_555
Ni1 Zn14 2.466116 1_455
Ni1 Zn5 2.595875 1_455
Ni1 Zn3 2.595875 1_555
Ni1 Zn4 2.595875 1_455
Ni1 Zn2 2.595875 1_555
Ni1 Zr4 3.039447 1_555
Ni1 Zr5 3.039447 1_455
Ni1 Zr2 3.039447 1_555
Ni1 Zr3 3.039447 1_455
Ni2 Zn14 2.466108 1_455
Ni2 Zn15 2.466108 1_554
Ni2 Zn10 2.466109 1_554
Ni2 Zn12 2.466109 1_455
Ni2 Zn1 2.595875 1_454
Ni2 Zn0 2.595875 1_555
Ni2 Zn3 2.595882 1_555
Ni2 Zn5 2.595882 1_454
Ni2 Zr5 3.039447 1_455
Ni2 Zr4 3.039447 1_554
Ni2 Zr1 3.039447 1_554
Ni2 Zr0 3.039447 1_455
Ni3 Zn8 2.466111 1_555
Ni3 Zn9 2.466111 1_545
Ni3 Zn13 2.466116 1_555
Ni3 Zn11 2.466116 1_545
Ni3 Zn7 2.595875 1_545
Ni3 Zn6 2.595875 1_555
Ni3 Zn4 2.595875 1_545
Ni3 Zn2 2.595875 1_555
Ni3 Zr4 3.039447 1_555
Ni3 Zr5 3.039447 1_545
Ni3 Zr0 3.039447 1_555
Ni3 Zr1 3.039447 1_545
Ni4 Zn14 2.466109 1_455
Ni4 Zn15 2.466109 1_545
Ni4 Zn11 2.466109 1_545
Ni4 Zn13 2.466109 1_455
Ni4 Zn1 2.595875 1_445
Ni4 Zn0 2.595875 1_555
Ni4 Zn2 2.595882 1_555
Ni4 Zn4 2.595882 1_445
Ni4 Zr3 3.039447 1_455
Ni4 Zr1 3.039447 1_545
Ni4 Zr2 3.039447 1_545
Ni4 Zr0 3.039447 1_455
Ni5 Zn8 2.466111 1_555
Ni5 Zn9 2.466111 1_554
Ni5 Zn12 2.466116 1_555
Ni5 Zn10 2.466116 1_554
Ni5 Zn7 2.595875 1_554
Ni5 Zn6 2.595875 1_555
Ni5 Zn5 2.595875 1_554
Ni5 Zn3 2.595875 1_555
Ni5 Zr0 3.039447 1_555
Ni5 Zr2 3.039447 1_555
Ni5 Zr3 3.039447 1_554
Ni5 Zr1 3.039447 1_554
Ge0 Zr3 2.655662 1_555
Ge0 Zr1 2.655662 1_555
Ge0 Zr0 2.655662 1_555
Ge0 Zr2 2.655662 1_555
Ge0 Zr5 2.655662 1_555
Ge0 Zr4 2.655662 1_555
