# generated using pymatgen
data_Na(Sm2Se3)4
_symmetry_space_group_name_H-M   'P 1'
_cell_length_a   14.72227767
_cell_length_b   14.72227767
_cell_length_c   14.72227767
_cell_angle_alpha   144.99668878
_cell_angle_beta   144.99668878
_cell_angle_gamma   50.33945891
_symmetry_Int_Tables_number   1
_chemical_formula_structural   Na(Sm2Se3)4
_chemical_formula_sum   'Na2 Sm16 Se24'
_cell_volume   1044.77238278
_cell_formula_units_Z   2
loop_
 _symmetry_equiv_pos_site_id
 _symmetry_equiv_pos_as_xyz
  1  'x, y, z'
loop_
 _atom_site_type_symbol
 _atom_site_label
 _atom_site_symmetry_multiplicity
 _atom_site_fract_x
 _atom_site_fract_y
 _atom_site_fract_z
 _atom_site_occupancy
  Na  Na0  1  0.50000000  0.50000000  0.00000000  1
  Na  Na1  1  0.25000000  0.75000000  0.50000000  1
  Sm  Sm0  1  0.16831700  0.29437100  0.38157200  1
  Sm  Sm1  1  0.91279900  0.78674400  0.61842800  1
  Sm  Sm2  1  0.21325500  0.83168300  0.12605400  1
  Sm  Sm3  1  0.91778900  0.41778900  0.50000000  1
  Sm  Sm4  1  0.49473700  0.62500000  0.36973700  1
  Sm  Sm5  1  0.70562900  0.08720100  0.87394600  1
  Sm  Sm6  1  0.25526300  0.12500000  0.63026300  1
  Sm  Sm7  1  0.83221100  0.83221100  0.00000000  1
  Sm  Sm8  1  0.53674400  0.16279900  0.11842800  1
  Sm  Sm9  1  0.83720100  0.95562900  0.37394600  1
  Sm  Sm10  1  0.04437100  0.41831700  0.88157200  1
  Sm  Sm11  1  0.58168300  0.46325500  0.62605400  1
  Sm  Sm12  1  0.16778900  0.16778900  0.00000000  1
  Sm  Sm13  1  0.87500000  0.50526300  0.13026300  1
  Sm  Sm14  1  0.58221100  0.08221100  0.50000000  1
  Sm  Sm15  1  0.37500000  0.74473700  0.86973700  1
  Se  Se0  1  0.40595200  0.15825000  0.59731400  1
  Se  Se1  1  0.19136200  0.59404800  0.75229800  1
  Se  Se2  1  0.84175000  0.43906500  0.24770200  1
  Se  Se3  1  0.21603800  0.46918600  0.89164900  1
  Se  Se4  1  0.57753700  0.32438900  0.10835100  1
  Se  Se5  1  0.00569700  0.10955100  0.24803400  1
  Se  Se6  1  0.56093500  0.80863800  0.40268600  1
  Se  Se7  1  0.86151700  0.75766300  0.75196600  1
  Se  Se8  1  0.74430300  0.49233700  0.60385400  1
  Se  Se9  1  0.53396200  0.92561100  0.75314800  1
  Se  Se10  1  0.17246300  0.78081400  0.24685200  1
  Se  Se11  1  0.55863800  0.81093500  0.90268600  1
  Se  Se12  1  0.90825000  0.65595200  0.09731400  1
  Se  Se13  1  0.34404800  0.44136200  0.25229800  1
  Se  Se14  1  0.88848300  0.14044900  0.39614600  1
  Se  Se15  1  0.18906500  0.09175000  0.74770200  1
  Se  Se16  1  0.07438900  0.82753700  0.60835100  1
  Se  Se17  1  0.85955100  0.25569700  0.74803400  1
  Se  Se18  1  0.50766300  0.11151700  0.25196600  1
  Se  Se19  1  0.89044900  0.13848300  0.89614600  1
  Se  Se20  1  0.24233700  0.99430300  0.10385400  1
  Se  Se21  1  0.67561100  0.78396200  0.25314800  1
  Se  Se22  1  0.21918600  0.46603800  0.39164900  1
  Se  Se23  1  0.53081400  0.42246300  0.74685200  1
loop_
_geom_bond_atom_site_label_1
_geom_bond_atom_site_label_2
_geom_bond_distance
_geom_bond_site_symmetry_2
Na0 Se2 2.992903 1_555
Na0 Se0 2.992907 1_554
Na0 Se1 2.992907 1_554
Na0 Se6 2.992912 1_555
Na0 Se21 3.246214 1_555
Na0 Se4 3.246214 1_555
Na0 Se23 3.246214 1_554
Na0 Se3 3.246214 1_554
Na1 Se15 2.992903 1_565
Na1 Se13 2.992907 1_555
Na1 Se12 2.992907 1_455
Na1 Se11 2.992912 1_555
Na1 Se9 3.246214 1_555
Na1 Se16 3.246214 1_555
Na1 Se10 3.246214 1_555
Na1 Se22 3.246214 1_555
Se0 Sm5 2.966071 1_555
Se0 Sm6 2.989121 1_555
Se0 Sm0 3.101298 1_555
Se0 Sm14 3.129603 1_555
Se0 Sm2 3.133471 1_545
Se1 Sm0 2.966071 1_555
Se1 Sm15 2.989121 1_555
Se1 Sm2 3.101298 1_556
Se1 Sm3 3.129603 1_455
Se1 Sm1 3.133462 1_455
Se2 Sm1 2.966058 1_555
Se2 Sm13 2.989108 1_555
Se2 Sm5 3.101307 1_554
Se2 Sm3 3.129616 1_555
Se2 Sm0 3.133474 1_655
Se3 Sm10 2.930875 1_555
Se3 Sm3 2.952264 1_455
Se3 Sm6 2.962942 1_555
Se3 Sm4 3.144867 1_556
Se3 Sm2 3.189526 1_556
Se4 Sm8 2.930887 1_555
Se4 Sm3 2.952264 1_555
Se4 Sm4 2.962942 1_555
Se4 Sm6 3.144867 1_554
Se4 Sm5 3.189526 1_554
Se5 Sm3 2.969719 1_455
Se5 Sm0 2.973489 1_555
Se5 Sm5 2.997370 1_454
Se5 Sm7 3.183718 1_445
Se5 Sm2 3.208672 1_545
Se5 Sm6 3.211845 1_555
Se6 Sm2 2.966063 1_555
Se6 Sm4 2.989110 1_555
Se6 Sm1 3.101307 1_555
Se6 Sm14 3.129611 1_565
Se6 Sm5 3.133467 1_565
Se7 Sm3 2.969719 1_555
Se7 Sm1 2.973476 1_555
Se7 Sm2 2.997370 1_656
Se7 Sm7 3.183718 1_556
Se7 Sm5 3.208672 1_565
Se7 Sm4 3.211845 1_555
Se8 Sm7 2.969719 1_556
Se8 Sm11 2.973489 1_555
Se8 Sm10 2.997370 1_655
Se8 Sm3 3.183718 1_555
Se8 Sm8 3.208673 1_555
Se8 Sm4 3.211845 1_555
Se9 Sm5 2.930875 1_565
Se9 Sm7 2.952264 1_556
Se9 Sm4 2.962942 1_555
Se9 Sm6 3.144867 1_565
Se9 Sm8 3.189536 1_566
Se10 Sm2 2.930875 1_555
Se10 Sm7 2.952264 1_455
Se10 Sm6 2.962942 1_565
Se10 Sm4 3.144867 1_555
Se10 Sm10 3.189526 1_554
Se11 Sm11 2.966063 1_555
Se11 Sm15 2.989110 1_555
Se11 Sm8 3.101307 1_566
Se11 Sm7 3.129611 1_556
Se11 Sm9 3.133467 1_556
Se12 Sm9 2.966071 1_555
Se12 Sm13 2.989121 1_555
Se12 Sm10 3.101298 1_654
Se12 Sm7 3.129603 1_555
Se12 Sm11 3.133471 1_554
Se13 Sm10 2.966071 1_554
Se13 Sm4 2.989121 1_555
Se13 Sm11 3.101298 1_555
Se13 Sm12 3.129603 1_555
Se13 Sm8 3.133462 1_555
Se14 Sm7 2.969719 1_545
Se14 Sm9 2.973489 1_545
Se14 Sm8 2.997378 1_555
Se14 Sm3 3.183718 1_555
Se14 Sm10 3.208672 1_655
Se14 Sm6 3.211845 1_655
Se15 Sm8 2.966058 1_556
Se15 Sm6 2.989108 1_555
Se15 Sm9 3.101307 1_445
Se15 Sm12 3.129616 1_556
Se15 Sm10 3.133474 1_555
Se16 Sm1 2.930887 1_455
Se16 Sm12 2.952264 1_566
Se16 Sm15 2.962942 1_555
Se16 Sm13 3.144867 1_455
Se16 Sm9 3.189526 1_455
Se17 Sm12 2.969719 1_656
Se17 Sm10 2.973489 1_655
Se17 Sm9 2.997370 1_545
Se17 Sm14 3.183718 1_555
Se17 Sm11 3.208672 1_555
Se17 Sm13 3.211845 1_556
Se18 Sm12 2.969719 1_555
Se18 Sm8 2.973476 1_555
Se18 Sm11 2.997370 1_555
Se18 Sm14 3.183718 1_555
Se18 Sm9 3.208672 1_545
Se18 Sm15 3.211845 1_544
Se19 Sm14 2.969719 1_555
Se19 Sm5 2.973489 1_555
Se19 Sm1 2.997378 1_545
Se19 Sm12 3.183718 1_656
Se19 Sm0 3.208672 1_656
Se19 Sm13 3.211845 1_556
Se20 Sm14 2.969719 1_565
Se20 Sm2 2.973489 1_555
Se20 Sm0 2.997370 1_565
Se20 Sm12 3.183718 1_565
Se20 Sm1 3.208673 1_454
Se20 Sm15 3.211845 1_554
Se21 Sm9 2.930875 1_555
Se21 Sm14 2.952264 1_565
Se21 Sm15 2.962942 1_554
Se21 Sm13 3.144867 1_555
Se21 Sm1 3.189536 1_555
Se22 Sm0 2.930875 1_555
Se22 Sm12 2.952264 1_555
Se22 Sm13 2.962942 1_455
Se22 Sm15 3.144867 1_555
Se22 Sm11 3.189526 1_555
Se23 Sm11 2.930875 1_555
Se23 Sm14 2.952264 1_555
Se23 Sm13 2.962942 1_556
Se23 Sm15 3.144867 1_555
Se23 Sm0 3.189526 1_555
