# generated using pymatgen
data_Nb12Ga9Ni3N4
_symmetry_space_group_name_H-M   'P 1'
_cell_length_a   8.20506447
_cell_length_b   8.20749775
_cell_length_c   8.20749709
_cell_angle_alpha   59.99999870
_cell_angle_beta   59.99018814
_cell_angle_gamma   59.99018269
_symmetry_Int_Tables_number   1
_chemical_formula_structural   Nb12Ga9Ni3N4
_chemical_formula_sum   'Nb12 Ga9 Ni3 N4'
_cell_volume   390.77256265
_cell_formula_units_Z   1
loop_
 _symmetry_equiv_pos_site_id
 _symmetry_equiv_pos_as_xyz
  1  'x, y, z'
loop_
 _atom_site_type_symbol
 _atom_site_label
 _atom_site_symmetry_multiplicity
 _atom_site_fract_x
 _atom_site_fract_y
 _atom_site_fract_z
 _atom_site_occupancy
  Nb  Nb0  1  0.81565973  0.81201565  0.18616331  1
  Nb  Nb1  1  0.18651849  0.19696603  0.80825774  1
  Nb  Nb2  1  0.81565973  0.18616331  0.81201565  1
  Nb  Nb3  1  0.18651849  0.80825774  0.19696603  1
  Nb  Nb4  1  0.18651849  0.80825774  0.80825774  1
  Nb  Nb5  1  0.81565973  0.18616331  0.18616331  1
  Nb  Nb6  1  0.43434027  0.43798435  0.06383669  1
  Nb  Nb7  1  0.06348151  0.05303397  0.44174226  1
  Nb  Nb8  1  0.43434027  0.06383669  0.43798435  1
  Nb  Nb9  1  0.06348151  0.44174226  0.05303397  1
  Nb  Nb10  1  0.06348151  0.44174226  0.44174226  1
  Nb  Nb11  1  0.43434027  0.06383669  0.06383669  1
  Ga  Ga0  1  0.12500000  0.62500000  0.62500000  1
  Ga  Ga1  1  0.75893535  0.41368888  0.41368888  1
  Ga  Ga2  1  0.43294971  0.75179242  0.40762994  1
  Ga  Ga3  1  0.43294971  0.40762994  0.75179242  1
  Ga  Ga4  1  0.43294971  0.40762994  0.40762994  1
  Ga  Ga5  1  0.49106465  0.83631112  0.83631112  1
  Ga  Ga6  1  0.81705029  0.49820758  0.84237006  1
  Ga  Ga7  1  0.81705029  0.84237006  0.49820758  1
  Ga  Ga8  1  0.81705029  0.84237006  0.84237006  1
  Ni  Ni0  1  0.62500000  0.12500000  0.62500000  1
  Ni  Ni1  1  0.62500000  0.62500000  0.12500000  1
  Ni  Ni2  1  0.62500000  0.62500000  0.62500000  1
  N  N0  1  0.62500000  0.12500000  0.12500000  1
  N  N1  1  0.12500000  0.62500000  0.12500000  1
  N  N2  1  0.12500000  0.12500000  0.62500000  1
  N  N3  1  0.12500000  0.12500000  0.12500000  1
loop_
_geom_bond_atom_site_label_1
_geom_bond_atom_site_label_2
_geom_bond_distance
_geom_bond_site_symmetry_2
Nb0 Ni2 3.002201 1_555
Nb0 Ni1 3.002213 1_555
Nb1 Ni0 2.984100 1_555
Nb2 Ni2 3.002201 1_555
Nb2 Ni0 3.002213 1_555
Nb3 Ni1 2.984100 1_555
Nb4 Ni2 2.984100 1_555
Nb5 Ni0 3.002198 1_555
Nb5 Ni1 3.002198 1_555
Nb6 Ni2 3.002201 1_554
Nb6 Ni1 3.002213 1_555
Nb7 Ni0 2.984100 1_455
Nb8 Ni2 3.002201 1_545
Nb8 Ni0 3.002213 1_555
Nb9 Ni1 2.984100 1_455
Nb10 Ni2 2.984100 1_455
Nb11 Ni0 3.002198 1_554
Nb11 Ni1 3.002198 1_545
Ga0 Ga8 2.629577 1_455
Ga0 Ga4 2.629577 1_555
Ga0 Ga3 2.629586 1_555
Ga0 Ga7 2.629586 1_455
Ga0 Ga2 2.629586 1_555
Ga0 Ga6 2.629586 1_455
Ga0 Nb9 2.925831 1_556
Ga0 Nb3 2.925831 1_555
Ga0 Nb7 2.925831 1_565
Ga0 Nb1 2.925831 1_555
Ga0 Nb4 2.925831 1_555
Ga0 Nb10 2.925831 1_555
Ga1 Ni2 2.533461 1_555
Ga1 Ni1 2.533474 1_555
Ga1 Ni0 2.533475 1_555
Ga1 Ga2 2.725384 1_555
Ga1 Ga3 2.725384 1_555
Ga1 Ga4 2.725384 1_555
Ga1 Nb10 2.748488 1_655
Ga1 Nb7 2.748497 1_655
Ga1 Nb9 2.748497 1_655
Ga1 Nb2 2.989906 1_555
Ga1 Nb5 2.989906 1_555
Ga1 Nb0 2.989906 1_555
Ga2 Ni2 2.462551 1_555
Ga2 Ni1 2.462565 1_555
Ga2 Nb8 2.700292 1_565
Ga2 Nb11 2.700310 1_565
Ga2 Nb7 2.779779 1_565
Ga2 Ga3 2.824713 1_555
Ga2 Ga4 2.824713 1_555
Ga2 Nb0 2.890246 1_555
Ga2 Nb4 3.008503 1_555
Ga2 Nb3 3.008516 1_555
Ga3 Ni2 2.462552 1_555
Ga3 Ni0 2.462565 1_555
Ga3 Nb6 2.700291 1_556
Ga3 Nb11 2.700310 1_556
Ga3 Nb9 2.779779 1_556
Ga3 Ga4 2.824713 1_555
Ga3 Nb2 2.890246 1_555
Ga3 Nb4 3.008503 1_555
Ga3 Nb1 3.008517 1_555
Ga4 Ni0 2.462556 1_555
Ga4 Ni1 2.462556 1_555
Ga4 Nb6 2.700324 1_555
Ga4 Nb8 2.700324 1_555
Ga4 Nb10 2.779785 1_555
Ga4 Nb5 2.890246 1_555
Ga4 Nb3 3.008508 1_555
Ga4 Nb1 3.008509 1_555
Ga5 Ni2 2.533461 1_555
Ga5 Ni1 2.533474 1_556
Ga5 Ni0 2.533475 1_565
Ga5 Ga6 2.725384 1_555
Ga5 Ga7 2.725384 1_555
Ga5 Ga8 2.725384 1_555
Ga5 Nb4 2.748488 1_555
Ga5 Nb1 2.748497 1_565
Ga5 Nb3 2.748497 1_556
Ga5 Nb8 2.989906 1_565
Ga5 Nb11 2.989906 1_566
Ga5 Nb6 2.989906 1_556
Ga6 Ni2 2.462551 1_555
Ga6 Ni1 2.462565 1_556
Ga6 Nb2 2.700292 1_555
Ga6 Nb5 2.700310 1_556
Ga6 Nb1 2.779779 1_655
Ga6 Ga7 2.824713 1_555
Ga6 Ga8 2.824713 1_555
Ga6 Nb6 2.890246 1_556
Ga6 Nb10 3.008503 1_655
Ga6 Nb9 3.008516 1_656
Ga7 Ni2 2.462552 1_555
Ga7 Ni0 2.462565 1_565
Ga7 Nb0 2.700291 1_555
Ga7 Nb5 2.700310 1_565
Ga7 Nb3 2.779779 1_655
Ga7 Ga8 2.824713 1_555
Ga7 Nb8 2.890246 1_565
Ga7 Nb10 3.008503 1_655
Ga7 Nb7 3.008517 1_665
Ga8 Ni0 2.462556 1_565
Ga8 Ni1 2.462556 1_556
Ga8 Nb0 2.700324 1_556
Ga8 Nb2 2.700324 1_565
Ga8 Nb4 2.779785 1_655
Ga8 Nb11 2.890246 1_566
Ga8 Nb9 3.008508 1_656
Ga8 Nb7 3.008509 1_665
N0 Nb6 2.185021 1_555
N0 Nb0 2.185021 1_545
N0 Nb8 2.185021 1_555
N0 Nb2 2.185021 1_554
N0 Nb11 2.185033 1_555
N0 Nb5 2.185033 1_555
N1 Nb6 2.156202 1_555
N1 Nb0 2.156202 1_455
N1 Nb10 2.193631 1_555
N1 Nb4 2.193631 1_554
N1 Nb3 2.193631 1_555
N1 Nb9 2.193631 1_555
N2 Nb8 2.156202 1_555
N2 Nb2 2.156202 1_455
N2 Nb10 2.193631 1_555
N2 Nb4 2.193631 1_545
N2 Nb1 2.193631 1_555
N2 Nb7 2.193631 1_555
N3 Nb5 2.156198 1_455
N3 Nb11 2.156198 1_555
N3 Nb7 2.193631 1_555
N3 Nb1 2.193631 1_554
N3 Nb9 2.193631 1_555
N3 Nb3 2.193631 1_545
