# generated using pymatgen
data_BaLi2SiSe4
_symmetry_space_group_name_H-M   'P 1'
_cell_length_a   6.47087861
_cell_length_b   6.47087981
_cell_length_c   6.47087931
_cell_angle_alpha   115.06859178
_cell_angle_beta   115.06859551
_cell_angle_gamma   98.77728369
_symmetry_Int_Tables_number   1
_chemical_formula_structural   BaLi2SiSe4
_chemical_formula_sum   'Ba1 Li2 Si1 Se4'
_cell_volume   203.28110978
_cell_formula_units_Z   1
loop_
 _symmetry_equiv_pos_site_id
 _symmetry_equiv_pos_as_xyz
  1  'x, y, z'
loop_
 _atom_site_type_symbol
 _atom_site_label
 _atom_site_symmetry_multiplicity
 _atom_site_fract_x
 _atom_site_fract_y
 _atom_site_fract_z
 _atom_site_occupancy
  Ba  Ba0  1  0.00000000  0.00000000  0.00000000  1
  Li  Li0  1  0.25000000  0.75000000  0.50000000  1
  Li  Li1  1  0.75000000  0.25000000  0.50000000  1
  Si  Si0  1  0.50000000  0.50000000  0.00000000  1
  Se  Se0  1  0.46750290  0.46750290  0.62190100  1
  Se  Se1  1  0.53249710  0.15439810  1.00000000  1
  Se  Se2  1  0.15439810  0.53249710  0.00000000  1
  Se  Se3  1  0.84560190  0.84560190  0.37809900  1
loop_
_geom_bond_atom_site_label_1
_geom_bond_atom_site_label_2
_geom_bond_distance
_geom_bond_site_symmetry_2
Ba0 Se1 3.327483 1_454
Ba0 Se3 3.327484 1_444
Ba0 Se0 3.327484 1_555
Ba0 Se2 3.327484 1_545
Ba0 Se1 3.438104 1_554
Ba0 Se3 3.438104 1_445
Ba0 Se0 3.438104 1_444
Ba0 Se2 3.438105 1_555
Li0 Se3 2.647830 1_455
Li0 Se0 2.647830 1_555
Li0 Se2 2.647830 1_555
Li0 Se1 2.647830 1_565
Li1 Se0 2.647830 1_555
Li1 Se2 2.647830 1_656
Li1 Se1 2.647830 1_554
Li1 Se3 2.647830 1_545
Se0 Si0 2.277936 1_556
Se1 Si0 2.277936 1_556
Se2 Si0 2.277936 1_555
Se3 Si0 2.277936 1_555
