# generated using pymatgen
data_Ba3Ca7Bi8
_symmetry_space_group_name_H-M   'P 1'
_cell_length_a   8.94978473
_cell_length_b   8.68712224
_cell_length_c   8.81971920
_cell_angle_alpha   69.25072654
_cell_angle_beta   92.76741163
_cell_angle_gamma   94.72849955
_symmetry_Int_Tables_number   1
_chemical_formula_structural   Ba3Ca7Bi8
_chemical_formula_sum   'Ba3 Ca7 Bi8'
_cell_volume   638.92242352
_cell_formula_units_Z   1
loop_
 _symmetry_equiv_pos_site_id
 _symmetry_equiv_pos_as_xyz
  1  'x, y, z'
loop_
 _atom_site_type_symbol
 _atom_site_label
 _atom_site_symmetry_multiplicity
 _atom_site_fract_x
 _atom_site_fract_y
 _atom_site_fract_z
 _atom_site_occupancy
  Ba  Ba0  1  0.32785624  0.05350670  0.30906321  1
  Ba  Ba1  1  0.18759984  0.55110585  0.31731139  1
  Ba  Ba2  1  0.80991439  0.45276440  0.68917609  1
  Ca  Ca0  1  0.35711887  0.25878567  0.72989740  1
  Ca  Ca1  1  0.99758416  0.99904850  0.99850501  1
  Ca  Ca2  1  0.67876526  0.94465522  0.69834722  1
  Ca  Ca3  1  0.83899944  0.25408352  0.23968160  1
  Ca  Ca4  1  0.15799930  0.74546769  0.75738308  1
  Ca  Ca5  1  0.64552337  0.73728352  0.27105735  1
  Ca  Ca6  1  0.50029851  0.50290043  0.99775634  1
  Bi  Bi0  1  0.85131086  0.65411855  0.01089807  1
  Bi  Bi1  1  0.95814761  0.86496951  0.41339484  1
  Bi  Bi2  1  0.14203364  0.35204865  0.97402619  1
  Bi  Bi3  1  0.56020215  0.33203520  0.40921707  1
  Bi  Bi4  1  0.36913881  0.86719221  0.00635531  1
  Bi  Bi5  1  0.45638385  0.67614720  0.60140750  1
  Bi  Bi6  1  0.03004314  0.13140073  0.58884410  1
  Bi  Bi7  1  0.63108057  0.12248346  0.98767822  1
loop_
_geom_bond_atom_site_label_1
_geom_bond_atom_site_label_2
_geom_bond_distance
_geom_bond_site_symmetry_2
Ba0 Bi3 3.386207 1_555
Ba0 Bi1 3.579128 1_445
Ba0 Bi2 3.609713 1_554
Ba0 Bi5 3.614409 1_545
Ba0 Bi4 3.624864 1_545
Ba0 Bi7 3.876788 1_554
Ba0 Bi6 3.970720 1_555
Ba1 Bi4 3.472748 1_555
Ba1 Bi5 3.763058 1_555
Ba1 Bi6 3.782690 1_555
Ba1 Bi3 3.884759 1_555
Ba1 Bi1 3.885580 1_455
Ba1 Bi0 3.886855 1_455
Ba1 Bi2 3.974621 1_554
Ba2 Bi7 3.467360 1_555
Ba2 Bi3 3.620354 1_555
Ba2 Bi1 3.722338 1_555
Ba2 Bi2 3.749997 1_655
Ba2 Bi5 3.753320 1_555
Ba2 Bi0 3.815332 1_556
Ba2 Bi6 3.909429 1_655
Bi0 Ca1 3.136790 1_554
Bi0 Ca5 3.313748 1_555
Bi0 Ca6 3.316683 1_554
Bi0 Ca3 3.339187 1_555
Bi0 Ca2 3.414023 1_554
Bi0 Ca4 3.484152 1_654
Bi1 Bi6 3.218937 1_665
Bi1 Ca5 3.281847 1_555
Bi1 Ca4 3.321418 1_655
Bi1 Ca3 3.417262 1_565
Bi1 Ca1 3.450805 1_554
Bi1 Ca2 3.895165 1_555
Bi2 Ca1 3.166374 1_445
Bi2 Ca4 3.266591 1_555
Bi2 Ca0 3.300204 1_555
Bi2 Ca6 3.388048 1_555
Bi2 Ca3 3.519886 1_456
Bi3 Ca3 3.205706 1_555
Bi3 Ca0 3.276926 1_555
Bi3 Ca5 3.326938 1_555
Bi3 Ca6 3.433175 1_554
Bi3 Ca2 3.633230 1_545
Bi4 Bi7 3.059845 1_564
Bi4 Ca4 3.228920 1_554
Bi4 Ca5 3.298230 1_555
Bi4 Ca0 3.418621 1_564
Bi4 Ca6 3.491387 1_554
Bi4 Ca1 3.595033 1_454
Bi4 Ca2 3.825648 1_554
Bi5 Ca4 3.254749 1_555
Bi5 Ca2 3.258277 1_555
Bi5 Ca5 3.296686 1_555
Bi5 Ca6 3.297945 1_555
Bi5 Ca0 3.445845 1_555
Bi6 Ca3 3.318005 1_455
Bi6 Ca0 3.380950 1_555
Bi6 Ca1 3.400528 1_445
Bi6 Ca4 3.420338 1_545
Bi6 Ca2 3.433741 1_445
Bi7 Ca0 3.258184 1_555
Bi7 Ca3 3.280227 1_556
Bi7 Ca5 3.402212 1_546
Bi7 Ca2 3.476696 1_545
Bi7 Ca1 3.520691 1_545
Bi7 Ca6 3.626988 1_555
