# generated using pymatgen
data_Zr6SiAsN2
_symmetry_space_group_name_H-M   'P 1'
_cell_length_a   5.82885799
_cell_length_b   5.82885740
_cell_length_c   8.56913010
_cell_angle_alpha   90.00000000
_cell_angle_beta   90.00000000
_cell_angle_gamma   145.10767018
_symmetry_Int_Tables_number   1
_chemical_formula_structural   Zr6SiAsN2
_chemical_formula_sum   'Zr6 Si1 As1 N2'
_cell_volume   166.54325958
_cell_formula_units_Z   1
loop_
 _symmetry_equiv_pos_site_id
 _symmetry_equiv_pos_as_xyz
  1  'x, y, z'
loop_
 _atom_site_type_symbol
 _atom_site_label
 _atom_site_symmetry_multiplicity
 _atom_site_fract_x
 _atom_site_fract_y
 _atom_site_fract_z
 _atom_site_occupancy
  Zr  Zr0  1  0.63108282  0.36891718  0.94803711  1
  Zr  Zr1  1  0.36896708  0.63103292  0.44418804  1
  Zr  Zr2  1  0.36896708  0.63103292  0.05581196  1
  Zr  Zr3  1  0.63108282  0.36891718  0.55196289  1
  Zr  Zr4  1  0.94045951  0.05954049  0.75000000  1
  Zr  Zr5  1  0.05990996  0.94009004  0.25000000  1
  Si  Si0  1  0.74528596  0.25471404  0.25000000  1
  As  As0  1  0.25284804  0.74715196  0.75000000  1
  N  N0  1  0.00069886  0.99930114  0.99894996  1
  N  N1  1  0.00069886  0.99930114  0.50105004  1
loop_
_geom_bond_atom_site_label_1
_geom_bond_atom_site_label_2
_geom_bond_distance
_geom_bond_site_symmetry_2
Si0 Zr5 2.702651 1_655
Si0 Zr5 2.702651 1_545
Si0 Zr1 2.777576 1_545
Si0 Zr2 2.777576 1_545
Si0 Zr1 2.777576 1_655
Si0 Zr2 2.777576 1_655
Si0 Zr3 2.882469 1_555
Si0 Zr0 2.882469 1_554
As0 Zr4 2.721663 1_455
As0 Zr4 2.721664 1_565
As0 Zr0 2.787045 1_565
As0 Zr3 2.787045 1_565
As0 Zr0 2.787046 1_455
As0 Zr3 2.787046 1_455
As0 Zr2 2.921470 1_556
As0 Zr1 2.921470 1_555
N0 Zr4 2.236009 1_465
N0 Zr5 2.249811 1_556
N0 Zr0 2.312343 1_455
N0 Zr0 2.312343 1_565
N0 Zr2 2.331889 1_566
N0 Zr2 2.331890 1_456
N1 Zr4 2.236009 1_465
N1 Zr5 2.249811 1_555
N1 Zr3 2.312343 1_455
N1 Zr3 2.312343 1_565
N1 Zr1 2.331889 1_565
N1 Zr1 2.331890 1_455
