# generated using pymatgen
data_Nb3BrCl7
_symmetry_space_group_name_H-M   'P 1'
_cell_length_a   6.83553819
_cell_length_b   6.83553802
_cell_length_c   13.06368795
_cell_angle_alpha   90.00000000
_cell_angle_beta   90.00000000
_cell_angle_gamma   119.99999605
_symmetry_Int_Tables_number   1
_chemical_formula_structural   Nb3BrCl7
_chemical_formula_sum   'Nb6 Br2 Cl14'
_cell_volume   528.61789957
_cell_formula_units_Z   2
loop_
 _symmetry_equiv_pos_site_id
 _symmetry_equiv_pos_as_xyz
  1  'x, y, z'
loop_
 _atom_site_type_symbol
 _atom_site_label
 _atom_site_symmetry_multiplicity
 _atom_site_fract_x
 _atom_site_fract_y
 _atom_site_fract_z
 _atom_site_occupancy
  Nb  Nb0  1  0.52875043  0.47124957  0.75313830  1
  Nb  Nb1  1  0.52875043  0.05749986  0.75313830  1
  Nb  Nb2  1  0.47124957  0.52875043  0.24686170  1
  Nb  Nb3  1  0.47124957  0.94250014  0.24686170  1
  Nb  Nb4  1  0.05749986  0.52875043  0.24686170  1
  Nb  Nb5  1  0.94250014  0.47124957  0.75313830  1
  Br  Br0  1  0.66666700  0.33333300  0.59828107  1
  Br  Br1  1  0.33333300  0.66666700  0.40171893  1
  Cl  Cl0  1  0.83496935  0.16503065  0.34906990  1
  Cl  Cl1  1  0.83496935  0.66993770  0.34906990  1
  Cl  Cl2  1  0.33006230  0.16503065  0.34906990  1
  Cl  Cl3  1  0.66993770  0.83496935  0.65093010  1
  Cl  Cl4  1  0.16503065  0.33006230  0.65093010  1
  Cl  Cl5  1  0.16503065  0.83496935  0.65093010  1
  Cl  Cl6  1  0.16892752  0.83107248  0.12081415  1
  Cl  Cl7  1  0.16892752  0.33785503  0.12081415  1
  Cl  Cl8  1  0.33333300  0.66666700  0.85690374  1
  Cl  Cl9  1  0.66666700  0.33333300  0.14309626  1
  Cl  Cl10  1  0.83107248  0.16892752  0.87918585  1
  Cl  Cl11  1  0.83107248  0.66214497  0.87918585  1
  Cl  Cl12  1  0.33785503  0.16892752  0.87918585  1
  Cl  Cl13  1  0.66214497  0.83107248  0.12081415  1
loop_
_geom_bond_atom_site_label_1
_geom_bond_atom_site_label_2
_geom_bond_distance
_geom_bond_site_symmetry_2
Br0 Nb0 2.599769 1_555
Br0 Nb1 2.599769 1_555
Br0 Nb5 2.599769 1_555
Br1 Nb2 2.599769 1_555
Br1 Nb3 2.599769 1_555
Br1 Nb4 2.599769 1_555
Cl0 Nb4 2.548737 1_655
Cl0 Nb3 2.548737 1_545
Cl1 Nb4 2.548727 1_655
Cl1 Nb2 2.548738 1_555
Cl2 Nb3 2.548727 1_545
Cl2 Nb2 2.548738 1_555
Cl3 Nb1 2.548727 1_565
Cl3 Nb0 2.548738 1_555
Cl4 Nb5 2.548727 1_455
Cl4 Nb0 2.548738 1_555
Cl5 Nb5 2.548737 1_455
Cl5 Nb1 2.548737 1_565
Cl6 Nb4 2.447066 1_555
Cl6 Nb3 2.447066 1_555
Cl7 Nb2 2.447067 1_555
Cl7 Nb4 2.447070 1_555
Cl8 Nb1 2.681499 1_565
Cl8 Nb5 2.681499 1_455
Cl8 Nb0 2.681509 1_555
Cl9 Nb3 2.681499 1_545
Cl9 Nb4 2.681499 1_655
Cl9 Nb2 2.681509 1_555
Cl10 Nb5 2.447066 1_555
Cl10 Nb1 2.447066 1_555
Cl11 Nb0 2.447067 1_555
Cl11 Nb5 2.447070 1_555
Cl12 Nb0 2.447066 1_555
Cl12 Nb1 2.447070 1_555
Cl13 Nb2 2.447066 1_555
Cl13 Nb3 2.447070 1_555
