# generated using pymatgen
data_Ba2TiO4
_symmetry_space_group_name_H-M   'P 1'
_cell_length_a   7.72761598
_cell_length_b   6.17441543
_cell_length_c   11.91850771
_cell_angle_alpha   62.52903066
_cell_angle_beta   90.00000000
_cell_angle_gamma   90.00000000
_symmetry_Int_Tables_number   1
_chemical_formula_structural   Ba2TiO4
_chemical_formula_sum   'Ba8 Ti4 O16'
_cell_volume   504.55284933
_cell_formula_units_Z   4
loop_
 _symmetry_equiv_pos_site_id
 _symmetry_equiv_pos_as_xyz
  1  'x, y, z'
loop_
 _atom_site_type_symbol
 _atom_site_label
 _atom_site_symmetry_multiplicity
 _atom_site_fract_x
 _atom_site_fract_y
 _atom_site_fract_z
 _atom_site_occupancy
  Ba  Ba0  1  0.99886590  0.97504745  0.30138283  1
  Ba  Ba1  1  0.49886590  0.02495255  0.19861717  1
  Ba  Ba2  1  0.00113410  0.02495255  0.69861717  1
  Ba  Ba3  1  0.50113410  0.97504745  0.80138283  1
  Ba  Ba4  1  0.65771764  0.30682721  0.42533861  1
  Ba  Ba5  1  0.15771764  0.69317279  0.07466139  1
  Ba  Ba6  1  0.34228236  0.69317279  0.57466139  1
  Ba  Ba7  1  0.84228236  0.30682721  0.92533861  1
  Ti  Ti0  1  0.22012103  0.34389265  0.41683914  1
  Ti  Ti1  1  0.72012103  0.65610735  0.08316086  1
  Ti  Ti2  1  0.77987897  0.65610735  0.58316086  1
  Ti  Ti3  1  0.27987897  0.34389265  0.91683914  1
  O  O0  1  0.32018888  0.25863564  0.57133672  1
  O  O1  1  0.82018888  0.74136436  0.92866328  1
  O  O2  1  0.67981112  0.74136436  0.42866328  1
  O  O3  1  0.17981112  0.25863564  0.07133672  1
  O  O4  1  0.32450620  0.14456059  0.36135244  1
  O  O5  1  0.82450620  0.85543941  0.13864756  1
  O  O6  1  0.67549380  0.85543941  0.63864756  1
  O  O7  1  0.17549380  0.14456059  0.86135244  1
  O  O8  1  0.26008094  0.66674746  0.31142594  1
  O  O9  1  0.76008094  0.33325254  0.18857406  1
  O  O10  1  0.73991906  0.33325254  0.68857406  1
  O  O11  1  0.23991906  0.66674746  0.81142594  1
  O  O12  1  0.00831618  0.72079859  0.56583750  1
  O  O13  1  0.50831618  0.27920141  0.93416250  1
  O  O14  1  0.99168382  0.27920141  0.43416250  1
  O  O15  1  0.49168382  0.72079859  0.06583750  1
loop_
_geom_bond_atom_site_label_1
_geom_bond_atom_site_label_2
_geom_bond_distance
_geom_bond_site_symmetry_2
Ba0 O9 2.713073 1_565
Ba0 O5 2.728417 1_555
Ba0 O8 2.739036 1_655
Ba0 O12 2.799863 1_655
Ba0 O3 2.847694 1_665
Ba0 O2 2.905610 1_555
Ba0 O4 2.937499 1_665
Ba0 O14 2.962466 1_565
Ba1 O8 2.713073 1_545
Ba1 O4 2.728417 1_555
Ba1 O9 2.739036 1_555
Ba1 O13 2.799863 1_554
Ba1 O2 2.847694 1_545
Ba1 O3 2.905610 1_555
Ba1 O5 2.937499 1_545
Ba1 O15 2.962466 1_545
Ba2 O11 2.713073 1_545
Ba2 O7 2.728417 1_555
Ba2 O10 2.739036 1_455
Ba2 O14 2.799863 1_455
Ba2 O1 2.847694 1_445
Ba2 O0 2.905610 1_555
Ba2 O6 2.937499 1_445
Ba2 O12 2.962466 1_545
Ba3 O10 2.713073 1_565
Ba3 O6 2.728417 1_555
Ba3 O11 2.739036 1_555
Ba3 O15 2.799863 1_556
Ba3 O0 2.847694 1_565
Ba3 O1 2.905610 1_555
Ba3 O7 2.937499 1_565
Ba3 O13 2.962466 1_565
Ba4 O14 2.585332 1_555
Ba4 O2 2.706910 1_555
Ba4 O6 2.777193 1_545
Ba4 O9 2.861916 1_555
Ba4 O4 2.986736 1_555
Ba4 O0 3.072770 1_555
Ba4 O10 3.278035 1_555
Ba5 O15 2.585332 1_555
Ba5 O3 2.706910 1_555
Ba5 O7 2.777193 1_564
Ba5 O8 2.861916 1_555
Ba5 O5 2.986736 1_455
Ba5 O1 3.072770 1_454
Ba5 O11 3.278035 1_554
Ba6 O12 2.585332 1_555
Ba6 O0 2.706910 1_555
Ba6 O4 2.777193 1_565
Ba6 O11 2.861916 1_555
Ba6 O6 2.986736 1_555
Ba6 O2 3.072770 1_555
Ba6 O8 3.278035 1_555
Ba7 O13 2.585332 1_555
Ba7 O1 2.706910 1_555
Ba7 O5 2.777193 1_546
Ba7 O10 2.861916 1_555
Ba7 O7 2.986736 1_655
Ba7 O3 3.072770 1_656
Ba7 O9 3.278035 1_556
O0 Ti0 1.836155 1_555
O1 Ti1 1.836155 1_556
O2 Ti2 1.836155 1_555
O3 Ti3 1.836155 1_554
O4 Ti0 1.831316 1_555
O5 Ti1 1.831316 1_555
O6 Ti2 1.831316 1_555
O7 Ti3 1.831316 1_555
O8 Ti0 1.826739 1_555
O9 Ti1 1.826739 1_555
O10 Ti2 1.826739 1_555
O11 Ti3 1.826739 1_555
O12 Ti2 1.800634 1_455
O13 Ti3 1.800634 1_555
O14 Ti0 1.800634 1_655
O15 Ti1 1.800634 1_555
