# generated using pymatgen
data_Sr8Cd3Si12Hg
_symmetry_space_group_name_H-M   'P 1'
_cell_length_a   11.98426166
_cell_length_b   10.36521819
_cell_length_c   8.49882981
_cell_angle_alpha   78.18849325
_cell_angle_beta   57.85552694
_cell_angle_gamma   43.96155124
_symmetry_Int_Tables_number   1
_chemical_formula_structural   Sr8Cd3Si12Hg
_chemical_formula_sum   'Sr8 Cd3 Si12 Hg1'
_cell_volume   591.28076640
_cell_formula_units_Z   1
loop_
 _symmetry_equiv_pos_site_id
 _symmetry_equiv_pos_as_xyz
  1  'x, y, z'
loop_
 _atom_site_type_symbol
 _atom_site_label
 _atom_site_symmetry_multiplicity
 _atom_site_fract_x
 _atom_site_fract_y
 _atom_site_fract_z
 _atom_site_occupancy
  Sr  Sr0  1  0.12476142  0.12309090  0.87440294  1
  Sr  Sr1  1  0.87396931  0.87735362  0.12535619  1
  Sr  Sr2  1  0.12746282  0.12567314  0.37441809  1
  Sr  Sr3  1  0.37461018  0.37331535  0.12722325  1
  Sr  Sr4  1  0.62233685  0.62547846  0.37698319  1
  Sr  Sr5  1  0.37682459  0.37464364  0.62249351  1
  Sr  Sr6  1  0.62657390  0.62627895  0.87340559  1
  Sr  Sr7  1  0.87379246  0.87402540  0.62600586  1
  Cd  Cd0  1  0.08302366  0.41740678  0.08290510  1
  Cd  Cd1  1  0.83223459  0.16692481  0.83316219  1
  Cd  Cd2  1  0.16747919  0.83300169  0.16657716  1
  Si  Si0  1  0.91900465  0.59842584  0.42214733  1
  Si  Si1  1  0.06175866  0.42184568  0.59777716  1
  Si  Si2  1  0.42338888  0.06238737  0.91738366  1
  Si  Si3  1  0.59916694  0.91978739  0.06005537  1
  Si  Si4  1  0.33194962  0.65246163  0.82704013  1
  Si  Si5  1  0.65426840  0.33389727  0.18652859  1
  Si  Si6  1  0.82511389  0.18588151  0.33445602  1
  Si  Si7  1  0.18589895  0.82516804  0.65473966  1
  Si  Si8  1  0.90861600  0.58902053  0.91166295  1
  Si  Si9  1  0.58841426  0.90808230  0.59094673  1
  Si  Si10  1  0.34080007  0.66052891  0.33919792  1
  Si  Si11  1  0.66100135  0.34235473  0.65865883  1
  Hg  Hg0  1  0.41755334  0.08297107  0.41646958  1
loop_
_geom_bond_atom_site_label_1
_geom_bond_atom_site_label_2
_geom_bond_distance
_geom_bond_site_symmetry_2
Cd0 Si8 2.544725 1_454
Cd0 Si2 2.561839 1_554
Cd0 Si0 2.563479 1_455
Cd0 Sr2 3.403564 1_555
Cd0 Sr3 3.404838 1_555
Cd0 Sr1 3.418025 1_455
Cd0 Sr5 3.421633 1_554
Cd0 Sr4 3.429426 1_455
Cd0 Sr0 3.430724 1_554
Cd1 Si11 2.545534 1_555
Cd1 Si7 2.560768 1_645
Cd1 Si5 2.561524 1_556
Cd1 Sr1 3.396310 1_546
Cd1 Sr0 3.401270 1_655
Cd1 Sr3 3.407859 1_556
Cd1 Sr7 3.412213 1_545
Cd1 Sr2 3.424530 1_655
Cd1 Sr6 3.425975 1_555
Cd2 Si10 2.546747 1_555
Cd2 Si6 2.559506 1_465
Cd2 Si4 2.561689 1_554
Cd2 Sr0 3.398411 1_564
Cd2 Sr1 3.409442 1_455
Cd2 Sr6 3.420066 1_554
Cd2 Sr7 3.422842 1_455
Cd2 Sr3 3.423211 1_555
Cd2 Sr2 3.427952 1_565
Si0 Si9 2.363665 1_555
Si0 Si1 2.365568 1_655
Si0 Sr7 3.202303 1_555
Si0 Sr3 3.321119 1_655
Si0 Sr1 3.351004 1_555
Si0 Sr6 3.430489 1_555
Si0 Sr2 3.539704 1_655
Si0 Sr4 3.583204 1_555
Si1 Si8 2.364662 1_455
Si1 Sr6 3.209315 1_455
Si1 Sr2 3.311037 1_555
Si1 Sr0 3.350982 1_555
Si1 Sr7 3.432961 1_455
Si1 Sr3 3.529397 1_555
Si1 Sr5 3.561300 1_555
Si2 Si9 2.364444 1_545
Si2 Si3 2.365266 1_546
Si2 Sr6 3.221773 1_545
Si2 Sr2 3.336258 1_556
Si2 Sr0 3.375296 1_555
Si2 Sr7 3.415267 1_545
Si2 Sr3 3.527077 1_556
Si2 Sr5 3.554638 1_555
Si3 Si8 2.363740 1_554
Si3 Sr7 3.196033 1_554
Si3 Sr3 3.304284 1_565
Si3 Sr1 3.332714 1_555
Si3 Sr6 3.444189 1_554
Si3 Sr2 3.541786 1_565
Si3 Sr4 3.584793 1_555
Si4 Si7 2.357119 1_555
Si4 Sr5 3.229351 1_555
Si4 Sr1 3.343564 1_456
Si4 Sr3 3.373169 1_556
Si4 Sr4 3.419305 1_555
Si4 Sr0 3.525184 1_565
Si4 Sr6 3.571153 1_555
Si5 Si6 2.356647 1_555
Si5 Sr5 3.236008 1_555
Si5 Sr1 3.348104 1_545
Si5 Sr3 3.375711 1_555
Si5 Sr4 3.402844 1_555
Si5 Sr0 3.510573 1_654
Si5 Sr6 3.544957 1_554
Si6 Sr4 3.255282 1_555
Si6 Sr0 3.367924 1_654
Si6 Sr5 3.393705 1_555
Si6 Sr2 3.406088 1_655
Si6 Sr1 3.500245 1_545
Si6 Sr7 3.531748 1_545
Si7 Sr4 3.238853 1_555
Si7 Sr0 3.347445 1_565
Si7 Sr2 3.386069 1_565
Si7 Sr5 3.404686 1_555
Si7 Sr1 3.511250 1_456
Si7 Sr7 3.535659 1_455
Si8 Sr6 3.304325 1_555
Si8 Sr7 3.341002 1_555
Si8 Sr4 3.443919 1_556
Si8 Sr0 3.446388 1_655
Si8 Sr1 3.469278 1_556
Si8 Sr5 3.474809 1_655
Si9 Sr6 3.298245 1_555
Si9 Sr7 3.348640 1_555
Si9 Sr4 3.425222 1_555
Si9 Sr0 3.431013 1_565
Si9 Sr1 3.465187 1_555
Si9 Sr5 3.470221 1_565
Si10 Si5 2.357998 1_555
Si10 Si7 2.359129 1_555
Si10 Sr4 3.310527 1_555
Si10 Sr5 3.332840 1_555
Si10 Sr2 3.449972 1_565
Si10 Sr6 3.453196 1_554
Si10 Sr3 3.457564 1_555
Si10 Sr7 3.467512 1_455
Si11 Si4 2.358129 1_555
Si11 Si6 2.358252 1_555
Si11 Sr4 3.302176 1_555
Si11 Sr5 3.351986 1_555
Si11 Sr6 3.436809 1_555
Si11 Sr2 3.450586 1_655
Si11 Sr7 3.481657 1_545
Si11 Sr3 3.483482 1_556
Hg0 Si9 2.542574 1_545
Hg0 Si3 2.560418 1_545
Hg0 Si1 2.560518 1_555
Hg0 Sr2 3.384077 1_555
Hg0 Sr3 3.384191 1_555
Hg0 Sr1 3.399709 1_545
Hg0 Sr5 3.402566 1_555
Hg0 Sr4 3.412262 1_545
Hg0 Sr0 3.415007 1_555
