# generated using pymatgen
data_SrTcP2Ru
_symmetry_space_group_name_H-M   'P 1'
_cell_length_a   6.25268699
_cell_length_b   6.25268725
_cell_length_c   6.25268785
_cell_angle_alpha   141.77694484
_cell_angle_beta   141.77695307
_cell_angle_gamma   55.16493728
_symmetry_Int_Tables_number   1
_chemical_formula_structural   SrTcP2Ru
_chemical_formula_sum   'Sr1 Tc1 P2 Ru1'
_cell_volume   92.90553549
_cell_formula_units_Z   1
loop_
 _symmetry_equiv_pos_site_id
 _symmetry_equiv_pos_as_xyz
  1  'x, y, z'
loop_
 _atom_site_type_symbol
 _atom_site_label
 _atom_site_symmetry_multiplicity
 _atom_site_fract_x
 _atom_site_fract_y
 _atom_site_fract_z
 _atom_site_occupancy
  Sr  Sr0  1  0.00000000  0.00000000  0.00000000  1
  Tc  Tc0  1  0.25000000  0.75000000  0.50000000  1
  P  P0  1  0.65157189  0.65157189  0.00000000  1
  P  P1  1  0.34842811  0.34842811  1.00000000  1
  Ru  Ru0  1  0.75000000  0.25000000  0.50000000  1
loop_
_geom_bond_atom_site_label_1
_geom_bond_atom_site_label_2
_geom_bond_distance
_geom_bond_site_symmetry_2
Sr0 Tc0 3.445213 1_444
Sr0 Tc0 3.445213 1_555
Sr0 Tc0 3.445214 1_545
Sr0 Tc0 3.445214 1_544
P0 Tc0 2.319739 1_655
P0 Ru0 2.319740 1_565
P0 Tc0 2.319740 1_554
P0 Ru0 2.319740 1_554
P0 Sr0 3.347298 1_554
P0 Sr0 3.347299 1_565
P0 Sr0 3.347299 1_655
P0 Sr0 3.347299 1_666
P1 Ru0 2.319739 1_455
P1 Tc0 2.319740 1_545
P1 Ru0 2.319740 1_556
P1 Tc0 2.319740 1_556
P1 Sr0 3.347298 1_667
P1 Sr0 3.347299 1_656
P1 Sr0 3.347299 1_566
P1 Sr0 3.347299 1_555
Ru0 Tc0 2.895149 1_544
Ru0 Tc0 2.895149 1_656
Ru0 Tc0 2.895150 1_555
Ru0 Tc0 2.895150 1_645
Ru0 Sr0 3.445213 1_555
Ru0 Sr0 3.445213 1_666
Ru0 Sr0 3.445214 1_656
Ru0 Sr0 3.445214 1_655
