# generated using pymatgen
data_Hf3Ta(NbN2)6
_symmetry_space_group_name_H-M   'P 1'
_cell_length_a   5.29265586
_cell_length_b   5.29265503
_cell_length_c   10.50803561
_cell_angle_alpha   90.00000000
_cell_angle_beta   90.00000000
_cell_angle_gamma   120.00000514
_symmetry_Int_Tables_number   1
_chemical_formula_structural   Hf3Ta(NbN2)6
_chemical_formula_sum   'Hf3 Ta1 Nb6 N12'
_cell_volume   254.91734647
_cell_formula_units_Z   1
loop_
 _symmetry_equiv_pos_site_id
 _symmetry_equiv_pos_as_xyz
  1  'x, y, z'
loop_
 _atom_site_type_symbol
 _atom_site_label
 _atom_site_symmetry_multiplicity
 _atom_site_fract_x
 _atom_site_fract_y
 _atom_site_fract_z
 _atom_site_occupancy
  Hf  Hf0  1  0.66666700  0.33333300  0.00000000  1
  Hf  Hf1  1  0.33333300  0.66666700  0.00000000  1
  Hf  Hf2  1  0.33333300  0.66666700  0.50000000  1
  Ta  Ta0  1  0.66666700  0.33333300  0.50000000  1
  Nb  Nb0  1  0.67834345  0.68033899  0.74835946  1
  Nb  Nb1  1  0.31966101  0.99800446  0.74835946  1
  Nb  Nb2  1  0.00199554  0.32165655  0.74835946  1
  Nb  Nb3  1  0.31966101  0.32165655  0.25164054  1
  Nb  Nb4  1  0.67834345  0.99800446  0.25164054  1
  Nb  Nb5  1  0.00199554  0.68033899  0.25164054  1
  N  N0  1  0.65626158  0.64942200  0.37967587  1
  N  N1  1  0.35057800  0.00683958  0.37967587  1
  N  N2  1  0.99316042  0.34373842  0.37967587  1
  N  N3  1  0.35057800  0.34373842  0.62032413  1
  N  N4  1  0.65626158  0.00683958  0.62032413  1
  N  N5  1  0.99316042  0.64942200  0.62032413  1
  N  N6  1  0.34769189  0.34744813  0.87436666  1
  N  N7  1  0.65255187  0.00024375  0.87436666  1
  N  N8  1  0.99975625  0.65230811  0.87436666  1
  N  N9  1  0.65255187  0.65230811  0.12563334  1
  N  N10  1  0.34769189  0.00024375  0.12563334  1
  N  N11  1  0.99975625  0.34744813  0.12563334  1
loop_
_geom_bond_atom_site_label_1
_geom_bond_atom_site_label_2
_geom_bond_distance
_geom_bond_site_symmetry_2
Hf0 N7 2.173617 1_554
Hf0 N11 2.173617 1_555
Hf0 N10 2.173619 1_555
Hf0 N8 2.173619 1_554
Hf0 N9 2.173621 1_555
Hf0 N6 2.173621 1_554
Hf1 N10 2.175187 1_565
Hf1 N8 2.175187 1_454
Hf1 N7 2.175189 1_564
Hf1 N11 2.175189 1_455
Hf1 N6 2.175191 1_554
Hf1 N9 2.175191 1_555
Hf2 N1 2.164286 1_565
Hf2 N5 2.164286 1_455
Hf2 N4 2.164288 1_565
Hf2 N2 2.164288 1_455
Hf2 N3 2.164290 1_555
Hf2 N0 2.164290 1_555
N0 Ta0 2.119566 1_555
N0 Nb5 2.210386 1_655
N0 Nb3 2.214218 1_555
N0 Nb4 2.238726 1_555
N1 Ta0 2.119564 1_555
N1 Nb3 2.210386 1_555
N1 Nb4 2.214218 1_545
N1 Nb5 2.238726 1_545
N2 Ta0 2.119562 1_555
N2 Nb4 2.210386 1_545
N2 Nb5 2.214218 1_655
N2 Nb3 2.238726 1_655
N3 Ta0 2.119566 1_555
N3 Nb1 2.210386 1_545
N3 Nb0 2.214218 1_555
N3 Nb2 2.238726 1_555
N4 Ta0 2.119562 1_555
N4 Nb2 2.210386 1_655
N4 Nb1 2.214218 1_545
N4 Nb0 2.238726 1_545
N5 Ta0 2.119564 1_555
N5 Nb0 2.210386 1_555
N5 Nb2 2.214218 1_655
N5 Nb1 2.238726 1_655
N6 Nb0 2.199245 1_555
N6 Nb2 2.206742 1_555
N6 Nb1 2.218429 1_545
N7 Nb1 2.199245 1_545
N7 Nb0 2.206742 1_545
N7 Nb2 2.218429 1_655
N8 Nb2 2.199245 1_655
N8 Nb1 2.206742 1_655
N8 Nb0 2.218429 1_555
N9 Nb3 2.199245 1_555
N9 Nb4 2.206742 1_555
N9 Nb5 2.218429 1_655
N10 Nb4 2.199245 1_545
N10 Nb5 2.206742 1_545
N10 Nb3 2.218429 1_555
N11 Nb5 2.199245 1_655
N11 Nb3 2.206742 1_655
N11 Nb4 2.218429 1_545
