# generated using pymatgen
data_RbCuWSe4
_symmetry_space_group_name_H-M   'P 1'
_cell_length_a   6.65151491
_cell_length_b   6.65151574
_cell_length_c   6.65151618
_cell_angle_alpha   100.10491554
_cell_angle_beta   100.10492533
_cell_angle_gamma   130.47358691
_symmetry_Int_Tables_number   1
_chemical_formula_structural   RbCuWSe4
_chemical_formula_sum   'Rb1 Cu1 W1 Se4'
_cell_volume   203.27615585
_cell_formula_units_Z   1
loop_
 _symmetry_equiv_pos_site_id
 _symmetry_equiv_pos_as_xyz
  1  'x, y, z'
loop_
 _atom_site_type_symbol
 _atom_site_label
 _atom_site_symmetry_multiplicity
 _atom_site_fract_x
 _atom_site_fract_y
 _atom_site_fract_z
 _atom_site_occupancy
  Rb  Rb0  1  0.75000000  0.25000000  0.50000000  1
  Cu  Cu0  1  0.50000000  0.50000000  0.00000000  1
  W  W0  1  0.00000000  0.00000000  0.00000000  1
  Se  Se0  1  0.35045621  0.43470187  0.30785395  1
  Se  Se1  1  0.12684692  0.04260126  0.69214605  1
  Se  Se2  1  0.95739874  0.64954379  0.08424666  1
  Se  Se3  1  0.56529813  0.87315308  0.91575334  1
loop_
_geom_bond_atom_site_label_1
_geom_bond_atom_site_label_2
_geom_bond_distance
_geom_bond_site_symmetry_2
Rb0 Se0 3.715255 1_555
Rb0 Se1 3.715255 1_655
Rb0 Se2 3.715260 1_556
Rb0 Se3 3.715260 1_544
Rb0 Se3 3.881563 1_545
Rb0 Se2 3.881566 1_445
Rb0 Se1 3.881568 1_665
Rb0 Se0 3.881572 1_655
Rb0 Se2 3.971304 1_555
Rb0 Se3 3.971308 1_655
Rb0 Se0 3.971310 1_545
Rb0 Se1 3.971314 1_555
Cu0 Se0 2.416004 1_555
Cu0 Se1 2.416007 1_554
Cu0 Se2 2.416009 1_555
Cu0 Se3 2.416013 1_554
Cu0 W0 2.786114 1_555
Cu0 W0 2.786114 1_665
Se0 W0 2.341949 1_555
Se1 W0 2.341945 1_556
Se2 W0 2.341955 1_665
Se3 W0 2.341951 1_666
