# generated using pymatgen
data_Mg3Sc8InAu8
_symmetry_space_group_name_H-M   'P 1'
_cell_length_a   7.62215806
_cell_length_b   7.62215806
_cell_length_c   6.99895136
_cell_angle_alpha   90.00000000
_cell_angle_beta   90.00000000
_cell_angle_gamma   90.00000000
_symmetry_Int_Tables_number   1
_chemical_formula_structural   Mg3Sc8InAu8
_chemical_formula_sum   'Mg3 Sc8 In1 Au8'
_cell_volume   406.62013149
_cell_formula_units_Z   1
loop_
 _symmetry_equiv_pos_site_id
 _symmetry_equiv_pos_as_xyz
  1  'x, y, z'
loop_
 _atom_site_type_symbol
 _atom_site_label
 _atom_site_symmetry_multiplicity
 _atom_site_fract_x
 _atom_site_fract_y
 _atom_site_fract_z
 _atom_site_occupancy
  Mg  Mg0  1  0.50000000  0.00000000  0.25000000  1
  Mg  Mg1  1  0.50000000  0.00000000  0.75000000  1
  Mg  Mg2  1  0.00000000  0.50000000  0.25000000  1
  Sc  Sc0  1  0.14280555  0.16853033  0.00011267  1
  Sc  Sc1  1  0.85719445  0.83146967  0.00011267  1
  Sc  Sc2  1  0.66853033  0.35719445  0.49988733  1
  Sc  Sc3  1  0.33146967  0.64280555  0.49988733  1
  Sc  Sc4  1  0.68097808  0.34350332  0.00008977  1
  Sc  Sc5  1  0.31902192  0.65649668  0.00008977  1
  Sc  Sc6  1  0.84350332  0.81902192  0.49991023  1
  Sc  Sc7  1  0.15649668  0.18097808  0.49991023  1
  In  In0  1  0.00000000  0.50000000  0.75000000  1
  Au  Au0  1  0.36948353  0.35744458  0.23762744  1
  Au  Au1  1  0.62335556  0.64603791  0.76338300  1
  Au  Au2  1  0.63051647  0.64255542  0.23762744  1
  Au  Au3  1  0.85396209  0.12335556  0.73661700  1
  Au  Au4  1  0.85744458  0.13051647  0.26237256  1
  Au  Au5  1  0.37664444  0.35396209  0.76338300  1
  Au  Au6  1  0.14255542  0.86948353  0.26237256  1
  Au  Au7  1  0.14603791  0.87664444  0.73661700  1
loop_
_geom_bond_atom_site_label_1
_geom_bond_atom_site_label_2
_geom_bond_distance
_geom_bond_site_symmetry_2
In0 Sc5 3.224826 1_556
In0 Sc6 3.224826 1_455
In0 Sc7 3.224826 1_555
In0 Sc4 3.224826 1_456
In0 Sc1 3.260739 1_456
In0 Sc3 3.260739 1_555
In0 Sc0 3.260739 1_556
In0 Sc2 3.260739 1_455
In0 Mg2 3.499476 1_556
In0 Mg2 3.499476 1_555
Au0 Sc7 2.795438 1_555
Au0 Sc0 2.796791 1_555
Au0 Sc5 2.847395 1_555
Au0 Sc3 2.860785 1_555
Au0 Sc4 2.900407 1_555
Au0 Mg0 2.901733 1_555
Au0 Sc2 2.926569 1_555
Au0 Mg2 3.019849 1_555
Au1 Sc1 2.814188 1_556
Au1 Sc6 2.820393 1_555
Au1 Sc5 2.851652 1_556
Au1 Mg1 2.858632 1_565
Au1 Sc4 2.873158 1_556
Au1 Sc3 2.889878 1_555
Au1 Sc2 2.892525 1_555
Au1 In0 3.080513 1_655
Au2 Sc6 2.795438 1_555
Au2 Sc1 2.796791 1_555
Au2 Sc4 2.847395 1_555
Au2 Sc2 2.860785 1_555
Au2 Sc5 2.900407 1_555
Au2 Mg0 2.901733 1_565
Au2 Sc3 2.926569 1_555
Au2 Mg2 3.019849 1_655
Au3 Sc2 2.814188 1_555
Au3 Sc4 2.820393 1_556
Au3 Sc6 2.851652 1_545
Au3 Mg1 2.858632 1_555
Au3 Sc7 2.873158 1_655
Au3 Sc1 2.889878 1_546
Au3 Sc0 2.892525 1_656
Au3 In0 3.080513 1_655
Au4 Sc4 2.795438 1_555
Au4 Sc2 2.796791 1_555
Au4 Sc7 2.847395 1_655
Au4 Sc0 2.860785 1_655
Au4 Sc6 2.900407 1_545
Au4 Mg0 2.901733 1_555
Au4 Sc1 2.926569 1_545
Au4 Mg2 3.019849 1_655
Au5 Sc0 2.814188 1_556
Au5 Sc7 2.820393 1_555
Au5 Sc4 2.851652 1_556
Au5 Mg1 2.858632 1_555
Au5 Sc5 2.873158 1_556
Au5 Sc2 2.889878 1_555
Au5 Sc3 2.892525 1_555
Au5 In0 3.080513 1_555
Au6 Sc5 2.795438 1_555
Au6 Sc3 2.796791 1_555
Au6 Sc6 2.847395 1_455
Au6 Sc1 2.860785 1_455
Au6 Sc7 2.900407 1_565
Au6 Mg0 2.901733 1_565
Au6 Sc0 2.926569 1_565
Au6 Mg2 3.019849 1_555
Au7 Sc3 2.814188 1_555
Au7 Sc5 2.820393 1_556
Au7 Sc7 2.851652 1_565
Au7 Mg1 2.858632 1_565
Au7 Sc6 2.873158 1_455
Au7 Sc0 2.889878 1_566
Au7 Sc1 2.892525 1_456
Au7 In0 3.080513 1_555
