# generated using pymatgen
data_V12Co5Si7C4
_symmetry_space_group_name_H-M   'P 1'
_cell_length_a   7.55696021
_cell_length_b   7.55694687
_cell_length_c   7.55695439
_cell_angle_alpha   60.37767836
_cell_angle_beta   60.37759288
_cell_angle_gamma   60.37768872
_symmetry_Int_Tables_number   1
_chemical_formula_structural   V12Co5Si7C4
_chemical_formula_sum   'V12 Co5 Si7 C4'
_cell_volume   307.76496144
_cell_formula_units_Z   1
loop_
 _symmetry_equiv_pos_site_id
 _symmetry_equiv_pos_as_xyz
  1  'x, y, z'
loop_
 _atom_site_type_symbol
 _atom_site_label
 _atom_site_symmetry_multiplicity
 _atom_site_fract_x
 _atom_site_fract_y
 _atom_site_fract_z
 _atom_site_occupancy
  V  V0  1  0.81022737  0.81022903  0.18914082  1
  V  V1  1  0.18489575  0.18488959  0.81453911  1
  V  V2  1  0.81022745  0.18913536  0.81022867  1
  V  V3  1  0.18489092  0.81454175  0.18488919  1
  V  V4  1  0.18913386  0.81023313  0.81023302  1
  V  V5  1  0.81453925  0.18488998  0.18489412  1
  V  V6  1  0.43740885  0.43740587  0.06320756  1
  V  V7  1  0.05709814  0.05710385  0.44446408  1
  V  V8  1  0.43741554  0.06320324  0.43741215  1
  V  V9  1  0.05709622  0.44446823  0.05710002  1
  V  V10  1  0.06320220  0.43741163  0.43741020  1
  V  V11  1  0.44446931  0.05709844  0.05709718  1
  Co  Co0  1  0.13821351  0.61747365  0.61747484  1
  Co  Co1  1  0.61747196  0.13821599  0.61746932  1
  Co  Co2  1  0.61747231  0.61747208  0.13821424  1
  Co  Co3  1  0.62564480  0.62564300  0.62564740  1
  Co  Co4  1  0.83349243  0.83349828  0.83349522  1
  Si  Si0  1  0.75847816  0.41399890  0.41399471  1
  Si  Si1  1  0.41399386  0.75848470  0.41399432  1
  Si  Si2  1  0.41399260  0.41399458  0.75848393  1
  Si  Si3  1  0.41362620  0.41363470  0.41362877  1
  Si  Si4  1  0.50339428  0.83732741  0.83732911  1
  Si  Si5  1  0.83733689  0.50337874  0.83733365  1
  Si  Si6  1  0.83733659  0.83732937  0.50338383  1
  C  C0  1  0.62541245  0.12356612  0.12356721  1
  C  C1  1  0.12356649  0.62541076  0.12356856  1
  C  C2  1  0.12356865  0.12356971  0.62540903  1
  C  C3  1  0.12638997  0.12639090  0.12638772  1
loop_
_geom_bond_atom_site_label_1
_geom_bond_atom_site_label_2
_geom_bond_distance
_geom_bond_site_symmetry_2
Co0 Si3 2.254896 1_555
Co0 Si2 2.291472 1_555
Co0 Si1 2.291484 1_555
Co0 Si6 2.336867 1_455
Co0 Si5 2.336877 1_455
Co0 Co4 2.415518 1_455
Co0 V10 2.716604 1_555
Co0 V1 2.755976 1_555
Co0 V3 2.755996 1_555
Co0 V4 2.756391 1_555
Co0 V9 2.758169 1_556
Co0 V7 2.758202 1_565
Co1 Si3 2.254917 1_555
Co1 Si0 2.291478 1_555
Co1 Si2 2.291488 1_555
Co1 Si4 2.336884 1_545
Co1 Si6 2.336903 1_545
Co1 Co4 2.415520 1_545
Co1 V8 2.716530 1_555
Co1 V5 2.755931 1_555
Co1 V1 2.755941 1_555
Co1 V2 2.756371 1_555
Co1 V7 2.758182 1_655
Co1 V11 2.758186 1_556
Co2 Si3 2.254893 1_555
Co2 Si0 2.291466 1_555
Co2 Si1 2.291489 1_555
Co2 Si4 2.336867 1_554
Co2 Si5 2.336896 1_554
Co2 Co4 2.415519 1_554
Co2 V6 2.716599 1_555
Co2 V5 2.755967 1_555
Co2 V3 2.755974 1_555
Co2 V0 2.756387 1_555
Co2 V9 2.758167 1_655
Co2 V11 2.758176 1_565
Co3 Si0 2.340613 1_555
Co3 Si2 2.340632 1_555
Co3 Si1 2.340647 1_555
Co3 Si4 2.362040 1_555
Co3 Si6 2.362088 1_555
Co3 Si5 2.362091 1_555
Co3 V0 2.756589 1_555
Co3 V2 2.756590 1_555
Co3 V4 2.756623 1_555
Co3 V10 2.771510 1_655
Co3 V8 2.771519 1_565
Co3 V6 2.771528 1_556
Co4 Si4 2.466257 1_555
Co4 Si6 2.466311 1_555
Co4 Si5 2.466342 1_555
Co4 V2 2.526060 1_565
Co4 V4 2.526111 1_655
Co4 V0 2.526118 1_556
Co4 V11 2.711855 1_566
Co4 V9 2.711901 1_656
Co4 V7 2.711910 1_665
Si0 V10 2.490378 1_655
Si0 V9 2.510494 1_655
Si0 V7 2.510503 1_655
Si0 Si3 2.608763 1_555
Si0 Si1 2.618105 1_555
Si0 Si2 2.618120 1_555
Si0 V0 2.734403 1_555
Si0 V2 2.734432 1_555
Si0 V5 2.772644 1_555
Si1 V8 2.490380 1_565
Si1 V11 2.510492 1_565
Si1 V7 2.510504 1_565
Si1 Si3 2.608755 1_555
Si1 Si2 2.618140 1_555
Si1 V0 2.734413 1_555
Si1 V4 2.734457 1_555
Si1 V3 2.772653 1_555
Si2 V6 2.490370 1_556
Si2 V11 2.510486 1_556
Si2 V9 2.510496 1_556
Si2 Si3 2.608770 1_555
Si2 V2 2.734427 1_555
Si2 V4 2.734458 1_555
Si2 V1 2.772616 1_555
Si3 V6 2.483599 1_555
Si3 V10 2.483607 1_555
Si3 V8 2.483614 1_555
Si3 V3 2.784648 1_555
Si3 V1 2.784659 1_555
Si3 V5 2.784681 1_555
Si4 V1 2.536635 1_565
Si4 V3 2.536640 1_556
Si4 Si6 2.537988 1_555
Si4 Si5 2.538005 1_555
Si4 V4 2.593576 1_555
Si4 V11 2.641822 1_566
Si4 V8 2.800768 1_565
Si4 V6 2.800815 1_556
Si5 V1 2.536589 1_655
Si5 V5 2.536593 1_556
Si5 Si6 2.538038 1_555
Si5 V2 2.593548 1_555
Si5 V9 2.641789 1_656
Si5 V10 2.800772 1_655
Si5 V6 2.800821 1_556
Si6 V3 2.536586 1_655
Si6 V5 2.536597 1_565
Si6 V0 2.593527 1_555
Si6 V7 2.641821 1_665
Si6 V10 2.800755 1_655
Si6 V8 2.800775 1_565
C0 V11 1.995427 1_555
C0 V5 1.998520 1_555
C0 V0 2.014440 1_545
C0 V2 2.014446 1_554
C0 V6 2.022772 1_555
C0 V8 2.022787 1_555
C1 V9 1.995426 1_555
C1 V3 1.998517 1_555
C1 V4 2.014444 1_554
C1 V0 2.014458 1_455
C1 V10 2.022774 1_555
C1 V6 2.022789 1_555
C2 V7 1.995431 1_555
C2 V1 1.998522 1_555
C2 V4 2.014452 1_545
C2 V2 2.014470 1_455
C2 V10 2.022774 1_555
C2 V8 2.022798 1_555
C3 V1 2.019384 1_554
C3 V3 2.019391 1_545
C3 V5 2.019400 1_455
C3 V7 2.026986 1_555
C3 V9 2.026988 1_555
C3 V11 2.027003 1_555
