# generated using pymatgen
data_Sc6Mn4Si5Ge
_symmetry_space_group_name_H-M   'P 1'
_cell_length_a   5.65777652
_cell_length_b   5.65777773
_cell_length_c   13.08167501
_cell_angle_alpha   90.00000000
_cell_angle_beta   90.00000000
_cell_angle_gamma   139.07600401
_symmetry_Int_Tables_number   1
_chemical_formula_structural   Sc6Mn4Si5Ge
_chemical_formula_sum   'Sc6 Mn4 Si5 Ge1'
_cell_volume   274.30538119
_cell_formula_units_Z   1
loop_
 _symmetry_equiv_pos_site_id
 _symmetry_equiv_pos_as_xyz
  1  'x, y, z'
loop_
 _atom_site_type_symbol
 _atom_site_label
 _atom_site_symmetry_multiplicity
 _atom_site_fract_x
 _atom_site_fract_y
 _atom_site_fract_z
 _atom_site_occupancy
  Sc  Sc0  1  0.64568336  0.35431664  0.75000000  1
  Sc  Sc1  1  0.92993898  0.07006102  0.61649831  1
  Sc  Sc2  1  0.92993898  0.07006102  0.88350169  1
  Sc  Sc3  1  0.06950059  0.93049941  0.11435121  1
  Sc  Sc4  1  0.35528787  0.64471213  0.25000000  1
  Sc  Sc5  1  0.06950059  0.93049941  0.38564879  1
  Mn  Mn0  1  0.77954470  0.22045530  0.07924818  1
  Mn  Mn1  1  0.22167214  0.77832786  0.58183015  1
  Mn  Mn2  1  0.77954470  0.22045530  0.42075182  1
  Mn  Mn3  1  0.22167214  0.77832786  0.91816985  1
  Si  Si0  1  0.39922141  0.60077859  0.45920553  1
  Si  Si1  1  0.39922141  0.60077859  0.04079447  1
  Si  Si2  1  0.60107738  0.39892262  0.54196409  1
  Si  Si3  1  0.34137417  0.65862583  0.75000000  1
  Si  Si4  1  0.60107738  0.39892262  0.95803591  1
  Ge  Ge0  1  0.65574518  0.34425482  0.25000000  1
loop_
_geom_bond_atom_site_label_1
_geom_bond_atom_site_label_2
_geom_bond_distance
_geom_bond_site_symmetry_2
Sc0 Si4 2.762239 1_555
Sc0 Si2 2.762239 1_555
Sc0 Si3 2.866376 1_655
Sc0 Si3 2.866377 1_545
Sc0 Si3 3.226162 1_555
Sc1 Si3 2.800642 1_545
Sc1 Si3 2.800643 1_655
Sc1 Si2 2.855612 1_655
Sc1 Si2 2.855613 1_545
Sc1 Si0 2.872629 1_545
Sc1 Si0 2.872629 1_655
Sc2 Si3 2.800642 1_545
Sc2 Si3 2.800643 1_655
Sc2 Si4 2.855612 1_655
Sc2 Si4 2.855613 1_545
Sc2 Si1 2.872629 1_546
Sc2 Si1 2.872629 1_656
Sc3 Si1 2.845484 1_455
Sc3 Si1 2.845485 1_565
Sc3 Si4 2.864534 1_564
Sc3 Si4 2.864534 1_454
Sc4 Si0 2.776110 1_555
Sc4 Si1 2.776110 1_555
Sc5 Si0 2.845484 1_455
Sc5 Si0 2.845485 1_565
Sc5 Si2 2.864534 1_565
Sc5 Si2 2.864534 1_455
Mn0 Si1 2.403085 1_655
Mn0 Si1 2.403085 1_545
Mn0 Si4 2.468628 1_554
Mn0 Sc3 3.013556 1_545
Mn0 Sc3 3.013557 1_655
Mn0 Sc2 3.016507 1_554
Mn0 Sc4 3.089712 1_655
Mn0 Sc4 3.089712 1_545
Mn0 Sc3 3.108104 1_645
Mn1 Si2 2.412165 1_455
Mn1 Si2 2.412165 1_565
Mn1 Si0 2.473120 1_555
Mn1 Si3 2.539723 1_555
Mn1 Sc1 2.998795 1_565
Mn1 Sc1 2.998796 1_455
Mn1 Sc5 3.031323 1_555
Mn1 Sc0 3.066065 1_455
Mn1 Sc0 3.066065 1_565
Mn1 Sc1 3.125910 1_465
Mn2 Si0 2.403085 1_655
Mn2 Si0 2.403085 1_545
Mn2 Si2 2.468628 1_555
Mn2 Sc5 3.013556 1_545
Mn2 Sc5 3.013557 1_655
Mn2 Sc1 3.016507 1_555
Mn2 Sc4 3.089712 1_655
Mn2 Sc4 3.089712 1_545
Mn2 Sc5 3.108104 1_645
Mn3 Si4 2.412165 1_455
Mn3 Si4 2.412165 1_565
Mn3 Si1 2.473120 1_556
Mn3 Si3 2.539723 1_555
Mn3 Sc2 2.998795 1_565
Mn3 Sc2 2.998796 1_455
Mn3 Sc3 3.031323 1_556
Mn3 Sc0 3.066065 1_455
Mn3 Sc0 3.066065 1_565
Mn3 Sc2 3.125910 1_465
Si0 Si2 2.398258 1_555
Si1 Si4 2.398258 1_554
Ge0 Mn0 2.590769 1_555
Ge0 Mn2 2.590769 1_555
Ge0 Sc5 2.810143 1_545
Ge0 Sc3 2.810143 1_545
Ge0 Sc5 2.810144 1_655
Ge0 Sc3 2.810144 1_655
Ge0 Sc4 2.896070 1_655
Ge0 Sc4 2.896071 1_545
Ge0 Sc4 3.185326 1_555
