# generated using pymatgen
data_Rb8ZrBi4
_symmetry_space_group_name_H-M   'P 1'
_cell_length_a   12.20434449
_cell_length_b   12.20433326
_cell_length_c   12.20434868
_cell_angle_alpha   59.99995298
_cell_angle_beta   59.99998343
_cell_angle_gamma   59.99994493
_symmetry_Int_Tables_number   1
_chemical_formula_structural   Rb8ZrBi4
_chemical_formula_sum   'Rb16 Zr2 Bi8'
_cell_volume   1285.36874641
_cell_formula_units_Z   2
loop_
 _symmetry_equiv_pos_site_id
 _symmetry_equiv_pos_as_xyz
  1  'x, y, z'
loop_
 _atom_site_type_symbol
 _atom_site_label
 _atom_site_symmetry_multiplicity
 _atom_site_fract_x
 _atom_site_fract_y
 _atom_site_fract_z
 _atom_site_occupancy
  Rb  Rb0  1  0.62500000  0.12500000  0.62500000  1
  Rb  Rb1  1  0.62500000  0.62500000  0.12500000  1
  Rb  Rb2  1  0.12500000  0.62500000  0.62500000  1
  Rb  Rb3  1  0.62500000  0.62500000  0.62500000  1
  Rb  Rb4  1  0.02749468  0.02749468  0.47250532  1
  Rb  Rb5  1  0.77749568  0.22250532  0.22250432  1
  Rb  Rb6  1  0.22250532  0.77749468  0.77749468  1
  Rb  Rb7  1  0.77749568  0.77749468  0.22250532  1
  Rb  Rb8  1  0.77749568  0.22250532  0.77749468  1
  Rb  Rb9  1  0.22250532  0.77749468  0.22250532  1
  Rb  Rb10  1  0.47250432  0.02749468  0.47250532  1
  Rb  Rb11  1  0.47250432  0.02749468  0.02749568  1
  Rb  Rb12  1  0.02749468  0.47250532  0.47250532  1
  Rb  Rb13  1  0.02749468  0.47250532  0.02749468  1
  Rb  Rb14  1  0.22250532  0.22250532  0.77749468  1
  Rb  Rb15  1  0.47250432  0.47250532  0.02749468  1
  Zr  Zr0  1  0.75000000  0.75000000  0.75000000  1
  Zr  Zr1  1  0.50000000  0.50000000  0.50000000  1
  Bi  Bi0  1  0.40088620  0.79734340  0.40088620  1
  Bi  Bi1  1  0.84911380  0.84911380  0.45265760  1
  Bi  Bi2  1  0.45265760  0.84911380  0.84911380  1
  Bi  Bi3  1  0.84911380  0.84911380  0.84911380  1
  Bi  Bi4  1  0.79734240  0.40088620  0.40088620  1
  Bi  Bi5  1  0.40088620  0.40088620  0.40088620  1
  Bi  Bi6  1  0.40088620  0.40088620  0.79734240  1
  Bi  Bi7  1  0.84911380  0.45265660  0.84911380  1
loop_
_geom_bond_atom_site_label_1
_geom_bond_atom_site_label_2
_geom_bond_distance
_geom_bond_site_symmetry_2
Rb0 Zr1 3.736796 1_555
Rb0 Zr0 3.736796 1_545
Rb1 Zr0 3.736802 1_554
Rb1 Zr1 3.736802 1_555
Rb2 Zr1 3.736801 1_555
Rb2 Zr0 3.736801 1_455
Rb3 Zr0 3.736802 1_555
Rb3 Zr1 3.736802 1_555
Bi0 Zr1 2.962964 1_555
Bi0 Rb10 3.884807 1_565
Bi0 Rb11 3.884824 1_565
Bi0 Rb4 3.884831 1_565
Bi0 Rb6 3.915548 1_555
Bi0 Rb7 3.915557 1_555
Bi0 Rb9 3.915570 1_555
Bi0 Rb3 3.919365 1_555
Bi0 Rb2 3.919383 1_555
Bi0 Rb1 3.919383 1_555
Bi1 Zr0 2.962959 1_555
Bi1 Rb7 3.884821 1_555
Bi1 Rb5 3.884834 1_565
Bi1 Rb9 3.884836 1_655
Bi1 Rb12 3.915544 1_655
Bi1 Rb10 3.915559 1_565
Bi1 Rb4 3.915560 1_665
Bi1 Rb3 3.919365 1_555
Bi1 Rb0 3.919374 1_565
Bi1 Rb2 3.919375 1_655
Bi2 Zr0 2.962958 1_555
Bi2 Rb6 3.884829 1_555
Bi2 Rb14 3.884831 1_565
Bi2 Rb9 3.884837 1_556
Bi2 Rb15 3.915548 1_556
Bi2 Rb10 3.915553 1_565
Bi2 Rb11 3.915564 1_566
Bi2 Rb3 3.919366 1_555
Bi2 Rb0 3.919374 1_565
Bi2 Rb1 3.919375 1_556
Bi3 Zr0 2.962950 1_555
Bi3 Rb8 3.884838 1_565
Bi3 Rb6 3.884839 1_655
Bi3 Rb7 3.884844 1_556
Bi3 Rb13 3.915547 1_656
Bi3 Rb4 3.915552 1_665
Bi3 Rb11 3.915562 1_566
Bi3 Rb0 3.919366 1_565
Bi3 Rb2 3.919367 1_655
Bi3 Rb1 3.919367 1_556
Bi4 Zr1 2.962958 1_555
Bi4 Rb12 3.884829 1_655
Bi4 Rb4 3.884831 1_655
Bi4 Rb13 3.884837 1_655
Bi4 Rb7 3.915548 1_555
Bi4 Rb8 3.915553 1_555
Bi4 Rb5 3.915564 1_555
Bi4 Rb3 3.919366 1_555
Bi4 Rb0 3.919374 1_555
Bi4 Rb1 3.919375 1_555
Bi5 Zr1 2.962950 1_555
Bi5 Rb10 3.884838 1_555
Bi5 Rb12 3.884839 1_555
Bi5 Rb15 3.884844 1_555
Bi5 Rb9 3.915547 1_555
Bi5 Rb14 3.915552 1_555
Bi5 Rb5 3.915562 1_555
Bi5 Rb0 3.919366 1_555
Bi5 Rb2 3.919367 1_555
Bi5 Rb1 3.919367 1_555
Bi6 Zr1 2.962959 1_555
Bi6 Rb15 3.884821 1_556
Bi6 Rb11 3.884834 1_556
Bi6 Rb13 3.884836 1_556
Bi6 Rb6 3.915544 1_555
Bi6 Rb8 3.915559 1_555
Bi6 Rb14 3.915560 1_555
Bi6 Rb3 3.919365 1_555
Bi6 Rb0 3.919374 1_555
Bi6 Rb2 3.919375 1_555
Bi7 Zr0 2.962964 1_555
Bi7 Rb8 3.884807 1_555
Bi7 Rb5 3.884824 1_556
Bi7 Rb14 3.884831 1_655
Bi7 Rb12 3.915548 1_655
Bi7 Rb15 3.915557 1_556
Bi7 Rb13 3.915570 1_656
Bi7 Rb3 3.919365 1_555
Bi7 Rb2 3.919383 1_655
Bi7 Rb1 3.919383 1_556
