# generated using pymatgen
data_Zn36Ga5Ni8
_symmetry_space_group_name_H-M   'P 1'
_cell_length_a   8.87071100
_cell_length_b   8.87071100
_cell_length_c   8.87071100
_cell_angle_alpha   90.00000000
_cell_angle_beta   90.00000000
_cell_angle_gamma   90.00000000
_symmetry_Int_Tables_number   1
_chemical_formula_structural   Zn36Ga5Ni8
_chemical_formula_sum   'Zn36 Ga5 Ni8'
_cell_volume   698.03193428
_cell_formula_units_Z   1
loop_
 _symmetry_equiv_pos_site_id
 _symmetry_equiv_pos_as_xyz
  1  'x, y, z'
loop_
 _atom_site_type_symbol
 _atom_site_label
 _atom_site_symmetry_multiplicity
 _atom_site_fract_x
 _atom_site_fract_y
 _atom_site_fract_z
 _atom_site_occupancy
  Zn  Zn0  1  0.31202600  0.00000000  0.00000000  1
  Zn  Zn1  1  0.68797400  0.00000000  0.00000000  1
  Zn  Zn2  1  0.00000000  0.00000000  0.31202600  1
  Zn  Zn3  1  0.00000000  0.00000000  0.68797400  1
  Zn  Zn4  1  0.00000000  0.68797400  0.00000000  1
  Zn  Zn5  1  0.00000000  0.31202600  0.00000000  1
  Zn  Zn6  1  0.86157000  0.50000000  0.50000000  1
  Zn  Zn7  1  0.13843000  0.50000000  0.50000000  1
  Zn  Zn8  1  0.50000000  0.50000000  0.86157000  1
  Zn  Zn9  1  0.50000000  0.50000000  0.13843000  1
  Zn  Zn10  1  0.50000000  0.13843000  0.50000000  1
  Zn  Zn11  1  0.50000000  0.86157000  0.50000000  1
  Zn  Zn12  1  0.29404600  0.29404600  0.05470100  1
  Zn  Zn13  1  0.70595400  0.05470100  0.70595400  1
  Zn  Zn14  1  0.70595400  0.94529900  0.29404600  1
  Zn  Zn15  1  0.94529900  0.70595400  0.29404600  1
  Zn  Zn16  1  0.05470100  0.70595400  0.70595400  1
  Zn  Zn17  1  0.29404600  0.70595400  0.94529900  1
  Zn  Zn18  1  0.70595400  0.29404600  0.94529900  1
  Zn  Zn19  1  0.05470100  0.29404600  0.29404600  1
  Zn  Zn20  1  0.29404600  0.05470100  0.29404600  1
  Zn  Zn21  1  0.94529900  0.29404600  0.70595400  1
  Zn  Zn22  1  0.29404600  0.94529900  0.70595400  1
  Zn  Zn23  1  0.70595400  0.70595400  0.05470100  1
  Zn  Zn24  1  0.82050000  0.82050000  0.53911000  1
  Zn  Zn25  1  0.17950000  0.53911000  0.17950000  1
  Zn  Zn26  1  0.17950000  0.46089000  0.82050000  1
  Zn  Zn27  1  0.46089000  0.17950000  0.82050000  1
  Zn  Zn28  1  0.53911000  0.17950000  0.17950000  1
  Zn  Zn29  1  0.82050000  0.17950000  0.46089000  1
  Zn  Zn30  1  0.17950000  0.82050000  0.46089000  1
  Zn  Zn31  1  0.53911000  0.82050000  0.82050000  1
  Zn  Zn32  1  0.82050000  0.53911000  0.82050000  1
  Zn  Zn33  1  0.46089000  0.82050000  0.17950000  1
  Zn  Zn34  1  0.82050000  0.46089000  0.17950000  1
  Zn  Zn35  1  0.17950000  0.17950000  0.53911000  1
  Ga  Ga0  1  0.00000000  0.00000000  0.00000000  1
  Ga  Ga1  1  0.61539100  0.61539100  0.61539100  1
  Ga  Ga2  1  0.38460900  0.61539100  0.38460900  1
  Ga  Ga3  1  0.38460900  0.38460900  0.61539100  1
  Ga  Ga4  1  0.61539100  0.38460900  0.38460900  1
  Ni  Ni0  1  0.33548000  0.33548000  0.33548000  1
  Ni  Ni1  1  0.66452000  0.33548000  0.66452000  1
  Ni  Ni2  1  0.66452000  0.66452000  0.33548000  1
  Ni  Ni3  1  0.33548000  0.66452000  0.66452000  1
  Ni  Ni4  1  0.82470800  0.82470800  0.82470800  1
  Ni  Ni5  1  0.17529200  0.82470800  0.17529200  1
  Ni  Ni6  1  0.17529200  0.17529200  0.82470800  1
  Ni  Ni7  1  0.82470800  0.17529200  0.17529200  1
loop_
_geom_bond_atom_site_label_1
_geom_bond_atom_site_label_2
_geom_bond_distance
_geom_bond_site_symmetry_2
Zn0 Zn27 2.610477 1_554
Zn0 Zn33 2.610477 1_545
Zn0 Zn20 2.657937 1_555
Zn0 Zn12 2.657937 1_555
Zn0 Zn22 2.657937 1_544
Zn0 Zn17 2.657937 1_544
Zn0 Zn28 3.021355 1_555
Zn0 Zn31 3.021355 1_544
Zn1 Zn31 2.610477 1_544
Zn1 Zn28 2.610477 1_555
Zn1 Zn14 2.657937 1_545
Zn1 Zn18 2.657937 1_554
Zn1 Zn13 2.657937 1_554
Zn1 Zn23 2.657937 1_545
Zn1 Zn33 3.021355 1_545
Zn1 Zn27 3.021355 1_554
Zn2 Zn29 2.610477 1_455
Zn2 Zn30 2.610477 1_545
Zn2 Zn20 2.657937 1_555
Zn2 Zn35 3.021355 1_555
Zn2 Zn24 3.021355 1_445
Zn3 Zn35 2.610477 1_555
Zn3 Zn30 3.021355 1_545
Zn6 Zn7 2.455945 1_655
Zn8 Zn9 2.455945 1_556
Zn10 Zn11 2.455945 1_545
Zn10 Zn13 2.688347 1_555
Zn10 Zn20 2.688347 1_555
Zn10 Zn29 2.887230 1_555
Zn10 Zn27 2.887230 1_555
Zn10 Zn28 2.887230 1_555
Zn10 Zn35 2.887230 1_555
Zn10 Zn14 3.100103 1_545
Zn10 Zn22 3.100103 1_545
Zn11 Zn22 2.688347 1_555
Zn11 Zn14 2.688347 1_555
Zn11 Zn30 2.887230 1_555
Zn11 Zn33 2.887230 1_555
Zn11 Zn24 2.887230 1_555
Zn11 Zn31 2.887230 1_555
Zn11 Zn13 3.100103 1_565
Zn11 Zn20 3.100103 1_565
Zn12 Zn5 2.657937 1_555
Zn12 Zn9 2.688347 1_555
Zn12 Zn8 3.100103 1_554
Zn13 Zn3 2.657937 1_655
Zn14 Zn2 2.657937 1_665
Zn15 Zn2 2.657937 1_665
Zn15 Zn4 2.657937 1_655
Zn15 Zn6 2.688347 1_555
Zn15 Zn7 3.100103 1_655
Zn16 Zn3 2.657937 1_565
Zn16 Zn4 2.657937 1_556
Zn16 Zn7 2.688347 1_555
Zn16 Zn6 3.100103 1_455
Zn17 Zn4 2.657937 1_556
Zn17 Zn8 2.688347 1_555
Zn17 Zn9 3.100103 1_556
Zn18 Zn5 2.657937 1_656
Zn18 Zn8 2.688347 1_555
Zn18 Zn9 3.100103 1_556
Zn19 Zn5 2.657937 1_555
Zn19 Zn2 2.657937 1_555
Zn19 Zn7 2.688347 1_555
Zn19 Zn6 3.100103 1_455
Zn21 Zn3 2.657937 1_655
Zn21 Zn5 2.657937 1_656
Zn21 Zn6 2.688347 1_555
Zn21 Zn7 3.100103 1_655
Zn22 Zn3 2.657937 1_565
Zn23 Zn4 2.657937 1_655
Zn23 Zn9 2.688347 1_555
Zn23 Zn8 3.100103 1_554
Zn24 Zn3 2.610477 1_665
Zn24 Zn6 2.887230 1_555
Zn25 Zn4 2.610477 1_555
Zn25 Zn9 2.887230 1_555
Zn25 Zn7 2.887230 1_555
Zn25 Zn5 3.021355 1_555
Zn26 Zn5 2.610477 1_556
Zn26 Zn7 2.887230 1_555
Zn26 Zn8 2.887230 1_555
Zn26 Zn4 3.021355 1_556
Zn27 Zn8 2.887230 1_555
Zn28 Zn9 2.887230 1_555
Zn29 Zn6 2.887230 1_555
Zn29 Zn3 3.021355 1_655
Zn30 Zn7 2.887230 1_555
Zn31 Zn8 2.887230 1_555
Zn32 Zn4 2.610477 1_656
Zn32 Zn8 2.887230 1_555
Zn32 Zn6 2.887230 1_555
Zn32 Zn5 3.021355 1_656
Zn33 Zn9 2.887230 1_555
Zn34 Zn5 2.610477 1_655
Zn34 Zn9 2.887230 1_555
Zn34 Zn6 2.887230 1_555
Zn34 Zn4 3.021355 1_655
Zn35 Zn7 2.887230 1_555
Ga0 Ni5 2.693278 1_545
Ga0 Ni6 2.693278 1_554
Ga0 Ni4 2.693278 1_444
Ga0 Ni7 2.693278 1_455
Ga0 Zn5 2.767892 1_555
Ga0 Zn0 2.767892 1_555
Ga0 Zn2 2.767892 1_555
Ga0 Zn4 2.767892 1_545
Ga0 Zn3 2.767892 1_554
Ga0 Zn1 2.767892 1_455
Ga1 Ni2 2.558358 1_555
Ga1 Ni3 2.558358 1_555
Ga1 Ni1 2.558358 1_555
Ga1 Zn11 2.620004 1_555
Ga1 Zn6 2.620004 1_555
Ga1 Zn8 2.620004 1_555
Ga1 Zn32 2.660595 1_555
Ga1 Zn24 2.660595 1_555
Ga1 Zn31 2.660595 1_555
Ga2 Ni2 2.558358 1_555
Ga2 Ni3 2.558358 1_555
Ga2 Ni0 2.558358 1_555
Ga2 Zn11 2.620004 1_555
Ga2 Zn7 2.620004 1_555
Ga2 Zn9 2.620004 1_555
Ga2 Zn33 2.660595 1_555
Ga2 Zn25 2.660595 1_555
Ga2 Zn30 2.660595 1_555
Ga3 Ni3 2.558358 1_555
Ga3 Ni0 2.558358 1_555
Ga3 Ni1 2.558358 1_555
Ga3 Zn10 2.620004 1_555
Ga3 Zn7 2.620004 1_555
Ga3 Zn8 2.620004 1_555
Ga3 Zn35 2.660595 1_555
Ga3 Zn26 2.660595 1_555
Ga3 Zn27 2.660595 1_555
Ga4 Ni2 2.558358 1_555
Ga4 Ni0 2.558358 1_555
Ga4 Ni1 2.558358 1_555
Ga4 Zn6 2.620004 1_555
Ga4 Zn10 2.620004 1_555
Ga4 Zn9 2.620004 1_555
Ga4 Zn29 2.660595 1_555
Ga4 Zn28 2.660595 1_555
Ga4 Zn34 2.660595 1_555
Ni0 Zn20 2.544370 1_555
Ni0 Zn12 2.544370 1_555
Ni0 Zn19 2.544370 1_555
Ni0 Zn25 2.663056 1_555
Ni0 Zn28 2.663056 1_555
Ni0 Zn35 2.663056 1_555
Ni0 Zn7 2.704656 1_555
Ni0 Zn9 2.704656 1_555
Ni0 Zn10 2.704656 1_555
Ni1 Zn13 2.544370 1_555
Ni1 Zn18 2.544370 1_555
Ni1 Zn21 2.544370 1_555
Ni1 Zn29 2.663056 1_555
Ni1 Zn27 2.663056 1_555
Ni1 Zn32 2.663056 1_555
Ni1 Zn6 2.704656 1_555
Ni1 Zn10 2.704656 1_555
Ni1 Zn8 2.704656 1_555
Ni2 Zn23 2.544370 1_555
Ni2 Zn14 2.544370 1_555
Ni2 Zn15 2.544370 1_555
Ni2 Zn34 2.663056 1_555
Ni2 Zn33 2.663056 1_555
Ni2 Zn24 2.663056 1_555
Ni2 Zn9 2.704656 1_555
Ni2 Zn6 2.704656 1_555
Ni2 Zn11 2.704656 1_555
Ni3 Zn17 2.544370 1_555
Ni3 Zn22 2.544370 1_555
Ni3 Zn16 2.544370 1_555
Ni3 Zn26 2.663056 1_555
Ni3 Zn30 2.663056 1_555
Ni3 Zn31 2.663056 1_555
Ni3 Zn7 2.704656 1_555
Ni3 Zn11 2.704656 1_555
Ni3 Zn8 2.704656 1_555
Ni4 Zn3 2.511379 1_665
Ni4 Zn1 2.511379 1_566
Ni4 Zn4 2.511379 1_656
Ni4 Zn16 2.526235 1_655
Ni4 Zn23 2.526235 1_556
Ni4 Zn13 2.526235 1_565
Ni4 Zn31 2.534007 1_555
Ni4 Zn32 2.534007 1_555
Ni4 Zn24 2.534007 1_555
Ni5 Zn0 2.511379 1_565
Ni5 Zn2 2.511379 1_565
Ni5 Zn4 2.511379 1_555
Ni5 Zn15 2.526235 1_455
Ni5 Zn17 2.526235 1_554
Ni5 Zn20 2.526235 1_565
Ni5 Zn25 2.534007 1_555
Ni5 Zn33 2.534007 1_555
Ni5 Zn30 2.534007 1_555
Ni6 Zn0 2.511379 1_556
Ni6 Zn5 2.511379 1_556
Ni6 Zn3 2.511379 1_555
Ni6 Zn22 2.526235 1_545
Ni6 Zn21 2.526235 1_455
Ni6 Zn12 2.526235 1_556
Ni6 Zn35 2.534007 1_555
Ni6 Zn26 2.534007 1_555
Ni6 Zn27 2.534007 1_555
Ni7 Zn5 2.511379 1_655
Ni7 Zn2 2.511379 1_655
Ni7 Zn1 2.511379 1_555
Ni7 Zn18 2.526235 1_554
Ni7 Zn14 2.526235 1_545
Ni7 Zn19 2.526235 1_655
Ni7 Zn28 2.534007 1_555
Ni7 Zn34 2.534007 1_555
Ni7 Zn29 2.534007 1_555
