# generated using pymatgen
data_LuHf2PdF15
_symmetry_space_group_name_H-M   'P 1'
_cell_length_a   7.87840006
_cell_length_b   7.87840083
_cell_length_c   7.89005187
_cell_angle_alpha   79.87112457
_cell_angle_beta   79.87112158
_cell_angle_gamma   99.93311626
_symmetry_Int_Tables_number   1
_chemical_formula_structural   LuHf2PdF15
_chemical_formula_sum   'Lu2 Hf4 Pd2 F30'
_cell_volume   464.00869497
_cell_formula_units_Z   2
loop_
 _symmetry_equiv_pos_site_id
 _symmetry_equiv_pos_as_xyz
  1  'x, y, z'
loop_
 _atom_site_type_symbol
 _atom_site_label
 _atom_site_symmetry_multiplicity
 _atom_site_fract_x
 _atom_site_fract_y
 _atom_site_fract_z
 _atom_site_occupancy
  Lu  Lu0  1  0.67734993  0.32265007  0.75000000  1
  Lu  Lu1  1  0.32265007  0.67734993  0.25000000  1
  Hf  Hf0  1  0.82209279  0.75151465  0.32637489  1
  Hf  Hf1  1  0.24848535  0.17790721  0.17362511  1
  Hf  Hf2  1  0.17790721  0.24848535  0.67362511  1
  Hf  Hf3  1  0.75151465  0.82209279  0.82637489  1
  Pd  Pd0  1  0.25009272  0.74990728  0.75000000  1
  Pd  Pd1  1  0.74990728  0.25009272  0.25000000  1
  F  F0  1  0.14942185  0.18492043  0.94599858  1
  F  F1  1  0.68706327  0.56136346  0.84789658  1
  F  F2  1  0.04270703  0.65619505  0.31421070  1
  F  F3  1  0.65619505  0.04270703  0.81421070  1
  F  F4  1  0.56136346  0.68706327  0.34789658  1
  F  F5  1  0.18492043  0.14942185  0.44599858  1
  F  F6  1  0.85057815  0.81507957  0.05400142  1
  F  F7  1  0.31293673  0.43863654  0.15210342  1
  F  F8  1  0.95729297  0.34380495  0.68578930  1
  F  F9  1  0.34380495  0.95729297  0.18578930  1
  F  F10  1  0.43863654  0.31293673  0.65210342  1
  F  F11  1  0.81507957  0.85057815  0.55400142  1
  F  F12  1  0.97161201  0.02838799  0.75000000  1
  F  F13  1  0.54070865  0.75285343  0.02757255  1
  F  F14  1  0.24714657  0.45929135  0.47242745  1
  F  F15  1  0.45929135  0.24714657  0.97242745  1
  F  F16  1  0.75285343  0.54070865  0.52757255  1
  F  F17  1  0.02838799  0.97161201  0.25000000  1
  F  F18  1  0.21171381  0.72725167  0.00013594  1
  F  F19  1  0.22651380  0.49737436  0.79041343  1
  F  F20  1  0.99639350  0.71102280  0.77591151  1
  F  F21  1  0.71102280  0.99639350  0.27591151  1
  F  F22  1  0.49737436  0.22651380  0.29041343  1
  F  F23  1  0.72725167  0.21171381  0.50013594  1
  F  F24  1  0.78828619  0.27274833  0.99986406  1
  F  F25  1  0.77348620  0.50262564  0.20958657  1
  F  F26  1  0.00360650  0.28897720  0.22408849  1
  F  F27  1  0.28897720  0.00360650  0.72408849  1
  F  F28  1  0.50262564  0.77348620  0.70958657  1
  F  F29  1  0.27274833  0.78828619  0.49986406  1
loop_
_geom_bond_atom_site_label_1
_geom_bond_atom_site_label_2
_geom_bond_distance
_geom_bond_site_symmetry_2
F0 Hf1 2.076228 1_556
F0 Hf2 2.081488 1_555
F1 Hf3 1.998316 1_555
F1 Lu0 2.149768 1_555
F2 Hf0 2.002771 1_455
F2 Lu1 2.144568 1_555
F3 Hf3 2.002771 1_545
F3 Lu0 2.144568 1_555
F4 Hf0 1.998315 1_555
F4 Lu1 2.149768 1_555
F5 Hf2 2.076228 1_555
F5 Hf1 2.081488 1_555
F6 Hf3 2.076228 1_554
F6 Hf0 2.081488 1_555
F7 Hf1 1.998316 1_555
F7 Lu1 2.149768 1_555
F8 Hf2 2.002771 1_655
F8 Lu0 2.144568 1_555
F9 Hf1 2.002771 1_565
F9 Lu1 2.144568 1_555
F10 Hf2 1.998315 1_555
F10 Lu0 2.149768 1_555
F11 Hf0 2.076228 1_555
F11 Hf3 2.081488 1_555
F12 Hf3 2.080184 1_545
F12 Hf2 2.080184 1_655
F13 Hf3 2.007847 1_554
F13 Lu1 2.145910 1_555
F14 Hf2 2.007847 1_555
F14 Lu1 2.145911 1_555
F15 Hf1 2.007847 1_556
F15 Lu0 2.145910 1_555
F16 Hf0 2.007847 1_555
F16 Lu0 2.145911 1_555
F17 Hf1 2.080184 1_565
F17 Hf0 2.080184 1_455
F18 Pd0 1.914658 1_554
F18 Lu1 2.292813 1_555
F19 Pd0 1.929518 1_555
F19 Hf2 2.311113 1_555
F20 Pd0 1.937427 1_655
F20 Hf3 2.254121 1_555
F21 Pd1 1.937427 1_565
F21 Hf0 2.254121 1_555
F22 Pd1 1.929518 1_555
F22 Hf1 2.311112 1_555
F23 Pd1 1.914658 1_555
F23 Lu0 2.292812 1_555
F24 Pd1 1.914658 1_556
F24 Lu0 2.292813 1_555
F25 Pd1 1.929518 1_555
F25 Hf0 2.311113 1_555
F26 Pd1 1.937427 1_455
F26 Hf1 2.254121 1_555
F27 Pd0 1.937427 1_545
F27 Hf2 2.254121 1_555
F28 Pd0 1.929518 1_555
F28 Hf3 2.311112 1_555
F29 Pd0 1.914658 1_555
F29 Lu1 2.292812 1_555
