# generated using pymatgen
data_Rb4Sr2TiBi4
_symmetry_space_group_name_H-M   'P 1'
_cell_length_a   11.36425236
_cell_length_b   11.36425213
_cell_length_c   8.40746189
_cell_angle_alpha   87.62303333
_cell_angle_beta   87.62304325
_cell_angle_gamma   119.15542839
_symmetry_Int_Tables_number   1
_chemical_formula_structural   Rb4Sr2TiBi4
_chemical_formula_sum   'Rb8 Sr4 Ti2 Bi8'
_cell_volume   945.03773912
_cell_formula_units_Z   2
loop_
 _symmetry_equiv_pos_site_id
 _symmetry_equiv_pos_as_xyz
  1  'x, y, z'
loop_
 _atom_site_type_symbol
 _atom_site_label
 _atom_site_symmetry_multiplicity
 _atom_site_fract_x
 _atom_site_fract_y
 _atom_site_fract_z
 _atom_site_occupancy
  Rb  Rb0  1  0.04639482  0.51946968  0.61660340  1
  Rb  Rb1  1  0.51946968  0.04639482  0.11660340  1
  Rb  Rb2  1  0.28440526  0.13637699  0.85368718  1
  Rb  Rb3  1  0.87632133  0.73674441  0.77105867  1
  Rb  Rb4  1  0.85559935  0.14777324  0.82141774  1
  Rb  Rb5  1  0.73674441  0.87632133  0.27105867  1
  Rb  Rb6  1  0.13637699  0.28440526  0.35368718  1
  Rb  Rb7  1  0.14777324  0.85559935  0.32141774  1
  Sr  Sr0  1  0.47105875  0.93476249  0.60921716  1
  Sr  Sr1  1  0.47760714  0.52170310  0.62600495  1
  Sr  Sr2  1  0.93476249  0.47105875  0.10921716  1
  Sr  Sr3  1  0.52170310  0.47760714  0.12600495  1
  Ti  Ti0  1  0.66164083  0.33480839  0.50984337  1
  Ti  Ti1  1  0.33480839  0.66164083  0.00984337  1
  Bi  Bi0  1  0.59583180  0.78741780  0.86833069  1
  Bi  Bi1  1  0.20307037  0.39714880  0.92781156  1
  Bi  Bi2  1  0.19648892  0.78731190  0.90304238  1
  Bi  Bi3  1  0.39714880  0.20307037  0.42781156  1
  Bi  Bi4  1  0.78741780  0.59583180  0.36833069  1
  Bi  Bi5  1  0.78731190  0.19648892  0.40304238  1
  Bi  Bi6  1  0.66848841  0.35913421  0.83861690  1
  Bi  Bi7  1  0.35913421  0.66848841  0.33861690  1
loop_
_geom_bond_atom_site_label_1
_geom_bond_atom_site_label_2
_geom_bond_distance
_geom_bond_site_symmetry_2
Rb0 Rb4 3.958799 1_455
Rb0 Ti0 3.983599 1_455
Rb0 Rb6 4.003963 1_555
Rb0 Rb3 4.028194 1_455
Rb0 Rb7 4.094667 1_555
Rb0 Sr2 4.214298 1_456
Rb0 Sr2 4.480277 1_455
Rb1 Rb7 3.958799 1_545
Rb1 Ti1 3.983599 1_545
Rb1 Rb2 4.003963 1_554
Rb1 Rb5 4.028194 1_545
Rb1 Rb4 4.094668 1_554
Rb1 Sr0 4.214298 1_545
Rb1 Sr0 4.480278 1_544
Rb2 Rb7 4.656349 1_546
Rb2 Rb4 4.955679 1_455
Rb3 Rb7 4.492317 1_655
Rb3 Rb4 4.825022 1_565
Rb4 Sr2 4.226009 1_556
Rb4 Sr0 4.340205 1_545
Rb4 Rb5 4.492317 1_546
Rb4 Rb6 4.656349 1_655
Rb5 Rb7 4.825022 1_655
Rb6 Rb7 4.955679 1_545
Rb7 Sr0 4.226009 1_555
Rb7 Sr2 4.340205 1_455
Bi0 Ti1 2.773571 1_556
Bi0 Sr0 3.439084 1_555
Bi0 Sr1 3.443617 1_555
Bi0 Rb3 3.573837 1_555
Bi0 Rb4 3.691999 1_565
Bi0 Sr3 3.758288 1_556
Bi0 Rb5 3.769174 1_556
Bi0 Rb1 4.076718 1_566
Bi1 Ti1 2.761264 1_556
Bi1 Rb2 3.577607 1_555
Bi1 Sr1 3.594220 1_555
Bi1 Rb6 3.672116 1_556
Bi1 Rb4 3.744819 1_455
Bi1 Sr3 3.758361 1_556
Bi1 Rb0 3.800626 1_555
Bi1 Sr2 3.813742 1_456
Bi2 Ti1 2.741319 1_556
Bi2 Sr0 3.545320 1_555
Bi2 Rb2 3.588006 1_565
Bi2 Rb3 3.626361 1_455
Bi2 Sr2 3.661694 1_456
Bi2 Rb7 3.710102 1_556
Bi2 Rb0 3.723420 1_555
Bi2 Rb1 3.977457 1_566
Bi3 Ti0 2.761264 1_555
Bi3 Rb6 3.577607 1_555
Bi3 Sr3 3.594220 1_555
Bi3 Rb2 3.672117 1_555
Bi3 Rb7 3.744819 1_545
Bi3 Sr1 3.758361 1_555
Bi3 Rb1 3.800627 1_555
Bi3 Sr0 3.813742 1_545
Bi4 Ti0 2.773571 1_555
Bi4 Sr2 3.439084 1_555
Bi4 Sr3 3.443617 1_555
Bi4 Rb5 3.573836 1_555
Bi4 Rb7 3.691999 1_655
Bi4 Sr1 3.758289 1_555
Bi4 Rb3 3.769174 1_555
Bi4 Rb0 4.076718 1_655
Bi5 Ti0 2.741319 1_555
Bi5 Sr2 3.545319 1_555
Bi5 Rb6 3.588006 1_655
Bi5 Rb5 3.626361 1_545
Bi5 Sr0 3.661694 1_545
Bi5 Rb4 3.710102 1_555
Bi5 Rb1 3.723420 1_555
Bi5 Rb0 3.977457 1_655
Bi6 Ti0 2.789852 1_555
Bi6 Sr3 3.543599 1_556
Bi6 Sr2 3.607118 1_556
Bi6 Rb1 3.752301 1_556
Bi6 Rb3 3.758584 1_555
Bi6 Rb2 3.825891 1_555
Bi6 Rb4 3.910450 1_555
Bi6 Rb0 4.083661 1_655
Bi7 Ti1 2.789852 1_555
Bi7 Sr1 3.543598 1_555
Bi7 Sr0 3.607118 1_555
Bi7 Rb0 3.752301 1_555
Bi7 Rb5 3.758584 1_555
Bi7 Rb6 3.825891 1_555
Bi7 Rb7 3.910450 1_555
Bi7 Rb1 4.083661 1_565
