# generated using pymatgen
data_NaY(BIr)4
_symmetry_space_group_name_H-M   'P 1'
_cell_length_a   7.06350804
_cell_length_b   6.10922144
_cell_length_c   5.45337942
_cell_angle_alpha   75.06834247
_cell_angle_beta   56.68825553
_cell_angle_gamma   48.24339732
_symmetry_Int_Tables_number   1
_chemical_formula_structural   NaY(BIr)4
_chemical_formula_sum   'Na1 Y1 B4 Ir4'
_cell_volume   144.48428774
_cell_formula_units_Z   1
loop_
 _symmetry_equiv_pos_site_id
 _symmetry_equiv_pos_as_xyz
  1  'x, y, z'
loop_
 _atom_site_type_symbol
 _atom_site_label
 _atom_site_symmetry_multiplicity
 _atom_site_fract_x
 _atom_site_fract_y
 _atom_site_fract_z
 _atom_site_occupancy
  Na  Na0  1  0.75000000  0.75000000  0.75000000  1
  Y  Y0  1  0.50000000  0.50000000  0.50000000  1
  B  B0  1  0.07005057  0.42994943  0.07005057  1
  B  B1  1  0.82265906  0.17734094  0.82265906  1
  B  B2  1  0.42994943  0.07005057  0.42994943  1
  B  B3  1  0.17734094  0.82265906  0.17734094  1
  Ir  Ir0  1  0.37870120  0.37870120  0.12129880  1
  Ir  Ir1  1  0.13046127  0.13046127  0.86953873  1
  Ir  Ir2  1  0.86953873  0.86953873  0.13046127  1
  Ir  Ir3  1  0.12129880  0.12129880  0.37870120  1
loop_
_geom_bond_atom_site_label_1
_geom_bond_atom_site_label_2
_geom_bond_distance
_geom_bond_site_symmetry_2
B0 Ir2 2.050355 1_455
B0 Ir1 2.050355 1_554
B0 Ir3 2.155045 1_555
B0 Ir0 2.155045 1_555
B0 Na0 2.944114 1_454
B0 Y0 3.121840 1_554
B0 Y0 3.121840 1_455
B1 Ir3 2.069826 1_655
B1 Ir0 2.069827 1_556
B1 Ir2 2.148904 1_546
B1 Ir1 2.148904 1_655
B1 Y0 2.968109 1_555
B1 Na0 3.126881 1_555
B1 Na0 3.126881 1_545
B2 Ir1 2.050355 1_555
B2 Ir2 2.050355 1_545
B2 Ir0 2.155045 1_555
B2 Ir3 2.155045 1_555
B2 Na0 2.944114 1_545
B2 Y0 3.121840 1_545
B2 Y0 3.121840 1_555
B3 Ir0 2.069826 1_555
B3 Ir3 2.069827 1_565
B3 Ir1 2.148904 1_564
B3 Ir2 2.148904 1_455
B3 Y0 2.968109 1_555
B3 Na0 3.126881 1_455
B3 Na0 3.126881 1_554
Ir0 Y0 3.020957 1_554
Ir0 Y0 3.020957 1_555
Ir0 Na0 3.238591 1_544
Ir0 Na0 3.238592 1_455
Ir1 Na0 3.012881 1_455
Ir1 Na0 3.012882 1_545
Ir1 Y0 3.246677 1_545
Ir1 Y0 3.246677 1_456
Ir2 Na0 3.012881 1_555
Ir2 Na0 3.012882 1_554
Ir2 Y0 3.246677 1_565
Ir2 Y0 3.246677 1_654
Ir3 Y0 3.020957 1_545
Ir3 Y0 3.020957 1_455
Ir3 Na0 3.238591 1_455
Ir3 Na0 3.238592 1_544
