# generated using pymatgen
data_Zn5Cd(AsO4)4
_symmetry_space_group_name_H-M   'P 1'
_cell_length_a   8.73436342
_cell_length_b   5.28977474
_cell_length_c   8.93062326
_cell_angle_alpha   60.02796686
_cell_angle_beta   90.21400649
_cell_angle_gamma   90.21794813
_symmetry_Int_Tables_number   1
_chemical_formula_structural   Zn5Cd(AsO4)4
_chemical_formula_sum   'Zn5 Cd1 As4 O16'
_cell_volume   357.43661730
_cell_formula_units_Z   1
loop_
 _symmetry_equiv_pos_site_id
 _symmetry_equiv_pos_as_xyz
  1  'x, y, z'
loop_
 _atom_site_type_symbol
 _atom_site_label
 _atom_site_symmetry_multiplicity
 _atom_site_fract_x
 _atom_site_fract_y
 _atom_site_fract_z
 _atom_site_occupancy
  Zn  Zn0  1  0.13582129  0.45306236  0.11691626  1
  Zn  Zn1  1  0.63249577  0.50690723  0.39063157  1
  Zn  Zn2  1  0.86417871  0.54693764  0.88308374  1
  Zn  Zn3  1  0.36750423  0.49309277  0.60936843  1
  Zn  Zn4  1  0.50000000  0.50000000  0.00000000  1
  Cd  Cd0  1  0.00000000  0.50000000  0.50000000  1
  As  As0  1  0.31291913  0.84752745  0.18555777  1
  As  As1  1  0.79397634  0.14899279  0.29885875  1
  As  As2  1  0.68708087  0.15247255  0.81444223  1
  As  As3  1  0.20602366  0.85100721  0.70114125  1
  O  O0  1  0.07693302  0.68959010  0.86540867  1
  O  O1  1  0.56903633  0.30450301  0.63925251  1
  O  O2  1  0.92306698  0.31040990  0.13459133  1
  O  O3  1  0.43096367  0.69549699  0.36074749  1
  O  O4  1  0.20940717  0.20861725  0.64175116  1
  O  O5  1  0.69828665  0.79125095  0.88129260  1
  O  O6  1  0.79059283  0.79138275  0.35824884  1
  O  O7  1  0.30171335  0.20874905  0.11870740  1
  O  O8  1  0.15623982  0.80935351  0.53148759  1
  O  O9  1  0.62774543  0.21055909  0.97368111  1
  O  O10  1  0.13937944  0.67055682  0.24289878  1
  O  O11  1  0.62168751  0.32729520  0.24101331  1
  O  O12  1  0.86062056  0.32944318  0.75710122  1
  O  O13  1  0.37831249  0.67270480  0.75898669  1
  O  O14  1  0.37225457  0.78944091  0.02631889  1
  O  O15  1  0.84376018  0.19064649  0.46851241  1
loop_
_geom_bond_atom_site_label_1
_geom_bond_atom_site_label_2
_geom_bond_distance
_geom_bond_site_symmetry_2
Cd0 O8 2.249248 1_555
Cd0 O15 2.249248 1_455
Cd0 O4 2.319111 1_555
Cd0 O6 2.319111 1_455
Cd0 O12 2.347491 1_455
Cd0 O10 2.347491 1_555
As0 O14 1.681870 1_555
As0 O7 1.696548 1_565
As0 O3 1.701389 1_555
As0 O10 1.718177 1_555
As1 O6 1.690515 1_545
As1 O15 1.691478 1_555
As1 O2 1.704693 1_555
As1 O11 1.714393 1_555
As2 O9 1.681870 1_555
As2 O5 1.696548 1_545
As2 O1 1.701389 1_555
As2 O12 1.718177 1_555
As3 O4 1.690515 1_565
As3 O8 1.691478 1_555
As3 O0 1.704693 1_555
As3 O13 1.714393 1_555
O0 Zn2 1.979906 1_455
O0 Zn0 2.015789 1_556
O1 Zn3 1.977058 1_555
O1 Zn1 2.003224 1_555
O2 Zn0 1.979906 1_655
O2 Zn2 2.015789 1_554
O3 Zn1 1.977058 1_555
O3 Zn3 2.003224 1_555
O4 Zn3 1.951222 1_555
O5 Zn2 1.939939 1_555
O5 Zn4 2.204199 1_556
O6 Zn1 1.951222 1_555
O7 Zn0 1.939939 1_555
O7 Zn4 2.204199 1_555
O8 Zn3 2.353466 1_555
O9 Zn4 2.004724 1_556
O10 Zn0 1.970600 1_555
O11 Zn1 1.990936 1_555
O11 Zn4 2.150047 1_555
O12 Zn2 1.970600 1_555
O13 Zn3 1.990936 1_555
O13 Zn4 2.150047 1_556
O14 Zn4 2.004724 1_555
O15 Zn1 2.353466 1_555
