# generated using pymatgen
data_Zr10CoSiSn6
_symmetry_space_group_name_H-M   'P 1'
_cell_length_a   8.66064114
_cell_length_b   8.66063984
_cell_length_c   5.86965316
_cell_angle_alpha   89.99989529
_cell_angle_beta   90.00003928
_cell_angle_gamma   120.00009623
_symmetry_Int_Tables_number   1
_chemical_formula_structural   Zr10CoSiSn6
_chemical_formula_sum   'Zr10 Co1 Si1 Sn6'
_cell_volume   381.27881215
_cell_formula_units_Z   1
loop_
 _symmetry_equiv_pos_site_id
 _symmetry_equiv_pos_as_xyz
  1  'x, y, z'
loop_
 _atom_site_type_symbol
 _atom_site_label
 _atom_site_symmetry_multiplicity
 _atom_site_fract_x
 _atom_site_fract_y
 _atom_site_fract_z
 _atom_site_occupancy
  Zr  Zr0  1  0.66666600  0.33333300  0.00000000  1
  Zr  Zr1  1  0.33333400  0.66666700  0.00000000  1
  Zr  Zr2  1  0.33333300  0.66666600  0.50000000  1
  Zr  Zr3  1  0.66666700  0.33333400  0.50000000  1
  Zr  Zr4  1  0.74562776  0.74562776  0.75429341  1
  Zr  Zr5  1  0.25437224  1.00000000  0.75429341  1
  Zr  Zr6  1  1.00000000  0.25437224  0.75429341  1
  Zr  Zr7  1  0.25437224  0.25437224  0.24570659  1
  Zr  Zr8  1  0.74562776  0.00000000  0.24570659  1
  Zr  Zr9  1  0.00000000  0.74562776  0.24570659  1
  Co  Co0  1  0.00000000  0.00000000  0.00000000  1
  Si  Si0  1  0.00000000  0.00000000  0.50000000  1
  Sn  Sn0  1  0.39253624  0.39253524  0.74884937  1
  Sn  Sn1  1  0.60746476  1.00000000  0.74885037  1
  Sn  Sn2  1  1.00000000  0.60746476  0.74885237  1
  Sn  Sn3  1  0.60746376  0.60746476  0.25115063  1
  Sn  Sn4  1  0.39253524  0.00000000  0.25114963  1
  Sn  Sn5  1  0.00000000  0.39253524  0.25114763  1
loop_
_geom_bond_atom_site_label_1
_geom_bond_atom_site_label_2
_geom_bond_distance
_geom_bond_site_symmetry_2
Co0 Zr6 2.633114 1_454
Co0 Zr9 2.633114 1_545
Co0 Zr7 2.633115 1_555
Co0 Zr4 2.633115 1_444
Co0 Zr5 2.633117 1_544
Co0 Zr8 2.633117 1_455
Si0 Zr7 2.661053 1_555
Si0 Zr4 2.661053 1_445
Si0 Zr5 2.661056 1_545
Si0 Zr8 2.661056 1_455
Si0 Zr6 2.661059 1_455
Si0 Zr9 2.661059 1_545
Sn0 Zr5 2.987010 1_545
Sn0 Zr6 2.987020 1_455
Sn0 Zr3 3.041426 1_555
Sn0 Zr2 3.041432 1_555
Sn0 Zr0 3.047931 1_556
Sn0 Zr1 3.047949 1_556
Sn0 Zr4 3.058166 1_555
Sn0 Zr7 3.152312 1_556
Sn0 Zr7 3.186478 1_555
Sn1 Zr6 2.987010 1_565
Sn1 Zr4 2.987014 1_555
Sn1 Zr3 3.041436 1_565
Sn1 Zr2 3.041438 1_555
Sn1 Zr1 3.047931 1_556
Sn1 Zr0 3.047941 1_566
Sn1 Zr5 3.058175 1_555
Sn1 Zr8 3.152306 1_566
Sn1 Zr8 3.186482 1_565
Sn2 Zr5 2.987009 1_655
Sn2 Zr4 2.987014 1_555
Sn2 Zr3 3.041436 1_555
Sn2 Zr2 3.041440 1_655
Sn2 Zr0 3.047934 1_556
Sn2 Zr1 3.047937 1_656
Sn2 Zr6 3.058174 1_555
Sn2 Zr9 3.152298 1_656
Sn2 Zr9 3.186490 1_655
Sn3 Zr8 2.987010 1_565
Sn3 Zr9 2.987020 1_655
Sn3 Zr2 3.041426 1_555
Sn3 Zr3 3.041432 1_555
Sn3 Zr1 3.047931 1_555
Sn3 Zr0 3.047949 1_555
Sn3 Zr7 3.058166 1_555
Sn3 Zr4 3.152312 1_554
Sn3 Zr4 3.186478 1_555
Sn4 Zr9 2.987010 1_545
Sn4 Zr7 2.987014 1_555
Sn4 Zr2 3.041436 1_545
Sn4 Zr3 3.041438 1_555
Sn4 Zr0 3.047931 1_555
Sn4 Zr1 3.047941 1_545
Sn4 Zr8 3.058175 1_555
Sn4 Zr5 3.152306 1_544
Sn4 Zr5 3.186482 1_545
Sn5 Zr8 2.987009 1_455
Sn5 Zr7 2.987014 1_555
Sn5 Zr2 3.041436 1_555
Sn5 Zr3 3.041440 1_455
Sn5 Zr1 3.047934 1_555
Sn5 Zr0 3.047937 1_455
Sn5 Zr9 3.058174 1_555
Sn5 Zr6 3.152298 1_454
Sn5 Zr6 3.186490 1_455
