# generated using pymatgen
data_Cu4AgBiO8
_symmetry_space_group_name_H-M   'P 1'
_cell_length_a   6.22705870
_cell_length_b   6.22705966
_cell_length_c   6.22705929
_cell_angle_alpha   124.87064044
_cell_angle_beta   124.87064351
_cell_angle_gamma   81.75240866
_symmetry_Int_Tables_number   1
_chemical_formula_structural   Cu4AgBiO8
_chemical_formula_sum   'Cu4 Ag1 Bi1 O8'
_cell_volume   156.38493919
_cell_formula_units_Z   1
loop_
 _symmetry_equiv_pos_site_id
 _symmetry_equiv_pos_as_xyz
  1  'x, y, z'
loop_
 _atom_site_type_symbol
 _atom_site_label
 _atom_site_symmetry_multiplicity
 _atom_site_fract_x
 _atom_site_fract_y
 _atom_site_fract_z
 _atom_site_occupancy
  Cu  Cu0  1  0.87552636  0.61832547  0.24367562  1
  Cu  Cu1  1  0.37464985  0.63185174  0.75632438  1
  Cu  Cu2  1  0.36814826  0.12447364  0.74279912  1
  Cu  Cu3  1  0.38167453  0.62535015  0.25720088  1
  Ag  Ag0  1  0.00000000  0.00000000  0.00000000  1
  Bi  Bi0  1  0.75000000  0.25000000  0.50000000  1
  O  O0  1  0.42233723  0.82677706  0.14593493  1
  O  O1  1  0.68084113  0.27640130  0.85406507  1
  O  O2  1  0.33768240  0.42642283  0.36946808  1
  O  O3  1  0.05695475  0.96821432  0.63053192  1
  O  O4  1  0.03178568  0.66231760  0.08874143  1
  O  O5  1  0.57357717  0.94304525  0.91125857  1
  O  O6  1  0.17322294  0.31915887  0.59556117  1
  O  O7  1  0.72359870  0.57766277  0.40443883  1
loop_
_geom_bond_atom_site_label_1
_geom_bond_atom_site_label_2
_geom_bond_distance
_geom_bond_site_symmetry_2
Cu0 O1 1.833014 1_554
Cu0 O7 1.844677 1_555
Cu0 O4 1.845203 1_655
Cu0 O3 1.849131 1_655
Cu1 O0 1.833011 1_556
Cu1 O6 1.844691 1_555
Cu1 O5 1.845206 1_555
Cu1 O2 1.849131 1_555
Cu2 O6 1.833011 1_555
Cu2 O1 1.844685 1_555
Cu2 O3 1.845202 1_545
Cu2 O5 1.849130 1_545
Cu3 O7 1.833016 1_555
Cu3 O0 1.844688 1_555
Cu3 O2 1.845208 1_555
Cu3 O4 1.849132 1_555
Ag0 O5 2.418747 1_444
Ag0 O2 2.418750 1_555
Ag0 O3 2.418750 1_544
Ag0 O4 2.418755 1_545
Ag0 O1 2.545586 1_454
Ag0 O0 2.545588 1_545
Ag0 O7 2.545591 1_444
Ag0 O6 2.545593 1_555
Bi0 O6 2.392583 1_655
Bi0 O0 2.392584 1_545
Bi0 O7 2.392590 1_555
Bi0 O1 2.392592 1_555
Bi0 O2 2.507043 1_555
Bi0 O3 2.507044 1_645
Bi0 O4 2.507046 1_656
Bi0 O5 2.507048 1_544
