# generated using pymatgen
data_TcPdF6
_symmetry_space_group_name_H-M   'P 1'
_cell_length_a   5.62293948
_cell_length_b   5.62294412
_cell_length_c   5.62292682
_cell_angle_alpha   54.48520170
_cell_angle_beta   54.48510754
_cell_angle_gamma   54.48518584
_symmetry_Int_Tables_number   1
_chemical_formula_structural   TcPdF6
_chemical_formula_sum   'Tc1 Pd1 F6'
_cell_volume   109.54777459
_cell_formula_units_Z   1
loop_
 _symmetry_equiv_pos_site_id
 _symmetry_equiv_pos_as_xyz
  1  'x, y, z'
loop_
 _atom_site_type_symbol
 _atom_site_label
 _atom_site_symmetry_multiplicity
 _atom_site_fract_x
 _atom_site_fract_y
 _atom_site_fract_z
 _atom_site_occupancy
  Tc  Tc0  1  0.50000000  0.50000000  0.50000000  1
  Pd  Pd0  1  0.00000000  0.00000000  0.00000000  1
  F  F0  1  0.11598773  0.73276382  0.41510759  1
  F  F1  1  0.41510659  0.11598973  0.73276782  1
  F  F2  1  0.26723518  0.58489341  0.88401127  1
  F  F3  1  0.58489341  0.88401027  0.26723218  1
  F  F4  1  0.88401227  0.26723618  0.58489241  1
  F  F5  1  0.73276482  0.41510659  0.11598873  1
loop_
_geom_bond_atom_site_label_1
_geom_bond_atom_site_label_2
_geom_bond_distance
_geom_bond_site_symmetry_2
F0 Tc0 1.947193 1_555
F0 Pd0 2.164835 1_565
F1 Tc0 1.947186 1_555
F1 Pd0 2.164841 1_556
F2 Tc0 1.947185 1_555
F2 Pd0 2.164838 1_566
F3 Tc0 1.947186 1_555
F3 Pd0 2.164841 1_665
F4 Tc0 1.947193 1_555
F4 Pd0 2.164835 1_656
F5 Tc0 1.947185 1_555
F5 Pd0 2.164838 1_655
