# generated using pymatgen
data_Ba4Ca4Si3Ge
_symmetry_space_group_name_H-M   'P 1'
_cell_length_a   5.08705904
_cell_length_b   8.60174930
_cell_length_c   9.16634617
_cell_angle_alpha   89.94775653
_cell_angle_beta   90.00000000
_cell_angle_gamma   90.00000000
_symmetry_Int_Tables_number   1
_chemical_formula_structural   Ba4Ca4Si3Ge
_chemical_formula_sum   'Ba4 Ca4 Si3 Ge1'
_cell_volume   401.09720265
_cell_formula_units_Z   1
loop_
 _symmetry_equiv_pos_site_id
 _symmetry_equiv_pos_as_xyz
  1  'x, y, z'
loop_
 _atom_site_type_symbol
 _atom_site_label
 _atom_site_symmetry_multiplicity
 _atom_site_fract_x
 _atom_site_fract_y
 _atom_site_fract_z
 _atom_site_occupancy
  Ba  Ba0  1  0.25000000  0.02819999  0.17682229  1
  Ba  Ba1  1  0.75000000  0.97233761  0.82331178  1
  Ba  Ba2  1  0.25000000  0.52763502  0.32402147  1
  Ba  Ba3  1  0.75000000  0.47199738  0.67611820  1
  Ca  Ca0  1  0.75000000  0.85884903  0.42569562  1
  Ca  Ca1  1  0.25000000  0.64116409  0.92498198  1
  Ca  Ca2  1  0.75000000  0.35828317  0.07447658  1
  Ca  Ca3  1  0.25000000  0.14124753  0.57456604  1
  Si  Si0  1  0.25000000  0.28235625  0.89180698  1
  Si  Si1  1  0.75000000  0.21752998  0.39222465  1
  Si  Si2  1  0.25000000  0.78252425  0.60786203  1
  Ge  Ge0  1  0.75000000  0.71787669  0.10811237  1
loop_
_geom_bond_atom_site_label_1
_geom_bond_atom_site_label_2
_geom_bond_distance
_geom_bond_site_symmetry_2
Ba0 Si0 3.405057 1_554
Ba0 Si1 3.609170 1_455
Ba0 Si1 3.609170 1_555
Ba0 Ge0 3.740931 1_545
Ba0 Ge0 3.740931 1_445
Ba1 Ge0 3.405231 1_556
Ba1 Si2 3.611288 1_655
Ba1 Si2 3.611288 1_555
Ba1 Si0 3.738729 1_565
Ba1 Si0 3.738729 1_665
Ba2 Si2 3.403923 1_555
Ba2 Ge0 3.613628 1_555
Ba2 Ge0 3.613628 1_455
Ba2 Si1 3.737996 1_555
Ba2 Si1 3.737996 1_455
Ba3 Si1 3.401956 1_555
Ba3 Si0 3.610188 1_655
Ba3 Si0 3.610188 1_555
Ba3 Si2 3.740666 1_555
Ba3 Si2 3.740666 1_655
Ca0 Si1 3.100222 1_565
Ca0 Si2 3.112363 1_655
Ca0 Si2 3.112363 1_555
Ca0 Ge0 3.154557 1_555
Ca1 Si0 3.101596 1_555
Ca1 Ge0 3.118461 1_456
Ca1 Ge0 3.118461 1_556
Ca1 Si2 3.149880 1_555
Ca2 Ge0 3.108741 1_555
Ca2 Si0 3.114762 1_554
Ca2 Si0 3.114762 1_654
Ca2 Si1 3.153188 1_555
Ca3 Si2 3.100428 1_545
Ca3 Si1 3.113147 1_555
Ca3 Si1 3.113147 1_455
Ca3 Si0 3.152114 1_555
