# generated using pymatgen
data_Hf5ZrCoCl15
_symmetry_space_group_name_H-M   'P 1'
_cell_length_a   8.80030153
_cell_length_b   8.80030170
_cell_length_c   8.80030100
_cell_angle_alpha   109.59427147
_cell_angle_beta   109.22540048
_cell_angle_gamma   109.59426947
_symmetry_Int_Tables_number   1
_chemical_formula_structural   Hf5ZrCoCl15
_chemical_formula_sum   'Hf5 Zr1 Co1 Cl15'
_cell_volume   524.64405505
_cell_formula_units_Z   1
loop_
 _symmetry_equiv_pos_site_id
 _symmetry_equiv_pos_as_xyz
  1  'x, y, z'
loop_
 _atom_site_type_symbol
 _atom_site_label
 _atom_site_symmetry_multiplicity
 _atom_site_fract_x
 _atom_site_fract_y
 _atom_site_fract_z
 _atom_site_occupancy
  Hf  Hf0  1  0.23784882  0.23772617  0.00012265  1
  Hf  Hf1  1  0.76239748  0.76227383  0.00012265  1
  Hf  Hf2  1  0.76465539  0.00000000  0.76465539  1
  Hf  Hf3  1  0.00012265  0.76227383  0.76239748  1
  Hf  Hf4  1  0.00012265  0.23772617  0.23784882  1
  Zr  Zr0  1  0.23801812  1.00000000  0.23801812  1
  Co  Co0  1  0.00263873  0.00000000  0.00263873  1
  Cl  Cl0  1  0.75071084  0.50372099  0.75071084  1
  Cl  Cl1  1  0.49861463  0.50000000  0.99861463  1
  Cl  Cl2  1  0.99861463  0.50000000  0.49861463  1
  Cl  Cl3  1  0.50751812  0.00000000  0.50751812  1
  Cl  Cl4  1  0.24698985  0.00000000  0.75071084  1
  Cl  Cl5  1  0.00104872  0.24775381  0.75329491  1
  Cl  Cl6  1  0.75071084  1.00000000  0.24698985  1
  Cl  Cl7  1  0.50554210  0.75224619  0.75329491  1
  Cl  Cl8  1  0.99355117  0.74833473  0.24521644  1
  Cl  Cl9  1  0.24521644  0.25166527  0.49688071  1
  Cl  Cl10  1  0.75329491  0.24775381  0.00104872  1
  Cl  Cl11  1  0.49688071  0.25166527  0.24521644  1
  Cl  Cl12  1  0.24698985  0.49627901  0.24698985  1
  Cl  Cl13  1  0.75329491  0.75224619  0.50554210  1
  Cl  Cl14  1  0.24521644  0.74833473  0.99355117  1
loop_
_geom_bond_atom_site_label_1
_geom_bond_atom_site_label_2
_geom_bond_distance
_geom_bond_site_symmetry_2
Co0 Zr0 2.399109 1_545
Co0 Hf3 2.412166 1_544
Co0 Hf1 2.412166 1_445
Co0 Hf4 2.412171 1_555
Co0 Hf0 2.412172 1_555
Co0 Hf2 2.425649 1_454
Cl0 Hf1 2.519936 1_556
Cl0 Hf3 2.519936 1_655
Cl1 Hf0 2.661147 1_556
Cl1 Hf1 2.661152 1_556
Cl2 Hf4 2.661147 1_655
Cl2 Hf3 2.661152 1_655
Cl3 Hf2 2.620876 1_555
Cl3 Zr0 2.746883 1_545
Cl4 Hf0 2.519941 1_556
Cl4 Hf3 2.519946 1_545
Cl5 Hf2 2.516444 1_455
Cl5 Hf0 2.517853 1_556
Cl6 Hf4 2.519941 1_665
Cl6 Hf1 2.519946 1_555
Cl7 Hf2 2.516439 1_565
Cl7 Hf1 2.517853 1_556
Cl8 Hf1 2.502118 1_555
Cl8 Zr0 2.554519 1_655
Cl9 Hf4 2.502118 1_555
Cl9 Zr0 2.554514 1_545
Cl10 Hf2 2.516444 1_554
Cl10 Hf4 2.517853 1_655
Cl11 Hf0 2.502118 1_555
Cl11 Zr0 2.554514 1_545
Cl12 Hf0 2.519941 1_555
Cl12 Hf4 2.519941 1_555
Cl13 Hf2 2.516438 1_565
Cl13 Hf3 2.517853 1_655
Cl14 Hf3 2.502118 1_555
Cl14 Zr0 2.554519 1_556
