# generated using pymatgen
data_Zn3Mo3C
_symmetry_space_group_name_H-M   'P 1'
_cell_length_a   8.00552471
_cell_length_b   8.00552481
_cell_length_c   8.00552562
_cell_angle_alpha   60.00000472
_cell_angle_beta   60.00000430
_cell_angle_gamma   60.00000328
_symmetry_Int_Tables_number   1
_chemical_formula_structural   Zn3Mo3C
_chemical_formula_sum   'Zn12 Mo12 C4'
_cell_volume   362.78932865
_cell_formula_units_Z   4
loop_
 _symmetry_equiv_pos_site_id
 _symmetry_equiv_pos_as_xyz
  1  'x, y, z'
loop_
 _atom_site_type_symbol
 _atom_site_label
 _atom_site_symmetry_multiplicity
 _atom_site_fract_x
 _atom_site_fract_y
 _atom_site_fract_z
 _atom_site_occupancy
  Zn  Zn0  1  0.83449333  0.83449333  0.49652001  1
  Zn  Zn1  1  0.83449333  0.49652001  0.83449333  1
  Zn  Zn2  1  0.49652001  0.83449333  0.83449333  1
  Zn  Zn3  1  0.83449333  0.83449333  0.83449333  1
  Zn  Zn4  1  0.41550667  0.41550667  0.75347999  1
  Zn  Zn5  1  0.41550667  0.75347999  0.41550667  1
  Zn  Zn6  1  0.75347999  0.41550667  0.41550667  1
  Zn  Zn7  1  0.41550667  0.41550667  0.41550667  1
  Zn  Zn8  1  0.62500000  0.62500000  0.12500000  1
  Zn  Zn9  1  0.62500000  0.12500000  0.62500000  1
  Zn  Zn10  1  0.12500000  0.62500000  0.62500000  1
  Zn  Zn11  1  0.62500000  0.62500000  0.62500000  1
  Mo  Mo0  1  0.43866574  0.43866574  0.06133426  1
  Mo  Mo1  1  0.06133426  0.43866574  0.06133426  1
  Mo  Mo2  1  0.43866574  0.06133426  0.06133426  1
  Mo  Mo3  1  0.06133426  0.06133426  0.43866574  1
  Mo  Mo4  1  0.43866574  0.06133426  0.43866574  1
  Mo  Mo5  1  0.06133426  0.43866574  0.43866574  1
  Mo  Mo6  1  0.81133426  0.81133426  0.18866574  1
  Mo  Mo7  1  0.18866574  0.81133426  0.18866574  1
  Mo  Mo8  1  0.81133426  0.18866574  0.18866574  1
  Mo  Mo9  1  0.18866574  0.18866574  0.81133426  1
  Mo  Mo10  1  0.81133426  0.18866574  0.81133426  1
  Mo  Mo11  1  0.18866574  0.81133426  0.81133426  1
  C  C0  1  0.12500000  0.12500000  0.62500000  1
  C  C1  1  0.12500000  0.62500000  0.12500000  1
  C  C2  1  0.62500000  0.12500000  0.12500000  1
  C  C3  1  0.12500000  0.12500000  0.12500000  1
loop_
_geom_bond_atom_site_label_1
_geom_bond_atom_site_label_2
_geom_bond_distance
_geom_bond_site_symmetry_2
Zn0 Zn11 2.458857 1_555
Zn0 Zn10 2.458857 1_655
Zn0 Zn9 2.458857 1_565
Zn0 Zn3 2.705654 1_555
Zn0 Zn2 2.705654 1_555
Zn0 Zn1 2.705654 1_555
Zn1 Zn10 2.458857 1_655
Zn1 Zn11 2.458857 1_555
Zn1 Zn8 2.458857 1_556
Zn1 Zn3 2.705654 1_555
Zn1 Zn2 2.705654 1_555
Zn2 Zn9 2.458857 1_565
Zn2 Zn8 2.458857 1_556
Zn2 Zn3 2.705654 1_555
Zn3 Zn9 2.458857 1_565
Zn3 Zn8 2.458857 1_556
Zn4 Zn9 2.458857 1_555
Zn4 Zn7 2.705654 1_555
Zn4 Zn6 2.705654 1_555
Zn4 Zn5 2.705654 1_555
Zn5 Zn8 2.458857 1_555
Zn5 Zn7 2.705654 1_555
Zn5 Zn6 2.705654 1_555
Zn6 Zn9 2.458857 1_555
Zn6 Zn8 2.458857 1_555
Zn6 Zn7 2.705654 1_555
Zn7 Zn9 2.458857 1_555
Zn7 Zn8 2.458857 1_555
Zn10 Zn5 2.458857 1_555
Zn10 Zn4 2.458857 1_555
Zn10 Zn3 2.458857 1_455
Zn10 Zn7 2.458857 1_555
Zn11 Zn4 2.458857 1_555
Zn11 Zn5 2.458857 1_555
Zn11 Zn2 2.458857 1_555
Zn11 Zn6 2.458857 1_555
Mo0 Zn4 2.662876 1_554
Mo0 Zn7 2.662876 1_555
Mo0 Zn1 2.902708 1_554
Mo0 Zn2 2.902708 1_554
Mo0 Zn8 2.907901 1_555
Mo0 Zn11 2.907901 1_554
Mo1 Zn4 2.662876 1_554
Mo1 Zn6 2.662876 1_455
Mo1 Zn1 2.902708 1_454
Mo1 Zn3 2.902708 1_454
Mo1 Zn8 2.907901 1_455
Mo1 Zn10 2.907901 1_554
Mo2 Zn4 2.662876 1_554
Mo2 Zn5 2.662876 1_545
Mo2 Zn2 2.902708 1_544
Mo2 Zn3 2.902708 1_544
Mo2 Zn8 2.907901 1_545
Mo2 Zn9 2.907901 1_554
Mo3 Zn5 2.662875 1_545
Mo3 Zn6 2.662875 1_455
Mo3 Zn0 2.902708 1_445
Mo3 Zn3 2.902708 1_445
Mo3 Zn9 2.907901 1_455
Mo3 Zn10 2.907901 1_545
Mo4 Zn5 2.662875 1_545
Mo4 Zn7 2.662875 1_555
Mo4 Zn0 2.902708 1_545
Mo4 Zn2 2.902708 1_545
Mo4 Zn9 2.907901 1_555
Mo4 Zn11 2.907901 1_545
Mo5 Zn6 2.662875 1_455
Mo5 Zn7 2.662875 1_555
Mo5 Zn0 2.902708 1_455
Mo5 Zn1 2.902708 1_455
Mo5 Zn10 2.907901 1_555
Mo5 Zn11 2.907901 1_455
Mo6 Zn0 2.662876 1_555
Mo6 Zn3 2.662876 1_554
Mo6 Zn5 2.902708 1_555
Mo6 Zn6 2.902708 1_555
Mo6 Zn8 2.907901 1_555
Mo6 Zn11 2.907901 1_555
Mo7 Zn0 2.662876 1_455
Mo7 Zn2 2.662876 1_554
Mo7 Zn5 2.902708 1_555
Mo7 Zn7 2.902708 1_555
Mo7 Zn8 2.907901 1_555
Mo7 Zn10 2.907901 1_555
Mo8 Zn0 2.662876 1_545
Mo8 Zn1 2.662876 1_554
Mo8 Zn6 2.902708 1_555
Mo8 Zn7 2.902708 1_555
Mo8 Zn8 2.907901 1_555
Mo8 Zn9 2.907901 1_555
Mo9 Zn1 2.662875 1_455
Mo9 Zn2 2.662875 1_545
Mo9 Zn4 2.902708 1_555
Mo9 Zn7 2.902708 1_555
Mo9 Zn9 2.907901 1_555
Mo9 Zn10 2.907901 1_555
Mo10 Zn1 2.662875 1_555
Mo10 Zn3 2.662875 1_545
Mo10 Zn4 2.902708 1_555
Mo10 Zn6 2.902708 1_555
Mo10 Zn9 2.907901 1_555
Mo10 Zn11 2.907901 1_555
Mo11 Zn2 2.662875 1_555
Mo11 Zn3 2.662875 1_455
Mo11 Zn4 2.902708 1_555
Mo11 Zn5 2.902708 1_555
Mo11 Zn10 2.907901 1_555
Mo11 Zn11 2.907901 1_555
C0 Mo9 2.127221 1_555
C0 Mo3 2.127221 1_555
C0 Mo10 2.127221 1_455
C0 Mo4 2.127221 1_555
C0 Mo5 2.127221 1_555
C0 Mo11 2.127221 1_545
C1 Mo7 2.127221 1_555
C1 Mo1 2.127221 1_555
C1 Mo0 2.127221 1_555
C1 Mo6 2.127221 1_455
C1 Mo5 2.127221 1_555
C1 Mo11 2.127221 1_554
C2 Mo8 2.127221 1_555
C2 Mo2 2.127221 1_555
C2 Mo0 2.127221 1_555
C2 Mo6 2.127221 1_545
C2 Mo4 2.127221 1_555
C2 Mo10 2.127221 1_554
C3 Mo2 2.127221 1_555
C3 Mo8 2.127221 1_455
C3 Mo1 2.127221 1_555
C3 Mo7 2.127221 1_545
C3 Mo3 2.127221 1_555
C3 Mo9 2.127221 1_554
