# generated using pymatgen
data_SrNb8O14
_symmetry_space_group_name_H-M   'P 1'
_cell_length_a   6.00097881
_cell_length_b   9.30435489
_cell_length_c   10.36800415
_cell_angle_alpha   90.00006455
_cell_angle_beta   89.99999728
_cell_angle_gamma   89.99999418
_symmetry_Int_Tables_number   1
_chemical_formula_structural   SrNb8O14
_chemical_formula_sum   'Sr2 Nb16 O28'
_cell_volume   578.89996412
_cell_formula_units_Z   2
loop_
 _symmetry_equiv_pos_site_id
 _symmetry_equiv_pos_as_xyz
  1  'x, y, z'
loop_
 _atom_site_type_symbol
 _atom_site_label
 _atom_site_symmetry_multiplicity
 _atom_site_fract_x
 _atom_site_fract_y
 _atom_site_fract_z
 _atom_site_occupancy
  Sr  Sr0  1  0.49999956  0.49999751  -0.00000595  1
  Sr  Sr1  1  0.49999965  -0.00000084  0.50000601  1
  Nb  Nb0  1  -0.00000063  0.38364245  0.16328678  1
  Nb  Nb1  1  -0.00000078  0.61635748  0.83671104  1
  Nb  Nb2  1  -0.00000068  0.88363960  0.33671143  1
  Nb  Nb3  1  -0.00000083  0.11635649  0.66328917  1
  Nb  Nb4  1  0.49999983  0.38012320  0.66446412  1
  Nb  Nb5  1  0.49999978  0.61987429  0.33553223  1
  Nb  Nb6  1  0.49999980  0.88011902  0.83553310  1
  Nb  Nb7  1  0.49999974  0.11987685  0.16447186  1
  Nb  Nb8  1  0.73103333  0.62560215  0.57664376  1
  Nb  Nb9  1  0.73102923  0.37440285  0.42334642  1
  Nb  Nb10  1  0.26896878  0.12560250  0.92335672  1
  Nb  Nb11  1  0.26897361  0.87440083  0.07665343  1
  Nb  Nb12  1  0.26897105  0.37440278  0.42334671  1
  Nb  Nb13  1  0.26896722  0.62560226  0.57664424  1
  Nb  Nb14  1  0.73102684  0.87440060  0.07665309  1
  Nb  Nb15  1  0.73103162  0.12560234  0.92335721  1
  O  O0  1  0.74625608  0.50518296  0.75357218  1
  O  O1  1  0.74625356  0.49481974  0.24642621  1
  O  O2  1  0.25374252  0.00518224  0.74643013  1
  O  O3  1  0.25374503  0.99481873  0.25357118  1
  O  O4  1  0.25374696  0.49481947  0.24642630  1
  O  O5  1  0.25374431  0.50518324  0.75357211  1
  O  O6  1  0.74625539  0.99481896  0.25357115  1
  O  O7  1  0.74625802  0.00518200  0.74643012  1
  O  O8  1  0.25432100  0.73851081  0.91372907  1
  O  O9  1  0.25431961  0.26148831  0.08626731  1
  O  O10  1  0.74568161  0.23851257  0.58627204  1
  O  O11  1  0.74568043  0.76148722  0.41373136  1
  O  O12  1  0.74568097  0.26148837  0.08626740  1
  O  O13  1  0.74567949  0.73851059  0.91372917  1
  O  O14  1  0.25432009  0.76148727  0.41373136  1
  O  O15  1  0.25431885  0.23851255  0.58627207  1
  O  O16  1  0.00000010  0.49999650  -0.00000215  1
  O  O17  1  0.00000010  0.99999540  0.50000221  1
  O  O18  1  0.00000012  0.23467636  0.82027938  1
  O  O19  1  0.00000018  0.76531904  0.17972023  1
  O  O20  1  0.00000001  0.73467783  0.67972234  1
  O  O21  1  0.00000012  0.26532264  0.32027790  1
  O  O22  1  0.50000015  0.23535690  0.34865923  1
  O  O23  1  0.50000034  0.76464507  0.65134104  1
  O  O24  1  0.50000029  0.73535568  0.15133845  1
  O  O25  1  0.50000034  0.26464303  0.84865961  1
  O  O26  1  0.00000017  0.99999930  -0.00000222  1
  O  O27  1  0.00000002  0.50000082  0.50000143  1
loop_
_geom_bond_atom_site_label_1
_geom_bond_atom_site_label_2
_geom_bond_distance
_geom_bond_site_symmetry_2
Nb0 O21 1.965024 1_555
Nb0 O16 2.009529 1_555
Nb0 O1 2.032674 1_455
Nb0 O4 2.032681 1_555
Nb0 O12 2.063638 1_455
Nb0 O9 2.063647 1_555
Nb1 O20 1.965006 1_555
Nb1 O16 2.009545 1_556
Nb1 O0 2.032646 1_455
Nb1 O5 2.032654 1_555
Nb1 O13 2.063634 1_455
Nb1 O8 2.063644 1_555
Nb2 O19 1.965026 1_555
Nb2 O17 2.009552 1_555
Nb2 O6 2.032680 1_455
Nb2 O3 2.032687 1_555
Nb2 O11 2.063635 1_455
Nb2 O14 2.063643 1_555
Nb3 O18 1.965014 1_555
Nb3 O17 2.009545 1_545
Nb3 O7 2.032647 1_455
Nb3 O2 2.032656 1_555
Nb3 O10 2.063636 1_455
Nb3 O15 2.063646 1_555
Nb4 O5 2.095549 1_555
Nb4 O0 2.095551 1_555
Nb4 O15 2.137036 1_555
Nb4 O10 2.137039 1_555
Nb4 O25 2.191254 1_555
Nb5 O4 2.095501 1_555
Nb5 O1 2.095504 1_555
Nb5 O14 2.137071 1_555
Nb5 O11 2.137075 1_555
Nb5 O24 2.191244 1_555
Nb6 O2 2.095551 1_565
Nb6 O7 2.095554 1_565
Nb6 O8 2.137029 1_555
Nb6 O13 2.137034 1_555
Nb6 O23 2.191192 1_555
Nb7 O3 2.095497 1_545
Nb7 O6 2.095500 1_545
Nb7 O9 2.137087 1_555
Nb7 O12 2.137092 1_555
Nb7 O22 2.191178 1_555
Nb8 O23 2.048324 1_555
Nb8 O11 2.111687 1_555
Nb8 O27 2.145309 1_655
Nb8 O0 2.151442 1_555
Nb8 O20 2.185712 1_655
Nb9 O22 2.048287 1_555
Nb9 O10 2.111827 1_555
Nb9 O27 2.145359 1_655
Nb9 O1 2.151358 1_555
Nb9 O21 2.185699 1_655
Nb10 O25 2.048305 1_555
Nb10 O9 2.111674 1_556
Nb10 O26 2.145323 1_546
Nb10 O2 2.151429 1_555
Nb10 O18 2.185708 1_555
Nb11 O24 2.048265 1_555
Nb11 O8 2.111813 1_554
Nb11 O26 2.145377 1_555
Nb11 O3 2.151340 1_555
Nb11 O19 2.185710 1_555
Nb12 O22 2.048287 1_555
Nb12 O15 2.111825 1_555
Nb12 O27 2.145359 1_555
Nb12 O4 2.151359 1_555
Nb12 O21 2.185701 1_555
Nb13 O23 2.048322 1_555
Nb13 O14 2.111691 1_555
Nb13 O27 2.145314 1_555
Nb13 O5 2.151436 1_555
Nb13 O20 2.185712 1_555
Nb14 O24 2.048264 1_555
Nb14 O13 2.111809 1_554
Nb14 O26 2.145376 1_655
Nb14 O6 2.151345 1_555
Nb14 O19 2.185710 1_655
Nb15 O25 2.048306 1_555
Nb15 O12 2.111672 1_556
Nb15 O26 2.145320 1_646
Nb15 O7 2.151434 1_555
Nb15 O18 2.185710 1_655
O0 Sr0 2.951896 1_556
O1 Sr0 2.951980 1_555
O2 Sr1 2.951918 1_555
O3 Sr1 2.952006 1_565
O4 Sr0 2.951976 1_555
O5 Sr0 2.951893 1_556
O6 Sr1 2.952010 1_565
O7 Sr1 2.951921 1_555
O8 Sr0 2.810418 1_556
O9 Sr0 2.810419 1_555
O10 Sr1 2.810431 1_555
O11 Sr1 2.810445 1_565
O12 Sr0 2.810424 1_555
O13 Sr0 2.810420 1_556
O14 Sr1 2.810441 1_565
O15 Sr1 2.810427 1_555
O16 Sr0 3.000486 1_555
O16 Sr0 3.000493 1_455
O17 Sr1 3.000487 1_565
O17 Sr1 3.000492 1_465
O22 Sr1 2.694018 1_555
O23 Sr1 2.693920 1_565
O24 Sr0 2.694004 1_555
O25 Sr0 2.693916 1_556
