# generated using pymatgen
data_Lu2AlCu2Ru
_symmetry_space_group_name_H-M   'P 1'
_cell_length_a   5.38699481
_cell_length_b   5.05239142
_cell_length_c   5.05475158
_cell_angle_alpha   117.60310606
_cell_angle_beta   121.02700719
_cell_angle_gamma   89.32780298
_symmetry_Int_Tables_number   1
_chemical_formula_structural   Lu2AlCu2Ru
_chemical_formula_sum   'Lu2 Al1 Cu2 Ru1'
_cell_volume   99.69272877
_cell_formula_units_Z   1
loop_
 _symmetry_equiv_pos_site_id
 _symmetry_equiv_pos_as_xyz
  1  'x, y, z'
loop_
 _atom_site_type_symbol
 _atom_site_label
 _atom_site_symmetry_multiplicity
 _atom_site_fract_x
 _atom_site_fract_y
 _atom_site_fract_z
 _atom_site_occupancy
  Lu  Lu0  1  0.11949950  0.87028943  0.24931343  1
  Lu  Lu1  1  0.88050050  0.12971057  0.75068657  1
  Al  Al0  1  0.50000000  0.50000000  0.00000000  1
  Cu  Cu0  1  0.50000000  0.00000000  0.00000000  1
  Cu  Cu1  1  0.50000000  0.50000000  0.50000000  1
  Ru  Ru0  1  0.00000000  0.50000000  0.50000000  1
loop_
_geom_bond_atom_site_label_1
_geom_bond_atom_site_label_2
_geom_bond_distance
_geom_bond_site_symmetry_2
Lu0 Ru0 2.930222 1_555
Lu0 Ru0 3.033021 1_565
Lu0 Ru0 3.034557 1_554
Lu0 Lu1 3.066698 1_464
Lu0 Lu1 3.168432 1_454
Lu0 Lu1 3.169256 1_465
Lu0 Lu1 3.359198 1_565
Lu1 Ru0 2.930222 1_655
Lu1 Ru0 3.033021 1_645
Lu1 Ru0 3.034557 1_656
Al0 Cu0 2.526196 1_565
Al0 Cu0 2.526196 1_555
Al0 Cu1 2.527376 1_554
Al0 Cu1 2.527376 1_555
Al0 Ru0 2.573875 1_655
Al0 Ru0 2.573875 1_554
Al0 Lu1 3.109618 1_565
Al0 Lu0 3.109618 1_544
Al0 Lu1 3.110919 1_554
Al0 Lu0 3.110919 1_555
Al0 Lu0 3.138713 1_655
Al0 Lu1 3.138713 1_454
Cu0 Cu1 2.617770 1_555
Cu0 Cu1 2.617770 1_544
Cu0 Ru0 2.692504 1_544
Cu0 Ru0 2.692504 1_655
Cu0 Lu1 2.956091 1_555
Cu0 Lu0 2.956091 1_544
Cu0 Lu0 3.087602 1_645
Cu0 Lu1 3.087602 1_454
Cu0 Lu1 3.111091 1_554
Cu0 Lu0 3.111091 1_545
Cu1 Ru0 2.693497 1_655
Cu1 Ru0 2.693497 1_555
Cu1 Lu1 2.955767 1_555
Cu1 Lu0 2.955767 1_555
Cu1 Lu0 3.087490 1_656
Cu1 Lu1 3.087490 1_454
Cu1 Lu1 3.109482 1_565
Cu1 Lu0 3.109482 1_545
