# generated using pymatgen
data_K2MnNiF6
_symmetry_space_group_name_H-M   'P 1'
_cell_length_a   5.78691186
_cell_length_b   5.78691175
_cell_length_c   5.78691083
_cell_angle_alpha   119.99999473
_cell_angle_beta   119.99999409
_cell_angle_gamma   59.99998770
_symmetry_Int_Tables_number   1
_chemical_formula_structural   K2MnNiF6
_chemical_formula_sum   'K2 Mn1 Ni1 F6'
_cell_volume   137.03311070
_cell_formula_units_Z   1
loop_
 _symmetry_equiv_pos_site_id
 _symmetry_equiv_pos_as_xyz
  1  'x, y, z'
loop_
 _atom_site_type_symbol
 _atom_site_label
 _atom_site_symmetry_multiplicity
 _atom_site_fract_x
 _atom_site_fract_y
 _atom_site_fract_z
 _atom_site_occupancy
  K  K0  1  0.75000000  0.75000000  0.25000100  1
  K  K1  1  0.24999900  0.24999900  0.74999900  1
  Mn  Mn0  1  0.00000000  0.00000000  0.00000000  1
  Ni  Ni0  1  0.50000000  0.50000000  0.50000000  1
  F  F0  1  0.25592326  0.25592326  0.25592426  1
  F  F1  1  0.74407574  0.25592526  0.25592526  1
  F  F2  1  0.25592526  0.74407574  0.25592526  1
  F  F3  1  0.74407574  0.74407574  0.74407574  1
  F  F4  1  0.74407574  0.25592326  0.74407574  1
  F  F5  1  0.25592326  0.74407574  0.74407574  1
loop_
_geom_bond_atom_site_label_1
_geom_bond_atom_site_label_2
_geom_bond_distance
_geom_bond_site_symmetry_2
F0 Ni0 1.997507 1_555
F0 Mn0 2.094458 1_555
F0 K1 2.893856 1_555
F0 K0 2.893861 1_545
F0 K0 2.893861 1_455
F0 K1 2.893867 1_554
F1 Ni0 1.997494 1_555
F1 Mn0 2.094470 1_655
F1 K1 2.893853 1_655
F1 K0 2.893856 1_555
F1 K0 2.893868 1_545
F1 K1 2.893871 1_554
F2 Ni0 1.997494 1_555
F2 Mn0 2.094470 1_565
F2 K1 2.893853 1_565
F2 K0 2.893856 1_555
F2 K0 2.893868 1_455
F2 K1 2.893871 1_554
F3 Ni0 1.997499 1_555
F3 Mn0 2.094466 1_666
F3 K0 2.893856 1_555
F3 K1 2.893861 1_565
F3 K1 2.893861 1_655
F3 K0 2.893867 1_556
F4 Ni0 1.997502 1_555
F4 Mn0 2.094462 1_656
F4 K0 2.893856 1_545
F4 K1 2.893859 1_655
F4 K1 2.893865 1_555
F4 K0 2.893868 1_556
F5 Ni0 1.997502 1_555
F5 Mn0 2.094462 1_566
F5 K0 2.893856 1_455
F5 K1 2.893859 1_565
F5 K1 2.893865 1_555
F5 K0 2.893868 1_556
