# generated using pymatgen
data_YLuI6
_symmetry_space_group_name_H-M   'P 1'
_cell_length_a   8.42082407
_cell_length_b   8.42082454
_cell_length_c   8.42082289
_cell_angle_alpha   53.27584018
_cell_angle_beta   53.27584034
_cell_angle_gamma   53.27583871
_symmetry_Int_Tables_number   1
_chemical_formula_structural   YLuI6
_chemical_formula_sum   'Y1 Lu1 I6'
_cell_volume   355.74471599
_cell_formula_units_Z   1
loop_
 _symmetry_equiv_pos_site_id
 _symmetry_equiv_pos_as_xyz
  1  'x, y, z'
loop_
 _atom_site_type_symbol
 _atom_site_label
 _atom_site_symmetry_multiplicity
 _atom_site_fract_x
 _atom_site_fract_y
 _atom_site_fract_z
 _atom_site_occupancy
  Y  Y0  1  0.83370569  0.83370569  0.83370569  1
  Lu  Lu0  1  0.16646293  0.16646293  0.16646293  1
  I  I0  1  0.57359793  0.23332678  0.93411384  1
  I  I1  1  0.77361270  0.07125098  0.41392815  1
  I  I2  1  0.07125098  0.41392815  0.77361270  1
  I  I3  1  0.41392815  0.77361270  0.07125098  1
  I  I4  1  0.93411384  0.57359793  0.23332678  1
  I  I5  1  0.23332678  0.93411384  0.57359793  1
loop_
_geom_bond_atom_site_label_1
_geom_bond_atom_site_label_2
_geom_bond_distance
_geom_bond_site_symmetry_2
I0 Lu0 2.977935 1_556
I0 Y0 3.034743 1_545
I1 Lu0 2.976330 1_655
I1 Y0 3.037284 1_545
I2 Lu0 2.976330 1_556
I2 Y0 3.037285 1_455
I3 Lu0 2.976330 1_565
I3 Y0 3.037285 1_554
I4 Lu0 2.977935 1_655
I4 Y0 3.034742 1_554
I5 Lu0 2.977935 1_565
I5 Y0 3.034743 1_455
