# generated using pymatgen
data_K3Y(IO3)6
_symmetry_space_group_name_H-M   'P 1'
_cell_length_a   7.00174829
_cell_length_b   7.07314311
_cell_length_c   10.72994358
_cell_angle_alpha   98.67860229
_cell_angle_beta   108.40853351
_cell_angle_gamma   102.55352827
_symmetry_Int_Tables_number   1
_chemical_formula_structural   K3Y(IO3)6
_chemical_formula_sum   'K3 Y1 I6 O18'
_cell_volume   478.12225481
_cell_formula_units_Z   1
loop_
 _symmetry_equiv_pos_site_id
 _symmetry_equiv_pos_as_xyz
  1  'x, y, z'
loop_
 _atom_site_type_symbol
 _atom_site_label
 _atom_site_symmetry_multiplicity
 _atom_site_fract_x
 _atom_site_fract_y
 _atom_site_fract_z
 _atom_site_occupancy
  K  K0  1  0.36998595  0.53425028  0.29276710  1
  K  K1  1  0.63001405  0.46574972  0.70723290  1
  K  K2  1  0.00000000  0.50000000  0.50000000  1
  Y  Y0  1  0.00000000  0.00000000  0.00000000  1
  I  I0  1  0.56873039  0.03095046  0.19733473  1
  I  I1  1  0.43126961  0.96904954  0.80266527  1
  I  I2  1  0.77683074  0.52496002  0.10353935  1
  I  I3  1  0.22316926  0.47503998  0.89646065  1
  I  I4  1  0.14219194  0.05711238  0.38686056  1
  I  I5  1  0.85780806  0.94288762  0.61313944  1
  O  O0  1  0.58373538  0.64702936  0.12553627  1
  O  O1  1  0.41626462  0.35297064  0.87446373  1
  O  O2  1  0.01075228  0.36008985  0.73659022  1
  O  O3  1  0.98924772  0.63991015  0.26340978  1
  O  O4  1  0.61497064  0.29951026  0.23963467  1
  O  O5  1  0.38502936  0.70048974  0.76036533  1
  O  O6  1  0.06293002  0.10732187  0.21788128  1
  O  O7  1  0.93706998  0.89267813  0.78211872  1
  O  O8  1  0.32344902  0.96206436  0.04755487  1
  O  O9  1  0.67655098  0.03793564  0.95244513  1
  O  O10  1  0.29793413  0.30610119  0.47644228  1
  O  O11  1  0.70206587  0.69389881  0.52355772  1
  O  O12  1  0.89318800  0.07686517  0.40395977  1
  O  O13  1  0.10681200  0.92313483  0.59604023  1
  O  O14  1  0.55033968  0.04057832  0.68404977  1
  O  O15  1  0.44966032  0.95942168  0.31595023  1
  O  O16  1  0.12525510  0.32712880  0.00197247  1
  O  O17  1  0.87474490  0.67287120  0.99802753  1
loop_
_geom_bond_atom_site_label_1
_geom_bond_atom_site_label_2
_geom_bond_distance
_geom_bond_site_symmetry_2
K0 O11 2.681788 1_555
K0 O4 2.755745 1_555
K0 O0 2.775805 1_555
K0 O10 2.824293 1_555
K0 O3 2.858524 1_455
K0 O15 2.893829 1_555
K0 O16 2.995098 1_555
K0 O6 3.121072 1_555
K1 O10 2.681788 1_555
K1 O5 2.755745 1_555
K1 O1 2.775805 1_555
K1 O11 2.824293 1_555
K1 O2 2.858524 1_655
K1 O14 2.893829 1_555
K1 O17 2.995098 1_555
K1 O7 3.121072 1_555
K2 O11 2.787215 1_455
K2 O10 2.787215 1_555
K2 O2 2.845926 1_555
K2 O3 2.845926 1_455
K2 O13 2.861496 1_555
K2 O12 2.861496 1_455
K2 O5 3.077229 1_555
K2 O4 3.077229 1_455
I0 O15 1.803333 1_545
I0 O4 1.816265 1_555
I0 O8 1.851065 1_545
I0 O12 2.542194 1_555
I1 O14 1.803333 1_565
I1 O5 1.816265 1_555
I1 O9 1.851065 1_565
I1 O13 2.542194 1_555
I2 O3 1.804931 1_555
I2 O0 1.810138 1_555
I2 O17 1.839057 1_554
I2 O4 2.630988 1_555
I3 O2 1.804931 1_555
I3 O1 1.810138 1_555
I3 O16 1.839057 1_556
I3 O5 2.630988 1_555
I4 O10 1.790792 1_555
I4 O6 1.834684 1_555
I4 O12 1.842017 1_455
I4 O13 2.624521 1_545
I4 O15 2.685796 1_545
I5 O11 1.790792 1_555
I5 O7 1.834684 1_555
I5 O13 1.842017 1_655
I5 O12 2.624521 1_565
I5 O14 2.685796 1_565
O6 Y0 2.214585 1_555
O7 Y0 2.214585 1_666
O8 Y0 2.244303 1_565
O9 Y0 2.244303 1_656
O16 Y0 2.283587 1_555
O17 Y0 2.283587 1_666
