# generated using pymatgen
data_LuFeH5
_symmetry_space_group_name_H-M   'P 1'
_cell_length_a   4.14066366
_cell_length_b   4.46810559
_cell_length_c   10.94099402
_cell_angle_alpha   90.00000000
_cell_angle_beta   90.00000000
_cell_angle_gamma   90.00000000
_symmetry_Int_Tables_number   1
_chemical_formula_structural   LuFeH5
_chemical_formula_sum   'Lu4 Fe4 H20'
_cell_volume   202.41848211
_cell_formula_units_Z   4
loop_
 _symmetry_equiv_pos_site_id
 _symmetry_equiv_pos_as_xyz
  1  'x, y, z'
loop_
 _atom_site_type_symbol
 _atom_site_label
 _atom_site_symmetry_multiplicity
 _atom_site_fract_x
 _atom_site_fract_y
 _atom_site_fract_z
 _atom_site_occupancy
  Lu  Lu0  1  0.28032060  0.15208244  0.65005611  1
  Lu  Lu1  1  0.78032060  0.34791756  0.34994389  1
  Lu  Lu2  1  0.21967940  0.84791756  0.15005611  1
  Lu  Lu3  1  0.71967940  0.65208244  0.84994389  1
  Fe  Fe0  1  0.31529536  0.15340206  0.91035657  1
  Fe  Fe1  1  0.81529536  0.34659794  0.08964343  1
  Fe  Fe2  1  0.18470464  0.84659794  0.41035657  1
  Fe  Fe3  1  0.68470464  0.65340206  0.58964343  1
  H  H0  1  0.54506854  0.38650074  0.51840674  1
  H  H1  1  0.04506854  0.11349926  0.48159326  1
  H  H2  1  0.95493146  0.61349926  0.01840674  1
  H  H3  1  0.45493146  0.88650074  0.98159326  1
  H  H4  1  0.14400845  0.93083919  0.82212117  1
  H  H5  1  0.64400845  0.56916081  0.17787883  1
  H  H6  1  0.35599155  0.06916081  0.32212117  1
  H  H7  1  0.85599155  0.43083919  0.67787883  1
  H  H8  1  0.19468182  0.42885031  0.83194384  1
  H  H9  1  0.69468182  0.07114969  0.16805616  1
  H  H10  1  0.30531818  0.57114969  0.33194384  1
  H  H11  1  0.80531818  0.92885031  0.66805616  1
  H  H12  1  0.60828540  0.14706301  0.82329516  1
  H  H13  1  0.10828540  0.35293699  0.17670484  1
  H  H14  1  0.89171460  0.85293699  0.32329516  1
  H  H15  1  0.39171460  0.64706301  0.67670484  1
  H  H16  1  0.99481431  0.10416536  0.00001858  1
  H  H17  1  0.49481431  0.39583464  0.99998142  1
  H  H18  1  0.50518569  0.89583464  0.50001858  1
  H  H19  1  0.00518569  0.60416536  0.49998142  1
loop_
_geom_bond_atom_site_label_1
_geom_bond_atom_site_label_2
_geom_bond_distance
_geom_bond_site_symmetry_2
Fe0 H3 1.537506 1_545
Fe0 H12 1.542699 1_555
Fe0 H4 1.556884 1_545
Fe0 H8 1.581182 1_555
Fe0 H17 1.639340 1_555
Fe0 H16 1.664837 1_456
Fe1 H2 1.537506 1_555
Fe1 H13 1.542699 1_655
Fe1 H5 1.556884 1_555
Fe1 H9 1.581182 1_555
Fe1 H16 1.639340 1_555
Fe1 H17 1.664837 1_554
Fe2 H1 1.537506 1_565
Fe2 H14 1.542699 1_455
Fe2 H6 1.556884 1_565
Fe2 H10 1.581182 1_555
Fe2 H19 1.639340 1_555
Fe2 H18 1.664837 1_555
Fe3 H0 1.537506 1_555
Fe3 H15 1.542699 1_555
Fe3 H7 1.556884 1_555
Fe3 H11 1.581182 1_555
Fe3 H18 1.639340 1_555
Fe3 H19 1.664837 1_655
H0 Lu0 2.091283 1_555
H0 Lu1 2.091840 1_555
H1 Lu1 2.091283 1_455
H1 Lu0 2.091840 1_555
H2 Lu2 2.091283 1_655
H2 Lu3 2.091840 1_554
H3 Lu3 2.091283 1_555
H3 Lu2 2.091840 1_556
H4 Lu3 2.175094 1_455
H4 Lu0 2.199960 1_565
H5 Lu2 2.175094 1_555
H5 Lu1 2.199960 1_555
H6 Lu1 2.175094 1_555
H6 Lu2 2.199960 1_545
H7 Lu0 2.175094 1_655
H7 Lu3 2.199960 1_555
H8 Lu3 2.214056 1_455
H8 Lu0 2.369646 1_555
H8 Lu3 2.399836 1_555
H9 Lu2 2.214056 1_545
H9 Lu1 2.369646 1_555
H9 Lu2 2.399836 1_645
H10 Lu1 2.214056 1_555
H10 Lu2 2.369646 1_555
H10 Lu1 2.399836 1_455
H11 Lu0 2.214056 1_665
H11 Lu3 2.369646 1_555
H11 Lu0 2.399836 1_565
H12 Lu3 2.277947 1_545
H12 Lu3 2.321521 1_555
H12 Lu0 2.331784 1_555
H13 Lu2 2.277947 1_555
H13 Lu2 2.321521 1_545
H13 Lu1 2.331784 1_455
H14 Lu1 2.277947 1_565
H14 Lu1 2.321521 1_555
H14 Lu2 2.331784 1_655
H15 Lu0 2.277947 1_555
H15 Lu0 2.321521 1_565
H15 Lu3 2.331784 1_555
H16 Lu2 2.207383 1_645
H17 Lu3 2.207383 1_555
H18 Lu0 2.207383 1_565
H19 Lu1 2.207383 1_455
