# generated using pymatgen
data_KMg2H8Ir
_symmetry_space_group_name_H-M   'P 1'
_cell_length_a   4.92552936
_cell_length_b   4.92552936
_cell_length_c   10.94947267
_cell_angle_alpha   90.00000000
_cell_angle_beta   90.00000000
_cell_angle_gamma   90.00000000
_symmetry_Int_Tables_number   1
_chemical_formula_structural   KMg2H8Ir
_chemical_formula_sum   'K2 Mg4 H16 Ir2'
_cell_volume   265.64339890
_cell_formula_units_Z   2
loop_
 _symmetry_equiv_pos_site_id
 _symmetry_equiv_pos_as_xyz
  1  'x, y, z'
loop_
 _atom_site_type_symbol
 _atom_site_label
 _atom_site_symmetry_multiplicity
 _atom_site_fract_x
 _atom_site_fract_y
 _atom_site_fract_z
 _atom_site_occupancy
  K  K0  1  0.50000000  0.00000000  0.00000000  1
  K  K1  1  0.00000000  0.50000000  0.50000000  1
  Mg  Mg0  1  0.50000000  0.00000000  0.63192164  1
  Mg  Mg1  1  0.00000000  0.50000000  0.13192164  1
  Mg  Mg2  1  0.50000000  0.00000000  0.36807836  1
  Mg  Mg3  1  0.00000000  0.50000000  0.86807836  1
  H  H0  1  0.23946440  0.23946440  0.75000000  1
  H  H1  1  0.76053560  0.76053560  0.75000000  1
  H  H2  1  0.76053560  0.23946440  0.25000000  1
  H  H3  1  0.23946440  0.76053560  0.25000000  1
  H  H4  1  0.76053560  0.76053560  0.25000000  1
  H  H5  1  0.23946440  0.23946440  0.25000000  1
  H  H6  1  0.23946440  0.76053560  0.75000000  1
  H  H7  1  0.76053560  0.23946440  0.75000000  1
  H  H8  1  0.50000000  0.24952181  0.50000000  1
  H  H9  1  0.50000000  0.75047819  0.50000000  1
  H  H10  1  0.75047819  0.50000000  0.00000000  1
  H  H11  1  0.24952181  0.50000000  0.00000000  1
  H  H12  1  0.00000000  0.00000000  0.59834098  1
  H  H13  1  0.00000000  0.00000000  0.09834098  1
  H  H14  1  0.00000000  0.00000000  0.40165902  1
  H  H15  1  0.00000000  0.00000000  0.90165902  1
  Ir  Ir0  1  0.00000000  0.00000000  0.75000000  1
  Ir  Ir1  1  0.00000000  0.00000000  0.25000000  1
loop_
_geom_bond_atom_site_label_1
_geom_bond_atom_site_label_2
_geom_bond_distance
_geom_bond_site_symmetry_2
H0 Ir0 1.668049 1_555
H0 Mg3 2.170154 1_555
H0 Mg0 2.170154 1_555
H1 Ir0 1.668049 1_665
H1 Mg3 2.170154 1_655
H1 Mg0 2.170154 1_565
H2 Ir1 1.668049 1_655
H2 Mg2 2.170154 1_555
H2 Mg1 2.170154 1_655
H3 Ir1 1.668049 1_565
H3 Mg2 2.170154 1_565
H3 Mg1 2.170154 1_555
H4 Ir1 1.668049 1_665
H4 Mg2 2.170154 1_565
H4 Mg1 2.170154 1_655
H5 Ir1 1.668049 1_555
H5 Mg2 2.170154 1_555
H5 Mg1 2.170154 1_555
H6 Ir0 1.668049 1_565
H6 Mg3 2.170154 1_555
H6 Mg0 2.170154 1_565
H7 Ir0 1.668049 1_655
H7 Mg3 2.170154 1_655
H7 Mg0 2.170154 1_555
H8 Mg0 1.896578 1_555
H8 Mg2 1.896578 1_555
H8 K1 2.754509 1_655
H8 K1 2.754509 1_555
H9 Mg0 1.896578 1_565
H9 Mg2 1.896578 1_565
H9 K1 2.754509 1_555
H9 K1 2.754509 1_655
H10 Mg1 1.896578 1_655
H10 Mg3 1.896578 1_654
H10 K0 2.754509 1_555
H10 K0 2.754509 1_565
H11 Mg1 1.896578 1_555
H11 Mg3 1.896578 1_554
H11 K0 2.754509 1_555
H11 K0 2.754509 1_565
H12 Ir0 1.660586 1_555
H12 K1 2.687874 1_555
H12 K1 2.687874 1_545
H13 Ir1 1.660586 1_555
H13 K0 2.687874 1_455
H13 K0 2.687874 1_555
H14 Ir1 1.660586 1_555
H14 K1 2.687874 1_555
H14 K1 2.687874 1_545
H15 Ir0 1.660586 1_555
H15 K0 2.687874 1_456
H15 K0 2.687874 1_556
