# generated using pymatgen
data_NaSbSe2O7
_symmetry_space_group_name_H-M   'P 1'
_cell_length_a   6.71613857
_cell_length_b   6.71613894
_cell_length_c   7.16677963
_cell_angle_alpha   90.00000000
_cell_angle_beta   90.00000000
_cell_angle_gamma   109.60310399
_symmetry_Int_Tables_number   1
_chemical_formula_structural   NaSbSe2O7
_chemical_formula_sum   'Na2 Sb2 Se4 O14'
_cell_volume   304.53161205
_cell_formula_units_Z   2
loop_
 _symmetry_equiv_pos_site_id
 _symmetry_equiv_pos_as_xyz
  1  'x, y, z'
loop_
 _atom_site_type_symbol
 _atom_site_label
 _atom_site_symmetry_multiplicity
 _atom_site_fract_x
 _atom_site_fract_y
 _atom_site_fract_z
 _atom_site_occupancy
  Na  Na0  1  0.98067377  0.98067377  0.37080245  1
  Na  Na1  1  0.01932623  0.01932623  0.87080245  1
  Sb  Sb0  1  0.50117816  0.50117816  0.87837593  1
  Sb  Sb1  1  0.49882184  0.49882184  0.37837593  1
  Se  Se0  1  0.56051878  0.97039860  0.62837851  1
  Se  Se1  1  0.97039860  0.56051878  0.62837851  1
  Se  Se2  1  0.43948122  0.02960140  0.12837851  1
  Se  Se3  1  0.02960140  0.43948122  0.12837851  1
  O  O0  1  0.54777996  0.80422627  0.82271303  1
  O  O1  1  0.80422627  0.54777996  0.82271303  1
  O  O2  1  0.45222004  0.19577373  0.32271303  1
  O  O3  1  0.19577373  0.45222004  0.32271303  1
  O  O4  1  0.55079992  0.80390736  0.43403648  1
  O  O5  1  0.80390736  0.55079992  0.43403648  1
  O  O6  1  0.44920008  0.19609264  0.93403648  1
  O  O7  1  0.19609264  0.44920008  0.93403648  1
  O  O8  1  0.81660185  0.10395371  0.62733052  1
  O  O9  1  0.10395371  0.81660185  0.62733052  1
  O  O10  1  0.18339815  0.89604629  0.12733052  1
  O  O11  1  0.89604629  0.18339815  0.12733052  1
  O  O12  1  0.40505103  0.40505103  0.62884353  1
  O  O13  1  0.59494897  0.59494897  0.12884353  1
loop_
_geom_bond_atom_site_label_1
_geom_bond_atom_site_label_2
_geom_bond_distance
_geom_bond_site_symmetry_2
Na0 O10 2.395989 1_655
Na0 O11 2.395989 1_565
Na0 O8 2.427341 1_565
Na0 O9 2.427341 1_655
Na0 O4 2.765901 1_555
Na0 O5 2.765901 1_555
Na1 O8 2.395989 1_455
Na1 O9 2.395989 1_545
Na1 O10 2.427341 1_546
Na1 O11 2.427341 1_456
Na1 O6 2.765901 1_555
Na1 O7 2.765901 1_555
O0 Se0 1.768770 1_555
O0 Sb0 1.993027 1_555
O1 Se1 1.768770 1_555
O1 Sb0 1.993026 1_555
O2 Se2 1.768770 1_555
O2 Sb1 1.993027 1_555
O3 Se3 1.768770 1_555
O3 Sb1 1.993026 1_555
O4 Se0 1.773561 1_555
O4 Sb1 1.999854 1_555
O5 Se1 1.773561 1_555
O5 Sb1 1.999854 1_555
O6 Se2 1.773561 1_556
O6 Sb0 1.999854 1_555
O7 Se3 1.773561 1_556
O7 Sb0 1.999854 1_555
O8 Se0 1.651509 1_545
O9 Se1 1.651509 1_455
O10 Se2 1.651509 1_565
O11 Se3 1.651509 1_655
O12 Sb1 1.936310 1_555
O12 Sb0 1.937035 1_555
O13 Sb0 1.936310 1_554
O13 Sb1 1.937035 1_555
