# generated using pymatgen
data_Pd(Rh2Se3)4
_symmetry_space_group_name_H-M   'P 1'
_cell_length_a   7.94603891
_cell_length_b   7.94242492
_cell_length_c   6.57535404
_cell_angle_alpha   77.36099285
_cell_angle_beta   77.33345958
_cell_angle_gamma   92.26698975
_symmetry_Int_Tables_number   1
_chemical_formula_structural   Pd(Rh2Se3)4
_chemical_formula_sum   'Pd1 Rh8 Se12'
_cell_volume   393.39210204
_cell_formula_units_Z   1
loop_
 _symmetry_equiv_pos_site_id
 _symmetry_equiv_pos_as_xyz
  1  'x, y, z'
loop_
 _atom_site_type_symbol
 _atom_site_label
 _atom_site_symmetry_multiplicity
 _atom_site_fract_x
 _atom_site_fract_y
 _atom_site_fract_z
 _atom_site_occupancy
  Pd  Pd0  1  0.77015140  0.48751968  0.45394148  1
  Rh  Rh0  1  0.16197721  0.84062645  0.99995032  1
  Rh  Rh1  1  0.84041995  0.15935095  0.99965915  1
  Rh  Rh2  1  0.00334786  0.00144415  0.49902161  1
  Rh  Rh3  1  0.35123729  0.35132853  0.93817980  1
  Rh  Rh4  1  0.64700574  0.64518966  0.06230542  1
  Rh  Rh5  1  0.51060293  0.22235287  0.54727684  1
  Rh  Rh6  1  0.22273110  0.51451527  0.54630631  1
  Rh  Rh7  1  0.48536330  0.77730067  0.45483703  1
  Se  Se0  1  0.85172886  0.43474849  0.09842859  1
  Se  Se1  1  0.56444488  0.14829790  0.89609830  1
  Se  Se2  1  0.15067466  0.56531590  0.89390761  1
  Se  Se3  1  0.43571253  0.84928507  0.10650936  1
  Se  Se4  1  0.11736419  0.11702622  0.10735103  1
  Se  Se5  1  0.88409887  0.88243167  0.89199788  1
  Se  Se6  1  0.03270103  0.71736321  0.38935891  1
  Se  Se7  1  0.28993326  0.97319777  0.60918537  1
  Se  Se8  1  0.97528747  0.28419479  0.61075851  1
  Se  Se9  1  0.57798920  0.58640587  0.73675790  1
  Se  Se10  1  0.41256412  0.41408002  0.26790049  1
  Se  Se11  1  0.71466416  0.02801985  0.39026909  1
loop_
_geom_bond_atom_site_label_1
_geom_bond_atom_site_label_2
_geom_bond_distance
_geom_bond_site_symmetry_2
Pd0 Se0 2.417863 1_555
Pd0 Se9 2.428022 1_555
Pd0 Se8 2.558264 1_555
Pd0 Se6 2.614599 1_655
Pd0 Rh5 2.757037 1_555
Rh0 Se3 2.429894 1_556
Rh0 Se2 2.440238 1_555
Rh0 Se4 2.464523 1_566
Rh0 Se5 2.476231 1_455
Rh0 Se6 2.497954 1_556
Rh0 Se7 2.515954 1_555
Rh1 Se0 2.417837 1_556
Rh1 Se1 2.438453 1_555
Rh1 Se5 2.468402 1_545
Rh1 Se4 2.468775 1_656
Rh1 Se8 2.505041 1_555
Rh1 Se11 2.510542 1_556
Rh2 Se4 2.484435 1_555
Rh2 Se5 2.500939 1_445
Rh2 Se8 2.514481 1_455
Rh2 Se6 2.518938 1_545
Rh2 Se7 2.540369 1_545
Rh2 Se11 2.551365 1_455
Rh3 Se2 2.390470 1_555
Rh3 Se1 2.398514 1_555
Rh3 Se4 2.463309 1_556
Rh3 Se9 2.468137 1_555
Rh3 Se10 2.470465 1_556
Rh4 Se0 2.388961 1_555
Rh4 Se3 2.395517 1_555
Rh4 Se9 2.456173 1_554
Rh4 Se10 2.491247 1_555
Rh4 Se5 2.494862 1_554
Rh5 Se1 2.376886 1_555
Rh5 Se10 2.407815 1_555
Rh5 Se7 2.493243 1_545
Rh5 Se11 2.497700 1_555
Rh6 Se2 2.358502 1_555
Rh6 Se10 2.405422 1_555
Rh6 Se6 2.467583 1_555
Rh6 Se8 2.530344 1_455
Rh7 Se3 2.359966 1_555
Rh7 Se9 2.394466 1_555
Rh7 Se7 2.460349 1_555
Rh7 Se11 2.543452 1_565
Se0 Se2 2.514053 1_654
Se1 Se3 2.519894 1_546
