# generated using pymatgen
data_Sr2B4Os3C
_symmetry_space_group_name_H-M   'P 1'
_cell_length_a   5.77730922
_cell_length_b   5.77730999
_cell_length_c   7.95080390
_cell_angle_alpha   58.20326794
_cell_angle_beta   58.20326150
_cell_angle_gamma   41.26386652
_symmetry_Int_Tables_number   1
_chemical_formula_structural   Sr2B4Os3C
_chemical_formula_sum   'Sr2 B4 Os3 C1'
_cell_volume   144.64697673
_cell_formula_units_Z   1
loop_
 _symmetry_equiv_pos_site_id
 _symmetry_equiv_pos_as_xyz
  1  'x, y, z'
loop_
 _atom_site_type_symbol
 _atom_site_label
 _atom_site_symmetry_multiplicity
 _atom_site_fract_x
 _atom_site_fract_y
 _atom_site_fract_z
 _atom_site_occupancy
  Sr  Sr0  1  0.38821664  0.93218770  0.23779585  1
  Sr  Sr1  1  0.06781230  0.61178336  0.76220415  1
  B  B0  1  0.06417055  0.63984192  0.31500956  1
  B  B1  1  0.53103128  0.54187377  0.87583546  1
  B  B2  1  0.36015808  0.93582945  0.68499044  1
  B  B3  1  0.45812623  0.46896872  0.12416454  1
  Os  Os0  1  0.86192011  0.39810713  0.58989034  1
  Os  Os1  1  0.99949174  0.00050826  1.00000000  1
  Os  Os2  1  0.60189287  0.13807989  0.41010966  1
  C  C0  1  0.73218120  0.26781880  0.50000000  1
loop_
_geom_bond_atom_site_label_1
_geom_bond_atom_site_label_2
_geom_bond_distance
_geom_bond_site_symmetry_2
B0 B3 1.737377 1_555
B0 Os2 2.144386 1_465
B0 Os0 2.153570 1_455
B0 Os1 2.251756 1_464
B0 Os2 2.291921 1_555
B1 B3 1.663460 1_556
B1 B2 1.737378 1_555
B1 Os0 2.129782 1_555
B1 Os1 2.180563 1_465
B1 Os1 2.217597 1_555
B1 Sr1 2.946122 1_555
B1 Sr1 3.023642 1_655
B2 Os0 2.144386 1_465
B2 Os2 2.153570 1_565
B2 Os1 2.251756 1_465
B2 Os0 2.291921 1_555
B3 Os2 2.129782 1_555
B3 Os1 2.180564 1_464
B3 Os1 2.217597 1_554
B3 Sr0 2.946123 1_555
B3 Sr0 3.023643 1_545
Os1 Sr0 3.236507 1_546
Os1 Sr1 3.236508 1_655
Os1 Sr0 3.336083 1_646
Os1 Sr1 3.336083 1_645
C0 Os2 1.902319 1_555
C0 Os0 1.902319 1_555
C0 Sr0 2.712164 1_645
C0 Sr1 2.712164 1_645
C0 Sr1 2.737512 1_555
C0 Sr0 2.737513 1_555
