# generated using pymatgen
data_MnIn(Pd2Au)2
_symmetry_space_group_name_H-M   'P 1'
_cell_length_a   5.83193226
_cell_length_b   5.83373412
_cell_length_c   7.58239136
_cell_angle_alpha   90.00000000
_cell_angle_beta   90.00003172
_cell_angle_gamma   90.00000000
_symmetry_Int_Tables_number   1
_chemical_formula_structural   MnIn(Pd2Au)2
_chemical_formula_sum   'Mn2 In2 Pd8 Au4'
_cell_volume   257.96768056
_cell_formula_units_Z   2
loop_
 _symmetry_equiv_pos_site_id
 _symmetry_equiv_pos_as_xyz
  1  'x, y, z'
loop_
 _atom_site_type_symbol
 _atom_site_label
 _atom_site_symmetry_multiplicity
 _atom_site_fract_x
 _atom_site_fract_y
 _atom_site_fract_z
 _atom_site_occupancy
  Mn  Mn0  1  0.25009442  0.25000100  0.99999973  1
  Mn  Mn1  1  0.74990558  0.75000000  0.00000027  1
  In  In0  1  0.24981638  0.25000100  0.49999842  1
  In  In1  1  0.75018362  0.75000000  0.50000158  1
  Pd  Pd0  1  0.99999473  0.00000029  0.24497261  1
  Pd  Pd1  1  0.99999473  0.50000771  0.24497261  1
  Pd  Pd2  1  0.49998589  0.99999714  0.24518646  1
  Pd  Pd3  1  0.49998589  0.49999586  0.24518646  1
  Pd  Pd4  1  0.50001411  0.00000286  0.75481254  1
  Pd  Pd5  1  0.50001411  0.50000514  0.75481254  1
  Pd  Pd6  1  0.00000527  0.99999971  0.75502739  1
  Pd  Pd7  1  0.00000527  0.49999329  0.75502739  1
  Au  Au0  1  0.74979481  0.25000100  0.99999727  1
  Au  Au1  1  0.25020519  0.75000000  0.00000273  1
  Au  Au2  1  0.74999767  0.25000100  0.50000304  1
  Au  Au3  1  0.25000233  0.75000000  0.49999696  1
loop_
_geom_bond_atom_site_label_1
_geom_bond_atom_site_label_2
_geom_bond_distance
_geom_bond_site_symmetry_2
Mn0 Pd7 2.775670 1_555
Mn0 Pd6 2.775697 1_545
Mn0 Pd0 2.775732 1_456
Mn0 Pd1 2.775750 1_456
Mn0 Pd3 2.776160 1_556
Mn0 Pd2 2.776188 1_546
Mn0 Pd4 2.776260 1_555
Mn0 Pd5 2.776279 1_555
Mn1 Pd1 2.775670 1_555
Mn1 Pd0 2.775694 1_565
Mn1 Pd6 2.775729 1_654
Mn1 Pd7 2.775750 1_654
Mn1 Pd5 2.776165 1_554
Mn1 Pd4 2.776190 1_564
Mn1 Pd2 2.776252 1_555
Mn1 Pd3 2.776274 1_555
In0 Pd3 2.826392 1_555
In0 Pd2 2.826419 1_545
In0 Pd7 2.826431 1_555
In0 Pd6 2.826458 1_545
In0 Pd0 2.826471 1_455
In0 Pd1 2.826489 1_455
In0 Pd4 2.826497 1_555
In0 Pd5 2.826515 1_555
In1 Pd5 2.826387 1_555
In1 Pd4 2.826411 1_565
In1 Pd1 2.826431 1_555
In1 Pd0 2.826455 1_565
In1 Pd6 2.826468 1_655
In1 Pd7 2.826489 1_655
In1 Pd2 2.826499 1_555
In1 Pd3 2.826520 1_555
Pd0 Pd2 2.915915 1_645
Pd0 Pd2 2.916018 1_545
Pd0 Pd1 2.916824 1_545
Pd0 Pd1 2.916910 1_555
Pd1 Pd3 2.915915 1_655
Pd1 Pd3 2.916018 1_555
Pd2 Pd3 2.916860 1_565
Pd2 Pd3 2.916875 1_555
Pd4 Pd6 2.915915 1_645
Pd4 Pd6 2.916018 1_545
Pd4 Pd5 2.916854 1_545
Pd4 Pd5 2.916880 1_555
Pd5 Pd7 2.915915 1_655
Pd5 Pd7 2.916018 1_555
Pd6 Pd7 2.916830 1_565
Pd6 Pd7 2.916905 1_555
Au0 Pd4 2.775821 1_555
Au0 Pd5 2.775840 1_555
Au0 Pd3 2.775921 1_556
Au0 Pd2 2.775949 1_546
Au0 Pd7 2.776030 1_655
Au0 Pd0 2.776050 1_556
Au0 Pd6 2.776058 1_645
Au0 Pd1 2.776069 1_556
Au0 Mn0 2.914219 1_555
Au0 Mn1 2.916861 1_556
Au0 Mn1 2.916873 1_546
Au0 Mn0 2.917713 1_655
Au1 Pd2 2.775813 1_555
Au1 Pd3 2.775835 1_555
Au1 Pd5 2.775926 1_554
Au1 Pd4 2.775951 1_564
Au1 Pd1 2.776030 1_455
Au1 Pd6 2.776047 1_554
Au1 Pd0 2.776055 1_465
Au1 Pd7 2.776069 1_554
Au1 Mn1 2.914219 1_555
Au1 Mn0 2.916861 1_554
Au1 Mn0 2.916873 1_564
Au1 Mn1 2.917713 1_455
Au2 Pd4 2.825829 1_555
Au2 Pd5 2.825847 1_555
Au2 Pd3 2.825940 1_555
Au2 Pd2 2.825967 1_545
Au2 Pd7 2.826997 1_655
Au2 Pd0 2.827023 1_555
Au2 Pd6 2.827024 1_645
Au2 Pd1 2.827041 1_555
Au2 In0 2.914909 1_655
Au2 In1 2.916861 1_555
Au2 In1 2.916873 1_545
Au2 In0 2.917023 1_555
Au3 Pd2 2.825831 1_555
Au3 Pd3 2.825853 1_555
Au3 Pd5 2.825935 1_555
Au3 Pd4 2.825959 1_565
Au3 Pd1 2.826997 1_455
Au3 Pd6 2.827020 1_555
Au3 Pd0 2.827021 1_465
Au3 Pd7 2.827041 1_555
Au3 In1 2.914909 1_455
Au3 In0 2.916861 1_555
Au3 In0 2.916873 1_565
Au3 In1 2.917023 1_555
