# generated using pymatgen
data_NbIrSeS3
_symmetry_space_group_name_H-M   'P 1'
_cell_length_a   3.52874081
_cell_length_b   11.47734152
_cell_length_c   12.52753050
_cell_angle_alpha   90.00000000
_cell_angle_beta   90.00000000
_cell_angle_gamma   90.00000000
_symmetry_Int_Tables_number   1
_chemical_formula_structural   NbIrSeS3
_chemical_formula_sum   'Nb4 Ir4 Se4 S12'
_cell_volume   507.37204287
_cell_formula_units_Z   4
loop_
 _symmetry_equiv_pos_site_id
 _symmetry_equiv_pos_as_xyz
  1  'x, y, z'
loop_
 _atom_site_type_symbol
 _atom_site_label
 _atom_site_symmetry_multiplicity
 _atom_site_fract_x
 _atom_site_fract_y
 _atom_site_fract_z
 _atom_site_occupancy
  Nb  Nb0  1  0.00000000  0.04401471  0.99428657  1
  Nb  Nb1  1  0.50000000  0.95598529  0.49428657  1
  Nb  Nb2  1  0.00000000  0.26126245  0.49149854  1
  Nb  Nb3  1  0.50000000  0.73873755  0.99149854  1
  Ir  Ir0  1  0.00000000  0.53055258  0.00085203  1
  Ir  Ir1  1  0.50000000  0.46944742  0.50085203  1
  Ir  Ir2  1  0.00000000  0.75081314  0.49253906  1
  Ir  Ir3  1  0.50000000  0.24918686  0.99253906  1
  Se  Se0  1  0.00000000  0.34278765  0.10307918  1
  Se  Se1  1  0.50000000  0.65721235  0.60307918  1
  Se  Se2  1  0.00000000  0.41001580  0.63440165  1
  Se  Se3  1  0.50000000  0.58998420  0.13440165  1
  S  S0  1  0.50000000  0.09757878  0.12260251  1
  S  S1  1  0.00000000  0.90242122  0.62260251  1
  S  S2  1  0.50000000  0.15433661  0.59628749  1
  S  S3  1  0.00000000  0.84566339  0.09628749  1
  S  S4  1  0.50000000  0.32223650  0.36578397  1
  S  S5  1  0.00000000  0.67776350  0.86578397  1
  S  S6  1  0.50000000  0.43591215  0.90460410  1
  S  S7  1  0.00000000  0.56408785  0.40460410  1
  S  S8  1  0.00000000  0.06278833  0.38882544  1
  S  S9  1  0.50000000  0.93721167  0.88882544  1
  S  S10  1  0.00000000  0.19613722  0.86829946  1
  S  S11  1  0.50000000  0.80386278  0.36829946  1
loop_
_geom_bond_atom_site_label_1
_geom_bond_atom_site_label_2
_geom_bond_distance
_geom_bond_site_symmetry_2
Nb0 S10 2.353601 1_555
Nb0 S0 2.464741 1_556
Nb0 S0 2.464741 1_456
Nb0 S9 2.522124 1_445
Nb0 S9 2.522124 1_545
Nb0 S3 2.610648 1_546
Nb1 S11 2.353601 1_555
Nb1 S1 2.464741 1_555
Nb1 S1 2.464741 1_655
Nb1 S8 2.522124 1_565
Nb1 S8 2.522124 1_665
Nb1 S2 2.610648 1_565
Nb2 S4 2.466382 1_455
Nb2 S4 2.466382 1_555
Nb2 Se2 2.473812 1_555
Nb2 S2 2.518410 1_455
Nb2 S2 2.518410 1_555
Nb2 S8 2.616007 1_555
Nb3 S5 2.466382 1_555
Nb3 S5 2.466382 1_655
Nb3 Se3 2.473812 1_556
Nb3 S3 2.518410 1_556
Nb3 S3 2.518410 1_656
Nb3 S9 2.616007 1_555
Ir0 S5 2.391195 1_554
Ir0 S6 2.397229 1_454
Ir0 S6 2.397229 1_554
Ir0 Se0 2.506847 1_555
Ir0 Se3 2.525346 1_555
Ir0 Se3 2.525346 1_455
Ir1 S4 2.391195 1_555
Ir1 S7 2.397229 1_555
Ir1 S7 2.397229 1_655
Ir1 Se1 2.506847 1_555
Ir1 Se2 2.525346 1_555
Ir1 Se2 2.525346 1_655
Ir2 S1 2.383833 1_555
Ir2 S7 2.409660 1_555
Ir2 S11 2.430258 1_455
Ir2 S11 2.430258 1_555
Ir2 Se1 2.486917 1_455
Ir2 Se1 2.486917 1_555
Ir3 S0 2.383833 1_556
Ir3 S6 2.409660 1_555
Ir3 S10 2.430258 1_555
Ir3 S10 2.430258 1_655
Ir3 Se0 2.486917 1_656
Ir3 Se0 2.486917 1_556
