# generated using pymatgen
data_KInH2
_symmetry_space_group_name_H-M   'P 1'
_cell_length_a   5.05145409
_cell_length_b   7.99642783
_cell_length_c   8.04992757
_cell_angle_alpha   90.00000000
_cell_angle_beta   90.00000000
_cell_angle_gamma   90.00000000
_symmetry_Int_Tables_number   1
_chemical_formula_structural   KInH2
_chemical_formula_sum   'K4 In4 H8'
_cell_volume   325.16545811
_cell_formula_units_Z   4
loop_
 _symmetry_equiv_pos_site_id
 _symmetry_equiv_pos_as_xyz
  1  'x, y, z'
loop_
 _atom_site_type_symbol
 _atom_site_label
 _atom_site_symmetry_multiplicity
 _atom_site_fract_x
 _atom_site_fract_y
 _atom_site_fract_z
 _atom_site_occupancy
  K  K0  1  0.75000000  0.37708773  0.63062461  1
  K  K1  1  0.75000000  0.87708773  0.86937539  1
  K  K2  1  0.25000000  0.12291227  0.13062461  1
  K  K3  1  0.25000000  0.62291227  0.36937539  1
  In  In0  1  0.25000000  0.06179327  0.55464390  1
  In  In1  1  0.25000000  0.56179327  0.94535610  1
  In  In2  1  0.75000000  0.43820673  0.05464390  1
  In  In3  1  0.75000000  0.93820673  0.44535610  1
  H  H0  1  0.75000000  0.71569422  0.50672307  1
  H  H1  1  0.25000000  0.08630380  0.77844476  1
  H  H2  1  0.25000000  0.58630380  0.72155524  1
  H  H3  1  0.75000000  0.21569422  0.99327693  1
  H  H4  1  0.25000000  0.78430578  0.00672307  1
  H  H5  1  0.75000000  0.41369620  0.27844476  1
  H  H6  1  0.75000000  0.91369620  0.22155524  1
  H  H7  1  0.25000000  0.28430578  0.49327693  1
loop_
_geom_bond_atom_site_label_1
_geom_bond_atom_site_label_2
_geom_bond_distance
_geom_bond_site_symmetry_2
H0 In3 1.846608 1_555
H0 K3 2.855203 1_555
H0 K3 2.855203 1_655
H0 K0 2.885504 1_555
H1 In0 1.812211 1_555
H1 K2 2.850096 1_556
H2 In1 1.812211 1_555
H2 K3 2.850096 1_555
H3 In2 1.846608 1_556
H3 K2 2.855203 1_656
H3 K2 2.855203 1_556
H3 K1 2.885504 1_545
H4 In1 1.846608 1_554
H4 K1 2.855203 1_454
H4 K1 2.855203 1_554
H4 K2 2.885504 1_565
H5 In2 1.812211 1_555
H5 K0 2.850096 1_555
H6 In3 1.812211 1_555
H6 K1 2.850096 1_554
H7 In0 1.846608 1_555
H7 K0 2.855203 1_555
H7 K0 2.855203 1_455
H7 K3 2.885504 1_555
