# generated using pymatgen
data_Tc3H(SeS)2
_symmetry_space_group_name_H-M   'P 1'
_cell_length_a   10.39192094
_cell_length_b   6.43860839
_cell_length_c   10.13502465
_cell_angle_alpha   69.25037843
_cell_angle_beta   90.00000000
_cell_angle_gamma   90.00000000
_symmetry_Int_Tables_number   1
_chemical_formula_structural   Tc3H(SeS)2
_chemical_formula_sum   'Tc12 H4 Se8 S8'
_cell_volume   634.14438361
_cell_formula_units_Z   4
loop_
 _symmetry_equiv_pos_site_id
 _symmetry_equiv_pos_as_xyz
  1  'x, y, z'
loop_
 _atom_site_type_symbol
 _atom_site_label
 _atom_site_symmetry_multiplicity
 _atom_site_fract_x
 _atom_site_fract_y
 _atom_site_fract_z
 _atom_site_occupancy
  Tc  Tc0  1  0.62526032  0.99606733  0.37308259  1
  Tc  Tc1  1  0.87473968  0.99606733  0.87308259  1
  Tc  Tc2  1  0.37473968  0.00393267  0.62691741  1
  Tc  Tc3  1  0.12526032  0.00393267  0.12691741  1
  Tc  Tc4  1  0.37387964  0.99203817  0.37512797  1
  Tc  Tc5  1  0.12612036  0.99203817  0.87512797  1
  Tc  Tc6  1  0.62612036  0.00796183  0.62487203  1
  Tc  Tc7  1  0.87387964  0.00796183  0.12487203  1
  Tc  Tc8  1  0.50048939  0.69600788  0.57274446  1
  Tc  Tc9  1  0.99951061  0.69600788  0.07274446  1
  Tc  Tc10  1  0.49951061  0.30399212  0.42725554  1
  Tc  Tc11  1  0.00048939  0.30399212  0.92725554  1
  H  H0  1  0.24780768  0.98964797  0.25479893  1
  H  H1  1  0.25219232  0.98964797  0.75479893  1
  H  H2  1  0.75219232  0.01035203  0.74520107  1
  H  H3  1  0.74780768  0.01035203  0.24520107  1
  Se  Se0  1  0.49809165  0.28027170  0.18568171  1
  Se  Se1  1  0.00190835  0.28027170  0.68568171  1
  Se  Se2  1  0.50190835  0.71972830  0.81431829  1
  Se  Se3  1  0.99809165  0.71972830  0.31431829  1
  Se  Se4  1  0.74186561  0.71032447  0.56982561  1
  Se  Se5  1  0.75813439  0.71032447  0.06982561  1
  Se  Se6  1  0.25813439  0.28967553  0.43017439  1
  Se  Se7  1  0.24186561  0.28967553  0.93017439  1
  S  S0  1  0.49983454  0.71961372  0.32485951  1
  S  S1  1  0.00016546  0.71961372  0.82485951  1
  S  S2  1  0.50016546  0.28038628  0.67514049  1
  S  S3  1  0.99983454  0.28038628  0.17514049  1
  S  S4  1  0.27212109  0.72030605  0.56926423  1
  S  S5  1  0.22787891  0.72030605  0.06926423  1
  S  S6  1  0.72787891  0.27969395  0.43073577  1
  S  S7  1  0.77212109  0.27969395  0.93073577  1
loop_
_geom_bond_atom_site_label_1
_geom_bond_atom_site_label_2
_geom_bond_distance
_geom_bond_site_symmetry_2
H0 Tc4 1.793669 1_555
H0 Tc3 1.796004 1_565
H1 Tc5 1.793669 1_555
H1 Tc2 1.796004 1_565
H2 Tc6 1.793669 1_555
H2 Tc1 1.796004 1_545
H3 Tc7 1.793669 1_555
H3 Tc0 1.796004 1_545
Se0 Tc0 2.497927 1_545
Se0 Tc4 2.504395 1_545
Se0 Tc10 2.506581 1_555
Se1 Tc1 2.497927 1_445
Se1 Tc5 2.504395 1_545
Se1 Tc11 2.506581 1_555
Se2 Tc2 2.497927 1_565
Se2 Tc6 2.504395 1_565
Se2 Tc8 2.506581 1_555
Se3 Tc3 2.497927 1_665
Se3 Tc7 2.504395 1_565
Se3 Tc9 2.506581 1_555
Se4 Tc6 2.487579 1_565
Se4 Tc0 2.495951 1_555
Se4 Tc8 2.509845 1_555
Se5 Tc7 2.487579 1_565
Se5 Tc1 2.495951 1_554
Se5 Tc9 2.509845 1_555
Se6 Tc4 2.487579 1_545
Se6 Tc2 2.495951 1_555
Se6 Tc10 2.509845 1_555
Se7 Tc5 2.487579 1_545
Se7 Tc3 2.495951 1_556
Se7 Tc11 2.509845 1_555
S0 Tc4 2.383832 1_555
S0 Tc0 2.392174 1_555
S0 Tc8 2.462587 1_555
S0 Tc10 2.504061 1_555
S1 Tc5 2.383832 1_555
S1 Tc1 2.392174 1_455
S1 Tc9 2.462587 1_456
S1 Tc11 2.504061 1_555
S2 Tc6 2.383832 1_555
S2 Tc2 2.392174 1_555
S2 Tc10 2.462587 1_555
S2 Tc8 2.504061 1_555
S3 Tc7 2.383832 1_555
S3 Tc3 2.392174 1_655
S3 Tc11 2.462587 1_654
S3 Tc9 2.504061 1_555
S4 Tc2 2.359998 1_565
S4 Tc4 2.368842 1_555
S4 Tc8 2.377776 1_555
S5 Tc3 2.359998 1_565
S5 Tc5 2.368842 1_554
S5 Tc9 2.377776 1_455
S6 Tc0 2.359998 1_545
S6 Tc6 2.368842 1_555
S6 Tc10 2.377776 1_555
S7 Tc1 2.359998 1_545
S7 Tc7 2.368842 1_556
S7 Tc11 2.377776 1_655
