# generated using pymatgen
data_Ca2MgTeO6
_symmetry_space_group_name_H-M   'P 1'
_cell_length_a   5.56267620
_cell_length_b   5.43399274
_cell_length_c   9.43217953
_cell_angle_alpha   54.99973766
_cell_angle_beta   90.00000000
_cell_angle_gamma   90.00000000
_symmetry_Int_Tables_number   1
_chemical_formula_structural   Ca2MgTeO6
_chemical_formula_sum   'Ca4 Mg2 Te2 O12'
_cell_volume   233.54900437
_cell_formula_units_Z   2
loop_
 _symmetry_equiv_pos_site_id
 _symmetry_equiv_pos_as_xyz
  1  'x, y, z'
loop_
 _atom_site_type_symbol
 _atom_site_label
 _atom_site_symmetry_multiplicity
 _atom_site_fract_x
 _atom_site_fract_y
 _atom_site_fract_z
 _atom_site_occupancy
  Ca  Ca0  1  0.45149405  0.26290309  0.74885413  1
  Ca  Ca1  1  0.95149405  0.73709691  0.75114587  1
  Ca  Ca2  1  0.54850595  0.73709691  0.25114587  1
  Ca  Ca3  1  0.04850595  0.26290309  0.24885413  1
  Mg  Mg0  1  0.50000000  0.50000000  0.00000000  1
  Mg  Mg1  1  0.00000000  0.50000000  0.50000000  1
  Te  Te0  1  0.50000000  0.00000000  0.50000000  1
  Te  Te1  1  0.00000000  0.00000000  0.00000000  1
  O  O0  1  0.19679599  0.32711976  0.95710665  1
  O  O1  1  0.69679599  0.67288024  0.54289335  1
  O  O2  1  0.80320401  0.67288024  0.04289335  1
  O  O3  1  0.30320401  0.32711976  0.45710665  1
  O  O4  1  0.28197692  0.75885640  0.04785096  1
  O  O5  1  0.78197692  0.24114360  0.45214904  1
  O  O6  1  0.71802308  0.24114360  0.95214904  1
  O  O7  1  0.21802308  0.75885640  0.54785096  1
  O  O8  1  0.02739447  0.15312230  0.76000137  1
  O  O9  1  0.52739447  0.84687770  0.73999863  1
  O  O10  1  0.47260553  0.15312230  0.26000137  1
  O  O11  1  0.97260553  0.84687770  0.23999863  1
loop_
_geom_bond_atom_site_label_1
_geom_bond_atom_site_label_2
_geom_bond_distance
_geom_bond_site_symmetry_2
Ca0 O9 2.347876 1_545
Ca0 O6 2.372529 1_555
Ca0 O1 2.373659 1_555
Ca0 O8 2.420839 1_555
Ca0 O7 2.585112 1_555
Ca0 O0 2.602649 1_555
Ca0 O3 2.696874 1_555
Ca0 O4 2.735601 1_546
Ca1 O8 2.347876 1_665
Ca1 O7 2.372529 1_655
Ca1 O0 2.373659 1_655
Ca1 O9 2.420839 1_555
Ca1 O6 2.585112 1_555
Ca1 O1 2.602649 1_555
Ca1 O2 2.696874 1_556
Ca1 O5 2.735601 1_565
Ca2 O10 2.347876 1_565
Ca2 O4 2.372529 1_555
Ca2 O3 2.373659 1_555
Ca2 O11 2.420839 1_555
Ca2 O5 2.585112 1_555
Ca2 O2 2.602649 1_555
Ca2 O1 2.696874 1_555
Ca2 O6 2.735601 1_564
Ca3 O11 2.347876 1_445
Ca3 O5 2.372529 1_455
Ca3 O2 2.373659 1_455
Ca3 O10 2.420839 1_555
Ca3 O4 2.585112 1_555
Ca3 O3 2.602649 1_555
Ca3 O0 2.696874 1_554
Ca3 O7 2.735601 1_545
Mg0 O10 2.070635 1_555
Mg0 O9 2.070635 1_554
Mg0 O2 2.080126 1_555
Mg0 O0 2.080126 1_554
Mg0 O4 2.093192 1_555
Mg0 O6 2.093192 1_554
Mg1 O8 2.070635 1_555
Mg1 O11 2.070635 1_455
Mg1 O1 2.080126 1_455
Mg1 O3 2.080126 1_555
Mg1 O7 2.093192 1_555
Mg1 O5 2.093192 1_455
O0 Te1 1.922713 1_556
O1 Te0 1.922713 1_565
O2 Te1 1.922713 1_665
O3 Te0 1.922713 1_555
O4 Te1 1.924231 1_565
O5 Te0 1.924231 1_555
O6 Te1 1.924231 1_656
O7 Te0 1.924231 1_565
O8 Te1 1.918124 1_556
O9 Te0 1.918124 1_565
O10 Te0 1.918124 1_555
O11 Te1 1.918124 1_665
