# generated using pymatgen
data_ScTa(ReSi)2
_symmetry_space_group_name_H-M   'P 1'
_cell_length_a   7.62829571
_cell_length_b   7.65019216
_cell_length_c   7.62829563
_cell_angle_alpha   126.28397163
_cell_angle_beta   128.29486212
_cell_angle_gamma   77.72612929
_symmetry_Int_Tables_number   1
_chemical_formula_structural   ScTa(ReSi)2
_chemical_formula_sum   'Sc3 Ta3 Re6 Si6'
_cell_volume   273.14862333
_cell_formula_units_Z   3
loop_
 _symmetry_equiv_pos_site_id
 _symmetry_equiv_pos_as_xyz
  1  'x, y, z'
loop_
 _atom_site_type_symbol
 _atom_site_label
 _atom_site_symmetry_multiplicity
 _atom_site_fract_x
 _atom_site_fract_y
 _atom_site_fract_z
 _atom_site_occupancy
  Sc  Sc0  1  0.54870266  0.09248631  0.04378365  1
  Sc  Sc1  1  0.45224152  0.49657691  0.54433538  1
  Sc  Sc2  1  0.94979864  0.49529539  0.04549576  1
  Ta  Ta0  1  0.04905539  0.09387570  0.54482031  1
  Ta  Ta1  1  0.75024009  0.90395609  0.65371600  1
  Ta  Ta2  1  0.25089168  0.89682061  0.14592892  1
  Re  Re0  1  0.49530696  0.23286230  0.73227860  1
  Re  Re1  1  0.00058470  0.23286230  0.23755534  1
  Re  Re2  1  0.12164843  0.75885313  0.62594534  1
  Re  Re3  1  0.87909269  0.50060670  0.63202247  1
  Re  Re4  1  0.63290779  0.75885313  0.13720470  1
  Re  Re5  1  0.36858423  0.50060670  0.12151401  1
  Si  Si0  1  0.74837336  0.49508688  0.24671353  1
  Si  Si1  1  0.25269361  0.49841907  0.74572545  1
  Si  Si2  1  0.33025943  0.82890011  0.49268965  1
  Si  Si3  1  0.66810404  0.16361878  0.49831248  1
  Si  Si4  1  0.83621047  0.82890011  0.99864069  1
  Si  Si5  1  0.16530530  0.16361878  0.99551474  1
loop_
_geom_bond_atom_site_label_1
_geom_bond_atom_site_label_2
_geom_bond_distance
_geom_bond_site_symmetry_2
Sc0 Si3 2.685352 1_555
Sc0 Si5 2.685360 1_554
Sc0 Si2 2.688637 1_544
Sc0 Si4 2.688637 1_544
Sc0 Si0 2.762549 1_555
Sc1 Si3 2.682857 1_555
Sc1 Si5 2.682857 1_554
Sc1 Si4 2.685114 1_555
Sc1 Si2 2.685114 1_555
Sc1 Si1 2.746102 1_555
Sc2 Si3 2.672934 1_554
Sc2 Si5 2.672935 1_654
Sc2 Si4 2.673491 1_554
Sc2 Si2 2.673495 1_655
Sc2 Si0 2.764797 1_555
Re0 Si1 2.439880 1_555
Re0 Si0 2.467888 1_556
Re0 Si2 2.567733 1_545
Re0 Si3 2.589103 1_555
Re0 Ta1 2.837521 1_545
Re0 Ta2 2.860722 1_545
Re0 Ta0 2.910253 1_555
Re0 Sc0 2.932657 1_556
Re0 Sc2 2.962173 1_556
Re0 Sc1 2.965030 1_555
Re1 Si1 2.439880 1_555
Re1 Si0 2.467893 1_455
Re1 Si4 2.567735 1_444
Re1 Si5 2.589090 1_554
Re1 Ta1 2.837520 1_444
Re1 Ta2 2.860718 1_545
Re1 Ta0 2.910257 1_555
Re1 Sc0 2.932665 1_455
Re1 Sc2 2.962174 1_455
Re1 Sc1 2.965024 1_555
Re2 Si0 2.423405 1_455
Re2 Si1 2.445301 1_555
Re2 Si5 2.567056 1_565
Re2 Si2 2.620123 1_555
Re2 Ta0 2.847387 1_565
Re2 Sc0 2.885032 1_566
Re2 Ta1 2.903894 1_455
Re2 Ta2 2.908629 1_556
Re2 Sc2 2.958469 1_455
Re2 Sc1 3.014848 1_555
Re3 Si1 2.409959 1_655
Re3 Si0 2.423568 1_555
Re3 Si4 2.589855 1_555
Re3 Si3 2.625685 1_555
Re3 Sc2 2.876586 1_556
Re3 Sc1 2.893033 1_555
Re3 Ta2 2.900073 1_656
Re3 Ta0 2.951145 1_655
Re3 Ta1 2.970312 1_555
Re3 Sc0 2.997041 1_555
Re4 Si0 2.423405 1_555
Re4 Si1 2.445301 1_554
Re4 Si3 2.567054 1_565
Re4 Si4 2.620123 1_554
Re4 Ta0 2.847386 1_665
Re4 Sc0 2.885032 1_565
Re4 Ta1 2.903894 1_555
Re4 Ta2 2.908629 1_555
Re4 Sc2 2.958466 1_555
Re4 Sc1 3.014848 1_554
Re5 Si1 2.409959 1_554
Re5 Si0 2.423568 1_555
Re5 Si2 2.589855 1_555
Re5 Si5 2.625689 1_554
Re5 Sc2 2.876590 1_455
Re5 Sc1 2.893033 1_555
Re5 Ta2 2.900073 1_555
Re5 Ta0 2.951144 1_554
Re5 Ta1 2.970312 1_555
Re5 Sc0 2.997042 1_555
Si0 Ta1 2.809537 1_555
Si1 Ta2 2.762424 1_556
Si1 Ta0 2.796328 1_555
Si2 Ta0 2.668931 1_565
Si2 Ta2 2.672392 1_555
Si2 Ta1 2.678116 1_555
Si3 Ta1 2.661085 1_545
Si3 Ta0 2.672533 1_655
Si3 Ta2 2.680581 1_545
Si4 Ta0 2.668931 1_666
Si4 Ta2 2.672392 1_656
Si4 Ta1 2.678116 1_555
Si5 Ta1 2.661079 1_445
Si5 Ta0 2.672536 1_555
Si5 Ta2 2.680579 1_546
