# generated using pymatgen
data_LuTeI
_symmetry_space_group_name_H-M   'P 1'
_cell_length_a   8.66715802
_cell_length_b   8.66715802
_cell_length_c   6.01245412
_cell_angle_alpha   90.00000000
_cell_angle_beta   90.00000000
_cell_angle_gamma   90.00077101
_symmetry_Int_Tables_number   1
_chemical_formula_structural   LuTeI
_chemical_formula_sum   'Lu4 Te4 I4'
_cell_volume   451.65331729
_cell_formula_units_Z   4
loop_
 _symmetry_equiv_pos_site_id
 _symmetry_equiv_pos_as_xyz
  1  'x, y, z'
loop_
 _atom_site_type_symbol
 _atom_site_label
 _atom_site_symmetry_multiplicity
 _atom_site_fract_x
 _atom_site_fract_y
 _atom_site_fract_z
 _atom_site_occupancy
  Lu  Lu0  1  0.25104071  0.99998770  0.00000000  1
  Lu  Lu1  1  0.99999711  0.74896873  0.50000000  1
  Lu  Lu2  1  0.99998770  0.25104071  0.50000000  1
  Lu  Lu3  1  0.74896873  0.99999711  0.00000000  1
  Te  Te0  1  0.00000312  0.24295389  0.00000000  1
  Te  Te1  1  0.24295389  0.00000312  0.50000000  1
  Te  Te2  1  0.75703739  0.99999320  0.50000000  1
  Te  Te3  1  0.99999320  0.75703739  0.00000000  1
  I  I0  1  0.50001745  0.23702107  0.00000000  1
  I  I1  1  0.23702107  0.50001745  0.50000000  1
  I  I2  1  0.76297541  0.50000324  0.50000000  1
  I  I3  1  0.50000324  0.76297541  0.00000000  1
loop_
_geom_bond_atom_site_label_1
_geom_bond_atom_site_label_2
_geom_bond_distance
_geom_bond_site_symmetry_2
Lu0 Te1 3.007044 1_565
Lu0 Te1 3.007044 1_564
Lu0 Te3 3.027904 1_455
Lu0 Te0 3.027979 1_565
Lu1 Te3 3.007040 1_555
Lu1 Te3 3.007040 1_556
Lu1 Te2 3.027858 1_555
Lu1 Te1 3.027862 1_665
Lu2 Te0 3.007044 1_656
Lu2 Te0 3.007044 1_655
Lu2 Te2 3.027904 1_545
Lu2 Te1 3.027979 1_655
Lu3 Te2 3.007040 1_555
Lu3 Te2 3.007040 1_554
Lu3 Te3 3.027858 1_555
Lu3 Te0 3.027862 1_665
I0 Lu3 2.979268 1_545
I0 Lu0 2.979444 1_545
I1 Lu1 2.979268 1_455
I1 Lu2 2.979444 1_455
I2 Lu2 2.979269 1_555
I2 Lu1 2.979303 1_555
I3 Lu0 2.979269 1_555
I3 Lu3 2.979303 1_555
