# generated using pymatgen
data_SnSb3Mo2
_symmetry_space_group_name_H-M   'P 1'
_cell_length_a   5.31936105
_cell_length_b   5.31936060
_cell_length_c   8.18472606
_cell_angle_alpha   117.48117133
_cell_angle_beta   117.48116856
_cell_angle_gamma   39.44461552
_symmetry_Int_Tables_number   1
_chemical_formula_structural   SnSb3Mo2
_chemical_formula_sum   'Sn1 Sb3 Mo2'
_cell_volume   128.24553525
_cell_formula_units_Z   1
loop_
 _symmetry_equiv_pos_site_id
 _symmetry_equiv_pos_as_xyz
  1  'x, y, z'
loop_
 _atom_site_type_symbol
 _atom_site_label
 _atom_site_symmetry_multiplicity
 _atom_site_fract_x
 _atom_site_fract_y
 _atom_site_fract_z
 _atom_site_occupancy
  Sn  Sn0  1  0.15006191  0.15006191  0.04203822  1
  Sb  Sb0  1  0.59544562  0.59544562  0.38788760  1
  Sb  Sb1  1  0.40625930  0.40625930  0.61096304  1
  Sb  Sb2  1  0.84343113  0.84343113  0.95684291  1
  Mo  Mo0  1  0.85140201  0.85140201  0.31439614  1
  Mo  Mo1  1  0.15339903  0.15339903  0.68787109  1
loop_
_geom_bond_atom_site_label_1
_geom_bond_atom_site_label_2
_geom_bond_distance
_geom_bond_site_symmetry_2
Sb2 Sn0 2.795832 1_666
Sb2 Sn0 2.963541 1_656
Sb2 Sn0 2.963542 1_566
Mo0 Sn0 2.801854 1_655
Mo0 Sn0 2.801854 1_565
Mo0 Sb1 2.847560 1_565
Mo0 Sb1 2.847560 1_655
Mo0 Sb0 2.848859 1_565
Mo0 Sb0 2.848859 1_655
Mo0 Sb2 2.888182 1_554
Mo0 Sb0 2.905866 1_555
Mo1 Sb2 2.753715 1_455
Mo1 Sb2 2.753715 1_545
Mo1 Sb0 2.861898 1_545
Mo1 Sb0 2.861898 1_455
Mo1 Sb1 2.866496 1_545
Mo1 Sb1 2.866496 1_455
Mo1 Sb1 2.893376 1_555
Mo1 Sn0 2.915289 1_556
