# generated using pymatgen
data_Cs6Co(RhBr6)3
_symmetry_space_group_name_H-M   'P 1'
_cell_length_a   7.57216676
_cell_length_b   7.57216711
_cell_length_c   19.04141460
_cell_angle_alpha   90.00000000
_cell_angle_beta   90.00000000
_cell_angle_gamma   120.00000258
_symmetry_Int_Tables_number   1
_chemical_formula_structural   Cs6Co(RhBr6)3
_chemical_formula_sum   'Cs6 Co1 Rh3 Br18'
_cell_volume   945.51884613
_cell_formula_units_Z   1
loop_
 _symmetry_equiv_pos_site_id
 _symmetry_equiv_pos_as_xyz
  1  'x, y, z'
loop_
 _atom_site_type_symbol
 _atom_site_label
 _atom_site_symmetry_multiplicity
 _atom_site_fract_x
 _atom_site_fract_y
 _atom_site_fract_z
 _atom_site_occupancy
  Cs  Cs0  1  0.66666700  0.33333300  0.92734172  1
  Cs  Cs1  1  0.33333300  0.66666700  0.42908532  1
  Cs  Cs2  1  0.66666700  0.33333300  0.57282956  1
  Cs  Cs3  1  0.33333300  0.66666700  0.07109668  1
  Cs  Cs4  1  0.00000000  0.00000000  0.75002100  1
  Cs  Cs5  1  0.00000000  0.00000000  0.24980870  1
  Co  Co0  1  0.33333300  0.66666700  0.83528092  1
  Rh  Rh0  1  0.33333300  0.66666700  0.66718408  1
  Rh  Rh1  1  0.66666700  0.33333300  0.16430730  1
  Rh  Rh2  1  0.66666700  0.33333300  0.33446307  1
  Br  Br0  1  0.82207385  0.64414769  0.40736827  1
  Br  Br1  1  0.18251291  0.36502682  0.90457719  1
  Br  Br2  1  0.18251291  0.81748709  0.90457719  1
  Br  Br3  1  0.17788794  0.35577687  0.59385792  1
  Br  Br4  1  0.63497318  0.81748709  0.90457719  1
  Br  Br5  1  0.35585231  0.17792615  0.40736827  1
  Br  Br6  1  0.03856939  0.51928370  0.75294385  1
  Br  Br7  1  0.82207385  0.17792615  0.40736827  1
  Br  Br8  1  0.51621327  0.03242855  0.24934728  1
  Br  Br9  1  0.48071630  0.51928370  0.75294385  1
  Br  Br10  1  0.51621327  0.48378673  0.24934728  1
  Br  Br11  1  0.96757145  0.48378673  0.24934728  1
  Br  Br12  1  0.35551579  0.17775740  0.09143271  1
  Br  Br13  1  0.48071630  0.96143061  0.75294385  1
  Br  Br14  1  0.82224260  0.64448421  0.09143271  1
  Br  Br15  1  0.17788794  0.82211206  0.59385792  1
  Br  Br16  1  0.64422313  0.82211206  0.59385792  1
  Br  Br17  1  0.82224260  0.17775740  0.09143271  1
loop_
_geom_bond_atom_site_label_1
_geom_bond_atom_site_label_2
_geom_bond_distance
_geom_bond_site_symmetry_2
Br0 Rh2 2.466073 1_555
Br0 Cs2 3.752433 1_555
Br0 Cs5 3.800853 1_665
Br0 Cs1 3.811457 1_655
Br0 Cs1 3.811465 1_555
Br1 Co0 2.377774 1_555
Br1 Cs3 3.737177 1_556
Br1 Cs4 3.793550 1_555
Br1 Cs0 3.816472 1_455
Br1 Cs0 3.816487 1_555
Br2 Co0 2.377774 1_555
Br2 Cs3 3.737177 1_556
Br2 Cs4 3.793545 1_565
Br2 Cs0 3.816479 1_455
Br2 Cs0 3.816479 1_565
Br3 Rh0 2.471002 1_555
Br3 Cs1 3.741699 1_555
Br3 Cs4 3.779594 1_555
Br3 Cs2 3.810034 1_455
Br3 Cs2 3.810049 1_555
Br4 Co0 2.377774 1_555
Br4 Cs3 3.737177 1_556
Br4 Cs4 3.793550 1_665
Br4 Cs0 3.816473 1_565
Br4 Cs0 3.816488 1_555
Br5 Rh2 2.466073 1_555
Br5 Cs2 3.752433 1_555
Br5 Cs5 3.800853 1_555
Br5 Cs1 3.811458 1_545
Br5 Cs1 3.811465 1_555
Br6 Co0 2.488857 1_555
Br6 Rh0 2.530417 1_555
Br6 Cs4 3.794923 1_555
Br6 Cs4 3.794938 1_565
Br6 Cs0 4.120126 1_455
Br6 Cs2 4.208350 1_455
Br7 Rh2 2.466067 1_555
Br7 Cs2 3.752430 1_555
Br7 Cs5 3.800853 1_655
Br7 Cs1 3.811461 1_655
Br7 Cs1 3.811461 1_545
Br8 Rh1 2.552595 1_555
Br8 Rh2 2.553511 1_555
Br8 Cs5 3.792054 1_555
Br8 Cs5 3.792069 1_655
Br8 Cs3 4.156111 1_545
Br8 Cs1 4.179273 1_545
Br9 Co0 2.488872 1_555
Br9 Rh0 2.530433 1_555
Br9 Cs4 3.794929 1_665
Br9 Cs4 3.794929 1_555
Br9 Cs0 4.120122 1_555
Br9 Cs2 4.208346 1_555
Br10 Rh1 2.552610 1_555
Br10 Rh2 2.553526 1_555
Br10 Cs5 3.792060 1_555
Br10 Cs5 3.792060 1_665
Br10 Cs3 4.156107 1_555
Br10 Cs1 4.179269 1_555
Br11 Rh1 2.552595 1_555
Br11 Rh2 2.553511 1_555
Br11 Cs5 3.792054 1_665
Br11 Cs5 3.792069 1_655
Br11 Cs3 4.156110 1_655
Br11 Cs1 4.179273 1_655
Br12 Rh1 2.467569 1_555
Br12 Cs0 3.731758 1_554
Br12 Cs3 3.808606 1_545
Br12 Cs3 3.808621 1_555
Br12 Cs5 3.811786 1_555
Br13 Co0 2.488857 1_555
Br13 Rh0 2.530418 1_555
Br13 Cs4 3.794923 1_665
Br13 Cs4 3.794938 1_565
Br13 Cs0 4.120126 1_565
Br13 Cs2 4.208350 1_565
Br14 Rh1 2.467569 1_555
Br14 Cs0 3.731758 1_554
Br14 Cs3 3.808605 1_655
Br14 Cs3 3.808621 1_555
Br14 Cs5 3.811786 1_665
Br15 Rh0 2.471002 1_555
Br15 Cs1 3.741699 1_555
Br15 Cs4 3.779590 1_565
Br15 Cs2 3.810041 1_455
Br15 Cs2 3.810041 1_565
Br16 Rh0 2.471002 1_555
Br16 Cs1 3.741699 1_555
Br16 Cs4 3.779594 1_665
Br16 Cs2 3.810034 1_565
Br16 Cs2 3.810049 1_555
Br17 Rh1 2.467569 1_555
Br17 Cs0 3.731758 1_554
Br17 Cs3 3.808612 1_655
Br17 Cs3 3.808612 1_545
Br17 Cs5 3.811782 1_655
