# generated using pymatgen
data_Ca2In2AgHg
_symmetry_space_group_name_H-M   'P 1'
_cell_length_a   6.13880604
_cell_length_b   6.13880581
_cell_length_c   7.54437067
_cell_angle_alpha   52.25980118
_cell_angle_beta   52.25979965
_cell_angle_gamma   46.41886604
_symmetry_Int_Tables_number   1
_chemical_formula_structural   Ca2In2AgHg
_chemical_formula_sum   'Ca2 In2 Ag1 Hg1'
_cell_volume   153.63495252
_cell_formula_units_Z   1
loop_
 _symmetry_equiv_pos_site_id
 _symmetry_equiv_pos_as_xyz
  1  'x, y, z'
loop_
 _atom_site_type_symbol
 _atom_site_label
 _atom_site_symmetry_multiplicity
 _atom_site_fract_x
 _atom_site_fract_y
 _atom_site_fract_z
 _atom_site_occupancy
  Ca  Ca0  1  0.53817989  0.53817989  0.71398775  1
  Ca  Ca1  1  0.46317921  0.46317921  0.28592080  1
  In  In0  1  0.84303372  0.84303372  0.70558443  1
  In  In1  1  0.82809210  0.82809210  0.12200115  1
  Ag  Ag0  1  0.16578453  0.16578453  0.29842298  1
  Hg  Hg0  1  0.16173254  0.16173254  0.87408589  1
loop_
_geom_bond_atom_site_label_1
_geom_bond_atom_site_label_2
_geom_bond_distance
_geom_bond_site_symmetry_2
Ca0 In0 3.300260 1_545
Ca0 In0 3.300260 1_455
Ca0 In1 3.344838 1_555
Ca0 In1 3.350877 1_456
Ca0 In1 3.350877 1_546
Ca0 Hg0 3.390919 1_565
Ca0 Hg0 3.390919 1_655
Ca0 In0 3.398075 1_555
Ca0 Hg0 3.559360 1_555
Ca0 Ca1 3.804005 1_556
Ca0 Ca1 3.845298 1_555
Ca1 Hg0 3.340077 1_555
Ca1 Hg0 3.354720 1_654
Ca1 Hg0 3.354720 1_564
Ca1 In1 3.420816 1_555
Ca1 In0 3.463778 1_455
Ca1 In0 3.463778 1_545
Ca1 In1 3.495224 1_545
Ca1 In1 3.495224 1_455
Ca1 In0 3.541927 1_554
In0 In1 3.031927 1_556
Ag0 In1 2.780609 1_455
Ag0 In1 2.780609 1_545
Ag0 In0 2.792587 1_445
Ag0 Hg0 3.231987 1_554
Ag0 Ca1 3.293735 1_555
Ag0 Ca1 3.372779 1_545
Ag0 Ca1 3.372779 1_455
Ag0 Ca0 3.426742 1_455
Ag0 Ca0 3.426742 1_545
Ag0 Ca0 3.524243 1_554
Hg0 In0 2.861844 1_455
Hg0 In0 2.861844 1_545
Hg0 In1 2.879741 1_446
