# generated using pymatgen
data_Sr10Si4GeBi
_symmetry_space_group_name_H-M   'P 1'
_cell_length_a   9.82643551
_cell_length_b   9.82643448
_cell_length_c   9.82643521
_cell_angle_alpha   130.67078185
_cell_angle_beta   130.67077834
_cell_angle_gamma   72.33666588
_symmetry_Int_Tables_number   1
_chemical_formula_structural   Sr10Si4GeBi
_chemical_formula_sum   'Sr10 Si4 Ge1 Bi1'
_cell_volume   533.56166490
_cell_formula_units_Z   1
loop_
 _symmetry_equiv_pos_site_id
 _symmetry_equiv_pos_as_xyz
  1  'x, y, z'
loop_
 _atom_site_type_symbol
 _atom_site_label
 _atom_site_symmetry_multiplicity
 _atom_site_fract_x
 _atom_site_fract_y
 _atom_site_fract_z
 _atom_site_occupancy
  Sr  Sr0  1  0.04887881  0.19526367  0.52035532  1
  Sr  Sr1  1  0.52852449  0.04887881  0.85361615  1
  Sr  Sr2  1  0.19526367  0.67490834  0.14638385  1
  Sr  Sr3  1  0.45112119  0.97147551  0.14638385  1
  Sr  Sr4  1  0.67490834  0.52852449  0.47964468  1
  Sr  Sr5  1  0.97147551  0.82509166  0.52035532  1
  Sr  Sr6  1  0.30473633  0.45112119  0.47964468  1
  Sr  Sr7  1  0.82509166  0.30473633  0.85361615  1
  Sr  Sr8  1  0.51063056  0.51063056  0.00000000  1
  Sr  Sr9  1  0.98936944  0.98936944  0.00000000  1
  Si  Si0  1  0.10843024  0.60843024  0.71686147  1
  Si  Si1  1  0.60843024  0.89156976  0.50000000  1
  Si  Si2  1  0.39156976  0.10843024  0.50000000  1
  Si  Si3  1  0.89156976  0.39156976  0.28313853  1
  Ge  Ge0  1  0.25000000  0.25000000  0.00000000  1
  Bi  Bi0  1  0.75000000  0.75000000  0.00000000  1
loop_
_geom_bond_atom_site_label_1
_geom_bond_atom_site_label_2
_geom_bond_distance
_geom_bond_site_symmetry_2
Si0 Si3 2.515231 1_455
Si0 Sr0 3.210122 1_555
Si0 Sr5 3.210131 1_455
Si0 Sr4 3.301316 1_455
Si0 Sr6 3.301329 1_555
Si0 Sr2 3.319540 1_556
Si0 Sr3 3.319555 1_556
Si0 Sr9 3.336477 1_456
Si0 Sr8 3.336478 1_556
Si1 Si2 2.515219 1_565
Si1 Sr7 3.210124 1_565
Si1 Sr2 3.210124 1_555
Si1 Sr1 3.301322 1_565
Si1 Sr3 3.301322 1_555
Si1 Sr4 3.319549 1_555
Si1 Sr5 3.319549 1_555
Si1 Sr8 3.336480 1_555
Si1 Sr9 3.336480 1_556
Si2 Sr3 3.210131 1_545
Si2 Sr1 3.210131 1_555
Si2 Sr2 3.301319 1_545
Si2 Sr7 3.301319 1_555
Si2 Sr6 3.319558 1_555
Si2 Sr0 3.319559 1_555
Si2 Sr8 3.336480 1_556
Si2 Sr9 3.336480 1_445
Si3 Sr6 3.210122 1_655
Si3 Sr4 3.210131 1_555
Si3 Sr5 3.301316 1_555
Si3 Sr0 3.301328 1_655
Si3 Sr7 3.319540 1_554
Si3 Sr1 3.319555 1_554
Si3 Sr8 3.336477 1_555
Si3 Sr9 3.336477 1_545
Ge0 Sr6 3.407214 1_555
Ge0 Sr0 3.407214 1_554
Ge0 Sr2 3.407216 1_555
Ge0 Sr5 3.407217 1_444
Ge0 Sr4 3.407217 1_555
Ge0 Sr7 3.407217 1_454
Ge0 Sr3 3.407217 1_545
Ge0 Sr1 3.407217 1_554
Bi0 Sr1 3.602523 1_564
Bi0 Sr3 3.602523 1_555
Bi0 Sr0 3.602529 1_665
Bi0 Sr6 3.602530 1_554
Bi0 Sr7 3.602532 1_554
Bi0 Sr4 3.602532 1_554
Bi0 Sr5 3.602532 1_555
Bi0 Sr2 3.602532 1_655
Bi0 Sr9 3.797716 1_555
Bi0 Sr8 3.797716 1_555
