# generated using pymatgen
data_Zr6Zn17HgPt6
_symmetry_space_group_name_H-M   'P 1'
_cell_length_a   8.81769159
_cell_length_b   8.81769120
_cell_length_c   8.81769259
_cell_angle_alpha   60.00000569
_cell_angle_beta   60.00000716
_cell_angle_gamma   60.00000331
_symmetry_Int_Tables_number   1
_chemical_formula_structural   Zr6Zn17HgPt6
_chemical_formula_sum   'Zr6 Zn17 Hg1 Pt6'
_cell_volume   484.78569857
_cell_formula_units_Z   1
loop_
 _symmetry_equiv_pos_site_id
 _symmetry_equiv_pos_as_xyz
  1  'x, y, z'
loop_
 _atom_site_type_symbol
 _atom_site_label
 _atom_site_symmetry_multiplicity
 _atom_site_fract_x
 _atom_site_fract_y
 _atom_site_fract_z
 _atom_site_occupancy
  Zr  Zr0  1  0.76911245  0.23088755  0.23088755  1
  Zr  Zr1  1  0.23088755  0.76911245  0.76911245  1
  Zr  Zr2  1  0.23088755  0.76911245  0.23088755  1
  Zr  Zr3  1  0.76911245  0.23088755  0.76911245  1
  Zr  Zr4  1  0.23088755  0.23088755  0.76911245  1
  Zr  Zr5  1  0.76911245  0.76911245  0.23088755  1
  Zn  Zn0  1  0.14822552  0.14822552  0.14822552  1
  Zn  Zn1  1  0.85177448  0.85177448  0.85177448  1
  Zn  Zn2  1  0.14822552  0.14822552  0.55532344  1
  Zn  Zn3  1  0.14822552  0.55532344  0.14822552  1
  Zn  Zn4  1  0.85177448  0.85177448  0.44467656  1
  Zn  Zn5  1  0.85177448  0.44467656  0.85177448  1
  Zn  Zn6  1  0.55532344  0.14822552  0.14822552  1
  Zn  Zn7  1  0.44467656  0.85177448  0.85177448  1
  Zn  Zn8  1  0.36624771  0.36624771  0.36624771  1
  Zn  Zn9  1  0.63375229  0.63375229  0.63375229  1
  Zn  Zn10  1  0.36624771  0.36624771  0.90125988  1
  Zn  Zn11  1  0.36624771  0.90125988  0.36624771  1
  Zn  Zn12  1  0.63375229  0.63375229  0.09874012  1
  Zn  Zn13  1  0.63375229  0.09874012  0.63375229  1
  Zn  Zn14  1  0.90125988  0.36624771  0.36624771  1
  Zn  Zn15  1  0.09874012  0.63375229  0.63375229  1
  Zn  Zn16  1  0.00000000  0.00000000  0.00000000  1
  Hg  Hg0  1  0.50000000  0.50000000  0.50000000  1
  Pt  Pt0  1  0.50000000  0.00000000  0.00000000  1
  Pt  Pt1  1  0.00000000  0.50000000  0.50000000  1
  Pt  Pt2  1  0.00000000  0.50000000  0.00000000  1
  Pt  Pt3  1  0.50000000  0.00000000  0.50000000  1
  Pt  Pt4  1  0.00000000  0.00000000  0.50000000  1
  Pt  Pt5  1  0.50000000  0.50000000  0.00000000  1
loop_
_geom_bond_atom_site_label_1
_geom_bond_atom_site_label_2
_geom_bond_distance
_geom_bond_site_symmetry_2
Zn0 Zn11 2.730711 1_545
Zn0 Zn10 2.730711 1_554
Zn0 Zn14 2.730711 1_455
Zn0 Zr2 2.809915 1_545
Zn0 Zr0 2.809916 1_455
Zn0 Zr4 2.809916 1_554
Zn1 Zn13 2.730711 1_565
Zn1 Zn12 2.730711 1_556
Zn1 Zn15 2.730711 1_655
Zn1 Zr3 2.809915 1_565
Zn1 Zr1 2.809916 1_655
Zn1 Zr5 2.809916 1_556
Zn2 Zn8 2.730713 1_555
Zn2 Zr4 2.809915 1_555
Zn2 Zr1 2.809916 1_545
Zn2 Zr3 2.809916 1_455
Zn3 Zn8 2.730713 1_555
Zn3 Zr2 2.809915 1_555
Zn3 Zr5 2.809916 1_455
Zn3 Zr1 2.809916 1_554
Zn4 Zn9 2.730713 1_555
Zn4 Zr5 2.809915 1_555
Zn4 Zr0 2.809916 1_565
Zn4 Zr2 2.809916 1_655
Zn5 Zn9 2.730713 1_555
Zn5 Zr3 2.809915 1_555
Zn5 Zr4 2.809916 1_655
Zn5 Zr0 2.809916 1_556
Zn6 Zn8 2.730713 1_555
Zn6 Zr0 2.809915 1_555
Zn6 Zr5 2.809915 1_545
Zn6 Zr3 2.809916 1_554
Zn7 Zn9 2.730713 1_555
Zn7 Zr1 2.809915 1_555
Zn7 Zr4 2.809915 1_565
Zn7 Zr2 2.809916 1_556
Zn8 Zr2 2.900517 1_555
Zn8 Zr0 2.900517 1_555
Zn8 Zr4 2.900518 1_555
Zn9 Zr3 2.900517 1_555
Zn9 Zr1 2.900517 1_555
Zn9 Zr5 2.900518 1_555
Zn10 Zn6 2.730694 1_556
Zn10 Zn3 2.730694 1_556
Zn10 Zr1 2.900517 1_555
Zn10 Zr3 2.900517 1_555
Zn10 Zr4 2.900539 1_555
Zn11 Zn6 2.730693 1_565
Zn11 Zn2 2.730693 1_565
Zn11 Zr5 2.900517 1_555
Zn11 Zr1 2.900518 1_555
Zn11 Zr2 2.900539 1_555
Zn12 Zn7 2.730694 1_554
Zn12 Zn5 2.730694 1_554
Zn12 Zr0 2.900517 1_555
Zn12 Zr2 2.900517 1_555
Zn12 Zr5 2.900539 1_555
Zn13 Zn7 2.730693 1_545
Zn13 Zn4 2.730693 1_545
Zn13 Zr4 2.900517 1_555
Zn13 Zr0 2.900518 1_555
Zn13 Zr3 2.900539 1_555
Zn14 Zn3 2.730693 1_655
Zn14 Zn2 2.730693 1_655
Zn14 Zr5 2.900517 1_555
Zn14 Zr3 2.900518 1_555
Zn14 Zr0 2.900539 1_555
Zn15 Zn5 2.730693 1_455
Zn15 Zn4 2.730693 1_455
Zn15 Zr4 2.900517 1_555
Zn15 Zr2 2.900518 1_555
Zn15 Zr1 2.900539 1_555
Zn16 Zr4 2.879191 1_554
Zn16 Zr5 2.879191 1_445
Zn16 Zr2 2.879191 1_545
Zn16 Zr0 2.879191 1_455
Zn16 Zr1 2.879191 1_544
Zn16 Zr3 2.879191 1_454
Hg0 Zn9 2.888895 1_555
Hg0 Zn8 2.888895 1_555
Hg0 Zn11 2.888917 1_555
Hg0 Zn13 2.888917 1_555
Hg0 Zn14 2.888917 1_555
Hg0 Zn15 2.888917 1_555
Hg0 Zn10 2.888917 1_555
Hg0 Zn12 2.888917 1_555
Hg0 Zr5 3.355859 1_555
Hg0 Zr4 3.355859 1_555
Hg0 Zr1 3.355859 1_555
Hg0 Zr3 3.355859 1_555
Hg0 Zr0 3.355859 1_555
Hg0 Zr2 3.355859 1_555
Pt0 Zn6 2.576423 1_555
Pt0 Zn7 2.576423 1_544
Pt0 Zn1 2.576423 1_544
Pt0 Zn0 2.576423 1_555
Pt0 Zn10 2.642861 1_554
Pt0 Zn12 2.642861 1_545
Pt0 Zn11 2.642861 1_545
Pt0 Zn13 2.642861 1_554
Pt0 Zr3 3.126622 1_554
Pt0 Zr2 3.126622 1_545
Pt0 Zr5 3.126622 1_545
Pt0 Zr4 3.126622 1_554
Pt1 Zn4 2.576423 1_455
Pt1 Zn2 2.576423 1_555
Pt1 Zn5 2.576424 1_455
Pt1 Zn3 2.576424 1_555
Pt1 Zn15 2.642838 1_555
Pt1 Zn14 2.642838 1_455
Pt1 Zn8 2.642859 1_555
Pt1 Zn9 2.642859 1_455
Pt1 Zr2 3.126622 1_555
Pt1 Zr3 3.126622 1_455
Pt1 Zr4 3.126622 1_555
Pt1 Zr5 3.126622 1_455
Pt2 Zn3 2.576423 1_555
Pt2 Zn5 2.576423 1_454
Pt2 Zn0 2.576423 1_555
Pt2 Zn1 2.576423 1_454
Pt2 Zn10 2.642861 1_554
Pt2 Zn12 2.642861 1_455
Pt2 Zn14 2.642861 1_455
Pt2 Zn15 2.642861 1_554
Pt2 Zr1 3.126622 1_554
Pt2 Zr0 3.126622 1_455
Pt2 Zr5 3.126622 1_455
Pt2 Zr4 3.126622 1_554
Pt3 Zn4 2.576423 1_545
Pt3 Zn2 2.576423 1_555
Pt3 Zn7 2.576424 1_545
Pt3 Zn6 2.576424 1_555
Pt3 Zn13 2.642838 1_555
Pt3 Zn11 2.642838 1_545
Pt3 Zn8 2.642859 1_555
Pt3 Zn9 2.642859 1_545
Pt3 Zr0 3.126622 1_555
Pt3 Zr1 3.126622 1_545
Pt3 Zr4 3.126622 1_555
Pt3 Zr5 3.126622 1_545
Pt4 Zn2 2.576423 1_555
Pt4 Zn4 2.576423 1_445
Pt4 Zn0 2.576424 1_555
Pt4 Zn1 2.576424 1_445
Pt4 Zn14 2.642861 1_455
Pt4 Zn15 2.642861 1_545
Pt4 Zn11 2.642861 1_545
Pt4 Zn13 2.642861 1_455
Pt4 Zr3 3.126622 1_455
Pt4 Zr1 3.126622 1_545
Pt4 Zr0 3.126622 1_455
Pt4 Zr2 3.126622 1_545
Pt5 Zn7 2.576423 1_554
Pt5 Zn6 2.576423 1_555
Pt5 Zn5 2.576423 1_554
Pt5 Zn3 2.576423 1_555
Pt5 Zn12 2.642838 1_555
Pt5 Zn10 2.642838 1_554
Pt5 Zn8 2.642860 1_555
Pt5 Zn9 2.642860 1_554
Pt5 Zr0 3.126622 1_555
Pt5 Zr2 3.126622 1_555
Pt5 Zr3 3.126622 1_554
Pt5 Zr1 3.126622 1_554
