# generated using pymatgen
data_Rb2Sb4Te7
_symmetry_space_group_name_H-M   'P 1'
_cell_length_a   4.41743574
_cell_length_b   13.77263901
_cell_length_c   16.07762672
_cell_angle_alpha   85.91625793
_cell_angle_beta   90.00000000
_cell_angle_gamma   90.00000000
_symmetry_Int_Tables_number   1
_chemical_formula_structural   Rb2Sb4Te7
_chemical_formula_sum   'Rb4 Sb8 Te14'
_cell_volume   975.67523903
_cell_formula_units_Z   2
loop_
 _symmetry_equiv_pos_site_id
 _symmetry_equiv_pos_as_xyz
  1  'x, y, z'
loop_
 _atom_site_type_symbol
 _atom_site_label
 _atom_site_symmetry_multiplicity
 _atom_site_fract_x
 _atom_site_fract_y
 _atom_site_fract_z
 _atom_site_occupancy
  Rb  Rb0  1  0.25000000  0.56913805  0.80964194  1
  Rb  Rb1  1  0.75000000  0.43086195  0.19035806  1
  Rb  Rb2  1  0.75000000  0.82669455  0.62390473  1
  Rb  Rb3  1  0.25000000  0.17330545  0.37609527  1
  Sb  Sb0  1  0.25000000  0.94881549  0.87646404  1
  Sb  Sb1  1  0.75000000  0.05118451  0.12353596  1
  Sb  Sb2  1  0.25000000  0.82999177  0.27320444  1
  Sb  Sb3  1  0.75000000  0.17000823  0.72679556  1
  Sb  Sb4  1  0.75000000  0.73190519  0.04701880  1
  Sb  Sb5  1  0.25000000  0.26809481  0.95298120  1
  Sb  Sb6  1  0.75000000  0.60938384  0.43019101  1
  Sb  Sb7  1  0.25000000  0.39061616  0.56980899  1
  Te  Te0  1  0.25000000  0.45789138  0.38992078  1
  Te  Te1  1  0.75000000  0.54210862  0.61007922  1
  Te  Te2  1  0.25000000  0.59201223  0.03442332  1
  Te  Te3  1  0.75000000  0.40798777  0.96557668  1
  Te  Te4  1  0.75000000  0.98792430  0.30019633  1
  Te  Te5  1  0.25000000  0.01207570  0.69980367  1
  Te  Te6  1  0.75000000  0.79204525  0.85979155  1
  Te  Te7  1  0.25000000  0.20795475  0.14020845  1
  Te  Te8  1  0.25000000  0.76022380  0.45542095  1
  Te  Te9  1  0.75000000  0.23977620  0.54457905  1
  Te  Te10  1  0.75000000  0.68732794  0.24050232  1
  Te  Te11  1  0.25000000  0.31267206  0.75949768  1
  Te  Te12  1  0.25000000  0.90243115  0.08395876  1
  Te  Te13  1  0.75000000  0.09756885  0.91604124  1
loop_
_geom_bond_atom_site_label_1
_geom_bond_atom_site_label_2
_geom_bond_distance
_geom_bond_site_symmetry_2
Rb0 Te2 3.649939 1_556
Rb0 Te11 3.678598 1_555
Rb0 Te3 3.911175 1_555
Rb0 Te3 3.911175 1_455
Rb0 Te6 3.912303 1_555
Rb0 Te6 3.912303 1_455
Rb0 Te1 3.934663 1_555
Rb0 Te1 3.934663 1_455
Rb1 Te3 3.649939 1_554
Rb1 Te10 3.678598 1_555
Rb1 Te2 3.911175 1_555
Rb1 Te2 3.911175 1_655
Rb1 Te7 3.912303 1_555
Rb1 Te7 3.912303 1_655
Rb1 Te0 3.934663 1_655
Rb1 Te0 3.934663 1_555
Rb2 Te5 3.651030 1_565
Rb2 Te5 3.651030 1_665
Rb2 Te8 3.661617 1_655
Rb2 Te8 3.661617 1_555
Rb2 Te6 3.788538 1_555
Rb2 Te1 3.941570 1_555
Rb3 Te4 3.651030 1_545
Rb3 Te4 3.651030 1_445
Rb3 Te9 3.661617 1_555
Rb3 Te9 3.661617 1_455
Rb3 Te7 3.788538 1_555
Rb3 Te0 3.941570 1_555
Sb0 Te5 2.910983 1_565
Sb0 Te13 3.109063 1_565
Sb0 Te13 3.109063 1_465
Sb0 Te6 3.113616 1_455
Sb0 Te6 3.113616 1_555
Sb0 Te12 3.351659 1_556
Sb1 Te4 2.910983 1_545
Sb1 Te12 3.109063 1_645
Sb1 Te12 3.109063 1_545
Sb1 Te7 3.113616 1_555
Sb1 Te7 3.113616 1_655
Sb1 Te13 3.351659 1_554
Sb2 Te8 3.017445 1_555
Sb2 Te10 3.026991 1_455
Sb2 Te10 3.026991 1_555
Sb2 Te12 3.133777 1_555
Sb2 Te4 3.151583 1_555
Sb2 Te4 3.151583 1_455
Sb3 Te9 3.017445 1_555
Sb3 Te11 3.026991 1_555
Sb3 Te11 3.026991 1_655
Sb3 Te13 3.133777 1_555
Sb3 Te5 3.151583 1_555
Sb3 Te5 3.151583 1_655
Sb4 Te2 2.947400 1_655
Sb4 Te2 2.947400 1_555
Sb4 Te6 3.064648 1_554
Sb4 Te10 3.127574 1_555
Sb4 Te12 3.308431 1_555
Sb4 Te12 3.308431 1_655
Sb5 Te3 2.947400 1_455
Sb5 Te3 2.947400 1_555
Sb5 Te7 3.064648 1_556
Sb5 Te11 3.127574 1_555
Sb5 Te13 3.308431 1_455
Sb5 Te13 3.308431 1_555
Sb6 Te1 2.973468 1_555
Sb6 Te8 3.078776 1_655
Sb6 Te8 3.078776 1_555
Sb6 Te0 3.137404 1_655
Sb6 Te0 3.137404 1_555
Sb6 Te10 3.160227 1_555
Sb7 Te0 2.973468 1_555
Sb7 Te9 3.078776 1_555
Sb7 Te9 3.078776 1_455
Sb7 Te1 3.137404 1_455
Sb7 Te1 3.137404 1_555
Sb7 Te11 3.160227 1_555
