# generated using pymatgen
data_Y16In6IrOs
_symmetry_space_group_name_H-M   'P 1'
_cell_length_a   10.40201659
_cell_length_b   10.40201660
_cell_length_c   7.15209905
_cell_angle_alpha   90.00006593
_cell_angle_beta   89.99993407
_cell_angle_gamma   119.99980531
_symmetry_Int_Tables_number   1
_chemical_formula_structural   Y16In6IrOs
_chemical_formula_sum   'Y16 In6 Ir1 Os1'
_cell_volume   670.19331009
_cell_formula_units_Z   1
loop_
 _symmetry_equiv_pos_site_id
 _symmetry_equiv_pos_as_xyz
  1  'x, y, z'
loop_
 _atom_site_type_symbol
 _atom_site_label
 _atom_site_symmetry_multiplicity
 _atom_site_fract_x
 _atom_site_fract_y
 _atom_site_fract_z
 _atom_site_occupancy
  Y  Y0  1  0.46407360  0.53592640  0.48189834  1
  Y  Y1  1  0.07185616  0.53592688  0.48189871  1
  Y  Y2  1  0.46407312  0.92814384  0.48189871  1
  Y  Y3  1  0.53462882  0.46537118  0.98124741  1
  Y  Y4  1  0.93073790  0.46536938  0.98124900  1
  Y  Y5  1  0.53463062  0.06926210  0.98124900  1
  Y  Y6  1  0.82398137  0.17601863  0.27579406  1
  Y  Y7  1  0.35203193  0.17601518  0.27579246  1
  Y  Y8  1  0.82398482  0.64796807  0.27579246  1
  Y  Y9  1  0.17608091  0.82391909  0.77573429  1
  Y  Y10  1  0.64784206  0.82392154  0.77573442  1
  Y  Y11  1  0.17607846  0.35215794  0.77573442  1
  Y  Y12  1  0.33333289  0.66666711  0.09922922  1
  Y  Y13  1  0.66666679  0.33333321  0.59798834  1
  Y  Y14  1  0.99999936  0.00000064  0.49563674  1
  Y  Y15  1  0.99999931  0.00000069  0.99634864  1
  In  In0  1  0.16298833  0.83701167  0.23255799  1
  In  In1  1  0.67402402  0.83701398  0.23255800  1
  In  In2  1  0.16298602  0.32597598  0.23255800  1
  In  In3  1  0.83646969  0.16353031  0.73206838  1
  In  In4  1  0.32705892  0.16352811  0.73206763  1
  In  In5  1  0.83647189  0.67294108  0.73206763  1
  Ir  Ir0  1  0.66666871  0.33333129  0.20787618  1
  Os  Os0  1  0.33333430  0.66666570  0.70957501  1
loop_
_geom_bond_atom_site_label_1
_geom_bond_atom_site_label_2
_geom_bond_distance
_geom_bond_site_symmetry_2
Y0 Y11 3.364293 1_555
Y0 Y10 3.364293 1_555
Y0 Y12 3.610968 1_555
Y0 Y8 3.630986 1_555
Y0 Y7 3.630986 1_555
Y0 Y13 3.743325 1_555
Y0 Y3 3.790879 1_555
Y0 Y3 3.799649 1_554
Y1 Y11 3.364263 1_555
Y1 Y9 3.364268 1_555
Y1 Y12 3.610943 1_555
Y1 Y6 3.630977 1_455
Y1 Y8 3.630997 1_455
Y1 Y13 3.743359 1_455
Y1 Y4 3.790910 1_455
Y1 Y4 3.799668 1_454
Y2 Y9 3.364268 1_555
Y2 Y6 3.630977 1_565
Y2 Y7 3.630997 1_565
Y2 Y5 3.790910 1_565
Y2 Y5 3.799668 1_564
Y3 Y8 3.374612 1_556
Y3 Y7 3.374612 1_556
Y4 Y8 3.374570 1_556
Y4 Y6 3.374574 1_556
Y4 Y9 3.614625 1_655
Y5 Y7 3.374570 1_556
Y5 Y6 3.374574 1_556
Y5 Y9 3.614625 1_545
Y10 Y2 3.364263 1_555
Y10 Y15 3.543113 1_565
Y10 Y3 3.614610 1_555
Y10 Y5 3.614624 1_565
Y10 Y12 3.657903 1_556
Y10 Y14 3.751955 1_565
Y11 Y15 3.543113 1_455
Y11 Y3 3.614610 1_555
Y11 Y4 3.614624 1_455
Y11 Y12 3.657903 1_556
Y11 Y14 3.751955 1_455
Y12 Y2 3.610943 1_555
Y12 Y9 3.657865 1_554
Y12 Y3 3.723579 1_554
Y12 Y4 3.723616 1_454
Y12 Y5 3.723616 1_564
Y13 Y4 3.629427 1_555
Y13 Y5 3.629427 1_555
Y13 Y3 3.629439 1_555
Y13 Y6 3.652858 1_555
Y13 Y7 3.652915 1_555
Y13 Y8 3.652915 1_555
Y13 Y2 3.743359 1_545
Y14 Y7 3.539656 1_655
Y14 Y8 3.539656 1_545
Y14 Y6 3.539673 1_555
Y14 Y15 3.570958 1_554
Y14 Y15 3.581141 1_555
Y14 Y9 3.751994 1_645
Y15 Y9 3.543150 1_645
Y15 Y7 3.748512 1_656
Y15 Y8 3.748512 1_546
Y15 Y6 3.748532 1_556
In0 Y8 3.076228 1_455
In0 Y7 3.076228 1_565
In0 Y12 3.213793 1_555
In0 Y9 3.275752 1_554
In0 Y2 3.304342 1_555
In0 Y1 3.304342 1_555
In0 Y15 3.387821 1_464
In0 Y14 3.487627 1_465
In0 Y5 3.830453 1_564
In0 Y4 3.830453 1_454
In0 Y9 3.892006 1_555
In1 Y6 3.076240 1_565
In1 Y8 3.076248 1_555
In1 Y12 3.213821 1_555
In1 Y10 3.275750 1_554
In1 Y2 3.304304 1_555
In1 Y0 3.304356 1_555
In1 Y15 3.387805 1_564
In1 Y14 3.487618 1_565
In1 Y5 3.830438 1_564
In1 Y3 3.830455 1_554
In1 Y10 3.892005 1_555
In2 Y6 3.076240 1_455
In2 Y7 3.076248 1_555
In2 Y12 3.213821 1_555
In2 Y11 3.275750 1_554
In2 Y1 3.304304 1_555
In2 Y0 3.304356 1_555
In2 Y15 3.387805 1_454
In2 Y14 3.487618 1_455
In2 Y4 3.830438 1_454
In2 Y3 3.830455 1_554
In2 Y11 3.892005 1_555
In3 Y11 3.081468 1_655
In3 Y10 3.081468 1_545
In3 Y13 3.206080 1_555
In3 Y6 3.271067 1_555
In3 Y5 3.304063 1_555
In3 Y4 3.304063 1_555
In3 Y14 3.397055 1_555
In3 Y15 3.500469 1_555
In3 Y2 3.836307 1_545
In3 Y1 3.836307 1_655
In3 Y6 3.895283 1_556
In4 Y9 3.081472 1_545
In4 Y11 3.081473 1_555
In4 Y13 3.206103 1_555
In4 Y7 3.271070 1_555
In4 Y5 3.304057 1_555
In4 Y3 3.304088 1_555
In4 Y14 3.397065 1_455
In4 Y15 3.500479 1_455
In4 Y2 3.836302 1_545
In4 Y0 3.836311 1_555
In4 Y7 3.895276 1_556
In5 Y9 3.081472 1_655
In5 Y10 3.081473 1_555
In5 Y13 3.206103 1_555
In5 Y8 3.271070 1_555
In5 Y4 3.304057 1_555
In5 Y3 3.304088 1_555
In5 Y14 3.397065 1_565
In5 Y15 3.500479 1_565
In5 Y1 3.836302 1_655
In5 Y0 3.836311 1_555
In5 Y8 3.895276 1_556
Ir0 Y13 2.790121 1_555
Ir0 Y6 2.875597 1_555
Ir0 Y7 2.875704 1_555
Ir0 Y8 2.875704 1_555
Ir0 Y4 2.878559 1_554
Ir0 Y5 2.878559 1_554
Ir0 Y3 2.878641 1_554
Os0 Y12 2.786846 1_556
Os0 Y0 2.863558 1_555
Os0 Y1 2.863562 1_555
Os0 Y2 2.863562 1_555
Os0 Y9 2.872444 1_555
Os0 Y10 2.872462 1_555
Os0 Y11 2.872462 1_555
