# generated using pymatgen
data_Ba(Mo3S4)2
_symmetry_space_group_name_H-M   'P 1'
_cell_length_a   6.71685884
_cell_length_b   6.71685906
_cell_length_c   6.71685956
_cell_angle_alpha   88.76029447
_cell_angle_beta   88.76028191
_cell_angle_gamma   88.76028074
_symmetry_Int_Tables_number   1
_chemical_formula_structural   Ba(Mo3S4)2
_chemical_formula_sum   'Ba1 Mo6 S8'
_cell_volume   302.82936156
_cell_formula_units_Z   1
loop_
 _symmetry_equiv_pos_site_id
 _symmetry_equiv_pos_as_xyz
  1  'x, y, z'
loop_
 _atom_site_type_symbol
 _atom_site_label
 _atom_site_symmetry_multiplicity
 _atom_site_fract_x
 _atom_site_fract_y
 _atom_site_fract_z
 _atom_site_occupancy
  Ba  Ba0  1  0.00000000  0.00000000  -0.00000000  1
  Mo  Mo0  1  0.43479538  0.76056255  0.58211097  1
  Mo  Mo1  1  0.76056255  0.58211097  0.43479538  1
  Mo  Mo2  1  0.58211097  0.43479538  0.76056255  1
  Mo  Mo3  1  0.56520462  0.23943745  0.41788903  1
  Mo  Mo4  1  0.23943745  0.41788903  0.56520462  1
  Mo  Mo5  1  0.41788903  0.56520462  0.23943745  1
  S  S0  1  0.74634671  0.74634671  0.74634671  1
  S  S1  1  0.25365329  0.25365329  0.25365329  1
  S  S2  1  0.60895808  0.87664477  0.26972176  1
  S  S3  1  0.87664477  0.26972176  0.60895808  1
  S  S4  1  0.26972176  0.60895808  0.87664477  1
  S  S5  1  0.39104192  0.12335523  0.73027824  1
  S  S6  1  0.12335523  0.73027824  0.39104192  1
  S  S7  1  0.73027824  0.39104192  0.12335523  1
loop_
_geom_bond_atom_site_label_1
_geom_bond_atom_site_label_2
_geom_bond_distance
_geom_bond_site_symmetry_2
Ba0 S1 3.014157 1_555
Ba0 S0 3.014157 1_444
Ba0 S4 3.269695 1_544
Ba0 S7 3.269695 1_455
Ba0 S2 3.269695 1_445
Ba0 S5 3.269695 1_554
Ba0 S3 3.269695 1_454
Ba0 S6 3.269695 1_545
Mo0 S0 2.385772 1_555
Mo0 S4 2.459052 1_555
Mo0 S6 2.492062 1_555
Mo0 S2 2.498331 1_555
Mo0 S5 2.660122 1_565
Mo1 S0 2.385772 1_555
Mo1 S2 2.459052 1_555
Mo1 S7 2.492062 1_555
Mo1 S3 2.498331 1_555
Mo1 S6 2.660122 1_655
Mo2 S0 2.385772 1_555
Mo2 S3 2.459052 1_555
Mo2 S5 2.492062 1_555
Mo2 S4 2.498330 1_555
Mo2 S7 2.660123 1_556
Mo3 S1 2.385772 1_555
Mo3 S7 2.459052 1_555
Mo3 S3 2.492062 1_555
Mo3 S5 2.498331 1_555
Mo3 S2 2.660122 1_545
Mo4 S1 2.385772 1_555
Mo4 S5 2.459052 1_555
Mo4 S4 2.492062 1_555
Mo4 S6 2.498331 1_555
Mo4 S3 2.660122 1_455
Mo5 S1 2.385772 1_555
Mo5 S6 2.459052 1_555
Mo5 S2 2.492062 1_555
Mo5 S7 2.498330 1_555
Mo5 S4 2.660123 1_554
