# generated using pymatgen
data_Sr2Zn2CuP3
_symmetry_space_group_name_H-M   'P 1'
_cell_length_a   4.09190924
_cell_length_b   4.09191049
_cell_length_c   22.69210601
_cell_angle_alpha   90.00000000
_cell_angle_beta   90.00000000
_cell_angle_gamma   119.99999777
_symmetry_Int_Tables_number   1
_chemical_formula_structural   Sr2Zn2CuP3
_chemical_formula_sum   'Sr4 Zn4 Cu2 P6'
_cell_volume   329.04671782
_cell_formula_units_Z   2
loop_
 _symmetry_equiv_pos_site_id
 _symmetry_equiv_pos_as_xyz
  1  'x, y, z'
loop_
 _atom_site_type_symbol
 _atom_site_label
 _atom_site_symmetry_multiplicity
 _atom_site_fract_x
 _atom_site_fract_y
 _atom_site_fract_z
 _atom_site_occupancy
  Sr  Sr0  1  0.00000000  0.00000000  0.65635828  1
  Sr  Sr1  1  0.00000000  0.00000000  0.34364172  1
  Sr  Sr2  1  0.00000000  0.00000000  0.15635828  1
  Sr  Sr3  1  0.00000000  0.00000000  0.84364172  1
  Zn  Zn0  1  0.33333300  0.66666700  0.95955069  1
  Zn  Zn1  1  0.66666700  0.33333300  0.45955069  1
  Zn  Zn2  1  0.66666700  0.33333300  0.04044931  1
  Zn  Zn3  1  0.33333300  0.66666700  0.54044931  1
  Cu  Cu0  1  0.66666700  0.33333300  0.75000000  1
  Cu  Cu1  1  0.33333300  0.66666700  0.25000000  1
  P  P0  1  0.66666700  0.33333300  0.57001995  1
  P  P1  1  0.33333300  0.66666700  0.42998005  1
  P  P2  1  0.33333300  0.66666700  0.75000000  1
  P  P3  1  0.66666700  0.33333300  0.92998005  1
  P  P4  1  0.33333300  0.66666700  0.07001995  1
  P  P5  1  0.66666700  0.33333300  0.25000000  1
loop_
_geom_bond_atom_site_label_1
_geom_bond_atom_site_label_2
_geom_bond_distance
_geom_bond_site_symmetry_2
Cu0 P2 2.362463 1_655
Cu0 P2 2.362463 1_545
Cu0 P2 2.362470 1_555
Cu0 Sr3 3.177507 1_655
Cu0 Sr0 3.177507 1_655
Cu0 Sr3 3.177509 1_555
Cu0 Sr0 3.177509 1_555
Cu0 Sr3 3.177510 1_665
Cu0 Sr0 3.177510 1_665
Cu1 P5 2.362463 1_455
Cu1 P5 2.362463 1_565
Cu1 P5 2.362470 1_555
Cu1 Sr1 3.177507 1_565
Cu1 Sr2 3.177507 1_565
Cu1 Sr1 3.177509 1_665
Cu1 Sr2 3.177509 1_665
Cu1 Sr1 3.177510 1_555
Cu1 Sr2 3.177510 1_555
P0 Zn3 2.455911 1_655
P0 Zn3 2.455911 1_545
P0 Zn3 2.455918 1_555
P0 Zn1 2.506780 1_555
P0 Sr0 3.069151 1_655
P0 Sr0 3.069154 1_555
P0 Sr0 3.069154 1_665
P1 Zn1 2.455911 1_455
P1 Zn1 2.455911 1_565
P1 Zn1 2.455918 1_555
P1 Zn3 2.506780 1_555
P1 Sr1 3.069151 1_565
P1 Sr1 3.069154 1_665
P1 Sr1 3.069154 1_555
P2 Sr3 3.177507 1_565
P2 Sr0 3.177507 1_565
P2 Sr3 3.177509 1_665
P2 Sr0 3.177509 1_665
P2 Sr3 3.177510 1_555
P2 Sr0 3.177510 1_555
P3 Zn0 2.455911 1_655
P3 Zn0 2.455911 1_545
P3 Zn0 2.455918 1_555
P3 Zn2 2.506780 1_556
P3 Sr3 3.069151 1_655
P3 Sr3 3.069154 1_555
P3 Sr3 3.069154 1_665
P4 Zn2 2.455911 1_455
P4 Zn2 2.455911 1_565
P4 Zn2 2.455918 1_555
P4 Zn0 2.506780 1_554
P4 Sr2 3.069151 1_565
P4 Sr2 3.069154 1_665
P4 Sr2 3.069154 1_555
P5 Sr1 3.177507 1_655
P5 Sr2 3.177507 1_655
P5 Sr1 3.177509 1_555
P5 Sr2 3.177509 1_555
P5 Sr1 3.177510 1_665
P5 Sr2 3.177510 1_665
