# generated using pymatgen
data_BaCaCdAs2
_symmetry_space_group_name_H-M   'P 1'
_cell_length_a   9.22267822
_cell_length_b   9.22267751
_cell_length_c   7.17882270
_cell_angle_alpha   90.00000000
_cell_angle_beta   90.00000000
_cell_angle_gamma   151.97334802
_symmetry_Int_Tables_number   1
_chemical_formula_structural   BaCaCdAs2
_chemical_formula_sum   'Ba2 Ca2 Cd2 As4'
_cell_volume   286.91702990
_cell_formula_units_Z   2
loop_
 _symmetry_equiv_pos_site_id
 _symmetry_equiv_pos_as_xyz
  1  'x, y, z'
loop_
 _atom_site_type_symbol
 _atom_site_label
 _atom_site_symmetry_multiplicity
 _atom_site_fract_x
 _atom_site_fract_y
 _atom_site_fract_z
 _atom_site_occupancy
  Ba  Ba0  1  0.30181470  0.69818530  0.95694941  1
  Ba  Ba1  1  0.69818530  0.30181470  0.45694941  1
  Ca  Ca0  1  0.47372003  0.52627997  0.26959445  1
  Ca  Ca1  1  0.52627997  0.47372003  0.76959445  1
  Cd  Cd0  1  0.09416174  0.90583826  0.10046086  1
  Cd  Cd1  1  0.90583826  0.09416174  0.60046086  1
  As  As0  1  0.05545616  0.94454384  0.47986677  1
  As  As1  1  0.94454384  0.05545616  0.97986677  1
  As  As2  1  0.33347221  0.66652779  0.48867851  1
  As  As3  1  0.66652779  0.33347221  0.98867851  1
loop_
_geom_bond_atom_site_label_1
_geom_bond_atom_site_label_2
_geom_bond_distance
_geom_bond_site_symmetry_2
As0 Cd0 2.810391 1_555
As0 Cd1 2.814098 1_465
As0 Ca0 3.066879 1_565
As0 Ca0 3.066880 1_455
As0 Ca1 3.096133 1_565
As0 Ca1 3.096133 1_455
As0 Ba1 3.396927 1_455
As0 Ba1 3.396928 1_565
As1 Cd1 2.810391 1_555
As1 Cd0 2.814098 1_646
As1 Ca1 3.066879 1_545
As1 Ca1 3.066880 1_655
As1 Ca0 3.096133 1_546
As1 Ca0 3.096133 1_656
As1 Ba0 3.396927 1_655
As1 Ba0 3.396928 1_545
As2 Cd1 2.703445 1_455
As2 Cd1 2.703446 1_565
As2 Ca0 2.961985 1_555
As2 Ba1 3.301704 1_565
As2 Ba1 3.301705 1_455
As2 Ba0 3.409042 1_555
As2 Ba0 3.859005 1_554
As3 Cd0 2.703445 1_656
As3 Cd0 2.703446 1_546
As3 Ca1 2.961985 1_555
As3 Ba0 3.301704 1_545
As3 Ba0 3.301705 1_655
As3 Ba1 3.409042 1_556
As3 Ba1 3.859005 1_555
