# generated using pymatgen
data_K10Sb4PtAu
_symmetry_space_group_name_H-M   'P 1'
_cell_length_a   5.92342703
_cell_length_b   5.92420035
_cell_length_c   20.51912801
_cell_angle_alpha   90.00000000
_cell_angle_beta   90.00000000
_cell_angle_gamma   120.00284457
_symmetry_Int_Tables_number   1
_chemical_formula_structural   K10Sb4PtAu
_chemical_formula_sum   'K10 Sb4 Pt1 Au1'
_cell_volume   623.56231963
_cell_formula_units_Z   1
loop_
 _symmetry_equiv_pos_site_id
 _symmetry_equiv_pos_as_xyz
  1  'x, y, z'
loop_
 _atom_site_type_symbol
 _atom_site_label
 _atom_site_symmetry_multiplicity
 _atom_site_fract_x
 _atom_site_fract_y
 _atom_site_fract_z
 _atom_site_occupancy
  K  K0  1  0.33262216  0.66642409  0.55039901  1
  K  K1  1  0.66674963  0.33362806  0.04982521  1
  K  K2  1  0.66674963  0.33362806  0.45017479  1
  K  K3  1  0.33262216  0.66642409  0.94960099  1
  K  K4  1  0.00004382  0.00011825  0.15098536  1
  K  K5  1  0.00055592  0.99987726  0.66092835  1
  K  K6  1  0.00055592  0.99987726  0.83907165  1
  K  K7  1  0.00004382  0.00011825  0.34901464  1
  K  K8  1  0.33287896  0.66667723  0.75000000  1
  K  K9  1  0.66658774  0.33334014  0.25000000  1
  Sb  Sb0  1  0.33337666  0.66694637  0.12094986  1
  Sb  Sb1  1  0.66680173  0.33291747  0.62453614  1
  Sb  Sb2  1  0.33337666  0.66694637  0.37905014  1
  Sb  Sb3  1  0.66680173  0.33291747  0.87546386  1
  Pt  Pt0  1  0.66682137  0.33342711  0.75000000  1
  Au  Au0  1  0.33341209  0.66673251  0.25000000  1
loop_
_geom_bond_atom_site_label_1
_geom_bond_atom_site_label_2
_geom_bond_distance
_geom_bond_site_symmetry_2
K0 Sb2 3.515932 1_555
K0 Sb1 3.738913 1_455
K0 Sb1 3.742476 1_565
K0 Sb1 3.747995 1_555
K1 Sb3 3.577745 1_554
K1 Sb0 3.717996 1_655
K1 Sb0 3.718640 1_555
K1 Sb0 3.718665 1_545
K2 Sb1 3.577745 1_555
K2 Sb2 3.717996 1_655
K2 Sb2 3.718640 1_555
K2 Sb2 3.718665 1_545
K3 Sb0 3.515932 1_556
K3 Sb3 3.738913 1_455
K3 Sb3 3.742476 1_565
K3 Sb3 3.747995 1_555
K4 Sb0 3.474431 1_545
K4 Sb0 3.474887 1_445
K4 Sb0 3.476139 1_555
K5 Sb1 3.498263 1_565
K5 Sb1 3.501375 1_465
K5 Sb1 3.502278 1_455
K6 Sb3 3.498263 1_565
K6 Sb3 3.501375 1_465
K6 Sb3 3.502278 1_455
K7 Sb2 3.474431 1_545
K7 Sb2 3.474887 1_445
K7 Sb2 3.476139 1_555
K8 Pt0 3.416670 1_455
K8 Pt0 3.420669 1_565
K8 Pt0 3.422863 1_555
Pt0 Sb1 2.574411 1_555
Pt0 Sb3 2.574411 1_555
Au0 Sb2 2.647997 1_555
Au0 Sb0 2.647997 1_555
Au0 K9 3.419659 1_555
Au0 K9 3.419938 1_565
Au0 K9 3.420603 1_455
