# generated using pymatgen
data_Zr6ZnAs5Ru6
_symmetry_space_group_name_H-M   'P 1'
_cell_length_a   7.66950018
_cell_length_b   7.68491011
_cell_length_c   7.66949951
_cell_angle_alpha   128.55722693
_cell_angle_beta   119.57206376
_cell_angle_gamma   83.23314356
_symmetry_Int_Tables_number   1
_chemical_formula_structural   Zr6ZnAs5Ru6
_chemical_formula_sum   'Zr6 Zn1 As5 Ru6'
_cell_volume   295.22785503
_cell_formula_units_Z   1
loop_
 _symmetry_equiv_pos_site_id
 _symmetry_equiv_pos_as_xyz
  1  'x, y, z'
loop_
 _atom_site_type_symbol
 _atom_site_label
 _atom_site_symmetry_multiplicity
 _atom_site_fract_x
 _atom_site_fract_y
 _atom_site_fract_z
 _atom_site_occupancy
  Zr  Zr0  1  0.46285644  0.68799714  0.72514070  1
  Zr  Zr1  1  0.52474968  0.25420133  0.22945265  1
  Zr  Zr2  1  0.74799352  0.83247055  0.58447703  1
  Zr  Zr3  1  0.24860488  0.83374507  0.08513919  1
  Zr  Zr4  1  0.05766271  0.25517577  0.69751306  1
  Zr  Zr5  1  0.95506668  0.66371897  0.20865228  1
  Zn  Zn0  1  0.27476248  0.26091991  0.48615842  1
  As  As0  1  0.73106676  0.24508572  0.01401897  1
  As  As1  1  0.32883083  0.58480456  0.24923060  1
  As  As2  1  0.67096929  0.92113619  0.25988165  1
  As  As3  1  0.16125454  0.92113619  0.75016690  1
  As  As4  1  0.83557396  0.58480456  0.75597273  1
  Ru  Ru0  1  0.49601176  0.49658427  0.99358617  1
  Ru  Ru1  1  0.00299910  0.49658427  0.50057351  1
  Ru  Ru2  1  0.08827726  0.25219647  0.09388052  1
  Ru  Ru3  1  0.88733139  0.00842078  0.14074801  1
  Ru  Ru4  1  0.36767277  0.00842078  0.62109040  1
  Ru  Ru5  1  0.65831595  0.25219647  0.66391921  1
loop_
_geom_bond_atom_site_label_1
_geom_bond_atom_site_label_2
_geom_bond_distance
_geom_bond_site_symmetry_2
Zn0 Zr0 2.686879 1_555
Zn0 Zr3 2.690026 1_545
Zn0 Zr4 2.858752 1_555
As0 Ru5 2.494190 1_554
As0 Ru2 2.494190 1_655
As0 Ru4 2.495811 1_554
As0 Ru3 2.495813 1_555
As0 Ru0 2.507509 1_554
As0 Ru1 2.507515 1_655
As0 Zr1 2.765662 1_555
As0 Zr2 2.868351 1_544
As0 Zr5 2.883476 1_555
As1 Ru2 2.549905 1_555
As1 Ru0 2.562679 1_554
As1 Ru4 2.576139 1_565
As1 Zr1 2.753298 1_555
As1 Zr3 2.753527 1_555
As1 Zr5 2.761699 1_455
As1 Zr2 2.784079 1_555
As1 Zr4 2.800065 1_554
As1 Zr0 2.808648 1_555
As2 Ru5 2.548595 1_565
As2 Ru3 2.561482 1_565
As2 Ru0 2.576174 1_554
As2 Zr2 2.752992 1_555
As2 Zr0 2.762308 1_554
As2 Zr1 2.770088 1_565
As2 Zr5 2.770489 1_555
As2 Zr3 2.801073 1_555
As2 Zr4 2.806972 1_665
As3 Ru2 2.548595 1_566
As3 Ru4 2.561476 1_565
As3 Ru1 2.576174 1_555
As3 Zr2 2.752992 1_455
As3 Zr0 2.762308 1_555
As3 Zr1 2.770094 1_566
As3 Zr5 2.770489 1_455
As3 Zr3 2.801067 1_556
As3 Zr4 2.806972 1_565
As4 Ru5 2.549910 1_555
As4 Ru1 2.562673 1_655
As4 Ru3 2.576139 1_566
As4 Zr1 2.753289 1_555
As4 Zr3 2.753522 1_656
As4 Zr5 2.761706 1_556
As4 Zr2 2.784072 1_555
As4 Zr4 2.800066 1_655
As4 Zr0 2.808650 1_555
Ru0 Zn0 2.593204 1_555
Ru0 Ru4 2.817534 1_555
Ru0 Ru5 2.847023 1_555
Ru0 Zr4 2.929810 1_555
Ru0 Zr3 2.948816 1_556
Ru0 Zr2 2.980580 1_556
Ru0 Zr5 3.075482 1_556
Ru0 Zr0 3.104475 1_555
Ru0 Zr1 3.240491 1_556
Ru1 Zn0 2.593204 1_555
Ru1 Ru3 2.817534 1_455
Ru1 Ru2 2.847024 1_555
Ru1 Zr4 2.929804 1_555
Ru1 Zr3 2.948806 1_556
Ru1 Zr2 2.980585 1_455
Ru1 Zr5 3.075486 1_455
Ru1 Zr0 3.104471 1_555
Ru1 Zr1 3.240492 1_455
Ru2 Zn0 2.574019 1_555
Ru2 Ru3 2.842638 1_455
Ru2 Zr5 2.911374 1_455
Ru2 Zr4 2.945822 1_554
Ru2 Zr2 2.947779 1_444
Ru2 Zr1 2.973876 1_555
Ru3 Zn0 2.606441 1_655
Ru3 Zr4 2.918908 1_655
Ru3 Zr0 2.946915 1_544
Ru3 Zr5 2.947328 1_545
Ru3 Zr3 3.039294 1_645
Ru3 Zr2 3.133845 1_544
Ru3 Zr1 3.284974 1_555
Ru4 Zn0 2.606440 1_555
Ru4 Ru5 2.842643 1_555
Ru4 Zr4 2.918906 1_555
Ru4 Zr0 2.946910 1_545
Ru4 Zr5 2.947328 1_445
Ru4 Zr3 3.039305 1_545
Ru4 Zr2 3.133847 1_545
Ru4 Zr1 3.284972 1_556
Ru5 Zn0 2.574013 1_555
Ru5 Zr5 2.911374 1_556
Ru5 Zr4 2.945822 1_655
Ru5 Zr2 2.947779 1_545
Ru5 Zr1 2.973870 1_555
