# generated using pymatgen
data_Rb2Li2SnSe4
_symmetry_space_group_name_H-M   'P 1'
_cell_length_a   9.80994343
_cell_length_b   9.80994405
_cell_length_c   9.80994368
_cell_angle_alpha   144.02120419
_cell_angle_beta   105.31857574
_cell_angle_gamma   85.78953964
_symmetry_Int_Tables_number   1
_chemical_formula_structural   Rb2Li2SnSe4
_chemical_formula_sum   'Rb4 Li4 Sn2 Se8'
_cell_volume   518.24305593
_cell_formula_units_Z   2
loop_
 _symmetry_equiv_pos_site_id
 _symmetry_equiv_pos_as_xyz
  1  'x, y, z'
loop_
 _atom_site_type_symbol
 _atom_site_label
 _atom_site_symmetry_multiplicity
 _atom_site_fract_x
 _atom_site_fract_y
 _atom_site_fract_z
 _atom_site_occupancy
  Rb  Rb0  1  0.61849717  0.76755840  0.38605456  1
  Rb  Rb1  1  0.88150283  0.26755840  0.14906223  1
  Rb  Rb2  1  0.11849717  0.73244160  0.85093777  1
  Rb  Rb3  1  0.38150283  0.23244160  0.61394544  1
  Li  Li0  1  0.02264345  0.75000000  0.27264345  1
  Li  Li1  1  0.47735655  0.75000000  0.72735655  1
  Li  Li2  1  0.97735655  0.25000000  0.72735655  1
  Li  Li3  1  0.52264345  0.25000000  0.27264345  1
  Sn  Sn0  1  0.75000000  0.75000000  0.00000000  1
  Sn  Sn1  1  0.25000000  0.25000000  0.00000000  1
  Se  Se0  1  0.72589024  0.63632645  0.65125032  1
  Se  Se1  1  0.77410976  0.42536008  0.91043521  1
  Se  Se2  1  0.51492486  0.86367355  0.08956479  1
  Se  Se3  1  0.98507514  0.07463992  0.34874968  1
  Se  Se4  1  0.27410976  0.36367355  0.34874968  1
  Se  Se5  1  0.22589024  0.57463992  0.08956479  1
  Se  Se6  1  0.01492486  0.92536008  0.65125032  1
  Se  Se7  1  0.48507514  0.13632645  0.91043521  1
loop_
_geom_bond_atom_site_label_1
_geom_bond_atom_site_label_2
_geom_bond_distance
_geom_bond_site_symmetry_2
Rb0 Se1 3.609735 1_554
Rb0 Se7 3.609737 1_554
Rb0 Se2 3.621799 1_555
Rb0 Se5 3.621816 1_555
Rb0 Se0 3.648092 1_555
Rb0 Se6 3.648093 1_655
Rb0 Se1 3.742425 1_565
Rb0 Se7 3.742431 1_565
Rb1 Se0 3.609734 1_544
Rb1 Se6 3.609748 1_644
Rb1 Se3 3.621808 1_555
Rb1 Se4 3.621817 1_655
Rb1 Se7 3.648094 1_554
Rb1 Se1 3.648101 1_554
Rb1 Se0 3.742418 1_555
Rb1 Se6 3.742428 1_655
Rb2 Se4 3.609734 1_566
Rb2 Se3 3.609748 1_466
Rb2 Se6 3.621808 1_555
Rb2 Se0 3.621817 1_455
Rb2 Se2 3.648094 1_556
Rb2 Se5 3.648101 1_556
Rb2 Se4 3.742418 1_555
Rb2 Se3 3.742428 1_455
Rb3 Se5 3.609735 1_556
Rb3 Se2 3.609737 1_556
Rb3 Se7 3.621799 1_555
Rb3 Se1 3.621816 1_555
Rb3 Se4 3.648092 1_555
Rb3 Se3 3.648093 1_455
Rb3 Se5 3.742425 1_545
Rb3 Se2 3.742431 1_545
Li0 Se5 2.558966 1_555
Li0 Se6 2.558966 1_555
Li0 Se3 2.638250 1_465
Li0 Se1 2.638250 1_454
Li1 Se4 2.558970 1_555
Li1 Se7 2.558975 1_565
Li1 Se0 2.638249 1_555
Li1 Se2 2.638256 1_556
Li2 Se1 2.558966 1_555
Li2 Se3 2.558966 1_555
Li2 Se6 2.638250 1_645
Li2 Se5 2.638250 1_656
Li3 Se0 2.558970 1_555
Li3 Se2 2.558975 1_545
Li3 Se4 2.638249 1_555
Li3 Se7 2.638256 1_554
Se0 Sn0 2.537859 1_556
Se1 Sn0 2.537853 1_556
Se2 Sn0 2.537852 1_555
Se3 Sn0 2.537853 1_545
Se4 Sn1 2.537859 1_555
Se5 Sn1 2.537853 1_555
Se6 Sn1 2.537853 1_566
Se7 Sn1 2.537852 1_556
