# generated using pymatgen
data_Hf12Ta3TiMn8
_symmetry_space_group_name_H-M   'P 1'
_cell_length_a   8.48239819
_cell_length_b   8.48086822
_cell_length_c   8.48086704
_cell_angle_alpha   60.00000060
_cell_angle_beta   60.00596703
_cell_angle_gamma   60.00598087
_symmetry_Int_Tables_number   1
_chemical_formula_structural   Hf12Ta3TiMn8
_chemical_formula_sum   'Hf12 Ta3 Ti1 Mn8'
_cell_volume   431.44301103
_cell_formula_units_Z   1
loop_
 _symmetry_equiv_pos_site_id
 _symmetry_equiv_pos_as_xyz
  1  'x, y, z'
loop_
 _atom_site_type_symbol
 _atom_site_label
 _atom_site_symmetry_multiplicity
 _atom_site_fract_x
 _atom_site_fract_y
 _atom_site_fract_z
 _atom_site_occupancy
  Hf  Hf0  1  0.80907141  0.80847468  0.19122696  1
  Hf  Hf1  1  0.19192892  0.19325700  0.80740654  1
  Hf  Hf2  1  0.80907141  0.19122696  0.80847468  1
  Hf  Hf3  1  0.19192892  0.80740654  0.19325700  1
  Hf  Hf4  1  0.19192892  0.80740654  0.80740654  1
  Hf  Hf5  1  0.80907141  0.19122696  0.19122696  1
  Hf  Hf6  1  0.44092859  0.44152532  0.05877304  1
  Hf  Hf7  1  0.05807108  0.05674300  0.44259346  1
  Hf  Hf8  1  0.44092859  0.05877304  0.44152532  1
  Hf  Hf9  1  0.05807108  0.44259346  0.05674300  1
  Hf  Hf10  1  0.05807108  0.44259346  0.44259346  1
  Hf  Hf11  1  0.44092859  0.05877304  0.05877304  1
  Ta  Ta0  1  0.62500000  0.12500000  0.62500000  1
  Ta  Ta1  1  0.62500000  0.62500000  0.12500000  1
  Ta  Ta2  1  0.62500000  0.62500000  0.62500000  1
  Ti  Ti0  1  0.12500000  0.62500000  0.62500000  1
  Mn  Mn0  1  0.75015463  0.41661412  0.41661412  1
  Mn  Mn1  1  0.41688029  0.75022352  0.41644710  1
  Mn  Mn2  1  0.41688029  0.41644710  0.75022352  1
  Mn  Mn3  1  0.41688029  0.41644710  0.41644710  1
  Mn  Mn4  1  0.49984537  0.83338588  0.83338588  1
  Mn  Mn5  1  0.83311971  0.49977648  0.83355290  1
  Mn  Mn6  1  0.83311971  0.83355290  0.49977648  1
  Mn  Mn7  1  0.83311971  0.83355290  0.83355290  1
loop_
_geom_bond_atom_site_label_1
_geom_bond_atom_site_label_2
_geom_bond_distance
_geom_bond_site_symmetry_2
Hf0 Mn7 2.840394 1_554
Hf0 Mn6 2.840411 1_555
Hf0 Mn0 3.049745 1_555
Hf0 Mn1 3.050562 1_555
Hf0 Ta2 3.058495 1_555
Hf0 Ta1 3.058495 1_555
Hf0 Hf9 3.157260 1_655
Hf0 Hf10 3.157265 1_655
Hf0 Hf8 3.164566 1_565
Hf0 Hf11 3.164566 1_565
Hf0 Hf2 3.246071 1_564
Hf0 Hf5 3.246072 1_565
Hf0 Hf3 3.251660 1_655
Hf0 Hf4 3.251664 1_654
Hf1 Mn5 2.839244 1_455
Hf1 Mn4 2.849230 1_545
Hf1 Mn2 3.037594 1_555
Hf1 Mn3 3.037598 1_555
Hf1 Ti0 3.042667 1_555
Hf1 Ta0 3.051284 1_555
Hf1 Hf10 3.146824 1_555
Hf1 Hf9 3.146838 1_556
Hf1 Hf8 3.157260 1_555
Hf1 Hf11 3.157267 1_556
Hf1 Hf2 3.251660 1_455
Hf1 Hf5 3.251664 1_456
Hf1 Hf3 3.272347 1_546
Hf1 Hf4 3.272347 1_545
Hf2 Mn7 2.840394 1_545
Hf2 Mn5 2.840411 1_555
Hf2 Mn0 3.049744 1_555
Hf2 Mn2 3.050563 1_555
Hf2 Ta0 3.058495 1_555
Hf2 Ta2 3.058496 1_555
Hf2 Hf7 3.157260 1_655
Hf2 Hf6 3.164566 1_556
Hf2 Hf5 3.246071 1_556
Hf2 Hf4 3.251665 1_645
Hf3 Mn6 2.839244 1_455
Hf3 Mn4 2.849230 1_554
Hf3 Mn1 3.037595 1_555
Hf3 Mn3 3.037599 1_555
Hf3 Ti0 3.042666 1_555
Hf3 Ta1 3.051284 1_555
Hf3 Hf7 3.146838 1_565
Hf3 Hf6 3.157260 1_555
Hf3 Hf5 3.251665 1_465
Hf3 Hf4 3.272346 1_554
Hf4 Mn7 2.839233 1_455
Hf4 Mn4 2.849249 1_555
Hf4 Mn1 3.037602 1_555
Hf4 Mn2 3.037602 1_555
Hf4 Ti0 3.042659 1_555
Hf4 Ta2 3.051283 1_555
Hf4 Hf9 3.146824 1_556
Hf4 Hf7 3.146824 1_565
Hf4 Hf8 3.157264 1_565
Hf4 Hf6 3.157265 1_556
Hf5 Mn5 2.840401 1_554
Hf5 Mn6 2.840401 1_545
Hf5 Mn0 3.049723 1_555
Hf5 Mn3 3.050556 1_555
Hf5 Ta0 3.058495 1_555
Hf5 Ta1 3.058496 1_555
Hf5 Hf9 3.157267 1_655
Hf5 Hf7 3.157267 1_655
Hf5 Hf8 3.164566 1_555
Hf5 Hf6 3.164566 1_555
Hf6 Mn3 2.840394 1_555
Hf6 Mn2 2.840411 1_554
Hf6 Mn4 3.049745 1_554
Hf6 Mn5 3.050562 1_554
Hf6 Ta2 3.058495 1_554
Hf6 Ta1 3.058495 1_555
Hf6 Hf8 3.246071 1_555
Hf6 Hf9 3.251660 1_555
Hf7 Mn1 2.839244 1_545
Hf7 Mn0 2.849230 1_455
Hf7 Mn6 3.037594 1_445
Hf7 Mn7 3.037598 1_445
Hf7 Ti0 3.042667 1_545
Hf7 Ta0 3.051284 1_455
Hf7 Hf8 3.251660 1_555
Hf7 Hf9 3.272347 1_555
Hf8 Mn3 2.840394 1_555
Hf8 Mn1 2.840411 1_545
Hf8 Mn4 3.049744 1_545
Hf8 Mn6 3.050563 1_545
Hf8 Ta0 3.058495 1_555
Hf8 Ta2 3.058496 1_545
Hf9 Mn2 2.839244 1_554
Hf9 Mn0 2.849230 1_455
Hf9 Mn5 3.037595 1_454
Hf9 Mn7 3.037599 1_454
Hf9 Ti0 3.042666 1_554
Hf9 Ta1 3.051284 1_455
Hf10 Mn3 2.839233 1_555
Hf10 Mn0 2.849249 1_455
Hf10 Mn5 3.037602 1_455
Hf10 Mn6 3.037602 1_455
Hf10 Ti0 3.042659 1_555
Hf10 Ta2 3.051283 1_455
Hf10 Hf3 3.146824 1_555
Hf10 Hf2 3.157264 1_455
Hf10 Hf6 3.251664 1_555
Hf10 Hf8 3.251665 1_555
Hf10 Hf9 3.272346 1_555
Hf10 Hf7 3.272347 1_555
Hf11 Mn1 2.840401 1_545
Hf11 Mn2 2.840401 1_554
Hf11 Mn4 3.049723 1_544
Hf11 Mn7 3.050556 1_544
Hf11 Ta0 3.058495 1_554
Hf11 Ta1 3.058496 1_545
Hf11 Hf3 3.157267 1_545
Hf11 Hf2 3.164566 1_554
Hf11 Hf8 3.246071 1_555
Hf11 Hf6 3.246072 1_555
Hf11 Hf7 3.251664 1_555
Hf11 Hf9 3.251665 1_555
Mn0 Ta0 2.597153 1_555
Mn0 Ta1 2.597153 1_555
Mn0 Ta2 2.597174 1_555
Mn0 Mn3 2.828383 1_555
Mn0 Mn2 2.828387 1_555
Mn0 Mn1 2.828388 1_555
Mn1 Ta1 2.596454 1_555
Mn1 Ta2 2.596468 1_555
Mn1 Ti0 2.599661 1_555
Mn1 Mn2 2.830714 1_555
Mn1 Mn3 2.830714 1_555
Mn2 Ta0 2.596454 1_555
Mn2 Ta2 2.596468 1_555
Mn2 Ti0 2.599662 1_555
Mn2 Mn3 2.830713 1_555
Mn3 Ta1 2.596463 1_555
Mn3 Ta0 2.596464 1_555
Mn3 Ti0 2.599671 1_555
Mn4 Ta0 2.597153 1_565
Mn4 Ta1 2.597153 1_556
Mn4 Ta2 2.597174 1_555
Mn4 Mn7 2.828383 1_555
Mn4 Mn6 2.828387 1_555
Mn4 Mn5 2.828388 1_555
Mn5 Ta1 2.596454 1_556
Mn5 Ta2 2.596468 1_555
Mn5 Ti0 2.599661 1_655
Mn5 Mn6 2.830714 1_555
Mn5 Mn7 2.830714 1_555
Mn6 Ta0 2.596454 1_565
Mn6 Ta2 2.596468 1_555
Mn6 Ti0 2.599662 1_655
Mn6 Mn7 2.830713 1_555
Mn7 Ta1 2.596463 1_556
Mn7 Ta0 2.596464 1_565
Mn7 Ti0 2.599671 1_655
