# generated using pymatgen
data_Sr2VH9
_symmetry_space_group_name_H-M   'P 1'
_cell_length_a   8.82313595
_cell_length_b   8.82313384
_cell_length_c   5.12448040
_cell_angle_alpha   90.00000000
_cell_angle_beta   90.00000000
_cell_angle_gamma   120.00000059
_symmetry_Int_Tables_number   1
_chemical_formula_structural   Sr2VH9
_chemical_formula_sum   'Sr6 V3 H27'
_cell_volume   345.48269895
_cell_formula_units_Z   3
loop_
 _symmetry_equiv_pos_site_id
 _symmetry_equiv_pos_as_xyz
  1  'x, y, z'
loop_
 _atom_site_type_symbol
 _atom_site_label
 _atom_site_symmetry_multiplicity
 _atom_site_fract_x
 _atom_site_fract_y
 _atom_site_fract_z
 _atom_site_occupancy
  Sr  Sr0  1  0.00000000  0.26639661  0.50000000  1
  Sr  Sr1  1  0.73360339  0.73360339  0.50000000  1
  Sr  Sr2  1  0.26639661  1.00000000  0.50000000  1
  Sr  Sr3  1  0.00000000  0.59869503  0.00000000  1
  Sr  Sr4  1  0.40130497  0.40130497  0.00000000  1
  Sr  Sr5  1  0.59869503  1.00000000  0.00000000  1
  V  V0  1  0.66666700  0.33333300  0.50000000  1
  V  V1  1  0.33333300  0.66666700  0.50000000  1
  V  V2  1  0.00000000  0.00000000  0.00000000  1
  H  H0  1  0.79756577  0.32380929  0.74520490  1
  H  H1  1  0.67619071  0.47375548  0.74520490  1
  H  H2  1  0.52624452  0.20243423  0.74520490  1
  H  H3  1  0.20243423  0.52624452  0.25479510  1
  H  H4  1  0.52624452  0.20243423  0.25479510  1
  H  H5  1  0.79756577  0.32380929  0.25479510  1
  H  H6  1  0.67619071  0.47375548  0.25479510  1
  H  H7  1  0.32380929  0.79756577  0.74520490  1
  H  H8  1  0.47375548  0.67619071  0.74520490  1
  H  H9  1  0.19337846  1.00000000  0.00000000  1
  H  H10  1  0.80662154  0.80662154  0.00000000  1
  H  H11  1  0.00000000  0.19337846  0.00000000  1
  H  H12  1  0.85963671  1.00000000  0.23093280  1
  H  H13  1  0.14036329  0.14036329  0.76906720  1
  H  H14  1  0.00000000  0.85963671  0.76906720  1
  H  H15  1  0.00000000  0.85963671  0.23093280  1
  H  H16  1  0.14036329  0.14036329  0.23093280  1
  H  H17  1  0.85963671  1.00000000  0.76906720  1
  H  H18  1  0.13938784  0.66050796  0.50000000  1
  H  H19  1  0.52112012  0.86061216  0.50000000  1
  H  H20  1  0.33949204  0.47887988  0.50000000  1
  H  H21  1  0.47887988  0.33949204  0.50000000  1
  H  H22  1  0.86061216  0.52112012  0.50000000  1
  H  H23  1  0.66050796  0.13938784  0.50000000  1
  H  H24  1  0.20243423  0.52624452  0.74520490  1
  H  H25  1  0.32380929  0.79756577  0.25479510  1
  H  H26  1  0.47375548  0.67619071  0.25479510  1
loop_
_geom_bond_atom_site_label_1
_geom_bond_atom_site_label_2
_geom_bond_distance
_geom_bond_site_symmetry_2
H0 V0 1.736923 1_555
H0 Sr0 2.435252 1_655
H0 Sr3 2.538781 1_656
H0 Sr5 2.816576 1_546
H1 V0 1.736923 1_555
H1 Sr1 2.435259 1_555
H1 Sr4 2.538783 1_556
H1 Sr3 2.816576 1_656
H2 V0 1.736923 1_555
H2 Sr2 2.435257 1_545
H2 Sr5 2.538775 1_546
H2 Sr4 2.816583 1_556
H3 V1 1.736923 1_555
H3 Sr0 2.435257 1_555
H3 Sr3 2.538776 1_555
H3 Sr4 2.816583 1_555
H4 V0 1.736923 1_555
H4 Sr2 2.435257 1_545
H4 Sr5 2.538775 1_545
H4 Sr4 2.816583 1_555
H5 V0 1.736923 1_555
H5 Sr0 2.435252 1_655
H5 Sr3 2.538781 1_655
H5 Sr5 2.816576 1_545
H6 V0 1.736923 1_555
H6 Sr1 2.435259 1_555
H6 Sr4 2.538783 1_555
H6 Sr3 2.816576 1_655
H7 V1 1.736923 1_555
H7 Sr2 2.435252 1_555
H7 Sr5 2.538781 1_556
H7 Sr3 2.816577 1_556
H8 V1 1.736923 1_555
H8 Sr1 2.435260 1_555
H8 Sr4 2.538783 1_556
H8 Sr5 2.816575 1_556
H9 V2 1.706204 1_565
H9 Sr2 2.641994 1_555
H9 Sr2 2.641994 1_554
H10 V2 1.706204 1_665
H10 Sr1 2.641994 1_554
H10 Sr1 2.641994 1_555
H11 V2 1.706204 1_555
H11 Sr0 2.641994 1_555
H11 Sr0 2.641994 1_554
H12 V2 1.712952 1_665
H12 Sr1 2.459398 1_555
H12 Sr0 2.459398 1_665
H12 Sr5 2.588659 1_555
H13 V2 1.712952 1_556
H13 Sr2 2.459398 1_545
H13 Sr0 2.459398 1_555
H13 Sr4 2.588659 1_556
H14 V2 1.712952 1_566
H14 Sr2 2.459399 1_555
H14 Sr1 2.459399 1_455
H14 Sr3 2.588659 1_556
H15 V2 1.712952 1_565
H15 Sr2 2.459399 1_555
H15 Sr1 2.459399 1_455
H15 Sr3 2.588659 1_555
H16 V2 1.712952 1_555
H16 Sr2 2.459398 1_545
H16 Sr0 2.459398 1_555
H16 Sr4 2.588659 1_555
H17 V2 1.712952 1_666
H17 Sr1 2.459398 1_555
H17 Sr0 2.459398 1_665
H17 Sr5 2.588659 1_556
H18 V1 1.684691 1_555
H18 Sr2 2.621341 1_555
H18 Sr3 2.775660 1_556
H18 Sr3 2.775660 1_555
H19 V1 1.684695 1_555
H19 Sr1 2.621342 1_555
H19 Sr5 2.775659 1_555
H19 Sr5 2.775659 1_556
H20 V1 1.684699 1_555
H20 Sr0 2.621342 1_555
H20 Sr4 2.775659 1_556
H20 Sr4 2.775659 1_555
H21 V0 1.684700 1_555
H21 Sr2 2.621341 1_545
H21 Sr4 2.775659 1_555
H21 Sr4 2.775659 1_556
H22 V0 1.684695 1_555
H22 Sr1 2.621341 1_555
H22 Sr3 2.775660 1_656
H22 Sr3 2.775660 1_655
H23 V0 1.684691 1_555
H23 Sr0 2.621342 1_655
H23 Sr5 2.775659 1_546
H23 Sr5 2.775659 1_545
H24 V1 1.736923 1_555
H24 Sr0 2.435257 1_555
H24 Sr3 2.538776 1_556
H24 Sr4 2.816583 1_556
H25 V1 1.736923 1_555
H25 Sr2 2.435252 1_555
H25 Sr5 2.538781 1_555
H25 Sr3 2.816577 1_555
H26 V1 1.736923 1_555
H26 Sr1 2.435260 1_555
H26 Sr4 2.538783 1_555
H26 Sr5 2.816575 1_555
