# generated using pymatgen
data_Y3Cd(Rh2O7)2
_symmetry_space_group_name_H-M   'P 1'
_cell_length_a   7.11470994
_cell_length_b   7.11471074
_cell_length_c   7.11471011
_cell_angle_alpha   60.77080535
_cell_angle_beta   60.77080220
_cell_angle_gamma   60.77080728
_symmetry_Int_Tables_number   1
_chemical_formula_structural   Y3Cd(Rh2O7)2
_chemical_formula_sum   'Y3 Cd1 Rh4 O14'
_cell_volume   259.08585654
_cell_formula_units_Z   1
loop_
 _symmetry_equiv_pos_site_id
 _symmetry_equiv_pos_as_xyz
  1  'x, y, z'
loop_
 _atom_site_type_symbol
 _atom_site_label
 _atom_site_symmetry_multiplicity
 _atom_site_fract_x
 _atom_site_fract_y
 _atom_site_fract_z
 _atom_site_occupancy
  Y  Y0  1  0.00000000  0.50000000  0.50000000  1
  Y  Y1  1  0.50000000  0.50000000  0.00000000  1
  Y  Y2  1  0.50000000  0.00000000  0.50000000  1
  Cd  Cd0  1  0.50000000  0.50000000  0.50000000  1
  Rh  Rh0  1  0.00000000  0.00000000  0.00000000  1
  Rh  Rh1  1  0.50000000  0.00000000  0.00000000  1
  Rh  Rh2  1  0.00000000  0.00000000  0.50000000  1
  Rh  Rh3  1  0.00000000  0.50000000  0.00000000  1
  O  O0  1  0.37414310  0.37414310  0.37414310  1
  O  O1  1  0.62585690  0.62585690  0.62585690  1
  O  O2  1  0.92603008  0.32933517  0.32933517  1
  O  O3  1  0.33396740  0.91466191  0.91466191  1
  O  O4  1  0.32933517  0.32933517  0.92603008  1
  O  O5  1  0.91466191  0.91466191  0.33396740  1
  O  O6  1  0.91466191  0.33396740  0.91466191  1
  O  O7  1  0.32933517  0.92603008  0.32933517  1
  O  O8  1  0.07396992  0.67066483  0.67066483  1
  O  O9  1  0.66603260  0.08533809  0.08533809  1
  O  O10  1  0.67066483  0.67066483  0.07396992  1
  O  O11  1  0.08533809  0.08533809  0.66603260  1
  O  O12  1  0.08533809  0.66603260  0.08533809  1
  O  O13  1  0.67066483  0.07396992  0.67066483  1
loop_
_geom_bond_atom_site_label_1
_geom_bond_atom_site_label_2
_geom_bond_distance
_geom_bond_site_symmetry_2
Cd0 O1 2.180496 1_555
Cd0 O0 2.180496 1_555
Cd0 O4 2.527320 1_555
Cd0 O10 2.527320 1_555
Cd0 O2 2.527320 1_555
Cd0 O8 2.527320 1_555
Cd0 O13 2.527321 1_555
Cd0 O7 2.527321 1_555
O0 Y0 2.194728 1_555
O0 Y1 2.194728 1_555
O0 Y2 2.194728 1_555
O1 Y0 2.194728 1_655
O1 Y1 2.194728 1_556
O1 Y2 2.194728 1_565
O2 Rh3 1.970482 1_655
O2 Rh2 1.970482 1_655
O2 Y0 2.431808 1_655
O3 Rh1 1.973216 1_566
O3 Rh0 1.981222 1_566
O3 Y2 2.452622 1_565
O3 Y1 2.452623 1_556
O4 Rh3 1.970482 1_556
O4 Rh1 1.970482 1_556
O4 Y1 2.431808 1_556
O5 Rh2 1.973216 1_665
O5 Rh0 1.981222 1_665
O5 Y2 2.452622 1_565
O5 Y0 2.452623 1_655
O6 Rh3 1.973216 1_656
O6 Rh0 1.981222 1_656
O6 Y1 2.452622 1_556
O6 Y0 2.452622 1_655
O7 Rh2 1.970482 1_565
O7 Rh1 1.970482 1_565
O7 Y2 2.431808 1_565
O8 Rh3 1.970482 1_556
O8 Rh2 1.970482 1_565
O8 Y0 2.431808 1_555
O9 Rh1 1.973216 1_555
O9 Rh0 1.981222 1_655
O9 Y2 2.452622 1_555
O9 Y1 2.452623 1_555
O10 Rh3 1.970482 1_655
O10 Rh1 1.970482 1_565
O10 Y1 2.431808 1_555
O11 Rh2 1.973216 1_555
O11 Rh0 1.981222 1_556
O11 Y2 2.452622 1_555
O11 Y0 2.452623 1_555
O12 Rh3 1.973216 1_555
O12 Rh0 1.981222 1_565
O12 Y1 2.452622 1_555
O12 Y0 2.452622 1_555
O13 Rh2 1.970482 1_655
O13 Rh1 1.970482 1_556
O13 Y2 2.431808 1_555
