# generated using pymatgen
data_V9Ga4Tc2Rh
_symmetry_space_group_name_H-M   'P 1'
_cell_length_a   4.72937353
_cell_length_b   4.75000849
_cell_length_c   9.58483734
_cell_angle_alpha   89.81482444
_cell_angle_beta   90.00000000
_cell_angle_gamma   90.00000000
_symmetry_Int_Tables_number   1
_chemical_formula_structural   V9Ga4Tc2Rh
_chemical_formula_sum   'V9 Ga4 Tc2 Rh1'
_cell_volume   215.31807152
_cell_formula_units_Z   1
loop_
 _symmetry_equiv_pos_site_id
 _symmetry_equiv_pos_as_xyz
  1  'x, y, z'
loop_
 _atom_site_type_symbol
 _atom_site_label
 _atom_site_symmetry_multiplicity
 _atom_site_fract_x
 _atom_site_fract_y
 _atom_site_fract_z
 _atom_site_occupancy
  V  V0  1  0.50000000  0.75497727  0.49879317  1
  V  V1  1  0.74486837  0.99975631  0.25036578  1
  V  V2  1  0.75093752  0.99907036  0.74949853  1
  V  V3  1  0.00000000  0.50295285  0.11971853  1
  V  V4  1  0.00000000  0.49749895  0.63086010  1
  V  V5  1  0.50000000  0.25099177  0.00080405  1
  V  V6  1  0.50000000  0.24182480  0.50039756  1
  V  V7  1  0.25513163  0.99975631  0.25036578  1
  V  V8  1  0.24906248  0.99907036  0.74949853  1
  Ga  Ga0  1  0.50000000  0.49681082  0.24875873  1
  Ga  Ga1  1  0.50000000  0.49787126  0.74580942  1
  Ga  Ga2  1  0.00000000  0.00556992  0.00330510  1
  Ga  Ga3  1  0.00000000  0.99919214  0.50329171  1
  Tc  Tc0  1  0.00000000  0.50269252  0.87454449  1
  Tc  Tc1  1  0.50000000  0.75235417  0.99997519  1
  Rh  Rh0  1  0.00000000  0.49960619  0.37401132  1
loop_
_geom_bond_atom_site_label_1
_geom_bond_atom_site_label_2
_geom_bond_distance
_geom_bond_site_symmetry_2
V0 V6 2.312631 1_565
V0 V6 2.437477 1_555
V0 V1 2.888759 1_555
V0 V7 2.888759 1_555
V0 V2 2.923188 1_555
V0 V8 2.923188 1_555
V1 V7 2.316148 1_555
V1 V7 2.413226 1_655
V1 V6 2.902469 1_565
V1 V5 2.910073 1_565
V1 V3 2.934596 1_655
V1 V3 2.952567 1_665
V2 V8 2.355819 1_655
V2 V8 2.373554 1_555
V2 V4 2.875479 1_665
V2 V4 2.893822 1_655
V2 V6 2.901870 1_565
V2 V5 2.942947 1_566
V3 V7 2.934596 1_555
V3 V7 2.952567 1_545
V4 V8 2.875479 1_545
V4 V8 2.893822 1_555
V5 V7 2.910073 1_545
V5 V8 2.942947 1_544
V6 V8 2.901870 1_545
V6 V7 2.902469 1_545
Ga0 V1 2.629738 1_545
Ga0 V7 2.629738 1_545
Ga0 V5 2.651335 1_555
Ga0 Rh0 2.652034 1_555
Ga0 Rh0 2.652034 1_655
Ga0 V1 2.654978 1_555
Ga0 V7 2.654978 1_555
Ga0 V3 2.668728 1_555
Ga0 V3 2.668728 1_655
Ga0 Tc1 2.672220 1_554
Ga0 V6 2.695447 1_555
Ga0 V0 2.695587 1_555
Ga1 V4 2.608766 1_555
Ga1 V4 2.608766 1_655
Ga1 V2 2.650051 1_545
Ga1 V8 2.650051 1_545
Ga1 V6 2.651545 1_555
Ga1 V2 2.660445 1_555
Ga1 V8 2.660445 1_555
Ga1 V0 2.660518 1_555
Ga1 Tc0 2.667390 1_555
Ga1 Tc0 2.667390 1_655
Ga1 V5 2.707432 1_556
Ga1 Tc1 2.723048 1_555
Ga2 V3 2.616068 1_555
Ga2 V3 2.632042 1_545
Ga2 V5 2.636498 1_455
Ga2 V5 2.636498 1_555
Ga2 Tc1 2.653240 1_444
Ga2 Tc1 2.653240 1_544
Ga2 V7 2.657791 1_545
Ga2 V1 2.657791 1_445
Ga2 Tc0 2.660864 1_554
Ga2 Tc0 2.692199 1_544
Ga2 V8 2.703130 1_544
Ga2 V2 2.703130 1_444
Ga3 V6 2.630699 1_565
Ga3 V6 2.630699 1_465
Ga3 V0 2.634308 1_455
Ga3 V0 2.634308 1_555
Ga3 V8 2.637492 1_555
Ga3 V2 2.637492 1_455
Ga3 V4 2.667633 1_565
Ga3 V4 2.674907 1_555
Ga3 Rh0 2.677013 1_565
Ga3 Rh0 2.680627 1_555
Ga3 V7 2.707930 1_555
Ga3 V1 2.707930 1_455
Tc0 V4 2.335885 1_555
Tc0 V3 2.349958 1_556
Tc0 V8 2.892219 1_555
Tc0 V2 2.892219 1_455
Tc0 V8 2.926633 1_545
Tc0 V2 2.926633 1_445
Tc1 V5 2.368572 1_566
Tc1 V5 2.381463 1_556
Tc1 V1 2.915501 1_556
Tc1 V7 2.915501 1_556
Tc1 V2 2.920162 1_555
Tc1 V8 2.920162 1_555
Rh0 V3 2.437355 1_555
Rh0 V4 2.461842 1_555
Rh0 V7 2.913119 1_555
Rh0 V1 2.913119 1_455
Rh0 V0 2.915986 1_555
Rh0 V0 2.915986 1_455
Rh0 V7 2.918197 1_545
Rh0 V1 2.918197 1_445
Rh0 V6 2.923857 1_455
Rh0 V6 2.923857 1_555
