# generated using pymatgen
data_Ca4Al18Ir5Pd
_symmetry_space_group_name_H-M   'P 1'
_cell_length_a   7.50698579
_cell_length_b   7.50698764
_cell_length_c   9.59236339
_cell_angle_alpha   89.97445194
_cell_angle_beta   89.97445530
_cell_angle_gamma   119.06781196
_symmetry_Int_Tables_number   1
_chemical_formula_structural   Ca4Al18Ir5Pd
_chemical_formula_sum   'Ca4 Al18 Ir5 Pd1'
_cell_volume   472.48790206
_cell_formula_units_Z   1
loop_
 _symmetry_equiv_pos_site_id
 _symmetry_equiv_pos_as_xyz
  1  'x, y, z'
loop_
 _atom_site_type_symbol
 _atom_site_label
 _atom_site_symmetry_multiplicity
 _atom_site_fract_x
 _atom_site_fract_y
 _atom_site_fract_z
 _atom_site_occupancy
  Ca  Ca0  1  0.99539908  0.67284539  0.24908964  1
  Ca  Ca1  1  0.00460092  0.32715461  0.75091036  1
  Ca  Ca2  1  0.67284539  0.99539908  0.24908964  1
  Ca  Ca3  1  0.32715461  0.00460092  0.75091036  1
  Al  Al0  1  0.13419950  0.13419950  0.24746458  1
  Al  Al1  1  0.86580050  0.86580050  0.75253542  1
  Al  Al2  1  0.00235840  0.33612326  0.06995322  1
  Al  Al3  1  0.99764160  0.66387674  0.93004678  1
  Al  Al4  1  0.99614349  0.66002582  0.57249173  1
  Al  Al5  1  0.33997418  0.00385651  0.42750827  1
  Al  Al6  1  0.00385651  0.33997418  0.42750827  1
  Al  Al7  1  0.66002582  0.99614349  0.57249173  1
  Al  Al8  1  0.66387674  0.99764160  0.93004678  1
  Al  Al9  1  0.33612326  0.00235840  0.06995322  1
  Al  Al10  1  0.33803372  0.33803372  0.54701083  1
  Al  Al11  1  0.66196628  0.66196628  0.45298917  1
  Al  Al12  1  0.66583533  0.66583533  0.04458328  1
  Al  Al13  1  0.33416467  0.33416467  0.95541672  1
  Al  Al14  1  0.33670962  0.54749858  0.24994864  1
  Al  Al15  1  0.66329038  0.45250142  0.75005136  1
  Al  Al16  1  0.54749858  0.33670962  0.24994864  1
  Al  Al17  1  0.45250142  0.66329038  0.75005136  1
  Ir  Ir0  1  0.67109078  0.32890922  0.00000000  1
  Ir  Ir1  1  0.32890922  0.67109078  1.00000000  1
  Ir  Ir2  1  0.32819529  0.67180471  0.50000000  1
  Ir  Ir3  1  0.67180471  0.32819529  0.50000000  1
  Ir  Ir4  1  0.00000000  0.00000000  0.00000000  1
  Pd  Pd0  1  0.00000000  0.00000000  0.50000000  1
loop_
_geom_bond_atom_site_label_1
_geom_bond_atom_site_label_2
_geom_bond_distance
_geom_bond_site_symmetry_2
Al0 Ir4 2.585093 1_555
Al0 Pd0 2.628190 1_555
Al0 Al16 2.711993 1_555
Al0 Al14 2.711993 1_555
Al0 Al9 2.762915 1_555
Al0 Al2 2.762915 1_555
Al0 Al5 2.792122 1_555
Al0 Al6 2.792122 1_555
Al0 Ca2 3.094237 1_445
Al0 Ca0 3.094238 1_445
Al1 Ir4 2.585093 1_666
Al1 Pd0 2.628190 1_665
Al1 Al17 2.711993 1_555
Al1 Al15 2.711993 1_555
Al1 Al8 2.762915 1_555
Al1 Al3 2.762915 1_555
Al1 Al7 2.792122 1_555
Al1 Al4 2.792122 1_555
Al1 Ca3 3.094237 1_665
Al1 Ca1 3.094238 1_665
Al2 Ir0 2.551105 1_455
Al2 Ir4 2.602998 1_555
Al2 Ir1 2.605785 1_554
Al2 Al3 2.817416 1_454
Al2 Al8 2.906285 1_444
Al2 Ca1 3.061364 1_554
Al2 Ca2 3.075440 1_445
Al2 Ca0 3.078499 1_455
Al3 Ir1 2.551105 1_655
Al3 Ir4 2.602998 1_666
Al3 Ir0 2.605785 1_556
Al3 Al9 2.906285 1_666
Al3 Ca0 3.061364 1_556
Al3 Ca3 3.075440 1_665
Al3 Ca1 3.078499 1_655
Al4 Ir2 2.547386 1_655
Al4 Ir3 2.593585 1_555
Al4 Pd0 2.631465 1_665
Al4 Al6 2.801460 1_655
Al4 Al5 2.962870 1_665
Al4 Ca1 3.054154 1_655
Al4 Ca3 3.091424 1_665
Al4 Ca0 3.103732 1_555
Al5 Ir2 2.547386 1_545
Al5 Ir3 2.593585 1_555
Al5 Pd0 2.631465 1_555
Al5 Al7 2.801460 1_545
Al5 Ca2 3.054154 1_545
Al5 Ca0 3.091424 1_445
Al5 Ca3 3.103732 1_555
Al6 Ir3 2.547386 1_455
Al6 Ir2 2.593585 1_555
Al6 Pd0 2.631465 1_555
Al6 Al7 2.962870 1_445
Al6 Ca0 3.054154 1_455
Al6 Ca2 3.091424 1_445
Al6 Ca1 3.103732 1_555
Al7 Ir3 2.547386 1_565
Al7 Ir2 2.593585 1_555
Al7 Pd0 2.631465 1_665
Al7 Ca3 3.054154 1_565
Al7 Ca1 3.091424 1_665
Al7 Ca2 3.103732 1_555
Al8 Ir0 2.551105 1_566
Al8 Ir4 2.602997 1_666
Al8 Ir1 2.605785 1_555
Al8 Al9 2.817415 1_566
Al8 Ca2 3.061364 1_556
Al8 Ca1 3.075440 1_665
Al8 Ca3 3.078499 1_565
Al9 Ir1 2.551105 1_544
Al9 Ir4 2.602997 1_555
Al9 Ir0 2.605785 1_555
Al9 Ca3 3.061364 1_554
Al9 Ca0 3.075440 1_445
Al9 Ca2 3.078499 1_545
Al10 Ir3 2.581811 1_555
Al10 Ir2 2.581812 1_555
Al10 Pd0 2.612889 1_555
Al10 Al11 2.624949 1_555
Al10 Al6 2.765085 1_555
Al10 Al5 2.765086 1_555
Al10 Al15 2.908703 1_555
Al10 Al17 2.908704 1_555
Al10 Ca1 3.145532 1_555
Al10 Ca3 3.145532 1_555
Al11 Ir2 2.581811 1_555
Al11 Ir3 2.581812 1_555
Al11 Pd0 2.612889 1_665
Al11 Al4 2.765085 1_555
Al11 Al7 2.765086 1_555
Al11 Al14 2.908703 1_555
Al11 Al16 2.908704 1_555
Al11 Ca0 3.145532 1_555
Al11 Ca2 3.145532 1_555
Al12 Ir4 2.579159 1_665
Al12 Ir1 2.584515 1_554
Al12 Ir0 2.584515 1_555
Al12 Al13 2.666499 1_554
Al12 Al3 2.728530 1_554
Al12 Al8 2.728530 1_554
Al12 Al14 2.938664 1_555
Al12 Al16 2.938664 1_555
Al12 Ca0 3.138434 1_555
Al12 Ca2 3.138435 1_555
Al13 Ir4 2.579159 1_556
Al13 Ir0 2.584515 1_556
Al13 Ir1 2.584515 1_555
Al13 Al2 2.728530 1_556
Al13 Al9 2.728530 1_556
Al13 Al15 2.938664 1_555
Al13 Al17 2.938664 1_555
Al13 Ca1 3.138434 1_555
Al13 Ca3 3.138435 1_555
Al14 Ir1 2.581407 1_554
Al14 Ir2 2.586097 1_555
Al14 Al16 2.727817 1_555
Al14 Al6 2.789784 1_555
Al14 Al2 2.816950 1_555
Al14 Ca2 3.070620 1_555
Al14 Ca0 3.129406 1_455
Al15 Ir0 2.581407 1_556
Al15 Ir3 2.586097 1_555
Al15 Al17 2.727817 1_555
Al15 Al4 2.789784 1_555
Al15 Al3 2.816950 1_555
Al15 Ca3 3.070620 1_555
Al15 Ca1 3.129406 1_655
Al16 Ir0 2.581407 1_555
Al16 Ir3 2.586097 1_555
Al16 Al5 2.789784 1_555
Al16 Al9 2.816950 1_555
Al16 Ca0 3.070619 1_555
Al16 Ca2 3.129406 1_545
Al17 Ir1 2.581407 1_555
Al17 Ir2 2.586097 1_555
Al17 Al7 2.789784 1_555
Al17 Al8 2.816950 1_555
Al17 Ca1 3.070619 1_555
Al17 Ca3 3.129406 1_565
