# generated using pymatgen
data_Tc(PO4)2
_symmetry_space_group_name_H-M   'P 1'
_cell_length_a   4.89930818
_cell_length_b   7.44626848
_cell_length_c   7.60391448
_cell_angle_alpha   90.00000000
_cell_angle_beta   90.00000000
_cell_angle_gamma   90.00000000
_symmetry_Int_Tables_number   1
_chemical_formula_structural   Tc(PO4)2
_chemical_formula_sum   'Tc2 P4 O16'
_cell_volume   277.40269316
_cell_formula_units_Z   2
loop_
 _symmetry_equiv_pos_site_id
 _symmetry_equiv_pos_as_xyz
  1  'x, y, z'
loop_
 _atom_site_type_symbol
 _atom_site_label
 _atom_site_symmetry_multiplicity
 _atom_site_fract_x
 _atom_site_fract_y
 _atom_site_fract_z
 _atom_site_occupancy
  Tc  Tc0  1  0.50000000  0.75000000  0.76816824  1
  Tc  Tc1  1  0.00000000  0.25000000  0.23183176  1
  P  P0  1  0.25775647  0.63936399  0.34699592  1
  P  P1  1  0.75775647  0.36063601  0.65300408  1
  P  P2  1  0.74224353  0.86063601  0.34699592  1
  P  P3  1  0.24224353  0.13936399  0.65300408  1
  O  O0  1  0.28393686  0.63472024  0.54142166  1
  O  O1  1  0.78393686  0.36527976  0.45857834  1
  O  O2  1  0.71606314  0.86527976  0.54142166  1
  O  O3  1  0.21606314  0.13472024  0.45857834  1
  O  O4  1  0.27580883  0.63970134  0.89216375  1
  O  O5  1  0.77580883  0.36029866  0.10783625  1
  O  O6  1  0.72419117  0.86029866  0.89216375  1
  O  O7  1  0.22419117  0.13970134  0.10783625  1
  O  O8  1  0.24877732  0.96434310  0.74755558  1
  O  O9  1  0.74877732  0.03565690  0.25244442  1
  O  O10  1  0.75122268  0.53565690  0.74755558  1
  O  O11  1  0.25122268  0.46434310  0.25244442  1
  O  O12  1  0.50000000  0.75000000  0.26140271  1
  O  O13  1  0.00000000  0.25000000  0.73859729  1
  O  O14  1  0.50000000  0.25000000  0.71385557  1
  O  O15  1  0.00000000  0.75000000  0.28614443  1
loop_
_geom_bond_atom_site_label_1
_geom_bond_atom_site_label_2
_geom_bond_distance
_geom_bond_site_symmetry_2
O0 P0 1.484353 1_555
O0 Tc0 2.197758 1_555
O1 P1 1.484353 1_555
O1 Tc1 2.197758 1_655
O2 P2 1.484353 1_555
O2 Tc0 2.197758 1_555
O3 P3 1.484353 1_555
O3 Tc1 2.197758 1_555
O4 Tc0 1.664322 1_555
O5 Tc1 1.664322 1_655
O6 Tc0 1.664322 1_555
O7 Tc1 1.664322 1_555
O8 P3 1.488757 1_565
O8 Tc0 2.021602 1_555
O9 P2 1.488757 1_545
O9 Tc1 2.021602 1_655
O10 P1 1.488757 1_555
O10 Tc0 2.021602 1_555
O11 P0 1.488757 1_555
O11 Tc1 2.021602 1_555
O12 P2 1.584563 1_555
O12 P0 1.584563 1_555
O13 P1 1.584563 1_455
O13 P3 1.584563 1_555
O14 P1 1.577189 1_555
O14 P3 1.577189 1_555
O15 P0 1.577189 1_555
O15 P2 1.577189 1_455
