# generated using pymatgen
data_Na3Zr2Si2PO12
_symmetry_space_group_name_H-M   'P 1'
_cell_length_a   9.19695200
_cell_length_b   9.20219144
_cell_length_c   9.22102607
_cell_angle_alpha   89.98462985
_cell_angle_beta   119.73905546
_cell_angle_gamma   119.91005133
_symmetry_Int_Tables_number   1
_chemical_formula_structural   Na3Zr2Si2PO12
_chemical_formula_sum   'Na6 Zr4 Si4 P2 O24'
_cell_volume   554.80795027
_cell_formula_units_Z   2
loop_
 _symmetry_equiv_pos_site_id
 _symmetry_equiv_pos_as_xyz
  1  'x, y, z'
loop_
 _atom_site_type_symbol
 _atom_site_label
 _atom_site_symmetry_multiplicity
 _atom_site_fract_x
 _atom_site_fract_y
 _atom_site_fract_z
 _atom_site_occupancy
  Na  Na0  1  0.61343900  0.87209100  0.20562200  1
  Na  Na1  1  0.49364300  0.97706600  0.50193400  1
  Na  Na2  1  0.00521400  0.61103000  0.25739600  1
  Na  Na3  1  0.00935100  0.39026900  0.75801100  1
  Na  Na4  1  0.38276500  0.25960100  0.29136800  1
  Na  Na5  1  0.50260800  0.48673500  0.99661500  1
  Zr  Zr0  1  0.21223700  0.36025800  0.56188700  1
  Zr  Zr1  1  0.20735600  0.85832900  0.05777400  1
  Zr  Zr2  1  0.78325500  0.14166000  0.93775800  1
  Zr  Zr3  1  0.79934000  0.65611000  0.44191000  1
  Si  Si0  1  0.28319300  0.53908800  0.23521500  1
  Si  Si1  1  0.30010600  0.75379900  0.74852600  1
  Si  Si2  1  0.71298600  0.25494500  0.26172500  1
  Si  Si3  1  0.00250200  0.96101100  0.25252400  1
  P  P0  1  0.00005400  0.05049900  0.74995300  1
  P  P1  1  0.70337700  0.45794800  0.75012000  1
  O  O0  1  0.86260500  0.99761000  0.08129700  1
  O  O1  1  0.88217700  0.89411800  0.58285400  1
  O  O2  1  0.48770400  0.57087200  0.26055800  1
  O  O3  1  0.08205000  0.37381300  0.05302300  1
  O  O4  1  0.26727300  0.49369600  0.40141900  1
  O  O5  1  0.29720800  0.72468500  0.23247500  1
  O  O6  1  0.16145500  0.22687200  0.75253100  1
  O  O7  1  0.48597500  0.92275200  0.75056200  1
  O  O8  1  0.30767900  0.57904100  0.74996200  1
  O  O9  1  0.15838400  0.93299600  0.23912500  1
  O  O10  1  0.91544000  0.28918200  0.44265900  1
  O  O11  1  0.72907100  0.22814400  0.09565600  1
  O  O12  1  0.30482600  0.80004200  0.92466700  1
  O  O13  1  0.08015200  0.70137400  0.57319300  1
  O  O14  1  0.84293500  0.07322600  0.74753000  1
  O  O15  1  0.69339100  0.42275100  0.26709900  1
  O  O16  1  0.51107700  0.08162000  0.23972600  1
  O  O17  1  0.83828400  0.77653200  0.25979600  1
  O  O18  1  0.69858100  0.28713900  0.74908400  1
  O  O19  1  0.69101900  0.49716800  0.58115800  1
  O  O20  1  0.90880100  0.61560200  0.91623200  1
  O  O21  1  0.52633300  0.43651100  0.75000700  1
  O  O22  1  0.14304800  0.13516300  0.42422900  1
  O  O23  1  0.11310200  0.00864800  0.91681800  1
loop_
_geom_bond_atom_site_label_1
_geom_bond_atom_site_label_2
_geom_bond_distance
_geom_bond_site_symmetry_2
Na0 O12 2.456900 1_554
Na0 O17 2.467256 1_555
Na0 O2 2.580871 1_555
Na0 O16 2.609043 1_565
Na0 O5 2.672040 1_555
Na0 O0 2.804566 1_555
Na1 O7 2.373912 1_555
Na1 O14 2.485951 1_565
Na1 O5 2.489310 1_555
Na1 O9 2.623870 1_555
Na1 O16 2.650811 1_565
Na1 O18 2.695635 1_565
Na2 O5 2.483833 1_555
Na2 O15 2.556072 1_455
Na2 O9 2.619889 1_555
Na2 O17 2.653764 1_455
Na2 O13 2.661681 1_555
Na2 O20 2.820334 1_454
Na2 O4 2.856094 1_555
Na2 O11 2.899939 1_455
Na3 O8 2.449449 1_555
Na3 O18 2.477486 1_455
Na3 O3 2.483217 1_556
Na3 O14 2.502769 1_455
Na3 O6 2.527477 1_555
Na3 O10 2.602983 1_455
Na4 O19 2.502682 1_555
Na4 O9 2.520462 1_545
Na4 O2 2.594505 1_555
Na4 O16 2.605226 1_555
Na4 O15 2.611931 1_555
Na4 O22 2.798910 1_555
Na5 O21 2.454706 1_555
Na5 O6 2.478469 1_555
Na5 O15 2.516727 1_556
Na5 O8 2.565295 1_555
Na5 O17 2.625260 1_556
Na5 O2 2.641888 1_556
O0 Si3 1.636518 1_655
O0 Zr2 2.011740 1_564
O1 P0 1.551906 1_665
O1 Zr3 2.102762 1_555
O2 Si0 1.641097 1_555
O2 Zr3 2.151730 1_555
O3 Si0 1.633977 1_555
O3 Zr2 2.119894 1_454
O4 Si0 1.644985 1_555
O4 Zr0 2.018830 1_555
O5 Si0 1.648587 1_555
O5 Zr1 2.117110 1_555
O6 P0 1.549371 1_555
O6 Zr0 2.248722 1_555
O7 Si1 1.630154 1_555
O7 Zr2 2.083213 1_565
O8 Si1 1.643767 1_555
O8 Zr0 2.135561 1_555
O9 Si3 1.637492 1_555
O9 Zr1 2.127866 1_555
O10 Si2 1.637989 1_555
O10 Zr0 2.080865 1_655
O11 Si2 1.639818 1_555
O11 Zr2 2.029171 1_554
O12 Si1 1.653177 1_555
O12 Zr1 2.041855 1_556
O13 Si1 1.649617 1_555
O13 Zr3 2.033371 1_455
O14 P0 1.549730 1_655
O14 Zr2 2.252814 1_555
O15 Si2 1.644950 1_555
O15 Zr3 2.125091 1_555
O16 Si2 1.645015 1_555
O16 Zr1 2.113743 1_545
O17 Si3 1.646475 1_655
O17 Zr3 2.091922 1_555
O18 P1 1.550192 1_555
O18 Zr2 2.262681 1_555
O19 P1 1.560601 1_555
O19 Zr3 2.143666 1_555
O20 P1 1.554676 1_555
O20 Zr1 2.135810 1_656
O21 P1 1.538879 1_555
O21 Zr0 2.203167 1_555
O22 Si3 1.628191 1_545
O22 Zr0 2.047512 1_555
O23 P0 1.551990 1_555
O23 Zr1 2.105061 1_546
