# generated using pymatgen
data_AgP(SF2)3
_symmetry_space_group_name_H-M   'P 1'
_cell_length_a   8.51528471
_cell_length_b   8.51528452
_cell_length_c   5.18541301
_cell_angle_alpha   88.85320440
_cell_angle_beta   88.85320745
_cell_angle_gamma   117.31300362
_symmetry_Int_Tables_number   1
_chemical_formula_structural   AgP(SF2)3
_chemical_formula_sum   'Ag2 P2 S6 F12'
_cell_volume   333.82882144
_cell_formula_units_Z   2
loop_
 _symmetry_equiv_pos_site_id
 _symmetry_equiv_pos_as_xyz
  1  'x, y, z'
loop_
 _atom_site_type_symbol
 _atom_site_label
 _atom_site_symmetry_multiplicity
 _atom_site_fract_x
 _atom_site_fract_y
 _atom_site_fract_z
 _atom_site_occupancy
  Ag  Ag0  1  0.50000000  0.50000000  0.00000000  1
  Ag  Ag1  1  0.00000000  0.00000000  0.50000000  1
  P  P0  1  0.82441095  0.17558905  1.00000000  1
  P  P1  1  0.17558905  0.82441095  0.00000000  1
  S  S0  1  0.29053941  0.29053941  0.59472718  1
  S  S1  1  0.70946059  0.70946059  0.40527282  1
  S  S2  1  0.28601353  0.50878758  0.41336066  1
  S  S3  1  0.50878758  0.28601353  0.41336066  1
  S  S4  1  0.71398647  0.49121242  0.58663934  1
  S  S5  1  0.49121242  0.71398647  0.58663934  1
  F  F0  1  0.01429958  0.20418847  0.11348004  1
  F  F1  1  0.20418847  0.01429958  0.11348004  1
  F  F2  1  0.98570042  0.79581153  0.88651996  1
  F  F3  1  0.79581153  0.98570042  0.88651996  1
  F  F4  1  0.92768261  0.27191491  0.73226079  1
  F  F5  1  0.27191491  0.92768261  0.73226079  1
  F  F6  1  0.07231739  0.72808509  0.26773921  1
  F  F7  1  0.72808509  0.07231739  0.26773921  1
  F  F8  1  0.64020769  0.14609201  0.88507780  1
  F  F9  1  0.14609201  0.64020769  0.88507780  1
  F  F10  1  0.35979231  0.85390799  0.11492220  1
  F  F11  1  0.85390799  0.35979231  0.11492220  1
loop_
_geom_bond_atom_site_label_1
_geom_bond_atom_site_label_2
_geom_bond_distance
_geom_bond_site_symmetry_2
Ag0 S3 2.809879 1_555
Ag0 S5 2.809879 1_554
Ag0 S2 2.809879 1_555
Ag0 S4 2.809879 1_554
Ag0 S1 2.856485 1_555
Ag0 S0 2.856485 1_554
Ag1 F0 2.590659 1_555
Ag1 F2 2.590659 1_445
Ag1 F3 2.590659 1_445
Ag1 F1 2.590659 1_555
Ag1 S0 2.638768 1_555
Ag1 S1 2.638768 1_445
S0 S2 2.082544 1_555
S0 S3 2.082544 1_555
S1 S4 2.082544 1_555
S1 S5 2.082544 1_555
S2 S5 2.058506 1_555
S3 S4 2.058506 1_555
F0 P0 1.643948 1_454
F1 P1 1.643948 1_545
F2 P1 1.643948 1_656
F3 P0 1.643948 1_565
F4 P0 1.617777 1_555
F5 P1 1.617777 1_556
F6 P1 1.617777 1_555
F7 P0 1.617777 1_554
F8 P0 1.600121 1_555
F9 P1 1.600121 1_556
F10 P1 1.600121 1_555
F11 P0 1.600121 1_554
