# generated using pymatgen
data_HfSc(ZnPd)2
_symmetry_space_group_name_H-M   'P 1'
_cell_length_a   5.00286677
_cell_length_b   5.00286725
_cell_length_c   5.20741932
_cell_angle_alpha   90.00000000
_cell_angle_beta   90.00000000
_cell_angle_gamma   128.73892592
_symmetry_Int_Tables_number   1
_chemical_formula_structural   HfSc(ZnPd)2
_chemical_formula_sum   'Hf1 Sc1 Zn2 Pd2'
_cell_volume   101.66187186
_cell_formula_units_Z   1
loop_
 _symmetry_equiv_pos_site_id
 _symmetry_equiv_pos_as_xyz
  1  'x, y, z'
loop_
 _atom_site_type_symbol
 _atom_site_label
 _atom_site_symmetry_multiplicity
 _atom_site_fract_x
 _atom_site_fract_y
 _atom_site_fract_z
 _atom_site_occupancy
  Hf  Hf0  1  0.70385612  0.29614388  0.25000000  1
  Sc  Sc0  1  0.29511471  0.70488529  0.75000000  1
  Zn  Zn0  1  0.00376167  0.99623833  0.49746628  1
  Zn  Zn1  1  0.00376167  0.99623833  0.00253372  1
  Pd  Pd0  1  0.39525335  0.60474665  0.25000000  1
  Pd  Pd1  1  0.59825347  0.40174653  0.75000000  1
loop_
_geom_bond_atom_site_label_1
_geom_bond_atom_site_label_2
_geom_bond_distance
_geom_bond_site_symmetry_2
Hf0 Pd0 2.768476 1_655
Hf0 Pd0 2.768477 1_545
Hf0 Pd1 2.772520 1_555
Hf0 Pd1 2.772520 1_554
Hf0 Pd0 2.783964 1_555
Hf0 Zn0 2.996732 1_645
Hf0 Zn1 2.996732 1_645
Hf0 Zn0 3.098742 1_545
Hf0 Zn1 3.098742 1_545
Hf0 Zn0 3.098743 1_655
Hf0 Zn1 3.098743 1_655
Sc0 Zn1 2.938977 1_556
Sc0 Zn0 2.938977 1_555
Sc0 Zn1 3.155218 1_656
Sc0 Zn0 3.155218 1_655
Sc0 Zn1 3.155219 1_546
Sc0 Zn0 3.155219 1_545
Zn0 Zn1 2.577321 1_555
Zn0 Zn1 2.630098 1_556
Pd0 Zn0 2.702230 1_655
Pd0 Zn1 2.702230 1_655
Pd0 Zn0 2.702230 1_545
Pd0 Zn1 2.702230 1_545
Pd0 Sc0 2.755972 1_554
Pd0 Sc0 2.755972 1_555
Pd1 Zn1 2.671927 1_546
Pd1 Zn0 2.671927 1_545
Pd1 Zn1 2.671927 1_656
Pd1 Zn0 2.671927 1_655
Pd1 Sc0 2.734673 1_555
Pd1 Sc0 2.799484 1_655
Pd1 Sc0 2.799484 1_545
