# generated using pymatgen
data_Mn(FeO2)2
_symmetry_space_group_name_H-M   'P 1'
_cell_length_a   6.03855655
_cell_length_b   6.03855655
_cell_length_c   6.03855655
_cell_angle_alpha   118.30716210
_cell_angle_beta   117.46585000
_cell_angle_gamma   93.70284658
_symmetry_Int_Tables_number   1
_chemical_formula_structural   Mn(FeO2)2
_chemical_formula_sum   'Mn2 Fe4 O8'
_cell_volume   160.30021338
_cell_formula_units_Z   2
loop_
 _symmetry_equiv_pos_site_id
 _symmetry_equiv_pos_as_xyz
  1  'x, y, z'
loop_
 _atom_site_type_symbol
 _atom_site_label
 _atom_site_symmetry_multiplicity
 _atom_site_fract_x
 _atom_site_fract_y
 _atom_site_fract_z
 _atom_site_occupancy
  Mn  Mn0  1  0.00000000  0.50000000  0.50000000  1
  Mn  Mn1  1  0.50000000  0.50000000  0.00000000  1
  Fe  Fe0  1  0.62192200  0.87192200  0.75000000  1
  Fe  Fe1  1  0.37807800  0.12807800  0.25000000  1
  Fe  Fe2  1  0.00000000  0.50000000  0.00000000  1
  Fe  Fe3  1  0.00000000  0.00000000  0.50000000  1
  O  O0  1  0.24050200  0.72045200  0.97994900  1
  O  O1  1  0.79207000  0.26438300  0.52768700  1
  O  O2  1  0.24050200  0.26055300  0.52005100  1
  O  O3  1  0.23669500  0.26438300  0.97231300  1
  O  O4  1  0.76330500  0.73561700  0.02768700  1
  O  O5  1  0.20793000  0.73561700  0.47231300  1
  O  O6  1  0.75949800  0.73944700  0.47994900  1
  O  O7  1  0.75949800  0.27954800  0.02005100  1
loop_
_geom_bond_atom_site_label_1
_geom_bond_atom_site_label_2
_geom_bond_distance
_geom_bond_site_symmetry_2
Mn0 O1 1.953790 1_455
Mn0 O5 1.953790 1_555
Mn0 O7 2.118849 1_455
Mn0 O0 2.118849 1_555
Mn0 O2 2.118849 1_555
Mn0 O6 2.118849 1_455
Mn1 O4 1.953794 1_555
Mn1 O3 1.953794 1_554
Mn1 O6 2.118849 1_555
Mn1 O2 2.118849 1_554
Mn1 O0 2.118853 1_554
Mn1 O7 2.118853 1_555
Fe0 O7 2.021789 1_566
Fe0 O6 2.021794 1_555
Fe0 O5 2.072986 1_555
Fe0 O4 2.072986 1_556
Fe1 O0 2.021789 1_544
Fe1 O2 2.021794 1_555
Fe1 O1 2.072986 1_555
Fe1 O3 2.072986 1_554
Fe2 O0 1.990294 1_554
Fe2 O7 1.990294 1_455
Fe2 O4 2.086302 1_455
Fe2 O3 2.086302 1_554
Fe2 O1 2.086307 1_454
Fe2 O5 2.086307 1_555
Fe3 O6 1.990291 1_445
Fe3 O2 1.990291 1_555
Fe3 O4 2.086307 1_445
Fe3 O3 2.086307 1_555
Fe3 O1 2.086307 1_455
Fe3 O5 2.086307 1_545
