# generated using pymatgen
data_Zn3Cd(PN2)6
_symmetry_space_group_name_H-M   'P 1'
_cell_length_a   7.02181646
_cell_length_b   7.02181631
_cell_length_c   7.02181602
_cell_angle_alpha   109.54660476
_cell_angle_beta   109.54659838
_cell_angle_gamma   109.54658300
_symmetry_Int_Tables_number   1
_chemical_formula_structural   Zn3Cd(PN2)6
_chemical_formula_sum   'Zn3 Cd1 P6 N12'
_cell_volume   265.77160092
_cell_formula_units_Z   1
loop_
 _symmetry_equiv_pos_site_id
 _symmetry_equiv_pos_as_xyz
  1  'x, y, z'
loop_
 _atom_site_type_symbol
 _atom_site_label
 _atom_site_symmetry_multiplicity
 _atom_site_fract_x
 _atom_site_fract_y
 _atom_site_fract_z
 _atom_site_occupancy
  Zn  Zn0  1  0.01009260  0.33709365  0.01009260  1
  Zn  Zn1  1  0.01009260  0.01009260  0.33709365  1
  Zn  Zn2  1  0.33709365  0.01009260  0.01009260  1
  Cd  Cd0  1  0.79487429  0.79487429  0.79487429  1
  P  P0  1  0.51068478  0.26409652  0.76068041  1
  P  P1  1  0.26409652  0.76068041  0.51068478  1
  P  P2  1  0.76068041  0.51068478  0.26409652  1
  P  P3  1  0.76068041  0.26409652  0.51068478  1
  P  P4  1  0.51068478  0.76068041  0.26409652  1
  P  P5  1  0.26409652  0.51068478  0.76068041  1
  N  N0  1  0.46685743  0.73415666  0.46685743  1
  N  N1  1  0.73415666  0.46685743  0.46685743  1
  N  N2  1  0.46685743  0.46685743  0.73415666  1
  N  N3  1  0.74278076  0.28975699  0.74278076  1
  N  N4  1  0.01082937  0.55666595  0.27936939  1
  N  N5  1  0.27936939  0.55666595  0.01082937  1
  N  N6  1  0.27936939  0.01082937  0.55666595  1
  N  N7  1  0.01082937  0.27936939  0.55666595  1
  N  N8  1  0.74278076  0.74278076  0.28975699  1
  N  N9  1  0.55666595  0.01082937  0.27936939  1
  N  N10  1  0.28975699  0.74278076  0.74278076  1
  N  N11  1  0.55666595  0.27936939  0.01082937  1
loop_
_geom_bond_atom_site_label_1
_geom_bond_atom_site_label_2
_geom_bond_distance
_geom_bond_site_symmetry_2
Cd0 N1 2.434716 1_555
Cd0 N0 2.434717 1_555
Cd0 N2 2.434717 1_555
N0 P4 1.608954 1_555
N0 P1 1.608954 1_555
N1 P2 1.608954 1_555
N1 P3 1.608954 1_555
N2 P0 1.608954 1_555
N2 P5 1.608954 1_555
N3 P3 1.630959 1_555
N3 P0 1.630959 1_555
N3 Zn0 1.991071 1_656
N4 P1 1.630486 1_555
N4 P2 1.634727 1_455
N4 Zn0 1.997429 1_555
N5 P4 1.630486 1_555
N5 P5 1.634727 1_554
N5 Zn0 1.997429 1_555
N6 P0 1.630486 1_555
N6 P1 1.634727 1_545
N6 Zn1 1.997429 1_555
N7 P5 1.630486 1_555
N7 P3 1.634727 1_455
N7 Zn1 1.997429 1_555
N8 P2 1.630959 1_555
N8 P4 1.630959 1_555
N8 Zn1 1.991071 1_665
N9 P3 1.630486 1_555
N9 P4 1.634727 1_545
N9 Zn2 1.997429 1_555
N10 P1 1.630959 1_555
N10 P5 1.630959 1_555
N10 Zn2 1.991071 1_566
N11 P2 1.630486 1_555
N11 P0 1.634727 1_554
N11 Zn2 1.997429 1_555
