# generated using pymatgen
data_Ca7YBi6
_symmetry_space_group_name_H-M   'P 1'
_cell_length_a   8.27917964
_cell_length_b   8.36626862
_cell_length_c   8.36627031
_cell_angle_alpha   109.68113450
_cell_angle_beta   109.26048665
_cell_angle_gamma   109.26047946
_symmetry_Int_Tables_number   1
_chemical_formula_structural   Ca7YBi6
_chemical_formula_sum   'Ca7 Y1 Bi6'
_cell_volume   447.25171014
_cell_formula_units_Z   1
loop_
 _symmetry_equiv_pos_site_id
 _symmetry_equiv_pos_as_xyz
  1  'x, y, z'
loop_
 _atom_site_type_symbol
 _atom_site_label
 _atom_site_symmetry_multiplicity
 _atom_site_fract_x
 _atom_site_fract_y
 _atom_site_fract_z
 _atom_site_occupancy
  Ca  Ca0  1  0.50182560  0.00506776  0.36034510  1
  Ca  Ca1  1  0.50211240  0.00117897  0.85267298  1
  Ca  Ca2  1  0.64943942  0.64732702  0.64850599  1
  Ca  Ca3  1  0.99675884  0.35527834  0.49493224  1
  Ca  Ca4  1  0.14148051  0.13965490  0.14472166  1
  Ca  Ca5  1  0.85277023  0.50000000  0.00000000  1
  Ca  Ca6  1  0.00093343  0.85149401  0.49882103  1
  Y  Y0  1  0.35312940  0.50000000  0.00000000  1
  Bi  Bi0  1  0.13005481  0.74502801  0.87610574  1
  Bi  Bi1  1  0.88502780  0.13107774  0.75497199  1
  Bi  Bi2  1  0.61714048  0.37445085  0.24445209  1
  Bi  Bi3  1  0.37268839  0.25554791  0.62999876  1
  Bi  Bi4  1  0.74268963  0.87000124  0.12554915  1
  Bi  Bi5  1  0.25395006  0.62389426  0.36892226  1
loop_
_geom_bond_atom_site_label_1
_geom_bond_atom_site_label_2
_geom_bond_distance
_geom_bond_site_symmetry_2
Ca0 Ca4 3.668296 1_555
Ca0 Ca3 3.668302 1_555
Ca0 Y0 3.741448 1_545
Ca1 Ca2 3.676987 1_545
Ca1 Ca6 3.676987 1_545
Ca1 Ca5 3.680384 1_556
Ca2 Ca6 3.676987 1_655
Ca2 Ca5 3.680384 1_556
Ca3 Ca4 3.668296 1_655
Ca3 Y0 3.741449 1_656
Ca4 Y0 3.741442 1_555
Ca5 Ca6 3.680384 1_655
Bi0 Ca3 3.212498 1_455
Bi0 Ca5 3.231614 1_456
Bi0 Ca1 3.231999 1_565
Bi0 Ca4 3.258174 1_566
Bi0 Y0 3.369536 1_556
Bi0 Ca2 3.454624 1_455
Bi0 Ca0 3.469688 1_566
Bi0 Ca6 3.492176 1_555
Bi1 Ca4 3.212491 1_656
Bi1 Ca5 3.231619 1_556
Bi1 Ca6 3.231992 1_645
Bi1 Ca0 3.258182 1_555
Bi1 Y0 3.369531 1_656
Bi1 Ca1 3.454631 1_555
Bi1 Ca3 3.469693 1_555
Bi1 Ca2 3.492177 1_545
Bi2 Y0 3.174288 1_555
Bi2 Ca1 3.238341 1_554
Bi2 Ca3 3.241769 1_555
Bi2 Ca2 3.242431 1_555
Bi2 Ca4 3.418784 1_555
Bi2 Ca5 3.437860 1_555
Bi2 Ca6 3.464899 1_655
Bi2 Ca0 3.476264 1_555
Bi3 Y0 3.174288 1_556
Bi3 Ca2 3.238341 1_555
Bi3 Ca0 3.241767 1_555
Bi3 Ca6 3.242431 1_545
Bi3 Ca3 3.418784 1_455
Bi3 Ca5 3.437860 1_556
Bi3 Ca1 3.464899 1_555
Bi3 Ca4 3.476272 1_555
Bi4 Y0 3.174288 1_555
Bi4 Ca6 3.238341 1_655
Bi4 Ca4 3.241772 1_665
Bi4 Ca1 3.242431 1_564
Bi4 Ca0 3.418786 1_565
Bi4 Ca5 3.437859 1_555
Bi4 Ca2 3.464899 1_554
Bi4 Ca3 3.476269 1_565
Bi5 Ca0 3.212498 1_565
Bi5 Ca5 3.231619 1_455
Bi5 Ca2 3.231993 1_555
Bi5 Ca3 3.258172 1_455
Bi5 Y0 3.369531 1_555
Bi5 Ca6 3.454631 1_555
Bi5 Ca4 3.469685 1_555
Bi5 Ca1 3.492177 1_565
