# generated using pymatgen
data_Ba4Mn2NiO10
_symmetry_space_group_name_H-M   'P 1'
_cell_length_a   7.17308607
_cell_length_b   7.17308650
_cell_length_c   12.74243778
_cell_angle_alpha   90.00000000
_cell_angle_beta   90.00000000
_cell_angle_gamma   133.24041128
_symmetry_Int_Tables_number   1
_chemical_formula_structural   Ba4Mn2NiO10
_chemical_formula_sum   'Ba8 Mn4 Ni2 O20'
_cell_volume   477.62342653
_cell_formula_units_Z   2
loop_
 _symmetry_equiv_pos_site_id
 _symmetry_equiv_pos_as_xyz
  1  'x, y, z'
loop_
 _atom_site_type_symbol
 _atom_site_label
 _atom_site_symmetry_multiplicity
 _atom_site_fract_x
 _atom_site_fract_y
 _atom_site_fract_z
 _atom_site_occupancy
  Ba  Ba0  1  0.24335468  0.75664532  0.88913328  1
  Ba  Ba1  1  0.75664532  0.24335468  0.11086672  1
  Ba  Ba2  1  0.25664532  0.74335468  0.38913328  1
  Ba  Ba3  1  0.74335468  0.25664532  0.61086672  1
  Ba  Ba4  1  0.03763665  0.96236335  0.64062723  1
  Ba  Ba5  1  0.96236335  0.03763665  0.35937277  1
  Ba  Ba6  1  0.46236335  0.53763665  0.14062723  1
  Ba  Ba7  1  0.53763665  0.46236335  0.85937277  1
  Mn  Mn0  1  0.37629160  0.62370840  0.65158099  1
  Mn  Mn1  1  0.62370840  0.37629160  0.34841901  1
  Mn  Mn2  1  0.12370840  0.87629160  0.15158099  1
  Mn  Mn3  1  0.87629160  0.12370840  0.84841901  1
  Ni  Ni0  1  0.50000000  0.50000000  0.50000000  1
  Ni  Ni1  1  0.00000000  0.00000000  0.00000000  1
  O  O0  1  0.13440330  0.36559670  0.75000000  1
  O  O1  1  0.36559670  0.13440330  0.25000000  1
  O  O2  1  0.86559670  0.63440330  0.25000000  1
  O  O3  1  0.63440330  0.86559670  0.75000000  1
  O  O4  1  0.38506991  0.18198814  0.46295593  1
  O  O5  1  0.18198814  0.38506991  0.53704407  1
  O  O6  1  0.11493009  0.31801186  0.96295593  1
  O  O7  1  0.31801186  0.11493009  0.03704407  1
  O  O8  1  0.61493009  0.81801186  0.53704407  1
  O  O9  1  0.81801186  0.61493009  0.46295593  1
  O  O10  1  0.88506991  0.68198814  0.03704407  1
  O  O11  1  0.68198814  0.88506991  0.96295593  1
  O  O12  1  0.23924663  0.76075337  0.64576263  1
  O  O13  1  0.76075337  0.23924663  0.35423737  1
  O  O14  1  0.96762265  0.03237735  0.14381166  1
  O  O15  1  0.03237735  0.96762265  0.85618834  1
  O  O16  1  0.53237735  0.46762265  0.64381166  1
  O  O17  1  0.46762265  0.53237735  0.35618834  1
  O  O18  1  0.73924663  0.26075337  0.85423737  1
  O  O19  1  0.26075337  0.73924663  0.14576263  1
loop_
_geom_bond_atom_site_label_1
_geom_bond_atom_site_label_2
_geom_bond_distance
_geom_bond_site_symmetry_2
Ba0 O11 2.768004 1_555
Ba0 O6 2.768005 1_555
Ba0 O15 2.809745 1_555
Ba0 O18 2.881484 1_455
Ba0 O18 2.881484 1_565
Ba0 O10 2.925455 1_456
Ba0 O7 2.925455 1_566
Ba0 O3 2.935737 1_555
Ba0 O0 2.935737 1_555
Ba0 O12 3.101607 1_555
Ba0 O19 3.278100 1_556
Ba1 O7 2.768004 1_555
Ba1 O10 2.768005 1_555
Ba1 O14 2.809745 1_555
Ba1 O19 2.881484 1_655
Ba1 O19 2.881484 1_545
Ba1 O6 2.925455 1_654
Ba1 O11 2.925455 1_544
Ba1 O1 2.935737 1_555
Ba1 O2 2.935737 1_555
Ba1 O13 3.101607 1_555
Ba1 O18 3.278100 1_554
Ba2 O9 2.768004 1_455
Ba2 O4 2.768005 1_565
Ba2 O17 2.809745 1_555
Ba2 O13 2.881484 1_565
Ba2 O13 2.881484 1_455
Ba2 O8 2.925455 1_555
Ba2 O5 2.925455 1_555
Ba2 O2 2.935737 1_455
Ba2 O1 2.935737 1_565
Ba2 O19 3.101607 1_555
Ba2 O12 3.278100 1_555
Ba3 O5 2.768004 1_655
Ba3 O8 2.768005 1_545
Ba3 O16 2.809745 1_555
Ba3 O12 2.881484 1_545
Ba3 O12 2.881484 1_655
Ba3 O4 2.925455 1_555
Ba3 O9 2.925455 1_555
Ba3 O0 2.935737 1_655
Ba3 O3 2.935737 1_545
Ba3 O18 3.101607 1_555
Ba3 O13 3.278100 1_555
Ba4 O12 2.655662 1_555
Ba4 O15 2.747647 1_555
Ba4 O8 2.776034 1_455
Ba4 O5 2.776035 1_565
Ba4 O3 2.835401 1_455
Ba4 O0 2.835401 1_565
Ba4 O16 2.847586 1_455
Ba4 O16 2.847586 1_565
Ba4 O4 2.904997 1_565
Ba4 O9 2.904998 1_455
Ba5 O13 2.655662 1_555
Ba5 O14 2.747647 1_555
Ba5 O4 2.776034 1_655
Ba5 O9 2.776035 1_545
Ba5 O1 2.835401 1_655
Ba5 O2 2.835401 1_545
Ba5 O17 2.847586 1_655
Ba5 O17 2.847586 1_545
Ba5 O8 2.904997 1_545
Ba5 O5 2.904998 1_655
Ba6 O19 2.655662 1_555
Ba6 O17 2.747647 1_555
Ba6 O10 2.776034 1_555
Ba6 O7 2.776035 1_555
Ba6 O2 2.835401 1_555
Ba6 O1 2.835401 1_555
Ba6 O14 2.847586 1_565
Ba6 O14 2.847586 1_455
Ba6 O6 2.904997 1_554
Ba6 O11 2.904998 1_554
Ba7 O18 2.655662 1_555
Ba7 O16 2.747647 1_555
Ba7 O6 2.776034 1_555
Ba7 O11 2.776035 1_555
Ba7 O0 2.835401 1_555
Ba7 O3 2.835401 1_555
Ba7 O15 2.847586 1_545
Ba7 O15 2.847586 1_655
Ba7 O10 2.904997 1_556
Ba7 O7 2.904998 1_556
Mn0 O12 1.806168 1_555
Mn0 O3 1.899934 1_555
Mn0 O0 1.899934 1_555
Mn0 O8 1.932350 1_555
Mn0 O5 1.932350 1_555
Mn0 O16 2.057763 1_555
Mn1 O13 1.806168 1_555
Mn1 O1 1.899934 1_555
Mn1 O2 1.899934 1_555
Mn1 O4 1.932350 1_555
Mn1 O9 1.932350 1_555
Mn1 O17 2.057763 1_555
Mn2 O19 1.806168 1_555
Mn2 O2 1.899934 1_455
Mn2 O1 1.899934 1_565
Mn2 O10 1.932350 1_455
Mn2 O7 1.932350 1_565
Mn2 O14 2.057763 1_465
Mn3 O18 1.806168 1_555
Mn3 O0 1.899934 1_655
Mn3 O3 1.899934 1_545
Mn3 O6 1.932350 1_655
Mn3 O11 1.932350 1_545
Mn3 O15 2.057763 1_645
Ni0 O9 1.878666 1_555
Ni0 O5 1.878666 1_555
Ni0 O8 1.878666 1_555
Ni0 O4 1.878666 1_555
Ni0 O16 1.881455 1_555
Ni0 O17 1.881455 1_555
Ni1 O7 1.878666 1_555
Ni1 O11 1.878666 1_444
Ni1 O6 1.878666 1_554
Ni1 O10 1.878666 1_445
Ni1 O14 1.881455 1_455
Ni1 O15 1.881455 1_544
