# generated using pymatgen
data_Y10OsRh3
_symmetry_space_group_name_H-M   'P 1'
_cell_length_a   6.49302019
_cell_length_b   7.22645832
_cell_length_c   8.61333491
_cell_angle_alpha   96.36258145
_cell_angle_beta   112.68592478
_cell_angle_gamma   90.11347677
_symmetry_Int_Tables_number   1
_chemical_formula_structural   Y10OsRh3
_chemical_formula_sum   'Y10 Os1 Rh3'
_cell_volume   370.14514462
_cell_formula_units_Z   1
loop_
 _symmetry_equiv_pos_site_id
 _symmetry_equiv_pos_as_xyz
  1  'x, y, z'
loop_
 _atom_site_type_symbol
 _atom_site_label
 _atom_site_symmetry_multiplicity
 _atom_site_fract_x
 _atom_site_fract_y
 _atom_site_fract_z
 _atom_site_occupancy
  Y  Y0  1  0.98035369  0.91365781  0.18830078  1
  Y  Y1  1  0.79216762  0.58652465  0.81037863  1
  Y  Y2  1  0.02588162  0.08619651  0.82088320  1
  Y  Y3  1  0.21017949  0.41495013  0.19021179  1
  Y  Y4  1  0.64786313  0.81943095  0.43407697  1
  Y  Y5  1  0.21303843  0.68310492  0.56504956  1
  Y  Y6  1  0.35130248  0.18239190  0.56020164  1
  Y  Y7  1  0.78109728  0.31398022  0.43444390  1
  Y  Y8  1  0.42690281  0.75079474  0.00076681  1
  Y  Y9  1  0.57385524  0.24970445  0.00117714  1
  Os  Os0  1  0.38846603  0.07344287  0.21316181  1
  Rh  Rh0  1  0.82724975  0.57318968  0.22354131  1
  Rh  Rh1  1  0.60655937  0.92566176  0.78123305  1
  Rh  Rh2  1  0.17508404  0.42696942  0.77657242  1
loop_
_geom_bond_atom_site_label_1
_geom_bond_atom_site_label_2
_geom_bond_distance
_geom_bond_site_symmetry_2
Os0 Y3 2.722601 1_555
Os0 Y0 2.810052 1_445
Os0 Y4 2.853284 1_545
Os0 Y8 2.873073 1_545
Os0 Y9 2.934292 1_555
Os0 Y7 2.941691 1_555
Os0 Y6 3.106244 1_555
Os0 Y2 3.301745 1_554
Rh0 Y0 2.742707 1_555
Rh0 Y3 2.839218 1_655
Rh0 Y7 2.840838 1_555
Rh0 Y9 2.898563 1_555
Rh0 Y4 2.955309 1_555
Rh0 Y8 2.966133 1_555
Rh0 Y5 3.057584 1_655
Rh0 Y1 3.489468 1_554
Rh1 Y1 2.726966 1_555
Rh1 Y2 2.838629 1_665
Rh1 Y6 2.859111 1_565
Rh1 Y9 2.906294 1_566
Rh1 Y5 2.942325 1_555
Rh1 Y8 2.959460 1_556
Rh1 Y4 3.116567 1_555
Rh1 Y0 3.419912 1_556
Rh2 Y2 2.762710 1_555
Rh2 Y5 2.810355 1_555
Rh2 Y1 2.844509 1_455
Rh2 Y8 2.902814 1_556
Rh2 Y9 2.964171 1_556
Rh2 Y6 2.971372 1_555
Rh2 Y7 3.088431 1_455
Rh2 Y3 3.492211 1_556
