# generated using pymatgen
data_Yb2S3
_symmetry_space_group_name_H-M   'P 1'
_cell_length_a   7.22181996
_cell_length_b   7.22181996
_cell_length_c   7.00662914
_cell_angle_alpha   55.76932739
_cell_angle_beta   55.76932739
_cell_angle_gamma   84.64749485
_symmetry_Int_Tables_number   1
_chemical_formula_structural   Yb2S3
_chemical_formula_sum   'Yb4 S6'
_cell_volume   236.10847497
_cell_formula_units_Z   2
loop_
 _symmetry_equiv_pos_site_id
 _symmetry_equiv_pos_as_xyz
  1  'x, y, z'
loop_
 _atom_site_type_symbol
 _atom_site_label
 _atom_site_symmetry_multiplicity
 _atom_site_fract_x
 _atom_site_fract_y
 _atom_site_fract_z
 _atom_site_occupancy
  Yb  Yb0  1  0.51511666  0.83147021  0.82618261  1
  Yb  Yb1  1  0.48488334  0.16852979  0.17381739  1
  Yb  Yb2  1  0.83147021  0.51511666  0.32618261  1
  Yb  Yb3  1  0.16852979  0.48488334  0.67381739  1
  S  S0  1  0.19635671  0.39607023  0.33685663  1
  S  S1  1  0.80128184  0.19871816  0.25000000  1
  S  S2  1  0.60392977  0.80364329  0.16314337  1
  S  S3  1  0.80364329  0.60392977  0.66314337  1
  S  S4  1  0.19871816  0.80128184  0.75000000  1
  S  S5  1  0.39607023  0.19635671  0.83685663  1
loop_
_geom_bond_atom_site_label_1
_geom_bond_atom_site_label_2
_geom_bond_distance
_geom_bond_site_symmetry_2
S0 Yb1 2.672483 1_555
S0 Yb3 2.678008 1_555
S0 Yb0 2.723037 1_554
S0 Yb2 2.723130 1_455
S1 Yb2 2.673878 1_555
S1 Yb1 2.673878 1_555
S1 Yb3 2.682015 1_654
S1 Yb0 2.682015 1_545
S2 Yb2 2.672483 1_555
S2 Yb0 2.678008 1_554
S2 Yb3 2.723037 1_555
S2 Yb1 2.723130 1_565
S3 Yb0 2.672483 1_555
S3 Yb2 2.678008 1_555
S3 Yb1 2.723037 1_556
S3 Yb3 2.723130 1_655
S4 Yb0 2.673878 1_555
S4 Yb3 2.673878 1_555
S4 Yb1 2.682015 1_565
S4 Yb2 2.682015 1_456
S5 Yb3 2.672483 1_555
S5 Yb1 2.678008 1_556
S5 Yb2 2.723037 1_555
S5 Yb0 2.723130 1_545
