# generated using pymatgen
data_Sc6TcHgTe
_symmetry_space_group_name_H-M   'P 1'
_cell_length_a   3.93102860
_cell_length_b   7.67594102
_cell_length_c   7.67594108
_cell_angle_alpha   119.99999190
_cell_angle_beta   90.00000000
_cell_angle_gamma   90.00000000
_symmetry_Int_Tables_number   1
_chemical_formula_structural   Sc6TcHgTe
_chemical_formula_sum   'Sc6 Tc1 Hg1 Te1'
_cell_volume   200.58577592
_cell_formula_units_Z   1
loop_
 _symmetry_equiv_pos_site_id
 _symmetry_equiv_pos_as_xyz
  1  'x, y, z'
loop_
 _atom_site_type_symbol
 _atom_site_label
 _atom_site_symmetry_multiplicity
 _atom_site_fract_x
 _atom_site_fract_y
 _atom_site_fract_z
 _atom_site_occupancy
  Sc  Sc0  1  0.50000000  0.76472195  0.75559828  1
  Sc  Sc1  1  0.50000000  0.99087732  0.23527805  1
  Sc  Sc2  1  0.50000000  0.24440172  0.00912268  1
  Sc  Sc3  1  0.00000000  0.39568442  0.39212240  1
  Sc  Sc4  1  0.00000000  0.99643697  0.60431558  1
  Sc  Sc5  1  0.00000000  0.60787760  0.00356303  1
  Tc  Tc0  1  0.00000000  0.00000000  0.00000000  1
  Hg  Hg0  1  0.50000000  0.66666700  0.33333300  1
  Te  Te0  1  0.50000000  0.33333300  0.66666700  1
loop_
_geom_bond_atom_site_label_1
_geom_bond_atom_site_label_2
_geom_bond_distance
_geom_bond_site_symmetry_2
Sc0 Tc0 2.693733 1_566
Sc0 Tc0 2.693733 1_666
Sc0 Te0 3.028266 1_555
Sc1 Tc0 2.693730 1_665
Sc1 Tc0 2.693730 1_565
Sc1 Te0 3.028261 1_565
Sc2 Tc0 2.693735 1_655
Sc2 Tc0 2.693735 1_555
Sc2 Te0 3.028250 1_554
Sc3 Tc0 3.023672 1_555
Sc3 Te0 3.089013 1_455
Sc3 Te0 3.089013 1_555
Sc4 Tc0 3.023668 1_566
Sc4 Te0 3.089013 1_565
Sc4 Te0 3.089013 1_465
Sc5 Tc0 3.023676 1_565
Sc5 Te0 3.089014 1_554
Sc5 Te0 3.089014 1_454
Hg0 Sc1 2.938167 1_555
Hg0 Sc0 2.938167 1_555
Hg0 Sc2 2.938167 1_555
Hg0 Sc5 3.054842 1_555
Hg0 Sc5 3.054842 1_655
Hg0 Sc4 3.054846 1_655
Hg0 Sc4 3.054846 1_555
Hg0 Sc3 3.054853 1_555
Hg0 Sc3 3.054853 1_655
