# generated using pymatgen
data_Zr6Si7(NiRh7)2
_symmetry_space_group_name_H-M   'P 1'
_cell_length_a   8.42030193
_cell_length_b   8.42032814
_cell_length_c   8.39673124
_cell_angle_alpha   60.09217897
_cell_angle_beta   60.09219410
_cell_angle_gamma   60.21654508
_symmetry_Int_Tables_number   1
_chemical_formula_structural   Zr6Si7(NiRh7)2
_chemical_formula_sum   'Zr6 Si7 Ni2 Rh14'
_cell_volume   422.24387906
_cell_formula_units_Z   1
loop_
 _symmetry_equiv_pos_site_id
 _symmetry_equiv_pos_as_xyz
  1  'x, y, z'
loop_
 _atom_site_type_symbol
 _atom_site_label
 _atom_site_symmetry_multiplicity
 _atom_site_fract_x
 _atom_site_fract_y
 _atom_site_fract_z
 _atom_site_occupancy
  Zr  Zr0  1  0.79581534  0.20418543  0.79692397  1
  Zr  Zr1  1  0.79665016  0.79612598  0.20361243  1
  Zr  Zr2  1  0.20519288  0.79481007  0.79650438  1
  Zr  Zr3  1  0.20387099  0.20335178  0.79638962  1
  Zr  Zr4  1  0.79581634  0.20418543  0.20307325  1
  Zr  Zr5  1  0.20519388  0.79480907  0.20349268  1
  Si  Si0  1  0.99669269  0.49862656  0.99596978  1
  Si  Si1  1  0.49833427  0.50166842  0.49999865  1
  Si  Si2  1  0.50841214  0.49158843  0.99999972  1
  Si  Si3  1  0.50137391  0.00331021  0.49128781  1
  Si  Si4  1  0.99669169  0.49862756  0.50871097  1
  Si  Si5  1  0.00201347  0.99798627  0.49999963  1
  Si  Si6  1  0.50137491  0.00331021  0.00402707  1
  Ni  Ni0  1  0.50207967  0.16828547  0.16481793  1
  Ni  Ni1  1  0.83172614  0.49790003  0.83518692  1
  Rh  Rh0  1  0.16102922  0.16444384  0.16210534  1
  Rh  Rh1  1  0.62148212  0.61366457  0.14265739  1
  Rh  Rh2  1  0.38632886  0.37852439  0.37780613  1
  Rh  Rh3  1  0.16167041  0.51288166  0.16272446  1
  Rh  Rh4  1  0.16102822  0.16444384  0.51242260  1
  Rh  Rh5  1  0.14380442  0.61264443  0.62177558  1
  Rh  Rh6  1  0.61716727  0.14714942  0.61784166  1
  Rh  Rh7  1  0.83556042  0.83896699  0.83789095  1
  Rh  Rh8  1  0.85285006  0.38283462  0.38215766  1
  Rh  Rh9  1  0.38632886  0.37852539  0.85733961  1
  Rh  Rh10  1  0.38734481  0.85619382  0.37823068  1
  Rh  Rh11  1  0.48712631  0.83832556  0.83727457  1
  Rh  Rh12  1  0.62148112  0.61366557  0.62219592  1
  Rh  Rh13  1  0.83555942  0.83896799  0.48758064  1
loop_
_geom_bond_atom_site_label_1
_geom_bond_atom_site_label_2
_geom_bond_distance
_geom_bond_site_symmetry_2
Si0 Zr3 2.994015 1_655
Si0 Zr4 2.994226 1_556
Si0 Zr2 3.059316 1_655
Si0 Zr1 3.063864 1_556
Si2 Zr4 2.966896 1_556
Si2 Zr0 2.966905 1_555
Si2 Zr5 3.079154 1_556
Si2 Zr2 3.079156 1_555
Si3 Zr1 2.994029 1_545
Si3 Zr4 2.994220 1_555
Si3 Zr2 3.059290 1_545
Si3 Zr3 3.063867 1_555
Si4 Zr3 2.994021 1_655
Si4 Zr0 2.994224 1_555
Si4 Zr5 3.059306 1_655
Si4 Zr1 3.063840 1_555
Si5 Zr2 3.024004 1_555
Si5 Zr5 3.024007 1_555
Si5 Zr4 3.041443 1_465
Si5 Zr0 3.041447 1_465
Si6 Zr1 2.994035 1_545
Si6 Zr0 2.994212 1_554
Si6 Zr5 3.059302 1_545
Si6 Zr3 3.063858 1_554
Ni0 Si3 2.374639 1_555
Ni0 Si6 2.374666 1_555
Ni0 Si2 2.375445 1_554
Ni0 Rh2 2.643305 1_555
Ni0 Rh9 2.643307 1_554
Ni0 Rh10 2.673990 1_545
Ni0 Zr0 2.818481 1_554
Ni0 Zr4 2.818493 1_555
Ni0 Zr1 2.853843 1_545
Ni0 Rh3 2.893523 1_555
Ni0 Rh4 2.899427 1_555
Ni0 Rh0 2.899439 1_555
Ni1 Si4 2.374631 1_555
Ni1 Si0 2.374646 1_555
Ni1 Si2 2.375466 1_555
Ni1 Rh1 2.643315 1_556
Ni1 Rh12 2.643324 1_555
Ni1 Rh5 2.673934 1_655
Ni1 Zr4 2.818376 1_556
Ni1 Zr0 2.818410 1_555
Ni1 Zr3 2.853694 1_655
Ni1 Rh11 2.893606 1_555
Ni1 Rh13 2.899506 1_555
Ni1 Rh7 2.899519 1_555
Rh0 Si5 2.432614 1_545
Rh0 Si0 2.433351 1_454
Rh0 Si6 2.440365 1_555
Rh0 Zr3 2.770715 1_554
Rh0 Zr4 2.779341 1_455
Rh0 Zr5 2.801209 1_545
Rh1 Si1 2.452481 1_555
Rh1 Si0 2.589594 1_554
Rh1 Si2 2.595256 1_554
Rh1 Si6 2.685413 1_565
Rh1 Zr4 2.875880 1_555
Rh1 Zr5 2.924769 1_555
Rh1 Zr1 2.930226 1_555
Rh2 Si1 2.452506 1_555
Rh2 Si3 2.589628 1_555
Rh2 Si2 2.595254 1_554
Rh2 Si4 2.685347 1_455
Rh2 Zr4 2.875929 1_555
Rh2 Zr5 2.924744 1_555
Rh2 Zr3 2.930194 1_555
Rh3 Si2 2.483870 1_554
Rh3 Si4 2.485468 1_455
Rh3 Si0 2.485488 1_454
Rh3 Zr2 2.772486 1_554
Rh3 Zr5 2.772502 1_555
Rh3 Zr1 2.781154 1_455
Rh4 Si5 2.432638 1_545
Rh4 Si4 2.433364 1_455
Rh4 Si3 2.440366 1_555
Rh4 Zr3 2.770737 1_555
Rh4 Zr0 2.779324 1_455
Rh4 Zr2 2.801186 1_545
Rh5 Si1 2.442956 1_555
Rh5 Si0 2.573031 1_455
Rh5 Si4 2.573053 1_455
Rh5 Si5 2.656962 1_555
Rh5 Zr3 2.872614 1_555
Rh5 Zr5 2.925842 1_555
Rh5 Zr2 2.925867 1_555
Rh6 Si1 2.442517 1_555
Rh6 Si6 2.652633 1_556
Rh6 Si3 2.652663 1_555
Rh6 Si5 2.656312 1_645
Rh6 Zr4 2.906566 1_555
Rh6 Zr0 2.906571 1_555
Rh6 Zr3 2.907078 1_555
Rh7 Si5 2.432596 1_655
Rh7 Si6 2.433379 1_566
Rh7 Si0 2.440339 1_555
Rh7 Zr1 2.770758 1_556
Rh7 Zr0 2.779389 1_565
Rh7 Zr2 2.801206 1_655
Rh8 Si1 2.442488 1_555
Rh8 Si0 2.652651 1_554
Rh8 Si4 2.652673 1_555
Rh8 Si5 2.656334 1_645
Rh8 Zr0 2.906552 1_555
Rh8 Zr4 2.906584 1_555
Rh8 Zr1 2.907055 1_555
Rh9 Si1 2.452478 1_555
Rh9 Si6 2.589633 1_556
Rh9 Si2 2.595275 1_555
Rh9 Si0 2.685340 1_455
Rh9 Zr0 2.875924 1_555
Rh9 Zr2 2.924751 1_555
Rh9 Zr3 2.930211 1_555
Rh10 Si1 2.442930 1_555
Rh10 Si6 2.573097 1_565
Rh10 Si3 2.573113 1_565
Rh10 Si5 2.656884 1_555
Rh10 Zr1 2.872695 1_555
Rh10 Zr2 2.925782 1_555
Rh10 Zr5 2.925801 1_555
Rh11 Si2 2.483859 1_555
Rh11 Si3 2.485484 1_565
Rh11 Si6 2.485493 1_566
Rh11 Zr5 2.772486 1_556
Rh11 Zr2 2.772514 1_555
Rh11 Zr3 2.781222 1_565
Rh12 Si1 2.452502 1_555
Rh12 Si4 2.589595 1_555
Rh12 Si2 2.595235 1_555
Rh12 Si3 2.685406 1_565
Rh12 Zr0 2.875878 1_555
Rh12 Zr2 2.924766 1_555
Rh12 Zr1 2.930193 1_555
Rh13 Si5 2.432617 1_655
Rh13 Si3 2.433380 1_565
Rh13 Si4 2.440344 1_555
Rh13 Zr1 2.770750 1_555
Rh13 Zr4 2.779372 1_565
Rh13 Zr5 2.801203 1_655
