# generated using pymatgen
data_Nb4ZnSiH2
_symmetry_space_group_name_H-M   'P 1'
_cell_length_a   5.17573434
_cell_length_b   5.17573319
_cell_length_c   5.17573344
_cell_angle_alpha   104.88146804
_cell_angle_beta   104.88147878
_cell_angle_gamma   119.10157781
_symmetry_Int_Tables_number   1
_chemical_formula_structural   Nb4ZnSiH2
_chemical_formula_sum   'Nb4 Zn1 Si1 H2'
_cell_volume   104.43696620
_cell_formula_units_Z   1
loop_
 _symmetry_equiv_pos_site_id
 _symmetry_equiv_pos_as_xyz
  1  'x, y, z'
loop_
 _atom_site_type_symbol
 _atom_site_label
 _atom_site_symmetry_multiplicity
 _atom_site_fract_x
 _atom_site_fract_y
 _atom_site_fract_z
 _atom_site_occupancy
  Nb  Nb0  1  0.16604784  0.66604784  0.83209669  1
  Nb  Nb1  1  0.83395216  0.33395216  0.16790331  1
  Nb  Nb2  1  0.33395216  0.16604784  0.50000000  1
  Nb  Nb3  1  0.66604784  0.83395216  0.50000000  1
  Zn  Zn0  1  0.25000000  0.25000000  0.00000000  1
  Si  Si0  1  0.75000000  0.75000000  0.00000000  1
  H  H0  1  0.75000000  0.25000000  0.50000000  1
  H  H1  1  0.25000000  0.75000000  0.50000000  1
loop_
_geom_bond_atom_site_label_1
_geom_bond_atom_site_label_2
_geom_bond_distance
_geom_bond_site_symmetry_2
Nb0 Zn0 2.694123 1_556
Nb0 Si0 2.694123 1_456
Nb0 Zn0 2.694125 1_566
Nb0 Si0 2.694126 1_556
Nb1 Si0 2.694123 1_555
Nb1 Zn0 2.694123 1_655
Nb1 Si0 2.694125 1_545
Nb1 Zn0 2.694126 1_555
Nb2 Si0 2.694125 1_556
Nb2 Zn0 2.694125 1_555
Nb2 Si0 2.694125 1_445
Nb2 Zn0 2.694125 1_556
Nb3 Zn0 2.694125 1_555
Nb3 Si0 2.694125 1_556
Nb3 Zn0 2.694125 1_666
Nb3 Si0 2.694125 1_555
Si0 Zn0 2.622929 1_555
Si0 Zn0 2.622929 1_665
H0 Nb3 1.978786 1_545
H0 Nb2 1.978786 1_555
H0 Nb0 1.978788 1_655
H0 Nb1 1.978791 1_555
H1 Nb2 1.978786 1_565
H1 Nb3 1.978786 1_555
H1 Nb1 1.978788 1_455
H1 Nb0 1.978791 1_555
