# generated using pymatgen
data_Rb2Pd(PtS2)2
_symmetry_space_group_name_H-M   'P 1'
_cell_length_a   8.57898316
_cell_length_b   7.32337549
_cell_length_c   6.17395858
_cell_angle_alpha   78.42104056
_cell_angle_beta   56.74820382
_cell_angle_gamma   46.99295485
_symmetry_Int_Tables_number   1
_chemical_formula_structural   Rb2Pd(PtS2)2
_chemical_formula_sum   'Rb2 Pd1 Pt2 S4'
_cell_volume   227.48855254
_cell_formula_units_Z   1
loop_
 _symmetry_equiv_pos_site_id
 _symmetry_equiv_pos_as_xyz
  1  'x, y, z'
loop_
 _atom_site_type_symbol
 _atom_site_label
 _atom_site_symmetry_multiplicity
 _atom_site_fract_x
 _atom_site_fract_y
 _atom_site_fract_z
 _atom_site_occupancy
  Rb  Rb0  1  0.15401822  0.15401822  0.84598178  1
  Rb  Rb1  1  0.84598178  0.84598178  0.15401822  1
  Pd  Pd0  1  0.50000000  0.50000000  0.00000000  1
  Pt  Pt0  1  0.50000000  0.50000000  0.50000000  1
  Pt  Pt1  1  0.00000000  0.00000000  0.50000000  1
  S  S0  1  0.43899945  0.78795755  0.23064783  1
  S  S1  1  0.56100055  0.21204245  0.76935217  1
  S  S2  1  0.21204245  0.56100055  0.45760383  1
  S  S3  1  0.78795755  0.43899945  0.54239617  1
loop_
_geom_bond_atom_site_label_1
_geom_bond_atom_site_label_2
_geom_bond_distance
_geom_bond_site_symmetry_2
Rb0 S0 3.543789 1_545
Rb0 S3 3.543795 1_456
Rb0 S1 3.567451 1_555
Rb0 S2 3.567454 1_555
Rb0 S3 3.697936 1_455
Rb0 S0 3.697941 1_546
Rb0 S0 3.797671 1_456
Rb0 S3 3.797671 1_545
Rb1 S1 3.543789 1_565
Rb1 S2 3.543795 1_654
Rb1 S0 3.567451 1_555
Rb1 S3 3.567454 1_555
Rb1 S2 3.697936 1_655
Rb1 S1 3.697941 1_564
Rb1 S1 3.797671 1_654
Rb1 S2 3.797671 1_565
Pd0 S3 2.373090 1_554
Pd0 S2 2.373090 1_555
Pd0 S0 2.373094 1_555
Pd0 S1 2.373094 1_554
Pd0 Rb0 3.811547 1_654
Pd0 Rb1 3.811547 1_455
Pd0 Rb1 3.811548 1_545
Pd0 Rb0 3.811548 1_564
Pt0 S0 2.351071 1_555
Pt0 S1 2.351071 1_555
Pt0 S3 2.351075 1_555
Pt0 S2 2.351075 1_555
Pt0 Rb1 3.751503 1_456
Pt0 Rb0 3.751503 1_654
Pt0 Rb0 3.751503 1_565
Pt0 Rb1 3.751503 1_545
Pt1 S3 2.356073 1_455
Pt1 S2 2.356073 1_545
Pt1 S0 2.356073 1_545
Pt1 S1 2.356073 1_455
Pt1 Rb0 3.698170 1_555
Pt1 Rb1 3.698170 1_445
Pt1 Rb1 3.698170 1_446
Pt1 Rb0 3.698170 1_554
