# generated using pymatgen
data_YBi3(Pd2O7)2
_symmetry_space_group_name_H-M   'P 1'
_cell_length_a   7.31163138
_cell_length_b   7.31163201
_cell_length_c   7.31163088
_cell_angle_alpha   59.74227349
_cell_angle_beta   59.74227229
_cell_angle_gamma   59.74227903
_symmetry_Int_Tables_number   1
_chemical_formula_structural   YBi3(Pd2O7)2
_chemical_formula_sum   'Y1 Bi3 Pd4 O14'
_cell_volume   274.77589062
_cell_formula_units_Z   1
loop_
 _symmetry_equiv_pos_site_id
 _symmetry_equiv_pos_as_xyz
  1  'x, y, z'
loop_
 _atom_site_type_symbol
 _atom_site_label
 _atom_site_symmetry_multiplicity
 _atom_site_fract_x
 _atom_site_fract_y
 _atom_site_fract_z
 _atom_site_occupancy
  Y  Y0  1  0.50000000  0.50000000  0.50000000  1
  Bi  Bi0  1  0.50000000  0.00000000  0.50000000  1
  Bi  Bi1  1  0.00000000  0.50000000  0.50000000  1
  Bi  Bi2  1  0.50000000  0.50000000  0.00000000  1
  Pd  Pd0  1  0.00000000  0.00000000  0.00000000  1
  Pd  Pd1  1  0.00000000  0.50000000  0.00000000  1
  Pd  Pd2  1  0.50000000  0.00000000  0.00000000  1
  Pd  Pd3  1  0.00000000  0.00000000  0.50000000  1
  O  O0  1  0.62034839  0.62034839  0.62034839  1
  O  O1  1  0.37965161  0.37965161  0.37965161  1
  O  O2  1  0.91830482  0.91830482  0.33246232  1
  O  O3  1  0.33246232  0.91830482  0.91830482  1
  O  O4  1  0.91830482  0.33246232  0.91830482  1
  O  O5  1  0.33423332  0.33423332  0.91034006  1
  O  O6  1  0.91034006  0.33423332  0.33423332  1
  O  O7  1  0.33423332  0.91034006  0.33423332  1
  O  O8  1  0.08169518  0.08169518  0.66753768  1
  O  O9  1  0.66753768  0.08169518  0.08169518  1
  O  O10  1  0.08169518  0.66753768  0.08169518  1
  O  O11  1  0.66576668  0.66576668  0.08965994  1
  O  O12  1  0.08965994  0.66576668  0.66576668  1
  O  O13  1  0.66576668  0.08965994  0.66576668  1
loop_
_geom_bond_atom_site_label_1
_geom_bond_atom_site_label_2
_geom_bond_distance
_geom_bond_site_symmetry_2
Bi0 O1 2.260788 1_555
Bi0 O0 2.260788 1_545
Bi0 O3 2.516401 1_545
Bi0 O9 2.516401 1_555
Bi0 O8 2.516401 1_555
Bi0 O2 2.516401 1_545
Bi0 O13 2.539622 1_555
Bi0 O7 2.539622 1_545
Bi1 O0 2.260788 1_455
Bi1 O1 2.260788 1_555
Bi1 O4 2.516401 1_455
Bi1 O10 2.516401 1_555
Bi1 O8 2.516401 1_555
Bi1 O2 2.516401 1_455
Bi1 O12 2.539622 1_555
Bi1 O6 2.539622 1_455
Bi2 O1 2.260788 1_555
Bi2 O0 2.260788 1_554
Bi2 O4 2.516401 1_554
Bi2 O10 2.516401 1_555
Bi2 O3 2.516401 1_554
Bi2 O9 2.516401 1_555
Bi2 O11 2.539622 1_555
Bi2 O5 2.539622 1_554
O0 Y0 2.159600 1_555
O1 Y0 2.159600 1_555
O2 Pd3 2.012096 1_665
O2 Pd0 2.013842 1_665
O3 Pd2 2.012096 1_566
O3 Pd0 2.013842 1_566
O4 Pd1 2.012096 1_656
O4 Pd0 2.013842 1_656
O5 Pd1 2.017948 1_556
O5 Pd2 2.017949 1_556
O5 Y0 2.467918 1_555
O6 Pd1 2.017948 1_655
O6 Pd3 2.017949 1_655
O6 Y0 2.467918 1_555
O7 Pd2 2.017948 1_565
O7 Pd3 2.017948 1_565
O7 Y0 2.467918 1_555
O8 Pd3 2.012096 1_555
O8 Pd0 2.013842 1_556
O9 Pd2 2.012096 1_555
O9 Pd0 2.013842 1_655
O10 Pd1 2.012096 1_555
O10 Pd0 2.013842 1_565
O11 Pd1 2.017948 1_655
O11 Pd2 2.017949 1_565
O11 Y0 2.467918 1_555
O12 Pd1 2.017948 1_556
O12 Pd3 2.017949 1_565
O12 Y0 2.467918 1_555
O13 Pd2 2.017948 1_556
O13 Pd3 2.017948 1_655
O13 Y0 2.467918 1_555
