# generated using pymatgen
data_MnCrCuSe4
_symmetry_space_group_name_H-M   'P 1'
_cell_length_a   7.34880763
_cell_length_b   7.34880773
_cell_length_c   7.34880814
_cell_angle_alpha   119.94690387
_cell_angle_beta   119.51386095
_cell_angle_gamma   90.46802993
_symmetry_Int_Tables_number   1
_chemical_formula_structural   MnCrCuSe4
_chemical_formula_sum   'Mn2 Cr2 Cu2 Se8'
_cell_volume   281.75951995
_cell_formula_units_Z   2
loop_
 _symmetry_equiv_pos_site_id
 _symmetry_equiv_pos_as_xyz
  1  'x, y, z'
loop_
 _atom_site_type_symbol
 _atom_site_label
 _atom_site_symmetry_multiplicity
 _atom_site_fract_x
 _atom_site_fract_y
 _atom_site_fract_z
 _atom_site_occupancy
  Mn  Mn0  1  0.00000000  0.00000000  0.00000000  1
  Mn  Mn1  1  0.50000000  0.00000000  0.50000000  1
  Cr  Cr0  1  0.00000000  0.00000000  0.50000000  1
  Cr  Cr1  1  0.00000000  0.50000000  0.00000000  1
  Cu  Cu0  1  0.37819040  0.62819040  0.75000000  1
  Cu  Cu1  1  0.62180960  0.37180960  0.25000000  1
  Se  Se0  1  0.24383892  0.75728533  0.01344641  1
  Se  Se1  1  0.24383892  0.23039250  0.48655359  1
  Se  Se2  1  0.24044920  0.75712134  0.48332786  1
  Se  Se3  1  0.77379348  0.75712134  0.01667214  1
  Se  Se4  1  0.75616108  0.24271467  0.98655359  1
  Se  Se5  1  0.75616108  0.76960750  0.51344641  1
  Se  Se6  1  0.75955080  0.24287866  0.51667214  1
  Se  Se7  1  0.22620652  0.24287866  0.98332786  1
loop_
_geom_bond_atom_site_label_1
_geom_bond_atom_site_label_2
_geom_bond_distance
_geom_bond_site_symmetry_2
Mn0 Se7 2.516883 1_554
Mn0 Se3 2.516883 1_445
Mn0 Se4 2.540855 1_454
Mn0 Se0 2.540855 1_545
Mn0 Se1 2.540855 1_555
Mn0 Se5 2.540855 1_444
Mn1 Se6 2.516883 1_555
Mn1 Se2 2.516883 1_545
Mn1 Se5 2.540855 1_545
Mn1 Se1 2.540855 1_555
Mn1 Se4 2.540855 1_555
Mn1 Se0 2.540855 1_545
Cr0 Se2 2.523808 1_545
Cr0 Se6 2.523808 1_455
Cr0 Se7 2.523809 1_555
Cr0 Se3 2.523809 1_445
Cr0 Se1 2.525730 1_555
Cr0 Se5 2.525730 1_445
Cr1 Se3 2.523808 1_455
Cr1 Se7 2.523808 1_554
Cr1 Se2 2.523809 1_555
Cr1 Se6 2.523809 1_454
Cr1 Se0 2.525730 1_555
Cr1 Se4 2.525730 1_454
Cu0 Se2 2.382833 1_555
Cu0 Se3 2.382833 1_556
Cu0 Se0 2.384925 1_556
Cu0 Se1 2.384925 1_555
Cu1 Se6 2.382833 1_555
Cu1 Se7 2.382833 1_554
Cu1 Se4 2.384925 1_554
Cu1 Se5 2.384925 1_555
