# generated using pymatgen
data_K3Lu(AsS2)6
_symmetry_space_group_name_H-M   'P 1'
_cell_length_a   9.42051926
_cell_length_b   9.42051882
_cell_length_c   7.75726028
_cell_angle_alpha   90.00000000
_cell_angle_beta   90.00000000
_cell_angle_gamma   119.99999719
_symmetry_Int_Tables_number   1
_chemical_formula_structural   K3Lu(AsS2)6
_chemical_formula_sum   'K3 Lu1 As6 S12'
_cell_volume   596.19546798
_cell_formula_units_Z   1
loop_
 _symmetry_equiv_pos_site_id
 _symmetry_equiv_pos_as_xyz
  1  'x, y, z'
loop_
 _atom_site_type_symbol
 _atom_site_label
 _atom_site_symmetry_multiplicity
 _atom_site_fract_x
 _atom_site_fract_y
 _atom_site_fract_z
 _atom_site_occupancy
  K  K0  1  0.00000000  0.00000000  0.00000000  1
  K  K1  1  0.33333300  0.66666700  0.85969728  1
  K  K2  1  0.66666700  0.33333300  0.14030272  1
  Lu  Lu0  1  0.00000000  0.00000000  0.50000000  1
  As  As0  1  0.28657433  0.83625233  0.38140349  1
  As  As1  1  0.16374767  0.45032200  0.38140349  1
  As  As2  1  0.54967800  0.71342567  0.38140349  1
  As  As3  1  0.71342567  0.16374767  0.61859651  1
  As  As4  1  0.83625233  0.54967800  0.61859651  1
  As  As5  1  0.45032200  0.28657433  0.61859651  1
  S  S0  1  0.24708974  0.03610071  0.29480968  1
  S  S1  1  0.96389929  0.21099002  0.29480968  1
  S  S2  1  0.78900998  0.75291026  0.29480968  1
  S  S3  1  0.75291026  0.96389929  0.70519032  1
  S  S4  1  0.03610071  0.78900998  0.70519032  1
  S  S5  1  0.21099002  0.24708974  0.70519032  1
  S  S6  1  0.51998967  0.90382985  0.22172174  1
  S  S7  1  0.09617015  0.61615882  0.22172174  1
  S  S8  1  0.38384118  0.48001033  0.22172174  1
  S  S9  1  0.48001033  0.09617015  0.77827826  1
  S  S10  1  0.90382985  0.38384118  0.77827826  1
  S  S11  1  0.61615882  0.51998967  0.77827826  1
loop_
_geom_bond_atom_site_label_1
_geom_bond_atom_site_label_2
_geom_bond_distance
_geom_bond_site_symmetry_2
K0 S0 3.157889 1_555
K0 S3 3.157889 1_444
K0 S5 3.157892 1_554
K0 S2 3.157892 1_445
K0 S4 3.157896 1_544
K0 S1 3.157896 1_455
K1 S7 3.470104 1_556
K1 S6 3.470108 1_556
K1 S8 3.470115 1_556
K1 S9 3.617819 1_565
K1 S11 3.617819 1_555
K1 S10 3.617819 1_455
K1 S4 3.719209 1_555
K1 S3 3.719222 1_555
K1 S5 3.719226 1_555
K2 S10 3.470104 1_554
K2 S9 3.470108 1_554
K2 S11 3.470115 1_554
K2 S6 3.617819 1_545
K2 S8 3.617819 1_555
K2 S7 3.617819 1_655
K2 S1 3.719209 1_555
K2 S0 3.719222 1_555
K2 S2 3.719226 1_555
Lu0 S0 2.697376 1_555
Lu0 S3 2.697376 1_445
Lu0 S5 2.697379 1_555
Lu0 S2 2.697379 1_445
Lu0 S4 2.697384 1_545
Lu0 S1 2.697384 1_455
As0 S0 2.198713 1_565
As0 S7 2.309036 1_555
As0 S6 2.318388 1_555
As1 S1 2.198707 1_455
As1 S8 2.309039 1_555
As1 S7 2.318380 1_555
As2 S2 2.198704 1_555
As2 S6 2.309031 1_555
As2 S8 2.318386 1_555
As3 S3 2.198713 1_545
As3 S10 2.309036 1_555
As3 S9 2.318388 1_555
As4 S4 2.198707 1_655
As4 S11 2.309039 1_555
As4 S10 2.318380 1_555
As5 S5 2.198704 1_555
As5 S9 2.309031 1_555
As5 S11 2.318386 1_555
