# generated using pymatgen
data_Zr6Sc8Be8Ir7
_symmetry_space_group_name_H-M   'P 1'
_cell_length_a   8.74612543
_cell_length_b   8.74612571
_cell_length_c   8.74612558
_cell_angle_alpha   60.00000049
_cell_angle_beta   59.99999942
_cell_angle_gamma   60.00000285
_symmetry_Int_Tables_number   1
_chemical_formula_structural   Zr6Sc8Be8Ir7
_chemical_formula_sum   'Zr6 Sc8 Be8 Ir7'
_cell_volume   473.07732998
_cell_formula_units_Z   1
loop_
 _symmetry_equiv_pos_site_id
 _symmetry_equiv_pos_as_xyz
  1  'x, y, z'
loop_
 _atom_site_type_symbol
 _atom_site_label
 _atom_site_symmetry_multiplicity
 _atom_site_fract_x
 _atom_site_fract_y
 _atom_site_fract_z
 _atom_site_occupancy
  Zr  Zr0  1  0.67801151  0.67801151  0.32198849  1
  Zr  Zr1  1  0.32198849  0.67801151  0.32198849  1
  Zr  Zr2  1  0.67801151  0.32198849  0.32198849  1
  Zr  Zr3  1  0.32198849  0.32198849  0.67801151  1
  Zr  Zr4  1  0.67801151  0.32198849  0.67801151  1
  Zr  Zr5  1  0.32198849  0.67801151  0.67801151  1
  Sc  Sc0  1  0.86941686  0.86941686  0.39174942  1
  Sc  Sc1  1  0.86941686  0.39174942  0.86941686  1
  Sc  Sc2  1  0.39174942  0.86941686  0.86941686  1
  Sc  Sc3  1  0.86941686  0.86941686  0.86941686  1
  Sc  Sc4  1  0.13058314  0.13058314  0.60825058  1
  Sc  Sc5  1  0.13058314  0.60825058  0.13058314  1
  Sc  Sc6  1  0.60825058  0.13058314  0.13058314  1
  Sc  Sc7  1  0.13058314  0.13058314  0.13058314  1
  Be  Be0  1  0.65290891  0.65290891  0.04127328  1
  Be  Be1  1  0.65290891  0.04127328  0.65290891  1
  Be  Be2  1  0.04127328  0.65290891  0.65290891  1
  Be  Be3  1  0.65290891  0.65290891  0.65290891  1
  Be  Be4  1  0.34709109  0.34709109  0.95872672  1
  Be  Be5  1  0.34709109  0.95872672  0.34709109  1
  Be  Be6  1  0.95872672  0.34709109  0.34709109  1
  Be  Be7  1  0.34709109  0.34709109  0.34709109  1
  Ir  Ir0  1  0.00000000  0.00000000  0.00000000  1
  Ir  Ir1  1  0.00000000  0.00000000  0.50000000  1
  Ir  Ir2  1  0.50000000  0.00000000  0.50000000  1
  Ir  Ir3  1  0.00000000  0.50000000  0.50000000  1
  Ir  Ir4  1  0.50000000  0.50000000  0.00000000  1
  Ir  Ir5  1  0.00000000  0.50000000  0.00000000  1
  Ir  Ir6  1  0.50000000  0.00000000  0.00000000  1
loop_
_geom_bond_atom_site_label_1
_geom_bond_atom_site_label_2
_geom_bond_distance
_geom_bond_site_symmetry_2
Sc0 Sc7 3.230337 1_665
Sc0 Sc5 3.230337 1_655
Sc0 Sc6 3.230337 1_565
Sc0 Zr0 3.289751 1_555
Sc0 Zr1 3.289751 1_655
Sc0 Zr2 3.289751 1_565
Sc1 Sc6 3.230337 1_556
Sc1 Sc7 3.230337 1_656
Sc1 Sc4 3.230337 1_655
Sc1 Zr3 3.289751 1_655
Sc1 Zr2 3.289751 1_556
Sc1 Zr4 3.289751 1_555
Sc2 Sc5 3.230337 1_556
Sc2 Sc7 3.230337 1_566
Sc2 Sc4 3.230337 1_565
Sc2 Zr1 3.289751 1_556
Sc2 Zr5 3.289751 1_555
Sc2 Zr3 3.289751 1_565
Sc3 Sc4 3.230337 1_665
Sc3 Sc6 3.230337 1_566
Sc3 Sc5 3.230337 1_656
Sc3 Zr0 3.289751 1_556
Sc3 Zr5 3.289751 1_655
Sc3 Zr4 3.289751 1_565
Sc4 Zr3 3.289751 1_555
Sc4 Zr4 3.289751 1_455
Sc4 Zr5 3.289751 1_545
Sc5 Zr0 3.289751 1_455
Sc5 Zr1 3.289751 1_555
Sc5 Zr5 3.289751 1_554
Sc6 Zr4 3.289751 1_554
Sc6 Zr2 3.289751 1_555
Sc6 Zr0 3.289751 1_545
Sc7 Zr3 3.289751 1_554
Sc7 Zr2 3.289751 1_455
Sc7 Zr1 3.289751 1_545
Be0 Ir4 2.541934 1_555
Be0 Ir5 2.541935 1_655
Be0 Ir6 2.541935 1_565
Be0 Zr1 2.692682 1_555
Be0 Zr0 2.692682 1_555
Be0 Zr2 2.692682 1_555
Be0 Sc3 2.706288 1_554
Be0 Sc2 2.706289 1_554
Be0 Sc1 2.706289 1_554
Be1 Ir1 2.541934 1_655
Be1 Ir2 2.541934 1_555
Be1 Ir6 2.541934 1_556
Be1 Zr2 2.692682 1_555
Be1 Zr4 2.692682 1_555
Be1 Zr3 2.692682 1_555
Be1 Sc2 2.706288 1_545
Be1 Sc0 2.706289 1_545
Be1 Sc3 2.706289 1_545
Be2 Ir3 2.541935 1_555
Be2 Ir5 2.541935 1_556
Be2 Ir1 2.541935 1_565
Be2 Zr5 2.692682 1_555
Be2 Zr1 2.692682 1_555
Be2 Zr3 2.692682 1_555
Be2 Sc1 2.706288 1_455
Be2 Sc0 2.706289 1_455
Be2 Sc3 2.706289 1_455
Be3 Ir4 2.541934 1_556
Be3 Ir3 2.541935 1_655
Be3 Ir2 2.541935 1_565
Be3 Zr5 2.692682 1_555
Be3 Zr0 2.692682 1_555
Be3 Zr4 2.692682 1_555
Be3 Sc0 2.706288 1_555
Be3 Sc2 2.706289 1_555
Be3 Sc1 2.706289 1_555
Be4 Ir4 2.541934 1_556
Be4 Ir5 2.541935 1_556
Be4 Ir6 2.541935 1_556
Be4 Zr4 2.692682 1_555
Be4 Zr3 2.692682 1_555
Be4 Zr5 2.692682 1_555
Be4 Sc7 2.706288 1_556
Be4 Sc6 2.706289 1_556
Be4 Sc5 2.706289 1_556
Be5 Ir1 2.541934 1_565
Be5 Ir2 2.541934 1_565
Be5 Ir6 2.541934 1_565
Be5 Zr5 2.692682 1_555
Be5 Zr1 2.692682 1_555
Be5 Zr0 2.692682 1_555
Be5 Sc6 2.706288 1_565
Be5 Sc4 2.706289 1_565
Be5 Sc7 2.706289 1_565
Be6 Ir3 2.541935 1_655
Be6 Ir5 2.541935 1_655
Be6 Ir1 2.541935 1_655
Be6 Zr2 2.692682 1_555
Be6 Zr4 2.692682 1_555
Be6 Zr0 2.692682 1_555
Be6 Sc5 2.706288 1_655
Be6 Sc4 2.706289 1_655
Be6 Sc7 2.706289 1_655
Be7 Ir4 2.541934 1_555
Be7 Ir3 2.541935 1_555
Be7 Ir2 2.541935 1_555
Be7 Zr2 2.692682 1_555
Be7 Zr3 2.692682 1_555
Be7 Zr1 2.692682 1_555
Be7 Sc4 2.706288 1_555
Be7 Sc6 2.706289 1_555
Be7 Sc5 2.706289 1_555
Ir0 Sc7 2.797554 1_555
Ir0 Sc3 2.797554 1_444
Ir0 Sc0 2.797554 1_445
Ir0 Sc4 2.797554 1_554
Ir0 Sc2 2.797554 1_544
Ir0 Sc6 2.797554 1_455
Ir0 Sc5 2.797554 1_545
Ir0 Sc1 2.797554 1_454
Ir1 Sc4 2.640482 1_555
Ir1 Sc0 2.640482 1_445
Ir1 Sc3 2.640482 1_445
Ir1 Sc7 2.640482 1_555
Ir2 Sc2 2.640482 1_545
Ir2 Sc6 2.640482 1_555
Ir2 Sc0 2.640482 1_545
Ir2 Sc4 2.640482 1_555
Ir3 Sc1 2.640482 1_455
Ir3 Sc5 2.640482 1_555
Ir3 Sc0 2.640482 1_455
Ir3 Sc4 2.640482 1_555
Ir4 Sc1 2.640482 1_554
Ir4 Sc5 2.640482 1_555
Ir4 Sc2 2.640482 1_554
Ir4 Sc6 2.640482 1_555
Ir5 Sc5 2.640482 1_555
Ir5 Sc1 2.640482 1_454
Ir5 Sc3 2.640482 1_454
Ir5 Sc7 2.640482 1_555
Ir6 Sc6 2.640482 1_555
Ir6 Sc2 2.640482 1_544
Ir6 Sc3 2.640482 1_544
Ir6 Sc7 2.640482 1_555
