# generated using pymatgen
data_NaY6IrCl12
_symmetry_space_group_name_H-M   'P 1'
_cell_length_a   8.81504900
_cell_length_b   8.78097512
_cell_length_c   8.85252562
_cell_angle_alpha   107.23871085
_cell_angle_beta   107.42939891
_cell_angle_gamma   106.75307825
_symmetry_Int_Tables_number   1
_chemical_formula_structural   NaY6IrCl12
_chemical_formula_sum   'Na1 Y6 Ir1 Cl12'
_cell_volume   568.44791134
_cell_formula_units_Z   1
loop_
 _symmetry_equiv_pos_site_id
 _symmetry_equiv_pos_as_xyz
  1  'x, y, z'
loop_
 _atom_site_type_symbol
 _atom_site_label
 _atom_site_symmetry_multiplicity
 _atom_site_fract_x
 _atom_site_fract_y
 _atom_site_fract_z
 _atom_site_occupancy
  Na  Na0  1  0.50000000  0.50000000  0.50000000  1
  Y  Y0  1  0.11984205  0.32767813  0.02810212  1
  Y  Y1  1  0.32853728  0.02960364  0.11804471  1
  Y  Y2  1  0.02847781  0.12091546  0.33068238  1
  Y  Y3  1  0.97152319  0.87908454  0.66931862  1
  Y  Y4  1  0.67146272  0.97039736  0.88195529  1
  Y  Y5  1  0.88015795  0.67232187  0.97189788  1
  Ir  Ir0  1  0.00000000  0.00000000  0.00000000  1
  Cl  Cl0  1  0.21355561  0.68079341  0.07435545  1
  Cl  Cl1  1  0.45553622  0.36881182  0.15619924  1
  Cl  Cl2  1  0.68013269  0.07614719  0.21421628  1
  Cl  Cl3  1  0.92677687  0.78643567  0.32017176  1
  Cl  Cl4  1  0.15400561  0.45512266  0.36562670  1
  Cl  Cl5  1  0.36593048  0.15367184  0.45285232  1
  Cl  Cl6  1  0.63406952  0.84632816  0.54714868  1
  Cl  Cl7  1  0.84599539  0.54487734  0.63437330  1
  Cl  Cl8  1  0.07322413  0.21356433  0.67982924  1
  Cl  Cl9  1  0.31986831  0.92385381  0.78578372  1
  Cl  Cl10  1  0.54446378  0.63118818  0.84380176  1
  Cl  Cl11  1  0.78644439  0.31920659  0.92564455  1
loop_
_geom_bond_atom_site_label_1
_geom_bond_atom_site_label_2
_geom_bond_distance
_geom_bond_site_symmetry_2
Ir0 Y0 2.668876 1_555
Ir0 Y5 2.668876 1_444
Ir0 Y1 2.671858 1_555
Ir0 Y4 2.671861 1_444
Ir0 Y3 2.706237 1_444
Ir0 Y2 2.706243 1_555
Cl0 Y5 2.775344 1_454
Cl0 Y1 2.798493 1_565
Cl0 Y0 2.834183 1_555
Cl1 Y0 2.702561 1_555
Cl1 Y1 2.737543 1_555
Cl1 Na0 2.773196 1_555
Cl2 Y4 2.779426 1_544
Cl2 Y2 2.795336 1_655
Cl2 Y1 2.824981 1_555
Cl3 Y2 2.776470 1_665
Cl3 Y5 2.801961 1_554
Cl3 Y3 2.822226 1_555
Cl4 Y2 2.705029 1_555
Cl4 Y0 2.748754 1_555
Cl4 Na0 2.779999 1_555
Cl5 Y1 2.715523 1_555
Cl5 Y2 2.737905 1_555
Cl5 Na0 2.774786 1_555
Cl6 Y4 2.715515 1_555
Cl6 Y3 2.737913 1_555
Cl6 Na0 2.774783 1_555
Cl7 Y3 2.705026 1_555
Cl7 Y5 2.748757 1_555
Cl7 Na0 2.780008 1_555
Cl8 Y3 2.776470 1_445
Cl8 Y0 2.801955 1_556
Cl8 Y2 2.822226 1_555
Cl9 Y1 2.779430 1_566
Cl9 Y3 2.795333 1_455
Cl9 Y4 2.824972 1_555
Cl10 Y5 2.702561 1_555
Cl10 Y4 2.737554 1_555
Cl10 Na0 2.773204 1_555
Cl11 Y0 2.775344 1_656
Cl11 Y4 2.798484 1_545
Cl11 Y5 2.834183 1_555
